# Generated by pormake.
# Topology zga, (5)-cn, num edge types: 1
# Building blocks:
#     Node 0, Type 0, BuildingBlock: XOMCOT_clean_sbu_0, # of connection points: 5
#     Node 1, Type 0, BuildingBlock: XOMCOT_clean_sbu_0, # of connection points: 5
#     Node 2, Type 0, BuildingBlock: XOMCOT_clean_sbu_0, # of connection points: 5
#     Node 3, Type 0, BuildingBlock: XOMCOT_clean_sbu_0, # of connection points: 5
#     Node 4, Type 0, BuildingBlock: XOMCOT_clean_sbu_0, # of connection points: 5
#     Node 5, Type 0, BuildingBlock: XOMCOT_clean_sbu_0, # of connection points: 5
#     Node 6, Type 0, BuildingBlock: XOMCOT_clean_sbu_0, # of connection points: 5
#     Node 7, Type 0, BuildingBlock: XOMCOT_clean_sbu_0, # of connection points: 5
#     Node 8, Type 0, BuildingBlock: XOMCOT_clean_sbu_0, # of connection points: 5
#     Node 9, Type 0, BuildingBlock: XOMCOT_clean_sbu_0, # of connection points: 5
#     Node 10, Type 0, BuildingBlock: XOMCOT_clean_sbu_0, # of connection points: 5
#     Node 11, Type 0, BuildingBlock: XOMCOT_clean_sbu_0, # of connection points: 5
#     Node 12, Type 0, BuildingBlock: XOMCOT_clean_sbu_0, # of connection points: 5
#     Node 13, Type 0, BuildingBlock: XOMCOT_clean_sbu_0, # of connection points: 5
#     Node 14, Type 0, BuildingBlock: XOMCOT_clean_sbu_0, # of connection points: 5
#     Node 15, Type 0, BuildingBlock: XOMCOT_clean_sbu_0, # of connection points: 5
#     Edge 16, Type (0, 0), BuildingBlock: ZUJKAS_clean_linker_0, # of connection points: 2
#     Edge 17, Type (0, 0), BuildingBlock: ZUJKAS_clean_linker_0, # of connection points: 2
#     Edge 18, Type (0, 0), BuildingBlock: ZUJKAS_clean_linker_0, # of connection points: 2
#     Edge 19, Type (0, 0), BuildingBlock: ZUJKAS_clean_linker_0, # of connection points: 2
#     Edge 20, Type (0, 0), BuildingBlock: ZUJKAS_clean_linker_0, # of connection points: 2
#     Edge 21, Type (0, 0), BuildingBlock: ZUJKAS_clean_linker_0, # of connection points: 2
#     Edge 22, Type (0, 0), BuildingBlock: ZUJKAS_clean_linker_0, # of connection points: 2
#     Edge 23, Type (0, 0), BuildingBlock: ZUJKAS_clean_linker_0, # of connection points: 2
#     Edge 24, Type (0, 0), BuildingBlock: ZUJKAS_clean_linker_0, # of connection points: 2
#     Edge 25, Type (0, 0), BuildingBlock: ZUJKAS_clean_linker_0, # of connection points: 2
#     Edge 26, Type (0, 0), BuildingBlock: ZUJKAS_clean_linker_0, # of connection points: 2
#     Edge 27, Type (0, 0), BuildingBlock: ZUJKAS_clean_linker_0, # of connection points: 2
#     Edge 28, Type (0, 0), BuildingBlock: ZUJKAS_clean_linker_0, # of connection points: 2
#     Edge 29, Type (0, 0), BuildingBlock: ZUJKAS_clean_linker_0, # of connection points: 2
#     Edge 30, Type (0, 0), BuildingBlock: ZUJKAS_clean_linker_0, # of connection points: 2
#     Edge 31, Type (0, 0), BuildingBlock: ZUJKAS_clean_linker_0, # of connection points: 2
#     Edge 32, Type (0, 0), BuildingBlock: ZUJKAS_clean_linker_0, # of connection points: 2
#     Edge 33, Type (0, 0), BuildingBlock: ZUJKAS_clean_linker_0, # of connection points: 2
#     Edge 34, Type (0, 0), BuildingBlock: ZUJKAS_clean_linker_0, # of connection points: 2
#     Edge 35, Type (0, 0), BuildingBlock: ZUJKAS_clean_linker_0, # of connection points: 2
#     Edge 36, Type (0, 0), BuildingBlock: ZUJKAS_clean_linker_0, # of connection points: 2
#     Edge 37, Type (0, 0), BuildingBlock: ZUJKAS_clean_linker_0, # of connection points: 2
#     Edge 38, Type (0, 0), BuildingBlock: ZUJKAS_clean_linker_0, # of connection points: 2
#     Edge 39, Type (0, 0), BuildingBlock: ZUJKAS_clean_linker_0, # of connection points: 2
#     Edge 40, Type (0, 0), BuildingBlock: ZUJKAS_clean_linker_0, # of connection points: 2
#     Edge 41, Type (0, 0), BuildingBlock: ZUJKAS_clean_linker_0, # of connection points: 2
#     Edge 42, Type (0, 0), BuildingBlock: ZUJKAS_clean_linker_0, # of connection points: 2
#     Edge 43, Type (0, 0), BuildingBlock: ZUJKAS_clean_linker_0, # of connection points: 2
#     Edge 44, Type (0, 0), BuildingBlock: ZUJKAS_clean_linker_0, # of connection points: 2
#     Edge 45, Type (0, 0), BuildingBlock: ZUJKAS_clean_linker_0, # of connection points: 2
#     Edge 46, Type (0, 0), BuildingBlock: ZUJKAS_clean_linker_0, # of connection points: 2
#     Edge 47, Type (0, 0), BuildingBlock: ZUJKAS_clean_linker_0, # of connection points: 2
#     Edge 48, Type (0, 0), BuildingBlock: ZUJKAS_clean_linker_0, # of connection points: 2
#     Edge 49, Type (0, 0), BuildingBlock: ZUJKAS_clean_linker_0, # of connection points: 2
#     Edge 50, Type (0, 0), BuildingBlock: ZUJKAS_clean_linker_0, # of connection points: 2
#     Edge 51, Type (0, 0), BuildingBlock: ZUJKAS_clean_linker_0, # of connection points: 2
#     Edge 52, Type (0, 0), BuildingBlock: ZUJKAS_clean_linker_0, # of connection points: 2
#     Edge 53, Type (0, 0), BuildingBlock: ZUJKAS_clean_linker_0, # of connection points: 2
#     Edge 54, Type (0, 0), BuildingBlock: ZUJKAS_clean_linker_0, # of connection points: 2
#     Edge 55, Type (0, 0), BuildingBlock: ZUJKAS_clean_linker_0, # of connection points: 2
# Relax obj value: 0.025
# Max RMSD: 0.076
# Mean RMSD: 0.076
data_MOF--net-zga--node1-XOMCOT_clean_sbu_0--edge1-ZUJKAS_clean_linker_0
_symmetry_space_group_name_H-M    P1
_symmetry_Int_Tables_number       1
_symmetry_cell_setting            triclinic
loop_
_symmetry_equiv_pos_as_xyz
'x, y, z'
_cell_length_a     64.384823
_cell_length_b     131.69251
_cell_length_c     22.118635
_cell_angle_alpha  91.928299
_cell_angle_beta   89.984454
_cell_angle_gamma 89.975689
loop_
_atom_site_label
_atom_site_type_symbol
_atom_site_fract_x
_atom_site_fract_y
_atom_site_fract_z
_atom_type_partial_charge
Co0 Co 0.12911 0.54578 0.11859 0.0
C1 C 0.13501 0.54579 0.98378 0.0
C2 C 0.14998 0.53326 0.02502 0.0
C3 C 0.15254 0.53222 0.96342 0.0
N4 N 0.13941 0.5419 0.03821 0.0
N5 N 0.14307 0.54009 0.93745 0.0
H6 H 0.12556 0.55241 0.97742 0.0
H7 H 0.15484 0.52786 0.05792 0.0
C8 C 0.17488 0.54252 0.13573 0.0
O9 O 0.17825 0.54813 0.08868 0.0
N10 N 0.1187 0.54934 0.19845 0.0
C11 C 0.10467 0.55663 0.21217 0.0
C12 C 0.10214 0.55724 0.27397 0.0
C13 C 0.12452 0.54558 0.2519 0.0
N14 N 0.11464 0.5503 0.29906 0.0
C15 C 0.12705 0.56604 0.07491 0.0
C16 C 0.15598 0.5747 0.15305 0.0
C17 C 0.14491 0.58103 0.11469 0.0
C18 C 0.13043 0.57651 0.07489 0.0
C19 C 0.15205 0.56422 0.15178 0.0
N20 N 0.13809 0.55992 0.11187 0.0
H21 H 0.11457 0.56299 0.04754 0.0
H22 H 0.15944 0.55971 0.18543 0.0
H23 H 0.09715 0.56134 0.17956 0.0
H24 H 0.13575 0.53953 0.25611 0.0
O25 O 0.10128 0.54688 0.08599 0.0
O26 O 0.11498 0.53281 0.1206 0.0
O27 O 0.15636 0.54134 0.1552 0.0
C28 C 0.09916 0.53727 0.09619 0.0
H29 H 0.15992 0.52589 0.93948 0.0
H30 H 0.0923 0.56261 0.2985 0.0
H31 H 0.16679 0.57788 0.18607 0.0
H32 H 0.12129 0.58108 0.04496 0.0
Co33 Co 0.1301 0.72584 0.14066 0.0
C34 C 0.13583 0.72598 0.27546 0.0
C35 C 0.15089 0.73845 0.23392 0.0
C36 C 0.15325 0.73959 0.29555 0.0
N37 N 0.14038 0.72979 0.22091 0.0
N38 N 0.14372 0.73176 0.32171 0.0
H39 H 0.12634 0.71939 0.28193 0.0
H40 H 0.15578 0.74383 0.20087 0.0
C41 C 0.17582 0.72927 0.12275 0.0
O42 O 0.17943 0.72373 0.16995 0.0
N43 N 0.1197 0.72221 0.06093 0.0
C44 C 0.10585 0.71483 0.04728 0.0
C45 C 0.10338 0.71419 0.98546 0.0
C46 C 0.12544 0.72598 1.00746 0.0
N47 N 0.11572 0.72119 0.96032 0.0
C48 C 0.12829 0.70564 0.18484 0.0
C49 C 0.15714 0.69692 0.1066 0.0
C50 C 0.14604 0.69062 0.14506 0.0
C51 C 0.13165 0.69517 0.185 0.0
C52 C 0.15325 0.70741 0.10779 0.0
N53 N 0.13928 0.71174 0.14765 0.0
H54 H 0.11582 0.70869 0.21224 0.0
H55 H 0.16065 0.71191 0.07409 0.0
H56 H 0.09845 0.71009 0.07993 0.0
H57 H 0.13654 0.73208 1.00323 0.0
O58 O 0.10234 0.72463 0.17344 0.0
O59 O 0.1157 0.73876 0.1386 0.0
O60 O 0.15723 0.73035 0.10367 0.0
C61 C 0.10001 0.73423 0.16321 0.0
H62 H 0.1605 0.74597 0.31934 0.0
H63 H 0.0937 0.70874 0.96097 0.0
H64 H 0.16793 0.69371 0.07359 0.0
H65 H 0.12252 0.69064 0.21512 0.0
Co66 Co 0.88347 0.4746 0.89102 0.0
C67 C 0.87831 0.47504 0.02606 0.0
C68 C 0.86317 0.48744 0.98399 0.0
C69 C 0.86116 0.48876 0.04557 0.0
N70 N 0.87351 0.47872 0.97135 0.0
N71 N 0.87077 0.48098 0.07222 0.0
H72 H 0.8882 0.46858 0.03255 0.0
H73 H 0.85807 0.49272 0.95067 0.0
C74 C 0.83781 0.47832 0.87459 0.0
O75 O 0.8343 0.47261 0.92115 0.0
N76 N 0.89361 0.47079 0.81122 0.0
C77 C 0.90751 0.4634 0.79815 0.0
C78 C 0.90969 0.46247 0.73633 0.0
C79 C 0.88758 0.47431 0.75734 0.0
N80 N 0.89711 0.4693 0.71063 0.0
C81 C 0.88452 0.45438 0.93599 0.0
C82 C 0.85531 0.44595 0.85796 0.0
C83 C 0.86592 0.43951 0.89684 0.0
C84 C 0.88065 0.44393 0.93637 0.0
C85 C 0.85978 0.45638 0.85875 0.0
N86 N 0.87385 0.46057 0.89864 0.0
H87 H 0.89715 0.45732 0.9632 0.0
H88 H 0.85257 0.46094 0.82501 0.0
H89 H 0.91523 0.45887 0.83128 0.0
H90 H 0.87603 0.48019 0.75235 0.0
O91 O 0.91133 0.47326 0.92327 0.0
O92 O 0.89816 0.48741 0.88804 0.0
O93 O 0.85634 0.47933 0.85479 0.0
C94 C 0.91382 0.48284 0.91252 0.0
H95 H 0.85353 0.49509 0.06873 0.0
H96 H 0.91978 0.45715 0.71225 0.0
H97 H 0.84394 0.44296 0.82602 0.0
H98 H 0.89 0.4393 0.96542 0.0
Co99 Co 0.88411 0.29461 0.87062 0.0
C100 C 0.87886 0.2973 0.73859 0.0
C101 C 0.85485 0.28795 0.7746 0.0
C102 C 0.85177 0.2886 0.71339 0.0
N103 N 0.87174 0.29347 0.79063 0.0
N104 N 0.86691 0.29443 0.69076 0.0
H105 H 0.89265 0.30195 0.73558 0.0
H106 H 0.84564 0.28348 0.80459 0.0
C107 C 0.84232 0.2931 0.93816 0.0
O108 O 0.84341 0.3024 0.96135 0.0
N109 N 0.89689 0.29546 0.95134 0.0
C110 C 0.91717 0.29727 0.96359 0.0
C111 C 0.92025 0.29745 0.025 0.0
C112 C 0.88814 0.2943 1.00641 0.0
N113 N 0.90197 0.2956 0.05208 0.0
C114 C 0.89079 0.31583 0.89583 0.0
C115 C 0.8526 0.32279 0.85817 0.0
C116 C 0.86733 0.32988 0.88012 0.0
C117 C 0.88663 0.32623 0.89883 0.0
C118 C 0.85731 0.31236 0.8568 0.0
N119 N 0.87608 0.30895 0.87699 0.0
H120 H 0.90619 0.31336 0.90717 0.0
H121 H 0.84582 0.30703 0.83958 0.0
H122 H 0.92909 0.29866 0.93052 0.0
H123 H 0.87219 0.2923 0.01368 0.0
O124 O 0.91115 0.29619 0.83345 0.0
O125 O 0.89705 0.28148 0.85656 0.0
O126 O 0.85712 0.28945 0.90556 0.0
C127 C 0.91269 0.28632 0.83387 0.0
H128 H 0.83986 0.2847 0.68707 0.0
H129 H 0.93479 0.29908 0.04781 0.0
H130 H 0.83755 0.32528 0.84258 0.0
H131 H 0.89875 0.33142 0.91399 0.0
Co132 Co 0.1309 0.04668 0.62203 0.0
C133 C 0.13471 0.04611 0.48818 0.0
C134 C 0.15295 0.03456 0.5293 0.0
C135 C 0.1546 0.03334 0.46755 0.0
N136 N 0.1406 0.04259 0.54224 0.0
N137 N 0.14303 0.04054 0.44154 0.0
H138 H 0.12386 0.0523 0.48323 0.0
H139 H 0.15966 0.02968 0.56238 0.0
C140 C 0.17046 0.04549 0.69908 0.0
O141 O 0.16569 0.05375 0.73104 0.0
N142 N 0.12079 0.05061 0.70253 0.0
C143 C 0.10701 0.05804 0.71634 0.0
C144 C 0.10387 0.0585 0.77774 0.0
C145 C 0.12503 0.04632 0.75595 0.0
N146 N 0.1154 0.05122 0.80293 0.0
C147 C 0.12446 0.06751 0.59385 0.0
C148 C 0.16486 0.07425 0.6053 0.0
C149 C 0.14908 0.08142 0.59614 0.0
C150 C 0.12875 0.07782 0.58883 0.0
C151 C 0.15985 0.0639 0.60962 0.0
N152 N 0.13962 0.06072 0.60793 0.0
H153 H 0.10862 0.06508 0.58759 0.0
H154 H 0.17236 0.05854 0.61391 0.0
H155 H 0.09929 0.06275 0.68442 0.0
H156 H 0.13536 0.03991 0.76052 0.0
O157 O 0.10276 0.04733 0.59131 0.0
O158 O 0.11714 0.03362 0.62811 0.0
O159 O 0.15884 0.0424 0.65531 0.0
C160 C 0.101 0.0378 0.60376 0.0
H161 H 0.16345 0.02747 0.44377 0.0
H162 H 0.09367 0.06377 0.80185 0.0
H163 H 0.18095 0.0766 0.60868 0.0
H164 H 0.11597 0.08296 0.58104 0.0
Co165 Co 0.13157 0.22582 0.63404 0.0
C166 C 0.13701 0.22601 0.76899 0.0
C167 C 0.15002 0.23907 0.72799 0.0
C168 C 0.15231 0.24022 0.78959 0.0
N169 N 0.14085 0.23006 0.7147 0.0
N170 N 0.14407 0.23202 0.81539 0.0
H171 H 0.12873 0.21903 0.77516 0.0
H172 H 0.15416 0.24461 0.69506 0.0
C173 C 0.17709 0.22994 0.62171 0.0
O174 O 0.18005 0.22444 0.66947 0.0
N175 N 0.12206 0.2219 0.55391 0.0
C176 C 0.1088 0.21428 0.54008 0.0
C177 C 0.10649 0.21357 0.47828 0.0
C178 C 0.12764 0.22576 0.50057 0.0
N179 N 0.11834 0.22079 0.45334 0.0
C180 C 0.13074 0.20554 0.67837 0.0
C181 C 0.161 0.19744 0.60252 0.0
C182 C 0.15022 0.19087 0.64021 0.0
C183 C 0.13497 0.19512 0.67871 0.0
C184 C 0.15621 0.20783 0.60344 0.0
N185 N 0.14161 0.21187 0.64227 0.0
H186 H 0.11773 0.20836 0.70458 0.0
H187 H 0.16359 0.21248 0.57045 0.0
H188 H 0.10161 0.20944 0.57265 0.0
H189 H 0.13824 0.23207 0.49654 0.0
O190 O 0.10355 0.22427 0.66469 0.0
O191 O 0.11644 0.23851 0.63 0.0
O192 O 0.15884 0.23072 0.59937 0.0
C193 C 0.10077 0.23381 0.65354 0.0
H194 H 0.15865 0.2468 0.81365 0.0
H195 H 0.09723 0.20797 0.45366 0.0
H196 H 0.17274 0.19456 0.57133 0.0
H197 H 0.12553 0.19037 0.70678 0.0
Co198 Co 0.88513 0.97551 0.39722 0.0
C199 C 0.87935 0.97551 0.53198 0.0
C200 C 0.8641 0.98797 0.49089 0.0
C201 C 0.86166 0.98903 0.55253 0.0
N202 N 0.87473 0.97935 0.47757 0.0
N203 N 0.87131 0.9812 0.5784 0.0
H204 H 0.88902 0.96897 0.53825 0.0
H205 H 0.85917 0.99338 0.4581 0.0
C206 C 0.83955 0.97914 0.37863 0.0
O207 O 0.83585 0.97341 0.42498 0.0
N208 N 0.89568 0.972 0.31745 0.0
C209 C 0.90956 0.96464 0.30369 0.0
C210 C 0.91213 0.96405 0.24189 0.0
C211 C 0.88998 0.97582 0.26404 0.0
N212 N 0.89978 0.97107 0.21688 0.0
C213 C 0.88558 0.95517 0.44039 0.0
C214 C 0.85713 0.947 0.35905 0.0
C215 C 0.86704 0.94049 0.39892 0.0
C216 C 0.88138 0.94476 0.44013 0.0
C217 C 0.86175 0.95741 0.36098 0.0
N218 N 0.87542 0.96148 0.40254 0.0
H219 H 0.89807 0.95799 0.46858 0.0
H220 H 0.85504 0.96207 0.32684 0.0
H221 H 0.91691 0.95986 0.33625 0.0
H222 H 0.87884 0.9819 0.25984 0.0
O223 O 0.91277 0.974 0.43052 0.0
O224 O 0.89991 0.98832 0.39665 0.0
O225 O 0.8582 0.98032 0.36018 0.0
C226 C 0.9154 0.98361 0.42115 0.0
H227 H 0.85428 0.99535 0.57656 0.0
H228 H 0.92184 0.95863 0.2173 0.0
H229 H 0.8462 0.94407 0.32562 0.0
H230 H 0.89017 0.94001 0.46993 0.0
Co231 Co 0.88376 0.79589 0.37418 0.0
C232 C 0.87874 0.79534 0.23908 0.0
C233 C 0.86275 0.78324 0.2814 0.0
C234 C 0.86077 0.78189 0.21979 0.0
N235 N 0.87358 0.79182 0.29392 0.0
N236 N 0.8709 0.78949 0.19302 0.0
H237 H 0.88919 0.80157 0.23235 0.0
H238 H 0.85732 0.77804 0.31478 0.0
C239 C 0.83817 0.79232 0.3927 0.0
O240 O 0.83449 0.79798 0.34608 0.0
N241 N 0.89412 0.79965 0.45387 0.0
C242 C 0.90798 0.80705 0.46693 0.0
C243 C 0.91018 0.80797 0.52876 0.0
C244 C 0.88812 0.79612 0.50779 0.0
N245 N 0.89764 0.80113 0.5545 0.0
C246 C 0.88388 0.81606 0.32831 0.0
C247 C 0.85575 0.82449 0.40986 0.0
C248 C 0.86549 0.83086 0.36886 0.0
C249 C 0.87964 0.82646 0.32753 0.0
C250 C 0.86038 0.81408 0.40888 0.0
N251 N 0.87391 0.80988 0.36732 0.0
H252 H 0.89627 0.81316 0.30004 0.0
H253 H 0.85379 0.80952 0.44369 0.0
H254 H 0.91562 0.81161 0.43379 0.0
H255 H 0.87657 0.79025 0.51282 0.0
O256 O 0.91144 0.79738 0.3412 0.0
O257 O 0.89867 0.78313 0.37622 0.0
O258 O 0.85681 0.79115 0.41124 0.0
C259 C 0.91415 0.78781 0.3515 0.0
H260 H 0.85284 0.77565 0.19671 0.0
H261 H 0.92022 0.81331 0.55282 0.0
H262 H 0.84498 0.82754 0.44339 0.0
H263 H 0.88828 0.83111 0.29682 0.0
Co264 Co 0.62957 0.54525 0.6251 0.0
C265 C 0.63494 0.54768 0.4931 0.0
C266 C 0.65816 0.53788 0.52925 0.0
C267 C 0.66111 0.53832 0.46783 0.0
N268 N 0.64184 0.54381 0.54521 0.0
N269 N 0.64645 0.54443 0.4451 0.0
H270 H 0.62156 0.55262 0.49022 0.0
H271 H 0.66694 0.53325 0.5595 0.0
C272 C 0.67115 0.54428 0.69337 0.0
O273 O 0.6695 0.55361 0.71577 0.0
N274 N 0.61687 0.54638 0.70585 0.0
C275 C 0.59671 0.5485 0.71815 0.0
C276 C 0.59361 0.54863 0.77956 0.0
C277 C 0.62548 0.54495 0.76082 0.0
N278 N 0.61172 0.54643 0.80653 0.0
C279 C 0.62258 0.56654 0.64654 0.0
C280 C 0.66092 0.5734 0.60946 0.0
C281 C 0.64612 0.58052 0.63049 0.0
C282 C 0.62672 0.57693 0.64867 0.0
C283 C 0.65621 0.56297 0.60891 0.0
N284 N 0.63741 0.55962 0.62913 0.0
H285 H 0.60714 0.56411 0.65749 0.0
H286 H 0.66776 0.55759 0.59251 0.0
H287 H 0.58489 0.55006 0.68509 0.0
H288 H 0.64124 0.54259 0.76794 0.0
O289 O 0.60249 0.5466 0.58796 0.0
O290 O 0.61681 0.53204 0.61313 0.0
O291 O 0.65669 0.54039 0.6605 0.0
C292 C 0.6011 0.53674 0.5898 0.0
H293 H 0.67254 0.53406 0.44151 0.0
H294 H 0.57915 0.55045 0.80244 0.0
H295 H 0.67603 0.57585 0.59415 0.0
H296 H 0.61453 0.58216 0.66295 0.0
Co297 Co 0.62955 0.72514 0.63675 0.0
C298 C 0.63483 0.72559 0.77177 0.0
C299 C 0.65027 0.73787 0.7295 0.0
C300 C 0.65238 0.73918 0.79107 0.0
N301 N 0.63968 0.72923 0.71697 0.0
N302 N 0.64259 0.73147 0.81785 0.0
H303 H 0.62474 0.71921 0.77842 0.0
H304 H 0.65549 0.74312 0.6961 0.0
C305 C 0.67525 0.72862 0.6193 0.0
O306 O 0.67876 0.72306 0.66651 0.0
N307 N 0.61925 0.72137 0.55706 0.0
C308 C 0.60526 0.71402 0.54405 0.0
C309 C 0.60306 0.7131 0.48222 0.0
C310 C 0.62533 0.72486 0.50314 0.0
N311 N 0.61573 0.71988 0.45644 0.0
C312 C 0.62848 0.70495 0.68224 0.0
C313 C 0.65748 0.69642 0.60379 0.0
C314 C 0.64712 0.69006 0.64366 0.0
C315 C 0.63247 0.69453 0.68331 0.0
C316 C 0.65295 0.70684 0.60408 0.0
N317 N 0.63902 0.71109 0.64426 0.0
H318 H 0.61589 0.70793 0.70954 0.0
H319 H 0.66 0.71135 0.56983 0.0
H320 H 0.5975 0.70952 0.57722 0.0
H321 H 0.63696 0.73069 0.4981 0.0
O322 O 0.60173 0.7239 0.66944 0.0
O323 O 0.61502 0.738 0.63398 0.0
O324 O 0.65668 0.72971 0.59995 0.0
C325 C 0.59935 0.73349 0.65873 0.0
H326 H 0.66021 0.74546 0.81412 0.0
H327 H 0.59291 0.7078 0.45819 0.0
H328 H 0.66871 0.69337 0.5716 0.0
H329 H 0.62332 0.68994 0.71304 0.0
Co330 Co 0.38451 0.47563 0.37788 0.0
C331 C 0.37976 0.47632 0.51317 0.0
C332 C 0.36398 0.48847 0.47064 0.0
C333 C 0.36209 0.48989 0.53222 0.0
N334 N 0.37462 0.47983 0.45827 0.0
N335 N 0.37209 0.48226 0.55913 0.0
H336 H 0.39004 0.47002 0.51998 0.0
H337 H 0.35859 0.49365 0.43712 0.0
C338 C 0.33886 0.47921 0.36104 0.0
O339 O 0.33541 0.4736 0.40804 0.0
N340 N 0.39458 0.47177 0.29804 0.0
C341 C 0.40835 0.46432 0.28491 0.0
C342 C 0.41046 0.46337 0.22307 0.0
C343 C 0.38855 0.4753 0.24417 0.0
N344 N 0.39796 0.47025 0.19741 0.0
C345 C 0.38497 0.4555 0.42423 0.0
C346 C 0.35652 0.447 0.34394 0.0
C347 C 0.36674 0.44063 0.38393 0.0
C348 C 0.38096 0.44507 0.4249 0.0
C349 C 0.36098 0.45743 0.34486 0.0
N350 N 0.37472 0.46165 0.38568 0.0
H351 H 0.39736 0.45844 0.45227 0.0
H352 H 0.3542 0.46196 0.31022 0.0
H353 H 0.41601 0.45976 0.31802 0.0
H354 H 0.37708 0.48122 0.23923 0.0
O355 O 0.41235 0.4742 0.40992 0.0
O356 O 0.39935 0.48839 0.37464 0.0
O357 O 0.3574 0.48033 0.34157 0.0
C358 C 0.41498 0.48376 0.39889 0.0
H359 H 0.35429 0.49619 0.55518 0.0
H360 H 0.42042 0.458 0.19895 0.0
H361 H 0.34597 0.4439 0.30999 0.0
H362 H 0.38945 0.44049 0.45627 0.0
Co363 Co 0.38423 0.29663 0.36465 0.0
C364 C 0.37961 0.29699 0.23125 0.0
C365 C 0.36124 0.2853 0.27038 0.0
C366 C 0.3589 0.28463 0.20862 0.0
N367 N 0.37405 0.29309 0.28458 0.0
N368 N 0.37047 0.29196 0.18393 0.0
H369 H 0.39037 0.30325 0.22721 0.0
H370 H 0.35474 0.28017 0.30244 0.0
C371 C 0.34512 0.29514 0.44291 0.0
O372 O 0.35007 0.30333 0.47525 0.0
N373 N 0.39476 0.29998 0.44545 0.0
C374 C 0.40888 0.30718 0.46089 0.0
C375 C 0.41241 0.30704 0.52209 0.0
C376 C 0.39062 0.29527 0.49756 0.0
N377 N 0.40079 0.29961 0.54534 0.0
C378 C 0.3903 0.31771 0.34256 0.0
C379 C 0.34953 0.32404 0.3516 0.0
C380 C 0.36511 0.33136 0.34422 0.0
C381 C 0.38565 0.32799 0.33831 0.0
C382 C 0.35491 0.31372 0.35502 0.0
N383 N 0.37527 0.31073 0.35437 0.0
H384 H 0.40625 0.31544 0.33673 0.0
H385 H 0.34258 0.30822 0.35749 0.0
H386 H 0.41648 0.31217 0.43028 0.0
H387 H 0.38037 0.2888 0.50054 0.0
O388 O 0.41214 0.29758 0.33263 0.0
O389 O 0.39816 0.28356 0.36674 0.0
O390 O 0.35654 0.29212 0.3985 0.0
C391 C 0.4141 0.28797 0.34271 0.0
H392 H 0.35009 0.27888 0.18369 0.0
H393 H 0.42242 0.3122 0.54766 0.0
H394 H 0.33334 0.32624 0.35394 0.0
H395 H 0.39825 0.33329 0.33178 0.0
Co396 Co 0.63024 0.04549 0.12974 0.0
C397 C 0.63584 0.04537 0.99485 0.0
C398 C 0.65199 0.03324 0.03646 0.0
C399 C 0.65433 0.03211 0.97483 0.0
N400 N 0.64087 0.04172 0.04948 0.0
N401 N 0.64412 0.03973 0.94861 0.0
H402 H 0.62562 0.05171 0.98834 0.0
H403 H 0.65727 0.02794 0.06944 0.0
C404 C 0.67587 0.04217 0.1494 0.0
O405 O 0.67954 0.048 0.10352 0.0
N406 N 0.61948 0.0489 0.20941 0.0
C407 C 0.60546 0.0562 0.22315 0.0
C408 C 0.60284 0.05675 0.28494 0.0
C409 C 0.6252 0.04509 0.2628 0.0
N410 N 0.61529 0.04978 0.30997 0.0
C411 C 0.62978 0.06582 0.08625 0.0
C412 C 0.65727 0.07418 0.16981 0.0
C413 C 0.64748 0.08065 0.12939 0.0
C414 C 0.63375 0.07625 0.08677 0.0
C415 C 0.65296 0.06373 0.16739 0.0
N416 N 0.63972 0.05958 0.1249 0.0
H417 H 0.61767 0.06292 0.05698 0.0
H418 H 0.65946 0.05911 0.20203 0.0
H419 H 0.59807 0.06097 0.1906 0.0
H420 H 0.63645 0.03905 0.267 0.0
O421 O 0.60262 0.04688 0.09603 0.0
O422 O 0.61571 0.03261 0.12986 0.0
O423 O 0.65719 0.04081 0.16718 0.0
C424 C 0.60016 0.03725 0.10523 0.0
H425 H 0.66201 0.02584 0.9511 0.0
H426 H 0.59304 0.06214 0.30952 0.0
H427 H 0.66741 0.07721 0.20503 0.0
H428 H 0.62561 0.08087 0.05482 0.0
Co429 Co 0.63081 0.22492 0.1522 0.0
C430 C 0.63385 0.22567 0.2862 0.0
C431 C 0.65268 0.23703 0.24552 0.0
C432 C 0.65398 0.23832 0.30731 0.0
N433 N 0.64015 0.22909 0.23226 0.0
N434 N 0.64205 0.23123 0.33301 0.0
H435 H 0.6228 0.21956 0.29094 0.0
H436 H 0.65982 0.24181 0.21267 0.0
C437 C 0.67037 0.2269 0.07501 0.0
O438 O 0.66631 0.21866 0.04195 0.0
N439 N 0.62107 0.22084 0.07175 0.0
C440 C 0.60826 0.21301 0.05801 0.0
C441 C 0.60508 0.21248 0.99663 0.0
C442 C 0.62475 0.22525 0.0184 0.0
N443 N 0.61565 0.2201 0.97144 0.0
C444 C 0.62512 0.20424 0.18405 0.0
C445 C 0.6647 0.19714 0.16056 0.0
C446 C 0.64889 0.19007 0.1716 0.0
C447 C 0.62916 0.19387 0.1864 0.0
C448 C 0.65998 0.20757 0.15943 0.0
N449 N 0.63997 0.21093 0.16642 0.0
H450 H 0.60956 0.20675 0.19428 0.0
H451 H 0.6725 0.21281 0.15253 0.0
H452 H 0.60134 0.20804 0.09009 0.0
H453 H 0.63435 0.23192 0.01386 0.0
O454 O 0.6026 0.22401 0.18213 0.0
O455 O 0.61652 0.23785 0.14583 0.0
O456 O 0.65857 0.22956 0.11935 0.0
C457 C 0.60048 0.23351 0.16969 0.0
H458 H 0.66287 0.24414 0.33134 0.0
H459 H 0.59555 0.20692 0.97254 0.0
H460 H 0.68043 0.19465 0.15107 0.0
H461 H 0.61666 0.18883 0.19866 0.0
Co462 Co 0.38319 0.97604 0.89541 0.0
C463 C 0.37837 0.97665 0.03066 0.0
C464 C 0.36284 0.9889 0.98834 0.0
C465 C 0.36093 0.99028 0.04992 0.0
N466 N 0.37333 0.98022 0.97584 0.0
N467 N 0.37078 0.98259 0.07671 0.0
H468 H 0.38853 0.9703 0.03738 0.0
H469 H 0.35756 0.99412 0.95491 0.0
C470 C 0.33754 0.97965 0.87959 0.0
O471 O 0.33433 0.97395 0.92636 0.0
N472 N 0.39325 0.97218 0.81555 0.0
C473 C 0.40712 0.96477 0.80252 0.0
C474 C 0.40919 0.96378 0.7407 0.0
C475 C 0.38713 0.97565 0.76162 0.0
N476 N 0.39658 0.97059 0.71493 0.0
C477 C 0.38379 0.95589 0.9417 0.0
C478 C 0.35543 0.94734 0.86138 0.0
C479 C 0.36556 0.941 0.9018 0.0
C480 C 0.37979 0.94547 0.94259 0.0
C481 C 0.35978 0.95778 0.86234 0.0
N482 N 0.37347 0.96203 0.9032 0.0
H483 H 0.39627 0.95885 0.96939 0.0
H484 H 0.35287 0.96232 0.82793 0.0
H485 H 0.41486 0.96026 0.8357 0.0
H486 H 0.37556 0.98152 0.75658 0.0
O487 O 0.41104 0.97462 0.92747 0.0
O488 O 0.39803 0.98881 0.89227 0.0
O489 O 0.35599 0.98075 0.85933 0.0
C490 C 0.41364 0.98419 0.91669 0.0
H491 H 0.35322 0.9966 0.07297 0.0
H492 H 0.41923 0.95843 0.71665 0.0
H493 H 0.34457 0.94424 0.82828 0.0
H494 H 0.3887 0.94086 0.97285 0.0
Co495 Co 0.3843 0.79611 0.87238 0.0
C496 C 0.37851 0.79599 0.73753 0.0
C497 C 0.36292 0.7837 0.77923 0.0
C498 C 0.3605 0.78257 0.71763 0.0
N499 N 0.37377 0.79226 0.79217 0.0
N500 N 0.37035 0.79029 0.69135 0.0
H501 H 0.38838 0.80245 0.73097 0.0
H502 H 0.35787 0.77836 0.81227 0.0
C503 C 0.33866 0.79265 0.89182 0.0
O504 O 0.33486 0.79833 0.84539 0.0
N505 N 0.39498 0.79962 0.95203 0.0
C506 C 0.40899 0.80693 0.96549 0.0
C507 C 0.4116 0.80756 0.02726 0.0
C508 C 0.38925 0.79587 1.00561 0.0
N509 N 0.39916 0.80062 0.0526 0.0
C510 C 0.38505 0.81642 0.82849 0.0
C511 C 0.35684 0.82479 0.90997 0.0
C512 C 0.36678 0.83122 0.86968 0.0
C513 C 0.38099 0.82685 0.8284 0.0
C514 C 0.36129 0.81436 0.9083 0.0
N515 N 0.37485 0.8102 0.86672 0.0
H516 H 0.39744 0.81352 0.8002 0.0
H517 H 0.35453 0.80976 0.94263 0.0
H518 H 0.41639 0.81166 0.93273 0.0
H519 H 0.37801 0.78985 0.01007 0.0
O520 O 0.41197 0.79742 0.83876 0.0
O521 O 0.39878 0.78322 0.87325 0.0
O522 O 0.35735 0.79146 0.90991 0.0
C523 C 0.41437 0.7878 0.84845 0.0
H524 H 0.35299 0.77626 0.69393 0.0
H525 H 0.42141 0.81296 0.05162 0.0
H526 H 0.34601 0.82781 0.94346 0.0
H527 H 0.38978 0.83153 0.79823 0.0
H528 H 0.34064 0.49239 0.26767 0.0
H529 H 0.3128 0.50319 0.23056 0.0
H530 H 0.27012 0.49023 0.35684 0.0
H531 H 0.29789 0.4795 0.39484 0.0
H532 H 0.27428 0.49843 0.17944 0.0
H533 H 0.26446 0.52067 0.39514 0.0
H534 H 0.28657 0.51252 0.38049 0.0
H535 H 0.26209 0.50718 0.40227 0.0
C536 C 0.32532 0.49179 0.28744 0.0
C537 C 0.32158 0.48511 0.33464 0.0
C538 C 0.30941 0.49799 0.26616 0.0
C539 C 0.28946 0.49769 0.29175 0.0
C540 C 0.2855 0.49078 0.33738 0.0
H541 H 0.17328 0.52947 0.22975 0.0
H542 H 0.20125 0.51877 0.26719 0.0
C543 C 0.30139 0.48459 0.35873 0.0
C544 C 0.27284 0.5046 0.27068 0.0
H545 H 0.23973 0.52356 0.3181 0.0
C546 C 0.26679 0.50396 0.20968 0.0
C547 C 0.26304 0.51181 0.31017 0.0
C548 C 0.26946 0.51319 0.37554 0.0
C549 C 0.25098 0.51018 0.18737 0.0
C550 C 0.24118 0.5174 0.22686 0.0
C551 C 0.24723 0.51804 0.28786 0.0
C552 C 0.22451 0.52428 0.20579 0.0
C553 C 0.24455 0.50879 0.12201 0.0
C554 C 0.2284 0.53116 0.15997 0.0
C555 C 0.21244 0.53729 0.1384 0.0
C556 C 0.19225 0.53673 0.16248 0.0
C557 C 0.1886 0.53009 0.20995 0.0
C558 C 0.20458 0.52396 0.23144 0.0
H559 H 0.24956 0.50131 0.10245 0.0
H560 H 0.22744 0.50945 0.1171 0.0
H561 H 0.2519 0.5148 0.09524 0.0
H562 H 0.24377 0.53173 0.14046 0.0
H563 H 0.21587 0.54235 0.10209 0.0
H564 H 0.09114 0.75439 0.15036 0.0
H565 H 0.05975 0.76357 0.18328 0.0
H566 H 0.03394 0.73576 0.24819 0.0
H567 H 0.0653 0.72658 0.21614 0.0
H568 H 0.01826 0.76047 0.14969 0.0
H569 H 0.02879 0.75516 0.3956 0.0
H570 H 0.04934 0.75282 0.34135 0.0
H571 H 0.02918 0.74356 0.35064 0.0
C572 C 0.07878 0.75023 0.17164 0.0
C573 C 0.08076 0.73976 0.18089 0.0
C574 C 0.06085 0.75549 0.19043 0.0
C575 C 0.04463 0.75039 0.21916 0.0
C576 C 0.04642 0.7399 0.22735 0.0
H577 H 0.92365 0.76773 0.36423 0.0
H578 H 0.95529 0.75878 0.33132 0.0
C579 C 0.06432 0.73465 0.20861 0.0
C580 C 0.02573 0.75601 0.23983 0.0
H581 H 0.99657 0.76211 0.36506 0.0
C582 C 0.01357 0.76088 0.19682 0.0
C583 C 0.0196 0.75652 0.30135 0.0
C584 C 0.03249 0.75182 0.35006 0.0
C585 C 0.99523 0.76607 0.21341 0.0
C586 C 0.98907 0.76656 0.27492 0.0
C587 C 1.00127 0.76171 0.31795 0.0
C588 C 0.97002 0.77207 0.29553 0.0
C589 C 0.98233 0.77076 0.16469 0.0
C590 C 0.96793 0.78255 0.28737 0.0
C591 C 0.94987 0.78767 0.3061 0.0
C592 C 0.93358 0.78244 0.33379 0.0
C593 C 0.93588 0.77198 0.34299 0.0
C594 C 0.95396 0.76686 0.3242 0.0
H595 H 0.98612 0.76747 0.11911 0.0
H596 H 0.96549 0.76969 0.17322 0.0
H597 H 0.98551 0.77904 0.16437 0.0
H598 H 0.98029 0.78678 0.26658 0.0
H599 H 0.94864 0.79574 0.29861 0.0
H600 H 0.29751 0.79223 0.85994 0.0
H601 H 0.26999 0.78159 0.90037 0.0
H602 H 0.31356 0.76888 0.02504 0.0
H603 H 0.3411 0.77958 0.98557 0.0
H604 H 0.26866 0.76057 0.90008 0.0
H605 H 0.26495 0.7764 0.13542 0.0
H606 H 0.27802 0.78285 0.07556 0.0
H607 H 0.2905 0.77248 0.11196 0.0
C608 C 0.30121 0.78727 0.89653 0.0
C609 C 0.32156 0.7868 0.91957 0.0
C610 C 0.28545 0.78116 0.91946 0.0
C611 C 0.2896 0.7745 0.96621 0.0
C612 C 0.30983 0.77409 0.98981 0.0
H613 H 0.2169 0.7297 0.15546 0.0
H614 H 0.24456 0.74026 0.11506 0.0
C615 C 0.32561 0.7802 0.96693 0.0
C616 C 0.27302 0.76765 0.9883 0.0
H617 H 0.24615 0.76118 0.11463 0.0
C618 C 0.26365 0.76074 0.94694 0.0
C619 C 0.26654 0.76783 0.0495 0.0
C620 C 0.27537 0.77535 0.09564 0.0
C621 C 0.24828 0.7539 0.96523 0.0
C622 C 0.24178 0.75409 0.02641 0.0
C623 C 0.25116 0.761 0.06778 0.0
C624 C 0.22513 0.74727 0.04846 0.0
C625 C 0.23949 0.74637 0.91908 0.0
C626 C 0.20496 0.74766 0.02443 0.0
C627 C 0.18911 0.74159 0.04726 0.0
C628 C 0.19303 0.73506 0.09505 0.0
C629 C 0.21331 0.7346 0.11854 0.0
C630 C 0.22915 0.74067 0.09562 0.0
H631 H 0.25 0.74527 0.87955 0.0
H632 H 0.2367 0.73889 0.93926 0.0
H633 H 0.22444 0.74927 0.90233 0.0
H634 H 0.20133 0.75283 0.98891 0.0
H635 H 0.17367 0.7422 0.02828 0.0
H636 H 0.94863 0.47524 0.96575 0.0
H637 H 0.97998 0.48452 0.9974 0.0
H638 H 0.95427 0.5121 0.92901 0.0
H639 H 0.92279 0.50291 0.89785 0.0
H640 H 0.00825 0.49551 0.929 0.0
H641 H 0.97004 0.5205 0.10284 0.0
H642 H 0.95762 0.50932 0.0702 0.0
H643 H 0.95843 0.52086 0.02914 0.0
C644 C 0.94964 0.48328 0.9574 0.0
C645 C 0.93316 0.48835 0.92951 0.0
C646 C 0.96758 0.48857 0.97553 0.0
C647 C 0.96935 0.49904 0.96652 0.0
C648 C 0.95309 0.50408 0.93761 0.0
H649 H 0.06422 0.54466 0.04289 0.0
H650 H 0.03307 0.53524 0.01127 0.0
C651 C 0.93515 0.49879 0.91945 0.0
C652 C 0.9883 0.50466 0.9868 0.0
H653 H 1.00515 0.52422 0.0798 0.0
C654 C 0.0076 0.50176 0.96219 0.0
C655 C 0.98743 0.51282 0.03008 0.0
C656 C 0.96731 0.51602 0.0601 0.0
C657 C 0.02598 0.50691 0.97875 0.0
C658 C 0.02511 0.51508 0.02198 0.0
C659 C 1.00581 0.51797 0.04664 0.0
C660 C 0.04402 0.52076 0.04194 0.0
C661 C 0.0461 0.50372 0.94867 0.0
C662 C 0.06042 0.5158 0.07065 0.0
C663 C 0.07827 0.52117 0.08879 0.0
C664 C 0.08 0.53163 0.0789 0.0
C665 C 0.0634 0.53661 0.05111 0.0
C666 C 0.04557 0.53124 0.033 0.0
H667 H 0.04337 0.49922 0.90601 0.0
H668 H 0.05574 0.51043 0.9384 0.0
H669 H 0.05503 0.49891 0.97967 0.0
H670 H 0.05941 0.50776 0.07921 0.0
H671 H 0.09072 0.51711 0.11032 0.0
H672 H 0.84045 0.49308 0.79024 0.0
H673 H 0.81295 0.50452 0.75794 0.0
H674 H 0.76894 0.48912 0.86967 0.0
H675 H 0.79642 0.4778 0.90332 0.0
H676 H 0.77645 0.50163 0.69983 0.0
H677 H 0.7614 0.51823 0.92904 0.0
H678 H 0.78362 0.51028 0.91214 0.0
H679 H 0.7586 0.50467 0.92524 0.0
C680 C 0.8249 0.49208 0.80776 0.0
C681 C 0.82072 0.48456 0.84987 0.0
C682 C 0.80918 0.49865 0.78927 0.0
C683 C 0.78894 0.49787 0.81245 0.0
C684 C 0.78454 0.49009 0.85246 0.0
H685 H 0.67677 0.52404 0.6664 0.0
H686 H 0.70574 0.51324 0.69421 0.0
C687 C 0.80026 0.48355 0.87125 0.0
C688 C 0.77249 0.50519 0.79485 0.0
H689 H 0.73695 0.52222 0.85257 0.0
C690 C 0.76789 0.50616 0.73324 0.0
C691 C 0.76155 0.51128 0.83824 0.0
C692 C 0.76666 0.51116 0.9048 0.0
C693 C 0.75233 0.51284 0.714 0.0
C694 C 0.74068 0.51855 0.75761 0.0
C695 C 0.74567 0.51778 0.8191 0.0
C696 C 0.72306 0.52524 0.74052 0.0
C697 C 0.74879 0.5138 0.64701 0.0
C698 C 0.72269 0.53557 0.75888 0.0
C699 C 0.70591 0.54179 0.74363 0.0
C700 C 0.68911 0.5378 0.70981 0.0
C701 C 0.68948 0.52743 0.69198 0.0
C702 C 0.70616 0.52122 0.7075 0.0
H703 H 0.76282 0.51157 0.62047 0.0
H704 H 0.73595 0.50867 0.63238 0.0
H705 H 0.74449 0.52169 0.63598 0.0
H706 H 0.73545 0.53883 0.78478 0.0
H707 H 0.70614 0.54972 0.75825 0.0
H708 H 0.09151 0.25394 0.6416 0.0
H709 H 0.05936 0.26279 0.67065 0.0
H710 H 0.0331 0.23457 0.72784 0.0
H711 H 0.06529 0.22571 0.69992 0.0
H712 H 0.01897 0.26005 0.63142 0.0
H713 H 0.02463 0.25302 0.8767 0.0
H714 H 0.0461 0.25087 0.82542 0.0
H715 H 0.0256 0.24165 0.82971 0.0
C716 C 0.07889 0.24961 0.66038 0.0
C717 C 0.08102 0.23912 0.6688 0.0
C718 C 0.06052 0.25469 0.67694 0.0
C719 C 0.04392 0.24939 0.70247 0.0
C720 C 0.04585 0.23887 0.7096 0.0
H721 H 0.92075 0.26593 0.83428 0.0
H722 H 0.95231 0.25709 0.80001 0.0
C723 C 0.06423 0.2338 0.69322 0.0
C724 C 0.02458 0.25486 0.72122 0.0
H725 H 0.99297 0.26009 0.84258 0.0
C726 C 0.01333 0.2601 0.67764 0.0
C727 C 0.01722 0.25494 0.78159 0.0
C728 C 0.0291 0.24991 0.83123 0.0
C729 C 0.99475 0.26523 0.69249 0.0
C730 C 0.98735 0.26525 0.75276 0.0
C731 C 0.99861 0.26004 0.79634 0.0
C732 C 0.96798 0.27066 0.77173 0.0
C733 C 0.98296 0.2704 0.64324 0.0
C734 C 0.96631 0.28125 0.76763 0.0
C735 C 0.94827 0.28633 0.78722 0.0
C736 C 0.93157 0.28092 0.81157 0.0
C737 C 0.93329 0.27032 0.8156 0.0
C738 C 0.95134 0.26525 0.79611 0.0
H739 H 0.98774 0.26754 0.59749 0.0
H740 H 0.96596 0.26926 0.64826 0.0
H741 H 0.98611 0.27868 0.6464 0.0
H742 H 0.97908 0.28562 0.7501 0.0
H743 H 0.9475 0.29451 0.78378 0.0
H744 H 0.68005 0.24565 0.1241 0.0
H745 H 0.70915 0.25659 0.09961 0.0
H746 H 0.73137 0.23397 0.96976 0.0
H747 H 0.70194 0.22298 0.9934 0.0
H748 H 0.75056 0.25387 0.10997 0.0
H749 H 0.73056 0.25902 0.86901 0.0
H750 H 0.71278 0.25343 0.92144 0.0
H751 H 0.73351 0.24597 0.8883 0.0
C752 C 0.69111 0.24294 0.09045 0.0
C753 C 0.68858 0.23338 0.06083 0.0
C754 C 0.70778 0.24925 0.07638 0.0
C755 C 0.72235 0.24621 0.03216 0.0
C756 C 0.72009 0.23661 1.00305 0.0
H757 H 0.8352 0.27359 0.89663 0.0
H758 H 0.80623 0.26248 0.92045 0.0
C759 C 0.70332 0.23029 0.01695 0.0
C760 C 0.73997 0.25308 0.01759 0.0
H761 H 0.76299 0.26567 0.90249 0.0
C762 C 0.75321 0.25648 0.06462 0.0
C763 C 0.74346 0.25653 0.95844 0.0
C764 C 0.72923 0.25364 0.90647 0.0
C765 C 0.76995 0.26306 0.05402 0.0
C766 C 0.77346 0.26646 0.9949 0.0
C767 C 0.76029 0.26306 0.94781 0.0
C768 C 0.79098 0.27338 0.9807 0.0
C769 C 0.78401 0.26615 0.10599 0.0
C770 C 0.792 0.2833 1.00614 0.0
C771 C 0.80858 0.28974 0.99237 0.0
C772 C 0.8245 0.2864 0.95284 0.0
C773 C 0.82329 0.27647 0.92723 0.0
C774 C 0.80669 0.27007 0.94077 0.0
H775 H 0.78209 0.26114 0.14503 0.0
H776 H 0.80054 0.26597 0.09164 0.0
H777 H 0.78022 0.27404 0.12144 0.0
H778 H 0.77988 0.28608 0.03636 0.0
H779 H 0.80893 0.29733 0.01279 0.0
H780 H 0.33822 0.99239 0.78365 0.0
H781 H 0.31042 1.00358 0.75015 0.0
H782 H 0.27006 0.99235 0.88838 0.0
H783 H 0.29755 0.98101 0.92129 0.0
H784 H 0.24966 0.99408 0.78269 0.0
H785 H 0.29252 0.02977 0.83611 0.0
H786 H 0.30601 0.02129 0.7844 0.0
H787 H 0.3013 0.01757 0.8607 0.0
C788 C 0.32339 0.99224 0.80671 0.0
C789 C 0.32021 0.98582 0.85546 0.0
C790 C 0.30755 0.99873 0.78782 0.0
C791 C 0.28825 0.99901 0.81761 0.0
C792 C 0.28483 0.99235 0.86492 0.0
H793 H 0.19351 0.04646 0.80372 0.0
H794 H 0.22211 0.03526 0.83212 0.0
C795 C 0.30061 0.98584 0.88365 0.0
C796 C 0.27157 1.00618 0.7997 0.0
H797 H 0.26051 0.03138 0.78396 0.0
C798 C 0.25205 1.00224 0.78302 0.0
C799 C 0.2745 0.01686 0.80111 0.0
C800 C 0.29464 0.02165 0.82211 0.0
C801 C 0.23554 1.00861 0.76702 0.0
C802 C 0.2387 0.01926 0.76631 0.0
C803 C 0.25812 0.02323 0.78382 0.0
C804 C 0.22197 0.02638 0.74798 0.0
C805 C 0.21473 1.00387 0.7524 0.0
C806 C 0.21272 0.02533 0.69064 0.0
C807 C 0.19634 0.03167 0.67447 0.0
C808 C 0.18895 0.03933 0.71491 0.0
C809 C 0.19879 0.04065 0.77144 0.0
C810 C 0.21513 0.03424 0.78778 0.0
H811 H 0.21321 0.99623 0.77182 0.0
H812 H 0.2018 1.00873 0.76978 0.0
H813 H 0.21308 1.00295 0.70258 0.0
H814 H 0.21808 0.01954 0.65839 0.0
H815 H 0.18939 0.03052 0.63024 0.0
H816 H 0.17697 0.24228 0.52392 0.0
H817 H 0.20509 0.25324 0.48977 0.0
H818 H 0.24437 0.24276 0.63268 0.0
H819 H 0.21661 0.23168 0.66634 0.0
H820 H 0.22444 0.26898 0.55089 0.0
H821 H 0.28223 0.23933 0.48753 0.0
H822 H 0.25531 0.23641 0.50151 0.0
H823 H 0.27303 0.23839 0.5637 0.0
C824 C 0.19169 0.2422 0.54762 0.0
C825 C 0.19453 0.23603 0.59771 0.0
C826 C 0.20774 0.24851 0.52816 0.0
C827 C 0.22699 0.24875 0.55813 0.0
C828 C 0.22987 0.24256 0.60791 0.0
H829 H 0.32142 0.29646 0.54636 0.0
H830 H 0.29228 0.28557 0.57389 0.0
C831 C 0.21389 0.23624 0.62726 0.0
C832 C 0.2438 0.25573 0.53885 0.0
H833 H 0.29464 0.25636 0.49464 0.0
C834 C 0.23976 0.26622 0.53826 0.0
C835 C 0.26376 0.25214 0.52173 0.0
C836 C 0.26882 0.24095 0.518 0.0
C837 C 0.25518 0.2732 0.52207 0.0
C838 C 0.27536 0.26964 0.5071 0.0
C839 C 0.27928 0.25913 0.50674 0.0
C840 C 0.29253 0.27659 0.49006 0.0
C841 C 0.24959 0.28431 0.52008 0.0
C842 C 0.30265 0.27511 0.43425 0.0
C843 C 0.3194 0.28126 0.41868 0.0
C844 C 0.32652 0.28905 0.45856 0.0
C845 C 0.31623 0.29061 0.51426 0.0
C846 C 0.29949 0.28441 0.52998 0.0
H847 H 0.23254 0.28543 0.51626 0.0
H848 H 0.25486 0.28825 0.56248 0.0
H849 H 0.25728 0.28795 0.48143 0.0
H850 H 0.29764 0.26914 0.40266 0.0
H851 H 0.32685 0.27983 0.37538 0.0
H852 H 0.94982 0.97567 0.4745 0.0
H853 H 0.98128 0.98467 0.50793 0.0
H854 H 0.95641 0.01263 0.44225 0.0
H855 H 0.92481 1.00371 0.40931 0.0
H856 H 0.00997 0.99568 0.44138 0.0
H857 H 0.97207 0.02039 0.61708 0.0
H858 H 0.95944 1.00938 0.58307 0.0
H859 H 0.96053 0.02106 0.54343 0.0
C860 C 0.95104 0.98374 0.46716 0.0
C861 C 0.93476 0.98899 0.43947 0.0
C862 C 0.96904 0.98887 0.4863 0.0
C863 C 0.97108 0.99936 0.47854 0.0
C864 C 0.95501 1.00458 0.44991 0.0
H865 H 0.06549 0.04485 0.55241 0.0
H866 H 0.03443 0.03521 0.5232 0.0
C867 C 0.93701 0.99946 0.43072 0.0
C868 C 0.99013 1.0048 0.49967 0.0
H869 H 0.00719 0.02417 0.59376 0.0
C870 C 0.0094 1.00187 0.47499 0.0
C871 C 0.98936 0.01287 0.54358 0.0
C872 C 0.96928 0.01607 0.57383 0.0
C873 C 0.02784 1.00694 0.4918 0.0
C874 C 0.02704 0.01507 0.53534 0.0
C875 C 0.00779 0.01795 0.56038 0.0
C876 C 0.04592 0.02086 0.55436 0.0
C877 C 0.04792 1.00376 0.4615 0.0
C878 C 0.06262 0.01604 0.5826 0.0
C879 C 0.08046 0.02155 0.5994 0.0
C880 C 0.08186 0.03199 0.58855 0.0
C881 C 0.06494 0.03682 0.56134 0.0
C882 C 0.04715 0.03132 0.54461 0.0
H883 H 0.04517 0.99917 0.4192 0.0
H884 H 0.05742 1.01049 0.45055 0.0
H885 H 0.05702 0.99906 0.49268 0.0
H886 H 0.06186 1.00802 0.59171 0.0
H887 H 0.09318 0.01761 0.62049 0.0
H888 H 0.67386 0.02897 0.24262 0.0
H889 H 0.70184 0.01848 0.28197 0.0
H890 H 0.74473 0.03141 0.15619 0.0
H891 H 0.71696 0.04201 0.11706 0.0
H892 H 0.72515 1.00391 0.21842 0.0
H893 H 0.77649 0.03411 0.31523 0.0
H894 H 0.74983 0.03647 0.29469 0.0
H895 H 0.76968 0.03579 0.2375 0.0
C896 C 0.6893 0.02969 0.22377 0.0
C897 C 0.69313 0.03638 0.17672 0.0
C898 C 0.70528 0.02365 0.24625 0.0
C899 C 0.72547 0.02422 0.22255 0.0
C900 C 0.7294 0.03097 0.17608 0.0
H901 H 0.84167 0.99226 0.28502 0.0
H902 H 0.81376 1.00276 0.2453 0.0
C903 C 0.71344 0.03701 0.15357 0.0
C904 C 0.74217 0.01743 0.2445 0.0
H905 H 0.79045 0.01741 0.30877 0.0
C906 C 0.73938 1.00686 0.23849 0.0
C907 C 0.76079 0.02127 0.27044 0.0
C908 C 0.76437 0.03253 0.28044 0.0
C909 C 0.75482 1.00005 0.25675 0.0
C910 C 0.77343 1.00389 0.28272 0.0
C911 C 0.77622 0.01446 0.28868 0.0
C912 C 0.79009 0.9971 0.30488 0.0
C913 C 0.75124 0.9888 0.2468 0.0
C914 C 0.78611 0.9904 0.35157 0.0
C915 C 0.80203 0.98436 0.37432 0.0
C916 C 0.82234 0.98494 0.35117 0.0
C917 C 0.82623 0.99158 0.30388 0.0
C918 C 0.81029 0.99762 0.28119 0.0
H919 H 0.73911 0.98721 0.21202 0.0
H920 H 0.76578 0.98485 0.23256 0.0
H921 H 0.74593 0.98554 0.28976 0.0
H922 H 0.77077 0.99 0.37144 0.0
H923 H 0.79847 0.9794 0.41098 0.0
H924 H 0.67335 0.7416 0.52498 0.0
H925 H 0.70123 0.75219 0.4861 0.0
H926 H 0.74386 0.73976 0.61444 0.0
H927 H 0.71619 0.72906 0.65317 0.0
H928 H 0.72382 0.76701 0.55038 0.0
H929 H 0.77641 0.73706 0.45637 0.0
H930 H 0.7497 0.73457 0.47579 0.0
H931 H 0.76922 0.73542 0.53386 0.0
C932 C 0.68872 0.74101 0.54448 0.0
C933 C 0.69251 0.73443 0.59216 0.0
C934 C 0.70463 0.7471 0.52227 0.0
C935 C 0.72472 0.74671 0.54686 0.0
C936 C 0.72861 0.74007 0.5939 0.0
H937 H 0.8403 0.77926 0.48659 0.0
H938 H 0.81251 0.76865 0.52584 0.0
C939 C 0.71272 0.73397 0.61618 0.0
C940 C 0.74131 0.75359 0.52524 0.0
H941 H 0.78981 0.75386 0.46241 0.0
C942 C 0.7382 0.76414 0.53083 0.0
C943 C 0.76013 0.74984 0.50001 0.0
C944 C 0.76406 0.73861 0.49056 0.0
C945 C 0.75351 0.77104 0.51283 0.0
C946 C 0.77232 0.76729 0.48752 0.0
C947 C 0.77543 0.75674 0.48198 0.0
C948 C 0.78888 0.77417 0.46569 0.0
C949 C 0.74958 0.78227 0.52239 0.0
C950 C 0.78488 0.78084 0.41885 0.0
C951 C 0.80072 0.78695 0.39639 0.0
C952 C 0.82099 0.78647 0.41997 0.0
C953 C 0.82489 0.77986 0.46741 0.0
C954 C 0.80902 0.77376 0.48983 0.0
H955 H 0.73732 0.7838 0.55687 0.0
H956 H 0.76397 0.78632 0.53683 0.0
H957 H 0.74428 0.78546 0.47922 0.0
H958 H 0.76958 0.78116 0.39862 0.0
H959 H 0.79715 0.79188 0.35959 0.0
H960 H 0.44894 0.79538 0.79385 0.0
H961 H 0.48012 0.78609 0.76074 0.0
H962 H 0.4546 0.75847 0.82916 0.0
H963 H 0.42329 0.76768 0.86176 0.0
H964 H 0.50859 0.77508 0.82786 0.0
H965 H 0.4699 0.75011 0.65507 0.0
H966 H 0.45753 0.76127 0.68823 0.0
H967 H 0.45854 0.74971 0.7291 0.0
C968 C 0.44995 0.78733 0.80185 0.0
C969 C 0.43358 0.78226 0.83022 0.0
C970 C 0.46779 0.78203 0.78289 0.0
C971 C 0.46958 0.77155 0.79152 0.0
C972 C 0.45341 0.76651 0.82081 0.0
H973 H 0.56459 0.726 0.71273 0.0
H974 H 0.5334 0.73536 0.74498 0.0
C975 C 0.43556 0.7718 0.8398 0.0
C976 C 0.48847 0.76593 0.77065 0.0
H977 H 0.50509 0.74637 0.67718 0.0
C978 C 0.50785 0.76884 0.79469 0.0
C979 C 0.4875 0.75776 0.7274 0.0
C980 C 0.46729 0.75456 0.69795 0.0
C981 C 0.52619 0.76369 0.77759 0.0
C982 C 0.5252 0.75552 0.73439 0.0
C983 C 0.50584 0.75262 0.71031 0.0
C984 C 0.54408 0.74986 0.71382 0.0
C985 C 0.54639 0.76689 0.80706 0.0
C986 C 0.56033 0.75484 0.68456 0.0
C987 C 0.57819 0.74951 0.66605 0.0
C988 C 0.5801 0.73906 0.67611 0.0
C989 C 0.56363 0.73404 0.70437 0.0
C990 C 0.54579 0.73938 0.72284 0.0
H991 H 0.54379 0.77139 0.8498 0.0
H992 H 0.5561 0.76018 0.81704 0.0
H993 H 0.5552 0.7717 0.77579 0.0
H994 H 0.5592 0.76287 0.67593 0.0
H995 H 0.59053 0.75359 0.64418 0.0
H996 H 0.56622 0.54466 0.53873 0.0
H997 H 0.53493 0.53555 0.5048 0.0
H998 H 0.56235 0.50725 0.55628 0.0
H999 H 0.59359 0.5163 0.59085 0.0
H1000 H 0.53048 0.51971 0.41684 0.0
H1001 H 0.50613 0.50737 0.64368 0.0
H1002 H 0.52535 0.51714 0.63354 0.0
H1003 H 0.53229 0.50398 0.62321 0.0
C1004 C 0.56559 0.5365 0.54292 0.0
C1005 C 0.58235 0.53121 0.56786 0.0
C1006 C 0.5477 0.5313 0.52342 0.0
C1007 C 0.54615 0.52074 0.52885 0.0
C1008 C 0.56301 0.51542 0.55276 0.0
H1009 H 0.45021 0.47583 0.44773 0.0
H1010 H 0.48218 0.48481 0.47644 0.0
C1011 C 0.58091 0.52061 0.57221 0.0
C1012 C 0.52697 0.51528 0.50905 0.0
H1013 H 0.48733 0.50055 0.55971 0.0
C1014 C 0.52099 0.51555 0.44807 0.0
C1015 C 0.51461 0.50984 0.54984 0.0
C1016 C 0.51976 0.50961 0.61634 0.0
C1017 C 0.50321 0.51038 0.42656 0.0
C1018 C 0.49083 0.50495 0.46739 0.0
C1019 C 0.49683 0.50469 0.52838 0.0
C1020 C 0.47157 0.4995 0.44799 0.0
C1021 C 0.49813 0.51059 0.36002 0.0
C1022 C 0.45487 0.50476 0.42277 0.0
C1023 C 0.43658 0.49963 0.40609 0.0
C1024 C 0.43456 0.48915 0.41478 0.0
C1025 C 0.45128 0.4839 0.44024 0.0
C1026 C 0.46956 0.48903 0.45677 0.0
H1027 H 0.51193 0.5126 0.33271 0.0
H1028 H 0.49211 0.50312 0.34307 0.0
H1029 H 0.486 0.51641 0.35279 0.0
H1030 H 0.45583 0.51287 0.41683 0.0
H1031 H 0.42395 0.50391 0.38706 0.0
H1032 H 0.44923 0.29551 0.2918 0.0
H1033 H 0.48066 0.28627 0.26144 0.0
H1034 H 0.45402 0.25848 0.32401 0.0
H1035 H 0.4225 0.26773 0.35529 0.0
H1036 H 0.49524 0.26154 0.36077 0.0
H1037 H 0.48703 0.26693 0.11418 0.0
H1038 H 0.48627 0.27852 0.15922 0.0
H1039 H 0.46599 0.26927 0.16682 0.0
C1040 C 0.45002 0.28743 0.29913 0.0
C1041 C 0.43331 0.28235 0.32577 0.0
C1042 C 0.46797 0.28214 0.28133 0.0
C1043 C 0.46956 0.27164 0.28938 0.0
C1044 C 0.45306 0.26657 0.31695 0.0
H1045 H 0.56497 0.22597 0.21823 0.0
H1046 H 0.53335 0.23522 0.24668 0.0
C1047 C 0.43507 0.27186 0.33481 0.0
C1048 C 0.48861 0.26602 0.2701 0.0
H1049 H 0.51893 0.25995 0.14717 0.0
C1050 C 0.50036 0.26114 0.31403 0.0
C1051 C 0.49533 0.26554 0.2091 0.0
C1052 C 0.48292 0.27026 0.15945 0.0
C1053 C 0.51883 0.25596 0.29885 0.0
C1054 C 0.52554 0.25547 0.23784 0.0
C1055 C 0.5138 0.26035 0.19391 0.0
C1056 C 0.54457 0.24982 0.21868 0.0
C1057 C 0.53124 0.25125 0.34855 0.0
C1058 C 0.56118 0.25487 0.19149 0.0
C1059 C 0.57929 0.24957 0.17469 0.0
C1060 C 0.58105 0.23911 0.18449 0.0
C1061 C 0.56419 0.23404 0.2104 0.0
C1062 C 0.54613 0.23933 0.22709 0.0
H1063 H 0.52716 0.2546 0.39377 0.0
H1064 H 0.52786 0.24299 0.3489 0.0
H1065 H 0.54817 0.25222 0.34113 0.0
H1066 H 0.56026 0.26295 0.18417 0.0
H1067 H 0.59197 0.25369 0.15474 0.0
H1068 H 0.44834 0.97642 0.96948 0.0
H1069 H 0.47986 0.98553 1.00127 0.0
H1070 H 0.45463 0.01329 0.93379 0.0
H1071 H 0.42297 1.00426 0.90247 0.0
H1072 H 0.50835 0.99643 0.93338 0.0
H1073 H 0.47057 0.02148 0.10778 0.0
H1074 H 0.45794 1.01038 0.0748 0.0
H1075 H 0.45903 0.02195 0.03402 0.0
C1076 C 0.44949 0.98446 0.96135 0.0
C1077 C 0.43309 0.98962 0.93368 0.0
C1078 C 0.46753 0.98966 0.97955 0.0
C1079 C 0.4695 1.00013 0.97086 0.0
C1080 C 0.45331 1.00526 0.94215 0.0
H1081 H 0.56566 0.04502 0.05132 0.0
H1082 H 0.53431 0.0359 0.01823 0.0
C1083 C 0.43526 1.00007 0.9239 0.0
C1084 C 0.48856 1.00564 0.99133 0.0
H1085 H 0.50582 0.02497 0.08541 0.0
C1086 C 0.50781 1.00264 0.9668 0.0
C1087 C 0.48786 0.01376 0.03494 0.0
C1088 C 0.46778 0.01705 0.06492 0.0
C1089 C 0.52631 1.00765 0.98382 0.0
C1090 C 0.52561 0.01577 0.02743 0.0
C1091 C 0.50635 0.01877 0.05195 0.0
C1092 C 0.54467 0.02127 0.04811 0.0
C1093 C 0.54639 1.00436 0.95388 0.0
C1094 C 0.56083 0.01612 0.07684 0.0
C1095 C 0.57878 0.02131 0.09582 0.0
C1096 C 0.5809 0.03179 0.0868 0.0
C1097 C 0.56455 0.03695 0.0589 0.0
C1098 C 0.54661 0.03175 0.03995 0.0
H1099 H 0.5436 0.99996 0.9109 0.0
H1100 H 0.55628 0.01101 0.94422 0.0
H1101 H 0.55509 0.99942 0.98469 0.0
H1102 H 0.55952 1.00807 0.08481 0.0
H1103 H 0.59102 0.01711 0.1174 0.0
H1104 H 0.14839 0.5423 0.35452 0.0
H1105 H 0.15321 0.54012 0.46305 0.0
H1106 H 0.09254 0.55289 0.49774 0.0
H1107 H 0.08726 0.55473 0.38956 0.0
H1108 H 0.15352 0.55479 0.5548 0.0
H1109 H 0.09031 0.52719 0.59319 0.0
H1110 H 0.09945 0.53002 0.51849 0.0
H1111 H 0.08157 0.53845 0.55751 0.0
C1112 C 0.1359 0.54448 0.38503 0.0
C1113 C 0.11739 0.54868 0.36294 0.0
C1114 C 0.13876 0.54329 0.44719 0.0
C1115 C 0.12313 0.54621 0.48857 0.0
C1116 C 0.10466 0.55039 0.46671 0.0
H1117 H 0.11107 0.54925 0.88039 0.0
H1118 H 0.10686 0.5511 0.77122 0.0
C1119 C 0.10178 0.55156 0.40469 0.0
C1120 C 0.12639 0.54524 0.55471 0.0
H1121 H 0.10577 0.53491 0.68113 0.0
C1122 C 0.14317 0.55038 0.58234 0.0
C1123 C 0.11285 0.5395 0.59072 0.0
C1124 C 0.09515 0.53339 0.56344 0.0
C1125 C 0.14653 0.55012 0.64508 0.0
C1126 C 0.13287 0.54446 0.68107 0.0
C1127 C 0.11614 0.53929 0.65349 0.0
C1128 C 0.13585 0.54368 0.74735 0.0
C1129 C 0.16439 0.55607 0.67259 0.0
C1130 C 0.1535 0.53888 0.77014 0.0
C1131 C 0.15597 0.53783 0.83244 0.0
C1132 C 0.14081 0.54155 0.87335 0.0
C1133 C 0.12318 0.54643 0.85034 0.0
C1134 C 0.12068 0.54743 0.78792 0.0
H1135 H 0.1703 0.56188 0.64167 0.0
H1136 H 0.1597 0.5599 0.71596 0.0
H1137 H 0.17732 0.55079 0.68214 0.0
H1138 H 0.16527 0.53581 0.73964 0.0
H1139 H 0.16978 0.53411 0.84863 0.0
H1140 H 0.08873 0.71643 0.86934 0.0
H1141 H 0.09426 0.71818 0.7611 0.0
H1142 H 0.15419 0.73168 0.79692 0.0
H1143 H 0.14916 0.72958 0.9053 0.0
H1144 H 0.10076 0.73509 0.69518 0.0
H1145 H 0.16861 0.70921 0.6738 0.0
H1146 H 0.15239 0.70985 0.74036 0.0
H1147 H 0.17191 0.71937 0.7291 0.0
C1148 C 0.10321 0.71966 0.8544 0.0
C1149 C 0.11858 0.72275 0.89641 0.0
C1150 C 0.10628 0.72073 0.79235 0.0
C1151 C 0.12479 0.72489 0.7707 0.0
C1152 C 0.13996 0.72824 0.81242 0.0
H1153 H 0.16989 0.73801 0.41124 0.0
H1154 H 0.16497 0.73641 0.52022 0.0
C1155 C 0.13693 0.72715 0.87459 0.0
C1156 C 0.12802 0.7258 0.7045 0.0
H1157 H 0.15989 0.71848 0.58725 0.0
C1158 C 0.11365 0.73143 0.67156 0.0
C1159 C 0.14483 0.721 0.67363 0.0
C1160 C 0.16022 0.71444 0.70584 0.0
C1161 C 0.11579 0.73252 0.60887 0.0
C1162 C 0.1326 0.72774 0.5781 0.0
C1163 C 0.14702 0.72214 0.61097 0.0
C1164 C 0.13559 0.72854 0.51183 0.0
C1165 C 0.10026 0.73894 0.57623 0.0
C1166 C 0.12087 0.7245 0.47085 0.0
C1167 C 0.12363 0.72542 0.40847 0.0
C1168 C 0.14118 0.7304 0.38585 0.0
C1169 C 0.15606 0.73427 0.42713 0.0
C1170 C 0.15334 0.73331 0.48941 0.0
H1171 H 0.0913 0.74397 0.60804 0.0
H1172 H 0.10813 0.74372 0.5427 0.0
H1173 H 0.08911 0.7339 0.55152 0.0
H1174 H 0.10721 0.72064 0.48714 0.0
H1175 H 0.11178 0.72241 0.37815 0.0
H1176 H 0.902 0.45507 0.62022 0.0
H1177 H 0.89756 0.45732 0.51186 0.0
H1178 H 0.88009 0.48858 0.5466 0.0
H1179 H 0.88495 0.48645 0.65537 0.0
H1180 H 0.86124 0.46352 0.44945 0.0
H1181 H 0.9271 0.49015 0.41944 0.0
H1182 H 0.92452 0.48252 0.48533 0.0
H1183 H 0.90896 0.49374 0.47815 0.0
C1184 C 0.89745 0.46247 0.60495 0.0
C1185 C 0.89403 0.47061 0.64664 0.0
C1186 C 0.89477 0.46372 0.54293 0.0
C1187 C 0.88877 0.47315 0.52108 0.0
C1188 C 0.88505 0.48127 0.56244 0.0
H1189 H 0.86877 0.49562 0.16192 0.0
H1190 H 0.87248 0.49341 0.27022 0.0
C1191 C 0.88765 0.48002 0.62464 0.0
C1192 C 0.88617 0.47439 0.45502 0.0
H1193 H 0.90552 0.4869 0.33454 0.0
C1194 C 0.87093 0.46861 0.42422 0.0
C1195 C 0.89884 0.48104 0.42229 0.0
C1196 C 0.91591 0.48717 0.4527 0.0
C1197 C 0.86777 0.46944 0.36169 0.0
C1198 C 0.88054 0.47605 0.32879 0.0
C1199 C 0.89577 0.48183 0.35971 0.0
C1200 C 0.87813 0.47723 0.2625 0.0
C1201 C 0.85043 0.46342 0.33182 0.0
C1202 C 0.8803 0.46889 0.22173 0.0
C1203 C 0.87791 0.47009 0.15943 0.0
C1204 C 0.8735 0.4797 0.13647 0.0
C1205 C 0.87173 0.48807 0.17758 0.0
C1206 C 0.87403 0.48684 0.23974 0.0
H1207 H 0.8387 0.461 0.36526 0.0
H1208 H 0.84249 0.4679 0.29703 0.0
H1209 H 0.85698 0.45647 0.3093 0.0
H1210 H 0.88392 0.46143 0.23805 0.0
H1211 H 0.87931 0.46347 0.12942 0.0
H1212 H 0.8651 0.29884 0.11007 0.0
H1213 H 0.85901 0.29931 0.2193 0.0
H1214 H 0.92371 0.29289 0.25008 0.0
H1215 H 0.92991 0.29216 0.1412 0.0
H1216 H 0.86822 0.28336 0.30471 0.0
H1217 H 0.91132 0.31922 0.35514 0.0
H1218 H 0.90226 0.31566 0.28009 0.0
H1219 H 0.92496 0.30974 0.31018 0.0
C1220 C 0.87802 0.29741 0.13984 0.0
C1221 C 0.89805 0.29552 0.11646 0.0
C1222 C 0.87452 0.29775 0.20235 0.0
C1223 C 0.89099 0.29631 0.2427 0.0
C1224 C 0.91088 0.29424 0.2197 0.0
H1225 H 0.90404 0.29564 0.63365 0.0
H1226 H 0.90973 0.29645 0.52421 0.0
C1227 C 0.91439 0.29384 0.15731 0.0
C1228 C 0.88733 0.29675 0.30891 0.0
H1229 H 0.89957 0.31012 0.43908 0.0
C1230 C 0.87495 0.28923 0.33415 0.0
C1231 C 0.8963 0.30438 0.34707 0.0
C1232 C 0.90934 0.31277 0.32194 0.0
C1233 C 0.87161 0.28901 0.39684 0.0
C1234 C 0.88041 0.29671 0.43515 0.0
C1235 C 0.89279 0.30424 0.40976 0.0
C1236 C 0.87703 0.29701 0.50167 0.0
C1237 C 0.85919 0.28035 0.42148 0.0
C1238 C 0.85684 0.29743 0.52552 0.0
C1239 C 0.85359 0.29689 0.58777 0.0
C1240 C 0.87048 0.29613 0.6276 0.0
C1241 C 0.89075 0.29628 0.60405 0.0
C1242 C 0.89399 0.2967 0.54156 0.0
H1243 H 0.85885 0.27369 0.38927 0.0
H1244 H 0.86565 0.27789 0.46516 0.0
H1245 H 0.84293 0.28287 0.42915 0.0
H1246 H 0.84354 0.298 0.49586 0.0
H1247 H 0.83783 0.29697 0.60485 0.0
H1248 H 0.14586 0.02576 0.35333 0.0
H1249 H 0.14133 0.02757 0.24489 0.0
H1250 H 0.12664 0.05929 0.27467 0.0
H1251 H 0.13188 0.05762 0.38364 0.0
H1252 H 0.10704 0.03342 0.18024 0.0
H1253 H 0.17252 0.06009 0.14755 0.0
H1254 H 0.16933 0.05313 0.21582 0.0
H1255 H 0.15406 0.06431 0.20384 0.0
C1256 C 0.14196 0.03317 0.33704 0.0
C1257 C 0.13954 0.04159 0.37746 0.0
C1258 C 0.13919 0.03417 0.27487 0.0
C1259 C 0.13399 0.04359 0.25145 0.0
C1260 C 0.13107 0.05198 0.29159 0.0
H1261 H 0.11038 0.06525 0.89427 0.0
H1262 H 0.11459 0.06284 1.00219 0.0
C1263 C 0.13385 0.05099 0.35398 0.0
C1264 C 0.13151 0.04456 0.18505 0.0
H1265 H 0.15043 0.0569 0.06328 0.0
C1266 C 0.11658 0.03853 0.15459 0.0
C1267 C 0.14404 0.05118 0.15158 0.0
C1268 C 0.16103 0.05749 0.18114 0.0
C1269 C 0.11352 0.0391 0.09185 0.0
C1270 C 0.12594 0.04579 0.05852 0.0
C1271 C 0.14094 0.05178 0.08891 0.0
C1272 C 0.12311 0.04699 0.99247 0.0
C1273 C 0.09668 0.03275 0.06198 0.0
C1274 C 0.12665 0.03888 0.95079 0.0
C1275 C 0.12411 0.04022 0.88856 0.0
C1276 C 0.11797 0.04969 0.86693 0.0
C1277 C 0.11465 0.05779 0.90905 0.0
C1278 C 0.11723 0.05646 0.97095 0.0
H1279 H 0.08561 0.02975 0.09552 0.0
H1280 H 0.08788 0.03725 0.02897 0.0
H1281 H 0.10386 0.02619 0.03705 0.0
H1282 H 0.13154 0.03155 0.96634 0.0
H1283 H 0.12679 0.03382 0.85755 0.0
H1284 H 0.09152 0.21568 0.36267 0.0
H1285 H 0.09679 0.21754 0.25446 0.0
H1286 H 0.15586 0.23195 0.28992 0.0
H1287 H 0.15112 0.22974 0.39836 0.0
H1288 H 0.1021 0.23454 0.18882 0.0
H1289 H 0.17151 0.20967 0.16676 0.0
H1290 H 0.15535 0.21008 0.23347 0.0
H1291 H 0.17423 0.21988 0.222 0.0
C1292 C 0.10577 0.21913 0.34765 0.0
C1293 C 0.121 0.22244 0.38952 0.0
C1294 C 0.10868 0.22026 0.28564 0.0
C1295 C 0.12689 0.22471 0.26394 0.0
C1296 C 0.14189 0.22828 0.30553 0.0
H1297 H 0.16979 0.23888 0.90439 0.0
H1298 H 0.16535 0.23709 0.0134 0.0
C1299 C 0.13903 0.22713 0.36768 0.0
C1300 C 0.12996 0.22566 0.19779 0.0
H1301 H 0.162 0.21876 0.0802 0.0
C1302 C 0.11516 0.23106 0.16505 0.0
C1303 C 0.14698 0.22109 0.16678 0.0
C1304 C 0.16284 0.21477 0.19886 0.0
C1305 C 0.11707 0.23214 0.10233 0.0
C1306 C 0.13411 0.2276 0.07144 0.0
C1307 C 0.14895 0.22223 0.10409 0.0
C1308 C 0.13691 0.22843 1.00524 0.0
C1309 C 0.10106 0.23828 0.06972 0.0
C1310 C 0.12257 0.224 0.96448 0.0
C1311 C 0.12507 0.22501 0.90211 0.0
C1312 C 0.14195 0.23049 0.8794 0.0
C1313 C 0.15648 0.23474 0.92045 0.0
C1314 C 0.15403 0.23368 0.98271 0.0
H1315 H 0.09163 0.24309 0.10156 0.0
H1316 H 0.10859 0.24325 0.03655 0.0
H1317 H 0.09039 0.23305 0.04455 0.0
H1318 H 0.1094 0.21979 0.98097 0.0
H1319 H 0.11352 0.2217 0.87185 0.0
H1320 H 0.92707 0.96659 0.12619 0.0
H1321 H 0.92168 0.96847 0.01789 0.0
H1322 H 0.8609 0.98106 0.05317 0.0
H1323 H 0.86601 0.97909 0.16172 0.0
H1324 H 0.8897 0.95964 0.94567 0.0
H1325 H 0.88804 1.0018 0.94206 0.0
H1326 H 0.89811 0.99503 1.00538 0.0
H1327 H 0.87057 0.99626 0.99506 0.0
C1328 C 0.91251 0.96973 0.11113 0.0
C1329 C 0.89697 0.97267 0.15302 0.0
C1330 C 0.9095 0.97084 0.0491 0.0
C1331 C 0.89099 0.97499 0.02746 0.0
C1332 C 0.87548 0.97801 0.06895 0.0
H1333 H 0.84473 0.98709 0.6677 0.0
H1334 H 0.84931 0.98523 0.77652 0.0
C1335 C 0.87845 0.97689 0.1311 0.0
C1336 C 0.88771 0.97583 0.96132 0.0
H1337 H 0.87983 0.99287 0.85054 0.0
C1338 C 0.8876 0.9669 0.92478 0.0
C1339 C 0.8849 0.98531 0.93424 0.0
C1340 C 0.88556 0.99517 0.97099 0.0
C1341 C 0.88445 0.96718 0.86197 0.0
C1342 C 0.88181 0.97667 0.83474 0.0
C1343 C 0.88186 0.9856 0.87139 0.0
C1344 C 0.87893 0.97753 0.76837 0.0
C1345 C 0.88351 0.95729 0.82564 0.0
C1346 C 0.8941 0.97389 0.72745 0.0
C1347 C 0.89149 0.97493 0.66511 0.0
C1348 C 0.87376 0.97975 0.64245 0.0
C1349 C 0.85864 0.98342 0.68363 0.0
C1350 C 0.86121 0.98233 0.74586 0.0
H1351 H 0.87989 0.95079 0.85464 0.0
H1352 H 0.87162 0.95759 0.78938 0.0
H1353 H 0.89883 0.9558 0.80413 0.0
H1354 H 0.90816 0.97039 0.74375 0.0
H1355 H 0.90362 0.97219 0.63486 0.0
H1356 H 0.86838 0.77484 0.10345 0.0
H1357 H 0.87283 0.77694 0.99512 0.0
H1358 H 0.88484 0.80887 0.02695 0.0
H1359 H 0.88007 0.80689 0.13568 0.0
H1360 H 0.85036 0.78997 0.91813 0.0
H1361 H 0.9347 0.79889 0.92287 0.0
H1362 H 0.92151 0.7932 0.98535 0.0
H1363 H 0.9189 0.80657 0.97346 0.0
C1364 C 0.8718 0.78234 0.08773 0.0
C1365 C 0.87386 0.7907 0.12877 0.0
C1366 C 0.87445 0.78351 0.0256 0.0
C1367 C 0.8794 0.79303 1.00298 0.0
C1368 C 0.88141 0.80141 0.04353 0.0
H1369 H 0.90264 0.81535 0.64499 0.0
H1370 H 0.89769 0.81318 0.75316 0.0
C1371 C 0.8787 0.80026 0.10577 0.0
C1372 C 0.88206 0.79419 0.93684 0.0
H1373 H 0.91746 0.80038 0.82911 0.0
C1374 C 0.86504 0.79221 0.89855 0.0
C1375 C 0.90121 0.79713 0.91148 0.0
C1376 C 0.92021 0.799 0.9502 0.0
C1377 C 0.86654 0.79328 0.83566 0.0
C1378 C 0.88573 0.79619 0.8102 0.0
C1379 C 0.90276 0.79815 0.84858 0.0
C1380 C 0.88845 0.79741 0.74402 0.0
C1381 C 0.84741 0.79155 0.7973 0.0
C1382 C 0.88508 0.78924 0.70266 0.0
C1383 C 0.88793 0.79046 0.6405 0.0
C1384 C 0.89444 0.79984 0.61849 0.0
C1385 C 0.89791 0.80798 0.66021 0.0
C1386 C 0.89498 0.80677 0.72218 0.0
H1387 H 0.83297 0.7921 0.82474 0.0
H1388 H 0.8465 0.79712 0.76085 0.0
H1389 H 0.84807 0.78381 0.7759 0.0
H1390 H 0.88051 0.78188 0.71848 0.0
H1391 H 0.88541 0.784 0.60984 0.0
H1392 H 0.58351 0.54323 0.89528 0.0
H1393 H 0.58956 0.54384 1.00413 0.0
H1394 H 0.65478 0.5491 0.97378 0.0
H1395 H 0.64873 0.54897 0.86473 0.0
H1396 H 0.61353 0.53205 0.07342 0.0
H1397 H 0.64079 0.57197 0.09364 0.0
H1398 H 0.62855 0.56679 0.02604 0.0
H1399 H 0.65552 0.56427 0.04066 0.0
C1400 C 0.59912 0.54465 0.91153 0.0
C1401 C 0.61558 0.54616 0.87087 0.0
C1402 C 0.60257 0.54492 0.97394 0.0
C1403 C 0.62254 0.54672 0.99727 0.0
C1404 C 0.63913 0.54795 0.95693 0.0
H1405 H 0.67527 0.54537 0.35665 0.0
H1406 H 0.66891 0.54639 0.24781 0.0
C1407 C 0.63568 0.54772 0.89441 0.0
C1408 C 0.62595 0.54709 0.06377 0.0
H1409 H 0.64431 0.56208 0.18119 0.0
C1410 C 0.62014 0.53865 0.09698 0.0
C1411 C 0.63452 0.55572 0.09458 0.0
C1412 C 0.64003 0.56524 0.06206 0.0
C1413 C 0.623 0.53851 0.15989 0.0
C1414 C 0.63177 0.54708 0.19043 0.0
C1415 C 0.63758 0.55553 0.15746 0.0
C1416 C 0.63551 0.54723 0.25653 0.0
C1417 C 0.617 0.52915 0.19325 0.0
C1418 C 0.61883 0.54762 0.29744 0.0
C1419 C 0.62243 0.54708 0.35967 0.0
C1420 C 0.64277 0.54608 0.38189 0.0
C1421 C 0.65944 0.54602 0.34078 0.0
C1422 C 0.65585 0.54664 0.2787 0.0
H1423 H 0.61354 0.5226 0.16191 0.0
H1424 H 0.62963 0.52696 0.22442 0.0
H1425 H 0.60294 0.5308 0.22093 0.0
H1426 H 0.60302 0.54815 0.2811 0.0
H1427 H 0.60927 0.54707 0.39013 0.0
H1428 H 0.64526 0.74606 0.90773 0.0
H1429 H 0.64153 0.74386 0.01604 0.0
H1430 H 0.62888 0.712 0.98367 0.0
H1431 H 0.6335 0.71402 0.87504 0.0
H1432 H 0.60827 0.73767 0.08043 0.0
H1433 H 0.67397 0.71107 0.11088 0.0
H1434 H 0.67048 0.71801 0.04267 0.0
H1435 H 0.65552 0.70673 0.05494 0.0
C1436 C 0.64203 0.73853 0.92334 0.0
C1437 C 0.6399 0.7302 0.88215 0.0
C1438 C 0.63972 0.73731 0.98552 0.0
C1439 C 0.63527 0.72774 0.00824 0.0
C1440 C 0.63278 0.71942 0.9674 0.0
H1441 H 0.61045 0.7057 0.36591 0.0
H1442 H 0.61504 0.70792 0.25758 0.0
C1443 C 0.63516 0.72062 0.90508 0.0
C1444 C 0.6328 0.72656 0.07455 0.0
H1445 H 0.65148 0.71378 0.19508 0.0
C1446 C 0.61779 0.73248 0.10553 0.0
C1447 C 0.64526 0.7198 0.10739 0.0
C1448 C 0.66235 0.71361 0.07746 0.0
C1449 C 0.61465 0.7317 0.1681 0.0
C1450 C 0.62701 0.7249 0.20077 0.0
C1451 C 0.64201 0.71898 0.1699 0.0
C1452 C 0.62432 0.72367 0.26685 0.0
C1453 C 0.59781 0.738 0.19852 0.0
C1454 C 0.62826 0.73176 0.30825 0.0
C1455 C 0.62557 0.73053 0.37045 0.0
C1456 C 0.61887 0.72117 0.39243 0.0
C1457 C 0.61523 0.71306 0.35069 0.0
C1458 C 0.618 0.71429 0.28867 0.0
H1459 H 0.58672 0.74107 0.16527 0.0
H1460 H 0.58902 0.73343 0.23123 0.0
H1461 H 0.60499 0.7445 0.22387 0.0
H1462 H 0.63347 0.73903 0.29247 0.0
H1463 H 0.62844 0.73694 0.40118 0.0
H1464 H 0.38607 0.48743 0.14201 0.0
H1465 H 0.38101 0.48952 0.03323 0.0
H1466 H 0.39797 0.45819 0.99881 0.0
H1467 H 0.40262 0.45598 0.10707 0.0
H1468 H 0.41108 0.48615 0.9387 0.0
H1469 H 0.34232 0.46106 0.90837 0.0
H1470 H 0.35062 0.46597 0.98166 0.0
H1471 H 0.36395 0.45539 0.94591 0.0
C1472 C 0.38849 0.48096 0.11137 0.0
C1473 C 0.39476 0.47153 0.13344 0.0
C1474 C 0.38571 0.48218 0.0492 0.0
C1475 C 0.38888 0.47398 0.00799 0.0
C1476 C 0.39514 0.46458 0.02982 0.0
H1477 H 0.38087 0.46487 0.6171 0.0
H1478 H 0.3858 0.46299 0.72587 0.0
C1479 C 0.39802 0.46336 0.0918 0.0
C1480 C 0.38622 0.47527 0.94199 0.0
H1481 H 0.35826 0.46681 0.81907 0.0
C1482 C 0.39946 0.48198 0.91253 0.0
C1483 C 0.37113 0.46976 0.90793 0.0
C1484 C 0.35605 0.4627 0.93751 0.0
C1485 C 0.39829 0.48317 0.8497 0.0
C1486 C 0.38315 0.47768 0.81558 0.0
C1487 C 0.36989 0.47099 0.84515 0.0
C1488 C 0.38061 0.47888 0.74934 0.0
C1489 C 0.41366 0.49011 0.82027 0.0
C1490 C 0.37586 0.4884 0.7263 0.0
C1491 C 0.37323 0.48951 0.66413 0.0
C1492 C 0.37506 0.4811 0.62341 0.0
C1493 C 0.37964 0.47154 0.64678 0.0
C1494 C 0.38233 0.47044 0.70907 0.0
H1495 H 0.4277 0.49136 0.84878 0.0
H1496 H 0.41859 0.48697 0.77529 0.0
H1497 H 0.40627 0.49761 0.81387 0.0
H1498 H 0.37402 0.49498 0.7565 0.0
H1499 H 0.36992 0.49701 0.64816 0.0
H1500 H 0.34306 0.28771 0.09394 0.0
H1501 H 0.34897 0.28876 0.98522 0.0
H1502 H 0.41034 0.3007 0.01954 0.0
H1503 H 0.4047 0.29944 0.12868 0.0
H1504 H 0.35891 0.30557 0.91591 0.0
H1505 H 0.42092 0.27622 0.90263 0.0
H1506 H 0.4041 0.27787 0.96755 0.0
H1507 H 0.42537 0.28645 0.95688 0.0
C1508 C 0.35787 0.29051 0.07843 0.0
C1509 C 0.37349 0.29339 0.12007 0.0
C1510 C 0.36118 0.29115 0.01625 0.0
C1511 C 0.38022 0.29463 0.99421 0.0
C1512 C 0.39566 0.29781 0.03555 0.0
H1513 H 0.42925 0.30276 0.63426 0.0
H1514 H 0.42385 0.30128 0.74295 0.0
C1515 C 0.39233 0.2972 0.09794 0.0
C1516 C 0.38377 0.29491 0.92791 0.0
H1517 H 0.41371 0.2849 0.81301 0.0
C1518 C 0.37085 0.30104 0.89334 0.0
C1519 C 0.39934 0.28896 0.89858 0.0
C1520 C 0.41315 0.28193 0.93308 0.0
C1521 C 0.3733 0.30153 0.83037 0.0
C1522 C 0.38882 0.29556 0.80096 0.0
C1523 C 0.40177 0.28943 0.83557 0.0
C1524 C 0.39228 0.29582 0.73458 0.0
C1525 C 0.35958 0.30863 0.79611 0.0
C1526 C 0.37653 0.29295 0.69349 0.0
C1527 C 0.37953 0.29383 0.63115 0.0
C1528 C 0.3984 0.29758 0.60874 0.0
C1529 C 0.41442 0.30002 0.64999 0.0
C1530 C 0.4114 0.29913 0.71217 0.0
H1531 H 0.35218 0.31445 0.82665 0.0
H1532 H 0.36856 0.31257 0.761 0.0
H1533 H 0.34703 0.30419 0.77321 0.0
H1534 H 0.36178 0.29017 0.7097 0.0
H1535 H 0.36684 0.29193 0.60078 0.0
H1536 H 0.58804 0.05424 0.4008 0.0
H1537 H 0.59361 0.05252 0.5091 0.0
H1538 H 0.6541 0.03962 0.47341 0.0
H1539 H 0.64902 0.04167 0.36501 0.0
H1540 H 0.60098 0.03563 0.57521 0.0
H1541 H 0.66742 0.06236 0.59616 0.0
H1542 H 0.65117 0.06152 0.52973 0.0
H1543 H 0.67118 0.05223 0.54085 0.0
C1544 C 0.60264 0.05114 0.41581 0.0
C1545 C 0.61816 0.04821 0.37385 0.0
C1546 C 0.60574 0.05009 0.47786 0.0
C1547 C 0.62442 0.04612 0.49955 0.0
C1548 C 0.63974 0.04292 0.45787 0.0
H1549 H 0.6706 0.03386 0.85894 0.0
H1550 H 0.66544 0.03531 0.75 0.0
C1551 C 0.63668 0.04398 0.3957 0.0
C1552 C 0.62771 0.04527 0.56576 0.0
H1553 H 0.65919 0.05303 0.68286 0.0
C1554 C 0.61366 0.03946 0.59878 0.0
C1555 C 0.64425 0.05029 0.59654 0.0
C1556 C 0.65927 0.05703 0.56421 0.0
C1557 C 0.61589 0.03841 0.66147 0.0
C1558 C 0.63244 0.04342 0.69217 0.0
C1559 C 0.64652 0.0492 0.65921 0.0
C1560 C 0.63551 0.04268 0.75845 0.0
C1561 C 0.60075 0.03179 0.69418 0.0
C1562 C 0.62054 0.04649 0.79948 0.0
C1563 C 0.62343 0.04564 0.86187 0.0
C1564 C 0.64137 0.04098 0.88445 0.0
C1565 C 0.65648 0.03735 0.84311 0.0
C1566 C 0.65361 0.03822 0.78082 0.0
H1567 H 0.59212 0.02662 0.66242 0.0
H1568 H 0.6089 0.02715 0.72786 0.0
H1569 H 0.58928 0.03668 0.7187 0.0
H1570 H 0.6066 0.0501 0.78323 0.0
H1571 H 0.6114 0.04846 0.89222 0.0
H1572 H 0.61189 0.20604 0.87966 0.0
H1573 H 0.61573 0.20864 0.77184 0.0
H1574 H 0.62867 0.24037 0.80843 0.0
H1575 H 0.62473 0.23784 0.9172 0.0
H1576 H 0.59369 0.2213 0.69739 0.0
H1577 H 0.67753 0.23129 0.70126 0.0
H1578 H 0.66467 0.22567 0.76449 0.0
H1579 H 0.66146 0.23896 0.75104 0.0
C1580 C 0.61534 0.21362 0.8651 0.0
C1581 C 0.61789 0.22175 0.90745 0.0
C1582 C 0.61765 0.21507 0.80323 0.0
C1583 C 0.6227 0.22467 0.78199 0.0
C1584 C 0.62515 0.23285 0.82386 0.0
H1585 H 0.64423 0.24614 0.42048 0.0
H1586 H 0.63882 0.24451 0.52878 0.0
C1587 C 0.62287 0.2314 0.88605 0.0
C1588 C 0.62513 0.22602 0.7159 0.0
H1589 H 0.66019 0.23233 0.60747 0.0
C1590 C 0.60823 0.22371 0.67769 0.0
C1591 C 0.64412 0.22914 0.69026 0.0
C1592 C 0.66307 0.23133 0.72868 0.0
C1593 C 0.60973 0.22454 0.61464 0.0
C1594 C 0.62877 0.22759 0.58897 0.0
C1595 C 0.64562 0.22997 0.62721 0.0
C1596 C 0.63152 0.22848 0.52263 0.0
C1597 C 0.59082 0.22232 0.57618 0.0
C1598 C 0.62929 0.21999 0.48291 0.0
C1599 C 0.63248 0.22089 0.42062 0.0
C1600 C 0.63814 0.23028 0.39693 0.0
C1601 C 0.64025 0.23875 0.43701 0.0
C1602 C 0.63704 0.23785 0.49906 0.0
H1603 H 0.5763 0.22264 0.60336 0.0
H1604 H 0.58951 0.22778 0.53919 0.0
H1605 H 0.59217 0.21456 0.55542 0.0
H1606 H 0.62544 0.21263 0.5002 0.0
H1607 H 0.63097 0.21419 0.39124 0.0
H1608 H 0.38447 0.9877 0.65915 0.0
H1609 H 0.37945 0.98972 0.55028 0.0
H1610 H 0.39678 0.95842 0.51657 0.0
H1611 H 0.40139 0.95628 0.62491 0.0
H1612 H 0.40972 0.98636 0.45617 0.0
H1613 H 0.34119 0.96111 0.4255 0.0
H1614 H 0.34935 0.96607 0.49882 0.0
H1615 H 0.36285 0.95552 0.46331 0.0
C1616 C 0.38698 0.98122 0.62865 0.0
C1617 C 0.39335 0.97183 0.65093 0.0
C1618 C 0.38421 0.9824 0.56643 0.0
C1619 C 0.38751 0.97418 0.52541 0.0
C1620 C 0.39386 0.96482 0.54745 0.0
H1621 H 0.37946 0.96515 0.13429 0.0
H1622 H 0.38443 0.96321 0.24297 0.0
C1623 C 0.39671 0.96364 0.60947 0.0
C1624 C 0.38491 0.97545 0.45936 0.0
H1625 H 0.35706 0.96693 0.33634 0.0
C1626 C 0.39813 0.98217 0.42996 0.0
C1627 C 0.3699 0.9699 0.42524 0.0
C1628 C 0.35487 0.9628 0.45475 0.0
C1629 C 0.39699 0.98336 0.36713 0.0
C1630 C 0.38188 0.97786 0.33297 0.0
C1631 C 0.36866 0.97113 0.36247 0.0
C1632 C 0.37929 0.97908 0.26679 0.0
C1633 C 0.41234 0.99031 0.33777 0.0
C1634 C 0.37456 0.98862 0.24397 0.0
C1635 C 0.37192 0.98978 0.18185 0.0
C1636 C 0.37372 0.98139 0.14095 0.0
C1637 C 0.37827 0.97181 0.1641 0.0
C1638 C 0.38097 0.97067 0.22635 0.0
H1639 H 0.4264 0.99153 0.36623 0.0
H1640 H 0.41724 0.98721 0.29269 0.0
H1641 H 0.40496 0.99782 0.33162 0.0
H1642 H 0.37274 0.99519 0.27431 0.0
H1643 H 0.36863 0.99729 0.16607 0.0
H1644 H 0.36546 0.79261 0.10837 0.0
H1645 H 0.36042 0.79078 0.21715 0.0
H1646 H 0.42122 0.80337 0.25137 0.0
H1647 H 0.42655 0.8051 0.14297 0.0
H1648 H 0.38492 0.77999 0.30206 0.0
H1649 H 0.38252 0.82139 0.35833 0.0
H1650 H 0.37947 0.81629 0.28205 0.0
H1651 H 0.40486 0.81724 0.31552 0.0
C1652 C 0.37787 0.7949 0.13883 0.0
C1653 C 0.39637 0.79909 0.11659 0.0
C1654 C 0.3749 0.7939 0.20112 0.0
C1655 C 0.39028 0.79712 0.24244 0.0
C1656 C 0.40894 0.80106 0.22041 0.0
H1657 H 0.40268 0.79923 0.63431 0.0
H1658 H 0.40734 0.80077 0.52515 0.0
C1659 C 0.41194 0.80205 0.15827 0.0
C1660 C 0.38695 0.7963 0.30859 0.0
H1661 H 0.38352 0.81038 0.44087 0.0
C1662 C 0.3845 0.78663 0.33243 0.0
C1663 C 0.38649 0.80497 0.34814 0.0
C1664 C 0.38829 0.81558 0.32485 0.0
C1665 C 0.38203 0.78538 0.39492 0.0
C1666 C 0.38153 0.79406 0.43453 0.0
C1667 C 0.38393 0.80373 0.41058 0.0
C1668 C 0.37846 0.79328 0.5009 0.0
C1669 C 0.38055 0.77476 0.41805 0.0
C1670 C 0.36049 0.78876 0.52375 0.0
C1671 C 0.35778 0.78788 0.58611 0.0
C1672 C 0.37289 0.7916 0.62714 0.0
C1673 C 0.39065 0.79636 0.60418 0.0
C1674 C 0.39339 0.7972 0.54171 0.0
H1675 H 0.38699 0.76904 0.38505 0.0
H1676 H 0.38894 0.77413 0.46161 0.0
H1677 H 0.36398 0.77286 0.42562 0.0
H1678 H 0.34847 0.78594 0.49334 0.0
H1679 H 0.34375 0.78435 0.60225 0.0
H1680 H 0.1808 0.5923 0.12582 0.0
H1681 H 0.18408 0.6109 0.13349 0.0
H1682 H 0.11756 0.61381 0.12089 0.0
H1683 H 0.11412 0.59534 0.11401 0.0
H1684 H 0.16866 0.62582 0.04784 0.0
H1685 H 0.13377 0.6307 0.27639 0.0
H1686 H 0.14387 0.61868 0.24767 0.0
H1687 H 0.11877 0.623 0.22394 0.0
C1688 C 0.16688 0.59691 0.12505 0.0
C1689 C 0.14721 0.59231 0.11908 0.0
C1690 C 0.16878 0.60753 0.12914 0.0
C1691 C 0.15105 0.61374 0.12831 0.0
C1692 C 0.13144 0.60917 0.12225 0.0
H1693 H 0.11511 0.67642 0.14626 0.0
H1694 H 0.11831 0.65795 0.14202 0.0
C1695 C 0.12953 0.5986 0.11773 0.0
C1696 C 0.15281 0.625 0.13316 0.0
H1697 H 0.13775 0.64564 0.22008 0.0
C1698 C 0.16214 0.63018 0.08577 0.0
C1699 C 0.14428 0.63066 0.18266 0.0
C1700 C 0.13476 0.6255 0.23589 0.0
C1701 C 0.16233 0.64087 0.08533 0.0
C1702 C 0.15335 0.64654 0.13428 0.0
C1703 C 0.14457 0.64133 0.18244 0.0
C1704 C 0.15184 0.65785 0.13531 0.0
C1705 C 0.17133 0.64599 0.03122 0.0
C1706 C 0.16963 0.66402 0.13306 0.0
C1707 C 0.16784 0.67466 0.13542 0.0
C1708 C 0.14823 0.67933 0.14097 0.0
C1709 C 0.13049 0.6731 0.14307 0.0
C1710 C 0.13228 0.66252 0.14036 0.0
H1711 H 0.1729 0.64063 0.99157 0.0
H1712 H 0.16153 0.65249 0.01811 0.0
H1713 H 0.18703 0.64893 0.0428 0.0
H1714 H 0.18494 0.66063 0.13047 0.0
H1715 H 0.18181 0.67922 0.13425 0.0
H1716 H 0.86713 0.42613 0.9899 0.0
H1717 H 0.86502 0.40762 0.98347 0.0
H1718 H 0.85427 0.40864 0.79142 0.0
H1719 H 0.85764 0.4271 0.79666 0.0
H1720 H 0.83515 0.39459 0.95024 0.0
H1721 H 0.90172 0.38903 0.7935 0.0
H1722 H 0.89591 0.40117 0.82973 0.0
H1723 H 0.88168 0.39688 0.76361 0.0
C1724 C 0.86458 0.42245 0.94604 0.0
C1725 C 0.86282 0.42821 0.89373 0.0
C1726 C 0.86319 0.41182 0.94255 0.0
C1727 C 0.85994 0.40666 0.88675 0.0
C1728 C 0.85735 0.41239 0.83481 0.0
H1729 H 0.8503 0.34145 0.79168 0.0
H1730 H 0.84664 0.36004 0.79236 0.0
C1731 C 0.85893 0.42301 0.83813 0.0
C1732 C 0.85934 0.3953 0.88321 0.0
H1733 H 0.88204 0.37438 0.81495 0.0
C1734 C 0.84543 0.39019 0.92064 0.0
C1735 C 0.87279 0.38949 0.84474 0.0
C1736 C 0.88901 0.39441 0.80607 0.0
C1737 C 0.84456 0.3795 0.92049 0.0
C1738 C 0.85795 0.37374 0.88202 0.0
C1739 C 0.87166 0.37881 0.84403 0.0
C1740 C 0.85879 0.36245 0.88286 0.0
C1741 C 0.82928 0.37443 0.9614 0.0
C1742 C 0.86676 0.35763 0.93352 0.0
C1743 C 0.86898 0.34706 0.9331 0.0
C1744 C 0.86318 0.34103 0.88207 0.0
C1745 C 0.8547 0.34585 0.83188 0.0
C1746 C 0.85271 0.35647 0.83209 0.0
H1747 H 0.81715 0.37979 0.97853 0.0
H1748 H 0.82163 0.36791 0.9373 0.0
H1749 H 0.8377 0.37145 1.00085 0.0
H1750 H 0.87175 0.36209 0.97295 0.0
H1751 H 0.87547 0.34358 0.97258 0.0
H1752 H 0.17559 0.0927 0.66923 0.0
H1753 H 0.17892 0.11127 0.67656 0.0
H1754 H 0.13514 0.11402 0.53075 0.0
H1755 H 0.132 0.09554 0.52223 0.0
H1756 H 0.18909 0.12649 0.58453 0.0
H1757 H 0.10936 0.13037 0.67883 0.0
H1758 H 0.12343 0.1185 0.67741 0.0
H1759 H 0.11146 0.12286 0.6097 0.0
C1760 C 0.16699 0.09723 0.63788 0.0
C1761 C 0.15331 0.09259 0.59567 0.0
C1762 C 0.16883 0.10786 0.64236 0.0
C1763 C 0.15699 0.11403 0.60494 0.0
C1764 C 0.14413 0.10941 0.56086 0.0
H1765 H 0.15872 0.17867 0.53954 0.0
H1766 H 0.1622 0.16019 0.53322 0.0
C1767 C 0.14233 0.09883 0.5562 0.0
C1768 C 0.15729 0.1253 0.61339 0.0
H1769 H 0.12655 0.14557 0.65415 0.0
C1770 C 0.17546 0.13067 0.59994 0.0
C1771 C 0.13956 0.13074 0.63416 0.0
C1772 C 0.11986 0.12535 0.6514 0.0
C1773 C 0.17617 0.14136 0.60529 0.0
C1774 C 0.15824 0.14681 0.62436 0.0
C1775 C 0.14025 0.14141 0.63918 0.0
C1776 C 0.15766 0.15813 0.6289 0.0
C1777 C 0.19615 0.14675 0.591 0.0
C1778 C 0.15386 0.16316 0.68476 0.0
C1779 C 0.15203 0.17377 0.68871 0.0
C1780 C 0.15371 0.17961 0.63669 0.0
C1781 C 0.15774 0.17452 0.58084 0.0
C1782 C 0.15969 0.16391 0.57704 0.0
H1783 H 0.20967 0.1415 0.59087 0.0
H1784 H 0.19495 0.14999 0.54547 0.0
H1785 H 0.19908 0.1531 0.62424 0.0
H1786 H 0.15219 0.15887 0.7254 0.0
H1787 H 0.14921 0.17738 0.73264 0.0
H1788 H 0.86427 0.92726 0.49197 0.0
H1789 H 0.86186 0.90871 0.48509 0.0
H1790 H 0.8595 0.90966 0.29061 0.0
H1791 H 0.86256 0.92818 0.29691 0.0
H1792 H 0.83175 0.89567 0.43302 0.0
H1793 H 0.90816 0.89043 0.31977 0.0
H1794 H 0.90037 0.90234 0.35562 0.0
H1795 H 0.89064 0.8987 0.28186 0.0
C1796 C 0.86332 0.92353 0.44767 0.0
C1797 C 0.86376 0.92925 0.39499 0.0
C1798 C 0.86182 0.91292 0.44385 0.0
C1799 C 0.86085 0.90777 0.38732 0.0
C1800 C 0.8606 0.91345 0.33472 0.0
H1801 H 0.86201 0.84373 0.27434 0.0
H1802 H 0.85946 0.86228 0.27896 0.0
C1803 C 0.86209 0.92407 0.33846 0.0
C1804 C 0.86045 0.89645 0.38348 0.0
H1805 H 0.88755 0.87572 0.32975 0.0
C1806 C 0.84396 0.8913 0.41053 0.0
C1807 C 0.8764 0.89075 0.35419 0.0
C1808 C 0.89501 0.89581 0.32664 0.0
C1809 C 0.84282 0.88062 0.40824 0.0
C1810 C 0.8588 0.87491 0.37906 0.0
C1811 C 0.87525 0.88008 0.35191 0.0
C1812 C 0.85901 0.86359 0.37671 0.0
C1813 C 0.82429 0.87554 0.43608 0.0
C1814 C 0.85959 0.85811 0.4301 0.0
C1815 C 0.86107 0.84748 0.4276 0.0
C1816 C 0.8622 0.8421 0.37161 0.0
C1817 C 0.86136 0.84762 0.31823 0.0
C1818 C 0.85984 0.85823 0.32078 0.0
H1819 H 0.81091 0.88084 0.44111 0.0
H1820 H 0.81934 0.86878 0.4084 0.0
H1821 H 0.82854 0.87301 0.48178 0.0
H1822 H 0.85949 0.86206 0.47382 0.0
H1823 H 0.86209 0.84353 0.46963 0.0
H1824 H 0.65415 0.67736 0.54405 0.0
H1825 H 0.65706 0.65881 0.54066 0.0
H1826 H 0.64963 0.65854 0.73413 0.0
H1827 H 0.64736 0.67708 0.7385 0.0
H1828 H 0.68599 0.64511 0.61344 0.0
H1829 H 0.60137 0.64026 0.65441 0.0
H1830 H 0.61213 0.65178 0.62525 0.0
H1831 H 0.61488 0.64915 0.7039 0.0
C1832 C 0.65356 0.67341 0.58615 0.0
C1833 C 0.6504 0.67879 0.64158 0.0
C1834 C 0.65511 0.66278 0.58399 0.0
C1835 C 0.65336 0.6573 0.63705 0.0
C1836 C 0.65079 0.66262 0.69255 0.0
H1837 H 0.63785 0.59419 0.72274 0.0
H1838 H 0.64137 0.61266 0.72321 0.0
C1839 C 0.64938 0.67324 0.69486 0.0
C1840 C 0.65341 0.646 0.63438 0.0
H1841 H 0.62194 0.62546 0.65246 0.0
C1842 C 0.67201 0.64078 0.62172 0.0
C1843 C 0.63515 0.64039 0.64527 0.0
C1844 C 0.61466 0.64563 0.6576 0.0
C1845 C 0.67294 0.63008 0.62128 0.0
C1846 C 0.65463 0.62445 0.63229 0.0
C1847 C 0.636 0.62973 0.64419 0.0
C1848 C 0.65432 0.61311 0.63302 0.0
C1849 C 0.69365 0.62495 0.61097 0.0
C1850 C 0.66065 0.60711 0.58245 0.0
C1851 C 0.65883 0.59649 0.58236 0.0
C1852 C 0.6503 0.59166 0.63242 0.0
C1853 C 0.64434 0.59767 0.68329 0.0
C1854 C 0.64635 0.60825 0.6836 0.0
H1855 H 0.70677 0.63023 0.62075 0.0
H1856 H 0.69534 0.61824 0.63963 0.0
H1857 H 0.69484 0.62235 0.56287 0.0
H1858 H 0.66638 0.61065 0.54224 0.0
H1859 H 0.6633 0.59208 0.5422 0.0
H1860 H 0.39637 0.42582 0.39374 0.0
H1861 H 0.39185 0.40742 0.38692 0.0
H1862 H 0.32618 0.41133 0.35779 0.0
H1863 H 0.33054 0.42984 0.36496 0.0
H1864 H 0.36799 0.39487 0.45677 0.0
H1865 H 0.34308 0.39227 0.21625 0.0
H1866 H 0.35462 0.40359 0.24987 0.0
H1867 H 0.32786 0.40066 0.26426 0.0
C1868 C 0.38089 0.4228 0.38654 0.0
C1869 C 0.3638 0.42936 0.38017 0.0
C1870 C 0.37836 0.41226 0.38229 0.0
C1871 C 0.35872 0.40797 0.37119 0.0
C1872 C 0.34156 0.41445 0.36521 0.0
H1873 H 0.33836 0.34241 0.41764 0.0
H1874 H 0.33408 0.36093 0.42404 0.0
C1875 C 0.34408 0.42504 0.3694 0.0
C1876 C 0.35642 0.3967 0.36653 0.0
H1877 H 0.34365 0.37698 0.26903 0.0
C1878 C 0.36252 0.39096 0.41587 0.0
C1879 C 0.34949 0.39159 0.31292 0.0
C1880 C 0.34354 0.39731 0.25753 0.0
C1881 C 0.36214 0.38027 0.4129 0.0
C1882 C 0.35511 0.37515 0.3594 0.0
C1883 C 0.3488 0.3809 0.31024 0.0
C1884 C 0.3558 0.36387 0.352 0.0
C1885 C 0.37003 0.37456 0.46626 0.0
C1886 C 0.36866 0.35931 0.30761 0.0
C1887 C 0.37097 0.34875 0.30346 0.0
C1888 C 0.36041 0.34246 0.34355 0.0
C1889 C 0.34669 0.34701 0.386 0.0
C1890 C 0.34441 0.35761 0.39017 0.0
H1891 H 0.37899 0.37954 0.49831 0.0
H1892 H 0.35665 0.37142 0.4911 0.0
H1893 H 0.38011 0.36812 0.45104 0.0
H1894 H 0.37748 0.36396 0.27729 0.0
H1895 H 0.38137 0.34551 0.2695 0.0
H1896 H 0.62226 0.17569 0.12496 0.0
H1897 H 0.62646 0.15734 0.1196 0.0
H1898 H 0.68787 0.16037 0.19575 0.0
H1899 H 0.68338 0.17888 0.20412 0.0
H1900 H 0.65377 0.14558 0.05818 0.0
H1901 H 0.66267 0.13952 0.30437 0.0
H1902 H 0.65416 0.15148 0.27541 0.0
H1903 H 0.68119 0.14806 0.2728 0.0
C1904 C 0.63658 0.1725 0.14168 0.0
C1905 C 0.65232 0.17883 0.16613 0.0
C1906 C 0.63903 0.16196 0.13796 0.0
C1907 C 0.65732 0.1574 0.15823 0.0
C1908 C 0.67339 0.16367 0.18111 0.0
H1909 H 0.68321 0.09144 0.15697 0.0
H1910 H 0.68765 0.10995 0.1638 0.0
C1911 C 0.6709 0.17428 0.18517 0.0
C1912 C 0.65929 0.14609 0.15428 0.0
H1913 H 0.66426 0.12498 0.23933 0.0
C1914 C 0.6562 0.1411 0.09783 0.0
C1915 C 0.6625 0.14019 0.20591 0.0
C1916 C 0.66515 0.14505 0.26818 0.0
C1917 C 0.65579 0.13044 0.09178 0.0
C1918 C 0.6584 0.12456 0.14358 0.0
C1919 C 0.66226 0.1295 0.19969 0.0
C1920 C 0.65581 0.11332 0.14075 0.0
C1921 C 0.65234 0.12553 0.02998 0.0
C1922 C 0.63637 0.10907 0.12665 0.0
C1923 C 0.63371 0.09853 0.12332 0.0
C1924 C 0.65047 0.09193 0.13379 0.0
C1925 C 0.66991 0.09624 0.14888 0.0
C1926 C 0.67252 0.10683 0.15257 0.0
H1927 H 0.65585 0.13084 0.99333 0.0
H1928 H 0.66212 0.11863 0.0235 0.0
H1929 H 0.63583 0.12321 0.02562 0.0
H1930 H 0.62314 0.11393 0.11859 0.0
H1931 H 0.61836 0.09556 0.11332 0.0
H1932 H 0.3631 0.8437 0.97121 0.0
H1933 H 0.36004 0.86224 0.9767 0.0
H1934 H 0.36124 0.86288 0.78202 0.0
H1935 H 0.36376 0.84433 0.77604 0.0
H1936 H 0.38853 0.8761 0.93247 0.0
H1937 H 0.31158 0.88114 0.82471 0.0
H1938 H 0.3202 0.86908 0.85211 0.0
H1939 H 0.32941 0.87343 0.78075 0.0
C1940 C 0.36227 0.84775 0.92947 0.0
C1941 C 0.36359 0.84248 0.87314 0.0
C1942 C 0.36067 0.85837 0.93272 0.0
C1943 C 0.36015 0.86397 0.87979 0.0
C1944 C 0.36123 0.85874 0.8235 0.0
H1945 H 0.36215 0.92832 0.80095 0.0
H1946 H 0.36018 0.90974 0.79669 0.0
C1947 C 0.36289 0.84812 0.82019 0.0
C1948 C 0.35966 0.8753 0.88359 0.0
H1949 H 0.33184 0.89605 0.84172 0.0
C1950 C 0.37606 0.88046 0.91301 0.0
C1951 C 0.34346 0.881 0.85783 0.0
C1952 C 0.32505 0.8759 0.82751 0.0
C1953 C 0.37692 0.89114 0.91639 0.0
C1954 C 0.36069 0.89686 0.89082 0.0
C1955 C 0.34427 0.89169 0.8614 0.0
C1956 C 0.36062 0.9082 0.89375 0.0
C1957 C 0.39556 0.89619 0.94584 0.0
C1958 C 0.36093 0.91357 0.94971 0.0
C1959 C 0.36202 0.9242 0.9523 0.0
C1960 C 0.36262 0.92973 0.89896 0.0
C1961 C 0.36152 0.92434 0.84296 0.0
C1962 C 0.3605 0.9137 0.84042 0.0
H1963 H 0.40899 0.89091 0.94804 0.0
H1964 H 0.4004 0.90298 0.92097 0.0
H1965 H 0.39151 0.89867 0.99281 0.0
H1966 H 0.36048 0.90953 0.99153 0.0
H1967 H 0.36248 0.92809 0.99621 0.0
loop_
_geom_bond_atom_site_label_1
_geom_bond_atom_site_label_2
_geom_bond_distance
_geom_bond_site_symmetry_2
_ccdc_geom_bond_type
Co0 N4 2.148 . S
Co0 N10 2.128 . S
Co0 N20 2.194 . S
Co0 O25 2.351 . S
Co0 O26 2.155 . S
Co0 O27 2.096 . S
C1 N4 1.301 1_556 S
C1 N5 1.328 . S
C1 H6 0.930 . S
C2 C3 1.333 1_554 S
C2 N4 1.317 . S
C2 H7 0.930 . S
C3 C2 1.333 1_556 S
C3 N5 1.350 . S
C3 H29 0.931 . S
N4 Co0 2.148 . S
N4 C1 1.301 1_554 S
N4 C2 1.317 . S
N5 C1 1.328 . S
N5 C3 1.350 . S
H6 C1 0.930 . S
H7 C2 0.930 . S
C8 O9 1.224 . S
C8 O27 1.247 . S
O9 C8 1.224 . S
N10 Co0 2.128 . S
N10 C11 1.355 . S
N10 C13 1.311 . S
C11 N10 1.355 . S
C11 C12 1.363 . S
C11 H23 0.929 . S
C12 C11 1.363 . S
C12 N14 1.375 . S
C12 H30 0.931 . S
C13 N10 1.311 . S
C13 N14 1.347 . S
C13 H24 0.929 . S
N14 C12 1.375 . S
N14 C13 1.347 . S
C15 C18 1.365 . S
C15 N20 1.328 . S
C15 H21 0.929 . S
C16 C17 1.362 . S
C16 C19 1.378 . S
C16 H31 0.929 . S
C17 C16 1.362 . S
C17 C18 1.366 . S
C18 C15 1.365 . S
C18 C17 1.366 . S
C18 H32 0.930 . S
C19 C16 1.378 . S
C19 N20 1.315 . S
C19 H22 0.930 . S
N20 Co0 2.194 . S
N20 C15 1.328 . S
N20 C19 1.315 . S
H21 C15 0.929 . S
H22 C19 0.930 . S
H23 C11 0.929 . S
H24 C13 0.929 . S
O25 Co0 2.351 . S
O25 C28 1.244 . S
O26 Co0 2.155 . S
O26 C28 1.240 . S
O27 Co0 2.096 . S
O27 C8 1.247 . S
C28 O25 1.244 . S
C28 O26 1.240 . S
H29 C3 0.931 . S
H30 C12 0.931 . S
H31 C16 0.929 . S
H32 C18 0.930 . S
Co33 N37 2.148 . S
Co33 N43 2.128 . S
Co33 N53 2.194 . S
Co33 O58 2.351 . S
Co33 O59 2.155 . S
Co33 O60 2.096 . S
C34 N37 1.301 . S
C34 N38 1.328 . S
C34 H39 0.930 . S
C35 C36 1.333 . S
C35 N37 1.317 . S
C35 H40 0.930 . S
C36 C35 1.333 . S
C36 N38 1.350 . S
C36 H62 0.931 . S
N37 Co33 2.148 . S
N37 C34 1.301 . S
N37 C35 1.317 . S
N38 C34 1.328 . S
N38 C36 1.350 . S
H39 C34 0.930 . S
H40 C35 0.930 . S
C41 O42 1.224 . S
C41 O60 1.247 . S
O42 C41 1.224 . S
N43 Co33 2.128 . S
N43 C44 1.355 . S
N43 C46 1.311 1_554 S
C44 N43 1.355 . S
C44 C45 1.363 1_554 S
C44 H56 0.929 . S
C45 C44 1.363 1_556 S
C45 N47 1.375 . S
C45 H63 0.931 . S
C46 N43 1.311 1_556 S
C46 N47 1.347 . S
C46 H57 0.929 . S
N47 C45 1.375 . S
N47 C46 1.347 . S
C48 C51 1.365 . S
C48 N53 1.328 . S
C48 H54 0.929 . S
C49 C50 1.362 . S
C49 C52 1.378 . S
C49 H64 0.929 . S
C50 C49 1.362 . S
C50 C51 1.366 . S
C51 C48 1.365 . S
C51 C50 1.366 . S
C51 H65 0.930 . S
C52 C49 1.378 . S
C52 N53 1.315 . S
C52 H55 0.930 . S
N53 Co33 2.194 . S
N53 C48 1.328 . S
N53 C52 1.315 . S
H54 C48 0.929 . S
H55 C52 0.930 . S
H56 C44 0.929 . S
H57 C46 0.929 . S
O58 Co33 2.351 . S
O58 C61 1.244 . S
O59 Co33 2.155 . S
O59 C61 1.240 . S
O60 Co33 2.096 . S
O60 C41 1.247 . S
C61 O58 1.244 . S
C61 O59 1.240 . S
H62 C36 0.931 . S
H63 C45 0.931 . S
H64 C49 0.929 . S
H65 C51 0.930 . S
Co66 N70 2.148 . S
Co66 N76 2.128 . S
Co66 N86 2.194 . S
Co66 O91 2.351 . S
Co66 O92 2.155 . S
Co66 O93 2.096 . S
C67 N70 1.301 1_554 S
C67 N71 1.328 . S
C67 H72 0.930 . S
C68 C69 1.333 1_556 S
C68 N70 1.317 . S
C68 H73 0.930 . S
C69 C68 1.333 1_554 S
C69 N71 1.350 . S
C69 H95 0.931 . S
N70 Co66 2.148 . S
N70 C67 1.301 1_556 S
N70 C68 1.317 . S
N71 C67 1.328 . S
N71 C69 1.350 . S
H72 C67 0.930 . S
H73 C68 0.930 . S
C74 O75 1.224 . S
C74 O93 1.247 . S
O75 C74 1.224 . S
N76 Co66 2.128 . S
N76 C77 1.355 . S
N76 C79 1.311 . S
C77 N76 1.355 . S
C77 C78 1.363 . S
C77 H89 0.929 . S
C78 C77 1.363 . S
C78 N80 1.375 . S
C78 H96 0.931 . S
C79 N76 1.311 . S
C79 N80 1.347 . S
C79 H90 0.929 . S
N80 C78 1.375 . S
N80 C79 1.347 . S
C81 C84 1.365 . S
C81 N86 1.328 . S
C81 H87 0.929 . S
C82 C83 1.362 . S
C82 C85 1.378 . S
C82 H97 0.929 . S
C83 C82 1.362 . S
C83 C84 1.366 . S
C84 C81 1.365 . S
C84 C83 1.366 . S
C84 H98 0.930 . S
C85 C82 1.378 . S
C85 N86 1.315 . S
C85 H88 0.930 . S
N86 Co66 2.194 . S
N86 C81 1.328 . S
N86 C85 1.315 . S
H87 C81 0.929 . S
H88 C85 0.930 . S
H89 C77 0.929 . S
H90 C79 0.929 . S
O91 Co66 2.351 . S
O91 C94 1.244 . S
O92 Co66 2.155 . S
O92 C94 1.240 . S
O93 Co66 2.096 . S
O93 C74 1.247 . S
C94 O91 1.244 . S
C94 O92 1.240 . S
H95 C69 0.931 . S
H96 C78 0.931 . S
H97 C82 0.929 . S
H98 C84 0.930 . S
Co99 N103 2.148 . S
Co99 N109 2.128 . S
Co99 N119 2.194 . S
Co99 O124 2.351 . S
Co99 O125 2.155 . S
Co99 O126 2.096 . S
C100 N103 1.301 . S
C100 N104 1.328 . S
C100 H105 0.930 . S
C101 C102 1.333 . S
C101 N103 1.317 . S
C101 H106 0.930 . S
C102 C101 1.333 . S
C102 N104 1.350 . S
C102 H128 0.931 . S
N103 Co99 2.148 . S
N103 C100 1.301 . S
N103 C101 1.317 . S
N104 C100 1.328 . S
N104 C102 1.350 . S
H105 C100 0.930 . S
H106 C101 0.930 . S
C107 O108 1.224 . S
C107 O126 1.247 . S
O108 C107 1.224 . S
N109 Co99 2.128 . S
N109 C110 1.355 . S
N109 C112 1.311 1_556 S
C110 N109 1.355 . S
C110 C111 1.363 1_556 S
C110 H122 0.929 . S
C111 C110 1.363 1_554 S
C111 N113 1.375 . S
C111 H129 0.931 . S
C112 N109 1.311 1_554 S
C112 N113 1.347 . S
C112 H123 0.929 . S
N113 C111 1.375 . S
N113 C112 1.347 . S
C114 C117 1.365 . S
C114 N119 1.328 . S
C114 H120 0.929 . S
C115 C116 1.362 . S
C115 C118 1.378 . S
C115 H130 0.929 . S
C116 C115 1.362 . S
C116 C117 1.366 . S
C117 C114 1.365 . S
C117 C116 1.366 . S
C117 H131 0.930 . S
C118 C115 1.378 . S
C118 N119 1.315 . S
C118 H121 0.930 . S
N119 Co99 2.194 . S
N119 C114 1.328 . S
N119 C118 1.315 . S
H120 C114 0.929 . S
H121 C118 0.930 . S
H122 C110 0.929 . S
H123 C112 0.929 . S
O124 Co99 2.351 . S
O124 C127 1.244 . S
O125 Co99 2.155 . S
O125 C127 1.240 . S
O126 Co99 2.096 . S
O126 C107 1.247 . S
C127 O124 1.244 . S
C127 O125 1.240 . S
H128 C102 0.931 . S
H129 C111 0.931 . S
H130 C115 0.929 . S
H131 C117 0.930 . S
Co132 N136 2.148 . S
Co132 N142 2.128 . S
Co132 N152 2.194 . S
Co132 O157 2.351 . S
Co132 O158 2.155 . S
Co132 O159 2.096 . S
C133 N136 1.301 . S
C133 N137 1.328 . S
C133 H138 0.930 . S
C134 C135 1.333 . S
C134 N136 1.317 . S
C134 H139 0.930 . S
C135 C134 1.333 . S
C135 N137 1.350 . S
C135 H161 0.931 . S
N136 Co132 2.148 . S
N136 C133 1.301 . S
N136 C134 1.317 . S
N137 C133 1.328 . S
N137 C135 1.350 . S
H138 C133 0.930 . S
H139 C134 0.930 . S
C140 O141 1.224 . S
C140 O159 1.247 . S
O141 C140 1.224 . S
N142 Co132 2.128 . S
N142 C143 1.355 . S
N142 C145 1.311 . S
C143 N142 1.355 . S
C143 C144 1.363 . S
C143 H155 0.929 . S
C144 C143 1.363 . S
C144 N146 1.375 . S
C144 H162 0.931 . S
C145 N142 1.311 . S
C145 N146 1.347 . S
C145 H156 0.929 . S
N146 C144 1.375 . S
N146 C145 1.347 . S
C147 C150 1.365 . S
C147 N152 1.328 . S
C147 H153 0.929 . S
C148 C149 1.362 . S
C148 C151 1.378 . S
C148 H163 0.929 . S
C149 C148 1.362 . S
C149 C150 1.366 . S
C150 C147 1.365 . S
C150 C149 1.366 . S
C150 H164 0.930 . S
C151 C148 1.378 . S
C151 N152 1.315 . S
C151 H154 0.930 . S
N152 Co132 2.194 . S
N152 C147 1.328 . S
N152 C151 1.315 . S
H153 C147 0.929 . S
H154 C151 0.930 . S
H155 C143 0.929 . S
H156 C145 0.929 . S
O157 Co132 2.351 . S
O157 C160 1.244 . S
O158 Co132 2.155 . S
O158 C160 1.240 . S
O159 Co132 2.096 . S
O159 C140 1.247 . S
C160 O157 1.244 . S
C160 O158 1.240 . S
H161 C135 0.931 . S
H162 C144 0.931 . S
H163 C148 0.929 . S
H164 C150 0.930 . S
Co165 N169 2.148 . S
Co165 N175 2.128 . S
Co165 N185 2.194 . S
Co165 O190 2.351 . S
Co165 O191 2.155 . S
Co165 O192 2.096 . S
C166 N169 1.301 . S
C166 N170 1.328 . S
C166 H171 0.930 . S
C167 C168 1.333 . S
C167 N169 1.317 . S
C167 H172 0.930 . S
C168 C167 1.333 . S
C168 N170 1.350 . S
C168 H194 0.931 . S
N169 Co165 2.148 . S
N169 C166 1.301 . S
N169 C167 1.317 . S
N170 C166 1.328 . S
N170 C168 1.350 . S
H171 C166 0.930 . S
H172 C167 0.930 . S
C173 O174 1.224 . S
C173 O192 1.247 . S
O174 C173 1.224 . S
N175 Co165 2.128 . S
N175 C176 1.355 . S
N175 C178 1.311 . S
C176 N175 1.355 . S
C176 C177 1.363 . S
C176 H188 0.929 . S
C177 C176 1.363 . S
C177 N179 1.375 . S
C177 H195 0.931 . S
C178 N175 1.311 . S
C178 N179 1.347 . S
C178 H189 0.929 . S
N179 C177 1.375 . S
N179 C178 1.347 . S
C180 C183 1.365 . S
C180 N185 1.328 . S
C180 H186 0.929 . S
C181 C182 1.362 . S
C181 C184 1.378 . S
C181 H196 0.929 . S
C182 C181 1.362 . S
C182 C183 1.366 . S
C183 C180 1.365 . S
C183 C182 1.366 . S
C183 H197 0.930 . S
C184 C181 1.378 . S
C184 N185 1.315 . S
C184 H187 0.930 . S
N185 Co165 2.194 . S
N185 C180 1.328 . S
N185 C184 1.315 . S
H186 C180 0.929 . S
H187 C184 0.930 . S
H188 C176 0.929 . S
H189 C178 0.929 . S
O190 Co165 2.351 . S
O190 C193 1.244 . S
O191 Co165 2.155 . S
O191 C193 1.240 . S
O192 Co165 2.096 . S
O192 C173 1.247 . S
C193 O190 1.244 . S
C193 O191 1.240 . S
H194 C168 0.931 . S
H195 C177 0.931 . S
H196 C181 0.929 . S
H197 C183 0.930 . S
Co198 N202 2.148 . S
Co198 N208 2.128 . S
Co198 N218 2.194 . S
Co198 O223 2.351 . S
Co198 O224 2.155 . S
Co198 O225 2.096 . S
C199 N202 1.301 . S
C199 N203 1.328 . S
C199 H204 0.930 . S
C200 C201 1.333 . S
C200 N202 1.317 . S
C200 H205 0.930 . S
C201 C200 1.333 . S
C201 N203 1.350 . S
C201 H227 0.931 . S
N202 Co198 2.148 . S
N202 C199 1.301 . S
N202 C200 1.317 . S
N203 C199 1.328 . S
N203 C201 1.350 . S
H204 C199 0.930 . S
H205 C200 0.930 . S
C206 O207 1.224 . S
C206 O225 1.247 . S
O207 C206 1.224 . S
N208 Co198 2.128 . S
N208 C209 1.355 . S
N208 C211 1.311 . S
C209 N208 1.355 . S
C209 C210 1.363 . S
C209 H221 0.929 . S
C210 C209 1.363 . S
C210 N212 1.375 . S
C210 H228 0.931 . S
C211 N208 1.311 . S
C211 N212 1.347 . S
C211 H222 0.929 . S
N212 C210 1.375 . S
N212 C211 1.347 . S
C213 C216 1.365 . S
C213 N218 1.328 . S
C213 H219 0.929 . S
C214 C215 1.362 . S
C214 C217 1.378 . S
C214 H229 0.929 . S
C215 C214 1.362 . S
C215 C216 1.366 . S
C216 C213 1.365 . S
C216 C215 1.366 . S
C216 H230 0.930 . S
C217 C214 1.378 . S
C217 N218 1.315 . S
C217 H220 0.930 . S
N218 Co198 2.194 . S
N218 C213 1.328 . S
N218 C217 1.315 . S
H219 C213 0.929 . S
H220 C217 0.930 . S
H221 C209 0.929 . S
H222 C211 0.929 . S
O223 Co198 2.351 . S
O223 C226 1.244 . S
O224 Co198 2.155 . S
O224 C226 1.240 . S
O225 Co198 2.096 . S
O225 C206 1.247 . S
C226 O223 1.244 . S
C226 O224 1.240 . S
H227 C201 0.931 . S
H228 C210 0.931 . S
H229 C214 0.929 . S
H230 C216 0.930 . S
Co231 N235 2.148 . S
Co231 N241 2.128 . S
Co231 N251 2.194 . S
Co231 O256 2.351 . S
Co231 O257 2.155 . S
Co231 O258 2.096 . S
C232 N235 1.301 . S
C232 N236 1.328 . S
C232 H237 0.930 . S
C233 C234 1.333 . S
C233 N235 1.317 . S
C233 H238 0.930 . S
C234 C233 1.333 . S
C234 N236 1.350 . S
C234 H260 0.931 . S
N235 Co231 2.148 . S
N235 C232 1.301 . S
N235 C233 1.317 . S
N236 C232 1.328 . S
N236 C234 1.350 . S
H237 C232 0.930 . S
H238 C233 0.930 . S
C239 O240 1.224 . S
C239 O258 1.247 . S
O240 C239 1.224 . S
N241 Co231 2.128 . S
N241 C242 1.355 . S
N241 C244 1.311 . S
C242 N241 1.355 . S
C242 C243 1.363 . S
C242 H254 0.929 . S
C243 C242 1.363 . S
C243 N245 1.375 . S
C243 H261 0.931 . S
C244 N241 1.311 . S
C244 N245 1.347 . S
C244 H255 0.929 . S
N245 C243 1.375 . S
N245 C244 1.347 . S
C246 C249 1.365 . S
C246 N251 1.328 . S
C246 H252 0.929 . S
C247 C248 1.362 . S
C247 C250 1.378 . S
C247 H262 0.929 . S
C248 C247 1.362 . S
C248 C249 1.366 . S
C249 C246 1.365 . S
C249 C248 1.366 . S
C249 H263 0.930 . S
C250 C247 1.378 . S
C250 N251 1.315 . S
C250 H253 0.930 . S
N251 Co231 2.194 . S
N251 C246 1.328 . S
N251 C250 1.315 . S
H252 C246 0.929 . S
H253 C250 0.930 . S
H254 C242 0.929 . S
H255 C244 0.929 . S
O256 Co231 2.351 . S
O256 C259 1.244 . S
O257 Co231 2.155 . S
O257 C259 1.240 . S
O258 Co231 2.096 . S
O258 C239 1.247 . S
C259 O256 1.244 . S
C259 O257 1.240 . S
H260 C234 0.931 . S
H261 C243 0.931 . S
H262 C247 0.929 . S
H263 C249 0.930 . S
Co264 N268 2.148 . S
Co264 N274 2.128 . S
Co264 N284 2.194 . S
Co264 O289 2.351 . S
Co264 O290 2.155 . S
Co264 O291 2.096 . S
C265 N268 1.301 . S
C265 N269 1.328 . S
C265 H270 0.930 . S
C266 C267 1.333 . S
C266 N268 1.317 . S
C266 H271 0.930 . S
C267 C266 1.333 . S
C267 N269 1.350 . S
C267 H293 0.931 . S
N268 Co264 2.148 . S
N268 C265 1.301 . S
N268 C266 1.317 . S
N269 C265 1.328 . S
N269 C267 1.350 . S
H270 C265 0.930 . S
H271 C266 0.930 . S
C272 O273 1.224 . S
C272 O291 1.247 . S
O273 C272 1.224 . S
N274 Co264 2.128 . S
N274 C275 1.355 . S
N274 C277 1.311 . S
C275 N274 1.355 . S
C275 C276 1.363 . S
C275 H287 0.929 . S
C276 C275 1.363 . S
C276 N278 1.375 . S
C276 H294 0.931 . S
C277 N274 1.311 . S
C277 N278 1.347 . S
C277 H288 0.929 . S
N278 C276 1.375 . S
N278 C277 1.347 . S
C279 C282 1.365 . S
C279 N284 1.328 . S
C279 H285 0.929 . S
C280 C281 1.362 . S
C280 C283 1.378 . S
C280 H295 0.929 . S
C281 C280 1.362 . S
C281 C282 1.366 . S
C282 C279 1.365 . S
C282 C281 1.366 . S
C282 H296 0.930 . S
C283 C280 1.378 . S
C283 N284 1.315 . S
C283 H286 0.930 . S
N284 Co264 2.194 . S
N284 C279 1.328 . S
N284 C283 1.315 . S
H285 C279 0.929 . S
H286 C283 0.930 . S
H287 C275 0.929 . S
H288 C277 0.929 . S
O289 Co264 2.351 . S
O289 C292 1.244 . S
O290 Co264 2.155 . S
O290 C292 1.240 . S
O291 Co264 2.096 . S
O291 C272 1.247 . S
C292 O289 1.244 . S
C292 O290 1.240 . S
H293 C267 0.931 . S
H294 C276 0.931 . S
H295 C280 0.929 . S
H296 C282 0.930 . S
Co297 N301 2.148 . S
Co297 N307 2.128 . S
Co297 N317 2.194 . S
Co297 O322 2.351 . S
Co297 O323 2.155 . S
Co297 O324 2.096 . S
C298 N301 1.301 . S
C298 N302 1.328 . S
C298 H303 0.930 . S
C299 C300 1.333 . S
C299 N301 1.317 . S
C299 H304 0.930 . S
C300 C299 1.333 . S
C300 N302 1.350 . S
C300 H326 0.931 . S
N301 Co297 2.148 . S
N301 C298 1.301 . S
N301 C299 1.317 . S
N302 C298 1.328 . S
N302 C300 1.350 . S
H303 C298 0.930 . S
H304 C299 0.930 . S
C305 O306 1.224 . S
C305 O324 1.247 . S
O306 C305 1.224 . S
N307 Co297 2.128 . S
N307 C308 1.355 . S
N307 C310 1.311 . S
C308 N307 1.355 . S
C308 C309 1.363 . S
C308 H320 0.929 . S
C309 C308 1.363 . S
C309 N311 1.375 . S
C309 H327 0.931 . S
C310 N307 1.311 . S
C310 N311 1.347 . S
C310 H321 0.929 . S
N311 C309 1.375 . S
N311 C310 1.347 . S
C312 C315 1.365 . S
C312 N317 1.328 . S
C312 H318 0.929 . S
C313 C314 1.362 . S
C313 C316 1.378 . S
C313 H328 0.929 . S
C314 C313 1.362 . S
C314 C315 1.366 . S
C315 C312 1.365 . S
C315 C314 1.366 . S
C315 H329 0.930 . S
C316 C313 1.378 . S
C316 N317 1.315 . S
C316 H319 0.930 . S
N317 Co297 2.194 . S
N317 C312 1.328 . S
N317 C316 1.315 . S
H318 C312 0.929 . S
H319 C316 0.930 . S
H320 C308 0.929 . S
H321 C310 0.929 . S
O322 Co297 2.351 . S
O322 C325 1.244 . S
O323 Co297 2.155 . S
O323 C325 1.240 . S
O324 Co297 2.096 . S
O324 C305 1.247 . S
C325 O322 1.244 . S
C325 O323 1.240 . S
H326 C300 0.931 . S
H327 C309 0.931 . S
H328 C313 0.929 . S
H329 C315 0.930 . S
Co330 N334 2.148 . S
Co330 N340 2.128 . S
Co330 N350 2.194 . S
Co330 O355 2.351 . S
Co330 O356 2.155 . S
Co330 O357 2.096 . S
C331 N334 1.301 . S
C331 N335 1.328 . S
C331 H336 0.930 . S
C332 C333 1.333 . S
C332 N334 1.317 . S
C332 H337 0.930 . S
C333 C332 1.333 . S
C333 N335 1.350 . S
C333 H359 0.931 . S
N334 Co330 2.148 . S
N334 C331 1.301 . S
N334 C332 1.317 . S
N335 C331 1.328 . S
N335 C333 1.350 . S
H336 C331 0.930 . S
H337 C332 0.930 . S
C338 O339 1.224 . S
C338 O357 1.247 . S
O339 C338 1.224 . S
N340 Co330 2.128 . S
N340 C341 1.355 . S
N340 C343 1.311 . S
C341 N340 1.355 . S
C341 C342 1.363 . S
C341 H353 0.929 . S
C342 C341 1.363 . S
C342 N344 1.375 . S
C342 H360 0.931 . S
C343 N340 1.311 . S
C343 N344 1.347 . S
C343 H354 0.929 . S
N344 C342 1.375 . S
N344 C343 1.347 . S
C345 C348 1.365 . S
C345 N350 1.328 . S
C345 H351 0.929 . S
C346 C347 1.362 . S
C346 C349 1.378 . S
C346 H361 0.929 . S
C347 C346 1.362 . S
C347 C348 1.366 . S
C348 C345 1.365 . S
C348 C347 1.366 . S
C348 H362 0.930 . S
C349 C346 1.378 . S
C349 N350 1.315 . S
C349 H352 0.930 . S
N350 Co330 2.194 . S
N350 C345 1.328 . S
N350 C349 1.315 . S
H351 C345 0.929 . S
H352 C349 0.930 . S
H353 C341 0.929 . S
H354 C343 0.929 . S
O355 Co330 2.351 . S
O355 C358 1.244 . S
O356 Co330 2.155 . S
O356 C358 1.240 . S
O357 Co330 2.096 . S
O357 C338 1.247 . S
C358 O355 1.244 . S
C358 O356 1.240 . S
H359 C333 0.931 . S
H360 C342 0.931 . S
H361 C346 0.929 . S
H362 C348 0.930 . S
Co363 N367 2.148 . S
Co363 N373 2.128 . S
Co363 N383 2.194 . S
Co363 O388 2.351 . S
Co363 O389 2.155 . S
Co363 O390 2.096 . S
C364 N367 1.301 . S
C364 N368 1.328 . S
C364 H369 0.930 . S
C365 C366 1.333 . S
C365 N367 1.317 . S
C365 H370 0.930 . S
C366 C365 1.333 . S
C366 N368 1.350 . S
C366 H392 0.931 . S
N367 Co363 2.148 . S
N367 C364 1.301 . S
N367 C365 1.317 . S
N368 C364 1.328 . S
N368 C366 1.350 . S
H369 C364 0.930 . S
H370 C365 0.930 . S
C371 O372 1.224 . S
C371 O390 1.247 . S
O372 C371 1.224 . S
N373 Co363 2.128 . S
N373 C374 1.355 . S
N373 C376 1.311 . S
C374 N373 1.355 . S
C374 C375 1.363 . S
C374 H386 0.929 . S
C375 C374 1.363 . S
C375 N377 1.375 . S
C375 H393 0.931 . S
C376 N373 1.311 . S
C376 N377 1.347 . S
C376 H387 0.929 . S
N377 C375 1.375 . S
N377 C376 1.347 . S
C378 C381 1.365 . S
C378 N383 1.328 . S
C378 H384 0.929 . S
C379 C380 1.362 . S
C379 C382 1.378 . S
C379 H394 0.929 . S
C380 C379 1.362 . S
C380 C381 1.366 . S
C381 C378 1.365 . S
C381 C380 1.366 . S
C381 H395 0.930 . S
C382 C379 1.378 . S
C382 N383 1.315 . S
C382 H385 0.930 . S
N383 Co363 2.194 . S
N383 C378 1.328 . S
N383 C382 1.315 . S
H384 C378 0.929 . S
H385 C382 0.930 . S
H386 C374 0.929 . S
H387 C376 0.929 . S
O388 Co363 2.351 . S
O388 C391 1.244 . S
O389 Co363 2.155 . S
O389 C391 1.240 . S
O390 Co363 2.096 . S
O390 C371 1.247 . S
C391 O388 1.244 . S
C391 O389 1.240 . S
H392 C366 0.931 . S
H393 C375 0.931 . S
H394 C379 0.929 . S
H395 C381 0.930 . S
Co396 N400 2.148 . S
Co396 N406 2.128 . S
Co396 N416 2.194 . S
Co396 O421 2.351 . S
Co396 O422 2.155 . S
Co396 O423 2.096 . S
C397 N400 1.301 1_556 S
C397 N401 1.328 . S
C397 H402 0.930 . S
C398 C399 1.333 1_554 S
C398 N400 1.317 . S
C398 H403 0.930 . S
C399 C398 1.333 1_556 S
C399 N401 1.350 . S
C399 H425 0.931 . S
N400 Co396 2.148 . S
N400 C397 1.301 1_554 S
N400 C398 1.317 . S
N401 C397 1.328 . S
N401 C399 1.350 . S
H402 C397 0.930 . S
H403 C398 0.930 . S
C404 O405 1.224 . S
C404 O423 1.247 . S
O405 C404 1.224 . S
N406 Co396 2.128 . S
N406 C407 1.355 . S
N406 C409 1.311 . S
C407 N406 1.355 . S
C407 C408 1.363 . S
C407 H419 0.929 . S
C408 C407 1.363 . S
C408 N410 1.375 . S
C408 H426 0.931 . S
C409 N406 1.311 . S
C409 N410 1.347 . S
C409 H420 0.929 . S
N410 C408 1.375 . S
N410 C409 1.347 . S
C411 C414 1.365 . S
C411 N416 1.328 . S
C411 H417 0.929 . S
C412 C413 1.362 . S
C412 C415 1.378 . S
C412 H427 0.929 . S
C413 C412 1.362 . S
C413 C414 1.366 . S
C414 C411 1.365 . S
C414 C413 1.366 . S
C414 H428 0.930 . S
C415 C412 1.378 . S
C415 N416 1.315 . S
C415 H418 0.930 . S
N416 Co396 2.194 . S
N416 C411 1.328 . S
N416 C415 1.315 . S
H417 C411 0.929 . S
H418 C415 0.930 . S
H419 C407 0.929 . S
H420 C409 0.929 . S
O421 Co396 2.351 . S
O421 C424 1.244 . S
O422 Co396 2.155 . S
O422 C424 1.240 . S
O423 Co396 2.096 . S
O423 C404 1.247 . S
C424 O421 1.244 . S
C424 O422 1.240 . S
H425 C399 0.931 . S
H426 C408 0.931 . S
H427 C412 0.929 . S
H428 C414 0.930 . S
Co429 N433 2.148 . S
Co429 N439 2.128 . S
Co429 N449 2.194 . S
Co429 O454 2.351 . S
Co429 O455 2.155 . S
Co429 O456 2.096 . S
C430 N433 1.301 . S
C430 N434 1.328 . S
C430 H435 0.930 . S
C431 C432 1.333 . S
C431 N433 1.317 . S
C431 H436 0.930 . S
C432 C431 1.333 . S
C432 N434 1.350 . S
C432 H458 0.931 . S
N433 Co429 2.148 . S
N433 C430 1.301 . S
N433 C431 1.317 . S
N434 C430 1.328 . S
N434 C432 1.350 . S
H435 C430 0.930 . S
H436 C431 0.930 . S
C437 O438 1.224 . S
C437 O456 1.247 . S
O438 C437 1.224 . S
N439 Co429 2.128 . S
N439 C440 1.355 . S
N439 C442 1.311 1_554 S
C440 N439 1.355 . S
C440 C441 1.363 1_554 S
C440 H452 0.929 . S
C441 C440 1.363 1_556 S
C441 N443 1.375 . S
C441 H459 0.931 . S
C442 N439 1.311 1_556 S
C442 N443 1.347 . S
C442 H453 0.929 . S
N443 C441 1.375 . S
N443 C442 1.347 . S
C444 C447 1.365 . S
C444 N449 1.328 . S
C444 H450 0.929 . S
C445 C446 1.362 . S
C445 C448 1.378 . S
C445 H460 0.929 . S
C446 C445 1.362 . S
C446 C447 1.366 . S
C447 C444 1.365 . S
C447 C446 1.366 . S
C447 H461 0.930 . S
C448 C445 1.378 . S
C448 N449 1.315 . S
C448 H451 0.930 . S
N449 Co429 2.194 . S
N449 C444 1.328 . S
N449 C448 1.315 . S
H450 C444 0.929 . S
H451 C448 0.930 . S
H452 C440 0.929 . S
H453 C442 0.929 . S
O454 Co429 2.351 . S
O454 C457 1.244 . S
O455 Co429 2.155 . S
O455 C457 1.240 . S
O456 Co429 2.096 . S
O456 C437 1.247 . S
C457 O454 1.244 . S
C457 O455 1.240 . S
H458 C432 0.931 . S
H459 C441 0.931 . S
H460 C445 0.929 . S
H461 C447 0.930 . S
Co462 N466 2.148 . S
Co462 N472 2.128 . S
Co462 N482 2.194 . S
Co462 O487 2.351 . S
Co462 O488 2.155 . S
Co462 O489 2.096 . S
C463 N466 1.301 1_554 S
C463 N467 1.328 . S
C463 H468 0.930 . S
C464 C465 1.333 1_556 S
C464 N466 1.317 . S
C464 H469 0.930 . S
C465 C464 1.333 1_554 S
C465 N467 1.350 . S
C465 H491 0.931 . S
N466 Co462 2.148 . S
N466 C463 1.301 1_556 S
N466 C464 1.317 . S
N467 C463 1.328 . S
N467 C465 1.350 . S
H468 C463 0.930 . S
H469 C464 0.930 . S
C470 O471 1.224 . S
C470 O489 1.247 . S
O471 C470 1.224 . S
N472 Co462 2.128 . S
N472 C473 1.355 . S
N472 C475 1.311 . S
C473 N472 1.355 . S
C473 C474 1.363 . S
C473 H485 0.929 . S
C474 C473 1.363 . S
C474 N476 1.375 . S
C474 H492 0.931 . S
C475 N472 1.311 . S
C475 N476 1.347 . S
C475 H486 0.929 . S
N476 C474 1.375 . S
N476 C475 1.347 . S
C477 C480 1.365 . S
C477 N482 1.328 . S
C477 H483 0.929 . S
C478 C479 1.362 . S
C478 C481 1.378 . S
C478 H493 0.929 . S
C479 C478 1.362 . S
C479 C480 1.366 . S
C480 C477 1.365 . S
C480 C479 1.366 . S
C480 H494 0.930 . S
C481 C478 1.378 . S
C481 N482 1.315 . S
C481 H484 0.930 . S
N482 Co462 2.194 . S
N482 C477 1.328 . S
N482 C481 1.315 . S
H483 C477 0.929 . S
H484 C481 0.930 . S
H485 C473 0.929 . S
H486 C475 0.929 . S
O487 Co462 2.351 . S
O487 C490 1.244 . S
O488 Co462 2.155 . S
O488 C490 1.240 . S
O489 Co462 2.096 . S
O489 C470 1.247 . S
C490 O487 1.244 . S
C490 O488 1.240 . S
H491 C465 0.931 . S
H492 C474 0.931 . S
H493 C478 0.929 . S
H494 C480 0.930 . S
Co495 N499 2.148 . S
Co495 N505 2.128 . S
Co495 N515 2.194 . S
Co495 O520 2.351 . S
Co495 O521 2.155 . S
Co495 O522 2.096 . S
C496 N499 1.301 . S
C496 N500 1.328 . S
C496 H501 0.930 . S
C497 C498 1.333 . S
C497 N499 1.317 . S
C497 H502 0.930 . S
C498 C497 1.333 . S
C498 N500 1.350 . S
C498 H524 0.931 . S
N499 Co495 2.148 . S
N499 C496 1.301 . S
N499 C497 1.317 . S
N500 C496 1.328 . S
N500 C498 1.350 . S
H501 C496 0.930 . S
H502 C497 0.930 . S
C503 O504 1.224 . S
C503 O522 1.247 . S
O504 C503 1.224 . S
N505 Co495 2.128 . S
N505 C506 1.355 . S
N505 C508 1.311 1_556 S
C506 N505 1.355 . S
C506 C507 1.363 1_556 S
C506 H518 0.929 . S
C507 C506 1.363 1_554 S
C507 N509 1.375 . S
C507 H525 0.931 . S
C508 N505 1.311 1_554 S
C508 N509 1.347 . S
C508 H519 0.929 . S
N509 C507 1.375 . S
N509 C508 1.347 . S
C510 C513 1.365 . S
C510 N515 1.328 . S
C510 H516 0.929 . S
C511 C512 1.362 . S
C511 C514 1.378 . S
C511 H526 0.929 . S
C512 C511 1.362 . S
C512 C513 1.366 . S
C513 C510 1.365 . S
C513 C512 1.366 . S
C513 H527 0.930 . S
C514 C511 1.378 . S
C514 N515 1.315 . S
C514 H517 0.930 . S
N515 Co495 2.194 . S
N515 C510 1.328 . S
N515 C514 1.315 . S
H516 C510 0.929 . S
H517 C514 0.930 . S
H518 C506 0.929 . S
H519 C508 0.929 . S
O520 Co495 2.351 . S
O520 C523 1.244 . S
O521 Co495 2.155 . S
O521 C523 1.240 . S
O522 Co495 2.096 . S
O522 C503 1.247 . S
C523 O520 1.244 . S
C523 O521 1.240 . S
H524 C498 0.931 . S
H525 C507 0.931 . S
H526 C511 0.929 . S
H527 C513 0.930 . S
H528 C536 0.929 . S
H529 C538 0.930 . S
H530 C540 0.930 . S
H531 C543 0.929 . S
H532 C546 0.930 . S
H533 C548 0.960 . S
H534 C548 0.960 . S
H535 C548 0.960 . S
C536 H528 0.929 . S
C536 C537 1.377 . S
C536 C538 1.384 . S
C537 C536 1.377 . S
C537 C543 1.390 . S
C538 H529 0.930 . S
C538 C536 1.384 . S
C538 C539 1.372 . S
C539 C538 1.372 . S
C539 C540 1.400 . S
C539 C544 1.490 . S
C540 H530 0.930 . S
C540 C539 1.400 . S
C540 C543 1.386 . S
H541 C557 0.930 . S
H542 C558 0.931 . S
C543 H531 0.929 . S
C543 C537 1.390 . S
C543 C540 1.386 . S
C544 C539 1.490 . S
C544 C546 1.395 . S
C544 C547 1.403 . S
H545 C551 0.930 . S
C546 H532 0.930 . S
C546 C544 1.395 . S
C546 C549 1.403 . S
C547 C544 1.403 . S
C547 C548 1.524 . S
C547 C551 1.400 . S
C548 H533 0.960 . S
C548 H534 0.960 . S
C548 H535 0.960 . S
C548 C547 1.524 . S
C549 C546 1.403 . S
C549 C550 1.392 . S
C549 C553 1.495 . S
C550 C549 1.392 . S
C550 C551 1.385 . S
C550 C552 1.478 . S
C551 H545 0.930 . S
C551 C547 1.400 . S
C551 C550 1.385 . S
C552 C550 1.478 . S
C552 C554 1.381 . S
C552 C558 1.383 . S
C553 C549 1.495 . S
C553 H559 0.959 . S
C553 H560 0.961 . S
C553 H561 0.960 . S
C554 C552 1.381 . S
C554 C555 1.394 . S
C554 H562 0.930 . S
C555 C554 1.394 . S
C555 C556 1.383 . S
C555 H563 0.929 . S
C556 C555 1.383 . S
C556 C557 1.377 . S
C557 H541 0.930 . S
C557 C556 1.377 . S
C557 C558 1.379 . S
C558 H542 0.931 . S
C558 C552 1.383 . S
C558 C557 1.379 . S
H559 C553 0.959 . S
H560 C553 0.961 . S
H561 C553 0.960 . S
H562 C554 0.930 . S
H563 C555 0.929 . S
H564 C572 0.929 . S
H565 C574 0.930 . S
H566 C576 0.930 . S
H567 C579 0.929 . S
H568 C582 0.930 . S
H569 C584 0.960 . S
H570 C584 0.960 1_455 S
H571 C584 0.958 1_455 S
C572 H564 0.929 . S
C572 C573 1.377 . S
C572 C574 1.384 . S
C573 C572 1.377 . S
C573 C579 1.390 . S
C574 H565 0.930 . S
C574 C572 1.384 . S
C574 C575 1.372 . S
C575 C574 1.372 . S
C575 C576 1.400 . S
C575 C580 1.490 . S
C576 H566 0.930 . S
C576 C575 1.400 . S
C576 C579 1.386 . S
H577 C593 0.930 . S
H578 C594 0.931 . S
C579 H567 0.929 . S
C579 C573 1.390 . S
C579 C576 1.386 . S
C580 C575 1.490 . S
C580 C582 1.395 . S
C580 C583 1.409 . S
H581 C587 0.930 . S
C582 H568 0.930 . S
C582 C580 1.395 . S
C582 C585 1.403 . S
C583 C580 1.409 . S
C583 C584 1.523 1_455 S
C583 C587 1.394 1_455 S
C584 H569 0.960 . S
C584 H570 0.960 1_655 S
C584 H571 0.958 1_655 S
C584 C583 1.523 1_655 S
C585 C582 1.403 . S
C585 C586 1.392 1_455 S
C585 C589 1.495 . S
C586 C585 1.392 1_655 S
C586 C587 1.385 . S
C586 C588 1.478 . S
C587 H581 0.930 . S
C587 C583 1.394 1_655 S
C587 C586 1.385 . S
C588 C586 1.478 . S
C588 C590 1.381 . S
C588 C594 1.383 . S
C589 C585 1.495 . S
C589 H595 0.959 . S
C589 H596 0.961 1_455 S
C589 H597 0.960 . S
C590 C588 1.381 . S
C590 C591 1.394 . S
C590 H598 0.930 . S
C591 C590 1.394 . S
C591 C592 1.383 . S
C591 H599 0.929 . S
C592 C591 1.383 . S
C592 C593 1.377 . S
C593 H577 0.930 . S
C593 C592 1.377 . S
C593 C594 1.379 . S
C594 H578 0.931 . S
C594 C588 1.383 . S
C594 C593 1.379 . S
H595 C589 0.959 . S
H596 C589 0.961 1_655 S
H597 C589 0.960 . S
H598 C590 0.930 . S
H599 C591 0.929 . S
H600 C608 0.929 . S
H601 C610 0.930 . S
H602 C612 0.930 1_554 S
H603 C615 0.929 . S
H604 C618 0.930 . S
H605 C620 0.960 . S
H606 C620 0.960 . S
H607 C620 0.960 . S
C608 H600 0.929 . S
C608 C609 1.377 . S
C608 C610 1.384 . S
C609 C608 1.377 . S
C609 C615 1.390 . S
C610 H601 0.930 . S
C610 C608 1.384 . S
C610 C611 1.372 . S
C611 C610 1.372 . S
C611 C612 1.400 . S
C611 C616 1.490 . S
C612 H602 0.930 1_556 S
C612 C611 1.400 . S
C612 C615 1.386 . S
H613 C629 0.930 . S
H614 C630 0.931 . S
C615 H603 0.929 . S
C615 C609 1.390 . S
C615 C612 1.386 . S
C616 C611 1.490 . S
C616 C618 1.395 . S
C616 C619 1.403 1_556 S
H617 C623 0.930 . S
C618 H604 0.930 . S
C618 C616 1.395 . S
C618 C621 1.403 . S
C619 C616 1.403 1_554 S
C619 C620 1.524 . S
C619 C623 1.400 . S
C620 H605 0.960 . S
C620 H606 0.960 . S
C620 H607 0.960 . S
C620 C619 1.524 . S
C621 C618 1.403 . S
C621 C622 1.392 1_556 S
C621 C625 1.495 . S
C622 C621 1.392 1_554 S
C622 C623 1.385 . S
C622 C624 1.478 . S
C623 H617 0.930 . S
C623 C619 1.400 . S
C623 C622 1.385 . S
C624 C622 1.478 . S
C624 C626 1.381 . S
C624 C630 1.383 . S
C625 C621 1.495 . S
C625 H631 0.959 . S
C625 H632 0.961 . S
C625 H633 0.960 . S
C626 C624 1.381 . S
C626 C627 1.394 . S
C626 H634 0.930 1_554 S
C627 C626 1.394 . S
C627 C628 1.383 . S
C627 H635 0.929 . S
C628 C627 1.383 . S
C628 C629 1.377 . S
C629 H613 0.930 . S
C629 C628 1.377 . S
C629 C630 1.379 . S
C630 H614 0.931 . S
C630 C624 1.383 . S
C630 C629 1.379 . S
H631 C625 0.959 . S
H632 C625 0.961 . S
H633 C625 0.960 . S
H634 C626 0.930 1_556 S
H635 C627 0.929 . S
H636 C644 0.929 . S
H637 C646 0.930 . S
H638 C648 0.930 . S
H639 C651 0.929 . S
H640 C654 0.930 . S
H641 C656 0.960 . S
H642 C656 0.960 . S
H643 C656 0.960 . S
C644 H636 0.929 . S
C644 C645 1.377 . S
C644 C646 1.384 . S
C645 C644 1.377 . S
C645 C651 1.390 . S
C646 H637 0.930 . S
C646 C644 1.384 . S
C646 C647 1.372 . S
C647 C646 1.372 . S
C647 C648 1.400 . S
C647 C652 1.490 . S
C648 H638 0.930 . S
C648 C647 1.400 . S
C648 C651 1.386 . S
H649 C665 0.930 . S
H650 C666 0.931 1_556 S
C651 H639 0.929 . S
C651 C645 1.390 . S
C651 C648 1.386 . S
C652 C647 1.490 . S
C652 C654 1.395 1_655 S
C652 C655 1.403 1_556 S
H653 C659 0.933 . S
C654 H640 0.930 . S
C654 C652 1.395 1_455 S
C654 C657 1.403 . S
C655 C652 1.403 1_554 S
C655 C656 1.524 . S
C655 C659 1.400 1_655 S
C656 H641 0.960 . S
C656 H642 0.960 . S
C656 H643 0.960 . S
C656 C655 1.524 . S
C657 C654 1.403 . S
C657 C658 1.392 1_556 S
C657 C661 1.495 . S
C658 C657 1.392 1_554 S
C658 C659 1.385 . S
C658 C660 1.478 . S
C659 H653 0.933 . S
C659 C655 1.400 1_455 S
C659 C658 1.385 . S
C660 C658 1.478 . S
C660 C662 1.381 . S
C660 C666 1.383 . S
C661 C657 1.495 . S
C661 H667 0.959 . S
C661 H668 0.961 . S
C661 H669 0.960 . S
C662 C660 1.381 . S
C662 C663 1.394 . S
C662 H670 0.930 . S
C663 C662 1.394 . S
C663 C664 1.383 . S
C663 H671 0.929 . S
C664 C663 1.383 . S
C664 C665 1.377 . S
C665 H649 0.930 . S
C665 C664 1.377 . S
C665 C666 1.379 . S
C666 H650 0.931 1_554 S
C666 C660 1.383 . S
C666 C665 1.379 . S
H667 C661 0.959 . S
H668 C661 0.961 . S
H669 C661 0.960 . S
H670 C662 0.930 . S
H671 C663 0.929 . S
H672 C680 0.929 . S
H673 C682 0.930 . S
H674 C684 0.930 . S
H675 C687 0.929 . S
H676 C690 0.930 . S
H677 C692 0.960 . S
H678 C692 0.960 . S
H679 C692 0.960 . S
C680 H672 0.929 . S
C680 C681 1.377 . S
C680 C682 1.384 . S
C681 C680 1.377 . S
C681 C687 1.390 . S
C682 H673 0.930 . S
C682 C680 1.384 . S
C682 C683 1.372 . S
C683 C682 1.372 . S
C683 C684 1.400 . S
C683 C688 1.490 . S
C684 H674 0.930 . S
C684 C683 1.400 . S
C684 C687 1.386 . S
H685 C701 0.930 . S
H686 C702 0.931 . S
C687 H675 0.929 . S
C687 C681 1.390 . S
C687 C684 1.386 . S
C688 C683 1.490 . S
C688 C690 1.395 . S
C688 C691 1.403 . S
H689 C695 0.930 . S
C690 H676 0.930 . S
C690 C688 1.395 . S
C690 C693 1.403 . S
C691 C688 1.403 . S
C691 C692 1.524 . S
C691 C695 1.400 . S
C692 H677 0.960 . S
C692 H678 0.960 . S
C692 H679 0.960 . S
C692 C691 1.524 . S
C693 C690 1.403 . S
C693 C694 1.392 . S
C693 C697 1.495 . S
C694 C693 1.392 . S
C694 C695 1.385 . S
C694 C696 1.478 . S
C695 H689 0.930 . S
C695 C691 1.400 . S
C695 C694 1.385 . S
C696 C694 1.478 . S
C696 C698 1.381 . S
C696 C702 1.383 . S
C697 C693 1.495 . S
C697 H703 0.959 . S
C697 H704 0.961 . S
C697 H705 0.960 . S
C698 C696 1.381 . S
C698 C699 1.394 . S
C698 H706 0.930 . S
C699 C698 1.394 . S
C699 C700 1.383 . S
C699 H707 0.929 . S
C700 C699 1.383 . S
C700 C701 1.377 . S
C701 H685 0.930 . S
C701 C700 1.377 . S
C701 C702 1.379 . S
C702 H686 0.931 . S
C702 C696 1.383 . S
C702 C701 1.379 . S
H703 C697 0.959 . S
H704 C697 0.961 . S
H705 C697 0.960 . S
H706 C698 0.930 . S
H707 C699 0.929 . S
H708 C716 0.929 . S
H709 C718 0.930 . S
H710 C720 0.930 . S
H711 C723 0.929 . S
H712 C726 0.930 . S
H713 C728 0.960 . S
H714 C728 0.960 . S
H715 C728 0.960 . S
C716 H708 0.929 . S
C716 C717 1.377 . S
C716 C718 1.384 . S
C717 C716 1.377 . S
C717 C723 1.390 . S
C718 H709 0.930 . S
C718 C716 1.384 . S
C718 C719 1.372 . S
C719 C718 1.372 . S
C719 C720 1.400 . S
C719 C724 1.490 . S
C720 H710 0.930 . S
C720 C719 1.400 . S
C720 C723 1.386 . S
H721 C737 0.930 . S
H722 C738 0.931 . S
C723 H711 0.929 . S
C723 C717 1.390 . S
C723 C720 1.386 . S
C724 C719 1.490 . S
C724 C726 1.395 . S
C724 C727 1.403 . S
H725 C731 0.930 . S
C726 H712 0.930 . S
C726 C724 1.395 . S
C726 C729 1.403 1_455 S
C727 C724 1.403 . S
C727 C728 1.524 . S
C727 C731 1.400 1_455 S
C728 H713 0.960 . S
C728 H714 0.960 . S
C728 H715 0.960 . S
C728 C727 1.524 . S
C729 C726 1.403 1_655 S
C729 C730 1.392 . S
C729 C733 1.495 . S
C730 C729 1.392 . S
C730 C731 1.385 . S
C730 C732 1.478 . S
C731 H725 0.930 . S
C731 C727 1.400 1_655 S
C731 C730 1.385 . S
C732 C730 1.478 . S
C732 C734 1.381 . S
C732 C738 1.383 . S
C733 C729 1.495 . S
C733 H739 0.959 . S
C733 H740 0.961 . S
C733 H741 0.960 . S
C734 C732 1.381 . S
C734 C735 1.394 . S
C734 H742 0.930 . S
C735 C734 1.394 . S
C735 C736 1.383 . S
C735 H743 0.929 . S
C736 C735 1.383 . S
C736 C737 1.377 . S
C737 H721 0.930 . S
C737 C736 1.377 . S
C737 C738 1.379 . S
C738 H722 0.931 . S
C738 C732 1.383 . S
C738 C737 1.379 . S
H739 C733 0.959 . S
H740 C733 0.961 . S
H741 C733 0.960 . S
H742 C734 0.930 . S
H743 C735 0.929 . S
H744 C752 0.929 . S
H745 C754 0.930 . S
H746 C756 0.930 . S
H747 C759 0.929 . S
H748 C762 0.930 . S
H749 C764 0.960 . S
H750 C764 0.960 . S
H751 C764 0.960 . S
C752 H744 0.929 . S
C752 C753 1.377 . S
C752 C754 1.384 . S
C753 C752 1.377 . S
C753 C759 1.390 . S
C754 H745 0.930 . S
C754 C752 1.384 . S
C754 C755 1.372 . S
C755 C754 1.372 . S
C755 C756 1.400 . S
C755 C760 1.490 . S
C756 H746 0.930 . S
C756 C755 1.400 . S
C756 C759 1.386 . S
H757 C773 0.930 . S
H758 C774 0.931 . S
C759 H747 0.929 . S
C759 C753 1.390 . S
C759 C756 1.386 . S
C760 C755 1.490 . S
C760 C762 1.395 . S
C760 C763 1.403 1_554 S
H761 C767 0.930 . S
C762 H748 0.930 . S
C762 C760 1.395 . S
C762 C765 1.403 . S
C763 C760 1.403 1_556 S
C763 C764 1.524 . S
C763 C767 1.400 . S
C764 H749 0.960 . S
C764 H750 0.960 . S
C764 H751 0.960 . S
C764 C763 1.524 . S
C765 C762 1.403 . S
C765 C766 1.392 1_554 S
C765 C769 1.495 . S
C766 C765 1.392 1_556 S
C766 C767 1.385 . S
C766 C768 1.478 . S
C767 H761 0.930 . S
C767 C763 1.400 . S
C767 C766 1.385 . S
C768 C766 1.478 . S
C768 C770 1.381 . S
C768 C774 1.383 . S
C769 C765 1.495 . S
C769 H775 0.959 . S
C769 H776 0.961 . S
C769 H777 0.960 . S
C770 C768 1.381 . S
C770 C771 1.394 . S
C770 H778 0.930 . S
C771 C770 1.394 . S
C771 C772 1.383 . S
C771 H779 0.929 . S
C772 C771 1.383 . S
C772 C773 1.377 . S
C773 H757 0.930 . S
C773 C772 1.377 . S
C773 C774 1.379 . S
C774 H758 0.931 . S
C774 C768 1.383 . S
C774 C773 1.379 . S
H775 C769 0.959 . S
H776 C769 0.961 . S
H777 C769 0.960 . S
H778 C770 0.930 . S
H779 C771 0.929 . S
H780 C788 0.929 . S
H781 C790 0.930 . S
H782 C792 0.930 . S
H783 C795 0.929 . S
H784 C798 0.930 . S
H785 C800 0.960 . S
H786 C800 0.960 . S
H787 C800 0.960 1_565 S
C788 H780 0.929 . S
C788 C789 1.377 . S
C788 C790 1.384 . S
C789 C788 1.377 . S
C789 C795 1.390 . S
C790 H781 0.930 . S
C790 C788 1.384 . S
C790 C791 1.372 . S
C791 C790 1.372 . S
C791 C792 1.400 . S
C791 C796 1.490 . S
C792 H782 0.930 . S
C792 C791 1.400 . S
C792 C795 1.386 . S
H793 C809 0.930 . S
H794 C810 0.931 . S
C795 H783 0.929 . S
C795 C789 1.390 . S
C795 C792 1.386 . S
C796 C791 1.490 . S
C796 C798 1.395 . S
C796 C799 1.403 1_565 S
H797 C803 0.930 . S
C798 H784 0.930 . S
C798 C796 1.395 . S
C798 C801 1.403 . S
C799 C796 1.403 1_545 S
C799 C800 1.524 . S
C799 C803 1.400 . S
C800 H785 0.960 . S
C800 H786 0.960 . S
C800 H787 0.960 1_545 S
C800 C799 1.524 . S
C801 C798 1.403 . S
C801 C802 1.392 1_565 S
C801 C805 1.495 . S
C802 C801 1.392 1_545 S
C802 C803 1.385 . S
C802 C804 1.478 . S
C803 H797 0.930 . S
C803 C799 1.400 . S
C803 C802 1.385 . S
C804 C802 1.478 . S
C804 C806 1.381 . S
C804 C810 1.383 . S
C805 C801 1.495 . S
C805 H811 0.959 . S
C805 H812 0.961 . S
C805 H813 0.960 1_565 S
C806 C804 1.381 . S
C806 C807 1.394 . S
C806 H814 0.930 . S
C807 C806 1.394 . S
C807 C808 1.383 . S
C807 H815 0.929 . S
C808 C807 1.383 . S
C808 C809 1.377 . S
C809 H793 0.930 . S
C809 C808 1.377 . S
C809 C810 1.379 . S
C810 H794 0.931 . S
C810 C804 1.383 . S
C810 C809 1.379 . S
H811 C805 0.959 . S
H812 C805 0.961 . S
H813 C805 0.960 1_545 S
H814 C806 0.930 . S
H815 C807 0.929 . S
H816 C824 0.929 . S
H817 C826 0.930 . S
H818 C828 0.930 . S
H819 C831 0.929 . S
H820 C834 0.930 . S
H821 C836 0.960 . S
H822 C836 0.960 . S
H823 C836 0.960 . S
C824 H816 0.929 . S
C824 C825 1.377 . S
C824 C826 1.384 . S
C825 C824 1.377 . S
C825 C831 1.390 . S
C826 H817 0.930 . S
C826 C824 1.384 . S
C826 C827 1.372 . S
C827 C826 1.372 . S
C827 C828 1.400 . S
C827 C832 1.490 . S
C828 H818 0.930 . S
C828 C827 1.400 . S
C828 C831 1.386 . S
H829 C845 0.930 . S
H830 C846 0.931 . S
C831 H819 0.929 . S
C831 C825 1.390 . S
C831 C828 1.386 . S
C832 C827 1.490 . S
C832 C834 1.395 . S
C832 C835 1.403 . S
H833 C839 0.930 . S
C834 H820 0.930 . S
C834 C832 1.395 . S
C834 C837 1.403 . S
C835 C832 1.403 . S
C835 C836 1.524 . S
C835 C839 1.400 . S
C836 H821 0.960 . S
C836 H822 0.960 . S
C836 H823 0.960 . S
C836 C835 1.524 . S
C837 C834 1.403 . S
C837 C838 1.392 . S
C837 C841 1.495 . S
C838 C837 1.392 . S
C838 C839 1.385 . S
C838 C840 1.478 . S
C839 H833 0.930 . S
C839 C835 1.400 . S
C839 C838 1.385 . S
C840 C838 1.478 . S
C840 C842 1.381 . S
C840 C846 1.383 . S
C841 C837 1.495 . S
C841 H847 0.959 . S
C841 H848 0.961 . S
C841 H849 0.960 . S
C842 C840 1.381 . S
C842 C843 1.394 . S
C842 H850 0.930 . S
C843 C842 1.394 . S
C843 C844 1.383 . S
C843 H851 0.929 . S
C844 C843 1.383 . S
C844 C845 1.377 . S
C845 H829 0.930 . S
C845 C844 1.377 . S
C845 C846 1.379 . S
C846 H830 0.931 . S
C846 C840 1.383 . S
C846 C845 1.379 . S
H847 C841 0.959 . S
H848 C841 0.961 . S
H849 C841 0.960 . S
H850 C842 0.930 . S
H851 C843 0.929 . S
H852 C860 0.929 . S
H853 C862 0.930 . S
H854 C864 0.930 . S
H855 C867 0.929 . S
H856 C870 0.929 1_655 S
H857 C872 0.960 . S
H858 C872 0.960 . S
H859 C872 0.960 . S
C860 H852 0.929 . S
C860 C861 1.377 . S
C860 C862 1.384 . S
C861 C860 1.377 . S
C861 C867 1.390 . S
C862 H853 0.930 . S
C862 C860 1.384 . S
C862 C863 1.372 . S
C863 C862 1.372 . S
C863 C864 1.400 . S
C863 C868 1.490 . S
C864 H854 0.930 . S
C864 C863 1.400 . S
C864 C867 1.386 . S
H865 C881 0.930 . S
H866 C882 0.931 . S
C867 H855 0.929 . S
C867 C861 1.390 . S
C867 C864 1.386 . S
C868 C863 1.490 . S
C868 C870 1.376 1_655 S
C868 C871 1.403 1_565 S
H869 C875 0.930 . S
C870 H856 0.929 1_455 S
C870 C868 1.376 1_455 S
C870 C873 1.423 . S
C871 C868 1.403 1_545 S
C871 C872 1.524 . S
C871 C875 1.400 1_655 S
C872 H857 0.960 . S
C872 H858 0.960 . S
C872 H859 0.960 . S
C872 C871 1.524 . S
C873 C870 1.423 . S
C873 C874 1.392 1_565 S
C873 C877 1.495 . S
C874 C873 1.392 1_545 S
C874 C875 1.385 . S
C874 C876 1.478 . S
C875 H869 0.930 . S
C875 C871 1.400 1_455 S
C875 C874 1.385 . S
C876 C874 1.478 . S
C876 C878 1.381 . S
C876 C882 1.383 . S
C877 C873 1.495 . S
C877 H883 0.959 . S
C877 H884 0.961 . S
C877 H885 0.960 . S
C878 C876 1.381 . S
C878 C879 1.394 . S
C878 H886 0.930 . S
C879 C878 1.394 . S
C879 C880 1.383 . S
C879 H887 0.929 . S
C880 C879 1.383 . S
C880 C881 1.377 . S
C881 H865 0.930 . S
C881 C880 1.377 . S
C881 C882 1.379 . S
C882 H866 0.931 . S
C882 C876 1.383 . S
C882 C881 1.379 . S
H883 C877 0.959 . S
H884 C877 0.961 . S
H885 C877 0.960 . S
H886 C878 0.930 . S
H887 C879 0.929 . S
H888 C896 0.929 . S
H889 C898 0.930 . S
H890 C900 0.930 . S
H891 C903 0.929 . S
H892 C906 0.930 . S
H893 C908 0.960 . S
H894 C908 0.960 . S
H895 C908 0.960 . S
C896 H888 0.929 . S
C896 C897 1.377 . S
C896 C898 1.384 . S
C897 C896 1.377 . S
C897 C903 1.390 . S
C898 H889 0.930 . S
C898 C896 1.384 . S
C898 C899 1.372 . S
C899 C898 1.372 . S
C899 C900 1.400 . S
C899 C904 1.490 . S
C900 H890 0.930 . S
C900 C899 1.400 . S
C900 C903 1.386 . S
H901 C917 0.930 . S
H902 C918 0.931 . S
C903 H891 0.929 . S
C903 C897 1.390 . S
C903 C900 1.386 . S
C904 C899 1.490 . S
C904 C906 1.395 1_545 S
C904 C907 1.403 . S
H905 C911 0.930 . S
C906 H892 0.930 . S
C906 C904 1.395 1_565 S
C906 C909 1.403 . S
C907 C904 1.403 . S
C907 C908 1.524 . S
C907 C911 1.400 . S
C908 H893 0.960 . S
C908 H894 0.960 . S
C908 H895 0.960 . S
C908 C907 1.524 . S
C909 C906 1.403 . S
C909 C910 1.392 . S
C909 C913 1.495 . S
C910 C909 1.392 . S
C910 C911 1.385 1_565 S
C910 C912 1.478 . S
C911 H905 0.930 . S
C911 C907 1.400 . S
C911 C910 1.385 1_545 S
C912 C910 1.478 . S
C912 C914 1.381 . S
C912 C918 1.383 . S
C913 C909 1.495 . S
C913 H919 0.959 . S
C913 H920 0.961 . S
C913 H921 0.960 . S
C914 C912 1.381 . S
C914 C915 1.394 . S
C914 H922 0.930 . S
C915 C914 1.394 . S
C915 C916 1.383 . S
C915 H923 0.929 . S
C916 C915 1.383 . S
C916 C917 1.377 . S
C917 H901 0.930 . S
C917 C916 1.377 . S
C917 C918 1.379 . S
C918 H902 0.931 . S
C918 C912 1.383 . S
C918 C917 1.379 . S
H919 C913 0.959 . S
H920 C913 0.961 . S
H921 C913 0.960 . S
H922 C914 0.930 . S
H923 C915 0.929 . S
H924 C932 0.929 . S
H925 C934 0.930 . S
H926 C936 0.930 . S
H927 C939 0.929 . S
H928 C942 0.930 . S
H929 C944 0.960 . S
H930 C944 0.960 . S
H931 C944 0.960 . S
C932 H924 0.929 . S
C932 C933 1.377 . S
C932 C934 1.384 . S
C933 C932 1.377 . S
C933 C939 1.390 . S
C934 H925 0.930 . S
C934 C932 1.384 . S
C934 C935 1.372 . S
C935 C934 1.372 . S
C935 C936 1.400 . S
C935 C940 1.490 . S
C936 H926 0.930 . S
C936 C935 1.400 . S
C936 C939 1.386 . S
H937 C953 0.930 . S
H938 C954 0.931 . S
C939 H927 0.929 . S
C939 C933 1.390 . S
C939 C936 1.386 . S
C940 C935 1.490 . S
C940 C942 1.395 . S
C940 C943 1.403 . S
H941 C947 0.930 . S
C942 H928 0.930 . S
C942 C940 1.395 . S
C942 C945 1.403 . S
C943 C940 1.403 . S
C943 C944 1.524 . S
C943 C947 1.400 . S
C944 H929 0.960 . S
C944 H930 0.960 . S
C944 H931 0.960 . S
C944 C943 1.524 . S
C945 C942 1.403 . S
C945 C946 1.392 . S
C945 C949 1.495 . S
C946 C945 1.392 . S
C946 C947 1.385 . S
C946 C948 1.478 . S
C947 H941 0.930 . S
C947 C943 1.400 . S
C947 C946 1.385 . S
C948 C946 1.478 . S
C948 C950 1.381 . S
C948 C954 1.383 . S
C949 C945 1.495 . S
C949 H955 0.959 . S
C949 H956 0.961 . S
C949 H957 0.960 . S
C950 C948 1.381 . S
C950 C951 1.394 . S
C950 H958 0.930 . S
C951 C950 1.394 . S
C951 C952 1.383 . S
C951 H959 0.929 . S
C952 C951 1.383 . S
C952 C953 1.377 . S
C953 H937 0.930 . S
C953 C952 1.377 . S
C953 C954 1.379 . S
C954 H938 0.931 . S
C954 C948 1.383 . S
C954 C953 1.379 . S
H955 C949 0.959 . S
H956 C949 0.961 . S
H957 C949 0.960 . S
H958 C950 0.930 . S
H959 C951 0.929 . S
H960 C968 0.929 . S
H961 C970 0.930 . S
H962 C972 0.930 . S
H963 C975 0.929 . S
H964 C978 0.930 . S
H965 C980 0.960 . S
H966 C980 0.960 . S
H967 C980 0.960 . S
C968 H960 0.929 . S
C968 C969 1.377 . S
C968 C970 1.384 . S
C969 C968 1.377 . S
C969 C975 1.390 . S
C970 H961 0.930 . S
C970 C968 1.384 . S
C970 C971 1.372 . S
C971 C970 1.372 . S
C971 C972 1.400 . S
C971 C976 1.490 . S
C972 H962 0.930 . S
C972 C971 1.400 . S
C972 C975 1.386 . S
H973 C989 0.930 . S
H974 C990 0.931 . S
C975 H963 0.929 . S
C975 C969 1.390 . S
C975 C972 1.386 . S
C976 C971 1.490 . S
C976 C978 1.395 . S
C976 C979 1.403 . S
H977 C983 0.930 . S
C978 H964 0.930 . S
C978 C976 1.395 . S
C978 C981 1.403 . S
C979 C976 1.403 . S
C979 C980 1.524 . S
C979 C983 1.400 . S
C980 H965 0.960 . S
C980 H966 0.960 . S
C980 H967 0.960 . S
C980 C979 1.524 . S
C981 C978 1.403 . S
C981 C982 1.392 . S
C981 C985 1.495 . S
C982 C981 1.392 . S
C982 C983 1.385 . S
C982 C984 1.478 . S
C983 H977 0.930 . S
C983 C979 1.400 . S
C983 C982 1.385 . S
C984 C982 1.478 . S
C984 C986 1.381 . S
C984 C990 1.383 . S
C985 C981 1.495 . S
C985 H991 0.959 . S
C985 H992 0.961 . S
C985 H993 0.960 . S
C986 C984 1.381 . S
C986 C987 1.394 . S
C986 H994 0.930 . S
C987 C986 1.394 . S
C987 C988 1.383 . S
C987 H995 0.929 . S
C988 C987 1.383 . S
C988 C989 1.377 . S
C989 H973 0.930 . S
C989 C988 1.377 . S
C989 C990 1.379 . S
C990 H974 0.931 . S
C990 C984 1.383 . S
C990 C989 1.379 . S
H991 C985 0.959 . S
H992 C985 0.961 . S
H993 C985 0.960 . S
H994 C986 0.930 . S
H995 C987 0.929 . S
H996 C1004 0.929 . S
H997 C1006 0.930 . S
H998 C1008 0.930 . S
H999 C1011 0.929 . S
H1000 C1014 0.930 . S
H1001 C1016 0.960 . S
H1002 C1016 0.960 . S
H1003 C1016 0.960 . S
C1004 H996 0.929 . S
C1004 C1005 1.377 . S
C1004 C1006 1.384 . S
C1005 C1004 1.377 . S
C1005 C1011 1.390 . S
C1006 H997 0.930 . S
C1006 C1004 1.384 . S
C1006 C1007 1.372 . S
C1007 C1006 1.372 . S
C1007 C1008 1.400 . S
C1007 C1012 1.490 . S
C1008 H998 0.930 . S
C1008 C1007 1.400 . S
C1008 C1011 1.386 . S
H1009 C1025 0.930 . S
H1010 C1026 0.931 . S
C1011 H999 0.929 . S
C1011 C1005 1.390 . S
C1011 C1008 1.386 . S
C1012 C1007 1.490 . S
C1012 C1014 1.395 . S
C1012 C1015 1.403 . S
H1013 C1019 0.930 . S
C1014 H1000 0.930 . S
C1014 C1012 1.395 . S
C1014 C1017 1.403 . S
C1015 C1012 1.403 . S
C1015 C1016 1.524 . S
C1015 C1019 1.400 . S
C1016 H1001 0.960 . S
C1016 H1002 0.960 . S
C1016 H1003 0.960 . S
C1016 C1015 1.524 . S
C1017 C1014 1.403 . S
C1017 C1018 1.392 . S
C1017 C1021 1.495 . S
C1018 C1017 1.392 . S
C1018 C1019 1.385 . S
C1018 C1020 1.478 . S
C1019 H1013 0.930 . S
C1019 C1015 1.400 . S
C1019 C1018 1.385 . S
C1020 C1018 1.478 . S
C1020 C1022 1.381 . S
C1020 C1026 1.383 . S
C1021 C1017 1.495 . S
C1021 H1027 0.959 . S
C1021 H1028 0.961 . S
C1021 H1029 0.960 . S
C1022 C1020 1.381 . S
C1022 C1023 1.394 . S
C1022 H1030 0.930 . S
C1023 C1022 1.394 . S
C1023 C1024 1.383 . S
C1023 H1031 0.929 . S
C1024 C1023 1.383 . S
C1024 C1025 1.377 . S
C1025 H1009 0.930 . S
C1025 C1024 1.377 . S
C1025 C1026 1.379 . S
C1026 H1010 0.931 . S
C1026 C1020 1.383 . S
C1026 C1025 1.379 . S
H1027 C1021 0.959 . S
H1028 C1021 0.961 . S
H1029 C1021 0.960 . S
H1030 C1022 0.930 . S
H1031 C1023 0.929 . S
H1032 C1040 0.929 . S
H1033 C1042 0.930 . S
H1034 C1044 0.930 . S
H1035 C1047 0.929 . S
H1036 C1050 0.930 . S
H1037 C1052 0.960 . S
H1038 C1052 0.960 . S
H1039 C1052 0.960 . S
C1040 H1032 0.929 . S
C1040 C1041 1.377 . S
C1040 C1042 1.384 . S
C1041 C1040 1.377 . S
C1041 C1047 1.390 . S
C1042 H1033 0.930 . S
C1042 C1040 1.384 . S
C1042 C1043 1.372 . S
C1043 C1042 1.372 . S
C1043 C1044 1.400 . S
C1043 C1048 1.490 . S
C1044 H1034 0.930 . S
C1044 C1043 1.400 . S
C1044 C1047 1.386 . S
H1045 C1061 0.930 . S
H1046 C1062 0.931 . S
C1047 H1035 0.929 . S
C1047 C1041 1.390 . S
C1047 C1044 1.386 . S
C1048 C1043 1.490 . S
C1048 C1050 1.395 . S
C1048 C1051 1.403 . S
H1049 C1055 0.930 . S
C1050 H1036 0.930 . S
C1050 C1048 1.395 . S
C1050 C1053 1.403 . S
C1051 C1048 1.403 . S
C1051 C1052 1.524 . S
C1051 C1055 1.400 . S
C1052 H1037 0.960 . S
C1052 H1038 0.960 . S
C1052 H1039 0.960 . S
C1052 C1051 1.524 . S
C1053 C1050 1.403 . S
C1053 C1054 1.392 . S
C1053 C1057 1.495 . S
C1054 C1053 1.392 . S
C1054 C1055 1.385 . S
C1054 C1056 1.478 . S
C1055 H1049 0.930 . S
C1055 C1051 1.400 . S
C1055 C1054 1.385 . S
C1056 C1054 1.478 . S
C1056 C1058 1.381 . S
C1056 C1062 1.383 . S
C1057 C1053 1.495 . S
C1057 H1063 0.959 . S
C1057 H1064 0.961 . S
C1057 H1065 0.960 . S
C1058 C1056 1.381 . S
C1058 C1059 1.394 . S
C1058 H1066 0.930 . S
C1059 C1058 1.394 . S
C1059 C1060 1.383 . S
C1059 H1067 0.929 . S
C1060 C1059 1.383 . S
C1060 C1061 1.377 . S
C1061 H1045 0.930 . S
C1061 C1060 1.377 . S
C1061 C1062 1.379 . S
C1062 H1046 0.931 . S
C1062 C1056 1.383 . S
C1062 C1061 1.379 . S
H1063 C1057 0.959 . S
H1064 C1057 0.961 . S
H1065 C1057 0.960 . S
H1066 C1058 0.930 . S
H1067 C1059 0.929 . S
H1068 C1076 0.929 . S
H1069 C1078 0.930 1_554 S
H1070 C1080 0.959 . S
H1071 C1083 0.929 . S
H1072 C1086 0.930 . S
H1073 C1088 0.960 . S
H1074 C1088 0.960 . S
H1075 C1088 0.960 . S
C1076 H1068 0.929 . S
C1076 C1077 1.377 . S
C1076 C1078 1.384 . S
C1077 C1076 1.377 . S
C1077 C1083 1.390 . S
C1078 H1069 0.930 1_556 S
C1078 C1076 1.384 . S
C1078 C1079 1.372 . S
C1079 C1078 1.372 . S
C1079 C1080 1.400 . S
C1079 C1084 1.490 . S
C1080 H1070 0.959 . S
C1080 C1079 1.400 . S
C1080 C1083 1.386 . S
H1081 C1097 0.930 . S
H1082 C1098 0.931 1_556 S
C1083 H1071 0.929 . S
C1083 C1077 1.390 . S
C1083 C1080 1.386 . S
C1084 C1079 1.490 . S
C1084 C1086 1.395 . S
C1084 C1087 1.403 1_566 S
H1085 C1091 0.930 . S
C1086 H1072 0.930 . S
C1086 C1084 1.395 . S
C1086 C1089 1.403 . S
C1087 C1084 1.403 1_544 S
C1087 C1088 1.524 . S
C1087 C1091 1.400 . S
C1088 H1073 0.960 . S
C1088 H1074 0.960 . S
C1088 H1075 0.960 . S
C1088 C1087 1.524 . S
C1089 C1086 1.403 . S
C1089 C1090 1.392 1_566 S
C1089 C1093 1.495 . S
C1090 C1089 1.392 1_544 S
C1090 C1091 1.385 . S
C1090 C1092 1.478 . S
C1091 H1085 0.930 . S
C1091 C1087 1.400 . S
C1091 C1090 1.385 . S
C1092 C1090 1.478 . S
C1092 C1094 1.381 . S
C1092 C1098 1.383 . S
C1093 C1089 1.495 . S
C1093 H1099 0.959 . S
C1093 H1100 0.961 . S
C1093 H1101 0.960 . S
C1094 C1092 1.381 . S
C1094 C1095 1.394 . S
C1094 H1102 0.913 1_545 S
C1095 C1094 1.394 . S
C1095 C1096 1.383 . S
C1095 H1103 0.929 . S
C1096 C1095 1.383 . S
C1096 C1097 1.377 . S
C1097 H1081 0.930 . S
C1097 C1096 1.377 . S
C1097 C1098 1.379 . S
C1098 H1082 0.931 1_554 S
C1098 C1092 1.383 . S
C1098 C1097 1.379 . S
H1099 C1093 0.959 . S
H1100 C1093 0.961 . S
H1101 C1093 0.960 . S
H1102 C1094 0.913 1_565 S
H1103 C1095 0.929 . S
H1104 C1112 0.929 . S
H1105 C1114 0.930 . S
H1106 C1116 0.930 . S
H1107 C1119 0.929 . S
H1108 C1122 0.930 . S
H1109 C1124 0.960 . S
H1110 C1124 0.960 . S
H1111 C1124 0.960 . S
C1112 H1104 0.929 . S
C1112 C1113 1.377 . S
C1112 C1114 1.384 . S
C1113 C1112 1.377 . S
C1113 C1119 1.390 . S
C1114 H1105 0.930 . S
C1114 C1112 1.384 . S
C1114 C1115 1.372 . S
C1115 C1114 1.372 . S
C1115 C1116 1.400 . S
C1115 C1120 1.490 . S
C1116 H1106 0.930 . S
C1116 C1115 1.400 . S
C1116 C1119 1.386 . S
H1117 C1133 0.930 . S
H1118 C1134 0.931 . S
C1119 H1107 0.929 . S
C1119 C1113 1.390 . S
C1119 C1116 1.386 . S
C1120 C1115 1.490 . S
C1120 C1122 1.395 . S
C1120 C1123 1.403 . S
H1121 C1127 0.930 . S
C1122 H1108 0.930 . S
C1122 C1120 1.395 . S
C1122 C1125 1.403 . S
C1123 C1120 1.403 . S
C1123 C1124 1.524 . S
C1123 C1127 1.400 . S
C1124 H1109 0.960 . S
C1124 H1110 0.960 . S
C1124 H1111 0.960 . S
C1124 C1123 1.524 . S
C1125 C1122 1.403 . S
C1125 C1126 1.392 . S
C1125 C1129 1.495 . S
C1126 C1125 1.392 . S
C1126 C1127 1.385 . S
C1126 C1128 1.478 . S
C1127 H1121 0.930 . S
C1127 C1123 1.400 . S
C1127 C1126 1.385 . S
C1128 C1126 1.478 . S
C1128 C1130 1.381 . S
C1128 C1134 1.383 . S
C1129 C1125 1.495 . S
C1129 H1135 0.959 . S
C1129 H1136 0.961 . S
C1129 H1137 0.960 . S
C1130 C1128 1.381 . S
C1130 C1131 1.394 . S
C1130 H1138 0.930 . S
C1131 C1130 1.394 . S
C1131 C1132 1.383 . S
C1131 H1139 0.929 . S
C1132 C1131 1.383 . S
C1132 C1133 1.377 . S
C1133 H1117 0.930 . S
C1133 C1132 1.377 . S
C1133 C1134 1.379 . S
C1134 H1118 0.931 . S
C1134 C1128 1.383 . S
C1134 C1133 1.379 . S
H1135 C1129 0.959 . S
H1136 C1129 0.961 . S
H1137 C1129 0.960 . S
H1138 C1130 0.930 . S
H1139 C1131 0.929 . S
H1140 C1148 0.929 . S
H1141 C1150 0.930 . S
H1142 C1152 0.930 . S
H1143 C1155 0.929 . S
H1144 C1158 0.930 . S
H1145 C1160 0.960 . S
H1146 C1160 0.960 . S
H1147 C1160 0.960 . S
C1148 H1140 0.929 . S
C1148 C1149 1.377 . S
C1148 C1150 1.384 . S
C1149 C1148 1.377 . S
C1149 C1155 1.390 . S
C1150 H1141 0.930 . S
C1150 C1148 1.384 . S
C1150 C1151 1.372 . S
C1151 C1150 1.372 . S
C1151 C1152 1.400 . S
C1151 C1156 1.490 . S
C1152 H1142 0.930 . S
C1152 C1151 1.400 . S
C1152 C1155 1.386 . S
H1153 C1169 0.930 . S
H1154 C1170 0.931 . S
C1155 H1143 0.929 . S
C1155 C1149 1.390 . S
C1155 C1152 1.386 . S
C1156 C1151 1.490 . S
C1156 C1158 1.395 . S
C1156 C1159 1.403 . S
H1157 C1163 0.930 . S
C1158 H1144 0.930 . S
C1158 C1156 1.395 . S
C1158 C1161 1.403 . S
C1159 C1156 1.403 . S
C1159 C1160 1.524 . S
C1159 C1163 1.400 . S
C1160 H1145 0.960 . S
C1160 H1146 0.960 . S
C1160 H1147 0.960 . S
C1160 C1159 1.524 . S
C1161 C1158 1.403 . S
C1161 C1162 1.392 . S
C1161 C1165 1.495 . S
C1162 C1161 1.392 . S
C1162 C1163 1.385 . S
C1162 C1164 1.478 . S
C1163 H1157 0.930 . S
C1163 C1159 1.400 . S
C1163 C1162 1.385 . S
C1164 C1162 1.478 . S
C1164 C1166 1.381 . S
C1164 C1170 1.383 . S
C1165 C1161 1.495 . S
C1165 H1171 0.959 . S
C1165 H1172 0.961 . S
C1165 H1173 0.960 . S
C1166 C1164 1.381 . S
C1166 C1167 1.394 . S
C1166 H1174 0.930 . S
C1167 C1166 1.394 . S
C1167 C1168 1.383 . S
C1167 H1175 0.929 . S
C1168 C1167 1.383 . S
C1168 C1169 1.377 . S
C1169 H1153 0.930 . S
C1169 C1168 1.377 . S
C1169 C1170 1.379 . S
C1170 H1154 0.931 . S
C1170 C1164 1.383 . S
C1170 C1169 1.379 . S
H1171 C1165 0.959 . S
H1172 C1165 0.961 . S
H1173 C1165 0.960 . S
H1174 C1166 0.930 . S
H1175 C1167 0.929 . S
H1176 C1184 0.929 . S
H1177 C1186 0.930 . S
H1178 C1188 0.930 . S
H1179 C1191 0.929 . S
H1180 C1194 0.930 . S
H1181 C1196 0.960 . S
H1182 C1196 0.960 . S
H1183 C1196 0.960 . S
C1184 H1176 0.929 . S
C1184 C1185 1.377 . S
C1184 C1186 1.384 . S
C1185 C1184 1.377 . S
C1185 C1191 1.390 . S
C1186 H1177 0.930 . S
C1186 C1184 1.384 . S
C1186 C1187 1.372 . S
C1187 C1186 1.372 . S
C1187 C1188 1.400 . S
C1187 C1192 1.490 . S
C1188 H1178 0.930 . S
C1188 C1187 1.400 . S
C1188 C1191 1.386 . S
H1189 C1205 0.930 . S
H1190 C1206 0.931 . S
C1191 H1179 0.929 . S
C1191 C1185 1.390 . S
C1191 C1188 1.386 . S
C1192 C1187 1.490 . S
C1192 C1194 1.395 . S
C1192 C1195 1.403 . S
H1193 C1199 0.930 . S
C1194 H1180 0.930 . S
C1194 C1192 1.395 . S
C1194 C1197 1.403 . S
C1195 C1192 1.403 . S
C1195 C1196 1.524 . S
C1195 C1199 1.400 . S
C1196 H1181 0.960 . S
C1196 H1182 0.960 . S
C1196 H1183 0.960 . S
C1196 C1195 1.524 . S
C1197 C1194 1.403 . S
C1197 C1198 1.392 . S
C1197 C1201 1.495 . S
C1198 C1197 1.392 . S
C1198 C1199 1.385 . S
C1198 C1200 1.478 . S
C1199 H1193 0.930 . S
C1199 C1195 1.400 . S
C1199 C1198 1.385 . S
C1200 C1198 1.478 . S
C1200 C1202 1.381 . S
C1200 C1206 1.383 . S
C1201 C1197 1.495 . S
C1201 H1207 0.959 . S
C1201 H1208 0.961 . S
C1201 H1209 0.960 . S
C1202 C1200 1.381 . S
C1202 C1203 1.394 . S
C1202 H1210 0.930 . S
C1203 C1202 1.394 . S
C1203 C1204 1.383 . S
C1203 H1211 0.929 . S
C1204 C1203 1.383 . S
C1204 C1205 1.377 . S
C1205 H1189 0.930 . S
C1205 C1204 1.377 . S
C1205 C1206 1.379 . S
C1206 H1190 0.931 . S
C1206 C1200 1.383 . S
C1206 C1205 1.379 . S
H1207 C1201 0.959 . S
H1208 C1201 0.961 . S
H1209 C1201 0.960 . S
H1210 C1202 0.930 . S
H1211 C1203 0.929 . S
H1212 C1220 0.929 . S
H1213 C1222 0.930 . S
H1214 C1224 0.930 . S
H1215 C1227 0.929 . S
H1216 C1230 0.930 . S
H1217 C1232 0.960 . S
H1218 C1232 0.960 . S
H1219 C1232 0.960 . S
C1220 H1212 0.929 . S
C1220 C1221 1.377 . S
C1220 C1222 1.384 . S
C1221 C1220 1.377 . S
C1221 C1227 1.390 . S
C1222 H1213 0.930 . S
C1222 C1220 1.384 . S
C1222 C1223 1.372 . S
C1223 C1222 1.372 . S
C1223 C1224 1.400 . S
C1223 C1228 1.490 . S
C1224 H1214 0.930 . S
C1224 C1223 1.400 . S
C1224 C1227 1.386 . S
H1225 C1241 0.930 . S
H1226 C1242 0.931 . S
C1227 H1215 0.929 . S
C1227 C1221 1.390 . S
C1227 C1224 1.386 . S
C1228 C1223 1.490 . S
C1228 C1230 1.395 . S
C1228 C1231 1.403 . S
H1229 C1235 0.930 . S
C1230 H1216 0.930 . S
C1230 C1228 1.395 . S
C1230 C1233 1.403 . S
C1231 C1228 1.403 . S
C1231 C1232 1.524 . S
C1231 C1235 1.400 . S
C1232 H1217 0.960 . S
C1232 H1218 0.960 . S
C1232 H1219 0.960 . S
C1232 C1231 1.524 . S
C1233 C1230 1.403 . S
C1233 C1234 1.392 . S
C1233 C1237 1.495 . S
C1234 C1233 1.392 . S
C1234 C1235 1.385 . S
C1234 C1236 1.478 . S
C1235 H1229 0.930 . S
C1235 C1231 1.400 . S
C1235 C1234 1.385 . S
C1236 C1234 1.478 . S
C1236 C1238 1.381 . S
C1236 C1242 1.383 . S
C1237 C1233 1.495 . S
C1237 H1243 0.959 . S
C1237 H1244 0.961 . S
C1237 H1245 0.960 . S
C1238 C1236 1.381 . S
C1238 C1239 1.394 . S
C1238 H1246 0.930 . S
C1239 C1238 1.394 . S
C1239 C1240 1.383 . S
C1239 H1247 0.929 . S
C1240 C1239 1.383 . S
C1240 C1241 1.377 . S
C1241 H1225 0.930 . S
C1241 C1240 1.377 . S
C1241 C1242 1.379 . S
C1242 H1226 0.931 . S
C1242 C1236 1.383 . S
C1242 C1241 1.379 . S
H1243 C1237 0.959 . S
H1244 C1237 0.961 . S
H1245 C1237 0.960 . S
H1246 C1238 0.930 . S
H1247 C1239 0.929 . S
H1248 C1256 0.929 . S
H1249 C1258 0.930 . S
H1250 C1260 0.930 . S
H1251 C1263 0.929 . S
H1252 C1266 0.930 . S
H1253 C1268 0.960 . S
H1254 C1268 0.960 . S
H1255 C1268 0.960 . S
C1256 H1248 0.929 . S
C1256 C1257 1.377 . S
C1256 C1258 1.384 . S
C1257 C1256 1.377 . S
C1257 C1263 1.390 . S
C1258 H1249 0.930 . S
C1258 C1256 1.384 . S
C1258 C1259 1.372 . S
C1259 C1258 1.372 . S
C1259 C1260 1.400 . S
C1259 C1264 1.490 . S
C1260 H1250 0.930 . S
C1260 C1259 1.400 . S
C1260 C1263 1.386 . S
H1261 C1277 0.930 . S
H1262 C1278 0.931 . S
C1263 H1251 0.929 . S
C1263 C1257 1.390 . S
C1263 C1260 1.386 . S
C1264 C1259 1.490 . S
C1264 C1266 1.395 . S
C1264 C1267 1.403 . S
H1265 C1271 0.930 . S
C1266 H1252 0.930 . S
C1266 C1264 1.395 . S
C1266 C1269 1.403 . S
C1267 C1264 1.403 . S
C1267 C1268 1.524 . S
C1267 C1271 1.400 . S
C1268 H1253 0.960 . S
C1268 H1254 0.960 . S
C1268 H1255 0.960 . S
C1268 C1267 1.524 . S
C1269 C1266 1.403 . S
C1269 C1270 1.392 . S
C1269 C1273 1.495 . S
C1270 C1269 1.392 . S
C1270 C1271 1.385 . S
C1270 C1272 1.478 1_554 S
C1271 H1265 0.930 . S
C1271 C1267 1.400 . S
C1271 C1270 1.385 . S
C1272 C1270 1.478 1_556 S
C1272 C1274 1.381 . S
C1272 C1278 1.383 . S
C1273 C1269 1.495 . S
C1273 H1279 0.959 . S
C1273 H1280 0.961 . S
C1273 H1281 0.960 . S
C1274 C1272 1.381 . S
C1274 C1275 1.394 . S
C1274 H1282 0.930 . S
C1275 C1274 1.394 . S
C1275 C1276 1.383 . S
C1275 H1283 0.929 . S
C1276 C1275 1.383 . S
C1276 C1277 1.377 . S
C1277 H1261 0.930 . S
C1277 C1276 1.377 . S
C1277 C1278 1.379 . S
C1278 H1262 0.931 . S
C1278 C1272 1.383 . S
C1278 C1277 1.379 . S
H1279 C1273 0.959 . S
H1280 C1273 0.961 . S
H1281 C1273 0.960 . S
H1282 C1274 0.930 . S
H1283 C1275 0.929 . S
H1284 C1292 0.929 . S
H1285 C1294 0.930 . S
H1286 C1296 0.930 . S
H1287 C1299 0.929 . S
H1288 C1302 0.930 . S
H1289 C1304 0.960 . S
H1290 C1304 0.960 . S
H1291 C1304 0.960 . S
C1292 H1284 0.929 . S
C1292 C1293 1.377 . S
C1292 C1294 1.384 . S
C1293 C1292 1.377 . S
C1293 C1299 1.390 . S
C1294 H1285 0.930 . S
C1294 C1292 1.384 . S
C1294 C1295 1.372 . S
C1295 C1294 1.372 . S
C1295 C1296 1.400 . S
C1295 C1300 1.490 . S
C1296 H1286 0.930 . S
C1296 C1295 1.400 . S
C1296 C1299 1.386 . S
H1297 C1313 0.930 . S
H1298 C1314 0.931 . S
C1299 H1287 0.929 . S
C1299 C1293 1.390 . S
C1299 C1296 1.386 . S
C1300 C1295 1.490 . S
C1300 C1302 1.395 . S
C1300 C1303 1.403 . S
H1301 C1307 0.930 . S
C1302 H1288 0.930 . S
C1302 C1300 1.395 . S
C1302 C1305 1.403 . S
C1303 C1300 1.403 . S
C1303 C1304 1.524 . S
C1303 C1307 1.400 . S
C1304 H1289 0.960 . S
C1304 H1290 0.960 . S
C1304 H1291 0.960 . S
C1304 C1303 1.524 . S
C1305 C1302 1.403 . S
C1305 C1306 1.392 . S
C1305 C1309 1.495 . S
C1306 C1305 1.392 . S
C1306 C1307 1.385 . S
C1306 C1308 1.478 . S
C1307 H1301 0.930 . S
C1307 C1303 1.400 . S
C1307 C1306 1.385 . S
C1308 C1306 1.478 . S
C1308 C1310 1.381 1_554 S
C1308 C1314 1.383 1_554 S
C1309 C1305 1.495 . S
C1309 H1315 0.959 . S
C1309 H1316 0.961 . S
C1309 H1317 0.960 . S
C1310 C1308 1.381 1_556 S
C1310 C1311 1.394 . S
C1310 H1318 0.930 . S
C1311 C1310 1.394 . S
C1311 C1312 1.383 . S
C1311 H1319 0.929 . S
C1312 C1311 1.383 . S
C1312 C1313 1.377 . S
C1313 H1297 0.930 . S
C1313 C1312 1.377 . S
C1313 C1314 1.379 . S
C1314 H1298 0.931 . S
C1314 C1308 1.383 1_556 S
C1314 C1313 1.379 . S
H1315 C1309 0.959 . S
H1316 C1309 0.961 . S
H1317 C1309 0.960 . S
H1318 C1310 0.930 . S
H1319 C1311 0.929 . S
H1320 C1328 0.929 . S
H1321 C1330 0.930 . S
H1322 C1332 0.930 . S
H1323 C1335 0.929 . S
H1324 C1338 0.930 . S
H1325 C1340 0.960 . S
H1326 C1340 0.960 . S
H1327 C1340 0.960 . S
C1328 H1320 0.929 . S
C1328 C1329 1.377 . S
C1328 C1330 1.384 . S
C1329 C1328 1.377 . S
C1329 C1335 1.390 . S
C1330 H1321 0.930 . S
C1330 C1328 1.384 . S
C1330 C1331 1.372 . S
C1331 C1330 1.372 . S
C1331 C1332 1.400 . S
C1331 C1336 1.490 1_554 S
C1332 H1322 0.930 . S
C1332 C1331 1.400 . S
C1332 C1335 1.386 . S
H1333 C1349 0.930 . S
H1334 C1350 0.931 . S
C1335 H1323 0.929 . S
C1335 C1329 1.390 . S
C1335 C1332 1.386 . S
C1336 C1331 1.490 1_556 S
C1336 C1338 1.395 . S
C1336 C1339 1.403 . S
H1337 C1343 0.930 . S
C1338 H1324 0.930 . S
C1338 C1336 1.395 . S
C1338 C1341 1.403 . S
C1339 C1336 1.403 . S
C1339 C1340 1.524 . S
C1339 C1343 1.400 . S
C1340 H1325 0.960 . S
C1340 H1326 0.960 . S
C1340 H1327 0.960 . S
C1340 C1339 1.524 . S
C1341 C1338 1.403 . S
C1341 C1342 1.392 . S
C1341 C1345 1.495 . S
C1342 C1341 1.392 . S
C1342 C1343 1.385 . S
C1342 C1344 1.478 . S
C1343 H1337 0.930 . S
C1343 C1339 1.400 . S
C1343 C1342 1.385 . S
C1344 C1342 1.478 . S
C1344 C1346 1.381 . S
C1344 C1350 1.383 . S
C1345 C1341 1.495 . S
C1345 H1351 0.959 . S
C1345 H1352 0.961 . S
C1345 H1353 0.960 . S
C1346 C1344 1.381 . S
C1346 C1347 1.394 . S
C1346 H1354 0.930 . S
C1347 C1346 1.394 . S
C1347 C1348 1.383 . S
C1347 H1355 0.929 . S
C1348 C1347 1.383 . S
C1348 C1349 1.377 . S
C1349 H1333 0.930 . S
C1349 C1348 1.377 . S
C1349 C1350 1.379 . S
C1350 H1334 0.931 . S
C1350 C1344 1.383 . S
C1350 C1349 1.379 . S
H1351 C1345 0.959 . S
H1352 C1345 0.961 . S
H1353 C1345 0.960 . S
H1354 C1346 0.930 . S
H1355 C1347 0.929 . S
H1356 C1364 0.929 . S
H1357 C1366 0.930 . S
H1358 C1368 0.930 . S
H1359 C1371 0.929 . S
H1360 C1374 0.930 . S
H1361 C1376 0.960 . S
H1362 C1376 0.960 . S
H1363 C1376 0.960 . S
C1364 H1356 0.929 . S
C1364 C1365 1.377 . S
C1364 C1366 1.384 . S
C1365 C1364 1.377 . S
C1365 C1371 1.390 . S
C1366 H1357 0.930 . S
C1366 C1364 1.384 . S
C1366 C1367 1.372 1_554 S
C1367 C1366 1.372 1_556 S
C1367 C1368 1.400 1_556 S
C1367 C1372 1.490 . S
C1368 H1358 0.930 . S
C1368 C1367 1.400 1_554 S
C1368 C1371 1.386 . S
H1369 C1385 0.930 . S
H1370 C1386 0.931 . S
C1371 H1359 0.929 . S
C1371 C1365 1.390 . S
C1371 C1368 1.386 . S
C1372 C1367 1.490 . S
C1372 C1374 1.395 . S
C1372 C1375 1.403 . S
H1373 C1379 0.930 . S
C1374 H1360 0.930 . S
C1374 C1372 1.395 . S
C1374 C1377 1.403 . S
C1375 C1372 1.403 . S
C1375 C1376 1.524 . S
C1375 C1379 1.400 . S
C1376 H1361 0.960 . S
C1376 H1362 0.960 . S
C1376 H1363 0.960 . S
C1376 C1375 1.524 . S
C1377 C1374 1.403 . S
C1377 C1378 1.392 . S
C1377 C1381 1.495 . S
C1378 C1377 1.392 . S
C1378 C1379 1.385 . S
C1378 C1380 1.478 . S
C1379 H1373 0.930 . S
C1379 C1375 1.400 . S
C1379 C1378 1.385 . S
C1380 C1378 1.478 . S
C1380 C1382 1.381 . S
C1380 C1386 1.383 . S
C1381 C1377 1.495 . S
C1381 H1387 0.959 . S
C1381 H1388 0.961 . S
C1381 H1389 0.960 . S
C1382 C1380 1.381 . S
C1382 C1383 1.394 . S
C1382 H1390 0.930 . S
C1383 C1382 1.394 . S
C1383 C1384 1.383 . S
C1383 H1391 0.929 . S
C1384 C1383 1.383 . S
C1384 C1385 1.377 . S
C1385 H1369 0.930 . S
C1385 C1384 1.377 . S
C1385 C1386 1.379 . S
C1386 H1370 0.931 . S
C1386 C1380 1.383 . S
C1386 C1385 1.379 . S
H1387 C1381 0.959 . S
H1388 C1381 0.961 . S
H1389 C1381 0.960 . S
H1390 C1382 0.930 . S
H1391 C1383 0.929 . S
H1392 C1400 0.929 . S
H1393 C1402 0.930 . S
H1394 C1404 0.930 . S
H1395 C1407 0.929 . S
H1396 C1410 0.930 . S
H1397 C1412 0.960 . S
H1398 C1412 0.960 . S
H1399 C1412 0.960 . S
C1400 H1392 0.929 . S
C1400 C1401 1.377 . S
C1400 C1402 1.384 . S
C1401 C1400 1.377 . S
C1401 C1407 1.390 . S
C1402 H1393 0.930 . S
C1402 C1400 1.384 . S
C1402 C1403 1.372 . S
C1403 C1402 1.372 . S
C1403 C1404 1.400 . S
C1403 C1408 1.490 1_556 S
C1404 H1394 0.930 . S
C1404 C1403 1.400 . S
C1404 C1407 1.386 . S
H1405 C1421 0.930 . S
H1406 C1422 0.931 . S
C1407 H1395 0.929 . S
C1407 C1401 1.390 . S
C1407 C1404 1.386 . S
C1408 C1403 1.490 1_554 S
C1408 C1410 1.395 . S
C1408 C1411 1.403 . S
H1409 C1415 0.930 . S
C1410 H1396 0.930 . S
C1410 C1408 1.395 . S
C1410 C1413 1.403 . S
C1411 C1408 1.403 . S
C1411 C1412 1.524 . S
C1411 C1415 1.400 . S
C1412 H1397 0.960 . S
C1412 H1398 0.960 . S
C1412 H1399 0.960 . S
C1412 C1411 1.524 . S
C1413 C1410 1.403 . S
C1413 C1414 1.392 . S
C1413 C1417 1.495 . S
C1414 C1413 1.392 . S
C1414 C1415 1.385 . S
C1414 C1416 1.478 . S
C1415 H1409 0.930 . S
C1415 C1411 1.400 . S
C1415 C1414 1.385 . S
C1416 C1414 1.478 . S
C1416 C1418 1.381 . S
C1416 C1422 1.383 . S
C1417 C1413 1.495 . S
C1417 H1423 0.959 . S
C1417 H1424 0.961 . S
C1417 H1425 0.960 . S
C1418 C1416 1.381 . S
C1418 C1419 1.394 . S
C1418 H1426 0.930 . S
C1419 C1418 1.394 . S
C1419 C1420 1.383 . S
C1419 H1427 0.929 . S
C1420 C1419 1.383 . S
C1420 C1421 1.377 . S
C1421 H1405 0.930 . S
C1421 C1420 1.377 . S
C1421 C1422 1.379 . S
C1422 H1406 0.931 . S
C1422 C1416 1.383 . S
C1422 C1421 1.379 . S
H1423 C1417 0.959 . S
H1424 C1417 0.961 . S
H1425 C1417 0.960 . S
H1426 C1418 0.930 . S
H1427 C1419 0.929 . S
H1428 C1436 0.929 . S
H1429 C1438 0.930 . S
H1430 C1440 0.930 . S
H1431 C1443 0.929 . S
H1432 C1446 0.930 . S
H1433 C1448 0.960 . S
H1434 C1448 0.960 . S
H1435 C1448 0.960 . S
C1436 H1428 0.929 . S
C1436 C1437 1.377 . S
C1436 C1438 1.384 . S
C1437 C1436 1.377 . S
C1437 C1443 1.390 . S
C1438 H1429 0.930 . S
C1438 C1436 1.384 . S
C1438 C1439 1.372 1_556 S
C1439 C1438 1.372 1_554 S
C1439 C1440 1.400 1_554 S
C1439 C1444 1.490 . S
C1440 H1430 0.930 . S
C1440 C1439 1.400 1_556 S
C1440 C1443 1.386 . S
H1441 C1457 0.930 . S
H1442 C1458 0.931 . S
C1443 H1431 0.929 . S
C1443 C1437 1.390 . S
C1443 C1440 1.386 . S
C1444 C1439 1.490 . S
C1444 C1446 1.395 . S
C1444 C1447 1.403 . S
H1445 C1451 0.930 . S
C1446 H1432 0.930 . S
C1446 C1444 1.395 . S
C1446 C1449 1.403 . S
C1447 C1444 1.403 . S
C1447 C1448 1.524 . S
C1447 C1451 1.400 . S
C1448 H1433 0.960 . S
C1448 H1434 0.960 . S
C1448 H1435 0.960 . S
C1448 C1447 1.524 . S
C1449 C1446 1.403 . S
C1449 C1450 1.392 . S
C1449 C1453 1.495 . S
C1450 C1449 1.392 . S
C1450 C1451 1.385 . S
C1450 C1452 1.478 . S
C1451 H1445 0.930 . S
C1451 C1447 1.400 . S
C1451 C1450 1.385 . S
C1452 C1450 1.478 . S
C1452 C1454 1.381 . S
C1452 C1458 1.383 . S
C1453 C1449 1.495 . S
C1453 H1459 0.959 . S
C1453 H1460 0.961 . S
C1453 H1461 0.960 . S
C1454 C1452 1.381 . S
C1454 C1455 1.394 . S
C1454 H1462 0.930 . S
C1455 C1454 1.394 . S
C1455 C1456 1.383 . S
C1455 H1463 0.929 . S
C1456 C1455 1.383 . S
C1456 C1457 1.377 . S
C1457 H1441 0.930 . S
C1457 C1456 1.377 . S
C1457 C1458 1.379 . S
C1458 H1442 0.931 . S
C1458 C1452 1.383 . S
C1458 C1457 1.379 . S
H1459 C1453 0.959 . S
H1460 C1453 0.961 . S
H1461 C1453 0.960 . S
H1462 C1454 0.930 . S
H1463 C1455 0.929 . S
H1464 C1472 0.929 . S
H1465 C1474 0.930 . S
H1466 C1476 0.930 . S
H1467 C1479 0.929 . S
H1468 C1482 0.930 . S
H1469 C1484 0.960 . S
H1470 C1484 0.960 . S
H1471 C1484 0.960 . S
C1472 H1464 0.929 . S
C1472 C1473 1.377 . S
C1472 C1474 1.384 . S
C1473 C1472 1.377 . S
C1473 C1479 1.390 . S
C1474 H1465 0.930 . S
C1474 C1472 1.384 . S
C1474 C1475 1.372 . S
C1475 C1474 1.372 . S
C1475 C1476 1.400 . S
C1475 C1480 1.490 1_554 S
C1476 H1466 0.930 . S
C1476 C1475 1.400 . S
C1476 C1479 1.386 . S
H1477 C1493 0.930 . S
H1478 C1494 0.931 . S
C1479 H1467 0.929 . S
C1479 C1473 1.390 . S
C1479 C1476 1.386 . S
C1480 C1475 1.490 1_556 S
C1480 C1482 1.395 . S
C1480 C1483 1.403 . S
H1481 C1487 0.930 . S
C1482 H1468 0.930 . S
C1482 C1480 1.395 . S
C1482 C1485 1.403 . S
C1483 C1480 1.403 . S
C1483 C1484 1.524 . S
C1483 C1487 1.400 . S
C1484 H1469 0.960 . S
C1484 H1470 0.960 . S
C1484 H1471 0.960 . S
C1484 C1483 1.524 . S
C1485 C1482 1.403 . S
C1485 C1486 1.392 . S
C1485 C1489 1.495 . S
C1486 C1485 1.392 . S
C1486 C1487 1.385 . S
C1486 C1488 1.478 . S
C1487 H1481 0.930 . S
C1487 C1483 1.400 . S
C1487 C1486 1.385 . S
C1488 C1486 1.478 . S
C1488 C1490 1.381 . S
C1488 C1494 1.383 . S
C1489 C1485 1.495 . S
C1489 H1495 0.959 . S
C1489 H1496 0.961 . S
C1489 H1497 0.960 . S
C1490 C1488 1.381 . S
C1490 C1491 1.394 . S
C1490 H1498 0.930 . S
C1491 C1490 1.394 . S
C1491 C1492 1.383 . S
C1491 H1499 0.929 . S
C1492 C1491 1.383 . S
C1492 C1493 1.377 . S
C1493 H1477 0.930 . S
C1493 C1492 1.377 . S
C1493 C1494 1.379 . S
C1494 H1478 0.931 . S
C1494 C1488 1.383 . S
C1494 C1493 1.379 . S
H1495 C1489 0.959 . S
H1496 C1489 0.961 . S
H1497 C1489 0.960 . S
H1498 C1490 0.930 . S
H1499 C1491 0.929 . S
H1500 C1508 0.929 . S
H1501 C1510 0.930 . S
H1502 C1512 0.930 . S
H1503 C1515 0.929 . S
H1504 C1518 0.930 . S
H1505 C1520 0.960 . S
H1506 C1520 0.960 . S
H1507 C1520 0.960 . S
C1508 H1500 0.929 . S
C1508 C1509 1.377 . S
C1508 C1510 1.384 . S
C1509 C1508 1.377 . S
C1509 C1515 1.390 . S
C1510 H1501 0.930 . S
C1510 C1508 1.384 . S
C1510 C1511 1.372 1_554 S
C1511 C1510 1.372 1_556 S
C1511 C1512 1.400 1_556 S
C1511 C1516 1.490 . S
C1512 H1502 0.930 . S
C1512 C1511 1.400 1_554 S
C1512 C1515 1.386 . S
H1513 C1529 0.930 . S
H1514 C1530 0.931 . S
C1515 H1503 0.929 . S
C1515 C1509 1.390 . S
C1515 C1512 1.386 . S
C1516 C1511 1.490 . S
C1516 C1518 1.395 . S
C1516 C1519 1.403 . S
H1517 C1523 0.930 . S
C1518 H1504 0.930 . S
C1518 C1516 1.395 . S
C1518 C1521 1.403 . S
C1519 C1516 1.403 . S
C1519 C1520 1.524 . S
C1519 C1523 1.400 . S
C1520 H1505 0.960 . S
C1520 H1506 0.960 . S
C1520 H1507 0.960 . S
C1520 C1519 1.524 . S
C1521 C1518 1.403 . S
C1521 C1522 1.392 . S
C1521 C1525 1.495 . S
C1522 C1521 1.392 . S
C1522 C1523 1.385 . S
C1522 C1524 1.478 . S
C1523 H1517 0.930 . S
C1523 C1519 1.400 . S
C1523 C1522 1.385 . S
C1524 C1522 1.478 . S
C1524 C1526 1.381 . S
C1524 C1530 1.383 . S
C1525 C1521 1.495 . S
C1525 H1531 0.959 . S
C1525 H1532 0.961 . S
C1525 H1533 0.960 . S
C1526 C1524 1.381 . S
C1526 C1527 1.394 . S
C1526 H1534 0.930 . S
C1527 C1526 1.394 . S
C1527 C1528 1.383 . S
C1527 H1535 0.929 . S
C1528 C1527 1.383 . S
C1528 C1529 1.377 . S
C1529 H1513 0.930 . S
C1529 C1528 1.377 . S
C1529 C1530 1.379 . S
C1530 H1514 0.931 . S
C1530 C1524 1.383 . S
C1530 C1529 1.379 . S
H1531 C1525 0.959 . S
H1532 C1525 0.961 . S
H1533 C1525 0.960 . S
H1534 C1526 0.930 . S
H1535 C1527 0.929 . S
H1536 C1544 0.929 . S
H1537 C1546 0.930 . S
H1538 C1548 0.930 . S
H1539 C1551 0.929 . S
H1540 C1554 0.930 . S
H1541 C1556 0.960 . S
H1542 C1556 0.960 . S
H1543 C1556 0.960 . S
C1544 H1536 0.929 . S
C1544 C1545 1.377 . S
C1544 C1546 1.384 . S
C1545 C1544 1.377 . S
C1545 C1551 1.390 . S
C1546 H1537 0.930 . S
C1546 C1544 1.384 . S
C1546 C1547 1.372 . S
C1547 C1546 1.372 . S
C1547 C1548 1.400 . S
C1547 C1552 1.490 . S
C1548 H1538 0.930 . S
C1548 C1547 1.400 . S
C1548 C1551 1.386 . S
H1549 C1565 0.930 . S
H1550 C1566 0.931 . S
C1551 H1539 0.929 . S
C1551 C1545 1.390 . S
C1551 C1548 1.386 . S
C1552 C1547 1.490 . S
C1552 C1554 1.395 . S
C1552 C1555 1.403 . S
H1553 C1559 0.930 . S
C1554 H1540 0.930 . S
C1554 C1552 1.395 . S
C1554 C1557 1.403 . S
C1555 C1552 1.403 . S
C1555 C1556 1.524 . S
C1555 C1559 1.400 . S
C1556 H1541 0.960 . S
C1556 H1542 0.960 . S
C1556 H1543 0.960 . S
C1556 C1555 1.524 . S
C1557 C1554 1.403 . S
C1557 C1558 1.392 . S
C1557 C1561 1.495 . S
C1558 C1557 1.392 . S
C1558 C1559 1.385 . S
C1558 C1560 1.478 . S
C1559 H1553 0.930 . S
C1559 C1555 1.400 . S
C1559 C1558 1.385 . S
C1560 C1558 1.478 . S
C1560 C1562 1.381 . S
C1560 C1566 1.383 . S
C1561 C1557 1.495 . S
C1561 H1567 0.959 . S
C1561 H1568 0.961 . S
C1561 H1569 0.960 . S
C1562 C1560 1.381 . S
C1562 C1563 1.394 . S
C1562 H1570 0.930 . S
C1563 C1562 1.394 . S
C1563 C1564 1.383 . S
C1563 H1571 0.929 . S
C1564 C1563 1.383 . S
C1564 C1565 1.377 . S
C1565 H1549 0.930 . S
C1565 C1564 1.377 . S
C1565 C1566 1.379 . S
C1566 H1550 0.931 . S
C1566 C1560 1.383 . S
C1566 C1565 1.379 . S
H1567 C1561 0.959 . S
H1568 C1561 0.961 . S
H1569 C1561 0.960 . S
H1570 C1562 0.930 . S
H1571 C1563 0.929 . S
H1572 C1580 0.929 . S
H1573 C1582 0.930 . S
H1574 C1584 0.930 . S
H1575 C1587 0.929 . S
H1576 C1590 0.930 . S
H1577 C1592 0.960 . S
H1578 C1592 0.960 . S
H1579 C1592 0.960 . S
C1580 H1572 0.929 . S
C1580 C1581 1.377 . S
C1580 C1582 1.384 . S
C1581 C1580 1.377 . S
C1581 C1587 1.390 . S
C1582 H1573 0.930 . S
C1582 C1580 1.384 . S
C1582 C1583 1.372 . S
C1583 C1582 1.372 . S
C1583 C1584 1.400 . S
C1583 C1588 1.490 . S
C1584 H1574 0.930 . S
C1584 C1583 1.400 . S
C1584 C1587 1.386 . S
H1585 C1601 0.930 . S
H1586 C1602 0.931 . S
C1587 H1575 0.929 . S
C1587 C1581 1.390 . S
C1587 C1584 1.386 . S
C1588 C1583 1.490 . S
C1588 C1590 1.395 . S
C1588 C1591 1.403 . S
H1589 C1595 0.930 . S
C1590 H1576 0.930 . S
C1590 C1588 1.395 . S
C1590 C1593 1.403 . S
C1591 C1588 1.403 . S
C1591 C1592 1.524 . S
C1591 C1595 1.400 . S
C1592 H1577 0.960 . S
C1592 H1578 0.960 . S
C1592 H1579 0.960 . S
C1592 C1591 1.524 . S
C1593 C1590 1.403 . S
C1593 C1594 1.392 . S
C1593 C1597 1.495 . S
C1594 C1593 1.392 . S
C1594 C1595 1.385 . S
C1594 C1596 1.478 . S
C1595 H1589 0.930 . S
C1595 C1591 1.400 . S
C1595 C1594 1.385 . S
C1596 C1594 1.478 . S
C1596 C1598 1.381 . S
C1596 C1602 1.383 . S
C1597 C1593 1.495 . S
C1597 H1603 0.959 . S
C1597 H1604 0.961 . S
C1597 H1605 0.960 . S
C1598 C1596 1.381 . S
C1598 C1599 1.394 . S
C1598 H1606 0.930 . S
C1599 C1598 1.394 . S
C1599 C1600 1.383 . S
C1599 H1607 0.929 . S
C1600 C1599 1.383 . S
C1600 C1601 1.377 . S
C1601 H1585 0.930 . S
C1601 C1600 1.377 . S
C1601 C1602 1.379 . S
C1602 H1586 0.931 . S
C1602 C1596 1.383 . S
C1602 C1601 1.379 . S
H1603 C1597 0.959 . S
H1604 C1597 0.961 . S
H1605 C1597 0.960 . S
H1606 C1598 0.930 . S
H1607 C1599 0.929 . S
H1608 C1616 0.929 . S
H1609 C1618 0.930 . S
H1610 C1620 0.930 . S
H1611 C1623 0.929 . S
H1612 C1626 0.930 . S
H1613 C1628 0.960 . S
H1614 C1628 0.960 . S
H1615 C1628 0.960 . S
C1616 H1608 0.929 . S
C1616 C1617 1.377 . S
C1616 C1618 1.384 . S
C1617 C1616 1.377 . S
C1617 C1623 1.390 . S
C1618 H1609 0.930 . S
C1618 C1616 1.384 . S
C1618 C1619 1.372 . S
C1619 C1618 1.372 . S
C1619 C1620 1.400 . S
C1619 C1624 1.490 . S
C1620 H1610 0.930 . S
C1620 C1619 1.400 . S
C1620 C1623 1.386 . S
H1621 C1637 0.930 . S
H1622 C1638 0.931 . S
C1623 H1611 0.929 . S
C1623 C1617 1.390 . S
C1623 C1620 1.386 . S
C1624 C1619 1.490 . S
C1624 C1626 1.395 . S
C1624 C1627 1.403 . S
H1625 C1631 0.930 . S
C1626 H1612 0.930 . S
C1626 C1624 1.395 . S
C1626 C1629 1.403 . S
C1627 C1624 1.403 . S
C1627 C1628 1.524 . S
C1627 C1631 1.400 . S
C1628 H1613 0.960 . S
C1628 H1614 0.960 . S
C1628 H1615 0.960 . S
C1628 C1627 1.524 . S
C1629 C1626 1.403 . S
C1629 C1630 1.392 . S
C1629 C1633 1.495 . S
C1630 C1629 1.392 . S
C1630 C1631 1.385 . S
C1630 C1632 1.478 . S
C1631 H1625 0.930 . S
C1631 C1627 1.400 . S
C1631 C1630 1.385 . S
C1632 C1630 1.478 . S
C1632 C1634 1.381 . S
C1632 C1638 1.383 . S
C1633 C1629 1.495 . S
C1633 H1639 0.959 . S
C1633 H1640 0.961 . S
C1633 H1641 0.960 . S
C1634 C1632 1.381 . S
C1634 C1635 1.394 . S
C1634 H1642 0.930 . S
C1635 C1634 1.394 . S
C1635 C1636 1.383 . S
C1635 H1643 0.929 . S
C1636 C1635 1.383 . S
C1636 C1637 1.377 . S
C1637 H1621 0.930 . S
C1637 C1636 1.377 . S
C1637 C1638 1.379 . S
C1638 H1622 0.931 . S
C1638 C1632 1.383 . S
C1638 C1637 1.379 . S
H1639 C1633 0.959 . S
H1640 C1633 0.961 . S
H1641 C1633 0.960 . S
H1642 C1634 0.930 . S
H1643 C1635 0.929 . S
H1644 C1652 0.929 . S
H1645 C1654 0.930 . S
H1646 C1656 0.930 . S
H1647 C1659 0.929 . S
H1648 C1662 0.930 . S
H1649 C1664 0.960 . S
H1650 C1664 0.960 . S
H1651 C1664 0.960 . S
C1652 H1644 0.929 . S
C1652 C1653 1.377 . S
C1652 C1654 1.384 . S
C1653 C1652 1.377 . S
C1653 C1659 1.390 . S
C1654 H1645 0.930 . S
C1654 C1652 1.384 . S
C1654 C1655 1.372 . S
C1655 C1654 1.372 . S
C1655 C1656 1.400 . S
C1655 C1660 1.490 . S
C1656 H1646 0.930 . S
C1656 C1655 1.400 . S
C1656 C1659 1.386 . S
H1657 C1673 0.930 . S
H1658 C1674 0.931 . S
C1659 H1647 0.929 . S
C1659 C1653 1.390 . S
C1659 C1656 1.386 . S
C1660 C1655 1.490 . S
C1660 C1662 1.395 . S
C1660 C1663 1.403 . S
H1661 C1667 0.930 . S
C1662 H1648 0.930 . S
C1662 C1660 1.395 . S
C1662 C1665 1.403 . S
C1663 C1660 1.403 . S
C1663 C1664 1.524 . S
C1663 C1667 1.400 . S
C1664 H1649 0.960 . S
C1664 H1650 0.960 . S
C1664 H1651 0.960 . S
C1664 C1663 1.524 . S
C1665 C1662 1.403 . S
C1665 C1666 1.392 . S
C1665 C1669 1.495 . S
C1666 C1665 1.392 . S
C1666 C1667 1.385 . S
C1666 C1668 1.478 . S
C1667 H1661 0.930 . S
C1667 C1663 1.400 . S
C1667 C1666 1.385 . S
C1668 C1666 1.478 . S
C1668 C1670 1.381 . S
C1668 C1674 1.383 . S
C1669 C1665 1.495 . S
C1669 H1675 0.959 . S
C1669 H1676 0.961 . S
C1669 H1677 0.960 . S
C1670 C1668 1.381 . S
C1670 C1671 1.394 . S
C1670 H1678 0.930 . S
C1671 C1670 1.394 . S
C1671 C1672 1.383 . S
C1671 H1679 0.929 . S
C1672 C1671 1.383 . S
C1672 C1673 1.377 . S
C1673 H1657 0.930 . S
C1673 C1672 1.377 . S
C1673 C1674 1.379 . S
C1674 H1658 0.931 . S
C1674 C1668 1.383 . S
C1674 C1673 1.379 . S
H1675 C1669 0.959 . S
H1676 C1669 0.961 . S
H1677 C1669 0.960 . S
H1678 C1670 0.930 . S
H1679 C1671 0.929 . S
H1680 C1688 0.929 . S
H1681 C1690 0.930 . S
H1682 C1692 0.930 . S
H1683 C1695 0.929 . S
H1684 C1698 0.930 . S
H1685 C1700 0.960 . S
H1686 C1700 0.960 . S
H1687 C1700 0.960 . S
C1688 H1680 0.929 . S
C1688 C1689 1.377 . S
C1688 C1690 1.384 . S
C1689 C1688 1.377 . S
C1689 C1695 1.390 . S
C1690 H1681 0.930 . S
C1690 C1688 1.384 . S
C1690 C1691 1.372 . S
C1691 C1690 1.372 . S
C1691 C1692 1.400 . S
C1691 C1696 1.490 . S
C1692 H1682 0.930 . S
C1692 C1691 1.400 . S
C1692 C1695 1.386 . S
H1693 C1709 0.930 . S
H1694 C1710 0.931 . S
C1695 H1683 0.929 . S
C1695 C1689 1.390 . S
C1695 C1692 1.386 . S
C1696 C1691 1.490 . S
C1696 C1698 1.395 . S
C1696 C1699 1.403 . S
H1697 C1703 0.930 . S
C1698 H1684 0.930 . S
C1698 C1696 1.395 . S
C1698 C1701 1.403 . S
C1699 C1696 1.403 . S
C1699 C1700 1.524 . S
C1699 C1703 1.400 . S
C1700 H1685 0.960 . S
C1700 H1686 0.960 . S
C1700 H1687 0.960 . S
C1700 C1699 1.524 . S
C1701 C1698 1.403 . S
C1701 C1702 1.392 . S
C1701 C1705 1.495 . S
C1702 C1701 1.392 . S
C1702 C1703 1.385 . S
C1702 C1704 1.478 . S
C1703 H1697 0.930 . S
C1703 C1699 1.400 . S
C1703 C1702 1.385 . S
C1704 C1702 1.478 . S
C1704 C1706 1.381 . S
C1704 C1710 1.383 . S
C1705 C1701 1.495 . S
C1705 H1711 0.959 1_554 S
C1705 H1712 0.961 1_554 S
C1705 H1713 0.960 . S
C1706 C1704 1.381 . S
C1706 C1707 1.394 . S
C1706 H1714 0.930 . S
C1707 C1706 1.394 . S
C1707 C1708 1.383 . S
C1707 H1715 0.929 . S
C1708 C1707 1.383 . S
C1708 C1709 1.377 . S
C1709 H1693 0.930 . S
C1709 C1708 1.377 . S
C1709 C1710 1.379 . S
C1710 H1694 0.931 . S
C1710 C1704 1.383 . S
C1710 C1709 1.379 . S
H1711 C1705 0.959 1_556 S
H1712 C1705 0.961 1_556 S
H1713 C1705 0.960 . S
H1714 C1706 0.930 . S
H1715 C1707 0.929 . S
H1716 C1724 0.929 . S
H1717 C1726 0.930 . S
H1718 C1728 0.930 . S
H1719 C1731 0.929 . S
H1720 C1734 0.930 . S
H1721 C1736 0.960 . S
H1722 C1736 0.960 . S
H1723 C1736 0.960 . S
C1724 H1716 0.929 . S
C1724 C1725 1.377 . S
C1724 C1726 1.384 . S
C1725 C1724 1.377 . S
C1725 C1731 1.390 . S
C1726 H1717 0.930 . S
C1726 C1724 1.384 . S
C1726 C1727 1.372 . S
C1727 C1726 1.372 . S
C1727 C1728 1.400 . S
C1727 C1732 1.490 . S
C1728 H1718 0.930 . S
C1728 C1727 1.400 . S
C1728 C1731 1.386 . S
H1729 C1745 0.930 . S
H1730 C1746 0.931 . S
C1731 H1719 0.929 . S
C1731 C1725 1.390 . S
C1731 C1728 1.386 . S
C1732 C1727 1.490 . S
C1732 C1734 1.395 . S
C1732 C1735 1.403 . S
H1733 C1739 0.930 . S
C1734 H1720 0.930 . S
C1734 C1732 1.395 . S
C1734 C1737 1.403 . S
C1735 C1732 1.403 . S
C1735 C1736 1.524 . S
C1735 C1739 1.400 . S
C1736 H1721 0.960 . S
C1736 H1722 0.960 . S
C1736 H1723 0.960 . S
C1736 C1735 1.524 . S
C1737 C1734 1.403 . S
C1737 C1738 1.392 . S
C1737 C1741 1.495 . S
C1738 C1737 1.392 . S
C1738 C1739 1.385 . S
C1738 C1740 1.478 . S
C1739 H1733 0.930 . S
C1739 C1735 1.400 . S
C1739 C1738 1.385 . S
C1740 C1738 1.478 . S
C1740 C1742 1.381 . S
C1740 C1746 1.383 . S
C1741 C1737 1.495 . S
C1741 H1747 0.959 1_556 S
C1741 H1748 0.961 . S
C1741 H1749 0.960 1_556 S
C1742 C1740 1.381 . S
C1742 C1743 1.394 . S
C1742 H1750 0.930 . S
C1743 C1742 1.394 . S
C1743 C1744 1.383 . S
C1743 H1751 0.929 . S
C1744 C1743 1.383 . S
C1744 C1745 1.377 . S
C1745 H1729 0.930 . S
C1745 C1744 1.377 . S
C1745 C1746 1.379 . S
C1746 H1730 0.931 . S
C1746 C1740 1.383 . S
C1746 C1745 1.379 . S
H1747 C1741 0.959 1_554 S
H1748 C1741 0.961 . S
H1749 C1741 0.960 1_554 S
H1750 C1742 0.930 . S
H1751 C1743 0.929 . S
H1752 C1760 0.929 . S
H1753 C1762 0.930 . S
H1754 C1764 0.930 . S
H1755 C1767 0.929 . S
H1756 C1770 0.930 . S
H1757 C1772 0.960 . S
H1758 C1772 0.960 . S
H1759 C1772 0.960 . S
C1760 H1752 0.929 . S
C1760 C1761 1.377 . S
C1760 C1762 1.384 . S
C1761 C1760 1.377 . S
C1761 C1767 1.390 . S
C1762 H1753 0.930 . S
C1762 C1760 1.384 . S
C1762 C1763 1.372 . S
C1763 C1762 1.372 . S
C1763 C1764 1.400 . S
C1763 C1768 1.490 . S
C1764 H1754 0.930 . S
C1764 C1763 1.400 . S
C1764 C1767 1.386 . S
H1765 C1781 0.930 . S
H1766 C1782 0.931 . S
C1767 H1755 0.929 . S
C1767 C1761 1.390 . S
C1767 C1764 1.386 . S
C1768 C1763 1.490 . S
C1768 C1770 1.395 . S
C1768 C1771 1.403 . S
H1769 C1775 0.930 . S
C1770 H1756 0.930 . S
C1770 C1768 1.395 . S
C1770 C1773 1.403 . S
C1771 C1768 1.403 . S
C1771 C1772 1.524 . S
C1771 C1775 1.400 . S
C1772 H1757 0.960 . S
C1772 H1758 0.960 . S
C1772 H1759 0.960 . S
C1772 C1771 1.524 . S
C1773 C1770 1.403 . S
C1773 C1774 1.392 . S
C1773 C1777 1.495 . S
C1774 C1773 1.392 . S
C1774 C1775 1.385 . S
C1774 C1776 1.478 . S
C1775 H1769 0.930 . S
C1775 C1771 1.400 . S
C1775 C1774 1.385 . S
C1776 C1774 1.478 . S
C1776 C1778 1.381 . S
C1776 C1782 1.383 . S
C1777 C1773 1.495 . S
C1777 H1783 0.959 . S
C1777 H1784 0.961 . S
C1777 H1785 0.960 . S
C1778 C1776 1.381 . S
C1778 C1779 1.394 . S
C1778 H1786 0.930 . S
C1779 C1778 1.394 . S
C1779 C1780 1.383 . S
C1779 H1787 0.929 . S
C1780 C1779 1.383 . S
C1780 C1781 1.377 . S
C1781 H1765 0.930 . S
C1781 C1780 1.377 . S
C1781 C1782 1.379 . S
C1782 H1766 0.931 . S
C1782 C1776 1.383 . S
C1782 C1781 1.379 . S
H1783 C1777 0.959 . S
H1784 C1777 0.961 . S
H1785 C1777 0.960 . S
H1786 C1778 0.930 . S
H1787 C1779 0.929 . S
H1788 C1796 0.929 . S
H1789 C1798 0.930 . S
H1790 C1800 0.930 . S
H1791 C1803 0.929 . S
H1792 C1806 0.930 . S
H1793 C1808 0.960 . S
H1794 C1808 0.960 . S
H1795 C1808 0.960 . S
C1796 H1788 0.929 . S
C1796 C1797 1.377 . S
C1796 C1798 1.384 . S
C1797 C1796 1.377 . S
C1797 C1803 1.390 . S
C1798 H1789 0.930 . S
C1798 C1796 1.384 . S
C1798 C1799 1.372 . S
C1799 C1798 1.372 . S
C1799 C1800 1.400 . S
C1799 C1804 1.490 . S
C1800 H1790 0.930 . S
C1800 C1799 1.400 . S
C1800 C1803 1.386 . S
H1801 C1817 0.930 . S
H1802 C1818 0.931 . S
C1803 H1791 0.929 . S
C1803 C1797 1.390 . S
C1803 C1800 1.386 . S
C1804 C1799 1.490 . S
C1804 C1806 1.395 . S
C1804 C1807 1.403 . S
H1805 C1811 0.930 . S
C1806 H1792 0.930 . S
C1806 C1804 1.395 . S
C1806 C1809 1.403 . S
C1807 C1804 1.403 . S
C1807 C1808 1.524 . S
C1807 C1811 1.400 . S
C1808 H1793 0.960 . S
C1808 H1794 0.960 . S
C1808 H1795 0.960 . S
C1808 C1807 1.524 . S
C1809 C1806 1.403 . S
C1809 C1810 1.392 . S
C1809 C1813 1.495 . S
C1810 C1809 1.392 . S
C1810 C1811 1.385 . S
C1810 C1812 1.478 . S
C1811 H1805 0.930 . S
C1811 C1807 1.400 . S
C1811 C1810 1.385 . S
C1812 C1810 1.478 . S
C1812 C1814 1.381 . S
C1812 C1818 1.383 . S
C1813 C1809 1.495 . S
C1813 H1819 0.959 . S
C1813 H1820 0.961 . S
C1813 H1821 0.960 . S
C1814 C1812 1.381 . S
C1814 C1815 1.394 . S
C1814 H1822 0.930 . S
C1815 C1814 1.394 . S
C1815 C1816 1.383 . S
C1815 H1823 0.929 . S
C1816 C1815 1.383 . S
C1816 C1817 1.377 . S
C1817 H1801 0.930 . S
C1817 C1816 1.377 . S
C1817 C1818 1.379 . S
C1818 H1802 0.931 . S
C1818 C1812 1.383 . S
C1818 C1817 1.379 . S
H1819 C1813 0.959 . S
H1820 C1813 0.961 . S
H1821 C1813 0.960 . S
H1822 C1814 0.930 . S
H1823 C1815 0.929 . S
H1824 C1832 0.929 . S
H1825 C1834 0.930 . S
H1826 C1836 0.930 . S
H1827 C1839 0.929 . S
H1828 C1842 0.930 . S
H1829 C1844 0.960 . S
H1830 C1844 0.960 . S
H1831 C1844 0.960 . S
C1832 H1824 0.929 . S
C1832 C1833 1.377 . S
C1832 C1834 1.384 . S
C1833 C1832 1.377 . S
C1833 C1839 1.390 . S
C1834 H1825 0.930 . S
C1834 C1832 1.384 . S
C1834 C1835 1.372 . S
C1835 C1834 1.372 . S
C1835 C1836 1.400 . S
C1835 C1840 1.490 . S
C1836 H1826 0.930 . S
C1836 C1835 1.400 . S
C1836 C1839 1.386 . S
H1837 C1853 0.930 . S
H1838 C1854 0.931 . S
C1839 H1827 0.929 . S
C1839 C1833 1.390 . S
C1839 C1836 1.386 . S
C1840 C1835 1.490 . S
C1840 C1842 1.395 . S
C1840 C1843 1.403 . S
H1841 C1847 0.930 . S
C1842 H1828 0.930 . S
C1842 C1840 1.395 . S
C1842 C1845 1.403 . S
C1843 C1840 1.403 . S
C1843 C1844 1.524 . S
C1843 C1847 1.400 . S
C1844 H1829 0.960 . S
C1844 H1830 0.960 . S
C1844 H1831 0.960 . S
C1844 C1843 1.524 . S
C1845 C1842 1.403 . S
C1845 C1846 1.392 . S
C1845 C1849 1.495 . S
C1846 C1845 1.392 . S
C1846 C1847 1.385 . S
C1846 C1848 1.478 . S
C1847 H1841 0.930 . S
C1847 C1843 1.400 . S
C1847 C1846 1.385 . S
C1848 C1846 1.478 . S
C1848 C1850 1.381 . S
C1848 C1854 1.383 . S
C1849 C1845 1.495 . S
C1849 H1855 0.959 . S
C1849 H1856 0.961 . S
C1849 H1857 0.960 . S
C1850 C1848 1.381 . S
C1850 C1851 1.394 . S
C1850 H1858 0.930 . S
C1851 C1850 1.394 . S
C1851 C1852 1.383 . S
C1851 H1859 0.929 . S
C1852 C1851 1.383 . S
C1852 C1853 1.377 . S
C1853 H1837 0.930 . S
C1853 C1852 1.377 . S
C1853 C1854 1.379 . S
C1854 H1838 0.931 . S
C1854 C1848 1.383 . S
C1854 C1853 1.379 . S
H1855 C1849 0.959 . S
H1856 C1849 0.961 . S
H1857 C1849 0.960 . S
H1858 C1850 0.930 . S
H1859 C1851 0.929 . S
H1860 C1868 0.929 . S
H1861 C1870 0.930 . S
H1862 C1872 0.930 . S
H1863 C1875 0.929 . S
H1864 C1878 0.930 . S
H1865 C1880 0.960 . S
H1866 C1880 0.960 . S
H1867 C1880 0.960 . S
C1868 H1860 0.929 . S
C1868 C1869 1.377 . S
C1868 C1870 1.384 . S
C1869 C1868 1.377 . S
C1869 C1875 1.390 . S
C1870 H1861 0.930 . S
C1870 C1868 1.384 . S
C1870 C1871 1.372 . S
C1871 C1870 1.372 . S
C1871 C1872 1.400 . S
C1871 C1876 1.490 . S
C1872 H1862 0.930 . S
C1872 C1871 1.400 . S
C1872 C1875 1.386 . S
H1873 C1889 0.930 . S
H1874 C1890 0.931 . S
C1875 H1863 0.929 . S
C1875 C1869 1.390 . S
C1875 C1872 1.386 . S
C1876 C1871 1.490 . S
C1876 C1878 1.395 . S
C1876 C1879 1.403 . S
H1877 C1883 0.930 . S
C1878 H1864 0.930 . S
C1878 C1876 1.395 . S
C1878 C1881 1.403 . S
C1879 C1876 1.403 . S
C1879 C1880 1.524 . S
C1879 C1883 1.400 . S
C1880 H1865 0.960 . S
C1880 H1866 0.960 . S
C1880 H1867 0.960 . S
C1880 C1879 1.524 . S
C1881 C1878 1.403 . S
C1881 C1882 1.392 . S
C1881 C1885 1.495 . S
C1882 C1881 1.392 . S
C1882 C1883 1.385 . S
C1882 C1884 1.478 . S
C1883 H1877 0.930 . S
C1883 C1879 1.400 . S
C1883 C1882 1.385 . S
C1884 C1882 1.478 . S
C1884 C1886 1.381 . S
C1884 C1890 1.383 . S
C1885 C1881 1.495 . S
C1885 H1891 0.959 . S
C1885 H1892 0.961 . S
C1885 H1893 0.960 . S
C1886 C1884 1.381 . S
C1886 C1887 1.394 . S
C1886 H1894 0.930 . S
C1887 C1886 1.394 . S
C1887 C1888 1.383 . S
C1887 H1895 0.929 . S
C1888 C1887 1.383 . S
C1888 C1889 1.377 . S
C1889 H1873 0.930 . S
C1889 C1888 1.377 . S
C1889 C1890 1.379 . S
C1890 H1874 0.931 . S
C1890 C1884 1.383 . S
C1890 C1889 1.379 . S
H1891 C1885 0.959 . S
H1892 C1885 0.961 . S
H1893 C1885 0.960 . S
H1894 C1886 0.930 . S
H1895 C1887 0.929 . S
H1896 C1904 0.929 . S
H1897 C1906 0.930 . S
H1898 C1908 0.930 . S
H1899 C1911 0.929 . S
H1900 C1914 0.930 . S
H1901 C1916 0.960 . S
H1902 C1916 0.960 . S
H1903 C1916 0.960 . S
C1904 H1896 0.929 . S
C1904 C1905 1.377 . S
C1904 C1906 1.384 . S
C1905 C1904 1.377 . S
C1905 C1911 1.390 . S
C1906 H1897 0.930 . S
C1906 C1904 1.384 . S
C1906 C1907 1.372 . S
C1907 C1906 1.372 . S
C1907 C1908 1.400 . S
C1907 C1912 1.490 . S
C1908 H1898 0.930 . S
C1908 C1907 1.400 . S
C1908 C1911 1.386 . S
H1909 C1925 0.930 . S
H1910 C1926 0.931 . S
C1911 H1899 0.929 . S
C1911 C1905 1.390 . S
C1911 C1908 1.386 . S
C1912 C1907 1.490 . S
C1912 C1914 1.395 . S
C1912 C1915 1.403 . S
H1913 C1919 0.930 . S
C1914 H1900 0.930 . S
C1914 C1912 1.395 . S
C1914 C1917 1.403 . S
C1915 C1912 1.403 . S
C1915 C1916 1.524 . S
C1915 C1919 1.400 . S
C1916 H1901 0.960 . S
C1916 H1902 0.960 . S
C1916 H1903 0.960 . S
C1916 C1915 1.524 . S
C1917 C1914 1.403 . S
C1917 C1918 1.392 . S
C1917 C1921 1.495 . S
C1918 C1917 1.392 . S
C1918 C1919 1.385 . S
C1918 C1920 1.478 . S
C1919 H1913 0.930 . S
C1919 C1915 1.400 . S
C1919 C1918 1.385 . S
C1920 C1918 1.478 . S
C1920 C1922 1.381 . S
C1920 C1926 1.383 . S
C1921 C1917 1.495 . S
C1921 H1927 0.959 . S
C1921 H1928 0.961 . S
C1921 H1929 0.960 . S
C1922 C1920 1.381 . S
C1922 C1923 1.394 . S
C1922 H1930 0.930 . S
C1923 C1922 1.394 . S
C1923 C1924 1.383 . S
C1923 H1931 0.929 . S
C1924 C1923 1.383 . S
C1924 C1925 1.377 . S
C1925 H1909 0.930 . S
C1925 C1924 1.377 . S
C1925 C1926 1.379 . S
C1926 H1910 0.931 . S
C1926 C1920 1.383 . S
C1926 C1925 1.379 . S
H1927 C1921 0.959 . S
H1928 C1921 0.961 . S
H1929 C1921 0.960 . S
H1930 C1922 0.930 . S
H1931 C1923 0.929 . S
H1932 C1940 0.929 . S
H1933 C1942 0.930 . S
H1934 C1944 0.930 . S
H1935 C1947 0.929 . S
H1936 C1950 0.930 . S
H1937 C1952 0.960 . S
H1938 C1952 0.960 . S
H1939 C1952 0.960 . S
C1940 H1932 0.929 . S
C1940 C1941 1.377 . S
C1940 C1942 1.384 . S
C1941 C1940 1.377 . S
C1941 C1947 1.390 . S
C1942 H1933 0.930 . S
C1942 C1940 1.384 . S
C1942 C1943 1.372 . S
C1943 C1942 1.372 . S
C1943 C1944 1.400 . S
C1943 C1948 1.490 . S
C1944 H1934 0.930 . S
C1944 C1943 1.400 . S
C1944 C1947 1.386 . S
H1945 C1961 0.930 . S
H1946 C1962 0.931 . S
C1947 H1935 0.929 . S
C1947 C1941 1.390 . S
C1947 C1944 1.386 . S
C1948 C1943 1.490 . S
C1948 C1950 1.395 . S
C1948 C1951 1.403 . S
H1949 C1955 0.930 . S
C1950 H1936 0.930 . S
C1950 C1948 1.395 . S
C1950 C1953 1.403 . S
C1951 C1948 1.403 . S
C1951 C1952 1.524 . S
C1951 C1955 1.400 . S
C1952 H1937 0.960 . S
C1952 H1938 0.960 . S
C1952 H1939 0.960 . S
C1952 C1951 1.524 . S
C1953 C1950 1.403 . S
C1953 C1954 1.392 . S
C1953 C1957 1.495 . S
C1954 C1953 1.392 . S
C1954 C1955 1.385 . S
C1954 C1956 1.478 . S
C1955 H1949 0.930 . S
C1955 C1951 1.400 . S
C1955 C1954 1.385 . S
C1956 C1954 1.478 . S
C1956 C1958 1.381 . S
C1956 C1962 1.383 . S
C1957 C1953 1.495 . S
C1957 H1963 0.959 . S
C1957 H1964 0.961 . S
C1957 H1965 0.960 . S
C1958 C1956 1.381 . S
C1958 C1959 1.394 . S
C1958 H1966 0.930 . S
C1959 C1958 1.394 . S
C1959 C1960 1.383 . S
C1959 H1967 0.929 . S
C1960 C1959 1.383 . S
C1960 C1961 1.377 . S
C1961 H1945 0.930 . S
C1961 C1960 1.377 . S
C1961 C1962 1.379 . S
C1962 H1946 0.931 . S
C1962 C1956 1.383 . S
C1962 C1961 1.379 . S
H1963 C1957 0.959 . S
H1964 C1957 0.961 . S
H1965 C1957 0.960 . S
H1966 C1958 0.930 . S
H1967 C1959 0.929 . S
C537 C338 1.507 . S
C556 C8 1.507 . S
C573 C61 1.505 . S
C592 C259 1.506 . S
C609 C503 1.505 . S
C628 C41 1.497 . S
C645 C94 1.505 . S
C664 C28 1.497 . S
C681 C74 1.507 . S
C700 C272 1.508 . S
C717 C193 1.504 . S
C736 C127 1.503 . S
C753 C437 1.504 . S
C772 C107 1.498 . S
C789 C470 1.506 . S
C808 C140 1.508 . S
C825 C173 1.505 . S
C844 C371 1.507 . S
C861 C226 1.504 . S
C880 C160 1.497 . S
C897 C404 1.504 . S
C916 C206 1.502 . S
C933 C305 1.504 . S
C952 C239 1.501 . S
C969 C523 1.505 . S
C988 C325 1.497 . S
C1005 C292 1.504 . S
C1024 C358 1.497 . S
C1041 C391 1.506 . S
C1060 C457 1.504 . S
C1077 C490 1.505 . S
C1096 C424 1.498 . S
C1113 N14 1.336 . S
C1132 N5 1.339 . S
C1149 N47 1.328 . S
C1168 N38 1.335 . S
C1185 N80 1.328 . S
C1204 N71 1.317 . S
C1221 N113 1.329 . S
C1240 N104 1.316 . S
C1257 N137 1.333 . S
C1276 N146 1.313 . S
C1293 N179 1.328 . S
C1312 N170 1.333 . S
C1329 N212 1.331 . S
C1348 N203 1.345 . S
C1365 N236 1.337 . S
C1384 N245 1.346 . S
C1401 N278 1.328 . S
C1420 N269 1.318 . S
C1437 N302 1.333 . S
C1456 N311 1.331 . S
C1473 N344 1.335 . S
C1492 N335 1.349 . S
C1509 N368 1.333 . S
C1528 N377 1.326 . S
C1545 N410 1.327 . S
C1564 N401 1.327 . S
C1581 N443 1.332 . S
C1600 N434 1.351 . S
C1617 N476 1.336 . S
C1636 N467 1.338 . S
C1653 N509 1.333 . S
C1672 N500 1.324 . S
C1689 C17 1.499 . S
C1708 C50 1.500 . S
C1725 C83 1.497 . S
C1744 C116 1.500 . S
C1761 C149 1.499 . S
C1780 C182 1.496 . S
C1797 C215 1.497 . S
C1816 C248 1.497 . S
C1833 C314 1.499 . S
C1852 C281 1.497 . S
C1869 C347 1.499 . S
C1888 C380 1.496 . S
C1905 C446 1.496 . S
C1924 C413 1.490 . S
C1941 C512 1.499 . S
C1960 C479 1.495 . S
