# Generated by pormake.
# Topology wkb, (5)-cn, num edge types: 1
# Building blocks:
#     Node 0, Type 0, BuildingBlock: BEQFEK_clean_sbu_0, # of connection points: 5
#     Node 1, Type 0, BuildingBlock: BEQFEK_clean_sbu_0, # of connection points: 5
#     Node 2, Type 0, BuildingBlock: BEQFEK_clean_sbu_0, # of connection points: 5
#     Node 3, Type 0, BuildingBlock: BEQFEK_clean_sbu_0, # of connection points: 5
#     Node 4, Type 0, BuildingBlock: BEQFEK_clean_sbu_0, # of connection points: 5
#     Node 5, Type 0, BuildingBlock: BEQFEK_clean_sbu_0, # of connection points: 5
#     Node 6, Type 0, BuildingBlock: BEQFEK_clean_sbu_0, # of connection points: 5
#     Node 7, Type 0, BuildingBlock: BEQFEK_clean_sbu_0, # of connection points: 5
#     Node 8, Type 0, BuildingBlock: BEQFEK_clean_sbu_0, # of connection points: 5
#     Node 9, Type 0, BuildingBlock: BEQFEK_clean_sbu_0, # of connection points: 5
#     Node 10, Type 0, BuildingBlock: BEQFEK_clean_sbu_0, # of connection points: 5
#     Node 11, Type 0, BuildingBlock: BEQFEK_clean_sbu_0, # of connection points: 5
#     Edge 12, Type (0, 0), BuildingBlock: MIFKUJ_clean_linker_0, # of connection points: 2
#     Edge 13, Type (0, 0), BuildingBlock: MIFKUJ_clean_linker_0, # of connection points: 2
#     Edge 14, Type (0, 0), BuildingBlock: MIFKUJ_clean_linker_0, # of connection points: 2
#     Edge 15, Type (0, 0), BuildingBlock: MIFKUJ_clean_linker_0, # of connection points: 2
#     Edge 16, Type (0, 0), BuildingBlock: MIFKUJ_clean_linker_0, # of connection points: 2
#     Edge 17, Type (0, 0), BuildingBlock: MIFKUJ_clean_linker_0, # of connection points: 2
#     Edge 18, Type (0, 0), BuildingBlock: MIFKUJ_clean_linker_0, # of connection points: 2
#     Edge 19, Type (0, 0), BuildingBlock: MIFKUJ_clean_linker_0, # of connection points: 2
#     Edge 20, Type (0, 0), BuildingBlock: MIFKUJ_clean_linker_0, # of connection points: 2
#     Edge 21, Type (0, 0), BuildingBlock: MIFKUJ_clean_linker_0, # of connection points: 2
#     Edge 22, Type (0, 0), BuildingBlock: MIFKUJ_clean_linker_0, # of connection points: 2
#     Edge 23, Type (0, 0), BuildingBlock: MIFKUJ_clean_linker_0, # of connection points: 2
#     Edge 24, Type (0, 0), BuildingBlock: MIFKUJ_clean_linker_0, # of connection points: 2
#     Edge 25, Type (0, 0), BuildingBlock: MIFKUJ_clean_linker_0, # of connection points: 2
#     Edge 26, Type (0, 0), BuildingBlock: MIFKUJ_clean_linker_0, # of connection points: 2
#     Edge 27, Type (0, 0), BuildingBlock: MIFKUJ_clean_linker_0, # of connection points: 2
#     Edge 28, Type (0, 0), BuildingBlock: MIFKUJ_clean_linker_0, # of connection points: 2
#     Edge 29, Type (0, 0), BuildingBlock: MIFKUJ_clean_linker_0, # of connection points: 2
#     Edge 30, Type (0, 0), BuildingBlock: MIFKUJ_clean_linker_0, # of connection points: 2
#     Edge 31, Type (0, 0), BuildingBlock: MIFKUJ_clean_linker_0, # of connection points: 2
#     Edge 32, Type (0, 0), BuildingBlock: MIFKUJ_clean_linker_0, # of connection points: 2
#     Edge 33, Type (0, 0), BuildingBlock: MIFKUJ_clean_linker_0, # of connection points: 2
#     Edge 34, Type (0, 0), BuildingBlock: MIFKUJ_clean_linker_0, # of connection points: 2
#     Edge 35, Type (0, 0), BuildingBlock: MIFKUJ_clean_linker_0, # of connection points: 2
#     Edge 36, Type (0, 0), BuildingBlock: MIFKUJ_clean_linker_0, # of connection points: 2
#     Edge 37, Type (0, 0), BuildingBlock: MIFKUJ_clean_linker_0, # of connection points: 2
#     Edge 38, Type (0, 0), BuildingBlock: MIFKUJ_clean_linker_0, # of connection points: 2
#     Edge 39, Type (0, 0), BuildingBlock: MIFKUJ_clean_linker_0, # of connection points: 2
#     Edge 40, Type (0, 0), BuildingBlock: MIFKUJ_clean_linker_0, # of connection points: 2
#     Edge 41, Type (0, 0), BuildingBlock: MIFKUJ_clean_linker_0, # of connection points: 2
# Relax obj value: 0.101
# Max RMSD: 0.135
# Mean RMSD: 0.135
data_MOF--net-wkb--node1-BEQFEK_clean_sbu_0--edge1-MIFKUJ_clean_linker_0
_symmetry_space_group_name_H-M    P1
_symmetry_Int_Tables_number       1
_symmetry_cell_setting            triclinic
loop_
_symmetry_equiv_pos_as_xyz
'x, y, z'
_cell_length_a     56.961237
_cell_length_b     56.967126
_cell_length_c     50.895566
_cell_angle_alpha  89.885077
_cell_angle_beta   90.021439
_cell_angle_gamma 120.04886
loop_
_atom_site_label
_atom_site_type_symbol
_atom_site_fract_x
_atom_site_fract_y
_atom_site_fract_z
_atom_type_partial_charge
Co0 Co 0.04046 0.35525 0.02426 0.0
Co1 Co 0.06812 0.36251 0.07918 0.0
C2 C 0.01099 0.31804 0.06987 0.0
O3 O 0.01175 0.3256 0.04612 0.0
O4 O 0.03153 0.33032 0.08491 0.0
C5 C 0.01822 0.3269 0.97592 0.0
O6 O 0.01589 0.30607 0.98928 0.0
C7 C 0.09029 0.35088 0.12673 0.0
C8 C 0.11889 0.39242 0.14052 0.0
C9 C 0.10885 0.3653 0.14645 0.0
N10 N 0.08961 0.36878 0.10991 0.0
N11 N 0.10674 0.39353 0.11828 0.0
C12 C 0.07158 0.3209 0.12491 0.0
H13 H 0.05112 0.31621 0.13148 0.0
H14 H 0.06986 0.31429 0.10416 0.0
H15 H 0.07818 0.30939 0.13748 0.0
C16 C 0.09017 0.35314 0.00775 0.0
N17 N 0.07425 0.35533 0.02616 0.0
N18 N 0.08536 0.35765 0.04941 0.0
C19 C 0.10839 0.35663 0.04658 0.0
C20 C 0.11219 0.35364 0.02012 0.0
C21 C 0.08376 0.34937 0.979 0.0
H22 H 0.07606 0.36285 0.97253 0.0
H23 H 0.06796 0.32801 0.97548 0.0
H24 H 0.1016 0.35357 0.96693 0.0
O25 O 0.04517 0.39075 0.036 0.0
O26 O 0.0652 0.3956 0.07461 0.0
H27 H 0.13204 0.37821 0.08006 0.0
H28 H 0.14628 0.36147 0.06146 0.0
C29 C 0.1271 0.35975 0.06867 0.0
H30 H 0.11685 0.34199 0.08197 0.0
H31 H 0.11007 0.41122 0.10883 0.0
O32 O 0.02766 0.34973 0.98725 0.0
C33 C 0.0557 0.40431 0.05688 0.0
Co34 Co 0.68819 0.03772 0.19121 0.0
Co35 Co 0.70946 0.06598 0.24571 0.0
C36 C 0.69639 0.00864 0.2369 0.0
O37 O 0.68929 0.00902 0.21317 0.0
O38 O 0.70484 0.02942 0.25161 0.0
C39 C 0.68858 0.01106 0.1431 0.0
O40 O 0.70296 1.00303 0.15661 0.0
C41 C 0.74315 0.09039 0.29384 0.0
C42 C 0.72997 0.11973 0.30399 0.0
C43 C 0.74688 0.11016 0.31202 0.0
N44 N 0.72495 0.08859 0.27583 0.0
N45 N 0.71723 0.10621 0.28212 0.0
C46 C 0.75575 0.0728 0.29424 0.0
H47 H 0.74332 0.0539 0.28307 0.0
H48 H 0.7761 0.08384 0.28498 0.0
H49 H 0.75828 0.06783 0.31477 0.0
C50 C 0.74019 0.0858 0.17361 0.0
N51 N 0.72205 0.07087 0.19241 0.0
N52 N 0.731 0.08279 0.21529 0.0
C53 C 0.75509 0.10568 0.21175 0.0
C54 C 0.76179 0.10831 0.18522 0.0
C55 C 0.73644 0.07924 0.1449 0.0
H56 H 0.71547 0.07335 0.13897 0.0
H57 H 0.73963 0.06187 0.1411 0.0
H58 H 0.75094 0.09674 0.13276 0.0
O59 O 0.65802 0.04331 0.20306 0.0
O60 O 0.67294 0.06205 0.2421 0.0
H61 H 0.76066 0.1325 0.2435 0.0
H62 H 0.79173 0.14056 0.2265 0.0
C63 C 0.77197 0.12385 0.23359 0.0
H64 H 0.77582 0.11177 0.24821 0.0
H65 H 0.70315 0.10897 0.27144 0.0
O66 O 0.6801 0.02531 0.15434 0.0
C67 C 0.65478 0.05305 0.22436 0.0
Co68 Co 0.65814 0.68772 0.35748 0.0
Co69 Co 0.6528 0.70904 0.4124 0.0
C70 C 0.69683 0.69634 0.40221 0.0
O71 O 0.6884 0.68874 0.37877 0.0
O72 O 0.68521 0.70522 0.41736 0.0
C73 C 0.68394 0.68758 0.30825 0.0
O74 O 0.70682 0.69985 0.32143 0.0
C75 C 0.66357 0.74189 0.46061 0.0
C76 C 0.62169 0.7307 0.47171 0.0
C77 C 0.64851 0.74635 0.47932 0.0
N78 N 0.64629 0.72441 0.44272 0.0
N79 N 0.62135 0.71785 0.4495 0.0
C80 C 0.69342 0.75213 0.46059 0.0
H81 H 0.7013 0.75631 0.44016 0.0
H82 H 0.70464 0.77054 0.47283 0.0
H83 H 0.69697 0.7361 0.46873 0.0
C84 C 0.6612 0.73943 0.34058 0.0
N85 N 0.65868 0.72143 0.35923 0.0
N86 N 0.65687 0.73065 0.38236 0.0
C87 C 0.65855 0.75499 0.37921 0.0
C88 C 0.66134 0.7614 0.35258 0.0
C89 C 0.66215 0.73503 0.3117 0.0
H90 H 0.64669 0.71393 0.30659 0.0
H91 H 0.68244 0.73815 0.30653 0.0
H92 H 0.65828 0.74917 0.29996 0.0
O93 O 0.6227 0.65743 0.36987 0.0
O94 O 0.62026 0.67235 0.40937 0.0
H95 H 0.63936 0.76263 0.41153 0.0
H96 H 0.66437 0.79302 0.39481 0.0
C97 C 0.65934 0.77249 0.40149 0.0
H98 H 0.67485 0.77461 0.41589 0.0
H99 H 0.60404 0.70449 0.43895 0.0
O100 O 0.66172 0.68028 0.32015 0.0
C101 C 0.61048 0.65417 0.39168 0.0
Co102 Co 0.97681 0.65675 0.52548 0.0
Co103 Co 0.94873 0.64839 0.58024 0.0
C104 C 1.00513 0.69424 0.57093 0.0
O105 O 1.00523 0.68651 0.54743 0.0
O106 O 0.9843 0.68179 0.58562 0.0
C107 C 1.00261 0.65545 0.47583 0.0
O108 O 0.01244 0.64219 0.48857 0.0
C109 C 0.92335 0.6588 0.62563 0.0
C110 C 0.89648 0.61713 0.64024 0.0
C111 C 0.90386 0.64398 0.64453 0.0
N112 N 0.92708 0.64141 0.61083 0.0
N113 N 0.91123 0.6166 0.61988 0.0
C114 C 0.93649 0.68854 0.62006 0.0
H115 H 0.94368 0.69288 0.59941 0.0
H116 H 0.92211 0.69595 0.62384 0.0
H117 H 0.95426 0.69958 0.63321 0.0
C118 C 0.9284 0.6602 0.50911 0.0
N119 N 0.94317 0.65644 0.52762 0.0
N120 N 0.93067 0.65188 0.55037 0.0
C121 C 0.9072 0.65197 0.54692 0.0
C122 C 0.90501 0.65739 0.52065 0.0
C123 C 0.93782 0.66866 0.48147 0.0
H124 H 0.95906 0.68568 0.48171 0.0
H125 H 0.92519 0.67536 0.47087 0.0
H126 H 0.93728 0.65142 0.47082 0.0
O127 O 0.97264 0.62114 0.53692 0.0
O128 O 0.95461 0.61716 0.57646 0.0
H129 H 0.86642 0.63981 0.55962 0.0
H130 H 0.89321 0.66392 0.58047 0.0
C131 C 0.8866 0.64572 0.56804 0.0
H132 H 0.8847 0.62892 0.58053 0.0
H133 H 0.90991 0.59921 0.61166 0.0
O134 O 0.98827 0.66323 0.48806 0.0
C135 C 0.96384 0.60838 0.55859 0.0
Co136 Co 0.32492 0.97181 0.69148 0.0
Co137 Co 0.30635 0.94798 0.74814 0.0
C138 C 0.31795 1.00414 0.73447 0.0
O139 O 0.32432 1.00212 0.71084 0.0
O140 O 0.31033 0.98457 0.75074 0.0
C141 C 0.34427 1.00233 0.6418 0.0
O142 O 0.35812 0.02432 0.65598 0.0
C143 C 0.27161 0.92593 0.79522 0.0
C144 C 0.28554 0.89859 0.81042 0.0
C145 C 0.26677 0.90687 0.81468 0.0
N146 N 0.29211 0.92845 0.78007 0.0
N147 N 0.30059 0.91238 0.78954 0.0
C148 C 0.25558 0.9396 0.7895 0.0
H149 H 0.25852 0.94663 0.76878 0.0
H150 H 0.23371 0.92564 0.79345 0.0
H151 H 0.26269 0.95751 0.80251 0.0
C152 C 0.2723 0.92299 0.6782 0.0
N153 N 0.29136 0.93888 0.69581 0.0
N154 N 0.28356 0.92837 0.71942 0.0
C155 C 0.25938 0.90522 0.71748 0.0
C156 C 0.25144 0.9011 0.6913 0.0
C157 C 0.2733 0.9296 0.64961 0.0
H158 H 0.2891 0.92665 0.63999 0.0
H159 H 0.27886 0.95112 0.64721 0.0
H160 H 0.25357 0.91662 0.63975 0.0
O161 O 0.35608 0.96785 0.70391 0.0
O162 O 0.34277 0.95206 0.74426 0.0
H163 H 0.25901 0.88436 0.75272 0.0
H164 H 0.2288 0.86642 0.73302 0.0
C165 C 0.24456 0.88673 0.73998 0.0
H166 H 0.2346 0.89564 0.75175 0.0
H167 H 0.31604 0.9101 0.78115 0.0
O168 O 0.33002 0.97963 0.6532 0.0
C169 C 0.3603 0.95994 0.72594 0.0
Co170 Co 0.35797 0.32677 0.85422 0.0
Co171 Co 0.36464 0.30259 0.90722 0.0
C172 C 0.32074 0.31625 0.90071 0.0
O173 O 0.32844 0.3245 0.87726 0.0
O174 O 0.33276 0.30689 0.91472 0.0
C175 C 0.32887 0.32301 0.80713 0.0
O176 O 0.30816 0.30471 0.82077 0.0
C177 C 0.35409 0.26659 0.95325 0.0
C178 C 0.39535 0.27363 0.96066 0.0
C179 C 0.36874 0.25868 0.96924 0.0
N180 N 0.37134 0.28516 0.93597 0.0
N181 N 0.39598 0.28945 0.94075 0.0
C182 C 0.32402 0.25503 0.95261 0.0
H183 H 0.31745 0.25767 0.93283 0.0
H184 H 0.31331 0.23318 0.95786 0.0
H185 H 0.31839 0.26593 0.96707 0.0
C186 C 0.35598 0.27651 0.83361 0.0
N187 N 0.35788 0.29314 0.85342 0.0
N188 N 0.3594 0.28242 0.87584 0.0
C189 C 0.35784 0.25837 0.87106 0.0
C190 C 0.35571 0.25383 0.84411 0.0
C191 C 0.3563 0.28295 0.80503 0.0
H192 H 0.36961 0.30499 0.8016 0.0
H193 H 0.33541 0.27692 0.79866 0.0
H194 H 0.36364 0.27173 0.79295 0.0
O195 O 0.39345 0.35667 0.86688 0.0
O196 O 0.39789 0.33903 0.90419 0.0
H197 H 0.37684 0.24788 0.90149 0.0
H198 H 0.35047 0.21895 0.88423 0.0
C199 C 0.35665 0.23937 0.89207 0.0
H200 H 0.34176 0.23719 0.9072 0.0
H201 H 0.41315 0.30275 0.92994 0.0
O202 O 0.35205 0.33568 0.818 0.0
C203 C 0.40681 0.35837 0.88757 0.0
Co204 Co 0.65803 0.97487 0.81236 0.0
Co205 Co 0.65118 0.94808 0.75715 0.0
C206 C 0.69601 1.00431 0.76656 0.0
O207 O 0.68789 1.00354 0.79013 0.0
O208 O 0.68406 0.98382 0.75144 0.0
C209 C 0.68564 0.9951 0.86166 0.0
O210 O 0.70608 0.99549 0.84931 0.0
C211 C 0.65902 0.92304 0.7093 0.0
C212 C 0.61633 0.89256 0.70078 0.0
C213 C 0.6427 0.90184 0.69248 0.0
N214 N 0.64288 0.92574 0.72688 0.0
N215 N 0.61742 0.90774 0.72138 0.0
C216 C 0.68933 0.93884 0.71025 0.0
H217 H 0.69642 0.94777 0.73003 0.0
H218 H 0.69789 0.92568 0.70518 0.0
H219 H 0.69682 0.95558 0.69568 0.0
C220 C 0.66012 0.92498 0.82846 0.0
N221 N 0.65768 0.94103 0.81033 0.0
N222 N 0.65516 0.93009 0.78696 0.0
C223 C 0.65615 0.90699 0.78953 0.0
C224 C 0.65952 0.90314 0.81585 0.0
C225 C 0.66159 0.92936 0.85753 0.0
H226 H 0.64912 0.93843 0.86334 0.0
H227 H 0.68298 0.94315 0.86326 0.0
H228 H 0.65432 0.90994 0.86827 0.0
O229 O 0.6225 0.97041 0.80094 0.0
O230 O 0.61957 0.95342 0.76119 0.0
H231 H 0.63585 0.88217 0.75627 0.0
H232 H 0.65666 0.87182 0.77392 0.0
C233 C 0.65513 0.88952 0.76715 0.0
H234 H 0.67217 0.90167 0.75357 0.0
H235 H 0.60079 0.90526 0.73225 0.0
O236 O 0.66356 0.98757 0.8494 0.0
C237 C 0.61016 0.96191 0.77912 0.0
Co238 Co 0.68857 0.65502 0.97723 0.0
Co239 Co 0.71124 0.64947 0.92306 0.0
C240 C 0.69778 0.69335 0.9321 0.0
O241 O 0.69015 0.68524 0.95561 0.0
O242 O 0.70665 0.68149 0.91725 0.0
C243 C 0.69109 0.68167 0.02603 0.0
O244 O 0.70766 0.70386 0.01306 0.0
C245 C 0.74331 0.66027 0.87423 0.0
C246 C 0.738 0.61967 0.86669 0.0
C247 C 0.75027 0.64588 0.85696 0.0
N248 N 0.72782 0.64327 0.8934 0.0
N249 N 0.72471 0.61907 0.88873 0.0
C250 C 0.74919 0.68887 0.87171 0.0
H251 H 0.72975 0.68862 0.86908 0.0
H252 H 0.75862 0.70005 0.89013 0.0
H253 H 0.76245 0.69953 0.85471 0.0
C254 C 0.74001 0.65787 0.9955 0.0
N255 N 0.72243 0.65554 0.97647 0.0
N256 N 0.73243 0.65437 0.95354 0.0
C257 C 0.75693 0.65656 0.95717 0.0
C258 C 0.76256 0.65874 0.98393 0.0
C259 C 0.73469 0.65766 0.02432 0.0
H260 H 0.713 0.64341 0.02858 0.0
H261 H 0.73972 0.67833 0.0305 0.0
H262 H 0.74724 0.65152 0.03592 0.0
O263 O 0.65841 0.61978 0.96434 0.0
O264 O 0.67508 0.61605 0.92623 0.0
H265 H 0.76769 0.63807 0.92657 0.0
H266 H 0.79644 0.66631 0.94217 0.0
C267 C 0.77534 0.65846 0.93527 0.0
H268 H 0.77545 0.6722 0.91978 0.0
H269 H 0.71346 0.6021 0.90063 0.0
O270 O 0.68018 0.65903 0.01414 0.0
C271 C 0.65618 0.60678 0.94328 0.0
Co272 Co 0.03865 0.68434 0.14449 0.0
Co273 Co 0.06749 0.70861 0.09066 0.0
C274 C 0.00925 0.69353 0.10033 0.0
O275 O 0.00963 0.68609 0.12394 0.0
O276 O 0.0301 0.70239 0.08558 0.0
C277 C 0.01166 0.67982 0.19442 0.0
O278 O 1.00067 0.69257 0.18274 0.0
C279 C 0.09027 0.74498 0.04383 0.0
C280 C 0.12077 0.73416 0.03123 0.0
C281 C 0.10993 0.75042 0.02486 0.0
N282 N 0.08973 0.72642 0.06069 0.0
N283 N 0.10807 0.72016 0.05299 0.0
C284 C 0.07162 0.75634 0.04519 0.0
H285 H 0.05356 0.74332 0.05727 0.0
H286 H 0.08243 0.77671 0.05434 0.0
H287 H 0.06527 0.75854 0.02514 0.0
C288 C 0.08601 0.73583 0.16382 0.0
N289 N 0.07155 0.71854 0.14433 0.0
N290 N 0.08348 0.72898 0.12173 0.0
C291 C 0.1058 0.75331 0.12611 0.0
C292 C 0.10814 0.75853 0.15296 0.0
C293 C 0.07943 0.73015 0.19244 0.0
H294 H 0.07459 0.70917 0.19707 0.0
H295 H 0.0614 0.73201 0.19704 0.0
H296 H 0.09658 0.74441 0.20502 0.0
O297 O 0.04428 0.65509 0.13004 0.0
O298 O 0.06574 0.67287 0.09257 0.0
H299 H 0.13337 0.76204 0.09418 0.0
H300 H 0.13922 0.79175 0.11243 0.0
C301 C 0.12349 0.77181 0.10476 0.0
H302 H 0.11078 0.77519 0.09052 0.0
H303 H 0.1118 0.70613 0.06252 0.0
O304 O 0.02716 0.6741 0.18141 0.0
C305 C 0.05563 0.65348 0.10911 0.0
Co306 Co 0.35851 0.03983 0.3088 0.0
Co307 Co 0.36184 0.06403 0.25262 0.0
C308 C 0.319 0.00715 0.26551 0.0
O309 O 0.32767 0.00931 0.28907 0.0
O310 O 0.33026 0.02691 0.24935 0.0
C311 C 0.34043 0.00954 0.35883 0.0
O312 O 0.32225 0.98865 0.34539 0.0
C313 C 0.34887 0.08315 0.20337 0.0
C314 C 0.38986 0.11566 0.19182 0.0
C315 C 0.36291 0.10275 0.18428 0.0
N316 N 0.36684 0.08465 0.22143 0.0
N317 N 0.39125 0.10408 0.21435 0.0
C318 C 0.31943 0.06205 0.20368 0.0
H319 H 0.31738 0.04223 0.19836 0.0
H320 H 0.31112 0.06001 0.22381 0.0
H321 H 0.30752 0.06666 0.1895 0.0
C322 C 0.35456 0.08815 0.32367 0.0
N323 N 0.35712 0.07238 0.3055 0.0
N324 N 0.35742 0.08209 0.28198 0.0
C325 C 0.35431 0.10399 0.28438 0.0
C326 C 0.35241 0.10864 0.31096 0.0
C327 C 0.35599 0.08456 0.35266 0.0
H328 H 0.37319 0.08124 0.35696 0.0
H329 H 0.33701 0.0664 0.35929 0.0
H330 H 0.359 0.10254 0.36385 0.0
O331 O 0.39374 0.04513 0.29578 0.0
O332 O 0.39539 0.06156 0.25589 0.0
H333 H 0.37103 0.13066 0.25143 0.0
H334 H 0.34374 0.13257 0.26761 0.0
C335 C 0.35121 0.11879 0.26153 0.0
H336 H 0.33657 0.10397 0.24737 0.0
H337 H 0.40891 0.10945 0.22497 0.0
O338 O 0.35666 0.03133 0.34687 0.0
C339 C 0.4057 0.0539 0.27381 0.0
Co340 Co 0.32858 0.35588 0.47787 0.0
Co341 Co 0.30647 0.36344 0.4241 0.0
C342 C 0.31944 0.31936 0.43103 0.0
O343 O 0.32607 0.3259 0.45501 0.0
O344 O 0.31154 0.3323 0.41652 0.0
C345 C 0.32214 0.32664 0.52538 0.0
O346 O 0.30269 0.3067 0.51196 0.0
C347 C 0.27258 0.35425 0.37678 0.0
C348 C 0.27861 0.39538 0.37099 0.0
C349 C 0.26474 0.3692 0.36117 0.0
N350 N 0.29008 0.3709 0.39504 0.0
N351 N 0.29381 0.39548 0.39122 0.0
C352 C 0.26174 0.32428 0.37617 0.0
H353 H 0.2637 0.31688 0.39576 0.0
H354 H 0.24014 0.31337 0.37005 0.0
H355 H 0.27362 0.3198 0.36182 0.0
C356 C 0.27812 0.35443 0.49703 0.0
N357 N 0.29527 0.35627 0.47774 0.0
N358 N 0.28504 0.35739 0.45491 0.0
C359 C 0.26055 0.35514 0.45886 0.0
C360 C 0.25535 0.35336 0.48574 0.0
C361 C 0.28433 0.35592 0.52578 0.0
H362 H 0.30646 0.36858 0.52914 0.0
H363 H 0.27726 0.3352 0.53342 0.0
H364 H 0.27379 0.36471 0.53685 0.0
O365 O 0.35905 0.39156 0.46599 0.0
O366 O 0.34291 0.3962 0.42787 0.0
H367 H 0.24868 0.37286 0.42829 0.0
H368 H 0.22054 0.34414 0.44422 0.0
C369 C 0.24167 0.35262 0.43717 0.0
H370 H 0.24176 0.33897 0.42181 0.0
H371 H 0.3062 0.4122 0.40293 0.0
O372 O 0.33648 0.3495 0.51426 0.0
C373 C 0.36165 0.40496 0.44506 0.0
Co374 Co 0.97982 0.32557 0.64645 0.0
Co375 Co 0.95084 0.30577 0.59202 0.0
C376 C 1.00741 0.31636 0.6002 0.0
O377 O 1.0074 0.32297 0.62417 0.0
O378 O 0.98683 0.30914 0.5854 0.0
C379 C 0.00942 0.32768 0.69385 0.0
O380 O 0.0204 0.31662 0.67941 0.0
C381 C 0.9236 0.27093 0.54582 0.0
C382 C 0.89683 0.2869 0.53425 0.0
C383 C 0.90358 0.26736 0.52795 0.0
N384 N 0.92813 0.29147 0.56196 0.0
N385 N 0.91226 0.30106 0.55472 0.0
C386 C 0.93676 0.25404 0.54901 0.0
H387 H 0.94511 0.25627 0.56915 0.0
H388 H 0.92199 0.23239 0.54498 0.0
H389 H 0.95373 0.26102 0.53478 0.0
C390 C 0.93147 0.27383 0.66379 0.0
N391 N 0.94607 0.29233 0.64512 0.0
N392 N 0.93357 0.28412 0.62239 0.0
C393 C 0.91033 0.26033 0.626 0.0
C394 C 0.90827 0.25286 0.65231 0.0
C395 C 0.94085 0.27528 0.69154 0.0
H396 H 0.94258 0.29354 0.70117 0.0
H397 H 0.96124 0.2773 0.69145 0.0
H398 H 0.92699 0.25699 0.70308 0.0
O399 O 0.9758 0.35707 0.63472 0.0
O400 O 0.95638 0.34261 0.59588 0.0
H401 H 0.88698 0.26018 0.59289 0.0
H402 H 0.86991 0.23046 0.61335 0.0
C403 C 0.88981 0.24557 0.60494 0.0
H404 H 0.89715 0.23493 0.59205 0.0
H405 H 0.9115 0.3169 0.56417 0.0
O406 O 0.99235 0.33309 0.6835 0.0
C407 C 0.96627 0.36082 0.61347 0.0
H408 H 0.22985 0.38732 0.35151 0.0
H409 H 0.19747 0.3748 0.31563 0.0
H410 H 0.22068 0.31811 0.28691 0.0
H411 H 0.25385 0.33117 0.32262 0.0
H412 H 0.21968 0.35013 0.24814 0.0
H413 H 0.1588 0.29448 0.31462 0.0
H414 H 0.13819 0.28347 0.35877 0.0
H415 H 0.11124 0.34109 0.34872 0.0
H416 H 0.13208 0.35281 0.30469 0.0
H417 H 0.1241 0.32666 0.1474 0.0
H418 H 0.1436 0.31486 0.18461 0.0
H419 H 0.13498 0.37204 0.23329 0.0
H420 H 0.11464 0.38309 0.19648 0.0
H421 H 0.12419 0.32729 0.26112 0.0
H422 H 0.19398 0.38972 0.20061 0.0
H423 H 0.21651 0.40341 0.1574 0.0
H424 H 0.22751 0.33414 0.15726 0.0
H425 H 0.20472 0.31987 0.20036 0.0
C426 C 0.22795 0.37203 0.33769 0.0
C427 C 0.24413 0.35995 0.34011 0.0
C428 C 0.20924 0.3647 0.31732 0.0
C429 C 0.20626 0.34512 0.29888 0.0
C430 C 0.22241 0.33299 0.30116 0.0
C431 C 0.24116 0.34029 0.32169 0.0
C432 C 0.1876 0.33907 0.27633 0.0
C433 C 0.19858 0.34437 0.2509 0.0
C434 C 0.16018 0.33194 0.28 0.0
C435 C 0.14712 0.3246 0.30633 0.0
C436 C 0.1486 0.30491 0.32186 0.0
C437 C 0.13687 0.29854 0.34688 0.0
C438 C 0.12344 0.31159 0.35656 0.0
C439 C 0.12164 0.33098 0.3412 0.0
C440 C 0.13337 0.33747 0.31618 0.0
C441 C 0.1254 0.33588 0.16633 0.0
C442 C 0.11739 0.35539 0.16928 0.0
C443 C 0.13687 0.32941 0.18746 0.0
C444 C 0.14089 0.34269 0.21169 0.0
C445 C 0.13194 0.36142 0.21485 0.0
C446 C 0.12046 0.36783 0.1938 0.0
C447 C 0.15658 0.33923 0.23313 0.0
C448 C 0.14505 0.33221 0.25832 0.0
C449 C 0.18355 0.3449 0.22931 0.0
C450 C 0.19735 0.35355 0.2035 0.0
C451 C 0.20103 0.37731 0.19126 0.0
C452 C 0.21387 0.38519 0.16681 0.0
C453 C 0.22335 0.3696 0.15455 0.0
C454 C 0.22009 0.34615 0.16675 0.0
C455 C 0.20722 0.33816 0.19119 0.0
H456 H 0.23329 0.37573 0.13562 0.0
H457 H 0.1144 0.30665 0.37594 0.0
H458 H 0.73581 0.12554 0.35837 0.0
H459 H 0.76686 0.14847 0.3947 0.0
H460 H 0.82981 0.14164 0.35456 0.0
H461 H 0.79881 0.11883 0.31779 0.0
H462 H 0.8278 0.13361 0.41187 0.0
H463 H 0.83337 0.19779 0.34783 0.0
H464 H 0.8151 0.21803 0.31692 0.0
H465 H 0.77619 0.2345 0.38071 0.0
H466 H 0.79386 0.21394 0.41196 0.0
H467 H 0.92543 0.2447 0.49496 0.0
H468 H 0.90262 0.21387 0.45806 0.0
H469 H 0.82866 0.21367 0.47672 0.0
H470 H 0.85105 0.24401 0.5135 0.0
H471 H 0.84361 0.22666 0.42565 0.0
H472 H 0.83495 0.159 0.48898 0.0
H473 H 0.85257 0.13814 0.51988 0.0
H474 H 0.89796 0.12873 0.45753 0.0
H475 H 0.88088 0.14991 0.42631 0.0
C476 C 0.75612 0.1285 0.35742 0.0
C477 C 0.7648 0.12025 0.33527 0.0
C478 C 0.7738 0.14153 0.37822 0.0
C479 C 0.80064 0.1469 0.37717 0.0
C480 C 0.80909 0.13749 0.35575 0.0
C481 C 0.79129 0.12433 0.33483 0.0
C482 C 0.82018 0.1647 0.3973 0.0
C483 C 0.83174 0.15415 0.41466 0.0
C484 C 0.82518 0.19143 0.40089 0.0
C485 C 0.8148 0.20416 0.38221 0.0
C486 C 0.82076 0.20556 0.35524 0.0
C487 C 0.81053 0.21711 0.33766 0.0
C488 C 0.79446 0.22751 0.34684 0.0
C489 C 0.78864 0.22643 0.37363 0.0
C490 C 0.79878 0.21486 0.39129 0.0
C491 C 0.90413 0.23749 0.49163 0.0
C492 C 0.88998 0.24666 0.50725 0.0
C493 C 0.89118 0.22001 0.47044 0.0
C494 C 0.86397 0.21154 0.46466 0.0
C495 C 0.84971 0.22008 0.48074 0.0
C496 C 0.86256 0.23744 0.50176 0.0
C497 C 0.85043 0.19529 0.44096 0.0
C498 C 0.84009 0.20628 0.42272 0.0
C499 C 0.84672 0.16911 0.43665 0.0
C500 C 0.85691 0.15635 0.45539 0.0
C501 C 0.84889 0.15272 0.48191 0.0
C502 C 0.85874 0.14079 0.49947 0.0
C503 C 0.87645 0.1322 0.49069 0.0
C504 C 0.88428 0.13545 0.46431 0.0
C505 C 0.87452 0.1474 0.44668 0.0
H506 H 0.88404 0.12296 0.50432 0.0
H507 H 0.78655 0.23644 0.3332 0.0
H508 H 0.6287 0.73304 0.52854 0.0
H509 H 0.63638 0.76398 0.56494 0.0
H510 H 0.69485 0.83122 0.51826 0.0
H511 H 0.68712 0.80016 0.48158 0.0
H512 H 0.70762 0.83416 0.5749 0.0
H513 H 0.63652 0.82277 0.51637 0.0
H514 H 0.59545 0.79628 0.48958 0.0
H515 H 0.55026 0.75545 0.55883 0.0
H516 H 0.59121 0.78138 0.58599 0.0
H517 H 0.68367 0.92595 0.65569 0.0
H518 H 0.69271 0.90343 0.61921 0.0
H519 H 0.62747 0.82613 0.64575 0.0
H520 H 0.6184 0.84836 0.68193 0.0
H521 H 0.62248 0.83445 0.59488 0.0
H522 H 0.69397 0.84381 0.65312 0.0
H523 H 0.73509 0.86946 0.68006 0.0
H524 H 0.77949 0.91431 0.61194 0.0
H525 H 0.73848 0.88916 0.58465 0.0
C526 C 0.64375 0.7543 0.52633 0.0
C527 C 0.65754 0.76423 0.50246 0.0
C528 C 0.64813 0.77192 0.54708 0.0
C529 C 0.66602 0.79986 0.54415 0.0
C530 C 0.68113 0.80968 0.52091 0.0
C531 C 0.67681 0.79193 0.50007 0.0
C532 C 0.6659 0.81871 0.56401 0.0
C533 C 0.6892 0.83464 0.57908 0.0
C534 C 0.64179 0.81919 0.56939 0.0
C535 C 0.61699 0.80388 0.55318 0.0
C536 C 0.61788 0.80801 0.52586 0.0
C537 C 0.59461 0.79311 0.51061 0.0
C538 C 0.57027 0.77416 0.52249 0.0
C539 C 0.56913 0.77013 0.54966 0.0
C540 C 0.59236 0.78494 0.56499 0.0
C541 C 0.67172 0.90411 0.65405 0.0
C542 C 0.6504 0.88888 0.6717 0.0
C543 C 0.67683 0.89129 0.63317 0.0
C544 C 0.66075 0.8631 0.6298 0.0
C545 C 0.64002 0.84791 0.64789 0.0
C546 C 0.63485 0.86065 0.66854 0.0
C547 C 0.6639 0.84922 0.60661 0.0
C548 C 0.64108 0.83431 0.59066 0.0
C549 C 0.68844 0.84981 0.60053 0.0
C550 C 0.71308 0.86484 0.61691 0.0
C551 C 0.71243 0.85932 0.64393 0.0
C552 C 0.73573 0.87373 0.65925 0.0
C553 C 0.75987 0.89357 0.64774 0.0
C554 C 0.76076 0.89897 0.62085 0.0
C555 C 0.73751 0.88464 0.60544 0.0
H556 H 0.77789 0.9047 0.65963 0.0
H557 H 0.55228 0.76264 0.51065 0.0
H558 H 0.85098 0.61828 0.65838 0.0
H559 H 0.82931 0.63122 0.69214 0.0
H560 H 0.90577 0.70312 0.70882 0.0
H561 H 0.92778 0.68997 0.67507 0.0
H562 H 0.88003 0.67437 0.75326 0.0
H563 H 0.85727 0.71077 0.68049 0.0
H564 H 0.84139 0.71198 0.63572 0.0
H565 H 0.7626 0.64514 0.65454 0.0
H566 H 0.7781 0.64322 0.69931 0.0
H567 H 0.79988 0.69169 0.85068 0.0
H568 H 0.82985 0.70397 0.81229 0.0
H569 H 0.7698 0.63206 0.77229 0.0
H570 H 0.73964 0.62019 0.81022 0.0
H571 H 0.79423 0.6751 0.7388 0.0
H572 H 0.82119 0.63245 0.80659 0.0
H573 H 0.8369 0.62948 0.851 0.0
H574 H 0.90792 0.70774 0.84077 0.0
H575 H 0.89242 0.71129 0.79639 0.0
C576 C 0.86315 0.63699 0.66906 0.0
C577 C 0.89099 0.65328 0.66389 0.0
C578 C 0.8507 0.64448 0.68819 0.0
C579 C 0.86584 0.66837 0.70268 0.0
C580 C 0.89369 0.68479 0.6976 0.0
C581 C 0.90617 0.67737 0.6782 0.0
C582 C 0.85254 0.67468 0.72435 0.0
C583 C 0.8617 0.67535 0.75007 0.0
C584 C 0.82848 0.67565 0.72017 0.0
C585 C 0.81891 0.67681 0.69329 0.0
C586 C 0.8366 0.69621 0.67505 0.0
C587 C 0.82766 0.69704 0.64967 0.0
C588 C 0.80101 0.67864 0.64228 0.0
C589 C 0.78323 0.6594 0.66029 0.0
C590 C 0.79208 0.65847 0.6857 0.0
C591 C 0.79279 0.67905 0.83333 0.0
C592 C 0.7673 0.65525 0.83315 0.0
C593 C 0.81001 0.68591 0.81156 0.0
C594 C 0.80207 0.66887 0.78948 0.0
C595 C 0.77626 0.64559 0.78903 0.0
C596 C 0.75912 0.63875 0.81073 0.0
C597 C 0.82115 0.67367 0.76763 0.0
C598 C 0.81304 0.67504 0.7419 0.0
C599 C 0.84614 0.6745 0.77178 0.0
C600 C 0.85549 0.67229 0.79836 0.0
C601 C 0.84005 0.6491 0.81391 0.0
C602 C 0.84893 0.6473 0.83905 0.0
C603 C 0.87335 0.66845 0.84874 0.0
C604 C 0.88898 0.69141 0.83326 0.0
C605 C 0.88016 0.69332 0.80812 0.0
H606 H 0.88019 0.66702 0.86821 0.0
H607 H 0.79413 0.67931 0.62262 0.0
H608 H 0.23781 0.85399 0.82814 0.0
H609 H 0.20319 0.83307 0.86209 0.0
H610 H 0.21118 0.91077 0.87981 0.0
H611 H 0.24625 0.93202 0.84563 0.0
H612 H 0.21361 0.88313 0.92405 0.0
H613 H 0.15404 0.86501 0.85249 0.0
H614 H 0.13612 0.85095 0.80767 0.0
H615 H 0.12043 0.7703 0.82357 0.0
H616 H 0.13867 0.78396 0.86836 0.0
H617 H 0.1161 0.80154 0.02157 0.0
H618 H 0.13421 0.83301 0.98436 0.0
H619 H 0.14252 0.77312 0.93999 0.0
H620 H 0.12383 0.74146 0.97672 0.0
H621 H 0.12478 0.8 0.90908 0.0
H622 H 0.19528 0.82211 0.97491 0.0
H623 H 0.21508 0.83577 0.0192 0.0
H624 H 0.21094 0.90883 0.01325 0.0
H625 H 0.19078 0.89538 0.96901 0.0
C626 C 0.23203 0.86662 0.83908 0.0
C627 C 0.24454 0.89458 0.83413 0.0
C628 C 0.2121 0.8546 0.85834 0.0
C629 C 0.20433 0.8703 0.87321 0.0
C630 C 0.2167 0.89828 0.86832 0.0
C631 C 0.23655 0.91033 0.84872 0.0
C632 C 0.18474 0.85729 0.89501 0.0
C633 C 0.19381 0.86544 0.9208 0.0
C634 C 0.15906 0.83404 0.89072 0.0
C635 C 0.14782 0.82557 0.86382 0.0
C636 C 0.14693 0.84431 0.8464 0.0
C637 C 0.13669 0.83641 0.82099 0.0
C638 C 0.12715 0.80975 0.81277 0.0
C639 C 0.1278 0.79094 0.82997 0.0
C640 C 0.13804 0.79874 0.8554 0.0
C641 C 0.12098 0.79478 0.00361 0.0
C642 C 0.11826 0.7689 0.00195 0.0
C643 C 0.13161 0.81291 0.98246 0.0
C644 C 0.13982 0.80545 0.95944 0.0
C645 C 0.13619 0.77927 0.95749 0.0
C646 C 0.12568 0.76127 0.97856 0.0
C647 C 0.1542 0.8252 0.938 0.0
C648 C 0.14414 0.81826 0.91231 0.0
C649 C 0.17902 0.84949 0.94236 0.0
C650 C 0.19121 0.85758 0.96885 0.0
C651 C 0.1984 0.84098 0.98315 0.0
C652 C 0.20972 0.8487 0.00821 0.0
C653 C 0.21418 0.87311 0.01907 0.0
C654 C 0.20741 0.88989 0.00484 0.0
C655 C 0.19604 0.88224 0.97978 0.0
H656 H 0.22295 0.87905 0.03848 0.0
H657 H 0.11925 0.80367 0.79309 0.0
H658 H 0.32828 0.24511 0.00598 0.0
H659 H 0.31503 0.21158 0.0414 0.0
H660 H 0.37545 0.19224 0.0154 0.0
H661 H 0.38816 0.22498 0.97969 0.0
H662 H 0.3292 0.14689 0.02923 0.0
H663 H 0.38793 0.23695 0.06539 0.0
H664 H 0.40033 0.28404 0.07584 0.0
H665 H 0.32672 0.2552 0.12008 0.0
H666 H 0.31374 0.20792 0.1096 0.0
H667 H 0.38289 0.11046 0.13497 0.0
H668 H 0.37126 0.12962 0.09758 0.0
H669 H 0.30954 0.13283 0.14396 0.0
H670 H 0.32147 0.11387 0.18167 0.0
H671 H 0.34346 0.18104 0.12079 0.0
H672 H 0.29058 0.09012 0.09228 0.0
H673 H 0.27993 0.04343 0.08254 0.0
H674 H 0.34302 0.07345 0.02438 0.0
H675 H 0.35435 0.12036 0.03403 0.0
C676 C 0.33823 0.23322 0.00741 0.0
C677 C 0.35909 0.23749 0.98988 0.0
C678 C 0.33083 0.21426 0.02782 0.0
C679 C 0.34432 0.19947 0.0311 0.0
C680 C 0.36465 0.20329 0.01319 0.0
C681 C 0.37205 0.22218 0.99291 0.0
C682 C 0.33877 0.18118 0.05394 0.0
C683 C 0.33227 0.1543 0.04928 0.0
C684 C 0.3419 0.19059 0.08013 0.0
C685 C 0.3497 0.21897 0.08643 0.0
C686 C 0.37429 0.24068 0.07716 0.0
C687 C 0.38144 0.26739 0.08312 0.0
C688 C 0.36427 0.27262 0.09853 0.0
C689 C 0.33996 0.25113 0.10808 0.0
C690 C 0.3327 0.22438 0.10215 0.0
C691 C 0.36641 0.11466 0.13696 0.0
C692 C 0.35269 0.11021 0.16095 0.0
C693 C 0.35969 0.12549 0.11558 0.0
C694 C 0.33925 0.13231 0.11784 0.0
C695 C 0.32513 0.12741 0.1417 0.0
C696 C 0.33175 0.11633 0.16311 0.0
C697 C 0.33487 0.14702 0.09604 0.0
C698 C 0.33956 0.17327 0.10086 0.0
C699 C 0.33018 0.13704 0.06999 0.0
C700 C 0.32339 0.10882 0.06398 0.0
C701 C 0.30232 0.0868 0.07753 0.0
C702 C 0.29613 0.06028 0.07201 0.0
C703 C 0.3108 0.05548 0.05287 0.0
C704 C 0.33166 0.07719 0.03919 0.0
C705 C 0.33794 0.10376 0.04465 0.0
H706 H 0.30599 0.03493 0.04863 0.0
H707 H 0.36985 0.29331 0.10313 0.0
H708 H 0.02306 0.42181 0.03527 0.0
H709 H 0.02398 0.46452 0.04374 0.0
H710 H 0.09271 0.48948 0.09521 0.0
H711 H 0.09086 0.44625 0.0879 0.0
H712 H 0.06198 0.50286 0.11703 0.0
H713 H 0.09681 0.51558 0.02972 0.0
H714 H 0.09754 0.50461 0.98298 0.0
H715 H 0.02429 0.50691 0.96957 0.0
H716 H 0.02292 0.51755 0.01632 0.0
H717 H 0.08826 0.64682 0.07403 0.0
H718 H 0.08999 0.60558 0.06505 0.0
H719 H 0.02614 0.5619 0.12163 0.0
H720 H 0.02516 0.60333 0.13149 0.0
H721 H 0.05733 0.55955 0.04542 0.0
H722 H 0.03071 0.51128 0.14977 0.0
H723 H 0.03731 0.52592 0.19609 0.0
H724 H 0.10752 0.60141 0.17468 0.0
H725 H 0.10156 0.58709 0.1283 0.0
C726 C 0.03842 0.43648 0.0483 0.0
C727 C 0.0569 0.43067 0.0609 0.0
C728 C 0.03905 0.461 0.05304 0.0
C729 C 0.05868 0.48058 0.06986 0.0
C730 C 0.07728 0.4748 0.08223 0.0
C731 C 0.07627 0.45007 0.07797 0.0
C732 C 0.05953 0.50679 0.07512 0.0
C733 C 0.061 0.51522 0.10131 0.0
C734 C 0.05884 0.52341 0.05472 0.0
C735 C 0.05963 0.51711 0.02657 0.0
C736 C 0.08076 0.51356 0.01683 0.0
C737 C 0.0813 0.50743 0.99034 0.0
C738 C 0.06094 0.505 0.97333 0.0
C739 C 0.04003 0.50876 0.98277 0.0
C740 C 0.03937 0.51487 0.00926 0.0
C741 C 0.07469 0.62846 0.08467 0.0
C742 C 0.05672 0.62844 0.10364 0.0
C743 C 0.07562 0.60483 0.07944 0.0
C744 C 0.05845 0.58058 0.09287 0.0
C745 C 0.0401 0.58043 0.11144 0.0
C746 C 0.03947 0.60415 0.117 0.0
C747 C 0.05961 0.55546 0.08731 0.0
C748 C 0.05839 0.54719 0.06111 0.0
C749 C 0.06161 0.53951 0.10763 0.0
C750 C 0.0655 0.5482 0.13553 0.0
C751 C 0.04761 0.53096 0.15497 0.0
C752 C 0.05123 0.53921 0.18123 0.0
C753 C 0.07276 0.56462 0.18831 0.0
C754 C 0.09079 0.58179 0.16915 0.0
C755 C 0.08727 0.57362 0.14287 0.0
H756 H 0.07552 0.57097 0.20864 0.0
H757 H 0.06139 0.50024 0.95282 0.0
H758 H 0.43126 0.06047 0.22658 0.0
H759 H 0.47364 0.06073 0.21801 0.0
H760 H 0.48185 0.04983 0.30068 0.0
H761 H 0.43926 0.04923 0.30946 0.0
H762 H 0.53033 0.09087 0.27593 0.0
H763 H 0.46112 0.99739 0.26322 0.0
H764 H 0.41915 0.96046 0.24388 0.0
H765 H 0.45351 0.98386 0.16663 0.0
H766 H 0.49557 0.0212 0.18549 0.0
H767 H 0.63451 0.05835 0.27117 0.0
H768 H 0.59255 0.05885 0.27901 0.0
H769 H 0.57585 0.05063 0.19577 0.0
H770 H 0.61734 0.04886 0.18794 0.0
H771 H 0.53142 0.02011 0.22011 0.0
H772 H 0.60009 0.11281 0.2307 0.0
H773 H 0.64214 0.15132 0.24812 0.0
H774 H 0.60957 0.13227 0.32633 0.0
H775 H 0.56744 0.09341 0.30942 0.0
C776 C 0.44207 0.05819 0.24299 0.0
C777 C 0.43179 0.05475 0.26872 0.0
C778 C 0.46626 0.05826 0.23802 0.0
C779 C 0.4808 0.05515 0.25869 0.0
C780 C 0.47092 0.05224 0.28445 0.0
C781 C 0.44653 0.05181 0.28941 0.0
C782 C 0.50621 0.0547 0.25336 0.0
C783 C 0.5306 0.07524 0.264 0.0
C784 C 0.50659 0.0348 0.2371 0.0
C785 C 0.48138 0.01226 0.22575 0.0
C786 C 0.45964 0.99481 0.24209 0.0
C787 C 0.43585 0.97377 0.23122 0.0
C788 C 0.43363 0.96986 0.20403 0.0
C789 C 0.45524 0.98694 0.18767 0.0
C790 C 0.47906 0.00803 0.19845 0.0
C791 C 0.62196 0.05671 0.25449 0.0
C792 C 0.62937 0.05369 0.2289 0.0
C793 C 0.59799 0.05716 0.25899 0.0
C794 C 0.58118 0.05536 0.23795 0.0
C795 C 0.58845 0.05214 0.21237 0.0
C796 C 0.61222 0.05119 0.20789 0.0
C797 C 0.55583 0.05633 0.24273 0.0
C798 C 0.53135 0.03587 0.23198 0.0
C799 C 0.55544 0.0766 0.25857 0.0
C800 C 0.5807 0.10005 0.26881 0.0
C801 C 0.60196 0.11672 0.25163 0.0
C802 C 0.62581 0.13863 0.26141 0.0
C803 C 0.62856 0.1442 0.28832 0.0
C804 C 0.60743 0.12792 0.30549 0.0
C805 C 0.58355 0.10596 0.29582 0.0
H806 H 0.64703 0.16117 0.29585 0.0
H807 H 0.4152 0.95356 0.19565 0.0
H808 H 0.58633 0.63419 0.43922 0.0
H809 H 0.54419 0.59185 0.44812 0.0
H810 H 0.53373 0.57421 0.36523 0.0
H811 H 0.57621 0.61639 0.35609 0.0
H812 H 0.48591 0.56758 0.39338 0.0
H813 H 0.55412 0.54109 0.39847 0.0
H814 H 0.59676 0.54494 0.41449 0.0
H815 H 0.5669 0.53237 0.49371 0.0
H816 H 0.52421 0.52887 0.47819 0.0
H817 H 0.37982 0.43166 0.39833 0.0
H818 H 0.42189 0.47381 0.38968 0.0
H819 H 0.44303 0.47981 0.4718 0.0
H820 H 0.40133 0.43685 0.4804 0.0
H821 H 0.4859 0.49329 0.44447 0.0
H822 H 0.41868 0.5198 0.44173 0.0
H823 H 0.37624 0.51796 0.42808 0.0
H824 H 0.40381 0.53294 0.34804 0.0
H825 H 0.44628 0.53451 0.36116 0.0
C826 C 0.57509 0.62135 0.42283 0.0
C827 C 0.58468 0.62866 0.39692 0.0
C828 C 0.55105 0.59713 0.42799 0.0
C829 C 0.53593 0.57989 0.40734 0.0
C830 C 0.54514 0.58727 0.38142 0.0
C831 C 0.56945 0.61131 0.37626 0.0
C832 C 0.51055 0.55409 0.41291 0.0
C833 C 0.48585 0.55114 0.40423 0.0
C834 C 0.51052 0.53312 0.42786 0.0
C835 C 0.53608 0.535 0.43719 0.0
C836 C 0.55673 0.53939 0.41933 0.0
C837 C 0.5809 0.54146 0.42832 0.0
C838 C 0.58457 0.53898 0.45511 0.0
C839 C 0.56404 0.53433 0.47297 0.0
C840 C 0.53985 0.53228 0.46408 0.0
C841 C 0.39335 0.44196 0.41461 0.0
C842 C 0.3871 0.43093 0.44011 0.0
C843 C 0.4174 0.46621 0.40964 0.0
C844 C 0.43551 0.48041 0.43014 0.0
C845 C 0.42941 0.46934 0.45562 0.0
C846 C 0.40551 0.4448 0.46054 0.0
C847 C 0.46096 0.50652 0.42486 0.0
C848 C 0.48576 0.50964 0.43363 0.0
C849 C 0.46103 0.52786 0.41036 0.0
C850 C 0.43555 0.52702 0.4024 0.0
C851 C 0.41561 0.52251 0.42119 0.0
C852 C 0.39156 0.52154 0.41355 0.0
C853 C 0.3873 0.52526 0.3872 0.0
C854 C 0.40712 0.53003 0.36844 0.0
C855 C 0.4312 0.53099 0.37597 0.0
H856 H 0.36867 0.5245 0.38133 0.0
H857 H 0.60329 0.54059 0.46203 0.0
H858 H 0.97141 0.57628 0.5232 0.0
H859 H 0.97257 0.53455 0.5325 0.0
H860 H 0.96024 0.54226 0.61488 0.0
H861 H 0.9587 0.58356 0.60583 0.0
H862 H 1.00216 0.53027 0.60444 0.0
H863 H 0.90866 0.49848 0.58144 0.0
H864 H 0.87197 0.49464 0.5528 0.0
H865 H 0.89753 0.46058 0.49162 0.0
H866 H 0.93464 0.46458 0.51979 0.0
H867 H 0.97152 0.39937 0.64919 0.0
H868 H 0.9716 0.44167 0.64013 0.0
H869 H 0.96412 0.42389 0.55713 0.0
H870 H 0.96273 0.38124 0.56618 0.0
H871 H 0.93272 0.44185 0.56768 0.0
H872 H 0.02582 0.47305 0.58856 0.0
H873 H 0.06412 0.47781 0.61523 0.0
H874 H 0.0422 0.51401 0.67743 0.0
H875 H 1.00355 0.50915 0.65124 0.0
C876 C 0.96896 0.56908 0.54328 0.0
C877 C 0.96484 0.58322 0.56373 0.0
C878 C 0.96959 0.54524 0.54856 0.0
C879 C 0.96643 0.5353 0.57439 0.0
C880 C 0.96276 0.54959 0.59483 0.0
C881 C 0.96175 0.57314 0.58956 0.0
C882 C 0.96655 0.5098 0.5802 0.0
C883 C 0.98686 0.51086 0.59663 0.0
C884 C 0.94697 0.48463 0.5695 0.0
C885 C 0.92459 0.4821 0.55261 0.0
C886 C 0.9066 0.49039 0.56179 0.0
C887 C 0.8857 0.48814 0.54567 0.0
C888 C 0.88247 0.47744 0.52038 0.0
C889 C 0.90009 0.4689 0.51119 0.0
C890 C 0.92104 0.47113 0.52724 0.0
C891 C 0.96995 0.40455 0.62903 0.0
C892 C 0.9671 0.38691 0.60844 0.0
C893 C 0.97015 0.42884 0.62382 0.0
C894 C 0.96825 0.43631 0.59785 0.0
C895 C 0.96554 0.41869 0.57733 0.0
C896 C 0.96481 0.39426 0.58256 0.0
C897 C 0.96853 0.46213 0.59188 0.0
C898 C 0.9482 0.46119 0.57546 0.0
C899 C 0.98838 0.48748 0.60228 0.0
C900 C 0.01163 0.49048 0.61804 0.0
C901 C 0.02905 0.48185 0.608 0.0
C902 C 0.05084 0.48459 0.62301 0.0
C903 C 0.05555 0.49614 0.64803 0.0
C904 C 0.03851 0.50503 0.65806 0.0
C905 C 0.01667 0.50231 0.64313 0.0
H906 H 0.07243 0.49824 0.65963 0.0
H907 H 0.86627 0.47571 0.50792 0.0
H908 H 0.38054 0.95533 0.77309 0.0
H909 H 0.42326 0.9564 0.78158 0.0
H910 H 0.44147 0.9661 0.69872 0.0
H911 H 0.39873 0.96537 0.68997 0.0
H912 H 0.4496 0.92573 0.72442 0.0
H913 H 0.4736 0.01913 0.73506 0.0
H914 H 0.46845 0.05641 0.75319 0.0
H915 H 0.47961 0.03504 0.83128 0.0
H916 H 0.48442 0.99735 0.81365 0.0
H917 H 0.58588 0.95766 0.7318 0.0
H918 H 0.54399 0.95791 0.72293 0.0
H919 H 0.53396 0.96605 0.80584 0.0
H920 H 0.57668 0.96692 0.81478 0.0
H921 H 0.52108 0.99723 0.7801 0.0
H922 H 0.49642 0.9042 0.77155 0.0
H923 H 0.49988 0.86527 0.75538 0.0
H924 H 0.4878 0.88326 0.67624 0.0
H925 H 0.48463 0.92254 0.6919 0.0
C926 C 0.39357 0.95768 0.7566 0.0
C927 C 0.38619 0.96031 0.73082 0.0
C928 C 0.41804 0.95837 0.76154 0.0
C929 C 0.43559 0.96149 0.74081 0.0
C930 C 0.42819 0.96372 0.715 0.0
C931 C 0.40382 0.96338 0.71005 0.0
C932 C 0.46161 0.96232 0.74622 0.0
C933 C 0.46545 0.94156 0.73625 0.0
C934 C 0.48181 0.98248 0.76242 0.0
C935 C 0.47911 1.00525 0.77305 0.0
C936 C 0.47473 0.02223 0.75612 0.0
C937 C 0.47191 0.04347 0.7663 0.0
C938 C 0.47363 0.04805 0.79338 0.0
C939 C 0.47825 0.03145 0.81032 0.0
C940 C 0.48105 0.01016 0.80024 0.0
C941 C 0.57478 0.95947 0.74821 0.0
C942 C 0.58458 0.96209 0.77405 0.0
C943 C 0.55069 0.95946 0.7431 0.0
C944 C 0.5354 0.96141 0.76373 0.0
C945 C 0.5453 0.9644 0.78956 0.0
C946 C 0.5697 0.96484 0.79467 0.0
C947 C 0.50928 0.9606 0.75824 0.0
C948 C 0.50534 0.98134 0.76824 0.0
C949 C 0.48878 0.94016 0.74237 0.0
C950 C 0.49054 0.91647 0.73289 0.0
C951 C 0.49469 0.89997 0.75068 0.0
C952 C 0.49657 0.87782 0.74161 0.0
C953 C 0.49413 0.87184 0.7148 0.0
C954 C 0.48972 0.88795 0.697 0.0
C955 C 0.48785 0.91014 0.70597 0.0
H956 H 0.4956 0.85469 0.70781 0.0
H957 H 0.47145 0.0645 0.80122 0.0
H958 H 0.4253 0.40907 0.86688 0.0
H959 H 0.46787 0.45052 0.87665 0.0
H960 H 0.49066 0.40558 0.92898 0.0
H961 H 0.44756 0.36439 0.92023 0.0
H962 H 0.50401 0.45015 0.9509 0.0
H963 H 0.51865 0.42746 0.86469 0.0
H964 H 0.50893 0.41561 0.81783 0.0
H965 H 0.51255 0.49153 0.80266 0.0
H966 H 0.52194 0.50369 0.84952 0.0
H967 H 0.6494 0.56683 0.90923 0.0
H968 H 0.60806 0.52386 0.90051 0.0
H969 H 0.56441 0.54517 0.95586 0.0
H970 H 0.60604 0.5876 0.96556 0.0
H971 H 0.56292 0.51099 0.88004 0.0
H972 H 0.512 0.49028 0.98294 0.0
H973 H 0.52537 0.49847 0.02961 0.0
H974 H 0.60097 0.50276 0.01113 0.0
H975 H 0.58791 0.49425 0.96442 0.0
C976 C 0.43943 0.40801 0.88039 0.0
C977 C 0.43306 0.3834 0.89271 0.0
C978 C 0.46388 0.43174 0.88589 0.0
C979 C 0.48284 0.43125 0.90328 0.0
C980 C 0.47646 0.40663 0.91554 0.0
C981 C 0.45181 0.38302 0.91045 0.0
C982 C 0.50909 0.45641 0.90903 0.0
C983 C 0.51687 0.46341 0.93536 0.0
C984 C 0.52634 0.47357 0.88887 0.0
C985 C 0.52074 0.46637 0.86066 0.0
C986 C 0.51718 0.44154 0.8514 0.0
C987 C 0.51176 0.43478 0.82483 0.0
C988 C 0.51006 0.45277 0.80729 0.0
C989 C 0.51384 0.4776 0.81628 0.0
C990 C 0.51924 0.48445 0.84283 0.0
C991 C 0.63103 0.56228 0.91968 0.0
C992 C 0.63107 0.58058 0.93822 0.0
C993 C 0.60733 0.53771 0.9146 0.0
C994 C 0.58303 0.53096 0.9277 0.0
C995 C 0.58296 0.54945 0.94594 0.0
C996 C 0.60678 0.57382 0.95139 0.0
C997 C 0.55775 0.50482 0.92191 0.0
C998 C 0.55009 0.4977 0.89558 0.0
C999 C 0.54114 0.48702 0.94205 0.0
C1000 C 0.54908 0.49191 0.97014 0.0
C1001 C 0.53143 0.49288 0.98886 0.0
C1002 C 0.53896 0.4976 0.01531 0.0
C1003 C 0.56404 0.50123 0.02332 0.0
C1004 C 0.5816 0.50005 0.00489 0.0
C1005 C 0.57416 0.49532 0.97842 0.0
H1006 H 0.56984 0.5049 0.0438 0.0
H1007 H 0.50586 0.4475 0.78673 0.0
H1008 H 0.03788 0.31066 0.72413 0.0
H1009 H 0.04195 0.31236 0.77208 0.0
H1010 H 0.99617 0.3538 0.77639 0.0
H1011 H 0.992 0.35226 0.72856 0.0
H1012 H 0.04151 0.37435 0.81145 0.0
H1013 H 0.96523 0.28788 0.78299 0.0
H1014 H 0.94714 0.24629 0.7564 0.0
H1015 H 0.99803 0.223 0.79781 0.0
H1016 H 0.01719 0.26499 0.82397 0.0
H1017 H 1.00377 0.35635 0.94444 0.0
H1018 H 1.00265 0.35667 0.8964 0.0
H1019 H 0.0269 0.29598 0.89441 0.0
H1020 H 0.02616 0.29434 0.94238 0.0
H1021 H 0.99454 0.28552 0.85739 0.0
H1022 H 0.07238 0.36752 0.88428 0.0
H1023 H 0.09842 0.4105 0.90843 0.0
H1024 H 0.05332 0.44259 0.87005 0.0
H1025 H 0.02672 0.39962 0.84593 0.0
C1026 C 0.02898 0.32046 0.73524 0.0
C1027 C 0.01439 0.33109 0.72253 0.0
C1028 C 0.03132 0.32139 0.76263 0.0
C1029 C 0.01912 0.33297 0.77775 0.0
C1030 C 1.00571 0.34477 0.76506 0.0
C1031 C 1.00324 0.34373 0.73772 0.0
C1032 C 0.01851 0.33105 0.80682 0.0
C1033 C 0.03105 0.35499 0.82159 0.0
C1034 C 1.00565 0.30571 0.81991 0.0
C1035 C 0.99285 0.27973 0.80526 0.0
C1036 C 0.97267 0.27397 0.78634 0.0
C1037 C 0.9623 0.25036 0.77128 0.0
C1038 C 0.97149 0.23204 0.77538 0.0
C1039 C 0.99098 0.23724 0.79463 0.0
C1040 C 1.00165 0.26097 0.80952 0.0
C1041 C 0.00847 0.34283 0.93367 0.0
C1042 C 0.01507 0.32535 0.94708 0.0
C1043 C 0.00813 0.34321 0.90621 0.0
C1044 C 0.01545 0.32691 0.89161 0.0
C1045 C 0.02124 0.30884 0.90509 0.0
C1046 C 0.0208 0.30788 0.93254 0.0
C1047 C 0.01748 0.32895 0.86239 0.0
C1048 C 1.00513 0.30499 0.84748 0.0
C1049 C 0.03132 0.35429 0.84917 0.0
C1050 C 0.04738 0.38025 0.86349 0.0
C1051 C 0.0679 0.38368 0.88111 0.0
C1052 C 0.08276 0.40804 0.89478 0.0
C1053 C 0.07748 0.42924 0.89082 0.0
C1054 C 0.05736 0.42613 0.87312 0.0
C1055 C 0.0424 0.40179 0.85943 0.0
H1056 H 0.08901 0.44809 0.90143 0.0
H1057 H 0.96354 0.21382 0.76368 0.0
H1058 H 0.71532 0.9851 0.89726 0.0
H1059 H 0.71329 0.98679 0.94528 0.0
H1060 H 0.65607 0.01511 0.9391 0.0
H1061 H 0.65725 0.01254 0.89099 0.0
H1062 H 0.70187 0.04446 0.97646 0.0
H1063 H 0.62964 0.95747 0.95396 0.0
H1064 H 0.60487 0.91176 0.93472 0.0
H1065 H 0.65452 0.88834 0.97819 0.0
H1066 H 0.68029 0.93427 0.997 0.0
H1067 H 0.66066 0.02585 0.1097 0.0
H1068 H 0.65808 0.02205 0.0619 0.0
H1069 H 0.70598 0.9827 0.06353 0.0
H1070 H 0.70839 0.98608 0.1115 0.0
H1071 H 0.66319 0.95913 0.0282 0.0
H1072 H 0.73461 0.04904 0.05166 0.0
H1073 H 0.75119 0.09206 0.07555 0.0
H1074 H 0.69699 0.10901 0.0316 0.0
H1075 H 0.67928 0.06553 0.00817 0.0
C1076 C 0.70253 0.99196 0.90612 0.0
C1077 C 0.68649 0.99877 0.89044 0.0
C1078 C 0.70128 0.99276 0.93351 0.0
C1079 C 0.68444 1.00096 0.94563 0.0
C1080 C 0.66915 0.00871 0.93004 0.0
C1081 C 0.66985 0.00723 0.90264 0.0
C1082 C 0.68253 1.00093 0.97463 0.0
C1083 C 0.69321 0.02581 0.98778 0.0
C1084 C 0.6713 0.97656 0.98931 0.0
C1085 C 0.65722 0.94952 0.97657 0.0
C1086 C 0.63574 0.94281 0.95895 0.0
C1087 C 0.62141 0.9168 0.94822 0.0
C1088 C 0.62809 0.89716 0.95524 0.0
C1089 C 0.64936 0.90359 0.97277 0.0
C1090 C 0.66393 0.92966 0.98337 0.0
C1091 C 0.67043 0.01613 0.09996 0.0
C1092 C 0.68493 0.00646 0.11441 0.0
C1093 C 0.66899 0.01405 0.07262 0.0
C1094 C 0.68221 1.0025 0.05917 0.0
C1095 C 0.69573 0.99179 0.07356 0.0
C1096 C 0.69713 0.99379 0.10096 0.0
C1097 C 0.68294 1.00263 0.03005 0.0
C1098 C 0.67205 0.97778 0.01686 0.0
C1099 C 0.69362 0.027 0.01535 0.0
C1100 C 0.70542 0.05387 0.02833 0.0
C1101 C 0.72613 0.06187 0.04716 0.0
C1102 C 0.73569 0.08632 0.06067 0.0
C1103 C 0.72514 0.10326 0.0551 0.0
C1104 C 0.70511 0.09584 0.03592 0.0
C1105 C 0.69525 0.07126 0.02257 0.0
H1106 H 0.73247 0.12213 0.06564 0.0
H1107 H 0.61679 0.87694 0.94711 0.0
H1108 H 0.66139 0.63885 0.0589 0.0
H1109 H 0.65895 0.63942 0.10676 0.0
H1110 H 0.71189 0.72621 0.10651 0.0
H1111 H 0.71426 0.72589 0.05852 0.0
H1112 H 0.69875 0.6544 0.1423 0.0
H1113 H 0.69481 0.7527 0.15878 0.0
H1114 H 0.67832 0.78011 0.13631 0.0
H1115 H 0.61816 0.70928 0.09588 0.0
H1116 H 0.63405 0.6814 0.11836 0.0
H1117 H 0.72695 0.69863 0.27615 0.0
H1118 H 0.72709 0.6967 0.22806 0.0
H1119 H 0.64144 0.66917 0.22691 0.0
H1120 H 0.64107 0.671 0.27479 0.0
H1121 H 0.66959 0.71032 0.19191 0.0
H1122 H 0.66209 0.62514 0.2154 0.0
H1123 H 0.67537 0.59517 0.23787 0.0
H1124 H 0.75231 0.63486 0.1983 0.0
H1125 H 0.73962 0.66533 0.17586 0.0
C1126 C 0.67232 0.65813 0.06896 0.0
C1127 C 0.68798 0.68236 0.05486 0.0
C1128 C 0.67101 0.65838 0.09634 0.0
C1129 C 0.68518 0.68284 0.1102 0.0
C1130 C 0.70056 0.70712 0.09619 0.0
C1131 C 0.7019 0.7069 0.06876 0.0
C1132 C 0.68428 0.68276 0.13933 0.0
C1133 C 0.69242 0.66667 0.15314 0.0
C1134 C 0.67576 0.69855 0.15348 0.0
C1135 C 0.66583 0.71505 0.14005 0.0
C1136 C 0.67801 0.74297 0.14516 0.0
C1137 C 0.66877 0.75859 0.13241 0.0
C1138 C 0.64727 0.74646 0.11461 0.0
C1139 C 0.63489 0.71867 0.10959 0.0
C1140 C 0.64403 0.70296 0.1223 0.0
C1141 C 0.70812 0.69198 0.26566 0.0
C1142 C 0.684 0.68492 0.27932 0.0
C1143 C 0.70823 0.69087 0.2382 0.0
C1144 C 0.68426 0.68276 0.22395 0.0
C1145 C 0.66017 0.67556 0.23754 0.0
C1146 C 0.65999 0.67648 0.26493 0.0
C1147 C 0.68425 0.68213 0.19484 0.0
C1148 C 0.67603 0.69815 0.18105 0.0
C1149 C 0.69233 0.66599 0.18071 0.0
C1150 C 0.70001 0.6477 0.19417 0.0
C1151 C 0.68193 0.62764 0.21167 0.0
C1152 C 0.68934 0.61053 0.22436 0.0
C1153 C 0.7147 0.61316 0.21957 0.0
C1154 C 0.73269 0.63287 0.20202 0.0
C1155 C 0.72539 0.65005 0.1893 0.0
H1156 H 0.72039 0.59989 0.22941 0.0
H1157 H 0.64016 0.75859 0.10475 0.0
H1158 H 0.98209 0.67929 0.44373 0.0
H1159 H 0.98456 0.68281 0.39603 0.0
H1160 H 0.03397 0.64514 0.39444 0.0
H1161 H 0.03131 0.64112 0.44252 0.0
H1162 H 0.05181 0.69162 0.3599 0.0
H1163 H 0.97153 0.60695 0.38036 0.0
H1164 H 0.92823 0.57783 0.40317 0.0
H1165 H 0.89441 0.62344 0.36924 0.0
H1166 H 0.93768 0.65311 0.34652 0.0
H1167 H 0.03662 0.65927 0.22487 0.0
H1168 H 0.0353 0.65487 0.27259 0.0
H1169 H 0.9798 0.68545 0.27706 0.0
H1170 H 0.9809 0.68987 0.22911 0.0
H1171 H 0.96545 0.64204 0.31027 0.0
H1172 H 0.04429 0.72655 0.28988 0.0
H1173 H 0.08717 0.7568 0.26695 0.0
H1174 H 0.12367 0.71367 0.30087 0.0
H1175 H 0.08078 0.68276 0.3236 0.0
C1176 C 0.99356 0.67177 0.43339 0.0
C1177 C 1.00621 0.65959 0.44701 0.0
C1178 C 0.99497 0.67385 0.40606 0.0
C1179 C 0.00918 0.66397 0.39173 0.0
C1180 C 0.02283 0.65282 0.40521 0.0
C1181 C 0.02123 0.65049 0.43265 0.0
C1182 C 0.00873 0.6644 0.36264 0.0
C1183 C 0.03304 0.68045 0.34898 0.0
C1184 C 0.98407 0.65041 0.34855 0.0
C1185 C 0.95793 0.63241 0.36194 0.0
C1186 C 0.95493 0.61091 0.37792 0.0
C1187 C 0.93038 0.59428 0.39081 0.0
C1188 C 0.90861 0.59882 0.38771 0.0
C1189 C 0.91131 0.61996 0.37165 0.0
C1190 C 0.93583 0.63668 0.35874 0.0
C1191 C 0.02391 0.66486 0.23591 0.0
C1192 C 0.00895 0.67507 0.22316 0.0
C1193 C 0.02329 0.66243 0.26322 0.0
C1194 C 1.00775 0.67018 0.27837 0.0
C1195 C 0.992 0.67944 0.2657 0.0
C1196 C 0.99269 0.682 0.23832 0.0
C1197 C 0.00854 0.66922 0.30745 0.0
C1198 C 0.98428 0.65312 0.32114 0.0
C1199 C 0.03322 0.68336 0.32155 0.0
C1200 C 0.0592 0.70214 0.30824 0.0
C1201 C 0.06138 0.72336 0.29229 0.0
C1202 C 0.08569 0.74064 0.27934 0.0
C1203 C 0.10811 0.73712 0.28241 0.0
C1204 C 0.10627 0.71634 0.29849 0.0
C1205 C 0.08195 0.69893 0.31141 0.0
H1206 H 0.12691 0.75053 0.27239 0.0
H1207 H 0.88962 0.58593 0.39771 0.0
H1208 H 0.37287 0.04695 0.61014 0.0
H1209 H 0.37312 0.04854 0.56204 0.0
H1210 H 0.31668 0.96246 0.55961 0.0
H1211 H 0.31687 0.96059 0.60737 0.0
H1212 H 0.35495 0.97526 0.52441 0.0
H1213 H 0.29648 0.00965 0.54881 0.0
H1214 H 0.28362 0.03975 0.57153 0.0
H1215 H 0.34798 0.10886 0.53234 0.0
H1216 H 0.36147 0.0792 0.50965 0.0
H1217 H 0.31072 0.966 0.39136 0.0
H1218 H 0.31234 0.96501 0.43945 0.0
H1219 H 0.37415 0.0495 0.44004 0.0
H1220 H 0.37281 0.05069 0.3922 0.0
H1221 H 0.33377 0.038 0.47589 0.0
H1222 H 0.39144 1.0026 0.45099 0.0
H1223 H 0.40313 0.97178 0.42797 0.0
H1224 H 0.33852 0.90353 0.46792 0.0
H1225 H 0.3262 0.93393 0.49093 0.0
C1226 C 0.36054 0.02837 0.59936 0.0
C1227 C 0.34475 1.00366 0.61268 0.0
C1228 C 0.3606 0.02932 0.57186 0.0
C1229 C 0.34467 0.00565 0.55718 0.0
C1230 C 0.32914 0.98098 0.57046 0.0
C1231 C 0.32918 0.97999 0.59786 0.0
C1232 C 0.34417 0.00639 0.52799 0.0
C1233 C 0.34999 0.98876 0.51383 0.0
C1234 C 0.33821 0.02434 0.51411 0.0
C1235 C 0.33017 0.04223 0.52776 0.0
C1236 C 0.30804 0.03129 0.54521 0.0
C1237 C 0.30061 0.04827 0.55805 0.0
C1238 C 0.31503 0.07621 0.55344 0.0
C1239 C 0.33686 0.08722 0.53593 0.0
C1240 C 0.3444 0.07034 0.52306 0.0
C1241 C 0.32472 0.98434 0.40172 0.0
C1242 C 0.34161 0.00842 0.38789 0.0
C1243 C 0.32566 0.98372 0.42919 0.0
C1244 C 0.34346 0.00717 0.4433 0.0
C1245 C 0.36024 0.03121 0.42955 0.0
C1246 C 0.35946 0.0318 0.40215 0.0
C1247 C 0.34445 0.00683 0.47242 0.0
C1248 C 0.33874 0.02453 0.48653 0.0
C1249 C 0.35034 0.98884 0.48625 0.0
C1250 C 0.35772 0.97052 0.47247 0.0
C1251 C 0.37957 0.981 0.4547 0.0
C1252 C 0.38634 0.96361 0.44169 0.0
C1253 C 0.37153 0.9357 0.44642 0.0
C1254 C 0.34995 0.92514 0.46424 0.0
C1255 C 0.34308 0.94245 0.47729 0.0
H1256 H 0.37681 0.92227 0.43634 0.0
H1257 H 0.30923 0.08932 0.5634 0.0
H1258 H 0.2859 0.28657 0.55784 0.0
H1259 H 0.2869 0.28545 0.60587 0.0
H1260 H 0.36389 0.3599 0.60598 0.0
H1261 H 0.363 0.36132 0.55793 0.0
H1262 H 0.3603 0.31988 0.64235 0.0
H1263 H 0.31051 0.36409 0.61597 0.0
H1264 H 0.27471 0.36669 0.59113 0.0
H1265 H 0.21375 0.29602 0.63139 0.0
H1266 H 0.24926 0.29267 0.65611 0.0
H1267 H 0.36714 0.35971 0.77353 0.0
H1268 H 0.36503 0.36033 0.72564 0.0
H1269 H 0.28341 0.29228 0.72769 0.0
H1270 H 0.28513 0.29186 0.7757 0.0
H1271 H 0.28845 0.32771 0.68995 0.0
H1272 H 0.33618 0.28249 0.71621 0.0
H1273 H 0.37081 0.27717 0.74026 0.0
H1274 H 0.43394 0.3463 0.69996 0.0
H1275 H 0.39965 0.35231 0.67595 0.0
C1276 C 0.30325 0.3025 0.56804 0.0
C1277 C 0.32432 0.32411 0.55409 0.0
C1278 C 0.30372 0.30187 0.59548 0.0
C1279 C 0.32533 0.32274 0.60941 0.0
C1280 C 0.34702 0.34364 0.59554 0.0
C1281 C 0.34643 0.34444 0.56811 0.0
C1282 C 0.32466 0.32356 0.63847 0.0
C1283 C 0.34481 0.32191 0.65279 0.0
C1284 C 0.30398 0.32551 0.65198 0.0
C1285 C 0.28257 0.32797 0.63771 0.0
C1286 C 0.28949 0.34899 0.61941 0.0
C1287 C 0.26924 0.3506 0.60535 0.0
C1288 C 0.24197 0.33148 0.60962 0.0
C1289 C 0.23489 0.31079 0.62807 0.0
C1290 C 0.25506 0.30903 0.64212 0.0
C1291 C 0.34859 0.3451 0.76385 0.0
C1292 C 0.32639 0.32557 0.77844 0.0
C1293 C 0.34746 0.34541 0.73644 0.0
C1294 C 0.32426 0.326 0.72306 0.0
C1295 C 0.30156 0.30737 0.7376 0.0
C1296 C 0.3026 0.30715 0.76506 0.0
C1297 C 0.32428 0.32427 0.69395 0.0
C1298 C 0.30398 0.32569 0.67958 0.0
C1299 C 0.34465 0.32179 0.68036 0.0
C1300 C 0.36534 0.318 0.69445 0.0
C1301 C 0.35745 0.29667 0.71259 0.0
C1302 C 0.37701 0.29352 0.72622 0.0
C1303 C 0.40456 0.31143 0.7217 0.0
C1304 C 0.41259 0.33247 0.70347 0.0
C1305 C 0.3931 0.33574 0.68983 0.0
H1306 H 0.41968 0.30897 0.73227 0.0
H1307 H 0.22633 0.33274 0.59868 0.0
H1308 H 0.29871 0.34625 0.88249 0.0
H1309 H 0.26305 0.35205 0.90287 0.0
H1310 H 0.25559 0.29743 0.96526 0.0
H1311 H 0.29151 0.29171 0.9452 0.0
H1312 H 0.20483 0.28815 0.94389 0.0
H1313 H 0.28869 0.36102 0.97829 0.0
H1314 H 0.33484 0.40051 0.97485 0.0
H1315 H 0.30418 0.44361 0.93051 0.0
H1316 H 0.25787 0.40418 0.93336 0.0
H1317 H 0.12631 0.31595 0.03274 0.0
H1318 H 0.16168 0.30938 0.01265 0.0
H1319 H 0.18181 0.37629 0.9599 0.0
H1320 H 0.14737 0.3837 0.98099 0.0
H1321 H 0.22626 0.37899 0.97586 0.0
H1322 H 0.14331 0.30817 0.94037 0.0
H1323 H 0.09675 0.26909 0.9414 0.0
H1324 H 0.12452 0.22255 0.98414 0.0
H1325 H 0.17122 0.26151 0.98371 0.0
C1326 C 0.2894 0.33532 0.90046 0.0
C1327 C 0.29806 0.31859 0.91226 0.0
C1328 C 0.26908 0.33874 0.91212 0.0
C1329 C 0.25682 0.32531 0.93566 0.0
C1330 C 0.26483 0.308 0.94711 0.0
C1331 C 0.28542 0.30484 0.93566 0.0
C1332 C 0.23604 0.32982 0.9486 0.0
C1333 C 0.20954 0.30791 0.95121 0.0
C1334 C 0.24206 0.35578 0.95742 0.0
C1335 C 0.26986 0.37955 0.95581 0.0
C1336 C 0.29182 0.37883 0.96761 0.0
C1337 C 0.318 0.40122 0.96581 0.0
C1338 C 0.32245 0.42453 0.95241 0.0
C1339 C 0.30071 0.42552 0.94085 0.0
C1340 C 0.27449 0.40317 0.94257 0.0
C1341 C 0.13844 0.3293 0.01695 0.0
C1342 C 0.13389 0.35004 0.00809 0.0
C1343 C 0.15847 0.32541 0.00531 0.0
C1344 C 0.17409 0.34194 0.98431 0.0
C1345 C 0.16993 0.3631 0.97589 0.0
C1346 C 0.15009 0.36717 0.98775 0.0
C1347 C 0.19483 0.33729 0.97125 0.0
C1348 C 0.2214 0.35918 0.96857 0.0
C1349 C 0.18875 0.31137 0.96201 0.0
C1350 C 0.16072 0.28785 0.96223 0.0
C1351 C 0.13946 0.28967 0.95016 0.0
C1352 C 0.11305 0.26753 0.95061 0.0
C1353 C 0.10767 0.24337 0.96288 0.0
C1354 C 0.12871 0.24129 0.97468 0.0
C1355 C 0.15516 0.26339 0.97432 0.0
H1356 H 0.08721 0.22625 0.96321 0.0
H1357 H 0.34274 0.44185 0.95104 0.0
H1358 H 0.95984 0.29623 0.04944 0.0
H1359 H 0.91738 0.26085 0.06852 0.0
H1360 H 0.96172 0.25211 0.13293 0.0
H1361 H 1.00412 0.28821 0.11446 0.0
H1362 H 0.89625 0.21037 0.07845 0.0
H1363 H 0.92479 0.23368 0.18852 0.0
H1364 H 0.95416 0.27277 0.21667 0.0
H1365 H 0.95051 0.32696 0.1602 0.0
H1366 H 0.92085 0.28818 0.1319 0.0
H1367 H 0.7977 0.10167 0.15545 0.0
H1368 H 0.83959 0.13696 0.13501 0.0
H1369 H 0.82346 0.19831 0.16508 0.0
H1370 H 0.78195 0.16295 0.1861 0.0
H1371 H 0.87387 0.21487 0.1718 0.0
H1372 H 0.81527 0.18013 0.09742 0.0
H1373 H 0.78324 0.14605 0.06634 0.0
H1374 H 0.84143 0.12147 0.04843 0.0
H1375 H 0.87396 0.15564 0.07934 0.0
C1376 C 0.96058 0.28674 0.06765 0.0
C1377 C 0.9854 0.29527 0.08054 0.0
C1378 C 0.93624 0.26644 0.07854 0.0
C1379 C 0.93616 0.25402 0.10245 0.0
C1380 C 0.96106 0.2618 0.11484 0.0
C1381 C 0.98536 0.2824 0.10418 0.0
C1382 C 0.91003 0.23313 0.11444 0.0
C1383 C 0.89144 0.21138 0.09888 0.0
C1384 C 0.90326 0.2346 0.14096 0.0
C1385 C 0.92084 0.25804 0.15798 0.0
C1386 C 0.93018 0.25393 0.18217 0.0
C1387 C 0.94689 0.27603 0.19814 0.0
C1388 C 0.95427 0.30234 0.19018 0.0
C1389 C 0.94487 0.30659 0.16629 0.0
C1390 C 0.92813 0.28456 0.15027 0.0
C1391 C 0.80313 0.12272 0.15753 0.0
C1392 C 0.78673 0.12969 0.17233 0.0
C1393 C 0.82698 0.14288 0.14576 0.0
C1394 C 0.83466 0.17041 0.14818 0.0
C1395 C 0.81811 0.1773 0.16294 0.0
C1396 C 0.7944 0.15713 0.17492 0.0
C1397 C 0.86019 0.19202 0.13585 0.0
C1398 C 0.87872 0.21384 0.15138 0.0
C1399 C 0.8665 0.19113 0.10908 0.0
C1400 C 0.84691 0.17023 0.09087 0.0
C1401 C 0.82115 0.1673 0.08701 0.0
C1402 C 0.80293 0.14801 0.06936 0.0
C1403 C 0.8102 0.13145 0.05552 0.0
C1404 C 0.8358 0.13426 0.0592 0.0
C1405 C 0.85418 0.15366 0.0767 0.0
H1406 H 0.79605 0.11652 0.04186 0.0
H1407 H 0.96723 0.31942 0.20256 0.0
H1408 H 0.7003 0.79438 0.31763 0.0
H1409 H 0.70613 0.8359 0.29702 0.0
H1410 H 0.63609 0.82653 0.33893 0.0
H1411 H 0.62971 0.78447 0.35882 0.0
H1412 H 0.63527 0.84183 0.29005 0.0
H1413 H 0.7009 0.87182 0.35924 0.0
H1414 H 0.73903 0.87437 0.38456 0.0
H1415 H 0.79065 0.90565 0.31683 0.0
H1416 H 0.7527 0.90292 0.29098 0.0
H1417 H 0.70703 0.9996 0.28724 0.0
H1418 H 0.70105 0.95753 0.30608 0.0
H1419 H 0.67486 0.91832 0.23076 0.0
H1420 H 0.68031 0.96026 0.21179 0.0
H1421 H 0.72333 0.92754 0.29743 0.0
H1422 H 0.62728 0.85178 0.23997 0.0
H1423 H 0.58747 0.85015 0.21887 0.0
H1424 H 0.59385 0.91245 0.27073 0.0
H1425 H 0.63344 0.91418 0.29235 0.0
C1426 C 0.68604 0.80111 0.32223 0.0
C1427 C 0.66465 0.78636 0.33991 0.0
C1428 C 0.68949 0.82492 0.31062 0.0
C1429 C 0.67177 0.8346 0.31667 0.0
C1430 C 0.65008 0.81956 0.33399 0.0
C1431 C 0.64656 0.79567 0.3455 0.0
C1432 C 0.676 0.86052 0.30521 0.0
C1433 C 0.65456 0.86054 0.2916 0.0
C1434 C 0.70099 0.88511 0.30759 0.0
C1435 C 0.72389 0.88692 0.32311 0.0
C1436 C 0.72033 0.87906 0.34969 0.0
C1437 C 0.74192 0.88056 0.36415 0.0
C1438 C 0.76723 0.89011 0.3523 0.0
C1439 C 0.77102 0.89823 0.32598 0.0
C1440 C 0.74949 0.89673 0.31142 0.0
C1441 C 0.70005 0.98209 0.27459 0.0
C1442 C 0.694 0.98335 0.24798 0.0
C1443 C 0.69671 0.95802 0.28542 0.0
C1444 C 0.6872 0.93461 0.26996 0.0
C1445 C 0.68178 0.93596 0.24323 0.0
C1446 C 0.68502 0.96002 0.23237 0.0
C1447 C 0.6827 0.9088 0.28199 0.0
C1448 C 0.70409 0.90879 0.29571 0.0
C1449 C 0.65746 0.88437 0.28024 0.0
C1450 C 0.63349 0.8833 0.26756 0.0
C1451 C 0.62012 0.86506 0.24691 0.0
C1452 C 0.59761 0.86413 0.23486 0.0
C1453 C 0.5882 0.88125 0.24339 0.0
C1454 C 0.60122 0.89927 0.26406 0.0
C1455 C 0.62372 0.90026 0.2762 0.0
H1456 H 0.57078 0.88051 0.23402 0.0
H1457 H 0.78391 0.89126 0.36352 0.0
H1458 H 0.72132 0.6702 0.37982 0.0
H1459 H 0.75737 0.66382 0.39852 0.0
H1460 H 0.76043 0.71009 0.46669 0.0
H1461 H 0.72454 0.71662 0.44821 0.0
H1462 H 0.8113 0.72394 0.4489 0.0
H1463 H 0.72768 0.64241 0.46986 0.0
H1464 H 0.68366 0.60194 0.45973 0.0
H1465 H 0.72354 0.57144 0.41047 0.0
H1466 H 0.76778 0.61194 0.42002 0.0
H1467 H 0.88353 0.68804 0.5377 0.0
H1468 H 0.84852 0.69438 0.51647 0.0
H1469 H 0.84338 0.64146 0.45342 0.0
H1470 H 0.87762 0.63421 0.47527 0.0
H1471 H 0.79422 0.63099 0.46665 0.0
H1472 H 0.87789 0.71132 0.44631 0.0
H1473 H 0.92212 0.75179 0.45575 0.0
H1474 H 0.88279 0.78475 0.50248 0.0
H1475 H 0.83833 0.74428 0.49364 0.0
C1476 C 0.72978 0.67918 0.39871 0.0
C1477 C 0.71987 0.6938 0.41256 0.0
C1478 C 0.75031 0.67541 0.40943 0.0
C1479 C 0.7614 0.68624 0.43414 0.0
C1480 C 0.75214 0.70151 0.44762 0.0
C1481 C 0.73152 0.70513 0.43703 0.0
C1482 C 0.7823 0.68128 0.44628 0.0
C1483 C 0.80748 0.70363 0.45303 0.0
C1484 C 0.77756 0.65476 0.45108 0.0
C1485 C 0.751 0.63034 0.44543 0.0
C1486 C 0.72704 0.62718 0.45669 0.0
C1487 C 0.70205 0.60422 0.45109 0.0
C1488 C 0.7008 0.58417 0.43441 0.0
C1489 C 0.72454 0.58701 0.42336 0.0
C1490 C 0.74958 0.60995 0.42887 0.0
C1491 C 0.87469 0.67754 0.51946 0.0
C1492 C 0.88336 0.66075 0.50804 0.0
C1493 C 0.85489 0.68139 0.50719 0.0
C1494 C 0.8436 0.66879 0.48306 0.0
C1495 C 0.85186 0.65153 0.47193 0.0
C1496 C 0.87154 0.64755 0.4843 0.0
C1497 C 0.82326 0.67367 0.46946 0.0
C1498 C 0.79815 0.65132 0.46242 0.0
C1499 C 0.82812 0.7002 0.46426 0.0
C1500 C 0.8548 0.72465 0.4695 0.0
C1501 C 0.87869 0.72711 0.45876 0.0
C1502 C 0.9038 0.75006 0.46398 0.0
C1503 C 0.90527 0.7708 0.47975 0.0
C1504 C 0.88162 0.76866 0.49029 0.0
C1505 C 0.85646 0.74572 0.48516 0.0
H1506 H 0.92473 0.78856 0.48377 0.0
H1507 H 0.68143 0.56641 0.4301 0.0
H1508 H 0.24611 0.86722 0.65124 0.0
H1509 H 0.20403 0.83222 0.63093 0.0
H1510 H 0.15751 0.85098 0.68516 0.0
H1511 H 0.19966 0.88557 0.70583 0.0
H1512 H 0.13444 0.79783 0.67906 0.0
H1513 H 0.16981 0.87462 0.62056 0.0
H1514 H 0.20498 0.91052 0.59278 0.0
H1515 H 0.20737 0.85023 0.54416 0.0
H1516 H 0.17253 0.81397 0.57192 0.0
H1517 H 0.00933 0.7267 0.61226 0.0
H1518 H 0.05072 0.76289 0.63215 0.0
H1519 H 0.09885 0.74913 0.57543 0.0
H1520 H 0.05745 0.71385 0.55468 0.0
H1521 H 0.12104 0.8004 0.583 0.0
H1522 H 0.08723 0.72373 0.64169 0.0
H1523 H 0.05312 0.68738 0.6699 0.0
H1524 H 0.04861 0.7467 0.71822 0.0
H1525 H 0.08245 0.78339 0.6901 0.0
C1526 C 0.22685 0.86374 0.6588 0.0
C1527 C 0.226 0.87908 0.67993 0.0
C1528 C 0.20284 0.84386 0.64715 0.0
C1529 C 0.17755 0.83929 0.65617 0.0
C1530 C 0.17673 0.85418 0.67779 0.0
C1531 C 0.20076 0.87389 0.68958 0.0
C1532 C 0.152 0.81919 0.64294 0.0
C1533 C 0.13137 0.7986 0.65811 0.0
C1534 C 0.14817 0.81979 0.61549 0.0
C1535 C 0.1687 0.84158 0.59845 0.0
C1536 C 0.17793 0.86902 0.60402 0.0
C1537 C 0.19781 0.88943 0.58828 0.0
C1538 C 0.20844 0.88266 0.56675 0.0
C1539 C 0.19914 0.85545 0.56086 0.0
C1540 C 0.17931 0.83496 0.57658 0.0
C1541 C 0.02874 0.73152 0.60393 0.0
C1542 C 0.03012 0.71729 0.58199 0.0
C1543 C 0.05243 0.75211 0.61543 0.0
C1544 C 0.07805 0.75838 0.60576 0.0
C1545 C 0.0794 0.74468 0.58338 0.0
C1546 C 0.05569 0.72447 0.57152 0.0
C1547 C 0.10343 0.77888 0.6191 0.0
C1548 C 0.12405 0.79959 0.60396 0.0
C1549 C 0.10732 0.77831 0.64657 0.0
C1550 C 0.08719 0.75627 0.66365 0.0
C1551 C 0.07885 0.729 0.65825 0.0
C1552 C 0.05958 0.70834 0.67423 0.0
C1553 C 0.04866 0.71472 0.6958 0.0
C1554 C 0.05706 0.74179 0.70149 0.0
C1555 C 0.0763 0.76252 0.68555 0.0
H1556 H 0.03372 0.6987 0.70813 0.0
H1557 H 0.22385 0.8985 0.5546 0.0
H1558 H 0.31874 0.2238 0.80639 0.0
H1559 H 0.31274 0.18277 0.78472 0.0
H1560 H 0.3801 0.18842 0.82881 0.0
H1561 H 0.38678 0.23006 0.84966 0.0
H1562 H 0.38172 0.17297 0.78047 0.0
H1563 H 0.3138 0.14546 0.8476 0.0
H1564 H 0.27564 0.14483 0.87111 0.0
H1565 H 0.22645 0.11559 0.80172 0.0
H1566 H 0.26447 0.11641 0.77768 0.0
H1567 H 0.3059 0.01551 0.78319 0.0
H1568 H 0.31239 0.05864 0.79928 0.0
H1569 H 0.34154 0.09463 0.72298 0.0
H1570 H 0.33558 0.05155 0.70675 0.0
H1571 H 0.29166 0.08941 0.78694 0.0
H1572 H 0.39068 0.16117 0.73111 0.0
H1573 H 0.43041 0.16067 0.71244 0.0
H1574 H 0.41994 0.09904 0.76765 0.0
H1575 H 0.3804 0.09944 0.78686 0.0
C1576 C 0.33248 0.21646 0.81113 0.0
C1577 C 0.35302 0.22988 0.82991 0.0
C1578 C 0.32891 0.19291 0.79891 0.0
C1579 C 0.34566 0.18218 0.80545 0.0
C1580 C 0.36683 0.19618 0.82351 0.0
C1581 C 0.37049 0.21982 0.83559 0.0
C1582 C 0.3406 0.15591 0.79425 0.0
C1583 C 0.36198 0.15475 0.78175 0.0
C1584 C 0.315 0.13193 0.79632 0.0
C1585 C 0.29206 0.13126 0.81077 0.0
C1586 C 0.2949 0.13908 0.8373 0.0
C1587 C 0.27329 0.13866 0.85073 0.0
C1588 C 0.24866 0.13024 0.8379 0.0
C1589 C 0.24556 0.12215 0.81162 0.0
C1590 C 0.26712 0.12257 0.79809 0.0
C1591 C 0.31364 0.03253 0.76973 0.0
C1592 C 0.32039 0.03003 0.74368 0.0
C1593 C 0.31724 0.05721 0.77897 0.0
C1594 C 0.32773 0.08001 0.76246 0.0
C1595 C 0.33381 0.07744 0.73623 0.0
C1596 C 0.33026 0.05274 0.72695 0.0
C1597 C 0.33272 0.10651 0.77297 0.0
C1598 C 0.31132 0.1077 0.78537 0.0
C1599 C 0.35848 0.13033 0.77141 0.0
C1600 C 0.3824 0.13013 0.76019 0.0
C1601 C 0.39692 0.14757 0.7393 0.0
C1602 C 0.4194 0.1473 0.72863 0.0
C1603 C 0.42763 0.12976 0.73879 0.0
C1604 C 0.41348 0.11253 0.75972 0.0
C1605 C 0.39101 0.11275 0.77048 0.0
H1606 H 0.44503 0.12957 0.73048 0.0
H1607 H 0.23195 0.12993 0.84833 0.0
H1608 H 0.67014 0.71683 0.95316 0.0
H1609 H 0.6636 0.75251 0.93384 0.0
H1610 H 0.71387 0.75817 0.86802 0.0
H1611 H 0.72001 0.72221 0.88688 0.0
H1612 H 0.6953 0.80374 0.92123 0.0
H1613 H 0.69123 0.7722 0.81241 0.0
H1614 H 0.67817 0.73085 0.78657 0.0
H1615 H 0.6234 0.68202 0.84772 0.0
H1616 H 0.63585 0.72309 0.87376 0.0
H1617 H 0.70449 0.90947 0.84064 0.0
H1618 H 0.71176 0.87411 0.85984 0.0
H1619 H 0.63047 0.81344 0.83761 0.0
H1620 H 0.62385 0.84881 0.81722 0.0
H1621 H 0.662 0.79403 0.82956 0.0
H1622 H 0.6497 0.84139 0.90036 0.0
H1623 H 0.6599 0.8825 0.92487 0.0
H1624 H 0.73917 0.8959 0.94355 0.0
H1625 H 0.73007 0.85564 0.91766 0.0
C1626 C 0.6799 0.72573 0.93461 0.0
C1627 C 0.69533 0.71635 0.92142 0.0
C1628 C 0.67617 0.74619 0.9236 0.0
C1629 C 0.68783 0.75775 0.89922 0.0
C1630 C 0.70411 0.74915 0.88654 0.0
C1631 C 0.70766 0.72858 0.8974 0.0
C1632 C 0.6826 0.77843 0.88681 0.0
C1633 C 0.68804 0.80163 0.90119 0.0
C1634 C 0.67262 0.77551 0.8608 0.0
C1635 C 0.66469 0.75071 0.84513 0.0
C1636 C 0.67632 0.75264 0.82028 0.0
C1637 C 0.66904 0.72926 0.80561 0.0
C1638 C 0.65004 0.70382 0.81553 0.0
C1639 C 0.63819 0.70173 0.8401 0.0
C1640 C 0.64537 0.72505 0.85483 0.0
C1641 C 0.68827 0.88854 0.83987 0.0
C1642 C 0.6636 0.88172 0.82765 0.0
C1643 C 0.69237 0.86835 0.85088 0.0
C1644 C 0.6715 0.84105 0.85063 0.0
C1645 C 0.64689 0.83429 0.83811 0.0
C1646 C 0.64303 0.85444 0.82661 0.0
C1647 C 0.67509 0.81962 0.86382 0.0
C1648 C 0.66932 0.79623 0.8496 0.0
C1649 C 0.68416 0.82211 0.89019 0.0
C1650 C 0.68927 0.84559 0.90682 0.0
C1651 C 0.66938 0.85315 0.90955 0.0
C1652 C 0.67499 0.87637 0.92369 0.0
C1653 C 0.70009 0.89175 0.93599 0.0
C1654 C 0.71972 0.88397 0.93403 0.0
C1655 C 0.71441 0.86103 0.91947 0.0
H1656 H 0.70434 0.9097 0.94698 0.0
H1657 H 0.64445 0.68574 0.80415 0.0
H1658 H 0.79355 0.69581 0.0212 0.0
H1659 H 0.8348 0.70153 0.04225 0.0
H1660 H 0.82883 0.6349 0.99678 0.0
H1661 H 0.78708 0.62862 0.97637 0.0
H1662 H 0.84287 0.63179 0.04583 0.0
H1663 H 0.87311 0.70081 0.97964 0.0
H1664 H 0.8752 0.73972 0.95617 0.0
H1665 H 0.90373 0.78786 0.02621 0.0
H1666 H 0.90144 0.74908 0.05022 0.0
H1667 H 1.00058 0.70602 0.05058 0.0
H1668 H 0.95849 0.70009 0.03194 0.0
H1669 H 0.91833 0.67007 0.10646 0.0
H1670 H 0.96032 0.67553 0.12523 0.0
H1671 H 0.92751 0.72118 0.04211 0.0
H1672 H 0.85221 0.62177 0.09553 0.0
H1673 H 0.85119 0.58146 0.11475 0.0
H1674 H 0.91502 0.5918 0.06271 0.0
H1675 H 0.91616 0.63192 0.04295 0.0
C1676 C 0.80092 0.68223 0.01593 0.0
C1677 C 0.78724 0.66186 0.99707 0.0
C1678 C 0.8246 0.68563 0.0278 0.0
C1679 C 0.83516 0.66887 0.02088 0.0
C1680 C 0.82115 0.64814 0.00242 0.0
C1681 C 0.79744 0.64469 0.99061 0.0
C1682 C 0.86103 0.67318 0.03252 0.0
C1683 C 0.86134 0.65137 0.0451 0.0
C1684 C 0.88532 0.69858 0.0312 0.0
C1685 C 0.88685 0.72197 0.01679 0.0
C1686 C 0.87964 0.71963 0.99009 0.0
C1687 C 0.88089 0.74167 0.97668 0.0
C1688 C 0.88953 0.76623 0.98971 0.0
C1689 C 0.89701 0.76881 0.01616 0.0
C1690 C 0.89576 0.74682 0.02967 0.0
C1691 C 0.98286 0.69821 0.0631 0.0
C1692 C 0.98389 0.69111 0.08942 0.0
C1693 C 0.95877 0.69491 0.05239 0.0
C1694 C 0.9351 0.68436 0.06767 0.0
C1695 C 0.93619 0.67784 0.09413 0.0
C1696 C 0.96028 0.68108 0.10487 0.0
C1697 C 0.90929 0.67988 0.05571 0.0
C1698 C 0.90899 0.70166 0.04305 0.0
C1699 C 0.88517 0.65429 0.05644 0.0
C1700 C 0.88446 0.63002 0.06798 0.0
C1701 C 0.86596 0.61538 0.08814 0.0
C1702 C 0.86537 0.59257 0.09913 0.0
C1703 C 0.88309 0.58413 0.09002 0.0
C1704 C 0.90138 0.59842 0.06982 0.0
C1705 C 0.90203 0.62121 0.05874 0.0
H1706 H 0.88261 0.56649 0.09857 0.0
H1707 H 0.89048 0.78327 0.97929 0.0
H1708 H 0.16326 0.78248 0.1498 0.0
H1709 H 0.1973 0.82372 0.17211 0.0
H1710 H 0.13349 0.8308 0.21027 0.0
H1711 H 0.09947 0.78998 0.18738 0.0
H1712 H 0.17086 0.87861 0.19216 0.0
H1713 H 0.17095 0.80888 0.24402 0.0
H1714 H 0.17358 0.76763 0.25256 0.0
H1715 H 0.25453 0.80656 0.2215 0.0
H1716 H 0.25227 0.84793 0.21239 0.0
H1717 H 0.28743 0.96069 0.29413 0.0
H1718 H 0.24963 0.91771 0.27834 0.0
H1719 H 0.26085 0.95115 0.20021 0.0
H1720 H 0.2981 0.99409 0.21581 0.0
H1721 H 0.24653 0.88181 0.2434 0.0
H1722 H 0.20149 0.92564 0.16852 0.0
H1723 H 0.1968 0.96615 0.16318 0.0
H1724 H 0.20126 0.97732 0.24681 0.0
H1725 H 0.2056 0.93668 0.25268 0.0
C1726 C 0.15658 0.79296 0.16288 0.0
C1727 C 0.1288 0.78315 0.16685 0.0
C1728 C 0.176 0.81637 0.17579 0.0
C1729 C 0.168 0.83028 0.1931 0.0
C1730 C 0.14019 0.82044 0.19706 0.0
C1731 C 0.12079 0.79706 0.18411 0.0
C1732 C 0.18862 0.85543 0.20658 0.0
C1733 C 0.18737 0.87927 0.2034 0.0
C1734 C 0.20987 0.85626 0.22176 0.0
C1735 C 0.21135 0.83145 0.22732 0.0
C1736 C 0.18924 0.80859 0.23883 0.0
C1737 C 0.19067 0.78519 0.2438 0.0
C1738 C 0.21418 0.78446 0.23753 0.0
C1739 C 0.23633 0.80715 0.22632 0.0
C1740 C 0.23499 0.83059 0.22127 0.0
C1741 C 0.28176 0.95895 0.27362 0.0
C1742 C 0.29577 0.98101 0.25632 0.0
C1743 C 0.26019 0.93431 0.26459 0.0
C1744 C 0.25211 0.93123 0.23813 0.0
C1745 C 0.26627 0.95312 0.22081 0.0
C1746 C 0.2877 0.97772 0.2298 0.0
C1747 C 0.22915 0.90512 0.2284 0.0
C1748 C 0.22996 0.88111 0.23226 0.0
C1749 C 0.20716 0.904 0.21429 0.0
C1750 C 0.2041 0.92823 0.211 0.0
C1751 C 0.20133 0.93666 0.18577 0.0
C1752 C 0.19877 0.95967 0.18265 0.0
C1753 C 0.19881 0.97435 0.20464 0.0
C1754 C 0.20132 0.96599 0.2298 0.0
C1755 C 0.20386 0.94299 0.23302 0.0
H1756 H 0.19686 0.99217 0.20218 0.0
H1757 H 0.21524 0.76633 0.2414 0.0
H1758 H 0.33359 0.31582 0.3809 0.0
H1759 H 0.33878 0.2797 0.36127 0.0
H1760 H 0.31466 0.23539 0.43453 0.0
H1761 H 0.31149 0.27274 0.45479 0.0
H1762 H 0.35118 0.22854 0.41614 0.0
H1763 H 0.27141 0.21936 0.37671 0.0
H1764 H 0.24269 0.23377 0.35353 0.0
H1765 H 0.29414 0.25503 0.28563 0.0
H1766 H 0.32342 0.24113 0.30854 0.0
H1767 H 0.31649 0.10237 0.34963 0.0
H1768 H 0.31049 0.13768 0.37077 0.0
H1769 H 0.3714 0.1979 0.31986 0.0
H1770 H 0.37867 0.16293 0.29968 0.0
H1771 H 0.31406 0.19402 0.32735 0.0
H1772 H 0.39418 0.20253 0.37202 0.0
H1773 H 0.41777 0.18325 0.39686 0.0
H1774 H 0.35718 0.15644 0.45737 0.0
H1775 H 0.33299 0.17521 0.43264 0.0
C1776 C 0.32936 0.29834 0.3928 0.0
C1777 C 0.32194 0.29697 0.41931 0.0
C1778 C 0.33212 0.27753 0.3815 0.0
C1779 C 0.32638 0.25426 0.39609 0.0
C1780 C 0.31912 0.25298 0.42272 0.0
C1781 C 0.31721 0.27427 0.4343 0.0
C1782 C 0.32846 0.23162 0.38365 0.0
C1783 C 0.34267 0.22085 0.39689 0.0
C1784 C 0.31747 0.22131 0.35843 0.0
C1785 C 0.29974 0.22942 0.34444 0.0
C1786 C 0.27669 0.22726 0.35689 0.0
C1787 C 0.26031 0.23533 0.3438 0.0
C1788 C 0.26662 0.24537 0.31815 0.0
C1789 C 0.28929 0.24728 0.30551 0.0
C1790 C 0.30577 0.23928 0.31853 0.0
C1791 C 0.32884 0.12319 0.34317 0.0
C1792 C 0.34814 0.12993 0.32308 0.0
C1793 C 0.32524 0.14326 0.35511 0.0
C1794 C 0.34049 0.17032 0.34683 0.0
C1795 C 0.35937 0.17707 0.32642 0.0
C1796 C 0.3634 0.15709 0.31485 0.0
C1797 C 0.33698 0.19163 0.35975 0.0
C1798 C 0.32241 0.2019 0.34662 0.0
C1799 C 0.34686 0.20087 0.38533 0.0
C1800 C 0.36164 0.19 0.40035 0.0
C1801 C 0.38576 0.1923 0.3905 0.0
C1802 C 0.39927 0.18151 0.40458 0.0
C1803 C 0.38894 0.16855 0.42864 0.0
C1804 C 0.36514 0.16645 0.43871 0.0
C1805 C 0.35153 0.17717 0.42468 0.0
H1806 H 0.39942 0.1602 0.43952 0.0
H1807 H 0.25392 0.25163 0.30805 0.0
H1808 H 0.04429 0.30629 0.62446 0.0
H1809 H 0.08605 0.31099 0.60588 0.0
H1810 H 0.06954 0.33824 0.53253 0.0
H1811 H 0.0268 0.3314 0.55049 0.0
H1812 H 0.08959 0.31046 0.52028 0.0
H1813 H 0.11834 0.38203 0.58283 0.0
H1814 H 0.12147 0.40327 0.62584 0.0
H1815 H 0.15531 0.35773 0.65991 0.0
H1816 H 0.15206 0.33596 0.61715 0.0
H1817 H 0.22804 0.38053 0.4756 0.0
H1818 H 0.18583 0.37318 0.49585 0.0
H1819 H 0.18606 0.31348 0.54783 0.0
H1820 H 0.22733 0.31949 0.5266 0.0
H1821 H 0.17544 0.3574 0.57087 0.0
H1822 H 0.14662 0.28787 0.50318 0.0
H1823 H 0.14658 0.27319 0.45762 0.0
H1824 H 0.1158 0.324 0.43038 0.0
H1825 H 0.11609 0.33933 0.47578 0.0
C1826 C 0.04957 0.3131 0.60432 0.0
C1827 C 0.03236 0.31853 0.58893 0.0
C1828 C 0.0736 0.31607 0.59374 0.0
C1829 C 0.08156 0.3257 0.5679 0.0
C1830 C 0.06408 0.3308 0.55248 0.0
C1831 C 0.03963 0.32694 0.56277 0.0
C1832 C 0.10794 0.33043 0.55685 0.0
C1833 C 0.10831 0.32103 0.53138 0.0
C1834 C 0.13266 0.34408 0.57112 0.0
C1835 C 0.13467 0.35715 0.59686 0.0
C1836 C 0.12627 0.37641 0.59954 0.0
C1837 C 0.12809 0.38856 0.62386 0.0
C1838 C 0.1385 0.38179 0.64561 0.0
C1839 C 0.1472 0.36292 0.64306 0.0
C1840 C 0.14539 0.35067 0.61878 0.0
C1841 C 0.21893 0.36561 0.49113 0.0
C1842 C 0.23084 0.35034 0.49926 0.0
C1843 C 0.19498 0.36162 0.50281 0.0
C1844 C 0.18283 0.34272 0.52322 0.0
C1845 C 0.19519 0.3282 0.53212 0.0
C1846 C 0.21884 0.33176 0.52005 0.0
C1847 C 0.15672 0.3375 0.53465 0.0
C1848 C 0.15653 0.34683 0.56006 0.0
C1849 C 0.13238 0.32464 0.52004 0.0
C1850 C 0.13162 0.31494 0.49285 0.0
C1851 C 0.14004 0.29607 0.48746 0.0
C1852 C 0.13994 0.28761 0.46167 0.0
C1853 C 0.13126 0.29771 0.44111 0.0
C1854 C 0.12255 0.31622 0.44632 0.0
C1855 C 0.12265 0.32478 0.47208 0.0
H1856 H 0.13123 0.29116 0.42115 0.0
H1857 H 0.13989 0.39122 0.66443 0.0
H1858 H 0.87917 0.24796 0.69675 0.0
H1859 H 0.84356 0.20611 0.71716 0.0
H1860 H 0.85314 0.15906 0.65618 0.0
H1861 H 0.88885 0.20085 0.63593 0.0
H1862 H 0.80028 0.14182 0.66509 0.0
H1863 H 0.87847 0.16277 0.7181 0.0
H1864 H 0.91731 0.19018 0.74708 0.0
H1865 H 0.86428 0.19578 0.80349 0.0
H1866 H 0.82508 0.16861 0.77462 0.0
H1867 H 0.72493 0.01129 0.7214 0.0
H1868 H 0.76109 0.05363 0.70294 0.0
H1869 H 0.75462 0.09776 0.76869 0.0
H1870 H 0.71906 0.05531 0.78775 0.0
H1871 H 0.80531 0.11727 0.75764 0.0
H1872 H 0.72711 0.09657 0.7061 0.0
H1873 H 0.68734 0.06848 0.67823 0.0
H1874 H 0.73895 0.06328 0.61986 0.0
H1875 H 0.77901 0.09105 0.64756 0.0
C1876 C 0.8738 0.22864 0.6879 0.0
C1877 C 0.88681 0.22759 0.66485 0.0
C1878 C 0.85347 0.20475 0.69954 0.0
C1879 C 0.84579 0.17936 0.68835 0.0
C1880 C 0.85866 0.17837 0.66517 0.0
C1881 C 0.87902 0.20223 0.6536 0.0
C1882 C 0.82412 0.15383 0.70051 0.0
C1883 C 0.80154 0.1363 0.68524 0.0
C1884 C 0.82526 0.14695 0.72705 0.0
C1885 C 0.84889 0.16389 0.74408 0.0
C1886 C 0.87513 0.1701 0.73654 0.0
C1887 C 0.89721 0.18554 0.75301 0.0
C1888 C 0.89329 0.19475 0.77714 0.0
C1889 C 0.86729 0.18864 0.7848 0.0
C1890 C 0.84513 0.17321 0.7684 0.0
C1891 C 0.73126 0.02999 0.73202 0.0
C1892 C 0.71896 0.02988 0.75603 0.0
C1893 C 0.75185 0.05426 0.72132 0.0
C1894 C 0.76027 0.07908 0.73408 0.0
C1895 C 0.74846 0.07894 0.75836 0.0
C1896 C 0.72809 0.05462 0.76926 0.0
C1897 C 0.78146 0.10513 0.72221 0.0
C1898 C 0.80395 0.12279 0.73752 0.0
C1899 C 0.78007 0.11228 0.69578 0.0
C1900 C 0.75603 0.09568 0.67902 0.0
C1901 C 0.72996 0.08928 0.68741 0.0
C1902 C 0.70736 0.07344 0.67163 0.0
C1903 C 0.71061 0.06405 0.64732 0.0
C1904 C 0.73646 0.07054 0.63871 0.0
C1905 C 0.75913 0.08635 0.65443 0.0
H1906 H 0.69309 0.05178 0.63514 0.0
H1907 H 0.91035 0.20651 0.78999 0.0
loop_
_geom_bond_atom_site_label_1
_geom_bond_atom_site_label_2
_geom_bond_distance
_geom_bond_site_symmetry_2
_ccdc_geom_bond_type
Co0 O3 1.970 . S
Co0 N17 1.989 . S
Co0 O25 1.967 . S
Co0 O32 1.920 1_554 S
Co1 O4 1.966 . S
Co1 N10 2.022 . S
Co1 N18 1.993 . S
Co1 O26 1.941 . S
C2 O3 1.258 . S
C2 O4 1.263 . S
O3 Co0 1.970 . S
O3 C2 1.258 . S
O4 Co1 1.966 . S
O4 C2 1.263 . S
C5 O6 1.235 . S
C5 O32 1.289 . S
O6 C5 1.235 . S
C7 C9 1.400 . S
C7 N10 1.351 . S
C7 C12 1.501 . S
C8 C9 1.387 . S
C8 N11 1.341 . S
C9 C7 1.400 . S
C9 C8 1.387 . S
N10 Co1 2.022 . S
N10 C7 1.351 . S
N10 N11 1.365 . S
N11 C8 1.341 . S
N11 N10 1.365 . S
N11 H31 0.862 . S
C12 C7 1.501 . S
C12 H13 0.961 . S
C12 H14 0.961 . S
C12 H15 0.960 . S
H13 C12 0.961 . S
H14 C12 0.961 . S
H15 C12 0.960 . S
C16 N17 1.342 . S
C16 C20 1.401 . S
C16 C21 1.499 1_554 S
N17 Co0 1.989 . S
N17 C16 1.342 . S
N17 N18 1.388 . S
N18 Co1 1.993 . S
N18 N17 1.388 . S
N18 C19 1.346 . S
C19 N18 1.346 . S
C19 C20 1.396 . S
C19 C29 1.510 . S
C20 C16 1.401 . S
C20 C19 1.396 . S
C21 C16 1.499 1_556 S
C21 H22 0.959 . S
C21 H23 0.960 . S
C21 H24 0.961 . S
H22 C21 0.959 . S
H23 C21 0.960 . S
H24 C21 0.961 . S
O25 Co0 1.967 . S
O25 C33 1.258 . S
O26 Co1 1.941 . S
O26 C33 1.266 . S
H27 C29 0.959 . S
H28 C29 0.961 . S
C29 C19 1.510 . S
C29 H27 0.959 . S
C29 H28 0.961 . S
C29 H30 0.960 . S
H30 C29 0.960 . S
H31 N11 0.862 . S
O32 Co0 1.920 1_556 S
O32 C5 1.289 . S
C33 O25 1.258 . S
C33 O26 1.266 . S
Co34 O37 1.970 . S
Co34 N51 1.989 . S
Co34 O59 1.967 . S
Co34 O66 1.920 . S
Co35 O38 1.966 . S
Co35 N44 2.022 . S
Co35 N52 1.993 . S
Co35 O60 1.941 . S
C36 O37 1.258 . S
C36 O38 1.263 . S
O37 Co34 1.970 . S
O37 C36 1.258 . S
O38 Co35 1.966 . S
O38 C36 1.263 . S
C39 O40 1.235 . S
C39 O66 1.289 . S
O40 C39 1.235 . S
C41 C43 1.400 . S
C41 N44 1.351 . S
C41 C46 1.501 . S
C42 C43 1.387 . S
C42 N45 1.341 . S
C43 C41 1.400 . S
C43 C42 1.387 . S
N44 Co35 2.022 . S
N44 C41 1.351 . S
N44 N45 1.365 . S
N45 C42 1.341 . S
N45 N44 1.365 . S
N45 H65 0.862 . S
C46 C41 1.501 . S
C46 H47 0.961 . S
C46 H48 0.961 . S
C46 H49 0.960 . S
H47 C46 0.961 . S
H48 C46 0.961 . S
H49 C46 0.960 . S
C50 N51 1.342 . S
C50 C54 1.401 . S
C50 C55 1.499 . S
N51 Co34 1.989 . S
N51 C50 1.342 . S
N51 N52 1.388 . S
N52 Co35 1.993 . S
N52 N51 1.388 . S
N52 C53 1.346 . S
C53 N52 1.346 . S
C53 C54 1.396 . S
C53 C63 1.510 . S
C54 C50 1.401 . S
C54 C53 1.396 . S
C55 C50 1.499 . S
C55 H56 0.959 . S
C55 H57 0.960 . S
C55 H58 0.961 . S
H56 C55 0.959 . S
H57 C55 0.960 . S
H58 C55 0.961 . S
O59 Co34 1.967 . S
O59 C67 1.258 . S
O60 Co35 1.941 . S
O60 C67 1.266 . S
H61 C63 0.959 . S
H62 C63 0.961 . S
C63 C53 1.510 . S
C63 H61 0.959 . S
C63 H62 0.961 . S
C63 H64 0.960 . S
H64 C63 0.960 . S
H65 N45 0.862 . S
O66 Co34 1.920 . S
O66 C39 1.289 . S
C67 O59 1.258 . S
C67 O60 1.266 . S
Co68 O71 1.970 . S
Co68 N85 1.989 . S
Co68 O93 1.967 . S
Co68 O100 1.920 . S
Co69 O72 1.966 . S
Co69 N78 2.022 . S
Co69 N86 1.993 . S
Co69 O94 1.941 . S
C70 O71 1.258 . S
C70 O72 1.263 . S
O71 Co68 1.970 . S
O71 C70 1.258 . S
O72 Co69 1.966 . S
O72 C70 1.263 . S
C73 O74 1.235 . S
C73 O100 1.289 . S
O74 C73 1.235 . S
C75 C77 1.400 . S
C75 N78 1.351 . S
C75 C80 1.501 . S
C76 C77 1.387 . S
C76 N79 1.341 . S
C77 C75 1.400 . S
C77 C76 1.387 . S
N78 Co69 2.022 . S
N78 C75 1.351 . S
N78 N79 1.365 . S
N79 C76 1.341 . S
N79 N78 1.365 . S
N79 H99 0.862 . S
C80 C75 1.501 . S
C80 H81 0.961 . S
C80 H82 0.961 . S
C80 H83 0.960 . S
H81 C80 0.961 . S
H82 C80 0.961 . S
H83 C80 0.960 . S
C84 N85 1.342 . S
C84 C88 1.401 . S
C84 C89 1.499 . S
N85 Co68 1.989 . S
N85 C84 1.342 . S
N85 N86 1.388 . S
N86 Co69 1.993 . S
N86 N85 1.388 . S
N86 C87 1.346 . S
C87 N86 1.346 . S
C87 C88 1.396 . S
C87 C97 1.510 . S
C88 C84 1.401 . S
C88 C87 1.396 . S
C89 C84 1.499 . S
C89 H90 0.959 . S
C89 H91 0.960 . S
C89 H92 0.961 . S
H90 C89 0.959 . S
H91 C89 0.960 . S
H92 C89 0.961 . S
O93 Co68 1.967 . S
O93 C101 1.258 . S
O94 Co69 1.941 . S
O94 C101 1.266 . S
H95 C97 0.959 . S
H96 C97 0.961 . S
C97 C87 1.510 . S
C97 H95 0.959 . S
C97 H96 0.961 . S
C97 H98 0.960 . S
H98 C97 0.960 . S
H99 N79 0.862 . S
O100 Co68 1.920 . S
O100 C73 1.289 . S
C101 O93 1.258 . S
C101 O94 1.266 . S
Co102 O105 1.970 . S
Co102 N119 1.989 . S
Co102 O127 1.967 . S
Co102 O134 1.920 . S
Co103 O106 1.966 . S
Co103 N112 2.022 . S
Co103 N120 1.993 . S
Co103 O128 1.941 . S
C104 O105 1.258 . S
C104 O106 1.263 . S
O105 Co102 1.970 . S
O105 C104 1.258 . S
O106 Co103 1.966 . S
O106 C104 1.263 . S
C107 O108 1.235 . S
C107 O134 1.289 . S
O108 C107 1.235 . S
C109 C111 1.400 . S
C109 N112 1.351 . S
C109 C114 1.501 . S
C110 C111 1.387 . S
C110 N113 1.341 . S
C111 C109 1.400 . S
C111 C110 1.387 . S
N112 Co103 2.022 . S
N112 C109 1.351 . S
N112 N113 1.365 . S
N113 C110 1.341 . S
N113 N112 1.365 . S
N113 H133 0.862 . S
C114 C109 1.501 . S
C114 H115 0.961 . S
C114 H116 0.961 . S
C114 H117 0.960 . S
H115 C114 0.961 . S
H116 C114 0.961 . S
H117 C114 0.960 . S
C118 N119 1.342 . S
C118 C122 1.401 . S
C118 C123 1.499 . S
N119 Co102 1.989 . S
N119 C118 1.342 . S
N119 N120 1.388 . S
N120 Co103 1.993 . S
N120 N119 1.388 . S
N120 C121 1.346 . S
C121 N120 1.346 . S
C121 C122 1.396 . S
C121 C131 1.510 . S
C122 C118 1.401 . S
C122 C121 1.396 . S
C123 C118 1.499 . S
C123 H124 0.959 . S
C123 H125 0.960 . S
C123 H126 0.961 . S
H124 C123 0.959 . S
H125 C123 0.960 . S
H126 C123 0.961 . S
O127 Co102 1.967 . S
O127 C135 1.258 . S
O128 Co103 1.941 . S
O128 C135 1.266 . S
H129 C131 0.959 . S
H130 C131 0.961 . S
C131 C121 1.510 . S
C131 H129 0.959 . S
C131 H130 0.961 . S
C131 H132 0.960 . S
H132 C131 0.960 . S
H133 N113 0.862 . S
O134 Co102 1.920 . S
O134 C107 1.289 . S
C135 O127 1.258 . S
C135 O128 1.266 . S
Co136 O139 1.970 . S
Co136 N153 1.989 . S
Co136 O161 1.967 . S
Co136 O168 1.920 . S
Co137 O140 1.966 . S
Co137 N146 2.022 . S
Co137 N154 1.993 . S
Co137 O162 1.941 . S
C138 O139 1.258 . S
C138 O140 1.263 . S
O139 Co136 1.970 . S
O139 C138 1.258 . S
O140 Co137 1.966 . S
O140 C138 1.263 . S
C141 O142 1.235 . S
C141 O168 1.289 . S
O142 C141 1.235 . S
C143 C145 1.400 . S
C143 N146 1.351 . S
C143 C148 1.501 . S
C144 C145 1.387 . S
C144 N147 1.341 . S
C145 C143 1.400 . S
C145 C144 1.387 . S
N146 Co137 2.022 . S
N146 C143 1.351 . S
N146 N147 1.365 . S
N147 C144 1.341 . S
N147 N146 1.365 . S
N147 H167 0.862 . S
C148 C143 1.501 . S
C148 H149 0.961 . S
C148 H150 0.961 . S
C148 H151 0.960 . S
H149 C148 0.961 . S
H150 C148 0.961 . S
H151 C148 0.960 . S
C152 N153 1.342 . S
C152 C156 1.401 . S
C152 C157 1.499 . S
N153 Co136 1.989 . S
N153 C152 1.342 . S
N153 N154 1.388 . S
N154 Co137 1.993 . S
N154 N153 1.388 . S
N154 C155 1.346 . S
C155 N154 1.346 . S
C155 C156 1.396 . S
C155 C165 1.510 . S
C156 C152 1.401 . S
C156 C155 1.396 . S
C157 C152 1.499 . S
C157 H158 0.959 . S
C157 H159 0.960 . S
C157 H160 0.961 . S
H158 C157 0.959 . S
H159 C157 0.960 . S
H160 C157 0.961 . S
O161 Co136 1.967 . S
O161 C169 1.258 . S
O162 Co137 1.941 . S
O162 C169 1.266 . S
H163 C165 0.959 . S
H164 C165 0.961 . S
C165 C155 1.510 . S
C165 H163 0.959 . S
C165 H164 0.961 . S
C165 H166 0.960 . S
H166 C165 0.960 . S
H167 N147 0.862 . S
O168 Co136 1.920 . S
O168 C141 1.289 . S
C169 O161 1.258 . S
C169 O162 1.266 . S
Co170 O173 1.970 . S
Co170 N187 1.989 . S
Co170 O195 1.967 . S
Co170 O202 1.920 . S
Co171 O174 1.966 . S
Co171 N180 2.022 . S
Co171 N188 1.993 . S
Co171 O196 1.941 . S
C172 O173 1.258 . S
C172 O174 1.263 . S
O173 Co170 1.970 . S
O173 C172 1.258 . S
O174 Co171 1.966 . S
O174 C172 1.263 . S
C175 O176 1.235 . S
C175 O202 1.289 . S
O176 C175 1.235 . S
C177 C179 1.400 . S
C177 N180 1.351 . S
C177 C182 1.501 . S
C178 C179 1.387 . S
C178 N181 1.341 . S
C179 C177 1.400 . S
C179 C178 1.387 . S
N180 Co171 2.022 . S
N180 C177 1.351 . S
N180 N181 1.365 . S
N181 C178 1.341 . S
N181 N180 1.365 . S
N181 H201 0.862 . S
C182 C177 1.501 . S
C182 H183 0.961 . S
C182 H184 0.961 . S
C182 H185 0.960 . S
H183 C182 0.961 . S
H184 C182 0.961 . S
H185 C182 0.960 . S
C186 N187 1.342 . S
C186 C190 1.401 . S
C186 C191 1.499 . S
N187 Co170 1.989 . S
N187 C186 1.342 . S
N187 N188 1.388 . S
N188 Co171 1.993 . S
N188 N187 1.388 . S
N188 C189 1.346 . S
C189 N188 1.346 . S
C189 C190 1.396 . S
C189 C199 1.510 . S
C190 C186 1.401 . S
C190 C189 1.396 . S
C191 C186 1.499 . S
C191 H192 0.959 . S
C191 H193 0.960 . S
C191 H194 0.961 . S
H192 C191 0.959 . S
H193 C191 0.960 . S
H194 C191 0.961 . S
O195 Co170 1.967 . S
O195 C203 1.258 . S
O196 Co171 1.941 . S
O196 C203 1.266 . S
H197 C199 0.959 . S
H198 C199 0.961 . S
C199 C189 1.510 . S
C199 H197 0.959 . S
C199 H198 0.961 . S
C199 H200 0.960 . S
H200 C199 0.960 . S
H201 N181 0.862 . S
O202 Co170 1.920 . S
O202 C175 1.289 . S
C203 O195 1.258 . S
C203 O196 1.266 . S
Co204 O207 1.970 . S
Co204 N221 1.989 . S
Co204 O229 1.967 . S
Co204 O236 1.920 . S
Co205 O208 1.966 . S
Co205 N214 2.022 . S
Co205 N222 1.993 . S
Co205 O230 1.941 . S
C206 O207 1.258 . S
C206 O208 1.263 . S
O207 Co204 1.970 . S
O207 C206 1.258 . S
O208 Co205 1.966 . S
O208 C206 1.263 . S
C209 O210 1.235 . S
C209 O236 1.289 . S
O210 C209 1.235 . S
C211 C213 1.400 . S
C211 N214 1.351 . S
C211 C216 1.501 . S
C212 C213 1.387 . S
C212 N215 1.341 . S
C213 C211 1.400 . S
C213 C212 1.387 . S
N214 Co205 2.022 . S
N214 C211 1.351 . S
N214 N215 1.365 . S
N215 C212 1.341 . S
N215 N214 1.365 . S
N215 H235 0.862 . S
C216 C211 1.501 . S
C216 H217 0.961 . S
C216 H218 0.961 . S
C216 H219 0.960 . S
H217 C216 0.961 . S
H218 C216 0.961 . S
H219 C216 0.960 . S
C220 N221 1.342 . S
C220 C224 1.401 . S
C220 C225 1.499 . S
N221 Co204 1.989 . S
N221 C220 1.342 . S
N221 N222 1.388 . S
N222 Co205 1.993 . S
N222 N221 1.388 . S
N222 C223 1.346 . S
C223 N222 1.346 . S
C223 C224 1.396 . S
C223 C233 1.510 . S
C224 C220 1.401 . S
C224 C223 1.396 . S
C225 C220 1.499 . S
C225 H226 0.959 . S
C225 H227 0.960 . S
C225 H228 0.961 . S
H226 C225 0.959 . S
H227 C225 0.960 . S
H228 C225 0.961 . S
O229 Co204 1.967 . S
O229 C237 1.258 . S
O230 Co205 1.941 . S
O230 C237 1.266 . S
H231 C233 0.959 . S
H232 C233 0.961 . S
C233 C223 1.510 . S
C233 H231 0.959 . S
C233 H232 0.961 . S
C233 H234 0.960 . S
H234 C233 0.960 . S
H235 N215 0.862 . S
O236 Co204 1.920 . S
O236 C209 1.289 . S
C237 O229 1.258 . S
C237 O230 1.266 . S
Co238 O241 1.970 . S
Co238 N255 1.989 . S
Co238 O263 1.967 . S
Co238 O270 1.920 1_556 S
Co239 O242 1.966 . S
Co239 N248 2.022 . S
Co239 N256 1.993 . S
Co239 O264 1.941 . S
C240 O241 1.258 . S
C240 O242 1.263 . S
O241 Co238 1.970 . S
O241 C240 1.258 . S
O242 Co239 1.966 . S
O242 C240 1.263 . S
C243 O244 1.235 . S
C243 O270 1.289 . S
O244 C243 1.235 . S
C245 C247 1.400 . S
C245 N248 1.351 . S
C245 C250 1.501 . S
C246 C247 1.387 . S
C246 N249 1.341 . S
C247 C245 1.400 . S
C247 C246 1.387 . S
N248 Co239 2.022 . S
N248 C245 1.351 . S
N248 N249 1.365 . S
N249 C246 1.341 . S
N249 N248 1.365 . S
N249 H269 0.862 . S
C250 C245 1.501 . S
C250 H251 0.961 . S
C250 H252 0.961 . S
C250 H253 0.960 . S
H251 C250 0.961 . S
H252 C250 0.961 . S
H253 C250 0.960 . S
C254 N255 1.342 . S
C254 C258 1.401 . S
C254 C259 1.499 1_556 S
N255 Co238 1.989 . S
N255 C254 1.342 . S
N255 N256 1.388 . S
N256 Co239 1.993 . S
N256 N255 1.388 . S
N256 C257 1.346 . S
C257 N256 1.346 . S
C257 C258 1.396 . S
C257 C267 1.510 . S
C258 C254 1.401 . S
C258 C257 1.396 . S
C259 C254 1.499 1_554 S
C259 H260 0.959 . S
C259 H261 0.960 . S
C259 H262 0.961 . S
H260 C259 0.959 . S
H261 C259 0.960 . S
H262 C259 0.961 . S
O263 Co238 1.967 . S
O263 C271 1.258 . S
O264 Co239 1.941 . S
O264 C271 1.266 . S
H265 C267 0.959 . S
H266 C267 0.961 . S
C267 C257 1.510 . S
C267 H265 0.959 . S
C267 H266 0.961 . S
C267 H268 0.960 . S
H268 C267 0.960 . S
H269 N249 0.862 . S
O270 Co238 1.920 1_554 S
O270 C243 1.289 . S
C271 O263 1.258 . S
C271 O264 1.266 . S
Co272 O275 1.970 . S
Co272 N289 1.989 . S
Co272 O297 1.967 . S
Co272 O304 1.920 . S
Co273 O276 1.966 . S
Co273 N282 2.022 . S
Co273 N290 1.993 . S
Co273 O298 1.941 . S
C274 O275 1.258 . S
C274 O276 1.263 . S
O275 Co272 1.970 . S
O275 C274 1.258 . S
O276 Co273 1.966 . S
O276 C274 1.263 . S
C277 O278 1.235 . S
C277 O304 1.289 . S
O278 C277 1.235 . S
C279 C281 1.400 . S
C279 N282 1.351 . S
C279 C284 1.501 . S
C280 C281 1.387 . S
C280 N283 1.341 . S
C281 C279 1.400 . S
C281 C280 1.387 . S
N282 Co273 2.022 . S
N282 C279 1.351 . S
N282 N283 1.365 . S
N283 C280 1.341 . S
N283 N282 1.365 . S
N283 H303 0.862 . S
C284 C279 1.501 . S
C284 H285 0.961 . S
C284 H286 0.961 . S
C284 H287 0.960 . S
H285 C284 0.961 . S
H286 C284 0.961 . S
H287 C284 0.960 . S
C288 N289 1.342 . S
C288 C292 1.401 . S
C288 C293 1.499 . S
N289 Co272 1.989 . S
N289 C288 1.342 . S
N289 N290 1.388 . S
N290 Co273 1.993 . S
N290 N289 1.388 . S
N290 C291 1.346 . S
C291 N290 1.346 . S
C291 C292 1.396 . S
C291 C301 1.510 . S
C292 C288 1.401 . S
C292 C291 1.396 . S
C293 C288 1.499 . S
C293 H294 0.959 . S
C293 H295 0.960 . S
C293 H296 0.961 . S
H294 C293 0.959 . S
H295 C293 0.960 . S
H296 C293 0.961 . S
O297 Co272 1.967 . S
O297 C305 1.258 . S
O298 Co273 1.941 . S
O298 C305 1.266 . S
H299 C301 0.959 . S
H300 C301 0.961 . S
C301 C291 1.510 . S
C301 H299 0.959 . S
C301 H300 0.961 . S
C301 H302 0.960 . S
H302 C301 0.960 . S
H303 N283 0.862 . S
O304 Co272 1.920 . S
O304 C277 1.289 . S
C305 O297 1.258 . S
C305 O298 1.266 . S
Co306 O309 1.970 . S
Co306 N323 1.989 . S
Co306 O331 1.967 . S
Co306 O338 1.920 . S
Co307 O310 1.966 . S
Co307 N316 2.022 . S
Co307 N324 1.993 . S
Co307 O332 1.941 . S
C308 O309 1.258 . S
C308 O310 1.263 . S
O309 Co306 1.970 . S
O309 C308 1.258 . S
O310 Co307 1.966 . S
O310 C308 1.263 . S
C311 O312 1.235 . S
C311 O338 1.289 . S
O312 C311 1.235 . S
C313 C315 1.400 . S
C313 N316 1.351 . S
C313 C318 1.501 . S
C314 C315 1.387 . S
C314 N317 1.341 . S
C315 C313 1.400 . S
C315 C314 1.387 . S
N316 Co307 2.022 . S
N316 C313 1.351 . S
N316 N317 1.365 . S
N317 C314 1.341 . S
N317 N316 1.365 . S
N317 H337 0.862 . S
C318 C313 1.501 . S
C318 H319 0.961 . S
C318 H320 0.961 . S
C318 H321 0.960 . S
H319 C318 0.961 . S
H320 C318 0.961 . S
H321 C318 0.960 . S
C322 N323 1.342 . S
C322 C326 1.401 . S
C322 C327 1.499 . S
N323 Co306 1.989 . S
N323 C322 1.342 . S
N323 N324 1.388 . S
N324 Co307 1.993 . S
N324 N323 1.388 . S
N324 C325 1.346 . S
C325 N324 1.346 . S
C325 C326 1.396 . S
C325 C335 1.510 . S
C326 C322 1.401 . S
C326 C325 1.396 . S
C327 C322 1.499 . S
C327 H328 0.959 . S
C327 H329 0.960 . S
C327 H330 0.961 . S
H328 C327 0.959 . S
H329 C327 0.960 . S
H330 C327 0.961 . S
O331 Co306 1.967 . S
O331 C339 1.258 . S
O332 Co307 1.941 . S
O332 C339 1.266 . S
H333 C335 0.959 . S
H334 C335 0.961 . S
C335 C325 1.510 . S
C335 H333 0.959 . S
C335 H334 0.961 . S
C335 H336 0.960 . S
H336 C335 0.960 . S
H337 N317 0.862 . S
O338 Co306 1.920 . S
O338 C311 1.289 . S
C339 O331 1.258 . S
C339 O332 1.266 . S
Co340 O343 1.970 . S
Co340 N357 1.989 . S
Co340 O365 1.967 . S
Co340 O372 1.920 . S
Co341 O344 1.966 . S
Co341 N350 2.022 . S
Co341 N358 1.993 . S
Co341 O366 1.941 . S
C342 O343 1.258 . S
C342 O344 1.263 . S
O343 Co340 1.970 . S
O343 C342 1.258 . S
O344 Co341 1.966 . S
O344 C342 1.263 . S
C345 O346 1.235 . S
C345 O372 1.289 . S
O346 C345 1.235 . S
C347 C349 1.400 . S
C347 N350 1.351 . S
C347 C352 1.501 . S
C348 C349 1.387 . S
C348 N351 1.341 . S
C349 C347 1.400 . S
C349 C348 1.387 . S
N350 Co341 2.022 . S
N350 C347 1.351 . S
N350 N351 1.365 . S
N351 C348 1.341 . S
N351 N350 1.365 . S
N351 H371 0.862 . S
C352 C347 1.501 . S
C352 H353 0.961 . S
C352 H354 0.961 . S
C352 H355 0.960 . S
H353 C352 0.961 . S
H354 C352 0.961 . S
H355 C352 0.960 . S
C356 N357 1.342 . S
C356 C360 1.401 . S
C356 C361 1.499 . S
N357 Co340 1.989 . S
N357 C356 1.342 . S
N357 N358 1.388 . S
N358 Co341 1.993 . S
N358 N357 1.388 . S
N358 C359 1.346 . S
C359 N358 1.346 . S
C359 C360 1.396 . S
C359 C369 1.510 . S
C360 C356 1.401 . S
C360 C359 1.396 . S
C361 C356 1.499 . S
C361 H362 0.959 . S
C361 H363 0.960 . S
C361 H364 0.961 . S
H362 C361 0.959 . S
H363 C361 0.960 . S
H364 C361 0.961 . S
O365 Co340 1.967 . S
O365 C373 1.258 . S
O366 Co341 1.941 . S
O366 C373 1.266 . S
H367 C369 0.959 . S
H368 C369 0.961 . S
C369 C359 1.510 . S
C369 H367 0.959 . S
C369 H368 0.961 . S
C369 H370 0.960 . S
H370 C369 0.960 . S
H371 N351 0.862 . S
O372 Co340 1.920 . S
O372 C345 1.289 . S
C373 O365 1.258 . S
C373 O366 1.266 . S
Co374 O377 1.970 . S
Co374 N391 1.989 . S
Co374 O399 1.967 . S
Co374 O406 1.920 . S
Co375 O378 1.966 . S
Co375 N384 2.022 . S
Co375 N392 1.993 . S
Co375 O400 1.941 . S
C376 O377 1.258 . S
C376 O378 1.263 . S
O377 Co374 1.970 . S
O377 C376 1.258 . S
O378 Co375 1.966 . S
O378 C376 1.263 . S
C379 O380 1.235 . S
C379 O406 1.289 . S
O380 C379 1.235 . S
C381 C383 1.400 . S
C381 N384 1.351 . S
C381 C386 1.501 . S
C382 C383 1.387 . S
C382 N385 1.341 . S
C383 C381 1.400 . S
C383 C382 1.387 . S
N384 Co375 2.022 . S
N384 C381 1.351 . S
N384 N385 1.365 . S
N385 C382 1.341 . S
N385 N384 1.365 . S
N385 H405 0.862 . S
C386 C381 1.501 . S
C386 H387 0.961 . S
C386 H388 0.961 . S
C386 H389 0.960 . S
H387 C386 0.961 . S
H388 C386 0.961 . S
H389 C386 0.960 . S
C390 N391 1.342 . S
C390 C394 1.401 . S
C390 C395 1.499 . S
N391 Co374 1.989 . S
N391 C390 1.342 . S
N391 N392 1.388 . S
N392 Co375 1.993 . S
N392 N391 1.388 . S
N392 C393 1.346 . S
C393 N392 1.346 . S
C393 C394 1.396 . S
C393 C403 1.510 . S
C394 C390 1.401 . S
C394 C393 1.396 . S
C395 C390 1.499 . S
C395 H396 0.959 . S
C395 H397 0.960 . S
C395 H398 0.961 . S
H396 C395 0.959 . S
H397 C395 0.960 . S
H398 C395 0.961 . S
O399 Co374 1.967 . S
O399 C407 1.258 . S
O400 Co375 1.941 . S
O400 C407 1.266 . S
H401 C403 0.959 . S
H402 C403 0.961 . S
C403 C393 1.510 . S
C403 H401 0.959 . S
C403 H402 0.961 . S
C403 H404 0.960 . S
H404 C403 0.960 . S
H405 N385 0.862 . S
O406 Co374 1.920 . S
O406 C379 1.289 . S
C407 O399 1.258 . S
C407 O400 1.266 . S
H408 C426 0.951 . S
H409 C428 0.951 . S
H410 C430 0.950 . S
H411 C431 0.950 . S
H412 C433 0.950 . S
H413 C436 0.950 . S
H414 C437 0.950 . S
H415 C439 0.950 . S
H416 C440 0.950 . S
H417 C441 0.951 . S
H418 C443 0.951 . S
H419 C445 0.950 . S
H420 C446 0.950 . S
H421 C448 0.950 . S
H422 C451 0.950 . S
H423 C452 0.950 . S
H424 C454 0.950 . S
H425 C455 0.950 . S
C426 H408 0.951 . S
C426 C427 1.366 . S
C426 C428 1.388 . S
C427 C426 1.366 . S
C427 C431 1.385 . S
C428 H409 0.951 . S
C428 C426 1.388 . S
C428 C429 1.366 . S
C429 C428 1.366 . S
C429 C430 1.414 . S
C429 C432 1.499 . S
C430 H410 0.950 . S
C430 C429 1.414 . S
C430 C431 1.374 . S
C431 H411 0.950 . S
C431 C427 1.385 . S
C431 C430 1.374 . S
C432 C429 1.499 . S
C432 C433 1.373 . S
C432 C434 1.389 . S
C433 H412 0.950 . S
C433 C432 1.373 . S
C433 C449 1.377 . S
C434 C432 1.389 . S
C434 C435 1.524 . S
C434 C448 1.377 . S
C435 C434 1.524 . S
C435 C436 1.397 . S
C435 C440 1.363 . S
C436 H413 0.950 . S
C436 C435 1.397 . S
C436 C437 1.334 . S
C437 H414 0.950 . S
C437 C436 1.334 . S
C437 C438 1.287 . S
C438 C437 1.287 . S
C438 C439 1.524 . S
C438 H457 0.913 . S
C439 H415 0.950 . S
C439 C438 1.524 . S
C439 C440 1.415 . S
C440 H416 0.950 . S
C440 C435 1.363 . S
C440 C439 1.415 . S
C441 H417 0.951 . S
C441 C442 1.366 . S
C441 C443 1.388 . S
C442 C441 1.366 . S
C442 C446 1.385 . S
C443 H418 0.951 . S
C443 C441 1.388 . S
C443 C444 1.366 . S
C444 C443 1.366 . S
C444 C445 1.414 . S
C444 C447 1.499 . S
C445 H419 0.950 . S
C445 C444 1.414 . S
C445 C446 1.374 . S
C446 H420 0.950 . S
C446 C442 1.385 . S
C446 C445 1.374 . S
C447 C444 1.499 . S
C447 C448 1.373 . S
C447 C449 1.389 . S
C448 H421 0.950 . S
C448 C434 1.377 . S
C448 C447 1.373 . S
C449 C433 1.377 . S
C449 C447 1.389 . S
C449 C450 1.524 . S
C450 C449 1.524 . S
C450 C451 1.397 . S
C450 C455 1.363 . S
C451 H422 0.950 . S
C451 C450 1.397 . S
C451 C452 1.334 . S
C452 H423 0.950 . S
C452 C451 1.334 . S
C452 C453 1.287 . S
C453 C452 1.287 . S
C453 C454 1.524 . S
C453 H456 0.999 . S
C454 H424 0.950 . S
C454 C453 1.524 . S
C454 C455 1.415 . S
C455 H425 0.950 . S
C455 C450 1.363 . S
C455 C454 1.415 . S
H456 C453 0.999 . S
H457 C438 0.913 . S
H458 C476 0.951 . S
H459 C478 0.951 . S
H460 C480 0.950 . S
H461 C481 0.950 . S
H462 C483 0.950 . S
H463 C486 0.950 . S
H464 C487 0.950 . S
H465 C489 0.950 . S
H466 C490 0.950 . S
H467 C491 0.951 . S
H468 C493 0.951 . S
H469 C495 0.950 . S
H470 C496 0.950 . S
H471 C498 0.950 . S
H472 C501 0.950 . S
H473 C502 0.950 . S
H474 C504 0.950 . S
H475 C505 0.950 . S
C476 H458 0.951 . S
C476 C477 1.366 . S
C476 C478 1.388 . S
C477 C476 1.366 . S
C477 C481 1.385 . S
C478 H459 0.951 . S
C478 C476 1.388 . S
C478 C479 1.366 . S
C479 C478 1.366 . S
C479 C480 1.414 . S
C479 C482 1.499 . S
C480 H460 0.950 . S
C480 C479 1.414 . S
C480 C481 1.374 . S
C481 H461 0.950 . S
C481 C477 1.385 . S
C481 C480 1.374 . S
C482 C479 1.499 . S
C482 C483 1.373 . S
C482 C484 1.389 . S
C483 H462 0.950 . S
C483 C482 1.373 . S
C483 C499 1.377 . S
C484 C482 1.389 . S
C484 C485 1.524 . S
C484 C498 1.377 . S
C485 C484 1.524 . S
C485 C486 1.397 . S
C485 C490 1.363 . S
C486 H463 0.950 . S
C486 C485 1.397 . S
C486 C487 1.334 . S
C487 H464 0.950 . S
C487 C486 1.334 . S
C487 C488 1.287 . S
C488 C487 1.287 . S
C488 C489 1.524 . S
C488 H507 0.913 . S
C489 H465 0.950 . S
C489 C488 1.524 . S
C489 C490 1.415 . S
C490 H466 0.950 . S
C490 C485 1.363 . S
C490 C489 1.415 . S
C491 H467 0.951 . S
C491 C492 1.366 . S
C491 C493 1.388 . S
C492 C491 1.366 . S
C492 C496 1.385 . S
C493 H468 0.951 . S
C493 C491 1.388 . S
C493 C494 1.366 . S
C494 C493 1.366 . S
C494 C495 1.414 . S
C494 C497 1.499 . S
C495 H469 0.950 . S
C495 C494 1.414 . S
C495 C496 1.374 . S
C496 H470 0.950 . S
C496 C492 1.385 . S
C496 C495 1.374 . S
C497 C494 1.499 . S
C497 C498 1.373 . S
C497 C499 1.389 . S
C498 H471 0.950 . S
C498 C484 1.377 . S
C498 C497 1.373 . S
C499 C483 1.377 . S
C499 C497 1.389 . S
C499 C500 1.524 . S
C500 C499 1.524 . S
C500 C501 1.397 . S
C500 C505 1.363 . S
C501 H472 0.950 . S
C501 C500 1.397 . S
C501 C502 1.334 . S
C502 H473 0.950 . S
C502 C501 1.334 . S
C502 C503 1.287 . S
C503 C502 1.287 . S
C503 C504 1.524 . S
C503 H506 0.999 . S
C504 H474 0.950 . S
C504 C503 1.524 . S
C504 C505 1.415 . S
C505 H475 0.950 . S
C505 C500 1.363 . S
C505 C504 1.415 . S
H506 C503 0.999 . S
H507 C488 0.913 . S
H508 C526 0.951 . S
H509 C528 0.951 . S
H510 C530 0.950 . S
H511 C531 0.950 . S
H512 C533 0.950 . S
H513 C536 0.950 . S
H514 C537 0.950 . S
H515 C539 0.950 . S
H516 C540 0.950 . S
H517 C541 0.951 . S
H518 C543 0.951 . S
H519 C545 0.950 . S
H520 C546 0.950 . S
H521 C548 0.950 . S
H522 C551 0.950 . S
H523 C552 0.950 . S
H524 C554 0.950 . S
H525 C555 0.950 . S
C526 H508 0.951 . S
C526 C527 1.366 . S
C526 C528 1.388 . S
C527 C526 1.366 . S
C527 C531 1.385 . S
C528 H509 0.951 . S
C528 C526 1.388 . S
C528 C529 1.366 . S
C529 C528 1.366 . S
C529 C530 1.414 . S
C529 C532 1.499 . S
C530 H510 0.950 . S
C530 C529 1.414 . S
C530 C531 1.374 . S
C531 H511 0.950 . S
C531 C527 1.385 . S
C531 C530 1.374 . S
C532 C529 1.499 . S
C532 C533 1.373 . S
C532 C534 1.389 . S
C533 H512 0.950 . S
C533 C532 1.373 . S
C533 C549 1.377 . S
C534 C532 1.389 . S
C534 C535 1.524 . S
C534 C548 1.377 . S
C535 C534 1.524 . S
C535 C536 1.397 . S
C535 C540 1.363 . S
C536 H513 0.950 . S
C536 C535 1.397 . S
C536 C537 1.334 . S
C537 H514 0.950 . S
C537 C536 1.334 . S
C537 C538 1.287 . S
C538 C537 1.287 . S
C538 C539 1.524 . S
C538 H557 0.913 . S
C539 H515 0.950 . S
C539 C538 1.524 . S
C539 C540 1.415 . S
C540 H516 0.950 . S
C540 C535 1.363 . S
C540 C539 1.415 . S
C541 H517 0.951 . S
C541 C542 1.366 . S
C541 C543 1.388 . S
C542 C541 1.366 . S
C542 C546 1.385 . S
C543 H518 0.951 . S
C543 C541 1.388 . S
C543 C544 1.366 . S
C544 C543 1.366 . S
C544 C545 1.414 . S
C544 C547 1.499 . S
C545 H519 0.950 . S
C545 C544 1.414 . S
C545 C546 1.374 . S
C546 H520 0.950 . S
C546 C542 1.385 . S
C546 C545 1.374 . S
C547 C544 1.499 . S
C547 C548 1.373 . S
C547 C549 1.389 . S
C548 H521 0.950 . S
C548 C534 1.377 . S
C548 C547 1.373 . S
C549 C533 1.377 . S
C549 C547 1.389 . S
C549 C550 1.524 . S
C550 C549 1.524 . S
C550 C551 1.397 . S
C550 C555 1.363 . S
C551 H522 0.950 . S
C551 C550 1.397 . S
C551 C552 1.334 . S
C552 H523 0.950 . S
C552 C551 1.334 . S
C552 C553 1.287 . S
C553 C552 1.287 . S
C553 C554 1.524 . S
C553 H556 0.999 . S
C554 H524 0.950 . S
C554 C553 1.524 . S
C554 C555 1.415 . S
C555 H525 0.950 . S
C555 C550 1.363 . S
C555 C554 1.415 . S
H556 C553 0.999 . S
H557 C538 0.913 . S
H558 C576 0.951 . S
H559 C578 0.951 . S
H560 C580 0.950 . S
H561 C581 0.950 . S
H562 C583 0.950 . S
H563 C586 0.950 . S
H564 C587 0.950 . S
H565 C589 0.950 . S
H566 C590 0.950 . S
H567 C591 0.951 . S
H568 C593 0.951 . S
H569 C595 0.950 . S
H570 C596 0.950 . S
H571 C598 0.950 . S
H572 C601 0.950 . S
H573 C602 0.950 . S
H574 C604 0.950 . S
H575 C605 0.950 . S
C576 H558 0.951 . S
C576 C577 1.366 . S
C576 C578 1.388 . S
C577 C576 1.366 . S
C577 C581 1.385 . S
C578 H559 0.951 . S
C578 C576 1.388 . S
C578 C579 1.366 . S
C579 C578 1.366 . S
C579 C580 1.414 . S
C579 C582 1.499 . S
C580 H560 0.950 . S
C580 C579 1.414 . S
C580 C581 1.374 . S
C581 H561 0.950 . S
C581 C577 1.385 . S
C581 C580 1.374 . S
C582 C579 1.499 . S
C582 C583 1.373 . S
C582 C584 1.389 . S
C583 H562 0.950 . S
C583 C582 1.373 . S
C583 C599 1.377 . S
C584 C582 1.389 . S
C584 C585 1.524 . S
C584 C598 1.377 . S
C585 C584 1.524 . S
C585 C586 1.397 . S
C585 C590 1.363 . S
C586 H563 0.950 . S
C586 C585 1.397 . S
C586 C587 1.334 . S
C587 H564 0.950 . S
C587 C586 1.334 . S
C587 C588 1.287 . S
C588 C587 1.287 . S
C588 C589 1.524 . S
C588 H607 0.913 . S
C589 H565 0.950 . S
C589 C588 1.524 . S
C589 C590 1.415 . S
C590 H566 0.950 . S
C590 C585 1.363 . S
C590 C589 1.415 . S
C591 H567 0.951 . S
C591 C592 1.366 . S
C591 C593 1.388 . S
C592 C591 1.366 . S
C592 C596 1.385 . S
C593 H568 0.951 . S
C593 C591 1.388 . S
C593 C594 1.366 . S
C594 C593 1.366 . S
C594 C595 1.414 . S
C594 C597 1.499 . S
C595 H569 0.950 . S
C595 C594 1.414 . S
C595 C596 1.374 . S
C596 H570 0.950 . S
C596 C592 1.385 . S
C596 C595 1.374 . S
C597 C594 1.499 . S
C597 C598 1.373 . S
C597 C599 1.389 . S
C598 H571 0.950 . S
C598 C584 1.377 . S
C598 C597 1.373 . S
C599 C583 1.377 . S
C599 C597 1.389 . S
C599 C600 1.524 . S
C600 C599 1.524 . S
C600 C601 1.397 . S
C600 C605 1.363 . S
C601 H572 0.950 . S
C601 C600 1.397 . S
C601 C602 1.334 . S
C602 H573 0.950 . S
C602 C601 1.334 . S
C602 C603 1.287 . S
C603 C602 1.287 . S
C603 C604 1.524 . S
C603 H606 0.999 . S
C604 H574 0.950 . S
C604 C603 1.524 . S
C604 C605 1.415 . S
C605 H575 0.950 . S
C605 C600 1.363 . S
C605 C604 1.415 . S
H606 C603 0.999 . S
H607 C588 0.913 . S
H608 C626 0.951 . S
H609 C628 0.951 . S
H610 C630 0.950 . S
H611 C631 0.950 . S
H612 C633 0.950 . S
H613 C636 0.950 . S
H614 C637 0.950 . S
H615 C639 0.950 . S
H616 C640 0.950 . S
H617 C641 0.951 . S
H618 C643 0.951 . S
H619 C645 0.950 . S
H620 C646 0.950 . S
H621 C648 0.950 . S
H622 C651 0.950 . S
H623 C652 0.950 1_554 S
H624 C654 0.950 . S
H625 C655 0.950 . S
C626 H608 0.951 . S
C626 C627 1.366 . S
C626 C628 1.388 . S
C627 C626 1.366 . S
C627 C631 1.385 . S
C628 H609 0.951 . S
C628 C626 1.388 . S
C628 C629 1.366 . S
C629 C628 1.366 . S
C629 C630 1.414 . S
C629 C632 1.499 . S
C630 H610 0.950 . S
C630 C629 1.414 . S
C630 C631 1.374 . S
C631 H611 0.950 . S
C631 C627 1.385 . S
C631 C630 1.374 . S
C632 C629 1.499 . S
C632 C633 1.373 . S
C632 C634 1.389 . S
C633 H612 0.950 . S
C633 C632 1.373 . S
C633 C649 1.377 . S
C634 C632 1.389 . S
C634 C635 1.524 . S
C634 C648 1.377 . S
C635 C634 1.524 . S
C635 C636 1.397 . S
C635 C640 1.363 . S
C636 H613 0.950 . S
C636 C635 1.397 . S
C636 C637 1.334 . S
C637 H614 0.950 . S
C637 C636 1.334 . S
C637 C638 1.287 . S
C638 C637 1.287 . S
C638 C639 1.524 . S
C638 H657 0.913 . S
C639 H615 0.950 . S
C639 C638 1.524 . S
C639 C640 1.415 . S
C640 H616 0.950 . S
C640 C635 1.363 . S
C640 C639 1.415 . S
C641 H617 0.951 . S
C641 C642 1.366 . S
C641 C643 1.388 1_554 S
C642 C641 1.366 . S
C642 C646 1.385 1_554 S
C643 H618 0.951 . S
C643 C641 1.388 1_556 S
C643 C644 1.366 . S
C644 C643 1.366 . S
C644 C645 1.414 . S
C644 C647 1.499 . S
C645 H619 0.950 . S
C645 C644 1.414 . S
C645 C646 1.374 . S
C646 H620 0.950 . S
C646 C642 1.385 1_556 S
C646 C645 1.374 . S
C647 C644 1.499 . S
C647 C648 1.373 . S
C647 C649 1.389 . S
C648 H621 0.950 . S
C648 C634 1.377 . S
C648 C647 1.373 . S
C649 C633 1.377 . S
C649 C647 1.389 . S
C649 C650 1.524 . S
C650 C649 1.524 . S
C650 C651 1.397 . S
C650 C655 1.363 . S
C651 H622 0.950 . S
C651 C650 1.397 . S
C651 C652 1.334 . S
C652 H623 0.950 1_556 S
C652 C651 1.334 . S
C652 C653 1.287 1_556 S
C653 C652 1.287 1_554 S
C653 C654 1.524 1_554 S
C653 H656 0.999 . S
C654 H624 0.950 . S
C654 C653 1.524 1_556 S
C654 C655 1.415 . S
C655 H625 0.950 . S
C655 C650 1.363 . S
C655 C654 1.415 . S
H656 C653 0.999 . S
H657 C638 0.913 . S
H658 C676 0.951 . S
H659 C678 0.951 . S
H660 C680 0.950 . S
H661 C681 0.950 . S
H662 C683 0.950 . S
H663 C686 0.950 . S
H664 C687 0.950 . S
H665 C689 0.950 . S
H666 C690 0.950 . S
H667 C691 0.951 . S
H668 C693 0.951 . S
H669 C695 0.950 . S
H670 C696 0.950 . S
H671 C698 0.950 . S
H672 C701 0.950 . S
H673 C702 0.950 . S
H674 C704 0.950 . S
H675 C705 0.950 . S
C676 H658 0.951 . S
C676 C677 1.366 1_554 S
C676 C678 1.388 . S
C677 C676 1.366 1_556 S
C677 C681 1.385 . S
C678 H659 0.951 . S
C678 C676 1.388 . S
C678 C679 1.366 . S
C679 C678 1.366 . S
C679 C680 1.414 . S
C679 C682 1.499 . S
C680 H660 0.950 . S
C680 C679 1.414 . S
C680 C681 1.374 1_554 S
C681 H661 0.950 . S
C681 C677 1.385 . S
C681 C680 1.374 1_556 S
C682 C679 1.499 . S
C682 C683 1.373 . S
C682 C684 1.389 . S
C683 H662 0.950 . S
C683 C682 1.373 . S
C683 C699 1.377 . S
C684 C682 1.389 . S
C684 C685 1.524 . S
C684 C698 1.377 . S
C685 C684 1.524 . S
C685 C686 1.397 . S
C685 C690 1.363 . S
C686 H663 0.950 . S
C686 C685 1.397 . S
C686 C687 1.334 . S
C687 H664 0.950 . S
C687 C686 1.334 . S
C687 C688 1.287 . S
C688 C687 1.287 . S
C688 C689 1.524 . S
C688 H707 0.913 . S
C689 H665 0.950 . S
C689 C688 1.524 . S
C689 C690 1.415 . S
C690 H666 0.950 . S
C690 C685 1.363 . S
C690 C689 1.415 . S
C691 H667 0.951 . S
C691 C692 1.366 . S
C691 C693 1.388 . S
C692 C691 1.366 . S
C692 C696 1.385 . S
C693 H668 0.951 . S
C693 C691 1.388 . S
C693 C694 1.366 . S
C694 C693 1.366 . S
C694 C695 1.414 . S
C694 C697 1.499 . S
C695 H669 0.950 . S
C695 C694 1.414 . S
C695 C696 1.374 . S
C696 H670 0.950 . S
C696 C692 1.385 . S
C696 C695 1.374 . S
C697 C694 1.499 . S
C697 C698 1.373 . S
C697 C699 1.389 . S
C698 H671 0.950 . S
C698 C684 1.377 . S
C698 C697 1.373 . S
C699 C683 1.377 . S
C699 C697 1.389 . S
C699 C700 1.524 . S
C700 C699 1.524 . S
C700 C701 1.397 . S
C700 C705 1.363 . S
C701 H672 0.950 . S
C701 C700 1.397 . S
C701 C702 1.334 . S
C702 H673 0.950 . S
C702 C701 1.334 . S
C702 C703 1.287 . S
C703 C702 1.287 . S
C703 C704 1.524 . S
C703 H706 0.999 . S
C704 H674 0.950 . S
C704 C703 1.524 . S
C704 C705 1.415 . S
C705 H675 0.950 . S
C705 C700 1.363 . S
C705 C704 1.415 . S
H706 C703 0.999 . S
H707 C688 0.913 . S
H708 C726 0.951 . S
H709 C728 0.951 . S
H710 C730 0.950 . S
H711 C731 0.950 . S
H712 C733 0.950 . S
H713 C736 0.950 . S
H714 C737 0.950 1_556 S
H715 C739 0.986 . S
H716 C740 0.950 . S
H717 C741 0.951 . S
H718 C743 0.951 . S
H719 C745 0.950 . S
H720 C746 0.950 . S
H721 C748 0.950 . S
H722 C751 0.950 . S
H723 C752 0.950 . S
H724 C754 0.950 . S
H725 C755 0.950 . S
C726 H708 0.951 . S
C726 C727 1.366 . S
C726 C728 1.388 . S
C727 C726 1.366 . S
C727 C731 1.385 . S
C728 H709 0.951 . S
C728 C726 1.388 . S
C728 C729 1.366 . S
C729 C728 1.366 . S
C729 C730 1.414 . S
C729 C732 1.499 . S
C730 H710 0.950 . S
C730 C729 1.414 . S
C730 C731 1.374 . S
C731 H711 0.950 . S
C731 C727 1.385 . S
C731 C730 1.374 . S
C732 C729 1.499 . S
C732 C733 1.373 . S
C732 C734 1.389 . S
C733 H712 0.950 . S
C733 C732 1.373 . S
C733 C749 1.377 . S
C734 C732 1.389 . S
C734 C735 1.524 . S
C734 C748 1.377 . S
C735 C734 1.524 . S
C735 C736 1.397 . S
C735 C740 1.363 . S
C736 H713 0.950 . S
C736 C735 1.397 . S
C736 C737 1.334 . S
C737 H714 0.950 1_554 S
C737 C736 1.334 . S
C737 C738 1.287 . S
C738 C737 1.287 . S
C738 C739 1.502 1_455 S
C738 H757 0.913 1_554 S
C739 H715 0.986 . S
C739 C738 1.502 1_655 S
C739 C740 1.396 1_655 S
C740 H716 0.950 . S
C740 C735 1.363 . S
C740 C739 1.396 1_455 S
C741 H717 0.951 . S
C741 C742 1.366 . S
C741 C743 1.388 . S
C742 C741 1.366 . S
C742 C746 1.385 . S
C743 H718 0.951 . S
C743 C741 1.388 . S
C743 C744 1.366 . S
C744 C743 1.366 . S
C744 C745 1.414 . S
C744 C747 1.499 . S
C745 H719 0.950 . S
C745 C744 1.414 . S
C745 C746 1.374 . S
C746 H720 0.950 . S
C746 C742 1.385 . S
C746 C745 1.374 . S
C747 C744 1.499 . S
C747 C748 1.373 . S
C747 C749 1.389 . S
C748 H721 0.950 . S
C748 C734 1.377 . S
C748 C747 1.373 . S
C749 C733 1.377 . S
C749 C747 1.389 . S
C749 C750 1.524 . S
C750 C749 1.524 . S
C750 C751 1.397 . S
C750 C755 1.363 . S
C751 H722 0.950 . S
C751 C750 1.397 . S
C751 C752 1.334 . S
C752 H723 0.950 . S
C752 C751 1.334 . S
C752 C753 1.287 . S
C753 C752 1.287 . S
C753 C754 1.524 . S
C753 H756 0.999 . S
C754 H724 0.950 . S
C754 C753 1.524 . S
C754 C755 1.415 . S
C755 H725 0.950 . S
C755 C750 1.363 . S
C755 C754 1.415 . S
H756 C753 0.999 . S
H757 C738 0.913 1_556 S
H758 C776 0.951 . S
H759 C778 0.951 . S
H760 C780 0.950 . S
H761 C781 0.950 . S
H762 C783 0.950 . S
H763 C786 0.950 . S
H764 C787 0.950 . S
H765 C789 0.950 . S
H766 C790 0.950 . S
H767 C791 0.951 . S
H768 C793 0.951 . S
H769 C795 0.950 . S
H770 C796 0.950 . S
H771 C798 0.950 . S
H772 C801 0.950 . S
H773 C802 0.950 . S
H774 C804 0.950 . S
H775 C805 0.950 . S
C776 H758 0.951 . S
C776 C777 1.366 . S
C776 C778 1.388 . S
C777 C776 1.366 . S
C777 C781 1.385 . S
C778 H759 0.951 . S
C778 C776 1.388 . S
C778 C779 1.366 . S
C779 C778 1.366 . S
C779 C780 1.414 . S
C779 C782 1.499 . S
C780 H760 0.950 . S
C780 C779 1.414 . S
C780 C781 1.374 . S
C781 H761 0.950 . S
C781 C777 1.385 . S
C781 C780 1.374 . S
C782 C779 1.499 . S
C782 C783 1.373 . S
C782 C784 1.389 . S
C783 H762 0.950 . S
C783 C782 1.373 . S
C783 C799 1.377 . S
C784 C782 1.389 . S
C784 C785 1.524 . S
C784 C798 1.377 . S
C785 C784 1.524 . S
C785 C786 1.397 . S
C785 C790 1.363 . S
C786 H763 0.950 . S
C786 C785 1.397 . S
C786 C787 1.334 . S
C787 H764 0.950 . S
C787 C786 1.334 . S
C787 C788 1.287 . S
C788 C787 1.287 . S
C788 C789 1.524 . S
C788 H807 0.913 . S
C789 H765 0.950 . S
C789 C788 1.524 . S
C789 C790 1.415 . S
C790 H766 0.950 . S
C790 C785 1.363 . S
C790 C789 1.415 . S
C791 H767 0.951 . S
C791 C792 1.366 . S
C791 C793 1.388 . S
C792 C791 1.366 . S
C792 C796 1.385 . S
C793 H768 0.951 . S
C793 C791 1.388 . S
C793 C794 1.366 . S
C794 C793 1.366 . S
C794 C795 1.414 . S
C794 C797 1.499 . S
C795 H769 0.950 . S
C795 C794 1.414 . S
C795 C796 1.374 . S
C796 H770 0.950 . S
C796 C792 1.385 . S
C796 C795 1.374 . S
C797 C794 1.499 . S
C797 C798 1.373 . S
C797 C799 1.389 . S
C798 H771 0.950 . S
C798 C784 1.377 . S
C798 C797 1.373 . S
C799 C783 1.377 . S
C799 C797 1.389 . S
C799 C800 1.524 . S
C800 C799 1.524 . S
C800 C801 1.397 . S
C800 C805 1.363 . S
C801 H772 0.950 . S
C801 C800 1.397 . S
C801 C802 1.334 . S
C802 H773 0.950 . S
C802 C801 1.334 . S
C802 C803 1.287 . S
C803 C802 1.287 . S
C803 C804 1.524 . S
C803 H806 0.999 . S
C804 H774 0.950 . S
C804 C803 1.524 . S
C804 C805 1.415 . S
C805 H775 0.950 . S
C805 C800 1.363 . S
C805 C804 1.415 . S
H806 C803 0.999 . S
H807 C788 0.913 . S
H808 C826 0.951 . S
H809 C828 0.951 . S
H810 C830 0.950 . S
H811 C831 0.950 . S
H812 C833 0.950 . S
H813 C836 0.950 . S
H814 C837 0.950 . S
H815 C839 0.950 . S
H816 C840 0.950 . S
H817 C841 0.951 . S
H818 C843 0.951 . S
H819 C845 0.950 . S
H820 C846 0.950 . S
H821 C848 0.950 . S
H822 C851 0.950 . S
H823 C852 0.950 . S
H824 C854 0.950 . S
H825 C855 0.950 . S
C826 H808 0.951 . S
C826 C827 1.366 . S
C826 C828 1.388 . S
C827 C826 1.366 . S
C827 C831 1.385 . S
C828 H809 0.951 . S
C828 C826 1.388 . S
C828 C829 1.366 . S
C829 C828 1.366 . S
C829 C830 1.414 . S
C829 C832 1.499 . S
C830 H810 0.950 . S
C830 C829 1.414 . S
C830 C831 1.374 . S
C831 H811 0.950 . S
C831 C827 1.385 . S
C831 C830 1.374 . S
C832 C829 1.499 . S
C832 C833 1.373 . S
C832 C834 1.389 . S
C833 H812 0.950 . S
C833 C832 1.373 . S
C833 C849 1.377 . S
C834 C832 1.389 . S
C834 C835 1.524 . S
C834 C848 1.377 . S
C835 C834 1.524 . S
C835 C836 1.397 . S
C835 C840 1.363 . S
C836 H813 0.950 . S
C836 C835 1.397 . S
C836 C837 1.334 . S
C837 H814 0.950 . S
C837 C836 1.334 . S
C837 C838 1.287 . S
C838 C837 1.287 . S
C838 C839 1.524 . S
C838 H857 0.913 . S
C839 H815 0.950 . S
C839 C838 1.524 . S
C839 C840 1.415 . S
C840 H816 0.950 . S
C840 C835 1.363 . S
C840 C839 1.415 . S
C841 H817 0.951 . S
C841 C842 1.366 . S
C841 C843 1.388 . S
C842 C841 1.366 . S
C842 C846 1.385 . S
C843 H818 0.951 . S
C843 C841 1.388 . S
C843 C844 1.366 . S
C844 C843 1.366 . S
C844 C845 1.414 . S
C844 C847 1.499 . S
C845 H819 0.950 . S
C845 C844 1.414 . S
C845 C846 1.374 . S
C846 H820 0.950 . S
C846 C842 1.385 . S
C846 C845 1.374 . S
C847 C844 1.499 . S
C847 C848 1.373 . S
C847 C849 1.389 . S
C848 H821 0.950 . S
C848 C834 1.377 . S
C848 C847 1.373 . S
C849 C833 1.377 . S
C849 C847 1.389 . S
C849 C850 1.524 . S
C850 C849 1.524 . S
C850 C851 1.397 . S
C850 C855 1.363 . S
C851 H822 0.950 . S
C851 C850 1.397 . S
C851 C852 1.334 . S
C852 H823 0.950 . S
C852 C851 1.334 . S
C852 C853 1.287 . S
C853 C852 1.287 . S
C853 C854 1.524 . S
C853 H856 0.999 . S
C854 H824 0.950 . S
C854 C853 1.524 . S
C854 C855 1.415 . S
C855 H825 0.950 . S
C855 C850 1.363 . S
C855 C854 1.415 . S
H856 C853 0.999 . S
H857 C838 0.913 . S
H858 C876 0.951 . S
H859 C878 0.951 . S
H860 C880 0.950 . S
H861 C881 0.950 . S
H862 C883 0.950 . S
H863 C886 0.950 . S
H864 C887 0.950 . S
H865 C889 0.950 . S
H866 C890 0.950 . S
H867 C891 0.951 . S
H868 C893 0.951 . S
H869 C895 0.950 . S
H870 C896 0.950 . S
H871 C898 0.950 . S
H872 C901 0.950 . S
H873 C902 0.950 . S
H874 C904 0.950 . S
H875 C905 0.950 . S
C876 H858 0.951 . S
C876 C877 1.366 . S
C876 C878 1.388 . S
C877 C876 1.366 . S
C877 C881 1.385 . S
C878 H859 0.951 . S
C878 C876 1.388 . S
C878 C879 1.366 . S
C879 C878 1.366 . S
C879 C880 1.414 . S
C879 C882 1.499 . S
C880 H860 0.950 . S
C880 C879 1.414 . S
C880 C881 1.374 . S
C881 H861 0.950 . S
C881 C877 1.385 . S
C881 C880 1.374 . S
C882 C879 1.499 . S
C882 C883 1.373 . S
C882 C884 1.389 . S
C883 H862 0.950 . S
C883 C882 1.373 . S
C883 C899 1.377 . S
C884 C882 1.389 . S
C884 C885 1.524 . S
C884 C898 1.377 . S
C885 C884 1.524 . S
C885 C886 1.397 . S
C885 C890 1.363 . S
C886 H863 0.950 . S
C886 C885 1.397 . S
C886 C887 1.334 . S
C887 H864 0.950 . S
C887 C886 1.334 . S
C887 C888 1.287 . S
C888 C887 1.287 . S
C888 C889 1.524 . S
C888 H907 0.913 . S
C889 H865 0.950 . S
C889 C888 1.524 . S
C889 C890 1.415 . S
C890 H866 0.950 . S
C890 C885 1.363 . S
C890 C889 1.415 . S
C891 H867 0.951 . S
C891 C892 1.366 . S
C891 C893 1.388 . S
C892 C891 1.366 . S
C892 C896 1.385 . S
C893 H868 0.951 . S
C893 C891 1.388 . S
C893 C894 1.366 . S
C894 C893 1.366 . S
C894 C895 1.414 . S
C894 C897 1.499 . S
C895 H869 0.950 . S
C895 C894 1.414 . S
C895 C896 1.374 . S
C896 H870 0.950 . S
C896 C892 1.385 . S
C896 C895 1.374 . S
C897 C894 1.499 . S
C897 C898 1.373 . S
C897 C899 1.389 . S
C898 H871 0.950 . S
C898 C884 1.377 . S
C898 C897 1.373 . S
C899 C883 1.377 . S
C899 C897 1.389 . S
C899 C900 1.524 . S
C900 C899 1.524 . S
C900 C901 1.397 . S
C900 C905 1.363 . S
C901 H872 0.950 . S
C901 C900 1.397 . S
C901 C902 1.334 . S
C902 H873 0.950 . S
C902 C901 1.334 . S
C902 C903 1.287 . S
C903 C902 1.287 . S
C903 C904 1.524 . S
C903 H906 0.999 . S
C904 H874 0.950 . S
C904 C903 1.524 . S
C904 C905 1.415 . S
C905 H875 0.950 . S
C905 C900 1.363 . S
C905 C904 1.415 . S
H906 C903 0.999 . S
H907 C888 0.913 . S
H908 C926 0.951 . S
H909 C928 0.951 . S
H910 C930 0.950 . S
H911 C931 0.950 . S
H912 C933 0.950 . S
H913 C936 0.950 . S
H914 C937 0.950 1_545 S
H915 C939 0.950 . S
H916 C940 0.950 . S
H917 C941 0.951 . S
H918 C943 0.951 . S
H919 C945 0.950 . S
H920 C946 0.950 . S
H921 C948 0.950 . S
H922 C951 0.950 . S
H923 C952 0.950 . S
H924 C954 0.950 . S
H925 C955 0.950 . S
C926 H908 0.951 . S
C926 C927 1.366 . S
C926 C928 1.388 . S
C927 C926 1.366 . S
C927 C931 1.385 . S
C928 H909 0.951 . S
C928 C926 1.388 . S
C928 C929 1.366 . S
C929 C928 1.366 . S
C929 C930 1.414 . S
C929 C932 1.499 . S
C930 H910 0.950 . S
C930 C929 1.414 . S
C930 C931 1.374 . S
C931 H911 0.950 . S
C931 C927 1.385 . S
C931 C930 1.374 . S
C932 C929 1.499 . S
C932 C933 1.373 . S
C932 C934 1.389 . S
C933 H912 0.950 . S
C933 C932 1.373 . S
C933 C949 1.377 . S
C934 C932 1.389 . S
C934 C935 1.524 . S
C934 C948 1.377 . S
C935 C934 1.524 . S
C935 C936 1.397 . S
C935 C940 1.363 . S
C936 H913 0.950 . S
C936 C935 1.397 . S
C936 C937 1.334 . S
C937 H914 0.950 1_565 S
C937 C936 1.334 . S
C937 C938 1.287 . S
C938 C937 1.287 . S
C938 C939 1.524 . S
C938 H957 0.913 1_565 S
C939 H915 0.950 . S
C939 C938 1.524 . S
C939 C940 1.415 . S
C940 H916 0.950 . S
C940 C935 1.363 . S
C940 C939 1.415 . S
C941 H917 0.951 . S
C941 C942 1.366 . S
C941 C943 1.388 . S
C942 C941 1.366 . S
C942 C946 1.385 . S
C943 H918 0.951 . S
C943 C941 1.388 . S
C943 C944 1.366 . S
C944 C943 1.366 . S
C944 C945 1.414 . S
C944 C947 1.499 . S
C945 H919 0.950 . S
C945 C944 1.414 . S
C945 C946 1.374 . S
C946 H920 0.950 . S
C946 C942 1.385 . S
C946 C945 1.374 . S
C947 C944 1.499 . S
C947 C948 1.373 . S
C947 C949 1.389 . S
C948 H921 0.950 . S
C948 C934 1.377 . S
C948 C947 1.373 . S
C949 C933 1.377 . S
C949 C947 1.389 . S
C949 C950 1.524 . S
C950 C949 1.524 . S
C950 C951 1.397 . S
C950 C955 1.363 . S
C951 H922 0.950 . S
C951 C950 1.397 . S
C951 C952 1.334 . S
C952 H923 0.950 . S
C952 C951 1.334 . S
C952 C953 1.287 . S
C953 C952 1.287 . S
C953 C954 1.524 . S
C953 H956 0.999 . S
C954 H924 0.950 . S
C954 C953 1.524 . S
C954 C955 1.415 . S
C955 H925 0.950 . S
C955 C950 1.363 . S
C955 C954 1.415 . S
H956 C953 0.999 . S
H957 C938 0.913 1_545 S
H958 C976 0.951 . S
H959 C978 0.951 . S
H960 C980 0.950 . S
H961 C981 0.950 . S
H962 C983 0.950 . S
H963 C986 0.950 . S
H964 C987 0.950 . S
H965 C989 0.950 . S
H966 C990 0.950 . S
H967 C991 0.951 . S
H968 C993 0.951 . S
H969 C995 0.950 . S
H970 C996 0.950 . S
H971 C998 0.950 . S
H972 C1001 0.950 . S
H973 C1002 0.950 . S
H974 C1004 0.950 . S
H975 C1005 0.950 . S
C976 H958 0.951 . S
C976 C977 1.366 . S
C976 C978 1.388 . S
C977 C976 1.366 . S
C977 C981 1.385 . S
C978 H959 0.951 . S
C978 C976 1.388 . S
C978 C979 1.366 . S
C979 C978 1.366 . S
C979 C980 1.414 . S
C979 C982 1.499 . S
C980 H960 0.950 . S
C980 C979 1.414 . S
C980 C981 1.374 . S
C981 H961 0.950 . S
C981 C977 1.385 . S
C981 C980 1.374 . S
C982 C979 1.499 . S
C982 C983 1.373 . S
C982 C984 1.389 . S
C983 H962 0.950 . S
C983 C982 1.373 . S
C983 C999 1.377 . S
C984 C982 1.389 . S
C984 C985 1.524 . S
C984 C998 1.377 . S
C985 C984 1.524 . S
C985 C986 1.397 . S
C985 C990 1.363 . S
C986 H963 0.950 . S
C986 C985 1.397 . S
C986 C987 1.334 . S
C987 H964 0.950 . S
C987 C986 1.334 . S
C987 C988 1.287 . S
C988 C987 1.287 . S
C988 C989 1.524 . S
C988 H1007 0.913 . S
C989 H965 0.950 . S
C989 C988 1.524 . S
C989 C990 1.415 . S
C990 H966 0.950 . S
C990 C985 1.363 . S
C990 C989 1.415 . S
C991 H967 0.951 . S
C991 C992 1.366 . S
C991 C993 1.388 . S
C992 C991 1.366 . S
C992 C996 1.385 . S
C993 H968 0.951 . S
C993 C991 1.388 . S
C993 C994 1.366 . S
C994 C993 1.366 . S
C994 C995 1.414 . S
C994 C997 1.499 . S
C995 H969 0.950 . S
C995 C994 1.414 . S
C995 C996 1.374 . S
C996 H970 0.950 . S
C996 C992 1.385 . S
C996 C995 1.374 . S
C997 C994 1.499 . S
C997 C998 1.373 . S
C997 C999 1.389 . S
C998 H971 0.950 . S
C998 C984 1.377 . S
C998 C997 1.373 . S
C999 C983 1.377 . S
C999 C997 1.389 . S
C999 C1000 1.524 . S
C1000 C999 1.524 . S
C1000 C1001 1.397 . S
C1000 C1005 1.363 . S
C1001 H972 0.950 . S
C1001 C1000 1.397 . S
C1001 C1002 1.334 1_556 S
C1002 H973 0.950 . S
C1002 C1001 1.334 1_554 S
C1002 C1003 1.287 . S
C1003 C1002 1.287 . S
C1003 C1004 1.524 . S
C1003 H1006 0.999 . S
C1004 H974 0.950 . S
C1004 C1003 1.524 . S
C1004 C1005 1.415 1_554 S
C1005 H975 0.950 . S
C1005 C1000 1.363 . S
C1005 C1004 1.415 1_556 S
H1006 C1003 0.999 . S
H1007 C988 0.913 . S
H1008 C1026 0.951 . S
H1009 C1028 0.951 1_455 S
H1010 C1030 0.950 . S
H1011 C1031 0.950 . S
H1012 C1033 0.950 . S
H1013 C1036 0.950 . S
H1014 C1037 0.950 . S
H1015 C1039 0.950 1_455 S
H1016 C1040 0.950 . S
H1017 C1041 0.951 . S
H1018 C1043 0.951 1_655 S
H1019 C1045 0.950 . S
H1020 C1046 0.950 . S
H1021 C1048 0.950 . S
H1022 C1051 0.950 . S
H1023 C1052 0.950 . S
H1024 C1054 0.950 1_655 S
H1025 C1055 0.950 . S
C1026 H1008 0.951 . S
C1026 C1027 1.366 . S
C1026 C1028 1.388 . S
C1027 C1026 1.366 . S
C1027 C1031 1.385 . S
C1028 H1009 0.951 1_655 S
C1028 C1026 1.388 . S
C1028 C1029 1.366 . S
C1029 C1028 1.366 . S
C1029 C1030 1.414 . S
C1029 C1032 1.499 . S
C1030 H1010 0.950 . S
C1030 C1029 1.414 . S
C1030 C1031 1.374 . S
C1031 H1011 0.950 . S
C1031 C1027 1.385 . S
C1031 C1030 1.374 . S
C1032 C1029 1.499 . S
C1032 C1033 1.373 . S
C1032 C1034 1.389 . S
C1033 H1012 0.950 . S
C1033 C1032 1.373 . S
C1033 C1049 1.377 1_655 S
C1034 C1032 1.389 . S
C1034 C1035 1.524 . S
C1034 C1048 1.377 1_655 S
C1035 C1034 1.524 . S
C1035 C1036 1.397 . S
C1035 C1040 1.363 1_655 S
C1036 H1013 0.950 . S
C1036 C1035 1.397 . S
C1036 C1037 1.334 . S
C1037 H1014 0.950 . S
C1037 C1036 1.334 . S
C1037 C1038 1.287 . S
C1038 C1037 1.287 . S
C1038 C1039 1.524 . S
C1038 H1057 0.913 . S
C1039 H1015 0.950 1_655 S
C1039 C1038 1.524 . S
C1039 C1040 1.415 1_655 S
C1040 H1016 0.950 . S
C1040 C1035 1.363 1_455 S
C1040 C1039 1.415 1_455 S
C1041 H1017 0.951 . S
C1041 C1042 1.366 . S
C1041 C1043 1.388 . S
C1042 C1041 1.366 . S
C1042 C1046 1.385 . S
C1043 H1018 0.951 1_455 S
C1043 C1041 1.388 . S
C1043 C1044 1.366 . S
C1044 C1043 1.366 . S
C1044 C1045 1.414 . S
C1044 C1047 1.499 . S
C1045 H1019 0.950 . S
C1045 C1044 1.414 . S
C1045 C1046 1.374 . S
C1046 H1020 0.950 . S
C1046 C1042 1.385 . S
C1046 C1045 1.374 . S
C1047 C1044 1.499 . S
C1047 C1048 1.373 . S
C1047 C1049 1.389 . S
C1048 H1021 0.950 . S
C1048 C1034 1.377 1_455 S
C1048 C1047 1.373 . S
C1049 C1033 1.377 1_455 S
C1049 C1047 1.389 . S
C1049 C1050 1.524 . S
C1050 C1049 1.524 . S
C1050 C1051 1.397 . S
C1050 C1055 1.363 1_455 S
C1051 H1022 0.950 . S
C1051 C1050 1.397 . S
C1051 C1052 1.334 . S
C1052 H1023 0.950 . S
C1052 C1051 1.334 . S
C1052 C1053 1.287 . S
C1053 C1052 1.287 . S
C1053 C1054 1.524 . S
C1053 H1056 0.999 . S
C1054 H1024 0.950 1_455 S
C1054 C1053 1.524 . S
C1054 C1055 1.415 1_455 S
C1055 H1025 0.950 . S
C1055 C1050 1.363 1_655 S
C1055 C1054 1.415 1_655 S
H1056 C1053 0.999 . S
H1057 C1038 0.913 . S
H1058 C1076 0.951 . S
H1059 C1078 0.951 . S
H1060 C1080 0.950 . S
H1061 C1081 0.950 . S
H1062 C1083 0.950 . S
H1063 C1086 0.950 . S
H1064 C1087 0.950 . S
H1065 C1089 0.950 1_554 S
H1066 C1090 0.941 1_554 S
H1067 C1091 0.951 . S
H1068 C1093 0.951 . S
H1069 C1095 0.950 . S
H1070 C1096 0.950 . S
H1071 C1098 0.950 . S
H1072 C1101 0.950 . S
H1073 C1102 0.950 . S
H1074 C1104 0.950 1_556 S
H1075 C1105 0.941 1_556 S
C1076 H1058 0.951 . S
C1076 C1077 1.366 . S
C1076 C1078 1.388 . S
C1077 C1076 1.366 . S
C1077 C1081 1.385 . S
C1078 H1059 0.951 . S
C1078 C1076 1.388 . S
C1078 C1079 1.366 . S
C1079 C1078 1.366 . S
C1079 C1080 1.414 . S
C1079 C1082 1.499 . S
C1080 H1060 0.950 . S
C1080 C1079 1.414 . S
C1080 C1081 1.374 . S
C1081 H1061 0.950 . S
C1081 C1077 1.385 . S
C1081 C1080 1.374 . S
C1082 C1079 1.499 . S
C1082 C1083 1.373 1_565 S
C1082 C1084 1.389 . S
C1083 H1062 0.950 . S
C1083 C1082 1.373 1_545 S
C1083 C1099 1.377 1_556 S
C1084 C1082 1.389 . S
C1084 C1085 1.524 . S
C1084 C1098 1.377 1_556 S
C1085 C1084 1.524 . S
C1085 C1086 1.397 . S
C1085 C1090 1.370 . S
C1086 H1063 0.950 . S
C1086 C1085 1.397 . S
C1086 C1087 1.334 . S
C1087 H1064 0.950 . S
C1087 C1086 1.334 . S
C1087 C1088 1.287 . S
C1088 C1087 1.287 . S
C1088 C1089 1.524 . S
C1088 H1107 0.913 . S
C1089 H1065 0.950 1_556 S
C1089 C1088 1.524 . S
C1089 C1090 1.417 . S
C1090 H1066 0.941 1_556 S
C1090 C1085 1.370 . S
C1090 C1089 1.417 . S
C1091 H1067 0.951 . S
C1091 C1092 1.366 . S
C1091 C1093 1.388 . S
C1092 C1091 1.366 . S
C1092 C1096 1.385 . S
C1093 H1068 0.951 . S
C1093 C1091 1.388 . S
C1093 C1094 1.366 . S
C1094 C1093 1.366 . S
C1094 C1095 1.414 . S
C1094 C1097 1.499 . S
C1095 H1069 0.950 . S
C1095 C1094 1.414 . S
C1095 C1096 1.374 . S
C1096 H1070 0.950 . S
C1096 C1092 1.385 . S
C1096 C1095 1.374 . S
C1097 C1094 1.499 . S
C1097 C1098 1.373 1_545 S
C1097 C1099 1.389 . S
C1098 H1071 0.950 . S
C1098 C1084 1.377 1_554 S
C1098 C1097 1.373 1_565 S
C1099 C1083 1.377 1_554 S
C1099 C1097 1.389 . S
C1099 C1100 1.524 . S
C1100 C1099 1.524 . S
C1100 C1101 1.397 . S
C1100 C1105 1.370 . S
C1101 H1072 0.950 . S
C1101 C1100 1.397 . S
C1101 C1102 1.334 . S
C1102 H1073 0.950 . S
C1102 C1101 1.334 . S
C1102 C1103 1.287 . S
C1103 C1102 1.287 . S
C1103 C1104 1.524 . S
C1103 H1106 0.999 . S
C1104 H1074 0.950 1_554 S
C1104 C1103 1.524 . S
C1104 C1105 1.417 . S
C1105 H1075 0.941 1_554 S
C1105 C1100 1.370 . S
C1105 C1104 1.417 . S
H1106 C1103 0.999 . S
H1107 C1088 0.913 . S
H1108 C1126 0.951 . S
H1109 C1128 0.951 . S
H1110 C1130 0.950 . S
H1111 C1131 0.950 . S
H1112 C1133 0.950 . S
H1113 C1136 0.950 . S
H1114 C1137 0.950 . S
H1115 C1139 0.950 . S
H1116 C1140 0.950 . S
H1117 C1141 0.951 . S
H1118 C1143 0.951 . S
H1119 C1145 0.950 . S
H1120 C1146 0.950 . S
H1121 C1148 0.950 . S
H1122 C1151 0.950 . S
H1123 C1152 0.950 . S
H1124 C1154 0.950 . S
H1125 C1155 0.950 . S
C1126 H1108 0.951 . S
C1126 C1127 1.366 . S
C1126 C1128 1.388 . S
C1127 C1126 1.366 . S
C1127 C1131 1.385 . S
C1128 H1109 0.951 . S
C1128 C1126 1.388 . S
C1128 C1129 1.366 . S
C1129 C1128 1.366 . S
C1129 C1130 1.414 . S
C1129 C1132 1.499 . S
C1130 H1110 0.950 . S
C1130 C1129 1.414 . S
C1130 C1131 1.374 . S
C1131 H1111 0.950 . S
C1131 C1127 1.385 . S
C1131 C1130 1.374 . S
C1132 C1129 1.499 . S
C1132 C1133 1.373 . S
C1132 C1134 1.389 . S
C1133 H1112 0.950 . S
C1133 C1132 1.373 . S
C1133 C1149 1.377 . S
C1134 C1132 1.389 . S
C1134 C1135 1.524 . S
C1134 C1148 1.377 . S
C1135 C1134 1.524 . S
C1135 C1136 1.397 . S
C1135 C1140 1.363 . S
C1136 H1113 0.950 . S
C1136 C1135 1.397 . S
C1136 C1137 1.334 . S
C1137 H1114 0.950 . S
C1137 C1136 1.334 . S
C1137 C1138 1.287 . S
C1138 C1137 1.287 . S
C1138 C1139 1.524 . S
C1138 H1157 0.913 . S
C1139 H1115 0.950 . S
C1139 C1138 1.524 . S
C1139 C1140 1.415 . S
C1140 H1116 0.950 . S
C1140 C1135 1.363 . S
C1140 C1139 1.415 . S
C1141 H1117 0.951 . S
C1141 C1142 1.366 . S
C1141 C1143 1.388 . S
C1142 C1141 1.366 . S
C1142 C1146 1.385 . S
C1143 H1118 0.951 . S
C1143 C1141 1.388 . S
C1143 C1144 1.366 . S
C1144 C1143 1.366 . S
C1144 C1145 1.414 . S
C1144 C1147 1.499 . S
C1145 H1119 0.950 . S
C1145 C1144 1.414 . S
C1145 C1146 1.374 . S
C1146 H1120 0.950 . S
C1146 C1142 1.385 . S
C1146 C1145 1.374 . S
C1147 C1144 1.499 . S
C1147 C1148 1.373 . S
C1147 C1149 1.389 . S
C1148 H1121 0.950 . S
C1148 C1134 1.377 . S
C1148 C1147 1.373 . S
C1149 C1133 1.377 . S
C1149 C1147 1.389 . S
C1149 C1150 1.524 . S
C1150 C1149 1.524 . S
C1150 C1151 1.397 . S
C1150 C1155 1.363 . S
C1151 H1122 0.950 . S
C1151 C1150 1.397 . S
C1151 C1152 1.334 . S
C1152 H1123 0.950 . S
C1152 C1151 1.334 . S
C1152 C1153 1.287 . S
C1153 C1152 1.287 . S
C1153 C1154 1.524 . S
C1153 H1156 0.999 . S
C1154 H1124 0.950 . S
C1154 C1153 1.524 . S
C1154 C1155 1.415 . S
C1155 H1125 0.950 . S
C1155 C1150 1.363 . S
C1155 C1154 1.415 . S
H1156 C1153 0.999 . S
H1157 C1138 0.913 . S
H1158 C1176 0.951 . S
H1159 C1178 0.951 . S
H1160 C1180 0.950 . S
H1161 C1181 0.950 1_455 S
H1162 C1183 0.950 . S
H1163 C1186 0.950 . S
H1164 C1187 0.950 . S
H1165 C1189 0.950 . S
H1166 C1190 0.950 . S
H1167 C1191 0.951 . S
H1168 C1193 0.951 . S
H1169 C1195 0.950 . S
H1170 C1196 0.950 1_655 S
H1171 C1198 0.950 . S
H1172 C1201 0.950 . S
H1173 C1202 0.950 . S
H1174 C1204 0.950 . S
H1175 C1205 0.950 . S
C1176 H1158 0.951 . S
C1176 C1177 1.366 . S
C1176 C1178 1.388 . S
C1177 C1176 1.366 . S
C1177 C1181 1.385 . S
C1178 H1159 0.951 . S
C1178 C1176 1.388 . S
C1178 C1179 1.366 . S
C1179 C1178 1.366 . S
C1179 C1180 1.414 1_655 S
C1179 C1182 1.499 . S
C1180 H1160 0.950 . S
C1180 C1179 1.414 1_455 S
C1180 C1181 1.374 1_455 S
C1181 H1161 0.950 1_655 S
C1181 C1177 1.385 . S
C1181 C1180 1.374 1_655 S
C1182 C1179 1.499 . S
C1182 C1183 1.373 1_655 S
C1182 C1184 1.389 . S
C1183 H1162 0.950 . S
C1183 C1182 1.373 1_455 S
C1183 C1199 1.377 . S
C1184 C1182 1.389 . S
C1184 C1185 1.524 . S
C1184 C1198 1.377 . S
C1185 C1184 1.524 . S
C1185 C1186 1.397 . S
C1185 C1190 1.363 . S
C1186 H1163 0.950 . S
C1186 C1185 1.397 . S
C1186 C1187 1.334 . S
C1187 H1164 0.950 . S
C1187 C1186 1.334 . S
C1187 C1188 1.287 . S
C1188 C1187 1.287 . S
C1188 C1189 1.524 . S
C1188 H1207 0.913 . S
C1189 H1165 0.950 . S
C1189 C1188 1.524 . S
C1189 C1190 1.415 . S
C1190 H1166 0.950 . S
C1190 C1185 1.363 . S
C1190 C1189 1.415 . S
C1191 H1167 0.951 . S
C1191 C1192 1.366 . S
C1191 C1193 1.388 . S
C1192 C1191 1.366 . S
C1192 C1196 1.385 . S
C1193 H1168 0.951 . S
C1193 C1191 1.388 . S
C1193 C1194 1.366 . S
C1194 C1193 1.366 . S
C1194 C1195 1.414 1_455 S
C1194 C1197 1.499 . S
C1195 H1169 0.950 . S
C1195 C1194 1.414 1_655 S
C1195 C1196 1.374 1_655 S
C1196 H1170 0.950 1_455 S
C1196 C1192 1.385 . S
C1196 C1195 1.374 1_455 S
C1197 C1194 1.499 . S
C1197 C1198 1.373 1_455 S
C1197 C1199 1.389 . S
C1198 H1171 0.950 . S
C1198 C1184 1.377 . S
C1198 C1197 1.373 1_655 S
C1199 C1183 1.377 . S
C1199 C1197 1.389 . S
C1199 C1200 1.524 . S
C1200 C1199 1.524 . S
C1200 C1201 1.397 . S
C1200 C1205 1.363 . S
C1201 H1172 0.950 . S
C1201 C1200 1.397 . S
C1201 C1202 1.334 . S
C1202 H1173 0.950 . S
C1202 C1201 1.334 . S
C1202 C1203 1.287 . S
C1203 C1202 1.287 . S
C1203 C1204 1.524 . S
C1203 H1206 0.999 . S
C1204 H1174 0.950 . S
C1204 C1203 1.524 . S
C1204 C1205 1.415 . S
C1205 H1175 0.950 . S
C1205 C1200 1.363 . S
C1205 C1204 1.415 . S
H1206 C1203 0.999 . S
H1207 C1188 0.913 . S
H1208 C1226 0.951 1_545 S
H1209 C1228 0.951 . S
H1210 C1230 0.950 . S
H1211 C1231 0.950 . S
H1212 C1233 0.950 . S
H1213 C1236 0.950 1_565 S
H1214 C1237 0.950 . S
H1215 C1239 0.950 . S
H1216 C1240 0.950 . S
H1217 C1241 0.951 1_565 S
H1218 C1243 0.951 . S
H1219 C1245 0.950 . S
H1220 C1246 0.950 . S
H1221 C1248 0.950 . S
H1222 C1251 0.950 1_545 S
H1223 C1252 0.950 . S
H1224 C1254 0.950 . S
H1225 C1255 0.950 . S
C1226 H1208 0.951 1_565 S
C1226 C1227 1.366 . S
C1226 C1228 1.388 1_565 S
C1227 C1226 1.366 . S
C1227 C1231 1.385 . S
C1228 H1209 0.951 . S
C1228 C1226 1.388 1_545 S
C1228 C1229 1.366 1_545 S
C1229 C1228 1.366 1_565 S
C1229 C1230 1.414 . S
C1229 C1232 1.499 . S
C1230 H1210 0.950 . S
C1230 C1229 1.414 . S
C1230 C1231 1.374 . S
C1231 H1211 0.950 . S
C1231 C1227 1.385 . S
C1231 C1230 1.374 . S
C1232 C1229 1.499 . S
C1232 C1233 1.373 . S
C1232 C1234 1.389 1_565 S
C1233 H1212 0.950 . S
C1233 C1232 1.373 . S
C1233 C1249 1.377 . S
C1234 C1232 1.389 1_545 S
C1234 C1235 1.524 . S
C1234 C1248 1.377 . S
C1235 C1234 1.524 . S
C1235 C1236 1.397 . S
C1235 C1240 1.363 . S
C1236 H1213 0.950 1_545 S
C1236 C1235 1.397 . S
C1236 C1237 1.334 . S
C1237 H1214 0.950 . S
C1237 C1236 1.334 . S
C1237 C1238 1.287 . S
C1238 C1237 1.287 . S
C1238 C1239 1.524 . S
C1238 H1257 0.913 . S
C1239 H1215 0.950 . S
C1239 C1238 1.524 . S
C1239 C1240 1.415 . S
C1240 H1216 0.950 . S
C1240 C1235 1.363 . S
C1240 C1239 1.415 . S
C1241 H1217 0.951 1_545 S
C1241 C1242 1.366 . S
C1241 C1243 1.388 1_545 S
C1242 C1241 1.366 . S
C1242 C1246 1.385 . S
C1243 H1218 0.951 . S
C1243 C1241 1.388 1_565 S
C1243 C1244 1.366 1_565 S
C1244 C1243 1.366 1_545 S
C1244 C1245 1.414 . S
C1244 C1247 1.499 . S
C1245 H1219 0.950 . S
C1245 C1244 1.414 . S
C1245 C1246 1.374 . S
C1246 H1220 0.950 . S
C1246 C1242 1.385 . S
C1246 C1245 1.374 . S
C1247 C1244 1.499 . S
C1247 C1248 1.373 . S
C1247 C1249 1.389 1_545 S
C1248 H1221 0.950 . S
C1248 C1234 1.377 . S
C1248 C1247 1.373 . S
C1249 C1233 1.377 . S
C1249 C1247 1.389 1_565 S
C1249 C1250 1.524 . S
C1250 C1249 1.524 . S
C1250 C1251 1.397 . S
C1250 C1255 1.363 . S
C1251 H1222 0.950 1_565 S
C1251 C1250 1.397 . S
C1251 C1252 1.334 . S
C1252 H1223 0.950 . S
C1252 C1251 1.334 . S
C1252 C1253 1.287 . S
C1253 C1252 1.287 . S
C1253 C1254 1.524 . S
C1253 H1256 0.999 . S
C1254 H1224 0.950 . S
C1254 C1253 1.524 . S
C1254 C1255 1.415 . S
C1255 H1225 0.950 . S
C1255 C1250 1.363 . S
C1255 C1254 1.415 . S
H1256 C1253 0.999 . S
H1257 C1238 0.913 . S
H1258 C1276 0.951 . S
H1259 C1278 0.951 . S
H1260 C1280 0.950 . S
H1261 C1281 0.950 . S
H1262 C1283 0.950 . S
H1263 C1286 0.950 . S
H1264 C1287 0.950 . S
H1265 C1289 0.950 . S
H1266 C1290 0.950 . S
H1267 C1291 0.951 . S
H1268 C1293 0.951 . S
H1269 C1295 0.950 . S
H1270 C1296 0.950 . S
H1271 C1298 0.950 . S
H1272 C1301 0.950 . S
H1273 C1302 0.950 . S
H1274 C1304 0.950 . S
H1275 C1305 0.950 . S
C1276 H1258 0.951 . S
C1276 C1277 1.366 . S
C1276 C1278 1.388 . S
C1277 C1276 1.366 . S
C1277 C1281 1.385 . S
C1278 H1259 0.951 . S
C1278 C1276 1.388 . S
C1278 C1279 1.366 . S
C1279 C1278 1.366 . S
C1279 C1280 1.414 . S
C1279 C1282 1.499 . S
C1280 H1260 0.950 . S
C1280 C1279 1.414 . S
C1280 C1281 1.374 . S
C1281 H1261 0.950 . S
C1281 C1277 1.385 . S
C1281 C1280 1.374 . S
C1282 C1279 1.499 . S
C1282 C1283 1.373 . S
C1282 C1284 1.389 . S
C1283 H1262 0.950 . S
C1283 C1282 1.373 . S
C1283 C1299 1.377 . S
C1284 C1282 1.389 . S
C1284 C1285 1.524 . S
C1284 C1298 1.377 . S
C1285 C1284 1.524 . S
C1285 C1286 1.397 . S
C1285 C1290 1.363 . S
C1286 H1263 0.950 . S
C1286 C1285 1.397 . S
C1286 C1287 1.334 . S
C1287 H1264 0.950 . S
C1287 C1286 1.334 . S
C1287 C1288 1.287 . S
C1288 C1287 1.287 . S
C1288 C1289 1.524 . S
C1288 H1307 0.913 . S
C1289 H1265 0.950 . S
C1289 C1288 1.524 . S
C1289 C1290 1.415 . S
C1290 H1266 0.950 . S
C1290 C1285 1.363 . S
C1290 C1289 1.415 . S
C1291 H1267 0.951 . S
C1291 C1292 1.366 . S
C1291 C1293 1.388 . S
C1292 C1291 1.366 . S
C1292 C1296 1.385 . S
C1293 H1268 0.951 . S
C1293 C1291 1.388 . S
C1293 C1294 1.366 . S
C1294 C1293 1.366 . S
C1294 C1295 1.414 . S
C1294 C1297 1.499 . S
C1295 H1269 0.950 . S
C1295 C1294 1.414 . S
C1295 C1296 1.374 . S
C1296 H1270 0.950 . S
C1296 C1292 1.385 . S
C1296 C1295 1.374 . S
C1297 C1294 1.499 . S
C1297 C1298 1.373 . S
C1297 C1299 1.389 . S
C1298 H1271 0.950 . S
C1298 C1284 1.377 . S
C1298 C1297 1.373 . S
C1299 C1283 1.377 . S
C1299 C1297 1.389 . S
C1299 C1300 1.524 . S
C1300 C1299 1.524 . S
C1300 C1301 1.397 . S
C1300 C1305 1.363 . S
C1301 H1272 0.950 . S
C1301 C1300 1.397 . S
C1301 C1302 1.334 . S
C1302 H1273 0.950 . S
C1302 C1301 1.334 . S
C1302 C1303 1.287 . S
C1303 C1302 1.287 . S
C1303 C1304 1.524 . S
C1303 H1306 0.999 . S
C1304 H1274 0.950 . S
C1304 C1303 1.524 . S
C1304 C1305 1.415 . S
C1305 H1275 0.950 . S
C1305 C1300 1.363 . S
C1305 C1304 1.415 . S
H1306 C1303 0.999 . S
H1307 C1288 0.913 . S
H1308 C1326 0.951 . S
H1309 C1328 0.951 . S
H1310 C1330 0.950 . S
H1311 C1331 0.950 . S
H1312 C1333 0.950 . S
H1313 C1336 0.950 . S
H1314 C1337 0.950 . S
H1315 C1339 0.950 . S
H1316 C1340 0.950 . S
H1317 C1341 0.938 1_554 S
H1318 C1343 0.951 . S
H1319 C1345 0.950 . S
H1320 C1346 0.950 . S
H1321 C1348 0.950 . S
H1322 C1351 0.950 . S
H1323 C1352 0.950 . S
H1324 C1354 0.950 . S
H1325 C1355 0.950 . S
C1326 H1308 0.951 . S
C1326 C1327 1.366 . S
C1326 C1328 1.388 . S
C1327 C1326 1.366 . S
C1327 C1331 1.385 . S
C1328 H1309 0.951 . S
C1328 C1326 1.388 . S
C1328 C1329 1.366 . S
C1329 C1328 1.366 . S
C1329 C1330 1.414 . S
C1329 C1332 1.499 . S
C1330 H1310 0.950 . S
C1330 C1329 1.414 . S
C1330 C1331 1.374 . S
C1331 H1311 0.950 . S
C1331 C1327 1.385 . S
C1331 C1330 1.374 . S
C1332 C1329 1.499 . S
C1332 C1333 1.373 . S
C1332 C1334 1.389 . S
C1333 H1312 0.950 . S
C1333 C1332 1.373 . S
C1333 C1349 1.377 . S
C1334 C1332 1.389 . S
C1334 C1335 1.524 . S
C1334 C1348 1.377 . S
C1335 C1334 1.524 . S
C1335 C1336 1.397 . S
C1335 C1340 1.363 . S
C1336 H1313 0.950 . S
C1336 C1335 1.397 . S
C1336 C1337 1.334 1_556 S
C1337 H1314 0.950 . S
C1337 C1336 1.334 1_554 S
C1337 C1338 1.287 . S
C1338 C1337 1.287 . S
C1338 C1339 1.524 1_554 S
C1338 H1357 0.913 . S
C1339 H1315 0.950 . S
C1339 C1338 1.524 1_556 S
C1339 C1340 1.415 . S
C1340 H1316 0.950 . S
C1340 C1335 1.363 . S
C1340 C1339 1.415 . S
C1341 H1317 0.938 1_556 S
C1341 C1342 1.365 1_556 S
C1341 C1343 1.403 . S
C1342 C1341 1.365 1_554 S
C1342 C1346 1.385 1_554 S
C1343 H1318 0.951 . S
C1343 C1341 1.403 . S
C1343 C1344 1.366 . S
C1344 C1343 1.366 . S
C1344 C1345 1.414 . S
C1344 C1347 1.499 . S
C1345 H1319 0.950 . S
C1345 C1344 1.414 . S
C1345 C1346 1.374 . S
C1346 H1320 0.950 . S
C1346 C1342 1.385 1_556 S
C1346 C1345 1.374 . S
C1347 C1344 1.499 . S
C1347 C1348 1.373 . S
C1347 C1349 1.389 . S
C1348 H1321 0.950 . S
C1348 C1334 1.377 . S
C1348 C1347 1.373 . S
C1349 C1333 1.377 . S
C1349 C1347 1.389 . S
C1349 C1350 1.524 . S
C1350 C1349 1.524 . S
C1350 C1351 1.397 . S
C1350 C1355 1.363 . S
C1351 H1322 0.950 . S
C1351 C1350 1.397 . S
C1351 C1352 1.334 . S
C1352 H1323 0.950 . S
C1352 C1351 1.334 . S
C1352 C1353 1.287 . S
C1353 C1352 1.287 . S
C1353 C1354 1.524 . S
C1353 H1356 0.999 . S
C1354 H1324 0.950 . S
C1354 C1353 1.524 . S
C1354 C1355 1.415 . S
C1355 H1325 0.950 . S
C1355 C1350 1.363 . S
C1355 C1354 1.415 . S
H1356 C1353 0.999 . S
H1357 C1338 0.913 . S
H1358 C1376 0.951 . S
H1359 C1378 0.951 . S
H1360 C1380 0.950 . S
H1361 C1381 0.950 1_455 S
H1362 C1383 0.950 . S
H1363 C1386 0.950 . S
H1364 C1387 0.950 . S
H1365 C1389 0.950 . S
H1366 C1390 0.950 . S
H1367 C1391 0.951 . S
H1368 C1393 0.951 . S
H1369 C1395 0.950 . S
H1370 C1396 0.950 . S
H1371 C1398 0.950 . S
H1372 C1401 0.950 . S
H1373 C1402 0.950 . S
H1374 C1404 0.950 . S
H1375 C1405 0.950 . S
C1376 H1358 0.951 . S
C1376 C1377 1.366 1_655 S
C1376 C1378 1.388 . S
C1377 C1376 1.366 1_455 S
C1377 C1381 1.385 1_455 S
C1378 H1359 0.951 . S
C1378 C1376 1.388 . S
C1378 C1379 1.366 . S
C1379 C1378 1.366 . S
C1379 C1380 1.414 . S
C1379 C1382 1.499 . S
C1380 H1360 0.950 . S
C1380 C1379 1.414 . S
C1380 C1381 1.374 . S
C1381 H1361 0.950 1_655 S
C1381 C1377 1.385 1_655 S
C1381 C1380 1.374 . S
C1382 C1379 1.499 . S
C1382 C1383 1.373 . S
C1382 C1384 1.389 . S
C1383 H1362 0.950 . S
C1383 C1382 1.373 . S
C1383 C1399 1.377 . S
C1384 C1382 1.389 . S
C1384 C1385 1.524 . S
C1384 C1398 1.377 . S
C1385 C1384 1.524 . S
C1385 C1386 1.397 . S
C1385 C1390 1.363 . S
C1386 H1363 0.950 . S
C1386 C1385 1.397 . S
C1386 C1387 1.334 . S
C1387 H1364 0.950 . S
C1387 C1386 1.334 . S
C1387 C1388 1.287 . S
C1388 C1387 1.287 . S
C1388 C1389 1.524 . S
C1388 H1407 0.913 . S
C1389 H1365 0.950 . S
C1389 C1388 1.524 . S
C1389 C1390 1.415 . S
C1390 H1366 0.950 . S
C1390 C1385 1.363 . S
C1390 C1389 1.415 . S
C1391 H1367 0.951 . S
C1391 C1392 1.366 . S
C1391 C1393 1.388 . S
C1392 C1391 1.366 . S
C1392 C1396 1.385 . S
C1393 H1368 0.951 . S
C1393 C1391 1.388 . S
C1393 C1394 1.366 . S
C1394 C1393 1.366 . S
C1394 C1395 1.414 . S
C1394 C1397 1.499 . S
C1395 H1369 0.950 . S
C1395 C1394 1.414 . S
C1395 C1396 1.374 . S
C1396 H1370 0.950 . S
C1396 C1392 1.385 . S
C1396 C1395 1.374 . S
C1397 C1394 1.499 . S
C1397 C1398 1.373 . S
C1397 C1399 1.389 . S
C1398 H1371 0.950 . S
C1398 C1384 1.377 . S
C1398 C1397 1.373 . S
C1399 C1383 1.377 . S
C1399 C1397 1.389 . S
C1399 C1400 1.524 . S
C1400 C1399 1.524 . S
C1400 C1401 1.397 . S
C1400 C1405 1.363 . S
C1401 H1372 0.950 . S
C1401 C1400 1.397 . S
C1401 C1402 1.334 . S
C1402 H1373 0.950 . S
C1402 C1401 1.334 . S
C1402 C1403 1.287 . S
C1403 C1402 1.287 . S
C1403 C1404 1.524 . S
C1403 H1406 0.999 . S
C1404 H1374 0.950 . S
C1404 C1403 1.524 . S
C1404 C1405 1.415 . S
C1405 H1375 0.950 . S
C1405 C1400 1.363 . S
C1405 C1404 1.415 . S
H1406 C1403 0.999 . S
H1407 C1388 0.913 . S
H1408 C1426 0.951 . S
H1409 C1428 0.951 . S
H1410 C1430 0.950 . S
H1411 C1431 0.950 . S
H1412 C1433 0.950 . S
H1413 C1436 0.950 . S
H1414 C1437 0.950 . S
H1415 C1439 0.950 . S
H1416 C1440 0.950 . S
H1417 C1441 0.951 1_545 S
H1418 C1443 0.951 . S
H1419 C1445 0.950 . S
H1420 C1446 0.950 . S
H1421 C1448 0.950 . S
H1422 C1451 0.950 . S
H1423 C1452 0.950 . S
H1424 C1454 0.950 . S
H1425 C1455 0.950 . S
C1426 H1408 0.951 . S
C1426 C1427 1.366 . S
C1426 C1428 1.388 . S
C1427 C1426 1.366 . S
C1427 C1431 1.385 . S
C1428 H1409 0.951 . S
C1428 C1426 1.388 . S
C1428 C1429 1.366 . S
C1429 C1428 1.366 . S
C1429 C1430 1.414 . S
C1429 C1432 1.499 . S
C1430 H1410 0.950 . S
C1430 C1429 1.414 . S
C1430 C1431 1.374 . S
C1431 H1411 0.950 . S
C1431 C1427 1.385 . S
C1431 C1430 1.374 . S
C1432 C1429 1.499 . S
C1432 C1433 1.373 . S
C1432 C1434 1.389 . S
C1433 H1412 0.950 . S
C1433 C1432 1.373 . S
C1433 C1449 1.377 . S
C1434 C1432 1.389 . S
C1434 C1435 1.524 . S
C1434 C1448 1.377 . S
C1435 C1434 1.524 . S
C1435 C1436 1.397 . S
C1435 C1440 1.363 . S
C1436 H1413 0.950 . S
C1436 C1435 1.397 . S
C1436 C1437 1.334 . S
C1437 H1414 0.950 . S
C1437 C1436 1.334 . S
C1437 C1438 1.287 . S
C1438 C1437 1.287 . S
C1438 C1439 1.524 . S
C1438 H1457 0.913 . S
C1439 H1415 0.950 . S
C1439 C1438 1.524 . S
C1439 C1440 1.415 . S
C1440 H1416 0.950 . S
C1440 C1435 1.363 . S
C1440 C1439 1.415 . S
C1441 H1417 0.951 1_565 S
C1441 C1442 1.366 1_565 S
C1441 C1443 1.388 . S
C1442 C1441 1.366 1_545 S
C1442 C1446 1.385 1_545 S
C1443 H1418 0.951 . S
C1443 C1441 1.388 . S
C1443 C1444 1.366 . S
C1444 C1443 1.366 . S
C1444 C1445 1.414 . S
C1444 C1447 1.499 . S
C1445 H1419 0.950 . S
C1445 C1444 1.414 . S
C1445 C1446 1.374 . S
C1446 H1420 0.950 . S
C1446 C1442 1.385 1_565 S
C1446 C1445 1.374 . S
C1447 C1444 1.499 . S
C1447 C1448 1.373 . S
C1447 C1449 1.389 . S
C1448 H1421 0.950 . S
C1448 C1434 1.377 . S
C1448 C1447 1.373 . S
C1449 C1433 1.377 . S
C1449 C1447 1.389 . S
C1449 C1450 1.524 . S
C1450 C1449 1.524 . S
C1450 C1451 1.397 . S
C1450 C1455 1.363 . S
C1451 H1422 0.950 . S
C1451 C1450 1.397 . S
C1451 C1452 1.334 . S
C1452 H1423 0.950 . S
C1452 C1451 1.334 . S
C1452 C1453 1.287 . S
C1453 C1452 1.287 . S
C1453 C1454 1.524 . S
C1453 H1456 0.999 . S
C1454 H1424 0.950 . S
C1454 C1453 1.524 . S
C1454 C1455 1.415 . S
C1455 H1425 0.950 . S
C1455 C1450 1.363 . S
C1455 C1454 1.415 . S
H1456 C1453 0.999 . S
H1457 C1438 0.913 . S
H1458 C1476 0.951 . S
H1459 C1478 0.951 . S
H1460 C1480 0.950 . S
H1461 C1481 0.950 . S
H1462 C1483 0.950 . S
H1463 C1486 0.950 . S
H1464 C1487 0.950 . S
H1465 C1489 0.950 . S
H1466 C1490 0.950 . S
H1467 C1491 0.951 . S
H1468 C1493 0.951 . S
H1469 C1495 0.950 . S
H1470 C1496 0.950 . S
H1471 C1498 0.950 . S
H1472 C1501 0.950 . S
H1473 C1502 0.950 . S
H1474 C1504 0.950 . S
H1475 C1505 0.950 . S
C1476 H1458 0.951 . S
C1476 C1477 1.366 . S
C1476 C1478 1.388 . S
C1477 C1476 1.366 . S
C1477 C1481 1.385 . S
C1478 H1459 0.951 . S
C1478 C1476 1.388 . S
C1478 C1479 1.366 . S
C1479 C1478 1.366 . S
C1479 C1480 1.414 . S
C1479 C1482 1.499 . S
C1480 H1460 0.950 . S
C1480 C1479 1.414 . S
C1480 C1481 1.374 . S
C1481 H1461 0.950 . S
C1481 C1477 1.385 . S
C1481 C1480 1.374 . S
C1482 C1479 1.499 . S
C1482 C1483 1.373 . S
C1482 C1484 1.389 . S
C1483 H1462 0.950 . S
C1483 C1482 1.373 . S
C1483 C1499 1.377 . S
C1484 C1482 1.389 . S
C1484 C1485 1.524 . S
C1484 C1498 1.377 . S
C1485 C1484 1.524 . S
C1485 C1486 1.397 . S
C1485 C1490 1.363 . S
C1486 H1463 0.950 . S
C1486 C1485 1.397 . S
C1486 C1487 1.334 . S
C1487 H1464 0.950 . S
C1487 C1486 1.334 . S
C1487 C1488 1.287 . S
C1488 C1487 1.287 . S
C1488 C1489 1.524 . S
C1488 H1507 0.913 . S
C1489 H1465 0.950 . S
C1489 C1488 1.524 . S
C1489 C1490 1.415 . S
C1490 H1466 0.950 . S
C1490 C1485 1.363 . S
C1490 C1489 1.415 . S
C1491 H1467 0.951 . S
C1491 C1492 1.366 . S
C1491 C1493 1.388 . S
C1492 C1491 1.366 . S
C1492 C1496 1.385 . S
C1493 H1468 0.951 . S
C1493 C1491 1.388 . S
C1493 C1494 1.366 . S
C1494 C1493 1.366 . S
C1494 C1495 1.414 . S
C1494 C1497 1.499 . S
C1495 H1469 0.950 . S
C1495 C1494 1.414 . S
C1495 C1496 1.374 . S
C1496 H1470 0.950 . S
C1496 C1492 1.385 . S
C1496 C1495 1.374 . S
C1497 C1494 1.499 . S
C1497 C1498 1.373 . S
C1497 C1499 1.389 . S
C1498 H1471 0.950 . S
C1498 C1484 1.377 . S
C1498 C1497 1.373 . S
C1499 C1483 1.377 . S
C1499 C1497 1.389 . S
C1499 C1500 1.524 . S
C1500 C1499 1.524 . S
C1500 C1501 1.397 . S
C1500 C1505 1.363 . S
C1501 H1472 0.950 . S
C1501 C1500 1.397 . S
C1501 C1502 1.334 . S
C1502 H1473 0.950 . S
C1502 C1501 1.334 . S
C1502 C1503 1.287 . S
C1503 C1502 1.287 . S
C1503 C1504 1.524 . S
C1503 H1506 0.999 . S
C1504 H1474 0.950 . S
C1504 C1503 1.524 . S
C1504 C1505 1.415 . S
C1505 H1475 0.950 . S
C1505 C1500 1.363 . S
C1505 C1504 1.415 . S
H1506 C1503 0.999 . S
H1507 C1488 0.913 . S
H1508 C1526 0.951 . S
H1509 C1528 0.951 . S
H1510 C1530 0.950 . S
H1511 C1531 0.950 . S
H1512 C1533 0.950 . S
H1513 C1536 0.950 . S
H1514 C1537 0.950 . S
H1515 C1539 0.950 . S
H1516 C1540 0.950 . S
H1517 C1541 0.951 1_655 S
H1518 C1543 0.951 . S
H1519 C1545 0.950 . S
H1520 C1546 0.950 . S
H1521 C1548 0.950 . S
H1522 C1551 0.950 . S
H1523 C1552 0.946 1_655 S
H1524 C1554 0.950 . S
H1525 C1555 0.950 . S
C1526 H1508 0.951 . S
C1526 C1527 1.366 . S
C1526 C1528 1.388 . S
C1527 C1526 1.366 . S
C1527 C1531 1.385 . S
C1528 H1509 0.951 . S
C1528 C1526 1.388 . S
C1528 C1529 1.366 . S
C1529 C1528 1.366 . S
C1529 C1530 1.414 . S
C1529 C1532 1.499 . S
C1530 H1510 0.950 . S
C1530 C1529 1.414 . S
C1530 C1531 1.374 . S
C1531 H1511 0.950 . S
C1531 C1527 1.385 . S
C1531 C1530 1.374 . S
C1532 C1529 1.499 . S
C1532 C1533 1.373 . S
C1532 C1534 1.389 . S
C1533 H1512 0.950 . S
C1533 C1532 1.373 . S
C1533 C1549 1.377 . S
C1534 C1532 1.389 . S
C1534 C1535 1.524 . S
C1534 C1548 1.377 . S
C1535 C1534 1.524 . S
C1535 C1536 1.397 . S
C1535 C1540 1.363 . S
C1536 H1513 0.950 . S
C1536 C1535 1.397 . S
C1536 C1537 1.334 . S
C1537 H1514 0.950 . S
C1537 C1536 1.334 . S
C1537 C1538 1.287 . S
C1538 C1537 1.287 . S
C1538 C1539 1.524 . S
C1538 H1557 0.913 . S
C1539 H1515 0.950 . S
C1539 C1538 1.524 . S
C1539 C1540 1.415 . S
C1540 H1516 0.950 . S
C1540 C1535 1.363 . S
C1540 C1539 1.415 . S
C1541 H1517 0.951 1_455 S
C1541 C1542 1.366 1_455 S
C1541 C1543 1.388 . S
C1542 C1541 1.366 1_655 S
C1542 C1546 1.385 1_655 S
C1543 H1518 0.951 . S
C1543 C1541 1.388 . S
C1543 C1544 1.366 . S
C1544 C1543 1.366 . S
C1544 C1545 1.414 . S
C1544 C1547 1.499 . S
C1545 H1519 0.950 . S
C1545 C1544 1.414 . S
C1545 C1546 1.374 . S
C1546 H1520 0.950 . S
C1546 C1542 1.385 1_455 S
C1546 C1545 1.374 . S
C1547 C1544 1.499 . S
C1547 C1548 1.373 . S
C1547 C1549 1.389 . S
C1548 H1521 0.950 . S
C1548 C1534 1.377 . S
C1548 C1547 1.373 . S
C1549 C1533 1.377 . S
C1549 C1547 1.389 . S
C1549 C1550 1.524 . S
C1550 C1549 1.524 . S
C1550 C1551 1.397 . S
C1550 C1555 1.363 . S
C1551 H1522 0.950 . S
C1551 C1550 1.397 . S
C1551 C1552 1.334 . S
C1552 H1523 0.946 1_455 S
C1552 C1551 1.334 . S
C1552 C1553 1.287 . S
C1553 C1552 1.287 . S
C1553 C1554 1.524 . S
C1553 H1556 0.999 1_455 S
C1554 H1524 0.950 . S
C1554 C1553 1.524 . S
C1554 C1555 1.415 . S
C1555 H1525 0.950 . S
C1555 C1550 1.363 . S
C1555 C1554 1.415 . S
H1556 C1553 0.999 1_655 S
H1557 C1538 0.913 . S
H1558 C1576 0.951 . S
H1559 C1578 0.951 . S
H1560 C1580 0.950 . S
H1561 C1581 0.950 . S
H1562 C1583 0.950 . S
H1563 C1586 0.950 . S
H1564 C1587 0.950 . S
H1565 C1589 0.950 . S
H1566 C1590 0.950 . S
H1567 C1591 0.951 1_565 S
H1568 C1593 0.951 . S
H1569 C1595 0.950 . S
H1570 C1596 0.950 . S
H1571 C1598 0.950 . S
H1572 C1601 0.950 . S
H1573 C1602 0.950 . S
H1574 C1604 0.950 . S
H1575 C1605 0.950 . S
C1576 H1558 0.951 . S
C1576 C1577 1.366 . S
C1576 C1578 1.388 . S
C1577 C1576 1.366 . S
C1577 C1581 1.385 . S
C1578 H1559 0.951 . S
C1578 C1576 1.388 . S
C1578 C1579 1.366 . S
C1579 C1578 1.366 . S
C1579 C1580 1.414 . S
C1579 C1582 1.499 . S
C1580 H1560 0.950 . S
C1580 C1579 1.414 . S
C1580 C1581 1.374 . S
C1581 H1561 0.950 . S
C1581 C1577 1.385 . S
C1581 C1580 1.374 . S
C1582 C1579 1.499 . S
C1582 C1583 1.373 . S
C1582 C1584 1.389 . S
C1583 H1562 0.950 . S
C1583 C1582 1.373 . S
C1583 C1599 1.377 . S
C1584 C1582 1.389 . S
C1584 C1585 1.524 . S
C1584 C1598 1.377 . S
C1585 C1584 1.524 . S
C1585 C1586 1.397 . S
C1585 C1590 1.363 . S
C1586 H1563 0.950 . S
C1586 C1585 1.397 . S
C1586 C1587 1.334 . S
C1587 H1564 0.950 . S
C1587 C1586 1.334 . S
C1587 C1588 1.287 . S
C1588 C1587 1.287 . S
C1588 C1589 1.524 . S
C1588 H1607 0.913 . S
C1589 H1565 0.950 . S
C1589 C1588 1.524 . S
C1589 C1590 1.415 . S
C1590 H1566 0.950 . S
C1590 C1585 1.363 . S
C1590 C1589 1.415 . S
C1591 H1567 0.951 1_545 S
C1591 C1592 1.366 1_545 S
C1591 C1593 1.388 . S
C1592 C1591 1.366 1_565 S
C1592 C1596 1.385 1_565 S
C1593 H1568 0.951 . S
C1593 C1591 1.388 . S
C1593 C1594 1.366 . S
C1594 C1593 1.366 . S
C1594 C1595 1.414 . S
C1594 C1597 1.499 . S
C1595 H1569 0.950 . S
C1595 C1594 1.414 . S
C1595 C1596 1.374 . S
C1596 H1570 0.950 . S
C1596 C1592 1.385 1_545 S
C1596 C1595 1.374 . S
C1597 C1594 1.499 . S
C1597 C1598 1.373 . S
C1597 C1599 1.389 . S
C1598 H1571 0.950 . S
C1598 C1584 1.377 . S
C1598 C1597 1.373 . S
C1599 C1583 1.377 . S
C1599 C1597 1.389 . S
C1599 C1600 1.524 . S
C1600 C1599 1.524 . S
C1600 C1601 1.397 . S
C1600 C1605 1.363 . S
C1601 H1572 0.950 . S
C1601 C1600 1.397 . S
C1601 C1602 1.334 . S
C1602 H1573 0.950 . S
C1602 C1601 1.334 . S
C1602 C1603 1.287 . S
C1603 C1602 1.287 . S
C1603 C1604 1.524 . S
C1603 H1606 0.999 . S
C1604 H1574 0.950 . S
C1604 C1603 1.524 . S
C1604 C1605 1.415 . S
C1605 H1575 0.950 . S
C1605 C1600 1.363 . S
C1605 C1604 1.415 . S
H1606 C1603 0.999 . S
H1607 C1588 0.913 . S
H1608 C1626 0.951 . S
H1609 C1628 0.951 . S
H1610 C1630 0.950 . S
H1611 C1631 0.950 . S
H1612 C1633 0.950 . S
H1613 C1636 0.950 . S
H1614 C1637 0.950 . S
H1615 C1639 0.950 . S
H1616 C1640 0.950 . S
H1617 C1641 0.951 . S
H1618 C1643 0.951 . S
H1619 C1645 0.950 . S
H1620 C1646 0.950 . S
H1621 C1648 0.950 . S
H1622 C1651 0.950 . S
H1623 C1652 0.950 . S
H1624 C1654 0.950 . S
H1625 C1655 0.950 . S
C1626 H1608 0.951 . S
C1626 C1627 1.366 . S
C1626 C1628 1.388 . S
C1627 C1626 1.366 . S
C1627 C1631 1.385 . S
C1628 H1609 0.951 . S
C1628 C1626 1.388 . S
C1628 C1629 1.366 . S
C1629 C1628 1.366 . S
C1629 C1630 1.414 . S
C1629 C1632 1.499 . S
C1630 H1610 0.950 . S
C1630 C1629 1.414 . S
C1630 C1631 1.374 . S
C1631 H1611 0.950 . S
C1631 C1627 1.385 . S
C1631 C1630 1.374 . S
C1632 C1629 1.499 . S
C1632 C1633 1.373 . S
C1632 C1634 1.389 . S
C1633 H1612 0.950 . S
C1633 C1632 1.373 . S
C1633 C1649 1.377 . S
C1634 C1632 1.389 . S
C1634 C1635 1.524 . S
C1634 C1648 1.377 . S
C1635 C1634 1.524 . S
C1635 C1636 1.397 . S
C1635 C1640 1.363 . S
C1636 H1613 0.950 . S
C1636 C1635 1.397 . S
C1636 C1637 1.334 . S
C1637 H1614 0.950 . S
C1637 C1636 1.334 . S
C1637 C1638 1.287 . S
C1638 C1637 1.287 . S
C1638 C1639 1.524 . S
C1638 H1657 0.913 . S
C1639 H1615 0.950 . S
C1639 C1638 1.524 . S
C1639 C1640 1.415 . S
C1640 H1616 0.950 . S
C1640 C1635 1.363 . S
C1640 C1639 1.415 . S
C1641 H1617 0.951 . S
C1641 C1642 1.366 . S
C1641 C1643 1.388 . S
C1642 C1641 1.366 . S
C1642 C1646 1.385 . S
C1643 H1618 0.951 . S
C1643 C1641 1.388 . S
C1643 C1644 1.366 . S
C1644 C1643 1.366 . S
C1644 C1645 1.414 . S
C1644 C1647 1.499 . S
C1645 H1619 0.950 . S
C1645 C1644 1.414 . S
C1645 C1646 1.374 . S
C1646 H1620 0.950 . S
C1646 C1642 1.385 . S
C1646 C1645 1.374 . S
C1647 C1644 1.499 . S
C1647 C1648 1.373 . S
C1647 C1649 1.389 . S
C1648 H1621 0.950 . S
C1648 C1634 1.377 . S
C1648 C1647 1.373 . S
C1649 C1633 1.377 . S
C1649 C1647 1.389 . S
C1649 C1650 1.524 . S
C1650 C1649 1.524 . S
C1650 C1651 1.397 . S
C1650 C1655 1.363 . S
C1651 H1622 0.950 . S
C1651 C1650 1.397 . S
C1651 C1652 1.334 . S
C1652 H1623 0.950 . S
C1652 C1651 1.334 . S
C1652 C1653 1.287 . S
C1653 C1652 1.287 . S
C1653 C1654 1.524 . S
C1653 H1656 0.999 . S
C1654 H1624 0.950 . S
C1654 C1653 1.524 . S
C1654 C1655 1.415 . S
C1655 H1625 0.950 . S
C1655 C1650 1.363 . S
C1655 C1654 1.415 . S
H1656 C1653 0.999 . S
H1657 C1638 0.913 . S
H1658 C1676 0.951 . S
H1659 C1678 0.951 . S
H1660 C1680 0.950 . S
H1661 C1681 0.950 . S
H1662 C1683 0.950 . S
H1663 C1686 0.950 1_556 S
H1664 C1687 0.950 . S
H1665 C1689 0.950 . S
H1666 C1690 0.950 . S
H1667 C1691 0.951 . S
H1668 C1693 0.951 . S
H1669 C1695 0.950 . S
H1670 C1696 0.950 . S
H1671 C1698 0.950 . S
H1672 C1701 0.950 . S
H1673 C1702 0.950 . S
H1674 C1704 0.950 . S
H1675 C1705 0.950 . S
C1676 H1658 0.951 . S
C1676 C1677 1.368 1_554 S
C1676 C1678 1.388 . S
C1677 C1676 1.368 1_556 S
C1677 C1681 1.383 . S
C1678 H1659 0.951 . S
C1678 C1676 1.388 . S
C1678 C1679 1.366 . S
C1679 C1678 1.366 . S
C1679 C1680 1.414 1_554 S
C1679 C1682 1.499 . S
C1680 H1660 0.950 . S
C1680 C1679 1.414 1_556 S
C1680 C1681 1.374 . S
C1681 H1661 0.950 . S
C1681 C1677 1.383 . S
C1681 C1680 1.374 . S
C1682 C1679 1.499 . S
C1682 C1683 1.373 . S
C1682 C1684 1.389 . S
C1683 H1662 0.950 . S
C1683 C1682 1.373 . S
C1683 C1699 1.377 . S
C1684 C1682 1.389 . S
C1684 C1685 1.524 . S
C1684 C1698 1.377 . S
C1685 C1684 1.524 . S
C1685 C1686 1.397 . S
C1685 C1690 1.363 . S
C1686 H1663 0.950 1_554 S
C1686 C1685 1.397 . S
C1686 C1687 1.334 1_554 S
C1687 H1664 0.950 . S
C1687 C1686 1.334 1_556 S
C1687 C1688 1.287 1_556 S
C1688 C1687 1.287 1_554 S
C1688 C1689 1.524 . S
C1688 H1707 0.913 . S
C1689 H1665 0.950 . S
C1689 C1688 1.524 . S
C1689 C1690 1.415 . S
C1690 H1666 0.950 . S
C1690 C1685 1.363 . S
C1690 C1689 1.415 . S
C1691 H1667 0.951 . S
C1691 C1692 1.366 1_655 S
C1691 C1693 1.388 . S
C1692 C1691 1.366 1_455 S
C1692 C1696 1.385 1_455 S
C1693 H1668 0.951 . S
C1693 C1691 1.388 . S
C1693 C1694 1.366 . S
C1694 C1693 1.366 . S
C1694 C1695 1.414 . S
C1694 C1697 1.499 . S
C1695 H1669 0.950 . S
C1695 C1694 1.414 . S
C1695 C1696 1.374 . S
C1696 H1670 0.950 . S
C1696 C1692 1.385 1_655 S
C1696 C1695 1.374 . S
C1697 C1694 1.499 . S
C1697 C1698 1.373 . S
C1697 C1699 1.389 . S
C1698 H1671 0.950 . S
C1698 C1684 1.377 . S
C1698 C1697 1.373 . S
C1699 C1683 1.377 . S
C1699 C1697 1.389 . S
C1699 C1700 1.524 . S
C1700 C1699 1.524 . S
C1700 C1701 1.397 . S
C1700 C1705 1.363 . S
C1701 H1672 0.950 . S
C1701 C1700 1.397 . S
C1701 C1702 1.334 . S
C1702 H1673 0.950 . S
C1702 C1701 1.334 . S
C1702 C1703 1.287 . S
C1703 C1702 1.287 . S
C1703 C1704 1.524 . S
C1703 H1706 0.999 . S
C1704 H1674 0.950 . S
C1704 C1703 1.524 . S
C1704 C1705 1.415 . S
C1705 H1675 0.950 . S
C1705 C1700 1.363 . S
C1705 C1704 1.415 . S
H1706 C1703 0.999 . S
H1707 C1688 0.913 . S
H1708 C1726 0.951 . S
H1709 C1728 0.951 . S
H1710 C1730 0.950 . S
H1711 C1731 0.950 . S
H1712 C1733 0.950 . S
H1713 C1736 0.950 . S
H1714 C1737 0.950 . S
H1715 C1739 0.950 . S
H1716 C1740 0.950 . S
H1717 C1741 0.951 . S
H1718 C1743 0.951 . S
H1719 C1745 0.950 . S
H1720 C1746 0.950 1_545 S
H1721 C1748 0.950 . S
H1722 C1751 0.950 . S
H1723 C1752 0.950 . S
H1724 C1754 0.950 . S
H1725 C1755 0.950 . S
C1726 H1708 0.951 . S
C1726 C1727 1.366 . S
C1726 C1728 1.388 . S
C1727 C1726 1.366 . S
C1727 C1731 1.385 . S
C1728 H1709 0.951 . S
C1728 C1726 1.388 . S
C1728 C1729 1.366 . S
C1729 C1728 1.366 . S
C1729 C1730 1.414 . S
C1729 C1732 1.499 . S
C1730 H1710 0.950 . S
C1730 C1729 1.414 . S
C1730 C1731 1.374 . S
C1731 H1711 0.950 . S
C1731 C1727 1.385 . S
C1731 C1730 1.374 . S
C1732 C1729 1.499 . S
C1732 C1733 1.373 . S
C1732 C1734 1.389 . S
C1733 H1712 0.950 . S
C1733 C1732 1.373 . S
C1733 C1749 1.377 . S
C1734 C1732 1.389 . S
C1734 C1735 1.524 . S
C1734 C1748 1.377 . S
C1735 C1734 1.524 . S
C1735 C1736 1.397 . S
C1735 C1740 1.363 . S
C1736 H1713 0.950 . S
C1736 C1735 1.397 . S
C1736 C1737 1.334 . S
C1737 H1714 0.950 . S
C1737 C1736 1.334 . S
C1737 C1738 1.287 . S
C1738 C1737 1.287 . S
C1738 C1739 1.524 . S
C1738 H1757 0.913 . S
C1739 H1715 0.950 . S
C1739 C1738 1.524 . S
C1739 C1740 1.415 . S
C1740 H1716 0.950 . S
C1740 C1735 1.363 . S
C1740 C1739 1.415 . S
C1741 H1717 0.951 . S
C1741 C1742 1.366 1_565 S
C1741 C1743 1.388 . S
C1742 C1741 1.366 1_545 S
C1742 C1746 1.385 1_545 S
C1743 H1718 0.951 . S
C1743 C1741 1.388 . S
C1743 C1744 1.366 . S
C1744 C1743 1.366 . S
C1744 C1745 1.414 . S
C1744 C1747 1.499 . S
C1745 H1719 0.950 . S
C1745 C1744 1.414 . S
C1745 C1746 1.374 . S
C1746 H1720 0.950 1_565 S
C1746 C1742 1.385 1_565 S
C1746 C1745 1.374 . S
C1747 C1744 1.499 . S
C1747 C1748 1.373 . S
C1747 C1749 1.389 . S
C1748 H1721 0.950 . S
C1748 C1734 1.377 . S
C1748 C1747 1.373 . S
C1749 C1733 1.377 . S
C1749 C1747 1.389 . S
C1749 C1750 1.524 . S
C1750 C1749 1.524 . S
C1750 C1751 1.397 . S
C1750 C1755 1.363 . S
C1751 H1722 0.950 . S
C1751 C1750 1.397 . S
C1751 C1752 1.334 . S
C1752 H1723 0.950 . S
C1752 C1751 1.334 . S
C1752 C1753 1.287 . S
C1753 C1752 1.287 . S
C1753 C1754 1.524 . S
C1753 H1756 0.999 . S
C1754 H1724 0.950 . S
C1754 C1753 1.524 . S
C1754 C1755 1.415 . S
C1755 H1725 0.950 . S
C1755 C1750 1.363 . S
C1755 C1754 1.415 . S
H1756 C1753 0.999 . S
H1757 C1738 0.913 . S
H1758 C1776 0.951 . S
H1759 C1778 0.951 . S
H1760 C1780 0.950 . S
H1761 C1781 0.950 . S
H1762 C1783 0.950 . S
H1763 C1786 0.950 . S
H1764 C1787 0.950 . S
H1765 C1789 0.950 . S
H1766 C1790 0.950 . S
H1767 C1791 0.951 . S
H1768 C1793 0.951 . S
H1769 C1795 0.950 . S
H1770 C1796 0.950 . S
H1771 C1798 0.950 . S
H1772 C1801 0.950 . S
H1773 C1802 0.950 . S
H1774 C1804 0.950 . S
H1775 C1805 0.950 . S
C1776 H1758 0.951 . S
C1776 C1777 1.366 . S
C1776 C1778 1.388 . S
C1777 C1776 1.366 . S
C1777 C1781 1.385 . S
C1778 H1759 0.951 . S
C1778 C1776 1.388 . S
C1778 C1779 1.366 . S
C1779 C1778 1.366 . S
C1779 C1780 1.414 . S
C1779 C1782 1.499 . S
C1780 H1760 0.950 . S
C1780 C1779 1.414 . S
C1780 C1781 1.374 . S
C1781 H1761 0.950 . S
C1781 C1777 1.385 . S
C1781 C1780 1.374 . S
C1782 C1779 1.499 . S
C1782 C1783 1.373 . S
C1782 C1784 1.389 . S
C1783 H1762 0.950 . S
C1783 C1782 1.373 . S
C1783 C1799 1.377 . S
C1784 C1782 1.389 . S
C1784 C1785 1.524 . S
C1784 C1798 1.377 . S
C1785 C1784 1.524 . S
C1785 C1786 1.397 . S
C1785 C1790 1.363 . S
C1786 H1763 0.950 . S
C1786 C1785 1.397 . S
C1786 C1787 1.334 . S
C1787 H1764 0.950 . S
C1787 C1786 1.334 . S
C1787 C1788 1.287 . S
C1788 C1787 1.287 . S
C1788 C1789 1.524 . S
C1788 H1807 0.913 . S
C1789 H1765 0.950 . S
C1789 C1788 1.524 . S
C1789 C1790 1.415 . S
C1790 H1766 0.950 . S
C1790 C1785 1.363 . S
C1790 C1789 1.415 . S
C1791 H1767 0.951 . S
C1791 C1792 1.366 . S
C1791 C1793 1.388 . S
C1792 C1791 1.366 . S
C1792 C1796 1.385 . S
C1793 H1768 0.951 . S
C1793 C1791 1.388 . S
C1793 C1794 1.366 . S
C1794 C1793 1.366 . S
C1794 C1795 1.414 . S
C1794 C1797 1.499 . S
C1795 H1769 0.950 . S
C1795 C1794 1.414 . S
C1795 C1796 1.374 . S
C1796 H1770 0.950 . S
C1796 C1792 1.385 . S
C1796 C1795 1.374 . S
C1797 C1794 1.499 . S
C1797 C1798 1.373 . S
C1797 C1799 1.389 . S
C1798 H1771 0.950 . S
C1798 C1784 1.377 . S
C1798 C1797 1.373 . S
C1799 C1783 1.377 . S
C1799 C1797 1.389 . S
C1799 C1800 1.524 . S
C1800 C1799 1.524 . S
C1800 C1801 1.397 . S
C1800 C1805 1.363 . S
C1801 H1772 0.950 . S
C1801 C1800 1.397 . S
C1801 C1802 1.334 . S
C1802 H1773 0.950 . S
C1802 C1801 1.334 . S
C1802 C1803 1.287 . S
C1803 C1802 1.287 . S
C1803 C1804 1.524 . S
C1803 H1806 0.999 . S
C1804 H1774 0.950 . S
C1804 C1803 1.524 . S
C1804 C1805 1.415 . S
C1805 H1775 0.950 . S
C1805 C1800 1.363 . S
C1805 C1804 1.415 . S
H1806 C1803 0.999 . S
H1807 C1788 0.913 . S
H1808 C1826 0.951 . S
H1809 C1828 0.951 . S
H1810 C1830 0.950 . S
H1811 C1831 0.950 1_655 S
H1812 C1833 0.950 . S
H1813 C1836 0.950 . S
H1814 C1837 0.950 . S
H1815 C1839 0.950 . S
H1816 C1840 0.950 . S
H1817 C1841 0.951 . S
H1818 C1843 0.951 . S
H1819 C1845 0.950 . S
H1820 C1846 0.950 . S
H1821 C1848 0.950 . S
H1822 C1851 0.950 . S
H1823 C1852 0.950 . S
H1824 C1854 0.950 . S
H1825 C1855 0.950 . S
C1826 H1808 0.951 . S
C1826 C1827 1.366 1_455 S
C1826 C1828 1.388 . S
C1827 C1826 1.366 1_655 S
C1827 C1831 1.385 1_655 S
C1828 H1809 0.951 . S
C1828 C1826 1.388 . S
C1828 C1829 1.366 . S
C1829 C1828 1.366 . S
C1829 C1830 1.414 . S
C1829 C1832 1.499 . S
C1830 H1810 0.950 . S
C1830 C1829 1.414 . S
C1830 C1831 1.374 . S
C1831 H1811 0.950 1_455 S
C1831 C1827 1.385 1_455 S
C1831 C1830 1.374 . S
C1832 C1829 1.499 . S
C1832 C1833 1.373 . S
C1832 C1834 1.389 . S
C1833 H1812 0.950 . S
C1833 C1832 1.373 . S
C1833 C1849 1.377 . S
C1834 C1832 1.389 . S
C1834 C1835 1.524 . S
C1834 C1848 1.377 . S
C1835 C1834 1.524 . S
C1835 C1836 1.397 . S
C1835 C1840 1.363 . S
C1836 H1813 0.950 . S
C1836 C1835 1.397 . S
C1836 C1837 1.334 . S
C1837 H1814 0.950 . S
C1837 C1836 1.334 . S
C1837 C1838 1.287 . S
C1838 C1837 1.287 . S
C1838 C1839 1.524 . S
C1838 H1857 0.913 . S
C1839 H1815 0.950 . S
C1839 C1838 1.524 . S
C1839 C1840 1.415 . S
C1840 H1816 0.950 . S
C1840 C1835 1.363 . S
C1840 C1839 1.415 . S
C1841 H1817 0.951 . S
C1841 C1842 1.366 . S
C1841 C1843 1.388 . S
C1842 C1841 1.366 . S
C1842 C1846 1.385 . S
C1843 H1818 0.951 . S
C1843 C1841 1.388 . S
C1843 C1844 1.366 . S
C1844 C1843 1.366 . S
C1844 C1845 1.414 . S
C1844 C1847 1.499 . S
C1845 H1819 0.950 . S
C1845 C1844 1.414 . S
C1845 C1846 1.374 . S
C1846 H1820 0.950 . S
C1846 C1842 1.385 . S
C1846 C1845 1.374 . S
C1847 C1844 1.499 . S
C1847 C1848 1.373 . S
C1847 C1849 1.389 . S
C1848 H1821 0.950 . S
C1848 C1834 1.377 . S
C1848 C1847 1.373 . S
C1849 C1833 1.377 . S
C1849 C1847 1.389 . S
C1849 C1850 1.524 . S
C1850 C1849 1.524 . S
C1850 C1851 1.397 . S
C1850 C1855 1.363 . S
C1851 H1822 0.950 . S
C1851 C1850 1.397 . S
C1851 C1852 1.334 . S
C1852 H1823 0.950 . S
C1852 C1851 1.334 . S
C1852 C1853 1.287 . S
C1853 C1852 1.287 . S
C1853 C1854 1.524 . S
C1853 H1856 0.999 . S
C1854 H1824 0.950 . S
C1854 C1853 1.524 . S
C1854 C1855 1.415 . S
C1855 H1825 0.950 . S
C1855 C1850 1.363 . S
C1855 C1854 1.415 . S
H1856 C1853 0.999 . S
H1857 C1838 0.913 . S
H1858 C1876 0.951 . S
H1859 C1878 0.951 . S
H1860 C1880 0.950 . S
H1861 C1881 0.950 . S
H1862 C1883 0.950 . S
H1863 C1886 0.950 . S
H1864 C1887 0.950 . S
H1865 C1889 0.950 . S
H1866 C1890 0.950 . S
H1867 C1891 0.951 1_565 S
H1868 C1893 0.951 . S
H1869 C1895 0.950 . S
H1870 C1896 0.950 . S
H1871 C1898 0.950 . S
H1872 C1901 0.950 . S
H1873 C1902 0.950 . S
H1874 C1904 0.950 . S
H1875 C1905 0.950 . S
C1876 H1858 0.951 . S
C1876 C1877 1.366 . S
C1876 C1878 1.388 . S
C1877 C1876 1.366 . S
C1877 C1881 1.385 . S
C1878 H1859 0.951 . S
C1878 C1876 1.388 . S
C1878 C1879 1.366 . S
C1879 C1878 1.366 . S
C1879 C1880 1.414 . S
C1879 C1882 1.499 . S
C1880 H1860 0.950 . S
C1880 C1879 1.414 . S
C1880 C1881 1.374 . S
C1881 H1861 0.950 . S
C1881 C1877 1.385 . S
C1881 C1880 1.374 . S
C1882 C1879 1.499 . S
C1882 C1883 1.373 . S
C1882 C1884 1.389 . S
C1883 H1862 0.950 . S
C1883 C1882 1.373 . S
C1883 C1899 1.377 . S
C1884 C1882 1.389 . S
C1884 C1885 1.524 . S
C1884 C1898 1.377 . S
C1885 C1884 1.524 . S
C1885 C1886 1.397 . S
C1885 C1890 1.363 . S
C1886 H1863 0.950 . S
C1886 C1885 1.397 . S
C1886 C1887 1.334 . S
C1887 H1864 0.950 . S
C1887 C1886 1.334 . S
C1887 C1888 1.287 . S
C1888 C1887 1.287 . S
C1888 C1889 1.524 . S
C1888 H1907 0.913 . S
C1889 H1865 0.950 . S
C1889 C1888 1.524 . S
C1889 C1890 1.415 . S
C1890 H1866 0.950 . S
C1890 C1885 1.363 . S
C1890 C1889 1.415 . S
C1891 H1867 0.951 1_545 S
C1891 C1892 1.366 1_545 S
C1891 C1893 1.388 . S
C1892 C1891 1.366 1_565 S
C1892 C1896 1.385 1_565 S
C1893 H1868 0.951 . S
C1893 C1891 1.388 . S
C1893 C1894 1.366 . S
C1894 C1893 1.366 . S
C1894 C1895 1.414 . S
C1894 C1897 1.499 . S
C1895 H1869 0.950 . S
C1895 C1894 1.414 . S
C1895 C1896 1.374 . S
C1896 H1870 0.950 . S
C1896 C1892 1.385 1_545 S
C1896 C1895 1.374 . S
C1897 C1894 1.499 . S
C1897 C1898 1.373 . S
C1897 C1899 1.389 . S
C1898 H1871 0.950 . S
C1898 C1884 1.377 . S
C1898 C1897 1.373 . S
C1899 C1883 1.377 . S
C1899 C1897 1.389 . S
C1899 C1900 1.524 . S
C1900 C1899 1.524 . S
C1900 C1901 1.397 . S
C1900 C1905 1.363 . S
C1901 H1872 0.950 . S
C1901 C1900 1.397 . S
C1901 C1902 1.334 . S
C1902 H1873 0.950 . S
C1902 C1901 1.334 . S
C1902 C1903 1.287 . S
C1903 C1902 1.287 . S
C1903 C1904 1.524 . S
C1903 H1906 1.034 . S
C1904 H1874 0.950 . S
C1904 C1903 1.524 . S
C1904 C1905 1.415 . S
C1905 H1875 0.950 . S
C1905 C1900 1.363 . S
C1905 C1904 1.415 . S
H1906 C1903 1.034 . S
H1907 C1888 0.913 . S
C427 C349 0.862 . S
C442 C9 0.863 . S
C477 C43 0.863 . S
C492 C383 0.862 . S
C527 C77 0.864 . S
C542 C213 0.862 . S
C577 C111 0.862 . S
C592 C247 0.863 . S
C627 C145 0.862 . S
C642 C281 0.863 . S
C677 C179 0.863 . S
C692 C315 0.862 . S
C727 C33 1.229 . S
C742 C305 1.229 . S
C777 C339 1.230 . S
C792 C67 1.230 . S
C827 C101 1.229 . S
C842 C373 1.229 . S
C877 C135 1.229 . S
C892 C407 1.229 . S
C927 C169 1.229 . S
C942 C237 1.229 . S
C977 C203 1.229 . S
C992 C271 1.229 . S
C1027 C379 1.612 . S
C1042 C5 1.612 . S
C1077 C209 1.612 . S
C1092 C39 1.612 . S
C1127 C243 1.612 . S
C1142 C73 1.612 . S
C1177 C107 1.612 . S
C1192 C277 1.612 . S
C1227 C141 1.612 . S
C1242 C311 1.612 . S
C1277 C345 1.612 . S
C1292 C175 1.612 . S
C1327 C172 2.054 . S
C1342 C20 2.039 . S
C1377 C2 2.054 . S
C1392 C54 2.039 . S
C1427 C88 2.039 . S
C1442 C36 2.054 . S
C1477 C70 2.054 . S
C1492 C122 2.039 . S
C1527 C156 2.039 . S
C1542 C104 2.054 . S
C1577 C190 2.039 . S
C1592 C138 2.054 . S
C1627 C240 2.054 . S
C1642 C224 2.039 . S
C1677 C258 2.038 . S
C1692 C274 2.054 . S
C1727 C292 2.038 . S
C1742 C308 2.054 . S
C1777 C342 2.054 . S
C1792 C326 2.039 . S
C1827 C376 2.054 . S
C1842 C360 2.039 . S
C1877 C394 2.039 . S
C1892 C206 2.054 . S
