# Generated by pormake.
# Topology umg, (4)-cn, num edge types: 1
# Building blocks:
#     Node 0, Type 0, BuildingBlock: QUQFOY_clean_sbu_3, # of connection points: 4
#     Node 1, Type 0, BuildingBlock: QUQFOY_clean_sbu_3, # of connection points: 4
#     Node 2, Type 0, BuildingBlock: QUQFOY_clean_sbu_3, # of connection points: 4
#     Node 3, Type 0, BuildingBlock: QUQFOY_clean_sbu_3, # of connection points: 4
#     Node 4, Type 0, BuildingBlock: QUQFOY_clean_sbu_3, # of connection points: 4
#     Node 5, Type 0, BuildingBlock: QUQFOY_clean_sbu_3, # of connection points: 4
#     Node 6, Type 0, BuildingBlock: QUQFOY_clean_sbu_3, # of connection points: 4
#     Node 7, Type 0, BuildingBlock: QUQFOY_clean_sbu_3, # of connection points: 4
#     Node 8, Type 0, BuildingBlock: QUQFOY_clean_sbu_3, # of connection points: 4
#     Node 9, Type 0, BuildingBlock: QUQFOY_clean_sbu_3, # of connection points: 4
#     Node 10, Type 0, BuildingBlock: QUQFOY_clean_sbu_3, # of connection points: 4
#     Node 11, Type 0, BuildingBlock: QUQFOY_clean_sbu_3, # of connection points: 4
#     Edge 12, Type (0, 0), BuildingBlock: OJICUG_clean_linker_0, # of connection points: 2
#     Edge 13, Type (0, 0), BuildingBlock: OJICUG_clean_linker_0, # of connection points: 2
#     Edge 14, Type (0, 0), BuildingBlock: OJICUG_clean_linker_0, # of connection points: 2
#     Edge 15, Type (0, 0), BuildingBlock: OJICUG_clean_linker_0, # of connection points: 2
#     Edge 16, Type (0, 0), BuildingBlock: OJICUG_clean_linker_0, # of connection points: 2
#     Edge 17, Type (0, 0), BuildingBlock: OJICUG_clean_linker_0, # of connection points: 2
#     Edge 18, Type (0, 0), BuildingBlock: OJICUG_clean_linker_0, # of connection points: 2
#     Edge 19, Type (0, 0), BuildingBlock: OJICUG_clean_linker_0, # of connection points: 2
#     Edge 20, Type (0, 0), BuildingBlock: OJICUG_clean_linker_0, # of connection points: 2
#     Edge 21, Type (0, 0), BuildingBlock: OJICUG_clean_linker_0, # of connection points: 2
#     Edge 22, Type (0, 0), BuildingBlock: OJICUG_clean_linker_0, # of connection points: 2
#     Edge 23, Type (0, 0), BuildingBlock: OJICUG_clean_linker_0, # of connection points: 2
#     Edge 24, Type (0, 0), BuildingBlock: OJICUG_clean_linker_0, # of connection points: 2
#     Edge 25, Type (0, 0), BuildingBlock: OJICUG_clean_linker_0, # of connection points: 2
#     Edge 26, Type (0, 0), BuildingBlock: OJICUG_clean_linker_0, # of connection points: 2
#     Edge 27, Type (0, 0), BuildingBlock: OJICUG_clean_linker_0, # of connection points: 2
#     Edge 28, Type (0, 0), BuildingBlock: OJICUG_clean_linker_0, # of connection points: 2
#     Edge 29, Type (0, 0), BuildingBlock: OJICUG_clean_linker_0, # of connection points: 2
#     Edge 30, Type (0, 0), BuildingBlock: OJICUG_clean_linker_0, # of connection points: 2
#     Edge 31, Type (0, 0), BuildingBlock: OJICUG_clean_linker_0, # of connection points: 2
#     Edge 32, Type (0, 0), BuildingBlock: OJICUG_clean_linker_0, # of connection points: 2
#     Edge 33, Type (0, 0), BuildingBlock: OJICUG_clean_linker_0, # of connection points: 2
#     Edge 34, Type (0, 0), BuildingBlock: OJICUG_clean_linker_0, # of connection points: 2
#     Edge 35, Type (0, 0), BuildingBlock: OJICUG_clean_linker_0, # of connection points: 2
# Relax obj value: 0.087
# Max RMSD: 0.349
# Mean RMSD: 0.213
data_MOF--net-umg--node1-QUQFOY_clean_sbu_3--edge1-OJICUG_clean_linker_0
_symmetry_space_group_name_H-M    P1
_symmetry_Int_Tables_number       1
_symmetry_cell_setting            triclinic
loop_
_symmetry_equiv_pos_as_xyz
'x, y, z'
_cell_length_a     21.117465
_cell_length_b     21.283206
_cell_length_c     60.105641
_cell_angle_alpha  89.999246
_cell_angle_beta   89.951946
_cell_angle_gamma 119.81176
loop_
_atom_site_label
_atom_site_type_symbol
_atom_site_fract_x
_atom_site_fract_y
_atom_site_fract_z
_atom_type_partial_charge
C0 C 0.4151 0.53325 0.14082 0.0
O1 O 0.41406 0.59139 0.13706 0.0
Cd2 Cd 0.3956 0.62367 0.10044 0.0
O3 O 0.41676 0.49548 0.12469 0.0
Cd4 Cd 0.42874 0.51111 0.08374 0.0
C5 C 0.2505 0.46321 0.08296 0.0
O6 O 0.49067 0.64178 0.07497 0.0
O7 O 0.41752 0.56721 0.05014 0.0
O8 O 0.54397 0.50991 0.08251 0.0
C9 C 0.46671 0.63091 0.05516 0.0
O10 O 0.27383 0.52887 0.08853 0.0
C11 C 0.51966 0.45211 0.07123 0.0
O12 O 0.29478 0.43905 0.08103 0.0
O13 O 0.45244 0.42082 0.06595 0.0
C14 C 0.42714 0.2999 0.4144 0.0
O15 O 0.36502 0.27763 0.40566 0.0
Cd16 Cd 0.34315 0.19659 0.37394 0.0
O17 O 0.4694 0.27937 0.40653 0.0
Cd18 Cd 0.48632 0.20982 0.37812 0.0
C19 C 0.34719 0.05052 0.39528 0.0
O20 O 0.43725 0.23793 0.34466 0.0
O21 O 0.45641 0.14661 0.34355 0.0
O22 O 0.6049 0.31652 0.37333 0.0
C23 C 0.44235 0.19018 0.33323 0.0
O24 O 0.30758 0.07437 0.3871 0.0
C25 C 0.64214 0.28939 0.38077 0.0
O26 O 0.41629 0.09104 0.396 0.0
O27 O 0.60722 0.22252 0.3859 0.0
C28 C 0.49534 0.91339 0.81103 0.0
O29 O 0.43204 0.85907 0.80879 0.0
Cd30 Cd 0.3995 0.80106 0.77329 0.0
O31 O 0.53377 0.94394 0.79391 0.0
Cd32 Cd 0.50537 0.93116 0.75337 0.0
C33 C 0.55596 0.80713 0.7541 0.0
O34 O 0.37235 0.8652 0.74568 0.0
O35 O 0.44285 0.85279 0.72207 0.0
O36 O 0.50523 0.04505 0.75228 0.0
C37 C 0.38072 0.84516 0.72654 0.0
O38 O 0.4915 0.76874 0.76174 0.0
C39 C 0.55644 0.07586 0.73821 0.0
O40 O 0.58078 0.8741 0.75001 0.0
O41 O 0.58628 0.04001 0.73147 0.0
C42 C 0.69168 0.0935 0.08023 0.0
O43 O 0.71824 0.05951 0.07019 0.0
Cd44 Cd 0.80808 0.12712 0.04048 0.0
O45 O 0.70802 0.1563 0.0739 0.0
Cd46 Cd 0.77098 0.24195 0.04534 0.0
C47 C 0.9441 0.27657 0.0617 0.0
O48 O 0.80466 0.20396 0.01035 0.0
O49 O 0.69868 0.19439 0.0116 0.0
O50 O 0.76731 0.35799 0.04671 0.0
C51 C 0.74979 0.19758 -0.00013 0.0
O52 O 0.9224 0.21043 0.05739 0.0
C53 C 0.69982 0.32469 0.05205 0.0
O54 O 0.90145 0.30242 0.0587 0.0
O55 O 0.6696 0.25679 0.0545 0.0
C56 C 0.12134 0.58531 0.47661 0.0
O57 O 0.17814 0.58068 0.47325 0.0
Cd58 Cd 0.22854 0.5999 0.43671 0.0
O59 O 0.08482 0.58785 0.46017 0.0
Cd60 Cd 0.09067 0.57211 0.41926 0.0
C61 C 0.21655 0.74641 0.41815 0.0
O62 O 0.15505 0.50416 0.41135 0.0
O63 O 0.16308 0.58176 0.38664 0.0
O64 O 0.97413 0.4601 0.41942 0.0
C65 C 0.17114 0.52829 0.39163 0.0
O66 O 0.25741 0.72181 0.4247 0.0
C67 C 0.94248 0.48069 0.40573 0.0
O68 O 0.14843 0.70363 0.41541 0.0
O69 O 0.97902 0.54557 0.39873 0.0
C70 C 0.88385 0.57639 0.74975 0.0
O71 O 0.92683 0.63779 0.74138 0.0
Cd72 Cd 0.87212 0.666 0.70961 0.0
O73 O 0.82122 0.53798 0.74136 0.0
Cd74 Cd 0.73933 0.52805 0.71222 0.0
C75 C 0.72329 0.66828 0.73046 0.0
O76 O 0.81952 0.57579 0.67948 0.0
O77 O 0.7117 0.5649 0.67774 0.0
O78 O 0.72658 0.41018 0.70639 0.0
C79 C 0.76875 0.57464 0.66772 0.0
O80 O 0.78766 0.70591 0.72272 0.0
C81 C 0.66145 0.37339 0.71325 0.0
O82 O 0.69237 0.59941 0.73057 0.0
O83 O 0.62928 0.40846 0.71849 0.0
C84 C 0.12736 0.69942 0.56221 0.0
O85 O 0.08746 0.7215 0.57103 0.0
Cd86 Cd 0.14679 0.80249 0.60274 0.0
O87 O 0.19026 0.72008 0.57002 0.0
Cd88 Cd 0.2769 0.78964 0.5984 0.0
C89 C 0.29692 0.94884 0.58133 0.0
O90 O 0.19972 0.76121 0.63192 0.0
O91 O 0.31026 0.85273 0.633 0.0
O92 O 0.28856 0.68295 0.60312 0.0
C93 C 0.25264 0.80895 0.64334 0.0
O94 O 0.23342 0.9248 0.58957 0.0
C95 C 0.35302 0.71008 0.59567 0.0
O96 O 0.3256 0.90847 0.58055 0.0
O97 O 0.38512 0.77696 0.59055 0.0
C98 C 0.88174 0.46334 0.83544 0.0
O99 O 0.82245 0.40511 0.83913 0.0
Cd100 Cd 0.77119 0.37258 0.87572 0.0
O101 O 0.92102 0.50099 0.85161 0.0
Cd102 Cd 0.91692 0.48494 0.89254 0.0
C103 C 0.78678 0.53297 0.89328 0.0
O104 O 0.84766 0.35422 0.90126 0.0
O105 O 0.84914 0.42878 0.9261 0.0
O106 O 0.03329 0.48602 0.89378 0.0
C107 C 0.83441 0.36506 0.92106 0.0
O108 O 0.74435 0.46736 0.88766 0.0
C109 C 0.06685 0.54378 0.90508 0.0
O110 O 0.85523 0.55707 0.89526 0.0
O111 O 0.03098 0.57507 0.91038 0.0
C112 C 0.3043 0.42107 0.22666 0.0
O113 O 0.28582 0.35971 0.23504 0.0
Cd114 Cd 0.20296 0.33151 0.26688 0.0
O115 O 0.28019 0.4595 0.23507 0.0
Cd116 Cd 0.20829 0.46937 0.26429 0.0
C117 C 0.05183 0.32913 0.24608 0.0
O118 O 0.24099 0.42187 0.29697 0.0
O119 O 0.1439 0.43241 0.29884 0.0
O120 O 0.3135 0.5874 0.27003 0.0
C121 C 0.19144 0.42298 0.30881 0.0
O122 O 0.07848 0.29151 0.25381 0.0
C123 C 0.28496 0.62402 0.26328 0.0
O124 O 0.08991 0.398 0.24598 0.0
O125 O 0.2176 0.58878 0.25813 0.0
C126 C 0.53578 0.41411 0.49994 0.0
O127 O 0.59732 0.41895 0.50323 0.0
Cd128 Cd 0.62866 0.3997 0.53972 0.0
O129 O 0.49672 0.41142 0.51642 0.0
Cd130 Cd 0.51845 0.42724 0.55731 0.0
C131 C 0.47006 0.253 0.55838 0.0
O132 O 0.65094 0.49518 0.56518 0.0
O133 O 0.5811 0.41756 0.58989 0.0
O134 O 0.51422 0.53928 0.55715 0.0
C135 C 0.64281 0.47095 0.58488 0.0
O136 O 0.53556 0.27775 0.55176 0.0
C137 C 0.46187 0.51874 0.57083 0.0
O138 O 0.44465 0.29564 0.56118 0.0
O139 O 0.43335 0.45386 0.57785 0.0
C140 C 0.5985 0.90279 0.89611 0.0
O141 O 0.65897 0.9367 0.90621 0.0
Cd142 Cd 0.68079 0.86885 0.93587 0.0
O143 O 0.55183 0.83991 0.90235 0.0
Cd144 Cd 0.5287 0.75411 0.93088 0.0
C145 C 0.66731 0.71958 0.91457 0.0
O146 O 0.59994 0.7919 0.96593 0.0
O147 O 0.50378 0.80184 0.96456 0.0
O148 O 0.40878 0.63802 0.92954 0.0
C149 C 0.55139 0.79842 0.97635 0.0
O150 O 0.71185 0.78568 0.91893 0.0
C151 C 0.37467 0.67126 0.92415 0.0
O152 O 0.59872 0.69373 0.91753 0.0
O153 O 0.41249 0.73913 0.92164 0.0
C154 C 0.5784 0.08384 0.16539 0.0
O155 O 0.56971 0.13828 0.16764 0.0
Cd156 Cd 0.59534 0.19642 0.20312 0.0
O157 O 0.58615 0.05331 0.18251 0.0
Cd158 Cd 0.57076 0.06636 0.22306 0.0
C159 C 0.74563 0.19033 0.22229 0.0
O160 O 0.50394 0.13247 0.23079 0.0
O161 O 0.58696 0.14491 0.25433 0.0
O162 O 0.45653 0.95244 0.22431 0.0
C163 C 0.53252 0.15261 0.24991 0.0
O164 O 0.71969 0.22875 0.21466 0.0
C165 C 0.47708 0.92174 0.23833 0.0
O166 O 0.70331 0.12336 0.22637 0.0
O167 O 0.54291 0.95771 0.24498 0.0
C168 C 0.58696 0.77035 0.01321 0.0
C169 C 0.53434 0.77367 -0.00031 0.0
H170 H 0.60643 0.72309 0.04216 0.0
C171 C 0.46147 0.7399 0.00702 0.0
H172 H 0.64347 0.79585 0.00795 0.0
C173 C 0.4403 0.69691 0.0261 0.0
C174 C 0.49191 0.68907 0.03859 0.0
H175 H 0.4195 0.74125 -0.00297 0.0
H176 H 0.38291 0.66665 0.03044 0.0
C177 C 0.56591 0.72886 0.03273 0.0
C178 C 0.40555 0.13914 0.29534 0.0
C179 C 0.45359 0.19631 0.30912 0.0
H180 H 0.39277 0.08219 0.26472 0.0
C181 C 0.52267 0.24726 0.30105 0.0
H182 H 0.3527 0.09836 0.30155 0.0
C183 C 0.54643 0.23666 0.28043 0.0
C184 C 0.50055 0.17618 0.26743 0.0
H185 H 0.5611 0.29066 0.31167 0.0
H186 H 0.60245 0.27254 0.27543 0.0
C187 C 0.42852 0.12983 0.27437 0.0
C188 C 0.29954 0.86835 0.70226 0.0
C189 C 0.3252 0.82192 0.70903 0.0
H190 H 0.25509 0.90023 0.67527 0.0
C191 C 0.31054 0.76173 0.69588 0.0
H192 H 0.31147 0.91576 0.71203 0.0
C193 C 0.27609 0.75147 0.67531 0.0
C194 C 0.25793 0.80248 0.66742 0.0
H195 H 0.33065 0.72579 0.70075 0.0
H196 H 0.27105 0.70827 0.66458 0.0
C197 C 0.26716 0.85938 0.68133 0.0
C198 C 0.8141 0.22556 0.96308 0.0
C199 C 0.75791 0.22226 0.97651 0.0
H200 H 0.88147 0.27282 0.93421 0.0
C201 C 0.719 0.256 0.96907 0.0
H202 H 0.84496 0.20007 0.96841 0.0
C203 C 0.74125 0.29898 0.95 0.0
C204 C 0.80097 0.30683 0.9376 0.0
H205 H 0.67549 0.25466 0.979 0.0
H206 H 0.71428 0.32924 0.94559 0.0
C207 C 0.83498 0.26704 0.94356 0.0
C208 C 0.25641 0.50383 0.34022 0.0
C209 C 0.19993 0.43676 0.3328 0.0
H210 H 0.29075 0.58645 0.36517 0.0
C211 C 0.14138 0.39427 0.34708 0.0
H212 H 0.30108 0.53815 0.32921 0.0
C213 C 0.13658 0.42101 0.36788 0.0
C214 C 0.18896 0.49146 0.37418 0.0
H215 H 0.09653 0.34311 0.3414 0.0
H216 H 0.08822 0.3898 0.37795 0.0
C217 C 0.25032 0.5316 0.36067 0.0
C218 C 0.75273 0.49441 0.63612 0.0
C219 C 0.76353 0.56136 0.6437 0.0
H220 H 0.70416 0.41226 0.61104 0.0
C221 C 0.74762 0.60416 0.62957 0.0
H222 H 0.76297 0.45986 0.64702 0.0
C223 C 0.71597 0.57782 0.60875 0.0
C224 C 0.69766 0.50747 0.6023 0.0
H225 H 0.75408 0.65523 0.63536 0.0
H226 H 0.69889 0.60924 0.5988 0.0
C227 C 0.71877 0.46704 0.61566 0.0
C228 C 0.34544 0.40218 0.18922 0.0
C229 C 0.34945 0.44869 0.2064 0.0
H230 H 0.3641 0.39297 0.15458 0.0
C231 C 0.38764 0.52388 0.20269 0.0
H232 H 0.3163 0.34405 0.19165 0.0
C233 C 0.41446 0.55175 0.18166 0.0
C234 C 0.40396 0.50508 0.16383 0.0
H235 H 0.39266 0.56118 0.21576 0.0
H236 H 0.43942 0.60964 0.17907 0.0
C237 C 0.37267 0.43029 0.16801 0.0
C238 C 0.52689 0.39001 0.43798 0.0
C239 C 0.45151 0.34554 0.43453 0.0
H240 H 0.61258 0.44768 0.46137 0.0
C241 C 0.40313 0.33574 0.45195 0.0
H242 H 0.56543 0.39933 0.42472 0.0
C243 C 0.43043 0.36373 0.47315 0.0
C244 C 0.50627 0.40157 0.47706 0.0
H245 H 0.34482 0.30156 0.44971 0.0
H246 H 0.39232 0.35075 0.48678 0.0
C247 C 0.55398 0.41766 0.459 0.0
C248 C 0.60246 0.96132 0.83701 0.0
C249 C 0.52715 0.93343 0.83357 0.0
H250 H 0.68559 0.97453 0.86028 0.0
C251 C 0.48053 0.91303 0.85204 0.0
H252 H 0.63968 0.97761 0.82302 0.0
C253 C 0.5069 0.91222 0.87319 0.0
C254 C 0.58026 0.9313 0.87628 0.0
H255 H 0.42254 0.89244 0.84995 0.0
H256 H 0.46836 0.89034 0.88685 0.0
C257 C 0.62894 0.96005 0.85833 0.0
C258 C 0.66475 0.03652 0.11804 0.0
C259 C 0.64495 0.06529 0.1001 0.0
H260 H 0.658 0.01917 0.15336 0.0
C261 C 0.59088 0.0846 0.10322 0.0
H262 H 0.70674 0.02184 0.11606 0.0
C263 C 0.56384 0.08403 0.12439 0.0
C264 C 0.58998 0.06362 0.14285 0.0
H265 H 0.57431 0.10648 0.08957 0.0
H266 H 0.52663 0.1048 0.12651 0.0
C267 C 0.63713 0.03548 0.13938 0.0
C268 C 0.1369 0.60944 0.53856 0.0
C269 C 0.10599 0.65381 0.54208 0.0
H270 H 0.1648 0.55186 0.5151 0.0
C271 C 0.06727 0.66351 0.52471 0.0
H272 H 0.16622 0.60019 0.55178 0.0
C273 C 0.06646 0.63554 0.50349 0.0
C274 C 0.10446 0.5978 0.49952 0.0
H275 H 0.04313 0.69761 0.527 0.0
H276 H 0.04123 0.64845 0.4899 0.0
C277 C 0.13622 0.58181 0.51753 0.0
C278 C 0.94259 0.56665 0.80836 0.0
C279 C 0.89905 0.49179 0.81246 0.0
H280 H 0.97265 0.65315 0.78483 0.0
C281 C 0.86308 0.44531 0.79458 0.0
H282 H 0.97119 0.60382 0.82184 0.0
C283 C 0.86433 0.4734 0.77357 0.0
C284 C 0.90134 0.54864 0.76996 0.0
H285 H 0.83013 0.38737 0.79709 0.0
H286 H 0.83217 0.43622 0.76046 0.0
C287 C 0.94367 0.59499 0.78719 0.0
C288 C 0.06918 0.29597 0.06972 0.0
C289 C 0.02125 0.32402 0.06866 0.0
H290 H 0.1784 0.3174 0.0749 0.0
C291 C 0.04907 0.398 0.07307 0.0
H292 H 0.04991 0.23927 0.06643 0.0
C293 C 0.12321 0.44296 0.07801 0.0
C294 C 0.17136 0.41508 0.07852 0.0
H295 H 0.01389 0.42149 0.07238 0.0
H296 H 0.14296 0.49988 0.08106 0.0
C297 C 0.14318 0.34089 0.07451 0.0
C298 C 0.35608 0.94554 0.41074 0.0
C299 C 0.31298 0.97386 0.40263 0.0
H300 H 0.35969 0.85205 0.42199 0.0
C301 C 0.23726 0.92714 0.40047 0.0
H302 H 0.41451 0.97984 0.41263 0.0
C303 C 0.20572 0.85359 0.40579 0.0
C304 C 0.24912 0.82497 0.4134 0.0
H305 H 0.20233 0.94703 0.39428 0.0
H306 H 0.14743 0.81902 0.40362 0.0
C307 C 0.32456 0.87206 0.41607 0.0
C308 C 0.61183 0.66414 0.74682 0.0
C309 C 0.68268 0.70471 0.73807 0.0
H310 H 0.51663 0.66445 0.75881 0.0
C311 C 0.71285 0.78002 0.73559 0.0
H312 H 0.58689 0.60611 0.74902 0.0
C313 C 0.67235 0.81358 0.74113 0.0
C314 C 0.60081 0.77268 0.74937 0.0
H315 H 0.76729 0.81302 0.7289 0.0
H316 H 0.69679 0.87144 0.73864 0.0
C317 C 0.57147 0.6977 0.75244 0.0
C318 C 0.4526 0.12752 0.56043 0.0
C319 C 0.42414 0.17442 0.56315 0.0
H320 H 0.43497 0.01989 0.56384 0.0
C321 C 0.35209 0.1456 0.57085 0.0
H322 H 0.50777 0.14769 0.55445 0.0
C323 C 0.31017 0.07204 0.57619 0.0
C324 C 0.33929 0.02551 0.57398 0.0
H325 H 0.32828 0.18002 0.57307 0.0
H326 H 0.25532 0.05199 0.58245 0.0
C327 C 0.41074 0.05403 0.56578 0.0
C328 C 0.773 0.70017 0.9066 0.0
C329 C 0.69696 0.67215 0.9076 0.0
H330 H 0.86077 0.67871 0.90146 0.0
C331 C 0.65067 0.59821 0.90313 0.0
H332 H 0.81054 0.75683 0.90994 0.0
C333 C 0.67978 0.55326 0.89818 0.0
C334 C 0.75585 0.58109 0.89772 0.0
H335 H 0.59194 0.57476 0.90377 0.0
H336 H 0.6425 0.49638 0.89508 0.0
C337 C 0.80202 0.65525 0.9018 0.0
C338 C 0.94469 0.3333 0.22966 0.0
C339 C 0.9748 0.29271 0.23844 0.0
H340 H 0.84932 0.33302 0.21761 0.0
C341 C 0.92948 0.21739 0.2409 0.0
H342 H 0.97793 0.39133 0.22749 0.0
C343 C 0.85541 0.18384 0.23531 0.0
C344 C 0.82496 0.22477 0.22705 0.0
H345 H 0.95078 0.18438 0.2476 0.0
H346 H 0.82185 0.12598 0.23779 0.0
C347 C 0.87077 0.29975 0.224 0.0
C348 C 0.68788 0.43353 0.06186 0.0
C349 C 0.65606 0.36081 0.05531 0.0
H350 H 0.6693 0.51943 0.07242 0.0
C351 C 0.57972 0.31979 0.05306 0.0
H352 H 0.74648 0.46626 0.06379 0.0
C353 C 0.53584 0.35009 0.05768 0.0
C354 C 0.56708 0.4219 0.06504 0.0
H355 H 0.55355 0.26363 0.04789 0.0
H356 H 0.47722 0.31656 0.05602 0.0
C357 C 0.64363 0.46366 0.0669 0.0
C358 C 0.75759 0.40879 0.37833 0.0
C359 C 0.72109 0.33593 0.38523 0.0
H360 H 0.85598 0.51164 0.37938 0.0
C361 C 0.759 0.31046 0.39815 0.0
H362 H 0.72986 0.43015 0.36837 0.0
C363 C 0.83108 0.35745 0.40465 0.0
C364 C 0.8669 0.43078 0.39825 0.0
H365 H 0.73234 0.25479 0.40382 0.0
H366 H 0.85843 0.33643 0.41493 0.0
C367 C 0.82978 0.45564 0.38471 0.0
C368 C 0.56566 0.25703 0.73024 0.0
C369 C 0.62885 0.29469 0.71723 0.0
H370 H 0.49361 0.15849 0.74724 0.0
C371 C 0.6656 0.25836 0.71007 0.0
H372 H 0.53637 0.28358 0.73611 0.0
C373 C 0.64128 0.18679 0.71646 0.0
C374 C 0.57994 0.15013 0.73027 0.0
H375 H 0.71451 0.28589 0.7 0.0
H376 H 0.67166 0.16087 0.71104 0.0
C377 C 0.54157 0.18553 0.73676 0.0
C378 C 0.34885 0.59071 0.59816 0.0
C379 C 0.38536 0.66353 0.59123 0.0
H380 H 0.34422 0.48788 0.59717 0.0
C381 C 0.44887 0.68897 0.57831 0.0
H382 H 0.29966 0.56937 0.60812 0.0
C383 C 0.47392 0.64197 0.57185 0.0
C384 C 0.43625 0.56866 0.57828 0.0
H385 H 0.47799 0.74461 0.57262 0.0
H386 H 0.52239 0.66296 0.56157 0.0
C387 C 0.37415 0.54385 0.59182 0.0
C388 C 0.25948 0.67613 0.92318 0.0
C389 C 0.29473 0.63511 0.92092 0.0
H390 H 0.16021 0.67934 0.92026 0.0
C391 C 0.25367 0.56237 0.91439 0.0
H392 H 0.28959 0.7323 0.92834 0.0
C393 C 0.17924 0.53222 0.90938 0.0
C394 C 0.14452 0.57398 0.91125 0.0
H395 H 0.27948 0.52964 0.91245 0.0
H396 H 0.14903 0.47644 0.90387 0.0
C397 C 0.18524 0.64581 0.9186 0.0
C398 C 0.40414 0.73929 0.26641 0.0
C399 C 0.33094 0.70276 0.25933 0.0
H400 H 0.50769 0.83699 0.26537 0.0
C401 C 0.30518 0.74029 0.2464 0.0
H402 H 0.42569 0.71186 0.27641 0.0
C403 C 0.35249 0.81185 0.2399 0.0
C404 C 0.42638 0.84745 0.2463 0.0
H405 H 0.24924 0.71358 0.2406 0.0
H406 H 0.33141 0.8388 0.22948 0.0
C407 C 0.45129 0.81093 0.26002 0.0
loop_
_geom_bond_atom_site_label_1
_geom_bond_atom_site_label_2
_geom_bond_distance
_geom_bond_site_symmetry_2
_ccdc_geom_bond_type
C0 O1 1.306 . S
C0 O3 1.160 . S
O1 C0 1.306 . S
O1 Cd2 2.228 . S
Cd2 O1 2.228 . S
Cd2 O6 2.273 . S
Cd2 O10 2.277 . S
O3 C0 1.160 . S
O3 Cd4 2.203 . S
Cd4 O3 2.203 . S
Cd4 O6 2.411 . S
Cd4 O7 2.333 . S
Cd4 O8 2.352 . S
Cd4 O12 2.277 . S
Cd4 O13 2.356 . S
C5 O10 1.209 . S
C5 O12 1.226 . S
O6 Cd2 2.273 . S
O6 Cd4 2.411 . S
O6 C9 1.320 . S
O7 Cd4 2.333 . S
O7 C9 1.214 . S
O8 Cd4 2.352 . S
O8 C11 1.258 . S
C9 O6 1.320 . S
C9 O7 1.214 . S
O10 Cd2 2.277 . S
O10 C5 1.209 . S
C11 O8 1.258 . S
C11 O13 1.282 . S
O12 Cd4 2.277 . S
O12 C5 1.226 . S
O13 Cd4 2.356 . S
O13 C11 1.282 . S
C14 O15 1.306 . S
C14 O17 1.160 . S
O15 C14 1.306 . S
O15 Cd16 2.228 . S
Cd16 O15 2.228 . S
Cd16 O20 2.273 . S
Cd16 O24 2.277 . S
O17 C14 1.160 . S
O17 Cd18 2.203 . S
Cd18 O17 2.203 . S
Cd18 O20 2.411 . S
Cd18 O21 2.333 . S
Cd18 O22 2.352 . S
Cd18 O26 2.277 . S
Cd18 O27 2.356 . S
C19 O24 1.209 . S
C19 O26 1.226 . S
O20 Cd16 2.273 . S
O20 Cd18 2.411 . S
O20 C23 1.320 . S
O21 Cd18 2.333 . S
O21 C23 1.214 . S
O22 Cd18 2.352 . S
O22 C25 1.258 . S
C23 O20 1.320 . S
C23 O21 1.214 . S
O24 Cd16 2.277 . S
O24 C19 1.209 . S
C25 O22 1.258 . S
C25 O27 1.282 . S
O26 Cd18 2.277 . S
O26 C19 1.226 . S
O27 Cd18 2.356 . S
O27 C25 1.282 . S
C28 O29 1.306 . S
C28 O31 1.160 . S
O29 C28 1.306 . S
O29 Cd30 2.228 . S
Cd30 O29 2.228 . S
Cd30 O34 2.273 . S
Cd30 O38 2.277 . S
O31 C28 1.160 . S
O31 Cd32 2.203 . S
Cd32 O31 2.203 . S
Cd32 O34 2.411 . S
Cd32 O35 2.333 . S
Cd32 O36 2.352 . S
Cd32 O40 2.277 . S
Cd32 O41 2.356 . S
C33 O38 1.209 . S
C33 O40 1.226 . S
O34 Cd30 2.273 . S
O34 Cd32 2.411 . S
O34 C37 1.320 . S
O35 Cd32 2.333 . S
O35 C37 1.214 . S
O36 Cd32 2.352 . S
O36 C39 1.258 1_565 S
C37 O34 1.320 . S
C37 O35 1.214 . S
O38 Cd30 2.277 . S
O38 C33 1.209 . S
C39 O36 1.258 1_545 S
C39 O41 1.282 1_545 S
O40 Cd32 2.277 . S
O40 C33 1.226 . S
O41 Cd32 2.356 . S
O41 C39 1.282 1_565 S
C42 O43 1.306 . S
C42 O45 1.160 . S
O43 C42 1.306 . S
O43 Cd44 2.228 . S
Cd44 O43 2.228 . S
Cd44 O48 2.273 . S
Cd44 O52 2.277 . S
O45 C42 1.160 . S
O45 Cd46 2.203 . S
Cd46 O45 2.203 . S
Cd46 O48 2.411 . S
Cd46 O49 2.333 . S
Cd46 O50 2.352 . S
Cd46 O54 2.277 . S
Cd46 O55 2.356 . S
C47 O52 1.209 . S
C47 O54 1.226 . S
O48 Cd44 2.273 . S
O48 Cd46 2.411 . S
O48 C51 1.320 . S
O49 Cd46 2.333 . S
O49 C51 1.214 . S
O50 Cd46 2.352 . S
O50 C53 1.258 . S
C51 O48 1.320 . S
C51 O49 1.214 . S
O52 Cd44 2.277 . S
O52 C47 1.209 . S
C53 O50 1.258 . S
C53 O55 1.282 . S
O54 Cd46 2.277 . S
O54 C47 1.226 . S
O55 Cd46 2.356 . S
O55 C53 1.282 . S
C56 O57 1.306 . S
C56 O59 1.160 . S
O57 C56 1.306 . S
O57 Cd58 2.228 . S
Cd58 O57 2.228 . S
Cd58 O62 2.273 . S
Cd58 O66 2.277 . S
O59 C56 1.160 . S
O59 Cd60 2.203 . S
Cd60 O59 2.203 . S
Cd60 O62 2.411 . S
Cd60 O63 2.333 . S
Cd60 O64 2.352 . S
Cd60 O68 2.277 . S
Cd60 O69 2.356 . S
C61 O66 1.209 . S
C61 O68 1.226 . S
O62 Cd58 2.273 . S
O62 Cd60 2.411 . S
O62 C65 1.320 . S
O63 Cd60 2.333 . S
O63 C65 1.214 . S
O64 Cd60 2.352 . S
O64 C67 1.258 1_455 S
C65 O62 1.320 . S
C65 O63 1.214 . S
O66 Cd58 2.277 . S
O66 C61 1.209 . S
C67 O64 1.258 1_655 S
C67 O69 1.282 1_655 S
O68 Cd60 2.277 . S
O68 C61 1.226 . S
O69 Cd60 2.356 . S
O69 C67 1.282 1_455 S
C70 O71 1.306 . S
C70 O73 1.160 . S
O71 C70 1.306 . S
O71 Cd72 2.228 . S
Cd72 O71 2.228 . S
Cd72 O76 2.273 . S
Cd72 O80 2.277 . S
O73 C70 1.160 . S
O73 Cd74 2.203 . S
Cd74 O73 2.203 . S
Cd74 O76 2.411 . S
Cd74 O77 2.333 . S
Cd74 O78 2.352 . S
Cd74 O82 2.277 . S
Cd74 O83 2.356 . S
C75 O80 1.209 . S
C75 O82 1.226 . S
O76 Cd72 2.273 . S
O76 Cd74 2.411 . S
O76 C79 1.320 . S
O77 Cd74 2.333 . S
O77 C79 1.214 . S
O78 Cd74 2.352 . S
O78 C81 1.258 . S
C79 O76 1.320 . S
C79 O77 1.214 . S
O80 Cd72 2.277 . S
O80 C75 1.209 . S
C81 O78 1.258 . S
C81 O83 1.282 . S
O82 Cd74 2.277 . S
O82 C75 1.226 . S
O83 Cd74 2.356 . S
O83 C81 1.282 . S
C84 O85 1.306 . S
C84 O87 1.160 . S
O85 C84 1.306 . S
O85 Cd86 2.228 . S
Cd86 O85 2.228 . S
Cd86 O90 2.273 . S
Cd86 O94 2.277 . S
O87 C84 1.160 . S
O87 Cd88 2.203 . S
Cd88 O87 2.203 . S
Cd88 O90 2.411 . S
Cd88 O91 2.333 . S
Cd88 O92 2.352 . S
Cd88 O96 2.277 . S
Cd88 O97 2.356 . S
C89 O94 1.209 . S
C89 O96 1.226 . S
O90 Cd86 2.273 . S
O90 Cd88 2.411 . S
O90 C93 1.320 . S
O91 Cd88 2.333 . S
O91 C93 1.214 . S
O92 Cd88 2.352 . S
O92 C95 1.258 . S
C93 O90 1.320 . S
C93 O91 1.214 . S
O94 Cd86 2.277 . S
O94 C89 1.209 . S
C95 O92 1.258 . S
C95 O97 1.282 . S
O96 Cd88 2.277 . S
O96 C89 1.226 . S
O97 Cd88 2.356 . S
O97 C95 1.282 . S
C98 O99 1.306 . S
C98 O101 1.160 . S
O99 C98 1.306 . S
O99 Cd100 2.228 . S
Cd100 O99 2.228 . S
Cd100 O104 2.273 . S
Cd100 O108 2.277 . S
O101 C98 1.160 . S
O101 Cd102 2.203 . S
Cd102 O101 2.203 . S
Cd102 O104 2.411 . S
Cd102 O105 2.333 . S
Cd102 O106 2.352 . S
Cd102 O110 2.277 . S
Cd102 O111 2.356 . S
C103 O108 1.209 . S
C103 O110 1.226 . S
O104 Cd100 2.273 . S
O104 Cd102 2.411 . S
O104 C107 1.320 . S
O105 Cd102 2.333 . S
O105 C107 1.214 . S
O106 Cd102 2.352 . S
O106 C109 1.258 1_655 S
C107 O104 1.320 . S
C107 O105 1.214 . S
O108 Cd100 2.277 . S
O108 C103 1.209 . S
C109 O106 1.258 1_455 S
C109 O111 1.282 1_455 S
O110 Cd102 2.277 . S
O110 C103 1.226 . S
O111 Cd102 2.356 . S
O111 C109 1.282 1_655 S
C112 O113 1.306 . S
C112 O115 1.160 . S
O113 C112 1.306 . S
O113 Cd114 2.228 . S
Cd114 O113 2.228 . S
Cd114 O118 2.273 . S
Cd114 O122 2.277 . S
O115 C112 1.160 . S
O115 Cd116 2.203 . S
Cd116 O115 2.203 . S
Cd116 O118 2.411 . S
Cd116 O119 2.333 . S
Cd116 O120 2.352 . S
Cd116 O124 2.277 . S
Cd116 O125 2.356 . S
C117 O122 1.209 . S
C117 O124 1.226 . S
O118 Cd114 2.273 . S
O118 Cd116 2.411 . S
O118 C121 1.320 . S
O119 Cd116 2.333 . S
O119 C121 1.214 . S
O120 Cd116 2.352 . S
O120 C123 1.258 . S
C121 O118 1.320 . S
C121 O119 1.214 . S
O122 Cd114 2.277 . S
O122 C117 1.209 . S
C123 O120 1.258 . S
C123 O125 1.282 . S
O124 Cd116 2.277 . S
O124 C117 1.226 . S
O125 Cd116 2.356 . S
O125 C123 1.282 . S
C126 O127 1.306 . S
C126 O129 1.160 . S
O127 C126 1.306 . S
O127 Cd128 2.228 . S
Cd128 O127 2.228 . S
Cd128 O132 2.273 . S
Cd128 O136 2.277 . S
O129 C126 1.160 . S
O129 Cd130 2.203 . S
Cd130 O129 2.203 . S
Cd130 O132 2.411 . S
Cd130 O133 2.333 . S
Cd130 O134 2.352 . S
Cd130 O138 2.277 . S
Cd130 O139 2.356 . S
C131 O136 1.209 . S
C131 O138 1.226 . S
O132 Cd128 2.273 . S
O132 Cd130 2.411 . S
O132 C135 1.320 . S
O133 Cd130 2.333 . S
O133 C135 1.214 . S
O134 Cd130 2.352 . S
O134 C137 1.258 . S
C135 O132 1.320 . S
C135 O133 1.214 . S
O136 Cd128 2.277 . S
O136 C131 1.209 . S
C137 O134 1.258 . S
C137 O139 1.282 . S
O138 Cd130 2.277 . S
O138 C131 1.226 . S
O139 Cd130 2.356 . S
O139 C137 1.282 . S
C140 O141 1.306 . S
C140 O143 1.160 . S
O141 C140 1.306 . S
O141 Cd142 2.228 . S
Cd142 O141 2.228 . S
Cd142 O146 2.273 . S
Cd142 O150 2.277 . S
O143 C140 1.160 . S
O143 Cd144 2.203 . S
Cd144 O143 2.203 . S
Cd144 O146 2.411 . S
Cd144 O147 2.333 . S
Cd144 O148 2.352 . S
Cd144 O152 2.277 . S
Cd144 O153 2.356 . S
C145 O150 1.209 . S
C145 O152 1.226 . S
O146 Cd142 2.273 . S
O146 Cd144 2.411 . S
O146 C149 1.320 . S
O147 Cd144 2.333 . S
O147 C149 1.214 . S
O148 Cd144 2.352 . S
O148 C151 1.258 . S
C149 O146 1.320 . S
C149 O147 1.214 . S
O150 Cd142 2.277 . S
O150 C145 1.209 . S
C151 O148 1.258 . S
C151 O153 1.282 . S
O152 Cd144 2.277 . S
O152 C145 1.226 . S
O153 Cd144 2.356 . S
O153 C151 1.282 . S
C154 O155 1.306 . S
C154 O157 1.160 . S
O155 C154 1.306 . S
O155 Cd156 2.228 . S
Cd156 O155 2.228 . S
Cd156 O160 2.273 . S
Cd156 O164 2.277 . S
O157 C154 1.160 . S
O157 Cd158 2.203 . S
Cd158 O157 2.203 . S
Cd158 O160 2.411 . S
Cd158 O161 2.333 . S
Cd158 O162 2.352 . S
Cd158 O166 2.277 . S
Cd158 O167 2.356 . S
C159 O164 1.209 . S
C159 O166 1.226 . S
O160 Cd156 2.273 . S
O160 Cd158 2.411 . S
O160 C163 1.320 . S
O161 Cd158 2.333 . S
O161 C163 1.214 . S
O162 Cd158 2.352 . S
O162 C165 1.258 1_545 S
C163 O160 1.320 . S
C163 O161 1.214 . S
O164 Cd156 2.277 . S
O164 C159 1.209 . S
C165 O162 1.258 1_565 S
C165 O167 1.282 1_565 S
O166 Cd158 2.277 . S
O166 C159 1.226 . S
O167 Cd158 2.356 . S
O167 C165 1.282 1_545 S
C168 C169 1.387 . S
C168 H172 0.950 . S
C168 C177 1.390 . S
C169 C168 1.387 . S
C169 C171 1.387 1_554 S
H170 C177 0.950 . S
C171 C169 1.387 1_556 S
C171 C173 1.390 1_556 S
C171 H175 0.950 . S
H172 C168 0.950 . S
C173 C171 1.390 1_554 S
C173 C174 1.387 . S
C173 H176 0.950 . S
C174 C173 1.387 . S
C174 C177 1.387 . S
H175 C171 0.950 . S
H176 C173 0.950 . S
C177 C168 1.390 . S
C177 H170 0.950 . S
C177 C174 1.387 . S
C178 C179 1.387 . S
C178 H182 0.950 . S
C178 C187 1.390 . S
C179 C178 1.387 . S
C179 C181 1.387 . S
H180 C187 0.950 . S
C181 C179 1.387 . S
C181 C183 1.390 . S
C181 H185 0.950 . S
H182 C178 0.950 . S
C183 C181 1.390 . S
C183 C184 1.387 . S
C183 H186 0.950 . S
C184 C183 1.387 . S
C184 C187 1.387 . S
H185 C181 0.950 . S
H186 C183 0.950 . S
C187 C178 1.390 . S
C187 H180 0.950 . S
C187 C184 1.387 . S
C188 C189 1.387 . S
C188 H192 0.950 . S
C188 C197 1.390 . S
C189 C188 1.387 . S
C189 C191 1.387 . S
H190 C197 0.950 . S
C191 C189 1.387 . S
C191 C193 1.390 . S
C191 H195 0.950 . S
H192 C188 0.950 . S
C193 C191 1.390 . S
C193 C194 1.387 . S
C193 H196 0.950 . S
C194 C193 1.387 . S
C194 C197 1.387 . S
H195 C191 0.950 . S
H196 C193 0.950 . S
C197 C188 1.390 . S
C197 H190 0.950 . S
C197 C194 1.387 . S
C198 C199 1.387 1_556 S
C198 H202 0.950 . S
C198 C207 1.390 . S
C199 C198 1.387 1_554 S
C199 C201 1.387 . S
H200 C207 0.950 . S
C201 C199 1.387 . S
C201 C203 1.390 1_554 S
C201 H205 0.950 . S
H202 C198 0.950 . S
C203 C201 1.390 1_556 S
C203 C204 1.387 . S
C203 H206 0.950 1_556 S
C204 C203 1.387 . S
C204 C207 1.387 . S
H205 C201 0.950 . S
H206 C203 0.950 1_554 S
C207 C198 1.390 . S
C207 H200 0.950 . S
C207 C204 1.387 . S
C208 C209 1.387 . S
C208 H212 0.950 . S
C208 C217 1.390 . S
C209 C208 1.387 . S
C209 C211 1.387 . S
H210 C217 0.950 . S
C211 C209 1.387 . S
C211 C213 1.390 . S
C211 H215 0.950 . S
H212 C208 0.950 . S
C213 C211 1.390 . S
C213 C214 1.387 . S
C213 H216 0.950 . S
C214 C213 1.387 . S
C214 C217 1.387 . S
H215 C211 0.950 . S
H216 C213 0.950 . S
C217 C208 1.390 . S
C217 H210 0.950 . S
C217 C214 1.387 . S
C218 C219 1.387 . S
C218 H222 0.950 . S
C218 C227 1.390 . S
C219 C218 1.387 . S
C219 C221 1.387 . S
H220 C227 0.950 . S
C221 C219 1.387 . S
C221 C223 1.390 . S
C221 H225 0.950 . S
H222 C218 0.950 . S
C223 C221 1.390 . S
C223 C224 1.387 . S
C223 H226 0.950 . S
C224 C223 1.387 . S
C224 C227 1.387 . S
H225 C221 0.950 . S
H226 C223 0.950 . S
C227 C218 1.390 . S
C227 H220 0.950 . S
C227 C224 1.387 . S
C228 C229 1.387 . S
C228 H232 0.950 . S
C228 C237 1.390 . S
C229 C228 1.387 . S
C229 C231 1.387 . S
H230 C237 0.950 . S
C231 C229 1.387 . S
C231 C233 1.390 . S
C231 H235 0.950 . S
H232 C228 0.950 . S
C233 C231 1.390 . S
C233 C234 1.387 . S
C233 H236 0.950 . S
C234 C233 1.387 . S
C234 C237 1.387 . S
H235 C231 0.950 . S
H236 C233 0.950 . S
C237 C228 1.390 . S
C237 H230 0.950 . S
C237 C234 1.387 . S
C238 C239 1.387 . S
C238 H242 0.950 . S
C238 C247 1.390 . S
C239 C238 1.387 . S
C239 C241 1.387 . S
H240 C247 0.950 . S
C241 C239 1.387 . S
C241 C243 1.390 . S
C241 H245 0.950 . S
H242 C238 0.950 . S
C243 C241 1.390 . S
C243 C244 1.387 . S
C243 H246 0.950 . S
C244 C243 1.387 . S
C244 C247 1.387 . S
H245 C241 0.950 . S
H246 C243 0.950 . S
C247 C238 1.390 . S
C247 H240 0.950 . S
C247 C244 1.387 . S
C248 C249 1.387 . S
C248 H252 0.950 . S
C248 C257 1.390 . S
C249 C248 1.387 . S
C249 C251 1.387 . S
H250 C257 0.950 . S
C251 C249 1.387 . S
C251 C253 1.390 . S
C251 H255 0.950 . S
H252 C248 0.950 . S
C253 C251 1.390 . S
C253 C254 1.387 . S
C253 H256 0.950 . S
C254 C253 1.387 . S
C254 C257 1.387 . S
H255 C251 0.950 . S
H256 C253 0.950 . S
C257 C248 1.390 . S
C257 H250 0.950 . S
C257 C254 1.387 . S
C258 C259 1.387 . S
C258 H262 0.950 . S
C258 C267 1.390 . S
C259 C258 1.387 . S
C259 C261 1.387 . S
H260 C267 0.950 . S
C261 C259 1.387 . S
C261 C263 1.390 . S
C261 H265 0.950 . S
H262 C258 0.950 . S
C263 C261 1.390 . S
C263 C264 1.387 . S
C263 H266 0.950 . S
C264 C263 1.387 . S
C264 C267 1.387 . S
H265 C261 0.950 . S
H266 C263 0.950 . S
C267 C258 1.390 . S
C267 H260 0.950 . S
C267 C264 1.387 . S
C268 C269 1.387 . S
C268 H272 0.950 . S
C268 C277 1.390 . S
C269 C268 1.387 . S
C269 C271 1.387 . S
H270 C277 0.950 . S
C271 C269 1.387 . S
C271 C273 1.390 . S
C271 H275 0.950 . S
H272 C268 0.950 . S
C273 C271 1.390 . S
C273 C274 1.387 . S
C273 H276 0.950 . S
C274 C273 1.387 . S
C274 C277 1.387 . S
H275 C271 0.950 . S
H276 C273 0.950 . S
C277 C268 1.390 . S
C277 H270 0.950 . S
C277 C274 1.387 . S
C278 C279 1.387 . S
C278 H282 0.950 . S
C278 C287 1.390 . S
C279 C278 1.387 . S
C279 C281 1.387 . S
H280 C287 0.950 . S
C281 C279 1.387 . S
C281 C283 1.390 . S
C281 H285 0.950 . S
H282 C278 0.950 . S
C283 C281 1.390 . S
C283 C284 1.387 . S
C283 H286 0.950 . S
C284 C283 1.387 . S
C284 C287 1.387 . S
H285 C281 0.950 . S
H286 C283 0.950 . S
C287 C278 1.390 . S
C287 H280 0.950 . S
C287 C284 1.387 . S
C288 C289 1.387 . S
C288 H292 0.950 . S
C288 C297 1.390 1_655 S
C289 C288 1.387 . S
C289 C291 1.387 . S
H290 C297 0.950 . S
C291 C289 1.387 . S
C291 C293 1.390 1_655 S
C291 H295 0.950 . S
H292 C288 0.950 . S
C293 C291 1.390 1_455 S
C293 C294 1.387 . S
C293 H296 0.950 . S
C294 C293 1.387 . S
C294 C297 1.387 . S
H295 C291 0.950 . S
H296 C293 0.950 . S
C297 C288 1.390 1_455 S
C297 H290 0.950 . S
C297 C294 1.387 . S
C298 C299 1.387 . S
C298 H302 0.950 . S
C298 C307 1.390 1_545 S
C299 C298 1.387 . S
C299 C301 1.387 . S
H300 C307 0.950 . S
C301 C299 1.387 . S
C301 C303 1.390 1_545 S
C301 H305 0.950 . S
H302 C298 0.950 . S
C303 C301 1.390 1_565 S
C303 C304 1.387 . S
C303 H306 0.950 . S
C304 C303 1.387 . S
C304 C307 1.387 . S
H305 C301 0.950 . S
H306 C303 0.950 . S
C307 C298 1.390 1_565 S
C307 H300 0.950 . S
C307 C304 1.387 . S
C308 C309 1.387 . S
C308 H312 0.950 . S
C308 C317 1.390 . S
C309 C308 1.387 . S
C309 C311 1.387 . S
H310 C317 0.950 . S
C311 C309 1.387 . S
C311 C313 1.390 . S
C311 H315 0.950 . S
H312 C308 0.950 . S
C313 C311 1.390 . S
C313 C314 1.387 . S
C313 H316 0.950 . S
C314 C313 1.387 . S
C314 C317 1.387 . S
H315 C311 0.950 . S
H316 C313 0.950 . S
C317 C308 1.390 . S
C317 H310 0.950 . S
C317 C314 1.387 . S
C318 C319 1.387 . S
C318 H322 0.950 . S
C318 C327 1.390 1_545 S
C319 C318 1.387 . S
C319 C321 1.387 . S
H320 C327 0.950 . S
C321 C319 1.387 . S
C321 C323 1.390 1_545 S
C321 H325 0.950 . S
H322 C318 0.950 . S
C323 C321 1.390 1_565 S
C323 C324 1.387 . S
C323 H326 0.950 . S
C324 C323 1.387 . S
C324 C327 1.387 . S
H325 C321 0.950 . S
H326 C323 0.950 . S
C327 C318 1.390 1_565 S
C327 H320 0.950 . S
C327 C324 1.387 . S
C328 C329 1.387 . S
C328 H332 0.950 . S
C328 C337 1.390 . S
C329 C328 1.387 . S
C329 C331 1.387 . S
H330 C337 0.950 . S
C331 C329 1.387 . S
C331 C333 1.390 . S
C331 H335 0.950 . S
H332 C328 0.950 . S
C333 C331 1.390 . S
C333 C334 1.387 . S
C333 H336 0.950 . S
C334 C333 1.387 . S
C334 C337 1.387 . S
H335 C331 0.950 . S
H336 C333 0.950 . S
C337 C328 1.390 . S
C337 H330 0.950 . S
C337 C334 1.387 . S
C338 C339 1.387 . S
C338 H342 0.950 . S
C338 C347 1.390 1_455 S
C339 C338 1.387 . S
C339 C341 1.387 . S
H340 C347 0.950 . S
C341 C339 1.387 . S
C341 C343 1.390 1_455 S
C341 H345 0.950 . S
H342 C338 0.950 . S
C343 C341 1.390 1_655 S
C343 C344 1.387 . S
C343 H346 0.950 . S
C344 C343 1.387 . S
C344 C347 1.387 . S
H345 C341 0.950 . S
H346 C343 0.950 . S
C347 C338 1.390 1_655 S
C347 H340 0.950 . S
C347 C344 1.387 . S
C348 C349 1.387 . S
C348 H352 0.950 . S
C348 C357 1.390 . S
C349 C348 1.387 . S
C349 C351 1.387 . S
H350 C357 0.950 . S
C351 C349 1.387 . S
C351 C353 1.390 . S
C351 H355 0.950 . S
H352 C348 0.950 . S
C353 C351 1.390 . S
C353 C354 1.387 . S
C353 H356 0.950 . S
C354 C353 1.387 . S
C354 C357 1.387 . S
H355 C351 0.950 . S
H356 C353 0.950 . S
C357 C348 1.390 . S
C357 H350 0.950 . S
C357 C354 1.387 . S
C358 C359 1.387 . S
C358 H362 0.950 . S
C358 C367 1.390 . S
C359 C358 1.387 . S
C359 C361 1.387 . S
H360 C367 0.950 . S
C361 C359 1.387 . S
C361 C363 1.390 . S
C361 H365 0.950 . S
H362 C358 0.950 . S
C363 C361 1.390 . S
C363 C364 1.387 . S
C363 H366 0.950 . S
C364 C363 1.387 . S
C364 C367 1.387 . S
H365 C361 0.950 . S
H366 C363 0.950 . S
C367 C358 1.390 . S
C367 H360 0.950 . S
C367 C364 1.387 . S
C368 C369 1.387 . S
C368 H372 0.950 . S
C368 C377 1.390 . S
C369 C368 1.387 . S
C369 C371 1.387 . S
H370 C377 0.950 . S
C371 C369 1.387 . S
C371 C373 1.390 . S
C371 H375 0.950 . S
H372 C368 0.950 . S
C373 C371 1.390 . S
C373 C374 1.387 . S
C373 H376 0.950 . S
C374 C373 1.387 . S
C374 C377 1.387 . S
H375 C371 0.950 . S
H376 C373 0.950 . S
C377 C368 1.390 . S
C377 H370 0.950 . S
C377 C374 1.387 . S
C378 C379 1.387 . S
C378 H382 0.950 . S
C378 C387 1.390 . S
C379 C378 1.387 . S
C379 C381 1.387 . S
H380 C387 0.950 . S
C381 C379 1.387 . S
C381 C383 1.390 . S
C381 H385 0.950 . S
H382 C378 0.950 . S
C383 C381 1.390 . S
C383 C384 1.387 . S
C383 H386 0.950 . S
C384 C383 1.387 . S
C384 C387 1.387 . S
H385 C381 0.950 . S
H386 C383 0.950 . S
C387 C378 1.390 . S
C387 H380 0.950 . S
C387 C384 1.387 . S
C388 C389 1.387 . S
C388 H392 0.950 . S
C388 C397 1.390 . S
C389 C388 1.387 . S
C389 C391 1.387 . S
H390 C397 0.950 . S
C391 C389 1.387 . S
C391 C393 1.390 . S
C391 H395 0.950 . S
H392 C388 0.950 . S
C393 C391 1.390 . S
C393 C394 1.387 . S
C393 H396 0.950 . S
C394 C393 1.387 . S
C394 C397 1.387 . S
H395 C391 0.950 . S
H396 C393 0.950 . S
C397 C388 1.390 . S
C397 H390 0.950 . S
C397 C394 1.387 . S
C398 C399 1.387 . S
C398 H402 0.950 . S
C398 C407 1.390 . S
C399 C398 1.387 . S
C399 C401 1.387 . S
H400 C407 0.950 . S
C401 C399 1.387 . S
C401 C403 1.390 . S
C401 H405 0.950 . S
H402 C398 0.950 . S
C403 C401 1.390 . S
C403 C404 1.387 . S
C403 H406 0.950 . S
C404 C403 1.387 . S
C404 C407 1.387 . S
H405 C401 0.950 . S
H406 C403 0.950 . S
C407 C398 1.390 . S
C407 H400 0.950 . S
C407 C404 1.387 . S
C169 C149 1.524 1_554 S
C174 C9 1.802 . S
C179 C23 1.522 . S
C184 C163 1.802 . S
C189 C37 1.802 . S
C194 C93 1.523 . S
C199 C51 1.524 . S
C204 C107 1.802 . S
C209 C121 1.524 . S
C214 C65 1.802 . S
C219 C79 1.525 . S
C224 C135 1.802 . S
C229 C112 1.671 . S
C234 C0 1.869 . S
C239 C14 1.668 . S
C244 C126 1.868 . S
C249 C28 1.868 . S
C254 C140 1.671 . S
C259 C42 1.671 . S
C264 C154 1.868 . S
C269 C84 1.667 . S
C274 C56 1.867 . S
C279 C98 1.869 . S
C284 C70 1.671 . S
C289 C47 1.477 . S
C294 C5 1.478 . S
C299 C19 1.479 . S
C304 C61 1.479 . S
C309 C75 1.479 . S
C314 C33 1.479 . S
C319 C131 1.479 . S
C324 C89 1.479 . S
C329 C145 1.478 . S
C334 C103 1.478 . S
C339 C117 1.478 . S
C344 C159 1.479 . S
C349 C53 1.382 . S
C354 C11 1.382 . S
C359 C25 1.382 . S
C364 C67 1.383 . S
C369 C81 1.382 . S
C374 C39 1.382 . S
C379 C95 1.382 . S
C384 C137 1.382 . S
C389 C151 1.382 . S
C394 C109 1.382 . S
C399 C123 1.382 . S
C404 C165 1.382 . S
