# Generated by pormake.
# Topology wjh, (4)-cn, num edge types: 1
# Building blocks:
#     Node 0, Type 0, BuildingBlock: GALJAG_clean_sbu_0, # of connection points: 4
#     Node 1, Type 0, BuildingBlock: GALJAG_clean_sbu_0, # of connection points: 4
#     Node 2, Type 0, BuildingBlock: GALJAG_clean_sbu_0, # of connection points: 4
#     Node 3, Type 0, BuildingBlock: GALJAG_clean_sbu_0, # of connection points: 4
#     Node 4, Type 0, BuildingBlock: GALJAG_clean_sbu_0, # of connection points: 4
#     Node 5, Type 0, BuildingBlock: GALJAG_clean_sbu_0, # of connection points: 4
#     Node 6, Type 0, BuildingBlock: GALJAG_clean_sbu_0, # of connection points: 4
#     Node 7, Type 0, BuildingBlock: GALJAG_clean_sbu_0, # of connection points: 4
#     Node 8, Type 0, BuildingBlock: GALJAG_clean_sbu_0, # of connection points: 4
#     Node 9, Type 0, BuildingBlock: GALJAG_clean_sbu_0, # of connection points: 4
#     Node 10, Type 0, BuildingBlock: GALJAG_clean_sbu_0, # of connection points: 4
#     Node 11, Type 0, BuildingBlock: GALJAG_clean_sbu_0, # of connection points: 4
#     Edge 12, Type (0, 0), BuildingBlock: OJICUG_clean_linker_0, # of connection points: 2
#     Edge 13, Type (0, 0), BuildingBlock: OJICUG_clean_linker_0, # of connection points: 2
#     Edge 14, Type (0, 0), BuildingBlock: OJICUG_clean_linker_0, # of connection points: 2
#     Edge 15, Type (0, 0), BuildingBlock: OJICUG_clean_linker_0, # of connection points: 2
#     Edge 16, Type (0, 0), BuildingBlock: OJICUG_clean_linker_0, # of connection points: 2
#     Edge 17, Type (0, 0), BuildingBlock: OJICUG_clean_linker_0, # of connection points: 2
#     Edge 18, Type (0, 0), BuildingBlock: OJICUG_clean_linker_0, # of connection points: 2
#     Edge 19, Type (0, 0), BuildingBlock: OJICUG_clean_linker_0, # of connection points: 2
#     Edge 20, Type (0, 0), BuildingBlock: OJICUG_clean_linker_0, # of connection points: 2
#     Edge 21, Type (0, 0), BuildingBlock: OJICUG_clean_linker_0, # of connection points: 2
#     Edge 22, Type (0, 0), BuildingBlock: OJICUG_clean_linker_0, # of connection points: 2
#     Edge 23, Type (0, 0), BuildingBlock: OJICUG_clean_linker_0, # of connection points: 2
#     Edge 24, Type (0, 0), BuildingBlock: OJICUG_clean_linker_0, # of connection points: 2
#     Edge 25, Type (0, 0), BuildingBlock: OJICUG_clean_linker_0, # of connection points: 2
#     Edge 26, Type (0, 0), BuildingBlock: OJICUG_clean_linker_0, # of connection points: 2
#     Edge 27, Type (0, 0), BuildingBlock: OJICUG_clean_linker_0, # of connection points: 2
#     Edge 28, Type (0, 0), BuildingBlock: OJICUG_clean_linker_0, # of connection points: 2
#     Edge 29, Type (0, 0), BuildingBlock: OJICUG_clean_linker_0, # of connection points: 2
#     Edge 30, Type (0, 0), BuildingBlock: OJICUG_clean_linker_0, # of connection points: 2
#     Edge 31, Type (0, 0), BuildingBlock: OJICUG_clean_linker_0, # of connection points: 2
#     Edge 32, Type (0, 0), BuildingBlock: OJICUG_clean_linker_0, # of connection points: 2
#     Edge 33, Type (0, 0), BuildingBlock: OJICUG_clean_linker_0, # of connection points: 2
#     Edge 34, Type (0, 0), BuildingBlock: OJICUG_clean_linker_0, # of connection points: 2
#     Edge 35, Type (0, 0), BuildingBlock: OJICUG_clean_linker_0, # of connection points: 2
# Relax obj value: 0.053
# Max RMSD: 0.092
# Mean RMSD: 0.092
data_MOF--net-wjh--node1-GALJAG_clean_sbu_0--edge1-OJICUG_clean_linker_0
_symmetry_space_group_name_H-M    P1
_symmetry_Int_Tables_number       1
_symmetry_cell_setting            triclinic
loop_
_symmetry_equiv_pos_as_xyz
'x, y, z'
_cell_length_a     44.746201
_cell_length_b     44.567173
_cell_length_c     20.389499
_cell_angle_alpha  90.00519
_cell_angle_beta   90.053126
_cell_angle_gamma 120.09818
loop_
_atom_site_label
_atom_site_type_symbol
_atom_site_fract_x
_atom_site_fract_y
_atom_site_fract_z
_atom_type_partial_charge
In0 In 0.50422 0.13365 0.04741 0.0
O1 O 0.54895 0.14538 0.9786 0.0
O2 O 0.50453 0.14395 0.9374 0.0
C3 C 0.52941 0.13108 0.16552 0.0
C4 C 0.46253 0.06522 0.03175 0.0
C5 C 0.49512 0.1867 0.08191 0.0
O6 O 0.54882 0.15003 0.11994 0.0
O7 O 0.49789 0.11301 0.15098 0.0
O8 O 0.46939 0.15713 0.0692 0.0
O9 O 0.52412 0.18927 0.07248 0.0
C10 C 0.53415 0.14773 0.92765 0.0
O11 O 0.45015 0.08515 0.03911 0.0
O12 O 0.4951 0.08019 0.03093 0.0
In13 In 0.36236 0.51526 0.21361 0.0
O14 O 0.39598 0.56001 0.14474 0.0
O15 O 0.35668 0.51315 0.10193 0.0
C16 C 0.38537 0.54192 0.33326 0.0
C17 C 0.38847 0.47253 0.21492 0.0
C18 C 0.30022 0.50853 0.23599 0.0
O19 O 0.39815 0.5596 0.28167 0.0
O20 O 0.3614 0.51116 0.324 0.0
O21 O 0.30381 0.48219 0.23044 0.0
O22 O 0.3272 0.53722 0.22526 0.0
C23 C 0.38145 0.54365 0.09286 0.0
O24 O 0.35639 0.46069 0.20662 0.0
O25 O 0.40625 0.50502 0.22029 0.0
In26 In 0.83936 0.36498 0.37292 0.0
O27 O 0.82615 0.39698 0.30438 0.0
O28 O 0.83365 0.35758 0.26175 0.0
C29 C 0.83792 0.38903 0.49284 0.0
C30 C 0.90817 0.39313 0.36521 0.0
C31 C 0.78369 0.30284 0.39658 0.0
O32 O 0.83161 0.40096 0.44164 0.0
O33 O 0.84524 0.36551 0.48309 0.0
O34 O 0.81347 0.30618 0.39171 0.0
O35 O 0.78244 0.33001 0.38503 0.0
C36 C 0.82728 0.38192 0.25267 0.0
O37 O 0.88858 0.36046 0.36556 0.0
O38 O 0.89279 0.41027 0.36781 0.0
In39 In 0.46042 0.84717 0.54459 0.0
O40 O 0.41571 0.83515 0.47525 0.0
O41 O 0.46281 0.84381 0.43279 0.0
C42 C 0.43304 0.84199 0.66388 0.0
C43 C 0.50147 0.91646 0.54785 0.0
C44 C 0.4687 0.79253 0.56812 0.0
O45 O 0.41558 0.83711 0.612 0.0
O46 O 0.46395 0.8496 0.65506 0.0
O47 O 0.49452 0.82286 0.56296 0.0
O48 O 0.4399 0.79009 0.55594 0.0
C49 C 0.43219 0.83737 0.42347 0.0
O50 O 0.51401 0.89691 0.53755 0.0
O51 O 0.46912 0.9009 0.554 0.0
In52 In 0.60014 0.46388 0.72049 0.0
O53 O 0.5671 0.4184 0.65256 0.0
O54 O 0.60783 0.46427 0.60961 0.0
C55 C 0.5749 0.43959 0.84048 0.0
C56 C 0.57516 0.50735 0.70957 0.0
C57 C 0.66153 0.46933 0.74599 0.0
O58 O 0.56305 0.42098 0.78962 0.0
O59 O 0.59892 0.47021 0.83034 0.0
O60 O 0.6589 0.49601 0.7364 0.0
O61 O 0.6339 0.44079 0.7384 0.0
C62 C 0.58268 0.43393 0.60076 0.0
O63 O 0.60742 0.51896 0.71262 0.0
O64 O 0.55675 0.47479 0.7113 0.0
In65 In 0.12439 0.61241 0.87363 0.0
O66 O 0.13755 0.58052 0.80469 0.0
O67 O 0.12972 0.61974 0.76235 0.0
C68 C 0.12633 0.58862 0.99331 0.0
C69 C 0.05538 0.58356 0.86874 0.0
C70 C 0.17964 0.67446 0.90023 0.0
O71 O 0.13276 0.57679 0.94209 0.0
O72 O 0.11859 0.61186 0.98364 0.0
O73 O 0.14997 0.67115 0.89288 0.0
O74 O 0.18116 0.64742 0.88888 0.0
C75 C 0.13614 0.59545 0.75306 0.0
O76 O 0.07477 0.61623 0.86574 0.0
O77 O 0.07107 0.56676 0.8727 0.0
In78 In 0.83747 0.46345 0.87341 0.0
O79 O 0.88599 0.51808 0.88101 0.0
O80 O 0.89158 0.47345 0.87427 0.0
C81 C 0.78164 0.46948 0.85059 0.0
C82 C 0.82643 0.43431 0.99363 0.0
C83 C 0.83607 0.43811 0.75337 0.0
O84 O 0.81133 0.49605 0.85721 0.0
O85 O 0.78041 0.44088 0.85973 0.0
O86 O 0.83051 0.41999 0.80457 0.0
O87 O 0.84239 0.46869 0.76317 0.0
C88 C 0.90628 0.50601 0.87797 0.0
O89 O 0.82513 0.41818 0.94175 0.0
O90 O 0.8325 0.46496 0.98475 0.0
In91 In 0.36036 0.84648 0.04317 0.0
O92 O 0.35608 0.89598 0.05138 0.0
O93 O 0.40511 0.90039 0.03464 0.0
C94 C 0.29762 0.79156 0.01976 0.0
C95 C 0.3791 0.83683 0.16409 0.0
C96 C 0.38267 0.8417 0.92371 0.0
O97 O 0.30196 0.82185 0.0245 0.0
O98 O 0.32406 0.7893 0.03213 0.0
O99 O 0.39512 0.83653 0.97546 0.0
O100 O 0.35945 0.84942 0.93274 0.0
C101 C 0.38814 0.91574 0.04147 0.0
O102 O 0.39352 0.83494 0.11225 0.0
O103 O 0.3546 0.84281 0.15491 0.0
In104 In 0.49966 0.366 0.22133 0.0
O105 O 0.4461 0.36182 0.22829 0.0
O106 O 0.49181 0.41151 0.22758 0.0
C107 C 0.49243 0.30348 0.1979 0.0
C108 C 0.52887 0.38239 0.34156 0.0
C109 C 0.52483 0.39016 0.10125 0.0
O110 O 0.46624 0.30722 0.20286 0.0
O111 O 0.52103 0.3305 0.20891 0.0
O112 O 0.54312 0.40224 0.15237 0.0
O113 O 0.49417 0.36634 0.11114 0.0
C114 C 0.45929 0.3945 0.22932 0.0
O115 O 0.54518 0.39722 0.28986 0.0
O116 O 0.49791 0.35862 0.33248 0.0
In117 In 0.12586 0.51375 0.3735 0.0
O118 O 0.07745 0.4591 0.3819 0.0
O119 O 0.07169 0.50339 0.36934 0.0
C120 C 0.18159 0.50788 0.34897 0.0
C121 C 0.13642 0.54277 0.4939 0.0
C122 C 0.12793 0.53949 0.25373 0.0
O123 O 0.15199 0.48126 0.35606 0.0
O124 O 0.18286 0.53642 0.35923 0.0
O125 O 0.13311 0.55744 0.30511 0.0
O126 O 0.12161 0.50889 0.26326 0.0
C127 C 0.0571 0.47091 0.37484 0.0
O128 O 0.13755 0.55881 0.44203 0.0
O129 O 0.13073 0.51225 0.48496 0.0
In130 In 0.60159 0.13412 0.54757 0.0
O131 O 0.5683 0.14552 0.61636 0.0
O132 O 0.61142 0.14439 0.65765 0.0
C133 C 0.57354 0.13147 0.42965 0.0
C134 C 0.5755 0.06576 0.56277 0.0
C135 C 0.6639 0.18703 0.51355 0.0
O136 O 0.57358 0.15081 0.47502 0.0
O137 O 0.58666 0.11312 0.44429 0.0
O138 O 0.65981 0.15732 0.52579 0.0
O139 O 0.63758 0.1898 0.52308 0.0
C140 C 0.58546 0.14796 0.66736 0.0
O141 O 0.60771 0.08591 0.55494 0.0
O142 O 0.55767 0.08049 0.56445 0.0
In143 In 0.46345 0.61378 0.71301 0.0
O144 O 0.51681 0.61747 0.72222 0.0
O145 O 0.47155 0.56844 0.70629 0.0
C146 C 0.47057 0.67615 0.68848 0.0
C147 C 0.43507 0.59577 0.83376 0.0
C148 C 0.43667 0.59114 0.59343 0.0
O149 O 0.49678 0.67241 0.69317 0.0
O150 O 0.44211 0.64941 0.70159 0.0
O151 O 0.41892 0.57871 0.64503 0.0
O152 O 0.46766 0.61443 0.60266 0.0
C153 C 0.50387 0.58511 0.71337 0.0
O154 O 0.41869 0.58108 0.78199 0.0
O155 O 0.46568 0.62019 0.82458 0.0
C156 C 0.53067 0.09995 0.2654 0.0
C157 C 0.54175 0.13133 0.23218 0.0
H158 H 0.53289 0.07557 0.35451 0.0
C159 C 0.56253 0.16285 0.26476 0.0
H160 H 0.51438 0.0754 0.24104 0.0
C161 C 0.57173 0.16295 0.33035 0.0
C162 C 0.56122 0.13152 0.36309 0.0
H163 H 0.57087 0.18731 0.24002 0.0
H164 H 0.58778 0.18748 0.35494 0.0
C165 C 0.54099 0.10005 0.33004 0.0
C166 C 0.4291 0.58654 0.40869 0.0
C167 C 0.39778 0.55551 0.39965 0.0
H168 H 0.4661 0.62199 0.47751 0.0
C169 C 0.3787 0.53682 0.45483 0.0
H170 H 0.4443 0.60142 0.367 0.0
C171 C 0.39096 0.54873 0.51801 0.0
C172 C 0.42272 0.57928 0.52704 0.0
H173 H 0.35435 0.51286 0.4492 0.0
H174 H 0.37591 0.53368 0.55969 0.0
C175 C 0.44158 0.59821 0.47188 0.0
C176 C 0.83524 0.44374 0.63176 0.0
C177 C 0.83567 0.425 0.68687 0.0
H178 H 0.83526 0.44683 0.52689 0.0
C179 C 0.8363 0.39414 0.6777 0.0
H180 H 0.83463 0.4676 0.63748 0.0
C181 C 0.83709 0.38252 0.61447 0.0
C182 C 0.83675 0.40131 0.55936 0.0
H183 H 0.8367 0.37924 0.71934 0.0
H184 H 0.83787 0.35876 0.60875 0.0
C185 C 0.83553 0.43187 0.56852 0.0
C186 C 0.38785 0.83967 0.73896 0.0
C187 C 0.41905 0.83993 0.73013 0.0
H188 H 0.35199 0.84025 0.80757 0.0
C189 C 0.43755 0.83934 0.78542 0.0
H190 H 0.3731 0.84012 0.69718 0.0
C191 C 0.42534 0.83905 0.84854 0.0
C192 C 0.39466 0.83981 0.85739 0.0
H193 H 0.46163 0.83934 0.77994 0.0
H194 H 0.44029 0.839 0.89032 0.0
C195 C 0.37587 0.83984 0.80209 0.0
C196 C 0.56918 0.43378 0.02542 0.0
C197 C 0.53796 0.40268 0.03469 0.0
H198 H 0.60513 0.47003 0.95634 0.0
C199 C 0.51903 0.38359 0.97962 0.0
H200 H 0.58423 0.449 0.06701 0.0
C201 C 0.53115 0.39537 0.91634 0.0
C202 C 0.56215 0.4267 0.90706 0.0
H203 H 0.4949 0.35943 0.98541 0.0
H204 H 0.5161 0.38016 0.87475 0.0
C205 C 0.58104 0.44582 0.96213 0.0
C206 C 0.12945 0.53419 0.1322 0.0
C207 C 0.12865 0.55276 0.18728 0.0
H208 H 0.12972 0.53123 0.02734 0.0
C209 C 0.12782 0.58351 0.17812 0.0
H210 H 0.13025 0.51044 0.13794 0.0
C211 C 0.1271 0.59514 0.11487 0.0
C212 C 0.12769 0.57646 0.05979 0.0
H213 H 0.12716 0.59828 0.21974 0.0
H214 H 0.1261 0.61879 0.10914 0.0
C215 C 0.12922 0.54608 0.06896 0.0
C216 C 0.52229 0.27149 0.16692 0.0
C217 C 0.49116 0.27169 0.17308 0.0
H218 H 0.54777 0.24512 0.13266 0.0
C219 C 0.46047 0.24307 0.14967 0.0
H220 H 0.54643 0.29305 0.18432 0.0
C221 C 0.46123 0.21505 0.11964 0.0
C222 C 0.49275 0.21561 0.11208 0.0
H223 H 0.43613 0.24267 0.15339 0.0
H224 H 0.4374 0.19328 0.10174 0.0
C225 C 0.52309 0.24401 0.13663 0.0
C226 C 0.26946 0.53834 0.27587 0.0
C227 C 0.2687 0.50712 0.26193 0.0
H228 H 0.24315 0.5629 0.31557 0.0
C229 C 0.23904 0.47556 0.2783 0.0
H230 H 0.29197 0.56313 0.26449 0.0
C231 C 0.21064 0.47542 0.30793 0.0
C232 C 0.21176 0.50685 0.32224 0.0
H233 H 0.2379 0.45111 0.26867 0.0
H234 H 0.18788 0.45085 0.31941 0.0
C235 C 0.24151 0.53821 0.3059 0.0
C236 C 0.69405 0.245 0.46152 0.0
C237 C 0.69532 0.21586 0.48379 0.0
H238 H 0.7203 0.29436 0.41525 0.0
C239 C 0.72569 0.21441 0.47398 0.0
H240 H 0.67097 0.24686 0.46743 0.0
C241 C 0.75452 0.24219 0.44366 0.0
C242 C 0.75306 0.27145 0.42218 0.0
H243 H 0.72723 0.19207 0.4901 0.0
H244 H 0.77798 0.24103 0.43799 0.0
C245 C 0.72237 0.27224 0.43091 0.0
C246 C 0.43966 0.73277 0.61274 0.0
C247 C 0.47057 0.7629 0.59607 0.0
H248 H 0.41563 0.6827 0.65641 0.0
C249 C 0.50219 0.765 0.61183 0.0
H250 H 0.41482 0.73035 0.60205 0.0
C251 C 0.50267 0.73716 0.64326 0.0
C252 C 0.47153 0.7072 0.66025 0.0
H253 H 0.52642 0.78809 0.60015 0.0
H254 H 0.52725 0.73902 0.65403 0.0
C255 C 0.44013 0.70548 0.64474 0.0
C256 C 0.72375 0.50204 0.783 0.0
C257 C 0.69313 0.47052 0.77101 0.0
H258 H 0.7761 0.52664 0.81833 0.0
C259 C 0.69184 0.43929 0.78734 0.0
H260 H 0.72535 0.52652 0.77142 0.0
C261 C 0.72032 0.43938 0.81494 0.0
C262 C 0.75107 0.4707 0.82659 0.0
H263 H 0.6686 0.41454 0.77935 0.0
H264 H 0.71827 0.41468 0.82639 0.0
C265 C 0.75261 0.50212 0.81038 0.0
C266 C 0.23893 0.70364 0.9463 0.0
C267 C 0.20958 0.70554 0.92873 0.0
H268 H 0.28883 0.72861 0.99021 0.0
C269 C 0.20862 0.73588 0.94355 0.0
H270 H 0.24046 0.68057 0.93635 0.0
C271 C 0.23686 0.76392 0.97475 0.0
C272 C 0.26611 0.76169 0.99234 0.0
H273 H 0.18616 0.73791 0.93118 0.0
H274 H 0.23591 0.7873 0.98465 0.0
C275 C 0.26663 0.73116 0.97798 0.0
C276 C 0.59315 0.15251 0.78957 0.0
C277 C 0.57428 0.15174 0.73381 0.0
H278 H 0.5954 0.15214 0.89453 0.0
C279 C 0.54336 0.15225 0.74243 0.0
H280 H 0.61708 0.15219 0.78461 0.0
C281 C 0.53089 0.15216 0.80543 0.0
C282 C 0.54911 0.15163 0.86119 0.0
H283 H 0.52823 0.1517 0.70047 0.0
H284 H 0.5065 0.15156 0.8104 0.0
C285 C 0.58071 0.15249 0.85258 0.0
C286 C 0.43824 0.60228 0.95625 0.0
C287 C 0.42016 0.58388 0.90001 0.0
H288 H 0.43996 0.6042 0.0613 0.0
C289 C 0.38836 0.55305 0.90773 0.0
H290 H 0.46277 0.62614 0.95191 0.0
C291 C 0.37542 0.54032 0.97036 0.0
C292 C 0.39384 0.55833 0.02662 0.0
H293 H 0.37381 0.53825 0.86536 0.0
H294 H 0.35122 0.5161 0.97469 0.0
C295 C 0.42513 0.58973 0.0189 0.0
C296 C 0.82304 0.38775 0.06759 0.0
C297 C 0.82346 0.41931 0.0598 0.0
H298 H 0.82398 0.35118 0.13469 0.0
C299 C 0.82297 0.43731 0.11599 0.0
H300 H 0.82343 0.37327 0.02524 0.0
C301 C 0.823 0.4245 0.17864 0.0
C302 C 0.82386 0.39359 0.18645 0.0
H303 H 0.8232 0.46165 0.1116 0.0
H304 H 0.82335 0.43936 0.22097 0.0
C305 C 0.8234 0.3751 0.13027 0.0
C306 C 0.43548 0.83451 0.30091 0.0
C307 C 0.4174 0.83463 0.35713 0.0
H308 H 0.43734 0.83469 0.19586 0.0
C309 C 0.38571 0.83368 0.3493 0.0
H310 H 0.45993 0.83517 0.3053 0.0
C311 C 0.37291 0.83372 0.28661 0.0
C312 C 0.39134 0.83433 0.23039 0.0
H313 H 0.37115 0.83377 0.39165 0.0
H314 H 0.3488 0.83375 0.28222 0.0
C315 C 0.4225 0.83418 0.23821 0.0
C316 C 0.5389 0.38793 0.52668 0.0
C317 C 0.57062 0.41887 0.5346 0.0
H318 H 0.50079 0.35215 0.45945 0.0
C319 C 0.5895 0.43641 0.47846 0.0
H320 H 0.52371 0.37382 0.56896 0.0
C321 C 0.57647 0.42385 0.41575 0.0
C322 C 0.54413 0.39366 0.40781 0.0
H323 H 0.61404 0.46027 0.48294 0.0
H324 H 0.59129 0.4384 0.37347 0.0
C325 C 0.52573 0.37554 0.46394 0.0
C326 C 0.14026 0.54 0.61625 0.0
C327 C 0.13934 0.55777 0.56007 0.0
H328 H 0.14042 0.53822 0.72123 0.0
C329 C 0.13943 0.58918 0.56788 0.0
H330 H 0.14028 0.51579 0.61186 0.0
C331 C 0.13924 0.60191 0.63058 0.0
C332 C 0.13928 0.58368 0.68676 0.0
H333 H 0.13871 0.60347 0.52554 0.0
H334 H 0.13843 0.62571 0.63501 0.0
C335 C 0.14039 0.5529 0.67891 0.0
C336 C 0.40618 0.00887 0.04491 0.0
C337 C 0.44156 0.027 0.02915 0.0
H338 H 0.36107 0.9589 0.06164 0.0
C339 C 0.45823 0.00819 0.01518 0.0
H340 H 0.39274 0.02279 0.05612 0.0
C341 C 0.44046 0.97225 0.01876 0.0
C342 C 0.40541 0.95391 0.03628 0.0
H343 H 0.4854 0.02129 0.00256 0.0
H344 H 0.45452 0.95885 0.00836 0.0
C345 C 0.38816 0.97244 0.04841 0.0
C346 C 0.40362 0.39565 0.21681 0.0
C347 C 0.43932 0.41267 0.22964 0.0
H348 H 0.35906 0.40135 0.20147 0.0
C349 C 0.45725 0.4487 0.23924 0.0
H350 H 0.38923 0.36787 0.20901 0.0
C351 C 0.44035 0.46755 0.2346 0.0
C352 C 0.40492 0.451 0.2203 0.0
H353 H 0.48471 0.46265 0.24961 0.0
H354 H 0.45535 0.49535 0.24189 0.0
C355 C 0.38646 0.41476 0.21215 0.0
C356 C 0.00011 0.46595 0.3574 0.0
C357 C 0.01908 0.44938 0.37086 0.0
H358 H 0.9508 0.46115 0.34415 0.0
C359 C 0.00133 0.41317 0.37948 0.0
H360 H 0.01286 0.49372 0.34975 0.0
C361 C 0.96502 0.39412 0.37605 0.0
C362 C 0.94629 0.41119 0.36402 0.0
H363 H 0.01538 0.39975 0.38954 0.0
H364 H 0.95168 0.36637 0.38413 0.0
C365 C 0.96434 0.44717 0.354 0.0
C366 C 0.50526 0.97251 0.57391 0.0
C367 C 0.52213 0.95457 0.55456 0.0
H368 H 0.50901 0.02122 0.5928 0.0
C369 C 0.55785 0.97341 0.54215 0.0
H370 H 0.47786 0.95883 0.58467 0.0
C371 C 0.57601 0.00979 0.547 0.0
C372 C 0.55859 0.02755 0.56445 0.0
H373 H 0.57151 0.96017 0.52755 0.0
H374 H 0.6033 0.02399 0.53539 0.0
C375 C 0.52321 0.00841 0.57887 0.0
C376 C 0.57714 0.56489 0.72033 0.0
C377 C 0.55894 0.52915 0.70635 0.0
H378 H 0.57391 0.61114 0.7341 0.0
C379 C 0.52351 0.51297 0.69245 0.0
H380 H 0.6045 0.57796 0.73135 0.0
C381 C 0.5063 0.53158 0.69421 0.0
C382 C 0.52392 0.56703 0.70995 0.0
H383 H 0.50874 0.48555 0.68095 0.0
H384 H 0.47885 0.51786 0.68375 0.0
C385 C 0.55968 0.58378 0.72218 0.0
C386 C -0.00164 0.58271 0.87222 0.0
C387 C 0.01721 0.56522 0.86984 0.0
H388 H 0.9479 0.57763 0.87713 0.0
C389 C -0.00074 0.52883 0.87067 0.0
H390 H 0.0116 0.61078 0.87191 0.0
C391 C 0.96349 0.51021 0.87397 0.0
C392 C 0.94438 0.52731 0.87646 0.0
H393 H 0.01285 0.51444 0.86896 0.0
H394 H 0.95082 0.48216 0.87443 0.0
C395 C 0.96205 0.5638 0.87553 0.0
loop_
_geom_bond_atom_site_label_1
_geom_bond_atom_site_label_2
_geom_bond_distance
_geom_bond_site_symmetry_2
_ccdc_geom_bond_type
In0 O1 2.294 1_554 S
In0 O2 2.326 1_554 S
In0 O6 2.266 . S
In0 O7 2.326 . S
In0 O8 2.266 . S
In0 O9 2.326 . S
In0 O11 2.294 . S
In0 O12 2.326 . S
O1 In0 2.294 1_556 S
O1 C10 1.240 . S
O2 In0 2.326 1_556 S
O2 C10 1.252 . S
C3 O6 1.252 . S
C3 O7 1.260 . S
C4 O11 1.240 . S
C4 O12 1.252 . S
C5 O8 1.252 . S
C5 O9 1.260 . S
O6 In0 2.266 . S
O6 C3 1.252 . S
O7 In0 2.326 . S
O7 C3 1.260 . S
O8 In0 2.266 . S
O8 C5 1.252 . S
O9 In0 2.326 . S
O9 C5 1.260 . S
C10 O1 1.240 . S
C10 O2 1.252 . S
O11 In0 2.294 . S
O11 C4 1.240 . S
O12 In0 2.326 . S
O12 C4 1.252 . S
In13 O14 2.294 . S
In13 O15 2.326 . S
In13 O19 2.266 . S
In13 O20 2.326 . S
In13 O21 2.266 . S
In13 O22 2.326 . S
In13 O24 2.294 . S
In13 O25 2.326 . S
O14 In13 2.294 . S
O14 C23 1.240 . S
O15 In13 2.326 . S
O15 C23 1.252 . S
C16 O19 1.252 . S
C16 O20 1.260 . S
C17 O24 1.240 . S
C17 O25 1.252 . S
C18 O21 1.252 . S
C18 O22 1.260 . S
O19 In13 2.266 . S
O19 C16 1.252 . S
O20 In13 2.326 . S
O20 C16 1.260 . S
O21 In13 2.266 . S
O21 C18 1.252 . S
O22 In13 2.326 . S
O22 C18 1.260 . S
C23 O14 1.240 . S
C23 O15 1.252 . S
O24 In13 2.294 . S
O24 C17 1.240 . S
O25 In13 2.326 . S
O25 C17 1.252 . S
In26 O27 2.294 . S
In26 O28 2.326 . S
In26 O32 2.266 . S
In26 O33 2.326 . S
In26 O34 2.266 . S
In26 O35 2.326 . S
In26 O37 2.294 . S
In26 O38 2.326 . S
O27 In26 2.294 . S
O27 C36 1.240 . S
O28 In26 2.326 . S
O28 C36 1.252 . S
C29 O32 1.252 . S
C29 O33 1.260 . S
C30 O37 1.240 . S
C30 O38 1.252 . S
C31 O34 1.252 . S
C31 O35 1.260 . S
O32 In26 2.266 . S
O32 C29 1.252 . S
O33 In26 2.326 . S
O33 C29 1.260 . S
O34 In26 2.266 . S
O34 C31 1.252 . S
O35 In26 2.326 . S
O35 C31 1.260 . S
C36 O27 1.240 . S
C36 O28 1.252 . S
O37 In26 2.294 . S
O37 C30 1.240 . S
O38 In26 2.326 . S
O38 C30 1.252 . S
In39 O40 2.294 . S
In39 O41 2.326 . S
In39 O45 2.266 . S
In39 O46 2.326 . S
In39 O47 2.266 . S
In39 O48 2.326 . S
In39 O50 2.294 . S
In39 O51 2.326 . S
O40 In39 2.294 . S
O40 C49 1.240 . S
O41 In39 2.326 . S
O41 C49 1.252 . S
C42 O45 1.252 . S
C42 O46 1.260 . S
C43 O50 1.240 . S
C43 O51 1.252 . S
C44 O47 1.252 . S
C44 O48 1.260 . S
O45 In39 2.266 . S
O45 C42 1.252 . S
O46 In39 2.326 . S
O46 C42 1.260 . S
O47 In39 2.266 . S
O47 C44 1.252 . S
O48 In39 2.326 . S
O48 C44 1.260 . S
C49 O40 1.240 . S
C49 O41 1.252 . S
O50 In39 2.294 . S
O50 C43 1.240 . S
O51 In39 2.326 . S
O51 C43 1.252 . S
In52 O53 2.294 . S
In52 O54 2.326 . S
In52 O58 2.266 . S
In52 O59 2.326 . S
In52 O60 2.266 . S
In52 O61 2.326 . S
In52 O63 2.294 . S
In52 O64 2.326 . S
O53 In52 2.294 . S
O53 C62 1.240 . S
O54 In52 2.326 . S
O54 C62 1.252 . S
C55 O58 1.252 . S
C55 O59 1.260 . S
C56 O63 1.240 . S
C56 O64 1.252 . S
C57 O60 1.252 . S
C57 O61 1.260 . S
O58 In52 2.266 . S
O58 C55 1.252 . S
O59 In52 2.326 . S
O59 C55 1.260 . S
O60 In52 2.266 . S
O60 C57 1.252 . S
O61 In52 2.326 . S
O61 C57 1.260 . S
C62 O53 1.240 . S
C62 O54 1.252 . S
O63 In52 2.294 . S
O63 C56 1.240 . S
O64 In52 2.326 . S
O64 C56 1.252 . S
In65 O66 2.294 . S
In65 O67 2.326 . S
In65 O71 2.266 . S
In65 O72 2.309 1_556 S
In65 O73 2.266 . S
In65 O74 2.326 . S
In65 O76 2.294 . S
In65 O77 2.326 . S
O66 In65 2.294 . S
O66 C75 1.240 . S
O67 In65 2.326 . S
O67 C75 1.252 . S
C68 O71 1.252 1_554 S
C68 O72 1.262 . S
C69 O76 1.240 . S
C69 O77 1.252 . S
C70 O73 1.252 . S
C70 O74 1.260 . S
O71 In65 2.266 . S
O71 C68 1.252 1_556 S
O72 In65 2.309 1_554 S
O72 C68 1.262 . S
O73 In65 2.266 . S
O73 C70 1.252 . S
O74 In65 2.326 . S
O74 C70 1.260 . S
C75 O66 1.240 . S
C75 O67 1.252 . S
O76 In65 2.294 . S
O76 C69 1.240 . S
O77 In65 2.326 . S
O77 C69 1.252 . S
In78 O79 2.294 . S
In78 O80 2.326 . S
In78 O84 2.266 . S
In78 O85 2.326 . S
In78 O86 2.266 . S
In78 O87 2.326 . S
In78 O89 2.294 . S
In78 O90 2.326 . S
O79 In78 2.294 . S
O79 C88 1.240 . S
O80 In78 2.326 . S
O80 C88 1.252 . S
C81 O84 1.252 . S
C81 O85 1.260 . S
C82 O89 1.240 . S
C82 O90 1.252 . S
C83 O86 1.252 . S
C83 O87 1.260 . S
O84 In78 2.266 . S
O84 C81 1.252 . S
O85 In78 2.326 . S
O85 C81 1.260 . S
O86 In78 2.266 . S
O86 C83 1.252 . S
O87 In78 2.326 . S
O87 C83 1.260 . S
C88 O79 1.240 . S
C88 O80 1.252 . S
O89 In78 2.294 . S
O89 C82 1.240 . S
O90 In78 2.326 . S
O90 C82 1.252 . S
In91 O92 2.294 . S
In91 O93 2.326 . S
In91 O97 2.266 . S
In91 O98 2.326 . S
In91 O99 2.266 1_554 S
In91 O100 2.326 1_554 S
In91 O102 2.294 . S
In91 O103 2.326 . S
O92 In91 2.294 . S
O92 C101 1.240 . S
O93 In91 2.326 . S
O93 C101 1.252 . S
C94 O97 1.252 . S
C94 O98 1.260 . S
C95 O102 1.240 . S
C95 O103 1.252 . S
C96 O99 1.252 . S
C96 O100 1.260 . S
O97 In91 2.266 . S
O97 C94 1.252 . S
O98 In91 2.326 . S
O98 C94 1.260 . S
O99 In91 2.266 1_556 S
O99 C96 1.252 . S
O100 In91 2.326 1_556 S
O100 C96 1.260 . S
C101 O92 1.240 . S
C101 O93 1.252 . S
O102 In91 2.294 . S
O102 C95 1.240 . S
O103 In91 2.326 . S
O103 C95 1.252 . S
In104 O105 2.294 . S
In104 O106 2.326 . S
In104 O110 2.266 . S
In104 O111 2.326 . S
In104 O112 2.266 . S
In104 O113 2.326 . S
In104 O115 2.294 . S
In104 O116 2.326 . S
O105 In104 2.294 . S
O105 C114 1.240 . S
O106 In104 2.326 . S
O106 C114 1.252 . S
C107 O110 1.252 . S
C107 O111 1.260 . S
C108 O115 1.240 . S
C108 O116 1.252 . S
C109 O112 1.252 . S
C109 O113 1.260 . S
O110 In104 2.266 . S
O110 C107 1.252 . S
O111 In104 2.326 . S
O111 C107 1.260 . S
O112 In104 2.266 . S
O112 C109 1.252 . S
O113 In104 2.326 . S
O113 C109 1.260 . S
C114 O105 1.240 . S
C114 O106 1.252 . S
O115 In104 2.294 . S
O115 C108 1.240 . S
O116 In104 2.326 . S
O116 C108 1.252 . S
In117 O118 2.294 . S
In117 O119 2.326 . S
In117 O123 2.266 . S
In117 O124 2.326 . S
In117 O125 2.266 . S
In117 O126 2.326 . S
In117 O128 2.294 . S
In117 O129 2.326 . S
O118 In117 2.294 . S
O118 C127 1.240 . S
O119 In117 2.326 . S
O119 C127 1.252 . S
C120 O123 1.252 . S
C120 O124 1.260 . S
C121 O128 1.240 . S
C121 O129 1.252 . S
C122 O125 1.252 . S
C122 O126 1.260 . S
O123 In117 2.266 . S
O123 C120 1.252 . S
O124 In117 2.326 . S
O124 C120 1.260 . S
O125 In117 2.266 . S
O125 C122 1.252 . S
O126 In117 2.326 . S
O126 C122 1.260 . S
C127 O118 1.240 . S
C127 O119 1.252 . S
O128 In117 2.294 . S
O128 C121 1.240 . S
O129 In117 2.326 . S
O129 C121 1.252 . S
In130 O131 2.294 . S
In130 O132 2.326 . S
In130 O136 2.266 . S
In130 O137 2.326 . S
In130 O138 2.266 . S
In130 O139 2.326 . S
In130 O141 2.294 . S
In130 O142 2.326 . S
O131 In130 2.294 . S
O131 C140 1.240 . S
O132 In130 2.326 . S
O132 C140 1.252 . S
C133 O136 1.252 . S
C133 O137 1.260 . S
C134 O141 1.240 . S
C134 O142 1.252 . S
C135 O138 1.252 . S
C135 O139 1.260 . S
O136 In130 2.266 . S
O136 C133 1.252 . S
O137 In130 2.326 . S
O137 C133 1.260 . S
O138 In130 2.266 . S
O138 C135 1.252 . S
O139 In130 2.326 . S
O139 C135 1.260 . S
C140 O131 1.240 . S
C140 O132 1.252 . S
O141 In130 2.294 . S
O141 C134 1.240 . S
O142 In130 2.326 . S
O142 C134 1.252 . S
In143 O144 2.294 . S
In143 O145 2.326 . S
In143 O149 2.266 . S
In143 O150 2.326 . S
In143 O151 2.266 . S
In143 O152 2.326 . S
In143 O154 2.294 . S
In143 O155 2.326 . S
O144 In143 2.294 . S
O144 C153 1.240 . S
O145 In143 2.326 . S
O145 C153 1.252 . S
C146 O149 1.252 . S
C146 O150 1.260 . S
C147 O154 1.240 . S
C147 O155 1.252 . S
C148 O151 1.252 . S
C148 O152 1.260 . S
O149 In143 2.266 . S
O149 C146 1.252 . S
O150 In143 2.326 . S
O150 C146 1.260 . S
O151 In143 2.266 . S
O151 C148 1.252 . S
O152 In143 2.326 . S
O152 C148 1.260 . S
C153 O144 1.240 . S
C153 O145 1.252 . S
O154 In143 2.294 . S
O154 C147 1.240 . S
O155 In143 2.326 . S
O155 C147 1.252 . S
C156 C157 1.387 . S
C156 H160 0.950 . S
C156 C165 1.390 . S
C157 C156 1.387 . S
C157 C159 1.387 . S
H158 C165 0.950 . S
C159 C157 1.387 . S
C159 C161 1.390 . S
C159 H163 0.950 . S
H160 C156 0.950 . S
C161 C159 1.390 . S
C161 C162 1.387 . S
C161 H164 0.950 . S
C162 C161 1.387 . S
C162 C165 1.387 . S
H163 C159 0.950 . S
H164 C161 0.950 . S
C165 C156 1.390 . S
C165 H158 0.950 . S
C165 C162 1.387 . S
C166 C167 1.387 . S
C166 H170 0.950 . S
C166 C175 1.390 . S
C167 C166 1.387 . S
C167 C169 1.387 . S
H168 C175 0.950 . S
C169 C167 1.387 . S
C169 C171 1.390 . S
C169 H173 0.950 . S
H170 C166 0.950 . S
C171 C169 1.390 . S
C171 C172 1.387 . S
C171 H174 0.950 . S
C172 C171 1.387 . S
C172 C175 1.387 . S
H173 C169 0.950 . S
H174 C171 0.950 . S
C175 C166 1.390 . S
C175 H168 0.950 . S
C175 C172 1.387 . S
C176 C177 1.387 . S
C176 H180 0.950 . S
C176 C185 1.390 . S
C177 C176 1.387 . S
C177 C179 1.387 . S
H178 C185 0.950 . S
C179 C177 1.387 . S
C179 C181 1.390 . S
C179 H183 0.950 . S
H180 C176 0.950 . S
C181 C179 1.390 . S
C181 C182 1.387 . S
C181 H184 0.950 . S
C182 C181 1.387 . S
C182 C185 1.387 . S
H183 C179 0.950 . S
H184 C181 0.950 . S
C185 C176 1.390 . S
C185 H178 0.950 . S
C185 C182 1.387 . S
C186 C187 1.387 . S
C186 H190 0.950 . S
C186 C195 1.390 . S
C187 C186 1.387 . S
C187 C189 1.387 . S
H188 C195 0.950 . S
C189 C187 1.387 . S
C189 C191 1.390 . S
C189 H193 0.950 . S
H190 C186 0.950 . S
C191 C189 1.390 . S
C191 C192 1.387 . S
C191 H194 0.950 . S
C192 C191 1.387 . S
C192 C195 1.387 . S
H193 C189 0.950 . S
H194 C191 0.950 . S
C195 C186 1.390 . S
C195 H188 0.950 . S
C195 C192 1.387 . S
C196 C197 1.387 . S
C196 H200 0.950 . S
C196 C205 1.390 1_554 S
C197 C196 1.387 . S
C197 C199 1.387 1_554 S
H198 C205 0.950 . S
C199 C197 1.387 1_556 S
C199 C201 1.390 . S
C199 H203 0.950 . S
H200 C196 0.950 . S
C201 C199 1.390 . S
C201 C202 1.387 . S
C201 H204 0.950 . S
C202 C201 1.387 . S
C202 C205 1.387 . S
H203 C199 0.950 . S
H204 C201 0.950 . S
C205 C196 1.390 1_556 S
C205 H198 0.950 . S
C205 C202 1.387 . S
C206 C207 1.387 . S
C206 H210 0.950 . S
C206 C215 1.390 . S
C207 C206 1.387 . S
C207 C209 1.387 . S
H208 C215 0.950 . S
C209 C207 1.387 . S
C209 C211 1.390 . S
C209 H213 0.950 . S
H210 C206 0.950 . S
C211 C209 1.390 . S
C211 C212 1.387 . S
C211 H214 0.950 . S
C212 C211 1.387 . S
C212 C215 1.387 . S
H213 C209 0.950 . S
H214 C211 0.950 . S
C215 C206 1.390 . S
C215 H208 0.950 . S
C215 C212 1.387 . S
C216 C217 1.387 . S
C216 H220 0.950 . S
C216 C225 1.390 . S
C217 C216 1.387 . S
C217 C219 1.387 . S
H218 C225 0.950 . S
C219 C217 1.387 . S
C219 C221 1.390 . S
C219 H223 0.950 . S
H220 C216 0.950 . S
C221 C219 1.390 . S
C221 C222 1.387 . S
C221 H224 0.950 . S
C222 C221 1.387 . S
C222 C225 1.387 . S
H223 C219 0.950 . S
H224 C221 0.950 . S
C225 C216 1.390 . S
C225 H218 0.950 . S
C225 C222 1.387 . S
C226 C227 1.387 . S
C226 H230 0.950 . S
C226 C235 1.390 . S
C227 C226 1.387 . S
C227 C229 1.387 . S
H228 C235 0.950 . S
C229 C227 1.387 . S
C229 C231 1.390 . S
C229 H233 0.950 . S
H230 C226 0.950 . S
C231 C229 1.390 . S
C231 C232 1.387 . S
C231 H234 0.950 . S
C232 C231 1.387 . S
C232 C235 1.387 . S
H233 C229 0.950 . S
H234 C231 0.950 . S
C235 C226 1.390 . S
C235 H228 0.950 . S
C235 C232 1.387 . S
C236 C237 1.387 . S
C236 H240 0.950 . S
C236 C245 1.390 . S
C237 C236 1.387 . S
C237 C239 1.387 . S
H238 C245 0.950 . S
C239 C237 1.387 . S
C239 C241 1.390 . S
C239 H243 0.950 . S
H240 C236 0.950 . S
C241 C239 1.390 . S
C241 C242 1.387 . S
C241 H244 0.950 . S
C242 C241 1.387 . S
C242 C245 1.387 . S
H243 C239 0.950 . S
H244 C241 0.950 . S
C245 C236 1.390 . S
C245 H238 0.950 . S
C245 C242 1.387 . S
C246 C247 1.387 . S
C246 H250 0.950 . S
C246 C255 1.390 . S
C247 C246 1.387 . S
C247 C249 1.387 . S
H248 C255 0.950 . S
C249 C247 1.387 . S
C249 C251 1.390 . S
C249 H253 0.950 . S
H250 C246 0.950 . S
C251 C249 1.390 . S
C251 C252 1.387 . S
C251 H254 0.950 . S
C252 C251 1.387 . S
C252 C255 1.387 . S
H253 C249 0.950 . S
H254 C251 0.950 . S
C255 C246 1.390 . S
C255 H248 0.950 . S
C255 C252 1.387 . S
C256 C257 1.387 . S
C256 H260 0.950 . S
C256 C265 1.390 . S
C257 C256 1.387 . S
C257 C259 1.387 . S
H258 C265 0.950 . S
C259 C257 1.387 . S
C259 C261 1.390 . S
C259 H263 0.950 . S
H260 C256 0.950 . S
C261 C259 1.390 . S
C261 C262 1.387 . S
C261 H264 0.950 . S
C262 C261 1.387 . S
C262 C265 1.387 . S
H263 C259 0.950 . S
H264 C261 0.950 . S
C265 C256 1.390 . S
C265 H258 0.950 . S
C265 C262 1.387 . S
C266 C267 1.387 . S
C266 H270 0.950 . S
C266 C275 1.390 . S
C267 C266 1.387 . S
C267 C269 1.387 . S
H268 C275 0.950 1_554 S
C269 C267 1.387 . S
C269 C271 1.390 . S
C269 H273 0.950 . S
H270 C266 0.950 . S
C271 C269 1.390 . S
C271 C272 1.387 . S
C271 H274 0.950 . S
C272 C271 1.387 . S
C272 C275 1.387 . S
H273 C269 0.950 . S
H274 C271 0.950 . S
C275 C266 1.390 . S
C275 H268 0.950 1_556 S
C275 C272 1.387 . S
C276 C277 1.387 . S
C276 H280 0.950 . S
C276 C285 1.390 . S
C277 C276 1.387 . S
C277 C279 1.387 . S
H278 C285 0.950 . S
C279 C277 1.387 . S
C279 C281 1.390 . S
C279 H283 0.950 . S
H280 C276 0.950 . S
C281 C279 1.390 . S
C281 C282 1.387 . S
C281 H284 0.950 . S
C282 C281 1.387 . S
C282 C285 1.387 . S
H283 C279 0.950 . S
H284 C281 0.950 . S
C285 C276 1.390 . S
C285 H278 0.950 . S
C285 C282 1.387 . S
C286 C287 1.387 . S
C286 H290 0.950 . S
C286 C295 1.390 . S
C287 C286 1.387 . S
C287 C289 1.387 . S
H288 C295 0.950 1_554 S
C289 C287 1.387 . S
C289 C291 1.390 . S
C289 H293 0.950 . S
H290 C286 0.950 . S
C291 C289 1.390 . S
C291 C292 1.387 1_556 S
C291 H294 0.950 1_556 S
C292 C291 1.387 1_554 S
C292 C295 1.387 1_554 S
H293 C289 0.950 . S
H294 C291 0.950 1_554 S
C295 C286 1.390 . S
C295 H288 0.950 1_556 S
C295 C292 1.387 1_556 S
C296 C297 1.387 . S
C296 H300 0.950 . S
C296 C305 1.390 . S
C297 C296 1.387 . S
C297 C299 1.387 . S
H298 C305 0.950 . S
C299 C297 1.387 . S
C299 C301 1.390 . S
C299 H303 0.950 . S
H300 C296 0.950 . S
C301 C299 1.390 . S
C301 C302 1.387 . S
C301 H304 0.950 . S
C302 C301 1.387 . S
C302 C305 1.387 . S
H303 C299 0.950 . S
H304 C301 0.950 . S
C305 C296 1.390 . S
C305 H298 0.950 . S
C305 C302 1.387 . S
C306 C307 1.387 . S
C306 H310 0.950 . S
C306 C315 1.390 . S
C307 C306 1.387 . S
C307 C309 1.387 . S
H308 C315 0.950 . S
C309 C307 1.387 . S
C309 C311 1.390 . S
C309 H313 0.950 . S
H310 C306 0.950 . S
C311 C309 1.390 . S
C311 C312 1.387 . S
C311 H314 0.950 . S
C312 C311 1.387 . S
C312 C315 1.387 . S
H313 C309 0.950 . S
H314 C311 0.950 . S
C315 C306 1.390 . S
C315 H308 0.950 . S
C315 C312 1.387 . S
C316 C317 1.387 . S
C316 H320 0.950 . S
C316 C325 1.390 . S
C317 C316 1.387 . S
C317 C319 1.387 . S
H318 C325 0.950 . S
C319 C317 1.387 . S
C319 C321 1.390 . S
C319 H323 0.950 . S
H320 C316 0.950 . S
C321 C319 1.390 . S
C321 C322 1.387 . S
C321 H324 0.950 . S
C322 C321 1.387 . S
C322 C325 1.387 . S
H323 C319 0.950 . S
H324 C321 0.950 . S
C325 C316 1.390 . S
C325 H318 0.950 . S
C325 C322 1.387 . S
C326 C327 1.387 . S
C326 H330 0.950 . S
C326 C335 1.390 . S
C327 C326 1.387 . S
C327 C329 1.387 . S
H328 C335 0.950 . S
C329 C327 1.387 . S
C329 C331 1.390 . S
C329 H333 0.950 . S
H330 C326 0.950 . S
C331 C329 1.390 . S
C331 C332 1.387 . S
C331 H334 0.950 . S
C332 C331 1.387 . S
C332 C335 1.387 . S
H333 C329 0.950 . S
H334 C331 0.950 . S
C335 C326 1.390 . S
C335 H328 0.950 . S
C335 C332 1.387 . S
C336 C337 1.387 . S
C336 H340 0.950 . S
C336 C345 1.390 1_545 S
C337 C336 1.387 . S
C337 C339 1.387 . S
H338 C345 0.950 . S
C339 C337 1.387 . S
C339 C341 1.390 1_545 S
C339 H343 0.950 . S
H340 C336 0.950 . S
C341 C339 1.390 1_565 S
C341 C342 1.387 . S
C341 H344 0.950 . S
C342 C341 1.387 . S
C342 C345 1.387 . S
H343 C339 0.950 . S
H344 C341 0.950 . S
C345 C336 1.390 1_565 S
C345 H338 0.950 . S
C345 C342 1.387 . S
C346 C347 1.387 . S
C346 H350 0.950 . S
C346 C355 1.390 . S
C347 C346 1.387 . S
C347 C349 1.387 . S
H348 C355 0.950 . S
C349 C347 1.387 . S
C349 C351 1.390 . S
C349 H353 0.950 . S
H350 C346 0.950 . S
C351 C349 1.390 . S
C351 C352 1.387 . S
C351 H354 0.950 . S
C352 C351 1.387 . S
C352 C355 1.387 . S
H353 C349 0.950 . S
H354 C351 0.950 . S
C355 C346 1.390 . S
C355 H348 0.950 . S
C355 C352 1.387 . S
C356 C357 1.387 . S
C356 H360 0.950 . S
C356 C365 1.390 1_455 S
C357 C356 1.387 . S
C357 C359 1.387 . S
H358 C365 0.950 . S
C359 C357 1.387 . S
C359 C361 1.390 1_455 S
C359 H363 0.950 . S
H360 C356 0.950 . S
C361 C359 1.390 1_655 S
C361 C362 1.387 . S
C361 H364 0.950 . S
C362 C361 1.387 . S
C362 C365 1.387 . S
H363 C359 0.950 . S
H364 C361 0.950 . S
C365 C356 1.390 1_655 S
C365 H358 0.950 . S
C365 C362 1.387 . S
C366 C367 1.387 . S
C366 H370 0.950 . S
C366 C375 1.390 1_565 S
C367 C366 1.387 . S
C367 C369 1.387 . S
H368 C375 0.950 . S
C369 C367 1.387 . S
C369 C371 1.390 1_565 S
C369 H373 0.950 . S
H370 C366 0.950 . S
C371 C369 1.390 1_545 S
C371 C372 1.387 . S
C371 H374 0.950 . S
C372 C371 1.387 . S
C372 C375 1.387 . S
H373 C369 0.950 . S
H374 C371 0.950 . S
C375 C366 1.390 1_545 S
C375 H368 0.950 . S
C375 C372 1.387 . S
C376 C377 1.387 . S
C376 H380 0.950 . S
C376 C385 1.390 . S
C377 C376 1.387 . S
C377 C379 1.387 . S
H378 C385 0.950 . S
C379 C377 1.387 . S
C379 C381 1.390 . S
C379 H383 0.950 . S
H380 C376 0.950 . S
C381 C379 1.390 . S
C381 C382 1.387 . S
C381 H384 0.950 . S
C382 C381 1.387 . S
C382 C385 1.387 . S
H383 C379 0.950 . S
H384 C381 0.950 . S
C385 C376 1.390 . S
C385 H378 0.950 . S
C385 C382 1.387 . S
C386 C387 1.387 . S
C386 H390 0.950 . S
C386 C395 1.390 1_455 S
C387 C386 1.387 . S
C387 C389 1.387 . S
H388 C395 0.950 . S
C389 C387 1.387 . S
C389 C391 1.390 1_455 S
C389 H393 0.950 . S
H390 C386 0.950 . S
C391 C389 1.390 1_655 S
C391 C392 1.387 . S
C391 H394 0.950 . S
C392 C391 1.387 . S
C392 C395 1.387 . S
H393 C389 0.950 . S
H394 C391 0.950 . S
C395 C386 1.390 1_655 S
C395 H388 0.950 . S
C395 C392 1.387 . S
C157 C3 1.240 . S
C162 C133 1.240 . S
C167 C16 1.240 . S
C172 C148 1.241 . S
C177 C83 1.240 . S
C182 C29 1.240 . S
C187 C42 1.240 . S
C192 C96 1.240 . S
C197 C109 1.240 . S
C202 C55 1.241 . S
C207 C122 1.240 . S
C212 C68 1.240 . S
C217 C107 1.399 . S
C222 C5 1.400 . S
C227 C18 1.399 . S
C232 C120 1.399 . S
C237 C135 1.399 . S
C242 C31 1.400 . S
C247 C44 1.399 . S
C252 C146 1.400 . S
C257 C57 1.400 . S
C262 C81 1.400 . S
C267 C70 1.400 . S
C272 C94 1.399 1_556 S
C277 C140 1.654 . S
C282 C10 1.654 . S
C287 C147 1.653 . S
C292 C23 1.654 . S
C297 C82 1.654 1_554 S
C302 C36 1.653 . S
C307 C49 1.654 . S
C312 C95 1.653 . S
C317 C62 1.654 . S
C322 C108 1.653 . S
C327 C121 1.654 . S
C332 C75 1.654 . S
C337 C4 1.474 . S
C342 C101 1.474 . S
C347 C114 1.474 . S
C352 C17 1.475 . S
C357 C127 1.474 . S
C362 C30 1.475 . S
C367 C43 1.475 . S
C372 C134 1.475 . S
C377 C56 1.474 . S
C382 C153 1.475 . S
C387 C69 1.474 . S
C392 C88 1.475 . S
