# Generated by pormake.
# Topology wjd, (6)-cn, num edge types: 1
# Building blocks:
#     Node 0, Type 0, BuildingBlock: KUMJIN_clean_sbu_0, # of connection points: 6
#     Node 1, Type 0, BuildingBlock: KUMJIN_clean_sbu_0, # of connection points: 6
#     Node 2, Type 0, BuildingBlock: KUMJIN_clean_sbu_0, # of connection points: 6
#     Node 3, Type 0, BuildingBlock: KUMJIN_clean_sbu_0, # of connection points: 6
#     Node 4, Type 0, BuildingBlock: KUMJIN_clean_sbu_0, # of connection points: 6
#     Node 5, Type 0, BuildingBlock: KUMJIN_clean_sbu_0, # of connection points: 6
#     Node 6, Type 0, BuildingBlock: KUMJIN_clean_sbu_0, # of connection points: 6
#     Node 7, Type 0, BuildingBlock: KUMJIN_clean_sbu_0, # of connection points: 6
#     Node 8, Type 0, BuildingBlock: KUMJIN_clean_sbu_0, # of connection points: 6
#     Node 9, Type 0, BuildingBlock: KUMJIN_clean_sbu_0, # of connection points: 6
#     Node 10, Type 0, BuildingBlock: KUMJIN_clean_sbu_0, # of connection points: 6
#     Node 11, Type 0, BuildingBlock: KUMJIN_clean_sbu_0, # of connection points: 6
#     Edge 12, Type (0, 0), BuildingBlock: XIVTED_clean_linker_0, # of connection points: 2
#     Edge 13, Type (0, 0), BuildingBlock: XIVTED_clean_linker_0, # of connection points: 2
#     Edge 14, Type (0, 0), BuildingBlock: XIVTED_clean_linker_0, # of connection points: 2
#     Edge 15, Type (0, 0), BuildingBlock: XIVTED_clean_linker_0, # of connection points: 2
#     Edge 16, Type (0, 0), BuildingBlock: XIVTED_clean_linker_0, # of connection points: 2
#     Edge 17, Type (0, 0), BuildingBlock: XIVTED_clean_linker_0, # of connection points: 2
#     Edge 18, Type (0, 0), BuildingBlock: XIVTED_clean_linker_0, # of connection points: 2
#     Edge 19, Type (0, 0), BuildingBlock: XIVTED_clean_linker_0, # of connection points: 2
#     Edge 20, Type (0, 0), BuildingBlock: XIVTED_clean_linker_0, # of connection points: 2
#     Edge 21, Type (0, 0), BuildingBlock: XIVTED_clean_linker_0, # of connection points: 2
#     Edge 22, Type (0, 0), BuildingBlock: XIVTED_clean_linker_0, # of connection points: 2
#     Edge 23, Type (0, 0), BuildingBlock: XIVTED_clean_linker_0, # of connection points: 2
#     Edge 24, Type (0, 0), BuildingBlock: XIVTED_clean_linker_0, # of connection points: 2
#     Edge 25, Type (0, 0), BuildingBlock: XIVTED_clean_linker_0, # of connection points: 2
#     Edge 26, Type (0, 0), BuildingBlock: XIVTED_clean_linker_0, # of connection points: 2
#     Edge 27, Type (0, 0), BuildingBlock: XIVTED_clean_linker_0, # of connection points: 2
#     Edge 28, Type (0, 0), BuildingBlock: XIVTED_clean_linker_0, # of connection points: 2
#     Edge 29, Type (0, 0), BuildingBlock: XIVTED_clean_linker_0, # of connection points: 2
#     Edge 30, Type (0, 0), BuildingBlock: XIVTED_clean_linker_0, # of connection points: 2
#     Edge 31, Type (0, 0), BuildingBlock: XIVTED_clean_linker_0, # of connection points: 2
#     Edge 32, Type (0, 0), BuildingBlock: XIVTED_clean_linker_0, # of connection points: 2
#     Edge 33, Type (0, 0), BuildingBlock: XIVTED_clean_linker_0, # of connection points: 2
#     Edge 34, Type (0, 0), BuildingBlock: XIVTED_clean_linker_0, # of connection points: 2
#     Edge 35, Type (0, 0), BuildingBlock: XIVTED_clean_linker_0, # of connection points: 2
#     Edge 36, Type (0, 0), BuildingBlock: XIVTED_clean_linker_0, # of connection points: 2
#     Edge 37, Type (0, 0), BuildingBlock: XIVTED_clean_linker_0, # of connection points: 2
#     Edge 38, Type (0, 0), BuildingBlock: XIVTED_clean_linker_0, # of connection points: 2
#     Edge 39, Type (0, 0), BuildingBlock: XIVTED_clean_linker_0, # of connection points: 2
#     Edge 40, Type (0, 0), BuildingBlock: XIVTED_clean_linker_0, # of connection points: 2
#     Edge 41, Type (0, 0), BuildingBlock: XIVTED_clean_linker_0, # of connection points: 2
#     Edge 42, Type (0, 0), BuildingBlock: XIVTED_clean_linker_0, # of connection points: 2
#     Edge 43, Type (0, 0), BuildingBlock: XIVTED_clean_linker_0, # of connection points: 2
#     Edge 44, Type (0, 0), BuildingBlock: XIVTED_clean_linker_0, # of connection points: 2
#     Edge 45, Type (0, 0), BuildingBlock: XIVTED_clean_linker_0, # of connection points: 2
#     Edge 46, Type (0, 0), BuildingBlock: XIVTED_clean_linker_0, # of connection points: 2
#     Edge 47, Type (0, 0), BuildingBlock: XIVTED_clean_linker_0, # of connection points: 2
# Relax obj value: 0.097
# Max RMSD: 0.214
# Mean RMSD: 0.214
data_MOF--net-wjd--node1-KUMJIN_clean_sbu_0--edge1-XIVTED_clean_linker_0
_symmetry_space_group_name_H-M    P1
_symmetry_Int_Tables_number       1
_symmetry_cell_setting            triclinic
loop_
_symmetry_equiv_pos_as_xyz
'x, y, z'
_cell_length_a     38.632525
_cell_length_b     38.645266
_cell_length_c     55.246177
_cell_angle_alpha  89.975503
_cell_angle_beta   90.075058
_cell_angle_gamma 120.13764
loop_
_atom_site_label
_atom_site_type_symbol
_atom_site_fract_x
_atom_site_fract_y
_atom_site_fract_z
_atom_type_partial_charge
Eu0 Eu 0.37387 0.19317 0.10726 0.0
C1 C 0.38084 0.07023 0.17439 0.0
C2 C 0.41867 0.04716 0.15124 0.0
C3 C 0.42726 0.05476 0.19483 0.0
C4 C 0.39129 0.06124 0.1522 0.0
C5 C 0.398 0.06608 0.19595 0.0
C6 C 0.43751 0.04523 0.17253 0.0
C7 C 0.35308 0.08049 0.21841 0.0
N8 N 0.35227 0.08087 0.17504 0.0
C9 C 0.33655 0.08374 0.19661 0.0
C10 C 0.38452 0.07247 0.21806 0.0
Eu11 Eu 0.33319 0.0944 0.13711 0.0
N12 N 0.37266 0.06347 0.13184 0.0
C13 C 0.37641 0.04735 0.11064 0.0
C14 C 0.42518 0.03396 0.12907 0.0
C15 C 0.40309 0.03299 0.10886 0.0
H16 H 0.31277 0.09072 0.19701 0.0
H17 H 0.4067 0.02131 0.09184 0.0
H18 H 0.45909 0.03514 0.17203 0.0
H19 H 0.34192 0.08476 0.23539 0.0
H20 H 0.35936 0.04542 0.09482 0.0
H21 H 0.30402 0.2747 0.14356 0.0
H22 H 0.44596 0.02296 0.12759 0.0
H23 H 0.39409 0.18558 0.04895 0.0
H24 H 0.34461 0.24175 0.14467 0.0
H25 H 0.3725 0.19355 0.00824 0.0
H26 H 0.44116 0.05197 0.2112 0.0
H27 H 0.27166 0.27682 0.10537 0.0
H28 H 0.2626 0.26332 0.06063 0.0
H29 H 0.39759 0.07029 0.23493 0.0
H30 H 0.28141 0.24127 0.02365 0.0
N31 N 0.33443 0.22433 0.10766 0.0
C32 C 0.33064 0.24246 0.12788 0.0
C33 C 0.28943 0.26228 0.10575 0.0
C34 C 0.29575 0.24611 0.0847 0.0
C35 C 0.30774 0.26126 0.12732 0.0
C36 C 0.31922 0.2276 0.0862 0.0
H37 H 0.32301 0.21593 0.00389 0.0
N38 N 0.35583 0.20153 0.06746 0.0
C39 C 0.36016 0.19964 0.02417 0.0
C40 C 0.33012 0.21563 0.06542 0.0
C41 C 0.3724 0.19528 0.04724 0.0
C42 C 0.3321 0.21213 0.0218 0.0
C43 C 0.31739 0.22118 0.04253 0.0
O44 O 0.43375 0.23541 0.09357 0.0
O45 O 0.38738 0.14713 0.1216 0.0
O46 O 0.37508 0.14146 0.16349 0.0
O47 O 0.37883 0.20024 0.14913 0.0
O48 O 0.41608 0.17519 0.09009 0.0
O49 O 0.40992 0.25323 0.12308 0.0
O50 O 0.29341 0.03054 0.14509 0.0
O51 O 0.32107 0.14275 0.12577 0.0
O52 O 0.32931 0.14247 0.0819 0.0
O53 O 0.33618 0.08982 0.09654 0.0
O54 O 0.29848 0.11638 0.15932 0.0
O55 O 0.27006 0.06311 0.12639 0.0
C56 C 0.41224 0.14918 0.10602 0.0
C57 C 0.45404 0.30432 0.09608 0.0
C58 C 0.50224 0.37683 0.0931 0.0
C59 C 0.48785 0.33949 0.10508 0.0
C60 C 0.4822 0.37755 0.07189 0.0
C61 C 0.43466 0.30684 0.07528 0.0
C62 C 0.44871 0.3431 0.06329 0.0
C63 C 0.38392 0.17898 0.16637 0.0
C64 C 0.43929 0.26473 0.10777 0.0
C65 C 0.29182 0.23712 0.04105 0.0
C66 C 0.28107 0.24964 0.06211 0.0
C67 C 0.30058 0.14246 0.1438 0.0
C68 C 0.23701 0.99377 0.11922 0.0
C69 C 0.19558 0.96994 0.12384 0.0
C70 C 0.1705 0.93793 0.10829 0.0
C71 C 0.18801 0.93019 0.08819 0.0
C72 C 0.25342 0.98553 0.09896 0.0
C73 C 0.22902 0.95382 0.0836 0.0
C74 C 0.32547 0.1064 0.07946 0.0
C75 C 0.26211 0.02859 0.13482 0.0
H76 H 0.50261 0.33766 0.12131 0.0
H77 H 0.49273 0.4047 0.06144 0.0
H78 H 0.40893 0.2806 0.06802 0.0
H79 H 0.43379 0.34444 0.04701 0.0
H80 H 0.18283 0.97703 0.1392 0.0
H81 H 0.1701 0.90556 0.07605 0.0
H82 H 0.28498 1.00378 0.09491 0.0
H83 H 0.24193 0.94759 0.068 0.0
Eu84 Eu 0.79284 0.70388 0.37332 0.0
C85 C 0.9246 0.70955 0.44104 0.0
C86 C 0.98642 0.74268 0.41838 0.0
C87 C 0.98789 0.74921 0.46215 0.0
C88 C 0.94425 0.71947 0.41912 0.0
C89 C 0.94629 0.72315 0.46288 0.0
C90 C 1.00797 0.75888 0.4399 0.0
C91 C 0.88544 0.6789 0.4844 0.0
N92 N 0.8848 0.68288 0.44105 0.0
C93 C 0.86548 0.66582 0.46223 0.0
C94 C 0.92589 0.7083 0.48476 0.0
Eu95 Eu 0.85186 0.66323 0.403 0.0
N96 N 0.92252 0.70249 0.39879 0.0
C97 C 0.94146 0.70435 0.37755 0.0
C98 C 1.00576 0.74696 0.39627 0.0
C99 C 0.9832 0.72697 0.37588 0.0
H100 H 0.83415 0.64309 0.46199 0.0
H101 H 0.99791 0.72913 0.35883 0.0
H102 H 0.04029 0.77739 0.43964 0.0
H103 H 0.86965 0.66623 0.50117 0.0
H104 H 0.92455 0.68904 0.36162 0.0
H105 H 0.64264 0.62351 0.41253 0.0
H106 H 0.03808 0.76444 0.39493 0.0
H107 H 0.81835 0.72757 0.31463 0.0
H108 H 0.71564 0.66834 0.41274 0.0
H109 H 0.78764 0.70485 0.2744 0.0
H110 H 1.00502 0.76042 0.47872 0.0
H111 H 0.60729 0.59359 0.37411 0.0
H112 H 0.61032 0.58865 0.3289 0.0
H113 H 0.94145 0.71801 0.50193 0.0
H114 H 0.64978 0.61073 0.29134 0.0
N115 N 0.72212 0.66377 0.37479 0.0
C116 C 0.70078 0.65588 0.39577 0.0
C117 C 0.63943 0.61351 0.37405 0.0
C118 C 0.66116 0.62348 0.35243 0.0
C119 C 0.65925 0.6304 0.39575 0.0
C120 C 0.70296 0.64953 0.35337 0.0
H121 H 0.71582 0.65334 0.27096 0.0
N122 N 0.76477 0.68908 0.33385 0.0
C123 C 0.76962 0.6928 0.29052 0.0
C124 C 0.72496 0.6625 0.33225 0.0
C125 C 0.78692 0.70567 0.3134 0.0
C126 C 0.72915 0.66381 0.28863 0.0
C127 C 0.70606 0.64902 0.3096 0.0
O128 O 0.82077 0.76773 0.36551 0.0
O129 O 0.85316 0.71705 0.38707 0.0
O130 O 0.84297 0.7036 0.43045 0.0
O131 O 0.78772 0.70464 0.41406 0.0
O132 O 0.85171 0.74187 0.35391 0.0
O133 O 0.76609 0.73914 0.38608 0.0
O134 O 0.84092 0.60645 0.41888 0.0
O135 O 0.79216 0.65071 0.38989 0.0
O136 O 0.79316 0.65787 0.34861 0.0
O137 O 0.85258 0.66115 0.36081 0.0
O138 O 0.79202 0.62086 0.42074 0.0
O139 O 0.86631 0.62275 0.38332 0.0
C140 C 0.87466 0.73955 0.37001 0.0
C141 C 0.78143 0.7981 0.36388 0.0
C142 C 0.78979 0.86498 0.35791 0.0
C143 C 0.79696 0.83808 0.37145 0.0
C144 C 0.76621 0.8503 0.33676 0.0
C145 C 0.75765 0.78439 0.34306 0.0
C146 C 0.75 0.8104 0.32966 0.0
C147 C 0.81355 0.71217 0.43176 0.0
C148 C 0.79376 0.77247 0.37649 0.0
C149 C 0.66477 0.62164 0.30858 0.0
C150 C 0.64232 0.60902 0.32996 0.0
C151 C 0.76951 0.62558 0.40546 0.0
C152 C 0.88754 0.58633 0.40762 0.0
C153 C 0.88211 0.54777 0.40292 0.0
C154 C 0.91203 0.53852 0.40976 0.0
C155 C 0.94751 0.56877 0.42043 0.0
C156 C 0.92295 0.61506 0.41885 0.0
C157 C 0.95279 0.60653 0.42495 0.0
C158 C 0.82422 0.65326 0.34435 0.0
C159 C 0.85697 0.59735 0.40104 0.0
H160 H 0.81492 0.84801 0.38775 0.0
H161 H 0.76082 0.86969 0.32518 0.0
H162 H 0.7458 0.75388 0.33689 0.0
H163 H 0.73211 0.79982 0.31334 0.0
H164 H 0.85461 0.52504 0.3946 0.0
H165 H 0.97137 0.56314 0.42544 0.0
H166 H 0.92757 0.64422 0.42302 0.0
H167 H 0.9801 0.62928 0.43342 0.0
Eu168 Eu 0.84926 0.19982 0.10425 0.0
C169 C 0.96078 0.30378 0.1757 0.0
C170 C 0.99097 0.36904 0.15676 0.0
C171 C 0.97263 0.36204 0.19922 0.0
C172 C 0.97572 0.32734 0.15527 0.0
C173 C 0.96072 0.32127 0.19815 0.0
C174 C 0.98777 0.38592 0.17854 0.0
C175 C 0.9443 0.259 0.21756 0.0
N176 N 0.95049 0.26475 0.17419 0.0
C177 C 0.94538 0.24327 0.19498 0.0
C178 C 0.95092 0.29786 0.21909 0.0
Eu179 Eu 0.94651 0.23897 0.13426 0.0
N180 N 0.97879 0.31021 0.13453 0.0
C181 C 1.00097 0.33383 0.11562 0.0
C182 C 1.01068 0.39281 0.13668 0.0
C183 C 1.0167 0.37525 0.1163 0.0
H184 H 0.94072 0.21327 0.19422 0.0
H185 H 0.03331 0.39358 0.10101 0.0
H186 H 0.9986 0.41771 0.17986 0.0
H187 H 0.93848 0.24115 0.23377 0.0
H188 H 1.00671 0.3213 0.09978 0.0
H189 H 0.76674 0.05525 0.14949 0.0
H190 H 1.02283 0.4249 0.13712 0.0
H191 H 0.84789 0.21813 0.04492 0.0
H192 H 0.80359 0.1288 0.14631 0.0
H193 H 0.83245 0.18177 0.00591 0.0
H194 H 0.97209 0.37578 0.21621 0.0
H195 H 0.75672 1.01391 0.11311 0.0
H196 H 0.76455 1.01054 0.0682 0.0
H197 H 0.95048 0.31017 0.23663 0.0
H198 H 0.78332 0.04526 0.02893 0.0
N199 N 0.81522 0.12936 0.10869 0.0
C200 C 0.79964 0.1112 0.13035 0.0
C201 C 0.77294 0.04623 0.11163 0.0
C202 C 0.78722 0.065 0.08926 0.0
C203 C 0.77846 0.06946 0.13218 0.0
C204 C 0.80799 0.1072 0.08831 0.0
H205 H 0.80788 0.10905 0.00549 0.0
N206 N 0.83495 0.16701 0.06607 0.0
C207 C 0.82888 0.16596 0.02273 0.0
C208 C 0.81863 0.1267 0.06629 0.0
C209 C 0.8377 0.18644 0.04479 0.0
C210 C 0.81515 0.12496 0.02257 0.0
C211 C 0.80871 0.10457 0.04454 0.0
O212 O 0.80998 0.22021 0.08903 0.0
O213 O 0.89928 0.2544 0.12251 0.0
O214 O 0.8965 0.19915 0.15967 0.0
O215 O 0.84422 0.2064 0.14545 0.0
O216 O 0.87802 0.2617 0.08912 0.0
O217 O 0.78954 0.18042 0.11934 0.0
O218 O 0.97614 0.21271 0.15462 0.0
O219 O 0.89018 0.18327 0.12273 0.0
O220 O 0.89798 0.21231 0.07512 0.0
O221 O 0.95815 0.25449 0.09486 0.0
O222 O 0.94314 0.18734 0.11254 0.0
O223 O 1.0097 0.25815 0.12781 0.0
C224 C 0.90244 0.27997 0.10673 0.0
C225 C 0.73988 0.17398 0.09141 0.0
C226 C 0.66682 0.147 0.08993 0.0
C227 C 0.70449 0.17056 0.10153 0.0
C228 C 0.66584 0.12796 0.06796 0.0
C229 C 0.737 0.15362 0.06984 0.0
C230 C 0.70044 0.13104 0.0582 0.0
C231 C 0.86291 0.19935 0.16322 0.0
C232 C 0.77975 0.19834 0.10314 0.0
C233 C 0.79065 0.06271 0.04544 0.0
C234 C 0.77989 0.04294 0.06778 0.0
C235 C 0.90494 0.16431 0.11259 0.0
C236 C 0.04692 0.24696 0.15822 0.0
C237 C 0.07455 0.2348 0.15173 0.0
C238 C 0.10816 0.2442 0.16649 0.0
C239 C 0.11322 0.26643 0.18781 0.0
C240 C 0.05336 0.26969 0.17919 0.0
C241 C 0.0864 0.27935 0.19386 0.0
C242 C 0.9376 0.237 0.07513 0.0
C243 C 1.01038 0.23344 0.14363 0.0
H244 H 0.70628 0.18575 0.11836 0.0
H245 H 0.63823 0.11093 0.05793 0.0
H246 H 0.76306 0.15535 0.06172 0.0
H247 H 0.69895 0.11601 0.04137 0.0
H248 H 0.0695 0.2179 0.13519 0.0
H249 H 0.13746 0.27337 0.20028 0.0
H250 H 0.03255 0.27939 0.1844 0.0
H251 H 0.09091 0.29642 0.21027 0.0
Eu252 Eu 0.32932 0.09277 0.37324 0.0
C253 C 0.33258 0.22017 0.44451 0.0
C254 C 0.3013 0.25307 0.4243 0.0
C255 C 0.2982 0.24694 0.46812 0.0
C256 C 0.32254 0.23218 0.42339 0.0
C257 C 0.3216 0.22853 0.46717 0.0
C258 C 0.28809 0.25924 0.4467 0.0
C259 C 0.3625 0.20529 0.48628 0.0
N260 N 0.35627 0.20365 0.44298 0.0
C261 C 0.37293 0.19801 0.4634 0.0
C262 C 0.33614 0.21996 0.4882 0.0
Eu263 Eu 0.37287 0.19216 0.40358 0.0
N264 N 0.33619 0.22621 0.40208 0.0
C265 C 0.3325 0.24324 0.38129 0.0
C266 C 0.29546 0.26861 0.4028 0.0
C267 C 0.31173 0.26425 0.38126 0.0
H268 H 0.3934 0.18673 0.46201 0.0
H269 H 0.30811 0.27685 0.36461 0.0
H270 H 0.2713 0.27474 0.44773 0.0
H271 H 0.37486 0.19968 0.5024 0.0
H272 H 0.34491 0.24003 0.36451 0.0
H273 H 0.40853 0.02003 0.40971 0.0
H274 H 0.27934 0.28485 0.40272 0.0
H275 H 0.30278 0.0959 0.31575 0.0
H276 H 0.36773 0.05232 0.41144 0.0
H277 H 0.31418 0.07817 0.27508 0.0
H278 H 0.2891 0.25321 0.48534 0.0
H279 H 0.43001 1.00732 0.37017 0.0
H280 H 0.42705 1.00913 0.32481 0.0
H281 H 0.32841 0.22596 0.50594 0.0
H282 H 0.40071 0.02418 0.28816 0.0
N283 N 0.36724 0.05983 0.37326 0.0
C284 C 0.37692 0.04734 0.39401 0.0
C285 C 0.41226 0.02186 0.37081 0.0
C286 C 0.4002 0.03246 0.34954 0.0
C287 C 0.4001 0.02887 0.39314 0.0
C288 C 0.37728 0.05152 0.35139 0.0
H289 H 0.35725 0.04824 0.26964 0.0
N290 N 0.33955 0.07705 0.33343 0.0
C291 C 0.32832 0.07321 0.29055 0.0
C292 C 0.36271 0.06012 0.33083 0.0
C293 C 0.32177 0.08308 0.31374 0.0
C294 C 0.35283 0.0566 0.28754 0.0
C295 C 0.37035 0.04978 0.30778 0.0
O296 O 0.2664 0.05425 0.36311 0.0
O297 O 0.31851 0.14097 0.38735 0.0
O298 O 0.32968 0.14237 0.43013 0.0
O299 O 0.33244 0.08837 0.41384 0.0
O300 O 0.29056 0.11413 0.35515 0.0
O301 O 0.29212 0.03516 0.39109 0.0
O302 O 0.43378 0.23278 0.41657 0.0
O303 O 0.3844 0.1451 0.38887 0.0
O304 O 0.37513 0.13842 0.3482 0.0
O305 O 0.37474 0.19579 0.36129 0.0
O306 O 0.41353 0.17265 0.4207 0.0
O307 O 0.41055 0.25157 0.38722 0.0
C308 C 0.29516 0.14034 0.37108 0.0
C309 C 0.23773 0.98462 0.3687 0.0
C310 C 0.17357 0.92304 0.36188 0.0
C311 C 0.19577 0.96203 0.37159 0.0
C312 C 0.1943 0.90698 0.34965 0.0
C313 C 0.25751 0.96795 0.35631 0.0
C314 C 0.23585 0.92926 0.34695 0.0
C315 C 0.3229 0.10494 0.43154 0.0
C316 C 0.26034 0.02583 0.37815 0.0
C317 C 0.39427 0.03206 0.30574 0.0
C318 C 0.40928 0.02353 0.32659 0.0
C319 C 0.40903 0.14662 0.40459 0.0
C320 C 0.45598 0.30214 0.41417 0.0
C321 C 0.48988 0.3371 0.40503 0.0
C322 C 0.50508 0.37446 0.41718 0.0
C323 C 0.48588 0.37541 0.43866 0.0
C324 C 0.43757 0.30501 0.4353 0.0
C325 C 0.45241 0.34123 0.44742 0.0
C326 C 0.38143 0.17493 0.34447 0.0
C327 C 0.44006 0.26236 0.40239 0.0
H328 H 0.18043 0.97515 0.38088 0.0
H329 H 0.17838 0.87699 0.34225 0.0
H330 H 0.28965 0.98488 0.35384 0.0
H331 H 0.25132 0.9165 0.33747 0.0
H332 H 0.50407 0.33515 0.3886 0.0
H333 H 0.49708 0.40256 0.4492 0.0
H334 H 0.41199 0.27905 0.44277 0.0
H335 H 0.43816 0.34272 0.46394 0.0
Eu336 Eu 0.84831 0.6664 0.10599 0.0
C337 C 0.7343 0.68469 0.18109 0.0
C338 C 0.66647 0.64221 0.16665 0.0
C339 C 0.67871 0.65741 0.20953 0.0
C340 C 0.70799 0.66543 0.16221 0.0
C341 C 0.71982 0.68158 0.20489 0.0
C342 C 0.6521 0.63762 0.19045 0.0
C343 C 0.78735 0.72803 0.21772 0.0
N344 N 0.77387 0.70803 0.17602 0.0
C345 C 0.80037 0.73005 0.19392 0.0
C346 C 0.74692 0.70377 0.22322 0.0
Eu347 Eu 0.79292 0.71101 0.13485 0.0
N348 N 0.72267 0.67127 0.13935 0.0
C349 C 0.69726 0.65727 0.12001 0.0
C350 C 0.64051 0.62545 0.14693 0.0
C351 C 0.65595 0.63352 0.12348 0.0
H352 H 0.8317 0.74922 0.19012 0.0
H353 H 0.63607 0.62166 0.10806 0.0
H354 H 0.62036 0.61972 0.19421 0.0
H355 H 0.80849 0.74552 0.23178 0.0
H356 H 0.70876 0.66394 0.10179 0.0
H357 H 0.99842 0.73974 0.14522 0.0
H358 H 0.60846 0.60735 0.14957 0.0
H359 H 0.82304 0.64239 0.04789 0.0
H360 H 0.92481 0.69945 0.14529 0.0
H361 H 0.85432 0.66136 0.00736 0.0
H362 H 0.66712 0.65443 0.22773 0.0
H363 H 0.03474 0.76853 0.10694 0.0
H364 H 0.03225 0.77483 0.06178 0.0
H365 H 0.7368 0.70323 0.24152 0.0
H366 H 0.99282 0.75387 0.02412 0.0
N367 N 0.91908 0.70626 0.10752 0.0
C368 C 0.94013 0.71188 0.12845 0.0
C369 C 1.00235 0.7509 0.10685 0.0
C370 C 0.98074 0.7432 0.08526 0.0
C371 C 0.98196 0.73464 0.12848 0.0
C372 C 0.93859 0.72012 0.08616 0.0
H373 H 0.92652 0.71086 0.00362 0.0
N374 N 0.87662 0.68207 0.06665 0.0
C375 C 0.87214 0.67483 0.02342 0.0
C376 C 0.91654 0.7079 0.06502 0.0
C377 C 0.85457 0.66409 0.04635 0.0
C378 C 0.91286 0.70293 0.02139 0.0
C379 C 0.93581 0.71912 0.04235 0.0
O380 O 0.83667 0.60837 0.09186 0.0
O381 O 0.78957 0.65461 0.12076 0.0
O382 O 0.7955 0.6696 0.1621 0.0
O383 O 0.85193 0.66798 0.14831 0.0
O384 O 0.78745 0.62223 0.09043 0.0
O385 O 0.8663 0.62905 0.12618 0.0
O386 O 0.82077 0.77612 0.136 0.0
O387 O 0.85112 0.72173 0.11951 0.0
O388 O 0.83883 0.70661 0.07853 0.0
O389 O 0.78122 0.70187 0.09465 0.0
O390 O 0.85493 0.75345 0.15029 0.0
O391 O 0.76205 0.74123 0.12038 0.0
C392 C 0.76606 0.62784 0.10606 0.0
C393 C 0.88509 0.59011 0.10241 0.0
C394 C 0.90959 0.54234 0.1006 0.0
C395 C 0.8802 0.55199 0.10791 0.0
C396 C 0.94412 0.57178 0.08872 0.0
C397 C 0.9194 0.61791 0.08989 0.0
C398 C 0.94883 0.60907 0.08338 0.0
C399 C 0.82553 0.66303 0.16556 0.0
C400 C 0.85509 0.60164 0.10947 0.0
C401 C 0.9775 0.74456 0.04137 0.0
C402 C 0.99996 0.75648 0.0628 0.0
C403 C 0.87546 0.7474 0.13426 0.0
C404 C 0.77871 0.80326 0.13886 0.0
C405 C 0.7942 0.84293 0.1308 0.0
C406 C 0.787 0.87018 0.14386 0.0
C407 C 0.76361 0.85629 0.16508 0.0
C408 C 0.75502 0.79027 0.15972 0.0
C409 C 0.74749 0.81668 0.1727 0.0
C410 C 0.80741 0.7121 0.07693 0.0
C411 C 0.79039 0.7769 0.12655 0.0
H412 H 0.85348 0.52987 0.11718 0.0
H413 H 0.96757 0.56581 0.08331 0.0
H414 H 0.92348 0.64656 0.08503 0.0
H415 H 0.97532 0.63116 0.07394 0.0
H416 H 0.81204 0.85236 0.11445 0.0
H417 H 0.75829 0.8761 0.17628 0.0
H418 H 0.74298 0.75996 0.16622 0.0
H419 H 0.72967 0.80663 0.18904 0.0
Eu420 Eu 0.94381 0.2365 0.37302 0.0
C421 C 0.81495 0.10882 0.43111 0.0
C422 C 0.78598 0.05226 0.40372 0.0
C423 C 0.79 0.04144 0.44667 0.0
C424 C 0.80534 0.09392 0.40784 0.0
C425 C 0.80587 0.08251 0.4509 0.0
C426 C 0.7799 0.0263 0.4231 0.0
C427 C 0.82089 0.13771 0.47761 0.0
N428 N 0.82827 0.14829 0.43458 0.0
C429 C 0.82842 0.16227 0.45741 0.0
C430 C 0.81044 0.09782 0.47436 0.0
Eu431 Eu 0.84296 0.18891 0.39925 0.0
N432 N 0.81132 0.11978 0.38954 0.0
C433 C 0.79571 0.10563 0.36711 0.0
C434 C 0.77161 0.0378 0.38048 0.0
C435 C 0.77592 0.06458 0.3622 0.0
H436 H 0.83608 0.19308 0.45999 0.0
H437 H 0.76406 0.05366 0.3443 0.0
H438 H 0.76588 0.99432 0.42018 0.0
H439 H 0.82276 0.14946 0.49565 0.0
H440 H 0.79797 0.12571 0.35291 0.0
H441 H 0.0462 0.37799 0.41903 0.0
H442 H 0.75628 1.00602 0.37663 0.0
H443 H 0.93553 0.23083 0.31071 0.0
H444 H 1.01615 0.30613 0.41036 0.0
H445 H 0.93113 0.27061 0.27759 0.0
H446 H 0.78344 0.02088 0.46161 0.0
H447 H 0.03319 0.421 0.39176 0.0
H448 H 1.00475 0.42815 0.35243 0.0
H449 H 0.80387 0.07861 0.49002 0.0
H450 H 0.97284 0.39845 0.31345 0.0
N451 N 0.98184 0.30696 0.3803 0.0
C452 C 1.00854 0.32402 0.39893 0.0
C453 C 1.01909 0.38919 0.3882 0.0
C454 C 0.99611 0.37246 0.36735 0.0
C455 C 0.02642 0.36502 0.40364 0.0
C456 C 0.97833 0.33081 0.36363 0.0
H457 H 0.94623 0.3399 0.28506 0.0
N458 N 0.94809 0.27498 0.33792 0.0
C459 C 0.93873 0.28312 0.29564 0.0
C460 C 0.96043 0.31414 0.34177 0.0
C461 C 0.94056 0.26034 0.31473 0.0
C462 C 0.94717 0.32212 0.29995 0.0
C463 C 0.95975 0.33866 0.32301 0.0
O464 O 0.98133 0.22988 0.34573 0.0
O465 O 0.8879 0.17764 0.38109 0.0
O466 O 0.89015 0.20175 0.4294 0.0
O467 O 0.94991 0.25129 0.4127 0.0
O468 O 0.94112 0.18326 0.39249 0.0
O469 O 0.99806 0.23609 0.38348 0.0
O470 O 0.79784 0.19761 0.41816 0.0
O471 O 0.89269 0.24622 0.38358 0.0
O472 O 0.89712 0.19705 0.34534 0.0
O473 O 0.84138 0.19937 0.35831 0.0
O474 O 0.86634 0.24995 0.41567 0.0
O475 O 0.78714 0.17698 0.38152 0.0
C476 C 0.90328 0.1589 0.39082 0.0
C477 C 0.05011 0.25431 0.3553 0.0
C478 C 0.11533 0.25788 0.35452 0.0
C479 C 0.07405 0.23699 0.35984 0.0
C480 C 0.13216 0.29661 0.34465 0.0
C481 C 0.06758 0.29296 0.34562 0.0
C482 C 0.10845 0.31392 0.3403 0.0
C483 C 0.9284 0.23026 0.4313 0.0
C484 C 1.00731 0.23168 0.36153 0.0
C485 C 0.97391 0.37938 0.32746 0.0
C486 C 0.99213 0.39629 0.34963 0.0
C487 C 0.89262 0.27022 0.3993 0.0
C488 C 0.73048 0.15239 0.40687 0.0
C489 C 0.69704 0.1574 0.40268 0.0
C490 C 0.65797 0.12662 0.40898 0.0
C491 C 0.65304 0.09074 0.41868 0.0
C492 C 0.72421 0.11643 0.41697 0.0
C493 C 0.68587 0.08578 0.42262 0.0
C494 C 0.8627 0.19541 0.34091 0.0
C495 C 0.77188 0.18387 0.40058 0.0
H496 H 0.06031 0.207 0.36726 0.0
H497 H 0.16383 0.31381 0.34058 0.0
H498 H 0.04969 0.30689 0.34229 0.0
H499 H 0.12189 0.34382 0.33284 0.0
H500 H 0.70147 0.18522 0.39513 0.0
H501 H 0.62356 0.06635 0.42334 0.0
H502 H 0.749 0.11196 0.42054 0.0
H503 H 0.68161 0.0581 0.43025 0.0
Eu504 Eu 0.09774 0.32301 0.6308 0.0
C505 C 0.22792 0.32528 0.56358 0.0
C506 C 0.25861 0.29243 0.58451 0.0
C507 C 0.25387 0.2895 0.54063 0.0
C508 C 0.23857 0.31453 0.58496 0.0
C509 C 0.23656 0.31392 0.54112 0.0
C510 C 0.26496 0.27883 0.5623 0.0
C511 C 0.21603 0.35654 0.5214 0.0
N512 N 0.21262 0.35007 0.56469 0.0
C513 C 0.20871 0.36753 0.54409 0.0
C514 C 0.2294 0.32909 0.51988 0.0
Eu515 Eu 0.19953 0.36631 0.60383 0.0
N516 N 0.23252 0.32864 0.60608 0.0
C517 C 0.24903 0.32488 0.62708 0.0
C518 C 0.27344 0.28641 0.60625 0.0
C519 C 0.2694 0.30349 0.62754 0.0
H520 H 0.19865 0.389 0.5452 0.0
H521 H 0.28166 0.29989 0.64435 0.0
H522 H 0.2798 0.26137 0.56163 0.0
H523 H 0.21163 0.36945 0.50512 0.0
H524 H 0.24594 0.33779 0.64369 0.0
H525 H 0.03553 0.40677 0.58654 0.0
H526 H 0.28911 0.26973 0.60668 0.0
H527 H 0.09239 0.29679 0.68892 0.0
H528 H 0.06642 0.36485 0.58843 0.0
H529 H 0.06975 0.30929 0.728 0.0
H530 H 0.26032 0.28009 0.52357 0.0
H531 H 1.01667 0.4277 0.6242 0.0
H532 H 1.01115 0.42413 0.6695 0.0
H533 H 0.23559 0.32103 0.50228 0.0
H534 H 1.01998 0.39726 0.70794 0.0
N535 N 0.06659 0.36246 0.62702 0.0
C536 C 0.05854 0.37348 0.60514 0.0
C537 C 0.03042 0.40925 0.62521 0.0
C538 C 0.03689 0.3963 0.64751 0.0
C539 C 0.04094 0.39743 0.60393 0.0
C540 C 0.05512 0.3725 0.64781 0.0
H541 H 0.04063 0.35359 0.72975 0.0
N542 N 0.07697 0.33412 0.66886 0.0
C543 C 0.06713 0.32331 0.71169 0.0
C544 C 0.06034 0.35773 0.6694 0.0
C545 C 0.07981 0.31619 0.6895 0.0
C546 C 0.0509 0.34843 0.71263 0.0
C547 C 0.04719 0.36589 0.69133 0.0
O548 O 0.05666 0.26125 0.64204 0.0
O549 O 0.14678 0.31202 0.61885 0.0
O550 O 0.1525 0.32336 0.57634 0.0
O551 O 0.09589 0.32423 0.58997 0.0
O552 O 0.1167 0.28314 0.65014 0.0
O553 O 0.04292 0.28496 0.6104 0.0
O554 O 0.2419 0.42704 0.59137 0.0
O555 O 0.15216 0.3787 0.61738 0.0
O556 O 0.1418 0.36587 0.65793 0.0
O557 O 0.20033 0.36657 0.64602 0.0
O558 O 0.18113 0.40729 0.58596 0.0
O559 O 0.25791 0.40303 0.62163 0.0
C560 C 0.14425 0.28791 0.63517 0.0
C561 C 0.98833 0.23277 0.6317 0.0
C562 C 0.92488 0.16969 0.63666 0.0
C563 C 0.96539 0.19073 0.62936 0.0
C564 C 0.90774 0.19163 0.64589 0.0
C565 C 0.97051 0.25377 0.64107 0.0
C566 C 0.93037 0.23326 0.648 0.0
C567 C 0.11518 0.31595 0.57343 0.0
C568 C 0.03096 0.25425 0.62479 0.0
C569 C 0.03001 0.39043 0.69124 0.0
C570 C 0.02498 0.40571 0.66937 0.0
C571 C 0.1549 0.40383 0.60165 0.0
C572 C 0.31067 0.44736 0.59559 0.0
C573 C 0.34564 0.48054 0.60534 0.0
C574 C 0.3836 0.49427 0.59429 0.0
C575 C 0.38526 0.47444 0.57328 0.0
C576 C 0.31414 0.42833 0.57492 0.0
C577 C 0.35101 0.44177 0.56388 0.0
C578 C 0.17814 0.37205 0.66244 0.0
C579 C 0.27035 0.43258 0.60636 0.0
H580 H 0.97932 0.17442 0.62241 0.0
H581 H 0.87664 0.17659 0.65139 0.0
H582 H 0.98765 0.28599 0.64306 0.0
H583 H 0.91675 0.24967 0.65516 0.0
H584 H 0.34326 0.49528 0.62139 0.0
H585 H 0.41309 0.48457 0.56363 0.0
H586 H 0.2882 0.4033 0.56699 0.0
H587 H 0.353 0.42701 0.54772 0.0
Eu588 Eu 0.19727 0.83765 0.90481 0.0
C589 C 0.3294 0.97896 0.84103 0.0
C590 C 0.39146 1.00202 0.86296 0.0
C591 C 0.39264 1.00953 0.81927 0.0
C592 C 0.34934 0.98383 0.86262 0.0
C593 C 0.35084 0.99237 0.81914 0.0
C594 C 0.41291 1.01426 0.84114 0.0
C595 C 0.28831 0.97268 0.79872 0.0
N596 N 0.28907 0.96231 0.84152 0.0
C597 C 0.2684 0.95989 0.82089 0.0
C598 C 0.32973 0.98882 0.79784 0.0
Eu599 Eu 0.25695 0.94043 0.87949 0.0
N600 N 0.32771 0.97191 0.88338 0.0
C601 C 0.34675 0.97942 0.90526 0.0
C602 C 0.41083 1.00802 0.88526 0.0
C603 C 0.38838 0.99702 0.90651 0.0
H604 H 0.23636 0.94734 0.82142 0.0
H605 H 0.4031 1.00205 0.92389 0.0
H606 H 0.44522 0.02805 0.84104 0.0
H607 H 0.27175 0.97017 0.78237 0.0
H608 H 0.3302 0.9712 0.92196 0.0
H609 H 0.05002 0.75838 0.86193 0.0
H610 H 0.4431 0.02172 0.88628 0.0
H611 H 0.21948 0.83827 0.96371 0.0
H612 H 0.12373 0.79458 0.86355 0.0
H613 H 0.18531 0.82279 1.00336 0.0
H614 H 0.4096 0.01976 0.80261 0.0
H615 H 1.01088 0.74684 0.89947 0.0
H616 H 1.01014 0.75284 0.94469 0.0
H617 H 0.34528 0.99918 0.78076 0.0
H618 H 0.04707 0.77101 0.98325 0.0
N619 N 0.12659 0.80437 0.90158 0.0
C620 C 0.10709 0.78979 0.88009 0.0
C621 C 0.04328 0.76273 0.90031 0.0
C622 C 0.06337 0.77602 0.92243 0.0
C623 C 0.06526 0.76912 0.87909 0.0
C624 C 0.10561 0.79656 0.92252 0.0
H625 H 0.11231 0.79651 0.00531 0.0
N626 N 0.16669 0.823 0.94359 0.0
C627 C 0.16841 0.81837 0.98688 0.0
C628 C 0.12634 0.80662 0.9442 0.0
C629 C 0.18763 0.82703 0.96443 0.0
C630 C 0.12723 0.80367 0.9879 0.0
C631 C 0.10549 0.79668 0.96639 0.0
O632 O 0.21556 0.7952 0.91692 0.0
O633 O 0.25753 0.88531 0.89188 0.0
O634 O 0.25613 0.89765 0.85166 0.0
O635 O 0.19771 0.83871 0.86257 0.0
O636 O 0.25646 0.85495 0.92286 0.0
O637 O 0.17559 0.77969 0.88657 0.0
O638 O 0.23485 0.98072 0.86952 0.0
O639 O 0.19661 0.89127 0.89096 0.0
O640 O 0.20032 0.88382 0.93261 0.0
O641 O 0.26 0.93924 0.92038 0.0
O642 O 0.1982 0.92221 0.86005 0.0
O643 O 0.2747 0.99528 0.90008 0.0
C644 C 0.27958 0.88169 0.90747 0.0
C645 C 0.16749 0.72644 0.91209 0.0
C646 C 0.14331 0.6539 0.91324 0.0
C647 C 0.16692 0.69216 0.90234 0.0
C648 C 0.12112 0.65131 0.93411 0.0
C649 C 0.14431 0.72201 0.93259 0.0
C650 C 0.12142 0.68487 0.94348 0.0
C651 C 0.22584 0.86165 0.8465 0.0
C652 C 0.19282 0.7671 0.90167 0.0
C653 C 0.06358 0.77848 0.96638 0.0
C654 C 0.04255 0.76811 0.94443 0.0
C655 C 0.17514 0.89433 0.8748 0.0
C656 C 0.27478 0.04916 0.87917 0.0
C657 C 0.2542 0.07065 0.88084 0.0
C658 C 0.2724 0.1109 0.87314 0.0
C659 C 0.31177 0.12923 0.86409 0.0
C660 C 0.31381 0.06811 0.86992 0.0
C661 C 0.33219 0.10799 0.86255 0.0
C662 C 0.23167 0.92003 0.93659 0.0
C663 C 0.25468 1.00671 0.88641 0.0
H664 H 0.18461 0.69532 0.88642 0.0
H665 H 0.10392 0.62333 0.94371 0.0
H666 H 0.14438 0.74744 0.94056 0.0
H667 H 0.10416 0.68216 0.95952 0.0
H668 H 0.22377 0.05573 0.88761 0.0
H669 H 0.32699 0.16021 0.85836 0.0
H670 H 0.32998 0.05203 0.86835 0.0
H671 H 0.36241 0.12252 0.85551 0.0
Eu672 Eu 0.71378 0.78759 0.63568 0.0
C673 C 0.70487 0.90254 0.55938 0.0
C674 C 0.7376 0.96907 0.57672 0.0
C675 C 0.73795 0.96082 0.53314 0.0
C676 C 0.71635 0.92708 0.57948 0.0
C677 C 0.7145 0.91914 0.53592 0.0
C678 C 0.74945 0.98576 0.55352 0.0
C679 C 0.67252 0.85273 0.51971 0.0
N680 N 0.68126 0.86254 0.5627 0.0
C681 C 0.6635 0.83776 0.54332 0.0
C682 C 0.69869 0.89353 0.51598 0.0
Eu683 Eu 0.66755 0.83916 0.60324 0.0
N684 N 0.70393 0.91 0.60158 0.0
C685 C 0.70855 0.93313 0.62137 0.0
C686 C 0.74467 0.99297 0.59722 0.0
C687 C 0.72935 0.97488 0.61956 0.0
H688 H 0.64326 0.80618 0.54611 0.0
H689 H 0.73379 0.99306 0.63544 0.0
H690 H 0.76624 0.01792 0.55107 0.0
H691 H 0.65926 0.83282 0.50443 0.0
H692 H 0.69697 0.91945 0.63876 0.0
H693 H 0.6367 0.63225 0.60467 0.0
H694 H 0.76083 0.02532 0.59588 0.0
H695 H 0.73887 0.82262 0.69266 0.0
H696 H 0.67841 0.70533 0.60062 0.0
H697 H 0.72062 0.7978 0.73442 0.0
H698 H 0.74604 0.97412 0.51528 0.0
H699 H 0.61153 0.60194 0.64491 0.0
H700 H 0.61004 0.61122 0.68988 0.0
H701 H 0.70537 0.90512 0.49767 0.0
H702 H 0.6329 0.65626 0.72517 0.0
N703 N 0.67669 0.71678 0.63815 0.0
C704 C 0.668 0.69269 0.61833 0.0
C705 C 0.63004 0.63413 0.64326 0.0
C706 C 0.64076 0.65884 0.66367 0.0
C707 C 0.64426 0.65112 0.62054 0.0
C708 C 0.66484 0.70056 0.66049 0.0
H709 H 0.67355 0.72598 0.74185 0.0
N710 N 0.70256 0.76541 0.67649 0.0
C711 C 0.7086 0.77715 0.71936 0.0
C712 C 0.67818 0.72568 0.6803 0.0
C713 C 0.71898 0.79108 0.69562 0.0
C714 C 0.68208 0.73658 0.7235 0.0
C715 C 0.66715 0.71012 0.70391 0.0
O716 O 0.77624 0.81226 0.64684 0.0
O717 O 0.72315 0.84515 0.61969 0.0
O718 O 0.7103 0.83143 0.57711 0.0
O719 O 0.71052 0.77709 0.59521 0.0
O720 O 0.75255 0.84937 0.65184 0.0
O721 O 0.75176 0.76748 0.6187 0.0
O722 O 0.60575 0.8173 0.59146 0.0
O723 O 0.65819 0.78236 0.61953 0.0
O724 O 0.66635 0.78733 0.65922 0.0
O725 O 0.66796 0.84508 0.64534 0.0
O726 O 0.62621 0.77668 0.58847 0.0
O727 O 0.63073 0.86202 0.61929 0.0
C728 C 0.74712 0.86946 0.63522 0.0
C729 C 0.80598 0.77217 0.64169 0.0
C730 C 0.87037 0.77535 0.64851 0.0
C731 C 0.84794 0.7917 0.6386 0.0
C732 C 0.84983 0.73882 0.66112 0.0
C733 C 0.78644 0.73601 0.65447 0.0
C734 C 0.80831 0.71939 0.66401 0.0
C735 C 0.71826 0.80153 0.57667 0.0
C736 C 0.78307 0.79023 0.63196 0.0
C737 C 0.6419 0.66877 0.70718 0.0
C738 C 0.62884 0.64315 0.68709 0.0
C739 C 0.63283 0.7571 0.60495 0.0
C740 C 0.58346 0.8645 0.59268 0.0
C741 C 0.55083 0.86727 0.60241 0.0
C742 C 0.53505 0.88856 0.58985 0.0
C743 C 0.55228 0.90596 0.56736 0.0
C744 C 0.59992 0.88314 0.57052 0.0
C745 C 0.58441 0.90351 0.55799 0.0
C746 C 0.66086 0.81804 0.66257 0.0
C747 C 0.60026 0.84181 0.60498 0.0
H748 H 0.86311 0.81995 0.629 0.0
H749 H 0.86589 0.72504 0.66868 0.0
H750 H 0.75433 0.7207 0.6571 0.0
H751 H 0.79302 0.69136 0.67378 0.0
H752 H 0.53812 0.85322 0.61962 0.0
H753 H 0.54053 0.92111 0.55655 0.0
H754 H 0.62452 0.88146 0.5626 0.0
H755 H 0.59715 0.9172 0.54071 0.0
Eu756 Eu 0.20596 0.37025 0.89969 0.0
C757 C 0.08287 0.36206 0.82286 0.0
C758 C 0.0549 0.40111 0.83885 0.0
C759 C 0.06338 0.39856 0.79542 0.0
C760 C 0.07167 0.37642 0.84247 0.0
C761 C 0.07863 0.37275 0.7991 0.0
C762 C 0.05139 0.41258 0.81525 0.0
C763 C 0.10263 0.32981 0.78425 0.0
N764 N 0.0975 0.33716 0.82703 0.0
C765 C 0.10591 0.31974 0.80812 0.0
C766 C 0.08957 0.35694 0.77974 0.0
Eu767 Eu 0.10741 0.32628 0.86815 0.0
N768 N 0.07574 0.36503 0.86503 0.0
C769 C 0.06075 0.37468 0.88461 0.0
C770 C 0.04143 0.41286 0.85902 0.0
C771 C 0.0438 0.39905 0.88196 0.0
H772 H 0.11662 0.29921 0.81127 0.0
H773 H 0.03281 0.40735 0.89763 0.0
H774 H 0.03891 0.43182 0.81213 0.0
H775 H 0.11067 0.31704 0.76937 0.0
H776 H 0.06252 0.36434 0.90246 0.0
H777 H 0.28778 0.30579 0.85587 0.0
H778 H 0.02839 0.43183 0.85702 0.0
H779 H 0.2059 0.38959 0.95852 0.0
H780 H 0.25298 0.34403 0.85818 0.0
H781 H 0.22011 0.36871 0.99791 0.0
H782 H 0.0601 0.40727 0.77729 0.0
H783 H 0.2958 0.27381 0.89254 0.0
H784 H 0.28708 0.26314 0.93744 0.0
H785 H 0.08777 0.36525 0.7613 0.0
H786 H 0.26822 0.28002 0.97633 0.0
N787 N 0.23893 0.33245 0.89571 0.0
C788 C 0.25546 0.32994 0.87437 0.0
C789 C 0.28012 0.29042 0.89369 0.0
C790 C 0.26562 0.29537 0.91582 0.0
C791 C 0.27567 0.30845 0.87297 0.0
C792 C 0.24539 0.3173 0.9163 0.0
H793 H 0.24419 0.32026 0.9991 0.0
N794 N 0.22008 0.35198 0.93787 0.0
C795 C 0.22426 0.35654 0.98124 0.0
C796 C 0.2353 0.32715 0.9381 0.0
C797 C 0.2163 0.36831 0.95895 0.0
C798 C 0.23765 0.32905 0.98184 0.0
C799 C 0.24432 0.31477 0.96009 0.0
O800 O 0.25324 0.42529 0.91669 0.0
O801 O 0.15831 0.38083 0.88519 0.0
O802 O 0.15425 0.37363 0.84444 0.0
O803 O 0.20988 0.37058 0.85759 0.0
O804 O 0.18693 0.41219 0.91602 0.0
O805 O 0.2579 0.41446 0.87907 0.0
O806 O 0.07118 0.26224 0.86084 0.0
O807 O 0.15401 0.31483 0.88474 0.0
O808 O 0.15521 0.33218 0.9271 0.0
O809 O 0.09929 0.32879 0.90843 0.0
O810 O 0.13004 0.28738 0.85187 0.0
O811 O 0.04508 0.29159 0.88056 0.0
C812 C 0.15988 0.40622 0.90025 0.0
C813 C 0.31878 0.45023 0.90071 0.0
C814 C 0.39031 0.50077 0.89836 0.0
C815 C 0.34955 0.4903 0.89683 0.0
C816 C 0.39966 0.47092 0.90386 0.0
C817 C 0.32939 0.42159 0.90689 0.0
C818 C 0.36942 0.43176 0.90829 0.0
C819 C 0.19018 0.37869 0.84077 0.0
C820 C 0.27583 0.43768 0.8975 0.0
C821 C 0.26153 0.29026 0.95965 0.0
C822 C 0.27228 0.28066 0.93751 0.0
C823 C 0.15432 0.2912 0.86902 0.0
C824 C 1.00163 0.23377 0.85742 0.0
C825 C 0.97585 0.19336 0.86378 0.0
C826 C 0.94214 0.16814 0.84932 0.0
C827 C 0.93511 0.18489 0.82846 0.0
C828 C 0.99326 0.24951 0.83689 0.0
C829 C 0.96011 0.22516 0.82256 0.0
C830 C 0.11703 0.32344 0.92734 0.0
C831 C 0.03902 0.2581 0.87105 0.0
H832 H 0.34191 0.51297 0.89238 0.0
H833 H 0.43057 0.47818 0.90531 0.0
H834 H 0.30678 0.39122 0.9106 0.0
H835 H 0.37702 0.40916 0.91291 0.0
H836 H 0.9825 0.18181 0.8799 0.0
H837 H 0.9108 0.16688 0.81618 0.0
H838 H 1.01283 0.28037 0.83166 0.0
H839 H 0.95417 0.23735 0.80647 0.0
Eu840 Eu 0.25184 0.94076 0.63766 0.0
C841 C 0.11962 0.81009 0.57197 0.0
C842 C 0.05886 0.78042 0.59569 0.0
C843 C 0.05509 0.78372 0.55193 0.0
C844 C 0.10104 0.80057 0.59422 0.0
C845 C 0.09681 0.80071 0.5505 0.0
C846 C 0.03611 0.77348 0.57452 0.0
C847 C 0.15727 0.81982 0.52791 0.0
N848 N 0.15967 0.82497 0.57126 0.0
C849 C 0.17838 0.828 0.54972 0.0
C850 C 0.11638 0.80677 0.52827 0.0
Eu851 Eu 0.1945 0.84043 0.60871 0.0
N852 N 0.12394 0.80717 0.61425 0.0
C853 C 0.10623 0.7906 0.6359 0.0
C854 C 0.04076 0.76601 0.61819 0.0
C855 C 0.06455 0.77036 0.63827 0.0
H856 H 0.21004 0.83808 0.54941 0.0
H857 H 0.05082 0.75822 0.65562 0.0
H858 H 1.00375 0.75871 0.57534 0.0
H859 H 0.17251 0.82347 0.51086 0.0
H860 H 0.12393 0.79316 0.65158 0.0
H861 H 0.40364 1.01042 0.6013 0.0
H862 H 1.00849 0.75032 0.62008 0.0
H863 H 0.22279 0.93845 0.6957 0.0
H864 H 0.33042 0.98083 0.59962 0.0
H865 H 0.25189 0.94992 0.73654 0.0
H866 H 0.03711 0.77676 0.53565 0.0
H867 H 0.43747 0.01901 0.64072 0.0
H868 H 0.43252 1.01383 0.68606 0.0
H869 H 0.09996 0.79998 0.51137 0.0
H870 H 0.39127 0.99757 0.72281 0.0
N871 N 0.3225 0.97169 0.63765 0.0
C872 C 0.34471 0.98441 0.61696 0.0
C873 C 0.40526 1.00599 0.6401 0.0
C874 C 0.38256 0.99498 0.66136 0.0
C875 C 0.38629 1.00127 0.61783 0.0
C876 C 0.34071 0.97809 0.65953 0.0
H877 H 0.32395 0.97362 0.74172 0.0
N878 N 0.27768 0.95477 0.6777 0.0
C879 C 0.27072 0.95554 0.72084 0.0
C880 C 0.31763 0.96944 0.68019 0.0
C881 C 0.25433 0.9491 0.69758 0.0
C882 C 0.3114 0.96891 0.72371 0.0
C883 C 0.33557 0.97672 0.70328 0.0
O884 O 0.22438 0.97729 0.64476 0.0
O885 O 0.19186 0.89265 0.62379 0.0
O886 O 0.20253 0.88917 0.58104 0.0
O887 O 0.25744 0.94641 0.59699 0.0
O888 O 0.1924 0.91945 0.65645 0.0
O889 O 0.27917 1.00259 0.62435 0.0
O890 O 0.20212 0.79311 0.5918 0.0
O891 O 0.25429 0.8887 0.62144 0.0
O892 O 0.25298 0.89567 0.66272 0.0
O893 O 0.19408 0.83854 0.65087 0.0
O894 O 0.25408 0.85955 0.59028 0.0
O895 O 0.1869 0.78866 0.62945 0.0
C896 C 0.16988 0.89356 0.64051 0.0
C897 C 0.26567 0.04706 0.64691 0.0
C898 C 0.26026 0.10711 0.65407 0.0
C899 C 0.25087 0.07255 0.64025 0.0
C900 C 0.28499 0.11517 0.67461 0.0
C901 C 0.29075 0.05654 0.66709 0.0
C902 C 0.30035 0.09044 0.6808 0.0
C903 C 0.23144 0.92745 0.57948 0.0
C904 C 0.25205 1.00901 0.63394 0.0
C905 C 0.377 0.99203 0.70522 0.0
C906 C 0.40047 1.00122 0.6843 0.0
C907 C 0.27682 0.88686 0.60549 0.0
C908 C 0.16155 0.72759 0.60797 0.0
C909 C 0.17097 0.69688 0.61153 0.0
C910 C 0.14058 0.65604 0.61008 0.0
C911 C 0.10117 0.64661 0.60498 0.0
C912 C 0.12205 0.71682 0.60218 0.0
C913 C 0.09212 0.67677 0.60087 0.0
C914 C 0.2225 0.85965 0.66717 0.0
C915 C 0.19204 0.77064 0.61106 0.0
H916 H 0.2319 0.06507 0.62442 0.0
H917 H 0.29199 0.14014 0.68644 0.0
H918 H 0.30225 0.03729 0.67252 0.0
H919 H 0.31923 0.09722 0.69663 0.0
H920 H 0.20146 0.70462 0.61565 0.0
H921 H 0.07743 0.6157 0.60358 0.0
H922 H 0.11415 0.73935 0.59871 0.0
H923 H 0.06174 0.66906 0.59655 0.0
Eu924 Eu 0.68073 0.8504 0.89933 0.0
C925 C 0.6856 0.71617 0.8356 0.0
C926 C 0.64671 0.65486 0.85822 0.0
C927 C 0.65186 0.65227 0.81452 0.0
C928 C 0.67098 0.69692 0.85743 0.0
C929 C 0.67688 0.69401 0.81394 0.0
C930 C 0.63668 0.63274 0.83662 0.0
C931 C 0.71999 0.75575 0.79285 0.0
N932 N 0.70971 0.75647 0.83564 0.0
C933 C 0.7277 0.77641 0.81478 0.0
C934 C 0.69433 0.71436 0.79241 0.0
Eu935 Eu 0.72207 0.78962 0.87337 0.0
N936 N 0.68165 0.71915 0.87798 0.0
C937 C 0.67087 0.7008 0.90007 0.0
C938 C 0.63396 0.63619 0.88074 0.0
C939 C 0.64645 0.65926 0.90177 0.0
H940 H 0.74761 0.8084 0.815 0.0
H941 H 0.63727 0.64508 0.91932 0.0
H942 H 0.6179 0.60045 0.83687 0.0
H943 H 0.73399 0.77172 0.77634 0.0
H944 H 0.68003 0.71792 0.91658 0.0
H945 H 0.74304 0.99239 0.85062 0.0
H946 H 0.61515 0.604 0.88212 0.0
H947 H 0.66129 0.83734 0.9587 0.0
H948 H 0.70459 0.9194 0.85558 0.0
H949 H 0.68449 0.87611 0.99678 0.0
H950 H 0.64459 0.63477 0.79804 0.0
H951 H 0.77811 0.03583 0.88565 0.0
H952 H 0.79161 0.04203 0.93036 0.0
H953 H 0.68882 0.69823 0.77551 0.0
H954 H 0.77571 1.01009 0.97049 0.0
N955 N 0.71894 0.92066 0.89293 0.0
C956 C 0.72002 0.93765 0.87103 0.0
C957 C 0.76142 1.00364 0.88794 0.0
C958 C 0.75783 0.98628 0.91069 0.0
C959 C 0.74159 0.97923 0.86815 0.0
C960 C 0.73545 0.94419 0.9127 0.0
H961 H 0.7349 0.9483 0.99549 0.0
N962 N 0.69998 0.88653 0.93637 0.0
C963 C 0.69662 0.89062 0.97961 0.0
C964 C 0.72588 0.92642 0.9352 0.0
C965 C 0.68353 0.8688 0.95806 0.0
C966 C 0.72522 0.93129 0.97881 0.0
C967 C 0.73935 0.94996 0.95638 0.0
O968 O 0.62501 0.8424 0.91532 0.0
O969 O 0.66742 0.78965 0.88732 0.0
O970 O 0.67905 0.78998 0.84607 0.0
O971 O 0.68004 0.8489 0.85716 0.0
O972 O 0.63973 0.79218 0.91856 0.0
O973 O 0.63796 0.85933 0.878 0.0
O974 O 0.78406 0.81134 0.86235 0.0
O975 O 0.73479 0.85048 0.88523 0.0
O976 O 0.72054 0.84369 0.92822 0.0
O977 O 0.72299 0.78801 0.91416 0.0
O978 O 0.76175 0.84773 0.85339 0.0
O979 O 0.75909 0.77006 0.89225 0.0
C980 C 0.64258 0.76834 0.90346 0.0
C981 C 0.60112 0.8837 0.89907 0.0
C982 C 0.54986 0.90371 0.89776 0.0
C983 C 0.5606 0.87363 0.89638 0.0
C984 C 0.57995 0.94346 0.90199 0.0
C985 C 0.63005 0.92357 0.90393 0.0
C986 C 0.6196 0.95317 0.90525 0.0
C987 C 0.67369 0.82045 0.84109 0.0
C988 C 0.61378 0.8534 0.89597 0.0
C989 C 0.76465 0.99155 0.95444 0.0
C990 C 0.77375 1.00972 0.9316 0.0
C991 C 0.75846 0.87128 0.86848 0.0
C992 C 0.81209 0.77049 0.87025 0.0
C993 C 0.85408 0.7898 0.87284 0.0
C994 C 0.8756 0.77171 0.86418 0.0
C995 C 0.85418 0.73371 0.85329 0.0
C996 C 0.79156 0.73275 0.85924 0.0
C997 C 0.81256 0.71445 0.85092 0.0
C998 C 0.72924 0.81462 0.93104 0.0
C999 C 0.79033 0.79056 0.8785 0.0
H1000 H 0.53777 0.84289 0.89291 0.0
H1001 H 0.57258 0.967 0.90332 0.0
H1002 H 0.66087 0.93201 0.90662 0.0
H1003 H 0.64239 0.98385 0.90886 0.0
H1004 H 0.86999 0.81923 0.88105 0.0
H1005 H 0.86962 0.71869 0.8467 0.0
H1006 H 0.75936 0.71754 0.85704 0.0
H1007 H 0.79654 0.68525 0.84248 0.0
H1008 H 0.09521 0.17707 0.1402 0.0
H1009 H 0.28895 0.17776 0.18273 0.0
H1010 H 0.18866 0.27913 0.17833 0.0
H1011 H 0.24954 0.14309 0.10921 0.0
H1012 H 0.24279 0.20375 0.18647 0.0
H1013 H 0.14268 0.15394 0.13246 0.0
C1014 C 0.12552 0.195 0.14682 0.0
C1015 C 0.13723 0.2302 0.16032 0.0
C1016 C 0.24443 0.19067 0.16948 0.0
C1017 C 0.19128 0.20247 0.15215 0.0
C1018 C 0.27079 0.17601 0.16732 0.0
C1019 C 0.27408 0.15973 0.14536 0.0
C1020 C 0.21973 0.18733 0.14991 0.0
C1021 C 0.2487 0.15661 0.12619 0.0
C1022 C 0.15253 0.18144 0.14245 0.0
C1023 C 0.17719 0.2512 0.16862 0.0
N1024 N 0.2223 0.17008 0.12894 0.0
N1025 N 0.20237 0.23673 0.16475 0.0
H1026 H 0.12551 0.91267 0.40149 0.0
H1027 H 0.923 0.76069 0.33113 0.0
H1028 H 0.11965 0.87857 0.32662 0.0
H1029 H 0.92492 0.78418 0.40745 0.0
H1030 H 0.99479 0.8081 0.32912 0.0
H1031 H 0.05228 0.86996 0.40415 0.0
C1032 C 0.10886 0.89654 0.38557 0.0
C1033 C 0.12894 0.89909 0.36383 0.0
C1034 C 0.97978 0.80294 0.34639 0.0
C1035 C 0.04513 0.85023 0.36674 0.0
C1036 C 0.93878 0.77573 0.34754 0.0
C1037 C 0.91845 0.7673 0.36967 0.0
C1038 C 1.00081 0.82272 0.36749 0.0
C1039 C 0.93994 0.78873 0.39022 0.0
C1040 C 0.06708 0.87202 0.38714 0.0
C1041 C 0.10572 0.87717 0.34386 0.0
N1042 N 0.98008 0.81529 0.38869 0.0
N1043 N 0.06532 0.85381 0.34582 0.0
H1044 H 0.87462 0.1213 0.15364 0.0
H1045 H 0.85758 0.91858 0.11861 0.0
H1046 H 0.9012 0.10943 0.07948 0.0
H1047 H 0.75691 0.92095 0.15104 0.0
H1048 H 0.88686 0.98966 0.10869 0.0
H1049 H 0.8464 0.04921 0.15928 0.0
C1050 C 0.87417 0.10337 0.13849 0.0
C1051 C 0.8884 0.12083 0.11577 0.0
C1052 C 0.85828 0.97423 0.11789 0.0
C1053 C 0.85794 0.03885 0.12238 0.0
C1054 C 0.84124 0.9335 0.12349 0.0
C1055 C 0.8046 0.91309 0.13611 0.0
C1056 C 0.83922 0.99505 0.1255 0.0
C1057 C 0.78571 0.93505 0.14215 0.0
C1058 C 0.85833 0.0624 0.14176 0.0
C1059 C 0.88919 0.09666 0.09705 0.0
N1060 N 0.80353 0.9748 0.13719 0.0
N1061 N 0.87389 0.05662 0.1007 0.0
H1062 H 0.25439 0.1486 0.40946 0.0
H1063 H 0.114 0.2125 0.3935 0.0
H1064 H 0.27505 0.17023 0.33294 0.0
H1065 H 0.17466 0.26076 0.32575 0.0
H1066 H 0.1557 0.18236 0.40013 0.0
H1067 H 0.20898 0.17572 0.40808 0.0
C1068 C 0.24944 0.15933 0.39242 0.0
C1069 C 0.26931 0.15838 0.37142 0.0
C1070 C 0.16045 0.19997 0.38397 0.0
C1071 C 0.21619 0.18798 0.3693 0.0
C1072 C 0.13615 0.21683 0.38001 0.0
C1073 C 0.14078 0.23942 0.35905 0.0
C1074 C 0.18967 0.20557 0.36678 0.0
C1075 C 0.17027 0.24417 0.34235 0.0
C1076 C 0.22298 0.17425 0.39149 0.0
C1077 C 0.26093 0.1713 0.34962 0.0
N1078 N 0.19331 0.22731 0.34653 0.0
N1079 N 0.23547 0.18596 0.34919 0.0
H1080 H 0.1306 0.91099 0.1518 0.0
H1081 H 0.91251 0.78207 0.0913 0.0
H1082 H 0.10905 0.90679 0.0749 0.0
H1083 H 0.93471 0.78271 0.16774 0.0
H1084 H 0.98361 0.8315 0.08517 0.0
H1085 H 0.05859 0.8676 0.15826 0.0
C1086 C 0.11081 0.90131 0.13626 0.0
C1087 C 0.12631 0.91264 0.11274 0.0
C1088 C 0.97303 0.82086 0.10331 0.0
C1089 C 0.04334 0.86237 0.12004 0.0
C1090 C 0.93251 0.79243 0.10675 0.0
C1091 C 0.9182 0.77714 0.12992 0.0
C1092 C 0.9994 0.83432 0.12322 0.0
C1093 C 0.94491 0.79292 0.14949 0.0
C1094 C 0.0696 0.87627 0.13997 0.0
C1095 C 0.09886 0.89847 0.09335 0.0
N1096 N 0.98425 0.82018 0.14568 0.0
N1097 N 0.05895 0.87414 0.09743 0.0
H1098 H 0.85995 0.91395 0.38367 0.0
H1099 H 0.87212 0.11676 0.34936 0.0
H1100 H 0.76068 0.91632 0.34898 0.0
H1101 H 0.90414 0.10409 0.42217 0.0
H1102 H 0.84624 0.04525 0.34255 0.0
H1103 H 0.88904 0.98513 0.39319 0.0
C1104 C 0.84388 0.92887 0.37815 0.0
C1105 C 0.80761 0.90829 0.36511 0.0
C1106 C 0.85889 0.05812 0.36003 0.0
C1107 C 0.8422 0.9906 0.37522 0.0
C1108 C 0.87339 0.09879 0.36398 0.0
C1109 C 0.88851 0.11583 0.3867 0.0
C1110 C 0.86036 0.0344 0.37875 0.0
C1111 C 0.89146 0.09164 0.40463 0.0
C1112 C 0.86087 0.96972 0.38351 0.0
C1113 C 0.78919 0.9304 0.35824 0.0
N1114 N 0.87719 0.0519 0.40037 0.0
N1115 N 0.80694 0.97023 0.36303 0.0
H1116 H 0.18935 0.08884 0.63013 0.0
H1117 H 0.1768 0.27302 0.67425 0.0
H1118 H 0.29301 0.18809 0.66354 0.0
H1119 H 0.15107 0.24301 0.59876 0.0
H1120 H 0.2051 0.22862 0.67684 0.0
H1121 H 0.16183 0.13299 0.6231 0.0
C1122 C 0.2067 0.11972 0.63586 0.0
C1123 C 0.24365 0.13406 0.64792 0.0
C1124 C 0.19331 0.23185 0.65972 0.0
C1125 C 0.21101 0.18417 0.64063 0.0
C1126 C 0.17732 0.25716 0.65821 0.0
C1127 C 0.16306 0.26275 0.63606 0.0
C1128 C 0.19337 0.21051 0.63921 0.0
C1129 C 0.16311 0.24048 0.61596 0.0
C1130 C 0.19065 0.14479 0.6319 0.0
C1131 C 0.26387 0.17462 0.65507 0.0
N1132 N 0.17792 0.21508 0.61801 0.0
N1133 N 0.247 0.19785 0.65173 0.0
H1134 H 0.12451 0.88297 0.91287 0.0
H1135 H 0.92836 0.77763 0.8292 0.0
H1136 H 0.12666 0.86894 0.83565 0.0
H1137 H 0.92479 0.81275 0.90282 0.0
H1138 H 1.00092 0.80867 0.83224 0.0
H1139 H 0.05161 0.85604 0.91064 0.0
C1140 C 0.10948 0.87381 0.89552 0.0
C1141 C 0.13119 0.87677 0.8745 0.0
C1142 C 0.98442 0.80981 0.84775 0.0
C1143 C 0.04834 0.84677 0.8717 0.0
C1144 C 0.94284 0.79184 0.84607 0.0
C1145 C 0.92025 0.79235 0.86582 0.0
C1146 C 1.00399 0.8284 0.86943 0.0
C1147 C 0.94096 0.81183 0.88708 0.0
C1148 C 0.06804 0.85886 0.89419 0.0
C1149 C 0.11076 0.86612 0.85233 0.0
N1150 N 0.98159 0.82882 0.88839 0.0
N1151 N 0.07052 0.85113 0.85155 0.0
H1152 H 0.76538 0.9207 0.67235 0.0
H1153 H 0.91897 0.11894 0.5995 0.0
H1154 H 0.78792 0.91791 0.59626 0.0
H1155 H 0.87481 0.1184 0.67122 0.0
H1156 H 0.87587 0.04559 0.59804 0.0
H1157 H 0.80991 0.9931 0.67243 0.0
C1158 C 0.77947 0.93557 0.65556 0.0
C1159 C 0.77181 0.91359 0.6341 0.0
C1160 C 0.87571 0.06161 0.61407 0.0
C1161 C 0.8242 0.99673 0.63411 0.0
C1162 C 0.90047 0.10343 0.61498 0.0
C1163 C 0.90044 0.12501 0.63548 0.0
C1164 C 0.85117 0.04115 0.63395 0.0
C1165 C 0.87555 0.10327 0.65492 0.0
C1166 C 0.80504 0.97693 0.6556 0.0
C1167 C 0.792 0.93408 0.613 0.0
N1168 N 0.85215 0.06279 0.65367 0.0
N1169 N 0.81725 0.9746 0.6135 0.0
H1170 H 0.1578 0.25287 0.9103 0.0
H1171 H 0.22354 0.11227 0.9092 0.0
H1172 H 0.18102 0.26218 0.83367 0.0
H1173 H 0.27135 0.16186 0.83896 0.0
H1174 H 0.19044 0.15213 0.91046 0.0
H1175 H 0.18213 0.20534 0.91351 0.0
C1176 C 0.16811 0.24483 0.89417 0.0
C1177 C 0.16881 0.26246 0.87184 0.0
C1178 C 0.20848 0.15475 0.89486 0.0
C1179 C 0.19541 0.20695 0.87502 0.0
C1180 C 0.22705 0.1315 0.89402 0.0
C1181 C 0.25068 0.13388 0.87405 0.0
C1182 C 0.21337 0.18054 0.87549 0.0
C1183 C 0.25414 0.15948 0.85496 0.0
C1184 C 0.1815 0.21718 0.89589 0.0
C1185 C 0.18099 0.25 0.85134 0.0
N1186 N 0.23575 0.18162 0.85617 0.0
N1187 N 0.19436 0.2236 0.85348 0.0
H1188 H 0.12142 0.8667 0.67935 0.0
H1189 H 0.91822 0.81229 0.60859 0.0
H1190 H 0.1192 0.88534 0.60264 0.0
H1191 H 0.92464 0.78595 0.68378 0.0
H1192 H 0.99147 0.84293 0.60579 0.0
H1193 H 0.04949 0.84133 0.68117 0.0
C1194 C 0.10556 0.86512 0.66281 0.0
C1195 C 0.12592 0.87659 0.64067 0.0
C1196 C 0.97678 0.83056 0.6229 0.0
C1197 C 0.04328 0.84841 0.64261 0.0
C1198 C 0.93499 0.81324 0.62455 0.0
C1199 C 0.91504 0.79621 0.64643 0.0
C1200 C 0.99889 0.8313 0.64336 0.0
C1201 C 0.93843 0.79808 0.66643 0.0
C1202 C 0.06445 0.85073 0.66385 0.0
C1203 C 0.10422 0.87529 0.61992 0.0
N1204 N 0.97883 0.81517 0.6644 0.0
N1205 N 0.06397 0.86117 0.62135 0.0
H1206 H 0.95959 0.11577 0.87414 0.0
H1207 H 0.77571 0.918 0.8289 0.0
H1208 H 0.86177 0.11928 0.83825 0.0
H1209 H 0.80389 0.92335 0.90477 0.0
H1210 H 0.82139 0.99059 0.82593 0.0
H1211 H 0.9153 0.04396 0.881 0.0
C1212 C 0.92899 0.10202 0.86783 0.0
C1213 C 0.91509 0.12443 0.85518 0.0
C1214 C 0.81753 0.97581 0.84321 0.0
C1215 C 0.86492 0.04152 0.86225 0.0
C1216 C 0.7915 0.93459 0.84493 0.0
C1217 C 0.78492 0.91516 0.86731 0.0
C1218 C 0.83849 0.99751 0.86377 0.0
C1219 C 0.80713 0.93767 0.88741 0.0
C1220 C 0.90386 0.06082 0.87168 0.0
C1221 C 0.87492 0.10378 0.84724 0.0
N1222 N 0.83313 0.97782 0.88518 0.0
N1223 N 0.85166 0.06361 0.85052 0.0
H1224 H 0.4305 0.16369 0.31487 0.0
H1225 H 0.35993 0.22351 0.19343 0.0
H1226 H 0.35687 0.21826 0.31648 0.0
H1227 H 0.43231 0.16769 0.19669 0.0
H1228 H 0.36604 0.23226 0.2378 0.0
H1229 H 0.4392 0.17524 0.27151 0.0
C1230 C 0.41683 0.17898 0.3061 0.0
C1231 C 0.39306 0.19017 0.31937 0.0
C1232 C 0.38123 0.21885 0.2287 0.0
C1233 C 0.40205 0.20275 0.26909 0.0
C1234 C 0.37803 0.21418 0.20337 0.0
C1235 C 0.39546 0.19464 0.19139 0.0
C1236 C 0.40226 0.20411 0.24198 0.0
C1237 C 0.41827 0.18279 0.20517 0.0
C1238 C 0.42162 0.18542 0.28122 0.0
C1239 C 0.37583 0.2096 0.30697 0.0
N1240 N 0.42065 0.18736 0.22959 0.0
N1241 N 0.38017 0.21477 0.28242 0.0
H1242 H 0.76525 0.60245 0.31425 0.0
H1243 H 0.89453 0.68774 0.19269 0.0
H1244 H 0.89241 0.68467 0.31605 0.0
H1245 H 0.76596 0.61576 0.19627 0.0
H1246 H 0.89767 0.67904 0.23684 0.0
H1247 H 0.76836 0.59821 0.27045 0.0
C1248 C 0.79411 0.61889 0.30541 0.0
C1249 C 0.82862 0.64382 0.31887 0.0
C1250 C 0.86889 0.66461 0.22782 0.0
C1251 C 0.8324 0.6401 0.26818 0.0
C1252 C 0.86713 0.66924 0.20261 0.0
C1253 C 0.82994 0.6523 0.19077 0.0
C1254 C 0.83319 0.64263 0.2411 0.0
C1255 C 0.7953 0.62935 0.2046 0.0
C1256 C 0.79587 0.61673 0.28029 0.0
C1257 C 0.86515 0.66476 0.30638 0.0
N1258 N 0.79779 0.62541 0.22886 0.0
N1259 N 0.86603 0.66291 0.28166 0.0
H1260 H 0.85258 0.13762 0.19111 0.0
H1261 H 0.82959 0.23237 0.31483 0.0
H1262 H 0.83881 0.24148 0.19208 0.0
H1263 H 0.8652 0.14343 0.30914 0.0
H1264 H 0.81885 0.22832 0.27061 0.0
H1265 H 0.84189 0.13071 0.23467 0.0
C1266 C 0.84626 0.15842 0.2005 0.0
C1267 C 0.84634 0.19 0.188 0.0
C1268 C 0.82825 0.20917 0.27916 0.0
C1269 C 0.83536 0.18319 0.23828 0.0
C1270 C 0.83398 0.21118 0.30437 0.0
C1271 C 0.8482 0.18811 0.31558 0.0
C1272 C 0.83628 0.18345 0.26529 0.0
C1273 C 0.85427 0.16176 0.30121 0.0
C1274 C 0.84048 0.1547 0.22545 0.0
C1275 C 0.83837 0.21637 0.20107 0.0
N1276 N 0.84845 0.16029 0.27691 0.0
N1277 N 0.83378 0.21277 0.22564 0.0
H1278 H 0.16055 0.41499 0.69369 0.0
H1279 H 0.22571 0.34624 0.81257 0.0
H1280 H 0.22573 0.3516 0.68938 0.0
H1281 H 0.18491 0.43152 0.81123 0.0
H1282 H 0.23174 0.35081 0.76806 0.0
H1283 H 0.17357 0.42372 0.73692 0.0
C1284 C 0.17828 0.40345 0.70182 0.0
C1285 C 0.19217 0.38263 0.68784 0.0
C1286 C 0.22247 0.36927 0.77761 0.0
C1287 C 0.20685 0.39202 0.7379 0.0
C1288 C 0.21948 0.367 0.80301 0.0
C1289 C 0.20497 0.3887 0.81557 0.0
C1290 C 0.2107 0.39327 0.76486 0.0
C1291 C 0.19631 0.41435 0.80227 0.0
C1292 C 0.18573 0.40845 0.72662 0.0
C1293 C 0.21481 0.3682 0.69946 0.0
N1294 N 0.19887 0.41555 0.77775 0.0
N1295 N 0.22099 0.37265 0.72393 0.0
H1296 H 0.28716 0.87992 0.81576 0.0
H1297 H 0.15453 0.81842 0.69527 0.0
H1298 H 0.15821 0.81693 0.81839 0.0
H1299 H 0.28289 0.87206 0.69736 0.0
H1300 H 0.15285 0.81032 0.73965 0.0
H1301 H 0.28415 0.87055 0.77219 0.0
C1302 C 0.25806 0.86341 0.80716 0.0
C1303 C 0.22288 0.84911 0.82081 0.0
C1304 C 0.18125 0.8231 0.73029 0.0
C1305 C 0.21908 0.83876 0.77031 0.0
C1306 C 0.18216 0.82735 0.70495 0.0
C1307 C 0.21891 0.84585 0.69261 0.0
C1308 C 0.21735 0.83746 0.74324 0.0
C1309 C 0.25389 0.85766 0.70611 0.0
C1310 C 0.25633 0.85812 0.78216 0.0
C1311 C 0.18605 0.82808 0.80859 0.0
N1312 N 0.25224 0.85359 0.73055 0.0
N1313 N 0.18508 0.82398 0.78396 0.0
H1314 H 0.60826 0.76004 0.69223 0.0
H1315 H 0.69434 0.88842 0.81405 0.0
H1316 H 0.69329 0.88649 0.69068 0.0
H1317 H 0.63105 0.75961 0.80958 0.0
H1318 H 0.68443 0.89138 0.77013 0.0
H1319 H 0.60503 0.76296 0.73612 0.0
C1320 C 0.62539 0.78877 0.70115 0.0
C1321 C 0.65093 0.82311 0.68776 0.0
C1322 C 0.67227 0.86254 0.7789 0.0
C1323 C 0.64846 0.82652 0.73846 0.0
C1324 C 0.67762 0.86081 0.80398 0.0
C1325 C 0.66341 0.8237 0.81555 0.0
C1326 C 0.65212 0.82687 0.76543 0.0
C1327 C 0.64259 0.7889 0.80149 0.0
C1328 C 0.62389 0.79036 0.7263 0.0
C1329 C 0.67288 0.85942 0.70032 0.0
N1330 N 0.63772 0.79138 0.77732 0.0
N1331 N 0.67162 0.86012 0.72506 0.0
H1332 H 0.29468 0.94034 0.96595 0.0
H1333 H 0.25768 0.08696 0.0521 0.0
H1334 H 0.18786 0.94844 0.96028 0.0
H1335 H 0.36043 0.0714 0.05518 0.0
H1336 H 0.23051 0.03765 0.01867 0.0
H1337 H 0.31675 0.98677 1.0 0.0
C1338 C 0.27534 0.95118 0.97237 0.0
C1339 C 0.23903 0.93985 0.96059 0.0
C1340 C 0.25912 0.04528 0.0266 0.0
C1341 C 0.26496 0.99493 0.99923 0.0
C1342 C 0.27485 0.07382 0.04543 0.0
C1343 C 0.31143 0.08336 0.05643 0.0
C1344 C 0.28024 0.02635 0.01873 0.0
C1345 C 0.33201 0.06479 0.04741 0.0
C1346 C 0.28816 0.97817 0.99167 0.0
C1347 C 0.21563 0.95569 0.96926 0.0
N1348 N 0.3162 0.03735 0.0293 0.0
N1349 N 0.22911 0.98269 0.98794 0.0
H1350 H 0.82127 0.6984 0.48036 0.0
H1351 H 0.73842 0.839 0.53128 0.0
H1352 H 0.78958 0.76742 0.43358 0.0
H1353 H 0.73915 0.74388 0.57188 0.0
H1354 H 0.76583 0.82097 0.49629 0.0
H1355 H 0.80165 0.72367 0.51542 0.0
C1356 C 0.81108 0.71946 0.47743 0.0
C1357 C 0.80725 0.7307 0.45388 0.0
C1358 C 0.75995 0.80419 0.51296 0.0
C1359 C 0.78401 0.75959 0.49406 0.0
C1360 C 0.74406 0.81438 0.53293 0.0
C1361 C 0.73566 0.79279 0.55472 0.0
C1362 C 0.76826 0.77265 0.51488 0.0
C1363 C 0.74464 0.76158 0.55567 0.0
C1364 C 0.79937 0.73362 0.49747 0.0
C1365 C 0.79283 0.75761 0.45136 0.0
N1366 N 0.76034 0.75265 0.53625 0.0
N1367 N 0.78175 0.77102 0.47106 0.0
H1368 H 0.13851 0.31823 0.97496 0.0
H1369 H 0.91386 0.22438 0.02658 0.0
H1370 H 0.03599 0.29141 0.93061 0.0
H1371 H 1.01871 0.27006 0.07199 0.0
H1372 H 0.95727 0.24244 0.99086 0.0
H1373 H 0.09445 0.29478 0.01053 0.0
C1374 C 0.107 0.30752 0.97259 0.0
C1375 C 0.09152 0.30763 0.94959 0.0
C1376 C 0.97069 0.24842 0.00871 0.0
C1377 C 0.04039 0.27996 0.99031 0.0
C1378 C 0.94573 0.2379 0.02916 0.0
C1379 C 0.9622 0.2458 0.05255 0.0
C1380 C 1.01255 0.26675 0.01157 0.0
C1381 C 1.00422 0.26365 0.05447 0.0
C1382 C 0.0817 0.29403 0.99294 0.0
C1383 C 0.04987 0.29264 0.94785 0.0
N1384 N 0.0277 0.27347 0.03441 0.0
N1385 N 0.02602 0.27958 0.96777 0.0
H1386 H 0.30347 0.02701 0.43715 0.0
H1387 H 0.25322 1.00615 0.57746 0.0
H1388 H 0.30113 0.12228 0.47659 0.0
H1389 H 0.22367 0.90556 0.53098 0.0
H1390 H 0.27145 0.04956 0.54188 0.0
H1391 H 0.27591 0.9838 0.47178 0.0
C1392 C 0.29723 0.03925 0.45305 0.0
C1393 C 0.30528 0.07915 0.45362 0.0
C1394 C 0.26048 0.01793 0.53939 0.0
C1395 C 0.27329 0.02835 0.49431 0.0
C1396 C 0.25008 0.99299 0.55972 0.0
C1397 C 0.23676 0.95186 0.55733 0.0
C1398 C 0.25833 1.00199 0.51628 0.0
C1399 C 0.23322 0.93672 0.53383 0.0
C1400 C 0.2812 1.01405 0.473 0.0
C1401 C 0.29611 0.09221 0.47519 0.0
N1402 N 0.24441 0.96182 0.51432 0.0
N1403 N 0.28099 0.06703 0.49472 0.0
H1404 H 0.85045 0.73883 0.03368 0.0
H1405 H 0.70487 0.81297 0.97839 0.0
H1406 H 0.74675 0.72813 0.07018 0.0
H1407 H 0.79223 0.80233 0.93565 0.0
H1408 H 0.727 0.79136 0.01416 0.0
H1409 H 0.8355 0.76946 0.999 0.0
C1410 C 0.82458 0.74266 0.03446 0.0
C1411 C 0.79976 0.73029 0.05499 0.0
C1412 C 0.74171 0.79425 0.997 0.0
C1413 C 0.78293 0.76628 0.01553 0.0
C1414 C 0.72939 0.80718 0.97663 0.0
C1415 C 0.74678 0.8097 0.95397 0.0
C1416 C 0.77178 0.78385 0.99475 0.0
C1417 C 0.77782 0.80065 0.95275 0.0
C1418 C 0.81613 0.76037 0.01469 0.0
C1419 C 0.76689 0.73678 0.05491 0.0
N1420 N 0.78917 0.78804 0.9727 0.0
N1421 N 0.7596 0.75421 0.03568 0.0
H1422 H 0.12689 0.35249 0.52938 0.0
H1423 H 0.92454 0.17945 0.46812 0.0
H1424 H 0.04961 0.2425 0.56681 0.0
H1425 H 0.98295 0.30386 0.44794 0.0
H1426 H 0.9721 0.19754 0.50225 0.0
H1427 H 0.07909 0.32993 0.49561 0.0
C1428 C 0.10058 0.32296 0.53008 0.0
C1429 C 0.09276 0.29887 0.5506 0.0
C1430 C 0.9743 0.22082 0.49034 0.0
C1431 C 0.03687 0.27331 0.51244 0.0
C1432 C 0.94686 0.21055 0.47106 0.0
C1433 C 0.95013 0.24011 0.45488 0.0
C1434 C 1.00536 0.26081 0.49323 0.0
C1435 C 0.97996 0.27991 0.45948 0.0
C1436 C 0.07285 0.31033 0.51101 0.0
C1437 C 0.05714 0.26156 0.55103 0.0
N1438 N 1.00651 0.28896 0.47791 0.0
N1439 N 0.03054 0.24988 0.53229 0.0
H1440 H 0.59176 0.08008 0.08848 0.0
H1441 H 0.45894 0.16075 0.14632 0.0
H1442 H 0.65271 0.20243 0.11361 0.0
H1443 H 0.44083 0.11898 0.07259 0.0
H1444 H 0.52164 0.15806 0.14752 0.0
H1445 H 0.52765 0.07606 0.09627 0.0
C1446 C 0.5919 0.10613 0.09581 0.0
C1447 C 0.62818 0.14221 0.09957 0.0
C1448 C 0.50339 0.14883 0.1313 0.0
C1449 C 0.55413 0.1367 0.10964 0.0
C1450 C 0.46751 0.14986 0.13069 0.0
C1451 C 0.44439 0.13934 0.10943 0.0
C1452 C 0.5155 0.13634 0.11071 0.0
C1453 C 0.4575 0.12673 0.08941 0.0
C1454 C 0.55513 0.10352 0.10043 0.0
C1455 C 0.62581 0.17412 0.11019 0.0
N1456 N 0.49189 0.12521 0.0906 0.0
N1457 N 0.5894 0.17077 0.11465 0.0
H1458 H 0.71178 0.59869 0.43957 0.0
H1459 H 0.57394 0.38523 0.39397 0.0
H1460 H 0.73203 0.57831 0.36564 0.0
H1461 H 0.51957 0.45182 0.42072 0.0
H1462 H 0.63609 0.44914 0.38652 0.0
H1463 H 0.64496 0.5388 0.43775 0.0
C1464 C 0.70178 0.58195 0.42281 0.0
C1465 C 0.72696 0.59407 0.40253 0.0
C1466 C 0.6102 0.44944 0.39376 0.0
C1467 C 0.6516 0.52414 0.40082 0.0
C1468 C 0.57461 0.41298 0.39797 0.0
C1469 C 0.54131 0.41257 0.40868 0.0
C1470 C 0.6128 0.48566 0.40071 0.0
C1471 C 0.54459 0.45 0.41344 0.0
C1472 C 0.66383 0.54775 0.42182 0.0
C1473 C 0.71302 0.57057 0.38144 0.0
N1474 N 0.57976 0.4847 0.41001 0.0
N1475 N 0.67648 0.53623 0.38123 0.0
H1476 H 0.94016 0.34026 0.07539 0.0
H1477 H 0.88923 0.49441 0.14183 0.0
H1478 H 0.88585 0.3141 0.14601 0.0
H1479 H 0.92078 0.49811 0.06668 0.0
H1480 H 0.8922 0.43221 0.1466 0.0
H1481 H 0.94204 0.40412 0.07562 0.0
C1482 C 0.92963 0.34862 0.0913 0.0
C1483 C 0.91365 0.32223 0.11088 0.0
C1484 C 0.89831 0.44671 0.1291 0.0
C1485 C 0.91356 0.39495 0.11084 0.0
C1486 C 0.89624 0.48194 0.12631 0.0
C1487 C 0.90511 0.50179 0.10385 0.0
C1488 C 0.90947 0.43147 0.10929 0.0
C1489 C 0.9143 0.48436 0.08442 0.0
C1490 C 0.93015 0.38491 0.09132 0.0
C1491 C 0.89934 0.33409 0.13079 0.0
N1492 N 0.91646 0.45068 0.08764 0.0
N1493 N 0.89931 0.36952 0.1302 0.0
H1494 H 0.43653 0.12035 0.44047 0.0
H1495 H 0.63161 0.15209 0.36968 0.0
H1496 H 0.45237 0.14766 0.36431 0.0
H1497 H 0.60132 0.11027 0.44319 0.0
H1498 H 0.56758 0.15167 0.36628 0.0
H1499 H 0.49635 0.11449 0.44044 0.0
C1500 C 0.45229 0.12424 0.42357 0.0
C1501 C 0.43921 0.13395 0.40234 0.0
C1502 C 0.57507 0.14259 0.38311 0.0
C1503 C 0.50933 0.12907 0.40225 0.0
C1504 C 0.61176 0.14326 0.38514 0.0
C1505 C 0.62184 0.13109 0.40673 0.0
C1506 C 0.54853 0.12998 0.4029 0.0
C1507 C 0.59476 0.11954 0.42611 0.0
C1508 C 0.48674 0.12124 0.42355 0.0
C1509 C 0.46114 0.13941 0.38098 0.0
N1510 N 0.55965 0.11927 0.42371 0.0
N1511 N 0.49549 0.13735 0.38152 0.0
H1512 H 0.57134 0.38813 0.11642 0.0
H1513 H 0.70727 0.60358 0.07283 0.0
H1514 H 0.51632 0.45415 0.08957 0.0
H1515 H 0.72935 0.5796 0.14562 0.0
H1516 H 0.64043 0.54385 0.07439 0.0
H1517 H 0.6329 0.45218 0.1245 0.0
C1518 C 0.57172 0.41576 0.1125 0.0
C1519 C 0.53838 0.41512 0.1016 0.0
C1520 C 0.65962 0.552 0.09018 0.0
C1521 C 0.60932 0.4885 0.11033 0.0
C1522 C 0.69759 0.58615 0.08936 0.0
C1523 C 0.72333 0.59722 0.10938 0.0
C1524 C 0.64792 0.52726 0.11068 0.0
C1525 C 0.70986 0.57274 0.13008 0.0
C1526 C 0.60701 0.45233 0.11709 0.0
C1527 C 0.54136 0.45247 0.09696 0.0
N1528 N 0.67329 0.53838 0.13006 0.0
N1529 N 0.57627 0.48731 0.10078 0.0
H1530 H 0.92741 0.49674 0.44353 0.0
H1531 H 0.87948 0.3073 0.3606 0.0
H1532 H 0.88652 0.48739 0.3699 0.0
H1533 H 0.93041 0.32885 0.43214 0.0
H1534 H 0.88426 0.37347 0.36163 0.0
H1535 H 0.92842 0.43484 0.4385 0.0
C1536 C 0.91848 0.48154 0.42623 0.0
C1537 C 0.9072 0.49771 0.40706 0.0
C1538 C 0.89508 0.36402 0.3769 0.0
C1539 C 0.9083 0.4258 0.40105 0.0
C1540 C 0.8929 0.32655 0.37616 0.0
C1541 C 0.90538 0.31303 0.39615 0.0
C1542 C 0.90922 0.38769 0.39795 0.0
C1543 C 0.92111 0.33843 0.41621 0.0
C1544 C 0.91918 0.44606 0.42333 0.0
C1545 C 0.89528 0.47603 0.38521 0.0
N1546 N 0.92238 0.37422 0.41664 0.0
N1547 N 0.89628 0.44125 0.38276 0.0
H1548 H 0.18802 0.63914 0.58159 0.0
H1549 H 0.14046 0.43353 0.64415 0.0
H1550 H 0.10934 0.59493 0.6432 0.0
H1551 H 0.1562 0.45388 0.56721 0.0
H1552 H 0.1387 0.49625 0.64836 0.0
H1553 H 0.19002 0.57655 0.58084 0.0
C1554 C 0.17207 0.6167 0.59535 0.0
C1555 C 0.14877 0.62236 0.61258 0.0
C1556 C 0.14221 0.48666 0.63057 0.0
C1557 C 0.15049 0.55044 0.61172 0.0
C1558 C 0.14272 0.45065 0.62813 0.0
C1559 C 0.14768 0.43793 0.6052 0.0
C1560 C 0.14828 0.51079 0.6101 0.0
C1561 C 0.15194 0.46224 0.58519 0.0
C1562 C 0.17276 0.58079 0.59474 0.0
C1563 C 0.1279 0.59181 0.62971 0.0
N1564 N 0.15259 0.4975 0.58812 0.0
N1565 N 0.12927 0.55721 0.62889 0.0
H1566 H 0.32465 0.89871 0.86526 0.0
H1567 H 0.48636 0.85531 0.92679 0.0
H1568 H 0.32818 0.87972 0.94189 0.0
H1569 H 0.51823 0.93414 0.86536 0.0
H1570 H 0.42083 0.85136 0.92811 0.0
H1571 H 0.39008 0.90259 0.86101 0.0
C1572 C 0.33946 0.89618 0.88123 0.0
C1573 C 0.32125 0.88977 0.90407 0.0
C1574 C 0.442 0.86913 0.91414 0.0
C1575 C 0.3947 0.89159 0.8991 0.0
C1576 C 0.47915 0.87096 0.91322 0.0
C1577 C 0.50764 0.89484 0.89586 0.0
C1578 C 0.43291 0.89085 0.89735 0.0
C1579 C 0.49698 0.91521 0.87896 0.0
C1580 C 0.37655 0.89789 0.87875 0.0
C1581 C 0.34125 0.88513 0.92398 0.0
N1582 N 0.4605 0.91272 0.88007 0.0
N1583 N 0.3765 0.88573 0.92101 0.0
H1584 H 0.58715 0.72439 0.64585 0.0
H1585 H 0.45945 0.50444 0.5945 0.0
H1586 H 0.6072 0.69491 0.57401 0.0
H1587 H 0.39596 0.56527 0.61521 0.0
H1588 H 0.52275 0.56624 0.60129 0.0
H1589 H 0.52591 0.65778 0.64857 0.0
C1590 C 0.57947 0.7034 0.63105 0.0
C1591 C 0.60263 0.71476 0.60982 0.0
C1592 C 0.49489 0.56574 0.60472 0.0
C1593 C 0.53309 0.63925 0.61281 0.0
C1594 C 0.45856 0.53058 0.60065 0.0
C1595 C 0.4218 0.5296 0.60344 0.0
C1596 C 0.49497 0.60024 0.61244 0.0
C1597 C 0.42325 0.56436 0.61258 0.0
C1598 C 0.54435 0.66578 0.63249 0.0
C1599 C 0.59052 0.68703 0.5908 0.0
N1600 N 0.45923 0.5984 0.61654 0.0
N1601 N 0.55687 0.65052 0.59281 0.0
H1602 H 0.20358 0.64477 0.89183 0.0
H1603 H 0.12202 0.4282 0.93248 0.0
H1604 H 0.07966 0.57653 0.9136 0.0
H1605 H 0.1737 0.45554 0.86113 0.0
H1606 H 0.11418 0.48739 0.93057 0.0
H1607 H 0.20224 0.58143 0.88358 0.0
C1608 C 0.17596 0.61679 0.89455 0.0
C1609 C 0.14202 0.61647 0.90413 0.0
C1610 C 0.12661 0.48006 0.91516 0.0
C1611 C 0.14083 0.54399 0.89527 0.0
C1612 C 0.13085 0.44624 0.91618 0.0
C1613 C 0.14739 0.43636 0.89666 0.0
C1614 C 0.14102 0.50555 0.89501 0.0
C1615 C 0.15969 0.46153 0.87625 0.0
C1616 C 0.17533 0.58065 0.88989 0.0
C1617 C 0.10719 0.57879 0.90725 0.0
N1618 N 0.157 0.49551 0.87612 0.0
N1619 N 0.10782 0.54433 0.90344 0.0
H1620 H 0.33533 0.92005 0.57191 0.0
H1621 H 0.46722 0.83412 0.61574 0.0
H1622 H 0.31294 0.8724 0.6443 0.0
H1623 H 0.52311 0.95281 0.58501 0.0
H1624 H 0.40707 0.839 0.62415 0.0
H1625 H 0.40088 0.92435 0.57273 0.0
C1626 C 0.34466 0.91132 0.58819 0.0
C1627 C 0.31917 0.897 0.60831 0.0
C1628 C 0.43284 0.86402 0.61581 0.0
C1629 C 0.39317 0.89933 0.60878 0.0
C1630 C 0.46731 0.86136 0.61105 0.0
C1631 C 0.50036 0.8926 0.59897 0.0
C1632 C 0.43109 0.89781 0.60807 0.0
C1633 C 0.49815 0.92712 0.59341 0.0
C1634 C 0.38193 0.91354 0.5886 0.0
C1635 C 0.33223 0.88475 0.62868 0.0
N1636 N 0.46405 0.92836 0.59746 0.0
N1637 N 0.36804 0.88548 0.62826 0.0
H1638 H 0.61153 0.72276 0.86164 0.0
H1639 H 0.40753 0.56585 0.92624 0.0
H1640 H 0.59311 0.72105 0.93867 0.0
H1641 H 0.45092 0.52986 0.865 0.0
H1642 H 0.47002 0.63083 0.9263 0.0
H1643 H 0.54877 0.65794 0.85834 0.0
C1644 C 0.59481 0.70845 0.87788 0.0
C1645 C 0.60813 0.72696 0.90056 0.0
C1646 C 0.46562 0.60889 0.91263 0.0
C1647 C 0.53521 0.65434 0.89669 0.0
C1648 C 0.42978 0.57207 0.91242 0.0
C1649 C 0.42396 0.54263 0.89549 0.0
C1650 C 0.49567 0.61663 0.89556 0.0
C1651 C 0.45422 0.55194 0.87826 0.0
C1652 C 0.55878 0.67174 0.87595 0.0
C1653 C 0.58428 0.70768 0.92086 0.0
N1654 N 0.48874 0.58812 0.87868 0.0
N1655 N 0.54896 0.67282 0.91843 0.0
loop_
_geom_bond_atom_site_label_1
_geom_bond_atom_site_label_2
_geom_bond_distance
_geom_bond_site_symmetry_2
_ccdc_geom_bond_type
Eu0 N31 2.657 . S
Eu0 N38 2.609 . S
Eu0 O44 2.558 . S
Eu0 O45 2.612 . S
Eu0 O47 2.339 . S
Eu0 O48 2.563 . S
Eu0 O49 2.419 . S
Eu0 O51 2.380 . S
Eu0 O52 2.432 . S
Eu0 C64 2.848 . S
C1 C4 1.429 . S
C1 C5 1.411 . S
C1 N8 1.377 . S
C2 C4 1.420 . S
C2 C6 1.423 . S
C2 C14 1.392 . S
C3 C5 1.420 . S
C3 C6 1.351 . S
C3 H26 0.931 1_545 S
C4 C1 1.429 . S
C4 C2 1.420 . S
C4 N12 1.362 . S
C5 C1 1.411 . S
C5 C3 1.420 . S
C5 C10 1.395 . S
C6 C2 1.423 . S
C6 C3 1.351 . S
C6 H18 0.930 1_545 S
C7 C9 1.400 . S
C7 C10 1.386 . S
C7 H19 0.930 . S
N8 C1 1.377 . S
N8 C9 1.321 . S
N8 Eu11 2.609 . S
C9 C7 1.400 . S
C9 N8 1.321 . S
C9 H16 0.930 . S
C10 C5 1.395 . S
C10 C7 1.386 . S
C10 H29 0.930 . S
Eu11 N8 2.609 . S
Eu11 N12 2.657 . S
Eu11 O45 2.380 . S
Eu11 O46 2.432 . S
Eu11 O50 2.558 . S
Eu11 O51 2.612 . S
Eu11 O53 2.339 . S
Eu11 O54 2.563 . S
Eu11 O55 2.419 . S
Eu11 C75 2.848 . S
N12 C4 1.362 . S
N12 Eu11 2.657 . S
N12 C13 1.334 . S
C13 N12 1.334 . S
C13 C15 1.413 . S
C13 H20 0.929 . S
C14 C2 1.392 . S
C14 C15 1.367 . S
C14 H22 0.930 . S
C15 C13 1.413 . S
C15 C14 1.367 . S
C15 H17 0.930 . S
H16 C9 0.930 . S
H17 C15 0.930 . S
H18 C6 0.930 1_565 S
H19 C7 0.930 . S
H20 C13 0.929 . S
H21 C35 0.930 . S
H22 C14 0.930 . S
H23 C41 0.930 . S
H24 C32 0.929 . S
H25 C39 0.930 . S
H26 C3 0.931 1_565 S
H27 C33 0.930 . S
H28 C66 0.930 . S
H29 C10 0.930 . S
H30 C65 0.931 . S
N31 Eu0 2.657 . S
N31 C32 1.334 . S
N31 C36 1.362 . S
C32 H24 0.929 . S
C32 N31 1.334 . S
C32 C35 1.413 . S
C33 H27 0.930 . S
C33 C34 1.392 . S
C33 C35 1.367 . S
C34 C33 1.392 . S
C34 C36 1.420 . S
C34 C66 1.423 . S
C35 H21 0.930 . S
C35 C32 1.413 . S
C35 C33 1.367 . S
C36 N31 1.362 . S
C36 C34 1.420 . S
C36 C40 1.429 . S
H37 C42 0.930 . S
N38 Eu0 2.609 . S
N38 C40 1.377 . S
N38 C41 1.321 . S
C39 H25 0.930 . S
C39 C41 1.400 . S
C39 C42 1.386 . S
C40 C36 1.429 . S
C40 N38 1.377 . S
C40 C43 1.411 . S
C41 H23 0.930 . S
C41 N38 1.321 . S
C41 C39 1.400 . S
C42 H37 0.930 . S
C42 C39 1.386 . S
C42 C43 1.395 . S
C43 C40 1.411 . S
C43 C42 1.395 . S
C43 C65 1.420 . S
O44 Eu0 2.558 . S
O44 C64 1.257 . S
O45 Eu0 2.612 . S
O45 Eu11 2.380 . S
O45 C56 1.276 . S
O46 Eu11 2.432 . S
O46 C63 1.264 . S
O47 Eu0 2.339 . S
O47 C63 1.254 . S
O48 Eu0 2.563 . S
O48 C56 1.235 . S
O49 Eu0 2.419 . S
O49 C64 1.249 . S
O50 Eu11 2.558 . S
O50 C75 1.257 . S
O51 Eu0 2.380 . S
O51 Eu11 2.612 . S
O51 C67 1.276 . S
O52 Eu0 2.432 . S
O52 C74 1.264 . S
O53 Eu11 2.339 . S
O53 C74 1.254 . S
O54 Eu11 2.563 . S
O54 C67 1.235 . S
O55 Eu11 2.419 . S
O55 C75 1.249 . S
C56 O45 1.276 . S
C56 O48 1.235 . S
C57 C59 1.393 . S
C57 C61 1.395 . S
C57 C64 1.492 . S
C58 C59 1.392 . S
C58 C60 1.386 . S
C59 C57 1.393 . S
C59 C58 1.392 . S
C59 H76 0.930 . S
C60 C58 1.386 . S
C60 C62 1.395 . S
C60 H77 0.930 . S
C61 C57 1.395 . S
C61 C62 1.379 . S
C61 H78 0.930 . S
C62 C60 1.395 . S
C62 C61 1.379 . S
C62 H79 0.930 . S
C63 O46 1.264 . S
C63 O47 1.254 . S
C64 Eu0 2.848 . S
C64 O44 1.257 . S
C64 O49 1.249 . S
C64 C57 1.492 . S
C65 H30 0.931 . S
C65 C43 1.420 . S
C65 C66 1.351 . S
C66 H28 0.930 . S
C66 C34 1.423 . S
C66 C65 1.351 . S
C67 O51 1.276 . S
C67 O54 1.235 . S
C68 C69 1.393 . S
C68 C72 1.395 . S
C68 C75 1.492 1_565 S
C69 C68 1.393 . S
C69 C70 1.392 . S
C69 H80 0.930 . S
C70 C69 1.392 . S
C70 C71 1.386 . S
C71 C70 1.386 . S
C71 C73 1.395 . S
C71 H81 0.930 . S
C72 C68 1.395 . S
C72 C73 1.379 . S
C72 H82 0.930 . S
C73 C71 1.395 . S
C73 C72 1.379 . S
C73 H83 0.930 . S
C74 O52 1.264 . S
C74 O53 1.254 . S
C75 Eu11 2.848 . S
C75 O50 1.257 . S
C75 O55 1.249 . S
C75 C68 1.492 1_545 S
H76 C59 0.930 . S
H77 C60 0.930 . S
H78 C61 0.930 . S
H79 C62 0.930 . S
H80 C69 0.930 . S
H81 C71 0.930 . S
H82 C72 0.930 . S
H83 C73 0.930 . S
Eu84 N115 2.657 . S
Eu84 N122 2.609 . S
Eu84 O128 2.558 . S
Eu84 O129 2.612 . S
Eu84 O131 2.339 . S
Eu84 O132 2.563 . S
Eu84 O133 2.419 . S
Eu84 O135 2.380 . S
Eu84 O136 2.432 . S
Eu84 C148 2.848 . S
C85 C88 1.429 . S
C85 C89 1.411 . S
C85 N92 1.377 . S
C86 C88 1.420 . S
C86 C90 1.423 1_655 S
C86 C98 1.396 . S
C87 C89 1.420 1_455 S
C87 C90 1.351 . S
C87 H110 0.931 . S
C88 C85 1.429 . S
C88 C86 1.420 . S
C88 N96 1.362 . S
C89 C85 1.411 . S
C89 C87 1.420 1_655 S
C89 C94 1.395 . S
C90 C86 1.423 1_455 S
C90 C87 1.351 . S
C90 H102 0.930 . S
C91 C93 1.400 . S
C91 C94 1.386 . S
C91 H103 0.930 . S
N92 C85 1.377 . S
N92 C93 1.321 . S
N92 Eu95 2.609 . S
C93 C91 1.400 . S
C93 N92 1.321 . S
C93 H100 0.930 . S
C94 C89 1.395 . S
C94 C91 1.386 . S
C94 H113 0.930 . S
Eu95 N92 2.609 . S
Eu95 N96 2.657 . S
Eu95 O129 2.380 . S
Eu95 O130 2.432 . S
Eu95 O134 2.558 . S
Eu95 O135 2.612 . S
Eu95 O137 2.339 . S
Eu95 O138 2.563 . S
Eu95 O139 2.419 . S
Eu95 C159 2.848 . S
N96 C88 1.362 . S
N96 Eu95 2.657 . S
N96 C97 1.334 . S
C97 N96 1.334 . S
C97 C99 1.413 . S
C97 H104 0.929 . S
C98 C86 1.396 . S
C98 C99 1.382 . S
C98 H106 0.913 1_655 S
C99 C97 1.413 . S
C99 C98 1.382 . S
C99 H101 0.930 . S
H100 C93 0.930 . S
H101 C99 0.930 . S
H102 C90 0.930 . S
H103 C91 0.930 . S
H104 C97 0.929 . S
H105 C119 0.930 . S
H106 C98 0.913 1_455 S
H107 C125 0.930 . S
H108 C116 0.929 . S
H109 C123 0.930 . S
H110 C87 0.931 . S
H111 C117 0.930 . S
H112 C150 0.930 . S
H113 C94 0.930 . S
H114 C149 0.931 . S
N115 Eu84 2.657 . S
N115 C116 1.334 . S
N115 C120 1.362 . S
C116 H108 0.929 . S
C116 N115 1.334 . S
C116 C119 1.413 . S
C117 H111 0.930 . S
C117 C118 1.392 . S
C117 C119 1.367 . S
C118 C117 1.392 . S
C118 C120 1.420 . S
C118 C150 1.423 . S
C119 H105 0.930 . S
C119 C116 1.413 . S
C119 C117 1.367 . S
C120 N115 1.362 . S
C120 C118 1.420 . S
C120 C124 1.429 . S
H121 C126 0.930 . S
N122 Eu84 2.609 . S
N122 C124 1.377 . S
N122 C125 1.321 . S
C123 H109 0.930 . S
C123 C125 1.400 . S
C123 C126 1.386 . S
C124 C120 1.429 . S
C124 N122 1.377 . S
C124 C127 1.411 . S
C125 H107 0.930 . S
C125 N122 1.321 . S
C125 C123 1.400 . S
C126 H121 0.930 . S
C126 C123 1.386 . S
C126 C127 1.395 . S
C127 C124 1.411 . S
C127 C126 1.395 . S
C127 C149 1.420 . S
O128 Eu84 2.558 . S
O128 C148 1.257 . S
O129 Eu84 2.612 . S
O129 Eu95 2.380 . S
O129 C140 1.276 . S
O130 Eu95 2.432 . S
O130 C147 1.264 . S
O131 Eu84 2.339 . S
O131 C147 1.254 . S
O132 Eu84 2.563 . S
O132 C140 1.235 . S
O133 Eu84 2.419 . S
O133 C148 1.249 . S
O134 Eu95 2.558 . S
O134 C159 1.257 . S
O135 Eu84 2.380 . S
O135 Eu95 2.612 . S
O135 C151 1.276 . S
O136 Eu84 2.432 . S
O136 C158 1.264 . S
O137 Eu95 2.339 . S
O137 C158 1.254 . S
O138 Eu95 2.563 . S
O138 C151 1.235 . S
O139 Eu95 2.419 . S
O139 C159 1.249 . S
C140 O129 1.276 . S
C140 O132 1.235 . S
C141 C143 1.393 . S
C141 C145 1.395 . S
C141 C148 1.492 . S
C142 C143 1.392 . S
C142 C144 1.386 . S
C143 C141 1.393 . S
C143 C142 1.392 . S
C143 H160 0.930 . S
C144 C142 1.386 . S
C144 C146 1.395 . S
C144 H161 0.930 . S
C145 C141 1.395 . S
C145 C146 1.379 . S
C145 H162 0.930 . S
C146 C144 1.395 . S
C146 C145 1.379 . S
C146 H163 0.930 . S
C147 O130 1.264 . S
C147 O131 1.254 . S
C148 Eu84 2.848 . S
C148 O128 1.257 . S
C148 O133 1.249 . S
C148 C141 1.492 . S
C149 H114 0.931 . S
C149 C127 1.420 . S
C149 C150 1.351 . S
C150 H112 0.930 . S
C150 C118 1.423 . S
C150 C149 1.351 . S
C151 O135 1.276 . S
C151 O138 1.235 . S
C152 C153 1.393 . S
C152 C156 1.395 . S
C152 C159 1.492 . S
C153 C152 1.393 . S
C153 C154 1.392 . S
C153 H164 0.930 . S
C154 C153 1.392 . S
C154 C155 1.386 . S
C155 C154 1.386 . S
C155 C157 1.395 . S
C155 H165 0.930 . S
C156 C152 1.395 . S
C156 C157 1.379 . S
C156 H166 0.930 . S
C157 C155 1.395 . S
C157 C156 1.379 . S
C157 H167 0.930 . S
C158 O136 1.264 . S
C158 O137 1.254 . S
C159 Eu95 2.848 . S
C159 O134 1.257 . S
C159 O139 1.249 . S
C159 C152 1.492 . S
H160 C143 0.930 . S
H161 C144 0.930 . S
H162 C145 0.930 . S
H163 C146 0.930 . S
H164 C153 0.930 . S
H165 C155 0.930 . S
H166 C156 0.930 . S
H167 C157 0.930 . S
Eu168 N199 2.657 . S
Eu168 N206 2.609 . S
Eu168 O212 2.558 . S
Eu168 O213 2.612 . S
Eu168 O215 2.339 . S
Eu168 O216 2.563 . S
Eu168 O217 2.419 . S
Eu168 O219 2.380 . S
Eu168 O220 2.432 . S
Eu168 C232 2.848 . S
C169 C172 1.429 . S
C169 C173 1.411 . S
C169 N176 1.377 . S
C170 C172 1.420 . S
C170 C174 1.423 . S
C170 C182 1.392 . S
C171 C173 1.420 . S
C171 C174 1.351 . S
C171 H194 0.931 1_655 S
C172 C169 1.429 . S
C172 C170 1.420 . S
C172 N180 1.362 . S
C173 C169 1.411 . S
C173 C171 1.420 . S
C173 C178 1.395 . S
C174 C170 1.423 . S
C174 C171 1.351 . S
C174 H186 0.930 1_655 S
C175 C177 1.400 . S
C175 C178 1.386 . S
C175 H187 0.930 . S
N176 C169 1.377 . S
N176 C177 1.321 . S
N176 Eu179 2.609 . S
C177 C175 1.400 . S
C177 N176 1.321 . S
C177 H184 0.930 . S
C178 C173 1.395 . S
C178 C175 1.386 . S
C178 H197 0.930 . S
Eu179 N176 2.609 . S
Eu179 N180 2.657 . S
Eu179 O213 2.380 . S
Eu179 O214 2.432 . S
Eu179 O218 2.558 . S
Eu179 O219 2.612 . S
Eu179 O221 2.339 . S
Eu179 O222 2.563 . S
Eu179 O223 2.419 . S
Eu179 C243 2.848 . S
N180 C172 1.362 . S
N180 Eu179 2.657 . S
N180 C181 1.334 . S
C181 N180 1.334 . S
C181 C183 1.413 . S
C181 H188 0.929 . S
C182 C170 1.392 . S
C182 C183 1.367 . S
C182 H190 0.930 . S
C183 C181 1.413 . S
C183 C182 1.367 . S
C183 H185 0.930 . S
H184 C177 0.930 . S
H185 C183 0.930 . S
H186 C174 0.930 1_455 S
H187 C175 0.930 . S
H188 C181 0.929 . S
H189 C203 0.930 . S
H190 C182 0.930 . S
H191 C209 0.930 . S
H192 C200 0.929 . S
H193 C207 0.930 . S
H194 C171 0.931 1_455 S
H195 C201 0.913 1_565 S
H196 C234 0.930 . S
H197 C178 0.930 . S
H198 C233 0.931 . S
N199 Eu168 2.657 . S
N199 C200 1.334 . S
N199 C204 1.362 . S
C200 H192 0.929 . S
C200 N199 1.334 . S
C200 C203 1.413 . S
C201 H195 0.913 1_545 S
C201 C202 1.398 . S
C201 C203 1.379 . S
C202 C201 1.398 . S
C202 C204 1.420 . S
C202 C234 1.423 1_545 S
C203 H189 0.930 . S
C203 C200 1.413 . S
C203 C201 1.379 . S
C204 N199 1.362 . S
C204 C202 1.420 . S
C204 C208 1.429 . S
H205 C210 0.930 . S
N206 Eu168 2.609 . S
N206 C208 1.377 . S
N206 C209 1.321 . S
C207 H193 0.930 . S
C207 C209 1.400 . S
C207 C210 1.386 . S
C208 C204 1.429 . S
C208 N206 1.377 . S
C208 C211 1.411 . S
C209 H191 0.930 . S
C209 N206 1.321 . S
C209 C207 1.400 . S
C210 H205 0.930 . S
C210 C207 1.386 . S
C210 C211 1.395 . S
C211 C208 1.411 . S
C211 C210 1.395 . S
C211 C233 1.420 1_545 S
O212 Eu168 2.558 . S
O212 C232 1.257 . S
O213 Eu168 2.612 . S
O213 Eu179 2.380 . S
O213 C224 1.276 . S
O214 Eu179 2.432 . S
O214 C231 1.264 . S
O215 Eu168 2.339 . S
O215 C231 1.254 . S
O216 Eu168 2.563 . S
O216 C224 1.235 . S
O217 Eu168 2.419 . S
O217 C232 1.249 . S
O218 Eu179 2.558 . S
O218 C243 1.257 . S
O219 Eu168 2.380 . S
O219 Eu179 2.612 . S
O219 C235 1.276 . S
O220 Eu168 2.432 . S
O220 C242 1.264 . S
O221 Eu179 2.339 . S
O221 C242 1.254 . S
O222 Eu179 2.563 . S
O222 C235 1.235 . S
O223 Eu179 2.419 . S
O223 C243 1.249 . S
C224 O213 1.276 . S
C224 O216 1.235 . S
C225 C227 1.393 . S
C225 C229 1.395 . S
C225 C232 1.492 . S
C226 C227 1.392 . S
C226 C228 1.386 . S
C227 C225 1.393 . S
C227 C226 1.392 . S
C227 H244 0.930 . S
C228 C226 1.386 . S
C228 C230 1.395 . S
C228 H245 0.930 . S
C229 C225 1.395 . S
C229 C230 1.379 . S
C229 H246 0.930 . S
C230 C228 1.395 . S
C230 C229 1.379 . S
C230 H247 0.930 . S
C231 O214 1.264 . S
C231 O215 1.254 . S
C232 Eu168 2.848 . S
C232 O212 1.257 . S
C232 O217 1.249 . S
C232 C225 1.492 . S
C233 H198 0.931 . S
C233 C211 1.420 1_565 S
C233 C234 1.351 . S
C234 H196 0.930 . S
C234 C202 1.423 1_565 S
C234 C233 1.351 . S
C235 O219 1.276 . S
C235 O222 1.235 . S
C236 C237 1.393 . S
C236 C240 1.395 . S
C236 C243 1.492 1_455 S
C237 C236 1.393 . S
C237 C238 1.392 . S
C237 H248 0.930 . S
C238 C237 1.392 . S
C238 C239 1.386 . S
C239 C238 1.386 . S
C239 C241 1.395 . S
C239 H249 0.930 . S
C240 C236 1.395 . S
C240 C241 1.379 . S
C240 H250 0.930 . S
C241 C239 1.395 . S
C241 C240 1.379 . S
C241 H251 0.930 . S
C242 O220 1.264 . S
C242 O221 1.254 . S
C243 Eu179 2.848 . S
C243 O218 1.257 . S
C243 O223 1.249 . S
C243 C236 1.492 1_655 S
H244 C227 0.930 . S
H245 C228 0.930 . S
H246 C229 0.930 . S
H247 C230 0.930 . S
H248 C237 0.930 . S
H249 C239 0.930 . S
H250 C240 0.930 . S
H251 C241 0.930 . S
Eu252 N283 2.657 . S
Eu252 N290 2.609 . S
Eu252 O296 2.558 . S
Eu252 O297 2.612 . S
Eu252 O299 2.339 . S
Eu252 O300 2.563 . S
Eu252 O301 2.419 . S
Eu252 O303 2.380 . S
Eu252 O304 2.432 . S
Eu252 C316 2.848 . S
C253 C256 1.429 . S
C253 C257 1.411 . S
C253 N260 1.377 . S
C254 C256 1.420 . S
C254 C258 1.423 . S
C254 C266 1.392 . S
C255 C257 1.420 . S
C255 C258 1.351 . S
C255 H278 0.931 . S
C256 C253 1.429 . S
C256 C254 1.420 . S
C256 N264 1.362 . S
C257 C253 1.411 . S
C257 C255 1.420 . S
C257 C262 1.395 . S
C258 C254 1.423 . S
C258 C255 1.351 . S
C258 H270 0.930 . S
C259 C261 1.400 . S
C259 C262 1.386 . S
C259 H271 0.930 . S
N260 C253 1.377 . S
N260 C261 1.321 . S
N260 Eu263 2.609 . S
C261 C259 1.400 . S
C261 N260 1.321 . S
C261 H268 0.930 . S
C262 C257 1.395 . S
C262 C259 1.386 . S
C262 H281 0.930 . S
Eu263 N260 2.609 . S
Eu263 N264 2.657 . S
Eu263 O297 2.380 . S
Eu263 O298 2.432 . S
Eu263 O302 2.558 . S
Eu263 O303 2.612 . S
Eu263 O305 2.339 . S
Eu263 O306 2.563 . S
Eu263 O307 2.419 . S
Eu263 C327 2.848 . S
N264 C256 1.362 . S
N264 Eu263 2.657 . S
N264 C265 1.334 . S
C265 N264 1.334 . S
C265 C267 1.413 . S
C265 H272 0.929 . S
C266 C254 1.392 . S
C266 C267 1.367 . S
C266 H274 0.930 . S
C267 C265 1.413 . S
C267 C266 1.367 . S
C267 H269 0.930 . S
H268 C261 0.930 . S
H269 C267 0.930 . S
H270 C258 0.930 . S
H271 C259 0.930 . S
H272 C265 0.929 . S
H273 C287 0.930 . S
H274 C266 0.930 . S
H275 C293 0.930 . S
H276 C284 0.929 . S
H277 C291 0.930 . S
H278 C255 0.931 . S
H279 C285 0.930 . S
H280 C318 0.930 1_565 S
H281 C262 0.930 . S
H282 C317 0.931 1_565 S
N283 Eu252 2.657 . S
N283 C284 1.334 . S
N283 C288 1.362 . S
C284 H276 0.929 . S
C284 N283 1.334 . S
C284 C287 1.413 . S
C285 H279 0.930 . S
C285 C286 1.392 . S
C285 C287 1.367 . S
C286 C285 1.392 . S
C286 C288 1.420 . S
C286 C318 1.423 . S
C287 H273 0.930 . S
C287 C284 1.413 . S
C287 C285 1.367 . S
C288 N283 1.362 . S
C288 C286 1.420 . S
C288 C292 1.429 . S
H289 C294 0.930 . S
N290 Eu252 2.609 . S
N290 C292 1.377 . S
N290 C293 1.321 . S
C291 H277 0.930 . S
C291 C293 1.400 . S
C291 C294 1.386 . S
C292 C288 1.429 . S
C292 N290 1.377 . S
C292 C295 1.411 . S
C293 H275 0.930 . S
C293 N290 1.321 . S
C293 C291 1.400 . S
C294 H289 0.930 . S
C294 C291 1.386 . S
C294 C295 1.395 . S
C295 C292 1.411 . S
C295 C294 1.395 . S
C295 C317 1.420 . S
O296 Eu252 2.558 . S
O296 C316 1.257 . S
O297 Eu252 2.612 . S
O297 Eu263 2.380 . S
O297 C308 1.276 . S
O298 Eu263 2.432 . S
O298 C315 1.264 . S
O299 Eu252 2.339 . S
O299 C315 1.254 . S
O300 Eu252 2.563 . S
O300 C308 1.235 . S
O301 Eu252 2.419 . S
O301 C316 1.249 . S
O302 Eu263 2.558 . S
O302 C327 1.257 . S
O303 Eu252 2.380 . S
O303 Eu263 2.612 . S
O303 C319 1.276 . S
O304 Eu252 2.432 . S
O304 C326 1.264 . S
O305 Eu263 2.339 . S
O305 C326 1.254 . S
O306 Eu263 2.563 . S
O306 C319 1.235 . S
O307 Eu263 2.419 . S
O307 C327 1.249 . S
C308 O297 1.276 . S
C308 O300 1.235 . S
C309 C311 1.393 . S
C309 C313 1.395 . S
C309 C316 1.492 1_565 S
C310 C311 1.392 . S
C310 C312 1.386 . S
C311 C309 1.393 . S
C311 C310 1.392 . S
C311 H328 0.930 . S
C312 C310 1.386 . S
C312 C314 1.395 . S
C312 H329 0.930 . S
C313 C309 1.395 . S
C313 C314 1.379 . S
C313 H330 0.930 . S
C314 C312 1.395 . S
C314 C313 1.379 . S
C314 H331 0.930 . S
C315 O298 1.264 . S
C315 O299 1.254 . S
C316 Eu252 2.848 . S
C316 O296 1.257 . S
C316 O301 1.249 . S
C316 C309 1.492 1_545 S
C317 H282 0.931 1_545 S
C317 C295 1.420 . S
C317 C318 1.351 . S
C318 H280 0.930 1_545 S
C318 C286 1.423 . S
C318 C317 1.351 . S
C319 O303 1.276 . S
C319 O306 1.235 . S
C320 C321 1.393 . S
C320 C324 1.395 . S
C320 C327 1.492 . S
C321 C320 1.393 . S
C321 C322 1.392 . S
C321 H332 0.930 . S
C322 C321 1.392 . S
C322 C323 1.386 . S
C323 C322 1.386 . S
C323 C325 1.395 . S
C323 H333 0.930 . S
C324 C320 1.395 . S
C324 C325 1.379 . S
C324 H334 0.930 . S
C325 C323 1.395 . S
C325 C324 1.379 . S
C325 H335 0.930 . S
C326 O304 1.264 . S
C326 O305 1.254 . S
C327 Eu263 2.848 . S
C327 O302 1.257 . S
C327 O307 1.249 . S
C327 C320 1.492 . S
H328 C311 0.930 . S
H329 C312 0.930 . S
H330 C313 0.930 . S
H331 C314 0.930 . S
H332 C321 0.930 . S
H333 C323 0.930 . S
H334 C324 0.930 . S
H335 C325 0.930 . S
Eu336 N367 2.657 . S
Eu336 N374 2.609 . S
Eu336 O380 2.558 . S
Eu336 O381 2.612 . S
Eu336 O383 2.339 . S
Eu336 O384 2.563 . S
Eu336 O385 2.419 . S
Eu336 O387 2.380 . S
Eu336 O388 2.432 . S
Eu336 C400 2.848 . S
C337 C340 1.429 . S
C337 C341 1.411 . S
C337 N344 1.377 . S
C338 C340 1.420 . S
C338 C342 1.423 . S
C338 C350 1.392 . S
C339 C341 1.420 . S
C339 C342 1.351 . S
C339 H362 0.931 . S
C340 C337 1.429 . S
C340 C338 1.420 . S
C340 N348 1.362 . S
C341 C337 1.411 . S
C341 C339 1.420 . S
C341 C346 1.395 . S
C342 C338 1.423 . S
C342 C339 1.351 . S
C342 H354 0.930 . S
C343 C345 1.400 . S
C343 C346 1.386 . S
C343 H355 0.930 . S
N344 C337 1.377 . S
N344 C345 1.321 . S
N344 Eu347 2.609 . S
C345 C343 1.400 . S
C345 N344 1.321 . S
C345 H352 0.930 . S
C346 C341 1.395 . S
C346 C343 1.386 . S
C346 H365 0.930 . S
Eu347 N344 2.609 . S
Eu347 N348 2.657 . S
Eu347 O381 2.380 . S
Eu347 O382 2.432 . S
Eu347 O386 2.558 . S
Eu347 O387 2.612 . S
Eu347 O389 2.339 . S
Eu347 O390 2.563 . S
Eu347 O391 2.419 . S
Eu347 C411 2.848 . S
N348 C340 1.362 . S
N348 Eu347 2.657 . S
N348 C349 1.334 . S
C349 N348 1.334 . S
C349 C351 1.413 . S
C349 H356 0.929 . S
C350 C338 1.392 . S
C350 C351 1.367 . S
C350 H358 0.930 . S
C351 C349 1.413 . S
C351 C350 1.367 . S
C351 H353 0.930 . S
H352 C345 0.930 . S
H353 C351 0.930 . S
H354 C342 0.930 . S
H355 C343 0.930 . S
H356 C349 0.929 . S
H357 C371 0.930 . S
H358 C350 0.930 . S
H359 C377 0.930 . S
H360 C368 0.929 . S
H361 C375 0.930 . S
H362 C339 0.931 . S
H363 C369 0.913 1_455 S
H364 C402 0.930 . S
H365 C346 0.930 . S
H366 C401 0.931 . S
N367 Eu336 2.657 . S
N367 C368 1.334 . S
N367 C372 1.362 . S
C368 H360 0.929 . S
C368 N367 1.334 . S
C368 C371 1.413 . S
C369 H363 0.913 1_655 S
C369 C370 1.396 . S
C369 C371 1.382 . S
C370 C369 1.396 . S
C370 C372 1.420 . S
C370 C402 1.423 1_655 S
C371 H357 0.930 . S
C371 C368 1.413 . S
C371 C369 1.382 . S
C372 N367 1.362 . S
C372 C370 1.420 . S
C372 C376 1.429 . S
H373 C378 0.930 . S
N374 Eu336 2.609 . S
N374 C376 1.377 . S
N374 C377 1.321 . S
C375 H361 0.930 . S
C375 C377 1.400 . S
C375 C378 1.386 . S
C376 C372 1.429 . S
C376 N374 1.377 . S
C376 C379 1.411 . S
C377 H359 0.930 . S
C377 N374 1.321 . S
C377 C375 1.400 . S
C378 H373 0.930 . S
C378 C375 1.386 . S
C378 C379 1.395 . S
C379 C376 1.411 . S
C379 C378 1.395 . S
C379 C401 1.420 1_655 S
O380 Eu336 2.558 . S
O380 C400 1.257 . S
O381 Eu336 2.612 . S
O381 Eu347 2.380 . S
O381 C392 1.276 . S
O382 Eu347 2.432 . S
O382 C399 1.264 . S
O383 Eu336 2.339 . S
O383 C399 1.254 . S
O384 Eu336 2.563 . S
O384 C392 1.235 . S
O385 Eu336 2.419 . S
O385 C400 1.249 . S
O386 Eu347 2.558 . S
O386 C411 1.257 . S
O387 Eu336 2.380 . S
O387 Eu347 2.612 . S
O387 C403 1.276 . S
O388 Eu336 2.432 . S
O388 C410 1.264 . S
O389 Eu347 2.339 . S
O389 C410 1.254 . S
O390 Eu347 2.563 . S
O390 C403 1.235 . S
O391 Eu347 2.419 . S
O391 C411 1.249 . S
C392 O381 1.276 . S
C392 O384 1.235 . S
C393 C395 1.393 . S
C393 C397 1.395 . S
C393 C400 1.492 . S
C394 C395 1.392 . S
C394 C396 1.386 . S
C395 C393 1.393 . S
C395 C394 1.392 . S
C395 H412 0.930 . S
C396 C394 1.386 . S
C396 C398 1.395 . S
C396 H413 0.930 . S
C397 C393 1.395 . S
C397 C398 1.379 . S
C397 H414 0.930 . S
C398 C396 1.395 . S
C398 C397 1.379 . S
C398 H415 0.930 . S
C399 O382 1.264 . S
C399 O383 1.254 . S
C400 Eu336 2.848 . S
C400 O380 1.257 . S
C400 O385 1.249 . S
C400 C393 1.492 . S
C401 H366 0.931 . S
C401 C379 1.420 1_455 S
C401 C402 1.351 . S
C402 H364 0.930 . S
C402 C370 1.423 1_455 S
C402 C401 1.351 . S
C403 O387 1.276 . S
C403 O390 1.235 . S
C404 C405 1.393 . S
C404 C408 1.395 . S
C404 C411 1.492 . S
C405 C404 1.393 . S
C405 C406 1.392 . S
C405 H416 0.930 . S
C406 C405 1.392 . S
C406 C407 1.386 . S
C407 C406 1.386 . S
C407 C409 1.395 . S
C407 H417 0.930 . S
C408 C404 1.395 . S
C408 C409 1.379 . S
C408 H418 0.930 . S
C409 C407 1.395 . S
C409 C408 1.379 . S
C409 H419 0.930 . S
C410 O388 1.264 . S
C410 O389 1.254 . S
C411 Eu347 2.848 . S
C411 O386 1.257 . S
C411 O391 1.249 . S
C411 C404 1.492 . S
H412 C395 0.930 . S
H413 C396 0.930 . S
H414 C397 0.930 . S
H415 C398 0.930 . S
H416 C405 0.930 . S
H417 C407 0.930 . S
H418 C408 0.930 . S
H419 C409 0.930 . S
Eu420 N451 2.657 . S
Eu420 N458 2.609 . S
Eu420 O464 2.558 . S
Eu420 O465 2.612 . S
Eu420 O467 2.339 . S
Eu420 O468 2.563 . S
Eu420 O469 2.419 . S
Eu420 O471 2.380 . S
Eu420 O472 2.432 . S
Eu420 C484 2.848 . S
C421 C424 1.429 . S
C421 C425 1.411 . S
C421 N428 1.377 . S
C422 C424 1.420 . S
C422 C426 1.423 1_545 S
C422 C434 1.398 . S
C423 C425 1.420 1_565 S
C423 C426 1.351 . S
C423 H446 0.931 . S
C424 C421 1.429 . S
C424 C422 1.420 . S
C424 N432 1.362 . S
C425 C421 1.411 . S
C425 C423 1.420 1_545 S
C425 C430 1.395 . S
C426 C422 1.423 1_565 S
C426 C423 1.351 . S
C426 H438 0.930 . S
C427 C429 1.400 . S
C427 C430 1.386 . S
C427 H439 0.930 . S
N428 C421 1.377 . S
N428 C429 1.321 . S
N428 Eu431 2.609 . S
C429 C427 1.400 . S
C429 N428 1.321 . S
C429 H436 0.930 . S
C430 C425 1.395 . S
C430 C427 1.386 . S
C430 H449 0.930 . S
Eu431 N428 2.609 . S
Eu431 N432 2.657 . S
Eu431 O465 2.380 . S
Eu431 O466 2.432 . S
Eu431 O470 2.558 . S
Eu431 O471 2.612 . S
Eu431 O473 2.339 . S
Eu431 O474 2.563 . S
Eu431 O475 2.419 . S
Eu431 C495 2.848 . S
N432 C424 1.362 . S
N432 Eu431 2.657 . S
N432 C433 1.334 . S
C433 N432 1.334 . S
C433 C435 1.413 . S
C433 H440 0.929 . S
C434 C422 1.398 . S
C434 C435 1.379 . S
C434 H442 0.912 1_545 S
C435 C433 1.413 . S
C435 C434 1.379 . S
C435 H437 0.930 . S
H436 C429 0.930 . S
H437 C435 0.930 . S
H438 C426 0.930 . S
H439 C427 0.930 . S
H440 C433 0.929 . S
H441 C455 0.930 . S
H442 C434 0.912 1_565 S
H443 C461 0.930 . S
H444 C452 0.929 . S
H445 C459 0.930 . S
H446 C423 0.931 . S
H447 C453 0.930 . S
H448 C486 0.930 1_455 S
H449 C430 0.930 . S
H450 C485 0.931 1_455 S
N451 Eu420 2.657 . S
N451 C452 1.334 . S
N451 C456 1.362 . S
C452 H444 0.929 . S
C452 N451 1.334 . S
C452 C455 1.413 . S
C453 H447 0.930 . S
C453 C454 1.392 . S
C453 C455 1.367 . S
C454 C453 1.392 . S
C454 C456 1.420 . S
C454 C486 1.423 . S
C455 H441 0.930 . S
C455 C452 1.413 . S
C455 C453 1.367 . S
C456 N451 1.362 . S
C456 C454 1.420 . S
C456 C460 1.429 . S
H457 C462 0.930 . S
N458 Eu420 2.609 . S
N458 C460 1.377 . S
N458 C461 1.321 . S
C459 H445 0.930 . S
C459 C461 1.400 . S
C459 C462 1.386 . S
C460 C456 1.429 . S
C460 N458 1.377 . S
C460 C463 1.411 . S
C461 H443 0.930 . S
C461 N458 1.321 . S
C461 C459 1.400 . S
C462 H457 0.930 . S
C462 C459 1.386 . S
C462 C463 1.395 . S
C463 C460 1.411 . S
C463 C462 1.395 . S
C463 C485 1.420 . S
O464 Eu420 2.558 . S
O464 C484 1.257 . S
O465 Eu420 2.612 . S
O465 Eu431 2.380 . S
O465 C476 1.276 . S
O466 Eu431 2.432 . S
O466 C483 1.264 . S
O467 Eu420 2.339 . S
O467 C483 1.254 . S
O468 Eu420 2.563 . S
O468 C476 1.235 . S
O469 Eu420 2.419 . S
O469 C484 1.249 . S
O470 Eu431 2.558 . S
O470 C495 1.257 . S
O471 Eu420 2.380 . S
O471 Eu431 2.612 . S
O471 C487 1.276 . S
O472 Eu420 2.432 . S
O472 C494 1.264 . S
O473 Eu431 2.339 . S
O473 C494 1.254 . S
O474 Eu431 2.563 . S
O474 C487 1.235 . S
O475 Eu431 2.419 . S
O475 C495 1.249 . S
C476 O465 1.276 . S
C476 O468 1.235 . S
C477 C479 1.393 . S
C477 C481 1.395 . S
C477 C484 1.492 1_455 S
C478 C479 1.392 . S
C478 C480 1.386 . S
C479 C477 1.393 . S
C479 C478 1.392 . S
C479 H496 0.930 . S
C480 C478 1.386 . S
C480 C482 1.395 . S
C480 H497 0.930 . S
C481 C477 1.395 . S
C481 C482 1.379 . S
C481 H498 0.930 . S
C482 C480 1.395 . S
C482 C481 1.379 . S
C482 H499 0.930 . S
C483 O466 1.264 . S
C483 O467 1.254 . S
C484 Eu420 2.848 . S
C484 O464 1.257 . S
C484 O469 1.249 . S
C484 C477 1.492 1_655 S
C485 H450 0.931 1_655 S
C485 C463 1.420 . S
C485 C486 1.351 . S
C486 H448 0.930 1_655 S
C486 C454 1.423 . S
C486 C485 1.351 . S
C487 O471 1.276 . S
C487 O474 1.235 . S
C488 C489 1.393 . S
C488 C492 1.395 . S
C488 C495 1.492 . S
C489 C488 1.393 . S
C489 C490 1.392 . S
C489 H500 0.930 . S
C490 C489 1.392 . S
C490 C491 1.386 . S
C491 C490 1.386 . S
C491 C493 1.395 . S
C491 H501 0.930 . S
C492 C488 1.395 . S
C492 C493 1.379 . S
C492 H502 0.930 . S
C493 C491 1.395 . S
C493 C492 1.379 . S
C493 H503 0.930 . S
C494 O472 1.264 . S
C494 O473 1.254 . S
C495 Eu431 2.848 . S
C495 O470 1.257 . S
C495 O475 1.249 . S
C495 C488 1.492 . S
H496 C479 0.930 . S
H497 C480 0.930 . S
H498 C481 0.930 . S
H499 C482 0.930 . S
H500 C489 0.930 . S
H501 C491 0.930 . S
H502 C492 0.930 . S
H503 C493 0.930 . S
Eu504 N535 2.657 . S
Eu504 N542 2.609 . S
Eu504 O548 2.558 . S
Eu504 O549 2.612 . S
Eu504 O551 2.339 . S
Eu504 O552 2.563 . S
Eu504 O553 2.419 . S
Eu504 O555 2.380 . S
Eu504 O556 2.432 . S
Eu504 C568 2.848 . S
C505 C508 1.429 . S
C505 C509 1.411 . S
C505 N512 1.377 . S
C506 C508 1.420 . S
C506 C510 1.423 . S
C506 C518 1.392 . S
C507 C509 1.420 . S
C507 C510 1.351 . S
C507 H530 0.931 . S
C508 C505 1.429 . S
C508 C506 1.420 . S
C508 N516 1.362 . S
C509 C505 1.411 . S
C509 C507 1.420 . S
C509 C514 1.395 . S
C510 C506 1.423 . S
C510 C507 1.351 . S
C510 H522 0.930 . S
C511 C513 1.400 . S
C511 C514 1.386 . S
C511 H523 0.930 . S
N512 C505 1.377 . S
N512 C513 1.321 . S
N512 Eu515 2.609 . S
C513 C511 1.400 . S
C513 N512 1.321 . S
C513 H520 0.930 . S
C514 C509 1.395 . S
C514 C511 1.386 . S
C514 H533 0.930 . S
Eu515 N512 2.609 . S
Eu515 N516 2.657 . S
Eu515 O549 2.380 . S
Eu515 O550 2.432 . S
Eu515 O554 2.558 . S
Eu515 O555 2.612 . S
Eu515 O557 2.339 . S
Eu515 O558 2.563 . S
Eu515 O559 2.419 . S
Eu515 C579 2.848 . S
N516 C508 1.362 . S
N516 Eu515 2.657 . S
N516 C517 1.334 . S
C517 N516 1.334 . S
C517 C519 1.413 . S
C517 H524 0.929 . S
C518 C506 1.392 . S
C518 C519 1.367 . S
C518 H526 0.930 . S
C519 C517 1.413 . S
C519 C518 1.367 . S
C519 H521 0.930 . S
H520 C513 0.930 . S
H521 C519 0.930 . S
H522 C510 0.930 . S
H523 C511 0.930 . S
H524 C517 0.929 . S
H525 C539 0.930 . S
H526 C518 0.930 . S
H527 C545 0.930 . S
H528 C536 0.929 . S
H529 C543 0.930 . S
H530 C507 0.931 . S
H531 C537 0.930 . S
H532 C570 0.930 1_655 S
H533 C514 0.930 . S
H534 C569 0.931 1_655 S
N535 Eu504 2.657 . S
N535 C536 1.334 . S
N535 C540 1.362 . S
C536 H528 0.929 . S
C536 N535 1.334 . S
C536 C539 1.413 . S
C537 H531 0.930 . S
C537 C538 1.392 . S
C537 C539 1.367 . S
C538 C537 1.392 . S
C538 C540 1.420 . S
C538 C570 1.423 . S
C539 H525 0.930 . S
C539 C536 1.413 . S
C539 C537 1.367 . S
C540 N535 1.362 . S
C540 C538 1.420 . S
C540 C544 1.429 . S
H541 C546 0.930 . S
N542 Eu504 2.609 . S
N542 C544 1.377 . S
N542 C545 1.321 . S
C543 H529 0.930 . S
C543 C545 1.400 . S
C543 C546 1.386 . S
C544 C540 1.429 . S
C544 N542 1.377 . S
C544 C547 1.411 . S
C545 H527 0.930 . S
C545 N542 1.321 . S
C545 C543 1.400 . S
C546 H541 0.930 . S
C546 C543 1.386 . S
C546 C547 1.395 . S
C547 C544 1.411 . S
C547 C546 1.395 . S
C547 C569 1.420 . S
O548 Eu504 2.558 . S
O548 C568 1.257 . S
O549 Eu504 2.612 . S
O549 Eu515 2.380 . S
O549 C560 1.276 . S
O550 Eu515 2.432 . S
O550 C567 1.264 . S
O551 Eu504 2.339 . S
O551 C567 1.254 . S
O552 Eu504 2.563 . S
O552 C560 1.235 . S
O553 Eu504 2.419 . S
O553 C568 1.249 . S
O554 Eu515 2.558 . S
O554 C579 1.257 . S
O555 Eu504 2.380 . S
O555 Eu515 2.612 . S
O555 C571 1.276 . S
O556 Eu504 2.432 . S
O556 C578 1.264 . S
O557 Eu515 2.339 . S
O557 C578 1.254 . S
O558 Eu515 2.563 . S
O558 C571 1.235 . S
O559 Eu515 2.419 . S
O559 C579 1.249 . S
C560 O549 1.276 . S
C560 O552 1.235 . S
C561 C563 1.393 . S
C561 C565 1.395 . S
C561 C568 1.492 1_655 S
C562 C563 1.392 . S
C562 C564 1.386 . S
C563 C561 1.393 . S
C563 C562 1.392 . S
C563 H580 0.930 . S
C564 C562 1.386 . S
C564 C566 1.395 . S
C564 H581 0.930 . S
C565 C561 1.395 . S
C565 C566 1.379 . S
C565 H582 0.930 . S
C566 C564 1.395 . S
C566 C565 1.379 . S
C566 H583 0.930 . S
C567 O550 1.264 . S
C567 O551 1.254 . S
C568 Eu504 2.848 . S
C568 O548 1.257 . S
C568 O553 1.249 . S
C568 C561 1.492 1_455 S
C569 H534 0.931 1_455 S
C569 C547 1.420 . S
C569 C570 1.351 . S
C570 H532 0.930 1_455 S
C570 C538 1.423 . S
C570 C569 1.351 . S
C571 O555 1.276 . S
C571 O558 1.235 . S
C572 C573 1.393 . S
C572 C576 1.395 . S
C572 C579 1.492 . S
C573 C572 1.393 . S
C573 C574 1.392 . S
C573 H584 0.930 . S
C574 C573 1.392 . S
C574 C575 1.386 . S
C575 C574 1.386 . S
C575 C577 1.395 . S
C575 H585 0.930 . S
C576 C572 1.395 . S
C576 C577 1.379 . S
C576 H586 0.930 . S
C577 C575 1.395 . S
C577 C576 1.379 . S
C577 H587 0.930 . S
C578 O556 1.264 . S
C578 O557 1.254 . S
C579 Eu515 2.848 . S
C579 O554 1.257 . S
C579 O559 1.249 . S
C579 C572 1.492 . S
H580 C563 0.930 . S
H581 C564 0.930 . S
H582 C565 0.930 . S
H583 C566 0.930 . S
H584 C573 0.930 . S
H585 C575 0.930 . S
H586 C576 0.930 . S
H587 C577 0.930 . S
Eu588 N619 2.657 . S
Eu588 N626 2.609 . S
Eu588 O632 2.558 . S
Eu588 O633 2.612 . S
Eu588 O635 2.339 . S
Eu588 O636 2.563 . S
Eu588 O637 2.419 . S
Eu588 O639 2.380 . S
Eu588 O640 2.432 . S
Eu588 C652 2.848 . S
C589 C592 1.429 . S
C589 C593 1.411 . S
C589 N596 1.377 . S
C590 C592 1.420 . S
C590 C594 1.423 . S
C590 C602 1.392 . S
C591 C593 1.420 . S
C591 C594 1.351 . S
C591 H614 0.931 1_565 S
C592 C589 1.429 . S
C592 C590 1.420 . S
C592 N600 1.362 . S
C593 C589 1.411 . S
C593 C591 1.420 . S
C593 C598 1.395 . S
C594 C590 1.423 . S
C594 C591 1.351 . S
C594 H606 0.930 1_565 S
C595 C597 1.400 . S
C595 C598 1.386 . S
C595 H607 0.930 . S
N596 C589 1.377 . S
N596 C597 1.321 . S
N596 Eu599 2.609 . S
C597 C595 1.400 . S
C597 N596 1.321 . S
C597 H604 0.930 . S
C598 C593 1.395 . S
C598 C595 1.386 . S
C598 H617 0.930 . S
Eu599 N596 2.609 . S
Eu599 N600 2.657 . S
Eu599 O633 2.380 . S
Eu599 O634 2.432 . S
Eu599 O638 2.558 . S
Eu599 O639 2.612 . S
Eu599 O641 2.339 . S
Eu599 O642 2.563 . S
Eu599 O643 2.419 . S
Eu599 C663 2.848 . S
N600 C592 1.362 . S
N600 Eu599 2.657 . S
N600 C601 1.334 . S
C601 N600 1.334 . S
C601 C603 1.413 . S
C601 H608 0.929 . S
C602 C590 1.392 . S
C602 C603 1.367 . S
C602 H610 0.930 . S
C603 C601 1.413 . S
C603 C602 1.367 . S
C603 H605 0.930 . S
H604 C597 0.930 . S
H605 C603 0.930 . S
H606 C594 0.930 1_545 S
H607 C595 0.930 . S
H608 C601 0.929 . S
H609 C623 0.930 . S
H610 C602 0.930 . S
H611 C629 0.930 . S
H612 C620 0.929 . S
H613 C627 0.930 . S
H614 C591 0.931 1_545 S
H615 C621 0.912 1_655 S
H616 C654 0.930 . S
H617 C598 0.930 . S
H618 C653 0.931 . S
N619 Eu588 2.657 . S
N619 C620 1.334 . S
N619 C624 1.362 . S
C620 H612 0.929 . S
C620 N619 1.334 . S
C620 C623 1.413 . S
C621 H615 0.912 1_455 S
C621 C622 1.398 . S
C621 C623 1.379 . S
C622 C621 1.398 . S
C622 C624 1.420 . S
C622 C654 1.423 1_455 S
C623 H609 0.930 . S
C623 C620 1.413 . S
C623 C621 1.379 . S
C624 N619 1.362 . S
C624 C622 1.420 . S
C624 C628 1.429 . S
H625 C630 0.930 . S
N626 Eu588 2.609 . S
N626 C628 1.377 . S
N626 C629 1.321 . S
C627 H613 0.930 . S
C627 C629 1.400 . S
C627 C630 1.386 . S
C628 C624 1.429 . S
C628 N626 1.377 . S
C628 C631 1.411 . S
C629 H611 0.930 . S
C629 N626 1.321 . S
C629 C627 1.400 . S
C630 H625 0.930 . S
C630 C627 1.386 . S
C630 C631 1.395 . S
C631 C628 1.411 . S
C631 C630 1.395 . S
C631 C653 1.420 1_455 S
O632 Eu588 2.558 . S
O632 C652 1.257 . S
O633 Eu588 2.612 . S
O633 Eu599 2.380 . S
O633 C644 1.276 . S
O634 Eu599 2.432 . S
O634 C651 1.264 . S
O635 Eu588 2.339 . S
O635 C651 1.254 . S
O636 Eu588 2.563 . S
O636 C644 1.235 . S
O637 Eu588 2.419 . S
O637 C652 1.249 . S
O638 Eu599 2.558 . S
O638 C663 1.257 . S
O639 Eu588 2.380 . S
O639 Eu599 2.612 . S
O639 C655 1.276 . S
O640 Eu588 2.432 . S
O640 C662 1.264 . S
O641 Eu599 2.339 . S
O641 C662 1.254 . S
O642 Eu599 2.563 . S
O642 C655 1.235 . S
O643 Eu599 2.419 . S
O643 C663 1.249 . S
C644 O633 1.276 . S
C644 O636 1.235 . S
C645 C647 1.393 . S
C645 C649 1.395 . S
C645 C652 1.492 . S
C646 C647 1.392 . S
C646 C648 1.386 . S
C647 C645 1.393 . S
C647 C646 1.392 . S
C647 H664 0.930 . S
C648 C646 1.386 . S
C648 C650 1.395 . S
C648 H665 0.930 . S
C649 C645 1.395 . S
C649 C650 1.379 . S
C649 H666 0.930 . S
C650 C648 1.395 . S
C650 C649 1.379 . S
C650 H667 0.930 . S
C651 O634 1.264 . S
C651 O635 1.254 . S
C652 Eu588 2.848 . S
C652 O632 1.257 . S
C652 O637 1.249 . S
C652 C645 1.492 . S
C653 H618 0.931 . S
C653 C631 1.420 1_655 S
C653 C654 1.351 . S
C654 H616 0.930 . S
C654 C622 1.423 1_655 S
C654 C653 1.351 . S
C655 O639 1.276 . S
C655 O642 1.235 . S
C656 C657 1.393 . S
C656 C660 1.395 . S
C656 C663 1.492 1_545 S
C657 C656 1.393 . S
C657 C658 1.392 . S
C657 H668 0.930 . S
C658 C657 1.392 . S
C658 C659 1.386 . S
C659 C658 1.386 . S
C659 C661 1.395 . S
C659 H669 0.930 . S
C660 C656 1.395 . S
C660 C661 1.379 . S
C660 H670 0.930 . S
C661 C659 1.395 . S
C661 C660 1.379 . S
C661 H671 0.930 . S
C662 O640 1.264 . S
C662 O641 1.254 . S
C663 Eu599 2.848 . S
C663 O638 1.257 . S
C663 O643 1.249 . S
C663 C656 1.492 1_565 S
H664 C647 0.930 . S
H665 C648 0.930 . S
H666 C649 0.930 . S
H667 C650 0.930 . S
H668 C657 0.930 . S
H669 C659 0.930 . S
H670 C660 0.930 . S
H671 C661 0.930 . S
Eu672 N703 2.657 . S
Eu672 N710 2.609 . S
Eu672 O716 2.558 . S
Eu672 O717 2.612 . S
Eu672 O719 2.339 . S
Eu672 O720 2.563 . S
Eu672 O721 2.419 . S
Eu672 O723 2.380 . S
Eu672 O724 2.432 . S
Eu672 C736 2.848 . S
C673 C676 1.429 . S
C673 C677 1.411 . S
C673 N680 1.377 . S
C674 C676 1.420 . S
C674 C678 1.423 1_565 S
C674 C686 1.396 . S
C675 C677 1.420 1_545 S
C675 C678 1.351 . S
C675 H698 0.931 . S
C676 C673 1.429 . S
C676 C674 1.420 . S
C676 N684 1.362 . S
C677 C673 1.411 . S
C677 C675 1.420 1_565 S
C677 C682 1.395 . S
C678 C674 1.423 1_545 S
C678 C675 1.351 . S
C678 H690 0.930 . S
C679 C681 1.400 . S
C679 C682 1.386 . S
C679 H691 0.930 . S
N680 C673 1.377 . S
N680 C681 1.321 . S
N680 Eu683 2.609 . S
C681 C679 1.400 . S
C681 N680 1.321 . S
C681 H688 0.930 . S
C682 C677 1.395 . S
C682 C679 1.386 . S
C682 H701 0.930 . S
Eu683 N680 2.609 . S
Eu683 N684 2.657 . S
Eu683 O717 2.380 . S
Eu683 O718 2.432 . S
Eu683 O722 2.558 . S
Eu683 O723 2.612 . S
Eu683 O725 2.339 . S
Eu683 O726 2.563 . S
Eu683 O727 2.419 . S
Eu683 C747 2.848 . S
N684 C676 1.362 . S
N684 Eu683 2.657 . S
N684 C685 1.334 . S
C685 N684 1.334 . S
C685 C687 1.413 . S
C685 H692 0.929 . S
C686 C674 1.396 . S
C686 C687 1.382 . S
C686 H694 0.913 1_565 S
C687 C685 1.413 . S
C687 C686 1.382 . S
C687 H689 0.930 . S
H688 C681 0.930 . S
H689 C687 0.930 . S
H690 C678 0.930 . S
H691 C679 0.930 . S
H692 C685 0.929 . S
H693 C707 0.930 . S
H694 C686 0.913 1_545 S
H695 C713 0.930 . S
H696 C704 0.929 . S
H697 C711 0.930 . S
H698 C675 0.931 . S
H699 C705 0.930 . S
H700 C738 0.930 . S
H701 C682 0.930 . S
H702 C737 0.931 . S
N703 Eu672 2.657 . S
N703 C704 1.334 . S
N703 C708 1.362 . S
C704 H696 0.929 . S
C704 N703 1.334 . S
C704 C707 1.413 . S
C705 H699 0.930 . S
C705 C706 1.392 . S
C705 C707 1.367 . S
C706 C705 1.392 . S
C706 C708 1.420 . S
C706 C738 1.423 . S
C707 H693 0.930 . S
C707 C704 1.413 . S
C707 C705 1.367 . S
C708 N703 1.362 . S
C708 C706 1.420 . S
C708 C712 1.429 . S
H709 C714 0.930 . S
N710 Eu672 2.609 . S
N710 C712 1.377 . S
N710 C713 1.321 . S
C711 H697 0.930 . S
C711 C713 1.400 . S
C711 C714 1.386 . S
C712 C708 1.429 . S
C712 N710 1.377 . S
C712 C715 1.411 . S
C713 H695 0.930 . S
C713 N710 1.321 . S
C713 C711 1.400 . S
C714 H709 0.930 . S
C714 C711 1.386 . S
C714 C715 1.395 . S
C715 C712 1.411 . S
C715 C714 1.395 . S
C715 C737 1.420 . S
O716 Eu672 2.558 . S
O716 C736 1.257 . S
O717 Eu672 2.612 . S
O717 Eu683 2.380 . S
O717 C728 1.276 . S
O718 Eu683 2.432 . S
O718 C735 1.264 . S
O719 Eu672 2.339 . S
O719 C735 1.254 . S
O720 Eu672 2.563 . S
O720 C728 1.235 . S
O721 Eu672 2.419 . S
O721 C736 1.249 . S
O722 Eu683 2.558 . S
O722 C747 1.257 . S
O723 Eu672 2.380 . S
O723 Eu683 2.612 . S
O723 C739 1.276 . S
O724 Eu672 2.432 . S
O724 C746 1.264 . S
O725 Eu683 2.339 . S
O725 C746 1.254 . S
O726 Eu683 2.563 . S
O726 C739 1.235 . S
O727 Eu683 2.419 . S
O727 C747 1.249 . S
C728 O717 1.276 . S
C728 O720 1.235 . S
C729 C731 1.393 . S
C729 C733 1.395 . S
C729 C736 1.492 . S
C730 C731 1.392 . S
C730 C732 1.386 . S
C731 C729 1.393 . S
C731 C730 1.392 . S
C731 H748 0.930 . S
C732 C730 1.386 . S
C732 C734 1.395 . S
C732 H749 0.930 . S
C733 C729 1.395 . S
C733 C734 1.379 . S
C733 H750 0.930 . S
C734 C732 1.395 . S
C734 C733 1.379 . S
C734 H751 0.930 . S
C735 O718 1.264 . S
C735 O719 1.254 . S
C736 Eu672 2.848 . S
C736 O716 1.257 . S
C736 O721 1.249 . S
C736 C729 1.492 . S
C737 H702 0.931 . S
C737 C715 1.420 . S
C737 C738 1.351 . S
C738 H700 0.930 . S
C738 C706 1.423 . S
C738 C737 1.351 . S
C739 O723 1.276 . S
C739 O726 1.235 . S
C740 C741 1.393 . S
C740 C744 1.395 . S
C740 C747 1.492 . S
C741 C740 1.393 . S
C741 C742 1.392 . S
C741 H752 0.930 . S
C742 C741 1.392 . S
C742 C743 1.386 . S
C743 C742 1.386 . S
C743 C745 1.395 . S
C743 H753 0.930 . S
C744 C740 1.395 . S
C744 C745 1.379 . S
C744 H754 0.930 . S
C745 C743 1.395 . S
C745 C744 1.379 . S
C745 H755 0.930 . S
C746 O724 1.264 . S
C746 O725 1.254 . S
C747 Eu683 2.848 . S
C747 O722 1.257 . S
C747 O727 1.249 . S
C747 C740 1.492 . S
H748 C731 0.930 . S
H749 C732 0.930 . S
H750 C733 0.930 . S
H751 C734 0.930 . S
H752 C741 0.930 . S
H753 C743 0.930 . S
H754 C744 0.930 . S
H755 C745 0.930 . S
Eu756 N787 2.657 . S
Eu756 N794 2.609 . S
Eu756 O800 2.558 . S
Eu756 O801 2.612 . S
Eu756 O803 2.339 . S
Eu756 O804 2.563 . S
Eu756 O805 2.419 . S
Eu756 O807 2.380 . S
Eu756 O808 2.432 . S
Eu756 C820 2.848 . S
C757 C760 1.429 . S
C757 C761 1.411 . S
C757 N764 1.377 . S
C758 C760 1.420 . S
C758 C762 1.423 . S
C758 C770 1.392 . S
C759 C761 1.420 . S
C759 C762 1.351 . S
C759 H782 0.931 1_455 S
C760 C757 1.429 . S
C760 C758 1.420 . S
C760 N768 1.362 . S
C761 C757 1.411 . S
C761 C759 1.420 . S
C761 C766 1.395 . S
C762 C758 1.423 . S
C762 C759 1.351 . S
C762 H774 0.930 1_455 S
C763 C765 1.400 . S
C763 C766 1.386 . S
C763 H775 0.930 . S
N764 C757 1.377 . S
N764 C765 1.321 . S
N764 Eu767 2.609 . S
C765 C763 1.400 . S
C765 N764 1.321 . S
C765 H772 0.930 . S
C766 C761 1.395 . S
C766 C763 1.386 . S
C766 H785 0.930 . S
Eu767 N764 2.609 . S
Eu767 N768 2.657 . S
Eu767 O801 2.380 . S
Eu767 O802 2.432 . S
Eu767 O806 2.558 . S
Eu767 O807 2.612 . S
Eu767 O809 2.339 . S
Eu767 O810 2.563 . S
Eu767 O811 2.419 . S
Eu767 C831 2.848 . S
N768 C760 1.362 . S
N768 Eu767 2.657 . S
N768 C769 1.334 . S
C769 N768 1.334 . S
C769 C771 1.413 . S
C769 H776 0.929 . S
C770 C758 1.392 . S
C770 C771 1.367 . S
C770 H778 0.930 . S
C771 C769 1.413 . S
C771 C770 1.367 . S
C771 H773 0.930 . S
H772 C765 0.930 . S
H773 C771 0.930 . S
H774 C762 0.930 1_655 S
H775 C763 0.930 . S
H776 C769 0.929 . S
H777 C791 0.930 . S
H778 C770 0.930 . S
H779 C797 0.930 . S
H780 C788 0.929 . S
H781 C795 0.930 . S
H782 C759 0.931 1_655 S
H783 C789 0.930 . S
H784 C822 0.930 . S
H785 C766 0.930 . S
H786 C821 0.931 . S
N787 Eu756 2.657 . S
N787 C788 1.334 . S
N787 C792 1.362 . S
C788 H780 0.929 . S
C788 N787 1.334 . S
C788 C791 1.413 . S
C789 H783 0.930 . S
C789 C790 1.392 . S
C789 C791 1.367 . S
C790 C789 1.392 . S
C790 C792 1.420 . S
C790 C822 1.423 . S
C791 H777 0.930 . S
C791 C788 1.413 . S
C791 C789 1.367 . S
C792 N787 1.362 . S
C792 C790 1.420 . S
C792 C796 1.429 . S
H793 C798 0.930 . S
N794 Eu756 2.609 . S
N794 C796 1.377 . S
N794 C797 1.321 . S
C795 H781 0.930 . S
C795 C797 1.400 . S
C795 C798 1.386 . S
C796 C792 1.429 . S
C796 N794 1.377 . S
C796 C799 1.411 . S
C797 H779 0.930 . S
C797 N794 1.321 . S
C797 C795 1.400 . S
C798 H793 0.930 . S
C798 C795 1.386 . S
C798 C799 1.395 . S
C799 C796 1.411 . S
C799 C798 1.395 . S
C799 C821 1.420 . S
O800 Eu756 2.558 . S
O800 C820 1.257 . S
O801 Eu756 2.612 . S
O801 Eu767 2.380 . S
O801 C812 1.276 . S
O802 Eu767 2.432 . S
O802 C819 1.264 . S
O803 Eu756 2.339 . S
O803 C819 1.254 . S
O804 Eu756 2.563 . S
O804 C812 1.235 . S
O805 Eu756 2.419 . S
O805 C820 1.249 . S
O806 Eu767 2.558 . S
O806 C831 1.257 . S
O807 Eu756 2.380 . S
O807 Eu767 2.612 . S
O807 C823 1.276 . S
O808 Eu756 2.432 . S
O808 C830 1.264 . S
O809 Eu767 2.339 . S
O809 C830 1.254 . S
O810 Eu767 2.563 . S
O810 C823 1.235 . S
O811 Eu767 2.419 . S
O811 C831 1.249 . S
C812 O801 1.276 . S
C812 O804 1.235 . S
C813 C815 1.393 . S
C813 C817 1.395 . S
C813 C820 1.492 . S
C814 C815 1.392 . S
C814 C816 1.386 . S
C815 C813 1.393 . S
C815 C814 1.392 . S
C815 H832 0.930 . S
C816 C814 1.386 . S
C816 C818 1.395 . S
C816 H833 0.930 . S
C817 C813 1.395 . S
C817 C818 1.379 . S
C817 H834 0.930 . S
C818 C816 1.395 . S
C818 C817 1.379 . S
C818 H835 0.930 . S
C819 O802 1.264 . S
C819 O803 1.254 . S
C820 Eu756 2.848 . S
C820 O800 1.257 . S
C820 O805 1.249 . S
C820 C813 1.492 . S
C821 H786 0.931 . S
C821 C799 1.420 . S
C821 C822 1.351 . S
C822 H784 0.930 . S
C822 C790 1.423 . S
C822 C821 1.351 . S
C823 O807 1.276 . S
C823 O810 1.235 . S
C824 C825 1.393 . S
C824 C828 1.395 . S
C824 C831 1.492 1_655 S
C825 C824 1.393 . S
C825 C826 1.392 . S
C825 H836 0.930 . S
C826 C825 1.392 . S
C826 C827 1.386 . S
C827 C826 1.386 . S
C827 C829 1.395 . S
C827 H837 0.930 . S
C828 C824 1.395 . S
C828 C829 1.379 . S
C828 H838 0.930 . S
C829 C827 1.395 . S
C829 C828 1.379 . S
C829 H839 0.930 . S
C830 O808 1.264 . S
C830 O809 1.254 . S
C831 Eu767 2.848 . S
C831 O806 1.257 . S
C831 O811 1.249 . S
C831 C824 1.492 1_455 S
H832 C815 0.930 . S
H833 C816 0.930 . S
H834 C817 0.930 . S
H835 C818 0.930 . S
H836 C825 0.930 . S
H837 C827 0.930 . S
H838 C828 0.930 . S
H839 C829 0.930 . S
Eu840 N871 2.657 . S
Eu840 N878 2.609 . S
Eu840 O884 2.558 . S
Eu840 O885 2.612 . S
Eu840 O887 2.339 . S
Eu840 O888 2.563 . S
Eu840 O889 2.419 . S
Eu840 O891 2.380 . S
Eu840 O892 2.432 . S
Eu840 C904 2.848 . S
C841 C844 1.429 . S
C841 C845 1.411 . S
C841 N848 1.377 . S
C842 C844 1.420 . S
C842 C846 1.423 1_455 S
C842 C854 1.398 . S
C843 C845 1.420 1_655 S
C843 C846 1.351 . S
C843 H866 0.931 . S
C844 C841 1.429 . S
C844 C842 1.420 . S
C844 N852 1.362 . S
C845 C841 1.411 . S
C845 C843 1.420 1_455 S
C845 C850 1.395 . S
C846 C842 1.423 1_655 S
C846 C843 1.351 . S
C846 H858 0.930 . S
C847 C849 1.400 . S
C847 C850 1.386 . S
C847 H859 0.930 . S
N848 C841 1.377 . S
N848 C849 1.321 . S
N848 Eu851 2.609 . S
C849 C847 1.400 . S
C849 N848 1.321 . S
C849 H856 0.930 . S
C850 C845 1.395 . S
C850 C847 1.386 . S
C850 H869 0.930 . S
Eu851 N848 2.609 . S
Eu851 N852 2.657 . S
Eu851 O885 2.380 . S
Eu851 O886 2.432 . S
Eu851 O890 2.558 . S
Eu851 O891 2.612 . S
Eu851 O893 2.339 . S
Eu851 O894 2.563 . S
Eu851 O895 2.419 . S
Eu851 C915 2.848 . S
N852 C844 1.362 . S
N852 Eu851 2.657 . S
N852 C853 1.334 . S
C853 N852 1.334 . S
C853 C855 1.413 . S
C853 H860 0.929 . S
C854 C842 1.398 . S
C854 C855 1.379 . S
C854 H862 0.913 1_455 S
C855 C853 1.413 . S
C855 C854 1.379 . S
C855 H857 0.930 . S
H856 C849 0.930 . S
H857 C855 0.930 . S
H858 C846 0.930 . S
H859 C847 0.930 . S
H860 C853 0.929 . S
H861 C875 0.930 . S
H862 C854 0.913 1_655 S
H863 C881 0.930 . S
H864 C872 0.929 . S
H865 C879 0.930 . S
H866 C843 0.931 . S
H867 C873 0.930 . S
H868 C906 0.930 1_545 S
H869 C850 0.930 . S
H870 C905 0.931 1_545 S
N871 Eu840 2.657 . S
N871 C872 1.334 . S
N871 C876 1.362 . S
C872 H864 0.929 . S
C872 N871 1.334 . S
C872 C875 1.413 . S
C873 H867 0.930 . S
C873 C874 1.392 . S
C873 C875 1.367 . S
C874 C873 1.392 . S
C874 C876 1.420 . S
C874 C906 1.423 . S
C875 H861 0.930 . S
C875 C872 1.413 . S
C875 C873 1.367 . S
C876 N871 1.362 . S
C876 C874 1.420 . S
C876 C880 1.429 . S
H877 C882 0.930 . S
N878 Eu840 2.609 . S
N878 C880 1.377 . S
N878 C881 1.321 . S
C879 H865 0.930 . S
C879 C881 1.400 . S
C879 C882 1.386 . S
C880 C876 1.429 . S
C880 N878 1.377 . S
C880 C883 1.411 . S
C881 H863 0.930 . S
C881 N878 1.321 . S
C881 C879 1.400 . S
C882 H877 0.930 . S
C882 C879 1.386 . S
C882 C883 1.395 . S
C883 C880 1.411 . S
C883 C882 1.395 . S
C883 C905 1.420 . S
O884 Eu840 2.558 . S
O884 C904 1.257 . S
O885 Eu840 2.612 . S
O885 Eu851 2.380 . S
O885 C896 1.276 . S
O886 Eu851 2.432 . S
O886 C903 1.264 . S
O887 Eu840 2.339 . S
O887 C903 1.254 . S
O888 Eu840 2.563 . S
O888 C896 1.235 . S
O889 Eu840 2.419 . S
O889 C904 1.249 . S
O890 Eu851 2.558 . S
O890 C915 1.257 . S
O891 Eu840 2.380 . S
O891 Eu851 2.612 . S
O891 C907 1.276 . S
O892 Eu840 2.432 . S
O892 C914 1.264 . S
O893 Eu851 2.339 . S
O893 C914 1.254 . S
O894 Eu851 2.563 . S
O894 C907 1.235 . S
O895 Eu851 2.419 . S
O895 C915 1.249 . S
C896 O885 1.276 . S
C896 O888 1.235 . S
C897 C899 1.393 . S
C897 C901 1.395 . S
C897 C904 1.492 1_545 S
C898 C899 1.392 . S
C898 C900 1.386 . S
C899 C897 1.393 . S
C899 C898 1.392 . S
C899 H916 0.930 . S
C900 C898 1.386 . S
C900 C902 1.395 . S
C900 H917 0.930 . S
C901 C897 1.395 . S
C901 C902 1.379 . S
C901 H918 0.930 . S
C902 C900 1.395 . S
C902 C901 1.379 . S
C902 H919 0.930 . S
C903 O886 1.264 . S
C903 O887 1.254 . S
C904 Eu840 2.848 . S
C904 O884 1.257 . S
C904 O889 1.249 . S
C904 C897 1.492 1_565 S
C905 H870 0.931 1_565 S
C905 C883 1.420 . S
C905 C906 1.351 . S
C906 H868 0.930 1_565 S
C906 C874 1.423 . S
C906 C905 1.351 . S
C907 O891 1.276 . S
C907 O894 1.235 . S
C908 C909 1.393 . S
C908 C912 1.395 . S
C908 C915 1.492 . S
C909 C908 1.393 . S
C909 C910 1.392 . S
C909 H920 0.930 . S
C910 C909 1.392 . S
C910 C911 1.386 . S
C911 C910 1.386 . S
C911 C913 1.395 . S
C911 H921 0.930 . S
C912 C908 1.395 . S
C912 C913 1.379 . S
C912 H922 0.930 . S
C913 C911 1.395 . S
C913 C912 1.379 . S
C913 H923 0.930 . S
C914 O892 1.264 . S
C914 O893 1.254 . S
C915 Eu851 2.848 . S
C915 O890 1.257 . S
C915 O895 1.249 . S
C915 C908 1.492 . S
H916 C899 0.930 . S
H917 C900 0.930 . S
H918 C901 0.930 . S
H919 C902 0.930 . S
H920 C909 0.930 . S
H921 C911 0.930 . S
H922 C912 0.930 . S
H923 C913 0.930 . S
Eu924 N955 2.657 . S
Eu924 N962 2.609 . S
Eu924 O968 2.558 . S
Eu924 O969 2.612 . S
Eu924 O971 2.339 . S
Eu924 O972 2.563 . S
Eu924 O973 2.419 . S
Eu924 O975 2.380 . S
Eu924 O976 2.432 . S
Eu924 C988 2.848 . S
C925 C928 1.429 . S
C925 C929 1.411 . S
C925 N932 1.377 . S
C926 C928 1.420 . S
C926 C930 1.423 . S
C926 C938 1.392 . S
C927 C929 1.420 . S
C927 C930 1.351 . S
C927 H950 0.931 . S
C928 C925 1.429 . S
C928 C926 1.420 . S
C928 N936 1.362 . S
C929 C925 1.411 . S
C929 C927 1.420 . S
C929 C934 1.395 . S
C930 C926 1.423 . S
C930 C927 1.351 . S
C930 H942 0.930 . S
C931 C933 1.400 . S
C931 C934 1.386 . S
C931 H943 0.930 . S
N932 C925 1.377 . S
N932 C933 1.321 . S
N932 Eu935 2.609 . S
C933 C931 1.400 . S
C933 N932 1.321 . S
C933 H940 0.930 . S
C934 C929 1.395 . S
C934 C931 1.386 . S
C934 H953 0.930 . S
Eu935 N932 2.609 . S
Eu935 N936 2.657 . S
Eu935 O969 2.380 . S
Eu935 O970 2.432 . S
Eu935 O974 2.558 . S
Eu935 O975 2.612 . S
Eu935 O977 2.339 . S
Eu935 O978 2.563 . S
Eu935 O979 2.419 . S
Eu935 C999 2.848 . S
N936 C928 1.362 . S
N936 Eu935 2.657 . S
N936 C937 1.334 . S
C937 N936 1.334 . S
C937 C939 1.413 . S
C937 H944 0.929 . S
C938 C926 1.392 . S
C938 C939 1.367 . S
C938 H946 0.930 . S
C939 C937 1.413 . S
C939 C938 1.367 . S
C939 H941 0.930 . S
H940 C933 0.930 . S
H941 C939 0.930 . S
H942 C930 0.930 . S
H943 C931 0.930 . S
H944 C937 0.929 . S
H945 C959 0.930 . S
H946 C938 0.930 . S
H947 C965 0.930 . S
H948 C956 0.929 . S
H949 C963 0.930 . S
H950 C927 0.931 . S
H951 C957 0.913 1_545 S
H952 C990 0.930 . S
H953 C934 0.930 . S
H954 C989 0.931 . S
N955 Eu924 2.657 . S
N955 C956 1.334 . S
N955 C960 1.362 . S
C956 H948 0.929 . S
C956 N955 1.334 . S
C956 C959 1.413 . S
C957 H951 0.913 1_565 S
C957 C958 1.396 . S
C957 C959 1.382 . S
C958 C957 1.396 . S
C958 C960 1.420 . S
C958 C990 1.423 1_565 S
C959 H945 0.930 . S
C959 C956 1.413 . S
C959 C957 1.382 . S
C960 N955 1.362 . S
C960 C958 1.420 . S
C960 C964 1.429 . S
H961 C966 0.930 . S
N962 Eu924 2.609 . S
N962 C964 1.377 . S
N962 C965 1.321 . S
C963 H949 0.930 . S
C963 C965 1.400 . S
C963 C966 1.386 . S
C964 C960 1.429 . S
C964 N962 1.377 . S
C964 C967 1.411 . S
C965 H947 0.930 . S
C965 N962 1.321 . S
C965 C963 1.400 . S
C966 H961 0.930 . S
C966 C963 1.386 . S
C966 C967 1.395 . S
C967 C964 1.411 . S
C967 C966 1.395 . S
C967 C989 1.420 1_565 S
O968 Eu924 2.558 . S
O968 C988 1.257 . S
O969 Eu924 2.612 . S
O969 Eu935 2.380 . S
O969 C980 1.276 . S
O970 Eu935 2.432 . S
O970 C987 1.264 . S
O971 Eu924 2.339 . S
O971 C987 1.254 . S
O972 Eu924 2.563 . S
O972 C980 1.235 . S
O973 Eu924 2.419 . S
O973 C988 1.249 . S
O974 Eu935 2.558 . S
O974 C999 1.257 . S
O975 Eu924 2.380 . S
O975 Eu935 2.612 . S
O975 C991 1.276 . S
O976 Eu924 2.432 . S
O976 C998 1.264 . S
O977 Eu935 2.339 . S
O977 C998 1.254 . S
O978 Eu935 2.563 . S
O978 C991 1.235 . S
O979 Eu935 2.419 . S
O979 C999 1.249 . S
C980 O969 1.276 . S
C980 O972 1.235 . S
C981 C983 1.393 . S
C981 C985 1.395 . S
C981 C988 1.492 . S
C982 C983 1.392 . S
C982 C984 1.386 . S
C983 C981 1.393 . S
C983 C982 1.392 . S
C983 H1000 0.930 . S
C984 C982 1.386 . S
C984 C986 1.395 . S
C984 H1001 0.930 . S
C985 C981 1.395 . S
C985 C986 1.379 . S
C985 H1002 0.930 . S
C986 C984 1.395 . S
C986 C985 1.379 . S
C986 H1003 0.930 . S
C987 O970 1.264 . S
C987 O971 1.254 . S
C988 Eu924 2.848 . S
C988 O968 1.257 . S
C988 O973 1.249 . S
C988 C981 1.492 . S
C989 H954 0.931 . S
C989 C967 1.420 1_545 S
C989 C990 1.351 . S
C990 H952 0.930 . S
C990 C958 1.423 1_545 S
C990 C989 1.351 . S
C991 O975 1.276 . S
C991 O978 1.235 . S
C992 C993 1.393 . S
C992 C996 1.395 . S
C992 C999 1.492 . S
C993 C992 1.393 . S
C993 C994 1.392 . S
C993 H1004 0.930 . S
C994 C993 1.392 . S
C994 C995 1.386 . S
C995 C994 1.386 . S
C995 C997 1.395 . S
C995 H1005 0.930 . S
C996 C992 1.395 . S
C996 C997 1.379 . S
C996 H1006 0.930 . S
C997 C995 1.395 . S
C997 C996 1.379 . S
C997 H1007 0.930 . S
C998 O976 1.264 . S
C998 O977 1.254 . S
C999 Eu935 2.848 . S
C999 O974 1.257 . S
C999 O979 1.249 . S
C999 C992 1.492 . S
H1000 C983 0.930 . S
H1001 C984 0.930 . S
H1002 C985 0.930 . S
H1003 C986 0.930 . S
H1004 C993 0.930 . S
H1005 C995 0.930 . S
H1006 C996 0.930 . S
H1007 C997 0.930 . S
H1008 C1014 0.930 . S
H1009 C1018 0.930 . S
H1010 C1023 0.929 . S
H1011 C1021 0.929 . S
H1012 C1016 0.929 . S
H1013 C1022 0.929 . S
C1014 H1008 0.930 . S
C1014 C1015 1.367 . S
C1014 C1022 1.378 . S
C1015 C1014 1.367 . S
C1015 C1023 1.433 . S
C1016 H1012 0.929 . S
C1016 C1018 1.378 . S
C1016 C1020 1.350 . S
C1017 C1020 1.463 . S
C1017 C1022 1.350 . S
C1017 N1025 1.427 . S
C1018 H1009 0.930 . S
C1018 C1016 1.378 . S
C1018 C1019 1.367 . S
C1019 C1018 1.367 . S
C1019 C1021 1.433 . S
C1020 C1016 1.350 . S
C1020 C1017 1.463 . S
C1020 N1024 1.427 . S
C1021 H1011 0.929 . S
C1021 C1019 1.433 . S
C1021 N1024 1.384 . S
C1022 H1013 0.929 . S
C1022 C1014 1.378 . S
C1022 C1017 1.350 . S
C1023 H1010 0.929 . S
C1023 C1015 1.433 . S
C1023 N1025 1.384 . S
N1024 C1020 1.427 . S
N1024 C1021 1.384 . S
N1025 C1017 1.427 . S
N1025 C1023 1.384 . S
H1026 C1032 0.930 . S
H1027 C1036 0.930 . S
H1028 C1041 0.929 . S
H1029 C1039 0.929 . S
H1030 C1034 0.929 . S
H1031 C1040 0.929 . S
C1032 H1026 0.930 . S
C1032 C1033 1.367 . S
C1032 C1040 1.378 . S
C1033 C1032 1.367 . S
C1033 C1041 1.433 . S
C1034 H1030 0.929 . S
C1034 C1036 1.378 . S
C1034 C1038 1.350 . S
C1035 C1038 1.463 1_455 S
C1035 C1040 1.350 . S
C1035 N1043 1.427 . S
C1036 H1027 0.930 . S
C1036 C1034 1.378 . S
C1036 C1037 1.367 . S
C1037 C1036 1.367 . S
C1037 C1039 1.433 . S
C1038 C1034 1.350 . S
C1038 C1035 1.463 1_655 S
C1038 N1042 1.427 . S
C1039 H1029 0.929 . S
C1039 C1037 1.433 . S
C1039 N1042 1.384 . S
C1040 H1031 0.929 . S
C1040 C1032 1.378 . S
C1040 C1035 1.350 . S
C1041 H1028 0.929 . S
C1041 C1033 1.433 . S
C1041 N1043 1.384 . S
N1042 C1038 1.427 . S
N1042 C1039 1.384 . S
N1043 C1035 1.427 . S
N1043 C1041 1.384 . S
H1044 C1050 0.930 . S
H1045 C1054 0.930 . S
H1046 C1059 0.929 . S
H1047 C1057 0.929 . S
H1048 C1052 0.929 . S
H1049 C1058 0.929 . S
C1050 H1044 0.930 . S
C1050 C1051 1.367 . S
C1050 C1058 1.378 . S
C1051 C1050 1.367 . S
C1051 C1059 1.433 . S
C1052 H1048 0.929 . S
C1052 C1054 1.378 . S
C1052 C1056 1.350 . S
C1053 C1056 1.463 1_545 S
C1053 C1058 1.350 . S
C1053 N1061 1.427 . S
C1054 H1045 0.930 . S
C1054 C1052 1.378 . S
C1054 C1055 1.367 . S
C1055 C1054 1.367 . S
C1055 C1057 1.433 . S
C1056 C1052 1.350 . S
C1056 C1053 1.463 1_565 S
C1056 N1060 1.427 . S
C1057 H1047 0.929 . S
C1057 C1055 1.433 . S
C1057 N1060 1.384 . S
C1058 H1049 0.929 . S
C1058 C1050 1.378 . S
C1058 C1053 1.350 . S
C1059 H1046 0.929 . S
C1059 C1051 1.433 . S
C1059 N1061 1.384 . S
N1060 C1056 1.427 . S
N1060 C1057 1.384 . S
N1061 C1053 1.427 . S
N1061 C1059 1.384 . S
H1062 C1068 0.930 . S
H1063 C1072 0.930 . S
H1064 C1077 0.929 . S
H1065 C1075 0.929 . S
H1066 C1070 0.929 . S
H1067 C1076 0.929 . S
C1068 H1062 0.930 . S
C1068 C1069 1.367 . S
C1068 C1076 1.378 . S
C1069 C1068 1.367 . S
C1069 C1077 1.433 . S
C1070 H1066 0.929 . S
C1070 C1072 1.378 . S
C1070 C1074 1.350 . S
C1071 C1074 1.463 . S
C1071 C1076 1.350 . S
C1071 N1079 1.427 . S
C1072 H1063 0.930 . S
C1072 C1070 1.378 . S
C1072 C1073 1.367 . S
C1073 C1072 1.367 . S
C1073 C1075 1.433 . S
C1074 C1070 1.350 . S
C1074 C1071 1.463 . S
C1074 N1078 1.427 . S
C1075 H1065 0.929 . S
C1075 C1073 1.433 . S
C1075 N1078 1.384 . S
C1076 H1067 0.929 . S
C1076 C1068 1.378 . S
C1076 C1071 1.350 . S
C1077 H1064 0.929 . S
C1077 C1069 1.433 . S
C1077 N1079 1.384 . S
N1078 C1074 1.427 . S
N1078 C1075 1.384 . S
N1079 C1071 1.427 . S
N1079 C1077 1.384 . S
H1080 C1086 0.930 . S
H1081 C1090 0.930 . S
H1082 C1095 0.929 . S
H1083 C1093 0.929 . S
H1084 C1088 0.929 . S
H1085 C1094 0.929 . S
C1086 H1080 0.930 . S
C1086 C1087 1.367 . S
C1086 C1094 1.378 . S
C1087 C1086 1.367 . S
C1087 C1095 1.433 . S
C1088 H1084 0.929 . S
C1088 C1090 1.378 . S
C1088 C1092 1.350 . S
C1089 C1092 1.463 1_455 S
C1089 C1094 1.350 . S
C1089 N1097 1.427 . S
C1090 H1081 0.930 . S
C1090 C1088 1.378 . S
C1090 C1091 1.367 . S
C1091 C1090 1.367 . S
C1091 C1093 1.433 . S
C1092 C1088 1.350 . S
C1092 C1089 1.463 1_655 S
C1092 N1096 1.427 . S
C1093 H1083 0.929 . S
C1093 C1091 1.433 . S
C1093 N1096 1.384 . S
C1094 H1085 0.929 . S
C1094 C1086 1.378 . S
C1094 C1089 1.350 . S
C1095 H1082 0.929 . S
C1095 C1087 1.433 . S
C1095 N1097 1.384 . S
N1096 C1092 1.427 . S
N1096 C1093 1.384 . S
N1097 C1089 1.427 . S
N1097 C1095 1.384 . S
H1098 C1104 0.930 . S
H1099 C1108 0.930 . S
H1100 C1113 0.929 . S
H1101 C1111 0.929 . S
H1102 C1106 0.933 . S
H1103 C1112 0.929 . S
C1104 H1098 0.930 . S
C1104 C1105 1.367 . S
C1104 C1112 1.378 . S
C1105 C1104 1.367 . S
C1105 C1113 1.433 . S
C1106 H1102 0.933 . S
C1106 C1108 1.378 . S
C1106 C1110 1.350 . S
C1107 C1110 1.463 1_565 S
C1107 C1112 1.350 . S
C1107 N1115 1.427 . S
C1108 H1099 0.930 . S
C1108 C1106 1.378 . S
C1108 C1109 1.367 . S
C1109 C1108 1.367 . S
C1109 C1111 1.433 . S
C1110 C1106 1.350 . S
C1110 C1107 1.463 1_545 S
C1110 N1114 1.427 . S
C1111 H1101 0.929 . S
C1111 C1109 1.433 . S
C1111 N1114 1.384 . S
C1112 H1103 0.929 . S
C1112 C1104 1.378 . S
C1112 C1107 1.350 . S
C1113 H1100 0.929 . S
C1113 C1105 1.433 . S
C1113 N1115 1.384 . S
N1114 C1110 1.427 . S
N1114 C1111 1.384 . S
N1115 C1107 1.427 . S
N1115 C1113 1.384 . S
H1116 C1122 0.930 . S
H1117 C1126 0.930 . S
H1118 C1131 0.929 . S
H1119 C1129 0.929 . S
H1120 C1124 0.929 . S
H1121 C1130 0.929 . S
C1122 H1116 0.930 . S
C1122 C1123 1.367 . S
C1122 C1130 1.378 . S
C1123 C1122 1.367 . S
C1123 C1131 1.433 . S
C1124 H1120 0.929 . S
C1124 C1126 1.378 . S
C1124 C1128 1.350 . S
C1125 C1128 1.463 . S
C1125 C1130 1.350 . S
C1125 N1133 1.427 . S
C1126 H1117 0.930 . S
C1126 C1124 1.378 . S
C1126 C1127 1.367 . S
C1127 C1126 1.367 . S
C1127 C1129 1.433 . S
C1128 C1124 1.350 . S
C1128 C1125 1.463 . S
C1128 N1132 1.427 . S
C1129 H1119 0.929 . S
C1129 C1127 1.433 . S
C1129 N1132 1.384 . S
C1130 H1121 0.929 . S
C1130 C1122 1.378 . S
C1130 C1125 1.350 . S
C1131 H1118 0.929 . S
C1131 C1123 1.433 . S
C1131 N1133 1.384 . S
N1132 C1128 1.427 . S
N1132 C1129 1.384 . S
N1133 C1125 1.427 . S
N1133 C1131 1.384 . S
H1134 C1140 0.930 . S
H1135 C1144 0.930 . S
H1136 C1149 0.929 . S
H1137 C1147 0.929 . S
H1138 C1142 0.929 . S
H1139 C1148 0.929 . S
C1140 H1134 0.930 . S
C1140 C1141 1.367 . S
C1140 C1148 1.378 . S
C1141 C1140 1.367 . S
C1141 C1149 1.433 . S
C1142 H1138 0.929 . S
C1142 C1144 1.378 . S
C1142 C1146 1.350 . S
C1143 C1146 1.463 1_455 S
C1143 C1148 1.350 . S
C1143 N1151 1.427 . S
C1144 H1135 0.930 . S
C1144 C1142 1.378 . S
C1144 C1145 1.367 . S
C1145 C1144 1.367 . S
C1145 C1147 1.433 . S
C1146 C1142 1.350 . S
C1146 C1143 1.463 1_655 S
C1146 N1150 1.427 . S
C1147 H1137 0.929 . S
C1147 C1145 1.433 . S
C1147 N1150 1.384 . S
C1148 H1139 0.929 . S
C1148 C1140 1.378 . S
C1148 C1143 1.350 . S
C1149 H1136 0.929 . S
C1149 C1141 1.433 . S
C1149 N1151 1.384 . S
N1150 C1146 1.427 . S
N1150 C1147 1.384 . S
N1151 C1143 1.427 . S
N1151 C1149 1.384 . S
H1152 C1158 0.930 . S
H1153 C1162 0.930 . S
H1154 C1167 0.929 . S
H1155 C1165 0.929 . S
H1156 C1160 0.929 . S
H1157 C1166 0.929 . S
C1158 H1152 0.930 . S
C1158 C1159 1.367 . S
C1158 C1166 1.378 . S
C1159 C1158 1.367 . S
C1159 C1167 1.433 . S
C1160 H1156 0.929 . S
C1160 C1162 1.378 . S
C1160 C1164 1.350 . S
C1161 C1164 1.463 1_565 S
C1161 C1166 1.350 . S
C1161 N1169 1.427 . S
C1162 H1153 0.930 . S
C1162 C1160 1.378 . S
C1162 C1163 1.367 . S
C1163 C1162 1.367 . S
C1163 C1165 1.433 . S
C1164 C1160 1.350 . S
C1164 C1161 1.463 1_545 S
C1164 N1168 1.427 . S
C1165 H1155 0.929 . S
C1165 C1163 1.433 . S
C1165 N1168 1.384 . S
C1166 H1157 0.929 . S
C1166 C1158 1.378 . S
C1166 C1161 1.350 . S
C1167 H1154 0.929 . S
C1167 C1159 1.433 . S
C1167 N1169 1.384 . S
N1168 C1164 1.427 . S
N1168 C1165 1.384 . S
N1169 C1161 1.427 . S
N1169 C1167 1.384 . S
H1170 C1176 0.930 . S
H1171 C1180 0.930 . S
H1172 C1185 0.929 . S
H1173 C1183 0.929 . S
H1174 C1178 0.929 . S
H1175 C1184 0.929 . S
C1176 H1170 0.930 . S
C1176 C1177 1.367 . S
C1176 C1184 1.378 . S
C1177 C1176 1.367 . S
C1177 C1185 1.433 . S
C1178 H1174 0.929 . S
C1178 C1180 1.378 . S
C1178 C1182 1.350 . S
C1179 C1182 1.463 . S
C1179 C1184 1.350 . S
C1179 N1187 1.427 . S
C1180 H1171 0.930 . S
C1180 C1178 1.378 . S
C1180 C1181 1.367 . S
C1181 C1180 1.367 . S
C1181 C1183 1.433 . S
C1182 C1178 1.350 . S
C1182 C1179 1.463 . S
C1182 N1186 1.427 . S
C1183 H1173 0.929 . S
C1183 C1181 1.433 . S
C1183 N1186 1.384 . S
C1184 H1175 0.929 . S
C1184 C1176 1.378 . S
C1184 C1179 1.350 . S
C1185 H1172 0.929 . S
C1185 C1177 1.433 . S
C1185 N1187 1.384 . S
N1186 C1182 1.427 . S
N1186 C1183 1.384 . S
N1187 C1179 1.427 . S
N1187 C1185 1.384 . S
H1188 C1194 0.930 . S
H1189 C1198 0.930 . S
H1190 C1203 0.929 . S
H1191 C1201 0.929 . S
H1192 C1196 0.929 . S
H1193 C1202 0.929 . S
C1194 H1188 0.930 . S
C1194 C1195 1.367 . S
C1194 C1202 1.378 . S
C1195 C1194 1.367 . S
C1195 C1203 1.433 . S
C1196 H1192 0.929 . S
C1196 C1198 1.378 . S
C1196 C1200 1.350 . S
C1197 C1200 1.463 1_455 S
C1197 C1202 1.350 . S
C1197 N1205 1.427 . S
C1198 H1189 0.930 . S
C1198 C1196 1.378 . S
C1198 C1199 1.367 . S
C1199 C1198 1.367 . S
C1199 C1201 1.433 . S
C1200 C1196 1.350 . S
C1200 C1197 1.463 1_655 S
C1200 N1204 1.427 . S
C1201 H1191 0.929 . S
C1201 C1199 1.433 . S
C1201 N1204 1.384 . S
C1202 H1193 0.929 . S
C1202 C1194 1.378 . S
C1202 C1197 1.350 . S
C1203 H1190 0.929 . S
C1203 C1195 1.433 . S
C1203 N1205 1.384 . S
N1204 C1200 1.427 . S
N1204 C1201 1.384 . S
N1205 C1197 1.427 . S
N1205 C1203 1.384 . S
H1206 C1212 0.930 . S
H1207 C1216 0.930 . S
H1208 C1221 0.929 . S
H1209 C1219 0.929 . S
H1210 C1214 0.929 . S
H1211 C1220 0.929 . S
C1212 H1206 0.930 . S
C1212 C1213 1.367 . S
C1212 C1220 1.378 . S
C1213 C1212 1.367 . S
C1213 C1221 1.433 . S
C1214 H1210 0.929 . S
C1214 C1216 1.378 . S
C1214 C1218 1.350 . S
C1215 C1218 1.463 1_545 S
C1215 C1220 1.350 . S
C1215 N1223 1.427 . S
C1216 H1207 0.930 . S
C1216 C1214 1.378 . S
C1216 C1217 1.367 . S
C1217 C1216 1.367 . S
C1217 C1219 1.433 . S
C1218 C1214 1.350 . S
C1218 C1215 1.463 1_565 S
C1218 N1222 1.427 . S
C1219 H1209 0.929 . S
C1219 C1217 1.433 . S
C1219 N1222 1.384 . S
C1220 H1211 0.929 . S
C1220 C1212 1.378 . S
C1220 C1215 1.350 . S
C1221 H1208 0.929 . S
C1221 C1213 1.433 . S
C1221 N1223 1.384 . S
N1222 C1218 1.427 . S
N1222 C1219 1.384 . S
N1223 C1215 1.427 . S
N1223 C1221 1.384 . S
H1224 C1230 0.930 . S
H1225 C1234 0.930 . S
H1226 C1239 0.929 . S
H1227 C1237 0.929 . S
H1228 C1232 0.929 . S
H1229 C1238 0.929 . S
C1230 H1224 0.930 . S
C1230 C1231 1.367 . S
C1230 C1238 1.378 . S
C1231 C1230 1.367 . S
C1231 C1239 1.433 . S
C1232 H1228 0.929 . S
C1232 C1234 1.378 . S
C1232 C1236 1.350 . S
C1233 C1236 1.463 . S
C1233 C1238 1.350 . S
C1233 N1241 1.427 . S
C1234 H1225 0.930 . S
C1234 C1232 1.378 . S
C1234 C1235 1.367 . S
C1235 C1234 1.367 . S
C1235 C1237 1.433 . S
C1236 C1232 1.350 . S
C1236 C1233 1.463 . S
C1236 N1240 1.427 . S
C1237 H1227 0.929 . S
C1237 C1235 1.433 . S
C1237 N1240 1.384 . S
C1238 H1229 0.929 . S
C1238 C1230 1.378 . S
C1238 C1233 1.350 . S
C1239 H1226 0.929 . S
C1239 C1231 1.433 . S
C1239 N1241 1.384 . S
N1240 C1236 1.427 . S
N1240 C1237 1.384 . S
N1241 C1233 1.427 . S
N1241 C1239 1.384 . S
H1242 C1248 0.930 . S
H1243 C1252 0.930 . S
H1244 C1257 0.929 . S
H1245 C1255 0.929 . S
H1246 C1250 0.929 . S
H1247 C1256 0.929 . S
C1248 H1242 0.930 . S
C1248 C1249 1.367 . S
C1248 C1256 1.378 . S
C1249 C1248 1.367 . S
C1249 C1257 1.433 . S
C1250 H1246 0.929 . S
C1250 C1252 1.378 . S
C1250 C1254 1.350 . S
C1251 C1254 1.463 . S
C1251 C1256 1.350 . S
C1251 N1259 1.427 . S
C1252 H1243 0.930 . S
C1252 C1250 1.378 . S
C1252 C1253 1.367 . S
C1253 C1252 1.367 . S
C1253 C1255 1.433 . S
C1254 C1250 1.350 . S
C1254 C1251 1.463 . S
C1254 N1258 1.427 . S
C1255 H1245 0.929 . S
C1255 C1253 1.433 . S
C1255 N1258 1.384 . S
C1256 H1247 0.929 . S
C1256 C1248 1.378 . S
C1256 C1251 1.350 . S
C1257 H1244 0.929 . S
C1257 C1249 1.433 . S
C1257 N1259 1.384 . S
N1258 C1254 1.427 . S
N1258 C1255 1.384 . S
N1259 C1251 1.427 . S
N1259 C1257 1.384 . S
H1260 C1266 0.930 . S
H1261 C1270 0.930 . S
H1262 C1275 0.929 . S
H1263 C1273 0.929 . S
H1264 C1268 0.929 . S
H1265 C1274 0.929 . S
C1266 H1260 0.930 . S
C1266 C1267 1.367 . S
C1266 C1274 1.378 . S
C1267 C1266 1.367 . S
C1267 C1275 1.433 . S
C1268 H1264 0.929 . S
C1268 C1270 1.378 . S
C1268 C1272 1.350 . S
C1269 C1272 1.463 . S
C1269 C1274 1.350 . S
C1269 N1277 1.427 . S
C1270 H1261 0.930 . S
C1270 C1268 1.378 . S
C1270 C1271 1.367 . S
C1271 C1270 1.367 . S
C1271 C1273 1.433 . S
C1272 C1268 1.350 . S
C1272 C1269 1.463 . S
C1272 N1276 1.427 . S
C1273 H1263 0.929 . S
C1273 C1271 1.433 . S
C1273 N1276 1.384 . S
C1274 H1265 0.929 . S
C1274 C1266 1.378 . S
C1274 C1269 1.350 . S
C1275 H1262 0.929 . S
C1275 C1267 1.433 . S
C1275 N1277 1.384 . S
N1276 C1272 1.427 . S
N1276 C1273 1.384 . S
N1277 C1269 1.427 . S
N1277 C1275 1.384 . S
H1278 C1284 0.930 . S
H1279 C1288 0.930 . S
H1280 C1293 0.929 . S
H1281 C1291 0.929 . S
H1282 C1286 0.929 . S
H1283 C1292 0.929 . S
C1284 H1278 0.930 . S
C1284 C1285 1.367 . S
C1284 C1292 1.378 . S
C1285 C1284 1.367 . S
C1285 C1293 1.433 . S
C1286 H1282 0.929 . S
C1286 C1288 1.378 . S
C1286 C1290 1.350 . S
C1287 C1290 1.463 . S
C1287 C1292 1.350 . S
C1287 N1295 1.427 . S
C1288 H1279 0.930 . S
C1288 C1286 1.378 . S
C1288 C1289 1.367 . S
C1289 C1288 1.367 . S
C1289 C1291 1.433 . S
C1290 C1286 1.350 . S
C1290 C1287 1.463 . S
C1290 N1294 1.427 . S
C1291 H1281 0.929 . S
C1291 C1289 1.433 . S
C1291 N1294 1.384 . S
C1292 H1283 0.929 . S
C1292 C1284 1.378 . S
C1292 C1287 1.350 . S
C1293 H1280 0.929 . S
C1293 C1285 1.433 . S
C1293 N1295 1.384 . S
N1294 C1290 1.427 . S
N1294 C1291 1.384 . S
N1295 C1287 1.427 . S
N1295 C1293 1.384 . S
H1296 C1302 0.930 . S
H1297 C1306 0.930 . S
H1298 C1311 0.929 . S
H1299 C1309 0.929 . S
H1300 C1304 0.929 . S
H1301 C1310 0.929 . S
C1302 H1296 0.930 . S
C1302 C1303 1.367 . S
C1302 C1310 1.378 . S
C1303 C1302 1.367 . S
C1303 C1311 1.433 . S
C1304 H1300 0.929 . S
C1304 C1306 1.378 . S
C1304 C1308 1.350 . S
C1305 C1308 1.463 . S
C1305 C1310 1.350 . S
C1305 N1313 1.427 . S
C1306 H1297 0.930 . S
C1306 C1304 1.378 . S
C1306 C1307 1.367 . S
C1307 C1306 1.367 . S
C1307 C1309 1.433 . S
C1308 C1304 1.350 . S
C1308 C1305 1.463 . S
C1308 N1312 1.427 . S
C1309 H1299 0.929 . S
C1309 C1307 1.433 . S
C1309 N1312 1.384 . S
C1310 H1301 0.929 . S
C1310 C1302 1.378 . S
C1310 C1305 1.350 . S
C1311 H1298 0.929 . S
C1311 C1303 1.433 . S
C1311 N1313 1.384 . S
N1312 C1308 1.427 . S
N1312 C1309 1.384 . S
N1313 C1305 1.427 . S
N1313 C1311 1.384 . S
H1314 C1320 0.930 . S
H1315 C1324 0.930 . S
H1316 C1329 0.929 . S
H1317 C1327 0.929 . S
H1318 C1322 0.929 . S
H1319 C1328 0.929 . S
C1320 H1314 0.930 . S
C1320 C1321 1.367 . S
C1320 C1328 1.378 . S
C1321 C1320 1.367 . S
C1321 C1329 1.433 . S
C1322 H1318 0.929 . S
C1322 C1324 1.378 . S
C1322 C1326 1.350 . S
C1323 C1326 1.463 . S
C1323 C1328 1.350 . S
C1323 N1331 1.427 . S
C1324 H1315 0.930 . S
C1324 C1322 1.378 . S
C1324 C1325 1.367 . S
C1325 C1324 1.367 . S
C1325 C1327 1.433 . S
C1326 C1322 1.350 . S
C1326 C1323 1.463 . S
C1326 N1330 1.427 . S
C1327 H1317 0.929 . S
C1327 C1325 1.433 . S
C1327 N1330 1.384 . S
C1328 H1319 0.929 . S
C1328 C1320 1.378 . S
C1328 C1323 1.350 . S
C1329 H1316 0.929 . S
C1329 C1321 1.433 . S
C1329 N1331 1.384 . S
N1330 C1326 1.427 . S
N1330 C1327 1.384 . S
N1331 C1323 1.427 . S
N1331 C1329 1.384 . S
H1332 C1338 0.930 . S
H1333 C1342 0.930 . S
H1334 C1347 0.929 . S
H1335 C1345 0.929 . S
H1336 C1340 0.929 . S
H1337 C1346 0.929 . S
C1338 H1332 0.930 . S
C1338 C1339 1.367 . S
C1338 C1346 1.378 . S
C1339 C1338 1.367 . S
C1339 C1347 1.433 . S
C1340 H1336 0.929 . S
C1340 C1342 1.378 . S
C1340 C1344 1.350 . S
C1341 C1344 1.463 1_566 S
C1341 C1346 1.350 . S
C1341 N1349 1.427 . S
C1342 H1333 0.930 . S
C1342 C1340 1.378 . S
C1342 C1343 1.367 . S
C1343 C1342 1.367 . S
C1343 C1345 1.433 . S
C1344 C1340 1.350 . S
C1344 C1341 1.463 1_544 S
C1344 N1348 1.427 . S
C1345 H1335 0.929 . S
C1345 C1343 1.433 . S
C1345 N1348 1.384 . S
C1346 H1337 0.929 . S
C1346 C1338 1.378 . S
C1346 C1341 1.350 . S
C1347 H1334 0.929 . S
C1347 C1339 1.433 . S
C1347 N1349 1.384 . S
N1348 C1344 1.427 . S
N1348 C1345 1.384 . S
N1349 C1341 1.427 . S
N1349 C1347 1.384 . S
H1350 C1356 0.930 . S
H1351 C1360 0.930 . S
H1352 C1365 0.929 . S
H1353 C1363 0.929 . S
H1354 C1358 0.929 . S
H1355 C1364 0.929 . S
C1356 H1350 0.930 . S
C1356 C1357 1.367 . S
C1356 C1364 1.378 . S
C1357 C1356 1.367 . S
C1357 C1365 1.433 . S
C1358 H1354 0.929 . S
C1358 C1360 1.378 . S
C1358 C1362 1.350 . S
C1359 C1362 1.463 . S
C1359 C1364 1.350 . S
C1359 N1367 1.427 . S
C1360 H1351 0.930 . S
C1360 C1358 1.378 . S
C1360 C1361 1.367 . S
C1361 C1360 1.367 . S
C1361 C1363 1.433 . S
C1362 C1358 1.350 . S
C1362 C1359 1.463 . S
C1362 N1366 1.427 . S
C1363 H1353 0.929 . S
C1363 C1361 1.433 . S
C1363 N1366 1.384 . S
C1364 H1355 0.929 . S
C1364 C1356 1.378 . S
C1364 C1359 1.350 . S
C1365 H1352 0.929 . S
C1365 C1357 1.433 . S
C1365 N1367 1.384 . S
N1366 C1362 1.427 . S
N1366 C1363 1.384 . S
N1367 C1359 1.427 . S
N1367 C1365 1.384 . S
H1368 C1374 0.930 . S
H1369 C1378 0.930 . S
H1370 C1383 0.929 . S
H1371 C1381 0.929 . S
H1372 C1376 0.929 . S
H1373 C1382 0.929 . S
C1374 H1368 0.930 . S
C1374 C1375 1.367 . S
C1374 C1382 1.378 . S
C1375 C1374 1.367 . S
C1375 C1383 1.433 . S
C1376 H1372 0.929 . S
C1376 C1378 1.378 . S
C1376 C1380 1.350 . S
C1377 C1380 1.463 1_456 S
C1377 C1382 1.350 . S
C1377 N1385 1.427 . S
C1378 H1369 0.930 . S
C1378 C1376 1.378 . S
C1378 C1379 1.367 . S
C1379 C1378 1.367 . S
C1379 C1381 1.433 . S
C1380 C1376 1.350 . S
C1380 C1377 1.463 1_654 S
C1380 N1384 1.427 . S
C1381 H1371 0.929 . S
C1381 C1379 1.433 . S
C1381 N1384 1.384 . S
C1382 H1373 0.929 . S
C1382 C1374 1.378 . S
C1382 C1377 1.350 . S
C1383 H1370 0.929 . S
C1383 C1375 1.433 . S
C1383 N1385 1.384 . S
N1384 C1380 1.427 . S
N1384 C1381 1.384 . S
N1385 C1377 1.427 . S
N1385 C1383 1.384 . S
H1386 C1392 0.930 . S
H1387 C1396 0.930 . S
H1388 C1401 0.929 . S
H1389 C1399 0.929 . S
H1390 C1394 0.929 1_545 S
H1391 C1400 0.929 1_565 S
C1392 H1386 0.930 . S
C1392 C1393 1.367 . S
C1392 C1400 1.378 . S
C1393 C1392 1.367 . S
C1393 C1401 1.433 . S
C1394 H1390 0.929 1_565 S
C1394 C1396 1.378 . S
C1394 C1398 1.350 . S
C1395 C1398 1.463 1_545 S
C1395 C1400 1.350 . S
C1395 N1403 1.427 . S
C1396 H1387 0.930 . S
C1396 C1394 1.378 . S
C1396 C1397 1.367 . S
C1397 C1396 1.367 . S
C1397 C1399 1.433 . S
C1398 C1394 1.350 . S
C1398 C1395 1.463 1_565 S
C1398 N1402 1.427 . S
C1399 H1389 0.929 . S
C1399 C1397 1.433 . S
C1399 N1402 1.384 . S
C1400 H1391 0.929 1_545 S
C1400 C1392 1.378 . S
C1400 C1395 1.350 . S
C1401 H1388 0.929 . S
C1401 C1393 1.433 . S
C1401 N1403 1.384 . S
N1402 C1398 1.427 . S
N1402 C1399 1.384 . S
N1403 C1395 1.427 . S
N1403 C1401 1.384 . S
H1404 C1410 0.930 . S
H1405 C1414 0.930 . S
H1406 C1419 0.929 . S
H1407 C1417 0.929 . S
H1408 C1412 0.929 1_554 S
H1409 C1418 0.929 1_556 S
C1410 H1404 0.930 . S
C1410 C1411 1.367 . S
C1410 C1418 1.378 . S
C1411 C1410 1.367 . S
C1411 C1419 1.433 . S
C1412 H1408 0.929 1_556 S
C1412 C1414 1.378 . S
C1412 C1416 1.350 . S
C1413 C1416 1.463 1_554 S
C1413 C1418 1.350 . S
C1413 N1421 1.427 . S
C1414 H1405 0.930 . S
C1414 C1412 1.378 . S
C1414 C1415 1.367 . S
C1415 C1414 1.367 . S
C1415 C1417 1.433 . S
C1416 C1412 1.350 . S
C1416 C1413 1.463 1_556 S
C1416 N1420 1.427 . S
C1417 H1407 0.929 . S
C1417 C1415 1.433 . S
C1417 N1420 1.384 . S
C1418 H1409 0.929 1_554 S
C1418 C1410 1.378 . S
C1418 C1413 1.350 . S
C1419 H1406 0.929 . S
C1419 C1411 1.433 . S
C1419 N1421 1.384 . S
N1420 C1416 1.427 . S
N1420 C1417 1.384 . S
N1421 C1413 1.427 . S
N1421 C1419 1.384 . S
H1422 C1428 0.930 . S
H1423 C1432 0.930 . S
H1424 C1437 0.929 . S
H1425 C1435 0.929 . S
H1426 C1430 0.929 . S
H1427 C1436 0.929 . S
C1428 H1422 0.930 . S
C1428 C1429 1.367 . S
C1428 C1436 1.378 . S
C1429 C1428 1.367 . S
C1429 C1437 1.433 . S
C1430 H1426 0.929 . S
C1430 C1432 1.378 . S
C1430 C1434 1.350 . S
C1431 C1434 1.463 1_455 S
C1431 C1436 1.350 . S
C1431 N1439 1.427 . S
C1432 H1423 0.930 . S
C1432 C1430 1.378 . S
C1432 C1433 1.367 . S
C1433 C1432 1.367 . S
C1433 C1435 1.433 . S
C1434 C1430 1.350 . S
C1434 C1431 1.463 1_655 S
C1434 N1438 1.427 . S
C1435 H1425 0.929 . S
C1435 C1433 1.433 . S
C1435 N1438 1.384 . S
C1436 H1427 0.929 . S
C1436 C1428 1.378 . S
C1436 C1431 1.350 . S
C1437 H1424 0.929 . S
C1437 C1429 1.433 . S
C1437 N1439 1.384 . S
N1438 C1434 1.427 . S
N1438 C1435 1.384 . S
N1439 C1431 1.427 . S
N1439 C1437 1.384 . S
H1440 C1446 0.930 . S
H1441 C1450 0.930 . S
H1442 C1455 0.929 . S
H1443 C1453 0.929 . S
H1444 C1448 0.929 . S
H1445 C1454 0.929 . S
C1446 H1440 0.930 . S
C1446 C1447 1.367 . S
C1446 C1454 1.378 . S
C1447 C1446 1.367 . S
C1447 C1455 1.433 . S
C1448 H1444 0.929 . S
C1448 C1450 1.378 . S
C1448 C1452 1.350 . S
C1449 C1452 1.463 . S
C1449 C1454 1.350 . S
C1449 N1457 1.427 . S
C1450 H1441 0.930 . S
C1450 C1448 1.378 . S
C1450 C1451 1.367 . S
C1451 C1450 1.367 . S
C1451 C1453 1.433 . S
C1452 C1448 1.350 . S
C1452 C1449 1.463 . S
C1452 N1456 1.427 . S
C1453 H1443 0.929 . S
C1453 C1451 1.433 . S
C1453 N1456 1.384 . S
C1454 H1445 0.929 . S
C1454 C1446 1.378 . S
C1454 C1449 1.350 . S
C1455 H1442 0.929 . S
C1455 C1447 1.433 . S
C1455 N1457 1.384 . S
N1456 C1452 1.427 . S
N1456 C1453 1.384 . S
N1457 C1449 1.427 . S
N1457 C1455 1.384 . S
H1458 C1464 0.930 . S
H1459 C1468 0.930 . S
H1460 C1473 0.929 . S
H1461 C1471 0.929 . S
H1462 C1466 0.929 . S
H1463 C1472 0.929 . S
C1464 H1458 0.930 . S
C1464 C1465 1.367 . S
C1464 C1472 1.378 . S
C1465 C1464 1.367 . S
C1465 C1473 1.433 . S
C1466 H1462 0.929 . S
C1466 C1468 1.378 . S
C1466 C1470 1.350 . S
C1467 C1470 1.463 . S
C1467 C1472 1.350 . S
C1467 N1475 1.427 . S
C1468 H1459 0.930 . S
C1468 C1466 1.378 . S
C1468 C1469 1.367 . S
C1469 C1468 1.367 . S
C1469 C1471 1.433 . S
C1470 C1466 1.350 . S
C1470 C1467 1.463 . S
C1470 N1474 1.427 . S
C1471 H1461 0.929 . S
C1471 C1469 1.433 . S
C1471 N1474 1.384 . S
C1472 H1463 0.929 . S
C1472 C1464 1.378 . S
C1472 C1467 1.350 . S
C1473 H1460 0.929 . S
C1473 C1465 1.433 . S
C1473 N1475 1.384 . S
N1474 C1470 1.427 . S
N1474 C1471 1.384 . S
N1475 C1467 1.427 . S
N1475 C1473 1.384 . S
H1476 C1482 0.930 . S
H1477 C1486 0.930 . S
H1478 C1491 0.929 . S
H1479 C1489 0.929 . S
H1480 C1484 0.929 . S
H1481 C1490 0.929 . S
C1482 H1476 0.930 . S
C1482 C1483 1.367 . S
C1482 C1490 1.378 . S
C1483 C1482 1.367 . S
C1483 C1491 1.433 . S
C1484 H1480 0.929 . S
C1484 C1486 1.378 . S
C1484 C1488 1.350 . S
C1485 C1488 1.463 . S
C1485 C1490 1.350 . S
C1485 N1493 1.427 . S
C1486 H1477 0.930 . S
C1486 C1484 1.378 . S
C1486 C1487 1.367 . S
C1487 C1486 1.367 . S
C1487 C1489 1.433 . S
C1488 C1484 1.350 . S
C1488 C1485 1.463 . S
C1488 N1492 1.427 . S
C1489 H1479 0.929 . S
C1489 C1487 1.433 . S
C1489 N1492 1.384 . S
C1490 H1481 0.929 . S
C1490 C1482 1.378 . S
C1490 C1485 1.350 . S
C1491 H1478 0.929 . S
C1491 C1483 1.433 . S
C1491 N1493 1.384 . S
N1492 C1488 1.427 . S
N1492 C1489 1.384 . S
N1493 C1485 1.427 . S
N1493 C1491 1.384 . S
H1494 C1500 0.930 . S
H1495 C1504 0.930 . S
H1496 C1509 0.929 . S
H1497 C1507 0.929 . S
H1498 C1502 0.929 . S
H1499 C1508 0.929 . S
C1500 H1494 0.930 . S
C1500 C1501 1.367 . S
C1500 C1508 1.378 . S
C1501 C1500 1.367 . S
C1501 C1509 1.433 . S
C1502 H1498 0.929 . S
C1502 C1504 1.378 . S
C1502 C1506 1.350 . S
C1503 C1506 1.463 . S
C1503 C1508 1.350 . S
C1503 N1511 1.427 . S
C1504 H1495 0.930 . S
C1504 C1502 1.378 . S
C1504 C1505 1.367 . S
C1505 C1504 1.367 . S
C1505 C1507 1.433 . S
C1506 C1502 1.350 . S
C1506 C1503 1.463 . S
C1506 N1510 1.427 . S
C1507 H1497 0.929 . S
C1507 C1505 1.433 . S
C1507 N1510 1.384 . S
C1508 H1499 0.929 . S
C1508 C1500 1.378 . S
C1508 C1503 1.350 . S
C1509 H1496 0.929 . S
C1509 C1501 1.433 . S
C1509 N1511 1.384 . S
N1510 C1506 1.427 . S
N1510 C1507 1.384 . S
N1511 C1503 1.427 . S
N1511 C1509 1.384 . S
H1512 C1518 0.930 . S
H1513 C1522 0.930 . S
H1514 C1527 0.929 . S
H1515 C1525 0.929 . S
H1516 C1520 0.929 . S
H1517 C1526 0.929 . S
C1518 H1512 0.930 . S
C1518 C1519 1.367 . S
C1518 C1526 1.378 . S
C1519 C1518 1.367 . S
C1519 C1527 1.433 . S
C1520 H1516 0.929 . S
C1520 C1522 1.378 . S
C1520 C1524 1.350 . S
C1521 C1524 1.463 . S
C1521 C1526 1.350 . S
C1521 N1529 1.427 . S
C1522 H1513 0.930 . S
C1522 C1520 1.378 . S
C1522 C1523 1.367 . S
C1523 C1522 1.367 . S
C1523 C1525 1.433 . S
C1524 C1520 1.350 . S
C1524 C1521 1.463 . S
C1524 N1528 1.427 . S
C1525 H1515 0.929 . S
C1525 C1523 1.433 . S
C1525 N1528 1.384 . S
C1526 H1517 0.929 . S
C1526 C1518 1.378 . S
C1526 C1521 1.350 . S
C1527 H1514 0.929 . S
C1527 C1519 1.433 . S
C1527 N1529 1.384 . S
N1528 C1524 1.427 . S
N1528 C1525 1.384 . S
N1529 C1521 1.427 . S
N1529 C1527 1.384 . S
H1530 C1536 0.930 . S
H1531 C1540 0.930 . S
H1532 C1545 0.929 . S
H1533 C1543 0.929 . S
H1534 C1538 0.929 . S
H1535 C1544 0.929 . S
C1536 H1530 0.930 . S
C1536 C1537 1.367 . S
C1536 C1544 1.378 . S
C1537 C1536 1.367 . S
C1537 C1545 1.433 . S
C1538 H1534 0.929 . S
C1538 C1540 1.378 . S
C1538 C1542 1.350 . S
C1539 C1542 1.463 . S
C1539 C1544 1.350 . S
C1539 N1547 1.427 . S
C1540 H1531 0.930 . S
C1540 C1538 1.378 . S
C1540 C1541 1.367 . S
C1541 C1540 1.367 . S
C1541 C1543 1.433 . S
C1542 C1538 1.350 . S
C1542 C1539 1.463 . S
C1542 N1546 1.427 . S
C1543 H1533 0.929 . S
C1543 C1541 1.433 . S
C1543 N1546 1.384 . S
C1544 H1535 0.929 . S
C1544 C1536 1.378 . S
C1544 C1539 1.350 . S
C1545 H1532 0.929 . S
C1545 C1537 1.433 . S
C1545 N1547 1.384 . S
N1546 C1542 1.427 . S
N1546 C1543 1.384 . S
N1547 C1539 1.427 . S
N1547 C1545 1.384 . S
H1548 C1554 0.930 . S
H1549 C1558 0.930 . S
H1550 C1563 0.929 . S
H1551 C1561 0.929 . S
H1552 C1556 0.929 . S
H1553 C1562 0.929 . S
C1554 H1548 0.930 . S
C1554 C1555 1.367 . S
C1554 C1562 1.378 . S
C1555 C1554 1.367 . S
C1555 C1563 1.433 . S
C1556 H1552 0.929 . S
C1556 C1558 1.378 . S
C1556 C1560 1.350 . S
C1557 C1560 1.463 . S
C1557 C1562 1.350 . S
C1557 N1565 1.427 . S
C1558 H1549 0.930 . S
C1558 C1556 1.378 . S
C1558 C1559 1.367 . S
C1559 C1558 1.367 . S
C1559 C1561 1.433 . S
C1560 C1556 1.350 . S
C1560 C1557 1.463 . S
C1560 N1564 1.427 . S
C1561 H1551 0.929 . S
C1561 C1559 1.433 . S
C1561 N1564 1.384 . S
C1562 H1553 0.929 . S
C1562 C1554 1.378 . S
C1562 C1557 1.350 . S
C1563 H1550 0.929 . S
C1563 C1555 1.433 . S
C1563 N1565 1.384 . S
N1564 C1560 1.427 . S
N1564 C1561 1.384 . S
N1565 C1557 1.427 . S
N1565 C1563 1.384 . S
H1566 C1572 0.930 . S
H1567 C1576 0.930 . S
H1568 C1581 0.929 . S
H1569 C1579 0.929 . S
H1570 C1574 0.929 . S
H1571 C1580 0.929 . S
C1572 H1566 0.930 . S
C1572 C1573 1.367 . S
C1572 C1580 1.378 . S
C1573 C1572 1.367 . S
C1573 C1581 1.433 . S
C1574 H1570 0.929 . S
C1574 C1576 1.378 . S
C1574 C1578 1.350 . S
C1575 C1578 1.463 . S
C1575 C1580 1.350 . S
C1575 N1583 1.427 . S
C1576 H1567 0.930 . S
C1576 C1574 1.378 . S
C1576 C1577 1.367 . S
C1577 C1576 1.367 . S
C1577 C1579 1.433 . S
C1578 C1574 1.350 . S
C1578 C1575 1.463 . S
C1578 N1582 1.427 . S
C1579 H1569 0.929 . S
C1579 C1577 1.433 . S
C1579 N1582 1.384 . S
C1580 H1571 0.929 . S
C1580 C1572 1.378 . S
C1580 C1575 1.350 . S
C1581 H1568 0.929 . S
C1581 C1573 1.433 . S
C1581 N1583 1.384 . S
N1582 C1578 1.427 . S
N1582 C1579 1.384 . S
N1583 C1575 1.427 . S
N1583 C1581 1.384 . S
H1584 C1590 0.930 . S
H1585 C1594 0.930 . S
H1586 C1599 0.929 . S
H1587 C1597 0.929 . S
H1588 C1592 0.929 . S
H1589 C1598 0.929 . S
C1590 H1584 0.930 . S
C1590 C1591 1.367 . S
C1590 C1598 1.378 . S
C1591 C1590 1.367 . S
C1591 C1599 1.433 . S
C1592 H1588 0.929 . S
C1592 C1594 1.378 . S
C1592 C1596 1.350 . S
C1593 C1596 1.463 . S
C1593 C1598 1.350 . S
C1593 N1601 1.427 . S
C1594 H1585 0.930 . S
C1594 C1592 1.378 . S
C1594 C1595 1.367 . S
C1595 C1594 1.367 . S
C1595 C1597 1.433 . S
C1596 C1592 1.350 . S
C1596 C1593 1.463 . S
C1596 N1600 1.427 . S
C1597 H1587 0.929 . S
C1597 C1595 1.433 . S
C1597 N1600 1.384 . S
C1598 H1589 0.929 . S
C1598 C1590 1.378 . S
C1598 C1593 1.350 . S
C1599 H1586 0.929 . S
C1599 C1591 1.433 . S
C1599 N1601 1.384 . S
N1600 C1596 1.427 . S
N1600 C1597 1.384 . S
N1601 C1593 1.427 . S
N1601 C1599 1.384 . S
H1602 C1608 0.930 . S
H1603 C1612 0.930 . S
H1604 C1617 0.929 . S
H1605 C1615 0.929 . S
H1606 C1610 0.929 . S
H1607 C1616 0.929 . S
C1608 H1602 0.930 . S
C1608 C1609 1.367 . S
C1608 C1616 1.378 . S
C1609 C1608 1.367 . S
C1609 C1617 1.433 . S
C1610 H1606 0.929 . S
C1610 C1612 1.378 . S
C1610 C1614 1.350 . S
C1611 C1614 1.463 . S
C1611 C1616 1.350 . S
C1611 N1619 1.427 . S
C1612 H1603 0.930 . S
C1612 C1610 1.378 . S
C1612 C1613 1.367 . S
C1613 C1612 1.367 . S
C1613 C1615 1.433 . S
C1614 C1610 1.350 . S
C1614 C1611 1.463 . S
C1614 N1618 1.427 . S
C1615 H1605 0.929 . S
C1615 C1613 1.433 . S
C1615 N1618 1.384 . S
C1616 H1607 0.929 . S
C1616 C1608 1.378 . S
C1616 C1611 1.350 . S
C1617 H1604 0.929 . S
C1617 C1609 1.433 . S
C1617 N1619 1.384 . S
N1618 C1614 1.427 . S
N1618 C1615 1.384 . S
N1619 C1611 1.427 . S
N1619 C1617 1.384 . S
H1620 C1626 0.930 . S
H1621 C1630 0.930 . S
H1622 C1635 0.929 . S
H1623 C1633 0.929 . S
H1624 C1628 0.929 . S
H1625 C1634 0.929 . S
C1626 H1620 0.930 . S
C1626 C1627 1.367 . S
C1626 C1634 1.378 . S
C1627 C1626 1.367 . S
C1627 C1635 1.433 . S
C1628 H1624 0.929 . S
C1628 C1630 1.378 . S
C1628 C1632 1.350 . S
C1629 C1632 1.463 . S
C1629 C1634 1.350 . S
C1629 N1637 1.427 . S
C1630 H1621 0.930 . S
C1630 C1628 1.378 . S
C1630 C1631 1.367 . S
C1631 C1630 1.367 . S
C1631 C1633 1.433 . S
C1632 C1628 1.350 . S
C1632 C1629 1.463 . S
C1632 N1636 1.427 . S
C1633 H1623 0.929 . S
C1633 C1631 1.433 . S
C1633 N1636 1.384 . S
C1634 H1625 0.929 . S
C1634 C1626 1.378 . S
C1634 C1629 1.350 . S
C1635 H1622 0.929 . S
C1635 C1627 1.433 . S
C1635 N1637 1.384 . S
N1636 C1632 1.427 . S
N1636 C1633 1.384 . S
N1637 C1629 1.427 . S
N1637 C1635 1.384 . S
H1638 C1644 0.930 . S
H1639 C1648 0.930 . S
H1640 C1653 0.929 . S
H1641 C1651 0.929 . S
H1642 C1646 0.929 . S
H1643 C1652 0.929 . S
C1644 H1638 0.930 . S
C1644 C1645 1.367 . S
C1644 C1652 1.378 . S
C1645 C1644 1.367 . S
C1645 C1653 1.433 . S
C1646 H1642 0.929 . S
C1646 C1648 1.378 . S
C1646 C1650 1.350 . S
C1647 C1650 1.463 . S
C1647 C1652 1.350 . S
C1647 N1655 1.427 . S
C1648 H1639 0.930 . S
C1648 C1646 1.378 . S
C1648 C1649 1.367 . S
C1649 C1648 1.367 . S
C1649 C1651 1.433 . S
C1650 C1646 1.350 . S
C1650 C1647 1.463 . S
C1650 N1654 1.427 . S
C1651 H1641 0.929 . S
C1651 C1649 1.433 . S
C1651 N1654 1.384 . S
C1652 H1643 0.929 . S
C1652 C1644 1.378 . S
C1652 C1647 1.350 . S
C1653 H1640 0.929 . S
C1653 C1645 1.433 . S
C1653 N1655 1.384 . S
N1654 C1650 1.427 . S
N1654 C1651 1.384 . S
N1655 C1647 1.427 . S
N1655 C1653 1.384 . S
C1015 C238 1.228 . S
C1019 C67 1.310 . S
C1033 C310 1.230 . S
C1037 C140 1.302 . S
C1051 C235 1.308 . S
C1055 C406 1.230 . S
C1069 C308 1.305 . S
C1073 C478 1.213 . S
C1087 C70 1.207 . S
C1091 C403 1.319 . S
C1105 C142 1.229 . S
C1109 C476 1.309 . S
C1123 C898 1.230 . S
C1127 C560 1.308 . S
C1141 C655 1.319 . S
C1145 C994 1.207 . S
C1159 C728 1.302 . S
C1163 C562 1.223 . S
C1177 C823 1.305 . S
C1181 C658 1.214 . S
C1195 C896 1.302 . S
C1199 C730 1.220 . S
C1213 C826 1.231 . S
C1217 C991 1.306 . S
C1231 C326 1.940 . S
C1235 C63 1.928 . S
C1249 C158 1.941 . S
C1253 C399 1.927 . S
C1267 C231 1.927 . S
C1271 C494 1.941 . S
C1285 C578 1.940 . S
C1289 C819 1.928 . S
C1303 C651 1.933 . S
C1307 C914 1.935 . S
C1321 C746 1.934 . S
C1325 C987 1.934 . S
C1339 C662 2.141 . S
C1343 C74 2.151 . S
C1357 C147 2.145 . S
C1361 C735 2.154 . S
C1375 C830 2.142 . S
C1379 C242 2.152 . S
C1393 C315 2.141 . S
C1397 C903 2.146 . S
C1411 C410 2.154 . S
C1415 C998 2.147 . S
C1429 C567 2.141 . S
C1433 C483 2.151 . S
C1447 C226 1.308 . S
C1451 C56 1.404 . S
C1465 C151 1.412 . S
C1469 C322 1.327 . S
C1483 C224 1.400 . S
C1487 C394 1.321 . S
C1501 C319 1.403 . S
C1505 C490 1.328 . S
C1519 C58 1.328 . S
C1523 C392 1.409 . S
C1537 C154 1.312 . S
C1541 C487 1.419 . S
C1555 C910 1.316 . S
C1559 C571 1.419 . S
C1573 C644 1.417 . S
C1577 C982 1.304 . S
C1591 C739 1.413 . S
C1595 C574 1.302 . S
C1609 C646 1.329 . S
C1613 C812 1.408 . S
C1627 C907 1.410 . S
C1631 C742 1.328 . S
C1645 C980 1.418 . S
C1649 C814 1.305 . S
