# Generated by pormake.
# Topology ukg, (4)-cn, num edge types: 1
# Building blocks:
#     Node 0, Type 0, BuildingBlock: ESEHIV_clean_sbu_0, # of connection points: 4
#     Node 1, Type 0, BuildingBlock: ESEHIV_clean_sbu_0, # of connection points: 4
#     Node 2, Type 0, BuildingBlock: ESEHIV_clean_sbu_0, # of connection points: 4
#     Node 3, Type 0, BuildingBlock: ESEHIV_clean_sbu_0, # of connection points: 4
#     Node 4, Type 0, BuildingBlock: ESEHIV_clean_sbu_0, # of connection points: 4
#     Node 5, Type 0, BuildingBlock: ESEHIV_clean_sbu_0, # of connection points: 4
#     Node 6, Type 0, BuildingBlock: ESEHIV_clean_sbu_0, # of connection points: 4
#     Node 7, Type 0, BuildingBlock: ESEHIV_clean_sbu_0, # of connection points: 4
#     Edge 8, Type (0, 0), BuildingBlock: CIFDUS_clean_linker_0, # of connection points: 2
#     Edge 9, Type (0, 0), BuildingBlock: CIFDUS_clean_linker_0, # of connection points: 2
#     Edge 10, Type (0, 0), BuildingBlock: CIFDUS_clean_linker_0, # of connection points: 2
#     Edge 11, Type (0, 0), BuildingBlock: CIFDUS_clean_linker_0, # of connection points: 2
#     Edge 12, Type (0, 0), BuildingBlock: CIFDUS_clean_linker_0, # of connection points: 2
#     Edge 13, Type (0, 0), BuildingBlock: CIFDUS_clean_linker_0, # of connection points: 2
#     Edge 14, Type (0, 0), BuildingBlock: CIFDUS_clean_linker_0, # of connection points: 2
#     Edge 15, Type (0, 0), BuildingBlock: CIFDUS_clean_linker_0, # of connection points: 2
#     Edge 16, Type (0, 0), BuildingBlock: CIFDUS_clean_linker_0, # of connection points: 2
#     Edge 17, Type (0, 0), BuildingBlock: CIFDUS_clean_linker_0, # of connection points: 2
#     Edge 18, Type (0, 0), BuildingBlock: CIFDUS_clean_linker_0, # of connection points: 2
#     Edge 19, Type (0, 0), BuildingBlock: CIFDUS_clean_linker_0, # of connection points: 2
#     Edge 20, Type (0, 0), BuildingBlock: CIFDUS_clean_linker_0, # of connection points: 2
#     Edge 21, Type (0, 0), BuildingBlock: CIFDUS_clean_linker_0, # of connection points: 2
#     Edge 22, Type (0, 0), BuildingBlock: CIFDUS_clean_linker_0, # of connection points: 2
#     Edge 23, Type (0, 0), BuildingBlock: CIFDUS_clean_linker_0, # of connection points: 2
# Relax obj value: 0.127
# Max RMSD: 0.195
# Mean RMSD: 0.177
data_MOF--net-ukg--node1-ESEHIV_clean_sbu_0--edge1-CIFDUS_clean_linker_0
_symmetry_space_group_name_H-M    P1
_symmetry_Int_Tables_number       1
_symmetry_cell_setting            triclinic
loop_
_symmetry_equiv_pos_as_xyz
'x, y, z'
_cell_length_a     27.717007
_cell_length_b     27.806012
_cell_length_c     37.861945
_cell_angle_alpha  89.896287
_cell_angle_beta   90.074987
_cell_angle_gamma 89.72149
loop_
_atom_site_label
_atom_site_type_symbol
_atom_site_fract_x
_atom_site_fract_y
_atom_site_fract_z
_atom_type_partial_charge
Cu0 Cu 0.03945 0.70204 0.16357 0.0
N1 N 0.99999 0.75429 0.1756 0.0
N2 N 0.951 0.79551 0.21165 0.0
C3 C 0.98998 0.76639 0.20926 0.0
C4 C 0.93607 0.80237 0.17806 0.0
C5 C 0.96625 0.77676 0.15589 0.0
O6 O 1.01382 0.65064 0.19349 0.0
C7 C 0.12654 0.75822 0.17037 0.0
O8 O 0.0978 0.79482 0.16367 0.0
H9 H 1.00849 0.75076 0.23175 0.0
H10 H 0.96159 0.772 0.12776 0.0
N11 N 1.0321 0.68385 0.11606 0.0
N12 N 1.02997 0.63619 0.06824 0.0
C13 C 1.03176 0.6383 0.10398 0.0
C14 C 1.03042 0.71177 0.087 0.0
C15 C 1.02884 0.68252 0.0575 0.0
C16 C 0.96896 0.64099 0.19017 0.0
O17 O 0.94457 0.66193 0.16458 0.0
H18 H 0.03353 0.60734 0.12128 0.0
H19 H 1.03179 0.75063 0.08718 0.0
O20 O 0.10842 0.71603 0.17246 0.0
H21 H 0.90456 0.8229 0.17019 0.0
H22 H 1.02892 0.69453 0.0303 0.0
Cu23 Cu 0.36498 0.56562 0.66681 0.0
N24 N 0.31105 0.52762 0.67684 0.0
N25 N 0.26525 0.47286 0.70429 0.0
C26 C 0.30557 0.49994 0.70587 0.0
C27 C 0.24453 0.4843 0.67302 0.0
C28 C 0.2729 0.51781 0.65614 0.0
O29 O 0.4168 0.53361 0.69316 0.0
C30 C 0.31097 0.65327 0.67918 0.0
O31 O 0.27332 0.62538 0.67503 0.0
H32 H 0.33159 0.4985 0.72717 0.0
H33 H 0.26646 0.53334 0.63037 0.0
N34 N 0.38115 0.56143 0.61866 0.0
N35 N 0.42569 0.55185 0.56952 0.0
C36 C 0.42479 0.54991 0.60534 0.0
C37 C 0.35335 0.5714 0.59041 0.0
C38 C 0.38055 0.56541 0.56016 0.0
C39 C 0.42943 0.54276 0.72473 0.0
O40 O 0.41113 0.58049 0.74078 0.0
H41 H 0.45555 0.54157 0.62188 0.0
H42 H 0.31611 0.58299 0.59169 0.0
O43 O 0.35323 0.6344 0.67825 0.0
H44 H 0.21119 0.46958 0.66294 0.0
H45 H 0.36782 0.57077 0.53342 0.0
Cu46 Cu 0.49157 0.89953 0.16427 0.0
N47 N 0.53059 0.8459 0.17412 0.0
N48 N 0.58572 0.80149 0.20303 0.0
C49 C 0.55458 0.83896 0.20476 0.0
C50 C 0.58049 0.78385 0.16999 0.0
C51 C 0.54671 0.8114 0.15222 0.0
O52 O 0.51913 0.94996 0.19418 0.0
C53 C 0.40398 0.84435 0.16951 0.0
O54 O 0.43187 0.80869 0.1593 0.0
H55 H 0.55103 0.86268 0.22723 0.0
H56 H 0.53593 0.8075 0.12493 0.0
N57 N 0.49708 0.9191 0.11683 0.0
N58 N 0.50226 0.96835 0.06981 0.0
C59 C 0.50525 0.9643 0.10546 0.0
C60 C 0.48869 0.89338 0.08742 0.0
C61 C 0.49204 0.92351 0.05844 0.0
C62 C 0.56424 0.95832 0.19069 0.0
O63 O 0.58797 0.93616 0.16543 0.0
H64 H 0.5122 0.99375 0.12332 0.0
H65 H 0.47892 0.85578 0.08713 0.0
O66 O 0.42277 0.88585 0.17421 0.0
H67 H 0.60009 0.75357 0.15912 0.0
H68 H 0.48519 0.91343 0.03131 0.0
Cu69 Cu 0.16656 1.01713 0.6702 0.0
N70 N 0.21998 0.05684 0.67814 0.0
N71 N 0.26532 0.11336 0.70404 0.0
C72 C 0.22668 0.08418 0.70714 0.0
C73 C 0.28388 0.1034 0.67184 0.0
C74 C 0.25579 0.06883 0.65593 0.0
O75 O 0.11588 0.04526 0.69999 0.0
C76 C 0.22323 0.93002 0.67562 0.0
O77 O 0.25758 0.95701 0.66248 0.0
H78 H 0.20234 0.084 0.72945 0.0
H79 H 0.26064 0.05429 0.62973 0.0
N80 N 0.14633 1.0202 0.62277 0.0
N81 N 0.09742 1.02337 0.57544 0.0
C82 C 0.1008 1.02686 0.61107 0.0
C83 C 0.17276 1.01207 0.59357 0.0
C84 C 0.14284 1.01424 0.5644 0.0
C85 C 0.10532 0.08969 0.69536 0.0
O86 O 0.12563 0.11281 0.66902 0.0
H87 H 0.07066 0.03334 0.62858 0.0
H88 H 0.21082 1.00337 0.59354 0.0
O89 O 0.18196 0.94916 0.68182 0.0
H90 H 0.3154 0.12001 0.66034 0.0
H91 H 0.15347 1.00745 0.53737 0.0
Cu92 Cu 1.01698 0.34201 0.8877 0.0
N93 N 0.97313 0.3132 0.91881 0.0
N94 N 0.90095 0.3062 0.9447 0.0
C95 C 0.92804 0.3308 0.92142 0.0
C96 C 0.93025 0.27116 0.95731 0.0
C97 C 0.97514 0.27586 0.94148 0.0
O98 O 1.01339 0.41077 0.9 0.0
C99 C 1.00177 0.27342 0.8376 0.0
O100 O 1.00362 0.24842 0.86703 0.0
H101 H 0.91511 0.36081 0.90573 0.0
H102 H 1.00664 0.25352 0.94593 0.0
N103 N 0.08265 0.32609 0.89016 0.0
N104 N 0.15639 0.33558 0.8669 0.0
C105 C 0.10867 0.33291 0.86066 0.0
C106 C 0.11531 0.32323 0.9165 0.0
C107 C 0.16096 0.32935 0.90216 0.0
C108 C 1.02346 0.41671 0.93272 0.0
O109 O 0.03367 0.37834 0.95161 0.0
H110 H 0.09224 0.34213 0.83558 0.0
H111 H 0.10667 0.32145 0.9443 0.0
O112 O 1.00148 0.31938 0.83988 0.0
H113 H 0.92009 0.2443 0.9766 0.0
H114 H 0.19433 0.33259 0.91683 0.0
Cu115 Cu 0.71993 0.55765 0.38843 0.0
N116 N 0.75193 0.51454 0.41869 0.0
N117 N 0.76377 0.44266 0.44389 0.0
C118 C 0.73613 0.46913 0.42194 0.0
C119 C 0.79893 0.47255 0.45494 0.0
C120 C 0.79121 0.5173 0.43959 0.0
O121 O 0.65115 0.55033 0.40037 0.0
C122 C 0.78893 0.54626 0.33765 0.0
O123 O 0.81433 0.55081 0.36673 0.0
H124 H 0.70528 0.45546 0.40762 0.0
H125 H 0.81299 0.54914 0.44297 0.0
N126 N 0.73232 0.62346 0.3925 0.0
N127 N 0.71864 0.69716 0.37025 0.0
C128 C 0.7279 0.65055 0.36319 0.0
C129 C 0.72671 0.65427 0.41959 0.0
C130 C 0.7183 0.69985 0.4059 0.0
C131 C 0.64356 0.55237 0.4337 0.0
O132 O 0.68044 0.55966 0.45479 0.0
H133 H 0.72417 0.63497 0.33717 0.0
H134 H 0.72337 0.64382 0.44698 0.0
O135 O 0.74293 0.54405 0.34034 0.0
H136 H 0.82796 0.4628 0.47275 0.0
H137 H 0.70831 0.73138 0.42098 0.0
Cu138 Cu 0.50845 0.26256 0.88751 0.0
N139 N 0.54745 0.29474 0.92021 0.0
N140 N 0.61739 0.30719 0.94825 0.0
C141 C 0.59139 0.27705 0.92809 0.0
C142 C 0.58845 0.34578 0.95349 0.0
C143 C 0.5449 0.33779 0.93636 0.0
O144 O 0.5154 0.1943 0.901 0.0
C145 C 0.54501 0.32532 0.83477 0.0
O146 O 0.57129 0.3433 0.86033 0.0
H147 H 0.60519 0.2438 0.91711 0.0
H148 H 0.51484 0.36258 0.93421 0.0
N149 N 0.44205 0.27468 0.88791 0.0
N150 N 0.36956 0.26065 0.86386 0.0
C151 C 0.41729 0.26491 0.85826 0.0
C152 C 0.40856 0.27785 0.91357 0.0
C153 C 0.36367 0.26892 0.89875 0.0
C154 C 0.5049 0.18825 0.93364 0.0
O155 O 0.49058 0.22598 0.95168 0.0
H156 H 0.43485 0.25508 0.83377 0.0
H157 H 0.41633 0.28192 0.94139 0.0
O158 O 0.52512 0.28438 0.83945 0.0
H159 H 0.59857 0.378 0.96762 0.0
H160 H 0.33002 0.26534 0.91297 0.0
Cu161 Cu 0.80793 0.0423 0.38964 0.0
N162 N 0.77799 0.0873 0.4192 0.0
N163 N 0.76831 0.15974 0.44381 0.0
C164 C 0.79522 0.13222 0.42213 0.0
C165 C 0.73236 0.13089 0.45507 0.0
C166 C 0.73873 0.08585 0.44007 0.0
O167 O 0.87587 0.04406 0.40425 0.0
C168 C 0.74439 0.06284 0.33543 0.0
O169 O 0.71721 0.07181 0.36301 0.0
H170 H 0.82635 0.14483 0.40764 0.0
H171 H 0.71597 0.05473 0.44359 0.0
N172 N 0.78953 0.9782 0.39371 0.0
N173 N 0.79474 0.9078 0.36505 0.0
C174 C 0.81886 0.94563 0.37851 0.0
C175 C 0.7449 0.95973 0.39089 0.0
C176 C 0.74803 0.91616 0.37338 0.0
C177 C 0.88007 0.03161 0.43666 0.0
O178 O 0.84087 1.01835 0.4535 0.0
H179 H 0.85578 0.95408 0.37167 0.0
H180 H 0.71201 0.97953 0.39615 0.0
O181 O 0.78949 0.05534 0.34044 0.0
H182 H 0.70357 0.14158 0.47272 0.0
H183 H 0.71775 0.89523 0.3641 0.0
H184 H 0.05789 0.43465 0.99763 0.0
H185 H 0.98867 0.50541 0.9095 0.0
H186 H 0.98501 0.58065 0.94371 0.0
H187 H 0.99915 0.62496 1.00019 0.0
H188 H 0.069 0.55045 0.08665 0.0
H189 H 0.07375 0.4778 0.05161 0.0
C190 C 0.0419 0.46639 0.9856 0.0
C191 C 1.02329 0.46413 0.95099 0.0
C192 C 0.03957 0.50882 1.00539 0.0
C193 C 1.00333 0.50604 0.93602 0.0
C194 C 1.00108 0.54897 0.95569 0.0
C195 C 1.01568 0.59294 1.01127 0.0
C196 C 0.03309 0.59345 0.04646 0.0
C197 C 1.01873 0.55066 0.99063 0.0
C198 C 0.0542 0.5513 0.06021 0.0
C199 C 0.05738 0.50961 0.04001 0.0
H200 H 0.43655 0.57837 0.50033 0.0
H201 H 0.50833 0.504 0.58609 0.0
H202 H 0.5799 0.49431 0.55004 0.0
H203 H 0.62459 0.51134 0.4961 0.0
H204 H 0.55485 0.58362 0.40906 0.0
H205 H 0.47946 0.5882 0.44325 0.0
C206 C 0.46744 0.55947 0.51113 0.0
C207 C 0.46676 0.54298 0.54657 0.0
C208 C 0.50891 0.55333 0.48989 0.0
C209 C 0.50766 0.51848 0.55959 0.0
C210 C 0.54875 0.51246 0.53879 0.0
C211 C 0.59267 0.52755 0.48435 0.0
C212 C 0.59532 0.5474 0.45019 0.0
C213 C 0.55009 0.53049 0.50424 0.0
C214 C 0.55361 0.56778 0.4352 0.0
C215 C 0.51072 0.57081 0.45493 0.0
H216 H 0.517 0.97714 0.9986 0.0
H217 H 0.49166 0.05985 0.09349 0.0
H218 H 0.49298 0.13346 0.05955 0.0
H219 H 0.49822 0.175 1.00374 0.0
H220 H 0.52098 0.09621 0.90709 0.0
H221 H 0.52344 1.0205 0.94098 0.0
C222 C 0.51156 1.01117 1.01189 0.0
C223 C 0.50441 1.01221 0.04897 0.0
C224 C 0.51165 0.05422 0.9919 0.0
C225 C 0.49806 0.05714 0.06542 0.0
C226 C 0.49841 0.09963 0.0459 0.0
C227 C 0.50372 0.14141 0.98975 0.0
C228 C 0.50903 0.14146 0.95273 0.0
C229 C 0.5048 0.09856 1.00924 0.0
C230 C 0.5167 0.09735 0.9355 0.0
C231 C 0.51799 0.05408 0.95493 0.0
H232 H 0.89222 1.01427 0.50615 0.0
H233 H 0.97221 0.0523 0.41257 0.0
H234 H 0.0471 0.05365 0.4475 0.0
H235 H 0.08941 0.04369 0.50517 0.0
H236 H 1.00642 1.00477 0.59734 0.0
H237 H 0.9331 1.00486 0.56232 0.0
C238 C 0.92592 1.02283 0.49309 0.0
C239 C 0.92643 0.03298 0.4566 0.0
C240 C 0.96837 1.02368 0.51325 0.0
C241 C 0.97066 0.04425 0.44054 0.0
C242 C 1.01347 0.04502 0.46056 0.0
C243 C 0.05536 0.03499 0.51758 0.0
C244 C 0.05388 1.02447 0.55416 0.0
C245 C 1.01276 0.03469 0.49701 0.0
C246 C 1.00906 1.01385 0.56963 0.0
C247 C 0.96692 1.01349 0.54949 0.0
H248 H 0.17468 0.84382 0.17571 0.0
H249 H 0.19905 0.69057 0.1709 0.0
H250 H 0.28624 0.70366 0.17121 0.0
H251 H 0.35588 0.75863 0.17048 0.0
H252 H 0.33178 0.9118 0.17657 0.0
H253 H 0.24455 0.89865 0.17831 0.0
C254 C 0.19898 0.81317 0.1749 0.0
C255 C 0.17988 0.76615 0.17309 0.0
C256 C 0.24936 0.82098 0.17524 0.0
C257 C 0.21232 0.72709 0.17233 0.0
C258 C 0.26235 0.73459 0.17241 0.0
C259 C 0.33165 0.78924 0.17237 0.0
C260 C 0.35078 0.83629 0.1732 0.0
C261 C 0.28133 0.78138 0.17349 0.0
C262 C 0.31845 0.87526 0.17591 0.0
C263 C 0.2684 0.86773 0.1768 0.0
H264 H 0.22635 0.70223 0.68983 0.0
H265 H 0.37863 0.72493 0.67368 0.0
H266 H 0.36509 0.81197 0.67232 0.0
H267 H 0.3095 0.88171 0.67279 0.0
H268 H 0.1574 0.85899 0.6899 0.0
H269 H 0.17149 0.77221 0.69394 0.0
C270 C 0.25675 0.72613 0.68625 0.0
C271 C 0.30356 0.70661 0.68168 0.0
C272 C 0.24866 0.77635 0.68552 0.0
C273 C 0.34231 0.73855 0.67732 0.0
C274 C 0.33451 0.78848 0.6764 0.0
C275 C 0.27935 0.85789 0.67761 0.0
C276 C 0.23225 0.87727 0.68081 0.0
C277 C 0.28777 0.8078 0.68001 0.0
C278 C 0.19394 0.84549 0.68731 0.0
C279 C 0.202 0.79568 0.68954 0.0
H280 H 0.68577 0.37597 0.9501 0.0
H281 H 0.6628 0.22408 0.96439 0.0
H282 H 0.74982 0.21035 0.96813 0.0
H283 H 0.83276 0.24048 0.96064 0.0
H284 H 0.85548 0.39228 0.94519 0.0
H285 H 0.76881 0.40717 0.94889 0.0
C286 C 0.69983 0.3401 0.9549 0.0
C287 C 0.66788 0.30106 0.95665 0.0
C288 C 0.75007 0.33235 0.95633 0.0
C289 C 0.68672 0.25464 0.9625 0.0
C290 C 0.73649 0.24676 0.96461 0.0
C291 C 0.81877 0.27686 0.95882 0.0
C292 C 0.85056 0.31506 0.9521 0.0
C293 C 0.76861 0.28514 0.96052 0.0
C294 C 0.83175 0.36207 0.94962 0.0
C295 C 0.78214 0.37067 0.95185 0.0
H296 H 0.83341 0.37524 0.4507 0.0
H297 H 0.67946 0.39666 0.45295 0.0
H298 H 0.66691 0.30986 0.45673 0.0
H299 H 0.69957 0.22745 0.45336 0.0
H300 H 0.85347 0.20587 0.44889 0.0
H301 H 0.86633 0.29261 0.45227 0.0
C302 C 0.79727 0.36082 0.45278 0.0
C303 C 0.75743 0.39221 0.45129 0.0
C304 C 0.79031 0.31069 0.45415 0.0
C305 C 0.71065 0.37308 0.4536 0.0
C306 C 0.70346 0.32347 0.45578 0.0
C307 C 0.73587 0.24175 0.45386 0.0
C308 C 0.77545 0.21029 0.45055 0.0
C309 C 0.74297 0.29183 0.45515 0.0
C310 C 0.82236 0.22941 0.45086 0.0
C311 C 0.82976 0.27901 0.45287 0.0
H312 H 0.88476 0.53915 0.32551 0.0
H313 H 0.75031 0.57297 0.27333 0.0
H314 H 0.79486 0.60131 0.22143 0.0
H315 H 0.87203 0.62454 0.19387 0.0
H316 H 1.00602 0.59426 0.24804 0.0
H317 H 0.96148 0.55639 0.29622 0.0
C318 C 0.86502 0.552 0.30258 0.0
C319 C 0.81413 0.55408 0.30344 0.0
C320 C 0.89088 0.56943 0.27337 0.0
C321 C 0.78933 0.57059 0.27336 0.0
C322 C 0.81488 0.58725 0.24381 0.0
C323 C 0.89167 0.60912 0.21597 0.0
C324 C 0.94252 0.61265 0.21733 0.0
C325 C 0.86568 0.58809 0.24395 0.0
C326 C 0.96707 0.59232 0.24625 0.0
C327 C 0.94156 0.5707 0.27387 0.0
H328 H 0.43387 0.44511 0.71701 0.0
H329 H 0.49207 0.56204 0.77815 0.0
H330 H 0.53751 0.50488 0.81454 0.0
H331 H 0.55612 0.42218 0.8317 0.0
H332 H 0.4919 0.304 0.77513 0.0
H333 H 0.45395 0.36102 0.73397 0.0
C334 C 0.45711 0.45804 0.73797 0.0
C335 C 0.4599 0.50791 0.7447 0.0
C336 C 0.48192 0.42469 0.75966 0.0
C337 C 0.48935 0.52399 0.77241 0.0
C338 C 0.51532 0.49128 0.79322 0.0
C339 C 0.53451 0.40855 0.81005 0.0
C340 C 0.52733 0.35855 0.80648 0.0
C341 C 0.51129 0.44157 0.78745 0.0
C342 C 0.49847 0.3421 0.77845 0.0
C343 C 0.4765 0.37479 0.75501 0.0
H344 H 0.66187 0.96651 0.19726 0.0
H345 H 0.52804 1.0147 0.24385 0.0
H346 H 0.57303 0.05635 0.29011 0.0
H347 H 0.64948 0.0736 0.31978 0.0
H348 H 0.78335 1.02127 0.27576 0.0
H349 H 0.73916 0.98753 0.22555 0.0
C350 C 0.64242 0.98658 0.21727 0.0
C351 C 0.59141 0.98728 0.21704 0.0
C352 C 0.66858 1.00971 0.24422 0.0
C353 C 0.56709 1.01335 0.24336 0.0
C354 C 0.59286 0.03718 0.26984 0.0
C355 C 0.6693 0.05543 0.299 0.0
C356 C 0.71988 0.05002 0.3017 0.0
C357 C 0.64351 0.03485 0.27088 0.0
C358 C 0.74462 1.02635 0.27436 0.0
C359 C 0.71925 1.00667 0.24578 0.0
H360 H 0.99552 0.17763 0.8263 0.0
H361 H 1.03264 0.31023 0.77382 0.0
H362 H 0.06442 0.26446 0.72359 0.0
H363 H 0.08929 0.18669 0.6977 0.0
H364 H 0.05599 0.05463 0.75248 0.0
H365 H 1.01517 0.10041 0.79878 0.0
C366 C 1.00984 0.19673 0.80365 0.0
C367 C 1.01173 0.24747 0.80398 0.0
C368 C 1.02936 0.17016 0.77548 0.0
C369 C 1.03028 0.27137 0.77425 0.0
C370 C 0.04893 0.2451 0.74567 0.0
C371 C 0.07261 0.16775 0.71952 0.0
C372 C 0.07606 0.11705 0.7216 0.0
C373 C 0.04985 0.19447 0.74645 0.0
C374 C 0.05417 0.09343 0.75018 0.0
C375 C 1.03082 0.11966 0.7767 0.0
H376 H 0.15833 0.31996 0.7971 0.0
H377 H 0.23057 0.39661 0.88045 0.0
H378 H 0.27468 0.44402 0.83663 0.0
H379 H 0.28385 0.47115 0.77474 0.0
H380 H 0.20854 0.39563 0.69198 0.0
H381 H 0.1737 0.34129 0.73538 0.0
C382 C 0.18428 0.34659 0.80565 0.0
C383 C 0.19061 0.35512 0.842 0.0
C384 C 0.20804 0.37485 0.78036 0.0
C385 C 0.22504 0.38911 0.8527 0.0
C386 C 0.24981 0.4167 0.8276 0.0
C387 C 0.26045 0.44239 0.76609 0.0
C388 C 0.24818 0.43833 0.73002 0.0
C389 C 0.24024 0.4111 0.79136 0.0
C390 C 0.21766 0.40066 0.71951 0.0
C391 C 0.19798 0.36919 0.74433 0.0
H392 H 0.74052 0.70385 0.30126 0.0
H393 H 0.64891 0.76467 0.38173 0.0
H394 H 0.60135 0.80605 0.33649 0.0
H395 H 0.57895 0.81548 0.27381 0.0
H396 H 0.6693 0.75189 0.19349 0.0
H397 H 0.72309 0.72003 0.23883 0.0
C398 C 0.71047 0.72665 0.30893 0.0
C399 C 0.69796 0.73039 0.34489 0.0
C400 C 0.68213 0.74881 0.28269 0.0
C401 C 0.65959 0.76103 0.35439 0.0
C402 C 0.6319 0.78425 0.32842 0.0
C403 C 0.61072 0.79529 0.26608 0.0
C404 C 0.61923 0.78544 0.23005 0.0
C405 C 0.64172 0.77689 0.29243 0.0
C406 C 0.66081 0.75903 0.22086 0.0
C407 C 0.69197 0.7411 0.24683 0.0
H408 H 0.3683 0.27258 0.79362 0.0
H409 H 0.29793 0.19724 0.87852 0.0
H410 H 0.25605 0.14629 0.83577 0.0
H411 H 0.24795 0.11654 0.77467 0.0
H412 H 0.32025 0.19169 0.69015 0.0
H413 H 0.35371 0.24832 0.73235 0.0
C414 C 0.34323 0.24542 0.8027 0.0
C415 C 0.33673 0.23839 0.83921 0.0
C416 C 0.32058 0.21533 0.77805 0.0
C417 C 0.3035 0.20364 0.85063 0.0
C418 C 0.28001 0.17405 0.82615 0.0
C419 C 0.2704 0.14563 0.7653 0.0
C420 C 0.28218 0.14889 0.72909 0.0
C421 C 0.28959 0.17848 0.78984 0.0
C422 C 0.31151 0.18711 0.71777 0.0
C423 C 0.3304 0.21996 0.74191 0.0
H424 H 0.85542 0.80967 0.22278 0.0
H425 H 0.99483 0.81719 0.2731 0.0
H426 H 0.95733 0.84662 0.32728 0.0
H427 H 0.88588 0.87559 0.35894 0.0
H428 H 0.74645 0.87093 0.30838 0.0
H429 H 0.78252 0.8334 0.25643 0.0
C430 C 0.87754 0.81795 0.24557 0.0
C431 C 0.92802 0.81184 0.24371 0.0
C432 C 0.85562 0.83486 0.27678 0.0
C433 C 0.95602 0.82157 0.27381 0.0
C434 C 0.93458 0.83845 0.30479 0.0
C435 C 0.86331 0.86605 0.33666 0.0
C436 C 0.81363 0.87687 0.33757 0.0
C437 C 0.88455 0.8459 0.3064 0.0
C438 C 0.78472 0.86312 0.30871 0.0
C439 C 0.80549 0.84215 0.27868 0.0
loop_
_geom_bond_atom_site_label_1
_geom_bond_atom_site_label_2
_geom_bond_distance
_geom_bond_site_symmetry_2
_ccdc_geom_bond_type
Cu0 N1 1.999 . S
Cu0 O6 1.974 . S
Cu0 N11 1.981 1_655 S
Cu0 O20 1.959 1_655 S
N1 Cu0 1.999 . S
N1 C3 1.263 . S
N1 C5 1.389 . S
N2 C3 1.358 . S
N2 C4 1.400 . S
C3 N1 1.263 . S
C3 N2 1.358 . S
C3 H9 0.930 . S
C4 N2 1.400 . S
C4 C5 1.351 . S
C4 H21 0.930 . S
C5 N1 1.389 . S
C5 C4 1.351 . S
C5 H10 0.930 1_655 S
O6 Cu0 1.974 . S
O6 C16 1.282 . S
C7 O8 1.261 . S
C7 O20 1.251 . S
O8 C7 1.261 . S
H9 C3 0.930 . S
H10 C5 0.930 1_455 S
N11 Cu0 1.981 1_455 S
N11 C13 1.347 . S
N11 C14 1.382 1_455 S
N12 C13 1.345 . S
N12 C15 1.344 . S
C13 N11 1.347 . S
C13 N12 1.345 . S
C13 H18 0.930 . S
C14 N11 1.382 1_655 S
C14 C15 1.341 1_655 S
C14 H19 0.930 . S
C15 N12 1.344 . S
C15 C14 1.341 1_455 S
C15 H22 0.927 1_455 S
C16 O6 1.282 . S
C16 O17 1.216 . S
O17 C16 1.216 . S
H18 C13 0.930 . S
H19 C14 0.930 . S
O20 Cu0 1.959 1_455 S
O20 C7 1.251 . S
H21 C4 0.930 . S
H22 C15 0.927 1_655 S
Cu23 N24 1.999 . S
Cu23 O29 1.974 . S
Cu23 N34 1.985 . S
Cu23 O43 1.959 . S
N24 Cu23 1.999 . S
N24 C26 1.263 . S
N24 C28 1.389 . S
N25 C26 1.358 . S
N25 C27 1.400 . S
C26 N24 1.263 . S
C26 N25 1.358 . S
C26 H32 0.930 . S
C27 N25 1.400 . S
C27 C28 1.351 . S
C27 H44 0.930 . S
C28 N24 1.389 . S
C28 C27 1.351 . S
C28 H33 0.930 . S
O29 Cu23 1.974 . S
O29 C39 1.282 . S
C30 O31 1.261 . S
C30 O43 1.251 . S
O31 C30 1.261 . S
H32 C26 0.930 . S
H33 C28 0.930 . S
N34 Cu23 1.985 . S
N34 C36 1.335 . S
N34 C37 1.390 . S
N35 C36 1.345 . S
N35 C38 1.336 . S
C36 N34 1.335 . S
C36 N35 1.345 . S
C36 H41 0.930 . S
C37 N34 1.390 . S
C37 C38 1.346 . S
C37 H42 0.930 . S
C38 N35 1.336 . S
C38 C37 1.346 . S
C38 H45 0.929 . S
C39 O29 1.282 . S
C39 O40 1.216 . S
O40 C39 1.216 . S
H41 C36 0.930 . S
H42 C37 0.930 . S
O43 Cu23 1.959 . S
O43 C30 1.251 . S
H44 C27 0.930 . S
H45 C38 0.929 . S
Cu46 N47 1.999 . S
Cu46 O52 1.974 . S
Cu46 N57 1.985 . S
Cu46 O66 1.959 . S
N47 Cu46 1.999 . S
N47 C49 1.263 . S
N47 C51 1.389 . S
N48 C49 1.358 . S
N48 C50 1.400 . S
C49 N47 1.263 . S
C49 N48 1.358 . S
C49 H55 0.930 . S
C50 N48 1.400 . S
C50 C51 1.351 . S
C50 H67 0.930 . S
C51 N47 1.389 . S
C51 C50 1.351 . S
C51 H56 0.930 . S
O52 Cu46 1.974 . S
O52 C62 1.282 . S
C53 O54 1.261 . S
C53 O66 1.251 . S
O54 C53 1.261 . S
H55 C49 0.930 . S
H56 C51 0.930 . S
N57 Cu46 1.985 . S
N57 C59 1.335 . S
N57 C60 1.390 . S
N58 C59 1.345 . S
N58 C61 1.336 . S
C59 N57 1.335 . S
C59 N58 1.345 . S
C59 H64 0.930 . S
C60 N57 1.390 . S
C60 C61 1.346 . S
C60 H65 0.930 . S
C61 N58 1.336 . S
C61 C60 1.346 . S
C61 H68 0.929 1_565 S
C62 O52 1.282 . S
C62 O63 1.216 . S
O63 C62 1.216 . S
H64 C59 0.930 . S
H65 C60 0.930 . S
O66 Cu46 1.959 . S
O66 C53 1.251 . S
H67 C50 0.930 . S
H68 C61 0.929 1_545 S
Cu69 N70 1.999 . S
Cu69 O75 1.974 . S
Cu69 N80 1.980 1_545 S
Cu69 O89 1.959 1_545 S
N70 Cu69 1.999 . S
N70 C72 1.263 . S
N70 C74 1.389 . S
N71 C72 1.358 . S
N71 C73 1.400 . S
C72 N70 1.263 . S
C72 N71 1.358 . S
C72 H78 0.930 . S
C73 N71 1.400 . S
C73 C74 1.351 . S
C73 H90 0.930 . S
C74 N70 1.389 . S
C74 C73 1.351 . S
C74 H79 0.930 1_545 S
O75 Cu69 1.974 . S
O75 C85 1.282 . S
C76 O77 1.261 . S
C76 O89 1.251 . S
O77 C76 1.261 . S
H78 C72 0.930 . S
H79 C74 0.930 1_565 S
N80 Cu69 1.980 1_565 S
N80 C82 1.349 . S
N80 C83 1.381 1_565 S
N81 C82 1.345 . S
N81 C84 1.348 . S
C82 N80 1.349 . S
C82 N81 1.345 . S
C82 H87 0.930 . S
C83 N80 1.381 1_545 S
C83 C84 1.339 1_545 S
C83 H88 0.930 . S
C84 N81 1.348 . S
C84 C83 1.339 1_565 S
C84 H91 0.926 1_465 S
C85 O75 1.282 . S
C85 O86 1.216 . S
O86 C85 1.216 . S
H87 C82 0.930 . S
H88 C83 0.930 . S
O89 Cu69 1.959 1_565 S
O89 C76 1.251 . S
H90 C73 0.930 . S
H91 C84 0.926 1_645 S
Cu92 N93 1.999 . S
Cu92 O98 1.974 . S
Cu92 N103 1.985 1_655 S
Cu92 O112 1.959 . S
N93 Cu92 1.999 . S
N93 C95 1.263 . S
N93 C97 1.389 . S
N94 C95 1.358 . S
N94 C96 1.400 . S
C95 N93 1.263 . S
C95 N94 1.358 . S
C95 H101 0.930 . S
C96 N94 1.400 . S
C96 C97 1.351 . S
C96 H113 0.930 . S
C97 N93 1.389 . S
C97 C96 1.351 . S
C97 H102 0.930 . S
O98 Cu92 1.974 . S
O98 C108 1.282 . S
C99 O100 1.261 . S
C99 O112 1.251 1_455 S
O100 C99 1.261 . S
H101 C95 0.930 . S
H102 C97 0.930 . S
N103 Cu92 1.985 1_455 S
N103 C105 1.335 . S
N103 C106 1.390 . S
N104 C105 1.345 . S
N104 C107 1.336 . S
C105 N103 1.335 . S
C105 N104 1.345 . S
C105 H110 0.930 . S
C106 N103 1.390 . S
C106 C107 1.346 . S
C106 H111 0.930 . S
C107 N104 1.336 . S
C107 C106 1.346 . S
C107 H114 0.929 . S
C108 O98 1.282 . S
C108 O109 1.216 1_655 S
O109 C108 1.216 1_455 S
H110 C105 0.930 . S
H111 C106 0.930 . S
O112 Cu92 1.959 . S
O112 C99 1.251 1_655 S
H113 C96 0.930 . S
H114 C107 0.929 . S
Cu115 N116 1.999 . S
Cu115 O121 1.974 . S
Cu115 N126 1.985 . S
Cu115 O135 1.959 . S
N116 Cu115 1.999 . S
N116 C118 1.263 . S
N116 C120 1.389 . S
N117 C118 1.358 . S
N117 C119 1.400 . S
C118 N116 1.263 . S
C118 N117 1.358 . S
C118 H124 0.930 . S
C119 N117 1.400 . S
C119 C120 1.351 . S
C119 H136 0.930 . S
C120 N116 1.389 . S
C120 C119 1.351 . S
C120 H125 0.930 . S
O121 Cu115 1.974 . S
O121 C131 1.282 . S
C122 O123 1.261 . S
C122 O135 1.251 . S
O123 C122 1.261 . S
H124 C118 0.930 . S
H125 C120 0.930 . S
N126 Cu115 1.985 . S
N126 C128 1.335 . S
N126 C129 1.390 . S
N127 C128 1.345 . S
N127 C130 1.336 . S
C128 N126 1.335 . S
C128 N127 1.345 . S
C128 H133 0.930 . S
C129 N126 1.390 . S
C129 C130 1.346 . S
C129 H134 0.930 . S
C130 N127 1.336 . S
C130 C129 1.346 . S
C130 H137 0.929 . S
C131 O121 1.282 . S
C131 O132 1.216 . S
O132 C131 1.216 . S
H133 C128 0.930 . S
H134 C129 0.930 . S
O135 Cu115 1.959 . S
O135 C122 1.251 . S
H136 C119 0.930 . S
H137 C130 0.929 . S
Cu138 N139 1.999 . S
Cu138 O144 1.974 . S
Cu138 N149 1.985 . S
Cu138 O158 1.959 . S
N139 Cu138 1.999 . S
N139 C141 1.263 . S
N139 C143 1.389 . S
N140 C141 1.358 . S
N140 C142 1.400 . S
C141 N139 1.263 . S
C141 N140 1.358 . S
C141 H147 0.930 . S
C142 N140 1.400 . S
C142 C143 1.351 . S
C142 H159 0.930 . S
C143 N139 1.389 . S
C143 C142 1.351 . S
C143 H148 0.930 . S
O144 Cu138 1.974 . S
O144 C154 1.282 . S
C145 O146 1.261 . S
C145 O158 1.251 . S
O146 C145 1.261 . S
H147 C141 0.930 . S
H148 C143 0.930 . S
N149 Cu138 1.985 . S
N149 C151 1.335 . S
N149 C152 1.390 . S
N150 C151 1.345 . S
N150 C153 1.336 . S
C151 N149 1.335 . S
C151 N150 1.345 . S
C151 H156 0.930 . S
C152 N149 1.390 . S
C152 C153 1.346 . S
C152 H157 0.930 . S
C153 N150 1.336 . S
C153 C152 1.346 . S
C153 H160 0.929 . S
C154 O144 1.282 . S
C154 O155 1.216 . S
O155 C154 1.216 . S
H156 C151 0.930 . S
H157 C152 0.930 . S
O158 Cu138 1.959 . S
O158 C145 1.251 . S
H159 C142 0.930 . S
H160 C153 0.929 . S
Cu161 N162 1.999 . S
Cu161 O167 1.974 . S
Cu161 N172 1.985 1_545 S
Cu161 O181 1.959 1_545 S
N162 Cu161 1.999 . S
N162 C164 1.263 . S
N162 C166 1.389 . S
N163 C164 1.358 . S
N163 C165 1.400 . S
C164 N162 1.263 . S
C164 N163 1.358 . S
C164 H170 0.930 . S
C165 N163 1.400 . S
C165 C166 1.351 . S
C165 H182 0.930 . S
C166 N162 1.389 . S
C166 C165 1.351 . S
C166 H171 0.930 . S
O167 Cu161 1.974 . S
O167 C177 1.282 . S
C168 O169 1.261 . S
C168 O181 1.252 . S
O169 C168 1.261 . S
H170 C164 0.930 . S
H171 C166 0.930 . S
N172 Cu161 1.985 1_565 S
N172 C174 1.335 . S
N172 C175 1.390 . S
N173 C174 1.345 . S
N173 C176 1.336 . S
C174 N172 1.335 . S
C174 N173 1.345 . S
C174 H179 0.930 . S
C175 N172 1.390 . S
C175 C176 1.346 . S
C175 H180 0.930 . S
C176 N173 1.336 . S
C176 C175 1.346 . S
C176 H183 0.929 . S
C177 O167 1.282 . S
C177 O178 1.216 1_545 S
O178 C177 1.216 1_565 S
H179 C174 0.930 . S
H180 C175 0.930 . S
O181 Cu161 1.959 1_565 S
O181 C168 1.252 . S
H182 C165 0.930 . S
H183 C176 0.929 . S
H184 C190 0.930 . S
H185 C193 0.930 . S
H186 C194 0.930 . S
H187 C195 0.930 . S
H188 C198 0.930 . S
H189 C199 0.930 . S
C190 H184 0.930 . S
C190 C191 1.355 . S
C190 C192 1.422 . S
C191 C190 1.355 . S
C191 C193 1.419 1_655 S
C192 C190 1.422 . S
C192 C197 1.432 1_655 S
C192 C199 1.395 1_556 S
C193 H185 0.930 . S
C193 C191 1.419 1_455 S
C193 C194 1.362 . S
C194 H186 0.930 . S
C194 C193 1.362 . S
C194 C197 1.409 . S
C195 H187 0.930 . S
C195 C196 1.355 1_556 S
C195 C197 1.415 . S
C196 C195 1.355 1_554 S
C196 C198 1.419 . S
C197 C192 1.432 1_455 S
C197 C194 1.409 . S
C197 C195 1.415 . S
C198 H188 0.930 . S
C198 C196 1.419 . S
C198 C199 1.362 1_455 S
C199 H189 0.930 . S
C199 C192 1.395 1_554 S
C199 C198 1.362 1_655 S
H200 C206 0.930 . S
H201 C209 0.930 . S
H202 C210 0.930 . S
H203 C211 0.930 . S
H204 C214 0.930 . S
H205 C215 0.930 . S
C206 H200 0.930 . S
C206 C207 1.355 . S
C206 C208 1.415 . S
C207 C206 1.355 . S
C207 C209 1.419 . S
C208 C206 1.415 . S
C208 C213 1.425 . S
C208 C215 1.409 . S
C209 H201 0.930 . S
C209 C207 1.419 . S
C209 C210 1.362 . S
C210 H202 0.930 . S
C210 C209 1.362 . S
C210 C213 1.409 . S
C211 H203 0.930 . S
C211 C212 1.355 . S
C211 C213 1.415 . S
C212 C211 1.355 . S
C212 C214 1.419 . S
C213 C208 1.425 . S
C213 C210 1.409 . S
C213 C211 1.415 . S
C214 H204 0.930 . S
C214 C212 1.419 . S
C214 C215 1.362 . S
C215 H205 0.930 . S
C215 C208 1.409 . S
C215 C214 1.362 . S
H216 C222 0.930 . S
H217 C225 0.923 1_565 S
H218 C226 0.930 . S
H219 C227 0.930 . S
H220 C230 0.930 . S
H221 C231 0.930 . S
C222 H216 0.930 . S
C222 C223 1.356 . S
C222 C224 1.415 . S
C223 C222 1.356 . S
C223 C225 1.419 . S
C224 C222 1.415 . S
C224 C229 1.425 1_554 S
C224 C231 1.409 . S
C225 H217 0.923 1_545 S
C225 C223 1.419 . S
C225 C226 1.370 1_554 S
C226 H218 0.930 . S
C226 C225 1.370 1_556 S
C226 C229 1.409 . S
C227 H219 0.930 . S
C227 C228 1.355 . S
C227 C229 1.415 . S
C228 C227 1.355 . S
C228 C230 1.419 . S
C229 C224 1.425 1_556 S
C229 C226 1.409 . S
C229 C227 1.415 . S
C230 H220 0.930 . S
C230 C228 1.419 . S
C230 C231 1.362 1_556 S
C231 H221 0.930 . S
C231 C224 1.409 . S
C231 C230 1.362 1_554 S
H232 C238 0.930 . S
H233 C241 0.930 . S
H234 C242 0.930 . S
H235 C243 0.930 . S
H236 C246 0.930 . S
H237 C247 0.930 . S
C238 H232 0.930 . S
C238 C239 1.355 1_565 S
C238 C240 1.415 . S
C239 C238 1.355 1_545 S
C239 C241 1.419 . S
C240 C238 1.415 . S
C240 C245 1.425 1_565 S
C240 C247 1.409 . S
C241 H233 0.930 . S
C241 C239 1.419 . S
C241 C242 1.362 . S
C242 H234 0.930 . S
C242 C241 1.362 . S
C242 C245 1.409 . S
C243 H235 0.930 . S
C243 C244 1.355 1_545 S
C243 C245 1.415 . S
C244 C243 1.355 1_565 S
C244 C246 1.419 . S
C245 C240 1.425 1_545 S
C245 C242 1.409 . S
C245 C243 1.415 . S
C246 H236 0.930 . S
C246 C244 1.419 . S
C246 C247 1.362 . S
C247 H237 0.930 . S
C247 C240 1.409 . S
C247 C246 1.362 . S
H248 C254 0.930 . S
H249 C257 0.930 . S
H250 C258 0.930 . S
H251 C259 0.930 . S
H252 C262 0.930 . S
H253 C263 0.930 . S
C254 H248 0.930 . S
C254 C255 1.355 . S
C254 C256 1.415 . S
C255 C254 1.355 . S
C255 C257 1.419 . S
C256 C254 1.415 . S
C256 C261 1.425 . S
C256 C263 1.409 . S
C257 H249 0.930 . S
C257 C255 1.419 . S
C257 C258 1.362 . S
C258 H250 0.930 . S
C258 C257 1.362 . S
C258 C261 1.409 . S
C259 H251 0.930 . S
C259 C260 1.355 . S
C259 C261 1.415 . S
C260 C259 1.355 . S
C260 C262 1.419 . S
C261 C256 1.425 . S
C261 C258 1.409 . S
C261 C259 1.415 . S
C262 H252 0.930 . S
C262 C260 1.419 . S
C262 C263 1.362 . S
C263 H253 0.930 . S
C263 C256 1.409 . S
C263 C262 1.362 . S
H264 C270 0.930 . S
H265 C273 0.930 . S
H266 C274 0.930 . S
H267 C275 0.930 . S
H268 C278 0.930 . S
H269 C279 0.930 . S
C270 H264 0.930 . S
C270 C271 1.355 . S
C270 C272 1.415 . S
C271 C270 1.355 . S
C271 C273 1.419 . S
C272 C270 1.415 . S
C272 C277 1.425 . S
C272 C279 1.409 . S
C273 H265 0.930 . S
C273 C271 1.419 . S
C273 C274 1.362 . S
C274 H266 0.930 . S
C274 C273 1.362 . S
C274 C277 1.409 . S
C275 H267 0.930 . S
C275 C276 1.355 . S
C275 C277 1.415 . S
C276 C275 1.355 . S
C276 C278 1.419 . S
C277 C272 1.425 . S
C277 C274 1.409 . S
C277 C275 1.415 . S
C278 H268 0.930 . S
C278 C276 1.419 . S
C278 C279 1.362 . S
C279 H269 0.930 . S
C279 C272 1.409 . S
C279 C278 1.362 . S
H280 C286 0.930 . S
H281 C289 0.930 . S
H282 C290 0.930 . S
H283 C291 0.930 . S
H284 C294 0.930 . S
H285 C295 0.930 . S
C286 H280 0.930 . S
C286 C287 1.355 . S
C286 C288 1.415 . S
C287 C286 1.355 . S
C287 C289 1.419 . S
C288 C286 1.415 . S
C288 C293 1.425 . S
C288 C295 1.409 . S
C289 H281 0.930 . S
C289 C287 1.419 . S
C289 C290 1.362 . S
C290 H282 0.930 . S
C290 C289 1.362 . S
C290 C293 1.409 . S
C291 H283 0.930 . S
C291 C292 1.355 . S
C291 C293 1.415 . S
C292 C291 1.355 . S
C292 C294 1.419 . S
C293 C288 1.425 . S
C293 C290 1.409 . S
C293 C291 1.415 . S
C294 H284 0.930 . S
C294 C292 1.419 . S
C294 C295 1.362 . S
C295 H285 0.930 . S
C295 C288 1.409 . S
C295 C294 1.362 . S
H296 C302 0.930 . S
H297 C305 0.930 . S
H298 C306 0.930 . S
H299 C307 0.930 . S
H300 C310 0.930 . S
H301 C311 0.930 . S
C302 H296 0.930 . S
C302 C303 1.355 . S
C302 C304 1.415 . S
C303 C302 1.355 . S
C303 C305 1.419 . S
C304 C302 1.415 . S
C304 C309 1.425 . S
C304 C311 1.409 . S
C305 H297 0.930 . S
C305 C303 1.419 . S
C305 C306 1.362 . S
C306 H298 0.930 . S
C306 C305 1.362 . S
C306 C309 1.409 . S
C307 H299 0.930 . S
C307 C308 1.355 . S
C307 C309 1.415 . S
C308 C307 1.355 . S
C308 C310 1.419 . S
C309 C304 1.425 . S
C309 C306 1.409 . S
C309 C307 1.415 . S
C310 H300 0.930 . S
C310 C308 1.419 . S
C310 C311 1.362 . S
C311 H301 0.930 . S
C311 C304 1.409 . S
C311 C310 1.362 . S
H312 C318 0.930 . S
H313 C321 0.930 . S
H314 C322 0.930 . S
H315 C323 0.930 . S
H316 C326 0.930 . S
H317 C327 0.930 . S
C318 H312 0.930 . S
C318 C319 1.355 . S
C318 C320 1.415 . S
C319 C318 1.355 . S
C319 C321 1.419 . S
C320 C318 1.415 . S
C320 C325 1.425 . S
C320 C327 1.409 . S
C321 H313 0.930 . S
C321 C319 1.419 . S
C321 C322 1.362 . S
C322 H314 0.930 . S
C322 C321 1.362 . S
C322 C325 1.409 . S
C323 H315 0.930 . S
C323 C324 1.355 . S
C323 C325 1.415 . S
C324 C323 1.355 . S
C324 C326 1.419 . S
C325 C320 1.425 . S
C325 C322 1.409 . S
C325 C323 1.415 . S
C326 H316 0.930 . S
C326 C324 1.419 . S
C326 C327 1.362 . S
C327 H317 0.930 . S
C327 C320 1.409 . S
C327 C326 1.362 . S
H328 C334 0.930 . S
H329 C337 0.930 . S
H330 C338 0.930 . S
H331 C339 0.930 . S
H332 C342 0.930 . S
H333 C343 0.930 . S
C334 H328 0.930 . S
C334 C335 1.355 . S
C334 C336 1.415 . S
C335 C334 1.355 . S
C335 C337 1.419 . S
C336 C334 1.415 . S
C336 C341 1.425 . S
C336 C343 1.409 . S
C337 H329 0.930 . S
C337 C335 1.419 . S
C337 C338 1.362 . S
C338 H330 0.930 . S
C338 C337 1.362 . S
C338 C341 1.409 . S
C339 H331 0.930 . S
C339 C340 1.355 . S
C339 C341 1.415 . S
C340 C339 1.355 . S
C340 C342 1.419 . S
C341 C336 1.425 . S
C341 C338 1.409 . S
C341 C339 1.415 . S
C342 H332 0.930 . S
C342 C340 1.419 . S
C342 C343 1.362 . S
C343 H333 0.930 . S
C343 C336 1.409 . S
C343 C342 1.362 . S
H344 C350 0.930 . S
H345 C353 0.930 . S
H346 C354 0.930 1_545 S
H347 C355 0.930 1_545 S
H348 C358 0.930 . S
H349 C359 0.930 . S
C350 H344 0.930 . S
C350 C351 1.355 . S
C350 C352 1.415 . S
C351 C350 1.355 . S
C351 C353 1.419 . S
C352 C350 1.415 . S
C352 C357 1.425 . S
C352 C359 1.409 . S
C353 H345 0.930 . S
C353 C351 1.419 . S
C353 C354 1.362 . S
C354 H346 0.930 1_565 S
C354 C353 1.362 . S
C354 C357 1.409 . S
C355 H347 0.930 1_565 S
C355 C356 1.355 . S
C355 C357 1.415 . S
C356 C355 1.355 . S
C356 C358 1.419 . S
C357 C352 1.425 . S
C357 C354 1.409 . S
C357 C355 1.415 . S
C358 H348 0.930 . S
C358 C356 1.419 . S
C358 C359 1.362 . S
C359 H349 0.930 . S
C359 C352 1.409 . S
C359 C358 1.362 . S
H360 C366 0.930 . S
H361 C369 0.930 . S
H362 C370 0.930 . S
H363 C371 0.930 . S
H364 C374 0.930 . S
H365 C375 0.930 . S
C366 H360 0.930 . S
C366 C367 1.355 . S
C366 C368 1.415 . S
C367 C366 1.355 . S
C367 C369 1.419 . S
C368 C366 1.415 . S
C368 C373 1.425 . S
C368 C375 1.409 . S
C369 H361 0.930 . S
C369 C367 1.419 . S
C369 C370 1.362 . S
C370 H362 0.930 . S
C370 C369 1.362 . S
C370 C373 1.409 . S
C371 H363 0.930 . S
C371 C372 1.355 . S
C371 C373 1.415 . S
C372 C371 1.355 . S
C372 C374 1.419 . S
C373 C368 1.425 . S
C373 C370 1.409 . S
C373 C371 1.415 . S
C374 H364 0.930 . S
C374 C372 1.419 . S
C374 C375 1.362 . S
C375 H365 0.930 . S
C375 C368 1.409 . S
C375 C374 1.362 . S
H376 C382 0.930 . S
H377 C385 0.930 . S
H378 C386 0.930 . S
H379 C387 0.930 . S
H380 C390 0.930 . S
H381 C391 0.930 . S
C382 H376 0.930 . S
C382 C383 1.355 . S
C382 C384 1.415 . S
C383 C382 1.355 . S
C383 C385 1.419 . S
C384 C382 1.415 . S
C384 C389 1.425 . S
C384 C391 1.409 . S
C385 H377 0.930 . S
C385 C383 1.419 . S
C385 C386 1.362 . S
C386 H378 0.930 . S
C386 C385 1.362 . S
C386 C389 1.409 . S
C387 H379 0.930 . S
C387 C388 1.355 . S
C387 C389 1.415 . S
C388 C387 1.355 . S
C388 C390 1.419 . S
C389 C384 1.425 . S
C389 C386 1.409 . S
C389 C387 1.415 . S
C390 H380 0.930 . S
C390 C388 1.419 . S
C390 C391 1.362 . S
C391 H381 0.930 . S
C391 C384 1.409 . S
C391 C390 1.362 . S
H392 C398 0.930 . S
H393 C401 0.930 . S
H394 C402 0.930 . S
H395 C403 0.930 . S
H396 C406 0.930 . S
H397 C407 0.930 . S
C398 H392 0.930 . S
C398 C399 1.355 . S
C398 C400 1.415 . S
C399 C398 1.355 . S
C399 C401 1.419 . S
C400 C398 1.415 . S
C400 C405 1.425 . S
C400 C407 1.409 . S
C401 H393 0.930 . S
C401 C399 1.419 . S
C401 C402 1.362 . S
C402 H394 0.930 . S
C402 C401 1.362 . S
C402 C405 1.409 . S
C403 H395 0.930 . S
C403 C404 1.355 . S
C403 C405 1.415 . S
C404 C403 1.355 . S
C404 C406 1.419 . S
C405 C400 1.425 . S
C405 C402 1.409 . S
C405 C403 1.415 . S
C406 H396 0.930 . S
C406 C404 1.419 . S
C406 C407 1.362 . S
C407 H397 0.930 . S
C407 C400 1.409 . S
C407 C406 1.362 . S
H408 C414 0.930 . S
H409 C417 0.930 . S
H410 C418 0.930 . S
H411 C419 0.930 . S
H412 C422 0.930 . S
H413 C423 0.930 . S
C414 H408 0.930 . S
C414 C415 1.355 . S
C414 C416 1.415 . S
C415 C414 1.355 . S
C415 C417 1.419 . S
C416 C414 1.415 . S
C416 C421 1.425 . S
C416 C423 1.409 . S
C417 H409 0.930 . S
C417 C415 1.419 . S
C417 C418 1.362 . S
C418 H410 0.930 . S
C418 C417 1.362 . S
C418 C421 1.409 . S
C419 H411 0.930 . S
C419 C420 1.355 . S
C419 C421 1.415 . S
C420 C419 1.355 . S
C420 C422 1.419 . S
C421 C416 1.425 . S
C421 C418 1.409 . S
C421 C419 1.415 . S
C422 H412 0.930 . S
C422 C420 1.419 . S
C422 C423 1.362 . S
C423 H413 0.930 . S
C423 C416 1.409 . S
C423 C422 1.362 . S
H424 C430 0.930 . S
H425 C433 0.930 . S
H426 C434 0.930 . S
H427 C435 0.930 . S
H428 C438 0.930 . S
H429 C439 0.930 . S
C430 H424 0.930 . S
C430 C431 1.355 . S
C430 C432 1.415 . S
C431 C430 1.355 . S
C431 C433 1.419 . S
C432 C430 1.415 . S
C432 C437 1.425 . S
C432 C439 1.409 . S
C433 H425 0.930 . S
C433 C431 1.419 . S
C433 C434 1.362 . S
C434 H426 0.930 . S
C434 C433 1.362 . S
C434 C437 1.409 . S
C435 H427 0.930 . S
C435 C436 1.355 . S
C435 C437 1.415 . S
C436 C435 1.355 . S
C436 C438 1.419 . S
C437 C432 1.425 . S
C437 C434 1.409 . S
C437 C435 1.415 . S
C438 H428 0.930 . S
C438 C436 1.419 . S
C438 C439 1.362 . S
C439 H429 0.930 . S
C439 C432 1.409 . S
C439 C438 1.362 . S
C191 C108 1.839 . S
C196 N12 1.729 . S
C207 N35 1.699 . S
C212 C131 1.811 . S
C223 N58 1.720 1_545 S
C228 C154 1.795 . S
C239 C177 1.826 . S
C244 N81 1.756 1_655 S
C255 C7 2.623 . S
C260 C53 2.633 . S
C271 C30 2.646 . S
C276 C76 2.620 . S
C287 N140 1.808 . S
C292 N94 1.882 . S
C303 N117 1.794 . S
C308 N163 1.889 . S
C319 C122 1.735 . S
C324 C16 1.630 . S
C335 C39 1.671 . S
C340 C145 1.774 . S
C351 C62 1.633 . S
C356 C168 1.731 . S
C367 C99 1.695 . S
C372 C85 1.596 . S
C383 N104 1.210 . S
C388 N25 1.296 . S
C399 N127 1.313 . S
C404 N48 1.364 . S
C415 N150 1.250 . S
C420 N71 1.332 . S
C431 N2 1.285 . S
C436 N173 1.187 . S
