# Generated by pormake.
# Topology sxb, (6)-cn, num edge types: 1
# Building blocks:
#     Node 0, Type 0, BuildingBlock: BETFAJ_clean_sbu_0, # of connection points: 6
#     Node 1, Type 0, BuildingBlock: BETFAJ_clean_sbu_0, # of connection points: 6
#     Node 2, Type 0, BuildingBlock: BETFAJ_clean_sbu_0, # of connection points: 6
#     Node 3, Type 0, BuildingBlock: BETFAJ_clean_sbu_0, # of connection points: 6
#     Edge 4, Type (0, 0), BuildingBlock: XUDNAN_clean_linker_2, # of connection points: 2
#     Edge 5, Type (0, 0), BuildingBlock: XUDNAN_clean_linker_2, # of connection points: 2
#     Edge 6, Type (0, 0), BuildingBlock: XUDNAN_clean_linker_2, # of connection points: 2
#     Edge 7, Type (0, 0), BuildingBlock: XUDNAN_clean_linker_2, # of connection points: 2
#     Edge 8, Type (0, 0), BuildingBlock: XUDNAN_clean_linker_2, # of connection points: 2
#     Edge 9, Type (0, 0), BuildingBlock: XUDNAN_clean_linker_2, # of connection points: 2
#     Edge 10, Type (0, 0), BuildingBlock: XUDNAN_clean_linker_2, # of connection points: 2
#     Edge 11, Type (0, 0), BuildingBlock: XUDNAN_clean_linker_2, # of connection points: 2
#     Edge 12, Type (0, 0), BuildingBlock: XUDNAN_clean_linker_2, # of connection points: 2
#     Edge 13, Type (0, 0), BuildingBlock: XUDNAN_clean_linker_2, # of connection points: 2
#     Edge 14, Type (0, 0), BuildingBlock: XUDNAN_clean_linker_2, # of connection points: 2
#     Edge 15, Type (0, 0), BuildingBlock: XUDNAN_clean_linker_2, # of connection points: 2
# Relax obj value: 0.422
# Max RMSD: 0.127
# Mean RMSD: 0.082
data_MOF--net-sxb--node1-BETFAJ_clean_sbu_0--edge1-XUDNAN_clean_linker_2
_symmetry_space_group_name_H-M    P1
_symmetry_Int_Tables_number       1
_symmetry_cell_setting            triclinic
loop_
_symmetry_equiv_pos_as_xyz
'x, y, z'
_cell_length_a     15.85737
_cell_length_b     35.163609
_cell_length_c     29.587741
_cell_angle_alpha  94.953545
_cell_angle_beta   93.644332
_cell_angle_gamma 62.274948
loop_
_atom_site_label
_atom_site_type_symbol
_atom_site_fract_x
_atom_site_fract_y
_atom_site_fract_z
_atom_type_partial_charge
Sm0 Sm 1.00715 0.09598 0.9552 0.0
Sm1 Sm 0.1693 0.11255 0.96338 0.0
C2 C 0.89211 1.06595 0.97714 0.0
C3 C 0.90301 1.04362 0.01853 0.0
C4 C 0.97972 1.03716 0.04893 0.0
C5 C 0.9832 1.02333 0.09214 0.0
C6 C 0.91074 1.01482 0.10526 0.0
C7 C 0.83735 1.01844 0.07351 0.0
C8 C 0.83326 1.03297 0.03053 0.0
C9 C 1.05554 0.10592 0.87114 0.0
C10 C 0.96007 0.19473 0.9482 0.0
C11 C 0.30879 0.13266 0.97961 0.0
C12 C 0.37141 0.11875 0.02031 0.0
C13 C 0.3878 1.08024 0.03833 0.0
C14 C 0.42213 1.07153 0.08268 0.0
C15 C 0.44977 0.09921 0.10947 0.0
C16 C 0.43785 0.13694 0.09005 0.0
C17 C 0.39689 0.14707 0.04649 0.0
C18 C 0.11449 0.09963 0.04531 0.0
C19 C 0.22181 1.01355 0.95718 0.0
O20 O 0.959 1.04552 0.94761 0.0
O21 O 0.87198 0.10642 0.98448 0.0
O22 O 0.11487 1.08666 0.90225 0.0
O23 O 0.96893 0.11646 0.88201 0.0
O24 O 0.92512 0.16994 0.96103 0.0
O25 O 1.05153 0.17801 0.93911 0.0
O26 O 0.31522 0.10213 0.94921 0.0
O27 O 0.22055 0.15977 0.98882 0.0
O28 O 1.05933 0.12306 0.01557 0.0
O29 O 0.20027 1.08063 0.03137 0.0
O30 O 0.25258 1.03979 0.94445 0.0
O31 O 0.13377 1.02955 0.97095 0.0
H32 H 1.03424 1.04515 0.0402 0.0
H33 H 1.0394 1.02155 0.11606 0.0
H34 H 0.77883 1.01331 0.08311 0.0
H35 H 0.77328 1.038 0.00773 0.0
H36 H 0.36987 1.05742 0.01877 0.0
H37 H 0.42586 1.0429 0.09537 0.0
H38 H 0.46037 0.15892 0.10791 0.0
H39 H 0.38368 0.17732 0.03359 0.0
Sm40 Sm 0.13644 1.06206 0.46033 0.0
Sm41 Sm 1.03564 0.15561 0.4628 0.0
C42 C 0.21177 0.97845 0.47039 0.0
C43 C 0.17785 0.94991 0.48633 0.0
C44 C 1.09758 0.96673 0.51354 0.0
C45 C 1.05567 0.94109 0.52237 0.0
C46 C 1.09299 0.89846 0.50373 0.0
C47 C 0.17619 0.88112 0.47834 0.0
C48 C 0.21845 0.90675 0.46975 0.0
C49 C 0.11635 0.09413 0.37608 0.0
C50 C 0.90277 0.10579 0.46065 0.0
C51 C 0.94112 0.23977 0.45817 0.0
C52 C 0.96607 0.27284 0.47909 0.0
C53 C 0.96517 0.30429 0.45273 0.0
C54 C 1.01029 0.32894 0.46902 0.0
C55 C 1.05721 0.32228 0.51183 0.0
C56 C 1.05141 0.29309 0.53942 0.0
C57 C 1.00641 0.26859 0.52322 0.0
C58 C 0.10864 0.12415 0.54644 0.0
C59 C 0.26852 0.10915 0.46198 0.0
O60 O 0.2215 1.00549 0.50093 0.0
O61 O 0.17088 0.99611 0.43264 0.0
O62 O 1.05222 0.10716 0.40494 0.0
O63 O 0.19517 1.06392 0.39159 0.0
O64 O 0.98443 1.07044 0.46441 0.0
O65 O 0.90186 0.14333 0.4574 0.0
O66 O 0.99838 0.2143 0.42638 0.0
O67 O 0.91948 0.219 0.48622 0.0
O68 O 1.06441 0.11019 0.51869 0.0
O69 O 0.11687 0.15521 0.53032 0.0
O70 O 0.19106 0.14214 0.44642 0.0
O71 O 0.26072 1.07726 0.47828 0.0
H72 H 1.06472 1.0002 0.52615 0.0
H73 H 0.99079 0.95543 0.54146 0.0
H74 H 0.20641 0.84828 0.4638 0.0
H75 H 0.2802 0.89345 0.44848 0.0
H76 H 0.93466 0.30798 0.41858 0.0
H77 H 1.01238 0.35173 0.44728 0.0
H78 H 1.08755 0.28678 0.57232 0.0
H79 H 1.00879 0.24438 0.54426 0.0
Sm80 Sm 0.48781 0.6159 0.9659 0.0
Sm81 Sm 0.67197 0.59393 0.96479 0.0
C82 C 0.32881 0.6218 0.99518 0.0
C83 C 0.31299 0.61623 0.04217 0.0
C84 C 0.34105 0.63616 0.07932 0.0
C85 C 0.33942 0.62558 0.12369 0.0
C86 C 0.31233 0.59408 0.13147 0.0
C87 C 0.2825 0.57497 0.09429 0.0
C88 C 0.28291 0.5859 0.05019 0.0
C89 C 0.5221 0.62546 0.87812 0.0
C90 C 0.52802 0.69553 0.96596 0.0
C91 C 0.8463 0.58354 0.97823 0.0
C92 C 0.89927 0.57135 0.02195 0.0
C93 C 0.90913 0.53483 0.04279 0.0
C94 C 0.93848 0.52893 0.08842 0.0
C95 C 0.95694 0.55975 0.11416 0.0
C96 C 0.95061 0.59529 0.09282 0.0
C97 C 0.92235 0.60096 0.04725 0.0
C98 C 0.61844 0.58585 0.05012 0.0
C99 C 0.64057 0.51334 0.94582 0.0
O100 O 0.3913 0.58707 0.97362 0.0
O101 O 0.33903 0.65561 0.98872 0.0
O102 O 0.58019 0.59445 0.90119 0.0
O103 O 0.44496 0.64957 0.89988 0.0
O104 O 0.47278 0.68352 0.98523 0.0
O105 O 0.6062 0.66542 0.94712 0.0
O106 O 0.82833 0.55459 0.95525 0.0
O107 O 0.77222 0.6215 0.97994 0.0
O108 O 0.57678 0.61818 0.027 0.0
O109 O 0.6852 0.5553 0.02711 0.0
O110 O 0.6969 0.52807 0.93305 0.0
O111 O 0.56036 0.5407 0.96558 0.0
H112 H 0.3666 0.6591 0.07409 0.0
H113 H 0.36101 0.64131 0.15175 0.0
H114 H 0.25745 0.55182 0.0993 0.0
H115 H 0.26194 0.56984 0.02219 0.0
H116 H 0.89073 0.51159 0.02444 0.0
H117 H 0.94495 0.5008 0.10381 0.0
H118 H 0.96797 0.61877 0.11143 0.0
H119 H 0.91452 0.62952 0.03227 0.0
Sm120 Sm 0.61928 0.55274 0.46781 0.0
Sm121 Sm 0.52545 0.64235 0.45382 0.0
C122 C 0.7076 0.47515 0.49933 0.0
C123 C 0.66716 0.45044 0.51916 0.0
C124 C 0.5955 0.47073 0.55141 0.0
C125 C 0.54329 0.45069 0.56356 0.0
C126 C 0.56103 0.4101 0.54351 0.0
C127 C 0.6367 0.38861 0.5134 0.0
C128 C 0.68958 0.40864 0.50138 0.0
C129 C 0.56559 0.56826 0.37751 0.0
C130 C 0.39017 0.59713 0.4614 0.0
C131 C 0.46695 0.72168 0.42972 0.0
C132 C 0.51934 0.74624 0.4255 0.0
C133 C 0.61227 0.72568 0.4089 0.0
C134 C 0.67264 0.74446 0.41779 0.0
C135 C 0.6413 0.7836 0.44397 0.0
C136 C 0.54582 0.80585 0.45703 0.0
C137 C 0.4851 0.78734 0.44767 0.0
C138 C 0.52038 0.62717 0.54377 0.0
C139 C 0.76144 0.59448 0.45859 0.0
O140 O 0.69851 0.50989 0.523 0.0
O141 O 0.68804 0.48132 0.45624 0.0
O142 O 0.60421 0.58678 0.40306 0.0
O143 O 0.55304 0.54112 0.39968 0.0
O144 O 0.46535 0.56968 0.48403 0.0
O145 O 0.39777 0.62634 0.43887 0.0
O146 O 0.48371 0.68922 0.40018 0.0
O147 O 0.46518 0.71231 0.47118 0.0
O148 O 0.59292 0.60861 0.51914 0.0
O149 O 0.44795 0.65352 0.52032 0.0
O150 O 0.68349 0.63215 0.46035 0.0
O151 O 0.75414 0.55861 0.4572 0.0
H152 H 0.57579 0.50317 0.56542 0.0
H153 H 0.48471 0.46835 0.58635 0.0
H154 H 0.65239 0.35709 0.49776 0.0
H155 H 0.74444 0.39248 0.47641 0.0
H156 H 0.64066 0.69373 0.39208 0.0
H157 H 0.74584 0.72682 0.40725 0.0
H158 H 0.51968 0.83646 0.47662 0.0
H159 H 0.41383 0.80356 0.46095 0.0
H160 H 0.35779 0.7665 0.98966 0.0
H161 H 0.63438 0.73069 0.93522 0.0
H162 H 0.58819 0.80751 0.92848 0.0
H163 H 0.22343 0.85317 0.91727 0.0
H164 H 0.14092 0.887 0.96029 0.0
H165 H 0.19672 0.82932 0.96227 0.0
H166 H 0.26051 0.83558 0.04389 0.0
H167 H 0.20481 0.89329 0.04211 0.0
H168 H 0.33076 0.86374 0.05474 0.0
H169 H 0.51052 0.88924 0.92691 0.0
H170 H 0.40726 0.96804 0.92937 0.0
H171 H 0.18024 0.95085 0.98372 0.0
C172 C 0.40901 0.77477 0.97662 0.0
C173 C 0.50023 0.74222 0.96319 0.0
C174 C 0.56432 0.75474 0.94585 0.0
C175 C 0.53868 0.79844 0.94191 0.0
C176 C 0.44827 0.82963 0.95525 0.0
C177 C 0.3843 0.81833 0.97219 0.0
C178 C 0.29072 0.8581 0.98309 0.0
C179 C 0.20808 0.85681 0.95399 0.0
C180 C 0.27055 0.86295 0.03398 0.0
C181 C 0.31201 0.89347 0.9697 0.0
C182 C 0.40337 0.87642 0.95384 0.0
C183 C 0.43887 0.90285 0.93931 0.0
C184 C 0.37958 0.94769 0.94084 0.0
C185 C 0.28532 0.96599 0.95667 0.0
C186 C 0.25179 0.93817 0.97139 0.0
H187 H 0.82002 0.44508 0.92949 0.0
H188 H 0.52964 0.47433 0.95674 0.0
H189 H 0.5787 0.39665 0.95699 0.0
H190 H 0.87849 0.347 0.85622 0.0
H191 H 0.99873 0.31923 0.87869 0.0
H192 H 0.94015 0.37707 0.8779 0.0
H193 H 0.97214 0.38336 0.96443 0.0
H194 H 1.03063 0.32558 0.9655 0.0
H195 H 0.93201 0.35773 1.002 0.0
H196 H 0.65977 0.31576 0.95718 0.0
H197 H 0.76671 0.23783 0.95826 0.0
H198 H 1.00697 0.25937 0.932 0.0
C199 C 0.76643 0.43513 0.93479 0.0
C200 C 0.67042 0.46611 0.94267 0.0
C201 C 0.60329 0.4515 0.9504 0.0
C202 C 0.63056 0.40731 0.95059 0.0
C203 C 0.72563 0.3777 0.94322 0.0
C204 C 0.79271 0.39093 0.93548 0.0
C205 C 0.89105 0.35234 0.93045 0.0
C206 C 0.92935 0.3487 0.88299 0.0
C207 C 0.96055 0.35492 0.96782 0.0
C208 C 0.86879 0.31544 0.9367 0.0
C209 C 0.77276 0.33091 0.94385 0.0
C210 C 0.735 0.30333 0.95142 0.0
C211 C 0.79665 0.25892 0.95198 0.0
C212 C 0.89571 0.24199 0.94508 0.0
C213 C 0.93172 0.27094 0.93706 0.0
H214 H 0.18161 0.33027 0.45831 0.0
H215 H 1.0828 0.35499 0.59646 0.0
H216 H 0.20797 0.37615 0.62073 0.0
H217 H 0.42753 0.28599 0.48466 0.0
H218 H 0.45348 0.31065 0.44026 0.0
H219 H 0.35454 0.29862 0.43346 0.0
H220 H 0.23921 0.37865 0.41924 0.0
H221 H 0.33833 0.39056 0.42512 0.0
H222 H 0.23599 0.42039 0.46012 0.0
H223 H 0.34741 0.39221 0.63015 0.0
H224 H 0.48065 0.40909 0.62259 0.0
H225 H 0.48384 0.37536 0.47788 0.0
C226 C 0.18453 0.34115 0.49347 0.0
C227 C 0.12226 0.34106 0.52549 0.0
C228 C 0.13024 0.35453 0.57141 0.0
C229 C 0.20106 0.36655 0.58551 0.0
C230 C 0.26292 0.36507 0.55323 0.0
C231 C 0.25439 0.35334 0.50806 0.0
C232 C 0.32935 0.35467 0.48004 0.0
C233 C 0.39508 0.30982 0.45833 0.0
C234 C 0.28294 0.38806 0.44402 0.0
C235 C 0.38172 0.36884 0.51657 0.0
C236 C 0.34273 0.37445 0.5586 0.0
C237 C 0.37833 0.38808 0.59739 0.0
C238 C 0.45395 0.39752 0.59279 0.0
C239 C 0.49274 0.39336 0.54971 0.0
C240 C 0.45709 0.37801 0.5114 0.0
H241 H 1.04593 0.85576 0.43386 0.0
H242 H 1.01256 0.88917 0.57848 0.0
H243 H 0.90084 0.85832 0.57959 0.0
H244 H 0.80843 0.88516 0.40864 0.0
H245 H 0.82919 0.8427 0.36527 0.0
H246 H 0.91621 0.86181 0.37676 0.0
H247 H 1.04529 0.78463 0.3904 0.0
H248 H 0.95962 0.76447 0.37988 0.0
H249 H 1.02851 0.75484 0.43238 0.0
H250 H 0.77994 0.83219 0.56329 0.0
H251 H 0.66306 0.80849 0.53161 0.0
H252 H 0.7761 0.7915 0.39747 0.0
C253 C 1.01773 0.85517 0.46604 0.0
C254 C 1.03844 0.8743 0.50623 0.0
C255 C 0.99759 0.87445 0.54743 0.0
C256 C 0.93443 0.85695 0.54836 0.0
C257 C 0.91333 0.83945 0.50782 0.0
C258 C 0.95431 0.83809 0.46748 0.0
C259 C 0.91369 0.82084 0.42802 0.0
C260 C 0.86393 0.85465 0.39261 0.0
C261 C 0.99136 0.77866 0.40641 0.0
C262 C 0.84239 0.81326 0.45239 0.0
C263 C 0.8434 0.82422 0.49838 0.0
C264 C 0.77928 0.82297 0.52747 0.0
C265 C 0.71256 0.80998 0.5091 0.0
C266 C 0.71051 0.79849 0.46213 0.0
C267 C 0.77683 0.79982 0.43355 0.0
H268 H 0.54062 1.01813 0.14279 0.0
H269 H 0.47619 0.15025 0.18112 0.0
H270 H 0.61504 0.12489 0.23231 0.0
H271 H 0.71661 0.97892 0.26652 0.0
H272 H 0.78388 0.92842 0.23502 0.0
H273 H 0.65543 0.95312 0.23407 0.0
H274 H 0.65475 0.94765 0.14785 0.0
H275 H 0.78165 0.92401 0.14813 0.0
H276 H 0.71128 0.97188 0.11789 0.0
H277 H 0.78473 1.09286 0.23299 0.0
H278 H 0.90569 1.07038 0.17605 0.0
H279 H 0.88153 0.95449 0.14201 0.0
C280 C 0.55148 1.04209 0.16374 0.0
C281 C 0.50164 1.08613 0.1544 0.0
C282 C 0.51746 0.11596 0.18428 0.0
C283 C 0.59536 0.1017 0.21491 0.0
C284 C 0.65539 1.05747 0.21657 0.0
C285 C 0.62909 1.02784 0.1947 0.0
C286 C 0.71395 0.98339 0.19242 0.0
C287 C 0.71769 0.95964 0.23451 0.0
C288 C 0.7155 0.95525 0.14887 0.0
C289 C 0.79278 0.99651 0.19617 0.0
C290 C 0.75964 1.03757 0.21806 0.0
C291 C 0.81016 1.0611 0.21604 0.0
C292 C 0.8797 1.04806 0.18332 0.0
C293 C 0.8979 1.0117 0.15366 0.0
C294 C 0.8657 0.98266 0.1647 0.0
H295 H 0.33407 0.17188 0.46006 0.0
H296 H 0.43002 1.03402 0.45624 0.0
H297 H 0.59553 1.02049 0.45438 0.0
H298 H 0.51818 0.16657 0.38564 0.0
H299 H 0.53574 0.20839 0.41781 0.0
H300 H 0.42158 0.20881 0.41724 0.0
H301 H 0.4286 0.21111 0.50464 0.0
H302 H 0.54386 0.20969 0.50588 0.0
H303 H 0.52851 0.16966 0.53338 0.0
H304 H 0.75021 1.01951 0.45521 0.0
H305 H 0.89072 1.03107 0.45741 0.0
H306 H 0.70877 0.16955 0.46081 0.0
C307 C 0.39002 0.13892 0.45835 0.0
C308 C 0.36766 0.10403 0.45843 0.0
C309 C 0.44383 1.06146 0.45666 0.0
C310 C 0.53886 1.05328 0.45543 0.0
C311 C 0.55875 1.08788 0.45611 0.0
C312 C 0.48728 0.12994 0.45747 0.0
C313 C 0.53167 0.16061 0.45917 0.0
C314 C 0.49989 0.1877 0.41747 0.0
C315 C 0.50661 0.18949 0.5034 0.0
C316 C 0.63845 0.12896 0.45825 0.0
C317 C 0.65108 1.08728 0.45659 0.0
C318 C 0.74133 1.05201 0.45631 0.0
C319 C 0.82132 1.0591 0.45766 0.0
C320 C 0.81248 0.10128 0.4592 0.0
C321 C 0.71886 0.13684 0.45943 0.0
H322 H 0.10512 0.48955 0.14596 0.0
H323 H 0.89241 0.617 0.18786 0.0
H324 H 0.99886 0.6217 0.24885 0.0
H325 H 0.26082 0.48381 0.27744 0.0
H326 H 0.36667 0.44976 0.24627 0.0
H327 H 0.26444 0.43991 0.24012 0.0
H328 H 0.26656 0.44194 0.1544 0.0
H329 H 0.36753 0.45186 0.16013 0.0
H330 H 0.26155 0.48824 0.12998 0.0
H331 H 0.13168 0.63515 0.25544 0.0
H332 H 0.22372 0.65016 0.20327 0.0
H333 H 0.3787 0.51535 0.16309 0.0
C334 C 1.07971 0.5167 0.17073 0.0
C335 C 0.99348 0.55338 0.1617 0.0
C336 C 0.95988 0.58889 0.19376 0.0
C337 C 1.02036 0.59152 0.22892 0.0
C338 C 0.1145 0.55873 0.23102 0.0
C339 C 0.14177 0.51977 0.20538 0.0
C340 C 0.24953 0.49492 0.2045 0.0
C341 C 0.28749 0.46544 0.24446 0.0
C342 C 0.28837 0.46784 0.15948 0.0
C343 C 0.27224 0.53234 0.21352 0.0
C344 C 0.19734 0.56686 0.23616 0.0
C345 C 0.18958 0.60835 0.23791 0.0
C346 C 0.24249 0.61691 0.20795 0.0
C347 C 0.30419 0.5837 0.17796 0.0
C348 C 0.32943 0.54075 0.18572 0.0
H349 H 0.1964 0.6572 0.44517 0.0
H350 H 0.38161 0.52424 0.47543 0.0
H351 H 0.24304 0.51135 0.47693 0.0
H352 H 1.00158 0.67245 0.51817 0.0
H353 H 0.90859 0.70555 0.47958 0.0
H354 H 1.02342 0.70449 0.48081 0.0
H355 H 1.03541 0.68259 0.39366 0.0
H356 H 0.92061 0.68382 0.3942 0.0
H357 H 1.02229 0.63583 0.3732 0.0
H358 H 1.09007 0.51069 0.47593 0.0
H359 H 0.92582 0.52234 0.47383 0.0
H360 H 0.82504 0.65637 0.44644 0.0
C361 C 0.20748 0.62539 0.45183 0.0
C362 C 0.30123 0.59173 0.46019 0.0
C363 C 0.31171 0.55074 0.46916 0.0
C364 C 0.23298 0.54294 0.47001 0.0
C365 C 0.14236 0.57644 0.46223 0.0
C366 C 0.12817 0.61699 0.4535 0.0
C367 C 1.02108 0.64694 0.44725 0.0
C368 C 0.98662 0.6846 0.48359 0.0
C369 C 0.99846 0.66327 0.39923 0.0
C370 C 0.97849 0.61666 0.45394 0.0
C371 C 1.05096 0.5762 0.46228 0.0
C372 C 1.03261 0.54223 0.46942 0.0
C373 C 0.93807 0.54935 0.46805 0.0
C374 C 0.86069 0.59032 0.4598 0.0
C375 C 0.88174 0.62466 0.45283 0.0
H376 H 0.24231 1.05984 0.30695 0.0
H377 H 0.94528 0.14541 0.33527 0.0
H378 H 0.90977 0.15442 0.25307 0.0
H379 H 0.26138 0.11638 0.21536 0.0
H380 H 0.33819 1.06785 0.18296 0.0
H381 H 0.33965 1.06855 0.24389 0.0
H382 H 0.30343 1.00347 0.23765 0.0
H383 H 0.30158 1.0029 0.17668 0.0
H384 H 0.20018 1.00702 0.20513 0.0
H385 H 0.90723 0.15365 0.16705 0.0
H386 H 0.94025 0.14562 0.08496 0.0
H387 H 0.23815 1.06018 0.11418 0.0
C388 C 0.16994 1.08071 0.29587 0.0
C389 C 1.0965 0.10197 0.32737 0.0
C390 C 1.00263 0.12892 0.31161 0.0
C391 C 0.98173 0.13411 0.26502 0.0
C392 C 1.05559 0.11223 0.23473 0.0
C393 C 0.14794 1.08627 0.24958 0.0
C394 C 0.21454 1.06638 0.21021 0.0
C395 C 0.29303 1.08067 0.21332 0.0
C396 C 0.25742 1.01702 0.20726 0.0
C397 C 0.14555 1.08556 0.17097 0.0
C398 C 1.05405 0.11172 0.18561 0.0
C399 C 0.97868 0.1333 0.15523 0.0
C400 C 0.99792 0.12856 0.10877 0.0
C401 C 1.09165 0.1025 0.09343 0.0
C402 C 0.16572 1.08034 0.12496 0.0
H403 H 0.95472 0.10746 0.79205 0.0
H404 H 0.21909 0.10411 0.84525 0.0
H405 H 0.26524 0.10546 0.76719 0.0
H406 H 1.05743 1.03675 0.69143 0.0
H407 H 0.95347 1.06528 0.65596 0.0
H408 H 0.94115 1.06436 0.71592 0.0
H409 H 0.85391 0.14778 0.72313 0.0
H410 H 0.86559 0.14894 0.66321 0.0
H411 H 0.91044 0.1772 0.70334 0.0
H412 H 0.2756 0.11325 0.68396 0.0
H413 H 0.25559 0.12094 0.60094 0.0
H414 H 0.99275 0.11152 0.6013 0.0
C415 C 1.02233 0.10698 0.78719 0.0
C416 C 1.0833 0.10598 0.8245 0.0
C417 C 0.17161 0.10489 0.81694 0.0
C418 C 0.19827 0.10566 0.77281 0.0
C419 C 0.13659 0.10662 0.73664 0.0
C420 C 1.05104 0.10666 0.74329 0.0
C421 C 0.99841 0.10704 0.6986 0.0
C422 C 0.98698 1.0659 0.68998 0.0
C423 C 0.90137 0.14766 0.69699 0.0
C424 C 1.06684 0.10799 0.6658 0.0
C425 C 0.14571 0.10815 0.68847 0.0
C426 C 0.21516 0.11228 0.66577 0.0
C427 C 0.20331 0.11664 0.61876 0.0
C428 C 0.12386 0.1159 0.59496 0.0
C429 C 1.05549 0.11097 0.61868 0.0
H430 H 0.59075 0.62186 0.32193 0.0
H431 H 0.525 0.51484 0.31845 0.0
H432 H 0.52349 0.51043 0.23482 0.0
H433 H 0.4397 0.67108 0.22172 0.0
H434 H 0.52137 0.68797 0.20183 0.0
H435 H 0.51484 0.6839 0.2617 0.0
H436 H 0.69623 0.63237 0.26552 0.0
H437 H 0.70333 0.63636 0.20575 0.0
H438 H 0.74509 0.58433 0.22805 0.0
H439 H 0.54596 0.51221 0.15197 0.0
H440 H 0.57454 0.52516 0.07484 0.0
H441 H 0.61183 0.63488 0.12931 0.0
C442 C 0.57518 0.59779 0.30349 0.0
C443 C 0.55868 0.56845 0.32696 0.0
C444 C 0.53819 0.53756 0.30147 0.0
C445 C 0.53713 0.5348 0.25382 0.0
C446 C 0.55509 0.56362 0.23172 0.0
C447 C 0.57228 0.59501 0.25558 0.0
C448 C 0.58939 0.62192 0.22313 0.0
C449 C 0.51169 0.66902 0.22735 0.0
C450 C 0.68944 0.61853 0.2311 0.0
C451 C 0.58132 0.60011 0.1775 0.0
C452 C 0.56227 0.5663 0.18343 0.0
C453 C 0.55892 0.53913 0.14687 0.0
C454 C 0.57525 0.54668 0.1032 0.0
C455 C 0.59305 0.58153 0.0961 0.0
C456 C 0.59535 0.60882 0.13372 0.0
H457 H 0.61541 0.56608 0.60831 0.0
H458 H 0.43022 0.70215 0.59345 0.0
H459 H 0.42389 0.71534 0.67633 0.0
H460 H 0.49307 0.55876 0.70261 0.0
H461 H 0.59829 0.52129 0.7321 0.0
H462 H 0.59695 0.52206 0.67124 0.0
H463 H 0.74696 0.53364 0.67718 0.0
H464 H 0.74863 0.53301 0.73812 0.0
H465 H 0.74587 0.57828 0.71251 0.0
H466 H 0.42907 0.71497 0.75898 0.0
H467 H 0.43895 0.70069 0.83938 0.0
H468 H 0.61755 0.56442 0.80648 0.0
C469 C 0.57497 0.59865 0.62274 0.0
C470 C 0.52384 0.63322 0.59422 0.0
C471 C 0.46994 0.67521 0.61437 0.0
C472 C 0.46619 0.68309 0.66155 0.0
C473 C 0.51596 0.64862 0.68874 0.0
C474 C 0.56901 0.60712 0.67044 0.0
C475 C 0.6099 0.57591 0.70832 0.0
C476 C 0.5723 0.54253 0.70326 0.0
C477 C 0.71936 0.5539 0.70907 0.0
C478 C 0.57068 0.60647 0.75041 0.0
C479 C 0.51749 0.64825 0.73777 0.0
C480 C 0.47085 0.68245 0.76937 0.0
C481 C 0.47684 0.67394 0.81508 0.0
C482 C 0.52909 0.63156 0.82948 0.0
C483 C 0.57818 0.59727 0.79667 0.0
loop_
_geom_bond_atom_site_label_1
_geom_bond_atom_site_label_2
_geom_bond_distance
_geom_bond_site_symmetry_2
_ccdc_geom_bond_type
Sm0 C2 2.845 1_565 S
Sm0 O20 2.543 1_566 S
Sm0 O21 2.450 . S
Sm0 O22 2.681 1_655 S
Sm0 O23 2.464 . S
Sm0 O24 2.396 1_565 S
Sm0 O28 2.386 1_566 S
Sm0 O31 2.408 1_655 S
Sm1 C11 2.846 1_545 S
Sm1 O22 2.386 1_544 S
Sm1 O25 2.408 1_455 S
Sm1 O26 2.543 1_544 S
Sm1 O27 2.450 . S
Sm1 O28 2.681 1_455 S
Sm1 O29 2.464 . S
Sm1 O30 2.396 1_545 S
C2 Sm0 2.845 1_545 S
C2 C3 1.506 . S
C2 O20 1.264 1_556 S
C2 O21 1.238 1_545 S
C3 C2 1.506 . S
C3 C4 1.358 1_556 S
C3 C8 1.382 . S
C4 C3 1.358 1_554 S
C4 C5 1.385 . S
C4 H32 0.930 . S
C5 C4 1.385 . S
C5 C6 1.395 1_554 S
C5 H33 0.929 . S
C6 C5 1.395 1_556 S
C6 C7 1.335 . S
C7 C6 1.335 . S
C7 C8 1.398 . S
C7 H34 0.930 . S
C8 C3 1.382 . S
C8 C7 1.398 . S
C8 H35 0.929 1_545 S
C9 O22 1.271 1_655 S
C9 O23 1.251 . S
C10 O24 1.252 . S
C10 O25 1.272 1_556 S
C11 Sm1 2.846 1_565 S
C11 C12 1.506 . S
C11 O26 1.261 1_554 S
C11 O27 1.241 1_565 S
C12 C11 1.506 . S
C12 C13 1.358 1_554 S
C12 C17 1.382 . S
C13 C12 1.358 1_556 S
C13 C14 1.385 . S
C13 H36 0.930 . S
C14 C13 1.385 . S
C14 C15 1.395 1_556 S
C14 H37 0.929 . S
C15 C14 1.395 1_554 S
C15 C16 1.335 . S
C16 C15 1.335 . S
C16 C17 1.398 . S
C16 H38 0.930 . S
C17 C12 1.382 . S
C17 C16 1.398 . S
C17 H39 0.929 1_565 S
C18 O28 1.271 1_455 S
C18 O29 1.251 . S
C19 O30 1.252 . S
C19 O31 1.272 1_554 S
O20 Sm0 2.543 1_544 S
O20 C2 1.264 1_554 S
O21 Sm0 2.450 . S
O21 C2 1.238 1_565 S
O22 Sm0 2.681 1_455 S
O22 Sm1 2.386 1_566 S
O22 C9 1.271 1_455 S
O23 Sm0 2.464 . S
O23 C9 1.251 . S
O24 Sm0 2.396 1_545 S
O24 C10 1.252 . S
O25 Sm1 2.408 1_655 S
O25 C10 1.272 1_554 S
O26 Sm1 2.543 1_566 S
O26 C11 1.261 1_556 S
O27 Sm1 2.450 . S
O27 C11 1.241 1_545 S
O28 Sm0 2.386 1_544 S
O28 Sm1 2.681 1_655 S
O28 C18 1.271 1_655 S
O29 Sm1 2.464 . S
O29 C18 1.251 . S
O30 Sm1 2.396 1_565 S
O30 C19 1.252 . S
O31 Sm0 2.408 1_455 S
O31 C19 1.272 1_556 S
H32 C4 0.930 . S
H33 C5 0.929 . S
H34 C7 0.930 . S
H35 C8 0.929 1_565 S
H36 C13 0.930 . S
H37 C14 0.929 . S
H38 C16 0.930 . S
H39 C17 0.929 1_545 S
Sm40 C42 2.846 1_455 S
Sm40 O60 2.543 1_455 S
Sm40 O61 2.450 1_455 S
Sm40 O62 2.681 1_565 S
Sm40 O63 2.464 . S
Sm40 O64 2.396 1_455 S
Sm40 O68 2.386 1_455 S
Sm40 O71 2.408 . S
Sm41 C51 2.846 1_655 S
Sm41 O62 2.386 1_655 S
Sm41 O65 2.408 . S
Sm41 O66 2.543 1_655 S
Sm41 O67 2.450 1_655 S
Sm41 O68 2.681 1_545 S
Sm41 O69 2.464 . S
Sm41 O70 2.396 1_655 S
C42 Sm40 2.846 1_655 S
C42 C43 1.506 . S
C42 O60 1.261 . S
C42 O61 1.242 . S
C43 C42 1.506 . S
C43 C44 1.358 . S
C43 C48 1.382 . S
C44 C43 1.358 . S
C44 C45 1.385 . S
C44 H72 0.930 . S
C45 C44 1.385 . S
C45 C46 1.395 . S
C45 H73 0.929 . S
C46 C45 1.395 . S
C46 C47 1.335 . S
C47 C46 1.335 . S
C47 C48 1.398 . S
C47 H74 0.930 . S
C48 C43 1.382 . S
C48 C47 1.398 . S
C48 H75 0.929 . S
C49 O62 1.271 1_565 S
C49 O63 1.251 . S
C50 O64 1.252 1_545 S
C50 O65 1.272 . S
C51 Sm41 2.846 1_455 S
C51 C52 1.506 . S
C51 O66 1.261 . S
C51 O67 1.242 . S
C52 C51 1.506 . S
C52 C53 1.358 . S
C52 C57 1.382 . S
C53 C52 1.358 . S
C53 C54 1.385 . S
C53 H76 0.930 . S
C54 C53 1.385 . S
C54 C55 1.395 . S
C54 H77 0.929 . S
C55 C54 1.395 . S
C55 C56 1.335 . S
C56 C55 1.335 . S
C56 C57 1.398 . S
C56 H78 0.930 . S
C57 C52 1.382 . S
C57 C56 1.398 . S
C57 H79 0.929 . S
C58 O68 1.271 1_545 S
C58 O69 1.251 . S
C59 O70 1.252 1_565 S
C59 O71 1.272 . S
O60 Sm40 2.543 1_655 S
O60 C42 1.261 . S
O61 Sm40 2.450 1_655 S
O61 C42 1.242 . S
O62 Sm40 2.681 1_545 S
O62 Sm41 2.386 1_455 S
O62 C49 1.271 1_545 S
O63 Sm40 2.464 . S
O63 C49 1.251 . S
O64 Sm40 2.396 1_655 S
O64 C50 1.252 1_565 S
O65 Sm41 2.408 . S
O65 C50 1.272 . S
O66 Sm41 2.543 1_455 S
O66 C51 1.261 . S
O67 Sm41 2.450 1_455 S
O67 C51 1.242 . S
O68 Sm40 2.386 1_655 S
O68 Sm41 2.681 1_565 S
O68 C58 1.271 1_565 S
O69 Sm41 2.464 . S
O69 C58 1.251 . S
O70 Sm41 2.396 1_455 S
O70 C59 1.252 1_545 S
O71 Sm40 2.408 . S
O71 C59 1.272 . S
H72 C44 0.930 . S
H73 C45 0.929 . S
H74 C47 0.930 . S
H75 C48 0.929 . S
H76 C53 0.930 . S
H77 C54 0.929 . S
H78 C56 0.930 . S
H79 C57 0.929 . S
Sm80 C82 2.846 . S
Sm80 O100 2.543 1_556 S
Sm80 O101 2.450 . S
Sm80 O102 2.681 . S
Sm80 O103 2.464 . S
Sm80 O104 2.396 . S
Sm80 O108 2.386 1_556 S
Sm80 O111 2.408 . S
Sm81 C91 2.846 . S
Sm81 O102 2.386 1_554 S
Sm81 O105 2.408 . S
Sm81 O106 2.543 1_554 S
Sm81 O107 2.450 . S
Sm81 O108 2.681 . S
Sm81 O109 2.464 . S
Sm81 O110 2.396 . S
C82 Sm80 2.846 . S
C82 C83 1.506 . S
C82 O100 1.261 1_556 S
C82 O101 1.242 . S
C83 C82 1.506 . S
C83 C84 1.358 1_556 S
C83 C88 1.382 . S
C84 C83 1.358 1_554 S
C84 C85 1.385 . S
C84 H112 0.930 . S
C85 C84 1.385 . S
C85 C86 1.395 1_554 S
C85 H113 0.929 . S
C86 C85 1.395 1_556 S
C86 C87 1.335 . S
C87 C86 1.335 . S
C87 C88 1.398 . S
C87 H114 0.930 . S
C88 C83 1.382 . S
C88 C87 1.398 . S
C88 H115 0.929 . S
C89 O102 1.271 . S
C89 O103 1.251 . S
C90 O104 1.252 . S
C90 O105 1.272 1_556 S
C91 Sm81 2.846 . S
C91 C92 1.506 . S
C91 O106 1.261 1_554 S
C91 O107 1.242 . S
C92 C91 1.506 . S
C92 C93 1.358 1_554 S
C92 C97 1.382 . S
C93 C92 1.358 1_556 S
C93 C94 1.385 . S
C93 H116 0.930 . S
C94 C93 1.385 . S
C94 C95 1.395 1_556 S
C94 H117 0.929 . S
C95 C94 1.395 1_554 S
C95 C96 1.335 . S
C96 C95 1.335 . S
C96 C97 1.398 . S
C96 H118 0.930 . S
C97 C92 1.382 . S
C97 C96 1.398 . S
C97 H119 0.929 . S
C98 O108 1.271 . S
C98 O109 1.251 . S
C99 O110 1.252 . S
C99 O111 1.272 1_554 S
O100 Sm80 2.543 1_554 S
O100 C82 1.261 1_554 S
O101 Sm80 2.450 . S
O101 C82 1.242 . S
O102 Sm80 2.681 . S
O102 Sm81 2.386 1_556 S
O102 C89 1.271 . S
O103 Sm80 2.464 . S
O103 C89 1.251 . S
O104 Sm80 2.396 . S
O104 C90 1.252 . S
O105 Sm81 2.408 . S
O105 C90 1.272 1_554 S
O106 Sm81 2.543 1_556 S
O106 C91 1.261 1_556 S
O107 Sm81 2.450 . S
O107 C91 1.242 . S
O108 Sm80 2.386 1_554 S
O108 Sm81 2.681 . S
O108 C98 1.271 . S
O109 Sm81 2.464 . S
O109 C98 1.251 . S
O110 Sm81 2.396 . S
O110 C99 1.252 . S
O111 Sm80 2.408 . S
O111 C99 1.272 1_556 S
H112 C84 0.930 . S
H113 C85 0.929 . S
H114 C87 0.930 . S
H115 C88 0.929 . S
H116 C93 0.930 . S
H117 C94 0.929 . S
H118 C96 0.930 . S
H119 C97 0.929 . S
Sm120 C122 2.846 . S
Sm120 O140 2.543 . S
Sm120 O141 2.450 . S
Sm120 O142 2.681 . S
Sm120 O143 2.464 . S
Sm120 O144 2.396 . S
Sm120 O148 2.386 . S
Sm120 O151 2.408 . S
Sm121 C131 2.846 . S
Sm121 O142 2.386 . S
Sm121 O145 2.408 . S
Sm121 O146 2.543 . S
Sm121 O147 2.450 . S
Sm121 O148 2.681 . S
Sm121 O149 2.464 . S
Sm121 O150 2.396 . S
C122 Sm120 2.846 . S
C122 C123 1.506 . S
C122 O140 1.261 . S
C122 O141 1.242 . S
C123 C122 1.506 . S
C123 C124 1.358 . S
C123 C128 1.382 . S
C124 C123 1.358 . S
C124 C125 1.385 . S
C124 H152 0.930 . S
C125 C124 1.385 . S
C125 C126 1.395 . S
C125 H153 0.929 . S
C126 C125 1.395 . S
C126 C127 1.335 . S
C127 C126 1.335 . S
C127 C128 1.398 . S
C127 H154 0.930 . S
C128 C123 1.382 . S
C128 C127 1.398 . S
C128 H155 0.929 . S
C129 O142 1.271 . S
C129 O143 1.251 . S
C130 O144 1.252 . S
C130 O145 1.272 . S
C131 Sm121 2.846 . S
C131 C132 1.506 . S
C131 O146 1.261 . S
C131 O147 1.242 . S
C132 C131 1.506 . S
C132 C133 1.358 . S
C132 C137 1.382 . S
C133 C132 1.358 . S
C133 C134 1.385 . S
C133 H156 0.930 . S
C134 C133 1.385 . S
C134 C135 1.395 . S
C134 H157 0.929 . S
C135 C134 1.395 . S
C135 C136 1.335 . S
C136 C135 1.335 . S
C136 C137 1.398 . S
C136 H158 0.930 . S
C137 C132 1.382 . S
C137 C136 1.398 . S
C137 H159 0.929 . S
C138 O148 1.271 . S
C138 O149 1.251 . S
C139 O150 1.252 . S
C139 O151 1.272 . S
O140 Sm120 2.543 . S
O140 C122 1.261 . S
O141 Sm120 2.450 . S
O141 C122 1.242 . S
O142 Sm120 2.681 . S
O142 Sm121 2.386 . S
O142 C129 1.271 . S
O143 Sm120 2.464 . S
O143 C129 1.251 . S
O144 Sm120 2.396 . S
O144 C130 1.252 . S
O145 Sm121 2.408 . S
O145 C130 1.272 . S
O146 Sm121 2.543 . S
O146 C131 1.261 . S
O147 Sm121 2.450 . S
O147 C131 1.242 . S
O148 Sm120 2.386 . S
O148 Sm121 2.681 . S
O148 C138 1.271 . S
O149 Sm121 2.464 . S
O149 C138 1.251 . S
O150 Sm121 2.396 . S
O150 C139 1.252 . S
O151 Sm120 2.408 . S
O151 C139 1.272 . S
H152 C124 0.930 . S
H153 C125 0.929 . S
H154 C127 0.930 . S
H155 C128 0.929 . S
H156 C133 0.930 . S
H157 C134 0.929 . S
H158 C136 0.930 . S
H159 C137 0.929 . S
H160 C172 0.930 . S
H161 C174 0.930 . S
H162 C175 0.930 . S
H163 C179 0.959 . S
H164 C179 0.959 . S
H165 C179 0.961 . S
H166 C180 0.960 . S
H167 C180 0.961 . S
H168 C180 0.959 . S
H169 C183 0.929 . S
H170 C184 0.931 . S
H171 C186 0.930 . S
C172 H160 0.930 . S
C172 C173 1.399 1_556 S
C172 C177 1.399 . S
C173 C172 1.399 1_554 S
C173 C174 1.376 . S
C174 H161 0.930 . S
C174 C173 1.376 . S
C174 C175 1.388 . S
C175 H162 0.930 . S
C175 C174 1.388 . S
C175 C176 1.390 . S
C176 C175 1.390 . S
C176 C177 1.394 1_554 S
C176 C182 1.465 . S
C177 C172 1.399 . S
C177 C176 1.394 1_556 S
C177 C178 1.516 . S
C178 C177 1.516 . S
C178 C179 1.502 . S
C178 C180 1.561 . S
C178 C181 1.526 . S
C179 H163 0.959 . S
C179 H164 0.959 . S
C179 H165 0.961 . S
C179 C178 1.502 . S
C180 H166 0.960 . S
C180 H167 0.961 . S
C180 H168 0.959 . S
C180 C178 1.561 . S
C181 C178 1.526 . S
C181 C182 1.396 1_556 S
C181 C186 1.390 . S
C182 C176 1.465 . S
C182 C181 1.396 1_554 S
C182 C183 1.399 . S
C183 H169 0.929 . S
C183 C182 1.399 . S
C183 C184 1.385 . S
C184 H170 0.931 . S
C184 C183 1.385 . S
C184 C185 1.389 . S
C185 C184 1.389 . S
C185 C186 1.387 1_554 S
C186 H171 0.930 . S
C186 C181 1.390 . S
C186 C185 1.387 1_556 S
H187 C199 0.930 . S
H188 C201 0.930 . S
H189 C202 0.930 . S
H190 C206 0.959 . S
H191 C206 0.959 . S
H192 C206 0.961 . S
H193 C207 0.960 . S
H194 C207 0.961 . S
H195 C207 0.959 . S
H196 C210 0.929 . S
H197 C211 0.931 . S
H198 C213 0.930 . S
C199 H187 0.930 . S
C199 C200 1.399 1_556 S
C199 C204 1.399 . S
C200 C199 1.399 1_554 S
C200 C201 1.376 . S
C201 H188 0.930 . S
C201 C200 1.376 . S
C201 C202 1.388 . S
C202 H189 0.930 . S
C202 C201 1.388 . S
C202 C203 1.390 . S
C203 C202 1.390 . S
C203 C204 1.394 1_554 S
C203 C209 1.465 . S
C204 C199 1.399 . S
C204 C203 1.394 1_556 S
C204 C205 1.516 . S
C205 C204 1.516 . S
C205 C206 1.502 . S
C205 C207 1.561 . S
C205 C208 1.526 . S
C206 H190 0.959 . S
C206 H191 0.959 . S
C206 H192 0.961 . S
C206 C205 1.502 . S
C207 H193 0.960 . S
C207 H194 0.961 . S
C207 H195 0.959 . S
C207 C205 1.561 . S
C208 C205 1.526 . S
C208 C209 1.396 1_556 S
C208 C213 1.390 . S
C209 C203 1.465 . S
C209 C208 1.396 1_554 S
C209 C210 1.399 . S
C210 H196 0.929 . S
C210 C209 1.399 . S
C210 C211 1.385 . S
C211 H197 0.931 . S
C211 C210 1.385 . S
C211 C212 1.389 . S
C212 C211 1.389 . S
C212 C213 1.387 1_554 S
C213 H198 0.930 . S
C213 C208 1.390 . S
C213 C212 1.387 1_556 S
H214 C226 0.930 . S
H215 C228 0.930 . S
H216 C229 0.930 . S
H217 C233 0.959 . S
H218 C233 0.959 . S
H219 C233 0.961 . S
H220 C234 0.960 . S
H221 C234 0.961 . S
H222 C234 0.959 . S
H223 C237 0.929 . S
H224 C238 0.931 . S
H225 C240 0.930 . S
C226 H214 0.930 . S
C226 C227 1.399 . S
C226 C231 1.399 . S
C227 C226 1.399 . S
C227 C228 1.376 . S
C228 H215 0.930 . S
C228 C227 1.376 . S
C228 C229 1.388 . S
C229 H216 0.930 . S
C229 C228 1.388 . S
C229 C230 1.390 . S
C230 C229 1.390 . S
C230 C231 1.394 . S
C230 C236 1.465 . S
C231 C226 1.399 . S
C231 C230 1.394 . S
C231 C232 1.516 . S
C232 C231 1.516 . S
C232 C233 1.502 . S
C232 C234 1.561 . S
C232 C235 1.526 . S
C233 H217 0.959 . S
C233 H218 0.959 . S
C233 H219 0.961 . S
C233 C232 1.502 . S
C234 H220 0.960 . S
C234 H221 0.961 . S
C234 H222 0.959 . S
C234 C232 1.561 . S
C235 C232 1.526 . S
C235 C236 1.396 . S
C235 C240 1.390 . S
C236 C230 1.465 . S
C236 C235 1.396 . S
C236 C237 1.399 . S
C237 H223 0.929 . S
C237 C236 1.399 . S
C237 C238 1.385 . S
C238 H224 0.931 . S
C238 C237 1.385 . S
C238 C239 1.389 . S
C239 C238 1.389 . S
C239 C240 1.387 . S
C240 H225 0.930 . S
C240 C235 1.390 . S
C240 C239 1.387 . S
H241 C253 0.930 . S
H242 C255 0.930 . S
H243 C256 0.930 . S
H244 C260 0.959 . S
H245 C260 0.959 . S
H246 C260 0.961 . S
H247 C261 0.960 . S
H248 C261 0.961 . S
H249 C261 0.959 . S
H250 C264 0.929 . S
H251 C265 0.931 . S
H252 C267 0.930 . S
C253 H241 0.930 . S
C253 C254 1.399 . S
C253 C258 1.399 . S
C254 C253 1.399 . S
C254 C255 1.376 . S
C255 H242 0.930 . S
C255 C254 1.376 . S
C255 C256 1.388 . S
C256 H243 0.930 . S
C256 C255 1.388 . S
C256 C257 1.390 . S
C257 C256 1.390 . S
C257 C258 1.394 . S
C257 C263 1.465 . S
C258 C253 1.399 . S
C258 C257 1.394 . S
C258 C259 1.516 . S
C259 C258 1.516 . S
C259 C260 1.502 . S
C259 C261 1.561 . S
C259 C262 1.526 . S
C260 H244 0.959 . S
C260 H245 0.959 . S
C260 H246 0.961 . S
C260 C259 1.502 . S
C261 H247 0.960 . S
C261 H248 0.961 . S
C261 H249 0.959 . S
C261 C259 1.561 . S
C262 C259 1.526 . S
C262 C263 1.396 . S
C262 C267 1.390 . S
C263 C257 1.465 . S
C263 C262 1.396 . S
C263 C264 1.399 . S
C264 H250 0.929 . S
C264 C263 1.399 . S
C264 C265 1.385 . S
C265 H251 0.931 . S
C265 C264 1.385 . S
C265 C266 1.389 . S
C266 C265 1.389 . S
C266 C267 1.387 . S
C267 H252 0.930 . S
C267 C262 1.390 . S
C267 C266 1.387 . S
H268 C280 0.930 . S
H269 C282 0.930 . S
H270 C283 0.930 1_545 S
H271 C287 0.959 . S
H272 C287 0.959 . S
H273 C287 0.961 . S
H274 C288 0.960 1_565 S
H275 C288 0.961 . S
H276 C288 0.959 . S
H277 C291 0.929 . S
H278 C292 0.931 . S
H279 C294 0.930 . S
C280 H268 0.930 . S
C280 C281 1.399 1_556 S
C280 C285 1.399 . S
C281 C280 1.399 1_554 S
C281 C282 1.376 . S
C282 H269 0.930 . S
C282 C281 1.376 . S
C282 C283 1.388 . S
C283 H270 0.930 1_565 S
C283 C282 1.388 . S
C283 C284 1.390 . S
C284 C283 1.390 . S
C284 C285 1.394 1_554 S
C284 C290 1.465 1_565 S
C285 C280 1.399 . S
C285 C284 1.394 1_556 S
C285 C286 1.516 . S
C286 C285 1.516 . S
C286 C287 1.502 . S
C286 C288 1.561 1_565 S
C286 C289 1.526 1_565 S
C287 H271 0.959 . S
C287 H272 0.959 . S
C287 H273 0.961 . S
C287 C286 1.502 . S
C288 H274 0.960 1_545 S
C288 H275 0.961 . S
C288 H276 0.959 . S
C288 C286 1.561 1_545 S
C289 C286 1.526 1_545 S
C289 C290 1.396 1_556 S
C289 C294 1.390 . S
C290 C284 1.465 1_545 S
C290 C289 1.396 1_554 S
C290 C291 1.399 . S
C291 H277 0.929 . S
C291 C290 1.399 . S
C291 C292 1.385 . S
C292 H278 0.931 . S
C292 C291 1.385 . S
C292 C293 1.389 . S
C293 C292 1.389 . S
C293 C294 1.387 1_554 S
C294 H279 0.930 . S
C294 C289 1.390 . S
C294 C293 1.387 1_556 S
H295 C307 0.930 . S
H296 C309 0.930 . S
H297 C310 0.930 . S
H298 C314 0.959 . S
H299 C314 0.959 . S
H300 C314 0.961 . S
H301 C315 0.960 . S
H302 C315 0.961 . S
H303 C315 0.959 1_565 S
H304 C318 0.929 . S
H305 C319 0.931 . S
H306 C321 0.930 . S
C307 H295 0.930 . S
C307 C308 1.399 1_545 S
C307 C312 1.399 . S
C308 C307 1.399 1_565 S
C308 C309 1.376 . S
C309 H296 0.930 . S
C309 C308 1.376 . S
C309 C310 1.388 . S
C310 H297 0.930 . S
C310 C309 1.388 . S
C310 C311 1.390 . S
C311 C310 1.390 . S
C311 C312 1.394 1_565 S
C311 C317 1.465 . S
C312 C307 1.399 . S
C312 C311 1.394 1_545 S
C312 C313 1.516 . S
C313 C312 1.516 . S
C313 C314 1.502 . S
C313 C315 1.561 . S
C313 C316 1.526 . S
C314 H298 0.959 . S
C314 H299 0.959 . S
C314 H300 0.961 . S
C314 C313 1.502 . S
C315 H301 0.960 . S
C315 H302 0.961 . S
C315 H303 0.959 1_545 S
C315 C313 1.561 . S
C316 C313 1.526 . S
C316 C317 1.396 1_545 S
C316 C321 1.390 . S
C317 C311 1.465 . S
C317 C316 1.396 1_565 S
C317 C318 1.399 . S
C318 H304 0.929 . S
C318 C317 1.399 . S
C318 C319 1.385 . S
C319 H305 0.931 . S
C319 C318 1.385 . S
C319 C320 1.389 . S
C320 C319 1.389 . S
C320 C321 1.387 1_565 S
C321 H306 0.930 . S
C321 C316 1.390 . S
C321 C320 1.387 1_545 S
H322 C334 0.930 . S
H323 C336 0.930 . S
H324 C337 0.930 . S
H325 C341 0.959 . S
H326 C341 0.959 . S
H327 C341 0.961 . S
H328 C342 0.955 1_655 S
H329 C342 0.970 . S
H330 C342 0.953 1_655 S
H331 C345 0.929 1_655 S
H332 C346 0.931 . S
H333 C348 0.930 . S
C334 H322 0.930 . S
C334 C335 1.399 1_556 S
C334 C339 1.399 . S
C335 C334 1.399 1_554 S
C335 C336 1.376 . S
C336 H323 0.930 . S
C336 C335 1.376 . S
C336 C337 1.388 . S
C337 H324 0.930 . S
C337 C336 1.388 . S
C337 C338 1.390 . S
C338 C337 1.390 . S
C338 C339 1.394 1_554 S
C338 C344 1.465 1_655 S
C339 C334 1.399 . S
C339 C338 1.394 1_556 S
C339 C340 1.516 1_655 S
C340 C339 1.516 1_455 S
C340 C341 1.502 . S
C340 C342 1.564 . S
C340 C343 1.526 . S
C341 H325 0.959 . S
C341 H326 0.959 . S
C341 H327 0.961 . S
C341 C340 1.502 . S
C342 H328 0.955 1_455 S
C342 H329 0.970 . S
C342 H330 0.953 1_455 S
C342 C340 1.564 . S
C343 C340 1.526 . S
C343 C344 1.396 1_556 S
C343 C348 1.390 . S
C344 C338 1.465 1_455 S
C344 C343 1.396 1_554 S
C344 C345 1.399 . S
C345 H331 0.929 1_455 S
C345 C344 1.399 . S
C345 C346 1.385 . S
C346 H332 0.931 . S
C346 C345 1.385 . S
C346 C347 1.389 . S
C347 C346 1.389 . S
C347 C348 1.387 1_554 S
C348 H333 0.930 . S
C348 C343 1.390 . S
C348 C347 1.387 1_556 S
H349 C361 0.930 . S
H350 C363 0.930 . S
H351 C364 0.930 . S
H352 C368 0.959 . S
H353 C368 0.959 1_655 S
H354 C368 0.961 . S
H355 C369 0.960 1_455 S
H356 C369 0.961 . S
H357 C369 0.959 . S
H358 C372 0.929 . S
H359 C373 0.931 . S
H360 C375 0.930 . S
C361 H349 0.930 . S
C361 C362 1.399 . S
C361 C366 1.399 . S
C362 C361 1.399 . S
C362 C363 1.376 . S
C363 H350 0.930 . S
C363 C362 1.376 . S
C363 C364 1.388 . S
C364 H351 0.930 . S
C364 C363 1.388 . S
C364 C365 1.390 . S
C365 C364 1.390 . S
C365 C366 1.394 . S
C365 C371 1.465 1_455 S
C366 C361 1.399 . S
C366 C365 1.394 . S
C366 C367 1.516 . S
C367 C366 1.516 . S
C367 C368 1.502 . S
C367 C369 1.561 1_455 S
C367 C370 1.526 1_455 S
C368 H352 0.959 . S
C368 H353 0.959 1_455 S
C368 H354 0.961 . S
C368 C367 1.502 . S
C369 H355 0.960 1_655 S
C369 H356 0.961 . S
C369 H357 0.959 . S
C369 C367 1.561 1_655 S
C370 C367 1.526 1_655 S
C370 C371 1.396 . S
C370 C375 1.390 . S
C371 C365 1.465 1_655 S
C371 C370 1.396 . S
C371 C372 1.399 . S
C372 H358 0.929 . S
C372 C371 1.399 . S
C372 C373 1.385 . S
C373 H359 0.931 . S
C373 C372 1.385 . S
C373 C374 1.389 . S
C374 C373 1.389 . S
C374 C375 1.387 . S
C375 H360 0.930 . S
C375 C370 1.390 . S
C375 C374 1.387 . S
H376 C388 0.930 . S
H377 C390 0.930 . S
H378 C391 0.930 . S
H379 C395 0.959 . S
H380 C395 0.959 . S
H381 C395 0.961 . S
H382 C396 0.960 . S
H383 C396 0.961 . S
H384 C396 0.959 . S
H385 C399 0.929 . S
H386 C400 0.931 . S
H387 C402 0.930 . S
C388 H376 0.930 . S
C388 C389 1.399 1_545 S
C388 C393 1.399 . S
C389 C388 1.399 1_565 S
C389 C390 1.376 1_455 S
C390 H377 0.930 . S
C390 C389 1.376 1_655 S
C390 C391 1.388 . S
C391 H378 0.930 . S
C391 C390 1.388 . S
C391 C392 1.386 1_655 S
C392 C391 1.386 1_455 S
C392 C393 1.398 1_565 S
C392 C398 1.467 1_455 S
C393 C388 1.399 . S
C393 C392 1.398 1_545 S
C393 C394 1.516 . S
C394 C393 1.516 . S
C394 C395 1.502 1_455 S
C394 C396 1.561 . S
C394 C397 1.526 . S
C395 H379 0.959 . S
C395 H380 0.959 . S
C395 H381 0.961 . S
C395 C394 1.502 1_655 S
C396 H382 0.960 . S
C396 H383 0.961 . S
C396 H384 0.959 . S
C396 C394 1.561 . S
C397 C394 1.526 . S
C397 C398 1.393 1_445 S
C397 C402 1.390 . S
C398 C392 1.467 1_655 S
C398 C397 1.393 1_665 S
C398 C399 1.401 . S
C399 H385 0.929 . S
C399 C398 1.401 . S
C399 C400 1.385 . S
C400 H386 0.931 . S
C400 C399 1.385 . S
C400 C401 1.389 . S
C401 C400 1.389 . S
C401 C402 1.387 1_665 S
C402 H387 0.930 . S
C402 C397 1.390 . S
C402 C401 1.387 1_445 S
H403 C415 0.930 . S
H404 C417 0.930 . S
H405 C418 0.930 . S
H406 C422 0.959 . S
H407 C422 0.959 . S
H408 C422 0.961 . S
H409 C423 0.960 . S
H410 C423 0.961 . S
H411 C423 0.959 . S
H412 C426 0.929 . S
H413 C427 0.931 . S
H414 C429 0.930 . S
C415 H403 0.930 . S
C415 C416 1.399 1_465 S
C415 C420 1.399 . S
C416 C415 1.399 1_645 S
C416 C417 1.376 . S
C417 H404 0.930 . S
C417 C416 1.376 . S
C417 C418 1.388 . S
C418 H405 0.930 . S
C418 C417 1.388 . S
C418 C419 1.390 . S
C419 C418 1.390 . S
C419 C420 1.394 1_645 S
C419 C425 1.465 . S
C420 C415 1.399 . S
C420 C419 1.394 1_465 S
C420 C421 1.516 . S
C421 C420 1.516 . S
C421 C422 1.502 . S
C421 C423 1.561 1_455 S
C421 C424 1.526 . S
C422 H406 0.959 . S
C422 H407 0.959 . S
C422 H408 0.961 . S
C422 C421 1.502 . S
C423 H409 0.960 . S
C423 H410 0.961 . S
C423 H411 0.959 . S
C423 C421 1.561 1_655 S
C424 C421 1.526 . S
C424 C425 1.396 1_465 S
C424 C429 1.390 . S
C425 C419 1.465 . S
C425 C424 1.396 1_645 S
C425 C426 1.399 . S
C426 H412 0.929 . S
C426 C425 1.399 . S
C426 C427 1.385 . S
C427 H413 0.931 . S
C427 C426 1.385 . S
C427 C428 1.389 . S
C428 C427 1.389 . S
C428 C429 1.387 1_645 S
C429 H414 0.930 . S
C429 C424 1.390 . S
C429 C428 1.387 1_465 S
H430 C442 0.930 . S
H431 C444 0.930 . S
H432 C445 0.930 . S
H433 C449 0.959 . S
H434 C449 0.959 . S
H435 C449 0.961 . S
H436 C450 0.960 . S
H437 C450 0.961 . S
H438 C450 0.959 . S
H439 C453 0.929 . S
H440 C454 0.931 . S
H441 C456 0.930 . S
C442 H430 0.930 . S
C442 C443 1.399 . S
C442 C447 1.399 . S
C443 C442 1.399 . S
C443 C444 1.376 . S
C444 H431 0.930 . S
C444 C443 1.376 . S
C444 C445 1.388 . S
C445 H432 0.930 . S
C445 C444 1.388 . S
C445 C446 1.390 . S
C446 C445 1.390 . S
C446 C447 1.394 . S
C446 C452 1.465 . S
C447 C442 1.399 . S
C447 C446 1.394 . S
C447 C448 1.516 . S
C448 C447 1.516 . S
C448 C449 1.502 . S
C448 C450 1.561 . S
C448 C451 1.526 . S
C449 H433 0.959 . S
C449 H434 0.959 . S
C449 H435 0.961 . S
C449 C448 1.502 . S
C450 H436 0.960 . S
C450 H437 0.961 . S
C450 H438 0.959 . S
C450 C448 1.561 . S
C451 C448 1.526 . S
C451 C452 1.396 . S
C451 C456 1.390 . S
C452 C446 1.465 . S
C452 C451 1.396 . S
C452 C453 1.399 . S
C453 H439 0.929 . S
C453 C452 1.399 . S
C453 C454 1.385 . S
C454 H440 0.931 . S
C454 C453 1.385 . S
C454 C455 1.389 . S
C455 C454 1.389 . S
C455 C456 1.387 . S
C456 H441 0.930 . S
C456 C451 1.390 . S
C456 C455 1.387 . S
H457 C469 0.930 . S
H458 C471 0.930 . S
H459 C472 0.930 . S
H460 C476 0.959 . S
H461 C476 0.959 . S
H462 C476 0.961 . S
H463 C477 0.960 . S
H464 C477 0.961 . S
H465 C477 0.959 . S
H466 C480 0.929 . S
H467 C481 0.931 . S
H468 C483 0.930 . S
C469 H457 0.930 . S
C469 C470 1.399 . S
C469 C474 1.399 . S
C470 C469 1.399 . S
C470 C471 1.376 . S
C471 H458 0.930 . S
C471 C470 1.376 . S
C471 C472 1.388 . S
C472 H459 0.930 . S
C472 C471 1.388 . S
C472 C473 1.390 . S
C473 C472 1.390 . S
C473 C474 1.394 . S
C473 C479 1.465 . S
C474 C469 1.399 . S
C474 C473 1.394 . S
C474 C475 1.516 . S
C475 C474 1.516 . S
C475 C476 1.502 . S
C475 C477 1.561 . S
C475 C478 1.526 . S
C476 H460 0.959 . S
C476 H461 0.959 . S
C476 H462 0.961 . S
C476 C475 1.502 . S
C477 H463 0.960 . S
C477 H464 0.961 . S
C477 H465 0.959 . S
C477 C475 1.561 . S
C478 C475 1.526 . S
C478 C479 1.396 . S
C478 C483 1.390 . S
C479 C473 1.465 . S
C479 C478 1.396 . S
C479 C480 1.399 . S
C480 H466 0.929 . S
C480 C479 1.399 . S
C480 C481 1.385 . S
C481 H467 0.931 . S
C481 C480 1.385 . S
C481 C482 1.389 . S
C482 C481 1.389 . S
C482 C483 1.387 . S
C483 H468 0.930 . S
C483 C478 1.390 . S
C483 C482 1.387 . S
C173 C90 3.582 1_554 S
C185 C19 3.565 . S
C200 C99 3.568 . S
C212 C10 3.579 1_554 S
C227 C55 0.224 . S
C239 C126 0.237 . S
C254 C46 0.286 . S
C266 C135 0.131 . S
C281 C15 0.866 . S
C293 C6 0.988 1_554 S
C308 C59 4.863 . S
C320 C50 4.861 1_565 S
C335 C95 0.851 . S
C347 C86 1.006 1_554 S
C362 C130 4.859 . S
C374 C139 4.867 . S
C389 C49 1.409 . S
C401 C18 1.470 1_665 S
C416 C9 1.444 1_545 S
C428 C58 1.413 . S
C443 C129 1.417 . S
C455 C98 1.450 . S
C470 C138 1.422 . S
C482 C89 1.481 . S
