# Generated by pormake.
# Topology snl, (6)-cn, num edge types: 1
# Building blocks:
#     Node 0, Type 0, BuildingBlock: BETDEL_clean_sbu_0, # of connection points: 6
#     Node 1, Type 0, BuildingBlock: BETDEL_clean_sbu_0, # of connection points: 6
#     Node 2, Type 0, BuildingBlock: BETDEL_clean_sbu_0, # of connection points: 6
#     Node 3, Type 0, BuildingBlock: BETDEL_clean_sbu_0, # of connection points: 6
#     Node 4, Type 0, BuildingBlock: BETDEL_clean_sbu_0, # of connection points: 6
#     Node 5, Type 0, BuildingBlock: BETDEL_clean_sbu_0, # of connection points: 6
#     Node 6, Type 0, BuildingBlock: BETDEL_clean_sbu_0, # of connection points: 6
#     Node 7, Type 0, BuildingBlock: BETDEL_clean_sbu_0, # of connection points: 6
#     Node 8, Type 0, BuildingBlock: BETDEL_clean_sbu_0, # of connection points: 6
#     Node 9, Type 0, BuildingBlock: BETDEL_clean_sbu_0, # of connection points: 6
#     Node 10, Type 0, BuildingBlock: BETDEL_clean_sbu_0, # of connection points: 6
#     Node 11, Type 0, BuildingBlock: BETDEL_clean_sbu_0, # of connection points: 6
#     Node 12, Type 0, BuildingBlock: BETDEL_clean_sbu_0, # of connection points: 6
#     Node 13, Type 0, BuildingBlock: BETDEL_clean_sbu_0, # of connection points: 6
#     Node 14, Type 0, BuildingBlock: BETDEL_clean_sbu_0, # of connection points: 6
#     Node 15, Type 0, BuildingBlock: BETDEL_clean_sbu_0, # of connection points: 6
#     Edge 16, Type (0, 0), BuildingBlock: XUDNAN_clean_linker_2, # of connection points: 2
#     Edge 17, Type (0, 0), BuildingBlock: XUDNAN_clean_linker_2, # of connection points: 2
#     Edge 18, Type (0, 0), BuildingBlock: XUDNAN_clean_linker_2, # of connection points: 2
#     Edge 19, Type (0, 0), BuildingBlock: XUDNAN_clean_linker_2, # of connection points: 2
#     Edge 20, Type (0, 0), BuildingBlock: XUDNAN_clean_linker_2, # of connection points: 2
#     Edge 21, Type (0, 0), BuildingBlock: XUDNAN_clean_linker_2, # of connection points: 2
#     Edge 22, Type (0, 0), BuildingBlock: XUDNAN_clean_linker_2, # of connection points: 2
#     Edge 23, Type (0, 0), BuildingBlock: XUDNAN_clean_linker_2, # of connection points: 2
#     Edge 24, Type (0, 0), BuildingBlock: XUDNAN_clean_linker_2, # of connection points: 2
#     Edge 25, Type (0, 0), BuildingBlock: XUDNAN_clean_linker_2, # of connection points: 2
#     Edge 26, Type (0, 0), BuildingBlock: XUDNAN_clean_linker_2, # of connection points: 2
#     Edge 27, Type (0, 0), BuildingBlock: XUDNAN_clean_linker_2, # of connection points: 2
#     Edge 28, Type (0, 0), BuildingBlock: XUDNAN_clean_linker_2, # of connection points: 2
#     Edge 29, Type (0, 0), BuildingBlock: XUDNAN_clean_linker_2, # of connection points: 2
#     Edge 30, Type (0, 0), BuildingBlock: XUDNAN_clean_linker_2, # of connection points: 2
#     Edge 31, Type (0, 0), BuildingBlock: XUDNAN_clean_linker_2, # of connection points: 2
#     Edge 32, Type (0, 0), BuildingBlock: XUDNAN_clean_linker_2, # of connection points: 2
#     Edge 33, Type (0, 0), BuildingBlock: XUDNAN_clean_linker_2, # of connection points: 2
#     Edge 34, Type (0, 0), BuildingBlock: XUDNAN_clean_linker_2, # of connection points: 2
#     Edge 35, Type (0, 0), BuildingBlock: XUDNAN_clean_linker_2, # of connection points: 2
#     Edge 36, Type (0, 0), BuildingBlock: XUDNAN_clean_linker_2, # of connection points: 2
#     Edge 37, Type (0, 0), BuildingBlock: XUDNAN_clean_linker_2, # of connection points: 2
#     Edge 38, Type (0, 0), BuildingBlock: XUDNAN_clean_linker_2, # of connection points: 2
#     Edge 39, Type (0, 0), BuildingBlock: XUDNAN_clean_linker_2, # of connection points: 2
#     Edge 40, Type (0, 0), BuildingBlock: XUDNAN_clean_linker_2, # of connection points: 2
#     Edge 41, Type (0, 0), BuildingBlock: XUDNAN_clean_linker_2, # of connection points: 2
#     Edge 42, Type (0, 0), BuildingBlock: XUDNAN_clean_linker_2, # of connection points: 2
#     Edge 43, Type (0, 0), BuildingBlock: XUDNAN_clean_linker_2, # of connection points: 2
#     Edge 44, Type (0, 0), BuildingBlock: XUDNAN_clean_linker_2, # of connection points: 2
#     Edge 45, Type (0, 0), BuildingBlock: XUDNAN_clean_linker_2, # of connection points: 2
#     Edge 46, Type (0, 0), BuildingBlock: XUDNAN_clean_linker_2, # of connection points: 2
#     Edge 47, Type (0, 0), BuildingBlock: XUDNAN_clean_linker_2, # of connection points: 2
#     Edge 48, Type (0, 0), BuildingBlock: XUDNAN_clean_linker_2, # of connection points: 2
#     Edge 49, Type (0, 0), BuildingBlock: XUDNAN_clean_linker_2, # of connection points: 2
#     Edge 50, Type (0, 0), BuildingBlock: XUDNAN_clean_linker_2, # of connection points: 2
#     Edge 51, Type (0, 0), BuildingBlock: XUDNAN_clean_linker_2, # of connection points: 2
#     Edge 52, Type (0, 0), BuildingBlock: XUDNAN_clean_linker_2, # of connection points: 2
#     Edge 53, Type (0, 0), BuildingBlock: XUDNAN_clean_linker_2, # of connection points: 2
#     Edge 54, Type (0, 0), BuildingBlock: XUDNAN_clean_linker_2, # of connection points: 2
#     Edge 55, Type (0, 0), BuildingBlock: XUDNAN_clean_linker_2, # of connection points: 2
#     Edge 56, Type (0, 0), BuildingBlock: XUDNAN_clean_linker_2, # of connection points: 2
#     Edge 57, Type (0, 0), BuildingBlock: XUDNAN_clean_linker_2, # of connection points: 2
#     Edge 58, Type (0, 0), BuildingBlock: XUDNAN_clean_linker_2, # of connection points: 2
#     Edge 59, Type (0, 0), BuildingBlock: XUDNAN_clean_linker_2, # of connection points: 2
#     Edge 60, Type (0, 0), BuildingBlock: XUDNAN_clean_linker_2, # of connection points: 2
#     Edge 61, Type (0, 0), BuildingBlock: XUDNAN_clean_linker_2, # of connection points: 2
#     Edge 62, Type (0, 0), BuildingBlock: XUDNAN_clean_linker_2, # of connection points: 2
#     Edge 63, Type (0, 0), BuildingBlock: XUDNAN_clean_linker_2, # of connection points: 2
# Relax obj value: 0.146
# Max RMSD: 0.204
# Mean RMSD: 0.175
data_MOF--net-snl--node1-BETDEL_clean_sbu_0--edge1-XUDNAN_clean_linker_2
_symmetry_space_group_name_H-M    P1
_symmetry_Int_Tables_number       1
_symmetry_cell_setting            triclinic
loop_
_symmetry_equiv_pos_as_xyz
'x, y, z'
_cell_length_a     57.981406
_cell_length_b     58.344952
_cell_length_c     18.072525
_cell_angle_alpha  99.941482
_cell_angle_beta   89.967711
_cell_angle_gamma 89.979739
loop_
_atom_site_label
_atom_site_type_symbol
_atom_site_fract_x
_atom_site_fract_y
_atom_site_fract_z
_atom_type_partial_charge
Dy0 Dy 0.14669 0.62668 0.04675 0.0
C1 C 0.13519 0.63224 0.36947 0.0
C2 C 0.14803 0.61135 0.89513 0.0
Dy3 Dy 0.13682 0.62889 0.21645 0.0
O4 O 0.16254 0.62604 0.93228 0.0
O5 O 0.13379 0.60412 0.94174 0.0
O6 O 0.14354 0.66401 0.03631 0.0
O7 O 0.1383 0.6543 0.14121 0.0
C8 C 0.13841 0.67128 0.1062 0.0
C9 C 0.13775 0.58623 0.13003 0.0
O10 O 0.10196 0.63792 0.17919 0.0
O11 O 0.10815 0.62164 0.0545 0.0
O12 O 0.15301 0.62571 0.32773 0.0
O13 O 0.11841 0.63755 0.32783 0.0
O14 O 0.12401 0.59186 0.18655 0.0
O15 O 0.151 0.60289 0.12568 0.0
O16 O 0.18285 0.62686 0.09199 0.0
O17 O 0.17273 0.64292 0.21485 0.0
C18 C 0.09413 0.63016 0.11074 0.0
C19 C 0.18836 0.63704 0.16126 0.0
Dy20 Dy 0.64078 0.88257 0.47299 0.0
C21 C 0.63684 0.87002 0.14682 0.0
C22 C 0.64934 0.89286 0.62354 0.0
Dy23 Dy 0.63506 0.87873 0.30054 0.0
O24 O 0.66341 0.88255 0.57268 0.0
O25 O 0.63054 0.89869 0.59172 0.0
O26 O 0.63686 0.84526 0.48452 0.0
O27 O 0.63468 0.85419 0.37839 0.0
C28 C 0.63387 0.8374 0.41394 0.0
C29 C 0.63398 0.92239 0.38063 0.0
O30 O 0.60004 0.86998 0.33654 0.0
O31 O 0.6031 0.89081 0.45787 0.0
O32 O 0.6215 0.88289 0.18651 0.0
O33 O 0.65051 0.86112 0.19116 0.0
O34 O 0.62388 0.91615 0.31654 0.0
O35 O 0.64654 0.90593 0.39306 0.0
O36 O 0.67772 0.88605 0.43555 0.0
O37 O 0.6731 0.87406 0.30701 0.0
C38 C 0.59048 0.88116 0.39917 0.0
C39 C 0.68633 0.87959 0.36688 0.0
Dy40 Dy 0.38538 0.39924 0.71669 0.0
C41 C 0.37361 0.38338 0.39326 0.0
C42 C 0.37733 0.40488 0.86696 0.0
Dy43 Dy 0.37817 0.38142 0.54201 0.0
O44 O 0.38469 0.42131 0.8323 0.0
O45 O 0.37383 0.38587 0.81939 0.0
O46 O 0.42423 0.39899 0.72012 0.0
O47 O 0.40695 0.38915 0.61898 0.0
C48 C 0.42664 0.39146 0.64861 0.0
C49 C 0.34073 0.38233 0.63058 0.0
O50 O 0.38842 0.34773 0.57469 0.0
O51 O 0.37997 0.36035 0.70157 0.0
O52 O 0.36053 0.3937 0.4469 0.0
O53 O 0.38913 0.3708 0.42018 0.0
O54 O 0.34332 0.36748 0.56866 0.0
O55 O 0.35705 0.39672 0.63782 0.0
O56 O 0.37696 0.43279 0.67605 0.0
O57 O 0.38835 0.41879 0.55341 0.0
C58 C 0.38482 0.34358 0.64382 0.0
C59 C 0.38183 0.43605 0.60669 0.0
Dy60 Dy 0.88992 0.11244 0.80661 0.0
C61 C 0.88318 0.13708 0.13006 0.0
C62 C 0.8821 0.11056 0.65546 0.0
Dy63 Dy 0.88304 0.13152 0.97576 0.0
O64 O 0.90072 0.10294 0.68361 0.0
O65 O 0.86793 0.11815 0.70953 0.0
O66 O 0.92467 0.09856 0.82809 0.0
O67 O 0.9125 0.12853 0.89866 0.0
C68 C 0.92827 0.1133 0.88984 0.0
C69 C 0.84498 0.12958 0.88976 0.0
O70 O 0.89509 0.16447 0.94243 0.0
O71 O 0.88983 0.15162 0.81456 0.0
O72 O 0.86765 0.14505 0.08935 0.0
O73 O 0.89932 0.12684 0.08643 0.0
O74 O 0.84812 0.14529 0.94913 0.0
O75 O 0.86117 0.11503 0.88386 0.0
O76 O 0.87919 0.07885 0.84335 0.0
O77 O 0.88399 0.09305 0.97111 0.0
C78 C 0.89346 0.16855 0.87265 0.0
C79 C 0.88021 0.07577 0.91465 0.0
Dy80 Dy 0.14505 0.37821 0.97105 0.0
C81 C 0.13063 0.37946 0.66203 0.0
C82 C 0.14496 0.38727 0.12488 0.0
Dy83 Dy 0.13539 0.37895 0.81272 0.0
O84 O 0.15418 0.36912 0.08397 0.0
O85 O 0.13627 0.40067 0.08175 0.0
O86 O 0.16121 0.34344 0.94574 0.0
O87 O 0.13329 0.35062 0.87896 0.0
C88 C 0.14831 0.33557 0.88838 0.0
C89 C 0.13477 0.42104 0.90365 0.0
O90 O 0.10189 0.36443 0.84203 0.0
O91 O 0.10575 0.37923 0.96784 0.0
O92 O 0.11901 0.39187 0.71556 0.0
O93 O 0.14475 0.36597 0.6904 0.0
O94 O 0.1199 0.41462 0.85109 0.0
O95 O 0.1492 0.40512 0.9038 0.0
O96 O 0.1806 0.38715 0.93497 0.0
O97 O 0.17379 0.3741 0.80881 0.0
C98 C 0.09274 0.37046 0.90945 0.0
C99 C 0.18823 0.38072 0.86517 0.0
Dy100 Dy 0.88672 0.89338 0.22452 0.0
C101 C 0.87412 0.87444 0.90392 0.0
C102 C 0.88203 0.8986 0.37782 0.0
Dy103 Dy 0.87843 0.8769 0.05637 0.0
O104 O 0.86599 0.90187 0.33087 0.0
O105 O 0.90111 0.89313 0.34126 0.0
O106 O 0.92079 0.90804 0.20204 0.0
O107 O 0.90881 0.8779 0.13008 0.0
C108 C 0.92474 0.89304 0.14104 0.0
C109 C 0.84088 0.87869 0.14476 0.0
O110 O 0.88613 0.84199 0.08354 0.0
O111 O 0.88315 0.85438 0.21306 0.0
O112 O 0.8578 0.87906 0.95318 0.0
O113 O 0.8931 0.87014 0.9376 0.0
O114 O 0.84378 0.86305 0.08502 0.0
O115 O 0.8573 0.893 0.15102 0.0
O116 O 0.87901 0.92786 0.19069 0.0
O117 O 0.88647 0.91477 0.06437 0.0
C118 C 0.8852 0.83776 0.15319 0.0
C119 C 0.88256 0.93181 0.12136 0.0
Dy120 Dy 0.3801 0.62103 0.30448 0.0
C121 C 0.37315 0.63299 0.62658 0.0
C122 C 0.36969 0.61488 0.15562 0.0
Dy123 Dy 0.37703 0.63686 0.47939 0.0
O124 O 0.37792 0.59876 0.18978 0.0
O125 O 0.36655 0.63401 0.20314 0.0
O126 O 0.41879 0.61902 0.29162 0.0
O127 O 0.40412 0.62845 0.39707 0.0
C128 C 0.42304 0.62533 0.36276 0.0
C129 C 0.33854 0.6418 0.40096 0.0
O130 O 0.38957 0.67023 0.44883 0.0
O131 O 0.37884 0.66017 0.32286 0.0
O132 O 0.3606 0.62229 0.57217 0.0
O133 O 0.38786 0.64682 0.60142 0.0
O134 O 0.34423 0.65555 0.46256 0.0
O135 O 0.35259 0.62508 0.38759 0.0
O136 O 0.37196 0.58729 0.34308 0.0
O137 O 0.38651 0.59916 0.46273 0.0
C138 C 0.3857 0.67572 0.38135 0.0
C139 C 0.37891 0.58265 0.40893 0.0
Dy140 Dy 0.64605 0.12724 0.56205 0.0
C141 C 0.64995 0.12257 0.87531 0.0
C142 C 0.64861 0.11562 0.41077 0.0
Dy143 Dy 0.64485 0.12603 0.7284 0.0
O144 O 0.6592 0.13302 0.45085 0.0
O145 O 0.63674 0.1041 0.45325 0.0
O146 O 0.64051 0.16419 0.55603 0.0
O147 O 0.64132 0.15426 0.66298 0.0
C148 C 0.63917 0.17122 0.62774 0.0
C149 C 0.64283 0.08472 0.63544 0.0
O150 O 0.6079 0.13236 0.71149 0.0
O151 O 0.60822 0.12002 0.58236 0.0
O152 O 0.6585 0.1084 0.81909 0.0
O153 O 0.63893 0.13942 0.85197 0.0
O154 O 0.63048 0.0897 0.69571 0.0
O155 O 0.65554 0.10164 0.62881 0.0
O156 O 0.68398 0.12579 0.59036 0.0
O157 O 0.68053 0.13896 0.71812 0.0
C158 C 0.59701 0.12553 0.64729 0.0
C159 C 0.69328 0.13369 0.65708 0.0
Dy160 Dy 0.883 0.37948 0.80915 0.0
C161 C 0.86569 0.39179 0.12961 0.0
C162 C 0.88114 0.37257 0.65559 0.0
Dy163 Dy 0.87376 0.3811 0.97883 0.0
O164 O 0.89567 0.38623 0.69643 0.0
O165 O 0.8685 0.36205 0.69857 0.0
O166 O 0.89777 0.41571 0.83844 0.0
O167 O 0.87085 0.4058 0.90229 0.0
C168 C 0.88482 0.42184 0.89701 0.0
C169 C 0.87912 0.3363 0.9157 0.0
O170 O 0.83747 0.38503 0.93797 0.0
O171 O 0.84451 0.37827 0.80947 0.0
O172 O 0.85175 0.38069 0.07987 0.0
O173 O 0.88405 0.3981 0.09654 0.0
O174 O 0.87461 0.34341 0.98596 0.0
O175 O 0.87998 0.35359 0.88224 0.0
O176 O 0.91576 0.3653 0.84536 0.0
O177 O 0.91273 0.38382 0.96961 0.0
C178 C 0.83016 0.38164 0.86727 0.0
C179 C 0.92503 0.37265 0.91221 0.0
Dy180 Dy 0.37998 0.13759 0.73319 0.0
C181 C 0.37713 0.12278 0.40475 0.0
C182 C 0.38401 0.15009 0.88544 0.0
Dy183 Dy 0.38016 0.13169 0.55771 0.0
O184 O 0.36491 0.14395 0.8499 0.0
O185 O 0.40055 0.15061 0.83719 0.0
O186 O 0.37655 0.09952 0.74305 0.0
O187 O 0.37891 0.10911 0.63929 0.0
C188 C 0.37714 0.09185 0.6715 0.0
C189 C 0.39067 0.17487 0.63098 0.0
O190 O 0.34248 0.1273 0.58633 0.0
O191 O 0.34361 0.1461 0.7109 0.0
O192 O 0.36542 0.13864 0.44849 0.0
O193 O 0.38972 0.11115 0.44497 0.0
O194 O 0.39909 0.16535 0.56662 0.0
O195 O 0.37592 0.16131 0.65147 0.0
O196 O 0.41733 0.13917 0.70492 0.0
O197 O 0.41638 0.12096 0.58 0.0
C198 C 0.33199 0.13675 0.65005 0.0
C199 C 0.42771 0.12846 0.64327 0.0
Dy200 Dy 0.63464 0.63048 0.48106 0.0
C201 C 0.6354 0.60362 0.15159 0.0
C202 C 0.62741 0.63285 0.6321 0.0
Dy203 Dy 0.62922 0.61317 0.30395 0.0
O204 O 0.64683 0.63761 0.60195 0.0
O205 O 0.61187 0.62811 0.58 0.0
O206 O 0.6712 0.641 0.46209 0.0
O207 O 0.65609 0.61326 0.388 0.0
C208 C 0.6736 0.62625 0.3996 0.0
C209 C 0.58782 0.62513 0.36695 0.0
O210 O 0.63039 0.57845 0.34333 0.0
O211 O 0.63199 0.59202 0.473 0.0
O212 O 0.62207 0.59212 0.19009 0.0
O213 O 0.64639 0.61967 0.19712 0.0
O214 O 0.59085 0.61778 0.29576 0.0
O215 O 0.60717 0.62562 0.3988 0.0
O216 O 0.62638 0.6641 0.44383 0.0
O217 O 0.63585 0.65174 0.31745 0.0
C218 C 0.63052 0.575 0.41439 0.0
C219 C 0.6308 0.66841 0.37526 0.0
Dy220 Dy 0.13578 0.87906 0.05904 0.0
C221 C 0.13726 0.89956 0.37891 0.0
C222 C 0.13681 0.87369 0.90461 0.0
Dy223 Dy 0.12918 0.89622 0.22735 0.0
O224 O 0.15272 0.86709 0.94677 0.0
O225 O 0.11971 0.88246 0.94673 0.0
O226 O 0.17208 0.86877 0.08366 0.0
O227 O 0.15719 0.89797 0.14955 0.0
C228 C 0.17469 0.885 0.1417 0.0
C229 C 0.08994 0.89267 0.14959 0.0
O230 O 0.13256 0.93134 0.19129 0.0
O231 O 0.12711 0.91643 0.06447 0.0
O232 O 0.11746 0.90338 0.3494 0.0
O233 O 0.15248 0.89493 0.32589 0.0
O234 O 0.09345 0.90775 0.21057 0.0
O235 O 0.10671 0.87851 0.1371 0.0
O236 O 0.12651 0.84489 0.08923 0.0
O237 O 0.13268 0.85703 0.21678 0.0
C238 C 0.12829 0.9341 0.12091 0.0
C239 C 0.12938 0.84026 0.15789 0.0
Dy240 Dy 0.88211 0.62765 0.22409 0.0
C241 C 0.86939 0.62179 0.91296 0.0
C242 C 0.88676 0.62676 0.37459 0.0
Dy243 Dy 0.8704 0.62993 0.06675 0.0
O244 O 0.89495 0.61164 0.32017 0.0
O245 O 0.87627 0.64314 0.34715 0.0
O246 O 0.89702 0.59206 0.18235 0.0
O247 O 0.86734 0.6025 0.1324 0.0
C248 C 0.8818 0.58643 0.13026 0.0
C249 C 0.86931 0.6718 0.15519 0.0
O250 O 0.8352 0.62115 0.10442 0.0
O251 O 0.84338 0.63197 0.23088 0.0
O252 O 0.86297 0.64102 0.95525 0.0
O253 O 0.87578 0.60696 0.95474 0.0
O254 O 0.85499 0.66487 0.10071 0.0
O255 O 0.88426 0.65617 0.15887 0.0
O256 O 0.91693 0.6384 0.19056 0.0
O257 O 0.90936 0.62704 0.06434 0.0
C258 C 0.82835 0.6263 0.17538 0.0
C259 C 0.92416 0.63308 0.12029 0.0
Dy260 Dy 0.14291 0.12812 0.95998 0.0
C261 C 0.13653 0.10602 0.63479 0.0
C262 C 0.14922 0.12805 0.1096 0.0
Dy263 Dy 0.13146 0.11234 0.7873 0.0
O264 O 0.16346 0.11976 0.05635 0.0
O265 O 0.13154 0.13746 0.08156 0.0
O266 O 0.1763 0.14328 0.92784 0.0
O267 O 0.16214 0.1143 0.85766 0.0
C268 C 0.17811 0.12922 0.86396 0.0
C269 C 0.09196 0.11856 0.86477 0.0
O270 O 0.13118 0.07701 0.82134 0.0
O271 O 0.13603 0.09016 0.95028 0.0
O272 O 0.14652 0.0934 0.67825 0.0
O273 O 0.12357 0.12158 0.67452 0.0
O274 O 0.09291 0.11158 0.79252 0.0
O275 O 0.1122 0.12117 0.89089 0.0
O276 O 0.13204 0.16228 0.93356 0.0
O277 O 0.1374 0.15112 0.80422 0.0
C278 C 0.13286 0.07339 0.8919 0.0
C279 C 0.13369 0.1672 0.86476 0.0
Dy280 Dy 0.63731 0.37888 0.5611 0.0
C281 C 0.6295 0.40485 0.8854 0.0
C282 C 0.64212 0.37897 0.40981 0.0
Dy283 Dy 0.62718 0.39344 0.73092 0.0
O284 O 0.65642 0.38778 0.4622 0.0
O285 O 0.62514 0.36899 0.43967 0.0
O286 O 0.67243 0.36569 0.5856 0.0
O287 O 0.65767 0.39331 0.66046 0.0
C288 C 0.67442 0.37924 0.65019 0.0
C289 C 0.59044 0.3765 0.6473 0.0
O290 O 0.62158 0.42875 0.69787 0.0
O291 O 0.62921 0.41659 0.57021 0.0
O292 O 0.61285 0.39357 0.8476 0.0
O293 O 0.64424 0.4111 0.83851 0.0
O294 O 0.59391 0.37397 0.71632 0.0
O295 O 0.60616 0.38925 0.62788 0.0
O296 O 0.62909 0.34438 0.59372 0.0
O297 O 0.63964 0.35656 0.71817 0.0
C298 C 0.62364 0.43285 0.62789 0.0
C299 C 0.6346 0.33977 0.6611 0.0
Dy300 Dy 0.37547 0.88746 0.31518 0.0
C301 C 0.37119 0.90449 0.63855 0.0
C302 C 0.37717 0.88212 0.16215 0.0
Dy303 Dy 0.37154 0.88981 0.48709 0.0
O304 O 0.35921 0.88914 0.2028 0.0
O305 O 0.39377 0.87726 0.20495 0.0
O306 O 0.3865 0.92555 0.33711 0.0
O307 O 0.36408 0.91315 0.41011 0.0
C308 C 0.37554 0.93048 0.40019 0.0
C309 C 0.37838 0.84502 0.42709 0.0
O310 O 0.33432 0.89192 0.45095 0.0
O311 O 0.33935 0.87536 0.32542 0.0
O312 O 0.35561 0.8912 0.60132 0.0
O313 O 0.38633 0.91052 0.5924 0.0
O314 O 0.37551 0.85276 0.49799 0.0
O315 O 0.37706 0.86168 0.39052 0.0
O316 O 0.41129 0.87964 0.34378 0.0
O317 O 0.40939 0.89719 0.46856 0.0
C318 C 0.32583 0.88268 0.38386 0.0
C319 C 0.42141 0.889 0.40711 0.0
H320 H 0.17723 0.62153 0.78467 0.0
H321 H 0.10812 0.59757 0.82292 0.0
H322 H 0.09731 0.60116 0.69352 0.0
H323 H 0.1627 0.66288 0.67282 0.0
H324 H 0.18627 0.6566 0.60737 0.0
H325 H 0.18932 0.65118 0.70199 0.0
H326 H 0.19977 0.60813 0.65198 0.0
H327 H 0.19721 0.61353 0.55712 0.0
H328 H 0.18066 0.59058 0.58679 0.0
H329 H 0.09247 0.61224 0.56674 0.0
H330 H 0.09605 0.62219 0.4397 0.0
H331 H 0.16917 0.63493 0.47653 0.0
C332 C 0.16001 0.61653 0.76503 0.0
C333 C 0.1435 0.60926 0.81374 0.0
C334 C 0.12109 0.60299 0.78639 0.0
C335 C 0.11472 0.60516 0.71314 0.0
C336 C 0.13112 0.6131 0.66725 0.0
C337 C 0.15351 0.618 0.69111 0.0
C338 C 0.16782 0.62574 0.62949 0.0
C339 C 0.17707 0.65058 0.65444 0.0
C340 C 0.18753 0.60846 0.60488 0.0
C341 C 0.14982 0.62495 0.56814 0.0
C342 C 0.12867 0.61799 0.59176 0.0
C343 C 0.10902 0.61728 0.54702 0.0
C344 C 0.11117 0.62317 0.4753 0.0
C345 C 0.13287 0.6292 0.4485 0.0
C346 C 0.15241 0.63022 0.4957 0.0
H347 H 0.60961 0.8874 0.04468 0.0
H348 H 0.67532 0.85389 0.06944 0.0
H349 H 0.68637 0.8591 0.94161 0.0
H350 H 0.60149 0.8617 0.84725 0.0
H351 H 0.58817 0.88744 0.8238 0.0
H352 H 0.58544 0.88105 0.9174 0.0
H353 H 0.6022 0.92167 0.97105 0.0
H354 H 0.60542 0.92799 0.87745 0.0
H355 H 0.63 0.92985 0.9392 0.0
H356 H 0.69134 0.86968 0.81563 0.0
H357 H 0.68761 0.87891 0.68845 0.0
H358 H 0.6179 0.90392 0.7396 0.0
C359 C 0.62617 0.8809 0.0226 0.0
C360 C 0.64164 0.87023 0.06677 0.0
C361 C 0.66318 0.86197 0.03633 0.0
C362 C 0.66969 0.86504 0.96406 0.0
C363 C 0.65436 0.87617 0.92268 0.0
C364 C 0.63284 0.88353 0.94989 0.0
C365 C 0.61941 0.89423 0.89219 0.0
C366 C 0.59732 0.88026 0.86876 0.0
C367 C 0.61394 0.91996 0.92177 0.0
C368 C 0.63678 0.89171 0.82841 0.0
C369 C 0.65693 0.8816 0.84808 0.0
C370 C 0.67561 0.87745 0.79931 0.0
C371 C 0.67334 0.88289 0.72729 0.0
C372 C 0.65247 0.89211 0.70418 0.0
C373 C 0.63412 0.89709 0.75603 0.0
H374 H 0.38293 0.35648 0.25444 0.0
H375 H 0.36457 0.42611 0.36476 0.0
H376 H 0.36423 0.43948 0.2429 0.0
H377 H 0.41912 0.37295 0.10819 0.0
H378 H 0.40884 0.34999 0.03604 0.0
H379 H 0.40904 0.346 0.13268 0.0
H380 H 0.36538 0.33644 0.12459 0.0
H381 H 0.36505 0.34046 0.02799 0.0
H382 H 0.3456 0.3569 0.09483 0.0
H383 H 0.36709 0.44586 0.11021 0.0
H384 H 0.36951 0.44369 0.97217 0.0
H385 H 0.38203 0.36944 0.94557 0.0
C386 C 0.37901 0.37452 0.25254 0.0
C387 C 0.3739 0.39033 0.31874 0.0
C388 C 0.36847 0.41374 0.31446 0.0
C389 C 0.36832 0.42154 0.24559 0.0
C390 C 0.37322 0.4056 0.18108 0.0
C391 C 0.37816 0.38251 0.18354 0.0
C392 C 0.38151 0.36883 0.10503 0.0
C393 C 0.40609 0.35886 0.09491 0.0
C394 C 0.36329 0.34952 0.08707 0.0
C395 C 0.37778 0.38785 0.05866 0.0
C396 C 0.37337 0.409 0.10375 0.0
C397 C 0.37029 0.42935 0.07407 0.0
C398 C 0.37169 0.42801 0.99591 0.0
C399 C 0.37562 0.40641 0.94881 0.0
C400 C 0.37861 0.38612 0.98059 0.0
H401 H 0.91175 0.10125 0.53217 0.0
H402 H 0.84387 0.12828 0.60145 0.0
H403 H 0.83772 0.13872 0.47688 0.0
H404 H 0.9264 0.14414 0.42045 0.0
H405 H 0.9405 0.1243 0.34672 0.0
H406 H 0.93984 0.11808 0.44095 0.0
H407 H 0.921 0.07807 0.39264 0.0
H408 H 0.92186 0.08405 0.29813 0.0
H409 H 0.8949 0.07672 0.33787 0.0
H410 H 0.83929 0.14849 0.34904 0.0
H411 H 0.84679 0.15309 0.21823 0.0
H412 H 0.9129 0.11858 0.22487 0.0
C413 C 0.8955 0.10906 0.52053 0.0
C414 C 0.8783 0.11397 0.57679 0.0
C415 C 0.85732 0.12434 0.55951 0.0
C416 C 0.85366 0.13043 0.48885 0.0
C417 C 0.87104 0.1259 0.43524 0.0
C418 C 0.89142 0.11512 0.44938 0.0
C419 C 0.90704 0.11212 0.38058 0.0
C420 C 0.92979 0.12545 0.39826 0.0
C421 C 0.91145 0.0862 0.35053 0.0
C422 C 0.8923 0.12309 0.32631 0.0
C423 C 0.8717 0.13106 0.35964 0.0
C424 C 0.85529 0.14218 0.32206 0.0
C425 C 0.85977 0.14482 0.24779 0.0
C426 C 0.88041 0.13624 0.21125 0.0
C427 C 0.897 0.1254 0.25143 0.0
H428 H 0.16232 0.36047 0.22307 0.0
H429 H 0.12034 0.42136 0.21173 0.0
H430 H 0.11198 0.42532 0.34724 0.0
H431 H 0.12719 0.33675 0.35299 0.0
H432 H 0.15086 0.32696 0.40415 0.0
H433 H 0.15433 0.32908 0.30651 0.0
H434 H 0.18964 0.3561 0.33923 0.0
H435 H 0.18643 0.35388 0.43691 0.0
H436 H 0.18676 0.38207 0.40892 0.0
H437 H 0.10621 0.42148 0.48044 0.0
H438 H 0.10625 0.41253 0.60857 0.0
H439 H 0.15321 0.35494 0.53792 0.0
C440 C 0.1516 0.37477 0.24949 0.0
C441 C 0.14195 0.39064 0.20714 0.0
C442 C 0.12794 0.40909 0.24329 0.0
C443 C 0.12304 0.41142 0.32011 0.0
C444 C 0.13244 0.39527 0.36007 0.0
C445 C 0.14669 0.37749 0.32653 0.0
C446 C 0.15457 0.36261 0.38297 0.0
C447 C 0.14623 0.33736 0.36028 0.0
C448 C 0.18091 0.36374 0.39258 0.0
C449 C 0.14234 0.37473 0.45325 0.0
C450 C 0.12956 0.3934 0.43825 0.0
C451 C 0.11629 0.40703 0.4931 0.0
C452 C 0.11636 0.40173 0.56566 0.0
C453 C 0.12975 0.38307 0.58316 0.0
C454 C 0.14283 0.3693 0.52604 0.0
H455 H 0.90696 0.86911 0.78973 0.0
H456 H 0.83539 0.88756 0.83969 0.0
H457 H 0.83051 0.89686 0.71311 0.0
H458 H 0.91883 0.91322 0.67915 0.0
H459 H 0.9364 0.89501 0.61045 0.0
H460 H 0.93468 0.88921 0.70503 0.0
H461 H 0.92141 0.84702 0.65482 0.0
H462 H 0.92335 0.85261 0.56002 0.0
H463 H 0.89673 0.84215 0.5935 0.0
H464 H 0.83313 0.90547 0.58436 0.0
H465 H 0.84234 0.90982 0.45444 0.0
H466 H 0.91197 0.88526 0.48207 0.0
C467 C 0.89024 0.87486 0.77349 0.0
C468 C 0.87153 0.87758 0.82468 0.0
C469 C 0.84995 0.88525 0.80154 0.0
C470 C 0.847 0.8907 0.72975 0.0
C471 C 0.86576 0.88823 0.68105 0.0
C472 C 0.88689 0.88023 0.70116 0.0
C473 C 0.90399 0.87891 0.63667 0.0
C474 C 0.9247 0.89506 0.6592 0.0
C475 C 0.91183 0.85367 0.60966 0.0
C476 C 0.88916 0.88764 0.57789 0.0
C477 C 0.8672 0.89299 0.60522 0.0
C478 C 0.85024 0.90129 0.56213 0.0
C479 C 0.85567 0.90379 0.48845 0.0
C480 C 0.87786 0.89798 0.45828 0.0
C481 C 0.89491 0.89002 0.50394 0.0
H482 H 0.37908 0.66099 0.76526 0.0
H483 H 0.36623 0.58996 0.6558 0.0
H484 H 0.36382 0.57748 0.77906 0.0
H485 H 0.41276 0.6475 0.92213 0.0
H486 H 0.40005 0.67038 0.98963 0.0
H487 H 0.40227 0.67357 0.8925 0.0
H488 H 0.35823 0.68093 0.88913 0.0
H489 H 0.35587 0.67757 0.98608 0.0
H490 H 0.33862 0.65976 0.91557 0.0
H491 H 0.3636 0.57235 0.91325 0.0
H492 H 0.3637 0.57551 0.05175 0.0
H493 H 0.37292 0.65017 0.0754 0.0
C494 C 0.37603 0.64282 0.76769 0.0
C495 C 0.37301 0.62637 0.70149 0.0
C496 C 0.36858 0.6028 0.70625 0.0
C497 C 0.36721 0.59552 0.77587 0.0
C498 C 0.36988 0.61213 0.84037 0.0
C499 C 0.374 0.63532 0.8372 0.0
C500 C 0.37507 0.64969 0.91545 0.0
C501 C 0.39896 0.66094 0.93082 0.0
C502 C 0.35579 0.66807 0.92722 0.0
C503 C 0.37102 0.63093 0.96262 0.0
C504 C 0.36834 0.60936 0.91815 0.0
C505 C 0.36543 0.58918 0.94882 0.0
C506 C 0.36547 0.5911 0.02726 0.0
C507 C 0.36794 0.61307 0.07367 0.0
C508 C 0.37051 0.63322 0.04091 0.0
H509 H 0.65028 0.15329 1.0086 0.0
H510 H 0.64863 0.07987 0.91258 0.0
H511 H 0.64695 0.06984 0.03964 0.0
H512 H 0.68824 0.14619 0.16094 0.0
H513 H 0.67474 0.1688 0.22748 0.0
H514 H 0.67432 0.17031 0.12881 0.0
H515 H 0.6297 0.17335 0.13276 0.0
H516 H 0.63 0.17182 0.23145 0.0
H517 H 0.61315 0.15129 0.16753 0.0
H518 H 0.64361 0.06784 0.17654 0.0
H519 H 0.64375 0.07408 0.31597 0.0
H520 H 0.65195 0.14825 0.32214 0.0
C521 C 0.64945 0.13517 0.01476 0.0
C522 C 0.6494 0.11732 0.95158 0.0
C523 C 0.64871 0.09374 0.96092 0.0
C524 C 0.64763 0.08787 0.03262 0.0
C525 C 0.64777 0.10582 0.09416 0.0
C526 C 0.64906 0.12896 0.08615 0.0
C527 C 0.65043 0.14474 0.16169 0.0
C528 C 0.6733 0.1583 0.17021 0.0
C529 C 0.62957 0.16127 0.17406 0.0
C530 C 0.64952 0.12685 0.21305 0.0
C531 C 0.64757 0.10453 0.17311 0.0
C532 C 0.64542 0.0852 0.20861 0.0
C533 C 0.64547 0.08885 0.28738 0.0
C534 C 0.6482 0.11152 0.32873 0.0
C535 C 0.65026 0.13068 0.29122 0.0
H536 H 0.89743 0.40434 0.24377 0.0
H537 H 0.8279 0.37818 0.19786 0.0
H538 H 0.82474 0.37053 0.3271 0.0
H539 H 0.91476 0.36385 0.35481 0.0
H540 H 0.93097 0.3838 0.4226 0.0
H541 H 0.92755 0.38941 0.32831 0.0
H542 H 0.91008 0.42992 0.3792 0.0
H543 H 0.91387 0.42465 0.47381 0.0
H544 H 0.8858 0.43216 0.4424 0.0
H545 H 0.8304 0.36121 0.45399 0.0
H546 H 0.84231 0.35651 0.58128 0.0
H547 H 0.90742 0.39051 0.55154 0.0
C548 C 0.88135 0.39763 0.26179 0.0
C549 C 0.86289 0.39186 0.21087 0.0
C550 C 0.84223 0.38277 0.23597 0.0
C551 C 0.84029 0.37825 0.3092 0.0
C552 C 0.85906 0.3832 0.35715 0.0
C553 C 0.87901 0.39319 0.33545 0.0
C554 C 0.89665 0.39638 0.39855 0.0
C555 C 0.91879 0.38253 0.3746 0.0
C556 C 0.9019 0.42232 0.42507 0.0
C557 C 0.88361 0.38615 0.45812 0.0
C558 C 0.86204 0.37849 0.43245 0.0
C559 C 0.84711 0.36743 0.47528 0.0
C560 C 0.85412 0.36465 0.54725 0.0
C561 C 0.87576 0.37313 0.57612 0.0
C562 C 0.89077 0.38389 0.53074 0.0
H563 H 0.34858 0.14048 0.3071 0.0
H564 H 0.41405 0.10546 0.32108 0.0
H565 H 0.42365 0.11115 0.19242 0.0
H566 H 0.33801 0.11521 0.10886 0.0
H567 H 0.32443 0.14125 0.08884 0.0
H568 H 0.32273 0.13422 0.1819 0.0
H569 H 0.33999 0.17459 0.23605 0.0
H570 H 0.34223 0.18153 0.14297 0.0
H571 H 0.36744 0.18286 0.20187 0.0
H572 H 0.42798 0.12433 0.06885 0.0
H573 H 0.42322 0.13578 0.94461 0.0
H574 H 0.35327 0.15842 1.00317 0.0
C575 C 0.36473 0.13366 0.28235 0.0
C576 C 0.38063 0.12258 0.32383 0.0
C577 C 0.40159 0.11387 0.28998 0.0
C578 C 0.40729 0.11722 0.21727 0.0
C579 C 0.39162 0.12889 0.17868 0.0
C580 C 0.37045 0.13631 0.20889 0.0
C581 C 0.35639 0.14747 0.15377 0.0
C582 C 0.33407 0.13371 0.13204 0.0
C583 C 0.35121 0.17313 0.1856 0.0
C584 C 0.37306 0.14528 0.08821 0.0
C585 C 0.39349 0.13505 0.10475 0.0
C586 C 0.41196 0.13206 0.05475 0.0
C587 C 0.40917 0.13886 0.98467 0.0
C588 C 0.3879 0.14799 0.96457 0.0
C589 C 0.36972 0.15153 0.0174 0.0
H590 H 0.66152 0.6267 0.05957 0.0
H591 H 0.60399 0.5791 0.05876 0.0
H592 H 0.59563 0.5822 0.9272 0.0
H593 H 0.63622 0.66412 0.94936 0.0
H594 H 0.66174 0.66825 0.8962 0.0
H595 H 0.66437 0.66156 0.98946 0.0
H596 H 0.68982 0.62579 0.93885 0.0
H597 H 0.68763 0.63262 0.8456 0.0
H598 H 0.67936 0.60421 0.86269 0.0
H599 H 0.59068 0.59363 0.80182 0.0
H600 H 0.59335 0.60739 0.68068 0.0
H601 H 0.65582 0.64536 0.75563 0.0
C602 C 0.64749 0.61657 0.03102 0.0
C603 C 0.63339 0.60264 0.06941 0.0
C604 C 0.6151 0.58976 0.03044 0.0
C605 C 0.61011 0.59152 0.95578 0.0
C606 C 0.62382 0.60594 0.92024 0.0
C607 C 0.64251 0.61779 0.95563 0.0
C608 C 0.65454 0.63188 0.90362 0.0
C609 C 0.65419 0.658 0.93666 0.0
C610 C 0.67931 0.6231 0.88668 0.0
C611 C 0.63934 0.6265 0.83429 0.0
C612 C 0.62159 0.61169 0.84575 0.0
C613 C 0.60468 0.60496 0.79172 0.0
C614 C 0.60625 0.61305 0.72328 0.0
C615 C 0.62478 0.62743 0.70873 0.0
C616 C 0.64147 0.63436 0.76527 0.0
H617 H 0.10714 0.90693 0.50038 0.0
H618 H 0.17667 0.88441 0.43469 0.0
H619 H 0.18332 0.87455 0.56004 0.0
H620 H 0.12242 0.93293 0.69495 0.0
H621 H 0.09583 0.92416 0.7336 0.0
H622 H 0.09653 0.93 0.63891 0.0
H623 H 0.07998 0.88893 0.5905 0.0
H624 H 0.0795 0.88287 0.68491 0.0
H625 H 0.09479 0.86374 0.6122 0.0
H626 H 0.182 0.86481 0.68854 0.0
H627 H 0.17441 0.85994 0.81911 0.0
H628 H 0.10639 0.8902 0.80765 0.0
C629 C 0.12383 0.90021 0.51292 0.0
C630 C 0.14139 0.89641 0.4576 0.0
C631 C 0.16298 0.88753 0.47604 0.0
C632 C 0.16691 0.88176 0.54709 0.0
C633 C 0.14917 0.88522 0.59983 0.0
C634 C 0.12819 0.89462 0.58442 0.0
C635 C 0.1123 0.89684 0.65237 0.0
C636 C 0.10643 0.92251 0.68169 0.0
C637 C 0.09034 0.88222 0.63386 0.0
C638 C 0.12752 0.88686 0.70759 0.0
C639 C 0.14866 0.88016 0.6756 0.0
C640 C 0.16559 0.87015 0.71444 0.0
C641 C 0.16106 0.86735 0.78855 0.0
C642 C 0.13983 0.87465 0.82362 0.0
C643 C 0.12275 0.88436 0.78221 0.0
H644 H 0.85776 0.65169 0.81626 0.0
H645 H 0.88785 0.58403 0.82429 0.0
H646 H 0.89607 0.57882 0.6886 0.0
H647 H 0.83074 0.63517 0.63178 0.0
H648 H 0.83636 0.66283 0.6038 0.0
H649 H 0.83239 0.66122 0.70165 0.0
H650 H 0.87194 0.68124 0.73218 0.0
H651 H 0.87615 0.6827 0.63432 0.0
H652 H 0.8974 0.66868 0.68403 0.0
H653 H 0.9029 0.58149 0.55555 0.0
H654 H 0.90472 0.59004 0.42719 0.0
H655 H 0.86902 0.65547 0.50028 0.0
C656 C 0.86584 0.6357 0.78907 0.0
C657 C 0.87218 0.61823 0.83059 0.0
C658 C 0.8828 0.59758 0.79344 0.0
C659 C 0.88762 0.59451 0.71647 0.0
C660 C 0.88156 0.61217 0.67732 0.0
C661 C 0.87063 0.63224 0.71177 0.0
C662 C 0.86585 0.64834 0.65576 0.0
C663 C 0.83979 0.6521 0.64778 0.0
C664 C 0.8786 0.67162 0.67792 0.0
C665 C 0.87594 0.63418 0.58469 0.0
C666 C 0.88505 0.61348 0.59903 0.0
C667 C 0.89569 0.59755 0.5434 0.0
C668 C 0.89671 0.60263 0.47068 0.0
C669 C 0.88699 0.62339 0.45376 0.0
C670 C 0.87661 0.63948 0.51172 0.0
H671 H 0.11344 0.12897 0.5381 0.0
H672 H 0.17014 0.08124 0.55003 0.0
H673 H 0.17979 0.08238 0.41721 0.0
H674 H 0.09635 0.10509 0.34609 0.0
H675 H 0.08905 0.13316 0.32386 0.0
H676 H 0.0864 0.12804 0.41898 0.0
H677 H 0.11295 0.16337 0.46441 0.0
H678 H 0.11591 0.16845 0.36936 0.0
H679 H 0.14122 0.16439 0.42352 0.0
H680 H 0.18436 0.09028 0.28611 0.0
H681 H 0.18184 0.10157 0.16122 0.0
H682 H 0.12128 0.1434 0.23221 0.0
C683 C 0.12774 0.11857 0.51242 0.0
C684 C 0.14106 0.10495 0.55395 0.0
C685 C 0.15966 0.09163 0.51882 0.0
C686 C 0.16531 0.09228 0.44366 0.0
C687 C 0.15205 0.10619 0.40456 0.0
C688 C 0.13347 0.11887 0.43735 0.0
C689 C 0.12197 0.13234 0.38277 0.0
C690 C 0.09696 0.12416 0.36699 0.0
C691 C 0.12309 0.1587 0.41177 0.0
C692 C 0.13712 0.12543 0.3142 0.0
C693 C 0.15444 0.11044 0.32833 0.0
C694 C 0.17083 0.1019 0.27432 0.0
C695 C 0.1693 0.10854 0.20364 0.0
C696 C 0.1514 0.12343 0.18716 0.0
C697 C 0.13518 0.13208 0.2434 0.0
H698 H 0.61035 0.36952 0.29257 0.0
H699 H 0.67824 0.39856 0.34969 0.0
H700 H 0.6814 0.40973 0.22492 0.0
H701 H 0.62363 0.3463 0.0958 0.0
H702 H 0.59565 0.3532 0.06211 0.0
H703 H 0.59872 0.34705 0.15593 0.0
H704 H 0.57971 0.38665 0.20905 0.0
H705 H 0.57687 0.39305 0.11543 0.0
H706 H 0.59188 0.41303 0.18644 0.0
H707 H 0.67723 0.41893 0.09591 0.0
H708 H 0.66714 0.42251 0.96564 0.0
H709 H 0.60221 0.38738 0.98785 0.0
C710 C 0.62596 0.37795 0.27826 0.0
C711 C 0.64408 0.3831 0.33108 0.0
C712 C 0.66414 0.39437 0.31038 0.0
C713 C 0.66609 0.40089 0.23959 0.0
C714 C 0.64785 0.39603 0.18936 0.0
C715 C 0.62825 0.3846 0.20713 0.0
C716 C 0.61134 0.38142 0.14182 0.0
C717 C 0.60709 0.35545 0.11216 0.0
C718 C 0.5886 0.39431 0.16457 0.0
C719 C 0.62454 0.39281 0.08498 0.0
C720 C 0.6455 0.40126 0.11404 0.0
C721 C 0.66086 0.41238 0.07249 0.0
C722 C 0.65493 0.41447 0.99864 0.0
C723 C 0.63384 0.40543 0.96671 0.0
C724 C 0.61835 0.3947 1.01099 0.0
H725 H 0.34405 0.88135 0.05288 0.0
H726 H 0.4174 0.89028 0.09559 0.0
H727 H 0.42286 0.90052 0.96987 0.0
H728 H 0.35115 0.85377 0.85729 0.0
H729 H 0.3255 0.86682 0.82642 0.0
H730 H 0.32728 0.86108 0.921 0.0
H731 H 0.31819 0.90443 0.97179 0.0
H732 H 0.31683 0.91039 0.87732 0.0
H733 H 0.33622 0.92673 0.94449 0.0
H734 H 0.42013 0.91214 0.84402 0.0
H735 H 0.41106 0.91634 0.71376 0.0
H736 H 0.34021 0.89618 0.74585 0.0
C737 C 0.36124 0.88529 0.03521 0.0
C738 C 0.38032 0.88515 0.08365 0.0
C739 C 0.40261 0.89019 0.05894 0.0
C740 C 0.40584 0.89625 0.98802 0.0
C741 C 0.38666 0.89673 0.94205 0.0
C742 C 0.3649 0.89074 0.96355 0.0
C743 C 0.34757 0.89109 0.90091 0.0
C744 C 0.33728 0.86674 0.87485 0.0
C745 C 0.32858 0.90924 0.92511 0.0
C746 C 0.36301 0.89831 0.84117 0.0
C747 C 0.38537 0.902 0.86697 0.0
C748 C 0.40275 0.90912 0.82284 0.0
C749 C 0.39738 0.91165 0.74917 0.0
C750 C 0.37496 0.90656 0.71999 0.0
C751 C 0.35746 0.90026 0.76705 0.0
H752 H 0.12818 0.70382 0.02364 0.0
H753 H 0.13886 0.69453 0.25394 0.0
H754 H 0.13534 0.73741 0.29555 0.0
H755 H 0.16141 0.75348 0.03062 0.0
H756 H 0.14292 0.76672 0.9698 0.0
H757 H 0.14394 0.73557 0.96098 0.0
H758 H 0.09965 0.73433 0.97999 0.0
H759 H 0.09843 0.76552 0.98827 0.0
H760 H 0.08681 0.75167 0.0619 0.0
H761 H 0.13399 0.78224 0.30763 0.0
H762 H 0.13367 0.82345 0.29076 0.0
H763 H 0.12376 0.80143 0.05097 0.0
C764 C 0.12945 0.71071 0.08314 0.0
C765 C 0.13379 0.696 0.13579 0.0
C766 C 0.13536 0.70561 0.21298 0.0
C767 C 0.13344 0.72989 0.23682 0.0
C768 C 0.12971 0.74399 0.18263 0.0
C769 C 0.12749 0.73457 0.10745 0.0
C770 C 0.12462 0.75307 0.05914 0.0
C771 C 0.1444 0.75215 1.0018 0.0
C772 C 0.10097 0.75102 0.02005 0.0
C773 C 0.12602 0.77463 0.11841 0.0
C774 C 0.12884 0.76921 0.18944 0.0
C775 C 0.13153 0.78658 0.25232 0.0
C776 C 0.13136 0.80995 0.24209 0.0
C777 C 0.12861 0.81573 0.16947 0.0
C778 C 0.12574 0.79771 0.1073 0.0
H779 H 0.55626 0.87902 0.50652 0.0
H780 H 0.56859 0.89455 0.28346 0.0
H781 H 0.52726 0.90179 0.26916 0.0
H782 H 0.50421 0.84758 0.45822 0.0
H783 H 0.48946 0.85777 0.54553 0.0
H784 H 0.52048 0.85619 0.54348 0.0
H785 H 0.52286 0.89981 0.60266 0.0
H786 H 0.49181 0.90153 0.60483 0.0
H787 H 0.50822 0.92105 0.55805 0.0
H788 H 0.48561 0.90479 0.27271 0.0
H789 H 0.44391 0.902 0.29177 0.0
H790 H 0.45572 0.88392 0.51186 0.0
C791 C 0.55015 0.88432 0.45542 0.0
C792 C 0.56558 0.8863 0.39602 0.0
C793 C 0.55704 0.89282 0.32935 0.0
C794 C 0.53361 0.89713 0.32087 0.0
C795 C 0.51875 0.8947 0.3794 0.0
C796 C 0.52646 0.88835 0.44535 0.0
C797 C 0.50613 0.8853 0.49632 0.0
C798 C 0.50501 0.86022 0.51178 0.0
C799 C 0.50733 0.90298 0.56984 0.0
C800 C 0.48595 0.89055 0.44783 0.0
C801 C 0.49392 0.89616 0.3811 0.0
C802 C 0.4791 0.90061 0.32491 0.0
C803 C 0.45542 0.89889 0.33622 0.0
C804 C 0.44658 0.89277 0.40321 0.0
C805 C 0.46203 0.88896 0.46061 0.0
H806 H 0.40386 0.30471 0.55665 0.0
H807 H 0.36585 0.32741 0.76339 0.0
H808 H 0.36516 0.2871 0.78743 0.0
H809 H 0.37487 0.25085 0.50162 0.0
H810 H 0.40034 0.23509 0.46525 0.0
H811 H 0.3984 0.2659 0.46568 0.0
H812 H 0.43656 0.27223 0.54115 0.0
H813 H 0.43855 0.24141 0.54126 0.0
H814 H 0.43906 0.26162 0.62877 0.0
H815 H 0.36638 0.24354 0.78485 0.0
H816 H 0.37037 0.20056 0.75596 0.0
H817 H 0.40934 0.20694 0.55556 0.0
C818 C 0.39544 0.30121 0.60703 0.0
C819 C 0.38488 0.31927 0.65794 0.0
C820 C 0.37417 0.31394 0.72354 0.0
C821 C 0.37366 0.29106 0.73781 0.0
C822 C 0.38421 0.27366 0.68653 0.0
C823 C 0.39505 0.27849 0.62274 0.0
C824 C 0.40491 0.25661 0.5763 0.0
C825 C 0.39397 0.25184 0.49757 0.0
C826 C 0.43134 0.25806 0.57162 0.0
C827 C 0.3975 0.23868 0.62303 0.0
C828 C 0.38558 0.2488 0.68647 0.0
C829 C 0.37596 0.23545 0.73583 0.0
C830 C 0.37831 0.2111 0.71916 0.0
C831 C 0.39029 0.20046 0.65402 0.0
C832 C 0.40033 0.21456 0.60639 0.0
H833 H 0.95996 0.13963 0.83468 0.0
H834 H 0.94993 0.09604 1.00268 0.0
H835 H 0.9917 0.09901 0.0337 0.0
H836 H 0.00918 0.11347 0.76205 0.0
H837 H 0.02298 0.13935 0.74161 0.0
H838 H 0.99211 0.13793 0.74557 0.0
H839 H 0.99148 0.17549 0.84602 0.0
H840 H 0.02252 0.17696 0.84248 0.0
H841 H 0.00814 0.17677 0.93083 0.0
H842 H 0.03574 0.10226 0.03226 0.0
H843 H 0.07671 0.10292 0.9916 0.0
H844 H 0.05712 0.14321 0.82195 0.0
C845 C 0.96651 0.13151 0.88 0.0
C846 C 0.9519 0.11811 0.91778 0.0
C847 C 0.96096 0.10681 0.97453 0.0
C848 C 0.98461 0.10846 0.99244 0.0
C849 C 0.99884 0.12145 0.95286 0.0
C850 C 0.99001 0.13282 0.89782 0.0
C851 C 0.009 0.14291 0.85597 0.0
C852 C 0.00827 0.1328 0.77136 0.0
C853 C 1.0077 0.16962 0.86968 0.0
C854 C 0.02998 0.13461 0.89346 0.0
C855 C 0.02395 0.12279 0.95064 0.0
C856 C 0.04064 0.11193 0.98871 0.0
C857 C 0.06387 0.1125 0.96582 0.0
C858 C 0.06992 0.12348 0.90475 0.0
C859 C 0.05288 0.13517 0.86999 0.0
H860 H 0.16229 0.30197 0.96508 0.0
H861 H 0.12508 0.31225 0.76525 0.0
H862 H 0.1174 0.26971 0.7354 0.0
H863 H 0.18793 0.24649 0.89305 0.0
H864 H 0.18406 0.23572 0.97989 0.0
H865 H 0.18778 0.26643 0.98119 0.0
H866 H 0.14943 0.27466 0.05491 0.0
H867 H 0.14549 0.24398 0.05337 0.0
H868 H 0.12333 0.26057 0.01671 0.0
H869 H 0.11492 0.22551 0.72764 0.0
H870 H 0.11526 0.18445 0.74676 0.0
H871 H 0.15087 0.20495 0.95865 0.0
C872 C 0.15278 0.29532 0.91436 0.0
C873 C 0.14455 0.31029 0.86665 0.0
C874 C 0.13171 0.30095 0.80195 0.0
C875 C 0.12727 0.27688 0.78477 0.0
C876 C 0.13548 0.26264 0.83374 0.0
C877 C 0.14777 0.27163 0.8976 0.0
C878 C 0.15363 0.25311 0.94368 0.0
C879 C 0.17991 0.25028 0.94977 0.0
C880 C 0.14229 0.2584 0.02177 0.0
C881 C 0.14285 0.2321 0.89572 0.0
C882 C 0.13272 0.23781 0.83198 0.0
C883 C 0.12259 0.22095 0.77772 0.0
C884 C 0.12288 0.19772 0.78899 0.0
C885 C 0.13281 0.19171 0.85465 0.0
C886 C 0.14276 0.20917 0.90872 0.0
H887 H 0.05601 0.92451 0.16086 0.0
H888 H 0.07119 0.85268 0.06714 0.0
H889 H 0.02982 0.84614 0.03419 0.0
H890 H 1.00712 0.9144 0.25127 0.0
H891 H 0.99181 0.94001 0.23548 0.0
H892 H 0.02276 0.93995 0.23664 0.0
H893 H 0.02361 0.951 0.10372 0.0
H894 H 0.99251 0.95123 0.1023 0.0
H895 H 0.00826 0.93331 0.02787 0.0
H896 H 0.98554 0.84637 0.03147 0.0
H897 H 0.94396 0.8532 0.0599 0.0
H898 H 0.95892 0.92491 0.15584 0.0
C899 C 0.05074 0.90757 0.13134 0.0
C900 C 0.06668 0.8891 0.11634 0.0
C901 C 0.05921 0.86711 0.07838 0.0
C902 C 0.03576 0.86328 0.05956 0.0
C903 C 0.02023 0.88174 0.07809 0.0
C904 C 0.0276 0.90356 0.11231 0.0
C905 C 1.00758 0.91993 0.13411 0.0
C906 C 1.00731 0.92908 0.21939 0.0
C907 C 1.00802 0.94005 0.0893 0.0
C908 C 0.98761 0.90371 0.11042 0.0
C909 C 0.99509 0.88186 0.07678 0.0
C910 C 0.97954 0.86355 0.05634 0.0
C911 C 0.95596 0.86757 0.07255 0.0
C912 C 0.94831 0.88961 0.10983 0.0
C913 C 0.96429 0.90795 0.12666 0.0
H914 H 0.39273 0.71478 0.48844 0.0
H915 H 0.38222 0.69249 0.24899 0.0
H916 H 0.38208 0.73342 0.23103 0.0
H917 H 0.35546 0.76262 0.50822 0.0
H918 H 0.37296 0.78099 0.57656 0.0
H919 H 0.37439 0.74989 0.5691 0.0
H920 H 0.41862 0.75114 0.54856 0.0
H921 H 0.41731 0.78231 0.55606 0.0
H922 H 0.42989 0.76482 0.47401 0.0
H923 H 0.38036 0.77784 0.24094 0.0
H924 H 0.37686 0.82082 0.28023 0.0
H925 H 0.38859 0.81274 0.5113 0.0
C926 C 0.39079 0.71843 0.43203 0.0
C927 C 0.38754 0.70032 0.37034 0.0
C928 C 0.38476 0.706 0.29749 0.0
C929 C 0.38471 0.72925 0.2865 0.0
C930 C 0.38757 0.74673 0.34875 0.0
C931 C 0.39066 0.74153 0.42004 0.0
C932 C 0.39211 0.76339 0.4783 0.0
C933 C 0.37256 0.76427 0.53643 0.0
C934 C 0.4159 0.76554 0.51646 0.0
C935 C 0.38889 0.78165 0.42906 0.0
C936 C 0.3865 0.7719 0.35431 0.0
C937 C 0.38244 0.78567 0.29935 0.0
C938 C 0.3805 0.81001 0.32188 0.0
C939 C 0.38244 0.82005 0.39858 0.0
C940 C 0.38703 0.8056 0.45207 0.0
H941 H 0.56286 0.12859 0.54033 0.0
H942 H 0.57407 0.1147 0.76617 0.0
H943 H 0.53244 0.11098 0.78315 0.0
H944 H 0.51303 0.16371 0.58499 0.0
H945 H 0.49765 0.1532 0.49917 0.0
H946 H 0.52871 0.15275 0.50005 0.0
H947 H 0.52832 0.10854 0.44778 0.0
H948 H 0.49722 0.10887 0.44669 0.0
H949 H 0.51231 0.08927 0.49672 0.0
H950 H 0.49063 0.11189 0.78265 0.0
H951 H 0.44915 0.11706 0.7636 0.0
H952 H 0.46243 0.12977 0.53771 0.0
C953 C 0.55646 0.1244 0.5927 0.0
C954 C 0.57177 0.12204 0.65204 0.0
C955 C 0.56276 0.11685 0.72016 0.0
C956 C 0.53909 0.11454 0.73033 0.0
C957 C 0.52444 0.11741 0.67188 0.0
C958 C 0.53257 0.12217 0.60424 0.0
C959 C 0.51252 0.1257 0.55292 0.0
C960 C 0.51301 0.1503 0.53314 0.0
C961 C 0.5126 0.10698 0.4818 0.0
C962 C 0.49206 0.12264 0.60324 0.0
C963 C 0.49958 0.11772 0.67133 0.0
C964 C 0.48444 0.11545 0.7293 0.0
C965 C 0.46091 0.11852 0.71803 0.0
C966 C 0.4526 0.1237 0.64918 0.0
C967 C 0.46834 0.12543 0.59041 0.0
H968 H 0.90023 0.20787 0.97665 0.0
H969 H 0.88948 0.18431 0.73801 0.0
H970 H 0.88836 0.22521 0.71837 0.0
H971 H 0.86158 0.2536 0.9959 0.0
H972 H 0.87847 0.27276 0.06394 0.0
H973 H 0.88129 0.24179 0.05669 0.0
H974 H 0.92536 0.24495 0.03541 0.0
H975 H 0.92266 0.27603 0.04277 0.0
H976 H 0.93573 0.25906 0.96063 0.0
H977 H 0.88507 0.26986 0.72804 0.0
H978 H 0.87915 0.31257 0.76813 0.0
H979 H 0.8918 0.30481 0.99887 0.0
C980 C 0.89809 0.21119 0.91993 0.0
C981 C 0.89503 0.19283 0.85899 0.0
C982 C 0.89198 0.19808 0.78577 0.0
C983 C 0.89136 0.22128 0.77395 0.0
C984 C 0.89397 0.23902 0.83578 0.0
C985 C 0.89739 0.23411 0.90724 0.0
C986 C 0.89806 0.25597 0.96544 0.0
C987 C 0.8787 0.25602 0.02387 0.0
C988 C 0.92187 0.25919 1.00326 0.0
C989 C 0.89386 0.27395 0.91615 0.0
C990 C 0.89183 0.26412 0.84129 0.0
C991 C 0.88687 0.27772 0.78652 0.0
C992 C 0.88355 0.30189 0.80948 0.0
C993 C 0.88491 0.31183 0.88642 0.0
C994 C 0.89056 0.29767 0.93955 0.0
H995 H 0.6212 0.80536 0.4956 0.0
H996 H 0.63957 0.81307 0.2687 0.0
H997 H 0.63868 0.76992 0.2305 0.0
H998 H 0.65596 0.75799 0.50689 0.0
H999 H 0.636 0.74422 0.56191 0.0
H1000 H 0.6355 0.7753 0.56778 0.0
H1001 H 0.5922 0.7737 0.53153 0.0
H1002 H 0.59245 0.74259 0.52644 0.0
H1003 H 0.58297 0.75494 0.44684 0.0
H1004 H 0.63916 0.72533 0.22281 0.0
H1005 H 0.63947 0.68455 0.24345 0.0
H1006 H 0.62097 0.70773 0.47722 0.0
C1007 C 0.62465 0.79806 0.43737 0.0
C1008 C 0.63043 0.81243 0.38487 0.0
C1009 C 0.63489 0.80226 0.30943 0.0
C1010 C 0.6345 0.77783 0.28758 0.0
C1011 C 0.62938 0.7641 0.34186 0.0
C1012 C 0.62427 0.77402 0.41503 0.0
C1013 C 0.62044 0.75588 0.46426 0.0
C1014 C 0.63803 0.75851 0.52898 0.0
C1015 C 0.59553 0.75684 0.49399 0.0
C1016 C 0.6247 0.734 0.40807 0.0
C1017 C 0.62969 0.73896 0.3376 0.0
C1018 C 0.63504 0.72134 0.27761 0.0
C1019 C 0.63524 0.6982 0.29006 0.0
C1020 C 0.63024 0.69284 0.36212 0.0
C1021 C 0.62481 0.71111 0.42145 0.0
H1022 H 0.84284 0.70735 0.12471 0.0
H1023 H 0.90607 0.69285 0.23619 0.0
H1024 H 0.91606 0.73479 0.25527 0.0
H1025 H 0.86623 0.74549 0.02085 0.0
H1026 H 0.84179 0.76484 0.02713 0.0
H1027 H 0.83763 0.73474 0.03402 0.0
H1028 H 0.81733 0.74658 0.16275 0.0
H1029 H 0.82103 0.7768 0.15571 0.0
H1030 H 0.8317 0.76601 0.23681 0.0
H1031 H 0.9203 0.77805 0.2528 0.0
H1032 H 0.91857 0.8186 0.2283 0.0
H1033 H 0.85415 0.80327 0.10899 0.0
C1034 C 0.85852 0.71304 0.15489 0.0
C1035 C 0.87366 0.69692 0.17934 0.0
C1036 C 0.89415 0.705 0.2177 0.0
C1037 C 0.89996 0.72875 0.22855 0.0
C1038 C 0.88505 0.74406 0.20079 0.0
C1039 C 0.86466 0.7365 0.16521 0.0
C1040 C 0.85249 0.75588 0.13488 0.0
C1041 C 0.84937 0.74987 0.04915 0.0
C1042 C 0.82926 0.76166 0.17493 0.0
C1043 C 0.86963 0.77539 0.15628 0.0
C1044 C 0.88804 0.76844 0.19585 0.0
C1045 C 0.90595 0.78364 0.222 0.0
C1046 C 0.90491 0.80651 0.20764 0.0
C1047 C 0.88643 0.81365 0.16591 0.0
C1048 C 0.86862 0.79794 0.13993 0.0
H1049 H 0.62044 0.2027 0.55419 0.0
H1050 H 0.65102 0.19592 0.76812 0.0
H1051 H 0.65109 0.23913 0.80436 0.0
H1052 H 0.65339 0.24865 0.52064 0.0
H1053 H 0.63085 0.26278 0.47659 0.0
H1054 H 0.63002 0.23181 0.47308 0.0
H1055 H 0.58931 0.235 0.53333 0.0
H1056 H 0.58979 0.266 0.53581 0.0
H1057 H 0.58465 0.25455 0.62081 0.0
H1058 H 0.6514 0.28343 0.8091 0.0
H1059 H 0.65039 0.32392 0.78626 0.0
H1060 H 0.62043 0.3003 0.56627 0.0
C1061 C 0.62667 0.21023 0.60957 0.0
C1062 C 0.63565 0.19607 0.6587 0.0
C1063 C 0.64378 0.20653 0.73028 0.0
C1064 C 0.64399 0.231 0.75088 0.0
C1065 C 0.63581 0.24449 0.69936 0.0
C1066 C 0.62702 0.23433 0.63053 0.0
C1067 C 0.62064 0.25223 0.58262 0.0
C1068 C 0.63456 0.24864 0.50892 0.0
C1069 C 0.59455 0.25192 0.56727 0.0
C1070 C 0.62777 0.27425 0.63415 0.0
C1071 C 0.63627 0.26954 0.70154 0.0
C1072 C 0.64454 0.28723 0.75686 0.0
C1073 C 0.64395 0.3102 0.74312 0.0
C1074 C 0.63533 0.31535 0.67426 0.0
C1075 C 0.62715 0.29702 0.61936 0.0
H1076 H 0.95946 0.39983 0.98911 0.0
H1077 H 0.94573 0.33225 0.85419 0.0
H1078 H 0.9871 0.32283 0.85346 0.0
H1079 H 0.00917 0.41102 0.89381 0.0
H1080 H 0.02504 0.42534 0.97443 0.0
H1081 H 0.99401 0.42572 0.97559 0.0
H1082 H 0.99396 0.40775 0.09696 0.0
H1083 H 0.02506 0.40741 0.09638 0.0
H1084 H 0.00926 0.38094 0.09862 0.0
H1085 H 0.02932 0.32245 0.85096 0.0
H1086 H 0.07095 0.33085 0.84951 0.0
H1087 H 0.05921 0.39833 0.98772 0.0
C1088 C 0.96521 0.38283 0.96157 0.0
C1089 C 0.94945 0.36667 0.92209 0.0
C1090 C 0.95756 0.34483 0.88469 0.0
C1091 C 0.98101 0.33928 0.88427 0.0
C1092 C 0.99625 0.35575 0.92154 0.0
C1093 C 0.98881 0.37704 0.95995 0.0
C1094 C 0.00927 0.39228 0.98911 0.0
C1095 C 0.00937 0.41492 0.95625 0.0
C1096 C 0.00939 0.39739 0.07541 0.0
C1097 C 0.02923 0.37648 0.9588 0.0
C1098 C 0.02118 0.35542 0.92068 0.0
C1099 C 0.03591 0.33865 0.88196 0.0
C1100 C 0.05949 0.3436 0.88119 0.0
C1101 C 0.06821 0.36504 0.91934 0.0
C1102 C 0.05296 0.38155 0.95985 0.0
H1103 H 0.45778 0.64255 0.29193 0.0
H1104 H 0.44109 0.61903 0.49985 0.0
H1105 H 0.48256 0.62226 0.53671 0.0
H1106 H 0.50689 0.61179 0.25155 0.0
H1107 H 0.52213 0.63385 0.21251 0.0
H1108 H 0.4912 0.63319 0.21068 0.0
H1109 H 0.48992 0.6759 0.28084 0.0
H1110 H 0.521 0.67668 0.28293 0.0
H1111 H 0.50483 0.68373 0.36908 0.0
H1112 H 0.52767 0.62223 0.53821 0.0
H1113 H 0.56937 0.61926 0.50442 0.0
H1114 H 0.5543 0.64449 0.29822 0.0
C1115 C 0.46276 0.63865 0.34619 0.0
C1116 C 0.44643 0.63057 0.39317 0.0
C1117 C 0.45346 0.6255 0.46353 0.0
C1118 C 0.47695 0.62728 0.48469 0.0
C1119 C 0.49288 0.63472 0.43555 0.0
C1120 C 0.4858 0.64072 0.36828 0.0
C1121 C 0.50592 0.64648 0.32185 0.0
C1122 C 0.50657 0.63036 0.24468 0.0
C1123 C 0.50538 0.67223 0.31321 0.0
C1124 C 0.52568 0.64165 0.3712 0.0
C1125 C 0.5181 0.63522 0.43728 0.0
C1126 C 0.5337 0.62781 0.48751 0.0
C1127 C 0.55737 0.62631 0.46832 0.0
C1128 C 0.56495 0.63197 0.39927 0.0
C1129 C 0.54896 0.64041 0.35194 0.0
H1130 H 0.45761 0.36429 0.70085 0.0
H1131 H 0.44648 0.40398 0.52287 0.0
H1132 H 0.48792 0.39923 0.4874 0.0
H1133 H 0.50791 0.38806 0.76334 0.0
H1134 H 0.52122 0.36203 0.78452 0.0
H1135 H 0.49038 0.36451 0.78465 0.0
H1136 H 0.4873 0.32643 0.68719 0.0
H1137 H 0.51827 0.32365 0.68732 0.0
H1138 H 0.50314 0.32366 0.60023 0.0
H1139 H 0.53228 0.39654 0.49023 0.0
H1140 H 0.57346 0.39441 0.52619 0.0
H1141 H 0.55413 0.35473 0.69824 0.0
C1142 C 0.46376 0.37114 0.65241 0.0
C1143 C 0.44903 0.3842 0.61381 0.0
C1144 C 0.45754 0.39347 0.5519 0.0
C1145 C 0.48105 0.39092 0.53177 0.0
C1146 C 0.49547 0.37862 0.57318 0.0
C1147 C 0.48688 0.36841 0.63117 0.0
C1148 C 0.50588 0.35795 0.67195 0.0
C1149 C 0.50637 0.3688 0.75601 0.0
C1150 C 0.5035 0.33134 0.66098 0.0
C1151 C 0.52674 0.36495 0.63099 0.0
C1152 C 0.52056 0.37662 0.57351 0.0
C1153 C 0.53722 0.38689 0.53376 0.0
C1154 C 0.56058 0.38561 0.55448 0.0
C1155 C 0.56696 0.37429 0.61468 0.0
C1156 C 0.54982 0.36324 0.65132 0.0
H1157 H 0.05917 0.64086 0.21434 0.0
H1158 H 0.07184 0.62021 0.97521 0.0
H1159 H 0.02993 0.62021 0.95159 0.0
H1160 H 0.00914 0.60567 0.22163 0.0
H1161 H 0.99435 0.62675 0.29002 0.0
H1162 H 0.02539 0.62607 0.28795 0.0
H1163 H 0.0262 0.66954 0.27426 0.0
H1164 H 0.99513 0.67035 0.2762 0.0
H1165 H 0.01052 0.67887 0.1986 0.0
H1166 H 0.98658 0.62162 0.95396 0.0
H1167 H 0.94496 0.62343 0.98226 0.0
H1168 H 0.9603 0.64284 0.22007 0.0
C1169 C 0.05318 0.63649 0.15689 0.0
C1170 C 0.0689 0.63059 0.09661 0.0
C1171 C 0.06023 0.62479 0.02241 0.0
C1172 C 0.03642 0.62479 1.00835 0.0
C1173 C 0.02143 0.6306 0.06903 0.0
C1174 C 0.02945 0.6363 0.14185 0.0
C1175 C 0.00964 0.64122 0.19721 0.0
C1176 C 0.00964 0.62389 0.25244 0.0
C1177 C 0.01043 0.6665 0.23902 0.0
C1178 C 0.98922 0.63725 0.14416 0.0
C1179 C 0.99642 0.63125 0.07046 0.0
C1180 C 0.98075 0.62638 1.01146 0.0
C1181 C 0.95709 0.62747 0.02819 0.0
C1182 C 0.94924 0.63333 0.10342 0.0
C1183 C 0.96565 0.63843 0.16194 0.0
H1184 H 0.10546 0.55205 0.09285 0.0
H1185 H 0.17849 0.56673 0.07869 0.0
H1186 H 0.18559 0.5258 0.02032 0.0
H1187 H 0.10972 0.49453 0.13259 0.0
H1188 H 0.08595 0.48304 0.07336 0.0
H1189 H 0.08649 0.51341 0.11483 0.0
H1190 H 0.08254 0.52477 0.98299 0.0
H1191 H 0.08182 0.49442 0.94114 0.0
H1192 H 0.10289 0.51345 0.91037 0.0
H1193 H 0.18518 0.48289 0.97456 0.0
H1194 H 0.17672 0.44158 0.92529 0.0
H1195 H 0.10348 0.45532 0.95488 0.0
C1196 C 0.1229 0.54656 0.07708 0.0
C1197 C 0.1415 0.5623 0.09068 0.0
C1198 C 0.16406 0.55481 0.06858 0.0
C1199 C 0.16825 0.53163 0.03577 0.0
C1200 C 0.1496 0.5164 0.02382 0.0
C1201 C 0.12729 0.52362 0.04212 0.0
C1202 C 0.11026 0.5039 0.02016 0.0
C1203 C 0.09735 0.4984 0.08937 0.0
C1204 C 0.09338 0.50947 0.96008 0.0
C1205 C 0.12655 0.48436 0.98818 0.0
C1206 C 0.14919 0.49192 0.99195 0.0
C1207 C 0.16751 0.47683 0.97008 0.0
C1208 C 0.16255 0.45342 0.94259 0.0
C1209 C 0.13947 0.4455 0.93576 0.0
C1210 C 0.12124 0.46114 0.9587 0.0
H1211 H 0.71154 0.85244 0.25763 0.0
H1212 H 0.7177 0.90955 0.445 0.0
H1213 H 0.75853 0.91482 0.41102 0.0
H1214 H 0.7703 0.8291 0.2746 0.0
H1215 H 0.77354 0.82095 0.17431 0.0
H1216 H 0.74537 0.82096 0.21645 0.0
H1217 H 0.73052 0.84861 0.1291 0.0
H1218 H 0.75867 0.84888 0.08724 0.0
H1219 H 0.74509 0.87587 0.12852 0.0
H1220 H 0.79674 0.91732 0.3447 0.0
H1221 H 0.83127 0.91319 0.26353 0.0
H1222 H 0.80192 0.85153 0.12841 0.0
C1223 C 0.72162 0.86579 0.29232 0.0
C1224 C 0.7115 0.88062 0.35398 0.0
C1225 C 0.72519 0.89788 0.39802 0.0
C1226 C 0.74834 0.90107 0.37882 0.0
C1227 C 0.75763 0.88651 0.31647 0.0
C1228 C 0.74485 0.86884 0.27498 0.0
C1229 C 0.75883 0.85565 0.21035 0.0
C1230 C 0.76221 0.83015 0.21951 0.0
C1231 C 0.74761 0.85737 0.13433 0.0
C1232 C 0.78134 0.86901 0.22074 0.0
C1233 C 0.78021 0.88689 0.28181 0.0
C1234 C 0.79811 0.90287 0.2985 0.0
C1235 C 0.81779 0.90026 0.25249 0.0
C1236 C 0.81979 0.88142 0.19189 0.0
C1237 C 0.80119 0.86571 0.17569 0.0
H1238 H 0.39947 0.4808 0.64993 0.0
H1239 H 0.35093 0.43971 0.50001 0.0
H1240 H 0.34504 0.47246 0.43249 0.0
H1241 H 0.36842 0.53766 0.65659 0.0
H1242 H 0.39504 0.55371 0.65896 0.0
H1243 H 0.39369 0.52763 0.69953 0.0
H1244 H 0.42816 0.51097 0.61534 0.0
H1245 H 0.42897 0.53677 0.57322 0.0
H1246 H 0.42589 0.5086 0.5148 0.0
H1247 H 0.34722 0.50782 0.37272 0.0
H1248 H 0.35355 0.54606 0.33465 0.0
H1249 H 0.39946 0.56543 0.52497 0.0
C1250 C 0.38708 0.47909 0.60453 0.0
C1251 C 0.37555 0.45779 0.58016 0.0
C1252 C 0.3599 0.45592 0.51931 0.0
C1253 C 0.35646 0.4744 0.48053 0.0
C1254 C 0.36863 0.49489 0.50368 0.0
C1255 C 0.38326 0.49763 0.56518 0.0
C1256 C 0.39458 0.52145 0.57651 0.0
C1257 C 0.3875 0.53597 0.65239 0.0
C1258 C 0.42096 0.5193 0.56953 0.0
C1259 C 0.38431 0.53132 0.51123 0.0
C1260 C 0.3695 0.51563 0.46974 0.0
C1261 C 0.35857 0.52042 0.40529 0.0
C1262 C 0.36242 0.5421 0.38366 0.0
C1263 C 0.37694 0.5588 0.42666 0.0
C1264 C 0.38815 0.55312 0.49091 0.0
H1265 H 0.80717 0.15824 0.90276 0.0
H1266 H 0.83577 0.09612 0.76753 0.0
H1267 H 0.8023 0.09389 0.68201 0.0
H1268 H 0.74976 0.13655 0.8942 0.0
H1269 H 0.73654 0.1645 0.89371 0.0
H1270 H 0.76413 0.16281 0.93799 0.0
H1271 H 0.7814 0.19045 0.85445 0.0
H1272 H 0.75388 0.19196 0.80921 0.0
H1273 H 0.77916 0.18291 0.75369 0.0
H1274 H 0.7651 0.0981 0.61216 0.0
H1275 H 0.72462 0.10428 0.57668 0.0
H1276 H 0.71873 0.16128 0.76455 0.0
C1277 C 0.80651 0.14435 0.85459 0.0
C1278 C 0.8245 0.12785 0.84007 0.0
C1279 C 0.82261 0.10945 0.77808 0.0
C1280 C 0.80362 0.10802 0.72926 0.0
C1281 C 0.78633 0.12478 0.74434 0.0
C1282 C 0.78736 0.1423 0.80649 0.0
C1283 C 0.76537 0.15656 0.81485 0.0
C1284 C 0.75324 0.155 0.88959 0.0
C1285 C 0.77025 0.18198 0.8076 0.0
C1286 C 0.75173 0.14421 0.7482 0.0
C1287 C 0.76431 0.12628 0.70712 0.0
C1288 C 0.75511 0.11214 0.64384 0.0
C1289 C 0.73217 0.11589 0.62368 0.0
C1290 C 0.71859 0.1333 0.66763 0.0
C1291 C 0.72875 0.14792 0.7296 0.0
H1292 H 0.91427 0.55253 0.08911 0.0
H1293 H 0.84097 0.56679 0.08074 0.0
H1294 H 0.83397 0.52607 0.02056 0.0
H1295 H 0.91631 0.51461 0.90538 0.0
H1296 H 0.93764 0.49547 0.93423 0.0
H1297 H 0.93691 0.52571 0.97736 0.0
H1298 H 0.93361 0.51376 0.10854 0.0
H1299 H 0.93418 0.4835 0.06582 0.0
H1300 H 0.91059 0.49468 0.12651 0.0
H1301 H 0.83451 0.48342 0.97242 0.0
H1302 H 0.84298 0.44225 0.92127 0.0
H1303 H 0.91627 0.45609 0.94728 0.0
C1304 C 0.8968 0.54701 0.07418 0.0
C1305 C 0.8781 0.56259 0.08995 0.0
C1306 C 0.85548 0.55502 0.06902 0.0
C1307 C 0.85134 0.53195 0.03514 0.0
C1308 C 0.87008 0.51688 0.02112 0.0
C1309 C 0.89242 0.52415 0.03841 0.0
C1310 C 0.90949 0.50454 0.01479 0.0
C1311 C 0.92606 0.51044 0.95433 0.0
C1312 C 0.92274 0.49879 0.08299 0.0
C1313 C 0.89319 0.48502 0.98283 0.0
C1314 C 0.87052 0.4925 0.98816 0.0
C1315 C 0.85219 0.47742 0.96674 0.0
C1316 C 0.85715 0.4541 0.9382 0.0
C1317 C 0.88024 0.44624 0.92992 0.0
C1318 C 0.8985 0.46187 0.95225 0.0
H1319 H 0.21536 0.15811 0.88115 0.0
H1320 H 0.18687 0.09835 0.73404 0.0
H1321 H 0.22136 0.09674 0.65256 0.0
H1322 H 0.2452 0.18471 0.73789 0.0
H1323 H 0.26968 0.1931 0.79789 0.0
H1324 H 0.24147 0.19128 0.83837 0.0
H1325 H 0.25725 0.16268 0.92113 0.0
H1326 H 0.28547 0.16448 0.88117 0.0
H1327 H 0.27181 0.13654 0.87708 0.0
H1328 H 0.26077 0.10025 0.59204 0.0
H1329 H 0.30193 0.1066 0.56443 0.0
H1330 H 0.3047 0.16296 0.75528 0.0
C1331 C 0.21618 0.14493 0.83104 0.0
C1332 C 0.19818 0.12865 0.81288 0.0
C1333 C 0.20016 0.11135 0.74784 0.0
C1334 C 0.21975 0.11027 0.70142 0.0
C1335 C 0.23732 0.12652 0.72123 0.0
C1336 C 0.23572 0.14344 0.78489 0.0
C1337 C 0.2577 0.15753 0.79795 0.0
C1338 C 0.25323 0.18317 0.79268 0.0
C1339 C 0.2687 0.15515 0.87379 0.0
C1340 C 0.27213 0.14567 0.73258 0.0
C1341 C 0.26004 0.12807 0.6881 0.0
C1342 C 0.27031 0.11413 0.62619 0.0
C1343 C 0.29367 0.11793 0.61065 0.0
C1344 C 0.30655 0.13529 0.6575 0.0
C1345 C 0.29536 0.14958 0.71812 0.0
H1346 H 0.65126 0.55734 0.52778 0.0
H1347 H 0.60266 0.54003 0.34436 0.0
H1348 H 0.59242 0.50379 0.39095 0.0
H1349 H 0.67138 0.49797 0.52467 0.0
H1350 H 0.67493 0.50216 0.6252 0.0
H1351 H 0.67806 0.52643 0.57659 0.0
H1352 H 0.64705 0.54887 0.6639 0.0
H1353 H 0.64333 0.52436 0.71128 0.0
H1354 H 0.61887 0.5362 0.66916 0.0
H1355 H 0.58596 0.47095 0.46153 0.0
H1356 H 0.58967 0.43884 0.53322 0.0
H1357 H 0.64414 0.47604 0.66755 0.0
C1358 C 0.63871 0.54571 0.49677 0.0
C1359 C 0.62773 0.55138 0.43231 0.0
C1360 C 0.61146 0.53581 0.39315 0.0
C1361 C 0.60532 0.5154 0.41992 0.0
C1362 C 0.61587 0.51076 0.48525 0.0
C1363 C 0.63271 0.52511 0.52192 0.0
C1364 C 0.64229 0.5155 0.58858 0.0
C1365 C 0.6682 0.51019 0.5781 0.0
C1366 C 0.6376 0.53223 0.6626 0.0
C1367 C 0.62822 0.49337 0.58377 0.0
C1368 C 0.61272 0.49135 0.52468 0.0
C1369 C 0.59802 0.47235 0.50776 0.0
C1370 C 0.60007 0.45433 0.54939 0.0
C1371 C 0.61685 0.45521 0.60678 0.0
C1372 C 0.63067 0.47529 0.6257 0.0
H1373 H 0.30128 0.85586 0.27166 0.0
H1374 H 0.29383 0.91238 0.46044 0.0
H1375 H 0.25375 0.91863 0.42121 0.0
H1376 H 0.27121 0.88124 0.14028 0.0
H1377 H 0.25744 0.85491 0.09433 0.0
H1378 H 0.2847 0.85343 0.14085 0.0
H1379 H 0.26724 0.82543 0.22272 0.0
H1380 H 0.23999 0.8265 0.17555 0.0
H1381 H 0.24147 0.83381 0.2765 0.0
H1382 H 0.2164 0.92217 0.35007 0.0
H1383 H 0.18285 0.91888 0.26427 0.0
H1384 H 0.21362 0.85808 0.12821 0.0
C1385 C 0.29106 0.86921 0.3058 0.0
C1386 C 0.30068 0.8836 0.3693 0.0
C1387 C 0.28676 0.90096 0.41217 0.0
C1388 C 0.26402 0.90475 0.38994 0.0
C1389 C 0.25534 0.89077 0.32549 0.0
C1390 C 0.26827 0.87298 0.2851 0.0
C1391 C 0.25514 0.86066 0.21719 0.0
C1392 C 0.26788 0.86269 0.14386 0.0
C1393 C 0.25069 0.83509 0.2234 0.0
C1394 C 0.23297 0.8746 0.22463 0.0
C1395 C 0.23346 0.89203 0.28707 0.0
C1396 C 0.21559 0.90818 0.30229 0.0
C1397 C 0.19657 0.90615 0.25335 0.0
C1398 C 0.19528 0.88779 0.19104 0.0
C1399 C 0.21388 0.872 0.17635 0.0
H1400 H 0.61736 0.94875 0.50913 0.0
H1401 H 0.66139 0.95092 0.31676 0.0
H1402 H 0.66863 0.99288 0.36139 0.0
H1403 H 0.5911 1.00456 0.51133 0.0
H1404 H 0.58975 0.01191 0.61229 0.0
H1405 H 0.58887 0.98187 0.56722 0.0
H1406 H 0.62398 0.97276 0.64593 0.0
H1407 H 0.62488 1.00274 0.6916 0.0
H1408 H 0.65014 0.98937 0.64444 0.0
H1409 H 0.67077 0.03438 0.42605 0.0
H1410 H 0.66771 0.07303 0.50662 0.0
H1411 H 0.62103 0.0445 0.65506 0.0
C1412 C 0.62869 0.95814 0.47717 0.0
C1413 C 0.63905 0.94687 0.41012 0.0
C1414 C 0.6535 0.95947 0.3686 0.0
C1415 C 0.65765 0.98322 0.39344 0.0
C1416 C 0.64703 0.99402 0.45954 0.0
C1417 C 0.63283 0.98194 0.50088 0.0
C1418 C 0.62309 0.9979 0.56883 0.0
C1419 C 0.59663 0.99913 0.56462 0.0
C1420 C 0.631 0.99024 0.64203 0.0
C1421 C 0.63406 0.02079 0.55927 0.0
C1422 C 0.64786 0.01812 0.49597 0.0
C1423 C 0.65999 0.0367 0.47568 0.0
C1424 C 0.6581 0.05858 0.52162 0.0
C1425 C 0.64404 0.06172 0.58663 0.0
C1426 C 0.6318 0.04259 0.60538 0.0
H1427 H 0.21087 0.35888 0.74 0.0
H1428 H 0.22175 0.40606 0.95044 0.0
H1429 H 0.26265 0.4105 0.91583 0.0
H1430 H 0.26712 0.33033 0.73451 0.0
H1431 H 0.26949 0.32757 0.63391 0.0
H1432 H 0.2415 0.32746 0.6772 0.0
H1433 H 0.22873 0.36172 0.61252 0.0
H1434 H 0.25668 0.36201 0.56931 0.0
H1435 H 0.24554 0.38811 0.62616 0.0
H1436 H 0.30155 0.41231 0.85222 0.0
H1437 H 0.33577 0.40925 0.76917 0.0
H1438 H 0.29982 0.35908 0.60427 0.0
C1439 C 0.22188 0.37002 0.7792 0.0
C1440 C 0.21311 0.38219 0.8479 0.0
C1441 C 0.22812 0.39648 0.8977 0.0
C1442 C 0.25135 0.39915 0.8784 0.0
C1443 C 0.25934 0.38713 0.80964 0.0
C1444 C 0.24509 0.37261 0.7613 0.0
C1445 C 0.25774 0.36182 0.69043 0.0
C1446 C 0.25904 0.33522 0.68365 0.0
C1447 C 0.2465 0.36884 0.6205 0.0
C1448 C 0.28126 0.37288 0.7056 0.0
C1449 C 0.28185 0.38748 0.77454 0.0
C1450 C 0.30137 0.40062 0.79876 0.0
C1451 C 0.32072 0.39877 0.7513 0.0
C1452 C 0.32052 0.38367 0.68099 0.0
C1453 C 0.30057 0.37048 0.65829 0.0
H1454 H 0.90406 0.94935 1.0086 0.0
H1455 H 0.85514 0.96717 0.19127 0.0
H1456 H 0.84658 1.00421 0.14762 0.0
H1457 H 0.92639 0.008 0.01705 0.0
H1458 H 0.93023 1.00464 0.91677 0.0
H1459 H 0.93219 0.97967 0.96267 0.0
H1460 H 0.90071 0.95912 0.87329 0.0
H1461 H 0.89824 0.98428 0.82836 0.0
H1462 H 0.8731 0.97301 0.86858 0.0
H1463 H 0.84199 0.03794 0.08137 0.0
H1464 H 0.84688 0.07047 1.01227 0.0
H1465 H 0.9002 0.03216 0.87482 0.0
C1466 C 0.89171 0.96119 0.03986 0.0
C1467 C 0.88019 0.95544 0.10333 0.0
C1468 C 0.86429 0.97137 0.14306 0.0
C1469 C 0.85913 0.99227 0.11807 0.0
C1470 C 0.87025 0.99704 0.05389 0.0
C1471 C 0.88664 0.98227 0.01639 0.0
C1472 C 0.89693 0.99214 0.95119 0.0
C1473 C 0.92297 0.99637 0.96263 0.0
C1474 C 0.89194 0.97618 0.87591 0.0
C1475 C 0.88373 0.01485 0.9578 0.0
C1476 C 0.86813 0.017 0.01669 0.0
C1477 C 0.85414 0.03648 0.03532 0.0
C1478 C 0.85692 0.05476 0.99533 0.0
C1479 C 0.87368 0.05363 0.93772 0.0
C1480 C 0.88686 0.03317 0.91721 0.0
H1481 H 0.22594 0.60776 0.15059 0.0
H1482 H 0.20451 0.67929 0.22236 0.0
H1483 H 0.24305 0.68901 0.27661 0.0
H1484 H 0.25519 0.603 0.31331 0.0
H1485 H 0.27855 0.58501 0.27066 0.0
H1486 H 0.2511 0.58425 0.22396 0.0
H1487 H 0.27088 0.59458 0.10548 0.0
H1488 H 0.29849 0.59523 0.15171 0.0
H1489 H 0.28877 0.62017 0.11384 0.0
H1490 H 0.28094 0.69012 0.33768 0.0
H1491 H 0.31661 0.68267 0.4034 0.0
H1492 H 0.31482 0.61021 0.29604 0.0
C1493 C 0.22981 0.62561 0.17515 0.0
C1494 C 0.21256 0.64298 0.18101 0.0
C1495 C 0.2177 0.66593 0.21643 0.0
C1496 C 0.23952 0.67159 0.24725 0.0
C1497 C 0.25602 0.65404 0.24271 0.0
C1498 C 0.25158 0.6315 0.20736 0.0
C1499 C 0.27157 0.61551 0.21833 0.0
C1500 C 0.26362 0.59579 0.25899 0.0
C1501 C 0.28311 0.6058 0.14284 0.0
C1502 C 0.28744 0.63242 0.26763 0.0
C1503 C 0.27819 0.6546 0.27976 0.0
C1504 C 0.28857 0.67293 0.32764 0.0
C1505 C 0.30877 0.6685 0.36503 0.0
C1506 C 0.31847 0.64592 0.35458 0.0
C1507 C 0.30792 0.62771 0.30406 0.0
H1508 H 0.39204 0.97303 0.37478 0.0
H1509 H 0.35491 0.93974 0.53599 0.0
H1510 H 0.35091 0.97748 0.6198 0.0
H1511 H 0.4228 0.01513 0.50992 0.0
H1512 H 0.42017 0.03846 0.45678 0.0
H1513 H 0.42069 0.0087 0.40893 0.0
H1514 H 0.38182 0.01506 0.34491 0.0
H1515 H 0.38113 0.04481 0.39293 0.0
H1516 H 0.35729 0.02567 0.40211 0.0
H1517 H 0.35155 0.0177 0.6876 0.0
H1518 H 0.35608 0.05947 0.73655 0.0
H1519 H 0.39075 0.06878 0.53093 0.0
C1520 C 0.38317 0.97378 0.4279 0.0
C1521 C 0.37396 0.95343 0.44937 0.0
C1522 C 0.36226 0.95505 0.51881 0.0
C1523 C 0.35983 0.97643 0.56671 0.0
C1524 C 0.36893 0.99616 0.54404 0.0
C1525 C 0.38028 0.9952 0.47633 0.0
C1526 C 0.38809 0.01935 0.46604 0.0
C1527 C 0.41451 0.02047 0.46008 0.0
C1528 C 0.37638 0.02665 0.39741 0.0
C1529 C 0.37946 0.03387 0.53879 0.0
C1530 C 0.36856 0.01996 0.58274 0.0
C1531 C 0.35987 0.02884 0.65359 0.0
C1532 C 0.36254 0.05258 0.68088 0.0
C1533 C 0.37356 0.0673 0.63723 0.0
C1534 C 0.38193 0.05791 0.56481 0.0
H1535 H 0.80584 0.64648 0.30392 0.0
H1536 H 0.79488 0.60164 0.08899 0.0
H1537 H 0.75399 0.59693 0.12227 0.0
H1538 H 0.76942 0.61625 0.41365 0.0
H1539 H 0.75854 0.64222 0.47183 0.0
H1540 H 0.78685 0.6422 0.43085 0.0
H1541 H 0.7756 0.67751 0.36902 0.0
H1542 H 0.74726 0.6777 0.41001 0.0
H1543 H 0.7504 0.67576 0.30989 0.0
H1544 H 0.71481 0.59504 0.18307 0.0
H1545 H 0.67967 0.59889 0.26204 0.0
H1546 H 0.71541 0.6473 0.4328 0.0
C1547 C 0.79483 0.63571 0.26374 0.0
C1548 C 0.80358 0.62435 0.19391 0.0
C1549 C 0.78855 0.61058 0.14268 0.0
C1550 C 0.76531 0.60773 0.1612 0.0
C1551 C 0.75727 0.61903 0.23075 0.0
C1552 C 0.77151 0.633 0.28081 0.0
C1553 C 0.75852 0.64351 0.35139 0.0
C1554 C 0.76895 0.63556 0.42103 0.0
C1555 C 0.75791 0.67021 0.36058 0.0
C1556 C 0.7348 0.6331 0.33361 0.0
C1557 C 0.73448 0.61885 0.26404 0.0
C1558 C 0.71478 0.60645 0.23706 0.0
C1559 C 0.69487 0.60879 0.28213 0.0
C1560 C 0.69468 0.62375 0.35268 0.0
C1561 C 0.71495 0.63602 0.37853 0.0
H1562 H 0.15923 0.05343 0.98731 0.0
H1563 H 0.09907 0.04161 0.84356 0.0
H1564 H 0.0894 0.00678 0.89918 0.0
H1565 H 0.1742 0.99187 0.97625 0.0
H1566 H 0.18418 0.99611 0.07209 0.0
H1567 H 0.18618 0.0195 0.01915 0.0
H1568 H 0.1632 0.04594 0.12374 0.0
H1569 H 0.1605 0.02239 0.17585 0.0
H1570 H 0.13506 0.0369 0.14989 0.0
H1571 H 0.08487 0.97543 0.977 0.0
H1572 H 0.09008 0.94379 0.04976 0.0
H1573 H 0.15458 0.97439 0.13897 0.0
C1574 C 0.14431 0.04315 0.96638 0.0
C1575 C 0.12994 0.04996 0.9107 0.0
C1576 C 0.11047 0.03635 0.88505 0.0
C1577 C 0.10471 0.01681 0.91721 0.0
C1578 C 0.11877 0.0111 0.97415 0.0
C1579 C 0.13856 0.02344 0.99692 0.0
C1580 C 0.15123 0.01311 0.05702 0.0
C1581 C 0.17537 1.00463 0.02946 0.0
C1582 C 0.15257 0.03063 0.13099 0.0
C1583 C 0.13545 0.99292 0.06473 0.0
C1584 C 0.11659 0.99249 0.01747 0.0
C1585 C 0.09961 0.97553 1.01377 0.0
C1586 C 0.10261 0.95778 0.05594 0.0
C1587 C 0.12257 0.95685 0.1006 0.0
C1588 C 0.13888 0.97504 0.10695 0.0
H1589 H 0.71903 0.37392 0.60265 0.0
H1590 H 0.67701 0.38604 0.80335 0.0
H1591 H 0.71208 0.3889 0.88218 0.0
H1592 H 0.76141 0.33793 0.67208 0.0
H1593 H 0.78523 0.34937 0.62563 0.0
H1594 H 0.75671 0.3489 0.58595 0.0
H1595 H 0.75915 0.3933 0.5866 0.0
H1596 H 0.78768 0.39383 0.62625 0.0
H1597 H 0.76554 0.41266 0.67316 0.0
H1598 H 0.75234 0.38993 0.93864 0.0
H1599 H 0.79401 0.38903 0.96786 0.0
H1600 H 0.80938 0.3756 0.729 0.0
C1601 C 0.71728 0.37725 0.66323 0.0
C1602 C 0.69535 0.38059 0.69734 0.0
C1603 C 0.69366 0.38464 0.77652 0.0
C1604 C 0.71351 0.38589 0.82156 0.0
C1605 C 0.73496 0.38293 0.78627 0.0
C1606 C 0.73694 0.37865 0.70882 0.0
C1607 C 0.76195 0.37601 0.68468 0.0
C1608 C 0.76659 0.3516 0.63943 0.0
C1609 C 0.76899 0.39509 0.64005 0.0
C1610 C 0.77373 0.37933 0.76055 0.0
C1611 C 0.75793 0.3833 0.81855 0.0
C1612 C 0.76487 0.38684 0.8936 0.0
C1613 C 0.78858 0.3863 0.90968 0.0
C1614 C 0.80507 0.38226 0.85094 0.0
C1615 C 0.79735 0.37875 0.77551 0.0
loop_
_geom_bond_atom_site_label_1
_geom_bond_atom_site_label_2
_geom_bond_distance
_geom_bond_site_symmetry_2
_ccdc_geom_bond_type
Dy0 O4 2.398 1_554 S
Dy0 O5 2.491 1_554 S
Dy0 O6 2.403 . S
Dy0 O7 2.664 . S
Dy0 O11 2.326 . S
Dy0 O15 2.310 . S
Dy0 O16 2.351 . S
C1 O12 1.185 . S
C1 O13 1.355 . S
C2 O4 1.185 . S
C2 O5 1.355 . S
Dy3 O7 2.310 . S
Dy3 O10 2.351 . S
Dy3 O12 2.398 . S
Dy3 O13 2.491 . S
Dy3 O14 2.403 . S
Dy3 O15 2.664 . S
Dy3 O17 2.326 . S
O4 Dy0 2.398 1_556 S
O4 C2 1.185 . S
O5 Dy0 2.491 1_556 S
O5 C2 1.355 . S
O6 Dy0 2.403 . S
O6 C8 1.254 . S
O7 Dy0 2.664 . S
O7 Dy3 2.310 . S
O7 C8 1.268 . S
C8 O6 1.254 . S
C8 O7 1.268 . S
C9 O14 1.254 . S
C9 O15 1.268 . S
O10 Dy3 2.351 . S
O10 C18 1.249 . S
O11 Dy0 2.326 . S
O11 C18 1.267 . S
O12 C1 1.185 . S
O12 Dy3 2.398 . S
O13 C1 1.355 . S
O13 Dy3 2.491 . S
O14 Dy3 2.403 . S
O14 C9 1.254 . S
O15 Dy0 2.310 . S
O15 Dy3 2.664 . S
O15 C9 1.268 . S
O16 Dy0 2.351 . S
O16 C19 1.249 . S
O17 Dy3 2.326 . S
O17 C19 1.267 . S
C18 O10 1.249 . S
C18 O11 1.267 . S
C19 O16 1.249 . S
C19 O17 1.267 . S
Dy20 O24 2.398 . S
Dy20 O25 2.491 . S
Dy20 O26 2.403 . S
Dy20 O27 2.664 . S
Dy20 O31 2.326 . S
Dy20 O35 2.310 . S
Dy20 O36 2.351 . S
C21 O32 1.185 . S
C21 O33 1.355 . S
C22 O24 1.185 . S
C22 O25 1.355 . S
Dy23 O27 2.310 . S
Dy23 O30 2.351 . S
Dy23 O32 2.398 . S
Dy23 O33 2.491 . S
Dy23 O34 2.403 . S
Dy23 O35 2.664 . S
Dy23 O37 2.326 . S
O24 Dy20 2.398 . S
O24 C22 1.185 . S
O25 Dy20 2.491 . S
O25 C22 1.355 . S
O26 Dy20 2.403 . S
O26 C28 1.254 . S
O27 Dy20 2.664 . S
O27 Dy23 2.310 . S
O27 C28 1.268 . S
C28 O26 1.254 . S
C28 O27 1.268 . S
C29 O34 1.254 . S
C29 O35 1.268 . S
O30 Dy23 2.351 . S
O30 C38 1.249 . S
O31 Dy20 2.326 . S
O31 C38 1.267 . S
O32 C21 1.185 . S
O32 Dy23 2.398 . S
O33 C21 1.355 . S
O33 Dy23 2.491 . S
O34 Dy23 2.403 . S
O34 C29 1.254 . S
O35 Dy20 2.310 . S
O35 Dy23 2.664 . S
O35 C29 1.268 . S
O36 Dy20 2.351 . S
O36 C39 1.249 . S
O37 Dy23 2.326 . S
O37 C39 1.267 . S
C38 O30 1.249 . S
C38 O31 1.267 . S
C39 O36 1.249 . S
C39 O37 1.267 . S
Dy40 O44 2.398 . S
Dy40 O45 2.491 . S
Dy40 O46 2.403 . S
Dy40 O47 2.664 . S
Dy40 O51 2.326 . S
Dy40 O55 2.310 . S
Dy40 O56 2.351 . S
C41 O52 1.185 . S
C41 O53 1.355 . S
C42 O44 1.185 . S
C42 O45 1.355 . S
Dy43 O47 2.310 . S
Dy43 O50 2.351 . S
Dy43 O52 2.398 . S
Dy43 O53 2.491 . S
Dy43 O54 2.403 . S
Dy43 O55 2.664 . S
Dy43 O57 2.326 . S
O44 Dy40 2.398 . S
O44 C42 1.185 . S
O45 Dy40 2.491 . S
O45 C42 1.355 . S
O46 Dy40 2.403 . S
O46 C48 1.254 . S
O47 Dy40 2.664 . S
O47 Dy43 2.310 . S
O47 C48 1.268 . S
C48 O46 1.254 . S
C48 O47 1.268 . S
C49 O54 1.254 . S
C49 O55 1.268 . S
O50 Dy43 2.351 . S
O50 C58 1.249 . S
O51 Dy40 2.326 . S
O51 C58 1.267 . S
O52 C41 1.185 . S
O52 Dy43 2.398 . S
O53 C41 1.355 . S
O53 Dy43 2.491 . S
O54 Dy43 2.403 . S
O54 C49 1.254 . S
O55 Dy40 2.310 . S
O55 Dy43 2.664 . S
O55 C49 1.268 . S
O56 Dy40 2.351 . S
O56 C59 1.249 . S
O57 Dy43 2.326 . S
O57 C59 1.267 . S
C58 O50 1.249 . S
C58 O51 1.267 . S
C59 O56 1.249 . S
C59 O57 1.267 . S
Dy60 O64 2.398 . S
Dy60 O65 2.491 . S
Dy60 O66 2.403 . S
Dy60 O67 2.664 . S
Dy60 O71 2.326 . S
Dy60 O75 2.310 . S
Dy60 O76 2.351 . S
C61 O72 1.185 . S
C61 O73 1.355 . S
C62 O64 1.185 . S
C62 O65 1.355 . S
Dy63 O67 2.310 . S
Dy63 O70 2.351 . S
Dy63 O72 2.398 1_556 S
Dy63 O73 2.491 1_556 S
Dy63 O74 2.403 . S
Dy63 O75 2.664 . S
Dy63 O77 2.326 . S
O64 Dy60 2.398 . S
O64 C62 1.185 . S
O65 Dy60 2.491 . S
O65 C62 1.355 . S
O66 Dy60 2.403 . S
O66 C68 1.254 . S
O67 Dy60 2.664 . S
O67 Dy63 2.310 . S
O67 C68 1.268 . S
C68 O66 1.254 . S
C68 O67 1.268 . S
C69 O74 1.254 . S
C69 O75 1.268 . S
O70 Dy63 2.351 . S
O70 C78 1.249 . S
O71 Dy60 2.326 . S
O71 C78 1.267 . S
O72 C61 1.185 . S
O72 Dy63 2.398 1_554 S
O73 C61 1.355 . S
O73 Dy63 2.491 1_554 S
O74 Dy63 2.403 . S
O74 C69 1.254 . S
O75 Dy60 2.310 . S
O75 Dy63 2.664 . S
O75 C69 1.268 . S
O76 Dy60 2.351 . S
O76 C79 1.249 . S
O77 Dy63 2.326 . S
O77 C79 1.267 . S
C78 O70 1.249 . S
C78 O71 1.267 . S
C79 O76 1.249 . S
C79 O77 1.267 . S
Dy80 O84 2.398 1_556 S
Dy80 O85 2.491 1_556 S
Dy80 O86 2.403 . S
Dy80 O87 2.664 . S
Dy80 O91 2.326 . S
Dy80 O95 2.310 . S
Dy80 O96 2.351 . S
C81 O92 1.185 . S
C81 O93 1.355 . S
C82 O84 1.185 . S
C82 O85 1.355 . S
Dy83 O87 2.310 . S
Dy83 O90 2.351 . S
Dy83 O92 2.398 . S
Dy83 O93 2.491 . S
Dy83 O94 2.403 . S
Dy83 O95 2.664 . S
Dy83 O97 2.326 . S
O84 Dy80 2.398 1_554 S
O84 C82 1.185 . S
O85 Dy80 2.491 1_554 S
O85 C82 1.355 . S
O86 Dy80 2.403 . S
O86 C88 1.254 . S
O87 Dy80 2.664 . S
O87 Dy83 2.310 . S
O87 C88 1.268 . S
C88 O86 1.254 . S
C88 O87 1.268 . S
C89 O94 1.254 . S
C89 O95 1.268 . S
O90 Dy83 2.351 . S
O90 C98 1.249 . S
O91 Dy80 2.326 . S
O91 C98 1.267 . S
O92 C81 1.185 . S
O92 Dy83 2.398 . S
O93 C81 1.355 . S
O93 Dy83 2.491 . S
O94 Dy83 2.403 . S
O94 C89 1.254 . S
O95 Dy80 2.310 . S
O95 Dy83 2.664 . S
O95 C89 1.268 . S
O96 Dy80 2.351 . S
O96 C99 1.249 . S
O97 Dy83 2.326 . S
O97 C99 1.267 . S
C98 O90 1.249 . S
C98 O91 1.267 . S
C99 O96 1.249 . S
C99 O97 1.267 . S
Dy100 O104 2.398 . S
Dy100 O105 2.491 . S
Dy100 O106 2.403 . S
Dy100 O107 2.664 . S
Dy100 O111 2.326 . S
Dy100 O115 2.310 . S
Dy100 O116 2.351 . S
C101 O112 1.185 . S
C101 O113 1.355 . S
C102 O104 1.185 . S
C102 O105 1.355 . S
Dy103 O107 2.310 . S
Dy103 O110 2.351 . S
Dy103 O112 2.398 1_554 S
Dy103 O113 2.491 1_554 S
Dy103 O114 2.403 . S
Dy103 O115 2.664 . S
Dy103 O117 2.326 . S
O104 Dy100 2.398 . S
O104 C102 1.185 . S
O105 Dy100 2.491 . S
O105 C102 1.355 . S
O106 Dy100 2.403 . S
O106 C108 1.254 . S
O107 Dy100 2.664 . S
O107 Dy103 2.310 . S
O107 C108 1.268 . S
C108 O106 1.254 . S
C108 O107 1.268 . S
C109 O114 1.254 . S
C109 O115 1.268 . S
O110 Dy103 2.351 . S
O110 C118 1.249 . S
O111 Dy100 2.326 . S
O111 C118 1.267 . S
O112 C101 1.185 . S
O112 Dy103 2.398 1_556 S
O113 C101 1.355 . S
O113 Dy103 2.491 1_556 S
O114 Dy103 2.403 . S
O114 C109 1.254 . S
O115 Dy100 2.310 . S
O115 Dy103 2.664 . S
O115 C109 1.268 . S
O116 Dy100 2.351 . S
O116 C119 1.249 . S
O117 Dy103 2.326 . S
O117 C119 1.267 . S
C118 O110 1.249 . S
C118 O111 1.267 . S
C119 O116 1.249 . S
C119 O117 1.267 . S
Dy120 O124 2.398 . S
Dy120 O125 2.491 . S
Dy120 O126 2.403 . S
Dy120 O127 2.664 . S
Dy120 O131 2.326 . S
Dy120 O135 2.310 . S
Dy120 O136 2.351 . S
C121 O132 1.185 . S
C121 O133 1.355 . S
C122 O124 1.185 . S
C122 O125 1.355 . S
Dy123 O127 2.310 . S
Dy123 O130 2.351 . S
Dy123 O132 2.398 . S
Dy123 O133 2.491 . S
Dy123 O134 2.403 . S
Dy123 O135 2.664 . S
Dy123 O137 2.326 . S
O124 Dy120 2.398 . S
O124 C122 1.185 . S
O125 Dy120 2.491 . S
O125 C122 1.355 . S
O126 Dy120 2.403 . S
O126 C128 1.254 . S
O127 Dy120 2.664 . S
O127 Dy123 2.310 . S
O127 C128 1.268 . S
C128 O126 1.254 . S
C128 O127 1.268 . S
C129 O134 1.254 . S
C129 O135 1.268 . S
O130 Dy123 2.351 . S
O130 C138 1.249 . S
O131 Dy120 2.326 . S
O131 C138 1.267 . S
O132 C121 1.185 . S
O132 Dy123 2.398 . S
O133 C121 1.355 . S
O133 Dy123 2.491 . S
O134 Dy123 2.403 . S
O134 C129 1.254 . S
O135 Dy120 2.310 . S
O135 Dy123 2.664 . S
O135 C129 1.268 . S
O136 Dy120 2.351 . S
O136 C139 1.249 . S
O137 Dy123 2.326 . S
O137 C139 1.267 . S
C138 O130 1.249 . S
C138 O131 1.267 . S
C139 O136 1.249 . S
C139 O137 1.267 . S
Dy140 O144 2.398 . S
Dy140 O145 2.491 . S
Dy140 O146 2.403 . S
Dy140 O147 2.664 . S
Dy140 O151 2.326 . S
Dy140 O155 2.310 . S
Dy140 O156 2.351 . S
C141 O152 1.185 . S
C141 O153 1.355 . S
C142 O144 1.185 . S
C142 O145 1.355 . S
Dy143 O147 2.310 . S
Dy143 O150 2.351 . S
Dy143 O152 2.398 . S
Dy143 O153 2.491 . S
Dy143 O154 2.403 . S
Dy143 O155 2.664 . S
Dy143 O157 2.326 . S
O144 Dy140 2.398 . S
O144 C142 1.185 . S
O145 Dy140 2.491 . S
O145 C142 1.355 . S
O146 Dy140 2.403 . S
O146 C148 1.254 . S
O147 Dy140 2.664 . S
O147 Dy143 2.310 . S
O147 C148 1.268 . S
C148 O146 1.254 . S
C148 O147 1.268 . S
C149 O154 1.254 . S
C149 O155 1.268 . S
O150 Dy143 2.351 . S
O150 C158 1.249 . S
O151 Dy140 2.326 . S
O151 C158 1.267 . S
O152 C141 1.185 . S
O152 Dy143 2.398 . S
O153 C141 1.355 . S
O153 Dy143 2.491 . S
O154 Dy143 2.403 . S
O154 C149 1.254 . S
O155 Dy140 2.310 . S
O155 Dy143 2.664 . S
O155 C149 1.268 . S
O156 Dy140 2.351 . S
O156 C159 1.249 . S
O157 Dy143 2.326 . S
O157 C159 1.267 . S
C158 O150 1.249 . S
C158 O151 1.267 . S
C159 O156 1.249 . S
C159 O157 1.267 . S
Dy160 O164 2.398 . S
Dy160 O165 2.491 . S
Dy160 O166 2.403 . S
Dy160 O167 2.664 . S
Dy160 O171 2.326 . S
Dy160 O175 2.310 . S
Dy160 O176 2.351 . S
C161 O172 1.185 . S
C161 O173 1.355 . S
C162 O164 1.185 . S
C162 O165 1.355 . S
Dy163 O167 2.310 . S
Dy163 O170 2.351 . S
Dy163 O172 2.398 1_556 S
Dy163 O173 2.491 1_556 S
Dy163 O174 2.403 . S
Dy163 O175 2.664 . S
Dy163 O177 2.326 . S
O164 Dy160 2.398 . S
O164 C162 1.185 . S
O165 Dy160 2.491 . S
O165 C162 1.355 . S
O166 Dy160 2.403 . S
O166 C168 1.254 . S
O167 Dy160 2.664 . S
O167 Dy163 2.310 . S
O167 C168 1.268 . S
C168 O166 1.254 . S
C168 O167 1.268 . S
C169 O174 1.254 . S
C169 O175 1.268 . S
O170 Dy163 2.351 . S
O170 C178 1.249 . S
O171 Dy160 2.326 . S
O171 C178 1.267 . S
O172 C161 1.185 . S
O172 Dy163 2.398 1_554 S
O173 C161 1.355 . S
O173 Dy163 2.491 1_554 S
O174 Dy163 2.403 . S
O174 C169 1.254 . S
O175 Dy160 2.310 . S
O175 Dy163 2.664 . S
O175 C169 1.268 . S
O176 Dy160 2.351 . S
O176 C179 1.249 . S
O177 Dy163 2.326 . S
O177 C179 1.267 . S
C178 O170 1.249 . S
C178 O171 1.267 . S
C179 O176 1.249 . S
C179 O177 1.267 . S
Dy180 O184 2.398 . S
Dy180 O185 2.491 . S
Dy180 O186 2.403 . S
Dy180 O187 2.664 . S
Dy180 O191 2.326 . S
Dy180 O195 2.310 . S
Dy180 O196 2.351 . S
C181 O192 1.185 . S
C181 O193 1.355 . S
C182 O184 1.185 . S
C182 O185 1.355 . S
Dy183 O187 2.310 . S
Dy183 O190 2.351 . S
Dy183 O192 2.398 . S
Dy183 O193 2.491 . S
Dy183 O194 2.403 . S
Dy183 O195 2.664 . S
Dy183 O197 2.326 . S
O184 Dy180 2.398 . S
O184 C182 1.185 . S
O185 Dy180 2.491 . S
O185 C182 1.355 . S
O186 Dy180 2.403 . S
O186 C188 1.254 . S
O187 Dy180 2.664 . S
O187 Dy183 2.310 . S
O187 C188 1.268 . S
C188 O186 1.254 . S
C188 O187 1.268 . S
C189 O194 1.254 . S
C189 O195 1.268 . S
O190 Dy183 2.351 . S
O190 C198 1.249 . S
O191 Dy180 2.326 . S
O191 C198 1.267 . S
O192 C181 1.185 . S
O192 Dy183 2.398 . S
O193 C181 1.355 . S
O193 Dy183 2.491 . S
O194 Dy183 2.403 . S
O194 C189 1.254 . S
O195 Dy180 2.310 . S
O195 Dy183 2.664 . S
O195 C189 1.268 . S
O196 Dy180 2.351 . S
O196 C199 1.249 . S
O197 Dy183 2.326 . S
O197 C199 1.267 . S
C198 O190 1.249 . S
C198 O191 1.267 . S
C199 O196 1.249 . S
C199 O197 1.267 . S
Dy200 O204 2.398 . S
Dy200 O205 2.491 . S
Dy200 O206 2.403 . S
Dy200 O207 2.664 . S
Dy200 O211 2.326 . S
Dy200 O215 2.310 . S
Dy200 O216 2.351 . S
C201 O212 1.185 . S
C201 O213 1.355 . S
C202 O204 1.185 . S
C202 O205 1.355 . S
Dy203 O207 2.310 . S
Dy203 O210 2.351 . S
Dy203 O212 2.398 . S
Dy203 O213 2.491 . S
Dy203 O214 2.403 . S
Dy203 O215 2.664 . S
Dy203 O217 2.326 . S
O204 Dy200 2.398 . S
O204 C202 1.185 . S
O205 Dy200 2.491 . S
O205 C202 1.355 . S
O206 Dy200 2.403 . S
O206 C208 1.254 . S
O207 Dy200 2.664 . S
O207 Dy203 2.310 . S
O207 C208 1.268 . S
C208 O206 1.254 . S
C208 O207 1.268 . S
C209 O214 1.254 . S
C209 O215 1.268 . S
O210 Dy203 2.351 . S
O210 C218 1.249 . S
O211 Dy200 2.326 . S
O211 C218 1.267 . S
O212 C201 1.185 . S
O212 Dy203 2.398 . S
O213 C201 1.355 . S
O213 Dy203 2.491 . S
O214 Dy203 2.403 . S
O214 C209 1.254 . S
O215 Dy200 2.310 . S
O215 Dy203 2.664 . S
O215 C209 1.268 . S
O216 Dy200 2.351 . S
O216 C219 1.249 . S
O217 Dy203 2.326 . S
O217 C219 1.267 . S
C218 O210 1.249 . S
C218 O211 1.267 . S
C219 O216 1.249 . S
C219 O217 1.267 . S
Dy220 O224 2.398 1_554 S
Dy220 O225 2.491 1_554 S
Dy220 O226 2.403 . S
Dy220 O227 2.664 . S
Dy220 O231 2.326 . S
Dy220 O235 2.310 . S
Dy220 O236 2.351 . S
C221 O232 1.185 . S
C221 O233 1.355 . S
C222 O224 1.185 . S
C222 O225 1.355 . S
Dy223 O227 2.310 . S
Dy223 O230 2.351 . S
Dy223 O232 2.398 . S
Dy223 O233 2.491 . S
Dy223 O234 2.403 . S
Dy223 O235 2.664 . S
Dy223 O237 2.326 . S
O224 Dy220 2.398 1_556 S
O224 C222 1.185 . S
O225 Dy220 2.491 1_556 S
O225 C222 1.355 . S
O226 Dy220 2.403 . S
O226 C228 1.254 . S
O227 Dy220 2.664 . S
O227 Dy223 2.310 . S
O227 C228 1.268 . S
C228 O226 1.254 . S
C228 O227 1.268 . S
C229 O234 1.254 . S
C229 O235 1.268 . S
O230 Dy223 2.351 . S
O230 C238 1.249 . S
O231 Dy220 2.326 . S
O231 C238 1.267 . S
O232 C221 1.185 . S
O232 Dy223 2.398 . S
O233 C221 1.355 . S
O233 Dy223 2.491 . S
O234 Dy223 2.403 . S
O234 C229 1.254 . S
O235 Dy220 2.310 . S
O235 Dy223 2.664 . S
O235 C229 1.268 . S
O236 Dy220 2.351 . S
O236 C239 1.249 . S
O237 Dy223 2.326 . S
O237 C239 1.267 . S
C238 O230 1.249 . S
C238 O231 1.267 . S
C239 O236 1.249 . S
C239 O237 1.267 . S
Dy240 O244 2.398 . S
Dy240 O245 2.491 . S
Dy240 O246 2.403 . S
Dy240 O247 2.664 . S
Dy240 O251 2.326 . S
Dy240 O255 2.310 . S
Dy240 O256 2.351 . S
C241 O252 1.185 . S
C241 O253 1.355 . S
C242 O244 1.185 . S
C242 O245 1.355 . S
Dy243 O247 2.310 . S
Dy243 O250 2.351 . S
Dy243 O252 2.398 1_554 S
Dy243 O253 2.491 1_554 S
Dy243 O254 2.403 . S
Dy243 O255 2.664 . S
Dy243 O257 2.326 . S
O244 Dy240 2.398 . S
O244 C242 1.185 . S
O245 Dy240 2.491 . S
O245 C242 1.355 . S
O246 Dy240 2.403 . S
O246 C248 1.254 . S
O247 Dy240 2.664 . S
O247 Dy243 2.310 . S
O247 C248 1.268 . S
C248 O246 1.254 . S
C248 O247 1.268 . S
C249 O254 1.254 . S
C249 O255 1.268 . S
O250 Dy243 2.351 . S
O250 C258 1.249 . S
O251 Dy240 2.326 . S
O251 C258 1.267 . S
O252 C241 1.185 . S
O252 Dy243 2.398 1_556 S
O253 C241 1.355 . S
O253 Dy243 2.491 1_556 S
O254 Dy243 2.403 . S
O254 C249 1.254 . S
O255 Dy240 2.310 . S
O255 Dy243 2.664 . S
O255 C249 1.268 . S
O256 Dy240 2.351 . S
O256 C259 1.249 . S
O257 Dy243 2.326 . S
O257 C259 1.267 . S
C258 O250 1.249 . S
C258 O251 1.267 . S
C259 O256 1.249 . S
C259 O257 1.267 . S
Dy260 O264 2.398 1_556 S
Dy260 O265 2.491 1_556 S
Dy260 O266 2.403 . S
Dy260 O267 2.664 . S
Dy260 O271 2.326 . S
Dy260 O275 2.310 . S
Dy260 O276 2.351 . S
C261 O272 1.185 . S
C261 O273 1.355 . S
C262 O264 1.185 . S
C262 O265 1.355 . S
Dy263 O267 2.310 . S
Dy263 O270 2.351 . S
Dy263 O272 2.398 . S
Dy263 O273 2.491 . S
Dy263 O274 2.403 . S
Dy263 O275 2.664 . S
Dy263 O277 2.326 . S
O264 Dy260 2.398 1_554 S
O264 C262 1.185 . S
O265 Dy260 2.491 1_554 S
O265 C262 1.355 . S
O266 Dy260 2.403 . S
O266 C268 1.254 . S
O267 Dy260 2.664 . S
O267 Dy263 2.310 . S
O267 C268 1.268 . S
C268 O266 1.254 . S
C268 O267 1.268 . S
C269 O274 1.254 . S
C269 O275 1.268 . S
O270 Dy263 2.351 . S
O270 C278 1.249 . S
O271 Dy260 2.326 . S
O271 C278 1.267 . S
O272 C261 1.185 . S
O272 Dy263 2.398 . S
O273 C261 1.355 . S
O273 Dy263 2.491 . S
O274 Dy263 2.403 . S
O274 C269 1.254 . S
O275 Dy260 2.310 . S
O275 Dy263 2.664 . S
O275 C269 1.268 . S
O276 Dy260 2.351 . S
O276 C279 1.249 . S
O277 Dy263 2.326 . S
O277 C279 1.267 . S
C278 O270 1.249 . S
C278 O271 1.267 . S
C279 O276 1.249 . S
C279 O277 1.267 . S
Dy280 O284 2.398 . S
Dy280 O285 2.491 . S
Dy280 O286 2.403 . S
Dy280 O287 2.664 . S
Dy280 O291 2.326 . S
Dy280 O295 2.310 . S
Dy280 O296 2.351 . S
C281 O292 1.185 . S
C281 O293 1.355 . S
C282 O284 1.185 . S
C282 O285 1.355 . S
Dy283 O287 2.310 . S
Dy283 O290 2.351 . S
Dy283 O292 2.398 . S
Dy283 O293 2.491 . S
Dy283 O294 2.403 . S
Dy283 O295 2.664 . S
Dy283 O297 2.326 . S
O284 Dy280 2.398 . S
O284 C282 1.185 . S
O285 Dy280 2.491 . S
O285 C282 1.355 . S
O286 Dy280 2.403 . S
O286 C288 1.254 . S
O287 Dy280 2.664 . S
O287 Dy283 2.310 . S
O287 C288 1.268 . S
C288 O286 1.254 . S
C288 O287 1.268 . S
C289 O294 1.254 . S
C289 O295 1.268 . S
O290 Dy283 2.351 . S
O290 C298 1.249 . S
O291 Dy280 2.326 . S
O291 C298 1.267 . S
O292 C281 1.185 . S
O292 Dy283 2.398 . S
O293 C281 1.355 . S
O293 Dy283 2.491 . S
O294 Dy283 2.403 . S
O294 C289 1.254 . S
O295 Dy280 2.310 . S
O295 Dy283 2.664 . S
O295 C289 1.268 . S
O296 Dy280 2.351 . S
O296 C299 1.249 . S
O297 Dy283 2.326 . S
O297 C299 1.267 . S
C298 O290 1.249 . S
C298 O291 1.267 . S
C299 O296 1.249 . S
C299 O297 1.267 . S
Dy300 O304 2.398 . S
Dy300 O305 2.491 . S
Dy300 O306 2.403 . S
Dy300 O307 2.664 . S
Dy300 O311 2.326 . S
Dy300 O315 2.310 . S
Dy300 O316 2.351 . S
C301 O312 1.185 . S
C301 O313 1.355 . S
C302 O304 1.185 . S
C302 O305 1.355 . S
Dy303 O307 2.310 . S
Dy303 O310 2.351 . S
Dy303 O312 2.398 . S
Dy303 O313 2.491 . S
Dy303 O314 2.403 . S
Dy303 O315 2.664 . S
Dy303 O317 2.326 . S
O304 Dy300 2.398 . S
O304 C302 1.185 . S
O305 Dy300 2.491 . S
O305 C302 1.355 . S
O306 Dy300 2.403 . S
O306 C308 1.254 . S
O307 Dy300 2.664 . S
O307 Dy303 2.310 . S
O307 C308 1.268 . S
C308 O306 1.254 . S
C308 O307 1.268 . S
C309 O314 1.254 . S
C309 O315 1.268 . S
O310 Dy303 2.351 . S
O310 C318 1.249 . S
O311 Dy300 2.326 . S
O311 C318 1.267 . S
O312 C301 1.185 . S
O312 Dy303 2.398 . S
O313 C301 1.355 . S
O313 Dy303 2.491 . S
O314 Dy303 2.403 . S
O314 C309 1.254 . S
O315 Dy300 2.310 . S
O315 Dy303 2.664 . S
O315 C309 1.268 . S
O316 Dy300 2.351 . S
O316 C319 1.249 . S
O317 Dy303 2.326 . S
O317 C319 1.267 . S
C318 O310 1.249 . S
C318 O311 1.267 . S
C319 O316 1.249 . S
C319 O317 1.267 . S
H320 C332 0.930 . S
H321 C334 0.930 . S
H322 C335 0.930 . S
H323 C339 0.959 . S
H324 C339 0.959 . S
H325 C339 0.961 . S
H326 C340 0.960 . S
H327 C340 0.961 . S
H328 C340 0.959 . S
H329 C343 0.929 . S
H330 C344 0.931 . S
H331 C346 0.930 . S
C332 H320 0.930 . S
C332 C333 1.399 . S
C332 C337 1.399 . S
C333 C332 1.399 . S
C333 C334 1.376 . S
C334 H321 0.930 . S
C334 C333 1.376 . S
C334 C335 1.388 . S
C335 H322 0.930 . S
C335 C334 1.388 . S
C335 C336 1.390 . S
C336 C335 1.390 . S
C336 C337 1.394 . S
C336 C342 1.465 . S
C337 C332 1.399 . S
C337 C336 1.394 . S
C337 C338 1.516 . S
C338 C337 1.516 . S
C338 C339 1.502 . S
C338 C340 1.561 . S
C338 C341 1.526 . S
C339 H323 0.959 . S
C339 H324 0.959 . S
C339 H325 0.961 . S
C339 C338 1.502 . S
C340 H326 0.960 . S
C340 H327 0.961 . S
C340 H328 0.959 . S
C340 C338 1.561 . S
C341 C338 1.526 . S
C341 C342 1.396 . S
C341 C346 1.390 . S
C342 C336 1.465 . S
C342 C341 1.396 . S
C342 C343 1.399 . S
C343 H329 0.929 . S
C343 C342 1.399 . S
C343 C344 1.385 . S
C344 H330 0.931 . S
C344 C343 1.385 . S
C344 C345 1.389 . S
C345 C344 1.389 . S
C345 C346 1.387 . S
C346 H331 0.930 . S
C346 C341 1.390 . S
C346 C345 1.387 . S
H347 C359 0.930 . S
H348 C361 0.930 . S
H349 C362 0.930 . S
H350 C366 0.959 . S
H351 C366 0.959 . S
H352 C366 0.961 . S
H353 C367 0.960 . S
H354 C367 0.961 . S
H355 C367 0.959 . S
H356 C370 0.929 . S
H357 C371 0.931 . S
H358 C373 0.930 . S
C359 H347 0.930 . S
C359 C360 1.399 . S
C359 C364 1.399 1_554 S
C360 C359 1.399 . S
C360 C361 1.376 . S
C361 H348 0.930 . S
C361 C360 1.376 . S
C361 C362 1.388 1_554 S
C362 H349 0.930 . S
C362 C361 1.388 1_556 S
C362 C363 1.390 . S
C363 C362 1.390 . S
C363 C364 1.394 . S
C363 C369 1.465 . S
C364 C359 1.399 1_556 S
C364 C363 1.394 . S
C364 C365 1.516 . S
C365 C364 1.516 . S
C365 C366 1.502 . S
C365 C367 1.561 . S
C365 C368 1.526 . S
C366 H350 0.959 . S
C366 H351 0.959 . S
C366 H352 0.961 . S
C366 C365 1.502 . S
C367 H353 0.960 . S
C367 H354 0.961 . S
C367 H355 0.959 . S
C367 C365 1.561 . S
C368 C365 1.526 . S
C368 C369 1.396 . S
C368 C373 1.390 . S
C369 C363 1.465 . S
C369 C368 1.396 . S
C369 C370 1.399 . S
C370 H356 0.929 . S
C370 C369 1.399 . S
C370 C371 1.385 . S
C371 H357 0.931 . S
C371 C370 1.385 . S
C371 C372 1.389 . S
C372 C371 1.389 . S
C372 C373 1.387 . S
C373 H358 0.930 . S
C373 C368 1.390 . S
C373 C372 1.387 . S
H374 C386 0.930 . S
H375 C388 0.930 . S
H376 C389 0.930 . S
H377 C393 0.959 . S
H378 C393 0.959 . S
H379 C393 0.961 . S
H380 C394 0.960 . S
H381 C394 0.961 . S
H382 C394 0.959 . S
H383 C397 0.929 . S
H384 C398 0.931 . S
H385 C400 0.930 . S
C386 H374 0.930 . S
C386 C387 1.399 . S
C386 C391 1.399 . S
C387 C386 1.399 . S
C387 C388 1.376 . S
C388 H375 0.930 . S
C388 C387 1.376 . S
C388 C389 1.388 . S
C389 H376 0.930 . S
C389 C388 1.388 . S
C389 C390 1.390 . S
C390 C389 1.390 . S
C390 C391 1.394 . S
C390 C396 1.465 . S
C391 C386 1.399 . S
C391 C390 1.394 . S
C391 C392 1.516 . S
C392 C391 1.516 . S
C392 C393 1.502 . S
C392 C394 1.561 . S
C392 C395 1.526 . S
C393 H377 0.959 . S
C393 H378 0.959 . S
C393 H379 0.961 . S
C393 C392 1.502 . S
C394 H380 0.960 . S
C394 H381 0.961 . S
C394 H382 0.959 . S
C394 C392 1.561 . S
C395 C392 1.526 . S
C395 C396 1.396 . S
C395 C400 1.390 1_554 S
C396 C390 1.465 . S
C396 C395 1.396 . S
C396 C397 1.399 . S
C397 H383 0.929 . S
C397 C396 1.399 . S
C397 C398 1.385 1_554 S
C398 H384 0.931 . S
C398 C397 1.385 1_556 S
C398 C399 1.389 . S
C399 C398 1.389 . S
C399 C400 1.387 . S
C400 H385 0.930 . S
C400 C395 1.390 1_556 S
C400 C399 1.387 . S
H401 C413 0.930 . S
H402 C415 0.930 . S
H403 C416 0.930 . S
H404 C420 0.959 . S
H405 C420 0.959 . S
H406 C420 0.961 . S
H407 C421 0.960 . S
H408 C421 0.961 . S
H409 C421 0.959 . S
H410 C424 0.929 . S
H411 C425 0.931 . S
H412 C427 0.930 . S
C413 H401 0.930 . S
C413 C414 1.399 . S
C413 C418 1.399 . S
C414 C413 1.399 . S
C414 C415 1.376 . S
C415 H402 0.930 . S
C415 C414 1.376 . S
C415 C416 1.388 . S
C416 H403 0.930 . S
C416 C415 1.388 . S
C416 C417 1.390 . S
C417 C416 1.390 . S
C417 C418 1.394 . S
C417 C423 1.465 . S
C418 C413 1.399 . S
C418 C417 1.394 . S
C418 C419 1.516 . S
C419 C418 1.516 . S
C419 C420 1.502 . S
C419 C421 1.561 . S
C419 C422 1.526 . S
C420 H404 0.959 . S
C420 H405 0.959 . S
C420 H406 0.961 . S
C420 C419 1.502 . S
C421 H407 0.960 . S
C421 H408 0.961 . S
C421 H409 0.959 . S
C421 C419 1.561 . S
C422 C419 1.526 . S
C422 C423 1.396 . S
C422 C427 1.390 . S
C423 C417 1.465 . S
C423 C422 1.396 . S
C423 C424 1.399 . S
C424 H410 0.929 . S
C424 C423 1.399 . S
C424 C425 1.385 . S
C425 H411 0.931 . S
C425 C424 1.385 . S
C425 C426 1.389 . S
C426 C425 1.389 . S
C426 C427 1.387 . S
C427 H412 0.930 . S
C427 C422 1.390 . S
C427 C426 1.387 . S
H428 C440 0.930 . S
H429 C442 0.930 . S
H430 C443 0.930 . S
H431 C447 0.959 . S
H432 C447 0.959 . S
H433 C447 0.961 . S
H434 C448 0.960 . S
H435 C448 0.961 . S
H436 C448 0.959 . S
H437 C451 0.929 . S
H438 C452 0.931 . S
H439 C454 0.930 . S
C440 H428 0.930 . S
C440 C441 1.399 . S
C440 C445 1.399 . S
C441 C440 1.399 . S
C441 C442 1.376 . S
C442 H429 0.930 . S
C442 C441 1.376 . S
C442 C443 1.388 . S
C443 H430 0.930 . S
C443 C442 1.388 . S
C443 C444 1.390 . S
C444 C443 1.390 . S
C444 C445 1.394 . S
C444 C450 1.465 . S
C445 C440 1.399 . S
C445 C444 1.394 . S
C445 C446 1.516 . S
C446 C445 1.516 . S
C446 C447 1.502 . S
C446 C448 1.561 . S
C446 C449 1.526 . S
C447 H431 0.959 . S
C447 H432 0.959 . S
C447 H433 0.961 . S
C447 C446 1.502 . S
C448 H434 0.960 . S
C448 H435 0.961 . S
C448 H436 0.959 . S
C448 C446 1.561 . S
C449 C446 1.526 . S
C449 C450 1.396 . S
C449 C454 1.390 . S
C450 C444 1.465 . S
C450 C449 1.396 . S
C450 C451 1.399 . S
C451 H437 0.929 . S
C451 C450 1.399 . S
C451 C452 1.385 . S
C452 H438 0.931 . S
C452 C451 1.385 . S
C452 C453 1.389 . S
C453 C452 1.389 . S
C453 C454 1.387 . S
C454 H439 0.930 . S
C454 C449 1.390 . S
C454 C453 1.387 . S
H455 C467 0.930 . S
H456 C469 0.930 . S
H457 C470 0.930 . S
H458 C474 0.959 . S
H459 C474 0.959 . S
H460 C474 0.961 . S
H461 C475 0.960 . S
H462 C475 0.961 . S
H463 C475 0.959 . S
H464 C478 0.929 . S
H465 C479 0.931 . S
H466 C481 0.930 . S
C467 H455 0.930 . S
C467 C468 1.399 . S
C467 C472 1.399 . S
C468 C467 1.399 . S
C468 C469 1.376 . S
C469 H456 0.930 . S
C469 C468 1.376 . S
C469 C470 1.388 . S
C470 H457 0.930 . S
C470 C469 1.388 . S
C470 C471 1.390 . S
C471 C470 1.390 . S
C471 C472 1.394 . S
C471 C477 1.465 . S
C472 C467 1.399 . S
C472 C471 1.394 . S
C472 C473 1.516 . S
C473 C472 1.516 . S
C473 C474 1.502 . S
C473 C475 1.561 . S
C473 C476 1.526 . S
C474 H458 0.959 . S
C474 H459 0.959 . S
C474 H460 0.961 . S
C474 C473 1.502 . S
C475 H461 0.960 . S
C475 H462 0.961 . S
C475 H463 0.959 . S
C475 C473 1.561 . S
C476 C473 1.526 . S
C476 C477 1.396 . S
C476 C481 1.390 . S
C477 C471 1.465 . S
C477 C476 1.396 . S
C477 C478 1.399 . S
C478 H464 0.929 . S
C478 C477 1.399 . S
C478 C479 1.385 . S
C479 H465 0.931 . S
C479 C478 1.385 . S
C479 C480 1.389 . S
C480 C479 1.389 . S
C480 C481 1.387 . S
C481 H466 0.930 . S
C481 C476 1.390 . S
C481 C480 1.387 . S
H482 C494 0.930 . S
H483 C496 0.930 . S
H484 C497 0.930 . S
H485 C501 0.959 . S
H486 C501 0.959 . S
H487 C501 0.961 . S
H488 C502 0.960 . S
H489 C502 0.961 . S
H490 C502 0.959 . S
H491 C505 0.929 . S
H492 C506 0.931 . S
H493 C508 0.930 . S
C494 H482 0.930 . S
C494 C495 1.399 . S
C494 C499 1.399 . S
C495 C494 1.399 . S
C495 C496 1.376 . S
C496 H483 0.930 . S
C496 C495 1.376 . S
C496 C497 1.388 . S
C497 H484 0.930 . S
C497 C496 1.388 . S
C497 C498 1.390 . S
C498 C497 1.390 . S
C498 C499 1.394 . S
C498 C504 1.465 . S
C499 C494 1.399 . S
C499 C498 1.394 . S
C499 C500 1.516 . S
C500 C499 1.516 . S
C500 C501 1.502 . S
C500 C502 1.561 . S
C500 C503 1.526 . S
C501 H485 0.959 . S
C501 H486 0.959 . S
C501 H487 0.961 . S
C501 C500 1.502 . S
C502 H488 0.960 . S
C502 H489 0.961 . S
C502 H490 0.959 . S
C502 C500 1.561 . S
C503 C500 1.526 . S
C503 C504 1.396 . S
C503 C508 1.390 1_556 S
C504 C498 1.465 . S
C504 C503 1.396 . S
C504 C505 1.399 . S
C505 H491 0.929 . S
C505 C504 1.399 . S
C505 C506 1.385 1_556 S
C506 H492 0.931 . S
C506 C505 1.385 1_554 S
C506 C507 1.389 . S
C507 C506 1.389 . S
C507 C508 1.387 . S
C508 H493 0.930 . S
C508 C503 1.390 1_554 S
C508 C507 1.387 . S
H509 C521 0.930 . S
H510 C523 0.930 . S
H511 C524 0.930 . S
H512 C528 0.959 . S
H513 C528 0.959 . S
H514 C528 0.961 . S
H515 C529 0.960 . S
H516 C529 0.961 . S
H517 C529 0.959 . S
H518 C532 0.929 . S
H519 C533 0.931 . S
H520 C535 0.930 . S
C521 H509 0.930 . S
C521 C522 1.399 1_554 S
C521 C526 1.399 . S
C522 C521 1.399 1_556 S
C522 C523 1.376 . S
C523 H510 0.930 . S
C523 C522 1.376 . S
C523 C524 1.388 1_556 S
C524 H511 0.930 . S
C524 C523 1.388 1_554 S
C524 C525 1.390 . S
C525 C524 1.390 . S
C525 C526 1.394 . S
C525 C531 1.465 . S
C526 C521 1.399 . S
C526 C525 1.394 . S
C526 C527 1.516 . S
C527 C526 1.516 . S
C527 C528 1.502 . S
C527 C529 1.561 . S
C527 C530 1.526 . S
C528 H512 0.959 . S
C528 H513 0.959 . S
C528 H514 0.961 . S
C528 C527 1.502 . S
C529 H515 0.960 . S
C529 H516 0.961 . S
C529 H517 0.959 . S
C529 C527 1.561 . S
C530 C527 1.526 . S
C530 C531 1.396 . S
C530 C535 1.390 . S
C531 C525 1.465 . S
C531 C530 1.396 . S
C531 C532 1.399 . S
C532 H518 0.929 . S
C532 C531 1.399 . S
C532 C533 1.385 . S
C533 H519 0.931 . S
C533 C532 1.385 . S
C533 C534 1.389 . S
C534 C533 1.389 . S
C534 C535 1.387 . S
C535 H520 0.930 . S
C535 C530 1.390 . S
C535 C534 1.387 . S
H536 C548 0.930 . S
H537 C550 0.930 . S
H538 C551 0.930 . S
H539 C555 0.959 . S
H540 C555 0.959 . S
H541 C555 0.961 . S
H542 C556 0.960 . S
H543 C556 0.961 . S
H544 C556 0.959 . S
H545 C559 0.929 . S
H546 C560 0.931 . S
H547 C562 0.930 . S
C548 H536 0.930 . S
C548 C549 1.399 . S
C548 C553 1.399 . S
C549 C548 1.399 . S
C549 C550 1.376 . S
C550 H537 0.930 . S
C550 C549 1.376 . S
C550 C551 1.388 . S
C551 H538 0.930 . S
C551 C550 1.388 . S
C551 C552 1.390 . S
C552 C551 1.390 . S
C552 C553 1.394 . S
C552 C558 1.465 . S
C553 C548 1.399 . S
C553 C552 1.394 . S
C553 C554 1.516 . S
C554 C553 1.516 . S
C554 C555 1.502 . S
C554 C556 1.561 . S
C554 C557 1.526 . S
C555 H539 0.959 . S
C555 H540 0.959 . S
C555 H541 0.961 . S
C555 C554 1.502 . S
C556 H542 0.960 . S
C556 H543 0.961 . S
C556 H544 0.959 . S
C556 C554 1.561 . S
C557 C554 1.526 . S
C557 C558 1.396 . S
C557 C562 1.390 . S
C558 C552 1.465 . S
C558 C557 1.396 . S
C558 C559 1.399 . S
C559 H545 0.929 . S
C559 C558 1.399 . S
C559 C560 1.385 . S
C560 H546 0.931 . S
C560 C559 1.385 . S
C560 C561 1.389 . S
C561 C560 1.389 . S
C561 C562 1.387 . S
C562 H547 0.930 . S
C562 C557 1.390 . S
C562 C561 1.387 . S
H563 C575 0.930 . S
H564 C577 0.930 . S
H565 C578 0.930 . S
H566 C582 0.959 . S
H567 C582 0.959 . S
H568 C582 0.961 . S
H569 C583 0.960 . S
H570 C583 0.961 . S
H571 C583 0.959 . S
H572 C586 0.929 . S
H573 C587 0.931 . S
H574 C589 0.930 . S
C575 H563 0.930 . S
C575 C576 1.399 . S
C575 C580 1.399 . S
C576 C575 1.399 . S
C576 C577 1.376 . S
C577 H564 0.930 . S
C577 C576 1.376 . S
C577 C578 1.388 . S
C578 H565 0.930 . S
C578 C577 1.388 . S
C578 C579 1.390 . S
C579 C578 1.390 . S
C579 C580 1.394 . S
C579 C585 1.465 . S
C580 C575 1.399 . S
C580 C579 1.394 . S
C580 C581 1.516 . S
C581 C580 1.516 . S
C581 C582 1.502 . S
C581 C583 1.561 . S
C581 C584 1.526 . S
C582 H566 0.959 . S
C582 H567 0.959 . S
C582 H568 0.961 . S
C582 C581 1.502 . S
C583 H569 0.960 . S
C583 H570 0.961 . S
C583 H571 0.959 . S
C583 C581 1.561 . S
C584 C581 1.526 . S
C584 C585 1.396 . S
C584 C589 1.390 . S
C585 C579 1.465 . S
C585 C584 1.396 . S
C585 C586 1.399 . S
C586 H572 0.929 . S
C586 C585 1.399 . S
C586 C587 1.385 1_554 S
C587 H573 0.931 . S
C587 C586 1.385 1_556 S
C587 C588 1.389 . S
C588 C587 1.389 . S
C588 C589 1.387 1_556 S
C589 H574 0.930 . S
C589 C584 1.390 . S
C589 C588 1.387 1_554 S
H590 C602 0.930 . S
H591 C604 0.930 . S
H592 C605 0.930 . S
H593 C609 0.959 . S
H594 C609 0.959 . S
H595 C609 0.961 . S
H596 C610 0.960 . S
H597 C610 0.961 . S
H598 C610 0.959 . S
H599 C613 0.929 . S
H600 C614 0.931 . S
H601 C616 0.930 . S
C602 H590 0.930 . S
C602 C603 1.399 . S
C602 C607 1.399 1_554 S
C603 C602 1.399 . S
C603 C604 1.376 . S
C604 H591 0.930 . S
C604 C603 1.376 . S
C604 C605 1.388 1_554 S
C605 H592 0.930 . S
C605 C604 1.388 1_556 S
C605 C606 1.390 . S
C606 C605 1.390 . S
C606 C607 1.394 . S
C606 C612 1.465 . S
C607 C602 1.399 1_556 S
C607 C606 1.394 . S
C607 C608 1.516 . S
C608 C607 1.516 . S
C608 C609 1.502 . S
C608 C610 1.561 . S
C608 C611 1.526 . S
C609 H593 0.959 . S
C609 H594 0.959 . S
C609 H595 0.961 . S
C609 C608 1.502 . S
C610 H596 0.960 . S
C610 H597 0.961 . S
C610 H598 0.959 . S
C610 C608 1.561 . S
C611 C608 1.526 . S
C611 C612 1.396 . S
C611 C616 1.390 . S
C612 C606 1.465 . S
C612 C611 1.396 . S
C612 C613 1.399 . S
C613 H599 0.929 . S
C613 C612 1.399 . S
C613 C614 1.385 . S
C614 H600 0.931 . S
C614 C613 1.385 . S
C614 C615 1.389 . S
C615 C614 1.389 . S
C615 C616 1.387 . S
C616 H601 0.930 . S
C616 C611 1.390 . S
C616 C615 1.387 . S
H617 C629 0.930 . S
H618 C631 0.930 . S
H619 C632 0.930 . S
H620 C636 0.959 . S
H621 C636 0.959 . S
H622 C636 0.961 . S
H623 C637 0.960 . S
H624 C637 0.961 . S
H625 C637 0.959 . S
H626 C640 0.929 . S
H627 C641 0.931 . S
H628 C643 0.930 . S
C629 H617 0.930 . S
C629 C630 1.399 . S
C629 C634 1.399 . S
C630 C629 1.399 . S
C630 C631 1.376 . S
C631 H618 0.930 . S
C631 C630 1.376 . S
C631 C632 1.388 . S
C632 H619 0.930 . S
C632 C631 1.388 . S
C632 C633 1.390 . S
C633 C632 1.390 . S
C633 C634 1.394 . S
C633 C639 1.465 . S
C634 C629 1.399 . S
C634 C633 1.394 . S
C634 C635 1.516 . S
C635 C634 1.516 . S
C635 C636 1.502 . S
C635 C637 1.561 . S
C635 C638 1.526 . S
C636 H620 0.959 . S
C636 H621 0.959 . S
C636 H622 0.961 . S
C636 C635 1.502 . S
C637 H623 0.960 . S
C637 H624 0.961 . S
C637 H625 0.959 . S
C637 C635 1.561 . S
C638 C635 1.526 . S
C638 C639 1.396 . S
C638 C643 1.390 . S
C639 C633 1.465 . S
C639 C638 1.396 . S
C639 C640 1.399 . S
C640 H626 0.929 . S
C640 C639 1.399 . S
C640 C641 1.385 . S
C641 H627 0.931 . S
C641 C640 1.385 . S
C641 C642 1.389 . S
C642 C641 1.389 . S
C642 C643 1.387 . S
C643 H628 0.930 . S
C643 C638 1.390 . S
C643 C642 1.387 . S
H644 C656 0.930 . S
H645 C658 0.930 . S
H646 C659 0.930 . S
H647 C663 0.959 . S
H648 C663 0.959 . S
H649 C663 0.961 . S
H650 C664 0.960 . S
H651 C664 0.961 . S
H652 C664 0.959 . S
H653 C667 0.929 . S
H654 C668 0.931 . S
H655 C670 0.930 . S
C656 H644 0.930 . S
C656 C657 1.399 . S
C656 C661 1.399 . S
C657 C656 1.399 . S
C657 C658 1.376 . S
C658 H645 0.930 . S
C658 C657 1.376 . S
C658 C659 1.388 . S
C659 H646 0.930 . S
C659 C658 1.388 . S
C659 C660 1.390 . S
C660 C659 1.390 . S
C660 C661 1.394 . S
C660 C666 1.465 . S
C661 C656 1.399 . S
C661 C660 1.394 . S
C661 C662 1.516 . S
C662 C661 1.516 . S
C662 C663 1.502 . S
C662 C664 1.561 . S
C662 C665 1.526 . S
C663 H647 0.959 . S
C663 H648 0.959 . S
C663 H649 0.961 . S
C663 C662 1.502 . S
C664 H650 0.960 . S
C664 H651 0.961 . S
C664 H652 0.959 . S
C664 C662 1.561 . S
C665 C662 1.526 . S
C665 C666 1.396 . S
C665 C670 1.390 . S
C666 C660 1.465 . S
C666 C665 1.396 . S
C666 C667 1.399 . S
C667 H653 0.929 . S
C667 C666 1.399 . S
C667 C668 1.385 . S
C668 H654 0.931 . S
C668 C667 1.385 . S
C668 C669 1.389 . S
C669 C668 1.389 . S
C669 C670 1.387 . S
C670 H655 0.930 . S
C670 C665 1.390 . S
C670 C669 1.387 . S
H671 C683 0.930 . S
H672 C685 0.930 . S
H673 C686 0.930 . S
H674 C690 0.959 . S
H675 C690 0.959 . S
H676 C690 0.961 . S
H677 C691 0.960 . S
H678 C691 0.961 . S
H679 C691 0.959 . S
H680 C694 0.929 . S
H681 C695 0.931 . S
H682 C697 0.930 . S
C683 H671 0.930 . S
C683 C684 1.399 . S
C683 C688 1.399 . S
C684 C683 1.399 . S
C684 C685 1.376 . S
C685 H672 0.930 . S
C685 C684 1.376 . S
C685 C686 1.388 . S
C686 H673 0.930 . S
C686 C685 1.388 . S
C686 C687 1.390 . S
C687 C686 1.390 . S
C687 C688 1.394 . S
C687 C693 1.465 . S
C688 C683 1.399 . S
C688 C687 1.394 . S
C688 C689 1.516 . S
C689 C688 1.516 . S
C689 C690 1.502 . S
C689 C691 1.561 . S
C689 C692 1.526 . S
C690 H674 0.959 . S
C690 H675 0.959 . S
C690 H676 0.961 . S
C690 C689 1.502 . S
C691 H677 0.960 . S
C691 H678 0.961 . S
C691 H679 0.959 . S
C691 C689 1.561 . S
C692 C689 1.526 . S
C692 C693 1.396 . S
C692 C697 1.390 . S
C693 C687 1.465 . S
C693 C692 1.396 . S
C693 C694 1.399 . S
C694 H680 0.929 . S
C694 C693 1.399 . S
C694 C695 1.385 . S
C695 H681 0.931 . S
C695 C694 1.385 . S
C695 C696 1.389 . S
C696 C695 1.389 . S
C696 C697 1.387 . S
C697 H682 0.930 . S
C697 C692 1.390 . S
C697 C696 1.387 . S
H698 C710 0.930 . S
H699 C712 0.930 . S
H700 C713 0.930 . S
H701 C717 0.959 . S
H702 C717 0.959 . S
H703 C717 0.961 . S
H704 C718 0.960 . S
H705 C718 0.961 . S
H706 C718 0.959 . S
H707 C721 0.929 . S
H708 C722 0.931 . S
H709 C724 0.930 . S
C710 H698 0.930 . S
C710 C711 1.399 . S
C710 C715 1.399 . S
C711 C710 1.399 . S
C711 C712 1.376 . S
C712 H699 0.930 . S
C712 C711 1.376 . S
C712 C713 1.388 . S
C713 H700 0.930 . S
C713 C712 1.388 . S
C713 C714 1.390 . S
C714 C713 1.390 . S
C714 C715 1.394 . S
C714 C720 1.465 . S
C715 C710 1.399 . S
C715 C714 1.394 . S
C715 C716 1.516 . S
C716 C715 1.516 . S
C716 C717 1.502 . S
C716 C718 1.561 . S
C716 C719 1.526 . S
C717 H701 0.959 . S
C717 H702 0.959 . S
C717 H703 0.961 . S
C717 C716 1.502 . S
C718 H704 0.960 . S
C718 H705 0.961 . S
C718 H706 0.959 . S
C718 C716 1.561 . S
C719 C716 1.526 . S
C719 C720 1.396 . S
C719 C724 1.390 1_554 S
C720 C714 1.465 . S
C720 C719 1.396 . S
C720 C721 1.399 . S
C721 H707 0.929 . S
C721 C720 1.399 . S
C721 C722 1.385 1_554 S
C722 H708 0.931 . S
C722 C721 1.385 1_556 S
C722 C723 1.389 . S
C723 C722 1.389 . S
C723 C724 1.387 . S
C724 H709 0.930 . S
C724 C719 1.390 1_556 S
C724 C723 1.387 . S
H725 C737 0.930 . S
H726 C739 0.930 . S
H727 C740 0.930 . S
H728 C744 0.959 . S
H729 C744 0.959 . S
H730 C744 0.961 . S
H731 C745 0.960 . S
H732 C745 0.961 . S
H733 C745 0.959 . S
H734 C748 0.929 . S
H735 C749 0.931 . S
H736 C751 0.930 . S
C737 H725 0.930 . S
C737 C738 1.399 . S
C737 C742 1.399 1_554 S
C738 C737 1.399 . S
C738 C739 1.376 . S
C739 H726 0.930 . S
C739 C738 1.376 . S
C739 C740 1.388 1_554 S
C740 H727 0.930 . S
C740 C739 1.388 1_556 S
C740 C741 1.390 . S
C741 C740 1.390 . S
C741 C742 1.394 . S
C741 C747 1.465 . S
C742 C737 1.399 1_556 S
C742 C741 1.394 . S
C742 C743 1.516 . S
C743 C742 1.516 . S
C743 C744 1.502 . S
C743 C745 1.561 . S
C743 C746 1.526 . S
C744 H728 0.959 . S
C744 H729 0.959 . S
C744 H730 0.961 . S
C744 C743 1.502 . S
C745 H731 0.960 . S
C745 H732 0.961 . S
C745 H733 0.959 . S
C745 C743 1.561 . S
C746 C743 1.526 . S
C746 C747 1.396 . S
C746 C751 1.390 . S
C747 C741 1.465 . S
C747 C746 1.396 . S
C747 C748 1.399 . S
C748 H734 0.929 . S
C748 C747 1.399 . S
C748 C749 1.385 . S
C749 H735 0.931 . S
C749 C748 1.385 . S
C749 C750 1.389 . S
C750 C749 1.389 . S
C750 C751 1.387 . S
C751 H736 0.930 . S
C751 C746 1.390 . S
C751 C750 1.387 . S
H752 C764 0.930 . S
H753 C766 0.930 . S
H754 C767 0.930 . S
H755 C771 0.959 . S
H756 C771 0.959 . S
H757 C771 0.961 . S
H758 C772 0.960 1_556 S
H759 C772 0.961 1_556 S
H760 C772 0.959 . S
H761 C775 0.929 . S
H762 C776 0.931 . S
H763 C778 0.930 . S
C764 H752 0.930 . S
C764 C765 1.399 . S
C764 C769 1.399 . S
C765 C764 1.399 . S
C765 C766 1.376 . S
C766 H753 0.930 . S
C766 C765 1.376 . S
C766 C767 1.388 . S
C767 H754 0.930 . S
C767 C766 1.388 . S
C767 C768 1.390 . S
C768 C767 1.390 . S
C768 C769 1.394 . S
C768 C774 1.465 . S
C769 C764 1.399 . S
C769 C768 1.394 . S
C769 C770 1.516 . S
C770 C769 1.516 . S
C770 C771 1.502 . S
C770 C772 1.561 . S
C770 C773 1.526 . S
C771 H755 0.959 . S
C771 H756 0.959 . S
C771 H757 0.961 . S
C771 C770 1.502 . S
C772 H758 0.960 1_554 S
C772 H759 0.961 1_554 S
C772 H760 0.959 . S
C772 C770 1.561 . S
C773 C770 1.526 . S
C773 C774 1.396 . S
C773 C778 1.390 . S
C774 C768 1.465 . S
C774 C773 1.396 . S
C774 C775 1.399 . S
C775 H761 0.929 . S
C775 C774 1.399 . S
C775 C776 1.385 . S
C776 H762 0.931 . S
C776 C775 1.385 . S
C776 C777 1.389 . S
C777 C776 1.389 . S
C777 C778 1.387 . S
C778 H763 0.930 . S
C778 C773 1.390 . S
C778 C777 1.387 . S
H779 C791 0.930 . S
H780 C793 0.930 . S
H781 C794 0.930 . S
H782 C798 0.959 . S
H783 C798 0.959 . S
H784 C798 0.961 . S
H785 C799 0.960 . S
H786 C799 0.961 . S
H787 C799 0.959 . S
H788 C802 0.929 . S
H789 C803 0.931 . S
H790 C805 0.930 . S
C791 H779 0.930 . S
C791 C792 1.399 . S
C791 C796 1.399 . S
C792 C791 1.399 . S
C792 C793 1.376 . S
C793 H780 0.930 . S
C793 C792 1.376 . S
C793 C794 1.388 . S
C794 H781 0.930 . S
C794 C793 1.388 . S
C794 C795 1.390 . S
C795 C794 1.390 . S
C795 C796 1.394 . S
C795 C801 1.465 . S
C796 C791 1.399 . S
C796 C795 1.394 . S
C796 C797 1.516 . S
C797 C796 1.516 . S
C797 C798 1.502 . S
C797 C799 1.561 . S
C797 C800 1.526 . S
C798 H782 0.959 . S
C798 H783 0.959 . S
C798 H784 0.961 . S
C798 C797 1.502 . S
C799 H785 0.960 . S
C799 H786 0.961 . S
C799 H787 0.959 . S
C799 C797 1.561 . S
C800 C797 1.526 . S
C800 C801 1.396 . S
C800 C805 1.390 . S
C801 C795 1.465 . S
C801 C800 1.396 . S
C801 C802 1.399 . S
C802 H788 0.929 . S
C802 C801 1.399 . S
C802 C803 1.385 . S
C803 H789 0.931 . S
C803 C802 1.385 . S
C803 C804 1.389 . S
C804 C803 1.389 . S
C804 C805 1.387 . S
C805 H790 0.930 . S
C805 C800 1.390 . S
C805 C804 1.387 . S
H806 C818 0.930 . S
H807 C820 0.930 . S
H808 C821 0.930 . S
H809 C825 0.959 . S
H810 C825 0.959 . S
H811 C825 0.961 . S
H812 C826 0.960 . S
H813 C826 0.961 . S
H814 C826 0.959 . S
H815 C829 0.929 . S
H816 C830 0.931 . S
H817 C832 0.930 . S
C818 H806 0.930 . S
C818 C819 1.399 . S
C818 C823 1.399 . S
C819 C818 1.399 . S
C819 C820 1.376 . S
C820 H807 0.930 . S
C820 C819 1.376 . S
C820 C821 1.388 . S
C821 H808 0.930 . S
C821 C820 1.388 . S
C821 C822 1.390 . S
C822 C821 1.390 . S
C822 C823 1.394 . S
C822 C828 1.465 . S
C823 C818 1.399 . S
C823 C822 1.394 . S
C823 C824 1.516 . S
C824 C823 1.516 . S
C824 C825 1.502 . S
C824 C826 1.561 . S
C824 C827 1.526 . S
C825 H809 0.959 . S
C825 H810 0.959 . S
C825 H811 0.961 . S
C825 C824 1.502 . S
C826 H812 0.960 . S
C826 H813 0.961 . S
C826 H814 0.959 . S
C826 C824 1.561 . S
C827 C824 1.526 . S
C827 C828 1.396 . S
C827 C832 1.390 . S
C828 C822 1.465 . S
C828 C827 1.396 . S
C828 C829 1.399 . S
C829 H815 0.929 . S
C829 C828 1.399 . S
C829 C830 1.385 . S
C830 H816 0.931 . S
C830 C829 1.385 . S
C830 C831 1.389 . S
C831 C830 1.389 . S
C831 C832 1.387 . S
C832 H817 0.930 . S
C832 C827 1.390 . S
C832 C831 1.387 . S
H833 C845 0.930 . S
H834 C847 0.930 . S
H835 C848 0.930 . S
H836 C852 0.962 1_556 S
H837 C852 0.979 . S
H838 C852 0.940 1_655 S
H839 C853 0.958 1_655 S
H840 C853 0.963 . S
H841 C853 0.959 . S
H842 C856 0.929 . S
H843 C857 0.931 . S
H844 C859 0.930 . S
C845 H833 0.930 . S
C845 C846 1.399 . S
C845 C850 1.399 . S
C846 C845 1.399 . S
C846 C847 1.376 . S
C847 H834 0.930 . S
C847 C846 1.376 . S
C847 C848 1.388 . S
C848 H835 0.930 . S
C848 C847 1.388 . S
C848 C849 1.390 . S
C849 C848 1.390 . S
C849 C850 1.394 . S
C849 C855 1.465 1_655 S
C850 C845 1.399 . S
C850 C849 1.394 . S
C850 C851 1.517 1_655 S
C851 C850 1.517 1_455 S
C851 C852 1.502 1_556 S
C851 C853 1.561 1_556 S
C851 C854 1.525 . S
C852 H836 0.962 1_554 S
C852 H837 0.979 . S
C852 H838 0.940 1_455 S
C852 C851 1.502 1_554 S
C853 H839 0.958 1_455 S
C853 H840 0.963 . S
C853 H841 0.959 . S
C853 C851 1.561 1_554 S
C854 C851 1.525 . S
C854 C855 1.396 . S
C854 C859 1.390 . S
C855 C849 1.465 1_455 S
C855 C854 1.396 . S
C855 C856 1.399 . S
C856 H842 0.929 . S
C856 C855 1.399 . S
C856 C857 1.385 . S
C857 H843 0.931 . S
C857 C856 1.385 . S
C857 C858 1.389 . S
C858 C857 1.389 . S
C858 C859 1.387 . S
C859 H844 0.930 . S
C859 C854 1.390 . S
C859 C858 1.387 . S
H860 C872 0.930 . S
H861 C874 0.930 . S
H862 C875 0.930 . S
H863 C879 0.959 . S
H864 C879 0.959 1_554 S
H865 C879 0.961 1_554 S
H866 C880 0.960 . S
H867 C880 0.961 . S
H868 C880 0.959 . S
H869 C883 0.929 . S
H870 C884 0.931 . S
H871 C886 0.930 . S
C872 H860 0.930 . S
C872 C873 1.399 . S
C872 C877 1.399 . S
C873 C872 1.399 . S
C873 C874 1.376 . S
C874 H861 0.930 . S
C874 C873 1.376 . S
C874 C875 1.388 . S
C875 H862 0.930 . S
C875 C874 1.388 . S
C875 C876 1.390 . S
C876 C875 1.390 . S
C876 C877 1.394 . S
C876 C882 1.465 . S
C877 C872 1.399 . S
C877 C876 1.394 . S
C877 C878 1.516 . S
C878 C877 1.516 . S
C878 C879 1.502 . S
C878 C880 1.561 . S
C878 C881 1.526 . S
C879 H863 0.959 . S
C879 H864 0.959 1_556 S
C879 H865 0.961 1_556 S
C879 C878 1.502 . S
C880 H866 0.960 . S
C880 H867 0.961 . S
C880 H868 0.959 . S
C880 C878 1.561 . S
C881 C878 1.526 . S
C881 C882 1.396 . S
C881 C886 1.390 . S
C882 C876 1.465 . S
C882 C881 1.396 . S
C882 C883 1.399 . S
C883 H869 0.929 . S
C883 C882 1.399 . S
C883 C884 1.385 . S
C884 H870 0.931 . S
C884 C883 1.385 . S
C884 C885 1.389 . S
C885 C884 1.389 . S
C885 C886 1.387 . S
C886 H871 0.930 . S
C886 C881 1.390 . S
C886 C885 1.387 . S
H887 C899 0.930 . S
H888 C901 0.930 . S
H889 C902 0.930 . S
H890 C906 0.962 . S
H891 C906 0.979 1_556 S
H892 C906 0.940 1_456 S
H893 C907 0.958 1_455 S
H894 C907 0.963 . S
H895 C907 0.959 . S
H896 C910 0.929 . S
H897 C911 0.931 . S
H898 C913 0.930 . S
C899 H887 0.930 . S
C899 C900 1.399 . S
C899 C904 1.399 . S
C900 C899 1.399 . S
C900 C901 1.376 . S
C901 H888 0.930 . S
C901 C900 1.376 . S
C901 C902 1.388 . S
C902 H889 0.930 . S
C902 C901 1.388 . S
C902 C903 1.390 . S
C903 C902 1.390 . S
C903 C904 1.394 . S
C903 C909 1.465 1_455 S
C904 C899 1.399 . S
C904 C903 1.394 . S
C904 C905 1.517 1_455 S
C905 C904 1.517 1_655 S
C905 C906 1.502 . S
C905 C907 1.561 1_554 S
C905 C908 1.525 . S
C906 H890 0.962 . S
C906 H891 0.979 1_554 S
C906 H892 0.940 1_654 S
C906 C905 1.502 . S
C907 H893 0.958 1_655 S
C907 H894 0.963 . S
C907 H895 0.959 . S
C907 C905 1.561 1_556 S
C908 C905 1.525 . S
C908 C909 1.396 . S
C908 C913 1.390 . S
C909 C903 1.465 1_655 S
C909 C908 1.396 . S
C909 C910 1.399 . S
C910 H896 0.929 . S
C910 C909 1.399 . S
C910 C911 1.385 . S
C911 H897 0.931 . S
C911 C910 1.385 . S
C911 C912 1.389 . S
C912 C911 1.389 . S
C912 C913 1.387 . S
C913 H898 0.930 . S
C913 C908 1.390 . S
C913 C912 1.387 . S
H914 C926 0.930 . S
H915 C928 0.930 . S
H916 C929 0.930 . S
H917 C933 0.959 . S
H918 C933 0.959 . S
H919 C933 0.961 . S
H920 C934 0.960 . S
H921 C934 0.961 . S
H922 C934 0.959 . S
H923 C937 0.929 . S
H924 C938 0.931 . S
H925 C940 0.930 . S
C926 H914 0.930 . S
C926 C927 1.399 . S
C926 C931 1.399 . S
C927 C926 1.399 . S
C927 C928 1.376 . S
C928 H915 0.930 . S
C928 C927 1.376 . S
C928 C929 1.388 . S
C929 H916 0.930 . S
C929 C928 1.388 . S
C929 C930 1.390 . S
C930 C929 1.390 . S
C930 C931 1.394 . S
C930 C936 1.465 . S
C931 C926 1.399 . S
C931 C930 1.394 . S
C931 C932 1.516 . S
C932 C931 1.516 . S
C932 C933 1.502 . S
C932 C934 1.561 . S
C932 C935 1.526 . S
C933 H917 0.959 . S
C933 H918 0.959 . S
C933 H919 0.961 . S
C933 C932 1.502 . S
C934 H920 0.960 . S
C934 H921 0.961 . S
C934 H922 0.959 . S
C934 C932 1.561 . S
C935 C932 1.526 . S
C935 C936 1.396 . S
C935 C940 1.390 . S
C936 C930 1.465 . S
C936 C935 1.396 . S
C936 C937 1.399 . S
C937 H923 0.929 . S
C937 C936 1.399 . S
C937 C938 1.385 . S
C938 H924 0.931 . S
C938 C937 1.385 . S
C938 C939 1.389 . S
C939 C938 1.389 . S
C939 C940 1.387 . S
C940 H925 0.930 . S
C940 C935 1.390 . S
C940 C939 1.387 . S
H941 C953 0.930 . S
H942 C955 0.930 . S
H943 C956 0.930 . S
H944 C960 0.959 . S
H945 C960 0.959 . S
H946 C960 0.961 . S
H947 C961 0.960 . S
H948 C961 0.961 . S
H949 C961 0.959 . S
H950 C964 0.929 . S
H951 C965 0.931 . S
H952 C967 0.930 . S
C953 H941 0.930 . S
C953 C954 1.399 . S
C953 C958 1.399 . S
C954 C953 1.399 . S
C954 C955 1.376 . S
C955 H942 0.930 . S
C955 C954 1.376 . S
C955 C956 1.388 . S
C956 H943 0.930 . S
C956 C955 1.388 . S
C956 C957 1.390 . S
C957 C956 1.390 . S
C957 C958 1.394 . S
C957 C963 1.465 . S
C958 C953 1.399 . S
C958 C957 1.394 . S
C958 C959 1.516 . S
C959 C958 1.516 . S
C959 C960 1.502 . S
C959 C961 1.561 . S
C959 C962 1.526 . S
C960 H944 0.959 . S
C960 H945 0.959 . S
C960 H946 0.961 . S
C960 C959 1.502 . S
C961 H947 0.960 . S
C961 H948 0.961 . S
C961 H949 0.959 . S
C961 C959 1.561 . S
C962 C959 1.526 . S
C962 C963 1.396 . S
C962 C967 1.390 . S
C963 C957 1.465 . S
C963 C962 1.396 . S
C963 C964 1.399 . S
C964 H950 0.929 . S
C964 C963 1.399 . S
C964 C965 1.385 . S
C965 H951 0.931 . S
C965 C964 1.385 . S
C965 C966 1.389 . S
C966 C965 1.389 . S
C966 C967 1.387 . S
C967 H952 0.930 . S
C967 C962 1.390 . S
C967 C966 1.387 . S
H968 C980 0.930 . S
H969 C982 0.930 . S
H970 C983 0.930 . S
H971 C987 0.959 . S
H972 C987 0.959 . S
H973 C987 0.961 . S
H974 C988 0.960 1_554 S
H975 C988 0.961 1_554 S
H976 C988 0.959 . S
H977 C991 0.929 . S
H978 C992 0.931 . S
H979 C994 0.930 . S
C980 H968 0.930 . S
C980 C981 1.399 . S
C980 C985 1.399 . S
C981 C980 1.399 . S
C981 C982 1.376 . S
C982 H969 0.930 . S
C982 C981 1.376 . S
C982 C983 1.388 . S
C983 H970 0.930 . S
C983 C982 1.388 . S
C983 C984 1.390 . S
C984 C983 1.390 . S
C984 C985 1.394 . S
C984 C990 1.465 . S
C985 C980 1.399 . S
C985 C984 1.394 . S
C985 C986 1.516 . S
C986 C985 1.516 . S
C986 C987 1.502 . S
C986 C988 1.561 . S
C986 C989 1.526 . S
C987 H971 0.959 . S
C987 H972 0.959 . S
C987 H973 0.961 . S
C987 C986 1.502 . S
C988 H974 0.960 1_556 S
C988 H975 0.961 1_556 S
C988 H976 0.959 . S
C988 C986 1.561 . S
C989 C986 1.526 . S
C989 C990 1.396 . S
C989 C994 1.390 . S
C990 C984 1.465 . S
C990 C989 1.396 . S
C990 C991 1.399 . S
C991 H977 0.929 . S
C991 C990 1.399 . S
C991 C992 1.385 . S
C992 H978 0.931 . S
C992 C991 1.385 . S
C992 C993 1.389 . S
C993 C992 1.389 . S
C993 C994 1.387 . S
C994 H979 0.930 . S
C994 C989 1.390 . S
C994 C993 1.387 . S
H995 C1007 0.930 . S
H996 C1009 0.930 . S
H997 C1010 0.930 . S
H998 C1014 0.959 . S
H999 C1014 0.959 . S
H1000 C1014 0.961 . S
H1001 C1015 0.960 . S
H1002 C1015 0.961 . S
H1003 C1015 0.959 . S
H1004 C1018 0.929 . S
H1005 C1019 0.931 . S
H1006 C1021 0.930 . S
C1007 H995 0.930 . S
C1007 C1008 1.399 . S
C1007 C1012 1.399 . S
C1008 C1007 1.399 . S
C1008 C1009 1.376 . S
C1009 H996 0.930 . S
C1009 C1008 1.376 . S
C1009 C1010 1.388 . S
C1010 H997 0.930 . S
C1010 C1009 1.388 . S
C1010 C1011 1.390 . S
C1011 C1010 1.390 . S
C1011 C1012 1.394 . S
C1011 C1017 1.465 . S
C1012 C1007 1.399 . S
C1012 C1011 1.394 . S
C1012 C1013 1.516 . S
C1013 C1012 1.516 . S
C1013 C1014 1.502 . S
C1013 C1015 1.561 . S
C1013 C1016 1.526 . S
C1014 H998 0.959 . S
C1014 H999 0.959 . S
C1014 H1000 0.961 . S
C1014 C1013 1.502 . S
C1015 H1001 0.960 . S
C1015 H1002 0.961 . S
C1015 H1003 0.959 . S
C1015 C1013 1.561 . S
C1016 C1013 1.526 . S
C1016 C1017 1.396 . S
C1016 C1021 1.390 . S
C1017 C1011 1.465 . S
C1017 C1016 1.396 . S
C1017 C1018 1.399 . S
C1018 H1004 0.929 . S
C1018 C1017 1.399 . S
C1018 C1019 1.385 . S
C1019 H1005 0.931 . S
C1019 C1018 1.385 . S
C1019 C1020 1.389 . S
C1020 C1019 1.389 . S
C1020 C1021 1.387 . S
C1021 H1006 0.930 . S
C1021 C1016 1.390 . S
C1021 C1020 1.387 . S
H1022 C1034 0.930 . S
H1023 C1036 0.930 . S
H1024 C1037 0.930 . S
H1025 C1041 0.959 . S
H1026 C1041 0.959 . S
H1027 C1041 0.961 . S
H1028 C1042 0.960 . S
H1029 C1042 0.961 . S
H1030 C1042 0.959 . S
H1031 C1045 0.929 . S
H1032 C1046 0.931 . S
H1033 C1048 0.930 . S
C1034 H1022 0.930 . S
C1034 C1035 1.399 . S
C1034 C1039 1.399 . S
C1035 C1034 1.399 . S
C1035 C1036 1.376 . S
C1036 H1023 0.930 . S
C1036 C1035 1.376 . S
C1036 C1037 1.388 . S
C1037 H1024 0.930 . S
C1037 C1036 1.388 . S
C1037 C1038 1.390 . S
C1038 C1037 1.390 . S
C1038 C1039 1.394 . S
C1038 C1044 1.465 . S
C1039 C1034 1.399 . S
C1039 C1038 1.394 . S
C1039 C1040 1.516 . S
C1040 C1039 1.516 . S
C1040 C1041 1.502 . S
C1040 C1042 1.561 . S
C1040 C1043 1.526 . S
C1041 H1025 0.959 . S
C1041 H1026 0.959 . S
C1041 H1027 0.961 . S
C1041 C1040 1.502 . S
C1042 H1028 0.960 . S
C1042 H1029 0.961 . S
C1042 H1030 0.959 . S
C1042 C1040 1.561 . S
C1043 C1040 1.526 . S
C1043 C1044 1.396 . S
C1043 C1048 1.390 . S
C1044 C1038 1.465 . S
C1044 C1043 1.396 . S
C1044 C1045 1.399 . S
C1045 H1031 0.929 . S
C1045 C1044 1.399 . S
C1045 C1046 1.385 . S
C1046 H1032 0.931 . S
C1046 C1045 1.385 . S
C1046 C1047 1.389 . S
C1047 C1046 1.389 . S
C1047 C1048 1.387 . S
C1048 H1033 0.930 . S
C1048 C1043 1.390 . S
C1048 C1047 1.387 . S
H1049 C1061 0.930 . S
H1050 C1063 0.930 . S
H1051 C1064 0.930 . S
H1052 C1068 0.959 . S
H1053 C1068 0.959 . S
H1054 C1068 0.961 . S
H1055 C1069 0.960 . S
H1056 C1069 0.961 . S
H1057 C1069 0.959 . S
H1058 C1072 0.929 . S
H1059 C1073 0.931 . S
H1060 C1075 0.930 . S
C1061 H1049 0.930 . S
C1061 C1062 1.399 . S
C1061 C1066 1.399 . S
C1062 C1061 1.399 . S
C1062 C1063 1.376 . S
C1063 H1050 0.930 . S
C1063 C1062 1.376 . S
C1063 C1064 1.388 . S
C1064 H1051 0.930 . S
C1064 C1063 1.388 . S
C1064 C1065 1.390 . S
C1065 C1064 1.390 . S
C1065 C1066 1.394 . S
C1065 C1071 1.465 . S
C1066 C1061 1.399 . S
C1066 C1065 1.394 . S
C1066 C1067 1.516 . S
C1067 C1066 1.516 . S
C1067 C1068 1.502 . S
C1067 C1069 1.561 . S
C1067 C1070 1.526 . S
C1068 H1052 0.959 . S
C1068 H1053 0.959 . S
C1068 H1054 0.961 . S
C1068 C1067 1.502 . S
C1069 H1055 0.960 . S
C1069 H1056 0.961 . S
C1069 H1057 0.959 . S
C1069 C1067 1.561 . S
C1070 C1067 1.526 . S
C1070 C1071 1.396 . S
C1070 C1075 1.390 . S
C1071 C1065 1.465 . S
C1071 C1070 1.396 . S
C1071 C1072 1.399 . S
C1072 H1058 0.929 . S
C1072 C1071 1.399 . S
C1072 C1073 1.385 . S
C1073 H1059 0.931 . S
C1073 C1072 1.385 . S
C1073 C1074 1.389 . S
C1074 C1073 1.389 . S
C1074 C1075 1.387 . S
C1075 H1060 0.930 . S
C1075 C1070 1.390 . S
C1075 C1074 1.387 . S
H1076 C1088 0.930 1_554 S
H1077 C1090 0.930 . S
H1078 C1091 0.930 . S
H1079 C1095 0.962 . S
H1080 C1095 0.979 . S
H1081 C1095 0.940 1_655 S
H1082 C1096 0.958 1_655 S
H1083 C1096 0.963 . S
H1084 C1096 0.959 . S
H1085 C1099 0.929 . S
H1086 C1100 0.931 . S
H1087 C1102 0.930 1_554 S
C1088 H1076 0.930 1_556 S
C1088 C1089 1.399 . S
C1088 C1093 1.399 . S
C1089 C1088 1.399 . S
C1089 C1090 1.376 . S
C1090 H1077 0.930 . S
C1090 C1089 1.376 . S
C1090 C1091 1.388 . S
C1091 H1078 0.930 . S
C1091 C1090 1.388 . S
C1091 C1092 1.390 . S
C1092 C1091 1.390 . S
C1092 C1093 1.394 . S
C1092 C1098 1.465 1_655 S
C1093 C1088 1.399 . S
C1093 C1092 1.394 . S
C1093 C1094 1.517 1_656 S
C1094 C1093 1.517 1_454 S
C1094 C1095 1.502 . S
C1094 C1096 1.561 . S
C1094 C1097 1.525 1_554 S
C1095 H1079 0.962 . S
C1095 H1080 0.979 . S
C1095 H1081 0.940 1_455 S
C1095 C1094 1.502 . S
C1096 H1082 0.958 1_455 S
C1096 H1083 0.963 . S
C1096 H1084 0.959 . S
C1096 C1094 1.561 . S
C1097 C1094 1.525 1_556 S
C1097 C1098 1.396 . S
C1097 C1102 1.390 . S
C1098 C1092 1.465 1_455 S
C1098 C1097 1.396 . S
C1098 C1099 1.399 . S
C1099 H1085 0.929 . S
C1099 C1098 1.399 . S
C1099 C1100 1.385 . S
C1100 H1086 0.931 . S
C1100 C1099 1.385 . S
C1100 C1101 1.389 . S
C1101 C1100 1.389 . S
C1101 C1102 1.387 . S
C1102 H1087 0.930 1_556 S
C1102 C1097 1.390 . S
C1102 C1101 1.387 . S
H1103 C1115 0.930 . S
H1104 C1117 0.930 . S
H1105 C1118 0.930 . S
H1106 C1122 0.959 . S
H1107 C1122 0.959 . S
H1108 C1122 0.961 . S
H1109 C1123 0.960 . S
H1110 C1123 0.961 . S
H1111 C1123 0.959 . S
H1112 C1126 0.929 . S
H1113 C1127 0.931 . S
H1114 C1129 0.930 . S
C1115 H1103 0.930 . S
C1115 C1116 1.399 . S
C1115 C1120 1.399 . S
C1116 C1115 1.399 . S
C1116 C1117 1.376 . S
C1117 H1104 0.930 . S
C1117 C1116 1.376 . S
C1117 C1118 1.388 . S
C1118 H1105 0.930 . S
C1118 C1117 1.388 . S
C1118 C1119 1.390 . S
C1119 C1118 1.390 . S
C1119 C1120 1.394 . S
C1119 C1125 1.465 . S
C1120 C1115 1.399 . S
C1120 C1119 1.394 . S
C1120 C1121 1.516 . S
C1121 C1120 1.516 . S
C1121 C1122 1.502 . S
C1121 C1123 1.561 . S
C1121 C1124 1.526 . S
C1122 H1106 0.959 . S
C1122 H1107 0.959 . S
C1122 H1108 0.961 . S
C1122 C1121 1.502 . S
C1123 H1109 0.960 . S
C1123 H1110 0.961 . S
C1123 H1111 0.959 . S
C1123 C1121 1.561 . S
C1124 C1121 1.526 . S
C1124 C1125 1.396 . S
C1124 C1129 1.390 . S
C1125 C1119 1.465 . S
C1125 C1124 1.396 . S
C1125 C1126 1.399 . S
C1126 H1112 0.929 . S
C1126 C1125 1.399 . S
C1126 C1127 1.385 . S
C1127 H1113 0.931 . S
C1127 C1126 1.385 . S
C1127 C1128 1.389 . S
C1128 C1127 1.389 . S
C1128 C1129 1.387 . S
C1129 H1114 0.930 . S
C1129 C1124 1.390 . S
C1129 C1128 1.387 . S
H1130 C1142 0.930 . S
H1131 C1144 0.930 . S
H1132 C1145 0.930 . S
H1133 C1149 0.959 . S
H1134 C1149 0.959 . S
H1135 C1149 0.961 . S
H1136 C1150 0.960 . S
H1137 C1150 0.961 . S
H1138 C1150 0.959 . S
H1139 C1153 0.929 . S
H1140 C1154 0.931 . S
H1141 C1156 0.930 . S
C1142 H1130 0.930 . S
C1142 C1143 1.399 . S
C1142 C1147 1.399 . S
C1143 C1142 1.399 . S
C1143 C1144 1.376 . S
C1144 H1131 0.930 . S
C1144 C1143 1.376 . S
C1144 C1145 1.388 . S
C1145 H1132 0.930 . S
C1145 C1144 1.388 . S
C1145 C1146 1.390 . S
C1146 C1145 1.390 . S
C1146 C1147 1.394 . S
C1146 C1152 1.465 . S
C1147 C1142 1.399 . S
C1147 C1146 1.394 . S
C1147 C1148 1.516 . S
C1148 C1147 1.516 . S
C1148 C1149 1.502 . S
C1148 C1150 1.561 . S
C1148 C1151 1.526 . S
C1149 H1133 0.959 . S
C1149 H1134 0.959 . S
C1149 H1135 0.961 . S
C1149 C1148 1.502 . S
C1150 H1136 0.960 . S
C1150 H1137 0.961 . S
C1150 H1138 0.959 . S
C1150 C1148 1.561 . S
C1151 C1148 1.526 . S
C1151 C1152 1.396 . S
C1151 C1156 1.390 . S
C1152 C1146 1.465 . S
C1152 C1151 1.396 . S
C1152 C1153 1.399 . S
C1153 H1139 0.929 . S
C1153 C1152 1.399 . S
C1153 C1154 1.385 . S
C1154 H1140 0.931 . S
C1154 C1153 1.385 . S
C1154 C1155 1.389 . S
C1155 C1154 1.389 . S
C1155 C1156 1.387 . S
C1156 H1141 0.930 . S
C1156 C1151 1.390 . S
C1156 C1155 1.387 . S
H1157 C1169 0.930 . S
H1158 C1171 0.930 . S
H1159 C1172 0.930 . S
H1160 C1176 0.962 . S
H1161 C1176 0.979 . S
H1162 C1176 0.940 1_455 S
H1163 C1177 0.958 1_455 S
H1164 C1177 0.963 . S
H1165 C1177 0.959 . S
H1166 C1180 0.929 . S
H1167 C1181 0.931 . S
H1168 C1183 0.930 . S
C1169 H1157 0.930 . S
C1169 C1170 1.399 . S
C1169 C1174 1.399 . S
C1170 C1169 1.399 . S
C1170 C1171 1.376 1_554 S
C1171 H1158 0.930 . S
C1171 C1170 1.376 1_556 S
C1171 C1172 1.388 . S
C1172 H1159 0.930 . S
C1172 C1171 1.388 . S
C1172 C1173 1.390 1_556 S
C1173 C1172 1.390 1_554 S
C1173 C1174 1.394 . S
C1173 C1179 1.465 1_455 S
C1174 C1169 1.399 . S
C1174 C1173 1.394 . S
C1174 C1175 1.517 1_455 S
C1175 C1174 1.517 1_655 S
C1175 C1176 1.502 . S
C1175 C1177 1.561 . S
C1175 C1178 1.525 . S
C1176 H1160 0.962 . S
C1176 H1161 0.979 . S
C1176 H1162 0.940 1_655 S
C1176 C1175 1.502 . S
C1177 H1163 0.958 1_655 S
C1177 H1164 0.963 . S
C1177 H1165 0.959 . S
C1177 C1175 1.561 . S
C1178 C1175 1.525 . S
C1178 C1179 1.396 . S
C1178 C1183 1.390 . S
C1179 C1173 1.465 1_655 S
C1179 C1178 1.396 . S
C1179 C1180 1.399 1_554 S
C1180 H1166 0.929 . S
C1180 C1179 1.399 1_556 S
C1180 C1181 1.385 . S
C1181 H1167 0.931 . S
C1181 C1180 1.385 . S
C1181 C1182 1.389 1_556 S
C1182 C1181 1.389 1_554 S
C1182 C1183 1.387 . S
C1183 H1168 0.930 . S
C1183 C1178 1.390 . S
C1183 C1182 1.387 . S
H1184 C1196 0.930 1_556 S
H1185 C1198 0.930 . S
H1186 C1199 0.930 . S
H1187 C1203 0.959 . S
H1188 C1203 0.959 . S
H1189 C1203 0.961 . S
H1190 C1204 0.960 . S
H1191 C1204 0.961 . S
H1192 C1204 0.959 . S
H1193 C1207 0.929 . S
H1194 C1208 0.931 . S
H1195 C1210 0.930 . S
C1196 H1184 0.930 1_554 S
C1196 C1197 1.399 . S
C1196 C1201 1.399 1_554 S
C1197 C1196 1.399 . S
C1197 C1198 1.376 . S
C1198 H1185 0.930 . S
C1198 C1197 1.376 . S
C1198 C1199 1.388 . S
C1199 H1186 0.930 . S
C1199 C1198 1.388 . S
C1199 C1200 1.390 . S
C1200 C1199 1.390 . S
C1200 C1201 1.394 1_554 S
C1200 C1206 1.465 . S
C1201 C1196 1.399 1_556 S
C1201 C1200 1.394 1_556 S
C1201 C1202 1.516 . S
C1202 C1201 1.516 . S
C1202 C1203 1.502 . S
C1202 C1204 1.561 . S
C1202 C1205 1.526 . S
C1203 H1187 0.959 . S
C1203 H1188 0.959 . S
C1203 H1189 0.961 . S
C1203 C1202 1.502 . S
C1204 H1190 0.960 . S
C1204 H1191 0.961 . S
C1204 H1192 0.959 . S
C1204 C1202 1.561 . S
C1205 C1202 1.526 . S
C1205 C1206 1.396 1_556 S
C1205 C1210 1.390 . S
C1206 C1200 1.465 . S
C1206 C1205 1.396 1_554 S
C1206 C1207 1.399 . S
C1207 H1193 0.929 . S
C1207 C1206 1.399 . S
C1207 C1208 1.385 . S
C1208 H1194 0.931 . S
C1208 C1207 1.385 . S
C1208 C1209 1.389 1_554 S
C1209 C1208 1.389 1_556 S
C1209 C1210 1.387 . S
C1210 H1195 0.930 . S
C1210 C1205 1.390 . S
C1210 C1209 1.387 . S
H1211 C1223 0.930 . S
H1212 C1225 0.930 . S
H1213 C1226 0.930 . S
H1214 C1230 0.959 . S
H1215 C1230 0.959 . S
H1216 C1230 0.961 . S
H1217 C1231 0.960 . S
H1218 C1231 0.961 . S
H1219 C1231 0.959 . S
H1220 C1234 0.929 . S
H1221 C1235 0.931 . S
H1222 C1237 0.930 . S
C1223 H1211 0.930 . S
C1223 C1224 1.399 . S
C1223 C1228 1.399 . S
C1224 C1223 1.399 . S
C1224 C1225 1.376 . S
C1225 H1212 0.930 . S
C1225 C1224 1.376 . S
C1225 C1226 1.388 . S
C1226 H1213 0.930 . S
C1226 C1225 1.388 . S
C1226 C1227 1.390 . S
C1227 C1226 1.390 . S
C1227 C1228 1.394 . S
C1227 C1233 1.465 . S
C1228 C1223 1.399 . S
C1228 C1227 1.394 . S
C1228 C1229 1.516 . S
C1229 C1228 1.516 . S
C1229 C1230 1.502 . S
C1229 C1231 1.561 . S
C1229 C1232 1.526 . S
C1230 H1214 0.959 . S
C1230 H1215 0.959 . S
C1230 H1216 0.961 . S
C1230 C1229 1.502 . S
C1231 H1217 0.960 . S
C1231 H1218 0.961 . S
C1231 H1219 0.959 . S
C1231 C1229 1.561 . S
C1232 C1229 1.526 . S
C1232 C1233 1.396 . S
C1232 C1237 1.390 . S
C1233 C1227 1.465 . S
C1233 C1232 1.396 . S
C1233 C1234 1.399 . S
C1234 H1220 0.929 . S
C1234 C1233 1.399 . S
C1234 C1235 1.385 . S
C1235 H1221 0.931 . S
C1235 C1234 1.385 . S
C1235 C1236 1.389 . S
C1236 C1235 1.389 . S
C1236 C1237 1.387 . S
C1237 H1222 0.930 . S
C1237 C1232 1.390 . S
C1237 C1236 1.387 . S
H1238 C1250 0.930 . S
H1239 C1252 0.930 . S
H1240 C1253 0.930 . S
H1241 C1257 0.959 . S
H1242 C1257 0.959 . S
H1243 C1257 0.961 . S
H1244 C1258 0.960 . S
H1245 C1258 0.961 . S
H1246 C1258 0.959 . S
H1247 C1261 0.929 . S
H1248 C1262 0.931 . S
H1249 C1264 0.930 . S
C1250 H1238 0.930 . S
C1250 C1251 1.399 . S
C1250 C1255 1.399 . S
C1251 C1250 1.399 . S
C1251 C1252 1.376 . S
C1252 H1239 0.930 . S
C1252 C1251 1.376 . S
C1252 C1253 1.388 . S
C1253 H1240 0.930 . S
C1253 C1252 1.388 . S
C1253 C1254 1.390 . S
C1254 C1253 1.390 . S
C1254 C1255 1.394 . S
C1254 C1260 1.465 . S
C1255 C1250 1.399 . S
C1255 C1254 1.394 . S
C1255 C1256 1.516 . S
C1256 C1255 1.516 . S
C1256 C1257 1.502 . S
C1256 C1258 1.561 . S
C1256 C1259 1.526 . S
C1257 H1241 0.959 . S
C1257 H1242 0.959 . S
C1257 H1243 0.961 . S
C1257 C1256 1.502 . S
C1258 H1244 0.960 . S
C1258 H1245 0.961 . S
C1258 H1246 0.959 . S
C1258 C1256 1.561 . S
C1259 C1256 1.526 . S
C1259 C1260 1.396 . S
C1259 C1264 1.390 . S
C1260 C1254 1.465 . S
C1260 C1259 1.396 . S
C1260 C1261 1.399 . S
C1261 H1247 0.929 . S
C1261 C1260 1.399 . S
C1261 C1262 1.385 . S
C1262 H1248 0.931 . S
C1262 C1261 1.385 . S
C1262 C1263 1.389 . S
C1263 C1262 1.389 . S
C1263 C1264 1.387 . S
C1264 H1249 0.930 . S
C1264 C1259 1.390 . S
C1264 C1263 1.387 . S
H1265 C1277 0.930 . S
H1266 C1279 0.930 . S
H1267 C1280 0.930 . S
H1268 C1284 0.959 . S
H1269 C1284 0.959 . S
H1270 C1284 0.961 . S
H1271 C1285 0.960 . S
H1272 C1285 0.961 . S
H1273 C1285 0.959 . S
H1274 C1288 0.929 . S
H1275 C1289 0.931 . S
H1276 C1291 0.930 . S
C1277 H1265 0.930 . S
C1277 C1278 1.399 . S
C1277 C1282 1.399 . S
C1278 C1277 1.399 . S
C1278 C1279 1.376 . S
C1279 H1266 0.930 . S
C1279 C1278 1.376 . S
C1279 C1280 1.388 . S
C1280 H1267 0.930 . S
C1280 C1279 1.388 . S
C1280 C1281 1.390 . S
C1281 C1280 1.390 . S
C1281 C1282 1.394 . S
C1281 C1287 1.465 . S
C1282 C1277 1.399 . S
C1282 C1281 1.394 . S
C1282 C1283 1.516 . S
C1283 C1282 1.516 . S
C1283 C1284 1.502 . S
C1283 C1285 1.561 . S
C1283 C1286 1.526 . S
C1284 H1268 0.959 . S
C1284 H1269 0.959 . S
C1284 H1270 0.961 . S
C1284 C1283 1.502 . S
C1285 H1271 0.960 . S
C1285 H1272 0.961 . S
C1285 H1273 0.959 . S
C1285 C1283 1.561 . S
C1286 C1283 1.526 . S
C1286 C1287 1.396 . S
C1286 C1291 1.390 . S
C1287 C1281 1.465 . S
C1287 C1286 1.396 . S
C1287 C1288 1.399 . S
C1288 H1274 0.929 . S
C1288 C1287 1.399 . S
C1288 C1289 1.385 . S
C1289 H1275 0.931 . S
C1289 C1288 1.385 . S
C1289 C1290 1.389 . S
C1290 C1289 1.389 . S
C1290 C1291 1.387 . S
C1291 H1276 0.930 . S
C1291 C1286 1.390 . S
C1291 C1290 1.387 . S
H1292 C1304 0.930 . S
H1293 C1306 0.930 . S
H1294 C1307 0.930 . S
H1295 C1311 0.959 . S
H1296 C1311 0.959 . S
H1297 C1311 0.961 . S
H1298 C1312 0.960 . S
H1299 C1312 0.961 . S
H1300 C1312 0.959 . S
H1301 C1315 0.929 . S
H1302 C1316 0.931 . S
H1303 C1318 0.930 1_554 S
C1304 H1292 0.930 . S
C1304 C1305 1.399 . S
C1304 C1309 1.399 . S
C1305 C1304 1.399 . S
C1305 C1306 1.376 . S
C1306 H1293 0.930 . S
C1306 C1305 1.376 . S
C1306 C1307 1.388 1_554 S
C1307 H1294 0.930 . S
C1307 C1306 1.388 1_556 S
C1307 C1308 1.390 . S
C1308 C1307 1.390 . S
C1308 C1309 1.394 1_556 S
C1308 C1314 1.465 . S
C1309 C1304 1.399 . S
C1309 C1308 1.394 1_554 S
C1309 C1310 1.516 . S
C1310 C1309 1.516 . S
C1310 C1311 1.502 . S
C1310 C1312 1.561 . S
C1310 C1313 1.526 . S
C1311 H1295 0.959 . S
C1311 H1296 0.959 . S
C1311 H1297 0.961 . S
C1311 C1310 1.502 . S
C1312 H1298 0.960 . S
C1312 H1299 0.961 . S
C1312 H1300 0.959 . S
C1312 C1310 1.561 . S
C1313 C1310 1.526 . S
C1313 C1314 1.396 1_554 S
C1313 C1318 1.390 1_554 S
C1314 C1308 1.465 . S
C1314 C1313 1.396 1_556 S
C1314 C1315 1.399 . S
C1315 H1301 0.929 . S
C1315 C1314 1.399 . S
C1315 C1316 1.385 . S
C1316 H1302 0.931 . S
C1316 C1315 1.385 . S
C1316 C1317 1.389 . S
C1317 C1316 1.389 . S
C1317 C1318 1.387 . S
C1318 H1303 0.930 1_556 S
C1318 C1313 1.390 1_556 S
C1318 C1317 1.387 . S
H1319 C1331 0.930 . S
H1320 C1333 0.930 . S
H1321 C1334 0.930 . S
H1322 C1338 0.959 . S
H1323 C1338 0.959 . S
H1324 C1338 0.961 . S
H1325 C1339 0.960 . S
H1326 C1339 0.961 . S
H1327 C1339 0.959 . S
H1328 C1342 0.929 . S
H1329 C1343 0.931 . S
H1330 C1345 0.930 . S
C1331 H1319 0.930 . S
C1331 C1332 1.399 . S
C1331 C1336 1.399 . S
C1332 C1331 1.399 . S
C1332 C1333 1.376 . S
C1333 H1320 0.930 . S
C1333 C1332 1.376 . S
C1333 C1334 1.388 . S
C1334 H1321 0.930 . S
C1334 C1333 1.388 . S
C1334 C1335 1.390 . S
C1335 C1334 1.390 . S
C1335 C1336 1.394 . S
C1335 C1341 1.465 . S
C1336 C1331 1.399 . S
C1336 C1335 1.394 . S
C1336 C1337 1.516 . S
C1337 C1336 1.516 . S
C1337 C1338 1.502 . S
C1337 C1339 1.561 . S
C1337 C1340 1.526 . S
C1338 H1322 0.959 . S
C1338 H1323 0.959 . S
C1338 H1324 0.961 . S
C1338 C1337 1.502 . S
C1339 H1325 0.960 . S
C1339 H1326 0.961 . S
C1339 H1327 0.959 . S
C1339 C1337 1.561 . S
C1340 C1337 1.526 . S
C1340 C1341 1.396 . S
C1340 C1345 1.390 . S
C1341 C1335 1.465 . S
C1341 C1340 1.396 . S
C1341 C1342 1.399 . S
C1342 H1328 0.929 . S
C1342 C1341 1.399 . S
C1342 C1343 1.385 . S
C1343 H1329 0.931 . S
C1343 C1342 1.385 . S
C1343 C1344 1.389 . S
C1344 C1343 1.389 . S
C1344 C1345 1.387 . S
C1345 H1330 0.930 . S
C1345 C1340 1.390 . S
C1345 C1344 1.387 . S
H1346 C1358 0.930 . S
H1347 C1360 0.930 . S
H1348 C1361 0.930 . S
H1349 C1365 0.959 . S
H1350 C1365 0.959 . S
H1351 C1365 0.961 . S
H1352 C1366 0.960 . S
H1353 C1366 0.961 . S
H1354 C1366 0.959 . S
H1355 C1369 0.929 . S
H1356 C1370 0.931 . S
H1357 C1372 0.930 . S
C1358 H1346 0.930 . S
C1358 C1359 1.399 . S
C1358 C1363 1.399 . S
C1359 C1358 1.399 . S
C1359 C1360 1.376 . S
C1360 H1347 0.930 . S
C1360 C1359 1.376 . S
C1360 C1361 1.388 . S
C1361 H1348 0.930 . S
C1361 C1360 1.388 . S
C1361 C1362 1.390 . S
C1362 C1361 1.390 . S
C1362 C1363 1.394 . S
C1362 C1368 1.465 . S
C1363 C1358 1.399 . S
C1363 C1362 1.394 . S
C1363 C1364 1.516 . S
C1364 C1363 1.516 . S
C1364 C1365 1.502 . S
C1364 C1366 1.561 . S
C1364 C1367 1.526 . S
C1365 H1349 0.959 . S
C1365 H1350 0.959 . S
C1365 H1351 0.961 . S
C1365 C1364 1.502 . S
C1366 H1352 0.960 . S
C1366 H1353 0.961 . S
C1366 H1354 0.959 . S
C1366 C1364 1.561 . S
C1367 C1364 1.526 . S
C1367 C1368 1.396 . S
C1367 C1372 1.390 . S
C1368 C1362 1.465 . S
C1368 C1367 1.396 . S
C1368 C1369 1.399 . S
C1369 H1355 0.929 . S
C1369 C1368 1.399 . S
C1369 C1370 1.385 . S
C1370 H1356 0.931 . S
C1370 C1369 1.385 . S
C1370 C1371 1.389 . S
C1371 C1370 1.389 . S
C1371 C1372 1.387 . S
C1372 H1357 0.930 . S
C1372 C1367 1.390 . S
C1372 C1371 1.387 . S
H1373 C1385 0.930 . S
H1374 C1387 0.930 . S
H1375 C1388 0.930 . S
H1376 C1392 0.959 . S
H1377 C1392 0.959 . S
H1378 C1392 0.961 . S
H1379 C1393 0.960 . S
H1380 C1393 0.961 . S
H1381 C1393 0.959 . S
H1382 C1396 0.929 . S
H1383 C1397 0.931 . S
H1384 C1399 0.930 . S
C1385 H1373 0.930 . S
C1385 C1386 1.399 . S
C1385 C1390 1.399 . S
C1386 C1385 1.399 . S
C1386 C1387 1.376 . S
C1387 H1374 0.930 . S
C1387 C1386 1.376 . S
C1387 C1388 1.388 . S
C1388 H1375 0.930 . S
C1388 C1387 1.388 . S
C1388 C1389 1.390 . S
C1389 C1388 1.390 . S
C1389 C1390 1.394 . S
C1389 C1395 1.465 . S
C1390 C1385 1.399 . S
C1390 C1389 1.394 . S
C1390 C1391 1.516 . S
C1391 C1390 1.516 . S
C1391 C1392 1.502 . S
C1391 C1393 1.561 . S
C1391 C1394 1.526 . S
C1392 H1376 0.959 . S
C1392 H1377 0.959 . S
C1392 H1378 0.961 . S
C1392 C1391 1.502 . S
C1393 H1379 0.960 . S
C1393 H1380 0.961 . S
C1393 H1381 0.959 . S
C1393 C1391 1.561 . S
C1394 C1391 1.526 . S
C1394 C1395 1.396 . S
C1394 C1399 1.390 . S
C1395 C1389 1.465 . S
C1395 C1394 1.396 . S
C1395 C1396 1.399 . S
C1396 H1382 0.929 . S
C1396 C1395 1.399 . S
C1396 C1397 1.385 . S
C1397 H1383 0.931 . S
C1397 C1396 1.385 . S
C1397 C1398 1.389 . S
C1398 C1397 1.389 . S
C1398 C1399 1.387 . S
C1399 H1384 0.930 . S
C1399 C1394 1.390 . S
C1399 C1398 1.387 . S
H1400 C1412 0.930 . S
H1401 C1414 0.930 . S
H1402 C1415 0.930 . S
H1403 C1419 0.959 . S
H1404 C1419 0.959 1_545 S
H1405 C1419 0.961 . S
H1406 C1420 0.960 . S
H1407 C1420 0.961 1_545 S
H1408 C1420 0.959 . S
H1409 C1423 0.929 . S
H1410 C1424 0.931 . S
H1411 C1426 0.930 . S
C1412 H1400 0.930 . S
C1412 C1413 1.399 . S
C1412 C1417 1.399 . S
C1413 C1412 1.399 . S
C1413 C1414 1.376 . S
C1414 H1401 0.930 . S
C1414 C1413 1.376 . S
C1414 C1415 1.388 . S
C1415 H1402 0.930 . S
C1415 C1414 1.388 . S
C1415 C1416 1.390 . S
C1416 C1415 1.390 . S
C1416 C1417 1.394 . S
C1416 C1422 1.465 1_565 S
C1417 C1412 1.399 . S
C1417 C1416 1.394 . S
C1417 C1418 1.516 . S
C1418 C1417 1.516 . S
C1418 C1419 1.502 . S
C1418 C1420 1.561 . S
C1418 C1421 1.526 1_565 S
C1419 H1403 0.959 . S
C1419 H1404 0.959 1_565 S
C1419 H1405 0.961 . S
C1419 C1418 1.502 . S
C1420 H1406 0.960 . S
C1420 H1407 0.961 1_565 S
C1420 H1408 0.959 . S
C1420 C1418 1.561 . S
C1421 C1418 1.526 1_545 S
C1421 C1422 1.396 . S
C1421 C1426 1.390 . S
C1422 C1416 1.465 1_545 S
C1422 C1421 1.396 . S
C1422 C1423 1.399 . S
C1423 H1409 0.929 . S
C1423 C1422 1.399 . S
C1423 C1424 1.385 . S
C1424 H1410 0.931 . S
C1424 C1423 1.385 . S
C1424 C1425 1.389 . S
C1425 C1424 1.389 . S
C1425 C1426 1.387 . S
C1426 H1411 0.930 . S
C1426 C1421 1.390 . S
C1426 C1425 1.387 . S
H1427 C1439 0.930 . S
H1428 C1441 0.930 . S
H1429 C1442 0.930 . S
H1430 C1446 0.959 . S
H1431 C1446 0.959 . S
H1432 C1446 0.961 . S
H1433 C1447 0.960 . S
H1434 C1447 0.961 . S
H1435 C1447 0.959 . S
H1436 C1450 0.929 . S
H1437 C1451 0.931 . S
H1438 C1453 0.930 . S
C1439 H1427 0.930 . S
C1439 C1440 1.399 . S
C1439 C1444 1.399 . S
C1440 C1439 1.399 . S
C1440 C1441 1.376 . S
C1441 H1428 0.930 . S
C1441 C1440 1.376 . S
C1441 C1442 1.388 . S
C1442 H1429 0.930 . S
C1442 C1441 1.388 . S
C1442 C1443 1.390 . S
C1443 C1442 1.390 . S
C1443 C1444 1.394 . S
C1443 C1449 1.465 . S
C1444 C1439 1.399 . S
C1444 C1443 1.394 . S
C1444 C1445 1.516 . S
C1445 C1444 1.516 . S
C1445 C1446 1.502 . S
C1445 C1447 1.561 . S
C1445 C1448 1.526 . S
C1446 H1430 0.959 . S
C1446 H1431 0.959 . S
C1446 H1432 0.961 . S
C1446 C1445 1.502 . S
C1447 H1433 0.960 . S
C1447 H1434 0.961 . S
C1447 H1435 0.959 . S
C1447 C1445 1.561 . S
C1448 C1445 1.526 . S
C1448 C1449 1.396 . S
C1448 C1453 1.390 . S
C1449 C1443 1.465 . S
C1449 C1448 1.396 . S
C1449 C1450 1.399 . S
C1450 H1436 0.929 . S
C1450 C1449 1.399 . S
C1450 C1451 1.385 . S
C1451 H1437 0.931 . S
C1451 C1450 1.385 . S
C1451 C1452 1.389 . S
C1452 C1451 1.389 . S
C1452 C1453 1.387 . S
C1453 H1438 0.930 . S
C1453 C1448 1.390 . S
C1453 C1452 1.387 . S
H1454 C1466 0.930 1_556 S
H1455 C1468 0.930 . S
H1456 C1469 0.920 1_545 S
H1457 C1473 0.959 . S
H1458 C1473 0.959 . S
H1459 C1473 0.961 . S
H1460 C1474 0.960 . S
H1461 C1474 0.961 . S
H1462 C1474 0.959 . S
H1463 C1477 0.929 . S
H1464 C1478 0.931 . S
H1465 C1480 0.930 . S
C1466 H1454 0.930 1_554 S
C1466 C1467 1.399 . S
C1466 C1471 1.399 1_554 S
C1467 C1466 1.399 . S
C1467 C1468 1.376 . S
C1468 H1455 0.930 . S
C1468 C1467 1.376 . S
C1468 C1469 1.388 . S
C1469 H1456 0.920 1_565 S
C1469 C1468 1.388 . S
C1469 C1470 1.390 . S
C1470 C1469 1.390 . S
C1470 C1471 1.394 1_554 S
C1470 C1476 1.465 1_565 S
C1471 C1466 1.399 1_556 S
C1471 C1470 1.394 1_556 S
C1471 C1472 1.516 . S
C1472 C1471 1.516 . S
C1472 C1473 1.502 . S
C1472 C1474 1.561 . S
C1472 C1475 1.526 1_565 S
C1473 H1457 0.959 . S
C1473 H1458 0.959 . S
C1473 H1459 0.961 . S
C1473 C1472 1.502 . S
C1474 H1460 0.960 . S
C1474 H1461 0.961 . S
C1474 H1462 0.959 . S
C1474 C1472 1.561 . S
C1475 C1472 1.526 1_545 S
C1475 C1476 1.396 1_556 S
C1475 C1480 1.390 . S
C1476 C1470 1.465 1_545 S
C1476 C1475 1.396 1_554 S
C1476 C1477 1.399 . S
C1477 H1463 0.929 . S
C1477 C1476 1.399 . S
C1477 C1478 1.385 . S
C1478 H1464 0.931 . S
C1478 C1477 1.385 . S
C1478 C1479 1.389 1_554 S
C1479 C1478 1.389 1_556 S
C1479 C1480 1.387 . S
C1480 H1465 0.930 . S
C1480 C1475 1.390 . S
C1480 C1479 1.387 . S
H1481 C1493 0.930 . S
H1482 C1495 0.930 . S
H1483 C1496 0.930 . S
H1484 C1500 0.959 . S
H1485 C1500 0.959 . S
H1486 C1500 0.961 . S
H1487 C1501 0.960 . S
H1488 C1501 0.961 . S
H1489 C1501 0.959 . S
H1490 C1504 0.929 . S
H1491 C1505 0.931 . S
H1492 C1507 0.930 . S
C1493 H1481 0.930 . S
C1493 C1494 1.399 . S
C1493 C1498 1.399 . S
C1494 C1493 1.399 . S
C1494 C1495 1.376 . S
C1495 H1482 0.930 . S
C1495 C1494 1.376 . S
C1495 C1496 1.388 . S
C1496 H1483 0.930 . S
C1496 C1495 1.388 . S
C1496 C1497 1.390 . S
C1497 C1496 1.390 . S
C1497 C1498 1.394 . S
C1497 C1503 1.465 . S
C1498 C1493 1.399 . S
C1498 C1497 1.394 . S
C1498 C1499 1.516 . S
C1499 C1498 1.516 . S
C1499 C1500 1.502 . S
C1499 C1501 1.561 . S
C1499 C1502 1.526 . S
C1500 H1484 0.959 . S
C1500 H1485 0.959 . S
C1500 H1486 0.961 . S
C1500 C1499 1.502 . S
C1501 H1487 0.960 . S
C1501 H1488 0.961 . S
C1501 H1489 0.959 . S
C1501 C1499 1.561 . S
C1502 C1499 1.526 . S
C1502 C1503 1.396 . S
C1502 C1507 1.390 . S
C1503 C1497 1.465 . S
C1503 C1502 1.396 . S
C1503 C1504 1.399 . S
C1504 H1490 0.929 . S
C1504 C1503 1.399 . S
C1504 C1505 1.385 . S
C1505 H1491 0.931 . S
C1505 C1504 1.385 . S
C1505 C1506 1.389 . S
C1506 C1505 1.389 . S
C1506 C1507 1.387 . S
C1507 H1492 0.930 . S
C1507 C1502 1.390 . S
C1507 C1506 1.387 . S
H1508 C1520 0.930 . S
H1509 C1522 0.930 . S
H1510 C1523 0.930 . S
H1511 C1527 0.959 . S
H1512 C1527 0.959 . S
H1513 C1527 0.961 1_565 S
H1514 C1528 0.960 1_565 S
H1515 C1528 0.961 . S
H1516 C1528 0.959 . S
H1517 C1531 0.929 . S
H1518 C1532 0.931 . S
H1519 C1534 0.930 . S
C1520 H1508 0.930 . S
C1520 C1521 1.399 . S
C1520 C1525 1.399 . S
C1521 C1520 1.399 . S
C1521 C1522 1.376 . S
C1522 H1509 0.930 . S
C1522 C1521 1.376 . S
C1522 C1523 1.388 . S
C1523 H1510 0.930 . S
C1523 C1522 1.388 . S
C1523 C1524 1.390 . S
C1524 C1523 1.390 . S
C1524 C1525 1.394 . S
C1524 C1530 1.465 1_565 S
C1525 C1520 1.399 . S
C1525 C1524 1.394 . S
C1525 C1526 1.516 1_565 S
C1526 C1525 1.516 1_545 S
C1526 C1527 1.502 . S
C1526 C1528 1.561 . S
C1526 C1529 1.526 . S
C1527 H1511 0.959 . S
C1527 H1512 0.959 . S
C1527 H1513 0.961 1_545 S
C1527 C1526 1.502 . S
C1528 H1514 0.960 1_545 S
C1528 H1515 0.961 . S
C1528 H1516 0.959 . S
C1528 C1526 1.561 . S
C1529 C1526 1.526 . S
C1529 C1530 1.396 . S
C1529 C1534 1.390 . S
C1530 C1524 1.465 1_545 S
C1530 C1529 1.396 . S
C1530 C1531 1.399 . S
C1531 H1517 0.929 . S
C1531 C1530 1.399 . S
C1531 C1532 1.385 . S
C1532 H1518 0.931 . S
C1532 C1531 1.385 . S
C1532 C1533 1.389 . S
C1533 C1532 1.389 . S
C1533 C1534 1.387 . S
C1534 H1519 0.930 . S
C1534 C1529 1.390 . S
C1534 C1533 1.387 . S
H1535 C1547 0.930 . S
H1536 C1549 0.930 . S
H1537 C1550 0.930 . S
H1538 C1554 0.959 . S
H1539 C1554 0.959 . S
H1540 C1554 0.961 . S
H1541 C1555 0.960 . S
H1542 C1555 0.961 . S
H1543 C1555 0.959 . S
H1544 C1558 0.929 . S
H1545 C1559 0.931 . S
H1546 C1561 0.930 . S
C1547 H1535 0.930 . S
C1547 C1548 1.399 . S
C1547 C1552 1.399 . S
C1548 C1547 1.399 . S
C1548 C1549 1.376 . S
C1549 H1536 0.930 . S
C1549 C1548 1.376 . S
C1549 C1550 1.388 . S
C1550 H1537 0.930 . S
C1550 C1549 1.388 . S
C1550 C1551 1.390 . S
C1551 C1550 1.390 . S
C1551 C1552 1.394 . S
C1551 C1557 1.465 . S
C1552 C1547 1.399 . S
C1552 C1551 1.394 . S
C1552 C1553 1.516 . S
C1553 C1552 1.516 . S
C1553 C1554 1.502 . S
C1553 C1555 1.561 . S
C1553 C1556 1.526 . S
C1554 H1538 0.959 . S
C1554 H1539 0.959 . S
C1554 H1540 0.961 . S
C1554 C1553 1.502 . S
C1555 H1541 0.960 . S
C1555 H1542 0.961 . S
C1555 H1543 0.959 . S
C1555 C1553 1.561 . S
C1556 C1553 1.526 . S
C1556 C1557 1.396 . S
C1556 C1561 1.390 . S
C1557 C1551 1.465 . S
C1557 C1556 1.396 . S
C1557 C1558 1.399 . S
C1558 H1544 0.929 . S
C1558 C1557 1.399 . S
C1558 C1559 1.385 . S
C1559 H1545 0.931 . S
C1559 C1558 1.385 . S
C1559 C1560 1.389 . S
C1560 C1559 1.389 . S
C1560 C1561 1.387 . S
C1561 H1546 0.930 . S
C1561 C1556 1.390 . S
C1561 C1560 1.387 . S
H1562 C1574 0.930 . S
H1563 C1576 0.930 . S
H1564 C1577 0.930 . S
H1565 C1581 0.959 . S
H1566 C1581 0.959 1_554 S
H1567 C1581 0.961 1_545 S
H1568 C1582 0.960 . S
H1569 C1582 0.961 . S
H1570 C1582 0.959 . S
H1571 C1585 0.929 . S
H1572 C1586 0.931 . S
H1573 C1588 0.930 . S
C1574 H1562 0.930 . S
C1574 C1575 1.399 . S
C1574 C1579 1.399 . S
C1575 C1574 1.399 . S
C1575 C1576 1.376 . S
C1576 H1563 0.930 . S
C1576 C1575 1.376 . S
C1576 C1577 1.388 . S
C1577 H1564 0.930 . S
C1577 C1576 1.388 . S
C1577 C1578 1.390 . S
C1578 C1577 1.390 . S
C1578 C1579 1.394 . S
C1578 C1584 1.465 1_546 S
C1579 C1574 1.399 . S
C1579 C1578 1.394 . S
C1579 C1580 1.516 1_556 S
C1580 C1579 1.516 1_554 S
C1580 C1581 1.502 1_544 S
C1580 C1582 1.561 . S
C1580 C1583 1.526 1_545 S
C1581 H1565 0.959 . S
C1581 H1566 0.959 1_556 S
C1581 H1567 0.961 1_565 S
C1581 C1580 1.502 1_566 S
C1582 H1568 0.960 . S
C1582 H1569 0.961 . S
C1582 H1570 0.959 . S
C1582 C1580 1.561 . S
C1583 C1580 1.526 1_565 S
C1583 C1584 1.396 . S
C1583 C1588 1.390 . S
C1584 C1578 1.465 1_564 S
C1584 C1583 1.396 . S
C1584 C1585 1.399 . S
C1585 H1571 0.929 . S
C1585 C1584 1.399 . S
C1585 C1586 1.385 . S
C1586 H1572 0.931 . S
C1586 C1585 1.385 . S
C1586 C1587 1.389 . S
C1587 C1586 1.389 . S
C1587 C1588 1.387 . S
C1588 H1573 0.930 . S
C1588 C1583 1.390 . S
C1588 C1587 1.387 . S
H1589 C1601 0.930 . S
H1590 C1603 0.930 . S
H1591 C1604 0.930 . S
H1592 C1608 0.959 . S
H1593 C1608 0.959 . S
H1594 C1608 0.961 . S
H1595 C1609 0.960 . S
H1596 C1609 0.961 . S
H1597 C1609 0.959 . S
H1598 C1612 0.929 . S
H1599 C1613 0.931 . S
H1600 C1615 0.930 . S
C1601 H1589 0.930 . S
C1601 C1602 1.399 . S
C1601 C1606 1.399 . S
C1602 C1601 1.399 . S
C1602 C1603 1.376 . S
C1603 H1590 0.930 . S
C1603 C1602 1.376 . S
C1603 C1604 1.388 . S
C1604 H1591 0.930 . S
C1604 C1603 1.388 . S
C1604 C1605 1.390 . S
C1605 C1604 1.390 . S
C1605 C1606 1.394 . S
C1605 C1611 1.465 . S
C1606 C1601 1.399 . S
C1606 C1605 1.394 . S
C1606 C1607 1.516 . S
C1607 C1606 1.516 . S
C1607 C1608 1.502 . S
C1607 C1609 1.561 . S
C1607 C1610 1.526 . S
C1608 H1592 0.959 . S
C1608 H1593 0.959 . S
C1608 H1594 0.961 . S
C1608 C1607 1.502 . S
C1609 H1595 0.960 . S
C1609 H1596 0.961 . S
C1609 H1597 0.959 . S
C1609 C1607 1.561 . S
C1610 C1607 1.526 . S
C1610 C1611 1.396 . S
C1610 C1615 1.390 . S
C1611 C1605 1.465 . S
C1611 C1610 1.396 . S
C1611 C1612 1.399 . S
C1612 H1598 0.929 . S
C1612 C1611 1.399 . S
C1612 C1613 1.385 . S
C1613 H1599 0.931 . S
C1613 C1612 1.385 . S
C1613 C1614 1.389 . S
C1614 C1613 1.389 . S
C1614 C1615 1.387 . S
C1615 H1600 0.930 . S
C1615 C1610 1.390 . S
C1615 C1614 1.387 . S
C333 C2 1.596 . S
C345 C1 1.534 . S
C360 C21 1.598 . S
C372 C22 1.531 . S
C387 C41 1.481 . S
C399 C42 1.446 . S
C414 C62 1.495 . S
C426 C61 1.436 . S
C441 C82 1.542 . S
C453 C81 1.563 . S
C468 C101 1.493 . S
C480 C102 1.437 . S
C495 C121 1.492 . S
C507 C122 1.438 . S
C522 C141 1.515 . S
C534 C142 1.596 . S
C549 C161 1.517 . S
C561 C162 1.592 . S
C576 C181 1.585 . S
C588 C182 1.548 . S
C603 C201 1.487 . S
C615 C202 1.441 . S
C630 C221 1.492 . S
C642 C222 1.437 . S
C657 C241 1.606 . S
C669 C242 1.515 . S
C684 C261 1.447 . S
C696 C262 1.496 . S
C711 C282 1.450 . S
C723 C281 1.493 . S
C738 C302 1.531 . S
C750 C301 1.575 . S
C765 C8 1.584 . S
C777 C239 1.620 . S
C792 C38 1.577 . S
C804 C319 1.569 . S
C819 C58 1.608 . S
C831 C189 1.512 . S
C846 C68 1.584 . S
C858 C269 1.581 . S
C873 C88 1.592 . S
C885 C279 1.628 . S
C900 C229 1.603 . S
C912 C108 1.594 . S
C927 C138 1.620 . S
C939 C309 1.592 . S
C954 C158 1.575 . S
C966 C199 1.568 . S
C981 C78 1.615 . S
C993 C169 1.591 . S
C1008 C28 1.582 . S
C1020 C219 1.618 . S
C1035 C249 1.522 . S
C1047 C118 1.582 . S
C1062 C148 1.509 . S
C1074 C299 1.592 . S
C1089 C179 1.560 . S
C1101 C98 1.560 . S
C1116 C128 1.638 . S
C1128 C209 1.627 . S
C1143 C48 1.581 . S
C1155 C289 1.580 . S
C1170 C18 1.606 . S
C1182 C259 1.613 . S
C1197 C9 1.327 . S
C1209 C89 1.361 . S
C1224 C39 1.576 . S
C1236 C109 1.591 . S
C1251 C59 1.783 . S
C1263 C139 1.783 . S
C1278 C69 1.602 . S
C1290 C159 1.569 . S
C1305 C248 1.358 . S
C1317 C168 1.335 . S
C1332 C268 1.588 . S
C1344 C198 1.571 . S
C1359 C218 1.799 . S
C1371 C298 1.793 . S
C1386 C318 1.581 . S
C1398 C228 1.600 . S
C1413 C29 1.328 . S
C1425 C149 1.361 . S
C1440 C99 1.568 . S
C1452 C49 1.602 . S
C1467 C119 1.782 . S
C1479 C79 1.783 . S
C1494 C19 1.597 . S
C1506 C129 1.572 . S
C1521 C308 1.360 . S
C1533 C188 1.331 . S
C1548 C258 1.603 . S
C1560 C208 1.572 . S
C1575 C278 1.802 . S
C1587 C238 1.802 . S
C1602 C288 1.582 . S
C1614 C178 1.598 . S
