# Generated by pormake.
# Topology snk, (6)-cn, num edge types: 1
# Building blocks:
#     Node 0, Type 0, BuildingBlock: KUMBOL_clean_sbu_1, # of connection points: 6
#     Node 1, Type 0, BuildingBlock: KUMBOL_clean_sbu_1, # of connection points: 6
#     Node 2, Type 0, BuildingBlock: KUMBOL_clean_sbu_1, # of connection points: 6
#     Node 3, Type 0, BuildingBlock: KUMBOL_clean_sbu_1, # of connection points: 6
#     Node 4, Type 0, BuildingBlock: KUMBOL_clean_sbu_1, # of connection points: 6
#     Node 5, Type 0, BuildingBlock: KUMBOL_clean_sbu_1, # of connection points: 6
#     Node 6, Type 0, BuildingBlock: KUMBOL_clean_sbu_1, # of connection points: 6
#     Node 7, Type 0, BuildingBlock: KUMBOL_clean_sbu_1, # of connection points: 6
#     Edge 8, Type (0, 0), BuildingBlock: XIVTED_clean_linker_0, # of connection points: 2
#     Edge 9, Type (0, 0), BuildingBlock: XIVTED_clean_linker_0, # of connection points: 2
#     Edge 10, Type (0, 0), BuildingBlock: XIVTED_clean_linker_0, # of connection points: 2
#     Edge 11, Type (0, 0), BuildingBlock: XIVTED_clean_linker_0, # of connection points: 2
#     Edge 12, Type (0, 0), BuildingBlock: XIVTED_clean_linker_0, # of connection points: 2
#     Edge 13, Type (0, 0), BuildingBlock: XIVTED_clean_linker_0, # of connection points: 2
#     Edge 14, Type (0, 0), BuildingBlock: XIVTED_clean_linker_0, # of connection points: 2
#     Edge 15, Type (0, 0), BuildingBlock: XIVTED_clean_linker_0, # of connection points: 2
#     Edge 16, Type (0, 0), BuildingBlock: XIVTED_clean_linker_0, # of connection points: 2
#     Edge 17, Type (0, 0), BuildingBlock: XIVTED_clean_linker_0, # of connection points: 2
#     Edge 18, Type (0, 0), BuildingBlock: XIVTED_clean_linker_0, # of connection points: 2
#     Edge 19, Type (0, 0), BuildingBlock: XIVTED_clean_linker_0, # of connection points: 2
#     Edge 20, Type (0, 0), BuildingBlock: XIVTED_clean_linker_0, # of connection points: 2
#     Edge 21, Type (0, 0), BuildingBlock: XIVTED_clean_linker_0, # of connection points: 2
#     Edge 22, Type (0, 0), BuildingBlock: XIVTED_clean_linker_0, # of connection points: 2
#     Edge 23, Type (0, 0), BuildingBlock: XIVTED_clean_linker_0, # of connection points: 2
#     Edge 24, Type (0, 0), BuildingBlock: XIVTED_clean_linker_0, # of connection points: 2
#     Edge 25, Type (0, 0), BuildingBlock: XIVTED_clean_linker_0, # of connection points: 2
#     Edge 26, Type (0, 0), BuildingBlock: XIVTED_clean_linker_0, # of connection points: 2
#     Edge 27, Type (0, 0), BuildingBlock: XIVTED_clean_linker_0, # of connection points: 2
#     Edge 28, Type (0, 0), BuildingBlock: XIVTED_clean_linker_0, # of connection points: 2
#     Edge 29, Type (0, 0), BuildingBlock: XIVTED_clean_linker_0, # of connection points: 2
#     Edge 30, Type (0, 0), BuildingBlock: XIVTED_clean_linker_0, # of connection points: 2
#     Edge 31, Type (0, 0), BuildingBlock: XIVTED_clean_linker_0, # of connection points: 2
# Relax obj value: 0.007
# Max RMSD: 0.070
# Mean RMSD: 0.069
data_MOF--net-snk--node1-KUMBOL_clean_sbu_1--edge1-XIVTED_clean_linker_0
_symmetry_space_group_name_H-M    P1
_symmetry_Int_Tables_number       1
_symmetry_cell_setting            triclinic
loop_
_symmetry_equiv_pos_as_xyz
'x, y, z'
_cell_length_a     38.751862
_cell_length_b     38.696684
_cell_length_c     24.905701
_cell_angle_alpha  90.208385
_cell_angle_beta   90.041747
_cell_angle_gamma 90.081662
loop_
_atom_site_label
_atom_site_type_symbol
_atom_site_fract_x
_atom_site_fract_y
_atom_site_fract_z
_atom_type_partial_charge
C0 C 0.95034 0.90785 0.45518 0.0
C1 C 0.89246 0.9253 0.43082 0.0
C2 C 0.92767 0.93325 0.43843 0.0
C3 C 0.88025 0.892 0.44295 0.0
C4 C 0.93856 0.87403 0.46536 0.0
C5 C 0.90327 0.8664 0.46011 0.0
N6 N 0.98413 0.91629 0.46136 0.0
C7 C 0.00799 0.89171 0.47373 0.0
C8 C 0.96269 0.8489 0.48026 0.0
C9 C 0.99762 0.8577 0.48383 0.0
Gd10 Gd 0.00588 0.03004 0.58532 0.0
Gd11 Gd 0.99945 0.97405 0.44638 0.0
N12 N 0.94039 0.96516 0.42693 0.0
C13 C 0.87081 0.95073 0.40962 0.0
C14 C 0.92 0.9888 0.40162 0.0
C15 C 0.88482 0.98237 0.3939 0.0
H16 H 0.93084 0.01232 0.38603 0.0
H17 H 0.86866 0.0016 0.37496 0.0
H18 H 0.08812 0.01905 0.62008 0.0
H19 H 0.03493 0.89851 0.47633 0.0
H20 H 0.14253 0.05288 0.62227 0.0
H21 H 0.84361 0.94568 0.40314 0.0
H22 H 0.85322 0.88555 0.43796 0.0
H23 H 0.94239 0.08934 0.5858 0.0
H24 H 0.95469 0.82259 0.48841 0.0
H25 H 0.01654 0.83835 0.49449 0.0
H26 H 0.10818 0.16656 0.5663 0.0
H27 H 0.89362 0.84068 0.4684 0.0
H28 H 0.98676 0.18794 0.54998 0.0
H29 H 0.93531 0.15144 0.56607 0.0
N30 N 0.99669 0.08982 0.57429 0.0
C31 C 0.02529 0.10988 0.56975 0.0
C32 C 0.96479 0.10468 0.5761 0.0
C33 C 0.98988 0.16051 0.55704 0.0
C34 C 0.96078 0.13999 0.56606 0.0
C35 C 0.02274 0.14572 0.56048 0.0
H36 H 0.05153 0.19328 0.54968 0.0
N37 N 0.05816 0.06082 0.59073 0.0
C38 C 0.05707 0.095 0.57913 0.0
C39 C 0.1185 0.09967 0.59413 0.0
C40 C 0.0873 0.11529 0.57951 0.0
C41 C 0.088 0.04593 0.60852 0.0
C42 C 0.11872 0.06498 0.60966 0.0
O43 O 0.98285 0.95224 0.52664 0.0
O44 O 0.95794 0.99811 0.56945 0.0
O45 O 0.0174 0.00491 0.66088 0.0
O46 O 0.98833 0.05214 0.66137 0.0
O47 O 0.97645 0.02792 0.44772 0.0
O48 O 0.95735 0.03728 0.53449 0.0
O49 O 0.04837 0.03184 0.52215 0.0
O50 O 0.01936 0.0288 0.44258 0.0
O51 O 0.99213 0.96467 0.36079 0.0
O52 O 0.04236 0.95768 0.39639 0.0
O53 O 0.03201 0.97795 0.58386 0.0
O54 O 0.0479 0.96395 0.49618 0.0
C55 C 0.95858 0.96505 0.55749 0.0
C56 C 0.95584 0.04338 0.48241 0.0
C57 C 0.9781 0.01201 0.73152 0.0
C58 C 0.96855 0.99617 0.82554 0.0
C59 C 0.92777 0.97833 0.75621 0.0
C60 C 0.9476 0.99483 0.71712 0.0
C61 C 0.93815 0.97886 0.80999 0.0
C62 C 0.98841 0.01277 0.78572 0.0
C63 C 0.00067 0.02705 0.69013 0.0
C64 C 0.08519 0.15059 0.567 0.0
C65 C 0.05294 0.16578 0.55743 0.0
H66 H 0.14231 0.11437 0.59496 0.0
C67 C 0.04457 0.0412 0.47195 0.0
C68 C 0.05231 0.96227 0.54893 0.0
C69 C 0.04003 0.98215 0.309 0.0
C70 C 0.04106 0.00157 0.21518 0.0
C71 C 0.07903 0.02807 0.28173 0.0
C72 C 0.06565 0.00665 0.32149 0.0
C73 C 0.067 0.02555 0.22907 0.0
C74 C 0.02783 0.97971 0.25568 0.0
C75 C 0.02488 0.96035 0.35184 0.0
H76 H 0.90431 0.96497 0.74475 0.0
H77 H 0.93937 0.99391 0.67564 0.0
H78 H 0.92212 0.96609 0.83952 0.0
H79 H 0.01233 0.02557 0.79661 0.0
H80 H 0.09882 0.04678 0.29181 0.0
H81 H 0.07532 0.00944 0.36208 0.0
H82 H 0.07835 0.04227 0.19909 0.0
H83 H 0.00755 0.96138 0.24618 0.0
C84 C 0.34356 0.69565 0.69172 0.0
C85 C 0.32514 0.63874 0.66263 0.0
C86 C 0.31755 0.67357 0.67455 0.0
C87 C 0.35881 0.62626 0.6704 0.0
C88 C 0.37764 0.68362 0.69774 0.0
C89 C 0.38502 0.64866 0.68783 0.0
N90 N 0.33552 0.72914 0.70208 0.0
C91 C 0.36051 0.75262 0.71488 0.0
C92 C 0.40333 0.70724 0.71296 0.0
C93 C 0.39477 0.74198 0.72098 0.0
Gd94 Gd 0.22461 0.75113 0.83247 0.0
Gd95 Gd 0.27776 0.74498 0.69143 0.0
N96 N 0.28531 0.68656 0.66693 0.0
C97 C 0.2989 0.61775 0.64175 0.0
C98 C 0.2605 0.66689 0.64257 0.0
C99 C 0.26661 0.63206 0.63083 0.0
H100 H 0.23612 0.67797 0.63094 0.0
H101 H 0.24658 0.61644 0.61256 0.0
H102 H 0.24202 0.83115 0.8723 0.0
H103 H 0.35385 0.77946 0.72093 0.0
H104 H 0.21122 0.88678 0.8848 0.0
H105 H 0.30366 0.59085 0.63209 0.0
H106 H 0.36503 0.5995 0.66187 0.0
H107 H 0.16178 0.69037 0.82142 0.0
H108 H 0.42985 0.69903 0.71791 0.0
H109 H 0.41452 0.76051 0.73196 0.0
H110 H 0.0942 0.86083 0.83457 0.0
H111 H 0.41099 0.63882 0.6927 0.0
H112 H 0.06573 0.74245 0.79885 0.0
H113 H 0.09938 0.68828 0.80334 0.0
N114 N 0.16458 0.74536 0.81991 0.0
C115 C 0.14618 0.77526 0.82139 0.0
C116 C 0.14789 0.71431 0.81646 0.0
C117 C 0.09339 0.7436 0.80504 0.0
C118 C 0.1123 0.71297 0.80744 0.0
C119 C 0.1101 0.77521 0.81365 0.0
H120 H 0.06406 0.80692 0.8106 0.0
N121 N 0.19765 0.80475 0.84332 0.0
C122 C 0.16308 0.80574 0.83463 0.0
C123 C 0.16224 0.86635 0.85836 0.0
C124 C 0.14451 0.83679 0.84086 0.0
C125 C 0.21481 0.83291 0.86306 0.0
C126 C 0.19746 0.86426 0.87024 0.0
O127 O 0.30189 0.72567 0.76905 0.0
O128 O 0.25571 0.70313 0.81434 0.0
O129 O 0.25073 0.75738 0.90937 0.0
O130 O 0.19968 0.73537 0.90662 0.0
O131 O 0.22371 0.72268 0.69527 0.0
O132 O 0.21696 0.70255 0.78189 0.0
O133 O 0.22104 0.79465 0.7707 0.0
O134 O 0.22324 0.76434 0.69227 0.0
O135 O 0.28371 0.74046 0.60422 0.0
O136 O 0.29306 0.78985 0.6448 0.0
O137 O 0.27748 0.77528 0.83042 0.0
O138 O 0.28818 0.79275 0.74254 0.0
C139 C 0.2889 0.70366 0.80376 0.0
C140 C 0.20971 0.70136 0.73021 0.0
C141 C 0.23581 0.71853 0.97853 0.0
C142 C 0.25026 0.70647 0.0726 0.0
C143 C 0.24794 0.65987 1.00637 0.0
C144 C 0.23903 0.68334 0.9663 0.0
C145 C 0.25334 0.6712 0.05909 0.0
C146 C 0.24165 0.73002 0.03147 0.0
C147 C 0.22583 0.74355 0.93687 0.0
C148 C 0.10887 0.83714 0.83067 0.0
C149 C 0.09172 0.80643 0.81692 0.0
H150 H 0.14887 0.89068 0.86381 0.0
C151 C 0.21343 0.79155 0.71943 0.0
C152 C 0.29286 0.7952 0.79497 0.0
C153 C 0.30016 0.78933 0.54742 0.0
C154 C 0.29669 0.79097 0.4491 0.0
C155 C 0.32166 0.83918 0.49864 0.0
C156 C 0.31561 0.82218 0.54699 0.0
C157 C 0.3121 0.82387 0.4501 0.0
C158 C 0.29116 0.77352 0.49808 0.0
C159 C 0.29188 0.77292 0.59952 0.0
H160 H 0.25027 0.63268 0.99668 0.0
H161 H 0.2343 0.67405 0.92591 0.0
H162 H 0.25927 0.65212 0.08939 0.0
H163 H 0.23959 0.75738 0.04033 0.0
H164 H 0.33356 0.86451 0.49882 0.0
H165 H 0.32283 0.83493 0.58414 0.0
H166 H 0.317 0.8377 0.41313 0.0
H167 H 0.27886 0.74834 0.49782 0.0
C168 C 0.52038 0.10875 0.95956 0.0
C169 C 0.58297 0.11123 0.95678 0.0
C170 C 0.55204 0.09198 0.95652 0.0
C171 C 0.58165 0.14742 0.96049 0.0
C172 C 0.51897 0.14511 0.96285 0.0
C173 C 0.54975 0.16432 0.96348 0.0
N174 N 0.49101 0.08951 0.95961 0.0
C175 C 0.45943 0.10494 0.9608 0.0
C176 C 0.48661 0.1611 0.9654 0.0
C177 C 0.45671 0.14091 0.96404 0.0
Gd178 Gd 0.49829 0.96756 0.08659 0.0
Gd179 Gd 0.49821 0.02949 0.95547 0.0
N180 N 0.55254 0.0568 0.95455 0.0
C181 C 0.61434 0.0935 0.9533 0.0
C182 C 0.58297 0.03957 0.94848 0.0
C183 C 0.61429 0.05755 0.94856 0.0
H184 H 0.58338 0.01208 0.94289 0.0
H185 H 0.63839 0.04367 0.94452 0.0
H186 H 0.41432 0.98914 0.10534 0.0
H187 H 0.43637 0.08947 0.95774 0.0
H188 H 0.35765 0.96085 0.10259 0.0
H189 H 0.63867 0.10734 0.95342 0.0
H190 H 0.60517 0.16261 0.96093 0.0
H191 H 0.55653 0.90438 0.0762 0.0
H192 H 0.48443 0.18897 0.96787 0.0
H193 H 0.43157 0.15305 0.96506 0.0
H194 H 0.38382 0.84103 0.07482 0.0
H195 H 0.54916 0.19226 0.96615 0.0
H196 H 0.50269 0.80816 0.06134 0.0
H197 H 0.55754 0.84095 0.06424 0.0
N198 N 0.50196 0.90745 0.07753 0.0
C199 C 0.47153 0.88991 0.0775 0.0
C200 C 0.53257 0.89035 0.07351 0.0
C201 C 0.50215 0.836 0.06609 0.0
C202 C 0.53317 0.85442 0.0675 0.0
C203 C 0.47082 0.85367 0.07129 0.0
H204 H 0.43794 0.80847 0.06535 0.0
N205 N 0.44244 0.94344 0.08755 0.0
C206 C 0.44092 0.90837 0.08279 0.0
C207 C 0.3787 0.91019 0.08826 0.0
C208 C 0.40895 0.8909 0.08214 0.0
C209 C 0.41313 0.96203 0.09658 0.0
C210 C 0.38085 0.94584 0.09618 0.0
O211 O 0.52202 0.04989 0.03237 0.0
O212 O 0.54433 0.00295 0.07738 0.0
O213 O 0.48343 0.98104 0.16817 0.0
O214 O 0.52321 0.94299 0.15463 0.0
O215 O 0.52622 0.9782 0.9525 0.0
O216 O 0.54701 0.9648 0.03721 0.0
O217 O 0.4765 0.94752 1.00784 0.0
O218 O 0.45207 0.99474 0.96726 0.0
O219 O 0.51344 0.01243 0.87564 0.0
O220 O 0.47454 0.05194 0.88465 0.0
O221 O 0.47222 0.01977 0.09093 0.0
O222 O 0.45027 0.03255 1.00681 0.0
C223 C 0.54349 0.03624 0.06721 0.0
C224 C 0.54823 0.96239 0.9844 0.0
C225 C 0.52778 0.97775 0.23254 0.0
C226 C 0.53545 0.99476 0.32657 0.0
C227 C 0.57895 0.00944 0.25986 0.0
C228 C 0.55951 0.9931 0.22002 0.0
C229 C 0.56709 0.0103 0.31277 0.0
C230 C 0.51581 0.97858 0.28583 0.0
C231 C 0.50676 0.96144 0.19012 0.0
C232 C 0.40816 0.85484 0.07561 0.0
C233 C 0.43899 0.83628 0.07024 0.0
H234 H 0.35364 0.89774 0.08798 0.0
C235 C 0.45395 0.96126 0.97483 0.0
C236 C 0.45033 0.03612 0.05954 0.0
C237 C 0.4703 0.01512 0.80907 0.0
C238 C 0.46301 0.99752 0.71524 0.0
C239 C 0.41903 0.98368 0.78161 0.0
C240 C 0.43835 1.00021 0.82142 0.0
C241 C 0.4312 0.9823 0.72889 0.0
C242 C 0.48257 0.01378 0.75598 0.0
C243 C 0.49104 0.03197 0.85129 0.0
H244 H 0.60343 0.02126 0.24978 0.0
H245 H 0.56922 0.99221 0.17944 0.0
H246 H 0.58305 0.02256 0.34305 0.0
H247 H 0.49111 0.96695 0.29534 0.0
H248 H 0.39436 0.97221 0.79153 0.0
H249 H 0.42836 0.0017 0.86179 0.0
H250 H 0.41529 0.96998 0.69859 0.0
H251 H 0.50738 0.02522 0.74658 0.0
C252 C 0.35274 0.27887 0.3135 0.0
C253 C 0.35589 0.34086 0.32763 0.0
C254 C 0.33677 0.30988 0.3254 0.0
C255 C 0.39118 0.34038 0.31486 0.0
C256 C 0.38856 0.27795 0.30358 0.0
C257 C 0.40748 0.30897 0.30278 0.0
N258 N 0.33374 0.24936 0.31555 0.0
C259 C 0.34973 0.21797 0.31413 0.0
C260 C 0.40448 0.24578 0.29697 0.0
C261 C 0.38508 0.21564 0.30339 0.0
Gd262 Gd 0.2196 0.25122 0.18787 0.0
Gd263 Gd 0.27385 0.25626 0.32876 0.0
N264 N 0.30253 0.30952 0.33664 0.0
C265 C 0.33907 0.37118 0.34384 0.0
C266 C 0.28647 0.33843 0.35584 0.0
C267 C 0.30433 0.36982 0.35889 0.0
H268 H 0.25964 0.33722 0.3675 0.0
H269 H 0.29132 0.39292 0.37271 0.0
H270 H 0.25614 0.17984 0.13219 0.0
H271 H 0.33539 0.19463 0.32199 0.0
H272 H 0.2417 0.11849 0.11924 0.0
H273 H 0.35285 0.39552 0.3461 0.0
H274 H 0.40626 0.36398 0.31558 0.0
H275 H 0.14596 0.29157 0.21391 0.0
H276 H 0.43194 0.24392 0.28931 0.0
H277 H 0.39743 0.19061 0.30092 0.0
H278 H 0.12235 0.11111 0.16904 0.0
H279 H 0.43494 0.30881 0.2946 0.0
H280 H 0.0646 0.21643 0.21664 0.0
H281 H 0.08425 0.27704 0.22655 0.0
N282 N 0.16079 0.23968 0.19879 0.0
C283 C 0.15038 0.20655 0.19064 0.0
C284 C 0.13752 0.26507 0.20999 0.0
C285 C 0.09162 0.22269 0.21106 0.0
C286 C 0.10262 0.25693 0.21683 0.0
C287 C 0.11554 0.19701 0.19744 0.0
H288 H 0.0792 0.15439 0.19605 0.0
N289 N 0.20795 0.19273 0.1676 0.0
C290 C 0.17482 0.18223 0.17565 0.0
C291 C 0.18962 0.12422 0.148 0.0
C292 C 0.16485 0.1476 0.1667 0.0
C293 C 0.23128 0.17069 0.145 0.0
C294 C 0.22281 0.13599 0.13614 0.0
O295 O 0.27651 0.29915 0.26645 0.0
O296 O 0.27464 0.27029 0.18657 0.0
O297 O 0.21261 0.2443 0.10173 0.0
O298 O 0.20515 0.29461 0.13764 0.0
O299 O 0.22107 0.28035 0.32653 0.0
O300 O 0.21038 0.29904 0.23917 0.0
O301 O 0.19593 0.23233 0.26582 0.0
O302 O 0.24133 0.20865 0.31193 0.0
O303 O 0.25002 0.26749 0.40566 0.0
O304 O 0.29668 0.23751 0.40329 0.0
O305 O 0.27265 0.22721 0.19079 0.0
O306 O 0.28116 0.20781 0.27767 0.0
C307 C 0.28663 0.29545 0.21655 0.0
C308 C 0.20682 0.30154 0.29182 0.0
C309 C 0.23116 0.29234 0.05122 0.0
C310 C 0.25158 0.29374 0.9579 0.0
C311 C 0.27752 0.33126 0.02566 0.0
C312 C 0.2556 0.31781 0.06472 0.0
C313 C 0.27553 0.31949 0.97273 0.0
C314 C 0.22928 0.28039 0.9977 0.0
C315 C 0.20861 0.27717 0.09304 0.0
C316 C 0.13039 0.13766 0.17521 0.0
C317 C 0.10578 0.16233 0.19043 0.0
H318 H 0.18303 0.09739 0.14063 0.0
C319 C 0.20847 0.20891 0.29856 0.0
C320 C 0.28725 0.20621 0.22556 0.0
C321 C 0.25788 0.22763 0.4753 0.0
C322 C 0.24245 0.21833 0.56952 0.0
C323 C 0.22599 0.17634 0.50096 0.0
C324 C 0.24181 0.19641 0.4615 0.0
C325 C 0.22617 0.1872 0.55456 0.0
C326 C 0.25833 0.23844 0.52931 0.0
C327 C 0.27239 0.25018 0.43349 0.0
H328 H 0.2962 0.35094 0.03649 0.0
H329 H 0.25791 0.32729 0.10551 0.0
H330 H 0.29261 0.33091 0.94331 0.0
H331 H 0.21097 0.26022 0.9875 0.0
H332 H 0.21347 0.1523 0.48995 0.0
H333 H 0.24133 0.18782 0.42018 0.0
H334 H 0.21397 0.17099 0.58442 0.0
H335 H 0.27036 0.26286 0.53977 0.0
C336 C 0.85705 0.22531 0.20703 0.0
C337 C 0.86013 0.16367 0.18927 0.0
C338 C 0.8408 0.19425 0.19553 0.0
C339 C 0.89595 0.16445 0.19778 0.0
C340 C 0.89323 0.22649 0.21316 0.0
C341 C 0.91245 0.19578 0.20991 0.0
N342 N 0.83781 0.25464 0.20834 0.0
C343 C 0.85359 0.28618 0.21031 0.0
C344 C 0.90915 0.25868 0.22011 0.0
C345 C 0.88928 0.2887 0.21771 0.0
Gd346 Gd 0.72096 0.25351 0.33581 0.0
Gd347 Gd 0.77781 0.2473 0.19806 0.0
N348 N 0.80607 0.19421 0.18846 0.0
C349 C 0.84292 0.13341 0.17353 0.0
C350 C 0.78933 0.16529 0.17059 0.0
C351 C 0.80742 0.13434 0.16349 0.0
H352 H 0.76194 0.16614 0.1625 0.0
H353 H 0.79401 0.11127 0.15031 0.0
H354 H 0.75538 0.32586 0.39183 0.0
H355 H 0.83887 0.30949 0.20481 0.0
H356 H 0.73993 0.38703 0.40298 0.0
H357 H 0.85686 0.1094 0.16811 0.0
H358 H 0.91121 0.14114 0.19387 0.0
H359 H 0.64888 0.21245 0.30141 0.0
H360 H 0.93687 0.26071 0.22498 0.0
H361 H 0.90151 0.31381 0.2204 0.0
H362 H 0.62225 0.39268 0.34384 0.0
H363 H 0.94023 0.19616 0.21497 0.0
H364 H 0.56722 0.28674 0.29104 0.0
H365 H 0.58767 0.22635 0.28288 0.0
N366 N 0.6627 0.26448 0.3182 0.0
C367 C 0.65174 0.29751 0.32534 0.0
C368 C 0.64011 0.23885 0.3046 0.0
C369 C 0.59402 0.28076 0.2992 0.0
C370 C 0.60548 0.24664 0.29441 0.0
C371 C 0.61717 0.30668 0.31513 0.0
H372 H 0.58051 0.34889 0.31306 0.0
N373 N 0.7083 0.31207 0.35338 0.0
C374 C 0.67541 0.32214 0.34242 0.0
C375 C 0.68881 0.38046 0.37052 0.0
C376 C 0.66488 0.35669 0.35012 0.0
C377 C 0.73078 0.33457 0.37721 0.0
C378 C 0.72172 0.3692 0.38497 0.0
O379 O 0.78315 0.20547 0.26201 0.0
O380 O 0.77596 0.23507 0.34099 0.0
O381 O 0.71329 0.26144 0.42172 0.0
O382 O 0.70256 0.21169 0.38605 0.0
O383 O 0.72564 0.22155 0.2002 0.0
O384 O 0.71584 0.20378 0.28784 0.0
O385 O 0.69939 0.27106 0.25559 0.0
O386 O 0.74602 0.29517 0.21388 0.0
O387 O 0.75242 0.23751 0.12169 0.0
O388 O 0.80105 0.26446 0.12307 0.0
O389 O 0.77392 0.27822 0.33589 0.0
O390 O 0.78507 0.29602 0.24876 0.0
C391 C 0.78926 0.20934 0.31369 0.0
C392 C 0.71149 0.20062 0.23551 0.0
C393 C 0.72642 0.21223 0.47407 0.0
C394 C 0.74522 0.21006 0.56827 0.0
C395 C 0.76594 0.16747 0.50362 0.0
C396 C 0.7468 0.18305 0.46301 0.0
C397 C 0.76516 0.18071 0.55574 0.0
C398 C 0.72569 0.22561 0.5269 0.0
C399 C 0.70643 0.22906 0.43061 0.0
C400 C 0.6307 0.36621 0.33855 0.0
C401 C 0.60689 0.34125 0.32118 0.0
H402 H 0.68176 0.40724 0.37701 0.0
C403 C 0.71273 0.29433 0.2234 0.0
C404 C 0.78977 0.29845 0.30118 0.0
C405 C 0.76289 0.27632 0.05105 0.0
C406 C 0.74796 0.28602 0.95666 0.0
C407 C 0.73725 0.33062 0.02391 0.0
C408 C 0.75098 0.30947 0.06385 0.0
C409 C 0.73563 0.31903 0.97073 0.0
C410 C 0.76151 0.26472 0.99745 0.0
C411 C 0.77579 0.25317 0.09335 0.0
H412 H 0.78147 0.14494 0.49464 0.0
H413 H 0.74812 0.17225 0.42289 0.0
H414 H 0.7799 0.16757 0.58642 0.0
H415 H 0.71037 0.24839 0.53543 0.0
H416 H 0.72797 0.35618 0.03416 0.0
H417 H 0.75239 0.31884 0.1047 0.0
H418 H 0.72537 0.3362 0.94043 0.0
H419 H 0.77056 0.23895 0.98771 0.0
C420 C 0.85668 0.78183 0.82053 0.0
C421 C 0.85391 0.84418 0.83125 0.0
C422 C 0.83739 0.81168 0.82912 0.0
C423 C 0.88979 0.8463 0.82405 0.0
C424 C 0.89273 0.78389 0.81356 0.0
C425 C 0.90914 0.81626 0.8153 0.0
N426 N 0.84003 0.7509 0.8174 0.0
C427 C 0.8579 0.72101 0.80952 0.0
C428 C 0.9112 0.75333 0.80454 0.0
C429 C 0.89371 0.72175 0.80277 0.0
Gd430 Gd 0.72096 0.75551 0.695 0.0
Gd431 Gd 0.78011 0.75242 0.82854 0.0
N432 N 0.80247 0.80898 0.83438 0.0
C433 C 0.83387 0.87361 0.84076 0.0
C434 C 0.78326 0.83734 0.84714 0.0
C435 C 0.79848 0.87009 0.8495 0.0
H436 H 0.75648 0.83493 0.85718 0.0
H437 H 0.78296 0.89255 0.85882 0.0
H438 H 0.73339 0.66965 0.68257 0.0
H439 H 0.84461 0.69652 0.80933 0.0
H440 H 0.69835 0.61662 0.67785 0.0
H441 H 0.84558 0.89903 0.84266 0.0
H442 H 0.90285 0.87108 0.82533 0.0
H443 H 0.66532 0.82134 0.69395 0.0
H444 H 0.93893 0.75383 0.79907 0.0
H445 H 0.90781 0.69797 0.79637 0.0
H446 H 0.58148 0.65746 0.68181 0.0
H447 H 0.9368 0.81834 0.80984 0.0
H448 H 0.56283 0.7798 0.69143 0.0
H449 H 0.60212 0.83026 0.69476 0.0
N450 N 0.66161 0.76669 0.69337 0.0
C451 C 0.64056 0.73863 0.69011 0.0
C452 C 0.6483 0.79927 0.69428 0.0
C453 C 0.5905 0.77579 0.69182 0.0
C454 C 0.61258 0.80434 0.69389 0.0
C455 C 0.60438 0.74243 0.68955 0.0
H456 H 0.55541 0.71534 0.68636 0.0
N457 N 0.69026 0.70316 0.68939 0.0
C458 C 0.65527 0.70594 0.6874 0.0
C459 C 0.64995 0.64382 0.68149 0.0
C460 C 0.63416 0.67629 0.68423 0.0
C461 C 0.70578 0.6717 0.68429 0.0
C462 C 0.68591 0.64156 0.68102 0.0
O463 O 0.80155 0.77398 0.75047 0.0
O464 O 0.75567 0.80129 0.71138 0.0
O465 O 0.74058 0.73959 0.61713 0.0
O466 O 0.70301 0.7807 0.62225 0.0
O467 O 0.72749 0.77762 0.83218 0.0
O468 O 0.71788 0.80219 0.74916 0.0
O469 O 0.69827 0.72839 0.76775 0.0
O470 O 0.74321 0.70727 0.81949 0.0
O471 O 0.76964 0.76661 0.91141 0.0
O472 O 0.80468 0.72471 0.89398 0.0
O473 O 0.7712 0.72584 0.69411 0.0
O474 O 0.78247 0.70378 0.77864 0.0
C475 C 0.78891 0.79877 0.72046 0.0
C476 C 0.71229 0.80055 0.80124 0.0
C477 C 0.74296 0.78249 0.55052 0.0
C478 C 0.76147 0.78959 0.45723 0.0
C479 C 0.78203 0.82899 0.52683 0.0
C480 C 0.76281 0.81127 0.56532 0.0
C481 C 0.7814 0.81832 0.47316 0.0
C482 C 0.74239 0.77169 0.4966 0.0
C483 C 0.72333 0.763 0.59096 0.0
C484 C 0.59811 0.67996 0.68405 0.0
C485 C 0.58326 0.71293 0.68669 0.0
H486 H 0.63464 0.62041 0.6791 0.0
C487 C 0.71063 0.70724 0.80436 0.0
C488 C 0.78506 0.70255 0.7259 0.0
C489 C 0.77204 0.72146 0.97418 0.0
C490 C 0.75637 0.71504 0.06883 0.0
C491 C 0.73827 0.67205 1.00287 0.0
C492 C 0.75475 0.69055 0.96229 0.0
C493 C 0.73901 0.68414 0.05576 0.0
C494 C 0.77286 0.73361 0.02746 0.0
C495 C 0.78834 0.74181 0.93121 0.0
H496 H 0.79734 0.8512 0.53858 0.0
H497 H 0.76332 0.82 0.60654 0.0
H498 H 0.79607 0.83296 0.44405 0.0
H499 H 0.72739 0.74909 0.48556 0.0
H500 H 0.72494 0.64819 0.99331 0.0
H501 H 0.75407 0.6808 0.92163 0.0
H502 H 0.72643 0.66899 0.08656 0.0
H503 H 0.78586 0.75777 0.03645 0.0
C504 C 0.4492 0.40646 0.93926 0.0
C505 C 0.39173 0.42491 0.91406 0.0
C506 C 0.42675 0.43257 0.92416 0.0
C507 C 0.37947 0.39108 0.92164 0.0
C508 C 0.43735 0.37222 0.94497 0.0
C509 C 0.40224 0.36477 0.93694 0.0
N510 N 0.48279 0.41462 0.94843 0.0
C511 C 0.50646 0.38962 0.95966 0.0
C512 C 0.46123 0.3465 0.95843 0.0
C513 C 0.496 0.3552 0.96525 0.0
Gd514 Gd 0.50433 0.5243 0.08119 0.0
Gd515 Gd 0.49825 0.47272 0.93912 0.0
N516 N 0.43949 0.46503 0.91692 0.0
C517 C 0.37031 0.45126 0.89509 0.0
C518 C 0.41936 0.48987 0.89391 0.0
C519 C 0.38436 0.48369 0.88401 0.0
H520 H 0.43019 0.51432 0.8819 0.0
H521 H 0.36838 0.50379 0.86698 0.0
H522 H 0.58557 0.51001 0.11758 0.0
H523 H 0.53333 0.39636 0.96482 0.0
H524 H 0.64075 0.54239 0.12438 0.0
H525 H 0.34326 0.44645 0.88689 0.0
H526 H 0.35257 0.38481 0.91461 0.0
H527 H 0.44194 0.58551 0.07619 0.0
H528 H 0.45316 0.31987 0.96313 0.0
H529 H 0.51471 0.33544 0.97497 0.0
H530 H 0.61057 0.65806 0.07272 0.0
H531 H 0.39253 0.3387 0.94177 0.0
H532 H 0.49051 0.68305 0.04797 0.0
H533 H 0.43757 0.64786 0.05802 0.0
N534 N 0.49678 0.58439 0.07025 0.0
C535 C 0.5261 0.60369 0.06878 0.0
C536 C 0.46527 0.60017 0.06944 0.0
C537 C 0.4926 0.65546 0.05453 0.0
C538 C 0.46266 0.63569 0.06014 0.0
C539 C 0.52485 0.6397 0.06038 0.0
H540 H 0.55522 0.68657 0.05325 0.0
N541 N 0.5573 0.55331 0.08944 0.0
C542 C 0.55726 0.58778 0.0797 0.0
C543 C 0.61846 0.59045 0.09796 0.0
C544 C 0.588 0.60721 0.08261 0.0
C545 C 0.58638 0.53719 0.10762 0.0
C546 C 0.61751 0.5554 0.11139 0.0
O547 O 0.47933 0.4479 0.01625 0.0
O548 O 0.45618 0.49287 0.06406 0.0
O549 O 0.51534 0.49914 0.15695 0.0
O550 O 0.48644 0.54655 0.15681 0.0
O551 O 0.47595 0.52673 0.94418 0.0
O552 O 0.45571 0.53213 0.03095 0.0
O553 O 0.54744 0.52735 0.0189 0.0
O554 O 0.51843 0.52735 0.93936 0.0
O555 O 0.49182 0.46559 0.85296 0.0
O556 O 0.54174 0.4577 0.88932 0.0
O557 O 0.52808 0.47112 0.07767 0.0
O558 O 0.546 0.46123 0.98966 0.0
C559 C 0.45612 0.46016 0.04967 0.0
C560 C 0.45472 0.54036 0.97966 0.0
C561 C 0.47602 0.50699 0.22747 0.0
C562 C 0.46631 0.49194 0.32165 0.0
C563 C 0.42497 0.47466 0.25283 0.0
C564 C 0.4451 0.4905 0.21345 0.0
C565 C 0.43549 0.47523 0.30654 0.0
C566 C 0.48647 0.50782 0.28154 0.0
C567 C 0.49868 0.52155 0.18587 0.0
C568 C 0.58715 0.64274 0.07143 0.0
C569 C 0.55564 0.65895 0.06024 0.0
H570 H 0.64261 0.60448 0.10072 0.0
C571 C 0.54406 0.53817 0.9693 0.0
C572 C 0.54829 0.45607 0.04204 0.0
C573 C 0.54018 0.48326 0.80266 0.0
C574 C 0.54189 0.50314 0.70922 0.0
C575 C 0.57961 0.52908 0.77662 0.0
C576 C 0.56589 0.50749 0.81591 0.0
C577 C 0.56785 0.52693 0.72374 0.0
C578 C 0.52829 0.4812 0.74922 0.0
C579 C 0.52461 0.46114 0.84457 0.0
H580 H 0.40117 0.46182 0.24167 0.0
H581 H 0.4368 0.48969 0.17204 0.0
H582 H 0.41926 0.463 0.33635 0.0
H583 H 0.51068 0.52016 0.29215 0.0
H584 H 0.59945 0.54761 0.78723 0.0
H585 H 0.57534 0.50991 0.85667 0.0
H586 H 0.57941 0.54375 0.6941 0.0
H587 H 0.50793 0.46305 0.73923 0.0
C588 C 0.0503 0.59175 0.44639 0.0
C589 C 0.10657 0.57338 0.41519 0.0
C590 C 0.07199 0.56577 0.4283 0.0
C591 C 0.11933 0.60703 0.42322 0.0
C592 C 0.0625 0.62587 0.45228 0.0
C593 C 0.09732 0.63323 0.44165 0.0
N594 N 0.01691 0.58374 0.45701 0.0
C595 C 0.99364 0.60882 0.47 0.0
C596 C 0.03913 0.65164 0.46777 0.0
C597 C 0.00445 0.64313 0.47604 0.0
Gd598 Gd 0.9993 0.47081 0.5889 0.0
Gd599 Gd 0.00083 0.52584 0.44691 0.0
N600 N 0.05866 0.53364 0.42023 0.0
C601 C 0.12691 0.54728 0.39254 0.0
C602 C 0.07748 0.50915 0.3937 0.0
C603 C 0.11208 0.51523 0.38079 0.0
H604 H 0.06583 0.48504 0.38147 0.0
H605 H 0.12711 0.49537 0.36098 0.0
H606 H 0.91974 0.47937 0.6352 0.0
H607 H 0.96689 0.60216 0.47632 0.0
H608 H 0.86775 0.44306 0.64971 0.0
H609 H 0.1536 0.55206 0.38192 0.0
H610 H 0.14591 0.61327 0.41387 0.0
H611 H 0.06548 0.41392 0.57583 0.0
H612 H 0.04746 0.67821 0.47263 0.0
H613 H 0.98609 0.66294 0.48718 0.0
H614 H 0.90269 0.32999 0.59071 0.0
H615 H 0.10731 0.65923 0.44648 0.0
H616 H 0.02235 0.31348 0.55032 0.0
H617 H 0.07314 0.35212 0.55564 0.0
N618 N 0.0105 0.41152 0.57485 0.0
C619 C 0.98252 0.3903 0.576 0.0
C620 C 0.0429 0.39784 0.57079 0.0
C621 C 0.01871 0.34088 0.55747 0.0
C622 C 0.04744 0.3626 0.56043 0.0
C623 C 0.98583 0.35442 0.56707 0.0
H624 H 0.95856 0.3055 0.56326 0.0
N625 N 0.949 0.43836 0.60151 0.0
C626 C 0.95094 0.40401 0.59092 0.0
C627 C 0.89159 0.39681 0.61861 0.0
C628 C 0.92202 0.38237 0.59807 0.0
C629 C 0.92016 0.45229 0.6244 0.0
C630 C 0.89086 0.43183 0.63269 0.0
O631 O 0.01942 0.55034 0.52498 0.0
O632 O 0.04463 0.50442 0.56742 0.0
O633 O 0.99402 0.49807 0.66526 0.0
O634 O 0.01667 0.44736 0.66342 0.0
O635 O 0.02347 0.47204 0.45054 0.0
O636 O 0.04686 0.4667 0.53539 0.0
O637 O 0.95404 0.46621 0.53049 0.0
O638 O 0.98264 0.47098 0.45118 0.0
O639 O 0.00385 0.53176 0.35948 0.0
O640 O 0.95481 0.53896 0.40129 0.0
O641 O 0.97057 0.52136 0.58766 0.0
O642 O 0.95437 0.53628 0.50018 0.0
C643 C 0.04209 0.53776 0.55908 0.0
C644 C 0.04689 0.45971 0.48357 0.0
C645 C 0.03223 0.48394 0.73623 0.0
C646 C 0.04263 0.49817 0.83103 0.0
C647 C 0.09041 0.49535 0.76757 0.0
C648 C 0.06767 0.48678 0.72606 0.0
C649 C 0.0781 0.50081 0.81969 0.0
C650 C 0.01976 0.48997 0.78866 0.0
C651 C 0.00801 0.47356 0.6933 0.0
C652 C 0.92475 0.34698 0.58626 0.0
C653 C 0.95656 0.33305 0.57055 0.0
H654 H 0.86886 0.38102 0.62492 0.0
C655 C 0.95534 0.46163 0.47819 0.0
C656 C 0.95048 0.53743 0.55301 0.0
C657 C 0.95352 0.54545 0.30366 0.0
C658 C 0.95218 0.54576 0.20473 0.0
C659 C 0.90114 0.56158 0.25646 0.0
C660 C 0.91897 0.55629 0.30426 0.0
C661 C 0.9174 0.55621 0.20726 0.0
C662 C 0.97013 0.54024 0.25359 0.0
C663 C 0.97105 0.53822 0.35549 0.0
H664 H 0.11775 0.49758 0.75939 0.0
H665 H 0.07773 0.482 0.68618 0.0
H666 H 0.09632 0.50749 0.85106 0.0
H667 H 0.99237 0.48747 0.79666 0.0
H668 H 0.87439 0.56958 0.25753 0.0
H669 H 0.90548 0.56037 0.34183 0.0
H670 H 0.90235 0.55977 0.17106 0.0
H671 H 0.99683 0.53199 0.25271 0.0
H672 H 0.11356 0.04854 0.49325 0.0
H673 H 0.13839 0.21431 0.30863 0.0
H674 H 0.03199 0.0888 0.39388 0.0
H675 H 0.22344 0.14729 0.34826 0.0
H676 H 0.09866 0.173 0.34945 0.0
H677 H 0.15398 0.08939 0.45154 0.0
C678 C 0.10414 0.06618 0.46297 0.0
C679 C 0.06937 0.06557 0.44732 0.0
C680 C 0.12601 0.1673 0.34915 0.0
C681 C 0.11535 0.11206 0.39926 0.0
C682 C 0.14874 0.19077 0.3255 0.0
C683 C 0.18434 0.18415 0.32439 0.0
C684 C 0.13896 0.13725 0.37319 0.0
C685 C 0.19625 0.15361 0.34846 0.0
C686 C 0.12724 0.08922 0.43887 0.0
C687 C 0.05861 0.08846 0.4071 0.0
N688 N 0.17365 0.13139 0.37219 0.0
N689 N 0.08144 0.11095 0.38474 0.0
H690 H 0.07327 0.95814 0.65345 0.0
H691 H 0.18421 0.7877 0.61937 0.0
H692 H 0.09369 0.91417 0.49701 0.0
H693 H 0.19569 0.85653 0.75477 0.0
H694 H 0.14806 0.83086 0.57511 0.0
H695 H 0.11466 0.91849 0.6926 0.0
C696 C 0.08644 0.94022 0.62706 0.0
C697 C 0.07945 0.93938 0.57164 0.0
C698 C 0.15851 0.83649 0.61453 0.0
C699 C 0.12705 0.89335 0.61702 0.0
C700 C 0.1791 0.81184 0.64 0.0
C701 C 0.19238 0.81812 0.69172 0.0
C702 C 0.1508 0.86754 0.64109 0.0
C703 C 0.18507 0.85003 0.71596 0.0
C704 C 0.11024 0.91758 0.64967 0.0
C705 C 0.0978 0.91556 0.53993 0.0
N706 N 0.1645 0.87337 0.69075 0.0
N707 N 0.12046 0.89319 0.56317 0.0
H708 H 0.34101 0.78201 0.87046 0.0
H709 H 0.39182 0.97653 0.92691 0.0
H710 H 0.30294 0.86325 0.76839 0.0
H711 H 0.46171 0.89213 0.95765 0.0
H712 H 0.35409 0.93654 0.87729 0.0
H713 H 0.381 0.82305 0.91211 0.0
C714 C 0.34129 0.80856 0.85669 0.0
C715 C 0.31884 0.81943 0.81603 0.0
C716 C 0.37784 0.92699 0.89465 0.0
C717 C 0.36391 0.86654 0.86408 0.0
C718 C 0.39943 0.94974 0.92273 0.0
C719 C 0.43026 0.93779 0.94564 0.0
C720 C 0.38676 0.89193 0.89091 0.0
C721 C 0.43822 0.90254 0.94068 0.0
C722 C 0.3641 0.83188 0.88033 0.0
C723 C 0.32015 0.85397 0.79941 0.0
N724 N 0.41653 0.88085 0.91417 0.0
N725 N 0.34209 0.87657 0.82406 0.0
H726 H 0.447 0.05418 0.16581 0.0
H727 H 0.31939 0.2084 0.12861 0.0
H728 H 0.39493 0.07007 0.01449 0.0
H729 H 0.31188 0.14621 0.27184 0.0
H730 H 0.35734 0.16518 0.08896 0.0
H731 H 0.40665 0.09422 0.20854 0.0
C732 C 0.42728 0.06617 0.14132 0.0
C733 C 0.42511 0.05947 0.08582 0.0
C734 C 0.34739 0.1611 0.12909 0.0
C735 C 0.37937 0.10559 0.13477 0.0
C736 C 0.32581 0.18573 0.15196 0.0
C737 C 0.31224 0.18088 0.20372 0.0
C738 C 0.35636 0.13177 0.15857 0.0
C739 C 0.32197 0.15115 0.23209 0.0
C740 C 0.40427 0.0889 0.16596 0.0
C741 C 0.39864 0.07551 0.05668 0.0
N742 N 0.34373 0.12772 0.20925 0.0
N743 N 0.37712 0.09828 0.08133 0.0
H744 H 0.96823 0.89725 0.5822 0.0
H745 H 0.77557 0.86536 0.68849 0.0
H746 H 0.89244 0.97849 0.59131 0.0
H747 H 0.85739 0.79025 0.69899 0.0
H748 H 0.81661 0.90674 0.64968 0.0
H749 H 0.92672 0.85724 0.62149 0.0
C750 C 0.94274 0.90665 0.59239 0.0
C751 C 0.93369 0.94118 0.58313 0.0
C752 C 0.82557 0.88123 0.6606 0.0
C753 C 0.88591 0.89549 0.62887 0.0
C754 C 0.80214 0.85757 0.68252 0.0
C755 C 0.81306 0.82427 0.69682 0.0
C756 C 0.86013 0.87145 0.65277 0.0
C757 C 0.84784 0.81566 0.68873 0.0
C758 C 0.91907 0.88381 0.61513 0.0
C759 C 0.90047 0.95206 0.5979 0.0
N760 N 0.87004 0.839 0.66716 0.0
N761 N 0.8777 0.92926 0.61987 0.0
H762 H 0.95763 0.07448 0.38444 0.0
H763 H 0.81542 0.21419 0.41619 0.0
H764 H 0.89698 0.07057 0.52973 0.0
H765 H 0.81423 0.1472 0.27751 0.0
H766 H 0.85459 0.17355 0.46106 0.0
H767 H 0.91543 0.11398 0.34569 0.0
C768 C 0.93561 0.08206 0.4085 0.0
C769 C 0.93097 0.06906 0.46067 0.0
C770 C 0.84576 0.16804 0.42065 0.0
C771 C 0.88321 0.11523 0.41665 0.0
C772 C 0.82351 0.19114 0.39487 0.0
C773 C 0.8122 0.18462 0.34206 0.0
C774 C 0.85746 0.13878 0.39289 0.0
C775 C 0.82336 0.15411 0.31698 0.0
C776 C 0.91161 0.1046 0.38621 0.0
C777 C 0.90198 0.08029 0.48982 0.0
N778 N 0.84583 0.13263 0.34217 0.0
N779 N 0.87926 0.10304 0.46757 0.0
H780 H 0.6983 0.13481 0.27128 0.0
H781 H 0.53836 0.10612 0.07723 0.0
H782 H 0.66714 0.20965 0.15289 0.0
H783 H 0.60452 0.02058 0.11869 0.0
H784 H 0.57892 0.14551 0.12043 0.0
H785 H 0.65699 0.09317 0.23188 0.0
C786 C 0.68262 0.14246 0.23733 0.0
C787 C 0.68615 0.17547 0.21494 0.0
C788 C 0.58439 0.11807 0.12046 0.0
C789 C 0.63906 0.12872 0.17073 0.0
C790 C 0.56133 0.09552 0.09565 0.0
C791 C 0.56785 0.05985 0.09477 0.0
C792 C 0.61394 0.10493 0.14556 0.0
C793 C 0.59799 0.04773 0.11973 0.0
C794 C 0.65936 0.11876 0.21478 0.0
C795 C 0.66543 0.18427 0.17091 0.0
N796 N 0.61991 0.07024 0.14453 0.0
N797 N 0.64261 0.16113 0.15048 0.0
H798 H 0.68388 0.85963 0.7585 0.0
H799 H 0.60294 0.92822 0.03135 0.0
H800 H 0.68931 0.80044 0.90496 0.0
H801 H 0.55474 0.94699 0.87771 0.0
H802 H 0.64375 0.88915 0.98694 0.0
H803 H 0.64473 0.90011 0.80321 0.0
C804 C 0.67649 0.85478 0.79965 0.0
C805 C 0.68911 0.82595 0.82739 0.0
C806 C 0.62409 0.90187 0.96324 0.0
C807 C 0.6459 0.87312 0.87943 0.0
C808 C 0.60063 0.92393 0.98855 0.0
C809 C 0.57462 0.94016 0.95863 0.0
C810 C 0.62217 0.8969 0.90746 0.0
C811 C 0.57399 0.93476 0.90273 0.0
C812 C 0.65448 0.87811 0.82528 0.0
C813 C 0.67994 0.82205 0.88167 0.0
N814 N 0.59743 0.91367 0.87897 0.0
N815 N 0.65898 0.84543 0.90598 0.0
H816 H 0.61282 0.54536 0.99358 0.0
H817 H 0.64005 0.70941 0.80454 0.0
H818 H 0.53309 0.58602 0.89107 0.0
H819 H 0.72531 0.64693 0.85865 0.0
H820 H 0.60005 0.66791 0.84383 0.0
H821 H 0.65398 0.58633 0.95389 0.0
C822 C 0.60393 0.56313 0.96311 0.0
C823 C 0.56941 0.56262 0.9461 0.0
C824 C 0.62752 0.66332 0.84734 0.0
C825 C 0.61631 0.60917 0.90008 0.0
C826 C 0.65047 0.68699 0.82472 0.0
C827 C 0.68628 0.68196 0.82868 0.0
C828 C 0.6403 0.6345 0.87502 0.0
C829 C 0.69802 0.65245 0.85584 0.0
C830 C 0.62747 0.58624 0.94012 0.0
C831 C 0.55943 0.58562 0.90553 0.0
N832 N 0.67513 0.62996 0.87828 0.0
N833 N 0.58266 0.60807 0.88418 0.0
H834 H 0.72835 0.35579 0.17395 0.0
H835 H 0.53442 0.40703 0.11601 0.0
H836 H 0.64381 0.28586 0.20391 0.0
H837 H 0.6165 0.44581 0.01618 0.0
H838 H 0.57489 0.36648 0.15713 0.0
H839 H 0.68883 0.39334 0.1237 0.0
C840 C 0.70156 0.34823 0.16978 0.0
C841 C 0.68938 0.3176 0.19322 0.0
C842 C 0.58404 0.38363 0.12593 0.0
C843 C 0.64401 0.36085 0.13723 0.0
C844 C 0.56102 0.40679 0.10258 0.0
C845 C 0.57225 0.42966 0.06268 0.0
C846 C 0.61881 0.38387 0.11028 0.0
C847 C 0.6069 0.42833 0.04656 0.0
C848 C 0.67907 0.36969 0.1412 0.0
C849 C 0.65427 0.30946 0.18736 0.0
N850 N 0.62918 0.40609 0.07099 0.0
N851 N 0.63279 0.33106 0.16042 0.0
H852 H 0.89599 0.43388 0.51989 0.0
H853 H 0.81649 0.35709 0.25317 0.0
H854 H 0.95215 0.44422 0.37144 0.0
H855 H 0.81824 0.29914 0.40108 0.0
H856 H 0.85637 0.39927 0.294 0.0
H857 H 0.85552 0.39481 0.47501 0.0
C858 C 0.90003 0.42774 0.47816 0.0
C859 C 0.92836 0.44118 0.45025 0.0
C860 C 0.84789 0.37718 0.31711 0.0
C861 C 0.88108 0.39817 0.39774 0.0
C862 C 0.82544 0.353 0.29383 0.0
C863 C 0.81424 0.32429 0.32347 0.0
C864 C 0.85815 0.37309 0.37077 0.0
C865 C 0.82598 0.32088 0.37662 0.0
C866 C 0.87675 0.40574 0.45241 0.0
C867 C 0.93111 0.43383 0.395 0.0
N868 N 0.84696 0.34514 0.39869 0.0
N869 N 0.90775 0.41277 0.37045 0.0
H870 H 0.81494 0.6455 0.77255 0.0
H871 H 0.90637 0.58209 0.50084 0.0
H872 H 0.80433 0.69788 0.62054 0.0
H873 H 0.93206 0.54357 0.65855 0.0
H874 H 0.86368 0.62045 0.54218 0.0
H875 H 0.85306 0.60346 0.72936 0.0
C876 C 0.82065 0.64825 0.73022 0.0
C877 C 0.80684 0.67566 0.70048 0.0
C878 C 0.87867 0.60347 0.56758 0.0
C879 C 0.84994 0.6273 0.65055 0.0
C880 C 0.90304 0.58156 0.544 0.0
C881 C 0.92318 0.55974 0.57616 0.0
C882 C 0.87422 0.60332 0.62362 0.0
C883 C 0.91743 0.56004 0.63193 0.0
C884 C 0.84232 0.62417 0.70552 0.0
C885 C 0.81454 0.67739 0.64536 0.0
N886 N 0.89359 0.58149 0.6538 0.0
N887 N 0.83563 0.65365 0.62227 0.0
H888 H 0.29367 0.36441 0.23912 0.0
H889 H 0.46144 0.39 0.05895 0.0
H890 H 0.33523 0.28315 0.13971 0.0
H891 H 0.39433 0.47507 0.09887 0.0
H892 H 0.41975 0.35005 0.09831 0.0
H893 H 0.33502 0.40506 0.19919 0.0
C894 C 0.31167 0.35512 0.20916 0.0
C895 C 0.31128 0.32037 0.19296 0.0
C896 C 0.4141 0.37745 0.09837 0.0
C897 C 0.35837 0.3666 0.147 0.0
C898 C 0.43779 0.40029 0.07554 0.0
C899 C 0.43121 0.43594 0.07484 0.0
C900 C 0.38386 0.39034 0.122 0.0
C901 C 0.40055 0.44781 0.09864 0.0
C902 C 0.33501 0.37834 0.1861 0.0
C903 C 0.3347 0.30975 0.15329 0.0
N904 N 0.37809 0.4251 0.12153 0.0
N905 N 0.35746 0.3327 0.13194 0.0
H906 H 0.46768 0.58949 0.9053 0.0
H907 H 0.27272 0.64632 0.86383 0.0
H908 H 0.38706 0.55174 1.00885 0.0
H909 H 0.35906 0.70867 0.81347 0.0
H910 H 0.31269 0.60882 0.91306 0.0
H911 H 0.42718 0.63065 0.86637 0.0
C912 C 0.4414 0.59007 0.92005 0.0
C913 C 0.43064 0.56722 0.96029 0.0
C914 C 0.32279 0.6308 0.89134 0.0
C915 C 0.38385 0.61397 0.91522 0.0
C916 C 0.3 0.65229 0.86334 0.0
C917 C 0.31252 0.68065 0.83409 0.0
C918 C 0.35842 0.63738 0.8893 0.0
C919 C 0.34823 0.68675 0.83433 0.0
C920 C 0.4183 0.61362 0.8979 0.0
C921 C 0.39635 0.56912 0.97809 0.0
N922 N 0.36988 0.66519 0.86101 0.0
N923 N 0.37396 0.59183 0.95493 0.0
H924 H 0.16189 0.7149 0.65391 0.0
H925 H 0.09931 0.52134 0.61841 0.0
H926 H 0.19631 0.63457 0.76075 0.0
H927 H 0.03794 0.60824 0.56771 0.0
H928 H 0.13798 0.56111 0.66589 0.0
H929 H 0.11927 0.67514 0.61598 0.0
C930 C 0.16033 0.68882 0.66945 0.0
C931 C 0.1826 0.67782 0.71032 0.0
C932 C 0.11596 0.5714 0.64447 0.0
C933 C 0.13422 0.63213 0.66673 0.0
C934 C 0.09382 0.54875 0.61742 0.0
C935 C 0.06543 0.5615 0.58855 0.0
C936 C 0.11001 0.6071 0.64183 0.0
C937 C 0.05988 0.5973 0.58828 0.0
C938 C 0.13593 0.66622 0.64799 0.0
C939 C 0.17943 0.64393 0.72936 0.0
N940 N 0.08214 0.61887 0.61404 0.0
N941 N 0.1559 0.62204 0.70691 0.0
H942 H 0.14238 0.28634 0.32453 0.0
H943 H 0.1172 0.45907 0.49189 0.0
H944 H 0.21534 0.37006 0.31285 0.0
H945 H 0.03095 0.40389 0.42352 0.0
H946 H 0.15676 0.42076 0.44194 0.0
H947 H 0.10313 0.32429 0.3745 0.0
C948 C 0.14966 0.31302 0.33159 0.0
C949 C 0.18146 0.32563 0.31369 0.0
C950 C 0.12916 0.41698 0.43841 0.0
C951 C 0.13798 0.36829 0.37291 0.0
C952 C 0.10677 0.4384 0.46728 0.0
C953 C 0.07107 0.4343 0.46155 0.0
C954 C 0.11546 0.39099 0.40505 0.0
C955 C 0.05846 0.40772 0.42863 0.0
C956 C 0.12755 0.33446 0.36044 0.0
C957 C 0.1906 0.35985 0.32535 0.0
N958 N 0.08066 0.38689 0.40175 0.0
N959 N 0.16902 0.38007 0.35484 0.0
H960 H 0.99431 0.05088 0.88354 0.0
H961 H 0.02239 0.94413 0.15551 0.0
H962 H 0.96733 0.94317 0.89898 0.0
H963 H 0.03007 0.05522 0.14516 0.0
H964 H 0.00418 0.94236 0.06127 0.0
H965 H 0.01085 0.05191 0.97829 0.0
C966 C 0.99206 0.02737 0.90675 0.0
C967 C 0.97935 0.99691 0.8831 0.0
C968 C 0.0098 0.96711 0.07974 0.0
C969 C 0.99809 0.99794 0.99214 0.0
C970 C 0.02001 0.96818 0.13373 0.0
C971 C 0.02813 0.99985 0.15858 0.0
C972 C 0.00778 0.99792 0.05012 0.0
C973 C 0.02489 0.03009 0.12774 0.0
C974 C 0.00128 0.02803 0.96103 0.0
C975 C 0.97661 0.96735 0.91557 0.0
N976 N 0.01517 0.02833 0.07532 0.0
N977 N 0.98598 0.96857 0.96828 0.0
H978 H 0.31104 0.72626 0.40899 0.0
H979 H 0.21668 0.75877 0.12712 0.0
H980 H 0.25905 0.82124 0.36939 0.0
H981 H 0.29562 0.68133 0.14872 0.0
H982 H 0.22571 0.7777 0.21968 0.0
H983 H 0.29836 0.70438 0.3182 0.0
C984 C 0.29658 0.74229 0.38142 0.0
C985 C 0.28627 0.77568 0.39657 0.0
C986 C 0.24101 0.75653 0.2041 0.0
C987 C 0.27173 0.75094 0.29289 0.0
C988 C 0.23609 0.74583 0.15095 0.0
C989 C 0.25548 0.71839 0.12938 0.0
C990 C 0.26527 0.73956 0.23656 0.0
C991 C 0.27961 0.70221 0.16335 0.0
C992 C 0.28959 0.72994 0.32955 0.0
C993 C 0.2678 0.79549 0.35914 0.0
N994 N 0.28375 0.71298 0.21508 0.0
N995 N 0.26114 0.78286 0.30917 0.0
H996 H 0.49451 0.04965 0.65882 0.0
H997 H 0.50433 0.94238 0.38303 0.0
H998 H 0.45891 0.94445 0.6418 0.0
H999 H 0.53946 0.04774 0.40011 0.0
H1000 H 0.48704 0.94277 0.47743 0.0
H1001 H 0.51191 0.04913 0.56451 0.0
C1002 C 0.49062 0.02632 0.63544 0.0
C1003 C 0.47514 0.99707 0.65844 0.0
C1004 C 0.4985 0.96583 0.46052 0.0
C1005 C 0.4946 0.99645 0.54991 0.0
C1006 C 0.50815 0.96571 0.40645 0.0
C1007 C 0.52348 0.99504 0.38344 0.0
C1008 C 0.50413 0.99552 0.49203 0.0
C1009 C 0.52823 0.02434 0.41619 0.0
C1010 C 0.50033 0.02613 0.5814 0.0
C1011 C 0.47028 0.96777 0.62572 0.0
N1012 N 0.51864 0.02381 0.46869 0.0
N1013 N 0.47994 0.96823 0.57323 0.0
H1014 H 0.30568 0.2831 0.88836 0.0
H1015 H 0.18949 0.21639 0.64289 0.0
H1016 H 0.19469 0.27505 0.89733 0.0
H1017 H 0.2964 0.24584 0.6271 0.0
H1018 H 0.19133 0.23363 0.7376 0.0
H1019 H 0.30315 0.26537 0.79445 0.0
C1020 C 0.28069 0.27781 0.87065 0.0
C1021 C 0.2503 0.28102 0.90111 0.0
C1022 C 0.21436 0.23638 0.71339 0.0
C1023 C 0.24736 0.25995 0.79301 0.0
C1024 C 0.21339 0.22638 0.65935 0.0
C1025 C 0.24287 0.22961 0.62687 0.0
C1026 C 0.24513 0.24942 0.73547 0.0
C1027 C 0.27297 0.24318 0.65036 0.0
C1028 C 0.27932 0.2675 0.8169 0.0
C1029 C 0.21885 0.27275 0.87586 0.0
N1030 N 0.27336 0.2524 0.70315 0.0
N1031 N 0.2182 0.26267 0.82337 0.0
H1032 H 0.79834 0.25167 0.90053 0.0
H1033 H 0.69071 0.23715 0.62618 0.0
H1034 H 0.69603 0.29382 0.88218 0.0
H1035 H 0.79943 0.21445 0.63922 0.0
H1036 H 0.69088 0.25604 0.72025 0.0
H1037 H 0.79753 0.23437 0.80602 0.0
C1038 C 0.77558 0.25706 0.87675 0.0
C1039 C 0.74724 0.27428 0.89949 0.0
C1040 C 0.7147 0.24698 0.70239 0.0
C1041 C 0.74621 0.25475 0.79069 0.0
C1042 C 0.71468 0.23639 0.6485 0.0
C1043 C 0.74503 0.22382 0.6245 0.0
C1044 C 0.74523 0.2449 0.73275 0.0
C1045 C 0.77519 0.22315 0.65601 0.0
C1046 C 0.77523 0.24742 0.82259 0.0
C1047 C 0.71863 0.28096 0.8663 0.0
N1048 N 0.77446 0.23331 0.70832 0.0
N1049 N 0.71881 0.27113 0.81371 0.0
H1050 H 0.70582 0.76583 0.39926 0.0
H1051 H 0.81089 0.74376 0.12395 0.0
H1052 H 0.81449 0.78836 0.38367 0.0
H1053 H 0.70402 0.71483 0.14314 0.0
H1054 H 0.8122 0.76248 0.21787 0.0
H1055 H 0.70443 0.74833 0.30501 0.0
C1056 C 0.72948 0.76689 0.37621 0.0
C1057 C 0.76034 0.77858 0.39976 0.0
C1058 C 0.78845 0.75205 0.20153 0.0
C1059 C 0.75878 0.75898 0.2911 0.0
C1060 C 0.78761 0.74157 0.14775 0.0
C1061 C 0.75732 0.72758 0.12549 0.0
C1062 C 0.75875 0.74866 0.23344 0.0
C1063 C 0.7281 0.72498 0.15865 0.0
C1064 C 0.7286 0.75709 0.32218 0.0
C1065 C 0.78999 0.77997 0.36728 0.0
N1066 N 0.72955 0.73539 0.21082 0.0
N1067 N 0.78846 0.7703 0.31474 0.0
H1068 H 0.53137 0.55701 0.63943 0.0
H1069 H 0.46465 0.43923 0.39534 0.0
H1070 H 0.52307 0.44594 0.64932 0.0
H1071 H 0.49293 0.54654 0.37889 0.0
H1072 H 0.48186 0.44163 0.48995 0.0
H1073 H 0.51332 0.55406 0.54575 0.0
C1074 C 0.52596 0.53192 0.62195 0.0
C1075 C 0.52916 0.50163 0.65257 0.0
C1076 C 0.48434 0.46463 0.46562 0.0
C1077 C 0.50777 0.49818 0.54482 0.0
C1078 C 0.47436 0.46335 0.41166 0.0
C1079 C 0.47731 0.49276 0.37902 0.0
C1080 C 0.4971 0.49565 0.48744 0.0
C1081 C 0.49051 0.52315 0.40229 0.0
C1082 C 0.51546 0.5303 0.56835 0.0
C1083 C 0.52077 0.47002 0.62768 0.0
N1084 N 0.49976 0.52383 0.455 0.0
N1085 N 0.51054 0.46912 0.57534 0.0
H1086 H 0.0691 0.47302 0.92558 0.0
H1087 H 0.94304 0.58371 0.11275 0.0
H1088 H 0.98721 0.53701 0.86408 0.0
H1089 H 0.99907 0.49557 0.17278 0.0
H1090 H 0.96469 0.5714 0.02296 0.0
H1091 H 0.04902 0.4849 0.01727 0.0
C1092 C 0.04692 0.48962 0.93135 0.0
C1093 C 0.02984 0.50408 0.88692 0.0
C1094 C 0.97228 0.55472 0.05571 0.0
C1095 C 0.00691 0.51801 0.99197 0.0
C1096 C 0.95983 0.56164 0.10723 0.0
C1097 C 0.96864 0.54033 0.15082 0.0
C1098 C 0.99427 0.52648 0.04712 0.0
C1099 C 0.99155 0.51284 0.14079 0.0
C1100 C 0.03541 0.49626 0.9837 0.0
C1101 C 0.00102 0.52509 0.89694 0.0
N1102 N 0.00348 0.50667 0.09006 0.0
N1103 N 0.99067 0.53161 0.94826 0.0
loop_
_geom_bond_atom_site_label_1
_geom_bond_atom_site_label_2
_geom_bond_distance
_geom_bond_site_symmetry_2
_ccdc_geom_bond_type
C0 C2 1.422 . S
C0 C4 1.415 . S
C0 N6 1.369 1_655 S
C1 C2 1.421 . S
C1 C3 1.417 . S
C1 C13 1.422 . S
C2 C0 1.422 . S
C2 C1 1.421 . S
C2 N12 1.359 . S
C3 C1 1.417 . S
C3 C5 1.329 . S
C3 H22 0.930 . S
C4 C0 1.415 . S
C4 C5 1.437 . S
C4 C8 1.413 1_655 S
C5 C3 1.329 . S
C5 C4 1.437 . S
C5 H27 0.929 . S
N6 C0 1.369 1_455 S
N6 C7 1.338 . S
N6 Gd11 2.622 . S
C7 N6 1.338 . S
C7 C9 1.378 . S
C7 H19 0.929 . S
C8 C4 1.413 1_455 S
C8 C9 1.348 . S
C8 H24 0.931 . S
C9 C7 1.378 . S
C9 C8 1.348 . S
C9 H25 0.930 . S
Gd10 N30 2.623 . S
Gd10 N37 2.546 1_655 S
Gd10 O44 2.371 1_545 S
Gd10 O45 2.463 1_655 S
Gd10 O46 2.443 . S
Gd10 O48 2.410 . S
Gd10 O49 2.371 1_655 S
Gd10 O53 2.288 1_645 S
Gd10 C63 2.811 . S
Gd11 N6 2.622 . S
Gd11 N12 2.570 1_455 S
Gd11 O43 2.386 1_455 S
Gd11 O47 2.307 1_465 S
Gd11 O50 2.353 1_565 S
Gd11 O51 2.468 1_455 S
Gd11 O52 2.427 . S
Gd11 O54 2.388 . S
Gd11 C75 2.805 . S
N12 C2 1.359 . S
N12 Gd11 2.570 1_655 S
N12 C14 1.343 . S
C13 C1 1.422 . S
C13 C15 1.321 . S
C13 H21 0.931 . S
C14 N12 1.343 . S
C14 C15 1.390 . S
C14 H16 0.931 . S
C15 C13 1.321 . S
C15 C14 1.390 . S
C15 H17 0.930 . S
H16 C14 0.931 . S
H17 C15 0.930 . S
H18 C41 0.931 . S
H19 C7 0.929 . S
H20 C42 0.930 . S
H21 C13 0.931 . S
H22 C3 0.930 . S
H23 C32 0.929 . S
H24 C8 0.931 . S
H25 C9 0.930 . S
H26 C64 0.930 . S
H27 C5 0.929 . S
H28 C33 0.931 . S
H29 C34 0.930 . S
N30 Gd10 2.623 . S
N30 C31 1.369 1_655 S
N30 C32 1.338 . S
C31 N30 1.369 1_455 S
C31 C35 1.415 . S
C31 C38 1.422 . S
C32 H23 0.929 . S
C32 N30 1.338 . S
C32 C34 1.378 . S
C33 H28 0.931 . S
C33 C34 1.348 . S
C33 C35 1.413 1_655 S
C34 H29 0.930 . S
C34 C32 1.378 . S
C34 C33 1.348 . S
C35 C31 1.415 . S
C35 C33 1.413 1_455 S
C35 C65 1.437 . S
H36 C65 0.929 . S
N37 Gd10 2.546 1_455 S
N37 C38 1.359 . S
N37 C41 1.343 . S
C38 C31 1.422 . S
C38 N37 1.359 . S
C38 C40 1.421 . S
C39 C40 1.422 . S
C39 C42 1.321 . S
C39 H66 0.931 . S
C40 C38 1.421 . S
C40 C39 1.422 . S
C40 C64 1.417 . S
C41 H18 0.931 . S
C41 N37 1.343 . S
C41 C42 1.390 . S
C42 H20 0.930 . S
C42 C39 1.321 . S
C42 C41 1.390 . S
O43 Gd11 2.386 1_655 S
O43 C55 1.265 . S
O44 Gd10 2.371 1_565 S
O44 C55 1.242 . S
O45 Gd10 2.463 1_455 S
O45 C63 1.263 1_455 S
O46 Gd10 2.443 . S
O46 C63 1.252 . S
O47 Gd11 2.307 1_645 S
O47 C56 1.261 . S
O48 Gd10 2.410 . S
O48 C56 1.252 . S
O49 Gd10 2.371 1_455 S
O49 C67 1.265 . S
O50 Gd11 2.353 1_545 S
O50 C67 1.242 . S
O51 Gd11 2.468 1_655 S
O51 C75 1.263 1_655 S
O52 Gd11 2.427 . S
O52 C75 1.252 . S
O53 Gd10 2.288 1_465 S
O53 C68 1.261 . S
O54 Gd11 2.388 . S
O54 C68 1.252 . S
C55 O43 1.265 . S
C55 O44 1.242 . S
C56 O47 1.261 . S
C56 O48 1.252 . S
C57 C60 1.394 . S
C57 C62 1.370 . S
C57 C63 1.500 . S
C58 C61 1.383 . S
C58 C62 1.395 . S
C59 C60 1.396 . S
C59 C61 1.365 . S
C59 H76 0.929 . S
C60 C57 1.394 . S
C60 C59 1.396 . S
C60 H77 0.930 . S
C61 C58 1.383 . S
C61 C59 1.365 . S
C61 H78 0.931 . S
C62 C57 1.370 . S
C62 C58 1.395 . S
C62 H79 0.930 1_645 S
C63 Gd10 2.811 . S
C63 O45 1.263 1_655 S
C63 O46 1.252 . S
C63 C57 1.500 . S
C64 H26 0.930 . S
C64 C40 1.417 . S
C64 C65 1.329 . S
C65 C35 1.437 . S
C65 H36 0.929 . S
C65 C64 1.329 . S
H66 C39 0.931 . S
C67 O49 1.265 . S
C67 O50 1.242 . S
C68 O53 1.261 . S
C68 O54 1.252 . S
C69 C72 1.394 . S
C69 C74 1.370 . S
C69 C75 1.500 . S
C70 C73 1.383 . S
C70 C74 1.395 . S
C71 C72 1.396 . S
C71 C73 1.365 . S
C71 H80 0.929 . S
C72 C69 1.394 . S
C72 C71 1.396 . S
C72 H81 0.930 . S
C73 C70 1.383 . S
C73 C71 1.365 . S
C73 H82 0.931 . S
C74 C69 1.370 . S
C74 C70 1.395 . S
C74 H83 0.930 1_465 S
C75 Gd11 2.805 . S
C75 O51 1.263 1_455 S
C75 O52 1.252 . S
C75 C69 1.500 . S
H76 C59 0.929 . S
H77 C60 0.930 . S
H78 C61 0.931 . S
H79 C62 0.930 1_465 S
H80 C71 0.929 . S
H81 C72 0.930 . S
H82 C73 0.931 . S
H83 C74 0.930 1_645 S
C84 C86 1.422 . S
C84 C88 1.415 . S
C84 N90 1.369 . S
C85 C86 1.421 . S
C85 C87 1.417 . S
C85 C97 1.422 . S
C86 C84 1.422 . S
C86 C85 1.421 . S
C86 N96 1.359 . S
C87 C85 1.417 . S
C87 C89 1.329 . S
C87 H106 0.930 . S
C88 C84 1.415 . S
C88 C89 1.437 . S
C88 C92 1.413 . S
C89 C87 1.329 . S
C89 C88 1.437 . S
C89 H111 0.929 . S
N90 C84 1.369 . S
N90 C91 1.338 . S
N90 Gd95 2.622 . S
C91 N90 1.338 . S
C91 C93 1.378 . S
C91 H103 0.929 . S
C92 C88 1.413 . S
C92 C93 1.348 . S
C92 H108 0.931 . S
C93 C91 1.378 . S
C93 C92 1.348 . S
C93 H109 0.930 . S
Gd94 N114 2.622 . S
Gd94 N121 2.570 . S
Gd94 O128 2.353 . S
Gd94 O129 2.468 . S
Gd94 O130 2.427 . S
Gd94 O132 2.388 . S
Gd94 O133 2.386 . S
Gd94 O137 2.307 . S
Gd94 C147 2.805 . S
Gd95 N90 2.622 . S
Gd95 N96 2.570 . S
Gd95 O127 2.386 . S
Gd95 O131 2.307 . S
Gd95 O134 2.353 . S
Gd95 O135 2.468 . S
Gd95 O136 2.427 . S
Gd95 O138 2.388 . S
Gd95 C159 2.805 . S
N96 C86 1.359 . S
N96 Gd95 2.570 . S
N96 C98 1.343 . S
C97 C85 1.422 . S
C97 C99 1.321 . S
C97 H105 0.931 . S
C98 N96 1.343 . S
C98 C99 1.390 . S
C98 H100 0.931 . S
C99 C97 1.321 . S
C99 C98 1.390 . S
C99 H101 0.930 . S
H100 C98 0.931 . S
H101 C99 0.930 . S
H102 C125 0.931 . S
H103 C91 0.929 . S
H104 C126 0.930 . S
H105 C97 0.931 . S
H106 C87 0.930 . S
H107 C116 0.929 . S
H108 C92 0.931 . S
H109 C93 0.930 . S
H110 C148 0.930 . S
H111 C89 0.929 . S
H112 C117 0.931 . S
H113 C118 0.930 . S
N114 Gd94 2.622 . S
N114 C115 1.369 . S
N114 C116 1.338 . S
C115 N114 1.369 . S
C115 C119 1.415 . S
C115 C122 1.422 . S
C116 H107 0.929 . S
C116 N114 1.338 . S
C116 C118 1.378 . S
C117 H112 0.931 . S
C117 C118 1.348 . S
C117 C119 1.413 . S
C118 H113 0.930 . S
C118 C116 1.378 . S
C118 C117 1.348 . S
C119 C115 1.415 . S
C119 C117 1.413 . S
C119 C149 1.437 . S
H120 C149 0.929 . S
N121 Gd94 2.570 . S
N121 C122 1.359 . S
N121 C125 1.343 . S
C122 C115 1.422 . S
C122 N121 1.359 . S
C122 C124 1.421 . S
C123 C124 1.422 . S
C123 C126 1.321 . S
C123 H150 0.931 . S
C124 C122 1.421 . S
C124 C123 1.422 . S
C124 C148 1.417 . S
C125 H102 0.931 . S
C125 N121 1.343 . S
C125 C126 1.390 . S
C126 H104 0.930 . S
C126 C123 1.321 . S
C126 C125 1.390 . S
O127 Gd95 2.386 . S
O127 C139 1.265 . S
O128 Gd94 2.353 . S
O128 C139 1.242 . S
O129 Gd94 2.468 . S
O129 C147 1.263 . S
O130 Gd94 2.427 . S
O130 C147 1.252 . S
O131 Gd95 2.307 . S
O131 C140 1.261 . S
O132 Gd94 2.388 . S
O132 C140 1.252 . S
O133 Gd94 2.386 . S
O133 C151 1.265 . S
O134 Gd95 2.353 . S
O134 C151 1.242 . S
O135 Gd95 2.468 . S
O135 C159 1.263 . S
O136 Gd95 2.427 . S
O136 C159 1.252 . S
O137 Gd94 2.307 . S
O137 C152 1.261 . S
O138 Gd95 2.388 . S
O138 C152 1.252 . S
C139 O127 1.265 . S
C139 O128 1.242 . S
C140 O131 1.261 . S
C140 O132 1.252 . S
C141 C144 1.394 1_556 S
C141 C146 1.370 1_556 S
C141 C147 1.500 . S
C142 C145 1.383 . S
C142 C146 1.395 . S
C143 C144 1.396 . S
C143 C145 1.365 . S
C143 H160 0.929 . S
C144 C141 1.394 1_554 S
C144 C143 1.396 . S
C144 H161 0.930 1_554 S
C145 C142 1.383 . S
C145 C143 1.365 . S
C145 H162 0.931 . S
C146 C141 1.370 1_554 S
C146 C142 1.395 . S
C146 H163 0.934 . S
C147 Gd94 2.805 . S
C147 O129 1.263 . S
C147 O130 1.252 . S
C147 C141 1.500 . S
C148 H110 0.930 . S
C148 C124 1.417 . S
C148 C149 1.329 . S
C149 C119 1.437 . S
C149 H120 0.929 . S
C149 C148 1.329 . S
H150 C123 0.931 . S
C151 O133 1.265 . S
C151 O134 1.242 . S
C152 O137 1.261 . S
C152 O138 1.252 . S
C153 C156 1.394 . S
C153 C158 1.370 . S
C153 C159 1.500 . S
C154 C157 1.383 . S
C154 C158 1.395 . S
C155 C156 1.396 . S
C155 C157 1.365 . S
C155 H164 0.929 . S
C156 C153 1.394 . S
C156 C155 1.396 . S
C156 H165 0.930 . S
C157 C154 1.383 . S
C157 C155 1.365 . S
C157 H166 0.931 . S
C158 C153 1.370 . S
C158 C154 1.395 . S
C158 H167 0.930 . S
C159 Gd95 2.805 . S
C159 O135 1.263 . S
C159 O136 1.252 . S
C159 C153 1.500 . S
H160 C143 0.929 . S
H161 C144 0.930 1_556 S
H162 C145 0.931 . S
H163 C146 0.934 . S
H164 C155 0.929 . S
H165 C156 0.930 . S
H166 C157 0.931 . S
H167 C158 0.930 . S
C168 C170 1.422 . S
C168 C172 1.415 . S
C168 N174 1.369 . S
C169 C170 1.421 . S
C169 C171 1.417 . S
C169 C181 1.422 . S
C170 C168 1.422 . S
C170 C169 1.421 . S
C170 N180 1.359 . S
C171 C169 1.417 . S
C171 C173 1.329 . S
C171 H190 0.930 . S
C172 C168 1.415 . S
C172 C173 1.437 . S
C172 C176 1.413 . S
C173 C171 1.329 . S
C173 C172 1.437 . S
C173 H195 0.929 . S
N174 C168 1.369 . S
N174 C175 1.338 . S
N174 Gd179 2.622 . S
C175 N174 1.338 . S
C175 C177 1.378 . S
C175 H187 0.929 . S
C176 C172 1.413 . S
C176 C177 1.348 . S
C176 H192 0.931 . S
C177 C175 1.378 . S
C177 C176 1.348 . S
C177 H193 0.930 . S
Gd178 N198 2.622 . S
Gd178 N205 2.570 . S
Gd178 O212 2.353 1_565 S
Gd178 O213 2.468 . S
Gd178 O214 2.427 . S
Gd178 O216 2.388 . S
Gd178 O217 2.386 1_554 S
Gd178 O221 2.307 1_565 S
Gd178 C231 2.805 . S
Gd179 N174 2.622 . S
Gd179 N180 2.570 . S
Gd179 O211 2.386 1_556 S
Gd179 O215 2.307 1_545 S
Gd179 O218 2.353 1_545 S
Gd179 O219 2.468 . S
Gd179 O220 2.427 . S
Gd179 O222 2.388 . S
Gd179 C243 2.805 . S
N180 C170 1.359 . S
N180 Gd179 2.570 . S
N180 C182 1.343 . S
C181 C169 1.422 . S
C181 C183 1.321 . S
C181 H189 0.931 . S
C182 N180 1.343 . S
C182 C183 1.390 . S
C182 H184 0.931 . S
C183 C181 1.321 . S
C183 C182 1.390 . S
C183 H185 0.930 . S
H184 C182 0.931 . S
H185 C183 0.930 . S
H186 C209 0.931 . S
H187 C175 0.929 . S
H188 C210 0.930 . S
H189 C181 0.931 . S
H190 C171 0.930 . S
H191 C200 0.929 . S
H192 C176 0.931 . S
H193 C177 0.930 . S
H194 C232 0.930 . S
H195 C173 0.929 . S
H196 C201 0.931 . S
H197 C202 0.930 . S
N198 Gd178 2.622 . S
N198 C199 1.369 . S
N198 C200 1.338 . S
C199 N198 1.369 . S
C199 C203 1.415 . S
C199 C206 1.422 . S
C200 H191 0.929 . S
C200 N198 1.338 . S
C200 C202 1.378 . S
C201 H196 0.931 . S
C201 C202 1.348 . S
C201 C203 1.413 . S
C202 H197 0.930 . S
C202 C200 1.378 . S
C202 C201 1.348 . S
C203 C199 1.415 . S
C203 C201 1.413 . S
C203 C233 1.437 . S
H204 C233 0.929 . S
N205 Gd178 2.570 . S
N205 C206 1.359 . S
N205 C209 1.343 . S
C206 C199 1.422 . S
C206 N205 1.359 . S
C206 C208 1.421 . S
C207 C208 1.422 . S
C207 C210 1.321 . S
C207 H234 0.931 . S
C208 C206 1.421 . S
C208 C207 1.422 . S
C208 C232 1.417 . S
C209 H186 0.931 . S
C209 N205 1.343 . S
C209 C210 1.390 . S
C210 H188 0.930 . S
C210 C207 1.321 . S
C210 C209 1.390 . S
O211 Gd179 2.386 1_554 S
O211 C223 1.265 . S
O212 Gd178 2.353 1_545 S
O212 C223 1.242 . S
O213 Gd178 2.468 . S
O213 C231 1.263 . S
O214 Gd178 2.427 . S
O214 C231 1.252 . S
O215 Gd179 2.307 1_565 S
O215 C224 1.261 . S
O216 Gd178 2.388 . S
O216 C224 1.252 1_554 S
O217 Gd178 2.386 1_556 S
O217 C235 1.265 . S
O218 Gd179 2.353 1_565 S
O218 C235 1.242 . S
O219 Gd179 2.468 . S
O219 C243 1.263 . S
O220 Gd179 2.427 . S
O220 C243 1.252 . S
O221 Gd178 2.307 1_545 S
O221 C236 1.261 . S
O222 Gd179 2.388 . S
O222 C236 1.252 1_556 S
C223 O211 1.265 . S
C223 O212 1.242 . S
C224 O215 1.261 . S
C224 O216 1.252 1_556 S
C225 C228 1.394 . S
C225 C230 1.370 . S
C225 C231 1.500 . S
C226 C229 1.383 . S
C226 C230 1.395 . S
C227 C228 1.396 . S
C227 C229 1.365 . S
C227 H244 0.929 . S
C228 C225 1.394 . S
C228 C227 1.396 . S
C228 H245 0.930 . S
C229 C226 1.383 . S
C229 C227 1.365 . S
C229 H246 0.931 . S
C230 C225 1.370 . S
C230 C226 1.395 . S
C230 H247 0.930 1_565 S
C231 Gd178 2.805 . S
C231 O213 1.263 . S
C231 O214 1.252 . S
C231 C225 1.500 . S
C232 H194 0.930 . S
C232 C208 1.417 . S
C232 C233 1.329 . S
C233 C203 1.437 . S
C233 H204 0.929 . S
C233 C232 1.329 . S
H234 C207 0.931 . S
C235 O217 1.265 . S
C235 O218 1.242 . S
C236 O221 1.261 . S
C236 O222 1.252 1_554 S
C237 C240 1.394 . S
C237 C242 1.370 . S
C237 C243 1.500 . S
C238 C241 1.383 . S
C238 C242 1.395 . S
C239 C240 1.396 . S
C239 C241 1.365 . S
C239 H248 0.929 . S
C240 C237 1.394 . S
C240 C239 1.396 . S
C240 H249 0.930 . S
C241 C238 1.383 . S
C241 C239 1.365 . S
C241 H250 0.931 . S
C242 C237 1.370 . S
C242 C238 1.395 . S
C242 H251 0.930 1_545 S
C243 Gd179 2.805 . S
C243 O219 1.263 . S
C243 O220 1.252 . S
C243 C237 1.500 . S
H244 C227 0.929 . S
H245 C228 0.930 . S
H246 C229 0.931 . S
H247 C230 0.930 1_545 S
H248 C239 0.929 . S
H249 C240 0.930 . S
H250 C241 0.931 . S
H251 C242 0.930 1_565 S
C252 C254 1.422 . S
C252 C256 1.415 . S
C252 N258 1.369 . S
C253 C254 1.421 . S
C253 C255 1.417 . S
C253 C265 1.422 . S
C254 C252 1.422 . S
C254 C253 1.421 . S
C254 N264 1.359 . S
C255 C253 1.417 . S
C255 C257 1.329 . S
C255 H274 0.930 . S
C256 C252 1.415 . S
C256 C257 1.437 . S
C256 C260 1.413 . S
C257 C255 1.329 . S
C257 C256 1.437 . S
C257 H279 0.929 . S
N258 C252 1.369 . S
N258 C259 1.338 . S
N258 Gd263 2.622 . S
C259 N258 1.338 . S
C259 C261 1.378 . S
C259 H271 0.929 . S
C260 C256 1.413 . S
C260 C261 1.348 . S
C260 H276 0.931 . S
C261 C259 1.378 . S
C261 C260 1.348 . S
C261 H277 0.930 . S
Gd262 N282 2.622 . S
Gd262 N289 2.570 . S
Gd262 O296 2.353 . S
Gd262 O297 2.468 . S
Gd262 O298 2.427 . S
Gd262 O300 2.388 . S
Gd262 O301 2.386 . S
Gd262 O305 2.307 . S
Gd262 C315 2.805 . S
Gd263 N258 2.622 . S
Gd263 N264 2.570 . S
Gd263 O295 2.386 . S
Gd263 O299 2.307 . S
Gd263 O302 2.353 . S
Gd263 O303 2.468 . S
Gd263 O304 2.427 . S
Gd263 O306 2.388 . S
Gd263 C327 2.805 . S
N264 C254 1.359 . S
N264 Gd263 2.570 . S
N264 C266 1.343 . S
C265 C253 1.422 . S
C265 C267 1.321 . S
C265 H273 0.931 . S
C266 N264 1.343 . S
C266 C267 1.390 . S
C266 H268 0.931 . S
C267 C265 1.321 . S
C267 C266 1.390 . S
C267 H269 0.930 . S
H268 C266 0.931 . S
H269 C267 0.930 . S
H270 C293 0.931 . S
H271 C259 0.929 . S
H272 C294 0.930 . S
H273 C265 0.931 . S
H274 C255 0.930 . S
H275 C284 0.929 . S
H276 C260 0.931 . S
H277 C261 0.930 . S
H278 C316 0.930 . S
H279 C257 0.929 . S
H280 C285 0.931 . S
H281 C286 0.930 . S
N282 Gd262 2.622 . S
N282 C283 1.369 . S
N282 C284 1.338 . S
C283 N282 1.369 . S
C283 C287 1.415 . S
C283 C290 1.422 . S
C284 H275 0.929 . S
C284 N282 1.338 . S
C284 C286 1.378 . S
C285 H280 0.931 . S
C285 C286 1.348 . S
C285 C287 1.413 . S
C286 H281 0.930 . S
C286 C284 1.378 . S
C286 C285 1.348 . S
C287 C283 1.415 . S
C287 C285 1.413 . S
C287 C317 1.437 . S
H288 C317 0.929 . S
N289 Gd262 2.570 . S
N289 C290 1.359 . S
N289 C293 1.343 . S
C290 C283 1.422 . S
C290 N289 1.359 . S
C290 C292 1.421 . S
C291 C292 1.422 . S
C291 C294 1.321 . S
C291 H318 0.931 . S
C292 C290 1.421 . S
C292 C291 1.422 . S
C292 C316 1.417 . S
C293 H270 0.931 . S
C293 N289 1.343 . S
C293 C294 1.390 . S
C294 H272 0.930 . S
C294 C291 1.321 . S
C294 C293 1.390 . S
O295 Gd263 2.386 . S
O295 C307 1.265 . S
O296 Gd262 2.353 . S
O296 C307 1.242 . S
O297 Gd262 2.468 . S
O297 C315 1.263 . S
O298 Gd262 2.427 . S
O298 C315 1.252 . S
O299 Gd263 2.307 . S
O299 C308 1.261 . S
O300 Gd262 2.388 . S
O300 C308 1.252 . S
O301 Gd262 2.386 . S
O301 C319 1.265 . S
O302 Gd263 2.353 . S
O302 C319 1.242 . S
O303 Gd263 2.468 . S
O303 C327 1.263 . S
O304 Gd263 2.427 . S
O304 C327 1.252 . S
O305 Gd262 2.307 . S
O305 C320 1.261 . S
O306 Gd263 2.388 . S
O306 C320 1.252 . S
C307 O295 1.265 . S
C307 O296 1.242 . S
C308 O299 1.261 . S
C308 O300 1.252 . S
C309 C312 1.394 1_554 S
C309 C314 1.370 1_554 S
C309 C315 1.500 . S
C310 C313 1.383 . S
C310 C314 1.395 . S
C311 C312 1.396 . S
C311 C313 1.365 . S
C311 H328 0.929 . S
C312 C309 1.394 1_556 S
C312 C311 1.396 . S
C312 H329 0.930 1_556 S
C313 C310 1.383 . S
C313 C311 1.365 . S
C313 H330 0.931 . S
C314 C309 1.370 1_556 S
C314 C310 1.395 . S
C314 H331 0.934 . S
C315 Gd262 2.805 . S
C315 O297 1.263 . S
C315 O298 1.252 . S
C315 C309 1.500 . S
C316 H278 0.930 . S
C316 C292 1.417 . S
C316 C317 1.329 . S
C317 C287 1.437 . S
C317 H288 0.929 . S
C317 C316 1.329 . S
H318 C291 0.931 . S
C319 O301 1.265 . S
C319 O302 1.242 . S
C320 O305 1.261 . S
C320 O306 1.252 . S
C321 C324 1.394 . S
C321 C326 1.370 . S
C321 C327 1.500 . S
C322 C325 1.383 . S
C322 C326 1.395 . S
C323 C324 1.396 . S
C323 C325 1.365 . S
C323 H332 0.929 . S
C324 C321 1.394 . S
C324 C323 1.396 . S
C324 H333 0.930 . S
C325 C322 1.383 . S
C325 C323 1.365 . S
C325 H334 0.931 . S
C326 C321 1.370 . S
C326 C322 1.395 . S
C326 H335 0.930 . S
C327 Gd263 2.805 . S
C327 O303 1.263 . S
C327 O304 1.252 . S
C327 C321 1.500 . S
H328 C311 0.929 . S
H329 C312 0.930 1_554 S
H330 C313 0.931 . S
H331 C314 0.934 . S
H332 C323 0.929 . S
H333 C324 0.930 . S
H334 C325 0.931 . S
H335 C326 0.930 . S
C336 C338 1.422 . S
C336 C340 1.415 . S
C336 N342 1.369 . S
C337 C338 1.421 . S
C337 C339 1.417 . S
C337 C349 1.422 . S
C338 C336 1.422 . S
C338 C337 1.421 . S
C338 N348 1.359 . S
C339 C337 1.417 . S
C339 C341 1.329 . S
C339 H358 0.930 . S
C340 C336 1.415 . S
C340 C341 1.437 . S
C340 C344 1.413 . S
C341 C339 1.329 . S
C341 C340 1.437 . S
C341 H363 0.929 . S
N342 C336 1.369 . S
N342 C343 1.338 . S
N342 Gd347 2.622 . S
C343 N342 1.338 . S
C343 C345 1.378 . S
C343 H355 0.929 . S
C344 C340 1.413 . S
C344 C345 1.348 . S
C344 H360 0.931 . S
C345 C343 1.378 . S
C345 C344 1.348 . S
C345 H361 0.930 . S
Gd346 N366 2.622 . S
Gd346 N373 2.570 . S
Gd346 O380 2.353 . S
Gd346 O381 2.468 . S
Gd346 O382 2.427 . S
Gd346 O384 2.388 . S
Gd346 O385 2.386 . S
Gd346 O389 2.307 . S
Gd346 C399 2.805 . S
Gd347 N342 2.622 . S
Gd347 N348 2.570 . S
Gd347 O379 2.386 . S
Gd347 O383 2.307 . S
Gd347 O386 2.353 . S
Gd347 O387 2.468 . S
Gd347 O388 2.427 . S
Gd347 O390 2.388 . S
Gd347 C411 2.805 . S
N348 C338 1.359 . S
N348 Gd347 2.570 . S
N348 C350 1.343 . S
C349 C337 1.422 . S
C349 C351 1.321 . S
C349 H357 0.931 . S
C350 N348 1.343 . S
C350 C351 1.390 . S
C350 H352 0.931 . S
C351 C349 1.321 . S
C351 C350 1.390 . S
C351 H353 0.930 . S
H352 C350 0.931 . S
H353 C351 0.930 . S
H354 C377 0.931 . S
H355 C343 0.929 . S
H356 C378 0.930 . S
H357 C349 0.931 . S
H358 C339 0.930 . S
H359 C368 0.929 . S
H360 C344 0.931 . S
H361 C345 0.930 . S
H362 C400 0.930 . S
H363 C341 0.929 . S
H364 C369 0.931 . S
H365 C370 0.930 . S
N366 Gd346 2.622 . S
N366 C367 1.369 . S
N366 C368 1.338 . S
C367 N366 1.369 . S
C367 C371 1.415 . S
C367 C374 1.422 . S
C368 H359 0.929 . S
C368 N366 1.338 . S
C368 C370 1.378 . S
C369 H364 0.931 . S
C369 C370 1.348 . S
C369 C371 1.413 . S
C370 H365 0.930 . S
C370 C368 1.378 . S
C370 C369 1.348 . S
C371 C367 1.415 . S
C371 C369 1.413 . S
C371 C401 1.437 . S
H372 C401 0.929 . S
N373 Gd346 2.570 . S
N373 C374 1.359 . S
N373 C377 1.343 . S
C374 C367 1.422 . S
C374 N373 1.359 . S
C374 C376 1.421 . S
C375 C376 1.422 . S
C375 C378 1.321 . S
C375 H402 0.931 . S
C376 C374 1.421 . S
C376 C375 1.422 . S
C376 C400 1.417 . S
C377 H354 0.931 . S
C377 N373 1.343 . S
C377 C378 1.390 . S
C378 H356 0.930 . S
C378 C375 1.321 . S
C378 C377 1.390 . S
O379 Gd347 2.386 . S
O379 C391 1.265 . S
O380 Gd346 2.353 . S
O380 C391 1.242 . S
O381 Gd346 2.468 . S
O381 C399 1.263 . S
O382 Gd346 2.427 . S
O382 C399 1.252 . S
O383 Gd347 2.307 . S
O383 C392 1.261 . S
O384 Gd346 2.388 . S
O384 C392 1.252 . S
O385 Gd346 2.386 . S
O385 C403 1.265 . S
O386 Gd347 2.353 . S
O386 C403 1.242 . S
O387 Gd347 2.468 . S
O387 C411 1.263 . S
O388 Gd347 2.427 . S
O388 C411 1.252 . S
O389 Gd346 2.307 . S
O389 C404 1.261 . S
O390 Gd347 2.388 . S
O390 C404 1.252 . S
C391 O379 1.265 . S
C391 O380 1.242 . S
C392 O383 1.261 . S
C392 O384 1.252 . S
C393 C396 1.394 . S
C393 C398 1.370 . S
C393 C399 1.500 . S
C394 C397 1.383 . S
C394 C398 1.395 . S
C395 C396 1.396 . S
C395 C397 1.365 . S
C395 H412 0.929 . S
C396 C393 1.394 . S
C396 C395 1.396 . S
C396 H413 0.930 . S
C397 C394 1.383 . S
C397 C395 1.365 . S
C397 H414 0.931 . S
C398 C393 1.370 . S
C398 C394 1.395 . S
C398 H415 0.930 . S
C399 Gd346 2.805 . S
C399 O381 1.263 . S
C399 O382 1.252 . S
C399 C393 1.500 . S
C400 H362 0.930 . S
C400 C376 1.417 . S
C400 C401 1.329 . S
C401 C371 1.437 . S
C401 H372 0.929 . S
C401 C400 1.329 . S
H402 C375 0.931 . S
C403 O385 1.265 . S
C403 O386 1.242 . S
C404 O389 1.261 . S
C404 O390 1.252 . S
C405 C408 1.394 1_554 S
C405 C410 1.370 1_554 S
C405 C411 1.500 . S
C406 C409 1.383 . S
C406 C410 1.395 . S
C407 C408 1.396 . S
C407 C409 1.365 . S
C407 H416 0.929 . S
C408 C405 1.394 1_556 S
C408 C407 1.396 . S
C408 H417 0.930 1_556 S
C409 C406 1.383 . S
C409 C407 1.365 . S
C409 H418 0.931 . S
C410 C405 1.370 1_556 S
C410 C406 1.395 . S
C410 H419 0.934 . S
C411 Gd347 2.805 . S
C411 O387 1.263 . S
C411 O388 1.252 . S
C411 C405 1.500 . S
H412 C395 0.929 . S
H413 C396 0.930 . S
H414 C397 0.931 . S
H415 C398 0.930 . S
H416 C407 0.929 . S
H417 C408 0.930 1_554 S
H418 C409 0.931 . S
H419 C410 0.934 . S
C420 C422 1.422 . S
C420 C424 1.415 . S
C420 N426 1.369 . S
C421 C422 1.421 . S
C421 C423 1.417 . S
C421 C433 1.422 . S
C422 C420 1.422 . S
C422 C421 1.421 . S
C422 N432 1.359 . S
C423 C421 1.417 . S
C423 C425 1.329 . S
C423 H442 0.930 . S
C424 C420 1.415 . S
C424 C425 1.437 . S
C424 C428 1.413 . S
C425 C423 1.329 . S
C425 C424 1.437 . S
C425 H447 0.929 . S
N426 C420 1.369 . S
N426 C427 1.338 . S
N426 Gd431 2.622 . S
C427 N426 1.338 . S
C427 C429 1.378 . S
C427 H439 0.929 . S
C428 C424 1.413 . S
C428 C429 1.348 . S
C428 H444 0.931 . S
C429 C427 1.378 . S
C429 C428 1.348 . S
C429 H445 0.930 . S
Gd430 N450 2.622 . S
Gd430 N457 2.570 . S
Gd430 O464 2.353 . S
Gd430 O465 2.468 . S
Gd430 O466 2.427 . S
Gd430 O468 2.388 . S
Gd430 O469 2.386 . S
Gd430 O473 2.307 . S
Gd430 C483 2.805 . S
Gd431 N426 2.622 . S
Gd431 N432 2.570 . S
Gd431 O463 2.386 . S
Gd431 O467 2.307 . S
Gd431 O470 2.353 . S
Gd431 O471 2.468 . S
Gd431 O472 2.427 . S
Gd431 O474 2.388 . S
Gd431 C495 2.805 . S
N432 C422 1.359 . S
N432 Gd431 2.570 . S
N432 C434 1.343 . S
C433 C421 1.422 . S
C433 C435 1.321 . S
C433 H441 0.931 . S
C434 N432 1.343 . S
C434 C435 1.390 . S
C434 H436 0.931 . S
C435 C433 1.321 . S
C435 C434 1.390 . S
C435 H437 0.930 . S
H436 C434 0.931 . S
H437 C435 0.930 . S
H438 C461 0.931 . S
H439 C427 0.929 . S
H440 C462 0.930 . S
H441 C433 0.931 . S
H442 C423 0.930 . S
H443 C452 0.929 . S
H444 C428 0.931 . S
H445 C429 0.930 . S
H446 C484 0.930 . S
H447 C425 0.929 . S
H448 C453 0.931 . S
H449 C454 0.930 . S
N450 Gd430 2.622 . S
N450 C451 1.369 . S
N450 C452 1.338 . S
C451 N450 1.369 . S
C451 C455 1.415 . S
C451 C458 1.422 . S
C452 H443 0.929 . S
C452 N450 1.338 . S
C452 C454 1.378 . S
C453 H448 0.931 . S
C453 C454 1.348 . S
C453 C455 1.413 . S
C454 H449 0.930 . S
C454 C452 1.378 . S
C454 C453 1.348 . S
C455 C451 1.415 . S
C455 C453 1.413 . S
C455 C485 1.437 . S
H456 C485 0.929 . S
N457 Gd430 2.570 . S
N457 C458 1.359 . S
N457 C461 1.343 . S
C458 C451 1.422 . S
C458 N457 1.359 . S
C458 C460 1.421 . S
C459 C460 1.422 . S
C459 C462 1.321 . S
C459 H486 0.931 . S
C460 C458 1.421 . S
C460 C459 1.422 . S
C460 C484 1.417 . S
C461 H438 0.931 . S
C461 N457 1.343 . S
C461 C462 1.390 . S
C462 H440 0.930 . S
C462 C459 1.321 . S
C462 C461 1.390 . S
O463 Gd431 2.386 . S
O463 C475 1.265 . S
O464 Gd430 2.353 . S
O464 C475 1.242 . S
O465 Gd430 2.468 . S
O465 C483 1.263 . S
O466 Gd430 2.427 . S
O466 C483 1.252 . S
O467 Gd431 2.307 . S
O467 C476 1.261 . S
O468 Gd430 2.388 . S
O468 C476 1.252 . S
O469 Gd430 2.386 . S
O469 C487 1.265 . S
O470 Gd431 2.353 . S
O470 C487 1.242 . S
O471 Gd431 2.468 . S
O471 C495 1.263 . S
O472 Gd431 2.427 . S
O472 C495 1.252 . S
O473 Gd430 2.307 . S
O473 C488 1.261 . S
O474 Gd431 2.388 . S
O474 C488 1.252 . S
C475 O463 1.265 . S
C475 O464 1.242 . S
C476 O467 1.261 . S
C476 O468 1.252 . S
C477 C480 1.394 . S
C477 C482 1.370 . S
C477 C483 1.500 . S
C478 C481 1.383 . S
C478 C482 1.395 . S
C479 C480 1.396 . S
C479 C481 1.365 . S
C479 H496 0.929 . S
C480 C477 1.394 . S
C480 C479 1.396 . S
C480 H497 0.930 . S
C481 C478 1.383 . S
C481 C479 1.365 . S
C481 H498 0.931 . S
C482 C477 1.370 . S
C482 C478 1.395 . S
C482 H499 0.930 . S
C483 Gd430 2.805 . S
C483 O465 1.263 . S
C483 O466 1.252 . S
C483 C477 1.500 . S
C484 H446 0.930 . S
C484 C460 1.417 . S
C484 C485 1.329 . S
C485 C455 1.437 . S
C485 H456 0.929 . S
C485 C484 1.329 . S
H486 C459 0.931 . S
C487 O469 1.265 . S
C487 O470 1.242 . S
C488 O473 1.261 . S
C488 O474 1.252 . S
C489 C492 1.394 1_556 S
C489 C494 1.370 1_556 S
C489 C495 1.500 . S
C490 C493 1.383 . S
C490 C494 1.395 . S
C491 C492 1.396 . S
C491 C493 1.365 . S
C491 H500 0.929 . S
C492 C489 1.394 1_554 S
C492 C491 1.396 . S
C492 H501 0.930 1_554 S
C493 C490 1.383 . S
C493 C491 1.365 . S
C493 H502 0.931 . S
C494 C489 1.370 1_554 S
C494 C490 1.395 . S
C494 H503 0.934 . S
C495 Gd431 2.805 . S
C495 O471 1.263 . S
C495 O472 1.252 . S
C495 C489 1.500 . S
H496 C479 0.929 . S
H497 C480 0.930 . S
H498 C481 0.931 . S
H499 C482 0.930 . S
H500 C491 0.929 . S
H501 C492 0.930 1_556 S
H502 C493 0.931 . S
H503 C494 0.934 . S
C504 C506 1.422 . S
C504 C508 1.415 . S
C504 N510 1.369 . S
C505 C506 1.421 . S
C505 C507 1.417 . S
C505 C517 1.422 . S
C506 C504 1.422 . S
C506 C505 1.421 . S
C506 N516 1.359 . S
C507 C505 1.417 . S
C507 C509 1.329 . S
C507 H526 0.930 . S
C508 C504 1.415 . S
C508 C509 1.437 . S
C508 C512 1.413 . S
C509 C507 1.329 . S
C509 C508 1.437 . S
C509 H531 0.929 . S
N510 C504 1.369 . S
N510 C511 1.338 . S
N510 Gd515 2.622 . S
C511 N510 1.338 . S
C511 C513 1.378 . S
C511 H523 0.929 . S
C512 C508 1.413 . S
C512 C513 1.348 . S
C512 H528 0.931 . S
C513 C511 1.378 . S
C513 C512 1.348 . S
C513 H529 0.930 . S
Gd514 N534 2.622 . S
Gd514 N541 2.570 . S
Gd514 O548 2.353 . S
Gd514 O549 2.468 . S
Gd514 O550 2.427 . S
Gd514 O552 2.388 . S
Gd514 O553 2.386 1_554 S
Gd514 O557 2.307 . S
Gd514 C567 2.805 . S
Gd515 N510 2.622 . S
Gd515 N516 2.570 . S
Gd515 O547 2.386 1_556 S
Gd515 O551 2.307 . S
Gd515 O554 2.353 . S
Gd515 O555 2.468 . S
Gd515 O556 2.427 . S
Gd515 O558 2.388 . S
Gd515 C579 2.805 . S
N516 C506 1.359 . S
N516 Gd515 2.570 . S
N516 C518 1.343 . S
C517 C505 1.422 . S
C517 C519 1.321 . S
C517 H525 0.931 . S
C518 N516 1.343 . S
C518 C519 1.390 . S
C518 H520 0.931 . S
C519 C517 1.321 . S
C519 C518 1.390 . S
C519 H521 0.930 . S
H520 C518 0.931 . S
H521 C519 0.930 . S
H522 C545 0.931 . S
H523 C511 0.929 . S
H524 C546 0.930 . S
H525 C517 0.931 . S
H526 C507 0.930 . S
H527 C536 0.929 . S
H528 C512 0.931 . S
H529 C513 0.930 . S
H530 C568 0.930 . S
H531 C509 0.929 . S
H532 C537 0.931 . S
H533 C538 0.930 . S
N534 Gd514 2.622 . S
N534 C535 1.369 . S
N534 C536 1.338 . S
C535 N534 1.369 . S
C535 C539 1.415 . S
C535 C542 1.422 . S
C536 H527 0.929 . S
C536 N534 1.338 . S
C536 C538 1.378 . S
C537 H532 0.931 . S
C537 C538 1.348 . S
C537 C539 1.413 . S
C538 H533 0.930 . S
C538 C536 1.378 . S
C538 C537 1.348 . S
C539 C535 1.415 . S
C539 C537 1.413 . S
C539 C569 1.437 . S
H540 C569 0.929 . S
N541 Gd514 2.570 . S
N541 C542 1.359 . S
N541 C545 1.343 . S
C542 C535 1.422 . S
C542 N541 1.359 . S
C542 C544 1.421 . S
C543 C544 1.422 . S
C543 C546 1.321 . S
C543 H570 0.931 . S
C544 C542 1.421 . S
C544 C543 1.422 . S
C544 C568 1.417 . S
C545 H522 0.931 . S
C545 N541 1.343 . S
C545 C546 1.390 . S
C546 H524 0.930 . S
C546 C543 1.321 . S
C546 C545 1.390 . S
O547 Gd515 2.386 1_554 S
O547 C559 1.265 . S
O548 Gd514 2.353 . S
O548 C559 1.242 . S
O549 Gd514 2.468 . S
O549 C567 1.263 . S
O550 Gd514 2.427 . S
O550 C567 1.252 . S
O551 Gd515 2.307 . S
O551 C560 1.261 . S
O552 Gd514 2.388 . S
O552 C560 1.252 1_554 S
O553 Gd514 2.386 1_556 S
O553 C571 1.265 . S
O554 Gd515 2.353 . S
O554 C571 1.242 . S
O555 Gd515 2.468 . S
O555 C579 1.263 . S
O556 Gd515 2.427 . S
O556 C579 1.252 . S
O557 Gd514 2.307 . S
O557 C572 1.261 . S
O558 Gd515 2.388 . S
O558 C572 1.252 1_556 S
C559 O547 1.265 . S
C559 O548 1.242 . S
C560 O551 1.261 . S
C560 O552 1.252 1_556 S
C561 C564 1.394 . S
C561 C566 1.370 . S
C561 C567 1.500 . S
C562 C565 1.383 . S
C562 C566 1.395 . S
C563 C564 1.396 . S
C563 C565 1.365 . S
C563 H580 0.929 . S
C564 C561 1.394 . S
C564 C563 1.396 . S
C564 H581 0.930 . S
C565 C562 1.383 . S
C565 C563 1.365 . S
C565 H582 0.931 . S
C566 C561 1.370 . S
C566 C562 1.395 . S
C566 H583 0.930 . S
C567 Gd514 2.805 . S
C567 O549 1.263 . S
C567 O550 1.252 . S
C567 C561 1.500 . S
C568 H530 0.930 . S
C568 C544 1.417 . S
C568 C569 1.329 . S
C569 C539 1.437 . S
C569 H540 0.929 . S
C569 C568 1.329 . S
H570 C543 0.931 . S
C571 O553 1.265 . S
C571 O554 1.242 . S
C572 O557 1.261 . S
C572 O558 1.252 1_554 S
C573 C576 1.394 . S
C573 C578 1.370 . S
C573 C579 1.500 . S
C574 C577 1.383 . S
C574 C578 1.395 . S
C575 C576 1.396 . S
C575 C577 1.365 . S
C575 H584 0.929 . S
C576 C573 1.394 . S
C576 C575 1.396 . S
C576 H585 0.930 . S
C577 C574 1.383 . S
C577 C575 1.365 . S
C577 H586 0.931 . S
C578 C573 1.370 . S
C578 C574 1.395 . S
C578 H587 0.930 . S
C579 Gd515 2.805 . S
C579 O555 1.263 . S
C579 O556 1.252 . S
C579 C573 1.500 . S
H580 C563 0.929 . S
H581 C564 0.930 . S
H582 C565 0.931 . S
H583 C566 0.930 . S
H584 C575 0.929 . S
H585 C576 0.930 . S
H586 C577 0.931 . S
H587 C578 0.930 . S
C588 C590 1.422 . S
C588 C592 1.415 . S
C588 N594 1.369 1_455 S
C589 C590 1.421 . S
C589 C591 1.417 . S
C589 C601 1.422 . S
C590 C588 1.422 . S
C590 C589 1.421 . S
C590 N600 1.359 . S
C591 C589 1.417 . S
C591 C593 1.329 . S
C591 H610 0.930 . S
C592 C588 1.415 . S
C592 C593 1.437 . S
C592 C596 1.413 1_455 S
C593 C591 1.329 . S
C593 C592 1.437 . S
C593 H615 0.929 . S
N594 C588 1.369 1_655 S
N594 C595 1.338 . S
N594 Gd599 2.623 . S
C595 N594 1.338 . S
C595 C597 1.378 . S
C595 H607 0.929 . S
C596 C592 1.413 1_655 S
C596 C597 1.348 . S
C596 H612 0.931 . S
C597 C595 1.378 . S
C597 C596 1.348 . S
C597 H613 0.930 . S
Gd598 N618 2.622 . S
Gd598 N625 2.570 1_455 S
Gd598 O632 2.353 . S
Gd598 O633 2.468 1_455 S
Gd598 O634 2.427 . S
Gd598 O636 2.388 . S
Gd598 O637 2.386 1_455 S
Gd598 O641 2.307 1_455 S
Gd598 C651 2.805 . S
Gd599 N594 2.623 . S
Gd599 N600 2.546 1_655 S
Gd599 O631 2.371 1_655 S
Gd599 O635 2.288 1_655 S
Gd599 O638 2.371 . S
Gd599 O639 2.463 1_655 S
Gd599 O640 2.443 . S
Gd599 O642 2.410 . S
Gd599 C663 2.811 . S
N600 C590 1.359 . S
N600 Gd599 2.546 1_455 S
N600 C602 1.343 . S
C601 C589 1.422 . S
C601 C603 1.321 . S
C601 H609 0.931 . S
C602 N600 1.343 . S
C602 C603 1.390 . S
C602 H604 0.931 . S
C603 C601 1.321 . S
C603 C602 1.390 . S
C603 H605 0.930 . S
H604 C602 0.931 . S
H605 C603 0.930 . S
H606 C629 0.931 . S
H607 C595 0.929 . S
H608 C630 0.930 . S
H609 C601 0.931 . S
H610 C591 0.930 . S
H611 C620 0.929 . S
H612 C596 0.931 . S
H613 C597 0.930 . S
H614 C652 0.930 . S
H615 C593 0.929 . S
H616 C621 0.931 . S
H617 C622 0.930 . S
N618 Gd598 2.622 . S
N618 C619 1.369 1_455 S
N618 C620 1.338 . S
C619 N618 1.369 1_655 S
C619 C623 1.415 . S
C619 C626 1.422 . S
C620 H611 0.929 . S
C620 N618 1.338 . S
C620 C622 1.378 . S
C621 H616 0.931 . S
C621 C622 1.348 . S
C621 C623 1.413 1_455 S
C622 H617 0.930 . S
C622 C620 1.378 . S
C622 C621 1.348 . S
C623 C619 1.415 . S
C623 C621 1.413 1_655 S
C623 C653 1.437 . S
H624 C653 0.929 . S
N625 Gd598 2.570 1_655 S
N625 C626 1.359 . S
N625 C629 1.343 . S
C626 C619 1.422 . S
C626 N625 1.359 . S
C626 C628 1.421 . S
C627 C628 1.422 . S
C627 C630 1.321 . S
C627 H654 0.931 . S
C628 C626 1.421 . S
C628 C627 1.422 . S
C628 C652 1.417 . S
C629 H606 0.931 . S
C629 N625 1.343 . S
C629 C630 1.390 . S
C630 H608 0.930 . S
C630 C627 1.321 . S
C630 C629 1.390 . S
O631 Gd599 2.371 1_455 S
O631 C643 1.265 . S
O632 Gd598 2.353 . S
O632 C643 1.242 . S
O633 Gd598 2.468 1_655 S
O633 C651 1.263 1_655 S
O634 Gd598 2.427 . S
O634 C651 1.252 . S
O635 Gd599 2.288 1_455 S
O635 C644 1.261 . S
O636 Gd598 2.388 . S
O636 C644 1.252 . S
O637 Gd598 2.386 1_655 S
O637 C655 1.265 . S
O638 Gd599 2.371 . S
O638 C655 1.242 . S
O639 Gd599 2.463 1_455 S
O639 C663 1.263 1_455 S
O640 Gd599 2.443 . S
O640 C663 1.252 . S
O641 Gd598 2.307 1_655 S
O641 C656 1.261 . S
O642 Gd599 2.410 . S
O642 C656 1.252 . S
C643 O631 1.265 . S
C643 O632 1.242 . S
C644 O635 1.261 . S
C644 O636 1.252 . S
C645 C648 1.394 . S
C645 C650 1.370 . S
C645 C651 1.500 . S
C646 C649 1.383 . S
C646 C650 1.395 . S
C647 C648 1.396 . S
C647 C649 1.365 . S
C647 H664 0.929 . S
C648 C645 1.394 . S
C648 C647 1.396 . S
C648 H665 0.930 . S
C649 C646 1.383 . S
C649 C647 1.365 . S
C649 H666 0.931 . S
C650 C645 1.370 . S
C650 C646 1.395 . S
C650 H667 0.930 1_455 S
C651 Gd598 2.805 . S
C651 O633 1.263 1_455 S
C651 O634 1.252 . S
C651 C645 1.500 . S
C652 H614 0.930 . S
C652 C628 1.417 . S
C652 C653 1.329 . S
C653 C623 1.437 . S
C653 H624 0.929 . S
C653 C652 1.329 . S
H654 C627 0.931 . S
C655 O637 1.265 . S
C655 O638 1.242 . S
C656 O641 1.261 . S
C656 O642 1.252 . S
C657 C660 1.394 . S
C657 C662 1.370 . S
C657 C663 1.500 . S
C658 C661 1.383 . S
C658 C662 1.395 . S
C659 C660 1.396 . S
C659 C661 1.365 . S
C659 H668 0.929 . S
C660 C657 1.394 . S
C660 C659 1.396 . S
C660 H669 0.930 . S
C661 C658 1.383 . S
C661 C659 1.365 . S
C661 H670 0.931 . S
C662 C657 1.370 . S
C662 C658 1.395 . S
C662 H671 0.930 1_655 S
C663 Gd599 2.811 . S
C663 O639 1.263 1_655 S
C663 O640 1.252 . S
C663 C657 1.500 . S
H664 C647 0.929 . S
H665 C648 0.930 . S
H666 C649 0.931 . S
H667 C650 0.930 1_655 S
H668 C659 0.929 . S
H669 C660 0.930 . S
H670 C661 0.931 . S
H671 C662 0.930 1_455 S
H672 C678 0.930 . S
H673 C682 0.930 . S
H674 C687 0.929 . S
H675 C685 0.929 . S
H676 C680 0.929 . S
H677 C686 0.929 . S
C678 H672 0.930 . S
C678 C679 1.367 . S
C678 C686 1.378 . S
C679 C678 1.367 . S
C679 C687 1.433 . S
C680 H676 0.929 . S
C680 C682 1.378 . S
C680 C684 1.350 . S
C681 C684 1.463 . S
C681 C686 1.350 . S
C681 N689 1.427 . S
C682 H673 0.930 . S
C682 C680 1.378 . S
C682 C683 1.367 . S
C683 C682 1.367 . S
C683 C685 1.433 . S
C684 C680 1.350 . S
C684 C681 1.463 . S
C684 N688 1.427 . S
C685 H675 0.929 . S
C685 C683 1.433 . S
C685 N688 1.384 . S
C686 H677 0.929 . S
C686 C678 1.378 . S
C686 C681 1.350 . S
C687 H674 0.929 . S
C687 C679 1.433 . S
C687 N689 1.384 . S
N688 C684 1.427 . S
N688 C685 1.384 . S
N689 C681 1.427 . S
N689 C687 1.384 . S
H690 C696 0.930 . S
H691 C700 0.930 . S
H692 C705 0.929 . S
H693 C703 0.929 . S
H694 C698 0.929 . S
H695 C704 0.929 . S
C696 H690 0.930 . S
C696 C697 1.367 . S
C696 C704 1.378 . S
C697 C696 1.367 . S
C697 C705 1.433 . S
C698 H694 0.929 . S
C698 C700 1.378 . S
C698 C702 1.350 . S
C699 C702 1.463 . S
C699 C704 1.350 . S
C699 N707 1.427 . S
C700 H691 0.930 . S
C700 C698 1.378 . S
C700 C701 1.367 . S
C701 C700 1.367 . S
C701 C703 1.433 . S
C702 C698 1.350 . S
C702 C699 1.463 . S
C702 N706 1.427 . S
C703 H693 0.929 . S
C703 C701 1.433 . S
C703 N706 1.384 . S
C704 H695 0.929 . S
C704 C696 1.378 . S
C704 C699 1.350 . S
C705 H692 0.929 . S
C705 C697 1.433 . S
C705 N707 1.384 . S
N706 C702 1.427 . S
N706 C703 1.384 . S
N707 C699 1.427 . S
N707 C705 1.384 . S
H708 C714 0.930 . S
H709 C718 0.930 . S
H710 C723 0.929 . S
H711 C721 0.929 . S
H712 C716 0.929 . S
H713 C722 0.929 . S
C714 H708 0.930 . S
C714 C715 1.367 . S
C714 C722 1.378 . S
C715 C714 1.367 . S
C715 C723 1.433 . S
C716 H712 0.929 . S
C716 C718 1.378 . S
C716 C720 1.350 . S
C717 C720 1.463 . S
C717 C722 1.350 . S
C717 N725 1.427 . S
C718 H709 0.930 . S
C718 C716 1.378 . S
C718 C719 1.367 . S
C719 C718 1.367 . S
C719 C721 1.433 . S
C720 C716 1.350 . S
C720 C717 1.463 . S
C720 N724 1.427 . S
C721 H711 0.929 . S
C721 C719 1.433 . S
C721 N724 1.384 . S
C722 H713 0.929 . S
C722 C714 1.378 . S
C722 C717 1.350 . S
C723 H710 0.929 . S
C723 C715 1.433 . S
C723 N725 1.384 . S
N724 C720 1.427 . S
N724 C721 1.384 . S
N725 C717 1.427 . S
N725 C723 1.384 . S
H726 C732 0.930 . S
H727 C736 0.930 . S
H728 C741 0.929 . S
H729 C739 0.929 . S
H730 C734 0.929 . S
H731 C740 0.929 . S
C732 H726 0.930 . S
C732 C733 1.367 . S
C732 C740 1.378 . S
C733 C732 1.367 . S
C733 C741 1.433 . S
C734 H730 0.929 . S
C734 C736 1.378 . S
C734 C738 1.350 . S
C735 C738 1.463 . S
C735 C740 1.350 . S
C735 N743 1.427 . S
C736 H727 0.930 . S
C736 C734 1.378 . S
C736 C737 1.367 . S
C737 C736 1.367 . S
C737 C739 1.433 . S
C738 C734 1.350 . S
C738 C735 1.463 . S
C738 N742 1.427 . S
C739 H729 0.929 . S
C739 C737 1.433 . S
C739 N742 1.384 . S
C740 H731 0.929 . S
C740 C732 1.378 . S
C740 C735 1.350 . S
C741 H728 0.929 . S
C741 C733 1.433 . S
C741 N743 1.384 . S
N742 C738 1.427 . S
N742 C739 1.384 . S
N743 C735 1.427 . S
N743 C741 1.384 . S
H744 C750 0.930 . S
H745 C754 0.930 . S
H746 C759 0.929 . S
H747 C757 0.929 . S
H748 C752 0.929 . S
H749 C758 0.929 . S
C750 H744 0.930 . S
C750 C751 1.367 . S
C750 C758 1.378 . S
C751 C750 1.367 . S
C751 C759 1.433 . S
C752 H748 0.929 . S
C752 C754 1.378 . S
C752 C756 1.350 . S
C753 C756 1.463 . S
C753 C758 1.350 . S
C753 N761 1.427 . S
C754 H745 0.930 . S
C754 C752 1.378 . S
C754 C755 1.367 . S
C755 C754 1.367 . S
C755 C757 1.433 . S
C756 C752 1.350 . S
C756 C753 1.463 . S
C756 N760 1.427 . S
C757 H747 0.929 . S
C757 C755 1.433 . S
C757 N760 1.384 . S
C758 H749 0.929 . S
C758 C750 1.378 . S
C758 C753 1.350 . S
C759 H746 0.929 . S
C759 C751 1.433 . S
C759 N761 1.384 . S
N760 C756 1.427 . S
N760 C757 1.384 . S
N761 C753 1.427 . S
N761 C759 1.384 . S
H762 C768 0.930 . S
H763 C772 0.930 . S
H764 C777 0.929 . S
H765 C775 0.929 . S
H766 C770 0.929 . S
H767 C776 0.929 . S
C768 H762 0.930 . S
C768 C769 1.367 . S
C768 C776 1.378 . S
C769 C768 1.367 . S
C769 C777 1.433 . S
C770 H766 0.929 . S
C770 C772 1.378 . S
C770 C774 1.350 . S
C771 C774 1.463 . S
C771 C776 1.350 . S
C771 N779 1.427 . S
C772 H763 0.930 . S
C772 C770 1.378 . S
C772 C773 1.367 . S
C773 C772 1.367 . S
C773 C775 1.433 . S
C774 C770 1.350 . S
C774 C771 1.463 . S
C774 N778 1.427 . S
C775 H765 0.929 . S
C775 C773 1.433 . S
C775 N778 1.384 . S
C776 H767 0.929 . S
C776 C768 1.378 . S
C776 C771 1.350 . S
C777 H764 0.929 . S
C777 C769 1.433 . S
C777 N779 1.384 . S
N778 C774 1.427 . S
N778 C775 1.384 . S
N779 C771 1.427 . S
N779 C777 1.384 . S
H780 C786 0.930 . S
H781 C790 0.930 . S
H782 C795 0.929 . S
H783 C793 0.929 . S
H784 C788 0.929 . S
H785 C794 0.929 . S
C786 H780 0.930 . S
C786 C787 1.367 . S
C786 C794 1.378 . S
C787 C786 1.367 . S
C787 C795 1.433 . S
C788 H784 0.929 . S
C788 C790 1.378 . S
C788 C792 1.350 . S
C789 C792 1.463 . S
C789 C794 1.350 . S
C789 N797 1.427 . S
C790 H781 0.930 . S
C790 C788 1.378 . S
C790 C791 1.367 . S
C791 C790 1.367 . S
C791 C793 1.433 . S
C792 C788 1.350 . S
C792 C789 1.463 . S
C792 N796 1.427 . S
C793 H783 0.929 . S
C793 C791 1.433 . S
C793 N796 1.384 . S
C794 H785 0.929 . S
C794 C786 1.378 . S
C794 C789 1.350 . S
C795 H782 0.929 . S
C795 C787 1.433 . S
C795 N797 1.384 . S
N796 C792 1.427 . S
N796 C793 1.384 . S
N797 C789 1.427 . S
N797 C795 1.384 . S
H798 C804 0.930 . S
H799 C808 0.931 1_554 S
H800 C813 0.929 . S
H801 C811 0.929 . S
H802 C806 0.929 . S
H803 C812 0.929 . S
C804 H798 0.930 . S
C804 C805 1.367 . S
C804 C812 1.378 . S
C805 C804 1.367 . S
C805 C813 1.433 . S
C806 H802 0.929 . S
C806 C808 1.378 . S
C806 C810 1.350 . S
C807 C810 1.463 . S
C807 C812 1.350 . S
C807 N815 1.427 . S
C808 H799 0.931 1_556 S
C808 C806 1.378 . S
C808 C809 1.367 . S
C809 C808 1.367 . S
C809 C811 1.433 . S
C810 C806 1.350 . S
C810 C807 1.463 . S
C810 N814 1.427 . S
C811 H801 0.929 . S
C811 C809 1.433 . S
C811 N814 1.384 . S
C812 H803 0.929 . S
C812 C804 1.378 . S
C812 C807 1.350 . S
C813 H800 0.929 . S
C813 C805 1.433 . S
C813 N815 1.384 . S
N814 C810 1.427 . S
N814 C811 1.384 . S
N815 C807 1.427 . S
N815 C813 1.384 . S
H816 C822 0.928 1_554 S
H817 C826 0.930 . S
H818 C831 0.929 . S
H819 C829 0.929 . S
H820 C824 0.929 . S
H821 C830 0.929 . S
C822 H816 0.928 1_556 S
C822 C823 1.367 . S
C822 C830 1.378 . S
C823 C822 1.367 . S
C823 C831 1.433 . S
C824 H820 0.929 . S
C824 C826 1.378 . S
C824 C828 1.350 . S
C825 C828 1.463 . S
C825 C830 1.350 . S
C825 N833 1.427 . S
C826 H817 0.930 . S
C826 C824 1.378 . S
C826 C827 1.367 . S
C827 C826 1.367 . S
C827 C829 1.433 . S
C828 C824 1.350 . S
C828 C825 1.463 . S
C828 N832 1.427 . S
C829 H819 0.929 . S
C829 C827 1.433 . S
C829 N832 1.384 . S
C830 H821 0.929 . S
C830 C822 1.378 . S
C830 C825 1.350 . S
C831 H818 0.929 . S
C831 C823 1.433 . S
C831 N833 1.384 . S
N832 C828 1.427 . S
N832 C829 1.384 . S
N833 C825 1.427 . S
N833 C831 1.384 . S
H834 C840 0.930 . S
H835 C844 0.930 . S
H836 C849 0.929 . S
H837 C847 0.929 . S
H838 C842 0.929 . S
H839 C848 0.929 . S
C840 H834 0.930 . S
C840 C841 1.367 . S
C840 C848 1.378 . S
C841 C840 1.367 . S
C841 C849 1.433 . S
C842 H838 0.929 . S
C842 C844 1.378 . S
C842 C846 1.350 . S
C843 C846 1.463 . S
C843 C848 1.350 . S
C843 N851 1.427 . S
C844 H835 0.930 . S
C844 C842 1.378 . S
C844 C845 1.367 . S
C845 C844 1.367 . S
C845 C847 1.433 . S
C846 C842 1.350 . S
C846 C843 1.463 . S
C846 N850 1.427 . S
C847 H837 0.929 . S
C847 C845 1.433 . S
C847 N850 1.384 . S
C848 H839 0.929 . S
C848 C840 1.378 . S
C848 C843 1.350 . S
C849 H836 0.929 . S
C849 C841 1.433 . S
C849 N851 1.384 . S
N850 C846 1.427 . S
N850 C847 1.384 . S
N851 C843 1.427 . S
N851 C849 1.384 . S
H852 C858 0.930 . S
H853 C862 0.930 . S
H854 C867 0.929 . S
H855 C865 0.929 . S
H856 C860 0.929 . S
H857 C866 0.929 . S
C858 H852 0.930 . S
C858 C859 1.367 . S
C858 C866 1.378 . S
C859 C858 1.367 . S
C859 C867 1.433 . S
C860 H856 0.929 . S
C860 C862 1.378 . S
C860 C864 1.350 . S
C861 C864 1.463 . S
C861 C866 1.350 . S
C861 N869 1.427 . S
C862 H853 0.930 . S
C862 C860 1.378 . S
C862 C863 1.367 . S
C863 C862 1.367 . S
C863 C865 1.433 . S
C864 C860 1.350 . S
C864 C861 1.463 . S
C864 N868 1.427 . S
C865 H855 0.929 . S
C865 C863 1.433 . S
C865 N868 1.384 . S
C866 H857 0.929 . S
C866 C858 1.378 . S
C866 C861 1.350 . S
C867 H854 0.929 . S
C867 C859 1.433 . S
C867 N869 1.384 . S
N868 C864 1.427 . S
N868 C865 1.384 . S
N869 C861 1.427 . S
N869 C867 1.384 . S
H870 C876 0.930 . S
H871 C880 0.930 . S
H872 C885 0.929 . S
H873 C883 0.929 . S
H874 C878 0.929 . S
H875 C884 0.929 . S
C876 H870 0.930 . S
C876 C877 1.367 . S
C876 C884 1.378 . S
C877 C876 1.367 . S
C877 C885 1.433 . S
C878 H874 0.929 . S
C878 C880 1.378 . S
C878 C882 1.350 . S
C879 C882 1.463 . S
C879 C884 1.350 . S
C879 N887 1.427 . S
C880 H871 0.930 . S
C880 C878 1.378 . S
C880 C881 1.367 . S
C881 C880 1.367 . S
C881 C883 1.433 . S
C882 C878 1.350 . S
C882 C879 1.463 . S
C882 N886 1.427 . S
C883 H873 0.929 . S
C883 C881 1.433 . S
C883 N886 1.384 . S
C884 H875 0.929 . S
C884 C876 1.378 . S
C884 C879 1.350 . S
C885 H872 0.929 . S
C885 C877 1.433 . S
C885 N887 1.384 . S
N886 C882 1.427 . S
N886 C883 1.384 . S
N887 C879 1.427 . S
N887 C885 1.384 . S
H888 C894 0.930 . S
H889 C898 0.930 . S
H890 C903 0.929 . S
H891 C901 0.929 . S
H892 C896 0.929 . S
H893 C902 0.929 . S
C894 H888 0.930 . S
C894 C895 1.367 . S
C894 C902 1.378 . S
C895 C894 1.367 . S
C895 C903 1.433 . S
C896 H892 0.929 . S
C896 C898 1.378 . S
C896 C900 1.350 . S
C897 C900 1.463 . S
C897 C902 1.350 . S
C897 N905 1.427 . S
C898 H889 0.930 . S
C898 C896 1.378 . S
C898 C899 1.367 . S
C899 C898 1.367 . S
C899 C901 1.433 . S
C900 C896 1.350 . S
C900 C897 1.463 . S
C900 N904 1.427 . S
C901 H891 0.929 . S
C901 C899 1.433 . S
C901 N904 1.384 . S
C902 H893 0.929 . S
C902 C894 1.378 . S
C902 C897 1.350 . S
C903 H890 0.929 . S
C903 C895 1.433 . S
C903 N905 1.384 . S
N904 C900 1.427 . S
N904 C901 1.384 . S
N905 C897 1.427 . S
N905 C903 1.384 . S
H906 C912 0.930 . S
H907 C916 0.930 . S
H908 C921 0.929 . S
H909 C919 0.929 . S
H910 C914 0.929 . S
H911 C920 0.929 . S
C912 H906 0.930 . S
C912 C913 1.367 . S
C912 C920 1.378 . S
C913 C912 1.367 . S
C913 C921 1.433 . S
C914 H910 0.929 . S
C914 C916 1.378 . S
C914 C918 1.350 . S
C915 C918 1.463 . S
C915 C920 1.350 . S
C915 N923 1.427 . S
C916 H907 0.930 . S
C916 C914 1.378 . S
C916 C917 1.367 . S
C917 C916 1.367 . S
C917 C919 1.433 . S
C918 C914 1.350 . S
C918 C915 1.463 . S
C918 N922 1.427 . S
C919 H909 0.929 . S
C919 C917 1.433 . S
C919 N922 1.384 . S
C920 H911 0.929 . S
C920 C912 1.378 . S
C920 C915 1.350 . S
C921 H908 0.929 . S
C921 C913 1.433 . S
C921 N923 1.384 . S
N922 C918 1.427 . S
N922 C919 1.384 . S
N923 C915 1.427 . S
N923 C921 1.384 . S
H924 C930 0.930 . S
H925 C934 0.930 . S
H926 C939 0.929 . S
H927 C937 0.929 . S
H928 C932 0.929 . S
H929 C938 0.929 . S
C930 H924 0.930 . S
C930 C931 1.367 . S
C930 C938 1.378 . S
C931 C930 1.367 . S
C931 C939 1.433 . S
C932 H928 0.929 . S
C932 C934 1.378 . S
C932 C936 1.350 . S
C933 C936 1.463 . S
C933 C938 1.350 . S
C933 N941 1.427 . S
C934 H925 0.930 . S
C934 C932 1.378 . S
C934 C935 1.367 . S
C935 C934 1.367 . S
C935 C937 1.433 . S
C936 C932 1.350 . S
C936 C933 1.463 . S
C936 N940 1.427 . S
C937 H927 0.929 . S
C937 C935 1.433 . S
C937 N940 1.384 . S
C938 H929 0.929 . S
C938 C930 1.378 . S
C938 C933 1.350 . S
C939 H926 0.929 . S
C939 C931 1.433 . S
C939 N941 1.384 . S
N940 C936 1.427 . S
N940 C937 1.384 . S
N941 C933 1.427 . S
N941 C939 1.384 . S
H942 C948 0.930 . S
H943 C952 0.930 . S
H944 C957 0.929 . S
H945 C955 0.929 . S
H946 C950 0.929 . S
H947 C956 0.929 . S
C948 H942 0.930 . S
C948 C949 1.367 . S
C948 C956 1.378 . S
C949 C948 1.367 . S
C949 C957 1.433 . S
C950 H946 0.929 . S
C950 C952 1.378 . S
C950 C954 1.350 . S
C951 C954 1.463 . S
C951 C956 1.350 . S
C951 N959 1.427 . S
C952 H943 0.930 . S
C952 C950 1.378 . S
C952 C953 1.367 . S
C953 C952 1.367 . S
C953 C955 1.433 . S
C954 C950 1.350 . S
C954 C951 1.463 . S
C954 N958 1.427 . S
C955 H945 0.929 . S
C955 C953 1.433 . S
C955 N958 1.384 . S
C956 H947 0.929 . S
C956 C948 1.378 . S
C956 C951 1.350 . S
C957 H944 0.929 . S
C957 C949 1.433 . S
C957 N959 1.384 . S
N958 C954 1.427 . S
N958 C955 1.384 . S
N959 C951 1.427 . S
N959 C957 1.384 . S
H960 C966 0.930 . S
H961 C970 0.930 . S
H962 C975 0.929 . S
H963 C973 0.929 . S
H964 C968 0.929 . S
H965 C974 0.929 . S
C966 H960 0.930 . S
C966 C967 1.367 1_545 S
C966 C974 1.378 . S
C967 C966 1.367 1_565 S
C967 C975 1.433 1_655 S
C968 H964 0.929 . S
C968 C970 1.378 . S
C968 C972 1.343 1_565 S
C969 C972 1.461 1_666 S
C969 C974 1.365 1_565 S
C969 N977 1.414 1_655 S
C970 H961 0.930 . S
C970 C968 1.378 . S
C970 C971 1.367 1_565 S
C971 C970 1.367 1_545 S
C971 C973 1.433 1_455 S
C972 C968 1.343 1_545 S
C972 C969 1.461 1_444 S
C972 N976 1.435 1_455 S
C973 H963 0.929 . S
C973 C971 1.433 1_655 S
C973 N976 1.384 . S
C974 H965 0.929 . S
C974 C966 1.378 . S
C974 C969 1.365 1_545 S
C975 H962 0.929 . S
C975 C967 1.433 1_455 S
C975 N977 1.384 . S
N976 C972 1.435 1_655 S
N976 C973 1.384 . S
N977 C969 1.414 1_455 S
N977 C975 1.384 . S
H978 C984 0.930 . S
H979 C988 0.930 . S
H980 C993 0.929 . S
H981 C991 0.929 . S
H982 C986 0.929 . S
H983 C992 0.929 . S
C984 H978 0.930 . S
C984 C985 1.367 . S
C984 C992 1.378 . S
C985 C984 1.367 . S
C985 C993 1.433 . S
C986 H982 0.929 . S
C986 C988 1.378 . S
C986 C990 1.350 . S
C987 C990 1.463 . S
C987 C992 1.350 . S
C987 N995 1.427 . S
C988 H979 0.930 . S
C988 C986 1.378 . S
C988 C989 1.367 . S
C989 C988 1.367 . S
C989 C991 1.433 . S
C990 C986 1.350 . S
C990 C987 1.463 . S
C990 N994 1.427 . S
C991 H981 0.929 . S
C991 C989 1.433 . S
C991 N994 1.384 . S
C992 H983 0.929 . S
C992 C984 1.378 . S
C992 C987 1.350 . S
C993 H980 0.929 . S
C993 C985 1.433 . S
C993 N995 1.384 . S
N994 C990 1.427 . S
N994 C991 1.384 . S
N995 C987 1.427 . S
N995 C993 1.384 . S
H996 C1002 0.930 . S
H997 C1006 0.930 . S
H998 C1011 0.929 . S
H999 C1009 0.929 . S
H1000 C1004 0.929 . S
H1001 C1010 0.929 . S
C1002 H996 0.930 . S
C1002 C1003 1.367 1_545 S
C1002 C1010 1.378 . S
C1003 C1002 1.367 1_565 S
C1003 C1011 1.433 . S
C1004 H1000 0.929 . S
C1004 C1006 1.378 . S
C1004 C1008 1.334 1_565 S
C1005 C1008 1.462 1_565 S
C1005 C1010 1.340 1_565 S
C1005 N1013 1.438 . S
C1006 H997 0.930 . S
C1006 C1004 1.378 . S
C1006 C1007 1.367 1_565 S
C1007 C1006 1.367 1_545 S
C1007 C1009 1.433 . S
C1008 C1004 1.334 1_545 S
C1008 C1005 1.462 1_545 S
C1008 N1012 1.445 . S
C1009 H999 0.929 . S
C1009 C1007 1.433 . S
C1009 N1012 1.384 . S
C1010 H1001 0.929 . S
C1010 C1002 1.378 . S
C1010 C1005 1.340 1_545 S
C1011 H998 0.929 . S
C1011 C1003 1.433 . S
C1011 N1013 1.384 . S
N1012 C1008 1.445 . S
N1012 C1009 1.384 . S
N1013 C1005 1.438 . S
N1013 C1011 1.384 . S
H1014 C1020 0.930 . S
H1015 C1024 0.930 . S
H1016 C1029 0.929 . S
H1017 C1027 0.929 . S
H1018 C1022 0.929 . S
H1019 C1028 0.929 . S
C1020 H1014 0.930 . S
C1020 C1021 1.367 . S
C1020 C1028 1.378 . S
C1021 C1020 1.367 . S
C1021 C1029 1.433 . S
C1022 H1018 0.929 . S
C1022 C1024 1.378 . S
C1022 C1026 1.350 . S
C1023 C1026 1.463 . S
C1023 C1028 1.350 . S
C1023 N1031 1.427 . S
C1024 H1015 0.930 . S
C1024 C1022 1.378 . S
C1024 C1025 1.367 . S
C1025 C1024 1.367 . S
C1025 C1027 1.433 . S
C1026 C1022 1.350 . S
C1026 C1023 1.463 . S
C1026 N1030 1.427 . S
C1027 H1017 0.929 . S
C1027 C1025 1.433 . S
C1027 N1030 1.384 . S
C1028 H1019 0.929 . S
C1028 C1020 1.378 . S
C1028 C1023 1.350 . S
C1029 H1016 0.929 . S
C1029 C1021 1.433 . S
C1029 N1031 1.384 . S
N1030 C1026 1.427 . S
N1030 C1027 1.384 . S
N1031 C1023 1.427 . S
N1031 C1029 1.384 . S
H1032 C1038 0.930 . S
H1033 C1042 0.930 . S
H1034 C1047 0.929 . S
H1035 C1045 0.929 . S
H1036 C1040 0.929 . S
H1037 C1046 0.929 . S
C1038 H1032 0.930 . S
C1038 C1039 1.367 . S
C1038 C1046 1.378 . S
C1039 C1038 1.367 . S
C1039 C1047 1.433 . S
C1040 H1036 0.929 . S
C1040 C1042 1.378 . S
C1040 C1044 1.350 . S
C1041 C1044 1.463 . S
C1041 C1046 1.350 . S
C1041 N1049 1.427 . S
C1042 H1033 0.930 . S
C1042 C1040 1.378 . S
C1042 C1043 1.367 . S
C1043 C1042 1.367 . S
C1043 C1045 1.433 . S
C1044 C1040 1.350 . S
C1044 C1041 1.463 . S
C1044 N1048 1.427 . S
C1045 H1035 0.929 . S
C1045 C1043 1.433 . S
C1045 N1048 1.384 . S
C1046 H1037 0.929 . S
C1046 C1038 1.378 . S
C1046 C1041 1.350 . S
C1047 H1034 0.929 . S
C1047 C1039 1.433 . S
C1047 N1049 1.384 . S
N1048 C1044 1.427 . S
N1048 C1045 1.384 . S
N1049 C1041 1.427 . S
N1049 C1047 1.384 . S
H1050 C1056 0.930 . S
H1051 C1060 0.930 . S
H1052 C1065 0.929 . S
H1053 C1063 0.929 . S
H1054 C1058 0.929 . S
H1055 C1064 0.929 . S
C1056 H1050 0.930 . S
C1056 C1057 1.367 . S
C1056 C1064 1.378 . S
C1057 C1056 1.367 . S
C1057 C1065 1.433 . S
C1058 H1054 0.929 . S
C1058 C1060 1.378 . S
C1058 C1062 1.350 . S
C1059 C1062 1.463 . S
C1059 C1064 1.350 . S
C1059 N1067 1.427 . S
C1060 H1051 0.930 . S
C1060 C1058 1.378 . S
C1060 C1061 1.367 . S
C1061 C1060 1.367 . S
C1061 C1063 1.433 . S
C1062 C1058 1.350 . S
C1062 C1059 1.463 . S
C1062 N1066 1.427 . S
C1063 H1053 0.929 . S
C1063 C1061 1.433 . S
C1063 N1066 1.384 . S
C1064 H1055 0.929 . S
C1064 C1056 1.378 . S
C1064 C1059 1.350 . S
C1065 H1052 0.929 . S
C1065 C1057 1.433 . S
C1065 N1067 1.384 . S
N1066 C1062 1.427 . S
N1066 C1063 1.384 . S
N1067 C1059 1.427 . S
N1067 C1065 1.384 . S
H1068 C1074 0.930 . S
H1069 C1078 0.930 . S
H1070 C1083 0.929 . S
H1071 C1081 0.929 . S
H1072 C1076 0.929 . S
H1073 C1082 0.929 . S
C1074 H1068 0.930 . S
C1074 C1075 1.367 . S
C1074 C1082 1.378 . S
C1075 C1074 1.367 . S
C1075 C1083 1.433 . S
C1076 H1072 0.929 . S
C1076 C1078 1.378 . S
C1076 C1080 1.350 . S
C1077 C1080 1.463 . S
C1077 C1082 1.350 . S
C1077 N1085 1.427 . S
C1078 H1069 0.930 . S
C1078 C1076 1.378 . S
C1078 C1079 1.367 . S
C1079 C1078 1.367 . S
C1079 C1081 1.433 . S
C1080 C1076 1.350 . S
C1080 C1077 1.463 . S
C1080 N1084 1.427 . S
C1081 H1071 0.929 . S
C1081 C1079 1.433 . S
C1081 N1084 1.384 . S
C1082 H1073 0.929 . S
C1082 C1074 1.378 . S
C1082 C1077 1.350 . S
C1083 H1070 0.929 . S
C1083 C1075 1.433 . S
C1083 N1085 1.384 . S
N1084 C1080 1.427 . S
N1084 C1081 1.384 . S
N1085 C1077 1.427 . S
N1085 C1083 1.384 . S
H1086 C1092 0.930 . S
H1087 C1096 0.930 . S
H1088 C1101 0.929 . S
H1089 C1099 0.929 . S
H1090 C1094 0.929 . S
H1091 C1100 0.929 . S
C1092 H1086 0.930 . S
C1092 C1093 1.367 . S
C1092 C1100 1.378 . S
C1093 C1092 1.367 . S
C1093 C1101 1.433 1_455 S
C1094 H1090 0.929 . S
C1094 C1096 1.378 . S
C1094 C1098 1.365 . S
C1095 C1098 1.461 1_456 S
C1095 C1100 1.350 . S
C1095 N1103 1.427 1_455 S
C1096 H1087 0.930 . S
C1096 C1094 1.378 . S
C1096 C1097 1.367 . S
C1097 C1096 1.367 . S
C1097 C1099 1.433 1_655 S
C1098 C1094 1.365 . S
C1098 C1095 1.461 1_654 S
C1098 N1102 1.413 1_655 S
C1099 H1089 0.929 . S
C1099 C1097 1.433 1_455 S
C1099 N1102 1.384 . S
C1100 H1091 0.929 . S
C1100 C1092 1.378 . S
C1100 C1095 1.350 . S
C1101 H1088 0.929 . S
C1101 C1093 1.433 1_655 S
C1101 N1103 1.384 . S
N1102 C1098 1.413 1_455 S
N1102 C1099 1.384 . S
N1103 C1095 1.427 1_655 S
N1103 C1101 1.384 . S
C679 C67 1.503 . S
C683 C319 1.499 . S
C697 C68 1.503 . S
C701 C151 1.502 . S
C715 C152 1.496 . S
C719 C235 1.503 . S
C733 C236 1.498 . S
C737 C320 1.494 . S
C751 C55 1.501 . S
C755 C475 1.511 . S
C769 C56 1.503 . S
C773 C391 1.500 . S
C787 C392 1.489 . S
C791 C223 1.497 . S
C805 C476 1.490 . S
C809 C224 1.494 . S
C823 C571 1.504 . S
C827 C487 1.505 . S
C841 C403 1.504 . S
C845 C572 1.501 . S
C859 C655 1.501 . S
C863 C404 1.492 . S
C877 C488 1.490 . S
C881 C656 1.493 . S
C895 C307 1.505 . S
C899 C559 1.502 . S
C913 C560 1.502 . S
C917 C139 1.501 . S
C931 C140 1.497 . S
C935 C643 1.494 . S
C949 C308 1.497 . S
C953 C644 1.494 . S
C967 C58 1.338 1_565 S
C971 C70 1.338 1_545 S
C985 C154 1.355 . S
C989 C142 1.355 . S
C1003 C238 1.343 1_565 S
C1007 C226 1.343 1_545 S
C1021 C310 1.348 . S
C1025 C322 1.348 . S
C1039 C406 1.331 . S
C1043 C394 1.331 . S
C1057 C478 1.346 . S
C1061 C490 1.346 . S
C1075 C574 1.355 . S
C1079 C562 1.355 . S
C1093 C646 1.337 . S
C1097 C658 1.337 . S
