# Generated by pormake.
# Topology sxc, (6)-cn, num edge types: 1
# Building blocks:
#     Node 0, Type 0, BuildingBlock: UKALOJ_clean_sbu_0, # of connection points: 6
#     Node 1, Type 0, BuildingBlock: UKALOJ_clean_sbu_0, # of connection points: 6
#     Node 2, Type 0, BuildingBlock: UKALOJ_clean_sbu_0, # of connection points: 6
#     Edge 3, Type (0, 0), BuildingBlock: UVAHIK_clean_linker_0, # of connection points: 2
#     Edge 4, Type (0, 0), BuildingBlock: UVAHIK_clean_linker_0, # of connection points: 2
#     Edge 5, Type (0, 0), BuildingBlock: UVAHIK_clean_linker_0, # of connection points: 2
#     Edge 6, Type (0, 0), BuildingBlock: UVAHIK_clean_linker_0, # of connection points: 2
#     Edge 7, Type (0, 0), BuildingBlock: UVAHIK_clean_linker_0, # of connection points: 2
#     Edge 8, Type (0, 0), BuildingBlock: UVAHIK_clean_linker_0, # of connection points: 2
#     Edge 9, Type (0, 0), BuildingBlock: UVAHIK_clean_linker_0, # of connection points: 2
#     Edge 10, Type (0, 0), BuildingBlock: UVAHIK_clean_linker_0, # of connection points: 2
#     Edge 11, Type (0, 0), BuildingBlock: UVAHIK_clean_linker_0, # of connection points: 2
# Relax obj value: 0.125
# Max RMSD: 0.182
# Mean RMSD: 0.182
data_MOF--net-sxc--node1-UKALOJ_clean_sbu_0--edge1-UVAHIK_clean_linker_0
_symmetry_space_group_name_H-M    P1
_symmetry_Int_Tables_number       1
_symmetry_cell_setting            triclinic
loop_
_symmetry_equiv_pos_as_xyz
'x, y, z'
_cell_length_a     19.179859
_cell_length_b     19.039724
_cell_length_c     74.073866
_cell_angle_alpha  90.021558
_cell_angle_beta   90.028266
_cell_angle_gamma 120.02497
loop_
_atom_site_label
_atom_site_type_symbol
_atom_site_fract_x
_atom_site_fract_y
_atom_site_fract_z
_atom_type_partial_charge
Zn0 Zn -0.01072 0.07007 1.00402 0.0
O1 O 0.02398 -0.0164 1.0008 0.0
C2 C 0.83028 0.95142 0.01531 0.0
Zn3 Zn -0.01428 0.06147 0.03415 0.0
C4 C 0.03329 0.95309 0.01519 0.0
O5 O 0.02004 0.97465 0.03044 0.0
C6 C 0.94233 0.17889 0.02312 0.0
O7 O 0.10606 0.14889 0.03716 0.0
O8 O 0.10962 0.15789 1.00753 0.0
N9 N -0.0274 0.03626 0.0612 0.0
C10 C 0.00382 0.08191 0.07617 0.0
C11 C 0.92225 0.96115 0.0848 0.0
N12 N 0.92209 0.96132 0.06663 0.0
N13 N -0.0268 0.03601 0.09115 0.0
C14 C -0.01409 0.04991 0.96197 0.0
C15 C 0.02267 0.17041 0.95342 0.0
N16 N -0.00013 0.09533 0.97697 0.0
N17 N 0.02278 0.17011 0.97159 0.0
N18 N -2e-05 0.0958 0.94702 0.0
H19 H 0.91872 0.93183 0.97435 0.0
H20 H 0.00617 0.94945 0.96181 0.0
H21 H 0.91675 0.93132 0.94993 0.0
C22 C 0.95449 0.9603 0.96203 0.0
C23 C 0.06054 0.1717 0.07606 0.0
H24 H 0.05243 0.19978 0.06375 0.0
H25 H 0.12329 0.18337 0.07625 0.0
H26 H 0.05133 0.20044 0.08817 0.0
O27 O 0.95204 0.14844 0.03745 0.0
O28 O 0.95436 0.15656 1.00786 0.0
C29 C 0.1449 0.17976 0.02271 0.0
O30 O 0.86946 0.98216 1.00091 0.0
O31 O 0.86509 0.974 0.03051 0.0
Zn32 Zn 0.12527 0.12995 0.33726 0.0
O33 O 0.00517 0.09802 0.33466 0.0
C34 C 0.17092 0.292 0.34844 0.0
Zn35 Zn 0.12246 0.13535 0.36738 0.0
C36 C 0.9669 0.09101 0.34914 0.0
O37 O 0.0024 0.10406 0.36428 0.0
C38 C 0.28063 0.17389 0.35564 0.0
O39 O 0.08617 0.01325 0.37046 0.0
O40 O 0.08944 0.00803 0.34083 0.0
N41 N 0.11375 0.15018 0.3945 0.0
C42 C 0.12837 0.11879 0.4094 0.0
C43 C 0.09317 0.20313 0.41821 0.0
N44 N 0.09179 0.20241 0.40005 0.0
N45 N 0.11571 0.15105 0.42445 0.0
C46 C 0.10409 0.13231 0.29536 0.0
C47 C 0.18275 0.09111 0.28613 0.0
N48 N 0.13628 0.11773 0.31009 0.0
N49 N 0.18506 0.09214 0.30429 0.0
N50 N 0.1322 0.11581 0.28015 0.0
H51 H 0.05875 0.20318 0.30826 0.0
H52 H -0.01431 0.11606 0.29588 0.0
H53 H 0.05799 0.20502 0.28385 0.0
C54 C 0.0489 0.16671 0.29589 0.0
C55 C 0.15903 0.06025 0.40913 0.0
H56 H 0.19328 0.0668 0.39661 0.0
H57 H 0.10701 -0.00247 0.40963 0.0
H58 H 0.19799 0.0696 0.42101 0.0
O59 O 0.24205 0.16629 0.37009 0.0
O60 O 0.24557 0.16194 0.34048 0.0
C61 C 0.0763 0.97314 0.35607 0.0
O62 O 0.1606 0.25156 0.3341 0.0
O63 O 0.15893 0.25755 0.36369 0.0
Zn64 Zn 0.06704 0.01274 0.70085 0.0
O65 O -0.02058 0.04602 0.70332 0.0
C66 C 0.94981 0.85129 0.68928 0.0
Zn67 Zn 0.05906 0.00792 0.67072 0.0
C68 C 0.94841 0.05353 0.68883 0.0
O69 O -0.02906 0.04052 0.6737 0.0
C70 C 0.17789 0.9675 0.68261 0.0
O71 O 0.1455 0.12987 0.66801 0.0
O72 O 0.15394 0.13447 0.69764 0.0
N73 N 0.03723 -0.00501 0.64351 0.0
C74 C 0.08425 0.02748 0.62883 0.0
C75 C 0.9655 0.94573 0.61944 0.0
N76 N 0.96356 0.94429 0.63761 0.0
N77 N 0.04049 -0.00236 0.61356 0.0
C78 C 0.04148 0.00828 0.74271 0.0
C79 C 0.16047 0.04817 0.75221 0.0
N80 N 0.08879 0.02335 0.72808 0.0
N81 N 0.16262 0.04813 0.73405 0.0
N82 N 0.0852 0.02365 0.75802 0.0
H83 H 0.93981 0.02549 0.74216 0.0
H84 H 0.92247 0.93532 0.75384 0.0
H85 H 0.92629 0.93919 0.72944 0.0
C86 C 0.95224 0.97454 0.74197 0.0
C87 C 0.17331 0.08472 0.62951 0.0
H88 H 0.18481 0.14788 0.62923 0.0
H89 H 0.20336 0.0757 0.61766 0.0
H90 H 0.19971 0.07641 0.64206 0.0
O91 O 0.14713 0.97559 0.66816 0.0
O92 O 0.15472 0.97945 0.69776 0.0
C93 C 0.17613 0.16955 0.68243 0.0
O94 O -0.01983 0.89127 0.70366 0.0
O95 O -0.02737 0.88595 0.67406 0.0
C96 C 0.9472 0.2944 0.03971 0.0
C97 C 0.92799 0.24725 0.02398 0.0
C98 C 0.95412 0.37065 0.03908 0.0
C99 C 0.01403 0.53018 1.00612 0.0
H100 H 0.95723 0.63677 0.04308 0.0
C101 C 0.03239 0.83899 0.9988 0.0
C102 C 0.05045 0.88659 0.01443 0.0
C103 C 0.02925 0.76445 0.99955 0.0
C104 C -0.02537 0.60791 0.03283 0.0
H105 H 0.89059 0.23691 0.99598 0.0
H106 H 0.90142 0.36979 0.99499 0.0
H107 H 0.91032 0.49227 0.04576 0.0
H108 H 0.08992 0.90003 0.04233 0.0
H109 H 0.08539 0.77006 0.04353 0.0
H110 H 0.078 0.64579 0.99314 0.0
C111 C 0.91356 0.34898 1.00759 0.0
C112 C 0.94718 0.52539 0.03429 0.0
C113 C 0.90707 0.27308 1.00819 0.0
C114 C 0.07411 0.86331 0.0302 0.0
C115 C 0.07141 0.78916 0.03092 0.0
C116 C 0.04146 0.61271 1.00465 0.0
C117 C 0.94129 0.39985 0.02275 0.0
C118 C 0.96637 0.48595 0.02091 0.0
C119 C 0.04469 0.73746 0.0159 0.0
C120 C 0.02188 0.65205 0.01799 0.0
H121 H 0.96322 0.27545 0.05207 0.0
H122 H -0.02455 0.40897 0.05095 0.0
H123 H 0.03117 0.50121 0.99584 0.0
H124 H 0.01438 0.85603 0.98645 0.0
H125 H 0.00855 0.72541 0.98778 0.0
C126 C 0.3928 0.17403 0.37244 0.0
C127 C 0.36243 0.18692 0.35631 0.0
C128 C 0.46248 0.1686 0.37215 0.0
C129 C 0.63513 0.20191 0.3444 0.0
H130 H 0.59919 0.00176 0.3666 0.0
C131 C 0.85299 0.08745 0.33236 0.0
C132 C 0.88453 0.07651 0.34852 0.0
C133 C 0.78242 0.09122 0.33262 0.0
C134 C 0.60978 0.05774 0.36038 0.0
H135 H 0.38473 0.2129 0.32768 0.0
H136 H 0.50605 0.20297 0.3272 0.0
H137 H 0.49895 0.0439 0.37019 0.0
H138 H 0.86324 0.0518 0.37722 0.0
H139 H 0.7403 0.05887 0.37766 0.0
H140 H 0.74591 0.21574 0.33458 0.0
C141 C 0.47614 0.19671 0.34 0.0
C142 C 0.55319 0.08231 0.36258 0.0
C143 C 0.40649 0.20187 0.34026 0.0
C144 C 0.84068 0.06152 0.36461 0.0
C145 C 0.77007 0.06496 0.36485 0.0
C146 C 0.69165 0.1773 0.34218 0.0
C147 C 0.50253 0.17654 0.35578 0.0
C148 C 0.56558 0.1546 0.35462 0.0
C149 C 0.74261 0.08352 0.34902 0.0
C150 C 0.67929 0.10505 0.35014 0.0
H151 H 0.36016 0.16294 0.38502 0.0
H152 H 0.48288 0.15435 0.38454 0.0
H153 H 0.64587 0.25799 0.3382 0.0
H154 H 0.8853 0.09838 0.31975 0.0
H155 H 0.76121 0.10426 0.32021 0.0
C156 C 0.85194 0.7235 0.67411 0.0
C157 C 0.88111 0.76867 0.69009 0.0
C158 C 0.77647 0.65407 0.67383 0.0
C159 C 0.58552 0.58206 0.69598 0.0
H160 H 0.52062 0.38629 0.66818 0.0
C161 C 0.2729 0.29767 0.69769 0.0
C162 C 0.24397 0.25273 0.68168 0.0
C163 C 0.34767 0.36803 0.69795 0.0
C164 C 0.53802 0.44144 0.67571 0.0
H165 H 0.85891 0.77263 0.71871 0.0
H166 H 0.72658 0.65032 0.7182 0.0
H167 H 0.66346 0.48388 0.67205 0.0
H168 H 0.26562 0.2503 0.65299 0.0
H169 H 0.39673 0.37397 0.65347 0.0
H170 H 0.45999 0.5394 0.69968 0.0
C171 C 0.76162 0.66974 0.70587 0.0
C172 C 0.61948 0.49656 0.67808 0.0
C173 C 0.83736 0.73918 0.70617 0.0
C174 C 0.28701 0.2834 0.66555 0.0
C175 C 0.36205 0.35372 0.66583 0.0
C176 C 0.50403 0.52686 0.69362 0.0
C177 C 0.72932 0.629 0.68952 0.0
C178 C 0.64377 0.5672 0.68824 0.0
C179 C 0.39434 0.39419 0.6822 0.0
C180 C 0.47978 0.45626 0.68345 0.0
H181 H 0.88506 0.74453 0.66157 0.0
H182 H 0.7528 0.62362 0.66106 0.0
H183 H 0.60293 0.63719 0.70351 0.0
H184 H 0.24023 0.27583 0.71027 0.0
H185 H 0.37138 0.39833 0.71074 0.0
C186 C 0.85086 0.08227 0.67334 0.0
C187 C 0.88033 0.06797 0.68944 0.0
C188 C 0.77658 0.07832 0.6731 0.0
C189 C 0.58692 0.96623 0.69602 0.0
H190 H 0.5255 0.09804 0.66775 0.0
C191 C 0.27653 0.94023 0.69801 0.0
C192 C 0.24685 0.95454 0.68194 0.0
C193 C 0.35155 0.94586 0.69827 0.0
C194 C 0.5419 0.06005 0.67543 0.0
H195 H 0.85991 0.04684 0.71824 0.0
H196 H 0.72961 0.04015 0.7178 0.0
H197 H 0.66777 0.14056 0.67118 0.0
H198 H 0.26791 0.97788 0.6532 0.0
H199 H 0.39948 -0.01279 0.65368 0.0
H200 H 0.46113 0.88557 0.70023 0.0
C201 C 0.76354 0.05297 0.70536 0.0
C202 C 0.62303 0.08484 0.67755 0.0
C203 C 0.8381 0.05724 0.70562 0.0
C204 C 0.28985 0.96725 0.6658 0.0
C205 C 0.36515 0.97315 0.66608 0.0
C206 C 0.50582 0.9414 0.69389 0.0
C207 C 0.73089 0.05996 0.68895 0.0
C208 C 0.64603 0.03812 0.68788 0.0
C209 C 0.39778 0.96587 0.68246 0.0
C210 C 0.48278 -0.01189 0.68357 0.0
H211 H 0.88287 0.09176 0.66071 0.0
H212 H 0.75253 0.08389 0.66028 0.0
H213 H 0.60331 0.92821 0.7037 0.0
H214 H 0.24403 0.9294 0.71061 0.0
H215 H 0.37555 0.94009 0.71107 0.0
C216 C 0.71933 0.83649 0.99878 0.0
C217 C 0.74805 0.88298 0.01458 0.0
C218 C 0.6499 0.7607 0.99939 0.0
C219 C 0.54967 0.59989 0.03199 0.0
H220 H 0.3848 0.49853 0.99524 0.0
C221 C 0.25808 0.29343 0.03905 0.0
C222 C 0.22798 0.24659 0.02334 0.0
C223 C 0.32928 0.36771 0.03834 0.0
C224 C 0.43142 0.52593 1.00543 0.0
H225 H 0.72257 0.8925 0.04275 0.0
H226 H 0.6004 0.76043 0.04368 0.0
H227 H 0.48408 0.64242 0.99283 0.0
H228 H 0.25256 0.2344 0.99526 0.0
H229 H 0.37763 0.36392 0.99412 0.0
H230 H 0.49675 0.48342 0.04464 0.0
C231 C 0.63277 0.78141 0.03104 0.0
C232 C 0.48748 0.60809 1.00412 0.0
C233 C 0.70226 0.85685 0.03047 0.0
C234 C 0.27392 0.27051 1.00745 0.0
C235 C 0.34516 0.34441 1.00677 0.0
C236 C 0.49358 0.51771 0.03331 0.0
C237 C 0.60856 0.73128 0.01575 0.0
C238 C 0.5467 0.64563 0.01744 0.0
C239 C 0.37094 0.39523 0.02194 0.0
C240 C 0.43412 0.48027 0.02004 0.0
H241 H 0.75357 0.85567 0.98635 0.0
H242 H 0.63209 0.72291 0.98742 0.0
H243 H 0.59615 0.62738 0.04221 0.0
H244 H 0.2238 0.2759 0.05148 0.0
H245 H 0.34824 0.4061 0.05022 0.0
C246 C 0.20549 0.4216 0.36342 0.0
C247 C 0.18529 0.3749 0.34759 0.0
C248 C 0.19866 0.49079 0.36402 0.0
C249 C 0.16547 0.63344 0.33721 0.0
H250 H 0.03377 0.62179 0.3782 0.0
C251 C 0.03696 0.84251 0.341 0.0
C252 C 0.05948 0.88938 0.35683 0.0
C253 C 0.04054 0.77151 0.34031 0.0
C254 C 0.07059 0.62565 0.36674 0.0
H255 H 0.15097 0.36797 0.31944 0.0
H256 H 0.13824 0.48886 0.32055 0.0
H257 H 0.08092 0.52464 0.37562 0.0
H258 H 0.09448 0.895 0.38488 0.0
H259 H 0.10174 0.77105 0.38359 0.0
H260 H 0.15536 0.73456 0.32835 0.0
C261 C 0.15924 0.47198 0.33247 0.0
C262 C 0.09819 0.57085 0.36533 0.0
C263 C 0.16646 0.40285 0.33184 0.0
C264 C 0.0773 0.86004 0.37249 0.0
C265 C 0.08129 0.7891 0.37176 0.0
C266 C 0.13786 0.68821 0.33861 0.0
C267 C 0.17135 0.51385 0.34882 0.0
C268 C 0.14613 0.57466 0.3506 0.0
C269 C 0.06698 0.74686 0.35539 0.0
C270 C 0.09027 0.68469 0.35339 0.0
H271 H 0.22161 0.40194 0.37567 0.0
H272 H 0.21027 0.52361 0.37664 0.0
H273 H 0.20256 0.63753 0.32578 0.0
H274 H 0.02142 0.86321 0.32884 0.0
H275 H 0.02737 0.73855 0.32767 0.0
C276 C 0.17652 0.1527 0.24871 0.0
C277 C 0.11428 0.12118 0.26152 0.0
C278 C 0.15943 0.15233 0.23036 0.0
C279 C -0.00201 0.04086 0.19758 0.0
H280 H 0.12991 0.22101 0.16579 0.0
C281 C 0.92337 0.02768 0.12206 0.0
C282 C -0.01197 0.05798 0.1099 0.0
C283 C 0.93703 0.04254 0.14055 0.0
C284 C 0.09292 0.16989 0.17445 0.0
H285 H -0.01472 0.06299 0.26522 0.0
H286 H 0.95502 0.06303 0.23313 0.0
H287 H 0.15663 0.23439 0.19822 0.0
H288 H 0.11776 0.12641 0.10747 0.0
H289 H 0.14234 0.15201 0.13985 0.0
H290 H 0.93561 0.97538 0.17392 0.0
C291 C 0.01721 0.08863 0.23729 0.0
C292 C 0.10812 0.17767 0.19304 0.0
C293 C 0.03448 0.08956 0.25567 0.0
C294 C 0.06685 0.10422 0.11654 0.0
C295 C 0.08073 0.11865 0.13509 0.0
C296 C -0.0169 0.03289 0.17903 0.0
C297 C 0.07947 0.11933 0.22441 0.0
C298 C 0.06103 0.11307 0.2048 0.0
C299 C 0.01596 0.08706 0.14735 0.0
C300 C 0.03054 0.09714 0.16719 0.0
H301 H 0.23843 0.17677 0.25293 0.0
H302 H 0.20863 0.17542 0.22078 0.0
H303 H 0.96154 -0.01054 0.20624 0.0
H304 H 0.86209 -0.00812 0.1172 0.0
H305 H 0.88563 0.0185 0.14952 0.0
C306 C 0.09065 0.05755 0.44995 0.0
C307 C 0.12392 0.13673 0.44318 0.0
C308 C 0.09206 0.0443 0.4685 0.0
C309 C 0.10691 0.14457 0.51226 0.0
H310 H 0.13369 0.97046 0.53169 0.0
C311 C 0.11192 0.09548 0.58898 0.0
C312 C 0.06413 0.0152 0.59494 0.0
C313 C 0.12834 0.1123 0.57059 0.0
C314 C 0.1258 0.01913 0.52645 0.0
H315 H 0.18592 0.26394 0.45026 0.0
H316 H 0.19028 0.24145 0.48258 0.0
H317 H 0.14613 -0.004 0.49921 0.0
H318 H -0.00362 0.88975 0.58652 0.0
H319 H 0.02475 0.91875 0.55436 0.0
H320 H 0.08597 0.16732 0.53944 0.0
C321 C 0.16185 0.18932 0.4737 0.0
C322 C 0.13274 0.03366 0.50783 0.0
C323 C 0.1599 0.20237 0.45521 0.0
C324 C 0.03392 0.95205 0.58222 0.0
C325 C 0.05063 0.9687 0.56386 0.0
C326 C 0.10035 0.13028 0.53085 0.0
C327 C 0.12671 0.11007 0.48064 0.0
C328 C 0.12282 0.09625 0.5005 0.0
C329 C 0.09714 0.04911 0.5578 0.0
C330 C 0.10909 0.06703 0.53815 0.0
H331 H 0.06067 0.00589 0.441 0.0
H332 H 0.06327 -0.01756 0.47338 0.0
H333 H 0.09729 0.19224 0.50709 0.0
H334 H 0.13412 0.14541 0.59844 0.0
H335 H 0.16463 0.17487 0.56635 0.0
C336 C 0.01262 0.04877 0.78246 0.0
C337 C 0.06114 0.01732 0.7766 0.0
C338 C -0.00449 0.04876 0.80082 0.0
C339 C -0.00347 0.95766 0.84493 0.0
H340 H 0.02353 0.15879 0.8644 0.0
C341 C 0.02666 0.02863 0.92155 0.0
C342 C -0.00687 0.07416 0.92825 0.0
C343 C 0.02651 0.01475 0.90298 0.0
C344 C 0.0143 0.1016 0.85919 0.0
H345 H 0.12951 0.96109 0.78518 0.0
H346 H 0.09982 0.9609 0.81729 0.0
H347 H 0.03657 0.14618 0.83208 0.0
H348 H 0.93199 0.13953 0.92103 0.0
H349 H 0.9297 0.11393 0.88867 0.0
H350 H -0.02528 0.91324 0.8721 0.0
C351 C 0.07398 -0.01548 0.80772 0.0
C352 C 0.02188 0.09446 0.84063 0.0
C353 C 0.09142 -0.01496 0.7894 0.0
C354 C 0.95819 0.10426 0.91613 0.0
C355 C 0.95744 0.08999 0.89762 0.0
C356 C -0.01148 0.96463 0.86353 0.0
C357 C 0.02667 0.01734 0.81368 0.0
C358 C 0.01372 0.02268 0.83329 0.0
C359 C -0.00718 0.04623 0.89076 0.0
C360 C -0.00213 0.03695 0.87091 0.0
H361 H -0.0097 0.07594 0.77293 0.0
H362 H 0.95865 0.07423 0.80497 0.0
H363 H -0.01091 0.90124 0.83965 0.0
H364 H 0.05586 0.00664 0.93058 0.0
H365 H 0.05548 0.98196 0.89817 0.0
loop_
_geom_bond_atom_site_label_1
_geom_bond_atom_site_label_2
_geom_bond_distance
_geom_bond_site_symmetry_2
_ccdc_geom_bond_type
Zn0 O1 2.055 1_545 S
Zn0 O8 2.046 . S
Zn0 N16 2.036 . S
Zn0 O28 2.053 1_455 S
Zn0 O30 2.066 1_455 S
O1 Zn0 2.055 1_565 S
O1 C4 1.259 1_556 S
C2 O30 1.256 1_564 S
C2 O31 1.244 . S
Zn3 O5 2.046 1_545 S
Zn3 O7 2.055 . S
Zn3 N9 2.036 . S
Zn3 O27 2.066 1_455 S
Zn3 O31 2.053 1_445 S
C4 O1 1.259 1_554 S
C4 O5 1.254 . S
O5 Zn3 2.046 1_565 S
O5 C4 1.254 . S
C6 O27 1.256 . S
C6 O28 1.244 1_554 S
O7 Zn3 2.055 . S
O7 C29 1.259 . S
O8 Zn0 2.046 . S
O8 C29 1.254 1_556 S
N9 Zn3 2.036 . S
N9 C10 1.298 . S
N9 N12 1.398 1_455 S
C10 N9 1.298 . S
C10 N13 1.369 . S
C10 C23 1.481 . S
C11 N12 1.299 . S
C11 N13 1.378 1_655 S
N12 N9 1.398 1_655 S
N12 C11 1.299 . S
N13 C10 1.369 . S
N13 C11 1.378 1_455 S
C14 N16 1.298 1_655 S
C14 N18 1.367 . S
C14 C22 1.481 1_545 S
C15 N17 1.299 1_655 S
C15 N18 1.379 . S
N16 Zn0 2.036 . S
N16 C14 1.298 1_455 S
N16 N17 1.398 . S
N17 C15 1.299 1_455 S
N17 N16 1.398 . S
N18 C14 1.367 . S
N18 C15 1.379 . S
H19 C22 0.980 1_455 S
H20 C22 0.981 1_455 S
H21 C22 0.981 . S
C22 C14 1.481 1_565 S
C22 H19 0.980 1_655 S
C22 H20 0.981 1_655 S
C22 H21 0.981 . S
C23 C10 1.481 . S
C23 H24 0.980 . S
C23 H25 0.981 . S
C23 H26 0.981 . S
H24 C23 0.980 . S
H25 C23 0.981 . S
H26 C23 0.981 . S
O27 Zn3 2.066 1_655 S
O27 C6 1.256 . S
O28 Zn0 2.053 1_655 S
O28 C6 1.244 1_556 S
C29 O7 1.259 . S
C29 O8 1.254 1_554 S
O30 Zn0 2.066 1_655 S
O30 C2 1.256 1_546 S
O31 C2 1.244 . S
O31 Zn3 2.053 1_665 S
Zn32 O33 2.055 . S
Zn32 O40 2.046 . S
Zn32 N48 2.036 . S
Zn32 O60 2.053 . S
Zn32 O62 2.066 . S
O33 Zn32 2.055 . S
O33 C36 1.262 . S
C34 O62 1.256 . S
C34 O63 1.244 . S
Zn35 O37 2.046 . S
Zn35 O39 2.055 . S
Zn35 N41 2.036 . S
Zn35 O59 2.066 . S
Zn35 O63 2.053 . S
C36 O33 1.262 . S
C36 O37 1.257 . S
O37 Zn35 2.046 . S
O37 C36 1.257 . S
C38 O59 1.256 . S
C38 O60 1.244 . S
O39 Zn35 2.055 . S
O39 C61 1.262 . S
O40 Zn32 2.046 . S
O40 C61 1.257 . S
N41 Zn35 2.036 . S
N41 C42 1.298 . S
N41 N44 1.398 . S
C42 N41 1.298 . S
C42 N45 1.367 . S
C42 C55 1.481 . S
C43 N44 1.299 . S
C43 N45 1.379 . S
N44 N41 1.398 . S
N44 C43 1.299 . S
N45 C42 1.367 . S
N45 C43 1.379 . S
C46 N48 1.298 . S
C46 N50 1.367 . S
C46 C54 1.481 . S
C47 N49 1.299 . S
C47 N50 1.379 . S
N48 Zn32 2.036 . S
N48 C46 1.298 . S
N48 N49 1.398 . S
N49 C47 1.299 . S
N49 N48 1.398 . S
N50 C46 1.367 . S
N50 C47 1.379 . S
H51 C54 0.980 . S
H52 C54 0.981 . S
H53 C54 0.981 . S
C54 C46 1.481 . S
C54 H51 0.980 . S
C54 H52 0.981 . S
C54 H53 0.981 . S
C55 C42 1.481 . S
C55 H56 0.980 . S
C55 H57 0.981 . S
C55 H58 0.981 . S
H56 C55 0.980 . S
H57 C55 0.981 . S
H58 C55 0.981 . S
O59 Zn35 2.066 . S
O59 C38 1.256 . S
O60 Zn32 2.053 . S
O60 C38 1.244 . S
C61 O39 1.262 . S
C61 O40 1.257 . S
O62 Zn32 2.066 . S
O62 C34 1.256 . S
O63 C34 1.244 . S
O63 Zn35 2.053 . S
Zn64 O65 2.055 1_455 S
Zn64 O72 2.046 . S
Zn64 N80 2.036 . S
Zn64 O92 2.053 1_545 S
Zn64 O94 2.066 1_545 S
O65 Zn64 2.055 1_655 S
O65 C68 1.259 . S
C66 O94 1.256 1_655 S
C66 O95 1.244 . S
Zn67 O69 2.046 1_455 S
Zn67 O71 2.055 . S
Zn67 N73 2.036 . S
Zn67 O91 2.066 1_545 S
Zn67 O95 2.053 1_445 S
C68 O65 1.259 . S
C68 O69 1.254 . S
O69 Zn67 2.046 1_655 S
O69 C68 1.254 . S
C70 O91 1.256 . S
C70 O92 1.244 . S
O71 Zn67 2.055 . S
O71 C93 1.259 . S
O72 Zn64 2.046 . S
O72 C93 1.254 . S
N73 Zn67 2.036 . S
N73 C74 1.298 . S
N73 N76 1.398 1_545 S
C74 N73 1.298 . S
C74 N77 1.369 . S
C74 C87 1.481 . S
C75 N76 1.299 . S
C75 N77 1.378 1_565 S
N76 N73 1.398 1_565 S
N76 C75 1.299 . S
N77 C74 1.369 . S
N77 C75 1.378 1_545 S
C78 N80 1.298 1_565 S
C78 N82 1.367 . S
C78 C86 1.481 1_455 S
C79 N81 1.299 1_565 S
C79 N82 1.379 . S
N80 Zn64 2.036 . S
N80 C78 1.298 1_545 S
N80 N81 1.398 . S
N81 C79 1.299 1_545 S
N81 N80 1.398 . S
N82 C78 1.367 . S
N82 C79 1.379 . S
H83 C86 0.980 1_545 S
H84 C86 0.981 1_545 S
H85 C86 0.981 . S
C86 C78 1.481 1_655 S
C86 H83 0.980 1_565 S
C86 H84 0.981 1_565 S
C86 H85 0.981 . S
C87 C74 1.481 . S
C87 H88 0.980 . S
C87 H89 0.981 . S
C87 H90 0.981 . S
H88 C87 0.980 . S
H89 C87 0.981 . S
H90 C87 0.981 . S
O91 Zn67 2.066 1_565 S
O91 C70 1.256 . S
O92 Zn64 2.053 1_565 S
O92 C70 1.244 . S
C93 O71 1.259 . S
C93 O72 1.254 . S
O94 Zn64 2.066 1_565 S
O94 C66 1.256 1_455 S
O95 C66 1.244 . S
O95 Zn67 2.053 1_665 S
C96 C97 1.349 1_455 S
C96 C98 1.327 . S
C96 H121 0.950 . S
C97 C96 1.349 1_655 S
C97 C113 1.349 1_554 S
C98 C96 1.327 . S
C98 C117 1.422 1_455 S
C98 H122 0.950 . S
C99 C116 1.574 . S
C99 C118 1.368 1_656 S
C99 H123 0.949 . S
H100 C104 0.949 . S
C101 C102 1.349 1_556 S
C101 C103 1.327 1_455 S
C101 H124 0.950 1_455 S
C102 C101 1.349 1_554 S
C102 C114 1.349 . S
C103 C101 1.327 1_655 S
C103 C119 1.429 1_656 S
C103 H125 0.950 . S
C104 H100 0.949 . S
C104 C112 1.574 . S
C104 C120 1.368 . S
H105 C113 0.950 . S
H106 C111 0.950 . S
H107 C112 0.949 . S
H108 C114 0.950 . S
H109 C115 0.950 . S
H110 C116 0.949 . S
C111 H106 0.950 . S
C111 C113 1.327 . S
C111 C117 1.431 1_556 S
C112 C104 1.574 . S
C112 H107 0.949 . S
C112 C118 1.368 . S
C113 C97 1.349 1_556 S
C113 H105 0.950 . S
C113 C111 1.327 . S
C114 C102 1.349 . S
C114 H108 0.950 . S
C114 C115 1.327 . S
C115 H109 0.950 . S
C115 C114 1.327 . S
C115 C119 1.429 . S
C116 C99 1.574 . S
C116 H110 0.949 . S
C116 C120 1.368 1_656 S
C117 C98 1.422 1_655 S
C117 C111 1.431 1_554 S
C117 C118 1.527 1_655 S
C118 C99 1.368 1_454 S
C118 C112 1.368 . S
C118 C117 1.527 1_455 S
C119 C103 1.429 1_454 S
C119 C115 1.429 . S
C119 C120 1.523 . S
C120 C104 1.368 . S
C120 C116 1.368 1_454 S
C120 C119 1.523 . S
H121 C96 0.950 . S
H122 C98 0.950 . S
H123 C99 0.949 . S
H124 C101 0.950 1_655 S
H125 C103 0.950 . S
C126 C127 1.349 . S
C126 C128 1.327 . S
C126 H151 0.950 . S
C127 C126 1.349 . S
C127 C143 1.349 . S
C128 C126 1.327 . S
C128 C147 1.429 . S
C128 H152 0.950 . S
C129 C146 1.574 . S
C129 C148 1.368 . S
C129 H153 0.949 . S
H130 C134 0.949 . S
C131 C132 1.349 . S
C131 C133 1.327 . S
C131 H154 0.950 . S
C132 C131 1.349 . S
C132 C144 1.349 . S
C133 C131 1.327 . S
C133 C149 1.429 . S
C133 H155 0.950 . S
C134 H130 0.949 . S
C134 C142 1.574 . S
C134 C150 1.368 . S
H135 C143 0.950 . S
H136 C141 0.950 . S
H137 C142 0.949 . S
H138 C144 0.950 . S
H139 C145 0.950 . S
H140 C146 0.949 . S
C141 H136 0.950 . S
C141 C143 1.327 . S
C141 C147 1.429 . S
C142 C134 1.574 . S
C142 H137 0.949 . S
C142 C148 1.368 . S
C143 C127 1.349 . S
C143 H135 0.950 . S
C143 C141 1.327 . S
C144 C132 1.349 . S
C144 H138 0.950 . S
C144 C145 1.327 . S
C145 H139 0.950 . S
C145 C144 1.327 . S
C145 C149 1.429 . S
C146 C129 1.574 . S
C146 H140 0.949 . S
C146 C150 1.368 . S
C147 C128 1.429 . S
C147 C141 1.429 . S
C147 C148 1.523 . S
C148 C129 1.368 . S
C148 C142 1.368 . S
C148 C147 1.523 . S
C149 C133 1.429 . S
C149 C145 1.429 . S
C149 C150 1.523 . S
C150 C134 1.368 . S
C150 C146 1.368 . S
C150 C149 1.523 . S
H151 C126 0.950 . S
H152 C128 0.950 . S
H153 C129 0.949 . S
H154 C131 0.950 . S
H155 C133 0.950 . S
C156 C157 1.349 . S
C156 C158 1.327 . S
C156 H181 0.950 . S
C157 C156 1.349 . S
C157 C173 1.349 . S
C158 C156 1.327 . S
C158 C177 1.429 . S
C158 H182 0.950 . S
C159 C176 1.574 . S
C159 C178 1.368 . S
C159 H183 0.949 . S
H160 C164 0.949 . S
C161 C162 1.349 . S
C161 C163 1.327 . S
C161 H184 0.950 . S
C162 C161 1.349 . S
C162 C174 1.349 . S
C163 C161 1.327 . S
C163 C179 1.429 . S
C163 H185 0.950 . S
C164 H160 0.949 . S
C164 C172 1.574 . S
C164 C180 1.368 . S
H165 C173 0.950 . S
H166 C171 0.950 . S
H167 C172 0.949 . S
H168 C174 0.950 . S
H169 C175 0.950 . S
H170 C176 0.949 . S
C171 H166 0.950 . S
C171 C173 1.327 . S
C171 C177 1.429 . S
C172 C164 1.574 . S
C172 H167 0.949 . S
C172 C178 1.368 . S
C173 C157 1.349 . S
C173 H165 0.950 . S
C173 C171 1.327 . S
C174 C162 1.349 . S
C174 H168 0.950 . S
C174 C175 1.327 . S
C175 H169 0.950 . S
C175 C174 1.327 . S
C175 C179 1.429 . S
C176 C159 1.574 . S
C176 H170 0.949 . S
C176 C180 1.368 . S
C177 C158 1.429 . S
C177 C171 1.429 . S
C177 C178 1.523 . S
C178 C159 1.368 . S
C178 C172 1.368 . S
C178 C177 1.523 . S
C179 C163 1.429 . S
C179 C175 1.429 . S
C179 C180 1.523 . S
C180 C164 1.368 . S
C180 C176 1.368 . S
C180 C179 1.523 . S
H181 C156 0.950 . S
H182 C158 0.950 . S
H183 C159 0.949 . S
H184 C161 0.950 . S
H185 C163 0.950 . S
C186 C187 1.349 . S
C186 C188 1.327 . S
C186 H211 0.950 . S
C187 C186 1.349 . S
C187 C203 1.349 . S
C188 C186 1.327 . S
C188 C207 1.429 . S
C188 H212 0.950 1_545 S
C189 C206 1.574 . S
C189 C208 1.368 . S
C189 H213 0.949 . S
H190 C194 0.949 . S
C191 C192 1.349 1_545 S
C191 C193 1.327 . S
C191 H214 0.950 . S
C192 C191 1.349 1_565 S
C192 C204 1.349 . S
C193 C191 1.327 . S
C193 C209 1.424 1_545 S
C193 H215 0.950 . S
C194 H190 0.949 . S
C194 C202 1.574 . S
C194 C210 1.368 1_565 S
H195 C203 0.950 . S
H196 C201 0.950 . S
H197 C202 0.949 . S
H198 C204 0.950 . S
H199 C205 0.950 . S
H200 C206 0.949 . S
C201 H196 0.950 . S
C201 C203 1.327 . S
C201 C207 1.429 . S
C202 C194 1.574 . S
C202 H197 0.949 . S
C202 C208 1.368 1_565 S
C203 C187 1.349 . S
C203 H195 0.950 . S
C203 C201 1.327 . S
C204 C192 1.349 . S
C204 H198 0.950 . S
C204 C205 1.327 . S
C205 H199 0.950 . S
C205 C204 1.327 . S
C205 C209 1.429 . S
C206 C189 1.574 . S
C206 H200 0.949 . S
C206 C210 1.368 . S
C207 C188 1.429 . S
C207 C201 1.429 . S
C207 C208 1.523 . S
C208 C189 1.368 . S
C208 C202 1.368 1_545 S
C208 C207 1.523 . S
C209 C193 1.424 1_565 S
C209 C205 1.429 . S
C209 C210 1.527 1_565 S
C210 C194 1.368 1_545 S
C210 C206 1.368 . S
C210 C209 1.527 1_545 S
H211 C186 0.950 . S
H212 C188 0.950 1_565 S
H213 C189 0.949 . S
H214 C191 0.950 . S
H215 C193 0.950 . S
C216 C217 1.349 1_556 S
C216 C218 1.327 . S
C216 H241 0.950 . S
C217 C216 1.349 1_554 S
C217 C233 1.349 . S
C218 C216 1.327 . S
C218 C237 1.429 1_556 S
C218 H242 0.950 . S
C219 C236 1.574 . S
C219 C238 1.368 . S
C219 H243 0.949 . S
H220 C224 0.949 . S
C221 C222 1.349 . S
C221 C223 1.327 . S
C221 H244 0.950 . S
C222 C221 1.349 . S
C222 C234 1.349 1_554 S
C223 C221 1.327 . S
C223 C239 1.429 . S
C223 H245 0.950 . S
C224 H220 0.949 . S
C224 C232 1.574 . S
C224 C240 1.368 1_556 S
H225 C233 0.950 . S
H226 C231 0.950 . S
H227 C232 0.949 . S
H228 C234 0.950 . S
H229 C235 0.950 . S
H230 C236 0.949 . S
C231 H226 0.950 . S
C231 C233 1.327 . S
C231 C237 1.429 . S
C232 C224 1.574 . S
C232 H227 0.949 . S
C232 C238 1.368 1_556 S
C233 C217 1.349 . S
C233 H225 0.950 . S
C233 C231 1.327 . S
C234 C222 1.349 1_556 S
C234 H228 0.950 . S
C234 C235 1.327 . S
C235 H229 0.950 . S
C235 C234 1.327 . S
C235 C239 1.429 1_556 S
C236 C219 1.574 . S
C236 H230 0.949 . S
C236 C240 1.368 . S
C237 C218 1.429 1_554 S
C237 C231 1.429 . S
C237 C238 1.523 . S
C238 C219 1.368 . S
C238 C232 1.368 1_554 S
C238 C237 1.523 . S
C239 C223 1.429 . S
C239 C235 1.429 1_554 S
C239 C240 1.523 . S
C240 C224 1.368 1_554 S
C240 C236 1.368 . S
C240 C239 1.523 . S
H241 C216 0.950 . S
H242 C218 0.950 . S
H243 C219 0.949 . S
H244 C221 0.950 . S
H245 C223 0.950 . S
C246 C247 1.349 . S
C246 C248 1.327 . S
C246 H271 0.950 . S
C247 C246 1.349 . S
C247 C263 1.349 . S
C248 C246 1.327 . S
C248 C267 1.429 . S
C248 H272 0.950 . S
C249 C266 1.574 . S
C249 C268 1.368 . S
C249 H273 0.949 . S
H250 C254 0.949 . S
C251 C252 1.349 . S
C251 C253 1.327 . S
C251 H274 0.950 . S
C252 C251 1.349 . S
C252 C264 1.349 . S
C253 C251 1.327 . S
C253 C269 1.429 . S
C253 H275 0.950 . S
C254 H250 0.949 . S
C254 C262 1.574 . S
C254 C270 1.368 . S
H255 C263 0.950 . S
H256 C261 0.950 . S
H257 C262 0.949 . S
H258 C264 0.950 . S
H259 C265 0.950 . S
H260 C266 0.949 . S
C261 H256 0.950 . S
C261 C263 1.327 . S
C261 C267 1.429 . S
C262 C254 1.574 . S
C262 H257 0.949 . S
C262 C268 1.368 . S
C263 C247 1.349 . S
C263 H255 0.950 . S
C263 C261 1.327 . S
C264 C252 1.349 . S
C264 H258 0.950 . S
C264 C265 1.327 . S
C265 H259 0.950 . S
C265 C264 1.327 . S
C265 C269 1.429 . S
C266 C249 1.574 . S
C266 H260 0.949 . S
C266 C270 1.368 . S
C267 C248 1.429 . S
C267 C261 1.429 . S
C267 C268 1.523 . S
C268 C249 1.368 . S
C268 C262 1.368 . S
C268 C267 1.523 . S
C269 C253 1.429 . S
C269 C265 1.429 . S
C269 C270 1.523 . S
C270 C254 1.368 . S
C270 C266 1.368 . S
C270 C269 1.523 . S
H271 C246 0.950 . S
H272 C248 0.950 . S
H273 C249 0.949 . S
H274 C251 0.950 . S
H275 C253 0.950 . S
C276 C277 1.349 . S
C276 C278 1.327 . S
C276 H301 0.950 . S
C277 C276 1.349 . S
C277 C293 1.349 . S
C278 C276 1.327 . S
C278 C297 1.429 . S
C278 H302 0.950 . S
C279 C296 1.574 . S
C279 C298 1.368 . S
C279 H303 0.949 1_455 S
H280 C284 0.949 . S
C281 C282 1.349 1_655 S
C281 C283 1.327 . S
C281 H304 0.950 . S
C282 C281 1.349 1_455 S
C282 C294 1.349 . S
C283 C281 1.327 . S
C283 C299 1.429 1_655 S
C283 H305 0.950 . S
C284 H280 0.949 . S
C284 C292 1.574 . S
C284 C300 1.368 . S
H285 C293 0.950 . S
H286 C291 0.950 . S
H287 C292 0.949 . S
H288 C294 0.950 . S
H289 C295 0.950 . S
H290 C296 0.949 1_655 S
C291 H286 0.950 . S
C291 C293 1.327 . S
C291 C297 1.429 . S
C292 C284 1.574 . S
C292 H287 0.949 . S
C292 C298 1.368 . S
C293 C277 1.349 . S
C293 H285 0.950 . S
C293 C291 1.327 . S
C294 C282 1.349 . S
C294 H288 0.950 . S
C294 C295 1.327 . S
C295 H289 0.950 . S
C295 C294 1.327 . S
C295 C299 1.429 . S
C296 C279 1.574 . S
C296 H290 0.949 1_455 S
C296 C300 1.368 . S
C297 C278 1.429 . S
C297 C291 1.429 . S
C297 C298 1.523 . S
C298 C279 1.368 . S
C298 C292 1.368 . S
C298 C297 1.523 . S
C299 C283 1.429 1_455 S
C299 C295 1.429 . S
C299 C300 1.523 . S
C300 C284 1.368 . S
C300 C296 1.368 . S
C300 C299 1.523 . S
H301 C276 0.950 . S
H302 C278 0.950 . S
H303 C279 0.949 1_655 S
H304 C281 0.950 . S
H305 C283 0.950 . S
C306 C307 1.349 . S
C306 C308 1.327 . S
C306 H331 0.950 . S
C307 C306 1.349 . S
C307 C323 1.349 . S
C308 C306 1.327 . S
C308 C327 1.429 . S
C308 H332 0.950 . S
C309 C326 1.574 . S
C309 C328 1.368 . S
C309 H333 0.949 . S
H310 C314 0.949 1_565 S
C311 C312 1.349 . S
C311 C313 1.327 . S
C311 H334 0.950 . S
C312 C311 1.349 . S
C312 C324 1.349 1_545 S
C313 C311 1.327 . S
C313 C329 1.429 . S
C313 H335 0.950 . S
C314 H310 0.949 1_545 S
C314 C322 1.574 . S
C314 C330 1.368 . S
H315 C323 0.950 . S
H316 C321 0.950 . S
H317 C322 0.949 1_565 S
H318 C324 0.950 . S
H319 C325 0.950 . S
H320 C326 0.949 . S
C321 H316 0.950 . S
C321 C323 1.327 . S
C321 C327 1.429 . S
C322 C314 1.574 . S
C322 H317 0.949 1_545 S
C322 C328 1.368 . S
C323 C307 1.349 . S
C323 H315 0.950 . S
C323 C321 1.327 . S
C324 C312 1.349 1_565 S
C324 H318 0.950 . S
C324 C325 1.327 . S
C325 H319 0.950 . S
C325 C324 1.327 . S
C325 C329 1.429 1_565 S
C326 C309 1.574 . S
C326 H320 0.949 . S
C326 C330 1.368 . S
C327 C308 1.429 . S
C327 C321 1.429 . S
C327 C328 1.523 . S
C328 C309 1.368 . S
C328 C322 1.368 . S
C328 C327 1.523 . S
C329 C313 1.429 . S
C329 C325 1.429 1_545 S
C329 C330 1.523 . S
C330 C314 1.368 . S
C330 C326 1.368 . S
C330 C329 1.523 . S
H331 C306 0.950 . S
H332 C308 0.950 . S
H333 C309 0.949 . S
H334 C311 0.950 . S
H335 C313 0.950 . S
C336 C337 1.349 1_545 S
C336 C338 1.327 . S
C336 H361 0.950 . S
C337 C336 1.349 1_565 S
C337 C353 1.349 . S
C338 C336 1.327 . S
C338 C357 1.429 1_545 S
C338 H362 0.950 . S
C339 C356 1.574 . S
C339 C358 1.368 . S
C339 H363 0.949 . S
H340 C344 0.949 . S
C341 C342 1.349 1_565 S
C341 C343 1.327 . S
C341 H364 0.950 . S
C342 C341 1.349 1_545 S
C342 C354 1.349 . S
C343 C341 1.327 . S
C343 C359 1.429 1_565 S
C343 H365 0.959 . S
C344 H340 0.949 . S
C344 C352 1.574 . S
C344 C360 1.368 . S
H345 C353 0.950 . S
H346 C351 0.950 . S
H347 C352 0.949 . S
H348 C354 0.950 . S
H349 C355 0.950 . S
H350 C356 0.949 . S
C351 H346 0.950 . S
C351 C353 1.327 . S
C351 C357 1.429 . S
C352 C344 1.574 . S
C352 H347 0.949 . S
C352 C358 1.368 1_645 S
C353 C337 1.349 . S
C353 H345 0.950 . S
C353 C351 1.327 . S
C354 C342 1.349 . S
C354 H348 0.950 . S
C354 C355 1.327 . S
C355 H349 0.950 . S
C355 C354 1.327 . S
C355 C359 1.429 . S
C356 C339 1.574 . S
C356 H350 0.949 . S
C356 C360 1.368 1_465 S
C357 C338 1.429 1_565 S
C357 C351 1.429 . S
C357 C358 1.523 . S
C358 C339 1.368 . S
C358 C352 1.368 1_465 S
C358 C357 1.523 . S
C359 C343 1.429 1_545 S
C359 C355 1.429 . S
C359 C360 1.523 . S
C360 C344 1.368 . S
C360 C356 1.368 1_645 S
C360 C359 1.523 . S
H361 C336 0.950 . S
H362 C338 0.950 . S
H363 C339 0.949 . S
H364 C341 0.950 . S
H365 C343 0.959 . S
C97 C6 1.099 . S
C102 C4 1.103 . S
C127 C38 1.099 . S
C132 C36 1.097 1_655 S
C157 C66 1.099 . S
C162 C93 1.103 . S
C187 C68 1.103 . S
C192 C70 1.099 . S
C217 C2 1.099 . S
C222 C29 1.103 . S
C247 C34 1.099 . S
C252 C61 1.097 1_565 S
C277 N50 1.570 . S
C282 N13 1.570 . S
C307 N45 1.570 . S
C312 N77 1.570 . S
C337 N82 1.570 . S
C342 N18 1.570 . S
