# Generated by pormake.
# Topology mon, (4)-cn, num edge types: 1
# Building blocks:
#     Node 0, Type 0, BuildingBlock: UXUYUI_clean_sbu_0, # of connection points: 4
#     Node 1, Type 0, BuildingBlock: UXUYUI_clean_sbu_0, # of connection points: 4
#     Node 2, Type 0, BuildingBlock: UXUYUI_clean_sbu_0, # of connection points: 4
#     Node 3, Type 0, BuildingBlock: UXUYUI_clean_sbu_0, # of connection points: 4
#     Node 4, Type 0, BuildingBlock: UXUYUI_clean_sbu_0, # of connection points: 4
#     Node 5, Type 0, BuildingBlock: UXUYUI_clean_sbu_0, # of connection points: 4
#     Node 6, Type 0, BuildingBlock: UXUYUI_clean_sbu_0, # of connection points: 4
#     Node 7, Type 0, BuildingBlock: UXUYUI_clean_sbu_0, # of connection points: 4
#     Node 8, Type 0, BuildingBlock: UXUYUI_clean_sbu_0, # of connection points: 4
#     Node 9, Type 0, BuildingBlock: UXUYUI_clean_sbu_0, # of connection points: 4
#     Node 10, Type 0, BuildingBlock: UXUYUI_clean_sbu_0, # of connection points: 4
#     Node 11, Type 0, BuildingBlock: UXUYUI_clean_sbu_0, # of connection points: 4
#     Node 12, Type 0, BuildingBlock: UXUYUI_clean_sbu_0, # of connection points: 4
#     Node 13, Type 0, BuildingBlock: UXUYUI_clean_sbu_0, # of connection points: 4
#     Node 14, Type 0, BuildingBlock: UXUYUI_clean_sbu_0, # of connection points: 4
#     Node 15, Type 0, BuildingBlock: UXUYUI_clean_sbu_0, # of connection points: 4
#     Edge 16, Type (0, 0), BuildingBlock: TEMPAE_clean_linker_10, # of connection points: 2
#     Edge 17, Type (0, 0), BuildingBlock: TEMPAE_clean_linker_10, # of connection points: 2
#     Edge 18, Type (0, 0), BuildingBlock: TEMPAE_clean_linker_10, # of connection points: 2
#     Edge 19, Type (0, 0), BuildingBlock: TEMPAE_clean_linker_10, # of connection points: 2
#     Edge 20, Type (0, 0), BuildingBlock: TEMPAE_clean_linker_10, # of connection points: 2
#     Edge 21, Type (0, 0), BuildingBlock: TEMPAE_clean_linker_10, # of connection points: 2
#     Edge 22, Type (0, 0), BuildingBlock: TEMPAE_clean_linker_10, # of connection points: 2
#     Edge 23, Type (0, 0), BuildingBlock: TEMPAE_clean_linker_10, # of connection points: 2
#     Edge 24, Type (0, 0), BuildingBlock: TEMPAE_clean_linker_10, # of connection points: 2
#     Edge 25, Type (0, 0), BuildingBlock: TEMPAE_clean_linker_10, # of connection points: 2
#     Edge 26, Type (0, 0), BuildingBlock: TEMPAE_clean_linker_10, # of connection points: 2
#     Edge 27, Type (0, 0), BuildingBlock: TEMPAE_clean_linker_10, # of connection points: 2
#     Edge 28, Type (0, 0), BuildingBlock: TEMPAE_clean_linker_10, # of connection points: 2
#     Edge 29, Type (0, 0), BuildingBlock: TEMPAE_clean_linker_10, # of connection points: 2
#     Edge 30, Type (0, 0), BuildingBlock: TEMPAE_clean_linker_10, # of connection points: 2
#     Edge 31, Type (0, 0), BuildingBlock: TEMPAE_clean_linker_10, # of connection points: 2
#     Edge 32, Type (0, 0), BuildingBlock: TEMPAE_clean_linker_10, # of connection points: 2
#     Edge 33, Type (0, 0), BuildingBlock: TEMPAE_clean_linker_10, # of connection points: 2
#     Edge 34, Type (0, 0), BuildingBlock: TEMPAE_clean_linker_10, # of connection points: 2
#     Edge 35, Type (0, 0), BuildingBlock: TEMPAE_clean_linker_10, # of connection points: 2
#     Edge 36, Type (0, 0), BuildingBlock: TEMPAE_clean_linker_10, # of connection points: 2
#     Edge 37, Type (0, 0), BuildingBlock: TEMPAE_clean_linker_10, # of connection points: 2
#     Edge 38, Type (0, 0), BuildingBlock: TEMPAE_clean_linker_10, # of connection points: 2
#     Edge 39, Type (0, 0), BuildingBlock: TEMPAE_clean_linker_10, # of connection points: 2
#     Edge 40, Type (0, 0), BuildingBlock: TEMPAE_clean_linker_10, # of connection points: 2
#     Edge 41, Type (0, 0), BuildingBlock: TEMPAE_clean_linker_10, # of connection points: 2
#     Edge 42, Type (0, 0), BuildingBlock: TEMPAE_clean_linker_10, # of connection points: 2
#     Edge 43, Type (0, 0), BuildingBlock: TEMPAE_clean_linker_10, # of connection points: 2
#     Edge 44, Type (0, 0), BuildingBlock: TEMPAE_clean_linker_10, # of connection points: 2
#     Edge 45, Type (0, 0), BuildingBlock: TEMPAE_clean_linker_10, # of connection points: 2
#     Edge 46, Type (0, 0), BuildingBlock: TEMPAE_clean_linker_10, # of connection points: 2
#     Edge 47, Type (0, 0), BuildingBlock: TEMPAE_clean_linker_10, # of connection points: 2
# Relax obj value: 0.204
# Max RMSD: 0.157
# Mean RMSD: 0.156
data_MOF--net-mon--node1-UXUYUI_clean_sbu_0--edge1-TEMPAE_clean_linker_10
_symmetry_space_group_name_H-M    P1
_symmetry_Int_Tables_number       1
_symmetry_cell_setting            triclinic
loop_
_symmetry_equiv_pos_as_xyz
'x, y, z'
_cell_length_a     50.225023
_cell_length_b     50.155319
_cell_length_c     123.98019
_cell_angle_alpha  90.003504
_cell_angle_beta   90.005586
_cell_angle_gamma 90.007803
loop_
_atom_site_label
_atom_site_type_symbol
_atom_site_fract_x
_atom_site_fract_y
_atom_site_fract_z
_atom_type_partial_charge
Li0 Li -0.00195 0.02379 0.57659 0.0
Li1 Li 0.99444 0.05566 0.59147 0.0
Li2 Li 0.01835 0.01452 0.59404 0.0
Li3 Li 0.96999 0.01611 0.59196 0.0
C4 C 0.0377 0.06364 0.57777 0.0
N5 N 0.05814 0.10471 0.56542 0.0
C6 C 0.02065 0.08003 0.57179 0.0
C7 C 0.06515 0.06818 0.57745 0.0
C8 C 0.03137 0.10068 0.56561 0.0
C9 C 0.07509 0.08902 0.57115 0.0
C10 C 0.93947 0.04635 0.58023 0.0
C11 C 0.8967 0.05795 0.58775 0.0
N12 N 0.88453 0.04776 0.57887 0.0
C13 C 0.92653 0.03634 0.5711 0.0
C14 C 0.92444 0.05757 0.58855 0.0
C15 C 0.89875 0.03711 0.57059 0.0
C16 C 0.98228 0.00027 0.5574 0.0
N17 N 0.00124 0.01669 0.56153 0.0
C18 C 0.02195 0.02055 0.54425 0.0
C19 C 0.02133 0.02624 0.55526 0.0
C20 C 0.00191 0.00461 0.53968 0.0
C21 C 0.98209 0.9941 0.54644 0.0
H22 H 0.96726 0.99196 0.56267 0.0
H23 H 0.03696 0.0382 0.55873 0.0
C24 C 0.01652 0.1017 0.60072 0.0
N25 N 0.99567 0.09237 0.59483 0.0
C26 C 0.01897 0.12891 0.60276 0.0
C27 C 0.97902 0.13641 0.59227 0.0
C28 C 0.97705 0.10902 0.59061 0.0
C29 C 0.00023 0.14652 0.59838 0.0
H30 H 0.03153 0.08804 0.60363 0.0
H31 H 0.96117 0.10112 0.58568 0.0
C32 C 0.01042 0.97124 0.58053 0.0
N33 N 0.04092 0.93165 0.57119 0.0
C34 C 0.00054 0.94528 0.57975 0.0
C35 C 0.0358 0.97711 0.57654 0.0
C36 C 0.01628 0.92553 0.575 0.0
C37 C 0.05091 0.9568 0.57185 0.0
C38 C 0.99498 0.04667 0.61267 0.0
C39 C 0.01887 0.04623 0.61846 0.0
C40 C 0.97448 0.06366 0.61599 0.0
C41 C 0.02207 0.06319 0.6273 0.0
C42 C 0.97845 0.08036 0.62486 0.0
N43 N 0.00198 0.0798 0.63028 0.0
C44 C 0.07102 0.01056 0.60151 0.0
C45 C 0.04416 0.97244 0.6047 0.0
C46 C 0.09283 -0.00175 0.60638 0.0
N47 N 0.04739 -0.00249 0.60077 0.0
C48 C 0.06549 0.95929 0.60954 0.0
C49 C 0.0902 0.97223 0.61041 0.0
H50 H 0.07282 0.03059 0.59839 0.0
H51 H 0.02503 0.96268 0.60403 0.0
C52 C 0.92705 0.98106 0.58948 0.0
N53 N 0.93809 -0.00067 0.59623 0.0
C54 C 0.90435 0.96705 0.59262 0.0
C55 C 0.90446 0.99156 0.60944 0.0
C56 C 0.92724 0.00497 0.606 0.0
C57 C 0.89302 0.97201 0.60279 0.0
H58 H 0.93621 0.97708 0.58175 0.0
H59 H 0.93661 0.01945 0.61121 0.0
O60 O 0.0277 0.04364 0.58411 0.0
O61 O 0.96667 0.04528 0.581 0.0
O62 O 0.99511 0.99074 0.58513 0.0
O63 O 0.99156 0.03028 0.60393 0.0
H64 H -0.00061 0.07685 0.57187 0.0
H65 H 0.07867 0.05572 0.582 0.0
H66 H 0.01841 0.1135 0.56096 0.0
H67 H 0.0963 0.09273 0.57083 0.0
H68 H 0.88485 0.06635 0.5942 0.0
H69 H 0.93774 0.02822 0.56445 0.0
H70 H 0.93407 0.06572 0.5956 0.0
H71 H 0.88851 0.0293 0.56359 0.0
H72 H 0.03767 0.02895 0.53933 0.0
H73 H 0.96668 0.98115 0.54329 0.0
H74 H 0.03581 0.13621 0.60736 0.0
H75 H 0.96435 0.1496 0.58872 0.0
H76 H 0.98091 0.94046 0.58278 0.0
H77 H 0.04378 -0.00291 0.57703 0.0
H78 H 0.00889 0.90533 0.57435 0.0
H79 H 0.07057 0.96105 0.56874 0.0
H80 H 0.03484 0.03302 0.61616 0.0
H81 H 0.95575 0.06417 0.61173 0.0
H82 H 0.04053 0.06314 0.6318 0.0
H83 H 0.96283 0.09376 0.62744 0.0
H84 H 0.11162 0.00879 0.60685 0.0
H85 H 0.06262 0.93934 0.61268 0.0
H86 H 0.896 0.95221 0.58725 0.0
H87 H 0.89655 0.99565 0.61739 0.0
Li88 Li 0.24213 0.72877 0.84219 0.0
Li89 Li 0.19826 0.74827 0.84003 0.0
Li90 Li 0.22983 0.7471 0.82506 0.0
Li91 Li 0.23614 0.77695 0.84048 0.0
C92 C 0.20516 0.70003 0.82472 0.0
N93 N 0.18896 0.66764 0.80794 0.0
C94 C 0.17818 0.69819 0.82206 0.0
C95 C 0.22388 0.68525 0.81891 0.0
C96 C 0.17039 0.68172 0.81354 0.0
C97 C 0.2153 0.66905 0.81042 0.0
C98 C 0.20809 0.75123 0.86098 0.0
C99 C 0.17446 0.769 0.87285 0.0
N100 N 0.17502 0.74599 0.87865 0.0
C101 C 0.20844 0.72781 0.86708 0.0
C102 C 0.19109 0.77208 0.86391 0.0
C103 C 0.19154 0.72554 0.87599 0.0
C104 C 0.27838 0.70865 0.85739 0.0
N105 N 0.26142 0.70175 0.84933 0.0
C106 C 0.27166 0.65567 0.85166 0.0
C107 C 0.25759 0.6759 0.84646 0.0
C108 C 0.2898 0.66219 0.85987 0.0
C109 C 0.29302 0.68911 0.86275 0.0
H110 H 0.28061 0.72939 0.85961 0.0
H111 H 0.24352 0.67097 0.84018 0.0
C112 C 0.14497 0.76386 0.84025 0.0
N113 N 0.16219 0.74506 0.84387 0.0
C114 C 0.11808 0.76225 0.84286 0.0
C115 C 0.12722 0.72198 0.85295 0.0
C116 C 0.15392 0.72419 0.85001 0.0
C117 C 0.10888 0.74115 0.84933 0.0
H118 H 0.15205 0.77991 0.8352 0.0
H119 H 0.16809 0.70927 0.85259 0.0
C120 C 0.28818 0.74653 0.83516 0.0
N121 N 0.33919 0.72973 0.83996 0.0
C122 C 0.30388 0.76108 0.84237 0.0
C123 C 0.29848 0.72358 0.83031 0.0
C124 C 0.32962 0.75223 0.8447 0.0
C125 C 0.32429 0.71536 0.83287 0.0
C126 C 0.20458 0.80312 0.82707 0.0
C127 C 0.2144 0.8122 0.81718 0.0
C128 C 0.19311 0.82119 0.83428 0.0
C129 C 0.2128 0.83933 0.81471 0.0
C130 C 0.19194 0.84817 0.83153 0.0
N131 N 0.20173 0.85661 0.82188 0.0
C132 C 0.21244 0.74016 0.80349 0.0
C133 C 0.25873 0.74745 0.80573 0.0
C134 C 0.21554 0.73824 0.79233 0.0
N135 N 0.23396 0.74427 0.80992 0.0
C136 C 0.26267 0.74626 0.79461 0.0
C137 C 0.24094 0.74144 0.78772 0.0
H138 H 0.19286 0.73839 0.80702 0.0
H139 H 0.27538 0.75136 0.81101 0.0
C140 C 0.24914 0.81583 0.85575 0.0
N141 N 0.24968 0.81024 0.84504 0.0
C142 C 0.26099 0.83901 0.85965 0.0
C143 C 0.27308 0.85066 0.84137 0.0
C144 C 0.2613 0.82703 0.83784 0.0
C145 C 0.2735 0.85666 0.85245 0.0
H146 H 0.24038 0.8018 0.86132 0.0
H147 H 0.26196 0.82175 0.82939 0.0
O148 O 0.2132 0.71614 0.83301 0.0
O149 O 0.22428 0.75374 0.85216 0.0
O150 O 0.26277 0.75458 0.83291 0.0
O151 O 0.20612 0.77666 0.82966 0.0
H152 H 0.16342 0.70948 0.82647 0.0
H153 H 0.24485 0.6865 0.82084 0.0
H154 H 0.14959 0.68018 0.81136 0.0
H155 H 0.22958 0.65764 0.8058 0.0
H156 H 0.16107 0.78489 0.87517 0.0
H157 H 0.22143 0.71146 0.86492 0.0
H158 H 0.19057 0.79032 0.85926 0.0
H159 H 0.1915 0.70747 0.88075 0.0
H160 H 0.26821 0.63516 0.84932 0.0
H161 H 0.30699 0.69507 0.86895 0.0
H162 H 0.10459 0.77704 0.83962 0.0
H163 H 0.12105 0.70545 0.85798 0.0
H164 H 0.2962 0.77887 0.8462 0.0
H165 H 0.28655 0.71211 0.82472 0.0
H166 H 0.34196 0.76321 0.85031 0.0
H167 H 0.33245 0.69753 0.82925 0.0
H168 H 0.2233 0.7985 0.81149 0.0
H169 H 0.18544 0.81449 0.84197 0.0
H170 H 0.22041 0.84667 0.80711 0.0
H171 H 0.18328 0.86241 0.83706 0.0
H172 H 0.1982 0.73423 0.78741 0.0
H173 H 0.2825 0.74961 0.79146 0.0
H174 H 0.26139 0.84237 0.86828 0.0
H175 H 0.28231 0.86374 0.83552 0.0
Li176 Li 0.53777 0.97579 0.09026 0.0
Li177 Li 0.4905 0.97532 0.08878 0.0
Li178 Li 0.51339 0.93403 0.08897 0.0
Li179 Li 0.51562 0.96424 0.07296 0.0
C180 C 0.52501 0.95248 0.10981 0.0
N181 N 0.55203 0.93611 0.12806 0.0
C182 C 0.51544 0.95919 0.12004 0.0
C183 C 0.54836 0.93752 0.10887 0.0
C184 C 0.52938 0.95071 0.12917 0.0
C185 C 0.56172 0.9294 0.11818 0.0
C186 C 0.51636 0.02442 0.08428 0.0
C187 C 0.52456 0.07106 0.08092 0.0
N188 N 0.51886 0.07654 0.09141 0.0
C189 C 0.51057 0.03051 0.09503 0.0
C190 C 0.5234 0.04482 0.07716 0.0
C191 C 0.51195 0.05699 0.09848 0.0
C192 C 0.59112 0.99337 0.09054 0.0
N193 N 0.56794 0.99292 0.09619 0.0
C194 C 0.58735 0.01828 0.11043 0.0
C195 C 0.56572 0.00491 0.10597 0.0
C196 C 0.61159 0.01926 0.1048 0.0
C197 C 0.61339 0.00646 0.09473 0.0
H198 H 0.59222 0.98373 0.08275 0.0
H199 H 0.54701 0.00445 0.11026 0.0
C200 C 0.44793 0.98529 0.10288 0.0
N201 N 0.45896 0.99255 0.09332 0.0
C202 C 0.42554 -0.00138 0.10676 0.0
C203 C 0.42602 0.02618 0.09074 0.0
C204 C 0.44838 0.0123 0.08717 0.0
C205 C 0.41456 0.01963 0.10073 0.0
H206 H 0.45685 0.96943 0.10756 0.0
H207 H 0.45757 0.01747 0.07956 0.0
C208 C 0.56227 0.92728 0.07635 0.0
N209 N 0.59694 0.89021 0.06769 0.0
C210 C 0.556 0.9143 0.0667 0.0
C211 C 0.58643 0.92173 0.08149 0.0
C212 C 0.57371 0.89552 0.06248 0.0
C213 C 0.60362 0.90283 0.07701 0.0
C214 C 0.45782 0.94278 0.07945 0.0
C215 C 0.44578 0.92708 0.08738 0.0
C216 C 0.442 0.95755 0.07235 0.0
C217 C 0.41803 0.92651 0.08811 0.0
C218 C 0.41432 0.95646 0.07336 0.0
N219 N 0.40301 0.9411 0.08115 0.0
C220 C 0.50481 0.89036 0.10335 0.0
C221 C 0.51632 0.87896 0.0854 0.0
C222 C 0.50356 0.8635 0.10622 0.0
N223 N 0.51173 0.89755 0.09314 0.0
C224 C 0.51523 0.85192 0.0879 0.0
C225 C 0.50888 0.84393 0.09844 0.0
H226 H 0.49981 0.90536 0.10925 0.0
H227 H 0.5204 0.88508 0.07724 0.0
C228 C 0.53842 0.98091 0.05345 0.0
N229 N 0.51794 0.96694 0.05785 0.0
C230 C 0.53987 0.98436 0.04229 0.0
C231 C 0.49923 0.95883 0.04047 0.0
C232 C 0.49873 0.95563 0.05164 0.0
C233 C 0.51987 0.97354 0.0357 0.0
H234 H 0.55338 0.98966 0.05864 0.0
H235 H 0.48291 0.94431 0.05538 0.0
O236 O 0.51176 0.9611 0.10082 0.0
O237 O 0.51524 -0.00134 0.08067 0.0
O238 O 0.54543 0.94615 0.0805 0.0
O239 O 0.48497 0.94416 0.07881 0.0
H240 H 0.49749 0.97094 0.12091 0.0
H241 H 0.55594 0.93209 0.10104 0.0
H242 H 0.52221 0.95577 0.13714 0.0
H243 H 0.57977 0.91775 0.11756 0.0
H244 H 0.52999 0.08706 0.0755 0.0
H245 H 0.50512 0.015 0.10066 0.0
H246 H 0.52795 0.0404 0.06881 0.0
H247 H 0.50754 0.06197 0.10678 0.0
H248 H 0.58485 0.02835 0.11809 0.0
H249 H 0.63174 0.00661 0.09015 0.0
H250 H 0.41748 0.99315 0.11456 0.0
H251 H 0.41795 0.04205 0.0858 0.0
H252 H 0.53746 0.91834 0.06258 0.0
H253 H 0.59198 0.93199 0.08883 0.0
H254 H 0.56897 0.88517 0.05507 0.0
H255 H 0.62232 0.89828 0.08093 0.0
H256 H 0.45773 0.91568 0.09298 0.0
H257 H 0.451 0.97012 0.06627 0.0
H258 H 0.40844 0.91454 0.09425 0.0
H259 H 0.40182 0.96794 0.06798 0.0
H260 H 0.49795 0.85809 0.11437 0.0
H261 H 0.51939 0.83742 0.08164 0.0
H262 H 0.55601 0.99595 0.03888 0.0
H263 H 0.48365 0.94993 0.03562 0.0
Li264 Li 0.2742 0.25107 0.34234 0.0
Li265 Li 0.31697 0.22898 0.34085 0.0
Li266 Li 0.28625 0.22997 0.3257 0.0
Li267 Li 0.27764 0.20257 0.34152 0.0
C268 C 0.31278 0.27447 0.32418 0.0
N269 N 0.33008 0.30064 0.30587 0.0
C270 C 0.3391 0.27163 0.32071 0.0
C271 C 0.29529 0.29072 0.31837 0.0
C272 C 0.34747 0.28503 0.31143 0.0
C273 C 0.3044 0.30373 0.30912 0.0
C274 C 0.30692 0.22988 0.36153 0.0
C275 C 0.33986 0.21293 0.37391 0.0
N276 N 0.34124 0.23731 0.37868 0.0
C277 C 0.30857 0.25474 0.36658 0.0
C278 C 0.32257 0.20875 0.36525 0.0
C279 C 0.32607 0.2581 0.37524 0.0
C280 C 0.23779 0.27372 0.35671 0.0
N281 N 0.25598 0.27963 0.34896 0.0
C282 C 0.24742 0.32619 0.35086 0.0
C283 C 0.26129 0.30521 0.34606 0.0
C284 C 0.22788 0.32058 0.35862 0.0
C285 C 0.22318 0.294 0.36159 0.0
H286 H 0.23449 0.25319 0.35901 0.0
H287 H 0.27622 0.30929 0.34 0.0
C288 C 0.37 0.21124 0.34331 0.0
N289 N 0.35301 0.23192 0.34488 0.0
C290 C 0.39691 0.21404 0.34581 0.0
C291 C 0.38813 0.25924 0.35163 0.0
C292 C 0.36143 0.25558 0.34898 0.0
C293 C 0.40631 0.2384 0.34992 0.0
H294 H 0.36277 0.19282 0.33987 0.0
H295 H 0.34739 0.27174 0.35003 0.0
C296 C 0.22741 0.23489 0.33538 0.0
N297 N 0.17705 0.2543 0.33976 0.0
C298 C 0.21031 0.2208 0.34222 0.0
C299 C 0.21881 0.25878 0.33073 0.0
C300 C 0.18494 0.23095 0.34433 0.0
C301 C 0.19332 0.2683 0.33306 0.0
C302 C 0.30788 0.17281 0.32922 0.0
C303 C 0.29747 0.16264 0.31961 0.0
C304 C 0.31783 0.15533 0.33702 0.0
C305 C 0.29706 0.13508 0.31798 0.0
C306 C 0.317 0.1279 0.33511 0.0
N307 N 0.30673 0.11842 0.32571 0.0
C308 C 0.30547 0.22735 0.30434 0.0
C309 C 0.25937 0.23672 0.30595 0.0
C310 C 0.30378 0.22848 0.29311 0.0
N311 N 0.28345 0.23159 0.31048 0.0
C312 C 0.25677 0.2381 0.29478 0.0
C313 C 0.27916 0.23396 0.28821 0.0
H314 H 0.32432 0.22306 0.30818 0.0
H315 H 0.24212 0.23952 0.31102 0.0
C316 C 0.26176 0.16536 0.35718 0.0
N317 N 0.26151 0.17081 0.34646 0.0
C318 C 0.24699 0.14406 0.36123 0.0
C319 C 0.23278 0.13387 0.34305 0.0
C320 C 0.24765 0.15551 0.33937 0.0
C321 C 0.2318 0.12832 0.35416 0.0
H322 H 0.27245 0.17826 0.36265 0.0
H323 H 0.24735 0.16073 0.33091 0.0
O324 O 0.30403 0.26105 0.3331 0.0
O325 O 0.2903 0.22632 0.35291 0.0
O326 O 0.25249 0.22549 0.33334 0.0
O327 O 0.30823 0.19972 0.33101 0.0
H328 H 0.35286 0.25898 0.32505 0.0
H329 H 0.2748 0.29297 0.3209 0.0
H330 H 0.36775 0.28292 0.30862 0.0
H331 H 0.29104 0.31621 0.3045 0.0
H332 H 0.35223 0.19681 0.37683 0.0
H333 H 0.29669 0.27134 0.36379 0.0
H334 H 0.32162 0.18941 0.3614 0.0
H335 H 0.32765 0.27726 0.37919 0.0
H336 H 0.25151 0.34649 0.34839 0.0
H337 H 0.20848 0.28902 0.36766 0.0
H338 H 0.41035 0.19765 0.34417 0.0
H339 H 0.39455 0.27827 0.35485 0.0
H340 H 0.21659 0.20236 0.34595 0.0
H341 H 0.23187 0.27011 0.32552 0.0
H342 H 0.17155 0.22031 0.34964 0.0
H343 H 0.18651 0.28687 0.32959 0.0
H344 H 0.28957 0.17585 0.3135 0.0
H345 H 0.32577 0.16284 0.34454 0.0
H346 H 0.28897 0.12692 0.3106 0.0
H347 H 0.32448 0.11413 0.3411 0.0
H348 H 0.32154 0.22531 0.28833 0.0
H349 H 0.23734 0.24189 0.29131 0.0
H350 H 0.24641 0.14087 0.36987 0.0
H351 H 0.22154 0.12213 0.33731 0.0
Li352 Li 0.96796 0.97499 0.40515 0.0
Li353 Li 0.01405 0.97852 0.4048 0.0
Li354 Li 0.99366 0.93456 0.40608 0.0
Li355 Li 0.99331 0.96837 0.42185 0.0
C356 C 0.97842 0.96023 0.38458 0.0
N357 N 0.95068 0.96118 0.36532 0.0
C358 C 0.97727 0.98363 0.37847 0.0
C359 C 0.96571 0.93722 0.38083 0.0
C360 C 0.96304 0.98374 0.36879 0.0
C361 C 0.95175 0.93812 0.37108 0.0
C362 C -0.00045 0.02593 0.41225 0.0
C363 C 0.02375 0.06343 0.41947 0.0
N364 N 0.02077 0.07642 0.40992 0.0
C365 C -0.00353 0.03977 0.40255 0.0
C366 C 0.01309 0.03791 0.42083 0.0
C367 C 0.00745 0.06523 0.40151 0.0
C368 C 0.92922 0.01478 0.40409 0.0
N369 N 0.93512 0.99011 0.40024 0.0
C370 C 0.89596 0.99029 0.38927 0.0
C371 C 0.91851 0.97737 0.39326 0.0
C372 C 0.89016 0.01626 0.39275 0.0
C373 C 0.90672 0.02828 0.40044 0.0
H374 H 0.94223 0.02423 0.40987 0.0
H375 H 0.92282 0.95731 0.39068 0.0
C376 C 0.04859 0.99293 0.38796 0.0
N377 N 0.0442 0.99596 0.3987 0.0
C378 C 0.0707 0.00474 0.38311 0.0
C379 C 0.08361 0.02221 0.40052 0.0
C380 C 0.06127 0.01005 0.40502 0.0
C381 C 0.08848 0.0197 0.38942 0.0
H382 H 0.03501 0.98121 0.38314 0.0
H383 H 0.05773 0.0116 0.41359 0.0
C384 C 0.93721 0.94267 0.41621 0.0
N385 N 0.8824 0.93859 0.41646 0.0
C386 C 0.92216 0.95957 0.42277 0.0
C387 C 0.92447 0.92356 0.40984 0.0
C388 C 0.89444 0.95724 0.42276 0.0
C389 C 0.89671 0.92184 0.41007 0.0
C390 C 0.05048 0.94891 0.41482 0.0
C391 C 0.06379 0.93739 0.40609 0.0
C392 C 0.06508 0.96051 0.42319 0.0
C393 C 0.09159 0.93794 0.40582 0.0
C394 C 0.09286 0.96061 0.42263 0.0
N395 N 0.10543 0.94945 0.41402 0.0
C396 C 0.00928 0.89011 0.39373 0.0
C397 C 0.98858 0.88059 0.41051 0.0
C398 C 0.01297 0.86299 0.39173 0.0
N399 N -0.00279 0.89822 0.40298 0.0
C400 C 0.99208 0.85334 0.40889 0.0
C401 C 0.00452 0.84433 0.39943 0.0
H402 H 0.01623 0.90474 0.38797 0.0
H403 H 0.97925 0.88779 0.41781 0.0
C404 C 0.98144 0.99274 0.4416 0.0
N405 N 0.99418 0.97185 0.43692 0.0
C406 C 0.98227 0.99606 0.45276 0.0
C407 C 0.00897 0.95602 0.45405 0.0
C408 C 0.00764 0.95351 0.44286 0.0
C409 C -0.00373 0.97759 0.45913 0.0
H410 H 0.97073 0.00687 0.43663 0.0
H411 H 0.01751 0.93708 0.43887 0.0
O412 O 0.99249 0.95967 0.39403 0.0
O413 O 0.98903 0.00094 0.4134 0.0
O414 O 0.96429 0.94504 0.41592 0.0
O415 O 0.02328 0.94908 0.41512 0.0
H416 H 0.98731 0.0015 0.38115 0.0
H417 H 0.96612 0.919 0.38547 0.0
H418 H 0.9619 0.00174 0.36401 0.0
H419 H 0.94165 0.92053 0.36813 0.0
H420 H 0.03446 0.07287 0.42601 0.0
H421 H 0.98571 0.03093 0.3959 0.0
H422 H 0.01566 0.02748 0.42839 0.0
H423 H 0.00533 0.0761 0.39402 0.0
H424 H 0.88338 0.98027 0.38345 0.0
H425 H 0.90293 0.04835 0.40329 0.0
H426 H 0.07362 0.0025 0.37451 0.0
H427 H 0.09707 0.03321 0.4057 0.0
H428 H 0.93179 0.97451 0.42772 0.0
H429 H 0.93589 0.91042 0.40468 0.0
H430 H 0.8825 0.9703 0.42774 0.0
H431 H 0.88654 0.90725 0.40513 0.0
H432 H 0.05274 0.92846 0.39953 0.0
H433 H 0.05505 0.96967 0.42997 0.0
H434 H 0.10216 0.92929 0.39907 0.0
H435 H 0.10443 0.96967 0.42901 0.0
H436 H 0.02282 0.8567 0.38439 0.0
H437 H 0.98512 0.83945 0.41496 0.0
H438 H 0.97189 0.01274 0.45638 0.0
H439 H 0.02016 0.9415 0.45866 0.0
Li440 Li 0.27851 0.78529 0.65474 0.0
Li441 Li 0.28314 0.75779 0.67033 0.0
Li442 Li 0.31572 0.75783 0.65479 0.0
Li443 Li 0.27266 0.73755 0.65226 0.0
C444 C 0.31062 0.81293 0.66773 0.0
N445 N 0.31574 0.86671 0.67227 0.0
C446 C 0.30316 0.82288 0.67782 0.0
C447 C 0.32135 0.83031 0.66006 0.0
C448 C 0.30573 0.85012 0.67994 0.0
C449 C 0.32358 0.85743 0.66247 0.0
C450 C 0.22775 0.77388 0.65839 0.0
C451 C 0.1882 0.7991 0.66262 0.0
N452 N 0.18258 0.80102 0.65192 0.0
C453 C 0.22139 0.77584 0.64744 0.0
C454 C 0.21089 0.7854 0.66606 0.0
C455 C 0.19855 0.78974 0.64432 0.0
C456 C 0.2637 0.82489 0.63982 0.0
N457 N 0.2645 0.81891 0.6505 0.0
C458 C 0.23802 0.85698 0.65475 0.0
C459 C 0.25258 0.83472 0.65798 0.0
C460 C 0.23555 0.86281 0.64372 0.0
C461 C 0.24927 0.84689 0.63623 0.0
H462 H 0.27294 0.8117 0.63404 0.0
H463 H 0.25317 0.8292 0.66641 0.0
C464 C 0.29116 0.73417 0.69087 0.0
N465 N 0.27827 0.75382 0.6854 0.0
C466 C 0.28717 0.73107 0.70195 0.0
C467 C 0.25757 0.76911 0.7016 0.0
C468 C 0.26164 0.77108 0.6905 0.0
C469 C 0.27033 0.74882 0.7074 0.0
H470 H 0.30457 0.72094 0.68665 0.0
H471 H 0.25196 0.78671 0.68597 0.0
C472 C 0.30683 0.76226 0.63372 0.0
N473 N 0.34042 0.76031 0.61605 0.0
C474 C 0.30549 0.74089 0.6265 0.0
C475 C 0.32474 0.78302 0.63174 0.0
C476 C 0.32275 0.74016 0.61767 0.0
C477 C 0.34171 0.78157 0.62283 0.0
C478 C 0.29618 0.7011 0.66535 0.0
C479 C 0.3152 0.68166 0.66296 0.0
C480 C 0.27214 0.6937 0.67018 0.0
C481 C 0.30982 0.65502 0.66544 0.0
C482 C 0.26751 0.66685 0.67253 0.0
N483 N 0.28629 0.64824 0.67012 0.0
C484 C 0.3697 0.77202 0.65423 0.0
C485 C 0.35907 0.73147 0.64536 0.0
C486 C 0.39651 0.76897 0.65164 0.0
N487 N 0.35174 0.75336 0.6511 0.0
C488 C 0.3857 0.7276 0.64258 0.0
C489 C 0.4048 0.74645 0.64579 0.0
H490 H 0.36325 0.7891 0.65885 0.0
H491 H 0.3442 0.71705 0.64296 0.0
C492 C 0.22817 0.70606 0.64618 0.0
N493 N 0.25512 0.70807 0.64578 0.0
C494 C 0.21535 0.6843 0.6415 0.0
C495 C 0.25832 0.66652 0.63645 0.0
C496 C 0.27029 0.68869 0.6412 0.0
C497 C 0.23047 0.66423 0.63649 0.0
H498 H 0.21657 0.72125 0.65017 0.0
H499 H 0.29174 0.69049 0.64123 0.0
O500 O 0.3081 0.78627 0.66552 0.0
O501 O 0.25062 0.7612 0.66154 0.0
O502 O 0.29029 0.76314 0.64251 0.0
O503 O 0.30078 0.7272 0.66275 0.0
H504 H 0.29563 0.80975 0.684 0.0
H505 H 0.32779 0.82302 0.65232 0.0
H506 H 0.29984 0.85806 0.68769 0.0
H507 H 0.3316 0.87108 0.65655 0.0
H508 H 0.17508 0.80826 0.66846 0.0
H509 H 0.23424 0.76709 0.64138 0.0
H510 H 0.21527 0.78388 0.67457 0.0
H511 H 0.19358 0.79165 0.63587 0.0
H512 H 0.22793 0.86887 0.66079 0.0
H513 H 0.24754 0.85038 0.62764 0.0
H514 H 0.29747 0.71534 0.70624 0.0
H515 H 0.24447 0.78313 0.7056 0.0
H516 H 0.29114 0.72515 0.62762 0.0
H517 H 0.32566 0.80002 0.63704 0.0
H518 H 0.32201 0.72362 0.61208 0.0
H519 H 0.35587 0.79738 0.6213 0.0
H520 H 0.33388 0.68708 0.6592 0.0
H521 H 0.25712 0.70851 0.67201 0.0
H522 H 0.32434 0.63974 0.66362 0.0
H523 H 0.24897 0.66081 0.67623 0.0
H524 H 0.41067 0.7837 0.65444 0.0
H525 H 0.39129 0.71008 0.63801 0.0
H526 H 0.19381 0.68342 0.64166 0.0
H527 H 0.27074 0.65126 0.63286 0.0
Li528 Li 0.50818 0.05687 0.9042 0.0
Li529 Li 0.50898 0.02368 0.91856 0.0
Li530 Li 0.53184 0.01532 0.90073 0.0
Li531 Li 0.48304 0.01409 0.90229 0.0
C532 C 0.55776 0.06232 0.91363 0.0
N533 N 0.59423 0.10269 0.91706 0.0
C534 C 0.55857 0.07556 0.92355 0.0
C535 C 0.57585 0.06923 0.90554 0.0
C536 C 0.57705 0.09603 0.9251 0.0
C537 C 0.59404 0.08979 0.90741 0.0
C538 C 0.45944 0.04738 0.92084 0.0
C539 C 0.42633 0.03026 0.9331 0.0
N540 N 0.423 0.05515 0.93723 0.0
C541 C 0.45547 0.07285 0.92511 0.0
C542 C 0.44457 0.02595 0.92478 0.0
C543 C 0.43704 0.07636 0.93343 0.0
C544 C 0.50181 0.10265 0.8912 0.0
N545 N 0.50705 0.09379 0.90134 0.0
C546 C 0.50923 0.13834 0.90797 0.0
C547 C 0.51047 0.11095 0.90969 0.0
C548 C 0.50421 0.14809 0.89755 0.0
C549 C 0.50051 0.12993 0.88909 0.0
H550 H 0.49821 0.08859 0.88477 0.0
H551 H 0.51378 0.10334 0.91773 0.0
C552 C 0.52132 0.99409 0.93703 0.0
N553 N 0.51165 0.01794 0.93362 0.0
C554 C 0.52363 0.98871 0.94803 0.0
C555 C 0.50641 0.03274 0.9518 0.0
C556 C 0.50463 0.03732 0.94073 0.0
C557 C 0.51595 0.00811 0.95559 0.0
H558 H 0.52737 0.97927 0.9312 0.0
H559 H 0.49776 0.05639 0.93781 0.0
C560 C 0.51282 0.03449 0.88095 0.0
N561 N 0.52907 0.03679 0.85968 0.0
C562 C 0.49893 0.02037 0.87302 0.0
C563 C 0.5348 0.04999 0.87804 0.0
C564 C 0.50751 0.02173 0.86231 0.0
C565 C 0.54275 0.05084 0.86725 0.0
C566 C 0.50157 0.965 0.91006 0.0
C567 C 0.51204 0.94623 0.90289 0.0
C568 C 0.48312 0.95692 0.91784 0.0
C569 C 0.50333 0.91981 0.90343 0.0
C570 C 0.47492 0.93032 0.91813 0.0
N571 N 0.48507 0.91247 0.91097 0.0
C572 C 0.58471 -0.00225 0.89984 0.0
C573 C 0.55904 0.98687 0.88442 0.0
C574 C 0.60652 0.98381 0.89573 0.0
N575 N 0.56157 -0.00116 0.89419 0.0
C576 C 0.58041 0.97313 0.87992 0.0
C577 C 0.60442 0.97098 0.88568 0.0
H578 H 0.58596 0.00706 0.90769 0.0
H579 H 0.5402 0.98722 0.88024 0.0
C580 C 0.42785 0.00941 0.89798 0.0
N581 N 0.45213 -0.0021 0.8966 0.0
C582 C 0.40512 -0.00257 0.89365 0.0
C583 C 0.43299 0.9623 0.88649 0.0
C584 C 0.45512 0.97511 0.89082 0.0
C585 C 0.40763 0.97343 0.88794 0.0
H586 H 0.42615 0.02794 0.90238 0.0
H587 H 0.47475 0.9671 0.88941 0.0
O588 O 0.53982 0.04221 0.91198 0.0
O589 O 0.47762 0.04354 0.91276 0.0
O590 O 0.5048 0.03319 0.89148 0.0
O591 O 0.50983 0.99098 0.90961 0.0
H592 H 0.54491 0.07025 0.92994 0.0
H593 H 0.57603 0.05868 0.89794 0.0
H594 H 0.57773 0.10662 0.93269 0.0
H595 H 0.60809 0.09542 0.9012 0.0
H596 H 0.41476 0.01382 0.93625 0.0
H597 H 0.46659 0.08972 0.92209 0.0
H598 H 0.44693 0.00626 0.92139 0.0
H599 H 0.4339 0.09593 0.93687 0.0
H600 H 0.51229 0.15176 0.91471 0.0
H601 H 0.49616 0.13672 0.88098 0.0
H602 H 0.53163 0.96967 0.95057 0.0
H603 H 0.50009 0.04823 0.95732 0.0
H604 H 0.48177 0.00843 0.87511 0.0
H605 H 0.54548 0.06137 0.88404 0.0
H606 H 0.49701 0.01082 0.8561 0.0
H607 H 0.55976 0.06272 0.86489 0.0
H608 H 0.52654 0.95203 0.89689 0.0
H609 H 0.47539 0.97096 0.92366 0.0
H610 H 0.51109 0.90513 0.89786 0.0
H611 H 0.46056 0.92384 0.92408 0.0
H612 H 0.62444 0.98232 0.90054 0.0
H613 H 0.57792 0.96387 0.8721 0.0
H614 H 0.38583 0.00661 0.89485 0.0
H615 H 0.4357 0.94412 0.88191 0.0
Li616 Li 0.23197 0.23519 0.17098 0.0
Li617 Li 0.23971 0.21207 0.15292 0.0
Li618 Li 0.23708 0.2601 0.15445 0.0
Li619 Li 0.1984 0.23425 0.15677 0.0
C620 C 0.28762 0.24779 0.15925 0.0
N621 N 0.33534 0.27269 0.15458 0.0
C622 C 0.30417 0.23773 0.15115 0.0
C623 C 0.29557 0.27024 0.1651 0.0
C624 C 0.32816 0.25066 0.14888 0.0
C625 C 0.31969 0.28264 0.16258 0.0
C626 C 0.19256 0.18676 0.1649 0.0
C627 C 0.16313 0.15553 0.15616 0.0
N628 N 0.14747 0.15526 0.16511 0.0
C629 C 0.17629 0.18607 0.17404 0.0
C630 C 0.18605 0.17131 0.1559 0.0
C631 C 0.15354 0.17004 0.17397 0.0
C632 C 0.21826 0.23767 0.19288 0.0
N633 N 0.23871 0.23384 0.18589 0.0
C634 C 0.26964 0.22964 0.20039 0.0
C635 C 0.26404 0.22983 0.18937 0.0
C636 C 0.24894 0.23357 0.20784 0.0
C637 C 0.22294 0.23757 0.20397 0.0
H638 H 0.19839 0.24113 0.18982 0.0
H639 H 0.27987 0.22692 0.18358 0.0
C640 C 0.26215 0.18481 0.1355 0.0
N641 N 0.25607 0.18296 0.14614 0.0
C642 C 0.27546 0.164 0.13036 0.0
C643 C 0.27547 0.13965 0.14721 0.0
C644 C 0.26213 0.16096 0.15202 0.0
C645 C 0.28254 0.14117 0.13627 0.0
H646 H 0.25725 0.20275 0.13109 0.0
H647 H 0.25691 0.16016 0.16048 0.0
C648 C 0.20625 0.288 0.17094 0.0
N649 N 0.19932 0.33602 0.18151 0.0
C650 C 0.18348 0.30333 0.16905 0.0
C651 C 0.22536 0.29698 0.17829 0.0
C652 C 0.18038 0.32759 0.17444 0.0
C653 C 0.22153 0.32133 0.18353 0.0
C654 C 0.20766 0.25193 0.13581 0.0
C655 C 0.19408 0.27515 0.13876 0.0
C656 C 0.20849 0.24431 0.12498 0.0
C657 C 0.18152 0.29034 0.13081 0.0
C658 C 0.19567 0.26004 0.11726 0.0
N659 N 0.18256 0.28254 0.12031 0.0
C660 C 0.26778 0.28643 0.13939 0.0
C661 C 0.24656 0.31672 0.15129 0.0
C662 C 0.28077 0.30728 0.13418 0.0
N663 N 0.25164 0.29137 0.14796 0.0
C664 C 0.25872 0.33827 0.14615 0.0
C665 C 0.27639 0.3335 0.13763 0.0
H666 H 0.27081 0.26615 0.1367 0.0
H667 H 0.23325 0.3204 0.15793 0.0
C668 C 0.14572 0.23997 0.16318 0.0
N669 N 0.16123 0.2327 0.1547 0.0
C670 C 0.11812 0.24011 0.16215 0.0
C671 C 0.12303 0.22542 0.14365 0.0
C672 C 0.15056 0.22503 0.14511 0.0
C673 C 0.10661 0.23312 0.15224 0.0
H674 H 0.15489 0.24578 0.17072 0.0
H675 H 0.16339 0.21883 0.13858 0.0
O676 O 0.26378 0.23569 0.16142 0.0
O677 O 0.21441 0.20298 0.16465 0.0
O678 O 0.2094 0.26411 0.16577 0.0
O679 O 0.22022 0.23668 0.14344 0.0
H680 H 0.29845 0.22028 0.14659 0.0
H681 H 0.28319 0.27816 0.17146 0.0
H682 H 0.34105 0.24322 0.14258 0.0
H683 H 0.32596 0.30018 0.16698 0.0
H684 H 0.15774 0.1436 0.14923 0.0
H685 H 0.18103 0.19801 0.18105 0.0
H686 H 0.19839 0.17179 0.14874 0.0
H687 H 0.14065 0.16943 0.18096 0.0
H688 H 0.2899 0.22623 0.20306 0.0
H689 H 0.2065 0.24104 0.20945 0.0
H690 H 0.28094 0.16614 0.12195 0.0
H691 H 0.28039 0.1223 0.15202 0.0
H692 H 0.16836 0.29659 0.16346 0.0
H693 H 0.24295 0.28533 0.17994 0.0
H694 H 0.16291 0.3397 0.17302 0.0
H695 H 0.2362 0.32855 0.18921 0.0
H696 H 0.19323 0.28142 0.14707 0.0
H697 H 0.21887 0.22638 0.12255 0.0
H698 H 0.17095 0.30835 0.13298 0.0
H699 H 0.19613 0.25435 0.10885 0.0
H700 H 0.29412 0.30301 0.12753 0.0
H701 H 0.25494 0.35836 0.14897 0.0
H702 H 0.10592 0.24624 0.16891 0.0
H703 H 0.11465 0.21972 0.13594 0.0
Li704 Li 0.78404 0.24939 0.17065 0.0
Li705 Li 0.77424 0.273 0.15347 0.0
Li706 Li 0.77733 0.22553 0.15404 0.0
Li707 Li 0.8168 0.25171 0.15577 0.0
C708 C 0.72792 0.2357 0.16004 0.0
N709 N 0.68134 0.20829 0.15585 0.0
C710 C 0.71114 0.24395 0.15168 0.0
C711 C 0.72081 0.21379 0.16637 0.0
C712 C 0.68772 0.22976 0.14967 0.0
C713 C 0.69724 0.2001 0.16409 0.0
C714 C 0.81486 0.30483 0.16182 0.0
C715 C 0.83325 0.33465 0.1485 0.0
N716 N 0.84083 0.35158 0.1565 0.0
C717 C 0.82283 0.3225 0.16991 0.0
C718 C 0.8201 0.31092 0.15102 0.0
C719 C 0.83593 0.34604 0.16706 0.0
C720 C 0.80052 0.24432 0.19221 0.0
N721 N 0.77945 0.24972 0.1857 0.0
C722 C 0.75075 0.25488 0.20088 0.0
C723 C 0.75491 0.25502 0.18976 0.0
C724 C 0.77205 0.24911 0.20785 0.0
C725 C 0.79723 0.24382 0.20339 0.0
H726 H 0.81978 0.2401 0.1887 0.0
H727 H 0.73859 0.25934 0.18434 0.0
C728 C 0.75032 0.30234 0.13691 0.0
N729 N 0.75612 0.30235 0.1476 0.0
C730 C 0.73534 0.323 0.13247 0.0
C731 C 0.7331 0.34346 0.15012 0.0
C732 C 0.74814 0.32239 0.15422 0.0
C733 C 0.72625 0.34374 0.13913 0.0
H734 H 0.75671 0.28589 0.13191 0.0
H735 H 0.75309 0.32171 0.16271 0.0
C736 C 0.8115 0.19709 0.16942 0.0
N737 N 0.82258 0.14901 0.17933 0.0
C738 C 0.83449 0.18292 0.16669 0.0
C739 C 0.7943 0.18696 0.17729 0.0
C740 C 0.83969 0.1586 0.17176 0.0
C741 C 0.80022 0.16258 0.18218 0.0
C742 C 0.80468 0.23544 0.13496 0.0
C743 C 0.81787 0.21159 0.13731 0.0
C744 C 0.80369 0.24453 0.12431 0.0
C745 C 0.8299 0.19726 0.12897 0.0
C746 C 0.81598 0.22963 0.11619 0.0
N747 N 0.82872 0.20651 0.11867 0.0
C748 C 0.74766 0.19973 0.13852 0.0
C749 C 0.76438 0.16939 0.15152 0.0
C750 C 0.73402 0.17933 0.13329 0.0
N751 N 0.76205 0.19458 0.14757 0.0
C752 C 0.75125 0.14826 0.14646 0.0
C753 C 0.7355 0.15328 0.13734 0.0
H754 H 0.74638 0.21991 0.13549 0.0
H755 H 0.776 0.16558 0.15864 0.0
C756 C 0.86915 0.24973 0.16221 0.0
N757 N 0.85374 0.2538 0.15336 0.0
C758 C 0.89678 0.24971 0.16129 0.0
C759 C 0.89213 0.25818 0.14216 0.0
C760 C 0.86456 0.25855 0.14349 0.0
C761 C 0.90845 0.25359 0.15114 0.0
H762 H 0.85987 0.24616 0.16995 0.0
H763 H 0.85188 0.2624 0.13663 0.0
O764 O 0.75129 0.24888 0.16194 0.0
O765 O 0.80209 0.28168 0.16452 0.0
O766 O 0.80641 0.22115 0.16465 0.0
O767 O 0.79267 0.2499 0.14296 0.0
H768 H 0.71632 0.2609 0.14672 0.0
H769 H 0.73344 0.20728 0.17292 0.0
H770 H 0.67466 0.23577 0.14317 0.0
H771 H 0.6916 0.18296 0.16887 0.0
H772 H 0.83743 0.33961 0.14018 0.0
H773 H 0.81894 0.31803 0.17831 0.0
H774 H 0.81411 0.29751 0.14464 0.0
H775 H 0.84222 0.35991 0.17324 0.0
H776 H 0.73112 0.25949 0.20397 0.0
H777 H 0.81411 0.23895 0.20845 0.0
H778 H 0.73013 0.32223 0.124 0.0
H779 H 0.72665 0.3592 0.15551 0.0
H780 H 0.84821 0.19065 0.16073 0.0
H781 H 0.77652 0.19769 0.17955 0.0
H782 H 0.85736 0.14737 0.1697 0.0
H783 H 0.78702 0.15446 0.18824 0.0
H784 H 0.81879 0.20416 0.14546 0.0
H785 H 0.79363 0.26297 0.12234 0.0
H786 H 0.84016 0.17878 0.13069 0.0
H787 H 0.8154 0.23647 0.10792 0.0
H788 H 0.72228 0.18389 0.1262 0.0
H789 H 0.75273 0.1284 0.14984 0.0
H790 H 0.90889 0.246 0.16836 0.0
H791 H 0.90063 0.26147 0.13424 0.0
Li792 Li 0.72569 0.74206 0.67076 0.0
Li793 Li 0.73772 0.71755 0.65452 0.0
Li794 Li 0.73279 0.7675 0.65462 0.0
Li795 Li 0.69371 0.73875 0.65549 0.0
C796 C 0.77818 0.74485 0.67008 0.0
N797 N 0.81584 0.74457 0.68633 0.0
C798 C 0.79279 0.72174 0.67223 0.0
C799 C 0.78299 0.76793 0.6761 0.0
C800 C 0.81169 0.72197 0.6805 0.0
C801 C 0.80202 0.76735 0.68431 0.0
C802 C 0.69968 0.68392 0.66436 0.0
C803 C 0.67813 0.6479 0.65487 0.0
N804 N 0.682 0.63177 0.66355 0.0
C805 C 0.70316 0.66708 0.67323 0.0
C806 C 0.68684 0.67433 0.65514 0.0
C807 C 0.6942 0.64075 0.67265 0.0
C808 C 0.72026 0.76233 0.69195 0.0
N809 N 0.72952 0.74167 0.68594 0.0
C810 C 0.74668 0.72011 0.70163 0.0
C811 C 0.74223 0.72063 0.69054 0.0
C812 C 0.73771 0.74136 0.70805 0.0
C813 C 0.72415 0.76258 0.7031 0.0
H814 H 0.71005 0.7787 0.68809 0.0
H815 H 0.74921 0.7044 0.68555 0.0
C816 C 0.77037 0.69361 0.63926 0.0
N817 N 0.75792 0.68915 0.64882 0.0
C818 C 0.78673 0.6741 0.63479 0.0
C819 C 0.77725 0.6458 0.65011 0.0
C820 C 0.76107 0.6659 0.6543 0.0
C821 C 0.79048 0.6499 0.64028 0.0
H822 H 0.76779 0.71249 0.63518 0.0
H823 H 0.75167 0.66321 0.66205 0.0
C824 C 0.69583 0.79654 0.66471 0.0
N825 N 0.68344 0.85021 0.6644 0.0
C826 C 0.67271 0.80538 0.65955 0.0
C827 C 0.71249 0.81496 0.66981 0.0
C828 C 0.66682 0.83261 0.65947 0.0
C829 C 0.70594 0.84202 0.66953 0.0
C830 C 0.71182 0.73707 0.63346 0.0
C831 C 0.70714 0.75873 0.62662 0.0
C832 C 0.70846 0.71114 0.62954 0.0
C833 C 0.69849 0.75411 0.61607 0.0
C834 C 0.69982 0.70734 0.61895 0.0
N835 N 0.69501 0.72872 0.61249 0.0
C836 C 0.77407 0.80208 0.6494 0.0
C837 C 0.73187 0.81767 0.64361 0.0
C838 C 0.78653 0.82422 0.64488 0.0
N839 N 0.74725 0.79923 0.6487 0.0
C840 C 0.74351 0.84025 0.639 0.0
C841 C 0.77124 0.84366 0.63957 0.0
H842 H 0.78589 0.78687 0.65329 0.0
H843 H 0.71062 0.81473 0.64301 0.0
C844 C 0.64165 0.72289 0.65934 0.0
N845 N 0.6573 0.73524 0.65193 0.0
C846 C 0.61433 0.72068 0.65763 0.0
C847 C 0.6197 0.74402 0.6407 0.0
C848 C 0.64696 0.74573 0.64273 0.0
C849 C 0.60302 0.73161 0.64827 0.0
H850 H 0.65037 0.7151 0.66666 0.0
H851 H 0.65963 0.75623 0.63715 0.0
O852 O 0.75922 0.74486 0.66216 0.0
O853 O 0.70847 0.70974 0.66481 0.0
O854 O 0.70195 0.76996 0.66484 0.0
O855 O 0.72053 0.74129 0.64379 0.0
H856 H 0.78941 0.70374 0.66763 0.0
H857 H 0.77201 0.78603 0.67448 0.0
H858 H 0.82301 0.70418 0.68229 0.0
H859 H 0.80579 0.785 0.68908 0.0
H860 H 0.66819 0.64023 0.64778 0.0
H861 H 0.71278 0.67422 0.68048 0.0
H862 H 0.68329 0.68724 0.64833 0.0
H863 H 0.69692 0.62746 0.67943 0.0
H864 H 0.7569 0.70321 0.70516 0.0
H865 H 0.71708 0.77941 0.70776 0.0
H866 H 0.79645 0.67796 0.62715 0.0
H867 H 0.78004 0.62761 0.65468 0.0
H868 H 0.65947 0.79141 0.65564 0.0
H869 H 0.73039 0.80847 0.67387 0.0
H870 H 0.64905 0.83974 0.65547 0.0
H871 H 0.71875 0.85651 0.67338 0.0
H872 H 0.70991 0.77891 0.62944 0.0
H873 H 0.71281 0.69409 0.63456 0.0
H874 H 0.69458 0.77071 0.61073 0.0
H875 H 0.69707 0.68737 0.61584 0.0
H876 H 0.80802 0.82567 0.64529 0.0
H877 H 0.73098 0.85479 0.63502 0.0
H878 H 0.60215 0.71081 0.66363 0.0
H879 H 0.61166 0.75317 0.63348 0.0
Li880 Li 0.69609 0.25547 0.34061 0.0
Li881 Li 0.73727 0.23017 0.34202 0.0
Li882 Li 0.73831 0.2801 0.34139 0.0
Li883 Li 0.7287 0.25328 0.32551 0.0
C884 C 0.71404 0.26323 0.36256 0.0
N885 N 0.69754 0.27748 0.38305 0.0
C886 C 0.71133 0.24387 0.3706 0.0
C887 C 0.70887 0.28993 0.36504 0.0
C888 C 0.7028 0.25143 0.38088 0.0
C889 C 0.70042 0.29671 0.37541 0.0
C890 C 0.70341 0.19726 0.33272 0.0
C891 C 0.71784 0.15215 0.32932 0.0
N892 N 0.69639 0.14287 0.33486 0.0
C893 C 0.68141 0.18726 0.33831 0.0
C894 C 0.72169 0.17958 0.32811 0.0
C895 C 0.67824 0.1597 0.33932 0.0
C896 C 0.64292 0.26393 0.3359 0.0
N897 N 0.65943 0.25596 0.34395 0.0
C898 C 0.62248 0.24704 0.35551 0.0
C899 C 0.64986 0.24759 0.35363 0.0
C900 C 0.60494 0.25492 0.3473 0.0
C901 C 0.61545 0.26368 0.33742 0.0
H902 H 0.65115 0.2702 0.32825 0.0
H903 H 0.66335 0.24063 0.35978 0.0
C904 C 0.77945 0.1953 0.34649 0.0
N905 N 0.75325 0.19984 0.34844 0.0
C906 C 0.7922 0.17349 0.35115 0.0
C907 C 0.75077 0.16146 0.35981 0.0
C908 C 0.73878 0.18346 0.35492 0.0
C909 C 0.7779 0.15636 0.358 0.0
H910 H 0.79052 0.20872 0.34136 0.0
H911 H 0.71795 0.18756 0.35633 0.0
C912 C 0.6973 0.30949 0.33077 0.0
N913 N 0.674 0.35944 0.33035 0.0
C914 C 0.7002 0.3259 0.32173 0.0
C915 C 0.68211 0.31835 0.33951 0.0
C916 C 0.68841 0.35112 0.32169 0.0
C917 C 0.6706 0.34369 0.33917 0.0
C918 C 0.78088 0.25576 0.32624 0.0
C919 C 0.79325 0.28016 0.3241 0.0
C920 C 0.78755 0.23334 0.32011 0.0
C921 C 0.81188 0.28178 0.31575 0.0
C922 C 0.80623 0.23579 0.31182 0.0
N923 N 0.8179 0.25976 0.30983 0.0
C924 C 0.77083 0.30605 0.35593 0.0
C925 C 0.75634 0.33431 0.34176 0.0
C926 C 0.78607 0.32652 0.36032 0.0
N927 N 0.7564 0.31027 0.34682 0.0
C928 C 0.77134 0.35541 0.34589 0.0
C929 C 0.78667 0.35152 0.35523 0.0
H930 H 0.77067 0.2866 0.3597 0.0
H931 H 0.7453 0.33695 0.33437 0.0
C932 C 0.72647 0.22998 0.30473 0.0
N933 N 0.73283 0.2524 0.31032 0.0
C934 C 0.73061 0.22886 0.29361 0.0
C935 C 0.74722 0.2741 0.29421 0.0
C936 C 0.74292 0.27428 0.30531 0.0
C937 C 0.74114 0.25112 0.28823 0.0
H938 H 0.71829 0.21295 0.3089 0.0
H939 H 0.74808 0.29171 0.30999 0.0
O940 O 0.72261 0.2561 0.35247 0.0
O941 O 0.70702 0.22419 0.33175 0.0
O942 O 0.70872 0.28469 0.33089 0.0
O943 O 0.76221 0.2539 0.33424 0.0
H944 H 0.7156 0.22318 0.36893 0.0
H945 H 0.71171 0.30538 0.35909 0.0
H946 H 0.70042 0.2366 0.38714 0.0
H947 H 0.69631 0.3173 0.37741 0.0
H948 H 0.73195 0.13826 0.32588 0.0
H949 H 0.667 0.20061 0.34188 0.0
H950 H 0.73885 0.18695 0.32378 0.0
H951 H 0.66137 0.15169 0.34368 0.0
H952 H 0.61511 0.23975 0.36317 0.0
H953 H 0.60256 0.27012 0.33092 0.0
H954 H 0.81305 0.17009 0.34939 0.0
H955 H 0.73906 0.14895 0.36512 0.0
H956 H 0.71151 0.31929 0.31481 0.0
H957 H 0.67885 0.30571 0.34642 0.0
H958 H 0.69067 0.36407 0.31477 0.0
H959 H 0.65885 0.35077 0.34589 0.0
H960 H 0.78838 0.2977 0.32876 0.0
H961 H 0.77816 0.21431 0.32165 0.0
H962 H 0.8215 0.30057 0.31397 0.0
H963 H 0.81141 0.21865 0.30696 0.0
H964 H 0.79741 0.32279 0.3676 0.0
H965 H 0.77161 0.37428 0.34164 0.0
H966 H 0.72541 0.21088 0.28925 0.0
H967 H 0.75567 0.29155 0.29036 0.0
Li968 Li 0.7803 0.76728 0.84206 0.0
Li969 Li 0.82001 0.73971 0.84012 0.0
Li970 Li 0.78564 0.74087 0.82542 0.0
Li971 Li 0.77824 0.71735 0.84241 0.0
C972 C 0.81372 0.79511 0.82712 0.0
N973 N 0.82396 0.84572 0.81935 0.0
C974 C 0.83661 0.80877 0.83038 0.0
C975 C 0.7962 0.80707 0.81982 0.0
C976 C 0.84139 0.83437 0.82638 0.0
C977 C 0.80168 0.83269 0.81601 0.0
C978 C 0.81121 0.74424 0.86162 0.0
C979 C 0.84094 0.72472 0.87469 0.0
N980 N 0.84329 0.74883 0.87962 0.0
C981 C 0.81372 0.76878 0.86687 0.0
C982 C 0.82472 0.72196 0.86561 0.0
C983 C 0.8301 0.77071 0.87594 0.0
C984 C 0.74269 0.79335 0.85413 0.0
N985 N 0.76502 0.79815 0.84827 0.0
C986 C 0.76195 0.84483 0.85188 0.0
C987 C 0.77506 0.8232 0.8472 0.0
C988 C 0.73866 0.84043 0.85786 0.0
C989 C 0.72914 0.8143 0.85905 0.0
H990 H 0.73531 0.77317 0.85489 0.0
H991 H 0.79314 0.82654 0.84273 0.0
C992 C 0.87097 0.71802 0.83826 0.0
N993 N 0.85678 0.73787 0.843 0.0
C994 C 0.89822 0.7158 0.84013 0.0
C995 C 0.89565 0.75433 0.85184 0.0
C996 C 0.86854 0.75609 0.84958 0.0
C997 C 0.91073 0.73407 0.84702 0.0
H998 H 0.86117 0.70407 0.83293 0.0
H999 H 0.85693 0.77212 0.85299 0.0
C1000 C 0.73089 0.74981 0.83029 0.0
N1001 N 0.68335 0.76391 0.82063 0.0
C1002 C 0.71078 0.73084 0.82893 0.0
C1003 C 0.72668 0.77603 0.82689 0.0
C1004 C 0.68693 0.73833 0.82398 0.0
C1005 C 0.70255 0.78275 0.82199 0.0
C1006 C 0.806 0.68287 0.83042 0.0
C1007 C 0.79515 0.67046 0.82133 0.0
C1008 C 0.81705 0.66737 0.83865 0.0
C1009 C 0.79516 0.64264 0.82071 0.0
C1010 C 0.81663 0.63961 0.83773 0.0
N1011 N 0.80577 0.62792 0.82886 0.0
C1012 C 0.79792 0.75185 0.80376 0.0
C1013 C 0.75771 0.72794 0.80633 0.0
C1014 C 0.79397 0.75214 0.79263 0.0
N1015 N 0.77968 0.74023 0.81035 0.0
C1016 C 0.75296 0.72772 0.79525 0.0
C1017 C 0.77115 0.74008 0.78825 0.0
H1018 H 0.81556 0.76092 0.80717 0.0
H1019 H 0.74395 0.71814 0.81172 0.0
C1020 C 0.76012 0.68678 0.85978 0.0
N1021 N 0.76073 0.68807 0.84884 0.0
C1022 C 0.7467 0.66606 0.86492 0.0
C1023 C 0.73515 0.64812 0.84741 0.0
C1024 C 0.74843 0.66946 0.84261 0.0
C1025 C 0.73401 0.64648 0.85869 0.0
H1026 H 0.76967 0.70212 0.86453 0.0
H1027 H 0.7486 0.67141 0.83394 0.0
O1028 O 0.80879 0.77002 0.83097 0.0
O1029 O 0.79532 0.74199 0.8527 0.0
O1030 O 0.75432 0.74276 0.83513 0.0
O1031 O 0.80598 0.71006 0.83121 0.0
H1032 H 0.85049 0.79975 0.83596 0.0
H1033 H 0.77867 0.79663 0.81705 0.0
H1034 H 0.85897 0.84523 0.82887 0.0
H1035 H 0.78826 0.8422 0.81037 0.0
H1036 H 0.85165 0.70769 0.87783 0.0
H1037 H 0.80332 0.7862 0.86392 0.0
H1038 H 0.82279 0.70279 0.8617 0.0
H1039 H 0.83236 0.7896 0.88005 0.0
H1040 H 0.76995 0.86474 0.85088 0.0
H1041 H 0.71107 0.8102 0.86352 0.0
H1042 H 0.90943 0.70005 0.83624 0.0
H1043 H 0.90489 0.76903 0.85703 0.0
H1044 H 0.71363 0.71051 0.83161 0.0
H1045 H 0.74174 0.79111 0.8281 0.0
H1046 H 0.67127 0.72381 0.82281 0.0
H1047 H 0.69905 0.80296 0.8193 0.0
H1048 H 0.7867 0.68216 0.81486 0.0
H1049 H 0.82573 0.67668 0.84568 0.0
H1050 H 0.78669 0.63275 0.81376 0.0
H1051 H 0.82496 0.62736 0.84407 0.0
H1052 H 0.80875 0.76143 0.78749 0.0
H1053 H 0.73509 0.71824 0.79221 0.0
H1054 H 0.74605 0.66541 0.87365 0.0
H1055 H 0.72513 0.63357 0.84239 0.0
Li1056 Li 0.49532 0.53049 0.07758 0.0
Li1057 Li 0.49516 0.5579 0.09378 0.0
Li1058 Li 0.51819 0.51613 0.09379 0.0
Li1059 Li 0.4694 0.51882 0.09333 0.0
C1060 C 0.53547 0.5691 0.07906 0.0
N1061 N 0.55312 0.61296 0.06759 0.0
C1062 C 0.5172 0.58617 0.07407 0.0
C1063 C 0.56271 0.57442 0.07822 0.0
C1064 C 0.52652 0.60821 0.06831 0.0
C1065 C 0.57124 0.59666 0.07238 0.0
C1066 C 0.43825 0.55435 0.08336 0.0
C1067 C 0.39606 0.5624 0.09208 0.0
N1068 N 0.3837 0.56129 0.08233 0.0
C1069 C 0.42517 0.55362 0.07341 0.0
C1070 C 0.42362 0.5591 0.09276 0.0
C1071 C 0.39758 0.55705 0.07306 0.0
C1072 C 0.47478 0.5143 0.05786 0.0
N1073 N 0.49602 0.52693 0.06233 0.0
C1074 C 0.51803 0.52863 0.04527 0.0
C1075 C 0.51757 0.53388 0.05632 0.0
C1076 C 0.49629 0.51574 0.04042 0.0
C1077 C 0.4744 0.50863 0.04685 0.0
H1078 H 0.45837 0.5081 0.06293 0.0
H1079 H 0.53479 0.54272 0.0601 0.0
C1080 C 0.52149 0.60221 0.10252 0.0
N1081 N 0.4975 0.5933 0.09895 0.0
C1082 C 0.52457 0.62871 0.10568 0.0
C1083 C 0.47807 0.63617 0.10157 0.0
C1084 C 0.47592 0.60954 0.0985 0.0
C1085 C 0.50275 0.64614 0.10506 0.0
H1086 H 0.53839 0.58885 0.10267 0.0
H1087 H 0.45724 0.60211 0.09544 0.0
C1088 C 0.50609 0.4767 0.07875 0.0
N1089 N 0.53238 0.43898 0.06649 0.0
C1090 C 0.49415 0.45209 0.07665 0.0
C1091 C 0.5314 0.48217 0.07459 0.0
C1092 C 0.50777 0.43326 0.07045 0.0
C1093 C 0.54436 0.46283 0.06842 0.0
C1094 C 0.49862 0.54416 0.11409 0.0
C1095 C 0.52462 0.54672 0.11797 0.0
C1096 C 0.47773 0.55682 0.11949 0.0
C1097 C 0.52934 0.56224 0.12713 0.0
C1098 C 0.48327 0.57221 0.12861 0.0
N1099 N 0.50875 0.57459 0.13221 0.0
C1100 C 0.57235 0.50535 0.09818 0.0
C1101 C 0.54144 0.47249 0.10391 0.0
C1102 C 0.59353 0.49031 0.10218 0.0
N1103 N 0.54701 0.49618 0.09912 0.0
C1104 C 0.56198 0.45679 0.108 0.0
C1105 C 0.58844 0.46566 0.10715 0.0
H1106 H 0.57605 0.52432 0.09434 0.0
H1107 H 0.521 0.46586 0.10454 0.0
C1108 C 0.41966 0.49296 0.09078 0.0
N1109 N 0.43834 0.50111 0.098 0.0
C1110 C 0.39727 0.47897 0.0943 0.0
C1111 C 0.41422 0.48152 0.11253 0.0
C1112 C 0.43601 0.49582 0.10869 0.0
C1113 C 0.39449 0.47275 0.10531 0.0
H1114 H 0.42228 0.49719 0.0823 0.0
H1115 H 0.45144 0.50217 0.1142 0.0
O1116 O 0.52694 0.54759 0.08494 0.0
O1117 O 0.46527 0.55087 0.08385 0.0
O1118 O 0.49279 0.49541 0.0847 0.0
O1119 O 0.49367 0.52945 0.10501 0.0
H1120 H 0.49606 0.58257 0.0746 0.0
H1121 H 0.57716 0.56153 0.08205 0.0
H1122 H 0.5126 0.62156 0.06442 0.0
H1123 H 0.59226 0.60098 0.07167 0.0
H1124 H 0.38449 0.56582 0.09931 0.0
H1125 H 0.4362 0.55067 0.06602 0.0
H1126 H 0.43342 0.5599 0.10051 0.0
H1127 H 0.3872 0.55643 0.06542 0.0
H1128 H 0.53556 0.53385 0.04065 0.0
H1129 H 0.45723 0.49868 0.04343 0.0
H1130 H 0.5439 0.63562 0.10835 0.0
H1131 H 0.4609 0.64907 0.10075 0.0
H1132 H 0.47451 0.44763 0.07978 0.0
H1133 H 0.5409 0.50117 0.07606 0.0
H1134 H 0.49876 0.41412 0.06876 0.0
H1135 H 0.56393 0.4668 0.06515 0.0
H1136 H 0.54104 0.53711 0.11389 0.0
H1137 H 0.45746 0.55487 0.11667 0.0
H1138 H 0.54939 0.56455 0.13018 0.0
H1139 H 0.46731 0.58224 0.13284 0.0
H1140 H 0.61366 0.49773 0.10128 0.0
H1141 H 0.55718 0.43809 0.11191 0.0
H1142 H 0.38248 0.47287 0.08844 0.0
H1143 H 0.41338 0.47666 0.12103 0.0
Li1144 Li 0.99425 0.47691 0.59311 0.0
Li1145 Li 0.04246 0.47656 0.59084 0.0
Li1146 Li 0.01289 0.46668 0.57582 0.0
Li1147 Li 0.01859 0.43559 0.59077 0.0
C1148 C 0.00566 0.52462 0.58598 0.0
N1149 N 0.98282 0.573 0.59129 0.0
C1150 C 0.01847 0.54182 0.59318 0.0
C1151 C 0.9813 0.53209 0.58144 0.0
C1152 C 0.0066 0.56619 0.59576 0.0
C1153 C 0.97004 0.5566 0.58425 0.0
C1154 C 0.02154 0.44589 0.6117 0.0
C1155 C 0.04294 0.41337 0.62312 0.0
N1156 N 0.02082 0.41252 0.62943 0.0
C1157 C -0.00095 0.44477 0.61833 0.0
C1158 C 0.04372 0.43016 0.61413 0.0
C1159 C -0.00093 0.42775 0.62725 0.0
C1160 C 0.94023 0.4886 0.59717 0.0
N1161 N 0.96563 0.49345 0.60037 0.0
C1162 C 0.95072 0.52467 0.61356 0.0
C1163 C 0.97119 0.51064 0.60853 0.0
C1164 C 0.92428 0.52071 0.61021 0.0
C1165 C 0.91911 0.50211 0.602 0.0
H1166 H 0.93641 0.47449 0.59077 0.0
H1167 H 0.99163 0.51385 0.61096 0.0
C1168 C 0.0847 0.51214 0.58761 0.0
N1169 N 0.07422 0.49434 0.5947 0.0
C1170 C 0.10642 0.52781 0.59059 0.0
C1171 C 0.1066 0.50588 0.60798 0.0
C1172 C 0.08483 0.49071 0.60467 0.0
C1173 C 0.11728 0.52512 0.60097 0.0
H1174 H 0.07558 0.51477 0.57978 0.0
H1175 H 0.07578 0.47677 0.6102 0.0
C1176 C 0.97 0.43667 0.57559 0.0
N1177 N 0.9412 0.41671 0.5584 0.0
C1178 C 0.97237 0.40984 0.57268 0.0
C1179 C 0.95286 0.45331 0.56979 0.0
C1180 C 0.95765 0.40014 0.56396 0.0
C1181 C 0.93853 0.44286 0.5611 0.0
C1182 C 0.07154 0.44908 0.57753 0.0
C1183 C 0.07909 0.46273 0.56819 0.0
C1184 C 0.09105 0.43842 0.58431 0.0
C1185 C 0.10613 0.46566 0.56583 0.0
C1186 C 0.11788 0.44182 0.58168 0.0
N1187 N 0.1248 0.45526 0.57257 0.0
C1188 C 0.00529 0.49472 0.55643 0.0
C1189 C 0.01041 0.44802 0.55434 0.0
C1190 C 0.00285 0.49798 0.54531 0.0
N1191 N 0.00883 0.47003 0.56069 0.0
C1192 C 0.00788 0.45032 0.54316 0.0
C1193 C 0.00412 0.47561 0.53851 0.0
H1194 H 0.0048 0.51194 0.56165 0.0
H1195 H 0.01373 0.42869 0.55795 0.0
C1196 C -0.00087 0.38981 0.60096 0.0
N1197 N 0.01899 0.39927 0.59459 0.0
C1198 C -0.00176 0.36288 0.60368 0.0
C1199 C 0.03778 0.35584 0.5929 0.0
C1200 C 0.03819 0.38303 0.59058 0.0
C1201 C 0.01751 0.34538 0.5995 0.0
H1202 H 0.98382 0.40318 0.60384 0.0
H1203 H 0.05341 0.39108 0.58534 0.0
O1204 O 0.01667 0.50041 0.58353 0.0
O1205 O 0.02181 0.46226 0.60288 0.0
O1206 O 0.9845 0.44665 0.58401 0.0
O1207 O 0.0452 0.44648 0.5801 0.0
H1208 H 0.0372 0.5363 0.59686 0.0
H1209 H 0.97098 0.51892 0.57594 0.0
H1210 H 0.01623 0.57964 0.60136 0.0
H1211 H 0.95109 0.56253 0.58087 0.0
H1212 H 0.05989 0.40094 0.62504 0.0
H1213 H 0.98167 0.4567 0.61656 0.0
H1214 H 0.06121 0.4306 0.60904 0.0
H1215 H 0.98177 0.4266 0.63242 0.0
H1216 H 0.95562 0.53904 0.61977 0.0
H1217 H 0.89899 0.49816 0.5993 0.0
H1218 H 0.11419 0.54235 0.58496 0.0
H1219 H 0.11412 0.50353 0.61611 0.0
H1220 H 0.98557 0.39667 0.57705 0.0
H1221 H 0.95095 0.47417 0.57186 0.0
H1222 H 0.95936 0.37945 0.5616 0.0
H1223 H 0.92535 0.45555 0.55649 0.0
H1224 H 0.06426 0.4712 0.56287 0.0
H1225 H 0.08553 0.42789 0.59159 0.0
H1226 H 0.11228 0.47628 0.55866 0.0
H1227 H 0.1332 0.43383 0.58689 0.0
H1228 H 0.00062 0.51791 0.54207 0.0
H1229 H 0.00882 0.43252 0.53824 0.0
H1230 H 0.98243 0.35585 0.60889 0.0
H1231 H 0.05268 0.34308 0.58927 0.0
Li1232 Li 0.48281 0.47724 0.90716 0.0
Li1233 Li 0.53259 0.47572 0.90763 0.0
Li1234 Li 0.50646 0.43521 0.90824 0.0
Li1235 Li 0.5078 0.46351 0.92354 0.0
C1236 C 0.50838 0.44708 0.88755 0.0
N1237 N 0.50976 0.41394 0.86978 0.0
C1238 C 0.53278 0.43977 0.88302 0.0
C1239 C 0.48468 0.43774 0.88302 0.0
C1240 C 0.53305 0.42295 0.87404 0.0
C1241 C 0.4858 0.42094 0.87405 0.0
C1242 C 0.51734 0.52364 0.91687 0.0
C1243 C 0.5459 0.55635 0.92521 0.0
N1244 N 0.53719 0.57495 0.91805 0.0
C1245 C 0.50837 0.54318 0.9097 0.0
C1246 C 0.536 0.53034 0.92478 0.0
C1247 C 0.51877 0.56896 0.91038 0.0
C1248 C 0.43191 0.50126 0.90745 0.0
N1249 N 0.45404 0.49635 0.90148 0.0
C1250 C 0.43765 0.52293 0.88701 0.0
C1251 C 0.45712 0.50644 0.89139 0.0
C1252 C 0.41482 0.52894 0.89306 0.0
C1253 C 0.41177 0.51755 0.90334 0.0
H1254 H 0.43025 0.49307 0.9155 0.0
H1255 H 0.47508 0.50224 0.88689 0.0
C1256 C 0.58784 0.48372 0.90331 0.0
N1257 N 0.56261 0.49254 0.9016 0.0
C1258 C 0.60929 0.49652 0.89834 0.0
C1259 C 0.57818 0.52683 0.88989 0.0
C1260 C 0.55743 0.51327 0.89489 0.0
C1261 C 0.60458 0.51849 0.89156 0.0
H1262 H 0.59131 0.46655 0.90837 0.0
H1263 H 0.53708 0.51915 0.89337 0.0
C1264 C 0.46534 0.4279 0.92378 0.0
N1265 N 0.44509 0.39004 0.93773 0.0
C1266 C 0.48174 0.40765 0.92774 0.0
C1267 C 0.43863 0.42891 0.92691 0.0
C1268 C 0.47115 0.38869 0.93479 0.0
C1269 C 0.42877 0.40958 0.93397 0.0
C1270 C 0.55654 0.4381 0.92448 0.0
C1271 C 0.56084 0.41154 0.92743 0.0
C1272 C 0.57118 0.45831 0.92947 0.0
C1273 C 0.5794 0.40572 0.93549 0.0
C1274 C 0.58956 0.45169 0.93749 0.0
N1275 N 0.59323 0.42575 0.94032 0.0
C1276 C 0.52975 0.3883 0.90089 0.0
C1277 C 0.48262 0.38653 0.90196 0.0
C1278 C 0.53078 0.36182 0.89756 0.0
N1279 N 0.50597 0.39985 0.90317 0.0
C1280 C 0.48272 0.35989 0.89876 0.0
C1281 C 0.50708 0.34708 0.89669 0.0
H1282 H 0.54793 0.39966 0.90179 0.0
H1283 H 0.46399 0.39644 0.90371 0.0
C1284 C 0.49592 0.48957 0.94263 0.0
N1285 N 0.50649 0.4665 0.93881 0.0
C1286 C 0.49398 0.49395 0.9537 0.0
C1287 C 0.51342 0.4505 0.95674 0.0
C1288 C 0.51491 0.44693 0.94559 0.0
C1289 C 0.50288 0.4743 0.96091 0.0
H1290 H 0.489 0.50463 0.93706 0.0
H1291 H 0.52263 0.42848 0.94239 0.0
O1292 O 0.50772 0.46294 0.8965 0.0
O1293 O 0.50743 0.49826 0.9163 0.0
O1294 O 0.47526 0.44679 0.91691 0.0
O1295 O 0.53828 0.44416 0.91667 0.0
H1296 H 0.55129 0.44681 0.88647 0.0
H1297 H 0.46565 0.44319 0.88649 0.0
H1298 H 0.55178 0.41699 0.87047 0.0
H1299 H 0.46763 0.4134 0.87049 0.0
H1300 H 0.56043 0.56178 0.93127 0.0
H1301 H 0.49373 0.53844 0.9036 0.0
H1302 H 0.54258 0.51573 0.9306 0.0
H1303 H 0.51218 0.58421 0.90482 0.0
H1304 H 0.44054 0.53115 0.87901 0.0
H1305 H 0.3945 0.52193 0.90826 0.0
H1306 H 0.62925 0.48909 0.89969 0.0
H1307 H 0.57353 0.54383 0.88485 0.0
H1308 H 0.50242 0.4066 0.92542 0.0
H1309 H 0.42567 0.44448 0.92391 0.0
H1310 H 0.48364 0.37293 0.93792 0.0
H1311 H 0.40814 0.41011 0.93646 0.0
H1312 H 0.54988 0.39558 0.92359 0.0
H1313 H 0.56848 0.47887 0.92712 0.0
H1314 H 0.58282 0.38528 0.9379 0.0
H1315 H 0.60094 0.46717 0.94144 0.0
H1316 H 0.54994 0.35286 0.89586 0.0
H1317 H 0.46401 0.34922 0.89831 0.0
H1318 H 0.48593 0.51267 0.95658 0.0
H1319 H 0.52012 0.43469 0.96204 0.0
Li1320 Li 0.01917 0.55505 0.4069 0.0
Li1321 Li 0.01197 0.52322 0.42111 0.0
Li1322 Li 0.03969 0.5114 0.40484 0.0
Li1323 Li 0.99059 0.51711 0.40404 0.0
C1324 C 0.06893 0.55343 0.41771 0.0
N1325 N 0.11437 0.58357 0.42082 0.0
C1326 C 0.07157 0.56929 0.42692 0.0
C1327 C 0.08949 0.5528 0.41011 0.0
C1328 C 0.09466 0.58443 0.42833 0.0
C1329 C 0.11229 0.56819 0.41182 0.0
C1330 C 0.97196 0.55708 0.42277 0.0
C1331 C 0.9404 0.55245 0.43732 0.0
N1332 N 0.94586 0.57781 0.44052 0.0
C1333 C 0.97725 0.58311 0.4262 0.0
C1334 C 0.95333 0.54163 0.42836 0.0
C1335 C 0.96383 0.59323 0.43519 0.0
C1336 C -0.00187 0.60205 0.39942 0.0
N1337 N 0.02146 0.59179 0.40311 0.0
C1338 C 0.0427 0.63415 0.40129 0.0
C1339 C 0.0437 0.60712 0.40388 0.0
C1340 C 0.01867 0.64543 0.39771 0.0
C1341 C -0.00369 0.62885 0.39658 0.0
H1342 H 0.98078 0.58936 0.39879 0.0
H1343 H 0.06215 0.59874 0.40665 0.0
C1344 C 0.00632 0.49215 0.43984 0.0
N1345 N 0.00935 0.51754 0.43623 0.0
C1346 C 0.00441 0.48699 0.45086 0.0
C1347 C 0.00889 0.53424 0.45427 0.0
C1348 C 0.01091 0.53844 0.44318 0.0
C1349 C 0.00566 0.50821 0.45825 0.0
H1350 H 0.00565 0.47583 0.43416 0.0
H1351 H 0.01358 0.55841 0.44012 0.0
C1352 C 0.02026 0.54742 0.38564 0.0
N1353 N 0.02414 0.58296 0.3687 0.0
C1354 C -0.00266 0.55585 0.38023 0.0
C1355 C 0.04517 0.55681 0.38236 0.0
C1356 C -0.00028 0.57389 0.3717 0.0
C1357 C 0.04671 0.57485 0.3738 0.0
C1358 C -0.00276 0.46771 0.41007 0.0
C1359 C 0.00641 0.44973 0.4023 0.0
C1360 C 0.97288 0.46309 0.4152 0.0
C1361 C 0.99086 0.42753 0.3997 0.0
C1362 C 0.95789 0.44071 0.41235 0.0
N1363 N 0.96711 0.42355 0.40471 0.0
C1364 C 0.08858 0.48376 0.40608 0.0
C1365 C 0.0678 0.48448 0.3889 0.0
C1366 C 0.10931 0.46812 0.40207 0.0
N1367 N 0.06844 0.49148 0.39947 0.0
C1368 C 0.0879 0.4686 0.38458 0.0
C1369 C 0.10899 0.46009 0.3912 0.0
H1370 H 0.08844 0.4897 0.41447 0.0
H1371 H 0.0513 0.49075 0.3839 0.0
C1372 C 0.93526 0.50937 0.40056 0.0
N1373 N 0.96013 0.50447 0.39674 0.0
C1374 C 0.91317 0.49802 0.39551 0.0
C1375 C 0.94277 0.47778 0.38246 0.0
C1376 C 0.96423 0.48952 0.38776 0.0
C1377 C 0.91685 0.48166 0.38643 0.0
H1378 H 0.93262 0.52166 0.40763 0.0
H1379 H 0.98431 0.48612 0.38491 0.0
O1380 O 0.04664 0.53815 0.4163 0.0
O1381 O 0.98494 0.54676 0.41401 0.0
O1382 O 0.01829 0.53023 0.39415 0.0
O1383 O 0.01177 0.49 0.41248 0.0
H1384 H 0.05595 0.56997 0.4329 0.0
H1385 H 0.08781 0.54082 0.4029 0.0
H1386 H 0.09692 0.59685 0.43541 0.0
H1387 H 0.12829 0.56797 0.40598 0.0
H1388 H 0.92607 0.54066 0.44176 0.0
H1389 H 0.99178 0.5953 0.42208 0.0
H1390 H 0.94917 0.52138 0.4259 0.0
H1391 H 0.96781 0.61329 0.43795 0.0
H1392 H 0.06037 0.6462 0.40241 0.0
H1393 H 0.9775 0.63653 0.39366 0.0
H1394 H 0.00247 0.46656 0.45358 0.0
H1395 H 0.00968 0.55123 0.45965 0.0
H1396 H 0.9779 0.54877 0.38269 0.0
H1397 H 0.06309 0.55039 0.38644 0.0
H1398 H 0.98214 0.58073 0.36749 0.0
H1399 H 0.06584 0.58243 0.37122 0.0
H1400 H 0.0252 0.45298 0.39826 0.0
H1401 H 0.96546 0.47685 0.4212 0.0
H1402 H -0.00236 0.41353 0.39366 0.0
H1403 H 0.93889 0.43702 0.41617 0.0
H1404 H 0.12532 0.46231 0.40742 0.0
H1405 H 0.08648 0.46247 0.37623 0.0
H1406 H 0.89348 0.50174 0.39873 0.0
H1407 H 0.94653 0.46502 0.37558 0.0
C1408 C 0.00552 0.187 0.60987 0.0
C1409 C 0.00363 0.1755 0.59961 0.0
C1410 C 0.00825 0.21468 0.61104 0.0
C1411 C 0.00969 0.2309 0.60172 0.0
C1412 C 0.0084 0.21919 0.59134 0.0
C1413 C 0.00511 0.19159 0.59042 0.0
C1414 C 0.00903 0.22661 0.62222 0.0
C1415 C 0.01035 0.2358 0.5812 0.0
C1416 C 0.99052 0.30369 0.60152 0.0
C1417 C 0.01552 0.31621 0.60139 0.0
C1418 C 0.98833 0.27594 0.60229 0.0
C1419 C 0.0117 0.26026 0.60268 0.0
C1420 C 0.03696 0.2727 0.60295 0.0
C1421 C 0.03856 0.30057 0.60241 0.0
C1422 C 0.961 0.26334 0.60216 0.0
C1423 C 0.06233 0.25656 0.60326 0.0
H1424 H 0.00429 0.17437 0.61695 0.0
H1425 H 0.00397 0.18248 0.5825 0.0
H1426 H 0.02737 0.23865 0.62327 0.0
H1427 H 0.99186 0.24027 0.62331 0.0
H1428 H 0.00835 0.21115 0.62863 0.0
H1429 H 0.01027 0.2234 0.57378 0.0
H1430 H 0.99338 0.24992 0.5808 0.0
H1431 H 0.02889 0.24784 0.58133 0.0
H1432 H 0.97258 0.31545 0.60058 0.0
H1433 H 0.05793 0.31008 0.60256 0.0
H1434 H 0.95924 0.24827 0.60867 0.0
H1435 H 0.9579 0.25287 0.59438 0.0
H1436 H 0.9449 0.27832 0.60317 0.0
H1437 H 0.06164 0.24182 0.60992 0.0
H1438 H 0.08026 0.26928 0.60431 0.0
H1439 H 0.06442 0.24522 0.59562 0.0
C1440 C 0.95034 0.73176 0.85911 0.0
C1441 C 0.9397 0.73296 0.84868 0.0
C1442 C 0.97798 0.73147 0.8607 0.0
C1443 C 0.99508 0.73311 0.85166 0.0
C1444 C 0.9843 0.73425 0.84111 0.0
C1445 C 0.95667 0.73388 0.83975 0.0
C1446 C 0.98887 0.72959 0.87203 0.0
C1447 C 0.00193 0.7365 0.83128 0.0
C1448 C 0.06453 0.76141 0.85346 0.0
C1449 C 0.08006 0.73857 0.85171 0.0
C1450 C 0.03676 0.75977 0.85404 0.0
C1451 C 0.0243 0.73459 0.85309 0.0
C1452 C 0.03991 0.71123 0.8522 0.0
C1453 C 0.06764 0.71351 0.85141 0.0
C1454 C 0.02072 0.78516 0.85491 0.0
C1455 C 0.02727 0.68399 0.85142 0.0
H1456 H 0.93701 0.7309 0.86598 0.0
H1457 H 0.94826 0.73505 0.83171 0.0
H1458 H 0.00297 0.71263 0.87264 0.0
H1459 H 0.00015 0.74795 0.87402 0.0
H1460 H 0.97288 0.72689 0.87812 0.0
H1461 H 0.9903 0.73727 0.82366 0.0
H1462 H 0.01429 0.75479 0.83183 0.0
H1463 H 0.01571 0.71925 0.83088 0.0
H1464 H 0.07405 0.78076 0.85401 0.0
H1465 H 0.07941 0.69574 0.85 0.0
H1466 H 0.00564 0.78347 0.8614 0.0
H1467 H 0.00986 0.78861 0.84724 0.0
H1468 H 0.03345 0.80282 0.85656 0.0
H1469 H 0.01139 0.68168 0.85756 0.0
H1470 H 0.04207 0.66775 0.85249 0.0
H1471 H 0.01786 0.68163 0.84337 0.0
C1472 C 0.48631 0.68971 0.11231 0.0
C1473 C 0.50611 0.67508 0.10696 0.0
C1474 C 0.4872 0.71763 0.11259 0.0
C1475 C 0.50835 0.73109 0.10738 0.0
C1476 C 0.52931 0.71637 0.10262 0.0
C1477 C 0.52791 0.6885 0.10246 0.0
C1478 C 0.46464 0.7327 0.11784 0.0
C1479 C 0.55223 0.73005 0.097 0.0
C1480 C 0.49473 0.79752 0.09412 0.0
C1481 C 0.50738 0.81527 0.10118 0.0
C1482 C 0.49435 0.77013 0.09622 0.0
C1483 C 0.5069 0.76028 0.10564 0.0
C1484 C 0.51902 0.77814 0.11298 0.0
C1485 C 0.51912 0.80552 0.11065 0.0
C1486 C 0.48106 0.75168 0.08823 0.0
C1487 C 0.53253 0.76827 0.12309 0.0
H1488 H 0.46965 0.67933 0.11595 0.0
H1489 H 0.54315 0.67732 0.09823 0.0
H1490 H 0.47244 0.74896 0.12302 0.0
H1491 H 0.45211 0.74204 0.11151 0.0
H1492 H 0.45182 0.71947 0.12281 0.0
H1493 H 0.5684 0.71589 0.09487 0.0
H1494 H 0.54496 0.7396 0.08948 0.0
H1495 H 0.56065 0.746 0.10218 0.0
H1496 H 0.48519 0.80508 0.08689 0.0
H1497 H 0.52904 0.81922 0.1161 0.0
H1498 H 0.46577 0.73939 0.09235 0.0
H1499 H 0.49602 0.73783 0.08477 0.0
H1500 H 0.4714 0.76268 0.08151 0.0
H1501 H 0.51894 0.7551 0.12771 0.0
H1502 H 0.53903 0.78489 0.1284 0.0
H1503 H 0.55025 0.75623 0.1209 0.0
C1504 C 0.56383 0.26191 0.35838 0.0
C1505 C 0.57579 0.25299 0.34882 0.0
C1506 C 0.53615 0.2603 0.35979 0.0
C1507 C 0.52025 0.24945 0.35145 0.0
C1508 C 0.53229 0.24015 0.34184 0.0
C1509 C 0.55992 0.24204 0.34065 0.0
C1510 C 0.5239 0.2705 0.37012 0.0
C1511 C 0.51598 0.2283 0.33279 0.0
C1512 C 0.45093 0.22231 0.35614 0.0
C1513 C 0.4352 0.24256 0.35165 0.0
C1514 C 0.4787 0.22483 0.35665 0.0
C1515 C 0.49091 0.24817 0.35257 0.0
C1516 C 0.47505 0.26925 0.34854 0.0
C1517 C 0.44736 0.26615 0.34811 0.0
C1518 C 0.49501 0.20201 0.36104 0.0
C1519 C 0.48739 0.29446 0.34414 0.0
H1520 H 0.57608 0.27054 0.36468 0.0
H1521 H 0.56918 0.2347 0.33333 0.0
H1522 H 0.51008 0.28716 0.3683 0.0
H1523 H 0.51201 0.25453 0.374 0.0
H1524 H 0.53913 0.27764 0.37594 0.0
H1525 H 0.5285 0.22166 0.32591 0.0
H1526 H 0.50444 0.21096 0.3358 0.0
H1527 H 0.50145 0.24323 0.3298 0.0
H1528 H 0.44155 0.20422 0.35905 0.0
H1529 H 0.43535 0.28176 0.34452 0.0
H1530 H 0.50961 0.20937 0.36706 0.0
H1531 H 0.50647 0.19265 0.35439 0.0
H1532 H 0.48242 0.18646 0.36488 0.0
H1533 H 0.50208 0.30268 0.34994 0.0
H1534 H 0.47225 0.31002 0.34239 0.0
H1535 H 0.49824 0.28987 0.33657 0.0
C1536 C 0.01984 0.80008 0.40605 0.0
C1537 C 0.00892 0.81553 0.39775 0.0
C1538 C 0.02267 0.77248 0.4049 0.0
C1539 C 0.01412 0.76007 0.39525 0.0
C1540 C 0.00385 0.77568 0.38669 0.0
C1541 C 0.00148 0.80335 0.38803 0.0
C1542 C 0.03403 0.75651 0.41415 0.0
C1543 C 0.99437 0.76305 0.37633 0.0
C1544 C 0.0377 0.68898 0.39136 0.0
C1545 C 0.01649 0.67459 0.39589 0.0
C1546 C 0.03685 0.71688 0.39069 0.0
C1547 C 0.01414 0.73059 0.39453 0.0
C1548 C 0.99215 0.71613 0.3986 0.0
C1549 C 0.99368 0.68833 0.39931 0.0
C1550 C 0.06068 0.73172 0.38633 0.0
C1551 C 0.96748 0.73008 0.40269 0.0
H1552 H 0.02598 0.80962 0.41349 0.0
H1553 H 0.99294 0.81535 0.38163 0.0
H1554 H 0.01849 0.74309 0.41746 0.0
H1555 H 0.05065 0.74378 0.41128 0.0
H1556 H 0.04148 0.76943 0.42078 0.0
H1557 H 0.98915 0.77815 0.37013 0.0
H1558 H 0.00989 0.74964 0.373 0.0
H1559 H 0.97651 0.75066 0.37797 0.0
H1560 H 0.05519 0.67847 0.38852 0.0
H1561 H 0.97735 0.67749 0.40296 0.0
H1562 H 0.07026 0.74315 0.39294 0.0
H1563 H 0.05442 0.7463 0.3801 0.0
H1564 H 0.07573 0.71808 0.38277 0.0
H1565 H 0.97237 0.7415 0.4101 0.0
H1566 H 0.95119 0.71587 0.40462 0.0
H1567 H 0.9601 0.74453 0.39661 0.0
C1568 C 0.44974 0.76347 0.64056 0.0
C1569 C 0.43346 0.74209 0.64365 0.0
C1570 C 0.47743 0.76053 0.63997 0.0
C1571 C 0.48902 0.7356 0.64251 0.0
C1572 C 0.47257 0.7135 0.64495 0.0
C1573 C 0.44493 0.71703 0.64551 0.0
C1574 C 0.49434 0.78452 0.63728 0.0
C1575 C 0.48424 0.68657 0.64766 0.0
C1576 C 0.56255 0.72578 0.63667 0.0
C1577 C 0.57379 0.73156 0.64676 0.0
C1578 C 0.53487 0.72664 0.63515 0.0
C1579 C 0.51823 0.73355 0.64393 0.0
C1580 C 0.5295 0.73919 0.65414 0.0
C1581 C 0.55714 0.73813 0.65542 0.0
C1582 C 0.52344 0.72039 0.62418 0.0
C1583 C 0.51238 0.74676 0.66368 0.0
H1584 H 0.44086 0.78274 0.63891 0.0
H1585 H 0.43244 0.70047 0.64797 0.0
H1586 H 0.5054 0.79097 0.64458 0.0
H1587 H 0.50929 0.77939 0.63103 0.0
H1588 H 0.48222 0.80158 0.63435 0.0
H1589 H 0.4688 0.67073 0.64796 0.0
H1590 H 0.49958 0.68085 0.64166 0.0
H1591 H 0.49416 0.68757 0.65565 0.0
H1592 H 0.5754 0.72049 0.62998 0.0
H1593 H 0.56579 0.74307 0.66318 0.0
H1594 H 0.5126 0.73801 0.62102 0.0
H1595 H 0.50884 0.70387 0.62481 0.0
H1596 H 0.53907 0.71468 0.61827 0.0
H1597 H 0.50121 0.76531 0.66186 0.0
H1598 H 0.52428 0.75003 0.67112 0.0
H1599 H 0.49753 0.73088 0.66529 0.0
C1600 C 0.48843 0.30583 0.88809 0.0
C1601 C 0.50789 0.31803 0.89454 0.0
C1602 C 0.48732 0.278 0.88708 0.0
C1603 C 0.50618 0.26215 0.89262 0.0
C1604 C 0.52667 0.2744 0.89868 0.0
C1605 C 0.5272 0.30219 0.89961 0.0
C1606 C 0.46527 0.26554 0.88052 0.0
C1607 C 0.54722 0.25813 0.90467 0.0
C1608 C 0.48848 0.19341 0.90274 0.0
C1609 C 0.50272 0.17712 0.89561 0.0
C1610 C 0.4885 0.22114 0.90154 0.0
C1611 C 0.50318 0.2328 0.89302 0.0
C1612 C 0.5167 0.21641 0.88552 0.0
C1613 C 0.51629 0.18866 0.8869 0.0
C1614 C 0.47365 0.238 0.90966 0.0
C1615 C 0.53256 0.2282 0.87634 0.0
H1616 H 0.47372 0.31802 0.88402 0.0
H1617 H 0.54208 0.3114 0.90472 0.0
H1618 H 0.47344 0.25036 0.87491 0.0
H1619 H 0.45115 0.25519 0.88598 0.0
H1620 H 0.45404 0.28059 0.87577 0.0
H1621 H 0.56322 0.27074 0.90818 0.0
H1622 H 0.53745 0.24697 0.91131 0.0
H1623 H 0.55646 0.24327 0.8992 0.0
H1624 H 0.47757 0.18444 0.90936 0.0
H1625 H 0.52739 0.17605 0.88141 0.0
H1626 H 0.46017 0.25212 0.90546 0.0
H1627 H 0.48803 0.25003 0.9144 0.0
H1628 H 0.46168 0.22575 0.91534 0.0
H1629 H 0.52052 0.24318 0.87192 0.0
H1630 H 0.53942 0.21275 0.87056 0.0
H1631 H 0.55028 0.23866 0.87961 0.0
C1632 C 0.06673 0.25101 0.14281 0.0
C1633 C 0.07756 0.23468 0.15085 0.0
C1634 C 0.03912 0.25449 0.14198 0.0
C1635 C 0.02214 0.24087 0.14924 0.0
C1636 C 0.03305 0.22356 0.15711 0.0
C1637 C 0.06073 0.22092 0.1579 0.0
C1638 C 0.02818 0.27347 0.13363 0.0
C1639 C 0.01551 0.20829 0.16484 0.0
C1640 C 0.95407 0.26801 0.15628 0.0
C1641 C 0.93755 0.25193 0.14994 0.0
C1642 C 0.98179 0.26531 0.1558 0.0
C1643 C 0.99305 0.24563 0.149 0.0
C1644 C 0.9764 0.22967 0.14243 0.0
C1645 C 0.94874 0.23321 0.14291 0.0
C1646 C -0.00102 0.28307 0.16275 0.0
C1647 C 0.98771 0.20817 0.13524 0.0
H1648 H 0.07993 0.26178 0.13743 0.0
H1649 H 0.06929 0.20819 0.16406 0.0
H1650 H 0.01307 0.26329 0.12857 0.0
H1651 H 0.01808 0.29036 0.13771 0.0
H1652 H 0.044 0.28157 0.12829 0.0
H1653 H 0.02706 0.19423 0.16995 0.0
H1654 H 0.00482 0.22242 0.17019 0.0
H1655 H 0.00024 0.19686 0.16032 0.0
H1656 H 0.94524 0.28257 0.16167 0.0
H1657 H 0.93578 0.22067 0.13809 0.0
H1658 H 0.01449 0.29289 0.15776 0.0
H1659 H 0.00939 0.27089 0.16892 0.0
H1660 H 0.98721 0.2987 0.16694 0.0
H1661 H 0.00308 0.21663 0.1298 0.0
H1662 H 0.97214 0.1984 0.13025 0.0
H1663 H -0.00242 0.19275 0.14025 0.0
C1664 C 0.9944 0.9589 0.47784 0.0
C1665 C -0.00231 0.98091 0.471 0.0
C1666 C 0.99545 0.96185 0.48908 0.0
C1667 C -9e-05 0.98742 0.49356 0.0
C1668 C 0.00344 0.00968 0.4867 0.0
C1669 C 0.00229 0.00616 0.47549 0.0
C1670 C 0.99151 0.93768 0.49617 0.0
C1671 C 0.00833 0.03724 0.49119 0.0
C1672 C 0.97735 0.00107 0.52221 0.0
C1673 C 0.00139 -0.00062 0.52792 0.0
C1674 C 0.97655 -0.00303 0.51103 0.0
C1675 C 0.00039 0.99102 0.50544 0.0
C1676 C 0.02469 0.98902 0.51116 0.0
C1677 C 0.0249 0.99325 0.52235 0.0
C1678 C 0.95028 -0.00062 0.50518 0.0
C1679 C 0.05047 0.98258 0.50546 0.0
H1680 H 0.99055 0.9394 0.47441 0.0
H1681 H 0.00524 0.02316 0.47023 0.0
H1682 H 0.00887 0.93514 0.50161 0.0
H1683 H 0.97372 0.94051 0.50134 0.0
H1684 H 0.98888 0.9191 0.49141 0.0
H1685 H 0.01095 0.0524 0.48474 0.0
H1686 H 0.99136 0.04332 0.49637 0.0
H1687 H 0.0264 0.03716 0.49634 0.0
H1688 H 0.95918 0.00616 0.52646 0.0
H1689 H 0.04347 0.99161 0.52675 0.0
H1690 H 0.94597 0.98072 0.50071 0.0
H1691 H 0.95136 0.01573 0.49917 0.0
H1692 H 0.93346 0.00348 0.51076 0.0
H1693 H 0.04863 0.96332 0.50113 0.0
H1694 H 0.06758 0.98132 0.51112 0.0
H1695 H 0.05483 -0.00189 0.49934 0.0
C1696 C 0.22517 0.75082 0.76886 0.0
C1697 C 0.2447 0.74052 0.77581 0.0
C1698 C 0.22883 0.75083 0.75765 0.0
C1699 C 0.25291 0.74096 0.75328 0.0
C1700 C 0.27264 0.73037 0.7602 0.0
C1701 C 0.26815 0.72995 0.77136 0.0
C1702 C 0.20712 0.76186 0.75049 0.0
C1703 C 0.29874 0.72002 0.75583 0.0
C1704 C 0.25589 0.72306 0.72355 0.0
C1705 C 0.26635 0.7465 0.71913 0.0
C1706 C 0.25122 0.72099 0.73468 0.0
C1707 C 0.25783 0.74266 0.7415 0.0
C1708 C 0.26892 0.76618 0.73705 0.0
C1709 C 0.27273 0.76793 0.72587 0.0
C1710 C 0.23879 0.69586 0.73911 0.0
C1711 C 0.27678 0.78946 0.74409 0.0
H1712 H 0.20717 0.75946 0.77217 0.0
H1713 H 0.28315 0.72139 0.7766 0.0
H1714 H 0.21429 0.78014 0.74638 0.0
H1715 H 0.20192 0.74719 0.74413 0.0
H1716 H 0.18881 0.76688 0.75509 0.0
H1717 H 0.31198 0.71231 0.76229 0.0
H1718 H 0.29508 0.70381 0.74993 0.0
H1719 H 0.30932 0.73622 0.75149 0.0
H1720 H 0.25084 0.7066 0.71826 0.0
H1721 H 0.281 0.78596 0.72239 0.0
H1722 H 0.21979 0.70075 0.74323 0.0
H1723 H 0.2521 0.68673 0.74522 0.0
H1724 H 0.23473 0.6809 0.73271 0.0
H1725 H 0.25901 0.79745 0.7483 0.0
H1726 H 0.28611 0.80585 0.7394 0.0
H1727 H 0.29102 0.78278 0.75038 0.0
C1728 C 0.54323 0.97401 0.01788 0.0
C1729 C 0.52004 0.97824 0.02392 0.0
C1730 C 0.5435 0.97842 0.00671 0.0
C1731 C 0.52012 0.98763 0.00152 0.0
C1732 C 0.49671 0.99211 0.00762 0.0
C1733 C 0.49691 0.9872 0.01874 0.0
C1734 C 0.56871 0.97308 0.00043 0.0
C1735 C 0.4715 0.00228 0.00239 0.0
C1736 C 0.526 0.02267 0.97452 0.0
C1737 C 0.51776 0.00265 0.96735 0.0
C1738 C 0.52707 0.01799 0.98566 0.0
C1739 C 0.52003 0.99258 0.98972 0.0
C1740 C 0.51216 0.97214 0.98253 0.0
C1741 C 0.51096 0.97746 0.97144 0.0
C1742 C 0.53542 0.04033 0.9931 0.0
C1743 C 0.50464 0.94474 0.98657 0.0
H1744 H 0.56105 0.96689 0.02189 0.0
H1745 H 0.47907 0.99079 0.02344 0.0
H1746 H 0.56483 0.958 0.99407 0.0
H1747 H 0.57539 0.99155 0.99633 0.0
H1748 H 0.58511 0.96577 0.00567 0.0
H1749 H 0.4551 0.00498 0.0083 0.0
H1750 H 0.4754 0.02167 -0.00162 0.0
H1751 H 0.46479 0.98814 0.99607 0.0
H1752 H 0.53173 0.04204 0.97142 0.0
H1753 H 0.50421 0.96199 0.96599 0.0
H1754 H 0.55297 0.03416 0.99792 0.0
H1755 H 0.51912 0.04482 -0.00114 0.0
H1756 H 0.54049 0.05886 0.98865 0.0
H1757 H 0.52104 0.93634 0.99152 0.0
H1758 H 0.5002 0.93069 0.97989 0.0
H1759 H 0.48685 0.94615 0.99184 0.0
C1760 C 0.23739 0.22024 0.22672 0.0
C1761 C 0.25443 0.23366 0.21959 0.0
C1762 C 0.24217 0.22037 0.23786 0.0
C1763 C 0.26449 0.2343 0.24196 0.0
C1764 C 0.28184 0.2478 0.23481 0.0
C1765 C 0.27661 0.2473 0.2237 0.0
C1766 C 0.22329 0.20565 0.24524 0.0
C1767 C 0.30576 0.26296 0.23891 0.0
C1768 C 0.26143 0.25485 0.27136 0.0
C1769 C 0.27659 0.23481 0.27631 0.0
C1770 C 0.25773 0.2552 0.26015 0.0
C1771 C 0.26943 0.23498 0.25376 0.0
C1772 C 0.28518 0.21498 0.25868 0.0
C1773 C 0.28859 0.21515 0.2699 0.0
C1774 C 0.24095 0.27695 0.25518 0.0
C1775 C 0.29792 0.19307 0.25211 0.0
H1776 H 0.22043 0.20939 0.22356 0.0
H1777 H 0.28964 0.25797 0.21823 0.0
H1778 H 0.23434 0.19046 0.24995 0.0
H1779 H 0.2143 0.21975 0.25109 0.0
H1780 H 0.20702 0.19556 0.24074 0.0
H1781 H 0.3175 0.27208 0.23228 0.0
H1782 H 0.29924 0.279 0.24448 0.0
H1783 H 0.31895 0.24944 0.24356 0.0
H1784 H 0.25244 0.2703 0.27627 0.0
H1785 H 0.30009 0.19947 0.27371 0.0
H1786 H 0.22329 0.26807 0.25118 0.0
H1787 H 0.25249 0.28759 0.24888 0.0
H1788 H 0.234 0.2917 0.26124 0.0
H1789 H 0.28226 0.18103 0.24809 0.0
H1790 H 0.31037 0.1796 0.25711 0.0
H1791 H 0.31054 0.20178 0.24566 0.0
C1792 C 0.74476 0.23749 0.22411 0.0
C1793 C 0.76797 0.24865 0.21972 0.0
C1794 C 0.74035 0.23743 0.23527 0.0
C1795 C 0.75972 0.24859 0.24222 0.0
C1796 C 0.78336 0.25956 0.23787 0.0
C1797 C 0.78716 0.25954 0.22666 0.0
C1798 C 0.71488 0.22558 0.23963 0.0
C1799 C 0.8045 0.27155 0.24505 0.0
C1800 C 0.73785 0.2718 0.26994 0.0
C1801 C 0.74585 0.2504 0.27645 0.0
C1802 C 0.74219 0.27144 0.25878 0.0
C1803 C 0.75503 0.24921 0.25404 0.0
C1804 C 0.76325 0.22758 0.26057 0.0
C1805 C 0.75846 0.22839 0.27171 0.0
C1806 C 0.73292 0.29475 0.25205 0.0
C1807 C 0.77722 0.20367 0.2558 0.0
H1808 H 0.73005 0.22863 0.21881 0.0
H1809 H 0.80499 0.2685 0.22333 0.0
H1810 H 0.71951 0.20919 0.24534 0.0
H1811 H 0.70364 0.24094 0.24419 0.0
H1812 H 0.70186 0.21762 0.23314 0.0
H1813 H 0.82213 0.27847 0.24041 0.0
H1814 H 0.79613 0.28875 0.24954 0.0
H1815 H 0.81115 0.25669 0.2511 0.0
H1816 H 0.72784 0.28871 0.27359 0.0
H1817 H 0.76494 0.21197 0.27675 0.0
H1818 H 0.71856 0.28781 0.24585 0.0
H1819 H 0.75006 0.30371 0.24772 0.0
H1820 H 0.72323 0.31048 0.25698 0.0
H1821 H 0.76434 0.19411 0.24964 0.0
H1822 H 0.78245 0.18858 0.262 0.0
H1823 H 0.79574 0.21009 0.25166 0.0
C1824 C 0.72236 0.74863 0.72702 0.0
C1825 C 0.74266 0.74143 0.71982 0.0
C1826 C 0.72677 0.7486 0.73819 0.0
C1827 C 0.75209 0.74127 0.74223 0.0
C1828 C 0.7727 0.73412 0.735 0.0
C1829 C 0.76771 0.73425 0.72388 0.0
C1830 C 0.70429 0.75621 0.74567 0.0
C1831 C 0.8 0.72636 0.73902 0.0
C1832 C 0.77102 0.76358 0.77044 0.0
C1833 C 0.76638 0.74035 0.77645 0.0
C1834 C 0.76646 0.76417 0.75928 0.0
C1835 C 0.75701 0.74097 0.75403 0.0
C1836 C 0.75229 0.71745 0.76004 0.0
C1837 C 0.75706 0.71742 0.77118 0.0
C1838 C 0.77166 0.78962 0.75312 0.0
C1839 C 0.74228 0.69232 0.7547 0.0
H1840 H 0.70289 0.75391 0.72391 0.0
H1841 H 0.78355 0.72903 0.71832 0.0
H1842 H 0.69974 0.7394 0.75118 0.0
H1843 H 0.7103 0.77339 0.75075 0.0
H1844 H 0.68585 0.76161 0.74122 0.0
H1845 H 0.81386 0.72139 0.73233 0.0
H1846 H 0.80871 0.74292 0.74379 0.0
H1847 H 0.79846 0.70885 0.74445 0.0
H1848 H 0.77788 0.78145 0.77449 0.0
H1849 H 0.75379 0.69931 0.77577 0.0
H1850 H 0.75307 0.79649 0.74917 0.0
H1851 H 0.78647 0.78595 0.74665 0.0
H1852 H 0.77919 0.80585 0.75841 0.0
H1853 H 0.72304 0.69627 0.7506 0.0
H1854 H 0.73942 0.67578 0.76054 0.0
H1855 H 0.75659 0.68574 0.74842 0.0
C1856 C 0.47843 0.49019 0.97726 0.0
C1857 C 0.50132 0.47882 0.9727 0.0
C1858 C 0.47707 0.49562 0.98834 0.0
C1859 C 0.49914 0.48956 0.99499 0.0
C1860 C 0.52214 0.47768 0.99047 0.0
C1861 C 0.52295 0.47243 0.97936 0.0
C1862 C 0.45214 0.50813 0.99289 0.0
C1863 C 0.54608 0.47101 0.99733 0.0
C1864 C 0.50632 0.52766 0.02125 0.0
C1865 C 0.49679 0.5091 0.02877 0.0
C1866 C 0.50724 0.52152 0.01022 0.0
C1867 C 0.49838 0.49623 0.00665 0.0
C1868 C 0.4887 0.47741 0.01419 0.0
C1869 C 0.48804 0.48407 0.02517 0.0
C1870 C 0.51762 0.54212 0.00239 0.0
C1871 C 0.47916 0.45021 0.01066 0.0
H1872 H 0.46153 0.4948 0.97215 0.0
H1873 H 0.54077 0.4639 0.97585 0.0
H1874 H 0.44393 0.49543 -0.00058 0.0
H1875 H 0.45696 0.52778 0.99651 0.0
H1876 H 0.4365 0.51102 0.98666 0.0
H1877 H 0.56206 0.46104 0.99263 0.0
H1878 H 0.55431 0.4895 0.00094 0.0
H1879 H 0.54015 0.45775 0.00407 0.0
H1880 H 0.51282 0.54713 0.02398 0.0
H1881 H 0.48104 0.4695 0.03097 0.0
H1882 H 0.50198 0.54711 0.9964 0.0
H1883 H 0.53484 0.53395 0.99787 0.0
H1884 H 0.52395 0.56076 0.0065 0.0
H1885 H 0.46268 0.45232 0.00477 0.0
H1886 H 0.47206 0.43794 0.01755 0.0
H1887 H 0.49551 0.43938 0.00655 0.0
C1888 C 0.98462 0.49728 0.5221 0.0
C1889 C 0.00242 0.47886 0.52663 0.0
C1890 C 0.98396 0.50175 0.51094 0.0
C1891 C 0.00135 0.48727 0.50414 0.0
C1892 C 0.01884 0.46811 0.50861 0.0
C1893 C 0.01925 0.46422 0.51981 0.0
C1894 C 0.96507 0.52239 0.50645 0.0
C1895 C 0.03757 0.45218 0.50159 0.0
C1896 C 0.98642 0.48404 0.47416 0.0
C1897 C 0.00413 0.50314 0.47003 0.0
C1898 C 0.98525 0.47867 0.48525 0.0
C1899 C 0.00202 0.4929 0.49239 0.0
C1900 C 0.01973 0.51238 0.4883 0.0
C1901 C 0.02066 0.51718 0.47717 0.0
C1902 C 0.96618 0.45768 0.48933 0.0
C1903 C 0.03786 0.52803 0.49568 0.0
H1904 H 0.97123 0.50834 0.52729 0.0
H1905 H 0.03331 0.4502 0.52325 0.0
H1906 H 0.97655 0.53857 0.5025 0.0
H1907 H 0.95212 0.51331 0.5002 0.0
H1908 H 0.95225 0.53133 0.51279 0.0
H1909 H 0.04885 0.43702 0.50626 0.0
H1910 H 0.02628 0.44191 0.49512 0.0
H1911 H 0.05199 0.46575 0.49762 0.0
H1912 H 0.97331 0.47339 0.46871 0.0
H1913 H 0.03469 0.53166 0.47404 0.0
H1914 H 0.95217 0.4666 0.49523 0.0
H1915 H 0.97736 0.44179 0.4936 0.0
H1916 H 0.95446 0.44842 0.48272 0.0
H1917 H 0.02592 0.53856 0.50189 0.0
H1918 H 0.04998 0.54296 0.49125 0.0
H1919 H 0.0515 0.51427 0.49998 0.0
C1920 C 0.19114 0.88505 0.6446 0.0
C1921 C 0.21651 0.88336 0.63992 0.0
C1922 C 0.17159 0.90182 0.64025 0.0
C1923 C 0.17749 0.91707 0.63096 0.0
C1924 C 0.2034 0.91638 0.62648 0.0
C1925 C 0.22265 0.89954 0.63104 0.0
C1926 C 0.14419 0.9021 0.64528 0.0
C1927 C 0.21041 0.93243 0.61658 0.0
C1928 C 0.11892 0.93207 0.61272 0.0
C1929 C 0.11313 0.95854 0.61546 0.0
C1930 C 0.14017 0.91854 0.61758 0.0
C1931 C 0.15588 0.9318 0.6254 0.0
C1932 C 0.15035 0.95864 0.6281 0.0
C1933 C 0.12903 0.97175 0.62306 0.0
C1934 C 0.1456 0.88996 0.61442 0.0
C1935 C 0.16658 0.97328 0.63647 0.0
H1936 H 0.18609 0.8723 0.65135 0.0
H1937 H 0.24234 0.89854 0.62748 0.0
H1938 H 0.13749 0.9229 0.64666 0.0
H1939 H 0.12973 0.89266 0.63969 0.0
H1940 H 0.14361 0.89121 0.65308 0.0
H1941 H 0.23201 0.93155 0.61469 0.0
H1942 H 0.19916 0.92467 0.60954 0.0
H1943 H 0.20458 0.95359 0.61767 0.0
H1944 H 0.10688 0.92196 0.60673 0.0
H1945 H 0.12442 0.99216 0.62525 0.0
H1946 H 0.14327 0.8768 0.62155 0.0
H1947 H 0.16644 0.88788 0.61157 0.0
H1948 H 0.13201 0.88284 0.60796 0.0
H1949 H 0.16442 0.9633 0.64441 0.0
H1950 H 0.16039 0.99445 0.63732 0.0
H1951 H 0.188 0.97267 0.63431 0.0
C1952 C 0.28039 0.89373 0.86577 0.0
C1953 C 0.28907 0.87961 0.85665 0.0
C1954 C 0.29701 0.91231 0.87089 0.0
C1955 C 0.32274 0.9171 0.86668 0.0
C1956 C 0.33082 0.90447 0.85701 0.0
C1957 C 0.31398 0.88572 0.85216 0.0
C1958 C 0.28772 0.92543 0.88118 0.0
C1959 C 0.35801 0.90934 0.85219 0.0
C1960 C 0.36645 0.97372 0.87663 0.0
C1961 C 0.38411 0.95992 0.88336 0.0
C1962 C 0.34567 0.96026 0.87136 0.0
C1963 C 0.34249 0.93251 0.87301 0.0
C1964 C 0.35956 0.91882 0.88022 0.0
C1965 C 0.38029 0.93269 0.88525 0.0
C1966 C 0.32798 0.97542 0.86367 0.0
C1967 C 0.35656 0.8893 0.88232 0.0
H1968 H 0.26093 0.88958 0.86915 0.0
H1969 H 0.32107 0.87478 0.8452 0.0
H1970 H 0.2988 0.91688 0.88811 0.0
H1971 H 0.29191 0.94713 0.88102 0.0
H1972 H 0.26608 0.9224 0.88259 0.0
H1973 H 0.35989 0.90071 0.84397 0.0
H1974 H 0.36223 0.93103 0.85175 0.0
H1975 H 0.37344 0.90021 0.85742 0.0
H1976 H 0.36957 0.9948 0.87514 0.0
H1977 H 0.39382 0.92215 0.89057 0.0
H1978 H 0.30671 0.97111 0.86534 0.0
H1979 H 0.3321 0.96885 0.85529 0.0
H1980 H 0.33121 -0.00271 0.86416 0.0
H1981 H 0.3358 0.88465 0.88473 0.0
H1982 H 0.37023 0.88212 0.88874 0.0
H1983 H 0.36081 0.878 0.87482 0.0
C1984 C 0.39334 0.06358 0.10457 0.0
C1985 C 0.39237 0.03569 0.10516 0.0
C1986 C 0.37359 0.07928 0.10938 0.0
C1987 C 0.35236 0.06677 0.11492 0.0
C1988 C 0.35083 0.03861 0.11531 0.0
C1989 C 0.37093 0.02337 0.11043 0.0
C1990 C 0.37594 0.10928 0.10883 0.0
C1991 C 0.32836 0.02463 0.12109 0.0
C1992 C 0.32076 0.10936 0.13661 0.0
C1993 C 0.29869 0.1199 0.13117 0.0
C1994 C 0.33782 0.09116 0.13154 0.0
C1995 C 0.33264 0.08335 0.12078 0.0
C1996 C 0.30979 0.09307 0.11538 0.0
C1997 C 0.29308 0.11131 0.12065 0.0
C1998 C 0.36206 0.08126 0.13755 0.0
C1999 C 0.30356 0.08501 0.10392 0.0
H2000 H 0.41006 0.0732 0.10065 0.0
H2001 H 0.36998 0.00179 0.1108 0.0
H2002 H 0.35741 0.11802 0.10548 0.0
H2003 H 0.37856 0.11749 0.11708 0.0
H2004 H 0.393 0.11583 0.10378 0.0
H2005 H 0.32916 0.00265 0.12005 0.0
H2006 H 0.32928 0.02923 0.12984 0.0
H2007 H 0.30889 0.03196 0.11808 0.0
H2008 H 0.32536 0.11617 0.1447 0.0
H2009 H 0.27582 0.11916 0.11647 0.0
H2010 H 0.38034 0.08896 0.1336 0.0
H2011 H 0.363 0.05918 0.13726 0.0
H2012 H 0.36215 0.08769 0.14612 0.0
H2013 H 0.31901 0.0931 0.09843 0.0
H2014 H 0.28381 0.09243 0.10123 0.0
H2015 H 0.30394 0.06298 0.10312 0.0
C2016 C 0.12702 0.01995 0.37659 0.0
C2017 C 0.11164 0.03311 0.38439 0.0
C2018 C 0.14823 0.03295 0.37144 0.0
C2019 C 0.15411 0.0597 0.37417 0.0
C2020 C 0.13904 0.07287 0.38221 0.0
C2021 C 0.11796 0.05942 0.38722 0.0
C2022 C 0.16396 0.01829 0.36292 0.0
C2023 C 0.14471 0.10144 0.38532 0.0
C2024 C 0.22015 0.09215 0.36732 0.0
C2025 C 0.21306 0.10809 0.35848 0.0
C2026 C 0.20142 0.07542 0.37229 0.0
C2027 C 0.17507 0.07456 0.36826 0.0
C2028 C 0.16814 0.0896 0.35903 0.0
C2029 C 0.18718 0.10627 0.35428 0.0
C2030 C 0.2095 0.05958 0.38211 0.0
C2031 C 0.14024 0.08911 0.35447 0.0
H2032 H 0.12242 -0.00052 0.3745 0.0
H2033 H 0.10594 0.06977 0.39315 0.0
H2034 H 0.16123 0.02819 0.35499 0.0
H2035 H 0.18552 0.019 0.36484 0.0
H2036 H 0.15779 -0.0029 0.36216 0.0
H2037 H 0.13195 0.10835 0.39209 0.0
H2038 H 0.16588 0.10367 0.38772 0.0
H2039 H 0.14129 0.11468 0.37829 0.0
H2040 H 0.24021 0.09319 0.37051 0.0
H2041 H 0.18138 0.11879 0.34755 0.0
H2042 H 0.20365 0.03838 0.38117 0.0
H2043 H 0.19896 0.06741 0.38931 0.0
H2044 H 0.23128 0.06058 0.38363 0.0
H2045 H 0.13364 0.06826 0.35314 0.0
H2046 H 0.13871 0.10014 0.34673 0.0
H2047 H 0.12627 0.09825 0.36034 0.0
C2048 C 0.851 0.04676 0.3942 0.0
C2049 C 0.86838 0.03178 0.38777 0.0
C2050 C 0.83306 0.0648 0.38954 0.0
C2051 C 0.83291 0.06817 0.3782 0.0
C2052 C 0.84936 0.05197 0.37164 0.0
C2053 C 0.86684 0.03383 0.37652 0.0
C2054 C 0.81546 0.08138 0.39678 0.0
C2055 C 0.84994 0.05515 0.35953 0.0
C2056 C 0.77891 0.10887 0.36444 0.0
C2057 C 0.7915 0.13373 0.3634 0.0
C2058 C 0.79193 0.08735 0.36941 0.0
C2059 C 0.81817 0.09078 0.37332 0.0
C2060 C 0.83084 0.11587 0.37238 0.0
C2061 C 0.8173 0.13706 0.36751 0.0
C2062 C 0.77776 0.06091 0.37036 0.0
C2063 C 0.85886 0.12032 0.37645 0.0
H2064 H 0.85204 0.04494 0.40291 0.0
H2065 H 0.88045 0.0224 0.37154 0.0
H2066 H 0.82276 0.10226 0.39689 0.0
H2067 H 0.79475 0.08172 0.39367 0.0
H2068 H 0.81524 0.07378 0.40519 0.0
H2069 H 0.86159 0.03912 0.35554 0.0
H2070 H 0.82944 0.05508 0.35621 0.0
H2071 H 0.85905 0.07464 0.35745 0.0
H2072 H 0.75906 0.1061 0.36121 0.0
H2073 H 0.82692 0.15635 0.36695 0.0
H2074 H 0.77761 0.05423 0.37889 0.0
H2075 H 0.78856 0.04554 0.36565 0.0
H2076 H 0.7569 0.06191 0.36741 0.0
H2077 H 0.85989 0.11604 0.38522 0.0
H2078 H 0.86587 0.14105 0.37507 0.0
H2079 H 0.87276 0.10643 0.37235 0.0
C2080 C 0.64924 0.0515 0.10248 0.0
C2081 C 0.63422 0.0348 0.10922 0.0
C2082 C 0.66839 0.06885 0.10678 0.0
C2083 C 0.67238 0.06968 0.11807 0.0
C2084 C 0.65833 0.05188 0.12485 0.0
C2085 C 0.63952 0.03454 0.12033 0.0
C2086 C 0.68324 0.08736 0.09929 0.0
C2087 C 0.66202 0.05221 0.13694 0.0
C2088 C 0.73136 0.10714 0.12983 0.0
C2089 C 0.71969 0.13176 0.13233 0.0
C2090 C 0.71631 0.08671 0.12505 0.0
C2091 C 0.68897 0.09104 0.1229 0.0
C2092 C 0.67712 0.11584 0.12548 0.0
C2093 C 0.69267 0.13594 0.13012 0.0
C2094 C 0.72961 0.06061 0.12228 0.0
C2095 C 0.64793 0.12108 0.12343 0.0
H2096 H 0.64515 0.05196 0.0939 0.0
H2097 H 0.62838 0.02126 0.12555 0.0
H2098 H 0.67606 0.10808 0.10048 0.0
H2099 H 0.70485 0.08716 0.10114 0.0
H2100 H 0.6804 0.08192 0.09068 0.0
H2101 H 0.65145 0.03547 0.14096 0.0
H2102 H 0.68346 0.05108 0.13903 0.0
H2103 H 0.65427 0.07124 0.14025 0.0
H2104 H 0.75232 0.10401 0.13149 0.0
H2105 H 0.68359 0.15487 0.1322 0.0
H2106 H 0.72745 0.05651 0.11353 0.0
H2107 H 0.71976 0.04403 0.12665 0.0
H2108 H 0.75113 0.06058 0.12436 0.0
H2109 H 0.64343 0.11866 0.11472 0.0
H2110 H 0.64182 0.14144 0.12595 0.0
H2111 H 0.63563 0.10636 0.12788 0.0
C2112 C 0.71666 0.88477 0.85602 0.0
C2113 C 0.72358 0.86296 0.8625 0.0
C2114 C 0.6995 0.90463 0.85989 0.0
C2115 C 0.68935 0.90266 0.87051 0.0
C2116 C 0.69758 0.8815 0.87729 0.0
C2117 C 0.71449 0.86177 0.87317 0.0
C2118 C 0.69094 0.92675 0.8524 0.0
C2119 C 0.68749 0.87896 0.88872 0.0
C2120 C 0.65315 0.96157 0.88298 0.0
C2121 C 0.62645 0.95412 0.88151 0.0
C2122 C 0.67397 0.9451 0.8794 0.0
C2123 C 0.66786 0.92085 0.87412 0.0
C2124 C 0.641 0.91344 0.87247 0.0
C2125 C 0.62066 0.93 0.87627 0.0
C2126 C 0.70243 0.95344 0.88139 0.0
C2127 C 0.6337 0.88778 0.8668 0.0
H2128 H 0.72358 0.88558 0.84774 0.0
H2129 H 0.72016 0.84504 0.87821 0.0
H2130 H 0.66966 0.92406 0.85025 0.0
H2131 H 0.69282 0.9464 0.85643 0.0
H2132 H 0.70282 0.92708 0.84484 0.0
H2133 H 0.69815 0.8632 0.89329 0.0
H2134 H 0.68969 0.89817 0.89307 0.0
H2135 H 0.66596 0.87398 0.88861 0.0
H2136 H 0.65781 0.98029 0.88691 0.0
H2137 H 0.60016 0.92372 0.87532 0.0
H2138 H 0.71339 0.95461 0.87364 0.0
H2139 H 0.71261 0.93827 0.88643 0.0
H2140 H 0.70381 0.97307 0.88551 0.0
H2141 H 0.64331 0.88698 0.85875 0.0
H2142 H 0.61185 0.88556 0.86572 0.0
H2143 H 0.64112 0.87049 0.8715 0.0
C2144 C 0.77677 0.87478 0.6239 0.0
C2145 C 0.78455 0.86656 0.63425 0.0
C2146 C 0.79128 0.89427 0.6183 0.0
C2147 C 0.81421 0.90551 0.62312 0.0
C2148 C 0.82136 0.89825 0.63377 0.0
C2149 C 0.80634 0.879 0.63922 0.0
C2150 C 0.78286 0.90181 0.60701 0.0
C2151 C 0.8457 0.9098 0.6392 0.0
C2152 C 0.87236 0.92754 0.60593 0.0
C2153 C 0.87089 0.95534 0.60686 0.0
C2154 C 0.85336 0.91113 0.61085 0.0
C2155 C 0.83228 0.92283 0.61676 0.0
C2156 C 0.82993 0.95092 0.61729 0.0
C2157 C 0.84942 0.96689 0.61238 0.0
C2158 C 0.85665 0.88123 0.61017 0.0
C2159 C 0.80746 0.96407 0.62337 0.0
H2160 H 0.76005 0.86516 0.61998 0.0
H2161 H 0.81208 0.87315 0.64731 0.0
H2162 H 0.78289 0.9238 0.60603 0.0
H2163 H 0.79728 0.89354 0.60112 0.0
H2164 H 0.76273 0.8941 0.605 0.0
H2165 H 0.84752 0.90336 0.64774 0.0
H2166 H 0.86385 0.9034 0.6348 0.0
H2167 H 0.84508 0.9319 0.63895 0.0
H2168 H 0.88911 0.91855 0.60179 0.0
H2169 H 0.84813 0.98841 0.613 0.0
H2170 H 0.838 0.87183 0.60726 0.0
H2171 H 0.86079 0.87308 0.61832 0.0
H2172 H 0.87317 0.87534 0.60471 0.0
H2173 H 0.78807 0.95529 0.62097 0.0
H2174 H 0.80677 0.98594 0.62198 0.0
H2175 H 0.80994 0.96048 0.63215 0.0
C2176 C 0.7133 0.3759 0.1246 0.0
C2177 C 0.70837 0.36457 0.13475 0.0
C2178 C 0.69527 0.39394 0.11998 0.0
C2179 C 0.67178 0.40071 0.12565 0.0
C2180 C 0.66711 0.39001 0.13604 0.0
C2181 C 0.68547 0.37205 0.14047 0.0
C2182 C 0.70096 0.40512 0.10891 0.0
C2183 C 0.64222 0.39673 0.14232 0.0
C2184 C 0.63109 0.46114 0.11746 0.0
C2185 C 0.6105 0.44928 0.1115 0.0
C2186 C 0.6515 0.44564 0.12197 0.0
C2187 C 0.65123 0.41767 0.12048 0.0
C2188 C 0.63077 0.40565 0.11431 0.0
C2189 C 0.61067 0.42162 0.10989 0.0
C2190 C 0.67302 0.45909 0.1285 0.0
C2191 C 0.62989 0.37587 0.11252 0.0
H2192 H 0.73115 0.37041 0.12022 0.0
H2193 H 0.68139 0.3631 0.14825 0.0
H2194 H 0.68573 0.39792 0.10312 0.0
H2195 H 0.69972 0.4272 0.10905 0.0
H2196 H 0.72094 0.39924 0.10589 0.0
H2197 H 0.64242 0.38808 0.15057 0.0
H2198 H 0.63991 0.41867 0.14299 0.0
H2199 H 0.6245 0.38903 0.13798 0.0
H2200 H 0.63089 0.48249 0.11881 0.0
H2201 H 0.59503 0.41243 0.10514 0.0
H2202 H 0.69294 0.45367 0.12532 0.0
H2203 H 0.67213 0.45207 0.13698 0.0
H2204 H 0.67109 0.48116 0.12845 0.0
H2205 H 0.6487 0.36903 0.10873 0.0
H2206 H 0.61297 0.36976 0.1073 0.0
H2207 H 0.62805 0.36546 0.12038 0.0
C2208 C 0.83011 0.36697 0.36269 0.0
C2209 C 0.80407 0.37296 0.35944 0.0
C2210 C 0.84688 0.38676 0.36683 0.0
C2211 C 0.83738 0.41323 0.36772 0.0
C2212 C 0.81121 0.41954 0.36435 0.0
C2213 C 0.79483 0.39928 0.36022 0.0
C2214 C 0.87475 0.37929 0.37028 0.0
C2215 C 0.80046 0.44756 0.36523 0.0
C2216 C 0.8755 0.45429 0.38812 0.0
C2217 C 0.89415 0.4672 0.38152 0.0
C2218 C 0.85587 0.43776 0.38367 0.0
C2219 C 0.85498 0.43402 0.37236 0.0
C2220 C 0.87284 0.4481 0.36562 0.0
C2221 C 0.89224 0.46455 0.37029 0.0
C2222 C 0.83711 0.4231 0.39112 0.0
C2223 C 0.87239 0.4447 0.35352 0.0
H2224 H 0.83749 0.34675 0.3619 0.0
H2225 H 0.77463 0.40392 0.35777 0.0
H2226 H 0.88954 0.39129 0.36575 0.0
H2227 H 0.87751 0.3838 0.37897 0.0
H2228 H 0.87912 0.35782 0.36895 0.0
H2229 H 0.77993 0.4493 0.36197 0.0
H2230 H 0.80032 0.45391 0.3738 0.0
H2231 H 0.81357 0.4616 0.3608 0.0
H2232 H 0.87704 0.45605 0.39681 0.0
H2233 H 0.90636 0.47485 0.36516 0.0
H2234 H 0.84197 0.40152 0.39106 0.0
H2235 H 0.81626 0.42522 0.3883 0.0
H2236 H 0.83844 0.43044 0.39956 0.0
H2237 H 0.87895 0.42422 0.35142 0.0
H2238 H 0.88566 0.45915 0.34937 0.0
H2239 H 0.85185 0.44719 0.35038 0.0
C2240 C 0.88275 0.54775 0.60823 0.0
C2241 C 0.90244 0.53681 0.61492 0.0
C2242 C 0.86311 0.56466 0.61242 0.0
C2243 C 0.8633 0.57088 0.62355 0.0
C2244 C 0.8826 0.55927 0.63041 0.0
C2245 C 0.90194 0.54231 0.62601 0.0
C2246 C 0.84278 0.57666 0.60487 0.0
C2247 C 0.88336 0.56544 0.64233 0.0
C2248 C 0.8338 0.63719 0.63188 0.0
C2249 C 0.80893 0.62952 0.63596 0.0
C2250 C 0.85167 0.61825 0.62783 0.0
C2251 C 0.84447 0.59097 0.62787 0.0
C2252 C 0.8194 0.58305 0.63198 0.0
C2253 C 0.80191 0.60246 0.63601 0.0
C2254 C 0.87831 0.62743 0.62356 0.0
C2255 C 0.81106 0.55413 0.63209 0.0
H2256 H 0.88323 0.54385 0.59963 0.0
H2257 H 0.91687 0.53356 0.63123 0.0
H2258 H 0.82237 0.57337 0.60802 0.0
H2259 H 0.84589 0.59852 0.60434 0.0
H2260 H 0.84404 0.56813 0.59662 0.0
H2261 H 0.89865 0.55352 0.64665 0.0
H2262 H 0.88781 0.58691 0.64353 0.0
H2263 H 0.86365 0.5615 0.64603 0.0
H2264 H 0.83946 0.65805 0.63199 0.0
H2265 H 0.78259 0.59651 0.63907 0.0
H2266 H 0.88053 0.6214 0.615 0.0
H2267 H 0.89462 0.61774 0.62815 0.0
H2268 H 0.88082 0.64939 0.62412 0.0
H2269 H 0.81101 0.54614 0.62374 0.0
H2270 H 0.79094 0.55127 0.63563 0.0
H2271 H 0.82556 0.54217 0.63679 0.0
C2272 C 0.72211 0.59857 0.86133 0.0
C2273 C 0.71813 0.62544 0.86394 0.0
C2274 C 0.70616 0.57864 0.86594 0.0
C2275 C 0.68543 0.58598 0.87309 0.0
C2276 C 0.68161 0.61311 0.87583 0.0
C2277 C 0.6982 0.63251 0.87129 0.0
C2278 C 0.71115 0.54984 0.86304 0.0
C2279 C 0.65939 0.62177 0.88326 0.0
C2280 C 0.62382 0.54331 0.87588 0.0
C2281 C 0.62686 0.53304 0.88634 0.0
C2282 C 0.64324 0.55982 0.87131 0.0
C2283 C 0.66659 0.56568 0.87723 0.0
C2284 C 0.67063 0.55401 0.88749 0.0
C2285 C 0.65058 0.53801 0.89198 0.0
C2286 C 0.63811 0.57207 0.86037 0.0
C2287 C 0.69556 0.55942 0.89393 0.0
H2288 H 0.73771 0.59321 0.85569 0.0
H2289 H 0.69503 0.65337 0.8732 0.0
H2290 H 0.71307 0.53763 0.87046 0.0
H2291 H 0.69398 0.54187 0.85842 0.0
H2292 H 0.72944 0.54731 0.8581 0.0
H2293 H 0.65953 0.64361 0.88476 0.0
H2294 H 0.63989 0.61624 0.8797 0.0
H2295 H 0.66104 0.61134 0.89112 0.0
H2296 H 0.6059 0.53895 0.87134 0.0
H2297 H 0.65309 0.53028 0.90008 0.0
H2298 H 0.65508 0.56814 0.85487 0.0
H2299 H 0.63627 0.59403 0.8612 0.0
H2300 H 0.61963 0.56431 0.85657 0.0
H2301 H 0.71349 0.5568 0.88881 0.0
H2302 H 0.69724 0.54609 0.90106 0.0
H2303 H 0.69545 0.58037 0.89679 0.0
C2304 C 0.40348 0.57215 0.88432 0.0
C2305 C 0.39497 0.54797 0.88881 0.0
C2306 C 0.38517 0.59031 0.88003 0.0
C2307 C 0.35771 0.58401 0.88017 0.0
C2308 C 0.34894 0.55976 0.8848 0.0
C2309 C 0.36772 0.54202 0.88913 0.0
C2310 C 0.39526 0.61614 0.87527 0.0
C2311 C 0.31981 0.55235 0.885 0.0
C2312 C 0.31064 0.64228 0.87637 0.0
C2313 C 0.30572 0.64113 0.86524 0.0
C2314 C 0.32695 0.62334 0.88142 0.0
C2315 C 0.3384 0.60267 0.87519 0.0
C2316 C 0.33282 0.60088 0.86403 0.0
C2317 C 0.31665 0.62021 0.85918 0.0
C2318 C 0.33255 0.62589 0.89334 0.0
C2319 C 0.34465 0.57904 0.85714 0.0
H2320 H 0.42453 0.57694 0.88424 0.0
H2321 H 0.36118 0.52324 0.89256 0.0
H2322 H 0.39004 0.61716 0.86658 0.0
H2323 H 0.38553 0.63332 0.8793 0.0
H2324 H 0.41718 0.61831 0.87609 0.0
H2325 H 0.3162 0.5331 0.88918 0.0
H2326 H 0.30813 0.56815 0.8891 0.0
H2327 H 0.31216 0.5508 0.87662 0.0
H2328 H 0.30186 0.65812 0.88114 0.0
H2329 H 0.31322 0.61937 0.85056 0.0
H2330 H 0.35405 0.62988 0.89462 0.0
H2331 H 0.3278 0.60694 0.89754 0.0
H2332 H 0.32092 0.64223 0.89714 0.0
H2333 H 0.36659 0.5814 0.85678 0.0
H2334 H 0.3367 0.57927 0.84878 0.0
H2335 H 0.34052 0.55925 0.86077 0.0
C2336 C 0.15929 0.53494 0.61113 0.0
C2337 C 0.13779 0.54396 0.6049 0.0
C2338 C 0.17704 0.55304 0.61589 0.0
C2339 C 0.17297 0.58073 0.61446 0.0
C2340 C 0.15191 0.58989 0.60784 0.0
C2341 C 0.1346 0.57137 0.60313 0.0
C2342 C 0.19951 0.54258 0.62279 0.0
C2343 C 0.14685 0.61929 0.60617 0.0
C2344 C 0.19489 0.62934 0.63605 0.0
C2345 C 0.21711 0.64131 0.63121 0.0
C2346 C 0.18083 0.60902 0.6308 0.0
C2347 C 0.18933 0.6003 0.62051 0.0
C2348 C 0.21235 0.61153 0.61575 0.0
C2349 C 0.22593 0.63201 0.62115 0.0
C2350 C 0.15635 0.59748 0.63613 0.0
C2351 C 0.22207 0.60258 0.60481 0.0
H2352 H 0.16193 0.51372 0.61242 0.0
H2353 H 0.1178 0.57845 0.59845 0.0
H2354 H 0.21865 0.55184 0.62035 0.0
H2355 H 0.19596 0.54802 0.63134 0.0
H2356 H 0.20149 0.52056 0.62224 0.0
H2357 H 0.13075 0.62305 0.60022 0.0
H2358 H 0.14113 0.6286 0.61395 0.0
H2359 H 0.16524 0.62936 0.60335 0.0
H2360 H 0.18831 0.63607 0.64392 0.0
H2361 H 0.24296 0.64132 0.61733 0.0
H2362 H 0.15807 0.57548 0.6367 0.0
H2363 H 0.13852 0.60192 0.63116 0.0
H2364 H 0.1531 0.60563 0.64436 0.0
H2365 H 0.22388 0.58055 0.60456 0.0
H2366 H 0.24164 0.61149 0.60271 0.0
H2367 H 0.2074 0.6084 0.59855 0.0
C2368 C 0.13935 0.42071 0.39313 0.0
C2369 C 0.12974 0.44192 0.38685 0.0
C2370 C 0.15723 0.40208 0.38883 0.0
C2371 C 0.16536 0.40447 0.37794 0.0
C2372 C 0.15645 0.42626 0.37167 0.0
C2373 C 0.13892 0.44485 0.37623 0.0
C2374 C 0.16661 0.37925 0.3958 0.0
C2375 C 0.16459 0.42937 0.36001 0.0
C2376 C 0.22467 0.36453 0.36801 0.0
C2377 C 0.21207 0.34226 0.36349 0.0
C2378 C 0.20974 0.38496 0.37282 0.0
C2379 C 0.18162 0.38316 0.37291 0.0
C2380 C 0.16883 0.36083 0.36822 0.0
C2381 C 0.18425 0.34053 0.36363 0.0
C2382 C 0.22402 0.40829 0.3779 0.0
C2383 C 0.13885 0.35841 0.36802 0.0
H2384 H 0.13217 0.41805 0.4013 0.0
H2385 H 0.13205 0.46149 0.37139 0.0
H2386 H 0.15816 0.36026 0.39275 0.0
H2387 H 0.18861 0.37748 0.39543 0.0
H2388 H 0.16056 0.3817 0.40437 0.0
H2389 H 0.15707 0.4482 0.35641 0.0
H2390 H 0.18659 0.42898 0.35926 0.0
H2391 H 0.15673 0.41238 0.35523 0.0
H2392 H 0.24623 0.36569 0.36795 0.0
H2393 H 0.17456 0.32339 0.36002 0.0
H2394 H 0.21884 0.40957 0.38659 0.0
H2395 H 0.21748 0.42718 0.37408 0.0
H2396 H 0.246 0.40667 0.37714 0.0
H2397 H 0.13097 0.3582 0.37638 0.0
H2398 H 0.13205 0.34003 0.36384 0.0
H2399 H 0.13005 0.37593 0.36388 0.0
C2400 C 0.36127 0.45975 0.11948 0.0
C2401 C 0.37227 0.45568 0.1092 0.0
C2402 C 0.34319 0.44149 0.1239 0.0
C2403 C 0.33543 0.41898 0.11779 0.0
C2404 C 0.34489 0.41578 0.10712 0.0
C2405 C 0.36343 0.434 0.10299 0.0
C2406 C 0.33369 0.44545 0.13534 0.0
C2407 C 0.33663 0.39227 0.10028 0.0
C2408 C 0.31899 0.35522 0.13267 0.0
C2409 C 0.29116 0.35562 0.13262 0.0
C2410 C 0.33358 0.37599 0.12799 0.0
C2411 C 0.31991 0.3973 0.12295 0.0
C2412 C 0.29173 0.39769 0.12282 0.0
C2413 C 0.27761 0.3769 0.12779 0.0
C2414 C 0.36363 0.37513 0.12848 0.0
C2415 C 0.27656 0.4198 0.1173 0.0
H2416 H 0.36742 0.47681 0.12422 0.0
H2417 H 0.3719 0.43046 0.09509 0.0
H2418 H 0.31171 0.44366 0.13579 0.0
H2419 H 0.34222 0.42964 0.14057 0.0
H2420 H 0.33963 0.46516 0.13865 0.0
H2421 H 0.34271 0.39468 0.09172 0.0
H2422 H 0.34597 0.37384 0.10347 0.0
H2423 H 0.31474 0.38946 0.10061 0.0
H2424 H 0.32932 0.33877 0.1365 0.0
H2425 H 0.25603 0.37696 0.12774 0.0
H2426 H 0.37133 0.3935 0.13238 0.0
H2427 H 0.37196 0.3744 0.1202 0.0
H2428 H 0.3711 0.35758 0.13304 0.0
H2429 H 0.28198 0.43934 0.12087 0.0
H2430 H 0.25466 0.41714 0.11794 0.0
H2431 H 0.28207 0.42055 0.10864 0.0
loop_
_geom_bond_atom_site_label_1
_geom_bond_atom_site_label_2
_geom_bond_distance
_geom_bond_site_symmetry_2
_ccdc_geom_bond_type
Li0 N17 1.990 . S
Li0 O60 1.956 . S
Li0 O61 1.970 1_455 S
Li0 O62 1.961 . S
Li1 N25 1.990 . S
Li1 O60 1.970 . S
Li1 O61 1.956 1_455 S
Li1 O63 1.961 . S
Li2 N47 1.990 . S
Li2 O60 1.961 . S
Li2 O62 1.956 . S
Li2 O63 1.970 . S
Li3 N53 1.990 . S
Li3 O61 1.961 . S
Li3 O62 1.970 1_655 S
Li3 O63 1.956 1_655 S
C4 C6 1.348 . S
C4 C7 1.356 . S
C4 O60 1.325 . S
N5 C8 1.314 . S
N5 C9 1.279 . S
C6 C4 1.348 . S
C6 C8 1.353 . S
C6 H64 0.929 . S
C7 C4 1.356 . S
C7 C9 1.358 . S
C7 H65 0.930 . S
C8 N5 1.314 . S
C8 C6 1.353 . S
C8 H66 0.930 . S
C9 N5 1.279 . S
C9 C7 1.358 . S
C9 H67 0.930 . S
C10 C13 1.348 . S
C10 C14 1.356 . S
C10 O61 1.325 . S
C11 N12 1.279 . S
C11 C14 1.358 . S
C11 H68 0.930 . S
N12 C11 1.279 . S
N12 C15 1.314 . S
C13 C10 1.348 . S
C13 C15 1.353 . S
C13 H69 0.929 . S
C14 C10 1.356 . S
C14 C11 1.358 . S
C14 H70 0.930 . S
C15 N12 1.314 . S
C15 C13 1.353 . S
C15 H71 0.930 . S
C16 N17 1.314 1_655 S
C16 C21 1.353 . S
C16 H22 0.954 . S
N17 Li0 1.990 . S
N17 C16 1.314 1_455 S
N17 C19 1.279 . S
C18 C19 1.358 . S
C18 C20 1.356 . S
C18 H72 0.930 . S
C19 N17 1.279 . S
C19 C18 1.358 . S
C19 H23 0.930 . S
C20 C18 1.356 . S
C20 C21 1.348 1_455 S
C21 C16 1.353 . S
C21 C20 1.348 1_655 S
C21 H73 0.929 1_545 S
H22 C16 0.954 . S
H23 C19 0.930 . S
C24 N25 1.314 . S
C24 C26 1.353 . S
C24 H30 0.930 . S
N25 Li1 1.990 . S
N25 C24 1.314 . S
N25 C28 1.279 1_455 S
C26 C24 1.353 . S
C26 C29 1.348 . S
C26 H74 0.929 . S
C27 C28 1.358 . S
C27 C29 1.356 1_655 S
C27 H75 0.930 . S
C28 N25 1.279 1_655 S
C28 C27 1.358 . S
C28 H31 0.930 . S
C29 C26 1.348 . S
C29 C27 1.356 1_455 S
H30 C24 0.930 . S
H31 C28 0.930 . S
C32 C34 1.348 1_455 S
C32 C35 1.356 . S
C32 O62 1.325 1_565 S
N33 C36 1.314 1_455 S
N33 C37 1.279 . S
C34 C32 1.348 1_655 S
C34 C36 1.353 . S
C34 H76 0.929 . S
C35 C32 1.356 . S
C35 C37 1.358 . S
C35 H77 0.930 . S
C36 N33 1.314 1_655 S
C36 C34 1.353 . S
C36 H78 0.930 . S
C37 N33 1.279 . S
C37 C35 1.358 . S
C37 H79 0.930 . S
C38 C39 1.348 . S
C38 C40 1.356 1_455 S
C38 O63 1.325 . S
C39 C38 1.348 . S
C39 C41 1.353 . S
C39 H80 0.929 . S
C40 C38 1.356 1_655 S
C40 C42 1.358 . S
C40 H81 0.930 . S
C41 C39 1.353 . S
C41 N43 1.314 . S
C41 H82 0.930 . S
C42 C40 1.358 . S
C42 N43 1.279 1_655 S
C42 H83 0.930 . S
N43 C41 1.314 . S
N43 C42 1.279 1_455 S
C44 C46 1.353 . S
C44 N47 1.314 . S
C44 H50 0.930 . S
C45 N47 1.279 1_565 S
C45 C48 1.358 . S
C45 H51 0.930 . S
C46 C44 1.353 . S
C46 C49 1.348 1_545 S
C46 H84 0.929 . S
N47 Li2 1.990 . S
N47 C44 1.314 . S
N47 C45 1.279 1_545 S
C48 C45 1.358 . S
C48 C49 1.356 . S
C48 H85 0.930 . S
C49 C46 1.348 1_565 S
C49 C48 1.356 . S
H50 C44 0.930 . S
H51 C45 0.930 . S
C52 N53 1.314 . S
C52 C54 1.353 1_545 S
C52 H58 0.930 . S
N53 Li3 1.990 . S
N53 C52 1.314 . S
N53 C56 1.279 . S
C54 C52 1.353 1_565 S
C54 C57 1.348 . S
C54 H86 0.929 . S
C55 C56 1.358 1_565 S
C55 C57 1.356 . S
C55 H87 0.930 . S
C56 N53 1.279 . S
C56 C55 1.358 1_545 S
C56 H59 0.930 . S
C57 C54 1.348 . S
C57 C55 1.356 . S
H58 C52 0.930 . S
H59 C56 0.930 . S
O60 Li0 1.956 . S
O60 Li1 1.970 . S
O60 Li2 1.961 . S
O60 C4 1.325 . S
O61 Li0 1.970 1_655 S
O61 Li1 1.956 1_655 S
O61 Li3 1.961 . S
O61 C10 1.325 . S
O62 Li0 1.961 . S
O62 Li2 1.956 . S
O62 Li3 1.970 1_455 S
O62 C32 1.325 1_545 S
O63 Li1 1.961 . S
O63 Li2 1.970 . S
O63 Li3 1.956 1_455 S
O63 C38 1.325 . S
H64 C6 0.929 . S
H65 C7 0.930 . S
H66 C8 0.930 . S
H67 C9 0.930 . S
H68 C11 0.930 . S
H69 C13 0.929 . S
H70 C14 0.930 . S
H71 C15 0.930 . S
H72 C18 0.930 . S
H73 C21 0.929 1_565 S
H74 C26 0.929 . S
H75 C27 0.930 . S
H76 C34 0.929 . S
H77 C35 0.930 . S
H78 C36 0.930 . S
H79 C37 0.930 . S
H80 C39 0.929 . S
H81 C40 0.930 . S
H82 C41 0.930 . S
H83 C42 0.930 . S
H84 C46 0.929 . S
H85 C48 0.930 . S
H86 C54 0.929 . S
H87 C55 0.930 . S
Li88 N105 1.990 . S
Li88 O148 1.956 . S
Li88 O149 1.970 . S
Li88 O150 1.961 . S
Li89 N113 1.990 . S
Li89 O148 1.970 . S
Li89 O149 1.956 . S
Li89 O151 1.961 . S
Li90 N135 1.990 . S
Li90 O148 1.961 . S
Li90 O150 1.956 . S
Li90 O151 1.970 . S
Li91 N141 1.990 . S
Li91 O149 1.961 . S
Li91 O150 1.970 . S
Li91 O151 1.956 . S
C92 C94 1.348 . S
C92 C95 1.356 . S
C92 O148 1.325 . S
N93 C96 1.314 . S
N93 C97 1.279 . S
C94 C92 1.348 . S
C94 C96 1.353 . S
C94 H152 0.929 . S
C95 C92 1.356 . S
C95 C97 1.358 . S
C95 H153 0.930 . S
C96 N93 1.314 . S
C96 C94 1.353 . S
C96 H154 0.930 . S
C97 N93 1.279 . S
C97 C95 1.358 . S
C97 H155 0.930 . S
C98 C101 1.348 . S
C98 C102 1.356 . S
C98 O149 1.325 . S
C99 N100 1.279 . S
C99 C102 1.358 . S
C99 H156 0.930 . S
N100 C99 1.279 . S
N100 C103 1.314 . S
C101 C98 1.348 . S
C101 C103 1.353 . S
C101 H157 0.929 . S
C102 C98 1.356 . S
C102 C99 1.358 . S
C102 H158 0.930 . S
C103 N100 1.314 . S
C103 C101 1.353 . S
C103 H159 0.930 . S
C104 N105 1.314 . S
C104 C109 1.353 . S
C104 H110 0.930 . S
N105 Li88 1.990 . S
N105 C104 1.314 . S
N105 C107 1.279 . S
C106 C107 1.358 . S
C106 C108 1.356 . S
C106 H160 0.930 . S
C107 N105 1.279 . S
C107 C106 1.358 . S
C107 H111 0.930 . S
C108 C106 1.356 . S
C108 C109 1.348 . S
C109 C104 1.353 . S
C109 C108 1.348 . S
C109 H161 0.929 . S
H110 C104 0.930 . S
H111 C107 0.930 . S
C112 N113 1.314 . S
C112 C114 1.353 . S
C112 H118 0.930 . S
N113 Li89 1.990 . S
N113 C112 1.314 . S
N113 C116 1.279 . S
C114 C112 1.353 . S
C114 C117 1.348 . S
C114 H162 0.929 . S
C115 C116 1.358 . S
C115 C117 1.356 . S
C115 H163 0.930 . S
C116 N113 1.279 . S
C116 C115 1.358 . S
C116 H119 0.930 . S
C117 C114 1.348 . S
C117 C115 1.356 . S
H118 C112 0.930 . S
H119 C116 0.930 . S
C120 C122 1.348 . S
C120 C123 1.356 . S
C120 O150 1.325 . S
N121 C124 1.314 . S
N121 C125 1.279 . S
C122 C120 1.348 . S
C122 C124 1.353 . S
C122 H164 0.929 . S
C123 C120 1.356 . S
C123 C125 1.358 . S
C123 H165 0.930 . S
C124 N121 1.314 . S
C124 C122 1.353 . S
C124 H166 0.930 . S
C125 N121 1.279 . S
C125 C123 1.358 . S
C125 H167 0.930 . S
C126 C127 1.348 . S
C126 C128 1.356 . S
C126 O151 1.325 . S
C127 C126 1.348 . S
C127 C129 1.353 . S
C127 H168 0.929 . S
C128 C126 1.356 . S
C128 C130 1.358 . S
C128 H169 0.930 . S
C129 C127 1.353 . S
C129 N131 1.314 . S
C129 H170 0.930 . S
C130 C128 1.358 . S
C130 N131 1.279 . S
C130 H171 0.930 . S
N131 C129 1.314 . S
N131 C130 1.279 . S
C132 C134 1.353 . S
C132 N135 1.314 . S
C132 H138 0.930 . S
C133 N135 1.279 . S
C133 C136 1.358 . S
C133 H139 0.930 . S
C134 C132 1.353 . S
C134 C137 1.348 . S
C134 H172 0.929 . S
N135 Li90 1.990 . S
N135 C132 1.314 . S
N135 C133 1.279 . S
C136 C133 1.358 . S
C136 C137 1.356 . S
C136 H173 0.930 . S
C137 C134 1.348 . S
C137 C136 1.356 . S
H138 C132 0.930 . S
H139 C133 0.930 . S
C140 N141 1.314 . S
C140 C142 1.353 . S
C140 H146 0.930 . S
N141 Li91 1.990 . S
N141 C140 1.314 . S
N141 C144 1.279 . S
C142 C140 1.353 . S
C142 C145 1.348 . S
C142 H174 0.929 . S
C143 C144 1.358 . S
C143 C145 1.356 . S
C143 H175 0.930 . S
C144 N141 1.279 . S
C144 C143 1.358 . S
C144 H147 0.930 . S
C145 C142 1.348 . S
C145 C143 1.356 . S
H146 C140 0.930 . S
H147 C144 0.930 . S
O148 Li88 1.956 . S
O148 Li89 1.970 . S
O148 Li90 1.961 . S
O148 C92 1.325 . S
O149 Li88 1.970 . S
O149 Li89 1.956 . S
O149 Li91 1.961 . S
O149 C98 1.325 . S
O150 Li88 1.961 . S
O150 Li90 1.956 . S
O150 Li91 1.970 . S
O150 C120 1.325 . S
O151 Li89 1.961 . S
O151 Li90 1.970 . S
O151 Li91 1.956 . S
O151 C126 1.325 . S
H152 C94 0.929 . S
H153 C95 0.930 . S
H154 C96 0.930 . S
H155 C97 0.930 . S
H156 C99 0.930 . S
H157 C101 0.929 . S
H158 C102 0.930 . S
H159 C103 0.930 . S
H160 C106 0.930 . S
H161 C109 0.929 . S
H162 C114 0.929 . S
H163 C115 0.930 . S
H164 C122 0.929 . S
H165 C123 0.930 . S
H166 C124 0.930 . S
H167 C125 0.930 . S
H168 C127 0.929 . S
H169 C128 0.930 . S
H170 C129 0.930 . S
H171 C130 0.930 . S
H172 C134 0.929 . S
H173 C136 0.930 . S
H174 C142 0.929 . S
H175 C143 0.930 . S
Li176 N193 1.990 . S
Li176 O236 1.956 . S
Li176 O237 1.970 . S
Li176 O238 1.961 . S
Li177 N201 1.990 . S
Li177 O236 1.970 . S
Li177 O237 1.956 . S
Li177 O239 1.961 . S
Li178 N223 1.990 . S
Li178 O236 1.961 . S
Li178 O238 1.956 . S
Li178 O239 1.970 . S
Li179 N229 1.990 . S
Li179 O237 1.961 . S
Li179 O238 1.970 . S
Li179 O239 1.956 . S
C180 C182 1.348 . S
C180 C183 1.356 . S
C180 O236 1.325 . S
N181 C184 1.314 . S
N181 C185 1.279 . S
C182 C180 1.348 . S
C182 C184 1.353 . S
C182 H240 0.929 . S
C183 C180 1.356 . S
C183 C185 1.358 . S
C183 H241 0.930 . S
C184 N181 1.314 . S
C184 C182 1.353 . S
C184 H242 0.930 . S
C185 N181 1.279 . S
C185 C183 1.358 . S
C185 H243 0.930 . S
C186 C189 1.348 . S
C186 C190 1.356 . S
C186 O237 1.325 1_545 S
C187 N188 1.279 . S
C187 C190 1.358 . S
C187 H244 0.930 . S
N188 C187 1.279 . S
N188 C191 1.314 . S
C189 C186 1.348 . S
C189 C191 1.353 . S
C189 H245 0.929 . S
C190 C186 1.356 . S
C190 C187 1.358 . S
C190 H246 0.930 . S
C191 N188 1.314 . S
C191 C189 1.353 . S
C191 H247 0.930 . S
C192 N193 1.314 . S
C192 C197 1.353 1_565 S
C192 H198 0.930 . S
N193 Li176 1.990 . S
N193 C192 1.314 . S
N193 C195 1.279 . S
C194 C195 1.358 1_545 S
C194 C196 1.356 . S
C194 H248 0.930 . S
C195 N193 1.279 . S
C195 C194 1.358 1_565 S
C195 H199 0.930 . S
C196 C194 1.356 . S
C196 C197 1.348 . S
C197 C192 1.353 1_545 S
C197 C196 1.348 . S
C197 H249 0.929 . S
H198 C192 0.930 . S
H199 C195 0.930 . S
C200 N201 1.314 . S
C200 C202 1.353 . S
C200 H206 0.930 . S
N201 Li177 1.990 . S
N201 C200 1.314 . S
N201 C204 1.279 1_565 S
C202 C200 1.353 . S
C202 C205 1.348 1_565 S
C202 H250 0.929 . S
C203 C204 1.358 . S
C203 C205 1.356 . S
C203 H251 0.930 . S
C204 N201 1.279 1_545 S
C204 C203 1.358 . S
C204 H207 0.930 . S
C205 C202 1.348 1_545 S
C205 C203 1.356 . S
H206 C200 0.930 . S
H207 C204 0.930 . S
C208 C210 1.348 . S
C208 C211 1.356 . S
C208 O238 1.325 . S
N209 C212 1.314 . S
N209 C213 1.279 . S
C210 C208 1.348 . S
C210 C212 1.353 . S
C210 H252 0.929 . S
C211 C208 1.356 . S
C211 C213 1.358 . S
C211 H253 0.930 . S
C212 N209 1.314 . S
C212 C210 1.353 . S
C212 H254 0.930 . S
C213 N209 1.279 . S
C213 C211 1.358 . S
C213 H255 0.930 . S
C214 C215 1.348 . S
C214 C216 1.356 . S
C214 O239 1.325 . S
C215 C214 1.348 . S
C215 C217 1.353 . S
C215 H256 0.929 . S
C216 C214 1.356 . S
C216 C218 1.358 . S
C216 H257 0.930 . S
C217 C215 1.353 . S
C217 N219 1.314 . S
C217 H258 0.930 . S
C218 C216 1.358 . S
C218 N219 1.279 . S
C218 H259 0.930 . S
N219 C217 1.314 . S
N219 C218 1.279 . S
C220 C222 1.353 . S
C220 N223 1.314 . S
C220 H226 0.930 . S
C221 N223 1.279 . S
C221 C224 1.358 . S
C221 H227 0.930 . S
C222 C220 1.353 . S
C222 C225 1.348 . S
C222 H260 0.929 . S
N223 Li178 1.990 . S
N223 C220 1.314 . S
N223 C221 1.279 . S
C224 C221 1.358 . S
C224 C225 1.356 . S
C224 H261 0.930 . S
C225 C222 1.348 . S
C225 C224 1.356 . S
H226 C220 0.930 . S
H227 C221 0.930 . S
C228 N229 1.314 . S
C228 C230 1.353 . S
C228 H234 0.930 . S
N229 Li179 1.990 . S
N229 C228 1.314 . S
N229 C232 1.279 . S
C230 C228 1.353 . S
C230 C233 1.348 . S
C230 H262 0.929 1_565 S
C231 C232 1.358 . S
C231 C233 1.356 . S
C231 H263 0.930 . S
C232 N229 1.279 . S
C232 C231 1.358 . S
C232 H235 0.930 . S
C233 C230 1.348 . S
C233 C231 1.356 . S
H234 C228 0.930 . S
H235 C232 0.930 . S
O236 Li176 1.956 . S
O236 Li177 1.970 . S
O236 Li178 1.961 . S
O236 C180 1.325 . S
O237 Li176 1.970 . S
O237 Li177 1.956 . S
O237 Li179 1.961 . S
O237 C186 1.325 1_565 S
O238 Li176 1.961 . S
O238 Li178 1.956 . S
O238 Li179 1.970 . S
O238 C208 1.325 . S
O239 Li177 1.961 . S
O239 Li178 1.970 . S
O239 Li179 1.956 . S
O239 C214 1.325 . S
H240 C182 0.929 . S
H241 C183 0.930 . S
H242 C184 0.930 . S
H243 C185 0.930 . S
H244 C187 0.930 . S
H245 C189 0.929 . S
H246 C190 0.930 . S
H247 C191 0.930 . S
H248 C194 0.930 . S
H249 C197 0.929 . S
H250 C202 0.929 . S
H251 C203 0.930 . S
H252 C210 0.929 . S
H253 C211 0.930 . S
H254 C212 0.930 . S
H255 C213 0.930 . S
H256 C215 0.929 . S
H257 C216 0.930 . S
H258 C217 0.930 . S
H259 C218 0.930 . S
H260 C222 0.929 . S
H261 C224 0.930 . S
H262 C230 0.929 1_545 S
H263 C231 0.930 . S
Li264 N281 1.990 . S
Li264 O324 1.956 . S
Li264 O325 1.970 . S
Li264 O326 1.961 . S
Li265 N289 1.990 . S
Li265 O324 1.970 . S
Li265 O325 1.956 . S
Li265 O327 1.961 . S
Li266 N311 1.990 . S
Li266 O324 1.961 . S
Li266 O326 1.956 . S
Li266 O327 1.970 . S
Li267 N317 1.990 . S
Li267 O325 1.961 . S
Li267 O326 1.970 . S
Li267 O327 1.956 . S
C268 C270 1.348 . S
C268 C271 1.356 . S
C268 O324 1.325 . S
N269 C272 1.314 . S
N269 C273 1.279 . S
C270 C268 1.348 . S
C270 C272 1.353 . S
C270 H328 0.929 . S
C271 C268 1.356 . S
C271 C273 1.358 . S
C271 H329 0.930 . S
C272 N269 1.314 . S
C272 C270 1.353 . S
C272 H330 0.930 . S
C273 N269 1.279 . S
C273 C271 1.358 . S
C273 H331 0.930 . S
C274 C277 1.348 . S
C274 C278 1.356 . S
C274 O325 1.325 . S
C275 N276 1.279 . S
C275 C278 1.358 . S
C275 H332 0.930 . S
N276 C275 1.279 . S
N276 C279 1.314 . S
C277 C274 1.348 . S
C277 C279 1.353 . S
C277 H333 0.929 . S
C278 C274 1.356 . S
C278 C275 1.358 . S
C278 H334 0.930 . S
C279 N276 1.314 . S
C279 C277 1.353 . S
C279 H335 0.930 . S
C280 N281 1.314 . S
C280 C285 1.353 . S
C280 H286 0.930 . S
N281 Li264 1.990 . S
N281 C280 1.314 . S
N281 C283 1.279 . S
C282 C283 1.358 . S
C282 C284 1.356 . S
C282 H336 0.930 . S
C283 N281 1.279 . S
C283 C282 1.358 . S
C283 H287 0.930 . S
C284 C282 1.356 . S
C284 C285 1.348 . S
C285 C280 1.353 . S
C285 C284 1.348 . S
C285 H337 0.929 . S
H286 C280 0.930 . S
H287 C283 0.930 . S
C288 N289 1.314 . S
C288 C290 1.353 . S
C288 H294 0.930 . S
N289 Li265 1.990 . S
N289 C288 1.314 . S
N289 C292 1.279 . S
C290 C288 1.353 . S
C290 C293 1.348 . S
C290 H338 0.929 . S
C291 C292 1.358 . S
C291 C293 1.356 . S
C291 H339 0.930 . S
C292 N289 1.279 . S
C292 C291 1.358 . S
C292 H295 0.930 . S
C293 C290 1.348 . S
C293 C291 1.356 . S
H294 C288 0.930 . S
H295 C292 0.930 . S
C296 C298 1.348 . S
C296 C299 1.356 . S
C296 O326 1.325 . S
N297 C300 1.314 . S
N297 C301 1.279 . S
C298 C296 1.348 . S
C298 C300 1.353 . S
C298 H340 0.929 . S
C299 C296 1.356 . S
C299 C301 1.358 . S
C299 H341 0.930 . S
C300 N297 1.314 . S
C300 C298 1.353 . S
C300 H342 0.930 . S
C301 N297 1.279 . S
C301 C299 1.358 . S
C301 H343 0.930 . S
C302 C303 1.348 . S
C302 C304 1.356 . S
C302 O327 1.325 . S
C303 C302 1.348 . S
C303 C305 1.353 . S
C303 H344 0.929 . S
C304 C302 1.356 . S
C304 C306 1.358 . S
C304 H345 0.930 . S
C305 C303 1.353 . S
C305 N307 1.314 . S
C305 H346 0.930 . S
C306 C304 1.358 . S
C306 N307 1.279 . S
C306 H347 0.930 . S
N307 C305 1.314 . S
N307 C306 1.279 . S
C308 C310 1.353 . S
C308 N311 1.314 . S
C308 H314 0.930 . S
C309 N311 1.279 . S
C309 C312 1.358 . S
C309 H315 0.930 . S
C310 C308 1.353 . S
C310 C313 1.348 . S
C310 H348 0.929 . S
N311 Li266 1.990 . S
N311 C308 1.314 . S
N311 C309 1.279 . S
C312 C309 1.358 . S
C312 C313 1.356 . S
C312 H349 0.930 . S
C313 C310 1.348 . S
C313 C312 1.356 . S
H314 C308 0.930 . S
H315 C309 0.930 . S
C316 N317 1.314 . S
C316 C318 1.353 . S
C316 H322 0.930 . S
N317 Li267 1.990 . S
N317 C316 1.314 . S
N317 C320 1.279 . S
C318 C316 1.353 . S
C318 C321 1.348 . S
C318 H350 0.929 . S
C319 C320 1.358 . S
C319 C321 1.356 . S
C319 H351 0.930 . S
C320 N317 1.279 . S
C320 C319 1.358 . S
C320 H323 0.930 . S
C321 C318 1.348 . S
C321 C319 1.356 . S
H322 C316 0.930 . S
H323 C320 0.930 . S
O324 Li264 1.956 . S
O324 Li265 1.970 . S
O324 Li266 1.961 . S
O324 C268 1.325 . S
O325 Li264 1.970 . S
O325 Li265 1.956 . S
O325 Li267 1.961 . S
O325 C274 1.325 . S
O326 Li264 1.961 . S
O326 Li266 1.956 . S
O326 Li267 1.970 . S
O326 C296 1.325 . S
O327 Li265 1.961 . S
O327 Li266 1.970 . S
O327 Li267 1.956 . S
O327 C302 1.325 . S
H328 C270 0.929 . S
H329 C271 0.930 . S
H330 C272 0.930 . S
H331 C273 0.930 . S
H332 C275 0.930 . S
H333 C277 0.929 . S
H334 C278 0.930 . S
H335 C279 0.930 . S
H336 C282 0.930 . S
H337 C285 0.929 . S
H338 C290 0.929 . S
H339 C291 0.930 . S
H340 C298 0.929 . S
H341 C299 0.930 . S
H342 C300 0.930 . S
H343 C301 0.930 . S
H344 C303 0.929 . S
H345 C304 0.930 . S
H346 C305 0.930 . S
H347 C306 0.930 . S
H348 C310 0.929 . S
H349 C312 0.930 . S
H350 C318 0.929 . S
H351 C319 0.930 . S
Li352 N369 1.990 . S
Li352 O412 1.956 1_655 S
Li352 O413 1.970 1_655 S
Li352 O414 1.961 . S
Li353 N377 1.990 . S
Li353 O412 1.970 . S
Li353 O413 1.956 . S
Li353 O415 1.961 . S
Li354 N399 1.990 . S
Li354 O412 1.961 . S
Li354 O414 1.956 1_455 S
Li354 O415 1.970 . S
Li355 N405 1.990 . S
Li355 O413 1.961 . S
Li355 O414 1.970 1_455 S
Li355 O415 1.956 . S
C356 C358 1.348 . S
C356 C359 1.356 1_455 S
C356 O412 1.325 . S
N357 C360 1.314 . S
N357 C361 1.279 1_455 S
C358 C356 1.348 . S
C358 C360 1.353 . S
C358 H416 0.929 . S
C359 C356 1.356 1_655 S
C359 C361 1.358 . S
C359 H417 0.930 . S
C360 N357 1.314 . S
C360 C358 1.353 . S
C360 H418 0.930 . S
C361 N357 1.279 1_655 S
C361 C359 1.358 . S
C361 H419 0.930 . S
C362 C365 1.348 1_455 S
C362 C366 1.356 . S
C362 O413 1.325 1_545 S
C363 N364 1.279 . S
C363 C366 1.358 . S
C363 H420 0.930 . S
N364 C363 1.279 . S
N364 C367 1.314 1_455 S
C365 C362 1.348 1_655 S
C365 C367 1.353 . S
C365 H421 0.929 . S
C366 C362 1.356 . S
C366 C363 1.358 . S
C366 H422 0.930 . S
C367 N364 1.314 1_655 S
C367 C365 1.353 . S
C367 H423 0.930 . S
C368 N369 1.314 . S
C368 C373 1.353 1_565 S
C368 H374 0.930 . S
N369 Li352 1.990 . S
N369 C368 1.314 . S
N369 C371 1.279 . S
C370 C371 1.358 1_545 S
C370 C372 1.356 . S
C370 H424 0.930 . S
C371 N369 1.279 . S
C371 C370 1.358 1_565 S
C371 H375 0.930 . S
C372 C370 1.356 . S
C372 C373 1.348 . S
C373 C368 1.353 1_545 S
C373 C372 1.348 . S
C373 H425 0.929 . S
H374 C368 0.930 . S
H375 C371 0.930 . S
C376 N377 1.314 . S
C376 C378 1.353 . S
C376 H382 0.930 . S
N377 Li353 1.990 . S
N377 C376 1.314 . S
N377 C380 1.279 1_565 S
C378 C376 1.353 . S
C378 C381 1.348 1_565 S
C378 H426 0.929 . S
C379 C380 1.358 . S
C379 C381 1.356 . S
C379 H427 0.930 . S
C380 N377 1.279 1_545 S
C380 C379 1.358 . S
C380 H383 0.930 . S
C381 C378 1.348 1_545 S
C381 C379 1.356 . S
H382 C376 0.930 . S
H383 C380 0.930 . S
C384 C386 1.348 . S
C384 C387 1.356 . S
C384 O414 1.325 . S
N385 C388 1.314 . S
N385 C389 1.279 . S
C386 C384 1.348 . S
C386 C388 1.353 . S
C386 H428 0.929 . S
C387 C384 1.356 . S
C387 C389 1.358 . S
C387 H429 0.930 . S
C388 N385 1.314 . S
C388 C386 1.353 . S
C388 H430 0.930 . S
C389 N385 1.279 . S
C389 C387 1.358 . S
C389 H431 0.930 . S
C390 C391 1.348 . S
C390 C392 1.356 . S
C390 O415 1.325 . S
C391 C390 1.348 . S
C391 C393 1.353 . S
C391 H432 0.929 . S
C392 C390 1.356 . S
C392 C394 1.358 . S
C392 H433 0.930 . S
C393 C391 1.353 . S
C393 N395 1.314 . S
C393 H434 0.930 . S
C394 C392 1.358 . S
C394 N395 1.279 . S
C394 H435 0.930 . S
N395 C393 1.314 . S
N395 C394 1.279 . S
C396 C398 1.353 . S
C396 N399 1.314 . S
C396 H402 0.930 . S
C397 N399 1.279 1_655 S
C397 C400 1.358 . S
C397 H403 0.930 . S
C398 C396 1.353 . S
C398 C401 1.348 . S
C398 H436 0.929 . S
N399 Li354 1.990 . S
N399 C396 1.314 . S
N399 C397 1.279 1_455 S
C400 C397 1.358 . S
C400 C401 1.356 1_655 S
C400 H437 0.930 . S
C401 C398 1.348 . S
C401 C400 1.356 1_455 S
H402 C396 0.930 . S
H403 C397 0.930 . S
C404 N405 1.314 1_655 S
C404 C406 1.353 . S
C404 H410 0.954 . S
N405 Li355 1.990 . S
N405 C404 1.314 1_455 S
N405 C408 1.279 . S
C406 C404 1.353 . S
C406 C409 1.348 1_655 S
C406 H438 0.929 1_565 S
C407 C408 1.358 . S
C407 C409 1.356 . S
C407 H439 0.930 . S
C408 N405 1.279 . S
C408 C407 1.358 . S
C408 H411 0.930 . S
C409 C406 1.348 1_455 S
C409 C407 1.356 . S
H410 C404 0.954 . S
H411 C408 0.930 . S
O412 Li352 1.956 1_455 S
O412 Li353 1.970 . S
O412 Li354 1.961 . S
O412 C356 1.325 . S
O413 Li352 1.970 1_455 S
O413 Li353 1.956 . S
O413 Li355 1.961 . S
O413 C362 1.325 1_565 S
O414 Li352 1.961 . S
O414 Li354 1.956 1_655 S
O414 Li355 1.970 1_655 S
O414 C384 1.325 . S
O415 Li353 1.961 . S
O415 Li354 1.970 . S
O415 Li355 1.956 . S
O415 C390 1.325 . S
H416 C358 0.929 . S
H417 C359 0.930 . S
H418 C360 0.930 . S
H419 C361 0.930 . S
H420 C363 0.930 . S
H421 C365 0.929 . S
H422 C366 0.930 . S
H423 C367 0.930 . S
H424 C370 0.930 . S
H425 C373 0.929 . S
H426 C378 0.929 . S
H427 C379 0.930 . S
H428 C386 0.929 . S
H429 C387 0.930 . S
H430 C388 0.930 . S
H431 C389 0.930 . S
H432 C391 0.929 . S
H433 C392 0.930 . S
H434 C393 0.930 . S
H435 C394 0.930 . S
H436 C398 0.929 . S
H437 C400 0.930 . S
H438 C406 0.929 1_545 S
H439 C407 0.930 . S
Li440 N457 1.990 . S
Li440 O500 1.956 . S
Li440 O501 1.970 . S
Li440 O502 1.961 . S
Li441 N465 1.990 . S
Li441 O500 1.970 . S
Li441 O501 1.956 . S
Li441 O503 1.961 . S
Li442 N487 1.990 . S
Li442 O500 1.961 . S
Li442 O502 1.956 . S
Li442 O503 1.970 . S
Li443 N493 1.990 . S
Li443 O501 1.961 . S
Li443 O502 1.970 . S
Li443 O503 1.956 . S
C444 C446 1.348 . S
C444 C447 1.356 . S
C444 O500 1.325 . S
N445 C448 1.314 . S
N445 C449 1.279 . S
C446 C444 1.348 . S
C446 C448 1.353 . S
C446 H504 0.929 . S
C447 C444 1.356 . S
C447 C449 1.358 . S
C447 H505 0.930 . S
C448 N445 1.314 . S
C448 C446 1.353 . S
C448 H506 0.930 . S
C449 N445 1.279 . S
C449 C447 1.358 . S
C449 H507 0.930 . S
C450 C453 1.348 . S
C450 C454 1.356 . S
C450 O501 1.325 . S
C451 N452 1.279 . S
C451 C454 1.358 . S
C451 H508 0.930 . S
N452 C451 1.279 . S
N452 C455 1.314 . S
C453 C450 1.348 . S
C453 C455 1.353 . S
C453 H509 0.929 . S
C454 C450 1.356 . S
C454 C451 1.358 . S
C454 H510 0.930 . S
C455 N452 1.314 . S
C455 C453 1.353 . S
C455 H511 0.930 . S
C456 N457 1.314 . S
C456 C461 1.353 . S
C456 H462 0.930 . S
N457 Li440 1.990 . S
N457 C456 1.314 . S
N457 C459 1.279 . S
C458 C459 1.358 . S
C458 C460 1.356 . S
C458 H512 0.930 . S
C459 N457 1.279 . S
C459 C458 1.358 . S
C459 H463 0.930 . S
C460 C458 1.356 . S
C460 C461 1.348 . S
C461 C456 1.353 . S
C461 C460 1.348 . S
C461 H513 0.929 . S
H462 C456 0.930 . S
H463 C459 0.930 . S
C464 N465 1.314 . S
C464 C466 1.353 . S
C464 H470 0.930 . S
N465 Li441 1.990 . S
N465 C464 1.314 . S
N465 C468 1.279 . S
C466 C464 1.353 . S
C466 C469 1.348 . S
C466 H514 0.929 . S
C467 C468 1.358 . S
C467 C469 1.356 . S
C467 H515 0.930 . S
C468 N465 1.279 . S
C468 C467 1.358 . S
C468 H471 0.930 . S
C469 C466 1.348 . S
C469 C467 1.356 . S
H470 C464 0.930 . S
H471 C468 0.930 . S
C472 C474 1.348 . S
C472 C475 1.356 . S
C472 O502 1.325 . S
N473 C476 1.314 . S
N473 C477 1.279 . S
C474 C472 1.348 . S
C474 C476 1.353 . S
C474 H516 0.929 . S
C475 C472 1.356 . S
C475 C477 1.358 . S
C475 H517 0.930 . S
C476 N473 1.314 . S
C476 C474 1.353 . S
C476 H518 0.930 . S
C477 N473 1.279 . S
C477 C475 1.358 . S
C477 H519 0.930 . S
C478 C479 1.348 . S
C478 C480 1.356 . S
C478 O503 1.325 . S
C479 C478 1.348 . S
C479 C481 1.353 . S
C479 H520 0.929 . S
C480 C478 1.356 . S
C480 C482 1.358 . S
C480 H521 0.930 . S
C481 C479 1.353 . S
C481 N483 1.314 . S
C481 H522 0.930 . S
C482 C480 1.358 . S
C482 N483 1.279 . S
C482 H523 0.930 . S
N483 C481 1.314 . S
N483 C482 1.279 . S
C484 C486 1.353 . S
C484 N487 1.314 . S
C484 H490 0.930 . S
C485 N487 1.279 . S
C485 C488 1.358 . S
C485 H491 0.930 . S
C486 C484 1.353 . S
C486 C489 1.348 . S
C486 H524 0.929 . S
N487 Li442 1.990 . S
N487 C484 1.314 . S
N487 C485 1.279 . S
C488 C485 1.358 . S
C488 C489 1.356 . S
C488 H525 0.930 . S
C489 C486 1.348 . S
C489 C488 1.356 . S
H490 C484 0.930 . S
H491 C485 0.930 . S
C492 N493 1.314 . S
C492 C494 1.353 . S
C492 H498 0.930 . S
N493 Li443 1.990 . S
N493 C492 1.314 . S
N493 C496 1.279 . S
C494 C492 1.353 . S
C494 C497 1.348 . S
C494 H526 0.929 . S
C495 C496 1.358 . S
C495 C497 1.356 . S
C495 H527 0.930 . S
C496 N493 1.279 . S
C496 C495 1.358 . S
C496 H499 0.930 . S
C497 C494 1.348 . S
C497 C495 1.356 . S
H498 C492 0.930 . S
H499 C496 0.930 . S
O500 Li440 1.956 . S
O500 Li441 1.970 . S
O500 Li442 1.961 . S
O500 C444 1.325 . S
O501 Li440 1.970 . S
O501 Li441 1.956 . S
O501 Li443 1.961 . S
O501 C450 1.325 . S
O502 Li440 1.961 . S
O502 Li442 1.956 . S
O502 Li443 1.970 . S
O502 C472 1.325 . S
O503 Li441 1.961 . S
O503 Li442 1.970 . S
O503 Li443 1.956 . S
O503 C478 1.325 . S
H504 C446 0.929 . S
H505 C447 0.930 . S
H506 C448 0.930 . S
H507 C449 0.930 . S
H508 C451 0.930 . S
H509 C453 0.929 . S
H510 C454 0.930 . S
H511 C455 0.930 . S
H512 C458 0.930 . S
H513 C461 0.929 . S
H514 C466 0.929 . S
H515 C467 0.930 . S
H516 C474 0.929 . S
H517 C475 0.930 . S
H518 C476 0.930 . S
H519 C477 0.930 . S
H520 C479 0.929 . S
H521 C480 0.930 . S
H522 C481 0.930 . S
H523 C482 0.930 . S
H524 C486 0.929 . S
H525 C488 0.930 . S
H526 C494 0.929 . S
H527 C495 0.930 . S
Li528 N545 1.990 . S
Li528 O588 1.956 . S
Li528 O589 1.970 . S
Li528 O590 1.961 . S
Li529 N553 1.990 . S
Li529 O588 1.970 . S
Li529 O589 1.956 . S
Li529 O591 1.961 . S
Li530 N575 1.990 . S
Li530 O588 1.961 . S
Li530 O590 1.956 . S
Li530 O591 1.970 . S
Li531 N581 1.990 . S
Li531 O589 1.961 . S
Li531 O590 1.970 . S
Li531 O591 1.956 . S
C532 C534 1.348 . S
C532 C535 1.356 . S
C532 O588 1.325 . S
N533 C536 1.314 . S
N533 C537 1.279 . S
C534 C532 1.348 . S
C534 C536 1.353 . S
C534 H592 0.929 . S
C535 C532 1.356 . S
C535 C537 1.358 . S
C535 H593 0.930 . S
C536 N533 1.314 . S
C536 C534 1.353 . S
C536 H594 0.930 . S
C537 N533 1.279 . S
C537 C535 1.358 . S
C537 H595 0.930 . S
C538 C541 1.348 . S
C538 C542 1.356 . S
C538 O589 1.325 . S
C539 N540 1.279 . S
C539 C542 1.358 . S
C539 H596 0.930 . S
N540 C539 1.279 . S
N540 C543 1.314 . S
C541 C538 1.348 . S
C541 C543 1.353 . S
C541 H597 0.929 . S
C542 C538 1.356 . S
C542 C539 1.358 . S
C542 H598 0.930 . S
C543 N540 1.314 . S
C543 C541 1.353 . S
C543 H599 0.930 . S
C544 N545 1.314 . S
C544 C549 1.353 . S
C544 H550 0.930 . S
N545 Li528 1.990 . S
N545 C544 1.314 . S
N545 C547 1.279 . S
C546 C547 1.358 . S
C546 C548 1.356 . S
C546 H600 0.930 . S
C547 N545 1.279 . S
C547 C546 1.358 . S
C547 H551 0.930 . S
C548 C546 1.356 . S
C548 C549 1.348 . S
C549 C544 1.353 . S
C549 C548 1.348 . S
C549 H601 0.929 . S
H550 C544 0.930 . S
H551 C547 0.930 . S
C552 N553 1.314 . S
C552 C554 1.353 . S
C552 H558 0.930 . S
N553 Li529 1.990 . S
N553 C552 1.314 . S
N553 C556 1.279 . S
C554 C552 1.353 . S
C554 C557 1.348 . S
C554 H602 0.929 1_545 S
C555 C556 1.358 . S
C555 C557 1.356 . S
C555 H603 0.930 . S
C556 N553 1.279 . S
C556 C555 1.358 . S
C556 H559 0.930 . S
C557 C554 1.348 . S
C557 C555 1.356 . S
H558 C552 0.930 . S
H559 C556 0.930 . S
C560 C562 1.348 . S
C560 C563 1.356 . S
C560 O590 1.325 . S
N561 C564 1.314 . S
N561 C565 1.279 . S
C562 C560 1.348 . S
C562 C564 1.353 . S
C562 H604 0.929 . S
C563 C560 1.356 . S
C563 C565 1.358 . S
C563 H605 0.930 . S
C564 N561 1.314 . S
C564 C562 1.353 . S
C564 H606 0.930 . S
C565 N561 1.279 . S
C565 C563 1.358 . S
C565 H607 0.930 . S
C566 C567 1.348 . S
C566 C568 1.356 . S
C566 O591 1.325 1_565 S
C567 C566 1.348 . S
C567 C569 1.353 . S
C567 H608 0.929 . S
C568 C566 1.356 . S
C568 C570 1.358 . S
C568 H609 0.930 . S
C569 C567 1.353 . S
C569 N571 1.314 . S
C569 H610 0.930 . S
C570 C568 1.358 . S
C570 N571 1.279 . S
C570 H611 0.930 . S
N571 C569 1.314 . S
N571 C570 1.279 . S
C572 C574 1.353 1_545 S
C572 N575 1.314 . S
C572 H578 0.930 . S
C573 N575 1.279 . S
C573 C576 1.358 1_545 S
C573 H579 0.930 . S
C574 C572 1.353 1_565 S
C574 C577 1.348 . S
C574 H612 0.929 . S
N575 Li530 1.990 . S
N575 C572 1.314 . S
N575 C573 1.279 . S
C576 C573 1.358 1_565 S
C576 C577 1.356 . S
C576 H613 0.930 . S
C577 C574 1.348 . S
C577 C576 1.356 . S
H578 C572 0.930 . S
H579 C573 0.930 . S
C580 N581 1.314 . S
C580 C582 1.353 . S
C580 H586 0.930 . S
N581 Li531 1.990 . S
N581 C580 1.314 . S
N581 C584 1.279 1_545 S
C582 C580 1.353 . S
C582 C585 1.348 1_545 S
C582 H614 0.929 . S
C583 C584 1.358 . S
C583 C585 1.356 . S
C583 H615 0.930 . S
C584 N581 1.279 1_565 S
C584 C583 1.358 . S
C584 H587 0.930 . S
C585 C582 1.348 1_565 S
C585 C583 1.356 . S
H586 C580 0.930 . S
H587 C584 0.930 . S
O588 Li528 1.956 . S
O588 Li529 1.970 . S
O588 Li530 1.961 . S
O588 C532 1.325 . S
O589 Li528 1.970 . S
O589 Li529 1.956 . S
O589 Li531 1.961 . S
O589 C538 1.325 . S
O590 Li528 1.961 . S
O590 Li530 1.956 . S
O590 Li531 1.970 . S
O590 C560 1.325 . S
O591 Li529 1.961 . S
O591 Li530 1.970 . S
O591 Li531 1.956 . S
O591 C566 1.325 1_545 S
H592 C534 0.929 . S
H593 C535 0.930 . S
H594 C536 0.930 . S
H595 C537 0.930 . S
H596 C539 0.930 . S
H597 C541 0.929 . S
H598 C542 0.930 . S
H599 C543 0.930 . S
H600 C546 0.930 . S
H601 C549 0.929 . S
H602 C554 0.929 1_565 S
H603 C555 0.930 . S
H604 C562 0.929 . S
H605 C563 0.930 . S
H606 C564 0.930 . S
H607 C565 0.930 . S
H608 C567 0.929 . S
H609 C568 0.930 . S
H610 C569 0.930 . S
H611 C570 0.930 . S
H612 C574 0.929 . S
H613 C576 0.930 . S
H614 C582 0.929 . S
H615 C583 0.930 . S
Li616 N633 1.990 . S
Li616 O676 1.956 . S
Li616 O677 1.970 . S
Li616 O678 1.961 . S
Li617 N641 1.990 . S
Li617 O676 1.970 . S
Li617 O677 1.956 . S
Li617 O679 1.961 . S
Li618 N663 1.990 . S
Li618 O676 1.961 . S
Li618 O678 1.956 . S
Li618 O679 1.970 . S
Li619 N669 1.990 . S
Li619 O677 1.961 . S
Li619 O678 1.970 . S
Li619 O679 1.956 . S
C620 C622 1.348 . S
C620 C623 1.356 . S
C620 O676 1.325 . S
N621 C624 1.314 . S
N621 C625 1.279 . S
C622 C620 1.348 . S
C622 C624 1.353 . S
C622 H680 0.929 . S
C623 C620 1.356 . S
C623 C625 1.358 . S
C623 H681 0.930 . S
C624 N621 1.314 . S
C624 C622 1.353 . S
C624 H682 0.930 . S
C625 N621 1.279 . S
C625 C623 1.358 . S
C625 H683 0.930 . S
C626 C629 1.348 . S
C626 C630 1.356 . S
C626 O677 1.325 . S
C627 N628 1.279 . S
C627 C630 1.358 . S
C627 H684 0.930 . S
N628 C627 1.279 . S
N628 C631 1.314 . S
C629 C626 1.348 . S
C629 C631 1.353 . S
C629 H685 0.929 . S
C630 C626 1.356 . S
C630 C627 1.358 . S
C630 H686 0.930 . S
C631 N628 1.314 . S
C631 C629 1.353 . S
C631 H687 0.930 . S
C632 N633 1.314 . S
C632 C637 1.353 . S
C632 H638 0.930 . S
N633 Li616 1.990 . S
N633 C632 1.314 . S
N633 C635 1.279 . S
C634 C635 1.358 . S
C634 C636 1.356 . S
C634 H688 0.930 . S
C635 N633 1.279 . S
C635 C634 1.358 . S
C635 H639 0.930 . S
C636 C634 1.356 . S
C636 C637 1.348 . S
C637 C632 1.353 . S
C637 C636 1.348 . S
C637 H689 0.929 . S
H638 C632 0.930 . S
H639 C635 0.930 . S
C640 N641 1.314 . S
C640 C642 1.353 . S
C640 H646 0.930 . S
N641 Li617 1.990 . S
N641 C640 1.314 . S
N641 C644 1.279 . S
C642 C640 1.353 . S
C642 C645 1.348 . S
C642 H690 0.929 . S
C643 C644 1.358 . S
C643 C645 1.356 . S
C643 H691 0.930 . S
C644 N641 1.279 . S
C644 C643 1.358 . S
C644 H647 0.930 . S
C645 C642 1.348 . S
C645 C643 1.356 . S
H646 C640 0.930 . S
H647 C644 0.930 . S
C648 C650 1.348 . S
C648 C651 1.356 . S
C648 O678 1.325 . S
N649 C652 1.314 . S
N649 C653 1.279 . S
C650 C648 1.348 . S
C650 C652 1.353 . S
C650 H692 0.929 . S
C651 C648 1.356 . S
C651 C653 1.358 . S
C651 H693 0.930 . S
C652 N649 1.314 . S
C652 C650 1.353 . S
C652 H694 0.930 . S
C653 N649 1.279 . S
C653 C651 1.358 . S
C653 H695 0.930 . S
C654 C655 1.348 . S
C654 C656 1.356 . S
C654 O679 1.325 . S
C655 C654 1.348 . S
C655 C657 1.353 . S
C655 H696 0.929 . S
C656 C654 1.356 . S
C656 C658 1.358 . S
C656 H697 0.930 . S
C657 C655 1.353 . S
C657 N659 1.314 . S
C657 H698 0.930 . S
C658 C656 1.358 . S
C658 N659 1.279 . S
C658 H699 0.930 . S
N659 C657 1.314 . S
N659 C658 1.279 . S
C660 C662 1.353 . S
C660 N663 1.314 . S
C660 H666 0.930 . S
C661 N663 1.279 . S
C661 C664 1.358 . S
C661 H667 0.930 . S
C662 C660 1.353 . S
C662 C665 1.348 . S
C662 H700 0.929 . S
N663 Li618 1.990 . S
N663 C660 1.314 . S
N663 C661 1.279 . S
C664 C661 1.358 . S
C664 C665 1.356 . S
C664 H701 0.930 . S
C665 C662 1.348 . S
C665 C664 1.356 . S
H666 C660 0.930 . S
H667 C661 0.930 . S
C668 N669 1.314 . S
C668 C670 1.353 . S
C668 H674 0.930 . S
N669 Li619 1.990 . S
N669 C668 1.314 . S
N669 C672 1.279 . S
C670 C668 1.353 . S
C670 C673 1.348 . S
C670 H702 0.929 . S
C671 C672 1.358 . S
C671 C673 1.356 . S
C671 H703 0.930 . S
C672 N669 1.279 . S
C672 C671 1.358 . S
C672 H675 0.930 . S
C673 C670 1.348 . S
C673 C671 1.356 . S
H674 C668 0.930 . S
H675 C672 0.930 . S
O676 Li616 1.956 . S
O676 Li617 1.970 . S
O676 Li618 1.961 . S
O676 C620 1.325 . S
O677 Li616 1.970 . S
O677 Li617 1.956 . S
O677 Li619 1.961 . S
O677 C626 1.325 . S
O678 Li616 1.961 . S
O678 Li618 1.956 . S
O678 Li619 1.970 . S
O678 C648 1.325 . S
O679 Li617 1.961 . S
O679 Li618 1.970 . S
O679 Li619 1.956 . S
O679 C654 1.325 . S
H680 C622 0.929 . S
H681 C623 0.930 . S
H682 C624 0.930 . S
H683 C625 0.930 . S
H684 C627 0.930 . S
H685 C629 0.929 . S
H686 C630 0.930 . S
H687 C631 0.930 . S
H688 C634 0.930 . S
H689 C637 0.929 . S
H690 C642 0.929 . S
H691 C643 0.930 . S
H692 C650 0.929 . S
H693 C651 0.930 . S
H694 C652 0.930 . S
H695 C653 0.930 . S
H696 C655 0.929 . S
H697 C656 0.930 . S
H698 C657 0.930 . S
H699 C658 0.930 . S
H700 C662 0.929 . S
H701 C664 0.930 . S
H702 C670 0.929 . S
H703 C671 0.930 . S
Li704 N721 1.990 . S
Li704 O764 1.956 . S
Li704 O765 1.970 . S
Li704 O766 1.961 . S
Li705 N729 1.990 . S
Li705 O764 1.970 . S
Li705 O765 1.956 . S
Li705 O767 1.961 . S
Li706 N751 1.990 . S
Li706 O764 1.961 . S
Li706 O766 1.956 . S
Li706 O767 1.970 . S
Li707 N757 1.990 . S
Li707 O765 1.961 . S
Li707 O766 1.970 . S
Li707 O767 1.956 . S
C708 C710 1.348 . S
C708 C711 1.356 . S
C708 O764 1.325 . S
N709 C712 1.314 . S
N709 C713 1.279 . S
C710 C708 1.348 . S
C710 C712 1.353 . S
C710 H768 0.929 . S
C711 C708 1.356 . S
C711 C713 1.358 . S
C711 H769 0.930 . S
C712 N709 1.314 . S
C712 C710 1.353 . S
C712 H770 0.930 . S
C713 N709 1.279 . S
C713 C711 1.358 . S
C713 H771 0.930 . S
C714 C717 1.348 . S
C714 C718 1.356 . S
C714 O765 1.325 . S
C715 N716 1.279 . S
C715 C718 1.358 . S
C715 H772 0.930 . S
N716 C715 1.279 . S
N716 C719 1.314 . S
C717 C714 1.348 . S
C717 C719 1.353 . S
C717 H773 0.929 . S
C718 C714 1.356 . S
C718 C715 1.358 . S
C718 H774 0.930 . S
C719 N716 1.314 . S
C719 C717 1.353 . S
C719 H775 0.930 . S
C720 N721 1.314 . S
C720 C725 1.353 . S
C720 H726 0.930 . S
N721 Li704 1.990 . S
N721 C720 1.314 . S
N721 C723 1.279 . S
C722 C723 1.358 . S
C722 C724 1.356 . S
C722 H776 0.930 . S
C723 N721 1.279 . S
C723 C722 1.358 . S
C723 H727 0.930 . S
C724 C722 1.356 . S
C724 C725 1.348 . S
C725 C720 1.353 . S
C725 C724 1.348 . S
C725 H777 0.929 . S
H726 C720 0.930 . S
H727 C723 0.930 . S
C728 N729 1.314 . S
C728 C730 1.353 . S
C728 H734 0.930 . S
N729 Li705 1.990 . S
N729 C728 1.314 . S
N729 C732 1.279 . S
C730 C728 1.353 . S
C730 C733 1.348 . S
C730 H778 0.929 . S
C731 C732 1.358 . S
C731 C733 1.356 . S
C731 H779 0.930 . S
C732 N729 1.279 . S
C732 C731 1.358 . S
C732 H735 0.930 . S
C733 C730 1.348 . S
C733 C731 1.356 . S
H734 C728 0.930 . S
H735 C732 0.930 . S
C736 C738 1.348 . S
C736 C739 1.356 . S
C736 O766 1.325 . S
N737 C740 1.314 . S
N737 C741 1.279 . S
C738 C736 1.348 . S
C738 C740 1.353 . S
C738 H780 0.929 . S
C739 C736 1.356 . S
C739 C741 1.358 . S
C739 H781 0.930 . S
C740 N737 1.314 . S
C740 C738 1.353 . S
C740 H782 0.930 . S
C741 N737 1.279 . S
C741 C739 1.358 . S
C741 H783 0.930 . S
C742 C743 1.348 . S
C742 C744 1.356 . S
C742 O767 1.325 . S
C743 C742 1.348 . S
C743 C745 1.353 . S
C743 H784 0.929 . S
C744 C742 1.356 . S
C744 C746 1.358 . S
C744 H785 0.930 . S
C745 C743 1.353 . S
C745 N747 1.314 . S
C745 H786 0.930 . S
C746 C744 1.358 . S
C746 N747 1.279 . S
C746 H787 0.930 . S
N747 C745 1.314 . S
N747 C746 1.279 . S
C748 C750 1.353 . S
C748 N751 1.314 . S
C748 H754 0.930 . S
C749 N751 1.279 . S
C749 C752 1.358 . S
C749 H755 0.930 . S
C750 C748 1.353 . S
C750 C753 1.348 . S
C750 H788 0.929 . S
N751 Li706 1.990 . S
N751 C748 1.314 . S
N751 C749 1.279 . S
C752 C749 1.358 . S
C752 C753 1.356 . S
C752 H789 0.930 . S
C753 C750 1.348 . S
C753 C752 1.356 . S
H754 C748 0.930 . S
H755 C749 0.930 . S
C756 N757 1.314 . S
C756 C758 1.353 . S
C756 H762 0.930 . S
N757 Li707 1.990 . S
N757 C756 1.314 . S
N757 C760 1.279 . S
C758 C756 1.353 . S
C758 C761 1.348 . S
C758 H790 0.929 . S
C759 C760 1.358 . S
C759 C761 1.356 . S
C759 H791 0.930 . S
C760 N757 1.279 . S
C760 C759 1.358 . S
C760 H763 0.930 . S
C761 C758 1.348 . S
C761 C759 1.356 . S
H762 C756 0.930 . S
H763 C760 0.930 . S
O764 Li704 1.956 . S
O764 Li705 1.970 . S
O764 Li706 1.961 . S
O764 C708 1.325 . S
O765 Li704 1.970 . S
O765 Li705 1.956 . S
O765 Li707 1.961 . S
O765 C714 1.325 . S
O766 Li704 1.961 . S
O766 Li706 1.956 . S
O766 Li707 1.970 . S
O766 C736 1.325 . S
O767 Li705 1.961 . S
O767 Li706 1.970 . S
O767 Li707 1.956 . S
O767 C742 1.325 . S
H768 C710 0.929 . S
H769 C711 0.930 . S
H770 C712 0.930 . S
H771 C713 0.930 . S
H772 C715 0.930 . S
H773 C717 0.929 . S
H774 C718 0.930 . S
H775 C719 0.930 . S
H776 C722 0.930 . S
H777 C725 0.929 . S
H778 C730 0.929 . S
H779 C731 0.930 . S
H780 C738 0.929 . S
H781 C739 0.930 . S
H782 C740 0.930 . S
H783 C741 0.930 . S
H784 C743 0.929 . S
H785 C744 0.930 . S
H786 C745 0.930 . S
H787 C746 0.930 . S
H788 C750 0.929 . S
H789 C752 0.930 . S
H790 C758 0.929 . S
H791 C759 0.930 . S
Li792 N809 1.990 . S
Li792 O852 1.956 . S
Li792 O853 1.970 . S
Li792 O854 1.961 . S
Li793 N817 1.990 . S
Li793 O852 1.970 . S
Li793 O853 1.956 . S
Li793 O855 1.961 . S
Li794 N839 1.990 . S
Li794 O852 1.961 . S
Li794 O854 1.956 . S
Li794 O855 1.970 . S
Li795 N845 1.990 . S
Li795 O853 1.961 . S
Li795 O854 1.970 . S
Li795 O855 1.956 . S
C796 C798 1.348 . S
C796 C799 1.356 . S
C796 O852 1.325 . S
N797 C800 1.314 . S
N797 C801 1.279 . S
C798 C796 1.348 . S
C798 C800 1.353 . S
C798 H856 0.929 . S
C799 C796 1.356 . S
C799 C801 1.358 . S
C799 H857 0.930 . S
C800 N797 1.314 . S
C800 C798 1.353 . S
C800 H858 0.930 . S
C801 N797 1.279 . S
C801 C799 1.358 . S
C801 H859 0.930 . S
C802 C805 1.348 . S
C802 C806 1.356 . S
C802 O853 1.325 . S
C803 N804 1.279 . S
C803 C806 1.358 . S
C803 H860 0.930 . S
N804 C803 1.279 . S
N804 C807 1.314 . S
C805 C802 1.348 . S
C805 C807 1.353 . S
C805 H861 0.929 . S
C806 C802 1.356 . S
C806 C803 1.358 . S
C806 H862 0.930 . S
C807 N804 1.314 . S
C807 C805 1.353 . S
C807 H863 0.930 . S
C808 N809 1.314 . S
C808 C813 1.353 . S
C808 H814 0.930 . S
N809 Li792 1.990 . S
N809 C808 1.314 . S
N809 C811 1.279 . S
C810 C811 1.358 . S
C810 C812 1.356 . S
C810 H864 0.930 . S
C811 N809 1.279 . S
C811 C810 1.358 . S
C811 H815 0.930 . S
C812 C810 1.356 . S
C812 C813 1.348 . S
C813 C808 1.353 . S
C813 C812 1.348 . S
C813 H865 0.929 . S
H814 C808 0.930 . S
H815 C811 0.930 . S
C816 N817 1.314 . S
C816 C818 1.353 . S
C816 H822 0.930 . S
N817 Li793 1.990 . S
N817 C816 1.314 . S
N817 C820 1.279 . S
C818 C816 1.353 . S
C818 C821 1.348 . S
C818 H866 0.929 . S
C819 C820 1.358 . S
C819 C821 1.356 . S
C819 H867 0.930 . S
C820 N817 1.279 . S
C820 C819 1.358 . S
C820 H823 0.930 . S
C821 C818 1.348 . S
C821 C819 1.356 . S
H822 C816 0.930 . S
H823 C820 0.930 . S
C824 C826 1.348 . S
C824 C827 1.356 . S
C824 O854 1.325 . S
N825 C828 1.314 . S
N825 C829 1.279 . S
C826 C824 1.348 . S
C826 C828 1.353 . S
C826 H868 0.929 . S
C827 C824 1.356 . S
C827 C829 1.358 . S
C827 H869 0.930 . S
C828 N825 1.314 . S
C828 C826 1.353 . S
C828 H870 0.930 . S
C829 N825 1.279 . S
C829 C827 1.358 . S
C829 H871 0.930 . S
C830 C831 1.348 . S
C830 C832 1.356 . S
C830 O855 1.325 . S
C831 C830 1.348 . S
C831 C833 1.353 . S
C831 H872 0.929 . S
C832 C830 1.356 . S
C832 C834 1.358 . S
C832 H873 0.930 . S
C833 C831 1.353 . S
C833 N835 1.314 . S
C833 H874 0.930 . S
C834 C832 1.358 . S
C834 N835 1.279 . S
C834 H875 0.930 . S
N835 C833 1.314 . S
N835 C834 1.279 . S
C836 C838 1.353 . S
C836 N839 1.314 . S
C836 H842 0.930 . S
C837 N839 1.279 . S
C837 C840 1.358 . S
C837 H843 0.930 . S
C838 C836 1.353 . S
C838 C841 1.348 . S
C838 H876 0.929 . S
N839 Li794 1.990 . S
N839 C836 1.314 . S
N839 C837 1.279 . S
C840 C837 1.358 . S
C840 C841 1.356 . S
C840 H877 0.930 . S
C841 C838 1.348 . S
C841 C840 1.356 . S
H842 C836 0.930 . S
H843 C837 0.930 . S
C844 N845 1.314 . S
C844 C846 1.353 . S
C844 H850 0.930 . S
N845 Li795 1.990 . S
N845 C844 1.314 . S
N845 C848 1.279 . S
C846 C844 1.353 . S
C846 C849 1.348 . S
C846 H878 0.929 . S
C847 C848 1.358 . S
C847 C849 1.356 . S
C847 H879 0.930 . S
C848 N845 1.279 . S
C848 C847 1.358 . S
C848 H851 0.930 . S
C849 C846 1.348 . S
C849 C847 1.356 . S
H850 C844 0.930 . S
H851 C848 0.930 . S
O852 Li792 1.956 . S
O852 Li793 1.970 . S
O852 Li794 1.961 . S
O852 C796 1.325 . S
O853 Li792 1.970 . S
O853 Li793 1.956 . S
O853 Li795 1.961 . S
O853 C802 1.325 . S
O854 Li792 1.961 . S
O854 Li794 1.956 . S
O854 Li795 1.970 . S
O854 C824 1.325 . S
O855 Li793 1.961 . S
O855 Li794 1.970 . S
O855 Li795 1.956 . S
O855 C830 1.325 . S
H856 C798 0.929 . S
H857 C799 0.930 . S
H858 C800 0.930 . S
H859 C801 0.930 . S
H860 C803 0.930 . S
H861 C805 0.929 . S
H862 C806 0.930 . S
H863 C807 0.930 . S
H864 C810 0.930 . S
H865 C813 0.929 . S
H866 C818 0.929 . S
H867 C819 0.930 . S
H868 C826 0.929 . S
H869 C827 0.930 . S
H870 C828 0.930 . S
H871 C829 0.930 . S
H872 C831 0.929 . S
H873 C832 0.930 . S
H874 C833 0.930 . S
H875 C834 0.930 . S
H876 C838 0.929 . S
H877 C840 0.930 . S
H878 C846 0.929 . S
H879 C847 0.930 . S
Li880 N897 1.990 . S
Li880 O940 1.956 . S
Li880 O941 1.970 . S
Li880 O942 1.961 . S
Li881 N905 1.990 . S
Li881 O940 1.970 . S
Li881 O941 1.956 . S
Li881 O943 1.961 . S
Li882 N927 1.990 . S
Li882 O940 1.961 . S
Li882 O942 1.956 . S
Li882 O943 1.970 . S
Li883 N933 1.990 . S
Li883 O941 1.961 . S
Li883 O942 1.970 . S
Li883 O943 1.956 . S
C884 C886 1.348 . S
C884 C887 1.356 . S
C884 O940 1.325 . S
N885 C888 1.314 . S
N885 C889 1.279 . S
C886 C884 1.348 . S
C886 C888 1.353 . S
C886 H944 0.929 . S
C887 C884 1.356 . S
C887 C889 1.358 . S
C887 H945 0.930 . S
C888 N885 1.314 . S
C888 C886 1.353 . S
C888 H946 0.930 . S
C889 N885 1.279 . S
C889 C887 1.358 . S
C889 H947 0.930 . S
C890 C893 1.348 . S
C890 C894 1.356 . S
C890 O941 1.325 . S
C891 N892 1.279 . S
C891 C894 1.358 . S
C891 H948 0.930 . S
N892 C891 1.279 . S
N892 C895 1.314 . S
C893 C890 1.348 . S
C893 C895 1.353 . S
C893 H949 0.929 . S
C894 C890 1.356 . S
C894 C891 1.358 . S
C894 H950 0.930 . S
C895 N892 1.314 . S
C895 C893 1.353 . S
C895 H951 0.930 . S
C896 N897 1.314 . S
C896 C901 1.353 . S
C896 H902 0.930 . S
N897 Li880 1.990 . S
N897 C896 1.314 . S
N897 C899 1.279 . S
C898 C899 1.358 . S
C898 C900 1.356 . S
C898 H952 0.930 . S
C899 N897 1.279 . S
C899 C898 1.358 . S
C899 H903 0.930 . S
C900 C898 1.356 . S
C900 C901 1.348 . S
C901 C896 1.353 . S
C901 C900 1.348 . S
C901 H953 0.929 . S
H902 C896 0.930 . S
H903 C899 0.930 . S
C904 N905 1.314 . S
C904 C906 1.353 . S
C904 H910 0.930 . S
N905 Li881 1.990 . S
N905 C904 1.314 . S
N905 C908 1.279 . S
C906 C904 1.353 . S
C906 C909 1.348 . S
C906 H954 0.929 . S
C907 C908 1.358 . S
C907 C909 1.356 . S
C907 H955 0.930 . S
C908 N905 1.279 . S
C908 C907 1.358 . S
C908 H911 0.930 . S
C909 C906 1.348 . S
C909 C907 1.356 . S
H910 C904 0.930 . S
H911 C908 0.930 . S
C912 C914 1.348 . S
C912 C915 1.356 . S
C912 O942 1.325 . S
N913 C916 1.314 . S
N913 C917 1.279 . S
C914 C912 1.348 . S
C914 C916 1.353 . S
C914 H956 0.929 . S
C915 C912 1.356 . S
C915 C917 1.358 . S
C915 H957 0.930 . S
C916 N913 1.314 . S
C916 C914 1.353 . S
C916 H958 0.930 . S
C917 N913 1.279 . S
C917 C915 1.358 . S
C917 H959 0.930 . S
C918 C919 1.348 . S
C918 C920 1.356 . S
C918 O943 1.325 . S
C919 C918 1.348 . S
C919 C921 1.353 . S
C919 H960 0.929 . S
C920 C918 1.356 . S
C920 C922 1.358 . S
C920 H961 0.930 . S
C921 C919 1.353 . S
C921 N923 1.314 . S
C921 H962 0.930 . S
C922 C920 1.358 . S
C922 N923 1.279 . S
C922 H963 0.930 . S
N923 C921 1.314 . S
N923 C922 1.279 . S
C924 C926 1.353 . S
C924 N927 1.314 . S
C924 H930 0.930 . S
C925 N927 1.279 . S
C925 C928 1.358 . S
C925 H931 0.930 . S
C926 C924 1.353 . S
C926 C929 1.348 . S
C926 H964 0.929 . S
N927 Li882 1.990 . S
N927 C924 1.314 . S
N927 C925 1.279 . S
C928 C925 1.358 . S
C928 C929 1.356 . S
C928 H965 0.930 . S
C929 C926 1.348 . S
C929 C928 1.356 . S
H930 C924 0.930 . S
H931 C925 0.930 . S
C932 N933 1.314 . S
C932 C934 1.353 . S
C932 H938 0.930 . S
N933 Li883 1.990 . S
N933 C932 1.314 . S
N933 C936 1.279 . S
C934 C932 1.353 . S
C934 C937 1.348 . S
C934 H966 0.929 . S
C935 C936 1.358 . S
C935 C937 1.356 . S
C935 H967 0.930 . S
C936 N933 1.279 . S
C936 C935 1.358 . S
C936 H939 0.930 . S
C937 C934 1.348 . S
C937 C935 1.356 . S
H938 C932 0.930 . S
H939 C936 0.930 . S
O940 Li880 1.956 . S
O940 Li881 1.970 . S
O940 Li882 1.961 . S
O940 C884 1.325 . S
O941 Li880 1.970 . S
O941 Li881 1.956 . S
O941 Li883 1.961 . S
O941 C890 1.325 . S
O942 Li880 1.961 . S
O942 Li882 1.956 . S
O942 Li883 1.970 . S
O942 C912 1.325 . S
O943 Li881 1.961 . S
O943 Li882 1.970 . S
O943 Li883 1.956 . S
O943 C918 1.325 . S
H944 C886 0.929 . S
H945 C887 0.930 . S
H946 C888 0.930 . S
H947 C889 0.930 . S
H948 C891 0.930 . S
H949 C893 0.929 . S
H950 C894 0.930 . S
H951 C895 0.930 . S
H952 C898 0.930 . S
H953 C901 0.929 . S
H954 C906 0.929 . S
H955 C907 0.930 . S
H956 C914 0.929 . S
H957 C915 0.930 . S
H958 C916 0.930 . S
H959 C917 0.930 . S
H960 C919 0.929 . S
H961 C920 0.930 . S
H962 C921 0.930 . S
H963 C922 0.930 . S
H964 C926 0.929 . S
H965 C928 0.930 . S
H966 C934 0.929 . S
H967 C935 0.930 . S
Li968 N985 1.990 . S
Li968 O1028 1.956 . S
Li968 O1029 1.970 . S
Li968 O1030 1.961 . S
Li969 N993 1.990 . S
Li969 O1028 1.970 . S
Li969 O1029 1.956 . S
Li969 O1031 1.961 . S
Li970 N1015 1.990 . S
Li970 O1028 1.961 . S
Li970 O1030 1.956 . S
Li970 O1031 1.970 . S
Li971 N1021 1.990 . S
Li971 O1029 1.961 . S
Li971 O1030 1.970 . S
Li971 O1031 1.956 . S
C972 C974 1.348 . S
C972 C975 1.356 . S
C972 O1028 1.325 . S
N973 C976 1.314 . S
N973 C977 1.279 . S
C974 C972 1.348 . S
C974 C976 1.353 . S
C974 H1032 0.929 . S
C975 C972 1.356 . S
C975 C977 1.358 . S
C975 H1033 0.930 . S
C976 N973 1.314 . S
C976 C974 1.353 . S
C976 H1034 0.930 . S
C977 N973 1.279 . S
C977 C975 1.358 . S
C977 H1035 0.930 . S
C978 C981 1.348 . S
C978 C982 1.356 . S
C978 O1029 1.325 . S
C979 N980 1.279 . S
C979 C982 1.358 . S
C979 H1036 0.930 . S
N980 C979 1.279 . S
N980 C983 1.314 . S
C981 C978 1.348 . S
C981 C983 1.353 . S
C981 H1037 0.929 . S
C982 C978 1.356 . S
C982 C979 1.358 . S
C982 H1038 0.930 . S
C983 N980 1.314 . S
C983 C981 1.353 . S
C983 H1039 0.930 . S
C984 N985 1.314 . S
C984 C989 1.353 . S
C984 H990 0.930 . S
N985 Li968 1.990 . S
N985 C984 1.314 . S
N985 C987 1.279 . S
C986 C987 1.358 . S
C986 C988 1.356 . S
C986 H1040 0.930 . S
C987 N985 1.279 . S
C987 C986 1.358 . S
C987 H991 0.930 . S
C988 C986 1.356 . S
C988 C989 1.348 . S
C989 C984 1.353 . S
C989 C988 1.348 . S
C989 H1041 0.929 . S
H990 C984 0.930 . S
H991 C987 0.930 . S
C992 N993 1.314 . S
C992 C994 1.353 . S
C992 H998 0.930 . S
N993 Li969 1.990 . S
N993 C992 1.314 . S
N993 C996 1.279 . S
C994 C992 1.353 . S
C994 C997 1.348 . S
C994 H1042 0.929 . S
C995 C996 1.358 . S
C995 C997 1.356 . S
C995 H1043 0.930 . S
C996 N993 1.279 . S
C996 C995 1.358 . S
C996 H999 0.930 . S
C997 C994 1.348 . S
C997 C995 1.356 . S
H998 C992 0.930 . S
H999 C996 0.930 . S
C1000 C1002 1.348 . S
C1000 C1003 1.356 . S
C1000 O1030 1.325 . S
N1001 C1004 1.314 . S
N1001 C1005 1.279 . S
C1002 C1000 1.348 . S
C1002 C1004 1.353 . S
C1002 H1044 0.929 . S
C1003 C1000 1.356 . S
C1003 C1005 1.358 . S
C1003 H1045 0.930 . S
C1004 N1001 1.314 . S
C1004 C1002 1.353 . S
C1004 H1046 0.930 . S
C1005 N1001 1.279 . S
C1005 C1003 1.358 . S
C1005 H1047 0.930 . S
C1006 C1007 1.348 . S
C1006 C1008 1.356 . S
C1006 O1031 1.325 . S
C1007 C1006 1.348 . S
C1007 C1009 1.353 . S
C1007 H1048 0.929 . S
C1008 C1006 1.356 . S
C1008 C1010 1.358 . S
C1008 H1049 0.930 . S
C1009 C1007 1.353 . S
C1009 N1011 1.314 . S
C1009 H1050 0.930 . S
C1010 C1008 1.358 . S
C1010 N1011 1.279 . S
C1010 H1051 0.930 . S
N1011 C1009 1.314 . S
N1011 C1010 1.279 . S
C1012 C1014 1.353 . S
C1012 N1015 1.314 . S
C1012 H1018 0.930 . S
C1013 N1015 1.279 . S
C1013 C1016 1.358 . S
C1013 H1019 0.930 . S
C1014 C1012 1.353 . S
C1014 C1017 1.348 . S
C1014 H1052 0.929 . S
N1015 Li970 1.990 . S
N1015 C1012 1.314 . S
N1015 C1013 1.279 . S
C1016 C1013 1.358 . S
C1016 C1017 1.356 . S
C1016 H1053 0.930 . S
C1017 C1014 1.348 . S
C1017 C1016 1.356 . S
H1018 C1012 0.930 . S
H1019 C1013 0.930 . S
C1020 N1021 1.314 . S
C1020 C1022 1.353 . S
C1020 H1026 0.930 . S
N1021 Li971 1.990 . S
N1021 C1020 1.314 . S
N1021 C1024 1.279 . S
C1022 C1020 1.353 . S
C1022 C1025 1.348 . S
C1022 H1054 0.929 . S
C1023 C1024 1.358 . S
C1023 C1025 1.356 . S
C1023 H1055 0.930 . S
C1024 N1021 1.279 . S
C1024 C1023 1.358 . S
C1024 H1027 0.930 . S
C1025 C1022 1.348 . S
C1025 C1023 1.356 . S
H1026 C1020 0.930 . S
H1027 C1024 0.930 . S
O1028 Li968 1.956 . S
O1028 Li969 1.970 . S
O1028 Li970 1.961 . S
O1028 C972 1.325 . S
O1029 Li968 1.970 . S
O1029 Li969 1.956 . S
O1029 Li971 1.961 . S
O1029 C978 1.325 . S
O1030 Li968 1.961 . S
O1030 Li970 1.956 . S
O1030 Li971 1.970 . S
O1030 C1000 1.325 . S
O1031 Li969 1.961 . S
O1031 Li970 1.970 . S
O1031 Li971 1.956 . S
O1031 C1006 1.325 . S
H1032 C974 0.929 . S
H1033 C975 0.930 . S
H1034 C976 0.930 . S
H1035 C977 0.930 . S
H1036 C979 0.930 . S
H1037 C981 0.929 . S
H1038 C982 0.930 . S
H1039 C983 0.930 . S
H1040 C986 0.930 . S
H1041 C989 0.929 . S
H1042 C994 0.929 . S
H1043 C995 0.930 . S
H1044 C1002 0.929 . S
H1045 C1003 0.930 . S
H1046 C1004 0.930 . S
H1047 C1005 0.930 . S
H1048 C1007 0.929 . S
H1049 C1008 0.930 . S
H1050 C1009 0.930 . S
H1051 C1010 0.930 . S
H1052 C1014 0.929 . S
H1053 C1016 0.930 . S
H1054 C1022 0.929 . S
H1055 C1023 0.930 . S
Li1056 N1073 1.990 . S
Li1056 O1116 1.956 . S
Li1056 O1117 1.970 . S
Li1056 O1118 1.961 . S
Li1057 N1081 1.990 . S
Li1057 O1116 1.970 . S
Li1057 O1117 1.956 . S
Li1057 O1119 1.961 . S
Li1058 N1103 1.990 . S
Li1058 O1116 1.961 . S
Li1058 O1118 1.956 . S
Li1058 O1119 1.970 . S
Li1059 N1109 1.990 . S
Li1059 O1117 1.961 . S
Li1059 O1118 1.970 . S
Li1059 O1119 1.956 . S
C1060 C1062 1.348 . S
C1060 C1063 1.356 . S
C1060 O1116 1.325 . S
N1061 C1064 1.314 . S
N1061 C1065 1.279 . S
C1062 C1060 1.348 . S
C1062 C1064 1.353 . S
C1062 H1120 0.929 . S
C1063 C1060 1.356 . S
C1063 C1065 1.358 . S
C1063 H1121 0.930 . S
C1064 N1061 1.314 . S
C1064 C1062 1.353 . S
C1064 H1122 0.930 . S
C1065 N1061 1.279 . S
C1065 C1063 1.358 . S
C1065 H1123 0.930 . S
C1066 C1069 1.348 . S
C1066 C1070 1.356 . S
C1066 O1117 1.325 . S
C1067 N1068 1.279 . S
C1067 C1070 1.358 . S
C1067 H1124 0.930 . S
N1068 C1067 1.279 . S
N1068 C1071 1.314 . S
C1069 C1066 1.348 . S
C1069 C1071 1.353 . S
C1069 H1125 0.929 . S
C1070 C1066 1.356 . S
C1070 C1067 1.358 . S
C1070 H1126 0.930 . S
C1071 N1068 1.314 . S
C1071 C1069 1.353 . S
C1071 H1127 0.930 . S
C1072 N1073 1.314 . S
C1072 C1077 1.353 . S
C1072 H1078 0.930 . S
N1073 Li1056 1.990 . S
N1073 C1072 1.314 . S
N1073 C1075 1.279 . S
C1074 C1075 1.358 . S
C1074 C1076 1.356 . S
C1074 H1128 0.930 . S
C1075 N1073 1.279 . S
C1075 C1074 1.358 . S
C1075 H1079 0.930 . S
C1076 C1074 1.356 . S
C1076 C1077 1.348 . S
C1077 C1072 1.353 . S
C1077 C1076 1.348 . S
C1077 H1129 0.929 . S
H1078 C1072 0.930 . S
H1079 C1075 0.930 . S
C1080 N1081 1.314 . S
C1080 C1082 1.353 . S
C1080 H1086 0.930 . S
N1081 Li1057 1.990 . S
N1081 C1080 1.314 . S
N1081 C1084 1.279 . S
C1082 C1080 1.353 . S
C1082 C1085 1.348 . S
C1082 H1130 0.929 . S
C1083 C1084 1.358 . S
C1083 C1085 1.356 . S
C1083 H1131 0.930 . S
C1084 N1081 1.279 . S
C1084 C1083 1.358 . S
C1084 H1087 0.930 . S
C1085 C1082 1.348 . S
C1085 C1083 1.356 . S
H1086 C1080 0.930 . S
H1087 C1084 0.930 . S
C1088 C1090 1.348 . S
C1088 C1091 1.356 . S
C1088 O1118 1.325 . S
N1089 C1092 1.314 . S
N1089 C1093 1.279 . S
C1090 C1088 1.348 . S
C1090 C1092 1.353 . S
C1090 H1132 0.929 . S
C1091 C1088 1.356 . S
C1091 C1093 1.358 . S
C1091 H1133 0.930 . S
C1092 N1089 1.314 . S
C1092 C1090 1.353 . S
C1092 H1134 0.930 . S
C1093 N1089 1.279 . S
C1093 C1091 1.358 . S
C1093 H1135 0.930 . S
C1094 C1095 1.348 . S
C1094 C1096 1.356 . S
C1094 O1119 1.325 . S
C1095 C1094 1.348 . S
C1095 C1097 1.353 . S
C1095 H1136 0.929 . S
C1096 C1094 1.356 . S
C1096 C1098 1.358 . S
C1096 H1137 0.930 . S
C1097 C1095 1.353 . S
C1097 N1099 1.314 . S
C1097 H1138 0.930 . S
C1098 C1096 1.358 . S
C1098 N1099 1.279 . S
C1098 H1139 0.930 . S
N1099 C1097 1.314 . S
N1099 C1098 1.279 . S
C1100 C1102 1.353 . S
C1100 N1103 1.314 . S
C1100 H1106 0.930 . S
C1101 N1103 1.279 . S
C1101 C1104 1.358 . S
C1101 H1107 0.930 . S
C1102 C1100 1.353 . S
C1102 C1105 1.348 . S
C1102 H1140 0.929 . S
N1103 Li1058 1.990 . S
N1103 C1100 1.314 . S
N1103 C1101 1.279 . S
C1104 C1101 1.358 . S
C1104 C1105 1.356 . S
C1104 H1141 0.930 . S
C1105 C1102 1.348 . S
C1105 C1104 1.356 . S
H1106 C1100 0.930 . S
H1107 C1101 0.930 . S
C1108 N1109 1.314 . S
C1108 C1110 1.353 . S
C1108 H1114 0.930 . S
N1109 Li1059 1.990 . S
N1109 C1108 1.314 . S
N1109 C1112 1.279 . S
C1110 C1108 1.353 . S
C1110 C1113 1.348 . S
C1110 H1142 0.929 . S
C1111 C1112 1.358 . S
C1111 C1113 1.356 . S
C1111 H1143 0.930 . S
C1112 N1109 1.279 . S
C1112 C1111 1.358 . S
C1112 H1115 0.930 . S
C1113 C1110 1.348 . S
C1113 C1111 1.356 . S
H1114 C1108 0.930 . S
H1115 C1112 0.930 . S
O1116 Li1056 1.956 . S
O1116 Li1057 1.970 . S
O1116 Li1058 1.961 . S
O1116 C1060 1.325 . S
O1117 Li1056 1.970 . S
O1117 Li1057 1.956 . S
O1117 Li1059 1.961 . S
O1117 C1066 1.325 . S
O1118 Li1056 1.961 . S
O1118 Li1058 1.956 . S
O1118 Li1059 1.970 . S
O1118 C1088 1.325 . S
O1119 Li1057 1.961 . S
O1119 Li1058 1.970 . S
O1119 Li1059 1.956 . S
O1119 C1094 1.325 . S
H1120 C1062 0.929 . S
H1121 C1063 0.930 . S
H1122 C1064 0.930 . S
H1123 C1065 0.930 . S
H1124 C1067 0.930 . S
H1125 C1069 0.929 . S
H1126 C1070 0.930 . S
H1127 C1071 0.930 . S
H1128 C1074 0.930 . S
H1129 C1077 0.929 . S
H1130 C1082 0.929 . S
H1131 C1083 0.930 . S
H1132 C1090 0.929 . S
H1133 C1091 0.930 . S
H1134 C1092 0.930 . S
H1135 C1093 0.930 . S
H1136 C1095 0.929 . S
H1137 C1096 0.930 . S
H1138 C1097 0.930 . S
H1139 C1098 0.930 . S
H1140 C1102 0.929 . S
H1141 C1104 0.930 . S
H1142 C1110 0.929 . S
H1143 C1111 0.930 . S
Li1144 N1161 1.990 . S
Li1144 O1204 1.956 1_655 S
Li1144 O1205 1.970 1_655 S
Li1144 O1206 1.961 . S
Li1145 N1169 1.990 . S
Li1145 O1204 1.970 . S
Li1145 O1205 1.956 . S
Li1145 O1207 1.961 . S
Li1146 N1191 1.990 . S
Li1146 O1204 1.961 . S
Li1146 O1206 1.956 1_455 S
Li1146 O1207 1.970 . S
Li1147 N1197 1.990 . S
Li1147 O1205 1.961 . S
Li1147 O1206 1.970 1_455 S
Li1147 O1207 1.956 . S
C1148 C1150 1.348 . S
C1148 C1151 1.356 1_455 S
C1148 O1204 1.325 . S
N1149 C1152 1.314 . S
N1149 C1153 1.279 1_455 S
C1150 C1148 1.348 . S
C1150 C1152 1.353 . S
C1150 H1208 0.929 . S
C1151 C1148 1.356 1_655 S
C1151 C1153 1.358 . S
C1151 H1209 0.930 . S
C1152 N1149 1.314 . S
C1152 C1150 1.353 . S
C1152 H1210 0.930 . S
C1153 N1149 1.279 1_655 S
C1153 C1151 1.358 . S
C1153 H1211 0.930 . S
C1154 C1157 1.348 1_455 S
C1154 C1158 1.356 . S
C1154 O1205 1.325 . S
C1155 N1156 1.279 . S
C1155 C1158 1.358 . S
C1155 H1212 0.930 . S
N1156 C1155 1.279 . S
N1156 C1159 1.312 . S
C1157 C1154 1.348 1_655 S
C1157 C1159 1.353 1_655 S
C1157 H1213 0.929 . S
C1158 C1154 1.356 . S
C1158 C1155 1.358 . S
C1158 H1214 0.930 . S
C1159 N1156 1.312 . S
C1159 C1157 1.353 1_455 S
C1159 H1215 0.931 1_455 S
C1160 N1161 1.314 . S
C1160 C1165 1.353 . S
C1160 H1166 0.930 . S
N1161 Li1144 1.990 . S
N1161 C1160 1.314 . S
N1161 C1163 1.279 . S
C1162 C1163 1.358 . S
C1162 C1164 1.356 . S
C1162 H1216 0.930 . S
C1163 N1161 1.279 . S
C1163 C1162 1.358 . S
C1163 H1167 0.930 . S
C1164 C1162 1.356 . S
C1164 C1165 1.348 . S
C1165 C1160 1.353 . S
C1165 C1164 1.348 . S
C1165 H1217 0.929 . S
H1166 C1160 0.930 . S
H1167 C1163 0.930 . S
C1168 N1169 1.314 . S
C1168 C1170 1.353 . S
C1168 H1174 0.930 . S
N1169 Li1145 1.990 . S
N1169 C1168 1.314 . S
N1169 C1172 1.279 . S
C1170 C1168 1.353 . S
C1170 C1173 1.348 . S
C1170 H1218 0.929 . S
C1171 C1172 1.358 . S
C1171 C1173 1.356 . S
C1171 H1219 0.930 . S
C1172 N1169 1.279 . S
C1172 C1171 1.358 . S
C1172 H1175 0.930 . S
C1173 C1170 1.348 . S
C1173 C1171 1.356 . S
H1174 C1168 0.930 . S
H1175 C1172 0.930 . S
C1176 C1178 1.348 . S
C1176 C1179 1.356 . S
C1176 O1206 1.325 . S
N1177 C1180 1.314 . S
N1177 C1181 1.279 . S
C1178 C1176 1.348 . S
C1178 C1180 1.353 . S
C1178 H1220 0.929 . S
C1179 C1176 1.356 . S
C1179 C1181 1.358 . S
C1179 H1221 0.930 . S
C1180 N1177 1.314 . S
C1180 C1178 1.353 . S
C1180 H1222 0.930 . S
C1181 N1177 1.279 . S
C1181 C1179 1.358 . S
C1181 H1223 0.930 . S
C1182 C1183 1.348 . S
C1182 C1184 1.356 . S
C1182 O1207 1.325 . S
C1183 C1182 1.348 . S
C1183 C1185 1.353 . S
C1183 H1224 0.929 . S
C1184 C1182 1.356 . S
C1184 C1186 1.358 . S
C1184 H1225 0.930 . S
C1185 C1183 1.353 . S
C1185 N1187 1.314 . S
C1185 H1226 0.930 . S
C1186 C1184 1.358 . S
C1186 N1187 1.279 . S
C1186 H1227 0.930 . S
N1187 C1185 1.314 . S
N1187 C1186 1.279 . S
C1188 C1190 1.353 . S
C1188 N1191 1.314 . S
C1188 H1194 0.930 . S
C1189 N1191 1.279 1_655 S
C1189 C1192 1.358 . S
C1189 H1195 0.930 . S
C1190 C1188 1.353 . S
C1190 C1193 1.348 . S
C1190 H1228 0.929 . S
N1191 Li1146 1.990 . S
N1191 C1188 1.314 . S
N1191 C1189 1.279 1_455 S
C1192 C1189 1.358 . S
C1192 C1193 1.356 1_655 S
C1192 H1229 0.930 . S
C1193 C1190 1.348 . S
C1193 C1192 1.356 1_455 S
H1194 C1188 0.930 . S
H1195 C1189 0.930 . S
C1196 N1197 1.319 . S
C1196 C1198 1.352 1_455 S
C1196 H1202 0.924 1_455 S
N1197 Li1147 1.990 . S
N1197 C1196 1.319 . S
N1197 C1200 1.279 . S
C1198 C1196 1.352 1_655 S
C1198 C1201 1.348 1_655 S
C1198 H1230 0.929 . S
C1199 C1200 1.358 . S
C1199 C1201 1.356 . S
C1199 H1231 0.930 . S
C1200 N1197 1.279 . S
C1200 C1199 1.358 . S
C1200 H1203 0.930 . S
C1201 C1198 1.348 1_455 S
C1201 C1199 1.356 . S
H1202 C1196 0.924 1_655 S
H1203 C1200 0.930 . S
O1204 Li1144 1.956 1_455 S
O1204 Li1145 1.970 . S
O1204 Li1146 1.961 . S
O1204 C1148 1.325 . S
O1205 Li1144 1.970 1_455 S
O1205 Li1145 1.956 . S
O1205 Li1147 1.961 . S
O1205 C1154 1.325 . S
O1206 Li1144 1.961 . S
O1206 Li1146 1.956 1_655 S
O1206 Li1147 1.970 1_655 S
O1206 C1176 1.325 . S
O1207 Li1145 1.961 . S
O1207 Li1146 1.970 . S
O1207 Li1147 1.956 . S
O1207 C1182 1.325 . S
H1208 C1150 0.929 . S
H1209 C1151 0.930 . S
H1210 C1152 0.930 . S
H1211 C1153 0.930 . S
H1212 C1155 0.930 . S
H1213 C1157 0.929 . S
H1214 C1158 0.930 . S
H1215 C1159 0.931 1_655 S
H1216 C1162 0.930 . S
H1217 C1165 0.929 . S
H1218 C1170 0.929 . S
H1219 C1171 0.930 . S
H1220 C1178 0.929 . S
H1221 C1179 0.930 . S
H1222 C1180 0.930 . S
H1223 C1181 0.930 . S
H1224 C1183 0.929 . S
H1225 C1184 0.930 . S
H1226 C1185 0.930 . S
H1227 C1186 0.930 . S
H1228 C1190 0.929 . S
H1229 C1192 0.930 . S
H1230 C1198 0.929 . S
H1231 C1199 0.930 . S
Li1232 N1249 1.990 . S
Li1232 O1292 1.956 . S
Li1232 O1293 1.970 . S
Li1232 O1294 1.961 . S
Li1233 N1257 1.990 . S
Li1233 O1292 1.970 . S
Li1233 O1293 1.956 . S
Li1233 O1295 1.961 . S
Li1234 N1279 1.990 . S
Li1234 O1292 1.961 . S
Li1234 O1294 1.956 . S
Li1234 O1295 1.970 . S
Li1235 N1285 1.990 . S
Li1235 O1293 1.961 . S
Li1235 O1294 1.970 . S
Li1235 O1295 1.956 . S
C1236 C1238 1.348 . S
C1236 C1239 1.356 . S
C1236 O1292 1.325 . S
N1237 C1240 1.314 . S
N1237 C1241 1.279 . S
C1238 C1236 1.348 . S
C1238 C1240 1.353 . S
C1238 H1296 0.929 . S
C1239 C1236 1.356 . S
C1239 C1241 1.358 . S
C1239 H1297 0.930 . S
C1240 N1237 1.314 . S
C1240 C1238 1.353 . S
C1240 H1298 0.930 . S
C1241 N1237 1.279 . S
C1241 C1239 1.358 . S
C1241 H1299 0.930 . S
C1242 C1245 1.348 . S
C1242 C1246 1.356 . S
C1242 O1293 1.325 . S
C1243 N1244 1.279 . S
C1243 C1246 1.358 . S
C1243 H1300 0.930 . S
N1244 C1243 1.279 . S
N1244 C1247 1.314 . S
C1245 C1242 1.348 . S
C1245 C1247 1.353 . S
C1245 H1301 0.929 . S
C1246 C1242 1.356 . S
C1246 C1243 1.358 . S
C1246 H1302 0.930 . S
C1247 N1244 1.314 . S
C1247 C1245 1.353 . S
C1247 H1303 0.930 . S
C1248 N1249 1.314 . S
C1248 C1253 1.353 . S
C1248 H1254 0.930 . S
N1249 Li1232 1.990 . S
N1249 C1248 1.314 . S
N1249 C1251 1.279 . S
C1250 C1251 1.358 . S
C1250 C1252 1.356 . S
C1250 H1304 0.930 . S
C1251 N1249 1.279 . S
C1251 C1250 1.358 . S
C1251 H1255 0.930 . S
C1252 C1250 1.356 . S
C1252 C1253 1.348 . S
C1253 C1248 1.353 . S
C1253 C1252 1.348 . S
C1253 H1305 0.929 . S
H1254 C1248 0.930 . S
H1255 C1251 0.930 . S
C1256 N1257 1.314 . S
C1256 C1258 1.353 . S
C1256 H1262 0.930 . S
N1257 Li1233 1.990 . S
N1257 C1256 1.314 . S
N1257 C1260 1.279 . S
C1258 C1256 1.353 . S
C1258 C1261 1.348 . S
C1258 H1306 0.929 . S
C1259 C1260 1.358 . S
C1259 C1261 1.356 . S
C1259 H1307 0.930 . S
C1260 N1257 1.279 . S
C1260 C1259 1.358 . S
C1260 H1263 0.930 . S
C1261 C1258 1.348 . S
C1261 C1259 1.356 . S
H1262 C1256 0.930 . S
H1263 C1260 0.930 . S
C1264 C1266 1.348 . S
C1264 C1267 1.356 . S
C1264 O1294 1.325 . S
N1265 C1268 1.314 . S
N1265 C1269 1.279 . S
C1266 C1264 1.348 . S
C1266 C1268 1.353 . S
C1266 H1308 0.929 . S
C1267 C1264 1.356 . S
C1267 C1269 1.358 . S
C1267 H1309 0.930 . S
C1268 N1265 1.314 . S
C1268 C1266 1.353 . S
C1268 H1310 0.930 . S
C1269 N1265 1.279 . S
C1269 C1267 1.358 . S
C1269 H1311 0.930 . S
C1270 C1271 1.348 . S
C1270 C1272 1.356 . S
C1270 O1295 1.325 . S
C1271 C1270 1.348 . S
C1271 C1273 1.353 . S
C1271 H1312 0.929 . S
C1272 C1270 1.356 . S
C1272 C1274 1.358 . S
C1272 H1313 0.930 . S
C1273 C1271 1.353 . S
C1273 N1275 1.314 . S
C1273 H1314 0.930 . S
C1274 C1272 1.358 . S
C1274 N1275 1.279 . S
C1274 H1315 0.930 . S
N1275 C1273 1.314 . S
N1275 C1274 1.279 . S
C1276 C1278 1.353 . S
C1276 N1279 1.314 . S
C1276 H1282 0.930 . S
C1277 N1279 1.279 . S
C1277 C1280 1.358 . S
C1277 H1283 0.930 . S
C1278 C1276 1.353 . S
C1278 C1281 1.348 . S
C1278 H1316 0.929 . S
N1279 Li1234 1.990 . S
N1279 C1276 1.314 . S
N1279 C1277 1.279 . S
C1280 C1277 1.358 . S
C1280 C1281 1.356 . S
C1280 H1317 0.930 . S
C1281 C1278 1.348 . S
C1281 C1280 1.356 . S
H1282 C1276 0.930 . S
H1283 C1277 0.930 . S
C1284 N1285 1.314 . S
C1284 C1286 1.353 . S
C1284 H1290 0.930 . S
N1285 Li1235 1.990 . S
N1285 C1284 1.314 . S
N1285 C1288 1.279 . S
C1286 C1284 1.353 . S
C1286 C1289 1.348 . S
C1286 H1318 0.929 . S
C1287 C1288 1.358 . S
C1287 C1289 1.356 . S
C1287 H1319 0.930 . S
C1288 N1285 1.279 . S
C1288 C1287 1.358 . S
C1288 H1291 0.930 . S
C1289 C1286 1.348 . S
C1289 C1287 1.356 . S
H1290 C1284 0.930 . S
H1291 C1288 0.930 . S
O1292 Li1232 1.956 . S
O1292 Li1233 1.970 . S
O1292 Li1234 1.961 . S
O1292 C1236 1.325 . S
O1293 Li1232 1.970 . S
O1293 Li1233 1.956 . S
O1293 Li1235 1.961 . S
O1293 C1242 1.325 . S
O1294 Li1232 1.961 . S
O1294 Li1234 1.956 . S
O1294 Li1235 1.970 . S
O1294 C1264 1.325 . S
O1295 Li1233 1.961 . S
O1295 Li1234 1.970 . S
O1295 Li1235 1.956 . S
O1295 C1270 1.325 . S
H1296 C1238 0.929 . S
H1297 C1239 0.930 . S
H1298 C1240 0.930 . S
H1299 C1241 0.930 . S
H1300 C1243 0.930 . S
H1301 C1245 0.929 . S
H1302 C1246 0.930 . S
H1303 C1247 0.930 . S
H1304 C1250 0.930 . S
H1305 C1253 0.929 . S
H1306 C1258 0.929 . S
H1307 C1259 0.930 . S
H1308 C1266 0.929 . S
H1309 C1267 0.930 . S
H1310 C1268 0.930 . S
H1311 C1269 0.930 . S
H1312 C1271 0.929 . S
H1313 C1272 0.930 . S
H1314 C1273 0.930 . S
H1315 C1274 0.930 . S
H1316 C1278 0.929 . S
H1317 C1280 0.930 . S
H1318 C1286 0.929 . S
H1319 C1287 0.930 . S
Li1320 N1337 1.990 . S
Li1320 O1380 1.956 . S
Li1320 O1381 1.970 1_455 S
Li1320 O1382 1.961 . S
Li1321 N1345 1.990 . S
Li1321 O1380 1.970 . S
Li1321 O1381 1.956 1_455 S
Li1321 O1383 1.961 . S
Li1322 N1367 1.990 . S
Li1322 O1380 1.961 . S
Li1322 O1382 1.956 . S
Li1322 O1383 1.970 . S
Li1323 N1373 1.990 . S
Li1323 O1381 1.961 . S
Li1323 O1382 1.970 1_655 S
Li1323 O1383 1.956 1_655 S
C1324 C1326 1.348 . S
C1324 C1327 1.356 . S
C1324 O1380 1.325 . S
N1325 C1328 1.314 . S
N1325 C1329 1.279 . S
C1326 C1324 1.348 . S
C1326 C1328 1.353 . S
C1326 H1384 0.929 . S
C1327 C1324 1.356 . S
C1327 C1329 1.358 . S
C1327 H1385 0.930 . S
C1328 N1325 1.314 . S
C1328 C1326 1.353 . S
C1328 H1386 0.930 . S
C1329 N1325 1.279 . S
C1329 C1327 1.358 . S
C1329 H1387 0.930 . S
C1330 C1333 1.348 . S
C1330 C1334 1.356 . S
C1330 O1381 1.325 . S
C1331 N1332 1.279 . S
C1331 C1334 1.358 . S
C1331 H1388 0.930 . S
N1332 C1331 1.279 . S
N1332 C1335 1.314 . S
C1333 C1330 1.348 . S
C1333 C1335 1.353 . S
C1333 H1389 0.929 . S
C1334 C1330 1.356 . S
C1334 C1331 1.358 . S
C1334 H1390 0.930 . S
C1335 N1332 1.314 . S
C1335 C1333 1.353 . S
C1335 H1391 0.930 . S
C1336 N1337 1.319 . S
C1336 C1341 1.352 1_455 S
C1336 H1342 0.924 1_455 S
N1337 Li1320 1.990 . S
N1337 C1336 1.319 . S
N1337 C1339 1.279 . S
C1338 C1339 1.358 . S
C1338 C1340 1.356 . S
C1338 H1392 0.930 . S
C1339 N1337 1.279 . S
C1339 C1338 1.358 . S
C1339 H1343 0.930 . S
C1340 C1338 1.356 . S
C1340 C1341 1.348 1_455 S
C1341 C1336 1.352 1_655 S
C1341 C1340 1.348 1_655 S
C1341 H1393 0.929 . S
H1342 C1336 0.924 1_655 S
H1343 C1339 0.930 . S
C1344 N1345 1.314 . S
C1344 C1346 1.353 . S
C1344 H1350 0.930 . S
N1345 Li1321 1.990 . S
N1345 C1344 1.314 . S
N1345 C1348 1.279 1_455 S
C1346 C1344 1.353 . S
C1346 C1349 1.348 . S
C1346 H1394 0.929 . S
C1347 C1348 1.358 . S
C1347 C1349 1.356 1_655 S
C1347 H1395 0.930 . S
C1348 N1345 1.279 1_655 S
C1348 C1347 1.358 . S
C1348 H1351 0.930 . S
C1349 C1346 1.348 . S
C1349 C1347 1.356 1_455 S
H1350 C1344 0.930 . S
H1351 C1348 0.930 . S
C1352 C1354 1.348 1_455 S
C1352 C1355 1.356 . S
C1352 O1382 1.325 . S
N1353 C1356 1.312 . S
N1353 C1357 1.279 . S
C1354 C1352 1.348 1_655 S
C1354 C1356 1.353 1_655 S
C1354 H1396 0.929 . S
C1355 C1352 1.356 . S
C1355 C1357 1.358 . S
C1355 H1397 0.930 . S
C1356 N1353 1.312 . S
C1356 C1354 1.353 1_455 S
C1356 H1398 0.931 1_455 S
C1357 N1353 1.279 . S
C1357 C1355 1.358 . S
C1357 H1399 0.930 . S
C1358 C1359 1.348 . S
C1358 C1360 1.356 1_455 S
C1358 O1383 1.325 . S
C1359 C1358 1.348 . S
C1359 C1361 1.353 . S
C1359 H1400 0.929 . S
C1360 C1358 1.356 1_655 S
C1360 C1362 1.358 . S
C1360 H1401 0.930 . S
C1361 C1359 1.353 . S
C1361 N1363 1.314 . S
C1361 H1402 0.930 . S
C1362 C1360 1.358 . S
C1362 N1363 1.279 1_655 S
C1362 H1403 0.930 . S
N1363 C1361 1.314 . S
N1363 C1362 1.279 1_455 S
C1364 C1366 1.353 . S
C1364 N1367 1.314 . S
C1364 H1370 0.930 . S
C1365 N1367 1.279 . S
C1365 C1368 1.358 . S
C1365 H1371 0.930 . S
C1366 C1364 1.353 . S
C1366 C1369 1.348 . S
C1366 H1404 0.929 . S
N1367 Li1322 1.990 . S
N1367 C1364 1.314 . S
N1367 C1365 1.279 . S
C1368 C1365 1.358 . S
C1368 C1369 1.356 . S
C1368 H1405 0.930 . S
C1369 C1366 1.348 . S
C1369 C1368 1.356 . S
H1370 C1364 0.930 . S
H1371 C1365 0.930 . S
C1372 N1373 1.314 . S
C1372 C1374 1.353 . S
C1372 H1378 0.930 . S
N1373 Li1323 1.990 . S
N1373 C1372 1.314 . S
N1373 C1376 1.279 . S
C1374 C1372 1.353 . S
C1374 C1377 1.348 . S
C1374 H1406 0.929 . S
C1375 C1376 1.358 . S
C1375 C1377 1.356 . S
C1375 H1407 0.930 . S
C1376 N1373 1.279 . S
C1376 C1375 1.358 . S
C1376 H1379 0.930 . S
C1377 C1374 1.348 . S
C1377 C1375 1.356 . S
H1378 C1372 0.930 . S
H1379 C1376 0.930 . S
O1380 Li1320 1.956 . S
O1380 Li1321 1.970 . S
O1380 Li1322 1.961 . S
O1380 C1324 1.325 . S
O1381 Li1320 1.970 1_655 S
O1381 Li1321 1.956 1_655 S
O1381 Li1323 1.961 . S
O1381 C1330 1.325 . S
O1382 Li1320 1.961 . S
O1382 Li1322 1.956 . S
O1382 Li1323 1.970 1_455 S
O1382 C1352 1.325 . S
O1383 Li1321 1.961 . S
O1383 Li1322 1.970 . S
O1383 Li1323 1.956 1_455 S
O1383 C1358 1.325 . S
H1384 C1326 0.929 . S
H1385 C1327 0.930 . S
H1386 C1328 0.930 . S
H1387 C1329 0.930 . S
H1388 C1331 0.930 . S
H1389 C1333 0.929 . S
H1390 C1334 0.930 . S
H1391 C1335 0.930 . S
H1392 C1338 0.930 . S
H1393 C1341 0.929 . S
H1394 C1346 0.929 . S
H1395 C1347 0.930 . S
H1396 C1354 0.929 . S
H1397 C1355 0.930 . S
H1398 C1356 0.931 1_655 S
H1399 C1357 0.930 . S
H1400 C1359 0.929 . S
H1401 C1360 0.930 . S
H1402 C1361 0.930 . S
H1403 C1362 0.930 . S
H1404 C1366 0.929 . S
H1405 C1368 0.930 . S
H1406 C1374 0.929 . S
H1407 C1375 0.930 . S
C1408 C1409 1.391 1_655 S
C1408 C1410 1.394 . S
C1408 H1424 0.931 . S
C1409 C1408 1.391 1_455 S
C1409 C1413 1.376 . S
C1410 C1408 1.394 . S
C1410 C1411 1.369 1_655 S
C1410 C1414 1.531 . S
C1411 C1410 1.369 1_455 S
C1411 C1412 1.410 . S
C1411 C1419 1.503 . S
C1412 C1411 1.410 . S
C1412 C1413 1.392 . S
C1412 C1415 1.511 . S
C1413 C1409 1.376 . S
C1413 C1412 1.392 . S
C1413 H1425 0.929 . S
C1414 C1410 1.531 . S
C1414 H1426 0.960 . S
C1414 H1427 0.962 . S
C1414 H1428 0.960 . S
C1415 C1412 1.511 . S
C1415 H1429 0.961 . S
C1415 H1430 0.961 . S
C1415 H1431 0.961 . S
C1416 C1417 1.370 1_655 S
C1416 C1418 1.363 . S
C1416 H1432 0.931 . S
C1417 C1416 1.370 1_455 S
C1417 C1421 1.408 . S
C1418 C1416 1.363 . S
C1418 C1419 1.370 1_655 S
C1418 C1422 1.524 . S
C1419 C1411 1.503 . S
C1419 C1418 1.370 1_455 S
C1419 C1420 1.403 . S
C1420 C1419 1.403 . S
C1420 C1421 1.404 . S
C1420 C1423 1.539 . S
C1421 C1417 1.408 . S
C1421 C1420 1.404 . S
C1421 H1433 0.930 . S
C1422 C1418 1.524 . S
C1422 H1434 0.956 . S
C1422 H1435 0.961 . S
C1422 H1436 0.961 . S
C1423 C1420 1.539 . S
C1423 H1437 0.958 . S
C1423 H1438 0.961 . S
C1423 H1439 0.960 . S
H1424 C1408 0.931 . S
H1425 C1413 0.929 . S
H1426 C1414 0.960 . S
H1427 C1414 0.962 . S
H1428 C1414 0.960 . S
H1429 C1415 0.961 . S
H1430 C1415 0.961 . S
H1431 C1415 0.961 . S
H1432 C1416 0.931 . S
H1433 C1421 0.930 . S
H1434 C1422 0.956 . S
H1435 C1422 0.961 . S
H1436 C1422 0.961 . S
H1437 C1423 0.958 . S
H1438 C1423 0.961 . S
H1439 C1423 0.960 . S
C1440 C1441 1.391 . S
C1440 C1442 1.394 . S
C1440 H1456 0.931 . S
C1441 C1440 1.391 . S
C1441 C1445 1.376 . S
C1442 C1440 1.394 . S
C1442 C1443 1.369 . S
C1442 C1446 1.531 . S
C1443 C1442 1.369 . S
C1443 C1444 1.410 . S
C1443 C1451 1.503 1_655 S
C1444 C1443 1.410 . S
C1444 C1445 1.392 . S
C1444 C1447 1.511 . S
C1445 C1441 1.376 . S
C1445 C1444 1.392 . S
C1445 H1457 0.929 . S
C1446 C1442 1.531 . S
C1446 H1458 0.960 1_655 S
C1446 H1459 0.961 1_655 S
C1446 H1460 0.960 . S
C1447 C1444 1.511 . S
C1447 H1461 0.961 . S
C1447 H1462 0.961 1_655 S
C1447 H1463 0.964 . S
C1448 C1449 1.370 . S
C1448 C1450 1.363 . S
C1448 H1464 0.931 . S
C1449 C1448 1.370 . S
C1449 C1453 1.408 . S
C1450 C1448 1.363 . S
C1450 C1451 1.370 . S
C1450 C1454 1.524 . S
C1451 C1443 1.503 1_455 S
C1451 C1450 1.370 . S
C1451 C1452 1.403 . S
C1452 C1451 1.403 . S
C1452 C1453 1.404 . S
C1452 C1455 1.539 . S
C1453 C1449 1.408 . S
C1453 C1452 1.404 . S
C1453 H1465 0.930 . S
C1454 C1450 1.524 . S
C1454 H1466 0.956 . S
C1454 H1467 0.961 . S
C1454 H1468 0.961 . S
C1455 C1452 1.539 . S
C1455 H1469 0.958 . S
C1455 H1470 0.961 . S
C1455 H1471 0.960 . S
H1456 C1440 0.931 . S
H1457 C1445 0.929 . S
H1458 C1446 0.960 1_455 S
H1459 C1446 0.961 1_455 S
H1460 C1446 0.960 . S
H1461 C1447 0.961 . S
H1462 C1447 0.961 1_455 S
H1463 C1447 0.964 . S
H1464 C1448 0.931 . S
H1465 C1453 0.930 . S
H1466 C1454 0.956 . S
H1467 C1454 0.961 . S
H1468 C1454 0.961 . S
H1469 C1455 0.958 . S
H1470 C1455 0.961 . S
H1471 C1455 0.960 . S
C1472 C1473 1.391 . S
C1472 C1474 1.394 . S
C1472 H1488 0.931 . S
C1473 C1472 1.391 . S
C1473 C1477 1.376 . S
C1474 C1472 1.394 . S
C1474 C1475 1.369 . S
C1474 C1478 1.531 . S
C1475 C1474 1.369 . S
C1475 C1476 1.410 . S
C1475 C1483 1.503 . S
C1476 C1475 1.410 . S
C1476 C1477 1.392 . S
C1476 C1479 1.511 . S
C1477 C1473 1.376 . S
C1477 C1476 1.392 . S
C1477 H1489 0.929 . S
C1478 C1474 1.531 . S
C1478 H1490 0.960 . S
C1478 H1491 0.962 . S
C1478 H1492 0.960 . S
C1479 C1476 1.511 . S
C1479 H1493 0.961 . S
C1479 H1494 0.961 . S
C1479 H1495 0.961 . S
C1480 C1481 1.370 . S
C1480 C1482 1.363 . S
C1480 H1496 0.931 . S
C1481 C1480 1.370 . S
C1481 C1485 1.408 . S
C1482 C1480 1.363 . S
C1482 C1483 1.370 . S
C1482 C1486 1.524 . S
C1483 C1475 1.503 . S
C1483 C1482 1.370 . S
C1483 C1484 1.403 . S
C1484 C1483 1.403 . S
C1484 C1485 1.404 . S
C1484 C1487 1.539 . S
C1485 C1481 1.408 . S
C1485 C1484 1.404 . S
C1485 H1497 0.930 . S
C1486 C1482 1.524 . S
C1486 H1498 0.956 . S
C1486 H1499 0.961 . S
C1486 H1500 0.961 . S
C1487 C1484 1.539 . S
C1487 H1501 0.958 . S
C1487 H1502 0.961 . S
C1487 H1503 0.960 . S
H1488 C1472 0.931 . S
H1489 C1477 0.929 . S
H1490 C1478 0.960 . S
H1491 C1478 0.962 . S
H1492 C1478 0.960 . S
H1493 C1479 0.961 . S
H1494 C1479 0.961 . S
H1495 C1479 0.961 . S
H1496 C1480 0.931 . S
H1497 C1485 0.930 . S
H1498 C1486 0.956 . S
H1499 C1486 0.961 . S
H1500 C1486 0.961 . S
H1501 C1487 0.958 . S
H1502 C1487 0.961 . S
H1503 C1487 0.960 . S
C1504 C1505 1.391 . S
C1504 C1506 1.394 . S
C1504 H1520 0.931 . S
C1505 C1504 1.391 . S
C1505 C1509 1.376 . S
C1506 C1504 1.394 . S
C1506 C1507 1.369 . S
C1506 C1510 1.531 . S
C1507 C1506 1.369 . S
C1507 C1508 1.410 . S
C1507 C1515 1.503 . S
C1508 C1507 1.410 . S
C1508 C1509 1.392 . S
C1508 C1511 1.511 . S
C1509 C1505 1.376 . S
C1509 C1508 1.392 . S
C1509 H1521 0.929 . S
C1510 C1506 1.531 . S
C1510 H1522 0.960 . S
C1510 H1523 0.962 . S
C1510 H1524 0.960 . S
C1511 C1508 1.511 . S
C1511 H1525 0.961 . S
C1511 H1526 0.961 . S
C1511 H1527 0.961 . S
C1512 C1513 1.370 . S
C1512 C1514 1.363 . S
C1512 H1528 0.931 . S
C1513 C1512 1.370 . S
C1513 C1517 1.408 . S
C1514 C1512 1.363 . S
C1514 C1515 1.370 . S
C1514 C1518 1.524 . S
C1515 C1507 1.503 . S
C1515 C1514 1.370 . S
C1515 C1516 1.403 . S
C1516 C1515 1.403 . S
C1516 C1517 1.404 . S
C1516 C1519 1.539 . S
C1517 C1513 1.408 . S
C1517 C1516 1.404 . S
C1517 H1529 0.930 . S
C1518 C1514 1.524 . S
C1518 H1530 0.956 . S
C1518 H1531 0.961 . S
C1518 H1532 0.961 . S
C1519 C1516 1.539 . S
C1519 H1533 0.958 . S
C1519 H1534 0.961 . S
C1519 H1535 0.960 . S
H1520 C1504 0.931 . S
H1521 C1509 0.929 . S
H1522 C1510 0.960 . S
H1523 C1510 0.962 . S
H1524 C1510 0.960 . S
H1525 C1511 0.961 . S
H1526 C1511 0.961 . S
H1527 C1511 0.961 . S
H1528 C1512 0.931 . S
H1529 C1517 0.930 . S
H1530 C1518 0.956 . S
H1531 C1518 0.961 . S
H1532 C1518 0.961 . S
H1533 C1519 0.958 . S
H1534 C1519 0.961 . S
H1535 C1519 0.960 . S
C1536 C1537 1.391 . S
C1536 C1538 1.394 . S
C1536 H1552 0.931 . S
C1537 C1536 1.391 . S
C1537 C1541 1.376 . S
C1538 C1536 1.394 . S
C1538 C1539 1.369 . S
C1538 C1542 1.531 . S
C1539 C1538 1.369 . S
C1539 C1540 1.410 . S
C1539 C1547 1.503 . S
C1540 C1539 1.410 . S
C1540 C1541 1.392 . S
C1540 C1543 1.511 . S
C1541 C1537 1.376 . S
C1541 C1540 1.392 . S
C1541 H1553 0.929 . S
C1542 C1538 1.531 . S
C1542 H1554 0.960 1_455 S
C1542 H1555 0.962 . S
C1542 H1556 0.960 1_455 S
C1543 C1540 1.511 . S
C1543 H1557 0.961 . S
C1543 H1558 0.961 . S
C1543 H1559 0.961 1_455 S
C1544 C1545 1.370 . S
C1544 C1546 1.363 . S
C1544 H1560 0.931 . S
C1545 C1544 1.370 . S
C1545 C1549 1.408 1_455 S
C1546 C1544 1.363 . S
C1546 C1547 1.370 . S
C1546 C1550 1.524 . S
C1547 C1539 1.503 . S
C1547 C1546 1.370 . S
C1547 C1548 1.403 1_455 S
C1548 C1547 1.403 1_655 S
C1548 C1549 1.404 . S
C1548 C1551 1.539 . S
C1549 C1545 1.408 1_655 S
C1549 C1548 1.404 . S
C1549 H1561 0.930 . S
C1550 C1546 1.524 . S
C1550 H1562 0.956 . S
C1550 H1563 0.961 . S
C1550 H1564 0.961 . S
C1551 C1548 1.539 . S
C1551 H1565 0.958 . S
C1551 H1566 0.961 . S
C1551 H1567 0.960 . S
H1552 C1536 0.931 . S
H1553 C1541 0.929 . S
H1554 C1542 0.960 1_655 S
H1555 C1542 0.962 . S
H1556 C1542 0.960 1_655 S
H1557 C1543 0.961 . S
H1558 C1543 0.961 . S
H1559 C1543 0.961 1_655 S
H1560 C1544 0.931 . S
H1561 C1549 0.930 . S
H1562 C1550 0.956 . S
H1563 C1550 0.961 . S
H1564 C1550 0.961 . S
H1565 C1551 0.958 . S
H1566 C1551 0.961 . S
H1567 C1551 0.960 . S
C1568 C1569 1.391 . S
C1568 C1570 1.394 . S
C1568 H1584 0.931 . S
C1569 C1568 1.391 . S
C1569 C1573 1.376 . S
C1570 C1568 1.394 . S
C1570 C1571 1.369 . S
C1570 C1574 1.531 . S
C1571 C1570 1.369 . S
C1571 C1572 1.410 . S
C1571 C1579 1.503 . S
C1572 C1571 1.410 . S
C1572 C1573 1.392 . S
C1572 C1575 1.511 . S
C1573 C1569 1.376 . S
C1573 C1572 1.392 . S
C1573 H1585 0.929 . S
C1574 C1570 1.531 . S
C1574 H1586 0.960 . S
C1574 H1587 0.962 . S
C1574 H1588 0.960 . S
C1575 C1572 1.511 . S
C1575 H1589 0.961 . S
C1575 H1590 0.961 . S
C1575 H1591 0.961 . S
C1576 C1577 1.370 . S
C1576 C1578 1.363 . S
C1576 H1592 0.931 . S
C1577 C1576 1.370 . S
C1577 C1581 1.408 . S
C1578 C1576 1.363 . S
C1578 C1579 1.370 . S
C1578 C1582 1.524 . S
C1579 C1571 1.503 . S
C1579 C1578 1.370 . S
C1579 C1580 1.403 . S
C1580 C1579 1.403 . S
C1580 C1581 1.404 . S
C1580 C1583 1.539 . S
C1581 C1577 1.408 . S
C1581 C1580 1.404 . S
C1581 H1593 0.930 . S
C1582 C1578 1.524 . S
C1582 H1594 0.956 . S
C1582 H1595 0.961 . S
C1582 H1596 0.961 . S
C1583 C1580 1.539 . S
C1583 H1597 0.958 . S
C1583 H1598 0.961 . S
C1583 H1599 0.960 . S
H1584 C1568 0.931 . S
H1585 C1573 0.929 . S
H1586 C1574 0.960 . S
H1587 C1574 0.962 . S
H1588 C1574 0.960 . S
H1589 C1575 0.961 . S
H1590 C1575 0.961 . S
H1591 C1575 0.961 . S
H1592 C1576 0.931 . S
H1593 C1581 0.930 . S
H1594 C1582 0.956 . S
H1595 C1582 0.961 . S
H1596 C1582 0.961 . S
H1597 C1583 0.958 . S
H1598 C1583 0.961 . S
H1599 C1583 0.960 . S
C1600 C1601 1.391 . S
C1600 C1602 1.394 . S
C1600 H1616 0.931 . S
C1601 C1600 1.391 . S
C1601 C1605 1.376 . S
C1602 C1600 1.394 . S
C1602 C1603 1.369 . S
C1602 C1606 1.531 . S
C1603 C1602 1.369 . S
C1603 C1604 1.410 . S
C1603 C1611 1.503 . S
C1604 C1603 1.410 . S
C1604 C1605 1.392 . S
C1604 C1607 1.511 . S
C1605 C1601 1.376 . S
C1605 C1604 1.392 . S
C1605 H1617 0.929 . S
C1606 C1602 1.531 . S
C1606 H1618 0.960 . S
C1606 H1619 0.962 . S
C1606 H1620 0.960 . S
C1607 C1604 1.511 . S
C1607 H1621 0.961 . S
C1607 H1622 0.961 . S
C1607 H1623 0.961 . S
C1608 C1609 1.370 . S
C1608 C1610 1.363 . S
C1608 H1624 0.931 . S
C1609 C1608 1.370 . S
C1609 C1613 1.408 . S
C1610 C1608 1.363 . S
C1610 C1611 1.370 . S
C1610 C1614 1.524 . S
C1611 C1603 1.503 . S
C1611 C1610 1.370 . S
C1611 C1612 1.403 . S
C1612 C1611 1.403 . S
C1612 C1613 1.404 . S
C1612 C1615 1.539 . S
C1613 C1609 1.408 . S
C1613 C1612 1.404 . S
C1613 H1625 0.930 . S
C1614 C1610 1.524 . S
C1614 H1626 0.956 . S
C1614 H1627 0.961 . S
C1614 H1628 0.961 . S
C1615 C1612 1.539 . S
C1615 H1629 0.958 . S
C1615 H1630 0.961 . S
C1615 H1631 0.960 . S
H1616 C1600 0.931 . S
H1617 C1605 0.929 . S
H1618 C1606 0.960 . S
H1619 C1606 0.962 . S
H1620 C1606 0.960 . S
H1621 C1607 0.961 . S
H1622 C1607 0.961 . S
H1623 C1607 0.961 . S
H1624 C1608 0.931 . S
H1625 C1613 0.930 . S
H1626 C1614 0.956 . S
H1627 C1614 0.961 . S
H1628 C1614 0.961 . S
H1629 C1615 0.958 . S
H1630 C1615 0.961 . S
H1631 C1615 0.960 . S
C1632 C1633 1.391 . S
C1632 C1634 1.394 . S
C1632 H1648 0.931 . S
C1633 C1632 1.391 . S
C1633 C1637 1.376 . S
C1634 C1632 1.394 . S
C1634 C1635 1.369 . S
C1634 C1638 1.531 . S
C1635 C1634 1.369 . S
C1635 C1636 1.410 . S
C1635 C1643 1.503 1_455 S
C1636 C1635 1.410 . S
C1636 C1637 1.392 . S
C1636 C1639 1.511 . S
C1637 C1633 1.376 . S
C1637 C1636 1.392 . S
C1637 H1649 0.929 . S
C1638 C1634 1.531 . S
C1638 H1650 0.960 . S
C1638 H1651 0.962 . S
C1638 H1652 0.960 . S
C1639 C1636 1.511 . S
C1639 H1653 0.961 . S
C1639 H1654 0.961 . S
C1639 H1655 0.961 . S
C1640 C1641 1.370 . S
C1640 C1642 1.363 . S
C1640 H1656 0.931 . S
C1641 C1640 1.370 . S
C1641 C1645 1.408 . S
C1642 C1640 1.363 . S
C1642 C1643 1.370 . S
C1642 C1646 1.520 1_655 S
C1643 C1635 1.503 1_655 S
C1643 C1642 1.370 . S
C1643 C1644 1.403 . S
C1644 C1643 1.403 . S
C1644 C1645 1.404 . S
C1644 C1647 1.539 . S
C1645 C1641 1.408 . S
C1645 C1644 1.404 . S
C1645 H1657 0.930 . S
C1646 C1642 1.520 1_455 S
C1646 H1658 0.959 . S
C1646 H1659 0.965 . S
C1646 H1660 0.957 1_455 S
C1647 C1644 1.539 . S
C1647 H1661 0.958 . S
C1647 H1662 0.961 . S
C1647 H1663 0.960 1_655 S
H1648 C1632 0.931 . S
H1649 C1637 0.929 . S
H1650 C1638 0.960 . S
H1651 C1638 0.962 . S
H1652 C1638 0.960 . S
H1653 C1639 0.961 . S
H1654 C1639 0.961 . S
H1655 C1639 0.961 . S
H1656 C1640 0.931 . S
H1657 C1645 0.930 . S
H1658 C1646 0.959 . S
H1659 C1646 0.965 . S
H1660 C1646 0.957 1_655 S
H1661 C1647 0.958 . S
H1662 C1647 0.961 . S
H1663 C1647 0.960 1_455 S
C1664 C1665 1.391 1_655 S
C1664 C1666 1.394 . S
C1664 H1680 0.931 . S
C1665 C1664 1.391 1_455 S
C1665 C1669 1.376 1_565 S
C1666 C1664 1.394 . S
C1666 C1667 1.369 1_655 S
C1666 C1670 1.531 . S
C1667 C1666 1.369 1_455 S
C1667 C1668 1.410 1_565 S
C1667 C1675 1.499 1_565 S
C1668 C1667 1.410 1_545 S
C1668 C1669 1.392 . S
C1668 C1671 1.511 . S
C1669 C1665 1.376 1_545 S
C1669 C1668 1.392 . S
C1669 H1681 0.929 . S
C1670 C1666 1.531 . S
C1670 H1682 0.960 . S
C1670 H1683 0.962 . S
C1670 H1684 0.960 . S
C1671 C1668 1.511 . S
C1671 H1685 0.961 . S
C1671 H1686 0.961 . S
C1671 H1687 0.961 . S
C1672 C1673 1.370 1_655 S
C1672 C1674 1.363 . S
C1672 H1688 0.931 . S
C1673 C1672 1.370 1_455 S
C1673 C1677 1.408 1_545 S
C1674 C1672 1.363 . S
C1674 C1675 1.380 1_655 S
C1674 C1678 1.524 . S
C1675 C1667 1.499 1_545 S
C1675 C1674 1.380 1_455 S
C1675 C1676 1.397 1_545 S
C1676 C1675 1.397 1_565 S
C1676 C1677 1.404 . S
C1676 C1679 1.539 . S
C1677 C1673 1.408 1_565 S
C1677 C1676 1.404 . S
C1677 H1689 0.930 . S
C1678 C1674 1.524 . S
C1678 H1690 0.956 . S
C1678 H1691 0.961 . S
C1678 H1692 0.961 . S
C1679 C1676 1.539 . S
C1679 H1693 0.958 . S
C1679 H1694 0.961 . S
C1679 H1695 0.960 . S
H1680 C1664 0.931 . S
H1681 C1669 0.929 . S
H1682 C1670 0.960 . S
H1683 C1670 0.962 . S
H1684 C1670 0.960 . S
H1685 C1671 0.961 . S
H1686 C1671 0.961 . S
H1687 C1671 0.961 . S
H1688 C1672 0.931 . S
H1689 C1677 0.930 . S
H1690 C1678 0.956 . S
H1691 C1678 0.961 . S
H1692 C1678 0.961 . S
H1693 C1679 0.958 . S
H1694 C1679 0.961 . S
H1695 C1679 0.960 . S
C1696 C1697 1.391 . S
C1696 C1698 1.394 . S
C1696 H1712 0.931 . S
C1697 C1696 1.391 . S
C1697 C1701 1.376 . S
C1698 C1696 1.394 . S
C1698 C1699 1.369 . S
C1698 C1702 1.531 . S
C1699 C1698 1.369 . S
C1699 C1700 1.410 . S
C1699 C1707 1.503 . S
C1700 C1699 1.410 . S
C1700 C1701 1.392 . S
C1700 C1703 1.511 . S
C1701 C1697 1.376 . S
C1701 C1700 1.392 . S
C1701 H1713 0.929 . S
C1702 C1698 1.531 . S
C1702 H1714 0.960 . S
C1702 H1715 0.962 . S
C1702 H1716 0.960 . S
C1703 C1700 1.511 . S
C1703 H1717 0.961 . S
C1703 H1718 0.961 . S
C1703 H1719 0.961 . S
C1704 C1705 1.370 . S
C1704 C1706 1.363 . S
C1704 H1720 0.931 . S
C1705 C1704 1.370 . S
C1705 C1709 1.408 . S
C1706 C1704 1.363 . S
C1706 C1707 1.370 . S
C1706 C1710 1.524 . S
C1707 C1699 1.503 . S
C1707 C1706 1.370 . S
C1707 C1708 1.403 . S
C1708 C1707 1.403 . S
C1708 C1709 1.404 . S
C1708 C1711 1.539 . S
C1709 C1705 1.408 . S
C1709 C1708 1.404 . S
C1709 H1721 0.930 . S
C1710 C1706 1.524 . S
C1710 H1722 0.956 . S
C1710 H1723 0.961 . S
C1710 H1724 0.961 . S
C1711 C1708 1.539 . S
C1711 H1725 0.958 . S
C1711 H1726 0.961 . S
C1711 H1727 0.960 . S
H1712 C1696 0.931 . S
H1713 C1701 0.929 . S
H1714 C1702 0.960 . S
H1715 C1702 0.962 . S
H1716 C1702 0.960 . S
H1717 C1703 0.961 . S
H1718 C1703 0.961 . S
H1719 C1703 0.961 . S
H1720 C1704 0.931 . S
H1721 C1709 0.930 . S
H1722 C1710 0.956 . S
H1723 C1710 0.961 . S
H1724 C1710 0.961 . S
H1725 C1711 0.958 . S
H1726 C1711 0.961 . S
H1727 C1711 0.960 . S
C1728 C1729 1.391 . S
C1728 C1730 1.394 . S
C1728 H1744 0.931 . S
C1729 C1728 1.391 . S
C1729 C1733 1.398 . S
C1730 C1728 1.394 . S
C1730 C1731 1.369 . S
C1730 C1734 1.531 . S
C1731 C1730 1.369 . S
C1731 C1732 1.410 1_565 S
C1731 C1739 1.506 1_554 S
C1732 C1731 1.410 1_545 S
C1732 C1733 1.386 1_545 S
C1732 C1735 1.511 . S
C1733 C1729 1.398 . S
C1733 C1732 1.386 1_565 S
C1733 H1745 0.913 1_565 S
C1734 C1730 1.531 . S
C1734 H1746 0.960 1_554 S
C1734 H1747 0.962 . S
C1734 H1748 0.960 . S
C1735 C1732 1.511 . S
C1735 H1749 0.961 . S
C1735 H1750 0.961 . S
C1735 H1751 0.961 . S
C1736 C1737 1.370 . S
C1736 C1738 1.363 . S
C1736 H1752 0.931 . S
C1737 C1736 1.370 . S
C1737 C1741 1.408 1_545 S
C1738 C1736 1.363 . S
C1738 C1739 1.364 1_545 S
C1738 C1742 1.524 . S
C1739 C1731 1.506 1_556 S
C1739 C1738 1.364 1_565 S
C1739 C1740 1.407 . S
C1740 C1739 1.407 . S
C1740 C1741 1.404 . S
C1740 C1743 1.539 . S
C1741 C1737 1.408 1_565 S
C1741 C1740 1.404 . S
C1741 H1753 0.930 . S
C1742 C1738 1.524 . S
C1742 H1754 0.956 1_556 S
C1742 H1755 0.961 1_556 S
C1742 H1756 0.961 . S
C1743 C1740 1.539 . S
C1743 H1757 0.958 . S
C1743 H1758 0.961 . S
C1743 H1759 0.960 . S
H1744 C1728 0.931 . S
H1745 C1733 0.913 1_545 S
H1746 C1734 0.960 1_556 S
H1747 C1734 0.962 . S
H1748 C1734 0.960 . S
H1749 C1735 0.961 . S
H1750 C1735 0.961 . S
H1751 C1735 0.961 . S
H1752 C1736 0.931 . S
H1753 C1741 0.930 . S
H1754 C1742 0.956 1_554 S
H1755 C1742 0.961 1_554 S
H1756 C1742 0.961 . S
H1757 C1743 0.958 . S
H1758 C1743 0.961 . S
H1759 C1743 0.960 . S
C1760 C1761 1.391 . S
C1760 C1762 1.394 . S
C1760 H1776 0.931 . S
C1761 C1760 1.391 . S
C1761 C1765 1.376 . S
C1762 C1760 1.394 . S
C1762 C1763 1.369 . S
C1762 C1766 1.531 . S
C1763 C1762 1.369 . S
C1763 C1764 1.410 . S
C1763 C1771 1.503 . S
C1764 C1763 1.410 . S
C1764 C1765 1.392 . S
C1764 C1767 1.511 . S
C1765 C1761 1.376 . S
C1765 C1764 1.392 . S
C1765 H1777 0.929 . S
C1766 C1762 1.531 . S
C1766 H1778 0.960 . S
C1766 H1779 0.962 . S
C1766 H1780 0.960 . S
C1767 C1764 1.511 . S
C1767 H1781 0.961 . S
C1767 H1782 0.961 . S
C1767 H1783 0.961 . S
C1768 C1769 1.370 . S
C1768 C1770 1.363 . S
C1768 H1784 0.931 . S
C1769 C1768 1.370 . S
C1769 C1773 1.408 . S
C1770 C1768 1.363 . S
C1770 C1771 1.370 . S
C1770 C1774 1.524 . S
C1771 C1763 1.503 . S
C1771 C1770 1.370 . S
C1771 C1772 1.403 . S
C1772 C1771 1.403 . S
C1772 C1773 1.404 . S
C1772 C1775 1.539 . S
C1773 C1769 1.408 . S
C1773 C1772 1.404 . S
C1773 H1785 0.930 . S
C1774 C1770 1.524 . S
C1774 H1786 0.956 . S
C1774 H1787 0.961 . S
C1774 H1788 0.961 . S
C1775 C1772 1.539 . S
C1775 H1789 0.958 . S
C1775 H1790 0.961 . S
C1775 H1791 0.960 . S
H1776 C1760 0.931 . S
H1777 C1765 0.929 . S
H1778 C1766 0.960 . S
H1779 C1766 0.962 . S
H1780 C1766 0.960 . S
H1781 C1767 0.961 . S
H1782 C1767 0.961 . S
H1783 C1767 0.961 . S
H1784 C1768 0.931 . S
H1785 C1773 0.930 . S
H1786 C1774 0.956 . S
H1787 C1774 0.961 . S
H1788 C1774 0.961 . S
H1789 C1775 0.958 . S
H1790 C1775 0.961 . S
H1791 C1775 0.960 . S
C1792 C1793 1.391 . S
C1792 C1794 1.394 . S
C1792 H1808 0.931 . S
C1793 C1792 1.391 . S
C1793 C1797 1.376 . S
C1794 C1792 1.394 . S
C1794 C1795 1.369 . S
C1794 C1798 1.531 . S
C1795 C1794 1.369 . S
C1795 C1796 1.410 . S
C1795 C1803 1.503 . S
C1796 C1795 1.410 . S
C1796 C1797 1.392 . S
C1796 C1799 1.511 . S
C1797 C1793 1.376 . S
C1797 C1796 1.392 . S
C1797 H1809 0.929 . S
C1798 C1794 1.531 . S
C1798 H1810 0.960 . S
C1798 H1811 0.962 . S
C1798 H1812 0.960 . S
C1799 C1796 1.511 . S
C1799 H1813 0.961 . S
C1799 H1814 0.961 . S
C1799 H1815 0.961 . S
C1800 C1801 1.370 . S
C1800 C1802 1.363 . S
C1800 H1816 0.931 . S
C1801 C1800 1.370 . S
C1801 C1805 1.408 . S
C1802 C1800 1.363 . S
C1802 C1803 1.370 . S
C1802 C1806 1.524 . S
C1803 C1795 1.503 . S
C1803 C1802 1.370 . S
C1803 C1804 1.403 . S
C1804 C1803 1.403 . S
C1804 C1805 1.404 . S
C1804 C1807 1.539 . S
C1805 C1801 1.408 . S
C1805 C1804 1.404 . S
C1805 H1817 0.930 . S
C1806 C1802 1.524 . S
C1806 H1818 0.956 . S
C1806 H1819 0.961 . S
C1806 H1820 0.961 . S
C1807 C1804 1.539 . S
C1807 H1821 0.958 . S
C1807 H1822 0.961 . S
C1807 H1823 0.960 . S
H1808 C1792 0.931 . S
H1809 C1797 0.929 . S
H1810 C1798 0.960 . S
H1811 C1798 0.962 . S
H1812 C1798 0.960 . S
H1813 C1799 0.961 . S
H1814 C1799 0.961 . S
H1815 C1799 0.961 . S
H1816 C1800 0.931 . S
H1817 C1805 0.930 . S
H1818 C1806 0.956 . S
H1819 C1806 0.961 . S
H1820 C1806 0.961 . S
H1821 C1807 0.958 . S
H1822 C1807 0.961 . S
H1823 C1807 0.960 . S
C1824 C1825 1.391 . S
C1824 C1826 1.394 . S
C1824 H1840 0.931 . S
C1825 C1824 1.391 . S
C1825 C1829 1.376 . S
C1826 C1824 1.394 . S
C1826 C1827 1.369 . S
C1826 C1830 1.531 . S
C1827 C1826 1.369 . S
C1827 C1828 1.410 . S
C1827 C1835 1.503 . S
C1828 C1827 1.410 . S
C1828 C1829 1.392 . S
C1828 C1831 1.511 . S
C1829 C1825 1.376 . S
C1829 C1828 1.392 . S
C1829 H1841 0.929 . S
C1830 C1826 1.531 . S
C1830 H1842 0.960 . S
C1830 H1843 0.962 . S
C1830 H1844 0.960 . S
C1831 C1828 1.511 . S
C1831 H1845 0.961 . S
C1831 H1846 0.961 . S
C1831 H1847 0.961 . S
C1832 C1833 1.370 . S
C1832 C1834 1.363 . S
C1832 H1848 0.931 . S
C1833 C1832 1.370 . S
C1833 C1837 1.408 . S
C1834 C1832 1.363 . S
C1834 C1835 1.370 . S
C1834 C1838 1.524 . S
C1835 C1827 1.503 . S
C1835 C1834 1.370 . S
C1835 C1836 1.403 . S
C1836 C1835 1.403 . S
C1836 C1837 1.404 . S
C1836 C1839 1.539 . S
C1837 C1833 1.408 . S
C1837 C1836 1.404 . S
C1837 H1849 0.930 . S
C1838 C1834 1.524 . S
C1838 H1850 0.956 . S
C1838 H1851 0.961 . S
C1838 H1852 0.961 . S
C1839 C1836 1.539 . S
C1839 H1853 0.958 . S
C1839 H1854 0.961 . S
C1839 H1855 0.960 . S
H1840 C1824 0.931 . S
H1841 C1829 0.929 . S
H1842 C1830 0.960 . S
H1843 C1830 0.962 . S
H1844 C1830 0.960 . S
H1845 C1831 0.961 . S
H1846 C1831 0.961 . S
H1847 C1831 0.961 . S
H1848 C1832 0.931 . S
H1849 C1837 0.930 . S
H1850 C1838 0.956 . S
H1851 C1838 0.961 . S
H1852 C1838 0.961 . S
H1853 C1839 0.958 . S
H1854 C1839 0.961 . S
H1855 C1839 0.960 . S
C1856 C1857 1.391 . S
C1856 C1858 1.394 . S
C1856 H1872 0.931 . S
C1857 C1856 1.391 . S
C1857 C1861 1.376 . S
C1858 C1856 1.394 . S
C1858 C1859 1.369 . S
C1858 C1862 1.531 . S
C1859 C1858 1.369 . S
C1859 C1860 1.410 . S
C1859 C1867 1.503 1_556 S
C1860 C1859 1.410 . S
C1860 C1861 1.392 . S
C1860 C1863 1.511 . S
C1861 C1857 1.376 . S
C1861 C1860 1.392 . S
C1861 H1873 0.929 . S
C1862 C1858 1.531 . S
C1862 H1874 0.965 1_556 S
C1862 H1875 0.962 . S
C1862 H1876 0.960 . S
C1863 C1860 1.511 . S
C1863 H1877 0.961 . S
C1863 H1878 0.961 1_556 S
C1863 H1879 0.962 . S
C1864 C1865 1.370 . S
C1864 C1866 1.363 . S
C1864 H1880 0.931 . S
C1865 C1864 1.370 . S
C1865 C1869 1.408 . S
C1866 C1864 1.363 . S
C1866 C1867 1.370 . S
C1866 C1870 1.582 . S
C1867 C1859 1.503 1_554 S
C1867 C1866 1.370 . S
C1867 C1868 1.403 . S
C1868 C1867 1.403 . S
C1868 C1869 1.404 . S
C1868 C1871 1.539 . S
C1869 C1865 1.408 . S
C1869 C1868 1.404 . S
C1869 H1881 0.930 . S
C1870 C1866 1.582 . S
C1870 H1882 0.908 1_554 S
C1870 H1883 0.919 1_554 S
C1870 H1884 1.001 . S
C1871 C1868 1.539 . S
C1871 H1885 0.958 . S
C1871 H1886 0.961 . S
C1871 H1887 0.960 . S
H1872 C1856 0.931 . S
H1873 C1861 0.929 . S
H1874 C1862 0.965 1_554 S
H1875 C1862 0.962 . S
H1876 C1862 0.960 . S
H1877 C1863 0.961 . S
H1878 C1863 0.961 1_554 S
H1879 C1863 0.962 . S
H1880 C1864 0.931 . S
H1881 C1869 0.930 . S
H1882 C1870 0.908 1_556 S
H1883 C1870 0.919 1_556 S
H1884 C1870 1.001 . S
H1885 C1871 0.958 . S
H1886 C1871 0.961 . S
H1887 C1871 0.960 . S
C1888 C1889 1.391 1_655 S
C1888 C1890 1.394 . S
C1888 H1904 0.931 . S
C1889 C1888 1.391 1_455 S
C1889 C1893 1.376 . S
C1890 C1888 1.394 . S
C1890 C1891 1.369 1_655 S
C1890 C1894 1.531 . S
C1891 C1890 1.369 1_455 S
C1891 C1892 1.410 . S
C1891 C1899 1.503 . S
C1892 C1891 1.410 . S
C1892 C1893 1.392 . S
C1892 C1895 1.511 . S
C1893 C1889 1.376 . S
C1893 C1892 1.392 . S
C1893 H1905 0.929 . S
C1894 C1890 1.531 . S
C1894 H1906 0.960 . S
C1894 H1907 0.962 . S
C1894 H1908 0.960 . S
C1895 C1892 1.511 . S
C1895 H1909 0.961 . S
C1895 H1910 0.961 . S
C1895 H1911 0.961 . S
C1896 C1897 1.370 . S
C1896 C1898 1.363 . S
C1896 H1912 0.931 1_455 S
C1897 C1896 1.370 . S
C1897 C1901 1.408 . S
C1898 C1896 1.363 . S
C1898 C1899 1.370 . S
C1898 C1902 1.524 1_455 S
C1899 C1891 1.503 . S
C1899 C1898 1.370 . S
C1899 C1900 1.403 . S
C1900 C1899 1.403 . S
C1900 C1901 1.404 . S
C1900 C1903 1.539 . S
C1901 C1897 1.408 . S
C1901 C1900 1.404 . S
C1901 H1913 0.930 . S
C1902 C1898 1.524 1_655 S
C1902 H1914 0.956 . S
C1902 H1915 0.961 1_655 S
C1902 H1916 0.961 . S
C1903 C1900 1.539 . S
C1903 H1917 0.958 . S
C1903 H1918 0.961 . S
C1903 H1919 0.960 . S
H1904 C1888 0.931 . S
H1905 C1893 0.929 . S
H1906 C1894 0.960 . S
H1907 C1894 0.962 . S
H1908 C1894 0.960 . S
H1909 C1895 0.961 . S
H1910 C1895 0.961 . S
H1911 C1895 0.961 . S
H1912 C1896 0.931 1_655 S
H1913 C1901 0.930 . S
H1914 C1902 0.956 . S
H1915 C1902 0.961 1_455 S
H1916 C1902 0.961 . S
H1917 C1903 0.958 . S
H1918 C1903 0.961 . S
H1919 C1903 0.960 . S
C1920 C1921 1.391 . S
C1920 C1922 1.394 . S
C1920 H1936 0.931 . S
C1921 C1920 1.391 . S
C1921 C1925 1.376 . S
C1922 C1920 1.394 . S
C1922 C1923 1.369 . S
C1922 C1926 1.531 . S
C1923 C1922 1.369 . S
C1923 C1924 1.410 . S
C1923 C1931 1.503 . S
C1924 C1923 1.410 . S
C1924 C1925 1.392 . S
C1924 C1927 1.511 . S
C1925 C1921 1.376 . S
C1925 C1924 1.392 . S
C1925 H1937 0.929 . S
C1926 C1922 1.531 . S
C1926 H1938 0.960 . S
C1926 H1939 0.962 . S
C1926 H1940 0.960 . S
C1927 C1924 1.511 . S
C1927 H1941 0.961 . S
C1927 H1942 0.961 . S
C1927 H1943 0.961 . S
C1928 C1929 1.370 . S
C1928 C1930 1.363 . S
C1928 H1944 0.931 . S
C1929 C1928 1.370 . S
C1929 C1933 1.408 . S
C1930 C1928 1.363 . S
C1930 C1931 1.370 . S
C1930 C1934 1.524 . S
C1931 C1923 1.503 . S
C1931 C1930 1.370 . S
C1931 C1932 1.403 . S
C1932 C1931 1.403 . S
C1932 C1933 1.404 . S
C1932 C1935 1.539 . S
C1933 C1929 1.408 . S
C1933 C1932 1.404 . S
C1933 H1945 0.930 . S
C1934 C1930 1.524 . S
C1934 H1946 0.956 . S
C1934 H1947 0.961 . S
C1934 H1948 0.961 . S
C1935 C1932 1.539 . S
C1935 H1949 0.958 . S
C1935 H1950 0.961 . S
C1935 H1951 0.960 . S
H1936 C1920 0.931 . S
H1937 C1925 0.929 . S
H1938 C1926 0.960 . S
H1939 C1926 0.962 . S
H1940 C1926 0.960 . S
H1941 C1927 0.961 . S
H1942 C1927 0.961 . S
H1943 C1927 0.961 . S
H1944 C1928 0.931 . S
H1945 C1933 0.930 . S
H1946 C1934 0.956 . S
H1947 C1934 0.961 . S
H1948 C1934 0.961 . S
H1949 C1935 0.958 . S
H1950 C1935 0.961 . S
H1951 C1935 0.960 . S
C1952 C1953 1.391 . S
C1952 C1954 1.394 . S
C1952 H1968 0.931 . S
C1953 C1952 1.391 . S
C1953 C1957 1.376 . S
C1954 C1952 1.394 . S
C1954 C1955 1.369 . S
C1954 C1958 1.531 . S
C1955 C1954 1.369 . S
C1955 C1956 1.410 . S
C1955 C1963 1.503 . S
C1956 C1955 1.410 . S
C1956 C1957 1.392 . S
C1956 C1959 1.511 . S
C1957 C1953 1.376 . S
C1957 C1956 1.392 . S
C1957 H1969 0.929 . S
C1958 C1954 1.531 . S
C1958 H1970 0.960 . S
C1958 H1971 0.962 . S
C1958 H1972 0.960 . S
C1959 C1956 1.511 . S
C1959 H1973 0.961 . S
C1959 H1974 0.961 . S
C1959 H1975 0.961 . S
C1960 C1961 1.370 . S
C1960 C1962 1.363 . S
C1960 H1976 0.931 . S
C1961 C1960 1.370 . S
C1961 C1965 1.408 . S
C1962 C1960 1.363 . S
C1962 C1963 1.370 . S
C1962 C1966 1.524 . S
C1963 C1955 1.503 . S
C1963 C1962 1.370 . S
C1963 C1964 1.403 . S
C1964 C1963 1.403 . S
C1964 C1965 1.404 . S
C1964 C1967 1.539 . S
C1965 C1961 1.408 . S
C1965 C1964 1.404 . S
C1965 H1977 0.930 . S
C1966 C1962 1.524 . S
C1966 H1978 0.956 . S
C1966 H1979 0.961 . S
C1966 H1980 0.961 . S
C1967 C1964 1.539 . S
C1967 H1981 0.958 . S
C1967 H1982 0.961 . S
C1967 H1983 0.960 . S
H1968 C1952 0.931 . S
H1969 C1957 0.929 . S
H1970 C1958 0.960 . S
H1971 C1958 0.962 . S
H1972 C1958 0.960 . S
H1973 C1959 0.961 . S
H1974 C1959 0.961 . S
H1975 C1959 0.961 . S
H1976 C1960 0.931 . S
H1977 C1965 0.930 . S
H1978 C1966 0.956 . S
H1979 C1966 0.961 . S
H1980 C1966 0.961 . S
H1981 C1967 0.958 . S
H1982 C1967 0.961 . S
H1983 C1967 0.960 . S
C1984 C1985 1.391 . S
C1984 C1986 1.394 . S
C1984 H2000 0.931 . S
C1985 C1984 1.391 . S
C1985 C1989 1.376 . S
C1986 C1984 1.394 . S
C1986 C1987 1.369 . S
C1986 C1990 1.531 . S
C1987 C1986 1.369 . S
C1987 C1988 1.410 . S
C1987 C1995 1.503 . S
C1988 C1987 1.410 . S
C1988 C1989 1.392 . S
C1988 C1991 1.511 . S
C1989 C1985 1.376 . S
C1989 C1988 1.392 . S
C1989 H2001 0.929 . S
C1990 C1986 1.531 . S
C1990 H2002 0.960 . S
C1990 H2003 0.962 . S
C1990 H2004 0.960 . S
C1991 C1988 1.511 . S
C1991 H2005 0.961 . S
C1991 H2006 0.961 . S
C1991 H2007 0.961 . S
C1992 C1993 1.370 . S
C1992 C1994 1.363 . S
C1992 H2008 0.931 . S
C1993 C1992 1.370 . S
C1993 C1997 1.408 . S
C1994 C1992 1.363 . S
C1994 C1995 1.370 . S
C1994 C1998 1.524 . S
C1995 C1987 1.503 . S
C1995 C1994 1.370 . S
C1995 C1996 1.403 . S
C1996 C1995 1.403 . S
C1996 C1997 1.404 . S
C1996 C1999 1.539 . S
C1997 C1993 1.408 . S
C1997 C1996 1.404 . S
C1997 H2009 0.930 . S
C1998 C1994 1.524 . S
C1998 H2010 0.956 . S
C1998 H2011 0.961 . S
C1998 H2012 0.961 . S
C1999 C1996 1.539 . S
C1999 H2013 0.958 . S
C1999 H2014 0.961 . S
C1999 H2015 0.960 . S
H2000 C1984 0.931 . S
H2001 C1989 0.929 . S
H2002 C1990 0.960 . S
H2003 C1990 0.962 . S
H2004 C1990 0.960 . S
H2005 C1991 0.961 . S
H2006 C1991 0.961 . S
H2007 C1991 0.961 . S
H2008 C1992 0.931 . S
H2009 C1997 0.930 . S
H2010 C1998 0.956 . S
H2011 C1998 0.961 . S
H2012 C1998 0.961 . S
H2013 C1999 0.958 . S
H2014 C1999 0.961 . S
H2015 C1999 0.960 . S
C2016 C2017 1.391 . S
C2016 C2018 1.394 . S
C2016 H2032 0.931 . S
C2017 C2016 1.391 . S
C2017 C2021 1.376 . S
C2018 C2016 1.394 . S
C2018 C2019 1.369 . S
C2018 C2022 1.531 . S
C2019 C2018 1.369 . S
C2019 C2020 1.410 . S
C2019 C2027 1.503 . S
C2020 C2019 1.410 . S
C2020 C2021 1.392 . S
C2020 C2023 1.511 . S
C2021 C2017 1.376 . S
C2021 C2020 1.392 . S
C2021 H2033 0.929 . S
C2022 C2018 1.531 . S
C2022 H2034 0.960 . S
C2022 H2035 0.962 . S
C2022 H2036 0.960 . S
C2023 C2020 1.511 . S
C2023 H2037 0.961 . S
C2023 H2038 0.961 . S
C2023 H2039 0.961 . S
C2024 C2025 1.370 . S
C2024 C2026 1.363 . S
C2024 H2040 0.931 . S
C2025 C2024 1.370 . S
C2025 C2029 1.408 . S
C2026 C2024 1.363 . S
C2026 C2027 1.370 . S
C2026 C2030 1.524 . S
C2027 C2019 1.503 . S
C2027 C2026 1.370 . S
C2027 C2028 1.403 . S
C2028 C2027 1.403 . S
C2028 C2029 1.404 . S
C2028 C2031 1.539 . S
C2029 C2025 1.408 . S
C2029 C2028 1.404 . S
C2029 H2041 0.930 . S
C2030 C2026 1.524 . S
C2030 H2042 0.956 . S
C2030 H2043 0.961 . S
C2030 H2044 0.961 . S
C2031 C2028 1.539 . S
C2031 H2045 0.958 . S
C2031 H2046 0.961 . S
C2031 H2047 0.960 . S
H2032 C2016 0.931 . S
H2033 C2021 0.929 . S
H2034 C2022 0.960 . S
H2035 C2022 0.962 . S
H2036 C2022 0.960 . S
H2037 C2023 0.961 . S
H2038 C2023 0.961 . S
H2039 C2023 0.961 . S
H2040 C2024 0.931 . S
H2041 C2029 0.930 . S
H2042 C2030 0.956 . S
H2043 C2030 0.961 . S
H2044 C2030 0.961 . S
H2045 C2031 0.958 . S
H2046 C2031 0.961 . S
H2047 C2031 0.960 . S
C2048 C2049 1.391 . S
C2048 C2050 1.394 . S
C2048 H2064 0.931 . S
C2049 C2048 1.391 . S
C2049 C2053 1.376 . S
C2050 C2048 1.394 . S
C2050 C2051 1.369 . S
C2050 C2054 1.531 . S
C2051 C2050 1.369 . S
C2051 C2052 1.410 . S
C2051 C2059 1.503 . S
C2052 C2051 1.410 . S
C2052 C2053 1.392 . S
C2052 C2055 1.511 . S
C2053 C2049 1.376 . S
C2053 C2052 1.392 . S
C2053 H2065 0.929 . S
C2054 C2050 1.531 . S
C2054 H2066 0.960 . S
C2054 H2067 0.962 . S
C2054 H2068 0.960 . S
C2055 C2052 1.511 . S
C2055 H2069 0.961 . S
C2055 H2070 0.961 . S
C2055 H2071 0.961 . S
C2056 C2057 1.370 . S
C2056 C2058 1.363 . S
C2056 H2072 0.931 . S
C2057 C2056 1.370 . S
C2057 C2061 1.408 . S
C2058 C2056 1.363 . S
C2058 C2059 1.370 . S
C2058 C2062 1.524 . S
C2059 C2051 1.503 . S
C2059 C2058 1.370 . S
C2059 C2060 1.403 . S
C2060 C2059 1.403 . S
C2060 C2061 1.404 . S
C2060 C2063 1.539 . S
C2061 C2057 1.408 . S
C2061 C2060 1.404 . S
C2061 H2073 0.930 . S
C2062 C2058 1.524 . S
C2062 H2074 0.956 . S
C2062 H2075 0.961 . S
C2062 H2076 0.961 . S
C2063 C2060 1.539 . S
C2063 H2077 0.958 . S
C2063 H2078 0.961 . S
C2063 H2079 0.960 . S
H2064 C2048 0.931 . S
H2065 C2053 0.929 . S
H2066 C2054 0.960 . S
H2067 C2054 0.962 . S
H2068 C2054 0.960 . S
H2069 C2055 0.961 . S
H2070 C2055 0.961 . S
H2071 C2055 0.961 . S
H2072 C2056 0.931 . S
H2073 C2061 0.930 . S
H2074 C2062 0.956 . S
H2075 C2062 0.961 . S
H2076 C2062 0.961 . S
H2077 C2063 0.958 . S
H2078 C2063 0.961 . S
H2079 C2063 0.960 . S
C2080 C2081 1.391 . S
C2080 C2082 1.394 . S
C2080 H2096 0.931 . S
C2081 C2080 1.391 . S
C2081 C2085 1.376 . S
C2082 C2080 1.394 . S
C2082 C2083 1.369 . S
C2082 C2086 1.531 . S
C2083 C2082 1.369 . S
C2083 C2084 1.410 . S
C2083 C2091 1.503 . S
C2084 C2083 1.410 . S
C2084 C2085 1.392 . S
C2084 C2087 1.511 . S
C2085 C2081 1.376 . S
C2085 C2084 1.392 . S
C2085 H2097 0.929 . S
C2086 C2082 1.531 . S
C2086 H2098 0.960 . S
C2086 H2099 0.962 . S
C2086 H2100 0.960 . S
C2087 C2084 1.511 . S
C2087 H2101 0.961 . S
C2087 H2102 0.961 . S
C2087 H2103 0.961 . S
C2088 C2089 1.370 . S
C2088 C2090 1.363 . S
C2088 H2104 0.931 . S
C2089 C2088 1.370 . S
C2089 C2093 1.408 . S
C2090 C2088 1.363 . S
C2090 C2091 1.370 . S
C2090 C2094 1.524 . S
C2091 C2083 1.503 . S
C2091 C2090 1.370 . S
C2091 C2092 1.403 . S
C2092 C2091 1.403 . S
C2092 C2093 1.404 . S
C2092 C2095 1.539 . S
C2093 C2089 1.408 . S
C2093 C2092 1.404 . S
C2093 H2105 0.930 . S
C2094 C2090 1.524 . S
C2094 H2106 0.956 . S
C2094 H2107 0.961 . S
C2094 H2108 0.961 . S
C2095 C2092 1.539 . S
C2095 H2109 0.958 . S
C2095 H2110 0.961 . S
C2095 H2111 0.960 . S
H2096 C2080 0.931 . S
H2097 C2085 0.929 . S
H2098 C2086 0.960 . S
H2099 C2086 0.962 . S
H2100 C2086 0.960 . S
H2101 C2087 0.961 . S
H2102 C2087 0.961 . S
H2103 C2087 0.961 . S
H2104 C2088 0.931 . S
H2105 C2093 0.930 . S
H2106 C2094 0.956 . S
H2107 C2094 0.961 . S
H2108 C2094 0.961 . S
H2109 C2095 0.958 . S
H2110 C2095 0.961 . S
H2111 C2095 0.960 . S
C2112 C2113 1.391 . S
C2112 C2114 1.394 . S
C2112 H2128 0.931 . S
C2113 C2112 1.391 . S
C2113 C2117 1.376 . S
C2114 C2112 1.394 . S
C2114 C2115 1.369 . S
C2114 C2118 1.531 . S
C2115 C2114 1.369 . S
C2115 C2116 1.410 . S
C2115 C2123 1.503 . S
C2116 C2115 1.410 . S
C2116 C2117 1.392 . S
C2116 C2119 1.511 . S
C2117 C2113 1.376 . S
C2117 C2116 1.392 . S
C2117 H2129 0.929 . S
C2118 C2114 1.531 . S
C2118 H2130 0.960 . S
C2118 H2131 0.962 . S
C2118 H2132 0.960 . S
C2119 C2116 1.511 . S
C2119 H2133 0.961 . S
C2119 H2134 0.961 . S
C2119 H2135 0.961 . S
C2120 C2121 1.370 . S
C2120 C2122 1.363 . S
C2120 H2136 0.931 . S
C2121 C2120 1.370 . S
C2121 C2125 1.408 . S
C2122 C2120 1.363 . S
C2122 C2123 1.370 . S
C2122 C2126 1.524 . S
C2123 C2115 1.503 . S
C2123 C2122 1.370 . S
C2123 C2124 1.403 . S
C2124 C2123 1.403 . S
C2124 C2125 1.404 . S
C2124 C2127 1.539 . S
C2125 C2121 1.408 . S
C2125 C2124 1.404 . S
C2125 H2137 0.930 . S
C2126 C2122 1.524 . S
C2126 H2138 0.956 . S
C2126 H2139 0.961 . S
C2126 H2140 0.961 . S
C2127 C2124 1.539 . S
C2127 H2141 0.958 . S
C2127 H2142 0.961 . S
C2127 H2143 0.960 . S
H2128 C2112 0.931 . S
H2129 C2117 0.929 . S
H2130 C2118 0.960 . S
H2131 C2118 0.962 . S
H2132 C2118 0.960 . S
H2133 C2119 0.961 . S
H2134 C2119 0.961 . S
H2135 C2119 0.961 . S
H2136 C2120 0.931 . S
H2137 C2125 0.930 . S
H2138 C2126 0.956 . S
H2139 C2126 0.961 . S
H2140 C2126 0.961 . S
H2141 C2127 0.958 . S
H2142 C2127 0.961 . S
H2143 C2127 0.960 . S
C2144 C2145 1.391 . S
C2144 C2146 1.394 . S
C2144 H2160 0.931 . S
C2145 C2144 1.391 . S
C2145 C2149 1.376 . S
C2146 C2144 1.394 . S
C2146 C2147 1.369 . S
C2146 C2150 1.531 . S
C2147 C2146 1.369 . S
C2147 C2148 1.410 . S
C2147 C2155 1.503 . S
C2148 C2147 1.410 . S
C2148 C2149 1.392 . S
C2148 C2151 1.511 . S
C2149 C2145 1.376 . S
C2149 C2148 1.392 . S
C2149 H2161 0.929 . S
C2150 C2146 1.531 . S
C2150 H2162 0.960 . S
C2150 H2163 0.962 . S
C2150 H2164 0.960 . S
C2151 C2148 1.511 . S
C2151 H2165 0.961 . S
C2151 H2166 0.961 . S
C2151 H2167 0.961 . S
C2152 C2153 1.370 . S
C2152 C2154 1.363 . S
C2152 H2168 0.931 . S
C2153 C2152 1.370 . S
C2153 C2157 1.408 . S
C2154 C2152 1.363 . S
C2154 C2155 1.370 . S
C2154 C2158 1.524 . S
C2155 C2147 1.503 . S
C2155 C2154 1.370 . S
C2155 C2156 1.403 . S
C2156 C2155 1.403 . S
C2156 C2157 1.404 . S
C2156 C2159 1.539 . S
C2157 C2153 1.408 . S
C2157 C2156 1.404 . S
C2157 H2169 0.930 . S
C2158 C2154 1.524 . S
C2158 H2170 0.956 . S
C2158 H2171 0.961 . S
C2158 H2172 0.961 . S
C2159 C2156 1.539 . S
C2159 H2173 0.958 . S
C2159 H2174 0.961 . S
C2159 H2175 0.960 . S
H2160 C2144 0.931 . S
H2161 C2149 0.929 . S
H2162 C2150 0.960 . S
H2163 C2150 0.962 . S
H2164 C2150 0.960 . S
H2165 C2151 0.961 . S
H2166 C2151 0.961 . S
H2167 C2151 0.961 . S
H2168 C2152 0.931 . S
H2169 C2157 0.930 . S
H2170 C2158 0.956 . S
H2171 C2158 0.961 . S
H2172 C2158 0.961 . S
H2173 C2159 0.958 . S
H2174 C2159 0.961 . S
H2175 C2159 0.960 . S
C2176 C2177 1.391 . S
C2176 C2178 1.394 . S
C2176 H2192 0.931 . S
C2177 C2176 1.391 . S
C2177 C2181 1.376 . S
C2178 C2176 1.394 . S
C2178 C2179 1.369 . S
C2178 C2182 1.531 . S
C2179 C2178 1.369 . S
C2179 C2180 1.410 . S
C2179 C2187 1.503 . S
C2180 C2179 1.410 . S
C2180 C2181 1.392 . S
C2180 C2183 1.511 . S
C2181 C2177 1.376 . S
C2181 C2180 1.392 . S
C2181 H2193 0.929 . S
C2182 C2178 1.531 . S
C2182 H2194 0.960 . S
C2182 H2195 0.962 . S
C2182 H2196 0.960 . S
C2183 C2180 1.511 . S
C2183 H2197 0.961 . S
C2183 H2198 0.961 . S
C2183 H2199 0.961 . S
C2184 C2185 1.370 . S
C2184 C2186 1.363 . S
C2184 H2200 0.931 . S
C2185 C2184 1.370 . S
C2185 C2189 1.408 . S
C2186 C2184 1.363 . S
C2186 C2187 1.370 . S
C2186 C2190 1.524 . S
C2187 C2179 1.503 . S
C2187 C2186 1.370 . S
C2187 C2188 1.403 . S
C2188 C2187 1.403 . S
C2188 C2189 1.404 . S
C2188 C2191 1.539 . S
C2189 C2185 1.408 . S
C2189 C2188 1.404 . S
C2189 H2201 0.930 . S
C2190 C2186 1.524 . S
C2190 H2202 0.956 . S
C2190 H2203 0.961 . S
C2190 H2204 0.961 . S
C2191 C2188 1.539 . S
C2191 H2205 0.958 . S
C2191 H2206 0.961 . S
C2191 H2207 0.960 . S
H2192 C2176 0.931 . S
H2193 C2181 0.929 . S
H2194 C2182 0.960 . S
H2195 C2182 0.962 . S
H2196 C2182 0.960 . S
H2197 C2183 0.961 . S
H2198 C2183 0.961 . S
H2199 C2183 0.961 . S
H2200 C2184 0.931 . S
H2201 C2189 0.930 . S
H2202 C2190 0.956 . S
H2203 C2190 0.961 . S
H2204 C2190 0.961 . S
H2205 C2191 0.958 . S
H2206 C2191 0.961 . S
H2207 C2191 0.960 . S
C2208 C2209 1.391 . S
C2208 C2210 1.394 . S
C2208 H2224 0.931 . S
C2209 C2208 1.391 . S
C2209 C2213 1.376 . S
C2210 C2208 1.394 . S
C2210 C2211 1.369 . S
C2210 C2214 1.531 . S
C2211 C2210 1.369 . S
C2211 C2212 1.410 . S
C2211 C2219 1.503 . S
C2212 C2211 1.410 . S
C2212 C2213 1.392 . S
C2212 C2215 1.511 . S
C2213 C2209 1.376 . S
C2213 C2212 1.392 . S
C2213 H2225 0.929 . S
C2214 C2210 1.531 . S
C2214 H2226 0.960 . S
C2214 H2227 0.962 . S
C2214 H2228 0.960 . S
C2215 C2212 1.511 . S
C2215 H2229 0.961 . S
C2215 H2230 0.961 . S
C2215 H2231 0.961 . S
C2216 C2217 1.370 . S
C2216 C2218 1.363 . S
C2216 H2232 0.931 . S
C2217 C2216 1.370 . S
C2217 C2221 1.408 . S
C2218 C2216 1.363 . S
C2218 C2219 1.370 . S
C2218 C2222 1.524 . S
C2219 C2211 1.503 . S
C2219 C2218 1.370 . S
C2219 C2220 1.403 . S
C2220 C2219 1.403 . S
C2220 C2221 1.404 . S
C2220 C2223 1.539 . S
C2221 C2217 1.408 . S
C2221 C2220 1.404 . S
C2221 H2233 0.930 . S
C2222 C2218 1.524 . S
C2222 H2234 0.956 . S
C2222 H2235 0.961 . S
C2222 H2236 0.961 . S
C2223 C2220 1.539 . S
C2223 H2237 0.958 . S
C2223 H2238 0.961 . S
C2223 H2239 0.960 . S
H2224 C2208 0.931 . S
H2225 C2213 0.929 . S
H2226 C2214 0.960 . S
H2227 C2214 0.962 . S
H2228 C2214 0.960 . S
H2229 C2215 0.961 . S
H2230 C2215 0.961 . S
H2231 C2215 0.961 . S
H2232 C2216 0.931 . S
H2233 C2221 0.930 . S
H2234 C2222 0.956 . S
H2235 C2222 0.961 . S
H2236 C2222 0.961 . S
H2237 C2223 0.958 . S
H2238 C2223 0.961 . S
H2239 C2223 0.960 . S
C2240 C2241 1.391 . S
C2240 C2242 1.394 . S
C2240 H2256 0.931 . S
C2241 C2240 1.391 . S
C2241 C2245 1.376 . S
C2242 C2240 1.394 . S
C2242 C2243 1.369 . S
C2242 C2246 1.531 . S
C2243 C2242 1.369 . S
C2243 C2244 1.410 . S
C2243 C2251 1.503 . S
C2244 C2243 1.410 . S
C2244 C2245 1.392 . S
C2244 C2247 1.511 . S
C2245 C2241 1.376 . S
C2245 C2244 1.392 . S
C2245 H2257 0.929 . S
C2246 C2242 1.531 . S
C2246 H2258 0.960 . S
C2246 H2259 0.962 . S
C2246 H2260 0.960 . S
C2247 C2244 1.511 . S
C2247 H2261 0.961 . S
C2247 H2262 0.961 . S
C2247 H2263 0.961 . S
C2248 C2249 1.370 . S
C2248 C2250 1.363 . S
C2248 H2264 0.931 . S
C2249 C2248 1.370 . S
C2249 C2253 1.408 . S
C2250 C2248 1.363 . S
C2250 C2251 1.370 . S
C2250 C2254 1.524 . S
C2251 C2243 1.503 . S
C2251 C2250 1.370 . S
C2251 C2252 1.403 . S
C2252 C2251 1.403 . S
C2252 C2253 1.404 . S
C2252 C2255 1.539 . S
C2253 C2249 1.408 . S
C2253 C2252 1.404 . S
C2253 H2265 0.930 . S
C2254 C2250 1.524 . S
C2254 H2266 0.956 . S
C2254 H2267 0.961 . S
C2254 H2268 0.961 . S
C2255 C2252 1.539 . S
C2255 H2269 0.958 . S
C2255 H2270 0.961 . S
C2255 H2271 0.960 . S
H2256 C2240 0.931 . S
H2257 C2245 0.929 . S
H2258 C2246 0.960 . S
H2259 C2246 0.962 . S
H2260 C2246 0.960 . S
H2261 C2247 0.961 . S
H2262 C2247 0.961 . S
H2263 C2247 0.961 . S
H2264 C2248 0.931 . S
H2265 C2253 0.930 . S
H2266 C2254 0.956 . S
H2267 C2254 0.961 . S
H2268 C2254 0.961 . S
H2269 C2255 0.958 . S
H2270 C2255 0.961 . S
H2271 C2255 0.960 . S
C2272 C2273 1.391 . S
C2272 C2274 1.394 . S
C2272 H2288 0.931 . S
C2273 C2272 1.391 . S
C2273 C2277 1.376 . S
C2274 C2272 1.394 . S
C2274 C2275 1.369 . S
C2274 C2278 1.531 . S
C2275 C2274 1.369 . S
C2275 C2276 1.410 . S
C2275 C2283 1.503 . S
C2276 C2275 1.410 . S
C2276 C2277 1.392 . S
C2276 C2279 1.511 . S
C2277 C2273 1.376 . S
C2277 C2276 1.392 . S
C2277 H2289 0.929 . S
C2278 C2274 1.531 . S
C2278 H2290 0.960 . S
C2278 H2291 0.962 . S
C2278 H2292 0.960 . S
C2279 C2276 1.511 . S
C2279 H2293 0.961 . S
C2279 H2294 0.961 . S
C2279 H2295 0.961 . S
C2280 C2281 1.370 . S
C2280 C2282 1.363 . S
C2280 H2296 0.931 . S
C2281 C2280 1.370 . S
C2281 C2285 1.408 . S
C2282 C2280 1.363 . S
C2282 C2283 1.370 . S
C2282 C2286 1.524 . S
C2283 C2275 1.503 . S
C2283 C2282 1.370 . S
C2283 C2284 1.403 . S
C2284 C2283 1.403 . S
C2284 C2285 1.404 . S
C2284 C2287 1.539 . S
C2285 C2281 1.408 . S
C2285 C2284 1.404 . S
C2285 H2297 0.930 . S
C2286 C2282 1.524 . S
C2286 H2298 0.956 . S
C2286 H2299 0.961 . S
C2286 H2300 0.961 . S
C2287 C2284 1.539 . S
C2287 H2301 0.958 . S
C2287 H2302 0.961 . S
C2287 H2303 0.960 . S
H2288 C2272 0.931 . S
H2289 C2277 0.929 . S
H2290 C2278 0.960 . S
H2291 C2278 0.962 . S
H2292 C2278 0.960 . S
H2293 C2279 0.961 . S
H2294 C2279 0.961 . S
H2295 C2279 0.961 . S
H2296 C2280 0.931 . S
H2297 C2285 0.930 . S
H2298 C2286 0.956 . S
H2299 C2286 0.961 . S
H2300 C2286 0.961 . S
H2301 C2287 0.958 . S
H2302 C2287 0.961 . S
H2303 C2287 0.960 . S
C2304 C2305 1.391 . S
C2304 C2306 1.394 . S
C2304 H2320 0.931 . S
C2305 C2304 1.391 . S
C2305 C2309 1.376 . S
C2306 C2304 1.394 . S
C2306 C2307 1.369 . S
C2306 C2310 1.531 . S
C2307 C2306 1.369 . S
C2307 C2308 1.410 . S
C2307 C2315 1.503 . S
C2308 C2307 1.410 . S
C2308 C2309 1.392 . S
C2308 C2311 1.511 . S
C2309 C2305 1.376 . S
C2309 C2308 1.392 . S
C2309 H2321 0.929 . S
C2310 C2306 1.531 . S
C2310 H2322 0.960 . S
C2310 H2323 0.962 . S
C2310 H2324 0.960 . S
C2311 C2308 1.511 . S
C2311 H2325 0.961 . S
C2311 H2326 0.961 . S
C2311 H2327 0.961 . S
C2312 C2313 1.370 . S
C2312 C2314 1.363 . S
C2312 H2328 0.931 . S
C2313 C2312 1.370 . S
C2313 C2317 1.408 . S
C2314 C2312 1.363 . S
C2314 C2315 1.370 . S
C2314 C2318 1.524 . S
C2315 C2307 1.503 . S
C2315 C2314 1.370 . S
C2315 C2316 1.403 . S
C2316 C2315 1.403 . S
C2316 C2317 1.404 . S
C2316 C2319 1.539 . S
C2317 C2313 1.408 . S
C2317 C2316 1.404 . S
C2317 H2329 0.930 . S
C2318 C2314 1.524 . S
C2318 H2330 0.956 . S
C2318 H2331 0.961 . S
C2318 H2332 0.961 . S
C2319 C2316 1.539 . S
C2319 H2333 0.958 . S
C2319 H2334 0.961 . S
C2319 H2335 0.960 . S
H2320 C2304 0.931 . S
H2321 C2309 0.929 . S
H2322 C2310 0.960 . S
H2323 C2310 0.962 . S
H2324 C2310 0.960 . S
H2325 C2311 0.961 . S
H2326 C2311 0.961 . S
H2327 C2311 0.961 . S
H2328 C2312 0.931 . S
H2329 C2317 0.930 . S
H2330 C2318 0.956 . S
H2331 C2318 0.961 . S
H2332 C2318 0.961 . S
H2333 C2319 0.958 . S
H2334 C2319 0.961 . S
H2335 C2319 0.960 . S
C2336 C2337 1.391 . S
C2336 C2338 1.394 . S
C2336 H2352 0.931 . S
C2337 C2336 1.391 . S
C2337 C2341 1.376 . S
C2338 C2336 1.394 . S
C2338 C2339 1.369 . S
C2338 C2342 1.531 . S
C2339 C2338 1.369 . S
C2339 C2340 1.410 . S
C2339 C2347 1.503 . S
C2340 C2339 1.410 . S
C2340 C2341 1.392 . S
C2340 C2343 1.511 . S
C2341 C2337 1.376 . S
C2341 C2340 1.392 . S
C2341 H2353 0.929 . S
C2342 C2338 1.531 . S
C2342 H2354 0.960 . S
C2342 H2355 0.962 . S
C2342 H2356 0.960 . S
C2343 C2340 1.511 . S
C2343 H2357 0.961 . S
C2343 H2358 0.961 . S
C2343 H2359 0.961 . S
C2344 C2345 1.370 . S
C2344 C2346 1.363 . S
C2344 H2360 0.931 . S
C2345 C2344 1.370 . S
C2345 C2349 1.408 . S
C2346 C2344 1.363 . S
C2346 C2347 1.370 . S
C2346 C2350 1.524 . S
C2347 C2339 1.503 . S
C2347 C2346 1.370 . S
C2347 C2348 1.403 . S
C2348 C2347 1.403 . S
C2348 C2349 1.404 . S
C2348 C2351 1.539 . S
C2349 C2345 1.408 . S
C2349 C2348 1.404 . S
C2349 H2361 0.930 . S
C2350 C2346 1.524 . S
C2350 H2362 0.956 . S
C2350 H2363 0.961 . S
C2350 H2364 0.961 . S
C2351 C2348 1.539 . S
C2351 H2365 0.958 . S
C2351 H2366 0.961 . S
C2351 H2367 0.960 . S
H2352 C2336 0.931 . S
H2353 C2341 0.929 . S
H2354 C2342 0.960 . S
H2355 C2342 0.962 . S
H2356 C2342 0.960 . S
H2357 C2343 0.961 . S
H2358 C2343 0.961 . S
H2359 C2343 0.961 . S
H2360 C2344 0.931 . S
H2361 C2349 0.930 . S
H2362 C2350 0.956 . S
H2363 C2350 0.961 . S
H2364 C2350 0.961 . S
H2365 C2351 0.958 . S
H2366 C2351 0.961 . S
H2367 C2351 0.960 . S
C2368 C2369 1.391 . S
C2368 C2370 1.394 . S
C2368 H2384 0.931 . S
C2369 C2368 1.391 . S
C2369 C2373 1.376 . S
C2370 C2368 1.394 . S
C2370 C2371 1.369 . S
C2370 C2374 1.531 . S
C2371 C2370 1.369 . S
C2371 C2372 1.410 . S
C2371 C2379 1.503 . S
C2372 C2371 1.410 . S
C2372 C2373 1.392 . S
C2372 C2375 1.511 . S
C2373 C2369 1.376 . S
C2373 C2372 1.392 . S
C2373 H2385 0.929 . S
C2374 C2370 1.531 . S
C2374 H2386 0.960 . S
C2374 H2387 0.962 . S
C2374 H2388 0.960 . S
C2375 C2372 1.511 . S
C2375 H2389 0.961 . S
C2375 H2390 0.961 . S
C2375 H2391 0.961 . S
C2376 C2377 1.370 . S
C2376 C2378 1.363 . S
C2376 H2392 0.931 . S
C2377 C2376 1.370 . S
C2377 C2381 1.408 . S
C2378 C2376 1.363 . S
C2378 C2379 1.370 . S
C2378 C2382 1.524 . S
C2379 C2371 1.503 . S
C2379 C2378 1.370 . S
C2379 C2380 1.403 . S
C2380 C2379 1.403 . S
C2380 C2381 1.404 . S
C2380 C2383 1.539 . S
C2381 C2377 1.408 . S
C2381 C2380 1.404 . S
C2381 H2393 0.930 . S
C2382 C2378 1.524 . S
C2382 H2394 0.956 . S
C2382 H2395 0.961 . S
C2382 H2396 0.961 . S
C2383 C2380 1.539 . S
C2383 H2397 0.958 . S
C2383 H2398 0.961 . S
C2383 H2399 0.960 . S
H2384 C2368 0.931 . S
H2385 C2373 0.929 . S
H2386 C2374 0.960 . S
H2387 C2374 0.962 . S
H2388 C2374 0.960 . S
H2389 C2375 0.961 . S
H2390 C2375 0.961 . S
H2391 C2375 0.961 . S
H2392 C2376 0.931 . S
H2393 C2381 0.930 . S
H2394 C2382 0.956 . S
H2395 C2382 0.961 . S
H2396 C2382 0.961 . S
H2397 C2383 0.958 . S
H2398 C2383 0.961 . S
H2399 C2383 0.960 . S
C2400 C2401 1.391 . S
C2400 C2402 1.394 . S
C2400 H2416 0.931 . S
C2401 C2400 1.391 . S
C2401 C2405 1.376 . S
C2402 C2400 1.394 . S
C2402 C2403 1.369 . S
C2402 C2406 1.531 . S
C2403 C2402 1.369 . S
C2403 C2404 1.410 . S
C2403 C2411 1.503 . S
C2404 C2403 1.410 . S
C2404 C2405 1.392 . S
C2404 C2407 1.511 . S
C2405 C2401 1.376 . S
C2405 C2404 1.392 . S
C2405 H2417 0.929 . S
C2406 C2402 1.531 . S
C2406 H2418 0.960 . S
C2406 H2419 0.962 . S
C2406 H2420 0.960 . S
C2407 C2404 1.511 . S
C2407 H2421 0.961 . S
C2407 H2422 0.961 . S
C2407 H2423 0.961 . S
C2408 C2409 1.370 . S
C2408 C2410 1.363 . S
C2408 H2424 0.931 . S
C2409 C2408 1.370 . S
C2409 C2413 1.408 . S
C2410 C2408 1.363 . S
C2410 C2411 1.370 . S
C2410 C2414 1.524 . S
C2411 C2403 1.503 . S
C2411 C2410 1.370 . S
C2411 C2412 1.403 . S
C2412 C2411 1.403 . S
C2412 C2413 1.404 . S
C2412 C2415 1.539 . S
C2413 C2409 1.408 . S
C2413 C2412 1.404 . S
C2413 H2425 0.930 . S
C2414 C2410 1.524 . S
C2414 H2426 0.956 . S
C2414 H2427 0.961 . S
C2414 H2428 0.961 . S
C2415 C2412 1.539 . S
C2415 H2429 0.958 . S
C2415 H2430 0.961 . S
C2415 H2431 0.960 . S
H2416 C2400 0.931 . S
H2417 C2405 0.929 . S
H2418 C2406 0.960 . S
H2419 C2406 0.962 . S
H2420 C2406 0.960 . S
H2421 C2407 0.961 . S
H2422 C2407 0.961 . S
H2423 C2407 0.961 . S
H2424 C2408 0.931 . S
H2425 C2413 0.930 . S
H2426 C2414 0.956 . S
H2427 C2414 0.961 . S
H2428 C2414 0.961 . S
H2429 C2415 0.958 . S
H2430 C2415 0.961 . S
H2431 C2415 0.960 . S
C1409 C29 0.722 . S
C1417 C1201 0.709 . S
C1441 C997 0.715 . S
C1449 C117 0.711 . S
C1473 C1085 0.729 . S
C1481 C225 0.714 . S
C1505 C900 0.710 . S
C1513 C293 0.709 . S
C1537 C401 0.703 . S
C1545 C1340 0.707 . S
C1569 C489 0.691 . S
C1577 C849 0.703 . S
C1601 C1281 0.727 . S
C1609 C548 0.712 . S
C1633 C673 0.730 . S
C1641 C761 0.718 . S
C1665 C409 1.688 . S
C1673 C20 1.689 . S
C1697 C137 1.690 . S
C1705 C469 1.697 . S
C1729 C233 1.690 . S
C1737 C557 1.689 . S
C1761 C636 1.686 . S
C1769 C313 1.697 . S
C1793 C724 1.690 . S
C1801 C937 1.694 . S
C1825 C812 1.691 . S
C1833 C1017 1.696 . S
C1857 C1289 1.692 . S
C1865 C1076 1.690 . S
C1889 C1193 1.684 . S
C1897 C1349 1.694 . S
C1921 C460 1.275 . S
C1929 C49 1.280 . S
C1953 C145 1.260 . S
C1961 C585 1.261 . S
C1985 C205 1.259 . S
C1993 C645 1.281 . S
C2017 C381 1.284 . S
C2025 C321 1.272 . S
C2049 C372 1.250 . S
C2057 C909 1.267 . S
C2081 C196 1.250 . S
C2089 C753 1.262 . S
C2113 C988 1.246 . S
C2121 C577 1.265 . S
C2145 C841 1.267 . S
C2153 C57 1.278 . S
C2177 C733 1.259 . S
C2185 C1105 1.261 . S
C2209 C929 1.258 . S
C2217 C1377 1.274 . S
C2241 C1164 1.290 . S
C2249 C821 1.277 . S
C2273 C1025 1.284 . S
C2281 C1261 1.266 . S
C2305 C1252 1.275 . S
C2313 C108 1.266 . S
C2337 C1173 1.273 . S
C2345 C497 1.278 . S
C2369 C1369 1.254 . S
C2377 C284 1.261 . S
C2401 C1113 1.268 . S
C2409 C665 1.276 . S
