# Generated by pormake.
# Topology qtz-e, (6)-cn, num edge types: 1
# Building blocks:
#     Node 0, Type 0, BuildingBlock: CUKXOW_clean_sbu_0, # of connection points: 6
#     Node 1, Type 0, BuildingBlock: CUKXOW_clean_sbu_0, # of connection points: 6
#     Node 2, Type 0, BuildingBlock: CUKXOW_clean_sbu_0, # of connection points: 6
#     Node 3, Type 0, BuildingBlock: CUKXOW_clean_sbu_0, # of connection points: 6
#     Node 4, Type 0, BuildingBlock: CUKXOW_clean_sbu_0, # of connection points: 6
#     Node 5, Type 0, BuildingBlock: CUKXOW_clean_sbu_0, # of connection points: 6
#     Edge 6, Type (0, 0), BuildingBlock: TEMPAE_clean_linker_10, # of connection points: 2
#     Edge 7, Type (0, 0), BuildingBlock: TEMPAE_clean_linker_10, # of connection points: 2
#     Edge 8, Type (0, 0), BuildingBlock: TEMPAE_clean_linker_10, # of connection points: 2
#     Edge 9, Type (0, 0), BuildingBlock: TEMPAE_clean_linker_10, # of connection points: 2
#     Edge 10, Type (0, 0), BuildingBlock: TEMPAE_clean_linker_10, # of connection points: 2
#     Edge 11, Type (0, 0), BuildingBlock: TEMPAE_clean_linker_10, # of connection points: 2
#     Edge 12, Type (0, 0), BuildingBlock: TEMPAE_clean_linker_10, # of connection points: 2
#     Edge 13, Type (0, 0), BuildingBlock: TEMPAE_clean_linker_10, # of connection points: 2
#     Edge 14, Type (0, 0), BuildingBlock: TEMPAE_clean_linker_10, # of connection points: 2
#     Edge 15, Type (0, 0), BuildingBlock: TEMPAE_clean_linker_10, # of connection points: 2
#     Edge 16, Type (0, 0), BuildingBlock: TEMPAE_clean_linker_10, # of connection points: 2
#     Edge 17, Type (0, 0), BuildingBlock: TEMPAE_clean_linker_10, # of connection points: 2
#     Edge 18, Type (0, 0), BuildingBlock: TEMPAE_clean_linker_10, # of connection points: 2
#     Edge 19, Type (0, 0), BuildingBlock: TEMPAE_clean_linker_10, # of connection points: 2
#     Edge 20, Type (0, 0), BuildingBlock: TEMPAE_clean_linker_10, # of connection points: 2
#     Edge 21, Type (0, 0), BuildingBlock: TEMPAE_clean_linker_10, # of connection points: 2
#     Edge 22, Type (0, 0), BuildingBlock: TEMPAE_clean_linker_10, # of connection points: 2
#     Edge 23, Type (0, 0), BuildingBlock: TEMPAE_clean_linker_10, # of connection points: 2
# Relax obj value: 0.116
# Max RMSD: 0.164
# Mean RMSD: 0.164
data_MOF--net-qtz-e--node1-CUKXOW_clean_sbu_0--edge1-TEMPAE_clean_linker_10
_symmetry_space_group_name_H-M    P1
_symmetry_Int_Tables_number       1
_symmetry_cell_setting            triclinic
loop_
_symmetry_equiv_pos_as_xyz
'x, y, z'
_cell_length_a     26.587731
_cell_length_b     26.543756
_cell_length_c     38.071351
_cell_angle_alpha  89.705232
_cell_angle_beta   90.302529
_cell_angle_gamma 119.7017
loop_
_atom_site_label
_atom_site_type_symbol
_atom_site_fract_x
_atom_site_fract_y
_atom_site_fract_z
_atom_type_partial_charge
Tb0 Tb 0.14599 0.35673 0.04527 0.0
C1 C 0.2756 0.38719 0.0463 0.0
Tb2 Tb 0.23325 0.44928 0.99274 0.0
O3 O 0.14598 0.28409 1.01721 0.0
O4 O 0.16766 0.3615 0.99184 0.0
O5 O 0.22818 0.37009 0.06522 0.0
C6 C 0.30061 0.5061 0.93811 0.0
O7 O 0.28292 0.41138 1.01473 0.0
C8 C 0.20994 0.49087 0.04925 0.0
C9 C 0.10631 0.42444 0.99362 0.0
O10 O 0.3165 0.51585 0.97088 0.0
O11 O 0.24732 0.46462 0.93632 0.0
O12 O 0.22854 0.51971 1.02006 0.0
O13 O 0.21223 0.44483 0.04667 0.0
O14 O 0.15213 0.43859 0.97379 0.0
O15 O 0.0984 0.39827 0.02466 0.0
C16 C 0.08052 0.30433 0.10125 0.0
O17 O 0.06075 0.30192 0.06961 0.0
O18 O 0.13632 0.33562 0.10098 0.0
C19 C 0.16804 0.31461 0.98892 0.0
Tb20 Tb 0.78728 0.14733 0.38024 0.0
C21 C 0.88188 0.27664 0.38813 0.0
Tb22 Tb 0.7897 0.23938 0.32788 0.0
O23 O 0.85775 0.14259 0.35226 0.0
O24 O 0.80663 0.1702 0.32728 0.0
O25 O 0.84527 0.22934 0.40566 0.0
C26 C 0.81105 0.31027 0.27301 0.0
O27 O 0.8731 0.28519 0.35481 0.0
C28 C 0.72025 0.21442 0.38206 0.0
C29 C 0.68649 0.11234 0.32392 0.0
O30 O 0.80391 0.32178 0.30519 0.0
O31 O 0.80649 0.25939 0.27203 0.0
O32 O 0.71322 0.23515 0.35256 0.0
O33 O 0.76825 0.21587 0.38135 0.0
O34 O 0.71777 0.16174 0.30675 0.0
O35 O 0.70345 0.09921 0.35389 0.0
C36 C 0.76473 0.07327 0.43328 0.0
O37 O 0.72634 0.07288 0.41191 0.0
O38 O 0.8156 0.11478 0.42451 0.0
C39 C 0.85206 0.16766 0.32441 0.0
Tb40 Tb 0.61703 0.78983 0.71691 0.0
C41 C 0.5733 0.8782 0.73117 0.0
Tb42 Tb 0.53348 0.80238 0.665 0.0
O43 O 0.68735 0.82857 0.6779 0.0
O44 O 0.62181 0.84981 0.67878 0.0
O45 O 0.58463 0.83938 0.74579 0.0
C46 C 0.48837 0.81984 0.60625 0.0
O47 O 0.56447 0.87937 0.6969 0.0
C48 C 0.4847 0.73654 0.72009 0.0
C49 C 0.56794 0.70449 0.65256 0.0
O50 O 0.46592 0.81199 0.63742 0.0
O51 O 0.53672 0.81907 0.60841 0.0
O52 O 0.46178 0.76269 0.70292 0.0
O53 O 0.52826 0.74294 0.70368 0.0
O54 O 0.54443 0.73473 0.63974 0.0
O55 O 0.59452 0.71559 0.68354 0.0
C56 C 0.66346 0.76889 0.77372 0.0
O57 O 0.62791 0.73019 0.75189 0.0
O58 O 0.67376 0.8198 0.76333 0.0
C59 C 0.66441 0.85559 0.66171 0.0
Tb60 Tb 0.80299 0.61656 0.0568 0.0
C61 C 0.66769 0.55378 0.06851 0.0
Tb62 Tb 0.71954 0.52977 1.00227 0.0
O63 O 0.82519 0.68817 1.01974 0.0
O64 O 0.74314 0.61423 1.01897 0.0
O65 O 0.71936 0.57838 0.08373 0.0
C66 C 0.65961 0.47595 0.94448 0.0
O67 O 0.65962 0.5419 0.03447 0.0
C68 C 0.74758 0.48459 0.05505 0.0
C69 C 0.856 0.58942 0.99098 0.0
O70 O 0.65339 0.45244 0.97524 0.0
O71 O 0.69915 0.53028 0.9463 0.0
O72 O 0.69895 0.4571 0.03812 0.0
O73 O 0.77931 0.53203 0.03987 0.0
O74 O 0.80345 0.56164 0.97667 0.0
O75 O 0.8653 0.60966 0.02364 0.0
C76 C 0.86253 0.65903 0.11634 0.0
O77 O 0.85487 0.68968 0.09235 0.0
O78 O 0.83678 0.60537 0.10666 0.0
C79 C 0.7758 0.66095 1.00332 0.0
Tb80 Tb 0.17862 0.81161 0.3882 0.0
C81 C 0.09944 0.67724 0.39006 0.0
Tb82 Tb 0.19159 0.73969 0.32908 0.0
O83 O 0.0967 0.79826 0.36541 0.0
O84 O 0.16094 0.79883 0.33392 0.0
O85 O 0.12476 0.72501 0.40936 0.0
C86 C 0.18114 0.67448 0.27302 0.0
O87 O 0.11507 0.67467 0.35725 0.0
C88 C 0.26129 0.76458 0.38341 0.0
C89 C 0.27039 0.87328 0.32675 0.0
O90 O 0.14028 0.68246 0.28557 0.0
O91 O 0.22705 0.70242 0.29233 0.0
O92 O 0.27423 0.75509 0.3523 0.0
O93 O 0.20949 0.75272 0.38347 0.0
O94 O 0.24195 0.82597 0.30736 0.0
O95 O 0.25528 0.87611 0.35964 0.0
C96 C 0.20489 0.87834 0.44498 0.0
O97 O 0.23539 0.85694 0.43236 0.0
O98 O 0.15923 0.86252 0.42546 0.0
C99 C 0.10967 0.789 0.33407 0.0
Tb100 Tb 0.36129 0.19676 0.71502 0.0
C101 C 0.40675 0.10859 0.71919 0.0
Tb102 Tb 0.45039 0.20153 0.65976 0.0
O103 O 0.29371 0.11342 0.69298 0.0
O104 O 0.36137 0.17385 0.66236 0.0
O105 O 0.39081 0.14042 0.73764 0.0
C106 C 0.50313 0.19509 0.60183 0.0
O107 O 0.42152 0.11875 0.68563 0.0
C108 C 0.49265 0.25054 0.72105 0.0
C109 C 0.40766 0.29355 0.65519 0.0
O110 O 0.45468 0.15356 0.6142 0.0
O111 O 0.52175 0.24018 0.62211 0.0
O112 O 0.51748 0.22945 0.70127 0.0
O113 O 0.45044 0.24765 0.7046 0.0
O114 O 0.43291 0.26772 0.63888 0.0
O115 O 0.3808 0.27571 0.68606 0.0
C116 C 0.31539 0.21636 0.77163 0.0
O117 O 0.29532 0.21152 0.73977 0.0
O118 O 0.36081 0.21019 0.77131 0.0
C119 C 0.31903 0.12355 0.66257 0.0
C120 C 0.22918 0.6467 0.22733 0.0
C121 C 0.17831 0.64273 0.24059 0.0
C122 C 0.2289 0.61924 0.19591 0.0
C123 C 0.17617 0.58603 0.17747 0.0
C124 C 0.12429 0.58104 0.19103 0.0
C125 C 0.12607 0.60997 0.22236 0.0
C126 C 0.28538 0.62655 0.18219 0.0
C127 C 0.06705 0.54519 0.17251 0.0
C128 C 0.19586 0.5652 0.0808 0.0
C129 C 0.19572 0.51234 0.0814 0.0
C130 C 0.18675 0.58847 0.11163 0.0
C131 C 0.17647 0.55772 0.14376 0.0
C132 C 0.1734 0.50288 0.14408 0.0
C133 C 0.18392 0.48133 0.113 0.0
C134 C 0.19105 0.64733 0.11011 0.0
C135 C 0.16143 0.46802 0.17754 0.0
H136 H 0.2697 0.67224 0.24126 0.0
H137 H 0.08666 0.6069 0.23259 0.0
H138 H 0.28265 0.58362 0.17991 0.0
H139 H 0.29394 0.6461 0.15553 0.0
H140 H 0.3227 0.65449 0.19943 0.0
H141 H 0.03061 0.54533 0.18659 0.0
H142 H 0.06913 0.56194 0.1455 0.0
H143 H 0.05772 0.49971 0.17008 0.0
H144 H 0.20475 0.58927 0.05638 0.0
H145 H 0.18467 0.44105 0.11372 0.0
H146 H 0.23012 0.67914 0.12475 0.0
H147 H 0.15299 0.64591 0.12291 0.0
H148 H 0.19398 0.66318 0.08272 0.0
H149 H 0.15292 0.42326 0.17252 0.0
H150 H 0.12358 0.46547 0.19134 0.0
H151 H 0.19924 0.48976 0.19545 0.0
C152 C 0.50979 0.1405 0.5502 0.0
C153 C 0.53253 0.19188 0.56974 0.0
C154 C 0.53744 0.13747 0.51949 0.0
C155 C 0.58879 0.18717 0.50805 0.0
C156 C 0.61195 0.23898 0.52791 0.0
C157 C 0.5836 0.24063 0.55852 0.0
C158 C 0.51156 0.08131 0.49922 0.0
C159 C 0.66636 0.29306 0.51657 0.0
C160 C 0.69636 0.18221 0.44462 0.0
C161 C 0.68316 0.20145 0.41339 0.0
C162 C 0.66386 0.17407 0.47527 0.0
C163 C 0.61769 0.18636 0.47473 0.0
C164 C 0.60276 0.2034 0.44278 0.0
C165 C 0.63554 0.21047 0.41247 0.0
C166 C 0.68047 0.15458 0.50852 0.0
C167 C 0.55385 0.21682 0.44097 0.0
H168 H 0.47033 0.10268 0.55889 0.0
H169 H 0.60129 0.2804 0.57357 0.0
H170 H 0.49922 0.08794 0.47244 0.0
H171 H 0.54408 0.06703 0.49619 0.0
H172 H 0.4726 0.04608 0.51227 0.0
H173 H 0.67912 0.32959 0.53515 0.0
H174 H 0.70268 0.28391 0.51445 0.0
H175 H 0.65981 0.30691 0.49019 0.0
H176 H 0.73289 0.1747 0.44533 0.0
H177 H 0.62491 0.22485 0.38827 0.0
H178 H 0.64157 0.11906 0.52133 0.0
H179 H 0.70037 0.19123 0.52731 0.0
H180 H 0.71186 0.1393 0.50349 0.0
H181 H 0.51378 0.18054 0.45222 0.0
H182 H 0.54467 0.2248 0.41363 0.0
H183 H 0.56513 0.25595 0.45688 0.0
C184 C 0.38799 0.59033 0.91156 0.0
C185 C 0.33535 0.53866 0.90744 0.0
C186 C 0.418 0.624 0.88218 0.0
C187 C 0.39471 0.60511 0.84809 0.0
C188 C 0.34296 0.5515 0.84387 0.0
C189 C 0.31379 0.5191 0.87361 0.0
C190 C 0.47337 0.68066 0.88766 0.0
C191 C 0.31725 0.52923 0.80798 0.0
C192 C 0.4237 0.71174 0.77374 0.0
C193 C 0.46378 0.70501 0.75357 0.0
C194 C 0.40277 0.68127 0.80542 0.0
C195 C 0.42194 0.64266 0.81686 0.0
C196 C 0.46348 0.63676 0.79687 0.0
C197 C 0.48383 0.66801 0.76538 0.0
C198 C 0.35907 0.68934 0.82619 0.0
C199 C 0.48495 0.59602 0.80805 0.0
H200 H 0.40477 0.60531 0.93775 0.0
H201 H 0.27337 0.47877 0.87038 0.0
H202 H 0.50837 0.68264 0.87095 0.0
H203 H 0.46671 0.7172 0.87965 0.0
H204 H 0.48799 0.68701 0.91548 0.0
H205 H 0.27917 0.48479 0.80908 0.0
H206 H 0.30349 0.55865 0.79594 0.0
H207 H 0.35017 0.52871 0.79043 0.0
H208 H 0.40856 0.74074 0.76471 0.0
H209 H 0.51433 0.6623 0.74952 0.0
H210 H 0.37341 0.69986 0.85391 0.0
H211 H 0.31694 0.64834 0.82624 0.0
H212 H 0.35227 0.7244 0.81522 0.0
H213 H 0.49887 0.60332 0.83596 0.0
H214 H 0.52179 0.60126 0.79174 0.0
H215 H 0.44923 0.55054 0.80577 0.0
C216 C 0.80682 0.39275 0.24391 0.0
C217 C 0.81534 0.34489 0.24157 0.0
C218 C 0.80235 0.42043 0.21344 0.0
C219 C 0.80644 0.39952 0.17998 0.0
C220 C 0.81863 0.35342 0.17766 0.0
C221 C 0.82283 0.3266 0.20851 0.0
C222 C 0.78955 0.46954 0.21725 0.0
C223 C 0.82377 0.33005 0.1426 0.0
C224 C 0.72019 0.41665 0.10569 0.0
C225 C 0.76342 0.46265 0.08646 0.0
C226 C 0.73382 0.39572 0.13608 0.0
C227 C 0.79214 0.42168 0.14761 0.0
C228 C 0.83612 0.46805 0.12809 0.0
C229 C 0.82126 0.48742 0.0974 0.0
C230 C 0.6857 0.34578 0.15588 0.0
C231 C 0.89881 0.49706 0.1394 0.0
H232 H 0.8011 0.40703 0.26947 0.0
H233 H 0.82983 0.28979 0.20667 0.0
H234 H 0.81095 0.50267 0.1964 0.0
H235 H 0.74217 0.45212 0.21483 0.0
H236 H 0.80367 0.49086 0.24328 0.0
H237 H 0.83869 0.29782 0.14532 0.0
H238 H 0.78099 0.30892 0.12923 0.0
H239 H 0.85446 0.36586 0.12538 0.0
H240 H 0.67548 0.39725 0.09712 0.0
H241 H 0.85493 0.5221 0.08201 0.0
H242 H 0.68325 0.35948 0.183 0.0
H243 H 0.69483 0.30936 0.15793 0.0
H244 H 0.64284 0.32971 0.14303 0.0
H245 H 0.90298 0.5045 0.16817 0.0
H246 H 0.92538 0.53926 0.12582 0.0
H247 H 0.91692 0.46846 0.13313 0.0
C248 C 0.47923 0.81095 0.54107 0.0
C249 C 0.45937 0.82022 0.57308 0.0
C250 C 0.44872 0.80469 0.50965 0.0
C251 C 0.39764 0.8089 0.51015 0.0
C252 C 0.37855 0.8203 0.54232 0.0
C253 C 0.40939 0.82528 0.57346 0.0
C254 C 0.46995 0.79132 0.47617 0.0
C255 C 0.32421 0.82474 0.54438 0.0
C256 C 0.34268 0.83168 0.42206 0.0
C257 C 0.29702 0.77585 0.41511 0.0
C258 C 0.37508 0.84352 0.4533 0.0
C259 C 0.36253 0.79789 0.47741 0.0
C260 C 0.31662 0.74123 0.47006 0.0
C261 C 0.28377 0.73115 0.43922 0.0
C262 C 0.42186 0.90493 0.46085 0.0
C263 C 0.30244 0.69111 0.49461 0.0
H264 H 0.51749 0.80629 0.54078 0.0
H265 H 0.39374 0.83216 0.59821 0.0
H266 H 0.43505 0.75087 0.46427 0.0
H267 H 0.48153 0.82678 0.45684 0.0
H268 H 0.50839 0.786 0.48061 0.0
H269 H 0.32424 0.84909 0.56802 0.0
H270 H 0.31886 0.84609 0.5207 0.0
H271 H 0.28607 0.78054 0.54601 0.0
H272 H 0.35207 0.8663 0.40344 0.0
H273 H 0.24803 0.68811 0.43372 0.0
H274 H 0.46443 0.90699 0.46323 0.0
H275 H 0.41316 0.91925 0.48633 0.0
H276 H 0.42484 0.93579 0.44003 0.0
H277 H 0.34148 0.68685 0.49899 0.0
H278 H 0.26711 0.64933 0.48428 0.0
H279 H 0.28905 0.69932 0.5205 0.0
C280 C 0.58704 0.3859 0.91398 0.0
C281 C 0.63106 0.444 0.91207 0.0
C282 C 0.56233 0.35341 0.88339 0.0
C283 C 0.58268 0.37954 0.85011 0.0
C284 C 0.62653 0.43857 0.84808 0.0
C285 C 0.64996 0.47023 0.87913 0.0
C286 C 0.51509 0.29088 0.88667 0.0
C287 C 0.64915 0.46813 0.81311 0.0
C288 C 0.56215 0.28269 0.77161 0.0
C289 C 0.51498 0.2818 0.75454 0.0
C290 C 0.58444 0.31408 0.80291 0.0
C291 C 0.55865 0.34495 0.81744 0.0
C292 C 0.51044 0.3434 0.80046 0.0
C293 C 0.48957 0.31229 0.76906 0.0
C294 C 0.63599 0.31479 0.82022 0.0
C295 C 0.48114 0.37496 0.81525 0.0
H296 H 0.57228 0.36558 0.93947 0.0
H297 H 0.68413 0.5151 0.87762 0.0
H298 H 0.47584 0.28396 0.8722 0.0
H299 H 0.52945 0.26215 0.87466 0.0
H300 H 0.5031 0.27749 0.91446 0.0
H301 H 0.68687 0.51244 0.81608 0.0
H302 H 0.66227 0.44226 0.79662 0.0
H303 H 0.61435 0.47129 0.79881 0.0
H304 H 0.58186 0.2592 0.76037 0.0
H305 H 0.45356 0.31239 0.75565 0.0
H306 H 0.62509 0.29831 0.84755 0.0
H307 H 0.67254 0.35999 0.82165 0.0
H308 H 0.65058 0.28802 0.80585 0.0
H309 H 0.4672 0.36073 0.84266 0.0
H310 H 0.44264 0.36738 0.79958 0.0
H311 H 0.51215 0.42225 0.81592 0.0
C312 C 0.3355 0.39909 0.09922 0.0
C313 C 0.32612 0.38872 0.06303 0.0
C314 C 0.39063 0.4185 0.1137 0.0
C315 C 0.43644 0.4271 0.09131 0.0
C316 C 0.42478 0.40845 0.05587 0.0
C317 C 0.36961 0.38988 0.04206 0.0
C318 C 0.40079 0.43593 0.15184 0.0
C319 C 0.47205 0.41476 0.03128 0.0
C320 C 0.58115 0.5583 0.08462 0.0
C321 C 0.61595 0.5333 0.08976 0.0
C322 C 0.52168 0.52607 0.0909 0.0
C323 C 0.49722 0.46722 0.10136 0.0
C324 C 0.53367 0.44505 0.11167 0.0
C325 C 0.5933 0.47877 0.1057 0.0
C326 C 0.48439 0.55217 0.08094 0.0
C327 C 0.50947 0.38328 0.12403 0.0
H328 H 0.3015 0.39742 0.11564 0.0
H329 H 0.3617 0.38036 1.01425 0.0
H330 H 0.43728 0.43201 0.1631 0.0
H331 H 0.41148 0.48184 0.15419 0.0
H332 H 0.36125 0.40904 0.16762 0.0
H333 H 0.45429 0.39107 1.00624 0.0
H334 H 0.50089 0.46133 0.02501 0.0
H335 H 0.49885 0.39829 0.04381 0.0
H336 H 0.59931 0.60062 0.07221 0.0
H337 H 0.62085 0.45973 0.10949 0.0
H338 H 0.44919 0.54004 0.1003 0.0
H339 H 0.4641 0.53529 0.05492 0.0
H340 H 0.51006 0.60024 0.07923 0.0
H341 H 0.54112 0.37872 0.14101 0.0
H342 H 0.50029 0.35469 0.10091 0.0
H343 H 0.46846 0.368 0.13868 0.0
C344 C 0.00992 0.58291 0.38995 0.0
C345 C 0.06072 0.62223 0.4071 0.0
C346 C 0.98072 0.5246 0.39989 0.0
C347 C 0.00459 0.50547 0.42675 0.0
C348 C 0.05262 0.5463 0.44653 0.0
C349 C 0.08011 0.60483 0.43654 0.0
C350 C 0.92826 0.48269 0.37884 0.0
C351 C 0.0791 0.52789 0.47546 0.0
C352 C 0.90618 0.34598 0.43673 0.0
C353 C 0.92434 0.32731 0.40755 0.0
C354 C 0.93684 0.40419 0.44711 0.0
C355 C -0.01335 0.44318 0.42801 0.0
C356 C 0.01004 0.42185 0.40254 0.0
C357 C 0.97779 0.364 0.39209 0.0
C358 C 0.9113 0.42506 0.4749 0.0
C359 C 0.06456 0.46171 0.38259 0.0
H360 H -0.0048 0.59708 0.36729 0.0
H361 H 0.11988 0.63576 0.44959 0.0
H362 H 0.94039 0.45774 0.36081 0.0
H363 H 0.89364 0.45129 0.39641 0.0
H364 H 0.91048 0.50539 0.36281 0.0
H365 H 0.10174 0.56314 0.49498 0.0
H366 H 0.04611 0.48835 0.48917 0.0
H367 H 0.11156 0.51812 0.46394 0.0
H368 H 0.86465 0.31713 0.4487 0.0
H369 H -0.00821 0.34886 0.36977 0.0
H370 H 0.88317 0.43975 0.46211 0.0
H371 H 0.94555 0.46222 0.48972 0.0
H372 H 0.88432 0.3897 0.49362 0.0
H373 H 0.05474 0.48625 0.36261 0.0
H374 H 0.08241 0.43719 0.36885 0.0
H375 H 0.09819 0.49353 0.40052 0.0
C376 C 0.40941 0.01699 0.71829 0.0
C377 C 0.41591 0.0648 0.7372 0.0
C378 C 0.43221 0.98308 0.73111 0.0
C379 C 0.46306 -0.00175 0.76341 0.0
C380 C 0.46367 0.04227 0.7845 0.0
C381 C 0.43983 0.07525 0.77108 0.0
C382 C 0.42893 0.9353 0.70806 0.0
C383 C 0.49446 0.05874 0.81947 0.0
C384 C 0.51368 0.89091 0.77574 0.0
C385 C 0.56119 0.9159 0.75302 0.0
C386 C 0.48463 0.92114 0.7844 0.0
C387 C 0.50437 0.97706 0.76998 0.0
C388 C 0.55828 0.00568 0.75234 0.0
C389 C 0.5857 0.9742 0.74357 0.0
C390 C 0.42867 0.89009 0.80456 0.0
C391 C 0.58226 0.06627 0.73772 0.0
H392 H 0.38977 0.0084 0.69237 0.0
H393 H 0.44449 0.11217 0.78584 0.0
H394 H 0.47222 0.94904 0.69671 0.0
H395 H 0.41589 0.89534 0.72364 0.0
H396 H 0.39764 0.92467 0.68607 0.0
H397 H 0.4737 0.07594 0.83738 0.0
H398 H 0.49501 0.02142 0.83233 0.0
H399 H 0.53992 0.09349 0.81543 0.0
H400 H 0.49507 0.84565 0.78313 0.0
H401 H 0.6229 -0.00671 0.72622 0.0
H402 H 0.39213 0.86776 0.7858 0.0
H403 H 0.42111 0.92092 0.82014 0.0
H404 H 0.42848 0.85674 0.82241 0.0
H405 H 0.55707 0.06493 0.71405 0.0
H406 H 0.62845 0.08539 0.73008 0.0
H407 H 0.5785 0.09511 0.7572 0.0
C408 C 0.50683 0.62382 0.61161 0.0
C409 C 0.55316 0.64911 0.63553 0.0
C410 C 0.48013 0.56449 0.60398 0.0
C411 C 0.50061 0.53041 0.62064 0.0
C412 C 0.5521 0.55734 0.6409 0.0
C413 C 0.5779 0.61661 0.64806 0.0
C414 C 0.42648 0.53758 0.58127 0.0
C415 C 0.57625 0.52259 0.65841 0.0
C416 C 0.40293 0.3845 0.66053 0.0
C417 C 0.41754 0.34938 0.64069 0.0
C418 C 0.42561 0.44313 0.65211 0.0
C419 C 0.46336 0.46675 0.62303 0.0
C420 C 0.4725 0.43001 0.60047 0.0
C421 C 0.44946 0.37151 0.60961 0.0
C422 C 0.41389 0.48088 0.6765 0.0
C423 C 0.51104 0.45325 0.56865 0.0
H424 H 0.48804 0.64893 0.60121 0.0
H425 H 0.61468 0.63632 0.6658 0.0
H426 H 0.42354 0.5011 0.56559 0.0
H427 H 0.38764 0.52013 0.5983 0.0
H428 H 0.42546 0.57005 0.56318 0.0
H429 H 0.62026 0.55079 0.6694 0.0
H430 H 0.54725 0.49654 0.68019 0.0
H431 H 0.57833 0.49203 0.63952 0.0
H432 H 0.37738 0.36752 0.6842 0.0
H433 H 0.45989 0.34431 0.59359 0.0
H434 H 0.4021 0.50928 0.6613 0.0
H435 H 0.4537 0.50931 0.69173 0.0
H436 H 0.3785 0.45486 0.69533 0.0
H437 H 0.50683 0.48857 0.55576 0.0
H438 H 0.50095 0.41848 0.54915 0.0
H439 H 0.55685 0.47133 0.57692 0.0
C440 C 0.0811 0.48242 0.95291 0.0
C441 C 0.06709 0.44583 0.9824 0.0
C442 C 0.05042 0.5113 0.94514 0.0
C443 C 0.00448 0.50292 0.96724 0.0
C444 C -0.01228 0.46325 0.99572 0.0
C445 C 0.01943 0.43525 1.00302 0.0
C446 C 0.06975 0.55352 0.91474 0.0
C447 C 0.93815 0.45263 1.01963 0.0
C448 C 0.95791 0.61078 0.98899 0.0
C449 C 0.90237 0.58337 0.97409 0.0
C450 C -0.00466 0.58878 0.98354 0.0
C451 C 0.97628 0.53845 0.9628 0.0
C452 C 0.92419 0.51638 0.94341 0.0
C453 C 0.88783 0.53963 0.94905 0.0
C454 C 0.05184 0.61486 1.00358 0.0
C455 C 0.90316 0.46352 0.92041 0.0
H456 H 0.11786 0.49086 0.93668 0.0
H457 H 0.00817 0.40681 0.02567 0.0
H458 H 0.03216 0.55072 0.90025 0.0
H459 H 0.09541 0.59836 0.92497 0.0
H460 H 0.09727 0.54596 0.89605 0.0
H461 H 0.92783 0.4171 0.03878 0.0
H462 H 0.94938 0.49272 0.03451 0.0
H463 H 0.89872 0.44144 1.00395 0.0
H464 H 0.97 0.64578 1.00759 0.0
H465 H 0.84543 0.51902 0.93676 0.0
H466 H 0.08691 0.6167 0.98702 0.0
H467 H 0.04694 0.58725 0.02676 0.0
H468 H 0.06509 0.65927 1.01303 0.0
H469 H 0.93932 0.46462 0.9054 0.0
H470 H 0.86924 0.45962 0.90166 0.0
H471 H 0.88434 0.42412 0.93723 0.0
C472 C 0.35017 0.91042 0.28337 0.0
C473 C 0.32542 0.92031 0.31316 0.0
C474 C 0.40934 0.94474 0.27665 0.0
C475 C 0.44367 -0.00966 0.29994 0.0
C476 C 0.41745 0.00539 0.32711 0.0
C477 C 0.35833 0.96983 0.33354 0.0
C478 C 0.43584 0.92777 0.24726 0.0
C479 C 0.45276 0.05515 0.35178 0.0
C480 C 0.59187 0.02115 0.32821 0.0
C481 C 0.62684 0.07445 0.31164 0.0
C482 C 0.53204 -0.00887 0.32259 0.0
C483 C 0.50704 0.01549 0.30011 0.0
C484 C 0.54253 0.06672 0.28109 0.0
C485 C 0.60229 0.09551 0.28692 0.0
C486 C 0.49527 0.93559 0.34274 0.0
C487 C 0.51728 0.09393 0.257 0.0
H488 H 0.32475 0.87268 0.26709 0.0
H489 H 0.33911 0.97833 0.35618 0.0
H490 H 0.47072 0.96654 0.23395 0.0
H491 H 0.45545 0.90269 0.25834 0.0
H492 H 0.40293 0.90032 0.22741 0.0
H493 H 0.42506 0.06706 0.36742 0.0
H494 H 0.47714 0.0426 0.37025 0.0
H495 H 0.48477 0.09391 0.33701 0.0
H496 H 0.61071 0.00433 0.34697 0.0
H497 H 0.62906 0.13661 0.2738 0.0
H498 H 0.46377 0.90141 0.32495 0.0
H499 H 0.47018 0.94323 0.36317 0.0
H500 H 0.5218 0.9192 0.35587 0.0
H501 H 0.48089 0.0606 0.24123 0.0
H502 H 0.55037 0.12605 0.23887 0.0
H503 H 0.49994 0.11664 0.27305 0.0
C504 C 0.24584 0.23951 0.80156 0.0
C505 C 0.2913 0.22729 0.80359 0.0
C506 C 0.22407 0.25142 0.83205 0.0
C507 C 0.24797 0.2503 0.86522 0.0
C508 C 0.29336 0.23711 0.86733 0.0
C509 C 0.31472 0.22614 0.83645 0.0
C510 C 0.17642 0.26645 0.82873 0.0
C511 C 0.32007 0.23554 0.90216 0.0
C512 C 0.23662 0.33885 0.9393 0.0
C513 C 0.18926 0.29709 0.95822 0.0
C514 C 0.25593 0.32435 0.90888 0.0
C515 C 0.22774 0.266 0.89753 0.0
C516 C 0.18105 0.22295 0.91734 0.0
C517 C 0.16235 0.23907 0.9476 0.0
C518 C 0.30608 0.37168 0.88874 0.0
C519 C 0.15071 0.1601 0.90641 0.0
H520 H 0.22792 0.24063 0.77611 0.0
H521 H 0.35001 0.21677 0.83805 0.0
H522 H 0.13906 0.23692 0.84534 0.0
H523 H 0.19216 0.31123 0.83834 0.0
H524 H 0.1612 0.26355 0.8012 0.0
H525 H 0.35313 0.22182 0.89939 0.0
H526 H 0.34094 0.27915 0.91438 0.0
H527 H 0.28598 0.20528 0.92045 0.0
H528 H 0.25955 0.38275 0.94878 0.0
H529 H 0.12609 0.20655 0.96257 0.0
H530 H 0.2909 0.37691 0.86248 0.0
H531 H 0.3402 0.35991 0.88448 0.0
H532 H 0.32574 0.41406 0.90249 0.0
H533 H 0.1315 0.15551 0.87987 0.0
H534 H 0.11584 0.13183 0.92497 0.0
H535 H 0.1824 0.14451 0.90478 0.0
C536 C 0.90144 0.14698 0.27577 0.0
C537 C 0.88915 0.18586 0.29317 0.0
C538 C 0.93191 0.16266 0.24385 0.0
C539 C 0.95067 0.21858 0.22954 0.0
C540 C 0.93963 0.2584 0.24775 0.0
C541 C 0.90932 0.24153 0.27949 0.0
C542 C 0.9432 0.11925 0.22517 0.0
C543 C 0.95958 0.31874 0.2337 0.0
C544 C 0.07516 0.28516 0.16524 0.0
C545 C 0.04629 0.27878 0.13327 0.0
C546 C 0.04443 0.26434 0.19665 0.0
C547 C 0.98327 0.23645 0.19602 0.0
C548 C 0.95373 0.22897 0.16367 0.0
C549 C 0.98573 0.25023 0.13254 0.0
C550 C 0.07752 0.27372 0.23061 0.0
C551 C 0.88852 0.19993 0.16215 0.0
H552 H 0.88574 0.10387 0.28655 0.0
H553 H 0.90157 0.27216 0.29368 0.0
H554 H 0.92287 0.11013 0.19873 0.0
H555 H -0.00959 0.13746 0.22134 0.0
H556 H 0.926 0.07773 0.23988 0.0
H557 H 0.9457 0.34366 0.25057 0.0
H558 H 0.0075 0.34306 0.23175 0.0
H559 H 0.94212 0.31635 0.20685 0.0
H560 H 0.12209 0.30734 0.16585 0.0
H561 H 0.96347 0.2455 0.10779 0.0
H562 H 0.06188 0.23191 0.24469 0.0
H563 H 0.06996 0.30268 0.24803 0.0
H564 H 0.12488 0.29345 0.2263 0.0
H565 H 0.86903 0.1563 0.17444 0.0
H566 H 0.87206 0.19532 0.1348 0.0
H567 H 0.87358 0.22561 0.17732 0.0
C568 C 0.71074 0.87083 0.60283 0.0
C569 C 0.68247 0.88619 0.62788 0.0
C570 C 0.72418 0.8976 0.56961 0.0
C571 C 0.71049 0.94176 0.56197 0.0
C572 C 0.68276 0.95792 0.58757 0.0
C573 C 0.66837 0.92932 0.62005 0.0
C574 C 0.75201 0.87802 0.5425 0.0
C575 C 0.66854 0.00564 0.58077 0.0
C576 C 0.7938 0.05326 0.49145 0.0
C577 C 0.75219 0.03671 0.46477 0.0
C578 C 0.78114 0.02199 0.52303 0.0
C579 C 0.72606 0.97218 0.52754 0.0
C580 C 0.68467 0.95401 0.50002 0.0
C581 C 0.69799 0.9871 0.46908 0.0
C582 C 0.82577 0.04377 0.55212 0.0
C583 C 0.62574 0.90076 0.50361 0.0
H584 H 0.72078 0.83681 0.60884 0.0
H585 H 0.64638 0.94105 0.63953 0.0
H586 H 0.72459 0.86329 0.51852 0.0
H587 H 0.79464 0.91481 0.53471 0.0
H588 H 0.75843 0.84208 0.55226 0.0
H589 H 0.6495 0.01478 0.60412 0.0
H590 H 0.70824 0.04614 0.57304 0.0
H591 H 0.63735 -0.00657 0.55868 0.0
H592 H 0.83561 0.09197 0.48817 0.0
H593 H 0.66586 0.97436 0.44836 0.0
H594 H 0.83476 0.00905 0.56077 0.0
H595 H 0.8087 0.05591 0.57517 0.0
H596 H 0.86717 0.08213 0.54397 0.0
H597 H 0.62952 0.86398 0.51463 0.0
H598 H 0.60256 0.88738 0.47805 0.0
H599 H 0.59908 0.90992 0.522 0.0
C600 C 0.7002 0.79393 0.83517 0.0
C601 C 0.68419 0.75589 0.80665 0.0
C602 C 0.71553 0.77969 0.86758 0.0
C603 C 0.71678 0.72714 0.87106 0.0
C604 C 0.70221 0.68942 0.8419 0.0
C605 C 0.68498 0.70377 0.81023 0.0
C606 C 0.72867 0.82 0.89838 0.0
C607 C 0.70408 0.63356 0.84418 0.0
C608 C 0.80475 0.71569 0.94673 0.0
C609 C 0.7611 0.67929 0.97003 0.0
C610 C 0.79093 0.73105 0.91418 0.0
C611 C 0.73217 0.71103 0.90539 0.0
C612 C 0.68801 0.67514 0.92927 0.0
C613 C 0.70301 0.65889 0.96108 0.0
C614 C 0.83906 0.76756 0.88888 0.0
C615 C 0.62495 0.65408 0.92133 0.0
H616 H 0.69876 0.83388 0.83249 0.0
H617 H 0.6724 0.67429 0.78814 0.0
H618 H 0.69814 0.79661 0.92012 0.0
H619 H 0.77298 0.83451 0.90842 0.0
H620 H 0.72523 0.85888 0.89142 0.0
H621 H 0.69995 0.61374 0.81795 0.0
H622 H 0.74516 0.64114 0.85652 0.0
H623 H 0.66805 0.60199 0.86088 0.0
H624 H 0.84964 0.73084 0.95354 0.0
H625 H 0.66927 0.63073 0.97919 0.0
H626 H 0.8389 0.8084 0.88287 0.0
H627 H 0.83198 0.74393 0.86374 0.0
H628 H 0.88237 0.7786 0.8994 0.0
H629 H 0.61862 0.69136 0.91475 0.0
H630 H 0.59637 0.62997 0.94374 0.0
H631 H 0.61104 0.62511 0.89814 0.0
C632 C 0.01481 0.76086 0.30508 0.0
C633 C 0.07244 0.77354 0.30263 0.0
C634 C 0.97904 0.74466 0.27516 0.0
C635 C 0.00162 0.74094 0.24225 0.0
C636 C 0.06007 0.75442 0.23968 0.0
C637 C 0.09483 0.77096 0.26988 0.0
C638 C 0.91687 0.73044 0.27885 0.0
C639 C 0.08559 0.75013 0.20521 0.0
C640 C 0.90034 0.64127 0.17197 0.0
C641 C 0.8963 0.68061 0.14905 0.0
C642 C 0.93369 0.6603 0.20271 0.0
C643 C 0.96361 0.72017 0.21072 0.0
C644 C 0.95914 0.7601 0.18786 0.0
C645 C 0.92538 0.73976 0.15719 0.0
C646 C 0.93759 0.61645 0.22637 0.0
C647 C -0.00905 0.82431 0.19547 0.0
H648 H -0.00245 0.76303 0.33041 0.0
H649 H 0.13961 0.7814 0.26784 0.0
H650 H 0.90743 0.75702 0.26024 0.0
H651 H 0.88751 0.68427 0.27207 0.0
H652 H 0.90678 0.73813 0.30591 0.0
H653 H 0.13245 0.76438 0.20747 0.0
H654 H 0.06257 0.70461 0.19584 0.0
H655 H 0.0798 0.77699 0.18492 0.0
H656 H 0.87785 0.59547 0.16568 0.0
H657 H 0.92229 0.77016 0.13941 0.0
H658 H 0.91249 0.57161 0.2161 0.0
H659 H 0.92116 0.61765 0.2529 0.0
H660 H 0.98341 0.62734 0.22944 0.0
H661 H 0.9793 0.83248 0.22194 0.0
H662 H 0.98115 0.84936 0.17581 0.0
H663 H 0.03832 0.84082 0.19553 0.0
C664 C 0.26164 0.02616 0.63459 0.0
C665 C 0.29908 0.08591 0.6315 0.0
C666 C 0.24467 -0.00946 0.6047 0.0
C667 C 0.26476 0.01583 0.57115 0.0
C668 C 0.30189 0.0764 0.56802 0.0
C669 C 0.31898 0.11059 0.59829 0.0
C670 C 0.20622 0.92589 0.609 0.0
C671 C 0.32408 0.1051 0.53275 0.0
C672 C 0.27012 0.92607 0.49575 0.0
C673 C 0.21965 0.91345 0.47712 0.0
C674 C 0.2848 0.95852 0.52679 0.0
C675 C 0.24824 0.97911 0.53924 0.0
C676 C 0.19743 0.9669 0.52031 0.0
C677 C 0.18355 0.93386 0.48946 0.0
C678 C 0.33935 0.97072 0.54625 0.0
C679 C 0.15836 0.98959 0.53234 0.0
H680 H 0.24669 0.00721 0.66038 0.0
H681 H 0.34786 0.15697 0.59592 0.0
H682 H 0.16611 0.91073 0.59323 0.0
H683 H 0.22877 0.90315 0.59899 0.0
H684 H 0.19409 0.91311 0.63684 0.0
H685 H 0.34984 0.15311 0.53474 0.0
H686 H 0.35179 0.08932 0.52097 0.0
H687 H 0.28731 0.0935 0.51447 0.0
H688 H 0.29827 0.91063 0.486 0.0
H689 H 0.14464 0.92423 0.47493 0.0
H690 H 0.3279 0.94975 0.5725 0.0
H691 H 0.3673 0.01795 0.55056 0.0
H692 H 0.36488 0.95464 0.53194 0.0
H693 H 0.14288 0.97421 0.55939 0.0
H694 H 0.12018 0.97571 0.51485 0.0
H695 H 0.18298 0.0377 0.53309 0.0
loop_
_geom_bond_atom_site_label_1
_geom_bond_atom_site_label_2
_geom_bond_distance
_geom_bond_site_symmetry_2
_ccdc_geom_bond_type
Tb0 O3 2.453 1_554 S
Tb0 O4 2.596 1_554 S
Tb0 O5 2.374 . S
Tb0 O13 2.343 . S
Tb0 O15 2.353 1_554 S
Tb0 O17 2.427 . S
Tb0 O18 2.513 . S
C1 O5 1.251 . S
C1 O7 1.263 . S
Tb2 O4 2.343 . S
Tb2 O7 2.353 1_556 S
Tb2 O10 2.427 . S
Tb2 O11 2.513 . S
Tb2 O12 2.453 1_556 S
Tb2 O13 2.596 1_556 S
Tb2 O14 2.374 . S
O3 Tb0 2.453 1_556 S
O3 C19 1.245 . S
O4 Tb0 2.596 1_556 S
O4 Tb2 2.343 . S
O4 C19 1.259 . S
O5 Tb0 2.374 . S
O5 C1 1.251 . S
C6 O10 1.275 . S
C6 O11 1.246 . S
O7 C1 1.263 . S
O7 Tb2 2.353 1_554 S
C8 O12 1.245 . S
C8 O13 1.259 . S
C9 O14 1.250 . S
C9 O15 1.263 . S
O10 Tb2 2.427 . S
O10 C6 1.275 . S
O11 Tb2 2.513 . S
O11 C6 1.246 . S
O12 Tb2 2.453 1_554 S
O12 C8 1.245 . S
O13 Tb0 2.343 . S
O13 Tb2 2.596 1_554 S
O13 C8 1.259 . S
O14 Tb2 2.374 . S
O14 C9 1.250 . S
O15 Tb0 2.353 1_556 S
O15 C9 1.263 . S
C16 O17 1.275 . S
C16 O18 1.246 . S
O17 Tb0 2.427 . S
O17 C16 1.275 . S
O18 Tb0 2.513 . S
O18 C16 1.246 . S
C19 O3 1.245 . S
C19 O4 1.259 . S
Tb20 O23 2.453 . S
Tb20 O24 2.596 . S
Tb20 O25 2.374 . S
Tb20 O33 2.343 . S
Tb20 O35 2.353 . S
Tb20 O37 2.427 . S
Tb20 O38 2.513 . S
C21 O25 1.251 . S
C21 O27 1.263 . S
Tb22 O24 2.343 . S
Tb22 O27 2.353 . S
Tb22 O30 2.427 . S
Tb22 O31 2.513 . S
Tb22 O32 2.453 . S
Tb22 O33 2.596 . S
Tb22 O34 2.374 . S
O23 Tb20 2.453 . S
O23 C39 1.245 . S
O24 Tb20 2.596 . S
O24 Tb22 2.343 . S
O24 C39 1.259 . S
O25 Tb20 2.374 . S
O25 C21 1.251 . S
C26 O30 1.275 . S
C26 O31 1.246 . S
O27 C21 1.263 . S
O27 Tb22 2.353 . S
C28 O32 1.245 . S
C28 O33 1.259 . S
C29 O34 1.250 . S
C29 O35 1.263 . S
O30 Tb22 2.427 . S
O30 C26 1.275 . S
O31 Tb22 2.513 . S
O31 C26 1.246 . S
O32 Tb22 2.453 . S
O32 C28 1.245 . S
O33 Tb20 2.343 . S
O33 Tb22 2.596 . S
O33 C28 1.259 . S
O34 Tb22 2.374 . S
O34 C29 1.250 . S
O35 Tb20 2.353 . S
O35 C29 1.263 . S
C36 O37 1.275 . S
C36 O38 1.246 . S
O37 Tb20 2.427 . S
O37 C36 1.275 . S
O38 Tb20 2.513 . S
O38 C36 1.246 . S
C39 O23 1.245 . S
C39 O24 1.259 . S
Tb40 O43 2.453 . S
Tb40 O44 2.596 . S
Tb40 O45 2.374 . S
Tb40 O53 2.343 . S
Tb40 O55 2.353 . S
Tb40 O57 2.427 . S
Tb40 O58 2.513 . S
C41 O45 1.251 . S
C41 O47 1.263 . S
Tb42 O44 2.343 . S
Tb42 O47 2.353 . S
Tb42 O50 2.427 . S
Tb42 O51 2.513 . S
Tb42 O52 2.453 . S
Tb42 O53 2.596 . S
Tb42 O54 2.374 . S
O43 Tb40 2.453 . S
O43 C59 1.245 . S
O44 Tb40 2.596 . S
O44 Tb42 2.343 . S
O44 C59 1.259 . S
O45 Tb40 2.374 . S
O45 C41 1.251 . S
C46 O50 1.275 . S
C46 O51 1.246 . S
O47 C41 1.263 . S
O47 Tb42 2.353 . S
C48 O52 1.245 . S
C48 O53 1.259 . S
C49 O54 1.250 . S
C49 O55 1.263 . S
O50 Tb42 2.427 . S
O50 C46 1.275 . S
O51 Tb42 2.513 . S
O51 C46 1.246 . S
O52 Tb42 2.453 . S
O52 C48 1.245 . S
O53 Tb40 2.343 . S
O53 Tb42 2.596 . S
O53 C48 1.259 . S
O54 Tb42 2.374 . S
O54 C49 1.250 . S
O55 Tb40 2.353 . S
O55 C49 1.263 . S
C56 O57 1.275 . S
C56 O58 1.246 . S
O57 Tb40 2.427 . S
O57 C56 1.275 . S
O58 Tb40 2.513 . S
O58 C56 1.246 . S
C59 O43 1.245 . S
C59 O44 1.259 . S
Tb60 O63 2.453 1_554 S
Tb60 O64 2.596 1_554 S
Tb60 O65 2.374 . S
Tb60 O73 2.343 . S
Tb60 O75 2.353 1_554 S
Tb60 O77 2.427 . S
Tb60 O78 2.513 . S
C61 O65 1.251 . S
C61 O67 1.263 . S
Tb62 O64 2.343 . S
Tb62 O67 2.353 1_556 S
Tb62 O70 2.427 . S
Tb62 O71 2.513 . S
Tb62 O72 2.453 1_556 S
Tb62 O73 2.596 1_556 S
Tb62 O74 2.374 . S
O63 Tb60 2.453 1_556 S
O63 C79 1.245 . S
O64 Tb60 2.596 1_556 S
O64 Tb62 2.343 . S
O64 C79 1.259 . S
O65 Tb60 2.374 . S
O65 C61 1.251 . S
C66 O70 1.275 . S
C66 O71 1.246 . S
O67 C61 1.263 . S
O67 Tb62 2.353 1_554 S
C68 O72 1.245 . S
C68 O73 1.259 . S
C69 O74 1.250 . S
C69 O75 1.263 . S
O70 Tb62 2.427 . S
O70 C66 1.275 . S
O71 Tb62 2.513 . S
O71 C66 1.246 . S
O72 Tb62 2.453 1_554 S
O72 C68 1.245 . S
O73 Tb60 2.343 . S
O73 Tb62 2.596 1_554 S
O73 C68 1.259 . S
O74 Tb62 2.374 . S
O74 C69 1.250 . S
O75 Tb60 2.353 1_556 S
O75 C69 1.263 . S
C76 O77 1.275 . S
C76 O78 1.246 . S
O77 Tb60 2.427 . S
O77 C76 1.275 . S
O78 Tb60 2.513 . S
O78 C76 1.246 . S
C79 O63 1.245 . S
C79 O64 1.259 . S
Tb80 O83 2.453 . S
Tb80 O84 2.596 . S
Tb80 O85 2.374 . S
Tb80 O93 2.343 . S
Tb80 O95 2.353 . S
Tb80 O97 2.427 . S
Tb80 O98 2.513 . S
C81 O85 1.251 . S
C81 O87 1.263 . S
Tb82 O84 2.343 . S
Tb82 O87 2.353 . S
Tb82 O90 2.427 . S
Tb82 O91 2.513 . S
Tb82 O92 2.453 . S
Tb82 O93 2.596 . S
Tb82 O94 2.374 . S
O83 Tb80 2.453 . S
O83 C99 1.245 . S
O84 Tb80 2.596 . S
O84 Tb82 2.343 . S
O84 C99 1.259 . S
O85 Tb80 2.374 . S
O85 C81 1.251 . S
C86 O90 1.275 . S
C86 O91 1.246 . S
O87 C81 1.263 . S
O87 Tb82 2.353 . S
C88 O92 1.245 . S
C88 O93 1.259 . S
C89 O94 1.250 . S
C89 O95 1.263 . S
O90 Tb82 2.427 . S
O90 C86 1.275 . S
O91 Tb82 2.513 . S
O91 C86 1.246 . S
O92 Tb82 2.453 . S
O92 C88 1.245 . S
O93 Tb80 2.343 . S
O93 Tb82 2.596 . S
O93 C88 1.259 . S
O94 Tb82 2.374 . S
O94 C89 1.250 . S
O95 Tb80 2.353 . S
O95 C89 1.263 . S
C96 O97 1.275 . S
C96 O98 1.246 . S
O97 Tb80 2.427 . S
O97 C96 1.275 . S
O98 Tb80 2.513 . S
O98 C96 1.246 . S
C99 O83 1.245 . S
C99 O84 1.259 . S
Tb100 O103 2.453 . S
Tb100 O104 2.596 . S
Tb100 O105 2.374 . S
Tb100 O113 2.343 . S
Tb100 O115 2.353 . S
Tb100 O117 2.427 . S
Tb100 O118 2.513 . S
C101 O105 1.251 . S
C101 O107 1.263 . S
Tb102 O104 2.343 . S
Tb102 O107 2.353 . S
Tb102 O110 2.427 . S
Tb102 O111 2.513 . S
Tb102 O112 2.453 . S
Tb102 O113 2.596 . S
Tb102 O114 2.374 . S
O103 Tb100 2.453 . S
O103 C119 1.245 . S
O104 Tb100 2.596 . S
O104 Tb102 2.343 . S
O104 C119 1.259 . S
O105 Tb100 2.374 . S
O105 C101 1.251 . S
C106 O110 1.275 . S
C106 O111 1.246 . S
O107 C101 1.263 . S
O107 Tb102 2.353 . S
C108 O112 1.245 . S
C108 O113 1.259 . S
C109 O114 1.250 . S
C109 O115 1.263 . S
O110 Tb102 2.427 . S
O110 C106 1.275 . S
O111 Tb102 2.513 . S
O111 C106 1.246 . S
O112 Tb102 2.453 . S
O112 C108 1.245 . S
O113 Tb100 2.343 . S
O113 Tb102 2.596 . S
O113 C108 1.259 . S
O114 Tb102 2.374 . S
O114 C109 1.250 . S
O115 Tb100 2.353 . S
O115 C109 1.263 . S
C116 O117 1.275 . S
C116 O118 1.246 . S
O117 Tb100 2.427 . S
O117 C116 1.275 . S
O118 Tb100 2.513 . S
O118 C116 1.246 . S
C119 O103 1.245 . S
C119 O104 1.259 . S
C120 C121 1.391 . S
C120 C122 1.394 . S
C120 H136 0.931 . S
C121 C120 1.391 . S
C121 C125 1.376 . S
C122 C120 1.394 . S
C122 C123 1.369 . S
C122 C126 1.531 . S
C123 C122 1.369 . S
C123 C124 1.410 . S
C123 C131 1.503 . S
C124 C123 1.410 . S
C124 C125 1.392 . S
C124 C127 1.511 . S
C125 C121 1.376 . S
C125 C124 1.392 . S
C125 H137 0.929 . S
C126 C122 1.531 . S
C126 H138 0.960 . S
C126 H139 0.962 . S
C126 H140 0.960 . S
C127 C124 1.511 . S
C127 H141 0.961 . S
C127 H142 0.961 . S
C127 H143 0.961 . S
C128 C129 1.370 . S
C128 C130 1.363 . S
C128 H144 0.931 . S
C129 C128 1.370 . S
C129 C133 1.408 . S
C130 C128 1.363 . S
C130 C131 1.370 . S
C130 C134 1.524 . S
C131 C123 1.503 . S
C131 C130 1.370 . S
C131 C132 1.403 . S
C132 C131 1.403 . S
C132 C133 1.404 . S
C132 C135 1.539 . S
C133 C129 1.408 . S
C133 C132 1.404 . S
C133 H145 0.930 . S
C134 C130 1.524 . S
C134 H146 0.956 . S
C134 H147 0.961 . S
C134 H148 0.961 . S
C135 C132 1.539 . S
C135 H149 0.958 . S
C135 H150 0.961 . S
C135 H151 0.960 . S
H136 C120 0.931 . S
H137 C125 0.929 . S
H138 C126 0.960 . S
H139 C126 0.962 . S
H140 C126 0.960 . S
H141 C127 0.961 . S
H142 C127 0.961 . S
H143 C127 0.961 . S
H144 C128 0.931 . S
H145 C133 0.930 . S
H146 C134 0.956 . S
H147 C134 0.961 . S
H148 C134 0.961 . S
H149 C135 0.958 . S
H150 C135 0.961 . S
H151 C135 0.960 . S
C152 C153 1.391 . S
C152 C154 1.394 . S
C152 H168 0.931 . S
C153 C152 1.391 . S
C153 C157 1.376 . S
C154 C152 1.394 . S
C154 C155 1.369 . S
C154 C158 1.531 . S
C155 C154 1.369 . S
C155 C156 1.410 . S
C155 C163 1.503 . S
C156 C155 1.410 . S
C156 C157 1.392 . S
C156 C159 1.511 . S
C157 C153 1.376 . S
C157 C156 1.392 . S
C157 H169 0.929 . S
C158 C154 1.531 . S
C158 H170 0.960 . S
C158 H171 0.962 . S
C158 H172 0.960 . S
C159 C156 1.511 . S
C159 H173 0.961 . S
C159 H174 0.961 . S
C159 H175 0.961 . S
C160 C161 1.370 . S
C160 C162 1.363 . S
C160 H176 0.931 . S
C161 C160 1.370 . S
C161 C165 1.408 . S
C162 C160 1.363 . S
C162 C163 1.370 . S
C162 C166 1.524 . S
C163 C155 1.503 . S
C163 C162 1.370 . S
C163 C164 1.403 . S
C164 C163 1.403 . S
C164 C165 1.404 . S
C164 C167 1.539 . S
C165 C161 1.408 . S
C165 C164 1.404 . S
C165 H177 0.930 . S
C166 C162 1.524 . S
C166 H178 0.956 . S
C166 H179 0.961 . S
C166 H180 0.961 . S
C167 C164 1.539 . S
C167 H181 0.958 . S
C167 H182 0.961 . S
C167 H183 0.960 . S
H168 C152 0.931 . S
H169 C157 0.929 . S
H170 C158 0.960 . S
H171 C158 0.962 . S
H172 C158 0.960 . S
H173 C159 0.961 . S
H174 C159 0.961 . S
H175 C159 0.961 . S
H176 C160 0.931 . S
H177 C165 0.930 . S
H178 C166 0.956 . S
H179 C166 0.961 . S
H180 C166 0.961 . S
H181 C167 0.958 . S
H182 C167 0.961 . S
H183 C167 0.960 . S
C184 C185 1.391 . S
C184 C186 1.394 . S
C184 H200 0.931 . S
C185 C184 1.391 . S
C185 C189 1.376 . S
C186 C184 1.394 . S
C186 C187 1.369 . S
C186 C190 1.531 . S
C187 C186 1.369 . S
C187 C188 1.410 . S
C187 C195 1.503 . S
C188 C187 1.410 . S
C188 C189 1.392 . S
C188 C191 1.511 . S
C189 C185 1.376 . S
C189 C188 1.392 . S
C189 H201 0.929 . S
C190 C186 1.531 . S
C190 H202 0.960 . S
C190 H203 0.962 . S
C190 H204 0.960 . S
C191 C188 1.511 . S
C191 H205 0.961 . S
C191 H206 0.961 . S
C191 H207 0.961 . S
C192 C193 1.370 . S
C192 C194 1.363 . S
C192 H208 0.931 . S
C193 C192 1.370 . S
C193 C197 1.408 . S
C194 C192 1.363 . S
C194 C195 1.370 . S
C194 C198 1.524 . S
C195 C187 1.503 . S
C195 C194 1.370 . S
C195 C196 1.403 . S
C196 C195 1.403 . S
C196 C197 1.404 . S
C196 C199 1.539 . S
C197 C193 1.408 . S
C197 C196 1.404 . S
C197 H209 0.930 . S
C198 C194 1.524 . S
C198 H210 0.956 . S
C198 H211 0.961 . S
C198 H212 0.961 . S
C199 C196 1.539 . S
C199 H213 0.958 . S
C199 H214 0.961 . S
C199 H215 0.960 . S
H200 C184 0.931 . S
H201 C189 0.929 . S
H202 C190 0.960 . S
H203 C190 0.962 . S
H204 C190 0.960 . S
H205 C191 0.961 . S
H206 C191 0.961 . S
H207 C191 0.961 . S
H208 C192 0.931 . S
H209 C197 0.930 . S
H210 C198 0.956 . S
H211 C198 0.961 . S
H212 C198 0.961 . S
H213 C199 0.958 . S
H214 C199 0.961 . S
H215 C199 0.960 . S
C216 C217 1.391 . S
C216 C218 1.394 . S
C216 H232 0.931 . S
C217 C216 1.391 . S
C217 C221 1.376 . S
C218 C216 1.394 . S
C218 C219 1.369 . S
C218 C222 1.531 . S
C219 C218 1.369 . S
C219 C220 1.410 . S
C219 C227 1.503 . S
C220 C219 1.410 . S
C220 C221 1.392 . S
C220 C223 1.511 . S
C221 C217 1.376 . S
C221 C220 1.392 . S
C221 H233 0.929 . S
C222 C218 1.531 . S
C222 H234 0.960 . S
C222 H235 0.962 . S
C222 H236 0.960 . S
C223 C220 1.511 . S
C223 H237 0.961 . S
C223 H238 0.961 . S
C223 H239 0.961 . S
C224 C225 1.370 . S
C224 C226 1.363 . S
C224 H240 0.931 . S
C225 C224 1.370 . S
C225 C229 1.408 . S
C226 C224 1.363 . S
C226 C227 1.370 . S
C226 C230 1.524 . S
C227 C219 1.503 . S
C227 C226 1.370 . S
C227 C228 1.403 . S
C228 C227 1.403 . S
C228 C229 1.404 . S
C228 C231 1.539 . S
C229 C225 1.408 . S
C229 C228 1.404 . S
C229 H241 0.930 . S
C230 C226 1.524 . S
C230 H242 0.956 . S
C230 H243 0.961 . S
C230 H244 0.961 . S
C231 C228 1.539 . S
C231 H245 0.958 . S
C231 H246 0.961 . S
C231 H247 0.960 . S
H232 C216 0.931 . S
H233 C221 0.929 . S
H234 C222 0.960 . S
H235 C222 0.962 . S
H236 C222 0.960 . S
H237 C223 0.961 . S
H238 C223 0.961 . S
H239 C223 0.961 . S
H240 C224 0.931 . S
H241 C229 0.930 . S
H242 C230 0.956 . S
H243 C230 0.961 . S
H244 C230 0.961 . S
H245 C231 0.958 . S
H246 C231 0.961 . S
H247 C231 0.960 . S
C248 C249 1.391 . S
C248 C250 1.394 . S
C248 H264 0.931 . S
C249 C248 1.391 . S
C249 C253 1.376 . S
C250 C248 1.394 . S
C250 C251 1.369 . S
C250 C254 1.531 . S
C251 C250 1.369 . S
C251 C252 1.410 . S
C251 C259 1.503 . S
C252 C251 1.410 . S
C252 C253 1.392 . S
C252 C255 1.511 . S
C253 C249 1.376 . S
C253 C252 1.392 . S
C253 H265 0.929 . S
C254 C250 1.531 . S
C254 H266 0.960 . S
C254 H267 0.962 . S
C254 H268 0.960 . S
C255 C252 1.511 . S
C255 H269 0.961 . S
C255 H270 0.961 . S
C255 H271 0.961 . S
C256 C257 1.370 . S
C256 C258 1.363 . S
C256 H272 0.931 . S
C257 C256 1.370 . S
C257 C261 1.408 . S
C258 C256 1.363 . S
C258 C259 1.370 . S
C258 C262 1.524 . S
C259 C251 1.503 . S
C259 C258 1.370 . S
C259 C260 1.403 . S
C260 C259 1.403 . S
C260 C261 1.404 . S
C260 C263 1.539 . S
C261 C257 1.408 . S
C261 C260 1.404 . S
C261 H273 0.930 . S
C262 C258 1.524 . S
C262 H274 0.956 . S
C262 H275 0.961 . S
C262 H276 0.961 . S
C263 C260 1.539 . S
C263 H277 0.958 . S
C263 H278 0.961 . S
C263 H279 0.960 . S
H264 C248 0.931 . S
H265 C253 0.929 . S
H266 C254 0.960 . S
H267 C254 0.962 . S
H268 C254 0.960 . S
H269 C255 0.961 . S
H270 C255 0.961 . S
H271 C255 0.961 . S
H272 C256 0.931 . S
H273 C261 0.930 . S
H274 C262 0.956 . S
H275 C262 0.961 . S
H276 C262 0.961 . S
H277 C263 0.958 . S
H278 C263 0.961 . S
H279 C263 0.960 . S
C280 C281 1.391 . S
C280 C282 1.394 . S
C280 H296 0.931 . S
C281 C280 1.391 . S
C281 C285 1.376 . S
C282 C280 1.394 . S
C282 C283 1.369 . S
C282 C286 1.531 . S
C283 C282 1.369 . S
C283 C284 1.410 . S
C283 C291 1.503 . S
C284 C283 1.410 . S
C284 C285 1.392 . S
C284 C287 1.511 . S
C285 C281 1.376 . S
C285 C284 1.392 . S
C285 H297 0.929 . S
C286 C282 1.531 . S
C286 H298 0.960 . S
C286 H299 0.962 . S
C286 H300 0.960 . S
C287 C284 1.511 . S
C287 H301 0.961 . S
C287 H302 0.961 . S
C287 H303 0.961 . S
C288 C289 1.370 . S
C288 C290 1.363 . S
C288 H304 0.931 . S
C289 C288 1.370 . S
C289 C293 1.408 . S
C290 C288 1.363 . S
C290 C291 1.370 . S
C290 C294 1.524 . S
C291 C283 1.503 . S
C291 C290 1.370 . S
C291 C292 1.403 . S
C292 C291 1.403 . S
C292 C293 1.404 . S
C292 C295 1.539 . S
C293 C289 1.408 . S
C293 C292 1.404 . S
C293 H305 0.930 . S
C294 C290 1.524 . S
C294 H306 0.956 . S
C294 H307 0.961 . S
C294 H308 0.961 . S
C295 C292 1.539 . S
C295 H309 0.958 . S
C295 H310 0.961 . S
C295 H311 0.960 . S
H296 C280 0.931 . S
H297 C285 0.929 . S
H298 C286 0.960 . S
H299 C286 0.962 . S
H300 C286 0.960 . S
H301 C287 0.961 . S
H302 C287 0.961 . S
H303 C287 0.961 . S
H304 C288 0.931 . S
H305 C293 0.930 . S
H306 C294 0.956 . S
H307 C294 0.961 . S
H308 C294 0.961 . S
H309 C295 0.958 . S
H310 C295 0.961 . S
H311 C295 0.960 . S
C312 C313 1.391 . S
C312 C314 1.394 . S
C312 H328 0.931 . S
C313 C312 1.391 . S
C313 C317 1.376 1_554 S
C314 C312 1.394 . S
C314 C315 1.369 . S
C314 C318 1.531 . S
C315 C314 1.369 . S
C315 C316 1.410 1_554 S
C315 C323 1.503 . S
C316 C315 1.410 1_556 S
C316 C317 1.392 . S
C316 C319 1.511 . S
C317 C313 1.376 1_556 S
C317 C316 1.392 . S
C317 H329 0.929 . S
C318 C314 1.531 . S
C318 H330 0.960 . S
C318 H331 0.962 . S
C318 H332 0.960 . S
C319 C316 1.511 . S
C319 H333 0.961 . S
C319 H334 0.961 . S
C319 H335 0.961 . S
C320 C321 1.370 . S
C320 C322 1.363 . S
C320 H336 0.931 . S
C321 C320 1.370 . S
C321 C325 1.408 1_554 S
C322 C320 1.363 . S
C322 C323 1.370 . S
C322 C326 1.524 . S
C323 C315 1.503 . S
C323 C322 1.370 . S
C323 C324 1.403 1_554 S
C324 C323 1.403 1_556 S
C324 C325 1.404 . S
C324 C327 1.539 . S
C325 C321 1.408 1_556 S
C325 C324 1.404 . S
C325 H337 0.930 . S
C326 C322 1.524 . S
C326 H338 0.956 . S
C326 H339 0.961 . S
C326 H340 0.961 . S
C327 C324 1.539 . S
C327 H341 0.958 . S
C327 H342 0.961 . S
C327 H343 0.960 . S
H328 C312 0.931 . S
H329 C317 0.929 . S
H330 C318 0.960 . S
H331 C318 0.962 . S
H332 C318 0.960 . S
H333 C319 0.961 . S
H334 C319 0.961 . S
H335 C319 0.961 . S
H336 C320 0.931 . S
H337 C325 0.930 . S
H338 C326 0.956 . S
H339 C326 0.961 . S
H340 C326 0.961 . S
H341 C327 0.958 . S
H342 C327 0.961 . S
H343 C327 0.960 . S
C344 C345 1.391 . S
C344 C346 1.394 1_455 S
C344 H360 0.931 . S
C345 C344 1.391 . S
C345 C349 1.376 . S
C346 C344 1.394 1_655 S
C346 C347 1.369 1_655 S
C346 C350 1.531 . S
C347 C346 1.369 1_455 S
C347 C348 1.410 . S
C347 C355 1.503 1_455 S
C348 C347 1.410 . S
C348 C349 1.392 . S
C348 C351 1.511 . S
C349 C345 1.376 . S
C349 C348 1.392 . S
C349 H361 0.929 . S
C350 C346 1.531 . S
C350 H362 0.960 . S
C350 H363 0.962 . S
C350 H364 0.960 . S
C351 C348 1.511 . S
C351 H365 0.961 . S
C351 H366 0.961 . S
C351 H367 0.961 . S
C352 C353 1.370 . S
C352 C354 1.363 . S
C352 H368 0.931 . S
C353 C352 1.370 . S
C353 C357 1.408 . S
C354 C352 1.363 . S
C354 C355 1.370 . S
C354 C358 1.524 . S
C355 C347 1.503 1_655 S
C355 C354 1.370 . S
C355 C356 1.403 . S
C356 C355 1.403 . S
C356 C357 1.404 . S
C356 C359 1.539 1_655 S
C357 C353 1.408 . S
C357 C356 1.404 . S
C357 H369 0.930 . S
C358 C354 1.524 . S
C358 H370 0.956 . S
C358 H371 0.961 . S
C358 H372 0.961 . S
C359 C356 1.539 1_455 S
C359 H373 0.958 . S
C359 H374 0.961 . S
C359 H375 0.960 . S
H360 C344 0.931 . S
H361 C349 0.929 . S
H362 C350 0.960 . S
H363 C350 0.962 . S
H364 C350 0.960 . S
H365 C351 0.961 . S
H366 C351 0.961 . S
H367 C351 0.961 . S
H368 C352 0.931 . S
H369 C357 0.930 . S
H370 C358 0.956 . S
H371 C358 0.961 . S
H372 C358 0.961 . S
H373 C359 0.958 . S
H374 C359 0.961 . S
H375 C359 0.960 . S
C376 C377 1.391 . S
C376 C378 1.394 1_545 S
C376 H392 0.931 . S
C377 C376 1.391 . S
C377 C381 1.376 . S
C378 C376 1.394 1_565 S
C378 C379 1.369 1_565 S
C378 C382 1.531 . S
C379 C378 1.369 1_545 S
C379 C380 1.410 . S
C379 C387 1.503 1_545 S
C380 C379 1.410 . S
C380 C381 1.392 . S
C380 C383 1.511 . S
C381 C377 1.376 . S
C381 C380 1.392 . S
C381 H393 0.929 . S
C382 C378 1.531 . S
C382 H394 0.960 . S
C382 H395 0.962 . S
C382 H396 0.960 . S
C383 C380 1.511 . S
C383 H397 0.961 . S
C383 H398 0.961 . S
C383 H399 0.961 . S
C384 C385 1.370 . S
C384 C386 1.363 . S
C384 H400 0.931 . S
C385 C384 1.370 . S
C385 C389 1.408 . S
C386 C384 1.363 . S
C386 C387 1.370 . S
C386 C390 1.524 . S
C387 C379 1.503 1_565 S
C387 C386 1.370 . S
C387 C388 1.403 . S
C388 C387 1.403 . S
C388 C389 1.404 . S
C388 C391 1.539 1_565 S
C389 C385 1.408 . S
C389 C388 1.404 . S
C389 H401 0.930 . S
C390 C386 1.524 . S
C390 H402 0.956 . S
C390 H403 0.961 . S
C390 H404 0.961 . S
C391 C388 1.539 1_545 S
C391 H405 0.958 . S
C391 H406 0.961 . S
C391 H407 0.960 . S
H392 C376 0.931 . S
H393 C381 0.929 . S
H394 C382 0.960 . S
H395 C382 0.962 . S
H396 C382 0.960 . S
H397 C383 0.961 . S
H398 C383 0.961 . S
H399 C383 0.961 . S
H400 C384 0.931 . S
H401 C389 0.930 . S
H402 C390 0.956 . S
H403 C390 0.961 . S
H404 C390 0.961 . S
H405 C391 0.958 . S
H406 C391 0.961 . S
H407 C391 0.960 . S
C408 C409 1.391 . S
C408 C410 1.394 . S
C408 H424 0.931 . S
C409 C408 1.391 . S
C409 C413 1.376 . S
C410 C408 1.394 . S
C410 C411 1.369 . S
C410 C414 1.531 . S
C411 C410 1.369 . S
C411 C412 1.410 . S
C411 C419 1.503 . S
C412 C411 1.410 . S
C412 C413 1.392 . S
C412 C415 1.511 . S
C413 C409 1.376 . S
C413 C412 1.392 . S
C413 H425 0.929 . S
C414 C410 1.531 . S
C414 H426 0.960 . S
C414 H427 0.962 . S
C414 H428 0.960 . S
C415 C412 1.511 . S
C415 H429 0.961 . S
C415 H430 0.961 . S
C415 H431 0.961 . S
C416 C417 1.370 . S
C416 C418 1.363 . S
C416 H432 0.931 . S
C417 C416 1.370 . S
C417 C421 1.408 . S
C418 C416 1.363 . S
C418 C419 1.370 . S
C418 C422 1.524 . S
C419 C411 1.503 . S
C419 C418 1.370 . S
C419 C420 1.403 . S
C420 C419 1.403 . S
C420 C421 1.404 . S
C420 C423 1.539 . S
C421 C417 1.408 . S
C421 C420 1.404 . S
C421 H433 0.930 . S
C422 C418 1.524 . S
C422 H434 0.956 . S
C422 H435 0.961 . S
C422 H436 0.961 . S
C423 C420 1.539 . S
C423 H437 0.958 . S
C423 H438 0.961 . S
C423 H439 0.960 . S
H424 C408 0.931 . S
H425 C413 0.929 . S
H426 C414 0.960 . S
H427 C414 0.962 . S
H428 C414 0.960 . S
H429 C415 0.961 . S
H430 C415 0.961 . S
H431 C415 0.961 . S
H432 C416 0.931 . S
H433 C421 0.930 . S
H434 C422 0.956 . S
H435 C422 0.961 . S
H436 C422 0.961 . S
H437 C423 0.958 . S
H438 C423 0.961 . S
H439 C423 0.960 . S
C440 C441 1.391 1_554 S
C440 C442 1.394 . S
C440 H456 0.931 . S
C441 C440 1.391 1_556 S
C441 C445 1.376 . S
C442 C440 1.394 . S
C442 C443 1.369 1_554 S
C442 C446 1.531 . S
C443 C442 1.369 1_556 S
C443 C444 1.410 . S
C443 C451 1.503 1_455 S
C444 C443 1.410 . S
C444 C445 1.392 . S
C444 C447 1.511 1_455 S
C445 C441 1.376 . S
C445 C444 1.392 . S
C445 H457 0.929 . S
C446 C442 1.531 . S
C446 H458 0.960 . S
C446 H459 0.962 . S
C446 H460 0.960 . S
C447 C444 1.511 1_655 S
C447 H461 0.961 . S
C447 H462 0.961 . S
C447 H463 0.961 . S
C448 C449 1.370 1_554 S
C448 C450 1.363 . S
C448 H464 0.931 . S
C449 C448 1.370 1_556 S
C449 C453 1.408 . S
C450 C448 1.363 . S
C450 C451 1.370 1_554 S
C450 C454 1.524 . S
C451 C443 1.503 1_655 S
C451 C450 1.370 1_556 S
C451 C452 1.403 . S
C452 C451 1.403 . S
C452 C453 1.404 . S
C452 C455 1.539 1_655 S
C453 C449 1.408 . S
C453 C452 1.404 . S
C453 H465 0.930 . S
C454 C450 1.524 . S
C454 H466 0.956 . S
C454 H467 0.961 . S
C454 H468 0.961 . S
C455 C452 1.539 1_455 S
C455 H469 0.958 . S
C455 H470 0.961 . S
C455 H471 0.960 . S
H456 C440 0.931 . S
H457 C445 0.929 . S
H458 C446 0.960 . S
H459 C446 0.962 . S
H460 C446 0.960 . S
H461 C447 0.961 . S
H462 C447 0.961 . S
H463 C447 0.961 . S
H464 C448 0.931 . S
H465 C453 0.930 . S
H466 C454 0.956 . S
H467 C454 0.961 . S
H468 C454 0.961 . S
H469 C455 0.958 . S
H470 C455 0.961 . S
H471 C455 0.960 . S
C472 C473 1.391 . S
C472 C474 1.394 . S
C472 H488 0.931 . S
C473 C472 1.391 . S
C473 C477 1.376 . S
C474 C472 1.394 . S
C474 C475 1.369 . S
C474 C478 1.531 . S
C475 C474 1.369 . S
C475 C476 1.410 1_565 S
C475 C483 1.503 1_565 S
C476 C475 1.410 1_545 S
C476 C477 1.392 1_545 S
C476 C479 1.511 . S
C477 C473 1.376 . S
C477 C476 1.392 1_565 S
C477 H489 0.929 . S
C478 C474 1.531 . S
C478 H490 0.960 . S
C478 H491 0.962 . S
C478 H492 0.960 . S
C479 C476 1.511 . S
C479 H493 0.961 . S
C479 H494 0.961 . S
C479 H495 0.961 . S
C480 C481 1.370 . S
C480 C482 1.363 . S
C480 H496 0.931 . S
C481 C480 1.370 . S
C481 C485 1.408 . S
C482 C480 1.363 . S
C482 C483 1.370 . S
C482 C486 1.524 1_545 S
C483 C475 1.503 1_545 S
C483 C482 1.370 . S
C483 C484 1.403 . S
C484 C483 1.403 . S
C484 C485 1.404 . S
C484 C487 1.539 . S
C485 C481 1.408 . S
C485 C484 1.404 . S
C485 H497 0.930 . S
C486 C482 1.524 1_565 S
C486 H498 0.956 . S
C486 H499 0.961 1_565 S
C486 H500 0.961 1_565 S
C487 C484 1.539 . S
C487 H501 0.958 . S
C487 H502 0.961 . S
C487 H503 0.960 . S
H488 C472 0.931 . S
H489 C477 0.929 . S
H490 C478 0.960 . S
H491 C478 0.962 . S
H492 C478 0.960 . S
H493 C479 0.961 . S
H494 C479 0.961 . S
H495 C479 0.961 . S
H496 C480 0.931 . S
H497 C485 0.930 . S
H498 C486 0.956 . S
H499 C486 0.961 1_545 S
H500 C486 0.961 1_545 S
H501 C487 0.958 . S
H502 C487 0.961 . S
H503 C487 0.960 . S
C504 C505 1.391 . S
C504 C506 1.394 . S
C504 H520 0.931 . S
C505 C504 1.391 . S
C505 C509 1.376 . S
C506 C504 1.394 . S
C506 C507 1.369 . S
C506 C510 1.531 . S
C507 C506 1.369 . S
C507 C508 1.410 . S
C507 C515 1.503 . S
C508 C507 1.410 . S
C508 C509 1.392 . S
C508 C511 1.511 . S
C509 C505 1.376 . S
C509 C508 1.392 . S
C509 H521 0.929 . S
C510 C506 1.531 . S
C510 H522 0.960 . S
C510 H523 0.962 . S
C510 H524 0.960 . S
C511 C508 1.511 . S
C511 H525 0.961 . S
C511 H526 0.961 . S
C511 H527 0.961 . S
C512 C513 1.370 . S
C512 C514 1.363 . S
C512 H528 0.931 . S
C513 C512 1.370 . S
C513 C517 1.408 . S
C514 C512 1.363 . S
C514 C515 1.370 . S
C514 C518 1.524 . S
C515 C507 1.503 . S
C515 C514 1.370 . S
C515 C516 1.403 . S
C516 C515 1.403 . S
C516 C517 1.404 . S
C516 C519 1.539 . S
C517 C513 1.408 . S
C517 C516 1.404 . S
C517 H529 0.930 . S
C518 C514 1.524 . S
C518 H530 0.956 . S
C518 H531 0.961 . S
C518 H532 0.961 . S
C519 C516 1.539 . S
C519 H533 0.958 . S
C519 H534 0.961 . S
C519 H535 0.960 . S
H520 C504 0.931 . S
H521 C509 0.929 . S
H522 C510 0.960 . S
H523 C510 0.962 . S
H524 C510 0.960 . S
H525 C511 0.961 . S
H526 C511 0.961 . S
H527 C511 0.961 . S
H528 C512 0.931 . S
H529 C517 0.930 . S
H530 C518 0.956 . S
H531 C518 0.961 . S
H532 C518 0.961 . S
H533 C519 0.958 . S
H534 C519 0.961 . S
H535 C519 0.960 . S
C536 C537 1.391 . S
C536 C538 1.394 . S
C536 H552 0.931 . S
C537 C536 1.391 . S
C537 C541 1.376 . S
C538 C536 1.394 . S
C538 C539 1.369 . S
C538 C542 1.531 . S
C539 C538 1.369 . S
C539 C540 1.410 . S
C539 C547 1.503 1_655 S
C540 C539 1.410 . S
C540 C541 1.392 . S
C540 C543 1.511 . S
C541 C537 1.376 . S
C541 C540 1.392 . S
C541 H553 0.929 . S
C542 C538 1.531 . S
C542 H554 0.960 . S
C542 H555 0.962 1_655 S
C542 H556 0.960 . S
C543 C540 1.511 . S
C543 H557 0.961 . S
C543 H558 0.961 . S
C543 H559 0.961 . S
C544 C545 1.370 . S
C544 C546 1.363 . S
C544 H560 0.931 . S
C545 C544 1.370 . S
C545 C549 1.408 . S
C546 C544 1.363 . S
C546 C547 1.370 . S
C546 C550 1.524 . S
C547 C539 1.503 1_455 S
C547 C546 1.370 . S
C547 C548 1.403 1_455 S
C548 C547 1.403 1_655 S
C548 C549 1.404 1_655 S
C548 C551 1.539 . S
C549 C545 1.408 . S
C549 C548 1.404 1_455 S
C549 H561 0.930 . S
C550 C546 1.524 . S
C550 H562 0.956 . S
C550 H563 0.961 . S
C550 H564 0.961 . S
C551 C548 1.539 . S
C551 H565 0.958 . S
C551 H566 0.961 . S
C551 H567 0.960 . S
H552 C536 0.931 . S
H553 C541 0.929 . S
H554 C542 0.960 . S
H555 C542 0.962 1_455 S
H556 C542 0.960 . S
H557 C543 0.961 . S
H558 C543 0.961 . S
H559 C543 0.961 . S
H560 C544 0.931 . S
H561 C549 0.930 . S
H562 C550 0.956 . S
H563 C550 0.961 . S
H564 C550 0.961 . S
H565 C551 0.958 . S
H566 C551 0.961 . S
H567 C551 0.960 . S
C568 C569 1.391 . S
C568 C570 1.394 . S
C568 H584 0.931 . S
C569 C568 1.391 . S
C569 C573 1.376 . S
C570 C568 1.394 . S
C570 C571 1.369 . S
C570 C574 1.531 . S
C571 C570 1.369 . S
C571 C572 1.410 . S
C571 C579 1.503 1_565 S
C572 C571 1.410 . S
C572 C573 1.392 . S
C572 C575 1.511 1_565 S
C573 C569 1.376 . S
C573 C572 1.392 . S
C573 H585 0.929 . S
C574 C570 1.531 . S
C574 H586 0.960 . S
C574 H587 0.962 . S
C574 H588 0.960 . S
C575 C572 1.511 1_545 S
C575 H589 0.961 . S
C575 H590 0.961 . S
C575 H591 0.961 . S
C576 C577 1.370 . S
C576 C578 1.363 . S
C576 H592 0.931 . S
C577 C576 1.370 . S
C577 C581 1.408 . S
C578 C576 1.363 . S
C578 C579 1.370 . S
C578 C582 1.524 . S
C579 C571 1.503 1_545 S
C579 C578 1.370 . S
C579 C580 1.403 . S
C580 C579 1.403 . S
C580 C581 1.404 . S
C580 C583 1.539 1_545 S
C581 C577 1.408 . S
C581 C580 1.404 . S
C581 H593 0.930 . S
C582 C578 1.524 . S
C582 H594 0.956 . S
C582 H595 0.961 . S
C582 H596 0.961 . S
C583 C580 1.539 1_565 S
C583 H597 0.958 . S
C583 H598 0.961 . S
C583 H599 0.960 . S
H584 C568 0.931 . S
H585 C573 0.929 . S
H586 C574 0.960 . S
H587 C574 0.962 . S
H588 C574 0.960 . S
H589 C575 0.961 . S
H590 C575 0.961 . S
H591 C575 0.961 . S
H592 C576 0.931 . S
H593 C581 0.930 . S
H594 C582 0.956 . S
H595 C582 0.961 . S
H596 C582 0.961 . S
H597 C583 0.958 . S
H598 C583 0.961 . S
H599 C583 0.960 . S
C600 C601 1.391 . S
C600 C602 1.394 . S
C600 H616 0.931 . S
C601 C600 1.391 . S
C601 C605 1.376 . S
C602 C600 1.394 . S
C602 C603 1.369 . S
C602 C606 1.531 . S
C603 C602 1.369 . S
C603 C604 1.410 . S
C603 C611 1.503 . S
C604 C603 1.410 . S
C604 C605 1.392 . S
C604 C607 1.511 . S
C605 C601 1.376 . S
C605 C604 1.392 . S
C605 H617 0.929 . S
C606 C602 1.531 . S
C606 H618 0.960 . S
C606 H619 0.962 . S
C606 H620 0.960 . S
C607 C604 1.511 . S
C607 H621 0.961 . S
C607 H622 0.961 . S
C607 H623 0.961 . S
C608 C609 1.370 . S
C608 C610 1.363 . S
C608 H624 0.931 . S
C609 C608 1.370 . S
C609 C613 1.408 . S
C610 C608 1.363 . S
C610 C611 1.370 . S
C610 C614 1.524 . S
C611 C603 1.503 . S
C611 C610 1.370 . S
C611 C612 1.403 . S
C612 C611 1.403 . S
C612 C613 1.404 . S
C612 C615 1.539 . S
C613 C609 1.408 . S
C613 C612 1.404 . S
C613 H625 0.930 . S
C614 C610 1.524 . S
C614 H626 0.956 . S
C614 H627 0.961 . S
C614 H628 0.961 . S
C615 C612 1.539 . S
C615 H629 0.958 . S
C615 H630 0.961 . S
C615 H631 0.960 . S
H616 C600 0.931 . S
H617 C605 0.929 . S
H618 C606 0.960 . S
H619 C606 0.962 . S
H620 C606 0.960 . S
H621 C607 0.961 . S
H622 C607 0.961 . S
H623 C607 0.961 . S
H624 C608 0.931 . S
H625 C613 0.930 . S
H626 C614 0.956 . S
H627 C614 0.961 . S
H628 C614 0.961 . S
H629 C615 0.958 . S
H630 C615 0.961 . S
H631 C615 0.960 . S
C632 C633 1.391 . S
C632 C634 1.394 . S
C632 H648 0.931 . S
C633 C632 1.391 . S
C633 C637 1.376 . S
C634 C632 1.394 . S
C634 C635 1.369 . S
C634 C638 1.531 1_455 S
C635 C634 1.369 . S
C635 C636 1.410 . S
C635 C643 1.503 1_455 S
C636 C635 1.410 . S
C636 C637 1.392 . S
C636 C639 1.511 . S
C637 C633 1.376 . S
C637 C636 1.392 . S
C637 H649 0.929 . S
C638 C634 1.531 1_655 S
C638 H650 0.960 . S
C638 H651 0.962 . S
C638 H652 0.960 . S
C639 C636 1.511 . S
C639 H653 0.961 . S
C639 H654 0.961 . S
C639 H655 0.961 . S
C640 C641 1.370 . S
C640 C642 1.363 . S
C640 H656 0.931 . S
C641 C640 1.370 . S
C641 C645 1.408 . S
C642 C640 1.363 . S
C642 C643 1.370 . S
C642 C646 1.524 . S
C643 C635 1.503 1_655 S
C643 C642 1.370 . S
C643 C644 1.403 . S
C644 C643 1.403 . S
C644 C645 1.404 . S
C644 C647 1.539 1_655 S
C645 C641 1.408 . S
C645 C644 1.404 . S
C645 H657 0.930 . S
C646 C642 1.524 . S
C646 H658 0.956 . S
C646 H659 0.961 . S
C646 H660 0.961 . S
C647 C644 1.539 1_455 S
C647 H661 0.958 . S
C647 H662 0.961 . S
C647 H663 0.960 . S
H648 C632 0.931 . S
H649 C637 0.929 . S
H650 C638 0.960 . S
H651 C638 0.962 . S
H652 C638 0.960 . S
H653 C639 0.961 . S
H654 C639 0.961 . S
H655 C639 0.961 . S
H656 C640 0.931 . S
H657 C645 0.930 . S
H658 C646 0.956 . S
H659 C646 0.961 . S
H660 C646 0.961 . S
H661 C647 0.958 . S
H662 C647 0.961 . S
H663 C647 0.960 . S
C664 C665 1.391 . S
C664 C666 1.394 . S
C664 H680 0.931 . S
C665 C664 1.391 . S
C665 C669 1.376 . S
C666 C664 1.394 . S
C666 C667 1.369 . S
C666 C670 1.531 1_545 S
C667 C666 1.369 . S
C667 C668 1.410 . S
C667 C675 1.503 1_545 S
C668 C667 1.410 . S
C668 C669 1.392 . S
C668 C671 1.511 . S
C669 C665 1.376 . S
C669 C668 1.392 . S
C669 H681 0.929 . S
C670 C666 1.531 1_565 S
C670 H682 0.960 . S
C670 H683 0.962 . S
C670 H684 0.960 . S
C671 C668 1.511 . S
C671 H685 0.961 . S
C671 H686 0.961 . S
C671 H687 0.961 . S
C672 C673 1.370 . S
C672 C674 1.363 . S
C672 H688 0.931 . S
C673 C672 1.370 . S
C673 C677 1.408 . S
C674 C672 1.363 . S
C674 C675 1.370 . S
C674 C678 1.524 1_565 S
C675 C667 1.503 1_565 S
C675 C674 1.370 . S
C675 C676 1.403 . S
C676 C675 1.403 . S
C676 C677 1.404 . S
C676 C679 1.539 . S
C677 C673 1.408 . S
C677 C676 1.404 . S
C677 H689 0.930 . S
C678 C674 1.524 1_545 S
C678 H690 0.956 . S
C678 H691 0.961 . S
C678 H692 0.961 . S
C679 C676 1.539 . S
C679 H693 0.958 . S
C679 H694 0.961 . S
C679 H695 0.960 . S
H680 C664 0.931 . S
H681 C669 0.929 . S
H682 C670 0.960 . S
H683 C670 0.962 . S
H684 C670 0.960 . S
H685 C671 0.961 . S
H686 C671 0.961 . S
H687 C671 0.961 . S
H688 C672 0.931 . S
H689 C677 0.930 . S
H690 C678 0.956 . S
H691 C678 0.961 . S
H692 C678 0.961 . S
H693 C679 0.958 . S
H694 C679 0.961 . S
H695 C679 0.960 . S
C121 C86 1.347 . S
C129 C8 1.337 . S
C153 C106 1.389 . S
C161 C28 1.330 . S
C185 C6 1.385 . S
C193 C48 1.333 . S
C217 C26 1.366 . S
C225 C68 1.340 . S
C249 C46 1.359 . S
C257 C88 1.308 . S
C281 C66 1.372 . S
C289 C108 1.339 . S
C313 C1 0.866 . S
C321 C61 0.794 . S
C345 C81 0.779 . S
C353 C21 0.831 . S
C377 C101 0.780 . S
C385 C41 0.831 . S
C409 C49 0.836 . S
C417 C109 0.809 . S
C441 C9 0.794 . S
C449 C69 0.826 . S
C473 C89 0.822 . S
C481 C29 0.814 . S
C505 C116 1.538 . S
C513 C19 1.508 . S
C537 C39 1.519 . S
C545 C16 1.531 . S
C569 C59 1.540 . S
C577 C36 1.534 . S
C601 C56 1.546 . S
C609 C79 1.524 . S
C633 C99 1.497 . S
C641 C76 1.536 . S
C665 C119 1.488 . S
C673 C96 1.543 . S
