# Generated by pormake.
# Topology uno, (4)-cn, num edge types: 1
# Building blocks:
#     Node 0, Type 0, BuildingBlock: QUQFOY_clean_sbu_1, # of connection points: 4
#     Node 1, Type 0, BuildingBlock: QUQFOY_clean_sbu_1, # of connection points: 4
#     Node 2, Type 0, BuildingBlock: QUQFOY_clean_sbu_1, # of connection points: 4
#     Node 3, Type 0, BuildingBlock: QUQFOY_clean_sbu_1, # of connection points: 4
#     Node 4, Type 0, BuildingBlock: QUQFOY_clean_sbu_1, # of connection points: 4
#     Node 5, Type 0, BuildingBlock: QUQFOY_clean_sbu_1, # of connection points: 4
#     Node 6, Type 0, BuildingBlock: QUQFOY_clean_sbu_1, # of connection points: 4
#     Node 7, Type 0, BuildingBlock: QUQFOY_clean_sbu_1, # of connection points: 4
#     Node 8, Type 0, BuildingBlock: QUQFOY_clean_sbu_1, # of connection points: 4
#     Node 9, Type 0, BuildingBlock: QUQFOY_clean_sbu_1, # of connection points: 4
#     Node 10, Type 0, BuildingBlock: QUQFOY_clean_sbu_1, # of connection points: 4
#     Node 11, Type 0, BuildingBlock: QUQFOY_clean_sbu_1, # of connection points: 4
#     Node 12, Type 0, BuildingBlock: QUQFOY_clean_sbu_1, # of connection points: 4
#     Node 13, Type 0, BuildingBlock: QUQFOY_clean_sbu_1, # of connection points: 4
#     Node 14, Type 0, BuildingBlock: QUQFOY_clean_sbu_1, # of connection points: 4
#     Node 15, Type 0, BuildingBlock: QUQFOY_clean_sbu_1, # of connection points: 4
#     Node 16, Type 0, BuildingBlock: QUQFOY_clean_sbu_1, # of connection points: 4
#     Node 17, Type 0, BuildingBlock: QUQFOY_clean_sbu_1, # of connection points: 4
#     Node 18, Type 0, BuildingBlock: QUQFOY_clean_sbu_1, # of connection points: 4
#     Node 19, Type 0, BuildingBlock: QUQFOY_clean_sbu_1, # of connection points: 4
#     Node 20, Type 0, BuildingBlock: QUQFOY_clean_sbu_1, # of connection points: 4
#     Node 21, Type 0, BuildingBlock: QUQFOY_clean_sbu_1, # of connection points: 4
#     Node 22, Type 0, BuildingBlock: QUQFOY_clean_sbu_1, # of connection points: 4
#     Node 23, Type 0, BuildingBlock: QUQFOY_clean_sbu_1, # of connection points: 4
#     Edge 24, Type (0, 0), BuildingBlock: ZUJKAS_clean_linker_0, # of connection points: 2
#     Edge 25, Type (0, 0), BuildingBlock: ZUJKAS_clean_linker_0, # of connection points: 2
#     Edge 26, Type (0, 0), BuildingBlock: ZUJKAS_clean_linker_0, # of connection points: 2
#     Edge 27, Type (0, 0), BuildingBlock: ZUJKAS_clean_linker_0, # of connection points: 2
#     Edge 28, Type (0, 0), BuildingBlock: ZUJKAS_clean_linker_0, # of connection points: 2
#     Edge 29, Type (0, 0), BuildingBlock: ZUJKAS_clean_linker_0, # of connection points: 2
#     Edge 30, Type (0, 0), BuildingBlock: ZUJKAS_clean_linker_0, # of connection points: 2
#     Edge 31, Type (0, 0), BuildingBlock: ZUJKAS_clean_linker_0, # of connection points: 2
#     Edge 32, Type (0, 0), BuildingBlock: ZUJKAS_clean_linker_0, # of connection points: 2
#     Edge 33, Type (0, 0), BuildingBlock: ZUJKAS_clean_linker_0, # of connection points: 2
#     Edge 34, Type (0, 0), BuildingBlock: ZUJKAS_clean_linker_0, # of connection points: 2
#     Edge 35, Type (0, 0), BuildingBlock: ZUJKAS_clean_linker_0, # of connection points: 2
#     Edge 36, Type (0, 0), BuildingBlock: ZUJKAS_clean_linker_0, # of connection points: 2
#     Edge 37, Type (0, 0), BuildingBlock: ZUJKAS_clean_linker_0, # of connection points: 2
#     Edge 38, Type (0, 0), BuildingBlock: ZUJKAS_clean_linker_0, # of connection points: 2
#     Edge 39, Type (0, 0), BuildingBlock: ZUJKAS_clean_linker_0, # of connection points: 2
#     Edge 40, Type (0, 0), BuildingBlock: ZUJKAS_clean_linker_0, # of connection points: 2
#     Edge 41, Type (0, 0), BuildingBlock: ZUJKAS_clean_linker_0, # of connection points: 2
#     Edge 42, Type (0, 0), BuildingBlock: ZUJKAS_clean_linker_0, # of connection points: 2
#     Edge 43, Type (0, 0), BuildingBlock: ZUJKAS_clean_linker_0, # of connection points: 2
#     Edge 44, Type (0, 0), BuildingBlock: ZUJKAS_clean_linker_0, # of connection points: 2
#     Edge 45, Type (0, 0), BuildingBlock: ZUJKAS_clean_linker_0, # of connection points: 2
#     Edge 46, Type (0, 0), BuildingBlock: ZUJKAS_clean_linker_0, # of connection points: 2
#     Edge 47, Type (0, 0), BuildingBlock: ZUJKAS_clean_linker_0, # of connection points: 2
#     Edge 48, Type (0, 0), BuildingBlock: ZUJKAS_clean_linker_0, # of connection points: 2
#     Edge 49, Type (0, 0), BuildingBlock: ZUJKAS_clean_linker_0, # of connection points: 2
#     Edge 50, Type (0, 0), BuildingBlock: ZUJKAS_clean_linker_0, # of connection points: 2
#     Edge 51, Type (0, 0), BuildingBlock: ZUJKAS_clean_linker_0, # of connection points: 2
#     Edge 52, Type (0, 0), BuildingBlock: ZUJKAS_clean_linker_0, # of connection points: 2
#     Edge 53, Type (0, 0), BuildingBlock: ZUJKAS_clean_linker_0, # of connection points: 2
#     Edge 54, Type (0, 0), BuildingBlock: ZUJKAS_clean_linker_0, # of connection points: 2
#     Edge 55, Type (0, 0), BuildingBlock: ZUJKAS_clean_linker_0, # of connection points: 2
#     Edge 56, Type (0, 0), BuildingBlock: ZUJKAS_clean_linker_0, # of connection points: 2
#     Edge 57, Type (0, 0), BuildingBlock: ZUJKAS_clean_linker_0, # of connection points: 2
#     Edge 58, Type (0, 0), BuildingBlock: ZUJKAS_clean_linker_0, # of connection points: 2
#     Edge 59, Type (0, 0), BuildingBlock: ZUJKAS_clean_linker_0, # of connection points: 2
#     Edge 60, Type (0, 0), BuildingBlock: ZUJKAS_clean_linker_0, # of connection points: 2
#     Edge 61, Type (0, 0), BuildingBlock: ZUJKAS_clean_linker_0, # of connection points: 2
#     Edge 62, Type (0, 0), BuildingBlock: ZUJKAS_clean_linker_0, # of connection points: 2
#     Edge 63, Type (0, 0), BuildingBlock: ZUJKAS_clean_linker_0, # of connection points: 2
#     Edge 64, Type (0, 0), BuildingBlock: ZUJKAS_clean_linker_0, # of connection points: 2
#     Edge 65, Type (0, 0), BuildingBlock: ZUJKAS_clean_linker_0, # of connection points: 2
#     Edge 66, Type (0, 0), BuildingBlock: ZUJKAS_clean_linker_0, # of connection points: 2
#     Edge 67, Type (0, 0), BuildingBlock: ZUJKAS_clean_linker_0, # of connection points: 2
#     Edge 68, Type (0, 0), BuildingBlock: ZUJKAS_clean_linker_0, # of connection points: 2
#     Edge 69, Type (0, 0), BuildingBlock: ZUJKAS_clean_linker_0, # of connection points: 2
#     Edge 70, Type (0, 0), BuildingBlock: ZUJKAS_clean_linker_0, # of connection points: 2
#     Edge 71, Type (0, 0), BuildingBlock: ZUJKAS_clean_linker_0, # of connection points: 2
# Relax obj value: 0.249
# Max RMSD: 0.252
# Mean RMSD: 0.227
data_MOF--net-uno--node1-QUQFOY_clean_sbu_1--edge1-ZUJKAS_clean_linker_0
_symmetry_space_group_name_H-M    P1
_symmetry_Int_Tables_number       1
_symmetry_cell_setting            triclinic
loop_
_symmetry_equiv_pos_as_xyz
'x, y, z'
_cell_length_a     69.585158
_cell_length_b     69.680056
_cell_length_c     69.705592
_cell_angle_alpha  90.158605
_cell_angle_beta   90.11408
_cell_angle_gamma 90.107281
loop_
_atom_site_label
_atom_site_type_symbol
_atom_site_fract_x
_atom_site_fract_y
_atom_site_fract_z
_atom_type_partial_charge
O0 O 0.10204 0.29974 0.24389 0.0
Cd1 Cd 0.08777 0.30833 0.26894 0.0
Cd2 Cd 0.07854 0.25796 0.25607 0.0
O3 O 0.09791 0.2686 0.236 0.0
O4 O 0.08888 0.33668 0.27266 0.0
O5 O 0.06196 0.32071 0.26631 0.0
C6 C 0.07057 0.33691 0.26946 0.0
C7 C 0.06657 0.22694 0.25733 0.0
C8 C 0.10538 0.28518 0.23313 0.0
C9 C 0.08849 0.27663 0.29102 0.0
O10 O 0.07487 0.27528 0.27899 0.0
O11 O 0.0952 0.29332 0.29344 0.0
O12 O 0.08312 0.23127 0.26457 0.0
O13 O 0.05707 0.24016 0.24841 0.0
O14 O 0.02227 0.82157 0.50373 0.0
Cd15 Cd 0.00948 0.80168 0.48606 0.0
Cd16 Cd 0.97935 0.81379 0.50738 0.0
O17 O 0.99934 0.82756 0.52476 0.0
O18 O 0.03274 0.79039 0.47379 0.0
O19 O 0.01426 0.77409 0.49364 0.0
C20 C 0.02993 0.77513 0.48379 0.0
C21 C 0.95581 0.79177 0.51621 0.0
C22 C 0.01654 0.8297 0.51898 0.0
C23 C 0.97967 0.82458 0.46574 0.0
O24 O 0.97299 0.82785 0.48238 0.0
O25 O 0.99337 0.81268 0.46349 0.0
O26 O 0.95424 0.80976 0.52048 0.0
O27 O 0.97167 0.78606 0.50839 0.0
O28 O 0.41129 0.71199 0.75568 0.0
Cd29 Cd 0.4288 0.7192 0.77852 0.0
Cd30 Cd 0.43885 0.74756 0.75503 0.0
O31 O 0.42571 0.73042 0.73446 0.0
O32 O 0.43438 0.69503 0.79262 0.0
O33 O 0.4564 0.71129 0.77643 0.0
C34 C 0.45175 0.69624 0.78623 0.0
C35 C 0.46597 0.76656 0.74933 0.0
C36 C 0.41341 0.71749 0.73844 0.0
C37 C 0.41559 0.75718 0.7905 0.0
O38 O 0.42103 0.76179 0.77375 0.0
O39 O 0.41881 0.74039 0.79683 0.0
O40 O 0.44997 0.76953 0.74053 0.0
O41 O 0.46719 0.75154 0.76008 0.0
O42 O 0.48809 0.17753 1.00005 0.0
Cd43 Cd 0.50313 0.19529 0.98208 0.0
Cd44 Cd 0.53071 0.18387 0.00599 0.0
O45 O 0.50875 0.1745 0.02383 0.0
O46 O 0.48163 0.20867 0.96875 0.0
O47 O 0.50144 0.22342 0.98875 0.0
C48 C 0.48593 0.22382 0.97851 0.0
C49 C 0.55586 0.20455 0.01383 0.0
C50 C 0.49204 0.17177 0.01686 0.0
C51 C 0.53176 0.16887 0.96553 0.0
O52 O 0.53684 0.16648 0.98289 0.0
O53 O 0.51955 0.18177 0.96126 0.0
O54 O 0.55553 0.18708 0.01999 0.0
O55 O 0.541 0.21073 0.00455 0.0
O56 O 0.04148 0.01721 0.35634 0.0
Cd57 Cd 0.01938 0.01331 0.33693 0.0
Cd58 Cd 0.04218 0.98497 0.3256 0.0
O59 O 0.06279 0.99836 0.34238 0.0
O60 O 0.00722 0.03894 0.33351 0.0
O61 O 0.02369 0.02416 0.31067 0.0
C62 C 0.0147 0.03929 0.31656 0.0
C63 C 0.04635 0.96977 0.29614 0.0
C64 C 0.05844 0.0105 0.35534 0.0
C65 C 0.00467 0.97475 0.34477 0.0
O66 O 0.02162 0.96997 0.34014 0.0
O67 O 0.9993 0.99212 0.34322 0.0
O68 O 0.0548 0.96363 0.31141 0.0
O69 O 0.03762 0.9861 0.29712 0.0
O70 O 0.26713 0.74255 0.60132 0.0
Cd71 Cd 0.25104 0.75992 0.58381 0.0
Cd72 Cd 0.22502 0.73396 0.59455 0.0
O73 O 0.24786 0.71765 0.60457 0.0
O74 O 0.27167 0.77601 0.57218 0.0
O75 O 0.25466 0.75505 0.55545 0.0
C76 C 0.26896 0.76686 0.55632 0.0
C77 C 0.20258 0.72524 0.57132 0.0
C78 C 0.26415 0.72559 0.60723 0.0
C79 C 0.22054 0.77392 0.60996 0.0
O80 O 0.21642 0.75626 0.61197 0.0
O81 O 0.23287 0.77907 0.59751 0.0
O82 O 0.20155 0.71858 0.58858 0.0
O83 O 0.21729 0.73572 0.56692 0.0
O84 O 0.48998 0.96203 0.85349 0.0
Cd85 Cd 0.51406 0.96851 0.83755 0.0
Cd86 Cd 0.48975 0.99299 0.82211 0.0
O87 O 0.46874 0.97631 0.83487 0.0
O88 O 0.52932 0.94437 0.83509 0.0
O89 O 0.51416 0.95817 0.81079 0.0
C90 C 0.52392 0.94383 0.81734 0.0
C91 C 0.48927 0.0069 0.79178 0.0
C92 C 0.47259 0.96559 0.84914 0.0
C93 C 0.52152 0.00863 0.84721 0.0
O94 O 0.50483 0.01072 0.84015 0.0
O95 O 0.52984 0.99239 0.84623 0.0
O96 O 0.47726 0.01207 0.80487 0.0
O97 O 0.49993 0.99213 0.79517 0.0
O98 O 0.24911 0.27105 0.08572 0.0
Cd99 Cd 0.26262 0.25398 0.06584 0.0
Cd100 Cd 0.29206 0.27631 0.07873 0.0
O101 O 0.27137 0.29269 0.09247 0.0
O102 O 0.23979 0.24086 0.05441 0.0
O103 O 0.25777 0.26122 0.03817 0.0
C104 C 0.24243 0.25079 0.03909 0.0
C105 C 0.31563 0.28665 0.05747 0.0
C106 C 0.25432 0.28634 0.0942 0.0
C107 C 0.29318 0.23451 0.0887 0.0
O108 O 0.29921 0.25133 0.09245 0.0
O109 O 0.27963 0.23199 0.07662 0.0
O110 O 0.31659 0.29073 0.07554 0.0
O111 O 0.30032 0.27809 0.05122 0.0
O112 O 0.23038 0.1158 0.2757 0.0
Cd113 Cd 0.25244 0.09672 0.27024 0.0
Cd114 Cd 0.22945 0.08668 0.24139 0.0
O115 O 0.20916 0.10266 0.25602 0.0
O116 O 0.26557 0.09091 0.295 0.0
O117 O 0.24771 0.0698 0.27907 0.0
C118 C 0.25769 0.07412 0.29415 0.0
C119 C 0.22422 0.05814 0.2246 0.0
C120 C 0.21342 0.11498 0.26889 0.0
C121 C 0.26669 0.10679 0.23198 0.0
O122 O 0.24977 0.10214 0.22698 0.0
O123 O 0.27215 0.10435 0.24922 0.0
O124 O 0.21612 0.07393 0.21947 0.0
O125 O 0.23348 0.05806 0.24069 0.0
O126 O 0.19084 0.01977 0.52254 0.0
Cd127 Cd 0.19036 0.99723 0.50433 0.0
Cd128 Cd 0.17695 0.00744 0.55407 0.0
O129 O 0.16843 0.03191 0.53964 0.0
O130 O 0.18718 0.00619 0.47761 0.0
O131 O 0.21386 0.99237 0.48831 0.0
C132 C 0.2047 1.0009 0.47459 0.0
C133 C 0.19307 0.00786 0.58327 0.0
C134 C 0.17622 0.03056 0.52335 0.0
C135 C 0.16348 0.97134 0.52856 0.0
O136 O 0.16511 0.98181 0.54362 0.0
O137 O 0.17183 0.9753 0.51267 0.0
O138 O 0.17457 0.00953 0.58246 0.0
O139 O 0.20243 0.00636 0.56731 0.0
O140 O 0.26421 0.89329 0.8148 0.0
Cd141 Cd 0.2405 0.90871 0.80571 0.0
Cd142 Cd 0.26513 0.91976 0.78037 0.0
O143 O 0.28556 0.9113 0.80004 0.0
O144 O 0.22426 0.91388 0.82871 0.0
O145 O 0.24053 0.93642 0.81327 0.0
C146 C 0.22999 0.93151 0.82771 0.0
C147 C 0.26573 0.94727 0.76144 0.0
C148 C 0.28164 0.89796 0.81185 0.0
C149 C 0.23465 0.89219 0.76792 0.0
O150 O 0.25188 0.89779 0.76585 0.0
O151 O 0.22516 0.8974 0.78262 0.0
O152 O 0.27833 0.93389 0.75933 0.0
O153 O 0.25395 0.94593 0.77568 0.0
O154 O 0.34809 0.02171 0.0412 0.0
Cd155 Cd 0.3312 0.99802 0.0355 0.0
Cd156 Cd 0.31844 0.02051 0.00764 0.0
O157 O 0.33194 0.04209 0.02319 0.0
O158 O 0.3267 0.98452 0.0603 0.0
O159 O 0.30384 0.99967 0.04418 0.0
C160 C 0.30915 0.99049 0.0594 0.0
C161 C 0.28917 0.02302 0.99146 0.0
C162 C 0.34511 0.03876 0.03546 0.0
C163 C 0.34247 0.98592 0.99693 0.0
O164 O 0.33596 0.00232 0.99247 0.0
O165 O 0.34075 0.97975 0.014 0.0
O166 O 0.30395 0.03291 0.98633 0.0
O167 O 0.2904 0.01331 0.00718 0.0
O168 O 0.80071 0.26401 0.90858 0.0
Cd169 Cd 0.79655 0.23906 0.92354 0.0
Cd170 Cd 0.76274 0.25861 0.93432 0.0
O171 O 0.77743 0.2812 0.92152 0.0
O172 O 0.82269 0.22798 0.9272 0.0
O173 O 0.80482 0.23877 0.95116 0.0
C174 C 0.82105 0.23197 0.94523 0.0
C175 C 0.73898 0.26467 0.95757 0.0
C176 C 0.79188 0.27985 0.9104 0.0
C177 C 0.76067 0.22269 0.9085 0.0
O178 O 0.753 0.23727 0.91629 0.0
O179 O 0.77856 0.21946 0.91023 0.0
O180 O 0.73758 0.271 0.94034 0.0
O181 O 0.75468 0.256 0.96223 0.0
O182 O 0.99974 0.50747 0.15995 0.0
Cd183 Cd 0.98397 0.52352 0.17879 0.0
Cd184 Cd 0.00847 0.54939 0.16691 0.0
O185 O 0.0251 0.52627 0.15792 0.0
O186 O 0.9715 0.5031 0.19445 0.0
O187 O 0.9939 0.52264 0.20583 0.0
C188 C 0.98341 0.50747 0.208 0.0
C189 C 0.01764 0.5735 0.18826 0.0
C190 C 0.01698 0.51019 0.15468 0.0
C191 C 0.96765 0.55251 0.15317 0.0
O192 O 0.9852 0.55643 0.14991 0.0
O193 O 0.96324 0.54096 0.16661 0.0
O194 O 0.02377 0.57337 0.17077 0.0
O195 O 0.00741 0.5591 0.19395 0.0
O196 O 0.72111 0.72384 0.40314 0.0
Cd197 Cd 0.72457 0.7474 0.42085 0.0
Cd198 Cd 0.75846 0.72658 0.43021 0.0
O199 O 0.74521 0.70585 0.41331 0.0
O200 O 0.6983 0.75854 0.42373 0.0
O201 O 0.71443 0.74568 0.44784 0.0
C202 C 0.69878 0.75341 0.4415 0.0
C203 C 0.78039 0.71897 0.45468 0.0
C204 C 0.73058 0.70826 0.40258 0.0
C205 C 0.76146 0.76575 0.41031 0.0
O206 O 0.76881 0.75016 0.41614 0.0
O207 O 0.74344 0.76857 0.41151 0.0
O208 O 0.78338 0.71419 0.43711 0.0
O209 O 0.76399 0.72655 0.45881 0.0
O210 O 0.91262 0.74913 0.24824 0.0
Cd211 Cd 0.93134 0.7635 0.26596 0.0
Cd212 Cd 0.91992 0.79157 0.24279 0.0
O213 O 0.90772 0.77053 0.22555 0.0
O214 O 0.94388 0.74136 0.27902 0.0
O215 O 0.95936 0.76057 0.2592 0.0
C216 C 0.95915 0.74503 0.26927 0.0
C217 C 0.94382 0.81322 0.23403 0.0
C218 C 0.9054 0.7537 0.23216 0.0
C219 C 0.90661 0.79334 0.28368 0.0
O220 O 0.90413 0.79913 0.26657 0.0
O221 O 0.91881 0.78019 0.28722 0.0
O222 O 0.92623 0.81553 0.22852 0.0
O223 O 0.948 0.79784 0.24351 0.0
O224 O 0.5804 0.2354 0.7262 0.0
Cd225 Cd 0.58663 0.25028 0.75036 0.0
Cd226 Cd 0.59594 0.20205 0.73173 0.0
O227 O 0.60084 0.22032 0.70889 0.0
O228 O 0.59093 0.27816 0.74605 0.0
O229 O 0.5654 0.26628 0.76103 0.0
C230 C 0.57457 0.281 0.75436 0.0
C231 C 0.57807 0.17398 0.72923 0.0
C232 C 0.59248 0.23595 0.71267 0.0
C233 C 0.61474 0.22097 0.76914 0.0
O234 O 0.61152 0.20763 0.75686 0.0
O235 O 0.60658 0.23742 0.76841 0.0
O236 O 0.59607 0.17434 0.72464 0.0
O237 O 0.57015 0.18982 0.73483 0.0
O238 O 0.50449 0.52718 0.6767 0.0
Cd239 Cd 0.52377 0.51143 0.69248 0.0
Cd240 Cd 0.49807 0.48548 0.68379 0.0
O241 O 0.47943 0.50791 0.67795 0.0
O242 O 0.53939 0.53228 0.70445 0.0
O243 O 0.52008 0.51337 0.72102 0.0
C244 C 0.53094 0.52842 0.72043 0.0
C245 C 0.49583 0.46151 0.70661 0.0
C246 C 0.4867 0.52417 0.6739 0.0
C247 C 0.53577 0.48207 0.66446 0.0
O248 O 0.51785 0.47884 0.66296 0.0
O249 O 0.54201 0.49328 0.67754 0.0
O250 O 0.4855 0.46092 0.69117 0.0
O251 O 0.50586 0.47682 0.70992 0.0
O252 O 0.04374 0.35671 0.01736 0.0
Cd253 Cd 0.03764 0.33958 0.99398 0.0
Cd254 Cd 0.01001 0.32736 0.01765 0.0
O255 O 0.02652 0.34075 0.03853 0.0
O256 O 0.06214 0.33736 0.9794 0.0
O257 O 0.04865 0.31297 0.99465 0.0
C258 C 0.06303 0.31975 0.98506 0.0
C259 C 0.99237 0.29911 0.02193 0.0
C260 C 0.03862 0.3539 0.03462 0.0
C261 C 0.99868 0.35122 0.98322 0.0
O262 O 0.99473 0.34518 0.99992 0.0
O263 O 0.01543 0.34881 0.97635 0.0
O264 O 0.98868 0.3144 0.03166 0.0
O265 O 0.00747 0.2992 0.01116 0.0
O266 O 0.46138 0.66639 0.53126 0.0
Cd267 Cd 0.46912 0.68091 0.50655 0.0
Cd268 Cd 0.49725 0.68992 0.52953 0.0
O269 O 0.47849 0.6837 0.5515 0.0
O270 O 0.44467 0.68383 0.49196 0.0
O271 O 0.46042 0.70829 0.50494 0.0
C272 C 0.44529 0.70187 0.49621 0.0
C273 C 0.51997 0.71457 0.52837 0.0
C274 C 0.46565 0.67104 0.54841 0.0
C275 C 0.50474 0.66137 0.49861 0.0
O276 O 0.50799 0.66624 0.51586 0.0
O277 O 0.49042 0.66841 0.48972 0.0
O278 O 0.52103 0.70112 0.54099 0.0
O279 O 0.50475 0.71522 0.51772 0.0
O280 O 0.66816 0.50315 0.52221 0.0
Cd281 Cd 0.6858 0.52261 0.50898 0.0
Cd282 Cd 0.67538 0.49991 0.47995 0.0
O283 O 0.66574 0.48053 0.50021 0.0
O284 O 0.69673 0.53559 0.53202 0.0
O285 O 0.71406 0.51737 0.51275 0.0
C286 C 0.71262 0.52676 0.5287 0.0
C287 C 0.69691 0.49396 0.45535 0.0
C288 C 0.66276 0.48646 0.5172 0.0
C289 C 0.6599 0.54006 0.48036 0.0
O290 O 0.6578 0.52294 0.47435 0.0
O291 O 0.67237 0.54388 0.4932 0.0
O292 O 0.67953 0.48744 0.45469 0.0
O293 O 0.70257 0.50243 0.47092 0.0
O294 O 0.71975 0.40419 0.72136 0.0
Cd295 Cd 0.74431 0.4201 0.72689 0.0
Cd296 Cd 0.7227 0.43144 0.75711 0.0
O297 O 0.70068 0.4171 0.74314 0.0
O298 O 0.75804 0.42258 0.70193 0.0
O299 O 0.74497 0.44723 0.71715 0.0
C300 C 0.75386 0.44062 0.70226 0.0
C301 C 0.71995 0.46014 0.77419 0.0
C302 C 0.7033 0.40561 0.72917 0.0
C303 C 0.75844 0.40802 0.76498 0.0
O304 O 0.74246 0.41457 0.77074 0.0
O305 O 0.76324 0.40963 0.74746 0.0
O306 O 0.71109 0.44481 0.77954 0.0
O307 O 0.72864 0.45977 0.75782 0.0
O308 O 0.85208 0.49786 0.95495 0.0
Cd309 Cd 0.83453 0.52106 0.96059 0.0
Cd310 Cd 0.82167 0.49774 0.98786 0.0
O311 O 0.83601 0.47687 0.97231 0.0
O312 O 0.82908 0.53433 0.93589 0.0
O313 O 0.80708 0.51832 0.95239 0.0
C314 C 0.81176 0.52772 0.9371 0.0
C315 C 0.79395 0.49242 0.00589 0.0
C316 C 0.84935 0.48068 0.96043 0.0
C317 C 0.84486 0.53314 0.99925 0.0
O318 O 0.83846 0.51656 0.00321 0.0
O319 O 0.84347 0.53956 0.98225 0.0
O320 O 0.80993 0.48405 0.0099 0.0
O321 O 0.79301 0.50206 0.99012 0.0
O322 O 0.717 0.58087 0.23098 0.0
Cd323 Cd 0.74209 0.58203 0.24562 0.0
Cd324 Cd 0.72471 0.59576 0.19855 0.0
O325 O 0.70231 0.60358 0.21638 0.0
O326 O 0.73771 0.58399 0.27356 0.0
O327 O 0.75082 0.55849 0.25951 0.0
C328 C 0.74458 0.56683 0.27489 0.0
C329 C 0.72153 0.57859 0.1703 0.0
C330 C 0.70566 0.59505 0.23202 0.0
C331 C 0.7638 0.60975 0.21855 0.0
O332 O 0.75121 0.60824 0.20522 0.0
O333 O 0.76233 0.6009 0.23457 0.0
O334 O 0.71989 0.59708 0.17046 0.0
O335 O 0.72432 0.56977 0.18638 0.0
H336 H 0.25916 0.29232 0.13242 0.0
H337 H 0.23321 0.2963 0.15586 0.0
H338 H 0.19251 0.30354 0.10967 0.0
H339 H 0.21824 0.29838 0.08632 0.0
H340 H 0.20578 0.32068 0.16634 0.0
H341 H 0.1718 0.25617 0.13421 0.0
H342 H 0.19527 0.26444 0.12716 0.0
H343 H 0.174 0.27543 0.11737 0.0
C344 C 0.24477 0.2954 0.12735 0.0
C345 C 0.2406 0.29505 0.10765 0.0
C346 C 0.22992 0.29754 0.14072 0.0
C347 C 0.21078 0.29955 0.13452 0.0
C348 C 0.20703 0.30132 0.1148 0.0
H349 H 0.11511 0.31805 0.21414 0.0
H350 H 0.14016 0.32219 0.18994 0.0
C351 C 0.22176 0.29868 0.10146 0.0
C352 C 0.1947 0.29797 0.14846 0.0
H353 H 0.15404 0.27225 0.1582 0.0
C354 C 0.19446 0.3101 0.16458 0.0
C355 C 0.18016 0.28381 0.14644 0.0
C356 C 0.18039 0.26909 0.13049 0.0
C357 C 0.18004 0.30856 0.17862 0.0
C358 C 0.16505 0.29496 0.17613 0.0
C359 C 0.16536 0.28283 0.16004 0.0
C360 C 0.14927 0.29249 0.19031 0.0
C361 C 0.18148 0.32109 0.19627 0.0
C362 C 0.14527 0.27422 0.19788 0.0
C363 C 0.13055 0.27171 0.21127 0.0
C364 C 0.11966 0.28746 0.21757 0.0
C365 C 0.12339 0.30566 0.20971 0.0
C366 C 0.13787 0.30809 0.19602 0.0
H367 H 0.19645 0.32609 0.19876 0.0
H368 H 0.17236 0.33398 0.1943 0.0
H369 H 0.17652 0.31335 0.20926 0.0
H370 H 0.15377 0.26191 0.19364 0.0
H371 H 0.12813 0.25754 0.21715 0.0
H372 H 0.99589 0.82841 0.43012 0.0
H373 H 0.98893 0.8535 0.40661 0.0
H374 H 0.94173 0.87334 0.4413 0.0
H375 H 0.94859 0.84844 0.46494 0.0
H376 H 0.95368 0.86708 0.38565 0.0
H377 H 0.98225 0.91794 0.44072 0.0
H378 H 0.98603 0.89239 0.44237 0.0
H379 H 0.96287 0.90234 0.44766 0.0
C380 C 0.98372 0.83777 0.43252 0.0
C381 C 0.97302 0.83663 0.44957 0.0
C382 C 0.97975 0.85209 0.41906 0.0
C383 C 0.96503 0.86542 0.42242 0.0
C384 C 0.9533 0.86331 0.4386 0.0
H385 H 0.97362 0.97881 0.36893 0.0
H386 H 0.95711 0.95285 0.38622 0.0
C387 C 0.95727 0.84906 0.45207 0.0
C388 C 0.96366 0.88281 0.41037 0.0
H389 H 0.97607 0.93018 0.41024 0.0
C390 C 0.95826 0.88097 0.39106 0.0
C391 C 0.96941 0.90095 0.41755 0.0
C392 C 0.97558 0.90366 0.43817 0.0
C393 C 0.95929 0.89668 0.3785 0.0
C394 C 0.96639 0.91448 0.38537 0.0
C395 C 0.97058 0.91657 0.40497 0.0
C396 C 0.97283 0.92995 0.37225 0.0
C397 C 0.9532 0.89389 0.35791 0.0
C398 C 0.98679 0.9257 0.35842 0.0
C399 C 0.99615 0.94037 0.34866 0.0
C400 C 0.99193 0.95971 0.35261 0.0
C401 C 0.97712 0.96404 0.36558 0.0
C402 C 0.96772 0.94923 0.37545 0.0
H403 H 0.94126 0.88332 0.35685 0.0
H404 H 0.94852 0.90758 0.35127 0.0
H405 H 0.96547 0.88808 0.34958 0.0
H406 H 0.99141 0.91105 0.35602 0.0
H407 H 0.00741 0.93655 0.33864 0.0
H408 H 0.26155 0.69508 0.63227 0.0
H409 H 0.28709 0.68325 0.65365 0.0
H410 H 0.32708 0.72307 0.62822 0.0
H411 H 0.30204 0.73461 0.60684 0.0
H412 H 0.3436 0.68728 0.6364 0.0
H413 H 0.30372 0.71748 0.69886 0.0
H414 H 0.29153 0.69977 0.68449 0.0
H415 H 0.29701 0.72284 0.67446 0.0
C416 C 0.2759 0.70099 0.63101 0.0
C417 C 0.2797 0.71598 0.61809 0.0
C418 C 0.29043 0.69432 0.64329 0.0
C419 C 0.30889 0.70255 0.64274 0.0
C420 C 0.31294 0.71657 0.62896 0.0
H421 H 0.41147 0.72816 0.70067 0.0
H422 H 0.38666 0.71954 0.67736 0.0
C423 C 0.29854 0.72323 0.61681 0.0
C424 C 0.32372 0.69818 0.65741 0.0
H425 H 0.33528 0.70755 0.70412 0.0
C426 C 0.34169 0.69135 0.65131 0.0
C427 C 0.32122 0.70351 0.67685 0.0
C428 C 0.30241 0.71143 0.68415 0.0
C429 C 0.35744 0.69052 0.66393 0.0
C430 C 0.35522 0.69697 0.68304 0.0
C431 C 0.33697 0.70266 0.68944 0.0
C432 C 0.37182 0.6998 0.69617 0.0
C433 C 0.37641 0.68314 0.65655 0.0
C434 C 0.37179 0.69157 0.71452 0.0
C435 C 0.38589 0.69659 0.72795 0.0
C436 C 0.40024 0.71009 0.72335 0.0
C437 C 0.4007 0.71769 0.70469 0.0
C438 C 0.38658 0.71265 0.69127 0.0
H439 H 0.3743 0.67298 0.64441 0.0
H440 H 0.38507 0.69539 0.65121 0.0
H441 H 0.38468 0.67583 0.66803 0.0
H442 H 0.36048 0.68171 0.71865 0.0
H443 H 0.3851 0.69042 0.74217 0.0
H444 H 0.56021 0.14219 0.96928 0.0
H445 H 0.56796 0.1161 0.9472 0.0
H446 H 0.52642 0.13776 0.90674 0.0
H447 H 0.51873 0.16409 0.92864 0.0
H448 H 0.54153 0.08936 0.93706 0.0
H449 H 0.57068 0.12324 0.87165 0.0
H450 H 0.56936 0.13571 0.89438 0.0
H451 H 0.54851 0.134 0.87913 0.0
C452 C 0.55301 0.14169 0.9555 0.0
C453 C 0.53872 0.15517 0.95079 0.0
C454 C 0.5575 0.12676 0.94289 0.0
C455 C 0.5479 0.12503 0.92526 0.0
C456 C 0.53433 0.13902 0.92008 0.0
H457 H 0.51061 0.04583 0.84443 0.0
H458 H 0.52194 0.07305 0.8631 0.0
C459 C 0.52985 0.15402 0.93268 0.0
C460 C 0.55011 0.10737 0.91353 0.0
H461 H 0.55723 0.09145 0.86775 0.0
C462 C 0.5454 0.08972 0.922 0.0
C463 C 0.55521 0.10788 0.89392 0.0
C464 C 0.56142 0.12621 0.88428 0.0
C465 C 0.54428 0.07279 0.9111 0.0
C466 C 0.54836 0.07348 0.89124 0.0
C467 C 0.55415 0.09094 0.88299 0.0
C468 C 0.54374 0.05711 0.87839 0.0
C469 C 0.53745 0.05461 0.92068 0.0
C470 C 0.55264 0.0391 0.88035 0.0
C471 C 0.54606 0.02328 0.86967 0.0
C472 C 0.5305 0.02532 0.85693 0.0
C473 C 0.52243 0.04364 0.85431 0.0
C474 C 0.52898 0.05931 0.86489 0.0
H475 H 0.5321 0.05725 0.93546 0.0
H476 H 0.52576 0.04781 0.91217 0.0
H477 H 0.54954 0.04428 0.92156 0.0
H478 H 0.56428 0.03718 0.89049 0.0
H479 H 0.55264 0.00939 0.8719 0.0
H480 H 0.1823 0.12738 0.24861 0.0
H481 H 0.16131 0.15436 0.25622 0.0
H482 H 0.19079 0.16229 0.3102 0.0
H483 H 0.21255 0.13592 0.30214 0.0
H484 H 0.13647 0.1617 0.28245 0.0
H485 H 0.19502 0.21524 0.29002 0.0
H486 H 0.19926 0.19125 0.28134 0.0
H487 H 0.19707 0.19581 0.30669 0.0
C488 C 0.18424 0.13479 0.26216 0.0
C489 C 0.19918 0.12964 0.2747 0.0
C490 C 0.17225 0.15026 0.2665 0.0
C491 C 0.17474 0.16076 0.28358 0.0
C492 C 0.18899 0.15493 0.29662 0.0
H493 H 0.08446 0.24479 0.31333 0.0
H494 H 0.10556 0.21654 0.31409 0.0
C495 C 0.20128 0.13971 0.2921 0.0
C496 C 0.16242 0.17779 0.28747 0.0
H497 H 0.16364 0.22586 0.29734 0.0
C498 C 0.14243 0.17573 0.28572 0.0
C499 C 0.17017 0.19619 0.29153 0.0
C500 C 0.19155 0.19985 0.29232 0.0
C501 C 0.13003 0.19151 0.2874 0.0
C502 C 0.13769 0.20985 0.29187 0.0
C503 C 0.15768 0.21183 0.29409 0.0
C504 C 0.1255 0.22744 0.29286 0.0
C505 C 0.109 0.18845 0.28321 0.0
C506 C 0.13018 0.24346 0.28156 0.0
C507 C 0.11854 0.25978 0.28167 0.0
C508 C 0.10185 0.26036 0.29292 0.0
C509 C 0.09731 0.24462 0.30458 0.0
C510 C 0.10921 0.2284 0.30479 0.0
H511 H 0.10633 0.17486 0.27525 0.0
H512 H 0.10098 0.18767 0.29692 0.0
H513 H 0.10327 0.20047 0.27456 0.0
H514 H 0.14262 0.24318 0.27225 0.0
H515 H 0.1222 0.27171 0.27243 0.0
H516 H 0.01125 0.86777 0.52555 0.0
H517 H 0.0369 0.8914 0.53091 0.0
H518 H 0.0777 0.84547 0.5385 0.0
H519 H 0.05231 0.82196 0.532 0.0
H520 H 0.06329 0.90151 0.55658 0.0
H521 H 0.09999 0.87157 0.49275 0.0
H522 H 0.07629 0.864 0.49985 0.0
H523 H 0.09724 0.85415 0.51142 0.0
C524 C 0.02558 0.86278 0.529 0.0
C525 C 0.02989 0.84313 0.5284 0.0
C526 C 0.04027 0.87627 0.53191 0.0
C527 C 0.05938 0.87022 0.53444 0.0
C528 C 0.06322 0.8505 0.53589 0.0
H529 H 0.1532 0.95036 0.55995 0.0
H530 H 0.1286 0.92535 0.56186 0.0
C531 C 0.04867 0.83707 0.5325 0.0
C532 C 0.0754 0.88439 0.53389 0.0
H533 H 0.11702 0.89523 0.51031 0.0
C534 C 0.07505 0.90015 0.54646 0.0
C535 C 0.0905 0.88291 0.52034 0.0
C536 C 0.09096 0.86737 0.50519 0.0
C537 C 0.08943 0.91435 0.54599 0.0
C538 C 0.105 0.91237 0.53304 0.0
C539 C 0.10526 0.89666 0.52041 0.0
C540 C 0.12082 0.92673 0.5318 0.0
C541 C 0.08736 0.93163 0.55893 0.0
C542 C 0.12553 0.93506 0.51405 0.0
C543 C 0.14002 0.94894 0.51282 0.0
C544 C 0.14995 0.95493 0.52935 0.0
C545 C 0.14565 0.94617 0.54699 0.0
C546 C 0.13142 0.93203 0.54814 0.0
H547 H 0.07217 0.93387 0.56327 0.0
H548 H 0.09591 0.92936 0.57217 0.0
H549 H 0.09258 0.94488 0.55181 0.0
H550 H 0.11767 0.93113 0.50119 0.0
H551 H 0.14291 0.95551 0.49905 0.0
H552 H 0.27849 0.86905 0.83817 0.0
H553 H 0.30297 0.8454 0.84655 0.0
H554 H 0.34426 0.87561 0.81174 0.0
H555 H 0.32006 0.89948 0.80363 0.0
H556 H 0.318 0.82266 0.81998 0.0
H557 H 0.37764 0.86031 0.85622 0.0
H558 H 0.35398 0.87073 0.854 0.0
H559 H 0.37103 0.87258 0.83464 0.0
C560 C 0.29293 0.87098 0.83274 0.0
C561 C 0.29726 0.88607 0.82006 0.0
C562 C 0.30692 0.85744 0.83757 0.0
C563 C 0.32552 0.85876 0.82991 0.0
C564 C 0.33017 0.87448 0.81822 0.0
H565 H 0.41363 0.79556 0.78434 0.0
H566 H 0.39237 0.81864 0.79959 0.0
C567 C 0.31623 0.88808 0.81345 0.0
C568 C 0.33901 0.84235 0.83143 0.0
H569 H 0.38639 0.83156 0.83807 0.0
C570 C 0.33283 0.82443 0.82448 0.0
C571 C 0.35834 0.84463 0.83735 0.0
C572 C 0.36556 0.86308 0.84616 0.0
C573 C 0.34578 0.80927 0.82172 0.0
C574 C 0.3654 0.81203 0.82629 0.0
C575 C 0.37134 0.82949 0.83453 0.0
C576 C 0.38023 0.79833 0.81962 0.0
C577 C 0.33863 0.79094 0.81252 0.0
C578 C 0.38093 0.77932 0.82627 0.0
C579 C 0.39313 0.76594 0.81747 0.0
C580 C 0.4047 0.77144 0.80189 0.0
C581 C 0.40472 0.79077 0.79612 0.0
C582 C 0.39266 0.80405 0.80492 0.0
H583 H 0.32345 0.79205 0.80768 0.0
H584 H 0.34767 0.78714 0.79996 0.0
H585 H 0.33961 0.77905 0.82301 0.0
H586 H 0.37159 0.77469 0.83777 0.0
H587 H 0.39287 0.75118 0.82229 0.0
H588 H 0.3747 0.03644 0.06125 0.0
H589 H 0.39932 0.0606 0.06791 0.0
H590 H 0.37062 0.10019 0.03008 0.0
H591 H 0.34581 0.07621 0.02346 0.0
H592 H 0.42287 0.07458 0.04007 0.0
H593 H 0.38487 0.13476 0.07511 0.0
H594 H 0.37479 0.11088 0.07359 0.0
H595 H 0.37305 0.12701 0.05353 0.0
C596 C 0.37336 0.05043 0.05464 0.0
C597 C 0.3583 0.05434 0.04171 0.0
C598 C 0.38746 0.06422 0.0585 0.0
C599 C 0.38673 0.08226 0.04966 0.0
C600 C 0.37127 0.08652 0.03741 0.0
H601 H 0.45373 0.17188 0.00987 0.0
H602 H 0.42947 0.1505 0.02294 0.0
C603 C 0.35714 0.07273 0.03353 0.0
C604 C 0.40326 0.09568 0.05122 0.0
H605 H 0.4148 0.14263 0.05938 0.0
C606 C 0.42126 0.08936 0.04472 0.0
C607 C 0.40112 0.11491 0.05735 0.0
C608 C 0.38245 0.12225 0.06548 0.0
C609 C 0.43679 0.10208 0.04282 0.0
C610 C 0.43435 0.1216 0.04793 0.0
C611 C 0.41667 0.12767 0.05551 0.0
C612 C 0.44882 0.13632 0.04264 0.0
C613 C 0.45525 0.09481 0.03409 0.0
C614 C 0.46769 0.13598 0.0499 0.0
C615 C 0.48176 0.14826 0.04234 0.0
C616 C 0.47709 0.16097 0.02742 0.0
C617 C 0.45789 0.16207 0.02116 0.0
C618 C 0.44394 0.14991 0.02871 0.0
H619 H 0.45374 0.08002 0.02827 0.0
H620 H 0.46003 0.10441 0.02233 0.0
H621 H 0.46668 0.09466 0.04521 0.0
H622 H 0.47167 0.12579 0.06091 0.0
H623 H 0.49641 0.14715 0.0475 0.0
H624 H 0.08887 0.98931 0.36797 0.0
H625 H 0.10895 0.99559 0.39612 0.0
H626 H 0.08015 0.04972 0.40481 0.0
H627 H 0.05936 0.04301 0.37725 0.0
H628 H 0.13388 0.02136 0.40587 0.0
H629 H 0.0729 0.02714 0.4565 0.0
H630 H 0.06977 0.01945 0.43199 0.0
H631 H 0.07176 0.04461 0.43771 0.0
C632 C 0.08694 0.00263 0.37579 0.0
C633 C 0.07243 0.01558 0.37053 0.0
C634 C 0.09838 0.00619 0.39193 0.0
C635 C 0.09571 0.02289 0.40297 0.0
C636 C 0.08202 0.0364 0.397 0.0
H637 H 0.18126 0.05287 0.49168 0.0
H638 H 0.16167 0.05282 0.46228 0.0
C639 C 0.07029 0.03265 0.38111 0.0
C640 C 0.10722 0.02595 0.42075 0.0
H641 H 0.10373 0.03473 0.46888 0.0
C642 C 0.12727 0.02425 0.41965 0.0
C643 C 0.0986 0.02949 0.43883 0.0
C644 C 0.07708 0.03008 0.44141 0.0
C645 C 0.13891 0.02569 0.43606 0.0
C646 C 0.13041 0.02983 0.45406 0.0
C647 C 0.11034 0.03178 0.45511 0.0
C648 C 0.14181 0.031 0.47217 0.0
C649 C 0.16009 0.0219 0.43392 0.0
C650 C 0.13669 0.0195 0.48791 0.0
C651 C 0.14748 0.02 0.50483 0.0
C652 C 0.16372 0.03188 0.50632 0.0
C653 C 0.16872 0.04367 0.49083 0.0
C654 C 0.15769 0.04343 0.47396 0.0
H655 H 0.16333 0.01364 0.42066 0.0
H656 H 0.16778 0.03582 0.43297 0.0
H657 H 0.16566 0.01373 0.44637 0.0
H658 H 0.12454 0.0098 0.48696 0.0
H659 H 0.1435 0.01062 0.51655 0.0
H660 H 0.19189 0.76842 0.63619 0.0
H661 H 0.18327 0.78952 0.66285 0.0
H662 H 0.22335 0.83204 0.64235 0.0
H663 H 0.23175 0.81123 0.61547 0.0
H664 H 0.20855 0.79888 0.68976 0.0
H665 H 0.17981 0.86594 0.6593 0.0
H666 H 0.1814 0.84403 0.64546 0.0
H667 H 0.20198 0.85961 0.64791 0.0
C668 C 0.1985 0.78248 0.63705 0.0
C669 C 0.21265 0.78807 0.62377 0.0
C670 C 0.19352 0.79454 0.6523 0.0
C671 C 0.20252 0.81244 0.65456 0.0
C672 C 0.21584 0.8185 0.6407 0.0
H673 H 0.25408 0.87169 0.74127 0.0
H674 H 0.24119 0.85175 0.71564 0.0
C675 C 0.22075 0.8065 0.62537 0.0
C676 C 0.2004 0.82338 0.67275 0.0
H677 H 0.19587 0.8689 0.69047 0.0
C678 C 0.2052 0.81408 0.68996 0.0
C679 C 0.19585 0.84317 0.67316 0.0
C680 C 0.18927 0.8537 0.65546 0.0
C681 C 0.20717 0.82434 0.70717 0.0
C682 C 0.2044 0.84439 0.70716 0.0
C683 C 0.19807 0.8535 0.69038 0.0
C684 C 0.21145 0.85633 0.72325 0.0
C685 C 0.2134 0.81389 0.72505 0.0
C686 C 0.1989 0.86551 0.73607 0.0
C687 C 0.20628 0.87692 0.75102 0.0
C688 C 0.22625 0.87948 0.75304 0.0
C689 C 0.23863 0.87014 0.74011 0.0
C690 C 0.2313 0.85869 0.72545 0.0
H691 H 0.21037 0.79826 0.72404 0.0
H692 H 0.22911 0.81583 0.72707 0.0
H693 H 0.20605 0.8198 0.7379 0.0
H694 H 0.1835 0.86383 0.7345 0.0
H695 H 0.19641 0.884 0.76071 0.0
H696 H 0.33915 0.98982 0.9584 0.0
H697 H 0.35952 0.976 0.93372 0.0
H698 H 0.3898 0.94331 0.97663 0.0
H699 H 0.36936 0.95739 0.00172 0.0
H700 H 0.41347 0.96565 0.95471 0.0
H701 H 0.36513 0.9249 0.90671 0.0
H702 H 0.35577 0.94836 0.91156 0.0
H703 H 0.35844 0.93144 0.93089 0.0
C704 C 0.34987 0.97938 0.96261 0.0
C705 C 0.35277 0.97481 0.98204 0.0
C706 C 0.36138 0.9713 0.94841 0.0
C707 C 0.37602 0.9584 0.95325 0.0
C708 C 0.37843 0.95309 0.97256 0.0
H709 H 0.47518 0.93908 0.87784 0.0
H710 H 0.45154 0.93262 0.9029 0.0
C711 C 0.36676 0.96111 0.98686 0.0
C712 C 0.39034 0.95299 0.93847 0.0
H713 H 0.39409 0.93783 0.89197 0.0
C714 C 0.40938 0.95908 0.94117 0.0
C715 C 0.38495 0.94453 0.92077 0.0
C716 C 0.36498 0.93676 0.91739 0.0
C717 C 0.42282 0.95824 0.92621 0.0
C718 C 0.41714 0.95073 0.90817 0.0
C719 C 0.39838 0.94366 0.90578 0.0
C720 C 0.43003 0.95173 0.89129 0.0
C721 C 0.44261 0.96658 0.9295 0.0
C722 C 0.42532 0.96373 0.87584 0.0
C723 C 0.43873 0.96733 0.86136 0.0
C724 C 0.45711 0.95903 0.86216 0.0
C725 C 0.46124 0.94592 0.87694 0.0
C726 C 0.44778 0.94224 0.89132 0.0
H727 H 0.44343 0.97512 0.94296 0.0
H728 H 0.4532 0.95474 0.93055 0.0
H729 H 0.44688 0.97592 0.91734 0.0
H730 H 0.41164 0.97113 0.87552 0.0
H731 H 0.43506 0.97744 0.85017 0.0
H732 H 0.30003 0.12767 0.23756 0.0
H733 H 0.31722 0.14659 0.21327 0.0
H734 H 0.27836 0.12557 0.16969 0.0
H735 H 0.26167 0.10645 0.19344 0.0
H736 H 0.31519 0.12942 0.15601 0.0
H737 H 0.29139 0.19542 0.19469 0.0
H738 H 0.30659 0.1791 0.20758 0.0
H739 H 0.28262 0.17196 0.2011 0.0
C740 C 0.29546 0.12681 0.22272 0.0
C741 C 0.27925 0.11589 0.2175 0.0
C742 C 0.30521 0.13769 0.20889 0.0
C743 C 0.2988 0.1378 0.18974 0.0
C744 C 0.28353 0.12579 0.18437 0.0
H745 H 0.27995 0.19741 0.08936 0.0
H746 H 0.28772 0.17289 0.11309 0.0
C747 C 0.27389 0.11497 0.19805 0.0
C748 C 0.30614 0.15173 0.17546 0.0
H749 H 0.30276 0.19906 0.16358 0.0
C750 C 0.31291 0.14472 0.15779 0.0
C751 C 0.30316 0.17169 0.1778 0.0
C752 C 0.29544 0.18009 0.19623 0.0
C753 C 0.3156 0.15698 0.14206 0.0
C754 C 0.31128 0.17668 0.14405 0.0
C755 C 0.306 0.18391 0.1621 0.0
C756 C 0.30973 0.18971 0.12736 0.0
C757 C 0.32238 0.14863 0.12329 0.0
C758 C 0.31974 0.20719 0.12727 0.0
C759 C 0.31524 0.22129 0.11379 0.0
C760 C 0.30049 0.21824 0.10024 0.0
C761 C 0.29138 0.20023 0.09956 0.0
C762 C 0.29591 0.18613 0.11306 0.0
H763 H 0.33106 0.13547 0.12561 0.0
H764 H 0.30971 0.1446 0.11445 0.0
H765 H 0.3311 0.15917 0.11512 0.0
H766 H 0.33038 0.21028 0.13822 0.0
H767 H 0.32266 0.23494 0.11465 0.0
H768 H 0.75638 0.41057 0.8037 0.0
H769 H 0.77293 0.39116 0.8273 0.0
H770 H 0.80519 0.3634 0.78235 0.0
H771 H 0.7882 0.3828 0.75827 0.0
H772 H 0.78728 0.33802 0.80515 0.0
H773 H 0.82507 0.38973 0.8517 0.0
H774 H 0.80065 0.39715 0.84846 0.0
H775 H 0.81653 0.39607 0.82806 0.0
C776 C 0.76723 0.40059 0.79875 0.0
C777 C 0.77084 0.39809 0.77906 0.0
C778 C 0.77691 0.38966 0.81236 0.0
C779 C 0.79057 0.37605 0.80668 0.0
C780 C 0.79485 0.374 0.78706 0.0
H781 H 0.82105 0.28131 0.88416 0.0
H782 H 0.82569 0.30523 0.85901 0.0
C783 C 0.78515 0.38507 0.77333 0.0
C784 C 0.79797 0.3623 0.82112 0.0
H785 H 0.81391 0.36026 0.86746 0.0
C786 C 0.79367 0.34278 0.81855 0.0
C787 C 0.80632 0.3685 0.83862 0.0
C788 C 0.81259 0.389 0.84176 0.0
C789 C 0.79595 0.3296 0.83356 0.0
C790 C 0.80288 0.33613 0.85152 0.0
C791 C 0.80841 0.35536 0.85372 0.0
C792 C 0.80254 0.32352 0.86855 0.0
C793 C 0.78971 0.30905 0.83052 0.0
C794 C 0.78854 0.32639 0.88273 0.0
C795 C 0.7858 0.31275 0.89715 0.0
C796 C 0.79706 0.29602 0.89761 0.0
C797 C 0.812 0.29393 0.88415 0.0
C798 C 0.81469 0.30756 0.86973 0.0
H799 H 0.78249 0.30687 0.81645 0.0
H800 H 0.80247 0.29954 0.83111 0.0
H801 H 0.77972 0.30454 0.84208 0.0
H802 H 0.77904 0.33868 0.88203 0.0
H803 H 0.77423 0.31487 0.9073 0.0
H804 H 0.97193 0.57899 0.12464 0.0
H805 H 0.94923 0.58632 0.09895 0.0
H806 H 0.90724 0.54905 0.12499 0.0
H807 H 0.92975 0.54183 0.1509 0.0
H808 H 0.93682 0.55871 0.07469 0.0
H809 H 0.87391 0.59362 0.10798 0.0
H810 H 0.89693 0.59207 0.11992 0.0
H811 H 0.88053 0.57205 0.1203 0.0
C812 C 0.95769 0.5727 0.12519 0.0
C813 C 0.95272 0.55967 0.13977 0.0
C814 C 0.94472 0.57695 0.11048 0.0
C815 C 0.92648 0.56837 0.11008 0.0
C816 C 0.92108 0.55619 0.12519 0.0
H817 H 0.84202 0.52702 0.0375 0.0
H818 H 0.86151 0.54086 0.06296 0.0
C819 C 0.93403 0.55197 0.13996 0.0
C820 C 0.91427 0.56981 0.09265 0.0
H821 H 0.86817 0.57739 0.07769 0.0
C822 C 0.92192 0.56325 0.07521 0.0
C823 C 0.89488 0.57577 0.09334 0.0
C824 C 0.88614 0.58396 0.11136 0.0
C825 C 0.91036 0.56108 0.05882 0.0
C826 C 0.89066 0.56598 0.05981 0.0
C827 C 0.88328 0.57367 0.07694 0.0
C828 C 0.87703 0.56028 0.04441 0.0
C829 C 0.91903 0.55224 0.04103 0.0
C830 C 0.87874 0.5671 0.02551 0.0
C831 C 0.86759 0.55905 0.01072 0.0
C832 C 0.85461 0.5441 0.0147 0.0
C833 C 0.85209 0.5383 0.03386 0.0
C834 C 0.86315 0.5463 0.04851 0.0
H835 H 0.93372 0.54658 0.04365 0.0
H836 H 0.90987 0.54032 0.03564 0.0
H837 H 0.91998 0.56325 0.02961 0.0
H838 H 0.88916 0.57813 0.0221 0.0
H839 H 0.86976 0.5639 0.99613 0.0
H840 H 0.75434 0.68187 0.386 0.0
H841 H 0.74748 0.66165 0.3581 0.0
H842 H 0.68865 0.68113 0.35816 0.0
H843 H 0.69573 0.70216 0.38544 0.0
H844 H 0.72502 0.63303 0.35005 0.0
H845 H 0.70261 0.69413 0.30459 0.0
H846 H 0.71299 0.6975 0.32806 0.0
H847 H 0.68789 0.69158 0.3255 0.0
C848 C 0.73989 0.6817 0.38019 0.0
C849 C 0.72563 0.69376 0.38779 0.0
C850 C 0.73598 0.67016 0.36418 0.0
C851 C 0.71768 0.67026 0.3556 0.0
C852 C 0.70307 0.68133 0.36401 0.0
H853 H 0.68976 0.58481 0.26616 0.0
H854 H 0.69108 0.60269 0.29656 0.0
C855 C 0.70708 0.69319 0.37976 0.0
C856 C 0.71414 0.65911 0.33767 0.0
H857 H 0.6984 0.66309 0.29137 0.0
C858 C 0.71923 0.63962 0.33721 0.0
C859 C 0.70684 0.66774 0.32076 0.0
C860 C 0.70246 0.68892 0.31964 0.0
C861 C 0.71743 0.6286 0.32039 0.0
C862 C 0.70954 0.63705 0.30365 0.0
C863 C 0.70426 0.65649 0.30419 0.0
C864 C 0.70764 0.62642 0.28513 0.0
C865 C 0.72475 0.60826 0.32064 0.0
C866 C 0.71563 0.63415 0.26831 0.0
C867 C 0.71431 0.62426 0.25088 0.0
C868 C 0.70512 0.60633 0.24994 0.0
C869 C 0.69684 0.59867 0.26659 0.0
C870 C 0.69784 0.60876 0.28399 0.0
H871 H 0.7354 0.60598 0.33231 0.0
H872 H 0.71252 0.59838 0.32322 0.0
H873 H 0.73162 0.60443 0.3068 0.0
H874 H 0.72325 0.64771 0.26873 0.0
H875 H 0.72105 0.63031 0.23827 0.0
H876 H 0.77345 0.62908 0.18575 0.0
H877 H 0.79801 0.65389 0.18197 0.0
H878 H 0.81507 0.64651 0.24096 0.0
H879 H 0.79051 0.62172 0.245 0.0
H880 H 0.80643 0.6855 0.22916 0.0
H881 H 0.85789 0.64871 0.18034 0.0
H882 H 0.83288 0.64819 0.1737 0.0
H883 H 0.84074 0.63569 0.19476 0.0
C884 C 0.78255 0.63254 0.19789 0.0
C885 C 0.77995 0.62338 0.21571 0.0
C886 C 0.79664 0.64669 0.19565 0.0
C887 C 0.80839 0.65194 0.21115 0.0
C888 C 0.80614 0.6426 0.22882 0.0
H889 H 0.90816 0.71505 0.23441 0.0
H890 H 0.88409 0.69145 0.22476 0.0
C891 C 0.79212 0.62839 0.23106 0.0
C892 C 0.82232 0.66791 0.20938 0.0
H893 H 0.86529 0.68051 0.18941 0.0
C894 C 0.81921 0.68454 0.22032 0.0
C895 C 0.8389 0.66654 0.19779 0.0
C896 C 0.84298 0.64881 0.18603 0.0
C897 C 0.83256 0.69964 0.22045 0.0
C898 C 0.84938 0.69813 0.20917 0.0
C899 C 0.85224 0.68171 0.19781 0.0
C900 C 0.86529 0.71212 0.2113 0.0
C901 C 0.82906 0.71666 0.23342 0.0
C902 C 0.86311 0.73147 0.2061 0.0
C903 C 0.87697 0.74508 0.21156 0.0
C904 C 0.89305 0.73943 0.22238 0.0
C905 C 0.89582 0.71984 0.22623 0.0
C906 C 0.88211 0.70632 0.22068 0.0
H907 H 0.81667 0.71435 0.24317 0.0
H908 H 0.84201 0.71975 0.24224 0.0
H909 H 0.82605 0.72951 0.22455 0.0
H910 H 0.85027 0.73617 0.19868 0.0
H911 H 0.87448 0.76009 0.20843 0.0
H912 H 0.57906 0.26818 0.69538 0.0
H913 H 0.59576 0.29909 0.69202 0.0
H914 H 0.64503 0.27559 0.72144 0.0
H915 H 0.62884 0.24455 0.72357 0.0
H916 H 0.60675 0.32367 0.71594 0.0
H917 H 0.67263 0.30046 0.6794 0.0
H918 H 0.6523 0.28465 0.68211 0.0
H919 H 0.6701 0.28675 0.70091 0.0
C920 C 0.59368 0.2696 0.70058 0.0
C921 C 0.60294 0.25398 0.70923 0.0
C922 C 0.60317 0.28725 0.6988 0.0
C923 C 0.62195 0.28965 0.70598 0.0
C924 C 0.63096 0.274 0.71497 0.0
H925 H 0.67422 0.39135 0.75112 0.0
H926 H 0.65252 0.36498 0.74307 0.0
C927 C 0.62168 0.25627 0.7163 0.0
C928 C 0.63168 0.30872 0.70533 0.0
H929 H 0.67538 0.32974 0.69813 0.0
C930 C 0.62171 0.325 0.71186 0.0
C931 C 0.65097 0.31086 0.69923 0.0
C932 C 0.66199 0.29476 0.6898 0.0
C933 C 0.63081 0.34294 0.71369 0.0
C934 C 0.65066 0.34456 0.70945 0.0
C935 C 0.66028 0.32857 0.7018 0.0
C936 C 0.66207 0.36225 0.7136 0.0
C937 C 0.61894 0.35988 0.72008 0.0
C938 C 0.67493 0.36953 0.69988 0.0
C939 C 0.6878 0.38423 0.70468 0.0
C940 C 0.68784 0.39223 0.72321 0.0
C941 C 0.67432 0.38568 0.73664 0.0
C942 C 0.66178 0.37064 0.73198 0.0
H943 H 0.60377 0.35834 0.71529 0.0
H944 H 0.61887 0.36055 0.73599 0.0
H945 H 0.62471 0.37361 0.71442 0.0
H946 H 0.6755 0.36337 0.68561 0.0
H947 H 0.69806 0.389 0.69403 0.0
H948 H 0.4361 0.64518 0.54709 0.0
H949 H 0.42763 0.62159 0.57152 0.0
H950 H 0.46929 0.64668 0.61007 0.0
H951 H 0.47757 0.67052 0.58589 0.0
H952 H 0.45329 0.59592 0.58302 0.0
H953 H 0.42671 0.63408 0.64704 0.0
H954 H 0.4276 0.64521 0.62367 0.0
H955 H 0.44868 0.6446 0.63873 0.0
C956 C 0.44307 0.64604 0.56097 0.0
C957 C 0.45767 0.65963 0.56446 0.0
C958 C 0.43817 0.63254 0.57494 0.0
C959 C 0.44771 0.63239 0.59269 0.0
C960 C 0.46139 0.64674 0.59666 0.0
H961 H 0.4953 0.56207 0.67344 0.0
H962 H 0.47981 0.5872 0.65494 0.0
C963 C 0.46623 0.66032 0.58274 0.0
C964 C 0.44585 0.61562 0.60567 0.0
H965 H 0.44252 0.60337 0.65293 0.0
C966 C 0.45037 0.59743 0.59823 0.0
C967 C 0.44197 0.61757 0.62548 0.0
C968 C 0.43576 0.63641 0.63414 0.0
C969 C 0.45278 0.58151 0.61027 0.0
C970 C 0.45032 0.58379 0.63029 0.0
C971 C 0.44443 0.60165 0.63758 0.0
C972 C 0.45715 0.56896 0.64389 0.0
C973 C 0.45946 0.56278 0.60162 0.0
C974 C 0.44912 0.55043 0.64441 0.0
C975 C 0.45806 0.53585 0.65502 0.0
C976 C 0.47515 0.53968 0.66515 0.0
C977 C 0.48232 0.55856 0.66556 0.0
C978 C 0.4734 0.57302 0.65508 0.0
H979 H 0.46297 0.56414 0.58614 0.0
H980 H 0.47239 0.55745 0.60929 0.0
H981 H 0.44795 0.55184 0.60311 0.0
H982 H 0.43642 0.54708 0.63605 0.0
H983 H 0.45216 0.52146 0.65454 0.0
H984 H 0.76636 0.21834 0.87038 0.0
H985 H 0.74106 0.21162 0.84683 0.0
H986 H 0.70247 0.19596 0.89259 0.0
H987 H 0.72739 0.20397 0.91617 0.0
H988 H 0.71657 0.185 0.83457 0.0
H989 H 0.67597 0.24228 0.87213 0.0
H990 H 0.70034 0.23633 0.87836 0.0
H991 H 0.68068 0.22193 0.88706 0.0
C992 C 0.75271 0.21274 0.87531 0.0
C993 C 0.74873 0.21167 0.895 0.0
C994 C 0.73819 0.20903 0.86187 0.0
C995 C 0.71963 0.20397 0.86799 0.0
C996 C 0.71646 0.20052 0.88758 0.0
H997 H 0.62651 0.18649 0.78375 0.0
H998 H 0.6513 0.18089 0.80804 0.0
C999 C 0.73078 0.20477 0.90103 0.0
C1000 C 0.70325 0.20473 0.85426 0.0
H1001 H 0.66055 0.22738 0.84603 0.0
C1002 C 0.70427 0.1942 0.83708 0.0
C1003 C 0.6874 0.21713 0.85733 0.0
C1004 C 0.68608 0.23021 0.8746 0.0
C1005 C 0.69 0.19583 0.82285 0.0
C1006 C 0.6739 0.20782 0.8262 0.0
C1007 C 0.67278 0.21809 0.8435 0.0
C1008 C 0.65856 0.21093 0.81163 0.0
C1009 C 0.69278 0.18533 0.8041 0.0
C1010 C 0.65372 0.22971 0.80613 0.0
C1011 C 0.63918 0.23297 0.7927 0.0
C1012 C 0.6293 0.2175 0.78426 0.0
C1013 C 0.63401 0.1987 0.78987 0.0
C1014 C 0.64832 0.19547 0.80362 0.0
H1015 H 0.7081 0.18151 0.80175 0.0
H1016 H 0.68437 0.1718 0.80433 0.0
H1017 H 0.6878 0.1941 0.79179 0.0
H1018 H 0.66135 0.24191 0.81212 0.0
H1019 H 0.636 0.24761 0.78859 0.0
H1020 H 0.05051 0.51143 0.13352 0.0
H1021 H 0.06474 0.48494 0.11492 0.0
H1022 H 0.02011 0.44692 0.13485 0.0
H1023 H 0.00608 0.47286 0.15339 0.0
H1024 H 0.05753 0.43019 0.13446 0.0
H1025 H 0.03797 0.46539 0.06536 0.0
H1026 H 0.05271 0.47859 0.08204 0.0
H1027 H 0.02816 0.47338 0.08795 0.0
C1028 C 0.04391 0.49735 0.13408 0.0
C1029 C 0.02702 0.49433 0.14471 0.0
C1030 C 0.052 0.48228 0.12342 0.0
C1031 C 0.04333 0.46403 0.12337 0.0
C1032 C 0.02703 0.46087 0.13467 0.0
H1033 H 0.02483 0.35778 0.0712 0.0
H1034 H 0.0314 0.38396 0.0936 0.0
C1035 C 0.01895 0.47581 0.14517 0.0
C1036 C 0.04998 0.44833 0.11065 0.0
H1037 H 0.04731 0.43329 0.06413 0.0
C1038 C 0.05572 0.43094 0.11902 0.0
C1039 C 0.04764 0.44938 0.09053 0.0
C1040 C 0.0412 0.46761 0.08082 0.0
C1041 C 0.05823 0.4143 0.1079 0.0
C1042 C 0.05452 0.41502 0.08795 0.0
C1043 C 0.05007 0.43272 0.07944 0.0
C1044 C 0.0531 0.39746 0.07592 0.0
C1045 C 0.06435 0.39604 0.1177 0.0
C1046 C 0.06316 0.39621 0.05853 0.0
C1047 C 0.05925 0.38136 0.04558 0.0
C1048 C 0.04513 0.36748 0.04971 0.0
C1049 C 0.03585 0.36815 0.0676 0.0
C1050 C 0.0397 0.38308 0.0805 0.0
H1051 H 0.07318 0.39917 0.13064 0.0
H1052 H 0.05138 0.38809 0.12246 0.0
H1053 H 0.07271 0.38665 0.10791 0.0
H1054 H 0.07349 0.40717 0.05465 0.0
H1055 H 0.06673 0.38123 0.03197 0.0
H1056 H 0.79957 0.77003 0.41655 0.0
H1057 H 0.82253 0.78673 0.39646 0.0
H1058 H 0.77613 0.80964 0.3624 0.0
H1059 H 0.75282 0.79236 0.38247 0.0
H1060 H 0.80096 0.79058 0.34093 0.0
H1061 H 0.84327 0.83909 0.38689 0.0
H1062 H 0.84202 0.81596 0.39795 0.0
H1063 H 0.82029 0.8296 0.39433 0.0
C1064 C 0.79416 0.77905 0.40512 0.0
C1065 C 0.77439 0.77972 0.40095 0.0
C1066 C 0.80735 0.78882 0.39374 0.0
C1067 C 0.80112 0.79967 0.37801 0.0
C1068 C 0.78126 0.80147 0.37457 0.0
H1069 H 0.87862 0.82071 0.28072 0.0
H1070 H 0.85287 0.82728 0.30359 0.0
C1071 C 0.76795 0.79166 0.38606 0.0
C1072 C 0.81549 0.80594 0.36357 0.0
H1073 H 0.86084 0.82449 0.35987 0.0
C1074 C 0.81378 0.79854 0.34489 0.0
C1075 C 0.83228 0.81628 0.36871 0.0
C1076 C 0.83444 0.82584 0.38803 0.0
C1077 C 0.82899 0.7998 0.33177 0.0
C1078 C 0.84631 0.80886 0.33745 0.0
C1079 C 0.84761 0.81737 0.35565 0.0
C1080 C 0.86364 0.80788 0.32521 0.0
C1081 C 0.82691 0.79031 0.31238 0.0
C1082 C 0.87868 0.79546 0.3302 0.0
C1083 C 0.89346 0.79162 0.31717 0.0
C1084 C 0.89341 0.80018 0.29891 0.0
C1085 C 0.87904 0.81373 0.29458 0.0
C1086 C 0.86428 0.81752 0.30761 0.0
H1087 H 0.81343 0.78183 0.31114 0.0
H1088 H 0.82681 0.80146 0.30105 0.0
H1089 H 0.83928 0.78066 0.30959 0.0
H1090 H 0.87842 0.7879 0.34376 0.0
H1091 H 0.90431 0.78119 0.32102 0.0
H1092 H 0.52694 0.45764 0.63496 0.0
H1093 H 0.54822 0.4463 0.60953 0.0
H1094 H 0.5958 0.47606 0.63601 0.0
H1095 H 0.5747 0.48733 0.66162 0.0
H1096 H 0.56641 0.47068 0.58516 0.0
H1097 H 0.62018 0.42501 0.62119 0.0
H1098 H 0.59739 0.431 0.63204 0.0
H1099 H 0.61725 0.44757 0.6333 0.0
C1100 C 0.54201 0.46151 0.63559 0.0
C1101 C 0.5491 0.47352 0.65028 0.0
C1102 C 0.55415 0.45494 0.62106 0.0
C1103 C 0.57363 0.4601 0.62101 0.0
C1104 C 0.5809 0.47151 0.63601 0.0
H1105 H 0.66527 0.48908 0.55577 0.0
H1106 H 0.64317 0.47591 0.57925 0.0
C1107 C 0.56878 0.4781 0.65056 0.0
C1108 C 0.58578 0.45586 0.60409 0.0
H1109 H 0.63037 0.44006 0.59147 0.0
C1110 C 0.58018 0.46351 0.58634 0.0
C1111 C 0.60364 0.44637 0.60568 0.0
C1112 C 0.60988 0.43684 0.62405 0.0
C1113 C 0.59272 0.46355 0.57062 0.0
C1114 C 0.61122 0.45536 0.57264 0.0
C1115 C 0.61619 0.44633 0.58994 0.0
C1116 C 0.62662 0.45951 0.5586 0.0
C1117 C 0.58666 0.47382 0.55254 0.0
C1118 C 0.62526 0.4539 0.53925 0.0
C1119 C 0.63794 0.46156 0.52564 0.0
C1120 C 0.65204 0.4749 0.53132 0.0
C1121 C 0.65433 0.47909 0.55092 0.0
C1122 C 0.64178 0.47146 0.5644 0.0
H1123 H 0.57275 0.48143 0.55426 0.0
H1124 H 0.59775 0.48445 0.54826 0.0
H1125 H 0.58506 0.46327 0.5407 0.0
H1126 H 0.61383 0.44441 0.53455 0.0
H1127 H 0.63594 0.45803 0.51062 0.0
H1128 H 0.00289 0.37559 0.95239 0.0
H1129 H 0.978 0.3964 0.93847 0.0
H1130 H 0.93593 0.37183 0.97659 0.0
H1131 H 0.96036 0.35101 0.99024 0.0
H1132 H 0.9217 0.37848 0.93926 0.0
H1133 H 0.95882 0.44248 0.97021 0.0
H1134 H 0.97235 0.42769 0.95397 0.0
H1135 H 0.9653 0.41836 0.97689 0.0
C1136 C 0.98825 0.37441 0.95751 0.0
C1137 C 0.98366 0.36187 0.97261 0.0
C1138 C 0.97409 0.38636 0.94964 0.0
C1139 C 0.9552 0.38586 0.95674 0.0
C1140 C 0.95042 0.37251 0.97094 0.0
H1141 H 0.8505 0.44322 0.97224 0.0
H1142 H 0.87598 0.41994 0.96641 0.0
C1143 C 0.96447 0.36068 0.97881 0.0
C1144 C 0.94056 0.40014 0.9509 0.0
H1145 H 0.92803 0.44699 0.95771 0.0
C1146 C 0.92319 0.39355 0.94295 0.0
C1147 C 0.94253 0.41979 0.95573 0.0
C1148 C 0.96067 0.4276 0.96478 0.0
C1149 C 0.90747 0.40592 0.94045 0.0
C1150 C 0.90908 0.42529 0.94635 0.0
C1151 C 0.92681 0.43212 0.95323 0.0
C1152 C 0.89225 0.4383 0.94737 0.0
C1153 C 0.88916 0.39802 0.93189 0.0
C1154 C 0.89284 0.45638 0.93858 0.0
C1155 C 0.87834 0.46982 0.94203 0.0
C1156 C 0.86302 0.46548 0.95446 0.0
C1157 C 0.86202 0.44704 0.96255 0.0
C1158 C 0.87655 0.43363 0.95911 0.0
H1159 H 0.89212 0.3856 0.92232 0.0
H1160 H 0.87967 0.39293 0.94361 0.0
H1161 H 0.88135 0.40914 0.92359 0.0
H1162 H 0.90487 0.46033 0.92957 0.0
H1163 H 0.87956 0.48386 0.93552 0.0
H1164 H 0.65226 0.5748 0.49706 0.0
H1165 H 0.62533 0.59608 0.48984 0.0
H1166 H 0.60978 0.56048 0.44152 0.0
H1167 H 0.63638 0.53883 0.44894 0.0
H1168 H 0.61183 0.61719 0.45842 0.0
H1169 H 0.5629 0.5564 0.47619 0.0
H1170 H 0.58838 0.55545 0.48077 0.0
H1171 H 0.57936 0.55243 0.45677 0.0
C1172 C 0.64336 0.5717 0.48467 0.0
C1173 C 0.64623 0.55493 0.4738 0.0
C1174 C 0.62798 0.58389 0.48053 0.0
C1175 C 0.6153 0.5796 0.4654 0.0
C1176 C 0.61912 0.56379 0.45353 0.0
H1177 H 0.51344 0.65709 0.46019 0.0
H1178 H 0.53897 0.63664 0.44656 0.0
C1179 C 0.63437 0.55148 0.45777 0.0
C1180 C 0.59712 0.59051 0.46355 0.0
H1181 H 0.5489 0.58645 0.47168 0.0
C1182 C 0.59799 0.61045 0.46088 0.0
C1183 C 0.57909 0.58163 0.46684 0.0
C1184 C 0.57726 0.56034 0.47044 0.0
C1185 C 0.58146 0.62189 0.4625 0.0
C1186 C 0.56366 0.61309 0.46676 0.0
C1187 C 0.56258 0.59306 0.4682 0.0
C1188 C 0.5472 0.62443 0.47388 0.0
C1189 C 0.5833 0.64341 0.4611 0.0
C1190 C 0.54318 0.62387 0.49353 0.0
C1191 C 0.52886 0.63541 0.50124 0.0
C1192 C 0.51809 0.6477 0.48946 0.0
C1193 C 0.5215 0.64769 0.46957 0.0
C1194 C 0.53611 0.63616 0.46182 0.0
H1195 H 0.5983 0.64805 0.45819 0.0
H1196 H 0.57391 0.64878 0.4494 0.0
H1197 H 0.57844 0.65019 0.47468 0.0
H1198 H 0.55155 0.61488 0.50305 0.0
H1199 H 0.52648 0.63496 0.5166 0.0
H1200 H 0.03014 0.04538 0.28088 0.0
H1201 H 0.03555 0.07636 0.26524 0.0
H1202 H 0.00612 0.10503 0.31152 0.0
H1203 H 1.00023 0.0742 0.32695 0.0
H1204 H 0.99851 0.12172 0.27645 0.0
H1205 H 0.07705 0.11137 0.28703 0.0
H1206 H 0.06541 0.09324 0.2728 0.0
H1207 H 0.05942 0.09577 0.29776 0.0
C1208 C 0.02447 0.05824 0.28753 0.0
C1209 C 0.01496 0.05733 0.3053 0.0
C1210 C 0.02769 0.07596 0.27863 0.0
C1211 C 0.02166 0.09307 0.28745 0.0
C1212 C 0.01102 0.09204 0.3045 0.0
H1213 H 0.07013 0.20505 0.28897 0.0
H1214 H 0.05837 0.17241 0.29405 0.0
C1215 C 0.00768 0.07437 0.31333 0.0
C1216 C 0.02768 0.1121 0.27997 0.0
H1217 H 0.06725 0.14032 0.27305 0.0
C1218 C 0.01354 0.12576 0.2755 0.0
C1219 C 0.04731 0.11742 0.27899 0.0
C1220 C 0.06321 0.10378 0.28454 0.0
C1221 C 0.01848 0.14468 0.27048 0.0
C1222 C 0.0381 0.14998 0.26963 0.0
C1223 C 0.05222 0.13619 0.2736 0.0
C1224 C 0.04441 0.17009 0.26636 0.0
C1225 C 0.00267 0.15905 0.26699 0.0
C1226 C 0.04038 0.17975 0.24912 0.0
C1227 C 0.04721 0.19848 0.24618 0.0
C1228 C 0.05843 0.20761 0.2603 0.0
C1229 C 0.06204 0.19807 0.27763 0.0
C1230 C 0.0552 0.17949 0.28059 0.0
H1231 H 0.9885 0.15373 0.27203 0.0
H1232 H 0.0059 0.17285 0.27434 0.0
H1233 H 1.00155 0.16191 0.25138 0.0
H1234 H 0.0323 0.1727 0.23783 0.0
H1235 H 0.04417 0.20561 0.23273 0.0
H1236 H 0.2007 0.73587 0.53353 0.0
H1237 H 0.17187 0.73762 0.51342 0.0
H1238 H 0.13838 0.71226 0.55877 0.0
H1239 H 0.16718 0.70991 0.57871 0.0
H1240 H 0.12605 0.7003 0.52288 0.0
H1241 H 0.13358 0.77964 0.5258 0.0
H1242 H 0.15385 0.76759 0.51547 0.0
H1243 H 0.14804 0.76389 0.54033 0.0
C1244 C 0.18729 0.73028 0.53907 0.0
C1245 C 0.18621 0.72299 0.55783 0.0
C1246 C 0.17079 0.73141 0.5276 0.0
C1247 C 0.15286 0.72556 0.53478 0.0
C1248 C 0.15201 0.71699 0.55296 0.0
H1249 H 0.03362 0.74765 0.51162 0.0
H1250 H 0.06353 0.73207 0.52145 0.0
C1251 C 0.16853 0.71568 0.56436 0.0
C1252 C 0.13479 0.72995 0.52423 0.0
H1253 H 0.10789 0.76735 0.50763 0.0
C1254 C 0.12211 0.71494 0.51943 0.0
C1255 C 0.12953 0.74909 0.51994 0.0
C1256 C 0.14184 0.76601 0.5258 0.0
C1257 C 0.10439 0.71859 0.51033 0.0
C1258 C 0.09921 0.73772 0.50607 0.0
C1259 C 0.11198 0.75265 0.5107 0.0
C1260 C 0.08028 0.74303 0.49774 0.0
C1261 C 0.0914 0.70198 0.50529 0.0
C1262 C 0.07956 0.75387 0.48082 0.0
C1263 C 0.06252 0.76285 0.47521 0.0
C1264 C 0.04585 0.76127 0.4865 0.0
C1265 C 0.04616 0.74907 0.50254 0.0
C1266 C 0.06328 0.7401 0.50817 0.0
H1267 H 0.09942 0.68822 0.50475 0.0
H1268 H 0.08007 0.70067 0.51639 0.0
H1269 H 0.08425 0.70433 0.49124 0.0
H1270 H 0.0925 0.75634 0.47256 0.0
H1271 H 0.06278 0.7721 0.46275 0.0
H1272 H 0.51584 0.9387 0.77921 0.0
H1273 H 0.51346 0.90813 0.76201 0.0
H1274 H 0.53434 0.87835 0.81199 0.0
H1275 H 0.53723 0.90888 0.82915 0.0
H1276 H 0.547 0.86175 0.77709 0.0
H1277 H 0.46811 0.87421 0.77762 0.0
H1278 H 0.48183 0.89261 0.76593 0.0
H1279 H 0.48461 0.88882 0.79129 0.0
C1280 C 0.52038 0.92571 0.7864 0.0
C1281 C 0.52645 0.9262 0.80565 0.0
C1282 C 0.51893 0.90823 0.77657 0.0
C1283 C 0.52327 0.89092 0.78589 0.0
C1284 C 0.53081 0.89152 0.80456 0.0
H1285 H 0.495 0.7716 0.77544 0.0
H1286 H 0.51258 0.80143 0.78144 0.0
C1287 C 0.53243 0.90901 0.81436 0.0
C1288 C 0.5179 0.8722 0.77711 0.0
H1289 H 0.4789 0.84596 0.76291 0.0
C1290 C 0.53214 0.8583 0.77383 0.0
C1291 C 0.49846 0.86766 0.77308 0.0
C1292 C 0.48232 0.88151 0.7773 0.0
C1293 C 0.52744 0.84002 0.76651 0.0
C1294 C 0.50799 0.8355 0.7626 0.0
C1295 C 0.49385 0.8495 0.76568 0.0
C1296 C 0.50147 0.8161 0.75644 0.0
C1297 C 0.54331 0.82575 0.76296 0.0
C1298 C 0.48984 0.81415 0.74007 0.0
C1299 C 0.47963 0.79718 0.73672 0.0
C1300 C 0.48085 0.7818 0.74968 0.0
C1301 C 0.49386 0.78312 0.7651 0.0
C1302 C 0.50398 0.80019 0.76854 0.0
H1303 H 0.5574 0.83301 0.76108 0.0
H1304 H 0.54448 0.81604 0.7755 0.0
H1305 H 0.54026 0.81686 0.75006 0.0
H1306 H 0.48768 0.82621 0.73054 0.0
H1307 H 0.46979 0.7966 0.72467 0.0
H1308 H 0.32179 0.27184 0.02157 0.0
H1309 H 0.35259 0.26969 0.00481 0.0
H1310 H 0.37912 0.30479 0.0485 0.0
H1311 H 0.3485 0.3067 0.06556 0.0
H1312 H 0.38123 0.29544 0.99039 0.0
H1313 H 0.40718 0.25325 0.05291 0.0
H1314 H 0.38218 0.25913 0.04955 0.0
H1315 H 0.39868 0.27693 0.05847 0.0
C1316 C 0.33405 0.27951 0.02738 0.0
C1317 C 0.33274 0.2892 0.04506 0.0
C1318 C 0.35167 0.27825 0.01778 0.0
C1319 C 0.36825 0.28671 0.02564 0.0
C1320 C 0.36659 0.29782 0.04238 0.0
H1321 H 0.48716 0.25463 0.00306 0.0
H1322 H 0.45995 0.27467 0.01258 0.0
C1323 C 0.34904 0.29896 0.05207 0.0
C1324 C 0.38746 0.28213 0.01754 0.0
H1325 H 0.42878 0.2578 0.02764 0.0
C1326 C 0.39172 0.28736 0.99857 0.0
C1327 C 0.40113 0.27154 0.0282 0.0
C1328 C 0.39709 0.26471 0.04835 0.0
C1329 C 0.40925 0.28214 0.98995 0.0
C1330 C 0.4227 0.27115 1.00048 0.0
C1331 C 0.41859 0.26639 0.0196 0.0
C1332 C 0.44023 0.26267 0.99169 0.0
C1333 C 0.41317 0.28843 0.96965 0.0
C1334 C 0.43848 0.2498 0.97624 0.0
C1335 C 0.45405 0.23842 0.9707 0.0
C1336 C 0.47165 0.23948 0.98063 0.0
C1337 C 0.47384 0.25345 0.99507 0.0
C1338 C 0.45825 0.26488 1.00059 0.0
H1339 H 0.40525 0.30181 0.96614 0.0
H1340 H 0.42875 0.29087 0.96722 0.0
H1341 H 0.40817 0.27708 0.9596 0.0
H1342 H 0.4247 0.2475 0.96937 0.0
H1343 H 0.45182 0.2278 0.95953 0.0
H1344 H 0.24512 0.02497 0.22828 0.0
H1345 H 0.25568 0.00415 0.20198 0.0
H1346 H 0.21931 0.0351 0.16269 0.0
H1347 H 0.2083 0.05556 0.18886 0.0
H1348 H 0.22268 0.99623 0.15303 0.0
H1349 H 0.29403 0.0301 0.16614 0.0
H1350 H 0.28429 0.01694 0.18598 0.0
H1351 H 0.27248 0.03835 0.17781 0.0
C1352 C 0.23886 0.02692 0.21418 0.0
C1353 C 0.22614 0.04217 0.21061 0.0
C1354 C 0.24504 0.01511 0.19912 0.0
C1355 C 0.23874 0.01848 0.18027 0.0
C1356 C 0.22452 0.03235 0.17708 0.0
H1357 H 0.27303 0.00539 0.06376 0.0
H1358 H 0.25472 0.00802 0.09352 0.0
C1359 C 0.21824 0.04407 0.19211 0.0
C1360 C 0.24858 0.00955 0.16358 0.0
H1361 H 0.29142 0.0095 0.13976 0.0
C1362 C 0.23777 0.99891 0.15022 0.0
C1363 C 0.26825 0.01321 0.15983 0.0
C1364 C 0.28046 0.0254 0.17307 0.0
C1365 C 0.24605 0.99203 0.13313 0.0
C1366 C 0.26557 0.99614 0.1292 0.0
C1367 C 0.27649 0.00625 0.14284 0.0
C1368 C 0.27479 0.99151 0.11053 0.0
C1369 C 0.23381 0.98055 0.11939 0.0
C1370 C 0.29209 0.98119 0.11007 0.0
C1371 C 0.30269 0.9798 0.09309 0.0
C1372 C 0.29624 0.98881 0.07623 0.0
C1373 C 0.27837 0.99821 0.07646 0.0
C1374 C 0.2678 0.99963 0.09347 0.0
H1375 H 0.22161 0.97353 0.12689 0.0
H1376 H 0.22773 0.99032 0.1084 0.0
H1377 H 0.24239 0.96938 0.11195 0.0
H1378 H 0.29782 0.97489 0.12307 0.0
H1379 H 0.31638 0.97243 0.09344 0.0
H1380 H 0.23511 0.98275 0.45701 0.0
H1381 H 0.25057 0.99181 0.42659 0.0
H1382 H 0.21082 0.0389 0.42071 0.0
H1383 H 0.19642 0.0307 0.45142 0.0
H1384 H 0.23693 0.99399 0.39028 0.0
H1385 H 0.26088 0.06596 0.41301 0.0
H1386 H 0.25227 0.04837 0.4299 0.0
H1387 H 0.23559 0.0634 0.41703 0.0
C1388 C 0.22981 0.99508 0.44921 0.0
C1389 C 0.21422 0.00576 0.45629 0.0
C1390 C 0.23859 1.00021 0.43184 0.0
C1391 C 0.23203 0.0162 0.42145 0.0
C1392 C 0.21641 0.02673 0.42857 0.0
H1393 H 0.23214 0.046 0.30349 0.0
H1394 H 0.22946 0.0294 0.33411 0.0
C1395 C 0.20785 0.02176 0.44592 0.0
C1396 C 0.24104 0.02191 0.403 0.0
H1397 H 0.25693 0.06132 0.37883 0.0
C1398 C 0.24165 0.00862 0.38783 0.0
C1399 C 0.24774 0.04083 0.39988 0.0
C1400 C 0.2493 0.05536 0.41591 0.0
C1401 C 0.24757 0.0141 0.36934 0.0
C1402 C 0.25242 0.03354 0.3658 0.0
C1403 C 0.25296 0.04647 0.3813 0.0
C1404 C 0.25568 0.04125 0.34613 0.0
C1405 C 0.2485 0.99895 0.35387 0.0
C1406 C 0.27124 0.05363 0.34251 0.0
C1407 C 0.27246 0.06362 0.32517 0.0
C1408 C 0.25833 0.0612 0.31095 0.0
C1409 C 0.2434 0.04797 0.31408 0.0
C1410 C 0.24194 0.03832 0.33159 0.0
H1411 H 0.25206 0.98471 0.36006 0.0
H1412 H 0.23421 0.99766 0.34689 0.0
H1413 H 0.25936 0.00253 0.34279 0.0
H1414 H 0.28204 0.05619 0.35344 0.0
H1415 H 0.28414 0.07371 0.32315 0.0
H1416 H 0.2896 0.95535 0.73147 0.0
H1417 H 0.28108 0.97228 0.70202 0.0
H1418 H 0.22618 0.9873 0.72638 0.0
H1419 H 0.23478 0.97079 0.75602 0.0
H1420 H 0.25169 0.95949 0.68053 0.0
H1421 H 0.2391 0.03598 0.69787 0.0
H1422 H 0.25215 0.02016 0.7137 0.0
H1423 H 0.22628 0.02008 0.7135 0.0
C1424 C 0.27598 0.96283 0.73083 0.0
C1425 C 0.26282 0.96162 0.74606 0.0
C1426 C 0.27111 0.97247 0.71394 0.0
C1427 C 0.253 0.9811 0.71195 0.0
C1428 C 0.24038 0.98109 0.72766 0.0
H1429 H 0.17724 0.01004 0.6191 0.0
H1430 H 0.19333 0.00526 0.64995 0.0
C1431 C 0.24531 0.97157 0.74463 0.0
C1432 C 0.24624 0.98739 0.69272 0.0
H1433 H 0.22516 0.02435 0.66841 0.0
C1434 C 0.2462 0.97379 0.67781 0.0
C1435 C 0.23888 0.00597 0.68921 0.0
C1436 C 0.23926 0.02144 0.70437 0.0
C1437 C 0.23845 0.97801 0.65971 0.0
C1438 C 0.23079 0.99647 0.65629 0.0
C1439 C 0.23108 0.01022 0.67107 0.0
C1440 C 0.22159 1.00132 0.63771 0.0
C1441 C 0.23784 0.96241 0.64465 0.0
C1442 C 0.23223 1.00117 0.62062 0.0
C1443 C 0.22307 0.00383 0.60293 0.0
C1444 C 0.2031 0.00677 0.60203 0.0
C1445 C 0.19263 0.00771 0.61926 0.0
C1446 C 0.2018 0.00505 0.63692 0.0
H1447 H 0.24052 0.94798 0.65085 0.0
H1448 H 0.2237 0.96219 0.63723 0.0
H1449 H 0.2491 0.96523 0.63375 0.0
H1450 H 0.24758 0.99859 0.62094 0.0
H1451 H 0.23159 0.00315 0.58996 0.0
H1452 H 0.24478 0.96762 0.83257 0.0
H1453 H 0.2453 0.98646 0.86221 0.0
H1454 H 0.20868 0.94467 0.88939 0.0
H1455 H 0.20833 0.92554 0.8599 0.0
H1456 H 0.21744 0.00262 0.88836 0.0
H1457 H 0.25928 0.94254 0.92019 0.0
H1458 H 0.25473 0.94423 0.89478 0.0
H1459 H 0.23607 0.93631 0.9107 0.0
C1460 C 0.23646 0.96263 0.84469 0.0
C1461 C 0.22676 0.94491 0.84395 0.0
C1462 C 0.23676 0.97345 0.86164 0.0
C1463 C 0.22735 0.96676 0.87811 0.0
C1464 C 0.21632 0.94991 0.87693 0.0
H1465 H 0.25844 0.9986 0.99506 0.0
H1466 H 0.23794 0.98695 0.96897 0.0
C1467 C 0.21608 0.93903 0.86003 0.0
C1468 C 0.23095 0.97621 0.8969 0.0
H1469 H 0.25447 0.96962 0.93936 0.0
C1470 C 0.22534 0.99537 0.89963 0.0
C1471 C 0.24127 0.96672 0.91159 0.0
C1472 C 0.24835 0.94638 0.90922 0.0
C1473 C 0.23005 0.00539 0.91657 0.0
C1474 C 0.24097 0.99609 0.93096 0.0
C1475 C 0.24596 0.97673 0.92844 0.0
C1476 C 0.24936 0.00644 0.9477 0.0
C1477 C 0.22339 0.02585 0.91881 0.0
C1478 C 0.26198 0.02188 0.94471 0.0
C1479 C 0.2736 0.02868 0.95964 0.0
C1480 C 0.27306 0.01997 0.97782 0.0
C1481 C 0.25924 0.00563 0.98125 0.0
C1482 C 0.24754 0.9989 0.9663 0.0
H1483 H 0.20987 0.02837 0.91071 0.0
H1484 H 0.22102 0.02962 0.93411 0.0
H1485 H 0.2345 0.03563 0.9129 0.0
H1486 H 0.26399 0.02772 0.93047 0.0
H1487 H 0.28407 0.03973 0.95647 0.0
H1488 H 0.0724 0.28516 1.00118 0.0
H1489 H 0.10432 0.27047 0.00256 0.0
H1490 H 0.12644 0.31449 0.96526 0.0
H1491 H 0.0947 0.32944 0.96402 0.0
H1492 H 0.13228 0.2571 0.97498 0.0
H1493 H 0.15697 0.32147 0.01555 0.0
H1494 H 0.13189 0.31652 0.01119 0.0
H1495 H 0.14664 0.3262 0.99242 0.0
C1496 C 0.08394 0.29149 0.99292 0.0
C1497 C 0.08105 0.30863 0.9827 0.0
C1498 C 0.10219 0.28307 0.99373 0.0
C1499 C 0.11783 0.29161 0.98432 0.0
C1500 C 0.11465 0.30787 0.97292 0.0
H1501 H 0.23983 0.2759 0.00894 0.0
H1502 H 0.21065 0.28413 0.99111 0.0
C1503 C 0.09646 0.31634 0.97217 0.0
C1504 C 0.13767 0.28465 0.98797 0.0
H1505 H 0.17974 0.2974 0.00988 0.0
C1506 C 0.14273 0.26593 0.98247 0.0
C1507 C 0.15129 0.2962 0.99776 0.0
C1508 C 0.14647 0.31616 0.00474 0.0
C1509 C 0.16104 0.25842 0.98663 0.0
C1510 C 0.17449 0.26983 0.99685 0.0
C1511 C 0.16953 0.2887 0.00189 0.0
C1512 C 0.19304 0.26214 0.00418 0.0
C1513 C 0.16578 0.23835 0.98004 0.0
C1514 C 0.19307 0.24661 0.01695 0.0
C1515 C 0.20974 0.24181 0.02707 0.0
C1516 C 0.2267 0.25259 0.0248 0.0
C1517 C 0.22704 0.26726 0.01099 0.0
C1518 C 0.21033 0.27204 1.00084 0.0
H1519 H 0.15727 0.23431 0.96714 0.0
H1520 H 0.1813 0.23687 0.97667 0.0
H1521 H 0.16214 0.22808 0.99161 0.0
H1522 H 0.17988 0.23899 0.02013 0.0
H1523 H 0.20893 0.23045 0.03761 0.0
H1524 H 0.70737 0.28738 0.95434 0.0
H1525 H 0.6764 0.28287 0.97008 0.0
H1526 H 0.70046 0.23739 0.00435 0.0
H1527 H 0.73168 0.24213 0.98891 0.0
H1528 H 0.65735 0.24948 0.9655 0.0
H1529 H 0.66612 0.26398 0.04323 0.0
H1530 H 0.68323 0.27219 0.02558 0.0
H1531 H 0.68373 0.24774 0.03375 0.0
C1532 C 0.70625 0.27682 0.96567 0.0
C1533 C 0.72196 0.26505 0.97032 0.0
C1534 C 0.6885 0.27424 0.97464 0.0
C1535 C 0.68604 0.25982 0.98844 0.0
C1536 C 0.70204 0.24886 0.99403 0.0
H1537 H 0.59024 0.19414 0.02976 0.0
H1538 H 0.62129 0.20998 0.02549 0.0
C1539 C 0.71991 0.25156 0.98515 0.0
C1540 C 0.66632 0.25444 0.99468 0.0
H1541 H 0.63783 0.24661 0.03383 0.0
C1542 C 0.65301 0.24914 0.98044 0.0
C1543 C 0.66071 0.25377 0.01418 0.0
C1544 C 0.67414 0.25989 0.03007 0.0
C1545 C 0.63449 0.24274 0.98511 0.0
C1546 C 0.62888 0.24194 0.00459 0.0
C1547 C 0.6421 0.24737 0.01889 0.0
C1548 C 0.60973 0.23435 0.01021 0.0
C1549 C 0.62135 0.23615 0.96911 0.0
C1550 C 0.59278 0.24323 0.00384 0.0
C1551 C 0.57496 0.23416 0.00617 0.0
C1552 C 0.57378 0.21609 0.01504 0.0
C1553 C 0.59062 0.208 0.02277 0.0
C1554 C 0.60842 0.21705 0.02037 0.0
H1555 H 0.62929 0.23362 0.95553 0.0
H1556 H 0.61377 0.2227 0.97309 0.0
H1557 H 0.61038 0.24735 0.96638 0.0
H1558 H 0.59343 0.25677 0.99627 0.0
H1559 H 0.56229 0.24086 1.00015 0.0
H1560 H 0.03332 0.34292 0.25813 0.0
H1561 H 0.01701 0.37374 0.25389 0.0
H1562 H 0.06729 0.40336 0.27494 0.0
H1563 H 0.08384 0.3727 0.27882 0.0
H1564 H 0.00804 0.40426 0.27847 0.0
H1565 H 0.05963 0.42692 0.22216 0.0
H1566 H 0.0585 0.40263 0.23093 0.0
H1567 H 0.07065 0.42089 0.24464 0.0
C1568 C 0.04087 0.35598 0.26199 0.0
C1569 C 0.05997 0.35535 0.26859 0.0
C1570 C 0.0315 0.37359 0.25959 0.0
C1571 C 0.04105 0.39088 0.26376 0.0
C1572 C 0.05979 0.39023 0.27122 0.0
H1573 H 0.01253 0.50869 0.23444 0.0
H1574 H 0.02531 0.48139 0.25231 0.0
C1575 C 0.06921 0.37267 0.2735 0.0
C1576 C 0.03177 0.40957 0.2594 0.0
H1577 H 0.03638 0.44955 0.23156 0.0
C1578 C 0.01425 0.41422 0.26827 0.0
C1579 C 0.03986 0.42253 0.24603 0.0
C1580 C 0.05809 0.41797 0.23524 0.0
C1581 C 0.00466 0.43149 0.26415 0.0
C1582 C 0.0127 0.44434 0.25069 0.0
C1583 C 0.03033 0.4398 0.24206 0.0
C1584 C 0.00256 0.46185 0.24399 0.0
C1585 C 0.98604 0.43587 0.27428 0.0
C1586 C 0.98506 0.4602 0.23407 0.0
C1587 C 0.97768 0.47581 0.22388 0.0
C1588 C 0.98775 0.49333 0.22327 0.0
C1589 C 0.00438 0.49543 0.2346 0.0
C1590 C 0.01177 0.47979 0.24477 0.0
H1591 H 0.98486 0.42789 0.28801 0.0
H1592 H 0.98466 0.45147 0.27727 0.0
H1593 H 0.97385 0.43144 0.26498 0.0
H1594 H 0.97784 0.44646 0.23299 0.0
H1595 H 0.96486 0.47366 0.21529 0.0
H1596 H 0.95296 0.75415 0.50486 0.0
H1597 H 0.92338 0.73552 0.50066 0.0
H1598 H 0.89064 0.78164 0.52568 0.0
H1599 H 0.9201 0.80027 0.53019 0.0
H1600 H 0.87686 0.74352 0.53532 0.0
H1601 H 0.88767 0.75434 0.45702 0.0
H1602 H 0.90718 0.74294 0.46945 0.0
H1603 H 0.90122 0.76743 0.47486 0.0
C1604 C 0.93955 0.76015 0.50994 0.0
C1605 C 0.9389 0.77883 0.51762 0.0
C1606 C 0.92263 0.7495 0.50744 0.0
C1607 C 0.90477 0.75736 0.5125 0.0
C1608 C 0.90425 0.77534 0.52159 0.0
H1609 H 0.78487 0.74082 0.48707 0.0
H1610 H 0.81509 0.74709 0.50394 0.0
C1611 C 0.92115 0.78598 0.52413 0.0
C1612 C 0.88655 0.748 0.50636 0.0
H1613 H 0.86029 0.73721 0.46636 0.0
C1614 C 0.87325 0.74197 0.52025 0.0
C1615 C 0.88182 0.74614 0.48669 0.0
C1616 C 0.8951 0.75318 0.4711 0.0
C1617 C 0.85537 0.73401 0.51495 0.0
C1618 C 0.85056 0.7324 0.49526 0.0
C1619 C 0.86401 0.73825 0.48144 0.0
C1620 C 0.8314 0.72572 0.48834 0.0
C1621 C 0.84189 0.72731 0.53047 0.0
C1622 C 0.83028 0.7113 0.47426 0.0
C1623 C 0.81308 0.70789 0.46442 0.0
C1624 C 0.79658 0.71876 0.46852 0.0
C1625 C 0.79726 0.73205 0.48373 0.0
C1626 C 0.81457 0.73563 0.49343 0.0
H1627 H 0.84982 0.72368 0.54382 0.0
H1628 H 0.83166 0.73901 0.53392 0.0
H1629 H 0.83351 0.71455 0.52576 0.0
H1630 H 0.84303 0.70345 0.47006 0.0
H1631 H 0.81303 0.69754 0.4528 0.0
H1632 H 0.29799 0.7929 0.55237 0.0
H1633 H 0.32754 0.78847 0.53408 0.0
H1634 H 0.30426 0.73678 0.50896 0.0
H1635 H 0.2745 0.74131 0.52695 0.0
H1636 H 0.3487 0.75692 0.54222 0.0
H1637 H 0.33437 0.7588 0.4641 0.0
H1638 H 0.31808 0.76901 0.48151 0.0
H1639 H 0.31805 0.74359 0.47696 0.0
C1640 C 0.29885 0.78098 0.5424 0.0
C1641 C 0.28395 0.76736 0.54125 0.0
C1642 C 0.31579 0.77845 0.53196 0.0
C1643 C 0.31818 0.76229 0.52014 0.0
C1644 C 0.30268 0.74955 0.51771 0.0
H1645 H 0.40998 0.69098 0.4828 0.0
H1646 H 0.37988 0.70859 0.48605 0.0
C1647 C 0.28564 0.75214 0.52807 0.0
C1648 C 0.3377 0.75697 0.51334 0.0
H1649 H 0.36355 0.74316 0.47401 0.0
C1650 C 0.35205 0.75428 0.52725 0.0
C1651 C 0.34199 0.75327 0.49385 0.0
C1652 C 0.32736 0.75648 0.47821 0.0
C1653 C 0.37028 0.74728 0.52239 0.0
C1654 C 0.37455 0.7433 0.50292 0.0
C1655 C 0.36034 0.74637 0.4889 0.0
C1656 C 0.39311 0.73438 0.49732 0.0
C1657 C 0.38445 0.74327 0.53832 0.0
C1658 C 0.41069 0.74338 0.50161 0.0
C1659 C 0.42798 0.73326 0.49995 0.0
C1660 C 0.42799 0.71404 0.49374 0.0
C1661 C 0.41052 0.70572 0.48775 0.0
C1662 C 0.39325 0.71578 0.48957 0.0
H1663 H 0.37743 0.743 0.55262 0.0
H1664 H 0.39176 0.7293 0.53602 0.0
H1665 H 0.39556 0.75471 0.53859 0.0
H1666 H 0.41096 0.7579 0.5072 0.0
H1667 H 0.44119 0.74016 0.50452 0.0
H1668 H 0.02433 0.97565 0.26397 0.0
H1669 H 0.01066 0.95047 0.24351 0.0
H1670 H 0.04599 0.90832 0.27174 0.0
H1671 H 0.06013 0.93336 0.29178 0.0
H1672 H 0.0388 0.89892 0.23344 0.0
H1673 H 0.97159 0.91776 0.27229 0.0
H1674 H 0.98188 0.93681 0.25837 0.0
H1675 H 0.99462 0.92767 0.27886 0.0
C1676 C 0.02974 0.96115 0.26533 0.0
C1677 C 0.04302 0.95646 0.27981 0.0
C1678 C 0.02177 0.94673 0.25373 0.0
C1679 C 0.02682 0.92743 0.25657 0.0
C1680 C 0.0417 0.92308 0.26944 0.0
H1681 H 0.98098 0.81438 0.24705 0.0
H1682 H 0.0022 0.84234 0.24825 0.0
C1683 C 0.04978 0.93747 0.28091 0.0
C1684 C 0.01495 0.91161 0.24846 0.0
H1685 H 0.9703 0.89141 0.25154 0.0
C1686 C 0.02376 0.89738 0.23718 0.0
C1687 C 0.99535 0.90947 0.25354 0.0
C1688 C 0.98529 0.92361 0.26656 0.0
C1689 C 0.01354 0.88102 0.23103 0.0
C1690 C 0.9941 0.87875 0.23648 0.0
C1691 C 0.98517 0.89324 0.24725 0.0
C1692 C 0.98294 0.86096 0.23255 0.0
C1693 C 0.02366 0.86624 0.21889 0.0
C1694 C 0.96512 0.862 0.22314 0.0
C1695 C 0.95289 0.84606 0.22253 0.0
C1696 C 0.95817 0.82877 0.23147 0.0
C1697 C 0.97648 0.82744 0.23996 0.0
C1698 C 0.98871 0.84341 0.24056 0.0
H1699 H 0.03613 0.87257 0.21122 0.0
H1700 H 0.02913 0.85464 0.22829 0.0
H1701 H 0.01372 0.85975 0.20821 0.0
H1702 H 0.96032 0.87542 0.21696 0.0
H1703 H 0.93891 0.84759 0.21586 0.0
H1704 H 0.47118 0.04041 0.78262 0.0
H1705 H 0.48447 0.06631 0.76337 0.0
H1706 H 0.53078 0.02944 0.74533 0.0
H1707 H 0.51775 0.00347 0.76493 0.0
H1708 H 0.54347 0.06108 0.76373 0.0
H1709 H 0.49104 0.08333 0.70847 0.0
H1710 H 0.48024 0.08141 0.73173 0.0
H1711 H 0.48975 0.0603 0.72025 0.0
C1712 C 0.48379 0.03752 0.774 0.0
C1713 C 0.49354 0.01992 0.77553 0.0
C1714 C 0.49134 0.05239 0.76288 0.0
C1715 C 0.50864 0.04987 0.75287 0.0
C1716 C 0.5174 0.03172 0.75293 0.0
H1717 H 0.59017 0.13883 0.71655 0.0
H1718 H 0.57333 0.10811 0.71925 0.0
C1719 C 0.50988 0.01684 0.7641 0.0
C1720 C 0.51919 0.06686 0.74544 0.0
H1721 H 0.51443 0.10722 0.71808 0.0
C1722 C 0.53728 0.07096 0.75343 0.0
C1723 C 0.51102 0.07988 0.7322 0.0
C1724 C 0.49202 0.07592 0.72253 0.0
C1725 C 0.54705 0.08806 0.74923 0.0
C1726 C 0.53869 0.10132 0.73637 0.0
C1727 C 0.52082 0.09703 0.72795 0.0
C1728 C 0.5479 0.12013 0.7324 0.0
C1729 C 0.56582 0.09219 0.75937 0.0
C1730 C 0.53885 0.13719 0.73812 0.0
C1731 C 0.54838 0.15481 0.73648 0.0
C1732 C 0.56715 0.15568 0.72906 0.0
C1733 C 0.5758 0.13866 0.7225 0.0
C1734 C 0.56623 0.12107 0.72408 0.0
H1735 H 0.56806 0.08263 0.77191 0.0
H1736 H 0.57788 0.08986 0.74925 0.0
H1737 H 0.56641 0.10732 0.76438 0.0
H1738 H 0.52469 0.13679 0.74454 0.0
H1739 H 0.54127 0.16765 0.74159 0.0
H1740 H 0.53787 0.29094 0.76438 0.0
H1741 H 0.5227 0.32245 0.76096 0.0
H1742 H 0.57661 0.34644 0.74216 0.0
H1743 H 0.59188 0.31501 0.74559 0.0
H1744 H 0.53135 0.36038 0.7761 0.0
H1745 H 0.53896 0.35534 0.69687 0.0
H1746 H 0.5421 0.3349 0.71241 0.0
H1747 H 0.5609 0.35246 0.71019 0.0
C1748 C 0.54657 0.30298 0.7598 0.0
C1749 C 0.56601 0.30043 0.75491 0.0
C1750 C 0.53788 0.32097 0.75786 0.0
C1751 C 0.54845 0.33667 0.75099 0.0
C1752 C 0.56811 0.33441 0.74716 0.0
H1753 H 0.52033 0.45648 0.73697 0.0
H1754 H 0.53091 0.42585 0.7503 0.0
C1755 C 0.57681 0.31645 0.74909 0.0
C1756 C 0.53865 0.35501 0.74657 0.0
H1757 H 0.52695 0.38449 0.70934 0.0
C1758 C 0.53034 0.36568 0.76152 0.0
C1759 C 0.53712 0.36172 0.7275 0.0
C1760 C 0.54508 0.35047 0.71076 0.0
C1761 C 0.52086 0.38313 0.7579 0.0
C1762 C 0.51975 0.39003 0.73887 0.0
C1763 C 0.52781 0.37917 0.72393 0.0
C1764 C 0.51077 0.40867 0.73391 0.0
C1765 C 0.51195 0.39395 0.77438 0.0
C1766 C 0.49558 0.40926 0.72065 0.0
C1767 C 0.48951 0.42674 0.71297 0.0
C1768 C 0.49865 0.44398 0.71828 0.0
C1769 C 0.51292 0.44349 0.73261 0.0
C1770 C 0.51898 0.42597 0.7403 0.0
H1771 H 0.50983 0.38462 0.7871 0.0
H1772 H 0.52159 0.40595 0.77861 0.0
H1773 H 0.49788 0.40015 0.77015 0.0
H1774 H 0.48906 0.39607 0.71552 0.0
H1775 H 0.47848 0.42658 0.70198 0.0
H1776 H 0.85718 0.21952 0.93632 0.0
H1777 H 0.88643 0.22397 0.95515 0.0
H1778 H 0.85305 0.24696 0.0019 0.0
H1779 H 0.82365 0.24287 0.98297 0.0
H1780 H 0.88111 0.27119 0.99031 0.0
H1781 H 0.91265 0.19912 1.00063 0.0
H1782 H 0.90669 0.20385 0.97604 0.0
H1783 H 0.88788 0.2026 0.99368 0.0
C1784 C 0.85595 0.22506 0.9508 0.0
C1785 C 0.83805 0.23095 0.95808 0.0
C1786 C 0.87273 0.22746 0.96163 0.0
C1787 C 0.87197 0.23564 0.98004 0.0
C1788 C 0.85399 0.24053 0.98777 0.0
H1789 H 0.96238 0.29236 0.04618 0.0
H1790 H 0.93345 0.27373 0.03887 0.0
C1791 C 0.83718 0.23815 0.97693 0.0
C1792 C 0.88999 0.24163 0.98992 0.0
H1793 H 0.93419 0.22597 0.00465 0.0
C1794 C 0.89256 0.26124 0.99378 0.0
C1795 C 0.90505 0.22867 0.99422 0.0
C1796 C 0.90289 0.20736 0.9911 0.0
C1797 C 0.90995 0.26838 1.00111 0.0
C1798 C 0.92515 0.25549 0.00514 0.0
C1799 C 0.92251 0.23581 0.00164 0.0
C1800 C 0.94412 0.26263 0.01193 0.0
C1801 C 0.91218 0.28981 0.00364 0.0
C1802 C 0.96026 0.26135 0.99994 0.0
C1803 C 0.97697 0.27177 0.00422 0.0
C1804 C 0.97771 0.28372 0.02051 0.0
C1805 C 0.9622 0.28343 0.03343 0.0
C1806 C 0.94561 0.27288 0.02922 0.0
H1807 H 0.90083 0.29791 0.99592 0.0
H1808 H 0.91114 0.29345 0.01911 0.0
H1809 H 0.92642 0.29472 0.99839 0.0
H1810 H 0.95946 0.25342 0.98657 0.0
H1811 H 0.98864 0.27169 0.99397 0.0
H1812 H 0.99126 0.74611 0.24645 0.0
H1813 H 0.01034 0.71846 0.23613 0.0
H1814 H 0.97922 0.68223 0.27537 0.0
H1815 H 0.96054 0.70977 0.28616 0.0
H1816 H 0.01721 0.67079 0.27121 0.0
H1817 H 0.98199 0.6818 0.20036 0.0
H1818 H 0.99635 0.70157 0.2087 0.0
H1819 H 0.97494 0.69493 0.2215 0.0
C1820 C 0.9889 0.73239 0.25333 0.0
C1821 C 0.97413 0.73009 0.26689 0.0
C1822 C 0.99971 0.71655 0.24729 0.0
C1823 C 0.99578 0.69816 0.25455 0.0
C1824 C 0.98238 0.69623 0.26943 0.0
H1825 H 0.00336 0.5798 0.22431 0.0
H1826 H 0.00218 0.61033 0.24159 0.0
C1827 C 0.97169 0.71205 0.27558 0.0
C1828 C 0.0037 0.68067 0.24523 0.0
H1829 H 1.00186 0.65497 0.20347 0.0
C1830 C 0.01406 0.66741 0.25633 0.0
C1831 C 0.99942 0.67616 0.22585 0.0
C1832 C 0.98744 0.68924 0.21341 0.0
C1833 C 0.02006 0.64972 0.24862 0.0
C1834 C 0.0154 0.6451 0.22939 0.0
C1835 C 0.00556 0.65859 0.21817 0.0
C1836 C 0.01919 0.62592 0.22082 0.0
C1837 C 0.03124 0.6361 0.26116 0.0
C1838 C 0.02934 0.62439 0.2035 0.0
C1839 C 0.02994 0.60696 0.19351 0.0
C1840 C 0.02026 0.59071 0.20059 0.0
C1841 C 0.01103 0.59199 0.21849 0.0
C1842 C 0.01044 0.60945 0.22846 0.0
H1843 H 0.03868 0.64382 0.273 0.0
H1844 H 0.02117 0.62562 0.26767 0.0
H1845 H 0.04206 0.62802 0.25269 0.0
H1846 H 0.03612 0.63692 0.19728 0.0
H1847 H 0.03718 0.6065 0.17978 0.0
H1848 H 0.55328 0.71697 0.54899 0.0
H1849 H 0.58409 0.72955 0.53793 0.0
H1850 H 0.55693 0.75063 0.48651 0.0
H1851 H 0.52597 0.73822 0.49755 0.0
H1852 H 0.59984 0.71508 0.50445 0.0
H1853 H 0.59417 0.79433 0.50014 0.0
H1854 H 0.57805 0.77994 0.51447 0.0
H1855 H 0.57465 0.7816 0.48896 0.0
C1856 C 0.5537 0.72482 0.53561 0.0
C1857 C 0.53714 0.72648 0.52411 0.0
C1858 C 0.57137 0.73197 0.52928 0.0
C1859 C 0.57286 0.74105 0.5114 0.0
C1860 C 0.55611 0.74395 0.5005 0.0
H1861 H 0.66315 0.76608 0.43095 0.0
H1862 H 0.63343 0.76442 0.44946 0.0
C1863 C 0.53839 0.73681 0.50684 0.0
C1864 C 0.59213 0.74494 0.50306 0.0
H1865 H 0.62061 0.7799 0.48376 0.0
C1866 C 0.60449 0.7293 0.50016 0.0
C1867 C 0.59808 0.76345 0.49726 0.0
C1868 C 0.58563 0.78085 0.50049 0.0
C1869 C 0.62238 0.73153 0.49116 0.0
C1870 C 0.62837 0.75003 0.48529 0.0
C1871 C 0.61609 0.76575 0.48836 0.0
C1872 C 0.64685 0.75306 0.47502 0.0
C1873 C 0.63433 0.71386 0.48731 0.0
C1874 C 0.66446 0.74784 0.48343 0.0
C1875 C 0.68152 0.74864 0.47281 0.0
C1876 C 0.68133 0.75488 0.45364 0.0
C1877 C 0.66384 0.76113 0.44565 0.0
C1878 C 0.6468 0.76022 0.45623 0.0
H1879 H 0.62566 0.70049 0.48831 0.0
H1880 H 0.64097 0.71448 0.47285 0.0
H1881 H 0.64602 0.713 0.49812 0.0
H1882 H 0.66493 0.74267 0.49806 0.0
H1883 H 0.69474 0.74386 0.47946 0.0
H1884 H 0.73406 0.50673 0.45126 0.0
H1885 H 0.75018 0.51453 0.42104 0.0
H1886 H 0.70203 0.49142 0.38942 0.0
H1887 H 0.68631 0.48286 0.41934 0.0
H1888 H 0.73483 0.48541 0.37034 0.0
H1889 H 0.73102 0.56163 0.39407 0.0
H1890 H 0.74547 0.54638 0.40892 0.0
H1891 H 0.71994 0.54249 0.4074 0.0
C1892 C 0.72717 0.50282 0.43786 0.0
C1893 C 0.70874 0.49448 0.43771 0.0
C1894 C 0.73632 0.50745 0.42059 0.0
C1895 C 0.72702 0.50416 0.40297 0.0
C1896 C 0.70943 0.49428 0.40282 0.0
H1897 H 0.71775 0.5702 0.30253 0.0
H1898 H 0.71666 0.55417 0.33359 0.0
C1899 C 0.70043 0.4894 0.42001 0.0
C1900 C 0.73424 0.51271 0.38484 0.0
H1901 H 0.74164 0.55583 0.36285 0.0
C1902 C 0.73658 0.50079 0.36872 0.0
C1903 C 0.73628 0.53284 0.3827 0.0
C1904 C 0.7329 0.54663 0.39911 0.0
C1905 C 0.74007 0.50846 0.35041 0.0
C1906 C 0.74177 0.52858 0.34828 0.0
C1907 C 0.74037 0.54041 0.36454 0.0
C1908 C 0.74282 0.53796 0.32919 0.0
C1909 C 0.74077 0.49503 0.3334 0.0
C1910 C 0.75789 0.5342 0.31631 0.0
C1911 C 0.75847 0.54339 0.29845 0.0
C1912 C 0.74422 0.55675 0.29345 0.0
C1913 C 0.7292 0.56041 0.30631 0.0
C1914 C 0.72851 0.55114 0.32399 0.0
H1915 H 0.73512 0.48055 0.33694 0.0
H1916 H 0.73233 0.50087 0.32121 0.0
H1917 H 0.75589 0.49341 0.32866 0.0
H1918 H 0.76927 0.52435 0.32013 0.0
H1919 H 0.77019 0.54033 0.28872 0.0
H1920 H 0.74414 0.50314 0.52948 0.0
H1921 H 0.7605 0.49165 0.55838 0.0
H1922 H 0.7285 0.53197 0.5927 0.0
H1923 H 0.7125 0.54386 0.56396 0.0
H1924 H 0.76557 0.52499 0.60732 0.0
H1925 H 0.72591 0.45738 0.59122 0.0
H1926 H 0.74237 0.46509 0.57299 0.0
H1927 H 0.72153 0.47932 0.57833 0.0
C1928 C 0.7411 0.51006 0.54307 0.0
C1929 C 0.72673 0.52416 0.54445 0.0
C1930 C 0.75035 0.50335 0.55961 0.0
C1931 C 0.74526 0.51055 0.57775 0.0
C1932 C 0.73251 0.52607 0.57888 0.0
H1933 H 0.74214 0.47762 0.69596 0.0
H1934 H 0.74385 0.49549 0.66585 0.0
C1935 C 0.72336 0.53285 0.56238 0.0
C1936 C 0.7509 0.50037 0.59559 0.0
H1937 H 0.74346 0.45849 0.61982 0.0
C1938 C 0.76095 0.51037 0.61 0.0
C1939 C 0.74466 0.48135 0.59916 0.0
C1940 C 0.73288 0.47015 0.58472 0.0
C1941 C 0.76483 0.50189 0.6279 0.0
C1942 C 0.75823 0.48303 0.63155 0.0
C1943 C 0.74862 0.4729 0.61697 0.0
C1944 C 0.75998 0.47372 0.65064 0.0
C1945 C 0.77589 0.51319 0.64274 0.0
C1946 C 0.76856 0.45557 0.6522 0.0
C1947 C 0.76745 0.44525 0.66934 0.0
C1948 C 0.75764 0.45283 0.68528 0.0
C1949 C 0.74987 0.47141 0.68399 0.0
C1950 C 0.75095 0.48171 0.6668 0.0
H1951 H 0.78482 0.52456 0.636 0.0
H1952 H 0.7656 0.52029 0.65261 0.0
H1953 H 0.78535 0.50371 0.65135 0.0
H1954 H 0.77552 0.44908 0.63991 0.0
H1955 H 0.77363 0.43101 0.66983 0.0
H1956 H 0.81795 0.54553 0.90275 0.0
H1957 H 0.79856 0.54275 0.8736 0.0
H1958 H 0.75646 0.50946 0.90438 0.0
H1959 H 0.77565 0.51233 0.93365 0.0
H1960 H 0.79146 0.50756 0.85735 0.0
H1961 H 0.72253 0.54439 0.87178 0.0
H1962 H 0.74392 0.54867 0.88591 0.0
H1963 H 0.7293 0.52782 0.89026 0.0
C1964 C 0.80432 0.53803 0.90347 0.0
C1965 C 0.79841 0.52906 0.92053 0.0
C1966 C 0.79325 0.53646 0.88677 0.0
C1967 C 0.77597 0.52603 0.8868 0.0
C1968 C 0.76953 0.51792 0.90406 0.0
H1969 H 0.70529 0.46342 0.81033 0.0
H1970 H 0.71784 0.48354 0.83613 0.0
C1971 C 0.7806 0.51948 0.92079 0.0
C1972 C 0.76616 0.52137 0.86841 0.0
H1973 H 0.72266 0.5219 0.84556 0.0
C1974 C 0.77652 0.51102 0.85459 0.0
C1975 C 0.74662 0.52575 0.86492 0.0
C1976 C 0.73498 0.53743 0.87893 0.0
C1977 C 0.76769 0.50411 0.83782 0.0
C1978 C 0.74801 0.5081 0.83448 0.0
C1979 C 0.73777 0.51897 0.84804 0.0
C1980 C 0.73752 0.4993 0.81805 0.0
C1981 C 0.7793 0.49162 0.82441 0.0
C1982 C 0.7435 0.50231 0.79904 0.0
C1983 C 0.73644 0.49066 0.78419 0.0
C1984 C 0.72313 0.47598 0.78811 0.0
C1985 C 0.71566 0.47447 0.8068 0.0
C1986 C 0.72282 0.48599 0.82162 0.0
H1987 H 0.79287 0.48661 0.83114 0.0
H1988 H 0.77088 0.47885 0.81982 0.0
H1989 H 0.78311 0.49998 0.81144 0.0
H1990 H 0.75449 0.51286 0.79587 0.0
H1991 H 0.7424 0.49231 0.76994 0.0
H1992 H 0.70315 0.5451 0.16089 0.0
H1993 H 0.70585 0.52705 0.13072 0.0
H1994 H 0.7457 0.56955 0.10941 0.0
H1995 H 0.74139 0.58835 0.13861 0.0
H1996 H 0.72596 0.55912 0.08175 0.0
H1997 H 0.74692 0.4916 0.11826 0.0
H1998 H 0.72299 0.49915 0.12383 0.0
H1999 H 0.74324 0.51357 0.1313 0.0
C2000 C 0.71225 0.55059 0.14957 0.0
C2001 C 0.72211 0.56803 0.15198 0.0
C2002 C 0.71401 0.54017 0.13243 0.0
C2003 C 0.72648 0.54651 0.11786 0.0
C2004 C 0.73597 0.56421 0.12029 0.0
H2005 H 0.79835 0.48642 0.04395 0.0
H2006 H 0.77754 0.49737 0.06945 0.0
C2007 C 0.73357 0.57497 0.13702 0.0
C2008 C 0.7303 0.53483 0.10026 0.0
H2009 H 0.74617 0.49109 0.08474 0.0
C2010 C 0.73043 0.54424 0.08244 0.0
C2011 C 0.73595 0.51529 0.10101 0.0
C2012 C 0.73745 0.50436 0.11963 0.0
C2013 C 0.73757 0.53536 0.0658 0.0
C2014 C 0.74349 0.5159 0.0666 0.0
C2015 C 0.74173 0.50599 0.08406 0.0
C2016 C 0.75442 0.50653 0.05069 0.0
C2017 C 0.74004 0.54752 0.04806 0.0
C2018 C 0.74819 0.50703 0.03146 0.0
C2019 C 0.76055 0.50136 0.0166 0.0
C2020 C 0.77897 0.49424 0.02083 0.0
C2021 C 0.78426 0.49181 0.04013 0.0
C2022 C 0.77228 0.49811 0.05483 0.0
H2023 H 0.73905 0.56311 0.05133 0.0
H2024 H 0.75416 0.54484 0.04119 0.0
H2025 H 0.72849 0.54403 0.03763 0.0
H2026 H 0.73415 0.51259 0.02783 0.0
H2027 H 0.75601 0.50321 0.00185 0.0
H2028 H 0.44627 0.66329 0.80667 0.0
H2029 H 0.46493 0.63371 0.80449 0.0
H2030 H 0.50545 0.66182 0.76716 0.0
H2031 H 0.48702 0.69156 0.76947 0.0
H2032 H 0.46872 0.61596 0.76982 0.0
H2033 H 0.54089 0.62944 0.80066 0.0
H2034 H 0.52046 0.64454 0.80585 0.0
H2035 H 0.53352 0.64741 0.78379 0.0
C2036 C 0.45945 0.66337 0.79843 0.0
C2037 C 0.46508 0.67977 0.78812 0.0
C2038 C 0.47011 0.64642 0.79721 0.0
C2039 C 0.48666 0.64554 0.78576 0.0
C2040 C 0.49296 0.66223 0.7764 0.0
H2041 H 0.54812 0.56367 0.7209 0.0
H2042 H 0.53908 0.59081 0.74106 0.0
C2043 C 0.48233 0.67922 0.77765 0.0
C2044 C 0.49545 0.62666 0.78119 0.0
H2045 H 0.538 0.60229 0.77942 0.0
C2046 C 0.48379 0.61281 0.77227 0.0
C2047 C 0.51515 0.62267 0.78422 0.0
C2048 C 0.52821 0.63673 0.79432 0.0
C2049 C 0.4914 0.59547 0.76547 0.0
C2050 C 0.5112 0.59157 0.76814 0.0
C2051 C 0.5228 0.6052 0.77755 0.0
C2052 C 0.52024 0.57435 0.7594 0.0
C2053 C 0.47833 0.582 0.75449 0.0
C2054 C 0.51369 0.5558 0.76382 0.0
C2055 C 0.51869 0.5402 0.75216 0.0
C2056 C 0.53051 0.54291 0.73604 0.0
C2057 C 0.53884 0.56108 0.73308 0.0
C2058 C 0.53369 0.57667 0.74462 0.0
H2059 H 0.46466 0.58903 0.7502 0.0
H2060 H 0.48551 0.57655 0.74136 0.0
H2061 H 0.47469 0.56954 0.76367 0.0
H2062 H 0.50367 0.5536 0.77548 0.0
H2063 H 0.51217 0.52636 0.75496 0.0
loop_
_geom_bond_atom_site_label_1
_geom_bond_atom_site_label_2
_geom_bond_distance
_geom_bond_site_symmetry_2
_ccdc_geom_bond_type
O0 Cd1 2.223 . S
O0 C8 1.315 . S
Cd1 O0 2.223 . S
Cd1 O4 2.297 . S
Cd1 O5 2.439 . S
Cd1 O11 2.240 . S
Cd2 O3 2.240 . S
Cd2 O10 2.223 . S
Cd2 O12 2.297 . S
Cd2 O13 2.439 . S
O3 Cd2 2.240 . S
O3 C8 1.279 . S
O4 Cd1 2.297 . S
O4 C6 1.247 . S
O5 Cd1 2.439 . S
O5 C6 1.208 . S
C6 O4 1.247 . S
C6 O5 1.208 . S
C7 O12 1.247 . S
C7 O13 1.208 . S
C8 O0 1.315 . S
C8 O3 1.279 . S
C9 O10 1.315 . S
C9 O11 1.279 . S
O10 Cd2 2.223 . S
O10 C9 1.315 . S
O11 Cd1 2.240 . S
O11 C9 1.279 . S
O12 Cd2 2.297 . S
O12 C7 1.247 . S
O13 Cd2 2.439 . S
O13 C7 1.208 . S
O14 Cd15 2.223 . S
O14 C22 1.315 . S
Cd15 O14 2.223 . S
Cd15 O18 2.297 . S
Cd15 O19 2.439 . S
Cd15 O25 2.240 1_455 S
Cd16 O17 2.240 1_655 S
Cd16 O24 2.223 . S
Cd16 O26 2.297 . S
Cd16 O27 2.439 . S
O17 Cd16 2.240 1_455 S
O17 C22 1.279 . S
O18 Cd15 2.297 . S
O18 C20 1.247 . S
O19 Cd15 2.439 . S
O19 C20 1.208 . S
C20 O18 1.247 . S
C20 O19 1.208 . S
C21 O26 1.247 . S
C21 O27 1.208 . S
C22 O14 1.315 . S
C22 O17 1.279 . S
C23 O24 1.315 . S
C23 O25 1.279 . S
O24 Cd16 2.223 . S
O24 C23 1.315 . S
O25 Cd15 2.240 1_655 S
O25 C23 1.279 . S
O26 Cd16 2.297 . S
O26 C21 1.247 . S
O27 Cd16 2.439 . S
O27 C21 1.208 . S
O28 Cd29 2.223 . S
O28 C36 1.315 . S
Cd29 O28 2.223 . S
Cd29 O32 2.297 . S
Cd29 O33 2.439 . S
Cd29 O39 2.240 . S
Cd30 O31 2.240 . S
Cd30 O38 2.223 . S
Cd30 O40 2.297 . S
Cd30 O41 2.439 . S
O31 Cd30 2.240 . S
O31 C36 1.279 . S
O32 Cd29 2.297 . S
O32 C34 1.247 . S
O33 Cd29 2.439 . S
O33 C34 1.208 . S
C34 O32 1.247 . S
C34 O33 1.208 . S
C35 O40 1.247 . S
C35 O41 1.208 . S
C36 O28 1.315 . S
C36 O31 1.279 . S
C37 O38 1.315 . S
C37 O39 1.279 . S
O38 Cd30 2.223 . S
O38 C37 1.315 . S
O39 Cd29 2.240 . S
O39 C37 1.279 . S
O40 Cd30 2.297 . S
O40 C35 1.247 . S
O41 Cd30 2.439 . S
O41 C35 1.208 . S
O42 Cd43 2.230 . S
O42 C50 1.302 1_556 S
Cd43 O42 2.230 . S
Cd43 O46 2.297 1_556 S
Cd43 O47 2.439 1_556 S
Cd43 O53 2.240 . S
Cd44 O45 2.240 . S
Cd44 O52 2.223 1_554 S
Cd44 O54 2.297 1_554 S
Cd44 O55 2.439 . S
O45 Cd44 2.240 . S
O45 C50 1.279 . S
O46 Cd43 2.297 1_554 S
O46 C48 1.247 . S
O47 Cd43 2.439 1_554 S
O47 C48 1.208 . S
C48 O46 1.247 . S
C48 O47 1.208 . S
C49 O54 1.250 . S
C49 O55 1.203 1_556 S
C50 O42 1.302 1_554 S
C50 O45 1.279 . S
C51 O52 1.315 . S
C51 O53 1.279 . S
O52 Cd44 2.223 1_556 S
O52 C51 1.315 . S
O53 Cd43 2.240 . S
O53 C51 1.279 . S
O54 Cd44 2.297 1_556 S
O54 C49 1.250 . S
O55 Cd44 2.439 . S
O55 C49 1.203 1_554 S
O56 Cd57 2.223 1_455 S
O56 C64 1.315 . S
Cd57 O56 2.223 1_655 S
Cd57 O60 2.297 1_655 S
Cd57 O61 2.439 . S
Cd57 O67 2.240 1_545 S
Cd58 O59 2.214 1_565 S
Cd58 O66 2.228 . S
Cd58 O68 2.297 1_455 S
Cd58 O69 2.439 1_455 S
O59 Cd58 2.214 1_545 S
O59 C64 1.285 . S
O60 Cd57 2.297 1_455 S
O60 C62 1.247 . S
O61 Cd57 2.439 . S
O61 C62 1.208 1_655 S
C62 O60 1.247 . S
C62 O61 1.208 1_455 S
C63 O68 1.247 . S
C63 O69 1.208 . S
C64 O56 1.315 . S
C64 O59 1.285 . S
C65 O66 1.305 1_655 S
C65 O67 1.279 . S
O66 Cd58 2.228 . S
O66 C65 1.305 1_455 S
O67 Cd57 2.240 1_565 S
O67 C65 1.279 . S
O68 Cd58 2.297 1_655 S
O68 C63 1.247 . S
O69 Cd58 2.439 1_655 S
O69 C63 1.208 . S
O70 Cd71 2.223 . S
O70 C78 1.315 . S
Cd71 O70 2.223 . S
Cd71 O74 2.297 . S
Cd71 O75 2.439 . S
Cd71 O81 2.240 . S
Cd72 O73 2.240 . S
Cd72 O80 2.223 . S
Cd72 O82 2.297 . S
Cd72 O83 2.439 . S
O73 Cd72 2.240 . S
O73 C78 1.279 . S
O74 Cd71 2.297 . S
O74 C76 1.247 . S
O75 Cd71 2.439 . S
O75 C76 1.208 . S
C76 O74 1.247 . S
C76 O75 1.208 . S
C77 O82 1.247 . S
C77 O83 1.208 . S
C78 O70 1.315 . S
C78 O73 1.279 . S
C79 O80 1.315 . S
C79 O81 1.279 . S
O80 Cd72 2.223 . S
O80 C79 1.315 . S
O81 Cd71 2.240 . S
O81 C79 1.279 . S
O82 Cd72 2.297 . S
O82 C77 1.247 . S
O83 Cd72 2.439 . S
O83 C77 1.208 . S
O84 Cd85 2.223 . S
O84 C92 1.315 . S
Cd85 O84 2.223 . S
Cd85 O88 2.297 . S
Cd85 O89 2.439 . S
Cd85 O95 2.240 1_565 S
Cd86 O87 2.240 1_545 S
Cd86 O94 2.223 . S
Cd86 O96 2.297 . S
Cd86 O97 2.439 . S
O87 Cd86 2.240 1_565 S
O87 C92 1.279 . S
O88 Cd85 2.297 . S
O88 C90 1.247 . S
O89 Cd85 2.439 . S
O89 C90 1.208 . S
C90 O88 1.247 . S
C90 O89 1.208 . S
C91 O96 1.247 . S
C91 O97 1.208 . S
C92 O84 1.315 . S
C92 O87 1.279 . S
C93 O94 1.315 . S
C93 O95 1.279 . S
O94 Cd86 2.223 . S
O94 C93 1.315 . S
O95 Cd85 2.240 1_545 S
O95 C93 1.279 . S
O96 Cd86 2.297 . S
O96 C91 1.247 . S
O97 Cd86 2.439 . S
O97 C91 1.208 . S
O98 Cd99 2.223 . S
O98 C106 1.315 . S
Cd99 O98 2.223 . S
Cd99 O102 2.297 . S
Cd99 O103 2.439 . S
Cd99 O109 2.240 . S
Cd100 O101 2.240 . S
Cd100 O108 2.223 . S
Cd100 O110 2.297 . S
Cd100 O111 2.439 . S
O101 Cd100 2.240 . S
O101 C106 1.279 . S
O102 Cd99 2.297 . S
O102 C104 1.247 . S
O103 Cd99 2.439 . S
O103 C104 1.208 . S
C104 O102 1.247 . S
C104 O103 1.208 . S
C105 O110 1.247 . S
C105 O111 1.208 . S
C106 O98 1.315 . S
C106 O101 1.279 . S
C107 O108 1.315 . S
C107 O109 1.279 . S
O108 Cd100 2.223 . S
O108 C107 1.315 . S
O109 Cd99 2.240 . S
O109 C107 1.279 . S
O110 Cd100 2.297 . S
O110 C105 1.247 . S
O111 Cd100 2.439 . S
O111 C105 1.208 . S
O112 Cd113 2.223 . S
O112 C120 1.315 . S
Cd113 O112 2.223 . S
Cd113 O116 2.297 . S
Cd113 O117 2.439 . S
Cd113 O123 2.240 . S
Cd114 O115 2.240 . S
Cd114 O122 2.223 . S
Cd114 O124 2.297 . S
Cd114 O125 2.439 . S
O115 Cd114 2.240 . S
O115 C120 1.279 . S
O116 Cd113 2.297 . S
O116 C118 1.247 . S
O117 Cd113 2.439 . S
O117 C118 1.208 . S
C118 O116 1.247 . S
C118 O117 1.208 . S
C119 O124 1.247 . S
C119 O125 1.208 . S
C120 O112 1.315 . S
C120 O115 1.279 . S
C121 O122 1.315 . S
C121 O123 1.279 . S
O122 Cd114 2.223 . S
O122 C121 1.315 . S
O123 Cd113 2.240 . S
O123 C121 1.279 . S
O124 Cd114 2.297 . S
O124 C119 1.247 . S
O125 Cd114 2.439 . S
O125 C119 1.208 . S
O126 Cd127 2.230 . S
O126 C134 1.302 1_565 S
Cd127 O126 2.230 . S
Cd127 O130 2.297 1_565 S
Cd127 O131 2.439 1_565 S
Cd127 O137 2.240 . S
Cd128 O129 2.240 . S
Cd128 O136 2.223 1_545 S
Cd128 O138 2.297 1_545 S
Cd128 O139 2.439 . S
O129 Cd128 2.240 . S
O129 C134 1.279 . S
O130 Cd127 2.297 1_545 S
O130 C132 1.247 . S
O131 Cd127 2.439 1_545 S
O131 C132 1.208 . S
C132 O130 1.247 . S
C132 O131 1.208 . S
C133 O138 1.250 . S
C133 O139 1.203 1_565 S
C134 O126 1.302 1_545 S
C134 O129 1.279 . S
C135 O136 1.315 . S
C135 O137 1.279 . S
O136 Cd128 2.223 1_565 S
O136 C135 1.315 . S
O137 Cd127 2.240 . S
O137 C135 1.279 . S
O138 Cd128 2.297 1_565 S
O138 C133 1.250 . S
O139 Cd128 2.439 . S
O139 C133 1.203 1_545 S
O140 Cd141 2.223 . S
O140 C148 1.315 . S
Cd141 O140 2.223 . S
Cd141 O144 2.297 . S
Cd141 O145 2.439 . S
Cd141 O151 2.240 . S
Cd142 O143 2.240 . S
Cd142 O150 2.223 . S
Cd142 O152 2.297 . S
Cd142 O153 2.439 . S
O143 Cd142 2.240 . S
O143 C148 1.279 . S
O144 Cd141 2.297 . S
O144 C146 1.247 . S
O145 Cd141 2.439 . S
O145 C146 1.208 . S
C146 O144 1.247 . S
C146 O145 1.208 . S
C147 O152 1.247 . S
C147 O153 1.208 . S
C148 O140 1.315 . S
C148 O143 1.279 . S
C149 O150 1.315 . S
C149 O151 1.279 . S
O150 Cd142 2.223 . S
O150 C149 1.315 . S
O151 Cd141 2.240 . S
O151 C149 1.279 . S
O152 Cd142 2.297 . S
O152 C147 1.247 . S
O153 Cd142 2.439 . S
O153 C147 1.208 . S
O154 Cd155 2.223 1_545 S
O154 C162 1.315 . S
Cd155 O154 2.223 1_565 S
Cd155 O158 2.297 1_565 S
Cd155 O159 2.439 . S
Cd155 O165 2.240 1_554 S
Cd156 O157 2.214 1_556 S
Cd156 O164 2.228 . S
Cd156 O166 2.297 1_545 S
Cd156 O167 2.439 1_545 S
O157 Cd156 2.214 1_554 S
O157 C162 1.285 . S
O158 Cd155 2.297 1_545 S
O158 C160 1.247 . S
O159 Cd155 2.439 . S
O159 C160 1.208 1_565 S
C160 O158 1.247 . S
C160 O159 1.208 1_545 S
C161 O166 1.247 . S
C161 O167 1.208 . S
C162 O154 1.315 . S
C162 O157 1.285 . S
C163 O164 1.305 1_565 S
C163 O165 1.279 . S
O164 Cd156 2.228 . S
O164 C163 1.305 1_545 S
O165 Cd155 2.240 1_556 S
O165 C163 1.279 . S
O166 Cd156 2.297 1_565 S
O166 C161 1.247 . S
O167 Cd156 2.439 1_565 S
O167 C161 1.208 . S
O168 Cd169 2.223 . S
O168 C176 1.315 . S
Cd169 O168 2.223 . S
Cd169 O172 2.297 . S
Cd169 O173 2.439 . S
Cd169 O179 2.240 . S
Cd170 O171 2.240 . S
Cd170 O178 2.223 . S
Cd170 O180 2.297 . S
Cd170 O181 2.439 . S
O171 Cd170 2.240 . S
O171 C176 1.279 . S
O172 Cd169 2.297 . S
O172 C174 1.247 . S
O173 Cd169 2.439 . S
O173 C174 1.208 . S
C174 O172 1.247 . S
C174 O173 1.208 . S
C175 O180 1.247 . S
C175 O181 1.208 . S
C176 O168 1.315 . S
C176 O171 1.279 . S
C177 O178 1.315 . S
C177 O179 1.279 . S
O178 Cd170 2.223 . S
O178 C177 1.315 . S
O179 Cd169 2.240 . S
O179 C177 1.279 . S
O180 Cd170 2.297 . S
O180 C175 1.247 . S
O181 Cd170 2.439 . S
O181 C175 1.208 . S
O182 Cd183 2.230 . S
O182 C190 1.302 1_655 S
Cd183 O182 2.230 . S
Cd183 O186 2.297 1_655 S
Cd183 O187 2.439 1_655 S
Cd183 O193 2.240 . S
Cd184 O185 2.240 . S
Cd184 O192 2.223 1_455 S
Cd184 O194 2.297 1_455 S
Cd184 O195 2.439 . S
O185 Cd184 2.240 . S
O185 C190 1.279 . S
O186 Cd183 2.297 1_455 S
O186 C188 1.247 . S
O187 Cd183 2.439 1_455 S
O187 C188 1.208 . S
C188 O186 1.247 . S
C188 O187 1.208 . S
C189 O194 1.250 . S
C189 O195 1.203 1_655 S
C190 O182 1.302 1_455 S
C190 O185 1.279 . S
C191 O192 1.315 . S
C191 O193 1.279 . S
O192 Cd184 2.223 1_655 S
O192 C191 1.315 . S
O193 Cd183 2.240 . S
O193 C191 1.279 . S
O194 Cd184 2.297 1_655 S
O194 C189 1.250 . S
O195 Cd184 2.439 . S
O195 C189 1.203 1_455 S
O196 Cd197 2.223 . S
O196 C204 1.315 . S
Cd197 O196 2.223 . S
Cd197 O200 2.297 . S
Cd197 O201 2.439 . S
Cd197 O207 2.240 . S
Cd198 O199 2.240 . S
Cd198 O206 2.223 . S
Cd198 O208 2.297 . S
Cd198 O209 2.439 . S
O199 Cd198 2.240 . S
O199 C204 1.279 . S
O200 Cd197 2.297 . S
O200 C202 1.247 . S
O201 Cd197 2.439 . S
O201 C202 1.208 . S
C202 O200 1.247 . S
C202 O201 1.208 . S
C203 O208 1.247 . S
C203 O209 1.208 . S
C204 O196 1.315 . S
C204 O199 1.279 . S
C205 O206 1.315 . S
C205 O207 1.279 . S
O206 Cd198 2.223 . S
O206 C205 1.315 . S
O207 Cd197 2.240 . S
O207 C205 1.279 . S
O208 Cd198 2.297 . S
O208 C203 1.247 . S
O209 Cd198 2.439 . S
O209 C203 1.208 . S
O210 Cd211 2.223 . S
O210 C218 1.315 . S
Cd211 O210 2.223 . S
Cd211 O214 2.297 . S
Cd211 O215 2.439 . S
Cd211 O221 2.240 . S
Cd212 O213 2.240 . S
Cd212 O220 2.223 . S
Cd212 O222 2.297 . S
Cd212 O223 2.439 . S
O213 Cd212 2.240 . S
O213 C218 1.279 . S
O214 Cd211 2.297 . S
O214 C216 1.247 . S
O215 Cd211 2.439 . S
O215 C216 1.208 . S
C216 O214 1.247 . S
C216 O215 1.208 . S
C217 O222 1.247 . S
C217 O223 1.208 . S
C218 O210 1.315 . S
C218 O213 1.279 . S
C219 O220 1.315 . S
C219 O221 1.279 . S
O220 Cd212 2.223 . S
O220 C219 1.315 . S
O221 Cd211 2.240 . S
O221 C219 1.279 . S
O222 Cd212 2.297 . S
O222 C217 1.247 . S
O223 Cd212 2.439 . S
O223 C217 1.208 . S
O224 Cd225 2.223 . S
O224 C232 1.315 . S
Cd225 O224 2.223 . S
Cd225 O228 2.297 . S
Cd225 O229 2.439 . S
Cd225 O235 2.240 . S
Cd226 O227 2.240 . S
Cd226 O234 2.223 . S
Cd226 O236 2.297 . S
Cd226 O237 2.439 . S
O227 Cd226 2.240 . S
O227 C232 1.279 . S
O228 Cd225 2.297 . S
O228 C230 1.247 . S
O229 Cd225 2.439 . S
O229 C230 1.208 . S
C230 O228 1.247 . S
C230 O229 1.208 . S
C231 O236 1.247 . S
C231 O237 1.208 . S
C232 O224 1.315 . S
C232 O227 1.279 . S
C233 O234 1.315 . S
C233 O235 1.279 . S
O234 Cd226 2.223 . S
O234 C233 1.315 . S
O235 Cd225 2.240 . S
O235 C233 1.279 . S
O236 Cd226 2.297 . S
O236 C231 1.247 . S
O237 Cd226 2.439 . S
O237 C231 1.208 . S
O238 Cd239 2.223 . S
O238 C246 1.315 . S
Cd239 O238 2.223 . S
Cd239 O242 2.297 . S
Cd239 O243 2.439 . S
Cd239 O249 2.240 . S
Cd240 O241 2.240 . S
Cd240 O248 2.223 . S
Cd240 O250 2.297 . S
Cd240 O251 2.439 . S
O241 Cd240 2.240 . S
O241 C246 1.279 . S
O242 Cd239 2.297 . S
O242 C244 1.247 . S
O243 Cd239 2.439 . S
O243 C244 1.208 . S
C244 O242 1.247 . S
C244 O243 1.208 . S
C245 O250 1.247 . S
C245 O251 1.208 . S
C246 O238 1.315 . S
C246 O241 1.279 . S
C247 O248 1.315 . S
C247 O249 1.279 . S
O248 Cd240 2.223 . S
O248 C247 1.315 . S
O249 Cd239 2.240 . S
O249 C247 1.279 . S
O250 Cd240 2.297 . S
O250 C245 1.247 . S
O251 Cd240 2.439 . S
O251 C245 1.208 . S
O252 Cd253 2.223 1_554 S
O252 C260 1.315 . S
Cd253 O252 2.223 1_556 S
Cd253 O256 2.297 1_556 S
Cd253 O257 2.439 . S
Cd253 O263 2.240 1_455 S
Cd254 O255 2.214 1_655 S
Cd254 O262 2.228 . S
Cd254 O264 2.297 1_554 S
Cd254 O265 2.439 1_554 S
O255 Cd254 2.214 1_455 S
O255 C260 1.285 . S
O256 Cd253 2.297 1_554 S
O256 C258 1.247 . S
O257 Cd253 2.439 . S
O257 C258 1.208 1_556 S
C258 O256 1.247 . S
C258 O257 1.208 1_554 S
C259 O264 1.247 . S
C259 O265 1.208 . S
C260 O252 1.315 . S
C260 O255 1.285 . S
C261 O262 1.305 1_556 S
C261 O263 1.279 . S
O262 Cd254 2.228 . S
O262 C261 1.305 1_554 S
O263 Cd253 2.240 1_655 S
O263 C261 1.279 . S
O264 Cd254 2.297 1_556 S
O264 C259 1.247 . S
O265 Cd254 2.439 1_556 S
O265 C259 1.208 . S
O266 Cd267 2.223 . S
O266 C274 1.315 . S
Cd267 O266 2.223 . S
Cd267 O270 2.297 . S
Cd267 O271 2.439 . S
Cd267 O277 2.240 . S
Cd268 O269 2.240 . S
Cd268 O276 2.223 . S
Cd268 O278 2.297 . S
Cd268 O279 2.439 . S
O269 Cd268 2.240 . S
O269 C274 1.279 . S
O270 Cd267 2.297 . S
O270 C272 1.247 . S
O271 Cd267 2.439 . S
O271 C272 1.208 . S
C272 O270 1.247 . S
C272 O271 1.208 . S
C273 O278 1.247 . S
C273 O279 1.208 . S
C274 O266 1.315 . S
C274 O269 1.279 . S
C275 O276 1.315 . S
C275 O277 1.279 . S
O276 Cd268 2.223 . S
O276 C275 1.315 . S
O277 Cd267 2.240 . S
O277 C275 1.279 . S
O278 Cd268 2.297 . S
O278 C273 1.247 . S
O279 Cd268 2.439 . S
O279 C273 1.208 . S
O280 Cd281 2.223 . S
O280 C288 1.315 . S
Cd281 O280 2.223 . S
Cd281 O284 2.297 . S
Cd281 O285 2.439 . S
Cd281 O291 2.240 . S
Cd282 O283 2.240 . S
Cd282 O290 2.223 . S
Cd282 O292 2.297 . S
Cd282 O293 2.439 . S
O283 Cd282 2.240 . S
O283 C288 1.279 . S
O284 Cd281 2.297 . S
O284 C286 1.247 . S
O285 Cd281 2.439 . S
O285 C286 1.208 . S
C286 O284 1.247 . S
C286 O285 1.208 . S
C287 O292 1.247 . S
C287 O293 1.208 . S
C288 O280 1.315 . S
C288 O283 1.279 . S
C289 O290 1.315 . S
C289 O291 1.279 . S
O290 Cd282 2.223 . S
O290 C289 1.315 . S
O291 Cd281 2.240 . S
O291 C289 1.279 . S
O292 Cd282 2.297 . S
O292 C287 1.247 . S
O293 Cd282 2.439 . S
O293 C287 1.208 . S
O294 Cd295 2.223 . S
O294 C302 1.315 . S
Cd295 O294 2.223 . S
Cd295 O298 2.297 . S
Cd295 O299 2.439 . S
Cd295 O305 2.240 . S
Cd296 O297 2.240 . S
Cd296 O304 2.223 . S
Cd296 O306 2.297 . S
Cd296 O307 2.439 . S
O297 Cd296 2.240 . S
O297 C302 1.279 . S
O298 Cd295 2.297 . S
O298 C300 1.247 . S
O299 Cd295 2.439 . S
O299 C300 1.208 . S
C300 O298 1.247 . S
C300 O299 1.208 . S
C301 O306 1.247 . S
C301 O307 1.208 . S
C302 O294 1.315 . S
C302 O297 1.279 . S
C303 O304 1.315 . S
C303 O305 1.279 . S
O304 Cd296 2.223 . S
O304 C303 1.315 . S
O305 Cd295 2.240 . S
O305 C303 1.279 . S
O306 Cd296 2.297 . S
O306 C301 1.247 . S
O307 Cd296 2.439 . S
O307 C301 1.208 . S
O308 Cd309 2.223 . S
O308 C316 1.315 . S
Cd309 O308 2.223 . S
Cd309 O312 2.297 . S
Cd309 O313 2.439 . S
Cd309 O319 2.240 1_556 S
Cd310 O311 2.240 1_554 S
Cd310 O318 2.223 . S
Cd310 O320 2.297 . S
Cd310 O321 2.439 . S
O311 Cd310 2.240 1_556 S
O311 C316 1.279 . S
O312 Cd309 2.297 . S
O312 C314 1.247 . S
O313 Cd309 2.439 . S
O313 C314 1.208 . S
C314 O312 1.247 . S
C314 O313 1.208 . S
C315 O320 1.247 . S
C315 O321 1.208 . S
C316 O308 1.315 . S
C316 O311 1.279 . S
C317 O318 1.315 . S
C317 O319 1.279 . S
O318 Cd310 2.223 . S
O318 C317 1.315 . S
O319 Cd309 2.240 1_554 S
O319 C317 1.279 . S
O320 Cd310 2.297 . S
O320 C315 1.247 . S
O321 Cd310 2.439 . S
O321 C315 1.208 . S
O322 Cd323 2.223 . S
O322 C330 1.315 . S
Cd323 O322 2.223 . S
Cd323 O326 2.297 . S
Cd323 O327 2.439 . S
Cd323 O333 2.240 . S
Cd324 O325 2.240 . S
Cd324 O332 2.223 . S
Cd324 O334 2.297 . S
Cd324 O335 2.439 . S
O325 Cd324 2.240 . S
O325 C330 1.279 . S
O326 Cd323 2.297 . S
O326 C328 1.247 . S
O327 Cd323 2.439 . S
O327 C328 1.208 . S
C328 O326 1.247 . S
C328 O327 1.208 . S
C329 O334 1.247 . S
C329 O335 1.208 . S
C330 O322 1.315 . S
C330 O325 1.279 . S
C331 O332 1.315 . S
C331 O333 1.279 . S
O332 Cd324 2.223 . S
O332 C331 1.315 . S
O333 Cd323 2.240 . S
O333 C331 1.279 . S
O334 Cd324 2.297 . S
O334 C329 1.247 . S
O335 Cd324 2.439 . S
O335 C329 1.208 . S
H336 C344 0.929 . S
H337 C346 0.930 . S
H338 C348 0.930 . S
H339 C351 0.929 . S
H340 C354 0.930 . S
H341 C356 0.960 . S
H342 C356 0.960 . S
H343 C356 0.960 . S
C344 H336 0.929 . S
C344 C345 1.377 . S
C344 C346 1.384 . S
C345 C344 1.377 . S
C345 C351 1.390 . S
C346 H337 0.930 . S
C346 C344 1.384 . S
C346 C347 1.372 . S
C347 C346 1.372 . S
C347 C348 1.400 . S
C347 C352 1.490 . S
C348 H338 0.930 . S
C348 C347 1.400 . S
C348 C351 1.386 . S
H349 C365 0.930 . S
H350 C366 0.931 . S
C351 H339 0.929 . S
C351 C345 1.390 . S
C351 C348 1.386 . S
C352 C347 1.490 . S
C352 C354 1.395 . S
C352 C355 1.403 . S
H353 C359 0.930 . S
C354 H340 0.930 . S
C354 C352 1.395 . S
C354 C357 1.403 . S
C355 C352 1.403 . S
C355 C356 1.524 . S
C355 C359 1.400 . S
C356 H341 0.960 . S
C356 H342 0.960 . S
C356 H343 0.960 . S
C356 C355 1.524 . S
C357 C354 1.403 . S
C357 C358 1.392 . S
C357 C361 1.495 . S
C358 C357 1.392 . S
C358 C359 1.385 . S
C358 C360 1.478 . S
C359 H353 0.930 . S
C359 C355 1.400 . S
C359 C358 1.385 . S
C360 C358 1.478 . S
C360 C362 1.381 . S
C360 C366 1.383 . S
C361 C357 1.495 . S
C361 H367 0.959 . S
C361 H368 0.961 . S
C361 H369 0.960 . S
C362 C360 1.381 . S
C362 C363 1.394 . S
C362 H370 0.930 . S
C363 C362 1.394 . S
C363 C364 1.383 . S
C363 H371 0.929 . S
C364 C363 1.383 . S
C364 C365 1.377 . S
C365 H349 0.930 . S
C365 C364 1.377 . S
C365 C366 1.379 . S
C366 H350 0.931 . S
C366 C360 1.383 . S
C366 C365 1.379 . S
H367 C361 0.959 . S
H368 C361 0.961 . S
H369 C361 0.960 . S
H370 C362 0.930 . S
H371 C363 0.929 . S
H372 C380 0.929 . S
H373 C382 0.930 . S
H374 C384 0.930 . S
H375 C387 0.929 . S
H376 C390 0.930 . S
H377 C392 0.960 . S
H378 C392 0.960 . S
H379 C392 0.960 . S
C380 H372 0.929 . S
C380 C381 1.377 . S
C380 C382 1.384 . S
C381 C380 1.377 . S
C381 C387 1.390 1_655 S
C382 H373 0.930 . S
C382 C380 1.384 . S
C382 C383 1.372 . S
C383 C382 1.372 . S
C383 C384 1.400 1_655 S
C383 C388 1.490 . S
C384 H374 0.930 . S
C384 C383 1.400 1_455 S
C384 C387 1.386 . S
H385 C401 0.951 . S
H386 C402 0.931 1_455 S
C387 H375 0.929 . S
C387 C381 1.390 1_455 S
C387 C384 1.386 . S
C388 C383 1.490 . S
C388 C390 1.395 1_655 S
C388 C391 1.403 . S
H389 C395 0.930 . S
C390 H376 0.930 . S
C390 C388 1.395 1_455 S
C390 C393 1.404 . S
C391 C388 1.403 . S
C391 C392 1.524 . S
C391 C395 1.400 . S
C392 H377 0.960 . S
C392 H378 0.960 . S
C392 H379 0.960 . S
C392 C391 1.524 . S
C393 C390 1.404 . S
C393 C394 1.384 1_455 S
C393 C397 1.503 . S
C394 C393 1.384 1_655 S
C394 C395 1.385 . S
C394 C396 1.478 . S
C395 H389 0.930 . S
C395 C391 1.400 . S
C395 C394 1.385 . S
C396 C394 1.478 . S
C396 C398 1.381 . S
C396 C402 1.383 . S
C397 C393 1.503 . S
C397 H403 0.959 . S
C397 H404 0.961 . S
C397 H405 0.960 . S
C398 C396 1.381 . S
C398 C399 1.394 . S
C398 H406 0.930 . S
C399 C398 1.394 . S
C399 C400 1.383 . S
C399 H407 0.929 . S
C400 C399 1.383 . S
C400 C401 1.377 . S
C401 H385 0.951 . S
C401 C400 1.377 . S
C401 C402 1.379 . S
C402 H386 0.931 1_655 S
C402 C396 1.383 . S
C402 C401 1.379 . S
H403 C397 0.959 . S
H404 C397 0.961 . S
H405 C397 0.960 . S
H406 C398 0.930 . S
H407 C399 0.929 . S
H408 C416 0.929 . S
H409 C418 0.930 . S
H410 C420 0.930 . S
H411 C423 0.929 . S
H412 C426 0.930 . S
H413 C428 0.960 . S
H414 C428 0.960 . S
H415 C428 0.960 . S
C416 H408 0.929 . S
C416 C417 1.377 . S
C416 C418 1.384 . S
C417 C416 1.377 . S
C417 C423 1.390 . S
C418 H409 0.930 . S
C418 C416 1.384 . S
C418 C419 1.372 . S
C419 C418 1.372 . S
C419 C420 1.400 . S
C419 C424 1.490 . S
C420 H410 0.930 . S
C420 C419 1.400 . S
C420 C423 1.386 . S
H421 C437 0.930 . S
H422 C438 0.931 . S
C423 H411 0.929 . S
C423 C417 1.390 . S
C423 C420 1.386 . S
C424 C419 1.490 . S
C424 C426 1.395 . S
C424 C427 1.403 . S
H425 C431 0.930 . S
C426 H412 0.930 . S
C426 C424 1.395 . S
C426 C429 1.403 . S
C427 C424 1.403 . S
C427 C428 1.524 . S
C427 C431 1.400 . S
C428 H413 0.960 . S
C428 H414 0.960 . S
C428 H415 0.960 . S
C428 C427 1.524 . S
C429 C426 1.403 . S
C429 C430 1.392 . S
C429 C433 1.495 . S
C430 C429 1.392 . S
C430 C431 1.385 . S
C430 C432 1.478 . S
C431 H425 0.930 . S
C431 C427 1.400 . S
C431 C430 1.385 . S
C432 C430 1.478 . S
C432 C434 1.381 . S
C432 C438 1.383 . S
C433 C429 1.495 . S
C433 H439 0.959 . S
C433 H440 0.961 . S
C433 H441 0.960 . S
C434 C432 1.381 . S
C434 C435 1.394 . S
C434 H442 0.930 . S
C435 C434 1.394 . S
C435 C436 1.383 . S
C435 H443 0.929 . S
C436 C435 1.383 . S
C436 C437 1.377 . S
C437 H421 0.930 . S
C437 C436 1.377 . S
C437 C438 1.379 . S
C438 H422 0.931 . S
C438 C432 1.383 . S
C438 C437 1.379 . S
H439 C433 0.959 . S
H440 C433 0.961 . S
H441 C433 0.960 . S
H442 C434 0.930 . S
H443 C435 0.929 . S
H444 C452 0.929 . S
H445 C454 0.930 . S
H446 C456 0.930 . S
H447 C459 0.929 . S
H448 C462 0.930 . S
H449 C464 0.960 . S
H450 C464 0.960 . S
H451 C464 0.960 . S
C452 H444 0.929 . S
C452 C453 1.377 . S
C452 C454 1.384 . S
C453 C452 1.377 . S
C453 C459 1.390 . S
C454 H445 0.930 . S
C454 C452 1.384 . S
C454 C455 1.372 . S
C455 C454 1.372 . S
C455 C456 1.400 . S
C455 C460 1.490 . S
C456 H446 0.930 . S
C456 C455 1.400 . S
C456 C459 1.386 . S
H457 C473 0.930 . S
H458 C474 0.931 . S
C459 H447 0.929 . S
C459 C453 1.390 . S
C459 C456 1.386 . S
C460 C455 1.490 . S
C460 C462 1.395 . S
C460 C463 1.403 . S
H461 C467 0.930 . S
C462 H448 0.930 . S
C462 C460 1.395 . S
C462 C465 1.403 . S
C463 C460 1.403 . S
C463 C464 1.524 . S
C463 C467 1.400 . S
C464 H449 0.960 . S
C464 H450 0.960 . S
C464 H451 0.960 . S
C464 C463 1.524 . S
C465 C462 1.403 . S
C465 C466 1.392 . S
C465 C469 1.495 . S
C466 C465 1.392 . S
C466 C467 1.385 . S
C466 C468 1.478 . S
C467 H461 0.930 . S
C467 C463 1.400 . S
C467 C466 1.385 . S
C468 C466 1.478 . S
C468 C470 1.381 . S
C468 C474 1.383 . S
C469 C465 1.495 . S
C469 H475 0.959 . S
C469 H476 0.961 . S
C469 H477 0.960 . S
C470 C468 1.381 . S
C470 C471 1.394 . S
C470 H478 0.930 . S
C471 C470 1.394 . S
C471 C472 1.383 . S
C471 H479 0.929 . S
C472 C471 1.383 . S
C472 C473 1.377 . S
C473 H457 0.930 . S
C473 C472 1.377 . S
C473 C474 1.379 . S
C474 H458 0.931 . S
C474 C468 1.383 . S
C474 C473 1.379 . S
H475 C469 0.959 . S
H476 C469 0.961 . S
H477 C469 0.960 . S
H478 C470 0.930 . S
H479 C471 0.929 . S
H480 C488 0.929 . S
H481 C490 0.930 . S
H482 C492 0.930 . S
H483 C495 0.929 . S
H484 C498 0.930 . S
H485 C500 0.960 . S
H486 C500 0.960 . S
H487 C500 0.960 . S
C488 H480 0.929 . S
C488 C489 1.377 . S
C488 C490 1.384 . S
C489 C488 1.377 . S
C489 C495 1.390 . S
C490 H481 0.930 . S
C490 C488 1.384 . S
C490 C491 1.372 . S
C491 C490 1.372 . S
C491 C492 1.400 . S
C491 C496 1.490 . S
C492 H482 0.930 . S
C492 C491 1.400 . S
C492 C495 1.386 . S
H493 C509 0.930 . S
H494 C510 0.931 . S
C495 H483 0.929 . S
C495 C489 1.390 . S
C495 C492 1.386 . S
C496 C491 1.490 . S
C496 C498 1.395 . S
C496 C499 1.403 . S
H497 C503 0.930 . S
C498 H484 0.930 . S
C498 C496 1.395 . S
C498 C501 1.403 . S
C499 C496 1.403 . S
C499 C500 1.524 . S
C499 C503 1.400 . S
C500 H485 0.960 . S
C500 H486 0.960 . S
C500 H487 0.960 . S
C500 C499 1.524 . S
C501 C498 1.403 . S
C501 C502 1.392 . S
C501 C505 1.495 . S
C502 C501 1.392 . S
C502 C503 1.385 . S
C502 C504 1.478 . S
C503 H497 0.930 . S
C503 C499 1.400 . S
C503 C502 1.385 . S
C504 C502 1.478 . S
C504 C506 1.381 . S
C504 C510 1.383 . S
C505 C501 1.495 . S
C505 H511 0.959 . S
C505 H512 0.961 . S
C505 H513 0.960 . S
C506 C504 1.381 . S
C506 C507 1.394 . S
C506 H514 0.930 . S
C507 C506 1.394 . S
C507 C508 1.383 . S
C507 H515 0.929 . S
C508 C507 1.383 . S
C508 C509 1.377 . S
C509 H493 0.930 . S
C509 C508 1.377 . S
C509 C510 1.379 . S
C510 H494 0.931 . S
C510 C504 1.383 . S
C510 C509 1.379 . S
H511 C505 0.959 . S
H512 C505 0.961 . S
H513 C505 0.960 . S
H514 C506 0.930 . S
H515 C507 0.929 . S
H516 C524 0.929 . S
H517 C526 0.930 . S
H518 C528 0.930 . S
H519 C531 0.929 . S
H520 C534 0.930 . S
H521 C536 0.960 . S
H522 C536 0.960 . S
H523 C536 0.960 . S
C524 H516 0.929 . S
C524 C525 1.377 . S
C524 C526 1.384 . S
C525 C524 1.377 . S
C525 C531 1.390 . S
C526 H517 0.930 . S
C526 C524 1.384 . S
C526 C527 1.372 . S
C527 C526 1.372 . S
C527 C528 1.400 . S
C527 C532 1.490 . S
C528 H518 0.930 . S
C528 C527 1.400 . S
C528 C531 1.386 . S
H529 C545 0.930 . S
H530 C546 0.931 . S
C531 H519 0.929 . S
C531 C525 1.390 . S
C531 C528 1.386 . S
C532 C527 1.490 . S
C532 C534 1.395 . S
C532 C535 1.403 . S
H533 C539 0.930 . S
C534 H520 0.930 . S
C534 C532 1.395 . S
C534 C537 1.403 . S
C535 C532 1.403 . S
C535 C536 1.524 . S
C535 C539 1.400 . S
C536 H521 0.960 . S
C536 H522 0.960 . S
C536 H523 0.960 . S
C536 C535 1.524 . S
C537 C534 1.403 . S
C537 C538 1.392 . S
C537 C541 1.495 . S
C538 C537 1.392 . S
C538 C539 1.385 . S
C538 C540 1.478 . S
C539 H533 0.930 . S
C539 C535 1.400 . S
C539 C538 1.385 . S
C540 C538 1.478 . S
C540 C542 1.381 . S
C540 C546 1.383 . S
C541 C537 1.495 . S
C541 H547 0.959 . S
C541 H548 0.961 . S
C541 H549 0.960 . S
C542 C540 1.381 . S
C542 C543 1.394 . S
C542 H550 0.930 . S
C543 C542 1.394 . S
C543 C544 1.383 . S
C543 H551 0.929 . S
C544 C543 1.383 . S
C544 C545 1.377 . S
C545 H529 0.930 . S
C545 C544 1.377 . S
C545 C546 1.379 . S
C546 H530 0.931 . S
C546 C540 1.383 . S
C546 C545 1.379 . S
H547 C541 0.959 . S
H548 C541 0.961 . S
H549 C541 0.960 . S
H550 C542 0.930 . S
H551 C543 0.929 . S
H552 C560 0.929 . S
H553 C562 0.930 . S
H554 C564 0.930 . S
H555 C567 0.929 . S
H556 C570 0.930 . S
H557 C572 0.960 . S
H558 C572 0.960 . S
H559 C572 0.960 . S
C560 H552 0.929 . S
C560 C561 1.377 . S
C560 C562 1.384 . S
C561 C560 1.377 . S
C561 C567 1.390 . S
C562 H553 0.930 . S
C562 C560 1.384 . S
C562 C563 1.372 . S
C563 C562 1.372 . S
C563 C564 1.400 . S
C563 C568 1.490 . S
C564 H554 0.930 . S
C564 C563 1.400 . S
C564 C567 1.386 . S
H565 C581 0.930 . S
H566 C582 0.931 . S
C567 H555 0.929 . S
C567 C561 1.390 . S
C567 C564 1.386 . S
C568 C563 1.490 . S
C568 C570 1.395 . S
C568 C571 1.403 . S
H569 C575 0.930 . S
C570 H556 0.930 . S
C570 C568 1.395 . S
C570 C573 1.403 . S
C571 C568 1.403 . S
C571 C572 1.524 . S
C571 C575 1.400 . S
C572 H557 0.960 . S
C572 H558 0.960 . S
C572 H559 0.960 . S
C572 C571 1.524 . S
C573 C570 1.403 . S
C573 C574 1.392 . S
C573 C577 1.495 . S
C574 C573 1.392 . S
C574 C575 1.385 . S
C574 C576 1.478 . S
C575 H569 0.930 . S
C575 C571 1.400 . S
C575 C574 1.385 . S
C576 C574 1.478 . S
C576 C578 1.381 . S
C576 C582 1.383 . S
C577 C573 1.495 . S
C577 H583 0.959 . S
C577 H584 0.961 . S
C577 H585 0.960 . S
C578 C576 1.381 . S
C578 C579 1.394 . S
C578 H586 0.930 . S
C579 C578 1.394 . S
C579 C580 1.383 . S
C579 H587 0.929 . S
C580 C579 1.383 . S
C580 C581 1.377 . S
C581 H565 0.930 . S
C581 C580 1.377 . S
C581 C582 1.379 . S
C582 H566 0.931 . S
C582 C576 1.383 . S
C582 C581 1.379 . S
H583 C577 0.959 . S
H584 C577 0.961 . S
H585 C577 0.960 . S
H586 C578 0.930 . S
H587 C579 0.929 . S
H588 C596 0.929 . S
H589 C598 0.930 . S
H590 C600 0.930 . S
H591 C603 0.929 . S
H592 C606 0.925 1_556 S
H593 C608 0.960 . S
H594 C608 0.960 . S
H595 C608 0.960 . S
C596 H588 0.929 . S
C596 C597 1.391 . S
C596 C598 1.384 . S
C597 C596 1.391 . S
C597 C603 1.380 1_554 S
C598 H589 0.930 . S
C598 C596 1.384 . S
C598 C599 1.372 . S
C599 C598 1.372 . S
C599 C600 1.400 1_554 S
C599 C604 1.490 . S
C600 H590 0.930 . S
C600 C599 1.400 1_556 S
C600 C603 1.386 . S
H601 C617 0.931 1_556 S
H602 C618 0.931 1_556 S
C603 H591 0.929 . S
C603 C597 1.380 1_556 S
C603 C600 1.386 . S
C604 C599 1.490 . S
C604 C606 1.398 . S
C604 C607 1.403 . S
H605 C611 0.930 . S
C606 H592 0.925 1_554 S
C606 C604 1.398 . S
C606 C609 1.404 . S
C607 C604 1.403 . S
C607 C608 1.524 . S
C607 C611 1.400 . S
C608 H593 0.960 . S
C608 H594 0.960 . S
C608 H595 0.960 . S
C608 C607 1.524 . S
C609 C606 1.404 . S
C609 C610 1.392 . S
C609 C613 1.495 1_554 S
C610 C609 1.392 . S
C610 C611 1.385 . S
C610 C612 1.478 . S
C611 H605 0.930 . S
C611 C607 1.400 . S
C611 C610 1.385 . S
C612 C610 1.478 . S
C612 C614 1.381 . S
C612 C618 1.383 . S
C613 C609 1.495 1_556 S
C613 H619 0.959 . S
C613 H620 0.961 . S
C613 H621 0.960 1_556 S
C614 C612 1.381 . S
C614 C615 1.394 . S
C614 H622 0.930 . S
C615 C614 1.394 . S
C615 C616 1.383 . S
C615 H623 0.929 . S
C616 C615 1.383 . S
C616 C617 1.377 . S
C617 H601 0.931 1_554 S
C617 C616 1.377 . S
C617 C618 1.379 . S
C618 H602 0.931 1_554 S
C618 C612 1.383 . S
C618 C617 1.379 . S
H619 C613 0.959 . S
H620 C613 0.961 . S
H621 C613 0.960 1_554 S
H622 C614 0.930 . S
H623 C615 0.929 . S
H624 C632 0.929 . S
H625 C634 0.930 . S
H626 C636 0.930 . S
H627 C639 0.929 . S
H628 C642 0.930 1_565 S
H629 C644 0.960 . S
H630 C644 0.960 . S
H631 C644 0.960 . S
C632 H624 0.929 . S
C632 C633 1.376 . S
C632 C634 1.384 . S
C633 C632 1.376 . S
C633 C639 1.391 1_565 S
C634 H625 0.930 . S
C634 C632 1.384 . S
C634 C635 1.372 1_565 S
C635 C634 1.372 1_545 S
C635 C636 1.400 . S
C635 C640 1.490 . S
C636 H626 0.930 . S
C636 C635 1.400 . S
C636 C639 1.386 . S
H637 C653 0.930 . S
H638 C654 0.931 . S
C639 H627 0.929 . S
C639 C633 1.391 1_545 S
C639 C636 1.386 . S
C640 C635 1.490 . S
C640 C642 1.395 . S
C640 C643 1.403 . S
H641 C647 0.930 . S
C642 H628 0.930 1_545 S
C642 C640 1.395 . S
C642 C645 1.403 . S
C643 C640 1.403 . S
C643 C644 1.524 . S
C643 C647 1.400 . S
C644 H629 0.960 . S
C644 H630 0.960 . S
C644 H631 0.960 . S
C644 C643 1.524 . S
C645 C642 1.403 . S
C645 C646 1.392 . S
C645 C649 1.495 . S
C646 C645 1.392 . S
C646 C647 1.385 . S
C646 C648 1.478 . S
C647 H641 0.930 . S
C647 C643 1.400 . S
C647 C646 1.385 . S
C648 C646 1.478 . S
C648 C650 1.381 1_545 S
C648 C654 1.383 . S
C649 C645 1.495 . S
C649 H655 0.959 1_545 S
C649 H656 0.961 . S
C649 H657 0.960 1_545 S
C650 C648 1.381 1_565 S
C650 C651 1.391 1_565 S
C650 H658 0.930 . S
C651 C650 1.391 1_545 S
C651 C652 1.410 . S
C651 H659 0.906 1_545 S
C652 C651 1.410 . S
C652 C653 1.377 . S
C653 H637 0.930 . S
C653 C652 1.377 . S
C653 C654 1.379 . S
C654 H638 0.931 . S
C654 C648 1.383 . S
C654 C653 1.379 . S
H655 C649 0.959 1_565 S
H656 C649 0.961 . S
H657 C649 0.960 1_565 S
H658 C650 0.930 . S
H659 C651 0.906 1_565 S
H660 C668 0.929 . S
H661 C670 0.930 . S
H662 C672 0.930 . S
H663 C675 0.929 . S
H664 C678 0.930 . S
H665 C680 0.960 . S
H666 C680 0.960 . S
H667 C680 0.960 . S
C668 H660 0.929 . S
C668 C669 1.377 . S
C668 C670 1.384 . S
C669 C668 1.377 . S
C669 C675 1.390 . S
C670 H661 0.930 . S
C670 C668 1.384 . S
C670 C671 1.372 . S
C671 C670 1.372 . S
C671 C672 1.400 . S
C671 C676 1.490 . S
C672 H662 0.930 . S
C672 C671 1.400 . S
C672 C675 1.386 . S
H673 C689 0.930 . S
H674 C690 0.931 . S
C675 H663 0.929 . S
C675 C669 1.390 . S
C675 C672 1.386 . S
C676 C671 1.490 . S
C676 C678 1.395 . S
C676 C679 1.403 . S
H677 C683 0.930 . S
C678 H664 0.930 . S
C678 C676 1.395 . S
C678 C681 1.403 . S
C679 C676 1.403 . S
C679 C680 1.524 . S
C679 C683 1.400 . S
C680 H665 0.960 . S
C680 H666 0.960 . S
C680 H667 0.960 . S
C680 C679 1.524 . S
C681 C678 1.403 . S
C681 C682 1.392 . S
C681 C685 1.495 . S
C682 C681 1.392 . S
C682 C683 1.385 . S
C682 C684 1.478 . S
C683 H677 0.930 . S
C683 C679 1.400 . S
C683 C682 1.385 . S
C684 C682 1.478 . S
C684 C686 1.381 . S
C684 C690 1.383 . S
C685 C681 1.495 . S
C685 H691 0.959 . S
C685 H692 0.961 . S
C685 H693 0.960 . S
C686 C684 1.381 . S
C686 C687 1.394 . S
C686 H694 0.930 . S
C687 C686 1.394 . S
C687 C688 1.383 . S
C687 H695 0.929 . S
C688 C687 1.383 . S
C688 C689 1.377 . S
C689 H673 0.930 . S
C689 C688 1.377 . S
C689 C690 1.379 . S
C690 H674 0.931 . S
C690 C684 1.383 . S
C690 C689 1.379 . S
H691 C685 0.959 . S
H692 C685 0.961 . S
H693 C685 0.960 . S
H694 C686 0.930 . S
H695 C687 0.929 . S
H696 C704 0.929 . S
H697 C706 0.930 . S
H698 C708 0.930 . S
H699 C711 0.929 . S
H700 C714 0.930 . S
H701 C716 0.960 . S
H702 C716 0.960 . S
H703 C716 0.960 . S
C704 H696 0.929 . S
C704 C705 1.377 . S
C704 C706 1.384 . S
C705 C704 1.377 . S
C705 C711 1.390 . S
C706 H697 0.930 . S
C706 C704 1.384 . S
C706 C707 1.372 . S
C707 C706 1.372 . S
C707 C708 1.400 . S
C707 C712 1.490 . S
C708 H698 0.930 . S
C708 C707 1.400 . S
C708 C711 1.386 . S
H709 C725 0.930 . S
H710 C726 0.931 . S
C711 H699 0.929 . S
C711 C705 1.390 . S
C711 C708 1.386 . S
C712 C707 1.490 . S
C712 C714 1.395 . S
C712 C715 1.404 . S
H713 C719 0.939 . S
C714 H700 0.930 . S
C714 C712 1.395 . S
C714 C717 1.403 . S
C715 C712 1.404 . S
C715 C716 1.523 1_565 S
C715 C719 1.400 1_565 S
C716 H701 0.960 . S
C716 H702 0.960 . S
C716 H703 0.960 . S
C716 C715 1.523 1_545 S
C717 C714 1.403 . S
C717 C718 1.392 . S
C717 C721 1.495 . S
C718 C717 1.392 . S
C718 C719 1.377 1_565 S
C718 C720 1.478 . S
C719 H713 0.939 . S
C719 C715 1.400 1_545 S
C719 C718 1.377 1_545 S
C720 C718 1.478 . S
C720 C722 1.381 1_565 S
C720 C726 1.383 . S
C721 C717 1.495 . S
C721 H727 0.959 . S
C721 H728 0.961 . S
C721 H729 0.960 . S
C722 C720 1.381 1_545 S
C722 C723 1.394 . S
C722 H730 0.930 . S
C723 C722 1.394 . S
C723 C724 1.383 1_545 S
C723 H731 0.929 . S
C724 C723 1.383 1_565 S
C724 C725 1.377 . S
C725 H709 0.930 . S
C725 C724 1.377 . S
C725 C726 1.379 . S
C726 H710 0.931 . S
C726 C720 1.383 . S
C726 C725 1.379 . S
H727 C721 0.959 . S
H728 C721 0.961 . S
H729 C721 0.960 . S
H730 C722 0.930 . S
H731 C723 0.929 . S
H732 C740 0.929 . S
H733 C742 0.930 . S
H734 C744 0.930 . S
H735 C747 0.929 . S
H736 C750 0.930 . S
H737 C752 0.960 . S
H738 C752 0.960 . S
H739 C752 0.960 . S
C740 H732 0.929 . S
C740 C741 1.377 . S
C740 C742 1.384 . S
C741 C740 1.377 . S
C741 C747 1.390 . S
C742 H733 0.930 . S
C742 C740 1.384 . S
C742 C743 1.372 . S
C743 C742 1.372 . S
C743 C744 1.400 . S
C743 C748 1.490 . S
C744 H734 0.930 . S
C744 C743 1.400 . S
C744 C747 1.386 . S
H745 C761 0.930 . S
H746 C762 0.931 . S
C747 H735 0.929 . S
C747 C741 1.390 . S
C747 C744 1.386 . S
C748 C743 1.490 . S
C748 C750 1.395 . S
C748 C751 1.403 . S
H749 C755 0.930 . S
C750 H736 0.930 . S
C750 C748 1.395 . S
C750 C753 1.403 . S
C751 C748 1.403 . S
C751 C752 1.524 . S
C751 C755 1.400 . S
C752 H737 0.960 . S
C752 H738 0.960 . S
C752 H739 0.960 . S
C752 C751 1.524 . S
C753 C750 1.403 . S
C753 C754 1.392 . S
C753 C757 1.495 . S
C754 C753 1.392 . S
C754 C755 1.385 . S
C754 C756 1.478 . S
C755 H749 0.930 . S
C755 C751 1.400 . S
C755 C754 1.385 . S
C756 C754 1.478 . S
C756 C758 1.381 . S
C756 C762 1.383 . S
C757 C753 1.495 . S
C757 H763 0.959 . S
C757 H764 0.961 . S
C757 H765 0.960 . S
C758 C756 1.381 . S
C758 C759 1.394 . S
C758 H766 0.930 . S
C759 C758 1.394 . S
C759 C760 1.383 . S
C759 H767 0.929 . S
C760 C759 1.383 . S
C760 C761 1.377 . S
C761 H745 0.930 . S
C761 C760 1.377 . S
C761 C762 1.379 . S
C762 H746 0.931 . S
C762 C756 1.383 . S
C762 C761 1.379 . S
H763 C757 0.959 . S
H764 C757 0.961 . S
H765 C757 0.960 . S
H766 C758 0.930 . S
H767 C759 0.929 . S
H768 C776 0.929 . S
H769 C778 0.930 . S
H770 C780 0.930 . S
H771 C783 0.929 . S
H772 C786 0.930 . S
H773 C788 0.960 . S
H774 C788 0.960 . S
H775 C788 0.960 . S
C776 H768 0.929 . S
C776 C777 1.377 . S
C776 C778 1.384 . S
C777 C776 1.377 . S
C777 C783 1.390 . S
C778 H769 0.930 . S
C778 C776 1.384 . S
C778 C779 1.372 . S
C779 C778 1.372 . S
C779 C780 1.400 . S
C779 C784 1.490 . S
C780 H770 0.930 . S
C780 C779 1.400 . S
C780 C783 1.386 . S
H781 C797 0.930 . S
H782 C798 0.931 . S
C783 H771 0.929 . S
C783 C777 1.390 . S
C783 C780 1.386 . S
C784 C779 1.490 . S
C784 C786 1.395 . S
C784 C787 1.403 . S
H785 C791 0.930 . S
C786 H772 0.930 . S
C786 C784 1.395 . S
C786 C789 1.403 . S
C787 C784 1.403 . S
C787 C788 1.524 . S
C787 C791 1.400 . S
C788 H773 0.960 . S
C788 H774 0.960 . S
C788 H775 0.960 . S
C788 C787 1.524 . S
C789 C786 1.403 . S
C789 C790 1.392 . S
C789 C793 1.495 . S
C790 C789 1.392 . S
C790 C791 1.385 . S
C790 C792 1.478 . S
C791 H785 0.930 . S
C791 C787 1.400 . S
C791 C790 1.385 . S
C792 C790 1.478 . S
C792 C794 1.381 . S
C792 C798 1.383 . S
C793 C789 1.495 . S
C793 H799 0.959 . S
C793 H800 0.961 . S
C793 H801 0.960 . S
C794 C792 1.381 . S
C794 C795 1.394 . S
C794 H802 0.930 . S
C795 C794 1.394 . S
C795 C796 1.383 . S
C795 H803 0.929 . S
C796 C795 1.383 . S
C796 C797 1.377 . S
C797 H781 0.930 . S
C797 C796 1.377 . S
C797 C798 1.379 . S
C798 H782 0.931 . S
C798 C792 1.383 . S
C798 C797 1.379 . S
H799 C793 0.959 . S
H800 C793 0.961 . S
H801 C793 0.960 . S
H802 C794 0.930 . S
H803 C795 0.929 . S
H804 C812 0.929 . S
H805 C814 0.930 . S
H806 C816 0.930 . S
H807 C819 0.929 . S
H808 C822 0.930 . S
H809 C824 0.960 . S
H810 C824 0.960 . S
H811 C824 0.960 . S
C812 H804 0.929 . S
C812 C813 1.377 . S
C812 C814 1.384 . S
C813 C812 1.377 . S
C813 C819 1.390 . S
C814 H805 0.930 . S
C814 C812 1.384 . S
C814 C815 1.372 . S
C815 C814 1.372 . S
C815 C816 1.400 . S
C815 C820 1.490 . S
C816 H806 0.930 . S
C816 C815 1.400 . S
C816 C819 1.386 . S
H817 C833 0.930 . S
H818 C834 0.931 . S
C819 H807 0.929 . S
C819 C813 1.390 . S
C819 C816 1.386 . S
C820 C815 1.490 . S
C820 C822 1.395 . S
C820 C823 1.403 . S
H821 C827 0.930 . S
C822 H808 0.930 . S
C822 C820 1.395 . S
C822 C825 1.403 . S
C823 C820 1.403 . S
C823 C824 1.524 . S
C823 C827 1.400 . S
C824 H809 0.960 . S
C824 H810 0.960 . S
C824 H811 0.960 . S
C824 C823 1.524 . S
C825 C822 1.403 . S
C825 C826 1.392 . S
C825 C829 1.495 . S
C826 C825 1.392 . S
C826 C827 1.385 . S
C826 C828 1.478 . S
C827 H821 0.930 . S
C827 C823 1.400 . S
C827 C826 1.385 . S
C828 C826 1.478 . S
C828 C830 1.381 . S
C828 C834 1.383 . S
C829 C825 1.495 . S
C829 H835 0.959 . S
C829 H836 0.961 . S
C829 H837 0.960 . S
C830 C828 1.381 . S
C830 C831 1.394 . S
C830 H838 0.930 . S
C831 C830 1.394 . S
C831 C832 1.383 . S
C831 H839 0.929 . S
C832 C831 1.383 . S
C832 C833 1.377 . S
C833 H817 0.930 . S
C833 C832 1.377 . S
C833 C834 1.379 . S
C834 H818 0.931 . S
C834 C828 1.383 . S
C834 C833 1.379 . S
H835 C829 0.959 . S
H836 C829 0.961 . S
H837 C829 0.960 . S
H838 C830 0.930 . S
H839 C831 0.929 . S
H840 C848 0.929 . S
H841 C850 0.930 . S
H842 C852 0.930 . S
H843 C855 0.929 . S
H844 C858 0.930 . S
H845 C860 0.960 . S
H846 C860 0.960 . S
H847 C860 0.960 . S
C848 H840 0.929 . S
C848 C849 1.377 . S
C848 C850 1.384 . S
C849 C848 1.377 . S
C849 C855 1.390 . S
C850 H841 0.930 . S
C850 C848 1.384 . S
C850 C851 1.372 . S
C851 C850 1.372 . S
C851 C852 1.400 . S
C851 C856 1.490 . S
C852 H842 0.930 . S
C852 C851 1.400 . S
C852 C855 1.386 . S
H853 C869 0.930 . S
H854 C870 0.931 . S
C855 H843 0.929 . S
C855 C849 1.390 . S
C855 C852 1.386 . S
C856 C851 1.490 . S
C856 C858 1.395 . S
C856 C859 1.403 . S
H857 C863 0.930 . S
C858 H844 0.930 . S
C858 C856 1.395 . S
C858 C861 1.403 . S
C859 C856 1.403 . S
C859 C860 1.524 . S
C859 C863 1.400 . S
C860 H845 0.960 . S
C860 H846 0.960 . S
C860 H847 0.960 . S
C860 C859 1.524 . S
C861 C858 1.403 . S
C861 C862 1.392 . S
C861 C865 1.495 . S
C862 C861 1.392 . S
C862 C863 1.385 . S
C862 C864 1.478 . S
C863 H857 0.930 . S
C863 C859 1.400 . S
C863 C862 1.385 . S
C864 C862 1.478 . S
C864 C866 1.381 . S
C864 C870 1.383 . S
C865 C861 1.495 . S
C865 H871 0.959 . S
C865 H872 0.961 . S
C865 H873 0.960 . S
C866 C864 1.381 . S
C866 C867 1.394 . S
C866 H874 0.930 . S
C867 C866 1.394 . S
C867 C868 1.383 . S
C867 H875 0.929 . S
C868 C867 1.383 . S
C868 C869 1.377 . S
C869 H853 0.930 . S
C869 C868 1.377 . S
C869 C870 1.379 . S
C870 H854 0.931 . S
C870 C864 1.383 . S
C870 C869 1.379 . S
H871 C865 0.959 . S
H872 C865 0.961 . S
H873 C865 0.960 . S
H874 C866 0.930 . S
H875 C867 0.929 . S
H876 C884 0.929 . S
H877 C886 0.930 . S
H878 C888 0.930 . S
H879 C891 0.929 . S
H880 C894 0.930 . S
H881 C896 0.960 . S
H882 C896 0.960 . S
H883 C896 0.960 . S
C884 H876 0.929 . S
C884 C885 1.377 . S
C884 C886 1.384 . S
C885 C884 1.377 . S
C885 C891 1.390 . S
C886 H877 0.930 . S
C886 C884 1.384 . S
C886 C887 1.372 . S
C887 C886 1.372 . S
C887 C888 1.400 . S
C887 C892 1.490 . S
C888 H878 0.930 . S
C888 C887 1.400 . S
C888 C891 1.386 . S
H889 C905 0.930 . S
H890 C906 0.931 . S
C891 H879 0.929 . S
C891 C885 1.390 . S
C891 C888 1.386 . S
C892 C887 1.490 . S
C892 C894 1.395 . S
C892 C895 1.403 . S
H893 C899 0.930 . S
C894 H880 0.930 . S
C894 C892 1.395 . S
C894 C897 1.403 . S
C895 C892 1.403 . S
C895 C896 1.524 . S
C895 C899 1.400 . S
C896 H881 0.960 . S
C896 H882 0.960 . S
C896 H883 0.960 . S
C896 C895 1.524 . S
C897 C894 1.403 . S
C897 C898 1.392 . S
C897 C901 1.495 . S
C898 C897 1.392 . S
C898 C899 1.385 . S
C898 C900 1.478 . S
C899 H893 0.930 . S
C899 C895 1.400 . S
C899 C898 1.385 . S
C900 C898 1.478 . S
C900 C902 1.381 . S
C900 C906 1.383 . S
C901 C897 1.495 . S
C901 H907 0.959 . S
C901 H908 0.961 . S
C901 H909 0.960 . S
C902 C900 1.381 . S
C902 C903 1.394 . S
C902 H910 0.930 . S
C903 C902 1.394 . S
C903 C904 1.383 . S
C903 H911 0.929 . S
C904 C903 1.383 . S
C904 C905 1.377 . S
C905 H889 0.930 . S
C905 C904 1.377 . S
C905 C906 1.379 . S
C906 H890 0.931 . S
C906 C900 1.383 . S
C906 C905 1.379 . S
H907 C901 0.959 . S
H908 C901 0.961 . S
H909 C901 0.960 . S
H910 C902 0.930 . S
H911 C903 0.929 . S
H912 C920 0.929 . S
H913 C922 0.930 . S
H914 C924 0.930 . S
H915 C927 0.929 . S
H916 C930 0.930 . S
H917 C932 0.960 . S
H918 C932 0.960 . S
H919 C932 0.960 . S
C920 H912 0.929 . S
C920 C921 1.377 . S
C920 C922 1.384 . S
C921 C920 1.377 . S
C921 C927 1.390 . S
C922 H913 0.930 . S
C922 C920 1.384 . S
C922 C923 1.372 . S
C923 C922 1.372 . S
C923 C924 1.400 . S
C923 C928 1.490 . S
C924 H914 0.930 . S
C924 C923 1.400 . S
C924 C927 1.386 . S
H925 C941 0.930 . S
H926 C942 0.931 . S
C927 H915 0.929 . S
C927 C921 1.390 . S
C927 C924 1.386 . S
C928 C923 1.490 . S
C928 C930 1.395 . S
C928 C931 1.403 . S
H929 C935 0.930 . S
C930 H916 0.930 . S
C930 C928 1.395 . S
C930 C933 1.403 . S
C931 C928 1.403 . S
C931 C932 1.524 . S
C931 C935 1.400 . S
C932 H917 0.960 . S
C932 H918 0.960 . S
C932 H919 0.960 . S
C932 C931 1.524 . S
C933 C930 1.403 . S
C933 C934 1.392 . S
C933 C937 1.495 . S
C934 C933 1.392 . S
C934 C935 1.385 . S
C934 C936 1.478 . S
C935 H929 0.930 . S
C935 C931 1.400 . S
C935 C934 1.385 . S
C936 C934 1.478 . S
C936 C938 1.381 . S
C936 C942 1.383 . S
C937 C933 1.495 . S
C937 H943 0.959 . S
C937 H944 0.961 . S
C937 H945 0.960 . S
C938 C936 1.381 . S
C938 C939 1.394 . S
C938 H946 0.930 . S
C939 C938 1.394 . S
C939 C940 1.383 . S
C939 H947 0.929 . S
C940 C939 1.383 . S
C940 C941 1.377 . S
C941 H925 0.930 . S
C941 C940 1.377 . S
C941 C942 1.379 . S
C942 H926 0.931 . S
C942 C936 1.383 . S
C942 C941 1.379 . S
H943 C937 0.959 . S
H944 C937 0.961 . S
H945 C937 0.960 . S
H946 C938 0.930 . S
H947 C939 0.929 . S
H948 C956 0.929 . S
H949 C958 0.930 . S
H950 C960 0.930 . S
H951 C963 0.929 . S
H952 C966 0.930 . S
H953 C968 0.960 . S
H954 C968 0.960 . S
H955 C968 0.960 . S
C956 H948 0.929 . S
C956 C957 1.377 . S
C956 C958 1.384 . S
C957 C956 1.377 . S
C957 C963 1.390 . S
C958 H949 0.930 . S
C958 C956 1.384 . S
C958 C959 1.372 . S
C959 C958 1.372 . S
C959 C960 1.400 . S
C959 C964 1.490 . S
C960 H950 0.930 . S
C960 C959 1.400 . S
C960 C963 1.386 . S
H961 C977 0.930 . S
H962 C978 0.931 . S
C963 H951 0.929 . S
C963 C957 1.390 . S
C963 C960 1.386 . S
C964 C959 1.490 . S
C964 C966 1.395 . S
C964 C967 1.403 . S
H965 C971 0.930 . S
C966 H952 0.930 . S
C966 C964 1.395 . S
C966 C969 1.403 . S
C967 C964 1.403 . S
C967 C968 1.524 . S
C967 C971 1.400 . S
C968 H953 0.960 . S
C968 H954 0.960 . S
C968 H955 0.960 . S
C968 C967 1.524 . S
C969 C966 1.403 . S
C969 C970 1.392 . S
C969 C973 1.495 . S
C970 C969 1.392 . S
C970 C971 1.385 . S
C970 C972 1.478 . S
C971 H965 0.930 . S
C971 C967 1.400 . S
C971 C970 1.385 . S
C972 C970 1.478 . S
C972 C974 1.381 . S
C972 C978 1.383 . S
C973 C969 1.495 . S
C973 H979 0.959 . S
C973 H980 0.961 . S
C973 H981 0.960 . S
C974 C972 1.381 . S
C974 C975 1.394 . S
C974 H982 0.930 . S
C975 C974 1.394 . S
C975 C976 1.383 . S
C975 H983 0.929 . S
C976 C975 1.383 . S
C976 C977 1.377 . S
C977 H961 0.930 . S
C977 C976 1.377 . S
C977 C978 1.379 . S
C978 H962 0.931 . S
C978 C972 1.383 . S
C978 C977 1.379 . S
H979 C973 0.959 . S
H980 C973 0.961 . S
H981 C973 0.960 . S
H982 C974 0.930 . S
H983 C975 0.929 . S
H984 C992 0.929 . S
H985 C994 0.930 . S
H986 C996 0.930 . S
H987 C999 0.929 . S
H988 C1002 0.930 . S
H989 C1004 0.960 . S
H990 C1004 0.960 . S
H991 C1004 0.960 . S
C992 H984 0.929 . S
C992 C993 1.377 . S
C992 C994 1.384 . S
C993 C992 1.377 . S
C993 C999 1.390 . S
C994 H985 0.930 . S
C994 C992 1.384 . S
C994 C995 1.372 . S
C995 C994 1.372 . S
C995 C996 1.400 . S
C995 C1000 1.490 . S
C996 H986 0.930 . S
C996 C995 1.400 . S
C996 C999 1.386 . S
H997 C1013 0.930 . S
H998 C1014 0.931 . S
C999 H987 0.929 . S
C999 C993 1.390 . S
C999 C996 1.386 . S
C1000 C995 1.490 . S
C1000 C1002 1.395 . S
C1000 C1003 1.403 . S
H1001 C1007 0.930 . S
C1002 H988 0.930 . S
C1002 C1000 1.395 . S
C1002 C1005 1.403 . S
C1003 C1000 1.403 . S
C1003 C1004 1.524 . S
C1003 C1007 1.400 . S
C1004 H989 0.960 . S
C1004 H990 0.960 . S
C1004 H991 0.960 . S
C1004 C1003 1.524 . S
C1005 C1002 1.403 . S
C1005 C1006 1.392 . S
C1005 C1009 1.495 . S
C1006 C1005 1.392 . S
C1006 C1007 1.385 . S
C1006 C1008 1.478 . S
C1007 H1001 0.930 . S
C1007 C1003 1.400 . S
C1007 C1006 1.385 . S
C1008 C1006 1.478 . S
C1008 C1010 1.381 . S
C1008 C1014 1.383 . S
C1009 C1005 1.495 . S
C1009 H1015 0.959 . S
C1009 H1016 0.961 . S
C1009 H1017 0.960 . S
C1010 C1008 1.381 . S
C1010 C1011 1.394 . S
C1010 H1018 0.930 . S
C1011 C1010 1.394 . S
C1011 C1012 1.383 . S
C1011 H1019 0.929 . S
C1012 C1011 1.383 . S
C1012 C1013 1.377 . S
C1013 H997 0.930 . S
C1013 C1012 1.377 . S
C1013 C1014 1.379 . S
C1014 H998 0.931 . S
C1014 C1008 1.383 . S
C1014 C1013 1.379 . S
H1015 C1009 0.959 . S
H1016 C1009 0.961 . S
H1017 C1009 0.960 . S
H1018 C1010 0.930 . S
H1019 C1011 0.929 . S
H1020 C1028 0.929 . S
H1021 C1030 0.930 . S
H1022 C1032 0.930 1_655 S
H1023 C1035 0.946 . S
H1024 C1038 0.930 . S
H1025 C1040 0.960 . S
H1026 C1040 0.960 . S
H1027 C1040 0.960 . S
C1028 H1020 0.929 . S
C1028 C1029 1.377 . S
C1028 C1030 1.384 . S
C1029 C1028 1.377 . S
C1029 C1035 1.390 . S
C1030 H1021 0.930 . S
C1030 C1028 1.384 . S
C1030 C1031 1.372 . S
C1031 C1030 1.372 . S
C1031 C1032 1.400 . S
C1031 C1036 1.490 . S
C1032 H1022 0.930 1_455 S
C1032 C1031 1.400 . S
C1032 C1035 1.386 . S
H1033 C1049 0.930 . S
H1034 C1050 0.931 . S
C1035 H1023 0.946 . S
C1035 C1029 1.390 . S
C1035 C1032 1.386 . S
C1036 C1031 1.490 . S
C1036 C1038 1.395 . S
C1036 C1039 1.403 . S
H1037 C1043 0.930 . S
C1038 H1024 0.930 . S
C1038 C1036 1.395 . S
C1038 C1041 1.403 . S
C1039 C1036 1.403 . S
C1039 C1040 1.524 . S
C1039 C1043 1.400 . S
C1040 H1025 0.960 . S
C1040 H1026 0.960 . S
C1040 H1027 0.960 . S
C1040 C1039 1.524 . S
C1041 C1038 1.403 . S
C1041 C1042 1.392 . S
C1041 C1045 1.495 1_455 S
C1042 C1041 1.392 . S
C1042 C1043 1.385 . S
C1042 C1044 1.478 . S
C1043 H1037 0.930 . S
C1043 C1039 1.400 . S
C1043 C1042 1.385 . S
C1044 C1042 1.478 . S
C1044 C1046 1.381 . S
C1044 C1050 1.383 1_455 S
C1045 C1041 1.495 1_655 S
C1045 H1051 0.959 . S
C1045 H1052 0.961 . S
C1045 H1053 0.960 1_655 S
C1046 C1044 1.381 . S
C1046 C1047 1.394 . S
C1046 H1054 0.930 . S
C1047 C1046 1.394 . S
C1047 C1048 1.366 1_455 S
C1047 H1055 0.929 . S
C1048 C1047 1.366 1_655 S
C1048 C1049 1.392 . S
C1049 H1033 0.930 . S
C1049 C1048 1.392 . S
C1049 C1050 1.379 . S
C1050 H1034 0.931 . S
C1050 C1044 1.383 1_655 S
C1050 C1049 1.379 . S
H1051 C1045 0.959 . S
H1052 C1045 0.961 . S
H1053 C1045 0.960 1_455 S
H1054 C1046 0.930 . S
H1055 C1047 0.929 . S
H1056 C1064 0.929 . S
H1057 C1066 0.930 . S
H1058 C1068 0.930 . S
H1059 C1071 0.929 . S
H1060 C1074 0.930 . S
H1061 C1076 0.960 . S
H1062 C1076 0.960 . S
H1063 C1076 0.960 . S
C1064 H1056 0.929 . S
C1064 C1065 1.377 . S
C1064 C1066 1.384 . S
C1065 C1064 1.377 . S
C1065 C1071 1.390 . S
C1066 H1057 0.930 . S
C1066 C1064 1.384 . S
C1066 C1067 1.372 . S
C1067 C1066 1.372 . S
C1067 C1068 1.400 . S
C1067 C1072 1.490 . S
C1068 H1058 0.930 . S
C1068 C1067 1.400 . S
C1068 C1071 1.386 . S
H1069 C1085 0.930 . S
H1070 C1086 0.931 . S
C1071 H1059 0.929 . S
C1071 C1065 1.390 . S
C1071 C1068 1.386 . S
C1072 C1067 1.490 . S
C1072 C1074 1.395 . S
C1072 C1075 1.403 . S
H1073 C1079 0.930 . S
C1074 H1060 0.930 . S
C1074 C1072 1.395 . S
C1074 C1077 1.403 . S
C1075 C1072 1.403 . S
C1075 C1076 1.524 . S
C1075 C1079 1.400 . S
C1076 H1061 0.960 . S
C1076 H1062 0.960 . S
C1076 H1063 0.960 . S
C1076 C1075 1.524 . S
C1077 C1074 1.403 . S
C1077 C1078 1.392 . S
C1077 C1081 1.495 . S
C1078 C1077 1.392 . S
C1078 C1079 1.385 . S
C1078 C1080 1.478 . S
C1079 H1073 0.930 . S
C1079 C1075 1.400 . S
C1079 C1078 1.385 . S
C1080 C1078 1.478 . S
C1080 C1082 1.381 . S
C1080 C1086 1.383 . S
C1081 C1077 1.495 . S
C1081 H1087 0.959 . S
C1081 H1088 0.961 . S
C1081 H1089 0.960 . S
C1082 C1080 1.381 . S
C1082 C1083 1.394 . S
C1082 H1090 0.930 . S
C1083 C1082 1.394 . S
C1083 C1084 1.383 . S
C1083 H1091 0.929 . S
C1084 C1083 1.383 . S
C1084 C1085 1.377 . S
C1085 H1069 0.930 . S
C1085 C1084 1.377 . S
C1085 C1086 1.379 . S
C1086 H1070 0.931 . S
C1086 C1080 1.383 . S
C1086 C1085 1.379 . S
H1087 C1081 0.959 . S
H1088 C1081 0.961 . S
H1089 C1081 0.960 . S
H1090 C1082 0.930 . S
H1091 C1083 0.929 . S
H1092 C1100 0.929 . S
H1093 C1102 0.930 . S
H1094 C1104 0.930 . S
H1095 C1107 0.929 . S
H1096 C1110 0.930 . S
H1097 C1112 0.960 . S
H1098 C1112 0.960 . S
H1099 C1112 0.960 . S
C1100 H1092 0.929 . S
C1100 C1101 1.377 . S
C1100 C1102 1.384 . S
C1101 C1100 1.377 . S
C1101 C1107 1.390 . S
C1102 H1093 0.930 . S
C1102 C1100 1.384 . S
C1102 C1103 1.372 . S
C1103 C1102 1.372 . S
C1103 C1104 1.400 . S
C1103 C1108 1.490 . S
C1104 H1094 0.930 . S
C1104 C1103 1.400 . S
C1104 C1107 1.386 . S
H1105 C1121 0.930 . S
H1106 C1122 0.931 . S
C1107 H1095 0.929 . S
C1107 C1101 1.390 . S
C1107 C1104 1.386 . S
C1108 C1103 1.490 . S
C1108 C1110 1.395 . S
C1108 C1111 1.403 . S
H1109 C1115 0.930 . S
C1110 H1096 0.930 . S
C1110 C1108 1.395 . S
C1110 C1113 1.403 . S
C1111 C1108 1.403 . S
C1111 C1112 1.524 . S
C1111 C1115 1.400 . S
C1112 H1097 0.960 . S
C1112 H1098 0.960 . S
C1112 H1099 0.960 . S
C1112 C1111 1.524 . S
C1113 C1110 1.403 . S
C1113 C1114 1.392 . S
C1113 C1117 1.495 . S
C1114 C1113 1.392 . S
C1114 C1115 1.385 . S
C1114 C1116 1.478 . S
C1115 H1109 0.930 . S
C1115 C1111 1.400 . S
C1115 C1114 1.385 . S
C1116 C1114 1.478 . S
C1116 C1118 1.381 . S
C1116 C1122 1.383 . S
C1117 C1113 1.495 . S
C1117 H1123 0.959 . S
C1117 H1124 0.961 . S
C1117 H1125 0.960 . S
C1118 C1116 1.381 . S
C1118 C1119 1.394 . S
C1118 H1126 0.930 . S
C1119 C1118 1.394 . S
C1119 C1120 1.383 . S
C1119 H1127 0.929 . S
C1120 C1119 1.383 . S
C1120 C1121 1.377 . S
C1121 H1105 0.930 . S
C1121 C1120 1.377 . S
C1121 C1122 1.379 . S
C1122 H1106 0.931 . S
C1122 C1116 1.383 . S
C1122 C1121 1.379 . S
H1123 C1117 0.959 . S
H1124 C1117 0.961 . S
H1125 C1117 0.960 . S
H1126 C1118 0.930 . S
H1127 C1119 0.929 . S
H1128 C1136 0.929 . S
H1129 C1138 0.930 . S
H1130 C1140 0.930 . S
H1131 C1143 0.926 . S
H1132 C1146 0.930 . S
H1133 C1148 0.960 . S
H1134 C1148 0.960 1_556 S
H1135 C1148 0.960 . S
C1136 H1128 0.929 . S
C1136 C1137 1.377 . S
C1136 C1138 1.384 . S
C1137 C1136 1.377 . S
C1137 C1143 1.394 1_556 S
C1138 H1129 0.930 . S
C1138 C1136 1.384 . S
C1138 C1139 1.372 . S
C1139 C1138 1.372 . S
C1139 C1140 1.400 1_556 S
C1139 C1144 1.490 . S
C1140 H1130 0.930 . S
C1140 C1139 1.400 1_554 S
C1140 C1143 1.385 . S
H1141 C1157 0.930 . S
H1142 C1158 0.931 . S
C1143 H1131 0.926 . S
C1143 C1137 1.394 1_554 S
C1143 C1140 1.385 . S
C1144 C1139 1.490 . S
C1144 C1146 1.395 . S
C1144 C1147 1.403 . S
H1145 C1151 0.906 1_554 S
C1146 H1132 0.930 . S
C1146 C1144 1.395 . S
C1146 C1149 1.403 . S
C1147 C1144 1.403 . S
C1147 C1148 1.524 1_556 S
C1147 C1151 1.403 . S
C1148 H1133 0.960 . S
C1148 H1134 0.960 1_554 S
C1148 H1135 0.960 . S
C1148 C1147 1.524 1_554 S
C1149 C1146 1.403 . S
C1149 C1150 1.392 . S
C1149 C1153 1.495 . S
C1150 C1149 1.392 . S
C1150 C1151 1.407 . S
C1150 C1152 1.478 . S
C1151 H1145 0.906 1_556 S
C1151 C1147 1.403 . S
C1151 C1150 1.407 . S
C1152 C1150 1.478 . S
C1152 C1154 1.381 . S
C1152 C1158 1.383 1_556 S
C1153 C1149 1.495 . S
C1153 H1159 0.959 . S
C1153 H1160 0.961 . S
C1153 H1161 0.960 . S
C1154 C1152 1.381 . S
C1154 C1155 1.394 . S
C1154 H1162 0.930 . S
C1155 C1154 1.394 . S
C1155 C1156 1.383 . S
C1155 H1163 0.929 . S
C1156 C1155 1.383 . S
C1156 C1157 1.377 1_556 S
C1157 H1141 0.930 . S
C1157 C1156 1.377 1_554 S
C1157 C1158 1.379 . S
C1158 H1142 0.931 . S
C1158 C1152 1.383 1_554 S
C1158 C1157 1.379 . S
H1159 C1153 0.959 . S
H1160 C1153 0.961 . S
H1161 C1153 0.960 . S
H1162 C1154 0.930 . S
H1163 C1155 0.929 . S
H1164 C1172 0.929 . S
H1165 C1174 0.930 . S
H1166 C1176 0.930 . S
H1167 C1179 0.929 . S
H1168 C1182 0.930 . S
H1169 C1184 0.960 . S
H1170 C1184 0.960 . S
H1171 C1184 0.960 . S
C1172 H1164 0.929 . S
C1172 C1173 1.377 . S
C1172 C1174 1.384 . S
C1173 C1172 1.377 . S
C1173 C1179 1.390 . S
C1174 H1165 0.930 . S
C1174 C1172 1.384 . S
C1174 C1175 1.372 . S
C1175 C1174 1.372 . S
C1175 C1176 1.400 . S
C1175 C1180 1.490 . S
C1176 H1166 0.930 . S
C1176 C1175 1.400 . S
C1176 C1179 1.386 . S
H1177 C1193 0.930 . S
H1178 C1194 0.931 . S
C1179 H1167 0.929 . S
C1179 C1173 1.390 . S
C1179 C1176 1.386 . S
C1180 C1175 1.490 . S
C1180 C1182 1.395 . S
C1180 C1183 1.403 . S
H1181 C1187 0.930 . S
C1182 H1168 0.930 . S
C1182 C1180 1.395 . S
C1182 C1185 1.403 . S
C1183 C1180 1.403 . S
C1183 C1184 1.524 . S
C1183 C1187 1.400 . S
C1184 H1169 0.960 . S
C1184 H1170 0.960 . S
C1184 H1171 0.960 . S
C1184 C1183 1.524 . S
C1185 C1182 1.403 . S
C1185 C1186 1.392 . S
C1185 C1189 1.495 . S
C1186 C1185 1.392 . S
C1186 C1187 1.385 . S
C1186 C1188 1.478 . S
C1187 H1181 0.930 . S
C1187 C1183 1.400 . S
C1187 C1186 1.385 . S
C1188 C1186 1.478 . S
C1188 C1190 1.381 . S
C1188 C1194 1.383 . S
C1189 C1185 1.495 . S
C1189 H1195 0.959 . S
C1189 H1196 0.961 . S
C1189 H1197 0.960 . S
C1190 C1188 1.381 . S
C1190 C1191 1.394 . S
C1190 H1198 0.930 . S
C1191 C1190 1.394 . S
C1191 C1192 1.383 . S
C1191 H1199 0.929 . S
C1192 C1191 1.383 . S
C1192 C1193 1.377 . S
C1193 H1177 0.930 . S
C1193 C1192 1.377 . S
C1193 C1194 1.379 . S
C1194 H1178 0.931 . S
C1194 C1188 1.383 . S
C1194 C1193 1.379 . S
H1195 C1189 0.959 . S
H1196 C1189 0.961 . S
H1197 C1189 0.960 . S
H1198 C1190 0.930 . S
H1199 C1191 0.929 . S
H1200 C1208 0.928 1_655 S
H1201 C1210 0.961 . S
H1202 C1212 0.930 . S
H1203 C1215 0.929 . S
H1204 C1218 0.930 . S
H1205 C1220 0.960 . S
H1206 C1220 0.960 . S
H1207 C1220 0.960 . S
C1208 H1200 0.928 1_455 S
C1208 C1209 1.378 . S
C1208 C1210 1.384 . S
C1209 C1208 1.378 . S
C1209 C1215 1.390 . S
C1210 H1201 0.961 . S
C1210 C1208 1.384 . S
C1210 C1211 1.372 . S
C1211 C1210 1.372 . S
C1211 C1212 1.400 . S
C1211 C1216 1.490 . S
C1212 H1202 0.930 . S
C1212 C1211 1.400 . S
C1212 C1215 1.386 . S
H1213 C1229 0.930 . S
H1214 C1230 0.931 . S
C1215 H1203 0.929 . S
C1215 C1209 1.390 . S
C1215 C1212 1.386 . S
C1216 C1211 1.490 . S
C1216 C1218 1.395 . S
C1216 C1219 1.403 . S
H1217 C1223 0.930 . S
C1218 H1204 0.930 . S
C1218 C1216 1.395 . S
C1218 C1221 1.403 . S
C1219 C1216 1.403 . S
C1219 C1220 1.524 . S
C1219 C1223 1.400 . S
C1220 H1205 0.960 . S
C1220 H1206 0.960 . S
C1220 H1207 0.960 . S
C1220 C1219 1.524 . S
C1221 C1218 1.403 . S
C1221 C1222 1.392 . S
C1221 C1225 1.495 . S
C1222 C1221 1.392 . S
C1222 C1223 1.385 . S
C1222 C1224 1.478 . S
C1223 H1217 0.930 . S
C1223 C1219 1.400 . S
C1223 C1222 1.385 . S
C1224 C1222 1.478 . S
C1224 C1226 1.381 . S
C1224 C1230 1.383 . S
C1225 C1221 1.495 . S
C1225 H1231 0.959 . S
C1225 H1232 0.961 . S
C1225 H1233 0.960 . S
C1226 C1224 1.381 . S
C1226 C1227 1.394 . S
C1226 H1234 0.930 . S
C1227 C1226 1.394 . S
C1227 C1228 1.383 . S
C1227 H1235 0.929 . S
C1228 C1227 1.383 . S
C1228 C1229 1.377 . S
C1229 H1213 0.930 . S
C1229 C1228 1.377 . S
C1229 C1230 1.379 . S
C1230 H1214 0.931 . S
C1230 C1224 1.383 . S
C1230 C1229 1.379 . S
H1231 C1225 0.959 . S
H1232 C1225 0.961 . S
H1233 C1225 0.960 . S
H1234 C1226 0.930 . S
H1235 C1227 0.929 . S
H1236 C1244 0.929 . S
H1237 C1246 0.930 . S
H1238 C1248 0.930 . S
H1239 C1251 0.929 . S
H1240 C1254 0.930 . S
H1241 C1256 0.960 . S
H1242 C1256 0.960 . S
H1243 C1256 0.960 . S
C1244 H1236 0.929 . S
C1244 C1245 1.377 . S
C1244 C1246 1.384 . S
C1245 C1244 1.377 . S
C1245 C1251 1.390 . S
C1246 H1237 0.930 . S
C1246 C1244 1.384 . S
C1246 C1247 1.372 . S
C1247 C1246 1.372 . S
C1247 C1248 1.400 . S
C1247 C1252 1.490 . S
C1248 H1238 0.930 . S
C1248 C1247 1.400 . S
C1248 C1251 1.386 . S
H1249 C1265 0.930 . S
H1250 C1266 0.931 . S
C1251 H1239 0.929 . S
C1251 C1245 1.390 . S
C1251 C1248 1.386 . S
C1252 C1247 1.490 . S
C1252 C1254 1.395 . S
C1252 C1255 1.403 . S
H1253 C1259 0.930 . S
C1254 H1240 0.930 . S
C1254 C1252 1.395 . S
C1254 C1257 1.403 . S
C1255 C1252 1.403 . S
C1255 C1256 1.524 . S
C1255 C1259 1.400 . S
C1256 H1241 0.960 . S
C1256 H1242 0.960 . S
C1256 H1243 0.960 . S
C1256 C1255 1.524 . S
C1257 C1254 1.403 . S
C1257 C1258 1.392 . S
C1257 C1261 1.495 . S
C1258 C1257 1.392 . S
C1258 C1259 1.385 . S
C1258 C1260 1.478 . S
C1259 H1253 0.930 . S
C1259 C1255 1.400 . S
C1259 C1258 1.385 . S
C1260 C1258 1.478 . S
C1260 C1262 1.381 . S
C1260 C1266 1.383 . S
C1261 C1257 1.495 . S
C1261 H1267 0.959 . S
C1261 H1268 0.961 . S
C1261 H1269 0.960 . S
C1262 C1260 1.381 . S
C1262 C1263 1.394 . S
C1262 H1270 0.930 . S
C1263 C1262 1.394 . S
C1263 C1264 1.383 . S
C1263 H1271 0.929 . S
C1264 C1263 1.383 . S
C1264 C1265 1.377 . S
C1265 H1249 0.930 . S
C1265 C1264 1.377 . S
C1265 C1266 1.379 . S
C1266 H1250 0.931 . S
C1266 C1260 1.383 . S
C1266 C1265 1.379 . S
H1267 C1261 0.959 . S
H1268 C1261 0.961 . S
H1269 C1261 0.960 . S
H1270 C1262 0.930 . S
H1271 C1263 0.929 . S
H1272 C1280 0.929 . S
H1273 C1282 0.930 . S
H1274 C1284 0.930 . S
H1275 C1287 0.929 . S
H1276 C1290 0.930 . S
H1277 C1292 0.960 . S
H1278 C1292 0.960 . S
H1279 C1292 0.960 . S
C1280 H1272 0.929 . S
C1280 C1281 1.377 . S
C1280 C1282 1.384 . S
C1281 C1280 1.377 . S
C1281 C1287 1.390 . S
C1282 H1273 0.930 . S
C1282 C1280 1.384 . S
C1282 C1283 1.372 . S
C1283 C1282 1.372 . S
C1283 C1284 1.400 . S
C1283 C1288 1.490 . S
C1284 H1274 0.930 . S
C1284 C1283 1.400 . S
C1284 C1287 1.386 . S
H1285 C1301 0.930 . S
H1286 C1302 0.931 . S
C1287 H1275 0.929 . S
C1287 C1281 1.390 . S
C1287 C1284 1.386 . S
C1288 C1283 1.490 . S
C1288 C1290 1.395 . S
C1288 C1291 1.403 . S
H1289 C1295 0.930 . S
C1290 H1276 0.930 . S
C1290 C1288 1.395 . S
C1290 C1293 1.403 . S
C1291 C1288 1.403 . S
C1291 C1292 1.524 . S
C1291 C1295 1.400 . S
C1292 H1277 0.960 . S
C1292 H1278 0.960 . S
C1292 H1279 0.960 . S
C1292 C1291 1.524 . S
C1293 C1290 1.403 . S
C1293 C1294 1.392 . S
C1293 C1297 1.495 . S
C1294 C1293 1.392 . S
C1294 C1295 1.385 . S
C1294 C1296 1.478 . S
C1295 H1289 0.930 . S
C1295 C1291 1.400 . S
C1295 C1294 1.385 . S
C1296 C1294 1.478 . S
C1296 C1298 1.381 . S
C1296 C1302 1.383 . S
C1297 C1293 1.495 . S
C1297 H1303 0.959 . S
C1297 H1304 0.961 . S
C1297 H1305 0.960 . S
C1298 C1296 1.381 . S
C1298 C1299 1.394 . S
C1298 H1306 0.930 . S
C1299 C1298 1.394 . S
C1299 C1300 1.383 . S
C1299 H1307 0.929 . S
C1300 C1299 1.383 . S
C1300 C1301 1.377 . S
C1301 H1285 0.930 . S
C1301 C1300 1.377 . S
C1301 C1302 1.379 . S
C1302 H1286 0.931 . S
C1302 C1296 1.383 . S
C1302 C1301 1.379 . S
H1303 C1297 0.959 . S
H1304 C1297 0.961 . S
H1305 C1297 0.960 . S
H1306 C1298 0.930 . S
H1307 C1299 0.929 . S
H1308 C1316 0.929 . S
H1309 C1318 0.930 . S
H1310 C1320 0.930 . S
H1311 C1323 0.929 . S
H1312 C1326 0.930 . S
H1313 C1328 0.960 . S
H1314 C1328 0.960 . S
H1315 C1328 0.960 . S
C1316 H1308 0.929 . S
C1316 C1317 1.377 . S
C1316 C1318 1.384 . S
C1317 C1316 1.377 . S
C1317 C1323 1.390 . S
C1318 H1309 0.930 . S
C1318 C1316 1.384 . S
C1318 C1319 1.372 . S
C1319 C1318 1.372 . S
C1319 C1320 1.400 . S
C1319 C1324 1.490 . S
C1320 H1310 0.930 . S
C1320 C1319 1.400 . S
C1320 C1323 1.386 . S
H1321 C1337 0.930 . S
H1322 C1338 0.931 . S
C1323 H1311 0.929 . S
C1323 C1317 1.390 . S
C1323 C1320 1.386 . S
C1324 C1319 1.490 . S
C1324 C1326 1.395 . S
C1324 C1327 1.403 . S
H1325 C1331 0.930 . S
C1326 H1312 0.930 . S
C1326 C1324 1.395 . S
C1326 C1329 1.403 . S
C1327 C1324 1.403 . S
C1327 C1328 1.524 . S
C1327 C1331 1.400 . S
C1328 H1313 0.960 . S
C1328 H1314 0.960 . S
C1328 H1315 0.960 . S
C1328 C1327 1.524 . S
C1329 C1326 1.403 . S
C1329 C1330 1.392 . S
C1329 C1333 1.495 . S
C1330 C1329 1.392 . S
C1330 C1331 1.385 . S
C1330 C1332 1.478 . S
C1331 H1325 0.930 . S
C1331 C1327 1.400 . S
C1331 C1330 1.385 . S
C1332 C1330 1.478 . S
C1332 C1334 1.381 . S
C1332 C1338 1.383 . S
C1333 C1329 1.495 . S
C1333 H1339 0.959 . S
C1333 H1340 0.961 . S
C1333 H1341 0.960 . S
C1334 C1332 1.381 . S
C1334 C1335 1.394 . S
C1334 H1342 0.930 . S
C1335 C1334 1.394 . S
C1335 C1336 1.383 . S
C1335 H1343 0.929 . S
C1336 C1335 1.383 . S
C1336 C1337 1.377 . S
C1337 H1321 0.930 . S
C1337 C1336 1.377 . S
C1337 C1338 1.379 . S
C1338 H1322 0.931 . S
C1338 C1332 1.383 . S
C1338 C1337 1.379 . S
H1339 C1333 0.959 . S
H1340 C1333 0.961 . S
H1341 C1333 0.960 . S
H1342 C1334 0.930 . S
H1343 C1335 0.929 . S
H1344 C1352 0.929 . S
H1345 C1354 0.930 . S
H1346 C1356 0.930 . S
H1347 C1359 0.929 . S
H1348 C1362 0.930 . S
H1349 C1364 0.960 . S
H1350 C1364 0.960 . S
H1351 C1364 0.960 . S
C1352 H1344 0.929 . S
C1352 C1353 1.377 . S
C1352 C1354 1.384 . S
C1353 C1352 1.377 . S
C1353 C1359 1.390 . S
C1354 H1345 0.930 . S
C1354 C1352 1.384 . S
C1354 C1355 1.372 . S
C1355 C1354 1.372 . S
C1355 C1356 1.400 . S
C1355 C1360 1.490 . S
C1356 H1346 0.930 . S
C1356 C1355 1.400 . S
C1356 C1359 1.386 . S
H1357 C1373 0.930 . S
H1358 C1374 0.931 . S
C1359 H1347 0.929 . S
C1359 C1353 1.390 . S
C1359 C1356 1.386 . S
C1360 C1355 1.490 . S
C1360 C1362 1.395 . S
C1360 C1363 1.403 . S
H1361 C1367 0.930 . S
C1362 H1348 0.930 . S
C1362 C1360 1.395 . S
C1362 C1365 1.403 . S
C1363 C1360 1.403 . S
C1363 C1364 1.524 . S
C1363 C1367 1.400 . S
C1364 H1349 0.960 . S
C1364 H1350 0.960 . S
C1364 H1351 0.960 . S
C1364 C1363 1.524 . S
C1365 C1362 1.403 . S
C1365 C1366 1.392 . S
C1365 C1369 1.495 . S
C1366 C1365 1.392 . S
C1366 C1367 1.385 . S
C1366 C1368 1.478 . S
C1367 H1361 0.930 . S
C1367 C1363 1.400 . S
C1367 C1366 1.385 . S
C1368 C1366 1.478 . S
C1368 C1370 1.381 . S
C1368 C1374 1.383 . S
C1369 C1365 1.495 . S
C1369 H1375 0.959 . S
C1369 H1376 0.961 . S
C1369 H1377 0.942 1_545 S
C1370 C1368 1.381 . S
C1370 C1371 1.394 1_545 S
C1370 H1378 0.930 1_545 S
C1371 C1370 1.394 1_565 S
C1371 C1372 1.383 1_565 S
C1371 H1379 0.929 . S
C1372 C1371 1.383 1_545 S
C1372 C1373 1.377 . S
C1373 H1357 0.930 . S
C1373 C1372 1.377 . S
C1373 C1374 1.379 . S
C1374 H1358 0.931 . S
C1374 C1368 1.383 . S
C1374 C1373 1.379 . S
H1375 C1369 0.959 . S
H1376 C1369 0.961 . S
H1377 C1369 0.942 1_565 S
H1378 C1370 0.930 1_565 S
H1379 C1371 0.929 . S
H1380 C1388 0.929 . S
H1381 C1390 0.930 . S
H1382 C1392 0.930 . S
H1383 C1395 0.929 . S
H1384 C1398 0.930 . S
H1385 C1400 0.960 . S
H1386 C1400 0.960 . S
H1387 C1400 0.960 . S
C1388 H1380 0.929 . S
C1388 C1389 1.377 . S
C1388 C1390 1.384 . S
C1389 C1388 1.377 . S
C1389 C1395 1.390 . S
C1390 H1381 0.930 . S
C1390 C1388 1.384 . S
C1390 C1391 1.372 . S
C1391 C1390 1.372 . S
C1391 C1392 1.400 . S
C1391 C1396 1.490 . S
C1392 H1382 0.930 . S
C1392 C1391 1.400 . S
C1392 C1395 1.386 . S
H1393 C1409 0.930 . S
H1394 C1410 0.931 . S
C1395 H1383 0.929 . S
C1395 C1389 1.390 . S
C1395 C1392 1.386 . S
C1396 C1391 1.490 . S
C1396 C1398 1.395 . S
C1396 C1399 1.403 . S
H1397 C1403 0.930 . S
C1398 H1384 0.930 . S
C1398 C1396 1.395 . S
C1398 C1401 1.403 . S
C1399 C1396 1.403 . S
C1399 C1400 1.524 . S
C1399 C1403 1.400 . S
C1400 H1385 0.960 . S
C1400 H1386 0.960 . S
C1400 H1387 0.960 . S
C1400 C1399 1.524 . S
C1401 C1398 1.403 . S
C1401 C1402 1.392 . S
C1401 C1405 1.495 . S
C1402 C1401 1.392 . S
C1402 C1403 1.385 . S
C1402 C1404 1.478 . S
C1403 H1397 0.930 . S
C1403 C1399 1.400 . S
C1403 C1402 1.385 . S
C1404 C1402 1.478 . S
C1404 C1406 1.381 . S
C1404 C1410 1.383 . S
C1405 C1401 1.495 . S
C1405 H1411 0.959 . S
C1405 H1412 0.961 . S
C1405 H1413 0.960 . S
C1406 C1404 1.381 . S
C1406 C1407 1.394 . S
C1406 H1414 0.930 . S
C1407 C1406 1.394 . S
C1407 C1408 1.383 . S
C1407 H1415 0.929 . S
C1408 C1407 1.383 . S
C1408 C1409 1.377 . S
C1409 H1393 0.930 . S
C1409 C1408 1.377 . S
C1409 C1410 1.379 . S
C1410 H1394 0.931 . S
C1410 C1404 1.383 . S
C1410 C1409 1.379 . S
H1411 C1405 0.959 . S
H1412 C1405 0.961 . S
H1413 C1405 0.960 . S
H1414 C1406 0.930 . S
H1415 C1407 0.929 . S
H1416 C1424 0.929 . S
H1417 C1426 0.930 . S
H1418 C1428 0.930 . S
H1419 C1431 0.929 . S
H1420 C1434 0.930 . S
H1421 C1436 0.960 . S
H1422 C1436 0.960 . S
H1423 C1436 0.960 . S
C1424 H1416 0.929 . S
C1424 C1425 1.377 . S
C1424 C1426 1.384 . S
C1425 C1424 1.377 . S
C1425 C1431 1.390 . S
C1426 H1417 0.930 . S
C1426 C1424 1.384 . S
C1426 C1427 1.372 . S
C1427 C1426 1.372 . S
C1427 C1428 1.400 . S
C1427 C1432 1.490 . S
C1428 H1418 0.930 . S
C1428 C1427 1.400 . S
C1428 C1431 1.386 . S
H1429 C1445 0.930 . S
H1430 C1446 0.931 . S
C1431 H1419 0.929 . S
C1431 C1425 1.390 . S
C1431 C1428 1.386 . S
C1432 C1427 1.490 . S
C1432 C1434 1.395 . S
C1432 C1435 1.403 . S
H1433 C1439 0.930 . S
C1434 H1420 0.930 . S
C1434 C1432 1.395 . S
C1434 C1437 1.403 . S
C1435 C1432 1.403 . S
C1435 C1436 1.524 . S
C1435 C1439 1.400 . S
C1436 H1421 0.960 . S
C1436 H1422 0.960 . S
C1436 H1423 0.960 . S
C1436 C1435 1.524 . S
C1437 C1434 1.403 . S
C1437 C1438 1.392 . S
C1437 C1441 1.495 . S
C1438 C1437 1.392 . S
C1438 C1439 1.385 . S
C1438 C1440 1.478 . S
C1439 H1433 0.930 . S
C1439 C1435 1.400 . S
C1439 C1438 1.385 . S
C1440 C1438 1.478 . S
C1440 C1442 1.381 . S
C1440 C1446 1.383 . S
C1441 C1437 1.495 . S
C1441 H1447 0.959 . S
C1441 H1448 0.961 . S
C1441 H1449 0.960 . S
C1442 C1440 1.381 . S
C1442 C1443 1.394 . S
C1442 H1450 0.930 . S
C1443 C1442 1.394 . S
C1443 C1444 1.383 . S
C1443 H1451 0.929 . S
C1444 C1443 1.383 . S
C1444 C1445 1.377 . S
C1445 H1429 0.930 . S
C1445 C1444 1.377 . S
C1445 C1446 1.379 . S
C1446 H1430 0.931 . S
C1446 C1440 1.383 . S
C1446 C1445 1.379 . S
H1447 C1441 0.959 . S
H1448 C1441 0.961 . S
H1449 C1441 0.960 . S
H1450 C1442 0.930 . S
H1451 C1443 0.929 . S
H1452 C1460 0.929 . S
H1453 C1462 0.930 . S
H1454 C1464 0.930 . S
H1455 C1467 0.929 . S
H1456 C1470 0.930 . S
H1457 C1472 0.960 . S
H1458 C1472 0.960 . S
H1459 C1472 0.960 . S
C1460 H1452 0.929 . S
C1460 C1461 1.377 . S
C1460 C1462 1.384 . S
C1461 C1460 1.377 . S
C1461 C1467 1.390 . S
C1462 H1453 0.930 . S
C1462 C1460 1.384 . S
C1462 C1463 1.372 . S
C1463 C1462 1.372 . S
C1463 C1464 1.400 . S
C1463 C1468 1.490 . S
C1464 H1454 0.930 . S
C1464 C1463 1.400 . S
C1464 C1467 1.386 . S
H1465 C1481 0.930 . S
H1466 C1482 0.931 . S
C1467 H1455 0.929 . S
C1467 C1461 1.390 . S
C1467 C1464 1.386 . S
C1468 C1463 1.490 . S
C1468 C1470 1.395 . S
C1468 C1471 1.403 . S
H1469 C1475 0.930 . S
C1470 H1456 0.930 . S
C1470 C1468 1.395 . S
C1470 C1473 1.403 . S
C1471 C1468 1.403 . S
C1471 C1472 1.524 . S
C1471 C1475 1.400 . S
C1472 H1457 0.960 . S
C1472 H1458 0.960 . S
C1472 H1459 0.960 . S
C1472 C1471 1.524 . S
C1473 C1470 1.403 . S
C1473 C1474 1.392 . S
C1473 C1477 1.495 . S
C1474 C1473 1.392 . S
C1474 C1475 1.385 . S
C1474 C1476 1.478 . S
C1475 H1469 0.930 . S
C1475 C1471 1.400 . S
C1475 C1474 1.385 . S
C1476 C1474 1.478 . S
C1476 C1478 1.381 . S
C1476 C1482 1.383 . S
C1477 C1473 1.495 . S
C1477 H1483 0.959 . S
C1477 H1484 0.961 . S
C1477 H1485 0.960 . S
C1478 C1476 1.381 . S
C1478 C1479 1.394 . S
C1478 H1486 0.930 . S
C1479 C1478 1.394 . S
C1479 C1480 1.383 . S
C1479 H1487 0.929 . S
C1480 C1479 1.383 . S
C1480 C1481 1.377 . S
C1481 H1465 0.930 . S
C1481 C1480 1.377 . S
C1481 C1482 1.379 . S
C1482 H1466 0.931 . S
C1482 C1476 1.383 . S
C1482 C1481 1.379 . S
H1483 C1477 0.959 . S
H1484 C1477 0.961 . S
H1485 C1477 0.960 . S
H1486 C1478 0.930 . S
H1487 C1479 0.929 . S
H1488 C1496 0.929 . S
H1489 C1498 0.930 . S
H1490 C1500 0.930 . S
H1491 C1503 0.929 1_556 S
H1492 C1506 0.930 . S
H1493 C1508 0.960 . S
H1494 C1508 0.960 . S
H1495 C1508 0.960 . S
C1496 H1488 0.929 . S
C1496 C1497 1.377 . S
C1496 C1498 1.384 . S
C1497 C1496 1.377 . S
C1497 C1503 1.390 . S
C1498 H1489 0.930 . S
C1498 C1496 1.384 . S
C1498 C1499 1.372 . S
C1499 C1498 1.372 . S
C1499 C1500 1.400 . S
C1499 C1504 1.490 . S
C1500 H1490 0.930 . S
C1500 C1499 1.400 . S
C1500 C1503 1.386 . S
H1501 C1517 0.930 . S
H1502 C1518 0.931 . S
C1503 H1491 0.929 1_554 S
C1503 C1497 1.390 . S
C1503 C1500 1.386 . S
C1504 C1499 1.490 . S
C1504 C1506 1.395 . S
C1504 C1507 1.403 . S
H1505 C1511 0.930 . S
C1506 H1492 0.930 . S
C1506 C1504 1.395 . S
C1506 C1509 1.403 . S
C1507 C1504 1.403 . S
C1507 C1508 1.524 . S
C1507 C1511 1.400 . S
C1508 H1493 0.960 . S
C1508 H1494 0.960 . S
C1508 H1495 0.960 . S
C1508 C1507 1.524 . S
C1509 C1506 1.403 . S
C1509 C1510 1.392 . S
C1509 C1513 1.495 . S
C1510 C1509 1.392 . S
C1510 C1511 1.385 . S
C1510 C1512 1.478 . S
C1511 H1505 0.930 . S
C1511 C1507 1.400 . S
C1511 C1510 1.385 . S
C1512 C1510 1.478 . S
C1512 C1514 1.381 . S
C1512 C1518 1.383 . S
C1513 C1509 1.495 . S
C1513 H1519 0.959 . S
C1513 H1520 0.961 . S
C1513 H1521 0.960 . S
C1514 C1512 1.381 . S
C1514 C1515 1.394 . S
C1514 H1522 0.930 . S
C1515 C1514 1.394 . S
C1515 C1516 1.383 . S
C1515 H1523 0.929 . S
C1516 C1515 1.383 . S
C1516 C1517 1.377 . S
C1517 H1501 0.930 . S
C1517 C1516 1.377 . S
C1517 C1518 1.379 . S
C1518 H1502 0.931 . S
C1518 C1512 1.383 . S
C1518 C1517 1.379 . S
H1519 C1513 0.959 . S
H1520 C1513 0.961 . S
H1521 C1513 0.960 . S
H1522 C1514 0.930 . S
H1523 C1515 0.929 . S
H1524 C1532 0.929 . S
H1525 C1534 0.930 . S
H1526 C1536 0.930 . S
H1527 C1539 0.929 . S
H1528 C1542 0.930 . S
H1529 C1544 0.960 . S
H1530 C1544 0.960 . S
H1531 C1544 0.960 . S
C1532 H1524 0.929 . S
C1532 C1533 1.377 . S
C1532 C1534 1.384 . S
C1533 C1532 1.377 . S
C1533 C1539 1.390 . S
C1534 H1525 0.930 . S
C1534 C1532 1.384 . S
C1534 C1535 1.372 . S
C1535 C1534 1.372 . S
C1535 C1536 1.400 . S
C1535 C1540 1.490 . S
C1536 H1526 0.930 . S
C1536 C1535 1.400 . S
C1536 C1539 1.386 . S
H1537 C1553 0.938 . S
H1538 C1554 0.931 . S
C1539 H1527 0.929 . S
C1539 C1533 1.390 . S
C1539 C1536 1.386 . S
C1540 C1535 1.490 . S
C1540 C1542 1.395 . S
C1540 C1543 1.403 . S
H1541 C1547 0.930 . S
C1542 H1528 0.930 . S
C1542 C1540 1.395 . S
C1542 C1545 1.403 . S
C1543 C1540 1.403 . S
C1543 C1544 1.524 . S
C1543 C1547 1.400 . S
C1544 H1529 0.960 . S
C1544 H1530 0.960 . S
C1544 H1531 0.960 . S
C1544 C1543 1.524 . S
C1545 C1542 1.403 . S
C1545 C1546 1.392 . S
C1545 C1549 1.495 . S
C1546 C1545 1.392 . S
C1546 C1547 1.385 . S
C1546 C1548 1.478 . S
C1547 H1541 0.930 . S
C1547 C1543 1.400 . S
C1547 C1546 1.385 . S
C1548 C1546 1.478 . S
C1548 C1550 1.381 . S
C1548 C1554 1.383 . S
C1549 C1545 1.495 . S
C1549 H1555 0.959 . S
C1549 H1556 0.961 . S
C1549 H1557 0.960 . S
C1550 C1548 1.381 . S
C1550 C1551 1.394 . S
C1550 H1558 0.930 . S
C1551 C1550 1.394 . S
C1551 C1552 1.383 . S
C1551 H1559 0.929 . S
C1552 C1551 1.383 . S
C1552 C1553 1.377 . S
C1553 H1537 0.938 . S
C1553 C1552 1.377 . S
C1553 C1554 1.379 . S
C1554 H1538 0.931 . S
C1554 C1548 1.383 . S
C1554 C1553 1.379 . S
H1555 C1549 0.959 . S
H1556 C1549 0.961 . S
H1557 C1549 0.960 . S
H1558 C1550 0.930 . S
H1559 C1551 0.929 . S
H1560 C1568 0.929 . S
H1561 C1570 0.930 . S
H1562 C1572 0.930 . S
H1563 C1575 0.929 . S
H1564 C1578 0.930 . S
H1565 C1580 0.960 . S
H1566 C1580 0.960 . S
H1567 C1580 0.960 . S
C1568 H1560 0.929 . S
C1568 C1569 1.377 . S
C1568 C1570 1.384 . S
C1569 C1568 1.377 . S
C1569 C1575 1.390 . S
C1570 H1561 0.930 . S
C1570 C1568 1.384 . S
C1570 C1571 1.372 . S
C1571 C1570 1.372 . S
C1571 C1572 1.400 . S
C1571 C1576 1.490 . S
C1572 H1562 0.930 . S
C1572 C1571 1.400 . S
C1572 C1575 1.386 . S
H1573 C1589 0.930 . S
H1574 C1590 0.931 . S
C1575 H1563 0.929 . S
C1575 C1569 1.390 . S
C1575 C1572 1.386 . S
C1576 C1571 1.490 . S
C1576 C1578 1.395 . S
C1576 C1579 1.403 . S
H1577 C1583 0.930 . S
C1578 H1564 0.930 . S
C1578 C1576 1.395 . S
C1578 C1581 1.403 . S
C1579 C1576 1.403 . S
C1579 C1580 1.524 . S
C1579 C1583 1.400 . S
C1580 H1565 0.960 . S
C1580 H1566 0.960 . S
C1580 H1567 0.960 . S
C1580 C1579 1.524 . S
C1581 C1578 1.403 . S
C1581 C1582 1.392 . S
C1581 C1585 1.495 . S
C1582 C1581 1.392 . S
C1582 C1583 1.385 . S
C1582 C1584 1.478 . S
C1583 H1577 0.930 . S
C1583 C1579 1.400 . S
C1583 C1582 1.385 . S
C1584 C1582 1.478 . S
C1584 C1586 1.381 . S
C1584 C1590 1.383 . S
C1585 C1581 1.495 . S
C1585 H1591 0.959 . S
C1585 H1592 0.961 . S
C1585 H1593 0.960 . S
C1586 C1584 1.381 . S
C1586 C1587 1.394 . S
C1586 H1594 0.930 . S
C1587 C1586 1.394 . S
C1587 C1588 1.383 . S
C1587 H1595 0.929 . S
C1588 C1587 1.383 . S
C1588 C1589 1.377 . S
C1589 H1573 0.930 . S
C1589 C1588 1.377 . S
C1589 C1590 1.379 . S
C1590 H1574 0.931 . S
C1590 C1584 1.383 . S
C1590 C1589 1.379 . S
H1591 C1585 0.959 . S
H1592 C1585 0.961 . S
H1593 C1585 0.960 . S
H1594 C1586 0.930 . S
H1595 C1587 0.929 . S
H1596 C1604 0.929 . S
H1597 C1606 0.930 . S
H1598 C1608 0.930 . S
H1599 C1611 0.929 . S
H1600 C1614 0.930 . S
H1601 C1616 0.960 . S
H1602 C1616 0.960 . S
H1603 C1616 0.960 . S
C1604 H1596 0.929 . S
C1604 C1605 1.377 . S
C1604 C1606 1.384 . S
C1605 C1604 1.377 . S
C1605 C1611 1.390 . S
C1606 H1597 0.930 . S
C1606 C1604 1.384 . S
C1606 C1607 1.372 . S
C1607 C1606 1.372 . S
C1607 C1608 1.400 . S
C1607 C1612 1.490 . S
C1608 H1598 0.930 . S
C1608 C1607 1.400 . S
C1608 C1611 1.386 . S
H1609 C1625 0.930 . S
H1610 C1626 0.931 . S
C1611 H1599 0.929 . S
C1611 C1605 1.390 . S
C1611 C1608 1.386 . S
C1612 C1607 1.490 . S
C1612 C1614 1.395 . S
C1612 C1615 1.403 . S
H1613 C1619 0.930 . S
C1614 H1600 0.930 . S
C1614 C1612 1.395 . S
C1614 C1617 1.403 . S
C1615 C1612 1.403 . S
C1615 C1616 1.524 . S
C1615 C1619 1.400 . S
C1616 H1601 0.960 . S
C1616 H1602 0.960 . S
C1616 H1603 0.960 . S
C1616 C1615 1.524 . S
C1617 C1614 1.403 . S
C1617 C1618 1.392 . S
C1617 C1621 1.495 . S
C1618 C1617 1.392 . S
C1618 C1619 1.385 . S
C1618 C1620 1.478 . S
C1619 H1613 0.930 . S
C1619 C1615 1.400 . S
C1619 C1618 1.385 . S
C1620 C1618 1.478 . S
C1620 C1622 1.381 . S
C1620 C1626 1.383 . S
C1621 C1617 1.495 . S
C1621 H1627 0.959 . S
C1621 H1628 0.961 . S
C1621 H1629 0.960 . S
C1622 C1620 1.381 . S
C1622 C1623 1.394 . S
C1622 H1630 0.930 . S
C1623 C1622 1.394 . S
C1623 C1624 1.383 . S
C1623 H1631 0.929 . S
C1624 C1623 1.383 . S
C1624 C1625 1.377 . S
C1625 H1609 0.930 . S
C1625 C1624 1.377 . S
C1625 C1626 1.379 . S
C1626 H1610 0.931 . S
C1626 C1620 1.383 . S
C1626 C1625 1.379 . S
H1627 C1621 0.959 . S
H1628 C1621 0.961 . S
H1629 C1621 0.960 . S
H1630 C1622 0.930 . S
H1631 C1623 0.929 . S
H1632 C1640 0.929 . S
H1633 C1642 0.930 . S
H1634 C1644 0.930 . S
H1635 C1647 0.929 . S
H1636 C1650 0.930 . S
H1637 C1652 0.960 . S
H1638 C1652 0.960 . S
H1639 C1652 0.960 . S
C1640 H1632 0.929 . S
C1640 C1641 1.377 . S
C1640 C1642 1.384 . S
C1641 C1640 1.377 . S
C1641 C1647 1.390 . S
C1642 H1633 0.930 . S
C1642 C1640 1.384 . S
C1642 C1643 1.372 . S
C1643 C1642 1.372 . S
C1643 C1644 1.400 . S
C1643 C1648 1.490 . S
C1644 H1634 0.930 . S
C1644 C1643 1.400 . S
C1644 C1647 1.386 . S
H1645 C1661 0.930 . S
H1646 C1662 0.931 . S
C1647 H1635 0.929 . S
C1647 C1641 1.390 . S
C1647 C1644 1.386 . S
C1648 C1643 1.490 . S
C1648 C1650 1.395 . S
C1648 C1651 1.403 . S
H1649 C1655 0.930 . S
C1650 H1636 0.930 . S
C1650 C1648 1.395 . S
C1650 C1653 1.403 . S
C1651 C1648 1.403 . S
C1651 C1652 1.524 . S
C1651 C1655 1.400 . S
C1652 H1637 0.960 . S
C1652 H1638 0.960 . S
C1652 H1639 0.960 . S
C1652 C1651 1.524 . S
C1653 C1650 1.403 . S
C1653 C1654 1.392 . S
C1653 C1657 1.495 . S
C1654 C1653 1.392 . S
C1654 C1655 1.385 . S
C1654 C1656 1.478 . S
C1655 H1649 0.930 . S
C1655 C1651 1.400 . S
C1655 C1654 1.385 . S
C1656 C1654 1.478 . S
C1656 C1658 1.381 . S
C1656 C1662 1.383 . S
C1657 C1653 1.495 . S
C1657 H1663 0.959 . S
C1657 H1664 0.961 . S
C1657 H1665 0.960 . S
C1658 C1656 1.381 . S
C1658 C1659 1.394 . S
C1658 H1666 0.930 . S
C1659 C1658 1.394 . S
C1659 C1660 1.383 . S
C1659 H1667 0.929 . S
C1660 C1659 1.383 . S
C1660 C1661 1.377 . S
C1661 H1645 0.930 . S
C1661 C1660 1.377 . S
C1661 C1662 1.379 . S
C1662 H1646 0.931 . S
C1662 C1656 1.383 . S
C1662 C1661 1.379 . S
H1663 C1657 0.959 . S
H1664 C1657 0.961 . S
H1665 C1657 0.960 . S
H1666 C1658 0.930 . S
H1667 C1659 0.929 . S
H1668 C1676 0.929 . S
H1669 C1678 0.930 . S
H1670 C1680 0.930 . S
H1671 C1683 0.929 . S
H1672 C1686 0.930 . S
H1673 C1688 0.960 . S
H1674 C1688 0.960 . S
H1675 C1688 0.960 . S
C1676 H1668 0.929 . S
C1676 C1677 1.377 . S
C1676 C1678 1.384 . S
C1677 C1676 1.377 . S
C1677 C1683 1.390 . S
C1678 H1669 0.930 . S
C1678 C1676 1.384 . S
C1678 C1679 1.372 . S
C1679 C1678 1.372 . S
C1679 C1680 1.400 . S
C1679 C1684 1.490 . S
C1680 H1670 0.930 . S
C1680 C1679 1.400 . S
C1680 C1683 1.386 . S
H1681 C1697 0.930 . S
H1682 C1698 0.931 . S
C1683 H1671 0.929 . S
C1683 C1677 1.390 . S
C1683 C1680 1.386 . S
C1684 C1679 1.490 . S
C1684 C1686 1.395 . S
C1684 C1687 1.403 . S
H1685 C1691 0.930 . S
C1686 H1672 0.930 . S
C1686 C1684 1.395 . S
C1686 C1689 1.403 . S
C1687 C1684 1.403 . S
C1687 C1688 1.524 . S
C1687 C1691 1.400 . S
C1688 H1673 0.960 . S
C1688 H1674 0.960 . S
C1688 H1675 0.960 . S
C1688 C1687 1.524 . S
C1689 C1686 1.403 . S
C1689 C1690 1.392 . S
C1689 C1693 1.495 . S
C1690 C1689 1.392 . S
C1690 C1691 1.385 . S
C1690 C1692 1.478 . S
C1691 H1685 0.930 . S
C1691 C1687 1.400 . S
C1691 C1690 1.385 . S
C1692 C1690 1.478 . S
C1692 C1694 1.381 . S
C1692 C1698 1.383 . S
C1693 C1689 1.495 . S
C1693 H1699 0.959 . S
C1693 H1700 0.961 . S
C1693 H1701 0.960 . S
C1694 C1692 1.381 . S
C1694 C1695 1.394 . S
C1694 H1702 0.930 . S
C1695 C1694 1.394 . S
C1695 C1696 1.383 . S
C1695 H1703 0.929 . S
C1696 C1695 1.383 . S
C1696 C1697 1.377 . S
C1697 H1681 0.930 . S
C1697 C1696 1.377 . S
C1697 C1698 1.379 . S
C1698 H1682 0.931 . S
C1698 C1692 1.383 . S
C1698 C1697 1.379 . S
H1699 C1693 0.959 . S
H1700 C1693 0.961 . S
H1701 C1693 0.960 . S
H1702 C1694 0.930 . S
H1703 C1695 0.929 . S
H1704 C1712 0.929 . S
H1705 C1714 0.930 . S
H1706 C1716 0.930 . S
H1707 C1719 0.929 . S
H1708 C1722 0.930 . S
H1709 C1724 0.960 . S
H1710 C1724 0.960 . S
H1711 C1724 0.960 . S
C1712 H1704 0.929 . S
C1712 C1713 1.377 . S
C1712 C1714 1.384 . S
C1713 C1712 1.377 . S
C1713 C1719 1.390 . S
C1714 H1705 0.930 . S
C1714 C1712 1.384 . S
C1714 C1715 1.372 . S
C1715 C1714 1.372 . S
C1715 C1716 1.400 . S
C1715 C1720 1.490 . S
C1716 H1706 0.930 . S
C1716 C1715 1.400 . S
C1716 C1719 1.386 . S
H1717 C1733 0.930 . S
H1718 C1734 0.931 . S
C1719 H1707 0.929 . S
C1719 C1713 1.390 . S
C1719 C1716 1.386 . S
C1720 C1715 1.490 . S
C1720 C1722 1.395 . S
C1720 C1723 1.403 . S
H1721 C1727 0.930 . S
C1722 H1708 0.930 . S
C1722 C1720 1.395 . S
C1722 C1725 1.403 . S
C1723 C1720 1.403 . S
C1723 C1724 1.524 . S
C1723 C1727 1.400 . S
C1724 H1709 0.960 . S
C1724 H1710 0.960 . S
C1724 H1711 0.960 . S
C1724 C1723 1.524 . S
C1725 C1722 1.403 . S
C1725 C1726 1.392 . S
C1725 C1729 1.495 . S
C1726 C1725 1.392 . S
C1726 C1727 1.385 . S
C1726 C1728 1.478 . S
C1727 H1721 0.930 . S
C1727 C1723 1.400 . S
C1727 C1726 1.385 . S
C1728 C1726 1.478 . S
C1728 C1730 1.381 . S
C1728 C1734 1.383 . S
C1729 C1725 1.495 . S
C1729 H1735 0.959 . S
C1729 H1736 0.961 . S
C1729 H1737 0.960 . S
C1730 C1728 1.381 . S
C1730 C1731 1.394 . S
C1730 H1738 0.930 . S
C1731 C1730 1.394 . S
C1731 C1732 1.383 . S
C1731 H1739 0.929 . S
C1732 C1731 1.383 . S
C1732 C1733 1.377 . S
C1733 H1717 0.930 . S
C1733 C1732 1.377 . S
C1733 C1734 1.379 . S
C1734 H1718 0.931 . S
C1734 C1728 1.383 . S
C1734 C1733 1.379 . S
H1735 C1729 0.959 . S
H1736 C1729 0.961 . S
H1737 C1729 0.960 . S
H1738 C1730 0.930 . S
H1739 C1731 0.929 . S
H1740 C1748 0.929 . S
H1741 C1750 0.930 . S
H1742 C1752 0.930 . S
H1743 C1755 0.929 . S
H1744 C1758 0.930 . S
H1745 C1760 0.960 . S
H1746 C1760 0.960 . S
H1747 C1760 0.960 . S
C1748 H1740 0.929 . S
C1748 C1749 1.377 . S
C1748 C1750 1.384 . S
C1749 C1748 1.377 . S
C1749 C1755 1.390 . S
C1750 H1741 0.930 . S
C1750 C1748 1.384 . S
C1750 C1751 1.372 . S
C1751 C1750 1.372 . S
C1751 C1752 1.400 . S
C1751 C1756 1.490 . S
C1752 H1742 0.930 . S
C1752 C1751 1.400 . S
C1752 C1755 1.386 . S
H1753 C1769 0.930 . S
H1754 C1770 0.931 . S
C1755 H1743 0.929 . S
C1755 C1749 1.390 . S
C1755 C1752 1.386 . S
C1756 C1751 1.490 . S
C1756 C1758 1.395 . S
C1756 C1759 1.403 . S
H1757 C1763 0.930 . S
C1758 H1744 0.930 . S
C1758 C1756 1.395 . S
C1758 C1761 1.403 . S
C1759 C1756 1.403 . S
C1759 C1760 1.524 . S
C1759 C1763 1.400 . S
C1760 H1745 0.960 . S
C1760 H1746 0.960 . S
C1760 H1747 0.960 . S
C1760 C1759 1.524 . S
C1761 C1758 1.403 . S
C1761 C1762 1.392 . S
C1761 C1765 1.495 . S
C1762 C1761 1.392 . S
C1762 C1763 1.385 . S
C1762 C1764 1.478 . S
C1763 H1757 0.930 . S
C1763 C1759 1.400 . S
C1763 C1762 1.385 . S
C1764 C1762 1.478 . S
C1764 C1766 1.381 . S
C1764 C1770 1.383 . S
C1765 C1761 1.495 . S
C1765 H1771 0.959 . S
C1765 H1772 0.961 . S
C1765 H1773 0.960 . S
C1766 C1764 1.381 . S
C1766 C1767 1.394 . S
C1766 H1774 0.930 . S
C1767 C1766 1.394 . S
C1767 C1768 1.383 . S
C1767 H1775 0.929 . S
C1768 C1767 1.383 . S
C1768 C1769 1.377 . S
C1769 H1753 0.930 . S
C1769 C1768 1.377 . S
C1769 C1770 1.379 . S
C1770 H1754 0.931 . S
C1770 C1764 1.383 . S
C1770 C1769 1.379 . S
H1771 C1765 0.959 . S
H1772 C1765 0.961 . S
H1773 C1765 0.960 . S
H1774 C1766 0.930 . S
H1775 C1767 0.929 . S
H1776 C1784 0.929 . S
H1777 C1786 0.930 . S
H1778 C1788 0.930 . S
H1779 C1791 0.929 . S
H1780 C1794 0.930 . S
H1781 C1796 0.960 . S
H1782 C1796 0.960 . S
H1783 C1796 0.960 . S
C1784 H1776 0.929 . S
C1784 C1785 1.377 . S
C1784 C1786 1.384 . S
C1785 C1784 1.377 . S
C1785 C1791 1.390 . S
C1786 H1777 0.930 . S
C1786 C1784 1.384 . S
C1786 C1787 1.372 . S
C1787 C1786 1.372 . S
C1787 C1788 1.400 . S
C1787 C1792 1.490 . S
C1788 H1778 0.930 . S
C1788 C1787 1.400 . S
C1788 C1791 1.386 . S
H1789 C1805 0.930 . S
H1790 C1806 0.931 . S
C1791 H1779 0.929 . S
C1791 C1785 1.390 . S
C1791 C1788 1.386 . S
C1792 C1787 1.490 . S
C1792 C1794 1.395 . S
C1792 C1795 1.403 . S
H1793 C1799 0.930 . S
C1794 H1780 0.930 . S
C1794 C1792 1.395 . S
C1794 C1797 1.403 . S
C1795 C1792 1.403 . S
C1795 C1796 1.524 . S
C1795 C1799 1.400 . S
C1796 H1781 0.960 . S
C1796 H1782 0.960 . S
C1796 H1783 0.960 . S
C1796 C1795 1.524 . S
C1797 C1794 1.403 . S
C1797 C1798 1.392 . S
C1797 C1801 1.495 . S
C1798 C1797 1.392 . S
C1798 C1799 1.385 . S
C1798 C1800 1.478 . S
C1799 H1793 0.930 . S
C1799 C1795 1.400 . S
C1799 C1798 1.385 . S
C1800 C1798 1.478 . S
C1800 C1802 1.381 . S
C1800 C1806 1.383 . S
C1801 C1797 1.495 . S
C1801 H1807 0.959 . S
C1801 H1808 0.961 . S
C1801 H1809 0.960 . S
C1802 C1800 1.381 . S
C1802 C1803 1.394 . S
C1802 H1810 0.930 . S
C1803 C1802 1.394 . S
C1803 C1804 1.383 . S
C1803 H1811 0.929 . S
C1804 C1803 1.383 . S
C1804 C1805 1.377 . S
C1805 H1789 0.930 . S
C1805 C1804 1.377 . S
C1805 C1806 1.379 . S
C1806 H1790 0.931 . S
C1806 C1800 1.383 . S
C1806 C1805 1.379 . S
H1807 C1801 0.959 . S
H1808 C1801 0.961 . S
H1809 C1801 0.960 . S
H1810 C1802 0.930 . S
H1811 C1803 0.929 . S
H1812 C1820 0.929 . S
H1813 C1822 0.930 . S
H1814 C1824 0.930 . S
H1815 C1827 0.929 . S
H1816 C1830 0.930 . S
H1817 C1832 0.960 . S
H1818 C1832 0.960 . S
H1819 C1832 0.960 . S
C1820 H1812 0.929 . S
C1820 C1821 1.377 . S
C1820 C1822 1.384 . S
C1821 C1820 1.377 . S
C1821 C1827 1.390 . S
C1822 H1813 0.930 . S
C1822 C1820 1.384 . S
C1822 C1823 1.372 . S
C1823 C1822 1.372 . S
C1823 C1824 1.400 . S
C1823 C1828 1.490 . S
C1824 H1814 0.930 . S
C1824 C1823 1.400 . S
C1824 C1827 1.386 . S
H1825 C1841 0.930 . S
H1826 C1842 0.931 . S
C1827 H1815 0.929 . S
C1827 C1821 1.390 . S
C1827 C1824 1.386 . S
C1828 C1823 1.490 . S
C1828 C1830 1.395 . S
C1828 C1831 1.403 . S
H1829 C1835 0.930 . S
C1830 H1816 0.930 . S
C1830 C1828 1.395 . S
C1830 C1833 1.403 . S
C1831 C1828 1.403 . S
C1831 C1832 1.524 . S
C1831 C1835 1.400 . S
C1832 H1817 0.960 . S
C1832 H1818 0.960 . S
C1832 H1819 0.960 . S
C1832 C1831 1.524 . S
C1833 C1830 1.403 . S
C1833 C1834 1.392 . S
C1833 C1837 1.495 . S
C1834 C1833 1.392 . S
C1834 C1835 1.385 . S
C1834 C1836 1.478 . S
C1835 H1829 0.930 . S
C1835 C1831 1.400 . S
C1835 C1834 1.385 . S
C1836 C1834 1.478 . S
C1836 C1838 1.381 . S
C1836 C1842 1.383 . S
C1837 C1833 1.495 . S
C1837 H1843 0.959 . S
C1837 H1844 0.961 . S
C1837 H1845 0.960 . S
C1838 C1836 1.381 . S
C1838 C1839 1.394 1_655 S
C1838 H1846 0.930 1_655 S
C1839 C1838 1.394 1_455 S
C1839 C1840 1.383 1_455 S
C1839 H1847 0.929 . S
C1840 C1839 1.383 1_655 S
C1840 C1841 1.377 . S
C1841 H1825 0.930 . S
C1841 C1840 1.377 . S
C1841 C1842 1.379 . S
C1842 H1826 0.931 . S
C1842 C1836 1.383 . S
C1842 C1841 1.379 . S
H1843 C1837 0.959 . S
H1844 C1837 0.961 . S
H1845 C1837 0.960 . S
H1846 C1838 0.930 1_455 S
H1847 C1839 0.929 . S
H1848 C1856 0.929 . S
H1849 C1858 0.930 . S
H1850 C1860 0.930 . S
H1851 C1863 0.929 . S
H1852 C1866 0.930 . S
H1853 C1868 0.960 . S
H1854 C1868 0.960 . S
H1855 C1868 0.960 . S
C1856 H1848 0.929 . S
C1856 C1857 1.377 . S
C1856 C1858 1.384 . S
C1857 C1856 1.377 . S
C1857 C1863 1.390 . S
C1858 H1849 0.930 . S
C1858 C1856 1.384 . S
C1858 C1859 1.372 . S
C1859 C1858 1.372 . S
C1859 C1860 1.400 . S
C1859 C1864 1.490 . S
C1860 H1850 0.930 . S
C1860 C1859 1.400 . S
C1860 C1863 1.386 . S
H1861 C1877 0.930 . S
H1862 C1878 0.931 . S
C1863 H1851 0.929 . S
C1863 C1857 1.390 . S
C1863 C1860 1.386 . S
C1864 C1859 1.490 . S
C1864 C1866 1.395 . S
C1864 C1867 1.403 . S
H1865 C1871 0.930 . S
C1866 H1852 0.930 . S
C1866 C1864 1.395 . S
C1866 C1869 1.403 . S
C1867 C1864 1.403 . S
C1867 C1868 1.524 . S
C1867 C1871 1.400 . S
C1868 H1853 0.960 . S
C1868 H1854 0.960 . S
C1868 H1855 0.960 . S
C1868 C1867 1.524 . S
C1869 C1866 1.403 . S
C1869 C1870 1.392 . S
C1869 C1873 1.495 . S
C1870 C1869 1.392 . S
C1870 C1871 1.385 . S
C1870 C1872 1.478 . S
C1871 H1865 0.930 . S
C1871 C1867 1.400 . S
C1871 C1870 1.385 . S
C1872 C1870 1.478 . S
C1872 C1874 1.381 . S
C1872 C1878 1.383 . S
C1873 C1869 1.495 . S
C1873 H1879 0.959 . S
C1873 H1880 0.961 . S
C1873 H1881 0.960 . S
C1874 C1872 1.381 . S
C1874 C1875 1.394 . S
C1874 H1882 0.930 . S
C1875 C1874 1.394 . S
C1875 C1876 1.383 . S
C1875 H1883 0.929 . S
C1876 C1875 1.383 . S
C1876 C1877 1.377 . S
C1877 H1861 0.930 . S
C1877 C1876 1.377 . S
C1877 C1878 1.379 . S
C1878 H1862 0.931 . S
C1878 C1872 1.383 . S
C1878 C1877 1.379 . S
H1879 C1873 0.959 . S
H1880 C1873 0.961 . S
H1881 C1873 0.960 . S
H1882 C1874 0.930 . S
H1883 C1875 0.929 . S
H1884 C1892 0.929 . S
H1885 C1894 0.930 . S
H1886 C1896 0.930 . S
H1887 C1899 0.929 . S
H1888 C1902 0.930 . S
H1889 C1904 0.960 . S
H1890 C1904 0.960 . S
H1891 C1904 0.960 . S
C1892 H1884 0.929 . S
C1892 C1893 1.377 . S
C1892 C1894 1.384 . S
C1893 C1892 1.377 . S
C1893 C1899 1.390 . S
C1894 H1885 0.930 . S
C1894 C1892 1.384 . S
C1894 C1895 1.372 . S
C1895 C1894 1.372 . S
C1895 C1896 1.400 . S
C1895 C1900 1.490 . S
C1896 H1886 0.930 . S
C1896 C1895 1.400 . S
C1896 C1899 1.386 . S
H1897 C1913 0.930 . S
H1898 C1914 0.931 . S
C1899 H1887 0.929 . S
C1899 C1893 1.390 . S
C1899 C1896 1.386 . S
C1900 C1895 1.490 . S
C1900 C1902 1.395 . S
C1900 C1903 1.403 . S
H1901 C1907 0.930 . S
C1902 H1888 0.930 . S
C1902 C1900 1.395 . S
C1902 C1905 1.403 . S
C1903 C1900 1.403 . S
C1903 C1904 1.524 . S
C1903 C1907 1.400 . S
C1904 H1889 0.960 . S
C1904 H1890 0.960 . S
C1904 H1891 0.960 . S
C1904 C1903 1.524 . S
C1905 C1902 1.403 . S
C1905 C1906 1.392 . S
C1905 C1909 1.495 . S
C1906 C1905 1.392 . S
C1906 C1907 1.385 . S
C1906 C1908 1.478 . S
C1907 H1901 0.930 . S
C1907 C1903 1.400 . S
C1907 C1906 1.385 . S
C1908 C1906 1.478 . S
C1908 C1910 1.381 . S
C1908 C1914 1.383 . S
C1909 C1905 1.495 . S
C1909 H1915 0.959 . S
C1909 H1916 0.961 . S
C1909 H1917 0.960 . S
C1910 C1908 1.381 . S
C1910 C1911 1.394 . S
C1910 H1918 0.930 . S
C1911 C1910 1.394 . S
C1911 C1912 1.383 . S
C1911 H1919 0.929 . S
C1912 C1911 1.383 . S
C1912 C1913 1.377 . S
C1913 H1897 0.930 . S
C1913 C1912 1.377 . S
C1913 C1914 1.379 . S
C1914 H1898 0.931 . S
C1914 C1908 1.383 . S
C1914 C1913 1.379 . S
H1915 C1909 0.959 . S
H1916 C1909 0.961 . S
H1917 C1909 0.960 . S
H1918 C1910 0.930 . S
H1919 C1911 0.929 . S
H1920 C1928 0.929 . S
H1921 C1930 0.930 . S
H1922 C1932 0.930 . S
H1923 C1935 0.929 . S
H1924 C1938 0.930 . S
H1925 C1940 0.960 . S
H1926 C1940 0.960 . S
H1927 C1940 0.960 . S
C1928 H1920 0.929 . S
C1928 C1929 1.377 . S
C1928 C1930 1.384 . S
C1929 C1928 1.377 . S
C1929 C1935 1.390 . S
C1930 H1921 0.930 . S
C1930 C1928 1.384 . S
C1930 C1931 1.372 . S
C1931 C1930 1.372 . S
C1931 C1932 1.400 . S
C1931 C1936 1.490 . S
C1932 H1922 0.930 . S
C1932 C1931 1.400 . S
C1932 C1935 1.386 . S
H1933 C1949 0.930 . S
H1934 C1950 0.931 . S
C1935 H1923 0.929 . S
C1935 C1929 1.390 . S
C1935 C1932 1.386 . S
C1936 C1931 1.490 . S
C1936 C1938 1.395 . S
C1936 C1939 1.403 . S
H1937 C1943 0.930 . S
C1938 H1924 0.930 . S
C1938 C1936 1.395 . S
C1938 C1941 1.403 . S
C1939 C1936 1.403 . S
C1939 C1940 1.524 . S
C1939 C1943 1.400 . S
C1940 H1925 0.960 . S
C1940 H1926 0.960 . S
C1940 H1927 0.960 . S
C1940 C1939 1.524 . S
C1941 C1938 1.403 . S
C1941 C1942 1.392 . S
C1941 C1945 1.495 . S
C1942 C1941 1.392 . S
C1942 C1943 1.385 . S
C1942 C1944 1.478 . S
C1943 H1937 0.930 . S
C1943 C1939 1.400 . S
C1943 C1942 1.385 . S
C1944 C1942 1.478 . S
C1944 C1946 1.381 . S
C1944 C1950 1.383 . S
C1945 C1941 1.495 . S
C1945 H1951 0.959 . S
C1945 H1952 0.961 . S
C1945 H1953 0.960 . S
C1946 C1944 1.381 . S
C1946 C1947 1.394 . S
C1946 H1954 0.930 . S
C1947 C1946 1.394 . S
C1947 C1948 1.383 . S
C1947 H1955 0.929 . S
C1948 C1947 1.383 . S
C1948 C1949 1.377 . S
C1949 H1933 0.930 . S
C1949 C1948 1.377 . S
C1949 C1950 1.379 . S
C1950 H1934 0.931 . S
C1950 C1944 1.383 . S
C1950 C1949 1.379 . S
H1951 C1945 0.959 . S
H1952 C1945 0.961 . S
H1953 C1945 0.960 . S
H1954 C1946 0.930 . S
H1955 C1947 0.929 . S
H1956 C1964 0.929 . S
H1957 C1966 0.930 . S
H1958 C1968 0.930 . S
H1959 C1971 0.929 . S
H1960 C1974 0.930 . S
H1961 C1976 0.960 . S
H1962 C1976 0.960 . S
H1963 C1976 0.960 . S
C1964 H1956 0.929 . S
C1964 C1965 1.377 . S
C1964 C1966 1.384 . S
C1965 C1964 1.377 . S
C1965 C1971 1.390 . S
C1966 H1957 0.930 . S
C1966 C1964 1.384 . S
C1966 C1967 1.372 . S
C1967 C1966 1.372 . S
C1967 C1968 1.400 . S
C1967 C1972 1.490 . S
C1968 H1958 0.930 . S
C1968 C1967 1.400 . S
C1968 C1971 1.386 . S
H1969 C1985 0.930 . S
H1970 C1986 0.931 . S
C1971 H1959 0.929 . S
C1971 C1965 1.390 . S
C1971 C1968 1.386 . S
C1972 C1967 1.490 . S
C1972 C1974 1.395 . S
C1972 C1975 1.403 . S
H1973 C1979 0.930 . S
C1974 H1960 0.930 . S
C1974 C1972 1.395 . S
C1974 C1977 1.403 . S
C1975 C1972 1.403 . S
C1975 C1976 1.524 . S
C1975 C1979 1.400 . S
C1976 H1961 0.960 . S
C1976 H1962 0.960 . S
C1976 H1963 0.960 . S
C1976 C1975 1.524 . S
C1977 C1974 1.403 . S
C1977 C1978 1.392 . S
C1977 C1981 1.495 . S
C1978 C1977 1.392 . S
C1978 C1979 1.385 . S
C1978 C1980 1.478 . S
C1979 H1973 0.930 . S
C1979 C1975 1.400 . S
C1979 C1978 1.385 . S
C1980 C1978 1.478 . S
C1980 C1982 1.381 . S
C1980 C1986 1.383 . S
C1981 C1977 1.495 . S
C1981 H1987 0.959 . S
C1981 H1988 0.961 . S
C1981 H1989 0.960 . S
C1982 C1980 1.381 . S
C1982 C1983 1.394 . S
C1982 H1990 0.930 . S
C1983 C1982 1.394 . S
C1983 C1984 1.383 . S
C1983 H1991 0.929 . S
C1984 C1983 1.383 . S
C1984 C1985 1.377 . S
C1985 H1969 0.930 . S
C1985 C1984 1.377 . S
C1985 C1986 1.379 . S
C1986 H1970 0.931 . S
C1986 C1980 1.383 . S
C1986 C1985 1.379 . S
H1987 C1981 0.959 . S
H1988 C1981 0.961 . S
H1989 C1981 0.960 . S
H1990 C1982 0.930 . S
H1991 C1983 0.929 . S
H1992 C2000 0.929 . S
H1993 C2002 0.930 . S
H1994 C2004 0.930 . S
H1995 C2007 0.929 . S
H1996 C2010 0.930 . S
H1997 C2012 0.960 . S
H1998 C2012 0.960 . S
H1999 C2012 0.960 . S
C2000 H1992 0.929 . S
C2000 C2001 1.377 . S
C2000 C2002 1.384 . S
C2001 C2000 1.377 . S
C2001 C2007 1.390 . S
C2002 H1993 0.930 . S
C2002 C2000 1.384 . S
C2002 C2003 1.372 . S
C2003 C2002 1.372 . S
C2003 C2004 1.400 . S
C2003 C2008 1.490 . S
C2004 H1994 0.930 . S
C2004 C2003 1.400 . S
C2004 C2007 1.386 . S
H2005 C2021 0.930 . S
H2006 C2022 0.931 . S
C2007 H1995 0.929 . S
C2007 C2001 1.390 . S
C2007 C2004 1.386 . S
C2008 C2003 1.490 . S
C2008 C2010 1.395 . S
C2008 C2011 1.403 . S
H2009 C2015 0.930 . S
C2010 H1996 0.930 . S
C2010 C2008 1.395 . S
C2010 C2013 1.403 . S
C2011 C2008 1.403 . S
C2011 C2012 1.524 . S
C2011 C2015 1.400 . S
C2012 H1997 0.960 . S
C2012 H1998 0.960 . S
C2012 H1999 0.960 . S
C2012 C2011 1.524 . S
C2013 C2010 1.403 . S
C2013 C2014 1.392 . S
C2013 C2017 1.495 . S
C2014 C2013 1.392 . S
C2014 C2015 1.385 . S
C2014 C2016 1.478 . S
C2015 H2009 0.930 . S
C2015 C2011 1.400 . S
C2015 C2014 1.385 . S
C2016 C2014 1.478 . S
C2016 C2018 1.381 . S
C2016 C2022 1.383 . S
C2017 C2013 1.495 . S
C2017 H2023 0.959 . S
C2017 H2024 0.961 . S
C2017 H2025 0.960 . S
C2018 C2016 1.381 . S
C2018 C2019 1.394 . S
C2018 H2026 0.930 . S
C2019 C2018 1.394 . S
C2019 C2020 1.383 . S
C2019 H2027 0.929 . S
C2020 C2019 1.383 . S
C2020 C2021 1.377 . S
C2021 H2005 0.930 . S
C2021 C2020 1.377 . S
C2021 C2022 1.379 . S
C2022 H2006 0.931 . S
C2022 C2016 1.383 . S
C2022 C2021 1.379 . S
H2023 C2017 0.959 . S
H2024 C2017 0.961 . S
H2025 C2017 0.960 . S
H2026 C2018 0.930 . S
H2027 C2019 0.929 . S
H2028 C2036 0.929 . S
H2029 C2038 0.930 . S
H2030 C2040 0.930 . S
H2031 C2043 0.929 . S
H2032 C2046 0.930 . S
H2033 C2048 0.960 . S
H2034 C2048 0.960 . S
H2035 C2048 0.960 . S
C2036 H2028 0.929 . S
C2036 C2037 1.377 . S
C2036 C2038 1.384 . S
C2037 C2036 1.377 . S
C2037 C2043 1.390 . S
C2038 H2029 0.930 . S
C2038 C2036 1.384 . S
C2038 C2039 1.372 . S
C2039 C2038 1.372 . S
C2039 C2040 1.400 . S
C2039 C2044 1.490 . S
C2040 H2030 0.930 . S
C2040 C2039 1.400 . S
C2040 C2043 1.386 . S
H2041 C2057 0.930 . S
H2042 C2058 0.931 . S
C2043 H2031 0.929 . S
C2043 C2037 1.390 . S
C2043 C2040 1.386 . S
C2044 C2039 1.490 . S
C2044 C2046 1.395 . S
C2044 C2047 1.403 . S
H2045 C2051 0.930 . S
C2046 H2032 0.930 . S
C2046 C2044 1.395 . S
C2046 C2049 1.403 . S
C2047 C2044 1.403 . S
C2047 C2048 1.524 . S
C2047 C2051 1.400 . S
C2048 H2033 0.960 . S
C2048 H2034 0.960 . S
C2048 H2035 0.960 . S
C2048 C2047 1.524 . S
C2049 C2046 1.403 . S
C2049 C2050 1.392 . S
C2049 C2053 1.495 . S
C2050 C2049 1.392 . S
C2050 C2051 1.385 . S
C2050 C2052 1.478 . S
C2051 H2045 0.930 . S
C2051 C2047 1.400 . S
C2051 C2050 1.385 . S
C2052 C2050 1.478 . S
C2052 C2054 1.381 . S
C2052 C2058 1.383 . S
C2053 C2049 1.495 . S
C2053 H2059 0.959 . S
C2053 H2060 0.961 . S
C2053 H2061 0.960 . S
C2054 C2052 1.381 . S
C2054 C2055 1.394 . S
C2054 H2062 0.930 . S
C2055 C2054 1.394 . S
C2055 C2056 1.383 . S
C2055 H2063 0.929 . S
C2056 C2055 1.383 . S
C2056 C2057 1.377 . S
C2057 H2041 0.930 . S
C2057 C2056 1.377 . S
C2057 C2058 1.379 . S
C2058 H2042 0.931 . S
C2058 C2052 1.383 . S
C2058 C2057 1.379 . S
H2059 C2053 0.959 . S
H2060 C2053 0.961 . S
H2061 C2053 0.960 . S
H2062 C2054 0.930 . S
H2063 C2055 0.929 . S
C345 C106 0.955 . S
C364 C8 1.066 . S
C381 C23 0.557 . S
C400 C65 0.632 . S
C417 C78 0.959 . S
C436 C36 1.089 . S
C453 C51 0.707 . S
C472 C93 0.781 . S
C489 C120 1.073 . S
C508 C9 0.920 . S
C525 C22 0.701 . S
C544 C135 0.634 . S
C561 C148 1.064 . S
C580 C37 1.021 . S
C597 C162 0.550 . S
C616 C50 0.623 . S
C633 C64 0.554 1_565 S
C652 C134 0.534 . S
C669 C79 0.800 . S
C688 C149 0.840 . S
C705 C163 0.606 . S
C724 C92 0.491 . S
C741 C121 0.968 . S
C760 C107 1.044 . S
C777 C303 0.962 . S
C796 C176 1.083 . S
C813 C191 0.701 . S
C832 C317 0.758 . S
C849 C204 1.067 . S
C868 C330 0.916 . S
C885 C331 0.796 . S
C904 C218 0.754 . S
C921 C232 0.958 . S
C940 C302 1.054 . S
C957 C274 0.645 . S
C976 C246 0.684 . S
C993 C177 0.763 . S
C1012 C233 0.791 . S
C1029 C190 0.625 . S
C1048 C260 0.609 1_655 S
C1065 C205 0.967 . S
C1084 C219 1.081 . S
C1101 C247 0.644 . S
C1120 C288 0.668 . S
C1137 C261 0.634 . S
C1156 C316 0.598 . S
C1173 C289 0.656 . S
C1192 C275 0.621 . S
C1209 C62 1.882 . S
C1228 C7 1.882 . S
C1245 C77 1.319 . S
C1264 C20 1.335 . S
C1281 C90 2.046 . S
C1300 C35 2.049 . S
C1317 C105 1.779 . S
C1336 C48 1.751 . S
C1353 C119 1.865 . S
C1372 C160 1.900 . S
C1389 C132 1.780 . S
C1408 C118 1.804 . S
C1425 C147 1.520 . S
C1444 C133 1.512 . S
C1461 C146 1.141 . S
C1480 C161 1.117 . S
C1497 C258 1.875 . S
C1516 C104 1.848 . S
C1533 C175 1.517 . S
C1552 C49 1.497 . S
C1569 C6 1.779 . S
C1588 C188 1.757 . S
C1605 C21 2.046 . S
C1624 C203 2.048 . S
C1641 C76 1.688 . S
C1660 C272 1.646 . S
C1677 C63 1.152 . S
C1696 C217 1.169 . S
C1713 C91 1.309 . S
C1732 C231 1.278 . S
C1749 C230 1.696 . S
C1768 C245 1.691 . S
C1785 C174 1.146 . S
C1804 C259 1.127 . S
C1821 C216 1.527 . S
C1840 C189 1.544 . S
C1857 C273 1.929 . S
C1876 C202 1.898 . S
C1893 C287 1.670 . S
C1912 C328 1.708 . S
C1929 C286 1.932 . S
C1948 C300 1.924 . S
C1965 C314 2.043 . S
C1984 C301 2.017 . S
C2001 C329 1.322 . S
C2020 C315 1.339 . S
C2037 C34 1.907 . S
C2056 C244 1.947 . S
