# Generated by pormake.
# Topology wji, (4)-cn, num edge types: 1
# Building blocks:
#     Node 0, Type 0, BuildingBlock: CEKHIL_clean_sbu_0, # of connection points: 4
#     Node 1, Type 0, BuildingBlock: CEKHIL_clean_sbu_0, # of connection points: 4
#     Node 2, Type 0, BuildingBlock: CEKHIL_clean_sbu_0, # of connection points: 4
#     Node 3, Type 0, BuildingBlock: CEKHIL_clean_sbu_0, # of connection points: 4
#     Node 4, Type 0, BuildingBlock: CEKHIL_clean_sbu_0, # of connection points: 4
#     Node 5, Type 0, BuildingBlock: CEKHIL_clean_sbu_0, # of connection points: 4
#     Node 6, Type 0, BuildingBlock: CEKHIL_clean_sbu_0, # of connection points: 4
#     Node 7, Type 0, BuildingBlock: CEKHIL_clean_sbu_0, # of connection points: 4
#     Node 8, Type 0, BuildingBlock: CEKHIL_clean_sbu_0, # of connection points: 4
#     Node 9, Type 0, BuildingBlock: CEKHIL_clean_sbu_0, # of connection points: 4
#     Node 10, Type 0, BuildingBlock: CEKHIL_clean_sbu_0, # of connection points: 4
#     Node 11, Type 0, BuildingBlock: CEKHIL_clean_sbu_0, # of connection points: 4
#     Edge 12, Type (0, 0), BuildingBlock: UVAHIK_clean_linker_0, # of connection points: 2
#     Edge 13, Type (0, 0), BuildingBlock: UVAHIK_clean_linker_0, # of connection points: 2
#     Edge 14, Type (0, 0), BuildingBlock: UVAHIK_clean_linker_0, # of connection points: 2
#     Edge 15, Type (0, 0), BuildingBlock: UVAHIK_clean_linker_0, # of connection points: 2
#     Edge 16, Type (0, 0), BuildingBlock: UVAHIK_clean_linker_0, # of connection points: 2
#     Edge 17, Type (0, 0), BuildingBlock: UVAHIK_clean_linker_0, # of connection points: 2
#     Edge 18, Type (0, 0), BuildingBlock: UVAHIK_clean_linker_0, # of connection points: 2
#     Edge 19, Type (0, 0), BuildingBlock: UVAHIK_clean_linker_0, # of connection points: 2
#     Edge 20, Type (0, 0), BuildingBlock: UVAHIK_clean_linker_0, # of connection points: 2
#     Edge 21, Type (0, 0), BuildingBlock: UVAHIK_clean_linker_0, # of connection points: 2
#     Edge 22, Type (0, 0), BuildingBlock: UVAHIK_clean_linker_0, # of connection points: 2
#     Edge 23, Type (0, 0), BuildingBlock: UVAHIK_clean_linker_0, # of connection points: 2
#     Edge 24, Type (0, 0), BuildingBlock: UVAHIK_clean_linker_0, # of connection points: 2
#     Edge 25, Type (0, 0), BuildingBlock: UVAHIK_clean_linker_0, # of connection points: 2
#     Edge 26, Type (0, 0), BuildingBlock: UVAHIK_clean_linker_0, # of connection points: 2
#     Edge 27, Type (0, 0), BuildingBlock: UVAHIK_clean_linker_0, # of connection points: 2
#     Edge 28, Type (0, 0), BuildingBlock: UVAHIK_clean_linker_0, # of connection points: 2
#     Edge 29, Type (0, 0), BuildingBlock: UVAHIK_clean_linker_0, # of connection points: 2
#     Edge 30, Type (0, 0), BuildingBlock: UVAHIK_clean_linker_0, # of connection points: 2
#     Edge 31, Type (0, 0), BuildingBlock: UVAHIK_clean_linker_0, # of connection points: 2
#     Edge 32, Type (0, 0), BuildingBlock: UVAHIK_clean_linker_0, # of connection points: 2
#     Edge 33, Type (0, 0), BuildingBlock: UVAHIK_clean_linker_0, # of connection points: 2
#     Edge 34, Type (0, 0), BuildingBlock: UVAHIK_clean_linker_0, # of connection points: 2
#     Edge 35, Type (0, 0), BuildingBlock: UVAHIK_clean_linker_0, # of connection points: 2
# Relax obj value: 0.222
# Max RMSD: 0.135
# Mean RMSD: 0.135
data_MOF--net-wji--node1-CEKHIL_clean_sbu_0--edge1-UVAHIK_clean_linker_0
_symmetry_space_group_name_H-M    P1
_symmetry_Int_Tables_number       1
_symmetry_cell_setting            triclinic
loop_
_symmetry_equiv_pos_as_xyz
'x, y, z'
_cell_length_a     73.159636
_cell_length_b     73.160845
_cell_length_c     29.557862
_cell_angle_alpha  89.98571
_cell_angle_beta   90.042791
_cell_angle_gamma 119.97355
loop_
_atom_site_label
_atom_site_type_symbol
_atom_site_fract_x
_atom_site_fract_y
_atom_site_fract_z
_atom_type_partial_charge
Co0 Co 0.4173 0.32396 0.44242 0.0
O1 O 0.42457 0.31147 0.49143 0.0
O2 O 0.40542 0.29385 0.43212 0.0
C3 C 0.44999 0.3522 0.43372 0.0
O4 O 0.40691 0.33195 0.38505 0.0
Co5 Co 0.42184 0.36841 0.45639 0.0
O6 O 0.41287 0.36523 0.39258 0.0
C7 C 0.38547 0.33058 0.49569 0.0
C8 C 0.41392 0.29357 0.47067 0.0
C9 C 0.4063 0.34824 0.37008 0.0
O10 O 0.39107 0.31845 0.47617 0.0
O11 O 0.39627 0.35075 0.49422 0.0
O12 O 0.44517 0.33427 0.41498 0.0
O13 O 0.43572 0.35191 0.45973 0.0
Co14 Co 0.09496 0.41791 0.60558 0.0
O15 O 0.11217 0.42452 0.65908 0.0
O16 O 0.11254 0.40496 0.60251 0.0
C17 C 0.10118 0.45112 0.59426 0.0
O18 O 0.07969 0.40824 0.54431 0.0
Co19 Co 0.05593 0.42439 0.60318 0.0
O20 O 0.05828 0.42196 0.53713 0.0
C21 C 0.05326 0.38733 0.65016 0.0
C22 C 0.11984 0.41345 0.64193 0.0
C23 C 0.06739 0.41249 0.52076 0.0
O24 O 0.07182 0.3921 0.63653 0.0
O25 O 0.04485 0.39874 0.64243 0.0
O26 O 0.1147 0.4458 0.58011 0.0
O27 O 0.08554 0.43693 0.61715 0.0
Co28 Co 0.67973 0.09661 0.76464 0.0
O29 O 0.69036 0.11777 0.81114 0.0
O30 O 0.71023 0.11454 0.75901 0.0
C31 C 0.65173 0.10034 0.74634 0.0
O32 O 0.67357 0.07664 0.7106 0.0
Co33 Co 0.63501 0.05692 0.77845 0.0
O34 O 0.64013 0.04955 0.71735 0.0
C35 C 0.67166 0.06011 0.82681 0.0
C36 C 0.70901 0.1244 0.79458 0.0
C37 C 0.65766 0.05925 0.69634 0.0
O38 O 0.6842 0.07704 0.80523 0.0
O39 O 0.65155 0.05056 0.82337 0.0
O40 O 0.67023 0.11315 0.7295 0.0
O41 O 0.65131 0.08731 0.7762 0.0
Co42 Co 0.58312 0.67829 0.93832 0.0
O43 O 0.57359 0.69333 0.97571 0.0
O44 O 0.59737 0.70801 0.92132 0.0
C45 C 0.5506 0.65037 0.92578 0.0
O46 O 0.59587 0.66698 0.89198 0.0
Co47 Co 0.57537 0.63459 0.97175 0.0
O48 O 0.58748 0.63395 0.91217 0.0
C49 C 0.60765 0.67348 0.01518 0.0
C50 C 0.58647 0.71017 0.95359 0.0
C51 C 0.59601 0.64961 0.88512 0.0
O52 O 0.6065 0.6845 0.98265 0.0
O53 O 0.59494 0.65368 0.01986 0.0
O54 O 0.55747 0.66725 0.90104 0.0
O55 O 0.56273 0.65169 0.95871 0.0
Co56 Co 0.90701 0.58282 0.1058 0.0
O57 O 0.88716 0.57435 0.15484 0.0
O58 O 0.88806 0.59405 0.09728 0.0
C59 C 0.90356 0.55056 0.09574 0.0
O60 O 0.92519 0.59423 0.04841 0.0
Co61 Co 0.94778 0.57973 0.11732 0.0
O62 O 0.95259 0.58827 0.05322 0.0
C63 C 0.94497 0.61474 0.16013 0.0
C64 C 0.8794 0.58486 0.1354 0.0
C65 C 0.94187 0.59487 0.03199 0.0
O66 O 0.92714 0.60887 0.1408 0.0
O67 O 0.95495 0.60455 0.15716 0.0
O68 O 0.89017 0.55507 0.07719 0.0
O69 O 0.91739 0.56495 0.12182 0.0
Co70 Co 0.32476 0.90796 0.27049 0.0
O71 O 0.3127 0.88676 0.3167 0.0
O72 O 0.29458 0.88972 0.26012 0.0
C73 C 0.35328 0.90424 0.25881 0.0
O74 O 0.3326 0.92801 0.21593 0.0
Co75 Co 0.36875 0.94772 0.28878 0.0
O76 O 0.3659 0.95488 0.22588 0.0
C77 C 0.33059 0.94426 0.33084 0.0
C78 C 0.29464 0.87989 0.29687 0.0
C79 C 0.34899 0.94527 0.20272 0.0
O80 O 0.31881 0.92724 0.30862 0.0
O81 O 0.35077 0.954 0.32967 0.0
O82 O 0.33548 0.8916 0.23901 0.0
O83 O 0.35271 0.9173 0.28723 0.0
Co84 Co 0.67437 0.58023 0.39452 0.0
O85 O 0.68576 0.57248 0.34419 0.0
O86 O 0.70475 0.59251 0.40123 0.0
C87 C 0.64646 0.54758 0.40619 0.0
O88 O 0.66767 0.59102 0.45298 0.0
Co89 Co 0.62937 0.5751 0.38594 0.0
O90 O 0.63408 0.5845 0.44957 0.0
C91 C 0.66596 0.61129 0.34266 0.0
C92 C 0.70415 0.58345 0.36288 0.0
C93 C 0.65165 0.59149 0.47007 0.0
O94 O 0.67878 0.60611 0.3605 0.0
O95 O 0.64588 0.60024 0.34636 0.0
O96 O 0.66483 0.55255 0.42275 0.0
O97 O 0.6461 0.5616 0.38044 0.0
Co98 Co 0.09549 0.67421 0.55411 0.0
O99 O 0.1136 0.68613 0.50245 0.0
O100 O 0.11333 0.70459 0.56136 0.0
C101 C 0.10116 0.64672 0.56193 0.0
O102 O 0.07899 0.66682 0.61407 0.0
Co103 Co 0.056 0.62929 0.54874 0.0
O104 O 0.05747 0.6316 0.61538 0.0
C105 C 0.0544 0.6657 0.50979 0.0
C106 C 0.12113 0.70436 0.52188 0.0
C107 C 0.06617 0.64953 0.63479 0.0
O108 O 0.07328 0.67842 0.52344 0.0
O109 O 0.04504 0.64566 0.51506 0.0
O110 O 0.11446 0.66503 0.57888 0.0
O111 O 0.08601 0.6461 0.53835 0.0
Co112 Co 0.42147 0.09232 0.71613 0.0
O113 O 0.42636 0.10991 0.66399 0.0
O114 O 0.41015 0.11107 0.72612 0.0
C115 C 0.45446 0.09706 0.71878 0.0
O116 O 0.41383 0.07644 0.77686 0.0
Co117 Co 0.42546 0.05199 0.70845 0.0
O118 O 0.42553 0.05324 0.77514 0.0
C119 C 0.38688 0.05127 0.67571 0.0
C120 C 0.41682 0.11817 0.6855 0.0
C121 C 0.41759 0.0628 0.79621 0.0
O122 O 0.39385 0.07033 0.68916 0.0
O123 O 0.39732 0.04155 0.67867 0.0
O124 O 0.45048 0.11089 0.73686 0.0
O125 O 0.43899 0.08194 0.69709 0.0
Co126 Co 0.32781 0.42019 0.88745 0.0
O127 O 0.31437 0.42868 0.8432 0.0
O128 O 0.29812 0.40905 0.90282 0.0
C129 C 0.35699 0.45244 0.89348 0.0
O130 O 0.33749 0.40897 0.94071 0.0
Co131 Co 0.37058 0.42325 0.86197 0.0
O132 O 0.37054 0.41572 0.92617 0.0
C133 C 0.33074 0.3882 0.82684 0.0
C134 C 0.29705 0.41826 0.86593 0.0
C135 C 0.35448 0.40878 0.95198 0.0
O136 O 0.31998 0.39393 0.85126 0.0
O137 O 0.35087 0.39852 0.82386 0.0
O138 O 0.3402 0.4479 0.91683 0.0
O139 O 0.35503 0.43811 0.86537 0.0
Co140 Co 0.90196 0.32441 0.06844 0.0
O141 O 0.87846 0.30991 0.02803 0.0
O142 O 0.88736 0.29416 0.08044 0.0
C143 C 0.89562 0.35083 0.0853 0.0
O144 O 0.92515 0.33512 0.11703 0.0
Co145 Co 0.93702 0.36995 0.04119 0.0
O146 O 0.94775 0.36951 0.10254 0.0
C147 C 0.9332 0.33318 0.99297 0.0
C148 C 0.87478 0.29256 0.04752 0.0
C149 C 0.94133 0.35315 0.12734 0.0
O150 O 0.92087 0.3209 0.02394 0.0
O151 O 0.93939 0.3529 0.99079 0.0
O152 O 0.88534 0.33292 0.10647 0.0
O153 O 0.90744 0.3513 0.05263 0.0
Co154 Co 0.57903 0.90486 0.22302 0.0
O155 O 0.57101 0.88544 0.17328 0.0
O156 O 0.59225 0.88751 0.22879 0.0
C157 C 0.54619 0.89927 0.23612 0.0
O158 O 0.59012 0.9229 0.28074 0.0
Co159 Co 0.5727 0.94391 0.21518 0.0
O160 O 0.57722 0.94515 0.28124 0.0
C161 C 0.60921 0.94455 0.17083 0.0
C162 C 0.58267 0.87863 0.1911 0.0
C163 C 0.58683 0.93677 0.30047 0.0
O164 O 0.60415 0.92644 0.18775 0.0
O165 O 0.59818 0.95356 0.17592 0.0
O166 O 0.55185 0.88638 0.25268 0.0
O167 O 0.55971 0.91371 0.20972 0.0
C168 C 0.37063 0.39255 0.00018 0.0
C169 C 0.3556 0.39909 0.99538 0.0
C170 C 0.3724 0.38362 0.04042 0.0
C171 C 0.36371 0.38293 0.16178 0.0
H172 H 0.37342 0.3354 0.16043 0.0
C173 C 0.37954 0.35234 0.32725 0.0
C174 C 0.39561 0.34718 0.32701 0.0
C175 C 0.37143 0.3552 0.28684 0.0
C176 C 0.37091 0.34878 0.16144 0.0
H177 H 0.33041 0.40105 0.02942 0.0
H178 H 0.33381 0.38567 0.10076 0.0
H179 H 0.36475 0.34698 0.09018 0.0
H180 H 0.41544 0.34026 0.28457 0.0
H181 H 0.40169 0.34582 0.21323 0.0
H182 H 0.37067 0.38541 0.23241 0.0
C183 C 0.34416 0.38748 0.07282 0.0
C184 C 0.36583 0.35536 0.12119 0.0
C185 C 0.34217 0.39623 0.03201 0.0
C186 C 0.40286 0.344 0.28551 0.0
C187 C 0.39495 0.3472 0.24475 0.0
C188 C 0.36895 0.37649 0.20193 0.0
C189 C 0.35933 0.38108 0.07737 0.0
C190 C 0.36243 0.37268 0.12081 0.0
C191 C 0.37952 0.35344 0.24498 0.0
C192 C 0.37283 0.35944 0.20231 0.0
H193 H 0.38116 0.3943 0.97267 0.0
H194 H 0.38443 0.37915 0.04293 0.0
H195 H 0.36152 0.39652 0.16252 0.0
H196 H 0.37363 0.35478 0.35897 0.0
H197 H 0.35917 0.35936 0.28856 0.0
C198 C 0.05286 0.38272 0.46502 0.0
C199 C 0.06124 0.40429 0.47428 0.0
C200 C 0.04196 0.37405 0.42439 0.0
C201 C 0.03248 0.38796 0.30951 0.0
H202 H 0.97501 0.34194 0.32422 0.0
C203 C 0.96857 0.37594 0.18395 0.0
C204 C 0.95394 0.35552 0.16873 0.0
C205 C 0.98221 0.37895 0.21969 0.0
C206 C 0.99112 0.35452 0.31932 0.0
H207 H 0.06588 0.43388 0.44778 0.0
H208 H 0.04771 0.41907 0.37654 0.0
H209 H 0.99976 0.35257 0.38786 0.0
H210 H 0.94163 0.32217 0.18096 0.0
H211 H 0.96566 0.32752 0.2443 0.0
H212 H 0.02384 0.3904 0.24162 0.0
C213 C 0.04933 0.40873 0.40042 0.0
C214 C 0.00531 0.36059 0.35573 0.0
C215 C 0.05978 0.41726 0.44118 0.0
C216 C 0.95273 0.3381 0.19173 0.0
C217 C 0.9665 0.34116 0.22792 0.0
C218 C 0.01839 0.38188 0.27324 0.0
C219 C 0.0397 0.38693 0.3921 0.0
C220 C 0.02594 0.37785 0.3516 0.0
C221 C 0.98173 0.36168 0.24154 0.0
C222 C 0.99732 0.3656 0.27814 0.0
H223 H 0.05344 0.37234 0.4904 0.0
H224 H 0.03477 0.35722 0.41882 0.0
H225 H 0.04835 0.40108 0.30504 0.0
H226 H 0.96978 0.38979 0.16779 0.0
H227 H 0.99325 0.39495 0.23015 0.0
C228 C 0.58761 0.9554 0.37146 0.0
C229 C 0.59634 0.94565 0.34518 0.0
C230 C 0.59852 0.96798 0.40839 0.0
C231 C 0.64063 0.98138 0.49113 0.0
H232 H 0.63989 0.03402 0.49686 0.0
C233 C 0.65005 0.02664 0.65543 0.0
C234 C 0.65937 0.04872 0.65518 0.0
C235 C 0.64808 0.01557 0.61566 0.0
C236 C 0.64067 0.01963 0.49544 0.0
H237 H 0.62286 0.94037 0.33905 0.0
H238 H 0.64197 0.96231 0.40469 0.0
H239 H 0.62431 0.01069 0.43213 0.0
H240 H 0.675 0.07672 0.61353 0.0
H241 H 0.67134 0.05724 0.54303 0.0
H242 H 0.65653 0.99013 0.55518 0.0
C243 C 0.62666 0.96025 0.39611 0.0
C244 C 0.63146 0.00609 0.45861 0.0
C245 C 0.61566 0.94757 0.35877 0.0
C246 C 0.66781 0.0597 0.61461 0.0
C247 C 0.66557 0.04853 0.57434 0.0
C248 C 0.64976 0.9949 0.52821 0.0
C249 C 0.6185 0.97119 0.42022 0.0
C250 C 0.63073 0.98652 0.45669 0.0
C251 C 0.65519 0.02628 0.57432 0.0
C252 C 0.64934 0.01391 0.53142 0.0
H253 H 0.57263 0.95404 0.3623 0.0
H254 H 0.5915 0.97567 0.42708 0.0
H255 H 0.6404 0.96646 0.49051 0.0
H256 H 0.64351 0.01778 0.68635 0.0
H257 H 0.63981 0.9985 0.617 0.0
C258 C 0.6453 0.61568 0.51752 0.0
C259 C 0.65349 0.60198 0.51391 0.0
C260 C 0.64399 0.62372 0.55939 0.0
C261 C 0.63589 0.60917 0.67762 0.0
H262 H 0.64745 0.66649 0.69598 0.0
C263 C 0.61486 0.63354 0.84609 0.0
C264 C 0.60678 0.64739 0.84469 0.0
C265 C 0.62392 0.63013 0.8078 0.0
C266 C 0.64391 0.65036 0.69136 0.0
H267 H 0.66736 0.58642 0.551 0.0
H268 H 0.66462 0.6002 0.62526 0.0
H269 H 0.65835 0.65712 0.62574 0.0
H270 H 0.6023 0.66891 0.80207 0.0
H271 H 0.61741 0.66238 0.73436 0.0
H272 H 0.62049 0.60196 0.74178 0.0
C273 C 0.65941 0.60482 0.59528 0.0
C274 C 0.65034 0.64506 0.65122 0.0
C275 C 0.66111 0.59706 0.55293 0.0
C276 C 0.60845 0.65819 0.80423 0.0
C277 C 0.61723 0.65449 0.76549 0.0
C278 C 0.62923 0.61439 0.71747 0.0
C279 C 0.65051 0.61798 0.59894 0.0
C280 C 0.64619 0.62434 0.6437 0.0
C281 C 0.62485 0.64017 0.76659 0.0
C282 C 0.63294 0.63501 0.72481 0.0
H283 H 0.63934 0.61974 0.48788 0.0
H284 H 0.63688 0.63361 0.56103 0.0
H285 H 0.63211 0.59299 0.67249 0.0
H286 H 0.61416 0.62522 0.87696 0.0
H287 H 0.63012 0.61949 0.81061 0.0
C288 C 0.05296 0.63291 0.70996 0.0
C289 C 0.05832 0.64997 0.68066 0.0
C290 C 0.04049 0.62985 0.74806 0.0
C291 C 0.01734 0.65407 0.8224 0.0
H292 H 0.97528 0.59541 0.84267 0.0
C293 C 0.97137 0.6233 0.98927 0.0
C294 C 0.95095 0.60568 0.98883 0.0
C295 C 0.98269 0.63114 0.94916 0.0
C296 C 0.98664 0.61191 0.83714 0.0
H297 H 0.0558 0.67787 0.66957 0.0
H298 H 0.03374 0.67247 0.73621 0.0
H299 H 0.99982 0.60472 0.78006 0.0
H300 H 0.92592 0.58284 0.94624 0.0
H301 H 0.94566 0.59667 0.87535 0.0
H302 H 0.00392 0.6612 0.87946 0.0
C303 C 0.03939 0.66155 0.72998 0.0
C304 C 0.00104 0.61724 0.80163 0.0
C305 C 0.05214 0.66475 0.69194 0.0
C306 C 0.94153 0.59664 0.94726 0.0
C307 C 0.95297 0.60442 0.90687 0.0
C308 C 0.00288 0.64872 0.85798 0.0
C309 C 0.03274 0.64358 0.75752 0.0
C310 C 0.01687 0.63833 0.7943 0.0
C311 C 0.97395 0.62138 0.90752 0.0
C312 C 0.98755 0.62752 0.8663 0.0
H313 H 0.05758 0.62131 0.70215 0.0
H314 H 0.03629 0.61624 0.76925 0.0
H315 H 0.02925 0.67046 0.81776 0.0
H316 H 0.97902 0.63034 0.0211 0.0
H317 H 0.99883 0.644 0.95126 0.0
C318 C 0.41879 0.04515 0.86731 0.0
C319 C 0.40982 0.05515 0.84261 0.0
C320 C 0.40887 0.03336 0.90586 0.0
C321 C 0.36908 0.02246 0.99373 0.0
H322 H 0.36824 0.96906 0.00088 0.0
C323 C 0.35885 0.97801 0.15974 0.0
C324 C 0.34852 0.95585 0.1604 0.0
C325 C 0.36146 0.98893 0.11945 0.0
C326 C 0.36795 0.9837 -0.00089 0.0
H327 H 0.38403 0.0617 0.84086 0.0
H328 H 0.3667 0.04115 0.90902 0.0
H329 H 0.3834 0.99155 0.93479 0.0
H330 H 0.33188 0.92765 0.11963 0.0
H331 H 0.3367 0.94688 0.04817 0.0
H332 H 0.35391 0.0147 0.05854 0.0
C333 C 0.38143 0.04243 0.89816 0.0
C334 C 0.37695 0.99678 0.96151 0.0
C335 C 0.39143 0.05432 0.85933 0.0
C336 C 0.33988 0.94473 0.12004 0.0
C337 C 0.34277 0.95575 0.07923 0.0
C338 C 0.36014 0.0094 0.03152 0.0
C339 C 0.38967 0.03118 0.92083 0.0
C340 C 0.37816 0.01657 0.95892 0.0
C341 C 0.35399 0.97802 0.07845 0.0
C342 C 0.35996 0.9901 0.03518 0.0
H343 H 0.43307 0.04565 0.85563 0.0
H344 H 0.416 0.02545 0.9233 0.0
H345 H 0.36968 0.03755 0.99271 0.0
H346 H 0.36554 0.98702 0.19044 0.0
H347 H 0.37038 0.00601 0.12021 0.0
C348 C 0.60742 0.52583 0.41183 0.0
C349 C 0.62718 0.52717 0.41451 0.0
C350 C 0.58891 0.50636 0.41476 0.0
C351 C 0.56736 0.4496 0.44438 0.0
H352 H 0.5206 0.44339 0.37095 0.0
C353 C 0.48851 0.37036 0.41458 0.0
C354 C 0.47062 0.37152 0.42742 0.0
C355 C 0.5083 0.38871 0.41189 0.0
C356 C 0.53355 0.44493 0.39156 0.0
H357 H 0.64322 0.50931 0.42349 0.0
H358 H 0.61081 0.47498 0.42677 0.0
H359 H 0.55399 0.47644 0.3693 0.0
H360 H 0.45926 0.39271 0.44641 0.0
H361 H 0.49362 0.42475 0.44006 0.0
H362 H 0.54669 0.41758 0.46534 0.0
C363 C 0.60953 0.48903 0.42353 0.0
C364 C 0.55266 0.46394 0.39106 0.0
C365 C 0.62813 0.50868 0.42157 0.0
C366 C 0.47276 0.39134 0.43644 0.0
C367 C 0.49239 0.40966 0.43276 0.0
C368 C 0.54828 0.43038 0.44417 0.0
C369 C 0.58965 0.48759 0.41927 0.0
C370 C 0.56972 0.46674 0.4182 0.0
C371 C 0.51036 0.4085 0.42092 0.0
C372 C 0.53113 0.42805 0.41834 0.0
H373 H 0.60622 0.53987 0.40704 0.0
H374 H 0.57399 0.50608 0.413 0.0
H375 H 0.58001 0.45114 0.46599 0.0
H376 H 0.4873 0.35525 0.40773 0.0
H377 H 0.52196 0.38748 0.40252 0.0
C378 C 0.08512 0.47392 0.5871 0.0
C379 C 0.1032 0.47193 0.58565 0.0
C380 C 0.08674 0.49368 0.58405 0.0
C381 C 0.1228 0.5501 0.55512 0.0
H382 H 0.08278 0.5571 0.6286 0.0
C383 C 0.12253 0.62948 0.58029 0.0
C384 C 0.10312 0.62776 0.56845 0.0
C385 C 0.12441 0.61137 0.58375 0.0
C386 C 0.09407 0.55536 0.608 0.0
H387 H 0.13719 0.48897 0.57845 0.0
H388 H 0.14022 0.52387 0.57466 0.0
H389 H 0.08293 0.52396 0.63116 0.0
H390 H 0.07043 0.60584 0.55176 0.0
H391 H 0.07355 0.57433 0.55934 0.0
H392 H 0.13409 0.58195 0.53289 0.0
C393 C 0.12469 0.51005 0.57729 0.0
C394 C 0.09407 0.53631 0.60906 0.0
C395 C 0.12299 0.49009 0.57951 0.0
C396 C 0.08558 0.60767 0.56099 0.0
C397 C 0.08734 0.58963 0.56537 0.0
C398 C 0.12301 0.56937 0.55465 0.0
C399 C 0.10657 0.5121 0.58057 0.0
C400 C 0.10803 0.53318 0.58175 0.0
C401 C 0.10678 0.59131 0.57646 0.0
C402 C 0.10832 0.57195 0.58036 0.0
H403 H 0.06961 0.4602 0.59116 0.0
H404 H 0.07236 0.49447 0.58503 0.0
H405 H 0.13373 0.54827 0.53353 0.0
H406 H 0.13634 0.6448 0.58594 0.0
H407 H 0.13954 0.61301 0.5925 0.0
C408 C 0.49362 0.11805 0.73034 0.0
C409 C 0.47538 0.09867 0.72139 0.0
C410 C 0.51354 0.11971 0.72939 0.0
C411 C 0.54048 0.09064 0.68875 0.0
H412 H 0.58498 0.12851 0.77008 0.0
C413 C 0.61266 0.08311 0.73941 0.0
C414 C 0.63258 0.10124 0.73474 0.0
C415 C 0.59431 0.08414 0.73254 0.0
C416 C 0.57274 0.11807 0.74684 0.0
H417 H 0.46353 0.06567 0.70618 0.0
H418 H 0.4979 0.06819 0.70688 0.0
H419 H 0.55107 0.12743 0.77086 0.0
H420 H 0.64906 0.1346 0.71885 0.0
H421 H 0.61672 0.13655 0.70832 0.0
H422 H 0.56193 0.08051 0.66679 0.0
C423 C 0.49714 0.08241 0.7127 0.0
C424 C 0.5533 0.11745 0.74711 0.0
C425 C 0.47734 0.08087 0.71279 0.0
C426 C 0.63386 0.12038 0.72234 0.0
C427 C 0.61544 0.12153 0.71659 0.0
C428 C 0.55973 0.09097 0.68919 0.0
C429 C 0.5156 0.10192 0.72023 0.0
C430 C 0.53677 0.10351 0.71846 0.0
C431 C 0.59553 0.10341 0.72193 0.0
C432 C 0.57594 0.10454 0.7185 0.0
H433 H 0.49256 0.13207 0.73676 0.0
H434 H 0.52732 0.13506 0.73484 0.0
H435 H 0.52846 0.08015 0.66521 0.0
H436 H 0.61124 0.06815 0.74889 0.0
H437 H 0.57913 0.06999 0.73704 0.0
C438 C 0.51982 0.62632 0.87657 0.0
C439 C 0.52994 0.63117 0.91887 0.0
C440 C 0.50046 0.60766 0.87078 0.0
C441 C 0.4523 0.57122 0.92294 0.0
H442 H 0.45235 0.52461 0.86077 0.0
C443 C 0.38083 0.48657 0.93305 0.0
C444 C 0.37652 0.47317 0.89575 0.0
C445 C 0.39925 0.50634 0.93422 0.0
C446 C 0.45181 0.5375 0.87743 0.0
H447 H 0.52759 0.62076 0.98844 0.0
H448 H 0.49351 0.58864 0.97851 0.0
H449 H 0.48448 0.55897 0.86303 0.0
H450 H 0.38776 0.47003 0.83001 0.0
H451 H 0.41916 0.50468 0.83088 0.0
H452 H 0.41965 0.55021 0.93667 0.0
C453 C 0.50071 0.59906 0.94987 0.0
C454 C 0.4703 0.55715 0.87879 0.0
C455 C 0.5202 0.61735 0.95539 0.0
C456 C 0.39081 0.47994 0.85951 0.0
C457 C 0.40894 0.49983 0.86019 0.0
C458 C 0.43367 0.5517 0.92082 0.0
C459 C 0.49079 0.594 0.90752 0.0
C460 C 0.47071 0.57403 0.90197 0.0
C461 C 0.41354 0.51332 0.89765 0.0
C462 C 0.4332 0.53444 0.89855 0.0
H463 H 0.52705 0.6367 0.8479 0.0
H464 H 0.493 0.60391 0.83779 0.0
H465 H 0.45239 0.58411 0.94114 0.0
H466 H 0.37009 0.48168 0.96152 0.0
H467 H 0.40235 0.516 0.96412 0.0
C468 C 0.87544 0.36992 0.08415 0.0
C469 C 0.89373 0.36939 0.09606 0.0
C470 C 0.87525 0.38896 0.08562 0.0
C471 C 0.91296 0.4465 0.08181 0.0
H472 H 0.8641 0.45155 0.1119 0.0
C473 C 0.9182 0.52672 0.10921 0.0
C474 C 0.9022 0.5298 0.09101 0.0
C475 C 0.91645 0.50684 0.10825 0.0
C476 C 0.87779 0.45031 0.10291 0.0
H477 H 0.92564 0.38771 0.12118 0.0
H478 H 0.92512 0.42069 0.12589 0.0
H479 H 0.86196 0.41716 0.11729 0.0
H480 H 0.8719 0.51449 0.05699 0.0
H481 H 0.86881 0.47954 0.0553 0.0
H482 H 0.92887 0.47962 0.06808 0.0
C483 C 0.91113 0.40672 0.1139 0.0
C484 C 0.87658 0.43062 0.10605 0.0
C485 C 0.91139 0.3878 0.11173 0.0
C486 C 0.88451 0.5126 0.07114 0.0
C487 C 0.88267 0.49258 0.07051 0.0
C488 C 0.91419 0.46612 0.079 0.0
C489 C 0.89333 0.40774 0.09933 0.0
C490 C 0.89424 0.42852 0.09594 0.0
C491 C 0.8986 0.4895 0.08927 0.0
C492 C 0.8967 0.46831 0.08985 0.0
H493 H 0.86176 0.35588 0.07127 0.0
H494 H 0.86132 0.38914 0.07386 0.0
H495 H 0.9267 0.44544 0.07244 0.0
H496 H 0.93201 0.53963 0.12491 0.0
H497 H 0.92889 0.50494 0.12343 0.0
C498 C 0.37102 0.88346 0.23997 0.0
C499 C 0.37242 0.90253 0.25339 0.0
C500 C 0.38896 0.88124 0.24042 0.0
C501 C 0.44329 0.90668 0.28959 0.0
H502 H 0.45198 0.87258 0.20127 0.0
C503 C 0.52379 0.91584 0.24316 0.0
C504 C 0.52569 0.8977 0.24585 0.0
C505 C 0.50422 0.91446 0.24871 0.0
C506 C 0.44956 0.88191 0.22647 0.0
H507 H 0.39373 0.93455 0.27534 0.0
H508 H 0.42509 0.93115 0.2738 0.0
H509 H 0.41962 0.87459 0.19877 0.0
H510 H 0.5087 0.86389 0.2566 0.0
H511 H 0.47401 0.86137 0.26471 0.0
H512 H 0.47384 0.9149 0.31542 0.0
C513 C 0.41011 0.91752 0.26491 0.0
C514 C 0.43103 0.88307 0.22516 0.0
C515 C 0.39216 0.91959 0.26529 0.0
C516 C 0.50764 0.87812 0.25472 0.0
C517 C 0.48787 0.87666 0.25909 0.0
C518 C 0.46192 0.90582 0.29029 0.0
C519 C 0.40872 0.89817 0.2536 0.0
C520 C 0.4278 0.89578 0.25627 0.0
C521 C 0.48605 0.89485 0.25596 0.0
C522 C 0.46531 0.89364 0.25844 0.0
H523 H 0.35592 0.87 0.23097 0.0
H524 H 0.38717 0.86605 0.23181 0.0
H525 H 0.44116 0.9161 0.31504 0.0
H526 H 0.53741 0.93113 0.23636 0.0
H527 H 0.50315 0.92867 0.24595 0.0
C528 C 0.31877 0.3503 0.81593 0.0
C529 C 0.31962 0.36879 0.80036 0.0
C530 C 0.31299 0.33332 0.78649 0.0
C531 C 0.29769 0.31626 0.66567 0.0
H532 H 0.34478 0.30614 0.67348 0.0
C533 C 0.35417 0.33144 0.52517 0.0
C534 C 0.36593 0.32111 0.52258 0.0
C535 C 0.33807 0.32519 0.55686 0.0
C536 C 0.33105 0.30805 0.671 0.0
H537 H 0.31384 0.38391 0.7438 0.0
H538 H 0.30441 0.35476 0.69179 0.0
H539 H 0.33425 0.31782 0.73972 0.0
H540 H 0.36898 0.295 0.54808 0.0
H541 H 0.34106 0.28438 0.60497 0.0
H542 H 0.29612 0.3085 0.59535 0.0
C543 C 0.30753 0.35279 0.72673 0.0
C544 C 0.32494 0.31481 0.70925 0.0
C545 C 0.31309 0.36963 0.75633 0.0
C546 C 0.36016 0.30326 0.54964 0.0
C547 C 0.34421 0.29719 0.58207 0.0
C548 C 0.30392 0.30964 0.62725 0.0
C549 C 0.30846 0.33485 0.74081 0.0
C550 C 0.30923 0.32049 0.70618 0.0
C551 C 0.33361 0.30867 0.58717 0.0
C552 C 0.32165 0.30698 0.62892 0.0
H553 H 0.32381 0.34948 0.84998 0.0
H554 H 0.31351 0.31963 0.79868 0.0
H555 H 0.28507 0.31986 0.66253 0.0
H556 H 0.35816 0.34509 0.50423 0.0
H557 H 0.33043 0.33455 0.56015 0.0
C558 C 0.93904 0.3275 0.91303 0.0
C559 C 0.94146 0.32461 0.959 0.0
C560 C 0.94956 0.32246 0.88045 0.0
C561 C 0.99951 0.32791 0.86498 0.0
H562 H 0.97681 0.30373 0.7474 0.0
C563 C 0.05101 0.36143 0.70871 0.0
C564 C 0.04102 0.36831 0.67807 0.0
C565 C 0.03913 0.34625 0.74151 0.0
C566 C 0.98347 0.31033 0.78017 0.0
H567 H 0.95604 0.31368 0.00753 0.0
H568 H 0.97548 0.30577 0.95013 0.0
H569 H 0.95318 0.29442 0.81234 0.0
H570 H 0.01079 0.36323 0.65441 0.0
H571 H 0.99025 0.33717 0.71107 0.0
H572 H 0.02934 0.3457 0.83225 0.0
C573 C 0.96492 0.3113 0.93941 0.0
C574 C 0.96995 0.30489 0.8173 0.0
C575 C 0.95386 0.3158 0.97205 0.0
C576 C 0.01893 0.35841 0.67801 0.0
C577 C 0.00711 0.34322 0.71029 0.0
C578 C 0.013 0.33361 0.82771 0.0
C579 C 0.96314 0.31499 0.89341 0.0
C580 C 0.9777 0.31461 0.85934 0.0
C581 C 0.0171 0.33759 0.7437 0.0
C582 C 0.00484 0.32595 0.78432 0.0
H583 H 0.92959 0.33437 0.90245 0.0
H584 H 0.94821 0.3258 0.84527 0.0
H585 H 0.00584 0.33569 0.89708 0.0
H586 H 0.06805 0.36878 0.70934 0.0
H587 H 0.04727 0.34211 0.76655 0.0
C588 C 0.63906 0.97753 0.13967 0.0
C589 C 0.62832 0.95544 0.14269 0.0
C590 C 0.655 0.98792 0.10785 0.0
C591 C 0.66367 0.9786 0.99426 0.0
H592 H 0.70963 0.03632 0.00372 0.0
C593 C 0.68055 0.03243 0.84479 0.0
C594 C 0.68062 0.05092 0.8573 0.0
C595 C 0.68468 0.02098 0.87698 0.0
C596 C 0.69697 0.02015 0.00037 0.0
H597 H 0.62689 0.92693 0.11749 0.0
H598 H 0.6545 0.94517 0.06045 0.0
H599 H 0.69733 0.01417 0.07126 0.0
H600 H 0.68625 0.07293 0.91147 0.0
H601 H 0.69255 0.05265 0.9684 0.0
H602 H 0.66164 0.98492 0.9248 0.0
C603 C 0.65066 0.9544 0.08313 0.0
C604 C 0.69005 0.00745 0.03898 0.0
C605 C 0.63488 0.94399 0.11563 0.0
C606 C 0.68628 0.05871 0.90134 0.0
C607 C 0.69005 0.04711 0.93377 0.0
C608 C 0.67041 0.99133 0.95583 0.0
C609 C 0.66033 0.9764 0.07792 0.0
C610 C 0.67248 0.98699 0.03668 0.0
C611 C 0.68834 0.02759 0.92245 0.0
C612 C 0.68624 0.01267 0.959 0.0
H613 H 0.6345 0.98675 0.16059 0.0
H614 H 0.66194 0.00484 0.10436 0.0
H615 H 0.65003 0.96293 0.99141 0.0
H616 H 0.67624 0.02628 0.81071 0.0
H617 H 0.68367 0.00628 0.86684 0.0
C618 C 0.62081 0.6819 0.09379 0.0
C619 C 0.62516 0.68345 0.04741 0.0
C620 C 0.63688 0.68702 0.12518 0.0
C621 C 0.67965 0.67822 0.1358 0.0
H622 H 0.6822 0.70044 0.25609 0.0
C623 C 0.69179 0.63766 0.28749 0.0
C624 C 0.67437 0.63098 0.31641 0.0
C625 C 0.69693 0.65415 0.25677 0.0
C626 C 0.68203 0.69443 0.22252 0.0
H627 H 0.64957 0.69242 0.99686 0.0
H628 H 0.67777 0.70057 0.05214 0.0
H629 H 0.6696 0.7127 0.19294 0.0
H630 H 0.65008 0.63748 0.33942 0.0
H631 H 0.65883 0.66587 0.28652 0.0
H632 H 0.68962 0.65813 0.16591 0.0
C633 C 0.66207 0.696 0.06414 0.0
C634 C 0.67492 0.70153 0.1864 0.0
C635 C 0.64601 0.69138 0.03266 0.0
C636 C 0.66341 0.64215 0.31702 0.0
C637 C 0.66867 0.65868 0.287 0.0
C638 C 0.6865 0.67091 0.17202 0.0
C639 C 0.65746 0.69322 0.11062 0.0
C640 C 0.67232 0.69242 0.14341 0.0
C641 C 0.68492 0.66434 0.25521 0.0
C642 C 0.68622 0.6778 0.21629 0.0
H643 H 0.60477 0.67566 0.10568 0.0
H644 H 0.63278 0.68439 0.16073 0.0
H645 H 0.67777 0.6709 0.10297 0.0
H646 H 0.70052 0.6293 0.28658 0.0
H647 H 0.70958 0.65822 0.23281 0.0
C648 C 0.02259 0.6688 0.49572 0.0
C649 C 0.04325 0.67426 0.48403 0.0
C650 C 0.01045 0.6734 0.46641 0.0
C651 C 0.01135 0.69548 0.35004 0.0
H652 H 0.95674 0.64455 0.34312 0.0
C653 C 0.97596 0.64556 0.19496 0.0
C654 C 0.95399 0.63335 0.18995 0.0
C655 C 0.98465 0.66009 0.23016 0.0
C656 C 0.97163 0.65924 0.3449 0.0
H657 H 0.06813 0.68999 0.43474 0.0
H658 H 0.04669 0.6966 0.38184 0.0
H659 H 0.97684 0.65254 0.4119 0.0
H660 H 0.92387 0.62808 0.21479 0.0
H661 H 0.93913 0.65308 0.27771 0.0
H662 H 0.00672 0.7005 0.28044 0.0
C663 C 0.03982 0.68961 0.41416 0.0
C664 C 0.98331 0.66394 0.38472 0.0
C665 C 0.05217 0.68567 0.44429 0.0
C666 C 0.94088 0.63729 0.2181 0.0
C667 C 0.94959 0.65158 0.25398 0.0
C668 C 0.99978 0.69049 0.30975 0.0
C669 C 0.01844 0.68264 0.42386 0.0
C670 C 0.00389 0.68146 0.38704 0.0
C671 C 0.9715 0.66236 0.2615 0.0
C672 C 0.98032 0.6717 0.30621 0.0
H673 H 0.01557 0.66024 0.52672 0.0
H674 H 0.99438 0.66852 0.47605 0.0
H675 H 0.02676 0.70954 0.35097 0.0
H676 H 0.98639 0.64296 0.1733 0.0
H677 H 0.00157 0.66802 0.2353 0.0
C678 C 0.33008 0.9745 0.36765 0.0
C679 C 0.32061 0.95264 0.36123 0.0
C680 C 0.32347 0.98255 0.40271 0.0
C681 C 0.30972 0.96844 0.51609 0.0
H682 H 0.31306 0.02293 0.52208 0.0
C683 C 0.3514 0.0198 0.66515 0.0
C684 C 0.36648 0.04034 0.6524 0.0
C685 C 0.33419 0.00754 0.63706 0.0
C686 C 0.31209 0.00768 0.52121 0.0
H687 H 0.29569 0.92205 0.3836 0.0
H688 H 0.28467 0.93618 0.44657 0.0
H689 H 0.30294 0.00308 0.4513 0.0
H690 H 0.37487 0.06496 0.60278 0.0
H691 H 0.34598 0.04334 0.55198 0.0
H692 H 0.32127 0.97372 0.58337 0.0
C693 C 0.29691 0.94705 0.42388 0.0
C694 C 0.30601 0.99622 0.48077 0.0
C695 C 0.30325 0.93899 0.38803 0.0
C696 C 0.36332 0.0491 0.61315 0.0
C697 C 0.34655 0.03663 0.58421 0.0
C698 C 0.31624 0.98004 0.55607 0.0
C699 C 0.30757 0.96886 0.43257 0.0
C700 C 0.30601 0.97708 0.47722 0.0
C701 C 0.33235 0.01528 0.59463 0.0
C702 C 0.31887 0.00047 0.5583 0.0
H703 H 0.34337 0.98534 0.34705 0.0
H704 H 0.33215 0.99941 0.40888 0.0
H705 H 0.30997 0.95377 0.51431 0.0
H706 H 0.35347 0.0129 0.6958 0.0
H707 H 0.32317 0.99152 0.6473 0.0
C708 C 0.40624 0.25602 0.46499 0.0
C709 C 0.4114 0.27397 0.49124 0.0
C710 C 0.40494 0.23801 0.48503 0.0
C711 C 0.39631 0.2101 0.59322 0.0
H712 H 0.43026 0.18814 0.54236 0.0
C713 C 0.4105 0.14897 0.68921 0.0
C714 C 0.41364 0.1346 0.66367 0.0
C715 C 0.4088 0.16518 0.66773 0.0
C716 C 0.42029 0.19369 0.55669 0.0
H717 H 0.41852 0.28688 0.5592 0.0
H718 H 0.41574 0.25538 0.5941 0.0
H719 H 0.42885 0.21696 0.50457 0.0
H720 H 0.41644 0.12528 0.59561 0.0
H721 H 0.41248 0.15262 0.55823 0.0
H722 H 0.38733 0.18665 0.64484 0.0
C723 C 0.41291 0.25526 0.55809 0.0
C724 C 0.41959 0.21032 0.53497 0.0
C725 C 0.41464 0.27334 0.53799 0.0
C726 C 0.41434 0.13631 0.6163 0.0
C727 C 0.41223 0.15217 0.59483 0.0
C728 C 0.39669 0.1932 0.61458 0.0
C729 C 0.40828 0.23748 0.53181 0.0
C730 C 0.40776 0.21884 0.55321 0.0
C731 C 0.40982 0.16712 0.62014 0.0
C732 C 0.40884 0.18482 0.59687 0.0
H733 H 0.40368 0.25606 0.42891 0.0
H734 H 0.40128 0.22447 0.46402 0.0
H735 H 0.38694 0.2163 0.60788 0.0
H736 H 0.40997 0.14807 0.72581 0.0
H737 H 0.40723 0.17647 0.68861 0.0
C738 C 0.27823 0.42867 0.81051 0.0
C739 C 0.27722 0.41645 0.84817 0.0
C740 C 0.2599 0.42618 0.79029 0.0
C741 C 0.20313 0.40619 0.80793 0.0
H742 H 0.203 0.40888 0.67684 0.0
C743 C 0.14452 0.39889 0.64854 0.0
C744 C 0.13612 0.41091 0.66657 0.0
C745 C 0.16022 0.39706 0.67193 0.0
C746 C 0.20258 0.4078 0.7134 0.0
H747 H 0.25602 0.39236 0.89492 0.0
H748 H 0.22368 0.38793 0.8593 0.0
H749 H 0.23285 0.41006 0.71581 0.0
H750 H 0.1375 0.43022 0.72361 0.0
H751 H 0.16495 0.42734 0.76377 0.0
H752 H 0.17274 0.40382 0.80538 0.0
C753 C 0.23882 0.39951 0.8456 0.0
C754 C 0.21986 0.40875 0.73585 0.0
C755 C 0.25732 0.40203 0.86601 0.0
C756 C 0.14358 0.42081 0.70871 0.0
C757 C 0.15924 0.419 0.73201 0.0
C758 C 0.1858 0.40524 0.78543 0.0
C759 C 0.23993 0.41133 0.80695 0.0
C760 C 0.22058 0.40838 0.78343 0.0
C761 C 0.16789 0.40721 0.71389 0.0
C762 C 0.18545 0.40638 0.73786 0.0
H763 H 0.29327 0.44009 0.79606 0.0
H764 H 0.26143 0.43595 0.7614 0.0
H765 H 0.20316 0.4059 0.84456 0.0
H766 H 0.13905 0.39099 0.61626 0.0
H767 H 0.16634 0.38766 0.65715 0.0
C768 C 0.8601 0.25466 0.02464 0.0
C769 C 0.85741 0.27222 0.03084 0.0
C770 C 0.84466 0.2367 0.00176 0.0
C771 C 0.78884 0.20746 0.97261 0.0
H772 H 0.80453 0.19291 0.85856 0.0
C773 C 0.72517 0.15607 0.84428 0.0
C774 C 0.72768 0.14163 0.81753 0.0
C775 C 0.74178 0.17096 0.87065 0.0
C776 C 0.79986 0.19643 0.89067 0.0
H777 H 0.83633 0.28455 0.01983 0.0
H778 H 0.80904 0.25294 0.98208 0.0
H779 H 0.83183 0.21947 0.90771 0.0
H780 H 0.74974 0.13172 0.79665 0.0
H781 H 0.77879 0.15741 0.84396 0.0
H782 H 0.75707 0.18445 0.95667 0.0
C783 C 0.82313 0.25311 0.99408 0.0
C784 C 0.81554 0.21167 0.91878 0.0
C785 C 0.83872 0.27117 0.0157 0.0
C786 C 0.74743 0.14279 0.8167 0.0
C787 C 0.76406 0.15753 0.84388 0.0
C788 C 0.77325 0.19202 0.94506 0.0
C789 C 0.82611 0.23588 0.98601 0.0
C790 C 0.81009 0.21766 0.95948 0.0
C791 C 0.76132 0.17158 0.87194 0.0
C792 C 0.77841 0.18668 0.903 0.0
H793 H 0.87452 0.25522 0.03545 0.0
H794 H 0.84729 0.22357 0.99593 0.0
H795 H 0.78426 0.21169 0.00402 0.0
H796 H 0.71019 0.15572 0.84527 0.0
H797 H 0.73915 0.18191 0.89034 0.0
C798 C 0.60334 0.86051 0.17218 0.0
C799 C 0.58496 0.86192 0.16801 0.0
C800 C 0.60594 0.84592 0.14603 0.0
C801 C 0.58337 0.81168 0.04305 0.0
H802 H 0.61287 0.78376 0.08836 0.0
C803 C 0.57091 0.73167 0.97987 0.0
C804 C 0.58888 0.73069 0.96712 0.0
C805 C 0.57287 0.74992 -0.00049 0.0
C806 C 0.60485 0.79169 0.07511 0.0
H807 H 0.55448 0.84851 0.13513 0.0
H808 H 0.55838 0.82255 0.09184 0.0
H809 H 0.6111 0.81052 0.13478 0.0
H810 H 0.62301 0.74796 0.9647 0.0
H811 H 0.62651 0.77994 0.00081 0.0
H812 H 0.57607 0.79182 0.98464 0.0
C813 C 0.57133 0.83321 0.11336 0.0
C814 C 0.60384 0.80706 0.10163 0.0
C815 C 0.56895 0.84798 0.13868 0.0
C816 C 0.60892 0.74849 0.97358 0.0
C817 C 0.61092 0.76663 0.99454 0.0
C818 C 0.58404 0.79606 0.01708 0.0
C819 C 0.59005 0.83223 0.1157 0.0
C820 C 0.59271 0.81701 0.08636 0.0
C821 C 0.59287 0.76738 0.00805 0.0
C822 C 0.59453 0.78573 0.03308 0.0
H823 H 0.61601 0.87118 0.19432 0.0
H824 H 0.62063 0.8458 0.14873 0.0
H825 H 0.57525 0.81938 0.02922 0.0
H826 H 0.5553 0.71807 0.9756 0.0
H827 H 0.55873 0.75006 0.00983 0.0
C828 C 0.7436 0.5988 0.35799 0.0
C829 C 0.72329 0.5856 0.34043 0.0
C830 C 0.76146 0.60086 0.33559 0.0
C831 C 0.77902 0.59154 0.22362 0.0
H832 H 0.82462 0.59295 0.29317 0.0
C833 C 0.8533 0.57581 0.19793 0.0
C834 C 0.86203 0.58657 0.15716 0.0
C835 C 0.83736 0.57758 0.21987 0.0
C836 C 0.81198 0.59248 0.27316 0.0
H837 H 0.70584 0.56407 0.28578 0.0
H838 H 0.73667 0.56733 0.24754 0.0
H839 H 0.79497 0.59223 0.33231 0.0
H840 H 0.86075 0.60766 0.10744 0.0
H841 H 0.83285 0.61089 0.14601 0.0
H842 H 0.79565 0.59097 0.1645 0.0
C843 C 0.739 0.57649 0.27797 0.0
C844 C 0.79508 0.59234 0.29568 0.0
C845 C 0.72124 0.57447 0.3002 0.0
C846 C 0.85431 0.5991 0.13869 0.0
C847 C 0.83828 0.6009 0.16077 0.0
C848 C 0.79591 0.59164 0.2011 0.0
C849 C 0.75938 0.58976 0.29516 0.0
C850 C 0.77819 0.59153 0.27124 0.0
C851 C 0.82966 0.59021 0.20181 0.0
C852 C 0.81246 0.59177 0.22557 0.0
H853 H 0.74572 0.60765 0.38881 0.0
H854 H 0.7769 0.61137 0.34967 0.0
H855 H 0.7665 0.59128 0.20359 0.0
H856 H 0.85878 0.56594 0.21312 0.0
H857 H 0.83086 0.56876 0.25081 0.0
C858 C 0.14529 0.74382 0.51827 0.0
C859 C 0.13756 0.72371 0.49907 0.0
C860 C 0.16075 0.76185 0.49579 0.0
C861 C 0.18588 0.78074 0.38251 0.0
H862 H 0.23221 0.82393 0.45217 0.0
C863 C 0.27707 0.85202 0.35572 0.0
C864 C 0.27528 0.8623 0.31718 0.0
C865 C 0.25916 0.83616 0.37714 0.0
C866 C 0.21942 0.81198 0.43213 0.0
H867 H 0.14003 0.70682 0.4412 0.0
H868 H 0.16702 0.73795 0.40278 0.0
H869 H 0.20314 0.79439 0.49107 0.0
H870 H 0.25316 0.86373 0.27059 0.0
H871 H 0.22163 0.83586 0.30829 0.0
H872 H 0.20263 0.79793 0.32345 0.0
C873 C 0.16096 0.73999 0.43465 0.0
C874 C 0.20259 0.79515 0.45455 0.0
C875 C 0.14556 0.72206 0.45698 0.0
C876 C 0.25506 0.85607 0.30012 0.0
C877 C 0.23702 0.84009 0.32171 0.0
C878 C 0.20275 0.79757 0.36007 0.0
C879 C 0.16879 0.76015 0.45364 0.0
C880 C 0.18576 0.77909 0.43002 0.0
C881 C 0.23888 0.83009 0.36081 0.0
C882 C 0.21995 0.81319 0.38456 0.0
H883 H 0.13938 0.74564 0.55055 0.0
H884 H 0.16628 0.77714 0.51129 0.0
H885 H 0.17302 0.76885 0.36251 0.0
H886 H 0.29238 0.85629 0.3697 0.0
H887 H 0.26128 0.8285 0.40643 0.0
loop_
_geom_bond_atom_site_label_1
_geom_bond_atom_site_label_2
_geom_bond_distance
_geom_bond_site_symmetry_2
_ccdc_geom_bond_type
Co0 O1 2.216 . S
Co0 O2 2.091 . S
Co0 O4 2.004 . S
Co0 O10 2.021 . S
Co0 O12 2.137 . S
Co0 O13 2.244 . S
O1 Co0 2.216 . S
O1 C8 1.247 . S
O2 Co0 2.091 . S
O2 C8 1.261 . S
C3 O12 1.247 . S
C3 O13 1.272 . S
O4 Co0 2.004 . S
O4 C9 1.259 . S
Co5 O6 2.061 . S
Co5 O11 2.052 . S
Co5 O13 2.135 . S
O6 Co5 2.061 . S
O6 C9 1.235 . S
C7 O10 1.238 . S
C7 O11 1.241 . S
C8 O1 1.247 . S
C8 O2 1.261 . S
C9 O4 1.259 . S
C9 O6 1.235 . S
O10 Co0 2.021 . S
O10 C7 1.238 . S
O11 Co5 2.052 . S
O11 C7 1.241 . S
O12 Co0 2.137 . S
O12 C3 1.247 . S
O13 Co0 2.244 . S
O13 C3 1.272 . S
O13 Co5 2.135 . S
Co14 O15 2.216 . S
Co14 O16 2.091 . S
Co14 O18 2.004 . S
Co14 O24 2.021 . S
Co14 O26 2.137 . S
Co14 O27 2.244 . S
O15 Co14 2.216 . S
O15 C22 1.247 . S
O16 Co14 2.091 . S
O16 C22 1.261 . S
C17 O26 1.247 . S
C17 O27 1.272 . S
O18 Co14 2.004 . S
O18 C23 1.259 . S
Co19 O20 2.061 . S
Co19 O25 2.052 . S
Co19 O27 2.135 . S
O20 Co19 2.061 . S
O20 C23 1.235 . S
C21 O24 1.238 . S
C21 O25 1.241 . S
C22 O15 1.247 . S
C22 O16 1.261 . S
C23 O18 1.259 . S
C23 O20 1.235 . S
O24 Co14 2.021 . S
O24 C21 1.238 . S
O25 Co19 2.052 . S
O25 C21 1.241 . S
O26 Co14 2.137 . S
O26 C17 1.247 . S
O27 Co14 2.244 . S
O27 C17 1.272 . S
O27 Co19 2.135 . S
Co28 O29 2.216 . S
Co28 O30 2.091 . S
Co28 O32 2.004 . S
Co28 O38 2.021 . S
Co28 O40 2.137 . S
Co28 O41 2.244 . S
O29 Co28 2.216 . S
O29 C36 1.247 . S
O30 Co28 2.091 . S
O30 C36 1.261 . S
C31 O40 1.247 . S
C31 O41 1.272 . S
O32 Co28 2.004 . S
O32 C37 1.259 . S
Co33 O34 2.061 . S
Co33 O39 2.052 . S
Co33 O41 2.135 . S
O34 Co33 2.061 . S
O34 C37 1.235 . S
C35 O38 1.238 . S
C35 O39 1.241 . S
C36 O29 1.247 . S
C36 O30 1.261 . S
C37 O32 1.259 . S
C37 O34 1.235 . S
O38 Co28 2.021 . S
O38 C35 1.238 . S
O39 Co33 2.052 . S
O39 C35 1.241 . S
O40 Co28 2.137 . S
O40 C31 1.247 . S
O41 Co28 2.244 . S
O41 C31 1.272 . S
O41 Co33 2.135 . S
Co42 O43 2.216 . S
Co42 O44 2.091 . S
Co42 O46 2.004 . S
Co42 O52 2.021 . S
Co42 O54 2.137 . S
Co42 O55 2.244 . S
O43 Co42 2.216 . S
O43 C50 1.247 . S
O44 Co42 2.091 . S
O44 C50 1.261 . S
C45 O54 1.247 . S
C45 O55 1.272 . S
O46 Co42 2.004 . S
O46 C51 1.259 . S
Co47 O48 2.061 . S
Co47 O53 2.052 . S
Co47 O55 2.135 . S
O48 Co47 2.061 . S
O48 C51 1.235 . S
C49 O52 1.238 . S
C49 O53 1.241 . S
C50 O43 1.247 . S
C50 O44 1.261 . S
C51 O46 1.259 . S
C51 O48 1.235 . S
O52 Co42 2.021 . S
O52 C49 1.238 . S
O53 Co47 2.052 . S
O53 C49 1.241 . S
O54 Co42 2.137 . S
O54 C45 1.247 . S
O55 Co42 2.244 . S
O55 C45 1.272 . S
O55 Co47 2.135 . S
Co56 O57 2.216 . S
Co56 O58 2.091 . S
Co56 O60 2.004 . S
Co56 O66 2.021 . S
Co56 O68 2.137 . S
Co56 O69 2.244 . S
O57 Co56 2.216 . S
O57 C64 1.247 . S
O58 Co56 2.091 . S
O58 C64 1.261 . S
C59 O68 1.247 . S
C59 O69 1.272 . S
O60 Co56 2.004 . S
O60 C65 1.259 . S
Co61 O62 2.061 . S
Co61 O67 2.052 . S
Co61 O69 2.135 . S
O62 Co61 2.061 . S
O62 C65 1.235 . S
C63 O66 1.238 . S
C63 O67 1.241 . S
C64 O57 1.247 . S
C64 O58 1.261 . S
C65 O60 1.259 . S
C65 O62 1.235 . S
O66 Co56 2.021 . S
O66 C63 1.238 . S
O67 Co61 2.052 . S
O67 C63 1.241 . S
O68 Co56 2.137 . S
O68 C59 1.247 . S
O69 Co56 2.244 . S
O69 C59 1.272 . S
O69 Co61 2.135 . S
Co70 O71 2.216 . S
Co70 O72 2.091 . S
Co70 O74 2.004 . S
Co70 O80 2.021 . S
Co70 O82 2.137 . S
Co70 O83 2.244 . S
O71 Co70 2.216 . S
O71 C78 1.247 . S
O72 Co70 2.091 . S
O72 C78 1.261 . S
C73 O82 1.247 . S
C73 O83 1.272 . S
O74 Co70 2.004 . S
O74 C79 1.259 . S
Co75 O76 2.061 . S
Co75 O81 2.052 . S
Co75 O83 2.135 . S
O76 Co75 2.061 . S
O76 C79 1.235 . S
C77 O80 1.238 . S
C77 O81 1.241 . S
C78 O71 1.247 . S
C78 O72 1.261 . S
C79 O74 1.259 . S
C79 O76 1.235 . S
O80 Co70 2.021 . S
O80 C77 1.238 . S
O81 Co75 2.052 . S
O81 C77 1.241 . S
O82 Co70 2.137 . S
O82 C73 1.247 . S
O83 Co70 2.244 . S
O83 C73 1.272 . S
O83 Co75 2.135 . S
Co84 O85 2.216 . S
Co84 O86 2.091 . S
Co84 O88 2.004 . S
Co84 O94 2.021 . S
Co84 O96 2.137 . S
Co84 O97 2.244 . S
O85 Co84 2.216 . S
O85 C92 1.247 . S
O86 Co84 2.091 . S
O86 C92 1.261 . S
C87 O96 1.247 . S
C87 O97 1.272 . S
O88 Co84 2.004 . S
O88 C93 1.259 . S
Co89 O90 2.061 . S
Co89 O95 2.052 . S
Co89 O97 2.135 . S
O90 Co89 2.061 . S
O90 C93 1.235 . S
C91 O94 1.238 . S
C91 O95 1.241 . S
C92 O85 1.247 . S
C92 O86 1.261 . S
C93 O88 1.259 . S
C93 O90 1.235 . S
O94 Co84 2.021 . S
O94 C91 1.238 . S
O95 Co89 2.052 . S
O95 C91 1.241 . S
O96 Co84 2.137 . S
O96 C87 1.247 . S
O97 Co84 2.244 . S
O97 C87 1.272 . S
O97 Co89 2.135 . S
Co98 O99 2.216 . S
Co98 O100 2.091 . S
Co98 O102 2.004 . S
Co98 O108 2.021 . S
Co98 O110 2.137 . S
Co98 O111 2.244 . S
O99 Co98 2.216 . S
O99 C106 1.247 . S
O100 Co98 2.091 . S
O100 C106 1.261 . S
C101 O110 1.247 . S
C101 O111 1.272 . S
O102 Co98 2.004 . S
O102 C107 1.259 . S
Co103 O104 2.061 . S
Co103 O109 2.052 . S
Co103 O111 2.135 . S
O104 Co103 2.061 . S
O104 C107 1.235 . S
C105 O108 1.238 . S
C105 O109 1.241 . S
C106 O99 1.247 . S
C106 O100 1.261 . S
C107 O102 1.259 . S
C107 O104 1.235 . S
O108 Co98 2.021 . S
O108 C105 1.238 . S
O109 Co103 2.052 . S
O109 C105 1.241 . S
O110 Co98 2.137 . S
O110 C101 1.247 . S
O111 Co98 2.244 . S
O111 C101 1.272 . S
O111 Co103 2.135 . S
Co112 O113 2.216 . S
Co112 O114 2.091 . S
Co112 O116 2.004 . S
Co112 O122 2.021 . S
Co112 O124 2.137 . S
Co112 O125 2.244 . S
O113 Co112 2.216 . S
O113 C120 1.247 . S
O114 Co112 2.091 . S
O114 C120 1.261 . S
C115 O124 1.247 . S
C115 O125 1.272 . S
O116 Co112 2.004 . S
O116 C121 1.259 . S
Co117 O118 2.061 . S
Co117 O123 2.052 . S
Co117 O125 2.135 . S
O118 Co117 2.061 . S
O118 C121 1.235 . S
C119 O122 1.238 . S
C119 O123 1.241 . S
C120 O113 1.247 . S
C120 O114 1.261 . S
C121 O116 1.259 . S
C121 O118 1.235 . S
O122 Co112 2.021 . S
O122 C119 1.238 . S
O123 Co117 2.052 . S
O123 C119 1.241 . S
O124 Co112 2.137 . S
O124 C115 1.247 . S
O125 Co112 2.244 . S
O125 C115 1.272 . S
O125 Co117 2.135 . S
Co126 O127 2.216 . S
Co126 O128 2.091 . S
Co126 O130 2.004 . S
Co126 O136 2.021 . S
Co126 O138 2.137 . S
Co126 O139 2.244 . S
O127 Co126 2.216 . S
O127 C134 1.247 . S
O128 Co126 2.091 . S
O128 C134 1.261 . S
C129 O138 1.247 . S
C129 O139 1.272 . S
O130 Co126 2.004 . S
O130 C135 1.259 . S
Co131 O132 2.061 . S
Co131 O137 2.052 . S
Co131 O139 2.135 . S
O132 Co131 2.061 . S
O132 C135 1.235 . S
C133 O136 1.238 . S
C133 O137 1.241 . S
C134 O127 1.247 . S
C134 O128 1.261 . S
C135 O130 1.259 . S
C135 O132 1.235 . S
O136 Co126 2.021 . S
O136 C133 1.238 . S
O137 Co131 2.052 . S
O137 C133 1.241 . S
O138 Co126 2.137 . S
O138 C129 1.247 . S
O139 Co126 2.244 . S
O139 C129 1.272 . S
O139 Co131 2.135 . S
Co140 O141 2.216 . S
Co140 O142 2.091 . S
Co140 O144 2.004 . S
Co140 O150 2.021 . S
Co140 O152 2.137 . S
Co140 O153 2.244 . S
O141 Co140 2.216 . S
O141 C148 1.247 . S
O142 Co140 2.091 . S
O142 C148 1.261 . S
C143 O152 1.247 . S
C143 O153 1.272 . S
O144 Co140 2.004 . S
O144 C149 1.259 . S
Co145 O146 2.061 . S
Co145 O151 2.052 . S
Co145 O153 2.135 . S
O146 Co145 2.061 . S
O146 C149 1.235 . S
C147 O150 1.238 . S
C147 O151 1.241 . S
C148 O141 1.247 . S
C148 O142 1.261 . S
C149 O144 1.259 . S
C149 O146 1.235 . S
O150 Co140 2.021 . S
O150 C147 1.238 . S
O151 Co145 2.052 . S
O151 C147 1.241 . S
O152 Co140 2.137 . S
O152 C143 1.247 . S
O153 Co140 2.244 . S
O153 C143 1.272 . S
O153 Co145 2.135 . S
Co154 O155 2.216 . S
Co154 O156 2.091 . S
Co154 O158 2.004 . S
Co154 O164 2.021 . S
Co154 O166 2.137 . S
Co154 O167 2.244 . S
O155 Co154 2.216 . S
O155 C162 1.247 . S
O156 Co154 2.091 . S
O156 C162 1.261 . S
C157 O166 1.247 . S
C157 O167 1.272 . S
O158 Co154 2.004 . S
O158 C163 1.259 . S
Co159 O160 2.061 . S
Co159 O165 2.052 . S
Co159 O167 2.135 . S
O160 Co159 2.061 . S
O160 C163 1.235 . S
C161 O164 1.238 . S
C161 O165 1.241 . S
C162 O155 1.247 . S
C162 O156 1.261 . S
C163 O158 1.259 . S
C163 O160 1.235 . S
O164 Co154 2.021 . S
O164 C161 1.238 . S
O165 Co159 2.052 . S
O165 C161 1.241 . S
O166 Co154 2.137 . S
O166 C157 1.247 . S
O167 Co154 2.244 . S
O167 C157 1.272 . S
O167 Co159 2.135 . S
C168 C169 1.349 . S
C168 C170 1.327 . S
C168 H193 0.950 1_554 S
C169 C168 1.349 . S
C169 C185 1.349 . S
C170 C168 1.327 . S
C170 C189 1.429 . S
C170 H194 0.950 . S
C171 C188 1.574 . S
C171 C190 1.368 . S
C171 H195 0.949 . S
H172 C176 0.949 . S
C173 C174 1.349 . S
C173 C175 1.327 . S
C173 H196 0.950 . S
C174 C173 1.349 . S
C174 C186 1.349 . S
C175 C173 1.327 . S
C175 C191 1.429 . S
C175 H197 0.950 . S
C176 H172 0.949 . S
C176 C184 1.574 . S
C176 C192 1.368 . S
H177 C185 0.950 . S
H178 C183 0.950 . S
H179 C184 0.949 . S
H180 C186 0.950 . S
H181 C187 0.950 . S
H182 C188 0.949 . S
C183 H178 0.950 . S
C183 C185 1.327 . S
C183 C189 1.429 . S
C184 C176 1.574 . S
C184 H179 0.949 . S
C184 C190 1.368 . S
C185 C169 1.349 . S
C185 H177 0.950 . S
C185 C183 1.327 . S
C186 C174 1.349 . S
C186 H180 0.950 . S
C186 C187 1.327 . S
C187 H181 0.950 . S
C187 C186 1.327 . S
C187 C191 1.429 . S
C188 C171 1.574 . S
C188 H182 0.949 . S
C188 C192 1.368 . S
C189 C170 1.429 . S
C189 C183 1.429 . S
C189 C190 1.523 . S
C190 C171 1.368 . S
C190 C184 1.368 . S
C190 C189 1.523 . S
C191 C175 1.429 . S
C191 C187 1.429 . S
C191 C192 1.523 . S
C192 C176 1.368 . S
C192 C188 1.368 . S
C192 C191 1.523 . S
H193 C168 0.950 1_556 S
H194 C170 0.950 . S
H195 C171 0.949 . S
H196 C173 0.950 . S
H197 C175 0.950 . S
C198 C199 1.349 . S
C198 C200 1.327 . S
C198 H223 0.950 . S
C199 C198 1.349 . S
C199 C215 1.349 . S
C200 C198 1.327 . S
C200 C219 1.429 . S
C200 H224 0.950 . S
C201 C218 1.574 . S
C201 C220 1.368 . S
C201 H225 0.949 . S
H202 C206 0.949 . S
C203 C204 1.349 . S
C203 C205 1.327 . S
C203 H226 0.950 . S
C204 C203 1.349 . S
C204 C216 1.349 . S
C205 C203 1.327 . S
C205 C221 1.429 . S
C205 H227 0.950 . S
C206 H202 0.949 . S
C206 C214 1.574 . S
C206 C222 1.368 . S
H207 C215 0.950 . S
H208 C213 0.950 . S
H209 C214 0.949 . S
H210 C216 0.950 . S
H211 C217 0.950 . S
H212 C218 0.949 . S
C213 H208 0.950 . S
C213 C215 1.327 . S
C213 C219 1.429 . S
C214 C206 1.574 . S
C214 H209 0.949 . S
C214 C220 1.368 1_655 S
C215 C199 1.349 . S
C215 H207 0.950 . S
C215 C213 1.327 . S
C216 C204 1.349 . S
C216 H210 0.950 . S
C216 C217 1.327 . S
C217 H211 0.950 . S
C217 C216 1.327 . S
C217 C221 1.429 . S
C218 C201 1.574 . S
C218 H212 0.949 . S
C218 C222 1.368 1_455 S
C219 C200 1.429 . S
C219 C213 1.429 . S
C219 C220 1.523 . S
C220 C201 1.368 . S
C220 C214 1.368 1_455 S
C220 C219 1.523 . S
C221 C205 1.429 . S
C221 C217 1.429 . S
C221 C222 1.523 . S
C222 C206 1.368 . S
C222 C218 1.368 1_655 S
C222 C221 1.523 . S
H223 C198 0.950 . S
H224 C200 0.950 . S
H225 C201 0.949 . S
H226 C203 0.950 . S
H227 C205 0.950 . S
C228 C229 1.349 . S
C228 C230 1.327 . S
C228 H253 0.950 . S
C229 C228 1.349 . S
C229 C245 1.349 . S
C230 C228 1.327 . S
C230 C249 1.429 . S
C230 H254 0.950 . S
C231 C248 1.574 . S
C231 C250 1.368 . S
C231 H255 0.949 . S
H232 C236 0.949 . S
C233 C234 1.349 . S
C233 C235 1.327 . S
C233 H256 0.950 . S
C234 C233 1.349 . S
C234 C246 1.349 . S
C235 C233 1.327 . S
C235 C251 1.429 . S
C235 H257 0.950 . S
C236 H232 0.949 . S
C236 C244 1.574 . S
C236 C252 1.368 . S
H237 C245 0.950 . S
H238 C243 0.950 . S
H239 C244 0.949 . S
H240 C246 0.950 . S
H241 C247 0.950 . S
H242 C248 0.949 . S
C243 H238 0.950 . S
C243 C245 1.327 . S
C243 C249 1.429 . S
C244 C236 1.574 . S
C244 H239 0.949 . S
C244 C250 1.368 1_545 S
C245 C229 1.349 . S
C245 H237 0.950 . S
C245 C243 1.327 . S
C246 C234 1.349 . S
C246 H240 0.950 . S
C246 C247 1.327 . S
C247 H241 0.950 . S
C247 C246 1.327 . S
C247 C251 1.429 . S
C248 C231 1.574 . S
C248 H242 0.949 . S
C248 C252 1.368 1_565 S
C249 C230 1.429 . S
C249 C243 1.429 . S
C249 C250 1.523 . S
C250 C231 1.368 . S
C250 C244 1.368 1_565 S
C250 C249 1.523 . S
C251 C235 1.429 . S
C251 C247 1.429 . S
C251 C252 1.523 . S
C252 C236 1.368 . S
C252 C248 1.368 1_545 S
C252 C251 1.523 . S
H253 C228 0.950 . S
H254 C230 0.950 . S
H255 C231 0.949 . S
H256 C233 0.950 . S
H257 C235 0.950 . S
C258 C259 1.349 . S
C258 C260 1.327 . S
C258 H283 0.950 . S
C259 C258 1.349 . S
C259 C275 1.349 . S
C260 C258 1.327 . S
C260 C279 1.429 . S
C260 H284 0.950 . S
C261 C278 1.574 . S
C261 C280 1.368 . S
C261 H285 0.949 . S
H262 C266 0.949 . S
C263 C264 1.349 . S
C263 C265 1.327 . S
C263 H286 0.950 . S
C264 C263 1.349 . S
C264 C276 1.349 . S
C265 C263 1.327 . S
C265 C281 1.429 . S
C265 H287 0.950 . S
C266 H262 0.949 . S
C266 C274 1.574 . S
C266 C282 1.368 . S
H267 C275 0.950 . S
H268 C273 0.950 . S
H269 C274 0.949 . S
H270 C276 0.950 . S
H271 C277 0.950 . S
H272 C278 0.949 . S
C273 H268 0.950 . S
C273 C275 1.327 . S
C273 C279 1.429 . S
C274 C266 1.574 . S
C274 H269 0.949 . S
C274 C280 1.368 . S
C275 C259 1.349 . S
C275 H267 0.950 . S
C275 C273 1.327 . S
C276 C264 1.349 . S
C276 H270 0.950 . S
C276 C277 1.327 . S
C277 H271 0.950 . S
C277 C276 1.327 . S
C277 C281 1.429 . S
C278 C261 1.574 . S
C278 H272 0.949 . S
C278 C282 1.368 . S
C279 C260 1.429 . S
C279 C273 1.429 . S
C279 C280 1.523 . S
C280 C261 1.368 . S
C280 C274 1.368 . S
C280 C279 1.523 . S
C281 C265 1.429 . S
C281 C277 1.429 . S
C281 C282 1.523 . S
C282 C266 1.368 . S
C282 C278 1.368 . S
C282 C281 1.523 . S
H283 C258 0.950 . S
H284 C260 0.950 . S
H285 C261 0.949 . S
H286 C263 0.950 . S
H287 C265 0.950 . S
C288 C289 1.349 . S
C288 C290 1.327 . S
C288 H313 0.950 . S
C289 C288 1.349 . S
C289 C305 1.349 . S
C290 C288 1.327 . S
C290 C309 1.429 . S
C290 H314 0.950 . S
C291 C308 1.574 1_455 S
C291 C310 1.368 . S
C291 H315 0.949 . S
H292 C296 0.949 . S
C293 C294 1.349 . S
C293 C295 1.327 . S
C293 H316 0.950 . S
C294 C293 1.349 . S
C294 C306 1.349 . S
C295 C293 1.327 . S
C295 C311 1.429 . S
C295 H317 0.950 . S
C296 H292 0.949 . S
C296 C304 1.574 1_655 S
C296 C312 1.368 . S
H297 C305 0.950 . S
H298 C303 0.950 . S
H299 C304 0.949 . S
H300 C306 0.950 . S
H301 C307 0.950 . S
H302 C308 0.949 . S
C303 H298 0.950 . S
C303 C305 1.327 . S
C303 C309 1.429 . S
C304 C296 1.574 1_455 S
C304 H299 0.949 . S
C304 C310 1.368 . S
C305 C289 1.349 . S
C305 H297 0.950 . S
C305 C303 1.327 . S
C306 C294 1.349 . S
C306 H300 0.950 . S
C306 C307 1.327 . S
C307 H301 0.950 . S
C307 C306 1.327 . S
C307 C311 1.429 . S
C308 C291 1.574 1_655 S
C308 H302 0.949 . S
C308 C312 1.368 . S
C309 C290 1.429 . S
C309 C303 1.429 . S
C309 C310 1.523 . S
C310 C291 1.368 . S
C310 C304 1.368 . S
C310 C309 1.523 . S
C311 C295 1.429 . S
C311 C307 1.429 . S
C311 C312 1.523 . S
C312 C296 1.368 . S
C312 C308 1.368 . S
C312 C311 1.523 . S
H313 C288 0.950 . S
H314 C290 0.950 . S
H315 C291 0.949 . S
H316 C293 0.950 . S
H317 C295 0.950 . S
C318 C319 1.349 . S
C318 C320 1.327 . S
C318 H343 0.950 . S
C319 C318 1.349 . S
C319 C335 1.349 . S
C320 C318 1.327 . S
C320 C339 1.429 . S
C320 H344 0.950 . S
C321 C338 1.574 1_556 S
C321 C340 1.368 . S
C321 H345 0.949 . S
H322 C326 0.949 . S
C323 C324 1.349 . S
C323 C325 1.327 . S
C323 H346 0.950 . S
C324 C323 1.349 . S
C324 C336 1.349 . S
C325 C323 1.327 . S
C325 C341 1.429 . S
C325 H347 0.950 . S
C326 H322 0.949 . S
C326 C334 1.574 1_554 S
C326 C342 1.368 . S
H327 C335 0.950 . S
H328 C333 0.950 . S
H329 C334 0.949 . S
H330 C336 0.950 . S
H331 C337 0.950 . S
H332 C338 0.949 . S
C333 H328 0.950 . S
C333 C335 1.327 . S
C333 C339 1.429 . S
C334 C326 1.574 1_556 S
C334 H329 0.949 . S
C334 C340 1.368 1_565 S
C335 C319 1.349 . S
C335 H327 0.950 . S
C335 C333 1.327 . S
C336 C324 1.349 . S
C336 H330 0.950 . S
C336 C337 1.327 . S
C337 H331 0.950 . S
C337 C336 1.327 . S
C337 C341 1.429 . S
C338 C321 1.574 1_554 S
C338 H332 0.949 . S
C338 C342 1.368 1_545 S
C339 C320 1.429 . S
C339 C333 1.429 . S
C339 C340 1.523 . S
C340 C321 1.368 . S
C340 C334 1.368 1_545 S
C340 C339 1.523 . S
C341 C325 1.429 . S
C341 C337 1.429 . S
C341 C342 1.523 . S
C342 C326 1.368 . S
C342 C338 1.368 1_565 S
C342 C341 1.523 . S
H343 C318 0.950 . S
H344 C320 0.950 . S
H345 C321 0.949 . S
H346 C323 0.950 . S
H347 C325 0.950 . S
C348 C349 1.349 . S
C348 C350 1.327 . S
C348 H373 0.950 . S
C349 C348 1.349 . S
C349 C365 1.349 . S
C350 C348 1.327 . S
C350 C369 1.429 . S
C350 H374 0.950 . S
C351 C368 1.574 . S
C351 C370 1.368 . S
C351 H375 0.949 . S
H352 C356 0.949 . S
C353 C354 1.349 . S
C353 C355 1.327 . S
C353 H376 0.950 . S
C354 C353 1.349 . S
C354 C366 1.349 . S
C355 C353 1.327 . S
C355 C371 1.429 . S
C355 H377 0.950 . S
C356 H352 0.949 . S
C356 C364 1.574 . S
C356 C372 1.368 . S
H357 C365 0.950 . S
H358 C363 0.950 . S
H359 C364 0.949 . S
H360 C366 0.950 . S
H361 C367 0.950 . S
H362 C368 0.949 . S
C363 H358 0.950 . S
C363 C365 1.327 . S
C363 C369 1.429 . S
C364 C356 1.574 . S
C364 H359 0.949 . S
C364 C370 1.368 . S
C365 C349 1.349 . S
C365 H357 0.950 . S
C365 C363 1.327 . S
C366 C354 1.349 . S
C366 H360 0.950 . S
C366 C367 1.327 . S
C367 H361 0.950 . S
C367 C366 1.327 . S
C367 C371 1.429 . S
C368 C351 1.574 . S
C368 H362 0.949 . S
C368 C372 1.368 . S
C369 C350 1.429 . S
C369 C363 1.429 . S
C369 C370 1.523 . S
C370 C351 1.368 . S
C370 C364 1.368 . S
C370 C369 1.523 . S
C371 C355 1.429 . S
C371 C367 1.429 . S
C371 C372 1.523 . S
C372 C356 1.368 . S
C372 C368 1.368 . S
C372 C371 1.523 . S
H373 C348 0.950 . S
H374 C350 0.950 . S
H375 C351 0.949 . S
H376 C353 0.950 . S
H377 C355 0.950 . S
C378 C379 1.349 . S
C378 C380 1.327 . S
C378 H403 0.950 . S
C379 C378 1.349 . S
C379 C395 1.349 . S
C380 C378 1.327 . S
C380 C399 1.429 . S
C380 H404 0.950 . S
C381 C398 1.574 . S
C381 C400 1.368 . S
C381 H405 0.949 . S
H382 C386 0.949 . S
C383 C384 1.349 . S
C383 C385 1.327 . S
C383 H406 0.950 . S
C384 C383 1.349 . S
C384 C396 1.349 . S
C385 C383 1.327 . S
C385 C401 1.429 . S
C385 H407 0.950 . S
C386 H382 0.949 . S
C386 C394 1.574 . S
C386 C402 1.368 . S
H387 C395 0.950 . S
H388 C393 0.950 . S
H389 C394 0.949 . S
H390 C396 0.950 . S
H391 C397 0.950 . S
H392 C398 0.949 . S
C393 H388 0.950 . S
C393 C395 1.327 . S
C393 C399 1.429 . S
C394 C386 1.574 . S
C394 H389 0.949 . S
C394 C400 1.368 . S
C395 C379 1.349 . S
C395 H387 0.950 . S
C395 C393 1.327 . S
C396 C384 1.349 . S
C396 H390 0.950 . S
C396 C397 1.327 . S
C397 H391 0.950 . S
C397 C396 1.327 . S
C397 C401 1.429 . S
C398 C381 1.574 . S
C398 H392 0.949 . S
C398 C402 1.368 . S
C399 C380 1.429 . S
C399 C393 1.429 . S
C399 C400 1.523 . S
C400 C381 1.368 . S
C400 C394 1.368 . S
C400 C399 1.523 . S
C401 C385 1.429 . S
C401 C397 1.429 . S
C401 C402 1.523 . S
C402 C386 1.368 . S
C402 C398 1.368 . S
C402 C401 1.523 . S
H403 C378 0.950 . S
H404 C380 0.950 . S
H405 C381 0.949 . S
H406 C383 0.950 . S
H407 C385 0.950 . S
C408 C409 1.349 . S
C408 C410 1.327 . S
C408 H433 0.950 . S
C409 C408 1.349 . S
C409 C425 1.349 . S
C410 C408 1.327 . S
C410 C429 1.429 . S
C410 H434 0.950 . S
C411 C428 1.574 . S
C411 C430 1.368 . S
C411 H435 0.949 . S
H412 C416 0.949 . S
C413 C414 1.349 . S
C413 C415 1.327 . S
C413 H436 0.950 . S
C414 C413 1.349 . S
C414 C426 1.349 . S
C415 C413 1.327 . S
C415 C431 1.429 . S
C415 H437 0.950 . S
C416 H412 0.949 . S
C416 C424 1.574 . S
C416 C432 1.368 . S
H417 C425 0.950 . S
H418 C423 0.950 . S
H419 C424 0.949 . S
H420 C426 0.950 . S
H421 C427 0.950 . S
H422 C428 0.949 . S
C423 H418 0.950 . S
C423 C425 1.327 . S
C423 C429 1.429 . S
C424 C416 1.574 . S
C424 H419 0.949 . S
C424 C430 1.368 . S
C425 C409 1.349 . S
C425 H417 0.950 . S
C425 C423 1.327 . S
C426 C414 1.349 . S
C426 H420 0.950 . S
C426 C427 1.327 . S
C427 H421 0.950 . S
C427 C426 1.327 . S
C427 C431 1.429 . S
C428 C411 1.574 . S
C428 H422 0.949 . S
C428 C432 1.368 . S
C429 C410 1.429 . S
C429 C423 1.429 . S
C429 C430 1.523 . S
C430 C411 1.368 . S
C430 C424 1.368 . S
C430 C429 1.523 . S
C431 C415 1.429 . S
C431 C427 1.429 . S
C431 C432 1.523 . S
C432 C416 1.368 . S
C432 C428 1.368 . S
C432 C431 1.523 . S
H433 C408 0.950 . S
H434 C410 0.950 . S
H435 C411 0.949 . S
H436 C413 0.950 . S
H437 C415 0.950 . S
C438 C439 1.349 . S
C438 C440 1.327 . S
C438 H463 0.950 . S
C439 C438 1.349 . S
C439 C455 1.349 . S
C440 C438 1.327 . S
C440 C459 1.429 . S
C440 H464 0.950 . S
C441 C458 1.574 . S
C441 C460 1.368 . S
C441 H465 0.949 . S
H442 C446 0.949 . S
C443 C444 1.349 . S
C443 C445 1.327 . S
C443 H466 0.950 . S
C444 C443 1.349 . S
C444 C456 1.349 . S
C445 C443 1.327 . S
C445 C461 1.429 . S
C445 H467 0.950 . S
C446 H442 0.949 . S
C446 C454 1.574 . S
C446 C462 1.368 . S
H447 C455 0.950 . S
H448 C453 0.950 . S
H449 C454 0.949 . S
H450 C456 0.950 . S
H451 C457 0.950 . S
H452 C458 0.949 . S
C453 H448 0.950 . S
C453 C455 1.327 . S
C453 C459 1.429 . S
C454 C446 1.574 . S
C454 H449 0.949 . S
C454 C460 1.368 . S
C455 C439 1.349 . S
C455 H447 0.950 . S
C455 C453 1.327 . S
C456 C444 1.349 . S
C456 H450 0.950 . S
C456 C457 1.327 . S
C457 H451 0.950 . S
C457 C456 1.327 . S
C457 C461 1.429 . S
C458 C441 1.574 . S
C458 H452 0.949 . S
C458 C462 1.368 . S
C459 C440 1.429 . S
C459 C453 1.429 . S
C459 C460 1.523 . S
C460 C441 1.368 . S
C460 C454 1.368 . S
C460 C459 1.523 . S
C461 C445 1.429 . S
C461 C457 1.429 . S
C461 C462 1.523 . S
C462 C446 1.368 . S
C462 C458 1.368 . S
C462 C461 1.523 . S
H463 C438 0.950 . S
H464 C440 0.950 . S
H465 C441 0.949 . S
H466 C443 0.950 . S
H467 C445 0.950 . S
C468 C469 1.349 . S
C468 C470 1.327 . S
C468 H493 0.950 . S
C469 C468 1.349 . S
C469 C485 1.349 . S
C470 C468 1.327 . S
C470 C489 1.429 . S
C470 H494 0.950 . S
C471 C488 1.574 . S
C471 C490 1.368 . S
C471 H495 0.949 . S
H472 C476 0.949 . S
C473 C474 1.349 . S
C473 C475 1.327 . S
C473 H496 0.950 . S
C474 C473 1.349 . S
C474 C486 1.349 . S
C475 C473 1.327 . S
C475 C491 1.429 . S
C475 H497 0.950 . S
C476 H472 0.949 . S
C476 C484 1.574 . S
C476 C492 1.368 . S
H477 C485 0.950 . S
H478 C483 0.950 . S
H479 C484 0.949 . S
H480 C486 0.950 . S
H481 C487 0.950 . S
H482 C488 0.949 . S
C483 H478 0.950 . S
C483 C485 1.327 . S
C483 C489 1.429 . S
C484 C476 1.574 . S
C484 H479 0.949 . S
C484 C490 1.368 . S
C485 C469 1.349 . S
C485 H477 0.950 . S
C485 C483 1.327 . S
C486 C474 1.349 . S
C486 H480 0.950 . S
C486 C487 1.327 . S
C487 H481 0.950 . S
C487 C486 1.327 . S
C487 C491 1.429 . S
C488 C471 1.574 . S
C488 H482 0.949 . S
C488 C492 1.368 . S
C489 C470 1.429 . S
C489 C483 1.429 . S
C489 C490 1.523 . S
C490 C471 1.368 . S
C490 C484 1.368 . S
C490 C489 1.523 . S
C491 C475 1.429 . S
C491 C487 1.429 . S
C491 C492 1.523 . S
C492 C476 1.368 . S
C492 C488 1.368 . S
C492 C491 1.523 . S
H493 C468 0.950 . S
H494 C470 0.950 . S
H495 C471 0.949 . S
H496 C473 0.950 . S
H497 C475 0.950 . S
C498 C499 1.349 . S
C498 C500 1.327 . S
C498 H523 0.950 . S
C499 C498 1.349 . S
C499 C515 1.349 . S
C500 C498 1.327 . S
C500 C519 1.429 . S
C500 H524 0.950 . S
C501 C518 1.574 . S
C501 C520 1.368 . S
C501 H525 0.949 . S
H502 C506 0.949 . S
C503 C504 1.349 . S
C503 C505 1.327 . S
C503 H526 0.950 . S
C504 C503 1.349 . S
C504 C516 1.349 . S
C505 C503 1.327 . S
C505 C521 1.429 . S
C505 H527 0.950 . S
C506 H502 0.949 . S
C506 C514 1.574 . S
C506 C522 1.368 . S
H507 C515 0.950 . S
H508 C513 0.950 . S
H509 C514 0.949 . S
H510 C516 0.950 . S
H511 C517 0.950 . S
H512 C518 0.949 . S
C513 H508 0.950 . S
C513 C515 1.327 . S
C513 C519 1.429 . S
C514 C506 1.574 . S
C514 H509 0.949 . S
C514 C520 1.368 . S
C515 C499 1.349 . S
C515 H507 0.950 . S
C515 C513 1.327 . S
C516 C504 1.349 . S
C516 H510 0.950 . S
C516 C517 1.327 . S
C517 H511 0.950 . S
C517 C516 1.327 . S
C517 C521 1.429 . S
C518 C501 1.574 . S
C518 H512 0.949 . S
C518 C522 1.368 . S
C519 C500 1.429 . S
C519 C513 1.429 . S
C519 C520 1.523 . S
C520 C501 1.368 . S
C520 C514 1.368 . S
C520 C519 1.523 . S
C521 C505 1.429 . S
C521 C517 1.429 . S
C521 C522 1.523 . S
C522 C506 1.368 . S
C522 C518 1.368 . S
C522 C521 1.523 . S
H523 C498 0.950 . S
H524 C500 0.950 . S
H525 C501 0.949 . S
H526 C503 0.950 . S
H527 C505 0.950 . S
C528 C529 1.349 . S
C528 C530 1.327 . S
C528 H553 0.950 . S
C529 C528 1.349 . S
C529 C545 1.349 . S
C530 C528 1.327 . S
C530 C549 1.429 . S
C530 H554 0.950 . S
C531 C548 1.574 . S
C531 C550 1.368 . S
C531 H555 0.949 . S
H532 C536 0.949 . S
C533 C534 1.349 . S
C533 C535 1.327 . S
C533 H556 0.950 . S
C534 C533 1.349 . S
C534 C546 1.349 . S
C535 C533 1.327 . S
C535 C551 1.429 . S
C535 H557 0.950 . S
C536 H532 0.949 . S
C536 C544 1.574 . S
C536 C552 1.368 . S
H537 C545 0.950 . S
H538 C543 0.950 . S
H539 C544 0.949 . S
H540 C546 0.950 . S
H541 C547 0.950 . S
H542 C548 0.949 . S
C543 H538 0.950 . S
C543 C545 1.327 . S
C543 C549 1.429 . S
C544 C536 1.574 . S
C544 H539 0.949 . S
C544 C550 1.368 . S
C545 C529 1.349 . S
C545 H537 0.950 . S
C545 C543 1.327 . S
C546 C534 1.349 . S
C546 H540 0.950 . S
C546 C547 1.327 . S
C547 H541 0.950 . S
C547 C546 1.327 . S
C547 C551 1.429 . S
C548 C531 1.574 . S
C548 H542 0.949 . S
C548 C552 1.368 . S
C549 C530 1.429 . S
C549 C543 1.429 . S
C549 C550 1.523 . S
C550 C531 1.368 . S
C550 C544 1.368 . S
C550 C549 1.523 . S
C551 C535 1.429 . S
C551 C547 1.429 . S
C551 C552 1.523 . S
C552 C536 1.368 . S
C552 C548 1.368 . S
C552 C551 1.523 . S
H553 C528 0.950 . S
H554 C530 0.950 . S
H555 C531 0.949 . S
H556 C533 0.950 . S
H557 C535 0.950 . S
C558 C559 1.349 . S
C558 C560 1.327 . S
C558 H583 0.950 . S
C559 C558 1.349 . S
C559 C575 1.349 . S
C560 C558 1.327 . S
C560 C579 1.429 . S
C560 H584 0.950 . S
C561 C578 1.574 . S
C561 C580 1.368 1_455 S
C561 H585 0.949 . S
H562 C566 0.949 . S
C563 C564 1.349 . S
C563 C565 1.327 . S
C563 H586 0.950 . S
C564 C563 1.349 . S
C564 C576 1.349 . S
C565 C563 1.327 . S
C565 C581 1.429 . S
C565 H587 0.950 . S
C566 H562 0.949 . S
C566 C574 1.574 . S
C566 C582 1.368 1_655 S
H567 C575 0.950 1_554 S
H568 C573 0.950 . S
H569 C574 0.949 . S
H570 C576 0.950 . S
H571 C577 0.950 . S
H572 C578 0.949 . S
C573 H568 0.950 . S
C573 C575 1.327 . S
C573 C579 1.429 . S
C574 C566 1.574 . S
C574 H569 0.949 . S
C574 C580 1.368 . S
C575 C559 1.349 . S
C575 H567 0.950 1_556 S
C575 C573 1.327 . S
C576 C564 1.349 . S
C576 H570 0.950 . S
C576 C577 1.327 . S
C577 H571 0.950 . S
C577 C576 1.327 . S
C577 C581 1.429 . S
C578 C561 1.574 . S
C578 H572 0.949 . S
C578 C582 1.368 . S
C579 C560 1.429 . S
C579 C573 1.429 . S
C579 C580 1.523 . S
C580 C561 1.368 1_655 S
C580 C574 1.368 . S
C580 C579 1.523 . S
C581 C565 1.429 . S
C581 C577 1.429 . S
C581 C582 1.523 . S
C582 C566 1.368 1_455 S
C582 C578 1.368 . S
C582 C581 1.523 . S
H583 C558 0.950 . S
H584 C560 0.950 . S
H585 C561 0.949 . S
H586 C563 0.950 . S
H587 C565 0.950 . S
C588 C589 1.349 . S
C588 C590 1.327 . S
C588 H613 0.950 . S
C589 C588 1.349 . S
C589 C605 1.349 . S
C590 C588 1.327 . S
C590 C609 1.429 . S
C590 H614 0.950 . S
C591 C608 1.574 . S
C591 C610 1.368 1_556 S
C591 H615 0.949 . S
H592 C596 0.949 . S
C593 C594 1.349 . S
C593 C595 1.327 . S
C593 H616 0.950 . S
C594 C593 1.349 . S
C594 C606 1.349 . S
C595 C593 1.327 . S
C595 C611 1.429 . S
C595 H617 0.950 . S
C596 H592 0.949 . S
C596 C604 1.574 . S
C596 C612 1.368 1_554 S
H597 C605 0.950 . S
H598 C603 0.950 . S
H599 C604 0.949 . S
H600 C606 0.950 . S
H601 C607 0.950 . S
H602 C608 0.949 . S
C603 H598 0.950 . S
C603 C605 1.327 . S
C603 C609 1.429 . S
C604 C596 1.574 . S
C604 H599 0.949 . S
C604 C610 1.368 1_545 S
C605 C589 1.349 . S
C605 H597 0.950 . S
C605 C603 1.327 . S
C606 C594 1.349 . S
C606 H600 0.950 . S
C606 C607 1.327 . S
C607 H601 0.950 . S
C607 C606 1.327 . S
C607 C611 1.429 . S
C608 C591 1.574 . S
C608 H602 0.949 . S
C608 C612 1.368 1_565 S
C609 C590 1.429 . S
C609 C603 1.429 . S
C609 C610 1.523 . S
C610 C591 1.368 1_554 S
C610 C604 1.368 1_565 S
C610 C609 1.523 . S
C611 C595 1.429 . S
C611 C607 1.429 . S
C611 C612 1.523 . S
C612 C596 1.368 1_556 S
C612 C608 1.368 1_545 S
C612 C611 1.523 . S
H613 C588 0.950 . S
H614 C590 0.950 . S
H615 C591 0.949 . S
H616 C593 0.950 . S
H617 C595 0.950 . S
C618 C619 1.349 . S
C618 C620 1.327 . S
C618 H643 0.950 . S
C619 C618 1.349 . S
C619 C635 1.349 . S
C620 C618 1.327 . S
C620 C639 1.429 . S
C620 H644 0.950 . S
C621 C638 1.574 . S
C621 C640 1.368 . S
C621 H645 0.949 . S
H622 C626 0.949 . S
C623 C624 1.349 . S
C623 C625 1.327 . S
C623 H646 0.950 . S
C624 C623 1.349 . S
C624 C636 1.349 . S
C625 C623 1.327 . S
C625 C641 1.429 . S
C625 H647 0.950 . S
C626 H622 0.949 . S
C626 C634 1.574 . S
C626 C642 1.368 . S
H627 C635 0.950 1_556 S
H628 C633 0.950 . S
H629 C634 0.949 . S
H630 C636 0.950 . S
H631 C637 0.950 . S
H632 C638 0.949 . S
C633 H628 0.950 . S
C633 C635 1.327 . S
C633 C639 1.429 . S
C634 C626 1.574 . S
C634 H629 0.949 . S
C634 C640 1.368 . S
C635 C619 1.349 . S
C635 H627 0.950 1_554 S
C635 C633 1.327 . S
C636 C624 1.349 . S
C636 H630 0.950 . S
C636 C637 1.327 . S
C637 H631 0.950 . S
C637 C636 1.327 . S
C637 C641 1.429 . S
C638 C621 1.574 . S
C638 H632 0.949 . S
C638 C642 1.368 . S
C639 C620 1.429 . S
C639 C633 1.429 . S
C639 C640 1.523 . S
C640 C621 1.368 . S
C640 C634 1.368 . S
C640 C639 1.523 . S
C641 C625 1.429 . S
C641 C637 1.429 . S
C641 C642 1.523 . S
C642 C626 1.368 . S
C642 C638 1.368 . S
C642 C641 1.523 . S
H643 C618 0.950 . S
H644 C620 0.950 . S
H645 C621 0.949 . S
H646 C623 0.950 . S
H647 C625 0.950 . S
C648 C649 1.349 . S
C648 C650 1.327 . S
C648 H673 0.950 . S
C649 C648 1.349 . S
C649 C665 1.349 . S
C650 C648 1.327 . S
C650 C669 1.429 . S
C650 H674 0.950 . S
C651 C668 1.574 . S
C651 C670 1.368 . S
C651 H675 0.949 . S
H652 C656 0.949 . S
C653 C654 1.349 . S
C653 C655 1.327 . S
C653 H676 0.950 . S
C654 C653 1.349 . S
C654 C666 1.349 . S
C655 C653 1.327 . S
C655 C671 1.429 . S
C655 H677 0.950 . S
C656 H652 0.949 . S
C656 C664 1.574 . S
C656 C672 1.368 . S
H657 C665 0.950 . S
H658 C663 0.950 . S
H659 C664 0.949 . S
H660 C666 0.950 . S
H661 C667 0.950 . S
H662 C668 0.949 . S
C663 H658 0.950 . S
C663 C665 1.327 . S
C663 C669 1.429 . S
C664 C656 1.574 . S
C664 H659 0.949 . S
C664 C670 1.368 1_655 S
C665 C649 1.349 . S
C665 H657 0.950 . S
C665 C663 1.327 . S
C666 C654 1.349 . S
C666 H660 0.950 . S
C666 C667 1.327 . S
C667 H661 0.950 . S
C667 C666 1.327 . S
C667 C671 1.429 . S
C668 C651 1.574 . S
C668 H662 0.949 . S
C668 C672 1.368 1_455 S
C669 C650 1.429 . S
C669 C663 1.429 . S
C669 C670 1.523 . S
C670 C651 1.368 . S
C670 C664 1.368 1_455 S
C670 C669 1.523 . S
C671 C655 1.429 . S
C671 C667 1.429 . S
C671 C672 1.523 . S
C672 C656 1.368 . S
C672 C668 1.368 1_655 S
C672 C671 1.523 . S
H673 C648 0.950 . S
H674 C650 0.950 . S
H675 C651 0.949 . S
H676 C653 0.950 . S
H677 C655 0.950 . S
C678 C679 1.349 . S
C678 C680 1.327 . S
C678 H703 0.950 . S
C679 C678 1.349 . S
C679 C695 1.349 . S
C680 C678 1.327 . S
C680 C699 1.429 . S
C680 H704 0.950 . S
C681 C698 1.574 . S
C681 C700 1.368 . S
C681 H705 0.949 . S
H682 C686 0.949 . S
C683 C684 1.349 . S
C683 C685 1.327 . S
C683 H706 0.950 . S
C684 C683 1.349 . S
C684 C696 1.349 . S
C685 C683 1.327 . S
C685 C701 1.429 . S
C685 H707 0.950 . S
C686 H682 0.949 . S
C686 C694 1.574 . S
C686 C702 1.368 . S
H687 C695 0.950 . S
H688 C693 0.950 . S
H689 C694 0.949 . S
H690 C696 0.950 . S
H691 C697 0.950 . S
H692 C698 0.949 . S
C693 H688 0.950 . S
C693 C695 1.327 . S
C693 C699 1.429 . S
C694 C686 1.574 . S
C694 H689 0.949 . S
C694 C700 1.368 1_545 S
C695 C679 1.349 . S
C695 H687 0.950 . S
C695 C693 1.327 . S
C696 C684 1.349 . S
C696 H690 0.950 . S
C696 C697 1.327 . S
C697 H691 0.950 . S
C697 C696 1.327 . S
C697 C701 1.429 . S
C698 C681 1.574 . S
C698 H692 0.949 . S
C698 C702 1.368 1_565 S
C699 C680 1.429 . S
C699 C693 1.429 . S
C699 C700 1.523 . S
C700 C681 1.368 . S
C700 C694 1.368 1_565 S
C700 C699 1.523 . S
C701 C685 1.429 . S
C701 C697 1.429 . S
C701 C702 1.523 . S
C702 C686 1.368 . S
C702 C698 1.368 1_545 S
C702 C701 1.523 . S
H703 C678 0.950 . S
H704 C680 0.950 . S
H705 C681 0.949 . S
H706 C683 0.950 . S
H707 C685 0.950 . S
C708 C709 1.349 . S
C708 C710 1.327 . S
C708 H733 0.950 . S
C709 C708 1.349 . S
C709 C725 1.349 . S
C710 C708 1.327 . S
C710 C729 1.429 . S
C710 H734 0.950 . S
C711 C728 1.574 . S
C711 C730 1.368 . S
C711 H735 0.949 . S
H712 C716 0.949 . S
C713 C714 1.349 . S
C713 C715 1.327 . S
C713 H736 0.950 . S
C714 C713 1.349 . S
C714 C726 1.349 . S
C715 C713 1.327 . S
C715 C731 1.429 . S
C715 H737 0.950 . S
C716 H712 0.949 . S
C716 C724 1.574 . S
C716 C732 1.368 . S
H717 C725 0.950 . S
H718 C723 0.950 . S
H719 C724 0.949 . S
H720 C726 0.950 . S
H721 C727 0.950 . S
H722 C728 0.949 . S
C723 H718 0.950 . S
C723 C725 1.327 . S
C723 C729 1.429 . S
C724 C716 1.574 . S
C724 H719 0.949 . S
C724 C730 1.368 . S
C725 C709 1.349 . S
C725 H717 0.950 . S
C725 C723 1.327 . S
C726 C714 1.349 . S
C726 H720 0.950 . S
C726 C727 1.327 . S
C727 H721 0.950 . S
C727 C726 1.327 . S
C727 C731 1.429 . S
C728 C711 1.574 . S
C728 H722 0.949 . S
C728 C732 1.368 . S
C729 C710 1.429 . S
C729 C723 1.429 . S
C729 C730 1.523 . S
C730 C711 1.368 . S
C730 C724 1.368 . S
C730 C729 1.523 . S
C731 C715 1.429 . S
C731 C727 1.429 . S
C731 C732 1.523 . S
C732 C716 1.368 . S
C732 C728 1.368 . S
C732 C731 1.523 . S
H733 C708 0.950 . S
H734 C710 0.950 . S
H735 C711 0.949 . S
H736 C713 0.950 . S
H737 C715 0.950 . S
C738 C739 1.349 . S
C738 C740 1.327 . S
C738 H763 0.950 . S
C739 C738 1.349 . S
C739 C755 1.349 . S
C740 C738 1.327 . S
C740 C759 1.429 . S
C740 H764 0.950 . S
C741 C758 1.574 . S
C741 C760 1.368 . S
C741 H765 0.949 . S
H742 C746 0.949 . S
C743 C744 1.349 . S
C743 C745 1.327 . S
C743 H766 0.950 . S
C744 C743 1.349 . S
C744 C756 1.349 . S
C745 C743 1.327 . S
C745 C761 1.429 . S
C745 H767 0.950 . S
C746 H742 0.949 . S
C746 C754 1.574 . S
C746 C762 1.368 . S
H747 C755 0.950 . S
H748 C753 0.950 . S
H749 C754 0.949 . S
H750 C756 0.950 . S
H751 C757 0.950 . S
H752 C758 0.949 . S
C753 H748 0.950 . S
C753 C755 1.327 . S
C753 C759 1.429 . S
C754 C746 1.574 . S
C754 H749 0.949 . S
C754 C760 1.368 . S
C755 C739 1.349 . S
C755 H747 0.950 . S
C755 C753 1.327 . S
C756 C744 1.349 . S
C756 H750 0.950 . S
C756 C757 1.327 . S
C757 H751 0.950 . S
C757 C756 1.327 . S
C757 C761 1.429 . S
C758 C741 1.574 . S
C758 H752 0.949 . S
C758 C762 1.368 . S
C759 C740 1.429 . S
C759 C753 1.429 . S
C759 C760 1.523 . S
C760 C741 1.368 . S
C760 C754 1.368 . S
C760 C759 1.523 . S
C761 C745 1.429 . S
C761 C757 1.429 . S
C761 C762 1.523 . S
C762 C746 1.368 . S
C762 C758 1.368 . S
C762 C761 1.523 . S
H763 C738 0.950 . S
H764 C740 0.950 . S
H765 C741 0.949 . S
H766 C743 0.950 . S
H767 C745 0.950 . S
C768 C769 1.349 1_556 S
C768 C770 1.327 . S
C768 H793 0.950 . S
C769 C768 1.349 1_554 S
C769 C785 1.349 . S
C770 C768 1.327 . S
C770 C789 1.429 . S
C770 H794 0.950 . S
C771 C788 1.574 . S
C771 C790 1.368 . S
C771 H795 0.949 . S
H772 C776 0.949 . S
C773 C774 1.349 . S
C773 C775 1.327 . S
C773 H796 0.950 . S
C774 C773 1.349 . S
C774 C786 1.349 . S
C775 C773 1.327 . S
C775 C791 1.429 . S
C775 H797 0.950 . S
C776 H772 0.949 . S
C776 C784 1.574 . S
C776 C792 1.368 . S
H777 C785 0.950 . S
H778 C783 0.950 . S
H779 C784 0.949 . S
H780 C786 0.950 . S
H781 C787 0.950 . S
H782 C788 0.949 . S
C783 H778 0.950 . S
C783 C785 1.327 . S
C783 C789 1.429 1_554 S
C784 C776 1.574 . S
C784 H779 0.949 . S
C784 C790 1.368 . S
C785 C769 1.349 . S
C785 H777 0.950 . S
C785 C783 1.327 . S
C786 C774 1.349 . S
C786 H780 0.950 . S
C786 C787 1.327 . S
C787 H781 0.950 . S
C787 C786 1.327 . S
C787 C791 1.429 . S
C788 C771 1.574 . S
C788 H782 0.949 . S
C788 C792 1.368 . S
C789 C770 1.429 . S
C789 C783 1.429 1_556 S
C789 C790 1.523 . S
C790 C771 1.368 . S
C790 C784 1.368 . S
C790 C789 1.523 . S
C791 C775 1.429 . S
C791 C787 1.429 . S
C791 C792 1.523 . S
C792 C776 1.368 . S
C792 C788 1.368 . S
C792 C791 1.523 . S
H793 C768 0.950 . S
H794 C770 0.950 . S
H795 C771 0.949 . S
H796 C773 0.950 . S
H797 C775 0.950 . S
C798 C799 1.349 . S
C798 C800 1.327 . S
C798 H823 0.950 . S
C799 C798 1.349 . S
C799 C815 1.349 . S
C800 C798 1.327 . S
C800 C819 1.429 . S
C800 H824 0.950 . S
C801 C818 1.574 . S
C801 C820 1.368 . S
C801 H825 0.949 . S
H802 C806 0.949 . S
C803 C804 1.349 . S
C803 C805 1.327 1_556 S
C803 H826 0.950 . S
C804 C803 1.349 . S
C804 C816 1.349 1_556 S
C805 C803 1.327 1_554 S
C805 C821 1.429 . S
C805 H827 0.950 . S
C806 H802 0.949 . S
C806 C814 1.574 . S
C806 C822 1.368 . S
H807 C815 0.950 . S
H808 C813 0.950 . S
H809 C814 0.949 . S
H810 C816 0.948 1_556 S
H811 C817 0.950 . S
H812 C818 0.949 . S
C813 H808 0.950 . S
C813 C815 1.327 . S
C813 C819 1.429 . S
C814 C806 1.574 . S
C814 H809 0.949 . S
C814 C820 1.368 . S
C815 C799 1.349 . S
C815 H807 0.950 . S
C815 C813 1.327 . S
C816 C804 1.349 1_554 S
C816 H810 0.948 1_554 S
C816 C817 1.327 . S
C817 H811 0.950 . S
C817 C816 1.327 . S
C817 C821 1.429 . S
C818 C801 1.574 . S
C818 H812 0.949 . S
C818 C822 1.368 . S
C819 C800 1.429 . S
C819 C813 1.429 . S
C819 C820 1.523 . S
C820 C801 1.368 . S
C820 C814 1.368 . S
C820 C819 1.523 . S
C821 C805 1.429 . S
C821 C817 1.429 . S
C821 C822 1.523 . S
C822 C806 1.368 . S
C822 C818 1.368 . S
C822 C821 1.523 . S
H823 C798 0.950 . S
H824 C800 0.950 . S
H825 C801 0.949 . S
H826 C803 0.950 . S
H827 C805 0.950 . S
C828 C829 1.349 . S
C828 C830 1.327 . S
C828 H853 0.950 . S
C829 C828 1.349 . S
C829 C845 1.349 . S
C830 C828 1.327 . S
C830 C849 1.429 . S
C830 H854 0.950 . S
C831 C848 1.574 . S
C831 C850 1.368 . S
C831 H855 0.949 . S
H832 C836 0.949 . S
C833 C834 1.349 . S
C833 C835 1.327 . S
C833 H856 0.950 . S
C834 C833 1.349 . S
C834 C846 1.349 . S
C835 C833 1.327 . S
C835 C851 1.429 . S
C835 H857 0.950 . S
C836 H832 0.949 . S
C836 C844 1.574 . S
C836 C852 1.368 . S
H837 C845 0.950 . S
H838 C843 0.950 . S
H839 C844 0.949 . S
H840 C846 0.950 . S
H841 C847 0.950 . S
H842 C848 0.949 . S
C843 H838 0.950 . S
C843 C845 1.327 . S
C843 C849 1.429 . S
C844 C836 1.574 . S
C844 H839 0.949 . S
C844 C850 1.368 . S
C845 C829 1.349 . S
C845 H837 0.950 . S
C845 C843 1.327 . S
C846 C834 1.349 . S
C846 H840 0.950 . S
C846 C847 1.327 . S
C847 H841 0.950 . S
C847 C846 1.327 . S
C847 C851 1.429 . S
C848 C831 1.574 . S
C848 H842 0.949 . S
C848 C852 1.368 . S
C849 C830 1.429 . S
C849 C843 1.429 . S
C849 C850 1.523 . S
C850 C831 1.368 . S
C850 C844 1.368 . S
C850 C849 1.523 . S
C851 C835 1.429 . S
C851 C847 1.429 . S
C851 C852 1.523 . S
C852 C836 1.368 . S
C852 C848 1.368 . S
C852 C851 1.523 . S
H853 C828 0.950 . S
H854 C830 0.950 . S
H855 C831 0.949 . S
H856 C833 0.950 . S
H857 C835 0.950 . S
C858 C859 1.349 . S
C858 C860 1.327 . S
C858 H883 0.950 . S
C859 C858 1.349 . S
C859 C875 1.349 . S
C860 C858 1.327 . S
C860 C879 1.429 . S
C860 H884 0.950 . S
C861 C878 1.574 . S
C861 C880 1.368 . S
C861 H885 0.949 . S
H862 C866 0.949 . S
C863 C864 1.349 . S
C863 C865 1.327 . S
C863 H886 0.950 . S
C864 C863 1.349 . S
C864 C876 1.349 . S
C865 C863 1.327 . S
C865 C881 1.429 . S
C865 H887 0.950 . S
C866 H862 0.949 . S
C866 C874 1.574 . S
C866 C882 1.368 . S
H867 C875 0.950 . S
H868 C873 0.950 . S
H869 C874 0.949 . S
H870 C876 0.950 . S
H871 C877 0.950 . S
H872 C878 0.949 . S
C873 H868 0.950 . S
C873 C875 1.327 . S
C873 C879 1.429 . S
C874 C866 1.574 . S
C874 H869 0.949 . S
C874 C880 1.368 . S
C875 C859 1.349 . S
C875 H867 0.950 . S
C875 C873 1.327 . S
C876 C864 1.349 . S
C876 H870 0.950 . S
C876 C877 1.327 . S
C877 H871 0.950 . S
C877 C876 1.327 . S
C877 C881 1.429 . S
C878 C861 1.574 . S
C878 H872 0.949 . S
C878 C882 1.368 . S
C879 C860 1.429 . S
C879 C873 1.429 . S
C879 C880 1.523 . S
C880 C861 1.368 . S
C880 C874 1.368 . S
C880 C879 1.523 . S
C881 C865 1.429 . S
C881 C877 1.429 . S
C881 C882 1.523 . S
C882 C866 1.368 . S
C882 C878 1.368 . S
C882 C881 1.523 . S
H883 C858 0.950 . S
H884 C860 0.950 . S
H885 C861 0.949 . S
H886 C863 0.950 . S
H887 C865 0.950 . S
C169 C135 1.583 1_554 S
C174 C9 1.583 . S
C199 C23 1.583 . S
C204 C149 1.583 . S
C229 C163 1.583 . S
C234 C37 1.583 . S
C259 C93 1.583 . S
C264 C51 1.583 . S
C289 C107 1.583 . S
C294 C65 1.583 1_556 S
C319 C121 1.583 . S
C324 C79 1.583 . S
C349 C87 1.468 . S
C354 C3 1.468 . S
C379 C17 1.467 . S
C384 C101 1.467 . S
C409 C115 1.468 . S
C414 C31 1.468 . S
C439 C45 1.468 . S
C444 C129 1.468 . S
C469 C143 1.468 . S
C474 C59 1.468 . S
C499 C73 1.468 . S
C504 C157 1.468 . S
C529 C133 1.214 . S
C534 C7 1.214 . S
C559 C147 1.214 1_556 S
C564 C21 1.214 . S
C589 C161 1.214 . S
C594 C35 1.214 . S
C619 C49 1.214 1_554 S
C624 C91 1.214 . S
C649 C105 1.215 . S
C654 C63 1.215 . S
C679 C77 1.214 . S
C684 C119 1.214 . S
C709 C8 1.087 . S
C714 C120 1.087 . S
C739 C134 1.087 . S
C744 C22 1.087 . S
C769 C148 1.087 . S
C774 C36 1.087 . S
C799 C162 1.087 . S
C804 C50 1.087 . S
C829 C92 1.087 . S
C834 C64 1.087 . S
C859 C106 1.086 . S
C864 C78 1.086 . S
