# Generated by pormake.
# Topology yfl, (5)-cn, num edge types: 1
# Building blocks:
#     Node 0, Type 0, BuildingBlock: XOMCOT_clean_sbu_0, # of connection points: 5
#     Node 1, Type 0, BuildingBlock: XOMCOT_clean_sbu_0, # of connection points: 5
#     Node 2, Type 0, BuildingBlock: XOMCOT_clean_sbu_0, # of connection points: 5
#     Node 3, Type 0, BuildingBlock: XOMCOT_clean_sbu_0, # of connection points: 5
#     Node 4, Type 0, BuildingBlock: XOMCOT_clean_sbu_0, # of connection points: 5
#     Node 5, Type 0, BuildingBlock: XOMCOT_clean_sbu_0, # of connection points: 5
#     Node 6, Type 0, BuildingBlock: XOMCOT_clean_sbu_0, # of connection points: 5
#     Node 7, Type 0, BuildingBlock: XOMCOT_clean_sbu_0, # of connection points: 5
#     Node 8, Type 0, BuildingBlock: XOMCOT_clean_sbu_0, # of connection points: 5
#     Node 9, Type 0, BuildingBlock: XOMCOT_clean_sbu_0, # of connection points: 5
#     Node 10, Type 0, BuildingBlock: XOMCOT_clean_sbu_0, # of connection points: 5
#     Node 11, Type 0, BuildingBlock: XOMCOT_clean_sbu_0, # of connection points: 5
#     Node 12, Type 0, BuildingBlock: XOMCOT_clean_sbu_0, # of connection points: 5
#     Node 13, Type 0, BuildingBlock: XOMCOT_clean_sbu_0, # of connection points: 5
#     Node 14, Type 0, BuildingBlock: XOMCOT_clean_sbu_0, # of connection points: 5
#     Node 15, Type 0, BuildingBlock: XOMCOT_clean_sbu_0, # of connection points: 5
#     Edge 16, Type (0, 0), BuildingBlock: AJUNOK_clean_linker_0, # of connection points: 2
#     Edge 17, Type (0, 0), BuildingBlock: AJUNOK_clean_linker_0, # of connection points: 2
#     Edge 18, Type (0, 0), BuildingBlock: AJUNOK_clean_linker_0, # of connection points: 2
#     Edge 19, Type (0, 0), BuildingBlock: AJUNOK_clean_linker_0, # of connection points: 2
#     Edge 20, Type (0, 0), BuildingBlock: AJUNOK_clean_linker_0, # of connection points: 2
#     Edge 21, Type (0, 0), BuildingBlock: AJUNOK_clean_linker_0, # of connection points: 2
#     Edge 22, Type (0, 0), BuildingBlock: AJUNOK_clean_linker_0, # of connection points: 2
#     Edge 23, Type (0, 0), BuildingBlock: AJUNOK_clean_linker_0, # of connection points: 2
#     Edge 24, Type (0, 0), BuildingBlock: AJUNOK_clean_linker_0, # of connection points: 2
#     Edge 25, Type (0, 0), BuildingBlock: AJUNOK_clean_linker_0, # of connection points: 2
#     Edge 26, Type (0, 0), BuildingBlock: AJUNOK_clean_linker_0, # of connection points: 2
#     Edge 27, Type (0, 0), BuildingBlock: AJUNOK_clean_linker_0, # of connection points: 2
#     Edge 28, Type (0, 0), BuildingBlock: AJUNOK_clean_linker_0, # of connection points: 2
#     Edge 29, Type (0, 0), BuildingBlock: AJUNOK_clean_linker_0, # of connection points: 2
#     Edge 30, Type (0, 0), BuildingBlock: AJUNOK_clean_linker_0, # of connection points: 2
#     Edge 31, Type (0, 0), BuildingBlock: AJUNOK_clean_linker_0, # of connection points: 2
#     Edge 32, Type (0, 0), BuildingBlock: AJUNOK_clean_linker_0, # of connection points: 2
#     Edge 33, Type (0, 0), BuildingBlock: AJUNOK_clean_linker_0, # of connection points: 2
#     Edge 34, Type (0, 0), BuildingBlock: AJUNOK_clean_linker_0, # of connection points: 2
#     Edge 35, Type (0, 0), BuildingBlock: AJUNOK_clean_linker_0, # of connection points: 2
#     Edge 36, Type (0, 0), BuildingBlock: AJUNOK_clean_linker_0, # of connection points: 2
#     Edge 37, Type (0, 0), BuildingBlock: AJUNOK_clean_linker_0, # of connection points: 2
#     Edge 38, Type (0, 0), BuildingBlock: AJUNOK_clean_linker_0, # of connection points: 2
#     Edge 39, Type (0, 0), BuildingBlock: AJUNOK_clean_linker_0, # of connection points: 2
#     Edge 40, Type (0, 0), BuildingBlock: AJUNOK_clean_linker_0, # of connection points: 2
#     Edge 41, Type (0, 0), BuildingBlock: AJUNOK_clean_linker_0, # of connection points: 2
#     Edge 42, Type (0, 0), BuildingBlock: AJUNOK_clean_linker_0, # of connection points: 2
#     Edge 43, Type (0, 0), BuildingBlock: AJUNOK_clean_linker_0, # of connection points: 2
#     Edge 44, Type (0, 0), BuildingBlock: AJUNOK_clean_linker_0, # of connection points: 2
#     Edge 45, Type (0, 0), BuildingBlock: AJUNOK_clean_linker_0, # of connection points: 2
#     Edge 46, Type (0, 0), BuildingBlock: AJUNOK_clean_linker_0, # of connection points: 2
#     Edge 47, Type (0, 0), BuildingBlock: AJUNOK_clean_linker_0, # of connection points: 2
#     Edge 48, Type (0, 0), BuildingBlock: AJUNOK_clean_linker_0, # of connection points: 2
#     Edge 49, Type (0, 0), BuildingBlock: AJUNOK_clean_linker_0, # of connection points: 2
#     Edge 50, Type (0, 0), BuildingBlock: AJUNOK_clean_linker_0, # of connection points: 2
#     Edge 51, Type (0, 0), BuildingBlock: AJUNOK_clean_linker_0, # of connection points: 2
#     Edge 52, Type (0, 0), BuildingBlock: AJUNOK_clean_linker_0, # of connection points: 2
#     Edge 53, Type (0, 0), BuildingBlock: AJUNOK_clean_linker_0, # of connection points: 2
#     Edge 54, Type (0, 0), BuildingBlock: AJUNOK_clean_linker_0, # of connection points: 2
#     Edge 55, Type (0, 0), BuildingBlock: AJUNOK_clean_linker_0, # of connection points: 2
# Relax obj value: 0.330
# Max RMSD: 0.259
# Mean RMSD: 0.259
data_MOF--net-yfl--node1-XOMCOT_clean_sbu_0--edge1-AJUNOK_clean_linker_0
_symmetry_space_group_name_H-M    P1
_symmetry_Int_Tables_number       1
_symmetry_cell_setting            triclinic
loop_
_symmetry_equiv_pos_as_xyz
'x, y, z'
_cell_length_a     23.256271
_cell_length_b     23.317268
_cell_length_c     79.518958
_cell_angle_alpha  89.999682
_cell_angle_beta   89.971183
_cell_angle_gamma 89.969869
loop_
_atom_site_label
_atom_site_type_symbol
_atom_site_fract_x
_atom_site_fract_y
_atom_site_fract_z
_atom_type_partial_charge
Co0 Co 0.05684 0.33215 0.31611 0.0
C1 C 0.1478 0.30344 0.34094 0.0
C2 C 0.18195 0.34612 0.31932 0.0
C3 C 0.22459 0.3421 0.33127 0.0
N4 N 0.13375 0.32118 0.32526 0.0
N5 N 0.20313 0.31515 0.34491 0.0
H6 H 0.11725 0.28667 0.34985 0.0
H7 H 0.18463 0.37056 0.3078 0.0
C8 C 0.12517 0.30639 0.28409 0.0
O9 O 0.1504 0.26051 0.29021 0.0
N10 N 0.97993 0.34379 0.30708 0.0
C11 C 0.93002 0.34161 0.31575 0.0
C12 C 0.88469 0.34634 0.30466 0.0
C13 C 0.96405 0.34875 0.29077 0.0
N14 N 0.90641 0.35038 0.28903 0.0
C15 C 0.03504 0.22167 0.33063 0.0
C16 C 0.0182 0.16408 0.30065 0.0
C17 C 0.01339 0.13382 0.31578 0.0
C18 C 0.02163 0.16331 0.33092 0.0
C19 C 0.03146 0.2224 0.30094 0.0
N20 N 0.04212 0.25008 0.31577 0.0
H21 H 0.03789 0.24424 0.3424 0.0
H22 H 0.03135 0.24533 0.28918 0.0
H23 H 0.92644 0.33461 0.32914 0.0
H24 H 0.99352 0.34967 0.28026 0.0
O25 O 0.0291 0.3523 0.33858 0.0
O26 O 0.06543 0.41244 0.31973 0.0
O27 O 0.08835 0.33435 0.29265 0.0
C28 C 0.04418 0.40447 0.33461 0.0
H29 H 0.2663 0.36243 0.33049 0.0
H30 H 0.83936 0.34453 0.30773 0.0
H31 H 0.01033 0.14315 0.28871 0.0
H32 H 0.01758 0.14156 0.3429 0.0
Co33 Co 0.32006 0.93219 0.69455 0.0
C34 C 0.29631 0.84223 0.66952 0.0
C35 C 0.35396 0.81295 0.68863 0.0
C36 C 0.35465 0.77407 0.67558 0.0
N37 N 0.31712 0.85577 0.68488 0.0
N38 N 0.31911 0.79314 0.66342 0.0
H39 H 0.26829 0.86965 0.66239 0.0
H40 H 0.38264 0.81284 0.69934 0.0
C41 C 0.30083 0.85589 0.72543 0.0
O42 O 0.27296 0.81663 0.71685 0.0
N43 N 0.32439 0.00851 0.70381 0.0
C44 C 0.30084 0.05713 0.6978 0.0
C45 C 0.31215 0.10102 0.70898 0.0
C46 C 0.35011 0.02334 0.71828 0.0
N47 N 0.34326 0.07962 0.72187 0.0
C48 C 0.21174 0.95354 0.67858 0.0
C49 C 0.14556 0.95056 0.70742 0.0
C50 C 0.11901 0.96181 0.692 0.0
C51 C 0.15277 0.96389 0.67747 0.0
C52 C 0.20464 0.94088 0.708 0.0
N53 N 0.23686 0.94028 0.69361 0.0
H54 H 0.23737 0.9581 0.66736 0.0
H55 H 0.22409 0.93671 0.72019 0.0
H56 H 0.27633 0.06027 0.68628 0.0
H57 H 0.37169 0.99268 0.72623 0.0
O58 O 0.3413 0.96295 0.67263 0.0
O59 O 0.4017 0.93063 0.69209 0.0
O60 O 0.31925 0.90124 0.71826 0.0
C61 C 0.39396 0.95233 0.67725 0.0
H62 H 0.38302 0.73744 0.67449 0.0
H63 H 0.29805 0.14508 0.70779 0.0
H64 H 0.12118 0.95135 0.71904 0.0
H65 H 0.13387 0.97407 0.66538 0.0
Co66 Co 0.95463 0.68656 0.31642 0.0
C67 C 0.86219 0.69947 0.34169 0.0
C68 C 0.83212 0.65403 0.32003 0.0
C69 C 0.78935 0.65347 0.33205 0.0
N70 N 0.87744 0.68426 0.32589 0.0
N71 N 0.80875 0.6817 0.34566 0.0
H72 H 0.89078 0.71912 0.35067 0.0
H73 H 0.83159 0.62991 0.30844 0.0
C74 C 0.88116 0.69378 0.28421 0.0
O75 O 0.84472 0.73202 0.29003 0.0
N76 N 0.03178 0.68825 0.3072 0.0
C77 C 0.07773 0.71624 0.31348 0.0
C78 C 0.12234 0.71271 0.30202 0.0
C79 C 0.04913 0.66785 0.29218 0.0
N80 N 0.10393 0.68244 0.28861 0.0
C81 C 0.95756 0.79941 0.33055 0.0
C82 C 0.96395 0.85793 0.30038 0.0
C83 C 0.96592 0.889 0.31544 0.0
C84 C 0.96283 0.859 0.33067 0.0
C85 C 0.95871 0.79831 0.30082 0.0
N86 N 0.95409 0.76982 0.31578 0.0
H87 H 0.95921 0.77702 0.34237 0.0
H88 H 0.96109 0.77521 0.28911 0.0
H89 H 0.07819 0.73916 0.3253 0.0
H90 H 0.02172 0.64492 0.28361 0.0
O91 O 0.98672 0.67285 0.33878 0.0
O92 O 0.96064 0.60637 0.32024 0.0
O93 O 0.92412 0.67788 0.29296 0.0
C94 C 0.98063 0.61877 0.335 0.0
H95 H 0.74911 0.63025 0.33139 0.0
H96 H 0.1647 0.73127 0.30343 0.0
H97 H 0.96764 0.87942 0.28835 0.0
H98 H 0.96691 0.88111 0.34259 0.0
Co99 Co 0.67815 0.06204 0.69252 0.0
C100 C 0.68833 0.14538 0.66484 0.0
C101 C 0.6817 0.18993 0.68828 0.0
C102 C 0.68327 0.22982 0.67542 0.0
N103 N 0.68585 0.13672 0.68164 0.0
N104 N 0.68693 0.2013 0.66075 0.0
H105 H 0.68954 0.11154 0.65556 0.0
H106 H 0.67484 0.19977 0.70138 0.0
C107 C 0.70877 0.12753 0.72502 0.0
O108 O 0.75898 0.14558 0.71962 0.0
N109 N 0.67018 0.98705 0.70267 0.0
C110 C 0.69421 0.93855 0.69663 0.0
C111 C 0.6859 0.89513 0.70807 0.0
C112 C 0.64651 0.97238 0.71755 0.0
N113 N 0.65582 0.9165 0.7211 0.0
C114 C 0.79072 0.05412 0.67796 0.0
C115 C 0.84588 0.01947 0.70704 0.0
C116 C 0.87707 0.02214 0.69201 0.0
C117 C 0.84908 0.04032 0.67736 0.0
C118 C 0.78766 0.03335 0.70706 0.0
N119 N 0.76089 0.05139 0.69271 0.0
H120 H 0.76913 0.06464 0.6664 0.0
H121 H 0.76363 0.02784 0.71857 0.0
H122 H 0.71844 0.9357 0.68505 0.0
H123 H 0.62553 0.00229 0.72597 0.0
O124 O 0.65916 0.02673 0.67104 0.0
O125 O 0.59724 0.06585 0.68902 0.0
O126 O 0.67607 0.09743 0.71563 0.0
C127 C 0.60612 0.03944 0.67489 0.0
H128 H 0.67895 0.27586 0.67666 0.0
H129 H 0.70191 0.85164 0.70714 0.0
H130 H 0.86607 0.00595 0.71866 0.0
H131 H 0.8716 0.04192 0.66544 0.0
Co132 Co 0.06381 0.16758 0.94127 0.0
C133 C 0.153 0.17489 0.91461 0.0
C134 C 0.19184 0.17836 0.93897 0.0
C135 C 0.23464 0.1797 0.92698 0.0
N136 N 0.14024 0.17594 0.93125 0.0
N137 N 0.21015 0.17686 0.91164 0.0
H138 H 0.12123 0.17116 0.90476 0.0
H139 H 0.19908 0.1775 0.95233 0.0
C140 C 0.12203 0.19716 0.97534 0.0
O141 O 0.13803 0.24935 0.97126 0.0
N142 N 0.98775 0.15866 0.95085 0.0
C143 C 0.93887 0.18163 0.94476 0.0
C144 C 0.89584 0.17424 0.95646 0.0
C145 C 0.97361 0.13646 0.96595 0.0
N146 N 0.91784 0.14653 0.96991 0.0
C147 C 0.05927 0.27998 0.92669 0.0
C148 C 0.02108 0.33639 0.95518 0.0
C149 C 0.02908 0.36799 0.94036 0.0
C150 C 0.04776 0.33877 0.92592 0.0
C151 C 0.0322 0.27755 0.95533 0.0
N152 N 0.05273 0.2503 0.94135 0.0
H153 H 0.07179 0.25795 0.91534 0.0
H154 H 0.02358 0.25373 0.9667 0.0
H155 H 0.93561 0.20504 0.93306 0.0
H156 H 0.00395 0.11439 0.97395 0.0
O157 O 0.03129 0.14847 0.91939 0.0
O158 O 0.06865 0.08686 0.93771 0.0
O159 O 0.09645 0.16495 0.96475 0.0
C160 C 0.04412 0.0956 0.92329 0.0
H161 H 0.28023 0.18263 0.9295 0.0
H162 H 0.8525 0.19085 0.9555 0.0
H163 H 0.00606 0.35686 0.96659 0.0
H164 H 0.05201 0.36071 0.91398 0.0
Co165 Co 0.17218 0.9424 0.06713 0.0
C166 C 0.18752 0.84648 0.09104 0.0
C167 C 0.13444 0.82255 0.07022 0.0
C168 C 0.1314 0.77998 0.08219 0.0
N169 N 0.17027 0.86416 0.07564 0.0
N170 N 0.16437 0.7955 0.09535 0.0
H171 H 0.21097 0.87288 0.0998 0.0
H172 H 0.10798 0.82527 0.05907 0.0
C173 C 0.18042 0.87129 0.03483 0.0
O174 O 0.21606 0.83368 0.04138 0.0
N175 N 0.17298 0.02058 0.05884 0.0
C176 C 0.2079 0.06363 0.06368 0.0
C177 C 0.20294 0.10807 0.05227 0.0
C178 C 0.14635 0.03998 0.04493 0.0
N179 N 0.16438 0.09285 0.0404 0.0
C180 C 0.2848 0.94764 0.0816 0.0
C181 C 0.34481 0.95217 0.05163 0.0
C182 C 0.37528 0.95624 0.06678 0.0
C183 C 0.34442 0.9542 0.0819 0.0
C184 C 0.28511 0.94645 0.05189 0.0
N185 N 0.25582 0.94269 0.06675 0.0
H186 H 0.26178 0.94971 0.09334 0.0
H187 H 0.2627 0.94795 0.04005 0.0
H188 H 0.23779 0.06143 0.07407 0.0
H189 H 0.11613 0.01496 0.03782 0.0
O190 O 0.15739 0.97064 0.08986 0.0
O191 O 0.09166 0.94683 0.07078 0.0
O192 O 0.16484 0.9152 0.04322 0.0
C193 C 0.10341 0.96392 0.08589 0.0
H194 H 0.10409 0.74244 0.08172 0.0
H195 H 0.22902 0.14647 0.05207 0.0
H196 H 0.36676 0.95476 0.03964 0.0
H197 H 0.36575 0.96007 0.09388 0.0
Co198 Co 0.938 0.8116 0.93899 0.0
C199 C 0.85113 0.79398 0.91223 0.0
C200 C 0.81365 0.82857 0.93465 0.0
C201 C 0.77319 0.83044 0.92203 0.0
N202 N 0.86263 0.80525 0.92859 0.0
N203 N 0.79687 0.80832 0.90804 0.0
H204 H 0.88305 0.78159 0.90305 0.0
H205 H 0.809 0.8482 0.94687 0.0
C206 C 0.86762 0.7902 0.97163 0.0
O207 O 0.84378 0.74139 0.96727 0.0
N208 N 0.01302 0.81915 0.94934 0.0
C209 C 0.06461 0.80599 0.94264 0.0
C210 C 0.10654 0.81507 0.95465 0.0
C211 C 0.02419 0.83563 0.96524 0.0
N212 N 0.08091 0.834 0.96884 0.0
C213 C 0.95253 0.69984 0.92457 0.0
C214 C 0.96923 0.64197 0.95452 0.0
C215 C 0.97303 0.61166 0.93938 0.0
C216 C 0.96477 0.64119 0.92426 0.0
C217 C 0.95787 0.70082 0.95425 0.0
N218 N 0.94778 0.72877 0.93943 0.0
H219 H 0.94919 0.72232 0.91279 0.0
H220 H 0.95933 0.72412 0.96595 0.0
H221 H 0.07123 0.78991 0.93003 0.0
H222 H 0.9912 0.84621 0.97425 0.0
O223 O 0.97242 0.8301 0.91724 0.0
O224 O 0.93492 0.89218 0.93538 0.0
O225 O 0.90243 0.81612 0.96193 0.0
C226 C 0.95994 0.8831 0.92107 0.0
H227 H 0.73109 0.85014 0.92273 0.0
H228 H 0.15222 0.80795 0.95309 0.0
H229 H 0.97706 0.62075 0.96643 0.0
H230 H 0.96847 0.61923 0.9123 0.0
Co231 Co 0.81981 0.04168 0.06701 0.0
C232 C 0.82099 0.13052 0.09383 0.0
C233 C 0.78452 0.16428 0.07121 0.0
C234 C 0.78226 0.20612 0.08349 0.0
N235 N 0.80908 0.11663 0.07766 0.0
N236 N 0.80571 0.18473 0.09764 0.0
H237 H 0.8381 0.10108 0.10303 0.0
H238 H 0.76789 0.16859 0.05866 0.0
C239 C 0.79728 0.10095 0.03233 0.0
O240 O 0.74147 0.10825 0.03363 0.0
N241 N 0.8303 0.96684 0.05671 0.0
C242 C 0.80733 0.9175 0.06238 0.0
C243 C 0.81238 0.8764 0.05004 0.0
C244 C 0.85044 0.95466 0.04119 0.0
N245 N 0.83871 0.89987 0.03655 0.0
C246 C 0.7064 0.03804 0.08051 0.0
C247 C 0.65248 0.99771 0.05184 0.0
C248 C 0.62024 0.00559 0.06651 0.0
C249 C 0.64766 0.02591 0.08099 0.0
C250 C 0.71126 0.00952 0.05197 0.0
N251 N 0.73725 0.03063 0.06608 0.0
H252 H 0.72752 0.05225 0.09186 0.0
H253 H 0.73608 0.00078 0.04078 0.0
H254 H 0.78456 0.91293 0.07417 0.0
H255 H 0.87173 0.98595 0.03336 0.0
O256 O 0.83619 0.00692 0.08879 0.0
O257 O 0.89992 0.04639 0.07138 0.0
O258 O 0.82631 0.07808 0.04415 0.0
C259 C 0.88948 0.02075 0.08552 0.0
H260 H 0.76444 0.24878 0.08216 0.0
H261 H 0.79443 0.83364 0.05059 0.0
H262 H 0.63267 0.98115 0.04051 0.0
H263 H 0.62392 0.03217 0.09257 0.0
Co264 Co 0.54212 0.82044 0.81736 0.0
C265 C 0.64449 0.80169 0.83891 0.0
C266 C 0.66079 0.86276 0.81938 0.0
C267 C 0.70628 0.86376 0.83048 0.0
N268 N 0.62202 0.82345 0.82458 0.0
N269 N 0.69585 0.82516 0.84269 0.0
H270 H 0.62146 0.77444 0.84752 0.0
H271 H 0.65408 0.89235 0.8091 0.0
C272 C 0.60947 0.80966 0.78496 0.0
O273 O 0.64775 0.7768 0.79237 0.0
N274 N 0.46244 0.81851 0.81032 0.0
C275 C 0.42216 0.78036 0.81522 0.0
C276 C 0.37702 0.78215 0.80399 0.0
C277 C 0.44023 0.84454 0.79665 0.0
N278 N 0.38861 0.82252 0.79236 0.0
C279 C 0.53997 0.70785 0.83186 0.0
C280 C 0.52812 0.6487 0.80196 0.0
C281 C 0.52565 0.61842 0.81713 0.0
C282 C 0.53241 0.64852 0.83221 0.0
C283 C 0.53543 0.70799 0.80217 0.0
N284 N 0.5426 0.73695 0.81698 0.0
H285 H 0.53996 0.7306 0.84365 0.0
H286 H 0.53165 0.73041 0.79039 0.0
H287 H 0.42719 0.75004 0.82539 0.0
H288 H 0.46322 0.87594 0.78927 0.0
O289 O 0.51823 0.83455 0.84055 0.0
O290 O 0.53705 0.9008 0.82119 0.0
O291 O 0.56549 0.82726 0.79303 0.0
C292 C 0.52332 0.88853 0.83658 0.0
H293 H 0.74204 0.89346 0.83031 0.0
H294 H 0.3402 0.75377 0.80379 0.0
H295 H 0.5228 0.627 0.79002 0.0
H296 H 0.52914 0.6268 0.84422 0.0
Co297 Co 0.82348 0.43296 0.1924 0.0
C298 C 0.80351 0.34203 0.16708 0.0
C299 C 0.84411 0.30898 0.18919 0.0
C300 C 0.84388 0.26669 0.17712 0.0
N301 N 0.81765 0.35608 0.18307 0.0
N302 N 0.81901 0.28789 0.16314 0.0
H303 H 0.78785 0.37218 0.15788 0.0
H304 H 0.86632 0.30674 0.20111 0.0
C305 C 0.79857 0.36236 0.22435 0.0
O306 O 0.76359 0.32583 0.21707 0.0
N307 N 0.83064 0.50963 0.20151 0.0
C308 C 0.81751 0.55976 0.19401 0.0
C309 C 0.82606 0.60366 0.20542 0.0
C310 C 0.84668 0.5236 0.21724 0.0
N311 N 0.84462 0.58073 0.22003 0.0
C312 C 0.71433 0.4508 0.17643 0.0
C313 C 0.65221 0.46679 0.20569 0.0
C314 C 0.62429 0.47263 0.19021 0.0
C315 C 0.65592 0.46427 0.17543 0.0
C316 C 0.71059 0.45337 0.20612 0.0
N317 N 0.74074 0.44401 0.19162 0.0
H318 H 0.73865 0.44828 0.16494 0.0
H319 H 0.73174 0.45342 0.21815 0.0
H320 H 0.80182 0.56404 0.18127 0.0
H321 H 0.85746 0.49223 0.22666 0.0
O322 O 0.84531 0.46224 0.17036 0.0
O323 O 0.90481 0.4282 0.18982 0.0
O324 O 0.82208 0.40289 0.21613 0.0
C325 C 0.89768 0.4499 0.17495 0.0
H326 H 0.86309 0.22461 0.17831 0.0
H327 H 0.81882 0.64885 0.20314 0.0
H328 H 0.62958 0.47461 0.21739 0.0
H329 H 0.63593 0.46887 0.16321 0.0
Co330 Co 0.4672 0.17135 0.81888 0.0
C331 C 0.37161 0.18726 0.8429 0.0
C332 C 0.34425 0.13889 0.8215 0.0
C333 C 0.30044 0.13892 0.83322 0.0
N334 N 0.38858 0.17049 0.82739 0.0
N335 N 0.31816 0.1691 0.84666 0.0
H336 H 0.39924 0.20767 0.85198 0.0
H337 H 0.34528 0.11343 0.81014 0.0
C338 C 0.39663 0.1821 0.78653 0.0
O339 O 0.36113 0.21946 0.79327 0.0
N340 N 0.54596 0.17176 0.81078 0.0
C341 C 0.58824 0.20832 0.81523 0.0
C342 C 0.63181 0.20517 0.80344 0.0
C343 C 0.56542 0.14555 0.79683 0.0
N344 N 0.61688 0.16604 0.79174 0.0
C345 C 0.4711 0.28415 0.83314 0.0
C346 C 0.48 0.34264 0.80302 0.0
C347 C 0.48141 0.37348 0.81809 0.0
C348 C 0.47724 0.34364 0.8333 0.0
C349 C 0.47424 0.28315 0.80342 0.0
N350 N 0.46808 0.25466 0.81834 0.0
H351 H 0.47172 0.26175 0.84496 0.0
H352 H 0.47788 0.26014 0.79172 0.0
H353 H 0.58553 0.23873 0.82547 0.0
H354 H 0.5412 0.11404 0.79005 0.0
O355 O 0.49498 0.1569 0.84169 0.0
O356 O 0.47092 0.09114 0.82267 0.0
O357 O 0.43981 0.16387 0.79487 0.0
C358 C 0.48772 0.10304 0.8378 0.0
H359 H 0.26087 0.11459 0.83256 0.0
H360 H 0.66888 0.23311 0.80275 0.0
H361 H 0.48568 0.36408 0.79104 0.0
H362 H 0.47974 0.36601 0.84522 0.0
Co363 Co 0.18094 0.55971 0.1919 0.0
C364 C 0.19413 0.65173 0.16649 0.0
C365 C 0.14527 0.67962 0.18781 0.0
C366 C 0.14106 0.72069 0.17542 0.0
N367 N 0.17916 0.63644 0.18232 0.0
N368 N 0.17191 0.70293 0.16208 0.0
H369 H 0.21473 0.6236 0.15758 0.0
H370 H 0.12067 0.67887 0.19935 0.0
C371 C 0.1994 0.63486 0.22285 0.0
O372 O 0.23482 0.66896 0.21475 0.0
N373 N 0.18146 0.48303 0.20117 0.0
C374 C 0.21257 0.43799 0.1957 0.0
C375 C 0.20763 0.39402 0.20721 0.0
C376 C 0.15701 0.46556 0.21563 0.0
N377 N 0.17277 0.41153 0.21979 0.0
C378 C 0.29206 0.55211 0.17637 0.0
C379 C 0.35385 0.54119 0.20587 0.0
C380 C 0.38277 0.53675 0.19049 0.0
C381 C 0.35125 0.54253 0.1756 0.0
C382 C 0.29468 0.55074 0.20608 0.0
N383 N 0.26452 0.5574 0.19146 0.0
H384 H 0.26808 0.55148 0.16481 0.0
H385 H 0.27301 0.5492 0.21805 0.0
H386 H 0.23953 0.43821 0.18462 0.0
H387 H 0.12954 0.49254 0.22321 0.0
O388 O 0.16344 0.52726 0.16991 0.0
O389 O 0.09976 0.55581 0.18904 0.0
O390 O 0.17791 0.59121 0.21549 0.0
C391 C 0.10987 0.53423 0.1743 0.0
H392 H 0.11387 0.75839 0.17566 0.0
H393 H 0.23104 0.35395 0.20684 0.0
H394 H 0.3765 0.53559 0.21766 0.0
H395 H 0.3716 0.53679 0.16346 0.0
Co396 Co 0.55192 0.68252 0.43973 0.0
C397 C 0.64135 0.68336 0.41309 0.0
C398 C 0.67907 0.69059 0.43758 0.0
C399 C 0.72233 0.69195 0.42574 0.0
N400 N 0.62814 0.68508 0.42965 0.0
N401 N 0.69859 0.68677 0.41033 0.0
H402 H 0.60986 0.67926 0.40318 0.0
H403 H 0.68486 0.69437 0.45101 0.0
C404 C 0.57067 0.70316 0.47679 0.0
O405 O 0.52952 0.74181 0.47682 0.0
N406 N 0.47483 0.67935 0.44972 0.0
C407 C 0.427 0.70708 0.4446 0.0
C408 C 0.38382 0.6985 0.45612 0.0
C409 C 0.45835 0.65125 0.46384 0.0
N410 N 0.40349 0.66368 0.46836 0.0
C411 C 0.51605 0.79053 0.42647 0.0
C412 C 0.57948 0.85888 0.4479 0.0
C413 C 0.53965 0.88421 0.43703 0.0
C414 C 0.50898 0.8497 0.42586 0.0
C415 C 0.58456 0.79923 0.44822 0.0
N416 N 0.54965 0.7657 0.43851 0.0
H417 H 0.49339 0.7647 0.4174 0.0
H418 H 0.61637 0.78044 0.45639 0.0
H419 H 0.42293 0.73297 0.43348 0.0
H420 H 0.4868 0.62403 0.47106 0.0
O421 O 0.51825 0.66383 0.41805 0.0
O422 O 0.55084 0.60139 0.43695 0.0
O423 O 0.58719 0.68083 0.46292 0.0
C424 C 0.52806 0.61086 0.42231 0.0
H425 H 0.76756 0.69791 0.42836 0.0
H426 H 0.34236 0.71948 0.4559 0.0
H427 H 0.60529 0.88476 0.45632 0.0
H428 H 0.47955 0.86834 0.41682 0.0
Co429 Co 0.66986 0.43465 0.56357 0.0
C430 C 0.69112 0.3469 0.58956 0.0
C431 C 0.66146 0.30826 0.56679 0.0
C432 C 0.6633 0.26687 0.57915 0.0
N433 N 0.68029 0.35847 0.57318 0.0
N434 N 0.68113 0.29158 0.59357 0.0
H435 H 0.70024 0.37925 0.59888 0.0
H436 H 0.64317 0.3026 0.55442 0.0
C437 C 0.70139 0.36675 0.53208 0.0
O438 O 0.74359 0.33948 0.53959 0.0
N439 N 0.65821 0.5108 0.55453 0.0
C440 C 0.67077 0.56041 0.56243 0.0
C441 C 0.65708 0.60545 0.55197 0.0
C442 C 0.63736 0.52617 0.53935 0.0
N443 N 0.63615 0.58375 0.53752 0.0
C444 C 0.78113 0.45238 0.57857 0.0
C445 C 0.83841 0.4766 0.54893 0.0
C446 C 0.86896 0.47786 0.56407 0.0
C447 C 0.83964 0.46588 0.57905 0.0
C448 C 0.77984 0.4635 0.54904 0.0
N449 N 0.75226 0.44943 0.56366 0.0
H450 H 0.75883 0.44622 0.59028 0.0
H451 H 0.75643 0.46648 0.53738 0.0
H452 H 0.6895 0.56359 0.57484 0.0
H453 H 0.62351 0.49614 0.5298 0.0
O454 O 0.64858 0.46381 0.58567 0.0
O455 O 0.58899 0.42619 0.56684 0.0
O456 O 0.67101 0.40366 0.53988 0.0
C457 C 0.59641 0.44891 0.58157 0.0
H458 H 0.65012 0.22268 0.57771 0.0
H459 H 0.66371 0.65055 0.55456 0.0
H460 H 0.85925 0.48732 0.53715 0.0
H461 H 0.86167 0.46727 0.59104 0.0
Co462 Co 0.45129 0.32495 0.43999 0.0
C463 C 0.35807 0.29639 0.41635 0.0
C464 C 0.33056 0.35647 0.43505 0.0
C465 C 0.28976 0.35453 0.42253 0.0
N466 N 0.37345 0.31975 0.43125 0.0
N467 N 0.30751 0.31746 0.41059 0.0
H468 H 0.38536 0.2678 0.4093 0.0
H469 H 0.33159 0.38689 0.44531 0.0
C470 C 0.37777 0.31369 0.47176 0.0
O471 O 0.33862 0.28162 0.46446 0.0
N472 N 0.5297 0.33068 0.44852 0.0
C473 C 0.57812 0.34256 0.43981 0.0
C474 C 0.62374 0.34587 0.45084 0.0
C475 C 0.5473 0.32475 0.46463 0.0
N476 N 0.60406 0.33503 0.46645 0.0
C477 C 0.47718 0.21718 0.42498 0.0
C478 C 0.4696 0.15181 0.45389 0.0
C479 C 0.48683 0.12597 0.43887 0.0
C480 C 0.49056 0.159 0.42428 0.0
C481 C 0.45752 0.21034 0.45412 0.0
N482 N 0.46025 0.24223 0.43971 0.0
H483 H 0.48182 0.2422 0.41367 0.0
H484 H 0.44844 0.22955 0.46609 0.0
H485 H 0.58066 0.34859 0.42638 0.0
H486 H 0.51941 0.31365 0.47498 0.0
O487 O 0.47748 0.34413 0.41731 0.0
O488 O 0.44804 0.40577 0.43679 0.0
O489 O 0.42294 0.32848 0.46382 0.0
C490 C 0.46589 0.39679 0.42158 0.0
H491 H 0.25262 0.38235 0.42155 0.0
H492 H 0.6679 0.35554 0.44762 0.0
H493 H 0.46741 0.12732 0.46545 0.0
H494 H 0.50406 0.14008 0.41248 0.0
Co495 Co 0.31583 0.55665 0.56593 0.0
C496 C 0.29818 0.64534 0.59202 0.0
C497 C 0.33907 0.67994 0.57016 0.0
C498 C 0.33982 0.72084 0.58266 0.0
N499 N 0.31222 0.63264 0.57593 0.0
N500 N 0.31399 0.69901 0.59644 0.0
H501 H 0.28104 0.61464 0.60081 0.0
H502 H 0.3615 0.68293 0.55828 0.0
C503 C 0.29864 0.62741 0.53363 0.0
O504 O 0.25303 0.65502 0.53906 0.0
N505 N 0.32037 0.48096 0.55618 0.0
C506 C 0.29646 0.43246 0.56217 0.0
C507 C 0.30512 0.38911 0.55064 0.0
C508 C 0.34336 0.46665 0.54122 0.0
N509 N 0.33478 0.4108 0.53752 0.0
C510 C 0.20229 0.54698 0.5797 0.0
C511 C 0.14547 0.53309 0.54946 0.0
C512 C 0.11359 0.53163 0.56443 0.0
C513 C 0.14296 0.538 0.57969 0.0
C514 C 0.20491 0.5417 0.55005 0.0
N515 N 0.23239 0.55079 0.56501 0.0
H516 H 0.22423 0.54797 0.59159 0.0
H517 H 0.22892 0.53887 0.53848 0.0
H518 H 0.27286 0.4293 0.57386 0.0
H519 H 0.36351 0.49711 0.53284 0.0
O520 O 0.33092 0.52289 0.58796 0.0
O521 O 0.39635 0.55599 0.57005 0.0
O522 O 0.32348 0.58995 0.54271 0.0
C523 C 0.38488 0.53226 0.58439 0.0
H524 H 0.36232 0.76138 0.58204 0.0
H525 H 0.28992 0.34538 0.55166 0.0
H526 H 0.12482 0.52677 0.5374 0.0
H527 H 0.12068 0.53394 0.5916 0.0
C528 C 0.14436 0.3904 0.26588 0.0
C529 C 0.14135 0.33046 0.26757 0.0
C530 C 0.15502 0.41613 0.25033 0.0
C531 C 0.16225 0.38317 0.23567 0.0
H532 H 0.13846 0.4179 0.27674 0.0
H533 H 0.15803 0.46238 0.24989 0.0
S534 S 0.15566 0.22418 0.23323 0.0
N535 N 0.1458 0.23846 0.25338 0.0
N536 N 0.16407 0.28683 0.22384 0.0
C537 C 0.15944 0.32292 0.23716 0.0
C538 C 0.14941 0.29659 0.25318 0.0
C539 C 0.34855 0.78367 0.76595 0.0
C540 C 0.35976 0.83069 0.77655 0.0
C541 C 0.32659 0.79173 0.74964 0.0
C542 C 0.31487 0.84708 0.74347 0.0
H543 H 0.3593 0.74069 0.77004 0.0
H544 H 0.32129 0.75465 0.74158 0.0
S545 S 0.3276 0.98291 0.7676 0.0
N546 N 0.35233 0.93329 0.78053 0.0
N547 N 0.30876 0.94873 0.75027 0.0
C548 C 0.32249 0.89394 0.75445 0.0
C549 C 0.34562 0.88569 0.77089 0.0
C550 C 0.8265 0.66101 0.23993 0.0
C551 C 0.85596 0.61004 0.23574 0.0
C552 C 0.83449 0.68805 0.25559 0.0
C553 C 0.87189 0.66488 0.26772 0.0
H554 H 0.79621 0.67969 0.23117 0.0
H555 H 0.81115 0.72726 0.25819 0.0
S556 S 0.959 0.53164 0.26309 0.0
N557 N 0.92641 0.53937 0.24484 0.0
N558 N 0.93625 0.58569 0.27467 0.0
C559 C 0.90088 0.61337 0.26374 0.0
C560 C 0.89431 0.58717 0.24766 0.0
C561 C 0.60574 0.15193 0.7612 0.0
C562 C 0.64187 0.15834 0.77525 0.0
C563 C 0.62809 0.14321 0.74508 0.0
C564 C 0.68776 0.14155 0.74217 0.0
H565 H 0.55957 0.15428 0.76263 0.0
H566 H 0.59808 0.13777 0.73478 0.0
S567 S 0.80132 0.15736 0.77458 0.0
N568 N 0.7405 0.16308 0.78521 0.0
N569 N 0.78288 0.14799 0.7547 0.0
C570 C 0.72467 0.14954 0.75599 0.0
C571 C 0.70168 0.15774 0.77256 0.0
C572 C 0.14393 0.08739 0.00998 0.0
C573 C 0.15355 0.12073 0.02446 0.0
C574 C 0.13446 0.11275 0.99429 0.0
C575 C 0.13459 0.17276 0.99223 0.0
H576 H 0.14464 0.04104 0.01066 0.0
H577 H 0.12737 0.0847 0.98362 0.0
S578 S 0.15442 0.27979 0.02625 0.0
N579 N 0.16014 0.21723 0.03586 0.0
N580 N 0.14328 0.26508 0.0062 0.0
C581 C 0.14401 0.20685 0.00657 0.0
C582 C 0.15328 0.18085 0.02269 0.0
C583 C 0.15659 0.81561 0.9902 0.0
C584 C 0.1074 0.84603 0.98491 0.0
C585 C 0.18025 0.8239 0.00631 0.0
C586 C 0.15546 0.86273 0.01776 0.0
H587 H 0.17624 0.78418 0.98199 0.0
H588 H 0.21803 0.7995 0.00981 0.0
S589 S 0.0263 0.95348 0.00997 0.0
N590 N 0.03686 0.91902 0.99214 0.0
N591 N 0.07717 0.93027 0.0227 0.0
C592 C 0.10602 0.89315 0.01258 0.0
C593 C 0.08311 0.88596 0.9961 0.0
C594 C 0.85312 0.78557 1.00296 0.0
C595 C 0.85559 0.81772 0.98806 0.0
C596 C 0.84853 0.81279 0.01871 0.0
C597 C 0.84536 0.87316 0.02017 0.0
H598 H 0.85673 0.73928 1.0025 0.0
H599 H 0.84833 0.78618 0.02985 0.0
S600 S 0.84471 0.97603 0.9844 0.0
N601 N 0.85219 0.91259 0.97551 0.0
N602 N 0.84069 0.96349 0.00478 0.0
C603 C 0.84609 0.90549 0.00518 0.0
C604 C 0.85179 0.87782 0.98924 0.0
C605 C 0.7989 0.11781 1.00113 0.0
C606 C 0.82817 0.11597 0.01658 0.0
C607 C 0.82855 0.12736 0.98598 0.0
C608 C 0.8886 0.13579 0.98567 0.0
H609 H 0.75298 0.11025 1.00065 0.0
H610 H 0.80428 0.12703 0.97438 0.0
S611 S 0.98452 0.14107 0.02303 0.0
N612 N 0.92029 0.12673 0.03078 0.0
N613 N 0.97536 0.14635 1.00252 0.0
C614 C 0.9181 0.13574 1.00114 0.0
C615 C 0.88805 0.1255 0.01651 0.0
C616 C 0.67587 0.83436 0.76123 0.0
C617 C 0.61956 0.83163 0.76769 0.0
C618 C 0.68732 0.86144 0.74583 0.0
C619 C 0.64303 0.88722 0.73649 0.0
H620 H 0.71164 0.81712 0.76834 0.0
H621 H 0.73129 0.86377 0.74139 0.0
S622 S 0.48765 0.88465 0.74629 0.0
N623 N 0.51825 0.85111 0.76225 0.0
N624 N 0.54078 0.90401 0.73372 0.0
C625 C 0.58655 0.88306 0.74238 0.0
C626 C 0.57457 0.85466 0.75787 0.0
C627 C 0.85025 0.30723 0.24656 0.0
C628 C 0.81685 0.35502 0.24197 0.0
C629 C 0.87913 0.30563 0.26209 0.0
C630 C 0.87458 0.35128 0.27357 0.0
H631 H 0.85655 0.27236 0.23774 0.0
H632 H 0.90594 0.26904 0.26508 0.0
S633 S 0.79132 0.48502 0.2678 0.0
N634 N 0.78036 0.44852 0.25028 0.0
N635 N 0.8333 0.44441 0.27961 0.0
C636 C 0.83983 0.39819 0.26939 0.0
C637 C 0.81133 0.40036 0.25352 0.0
C638 C 0.32674 0.15362 0.74383 0.0
C639 C 0.36034 0.10871 0.73714 0.0
C640 C 0.33934 0.17803 0.75959 0.0
C641 C 0.38554 0.15797 0.76941 0.0
H642 H 0.28931 0.16889 0.7371 0.0
H643 H 0.3118 0.21199 0.76423 0.0
S644 S 0.48798 0.0423 0.75722 0.0
N645 N 0.44486 0.04886 0.74092 0.0
N646 N 0.46423 0.08923 0.77107 0.0
C647 C 0.41958 0.11332 0.76269 0.0
C648 C 0.40816 0.0902 0.74644 0.0
C649 C 0.14737 0.60623 0.24908 0.0
C650 C 0.18103 0.64707 0.24047 0.0
C651 C 0.12426 0.61749 0.26498 0.0
C652 C 0.13376 0.67008 0.2731 0.0
H653 H 0.13746 0.56536 0.24339 0.0
H654 H 0.09787 0.58495 0.27088 0.0
S655 S 0.21978 0.79153 0.25649 0.0
N656 N 0.22403 0.74211 0.24166 0.0
N657 N 0.17999 0.76339 0.27159 0.0
C658 C 0.16875 0.71087 0.26499 0.0
C659 C 0.19246 0.69937 0.24869 0.0
C660 C 0.64063 0.59765 0.50689 0.0
C661 C 0.62056 0.6154 0.52268 0.0
C662 C 0.62635 0.6279 0.49226 0.0
C663 C 0.59062 0.67683 0.49281 0.0
H664 H 0.66789 0.5602 0.5059 0.0
H665 H 0.64254 0.61177 0.48039 0.0
S666 S 0.52579 0.73968 0.53135 0.0
N667 N 0.56314 0.6842 0.53823 0.0
N668 N 0.5355 0.74126 0.51078 0.0
C669 C 0.57064 0.69524 0.50865 0.0
C670 C 0.58573 0.66449 0.52357 0.0
C671 C 0.62429 0.29988 0.49519 0.0
C672 C 0.63498 0.33926 0.48213 0.0
C673 C 0.64941 0.30676 0.51114 0.0
C674 C 0.68558 0.35354 0.51458 0.0
H675 H 0.59531 0.26425 0.49313 0.0
H676 H 0.63841 0.2768 0.52104 0.0
S677 S 0.72699 0.46882 0.48494 0.0
N678 N 0.68471 0.42645 0.47381 0.0
N679 N 0.73109 0.43958 0.50382 0.0
C680 C 0.69744 0.39256 0.50162 0.0
C681 C 0.67248 0.38529 0.48535 0.0
C682 C 0.3104 0.34303 0.51464 0.0
C683 C 0.34875 0.3826 0.52191 0.0
C684 C 0.32063 0.31981 0.49861 0.0
C685 C 0.36957 0.33538 0.48923 0.0
H686 H 0.27117 0.33144 0.52114 0.0
H687 H 0.28924 0.29047 0.49341 0.0
S688 S 0.4857 0.43431 0.50347 0.0
N689 N 0.43978 0.43256 0.51927 0.0
N690 N 0.4579 0.39213 0.48896 0.0
C691 C 0.40903 0.37394 0.49667 0.0
C692 C 0.3989 0.39671 0.51304 0.0
C693 C 0.38369 0.63829 0.51483 0.0
C694 C 0.32352 0.63866 0.5168 0.0
C695 C 0.4093 0.6453 0.499 0.0
C696 C 0.37588 0.65214 0.48437 0.0
H697 H 0.41139 0.63308 0.52568 0.0
H698 H 0.45572 0.64642 0.49833 0.0
S699 S 0.2161 0.64891 0.48259 0.0
N700 N 0.23103 0.64278 0.50281 0.0
N701 N 0.27874 0.65367 0.47289 0.0
C702 C 0.31543 0.65078 0.48614 0.0
C703 C 0.2894 0.64468 0.50238 0.0
C704 C 0.03132 0.03418 0.30548 0.0
C705 C 0.99939 0.07185 0.31566 0.0
C706 C 0.0197 0.97525 0.30533 0.0
C707 C 0.97557 0.95187 0.31531 0.0
H708 H 0.06627 0.05027 0.2978 0.0
H709 H 0.04626 0.94765 0.29759 0.0
S710 S 0.87599 0.03301 0.34293 0.0
N711 N 0.91955 0.08228 0.33516 0.0
N712 N 0.8975 0.9714 0.33483 0.0
C713 C 0.9425 0.98925 0.32527 0.0
C714 C 0.95445 0.04926 0.32545 0.0
C715 C 0.03762 0.02574 0.68374 0.0
C716 C 0.05689 0.97479 0.69133 0.0
C717 C 0.97924 0.0405 0.68384 0.0
C718 C 0.93825 0.00474 0.69152 0.0
H719 H 0.06807 0.05507 0.67805 0.0
H720 H 0.96625 0.08075 0.67819 0.0
S721 S 0.96623 0.86363 0.71148 0.0
N722 N 0.03035 0.88671 0.70567 0.0
N723 N 0.92039 0.91403 0.70571 0.0
C724 C 0.95683 0.95281 0.6987 0.0
C725 C 0.01623 0.93795 0.69864 0.0
C726 C 0.95247 0.51034 0.9477 0.0
C727 C 0.98792 0.54993 0.93937 0.0
C728 C 0.96592 0.45168 0.94786 0.0
C729 C 0.01578 0.43053 0.93989 0.0
H730 H 0.91371 0.52477 0.95397 0.0
H731 H 0.93663 0.42263 0.95415 0.0
S732 S 0.12511 0.51819 0.91756 0.0
N733 N 0.07585 0.56498 0.92354 0.0
N734 N 0.10241 0.4551 0.92427 0.0
C735 C 0.05208 0.47017 0.93176 0.0
C736 C 0.03788 0.52975 0.93141 0.0
C737 C 0.52083 0.01961 0.05553 0.0
C738 C 0.55828 0.99184 0.06673 0.0
C739 C 0.46183 0.00763 0.0556 0.0
C740 C 0.43828 0.96688 0.06673 0.0
H741 H 0.53719 0.05149 0.04685 0.0
H742 H 0.43435 0.0312 0.04704 0.0
S743 S 0.51973 0.87889 0.09748 0.0
N744 N 0.56887 0.92024 0.08866 0.0
N745 N 0.45809 0.89627 0.08852 0.0
C746 C 0.47574 0.93794 0.07774 0.0
C747 C 0.53571 0.95073 0.0778 0.0
C748 C 0.53607 0.45994 0.82742 0.0
C749 C 0.49095 0.43612 0.81796 0.0
C750 C 0.54704 0.51898 0.82709 0.0
C751 C 0.51319 0.55616 0.8173 0.0
H752 H 0.5637 0.43259 0.83491 0.0
H753 H 0.58273 0.53555 0.83436 0.0
S754 S 0.38657 0.51549 0.79154 0.0
N755 N 0.41029 0.45421 0.79931 0.0
N756 N 0.43029 0.56542 0.79883 0.0
C757 C 0.46716 0.53294 0.80806 0.0
C758 C 0.4562 0.47284 0.80835 0.0
C759 C 0.52274 0.45935 0.19961 0.0
C760 C 0.56281 0.48911 0.18966 0.0
C761 C 0.46467 0.47511 0.19978 0.0
C762 C 0.44456 0.52133 0.19005 0.0
H763 H 0.53635 0.42336 0.20726 0.0
H764 H 0.43518 0.45054 0.20748 0.0
S765 S 0.53268 0.61528 0.16265 0.0
N766 N 0.5789 0.56829 0.17032 0.0
N767 N 0.46949 0.59792 0.17065 0.0
C768 C 0.48417 0.5516 0.18009 0.0
C769 C 0.54337 0.53551 0.1799 0.0
C770 C 0.47234 0.96518 0.44171 0.0
C771 C 0.52801 0.94612 0.43768 0.0
C772 C 0.4595 0.02372 0.44228 0.0
C773 C 0.50171 0.06474 0.43852 0.0
H774 H 0.43866 0.93455 0.44454 0.0
H775 H 0.41618 0.03703 0.44545 0.0
S776 S 0.65378 0.03674 0.42731 0.0
N777 N 0.62567 0.97235 0.43008 0.0
N778 N 0.60118 0.08289 0.43082 0.0
C779 C 0.55747 0.04629 0.43446 0.0
C780 C 0.57077 0.98671 0.43415 0.0
C781 C 0.02857 0.47571 0.55401 0.0
C782 C 0.05071 0.5199 0.5642 0.0
C783 C 0.96971 0.46264 0.55396 0.0
C784 C 0.93088 0.49292 0.56421 0.0
H785 H 0.05706 0.45029 0.54622 0.0
H786 H 0.95458 0.42793 0.54606 0.0
S787 S 0.9657 0.6156 0.59204 0.0
N788 N 0.02822 0.59641 0.58394 0.0
N789 N 0.91781 0.571 0.58405 0.0
C790 C 0.95213 0.5377 0.57425 0.0
C791 C 0.01196 0.55137 0.5742 0.0
C792 C 0.05707 0.55679 0.34551 0.0
C793 C 0.99862 0.5714 0.34584 0.0
C794 C 0.07377 0.49906 0.34503 0.0
C795 C 0.03237 0.45502 0.34507 0.0
H796 H 0.08907 0.58929 0.3428 0.0
H797 H 0.11826 0.4892 0.34215 0.0
S798 S 0.87587 0.47232 0.3514 0.0
N799 N 0.90093 0.53849 0.35034 0.0
N800 N 0.93253 0.42985 0.3499 0.0
C801 C 0.9753 0.46932 0.34881 0.0
C802 C 0.95826 0.52802 0.34909 0.0
C803 C 0.45231 0.02922 0.66478 0.0
C804 C 0.44425 0.97037 0.66754 0.0
C805 C 0.50797 0.05208 0.6641 0.0
C806 C 0.55639 0.01639 0.66588 0.0
H807 H 0.4162 0.05848 0.66562 0.0
H808 H 0.51296 0.09828 0.66443 0.0
S809 S 0.55669 0.85811 0.66864 0.0
N810 N 0.48793 0.87592 0.66855 0.0
N811 N 0.59265 0.91886 0.66676 0.0
C812 C 0.5485 0.95685 0.66562 0.0
C813 C 0.49201 0.93371 0.66664 0.0
C814 C 0.0624 -0.00187 0.91255 0.0
C815 C 0.02528 0.04572 0.91347 0.0
C816 C 0.04048 0.94227 0.91148 0.0
C817 C 0.98092 0.93293 0.91168 0.0
H818 H 0.10804 0.00359 0.9148 0.0
H819 H 0.06985 0.90661 0.91315 0.0
S820 S 0.86686 0.04347 0.90962 0.0
N821 N 0.92732 0.08041 0.91085 0.0
N822 N 0.88595 0.97522 0.90928 0.0
C823 C 0.94413 0.98031 0.90983 0.0
C824 C 0.96646 0.03713 0.91066 0.0
C825 C 0.98085 0.04889 0.09839 0.0
C826 C 0.93812 0.00664 0.09644 0.0
C827 C 0.03911 0.03376 0.09884 0.0
C828 C 0.05536 0.97617 0.09719 0.0
H829 H 0.9699 0.0938 0.09692 0.0
H830 H 0.07094 0.06741 0.09753 0.0
S831 S 0.95926 0.84979 0.09733 0.0
N832 N 0.91518 0.90536 0.0973 0.0
N833 N 0.0249 0.87675 0.09807 0.0
C834 C 0.01283 0.93372 0.09873 0.0
C835 C 0.95361 0.9491 0.09834 0.0
C836 C 0.45092 0.01676 0.85118 0.0
C837 C 0.49715 0.05527 0.84938 0.0
C838 C 0.46026 0.9574 0.85062 0.0
C839 C 0.51604 0.93585 0.84848 0.0
H840 H 0.40713 0.03224 0.85001 0.0
H841 H 0.42348 0.9294 0.84903 0.0
S842 S 0.65158 0.01869 0.8494 0.0
N843 N 0.60045 0.06786 0.85009 0.0
N844 N 0.61824 0.95615 0.84943 0.0
C845 C 0.5626 0.97359 0.85042 0.0
C846 C 0.55307 0.03389 0.85084 0.0
C847 C 0.95758 0.52575 0.16262 0.0
C848 C 0.94857 0.467 0.16534 0.0
C849 C 0.01353 0.548 0.16245 0.0
C850 C 0.06133 0.51179 0.16466 0.0
H851 H 0.92175 0.55544 0.16319 0.0
H852 H 0.01899 0.59415 0.16287 0.0
S853 S 0.05969 0.35358 0.16747 0.0
N854 N 0.99114 0.37208 0.16671 0.0
N855 N 0.09647 0.41397 0.16596 0.0
C856 C 0.05284 0.45237 0.16436 0.0
C857 C 0.99601 0.42982 0.16483 0.0
C858 C 0.55174 0.51885 0.40916 0.0
C859 C 0.51079 0.56212 0.412 0.0
C860 C 0.53497 0.4613 0.40832 0.0
C861 C 0.47725 0.44636 0.41087 0.0
H862 H 0.59722 0.52868 0.4099 0.0
H863 H 0.56812 0.42872 0.40849 0.0
S864 S 0.35303 0.54504 0.41353 0.0
N865 N 0.40978 0.58761 0.41301 0.0
N866 N 0.37825 0.47901 0.4119 0.0
C867 C 0.43547 0.48978 0.41046 0.0
C868 C 0.45241 0.5483 0.41103 0.0
C869 C 0.48088 0.54447 0.59649 0.0
C870 C 0.43293 0.50863 0.59405 0.0
C871 C 0.53688 0.52253 0.59537 0.0
C872 C 0.54576 0.46445 0.59157 0.0
H873 H 0.47528 0.59062 0.5968 0.0
H874 H 0.57251 0.55244 0.59497 0.0
S875 S 0.43481 0.35108 0.58896 0.0
N876 N 0.39805 0.41097 0.59176 0.0
N877 N 0.50333 0.36971 0.58923 0.0
C878 C 0.49852 0.42704 0.592 0.0
C879 C 0.4417 0.44925 0.59345 0.0
C880 C 0.22227 0.31588 0.39204 0.0
C881 C 0.28222 0.31116 0.39404 0.0
C882 C 0.19666 0.31559 0.37606 0.0
C883 C 0.22988 0.31046 0.36131 0.0
H884 H 0.19487 0.32082 0.40295 0.0
H885 H 0.15059 0.32145 0.37531 0.0
S886 S 0.38857 0.2943 0.35946 0.0
N887 N 0.3742 0.30063 0.3797 0.0
N888 N 0.32581 0.2971 0.34983 0.0
C889 C 0.28974 0.30381 0.36313 0.0
C890 C 0.31595 0.30473 0.37941 0.0
C891 C 0.3183 0.71112 0.64375 0.0
C892 C 0.31482 0.77059 0.64651 0.0
C893 C 0.31719 0.68808 0.62745 0.0
C894 C 0.31253 0.72355 0.61316 0.0
H895 H 0.32224 0.6821 0.65432 0.0
H896 H 0.32148 0.64212 0.62609 0.0
S897 S 0.30226 0.88238 0.61336 0.0
N898 N 0.30798 0.86477 0.63339 0.0
N899 N 0.30286 0.82125 0.60291 0.0
C900 C 0.30828 0.7831 0.61573 0.0
C901 C 0.31002 0.80666 0.63233 0.0
C902 C 0.72621 0.70508 0.36385 0.0
C903 C 0.78211 0.68338 0.36197 0.0
C904 C 0.69953 0.70666 0.37969 0.0
C905 C 0.72745 0.68565 0.39419 0.0
H906 H 0.70339 0.72155 0.35301 0.0
H907 H 0.65687 0.72495 0.38058 0.0
S908 S 0.8724 0.61852 0.39526 0.0
N909 N 0.8636 0.63779 0.37546 0.0
N910 N 0.8131 0.63836 0.40511 0.0
C911 C 0.78313 0.66257 0.39229 0.0
C912 C 0.81049 0.66194 0.3762 0.0
C913 C 0.72266 0.26727 0.63887 0.0
C914 C 0.68412 0.22448 0.64402 0.0
C915 C 0.72196 0.28818 0.6223 0.0
C916 C 0.68221 0.26754 0.61035 0.0
H917 H 0.7542 0.28376 0.64764 0.0
H918 H 0.75312 0.3205 0.61878 0.0
S919 S 0.56797 0.15962 0.61849 0.0
N920 N 0.60319 0.16435 0.63645 0.0
N921 N 0.60017 0.20469 0.60553 0.0
C922 C 0.64242 0.22559 0.61559 0.0
C923 C 0.64377 0.2039 0.63238 0.0
C924 C 0.21091 0.19753 0.88104 0.0
C925 C 0.23823 0.17458 0.89539 0.0
C926 C 0.23691 0.19515 0.86509 0.0
C927 C 0.29146 0.17051 0.86297 0.0
H928 H 0.16934 0.21806 0.88215 0.0
H929 H 0.21475 0.21341 0.85438 0.0
S930 S 0.37928 0.09951 0.89573 0.0
N931 N 0.32155 0.12217 0.90585 0.0
N932 N 0.37074 0.11993 0.87601 0.0
C933 C 0.31905 0.14687 0.87703 0.0
C934 C 0.29242 0.14843 0.89321 0.0
C935 C 0.22006 0.74293 0.13706 0.0
C936 C 0.16954 0.72574 0.14531 0.0
C937 C 0.21811 0.76552 0.12067 0.0
C938 C 0.16578 0.76997 0.11186 0.0
H939 H 0.26105 0.73964 0.14344 0.0
H940 H 0.25772 0.77934 0.11477 0.0
S941 S 0.02185 0.72867 0.128 0.0
N942 N 0.06622 0.71359 0.1436 0.0
N943 N 0.06235 0.75476 0.11274 0.0
C944 C 0.11516 0.75179 0.11996 0.0
C945 C 0.1171 0.72997 0.13672 0.0
C946 C 0.76106 0.8656 0.88424 0.0
C947 C 0.77385 0.8119 0.89133 0.0
C948 C 0.73757 0.86981 0.86803 0.0
C949 C 0.72496 0.82036 0.85859 0.0
H950 H 0.76936 0.90442 0.89131 0.0
H951 H 0.72761 0.91184 0.86305 0.0
S952 S 0.75163 0.67011 0.87153 0.0
N953 N 0.77419 0.70874 0.88766 0.0
N954 N 0.728 0.7164 0.85738 0.0
C955 C 0.73797 0.76655 0.86555 0.0
C956 C 0.76306 0.76238 0.88188 0.0
C957 C 0.76579 0.24674 0.12005 0.0
C958 C 0.81056 0.21211 0.11384 0.0
C959 C 0.76883 0.27124 0.13617 0.0
C960 C 0.81671 0.262 0.14666 0.0
H961 H 0.72765 0.25388 0.11254 0.0
H962 H 0.73309 0.29694 0.14059 0.0
S963 S 0.94859 0.18091 0.13533 0.0
N964 N 0.90623 0.17395 0.11881 0.0
N965 N 0.91218 0.22009 0.14897 0.0
C966 C 0.86251 0.22888 0.14036 0.0
C967 C 0.85936 0.20394 0.12399 0.0
loop_
_geom_bond_atom_site_label_1
_geom_bond_atom_site_label_2
_geom_bond_distance
_geom_bond_site_symmetry_2
_ccdc_geom_bond_type
Co0 N4 2.148 . S
Co0 N10 2.128 1_455 S
Co0 N20 2.194 . S
Co0 O25 2.351 1_455 S
Co0 O26 2.155 . S
Co0 O27 2.096 . S
C1 N4 1.301 . S
C1 N5 1.328 . S
C1 H6 0.930 . S
C2 C3 1.333 . S
C2 N4 1.317 . S
C2 H7 0.930 . S
C3 C2 1.333 . S
C3 N5 1.350 . S
C3 H29 0.931 . S
N4 Co0 2.148 . S
N4 C1 1.301 . S
N4 C2 1.317 . S
N5 C1 1.328 . S
N5 C3 1.350 . S
H6 C1 0.930 . S
H7 C2 0.930 . S
C8 O9 1.224 . S
C8 O27 1.247 . S
O9 C8 1.224 . S
N10 Co0 2.128 1_655 S
N10 C11 1.355 . S
N10 C13 1.311 . S
C11 N10 1.355 . S
C11 C12 1.363 . S
C11 H23 0.929 . S
C12 C11 1.363 . S
C12 N14 1.375 . S
C12 H30 0.931 . S
C13 N10 1.311 . S
C13 N14 1.347 . S
C13 H24 0.929 . S
N14 C12 1.375 . S
N14 C13 1.347 . S
C15 C18 1.365 . S
C15 N20 1.328 1_655 S
C15 H21 0.929 . S
C16 C17 1.362 1_455 S
C16 C19 1.378 . S
C16 H31 0.929 . S
C17 C16 1.362 1_655 S
C17 C18 1.366 . S
C18 C15 1.365 . S
C18 C17 1.366 . S
C18 H32 0.930 . S
C19 C16 1.378 . S
C19 N20 1.315 . S
C19 H22 0.930 . S
N20 Co0 2.194 . S
N20 C15 1.328 1_455 S
N20 C19 1.315 . S
H21 C15 0.929 . S
H22 C19 0.930 . S
H23 C11 0.929 . S
H24 C13 0.929 . S
O25 Co0 2.351 1_655 S
O25 C28 1.244 . S
O26 Co0 2.155 . S
O26 C28 1.240 1_455 S
O27 Co0 2.096 . S
O27 C8 1.247 . S
C28 O25 1.244 . S
C28 O26 1.240 1_655 S
H29 C3 0.931 . S
H30 C12 0.931 . S
H31 C16 0.929 . S
H32 C18 0.930 . S
Co33 N37 2.148 . S
Co33 N43 2.128 1_565 S
Co33 N53 2.194 . S
Co33 O58 2.351 1_565 S
Co33 O59 2.155 . S
Co33 O60 2.096 . S
C34 N37 1.301 . S
C34 N38 1.328 . S
C34 H39 0.930 . S
C35 C36 1.333 . S
C35 N37 1.317 . S
C35 H40 0.930 . S
C36 C35 1.333 . S
C36 N38 1.350 . S
C36 H62 0.931 . S
N37 Co33 2.148 . S
N37 C34 1.301 . S
N37 C35 1.317 . S
N38 C34 1.328 . S
N38 C36 1.350 . S
H39 C34 0.930 . S
H40 C35 0.930 . S
C41 O42 1.224 . S
C41 O60 1.247 . S
O42 C41 1.224 . S
N43 Co33 2.128 1_545 S
N43 C44 1.355 . S
N43 C46 1.311 . S
C44 N43 1.355 . S
C44 C45 1.363 . S
C44 H56 0.929 . S
C45 C44 1.363 . S
C45 N47 1.375 . S
C45 H63 0.931 . S
C46 N43 1.311 . S
C46 N47 1.347 . S
C46 H57 0.929 . S
N47 C45 1.375 . S
N47 C46 1.347 . S
C48 C51 1.365 . S
C48 N53 1.328 1_545 S
C48 H54 0.929 . S
C49 C50 1.362 1_565 S
C49 C52 1.378 . S
C49 H64 0.929 . S
C50 C49 1.362 1_545 S
C50 C51 1.366 . S
C51 C48 1.365 . S
C51 C50 1.366 . S
C51 H65 0.930 . S
C52 C49 1.378 . S
C52 N53 1.315 . S
C52 H55 0.930 . S
N53 Co33 2.194 . S
N53 C48 1.328 1_565 S
N53 C52 1.315 . S
H54 C48 0.929 . S
H55 C52 0.930 . S
H56 C44 0.929 . S
H57 C46 0.929 . S
O58 Co33 2.351 1_545 S
O58 C61 1.244 . S
O59 Co33 2.155 . S
O59 C61 1.240 1_565 S
O60 Co33 2.096 . S
O60 C41 1.247 . S
C61 O58 1.244 . S
C61 O59 1.240 1_545 S
H62 C36 0.931 . S
H63 C45 0.931 . S
H64 C49 0.929 . S
H65 C51 0.930 . S
Co66 N70 2.148 . S
Co66 N76 2.128 1_655 S
Co66 N86 2.194 . S
Co66 O91 2.351 1_655 S
Co66 O92 2.155 . S
Co66 O93 2.096 . S
C67 N70 1.301 . S
C67 N71 1.328 . S
C67 H72 0.930 . S
C68 C69 1.333 . S
C68 N70 1.317 . S
C68 H73 0.930 . S
C69 C68 1.333 . S
C69 N71 1.350 . S
C69 H95 0.931 . S
N70 Co66 2.148 . S
N70 C67 1.301 . S
N70 C68 1.317 . S
N71 C67 1.328 . S
N71 C69 1.350 . S
H72 C67 0.930 . S
H73 C68 0.930 . S
C74 O75 1.224 . S
C74 O93 1.247 . S
O75 C74 1.224 . S
N76 Co66 2.128 1_455 S
N76 C77 1.355 . S
N76 C79 1.311 . S
C77 N76 1.355 . S
C77 C78 1.363 . S
C77 H89 0.929 . S
C78 C77 1.363 . S
C78 N80 1.375 . S
C78 H96 0.931 . S
C79 N76 1.311 . S
C79 N80 1.347 . S
C79 H90 0.929 . S
N80 C78 1.375 . S
N80 C79 1.347 . S
C81 C84 1.365 . S
C81 N86 1.328 1_455 S
C81 H87 0.929 . S
C82 C83 1.362 1_655 S
C82 C85 1.378 . S
C82 H97 0.929 . S
C83 C82 1.362 1_455 S
C83 C84 1.366 . S
C84 C81 1.365 . S
C84 C83 1.366 . S
C84 H98 0.930 . S
C85 C82 1.378 . S
C85 N86 1.315 . S
C85 H88 0.930 . S
N86 Co66 2.194 . S
N86 C81 1.328 1_655 S
N86 C85 1.315 . S
H87 C81 0.929 . S
H88 C85 0.930 . S
H89 C77 0.929 . S
H90 C79 0.929 . S
O91 Co66 2.351 1_455 S
O91 C94 1.244 . S
O92 Co66 2.155 . S
O92 C94 1.240 1_655 S
O93 Co66 2.096 . S
O93 C74 1.247 . S
C94 O91 1.244 . S
C94 O92 1.240 1_455 S
H95 C69 0.931 . S
H96 C78 0.931 . S
H97 C82 0.929 . S
H98 C84 0.930 . S
Co99 N103 2.148 . S
Co99 N109 2.128 1_545 S
Co99 N119 2.194 . S
Co99 O124 2.351 1_545 S
Co99 O125 2.155 . S
Co99 O126 2.096 . S
C100 N103 1.301 . S
C100 N104 1.328 . S
C100 H105 0.930 . S
C101 C102 1.333 . S
C101 N103 1.317 . S
C101 H106 0.930 . S
C102 C101 1.333 . S
C102 N104 1.350 . S
C102 H128 0.931 . S
N103 Co99 2.148 . S
N103 C100 1.301 . S
N103 C101 1.317 . S
N104 C100 1.328 . S
N104 C102 1.350 . S
H105 C100 0.930 . S
H106 C101 0.930 . S
C107 O108 1.224 . S
C107 O126 1.247 . S
O108 C107 1.224 . S
N109 Co99 2.128 1_565 S
N109 C110 1.355 . S
N109 C112 1.311 . S
C110 N109 1.355 . S
C110 C111 1.363 . S
C110 H122 0.929 . S
C111 C110 1.363 . S
C111 N113 1.375 . S
C111 H129 0.931 . S
C112 N109 1.311 . S
C112 N113 1.347 . S
C112 H123 0.929 . S
N113 C111 1.375 . S
N113 C112 1.347 . S
C114 C117 1.365 . S
C114 N119 1.328 1_565 S
C114 H120 0.929 . S
C115 C116 1.362 1_545 S
C115 C118 1.378 . S
C115 H130 0.929 . S
C116 C115 1.362 1_565 S
C116 C117 1.366 . S
C117 C114 1.365 . S
C117 C116 1.366 . S
C117 H131 0.930 . S
C118 C115 1.378 . S
C118 N119 1.315 . S
C118 H121 0.930 . S
N119 Co99 2.194 . S
N119 C114 1.328 1_545 S
N119 C118 1.315 . S
H120 C114 0.929 . S
H121 C118 0.930 . S
H122 C110 0.929 . S
H123 C112 0.929 . S
O124 Co99 2.351 1_565 S
O124 C127 1.244 . S
O125 Co99 2.155 . S
O125 C127 1.240 1_545 S
O126 Co99 2.096 . S
O126 C107 1.247 . S
C127 O124 1.244 . S
C127 O125 1.240 1_565 S
H128 C102 0.931 . S
H129 C111 0.931 . S
H130 C115 0.929 . S
H131 C117 0.930 . S
Co132 N136 2.148 . S
Co132 N142 2.128 1_455 S
Co132 N152 2.194 . S
Co132 O157 2.351 1_455 S
Co132 O158 2.155 . S
Co132 O159 2.096 . S
C133 N136 1.301 . S
C133 N137 1.328 . S
C133 H138 0.930 . S
C134 C135 1.333 . S
C134 N136 1.317 . S
C134 H139 0.930 . S
C135 C134 1.333 . S
C135 N137 1.350 . S
C135 H161 0.931 . S
N136 Co132 2.148 . S
N136 C133 1.301 . S
N136 C134 1.317 . S
N137 C133 1.328 . S
N137 C135 1.350 . S
H138 C133 0.930 . S
H139 C134 0.930 . S
C140 O141 1.224 . S
C140 O159 1.247 . S
O141 C140 1.224 . S
N142 Co132 2.128 1_655 S
N142 C143 1.355 . S
N142 C145 1.311 . S
C143 N142 1.355 . S
C143 C144 1.363 . S
C143 H155 0.929 . S
C144 C143 1.363 . S
C144 N146 1.375 . S
C144 H162 0.931 . S
C145 N142 1.311 . S
C145 N146 1.347 . S
C145 H156 0.929 . S
N146 C144 1.375 . S
N146 C145 1.347 . S
C147 C150 1.365 . S
C147 N152 1.328 1_655 S
C147 H153 0.929 . S
C148 C149 1.362 1_455 S
C148 C151 1.378 . S
C148 H163 0.929 . S
C149 C148 1.362 1_655 S
C149 C150 1.366 . S
C150 C147 1.365 . S
C150 C149 1.366 . S
C150 H164 0.930 . S
C151 C148 1.378 . S
C151 N152 1.315 . S
C151 H154 0.930 . S
N152 Co132 2.194 . S
N152 C147 1.328 1_455 S
N152 C151 1.315 . S
H153 C147 0.929 . S
H154 C151 0.930 . S
H155 C143 0.929 . S
H156 C145 0.929 . S
O157 Co132 2.351 1_655 S
O157 C160 1.244 . S
O158 Co132 2.155 . S
O158 C160 1.240 1_455 S
O159 Co132 2.096 . S
O159 C140 1.247 . S
C160 O157 1.244 . S
C160 O158 1.240 1_655 S
H161 C135 0.931 . S
H162 C144 0.931 . S
H163 C148 0.929 . S
H164 C150 0.930 . S
Co165 N169 2.148 . S
Co165 N175 2.128 1_565 S
Co165 N185 2.194 . S
Co165 O190 2.351 1_565 S
Co165 O191 2.155 . S
Co165 O192 2.096 . S
C166 N169 1.301 . S
C166 N170 1.328 . S
C166 H171 0.930 . S
C167 C168 1.333 . S
C167 N169 1.317 . S
C167 H172 0.930 . S
C168 C167 1.333 . S
C168 N170 1.350 . S
C168 H194 0.931 . S
N169 Co165 2.148 . S
N169 C166 1.301 . S
N169 C167 1.317 . S
N170 C166 1.328 . S
N170 C168 1.350 . S
H171 C166 0.930 . S
H172 C167 0.930 . S
C173 O174 1.224 . S
C173 O192 1.247 . S
O174 C173 1.224 . S
N175 Co165 2.128 1_545 S
N175 C176 1.355 . S
N175 C178 1.311 . S
C176 N175 1.355 . S
C176 C177 1.363 . S
C176 H188 0.929 . S
C177 C176 1.363 . S
C177 N179 1.375 . S
C177 H195 0.931 . S
C178 N175 1.311 . S
C178 N179 1.347 . S
C178 H189 0.929 . S
N179 C177 1.375 . S
N179 C178 1.347 . S
C180 C183 1.365 . S
C180 N185 1.328 1_545 S
C180 H186 0.929 . S
C181 C182 1.362 1_565 S
C181 C184 1.378 . S
C181 H196 0.929 . S
C182 C181 1.362 1_545 S
C182 C183 1.366 . S
C183 C180 1.365 . S
C183 C182 1.366 . S
C183 H197 0.930 . S
C184 C181 1.378 . S
C184 N185 1.315 . S
C184 H187 0.930 . S
N185 Co165 2.194 . S
N185 C180 1.328 1_565 S
N185 C184 1.315 . S
H186 C180 0.929 . S
H187 C184 0.930 . S
H188 C176 0.929 . S
H189 C178 0.929 . S
O190 Co165 2.351 1_545 S
O190 C193 1.244 . S
O191 Co165 2.155 . S
O191 C193 1.240 1_565 S
O192 Co165 2.096 . S
O192 C173 1.247 . S
C193 O190 1.244 . S
C193 O191 1.240 1_545 S
H194 C168 0.931 . S
H195 C177 0.931 . S
H196 C181 0.929 . S
H197 C183 0.930 . S
Co198 N202 2.148 . S
Co198 N208 2.128 1_655 S
Co198 N218 2.194 . S
Co198 O223 2.351 1_655 S
Co198 O224 2.155 . S
Co198 O225 2.096 . S
C199 N202 1.301 . S
C199 N203 1.328 . S
C199 H204 0.930 . S
C200 C201 1.333 . S
C200 N202 1.317 . S
C200 H205 0.930 . S
C201 C200 1.333 . S
C201 N203 1.350 . S
C201 H227 0.931 . S
N202 Co198 2.148 . S
N202 C199 1.301 . S
N202 C200 1.317 . S
N203 C199 1.328 . S
N203 C201 1.350 . S
H204 C199 0.930 . S
H205 C200 0.930 . S
C206 O207 1.224 . S
C206 O225 1.247 . S
O207 C206 1.224 . S
N208 Co198 2.128 1_455 S
N208 C209 1.355 . S
N208 C211 1.311 . S
C209 N208 1.355 . S
C209 C210 1.363 . S
C209 H221 0.929 . S
C210 C209 1.363 . S
C210 N212 1.375 . S
C210 H228 0.931 . S
C211 N208 1.311 . S
C211 N212 1.347 . S
C211 H222 0.929 . S
N212 C210 1.375 . S
N212 C211 1.347 . S
C213 C216 1.365 . S
C213 N218 1.328 1_455 S
C213 H219 0.929 . S
C214 C215 1.362 1_655 S
C214 C217 1.378 . S
C214 H229 0.929 . S
C215 C214 1.362 1_455 S
C215 C216 1.366 . S
C216 C213 1.365 . S
C216 C215 1.366 . S
C216 H230 0.930 . S
C217 C214 1.378 . S
C217 N218 1.315 . S
C217 H220 0.930 . S
N218 Co198 2.194 . S
N218 C213 1.328 1_655 S
N218 C217 1.315 . S
H219 C213 0.929 . S
H220 C217 0.930 . S
H221 C209 0.929 . S
H222 C211 0.929 . S
O223 Co198 2.351 1_455 S
O223 C226 1.244 . S
O224 Co198 2.155 . S
O224 C226 1.240 1_655 S
O225 Co198 2.096 . S
O225 C206 1.247 . S
C226 O223 1.244 . S
C226 O224 1.240 1_455 S
H227 C201 0.931 . S
H228 C210 0.931 . S
H229 C214 0.929 . S
H230 C216 0.930 . S
Co231 N235 2.148 . S
Co231 N241 2.128 1_545 S
Co231 N251 2.194 . S
Co231 O256 2.351 1_545 S
Co231 O257 2.155 . S
Co231 O258 2.096 . S
C232 N235 1.301 . S
C232 N236 1.328 . S
C232 H237 0.930 . S
C233 C234 1.333 . S
C233 N235 1.317 . S
C233 H238 0.930 . S
C234 C233 1.333 . S
C234 N236 1.350 . S
C234 H260 0.931 . S
N235 Co231 2.148 . S
N235 C232 1.301 . S
N235 C233 1.317 . S
N236 C232 1.328 . S
N236 C234 1.350 . S
H237 C232 0.930 . S
H238 C233 0.930 . S
C239 O240 1.224 . S
C239 O258 1.247 . S
O240 C239 1.224 . S
N241 Co231 2.128 1_565 S
N241 C242 1.355 . S
N241 C244 1.311 . S
C242 N241 1.355 . S
C242 C243 1.363 . S
C242 H254 0.929 . S
C243 C242 1.363 . S
C243 N245 1.375 . S
C243 H261 0.931 . S
C244 N241 1.311 . S
C244 N245 1.347 . S
C244 H255 0.929 . S
N245 C243 1.375 . S
N245 C244 1.347 . S
C246 C249 1.365 . S
C246 N251 1.328 1_565 S
C246 H252 0.929 . S
C247 C248 1.362 1_545 S
C247 C250 1.378 . S
C247 H262 0.929 . S
C248 C247 1.362 1_565 S
C248 C249 1.366 . S
C249 C246 1.365 . S
C249 C248 1.366 . S
C249 H263 0.930 . S
C250 C247 1.378 . S
C250 N251 1.315 . S
C250 H253 0.930 . S
N251 Co231 2.194 . S
N251 C246 1.328 1_545 S
N251 C250 1.315 . S
H252 C246 0.929 . S
H253 C250 0.930 . S
H254 C242 0.929 . S
H255 C244 0.929 . S
O256 Co231 2.351 1_565 S
O256 C259 1.244 . S
O257 Co231 2.155 . S
O257 C259 1.240 1_545 S
O258 Co231 2.096 . S
O258 C239 1.247 . S
C259 O256 1.244 . S
C259 O257 1.240 1_565 S
H260 C234 0.931 . S
H261 C243 0.931 . S
H262 C247 0.929 . S
H263 C249 0.930 . S
Co264 N268 2.148 . S
Co264 N274 2.128 . S
Co264 N284 2.194 . S
Co264 O289 2.351 . S
Co264 O290 2.155 . S
Co264 O291 2.096 . S
C265 N268 1.301 . S
C265 N269 1.328 . S
C265 H270 0.930 . S
C266 C267 1.333 . S
C266 N268 1.317 . S
C266 H271 0.930 . S
C267 C266 1.333 . S
C267 N269 1.350 . S
C267 H293 0.931 . S
N268 Co264 2.148 . S
N268 C265 1.301 . S
N268 C266 1.317 . S
N269 C265 1.328 . S
N269 C267 1.350 . S
H270 C265 0.930 . S
H271 C266 0.930 . S
C272 O273 1.224 . S
C272 O291 1.247 . S
O273 C272 1.224 . S
N274 Co264 2.128 . S
N274 C275 1.355 . S
N274 C277 1.311 . S
C275 N274 1.355 . S
C275 C276 1.363 . S
C275 H287 0.929 . S
C276 C275 1.363 . S
C276 N278 1.375 . S
C276 H294 0.931 . S
C277 N274 1.311 . S
C277 N278 1.347 . S
C277 H288 0.929 . S
N278 C276 1.375 . S
N278 C277 1.347 . S
C279 C282 1.365 . S
C279 N284 1.328 . S
C279 H285 0.929 . S
C280 C281 1.362 . S
C280 C283 1.378 . S
C280 H295 0.929 . S
C281 C280 1.362 . S
C281 C282 1.366 . S
C282 C279 1.365 . S
C282 C281 1.366 . S
C282 H296 0.930 . S
C283 C280 1.378 . S
C283 N284 1.315 . S
C283 H286 0.930 . S
N284 Co264 2.194 . S
N284 C279 1.328 . S
N284 C283 1.315 . S
H285 C279 0.929 . S
H286 C283 0.930 . S
H287 C275 0.929 . S
H288 C277 0.929 . S
O289 Co264 2.351 . S
O289 C292 1.244 . S
O290 Co264 2.155 . S
O290 C292 1.240 . S
O291 Co264 2.096 . S
O291 C272 1.247 . S
C292 O289 1.244 . S
C292 O290 1.240 . S
H293 C267 0.931 . S
H294 C276 0.931 . S
H295 C280 0.929 . S
H296 C282 0.930 . S
Co297 N301 2.148 . S
Co297 N307 2.128 . S
Co297 N317 2.194 . S
Co297 O322 2.351 . S
Co297 O323 2.155 . S
Co297 O324 2.096 . S
C298 N301 1.301 . S
C298 N302 1.328 . S
C298 H303 0.930 . S
C299 C300 1.333 . S
C299 N301 1.317 . S
C299 H304 0.930 . S
C300 C299 1.333 . S
C300 N302 1.350 . S
C300 H326 0.931 . S
N301 Co297 2.148 . S
N301 C298 1.301 . S
N301 C299 1.317 . S
N302 C298 1.328 . S
N302 C300 1.350 . S
H303 C298 0.930 . S
H304 C299 0.930 . S
C305 O306 1.224 . S
C305 O324 1.247 . S
O306 C305 1.224 . S
N307 Co297 2.128 . S
N307 C308 1.355 . S
N307 C310 1.311 . S
C308 N307 1.355 . S
C308 C309 1.363 . S
C308 H320 0.929 . S
C309 C308 1.363 . S
C309 N311 1.375 . S
C309 H327 0.931 . S
C310 N307 1.311 . S
C310 N311 1.347 . S
C310 H321 0.929 . S
N311 C309 1.375 . S
N311 C310 1.347 . S
C312 C315 1.365 . S
C312 N317 1.328 . S
C312 H318 0.929 . S
C313 C314 1.362 . S
C313 C316 1.378 . S
C313 H328 0.929 . S
C314 C313 1.362 . S
C314 C315 1.366 . S
C315 C312 1.365 . S
C315 C314 1.366 . S
C315 H329 0.930 . S
C316 C313 1.378 . S
C316 N317 1.315 . S
C316 H319 0.930 . S
N317 Co297 2.194 . S
N317 C312 1.328 . S
N317 C316 1.315 . S
H318 C312 0.929 . S
H319 C316 0.930 . S
H320 C308 0.929 . S
H321 C310 0.929 . S
O322 Co297 2.351 . S
O322 C325 1.244 . S
O323 Co297 2.155 . S
O323 C325 1.240 . S
O324 Co297 2.096 . S
O324 C305 1.247 . S
C325 O322 1.244 . S
C325 O323 1.240 . S
H326 C300 0.931 . S
H327 C309 0.931 . S
H328 C313 0.929 . S
H329 C315 0.930 . S
Co330 N334 2.148 . S
Co330 N340 2.128 . S
Co330 N350 2.194 . S
Co330 O355 2.351 . S
Co330 O356 2.155 . S
Co330 O357 2.096 . S
C331 N334 1.301 . S
C331 N335 1.328 . S
C331 H336 0.930 . S
C332 C333 1.333 . S
C332 N334 1.317 . S
C332 H337 0.930 . S
C333 C332 1.333 . S
C333 N335 1.350 . S
C333 H359 0.931 . S
N334 Co330 2.148 . S
N334 C331 1.301 . S
N334 C332 1.317 . S
N335 C331 1.328 . S
N335 C333 1.350 . S
H336 C331 0.930 . S
H337 C332 0.930 . S
C338 O339 1.224 . S
C338 O357 1.247 . S
O339 C338 1.224 . S
N340 Co330 2.128 . S
N340 C341 1.355 . S
N340 C343 1.311 . S
C341 N340 1.355 . S
C341 C342 1.363 . S
C341 H353 0.929 . S
C342 C341 1.363 . S
C342 N344 1.375 . S
C342 H360 0.931 . S
C343 N340 1.311 . S
C343 N344 1.347 . S
C343 H354 0.929 . S
N344 C342 1.375 . S
N344 C343 1.347 . S
C345 C348 1.365 . S
C345 N350 1.328 . S
C345 H351 0.929 . S
C346 C347 1.362 . S
C346 C349 1.378 . S
C346 H361 0.929 . S
C347 C346 1.362 . S
C347 C348 1.366 . S
C348 C345 1.365 . S
C348 C347 1.366 . S
C348 H362 0.930 . S
C349 C346 1.378 . S
C349 N350 1.315 . S
C349 H352 0.930 . S
N350 Co330 2.194 . S
N350 C345 1.328 . S
N350 C349 1.315 . S
H351 C345 0.929 . S
H352 C349 0.930 . S
H353 C341 0.929 . S
H354 C343 0.929 . S
O355 Co330 2.351 . S
O355 C358 1.244 . S
O356 Co330 2.155 . S
O356 C358 1.240 . S
O357 Co330 2.096 . S
O357 C338 1.247 . S
C358 O355 1.244 . S
C358 O356 1.240 . S
H359 C333 0.931 . S
H360 C342 0.931 . S
H361 C346 0.929 . S
H362 C348 0.930 . S
Co363 N367 2.148 . S
Co363 N373 2.128 . S
Co363 N383 2.194 . S
Co363 O388 2.351 . S
Co363 O389 2.155 . S
Co363 O390 2.096 . S
C364 N367 1.301 . S
C364 N368 1.328 . S
C364 H369 0.930 . S
C365 C366 1.333 . S
C365 N367 1.317 . S
C365 H370 0.930 . S
C366 C365 1.333 . S
C366 N368 1.350 . S
C366 H392 0.931 . S
N367 Co363 2.148 . S
N367 C364 1.301 . S
N367 C365 1.317 . S
N368 C364 1.328 . S
N368 C366 1.350 . S
H369 C364 0.930 . S
H370 C365 0.930 . S
C371 O372 1.224 . S
C371 O390 1.247 . S
O372 C371 1.224 . S
N373 Co363 2.128 . S
N373 C374 1.355 . S
N373 C376 1.311 . S
C374 N373 1.355 . S
C374 C375 1.363 . S
C374 H386 0.929 . S
C375 C374 1.363 . S
C375 N377 1.375 . S
C375 H393 0.931 . S
C376 N373 1.311 . S
C376 N377 1.347 . S
C376 H387 0.929 . S
N377 C375 1.375 . S
N377 C376 1.347 . S
C378 C381 1.365 . S
C378 N383 1.328 . S
C378 H384 0.929 . S
C379 C380 1.362 . S
C379 C382 1.378 . S
C379 H394 0.929 . S
C380 C379 1.362 . S
C380 C381 1.366 . S
C381 C378 1.365 . S
C381 C380 1.366 . S
C381 H395 0.930 . S
C382 C379 1.378 . S
C382 N383 1.315 . S
C382 H385 0.930 . S
N383 Co363 2.194 . S
N383 C378 1.328 . S
N383 C382 1.315 . S
H384 C378 0.929 . S
H385 C382 0.930 . S
H386 C374 0.929 . S
H387 C376 0.929 . S
O388 Co363 2.351 . S
O388 C391 1.244 . S
O389 Co363 2.155 . S
O389 C391 1.240 . S
O390 Co363 2.096 . S
O390 C371 1.247 . S
C391 O388 1.244 . S
C391 O389 1.240 . S
H392 C366 0.931 . S
H393 C375 0.931 . S
H394 C379 0.929 . S
H395 C381 0.930 . S
Co396 N400 2.148 . S
Co396 N406 2.128 . S
Co396 N416 2.194 . S
Co396 O421 2.351 . S
Co396 O422 2.155 . S
Co396 O423 2.096 . S
C397 N400 1.301 . S
C397 N401 1.328 . S
C397 H402 0.930 . S
C398 C399 1.333 . S
C398 N400 1.317 . S
C398 H403 0.930 . S
C399 C398 1.333 . S
C399 N401 1.350 . S
C399 H425 0.931 . S
N400 Co396 2.148 . S
N400 C397 1.301 . S
N400 C398 1.317 . S
N401 C397 1.328 . S
N401 C399 1.350 . S
H402 C397 0.930 . S
H403 C398 0.930 . S
C404 O405 1.224 . S
C404 O423 1.247 . S
O405 C404 1.224 . S
N406 Co396 2.128 . S
N406 C407 1.355 . S
N406 C409 1.311 . S
C407 N406 1.355 . S
C407 C408 1.363 . S
C407 H419 0.929 . S
C408 C407 1.363 . S
C408 N410 1.375 . S
C408 H426 0.931 . S
C409 N406 1.311 . S
C409 N410 1.347 . S
C409 H420 0.929 . S
N410 C408 1.375 . S
N410 C409 1.347 . S
C411 C414 1.365 . S
C411 N416 1.328 . S
C411 H417 0.929 . S
C412 C413 1.362 . S
C412 C415 1.378 . S
C412 H427 0.929 . S
C413 C412 1.362 . S
C413 C414 1.366 . S
C414 C411 1.365 . S
C414 C413 1.366 . S
C414 H428 0.930 . S
C415 C412 1.378 . S
C415 N416 1.315 . S
C415 H418 0.930 . S
N416 Co396 2.194 . S
N416 C411 1.328 . S
N416 C415 1.315 . S
H417 C411 0.929 . S
H418 C415 0.930 . S
H419 C407 0.929 . S
H420 C409 0.929 . S
O421 Co396 2.351 . S
O421 C424 1.244 . S
O422 Co396 2.155 . S
O422 C424 1.240 . S
O423 Co396 2.096 . S
O423 C404 1.247 . S
C424 O421 1.244 . S
C424 O422 1.240 . S
H425 C399 0.931 . S
H426 C408 0.931 . S
H427 C412 0.929 . S
H428 C414 0.930 . S
Co429 N433 2.148 . S
Co429 N439 2.128 . S
Co429 N449 2.194 . S
Co429 O454 2.351 . S
Co429 O455 2.155 . S
Co429 O456 2.096 . S
C430 N433 1.301 . S
C430 N434 1.328 . S
C430 H435 0.930 . S
C431 C432 1.333 . S
C431 N433 1.317 . S
C431 H436 0.930 . S
C432 C431 1.333 . S
C432 N434 1.350 . S
C432 H458 0.931 . S
N433 Co429 2.148 . S
N433 C430 1.301 . S
N433 C431 1.317 . S
N434 C430 1.328 . S
N434 C432 1.350 . S
H435 C430 0.930 . S
H436 C431 0.930 . S
C437 O438 1.224 . S
C437 O456 1.247 . S
O438 C437 1.224 . S
N439 Co429 2.128 . S
N439 C440 1.355 . S
N439 C442 1.311 . S
C440 N439 1.355 . S
C440 C441 1.363 . S
C440 H452 0.929 . S
C441 C440 1.363 . S
C441 N443 1.375 . S
C441 H459 0.931 . S
C442 N439 1.311 . S
C442 N443 1.347 . S
C442 H453 0.929 . S
N443 C441 1.375 . S
N443 C442 1.347 . S
C444 C447 1.365 . S
C444 N449 1.328 . S
C444 H450 0.929 . S
C445 C446 1.362 . S
C445 C448 1.378 . S
C445 H460 0.929 . S
C446 C445 1.362 . S
C446 C447 1.366 . S
C447 C444 1.365 . S
C447 C446 1.366 . S
C447 H461 0.930 . S
C448 C445 1.378 . S
C448 N449 1.315 . S
C448 H451 0.930 . S
N449 Co429 2.194 . S
N449 C444 1.328 . S
N449 C448 1.315 . S
H450 C444 0.929 . S
H451 C448 0.930 . S
H452 C440 0.929 . S
H453 C442 0.929 . S
O454 Co429 2.351 . S
O454 C457 1.244 . S
O455 Co429 2.155 . S
O455 C457 1.240 . S
O456 Co429 2.096 . S
O456 C437 1.247 . S
C457 O454 1.244 . S
C457 O455 1.240 . S
H458 C432 0.931 . S
H459 C441 0.931 . S
H460 C445 0.929 . S
H461 C447 0.930 . S
Co462 N466 2.148 . S
Co462 N472 2.128 . S
Co462 N482 2.194 . S
Co462 O487 2.351 . S
Co462 O488 2.155 . S
Co462 O489 2.096 . S
C463 N466 1.301 . S
C463 N467 1.328 . S
C463 H468 0.930 . S
C464 C465 1.333 . S
C464 N466 1.317 . S
C464 H469 0.930 . S
C465 C464 1.333 . S
C465 N467 1.350 . S
C465 H491 0.931 . S
N466 Co462 2.148 . S
N466 C463 1.301 . S
N466 C464 1.317 . S
N467 C463 1.328 . S
N467 C465 1.350 . S
H468 C463 0.930 . S
H469 C464 0.930 . S
C470 O471 1.224 . S
C470 O489 1.247 . S
O471 C470 1.224 . S
N472 Co462 2.128 . S
N472 C473 1.355 . S
N472 C475 1.311 . S
C473 N472 1.355 . S
C473 C474 1.363 . S
C473 H485 0.929 . S
C474 C473 1.363 . S
C474 N476 1.375 . S
C474 H492 0.931 . S
C475 N472 1.311 . S
C475 N476 1.347 . S
C475 H486 0.929 . S
N476 C474 1.375 . S
N476 C475 1.347 . S
C477 C480 1.365 . S
C477 N482 1.328 . S
C477 H483 0.929 . S
C478 C479 1.362 . S
C478 C481 1.378 . S
C478 H493 0.929 . S
C479 C478 1.362 . S
C479 C480 1.366 . S
C480 C477 1.365 . S
C480 C479 1.366 . S
C480 H494 0.930 . S
C481 C478 1.378 . S
C481 N482 1.315 . S
C481 H484 0.930 . S
N482 Co462 2.194 . S
N482 C477 1.328 . S
N482 C481 1.315 . S
H483 C477 0.929 . S
H484 C481 0.930 . S
H485 C473 0.929 . S
H486 C475 0.929 . S
O487 Co462 2.351 . S
O487 C490 1.244 . S
O488 Co462 2.155 . S
O488 C490 1.240 . S
O489 Co462 2.096 . S
O489 C470 1.247 . S
C490 O487 1.244 . S
C490 O488 1.240 . S
H491 C465 0.931 . S
H492 C474 0.931 . S
H493 C478 0.929 . S
H494 C480 0.930 . S
Co495 N499 2.148 . S
Co495 N505 2.128 . S
Co495 N515 2.194 . S
Co495 O520 2.351 . S
Co495 O521 2.155 . S
Co495 O522 2.096 . S
C496 N499 1.301 . S
C496 N500 1.328 . S
C496 H501 0.930 . S
C497 C498 1.333 . S
C497 N499 1.317 . S
C497 H502 0.930 . S
C498 C497 1.333 . S
C498 N500 1.350 . S
C498 H524 0.931 . S
N499 Co495 2.148 . S
N499 C496 1.301 . S
N499 C497 1.317 . S
N500 C496 1.328 . S
N500 C498 1.350 . S
H501 C496 0.930 . S
H502 C497 0.930 . S
C503 O504 1.224 . S
C503 O522 1.247 . S
O504 C503 1.224 . S
N505 Co495 2.128 . S
N505 C506 1.355 . S
N505 C508 1.311 . S
C506 N505 1.355 . S
C506 C507 1.363 . S
C506 H518 0.929 . S
C507 C506 1.363 . S
C507 N509 1.375 . S
C507 H525 0.931 . S
C508 N505 1.311 . S
C508 N509 1.347 . S
C508 H519 0.929 . S
N509 C507 1.375 . S
N509 C508 1.347 . S
C510 C513 1.365 . S
C510 N515 1.328 . S
C510 H516 0.929 . S
C511 C512 1.362 . S
C511 C514 1.378 . S
C511 H526 0.929 . S
C512 C511 1.362 . S
C512 C513 1.366 . S
C513 C510 1.365 . S
C513 C512 1.366 . S
C513 H527 0.930 . S
C514 C511 1.378 . S
C514 N515 1.315 . S
C514 H517 0.930 . S
N515 Co495 2.194 . S
N515 C510 1.328 . S
N515 C514 1.315 . S
H516 C510 0.929 . S
H517 C514 0.930 . S
H518 C506 0.929 . S
H519 C508 0.929 . S
O520 Co495 2.351 . S
O520 C523 1.244 . S
O521 Co495 2.155 . S
O521 C523 1.240 . S
O522 Co495 2.096 . S
O522 C503 1.247 . S
C523 O520 1.244 . S
C523 O521 1.240 . S
H524 C498 0.931 . S
H525 C507 0.931 . S
H526 C511 0.929 . S
H527 C513 0.930 . S
C528 C529 1.369 . S
C528 C530 1.419 . S
C528 H532 0.930 . S
C529 C528 1.369 . S
C529 C538 1.429 . S
C530 C528 1.419 . S
C530 C531 1.363 . S
C530 H533 0.929 . S
C531 C530 1.363 . S
C531 C537 1.428 . S
H532 C528 0.930 . S
H533 C530 0.929 . S
S534 N535 1.613 . S
S534 N536 1.610 . S
N535 S534 1.613 . S
N535 C538 1.350 . S
N536 S534 1.610 . S
N536 C537 1.351 . S
C537 C531 1.428 . S
C537 N536 1.351 . S
C537 C538 1.434 . S
C538 C529 1.429 . S
C538 N535 1.350 . S
C538 C537 1.434 . S
C539 C540 1.369 . S
C539 C541 1.419 . S
C539 H543 0.930 . S
C540 C539 1.369 . S
C540 C549 1.429 . S
C541 C539 1.419 . S
C541 C542 1.363 . S
C541 H544 0.929 . S
C542 C541 1.363 . S
C542 C548 1.428 . S
H543 C539 0.930 . S
H544 C541 0.929 . S
S545 N546 1.613 1_545 S
S545 N547 1.610 1_545 S
N546 S545 1.613 1_565 S
N546 C549 1.350 . S
N547 S545 1.610 1_565 S
N547 C548 1.351 . S
C548 C542 1.428 . S
C548 N547 1.351 . S
C548 C549 1.434 . S
C549 C540 1.429 . S
C549 N546 1.350 . S
C549 C548 1.434 . S
C550 C551 1.369 . S
C550 C552 1.419 . S
C550 H554 0.930 . S
C551 C550 1.369 . S
C551 C560 1.429 . S
C552 C550 1.419 . S
C552 C553 1.363 . S
C552 H555 0.929 . S
C553 C552 1.363 . S
C553 C559 1.428 . S
H554 C550 0.930 . S
H555 C552 0.929 . S
S556 N557 1.613 . S
S556 N558 1.610 . S
N557 S556 1.613 . S
N557 C560 1.350 . S
N558 S556 1.610 . S
N558 C559 1.351 . S
C559 C553 1.428 . S
C559 N558 1.351 . S
C559 C560 1.434 . S
C560 C551 1.429 . S
C560 N557 1.350 . S
C560 C559 1.434 . S
C561 C562 1.369 . S
C561 C563 1.419 . S
C561 H565 0.930 . S
C562 C561 1.369 . S
C562 C571 1.429 . S
C563 C561 1.419 . S
C563 C564 1.363 . S
C563 H566 0.929 . S
C564 C563 1.363 . S
C564 C570 1.428 . S
H565 C561 0.930 . S
H566 C563 0.929 . S
S567 N568 1.613 . S
S567 N569 1.610 . S
N568 S567 1.613 . S
N568 C571 1.350 . S
N569 S567 1.610 . S
N569 C570 1.351 . S
C570 C564 1.428 . S
C570 N569 1.351 . S
C570 C571 1.434 . S
C571 C562 1.429 . S
C571 N568 1.350 . S
C571 C570 1.434 . S
C572 C573 1.369 1_556 S
C572 C574 1.419 . S
C572 H576 0.936 . S
C573 C572 1.369 1_554 S
C573 C582 1.429 . S
C574 C572 1.419 . S
C574 C575 1.363 . S
C574 H577 0.929 . S
C575 C574 1.363 . S
C575 C581 1.428 . S
H576 C572 0.936 . S
H577 C574 0.929 . S
S578 N579 1.613 . S
S578 N580 1.610 1_554 S
N579 S578 1.613 . S
N579 C582 1.350 . S
N580 S578 1.610 1_556 S
N580 C581 1.351 . S
C581 C575 1.428 . S
C581 N580 1.351 . S
C581 C582 1.434 1_556 S
C582 C573 1.429 . S
C582 N579 1.350 . S
C582 C581 1.434 1_554 S
C583 C584 1.369 1_554 S
C583 C585 1.419 . S
C583 H587 0.923 1_554 S
C584 C583 1.369 1_556 S
C584 C593 1.429 . S
C585 C583 1.419 . S
C585 C586 1.363 . S
C585 H588 0.929 . S
C586 C585 1.363 . S
C586 C592 1.428 . S
H587 C583 0.923 1_556 S
H588 C585 0.929 . S
S589 N590 1.613 1_545 S
S589 N591 1.610 1_546 S
N590 S589 1.613 1_565 S
N590 C593 1.350 . S
N591 S589 1.610 1_564 S
N591 C592 1.351 . S
C592 C586 1.428 . S
C592 N591 1.351 . S
C592 C593 1.434 1_554 S
C593 C584 1.429 . S
C593 N590 1.350 . S
C593 C592 1.434 1_556 S
C594 C595 1.369 . S
C594 C596 1.419 1_556 S
C594 H598 0.930 . S
C595 C594 1.369 . S
C595 C604 1.429 . S
C596 C594 1.419 1_554 S
C596 C597 1.363 . S
C596 H599 0.929 . S
C597 C596 1.363 . S
C597 C603 1.428 . S
H598 C594 0.930 . S
H599 C596 0.929 . S
S600 N601 1.613 1_545 S
S600 N602 1.610 1_546 S
N601 S600 1.613 1_565 S
N601 C604 1.350 . S
N602 S600 1.610 1_564 S
N602 C603 1.351 . S
C603 C597 1.428 . S
C603 N602 1.351 . S
C603 C604 1.434 1_554 S
C604 C595 1.429 . S
C604 N601 1.350 . S
C604 C603 1.434 1_556 S
C605 C606 1.369 . S
C605 C607 1.419 1_554 S
C605 H609 0.930 . S
C606 C605 1.369 . S
C606 C615 1.429 . S
C607 C605 1.419 1_556 S
C607 C608 1.363 . S
C607 H610 0.929 . S
C608 C607 1.363 . S
C608 C614 1.428 1_556 S
H609 C605 0.930 . S
H610 C607 0.929 . S
S611 N612 1.613 . S
S611 N613 1.676 . S
N612 S611 1.613 . S
N612 C615 1.350 . S
N613 S611 1.676 . S
N613 C614 1.356 . S
C614 C608 1.428 1_554 S
C614 N613 1.356 . S
C614 C615 1.434 . S
C615 C606 1.429 . S
C615 N612 1.350 . S
C615 C614 1.434 . S
C616 C617 1.369 . S
C616 C618 1.419 . S
C616 H620 0.930 . S
C617 C616 1.369 . S
C617 C626 1.429 . S
C618 C616 1.419 . S
C618 C619 1.363 . S
C618 H621 0.929 . S
C619 C618 1.363 . S
C619 C625 1.428 . S
H620 C616 0.930 . S
H621 C618 0.929 . S
S622 N623 1.613 . S
S622 N624 1.610 . S
N623 S622 1.613 . S
N623 C626 1.350 . S
N624 S622 1.610 . S
N624 C625 1.351 . S
C625 C619 1.428 . S
C625 N624 1.351 . S
C625 C626 1.434 . S
C626 C617 1.429 . S
C626 N623 1.350 . S
C626 C625 1.434 . S
C627 C628 1.369 . S
C627 C629 1.419 . S
C627 H631 0.930 . S
C628 C627 1.369 . S
C628 C637 1.429 . S
C629 C627 1.419 . S
C629 C630 1.363 . S
C629 H632 0.929 . S
C630 C629 1.363 . S
C630 C636 1.428 . S
H631 C627 0.930 . S
H632 C629 0.929 . S
S633 N634 1.613 . S
S633 N635 1.610 . S
N634 S633 1.613 . S
N634 C637 1.350 . S
N635 S633 1.610 . S
N635 C636 1.351 . S
C636 C630 1.428 . S
C636 N635 1.351 . S
C636 C637 1.434 . S
C637 C628 1.429 . S
C637 N634 1.350 . S
C637 C636 1.434 . S
C638 C639 1.369 . S
C638 C640 1.419 . S
C638 H642 0.930 . S
C639 C638 1.369 . S
C639 C648 1.429 . S
C640 C638 1.419 . S
C640 C641 1.363 . S
C640 H643 0.929 . S
C641 C640 1.363 . S
C641 C647 1.428 . S
H642 C638 0.930 . S
H643 C640 0.929 . S
S644 N645 1.613 . S
S644 N646 1.610 . S
N645 S644 1.613 . S
N645 C648 1.350 . S
N646 S644 1.610 . S
N646 C647 1.351 . S
C647 C641 1.428 . S
C647 N646 1.351 . S
C647 C648 1.434 . S
C648 C639 1.429 . S
C648 N645 1.350 . S
C648 C647 1.434 . S
C649 C650 1.369 . S
C649 C651 1.419 . S
C649 H653 0.930 . S
C650 C649 1.369 . S
C650 C659 1.429 . S
C651 C649 1.419 . S
C651 C652 1.363 . S
C651 H654 0.929 . S
C652 C651 1.363 . S
C652 C658 1.428 . S
H653 C649 0.930 . S
H654 C651 0.929 . S
S655 N656 1.613 . S
S655 N657 1.610 . S
N656 S655 1.613 . S
N656 C659 1.350 . S
N657 S655 1.610 . S
N657 C658 1.351 . S
C658 C652 1.428 . S
C658 N657 1.351 . S
C658 C659 1.434 . S
C659 C650 1.429 . S
C659 N656 1.350 . S
C659 C658 1.434 . S
C660 C661 1.369 . S
C660 C662 1.419 . S
C660 H664 0.930 . S
C661 C660 1.369 . S
C661 C670 1.429 . S
C662 C660 1.419 . S
C662 C663 1.363 . S
C662 H665 0.929 . S
C663 C662 1.363 . S
C663 C669 1.428 . S
H664 C660 0.930 . S
H665 C662 0.929 . S
S666 N667 1.613 . S
S666 N668 1.610 . S
N667 S666 1.613 . S
N667 C670 1.350 . S
N668 S666 1.610 . S
N668 C669 1.351 . S
C669 C663 1.428 . S
C669 N668 1.351 . S
C669 C670 1.434 . S
C670 C661 1.429 . S
C670 N667 1.350 . S
C670 C669 1.434 . S
C671 C672 1.369 . S
C671 C673 1.419 . S
C671 H675 0.930 . S
C672 C671 1.369 . S
C672 C681 1.429 . S
C673 C671 1.419 . S
C673 C674 1.363 . S
C673 H676 0.929 . S
C674 C673 1.363 . S
C674 C680 1.428 . S
H675 C671 0.930 . S
H676 C673 0.929 . S
S677 N678 1.613 . S
S677 N679 1.610 . S
N678 S677 1.613 . S
N678 C681 1.350 . S
N679 S677 1.610 . S
N679 C680 1.351 . S
C680 C674 1.428 . S
C680 N679 1.351 . S
C680 C681 1.434 . S
C681 C672 1.429 . S
C681 N678 1.350 . S
C681 C680 1.434 . S
C682 C683 1.369 . S
C682 C684 1.419 . S
C682 H686 0.930 . S
C683 C682 1.369 . S
C683 C692 1.429 . S
C684 C682 1.419 . S
C684 C685 1.363 . S
C684 H687 0.929 . S
C685 C684 1.363 . S
C685 C691 1.428 . S
H686 C682 0.930 . S
H687 C684 0.929 . S
S688 N689 1.613 . S
S688 N690 1.610 . S
N689 S688 1.613 . S
N689 C692 1.350 . S
N690 S688 1.610 . S
N690 C691 1.351 . S
C691 C685 1.428 . S
C691 N690 1.351 . S
C691 C692 1.434 . S
C692 C683 1.429 . S
C692 N689 1.350 . S
C692 C691 1.434 . S
C693 C694 1.369 . S
C693 C695 1.419 . S
C693 H697 0.930 . S
C694 C693 1.369 . S
C694 C703 1.429 . S
C695 C693 1.419 . S
C695 C696 1.363 . S
C695 H698 0.929 . S
C696 C695 1.363 . S
C696 C702 1.428 . S
H697 C693 0.930 . S
H698 C695 0.929 . S
S699 N700 1.613 . S
S699 N701 1.610 . S
N700 S699 1.613 . S
N700 C703 1.350 . S
N701 S699 1.610 . S
N701 C702 1.351 . S
C702 C696 1.428 . S
C702 N701 1.351 . S
C702 C703 1.434 . S
C703 C694 1.429 . S
C703 N700 1.350 . S
C703 C702 1.434 . S
C704 C705 1.369 1_455 S
C704 C706 1.419 1_545 S
C704 H708 0.930 . S
C705 C704 1.369 1_655 S
C705 C714 1.429 . S
C706 C704 1.419 1_565 S
C706 C707 1.363 . S
C706 H709 0.929 . S
C707 C706 1.363 . S
C707 C713 1.428 1_455 S
H708 C704 0.930 . S
H709 C706 0.929 . S
S710 N711 1.613 1_565 S
S710 N712 1.610 . S
N711 S710 1.613 1_545 S
N711 C714 1.350 . S
N712 S710 1.610 . S
N712 C713 1.351 . S
C713 C707 1.428 1_655 S
C713 N712 1.351 . S
C713 C714 1.434 1_565 S
C714 C705 1.429 . S
C714 N711 1.350 . S
C714 C713 1.434 1_545 S
C715 C716 1.369 . S
C715 C717 1.419 1_455 S
C715 H719 0.930 . S
C716 C715 1.369 . S
C716 C725 1.429 1_545 S
C717 C715 1.419 1_655 S
C717 C718 1.363 1_545 S
C717 H720 0.929 . S
C718 C717 1.363 1_565 S
C718 C724 1.428 . S
H719 C715 0.930 . S
H720 C717 0.929 . S
S721 N722 1.613 . S
S721 N723 1.610 1_455 S
N722 S721 1.613 . S
N722 C725 1.350 . S
N723 S721 1.610 1_655 S
N723 C724 1.351 . S
C724 C718 1.428 . S
C724 N723 1.351 . S
C724 C725 1.434 1_655 S
C725 C716 1.429 1_565 S
C725 N722 1.350 . S
C725 C724 1.434 1_455 S
C726 C727 1.369 1_655 S
C726 C728 1.419 . S
C726 H730 0.930 . S
C727 C726 1.369 1_455 S
C727 C736 1.429 . S
C728 C726 1.419 . S
C728 C729 1.363 . S
C728 H731 0.929 . S
C729 C728 1.363 . S
C729 C735 1.428 1_655 S
H730 C726 0.930 . S
H731 C728 0.929 . S
S732 N733 1.613 . S
S732 N734 1.610 . S
N733 S732 1.613 . S
N733 C736 1.350 . S
N734 S732 1.610 . S
N734 C735 1.351 . S
C735 C729 1.428 1_455 S
C735 N734 1.351 . S
C735 C736 1.434 . S
C736 C727 1.429 . S
C736 N733 1.350 . S
C736 C735 1.434 . S
C737 C738 1.369 1_545 S
C737 C739 1.419 . S
C737 H741 0.930 . S
C738 C737 1.369 1_565 S
C738 C747 1.429 . S
C739 C737 1.419 . S
C739 C740 1.363 . S
C739 H742 0.929 . S
C740 C739 1.363 . S
C740 C746 1.428 1_545 S
H741 C737 0.930 . S
H742 C739 0.929 . S
S743 N744 1.613 . S
S743 N745 1.610 . S
N744 S743 1.613 . S
N744 C747 1.350 . S
N745 S743 1.610 . S
N745 C746 1.351 . S
C746 C740 1.428 1_565 S
C746 N745 1.351 . S
C746 C747 1.434 . S
C747 C738 1.429 . S
C747 N744 1.350 . S
C747 C746 1.434 . S
C748 C749 1.369 . S
C748 C750 1.419 . S
C748 H752 0.930 . S
C749 C748 1.369 . S
C749 C758 1.429 . S
C750 C748 1.419 . S
C750 C751 1.363 . S
C750 H753 0.929 . S
C751 C750 1.363 . S
C751 C757 1.428 . S
H752 C748 0.930 . S
H753 C750 0.929 . S
S754 N755 1.613 . S
S754 N756 1.610 . S
N755 S754 1.613 . S
N755 C758 1.350 . S
N756 S754 1.610 . S
N756 C757 1.351 . S
C757 C751 1.428 . S
C757 N756 1.351 . S
C757 C758 1.434 . S
C758 C749 1.429 . S
C758 N755 1.350 . S
C758 C757 1.434 . S
C759 C760 1.369 . S
C759 C761 1.419 . S
C759 H763 0.930 . S
C760 C759 1.369 . S
C760 C769 1.429 . S
C761 C759 1.419 . S
C761 C762 1.363 . S
C761 H764 0.929 . S
C762 C761 1.363 . S
C762 C768 1.428 . S
H763 C759 0.930 . S
H764 C761 0.929 . S
S765 N766 1.613 . S
S765 N767 1.610 . S
N766 S765 1.613 . S
N766 C769 1.350 . S
N767 S765 1.610 . S
N767 C768 1.351 . S
C768 C762 1.428 . S
C768 N767 1.351 . S
C768 C769 1.434 . S
C769 C760 1.429 . S
C769 N766 1.350 . S
C769 C768 1.434 . S
C770 C771 1.369 . S
C770 C772 1.419 1_565 S
C770 H774 0.930 . S
C771 C770 1.369 . S
C771 C780 1.429 . S
C772 C770 1.419 1_545 S
C772 C773 1.363 . S
C772 H775 0.929 . S
C773 C772 1.363 . S
C773 C779 1.428 . S
H774 C770 0.930 . S
H775 C772 0.929 . S
S776 N777 1.613 . S
S776 N778 1.610 1_565 S
N777 S776 1.613 . S
N777 C780 1.350 . S
N778 S776 1.610 1_545 S
N778 C779 1.351 . S
C779 C773 1.428 . S
C779 N778 1.351 . S
C779 C780 1.434 1_545 S
C780 C771 1.429 . S
C780 N777 1.350 . S
C780 C779 1.434 1_565 S
C781 C782 1.369 . S
C781 C783 1.419 1_455 S
C781 H785 0.930 . S
C782 C781 1.369 . S
C782 C791 1.429 . S
C783 C781 1.419 1_655 S
C783 C784 1.363 . S
C783 H786 0.929 . S
C784 C783 1.363 . S
C784 C790 1.428 . S
H785 C781 0.930 . S
H786 C783 0.929 . S
S787 N788 1.613 . S
S787 N789 1.610 1_455 S
N788 S787 1.613 . S
N788 C791 1.350 . S
N789 S787 1.610 1_655 S
N789 C790 1.351 . S
C790 C784 1.428 . S
C790 N789 1.351 . S
C790 C791 1.434 1_655 S
C791 C782 1.429 . S
C791 N788 1.350 . S
C791 C790 1.434 1_455 S
C792 C793 1.369 . S
C792 C794 1.419 . S
C792 H796 0.930 . S
C793 C792 1.369 . S
C793 C802 1.429 1_455 S
C794 C792 1.419 . S
C794 C795 1.363 1_455 S
C794 H797 0.929 . S
C795 C794 1.363 1_655 S
C795 C801 1.428 . S
H796 C792 0.930 . S
H797 C794 0.929 . S
S798 N799 1.613 . S
S798 N800 1.610 . S
N799 S798 1.613 . S
N799 C802 1.350 . S
N800 S798 1.610 . S
N800 C801 1.351 . S
C801 C795 1.428 . S
C801 N800 1.351 . S
C801 C802 1.434 . S
C802 C793 1.429 1_655 S
C802 N799 1.350 . S
C802 C801 1.434 . S
C803 C804 1.369 . S
C803 C805 1.419 . S
C803 H807 0.930 . S
C804 C803 1.369 . S
C804 C813 1.429 1_545 S
C805 C803 1.419 . S
C805 C806 1.363 1_545 S
C805 H808 0.929 . S
C806 C805 1.363 1_565 S
C806 C812 1.428 . S
H807 C803 0.930 . S
H808 C805 0.929 . S
S809 N810 1.613 . S
S809 N811 1.610 . S
N810 S809 1.613 . S
N810 C813 1.350 . S
N811 S809 1.610 . S
N811 C812 1.351 . S
C812 C806 1.428 . S
C812 N811 1.351 . S
C812 C813 1.434 . S
C813 C804 1.429 1_565 S
C813 N810 1.350 . S
C813 C812 1.434 . S
C814 C815 1.369 1_455 S
C814 C816 1.419 1_545 S
C814 H818 0.930 . S
C815 C814 1.369 1_655 S
C815 C824 1.429 . S
C816 C814 1.419 1_565 S
C816 C817 1.363 . S
C816 H819 0.929 . S
C817 C816 1.363 . S
C817 C823 1.428 1_455 S
H818 C814 0.930 . S
H819 C816 0.929 . S
S820 N821 1.613 1_565 S
S820 N822 1.610 . S
N821 S820 1.613 1_545 S
N821 C824 1.350 . S
N822 S820 1.610 . S
N822 C823 1.351 . S
C823 C817 1.428 1_655 S
C823 N822 1.351 . S
C823 C824 1.434 1_565 S
C824 C815 1.429 . S
C824 N821 1.350 . S
C824 C823 1.434 1_545 S
C825 C826 1.369 1_545 S
C825 C827 1.419 1_655 S
C825 H829 0.930 . S
C826 C825 1.369 1_565 S
C826 C835 1.429 . S
C827 C825 1.419 1_455 S
C827 C828 1.363 . S
C827 H830 0.929 . S
C828 C827 1.363 . S
C828 C834 1.428 1_545 S
H829 C825 0.930 . S
H830 C827 0.929 . S
S831 N832 1.613 1_455 S
S831 N833 1.610 . S
N832 S831 1.613 1_655 S
N832 C835 1.350 . S
N833 S831 1.610 . S
N833 C834 1.351 . S
C834 C828 1.428 1_565 S
C834 N833 1.351 . S
C834 C835 1.434 1_455 S
C835 C826 1.429 . S
C835 N832 1.350 . S
C835 C834 1.434 1_655 S
C836 C837 1.369 . S
C836 C838 1.419 1_545 S
C836 H840 0.930 . S
C837 C836 1.369 . S
C837 C846 1.429 . S
C838 C836 1.419 1_565 S
C838 C839 1.363 . S
C838 H841 0.929 . S
C839 C838 1.363 . S
C839 C845 1.428 . S
H840 C836 0.930 . S
H841 C838 0.929 . S
S842 N843 1.613 1_565 S
S842 N844 1.610 . S
N843 S842 1.613 1_545 S
N843 C846 1.350 . S
N844 S842 1.610 . S
N844 C845 1.351 . S
C845 C839 1.428 . S
C845 N844 1.351 . S
C845 C846 1.434 1_565 S
C846 C837 1.429 . S
C846 N843 1.350 . S
C846 C845 1.434 1_545 S
C847 C848 1.369 . S
C847 C849 1.419 1_655 S
C847 H851 0.930 . S
C848 C847 1.369 . S
C848 C857 1.429 . S
C849 C847 1.419 1_455 S
C849 C850 1.363 . S
C849 H852 0.929 . S
C850 C849 1.363 . S
C850 C856 1.428 . S
H851 C847 0.930 . S
H852 C849 0.929 . S
S853 N854 1.613 . S
S853 N855 1.610 1_655 S
N854 S853 1.613 . S
N854 C857 1.350 . S
N855 S853 1.610 1_455 S
N855 C856 1.351 . S
C856 C850 1.428 . S
C856 N855 1.351 . S
C856 C857 1.434 1_455 S
C857 C848 1.429 . S
C857 N854 1.350 . S
C857 C856 1.434 1_655 S
C858 C859 1.369 . S
C858 C860 1.419 . S
C858 H862 0.930 . S
C859 C858 1.369 . S
C859 C868 1.429 . S
C860 C858 1.419 . S
C860 C861 1.363 . S
C860 H863 0.929 . S
C861 C860 1.363 . S
C861 C867 1.428 . S
H862 C858 0.930 . S
H863 C860 0.929 . S
S864 N865 1.613 . S
S864 N866 1.610 . S
N865 S864 1.613 . S
N865 C868 1.350 . S
N866 S864 1.610 . S
N866 C867 1.351 . S
C867 C861 1.428 . S
C867 N866 1.351 . S
C867 C868 1.434 . S
C868 C859 1.429 . S
C868 N865 1.350 . S
C868 C867 1.434 . S
C869 C870 1.369 . S
C869 C871 1.419 . S
C869 H873 0.930 . S
C870 C869 1.369 . S
C870 C879 1.429 . S
C871 C869 1.419 . S
C871 C872 1.363 . S
C871 H874 0.929 . S
C872 C871 1.363 . S
C872 C878 1.428 . S
H873 C869 0.930 . S
H874 C871 0.929 . S
S875 N876 1.613 . S
S875 N877 1.610 . S
N876 S875 1.613 . S
N876 C879 1.350 . S
N877 S875 1.610 . S
N877 C878 1.351 . S
C878 C872 1.428 . S
C878 N877 1.351 . S
C878 C879 1.434 . S
C879 C870 1.429 . S
C879 N876 1.350 . S
C879 C878 1.434 . S
C880 C881 1.369 . S
C880 C882 1.419 . S
C880 H884 0.930 . S
C881 C880 1.369 . S
C881 C890 1.429 . S
C882 C880 1.419 . S
C882 C883 1.363 . S
C882 H885 0.929 . S
C883 C882 1.363 . S
C883 C889 1.428 . S
H884 C880 0.930 . S
H885 C882 0.929 . S
S886 N887 1.613 . S
S886 N888 1.610 . S
N887 S886 1.613 . S
N887 C890 1.350 . S
N888 S886 1.610 . S
N888 C889 1.351 . S
C889 C883 1.428 . S
C889 N888 1.351 . S
C889 C890 1.434 . S
C890 C881 1.429 . S
C890 N887 1.350 . S
C890 C889 1.434 . S
C891 C892 1.369 . S
C891 C893 1.419 . S
C891 H895 0.930 . S
C892 C891 1.369 . S
C892 C901 1.429 . S
C893 C891 1.419 . S
C893 C894 1.363 . S
C893 H896 0.929 . S
C894 C893 1.363 . S
C894 C900 1.428 . S
H895 C891 0.930 . S
H896 C893 0.929 . S
S897 N898 1.613 . S
S897 N899 1.610 . S
N898 S897 1.613 . S
N898 C901 1.350 . S
N899 S897 1.610 . S
N899 C900 1.351 . S
C900 C894 1.428 . S
C900 N899 1.351 . S
C900 C901 1.434 . S
C901 C892 1.429 . S
C901 N898 1.350 . S
C901 C900 1.434 . S
C902 C903 1.369 . S
C902 C904 1.419 . S
C902 H906 0.930 . S
C903 C902 1.369 . S
C903 C912 1.429 . S
C904 C902 1.419 . S
C904 C905 1.363 . S
C904 H907 0.929 . S
C905 C904 1.363 . S
C905 C911 1.428 . S
H906 C902 0.930 . S
H907 C904 0.929 . S
S908 N909 1.613 . S
S908 N910 1.610 . S
N909 S908 1.613 . S
N909 C912 1.350 . S
N910 S908 1.610 . S
N910 C911 1.351 . S
C911 C905 1.428 . S
C911 N910 1.351 . S
C911 C912 1.434 . S
C912 C903 1.429 . S
C912 N909 1.350 . S
C912 C911 1.434 . S
C913 C914 1.369 . S
C913 C915 1.419 . S
C913 H917 0.930 . S
C914 C913 1.369 . S
C914 C923 1.429 . S
C915 C913 1.419 . S
C915 C916 1.363 . S
C915 H918 0.929 . S
C916 C915 1.363 . S
C916 C922 1.428 . S
H917 C913 0.930 . S
H918 C915 0.929 . S
S919 N920 1.613 . S
S919 N921 1.610 . S
N920 S919 1.613 . S
N920 C923 1.350 . S
N921 S919 1.610 . S
N921 C922 1.351 . S
C922 C916 1.428 . S
C922 N921 1.351 . S
C922 C923 1.434 . S
C923 C914 1.429 . S
C923 N920 1.350 . S
C923 C922 1.434 . S
C924 C925 1.369 . S
C924 C926 1.419 . S
C924 H928 0.930 . S
C925 C924 1.369 . S
C925 C934 1.429 . S
C926 C924 1.419 . S
C926 C927 1.363 . S
C926 H929 0.929 . S
C927 C926 1.363 . S
C927 C933 1.428 . S
H928 C924 0.930 . S
H929 C926 0.929 . S
S930 N931 1.613 . S
S930 N932 1.610 . S
N931 S930 1.613 . S
N931 C934 1.350 . S
N932 S930 1.610 . S
N932 C933 1.351 . S
C933 C927 1.428 . S
C933 N932 1.351 . S
C933 C934 1.434 . S
C934 C925 1.429 . S
C934 N931 1.350 . S
C934 C933 1.434 . S
C935 C936 1.369 . S
C935 C937 1.419 . S
C935 H939 0.930 . S
C936 C935 1.369 . S
C936 C945 1.429 . S
C937 C935 1.419 . S
C937 C938 1.363 . S
C937 H940 0.929 . S
C938 C937 1.363 . S
C938 C944 1.428 . S
H939 C935 0.930 . S
H940 C937 0.929 . S
S941 N942 1.613 . S
S941 N943 1.610 . S
N942 S941 1.613 . S
N942 C945 1.350 . S
N943 S941 1.610 . S
N943 C944 1.351 . S
C944 C938 1.428 . S
C944 N943 1.351 . S
C944 C945 1.434 . S
C945 C936 1.429 . S
C945 N942 1.350 . S
C945 C944 1.434 . S
C946 C947 1.369 . S
C946 C948 1.419 . S
C946 H950 0.930 . S
C947 C946 1.369 . S
C947 C956 1.429 . S
C948 C946 1.419 . S
C948 C949 1.363 . S
C948 H951 0.929 . S
C949 C948 1.363 . S
C949 C955 1.428 . S
H950 C946 0.930 . S
H951 C948 0.929 . S
S952 N953 1.613 . S
S952 N954 1.610 . S
N953 S952 1.613 . S
N953 C956 1.350 . S
N954 S952 1.610 . S
N954 C955 1.351 . S
C955 C949 1.428 . S
C955 N954 1.351 . S
C955 C956 1.434 . S
C956 C947 1.429 . S
C956 N953 1.350 . S
C956 C955 1.434 . S
C957 C958 1.369 . S
C957 C959 1.419 . S
C957 H961 0.930 . S
C958 C957 1.369 . S
C958 C967 1.429 . S
C959 C957 1.419 . S
C959 C960 1.363 . S
C959 H962 0.929 . S
C960 C959 1.363 . S
C960 C966 1.428 . S
H961 C957 0.930 . S
H962 C959 0.929 . S
S963 N964 1.613 . S
S963 N965 1.610 . S
N964 S963 1.613 . S
N964 C967 1.350 . S
N965 S963 1.610 . S
N965 C966 1.351 . S
C966 C960 1.428 . S
C966 N965 1.351 . S
C966 C967 1.434 . S
C967 C958 1.429 . S
C967 N964 1.350 . S
C967 C966 1.434 . S
C529 C8 1.170 . S
C531 N377 1.180 . S
C540 N278 1.178 . S
C542 C41 1.167 . S
C551 N311 1.178 . S
C553 C74 1.170 . S
C562 N344 1.181 . S
C564 C107 1.170 . S
C573 N179 1.178 . S
C575 C140 1.167 . S
C584 N212 1.178 . S
C586 C173 1.167 . S
C595 C206 1.168 . S
C597 N245 1.178 . S
C606 C239 1.173 . S
C608 N146 1.179 . S
C617 C272 1.166 . S
C619 N113 1.178 . S
C628 C305 1.166 . S
C630 N14 1.178 . S
C639 N47 1.178 . S
C641 C338 1.169 . S
C650 C371 1.171 . S
C652 N80 1.181 . S
C661 N443 1.180 . S
C663 C404 1.169 . S
C672 N476 1.179 . S
C674 C437 1.168 . S
C683 N509 1.177 . S
C685 C470 1.168 . S
C694 C503 1.166 . S
C696 N410 1.179 . S
C705 C17 1.599 . S
C707 C83 1.596 . S
C716 C50 1.593 . S
C718 C116 1.600 . S
C727 C215 1.600 . S
C729 C149 1.596 . S
C738 C248 1.601 . S
C740 C182 1.595 . S
C749 C347 1.594 . S
C751 C281 1.598 . S
C760 C314 1.601 . S
C762 C380 1.594 . S
C771 C413 1.595 . S
C773 C479 1.599 . S
C782 C512 1.596 . S
C784 C446 1.600 . S
C793 C94 0.970 . S
C795 C28 0.981 . S
C804 C61 0.975 . S
C806 C127 0.988 . S
C815 C160 0.977 . S
C817 C226 0.972 . S
C826 C259 0.992 . S
C828 C193 0.982 . S
C837 C358 0.980 . S
C839 C292 0.972 . S
C848 C325 0.977 . S
C850 C391 0.989 . S
C859 C424 0.974 . S
C861 C490 0.972 . S
C870 C523 0.992 . S
C872 C457 0.982 . S
C881 N467 1.485 . S
C883 N5 1.478 . S
C892 N38 1.486 . S
C894 N500 1.478 . S
C903 N71 1.484 . S
C905 N401 1.478 . S
C914 N104 1.486 . S
C916 N434 1.478 . S
C925 N137 1.477 . S
C927 N335 1.484 . S
C936 N368 1.484 . S
C938 N170 1.478 . S
C947 N203 1.485 . S
C949 N269 1.480 . S
C958 N236 1.485 . S
C960 N302 1.478 . S
