# Generated by pormake.
# Topology smt, (6)-cn, num edge types: 1
# Building blocks:
#     Node 0, Type 0, BuildingBlock: CIFDUS_clean_sbu_1, # of connection points: 6
#     Node 1, Type 0, BuildingBlock: CIFDUS_clean_sbu_1, # of connection points: 6
#     Node 2, Type 0, BuildingBlock: CIFDUS_clean_sbu_1, # of connection points: 6
#     Node 3, Type 0, BuildingBlock: CIFDUS_clean_sbu_1, # of connection points: 6
#     Node 4, Type 0, BuildingBlock: CIFDUS_clean_sbu_1, # of connection points: 6
#     Node 5, Type 0, BuildingBlock: CIFDUS_clean_sbu_1, # of connection points: 6
#     Edge 6, Type (0, 0), BuildingBlock: ZUJKAS_clean_linker_0, # of connection points: 2
#     Edge 7, Type (0, 0), BuildingBlock: ZUJKAS_clean_linker_0, # of connection points: 2
#     Edge 8, Type (0, 0), BuildingBlock: ZUJKAS_clean_linker_0, # of connection points: 2
#     Edge 9, Type (0, 0), BuildingBlock: ZUJKAS_clean_linker_0, # of connection points: 2
#     Edge 10, Type (0, 0), BuildingBlock: ZUJKAS_clean_linker_0, # of connection points: 2
#     Edge 11, Type (0, 0), BuildingBlock: ZUJKAS_clean_linker_0, # of connection points: 2
#     Edge 12, Type (0, 0), BuildingBlock: ZUJKAS_clean_linker_0, # of connection points: 2
#     Edge 13, Type (0, 0), BuildingBlock: ZUJKAS_clean_linker_0, # of connection points: 2
#     Edge 14, Type (0, 0), BuildingBlock: ZUJKAS_clean_linker_0, # of connection points: 2
#     Edge 15, Type (0, 0), BuildingBlock: ZUJKAS_clean_linker_0, # of connection points: 2
#     Edge 16, Type (0, 0), BuildingBlock: ZUJKAS_clean_linker_0, # of connection points: 2
#     Edge 17, Type (0, 0), BuildingBlock: ZUJKAS_clean_linker_0, # of connection points: 2
#     Edge 18, Type (0, 0), BuildingBlock: ZUJKAS_clean_linker_0, # of connection points: 2
#     Edge 19, Type (0, 0), BuildingBlock: ZUJKAS_clean_linker_0, # of connection points: 2
#     Edge 20, Type (0, 0), BuildingBlock: ZUJKAS_clean_linker_0, # of connection points: 2
#     Edge 21, Type (0, 0), BuildingBlock: ZUJKAS_clean_linker_0, # of connection points: 2
#     Edge 22, Type (0, 0), BuildingBlock: ZUJKAS_clean_linker_0, # of connection points: 2
#     Edge 23, Type (0, 0), BuildingBlock: ZUJKAS_clean_linker_0, # of connection points: 2
# Relax obj value: 0.308
# Max RMSD: 0.271
# Mean RMSD: 0.271
data_MOF--net-smt--node1-CIFDUS_clean_sbu_1--edge1-ZUJKAS_clean_linker_0
_symmetry_space_group_name_H-M    P1
_symmetry_Int_Tables_number       1
_symmetry_cell_setting            triclinic
loop_
_symmetry_equiv_pos_as_xyz
'x, y, z'
_cell_length_a     45.706793
_cell_length_b     45.653508
_cell_length_c     29.680546
_cell_angle_alpha  89.461573
_cell_angle_beta   90.413652
_cell_angle_gamma 120.0702
loop_
_atom_site_label
_atom_site_type_symbol
_atom_site_fract_x
_atom_site_fract_y
_atom_site_fract_z
_atom_type_partial_charge
O0 O 0.46017 0.15183 0.96516 0.0
Mn1 Mn 0.46062 0.114 0.00526 0.0
O2 O 0.50873 0.17496 0.92512 0.0
Mn3 Mn 0.52596 0.14868 0.94775 0.0
O4 O 0.46476 0.07897 0.0472 0.0
O5 O 0.42945 0.11914 0.0482 0.0
Mn6 Mn 0.40137 0.07945 0.07259 0.0
O7 O 0.41849 0.07438 0.97216 0.0
O8 O 0.42849 0.06708 0.1043 0.0
O9 O 0.50254 0.15078 0.04184 0.0
O10 O 0.54887 0.16315 0.00148 0.0
O11 O 0.39018 0.10989 0.09621 0.0
O12 O 0.37733 0.05138 0.02478 0.0
C13 C 0.50068 0.09643 0.92942 0.0
C14 C 0.48128 0.17364 0.93683 0.0
C15 C 0.45362 0.06671 0.08665 0.0
C16 C 0.41408 0.13167 0.07052 0.0
C17 C 0.38849 0.05192 0.98522 0.0
C18 C 0.53481 0.16423 0.03777 0.0
O19 O 0.4904 0.10913 0.95996 0.0
O20 O 0.52939 0.11791 0.91163 0.0
O21 O 0.34821 0.41853 0.13913 0.0
Mn22 Mn 0.35388 0.46207 0.17095 0.0
O23 O 0.32911 0.3784 0.19387 0.0
Mn24 Mn 0.32391 0.40272 0.24031 0.0
O25 O 0.36226 0.50526 0.20726 0.0
O26 O 0.38939 0.48977 0.12468 0.0
Mn27 Mn 0.39041 0.52834 0.11556 0.0
O28 O 0.31774 0.46471 0.13046 0.0
O29 O 0.40427 0.54904 0.17043 0.0
O30 O 0.39094 0.46291 0.21411 0.0
O31 O 0.36264 0.42985 0.27321 0.0
O32 O 0.42118 0.52818 0.07597 0.0
O33 O 0.34681 0.51617 0.09684 0.0
C34 C 0.28696 0.41889 0.23142 0.0
C35 C 0.33996 0.38864 0.15387 0.0
C36 C 0.38771 0.53565 0.20626 0.0
C37 C 0.41132 0.49845 0.09276 0.0
C38 C 0.31934 0.48868 0.10546 0.0
C39 C 0.38971 0.45331 0.25538 0.0
O40 O 0.31644 0.43275 0.21325 0.0
O41 O 0.28116 0.39395 0.25791 0.0
O42 O 0.85795 0.32021 0.29517 0.0
Mn43 Mn 0.89756 0.35329 0.33709 0.0
O44 O 0.8377 0.35272 0.26614 0.0
Mn45 Mn 0.87005 0.39489 0.28799 0.0
O46 O 0.93471 0.38821 0.38087 0.0
O47 O 0.88841 0.31261 0.37567 0.0
Mn48 Mn 0.92743 0.32075 0.39916 0.0
O49 O 0.93461 0.34882 0.30106 0.0
O50 O 0.94064 0.35775 0.43582 0.0
O51 O 0.86362 0.36079 0.37693 0.0
O52 O 0.86352 0.40558 0.34504 0.0
O53 O 0.8958 0.27838 0.41958 0.0
O54 O 0.95603 0.32688 0.35109 0.0
C55 C 0.92092 0.41475 0.26479 0.0
C56 C 0.83636 0.32424 0.27167 0.0
C57 C 0.94401 0.38548 0.42092 0.0
C58 C 0.87478 0.28343 0.39602 0.0
C59 C 0.95619 0.33968 0.31254 0.0
C60 C 0.85928 0.38659 0.37888 0.0
O61 O 0.90632 0.39153 0.2951 0.0
O62 O 0.90252 0.42703 0.25024 0.0
O63 O 0.58604 0.93252 0.47197 0.0
Mn64 Mn 0.54442 0.89351 0.50686 0.0
O65 O 0.62831 0.95506 0.52333 0.0
Mn66 Mn 0.60533 0.9266 0.57166 0.0
O67 O 0.50312 0.85762 0.54547 0.0
O68 O 0.51392 0.89934 0.46318 0.0
Mn69 Mn 0.47684 0.86068 0.45315 0.0
O70 O 0.54226 0.85514 0.46643 0.0
O71 O 0.45605 0.84807 0.50833 0.0
O72 O 0.54269 0.92921 0.54909 0.0
O73 O 0.57947 0.93906 0.60524 0.0
O74 O 0.47448 0.89227 0.41628 0.0
O75 O 0.4917 0.83263 0.43063 0.0
C76 C 0.59203 0.87427 0.56963 0.0
C77 C 0.61635 0.95483 0.48416 0.0
C78 C 0.47097 0.8461 0.5436 0.0
C79 C 0.50416 0.91273 0.43242 0.0
C80 C 0.51935 0.8333 0.44001 0.0
C81 C 0.55447 0.94049 0.58857 0.0
O82 O 0.57629 0.8871 0.54803 0.0
O83 O 0.61682 0.89586 0.59429 0.0
O84 O 0.69169 0.5424 0.62972 0.0
Mn85 Mn 0.65565 0.54395 0.67118 0.0
O86 O 0.6635 0.49229 0.59342 0.0
Mn87 Mn 0.62067 0.47714 0.61669 0.0
O88 O 0.61826 0.5415 0.71439 0.0
O89 O 0.69443 0.57524 0.71198 0.0
Mn90 Mn 0.68335 0.60295 0.7379 0.0
O91 O 0.65834 0.5862 0.63771 0.0
O92 O 0.64603 0.57503 0.77248 0.0
O93 O 0.65023 0.50207 0.70876 0.0
O94 O 0.61252 0.45544 0.67151 0.0
O95 O 0.72599 0.61509 0.75888 0.0
O96 O 0.67648 0.62653 0.69129 0.0
C97 C 0.59572 0.50446 0.59731 0.0
C98 C 0.69054 0.51983 0.60284 0.0
C99 C 0.6194 0.55067 0.75549 0.0
C100 C 0.72306 0.59096 0.73332 0.0
C101 C 0.66544 0.61583 0.65159 0.0
C102 C 0.6295 0.46994 0.70671 0.0
O103 O 0.61913 0.51411 0.62755 0.0
O104 O 0.58654 0.47499 0.58072 0.0
O105 O 0.07672 0.65841 0.80478 0.0
Mn106 Mn 0.11646 0.65686 0.83955 0.0
O107 O 0.05257 0.67558 0.85676 0.0
Mn108 Mn 0.0805 0.68066 0.90561 0.0
O109 O 0.153 0.65273 0.87846 0.0
O110 O 0.11318 0.6224 0.7947 0.0
Mn111 Mn 0.1536 0.6278 0.78533 0.0
O112 O 0.15442 0.69579 0.80055 0.0
O113 O 0.16759 0.61984 0.83999 0.0
O114 O 0.08129 0.61726 0.88048 0.0
O115 O 0.06904 0.64129 0.93741 0.0
O116 O 0.12472 0.59285 0.74856 0.0
O117 O 0.17934 0.67134 0.76276 0.0
C118 C 0.13252 0.72099 0.90352 0.0
C119 C 0.05367 0.66517 0.81727 0.0
C120 C 0.16721 0.63456 0.87594 0.0
C121 C 0.10207 0.59897 0.76452 0.0
C122 C 0.17699 0.69708 0.77348 0.0
C123 C 0.06898 0.61592 0.91977 0.0
O124 O 0.1202 0.6928 0.88187 0.0
O125 O 0.11064 0.72295 0.92878 0.0
H126 H 0.40693 0.01627 0.92991 0.0
H127 H 0.36978 0.9611 0.89549 0.0
H128 H 0.28292 0.96319 0.94733 0.0
H129 H 0.31988 0.01889 0.97932 0.0
H130 H 0.33128 0.90493 0.93912 0.0
H131 H 0.247 0.92534 0.8263 0.0
H132 H 0.28562 0.96011 0.84831 0.0
H133 H 0.24721 0.9418 0.8809 0.0
C134 C 0.37991 0.0059 0.93153 0.0
C135 C 0.36644 0.02259 0.95606 0.0
C136 C 0.35859 0.97393 0.91266 0.0
C137 C 0.32328 0.95788 0.91804 0.0
C138 C 0.30984 0.97515 0.94129 0.0
H139 H 0.17592 0.75489 0.9708 0.0
H140 H 0.22635 0.81091 0.96705 0.0
C141 C 0.33109 0.00707 0.95986 0.0
C142 C 0.30069 0.92179 0.90444 0.0
H143 H 0.22348 0.86841 0.8576 0.0
C144 C 0.30805 0.89708 0.92047 0.0
C145 C 0.2706 0.91114 0.87923 0.0
C146 C 0.26238 0.9361 0.85729 0.0
C147 C 0.28521 0.86227 0.91477 0.0
C148 C 0.25362 0.85162 0.89354 0.0
C149 C 0.24733 0.87631 0.87466 0.0
C150 C 0.22563 0.81552 0.89442 0.0
C151 C 0.29507 0.83725 0.93213 0.0
C152 C 0.20797 0.79908 0.85493 0.0
C153 C 0.17894 0.76677 0.85715 0.0
C154 C 0.16707 0.75037 0.89887 0.0
C155 C 0.18515 0.76648 0.93807 0.0
C156 C 0.21408 0.79857 0.9359 0.0
H157 H 0.32294 0.84825 0.93128 0.0
H158 H 0.28693 0.83082 0.96773 0.0
H159 H 0.28307 0.81359 0.91214 0.0
H160 H 0.21599 0.8117 0.82255 0.0
H161 H 0.16467 0.75564 0.82664 0.0
H162 H 0.30666 0.31962 0.15592 0.0
H163 H 0.32564 0.28266 0.12483 0.0
H164 H 0.40857 0.36844 0.05905 0.0
H165 H 0.39056 0.40571 0.09238 0.0
H166 H 0.33689 0.26547 0.04269 0.0
H167 H 0.4585 0.33461 0.13616 0.0
H168 H 0.42412 0.34255 0.14503 0.0
H169 H 0.45059 0.35959 0.09617 0.0
C170 C 0.32857 0.33058 0.1341 0.0
C171 C 0.34687 0.36573 0.12619 0.0
C172 C 0.33944 0.30937 0.1163 0.0
C173 C 0.36899 0.32271 0.09026 0.0
C174 C 0.38607 0.35749 0.07974 0.0
H175 H 0.41444 0.16595 -0.00628 0.0
H176 H 0.40948 0.21712 0.99016 0.0
C177 C 0.37528 0.37879 0.09788 0.0
C178 C 0.38267 0.3003 0.07725 0.0
H179 H 0.44867 0.28636 0.09646 0.0
C180 C 0.36154 0.27026 0.05389 0.0
C181 C 0.41478 0.30636 0.09217 0.0
C182 C 0.43827 0.33734 0.11908 0.0
C183 C 0.3709 0.2456 0.04669 0.0
C184 C 0.40272 0.25135 0.06241 0.0
C185 C 0.42444 0.28203 0.08407 0.0
C186 C 0.41182 0.22412 0.06246 0.0
C187 C 0.34572 0.21272 0.02473 0.0
C188 C 0.41702 0.21222 0.10383 0.0
C189 C 0.4207 0.18363 0.10569 0.0
C190 C 0.41976 0.16645 0.06624 0.0
C191 C 0.41649 0.17934 0.02452 0.0
C192 C 0.41286 0.20817 0.0226 0.0
H193 H 0.32009 0.20975 0.02252 0.0
H194 H 0.35418 0.21206 0.99001 0.0
H195 H 0.34387 0.19079 0.04373 0.0
H196 H 0.41633 0.22392 0.13509 0.0
H197 H 0.4225 0.17383 0.13836 0.0
H198 H 0.9854 0.30154 0.29564 0.0
H199 H 0.04247 0.32179 0.26669 0.0
H200 H 0.0532 0.41958 0.23926 0.0
H201 H 0.99621 0.3994 0.26862 0.0
H202 H 0.08661 0.39842 0.1737 0.0
H203 H 0.1195 0.38796 0.35108 0.0
H204 H 0.08557 0.34925 0.32886 0.0
H205 H 0.08004 0.3853 0.3354 0.0
C206 C 0.99945 0.32697 0.28193 0.0
C207 C 0.98593 0.34864 0.28356 0.0
C208 C 0.03219 0.33863 0.26569 0.0
C209 C 0.0524 0.37239 0.25141 0.0
C210 C 0.03812 0.3934 0.24991 0.0
H211 H 0.27058 0.46076 0.27469 0.0
H212 H 0.21499 0.45667 0.27319 0.0
C213 C 0.00524 0.38167 0.26605 0.0
C214 C 0.08931 0.38655 0.24343 0.0
H215 H 0.1614 0.3995 0.29638 0.0
C216 C 0.10306 0.39885 0.20051 0.0
C217 C 0.11104 0.38798 0.27865 0.0
C218 C 0.09845 0.37725 0.32621 0.0
C219 C 0.13764 0.41122 0.19157 0.0
C220 C 0.15898 0.41096 0.22634 0.0
C221 C 0.14529 0.39973 0.26953 0.0
C222 C 0.19502 0.42029 0.21897 0.0
C223 C 0.15097 0.42461 0.14508 0.0
C224 C 0.20314 0.4026 0.18757 0.0
C225 C 0.23516 0.40544 0.18801 0.0
C226 C 0.25965 0.42596 0.21982 0.0
C227 C 0.25244 0.44546 0.24907 0.0
C228 C 0.22051 0.44282 0.24848 0.0
H229 H 0.13563 0.43415 0.128 0.0
H230 H 0.17771 0.44533 0.14628 0.0
H231 H 0.14954 0.40383 0.12435 0.0
H232 H 0.18394 0.38448 0.16514 0.0
H233 H 0.23978 0.38938 0.16603 0.0
H234 H 0.83332 0.24905 0.46448 0.0
H235 H 0.78188 0.19389 0.4612 0.0
H236 H 0.7851 0.19842 0.31595 0.0
H237 H 0.83765 0.25368 0.31943 0.0
H238 H 0.71893 0.16658 0.42655 0.0
H239 H 0.78962 0.11339 0.34051 0.0
H240 H 0.81048 0.15558 0.36327 0.0
H241 H 0.78745 0.14683 0.31112 0.0
C242 C 0.82247 0.23878 0.4318 0.0
C243 C 0.83917 0.25593 0.39223 0.0
C244 C 0.79309 0.2071 0.42992 0.0
C245 C 0.77978 0.19144 0.38837 0.0
C246 C 0.79516 0.20954 0.34851 0.0
H247 H 0.59671 0.98991 0.42793 0.0
H248 H 0.63286 0.04521 0.39259 0.0
C249 C 0.82483 0.24146 0.35044 0.0
C250 C 0.75173 0.15534 0.38807 0.0
H251 H 0.73469 0.07501 0.36442 0.0
C252 C 0.72211 0.14655 0.41231 0.0
C253 C 0.75595 0.12907 0.36992 0.0
C254 C 0.78763 0.13647 0.34502 0.0
C255 C 0.69753 0.11252 0.42081 0.0
C256 C 0.70214 0.08622 0.40359 0.0
C257 C 0.73098 0.09502 0.37747 0.0
C258 C 0.6798 0.0499 0.41702 0.0
C259 C 0.66801 0.10525 0.45067 0.0
C260 C 0.69394 0.0327 0.4396 0.0
C261 C 0.67327 1.00047 0.45819 0.0
C262 C 0.63784 0.98444 0.45462 0.0
C263 C 0.62377 1.00077 0.42972 0.0
C264 C 0.64453 0.03296 0.41061 0.0
H265 H 0.67214 0.12814 0.469 0.0
H266 H 0.64495 0.09634 0.42964 0.0
H267 H 0.66331 0.08521 0.4758 0.0
H268 H 0.721 0.04494 0.44499 0.0
H269 H 0.68499 0.9888 0.47746 0.0
H270 H 0.58694 0.83316 0.63822 0.0
H271 H 0.59181 0.78238 0.63485 0.0
H272 H 0.59009 0.7861 0.48963 0.0
H273 H 0.58645 0.838 0.49317 0.0
H274 H 0.55629 0.71929 0.60028 0.0
H275 H 0.68011 0.79165 0.51316 0.0
H276 H 0.65852 0.812 0.53631 0.0
H277 H 0.64443 0.78939 0.48412 0.0
C278 C 0.58662 0.82259 0.60555 0.0
C279 C 0.58558 0.83917 0.56598 0.0
C280 C 0.58954 0.79358 0.60362 0.0
C281 C 0.59195 0.78055 0.56202 0.0
C282 C 0.58889 0.7959 0.52221 0.0
H283 H 0.6108 0.59723 0.59602 0.0
H284 H 0.59163 0.63404 0.56267 0.0
C285 C 0.58602 0.82517 0.52419 0.0
C286 C 0.60026 0.75272 0.56147 0.0
H287 H 0.66362 0.73632 0.53611 0.0
C288 C 0.5795 0.72276 0.58563 0.0
C289 C 0.63077 0.75733 0.54277 0.0
C290 C 0.65496 0.78938 0.51791 0.0
C291 C 0.589 0.69814 0.59336 0.0
C292 C 0.61989 0.70309 0.5755 0.0
C293 C 0.6399 0.73235 0.54962 0.0
C294 C 0.63381 0.68055 0.58793 0.0
C295 C 0.56678 0.66811 0.62299 0.0
C296 C 0.66507 0.69431 0.61041 0.0
C297 C 0.67659 0.6733 0.62795 0.0
C298 C 0.65728 0.63793 0.62331 0.0
C299 C 0.62694 0.62429 0.59857 0.0
C300 C 0.6155 0.64539 0.58059 0.0
H301 H 0.54802 0.67188 0.64185 0.0
H302 H 0.55265 0.64533 0.60172 0.0
H303 H 0.58218 0.66313 0.64765 0.0
H304 H 0.67984 0.72128 0.61651 0.0
H305 H 0.69992 0.68466 0.64716 0.0
H306 H 0.02007 0.7001 0.80925 0.0
H307 H 0.96377 0.67982 0.77753 0.0
H308 H 0.96295 0.59092 0.7279 0.0
H309 H 0.01857 0.61036 0.76228 0.0
H310 H 0.9327 0.66245 0.69731 0.0
H311 H 0.88119 0.54823 0.80744 0.0
H312 H 0.92408 0.58261 0.81253 0.0
H313 H 0.91255 0.5524 0.76784 0.0
C314 C 0.00827 0.67661 0.79062 0.0
C315 C 0.02421 0.65715 0.78758 0.0
C316 C 0.97595 0.66496 0.7725 0.0
C317 C 0.95855 0.63342 0.751 0.0
C318 C 0.97539 0.61501 0.74505 0.0
H319 H 0.75336 0.58477 0.65656 0.0
H320 H 0.80888 0.58841 0.65265 0.0
C321 C 0.00773 0.62659 0.76361 0.0
C322 C 0.92209 0.61923 0.73846 0.0
H323 H 0.84221 0.55579 0.76472 0.0
C324 C 0.91292 0.63886 0.71152 0.0
C325 C 0.89609 0.58853 0.75726 0.0
C326 C 0.90379 0.56679 0.78817 0.0
C327 C 0.87879 0.62957 0.70453 0.0
C328 C 0.85283 0.59927 0.72417 0.0
C329 C 0.86198 0.57884 0.74933 0.0
C330 C 0.81671 0.59103 0.72494 0.0
C331 C 0.871 0.65344 0.67854 0.0
C332 C 0.80149 0.58899 0.76666 0.0
C333 C 0.7696 0.58606 0.76882 0.0
C334 C 0.75178 0.58469 0.72939 0.0
C335 C 0.76594 0.58468 0.68751 0.0
C336 C 0.79808 0.58756 0.6853 0.0
H337 H 0.89394 0.67851 0.67285 0.0
H338 H 0.8603 0.64238 0.64516 0.0
H339 H 0.85206 0.65733 0.69666 0.0
H340 H 0.81509 0.59154 0.79778 0.0
H341 H 0.75954 0.58661 0.80156 0.0
H342 H 0.52076 0.08502 0.08444 0.0
H343 H 0.55091 0.06816 0.13846 0.0
H344 H 0.4568 1.00215 0.20572 0.0
H345 H 0.42683 0.01911 0.15285 0.0
H346 H 0.54796 0.07391 0.24061 0.0
H347 H 0.50329 0.94382 0.17988 0.0
H348 H 0.50474 0.97683 0.14416 0.0
H349 H 0.47046 0.95446 0.1831 0.0
C350 C 0.50648 0.06642 0.11025 0.0
C351 C 0.47139 0.05326 0.11433 0.0
C352 C 0.52376 0.05705 0.14121 0.0
C353 C 0.506 0.0338 0.17586 0.0
C354 C 0.47091 0.01992 0.17899 0.0
H355 H 0.49943 0.96925 0.43149 0.0
H356 H 0.51527 0.00805 0.36748 0.0
C357 C 0.45381 0.02963 0.14873 0.0
C358 C 0.52349 0.02446 0.21044 0.0
H359 H 0.51941 0.95432 0.25786 0.0
C360 C 0.5426 0.048 0.24393 0.0
C361 C 0.51701 0.99089 0.21431 0.0
C362 C 0.49802 0.96507 0.17822 0.0
C363 C 0.55272 0.03792 0.28324 0.0
C364 C 0.54305 1.00344 0.28923 0.0
C365 C 0.52674 0.98076 0.25368 0.0
C366 C 0.54412 0.98887 0.33385 0.0
C367 C 0.57246 0.06398 0.31871 0.0
C368 C 0.55631 0.96613 0.3376 0.0
C369 C 0.54719 0.94391 0.37443 0.0
C370 C 0.52604 0.94434 0.40815 0.0
C371 C 0.51671 0.96926 0.40667 0.0
C372 C 0.52578 0.99146 0.3699 0.0
H373 H 0.58893 0.08921 0.30308 0.0
H374 H 0.55459 0.06635 0.34143 0.0
H375 H 0.58837 0.05682 0.33922 0.0
H376 H 0.57025 0.96346 0.31012 0.0
H377 H 0.55385 0.92421 0.37423 0.0
H378 H 0.44723 0.51519 0.24148 0.0
H379 H 0.49348 0.54681 0.29562 0.0
H380 H 0.44581 0.46406 0.39036 0.0
H381 H 0.39996 0.43249 0.33722 0.0
H382 H 0.47258 0.54615 0.41479 0.0
H383 H 0.56041 0.50578 0.34811 0.0
H384 H 0.5347 0.51556 0.31136 0.0
H385 H 0.5155 0.47699 0.3435 0.0
C386 C 0.44689 0.50357 0.2736 0.0
C387 C 0.4199 0.47121 0.2849 0.0
C388 C 0.47313 0.52179 0.30457 0.0
C389 C 0.47275 0.50778 0.34702 0.0
C390 C 0.44633 0.47535 0.35788 0.0
H391 H 0.53378 0.49774 0.59843 0.0
H392 H 0.50971 0.51394 0.53622 0.0
C393 C 0.42023 0.45727 0.32726 0.0
C394 C 0.49991 0.5259 0.38062 0.0
H395 H 0.5688 0.525 0.42317 0.0
C396 C 0.4943 0.54256 0.41615 0.0
C397 C 0.52829 0.52147 0.38203 0.0
C398 C 0.53542 0.50411 0.34423 0.0
C399 C 0.51503 0.5526 0.45474 0.0
C400 C 0.54133 0.54485 0.45825 0.0
C401 C 0.54864 0.53094 0.42083 0.0
C402 C 0.55744 0.54495 0.50211 0.0
C403 C 0.50769 0.57015 0.49205 0.0
C404 C 0.59254 0.55799 0.50502 0.0
C405 C 0.60628 0.54852 0.54079 0.0
C406 C 0.58517 0.52622 0.57436 0.0
C407 C 0.55068 0.5159 0.57378 0.0
C408 C 0.53691 0.52521 0.53803 0.0
H409 H 0.49813 0.58646 0.4781 0.0
H410 H 0.48763 0.55088 0.51407 0.0
H411 H 0.5305 0.58593 0.51286 0.0
H412 H 0.60889 0.57303 0.47766 0.0
H413 H 0.63282 0.55596 0.53985 0.0
H414 H 0.0549 0.53306 0.76403 0.0
H415 H 0.01526 0.50518 0.70231 0.0
H416 H 0.03674 0.60242 0.64988 0.0
H417 H 0.07764 0.63041 0.71111 0.0
H418 H 0.96054 0.50036 0.65898 0.0
H419 H 0.076 0.57111 0.55314 0.0
H420 H 0.07798 0.57209 0.61376 0.0
H421 H 0.06269 0.59614 0.58368 0.0
C422 C 0.04984 0.54837 0.74063 0.0
C423 C 0.06889 0.58376 0.74253 0.0
C424 C 0.02736 0.53246 0.70508 0.0
C425 C 0.02377 0.55173 0.67062 0.0
C426 C 0.03976 0.58706 0.67543 0.0
H427 H 0.94846 0.44754 0.40769 0.0
H428 H 0.96369 0.49213 0.46405 0.0
C429 C 0.06264 0.60303 0.71087 0.0
C430 C 0.00795 0.53485 0.62733 0.0
H431 H 0.02891 0.52602 0.51983 0.0
C432 C 0.97521 0.50652 0.62823 0.0
C433 C 0.02714 0.54272 0.58706 0.0
C434 C 0.06297 0.57198 0.58412 0.0
C435 C 0.9621 0.48471 0.5912 0.0
C436 C 0.98215 0.49144 0.55224 0.0
C437 C 0.01367 0.52111 0.54982 0.0
C438 C 0.97335 0.46537 0.51728 0.0
C439 C 0.9277 0.45344 0.59501 0.0
C440 C 0.97477 0.43622 0.52829 0.0
C441 C 0.96662 0.4111 0.49633 0.0
C442 C 0.95673 0.41445 0.45244 0.0
C443 C 0.95617 0.44421 0.44104 0.0
C444 C 0.96461 0.46959 0.47323 0.0
H445 H 0.9115 0.45712 0.61938 0.0
H446 H 0.91474 0.44634 0.5618 0.0
H447 H 0.93072 0.43207 0.60733 0.0
H448 H 0.98203 0.43279 0.56191 0.0
H449 H 0.96742 0.38866 0.50649 0.0
H450 H 0.58134 0.98241 0.66034 0.0
H451 H 0.55223 0.99906 0.71388 0.0
H452 H 0.45985 0.94476 0.63754 0.0
H453 H 0.48908 0.92806 0.58299 0.0
H454 H 0.51245 0.03416 0.69151 0.0
H455 H 0.44033 0.90801 0.77552 0.0
H456 H 0.47814 0.91941 0.74363 0.0
H457 H 0.44028 0.91145 0.71493 0.0
C458 C 0.55493 0.97426 0.65449 0.0
C459 C 0.53756 0.95394 0.61734 0.0
C460 C 0.53831 0.98374 0.68521 0.0
C461 C 0.50387 0.97285 0.67987 0.0
C462 C 0.48643 0.95323 0.64232 0.0
H463 H 0.44725 0.07818 0.874 0.0
H464 H 0.43369 0.03896 0.81105 0.0
C465 C 0.50324 0.94401 0.61103 0.0
C466 C 0.48701 0.98248 0.71434 0.0
H467 H 0.44329 0.95466 0.81317 0.0
C468 C 0.49648 0.0167 0.71751 0.0
C469 C 0.46642 0.95952 0.74818 0.0
C470 C 0.45557 0.92248 0.74584 0.0
C471 C 0.48781 0.02909 0.75513 0.0
C472 C 0.46876 0.00648 0.79039 0.0
C473 C 0.45759 0.97184 0.78597 0.0
C474 C 0.46573 0.01965 0.83462 0.0
C475 C 0.50145 0.06676 0.7584 0.0
C476 C 0.48563 0.01938 0.87069 0.0
C477 C 0.49294 0.04135 0.9069 0.0
C478 C 0.48012 0.06355 0.90776 0.0
C479 C 0.45681 0.06073 0.87457 0.0
C480 C 0.44938 0.03863 0.83834 0.0
H481 H 0.51944 0.08112 0.73084 0.0
H482 H 0.4802 0.07192 0.75646 0.0
H483 H 0.51458 0.07647 0.79113 0.0
H484 H 0.49854 0.00499 0.8685 0.0
H485 H 0.51164 0.04372 0.93149 0.0
H486 H 0.47141 0.50104 0.0943 0.0
H487 H 0.49426 0.48584 0.03029 0.0
H488 H 0.39496 0.43305 0.97015 0.0
H489 H 0.37225 0.44911 0.03398 0.0
H490 H 0.48461 0.43141 0.97497 0.0
H491 H 0.44631 0.51649 0.88952 0.0
H492 H 0.44384 0.51063 0.94976 0.0
H493 H 0.41324 0.47801 0.91388 0.0
C494 C 0.45415 0.48451 0.0687 0.0
C495 C 0.42009 0.47587 0.0692 0.0
C496 C 0.46724 0.47603 0.03189 0.0
C497 C 0.44648 0.45908 -0.00514 0.0
C498 C 0.41154 0.44666 -0.002 0.0
H499 H 0.55363 0.50345 0.73257 0.0
H500 H 0.50587 0.47144 0.78438 0.0
C501 C 0.39848 0.45541 0.03476 0.0
C502 C 0.46268 0.46082 0.95093 0.0
H503 H 0.48444 0.50578 0.85206 0.0
C504 C 0.48392 0.44695 0.94758 0.0
C505 C 0.46179 0.48114 0.91504 0.0
C506 C 0.44029 0.49766 0.91703 0.0
C507 C 0.50578 0.45461 0.91069 0.0
C508 C 0.50666 0.47696 0.87674 0.0
C509 C 0.48357 0.48859 0.87819 0.0
C510 C 0.53525 0.49367 0.84477 0.0
C511 C 0.52886 0.43996 0.90898 0.0
C512 C 0.56718 0.51714 0.86158 0.0
C513 C 0.59405 0.53586 0.83236 0.0
C514 C 0.58976 0.53147 0.78543 0.0
C515 C 0.55773 0.50761 0.76849 0.0
C516 C 0.53053 0.48913 0.79798 0.0
H517 H 0.52001 0.41753 0.9315 0.0
H518 H 0.5305 0.43249 0.87401 0.0
H519 H 0.55464 0.45937 0.91985 0.0
H520 H 0.57119 0.52151 0.8975 0.0
H521 H 0.61835 0.55366 0.84682 0.0
H522 H 0.08508 0.56553 0.91413 0.0
H523 H 0.06863 0.51794 0.96698 0.0
H524 H 0.00747 0.54854 0.04045 0.0
H525 H 0.02401 0.59605 0.98873 0.0
H526 H 0.07805 0.52585 0.0691 0.0
H527 H 0.9455 0.44393 0.01349 0.0
H528 H 0.97784 0.47515 0.97704 0.0
H529 H 0.95767 0.48782 0.0181 0.0
C530 C 0.06764 0.5617 0.9411 0.0
C531 C 0.05578 0.58453 0.94721 0.0
C532 C 0.0585 0.53469 0.97139 0.0
C533 C 0.03674 0.52971 0.00744 0.0
C534 C 0.0241 0.55183 0.01265 0.0
H535 H 0.97923 0.47426 0.26268 0.0
H536 H 0.01668 0.49507 0.19776 0.0
C537 C 0.03359 0.57898 0.98302 0.0
C538 C 0.02771 0.50243 0.04128 0.0
H539 H 0.95807 0.43744 0.0905 0.0
C540 C 0.05201 0.50584 0.07326 0.0
C541 C 0.99395 0.476 0.04619 0.0
C542 C 0.96725 0.4702 0.01164 0.0
C543 C 0.04263 0.48541 0.11229 0.0
C544 C 0.00812 0.46143 0.11959 0.0
C545 C 0.98454 0.45591 0.08531 0.0
C546 C 0.99466 0.44642 0.16473 0.0
C547 C 0.06952 0.49069 0.14621 0.0
C548 C 0.97091 0.41175 0.16927 0.0
C549 C 0.94949 0.39982 0.20676 0.0
C550 C 0.95164 0.42242 0.24012 0.0
C551 C 0.97776 0.45623 0.23798 0.0
C552 C 0.9992 0.46813 0.20069 0.0
H553 H 0.09394 0.49844 0.1292 0.0
H554 H 0.07362 0.51135 0.1694 0.0
H555 H 0.06214 0.46742 0.16642 0.0
H556 H 0.96675 0.39455 0.14188 0.0
H557 H 0.92894 0.37381 0.20714 0.0
H558 H 0.48434 0.22211 0.99096 0.0
H559 H 0.50329 0.28053 0.96778 0.0
H560 H 0.49549 0.25153 0.82848 0.0
H561 H 0.47679 0.19319 0.8517 0.0
H562 H 0.56574 0.31132 0.91537 0.0
H563 H 0.46402 0.32387 0.83049 0.0
H564 H 0.45555 0.29157 0.87243 0.0
H565 H 0.46554 0.28656 0.81561 0.0
C566 C 0.48453 0.22777 0.9554 0.0
C567 C 0.47822 0.20301 0.92303 0.0
C568 C 0.49586 0.26128 0.94221 0.0
C569 C 0.50066 0.27035 0.89642 0.0
C570 C 0.49139 0.24498 0.86395 0.0
H571 H 0.62646 0.4094 0.71167 0.0
H572 H 0.59798 0.36611 0.76991 0.0
C573 C 0.48051 0.2116 0.87717 0.0
C574 C 0.52125 0.30636 0.88261 0.0
H575 H 0.52124 0.36521 0.81088 0.0
C576 C 0.55585 0.32353 0.89353 0.0
C577 C 0.50834 0.32221 0.85417 0.0
C578 C 0.47125 0.30528 0.8427 0.0
C579 C 0.57826 0.35503 0.87393 0.0
C580 C 0.56569 0.36973 0.84304 0.0
C581 C 0.53077 0.35381 0.8347 0.0
C582 C 0.58863 0.39823 0.81346 0.0
C583 C 0.61553 0.37156 0.88415 0.0
C584 C 0.59408 0.43104 0.81977 0.0
C585 C 0.6111 0.45613 0.78685 0.0
C586 C 0.62217 0.44834 0.74702 0.0
C587 C 0.61848 0.41609 0.7423 0.0
C588 C 0.60206 0.39133 0.77538 0.0
H589 H 0.62059 0.36043 0.91461 0.0
H590 H 0.62862 0.3681 0.85508 0.0
H591 H 0.62644 0.39918 0.88916 0.0
H592 H 0.58391 0.43677 0.84904 0.0
H593 H 0.61313 0.48063 0.79084 0.0
H594 H 0.13835 0.61499 0.95911 0.0
H595 H 0.15403 0.58664 0.01758 0.0
H596 H 0.24267 0.60823 0.94133 0.0
H597 H 0.22653 0.63529 0.88255 0.0
H598 H 0.16371 0.52797 0.98947 0.0
H599 H 0.27452 0.63117 0.07729 0.0
H600 H 0.24256 0.63741 0.04987 0.0
H601 H 0.27481 0.63614 0.0171 0.0
C602 C 0.16174 0.61463 0.95575 0.0
C603 C 0.18134 0.62735 0.91652 0.0
C604 C 0.17053 0.59827 0.98892 0.0
C605 C 0.19954 0.59546 0.98374 0.0
C606 C 0.22038 0.61044 0.94616 0.0
H607 H 0.30241 0.49472 0.0198 0.0
H608 H 0.26282 0.51366 -0.00238 0.0
C609 C 0.21123 0.62599 0.9127 0.0
C610 C 0.20661 0.57375 0.014 0.0
H611 H 0.27 0.57633 0.07827 0.0
C612 C 0.18638 0.53844 0.01007 0.0
C613 C 0.23618 0.58748 0.04072 0.0
C614 C 0.25819 0.62515 0.04693 0.0
C615 C 0.19656 0.51667 0.02928 0.0
C616 C 0.22746 0.53064 0.05303 0.0
C617 C 0.24626 0.56572 0.05995 0.0
C618 C 0.2435 0.51039 0.06488 0.0
C619 C 0.17547 0.47908 0.0219 0.0
C620 C 0.24443 0.50075 0.10965 0.0
C621 C 0.26636 0.48894 0.12211 0.0
C622 C 0.28815 0.48756 0.0901 0.0
C623 C 0.28537 0.49495 0.04482 0.0
C624 C 0.26296 0.50596 0.03224 0.0
H625 H 0.14959 0.47161 0.00987 0.0
H626 H 0.18789 0.47139 -0.00367 0.0
H627 H 0.17363 0.46512 0.05358 0.0
H628 H 0.22993 0.50448 0.13536 0.0
H629 H 0.26876 0.48429 0.15742 0.0
H630 H 0.59475 0.22236 0.03706 0.0
H631 H 0.63921 0.24127 0.09397 0.0
H632 H 0.57193 0.15974 0.18204 0.0
H633 H 0.52682 0.14081 0.12478 0.0
H634 H 0.6429 0.25857 0.18865 0.0
H635 H 0.65362 0.14404 0.15687 0.0
H636 H 0.63102 0.15673 0.11864 0.0
H637 H 0.61316 0.13863 0.1724 0.0
C638 C 0.58909 0.20908 0.0691 0.0
C639 C 0.55744 0.18017 0.07661 0.0
C640 C 0.61454 0.2198 0.10151 0.0
C641 C 0.60904 0.20158 0.14186 0.0
C642 C 0.57674 0.17392 0.15086 0.0
H643 H 0.78753 0.27164 0.3192 0.0
H644 H 0.72921 0.23402 0.29372 0.0
C645 C 0.55093 0.16338 0.11844 0.0
C646 C 0.63835 0.2107 0.17198 0.0
H647 H 0.69841 0.18895 0.19571 0.0
C648 C 0.65458 0.24298 0.19131 0.0
C649 C 0.65363 0.19034 0.17509 0.0
C650 C 0.6372 0.15551 0.15461 0.0
C651 C 0.68653 0.25619 0.2115 0.0
C652 C 0.70279 0.23678 0.21189 0.0
C653 C 0.68579 0.2037 0.19512 0.0
C654 C 0.73881 0.2524 0.22496 0.0
C655 C 0.70365 0.29163 0.23011 0.0
C656 C 0.76365 0.27389 0.19418 0.0
C657 C 0.79689 0.29503 0.20854 0.0
C658 C 0.80587 0.29468 0.25376 0.0
C659 C 0.78157 0.27129 0.28378 0.0
C660 C 0.74817 0.25017 0.26942 0.0
H661 H 0.68587 0.3014 0.23337 0.0
H662 H 0.7149 0.29234 0.26365 0.0
H663 H 0.72448 0.30881 0.20726 0.0
H664 H 0.75678 0.27608 0.15981 0.0
H665 H 0.815 0.31341 0.18511 0.0
H666 H 0.52161 0.81522 0.35403 0.0
H667 H 0.50149 0.75717 0.32919 0.0
H668 H 0.49557 0.72499 0.46755 0.0
H669 H 0.51649 0.78325 0.49228 0.0
H670 H 0.51106 0.68703 0.40871 0.0
H671 H 0.40014 0.69488 0.34972 0.0
H672 H 0.4385 0.72687 0.32412 0.0
H673 H 0.43298 0.72715 0.38411 0.0
C674 C 0.5177 0.79606 0.37889 0.0
C675 C 0.52116 0.80371 0.42494 0.0
C676 C 0.50569 0.76283 0.3648 0.0
C677 C 0.49603 0.73662 0.39663 0.0
C678 C 0.50265 0.74477 0.44245 0.0
H679 H 0.35156 0.54035 0.27763 0.0
H680 H 0.37478 0.5828 0.33823 0.0
C681 C 0.51508 0.77816 0.45652 0.0
C682 C 0.47555 0.7008 0.38228 0.0
H683 H 0.40473 0.64817 0.32215 0.0
C684 C 0.48761 0.67835 0.39024 0.0
C685 C 0.44408 0.6889 0.3601 0.0
C686 C 0.42794 0.71059 0.35448 0.0
C687 C 0.47043 0.64522 0.37315 0.0
C688 C 0.44094 0.63466 0.3466 0.0
C689 C 0.4275 0.65623 0.342 0.0
C690 C 0.42695 0.60435 0.31725 0.0
C691 C 0.48442 0.62211 0.38304 0.0
C692 C 0.44846 0.6019 0.28605 0.0
C693 C 0.43532 0.57814 0.25178 0.0
C694 C 0.40027 0.55627 0.24746 0.0
C695 C 0.37865 0.55699 0.28021 0.0
C696 C 0.39192 0.58119 0.31472 0.0
H697 H 0.49637 0.62729 0.41695 0.0
H698 H 0.46448 0.59503 0.38139 0.0
H699 H 0.50432 0.6269 0.35808 0.0
H700 H 0.47535 0.61983 0.28627 0.0
H701 H 0.45267 0.57784 0.22734 0.0
H702 H 0.88944 0.44914 0.41244 0.0
H703 H 0.86705 0.47121 0.46791 0.0
H704 H 0.78611 0.36986 0.49678 0.0
H705 H 0.80826 0.34765 0.43903 0.0
H706 H 0.76084 0.40718 0.47689 0.0
H707 H 0.86197 0.48167 0.59812 0.0
H708 H 0.87902 0.49389 0.54257 0.0
H709 H 0.86338 0.45094 0.56179 0.0
C710 C 0.86745 0.43138 0.43165 0.0
C711 C 0.85037 0.39674 0.4213 0.0
C712 C 0.85483 0.44404 0.46389 0.0
C713 C 0.82499 0.42232 0.48715 0.0
C714 C 0.80928 0.38718 0.47942 0.0
H715 H 0.73473 0.51282 0.65564 0.0
H716 H 0.77037 0.49023 0.63064 0.0
C717 C 0.82199 0.37441 0.44672 0.0
C718 C 0.80767 0.43721 0.51271 0.0
H719 H 0.82324 0.50308 0.58177 0.0
C720 C 0.77434 0.42764 0.50057 0.0
C721 C 0.82482 0.46365 0.54427 0.0
C722 C 0.85915 0.47282 0.56277 0.0
C723 C 0.75848 0.44492 0.5169 0.0
C724 C 0.77696 0.47369 0.54457 0.0
C725 C 0.80949 0.48193 0.55913 0.0
C726 C 0.76228 0.49463 0.55952 0.0
C727 C 0.72194 0.43186 0.50435 0.0
C728 C 0.74817 0.50726 0.52797 0.0
C729 C 0.72753 0.51986 0.54227 0.0
C730 C 0.7219 0.52135 0.58834 0.0
C731 C 0.73941 0.51272 0.61991 0.0
C732 C 0.75943 0.49937 0.60562 0.0
H733 H 0.70883 0.40445 0.49622 0.0
H734 H 0.708 0.43568 0.53202 0.0
H735 H 0.72073 0.44551 0.47391 0.0
H736 H 0.75104 0.50504 0.49219 0.0
H737 H 0.71385 0.52587 0.51736 0.0
H738 H 0.40974 0.78962 0.54805 0.0
H739 H 0.36718 0.77555 0.60632 0.0
H740 H 0.44007 0.85842 0.68709 0.0
H741 H 0.48331 0.87228 0.62876 0.0
H742 H 0.37055 0.76791 0.713 0.0
H743 H 0.3554 0.87359 0.64404 0.0
H744 H 0.37122 0.85274 0.60854 0.0
H745 H 0.39679 0.87885 0.65383 0.0
C746 C 0.41705 0.80405 0.57897 0.0
C747 C 0.44973 0.83199 0.58401 0.0
C748 C 0.3927 0.79613 0.61209 0.0
C749 C 0.40041 0.81626 0.65057 0.0
C750 C 0.43368 0.84274 0.65741 0.0
H751 H 0.22434 0.74436 0.82782 0.0
H752 H 0.28269 0.78416 0.80551 0.0
C753 C 0.45838 0.85041 0.62437 0.0
C754 C 0.37233 0.81096 0.68038 0.0
H755 H 0.31074 0.8323 0.68812 0.0
C756 C 0.35799 0.78258 0.7089 0.0
C757 C 0.3559 0.83001 0.67429 0.0
C758 C 0.37044 0.86059 0.6436 0.0
C759 C 0.32657 0.77155 0.72952 0.0
C760 C 0.30911 0.78941 0.72124 0.0
C761 C 0.32433 0.81888 0.69466 0.0
C762 C 0.27313 0.77456 0.73419 0.0
C763 C 0.31106 0.73943 0.75734 0.0
C764 C 0.24806 0.75788 0.70128 0.0
C765 C 0.21467 0.73548 0.71396 0.0
C766 C 0.2058 0.72985 0.75968 0.0
C767 C 0.23019 0.74926 0.79229 0.0
C768 C 0.26368 0.77157 0.77962 0.0
H769 H 0.32673 0.72709 0.75742 0.0
H770 H 0.30814 0.74528 0.79266 0.0
H771 H 0.28551 0.72118 0.74423 0.0
H772 H 0.2549 0.75973 0.66606 0.0
H773 H 0.19653 0.72017 0.68834 0.0
loop_
_geom_bond_atom_site_label_1
_geom_bond_atom_site_label_2
_geom_bond_distance
_geom_bond_site_symmetry_2
_ccdc_geom_bond_type
O0 Mn1 2.163 1_556 S
O0 C14 1.244 . S
Mn1 O0 2.163 1_554 S
Mn1 O4 2.160 . S
Mn1 O5 2.221 . S
Mn1 O7 2.163 1_554 S
Mn1 O9 2.160 . S
Mn1 O19 2.221 1_554 S
O2 Mn3 2.087 . S
O2 C14 1.256 . S
Mn3 O2 2.087 . S
Mn3 O10 2.078 1_556 S
Mn3 O19 2.290 . S
Mn3 O20 2.251 . S
O4 Mn1 2.160 . S
O4 C15 1.239 . S
O5 Mn1 2.221 . S
O5 Mn6 2.290 . S
O5 C16 1.278 . S
Mn6 O5 2.290 . S
Mn6 O8 2.089 . S
Mn6 O11 2.251 . S
Mn6 O12 2.087 . S
O7 Mn1 2.163 1_556 S
O7 C17 1.244 . S
O8 Mn6 2.089 . S
O8 C15 1.256 . S
O9 Mn1 2.160 . S
O9 C18 1.239 . S
O10 Mn3 2.078 1_554 S
O10 C18 1.268 . S
O11 Mn6 2.251 . S
O11 C16 1.241 . S
O12 Mn6 2.087 . S
O12 C17 1.256 1_554 S
C13 O19 1.278 . S
C13 O20 1.241 . S
C14 O0 1.244 . S
C14 O2 1.256 . S
C15 O4 1.239 . S
C15 O8 1.256 . S
C16 O5 1.278 . S
C16 O11 1.241 . S
C17 O7 1.244 . S
C17 O12 1.256 1_556 S
C18 O9 1.239 . S
C18 O10 1.268 . S
O19 Mn1 2.221 1_556 S
O19 Mn3 2.290 . S
O19 C13 1.278 . S
O20 Mn3 2.251 . S
O20 C13 1.241 . S
O21 Mn22 2.163 . S
O21 C35 1.244 . S
Mn22 O21 2.163 . S
Mn22 O25 2.160 . S
Mn22 O26 2.221 . S
Mn22 O28 2.163 . S
Mn22 O30 2.160 . S
Mn22 O40 2.221 . S
O23 Mn24 2.087 . S
O23 C35 1.256 . S
Mn24 O23 2.087 . S
Mn24 O31 2.089 . S
Mn24 O40 2.290 . S
Mn24 O41 2.251 . S
O25 Mn22 2.160 . S
O25 C36 1.239 . S
O26 Mn22 2.221 . S
O26 Mn27 2.290 . S
O26 C37 1.278 . S
Mn27 O26 2.290 . S
Mn27 O29 2.089 . S
Mn27 O32 2.251 . S
Mn27 O33 2.087 . S
O28 Mn22 2.163 . S
O28 C38 1.244 . S
O29 Mn27 2.089 . S
O29 C36 1.256 . S
O30 Mn22 2.160 . S
O30 C39 1.239 . S
O31 Mn24 2.089 . S
O31 C39 1.256 . S
O32 Mn27 2.251 . S
O32 C37 1.241 . S
O33 Mn27 2.087 . S
O33 C38 1.256 . S
C34 O40 1.278 . S
C34 O41 1.241 . S
C35 O21 1.244 . S
C35 O23 1.256 . S
C36 O25 1.239 . S
C36 O29 1.256 . S
C37 O26 1.278 . S
C37 O32 1.241 . S
C38 O28 1.244 . S
C38 O33 1.256 . S
C39 O30 1.239 . S
C39 O31 1.256 . S
O40 Mn22 2.221 . S
O40 Mn24 2.290 . S
O40 C34 1.278 . S
O41 Mn24 2.251 . S
O41 C34 1.241 . S
O42 Mn43 2.163 . S
O42 C56 1.244 . S
Mn43 O42 2.163 . S
Mn43 O46 2.160 . S
Mn43 O47 2.221 . S
Mn43 O49 2.163 . S
Mn43 O51 2.160 . S
Mn43 O61 2.221 . S
O44 Mn45 2.087 . S
O44 C56 1.256 . S
Mn45 O44 2.087 . S
Mn45 O52 2.089 . S
Mn45 O61 2.290 . S
Mn45 O62 2.251 . S
O46 Mn43 2.160 . S
O46 C57 1.239 . S
O47 Mn43 2.221 . S
O47 Mn48 2.290 . S
O47 C58 1.278 . S
Mn48 O47 2.290 . S
Mn48 O50 2.089 . S
Mn48 O53 2.251 . S
Mn48 O54 2.087 . S
O49 Mn43 2.163 . S
O49 C59 1.244 . S
O50 Mn48 2.089 . S
O50 C57 1.256 . S
O51 Mn43 2.160 . S
O51 C60 1.239 . S
O52 Mn45 2.089 . S
O52 C60 1.256 . S
O53 Mn48 2.251 . S
O53 C58 1.241 . S
O54 Mn48 2.087 . S
O54 C59 1.256 . S
C55 O61 1.278 . S
C55 O62 1.241 . S
C56 O42 1.244 . S
C56 O44 1.256 . S
C57 O46 1.239 . S
C57 O50 1.256 . S
C58 O47 1.278 . S
C58 O53 1.241 . S
C59 O49 1.244 . S
C59 O54 1.256 . S
C60 O51 1.239 . S
C60 O52 1.256 . S
O61 Mn43 2.221 . S
O61 Mn45 2.290 . S
O61 C55 1.278 . S
O62 Mn45 2.251 . S
O62 C55 1.241 . S
O63 Mn64 2.163 . S
O63 C77 1.244 . S
Mn64 O63 2.163 . S
Mn64 O67 2.160 . S
Mn64 O68 2.221 . S
Mn64 O70 2.163 . S
Mn64 O72 2.160 . S
Mn64 O82 2.221 . S
O65 Mn66 2.087 . S
O65 C77 1.256 . S
Mn66 O65 2.087 . S
Mn66 O73 2.089 . S
Mn66 O82 2.290 . S
Mn66 O83 2.251 . S
O67 Mn64 2.160 . S
O67 C78 1.239 . S
O68 Mn64 2.221 . S
O68 Mn69 2.290 . S
O68 C79 1.278 . S
Mn69 O68 2.290 . S
Mn69 O71 2.089 . S
Mn69 O74 2.251 . S
Mn69 O75 2.087 . S
O70 Mn64 2.163 . S
O70 C80 1.244 . S
O71 Mn69 2.089 . S
O71 C78 1.256 . S
O72 Mn64 2.160 . S
O72 C81 1.239 . S
O73 Mn66 2.089 . S
O73 C81 1.256 . S
O74 Mn69 2.251 . S
O74 C79 1.241 . S
O75 Mn69 2.087 . S
O75 C80 1.256 . S
C76 O82 1.278 . S
C76 O83 1.241 . S
C77 O63 1.244 . S
C77 O65 1.256 . S
C78 O67 1.239 . S
C78 O71 1.256 . S
C79 O68 1.278 . S
C79 O74 1.241 . S
C80 O70 1.244 . S
C80 O75 1.256 . S
C81 O72 1.239 . S
C81 O73 1.256 . S
O82 Mn64 2.221 . S
O82 Mn66 2.290 . S
O82 C76 1.278 . S
O83 Mn66 2.251 . S
O83 C76 1.241 . S
O84 Mn85 2.163 . S
O84 C98 1.244 . S
Mn85 O84 2.163 . S
Mn85 O88 2.160 . S
Mn85 O89 2.221 . S
Mn85 O91 2.163 . S
Mn85 O93 2.160 . S
Mn85 O103 2.221 . S
O86 Mn87 2.087 . S
O86 C98 1.256 . S
Mn87 O86 2.087 . S
Mn87 O94 2.089 . S
Mn87 O103 2.290 . S
Mn87 O104 2.251 . S
O88 Mn85 2.160 . S
O88 C99 1.239 . S
O89 Mn85 2.221 . S
O89 Mn90 2.290 . S
O89 C100 1.278 . S
Mn90 O89 2.290 . S
Mn90 O92 2.089 . S
Mn90 O95 2.251 . S
Mn90 O96 2.087 . S
O91 Mn85 2.163 . S
O91 C101 1.244 . S
O92 Mn90 2.089 . S
O92 C99 1.256 . S
O93 Mn85 2.160 . S
O93 C102 1.239 . S
O94 Mn87 2.089 . S
O94 C102 1.256 . S
O95 Mn90 2.251 . S
O95 C100 1.241 . S
O96 Mn90 2.087 . S
O96 C101 1.256 . S
C97 O103 1.278 . S
C97 O104 1.241 . S
C98 O84 1.244 . S
C98 O86 1.256 . S
C99 O88 1.239 . S
C99 O92 1.256 . S
C100 O89 1.278 . S
C100 O95 1.241 . S
C101 O91 1.244 . S
C101 O96 1.256 . S
C102 O93 1.239 . S
C102 O94 1.256 . S
O103 Mn85 2.221 . S
O103 Mn87 2.290 . S
O103 C97 1.278 . S
O104 Mn87 2.251 . S
O104 C97 1.241 . S
O105 Mn106 2.163 . S
O105 C119 1.244 . S
Mn106 O105 2.163 . S
Mn106 O109 2.160 . S
Mn106 O110 2.221 . S
Mn106 O112 2.163 . S
Mn106 O114 2.160 . S
Mn106 O124 2.221 . S
O107 Mn108 2.087 . S
O107 C119 1.256 . S
Mn108 O107 2.087 . S
Mn108 O115 2.089 . S
Mn108 O124 2.290 . S
Mn108 O125 2.251 . S
O109 Mn106 2.160 . S
O109 C120 1.239 . S
O110 Mn106 2.221 . S
O110 Mn111 2.290 . S
O110 C121 1.278 . S
Mn111 O110 2.290 . S
Mn111 O113 2.089 . S
Mn111 O116 2.251 . S
Mn111 O117 2.087 . S
O112 Mn106 2.163 . S
O112 C122 1.244 . S
O113 Mn111 2.089 . S
O113 C120 1.256 . S
O114 Mn106 2.160 . S
O114 C123 1.239 . S
O115 Mn108 2.089 . S
O115 C123 1.256 . S
O116 Mn111 2.251 . S
O116 C121 1.241 . S
O117 Mn111 2.087 . S
O117 C122 1.256 . S
C118 O124 1.278 . S
C118 O125 1.241 . S
C119 O105 1.244 . S
C119 O107 1.256 . S
C120 O109 1.239 . S
C120 O113 1.256 . S
C121 O110 1.278 . S
C121 O116 1.241 . S
C122 O112 1.244 . S
C122 O117 1.256 . S
C123 O114 1.239 . S
C123 O115 1.256 . S
O124 Mn106 2.221 . S
O124 Mn108 2.290 . S
O124 C118 1.278 . S
O125 Mn108 2.251 . S
O125 C118 1.241 . S
H126 C134 0.929 . S
H127 C136 0.930 . S
H128 C138 0.930 1_554 S
H129 C141 0.929 1_554 S
H130 C144 0.930 . S
H131 C146 0.960 . S
H132 C146 0.960 . S
H133 C146 0.960 . S
C134 H126 0.929 . S
C134 C135 1.377 . S
C134 C136 1.384 1_545 S
C135 C134 1.377 . S
C135 C141 1.390 . S
C136 H127 0.930 . S
C136 C134 1.384 1_565 S
C136 C137 1.372 . S
C137 C136 1.372 . S
C137 C138 1.400 . S
C137 C142 1.490 . S
C138 H128 0.930 1_556 S
C138 C137 1.400 . S
C138 C141 1.386 1_565 S
H139 C155 0.930 . S
H140 C156 0.931 . S
C141 H129 0.929 1_556 S
C141 C135 1.390 . S
C141 C138 1.386 1_545 S
C142 C137 1.490 . S
C142 C144 1.395 . S
C142 C145 1.403 . S
H143 C149 0.930 . S
C144 H130 0.930 . S
C144 C142 1.395 . S
C144 C147 1.403 . S
C145 C142 1.403 . S
C145 C146 1.524 . S
C145 C149 1.400 . S
C146 H131 0.960 . S
C146 H132 0.960 . S
C146 H133 0.960 . S
C146 C145 1.524 . S
C147 C144 1.403 . S
C147 C148 1.392 . S
C147 C151 1.495 . S
C148 C147 1.392 . S
C148 C149 1.385 . S
C148 C150 1.478 . S
C149 H143 0.930 . S
C149 C145 1.400 . S
C149 C148 1.385 . S
C150 C148 1.478 . S
C150 C152 1.381 . S
C150 C156 1.383 . S
C151 C147 1.495 . S
C151 H157 0.959 . S
C151 H158 0.961 . S
C151 H159 0.960 . S
C152 C150 1.381 . S
C152 C153 1.394 . S
C152 H160 0.930 . S
C153 C152 1.394 . S
C153 C154 1.383 . S
C153 H161 0.929 . S
C154 C153 1.383 . S
C154 C155 1.377 . S
C155 H139 0.930 . S
C155 C154 1.377 . S
C155 C156 1.379 . S
C156 H140 0.931 . S
C156 C150 1.383 . S
C156 C155 1.379 . S
H157 C151 0.959 . S
H158 C151 0.961 . S
H159 C151 0.960 . S
H160 C152 0.930 . S
H161 C153 0.929 . S
H162 C170 0.929 . S
H163 C172 0.930 . S
H164 C174 0.930 . S
H165 C177 0.929 . S
H166 C180 0.930 . S
H167 C182 0.960 . S
H168 C182 0.960 . S
H169 C182 0.960 . S
C170 H162 0.929 . S
C170 C171 1.377 . S
C170 C172 1.384 . S
C171 C170 1.377 . S
C171 C177 1.390 . S
C172 H163 0.930 . S
C172 C170 1.384 . S
C172 C173 1.372 . S
C173 C172 1.372 . S
C173 C174 1.400 . S
C173 C178 1.490 . S
C174 H164 0.930 . S
C174 C173 1.400 . S
C174 C177 1.386 . S
H175 C191 0.930 . S
H176 C192 0.931 . S
C177 H165 0.929 . S
C177 C171 1.390 . S
C177 C174 1.386 . S
C178 C173 1.490 . S
C178 C180 1.395 . S
C178 C181 1.403 . S
H179 C185 0.930 . S
C180 H166 0.930 . S
C180 C178 1.395 . S
C180 C183 1.403 . S
C181 C178 1.403 . S
C181 C182 1.524 . S
C181 C185 1.400 . S
C182 H167 0.960 . S
C182 H168 0.960 . S
C182 H169 0.960 . S
C182 C181 1.524 . S
C183 C180 1.403 . S
C183 C184 1.392 . S
C183 C187 1.495 . S
C184 C183 1.392 . S
C184 C185 1.385 . S
C184 C186 1.478 . S
C185 H179 0.930 . S
C185 C181 1.400 . S
C185 C184 1.385 . S
C186 C184 1.478 . S
C186 C188 1.381 . S
C186 C192 1.383 . S
C187 C183 1.495 . S
C187 H193 0.959 . S
C187 H194 0.961 . S
C187 H195 0.960 . S
C188 C186 1.381 . S
C188 C189 1.394 . S
C188 H196 0.930 . S
C189 C188 1.394 . S
C189 C190 1.383 . S
C189 H197 0.929 . S
C190 C189 1.383 . S
C190 C191 1.377 . S
C191 H175 0.930 . S
C191 C190 1.377 . S
C191 C192 1.379 . S
C192 H176 0.931 . S
C192 C186 1.383 . S
C192 C191 1.379 . S
H193 C187 0.959 . S
H194 C187 0.961 . S
H195 C187 0.960 . S
H196 C188 0.930 . S
H197 C189 0.929 . S
H198 C206 0.929 . S
H199 C208 0.930 . S
H200 C210 0.930 . S
H201 C213 0.929 . S
H202 C216 0.930 . S
H203 C218 0.960 . S
H204 C218 0.960 . S
H205 C218 0.960 . S
C206 H198 0.929 . S
C206 C207 1.377 . S
C206 C208 1.384 1_655 S
C207 C206 1.377 . S
C207 C213 1.390 . S
C208 H199 0.930 . S
C208 C206 1.384 1_455 S
C208 C209 1.372 . S
C209 C208 1.372 . S
C209 C210 1.400 . S
C209 C214 1.490 . S
C210 H200 0.930 . S
C210 C209 1.400 . S
C210 C213 1.386 1_455 S
H211 C227 0.930 . S
H212 C228 0.931 . S
C213 H201 0.929 . S
C213 C207 1.390 . S
C213 C210 1.386 1_655 S
C214 C209 1.490 . S
C214 C216 1.395 . S
C214 C217 1.403 . S
H215 C221 0.930 . S
C216 H202 0.930 . S
C216 C214 1.395 . S
C216 C219 1.403 . S
C217 C214 1.403 . S
C217 C218 1.524 . S
C217 C221 1.400 . S
C218 H203 0.960 . S
C218 H204 0.960 . S
C218 H205 0.960 . S
C218 C217 1.524 . S
C219 C216 1.403 . S
C219 C220 1.392 . S
C219 C223 1.495 . S
C220 C219 1.392 . S
C220 C221 1.385 . S
C220 C222 1.478 . S
C221 H215 0.930 . S
C221 C217 1.400 . S
C221 C220 1.385 . S
C222 C220 1.478 . S
C222 C224 1.381 . S
C222 C228 1.383 . S
C223 C219 1.495 . S
C223 H229 0.959 . S
C223 H230 0.961 . S
C223 H231 0.960 . S
C224 C222 1.381 . S
C224 C225 1.394 . S
C224 H232 0.930 . S
C225 C224 1.394 . S
C225 C226 1.383 . S
C225 H233 0.929 . S
C226 C225 1.383 . S
C226 C227 1.377 . S
C227 H211 0.930 . S
C227 C226 1.377 . S
C227 C228 1.379 . S
C228 H212 0.931 . S
C228 C222 1.383 . S
C228 C227 1.379 . S
H229 C223 0.959 . S
H230 C223 0.961 . S
H231 C223 0.960 . S
H232 C224 0.930 . S
H233 C225 0.929 . S
H234 C242 0.929 . S
H235 C244 0.930 . S
H236 C246 0.930 . S
H237 C249 0.929 . S
H238 C252 0.930 . S
H239 C254 0.960 . S
H240 C254 0.960 . S
H241 C254 0.960 . S
C242 H234 0.929 . S
C242 C243 1.377 . S
C242 C244 1.384 . S
C243 C242 1.377 . S
C243 C249 1.390 . S
C244 H235 0.930 . S
C244 C242 1.384 . S
C244 C245 1.372 . S
C245 C244 1.372 . S
C245 C246 1.400 . S
C245 C250 1.490 . S
C246 H236 0.930 . S
C246 C245 1.400 . S
C246 C249 1.386 . S
H247 C263 0.930 . S
H248 C264 0.931 . S
C249 H237 0.929 . S
C249 C243 1.390 . S
C249 C246 1.386 . S
C250 C245 1.490 . S
C250 C252 1.395 . S
C250 C253 1.403 . S
H251 C257 0.930 . S
C252 H238 0.930 . S
C252 C250 1.395 . S
C252 C255 1.403 . S
C253 C250 1.403 . S
C253 C254 1.524 . S
C253 C257 1.400 . S
C254 H239 0.960 . S
C254 H240 0.960 . S
C254 H241 0.960 . S
C254 C253 1.524 . S
C255 C252 1.403 . S
C255 C256 1.392 . S
C255 C259 1.495 . S
C256 C255 1.392 . S
C256 C257 1.385 . S
C256 C258 1.478 . S
C257 H251 0.930 . S
C257 C253 1.400 . S
C257 C256 1.385 . S
C258 C256 1.478 . S
C258 C260 1.381 . S
C258 C264 1.383 . S
C259 C255 1.495 . S
C259 H265 0.959 . S
C259 H266 0.961 . S
C259 H267 0.960 . S
C260 C258 1.381 . S
C260 C261 1.394 1_545 S
C260 H268 0.930 . S
C261 C260 1.394 1_565 S
C261 C262 1.383 . S
C261 H269 0.929 . S
C262 C261 1.383 . S
C262 C263 1.377 . S
C263 H247 0.930 . S
C263 C262 1.377 . S
C263 C264 1.379 1_565 S
C264 H248 0.931 . S
C264 C258 1.383 . S
C264 C263 1.379 1_545 S
H265 C259 0.959 . S
H266 C259 0.961 . S
H267 C259 0.960 . S
H268 C260 0.930 . S
H269 C261 0.929 . S
H270 C278 0.929 . S
H271 C280 0.930 . S
H272 C282 0.930 . S
H273 C285 0.929 . S
H274 C288 0.930 . S
H275 C290 0.960 . S
H276 C290 0.960 . S
H277 C290 0.960 . S
C278 H270 0.929 . S
C278 C279 1.377 . S
C278 C280 1.384 . S
C279 C278 1.377 . S
C279 C285 1.390 . S
C280 H271 0.930 . S
C280 C278 1.384 . S
C280 C281 1.372 . S
C281 C280 1.372 . S
C281 C282 1.400 . S
C281 C286 1.490 . S
C282 H272 0.930 . S
C282 C281 1.400 . S
C282 C285 1.386 . S
H283 C299 0.930 . S
H284 C300 0.931 . S
C285 H273 0.929 . S
C285 C279 1.390 . S
C285 C282 1.386 . S
C286 C281 1.490 . S
C286 C288 1.395 . S
C286 C289 1.403 . S
H287 C293 0.930 . S
C288 H274 0.930 . S
C288 C286 1.395 . S
C288 C291 1.403 . S
C289 C286 1.403 . S
C289 C290 1.524 . S
C289 C293 1.400 . S
C290 H275 0.960 . S
C290 H276 0.960 . S
C290 H277 0.960 . S
C290 C289 1.524 . S
C291 C288 1.403 . S
C291 C292 1.392 . S
C291 C295 1.495 . S
C292 C291 1.392 . S
C292 C293 1.385 . S
C292 C294 1.478 . S
C293 H287 0.930 . S
C293 C289 1.400 . S
C293 C292 1.385 . S
C294 C292 1.478 . S
C294 C296 1.381 . S
C294 C300 1.383 . S
C295 C291 1.495 . S
C295 H301 0.959 . S
C295 H302 0.961 . S
C295 H303 0.960 . S
C296 C294 1.381 . S
C296 C297 1.394 . S
C296 H304 0.930 . S
C297 C296 1.394 . S
C297 C298 1.383 . S
C297 H305 0.929 . S
C298 C297 1.383 . S
C298 C299 1.377 . S
C299 H283 0.930 . S
C299 C298 1.377 . S
C299 C300 1.379 . S
C300 H284 0.931 . S
C300 C294 1.383 . S
C300 C299 1.379 . S
H301 C295 0.959 . S
H302 C295 0.961 . S
H303 C295 0.960 . S
H304 C296 0.930 . S
H305 C297 0.929 . S
H306 C314 0.929 . S
H307 C316 0.930 . S
H308 C318 0.930 . S
H309 C321 0.929 . S
H310 C324 0.930 . S
H311 C326 0.960 . S
H312 C326 0.960 . S
H313 C326 0.960 . S
C314 H306 0.929 . S
C314 C315 1.377 . S
C314 C316 1.384 1_455 S
C315 C314 1.377 . S
C315 C321 1.390 . S
C316 H307 0.930 . S
C316 C314 1.384 1_655 S
C316 C317 1.372 . S
C317 C316 1.372 . S
C317 C318 1.400 . S
C317 C322 1.490 . S
C318 H308 0.930 . S
C318 C317 1.400 . S
C318 C321 1.386 1_655 S
H319 C335 0.930 . S
H320 C336 0.931 . S
C321 H309 0.929 . S
C321 C315 1.390 . S
C321 C318 1.386 1_455 S
C322 C317 1.490 . S
C322 C324 1.395 . S
C322 C325 1.403 . S
H323 C329 0.930 . S
C324 H310 0.930 . S
C324 C322 1.395 . S
C324 C327 1.403 . S
C325 C322 1.403 . S
C325 C326 1.524 . S
C325 C329 1.400 . S
C326 H311 0.960 . S
C326 H312 0.960 . S
C326 H313 0.960 . S
C326 C325 1.524 . S
C327 C324 1.403 . S
C327 C328 1.392 . S
C327 C331 1.495 . S
C328 C327 1.392 . S
C328 C329 1.385 . S
C328 C330 1.478 . S
C329 H323 0.930 . S
C329 C325 1.400 . S
C329 C328 1.385 . S
C330 C328 1.478 . S
C330 C332 1.381 . S
C330 C336 1.383 . S
C331 C327 1.495 . S
C331 H337 0.959 . S
C331 H338 0.961 . S
C331 H339 0.960 . S
C332 C330 1.381 . S
C332 C333 1.394 . S
C332 H340 0.930 . S
C333 C332 1.394 . S
C333 C334 1.383 . S
C333 H341 0.929 . S
C334 C333 1.383 . S
C334 C335 1.377 . S
C335 H319 0.930 . S
C335 C334 1.377 . S
C335 C336 1.379 . S
C336 H320 0.931 . S
C336 C330 1.383 . S
C336 C335 1.379 . S
H337 C331 0.959 . S
H338 C331 0.961 . S
H339 C331 0.960 . S
H340 C332 0.930 . S
H341 C333 0.929 . S
H342 C350 0.929 . S
H343 C352 0.930 . S
H344 C354 0.930 . S
H345 C357 0.929 . S
H346 C360 0.930 . S
H347 C362 0.960 . S
H348 C362 0.960 . S
H349 C362 0.960 . S
C350 H342 0.929 . S
C350 C351 1.377 . S
C350 C352 1.384 . S
C351 C350 1.377 . S
C351 C357 1.390 . S
C352 H343 0.930 . S
C352 C350 1.384 . S
C352 C353 1.372 . S
C353 C352 1.372 . S
C353 C354 1.400 . S
C353 C358 1.490 . S
C354 H344 0.930 . S
C354 C353 1.400 . S
C354 C357 1.386 . S
H355 C371 0.930 . S
H356 C372 0.931 . S
C357 H345 0.929 . S
C357 C351 1.390 . S
C357 C354 1.386 . S
C358 C353 1.490 . S
C358 C360 1.395 . S
C358 C361 1.403 1_545 S
H359 C365 0.930 . S
C360 H346 0.930 . S
C360 C358 1.395 . S
C360 C363 1.403 . S
C361 C358 1.403 1_565 S
C361 C362 1.524 . S
C361 C365 1.400 . S
C362 H347 0.960 . S
C362 H348 0.960 . S
C362 H349 0.960 . S
C362 C361 1.524 . S
C363 C360 1.403 . S
C363 C364 1.392 1_545 S
C363 C367 1.495 . S
C364 C363 1.392 1_565 S
C364 C365 1.385 . S
C364 C366 1.478 . S
C365 H359 0.930 . S
C365 C361 1.400 . S
C365 C364 1.385 . S
C366 C364 1.478 . S
C366 C368 1.381 . S
C366 C372 1.383 . S
C367 C363 1.495 . S
C367 H373 0.959 . S
C367 H374 0.961 . S
C367 H375 0.960 . S
C368 C366 1.381 . S
C368 C369 1.394 . S
C368 H376 0.930 . S
C369 C368 1.394 . S
C369 C370 1.383 . S
C369 H377 0.929 . S
C370 C369 1.383 . S
C370 C371 1.377 . S
C371 H355 0.930 . S
C371 C370 1.377 . S
C371 C372 1.379 . S
C372 H356 0.931 . S
C372 C366 1.383 . S
C372 C371 1.379 . S
H373 C367 0.959 . S
H374 C367 0.961 . S
H375 C367 0.960 . S
H376 C368 0.930 . S
H377 C369 0.929 . S
H378 C386 0.929 . S
H379 C388 0.930 . S
H380 C390 0.930 . S
H381 C393 0.929 . S
H382 C396 0.930 . S
H383 C398 0.960 . S
H384 C398 0.960 . S
H385 C398 0.960 . S
C386 H378 0.929 . S
C386 C387 1.377 . S
C386 C388 1.384 . S
C387 C386 1.377 . S
C387 C393 1.390 . S
C388 H379 0.930 . S
C388 C386 1.384 . S
C388 C389 1.372 . S
C389 C388 1.372 . S
C389 C390 1.400 . S
C389 C394 1.490 . S
C390 H380 0.930 . S
C390 C389 1.400 . S
C390 C393 1.386 . S
H391 C407 0.930 . S
H392 C408 0.931 . S
C393 H381 0.929 . S
C393 C387 1.390 . S
C393 C390 1.386 . S
C394 C389 1.490 . S
C394 C396 1.395 . S
C394 C397 1.403 . S
H395 C401 0.930 . S
C396 H382 0.930 . S
C396 C394 1.395 . S
C396 C399 1.403 . S
C397 C394 1.403 . S
C397 C398 1.524 . S
C397 C401 1.400 . S
C398 H383 0.960 . S
C398 H384 0.960 . S
C398 H385 0.960 . S
C398 C397 1.524 . S
C399 C396 1.403 . S
C399 C400 1.392 . S
C399 C403 1.495 . S
C400 C399 1.392 . S
C400 C401 1.385 . S
C400 C402 1.478 . S
C401 H395 0.930 . S
C401 C397 1.400 . S
C401 C400 1.385 . S
C402 C400 1.478 . S
C402 C404 1.381 . S
C402 C408 1.383 . S
C403 C399 1.495 . S
C403 H409 0.959 . S
C403 H410 0.961 . S
C403 H411 0.960 . S
C404 C402 1.381 . S
C404 C405 1.394 . S
C404 H412 0.930 . S
C405 C404 1.394 . S
C405 C406 1.383 . S
C405 H413 0.929 . S
C406 C405 1.383 . S
C406 C407 1.377 . S
C407 H391 0.930 . S
C407 C406 1.377 . S
C407 C408 1.379 . S
C408 H392 0.931 . S
C408 C402 1.383 . S
C408 C407 1.379 . S
H409 C403 0.959 . S
H410 C403 0.961 . S
H411 C403 0.960 . S
H412 C404 0.930 . S
H413 C405 0.929 . S
H414 C422 0.929 . S
H415 C424 0.930 . S
H416 C426 0.930 . S
H417 C429 0.929 . S
H418 C432 0.930 . S
H419 C434 0.960 . S
H420 C434 0.960 . S
H421 C434 0.960 . S
C422 H414 0.929 . S
C422 C423 1.377 . S
C422 C424 1.384 . S
C423 C422 1.377 . S
C423 C429 1.390 . S
C424 H415 0.930 . S
C424 C422 1.384 . S
C424 C425 1.372 . S
C425 C424 1.372 . S
C425 C426 1.400 . S
C425 C430 1.490 . S
C426 H416 0.930 . S
C426 C425 1.400 . S
C426 C429 1.386 . S
H427 C443 0.930 . S
H428 C444 0.931 . S
C429 H417 0.929 . S
C429 C423 1.390 . S
C429 C426 1.386 . S
C430 C425 1.490 . S
C430 C432 1.395 1_455 S
C430 C433 1.403 . S
H431 C437 0.930 . S
C432 H418 0.930 . S
C432 C430 1.395 1_655 S
C432 C435 1.403 . S
C433 C430 1.403 . S
C433 C434 1.524 . S
C433 C437 1.400 . S
C434 H419 0.960 . S
C434 H420 0.960 . S
C434 H421 0.960 . S
C434 C433 1.524 . S
C435 C432 1.403 . S
C435 C436 1.392 . S
C435 C439 1.495 . S
C436 C435 1.392 . S
C436 C437 1.385 1_655 S
C436 C438 1.478 . S
C437 H431 0.930 . S
C437 C433 1.400 . S
C437 C436 1.385 1_455 S
C438 C436 1.478 . S
C438 C440 1.381 . S
C438 C444 1.383 . S
C439 C435 1.495 . S
C439 H445 0.959 . S
C439 H446 0.961 . S
C439 H447 0.960 . S
C440 C438 1.381 . S
C440 C441 1.394 . S
C440 H448 0.930 . S
C441 C440 1.394 . S
C441 C442 1.383 . S
C441 H449 0.929 . S
C442 C441 1.383 . S
C442 C443 1.377 . S
C443 H427 0.930 . S
C443 C442 1.377 . S
C443 C444 1.379 . S
C444 H428 0.931 . S
C444 C438 1.383 . S
C444 C443 1.379 . S
H445 C439 0.959 . S
H446 C439 0.961 . S
H447 C439 0.960 . S
H448 C440 0.930 . S
H449 C441 0.929 . S
H450 C458 0.929 1_545 S
H451 C460 0.930 . S
H452 C462 0.930 . S
H453 C465 0.929 . S
H454 C468 0.930 . S
H455 C470 0.960 . S
H456 C470 0.960 . S
H457 C470 0.960 . S
C458 H450 0.929 1_565 S
C458 C459 1.377 . S
C458 C460 1.384 1_565 S
C459 C458 1.377 . S
C459 C465 1.390 . S
C460 H451 0.930 . S
C460 C458 1.384 1_545 S
C460 C461 1.372 1_545 S
C461 C460 1.372 1_565 S
C461 C462 1.400 . S
C461 C466 1.490 . S
C462 H452 0.930 . S
C462 C461 1.400 . S
C462 C465 1.386 . S
H463 C479 0.930 . S
H464 C480 0.931 . S
C465 H453 0.929 . S
C465 C459 1.390 . S
C465 C462 1.386 . S
C466 C461 1.490 . S
C466 C468 1.394 1_565 S
C466 C469 1.403 . S
H467 C473 0.930 1_565 S
C468 H454 0.930 . S
C468 C466 1.394 1_545 S
C468 C471 1.403 . S
C469 C466 1.403 . S
C469 C470 1.524 . S
C469 C473 1.400 1_565 S
C470 H455 0.960 . S
C470 H456 0.960 . S
C470 H457 0.960 . S
C470 C469 1.524 . S
C471 C468 1.403 . S
C471 C472 1.392 . S
C471 C475 1.495 . S
C472 C471 1.392 . S
C472 C473 1.385 . S
C472 C474 1.478 . S
C473 H467 0.930 1_545 S
C473 C469 1.400 1_545 S
C473 C472 1.385 . S
C474 C472 1.478 . S
C474 C476 1.381 . S
C474 C480 1.383 . S
C475 C471 1.495 . S
C475 H481 0.959 . S
C475 H482 0.961 . S
C475 H483 0.960 . S
C476 C474 1.381 . S
C476 C477 1.394 . S
C476 H484 0.930 . S
C477 C476 1.394 . S
C477 C478 1.383 . S
C477 H485 0.929 . S
C478 C477 1.383 . S
C478 C479 1.377 . S
C479 H463 0.930 . S
C479 C478 1.377 . S
C479 C480 1.379 . S
C480 H464 0.931 . S
C480 C474 1.383 . S
C480 C479 1.379 . S
H481 C475 0.959 . S
H482 C475 0.961 . S
H483 C475 0.960 . S
H484 C476 0.930 . S
H485 C477 0.929 . S
H486 C494 0.929 . S
H487 C496 0.930 . S
H488 C498 0.930 . S
H489 C501 0.929 . S
H490 C504 0.930 1_554 S
H491 C506 0.960 . S
H492 C506 0.960 . S
H493 C506 0.960 . S
C494 H486 0.929 . S
C494 C495 1.377 . S
C494 C496 1.384 . S
C495 C494 1.377 . S
C495 C501 1.390 . S
C496 H487 0.930 . S
C496 C494 1.384 . S
C496 C497 1.372 . S
C497 C496 1.372 . S
C497 C498 1.400 . S
C497 C502 1.490 1_554 S
C498 H488 0.930 . S
C498 C497 1.400 . S
C498 C501 1.386 . S
H499 C515 0.930 . S
H500 C516 0.931 . S
C501 H489 0.929 . S
C501 C495 1.390 . S
C501 C498 1.386 . S
C502 C497 1.490 1_556 S
C502 C504 1.395 . S
C502 C505 1.403 . S
H503 C509 0.930 . S
C504 H490 0.930 1_556 S
C504 C502 1.395 . S
C504 C507 1.403 . S
C505 C502 1.403 . S
C505 C506 1.524 . S
C505 C509 1.400 . S
C506 H491 0.960 . S
C506 H492 0.960 . S
C506 H493 0.960 . S
C506 C505 1.524 . S
C507 C504 1.403 . S
C507 C508 1.392 . S
C507 C511 1.495 . S
C508 C507 1.392 . S
C508 C509 1.385 . S
C508 C510 1.478 . S
C509 H503 0.930 . S
C509 C505 1.400 . S
C509 C508 1.385 . S
C510 C508 1.478 . S
C510 C512 1.381 . S
C510 C516 1.383 . S
C511 C507 1.495 . S
C511 H517 0.959 . S
C511 H518 0.961 . S
C511 H519 0.960 . S
C512 C510 1.381 . S
C512 C513 1.394 . S
C512 H520 0.930 . S
C513 C512 1.394 . S
C513 C514 1.383 . S
C513 H521 0.929 . S
C514 C513 1.383 . S
C514 C515 1.377 . S
C515 H499 0.930 . S
C515 C514 1.377 . S
C515 C516 1.379 . S
C516 H500 0.931 . S
C516 C510 1.383 . S
C516 C515 1.379 . S
H517 C511 0.959 . S
H518 C511 0.961 . S
H519 C511 0.960 . S
H520 C512 0.930 . S
H521 C513 0.929 . S
H522 C530 0.929 . S
H523 C532 0.930 . S
H524 C534 0.930 1_655 S
H525 C537 0.929 . S
H526 C540 0.930 . S
H527 C542 0.960 . S
H528 C542 0.960 . S
H529 C542 0.960 . S
C530 H522 0.929 . S
C530 C531 1.377 . S
C530 C532 1.384 1_556 S
C531 C530 1.377 . S
C531 C537 1.390 . S
C532 H523 0.930 . S
C532 C530 1.384 1_554 S
C532 C533 1.372 . S
C533 C532 1.372 . S
C533 C534 1.400 . S
C533 C538 1.490 . S
C534 H524 0.930 1_455 S
C534 C533 1.400 . S
C534 C537 1.386 1_554 S
H535 C551 0.930 . S
H536 C552 0.931 . S
C537 H525 0.929 . S
C537 C531 1.390 . S
C537 C534 1.386 1_556 S
C538 C533 1.490 . S
C538 C540 1.395 . S
C538 C541 1.403 1_455 S
H539 C545 0.930 . S
C540 H526 0.930 . S
C540 C538 1.395 . S
C540 C543 1.403 . S
C541 C538 1.403 1_655 S
C541 C542 1.524 . S
C541 C545 1.400 . S
C542 H527 0.960 . S
C542 H528 0.960 . S
C542 H529 0.960 . S
C542 C541 1.524 . S
C543 C540 1.403 . S
C543 C544 1.392 1_455 S
C543 C547 1.495 . S
C544 C543 1.392 1_655 S
C544 C545 1.385 . S
C544 C546 1.478 . S
C545 H539 0.930 . S
C545 C541 1.400 . S
C545 C544 1.385 . S
C546 C544 1.478 . S
C546 C548 1.381 . S
C546 C552 1.383 . S
C547 C543 1.495 . S
C547 H553 0.959 . S
C547 H554 0.961 . S
C547 H555 0.960 . S
C548 C546 1.381 . S
C548 C549 1.394 . S
C548 H556 0.949 . S
C549 C548 1.394 . S
C549 C550 1.383 . S
C549 H557 0.929 . S
C550 C549 1.383 . S
C550 C551 1.377 . S
C551 H535 0.930 . S
C551 C550 1.377 . S
C551 C552 1.379 . S
C552 H536 0.931 . S
C552 C546 1.383 . S
C552 C551 1.379 . S
H553 C547 0.959 . S
H554 C547 0.961 . S
H555 C547 0.960 . S
H556 C548 0.949 . S
H557 C549 0.929 . S
H558 C566 0.929 . S
H559 C568 0.930 . S
H560 C570 0.930 . S
H561 C573 0.929 . S
H562 C576 0.930 . S
H563 C578 0.960 . S
H564 C578 0.960 . S
H565 C578 0.960 . S
C566 H558 0.929 . S
C566 C567 1.377 . S
C566 C568 1.384 . S
C567 C566 1.377 . S
C567 C573 1.390 . S
C568 H559 0.930 . S
C568 C566 1.384 . S
C568 C569 1.372 . S
C569 C568 1.372 . S
C569 C570 1.400 . S
C569 C574 1.490 . S
C570 H560 0.930 . S
C570 C569 1.400 . S
C570 C573 1.386 . S
H571 C587 0.930 . S
H572 C588 0.931 . S
C573 H561 0.929 . S
C573 C567 1.390 . S
C573 C570 1.386 . S
C574 C569 1.490 . S
C574 C576 1.395 . S
C574 C577 1.403 . S
H575 C581 0.930 . S
C576 H562 0.930 . S
C576 C574 1.395 . S
C576 C579 1.403 . S
C577 C574 1.403 . S
C577 C578 1.524 . S
C577 C581 1.400 . S
C578 H563 0.960 . S
C578 H564 0.960 . S
C578 H565 0.960 . S
C578 C577 1.524 . S
C579 C576 1.403 . S
C579 C580 1.392 . S
C579 C583 1.495 . S
C580 C579 1.392 . S
C580 C581 1.385 . S
C580 C582 1.478 . S
C581 H575 0.930 . S
C581 C577 1.400 . S
C581 C580 1.385 . S
C582 C580 1.478 . S
C582 C584 1.381 . S
C582 C588 1.383 . S
C583 C579 1.495 . S
C583 H589 0.959 . S
C583 H590 0.961 . S
C583 H591 0.960 . S
C584 C582 1.381 . S
C584 C585 1.394 . S
C584 H592 0.930 . S
C585 C584 1.394 . S
C585 C586 1.383 . S
C585 H593 0.929 . S
C586 C585 1.383 . S
C586 C587 1.377 . S
C587 H571 0.930 . S
C587 C586 1.377 . S
C587 C588 1.379 . S
C588 H572 0.931 . S
C588 C582 1.383 . S
C588 C587 1.379 . S
H589 C583 0.959 . S
H590 C583 0.961 . S
H591 C583 0.960 . S
H592 C584 0.930 . S
H593 C585 0.929 . S
H594 C602 0.929 . S
H595 C604 0.930 . S
H596 C606 0.930 . S
H597 C609 0.929 . S
H598 C612 0.930 . S
H599 C614 0.960 1_554 S
H600 C614 0.960 1_554 S
H601 C614 0.960 . S
C602 H594 0.929 . S
C602 C603 1.377 . S
C602 C604 1.384 . S
C603 C602 1.377 . S
C603 C609 1.390 . S
C604 H595 0.930 . S
C604 C602 1.384 . S
C604 C605 1.372 . S
C605 C604 1.372 . S
C605 C606 1.400 . S
C605 C610 1.490 . S
C606 H596 0.930 . S
C606 C605 1.400 . S
C606 C609 1.386 . S
H607 C623 0.930 . S
H608 C624 0.931 1_556 S
C609 H597 0.929 . S
C609 C603 1.390 . S
C609 C606 1.386 . S
C610 C605 1.490 . S
C610 C612 1.395 . S
C610 C613 1.403 . S
H611 C617 0.930 . S
C612 H598 0.930 . S
C612 C610 1.395 . S
C612 C615 1.403 1_556 S
C613 C610 1.403 . S
C613 C614 1.524 . S
C613 C617 1.400 1_556 S
C614 H599 0.960 1_556 S
C614 H600 0.960 1_556 S
C614 H601 0.960 . S
C614 C613 1.524 . S
C615 C612 1.403 1_554 S
C615 C616 1.392 . S
C615 C619 1.495 . S
C616 C615 1.392 . S
C616 C617 1.385 . S
C616 C618 1.478 . S
C617 H611 0.930 . S
C617 C613 1.400 1_554 S
C617 C616 1.385 . S
C618 C616 1.478 . S
C618 C620 1.381 . S
C618 C624 1.383 . S
C619 C615 1.495 . S
C619 H625 0.959 1_554 S
C619 H626 0.961 1_554 S
C619 H627 0.960 . S
C620 C618 1.381 . S
C620 C621 1.394 . S
C620 H628 0.930 . S
C621 C620 1.394 . S
C621 C622 1.383 . S
C621 H629 0.929 . S
C622 C621 1.383 . S
C622 C623 1.377 . S
C623 H607 0.930 . S
C623 C622 1.377 . S
C623 C624 1.379 . S
C624 H608 0.931 1_554 S
C624 C618 1.383 . S
C624 C623 1.379 . S
H625 C619 0.959 1_556 S
H626 C619 0.961 1_556 S
H627 C619 0.960 . S
H628 C620 0.930 . S
H629 C621 0.929 . S
H630 C638 0.929 . S
H631 C640 0.930 . S
H632 C642 0.930 . S
H633 C645 0.929 . S
H634 C648 0.930 . S
H635 C650 0.960 . S
H636 C650 0.960 . S
H637 C650 0.960 . S
C638 H630 0.929 . S
C638 C639 1.377 . S
C638 C640 1.384 . S
C639 C638 1.377 . S
C639 C645 1.390 . S
C640 H631 0.930 . S
C640 C638 1.384 . S
C640 C641 1.372 . S
C641 C640 1.372 . S
C641 C642 1.400 . S
C641 C646 1.490 . S
C642 H632 0.930 . S
C642 C641 1.400 . S
C642 C645 1.386 . S
H643 C659 0.930 . S
H644 C660 0.931 . S
C645 H633 0.929 . S
C645 C639 1.390 . S
C645 C642 1.386 . S
C646 C641 1.490 . S
C646 C648 1.395 . S
C646 C649 1.403 . S
H647 C653 0.930 . S
C648 H634 0.930 . S
C648 C646 1.395 . S
C648 C651 1.403 . S
C649 C646 1.403 . S
C649 C650 1.524 . S
C649 C653 1.400 . S
C650 H635 0.960 . S
C650 H636 0.960 . S
C650 H637 0.960 . S
C650 C649 1.524 . S
C651 C648 1.403 . S
C651 C652 1.392 . S
C651 C655 1.495 . S
C652 C651 1.392 . S
C652 C653 1.385 . S
C652 C654 1.478 . S
C653 H647 0.930 . S
C653 C649 1.400 . S
C653 C652 1.385 . S
C654 C652 1.478 . S
C654 C656 1.381 . S
C654 C660 1.383 . S
C655 C651 1.495 . S
C655 H661 0.959 . S
C655 H662 0.961 . S
C655 H663 0.960 . S
C656 C654 1.381 . S
C656 C657 1.394 . S
C656 H664 0.930 . S
C657 C656 1.394 . S
C657 C658 1.383 . S
C657 H665 0.929 . S
C658 C657 1.383 . S
C658 C659 1.377 . S
C659 H643 0.930 . S
C659 C658 1.377 . S
C659 C660 1.379 . S
C660 H644 0.931 . S
C660 C654 1.383 . S
C660 C659 1.379 . S
H661 C655 0.959 . S
H662 C655 0.961 . S
H663 C655 0.960 . S
H664 C656 0.930 . S
H665 C657 0.929 . S
H666 C674 0.929 . S
H667 C676 0.930 . S
H668 C678 0.930 . S
H669 C681 0.929 . S
H670 C684 0.930 . S
H671 C686 0.960 . S
H672 C686 0.960 . S
H673 C686 0.960 . S
C674 H666 0.929 . S
C674 C675 1.377 . S
C674 C676 1.384 . S
C675 C674 1.377 . S
C675 C681 1.390 . S
C676 H667 0.930 . S
C676 C674 1.384 . S
C676 C677 1.372 . S
C677 C676 1.372 . S
C677 C678 1.400 . S
C677 C682 1.490 . S
C678 H668 0.930 . S
C678 C677 1.400 . S
C678 C681 1.386 . S
H679 C695 0.930 . S
H680 C696 0.931 . S
C681 H669 0.929 . S
C681 C675 1.390 . S
C681 C678 1.386 . S
C682 C677 1.490 . S
C682 C684 1.395 . S
C682 C685 1.403 . S
H683 C689 0.930 . S
C684 H670 0.930 . S
C684 C682 1.395 . S
C684 C687 1.403 . S
C685 C682 1.403 . S
C685 C686 1.524 . S
C685 C689 1.400 . S
C686 H671 0.960 . S
C686 H672 0.960 . S
C686 H673 0.960 . S
C686 C685 1.524 . S
C687 C684 1.403 . S
C687 C688 1.392 . S
C687 C691 1.495 . S
C688 C687 1.392 . S
C688 C689 1.385 . S
C688 C690 1.478 . S
C689 H683 0.930 . S
C689 C685 1.400 . S
C689 C688 1.385 . S
C690 C688 1.478 . S
C690 C692 1.381 . S
C690 C696 1.383 . S
C691 C687 1.495 . S
C691 H697 0.959 . S
C691 H698 0.961 . S
C691 H699 0.960 . S
C692 C690 1.381 . S
C692 C693 1.394 . S
C692 H700 0.930 . S
C693 C692 1.394 . S
C693 C694 1.383 . S
C693 H701 0.929 . S
C694 C693 1.383 . S
C694 C695 1.377 . S
C695 H679 0.930 . S
C695 C694 1.377 . S
C695 C696 1.379 . S
C696 H680 0.931 . S
C696 C690 1.383 . S
C696 C695 1.379 . S
H697 C691 0.959 . S
H698 C691 0.961 . S
H699 C691 0.960 . S
H700 C692 0.930 . S
H701 C693 0.929 . S
H702 C710 0.929 . S
H703 C712 0.930 . S
H704 C714 0.930 . S
H705 C717 0.929 . S
H706 C720 0.930 . S
H707 C722 0.960 . S
H708 C722 0.960 . S
H709 C722 0.960 . S
C710 H702 0.929 . S
C710 C711 1.377 . S
C710 C712 1.384 . S
C711 C710 1.377 . S
C711 C717 1.390 . S
C712 H703 0.930 . S
C712 C710 1.384 . S
C712 C713 1.372 . S
C713 C712 1.372 . S
C713 C714 1.400 . S
C713 C718 1.490 . S
C714 H704 0.930 . S
C714 C713 1.400 . S
C714 C717 1.386 . S
H715 C731 0.930 . S
H716 C732 0.931 . S
C717 H705 0.929 . S
C717 C711 1.390 . S
C717 C714 1.386 . S
C718 C713 1.490 . S
C718 C720 1.395 . S
C718 C721 1.403 . S
H719 C725 0.930 . S
C720 H706 0.930 . S
C720 C718 1.395 . S
C720 C723 1.403 . S
C721 C718 1.403 . S
C721 C722 1.524 . S
C721 C725 1.400 . S
C722 H707 0.960 . S
C722 H708 0.960 . S
C722 H709 0.960 . S
C722 C721 1.524 . S
C723 C720 1.403 . S
C723 C724 1.392 . S
C723 C727 1.495 . S
C724 C723 1.392 . S
C724 C725 1.385 . S
C724 C726 1.478 . S
C725 H719 0.930 . S
C725 C721 1.400 . S
C725 C724 1.385 . S
C726 C724 1.478 . S
C726 C728 1.381 . S
C726 C732 1.383 . S
C727 C723 1.495 . S
C727 H733 0.959 . S
C727 H734 0.961 . S
C727 H735 0.960 . S
C728 C726 1.381 . S
C728 C729 1.394 . S
C728 H736 0.930 . S
C729 C728 1.394 . S
C729 C730 1.383 . S
C729 H737 0.929 . S
C730 C729 1.383 . S
C730 C731 1.377 . S
C731 H715 0.930 . S
C731 C730 1.377 . S
C731 C732 1.379 . S
C732 H716 0.931 . S
C732 C726 1.383 . S
C732 C731 1.379 . S
H733 C727 0.959 . S
H734 C727 0.961 . S
H735 C727 0.960 . S
H736 C728 0.930 . S
H737 C729 0.929 . S
H738 C746 0.929 . S
H739 C748 0.930 . S
H740 C750 0.930 . S
H741 C753 0.929 . S
H742 C756 0.930 . S
H743 C758 0.960 . S
H744 C758 0.960 . S
H745 C758 0.960 . S
C746 H738 0.929 . S
C746 C747 1.377 . S
C746 C748 1.384 . S
C747 C746 1.377 . S
C747 C753 1.390 . S
C748 H739 0.930 . S
C748 C746 1.384 . S
C748 C749 1.372 . S
C749 C748 1.372 . S
C749 C750 1.400 . S
C749 C754 1.490 . S
C750 H740 0.930 . S
C750 C749 1.400 . S
C750 C753 1.386 . S
H751 C767 0.930 . S
H752 C768 0.931 . S
C753 H741 0.929 . S
C753 C747 1.390 . S
C753 C750 1.386 . S
C754 C749 1.490 . S
C754 C756 1.395 . S
C754 C757 1.403 . S
H755 C761 0.930 . S
C756 H742 0.930 . S
C756 C754 1.395 . S
C756 C759 1.403 . S
C757 C754 1.403 . S
C757 C758 1.524 . S
C757 C761 1.400 . S
C758 H743 0.960 . S
C758 H744 0.960 . S
C758 H745 0.960 . S
C758 C757 1.524 . S
C759 C756 1.403 . S
C759 C760 1.392 . S
C759 C763 1.495 . S
C760 C759 1.392 . S
C760 C761 1.385 . S
C760 C762 1.478 . S
C761 H755 0.930 . S
C761 C757 1.400 . S
C761 C760 1.385 . S
C762 C760 1.478 . S
C762 C764 1.381 . S
C762 C768 1.383 . S
C763 C759 1.495 . S
C763 H769 0.959 . S
C763 H770 0.961 . S
C763 H771 0.960 . S
C764 C762 1.381 . S
C764 C765 1.394 . S
C764 H772 0.930 . S
C765 C764 1.394 . S
C765 C766 1.383 . S
C765 H773 0.929 . S
C766 C765 1.383 . S
C766 C767 1.377 . S
C767 H751 0.930 . S
C767 C766 1.377 . S
C767 C768 1.379 . S
C768 H752 0.931 . S
C768 C762 1.383 . S
C768 C767 1.379 . S
H769 C763 0.959 . S
H770 C763 0.961 . S
H771 C763 0.960 . S
H772 C764 0.930 . S
H773 C765 0.929 . S
C135 C17 1.619 . S
C154 C118 1.558 . S
C171 C35 1.609 . S
C190 C16 1.486 . S
C207 C59 1.614 . S
C226 C34 1.542 . S
C243 C58 1.521 . S
C262 C77 1.605 . S
C279 C76 1.519 . S
C298 C101 1.598 . S
C315 C119 1.611 . S
C334 C100 1.490 . S
C351 C15 1.089 . S
C370 C79 1.001 . S
C387 C39 1.090 . S
C406 C97 1.010 . S
C423 C121 0.933 . S
C442 C57 1.050 . S
C459 C81 1.080 . S
C478 C13 0.898 . S
C495 C37 0.932 . S
C514 C99 1.052 . S
C531 C123 1.088 . S
C550 C55 1.008 . S
C567 C14 0.973 . S
C586 C102 1.009 . S
C603 C120 0.992 . S
C622 C38 1.015 . S
C639 C18 0.977 . S
C658 C56 0.917 . S
C675 C80 0.973 . S
C694 C36 0.985 . S
C711 C60 0.981 . S
C730 C98 0.963 . S
C747 C78 0.977 . S
C766 C122 0.929 . S
