# Generated by pormake.
# Topology vcl, (7)-cn, num edge types: 1
# Building blocks:
#     Node 0, Type 0, BuildingBlock: NUHQUE_clean_sbu_2, # of connection points: 7
#     Node 1, Type 0, BuildingBlock: NUHQUE_clean_sbu_2, # of connection points: 7
#     Node 2, Type 0, BuildingBlock: NUHQUE_clean_sbu_2, # of connection points: 7
#     Node 3, Type 0, BuildingBlock: NUHQUE_clean_sbu_2, # of connection points: 7
#     Node 4, Type 0, BuildingBlock: NUHQUE_clean_sbu_2, # of connection points: 7
#     Node 5, Type 0, BuildingBlock: NUHQUE_clean_sbu_2, # of connection points: 7
#     Node 6, Type 0, BuildingBlock: NUHQUE_clean_sbu_2, # of connection points: 7
#     Node 7, Type 0, BuildingBlock: NUHQUE_clean_sbu_2, # of connection points: 7
#     Node 8, Type 0, BuildingBlock: NUHQUE_clean_sbu_2, # of connection points: 7
#     Node 9, Type 0, BuildingBlock: NUHQUE_clean_sbu_2, # of connection points: 7
#     Node 10, Type 0, BuildingBlock: NUHQUE_clean_sbu_2, # of connection points: 7
#     Node 11, Type 0, BuildingBlock: NUHQUE_clean_sbu_2, # of connection points: 7
#     Node 12, Type 0, BuildingBlock: NUHQUE_clean_sbu_2, # of connection points: 7
#     Node 13, Type 0, BuildingBlock: NUHQUE_clean_sbu_2, # of connection points: 7
#     Node 14, Type 0, BuildingBlock: NUHQUE_clean_sbu_2, # of connection points: 7
#     Node 15, Type 0, BuildingBlock: NUHQUE_clean_sbu_2, # of connection points: 7
#     Edge 16, Type (0, 0), BuildingBlock: CIFDUS_clean_linker_0, # of connection points: 2
#     Edge 17, Type (0, 0), BuildingBlock: CIFDUS_clean_linker_0, # of connection points: 2
#     Edge 18, Type (0, 0), BuildingBlock: CIFDUS_clean_linker_0, # of connection points: 2
#     Edge 19, Type (0, 0), BuildingBlock: CIFDUS_clean_linker_0, # of connection points: 2
#     Edge 20, Type (0, 0), BuildingBlock: CIFDUS_clean_linker_0, # of connection points: 2
#     Edge 21, Type (0, 0), BuildingBlock: CIFDUS_clean_linker_0, # of connection points: 2
#     Edge 22, Type (0, 0), BuildingBlock: CIFDUS_clean_linker_0, # of connection points: 2
#     Edge 23, Type (0, 0), BuildingBlock: CIFDUS_clean_linker_0, # of connection points: 2
#     Edge 24, Type (0, 0), BuildingBlock: CIFDUS_clean_linker_0, # of connection points: 2
#     Edge 25, Type (0, 0), BuildingBlock: CIFDUS_clean_linker_0, # of connection points: 2
#     Edge 26, Type (0, 0), BuildingBlock: CIFDUS_clean_linker_0, # of connection points: 2
#     Edge 27, Type (0, 0), BuildingBlock: CIFDUS_clean_linker_0, # of connection points: 2
#     Edge 28, Type (0, 0), BuildingBlock: CIFDUS_clean_linker_0, # of connection points: 2
#     Edge 29, Type (0, 0), BuildingBlock: CIFDUS_clean_linker_0, # of connection points: 2
#     Edge 30, Type (0, 0), BuildingBlock: CIFDUS_clean_linker_0, # of connection points: 2
#     Edge 31, Type (0, 0), BuildingBlock: CIFDUS_clean_linker_0, # of connection points: 2
#     Edge 32, Type (0, 0), BuildingBlock: CIFDUS_clean_linker_0, # of connection points: 2
#     Edge 33, Type (0, 0), BuildingBlock: CIFDUS_clean_linker_0, # of connection points: 2
#     Edge 34, Type (0, 0), BuildingBlock: CIFDUS_clean_linker_0, # of connection points: 2
#     Edge 35, Type (0, 0), BuildingBlock: CIFDUS_clean_linker_0, # of connection points: 2
#     Edge 36, Type (0, 0), BuildingBlock: CIFDUS_clean_linker_0, # of connection points: 2
#     Edge 37, Type (0, 0), BuildingBlock: CIFDUS_clean_linker_0, # of connection points: 2
#     Edge 38, Type (0, 0), BuildingBlock: CIFDUS_clean_linker_0, # of connection points: 2
#     Edge 39, Type (0, 0), BuildingBlock: CIFDUS_clean_linker_0, # of connection points: 2
#     Edge 40, Type (0, 0), BuildingBlock: CIFDUS_clean_linker_0, # of connection points: 2
#     Edge 41, Type (0, 0), BuildingBlock: CIFDUS_clean_linker_0, # of connection points: 2
#     Edge 42, Type (0, 0), BuildingBlock: CIFDUS_clean_linker_0, # of connection points: 2
#     Edge 43, Type (0, 0), BuildingBlock: CIFDUS_clean_linker_0, # of connection points: 2
#     Edge 44, Type (0, 0), BuildingBlock: CIFDUS_clean_linker_0, # of connection points: 2
#     Edge 45, Type (0, 0), BuildingBlock: CIFDUS_clean_linker_0, # of connection points: 2
#     Edge 46, Type (0, 0), BuildingBlock: CIFDUS_clean_linker_0, # of connection points: 2
#     Edge 47, Type (0, 0), BuildingBlock: CIFDUS_clean_linker_0, # of connection points: 2
#     Edge 48, Type (0, 0), BuildingBlock: CIFDUS_clean_linker_0, # of connection points: 2
#     Edge 49, Type (0, 0), BuildingBlock: CIFDUS_clean_linker_0, # of connection points: 2
#     Edge 50, Type (0, 0), BuildingBlock: CIFDUS_clean_linker_0, # of connection points: 2
#     Edge 51, Type (0, 0), BuildingBlock: CIFDUS_clean_linker_0, # of connection points: 2
#     Edge 52, Type (0, 0), BuildingBlock: CIFDUS_clean_linker_0, # of connection points: 2
#     Edge 53, Type (0, 0), BuildingBlock: CIFDUS_clean_linker_0, # of connection points: 2
#     Edge 54, Type (0, 0), BuildingBlock: CIFDUS_clean_linker_0, # of connection points: 2
#     Edge 55, Type (0, 0), BuildingBlock: CIFDUS_clean_linker_0, # of connection points: 2
#     Edge 56, Type (0, 0), BuildingBlock: CIFDUS_clean_linker_0, # of connection points: 2
#     Edge 57, Type (0, 0), BuildingBlock: CIFDUS_clean_linker_0, # of connection points: 2
#     Edge 58, Type (0, 0), BuildingBlock: CIFDUS_clean_linker_0, # of connection points: 2
#     Edge 59, Type (0, 0), BuildingBlock: CIFDUS_clean_linker_0, # of connection points: 2
#     Edge 60, Type (0, 0), BuildingBlock: CIFDUS_clean_linker_0, # of connection points: 2
#     Edge 61, Type (0, 0), BuildingBlock: CIFDUS_clean_linker_0, # of connection points: 2
#     Edge 62, Type (0, 0), BuildingBlock: CIFDUS_clean_linker_0, # of connection points: 2
#     Edge 63, Type (0, 0), BuildingBlock: CIFDUS_clean_linker_0, # of connection points: 2
#     Edge 64, Type (0, 0), BuildingBlock: CIFDUS_clean_linker_0, # of connection points: 2
#     Edge 65, Type (0, 0), BuildingBlock: CIFDUS_clean_linker_0, # of connection points: 2
#     Edge 66, Type (0, 0), BuildingBlock: CIFDUS_clean_linker_0, # of connection points: 2
#     Edge 67, Type (0, 0), BuildingBlock: CIFDUS_clean_linker_0, # of connection points: 2
#     Edge 68, Type (0, 0), BuildingBlock: CIFDUS_clean_linker_0, # of connection points: 2
#     Edge 69, Type (0, 0), BuildingBlock: CIFDUS_clean_linker_0, # of connection points: 2
#     Edge 70, Type (0, 0), BuildingBlock: CIFDUS_clean_linker_0, # of connection points: 2
#     Edge 71, Type (0, 0), BuildingBlock: CIFDUS_clean_linker_0, # of connection points: 2
# Relax obj value: 0.233
# Max RMSD: 0.256
# Mean RMSD: 0.256
data_MOF--net-vcl--node1-NUHQUE_clean_sbu_2--edge1-CIFDUS_clean_linker_0
_symmetry_space_group_name_H-M    P1
_symmetry_Int_Tables_number       1
_symmetry_cell_setting            triclinic
loop_
_symmetry_equiv_pos_as_xyz
'x, y, z'
_cell_length_a     55.914878
_cell_length_b     43.064434
_cell_length_c     28.625262
_cell_angle_alpha  90.072128
_cell_angle_beta   89.791044
_cell_angle_gamma 89.883044
loop_
_atom_site_label
_atom_site_type_symbol
_atom_site_fract_x
_atom_site_fract_y
_atom_site_fract_z
_atom_type_partial_charge
O0 O 0.34421 1.0197 0.06778 0.0
Tb1 Tb 0.32828 0.06621 0.06568 0.0
Eu2 Eu 0.28036 0.12257 0.03301 0.0
C3 C 0.33645 0.99889 0.09813 0.0
O4 O 0.31696 1.00494 0.12215 0.0
C5 C 0.27956 0.07226 0.11289 0.0
O6 O 0.25831 0.16711 0.03309 0.0
C7 C 0.265 0.08493 0.96817 0.0
C8 C 0.26869 0.19459 1.02996 0.0
O9 O 0.29213 0.19583 1.02742 0.0
C10 C 0.33305 0.11876 0.99411 0.0
C11 C 0.24356 0.08302 0.93878 0.0
C12 C 0.24276 0.06269 0.90029 0.0
C13 C 0.22251 0.06204 0.8711 0.0
C14 C 0.20301 0.0815 0.88186 0.0
C15 C 0.20379 0.10209 0.91992 0.0
C16 C 0.22413 0.10264 0.94827 0.0
O17 O 0.29149 0.055 0.0829 0.0
O18 O 0.27725 0.10235 0.10583 0.0
O19 O 0.35708 0.07013 0.11634 0.0
O20 O 0.3322 0.10704 0.11101 0.0
C21 C 0.35137 0.09737 0.13221 0.0
O22 O 0.31923 0.13428 1.02327 0.0
O23 O 0.33647 0.08858 0.99922 0.0
O24 O 0.26147 0.08044 1.01292 0.0
O25 O 0.27915 0.10853 0.9598 0.0
H26 H 0.25812 0.0482 0.89233 0.0
H27 H 0.18741 0.08136 0.85952 0.0
H28 H 0.225 0.1186 0.97757 0.0
O29 O 0.64201 0.04256 0.09857 0.0
Tb30 Tb 0.65963 0.9971 0.09533 0.0
Eu31 Eu 0.7057 0.94322 0.05347 0.0
C32 C 0.64894 0.06403 0.12866 0.0
O33 O 0.6688 0.05965 0.1521 0.0
C34 C 0.70876 0.98936 0.14037 0.0
O35 O 0.72752 0.89863 0.04761 0.0
C36 C 0.71852 0.98251 0.98849 0.0
C37 C 0.71722 0.87144 0.05496 0.0
O38 O 0.69443 0.87094 0.06618 0.0
C39 C 0.65151 0.94571 1.02341 0.0
C40 C 0.73869 0.98428 0.95521 0.0
C41 C 0.73642 0.9998 0.91199 0.0
C42 C 0.75508 0.99834 0.8788 0.0
C43 C 0.77597 0.98177 0.88959 0.0
C44 C 0.77837 0.96621 0.93237 0.0
C45 C 0.75971 0.96775 0.96505 0.0
O46 O 0.69604 1.00877 0.1151 0.0
O47 O 0.7107 0.95995 0.12798 0.0
O48 O 0.63193 0.99131 0.14829 0.0
O49 O 0.65553 0.9539 0.13514 0.0
C50 C 0.637 0.96284 0.15926 0.0
O51 O 0.66711 0.9295 0.04749 0.0
O52 O 0.64995 0.97615 1.02843 0.0
O53 O 0.72391 0.98584 0.03281 0.0
O54 O 0.7036 0.95958 0.98143 0.0
H55 H 0.71993 1.01177 0.90352 0.0
H56 H 0.78994 0.97971 0.86338 0.0
H57 H 0.76122 0.95522 0.99776 0.0
O58 O 0.89668 0.27537 0.35173 0.0
Tb59 Tb 0.9078 0.32189 0.32856 0.0
Eu60 Eu 0.95499 0.37572 0.28751 0.0
C61 C 0.89934 0.27031 0.39698 0.0
O62 O 0.90824 0.29311 0.42199 0.0
C63 C 0.95584 0.33258 0.37617 0.0
O64 O 0.97693 0.41984 0.28099 0.0
C65 C 0.96972 0.33353 0.2286 0.0
C66 C 0.96616 0.44706 0.27803 0.0
O67 O 0.94267 0.44789 0.27818 0.0
C68 C 0.90219 0.36974 0.24995 0.0
C69 C 0.99005 0.32833 0.1967 0.0
C70 C 0.98606 0.31496 0.15255 0.0
C71 C 0.00493 0.31221 0.1204 0.0
C72 C 0.0278 0.3224 0.13278 0.0
C73 C 0.03211 0.33575 0.17673 0.0
C74 C 0.01309 0.33856 0.20865 0.0
O75 O 0.94462 0.313 0.34871 0.0
O76 O 0.95825 0.36174 0.36333 0.0
O77 O 0.87605 0.33437 0.36803 0.0
O78 O 0.906 0.36471 0.36983 0.0
C79 C 0.88417 0.3604 0.38442 0.0
O80 O 0.91618 0.38715 0.27599 0.0
O81 O 0.89988 0.3396 0.25851 0.0
O82 O 0.97425 0.33268 0.27351 0.0
O83 O 0.95518 0.35617 0.2172 0.0
H84 H 0.96821 0.30779 0.14262 0.0
H85 H 0.042 0.32135 0.1069 0.0
H86 H 0.01607 0.34943 0.24229 0.0
O87 O 0.09383 0.8026 0.34455 0.0
Tb88 Tb 0.08816 0.75274 0.3331 0.0
Eu89 Eu 0.02967 0.69236 0.27017 0.0
C90 C 0.11579 0.81362 0.34741 0.0
O91 O 0.13368 0.79527 0.33602 0.0
C92 C 0.03424 0.73643 0.35161 0.0
O93 O 0.00957 0.6466 0.27183 0.0
C94 C 0.01759 0.72487 0.1971 0.0
C95 C 0.02079 0.61963 0.27335 0.0
O96 O 0.04426 0.61931 0.27501 0.0
C97 C 0.08631 0.70258 0.25438 0.0
C98 C -0.00333 0.72726 0.16594 0.0
C99 C -0.001 0.74006 0.12076 0.0
C100 C 0.97912 0.74124 0.09078 0.0
C101 C 0.95697 0.73034 0.10673 0.0
C102 C 0.95432 0.71771 0.15158 0.0
C103 C 0.97433 0.71604 0.18096 0.0
O104 O 0.05105 0.74216 0.32076 0.0
O105 O 0.01874 0.7154 0.33852 0.0
O106 O 0.12118 0.73593 0.36316 0.0
O107 O 0.08826 0.72426 0.39674 0.0
C108 C 0.1115 0.72171 0.39838 0.0
O109 O 0.07002 0.69017 0.28234 0.0
O110 O 0.09703 0.72881 0.26739 0.0
O111 O 0.01419 0.73421 0.24033 0.0
O112 O 0.03004 0.69898 0.19449 0.0
H113 H 0.01626 0.74821 0.1086 0.0
H114 H 0.94183 0.73065 0.08311 0.0
H115 H 0.97258 0.70584 0.21541 0.0
O116 O 0.33764 0.52187 0.57427 0.0
Tb117 Tb 0.32269 0.56871 0.56881 0.0
Eu118 Eu 0.27899 0.6226 0.52928 0.0
C119 C 0.32988 0.50309 0.60747 0.0
O120 O 0.31111 0.51142 0.63214 0.0
C121 C 0.2748 0.57978 0.61877 0.0
O122 O 0.25724 0.66693 0.527 0.0
C123 C 0.26409 0.58319 0.46644 0.0
C124 C 0.26828 0.69305 0.51661 0.0
O125 O 0.2912 0.69198 0.50652 0.0
C126 C 0.33201 0.61828 0.49334 0.0
C127 C 0.24186 0.57775 0.44032 0.0
C128 C 0.2427 0.56375 0.39584 0.0
C129 C 0.22203 0.5625 0.36813 0.0
C130 C 0.20052 0.5747 0.38564 0.0
C131 C 0.19947 0.58888 0.42981 0.0
C132 C 0.22022 0.59003 0.45717 0.0
O133 O 0.28647 0.55922 0.5934 0.0
O134 O 0.27348 0.60882 0.6048 0.0
O135 O 0.35115 0.57238 0.62004 0.0
O136 O 0.32918 0.61163 0.60797 0.0
C137 C 0.34739 0.60113 0.63138 0.0
O138 O 0.31737 0.63566 0.51804 0.0
O139 O 0.33317 0.58796 0.50068 0.0
O140 O 0.26344 0.57767 0.51149 0.0
O141 O 0.27516 0.60915 0.45635 0.0
H142 H 0.25959 0.55545 0.38185 0.0
H143 H 0.18492 0.57501 0.36323 0.0
H144 H 0.21982 0.60184 0.49065 0.0
O145 O 0.64054 0.54394 0.59484 0.0
Tb146 Tb 0.65451 0.49679 0.58459 0.0
Eu147 Eu 0.69866 0.44228 0.54445 0.0
C148 C 0.64747 0.55949 0.63217 0.0
O149 O 0.66278 0.54648 0.66073 0.0
C150 C 0.70287 0.48713 0.63219 0.0
O151 O 0.71767 0.39563 0.53929 0.0
C152 C 0.71271 0.48234 0.48139 0.0
C153 C 0.70745 0.3722 0.56134 0.0
O154 O 0.68785 0.37798 0.58532 0.0
C155 C 0.64541 0.44692 0.51016 0.0
C156 C 0.73265 0.48441 0.44785 0.0
C157 C 0.73149 0.50388 0.40827 0.0
C158 C 0.75012 0.50345 0.37489 0.0
C159 C 0.76992 0.48395 0.38222 0.0
C160 C 0.77117 0.46472 0.42167 0.0
C161 C 0.75249 0.4651 0.45422 0.0
O162 O 0.69099 0.50716 0.60638 0.0
O163 O 0.70395 0.45774 0.61944 0.0
O164 O 0.62536 0.48715 0.63293 0.0
O165 O 0.65311 0.45392 0.62535 0.0
C166 C 0.63295 0.46003 0.64611 0.0
O167 O 0.65998 0.42987 0.53534 0.0
O168 O 0.64423 0.47734 0.51671 0.0
O169 O 0.71854 0.48399 0.52568 0.0
O170 O 0.69727 0.46019 0.47319 0.0
H171 H 0.71594 0.51846 0.40276 0.0
H172 H 0.78414 0.48314 0.35636 0.0
H173 H 0.75321 0.44993 0.48442 0.0
O174 O 0.89331 0.77425 0.84244 0.0
Tb175 Tb 0.90452 0.81993 0.81626 0.0
Eu176 Eu 0.94882 0.87122 0.76359 0.0
C177 C 0.89918 0.76861 0.88632 0.0
O178 O 0.91117 0.79028 0.90848 0.0
C179 C 0.95631 0.82609 0.84951 0.0
O180 O 0.97047 0.91581 0.7616 0.0
C181 C 0.96232 0.83454 0.69556 0.0
C182 C 0.95958 0.94295 0.76523 0.0
O183 O 0.9362 0.94344 0.76988 0.0
C184 C 0.89403 0.86673 0.73825 0.0
C185 C 0.98533 0.83036 0.67124 0.0
C186 C 0.98772 0.81136 0.63136 0.0
C187 C 0.00941 0.81082 0.60562 0.0
C188 C 0.02844 0.82974 0.62097 0.0
C189 C 0.02576 0.84937 0.65993 0.0
C190 C 0.00448 0.84874 0.68552 0.0
O191 O 0.94196 0.8077 0.82601 0.0
O192 O 0.95919 0.85506 0.83604 0.0
O193 O 0.87706 0.83431 0.86554 0.0
O194 O 0.90737 0.86336 0.85597 0.0
C195 C 0.88709 0.86018 0.878 0.0
O196 O 0.90989 0.88378 0.76021 0.0
O197 O 0.89146 0.83692 0.7487 0.0
O198 O 0.96179 0.82598 0.73953 0.0
O199 O 0.95237 0.86182 0.68918 0.0
H200 H 0.97245 0.79812 0.61947 0.0
H201 H 0.04508 0.83029 0.60152 0.0
H202 H 0.00229 0.86398 0.71548 0.0
O203 O 0.08252 0.29012 0.83155 0.0
Tb204 Tb 0.06695 0.24376 0.82338 0.0
Eu205 Eu 0.02443 0.18726 0.78591 0.0
C206 C 0.07532 0.30916 0.86504 0.0
O207 O 0.05664 0.30158 0.8904 0.0
C208 C 0.01921 0.2325 0.8737 0.0
O209 O 0.00294 0.14256 0.78331 0.0
C210 C 0.0099 0.2261 0.722 0.0
C211 C 0.01364 0.11581 0.77455 0.0
O212 O 0.03687 0.11564 0.76748 0.0
C213 C 0.07578 0.19554 0.74814 0.0
C214 C 0.98817 0.23278 0.69509 0.0
C215 C 0.99003 0.24728 0.65117 0.0
C216 C 0.96973 0.25043 0.62282 0.0
C217 C 0.9476 0.23974 0.63913 0.0
C218 C 0.94554 0.2251 0.68273 0.0
C219 C 0.96593 0.22179 0.71071 0.0
O220 O 0.03093 0.25315 0.84864 0.0
O221 O 0.01823 0.20317 0.86042 0.0
O222 O 0.09795 0.2339 0.86694 0.0
O223 O 0.07019 0.20066 0.86356 0.0
C224 C 0.09103 0.20677 0.88122 0.0
O225 O 0.06347 0.17713 0.77562 0.0
O226 O 0.07406 0.22593 0.75312 0.0
O227 O 0.00914 0.23214 0.76689 0.0
O228 O 0.02024 0.19947 0.71264 0.0
H229 H 0.00735 0.25458 0.63813 0.0
H230 H 0.93221 0.24101 0.61622 0.0
H231 H 0.96469 0.20957 0.74373 0.0
O232 O 0.83456 1.02688 0.58293 0.0
Tb233 Tb 0.82122 0.07492 0.584 0.0
Eu234 Eu 0.77877 0.13545 0.55418 0.0
C235 C 0.82758 1.00661 0.61491 0.0
O236 O 0.81035 1.0145 0.64385 0.0
C237 C 0.77465 0.08706 0.63806 0.0
O238 O 0.76024 0.18251 0.5511 0.0
C239 C 0.76379 0.09749 0.48925 0.0
C240 C 0.77052 0.20514 0.52728 0.0
O241 O 0.79041 0.1989 0.5045 0.0
C242 C 0.83126 0.12933 0.51793 0.0
C243 C 0.74392 0.09385 0.45583 0.0
C244 C 0.74805 0.07962 0.41208 0.0
C245 C 0.72926 0.07649 0.37992 0.0
C246 C 0.7064 0.08707 0.39205 0.0
C247 C 0.70198 0.10129 0.43533 0.0
C248 C 0.72088 0.10481 0.46705 0.0
O249 O 0.78491 0.06707 0.60933 0.0
O250 O 0.77425 0.11696 0.62787 0.0
O251 O 0.85144 0.07667 0.63191 0.0
O252 O 0.82709 0.11433 0.63099 0.0
C253 C 0.84648 0.10358 0.64995 0.0
O254 O 0.8181 0.1454 0.54736 0.0
O255 O 0.83026 0.09862 0.5181 0.0
O256 O 0.75847 0.0946 0.53369 0.0
O257 O 0.77882 0.1202 0.48123 0.0
H258 H 0.76584 0.07166 0.40274 0.0
H259 H 0.69215 0.08535 0.36655 0.0
H260 H 0.71769 0.11623 0.50028 0.0
O261 O 0.153 0.04853 0.59867 0.0
Tb262 Tb 0.15666 0.9993 0.58259 0.0
Eu263 Eu 0.21892 0.94253 0.53669 0.0
C264 C 0.13297 0.06417 0.59299 0.0
O265 O 0.11524 0.05137 0.56999 0.0
C266 C 0.20788 0.98417 0.61831 0.0
O267 O 0.23624 0.89541 0.52804 0.0
C268 C 0.23498 0.98369 0.47824 0.0
C269 C 0.22373 0.86971 0.53309 0.0
O270 O 0.20095 0.87178 0.54407 0.0
C271 C 0.16418 0.95122 0.50793 0.0
C272 C 0.25408 0.98723 0.44328 0.0
C273 C 0.25011 1.00563 0.40359 0.0
C274 C 0.26801 1.00855 0.36953 0.0
C275 C 0.28996 0.99334 0.37554 0.0
C276 C 0.29437 0.97528 0.41544 0.0
C277 C 0.27622 0.97228 0.44918 0.0
O278 O 0.19519 0.99353 0.5824 0.0
O279 O 0.22268 0.96113 0.61007 0.0
O280 O 0.12295 0.9862 0.61452 0.0
O281 O 0.15494 0.96452 0.63816 0.0
C282 C 0.13177 0.96566 0.64294 0.0
O283 O 0.17851 0.9425 0.54194 0.0
O284 O 0.15065 0.97593 0.51567 0.0
O285 O 0.24191 0.98177 0.52196 0.0
O286 O 0.21766 0.96431 0.46785 0.0
H287 H 0.23302 1.01713 0.39878 0.0
H288 H 0.30339 0.99505 0.34824 0.0
H289 H 0.27926 0.9583 0.48006 0.0
O290 O 0.38315 0.27998 0.83295 0.0
Tb291 Tb 0.4011 0.32487 0.83583 0.0
Eu292 Eu 0.44661 0.37805 0.80754 0.0
C293 C 0.39314 0.25437 0.84899 0.0
O294 O 0.41598 0.25446 0.85933 0.0
C295 C 0.44803 0.32902 0.88848 0.0
O296 O 0.46724 0.42353 0.80371 0.0
C297 C 0.46214 0.33816 0.74534 0.0
C298 C 0.46065 0.44441 0.77257 0.0
O299 O 0.44361 0.43696 0.74321 0.0
C300 C 0.39454 0.37677 0.76396 0.0
C301 C 0.48154 0.33727 0.71052 0.0
C302 C 0.48013 0.31825 0.67052 0.0
C303 C 0.49906 0.31773 0.63779 0.0
C304 C 0.51913 0.33662 0.64555 0.0
C305 C 0.52023 0.35628 0.68465 0.0
C306 C 0.50146 0.35631 0.717 0.0
O307 O 0.43668 0.31163 0.85814 0.0
O308 O 0.44889 0.35928 0.88184 0.0
O309 O 0.37334 0.32841 0.88924 0.0
O310 O 0.39543 0.36736 0.87679 0.0
C311 C 0.37748 0.35697 0.90116 0.0
O312 O 0.40898 0.39328 0.79044 0.0
O313 O 0.39291 0.34639 0.76897 0.0
O314 O 0.46893 0.33836 0.78911 0.0
O315 O 0.44498 0.35811 0.7373 0.0
H316 H 0.46447 0.30395 0.66497 0.0
H317 H 0.53337 0.33726 0.61974 0.0
H318 H 0.50229 0.37143 0.7473 0.0
O319 O 0.59131 0.79386 0.85327 0.0
Tb320 Tb 0.58546 0.74402 0.84487 0.0
Eu321 Eu 0.52563 0.68398 0.78533 0.0
C322 C 0.59299 0.80457 0.89635 0.0
O323 O 0.58995 0.78508 0.93113 0.0
C324 C 0.53155 0.72944 0.86611 0.0
O325 O 0.51015 0.63521 0.78229 0.0
C326 C 0.5141 0.72044 0.71626 0.0
C327 C 0.52037 0.61298 0.80693 0.0
O328 O 0.53884 0.62023 0.833 0.0
C329 C 0.58186 0.69362 0.77142 0.0
C330 C 0.49634 0.72336 0.67855 0.0
C331 C 0.5015 0.74088 0.63815 0.0
C332 C 0.48416 0.74425 0.60298 0.0
C333 C 0.46165 0.73054 0.609 0.0
C334 C 0.45607 0.71374 0.64957 0.0
C335 C 0.47365 0.70996 0.68396 0.0
O336 O 0.54731 0.73729 0.83408 0.0
O337 O 0.51679 0.70694 0.85475 0.0
O338 O 0.61835 0.73348 0.88119 0.0
O339 O 0.58587 0.71375 0.90664 0.0
C340 C 0.60891 0.71592 0.9131 0.0
O341 O 0.56513 0.68606 0.80175 0.0
O342 O 0.59532 0.71791 0.7818 0.0
O343 O 0.50567 0.72336 0.75897 0.0
O344 O 0.53013 0.69818 0.71233 0.0
H345 H 0.51887 0.75169 0.63402 0.0
H346 H 0.44842 0.73295 0.58163 0.0
H347 H 0.46955 0.69708 0.7155 0.0
O348 O 0.84393 0.52359 0.07722 0.0
Tb349 Tb 0.8274 0.56993 0.07594 0.0
Eu350 Eu 0.78316 0.62639 0.04715 0.0
C351 C 0.83649 0.50237 0.10736 0.0
O352 O 0.81711 0.50797 0.13194 0.0
C353 C 0.77771 0.57312 0.12363 0.0
O354 O 0.76147 0.67097 0.05473 0.0
C355 C 0.76961 0.59503 0.97338 0.0
C356 C 0.77118 0.69794 0.04345 0.0
O357 O 0.79336 0.6982 1.02816 0.0
C358 C 0.83569 0.62494 1.01076 0.0
C359 C 0.74748 0.58655 0.94859 0.0
C360 C 0.74866 0.57237 0.90417 0.0
C361 C 0.72768 0.56771 0.87807 0.0
C362 C 0.70567 0.57728 0.89677 0.0
C363 C 0.70425 0.59182 0.94072 0.0
C364 C 0.72527 0.59581 0.96681 0.0
O365 O 0.79113 0.55652 0.09504 0.0
O366 O 0.7748 0.60321 0.11677 0.0
O367 O 0.85653 0.57358 0.12587 0.0
O368 O 0.83102 0.60982 0.12325 0.0
C369 C 0.85061 0.60035 0.14318 0.0
O370 O 0.82183 0.63984 0.04039 0.0
O371 O 0.83606 0.59422 1.01054 0.0
O372 O 0.77308 0.58238 1.01443 0.0
O373 O 0.77506 0.62463 0.97285 0.0
H374 H 0.76587 0.56628 0.88914 0.0
H375 H 0.6898 0.57533 0.87529 0.0
H376 H 0.72455 0.60757 1.00031 0.0
O377 O 0.13283 0.53594 0.0893 0.0
Tb378 Tb 0.15158 0.49112 0.08261 0.0
Eu379 Eu 0.19788 0.43745 0.03271 0.0
C380 C 0.14243 0.55968 0.11177 0.0
O381 O 0.16492 0.55789 0.12435 0.0
C382 C 0.20234 0.48316 0.1204 0.0
O383 O 0.22069 0.39355 0.03093 0.0
C384 C 0.21023 0.47504 0.96524 0.0
C385 C 0.2105 0.36591 1.02874 0.0
O386 O 0.18705 0.36441 1.02743 0.0
C387 C 0.14294 0.44101 1.00648 0.0
C388 C 0.23167 0.48204 0.93701 0.0
C389 C 0.22933 0.49628 0.8929 0.0
C390 C 0.24953 0.50051 0.86421 0.0
C391 C 0.27195 0.49061 0.87998 0.0
C392 C 0.27454 0.47599 0.92351 0.0
C393 C 0.25428 0.47201 0.95207 0.0
O394 O 0.18883 0.50239 0.09631 0.0
O395 O 0.20549 0.45428 0.10623 0.0
O396 O 0.12793 0.48503 0.14256 0.0
O397 O 0.14896 0.44695 0.12025 0.0
C398 C 0.13292 0.45608 0.15031 0.0
O399 O 0.15907 0.42428 1.02845 0.0
O400 O 0.1398 0.47084 1.01623 0.0
O401 O 0.21089 0.48271 1.00963 0.0
O402 O 0.20082 0.44755 0.95836 0.0
H403 H 0.21181 0.50298 0.88029 0.0
H404 H 0.28721 0.49258 0.85666 0.0
H405 H 0.25594 0.46019 0.98533 0.0
O406 O 0.3934 0.76974 0.3194 0.0
Tb407 Tb 0.41155 0.81479 0.31384 0.0
Eu408 Eu 0.45526 0.87034 0.28031 0.0
C409 C 0.4008 0.74854 0.34956 0.0
O410 O 0.42089 0.75331 0.37201 0.0
C411 C 0.46245 0.81592 0.35383 0.0
O412 O 0.47433 0.91637 0.29318 0.0
C413 C 0.47221 0.84228 0.20629 0.0
C414 C 0.46433 0.94296 0.2806 0.0
O415 O 0.4432 0.94226 0.26072 0.0
C416 C 0.40228 0.8669 0.24218 0.0
C417 C 0.49464 0.83055 0.18541 0.0
C418 C 0.49374 0.81106 0.14593 0.0
C419 C 0.51467 0.8044 0.12034 0.0
C420 C 0.53646 0.81718 0.13502 0.0
C421 C 0.53776 0.83639 0.17476 0.0
C422 C 0.51671 0.8423 0.2004 0.0
O423 O 0.44819 0.8001 0.32618 0.0
O424 O 0.46503 0.84616 0.34828 0.0
O425 O 0.38604 0.82093 0.37068 0.0
O426 O 0.41043 0.85719 0.35635 0.0
C427 C 0.39255 0.8487 0.38259 0.0
O428 O 0.41691 0.88361 0.26782 0.0
O429 O 0.40043 0.83652 0.24824 0.0
O430 O 0.46328 0.82729 0.2422 0.0
O431 O 0.47061 0.87255 0.21075 0.0
H432 H 0.47665 0.80256 0.1336 0.0
H433 H 0.55228 0.81319 0.11386 0.0
H434 H 0.51718 0.85732 0.23078 0.0
O435 O 0.58521 0.29215 0.34283 0.0
Tb436 Tb 0.56966 0.2454 0.34198 0.0
Eu437 Eu 0.52189 0.19103 0.30487 0.0
C438 C 0.57744 0.31357 0.37247 0.0
O439 O 0.55782 0.30819 0.39646 0.0
C440 C 0.5232 0.23416 0.39388 0.0
O441 O 0.50136 0.14571 0.29571 0.0
C442 C 0.50568 0.23426 0.2491 0.0
C443 C 0.5119 0.11888 0.30488 0.0
O444 O 0.53404 0.11922 0.32005 0.0
C445 C 0.5758 0.19419 0.26615 0.0
C446 C 0.4868 0.23782 0.21335 0.0
C447 C 0.49021 0.25766 0.17457 0.0
C448 C 0.47232 0.26037 0.14025 0.0
C449 C 0.45097 0.24378 0.14564 0.0
C450 C 0.4472 0.22427 0.18414 0.0
C451 C 0.4653 0.22114 0.21764 0.0
O452 O 0.53334 0.25425 0.36571 0.0
O453 O 0.52198 0.20479 0.38139 0.0
O454 O 0.59785 0.243 0.39422 0.0
O455 O 0.57746 0.20265 0.38073 0.0
C456 C 0.59504 0.21401 0.40499 0.0
O457 O 0.56001 0.17725 0.28899 0.0
O458 O 0.57828 0.22436 0.27417 0.0
O459 O 0.49838 0.23049 0.29236 0.0
O460 O 0.52369 0.21602 0.23836 0.0
H461 H 0.50682 0.27034 0.17065 0.0
H462 H 0.4374 0.24553 0.11878 0.0
H463 H 0.46263 0.20576 0.24715 0.0
H464 H 0.41573 0.91112 0.18116 0.0
H465 H 0.35383 0.86152 0.23063 0.0
H466 H 0.32766 0.89684 0.18678 0.0
H467 H 0.32252 0.94532 0.14119 0.0
H468 H 0.38487 0.99317 0.08919 0.0
H469 H 0.41076 0.95481 0.12651 0.0
C470 C 0.39651 0.90771 0.18153 0.0
C471 C 0.38665 0.88389 0.20918 0.0
C472 C 0.38171 0.92791 0.15597 0.0
C473 C 0.36179 0.87954 0.20931 0.0
C474 C 0.34686 0.89989 0.18453 0.0
C475 C 0.34177 0.94698 0.13725 0.0
C476 C 0.35172 0.97228 0.11264 0.0
C477 C 0.3566 0.92466 0.15869 0.0
C478 C 0.3767 0.97396 0.10766 0.0
C479 C 0.39154 0.95212 0.12934 0.0
H480 H 0.56514 0.14808 0.2058 0.0
H481 H 0.62434 0.20165 0.25789 0.0
H482 H 0.6525 0.16714 0.217 0.0
H483 H 0.6602 0.11851 0.1727 0.0
H484 H 0.60052 0.06678 0.11788 0.0
H485 H 0.57269 0.10393 0.15293 0.0
C486 C 0.58422 0.15252 0.20745 0.0
C487 C 0.59268 0.1773 0.23496 0.0
C488 C 0.60021 0.13276 0.18355 0.0
C489 C 0.61739 0.18291 0.23666 0.0
C490 C 0.63348 0.163 0.21357 0.0
C491 C 0.64111 0.11568 0.16774 0.0
C492 C 0.6325 0.08966 0.1429 0.0
C493 C 0.62511 0.13739 0.1878 0.0
C494 C 0.6077 0.08653 0.13658 0.0
C495 C 0.59173 0.1077 0.15693 0.0
H496 H 0.87281 0.21987 0.36427 0.0
H497 H 0.90873 0.2553 0.48663 0.0
H498 H 0.89313 0.21301 0.5331 0.0
H499 H 0.86588 0.1691 0.54219 0.0
H500 H 0.83023 0.13124 0.42211 0.0
H501 H 0.84916 0.17061 0.37191 0.0
C502 C 0.87746 0.21805 0.40089 0.0
C503 C 0.89163 0.24138 0.42177 0.0
C504 C 0.86838 0.19311 0.42815 0.0
C505 C 0.89758 0.23827 0.46938 0.0
C506 C 0.88868 0.21392 0.49629 0.0
C507 C 0.86283 0.16893 0.50476 0.0
C508 C 0.84696 0.1471 0.48577 0.0
C509 C 0.8736 0.19168 0.47644 0.0
C510 C 0.84281 0.14741 0.43737 0.0
C511 C 0.85341 0.17021 0.4088 0.0
H512 H 0.12134 0.93847 0.46545 0.0
H513 H 0.19579 0.91222 0.4661 0.0
H514 H 0.18765 0.86972 0.41253 0.0
H515 H 0.15914 0.83682 0.37152 0.0
H516 H 0.08387 0.85881 0.37593 0.0
H517 H 0.09249 0.90594 0.42099 0.0
C518 C 0.13583 0.92391 0.45285 0.0
C519 C 0.1593 0.92902 0.46922 0.0
C520 C 0.13079 0.89835 0.42335 0.0
C521 C 0.17772 0.90931 0.45359 0.0
C522 C 0.17302 0.88473 0.42315 0.0
C523 C 0.14456 0.85207 0.38166 0.0
C524 C 0.12085 0.84415 0.37011 0.0
C525 C 0.14958 0.87857 0.40868 0.0
C526 C 0.10228 0.86426 0.38412 0.0
C527 C 0.10722 0.89122 0.41006 0.0
H528 H 0.31533 0.4544 0.66081 0.0
H529 H 0.37762 0.49273 0.5929 0.0
H530 H 0.4031 0.45519 0.63321 0.0
H531 H 0.40805 0.41503 0.69399 0.0
H532 H 0.34592 0.37596 0.7607 0.0
H533 H 0.31989 0.40991 0.71434 0.0
C534 C 0.33444 0.45416 0.65414 0.0
C535 C 0.34456 0.47654 0.6241 0.0
C536 C 0.349 0.43253 0.67759 0.0
C537 C 0.36933 0.47575 0.61562 0.0
C538 C 0.38395 0.45442 0.63899 0.0
C539 C 0.3888 0.41385 0.69796 0.0
C540 C 0.37884 0.3934 0.73096 0.0
C541 C 0.37405 0.43332 0.67102 0.0
C542 C 0.35389 0.39149 0.73533 0.0
C543 C 0.33907 0.41101 0.70903 0.0
H544 H 0.62521 0.68757 0.72802 0.0
H545 H 0.55479 0.64714 0.73414 0.0
H546 H 0.56792 0.60444 0.68422 0.0
H547 H 0.60083 0.57474 0.64717 0.0
H548 H 0.67222 0.61191 0.64997 0.0
H549 H 0.65749 0.65949 0.68717 0.0
C550 C 0.61258 0.66985 0.71746 0.0
C551 C 0.58892 0.67092 0.73449 0.0
C552 C 0.62059 0.64441 0.69043 0.0
C553 C 0.57299 0.64726 0.7212 0.0
C554 C 0.58055 0.6226 0.69283 0.0
C555 C 0.61295 0.59373 0.65466 0.0
C556 C 0.63748 0.59019 0.64505 0.0
C557 C 0.60449 0.62042 0.67829 0.0
C558 C 0.6532 0.61442 0.6564 0.0
C559 C 0.6448 0.64152 0.678 0.0
H560 H 0.86654 0.66944 0.03572 0.0
H561 H 0.83685 0.62447 0.9149 0.0
H562 H 0.85434 0.66458 0.86405 0.0
H563 H 0.87523 0.71575 0.85539 0.0
H564 H 0.90589 0.75794 0.97844 0.0
H565 H 0.89113 0.71585 1.02637 0.0
C566 C 0.86444 0.66801 0.99808 0.0
C567 C 0.85065 0.64396 0.97898 0.0
C568 C 0.87446 0.69109 0.96938 0.0
C569 C 0.8478 0.64247 0.93028 0.0
C570 C 0.85756 0.66566 0.90132 0.0
C571 C 0.87881 0.71556 0.89257 0.0
C572 C 0.89133 0.74056 0.91304 0.0
C573 C 0.87046 0.69062 0.9206 0.0
C574 C 0.89607 0.7395 0.96137 0.0
C575 C 0.88765 0.71529 0.98913 0.0
H576 H 0.06161 0.36038 0.91502 0.0
H577 H 0.12298 0.3177 0.84922 0.0
H578 H 0.1491 0.35655 0.88445 0.0
H579 H 0.15503 0.39923 0.94052 0.0
H580 H 0.09397 0.44388 1.00376 0.0
H581 H 0.06714 0.408 0.96267 0.0
C582 C 0.08066 0.35993 0.90774 0.0
C583 C 0.09033 0.33593 0.87976 0.0
C584 C 0.09562 0.38261 0.92789 0.0
C585 C 0.11502 0.33585 0.87042 0.0
C586 C 0.13001 0.35799 0.89083 0.0
C587 C 0.13579 0.40149 0.94446 0.0
C588 C 0.12644 0.42408 0.97513 0.0
C589 C 0.12059 0.38097 0.92052 0.0
C590 C 0.10154 0.42688 0.97999 0.0
C591 C 0.08625 0.40618 0.95681 0.0
H592 H 0.81326 0.95489 0.66296 0.0
H593 H 0.87364 0.99364 0.58919 0.0
H594 H 0.89892 0.95112 0.61663 0.0
H595 H 0.90507 0.90674 0.66955 0.0
H596 H 0.84496 0.86672 0.74193 0.0
H597 H 0.81828 0.90549 0.70661 0.0
C598 C 0.83185 0.9537 0.65213 0.0
C599 C 0.84156 0.97773 0.6243 0.0
C600 C 0.84634 0.92896 0.66797 0.0
C601 C 0.86563 0.9756 0.6104 0.0
C602 C 0.88017 0.95132 0.62635 0.0
C603 C 0.88598 0.90594 0.67641 0.0
C604 C 0.87694 0.88377 0.70805 0.0
C605 C 0.87088 0.92839 0.65618 0.0
C606 C 0.85226 0.88316 0.7171 0.0
C607 C 0.83709 0.90561 0.69732 0.0
H608 H 0.09985 0.11008 0.57817 0.0
H609 H 0.15653 0.08229 0.67104 0.0
H610 H 0.14597 0.12393 0.72494 0.0
H611 H 0.11705 0.16359 0.7509 0.0
H612 H 0.06106 0.19292 0.65802 0.0
H613 H 0.07496 0.15584 0.59872 0.0
C614 C 0.11016 0.11357 0.60976 0.0
C615 C 0.12885 0.09288 0.62069 0.0
C616 C 0.10401 0.13783 0.64072 0.0
C617 C 0.14216 0.09788 0.6616 0.0
C618 C 0.13602 0.12162 0.69269 0.0
C619 C 0.10852 0.1626 0.71693 0.0
C620 C 0.08829 0.18104 0.70841 0.0
C621 C 0.11655 0.14114 0.68328 0.0
C622 C 0.07694 0.17924 0.66486 0.0
C623 C 0.08473 0.1578 0.63122 0.0
H624 H 0.40739 0.19667 0.8776 0.0
H625 H 0.34454 0.25347 0.85735 0.0
H626 H 0.32014 0.21491 0.89742 0.0
H627 H 0.31737 0.16811 0.94577 0.0
H628 H 0.37947 0.11021 0.96525 0.0
H629 H 0.40344 0.14595 0.9175 0.0
C630 C 0.38828 0.20035 0.8812 0.0
C631 C 0.37791 0.22818 0.86491 0.0
C632 C 0.37427 0.17802 0.9045 0.0
C633 C 0.35307 0.23239 0.86952 0.0
C634 C 0.33908 0.2104 0.89273 0.0
C635 C 0.3361 0.16312 0.93898 0.0
C636 C 0.34677 0.13685 0.95935 0.0
C637 C 0.34961 0.18364 0.91154 0.0
C638 C 0.3709 0.1303 0.94984 0.0
C639 C 0.3846 0.15083 0.9228 0.0
H640 H 0.58291 0.83774 0.97418 0.0
H641 H 0.62061 0.84333 0.84285 0.0
H642 H 0.63962 0.89177 0.86809 0.0
H643 H 0.65009 0.9278 0.93269 0.0
H644 H 0.61229 0.92134 0.06364 0.0
H645 H 0.58837 0.87836 0.0333 0.0
C646 C 0.59488 0.84993 0.95063 0.0
C647 C 0.60058 0.83679 0.90691 0.0
C648 C 0.60573 0.87763 0.96547 0.0
C649 C 0.61595 0.85296 0.87665 0.0
C650 C 0.62692 0.88057 0.89123 0.0
C651 C 0.63588 0.91777 0.95367 0.0
C652 C 0.63254 0.92798 0.99995 0.0
C653 C 0.62256 0.89256 0.93619 0.0
C654 C 0.61469 0.91426 1.02756 0.0
C655 C 0.60126 0.88944 1.0104 0.0
H656 H 0.82269 0.44791 0.14804 0.0
H657 H 0.88501 0.49705 0.0988 0.0
H658 H 0.91093 0.45829 0.13526 0.0
H659 H 0.91585 0.41403 0.18905 0.0
H660 H 0.85392 0.36342 0.23607 0.0
H661 H 0.82786 0.39882 0.1922 0.0
C662 C 0.84195 0.44977 0.14445 0.0
C663 C 0.85188 0.47557 0.12092 0.0
C664 C 0.85679 0.42722 0.16542 0.0
C665 C 0.87686 0.47748 0.11641 0.0
C666 C 0.89171 0.45539 0.13761 0.0
C667 C 0.89666 0.41033 0.18872 0.0
C668 C 0.88679 0.38616 0.21577 0.0
C669 C 0.88188 0.4307 0.1633 0.0
C670 C 0.86194 0.38159 0.21514 0.0
C671 C 0.84705 0.40205 0.19039 0.0
H672 H 0.0686 0.65127 0.20941 0.0
H673 H 0.13251 0.70648 0.22283 0.0
H674 H 0.15497 0.66828 0.17747 0.0
H675 H 0.15755 0.61686 0.13996 0.0
H676 H 0.09375 0.5618 0.12436 0.0
H677 H 0.07031 0.60206 0.16426 0.0
C678 C 0.08738 0.65508 0.20205 0.0
C679 C 0.0988 0.6817 0.22025 0.0
C680 C 0.10033 0.63284 0.17568 0.0
C681 C 0.12311 0.68639 0.2095 0.0
C682 C 0.13608 0.66437 0.18369 0.0
C683 C 0.13844 0.61382 0.14464 0.0
C684 C 0.12752 0.58613 0.12927 0.0
C685 C 0.12503 0.63717 0.1675 0.0
C686 C 0.10268 0.58282 0.13551 0.0
C687 C 0.08926 0.60582 0.15864 0.0
H688 H 0.31966 0.66261 0.43156 0.0
H689 H 0.38052 0.61143 0.48217 0.0
H690 H 0.40748 0.6462 0.43897 0.0
H691 H 0.41361 0.69465 0.39353 0.0
H692 H 0.35227 0.7443 0.34094 0.0
H693 H 0.32563 0.70651 0.37765 0.0
C694 C 0.33883 0.65869 0.43231 0.0
C695 C 0.34812 0.63451 0.46005 0.0
C696 C 0.3541 0.6787 0.4073 0.0
C697 C 0.37294 0.62963 0.46068 0.0
C698 C 0.38833 0.64972 0.43632 0.0
C699 C 0.39442 0.69689 0.3894 0.0
C700 C 0.38499 0.72253 0.3647 0.0
C701 C 0.37913 0.67484 0.41048 0.0
C702 C 0.36007 0.72487 0.35949 0.0
C703 C 0.34479 0.70333 0.38078 0.0
H704 H 0.65786 0.40256 0.4483 0.0
H705 H 0.59675 0.45269 0.50109 0.0
H706 H 0.56991 0.41689 0.45983 0.0
H707 H 0.56408 0.36772 0.41578 0.0
H708 H 0.62569 0.31931 0.36072 0.0
H709 H 0.65204 0.3582 0.39514 0.0
C710 C 0.63865 0.40606 0.44982 0.0
C711 C 0.62926 0.43023 0.47765 0.0
C712 C 0.62344 0.38549 0.42588 0.0
C713 C 0.60439 0.43452 0.47946 0.0
C714 C 0.58907 0.41384 0.45621 0.0
C715 C 0.58325 0.36601 0.41057 0.0
C716 C 0.59285 0.34036 0.3859 0.0
C717 C 0.59839 0.38871 0.43033 0.0
C718 C 0.61774 0.33871 0.37928 0.0
C719 C 0.63287 0.36088 0.39928 0.0
H720 H 0.19424 0.30609 1.02805 0.0
H721 H 0.25941 0.35964 1.02815 0.0
H722 H 0.28295 0.31168 1.02817 0.0
H723 H 0.28511 0.25443 1.02897 0.0
H724 H 0.21987 0.201 1.0289 0.0
H725 H 0.19639 0.24895 1.02802 0.0
C726 C 0.2136 0.30738 1.02806 0.0
C727 C 0.22496 0.33666 1.02825 0.0
C728 C 0.22706 0.27962 1.02818 0.0
C729 C 0.25011 0.33761 1.02818 0.0
C730 C 0.26361 0.31011 1.02817 0.0
C731 C 0.26575 0.25319 1.02878 0.0
C732 C 0.25435 0.22392 1.02923 0.0
C733 C 0.2523 0.28097 1.02833 0.0
C734 C 0.22921 0.22302 1.02885 0.0
C735 C 0.21573 0.25051 1.02828 0.0
H736 H 0.78764 0.75681 1.02806 0.0
H737 H 0.72411 0.70651 0.06808 0.0
H738 H 0.70203 0.75543 0.07487 0.0
H739 H 0.70073 0.81255 0.06988 0.0
H740 H 0.76427 0.86289 1.02996 0.0
H741 H 0.78629 0.81395 1.02274 0.0
C742 C 0.76895 0.75645 0.03829 0.0
C743 C 0.75763 0.72779 0.04766 0.0
C744 C 0.75634 0.78477 0.04222 0.0
C745 C 0.73338 0.72804 0.06083 0.0
C746 C 0.72071 0.75609 0.06469 0.0
C747 C 0.71941 0.81292 0.05961 0.0
C748 C 0.73077 0.8416 0.05058 0.0
C749 C 0.73201 0.7846 0.05557 0.0
C750 C 0.75501 0.84135 0.03726 0.0
C751 C 0.76764 0.8133 0.0331 0.0
H752 H 0.94873 0.50619 0.27339 0.0
H753 H 0.01492 0.45452 0.27783 0.0
H754 H 0.03754 0.50307 0.27641 0.0
H755 H 0.03856 0.56036 0.27521 0.0
H756 H 0.97223 0.61178 0.27046 0.0
H757 H 0.94975 0.56323 0.27068 0.0
C758 C 0.96812 0.50546 0.27399 0.0
C759 C 0.98004 0.47657 0.27591 0.0
C760 C 0.98103 0.53352 0.27325 0.0
C761 C 0.0052 0.47628 0.2765 0.0
C762 C 0.01817 0.5041 0.27572 0.0
C763 C 0.01918 0.56101 0.27425 0.0
C764 C 0.00717 0.58987 0.27309 0.0
C765 C 0.00629 0.53288 0.27435 0.0
C766 C 0.98203 0.59006 0.2716 0.0
C767 C 0.96911 0.56224 0.27169 0.0
H768 H 0.28776 0.75015 0.50405 0.0
H769 H 0.22073 0.70462 0.53396 0.0
H770 H 0.20093 0.7552 0.54071 0.0
H771 H 0.20299 0.81247 0.54043 0.0
H772 H 0.27036 0.85741 0.51099 0.0
H773 H 0.28963 0.8069 0.50184 0.0
C774 C 0.26878 0.75118 0.5119 0.0
C775 C 0.2558 0.72353 0.5187 0.0
C776 C 0.25758 0.7803 0.51607 0.0
C777 C 0.23121 0.72547 0.52875 0.0
C778 C 0.21987 0.75442 0.53266 0.0
C779 C 0.22189 0.81125 0.53197 0.0
C780 C 0.2352 0.83882 0.5267 0.0
C781 C 0.23294 0.78201 0.52682 0.0
C782 C 0.25965 0.83668 0.51549 0.0
C783 C 0.27072 0.80776 0.5102 0.0
H784 H 0.73181 0.22845 0.5752 0.0
H785 H 0.78807 0.25533 0.48004 0.0
H786 H 0.77407 0.30898 0.48199 0.0
H787 H 0.74592 0.34906 0.51136 0.0
H788 H 0.68981 0.32168 0.60667 0.0
H789 H 0.70364 0.26816 0.60392 0.0
C790 C 0.74096 0.24599 0.55473 0.0
C791 C 0.76099 0.23759 0.52756 0.0
C792 C 0.73287 0.27708 0.5561 0.0
C793 C 0.77259 0.26087 0.50136 0.0
C794 C 0.76462 0.29173 0.50245 0.0
C795 C 0.73676 0.3314 0.53158 0.0
C796 C 0.71684 0.3397 0.55923 0.0
C797 C 0.74481 0.30023 0.52987 0.0
C798 C 0.7052 0.31627 0.58504 0.0
C799 C 0.71308 0.28546 0.58352 0.0
H800 H 0.942 1.00181 0.77501 0.0
H801 H 0.00794 0.95124 0.75431 0.0
H802 H 0.03027 1.00002 0.75478 0.0
H803 H 0.03119 0.05706 0.76222 0.0
H804 H 0.96521 0.10753 0.78301 0.0
H805 H 0.94286 0.05881 0.78127 0.0
C806 C 0.96127 1.00137 0.77056 0.0
C807 C 0.97323 0.9727 0.7648 0.0
C808 C 0.97403 1.02957 0.77099 0.0
C809 C -0.00179 0.9728 0.75898 0.0
C810 C 0.01102 1.00076 0.75924 0.0
C811 C 0.01191 0.05748 0.76636 0.0
C812 C -4e-05 0.0861 0.77296 0.0
C813 C -0.00087 1.02928 0.76543 0.0
C814 C 0.97495 0.08599 0.77813 0.0
C815 C 0.96212 0.05807 0.77711 0.0
H816 H 0.48659 0.58708 0.74939 0.0
H817 H 0.53493 0.56472 0.86164 0.0
H818 H 0.52148 0.51092 0.86055 0.0
H819 H 0.49551 0.46975 0.82854 0.0
H820 H 0.44764 0.4921 0.71545 0.0
H821 H 0.4614 0.5457 0.71608 0.0
C822 C 0.49416 0.57047 0.77366 0.0
C823 C 0.51171 0.5802 0.80565 0.0
C824 C 0.48645 0.53924 0.77271 0.0
C825 C 0.52138 0.55811 0.83659 0.0
C826 C 0.5137 0.52718 0.83604 0.0
C827 C 0.48817 0.48629 0.80389 0.0
C828 C 0.47048 0.47665 0.77212 0.0
C829 C 0.4962 0.51741 0.80432 0.0
C830 C 0.46126 0.49861 0.74041 0.0
C831 C 0.46909 0.52945 0.74073 0.0
H832 H 0.4469 1.00122 0.26282 0.0
H833 H 0.50924 0.95367 0.31548 0.0
H834 H 0.52917 1.00354 0.32749 0.0
H835 H 0.52904 0.06067 0.32307 0.0
H836 H 0.46672 0.10837 0.27066 0.0
H837 H 0.44672 0.0585 0.25863 0.0
C838 C 0.46486 1.00167 0.27696 0.0
C839 C 0.47649 0.97347 0.28825 0.0
C840 C 0.47624 1.03056 0.28389 0.0
C841 C 0.49977 0.97479 0.30655 0.0
C842 C 0.51121 1.00339 0.31341 0.0
C843 C 0.51106 0.06027 0.30905 0.0
C844 C 0.49946 0.08849 0.29788 0.0
C845 C 0.49963 1.03142 0.30224 0.0
C846 C 0.47614 0.08723 0.27972 0.0
C847 C 0.46468 0.05863 0.27278 0.0
H848 H 0.26143 0.98486 0.28393 0.0
H849 H 0.26663 0.07134 0.35862 0.0
H850 H 0.26779 0.09999 0.28446 0.0
H851 H 0.27246 0.09928 0.19832 0.0
H852 H 0.26742 1.01199 0.12488 0.0
H853 H 0.26074 0.98479 0.19832 0.0
C854 C 0.26225 1.01004 0.28373 0.0
C855 C 0.26395 1.02615 0.32614 0.0
C856 C 0.26319 1.0261 0.24121 0.0
C857 C 0.26515 0.05868 0.32605 0.0
C858 C 0.26597 0.07495 0.28374 0.0
C859 C 0.26935 0.07443 0.19842 0.0
C860 C 0.27094 0.05756 0.1564 0.0
C861 C 0.26573 0.0588 0.24104 0.0
C862 C 0.2668 1.02538 0.15693 0.0
C863 C 0.26295 1.00979 0.19889 0.0
H864 H 0.71859 0.04858 0.16668 0.0
H865 H 0.72008 0.95422 0.21686 0.0
H866 H 0.73003 0.97264 0.29531 0.0
H867 H 0.73342 1.01624 0.35177 0.0
H868 H 0.73121 0.11026 0.30089 0.0
H869 H 0.72672 0.09146 0.22075 0.0
C870 C 0.72134 1.03201 0.19467 0.0
C871 C 0.71823 1.00011 0.18602 0.0
C872 C 0.72694 0.04279 0.23971 0.0
C873 C 0.72228 0.97892 0.22252 0.0
C874 C 0.72789 0.98946 0.2675 0.0
C875 C 0.73276 1.03244 0.32282 0.0
C876 C 0.73291 0.06454 0.33189 0.0
C877 C 0.72965 1.0214 0.27682 0.0
C878 C 0.73147 0.08546 0.29443 0.0
C879 C 0.72866 0.07472 0.24872 0.0
H880 H 0.95849 0.27339 0.40776 0.0
H881 H 0.97037 0.36821 0.45042 0.0
H882 H 0.97836 0.35089 0.5303 0.0
H883 H 0.97818 0.30889 0.58984 0.0
H884 H 0.96417 0.21489 0.54632 0.0
H885 H 0.96079 0.23168 0.46511 0.0
C886 C 0.96303 0.29031 0.43437 0.0
C887 C 0.96355 0.32209 0.42316 0.0
C888 C 0.96712 0.28026 0.48027 0.0
C889 C 0.96975 0.3436 0.45806 0.0
C890 C 0.97423 0.33372 0.50385 0.0
C891 C 0.97491 0.29216 0.56226 0.0
C892 C 0.97156 0.26073 0.57367 0.0
C893 C 0.97246 0.30215 0.51562 0.0
C894 C 0.96694 0.23916 0.53802 0.0
C895 C 0.96493 0.24877 0.49171 0.0
H896 H 0.03298 0.82703 0.52518 0.0
H897 H -0.00884 0.75289 0.58524 0.0
H898 H -0.00475 0.72309 0.51279 0.0
H899 H 0.01086 0.71803 0.43162 0.0
H900 H 0.05281 0.7924 0.37361 0.0
H901 H 0.0494 0.82148 0.44643 0.0
C902 C 0.02509 0.80411 0.5231 0.0
C903 C 0.01189 0.79232 0.56128 0.0
C904 C 0.02785 0.78685 0.48161 0.0
C905 C 0.00122 0.76287 0.5566 0.0
C906 C 0.00371 0.74565 0.51516 0.0
C907 C 0.01942 0.74047 0.43519 0.0
C908 C 0.03276 0.75265 0.3975 0.0
C909 C 0.01699 0.75739 0.47734 0.0
C910 C 0.04341 0.78194 0.40255 0.0
C911 C 0.04109 0.79881 0.44404 0.0
H912 H 0.26272 0.52188 0.64887 0.0
H913 H 0.26599 0.61736 0.69394 0.0
H914 H 0.25568 0.60179 0.77364 0.0
H915 H 0.24986 0.56015 0.83246 0.0
H916 H 0.24689 0.46493 0.78691 0.0
H917 H 0.25278 0.48111 0.70573 0.0
C918 C 0.261 0.53931 0.67606 0.0
C919 C 0.26546 0.57069 0.6655 0.0
C920 C 0.25511 0.53017 0.72188 0.0
C921 C 0.2627 0.59303 0.70101 0.0
C922 C 0.25689 0.58413 0.74673 0.0
C923 C 0.24981 0.54316 0.80445 0.0
C924 C 0.24764 0.51146 0.8153 0.0
C925 C 0.25357 0.55268 0.75784 0.0
C926 C 0.24815 0.48948 0.77905 0.0
C927 C 0.25173 0.49872 0.73276 0.0
H928 H 0.72993 0.50827 0.84478 0.0
H929 H 0.72535 0.60375 0.80125 0.0
H930 H 0.71908 0.58745 0.72026 0.0
H931 H 0.71163 0.54606 0.66295 0.0
H932 H 0.715 0.45028 0.70635 0.0
H933 H 0.7255 0.46648 0.78554 0.0
C934 C 0.72815 0.52537 0.81723 0.0
C935 C 0.72837 0.55715 0.82867 0.0
C936 C 0.72413 0.51575 0.77071 0.0
C937 C 0.72554 0.57919 0.79298 0.0
C938 C 0.7218 0.56986 0.74678 0.0
C939 C 0.71476 0.5287 0.68965 0.0
C940 C 0.71214 0.49699 0.67867 0.0
C941 C 0.72052 0.53821 0.73537 0.0
C942 C 0.71678 0.47485 0.71364 0.0
C943 C 0.7227 0.48411 0.75912 0.0
H944 H 0.98821 0.79962 0.05756 0.0
H945 H 0.97226 0.70615 1.014 0.0
H946 H 0.96595 0.72381 0.93395 0.0
H947 H 0.96069 0.76634 0.87844 0.0
H948 H 0.97519 0.86048 0.92121 0.0
H949 H 0.98676 0.84214 0.99886 0.0
C950 C 0.98406 0.78312 1.03012 0.0
C951 C 0.98085 0.75161 0.04145 0.0
C952 C 0.97993 0.79362 0.98411 0.0
C953 C 0.975 0.73046 1.00589 0.0
C954 C 0.97124 0.74058 0.96021 0.0
C955 C 0.96669 0.78286 0.9045 0.0
C956 C 0.9668 0.81479 0.89407 0.0
C957 C 0.97297 0.7722 0.94921 0.0
C958 C 0.97487 0.83577 0.92823 0.0
C959 C 0.98139 0.8253 0.97279 0.0
H960 H 0.00035 0.25302 0.08868 0.0
H961 H 0.00208 0.34845 0.04405 0.0
H962 H 0.00369 0.33204 0.96223 0.0
H963 H 0.00918 0.29072 0.90439 0.0
H964 H 0.00949 0.19499 0.94854 0.0
H965 H 0.00183 0.21114 1.02917 0.0
C966 C 0.00042 0.27005 0.0608 0.0
C967 C 0.00093 0.30182 0.07191 0.0
C968 C 0.00191 0.26038 1.01385 0.0
C969 C 0.00146 0.32388 0.0359 0.0
C970 C 0.00253 0.3145 0.98926 0.0
C971 C 0.00738 0.27336 0.93158 0.0
C972 C 0.01035 0.24176 0.92057 0.0
C973 C 0.00349 0.28284 0.97793 0.0
C974 C 0.00738 0.21951 0.95603 0.0
C975 C 0.00315 0.22873 1.00226 0.0
H976 H 0.75311 0.05922 0.85148 0.0
H977 H 0.75304 0.96553 0.79859 0.0
H978 H 0.75701 0.98476 0.71865 0.0
H979 H 0.76429 1.02781 0.6645 0.0
H980 H 0.76592 0.12176 0.71669 0.0
H981 H 0.75709 0.10308 0.79555 0.0
C982 C 0.75335 0.04319 0.82224 0.0
C983 C 0.75266 1.01102 0.83077 0.0
C984 C 0.75618 0.05446 0.77619 0.0
C985 C 0.7534 0.99038 0.79272 0.0
C986 C 0.75581 1.00137 0.74706 0.0
C987 C 0.76264 0.04425 0.69305 0.0
C988 C 0.76618 0.07611 0.68463 0.0
C989 C 0.75787 0.0333 0.73846 0.0
C990 C 0.76338 0.09708 0.72201 0.0
C991 C 0.75843 0.08639 0.76728 0.0
H992 H 0.20678 0.07928 0.78552 0.0
H993 H 0.23714 1.00139 0.85909 0.0
H994 H 0.23463 0.96971 0.78795 0.0
H995 H 0.22346 0.96433 0.70418 0.0
H996 H 0.194 0.0435 0.63244 0.0
H997 H 0.196 0.07419 0.70372 0.0
C998 C 0.21258 0.05524 0.78633 0.0
C999 C 0.22189 0.04267 0.82784 0.0
C1000 C 0.21088 0.0372 0.74564 0.0
C1001 C 0.22998 1.01172 0.82762 0.0
C1002 C 0.22839 0.99353 0.78701 0.0
C1003 C 0.21714 0.98815 0.70447 0.0
C1004 C 0.20769 1.00125 0.66334 0.0
C1005 C 0.21876 1.006 0.74576 0.0
C1006 C 0.20012 1.03235 0.66401 0.0
C1007 C 0.20163 0.05011 0.70463 0.0
H1008 H 0.47572 0.23889 0.05236 0.0
H1009 H 0.47382 0.32373 0.13178 0.0
H1010 H 0.46841 0.35378 0.05953 0.0
H1011 H 0.45897 0.35476 0.97433 0.0
H1012 H 0.46037 0.26857 0.89719 0.0
H1013 H 0.47128 0.2404 0.96743 0.0
C1014 C 0.47481 0.26406 0.05359 0.0
C1015 C 0.47533 0.27915 0.09711 0.0
C1016 C 0.47115 0.28091 1.01222 0.0
C1017 C 0.47381 0.3117 0.09853 0.0
C1018 C 0.47044 0.32879 0.05725 0.0
C1019 C 0.46213 0.32993 0.97281 0.0
C1020 C 0.4584 0.31379 0.93052 0.0
C1021 C 0.4683 0.31355 1.01393 0.0
C1022 C 0.4626 0.28157 0.92927 0.0
C1023 C 0.46894 0.26536 0.9695 0.0
H1024 H 0.53082 0.82297 0.03587 0.0
H1025 H 0.49683 0.74596 0.10508 0.0
H1026 H 0.49906 0.7153 0.03266 0.0
H1027 H 0.51224 0.71005 0.94971 0.0
H1028 H 0.54413 0.78887 0.88117 0.0
H1029 H 0.54115 0.81915 0.95293 0.0
C1030 C 0.52385 0.79947 0.03503 0.0
C1031 C 0.5139 0.78658 0.07579 0.0
C1032 C 0.52511 0.78221 0.99345 0.0
C1033 C 0.50456 0.75634 0.07407 0.0
C1034 C 0.50596 0.7388 0.03276 0.0
C1035 C 0.51868 0.73377 0.95076 0.0
C1036 C 0.52943 0.7468 0.91072 0.0
C1037 C 0.5165 0.75136 0.99229 0.0
C1038 C 0.53695 0.77785 0.91213 0.0
C1039 C 0.53497 0.79532 0.95302 0.0
H1040 H 0.764 0.5981 0.20834 0.0
H1041 H 0.76747 0.51186 0.1316 0.0
H1042 H 0.75711 0.48305 0.20184 0.0
H1043 H 0.75137 0.4815 0.28667 0.0
H1044 H 0.74742 0.56671 0.36507 0.0
H1045 H 0.75319 0.59676 0.29291 0.0
C1046 C 0.76197 0.57309 0.20684 0.0
C1047 C 0.76697 0.55717 0.16478 0.0
C1048 C 0.75607 0.55641 0.24785 0.0
C1049 C 0.76422 0.52472 0.16356 0.0
C1050 C 0.75825 0.50815 0.20378 0.0
C1051 C 0.75134 0.50669 0.28774 0.0
C1052 C 0.74911 0.52191 0.33102 0.0
C1053 C 0.75485 0.52362 0.24635 0.0
C1054 C 0.749 0.55452 0.33207 0.0
C1055 C 0.75247 0.57165 0.29085 0.0
H1056 H 0.22873 0.50403 0.33301 0.0
H1057 H 0.21642 0.59905 0.29265 0.0
H1058 H 0.21158 0.58324 0.2112 0.0
H1059 H 0.20751 0.54211 0.15274 0.0
H1060 H 0.21765 0.4465 0.19267 0.0
H1061 H 0.22728 0.4627 0.27235 0.0
C1062 C 0.22547 0.52119 0.30607 0.0
C1063 C 0.22295 0.55262 0.31854 0.0
C1064 C 0.22218 0.51179 0.25928 0.0
C1065 C 0.21845 0.57473 0.28362 0.0
C1066 C 0.2156 0.5657 0.23715 0.0
C1067 C 0.21179 0.52479 0.17884 0.0
C1068 C 0.21137 0.49312 0.16685 0.0
C1069 C 0.21683 0.53423 0.22476 0.0
C1070 C 0.21772 0.47106 0.20086 0.0
C1071 C 0.22313 0.4803 0.24659 0.0
H1072 H 0.47728 0.83979 0.43805 0.0
H1073 H 0.47176 0.75428 0.36006 0.0
H1074 H 0.48134 0.72452 0.42977 0.0
H1075 H 0.48558 0.72222 0.51493 0.0
H1076 H 0.49087 0.80678 0.59442 0.0
H1077 H 0.48761 0.83746 0.5224 0.0
C1078 C 0.47879 0.81471 0.43611 0.0
C1079 C 0.47335 0.79929 0.39399 0.0
C1080 C 0.48411 0.79752 0.4768 0.0
C1081 C 0.47542 0.76675 0.39214 0.0
C1082 C 0.4809 0.74964 0.43205 0.0
C1083 C 0.48673 0.74736 0.51617 0.0
C1084 C 0.48852 0.7623 0.55966 0.0
C1085 C 0.48442 0.76469 0.47487 0.0
C1086 C 0.48977 0.79485 0.56116 0.0
C1087 C 0.48765 0.81234 0.52004 0.0
H1088 H 0.53223 0.27764 0.60304 0.0
H1089 H 0.46313 0.3173 0.57336 0.0
H1090 H 0.46371 0.2935 0.49551 0.0
H1091 H 0.48573 0.26504 0.43315 0.0
H1092 H 0.55407 0.22401 0.46458 0.0
H1093 H 0.55211 0.24469 0.54417 0.0
C1094 C 0.51716 0.28068 0.5797 0.0
C1095 C 0.49771 0.29932 0.59381 0.0
C1096 C 0.51764 0.26691 0.5351 0.0
C1097 C 0.47823 0.3029 0.56341 0.0
C1098 C 0.47865 0.28949 0.51876 0.0
C1099 C 0.49992 0.26026 0.45786 0.0
C1100 C 0.52004 0.2431 0.4433 0.0
C1101 C 0.4985 0.27199 0.50383 0.0
C1102 C 0.53843 0.23709 0.47523 0.0
C1103 C 0.53732 0.24898 0.52066 0.0
H1104 H 0.13505 0.217 0.91606 0.0
H1105 H 0.08319 0.14481 0.89193 0.0
H1106 H 0.11344 0.10521 0.90825 0.0
H1107 H 0.15587 0.09147 0.91753 0.0
H1108 H 0.20793 0.16405 0.93785 0.0
H1109 H 0.17632 0.20311 0.93602 0.0
C1110 C 0.13026 0.1926 0.91552 0.0
C1111 C 0.10712 0.1837 0.90227 0.0
C1112 C 0.14785 0.17006 0.92377 0.0
C1113 C 0.10098 0.15212 0.90195 0.0
C1114 C 0.1183 0.1295 0.91091 0.0
C1115 C 0.16021 0.11583 0.92205 0.0
C1116 C 0.18421 0.12489 0.92702 0.0
C1117 C 0.14201 0.13823 0.91989 0.0
C1118 C 0.18959 0.15644 0.93396 0.0
C1119 C 0.17155 0.17884 0.93257 0.0
H1120 H 0.82543 0.97756 0.91447 0.0
H1121 H 0.77731 0.90717 0.96624 0.0
H1122 H 0.80932 0.86884 0.96352 0.0
H1123 H 0.84833 0.85337 0.93236 0.0
H1124 H 0.89592 0.92245 0.87566 0.0
H1125 H 0.86704 0.96336 0.89503 0.0
C1126 C 0.82213 0.95393 0.92585 0.0
C1127 C 0.79897 0.94511 0.93983 0.0
C1128 C 0.84047 0.93173 0.92291 0.0
C1129 C 0.79497 0.91461 0.95543 0.0
C1130 C 0.81323 0.89257 0.95351 0.0
C1131 C 0.85263 0.87752 0.92554 0.0
C1132 C 0.87391 0.88502 0.90208 0.0
C1133 C 0.83568 0.90059 0.93533 0.0
C1134 C 0.87956 0.91625 0.89371 0.0
C1135 C 0.86294 0.93956 0.9043 0.0
H1136 H 0.04055 0.39189 0.21673 0.0
H1137 H 0.0766 0.31259 0.15655 0.0
H1138 H 0.11378 0.34209 0.15186 0.0
H1139 H 0.13323 0.3932 0.15027 0.0
H1140 H 0.0965 0.47265 0.20812 0.0
H1141 H 0.0627 0.43998 0.23017 0.0
C1142 C 0.05672 0.38062 0.20422 0.0
C1143 C 0.05567 0.35034 0.18593 0.0
C1144 C 0.07789 0.39788 0.20089 0.0
C1145 C 0.07683 0.33618 0.16971 0.0
C1146 C 0.09809 0.35302 0.16706 0.0
C1147 C 0.11818 0.4031 0.16915 0.0
C1148 C 0.11704 0.43527 0.17673 0.0
C1149 C 0.09847 0.38436 0.18027 0.0
C1150 C 0.09758 0.44791 0.20146 0.0
C1151 C 0.07817 0.42929 0.21375 0.0
H1152 H 0.94694 0.6616 0.1923 0.0
H1153 H 0.90955 0.74186 0.13948 0.0
H1154 H 0.87182 0.71349 0.14193 0.0
H1155 H 0.85134 0.66315 0.14453 0.0
H1156 H 0.88939 0.58221 0.19271 0.0
H1157 H 0.92469 0.61379 0.20864 0.0
C1158 C 0.93042 0.67323 0.18294 0.0
C1159 C 0.93109 0.70355 0.16485 0.0
C1160 C 0.90887 0.65655 0.18344 0.0
C1161 C 0.90953 0.71827 0.15262 0.0
C1162 C 0.88795 0.70208 0.15403 0.0
C1163 C 0.86706 0.65271 0.1602 0.0
C1164 C 0.86796 0.62046 0.16702 0.0
C1165 C 0.88762 0.67076 0.16721 0.0
C1166 C 0.88843 0.60705 0.187 0.0
C1167 C 0.90867 0.62504 0.19568 0.0
H1168 H 0.19844 0.6476 0.46308 0.0
H1169 H 0.15239 0.57186 0.42348 0.0
H1170 H 0.11802 0.60707 0.42219 0.0
H1171 H 0.1036 0.66098 0.41462 0.0
H1172 H 0.1513 0.73654 0.44572 0.0
H1173 H 0.18223 0.69994 0.47012 0.0
C1174 C 0.18073 0.6385 0.45604 0.0
C1175 C 0.17799 0.60731 0.44265 0.0
C1176 C 0.16134 0.65906 0.4536 0.0
C1177 C 0.15495 0.59595 0.43315 0.0
C1178 C 0.13533 0.61608 0.43231 0.0
C1179 C 0.12039 0.66926 0.42885 0.0
C1180 C 0.12535 0.70116 0.42866 0.0
C1181 C 0.13859 0.64798 0.43988 0.0
C1182 C 0.14724 0.71194 0.44597 0.0
C1183 C 0.16498 0.69103 0.45936 0.0
H1184 H 0.84117 0.35118 0.42319 0.0
H1185 H 0.89204 0.42282 0.38918 0.0
H1186 H 0.86143 0.46266 0.40258 0.0
H1187 H 0.81875 0.476 0.41233 0.0
H1188 H 0.76794 0.40341 0.44282 0.0
H1189 H 0.79999 0.36498 0.44283 0.0
C1190 C 0.84567 0.37559 0.4199 0.0
C1191 C 0.86856 0.38423 0.40477 0.0
C1192 C 0.82789 0.39807 0.42626 0.0
C1193 C 0.87443 0.41578 0.4009 0.0
C1194 C 0.85688 0.43848 0.40802 0.0
C1195 C 0.81483 0.45179 0.41936 0.0
C1196 C 0.79108 0.44242 0.42696 0.0
C1197 C 0.83331 0.42974 0.41871 0.0
C1198 C 0.78613 0.41114 0.43693 0.0
C1199 C 0.80441 0.38914 0.43676 0.0
H1200 H 0.07433 0.8437 0.66694 0.0
H1201 H 0.01668 0.91039 0.67462 0.0
H1202 H 0.04525 0.95267 0.68042 0.0
H1203 H 0.08613 0.97114 0.67008 0.0
H1204 H 0.14423 0.90558 0.66036 0.0
H1205 H 0.11616 0.86242 0.66973 0.0
C1206 C 0.06814 0.86748 0.67049 0.0
C1207 C 0.0435 0.87394 0.66982 0.0
C1208 C 0.08472 0.89187 0.67337 0.0
C1209 C 0.03558 0.90478 0.67518 0.0
C1210 C 0.05189 0.92903 0.67828 0.0
C1211 C 0.09267 0.94741 0.67157 0.0
C1212 C 0.11699 0.94133 0.66406 0.0
C1213 C 0.07643 0.92291 0.6757 0.0
C1214 C 0.12548 0.91067 0.66626 0.0
C1215 C 0.10941 0.88602 0.67095 0.0
H1216 H 0.84512 0.1655 0.66478 0.0
H1217 H 0.88681 0.08331 0.69281 0.0
H1218 H 0.92073 0.11534 0.71628 0.0
H1219 H 0.94071 0.16576 0.71176 0.0
H1220 H 0.89996 0.24774 0.67769 0.0
H1221 H 0.86337 0.21688 0.67409 0.0
C1222 C 0.86138 0.15468 0.67747 0.0
C1223 C 0.86373 0.12224 0.67642 0.0
C1224 C 0.88109 0.17323 0.68895 0.0
C1225 C 0.88479 0.10834 0.69293 0.0
C1226 C 0.90421 0.12663 0.70606 0.0
C1227 C 0.92368 0.17706 0.70536 0.0
C1228 C 0.92301 0.20884 0.69434 0.0
C1229 C 0.90295 0.15902 0.70173 0.0
C1230 C 0.90087 0.22318 0.68567 0.0
C1231 C 0.88 0.20554 0.68343 0.0
H1232 H 0.69216 0.15898 0.46837 0.0
H1233 H 0.6583 0.0748 0.42103 0.0
H1234 H 0.61994 0.10178 0.41561 0.0
H1235 H 0.59823 0.15133 0.41027 0.0
H1236 H 0.63272 0.23582 0.45441 0.0
H1237 H 0.66838 0.20661 0.47659 0.0
C1238 C 0.67622 0.1463 0.45845 0.0
C1239 C 0.6781 0.11515 0.44425 0.0
C1240 C 0.65437 0.16214 0.45437 0.0
C1241 C 0.65732 0.099 0.43127 0.0
C1242 C 0.63541 0.11441 0.4281 0.0
C1243 C 0.61329 0.16315 0.42608 0.0
C1244 C 0.61311 0.19563 0.43001 0.0
C1245 C 0.634 0.14632 0.43736 0.0
C1246 C 0.63263 0.21078 0.45064 0.0
C1247 C 0.65307 0.19413 0.46307 0.0
H1248 H 0.30093 0.9165 0.44801 0.0
H1249 H 0.33946 0.99507 0.39237 0.0
H1250 H 0.37555 0.96346 0.38531 0.0
H1251 H 0.39398 0.91158 0.38326 0.0
H1252 H 0.355 0.8332 0.43781 0.0
H1253 H 0.32164 0.86705 0.45918 0.0
C1254 C 0.31736 0.92707 0.43571 0.0
C1255 C 0.31728 0.95794 0.4197 0.0
C1256 C 0.33803 0.90877 0.43163 0.0
C1257 C 0.33881 0.97108 0.40362 0.0
C1258 C 0.35952 0.95309 0.39983 0.0
C1259 C 0.37852 0.90215 0.40129 0.0
C1260 C 0.37671 0.87 0.40841 0.0
C1261 C 0.35906 0.92158 0.41198 0.0
C1262 C 0.35664 0.85794 0.43172 0.0
C1263 C 0.33748 0.87722 0.44354 0.0
H1264 H 0.56784 0.34493 0.67585 0.0
H1265 H 0.51678 0.41775 0.70509 0.0
H1266 H 0.54872 0.45616 0.7051 0.0
H1267 H 0.58993 0.46983 0.68554 0.0
H1268 H 0.64092 0.39776 0.65244 0.0
H1269 H 0.61044 0.35814 0.66635 0.0
C1270 C 0.56384 0.36918 0.68261 0.0
C1271 C 0.54006 0.37861 0.68985 0.0
C1272 C 0.58225 0.39122 0.68194 0.0
C1273 C 0.535 0.40997 0.69947 0.0
C1274 C 0.55323 0.43195 0.69931 0.0
C1275 C 0.5945 0.4454 0.68263 0.0
C1276 C 0.61739 0.4366 0.66746 0.0
C1277 C 0.57676 0.42296 0.68914 0.0
C1278 C 0.6233 0.40498 0.66405 0.0
C1279 C 0.60583 0.38237 0.67149 0.0
H1280 H 0.35142 0.66365 0.62764 0.0
H1281 H 0.38485 0.58134 0.68318 0.0
H1282 H 0.42127 0.61054 0.69939 0.0
H1283 H 0.44558 0.65662 0.68435 0.0
H1284 H 0.41261 0.73884 0.62704 0.0
H1285 H 0.37409 0.7124 0.62437 0.0
C1286 C 0.36641 0.65243 0.64471 0.0
C1287 C 0.36568 0.62044 0.65377 0.0
C1288 C 0.38758 0.66908 0.6523 0.0
C1289 C 0.38516 0.606 0.67571 0.0
C1290 C 0.40604 0.6226 0.68458 0.0
C1291 C 0.42987 0.66909 0.67248 0.0
C1292 C 0.4321 0.69942 0.65494 0.0
C1293 C 0.40781 0.65375 0.67092 0.0
C1294 C 0.41152 0.71514 0.63946 0.0
C1295 C 0.38944 0.70013 0.63822 0.0
H1296 H 0.6044 0.65425 0.92756 0.0
H1297 H 0.6473 0.73386 0.9625 0.0
H1298 H 0.68023 0.70006 0.98591 0.0
H1299 H 0.6996 0.64979 0.97636 0.0
H1300 H 0.65822 0.5701 0.93448 0.0
H1301 H 0.62189 0.60178 0.93403 0.0
C1302 C 0.62057 0.66397 0.94241 0.0
C1303 C 0.62364 0.69629 0.9433 0.0
C1304 C 0.63995 0.64439 0.95304 0.0
C1305 C 0.64471 0.70892 0.96168 0.0
C1306 C 0.66361 0.68963 0.97452 0.0
C1307 C 0.68252 0.63896 0.96904 0.0
C1308 C 0.68171 0.60778 0.95448 0.0
C1309 C 0.66193 0.65751 0.96737 0.0
C1310 C 0.65938 0.59426 0.94479 0.0
C1311 C 0.63861 0.61237 0.94448 0.0
H1312 H 0.37686 0.41977 0.90716 0.0
H1313 H 0.33833 0.33775 0.9493 0.0
H1314 H 0.30343 0.3693 0.96923 0.0
H1315 H 0.28163 0.41811 0.95838 0.0
H1316 H 0.31954 0.49999 0.91329 0.0
H1317 H 0.35697 0.47069 0.91112 0.0
C1318 C 0.36109 0.40899 0.92215 0.0
C1319 C 0.35993 0.37653 0.92599 0.0
C1320 C 0.34082 0.42717 0.93203 0.0
C1321 C 0.33948 0.36274 0.94559 0.0
C1322 C 0.31947 0.38074 0.95669 0.0
C1323 C 0.2982 0.42988 0.94977 0.0
C1324 C 0.29772 0.46102 0.93504 0.0
C1325 C 0.31954 0.41273 0.94763 0.0
C1326 C 0.31938 0.47583 0.92378 0.0
C1327 C 0.34078 0.45909 0.92249 0.0
H1328 H 0.54235 0.89591 0.20625 0.0
H1329 H 0.58423 0.81584 0.16561 0.0
H1330 H 0.62027 0.84765 0.1641 0.0
H1331 H 0.63839 0.89981 0.16226 0.0
H1332 H 0.59622 0.97907 0.20446 0.0
H1333 H 0.56201 0.94551 0.21976 0.0
C1334 C 0.55939 0.88493 0.19875 0.0
C1335 C 0.56031 0.85356 0.18488 0.0
C1336 C 0.58008 0.90328 0.19821 0.0
C1337 C 0.58276 0.84015 0.17493 0.0
C1338 C 0.60346 0.85828 0.17431 0.0
C1339 C 0.62195 0.90953 0.17629 0.0
C1340 C 0.61964 0.94184 0.18157 0.0
C1341 C 0.60213 0.89016 0.18399 0.0
C1342 C 0.59831 0.95424 0.19978 0.0
C1343 C 0.57868 0.9351 0.20819 0.0
H1344 H 0.44293 0.16296 0.205 0.0
H1345 H 0.40147 0.24392 0.16855 0.0
H1346 H 0.36616 0.21161 0.15679 0.0
H1347 H 0.3491 0.15967 0.1448 0.0
H1348 H 0.39112 0.07872 0.17844 0.0
H1349 H 0.42388 0.11168 0.20496 0.0
C1350 C 0.426 0.17364 0.19583 0.0
C1351 C 0.42492 0.20568 0.18678 0.0
C1352 C 0.40588 0.15486 0.18839 0.0
C1353 C 0.40285 0.21917 0.17472 0.0
C1354 C 0.38265 0.20073 0.16807 0.0
C1355 C 0.36517 0.14933 0.15921 0.0
C1356 C 0.3679 0.11693 0.15916 0.0
C1357 C 0.38422 0.16842 0.17294 0.0
C1358 C 0.38875 0.10369 0.17785 0.0
C1359 C 0.40755 0.12251 0.19272 0.0
loop_
_geom_bond_atom_site_label_1
_geom_bond_atom_site_label_2
_geom_bond_distance
_geom_bond_site_symmetry_2
_ccdc_geom_bond_type
O0 Tb1 2.292 . S
O0 C3 1.255 1_545 S
Tb1 O0 2.292 . S
Tb1 O17 2.326 . S
Tb1 O19 2.500 . S
Tb1 O20 2.473 . S
Tb1 O23 2.324 1_554 S
Eu2 O6 2.292 . S
Eu2 C7 2.852 1_554 S
Eu2 O18 2.324 . S
Eu2 O22 2.326 1_554 S
Eu2 O24 2.500 1_554 S
Eu2 O25 2.473 . S
C3 O0 1.255 1_565 S
C3 O4 1.247 . S
O4 C3 1.247 . S
C5 O17 1.242 . S
C5 O18 1.258 . S
O6 Eu2 2.292 . S
O6 C8 1.255 . S
C7 Eu2 2.852 1_556 S
C7 C11 1.503 . S
C7 O24 1.273 . S
C7 O25 1.257 1_556 S
C8 O6 1.255 . S
C8 O9 1.247 . S
O9 C8 1.247 . S
C10 O22 1.242 . S
C10 O23 1.258 . S
C11 C7 1.503 . S
C11 C12 1.379 . S
C11 C16 1.392 . S
C12 C11 1.379 . S
C12 C13 1.404 . S
C12 H26 0.929 . S
C13 C12 1.404 . S
C13 C14 1.389 . S
C14 C13 1.389 . S
C14 C15 1.399 . S
C14 H27 0.931 . S
C15 C14 1.399 . S
C15 C16 1.390 . S
C16 C11 1.392 . S
C16 C15 1.390 . S
C16 H28 0.929 . S
O17 Tb1 2.326 . S
O17 C5 1.242 . S
O18 Eu2 2.324 . S
O18 C5 1.258 . S
O19 Tb1 2.500 . S
O19 C21 1.273 . S
O20 Tb1 2.473 . S
O20 C21 1.257 . S
C21 O19 1.273 . S
C21 O20 1.257 . S
O22 Eu2 2.326 1_556 S
O22 C10 1.242 . S
O23 Tb1 2.324 1_556 S
O23 C10 1.258 . S
O24 Eu2 2.500 1_556 S
O24 C7 1.273 . S
O25 Eu2 2.473 . S
O25 C7 1.257 1_554 S
H26 C12 0.929 . S
H27 C14 0.931 . S
H28 C16 0.929 . S
O29 Tb30 2.292 . S
O29 C32 1.255 1_565 S
Tb30 O29 2.292 . S
Tb30 O46 2.326 . S
Tb30 O48 2.500 . S
Tb30 O49 2.473 . S
Tb30 O52 2.324 1_554 S
Eu31 O35 2.292 . S
Eu31 C36 2.852 1_554 S
Eu31 O47 2.324 . S
Eu31 O51 2.326 1_554 S
Eu31 O53 2.500 1_554 S
Eu31 O54 2.473 . S
C32 O29 1.255 1_545 S
C32 O33 1.247 . S
O33 C32 1.247 . S
C34 O46 1.242 . S
C34 O47 1.258 . S
O35 Eu31 2.292 . S
O35 C37 1.255 . S
C36 Eu31 2.852 1_556 S
C36 C40 1.503 . S
C36 O53 1.273 . S
C36 O54 1.257 1_556 S
C37 O35 1.255 . S
C37 O38 1.247 . S
O38 C37 1.247 . S
C39 O51 1.242 . S
C39 O52 1.258 . S
C40 C36 1.503 . S
C40 C41 1.379 . S
C40 C45 1.392 . S
C41 C40 1.379 . S
C41 C42 1.404 . S
C41 H55 0.929 . S
C42 C41 1.404 . S
C42 C43 1.389 . S
C43 C42 1.389 . S
C43 C44 1.399 . S
C43 H56 0.931 . S
C44 C43 1.399 . S
C44 C45 1.390 . S
C45 C40 1.392 . S
C45 C44 1.390 . S
C45 H57 0.929 . S
O46 Tb30 2.326 . S
O46 C34 1.242 . S
O47 Eu31 2.324 . S
O47 C34 1.258 . S
O48 Tb30 2.500 . S
O48 C50 1.273 . S
O49 Tb30 2.473 . S
O49 C50 1.257 . S
C50 O48 1.273 . S
C50 O49 1.257 . S
O51 Eu31 2.326 1_556 S
O51 C39 1.242 . S
O52 Tb30 2.324 1_556 S
O52 C39 1.258 . S
O53 Eu31 2.500 1_556 S
O53 C36 1.273 . S
O54 Eu31 2.473 . S
O54 C36 1.257 1_554 S
H55 C41 0.929 . S
H56 C43 0.931 . S
H57 C45 0.929 . S
O58 Tb59 2.292 . S
O58 C61 1.255 . S
Tb59 O58 2.292 . S
Tb59 O75 2.326 . S
Tb59 O77 2.500 . S
Tb59 O78 2.473 . S
Tb59 O81 2.324 . S
Eu60 O64 2.292 . S
Eu60 C65 2.852 1_655 S
Eu60 O76 2.324 . S
Eu60 O80 2.326 . S
Eu60 O82 2.500 1_655 S
Eu60 O83 2.473 . S
C61 O58 1.255 . S
C61 O62 1.247 . S
O62 C61 1.247 . S
C63 O75 1.242 . S
C63 O76 1.258 . S
O64 Eu60 2.292 . S
O64 C66 1.255 . S
C65 Eu60 2.852 1_455 S
C65 C69 1.503 . S
C65 O82 1.273 . S
C65 O83 1.257 1_455 S
C66 O64 1.255 . S
C66 O67 1.247 . S
O67 C66 1.247 . S
C68 O80 1.242 . S
C68 O81 1.258 . S
C69 C65 1.503 . S
C69 C70 1.379 . S
C69 C74 1.392 . S
C70 C69 1.379 . S
C70 C71 1.404 . S
C70 H84 0.929 1_455 S
C71 C70 1.404 . S
C71 C72 1.389 . S
C72 C71 1.389 . S
C72 C73 1.399 . S
C72 H85 0.931 . S
C73 C72 1.399 . S
C73 C74 1.390 . S
C74 C69 1.392 . S
C74 C73 1.390 . S
C74 H86 0.929 . S
O75 Tb59 2.326 . S
O75 C63 1.242 . S
O76 Eu60 2.324 . S
O76 C63 1.258 . S
O77 Tb59 2.500 . S
O77 C79 1.273 . S
O78 Tb59 2.473 . S
O78 C79 1.257 . S
C79 O77 1.273 . S
C79 O78 1.257 . S
O80 Eu60 2.326 . S
O80 C68 1.242 . S
O81 Tb59 2.324 . S
O81 C68 1.258 . S
O82 Eu60 2.500 1_455 S
O82 C65 1.273 . S
O83 Eu60 2.473 . S
O83 C65 1.257 1_655 S
H84 C70 0.929 1_655 S
H85 C72 0.931 . S
H86 C74 0.929 . S
O87 Tb88 2.292 . S
O87 C90 1.255 . S
Tb88 O87 2.292 . S
Tb88 O104 2.326 . S
Tb88 O106 2.500 . S
Tb88 O107 2.473 . S
Tb88 O110 2.324 . S
Eu89 O93 2.292 . S
Eu89 C94 2.852 1_455 S
Eu89 O105 2.324 . S
Eu89 O109 2.326 . S
Eu89 O111 2.500 1_455 S
Eu89 O112 2.473 . S
C90 O87 1.255 . S
C90 O91 1.247 . S
O91 C90 1.247 . S
C92 O104 1.242 . S
C92 O105 1.258 . S
O93 Eu89 2.292 . S
O93 C95 1.255 . S
C94 Eu89 2.852 1_655 S
C94 C98 1.503 . S
C94 O111 1.273 . S
C94 O112 1.257 1_655 S
C95 O93 1.255 . S
C95 O96 1.247 . S
O96 C95 1.247 . S
C97 O109 1.242 . S
C97 O110 1.258 . S
C98 C94 1.503 . S
C98 C99 1.379 . S
C98 C103 1.392 . S
C99 C98 1.379 . S
C99 C100 1.404 . S
C99 H113 0.929 1_655 S
C100 C99 1.404 . S
C100 C101 1.389 . S
C101 C100 1.389 . S
C101 C102 1.399 . S
C101 H114 0.931 . S
C102 C101 1.399 . S
C102 C103 1.390 . S
C103 C98 1.392 . S
C103 C102 1.390 . S
C103 H115 0.929 . S
O104 Tb88 2.326 . S
O104 C92 1.242 . S
O105 Eu89 2.324 . S
O105 C92 1.258 . S
O106 Tb88 2.500 . S
O106 C108 1.273 . S
O107 Tb88 2.473 . S
O107 C108 1.257 . S
C108 O106 1.273 . S
C108 O107 1.257 . S
O109 Eu89 2.326 . S
O109 C97 1.242 . S
O110 Tb88 2.324 . S
O110 C97 1.258 . S
O111 Eu89 2.500 1_655 S
O111 C94 1.273 . S
O112 Eu89 2.473 . S
O112 C94 1.257 1_455 S
H113 C99 0.929 1_455 S
H114 C101 0.931 . S
H115 C103 0.929 . S
O116 Tb117 2.292 . S
O116 C119 1.255 . S
Tb117 O116 2.292 . S
Tb117 O133 2.326 . S
Tb117 O135 2.500 . S
Tb117 O136 2.473 . S
Tb117 O139 2.324 . S
Eu118 O122 2.292 . S
Eu118 C123 2.852 . S
Eu118 O134 2.324 . S
Eu118 O138 2.326 . S
Eu118 O140 2.500 . S
Eu118 O141 2.473 . S
C119 O116 1.255 . S
C119 O120 1.247 . S
O120 C119 1.247 . S
C121 O133 1.242 . S
C121 O134 1.258 . S
O122 Eu118 2.292 . S
O122 C124 1.255 . S
C123 Eu118 2.852 . S
C123 C127 1.503 . S
C123 O140 1.273 . S
C123 O141 1.257 . S
C124 O122 1.255 . S
C124 O125 1.247 . S
O125 C124 1.247 . S
C126 O138 1.242 . S
C126 O139 1.258 . S
C127 C123 1.503 . S
C127 C128 1.379 . S
C127 C132 1.392 . S
C128 C127 1.379 . S
C128 C129 1.404 . S
C128 H142 0.929 . S
C129 C128 1.404 . S
C129 C130 1.389 . S
C130 C129 1.389 . S
C130 C131 1.399 . S
C130 H143 0.931 . S
C131 C130 1.399 . S
C131 C132 1.390 . S
C132 C127 1.392 . S
C132 C131 1.390 . S
C132 H144 0.929 . S
O133 Tb117 2.326 . S
O133 C121 1.242 . S
O134 Eu118 2.324 . S
O134 C121 1.258 . S
O135 Tb117 2.500 . S
O135 C137 1.273 . S
O136 Tb117 2.473 . S
O136 C137 1.257 . S
C137 O135 1.273 . S
C137 O136 1.257 . S
O138 Eu118 2.326 . S
O138 C126 1.242 . S
O139 Tb117 2.324 . S
O139 C126 1.258 . S
O140 Eu118 2.500 . S
O140 C123 1.273 . S
O141 Eu118 2.473 . S
O141 C123 1.257 . S
H142 C128 0.929 . S
H143 C130 0.931 . S
H144 C132 0.929 . S
O145 Tb146 2.292 . S
O145 C148 1.255 . S
Tb146 O145 2.292 . S
Tb146 O162 2.326 . S
Tb146 O164 2.500 . S
Tb146 O165 2.473 . S
Tb146 O168 2.324 . S
Eu147 O151 2.292 . S
Eu147 C152 2.852 . S
Eu147 O163 2.324 . S
Eu147 O167 2.326 . S
Eu147 O169 2.500 . S
Eu147 O170 2.473 . S
C148 O145 1.255 . S
C148 O149 1.247 . S
O149 C148 1.247 . S
C150 O162 1.242 . S
C150 O163 1.258 . S
O151 Eu147 2.292 . S
O151 C153 1.255 . S
C152 Eu147 2.852 . S
C152 C156 1.503 . S
C152 O169 1.273 . S
C152 O170 1.257 . S
C153 O151 1.255 . S
C153 O154 1.247 . S
O154 C153 1.247 . S
C155 O167 1.242 . S
C155 O168 1.258 . S
C156 C152 1.503 . S
C156 C157 1.379 . S
C156 C161 1.392 . S
C157 C156 1.379 . S
C157 C158 1.404 . S
C157 H171 0.929 . S
C158 C157 1.404 . S
C158 C159 1.389 . S
C159 C158 1.389 . S
C159 C160 1.399 . S
C159 H172 0.931 . S
C160 C159 1.399 . S
C160 C161 1.390 . S
C161 C156 1.392 . S
C161 C160 1.390 . S
C161 H173 0.929 . S
O162 Tb146 2.326 . S
O162 C150 1.242 . S
O163 Eu147 2.324 . S
O163 C150 1.258 . S
O164 Tb146 2.500 . S
O164 C166 1.273 . S
O165 Tb146 2.473 . S
O165 C166 1.257 . S
C166 O164 1.273 . S
C166 O165 1.257 . S
O167 Eu147 2.326 . S
O167 C155 1.242 . S
O168 Tb146 2.324 . S
O168 C155 1.258 . S
O169 Eu147 2.500 . S
O169 C152 1.273 . S
O170 Eu147 2.473 . S
O170 C152 1.257 . S
H171 C157 0.929 . S
H172 C159 0.931 . S
H173 C161 0.929 . S
O174 Tb175 2.292 . S
O174 C177 1.255 . S
Tb175 O174 2.292 . S
Tb175 O191 2.326 . S
Tb175 O193 2.500 . S
Tb175 O194 2.473 . S
Tb175 O197 2.324 . S
Eu176 O180 2.292 . S
Eu176 C181 2.852 1_655 S
Eu176 O192 2.324 . S
Eu176 O196 2.326 . S
Eu176 O198 2.500 1_655 S
Eu176 O199 2.473 . S
C177 O174 1.255 . S
C177 O178 1.247 . S
O178 C177 1.247 . S
C179 O191 1.242 . S
C179 O192 1.258 . S
O180 Eu176 2.292 . S
O180 C182 1.255 . S
C181 Eu176 2.852 1_455 S
C181 C185 1.503 . S
C181 O198 1.273 . S
C181 O199 1.257 1_455 S
C182 O180 1.255 . S
C182 O183 1.247 . S
O183 C182 1.247 . S
C184 O196 1.242 . S
C184 O197 1.258 . S
C185 C181 1.503 . S
C185 C186 1.379 . S
C185 C190 1.392 . S
C186 C185 1.379 . S
C186 C187 1.404 . S
C186 H200 0.929 1_455 S
C187 C186 1.404 . S
C187 C188 1.389 . S
C188 C187 1.389 . S
C188 C189 1.399 . S
C188 H201 0.931 . S
C189 C188 1.399 . S
C189 C190 1.390 . S
C190 C185 1.392 . S
C190 C189 1.390 . S
C190 H202 0.929 . S
O191 Tb175 2.326 . S
O191 C179 1.242 . S
O192 Eu176 2.324 . S
O192 C179 1.258 . S
O193 Tb175 2.500 . S
O193 C195 1.273 . S
O194 Tb175 2.473 . S
O194 C195 1.257 . S
C195 O193 1.273 . S
C195 O194 1.257 . S
O196 Eu176 2.326 . S
O196 C184 1.242 . S
O197 Tb175 2.324 . S
O197 C184 1.258 . S
O198 Eu176 2.500 1_455 S
O198 C181 1.273 . S
O199 Eu176 2.473 . S
O199 C181 1.257 1_655 S
H200 C186 0.929 1_655 S
H201 C188 0.931 . S
H202 C190 0.929 . S
O203 Tb204 2.292 . S
O203 C206 1.255 . S
Tb204 O203 2.292 . S
Tb204 O220 2.326 . S
Tb204 O222 2.500 . S
Tb204 O223 2.473 . S
Tb204 O226 2.324 . S
Eu205 O209 2.292 . S
Eu205 C210 2.852 1_455 S
Eu205 O221 2.324 . S
Eu205 O225 2.326 . S
Eu205 O227 2.500 1_455 S
Eu205 O228 2.473 . S
C206 O203 1.255 . S
C206 O207 1.247 . S
O207 C206 1.247 . S
C208 O220 1.242 . S
C208 O221 1.258 . S
O209 Eu205 2.292 . S
O209 C211 1.255 . S
C210 Eu205 2.852 1_655 S
C210 C214 1.503 . S
C210 O227 1.273 . S
C210 O228 1.257 1_655 S
C211 O209 1.255 . S
C211 O212 1.247 . S
O212 C211 1.247 . S
C213 O225 1.242 . S
C213 O226 1.258 . S
C214 C210 1.503 . S
C214 C215 1.379 . S
C214 C219 1.392 . S
C215 C214 1.379 . S
C215 C216 1.404 . S
C215 H229 0.929 1_655 S
C216 C215 1.404 . S
C216 C217 1.389 . S
C217 C216 1.389 . S
C217 C218 1.399 . S
C217 H230 0.931 . S
C218 C217 1.399 . S
C218 C219 1.390 . S
C219 C214 1.392 . S
C219 C218 1.390 . S
C219 H231 0.929 . S
O220 Tb204 2.326 . S
O220 C208 1.242 . S
O221 Eu205 2.324 . S
O221 C208 1.258 . S
O222 Tb204 2.500 . S
O222 C224 1.273 . S
O223 Tb204 2.473 . S
O223 C224 1.257 . S
C224 O222 1.273 . S
C224 O223 1.257 . S
O225 Eu205 2.326 . S
O225 C213 1.242 . S
O226 Tb204 2.324 . S
O226 C213 1.258 . S
O227 Eu205 2.500 1_655 S
O227 C210 1.273 . S
O228 Eu205 2.473 . S
O228 C210 1.257 1_455 S
H229 C215 0.929 1_455 S
H230 C217 0.931 . S
H231 C219 0.929 . S
O232 Tb233 2.292 . S
O232 C235 1.255 1_545 S
Tb233 O232 2.292 . S
Tb233 O249 2.326 . S
Tb233 O251 2.500 . S
Tb233 O252 2.473 . S
Tb233 O255 2.324 . S
Eu234 O238 2.292 . S
Eu234 C239 2.852 . S
Eu234 O250 2.324 . S
Eu234 O254 2.326 . S
Eu234 O256 2.500 . S
Eu234 O257 2.473 . S
C235 O232 1.255 1_565 S
C235 O236 1.247 . S
O236 C235 1.247 . S
C237 O249 1.242 . S
C237 O250 1.258 . S
O238 Eu234 2.292 . S
O238 C240 1.255 . S
C239 Eu234 2.852 . S
C239 C243 1.503 . S
C239 O256 1.273 . S
C239 O257 1.257 . S
C240 O238 1.255 . S
C240 O241 1.247 . S
O241 C240 1.247 . S
C242 O254 1.242 . S
C242 O255 1.258 . S
C243 C239 1.503 . S
C243 C244 1.379 . S
C243 C248 1.392 . S
C244 C243 1.379 . S
C244 C245 1.404 . S
C244 H258 0.929 . S
C245 C244 1.404 . S
C245 C246 1.389 . S
C246 C245 1.389 . S
C246 C247 1.399 . S
C246 H259 0.931 . S
C247 C246 1.399 . S
C247 C248 1.390 . S
C248 C243 1.392 . S
C248 C247 1.390 . S
C248 H260 0.929 . S
O249 Tb233 2.326 . S
O249 C237 1.242 . S
O250 Eu234 2.324 . S
O250 C237 1.258 . S
O251 Tb233 2.500 . S
O251 C253 1.273 . S
O252 Tb233 2.473 . S
O252 C253 1.257 . S
C253 O251 1.273 . S
C253 O252 1.257 . S
O254 Eu234 2.326 . S
O254 C242 1.242 . S
O255 Tb233 2.324 . S
O255 C242 1.258 . S
O256 Eu234 2.500 . S
O256 C239 1.273 . S
O257 Eu234 2.473 . S
O257 C239 1.257 . S
H258 C244 0.929 . S
H259 C246 0.931 . S
H260 C248 0.929 . S
O261 Tb262 2.292 . S
O261 C264 1.255 1_565 S
Tb262 O261 2.292 . S
Tb262 O278 2.326 . S
Tb262 O280 2.500 . S
Tb262 O281 2.473 . S
Tb262 O284 2.324 . S
Eu263 O267 2.292 . S
Eu263 C268 2.852 . S
Eu263 O279 2.324 . S
Eu263 O283 2.326 . S
Eu263 O285 2.500 . S
Eu263 O286 2.473 . S
C264 O261 1.255 1_545 S
C264 O265 1.247 . S
O265 C264 1.247 . S
C266 O278 1.242 . S
C266 O279 1.258 . S
O267 Eu263 2.292 . S
O267 C269 1.255 . S
C268 Eu263 2.852 . S
C268 C272 1.503 . S
C268 O285 1.273 . S
C268 O286 1.257 . S
C269 O267 1.255 . S
C269 O270 1.247 . S
O270 C269 1.247 . S
C271 O283 1.242 . S
C271 O284 1.258 . S
C272 C268 1.503 . S
C272 C273 1.379 . S
C272 C277 1.392 . S
C273 C272 1.379 . S
C273 C274 1.404 . S
C273 H287 0.929 . S
C274 C273 1.404 . S
C274 C275 1.389 . S
C275 C274 1.389 . S
C275 C276 1.399 . S
C275 H288 0.931 . S
C276 C275 1.399 . S
C276 C277 1.390 . S
C277 C272 1.392 . S
C277 C276 1.390 . S
C277 H289 0.929 . S
O278 Tb262 2.326 . S
O278 C266 1.242 . S
O279 Eu263 2.324 . S
O279 C266 1.258 . S
O280 Tb262 2.500 . S
O280 C282 1.273 . S
O281 Tb262 2.473 . S
O281 C282 1.257 . S
C282 O280 1.273 . S
C282 O281 1.257 . S
O283 Eu263 2.326 . S
O283 C271 1.242 . S
O284 Tb262 2.324 . S
O284 C271 1.258 . S
O285 Eu263 2.500 . S
O285 C268 1.273 . S
O286 Eu263 2.473 . S
O286 C268 1.257 . S
H287 C273 0.929 . S
H288 C275 0.931 . S
H289 C277 0.929 . S
O290 Tb291 2.292 . S
O290 C293 1.255 . S
Tb291 O290 2.292 . S
Tb291 O307 2.326 . S
Tb291 O309 2.500 . S
Tb291 O310 2.473 . S
Tb291 O313 2.324 . S
Eu292 O296 2.292 . S
Eu292 C297 2.852 . S
Eu292 O308 2.324 . S
Eu292 O312 2.326 . S
Eu292 O314 2.500 . S
Eu292 O315 2.473 . S
C293 O290 1.255 . S
C293 O294 1.247 . S
O294 C293 1.247 . S
C295 O307 1.242 . S
C295 O308 1.258 . S
O296 Eu292 2.292 . S
O296 C298 1.255 . S
C297 Eu292 2.852 . S
C297 C301 1.503 . S
C297 O314 1.273 . S
C297 O315 1.257 . S
C298 O296 1.255 . S
C298 O299 1.247 . S
O299 C298 1.247 . S
C300 O312 1.242 . S
C300 O313 1.258 . S
C301 C297 1.503 . S
C301 C302 1.379 . S
C301 C306 1.392 . S
C302 C301 1.379 . S
C302 C303 1.404 . S
C302 H316 0.929 . S
C303 C302 1.404 . S
C303 C304 1.389 . S
C304 C303 1.389 . S
C304 C305 1.399 . S
C304 H317 0.931 . S
C305 C304 1.399 . S
C305 C306 1.390 . S
C306 C301 1.392 . S
C306 C305 1.390 . S
C306 H318 0.929 . S
O307 Tb291 2.326 . S
O307 C295 1.242 . S
O308 Eu292 2.324 . S
O308 C295 1.258 . S
O309 Tb291 2.500 . S
O309 C311 1.273 . S
O310 Tb291 2.473 . S
O310 C311 1.257 . S
C311 O309 1.273 . S
C311 O310 1.257 . S
O312 Eu292 2.326 . S
O312 C300 1.242 . S
O313 Tb291 2.324 . S
O313 C300 1.258 . S
O314 Eu292 2.500 . S
O314 C297 1.273 . S
O315 Eu292 2.473 . S
O315 C297 1.257 . S
H316 C302 0.929 . S
H317 C304 0.931 . S
H318 C306 0.929 . S
O319 Tb320 2.292 . S
O319 C322 1.255 . S
Tb320 O319 2.292 . S
Tb320 O336 2.326 . S
Tb320 O338 2.500 . S
Tb320 O339 2.473 . S
Tb320 O342 2.324 . S
Eu321 O325 2.292 . S
Eu321 C326 2.852 . S
Eu321 O337 2.324 . S
Eu321 O341 2.326 . S
Eu321 O343 2.500 . S
Eu321 O344 2.473 . S
C322 O319 1.255 . S
C322 O323 1.247 . S
O323 C322 1.247 . S
C324 O336 1.242 . S
C324 O337 1.258 . S
O325 Eu321 2.292 . S
O325 C327 1.255 . S
C326 Eu321 2.852 . S
C326 C330 1.503 . S
C326 O343 1.273 . S
C326 O344 1.257 . S
C327 O325 1.255 . S
C327 O328 1.247 . S
O328 C327 1.247 . S
C329 O341 1.242 . S
C329 O342 1.258 . S
C330 C326 1.503 . S
C330 C331 1.379 . S
C330 C335 1.392 . S
C331 C330 1.379 . S
C331 C332 1.404 . S
C331 H345 0.929 . S
C332 C331 1.404 . S
C332 C333 1.389 . S
C333 C332 1.389 . S
C333 C334 1.399 . S
C333 H346 0.931 . S
C334 C333 1.399 . S
C334 C335 1.390 . S
C335 C330 1.392 . S
C335 C334 1.390 . S
C335 H347 0.929 . S
O336 Tb320 2.326 . S
O336 C324 1.242 . S
O337 Eu321 2.324 . S
O337 C324 1.258 . S
O338 Tb320 2.500 . S
O338 C340 1.273 . S
O339 Tb320 2.473 . S
O339 C340 1.257 . S
C340 O338 1.273 . S
C340 O339 1.257 . S
O341 Eu321 2.326 . S
O341 C329 1.242 . S
O342 Tb320 2.324 . S
O342 C329 1.258 . S
O343 Eu321 2.500 . S
O343 C326 1.273 . S
O344 Eu321 2.473 . S
O344 C326 1.257 . S
H345 C331 0.929 . S
H346 C333 0.931 . S
H347 C335 0.929 . S
O348 Tb349 2.292 . S
O348 C351 1.255 . S
Tb349 O348 2.292 . S
Tb349 O365 2.326 . S
Tb349 O367 2.500 . S
Tb349 O368 2.473 . S
Tb349 O371 2.324 1_554 S
Eu350 O354 2.292 . S
Eu350 C355 2.852 1_554 S
Eu350 O366 2.324 . S
Eu350 O370 2.326 1_554 S
Eu350 O372 2.500 1_554 S
Eu350 O373 2.473 . S
C351 O348 1.255 . S
C351 O352 1.247 . S
O352 C351 1.247 . S
C353 O365 1.242 . S
C353 O366 1.258 . S
O354 Eu350 2.292 . S
O354 C356 1.255 . S
C355 Eu350 2.852 1_556 S
C355 C359 1.503 . S
C355 O372 1.273 . S
C355 O373 1.257 1_556 S
C356 O354 1.255 . S
C356 O357 1.247 . S
O357 C356 1.247 . S
C358 O370 1.242 . S
C358 O371 1.258 . S
C359 C355 1.503 . S
C359 C360 1.379 . S
C359 C364 1.392 . S
C360 C359 1.379 . S
C360 C361 1.404 . S
C360 H374 0.929 . S
C361 C360 1.404 . S
C361 C362 1.389 . S
C362 C361 1.389 . S
C362 C363 1.399 . S
C362 H375 0.931 . S
C363 C362 1.399 . S
C363 C364 1.390 . S
C364 C359 1.392 . S
C364 C363 1.390 . S
C364 H376 0.929 . S
O365 Tb349 2.326 . S
O365 C353 1.242 . S
O366 Eu350 2.324 . S
O366 C353 1.258 . S
O367 Tb349 2.500 . S
O367 C369 1.273 . S
O368 Tb349 2.473 . S
O368 C369 1.257 . S
C369 O367 1.273 . S
C369 O368 1.257 . S
O370 Eu350 2.326 1_556 S
O370 C358 1.242 . S
O371 Tb349 2.324 1_556 S
O371 C358 1.258 . S
O372 Eu350 2.500 1_556 S
O372 C355 1.273 . S
O373 Eu350 2.473 . S
O373 C355 1.257 1_554 S
H374 C360 0.929 . S
H375 C362 0.931 . S
H376 C364 0.929 . S
O377 Tb378 2.292 . S
O377 C380 1.255 . S
Tb378 O377 2.292 . S
Tb378 O394 2.326 . S
Tb378 O396 2.500 . S
Tb378 O397 2.473 . S
Tb378 O400 2.324 1_554 S
Eu379 O383 2.292 . S
Eu379 C384 2.852 1_554 S
Eu379 O395 2.324 . S
Eu379 O399 2.326 1_554 S
Eu379 O401 2.500 1_554 S
Eu379 O402 2.473 . S
C380 O377 1.255 . S
C380 O381 1.247 . S
O381 C380 1.247 . S
C382 O394 1.242 . S
C382 O395 1.258 . S
O383 Eu379 2.292 . S
O383 C385 1.255 . S
C384 Eu379 2.852 1_556 S
C384 C388 1.503 . S
C384 O401 1.273 . S
C384 O402 1.257 1_556 S
C385 O383 1.255 . S
C385 O386 1.247 . S
O386 C385 1.247 . S
C387 O399 1.242 . S
C387 O400 1.258 . S
C388 C384 1.503 . S
C388 C389 1.379 . S
C388 C393 1.392 . S
C389 C388 1.379 . S
C389 C390 1.404 . S
C389 H403 0.929 . S
C390 C389 1.404 . S
C390 C391 1.389 . S
C391 C390 1.389 . S
C391 C392 1.399 . S
C391 H404 0.931 . S
C392 C391 1.399 . S
C392 C393 1.390 . S
C393 C388 1.392 . S
C393 C392 1.390 . S
C393 H405 0.929 . S
O394 Tb378 2.326 . S
O394 C382 1.242 . S
O395 Eu379 2.324 . S
O395 C382 1.258 . S
O396 Tb378 2.500 . S
O396 C398 1.273 . S
O397 Tb378 2.473 . S
O397 C398 1.257 . S
C398 O396 1.273 . S
C398 O397 1.257 . S
O399 Eu379 2.326 1_556 S
O399 C387 1.242 . S
O400 Tb378 2.324 1_556 S
O400 C387 1.258 . S
O401 Eu379 2.500 1_556 S
O401 C384 1.273 . S
O402 Eu379 2.473 . S
O402 C384 1.257 1_554 S
H403 C389 0.929 . S
H404 C391 0.931 . S
H405 C393 0.929 . S
O406 Tb407 2.292 . S
O406 C409 1.255 . S
Tb407 O406 2.292 . S
Tb407 O423 2.326 . S
Tb407 O425 2.500 . S
Tb407 O426 2.473 . S
Tb407 O429 2.324 . S
Eu408 O412 2.292 . S
Eu408 C413 2.852 . S
Eu408 O424 2.324 . S
Eu408 O428 2.326 . S
Eu408 O430 2.500 . S
Eu408 O431 2.473 . S
C409 O406 1.255 . S
C409 O410 1.247 . S
O410 C409 1.247 . S
C411 O423 1.242 . S
C411 O424 1.258 . S
O412 Eu408 2.292 . S
O412 C414 1.255 . S
C413 Eu408 2.852 . S
C413 C417 1.503 . S
C413 O430 1.273 . S
C413 O431 1.257 . S
C414 O412 1.255 . S
C414 O415 1.247 . S
O415 C414 1.247 . S
C416 O428 1.242 . S
C416 O429 1.258 . S
C417 C413 1.503 . S
C417 C418 1.379 . S
C417 C422 1.392 . S
C418 C417 1.379 . S
C418 C419 1.404 . S
C418 H432 0.929 . S
C419 C418 1.404 . S
C419 C420 1.389 . S
C420 C419 1.389 . S
C420 C421 1.399 . S
C420 H433 0.931 . S
C421 C420 1.399 . S
C421 C422 1.390 . S
C422 C417 1.392 . S
C422 C421 1.390 . S
C422 H434 0.929 . S
O423 Tb407 2.326 . S
O423 C411 1.242 . S
O424 Eu408 2.324 . S
O424 C411 1.258 . S
O425 Tb407 2.500 . S
O425 C427 1.273 . S
O426 Tb407 2.473 . S
O426 C427 1.257 . S
C427 O425 1.273 . S
C427 O426 1.257 . S
O428 Eu408 2.326 . S
O428 C416 1.242 . S
O429 Tb407 2.324 . S
O429 C416 1.258 . S
O430 Eu408 2.500 . S
O430 C413 1.273 . S
O431 Eu408 2.473 . S
O431 C413 1.257 . S
H432 C418 0.929 . S
H433 C420 0.931 . S
H434 C422 0.929 . S
O435 Tb436 2.292 . S
O435 C438 1.255 . S
Tb436 O435 2.292 . S
Tb436 O452 2.326 . S
Tb436 O454 2.500 . S
Tb436 O455 2.473 . S
Tb436 O458 2.324 . S
Eu437 O441 2.292 . S
Eu437 C442 2.852 . S
Eu437 O453 2.324 . S
Eu437 O457 2.326 . S
Eu437 O459 2.500 . S
Eu437 O460 2.473 . S
C438 O435 1.255 . S
C438 O439 1.247 . S
O439 C438 1.247 . S
C440 O452 1.242 . S
C440 O453 1.258 . S
O441 Eu437 2.292 . S
O441 C443 1.255 . S
C442 Eu437 2.852 . S
C442 C446 1.503 . S
C442 O459 1.273 . S
C442 O460 1.257 . S
C443 O441 1.255 . S
C443 O444 1.247 . S
O444 C443 1.247 . S
C445 O457 1.242 . S
C445 O458 1.258 . S
C446 C442 1.503 . S
C446 C447 1.379 . S
C446 C451 1.392 . S
C447 C446 1.379 . S
C447 C448 1.404 . S
C447 H461 0.929 . S
C448 C447 1.404 . S
C448 C449 1.389 . S
C449 C448 1.389 . S
C449 C450 1.399 . S
C449 H462 0.931 . S
C450 C449 1.399 . S
C450 C451 1.390 . S
C451 C446 1.392 . S
C451 C450 1.390 . S
C451 H463 0.929 . S
O452 Tb436 2.326 . S
O452 C440 1.242 . S
O453 Eu437 2.324 . S
O453 C440 1.258 . S
O454 Tb436 2.500 . S
O454 C456 1.273 . S
O455 Tb436 2.473 . S
O455 C456 1.257 . S
C456 O454 1.273 . S
C456 O455 1.257 . S
O457 Eu437 2.326 . S
O457 C445 1.242 . S
O458 Tb436 2.324 . S
O458 C445 1.258 . S
O459 Eu437 2.500 . S
O459 C442 1.273 . S
O460 Eu437 2.473 . S
O460 C442 1.257 . S
H461 C447 0.929 . S
H462 C449 0.931 . S
H463 C451 0.929 . S
H464 C470 0.930 . S
H465 C473 0.930 . S
H466 C474 0.930 . S
H467 C475 0.930 . S
H468 C478 0.930 . S
H469 C479 0.930 . S
C470 H464 0.930 . S
C470 C471 1.355 . S
C470 C472 1.415 . S
C471 C470 1.355 . S
C471 C473 1.419 . S
C472 C470 1.415 . S
C472 C477 1.425 . S
C472 C479 1.409 . S
C473 H465 0.930 . S
C473 C471 1.419 . S
C473 C474 1.362 . S
C474 H466 0.930 . S
C474 C473 1.362 . S
C474 C477 1.409 . S
C475 H467 0.930 . S
C475 C476 1.355 . S
C475 C477 1.415 . S
C476 C475 1.355 . S
C476 C478 1.419 . S
C477 C472 1.425 . S
C477 C474 1.409 . S
C477 C475 1.415 . S
C478 H468 0.930 . S
C478 C476 1.419 . S
C478 C479 1.362 . S
C479 H469 0.930 . S
C479 C472 1.409 . S
C479 C478 1.362 . S
H480 C486 0.930 . S
H481 C489 0.930 . S
H482 C490 0.930 . S
H483 C491 0.930 . S
H484 C494 0.930 . S
H485 C495 0.930 . S
C486 H480 0.930 . S
C486 C487 1.355 . S
C486 C488 1.415 . S
C487 C486 1.355 . S
C487 C489 1.419 . S
C488 C486 1.415 . S
C488 C493 1.425 . S
C488 C495 1.409 . S
C489 H481 0.930 . S
C489 C487 1.419 . S
C489 C490 1.362 . S
C490 H482 0.930 . S
C490 C489 1.362 . S
C490 C493 1.409 . S
C491 H483 0.930 . S
C491 C492 1.355 . S
C491 C493 1.415 . S
C492 C491 1.355 . S
C492 C494 1.419 . S
C493 C488 1.425 . S
C493 C490 1.409 . S
C493 C491 1.415 . S
C494 H484 0.930 . S
C494 C492 1.419 . S
C494 C495 1.362 . S
C495 H485 0.930 . S
C495 C488 1.409 . S
C495 C494 1.362 . S
H496 C502 0.930 . S
H497 C505 0.930 . S
H498 C506 0.930 . S
H499 C507 0.930 . S
H500 C510 0.930 . S
H501 C511 0.930 . S
C502 H496 0.930 . S
C502 C503 1.355 . S
C502 C504 1.415 . S
C503 C502 1.355 . S
C503 C505 1.419 . S
C504 C502 1.415 . S
C504 C509 1.425 . S
C504 C511 1.409 . S
C505 H497 0.930 . S
C505 C503 1.419 . S
C505 C506 1.362 . S
C506 H498 0.930 . S
C506 C505 1.362 . S
C506 C509 1.409 . S
C507 H499 0.930 . S
C507 C508 1.355 . S
C507 C509 1.415 . S
C508 C507 1.355 . S
C508 C510 1.419 . S
C509 C504 1.425 . S
C509 C506 1.409 . S
C509 C507 1.415 . S
C510 H500 0.930 . S
C510 C508 1.419 . S
C510 C511 1.362 . S
C511 H501 0.930 . S
C511 C504 1.409 . S
C511 C510 1.362 . S
H512 C518 0.930 . S
H513 C521 0.930 . S
H514 C522 0.930 . S
H515 C523 0.930 . S
H516 C526 0.930 . S
H517 C527 0.930 . S
C518 H512 0.930 . S
C518 C519 1.355 . S
C518 C520 1.415 . S
C519 C518 1.355 . S
C519 C521 1.419 . S
C520 C518 1.415 . S
C520 C525 1.425 . S
C520 C527 1.409 . S
C521 H513 0.930 . S
C521 C519 1.419 . S
C521 C522 1.362 . S
C522 H514 0.930 . S
C522 C521 1.362 . S
C522 C525 1.409 . S
C523 H515 0.930 . S
C523 C524 1.355 . S
C523 C525 1.415 . S
C524 C523 1.355 . S
C524 C526 1.419 . S
C525 C520 1.425 . S
C525 C522 1.409 . S
C525 C523 1.415 . S
C526 H516 0.930 . S
C526 C524 1.419 . S
C526 C527 1.362 . S
C527 H517 0.930 . S
C527 C520 1.409 . S
C527 C526 1.362 . S
H528 C534 0.930 . S
H529 C537 0.930 . S
H530 C538 0.930 . S
H531 C539 0.930 . S
H532 C542 0.930 . S
H533 C543 0.930 . S
C534 H528 0.930 . S
C534 C535 1.355 . S
C534 C536 1.415 . S
C535 C534 1.355 . S
C535 C537 1.419 . S
C536 C534 1.415 . S
C536 C541 1.425 . S
C536 C543 1.409 . S
C537 H529 0.930 . S
C537 C535 1.419 . S
C537 C538 1.362 . S
C538 H530 0.930 . S
C538 C537 1.362 . S
C538 C541 1.409 . S
C539 H531 0.930 . S
C539 C540 1.355 . S
C539 C541 1.415 . S
C540 C539 1.355 . S
C540 C542 1.419 . S
C541 C536 1.425 . S
C541 C538 1.409 . S
C541 C539 1.415 . S
C542 H532 0.930 . S
C542 C540 1.419 . S
C542 C543 1.362 . S
C543 H533 0.930 . S
C543 C536 1.409 . S
C543 C542 1.362 . S
H544 C550 0.930 . S
H545 C553 0.930 . S
H546 C554 0.930 . S
H547 C555 0.930 . S
H548 C558 0.930 . S
H549 C559 0.930 . S
C550 H544 0.930 . S
C550 C551 1.355 . S
C550 C552 1.415 . S
C551 C550 1.355 . S
C551 C553 1.419 . S
C552 C550 1.415 . S
C552 C557 1.425 . S
C552 C559 1.409 . S
C553 H545 0.930 . S
C553 C551 1.419 . S
C553 C554 1.362 . S
C554 H546 0.930 . S
C554 C553 1.362 . S
C554 C557 1.409 . S
C555 H547 0.930 . S
C555 C556 1.355 . S
C555 C557 1.415 . S
C556 C555 1.355 . S
C556 C558 1.419 . S
C557 C552 1.425 . S
C557 C554 1.409 . S
C557 C555 1.415 . S
C558 H548 0.930 . S
C558 C556 1.419 . S
C558 C559 1.362 . S
C559 H549 0.930 . S
C559 C552 1.409 . S
C559 C558 1.362 . S
H560 C566 0.930 . S
H561 C569 0.930 . S
H562 C570 0.930 . S
H563 C571 0.930 . S
H564 C574 0.930 . S
H565 C575 0.930 . S
C566 H560 0.930 . S
C566 C567 1.355 . S
C566 C568 1.415 . S
C567 C566 1.355 . S
C567 C569 1.419 . S
C568 C566 1.415 . S
C568 C573 1.425 . S
C568 C575 1.409 . S
C569 H561 0.930 . S
C569 C567 1.419 . S
C569 C570 1.362 . S
C570 H562 0.930 . S
C570 C569 1.362 . S
C570 C573 1.409 . S
C571 H563 0.930 . S
C571 C572 1.355 . S
C571 C573 1.415 . S
C572 C571 1.355 . S
C572 C574 1.419 . S
C573 C568 1.425 . S
C573 C570 1.409 . S
C573 C571 1.415 . S
C574 H564 0.930 . S
C574 C572 1.419 . S
C574 C575 1.362 . S
C575 H565 0.930 . S
C575 C568 1.409 . S
C575 C574 1.362 . S
H576 C582 0.930 . S
H577 C585 0.930 . S
H578 C586 0.930 . S
H579 C587 0.930 . S
H580 C590 0.930 . S
H581 C591 0.930 . S
C582 H576 0.930 . S
C582 C583 1.355 . S
C582 C584 1.415 . S
C583 C582 1.355 . S
C583 C585 1.419 . S
C584 C582 1.415 . S
C584 C589 1.425 . S
C584 C591 1.409 . S
C585 H577 0.930 . S
C585 C583 1.419 . S
C585 C586 1.362 . S
C586 H578 0.930 . S
C586 C585 1.362 . S
C586 C589 1.409 . S
C587 H579 0.930 . S
C587 C588 1.355 . S
C587 C589 1.415 . S
C588 C587 1.355 . S
C588 C590 1.419 . S
C589 C584 1.425 . S
C589 C586 1.409 . S
C589 C587 1.415 . S
C590 H580 0.930 . S
C590 C588 1.419 . S
C590 C591 1.362 . S
C591 H581 0.930 . S
C591 C584 1.409 . S
C591 C590 1.362 . S
H592 C598 0.930 . S
H593 C601 0.930 . S
H594 C602 0.930 . S
H595 C603 0.930 . S
H596 C606 0.930 . S
H597 C607 0.930 . S
C598 H592 0.930 . S
C598 C599 1.355 . S
C598 C600 1.415 . S
C599 C598 1.355 . S
C599 C601 1.419 . S
C600 C598 1.415 . S
C600 C605 1.425 . S
C600 C607 1.409 . S
C601 H593 0.930 . S
C601 C599 1.419 . S
C601 C602 1.362 . S
C602 H594 0.930 . S
C602 C601 1.362 . S
C602 C605 1.409 . S
C603 H595 0.930 . S
C603 C604 1.355 . S
C603 C605 1.415 . S
C604 C603 1.355 . S
C604 C606 1.419 . S
C605 C600 1.425 . S
C605 C602 1.409 . S
C605 C603 1.415 . S
C606 H596 0.930 . S
C606 C604 1.419 . S
C606 C607 1.362 . S
C607 H597 0.930 . S
C607 C600 1.409 . S
C607 C606 1.362 . S
H608 C614 0.930 . S
H609 C617 0.930 . S
H610 C618 0.930 . S
H611 C619 0.930 . S
H612 C622 0.930 . S
H613 C623 0.930 . S
C614 H608 0.930 . S
C614 C615 1.355 . S
C614 C616 1.415 . S
C615 C614 1.355 . S
C615 C617 1.419 . S
C616 C614 1.415 . S
C616 C621 1.425 . S
C616 C623 1.409 . S
C617 H609 0.930 . S
C617 C615 1.419 . S
C617 C618 1.362 . S
C618 H610 0.930 . S
C618 C617 1.362 . S
C618 C621 1.409 . S
C619 H611 0.930 . S
C619 C620 1.355 . S
C619 C621 1.415 . S
C620 C619 1.355 . S
C620 C622 1.419 . S
C621 C616 1.425 . S
C621 C618 1.409 . S
C621 C619 1.415 . S
C622 H612 0.930 . S
C622 C620 1.419 . S
C622 C623 1.362 . S
C623 H613 0.930 . S
C623 C616 1.409 . S
C623 C622 1.362 . S
H624 C630 0.930 . S
H625 C633 0.930 . S
H626 C634 0.930 . S
H627 C635 0.930 . S
H628 C638 0.930 . S
H629 C639 0.930 . S
C630 H624 0.930 . S
C630 C631 1.355 . S
C630 C632 1.415 . S
C631 C630 1.355 . S
C631 C633 1.419 . S
C632 C630 1.415 . S
C632 C637 1.425 . S
C632 C639 1.409 . S
C633 H625 0.930 . S
C633 C631 1.419 . S
C633 C634 1.362 . S
C634 H626 0.930 . S
C634 C633 1.362 . S
C634 C637 1.409 . S
C635 H627 0.930 . S
C635 C636 1.355 . S
C635 C637 1.415 . S
C636 C635 1.355 . S
C636 C638 1.419 . S
C637 C632 1.425 . S
C637 C634 1.409 . S
C637 C635 1.415 . S
C638 H628 0.930 . S
C638 C636 1.419 . S
C638 C639 1.362 . S
C639 H629 0.930 . S
C639 C632 1.409 . S
C639 C638 1.362 . S
H640 C646 0.930 . S
H641 C649 0.930 . S
H642 C650 0.930 . S
H643 C651 0.930 . S
H644 C654 0.930 . S
H645 C655 0.930 . S
C646 H640 0.930 . S
C646 C647 1.355 . S
C646 C648 1.415 . S
C647 C646 1.355 . S
C647 C649 1.419 . S
C648 C646 1.415 . S
C648 C653 1.425 . S
C648 C655 1.409 . S
C649 H641 0.930 . S
C649 C647 1.419 . S
C649 C650 1.362 . S
C650 H642 0.930 . S
C650 C649 1.362 . S
C650 C653 1.409 . S
C651 H643 0.930 . S
C651 C652 1.355 . S
C651 C653 1.415 . S
C652 C651 1.355 . S
C652 C654 1.419 . S
C653 C648 1.425 . S
C653 C650 1.409 . S
C653 C651 1.415 . S
C654 H644 0.930 . S
C654 C652 1.419 . S
C654 C655 1.362 . S
C655 H645 0.930 . S
C655 C648 1.409 . S
C655 C654 1.362 . S
H656 C662 0.930 . S
H657 C665 0.930 . S
H658 C666 0.930 . S
H659 C667 0.930 . S
H660 C670 0.930 . S
H661 C671 0.930 . S
C662 H656 0.930 . S
C662 C663 1.355 . S
C662 C664 1.415 . S
C663 C662 1.355 . S
C663 C665 1.419 . S
C664 C662 1.415 . S
C664 C669 1.425 . S
C664 C671 1.409 . S
C665 H657 0.930 . S
C665 C663 1.419 . S
C665 C666 1.362 . S
C666 H658 0.930 . S
C666 C665 1.362 . S
C666 C669 1.409 . S
C667 H659 0.930 . S
C667 C668 1.355 . S
C667 C669 1.415 . S
C668 C667 1.355 . S
C668 C670 1.419 . S
C669 C664 1.425 . S
C669 C666 1.409 . S
C669 C667 1.415 . S
C670 H660 0.930 . S
C670 C668 1.419 . S
C670 C671 1.362 . S
C671 H661 0.930 . S
C671 C664 1.409 . S
C671 C670 1.362 . S
H672 C678 0.930 . S
H673 C681 0.930 . S
H674 C682 0.930 . S
H675 C683 0.930 . S
H676 C686 0.930 . S
H677 C687 0.930 . S
C678 H672 0.930 . S
C678 C679 1.355 . S
C678 C680 1.415 . S
C679 C678 1.355 . S
C679 C681 1.419 . S
C680 C678 1.415 . S
C680 C685 1.425 . S
C680 C687 1.409 . S
C681 H673 0.930 . S
C681 C679 1.419 . S
C681 C682 1.362 . S
C682 H674 0.930 . S
C682 C681 1.362 . S
C682 C685 1.409 . S
C683 H675 0.930 . S
C683 C684 1.355 . S
C683 C685 1.415 . S
C684 C683 1.355 . S
C684 C686 1.419 . S
C685 C680 1.425 . S
C685 C682 1.409 . S
C685 C683 1.415 . S
C686 H676 0.930 . S
C686 C684 1.419 . S
C686 C687 1.362 . S
C687 H677 0.930 . S
C687 C680 1.409 . S
C687 C686 1.362 . S
H688 C694 0.930 . S
H689 C697 0.930 . S
H690 C698 0.930 . S
H691 C699 0.930 . S
H692 C702 0.930 . S
H693 C703 0.930 . S
C694 H688 0.930 . S
C694 C695 1.355 . S
C694 C696 1.415 . S
C695 C694 1.355 . S
C695 C697 1.419 . S
C696 C694 1.415 . S
C696 C701 1.425 . S
C696 C703 1.409 . S
C697 H689 0.930 . S
C697 C695 1.419 . S
C697 C698 1.362 . S
C698 H690 0.930 . S
C698 C697 1.362 . S
C698 C701 1.409 . S
C699 H691 0.930 . S
C699 C700 1.355 . S
C699 C701 1.415 . S
C700 C699 1.355 . S
C700 C702 1.419 . S
C701 C696 1.425 . S
C701 C698 1.409 . S
C701 C699 1.415 . S
C702 H692 0.930 . S
C702 C700 1.419 . S
C702 C703 1.362 . S
C703 H693 0.930 . S
C703 C696 1.409 . S
C703 C702 1.362 . S
H704 C710 0.930 . S
H705 C713 0.930 . S
H706 C714 0.930 . S
H707 C715 0.930 . S
H708 C718 0.930 . S
H709 C719 0.930 . S
C710 H704 0.930 . S
C710 C711 1.355 . S
C710 C712 1.415 . S
C711 C710 1.355 . S
C711 C713 1.419 . S
C712 C710 1.415 . S
C712 C717 1.425 . S
C712 C719 1.409 . S
C713 H705 0.930 . S
C713 C711 1.419 . S
C713 C714 1.362 . S
C714 H706 0.930 . S
C714 C713 1.362 . S
C714 C717 1.409 . S
C715 H707 0.930 . S
C715 C716 1.355 . S
C715 C717 1.415 . S
C716 C715 1.355 . S
C716 C718 1.419 . S
C717 C712 1.425 . S
C717 C714 1.409 . S
C717 C715 1.415 . S
C718 H708 0.930 . S
C718 C716 1.419 . S
C718 C719 1.362 . S
C719 H709 0.930 . S
C719 C712 1.409 . S
C719 C718 1.362 . S
H720 C726 0.930 . S
H721 C729 0.930 . S
H722 C730 0.930 . S
H723 C731 0.930 1_556 S
H724 C734 0.930 . S
H725 C735 0.930 . S
C726 H720 0.930 . S
C726 C727 1.355 . S
C726 C728 1.415 . S
C727 C726 1.355 . S
C727 C729 1.419 1_554 S
C728 C726 1.415 . S
C728 C733 1.425 . S
C728 C735 1.409 . S
C729 H721 0.930 . S
C729 C727 1.419 1_556 S
C729 C730 1.362 . S
C730 H722 0.930 . S
C730 C729 1.362 . S
C730 C733 1.409 1_556 S
C731 H723 0.930 1_554 S
C731 C732 1.355 . S
C731 C733 1.415 . S
C732 C731 1.355 . S
C732 C734 1.419 . S
C733 C728 1.425 . S
C733 C730 1.409 1_554 S
C733 C731 1.415 . S
C734 H724 0.930 . S
C734 C732 1.419 . S
C734 C735 1.362 . S
C735 H725 0.930 . S
C735 C728 1.409 . S
C735 C734 1.362 . S
H736 C742 0.930 . S
H737 C745 0.930 . S
H738 C746 0.930 . S
H739 C747 0.930 . S
H740 C750 0.930 . S
H741 C751 0.930 . S
C742 H736 0.930 . S
C742 C743 1.355 1_556 S
C742 C744 1.414 1_556 S
C743 C742 1.355 1_554 S
C743 C745 1.419 . S
C744 C742 1.414 1_554 S
C744 C749 1.431 . S
C744 C751 1.405 1_554 S
C745 H737 0.930 . S
C745 C743 1.419 . S
C745 C746 1.362 . S
C746 H738 0.930 . S
C746 C745 1.362 . S
C746 C749 1.409 . S
C747 H739 0.930 . S
C747 C748 1.355 . S
C747 C749 1.415 . S
C748 C747 1.355 . S
C748 C750 1.419 1_554 S
C749 C744 1.431 . S
C749 C746 1.409 . S
C749 C747 1.415 . S
C750 H740 0.930 . S
C750 C748 1.419 1_556 S
C750 C751 1.362 . S
C751 H741 0.930 . S
C751 C744 1.405 1_556 S
C751 C750 1.362 . S
H752 C758 0.930 . S
H753 C761 0.930 . S
H754 C762 0.930 . S
H755 C763 0.930 . S
H756 C766 0.930 . S
H757 C767 0.930 . S
C758 H752 0.930 . S
C758 C759 1.355 . S
C758 C760 1.415 . S
C759 C758 1.355 . S
C759 C761 1.419 1_655 S
C760 C758 1.415 . S
C760 C765 1.425 1_655 S
C760 C767 1.409 . S
C761 H753 0.930 . S
C761 C759 1.419 1_455 S
C761 C762 1.362 . S
C762 H754 0.930 . S
C762 C761 1.362 . S
C762 C765 1.409 . S
C763 H755 0.930 . S
C763 C764 1.355 . S
C763 C765 1.415 . S
C764 C763 1.355 . S
C764 C766 1.419 1_455 S
C765 C760 1.425 1_455 S
C765 C762 1.409 . S
C765 C763 1.415 . S
C766 H756 0.930 . S
C766 C764 1.419 1_655 S
C766 C767 1.362 . S
C767 H757 0.930 . S
C767 C760 1.409 . S
C767 C766 1.362 . S
H768 C774 0.930 . S
H769 C777 0.930 . S
H770 C778 0.930 . S
H771 C779 0.930 . S
H772 C782 0.930 . S
H773 C783 0.930 . S
C774 H768 0.930 . S
C774 C775 1.355 . S
C774 C776 1.415 . S
C775 C774 1.355 . S
C775 C777 1.419 . S
C776 C774 1.415 . S
C776 C781 1.425 . S
C776 C783 1.409 . S
C777 H769 0.930 . S
C777 C775 1.419 . S
C777 C778 1.362 . S
C778 H770 0.930 . S
C778 C777 1.362 . S
C778 C781 1.409 . S
C779 H771 0.930 . S
C779 C780 1.355 . S
C779 C781 1.415 . S
C780 C779 1.355 . S
C780 C782 1.419 . S
C781 C776 1.425 . S
C781 C778 1.409 . S
C781 C779 1.415 . S
C782 H772 0.930 . S
C782 C780 1.419 . S
C782 C783 1.362 . S
C783 H773 0.930 . S
C783 C776 1.409 . S
C783 C782 1.362 . S
H784 C790 0.930 . S
H785 C793 0.930 . S
H786 C794 0.930 . S
H787 C795 0.930 . S
H788 C798 0.930 . S
H789 C799 0.930 . S
C790 H784 0.930 . S
C790 C791 1.355 . S
C790 C792 1.415 . S
C791 C790 1.355 . S
C791 C793 1.419 . S
C792 C790 1.415 . S
C792 C797 1.425 . S
C792 C799 1.409 . S
C793 H785 0.930 . S
C793 C791 1.419 . S
C793 C794 1.362 . S
C794 H786 0.930 . S
C794 C793 1.362 . S
C794 C797 1.409 . S
C795 H787 0.930 . S
C795 C796 1.355 . S
C795 C797 1.415 . S
C796 C795 1.355 . S
C796 C798 1.419 . S
C797 C792 1.425 . S
C797 C794 1.409 . S
C797 C795 1.415 . S
C798 H788 0.930 . S
C798 C796 1.419 . S
C798 C799 1.362 . S
C799 H789 0.930 . S
C799 C792 1.409 . S
C799 C798 1.362 . S
H800 C806 0.930 . S
H801 C809 0.930 . S
H802 C810 0.930 . S
H803 C811 0.930 . S
H804 C814 0.930 . S
H805 C815 0.930 . S
C806 H800 0.930 . S
C806 C807 1.355 . S
C806 C808 1.402 1_565 S
C807 C806 1.355 . S
C807 C809 1.419 1_655 S
C808 C806 1.402 1_545 S
C808 C813 1.425 1_645 S
C808 C815 1.422 . S
C809 H801 0.930 . S
C809 C807 1.419 1_455 S
C809 C810 1.362 . S
C810 H802 0.930 . S
C810 C809 1.362 . S
C810 C813 1.422 . S
C811 H803 0.930 . S
C811 C812 1.355 . S
C811 C813 1.402 1_545 S
C812 C811 1.355 . S
C812 C814 1.419 1_455 S
C813 C808 1.425 1_465 S
C813 C810 1.422 . S
C813 C811 1.402 1_565 S
C814 H804 0.930 . S
C814 C812 1.419 1_655 S
C814 C815 1.362 . S
C815 H805 0.930 . S
C815 C808 1.422 . S
C815 C814 1.362 . S
H816 C822 0.930 . S
H817 C825 0.930 . S
H818 C826 0.930 . S
H819 C827 0.930 . S
H820 C830 0.930 . S
H821 C831 0.930 . S
C822 H816 0.930 . S
C822 C823 1.355 . S
C822 C824 1.415 . S
C823 C822 1.355 . S
C823 C825 1.419 . S
C824 C822 1.415 . S
C824 C829 1.425 . S
C824 C831 1.409 . S
C825 H817 0.930 . S
C825 C823 1.419 . S
C825 C826 1.362 . S
C826 H818 0.930 . S
C826 C825 1.362 . S
C826 C829 1.409 . S
C827 H819 0.930 . S
C827 C828 1.355 . S
C827 C829 1.415 . S
C828 C827 1.355 . S
C828 C830 1.419 . S
C829 C824 1.425 . S
C829 C826 1.409 . S
C829 C827 1.415 . S
C830 H820 0.930 . S
C830 C828 1.419 . S
C830 C831 1.362 . S
C831 H821 0.930 . S
C831 C824 1.409 . S
C831 C830 1.362 . S
H832 C838 0.930 . S
H833 C841 0.930 . S
H834 C842 0.930 . S
H835 C843 0.930 . S
H836 C846 0.930 . S
H837 C847 0.930 . S
C838 H832 0.930 . S
C838 C839 1.355 . S
C838 C840 1.415 . S
C839 C838 1.355 . S
C839 C841 1.419 . S
C840 C838 1.415 . S
C840 C845 1.425 1_565 S
C840 C847 1.409 1_565 S
C841 H833 0.930 . S
C841 C839 1.419 . S
C841 C842 1.362 . S
C842 H834 0.930 . S
C842 C841 1.362 . S
C842 C845 1.409 1_565 S
C843 H835 0.930 . S
C843 C844 1.355 . S
C843 C845 1.415 . S
C844 C843 1.355 . S
C844 C846 1.419 . S
C845 C840 1.425 1_545 S
C845 C842 1.409 1_545 S
C845 C843 1.415 . S
C846 H836 0.930 . S
C846 C844 1.419 . S
C846 C847 1.362 . S
C847 H837 0.930 . S
C847 C840 1.409 1_545 S
C847 C846 1.362 . S
H848 C854 0.930 . S
H849 C857 0.930 . S
H850 C858 0.930 . S
H851 C859 0.930 . S
H852 C862 0.930 . S
H853 C863 0.930 . S
C854 H848 0.930 . S
C854 C855 1.355 1_545 S
C854 C856 1.415 . S
C855 C854 1.355 1_565 S
C855 C857 1.419 . S
C856 C854 1.415 . S
C856 C861 1.425 . S
C856 C863 1.409 . S
C857 H849 0.930 . S
C857 C855 1.419 . S
C857 C858 1.362 . S
C858 H850 0.930 . S
C858 C857 1.362 . S
C858 C861 1.409 1_565 S
C859 H851 0.930 . S
C859 C860 1.355 . S
C859 C861 1.415 . S
C860 C859 1.355 . S
C860 C862 1.419 . S
C861 C856 1.425 . S
C861 C858 1.409 1_545 S
C861 C859 1.415 . S
C862 H852 0.930 . S
C862 C860 1.419 . S
C862 C863 1.362 . S
C863 H853 0.930 . S
C863 C856 1.409 . S
C863 C862 1.362 . S
H864 C870 0.930 . S
H865 C873 0.930 . S
H866 C874 0.930 1_545 S
H867 C875 0.930 . S
H868 C878 0.930 . S
H869 C879 0.930 . S
C870 H864 0.930 . S
C870 C871 1.355 . S
C870 C872 1.415 . S
C871 C870 1.355 . S
C871 C873 1.419 . S
C872 C870 1.415 . S
C872 C877 1.425 . S
C872 C879 1.409 . S
C873 H865 0.930 . S
C873 C871 1.419 . S
C873 C874 1.362 . S
C874 H866 0.930 1_565 S
C874 C873 1.362 . S
C874 C877 1.409 . S
C875 H867 0.930 . S
C875 C876 1.355 . S
C875 C877 1.415 1_545 S
C876 C875 1.355 . S
C876 C878 1.419 1_545 S
C877 C872 1.425 . S
C877 C874 1.409 . S
C877 C875 1.415 1_565 S
C878 H868 0.930 . S
C878 C876 1.419 1_565 S
C878 C879 1.362 . S
C879 H869 0.930 . S
C879 C872 1.409 . S
C879 C878 1.362 . S
H880 C886 0.930 . S
H881 C889 0.930 . S
H882 C890 0.930 . S
H883 C891 0.930 . S
H884 C894 0.930 . S
H885 C895 0.930 . S
C886 H880 0.930 . S
C886 C887 1.355 . S
C886 C888 1.415 . S
C887 C886 1.355 . S
C887 C889 1.419 . S
C888 C886 1.415 . S
C888 C893 1.425 . S
C888 C895 1.409 . S
C889 H881 0.930 . S
C889 C887 1.419 . S
C889 C890 1.362 . S
C890 H882 0.930 . S
C890 C889 1.362 . S
C890 C893 1.409 . S
C891 H883 0.930 . S
C891 C892 1.355 . S
C891 C893 1.415 . S
C892 C891 1.355 . S
C892 C894 1.419 . S
C893 C888 1.425 . S
C893 C890 1.409 . S
C893 C891 1.415 . S
C894 H884 0.930 . S
C894 C892 1.419 . S
C894 C895 1.362 . S
C895 H885 0.930 . S
C895 C888 1.409 . S
C895 C894 1.362 . S
H896 C902 0.930 . S
H897 C905 0.930 . S
H898 C906 0.930 . S
H899 C907 0.930 . S
H900 C910 0.930 . S
H901 C911 0.930 . S
C902 H896 0.930 . S
C902 C903 1.355 . S
C902 C904 1.415 . S
C903 C902 1.355 . S
C903 C905 1.419 . S
C904 C902 1.415 . S
C904 C909 1.425 . S
C904 C911 1.409 . S
C905 H897 0.930 . S
C905 C903 1.419 . S
C905 C906 1.362 . S
C906 H898 0.930 . S
C906 C905 1.362 . S
C906 C909 1.409 . S
C907 H899 0.930 . S
C907 C908 1.355 . S
C907 C909 1.415 . S
C908 C907 1.355 . S
C908 C910 1.419 . S
C909 C904 1.425 . S
C909 C906 1.409 . S
C909 C907 1.415 . S
C910 H900 0.930 . S
C910 C908 1.419 . S
C910 C911 1.362 . S
C911 H901 0.930 . S
C911 C904 1.409 . S
C911 C910 1.362 . S
H912 C918 0.930 . S
H913 C921 0.930 . S
H914 C922 0.930 . S
H915 C923 0.930 . S
H916 C926 0.930 . S
H917 C927 0.930 . S
C918 H912 0.930 . S
C918 C919 1.355 . S
C918 C920 1.415 . S
C919 C918 1.355 . S
C919 C921 1.419 . S
C920 C918 1.415 . S
C920 C925 1.425 . S
C920 C927 1.409 . S
C921 H913 0.930 . S
C921 C919 1.419 . S
C921 C922 1.362 . S
C922 H914 0.930 . S
C922 C921 1.362 . S
C922 C925 1.409 . S
C923 H915 0.930 . S
C923 C924 1.355 . S
C923 C925 1.415 . S
C924 C923 1.355 . S
C924 C926 1.419 . S
C925 C920 1.425 . S
C925 C922 1.409 . S
C925 C923 1.415 . S
C926 H916 0.930 . S
C926 C924 1.419 . S
C926 C927 1.362 . S
C927 H917 0.930 . S
C927 C920 1.409 . S
C927 C926 1.362 . S
H928 C934 0.930 . S
H929 C937 0.930 . S
H930 C938 0.930 . S
H931 C939 0.930 . S
H932 C942 0.930 . S
H933 C943 0.930 . S
C934 H928 0.930 . S
C934 C935 1.355 . S
C934 C936 1.415 . S
C935 C934 1.355 . S
C935 C937 1.419 . S
C936 C934 1.415 . S
C936 C941 1.425 . S
C936 C943 1.409 . S
C937 H929 0.930 . S
C937 C935 1.419 . S
C937 C938 1.362 . S
C938 H930 0.930 . S
C938 C937 1.362 . S
C938 C941 1.409 . S
C939 H931 0.930 . S
C939 C940 1.355 . S
C939 C941 1.415 . S
C940 C939 1.355 . S
C940 C942 1.419 . S
C941 C936 1.425 . S
C941 C938 1.409 . S
C941 C939 1.415 . S
C942 H932 0.930 . S
C942 C940 1.419 . S
C942 C943 1.362 . S
C943 H933 0.930 . S
C943 C936 1.409 . S
C943 C942 1.362 . S
H944 C950 0.930 . S
H945 C953 0.930 . S
H946 C954 0.919 1_455 S
H947 C955 0.930 . S
H948 C958 0.930 . S
H949 C959 0.930 . S
C950 H944 0.930 . S
C950 C951 1.355 . S
C950 C952 1.415 . S
C951 C950 1.355 . S
C951 C953 1.419 1_655 S
C952 C950 1.415 . S
C952 C957 1.425 1_554 S
C952 C959 1.409 1_554 S
C953 H945 0.930 . S
C953 C951 1.419 1_455 S
C953 C954 1.360 1_455 S
C954 H946 0.919 1_655 S
C954 C953 1.360 1_655 S
C954 C957 1.423 1_554 S
C955 H947 0.930 . S
C955 C956 1.355 . S
C955 C957 1.415 . S
C956 C955 1.355 . S
C956 C958 1.419 . S
C957 C952 1.425 1_556 S
C957 C954 1.423 1_556 S
C957 C955 1.415 . S
C958 H948 0.930 . S
C958 C956 1.419 . S
C958 C959 1.362 . S
C959 H949 0.930 . S
C959 C952 1.409 1_556 S
C959 C958 1.362 . S
H960 C966 0.930 . S
H961 C969 0.930 . S
H962 C970 0.930 . S
H963 C971 0.930 . S
H964 C974 0.930 . S
H965 C975 0.923 1_554 S
C966 H960 0.930 . S
C966 C967 1.355 . S
C966 C968 1.415 . S
C967 C966 1.355 . S
C967 C969 1.419 . S
C968 C966 1.415 . S
C968 C973 1.425 1_554 S
C968 C975 1.406 1_554 S
C969 H961 0.930 . S
C969 C967 1.419 . S
C969 C970 1.362 1_554 S
C970 H962 0.930 . S
C970 C969 1.362 1_556 S
C970 C973 1.409 . S
C971 H963 0.930 . S
C971 C972 1.355 . S
C971 C973 1.415 . S
C972 C971 1.355 . S
C972 C974 1.419 . S
C973 C968 1.425 1_556 S
C973 C970 1.409 . S
C973 C971 1.415 . S
C974 H964 0.930 . S
C974 C972 1.419 . S
C974 C975 1.372 . S
C975 H965 0.923 1_556 S
C975 C968 1.406 1_556 S
C975 C974 1.372 . S
H976 C982 0.930 . S
H977 C985 0.930 . S
H978 C986 0.930 . S
H979 C987 0.926 1_565 S
H980 C990 0.930 . S
H981 C991 0.930 . S
C982 H976 0.930 . S
C982 C983 1.355 1_545 S
C982 C984 1.415 . S
C983 C982 1.355 1_565 S
C983 C985 1.419 . S
C984 C982 1.415 . S
C984 C989 1.425 . S
C984 C991 1.409 . S
C985 H977 0.930 . S
C985 C983 1.419 . S
C985 C986 1.362 . S
C986 H978 0.930 . S
C986 C985 1.362 . S
C986 C989 1.409 1_565 S
C987 H979 0.926 1_545 S
C987 C988 1.355 . S
C987 C989 1.415 . S
C988 C987 1.355 . S
C988 C990 1.419 . S
C989 C984 1.425 . S
C989 C986 1.409 1_545 S
C989 C987 1.415 . S
C990 H980 0.930 . S
C990 C988 1.419 . S
C990 C991 1.362 . S
C991 H981 0.930 . S
C991 C984 1.409 . S
C991 C990 1.362 . S
H992 C998 0.930 . S
H993 C1001 0.930 . S
H994 C1002 0.930 . S
H995 C1003 0.930 . S
H996 C1006 0.930 . S
H997 C1007 0.927 1_545 S
C998 H992 0.930 . S
C998 C999 1.355 . S
C998 C1000 1.415 1_545 S
C999 C998 1.355 . S
C999 C1001 1.419 1_545 S
C1000 C998 1.415 1_565 S
C1000 C1005 1.425 . S
C1000 C1007 1.409 . S
C1001 H993 0.930 . S
C1001 C999 1.419 1_565 S
C1001 C1002 1.362 . S
C1002 H994 0.930 . S
C1002 C1001 1.362 . S
C1002 C1005 1.409 . S
C1003 H995 0.930 . S
C1003 C1004 1.355 . S
C1003 C1005 1.415 . S
C1004 C1003 1.355 . S
C1004 C1006 1.419 . S
C1005 C1000 1.425 . S
C1005 C1002 1.409 . S
C1005 C1003 1.415 . S
C1006 H996 0.930 . S
C1006 C1004 1.419 . S
C1006 C1007 1.362 . S
C1007 H997 0.927 1_565 S
C1007 C1000 1.409 . S
C1007 C1006 1.362 . S
H1008 C1014 0.930 . S
H1009 C1017 0.930 . S
H1010 C1018 0.930 . S
H1011 C1019 0.930 . S
H1012 C1022 0.930 . S
H1013 C1023 0.930 . S
C1014 H1008 0.930 . S
C1014 C1015 1.355 . S
C1014 C1016 1.415 1_554 S
C1015 C1014 1.355 . S
C1015 C1017 1.419 . S
C1016 C1014 1.415 1_556 S
C1016 C1021 1.425 1_556 S
C1016 C1023 1.409 . S
C1017 H1009 0.930 . S
C1017 C1015 1.419 . S
C1017 C1018 1.362 . S
C1018 H1010 0.930 . S
C1018 C1017 1.362 . S
C1018 C1021 1.409 . S
C1019 H1011 0.930 . S
C1019 C1020 1.355 . S
C1019 C1021 1.415 1_556 S
C1020 C1019 1.355 . S
C1020 C1022 1.419 . S
C1021 C1016 1.425 1_554 S
C1021 C1018 1.409 . S
C1021 C1019 1.415 1_554 S
C1022 H1012 0.930 . S
C1022 C1020 1.419 . S
C1022 C1023 1.362 . S
C1023 H1013 0.930 . S
C1023 C1016 1.409 . S
C1023 C1022 1.362 . S
H1024 C1030 0.930 . S
H1025 C1033 0.930 . S
H1026 C1034 0.930 . S
H1027 C1035 0.930 . S
H1028 C1038 0.930 . S
H1029 C1039 0.930 . S
C1030 H1024 0.930 . S
C1030 C1031 1.355 . S
C1030 C1032 1.415 1_554 S
C1031 C1030 1.355 . S
C1031 C1033 1.419 . S
C1032 C1030 1.415 1_556 S
C1032 C1037 1.425 1_556 S
C1032 C1039 1.409 . S
C1033 H1025 0.930 . S
C1033 C1031 1.419 . S
C1033 C1034 1.362 . S
C1034 H1026 0.930 . S
C1034 C1033 1.362 . S
C1034 C1037 1.415 . S
C1035 H1027 0.930 . S
C1035 C1036 1.355 . S
C1035 C1037 1.410 1_556 S
C1036 C1035 1.355 . S
C1036 C1038 1.419 . S
C1037 C1032 1.425 1_554 S
C1037 C1034 1.415 . S
C1037 C1035 1.410 1_554 S
C1038 H1028 0.930 . S
C1038 C1036 1.419 . S
C1038 C1039 1.362 . S
C1039 H1029 0.930 . S
C1039 C1032 1.409 . S
C1039 C1038 1.362 . S
H1040 C1046 0.930 . S
H1041 C1049 0.930 . S
H1042 C1050 0.930 . S
H1043 C1051 0.930 . S
H1044 C1054 0.930 . S
H1045 C1055 0.930 . S
C1046 H1040 0.930 . S
C1046 C1047 1.355 . S
C1046 C1048 1.415 . S
C1047 C1046 1.355 . S
C1047 C1049 1.419 . S
C1048 C1046 1.415 . S
C1048 C1053 1.425 . S
C1048 C1055 1.409 . S
C1049 H1041 0.930 . S
C1049 C1047 1.419 . S
C1049 C1050 1.362 . S
C1050 H1042 0.930 . S
C1050 C1049 1.362 . S
C1050 C1053 1.409 . S
C1051 H1043 0.930 . S
C1051 C1052 1.355 . S
C1051 C1053 1.415 . S
C1052 C1051 1.355 . S
C1052 C1054 1.419 . S
C1053 C1048 1.425 . S
C1053 C1050 1.409 . S
C1053 C1051 1.415 . S
C1054 H1044 0.930 . S
C1054 C1052 1.419 . S
C1054 C1055 1.362 . S
C1055 H1045 0.930 . S
C1055 C1048 1.409 . S
C1055 C1054 1.362 . S
H1056 C1062 0.930 . S
H1057 C1065 0.930 . S
H1058 C1066 0.930 . S
H1059 C1067 0.930 . S
H1060 C1070 0.930 . S
H1061 C1071 0.930 . S
C1062 H1056 0.930 . S
C1062 C1063 1.355 . S
C1062 C1064 1.415 . S
C1063 C1062 1.355 . S
C1063 C1065 1.419 . S
C1064 C1062 1.415 . S
C1064 C1069 1.425 . S
C1064 C1071 1.409 . S
C1065 H1057 0.930 . S
C1065 C1063 1.419 . S
C1065 C1066 1.362 . S
C1066 H1058 0.930 . S
C1066 C1065 1.362 . S
C1066 C1069 1.409 . S
C1067 H1059 0.930 . S
C1067 C1068 1.355 . S
C1067 C1069 1.415 . S
C1068 C1067 1.355 . S
C1068 C1070 1.419 . S
C1069 C1064 1.425 . S
C1069 C1066 1.409 . S
C1069 C1067 1.415 . S
C1070 H1060 0.930 . S
C1070 C1068 1.419 . S
C1070 C1071 1.362 . S
C1071 H1061 0.930 . S
C1071 C1064 1.409 . S
C1071 C1070 1.362 . S
H1072 C1078 0.930 . S
H1073 C1081 0.930 . S
H1074 C1082 0.930 . S
H1075 C1083 0.930 . S
H1076 C1086 0.930 . S
H1077 C1087 0.930 . S
C1078 H1072 0.930 . S
C1078 C1079 1.355 . S
C1078 C1080 1.415 . S
C1079 C1078 1.355 . S
C1079 C1081 1.419 . S
C1080 C1078 1.415 . S
C1080 C1085 1.425 . S
C1080 C1087 1.409 . S
C1081 H1073 0.930 . S
C1081 C1079 1.419 . S
C1081 C1082 1.362 . S
C1082 H1074 0.930 . S
C1082 C1081 1.362 . S
C1082 C1085 1.409 . S
C1083 H1075 0.930 . S
C1083 C1084 1.355 . S
C1083 C1085 1.415 . S
C1084 C1083 1.355 . S
C1084 C1086 1.419 . S
C1085 C1080 1.425 . S
C1085 C1082 1.409 . S
C1085 C1083 1.415 . S
C1086 H1076 0.930 . S
C1086 C1084 1.419 . S
C1086 C1087 1.362 . S
C1087 H1077 0.930 . S
C1087 C1080 1.409 . S
C1087 C1086 1.362 . S
H1088 C1094 0.930 . S
H1089 C1097 0.930 . S
H1090 C1098 0.930 . S
H1091 C1099 0.930 . S
H1092 C1102 0.930 . S
H1093 C1103 0.930 . S
C1094 H1088 0.930 . S
C1094 C1095 1.355 . S
C1094 C1096 1.415 . S
C1095 C1094 1.355 . S
C1095 C1097 1.419 . S
C1096 C1094 1.415 . S
C1096 C1101 1.425 . S
C1096 C1103 1.409 . S
C1097 H1089 0.930 . S
C1097 C1095 1.419 . S
C1097 C1098 1.362 . S
C1098 H1090 0.930 . S
C1098 C1097 1.362 . S
C1098 C1101 1.409 . S
C1099 H1091 0.930 . S
C1099 C1100 1.355 . S
C1099 C1101 1.415 . S
C1100 C1099 1.355 . S
C1100 C1102 1.419 . S
C1101 C1096 1.425 . S
C1101 C1098 1.409 . S
C1101 C1099 1.415 . S
C1102 H1092 0.930 . S
C1102 C1100 1.419 . S
C1102 C1103 1.362 . S
C1103 H1093 0.930 . S
C1103 C1096 1.409 . S
C1103 C1102 1.362 . S
H1104 C1110 0.930 . S
H1105 C1113 0.930 . S
H1106 C1114 0.930 . S
H1107 C1115 0.930 . S
H1108 C1118 0.930 . S
H1109 C1119 0.930 . S
C1110 H1104 0.930 . S
C1110 C1111 1.355 . S
C1110 C1112 1.415 . S
C1111 C1110 1.355 . S
C1111 C1113 1.419 . S
C1112 C1110 1.415 . S
C1112 C1117 1.425 . S
C1112 C1119 1.409 . S
C1113 H1105 0.930 . S
C1113 C1111 1.419 . S
C1113 C1114 1.362 . S
C1114 H1106 0.930 . S
C1114 C1113 1.362 . S
C1114 C1117 1.409 . S
C1115 H1107 0.930 . S
C1115 C1116 1.355 . S
C1115 C1117 1.415 . S
C1116 C1115 1.355 . S
C1116 C1118 1.419 . S
C1117 C1112 1.425 . S
C1117 C1114 1.409 . S
C1117 C1115 1.415 . S
C1118 H1108 0.930 . S
C1118 C1116 1.419 . S
C1118 C1119 1.362 . S
C1119 H1109 0.930 . S
C1119 C1112 1.409 . S
C1119 C1118 1.362 . S
H1120 C1126 0.930 . S
H1121 C1129 0.930 . S
H1122 C1130 0.930 . S
H1123 C1131 0.930 . S
H1124 C1134 0.930 . S
H1125 C1135 0.930 . S
C1126 H1120 0.930 . S
C1126 C1127 1.355 . S
C1126 C1128 1.415 . S
C1127 C1126 1.355 . S
C1127 C1129 1.419 . S
C1128 C1126 1.415 . S
C1128 C1133 1.425 . S
C1128 C1135 1.409 . S
C1129 H1121 0.930 . S
C1129 C1127 1.419 . S
C1129 C1130 1.362 . S
C1130 H1122 0.930 . S
C1130 C1129 1.362 . S
C1130 C1133 1.409 . S
C1131 H1123 0.930 . S
C1131 C1132 1.355 . S
C1131 C1133 1.415 . S
C1132 C1131 1.355 . S
C1132 C1134 1.419 . S
C1133 C1128 1.425 . S
C1133 C1130 1.409 . S
C1133 C1131 1.415 . S
C1134 H1124 0.930 . S
C1134 C1132 1.419 . S
C1134 C1135 1.362 . S
C1135 H1125 0.930 . S
C1135 C1128 1.409 . S
C1135 C1134 1.362 . S
H1136 C1142 0.930 . S
H1137 C1145 0.930 . S
H1138 C1146 0.930 . S
H1139 C1147 0.930 . S
H1140 C1150 0.930 . S
H1141 C1151 0.930 . S
C1142 H1136 0.930 . S
C1142 C1143 1.355 . S
C1142 C1144 1.415 . S
C1143 C1142 1.355 . S
C1143 C1145 1.419 . S
C1144 C1142 1.415 . S
C1144 C1149 1.425 . S
C1144 C1151 1.409 . S
C1145 H1137 0.930 . S
C1145 C1143 1.419 . S
C1145 C1146 1.362 . S
C1146 H1138 0.930 . S
C1146 C1145 1.362 . S
C1146 C1149 1.409 . S
C1147 H1139 0.930 . S
C1147 C1148 1.355 . S
C1147 C1149 1.415 . S
C1148 C1147 1.355 . S
C1148 C1150 1.419 . S
C1149 C1144 1.425 . S
C1149 C1146 1.409 . S
C1149 C1147 1.415 . S
C1150 H1140 0.930 . S
C1150 C1148 1.419 . S
C1150 C1151 1.362 . S
C1151 H1141 0.930 . S
C1151 C1144 1.409 . S
C1151 C1150 1.362 . S
H1152 C1158 0.930 . S
H1153 C1161 0.930 . S
H1154 C1162 0.930 . S
H1155 C1163 0.930 . S
H1156 C1166 0.930 . S
H1157 C1167 0.930 . S
C1158 H1152 0.930 . S
C1158 C1159 1.355 . S
C1158 C1160 1.415 . S
C1159 C1158 1.355 . S
C1159 C1161 1.419 . S
C1160 C1158 1.415 . S
C1160 C1165 1.425 . S
C1160 C1167 1.409 . S
C1161 H1153 0.930 . S
C1161 C1159 1.419 . S
C1161 C1162 1.362 . S
C1162 H1154 0.930 . S
C1162 C1161 1.362 . S
C1162 C1165 1.409 . S
C1163 H1155 0.930 . S
C1163 C1164 1.355 . S
C1163 C1165 1.415 . S
C1164 C1163 1.355 . S
C1164 C1166 1.419 . S
C1165 C1160 1.425 . S
C1165 C1162 1.409 . S
C1165 C1163 1.415 . S
C1166 H1156 0.930 . S
C1166 C1164 1.419 . S
C1166 C1167 1.362 . S
C1167 H1157 0.930 . S
C1167 C1160 1.409 . S
C1167 C1166 1.362 . S
H1168 C1174 0.930 . S
H1169 C1177 0.930 . S
H1170 C1178 0.930 . S
H1171 C1179 0.930 . S
H1172 C1182 0.930 . S
H1173 C1183 0.930 . S
C1174 H1168 0.930 . S
C1174 C1175 1.355 . S
C1174 C1176 1.415 . S
C1175 C1174 1.355 . S
C1175 C1177 1.419 . S
C1176 C1174 1.415 . S
C1176 C1181 1.425 . S
C1176 C1183 1.409 . S
C1177 H1169 0.930 . S
C1177 C1175 1.419 . S
C1177 C1178 1.362 . S
C1178 H1170 0.930 . S
C1178 C1177 1.362 . S
C1178 C1181 1.409 . S
C1179 H1171 0.930 . S
C1179 C1180 1.355 . S
C1179 C1181 1.415 . S
C1180 C1179 1.355 . S
C1180 C1182 1.419 . S
C1181 C1176 1.425 . S
C1181 C1178 1.409 . S
C1181 C1179 1.415 . S
C1182 H1172 0.930 . S
C1182 C1180 1.419 . S
C1182 C1183 1.362 . S
C1183 H1173 0.930 . S
C1183 C1176 1.409 . S
C1183 C1182 1.362 . S
H1184 C1190 0.930 . S
H1185 C1193 0.930 . S
H1186 C1194 0.930 . S
H1187 C1195 0.930 . S
H1188 C1198 0.930 . S
H1189 C1199 0.930 . S
C1190 H1184 0.930 . S
C1190 C1191 1.355 . S
C1190 C1192 1.415 . S
C1191 C1190 1.355 . S
C1191 C1193 1.419 . S
C1192 C1190 1.415 . S
C1192 C1197 1.425 . S
C1192 C1199 1.409 . S
C1193 H1185 0.930 . S
C1193 C1191 1.419 . S
C1193 C1194 1.362 . S
C1194 H1186 0.930 . S
C1194 C1193 1.362 . S
C1194 C1197 1.409 . S
C1195 H1187 0.930 . S
C1195 C1196 1.355 . S
C1195 C1197 1.415 . S
C1196 C1195 1.355 . S
C1196 C1198 1.419 . S
C1197 C1192 1.425 . S
C1197 C1194 1.409 . S
C1197 C1195 1.415 . S
C1198 H1188 0.930 . S
C1198 C1196 1.419 . S
C1198 C1199 1.362 . S
C1199 H1189 0.930 . S
C1199 C1192 1.409 . S
C1199 C1198 1.362 . S
H1200 C1206 0.930 . S
H1201 C1209 0.930 . S
H1202 C1210 0.930 . S
H1203 C1211 0.930 . S
H1204 C1214 0.930 . S
H1205 C1215 0.930 . S
C1206 H1200 0.930 . S
C1206 C1207 1.355 . S
C1206 C1208 1.415 . S
C1207 C1206 1.355 . S
C1207 C1209 1.419 . S
C1208 C1206 1.415 . S
C1208 C1213 1.425 . S
C1208 C1215 1.409 . S
C1209 H1201 0.930 . S
C1209 C1207 1.419 . S
C1209 C1210 1.362 . S
C1210 H1202 0.930 . S
C1210 C1209 1.362 . S
C1210 C1213 1.409 . S
C1211 H1203 0.930 . S
C1211 C1212 1.355 . S
C1211 C1213 1.415 . S
C1212 C1211 1.355 . S
C1212 C1214 1.419 . S
C1213 C1208 1.425 . S
C1213 C1210 1.409 . S
C1213 C1211 1.415 . S
C1214 H1204 0.930 . S
C1214 C1212 1.419 . S
C1214 C1215 1.362 . S
C1215 H1205 0.930 . S
C1215 C1208 1.409 . S
C1215 C1214 1.362 . S
H1216 C1222 0.930 . S
H1217 C1225 0.930 . S
H1218 C1226 0.930 . S
H1219 C1227 0.930 . S
H1220 C1230 0.930 . S
H1221 C1231 0.930 . S
C1222 H1216 0.930 . S
C1222 C1223 1.355 . S
C1222 C1224 1.415 . S
C1223 C1222 1.355 . S
C1223 C1225 1.419 . S
C1224 C1222 1.415 . S
C1224 C1229 1.425 . S
C1224 C1231 1.409 . S
C1225 H1217 0.930 . S
C1225 C1223 1.419 . S
C1225 C1226 1.362 . S
C1226 H1218 0.930 . S
C1226 C1225 1.362 . S
C1226 C1229 1.409 . S
C1227 H1219 0.930 . S
C1227 C1228 1.355 . S
C1227 C1229 1.415 . S
C1228 C1227 1.355 . S
C1228 C1230 1.419 . S
C1229 C1224 1.425 . S
C1229 C1226 1.409 . S
C1229 C1227 1.415 . S
C1230 H1220 0.930 . S
C1230 C1228 1.419 . S
C1230 C1231 1.362 . S
C1231 H1221 0.930 . S
C1231 C1224 1.409 . S
C1231 C1230 1.362 . S
H1232 C1238 0.930 . S
H1233 C1241 0.930 . S
H1234 C1242 0.930 . S
H1235 C1243 0.930 . S
H1236 C1246 0.930 . S
H1237 C1247 0.930 . S
C1238 H1232 0.930 . S
C1238 C1239 1.355 . S
C1238 C1240 1.415 . S
C1239 C1238 1.355 . S
C1239 C1241 1.419 . S
C1240 C1238 1.415 . S
C1240 C1245 1.425 . S
C1240 C1247 1.409 . S
C1241 H1233 0.930 . S
C1241 C1239 1.419 . S
C1241 C1242 1.362 . S
C1242 H1234 0.930 . S
C1242 C1241 1.362 . S
C1242 C1245 1.409 . S
C1243 H1235 0.930 . S
C1243 C1244 1.355 . S
C1243 C1245 1.415 . S
C1244 C1243 1.355 . S
C1244 C1246 1.419 . S
C1245 C1240 1.425 . S
C1245 C1242 1.409 . S
C1245 C1243 1.415 . S
C1246 H1236 0.930 . S
C1246 C1244 1.419 . S
C1246 C1247 1.362 . S
C1247 H1237 0.930 . S
C1247 C1240 1.409 . S
C1247 C1246 1.362 . S
H1248 C1254 0.930 . S
H1249 C1257 0.930 . S
H1250 C1258 0.930 . S
H1251 C1259 0.930 . S
H1252 C1262 0.930 . S
H1253 C1263 0.930 . S
C1254 H1248 0.930 . S
C1254 C1255 1.355 . S
C1254 C1256 1.415 . S
C1255 C1254 1.355 . S
C1255 C1257 1.419 . S
C1256 C1254 1.415 . S
C1256 C1261 1.425 . S
C1256 C1263 1.409 . S
C1257 H1249 0.930 . S
C1257 C1255 1.419 . S
C1257 C1258 1.362 . S
C1258 H1250 0.930 . S
C1258 C1257 1.362 . S
C1258 C1261 1.409 . S
C1259 H1251 0.930 . S
C1259 C1260 1.355 . S
C1259 C1261 1.415 . S
C1260 C1259 1.355 . S
C1260 C1262 1.419 . S
C1261 C1256 1.425 . S
C1261 C1258 1.409 . S
C1261 C1259 1.415 . S
C1262 H1252 0.930 . S
C1262 C1260 1.419 . S
C1262 C1263 1.362 . S
C1263 H1253 0.930 . S
C1263 C1256 1.409 . S
C1263 C1262 1.362 . S
H1264 C1270 0.930 . S
H1265 C1273 0.930 . S
H1266 C1274 0.930 . S
H1267 C1275 0.930 . S
H1268 C1278 0.930 . S
H1269 C1279 0.930 . S
C1270 H1264 0.930 . S
C1270 C1271 1.355 . S
C1270 C1272 1.415 . S
C1271 C1270 1.355 . S
C1271 C1273 1.419 . S
C1272 C1270 1.415 . S
C1272 C1277 1.425 . S
C1272 C1279 1.409 . S
C1273 H1265 0.930 . S
C1273 C1271 1.419 . S
C1273 C1274 1.362 . S
C1274 H1266 0.930 . S
C1274 C1273 1.362 . S
C1274 C1277 1.409 . S
C1275 H1267 0.930 . S
C1275 C1276 1.355 . S
C1275 C1277 1.415 . S
C1276 C1275 1.355 . S
C1276 C1278 1.419 . S
C1277 C1272 1.425 . S
C1277 C1274 1.409 . S
C1277 C1275 1.415 . S
C1278 H1268 0.930 . S
C1278 C1276 1.419 . S
C1278 C1279 1.362 . S
C1279 H1269 0.930 . S
C1279 C1272 1.409 . S
C1279 C1278 1.362 . S
H1280 C1286 0.930 . S
H1281 C1289 0.930 . S
H1282 C1290 0.930 . S
H1283 C1291 0.930 . S
H1284 C1294 0.930 . S
H1285 C1295 0.930 . S
C1286 H1280 0.930 . S
C1286 C1287 1.355 . S
C1286 C1288 1.415 . S
C1287 C1286 1.355 . S
C1287 C1289 1.419 . S
C1288 C1286 1.415 . S
C1288 C1293 1.425 . S
C1288 C1295 1.409 . S
C1289 H1281 0.930 . S
C1289 C1287 1.419 . S
C1289 C1290 1.362 . S
C1290 H1282 0.930 . S
C1290 C1289 1.362 . S
C1290 C1293 1.409 . S
C1291 H1283 0.930 . S
C1291 C1292 1.355 . S
C1291 C1293 1.415 . S
C1292 C1291 1.355 . S
C1292 C1294 1.419 . S
C1293 C1288 1.425 . S
C1293 C1290 1.409 . S
C1293 C1291 1.415 . S
C1294 H1284 0.930 . S
C1294 C1292 1.419 . S
C1294 C1295 1.362 . S
C1295 H1285 0.930 . S
C1295 C1288 1.409 . S
C1295 C1294 1.362 . S
H1296 C1302 0.930 . S
H1297 C1305 0.930 . S
H1298 C1306 0.930 . S
H1299 C1307 0.930 . S
H1300 C1310 0.930 . S
H1301 C1311 0.930 . S
C1302 H1296 0.930 . S
C1302 C1303 1.355 . S
C1302 C1304 1.415 . S
C1303 C1302 1.355 . S
C1303 C1305 1.419 . S
C1304 C1302 1.415 . S
C1304 C1309 1.425 . S
C1304 C1311 1.409 . S
C1305 H1297 0.930 . S
C1305 C1303 1.419 . S
C1305 C1306 1.362 . S
C1306 H1298 0.930 . S
C1306 C1305 1.362 . S
C1306 C1309 1.409 . S
C1307 H1299 0.930 . S
C1307 C1308 1.355 . S
C1307 C1309 1.415 . S
C1308 C1307 1.355 . S
C1308 C1310 1.419 . S
C1309 C1304 1.425 . S
C1309 C1306 1.409 . S
C1309 C1307 1.415 . S
C1310 H1300 0.930 . S
C1310 C1308 1.419 . S
C1310 C1311 1.362 . S
C1311 H1301 0.930 . S
C1311 C1304 1.409 . S
C1311 C1310 1.362 . S
H1312 C1318 0.930 . S
H1313 C1321 0.930 . S
H1314 C1322 0.930 . S
H1315 C1323 0.930 . S
H1316 C1326 0.930 . S
H1317 C1327 0.930 . S
C1318 H1312 0.930 . S
C1318 C1319 1.355 . S
C1318 C1320 1.415 . S
C1319 C1318 1.355 . S
C1319 C1321 1.419 . S
C1320 C1318 1.415 . S
C1320 C1325 1.425 . S
C1320 C1327 1.409 . S
C1321 H1313 0.930 . S
C1321 C1319 1.419 . S
C1321 C1322 1.362 . S
C1322 H1314 0.930 . S
C1322 C1321 1.362 . S
C1322 C1325 1.409 . S
C1323 H1315 0.930 . S
C1323 C1324 1.355 . S
C1323 C1325 1.415 . S
C1324 C1323 1.355 . S
C1324 C1326 1.419 . S
C1325 C1320 1.425 . S
C1325 C1322 1.409 . S
C1325 C1323 1.415 . S
C1326 H1316 0.930 . S
C1326 C1324 1.419 . S
C1326 C1327 1.362 . S
C1327 H1317 0.930 . S
C1327 C1320 1.409 . S
C1327 C1326 1.362 . S
H1328 C1334 0.930 . S
H1329 C1337 0.930 . S
H1330 C1338 0.930 . S
H1331 C1339 0.930 . S
H1332 C1342 0.930 . S
H1333 C1343 0.930 . S
C1334 H1328 0.930 . S
C1334 C1335 1.355 . S
C1334 C1336 1.415 . S
C1335 C1334 1.355 . S
C1335 C1337 1.419 . S
C1336 C1334 1.415 . S
C1336 C1341 1.425 . S
C1336 C1343 1.409 . S
C1337 H1329 0.930 . S
C1337 C1335 1.419 . S
C1337 C1338 1.362 . S
C1338 H1330 0.930 . S
C1338 C1337 1.362 . S
C1338 C1341 1.409 . S
C1339 H1331 0.930 . S
C1339 C1340 1.355 . S
C1339 C1341 1.415 . S
C1340 C1339 1.355 . S
C1340 C1342 1.419 . S
C1341 C1336 1.425 . S
C1341 C1338 1.409 . S
C1341 C1339 1.415 . S
C1342 H1332 0.930 . S
C1342 C1340 1.419 . S
C1342 C1343 1.362 . S
C1343 H1333 0.930 . S
C1343 C1336 1.409 . S
C1343 C1342 1.362 . S
H1344 C1350 0.930 . S
H1345 C1353 0.930 . S
H1346 C1354 0.930 . S
H1347 C1355 0.930 . S
H1348 C1358 0.930 . S
H1349 C1359 0.930 . S
C1350 H1344 0.930 . S
C1350 C1351 1.355 . S
C1350 C1352 1.415 . S
C1351 C1350 1.355 . S
C1351 C1353 1.419 . S
C1352 C1350 1.415 . S
C1352 C1357 1.425 . S
C1352 C1359 1.409 . S
C1353 H1345 0.930 . S
C1353 C1351 1.419 . S
C1353 C1354 1.362 . S
C1354 H1346 0.930 . S
C1354 C1353 1.362 . S
C1354 C1357 1.409 . S
C1355 H1347 0.930 . S
C1355 C1356 1.355 . S
C1355 C1357 1.415 . S
C1356 C1355 1.355 . S
C1356 C1358 1.419 . S
C1357 C1352 1.425 . S
C1357 C1354 1.409 . S
C1357 C1355 1.415 . S
C1358 H1348 0.930 . S
C1358 C1356 1.419 . S
C1358 C1359 1.362 . S
C1359 H1349 0.930 . S
C1359 C1352 1.409 . S
C1359 C1358 1.362 . S
C471 C416 2.229 . S
C476 C3 2.311 . S
C487 C445 2.264 . S
C492 C32 2.331 . S
C503 C61 2.316 . S
C508 C242 2.274 . S
C519 C271 2.280 . S
C524 C90 2.329 . S
C535 C119 2.306 . S
C540 C300 2.231 . S
C551 C329 2.280 . S
C556 C148 2.325 . S
C567 C358 2.281 . S
C572 C177 2.327 . S
C583 C206 2.305 . S
C588 C387 2.233 . S
C599 C235 2.303 . S
C604 C184 2.237 . S
C615 C264 2.333 . S
C620 C213 2.275 . S
C631 C293 2.333 . S
C636 C10 2.266 . S
C647 C322 2.308 . S
C652 C39 2.262 . S
C663 C351 2.304 . S
C668 C68 2.231 . S
C679 C97 2.268 . S
C684 C380 2.332 . S
C695 C126 2.259 . S
C700 C409 2.332 . S
C711 C155 2.267 . S
C716 C438 2.311 . S
C727 C385 0.853 . S
C732 C8 0.816 . S
C743 C356 0.786 . S
C748 C37 0.880 . S
C759 C66 0.844 . S
C764 C95 0.824 . S
C775 C124 0.875 . S
C780 C269 0.792 . S
C791 C240 0.824 . S
C796 C153 0.844 . S
C807 C182 0.816 . S
C812 C211 0.853 . S
C823 C327 0.806 . S
C828 C298 0.862 . S
C839 C414 0.882 . S
C844 C443 0.784 . S
C855 C274 2.180 . S
C860 C5 2.459 . S
C871 C34 2.487 . S
C876 C245 2.239 . S
C887 C63 2.465 . S
C892 C216 2.189 . S
C903 C187 2.257 . S
C908 C92 2.495 . S
C919 C121 2.474 . S
C924 C390 2.213 . S
C935 C361 2.260 . S
C940 C150 2.498 . S
C951 C100 2.254 . S
C956 C179 2.493 . S
C967 C71 2.182 . S
C972 C208 2.462 . S
C983 C42 2.181 . S
C988 C237 2.464 . S
C999 C13 2.209 . S
C1004 C266 2.477 . S
C1015 C448 2.257 . S
C1020 C295 2.495 . S
C1031 C419 2.253 . S
C1036 C324 2.493 . S
C1047 C353 2.491 . S
C1052 C158 2.246 . S
C1063 C129 2.258 . S
C1068 C382 2.492 . S
C1079 C411 2.476 . S
C1084 C332 2.213 . S
C1095 C303 2.208 . S
C1100 C440 2.473 . S
C1111 C224 1.151 . S
C1116 C15 1.243 . S
C1127 C44 1.265 . S
C1132 C195 1.180 . S
C1143 C73 1.259 . S
C1148 C398 1.174 . S
C1159 C102 1.181 . S
C1164 C369 1.080 . S
C1175 C131 1.182 . S
C1180 C108 1.083 . S
C1191 C79 1.217 . S
C1196 C160 1.296 . S
C1207 C189 1.293 . S
C1212 C282 1.212 . S
C1223 C253 1.155 . S
C1228 C218 1.242 . S
C1239 C247 1.159 . S
C1244 C456 1.054 . S
C1255 C276 1.167 . S
C1260 C427 1.064 . S
C1271 C305 1.298 . S
C1276 C166 1.220 . S
C1287 C137 1.083 . S
C1292 C334 1.182 . S
C1303 C340 1.154 . S
C1308 C363 1.242 . S
C1319 C311 1.218 . S
C1324 C392 1.297 . S
C1335 C421 1.283 . S
C1340 C50 1.202 . S
C1351 C450 1.252 . S
C1356 C21 1.165 . S
