# Generated by pormake.
# Topology sxg, (6)-cn, num edge types: 1
# Building blocks:
#     Node 0, Type 0, BuildingBlock: VOLQOD_clean_sbu_1, # of connection points: 6
#     Node 1, Type 0, BuildingBlock: VOLQOD_clean_sbu_1, # of connection points: 6
#     Node 2, Type 0, BuildingBlock: VOLQOD_clean_sbu_1, # of connection points: 6
#     Node 3, Type 0, BuildingBlock: VOLQOD_clean_sbu_1, # of connection points: 6
#     Node 4, Type 0, BuildingBlock: VOLQOD_clean_sbu_1, # of connection points: 6
#     Node 5, Type 0, BuildingBlock: VOLQOD_clean_sbu_1, # of connection points: 6
#     Node 6, Type 0, BuildingBlock: VOLQOD_clean_sbu_1, # of connection points: 6
#     Node 7, Type 0, BuildingBlock: VOLQOD_clean_sbu_1, # of connection points: 6
#     Node 8, Type 0, BuildingBlock: VOLQOD_clean_sbu_1, # of connection points: 6
#     Node 9, Type 0, BuildingBlock: VOLQOD_clean_sbu_1, # of connection points: 6
#     Node 10, Type 0, BuildingBlock: VOLQOD_clean_sbu_1, # of connection points: 6
#     Node 11, Type 0, BuildingBlock: VOLQOD_clean_sbu_1, # of connection points: 6
#     Node 12, Type 0, BuildingBlock: VOLQOD_clean_sbu_1, # of connection points: 6
#     Node 13, Type 0, BuildingBlock: VOLQOD_clean_sbu_1, # of connection points: 6
#     Node 14, Type 0, BuildingBlock: VOLQOD_clean_sbu_1, # of connection points: 6
#     Node 15, Type 0, BuildingBlock: VOLQOD_clean_sbu_1, # of connection points: 6
#     Node 16, Type 0, BuildingBlock: VOLQOD_clean_sbu_1, # of connection points: 6
#     Node 17, Type 0, BuildingBlock: VOLQOD_clean_sbu_1, # of connection points: 6
#     Node 18, Type 0, BuildingBlock: VOLQOD_clean_sbu_1, # of connection points: 6
#     Node 19, Type 0, BuildingBlock: VOLQOD_clean_sbu_1, # of connection points: 6
#     Node 20, Type 0, BuildingBlock: VOLQOD_clean_sbu_1, # of connection points: 6
#     Node 21, Type 0, BuildingBlock: VOLQOD_clean_sbu_1, # of connection points: 6
#     Node 22, Type 0, BuildingBlock: VOLQOD_clean_sbu_1, # of connection points: 6
#     Node 23, Type 0, BuildingBlock: VOLQOD_clean_sbu_1, # of connection points: 6
#     Edge 24, Type (0, 0), BuildingBlock: CIFDUS_clean_linker_0, # of connection points: 2
#     Edge 25, Type (0, 0), BuildingBlock: CIFDUS_clean_linker_0, # of connection points: 2
#     Edge 26, Type (0, 0), BuildingBlock: CIFDUS_clean_linker_0, # of connection points: 2
#     Edge 27, Type (0, 0), BuildingBlock: CIFDUS_clean_linker_0, # of connection points: 2
#     Edge 28, Type (0, 0), BuildingBlock: CIFDUS_clean_linker_0, # of connection points: 2
#     Edge 29, Type (0, 0), BuildingBlock: CIFDUS_clean_linker_0, # of connection points: 2
#     Edge 30, Type (0, 0), BuildingBlock: CIFDUS_clean_linker_0, # of connection points: 2
#     Edge 31, Type (0, 0), BuildingBlock: CIFDUS_clean_linker_0, # of connection points: 2
#     Edge 32, Type (0, 0), BuildingBlock: CIFDUS_clean_linker_0, # of connection points: 2
#     Edge 33, Type (0, 0), BuildingBlock: CIFDUS_clean_linker_0, # of connection points: 2
#     Edge 34, Type (0, 0), BuildingBlock: CIFDUS_clean_linker_0, # of connection points: 2
#     Edge 35, Type (0, 0), BuildingBlock: CIFDUS_clean_linker_0, # of connection points: 2
#     Edge 36, Type (0, 0), BuildingBlock: CIFDUS_clean_linker_0, # of connection points: 2
#     Edge 37, Type (0, 0), BuildingBlock: CIFDUS_clean_linker_0, # of connection points: 2
#     Edge 38, Type (0, 0), BuildingBlock: CIFDUS_clean_linker_0, # of connection points: 2
#     Edge 39, Type (0, 0), BuildingBlock: CIFDUS_clean_linker_0, # of connection points: 2
#     Edge 40, Type (0, 0), BuildingBlock: CIFDUS_clean_linker_0, # of connection points: 2
#     Edge 41, Type (0, 0), BuildingBlock: CIFDUS_clean_linker_0, # of connection points: 2
#     Edge 42, Type (0, 0), BuildingBlock: CIFDUS_clean_linker_0, # of connection points: 2
#     Edge 43, Type (0, 0), BuildingBlock: CIFDUS_clean_linker_0, # of connection points: 2
#     Edge 44, Type (0, 0), BuildingBlock: CIFDUS_clean_linker_0, # of connection points: 2
#     Edge 45, Type (0, 0), BuildingBlock: CIFDUS_clean_linker_0, # of connection points: 2
#     Edge 46, Type (0, 0), BuildingBlock: CIFDUS_clean_linker_0, # of connection points: 2
#     Edge 47, Type (0, 0), BuildingBlock: CIFDUS_clean_linker_0, # of connection points: 2
#     Edge 48, Type (0, 0), BuildingBlock: CIFDUS_clean_linker_0, # of connection points: 2
#     Edge 49, Type (0, 0), BuildingBlock: CIFDUS_clean_linker_0, # of connection points: 2
#     Edge 50, Type (0, 0), BuildingBlock: CIFDUS_clean_linker_0, # of connection points: 2
#     Edge 51, Type (0, 0), BuildingBlock: CIFDUS_clean_linker_0, # of connection points: 2
#     Edge 52, Type (0, 0), BuildingBlock: CIFDUS_clean_linker_0, # of connection points: 2
#     Edge 53, Type (0, 0), BuildingBlock: CIFDUS_clean_linker_0, # of connection points: 2
#     Edge 54, Type (0, 0), BuildingBlock: CIFDUS_clean_linker_0, # of connection points: 2
#     Edge 55, Type (0, 0), BuildingBlock: CIFDUS_clean_linker_0, # of connection points: 2
#     Edge 56, Type (0, 0), BuildingBlock: CIFDUS_clean_linker_0, # of connection points: 2
#     Edge 57, Type (0, 0), BuildingBlock: CIFDUS_clean_linker_0, # of connection points: 2
#     Edge 58, Type (0, 0), BuildingBlock: CIFDUS_clean_linker_0, # of connection points: 2
#     Edge 59, Type (0, 0), BuildingBlock: CIFDUS_clean_linker_0, # of connection points: 2
#     Edge 60, Type (0, 0), BuildingBlock: CIFDUS_clean_linker_0, # of connection points: 2
#     Edge 61, Type (0, 0), BuildingBlock: CIFDUS_clean_linker_0, # of connection points: 2
#     Edge 62, Type (0, 0), BuildingBlock: CIFDUS_clean_linker_0, # of connection points: 2
#     Edge 63, Type (0, 0), BuildingBlock: CIFDUS_clean_linker_0, # of connection points: 2
#     Edge 64, Type (0, 0), BuildingBlock: CIFDUS_clean_linker_0, # of connection points: 2
#     Edge 65, Type (0, 0), BuildingBlock: CIFDUS_clean_linker_0, # of connection points: 2
#     Edge 66, Type (0, 0), BuildingBlock: CIFDUS_clean_linker_0, # of connection points: 2
#     Edge 67, Type (0, 0), BuildingBlock: CIFDUS_clean_linker_0, # of connection points: 2
#     Edge 68, Type (0, 0), BuildingBlock: CIFDUS_clean_linker_0, # of connection points: 2
#     Edge 69, Type (0, 0), BuildingBlock: CIFDUS_clean_linker_0, # of connection points: 2
#     Edge 70, Type (0, 0), BuildingBlock: CIFDUS_clean_linker_0, # of connection points: 2
#     Edge 71, Type (0, 0), BuildingBlock: CIFDUS_clean_linker_0, # of connection points: 2
#     Edge 72, Type (0, 0), BuildingBlock: CIFDUS_clean_linker_0, # of connection points: 2
#     Edge 73, Type (0, 0), BuildingBlock: CIFDUS_clean_linker_0, # of connection points: 2
#     Edge 74, Type (0, 0), BuildingBlock: CIFDUS_clean_linker_0, # of connection points: 2
#     Edge 75, Type (0, 0), BuildingBlock: CIFDUS_clean_linker_0, # of connection points: 2
#     Edge 76, Type (0, 0), BuildingBlock: CIFDUS_clean_linker_0, # of connection points: 2
#     Edge 77, Type (0, 0), BuildingBlock: CIFDUS_clean_linker_0, # of connection points: 2
#     Edge 78, Type (0, 0), BuildingBlock: CIFDUS_clean_linker_0, # of connection points: 2
#     Edge 79, Type (0, 0), BuildingBlock: CIFDUS_clean_linker_0, # of connection points: 2
#     Edge 80, Type (0, 0), BuildingBlock: CIFDUS_clean_linker_0, # of connection points: 2
#     Edge 81, Type (0, 0), BuildingBlock: CIFDUS_clean_linker_0, # of connection points: 2
#     Edge 82, Type (0, 0), BuildingBlock: CIFDUS_clean_linker_0, # of connection points: 2
#     Edge 83, Type (0, 0), BuildingBlock: CIFDUS_clean_linker_0, # of connection points: 2
#     Edge 84, Type (0, 0), BuildingBlock: CIFDUS_clean_linker_0, # of connection points: 2
#     Edge 85, Type (0, 0), BuildingBlock: CIFDUS_clean_linker_0, # of connection points: 2
#     Edge 86, Type (0, 0), BuildingBlock: CIFDUS_clean_linker_0, # of connection points: 2
#     Edge 87, Type (0, 0), BuildingBlock: CIFDUS_clean_linker_0, # of connection points: 2
#     Edge 88, Type (0, 0), BuildingBlock: CIFDUS_clean_linker_0, # of connection points: 2
#     Edge 89, Type (0, 0), BuildingBlock: CIFDUS_clean_linker_0, # of connection points: 2
#     Edge 90, Type (0, 0), BuildingBlock: CIFDUS_clean_linker_0, # of connection points: 2
#     Edge 91, Type (0, 0), BuildingBlock: CIFDUS_clean_linker_0, # of connection points: 2
#     Edge 92, Type (0, 0), BuildingBlock: CIFDUS_clean_linker_0, # of connection points: 2
#     Edge 93, Type (0, 0), BuildingBlock: CIFDUS_clean_linker_0, # of connection points: 2
#     Edge 94, Type (0, 0), BuildingBlock: CIFDUS_clean_linker_0, # of connection points: 2
#     Edge 95, Type (0, 0), BuildingBlock: CIFDUS_clean_linker_0, # of connection points: 2
# Relax obj value: 0.328
# Max RMSD: 0.256
# Mean RMSD: 0.256
data_MOF--net-sxg--node1-VOLQOD_clean_sbu_1--edge1-CIFDUS_clean_linker_0
_symmetry_space_group_name_H-M    P1
_symmetry_Int_Tables_number       1
_symmetry_cell_setting            triclinic
loop_
_symmetry_equiv_pos_as_xyz
'x, y, z'
_cell_length_a     42.219896
_cell_length_b     42.191005
_cell_length_c     42.220742
_cell_angle_alpha  89.862536
_cell_angle_beta   89.932894
_cell_angle_gamma 89.896704
loop_
_atom_site_label
_atom_site_type_symbol
_atom_site_fract_x
_atom_site_fract_y
_atom_site_fract_z
_atom_type_partial_charge
O0 O 0.05196 0.24256 0.27366 0.0
Zn1 Zn 0.03068 0.28263 0.25868 0.0
O2 O 0.02012 0.27883 0.21444 0.0
Zn3 Zn 0.0412 0.31078 0.18852 0.0
Zn4 Zn 0.03095 0.23689 0.19965 0.0
Zn5 Zn 0.97542 0.28369 0.2098 0.0
O6 O 0.01038 0.34568 0.17382 0.0
O7 O 0.9657 0.32638 0.19373 0.0
O8 O 0.06114 0.31866 0.26516 0.0
O9 O 0.07257 0.3331 0.2157 0.0
O10 O 0.0666 0.2897 0.15318 0.0
O11 O 0.0683 0.24019 0.17149 0.0
O12 O -0.00167 0.22088 0.16874 0.0
O13 O 0.99124 0.28898 0.28504 0.0
O14 O 0.95917 0.25509 0.17669 0.0
O15 O 0.9524 0.28045 0.25058 0.0
C16 C 0.05349 0.21429 0.26316 0.0
C17 C 0.98075 0.34812 0.17943 0.0
C18 C 0.07744 0.26139 0.15208 0.0
C19 C 0.07695 0.33521 0.24544 0.0
C20 C 0.97116 0.23191 0.16177 0.0
C21 C 0.9619 0.28586 0.27862 0.0
O22 O 0.04301 0.20715 0.23571 0.0
O23 O 0.42732 0.7131 0.75398 0.0
Zn24 Zn 0.43636 0.66631 0.75321 0.0
O25 O 0.45922 0.65665 0.7156 0.0
Zn26 Zn 0.44061 0.62369 0.6904 0.0
Zn27 Zn 0.46743 0.69302 0.69057 0.0
Zn28 Zn 0.49759 0.63755 0.7276 0.0
O29 O 0.47544 0.59136 0.67941 0.0
O30 O 0.48904 0.59162 0.72925 0.0
O31 O 0.39727 0.6387 0.75546 0.0
O32 O 0.40556 0.60432 0.71611 0.0
O33 O 0.41965 0.64384 0.65237 0.0
O34 O 0.43497 0.69419 0.65642 0.0
O35 O 0.50962 0.68724 0.6682 0.0
O36 O 0.46401 0.66039 0.79179 0.0
O37 O 0.53047 0.64609 0.69401 0.0
O38 O 0.51104 0.65139 0.76998 0.0
C39 C 0.442 0.73634 0.74131 0.0
C40 C 0.49162 0.57943 0.70202 0.0
C41 C 0.41868 0.67264 0.64309 0.0
C42 C 0.38954 0.61393 0.73992 0.0
C43 C 0.53142 0.6665 0.6717 0.0
C44 C 0.49398 0.65748 0.79404 0.0
O45 O 0.46128 0.73227 0.71817 0.0
O46 O 0.55265 0.25828 0.71085 0.0
Zn47 Zn 0.53068 0.217 0.71797 0.0
O48 O 0.5265 0.20928 0.76275 0.0
Zn49 Zn 0.54944 0.17179 0.77694 0.0
Zn50 Zn 0.53816 0.2459 0.78643 0.0
Zn51 Zn 0.48342 0.2024 0.77165 0.0
O52 O 0.52021 0.13481 0.78827 0.0
O53 O 0.47644 0.157 0.76947 0.0
O54 O 0.55566 0.1822 0.69693 0.0
O55 O 0.57091 0.15433 0.73922 0.0
O56 O 0.58336 0.18313 0.80954 0.0
O57 O 0.5777 0.23555 0.80917 0.0
O58 O 0.50753 0.25607 0.82179 0.0
O59 O 0.48769 0.22026 0.69815 0.0
O60 O 0.4739 0.21617 0.81542 0.0
O61 O 0.45445 0.22056 0.73901 0.0
C62 C 0.55616 0.28256 0.72834 0.0
C63 C 0.49187 0.13267 0.77805 0.0
C64 C 0.59234 0.21073 0.8181 0.0
C65 C 0.57062 0.15919 0.7095 0.0
C66 C 0.48495 0.23879 0.83182 0.0
C67 C 0.45984 0.22314 0.70945 0.0
O68 O 0.54838 0.28223 0.75756 0.0
O69 O 0.93291 0.77348 0.2275 0.0
Zn70 Zn 0.94686 0.81956 0.23065 0.0
O71 O 0.96489 0.82526 0.27152 0.0
Zn72 Zn 0.94368 0.85279 0.30092 0.0
Zn73 Zn 0.97502 0.78708 0.29148 0.0
Zn74 Zn 0.00051 0.85077 0.26567 0.0
O75 O 0.97483 0.88658 0.31744 0.0
O76 O 0.98512 0.89489 0.26758 0.0
O77 O 0.91286 0.85402 0.22599 0.0
O78 O 0.9127 0.87573 0.27438 0.0
O79 O 0.9215 0.82691 0.33506 0.0
O80 O 0.94504 0.78036 0.32773 0.0
O81 O 0.01908 0.78983 0.3085 0.0
O82 O 0.98142 0.82386 0.19708 0.0
O83 O 0.03109 0.84081 0.30063 0.0
O84 O 0.02142 0.84359 0.22463 0.0
C85 C 0.94643 0.74905 0.23955 0.0
C86 C 0.98622 0.90451 0.29587 0.0
C87 C 0.92505 0.79769 0.34227 0.0
C88 C 0.90306 0.87488 0.24579 0.0
C89 C 0.03678 0.81386 0.31311 0.0
C90 C 0.01016 0.83301 0.19892 0.0
O91 O 0.96683 0.75136 0.26172 0.0
O92 O 0.26869 0.04512 0.23951 0.0
Zn93 Zn 0.26447 0.02173 0.28144 0.0
O94 O 0.22099 0.01297 0.2894 0.0
Zn95 Zn 0.2065 0.02197 0.33134 0.0
Zn96 Zn 0.19457 0.03594 0.26175 0.0
Zn97 Zn 0.21453 0.96968 0.28152 0.0
O98 O 0.20437 0.98172 0.35799 0.0
O99 O 0.21973 0.94689 0.32177 0.0
O100 O 0.28177 0.04761 0.31789 0.0
O101 O 0.24054 0.04736 0.35113 0.0
O102 O 0.16573 0.04876 0.32893 0.0
O103 O 0.17856 0.07392 0.28439 0.0
O104 O 0.15499 0.01096 0.25345 0.0
O105 O 0.28692 0.97958 0.27692 0.0
O106 O 0.16944 0.96291 0.26963 0.0
O107 O 0.2485 0.95196 0.25366 0.0
C108 C 0.2483 0.05236 0.21836 0.0
C109 C 0.2134 0.95388 0.3503 0.0
C110 C 0.1618 0.07162 0.30934 0.0
C111 C 0.26882 0.05524 0.34415 0.0
C112 C 0.1484 0.98225 0.25993 0.0
C113 C 0.27748 0.95536 0.26149 0.0
O114 O 0.21868 0.04846 0.22295 0.0
O115 O 0.26402 0.91945 0.74078 0.0
Zn116 Zn 0.26302 0.93588 0.7853 0.0
O117 O 0.30451 0.95175 0.79679 0.0
Zn118 Zn 0.31796 0.93636 0.83856 0.0
Zn119 Zn 0.33507 0.93975 0.76554 0.0
Zn120 Zn 0.30327 -0.00305 0.79417 0.0
O121 O 0.32439 0.97406 0.86966 0.0
O122 O 0.31173 0.01308 0.83657 0.0
O123 O 0.24869 0.90238 0.81633 0.0
O124 O 0.28257 0.90985 0.85603 0.0
O125 O 0.3551 0.90423 0.83359 0.0
O126 O 0.35937 0.90359 0.78105 0.0
O127 O 0.36687 0.97367 0.75753 0.0
O128 O 0.23049 0.97095 0.78527 0.0
O129 O 0.3368 0.0158 0.76653 0.0
O130 O 0.26067 0.01395 0.78376 0.0
C131 C 0.28537 0.91894 0.71943 0.0
C132 C 0.31968 0.00353 0.86393 0.0
C133 C 0.36695 0.8928 0.80807 0.0
C134 C 0.25799 0.89671 0.84451 0.0
C135 C 0.36244 0.00338 0.75677 0.0
C136 C 0.23358 0.0009 0.78321 0.0
O137 O 0.31376 0.92725 0.72521 0.0
O138 O 0.79662 0.46579 0.7422 0.0
Zn139 Zn 0.78695 0.47905 0.69636 0.0
O140 O 0.74189 0.477 0.69103 0.0
Zn141 Zn 0.73583 0.4402 0.66639 0.0
Zn142 Zn 0.71882 0.4749 0.72915 0.0
Zn143 Zn 0.72607 0.51144 0.66832 0.0
O144 O 0.74204 0.45133 0.61973 0.0
O145 O 0.73068 0.50273 0.62283 0.0
O146 O 0.80666 0.44775 0.66451 0.0
O147 O 0.77137 0.4122 0.67833 0.0
O148 O 0.69448 0.41934 0.67778 0.0
O149 O 0.69178 0.43651 0.72751 0.0
O150 O 0.68516 0.5093 0.73183 0.0
O151 O 0.7996 0.52493 0.68809 0.0
O152 O 0.68141 0.51971 0.68039 0.0
O153 O 0.75325 0.54838 0.67739 0.0
C154 C 0.77911 0.46505 0.76699 0.0
C155 C 0.73844 0.47844 0.60685 0.0
C156 C 0.68171 0.41899 0.7052 0.0
C157 C 0.79682 0.41916 0.66391 0.0
C158 C 0.66956 0.51994 0.70811 0.0
C159 C 0.78291 0.5497 0.68256 0.0
O160 O 0.74934 0.47066 0.76563 0.0
O161 O 0.76191 0.57316 0.22982 0.0
Zn162 Zn 0.75662 0.56496 0.18405 0.0
O163 O 0.79491 0.54627 0.16883 0.0
Zn164 Zn 0.81298 0.56775 0.13303 0.0
Zn165 Zn 0.82646 0.54166 0.20078 0.0
Zn166 Zn 0.78312 0.50659 0.15293 0.0
O167 O 0.81702 0.53746 0.09566 0.0
O168 O 0.77285 0.51223 0.10744 0.0
O169 O 0.74646 0.60443 0.15929 0.0
O170 O 0.78452 0.60372 0.12245 0.0
O171 O 0.85344 0.58947 0.14493 0.0
O172 O 0.85639 0.57852 0.19638 0.0
O173 O 0.85096 0.50068 0.19275 0.0
O174 O 0.71989 0.53444 0.18436 0.0
O175 O 0.81978 0.47684 0.15759 0.0
O176 O 0.74496 0.48937 0.17432 0.0
C177 C 0.77934 0.56028 0.25085 0.0
C178 C 0.79437 0.5192 0.08768 0.0
C179 C 0.86555 0.59416 0.17214 0.0
C180 C 0.7602 0.61628 0.13513 0.0
C181 C 0.84508 0.47766 0.17402 0.0
C182 C 0.72039 0.50429 0.18335 0.0
O183 O 0.80434 0.54462 0.24368 0.0
O184 O 0.25429 0.25895 0.05328 0.0
Zn185 Zn 0.29764 0.26337 0.03604 0.0
O186 O 0.31137 0.22262 0.02139 0.0
Zn187 Zn 0.34965 0.20789 0.04188 0.0
Zn188 Zn 0.27869 0.1913 0.02426 0.0
Zn189 Zn 0.3219 0.22803 0.97847 0.0
O190 O 0.38502 0.20075 0.00955 0.0
O191 O 0.36751 0.23711 0.97576 0.0
O192 O 0.32792 0.28097 0.06838 0.0
O193 O 0.36484 0.24312 0.06931 0.0
O194 O 0.34023 0.17012 0.07086 0.0
O195 O 0.28889 0.16396 0.06096 0.0
O196 O 0.28055 0.16131 0.9863 0.0
O197 O 0.29167 0.29437 0.00019 0.0
O198 O 0.31433 0.18759 0.95559 0.0
O199 O 0.29901 0.2639 0.95812 0.0
C200 C 0.23187 0.23942 0.04838 0.0
C201 C 0.38977 0.22003 0.98667 0.0
C202 C 0.31371 0.15662 0.07639 0.0
C203 C 0.35434 0.27003 0.07809 0.0
C204 C 0.29764 0.16316 0.96139 0.0
C205 C 0.29054 0.29006 0.97038 0.0
O206 O 0.23646 0.21285 0.03448 0.0
O207 O 0.76303 0.25039 0.9172 0.0
Zn208 Zn 0.80199 0.24628 0.94427 0.0
O209 O 0.81349 0.2876 0.95946 0.0
Zn210 Zn 0.85605 0.30116 0.94839 0.0
Zn211 Zn 0.7837 0.3193 0.94779 0.0
Zn212 Zn 0.81217 0.28476 0.00376 0.0
O213 O 0.88616 0.3004 0.98696 0.0
O214 O 0.85411 0.27198 0.0174 0.0
O215 O 0.83959 0.22668 0.92163 0.0
O216 O 0.87441 0.26625 0.92369 0.0
O217 O 0.85511 0.34062 0.91906 0.0
O218 O 0.80279 0.34585 0.91406 0.0
O219 O 0.77734 0.35083 0.98332 0.0
O220 O 0.78869 0.21764 0.98051 0.0
O221 O 0.80411 0.32695 0.02174 0.0
O222 O 0.78391 0.25133 0.02057 0.0
C223 C 0.74123 0.27141 0.91661 0.0
C224 C 0.88163 0.28167 0.01042 0.0
C225 C 0.83084 0.35382 0.90642 0.0
C226 C 0.86697 0.23818 0.91585 0.0
C227 C 0.78989 0.35115 0.01078 0.0
C228 C 0.78033 0.22387 0.00884 0.0
O229 O 0.7446 0.29832 0.93009 0.0
O230 O 0.75186 0.74156 0.44312 0.0
Zn231 Zn 0.7102 0.72818 0.46213 0.0
O232 O 0.71032 0.68367 0.4702 0.0
Zn233 Zn 0.67197 0.66345 0.45538 0.0
Zn234 Zn 0.74712 0.66511 0.45172 0.0
Zn235 Zn 0.71498 0.67703 0.51441 0.0
O236 O 0.64269 0.65262 0.49301 0.0
O237 O 0.67259 0.66951 0.53288 0.0
O238 O 0.67482 0.74008 0.43202 0.0
O239 O 0.64779 0.6949 0.42914 0.0
O240 O 0.68441 0.62757 0.42475 0.0
O241 O 0.73322 0.64442 0.41287 0.0
O242 O 0.76173 0.62724 0.4767 0.0
O243 O 0.7066 0.75058 0.50384 0.0
O244 O 0.73831 0.63662 0.52267 0.0
O245 O 0.73133 0.71608 0.53547 0.0
C246 C 0.77798 0.72751 0.4373 0.0
C247 C 0.64655 0.65873 0.52244 0.0
C248 C 0.7096 0.62646 0.4078 0.0
C249 C 0.65159 0.7239 0.42161 0.0
C250 C 0.75452 0.61871 0.50465 0.0
C251 C 0.72017 0.74366 0.52995 0.0
O252 O 0.7809 0.69762 0.44119 0.0
O253 O 0.23317 0.72089 0.56861 0.0
Zn254 Zn 0.19055 0.73052 0.54942 0.0
O255 O 0.19425 0.76743 0.52349 0.0
Zn256 Zn 0.1641 0.80042 0.53279 0.0
Zn257 Zn 0.23536 0.78488 0.52577 0.0
Zn258 Zn 0.18589 0.75613 0.48139 0.0
O259 O 0.14347 0.81679 0.49221 0.0
O260 O 0.14235 0.76878 0.47165 0.0
O261 O 0.15548 0.73831 0.58107 0.0
O262 O 0.13172 0.78162 0.56159 0.0
O263 O 0.18488 0.835 0.55829 0.0
O264 O 0.23503 0.81901 0.55794 0.0
O265 O 0.24565 0.80569 0.48446 0.0
O266 O 0.18076 0.69148 0.52315 0.0
O267 O 0.2129 0.78105 0.45155 0.0
O268 O 0.18753 0.71018 0.47433 0.0
C269 C 0.26105 0.72879 0.55986 0.0
C270 C 0.13404 0.79766 0.47091 0.0
C271 C 0.21345 0.83774 0.56758 0.0
C272 C 0.13278 0.75843 0.58099 0.0
C273 C 0.2344 0.80146 0.45684 0.0
C274 C 0.18243 0.68734 0.4933 0.0
O275 O 0.26581 0.75145 0.54033 0.0
O276 O 0.93071 0.77444 0.74803 0.0
Zn277 Zn 0.94621 0.73078 0.73993 0.0
O278 O 0.95134 0.71085 0.78038 0.0
Zn279 Zn 0.92515 0.67354 0.78652 0.0
Zn280 Zn 0.94694 0.73964 0.81513 0.0
Zn281 Zn -0.0069 0.69652 0.78051 0.0
O282 O 0.95139 0.63224 0.78673 0.0
O283 O -0.00637 0.65356 0.76395 0.0
O284 O 0.91548 0.70626 0.71279 0.0
O285 O 0.89924 0.66998 0.74773 0.0
O286 O 0.89377 0.67962 0.82296 0.0
O287 O 0.90675 0.72882 0.83619 0.0
O288 O 0.98034 0.73102 0.84917 0.0
O289 O 0.98764 0.73476 0.71674 0.0
O290 O 0.00797 0.69389 0.82419 0.0
O291 O 0.02249 0.72106 0.75345 0.0
C292 C 0.93111 0.79353 0.7714 0.0
C293 C 0.97731 0.62943 0.77128 0.0
C294 C 0.88867 0.70491 0.83877 0.0
C295 C 0.89793 0.683 0.72058 0.0
C296 C 0.0013 0.70912 0.84919 0.0
C297 C 0.01615 0.73201 0.72615 0.0
O298 O 0.94011 0.7848 0.79902 0.0
O299 O 0.5615 0.28116 0.22599 0.0
Zn300 Zn 0.54591 0.32548 0.23136 0.0
O301 O 0.52869 0.33124 0.27288 0.0
Zn302 Zn 0.54999 0.36367 0.29757 0.0
Zn303 Zn 0.52654 0.29145 0.2944 0.0
Zn304 Zn 0.48683 0.34612 0.26772 0.0
O305 O 0.5178 0.39847 0.3106 0.0
O306 O 0.48745 0.39263 0.26826 0.0
O307 O 0.5807 0.3565 0.22403 0.0
O308 O 0.58251 0.3844 0.26885 0.0
O309 O 0.57338 0.34228 0.33481 0.0
O310 O 0.55844 0.29201 0.32896 0.0
O311 O 0.48446 0.28583 0.31576 0.0
O312 O 0.51241 0.32951 0.19782 0.0
O313 O 0.4597 0.33083 0.30375 0.0
O314 O 0.46845 0.33325 0.22638 0.0
C315 C 0.55363 0.25538 0.23959 0.0
C316 C 0.49672 0.40909 0.29155 0.0
C317 C 0.57457 0.31309 0.34318 0.0
C318 C 0.59224 0.37874 0.24076 0.0
C319 C 0.46143 0.30503 0.31934 0.0
C320 C 0.48233 0.32981 0.19986 0.0
O321 O 0.53751 0.2553 0.26516 0.0
O322 O 0.43188 0.72412 0.27671 0.0
Zn323 Zn 0.45222 0.76622 0.2675 0.0
O324 O 0.46748 0.76613 0.22442 0.0
Zn325 Zn 0.45164 0.80104 0.19918 0.0
Zn326 Zn 0.45583 0.72787 0.20361 0.0
Zn327 Zn 0.51253 0.76725 0.22516 0.0
O328 O 0.48623 0.83467 0.19192 0.0
O329 O 0.52544 0.81136 0.21821 0.0
O330 O 0.42075 0.80243 0.27407 0.0
O331 O 0.4191 0.82239 0.22515 0.0
O332 O 0.42728 0.78521 0.1602 0.0
O333 O 0.41854 0.73562 0.17622 0.0
O334 O 0.48867 0.71696 0.17112 0.0
O335 O 0.48887 0.76741 0.2984 0.0
O336 O 0.5306 0.74349 0.18827 0.0
O337 O 0.53008 0.75542 0.26759 0.0
C338 C 0.43372 0.69704 0.26345 0.0
C339 C 0.51408 0.83525 0.20381 0.0
C340 C 0.4131 0.75859 0.15738 0.0
C341 C 0.40943 0.82178 0.25367 0.0
C342 C 0.51725 0.7258 0.16791 0.0
C343 C 0.51795 0.75987 0.29489 0.0
O344 O 0.44538 0.6938 0.23569 0.0
O345 O 0.05341 0.19682 0.77144 0.0
Zn346 Zn 0.03593 0.15239 0.76501 0.0
O347 O 0.0162 0.15067 0.72479 0.0
Zn348 Zn 0.03094 0.11878 0.69519 0.0
Zn349 Zn 0.01387 0.19069 0.70508 0.0
Zn350 Zn 0.9761 0.13306 0.73089 0.0
O351 O 0.99216 0.09378 0.67791 0.0
O352 O 0.98201 0.08698 0.72763 0.0
O353 O 0.06885 0.11739 0.76547 0.0
O354 O 0.06034 0.09093 0.72023 0.0
O355 O 0.05644 0.14048 0.66076 0.0
O356 O 0.04677 0.19139 0.67112 0.0
O357 O 0.97257 0.19313 0.68115 0.0
O358 O 0.00301 0.14664 0.80002 0.0
O359 O 0.94828 0.14854 0.69583 0.0
O360 O 0.95852 0.14123 0.77253 0.0
C361 C 0.04389 0.2236 0.76073 0.0
C362 C 0.97542 0.08048 0.69926 0.0
C363 C 0.06075 0.16991 0.65516 0.0
C364 C 0.07441 0.09414 0.74681 0.0
C365 C 0.95022 0.17296 0.67814 0.0
C366 C 0.97291 0.14392 0.7987 0.0
O367 O 0.02491 0.22534 0.7371 0.0
O368 O 0.69035 0.93563 0.72808 0.0
Zn369 Zn 0.70089 0.94783 0.6829 0.0
O370 O 0.74336 0.9631 0.68154 0.0
Zn371 Zn 0.77145 0.94414 0.6513 0.0
Zn372 Zn 0.76255 0.96621 0.72186 0.0
Zn373 Zn 0.74098 0.00327 0.66387 0.0
O374 O 0.78343 0.975 0.6151 0.0
O375 O 0.73711 -0.0019 0.61765 0.0
O376 O 0.69802 0.91039 0.65319 0.0
O377 O 0.74748 0.90761 0.63405 0.0
O378 O 0.80979 0.92706 0.67394 0.0
O379 O 0.7976 0.93383 0.72479 0.0
O380 O 0.78594 0.00777 0.72483 0.0
O381 O 0.67011 0.98324 0.67179 0.0
O382 O 0.78104 0.02628 0.67568 0.0
O383 O 0.7019 0.02504 0.676 0.0
C384 C 0.70276 0.94348 0.75449 0.0
C385 C 0.76217 0.99234 0.60241 0.0
C386 C 0.81573 0.92277 0.70328 0.0
C387 C 0.71927 0.89707 0.6362 0.0
C388 C 0.79501 0.02608 0.70244 0.0
C389 C 0.67438 0.01316 0.6732 0.0
O390 O 0.7295 0.95769 0.75578 0.0
O391 O 0.73677 0.06896 0.24132 0.0
Zn392 Zn 0.73565 0.05337 0.19608 0.0
O393 O 0.69381 0.03644 0.18676 0.0
Zn394 Zn 0.67198 0.0593 0.15322 0.0
Zn395 Zn 0.66763 0.03541 0.22443 0.0
Zn396 Zn 0.69886 -0.00526 0.17063 0.0
O397 O 0.65744 0.03125 0.11674 0.0
O398 O 0.69373 -0.00595 0.12439 0.0
O399 O 0.7459 0.08884 0.16502 0.0
O400 O 0.70289 0.08943 0.13442 0.0
O401 O 0.63645 0.08555 0.17118 0.0
O402 O 0.6348 0.06935 0.22124 0.0
O403 O 0.6439 -0.0064 0.22786 0.0
O404 O 0.76932 0.0188 0.193 0.0
O405 O 0.66645 0.966 0.18896 0.0
O406 O 0.74105 0.97703 0.1784 0.0
C407 C 0.71965 0.06291 0.26553 0.0
C408 C 0.67367 0.00782 0.10679 0.0
C409 C 0.62487 0.08715 0.19901 0.0
C410 C 0.73048 0.0994 0.14121 0.0
C411 C 0.64628 0.96857 0.21116 0.0
C412 C 0.76722 0.98948 0.18604 0.0
O413 O 0.69378 0.04735 0.26311 0.0
O414 O 0.21299 0.55287 0.26668 0.0
Zn415 Zn 0.21914 0.52658 0.3059 0.0
O416 O 0.26296 0.51996 0.31273 0.0
Zn417 Zn 0.27526 0.52579 0.3559 0.0
Zn418 Zn 0.28763 0.54706 0.28736 0.0
Zn419 Zn 0.2724 0.47838 0.30035 0.0
O420 O 0.27592 0.48329 0.37884 0.0
O421 O 0.26643 0.45181 0.33791 0.0
O422 O 0.19965 0.5484 0.34372 0.0
O423 O 0.24061 0.54986 0.37696 0.0
O424 O 0.31555 0.55289 0.35624 0.0
O425 O 0.30075 0.58247 0.31507 0.0
O426 O 0.32874 0.52558 0.27528 0.0
O427 O 0.19973 0.4843 0.29664 0.0
O428 O 0.31813 0.47554 0.28807 0.0
O429 O 0.23968 0.46222 0.27002 0.0
C430 C 0.23223 0.56384 0.24615 0.0
C431 C 0.26892 0.45614 0.36753 0.0
C432 C 0.31821 0.57789 0.33923 0.0
C433 C 0.21189 0.5562 0.3702 0.0
C434 C 0.33739 0.49689 0.27892 0.0
C435 C 0.21048 0.46311 0.27794 0.0
O436 O 0.26218 0.5622 0.25001 0.0
O437 O 0.20909 0.41519 0.73219 0.0
Zn438 Zn 0.21118 0.4355 0.77481 0.0
O439 O 0.17068 0.45349 0.78651 0.0
Zn440 Zn 0.15665 0.43888 0.8283 0.0
Zn441 Zn 0.13989 0.44158 0.75522 0.0
Zn442 Zn 0.17441 0.49895 0.78539 0.0
O443 O 0.15093 0.47709 0.85895 0.0
O444 O 0.17385 0.51458 0.82955 0.0
O445 O 0.22656 0.40499 0.80793 0.0
O446 O 0.19191 0.41288 0.84691 0.0
O447 O 0.11959 0.40666 0.8238 0.0
O448 O 0.1142 0.40602 0.77132 0.0
O449 O 0.10949 0.47683 0.7471 0.0
O450 O 0.24393 0.46927 0.76937 0.0
O451 O 0.13692 0.51874 0.76329 0.0
O452 O 0.21602 0.51391 0.76771 0.0
C453 C 0.18843 0.41588 0.71026 0.0
C454 C 0.16278 0.50489 0.85582 0.0
C455 C 0.10717 0.39533 0.79857 0.0
C456 C 0.2171 0.40013 0.83618 0.0
C457 C 0.11238 0.50653 0.75077 0.0
C458 C 0.24216 0.49906 0.76506 0.0
O459 O 0.16084 0.42725 0.7149 0.0
O460 O 0.71426 0.74797 0.93158 0.0
Zn461 Zn 0.67079 0.74943 0.95089 0.0
O462 O 0.65771 0.79241 0.95697 0.0
Zn463 Zn 0.61416 0.79907 0.94373 0.0
Zn464 Zn 0.68695 0.82152 0.93931 0.0
Zn465 Zn 0.66122 0.79927 0.00075 0.0
O466 O 0.58357 0.79569 0.98237 0.0
O467 O 0.62082 0.78751 0.01851 0.0
O468 O 0.64032 0.72598 0.92333 0.0
O469 O 0.60149 0.76137 0.91841 0.0
O470 O 0.61312 0.83725 0.91255 0.0
O471 O 0.66527 0.84125 0.90319 0.0
O472 O 0.69594 0.85883 0.96782 0.0
O473 O 0.67283 0.72833 -0.00674 0.0
O474 O 0.66886 0.84455 0.01054 0.0
O475 O 0.6909 0.76879 0.02153 0.0
C476 C 0.73384 0.76959 0.92382 0.0
C477 C 0.59204 0.78699 0.0102 0.0
C478 C 0.63667 0.84857 0.89692 0.0
C479 C 0.61332 0.7342 0.91275 0.0
C480 C 0.68417 0.86514 -0.00518 0.0
C481 C 0.68524 0.73932 0.01838 0.0
O482 O 0.72682 0.79894 0.9261 0.0
O483 O 0.23156 0.75253 0.06269 0.0
Zn484 Zn 0.18871 0.75152 0.0422 0.0
O485 O 0.18181 0.7096 0.02684 0.0
Zn486 Zn 0.1482 0.6879 0.04858 0.0
Zn487 Zn 0.21962 0.68497 0.02629 0.0
Zn488 Zn 0.16677 0.71315 0.98531 0.0
O489 O 0.1131 0.67483 0.01836 0.0
O490 O 0.12037 0.7173 0.98818 0.0
O491 O 0.15216 0.76531 0.07074 0.0
O492 O 0.12621 0.71963 0.07506 0.0
O493 O 0.16603 0.65346 0.07704 0.0
O494 O 0.21666 0.65484 0.06243 0.0
O495 O 0.22109 0.65687 0.98652 0.0
O496 O 0.19297 0.78144 0.00545 0.0
O497 O 0.17634 0.6723 0.96314 0.0
O498 O 0.18459 0.75141 0.96317 0.0
C499 C 0.25714 0.73796 0.05549 0.0
C500 C 0.10242 0.69596 -0.00051 0.0
C501 C 0.19466 0.64413 0.08006 0.0
C502 C 0.12886 0.74901 0.08111 0.0
C503 C 0.19939 0.65295 0.96573 0.0
C504 C 0.19253 0.77776 0.97551 0.0
O505 O 0.25712 0.71347 0.03751 0.0
O506 O 0.23872 0.20749 0.5564 0.0
Zn507 Zn 0.28007 0.21905 0.53495 0.0
O508 O 0.27547 0.25855 0.51206 0.0
Zn509 Zn 0.30688 0.29027 0.52294 0.0
Zn510 Zn 0.23461 0.27558 0.52026 0.0
Zn511 Zn 0.27796 0.25109 0.46775 0.0
O512 O 0.33183 0.30626 0.48457 0.0
O513 O 0.31831 0.26776 0.45152 0.0
O514 O 0.3162 0.22321 0.56614 0.0
O515 O 0.338 0.2691 0.55123 0.0
O516 O 0.28754 0.32529 0.5498 0.0
O517 O 0.23801 0.30796 0.55367 0.0
O518 O 0.21986 0.29951 0.48256 0.0
O519 O 0.28943 0.18311 0.50455 0.0
O520 O 0.24531 0.27546 0.44346 0.0
O521 O 0.27929 0.20556 0.45785 0.0
C522 C 0.2105 0.21761 0.55235 0.0
C523 C 0.33574 0.29111 0.45874 0.0
C524 C 0.25974 0.32717 0.56157 0.0
C525 C 0.33817 0.24389 0.56783 0.0
C526 C 0.22634 0.29674 0.45331 0.0
C527 C 0.28663 0.18154 0.47454 0.0
O528 O 0.20477 0.24237 0.53595 0.0
O529 O 0.74999 0.27568 0.44677 0.0
Zn530 Zn 0.79309 0.26648 0.46498 0.0
O531 O 0.79393 0.22161 0.47314 0.0
Zn532 Zn 0.82925 0.19864 0.45564 0.0
Zn533 Zn 0.75537 0.19903 0.46542 0.0
Zn534 Zn 0.8018 0.22036 0.51631 0.0
O535 O 0.85722 0.17991 0.4908 0.0
O536 O 0.8476 0.21963 0.52365 0.0
O537 O 0.82877 0.2767 0.4345 0.0
O538 O 0.85546 0.23082 0.43341 0.0
O539 O 0.81373 0.16669 0.42252 0.0
O540 O 0.76148 0.17262 0.42659 0.0
O541 O 0.74817 0.16566 0.50057 0.0
O542 O 0.7982 0.29323 0.50564 0.0
O543 O 0.78593 0.18087 0.53366 0.0
O544 O 0.78456 0.25612 0.53993 0.0
C545 C 0.72356 0.26094 0.44595 0.0
C546 C 0.86448 0.19632 0.51509 0.0
C547 C 0.78562 0.16043 0.41314 0.0
C548 C 0.85257 0.25997 0.4261 0.0
C549 C 0.76475 0.16129 0.52555 0.0
C550 C 0.79048 0.28489 0.53368 0.0
O551 O 0.72104 0.232 0.45514 0.0
H552 H 0.12806 0.35725 0.21381 0.0
H553 H 0.07859 0.36407 0.30309 0.0
H554 H 0.11578 0.40464 0.32083 0.0
H555 H 0.16113 0.43914 0.31022 0.0
H556 H 0.21243 0.43052 0.22224 0.0
H557 H 0.17554 0.38945 0.20453 0.0
C558 C 0.12546 0.36762 0.23717 0.0
C559 C 0.10051 0.35802 0.25704 0.0
C560 C 0.14706 0.39057 0.24729 0.0
C561 C 0.09766 0.37114 0.28743 0.0
C562 C 0.11879 0.39439 0.29751 0.0
C563 C 0.16411 0.42833 0.28711 0.0
C564 C 0.18901 0.43801 0.26727 0.0
C565 C 0.14333 0.40448 0.27749 0.0
C566 C 0.19324 0.42341 0.23775 0.0
C567 C 0.1722 0.40004 0.22767 0.0
H568 H 0.25627 0.55975 0.78059 0.0
H569 H 0.29353 0.47726 0.73309 0.0
H570 H 0.34261 0.50553 0.72142 0.0
H571 H 0.3748 0.55349 0.72469 0.0
H572 H 0.33905 0.63534 0.77448 0.0
H573 H 0.28959 0.60737 0.78565 0.0
C574 C 0.2751 0.54812 0.76751 0.0
C575 C 0.2713 0.51663 0.75746 0.0
C576 C 0.30354 0.56425 0.76155 0.0
C577 C 0.296 0.50153 0.74104 0.0
C578 C 0.32403 0.51765 0.73437 0.0
C579 C 0.35621 0.56522 0.73803 0.0
C580 C 0.36051 0.59647 0.74861 0.0
C581 C 0.32806 0.54896 0.74457 0.0
C582 C 0.33636 0.61122 0.76618 0.0
C583 C 0.30802 0.59532 0.77243 0.0
H584 H 0.55912 0.09732 0.70933 0.0
H585 H 0.61832 0.16902 0.66719 0.0
H586 H 0.6544 0.12794 0.64729 0.0
H587 H 0.6734 0.07301 0.65107 0.0
H588 H 0.61468 0.00163 0.69486 0.0
H589 H 0.57342 0.04121 0.70456 0.0
C590 C 0.57946 0.10371 0.69492 0.0
C591 C 0.58661 0.13575 0.68984 0.0
C592 C 0.60018 0.08017 0.68441 0.0
C593 C 0.61264 0.14429 0.67114 0.0
C594 C 0.6333 0.12089 0.66013 0.0
C595 C 0.6513 0.06608 0.66224 0.0
C596 C 0.64721 0.03483 0.67306 0.0
C597 C 0.62806 0.08896 0.66805 0.0
C598 C 0.61833 0.02571 0.6867 0.0
C599 C 0.59487 0.04831 0.69235 0.0
H600 H 0.86285 0.87582 0.19514 0.0
H601 H 0.89619 0.93233 0.27343 0.0
H602 H 0.86001 0.97477 0.25914 0.0
H603 H 0.81576 -0.00571 0.22734 0.0
H604 H 0.77957 0.9369 0.15123 0.0
H605 H 0.82023 0.89685 0.16124 0.0
C606 C 0.86228 0.89751 0.20886 0.0
C607 C 0.88176 0.90064 0.23554 0.0
C608 C 0.84095 0.92182 0.20087 0.0
C609 C 0.88093 0.92898 0.2531 0.0
C610 C 0.86039 0.95344 0.24488 0.0
C611 C 0.81727 0.97332 0.21257 0.0
C612 C 0.79483 0.96841 0.18873 0.0
C613 C 0.83987 0.9499 0.21921 0.0
C614 C 0.79665 0.941 0.16991 0.0
C615 C 0.81976 0.91805 0.17567 0.0
H616 H 0.31419 0.17313 0.41792 0.0
H617 H 0.26866 0.12272 0.49435 0.0
H618 H 0.26461 0.07539 0.4611 0.0
H619 H 0.26493 0.05279 0.4076 0.0
H620 H 0.30913 0.10386 0.33081 0.0
H621 H 0.32371 0.14649 0.36718 0.0
C622 C 0.30401 0.15149 0.42743 0.0
C623 C 0.29101 0.15133 0.45807 0.0
C624 C 0.30142 0.12478 0.40811 0.0
C625 C 0.27855 0.12323 0.47066 0.0
C626 C 0.27608 0.09634 0.45162 0.0
C627 C 0.27847 0.07293 0.39907 0.0
C628 C 0.2854 0.07577 0.36664 0.0
C629 C 0.28605 0.09746 0.4199 0.0
C630 C 0.30346 0.10143 0.35573 0.0
C631 C 0.3115 0.12586 0.37643 0.0
H632 H 0.25742 0.89383 0.9083 0.0
H633 H 0.21952 0.84823 0.82525 0.0
H634 H 0.19464 0.80773 0.85862 0.0
H635 H 0.18635 0.78378 0.91137 0.0
H636 H 0.22373 0.83092 -0.006 0.0
H637 H 0.24598 0.87239 0.96071 0.0
C638 C 0.24362 0.87509 0.89747 0.0
C639 C 0.24061 0.87377 0.86439 0.0
C640 C 0.22936 0.85212 0.91671 0.0
C641 C 0.2222 0.8497 0.85072 0.0
C642 C 0.20809 0.82649 0.86976 0.0
C643 C 0.19921 0.80323 0.92208 0.0
C644 C 0.20357 0.80404 0.95511 0.0
C645 C 0.21192 0.82722 0.90278 0.0
C646 C 0.22 0.82961 0.96865 0.0
C647 C 0.23285 0.85335 0.94964 0.0
H648 H 0.81445 0.34571 0.53572 0.0
H649 H 0.76859 0.27392 0.59284 0.0
H650 H 0.77287 0.30711 0.63917 0.0
H651 H 0.78673 0.35676 0.66343 0.0
H652 H 0.82787 0.43185 0.60763 0.0
H653 H 0.82975 0.39671 0.56137 0.0
C654 C 0.80519 0.33753 0.55826 0.0
C655 C 0.79109 0.30734 0.56058 0.0
C656 C 0.80751 0.35701 0.58528 0.0
C657 C 0.77951 0.29699 0.59012 0.0
C658 C 0.7821 0.31587 0.61684 0.0
C659 C 0.79665 0.36536 0.64128 0.0
C660 C 0.80695 0.39686 0.63892 0.0
C661 C 0.7959 0.34584 0.61467 0.0
C662 C 0.81998 0.40757 0.61016 0.0
C663 C 0.82054 0.38764 0.58357 0.0
H664 H 0.70143 0.62612 0.11303 0.0
H665 H 0.79268 0.67012 0.12438 0.0
H666 H 0.77561 0.71539 0.09226 0.0
H667 H 0.73707 0.73877 0.05551 0.0
H668 H 0.64845 0.69113 0.03878 0.0
H669 H 0.66173 0.65103 0.07852 0.0
C670 C 0.71713 0.64607 0.10898 0.0
C671 C 0.748 0.64528 0.12086 0.0
C672 C 0.70773 0.67101 0.08918 0.0
C673 C 0.76869 0.67065 0.11526 0.0
C674 C 0.75902 0.69634 0.09686 0.0
C675 C 0.72061 0.71981 0.06103 0.0
C676 C 0.69213 0.71743 0.04433 0.0
C677 C 0.72898 0.69624 0.08284 0.0
C678 C 0.6708 0.69289 0.05125 0.0
C679 C 0.67831 0.67009 0.07394 0.0
H680 H 0.41778 0.27227 0.07976 0.0
H681 H 0.33418 0.30917 0.12551 0.0
H682 H 0.36712 0.33389 0.16635 0.0
H683 H 0.41931 0.34002 0.19157 0.0
H684 H 0.50266 0.30346 0.14466 0.0
H685 H 0.47011 0.28393 0.10132 0.0
C686 C 0.40683 0.28598 0.09855 0.0
C687 C 0.37374 0.28852 0.10015 0.0
C688 C 0.42581 0.30005 0.12165 0.0
C689 C 0.3597 0.30686 0.12405 0.0
C690 C 0.37848 0.32083 0.14739 0.0
C691 C 0.43036 0.32812 0.17166 0.0
C692 C 0.46325 0.32274 0.17156 0.0
C693 C 0.41151 0.31684 0.14684 0.0
C694 C 0.47737 0.30779 0.14538 0.0
C695 C 0.45878 0.29646 0.12066 0.0
H696 H 0.85998 0.18262 0.88376 0.0
H697 H 0.93016 0.24958 0.91598 0.0
H698 H 0.97135 0.221 0.88784 0.0
H699 H 0.98595 0.18241 0.84758 0.0
H700 H 0.91557 0.11794 0.81169 0.0
H701 H 0.87635 0.13921 0.84859 0.0
C702 C 0.88434 0.19066 0.8849 0.0
C703 C 0.8918 0.21861 0.90112 0.0
C704 C 0.908 0.17443 0.86814 0.0
C705 C 0.92357 0.22857 0.90284 0.0
C706 C 0.94728 0.21214 0.88697 0.0
C707 C 0.96235 0.17229 0.84869 0.0
C708 C 0.95341 0.14904 0.82693 0.0
C709 C 0.93958 0.18575 0.86864 0.0
C710 C 0.92275 0.13615 0.82825 0.0
C711 C 0.90027 0.14848 0.84907 0.0
H712 H 0.57905 0.77725 0.30299 0.0
H713 H 0.50095 0.73088 0.34974 0.0
H714 H 0.53525 0.71701 0.3944 0.0
H715 H 0.58846 0.71461 0.41801 0.0
H716 H 0.66574 0.7642 0.37326 0.0
H717 H 0.63071 0.78077 0.33005 0.0
C718 C 0.56959 0.76436 0.32314 0.0
C719 C 0.53777 0.75468 0.32308 0.0
C720 C 0.58925 0.7571 0.34896 0.0
C721 C 0.52545 0.73849 0.3494 0.0
C722 C 0.54504 0.73048 0.37483 0.0
C723 C 0.59743 0.72942 0.39897 0.0
C724 C 0.62956 0.73797 0.3985 0.0
C725 C 0.5771 0.73916 0.37456 0.0
C726 C 0.641 0.75746 0.37405 0.0
C727 C 0.62106 0.76672 0.34928 0.0
H728 H 0.13764 0.73394 0.63998 0.0
H729 H 0.07181 0.7783 0.57549 0.0
H730 H 0.03015 0.7758 0.6156 0.0
H731 H 0.0123 0.75996 0.6684 0.0
H732 H 0.07863 0.71701 0.73354 0.0
H733 H 0.12046 0.72063 0.69389 0.0
C734 C 0.1141 0.74283 0.63471 0.0
C735 C 0.10758 0.75591 0.60485 0.0
C736 C 0.09052 0.74194 0.65803 0.0
C737 C 0.07724 0.768 0.59838 0.0
C738 C 0.05348 0.76665 0.62127 0.0
C739 C 0.03597 0.75164 0.67404 0.0
C740 C 0.04226 0.73808 0.70378 0.0
C741 C 0.05986 0.75362 0.65114 0.0
C742 C 0.07313 0.72762 0.71082 0.0
C743 C 0.09704 0.72946 0.6881 0.0
H744 H 0.83475 0.6825 0.71935 0.0
H745 H 0.91772 0.64588 0.67271 0.0
H746 H 0.88746 0.60052 0.65329 0.0
H747 H 0.84065 0.56623 0.66012 0.0
H748 H 0.75773 0.60323 0.70705 0.0
H749 H 0.78455 0.65365 0.71593 0.0
C750 C 0.84561 0.6654 0.7035 0.0
C751 C 0.87812 0.6672 0.69729 0.0
C752 C 0.82838 0.63897 0.69357 0.0
C753 C 0.89246 0.64494 0.67725 0.0
C754 C 0.87534 0.61873 0.66675 0.0
C755 C 0.82845 0.58558 0.67186 0.0
C756 C 0.79779 0.58101 0.6838 0.0
C757 C 0.84386 0.61458 0.67652 0.0
C758 C 0.78162 0.60628 0.69815 0.0
C759 C 0.79687 0.63507 0.70316 0.0
H760 H 0.6047 0.44057 0.25301 0.0
H761 H 0.63577 0.36097 0.19693 0.0
H762 H 0.67755 0.39324 0.17335 0.0
H763 H 0.70582 0.44359 0.16945 0.0
H764 H 0.67374 0.52414 0.22359 0.0
H765 H 0.63141 0.49211 0.24683 0.0
C766 C 0.62074 0.43035 0.23573 0.0
C767 C 0.61745 0.39845 0.22691 0.0
C768 C 0.64428 0.44922 0.22176 0.0
C769 C 0.63793 0.38551 0.20408 0.0
C770 C 0.66179 0.40392 0.1906 0.0
C771 C 0.68945 0.45418 0.18621 0.0
C772 C 0.69294 0.48607 0.19491 0.0
C773 C 0.66522 0.43574 0.19933 0.0
C774 C 0.67139 0.49963 0.21639 0.0
C775 C 0.64734 0.48129 0.22985 0.0
H776 H 0.36182 0.84132 0.2166 0.0
H777 H 0.40176 0.85353 0.30973 0.0
H778 H 0.36453 0.8971 0.32006 0.0
H779 H 0.3225 0.93326 0.30113 0.0
H780 H 0.28104 0.91851 0.20903 0.0
H781 H 0.31747 0.87436 0.1994 0.0
C782 C 0.36219 0.8534 0.23928 0.0
C783 C 0.38455 0.84461 0.26232 0.0
C784 C 0.34087 0.87811 0.24492 0.0
C785 C 0.3846 0.85993 0.29176 0.0
C786 C 0.36356 0.88495 0.2975 0.0
C787 C 0.32169 0.92044 0.2789 0.0
C788 C 0.29973 0.9293 0.25548 0.0
C789 C 0.34201 0.89458 0.274 0.0
C790 C 0.29807 0.91214 0.22715 0.0
C791 C 0.31876 0.88693 0.22172 0.0
H792 H 0.1761 0.98561 0.75894 0.0
H793 H 0.22802 0.0619 0.80262 0.0
H794 H 0.18197 0.09659 0.79807 0.0
H795 H 0.12803 0.10616 0.7792 0.0
H796 H 0.07743 0.03159 0.73141 0.0
H797 H 0.1217 -0.00485 0.74033 0.0
C798 C 0.17717 0.00976 0.76764 0.0
C799 C 0.20533 0.02125 0.78098 0.0
C800 C 0.15087 0.02984 0.76424 0.0
C801 C 0.20662 0.05264 0.79196 0.0
C802 C 0.18031 0.07246 0.78949 0.0
C803 C 0.12656 0.08178 0.77119 0.0
C804 C 0.0996 0.07142 0.75487 0.0
C805 C 0.15245 0.06142 0.77537 0.0
C806 C 0.09808 0.04 0.74405 0.0
C807 C 0.12335 0.01922 0.74908 0.0
H808 H 0.75667 0.84629 0.63031 0.0
H809 H 0.66547 0.88354 0.60321 0.0
H810 H 0.65713 0.838 0.56816 0.0
H811 H 0.67806 0.79003 0.54242 0.0
H812 H 0.76829 0.75185 0.57171 0.0
H813 H 0.77488 0.79552 0.60912 0.0
C814 C 0.73486 0.84419 0.6169 0.0
C815 C 0.71186 0.86814 0.61872 0.0
C816 C 0.73027 0.81809 0.59721 0.0
C817 C 0.68341 0.8652 0.60193 0.0
C818 C 0.67878 0.83936 0.58185 0.0
C819 C 0.69907 0.7913 0.55714 0.0
C820 C 0.72296 0.7683 0.55413 0.0
C821 C 0.7024 0.81609 0.57881 0.0
C822 C 0.74976 0.76953 0.57367 0.0
C823 C 0.75353 0.79444 0.59493 0.0
H824 H 0.79247 0.21571 0.07098 0.0
H825 H 0.7426 0.17446 0.99212 0.0
H826 H 0.7231 0.13185 0.02644 0.0
H827 H 0.71973 0.1071 0.07885 0.0
H828 H 0.77242 0.14608 0.15706 0.0
H829 H 0.79184 0.18886 0.12282 0.0
C830 C 0.77716 0.19745 0.06144 0.0
C831 C 0.76845 0.19831 0.02932 0.0
C832 C 0.76685 0.17269 0.08105 0.0
C833 C 0.74935 0.17422 0.01687 0.0
C834 C 0.73826 0.14995 0.03644 0.0
C835 C 0.73551 0.12496 0.08839 0.0
C836 C 0.74442 0.12376 0.12044 0.0
C837 C 0.7468 0.14904 0.06855 0.0
C838 C 0.76531 0.1466 0.13242 0.0
C839 C 0.77624 0.17109 0.11292 0.0
H840 H 0.15266 0.671 0.43978 0.0
H841 H 0.20865 0.63295 0.51629 0.0
H842 H 0.21825 0.58454 0.48578 0.0
H843 H 0.21934 0.55881 0.43364 0.0
H844 H 0.16437 0.59787 0.35672 0.0
H845 H 0.145 0.63996 0.39138 0.0
C846 C 0.16623 0.65166 0.45002 0.0
C847 C 0.18052 0.65547 0.47976 0.0
C848 C 0.17207 0.62442 0.43217 0.0
C849 C 0.19758 0.63034 0.4933 0.0
C850 C 0.20328 0.60288 0.47577 0.0
C851 C 0.20253 0.57615 0.42472 0.0
C852 C 0.19388 0.57588 0.39258 0.0
C853 C 0.19201 0.60049 0.44458 0.0
C854 C 0.17155 0.59786 0.38135 0.0
C855 C 0.16066 0.62202 0.40108 0.0
H856 H 0.29683 0.29542 0.90666 0.0
H857 H 0.25466 0.34088 0.98801 0.0
H858 H 0.22893 0.37958 0.9535 0.0
H859 H 0.21619 0.39866 0.90022 0.0
H860 H 0.25918 0.3541 0.81885 0.0
H861 H 0.28696 0.31684 0.85351 0.0
C862 C 0.28213 0.3139 0.91685 0.0
C863 C 0.27742 0.31512 0.94979 0.0
C864 C 0.26747 0.33608 0.89692 0.0
C865 C 0.25868 0.33943 0.96271 0.0
C866 C 0.24384 0.36148 0.943 0.0
C867 C 0.23168 0.38081 0.89007 0.0
C868 C 0.23536 0.37885 0.85705 0.0
C869 C 0.2477 0.3597 0.91007 0.0
C870 C 0.25592 0.35601 0.84423 0.0
C871 C 0.27174 0.33468 0.864 0.0
H872 H 0.55473 0.64512 0.81033 0.0
H873 H 0.46901 0.68973 0.8442 0.0
H874 H 0.49868 0.71522 0.88657 0.0
H875 H 0.54985 0.73099 0.90856 0.0
H876 H 0.63577 0.68733 0.87435 0.0
H877 H 0.60503 0.65513 0.83736 0.0
C878 C 0.54244 0.65995 0.82735 0.0
C879 C 0.5099 0.66611 0.82377 0.0
C880 C 0.55972 0.67508 0.85114 0.0
C881 C 0.49411 0.6848 0.84633 0.0
C882 C 0.51109 0.69961 0.87038 0.0
C883 C 0.56178 0.71422 0.89315 0.0
C884 C 0.59495 0.71196 0.89346 0.0
C885 C 0.54405 0.69598 0.87208 0.0
C886 C 0.61021 0.68961 0.87416 0.0
C887 C 0.59268 0.67129 0.85304 0.0
H888 H 0.00507 0.7881 0.15384 0.0
H889 H 0.06589 0.86325 0.1864 0.0
H890 H 0.10786 0.84545 0.15063 0.0
H891 H 0.1293 0.80461 0.11455 0.0
H892 H 0.06866 0.72765 0.08553 0.0
H893 H 0.02488 0.74997 0.11542 0.0
C894 C 0.0272 0.80108 0.15251 0.0
C895 C 0.03241 0.82685 0.1727 0.0
C896 C 0.05162 0.78994 0.13298 0.0
C897 C 0.06138 0.84321 0.17106 0.0
C898 C 0.08547 0.83294 0.15079 0.0
C899 C 0.10643 0.79294 0.11465 0.0
C900 C 0.10249 0.76424 0.09837 0.0
C901 C 0.08124 0.80565 0.13241 0.0
C902 C 0.07262 0.74943 0.09848 0.0
C903 C 0.04741 0.76226 0.11539 0.0
H904 H 0.46255 0.24286 0.64863 0.0
H905 H 0.39724 0.21114 0.72073 0.0
H906 H 0.35386 0.21257 0.68246 0.0
H907 H 0.33467 0.2225 0.62818 0.0
H908 H 0.39982 0.25701 0.55739 0.0
H909 H 0.44335 0.25424 0.59536 0.0
C910 C 0.4388 0.23638 0.65602 0.0
C911 C 0.4331 0.22689 0.68738 0.0
C912 C 0.41409 0.23734 0.63404 0.0
C913 C 0.40217 0.21879 0.69672 0.0
C914 C 0.37742 0.21934 0.67482 0.0
C915 C 0.35851 0.22899 0.62113 0.0
C916 C 0.36434 0.23956 0.59016 0.0
C917 C 0.38316 0.22835 0.64335 0.0
C918 C 0.39503 0.24866 0.58121 0.0
C919 C 0.41982 0.2472 0.60287 0.0
H920 H 0.8435 0.28598 0.36877 0.0
H921 H 0.91551 0.26123 0.43666 0.0
H922 H 0.95689 0.27103 0.39722 0.0
H923 H 0.97167 0.27921 0.34172 0.0
H924 H 0.89895 0.2984 0.27245 0.0
H925 H 0.85871 0.29819 0.31395 0.0
C926 C 0.86834 0.28378 0.37501 0.0
C927 C 0.87678 0.27332 0.40532 0.0
C928 C 0.89173 0.28772 0.35178 0.0
C929 C 0.90881 0.26961 0.41331 0.0
C930 C 0.93235 0.27491 0.39076 0.0
C931 C 0.94708 0.28376 0.3358 0.0
C932 C 0.93821 0.28836 0.30411 0.0
C933 C 0.92398 0.28277 0.35961 0.0
C934 C 0.90627 0.29425 0.2967 0.0
C935 C 0.88326 0.29428 0.32039 0.0
H936 H 0.15849 0.13231 0.32912 0.0
H937 H 0.10338 0.05658 0.2892 0.0
H938 H 0.0623 0.09432 0.27308 0.0
H939 H 0.04669 0.14989 0.26291 0.0
H940 H 0.10132 0.22539 0.30454 0.0
H941 H 0.13763 0.1869 0.32777 0.0
C942 C 0.1368 0.12406 0.31814 0.0
C943 C 0.13358 0.09188 0.31066 0.0
C944 C 0.11354 0.14596 0.30862 0.0
C945 C 0.10587 0.08129 0.29573 0.0
C946 C 0.08265 0.10291 0.28611 0.0
C947 C 0.0662 0.15781 0.27757 0.0
C948 C 0.07159 0.19044 0.28152 0.0
C949 C 0.08692 0.13547 0.29121 0.0
C950 C 0.09668 0.20041 0.30099 0.0
C951 C 0.11759 0.17841 0.31422 0.0
H952 H 0.41434 0.88036 0.76757 0.0
H953 H 0.36363 0.84058 0.84686 0.0
H954 H 0.38512 0.78797 0.8344 0.0
H955 H 0.41139 0.7526 0.79592 0.0
H956 H 0.45973 0.79297 0.71513 0.0
H957 H 0.44583 0.84612 0.7331 0.0
C958 C 0.40867 0.86028 0.78265 0.0
C959 C 0.38725 0.86422 0.80794 0.0
C960 C 0.41999 0.83015 0.77452 0.0
C961 C 0.38026 0.83818 0.82745 0.0
C962 C 0.39214 0.80804 0.81997 0.0
C963 C 0.41909 0.77301 0.78231 0.0
C964 C 0.43604 0.76869 0.75378 0.0
C965 C 0.41083 0.80358 0.7927 0.0
C966 C 0.44637 0.79549 0.7369 0.0
C967 C 0.43847 0.82593 0.7472 0.0
H968 H 0.65542 0.37424 0.66673 0.0
H969 H 0.64572 0.41829 0.75858 0.0
H970 H 0.60258 0.38276 0.77179 0.0
H971 H 0.57128 0.33622 0.75972 0.0
H972 H 0.58159 0.29015 0.66903 0.0
H973 H 0.62011 0.33006 0.65269 0.0
C974 C 0.64371 0.37618 0.68952 0.0
C975 C 0.65425 0.39846 0.7118 0.0
C976 C 0.61892 0.35543 0.69721 0.0
C977 C 0.63854 0.40097 0.74112 0.0
C978 C 0.61371 0.38075 0.74873 0.0
C979 C 0.58152 0.3351 0.73616 0.0
C980 C 0.57397 0.30994 0.71589 0.0
C981 C 0.60424 0.35745 0.72728 0.0
C982 C 0.5872 0.30915 0.68529 0.0
C983 C 0.6094 0.33183 0.67596 0.0
H984 H 0.90173 0.60802 0.22343 0.0
H985 H 0.87486 0.64365 0.13133 0.0
H986 H 0.89879 0.69472 0.14348 0.0
H987 H 0.92218 0.73114 0.18255 0.0
H988 H 0.94981 0.69486 0.27413 0.0
H989 H 0.93069 0.64237 0.25988 0.0
C990 C 0.90162 0.62675 0.20578 0.0
C991 C 0.88618 0.62208 0.17672 0.0
C992 C 0.9151 0.65621 0.213 0.0
C993 C 0.88657 0.64652 0.15396 0.0
C994 C 0.89999 0.67591 0.16097 0.0
C995 C 0.92415 0.71166 0.19925 0.0
C996 C 0.93695 0.71697 0.22945 0.0
C997 C 0.9134 0.68134 0.19081 0.0
C998 C 0.93994 0.69142 0.25072 0.0
C999 C 0.92898 0.66137 0.24264 0.0
H1000 H 0.30514 0.08041 0.20474 0.0
H1001 H 0.21488 0.0556 0.16361 0.0
H1002 H 0.2293 0.08251 0.11472 0.0
H1003 H 0.26496 0.11662 0.08547 0.0
H1004 H 0.35428 0.14474 0.12621 0.0
H1005 H 0.34311 0.11228 0.1732 0.0
C1006 C 0.28882 0.0806 0.18493 0.0
C1007 C 0.25881 0.06634 0.18798 0.0
C1008 C 0.29704 0.09669 0.15688 0.0
C1009 C 0.23793 0.06675 0.16209 0.0
C1010 C 0.24617 0.08207 0.13406 0.0
C1011 C 0.28222 0.11554 0.10447 0.0
C1012 C 0.31021 0.13344 0.10252 0.0
C1013 C 0.27528 0.0977 0.1315 0.0
C1014 C 0.33249 0.13124 0.12714 0.0
C1015 C 0.32601 0.11287 0.15409 0.0
H1016 H 0.22662 0.91365 0.69406 0.0
H1017 H 0.32577 0.89963 0.67287 0.0
H1018 H 0.31201 0.8769 0.62166 0.0
H1019 H 0.27193 0.85638 0.58556 0.0
H1020 H 0.1727 0.8694 0.60685 0.0
H1021 H 0.18649 0.89797 0.65514 0.0
C1022 C 0.24522 0.90577 0.67816 0.0
C1023 C 0.27712 0.90778 0.68745 0.0
C1024 C 0.23717 0.89269 0.6488 0.0
C1025 C 0.30101 0.8981 0.66636 0.0
C1026 C 0.29318 0.88509 0.6371 0.0
C1027 C 0.25328 0.86584 0.60052 0.0
C1028 C 0.22137 0.86034 0.59292 0.0
C1029 C 0.26134 0.88162 0.62845 0.0
C1030 C 0.19748 0.87321 0.61224 0.0
C1031 C 0.20534 0.88933 0.63998 0.0
H1032 H 0.83138 0.4276 0.77748 0.0
H1033 H 0.75577 0.47694 0.82567 0.0
H1034 H 0.76921 0.45017 0.87497 0.0
H1035 H 0.79643 0.40696 0.90211 0.0
H1036 H 0.87075 0.35537 0.85488 0.0
H1037 H 0.86443 0.38916 0.80776 0.0
C1038 C 0.81842 0.43309 0.79897 0.0
C1039 C 0.79226 0.45395 0.79771 0.0
C1040 C 0.82586 0.41694 0.82735 0.0
C1041 C 0.77569 0.46072 0.8258 0.0
C1042 C 0.78333 0.44537 0.85405 0.0
C1043 C 0.81181 0.40365 0.88175 0.0
C1044 C 0.83383 0.37862 0.88177 0.0
C1045 C 0.80745 0.42254 0.85475 0.0
C1046 C 0.85376 0.37463 0.85544 0.0
C1047 C 0.84986 0.39373 0.8284 0.0
H1048 H 0.72013 0.5721 0.27212 0.0
H1049 H 0.81581 0.55538 0.30424 0.0
H1050 H 0.79989 0.56839 0.35843 0.0
H1051 H 0.76109 0.59243 0.3942 0.0
H1052 H 0.66637 0.61229 0.36164 0.0
H1053 H 0.67927 0.58905 0.30993 0.0
C1054 C 0.73749 0.57107 0.29102 0.0
C1055 C 0.76934 0.56368 0.28414 0.0
C1056 C 0.72824 0.57895 0.32186 0.0
C1057 C 0.79131 0.56144 0.30893 0.0
C1058 C 0.7822 0.56889 0.33984 0.0
C1059 C 0.74305 0.59087 0.37597 0.0
C1060 C 0.713 0.60432 0.38126 0.0
C1061 C 0.75107 0.57878 0.34625 0.0
C1062 C 0.68958 0.60195 0.35793 0.0
C1063 C 0.69714 0.5891 0.32833 0.0
H1064 H 0.18557 0.20007 0.06975 0.0
H1065 H 0.20795 0.29869 0.05479 0.0
H1066 H 0.16004 0.31451 0.08294 0.0
H1067 H 0.11505 0.30046 0.11696 0.0
H1068 H 0.0942 0.20176 0.13418 0.0
H1069 H 0.13788 0.18597 0.1 0.0
C1070 C 0.17953 0.22496 0.07211 0.0
C1071 C 0.20031 0.24814 0.06053 0.0
C1072 C 0.1524 0.23396 0.08915 0.0
C1073 C 0.19241 0.28038 0.06388 0.0
C1074 C 0.16506 0.28948 0.08001 0.0
C1075 C 0.1198 0.27553 0.11286 0.0
C1076 C 0.10169 0.25241 0.12846 0.0
C1077 C 0.1454 0.2665 0.09361 0.0
C1078 C 0.10811 0.22014 0.12285 0.0
C1079 C 0.13307 0.211 0.10324 0.0
H1080 H 0.72263 0.21491 0.89131 0.0
H1081 H 0.69208 0.31177 0.90501 0.0
H1082 H 0.64285 0.30056 0.87732 0.0
H1083 H 0.60939 0.26429 0.84818 0.0
H1084 H 0.63893 0.16742 0.83327 0.0
H1085 H 0.6877 0.1776 0.86309 0.0
C1086 C 0.70523 0.23359 0.88824 0.0
C1087 C 0.71121 0.26423 0.90009 0.0
C1088 C 0.67683 0.22699 0.87227 0.0
C1089 C 0.68822 0.28803 0.89612 0.0
C1090 C 0.66003 0.28165 0.88029 0.0
C1091 C 0.62639 0.24524 0.8514 0.0
C1092 C 0.62063 0.21517 0.83825 0.0
C1093 C 0.65424 0.25134 0.86813 0.0
C1094 C 0.64278 0.19077 0.84314 0.0
C1095 C 0.6707 0.19664 0.86004 0.0
H1096 H 0.83727 0.70676 0.4216 0.0
H1097 H 0.77872 0.79079 0.42324 0.0
H1098 H 0.82036 0.82084 0.3969 0.0
H1099 H 0.87153 0.82227 0.3692 0.0
H1100 H 0.92967 0.73798 0.36689 0.0
H1101 H 0.89031 0.70941 0.39795 0.0
C1102 C 0.83369 0.73171 0.41648 0.0
C1103 C 0.80467 0.74627 0.42411 0.0
C1104 C 0.85768 0.74893 0.40107 0.0
C1105 C 0.80066 0.77876 0.41748 0.0
C1106 C 0.82449 0.79606 0.40236 0.0
C1107 C 0.87586 0.79782 0.37593 0.0
C1108 C 0.90343 0.78231 0.36538 0.0
C1109 C 0.85285 0.78124 0.39345 0.0
C1110 C 0.90857 0.75055 0.3744 0.0
C1111 C 0.88601 0.73408 0.39213 0.0
H1112 H 0.36138 0.64627 0.63312 0.0
H1113 H 0.42249 0.72188 0.60158 0.0
H1114 H 0.37926 0.74453 0.57037 0.0
H1115 H 0.32287 0.74607 0.55715 0.0
H1116 H 0.26078 0.67264 0.59215 0.0
H1117 H 0.30565 0.64592 0.61701 0.0
C1118 C 0.36541 0.66724 0.61876 0.0
C1119 C 0.39495 0.68242 0.61953 0.0
C1120 C 0.34014 0.68084 0.60203 0.0
C1121 C 0.39983 0.70987 0.6013 0.0
C1122 C 0.37511 0.7229 0.58363 0.0
C1123 C 0.31918 0.72405 0.56993 0.0
C1124 C 0.28849 0.71157 0.57309 0.0
C1125 C 0.34493 0.70915 0.58467 0.0
C1126 C 0.28412 0.68299 0.58972 0.0
C1127 C 0.30977 0.66762 0.60385 0.0
H1128 H 0.83461 0.90541 0.76281 0.0
H1129 H 0.8599 0.89681 0.66396 0.0
H1130 H 0.90226 0.86017 0.67764 0.0
H1131 H 0.92735 0.82551 0.71636 0.0
H1132 H 0.90102 0.83129 0.81491 0.0
H1133 H 0.86462 0.87495 0.80278 0.0
C1134 C 0.84961 0.89581 0.74428 0.0
C1135 C 0.84358 0.90339 0.71232 0.0
C1136 C 0.87382 0.87435 0.75226 0.0
C1137 C 0.86358 0.89105 0.6887 0.0
C1138 C 0.88791 0.87012 0.69648 0.0
C1139 C 0.91413 0.83677 0.73533 0.0
C1140 C 0.91648 0.82494 0.76638 0.0
C1141 C 0.89256 0.86088 0.72801 0.0
C1142 C 0.89964 0.84002 0.7908 0.0
C1143 C 0.87853 0.8647 0.78379 0.0
H1144 H 0.61549 0.14159 0.16627 0.0
H1145 H 0.58623 0.09167 0.2507 0.0
H1146 H 0.55901 0.13909 0.26965 0.0
H1147 H 0.549 0.19621 0.26506 0.0
H1148 H 0.58106 0.24652 0.18178 0.0
H1149 H 0.6017 0.19743 0.15965 0.0
C1150 C 0.60255 0.14084 0.18847 0.0
C1151 C 0.60307 0.11326 0.20714 0.0
C1152 C 0.58793 0.16843 0.19973 0.0
C1153 C 0.58634 0.11273 0.23596 0.0
C1154 C 0.57092 0.13986 0.24691 0.0
C1155 C 0.56023 0.19639 0.24194 0.0
C1156 C 0.56388 0.22509 0.22537 0.0
C1157 C 0.5725 0.16813 0.22948 0.0
C1158 C 0.57832 0.22486 0.19532 0.0
C1159 C 0.59007 0.19677 0.18254 0.0
H1160 H 0.39917 0.69651 0.3179 0.0
H1161 H 0.43932 0.6346 0.247 0.0
H1162 H 0.41258 0.58933 0.2711 0.0
H1163 H 0.371 0.56939 0.30629 0.0
H1164 H 0.32599 0.63229 0.37269 0.0
H1165 H 0.36235 0.67495 0.35742 0.0
C1166 C 0.4025 0.67305 0.30796 0.0
C1167 C 0.42073 0.66908 0.28026 0.0
C1168 C 0.38637 0.64728 0.32143 0.0
C1169 C 0.42498 0.63845 0.26793 0.0
C1170 C 0.40979 0.61252 0.28178 0.0
C1171 C 0.37023 0.59208 0.31835 0.0
C1172 C 0.34644 0.59781 0.34087 0.0
C1173 C 0.38957 0.61688 0.30778 0.0
C1174 C 0.34472 0.62735 0.35584 0.0
C1175 C 0.36509 0.65182 0.34664 0.0
H1176 H 0.02196 0.28414 0.75288 0.0
H1177 H 0.09304 0.22977 0.80252 0.0
H1178 H 0.11574 0.27841 0.82379 0.0
H1179 H 0.11928 0.33698 0.82327 0.0
H1180 H 0.04929 0.3909 0.77208 0.0
H1181 H 0.02188 0.34218 0.75732 0.0
C1182 C 0.04226 0.28287 0.76854 0.0
C1183 C 0.05597 0.25323 0.7756 0.0
C1184 C 0.0553 0.31102 0.78075 0.0
C1185 C 0.08204 0.25217 0.79638 0.0
C1186 C 0.09509 0.28005 0.80864 0.0
C1187 C 0.09732 0.33801 0.80998 0.0
C1188 C 0.08601 0.36747 0.79917 0.0
C1189 C 0.08236 0.30969 0.80047 0.0
C1190 C 0.05811 0.36848 0.78107 0.0
C1191 C 0.04268 0.3406 0.77227 0.0
H1192 H 0.66408 0.90504 0.89259 0.0
H1193 H 0.60314 0.84118 0.84193 0.0
H1194 H 0.61568 0.86853 0.79204 0.0
H1195 H 0.65214 0.90368 0.7624 0.0
H1196 H 0.71656 0.96385 0.81411 0.0
H1197 H 0.69469 0.94481 0.864 0.0
C1198 C 0.65257 0.89799 0.87073 0.0
C1199 C 0.63269 0.87132 0.87076 0.0
C1200 C 0.66141 0.91252 0.84224 0.0
C1201 C 0.6181 0.862 0.84246 0.0
C1202 C 0.62581 0.87726 0.8139 0.0
C1203 C 0.66105 0.91301 0.78456 0.0
C1204 C 0.68647 0.93472 0.78444 0.0
C1205 C 0.64877 0.90142 0.81336 0.0
C1206 C 0.69749 0.94673 0.81342 0.0
C1207 C 0.68489 0.93595 0.84202 0.0
H1208 H 0.77684 0.08795 0.28262 0.0
H1209 H 0.68317 0.06816 0.31873 0.0
H1210 H 0.69612 0.09503 0.36809 0.0
H1211 H 0.73251 0.12724 0.39956 0.0
H1212 H 0.82659 0.14651 0.36457 0.0
H1213 H 0.81508 0.11648 0.31633 0.0
C1214 C 0.75932 0.08928 0.30137 0.0
C1215 C 0.72892 0.07626 0.29673 0.0
C1216 C 0.76694 0.10479 0.32985 0.0
C1217 C 0.7067 0.07794 0.32151 0.0
C1218 C 0.71405 0.09343 0.34976 0.0
C1219 C 0.75062 0.12473 0.38148 0.0
C1220 C 0.78026 0.13943 0.38551 0.0
C1221 C 0.74385 0.10743 0.35394 0.0
C1222 C 0.80359 0.13548 0.36207 0.0
C1223 C 0.79695 0.11843 0.33442 0.0
H1224 H 0.1603 0.62989 0.13294 0.0
H1225 H 0.25019 0.61217 0.08725 0.0
H1226 H 0.26956 0.58555 0.1346 0.0
H1227 H 0.26255 0.57067 0.19009 0.0
H1228 H 0.17286 0.58765 0.23619 0.0
H1229 H 0.15194 0.6113 0.18761 0.0
C1230 C 0.1839 0.61968 0.13315 0.0
C1231 C 0.20382 0.62328 0.10669 0.0
C1232 C 0.19516 0.60474 0.16069 0.0
C1233 C 0.2344 0.60998 0.10738 0.0
C1234 C 0.24561 0.59485 0.1345 0.0
C1235 C 0.23844 0.57961 0.18953 0.0
C1236 C 0.21944 0.57784 0.21677 0.0
C1237 C 0.22649 0.59281 0.16152 0.0
C1238 C 0.18804 0.58893 0.21553 0.0
C1239 C 0.17603 0.6024 0.18776 0.0
H1240 H 0.24741 0.4059 0.68675 0.0
H1241 H 0.14825 0.39732 0.66331 0.0
H1242 H 0.16214 0.37221 0.61313 0.0
H1243 H 0.20203 0.34873 0.57842 0.0
H1244 H 0.30123 0.35666 0.60164 0.0
H1245 H 0.28772 0.38679 0.64928 0.0
C1246 C 0.22884 0.39863 0.6706 0.0
C1247 C 0.19683 0.40294 0.67894 0.0
C1248 C 0.23699 0.38428 0.64182 0.0
C1249 C 0.17305 0.39405 0.65752 0.0
C1250 C 0.18096 0.37969 0.62886 0.0
C1251 C 0.22075 0.35737 0.59371 0.0
C1252 C 0.25255 0.35014 0.58683 0.0
C1253 C 0.2128 0.37412 0.62113 0.0
C1254 C 0.27658 0.36193 0.60649 0.0
C1255 C 0.26884 0.3789 0.63383 0.0
H1256 H 0.87292 0.75583 0.87383 0.0
H1257 H 0.83889 0.66325 0.84692 0.0
H1258 H 0.78814 0.67445 0.87299 0.0
H1259 H 0.75222 0.7126 0.89942 0.0
H1260 H 0.78658 0.80625 0.92203 0.0
H1261 H 0.83856 0.79254 0.90113 0.0
C1262 C 0.85461 0.73781 0.87376 0.0
C1263 C 0.85968 0.70879 0.85816 0.0
C1264 C 0.82542 0.74482 0.88765 0.0
C1265 C 0.83564 0.68579 0.85871 0.0
C1266 C 0.80657 0.69229 0.87343 0.0
C1267 C 0.77118 0.72989 0.89995 0.0
C1268 C 0.76549 0.76049 0.91205 0.0
C1269 C 0.80097 0.72205 0.88731 0.0
C1270 C 0.79022 0.78269 0.91252 0.0
C1271 C 0.81999 0.77484 0.90071 0.0
H1272 H 0.31177 0.70456 0.0635 0.0
H1273 H 0.26957 0.79614 0.08069 0.0
H1274 H 0.31627 0.81246 0.11048 0.0
H1275 H 0.36689 0.79871 0.13648 0.0
H1276 H 0.40675 0.70569 0.12224 0.0
H1277 H 0.36369 0.69217 0.08624 0.0
C1278 C 0.31301 0.72826 0.0733 0.0
C1279 C 0.2871 0.74895 0.07005 0.0
C1280 C 0.33959 0.73724 0.09114 0.0
C1281 C 0.28906 0.77957 0.0831 0.0
C1282 C 0.31578 0.78897 0.10016 0.0
C1283 C 0.3664 0.7758 0.12489 0.0
C1284 C 0.38981 0.75321 0.13195 0.0
C1285 C 0.34088 0.76774 0.10503 0.0
C1286 C 0.38879 0.72339 0.11721 0.0
C1287 C 0.36416 0.7156 0.09669 0.0
H1288 H 0.15096 0.24008 0.56037 0.0
H1289 H 0.21049 0.15947 0.58149 0.0
H1290 H 0.16774 0.13567 0.61254 0.0
H1291 H 0.11494 0.14003 0.6373 0.0
H1292 H 0.05758 0.22273 0.61876 0.0
H1293 H 0.09788 0.24328 0.58275 0.0
C1294 C 0.15454 0.21711 0.57141 0.0
C1295 C 0.18394 0.20167 0.56874 0.0
C1296 C 0.13023 0.20399 0.58979 0.0
C1297 C 0.18814 0.17198 0.58336 0.0
C1298 C 0.16371 0.15834 0.60111 0.0
C1299 C 0.11113 0.16226 0.62491 0.0
C1300 C 0.08347 0.17992 0.63064 0.0
C1301 C 0.13487 0.17444 0.605 0.0
C1302 C 0.07884 0.20887 0.61481 0.0
C1303 C 0.10185 0.22064 0.59427 0.0
H1304 H 0.62689 0.34331 0.36666 0.0
H1305 H 0.57171 0.25777 0.37615 0.0
H1306 H 0.61154 0.2351 0.41114 0.0
H1307 H 0.6645 0.23711 0.43464 0.0
H1308 H 0.72045 0.32213 0.42452 0.0
H1309 H 0.67792 0.34727 0.39468 0.0
C1310 C 0.62332 0.31998 0.37687 0.0
C1311 C 0.5965 0.3022 0.36842 0.0
C1312 C 0.64668 0.3067 0.39669 0.0
C1313 C 0.59231 0.27191 0.38188 0.0
C1314 C 0.61511 0.25883 0.40192 0.0
C1315 C 0.66728 0.26128 0.42631 0.0
C1316 C 0.6959 0.27741 0.43157 0.0
C1317 C 0.64283 0.27561 0.40877 0.0
C1318 C 0.69886 0.30887 0.42066 0.0
C1319 C 0.67451 0.32336 0.40349 0.0
H1320 H 0.98915 0.26382 0.11094 0.0
H1321 H 0.92399 0.19205 0.14285 0.0
H1322 H 0.8933 0.19807 0.09388 0.0
H1323 H 0.88037 0.23015 0.04779 0.0
H1324 H 0.94103 0.30753 0.01948 0.0
H1325 H 0.97882 0.29271 0.06118 0.0
C1326 C 0.96887 0.24869 0.10643 0.0
C1327 C 0.95889 0.22711 0.12984 0.0
C1328 C 0.95038 0.25394 0.0794 0.0
C1329 C 0.93223 0.20823 0.12468 0.0
C1330 C 0.91459 0.21204 0.09696 0.0
C1331 C 0.902 0.24374 0.05046 0.0
C1332 C 0.90756 0.27049 0.03113 0.0
C1333 C 0.92266 0.23588 0.07505 0.0
C1334 C 0.93608 0.28714 0.0343 0.0
C1335 C 0.95755 0.27871 0.05818 0.0
H1336 H 0.65079 0.64444 0.58459 0.0
H1337 H 0.58327 0.66849 0.51181 0.0
H1338 H 0.54173 0.67442 0.55206 0.0
H1339 H 0.52564 0.67584 0.60839 0.0
H1340 H 0.59274 0.64859 0.68048 0.0
H1341 H 0.63368 0.64123 0.64006 0.0
C1342 C 0.62685 0.65055 0.5775 0.0
C1343 C 0.62009 0.65616 0.54531 0.0
C1344 C 0.60328 0.65397 0.60069 0.0
C1345 C 0.58897 0.66378 0.53639 0.0
C1346 C 0.56534 0.66754 0.55944 0.0
C1347 C 0.54936 0.66864 0.61521 0.0
C1348 C 0.5565 0.66362 0.64742 0.0
C1349 C 0.57243 0.6634 0.59172 0.0
C1350 C 0.58692 0.65315 0.6559 0.0
C1351 C 0.61023 0.64877 0.6328 0.0
H1352 H 0.41906 0.26995 0.96052 0.0
H1353 H 0.42398 0.16822 0.96911 0.0
H1354 H 0.4576 0.16566 0.92193 0.0
H1355 H 0.47609 0.19155 0.87314 0.0
H1356 H 0.47041 0.29316 0.86374 0.0
H1357 H 0.44616 0.29681 0.9165 0.0
C1358 C 0.42853 0.24736 0.95264 0.0
C1359 C 0.41889 0.21926 0.96777 0.0
C1360 C 0.44667 0.24607 0.92494 0.0
C1361 C 0.43129 0.1901 0.9578 0.0
C1362 C 0.45001 0.18863 0.93055 0.0
C1363 C 0.46976 0.21449 0.88288 0.0
C1364 C 0.4739 0.24201 0.86455 0.0
C1365 C 0.45621 0.21629 0.91304 0.0
C1366 C 0.46677 0.27173 0.87746 0.0
C1367 C 0.45305 0.27376 0.90752 0.0
H1368 H 0.13032 0.76678 0.41587 0.0
H1369 H 0.10088 0.85346 0.46151 0.0
H1370 H 0.07149 0.86874 0.41354 0.0
H1371 H 0.05029 0.85419 0.36077 0.0
H1372 H 0.07825 0.76559 0.31828 0.0
H1373 H 0.11293 0.75435 0.36313 0.0
C1374 C 0.1174 0.78904 0.41561 0.0
C1375 C 0.11701 0.80862 0.44249 0.0
C1376 C 0.10068 0.79732 0.38846 0.0
C1377 C 0.10103 0.83779 0.44123 0.0
C1378 C 0.08436 0.8465 0.41385 0.0
C1379 C 0.06472 0.83294 0.36108 0.0
C1380 C 0.06207 0.81073 0.33647 0.0
C1381 C 0.08356 0.82608 0.38757 0.0
C1382 C 0.08017 0.78289 0.33711 0.0
C1383 C 0.09974 0.77642 0.36275 0.0
H1384 H 0.12364 0.94888 0.30799 0.0
H1385 H 0.09829 -0.00143 0.22229 0.0
H1386 H 0.04237 0.98528 0.23099 0.0
H1387 H 0.00241 0.95432 0.25977 0.0
H1388 H 0.02807 0.90447 0.34522 0.0
H1389 H 0.08217 0.92469 0.34099 0.0
C1390 C 0.10586 0.95651 0.29105 0.0
C1391 C 0.11497 0.97345 0.26378 0.0
C1392 C 0.07394 0.94955 0.29673 0.0
C1393 C 0.09173 0.98463 0.24285 0.0
C1394 C 0.05986 0.97736 0.24805 0.0
C1395 C 0.0196 0.94891 0.27812 0.0
C1396 C 0.01163 0.92739 0.30238 0.0
C1397 C 0.05085 0.95934 0.27459 0.0
C1398 C 0.03377 0.9208 0.32625 0.0
C1399 C 0.06483 0.93186 0.32345 0.0
H1400 H 0.44766 0.12036 0.73493 0.0
H1401 H 0.50142 0.07598 0.80978 0.0
H1402 H 0.46853 0.02811 0.80507 0.0
H1403 H 0.41948 0.00294 0.7849 0.0
H1404 H 0.36332 0.05157 0.71469 0.0
H1405 H 0.40258 0.09401 0.71189 0.0
C1406 C 0.45236 0.10019 0.75024 0.0
C1407 C 0.47625 0.10189 0.77334 0.0
C1408 C 0.43295 0.07368 0.74805 0.0
C1409 C 0.48281 0.07526 0.79216 0.0
C1410 C 0.46398 0.04805 0.7895 0.0
C1411 C 0.41652 0.02244 0.76837 0.0
C1412 C 0.38896 0.02439 0.7498 0.0
C1413 C 0.4383 0.0475 0.76826 0.0
C1414 C 0.3846 0.04982 0.72893 0.0
C1415 C 0.40686 0.07404 0.72753 0.0
H1416 H 0.62866 0.53899 0.66201 0.0
H1417 H 0.63455 0.52087 0.76264 0.0
H1418 H 0.57824 0.53261 0.76821 0.0
H1419 H 0.52825 0.54998 0.74515 0.0
H1420 H 0.52253 0.57114 0.64523 0.0
H1421 H 0.57776 0.55476 0.63851 0.0
C1422 C 0.61773 0.53774 0.68523 0.0
C1423 C 0.63599 0.52935 0.71195 0.0
C1424 C 0.58529 0.54434 0.68825 0.0
C1425 C 0.62124 0.52758 0.74175 0.0
C1426 C 0.58897 0.53402 0.74491 0.0
C1427 C 0.53887 0.55048 0.72173 0.0
C1428 C 0.52129 0.56185 0.69574 0.0
C1429 C 0.57086 0.54249 0.71836 0.0
C1430 C 0.53537 0.5622 0.66558 0.0
C1431 C 0.5671 0.55331 0.66183 0.0
H1432 H 0.92171 0.35087 0.15668 0.0
H1433 H -0.00101 0.40998 0.18695 0.0
H1434 H 0.96356 0.45625 0.18776 0.0
H1435 H 0.90899 0.47829 0.18512 0.0
H1436 H 0.83261 0.41796 0.15405 0.0
H1437 H 0.86922 0.3737 0.14853 0.0
C1438 C 0.93093 0.37408 0.16275 0.0
C1439 C 0.96277 0.37714 0.17181 0.0
C1440 C 0.9104 0.40014 0.16372 0.0
C1441 C 0.9746 0.40721 0.17954 0.0
C1442 C 0.95423 0.43351 0.18044 0.0
C1443 C 0.90044 0.45542 0.17721 0.0
C1444 C 0.86799 0.45128 0.17061 0.0
C1445 C 0.92182 0.43 0.17359 0.0
C1446 C 0.85736 0.42173 0.15963 0.0
C1447 C 0.87829 0.39639 0.15635 0.0
H1448 H 0.29197 0.0997 0.97531 0.0
H1449 H 0.31282 0.16522 0.89934 0.0
H1450 H 0.32584 0.12134 0.8645 0.0
H1451 H 0.33094 0.0652 0.85505 0.0
H1452 H 0.3082 -0.00234 0.92838 0.0
H1453 H 0.29771 0.04152 0.96537 0.0
C1454 C 0.29886 0.10423 0.95097 0.0
C1455 C 0.3011 0.13574 0.93984 0.0
C1456 C 0.30681 0.07866 0.93093 0.0
C1457 C 0.31073 0.14128 0.90846 0.0
C1458 C 0.31843 0.11621 0.88856 0.0
C1459 C 0.32395 0.0599 0.87924 0.0
C1460 C 0.32024 0.02818 0.88891 0.0
C1461 C 0.31672 0.08495 0.89959 0.0
C1462 C 0.31157 0.02184 0.92043 0.0
C1463 C 0.30508 0.04694 0.94137 0.0
H1464 H 0.76564 0.40938 -0.00496 0.0
H1465 H 0.82389 0.3612 0.06436 0.0
H1466 H 0.83691 0.41138 0.08879 0.0
H1467 H 0.82967 0.46821 0.09282 0.0
H1468 H 0.76551 0.51642 0.02992 0.0
H1469 H 0.75821 0.46741 -0.00059 0.0
C1470 C 0.78091 0.40985 0.01567 0.0
C1471 C 0.79354 0.38143 0.02786 0.0
C1472 C 0.78811 0.43895 0.03007 0.0
C1473 C 0.81347 0.38255 0.05456 0.0
C1474 C 0.82131 0.41131 0.06841 0.0
C1475 C 0.81506 0.46815 0.07167 0.0
C1476 C 0.79893 0.49576 0.06281 0.0
C1477 C 0.8088 0.43955 0.05639 0.0
C1478 C 0.77895 0.49547 0.03631 0.0
C1479 C 0.77426 0.46735 0.01943 0.0
H1480 H 0.79923 0.57705 0.52796 0.0
H1481 H 0.70294 0.58466 0.49501 0.0
H1482 H 0.69087 0.53219 0.51585 0.0
H1483 H 0.70405 0.49179 0.55515 0.0
H1484 H 0.79948 0.48377 0.58955 0.0
H1485 H 0.81615 0.52739 0.5553 0.0
C1486 C 0.77603 0.56661 0.52458 0.0
C1487 C 0.75173 0.58464 0.51084 0.0
C1488 C 0.76912 0.53629 0.53685 0.0
C1489 C 0.72175 0.57109 0.50612 0.0
C1490 C 0.71483 0.54113 0.51795 0.0
C1491 C 0.72888 0.49825 0.55348 0.0
C1492 C 0.75039 0.48516 0.57503 0.0
C1493 C 0.7378 0.52436 0.53495 0.0
C1494 C 0.78253 0.49358 0.57294 0.0
C1495 C 0.79189 0.51915 0.55398 0.0
H1496 H 0.23707 0.86397 0.46726 0.0
H1497 H 0.23906 0.79407 0.39293 0.0
H1498 H 0.23327 0.83596 0.35309 0.0
H1499 H 0.22285 0.89137 0.34019 0.0
H1500 H 0.21624 0.96097 0.4148 0.0
H1501 H 0.22784 0.91988 0.45415 0.0
C1502 C 0.23726 0.85806 0.44226 0.0
C1503 C 0.23917 0.82617 0.43282 0.0
C1504 C 0.23207 0.88198 0.41981 0.0
C1505 C 0.23822 0.81857 0.40052 0.0
C1506 C 0.23449 0.84243 0.37789 0.0
C1507 C 0.22398 0.89768 0.36505 0.0
C1508 C 0.21854 0.92919 0.37459 0.0
C1509 C 0.23048 0.87404 0.38738 0.0
C1510 C 0.21999 0.93684 0.4069 0.0
C1511 C 0.2269 0.91343 0.42934 0.0
H1512 H -0.00146 0.73685 0.90781 0.0
H1513 H 0.03834 0.65713 0.85728 0.0
H1514 H 0.06643 0.64028 0.90435 0.0
H1515 H 0.08669 0.65282 0.95674 0.0
H1516 H 0.05213 0.73507 0.00592 0.0
H1517 H 0.0139 0.74536 0.96353 0.0
C1518 C 0.01318 0.7157 0.90723 0.0
C1519 C 0.01696 0.69891 0.87879 0.0
C1520 C 0.02982 0.70619 0.93445 0.0
C1521 C 0.0356 0.67115 0.87857 0.0
C1522 C 0.05151 0.66119 0.90561 0.0
C1523 C 0.06959 0.67197 0.9588 0.0
C1524 C 0.07166 0.69294 0.98425 0.0
C1525 C 0.04961 0.67905 0.93334 0.0
C1526 C 0.05028 0.71835 0.98657 0.0
C1527 C 0.02898 0.72459 0.96205 0.0
H1528 H 0.43136 0.34673 0.35797 0.0
H1529 H 0.43906 0.24722 0.33572 0.0
H1530 H 0.40157 0.23444 0.3779 0.0
H1531 H 0.36691 0.25132 0.42064 0.0
H1532 H 0.36026 0.35014 0.4457 0.0
H1533 H 0.39778 0.36357 0.40316 0.0
C1534 C 0.4245 0.32232 0.36226 0.0
C1535 C 0.43748 0.29791 0.34362 0.0
C1536 C 0.40364 0.31508 0.38719 0.0
C1537 C 0.42914 0.26632 0.34972 0.0
C1538 C 0.40785 0.25902 0.37384 0.0
C1539 C 0.37373 0.27584 0.41688 0.0
C1540 C 0.36077 0.29978 0.43601 0.0
C1541 C 0.39509 0.28318 0.3927 0.0
C1542 C 0.37013 0.33134 0.43129 0.0
C1543 C 0.39131 0.33898 0.40686 0.0
H1544 H 0.60772 0.74396 0.05394 0.0
H1545 H 0.52718 0.79588 0.01797 0.0
H1546 H 0.49465 0.77504 0.0618 0.0
H1547 H 0.49204 0.74847 0.11425 0.0
H1548 H 0.57543 0.70309 0.1521 0.0
H1549 H 0.60421 0.71455 0.10301 0.0
C1550 C 0.58299 0.75085 0.0555 0.0
C1551 C 0.57003 0.77224 0.03323 0.0
C1552 C 0.56512 0.73972 0.08098 0.0
C1553 C 0.53775 0.77985 0.03503 0.0
C1554 C 0.51928 0.76799 0.06011 0.0
C1555 C 0.5162 0.74018 0.11116 0.0
C1556 C 0.53165 0.72446 0.13631 0.0
C1557 C 0.53306 0.74873 0.08374 0.0
C1558 C 0.56313 0.71469 0.13276 0.0
C1559 C 0.57956 0.72158 0.10491 0.0
H1560 H 0.85331 0.16023 0.5656 0.0
H1561 H 0.92642 0.21246 0.51729 0.0
H1562 H 0.95942 0.21099 0.56503 0.0
H1563 H 0.96482 0.19938 0.6217 0.0
H1564 H 0.89142 0.14731 0.67033 0.0
H1565 H 0.86058 0.14475 0.62136 0.0
C1566 C 0.87704 0.17011 0.56531 0.0
C1567 C 0.88804 0.18565 0.53801 0.0
C1568 C 0.89507 0.17033 0.59315 0.0
C1569 C 0.91815 0.19952 0.53789 0.0
C1570 C 0.93662 0.19924 0.56532 0.0
C1571 C 0.94184 0.18791 0.62172 0.0
C1572 C 0.92991 0.17442 0.64979 0.0
C1573 C 0.92479 0.18572 0.59336 0.0
C1574 C 0.90069 0.15855 0.64917 0.0
C1575 C 0.88327 0.15675 0.62113 0.0
H1576 H 0.83627 0.04436 0.65578 0.0
H1577 H 0.82379 0.04254 0.75735 0.0
H1578 H 0.87891 0.05757 0.76461 0.0
H1579 H 0.93082 0.06715 0.74289 0.0
H1580 H 0.94512 0.07159 0.64168 0.0
H1581 H 0.88893 0.05868 0.63349 0.0
C1582 C 0.84542 0.04803 0.67947 0.0
C1583 C 0.82588 0.04225 0.70605 0.0
C1584 C 0.87753 0.05613 0.68353 0.0
C1585 C 0.83825 0.04676 0.73655 0.0
C1586 C 0.86985 0.05508 0.74073 0.0
C1587 C 0.92197 0.06523 0.71886 0.0
C1588 C 0.94248 0.06987 0.69289 0.0
C1589 C 0.88981 0.05891 0.71446 0.0
C1590 C 0.93009 0.06759 0.6621 0.0
C1591 C 0.8979 0.06054 0.65745 0.0
H1592 H 0.58281 0.96875 0.2022 0.0
H1593 H 0.66168 0.90904 0.22784 0.0
H1594 H 0.62743 0.8624 0.22702 0.0
H1595 H 0.57635 0.83865 0.21677 0.0
H1596 H 0.49676 0.8967 0.18892 0.0
H1597 H 0.53026 0.94415 0.19197 0.0
C1598 C 0.5921 0.94554 0.2083 0.0
C1599 C 0.62437 0.9421 0.21585 0.0
C1600 C 0.57245 0.91869 0.2066 0.0
C1601 C 0.63672 0.91203 0.22264 0.0
C1602 C 0.61725 0.88544 0.22184 0.0
C1603 C 0.56611 0.86163 0.21135 0.0
C1604 C 0.53401 0.8641 0.20267 0.0
C1605 C 0.58528 0.88848 0.21339 0.0
C1606 C 0.52143 0.89411 0.19545 0.0
C1607 C 0.54051 0.92123 0.19746 0.0
H1608 H 0.47675 0.45426 0.25136 0.0
H1609 H 0.46899 0.42243 0.3481 0.0
H1610 H 0.41814 0.44984 0.35329 0.0
H1611 H 0.37163 0.47322 0.32671 0.0
H1612 H 0.37888 0.50469 0.22984 0.0
H1613 H 0.43425 0.48672 0.2279 0.0
C1614 C 0.46454 0.45462 0.274 0.0
C1615 C 0.47636 0.43629 0.29929 0.0
C1616 C 0.43477 0.46921 0.27625 0.0
C1617 C 0.4605 0.43669 0.32848 0.0
C1618 C 0.43109 0.45178 0.33119 0.0
C1619 C 0.38556 0.47634 0.30531 0.0
C1620 C 0.37129 0.48916 0.27807 0.0
C1621 C 0.41726 0.46642 0.30465 0.0
C1622 C 0.38946 0.49421 0.25076 0.0
C1623 C 0.42102 0.48408 0.24976 0.0
H1624 H 0.05508 0.5037 0.77835 0.0
H1625 H 0.10993 0.55544 0.70941 0.0
H1626 H 0.06745 0.59468 0.70438 0.0
H1627 H 0.01946 0.61797 0.72545 0.0
H1628 H 0.96823 0.57168 0.80092 0.0
H1629 H 0.00374 0.52566 0.79681 0.0
C1630 C 0.05719 0.52326 0.76176 0.0
C1631 C 0.08522 0.52699 0.74412 0.0
C1632 C 0.03343 0.54652 0.76036 0.0
C1633 C 0.08839 0.55241 0.72306 0.0
C1634 C 0.0642 0.57473 0.72027 0.0
C1635 C 0.0157 0.59762 0.74076 0.0
C1636 C 0.99175 0.59843 0.76396 0.0
C1637 C 0.03728 0.5726 0.73968 0.0
C1638 C 0.98662 0.57163 0.78301 0.0
C1639 C 0.00715 0.54555 0.78088 0.0
H1640 H 0.63624 0.89877 0.01946 0.0
H1641 H 0.73572 0.90384 -0.003 0.0
H1642 H 0.73952 0.95486 0.02449 0.0
H1643 H 0.71623 0.99226 0.06258 0.0
H1644 H 0.61692 0.98679 0.08536 0.0
H1645 H 0.61075 0.94228 0.04876 0.0
C1646 C 0.65862 0.91137 0.0203 0.0
C1647 C 0.68592 0.89749 0.00726 0.0
C1648 C 0.66043 0.9406 0.03578 0.0
C1649 C 0.71462 0.9141 0.00744 0.0
C1650 C 0.71673 0.94317 0.02306 0.0
C1651 C 0.693 0.98213 0.05836 0.0
C1652 C 0.66706 0.99239 0.07653 0.0
C1653 C 0.69003 0.95597 0.0383 0.0
C1654 C 0.63705 0.97933 0.07126 0.0
C1655 C 0.6337 0.95355 0.05083 0.0
H1656 H 0.21521 0.53471 0.87558 0.0
H1657 H 0.11531 0.52625 0.89462 0.0
H1658 H 0.11803 0.57196 0.93051 0.0
H1659 H 0.1483 0.61677 0.9529 0.0
H1660 H 0.24888 0.62306 0.93632 0.0
H1661 H 0.24659 0.57566 0.9028 0.0
C1662 C 0.19419 0.54249 0.8882 0.0
C1663 C 0.16509 0.52718 0.88266 0.0
C1664 C 0.19606 0.56862 0.90868 0.0
C1665 C 0.13799 0.53741 0.89893 0.0
C1666 C 0.13953 0.56374 0.91911 0.0
C1667 C 0.16971 0.60769 0.94193 0.0
C1668 C 0.19867 0.62369 0.94645 0.0
C1669 C 0.16829 0.57997 0.92352 0.0
C1670 C 0.22636 0.6113 0.93287 0.0
C1671 C 0.22501 0.58422 0.9138 0.0
H1672 H 0.22918 0.35731 0.47196 0.0
H1673 H 0.21775 0.29857 0.38924 0.0
H1674 H 0.22964 0.34403 0.35512 0.0
H1675 H 0.24979 0.39777 0.34955 0.0
H1676 H 0.26567 0.45542 0.43252 0.0
H1677 H 0.24651 0.41224 0.4662 0.0
C1678 C 0.22814 0.35469 0.44642 0.0
C1679 C 0.22225 0.32475 0.433 0.0
C1680 C 0.23713 0.38022 0.42723 0.0
C1681 C 0.2218 0.32151 0.39996 0.0
C1682 C 0.22914 0.34731 0.38057 0.0
C1683 C 0.24921 0.40104 0.37502 0.0
C1684 C 0.25961 0.42971 0.38854 0.0
C1685 C 0.23813 0.37631 0.39407 0.0
C1686 C 0.25829 0.43346 0.42154 0.0
C1687 C 0.24703 0.40892 0.44075 0.0
H1688 H 0.74553 0.10238 0.50555 0.0
H1689 H 0.78412 0.15264 0.58576 0.0
H1690 H 0.79462 0.10294 0.6127 0.0
H1691 H 0.79146 0.04572 0.6148 0.0
H1692 H 0.74608 -0.0056 0.5397 0.0
H1693 H 0.74111 0.04353 0.50858 0.0
C1694 C 0.75555 0.10239 0.52918 0.0
C1695 C 0.76388 0.13126 0.5436 0.0
C1696 C 0.76149 0.07345 0.54488 0.0
C1697 C 0.77735 0.13082 0.5741 0.0
C1698 C 0.78375 0.10239 0.58944 0.0
C1699 C 0.78164 0.04518 0.59107 0.0
C1700 C 0.77024 0.01656 0.57894 0.0
C1701 C 0.77623 0.07364 0.57496 0.0
C1702 C 0.75613 0.01613 0.54886 0.0
C1703 C 0.75257 0.04431 0.53151 0.0
loop_
_geom_bond_atom_site_label_1
_geom_bond_atom_site_label_2
_geom_bond_distance
_geom_bond_site_symmetry_2
_ccdc_geom_bond_type
O0 Zn1 1.953 . S
O0 C16 1.225 . S
Zn1 O0 1.953 . S
Zn1 O2 1.949 . S
Zn1 O8 1.919 . S
Zn1 O13 1.924 . S
O2 Zn1 1.949 . S
O2 Zn3 1.923 . S
O2 Zn4 1.950 . S
O2 Zn5 1.945 1_455 S
Zn3 O2 1.923 . S
Zn3 O6 1.933 . S
Zn3 O9 1.941 . S
Zn3 O10 1.965 . S
Zn4 O2 1.950 . S
Zn4 O11 1.938 . S
Zn4 O12 1.906 . S
Zn4 O22 1.953 . S
Zn5 O2 1.945 1_655 S
Zn5 O7 1.932 . S
Zn5 O14 1.977 . S
Zn5 O15 1.910 . S
O6 Zn3 1.933 . S
O6 C17 1.226 . S
O7 Zn5 1.932 . S
O7 C17 1.307 1_655 S
O8 Zn1 1.919 . S
O8 C19 1.253 . S
O9 Zn3 1.941 . S
O9 C19 1.283 . S
O10 Zn3 1.965 . S
O10 C18 1.303 . S
O11 Zn4 1.938 . S
O11 C18 1.247 . S
O12 Zn4 1.906 . S
O12 C20 1.304 1_455 S
O13 Zn1 1.924 . S
O13 C21 1.311 1_455 S
O14 Zn5 1.977 . S
O14 C20 1.272 . S
O15 Zn5 1.910 . S
O15 C21 1.231 . S
C16 O0 1.225 . S
C16 O22 1.298 . S
C17 O6 1.226 . S
C17 O7 1.307 1_455 S
C18 O10 1.303 . S
C18 O11 1.247 . S
C19 O8 1.253 . S
C19 O9 1.283 . S
C20 O12 1.304 1_655 S
C20 O14 1.272 . S
C21 O13 1.311 1_655 S
C21 O15 1.231 . S
O22 Zn4 1.953 . S
O22 C16 1.298 . S
O23 Zn24 1.953 . S
O23 C39 1.225 . S
Zn24 O23 1.953 . S
Zn24 O25 1.949 . S
Zn24 O31 1.919 . S
Zn24 O36 1.924 . S
O25 Zn24 1.949 . S
O25 Zn26 1.923 . S
O25 Zn27 1.950 . S
O25 Zn28 1.945 . S
Zn26 O25 1.923 . S
Zn26 O29 1.933 . S
Zn26 O32 1.941 . S
Zn26 O33 1.965 . S
Zn27 O25 1.950 . S
Zn27 O34 1.938 . S
Zn27 O35 1.906 . S
Zn27 O45 1.953 . S
Zn28 O25 1.945 . S
Zn28 O30 1.932 . S
Zn28 O37 1.977 . S
Zn28 O38 1.910 . S
O29 Zn26 1.933 . S
O29 C40 1.226 . S
O30 Zn28 1.932 . S
O30 C40 1.307 . S
O31 Zn24 1.919 . S
O31 C42 1.253 . S
O32 Zn26 1.941 . S
O32 C42 1.283 . S
O33 Zn26 1.965 . S
O33 C41 1.303 . S
O34 Zn27 1.938 . S
O34 C41 1.247 . S
O35 Zn27 1.906 . S
O35 C43 1.304 . S
O36 Zn24 1.924 . S
O36 C44 1.311 . S
O37 Zn28 1.977 . S
O37 C43 1.272 . S
O38 Zn28 1.910 . S
O38 C44 1.231 . S
C39 O23 1.225 . S
C39 O45 1.298 . S
C40 O29 1.226 . S
C40 O30 1.307 . S
C41 O33 1.303 . S
C41 O34 1.247 . S
C42 O31 1.253 . S
C42 O32 1.283 . S
C43 O35 1.304 . S
C43 O37 1.272 . S
C44 O36 1.311 . S
C44 O38 1.231 . S
O45 Zn27 1.953 . S
O45 C39 1.298 . S
O46 Zn47 1.953 . S
O46 C62 1.225 . S
Zn47 O46 1.953 . S
Zn47 O48 1.949 . S
Zn47 O54 1.919 . S
Zn47 O59 1.924 . S
O48 Zn47 1.949 . S
O48 Zn49 1.923 . S
O48 Zn50 1.950 . S
O48 Zn51 1.945 . S
Zn49 O48 1.923 . S
Zn49 O52 1.933 . S
Zn49 O55 1.941 . S
Zn49 O56 1.965 . S
Zn50 O48 1.950 . S
Zn50 O57 1.938 . S
Zn50 O58 1.906 . S
Zn50 O68 1.953 . S
Zn51 O48 1.945 . S
Zn51 O53 1.932 . S
Zn51 O60 1.977 . S
Zn51 O61 1.910 . S
O52 Zn49 1.933 . S
O52 C63 1.226 . S
O53 Zn51 1.932 . S
O53 C63 1.307 . S
O54 Zn47 1.919 . S
O54 C65 1.253 . S
O55 Zn49 1.941 . S
O55 C65 1.283 . S
O56 Zn49 1.965 . S
O56 C64 1.303 . S
O57 Zn50 1.938 . S
O57 C64 1.247 . S
O58 Zn50 1.906 . S
O58 C66 1.304 . S
O59 Zn47 1.924 . S
O59 C67 1.311 . S
O60 Zn51 1.977 . S
O60 C66 1.272 . S
O61 Zn51 1.910 . S
O61 C67 1.231 . S
C62 O46 1.225 . S
C62 O68 1.298 . S
C63 O52 1.226 . S
C63 O53 1.307 . S
C64 O56 1.303 . S
C64 O57 1.247 . S
C65 O54 1.253 . S
C65 O55 1.283 . S
C66 O58 1.304 . S
C66 O60 1.272 . S
C67 O59 1.311 . S
C67 O61 1.231 . S
O68 Zn50 1.953 . S
O68 C62 1.298 . S
O69 Zn70 1.953 . S
O69 C85 1.225 . S
Zn70 O69 1.953 . S
Zn70 O71 1.949 . S
Zn70 O77 1.919 . S
Zn70 O82 1.924 . S
O71 Zn70 1.949 . S
O71 Zn72 1.923 . S
O71 Zn73 1.950 . S
O71 Zn74 1.945 1_655 S
Zn72 O71 1.923 . S
Zn72 O75 1.933 . S
Zn72 O78 1.941 . S
Zn72 O79 1.965 . S
Zn73 O71 1.950 . S
Zn73 O80 1.938 . S
Zn73 O81 1.906 . S
Zn73 O91 1.953 . S
Zn74 O71 1.945 1_455 S
Zn74 O76 1.932 . S
Zn74 O83 1.977 . S
Zn74 O84 1.910 . S
O75 Zn72 1.933 . S
O75 C86 1.226 . S
O76 Zn74 1.932 . S
O76 C86 1.307 1_455 S
O77 Zn70 1.919 . S
O77 C88 1.253 . S
O78 Zn72 1.941 . S
O78 C88 1.283 . S
O79 Zn72 1.965 . S
O79 C87 1.303 . S
O80 Zn73 1.938 . S
O80 C87 1.247 . S
O81 Zn73 1.906 . S
O81 C89 1.304 1_655 S
O82 Zn70 1.924 . S
O82 C90 1.311 1_655 S
O83 Zn74 1.977 . S
O83 C89 1.272 . S
O84 Zn74 1.910 . S
O84 C90 1.231 . S
C85 O69 1.225 . S
C85 O91 1.298 . S
C86 O75 1.226 . S
C86 O76 1.307 1_655 S
C87 O79 1.303 . S
C87 O80 1.247 . S
C88 O77 1.253 . S
C88 O78 1.283 . S
C89 O81 1.304 1_455 S
C89 O83 1.272 . S
C90 O82 1.311 1_455 S
C90 O84 1.231 . S
O91 Zn73 1.953 . S
O91 C85 1.298 . S
O92 Zn93 1.953 . S
O92 C108 1.225 . S
Zn93 O92 1.953 . S
Zn93 O94 1.949 . S
Zn93 O100 1.919 . S
Zn93 O105 1.924 . S
O94 Zn93 1.949 . S
O94 Zn95 1.923 . S
O94 Zn96 1.950 . S
O94 Zn97 1.945 1_545 S
Zn95 O94 1.923 . S
Zn95 O98 1.933 . S
Zn95 O101 1.941 . S
Zn95 O102 1.965 . S
Zn96 O94 1.950 . S
Zn96 O103 1.938 . S
Zn96 O104 1.906 . S
Zn96 O114 1.953 . S
Zn97 O94 1.945 1_565 S
Zn97 O99 1.932 . S
Zn97 O106 1.977 . S
Zn97 O107 1.910 . S
O98 Zn95 1.933 . S
O98 C109 1.226 . S
O99 Zn97 1.932 . S
O99 C109 1.307 1_565 S
O100 Zn93 1.919 . S
O100 C111 1.253 . S
O101 Zn95 1.941 . S
O101 C111 1.283 . S
O102 Zn95 1.965 . S
O102 C110 1.303 . S
O103 Zn96 1.938 . S
O103 C110 1.247 . S
O104 Zn96 1.906 . S
O104 C112 1.304 1_545 S
O105 Zn93 1.924 . S
O105 C113 1.311 1_545 S
O106 Zn97 1.977 . S
O106 C112 1.272 . S
O107 Zn97 1.910 . S
O107 C113 1.231 . S
C108 O92 1.225 . S
C108 O114 1.298 . S
C109 O98 1.226 . S
C109 O99 1.307 1_545 S
C110 O102 1.303 . S
C110 O103 1.247 . S
C111 O100 1.253 . S
C111 O101 1.283 . S
C112 O104 1.304 1_565 S
C112 O106 1.272 . S
C113 O105 1.311 1_565 S
C113 O107 1.231 . S
O114 Zn96 1.953 . S
O114 C108 1.298 . S
O115 Zn116 1.953 . S
O115 C131 1.225 . S
Zn116 O115 1.953 . S
Zn116 O117 1.949 . S
Zn116 O123 1.919 . S
Zn116 O128 1.924 . S
O117 Zn116 1.949 . S
O117 Zn118 1.923 . S
O117 Zn119 1.950 . S
O117 Zn120 1.945 1_565 S
Zn118 O117 1.923 . S
Zn118 O121 1.933 . S
Zn118 O124 1.941 . S
Zn118 O125 1.965 . S
Zn119 O117 1.950 . S
Zn119 O126 1.938 . S
Zn119 O127 1.906 . S
Zn119 O137 1.953 . S
Zn120 O117 1.945 1_545 S
Zn120 O122 1.932 . S
Zn120 O129 1.977 . S
Zn120 O130 1.910 . S
O121 Zn118 1.933 . S
O121 C132 1.226 . S
O122 Zn120 1.932 . S
O122 C132 1.307 1_545 S
O123 Zn116 1.919 . S
O123 C134 1.253 . S
O124 Zn118 1.941 . S
O124 C134 1.283 . S
O125 Zn118 1.965 . S
O125 C133 1.303 . S
O126 Zn119 1.938 . S
O126 C133 1.247 . S
O127 Zn119 1.906 . S
O127 C135 1.304 1_565 S
O128 Zn116 1.924 . S
O128 C136 1.311 1_565 S
O129 Zn120 1.977 . S
O129 C135 1.272 . S
O130 Zn120 1.910 . S
O130 C136 1.231 . S
C131 O115 1.225 . S
C131 O137 1.298 . S
C132 O121 1.226 . S
C132 O122 1.307 1_565 S
C133 O125 1.303 . S
C133 O126 1.247 . S
C134 O123 1.253 . S
C134 O124 1.283 . S
C135 O127 1.304 1_545 S
C135 O129 1.272 . S
C136 O128 1.311 1_545 S
C136 O130 1.231 . S
O137 Zn119 1.953 . S
O137 C131 1.298 . S
O138 Zn139 1.953 . S
O138 C154 1.225 . S
Zn139 O138 1.953 . S
Zn139 O140 1.949 . S
Zn139 O146 1.919 . S
Zn139 O151 1.924 . S
O140 Zn139 1.949 . S
O140 Zn141 1.923 . S
O140 Zn142 1.950 . S
O140 Zn143 1.945 . S
Zn141 O140 1.923 . S
Zn141 O144 1.933 . S
Zn141 O147 1.941 . S
Zn141 O148 1.965 . S
Zn142 O140 1.950 . S
Zn142 O149 1.938 . S
Zn142 O150 1.906 . S
Zn142 O160 1.953 . S
Zn143 O140 1.945 . S
Zn143 O145 1.932 . S
Zn143 O152 1.977 . S
Zn143 O153 1.910 . S
O144 Zn141 1.933 . S
O144 C155 1.226 . S
O145 Zn143 1.932 . S
O145 C155 1.307 . S
O146 Zn139 1.919 . S
O146 C157 1.253 . S
O147 Zn141 1.941 . S
O147 C157 1.283 . S
O148 Zn141 1.965 . S
O148 C156 1.303 . S
O149 Zn142 1.938 . S
O149 C156 1.247 . S
O150 Zn142 1.906 . S
O150 C158 1.304 . S
O151 Zn139 1.924 . S
O151 C159 1.311 . S
O152 Zn143 1.977 . S
O152 C158 1.272 . S
O153 Zn143 1.910 . S
O153 C159 1.231 . S
C154 O138 1.225 . S
C154 O160 1.298 . S
C155 O144 1.226 . S
C155 O145 1.307 . S
C156 O148 1.303 . S
C156 O149 1.247 . S
C157 O146 1.253 . S
C157 O147 1.283 . S
C158 O150 1.304 . S
C158 O152 1.272 . S
C159 O151 1.311 . S
C159 O153 1.231 . S
O160 Zn142 1.953 . S
O160 C154 1.298 . S
O161 Zn162 1.953 . S
O161 C177 1.225 . S
Zn162 O161 1.953 . S
Zn162 O163 1.949 . S
Zn162 O169 1.919 . S
Zn162 O174 1.924 . S
O163 Zn162 1.949 . S
O163 Zn164 1.923 . S
O163 Zn165 1.950 . S
O163 Zn166 1.945 . S
Zn164 O163 1.923 . S
Zn164 O167 1.933 . S
Zn164 O170 1.941 . S
Zn164 O171 1.965 . S
Zn165 O163 1.950 . S
Zn165 O172 1.938 . S
Zn165 O173 1.906 . S
Zn165 O183 1.953 . S
Zn166 O163 1.945 . S
Zn166 O168 1.932 . S
Zn166 O175 1.977 . S
Zn166 O176 1.910 . S
O167 Zn164 1.933 . S
O167 C178 1.226 . S
O168 Zn166 1.932 . S
O168 C178 1.307 . S
O169 Zn162 1.919 . S
O169 C180 1.253 . S
O170 Zn164 1.941 . S
O170 C180 1.283 . S
O171 Zn164 1.965 . S
O171 C179 1.303 . S
O172 Zn165 1.938 . S
O172 C179 1.247 . S
O173 Zn165 1.906 . S
O173 C181 1.304 . S
O174 Zn162 1.924 . S
O174 C182 1.311 . S
O175 Zn166 1.977 . S
O175 C181 1.272 . S
O176 Zn166 1.910 . S
O176 C182 1.231 . S
C177 O161 1.225 . S
C177 O183 1.298 . S
C178 O167 1.226 . S
C178 O168 1.307 . S
C179 O171 1.303 . S
C179 O172 1.247 . S
C180 O169 1.253 . S
C180 O170 1.283 . S
C181 O173 1.304 . S
C181 O175 1.272 . S
C182 O174 1.311 . S
C182 O176 1.231 . S
O183 Zn165 1.953 . S
O183 C177 1.298 . S
O184 Zn185 1.953 . S
O184 C200 1.225 . S
Zn185 O184 1.953 . S
Zn185 O186 1.949 . S
Zn185 O192 1.919 . S
Zn185 O197 1.924 . S
O186 Zn185 1.949 . S
O186 Zn187 1.923 . S
O186 Zn188 1.950 . S
O186 Zn189 1.945 1_554 S
Zn187 O186 1.923 . S
Zn187 O190 1.933 . S
Zn187 O193 1.941 . S
Zn187 O194 1.965 . S
Zn188 O186 1.950 . S
Zn188 O195 1.938 . S
Zn188 O196 1.906 . S
Zn188 O206 1.953 . S
Zn189 O186 1.945 1_556 S
Zn189 O191 1.932 . S
Zn189 O198 1.977 . S
Zn189 O199 1.910 . S
O190 Zn187 1.933 . S
O190 C201 1.226 . S
O191 Zn189 1.932 . S
O191 C201 1.307 1_556 S
O192 Zn185 1.919 . S
O192 C203 1.253 . S
O193 Zn187 1.941 . S
O193 C203 1.283 . S
O194 Zn187 1.965 . S
O194 C202 1.303 . S
O195 Zn188 1.938 . S
O195 C202 1.247 . S
O196 Zn188 1.906 . S
O196 C204 1.304 1_554 S
O197 Zn185 1.924 . S
O197 C205 1.311 1_554 S
O198 Zn189 1.977 . S
O198 C204 1.272 . S
O199 Zn189 1.910 . S
O199 C205 1.231 . S
C200 O184 1.225 . S
C200 O206 1.298 . S
C201 O190 1.226 . S
C201 O191 1.307 1_554 S
C202 O194 1.303 . S
C202 O195 1.247 . S
C203 O192 1.253 . S
C203 O193 1.283 . S
C204 O196 1.304 1_556 S
C204 O198 1.272 . S
C205 O197 1.311 1_556 S
C205 O199 1.231 . S
O206 Zn188 1.953 . S
O206 C200 1.298 . S
O207 Zn208 1.953 . S
O207 C223 1.225 . S
Zn208 O207 1.953 . S
Zn208 O209 1.949 . S
Zn208 O215 1.919 . S
Zn208 O220 1.924 . S
O209 Zn208 1.949 . S
O209 Zn210 1.923 . S
O209 Zn211 1.950 . S
O209 Zn212 1.945 1_556 S
Zn210 O209 1.923 . S
Zn210 O213 1.933 . S
Zn210 O216 1.941 . S
Zn210 O217 1.965 . S
Zn211 O209 1.950 . S
Zn211 O218 1.938 . S
Zn211 O219 1.906 . S
Zn211 O229 1.953 . S
Zn212 O209 1.945 1_554 S
Zn212 O214 1.932 . S
Zn212 O221 1.977 . S
Zn212 O222 1.910 . S
O213 Zn210 1.933 . S
O213 C224 1.226 . S
O214 Zn212 1.932 . S
O214 C224 1.307 1_554 S
O215 Zn208 1.919 . S
O215 C226 1.253 . S
O216 Zn210 1.941 . S
O216 C226 1.283 . S
O217 Zn210 1.965 . S
O217 C225 1.303 . S
O218 Zn211 1.938 . S
O218 C225 1.247 . S
O219 Zn211 1.906 . S
O219 C227 1.304 1_556 S
O220 Zn208 1.924 . S
O220 C228 1.311 1_556 S
O221 Zn212 1.977 . S
O221 C227 1.272 . S
O222 Zn212 1.910 . S
O222 C228 1.231 . S
C223 O207 1.225 . S
C223 O229 1.298 . S
C224 O213 1.226 . S
C224 O214 1.307 1_556 S
C225 O217 1.303 . S
C225 O218 1.247 . S
C226 O215 1.253 . S
C226 O216 1.283 . S
C227 O219 1.304 1_554 S
C227 O221 1.272 . S
C228 O220 1.311 1_554 S
C228 O222 1.231 . S
O229 Zn211 1.953 . S
O229 C223 1.298 . S
O230 Zn231 1.953 . S
O230 C246 1.225 . S
Zn231 O230 1.953 . S
Zn231 O232 1.949 . S
Zn231 O238 1.919 . S
Zn231 O243 1.924 . S
O232 Zn231 1.949 . S
O232 Zn233 1.923 . S
O232 Zn234 1.950 . S
O232 Zn235 1.945 . S
Zn233 O232 1.923 . S
Zn233 O236 1.933 . S
Zn233 O239 1.941 . S
Zn233 O240 1.965 . S
Zn234 O232 1.950 . S
Zn234 O241 1.938 . S
Zn234 O242 1.906 . S
Zn234 O252 1.953 . S
Zn235 O232 1.945 . S
Zn235 O237 1.932 . S
Zn235 O244 1.977 . S
Zn235 O245 1.910 . S
O236 Zn233 1.933 . S
O236 C247 1.226 . S
O237 Zn235 1.932 . S
O237 C247 1.307 . S
O238 Zn231 1.919 . S
O238 C249 1.253 . S
O239 Zn233 1.941 . S
O239 C249 1.283 . S
O240 Zn233 1.965 . S
O240 C248 1.303 . S
O241 Zn234 1.938 . S
O241 C248 1.247 . S
O242 Zn234 1.906 . S
O242 C250 1.304 . S
O243 Zn231 1.924 . S
O243 C251 1.311 . S
O244 Zn235 1.977 . S
O244 C250 1.272 . S
O245 Zn235 1.910 . S
O245 C251 1.231 . S
C246 O230 1.225 . S
C246 O252 1.298 . S
C247 O236 1.226 . S
C247 O237 1.307 . S
C248 O240 1.303 . S
C248 O241 1.247 . S
C249 O238 1.253 . S
C249 O239 1.283 . S
C250 O242 1.304 . S
C250 O244 1.272 . S
C251 O243 1.311 . S
C251 O245 1.231 . S
O252 Zn234 1.953 . S
O252 C246 1.298 . S
O253 Zn254 1.953 . S
O253 C269 1.225 . S
Zn254 O253 1.953 . S
Zn254 O255 1.949 . S
Zn254 O261 1.919 . S
Zn254 O266 1.924 . S
O255 Zn254 1.949 . S
O255 Zn256 1.923 . S
O255 Zn257 1.950 . S
O255 Zn258 1.945 . S
Zn256 O255 1.923 . S
Zn256 O259 1.933 . S
Zn256 O262 1.941 . S
Zn256 O263 1.965 . S
Zn257 O255 1.950 . S
Zn257 O264 1.938 . S
Zn257 O265 1.906 . S
Zn257 O275 1.953 . S
Zn258 O255 1.945 . S
Zn258 O260 1.932 . S
Zn258 O267 1.977 . S
Zn258 O268 1.910 . S
O259 Zn256 1.933 . S
O259 C270 1.226 . S
O260 Zn258 1.932 . S
O260 C270 1.307 . S
O261 Zn254 1.919 . S
O261 C272 1.253 . S
O262 Zn256 1.941 . S
O262 C272 1.283 . S
O263 Zn256 1.965 . S
O263 C271 1.303 . S
O264 Zn257 1.938 . S
O264 C271 1.247 . S
O265 Zn257 1.906 . S
O265 C273 1.304 . S
O266 Zn254 1.924 . S
O266 C274 1.311 . S
O267 Zn258 1.977 . S
O267 C273 1.272 . S
O268 Zn258 1.910 . S
O268 C274 1.231 . S
C269 O253 1.225 . S
C269 O275 1.298 . S
C270 O259 1.226 . S
C270 O260 1.307 . S
C271 O263 1.303 . S
C271 O264 1.247 . S
C272 O261 1.253 . S
C272 O262 1.283 . S
C273 O265 1.304 . S
C273 O267 1.272 . S
C274 O266 1.311 . S
C274 O268 1.231 . S
O275 Zn257 1.953 . S
O275 C269 1.298 . S
O276 Zn277 1.953 . S
O276 C292 1.225 . S
Zn277 O276 1.953 . S
Zn277 O278 1.949 . S
Zn277 O284 1.919 . S
Zn277 O289 1.924 . S
O278 Zn277 1.949 . S
O278 Zn279 1.923 . S
O278 Zn280 1.950 . S
O278 Zn281 1.945 1_655 S
Zn279 O278 1.923 . S
Zn279 O282 1.933 . S
Zn279 O285 1.941 . S
Zn279 O286 1.965 . S
Zn280 O278 1.950 . S
Zn280 O287 1.938 . S
Zn280 O288 1.906 . S
Zn280 O298 1.953 . S
Zn281 O278 1.945 1_455 S
Zn281 O283 1.932 . S
Zn281 O290 1.977 . S
Zn281 O291 1.910 . S
O282 Zn279 1.933 . S
O282 C293 1.226 . S
O283 Zn281 1.932 . S
O283 C293 1.307 1_455 S
O284 Zn277 1.919 . S
O284 C295 1.253 . S
O285 Zn279 1.941 . S
O285 C295 1.283 . S
O286 Zn279 1.965 . S
O286 C294 1.303 . S
O287 Zn280 1.938 . S
O287 C294 1.247 . S
O288 Zn280 1.906 . S
O288 C296 1.304 1_655 S
O289 Zn277 1.924 . S
O289 C297 1.311 1_655 S
O290 Zn281 1.977 . S
O290 C296 1.272 . S
O291 Zn281 1.910 . S
O291 C297 1.231 . S
C292 O276 1.225 . S
C292 O298 1.298 . S
C293 O282 1.226 . S
C293 O283 1.307 1_655 S
C294 O286 1.303 . S
C294 O287 1.247 . S
C295 O284 1.253 . S
C295 O285 1.283 . S
C296 O288 1.304 1_455 S
C296 O290 1.272 . S
C297 O289 1.311 1_455 S
C297 O291 1.231 . S
O298 Zn280 1.953 . S
O298 C292 1.298 . S
O299 Zn300 1.953 . S
O299 C315 1.225 . S
Zn300 O299 1.953 . S
Zn300 O301 1.949 . S
Zn300 O307 1.919 . S
Zn300 O312 1.924 . S
O301 Zn300 1.949 . S
O301 Zn302 1.923 . S
O301 Zn303 1.950 . S
O301 Zn304 1.945 . S
Zn302 O301 1.923 . S
Zn302 O305 1.933 . S
Zn302 O308 1.941 . S
Zn302 O309 1.965 . S
Zn303 O301 1.950 . S
Zn303 O310 1.938 . S
Zn303 O311 1.906 . S
Zn303 O321 1.953 . S
Zn304 O301 1.945 . S
Zn304 O306 1.932 . S
Zn304 O313 1.977 . S
Zn304 O314 1.910 . S
O305 Zn302 1.933 . S
O305 C316 1.226 . S
O306 Zn304 1.932 . S
O306 C316 1.307 . S
O307 Zn300 1.919 . S
O307 C318 1.253 . S
O308 Zn302 1.941 . S
O308 C318 1.283 . S
O309 Zn302 1.965 . S
O309 C317 1.303 . S
O310 Zn303 1.938 . S
O310 C317 1.247 . S
O311 Zn303 1.906 . S
O311 C319 1.304 . S
O312 Zn300 1.924 . S
O312 C320 1.311 . S
O313 Zn304 1.977 . S
O313 C319 1.272 . S
O314 Zn304 1.910 . S
O314 C320 1.231 . S
C315 O299 1.225 . S
C315 O321 1.298 . S
C316 O305 1.226 . S
C316 O306 1.307 . S
C317 O309 1.303 . S
C317 O310 1.247 . S
C318 O307 1.253 . S
C318 O308 1.283 . S
C319 O311 1.304 . S
C319 O313 1.272 . S
C320 O312 1.311 . S
C320 O314 1.231 . S
O321 Zn303 1.953 . S
O321 C315 1.298 . S
O322 Zn323 1.953 . S
O322 C338 1.225 . S
Zn323 O322 1.953 . S
Zn323 O324 1.949 . S
Zn323 O330 1.919 . S
Zn323 O335 1.924 . S
O324 Zn323 1.949 . S
O324 Zn325 1.923 . S
O324 Zn326 1.950 . S
O324 Zn327 1.945 . S
Zn325 O324 1.923 . S
Zn325 O328 1.933 . S
Zn325 O331 1.941 . S
Zn325 O332 1.965 . S
Zn326 O324 1.950 . S
Zn326 O333 1.938 . S
Zn326 O334 1.906 . S
Zn326 O344 1.953 . S
Zn327 O324 1.945 . S
Zn327 O329 1.932 . S
Zn327 O336 1.977 . S
Zn327 O337 1.910 . S
O328 Zn325 1.933 . S
O328 C339 1.226 . S
O329 Zn327 1.932 . S
O329 C339 1.307 . S
O330 Zn323 1.919 . S
O330 C341 1.253 . S
O331 Zn325 1.941 . S
O331 C341 1.283 . S
O332 Zn325 1.965 . S
O332 C340 1.303 . S
O333 Zn326 1.938 . S
O333 C340 1.247 . S
O334 Zn326 1.906 . S
O334 C342 1.304 . S
O335 Zn323 1.924 . S
O335 C343 1.311 . S
O336 Zn327 1.977 . S
O336 C342 1.272 . S
O337 Zn327 1.910 . S
O337 C343 1.231 . S
C338 O322 1.225 . S
C338 O344 1.298 . S
C339 O328 1.226 . S
C339 O329 1.307 . S
C340 O332 1.303 . S
C340 O333 1.247 . S
C341 O330 1.253 . S
C341 O331 1.283 . S
C342 O334 1.304 . S
C342 O336 1.272 . S
C343 O335 1.311 . S
C343 O337 1.231 . S
O344 Zn326 1.953 . S
O344 C338 1.298 . S
O345 Zn346 1.953 . S
O345 C361 1.225 . S
Zn346 O345 1.953 . S
Zn346 O347 1.949 . S
Zn346 O353 1.919 . S
Zn346 O358 1.924 . S
O347 Zn346 1.949 . S
O347 Zn348 1.923 . S
O347 Zn349 1.950 . S
O347 Zn350 1.945 1_455 S
Zn348 O347 1.923 . S
Zn348 O351 1.933 . S
Zn348 O354 1.941 . S
Zn348 O355 1.965 . S
Zn349 O347 1.950 . S
Zn349 O356 1.938 . S
Zn349 O357 1.906 . S
Zn349 O367 1.953 . S
Zn350 O347 1.945 1_655 S
Zn350 O352 1.932 . S
Zn350 O359 1.977 . S
Zn350 O360 1.910 . S
O351 Zn348 1.933 . S
O351 C362 1.226 . S
O352 Zn350 1.932 . S
O352 C362 1.307 1_655 S
O353 Zn346 1.919 . S
O353 C364 1.253 . S
O354 Zn348 1.941 . S
O354 C364 1.283 . S
O355 Zn348 1.965 . S
O355 C363 1.303 . S
O356 Zn349 1.938 . S
O356 C363 1.247 . S
O357 Zn349 1.906 . S
O357 C365 1.304 1_455 S
O358 Zn346 1.924 . S
O358 C366 1.311 1_455 S
O359 Zn350 1.977 . S
O359 C365 1.272 . S
O360 Zn350 1.910 . S
O360 C366 1.231 . S
C361 O345 1.225 . S
C361 O367 1.298 . S
C362 O351 1.226 . S
C362 O352 1.307 1_455 S
C363 O355 1.303 . S
C363 O356 1.247 . S
C364 O353 1.253 . S
C364 O354 1.283 . S
C365 O357 1.304 1_655 S
C365 O359 1.272 . S
C366 O358 1.311 1_655 S
C366 O360 1.231 . S
O367 Zn349 1.953 . S
O367 C361 1.298 . S
O368 Zn369 1.953 . S
O368 C384 1.225 . S
Zn369 O368 1.953 . S
Zn369 O370 1.949 . S
Zn369 O376 1.919 . S
Zn369 O381 1.924 . S
O370 Zn369 1.949 . S
O370 Zn371 1.923 . S
O370 Zn372 1.950 . S
O370 Zn373 1.945 1_565 S
Zn371 O370 1.923 . S
Zn371 O374 1.933 . S
Zn371 O377 1.941 . S
Zn371 O378 1.965 . S
Zn372 O370 1.950 . S
Zn372 O379 1.938 . S
Zn372 O380 1.906 . S
Zn372 O390 1.953 . S
Zn373 O370 1.945 1_545 S
Zn373 O375 1.932 . S
Zn373 O382 1.977 . S
Zn373 O383 1.910 . S
O374 Zn371 1.933 . S
O374 C385 1.226 . S
O375 Zn373 1.932 . S
O375 C385 1.307 1_545 S
O376 Zn369 1.919 . S
O376 C387 1.253 . S
O377 Zn371 1.941 . S
O377 C387 1.283 . S
O378 Zn371 1.965 . S
O378 C386 1.303 . S
O379 Zn372 1.938 . S
O379 C386 1.247 . S
O380 Zn372 1.906 . S
O380 C388 1.304 1_565 S
O381 Zn369 1.924 . S
O381 C389 1.311 1_565 S
O382 Zn373 1.977 . S
O382 C388 1.272 . S
O383 Zn373 1.910 . S
O383 C389 1.231 . S
C384 O368 1.225 . S
C384 O390 1.298 . S
C385 O374 1.226 . S
C385 O375 1.307 1_565 S
C386 O378 1.303 . S
C386 O379 1.247 . S
C387 O376 1.253 . S
C387 O377 1.283 . S
C388 O380 1.304 1_545 S
C388 O382 1.272 . S
C389 O381 1.311 1_545 S
C389 O383 1.231 . S
O390 Zn372 1.953 . S
O390 C384 1.298 . S
O391 Zn392 1.953 . S
O391 C407 1.225 . S
Zn392 O391 1.953 . S
Zn392 O393 1.949 . S
Zn392 O399 1.919 . S
Zn392 O404 1.924 . S
O393 Zn392 1.949 . S
O393 Zn394 1.923 . S
O393 Zn395 1.950 . S
O393 Zn396 1.945 1_545 S
Zn394 O393 1.923 . S
Zn394 O397 1.933 . S
Zn394 O400 1.941 . S
Zn394 O401 1.965 . S
Zn395 O393 1.950 . S
Zn395 O402 1.938 . S
Zn395 O403 1.906 . S
Zn395 O413 1.953 . S
Zn396 O393 1.945 1_565 S
Zn396 O398 1.932 . S
Zn396 O405 1.977 . S
Zn396 O406 1.910 . S
O397 Zn394 1.933 . S
O397 C408 1.226 . S
O398 Zn396 1.932 . S
O398 C408 1.307 1_565 S
O399 Zn392 1.919 . S
O399 C410 1.253 . S
O400 Zn394 1.941 . S
O400 C410 1.283 . S
O401 Zn394 1.965 . S
O401 C409 1.303 . S
O402 Zn395 1.938 . S
O402 C409 1.247 . S
O403 Zn395 1.906 . S
O403 C411 1.304 1_545 S
O404 Zn392 1.924 . S
O404 C412 1.311 1_545 S
O405 Zn396 1.977 . S
O405 C411 1.272 . S
O406 Zn396 1.910 . S
O406 C412 1.231 . S
C407 O391 1.225 . S
C407 O413 1.298 . S
C408 O397 1.226 . S
C408 O398 1.307 1_545 S
C409 O401 1.303 . S
C409 O402 1.247 . S
C410 O399 1.253 . S
C410 O400 1.283 . S
C411 O403 1.304 1_565 S
C411 O405 1.272 . S
C412 O404 1.311 1_565 S
C412 O406 1.231 . S
O413 Zn395 1.953 . S
O413 C407 1.298 . S
O414 Zn415 1.953 . S
O414 C430 1.225 . S
Zn415 O414 1.953 . S
Zn415 O416 1.949 . S
Zn415 O422 1.919 . S
Zn415 O427 1.924 . S
O416 Zn415 1.949 . S
O416 Zn417 1.923 . S
O416 Zn418 1.950 . S
O416 Zn419 1.945 . S
Zn417 O416 1.923 . S
Zn417 O420 1.933 . S
Zn417 O423 1.941 . S
Zn417 O424 1.965 . S
Zn418 O416 1.950 . S
Zn418 O425 1.938 . S
Zn418 O426 1.906 . S
Zn418 O436 1.953 . S
Zn419 O416 1.945 . S
Zn419 O421 1.932 . S
Zn419 O428 1.977 . S
Zn419 O429 1.910 . S
O420 Zn417 1.933 . S
O420 C431 1.226 . S
O421 Zn419 1.932 . S
O421 C431 1.307 . S
O422 Zn415 1.919 . S
O422 C433 1.253 . S
O423 Zn417 1.941 . S
O423 C433 1.283 . S
O424 Zn417 1.965 . S
O424 C432 1.303 . S
O425 Zn418 1.938 . S
O425 C432 1.247 . S
O426 Zn418 1.906 . S
O426 C434 1.304 . S
O427 Zn415 1.924 . S
O427 C435 1.311 . S
O428 Zn419 1.977 . S
O428 C434 1.272 . S
O429 Zn419 1.910 . S
O429 C435 1.231 . S
C430 O414 1.225 . S
C430 O436 1.298 . S
C431 O420 1.226 . S
C431 O421 1.307 . S
C432 O424 1.303 . S
C432 O425 1.247 . S
C433 O422 1.253 . S
C433 O423 1.283 . S
C434 O426 1.304 . S
C434 O428 1.272 . S
C435 O427 1.311 . S
C435 O429 1.231 . S
O436 Zn418 1.953 . S
O436 C430 1.298 . S
O437 Zn438 1.953 . S
O437 C453 1.225 . S
Zn438 O437 1.953 . S
Zn438 O439 1.949 . S
Zn438 O445 1.919 . S
Zn438 O450 1.924 . S
O439 Zn438 1.949 . S
O439 Zn440 1.923 . S
O439 Zn441 1.950 . S
O439 Zn442 1.945 . S
Zn440 O439 1.923 . S
Zn440 O443 1.933 . S
Zn440 O446 1.941 . S
Zn440 O447 1.965 . S
Zn441 O439 1.950 . S
Zn441 O448 1.938 . S
Zn441 O449 1.906 . S
Zn441 O459 1.953 . S
Zn442 O439 1.945 . S
Zn442 O444 1.932 . S
Zn442 O451 1.977 . S
Zn442 O452 1.910 . S
O443 Zn440 1.933 . S
O443 C454 1.226 . S
O444 Zn442 1.932 . S
O444 C454 1.307 . S
O445 Zn438 1.919 . S
O445 C456 1.253 . S
O446 Zn440 1.941 . S
O446 C456 1.283 . S
O447 Zn440 1.965 . S
O447 C455 1.303 . S
O448 Zn441 1.938 . S
O448 C455 1.247 . S
O449 Zn441 1.906 . S
O449 C457 1.304 . S
O450 Zn438 1.924 . S
O450 C458 1.311 . S
O451 Zn442 1.977 . S
O451 C457 1.272 . S
O452 Zn442 1.910 . S
O452 C458 1.231 . S
C453 O437 1.225 . S
C453 O459 1.298 . S
C454 O443 1.226 . S
C454 O444 1.307 . S
C455 O447 1.303 . S
C455 O448 1.247 . S
C456 O445 1.253 . S
C456 O446 1.283 . S
C457 O449 1.304 . S
C457 O451 1.272 . S
C458 O450 1.311 . S
C458 O452 1.231 . S
O459 Zn441 1.953 . S
O459 C453 1.298 . S
O460 Zn461 1.953 . S
O460 C476 1.225 . S
Zn461 O460 1.953 . S
Zn461 O462 1.949 . S
Zn461 O468 1.919 . S
Zn461 O473 1.924 . S
O462 Zn461 1.949 . S
O462 Zn463 1.923 . S
O462 Zn464 1.950 . S
O462 Zn465 1.945 1_556 S
Zn463 O462 1.923 . S
Zn463 O466 1.933 . S
Zn463 O469 1.941 . S
Zn463 O470 1.965 . S
Zn464 O462 1.950 . S
Zn464 O471 1.938 . S
Zn464 O472 1.906 . S
Zn464 O482 1.953 . S
Zn465 O462 1.945 1_554 S
Zn465 O467 1.932 . S
Zn465 O474 1.977 . S
Zn465 O475 1.910 . S
O466 Zn463 1.933 . S
O466 C477 1.226 . S
O467 Zn465 1.932 . S
O467 C477 1.307 1_554 S
O468 Zn461 1.919 . S
O468 C479 1.253 . S
O469 Zn463 1.941 . S
O469 C479 1.283 . S
O470 Zn463 1.965 . S
O470 C478 1.303 . S
O471 Zn464 1.938 . S
O471 C478 1.247 . S
O472 Zn464 1.906 . S
O472 C480 1.304 1_556 S
O473 Zn461 1.924 . S
O473 C481 1.311 1_556 S
O474 Zn465 1.977 . S
O474 C480 1.272 . S
O475 Zn465 1.910 . S
O475 C481 1.231 . S
C476 O460 1.225 . S
C476 O482 1.298 . S
C477 O466 1.226 . S
C477 O467 1.307 1_556 S
C478 O470 1.303 . S
C478 O471 1.247 . S
C479 O468 1.253 . S
C479 O469 1.283 . S
C480 O472 1.304 1_554 S
C480 O474 1.272 . S
C481 O473 1.311 1_554 S
C481 O475 1.231 . S
O482 Zn464 1.953 . S
O482 C476 1.298 . S
O483 Zn484 1.953 . S
O483 C499 1.225 . S
Zn484 O483 1.953 . S
Zn484 O485 1.949 . S
Zn484 O491 1.919 . S
Zn484 O496 1.924 . S
O485 Zn484 1.949 . S
O485 Zn486 1.923 . S
O485 Zn487 1.950 . S
O485 Zn488 1.945 1_554 S
Zn486 O485 1.923 . S
Zn486 O489 1.933 . S
Zn486 O492 1.941 . S
Zn486 O493 1.965 . S
Zn487 O485 1.950 . S
Zn487 O494 1.938 . S
Zn487 O495 1.906 . S
Zn487 O505 1.953 . S
Zn488 O485 1.945 1_556 S
Zn488 O490 1.932 . S
Zn488 O497 1.977 . S
Zn488 O498 1.910 . S
O489 Zn486 1.933 . S
O489 C500 1.226 . S
O490 Zn488 1.932 . S
O490 C500 1.307 1_556 S
O491 Zn484 1.919 . S
O491 C502 1.253 . S
O492 Zn486 1.941 . S
O492 C502 1.283 . S
O493 Zn486 1.965 . S
O493 C501 1.303 . S
O494 Zn487 1.938 . S
O494 C501 1.247 . S
O495 Zn487 1.906 . S
O495 C503 1.304 1_554 S
O496 Zn484 1.924 . S
O496 C504 1.311 1_554 S
O497 Zn488 1.977 . S
O497 C503 1.272 . S
O498 Zn488 1.910 . S
O498 C504 1.231 . S
C499 O483 1.225 . S
C499 O505 1.298 . S
C500 O489 1.226 . S
C500 O490 1.307 1_554 S
C501 O493 1.303 . S
C501 O494 1.247 . S
C502 O491 1.253 . S
C502 O492 1.283 . S
C503 O495 1.304 1_556 S
C503 O497 1.272 . S
C504 O496 1.311 1_556 S
C504 O498 1.231 . S
O505 Zn487 1.953 . S
O505 C499 1.298 . S
O506 Zn507 1.953 . S
O506 C522 1.225 . S
Zn507 O506 1.953 . S
Zn507 O508 1.949 . S
Zn507 O514 1.919 . S
Zn507 O519 1.924 . S
O508 Zn507 1.949 . S
O508 Zn509 1.923 . S
O508 Zn510 1.950 . S
O508 Zn511 1.945 . S
Zn509 O508 1.923 . S
Zn509 O512 1.933 . S
Zn509 O515 1.941 . S
Zn509 O516 1.965 . S
Zn510 O508 1.950 . S
Zn510 O517 1.938 . S
Zn510 O518 1.906 . S
Zn510 O528 1.953 . S
Zn511 O508 1.945 . S
Zn511 O513 1.932 . S
Zn511 O520 1.977 . S
Zn511 O521 1.910 . S
O512 Zn509 1.933 . S
O512 C523 1.226 . S
O513 Zn511 1.932 . S
O513 C523 1.307 . S
O514 Zn507 1.919 . S
O514 C525 1.253 . S
O515 Zn509 1.941 . S
O515 C525 1.283 . S
O516 Zn509 1.965 . S
O516 C524 1.303 . S
O517 Zn510 1.938 . S
O517 C524 1.247 . S
O518 Zn510 1.906 . S
O518 C526 1.304 . S
O519 Zn507 1.924 . S
O519 C527 1.311 . S
O520 Zn511 1.977 . S
O520 C526 1.272 . S
O521 Zn511 1.910 . S
O521 C527 1.231 . S
C522 O506 1.225 . S
C522 O528 1.298 . S
C523 O512 1.226 . S
C523 O513 1.307 . S
C524 O516 1.303 . S
C524 O517 1.247 . S
C525 O514 1.253 . S
C525 O515 1.283 . S
C526 O518 1.304 . S
C526 O520 1.272 . S
C527 O519 1.311 . S
C527 O521 1.231 . S
O528 Zn510 1.953 . S
O528 C522 1.298 . S
O529 Zn530 1.953 . S
O529 C545 1.225 . S
Zn530 O529 1.953 . S
Zn530 O531 1.949 . S
Zn530 O537 1.919 . S
Zn530 O542 1.924 . S
O531 Zn530 1.949 . S
O531 Zn532 1.923 . S
O531 Zn533 1.950 . S
O531 Zn534 1.945 . S
Zn532 O531 1.923 . S
Zn532 O535 1.933 . S
Zn532 O538 1.941 . S
Zn532 O539 1.965 . S
Zn533 O531 1.950 . S
Zn533 O540 1.938 . S
Zn533 O541 1.906 . S
Zn533 O551 1.953 . S
Zn534 O531 1.945 . S
Zn534 O536 1.932 . S
Zn534 O543 1.977 . S
Zn534 O544 1.910 . S
O535 Zn532 1.933 . S
O535 C546 1.226 . S
O536 Zn534 1.932 . S
O536 C546 1.307 . S
O537 Zn530 1.919 . S
O537 C548 1.253 . S
O538 Zn532 1.941 . S
O538 C548 1.283 . S
O539 Zn532 1.965 . S
O539 C547 1.303 . S
O540 Zn533 1.938 . S
O540 C547 1.247 . S
O541 Zn533 1.906 . S
O541 C549 1.304 . S
O542 Zn530 1.924 . S
O542 C550 1.311 . S
O543 Zn534 1.977 . S
O543 C549 1.272 . S
O544 Zn534 1.910 . S
O544 C550 1.231 . S
C545 O529 1.225 . S
C545 O551 1.298 . S
C546 O535 1.226 . S
C546 O536 1.307 . S
C547 O539 1.303 . S
C547 O540 1.247 . S
C548 O537 1.253 . S
C548 O538 1.283 . S
C549 O541 1.304 . S
C549 O543 1.272 . S
C550 O542 1.311 . S
C550 O544 1.231 . S
O551 Zn533 1.953 . S
O551 C545 1.298 . S
H552 C558 0.930 . S
H553 C561 0.930 . S
H554 C562 0.930 . S
H555 C563 0.930 . S
H556 C566 0.930 . S
H557 C567 0.930 . S
C558 H552 0.930 . S
C558 C559 1.355 . S
C558 C560 1.415 . S
C559 C558 1.355 . S
C559 C561 1.419 . S
C560 C558 1.415 . S
C560 C565 1.425 . S
C560 C567 1.409 . S
C561 H553 0.930 . S
C561 C559 1.419 . S
C561 C562 1.362 . S
C562 H554 0.930 . S
C562 C561 1.362 . S
C562 C565 1.409 . S
C563 H555 0.930 . S
C563 C564 1.355 . S
C563 C565 1.415 . S
C564 C563 1.355 . S
C564 C566 1.419 . S
C565 C560 1.425 . S
C565 C562 1.409 . S
C565 C563 1.415 . S
C566 H556 0.930 . S
C566 C564 1.419 . S
C566 C567 1.362 . S
C567 H557 0.930 . S
C567 C560 1.409 . S
C567 C566 1.362 . S
H568 C574 0.930 . S
H569 C577 0.930 . S
H570 C578 0.930 . S
H571 C579 0.930 . S
H572 C582 0.930 . S
H573 C583 0.930 . S
C574 H568 0.930 . S
C574 C575 1.355 . S
C574 C576 1.415 . S
C575 C574 1.355 . S
C575 C577 1.419 . S
C576 C574 1.415 . S
C576 C581 1.425 . S
C576 C583 1.409 . S
C577 H569 0.930 . S
C577 C575 1.419 . S
C577 C578 1.362 . S
C578 H570 0.930 . S
C578 C577 1.362 . S
C578 C581 1.409 . S
C579 H571 0.930 . S
C579 C580 1.355 . S
C579 C581 1.415 . S
C580 C579 1.355 . S
C580 C582 1.419 . S
C581 C576 1.425 . S
C581 C578 1.409 . S
C581 C579 1.415 . S
C582 H572 0.930 . S
C582 C580 1.419 . S
C582 C583 1.362 . S
C583 H573 0.930 . S
C583 C576 1.409 . S
C583 C582 1.362 . S
H584 C590 0.930 . S
H585 C593 0.930 . S
H586 C594 0.930 . S
H587 C595 0.930 . S
H588 C598 0.930 1_565 S
H589 C599 0.930 . S
C590 H584 0.930 . S
C590 C591 1.355 . S
C590 C592 1.415 . S
C591 C590 1.355 . S
C591 C593 1.419 . S
C592 C590 1.415 . S
C592 C597 1.425 . S
C592 C599 1.409 . S
C593 H585 0.930 . S
C593 C591 1.419 . S
C593 C594 1.362 . S
C594 H586 0.930 . S
C594 C593 1.362 . S
C594 C597 1.409 . S
C595 H587 0.930 . S
C595 C596 1.355 . S
C595 C597 1.415 . S
C596 C595 1.355 . S
C596 C598 1.419 . S
C597 C592 1.425 . S
C597 C594 1.409 . S
C597 C595 1.415 . S
C598 H588 0.930 1_545 S
C598 C596 1.419 . S
C598 C599 1.362 . S
C599 H589 0.930 . S
C599 C592 1.409 . S
C599 C598 1.362 . S
H600 C606 0.930 . S
H601 C609 0.930 . S
H602 C610 0.930 . S
H603 C611 0.930 1_545 S
H604 C614 0.930 . S
H605 C615 0.930 . S
C606 H600 0.930 . S
C606 C607 1.355 . S
C606 C608 1.415 . S
C607 C606 1.355 . S
C607 C609 1.419 . S
C608 C606 1.415 . S
C608 C613 1.425 . S
C608 C615 1.409 . S
C609 H601 0.930 . S
C609 C607 1.419 . S
C609 C610 1.362 . S
C610 H602 0.930 . S
C610 C609 1.362 . S
C610 C613 1.409 . S
C611 H603 0.930 1_565 S
C611 C612 1.355 . S
C611 C613 1.415 . S
C612 C611 1.355 . S
C612 C614 1.419 . S
C613 C608 1.425 . S
C613 C610 1.409 . S
C613 C611 1.415 . S
C614 H604 0.930 . S
C614 C612 1.419 . S
C614 C615 1.362 . S
C615 H605 0.930 . S
C615 C608 1.409 . S
C615 C614 1.362 . S
H616 C622 0.930 . S
H617 C625 0.930 . S
H618 C626 0.930 . S
H619 C627 0.930 . S
H620 C630 0.930 . S
H621 C631 0.930 . S
C622 H616 0.930 . S
C622 C623 1.355 . S
C622 C624 1.415 . S
C623 C622 1.355 . S
C623 C625 1.419 . S
C624 C622 1.415 . S
C624 C629 1.425 . S
C624 C631 1.409 . S
C625 H617 0.930 . S
C625 C623 1.419 . S
C625 C626 1.362 . S
C626 H618 0.930 . S
C626 C625 1.362 . S
C626 C629 1.409 . S
C627 H619 0.930 . S
C627 C628 1.355 . S
C627 C629 1.415 . S
C628 C627 1.355 . S
C628 C630 1.419 . S
C629 C624 1.425 . S
C629 C626 1.409 . S
C629 C627 1.415 . S
C630 H620 0.930 . S
C630 C628 1.419 . S
C630 C631 1.362 . S
C631 H621 0.930 . S
C631 C624 1.409 . S
C631 C630 1.362 . S
H632 C638 0.930 . S
H633 C641 0.930 . S
H634 C642 0.930 . S
H635 C643 0.930 . S
H636 C646 0.930 1_554 S
H637 C647 0.930 . S
C638 H632 0.930 . S
C638 C639 1.355 . S
C638 C640 1.415 . S
C639 C638 1.355 . S
C639 C641 1.419 . S
C640 C638 1.415 . S
C640 C645 1.425 . S
C640 C647 1.409 . S
C641 H633 0.930 . S
C641 C639 1.419 . S
C641 C642 1.362 . S
C642 H634 0.930 . S
C642 C641 1.362 . S
C642 C645 1.409 . S
C643 H635 0.930 . S
C643 C644 1.355 . S
C643 C645 1.415 . S
C644 C643 1.355 . S
C644 C646 1.419 . S
C645 C640 1.425 . S
C645 C642 1.409 . S
C645 C643 1.415 . S
C646 H636 0.930 1_556 S
C646 C644 1.419 . S
C646 C647 1.362 . S
C647 H637 0.930 . S
C647 C640 1.409 . S
C647 C646 1.362 . S
H648 C654 0.930 . S
H649 C657 0.930 . S
H650 C658 0.930 . S
H651 C659 0.930 . S
H652 C662 0.930 . S
H653 C663 0.930 . S
C654 H648 0.930 . S
C654 C655 1.355 . S
C654 C656 1.415 . S
C655 C654 1.355 . S
C655 C657 1.419 . S
C656 C654 1.415 . S
C656 C661 1.425 . S
C656 C663 1.409 . S
C657 H649 0.930 . S
C657 C655 1.419 . S
C657 C658 1.362 . S
C658 H650 0.930 . S
C658 C657 1.362 . S
C658 C661 1.409 . S
C659 H651 0.930 . S
C659 C660 1.355 . S
C659 C661 1.415 . S
C660 C659 1.355 . S
C660 C662 1.419 . S
C661 C656 1.425 . S
C661 C658 1.409 . S
C661 C659 1.415 . S
C662 H652 0.930 . S
C662 C660 1.419 . S
C662 C663 1.362 . S
C663 H653 0.930 . S
C663 C656 1.409 . S
C663 C662 1.362 . S
H664 C670 0.930 . S
H665 C673 0.930 . S
H666 C674 0.930 . S
H667 C675 0.930 . S
H668 C678 0.930 . S
H669 C679 0.930 . S
C670 H664 0.930 . S
C670 C671 1.355 . S
C670 C672 1.415 . S
C671 C670 1.355 . S
C671 C673 1.419 . S
C672 C670 1.415 . S
C672 C677 1.425 . S
C672 C679 1.409 . S
C673 H665 0.930 . S
C673 C671 1.419 . S
C673 C674 1.362 . S
C674 H666 0.930 . S
C674 C673 1.362 . S
C674 C677 1.409 . S
C675 H667 0.930 . S
C675 C676 1.355 . S
C675 C677 1.415 . S
C676 C675 1.355 . S
C676 C678 1.419 . S
C677 C672 1.425 . S
C677 C674 1.409 . S
C677 C675 1.415 . S
C678 H668 0.930 . S
C678 C676 1.419 . S
C678 C679 1.362 . S
C679 H669 0.930 . S
C679 C672 1.409 . S
C679 C678 1.362 . S
H680 C686 0.930 . S
H681 C689 0.930 . S
H682 C690 0.930 . S
H683 C691 0.930 . S
H684 C694 0.930 . S
H685 C695 0.930 . S
C686 H680 0.930 . S
C686 C687 1.355 . S
C686 C688 1.415 . S
C687 C686 1.355 . S
C687 C689 1.419 . S
C688 C686 1.415 . S
C688 C693 1.425 . S
C688 C695 1.409 . S
C689 H681 0.930 . S
C689 C687 1.419 . S
C689 C690 1.362 . S
C690 H682 0.930 . S
C690 C689 1.362 . S
C690 C693 1.409 . S
C691 H683 0.930 . S
C691 C692 1.355 . S
C691 C693 1.415 . S
C692 C691 1.355 . S
C692 C694 1.419 . S
C693 C688 1.425 . S
C693 C690 1.409 . S
C693 C691 1.415 . S
C694 H684 0.930 . S
C694 C692 1.419 . S
C694 C695 1.362 . S
C695 H685 0.930 . S
C695 C688 1.409 . S
C695 C694 1.362 . S
H696 C702 0.930 . S
H697 C705 0.930 . S
H698 C706 0.930 . S
H699 C707 0.930 . S
H700 C710 0.930 . S
H701 C711 0.930 . S
C702 H696 0.930 . S
C702 C703 1.355 . S
C702 C704 1.415 . S
C703 C702 1.355 . S
C703 C705 1.419 . S
C704 C702 1.415 . S
C704 C709 1.425 . S
C704 C711 1.409 . S
C705 H697 0.930 . S
C705 C703 1.419 . S
C705 C706 1.362 . S
C706 H698 0.930 . S
C706 C705 1.362 . S
C706 C709 1.409 . S
C707 H699 0.930 . S
C707 C708 1.355 . S
C707 C709 1.415 . S
C708 C707 1.355 . S
C708 C710 1.419 . S
C709 C704 1.425 . S
C709 C706 1.409 . S
C709 C707 1.415 . S
C710 H700 0.930 . S
C710 C708 1.419 . S
C710 C711 1.362 . S
C711 H701 0.930 . S
C711 C704 1.409 . S
C711 C710 1.362 . S
H712 C718 0.930 . S
H713 C721 0.930 . S
H714 C722 0.930 . S
H715 C723 0.930 . S
H716 C726 0.930 . S
H717 C727 0.930 . S
C718 H712 0.930 . S
C718 C719 1.355 . S
C718 C720 1.415 . S
C719 C718 1.355 . S
C719 C721 1.419 . S
C720 C718 1.415 . S
C720 C725 1.425 . S
C720 C727 1.409 . S
C721 H713 0.930 . S
C721 C719 1.419 . S
C721 C722 1.362 . S
C722 H714 0.930 . S
C722 C721 1.362 . S
C722 C725 1.409 . S
C723 H715 0.930 . S
C723 C724 1.355 . S
C723 C725 1.415 . S
C724 C723 1.355 . S
C724 C726 1.419 . S
C725 C720 1.425 . S
C725 C722 1.409 . S
C725 C723 1.415 . S
C726 H716 0.930 . S
C726 C724 1.419 . S
C726 C727 1.362 . S
C727 H717 0.930 . S
C727 C720 1.409 . S
C727 C726 1.362 . S
H728 C734 0.930 . S
H729 C737 0.930 . S
H730 C738 0.930 . S
H731 C739 0.909 1_655 S
H732 C742 0.930 . S
H733 C743 0.930 . S
C734 H728 0.930 . S
C734 C735 1.355 . S
C734 C736 1.415 . S
C735 C734 1.355 . S
C735 C737 1.419 . S
C736 C734 1.415 . S
C736 C741 1.425 . S
C736 C743 1.409 . S
C737 H729 0.930 . S
C737 C735 1.419 . S
C737 C738 1.362 . S
C738 H730 0.930 . S
C738 C737 1.362 . S
C738 C741 1.409 . S
C739 H731 0.909 1_455 S
C739 C740 1.355 . S
C739 C741 1.415 . S
C740 C739 1.355 . S
C740 C742 1.419 . S
C741 C736 1.425 . S
C741 C738 1.409 . S
C741 C739 1.415 . S
C742 H732 0.930 . S
C742 C740 1.419 . S
C742 C743 1.362 . S
C743 H733 0.930 . S
C743 C736 1.409 . S
C743 C742 1.362 . S
H744 C750 0.930 . S
H745 C753 0.930 . S
H746 C754 0.930 . S
H747 C755 0.930 . S
H748 C758 0.930 . S
H749 C759 0.930 . S
C750 H744 0.930 . S
C750 C751 1.355 . S
C750 C752 1.415 . S
C751 C750 1.355 . S
C751 C753 1.419 . S
C752 C750 1.415 . S
C752 C757 1.425 . S
C752 C759 1.409 . S
C753 H745 0.930 . S
C753 C751 1.419 . S
C753 C754 1.362 . S
C754 H746 0.930 . S
C754 C753 1.362 . S
C754 C757 1.409 . S
C755 H747 0.930 . S
C755 C756 1.355 . S
C755 C757 1.415 . S
C756 C755 1.355 . S
C756 C758 1.419 . S
C757 C752 1.425 . S
C757 C754 1.409 . S
C757 C755 1.415 . S
C758 H748 0.930 . S
C758 C756 1.419 . S
C758 C759 1.362 . S
C759 H749 0.930 . S
C759 C752 1.409 . S
C759 C758 1.362 . S
H760 C766 0.930 . S
H761 C769 0.930 . S
H762 C770 0.930 . S
H763 C771 0.930 . S
H764 C774 0.930 . S
H765 C775 0.930 . S
C766 H760 0.930 . S
C766 C767 1.355 . S
C766 C768 1.415 . S
C767 C766 1.355 . S
C767 C769 1.419 . S
C768 C766 1.415 . S
C768 C773 1.425 . S
C768 C775 1.409 . S
C769 H761 0.930 . S
C769 C767 1.419 . S
C769 C770 1.362 . S
C770 H762 0.930 . S
C770 C769 1.362 . S
C770 C773 1.409 . S
C771 H763 0.930 . S
C771 C772 1.355 . S
C771 C773 1.415 . S
C772 C771 1.355 . S
C772 C774 1.419 . S
C773 C768 1.425 . S
C773 C770 1.409 . S
C773 C771 1.415 . S
C774 H764 0.930 . S
C774 C772 1.419 . S
C774 C775 1.362 . S
C775 H765 0.930 . S
C775 C768 1.409 . S
C775 C774 1.362 . S
H776 C782 0.930 . S
H777 C785 0.930 . S
H778 C786 0.930 . S
H779 C787 0.933 1_545 S
H780 C790 0.930 . S
H781 C791 0.930 . S
C782 H776 0.930 . S
C782 C783 1.355 . S
C782 C784 1.415 . S
C783 C782 1.355 . S
C783 C785 1.419 . S
C784 C782 1.415 . S
C784 C789 1.425 . S
C784 C791 1.409 . S
C785 H777 0.930 . S
C785 C783 1.419 . S
C785 C786 1.362 . S
C786 H778 0.930 . S
C786 C785 1.362 . S
C786 C789 1.409 . S
C787 H779 0.933 1_565 S
C787 C788 1.355 . S
C787 C789 1.415 . S
C788 C787 1.355 . S
C788 C790 1.419 . S
C789 C784 1.425 . S
C789 C786 1.409 . S
C789 C787 1.415 . S
C790 H780 0.930 . S
C790 C788 1.419 . S
C790 C791 1.362 . S
C791 H781 0.930 . S
C791 C784 1.409 . S
C791 C790 1.362 . S
H792 C798 0.930 . S
H793 C801 0.930 . S
H794 C802 0.930 . S
H795 C803 0.930 . S
H796 C806 0.930 . S
H797 C807 0.930 . S
C798 H792 0.930 . S
C798 C799 1.355 . S
C798 C800 1.415 . S
C799 C798 1.355 . S
C799 C801 1.419 . S
C800 C798 1.415 . S
C800 C805 1.425 . S
C800 C807 1.409 . S
C801 H793 0.930 . S
C801 C799 1.419 . S
C801 C802 1.362 . S
C802 H794 0.930 . S
C802 C801 1.362 . S
C802 C805 1.409 . S
C803 H795 0.930 . S
C803 C804 1.355 . S
C803 C805 1.415 . S
C804 C803 1.355 . S
C804 C806 1.419 . S
C805 C800 1.425 . S
C805 C802 1.409 . S
C805 C803 1.415 . S
C806 H796 0.930 . S
C806 C804 1.419 . S
C806 C807 1.362 . S
C807 H797 0.930 . S
C807 C800 1.409 . S
C807 C806 1.362 . S
H808 C814 0.930 . S
H809 C817 0.930 . S
H810 C818 0.930 . S
H811 C819 0.930 . S
H812 C822 0.930 . S
H813 C823 0.930 . S
C814 H808 0.930 . S
C814 C815 1.355 . S
C814 C816 1.415 . S
C815 C814 1.355 . S
C815 C817 1.419 . S
C816 C814 1.415 . S
C816 C821 1.425 . S
C816 C823 1.409 . S
C817 H809 0.930 . S
C817 C815 1.419 . S
C817 C818 1.362 . S
C818 H810 0.930 . S
C818 C817 1.362 . S
C818 C821 1.409 . S
C819 H811 0.930 . S
C819 C820 1.355 . S
C819 C821 1.415 . S
C820 C819 1.355 . S
C820 C822 1.419 . S
C821 C816 1.425 . S
C821 C818 1.409 . S
C821 C819 1.415 . S
C822 H812 0.930 . S
C822 C820 1.419 . S
C822 C823 1.362 . S
C823 H813 0.930 . S
C823 C816 1.409 . S
C823 C822 1.362 . S
H824 C830 0.930 . S
H825 C833 0.930 1_556 S
H826 C834 0.930 . S
H827 C835 0.930 . S
H828 C838 0.930 . S
H829 C839 0.930 . S
C830 H824 0.930 . S
C830 C831 1.355 . S
C830 C832 1.415 . S
C831 C830 1.355 . S
C831 C833 1.419 . S
C832 C830 1.415 . S
C832 C837 1.425 . S
C832 C839 1.409 . S
C833 H825 0.930 1_554 S
C833 C831 1.419 . S
C833 C834 1.362 . S
C834 H826 0.930 . S
C834 C833 1.362 . S
C834 C837 1.409 . S
C835 H827 0.930 . S
C835 C836 1.355 . S
C835 C837 1.415 . S
C836 C835 1.355 . S
C836 C838 1.419 . S
C837 C832 1.425 . S
C837 C834 1.409 . S
C837 C835 1.415 . S
C838 H828 0.930 . S
C838 C836 1.419 . S
C838 C839 1.362 . S
C839 H829 0.930 . S
C839 C832 1.409 . S
C839 C838 1.362 . S
H840 C846 0.930 . S
H841 C849 0.930 . S
H842 C850 0.930 . S
H843 C851 0.930 . S
H844 C854 0.930 . S
H845 C855 0.930 . S
C846 H840 0.930 . S
C846 C847 1.355 . S
C846 C848 1.415 . S
C847 C846 1.355 . S
C847 C849 1.419 . S
C848 C846 1.415 . S
C848 C853 1.425 . S
C848 C855 1.409 . S
C849 H841 0.930 . S
C849 C847 1.419 . S
C849 C850 1.362 . S
C850 H842 0.930 . S
C850 C849 1.362 . S
C850 C853 1.409 . S
C851 H843 0.930 . S
C851 C852 1.355 . S
C851 C853 1.415 . S
C852 C851 1.355 . S
C852 C854 1.419 . S
C853 C848 1.425 . S
C853 C850 1.409 . S
C853 C851 1.415 . S
C854 H844 0.930 . S
C854 C852 1.419 . S
C854 C855 1.362 . S
C855 H845 0.930 . S
C855 C848 1.409 . S
C855 C854 1.362 . S
H856 C862 0.930 . S
H857 C865 0.930 1_554 S
H858 C866 0.930 . S
H859 C867 0.930 . S
H860 C870 0.930 . S
H861 C871 0.930 . S
C862 H856 0.930 . S
C862 C863 1.355 . S
C862 C864 1.415 . S
C863 C862 1.355 . S
C863 C865 1.419 . S
C864 C862 1.415 . S
C864 C869 1.425 . S
C864 C871 1.409 . S
C865 H857 0.930 1_556 S
C865 C863 1.419 . S
C865 C866 1.362 . S
C866 H858 0.930 . S
C866 C865 1.362 . S
C866 C869 1.409 . S
C867 H859 0.930 . S
C867 C868 1.355 . S
C867 C869 1.415 . S
C868 C867 1.355 . S
C868 C870 1.419 . S
C869 C864 1.425 . S
C869 C866 1.409 . S
C869 C867 1.415 . S
C870 H860 0.930 . S
C870 C868 1.419 . S
C870 C871 1.362 . S
C871 H861 0.930 . S
C871 C864 1.409 . S
C871 C870 1.362 . S
H872 C878 0.930 . S
H873 C881 0.930 . S
H874 C882 0.930 . S
H875 C883 0.930 . S
H876 C886 0.930 . S
H877 C887 0.930 . S
C878 H872 0.930 . S
C878 C879 1.355 . S
C878 C880 1.415 . S
C879 C878 1.355 . S
C879 C881 1.419 . S
C880 C878 1.415 . S
C880 C885 1.425 . S
C880 C887 1.409 . S
C881 H873 0.930 . S
C881 C879 1.419 . S
C881 C882 1.362 . S
C882 H874 0.930 . S
C882 C881 1.362 . S
C882 C885 1.409 . S
C883 H875 0.930 . S
C883 C884 1.355 . S
C883 C885 1.415 . S
C884 C883 1.355 . S
C884 C886 1.419 . S
C885 C880 1.425 . S
C885 C882 1.409 . S
C885 C883 1.415 . S
C886 H876 0.930 . S
C886 C884 1.419 . S
C886 C887 1.362 . S
C887 H877 0.930 . S
C887 C880 1.409 . S
C887 C886 1.362 . S
H888 C894 0.930 . S
H889 C897 0.930 . S
H890 C898 0.930 . S
H891 C899 0.930 . S
H892 C902 0.930 . S
H893 C903 0.930 . S
C894 H888 0.930 . S
C894 C895 1.355 . S
C894 C896 1.415 . S
C895 C894 1.355 . S
C895 C897 1.419 . S
C896 C894 1.415 . S
C896 C901 1.425 . S
C896 C903 1.409 . S
C897 H889 0.930 . S
C897 C895 1.419 . S
C897 C898 1.362 . S
C898 H890 0.930 . S
C898 C897 1.362 . S
C898 C901 1.409 . S
C899 H891 0.930 . S
C899 C900 1.355 . S
C899 C901 1.415 . S
C900 C899 1.355 . S
C900 C902 1.419 . S
C901 C896 1.425 . S
C901 C898 1.409 . S
C901 C899 1.415 . S
C902 H892 0.930 . S
C902 C900 1.419 . S
C902 C903 1.362 . S
C903 H893 0.930 . S
C903 C896 1.409 . S
C903 C902 1.362 . S
H904 C910 0.930 . S
H905 C913 0.930 . S
H906 C914 0.930 . S
H907 C915 0.930 . S
H908 C918 0.930 . S
H909 C919 0.930 . S
C910 H904 0.930 . S
C910 C911 1.355 . S
C910 C912 1.415 . S
C911 C910 1.355 . S
C911 C913 1.419 . S
C912 C910 1.415 . S
C912 C917 1.425 . S
C912 C919 1.409 . S
C913 H905 0.930 . S
C913 C911 1.419 . S
C913 C914 1.362 . S
C914 H906 0.930 . S
C914 C913 1.362 . S
C914 C917 1.409 . S
C915 H907 0.930 . S
C915 C916 1.355 . S
C915 C917 1.415 . S
C916 C915 1.355 . S
C916 C918 1.419 . S
C917 C912 1.425 . S
C917 C914 1.409 . S
C917 C915 1.415 . S
C918 H908 0.930 . S
C918 C916 1.419 . S
C918 C919 1.362 . S
C919 H909 0.930 . S
C919 C912 1.409 . S
C919 C918 1.362 . S
H920 C926 0.930 . S
H921 C929 0.930 . S
H922 C930 0.930 . S
H923 C931 0.930 . S
H924 C934 0.930 . S
H925 C935 0.930 . S
C926 H920 0.930 . S
C926 C927 1.355 . S
C926 C928 1.415 . S
C927 C926 1.355 . S
C927 C929 1.419 . S
C928 C926 1.415 . S
C928 C933 1.425 . S
C928 C935 1.409 . S
C929 H921 0.930 . S
C929 C927 1.419 . S
C929 C930 1.362 . S
C930 H922 0.930 . S
C930 C929 1.362 . S
C930 C933 1.409 . S
C931 H923 0.930 . S
C931 C932 1.355 . S
C931 C933 1.415 . S
C932 C931 1.355 . S
C932 C934 1.419 . S
C933 C928 1.425 . S
C933 C930 1.409 . S
C933 C931 1.415 . S
C934 H924 0.930 . S
C934 C932 1.419 . S
C934 C935 1.362 . S
C935 H925 0.930 . S
C935 C928 1.409 . S
C935 C934 1.362 . S
H936 C942 0.930 . S
H937 C945 0.930 . S
H938 C946 0.930 . S
H939 C947 0.930 . S
H940 C950 0.930 . S
H941 C951 0.930 . S
C942 H936 0.930 . S
C942 C943 1.355 . S
C942 C944 1.415 . S
C943 C942 1.355 . S
C943 C945 1.419 . S
C944 C942 1.415 . S
C944 C949 1.425 . S
C944 C951 1.409 . S
C945 H937 0.930 . S
C945 C943 1.419 . S
C945 C946 1.362 . S
C946 H938 0.930 . S
C946 C945 1.362 . S
C946 C949 1.409 . S
C947 H939 0.930 . S
C947 C948 1.355 . S
C947 C949 1.415 . S
C948 C947 1.355 . S
C948 C950 1.419 . S
C949 C944 1.425 . S
C949 C946 1.409 . S
C949 C947 1.415 . S
C950 H940 0.930 . S
C950 C948 1.419 . S
C950 C951 1.362 . S
C951 H941 0.930 . S
C951 C944 1.409 . S
C951 C950 1.362 . S
H952 C958 0.930 . S
H953 C961 0.930 . S
H954 C962 0.930 . S
H955 C963 0.930 . S
H956 C966 0.930 . S
H957 C967 0.930 . S
C958 H952 0.930 . S
C958 C959 1.355 . S
C958 C960 1.415 . S
C959 C958 1.355 . S
C959 C961 1.419 . S
C960 C958 1.415 . S
C960 C965 1.425 . S
C960 C967 1.409 . S
C961 H953 0.930 . S
C961 C959 1.419 . S
C961 C962 1.362 . S
C962 H954 0.930 . S
C962 C961 1.362 . S
C962 C965 1.409 . S
C963 H955 0.930 . S
C963 C964 1.355 . S
C963 C965 1.415 . S
C964 C963 1.355 . S
C964 C966 1.419 . S
C965 C960 1.425 . S
C965 C962 1.409 . S
C965 C963 1.415 . S
C966 H956 0.930 . S
C966 C964 1.419 . S
C966 C967 1.362 . S
C967 H957 0.930 . S
C967 C960 1.409 . S
C967 C966 1.362 . S
H968 C974 0.930 . S
H969 C977 0.930 . S
H970 C978 0.930 . S
H971 C979 0.930 . S
H972 C982 0.930 . S
H973 C983 0.930 . S
C974 H968 0.930 . S
C974 C975 1.355 . S
C974 C976 1.415 . S
C975 C974 1.355 . S
C975 C977 1.419 . S
C976 C974 1.415 . S
C976 C981 1.425 . S
C976 C983 1.409 . S
C977 H969 0.930 . S
C977 C975 1.419 . S
C977 C978 1.362 . S
C978 H970 0.930 . S
C978 C977 1.362 . S
C978 C981 1.409 . S
C979 H971 0.930 . S
C979 C980 1.355 . S
C979 C981 1.415 . S
C980 C979 1.355 . S
C980 C982 1.419 . S
C981 C976 1.425 . S
C981 C978 1.409 . S
C981 C979 1.415 . S
C982 H972 0.930 . S
C982 C980 1.419 . S
C982 C983 1.362 . S
C983 H973 0.930 . S
C983 C976 1.409 . S
C983 C982 1.362 . S
H984 C990 0.930 . S
H985 C993 0.930 . S
H986 C994 0.930 . S
H987 C995 0.930 . S
H988 C998 0.930 . S
H989 C999 0.930 . S
C990 H984 0.930 . S
C990 C991 1.355 . S
C990 C992 1.415 . S
C991 C990 1.355 . S
C991 C993 1.419 . S
C992 C990 1.415 . S
C992 C997 1.425 . S
C992 C999 1.409 . S
C993 H985 0.930 . S
C993 C991 1.419 . S
C993 C994 1.362 . S
C994 H986 0.930 . S
C994 C993 1.362 . S
C994 C997 1.409 . S
C995 H987 0.930 . S
C995 C996 1.355 . S
C995 C997 1.415 . S
C996 C995 1.355 . S
C996 C998 1.419 . S
C997 C992 1.425 . S
C997 C994 1.409 . S
C997 C995 1.415 . S
C998 H988 0.930 . S
C998 C996 1.419 . S
C998 C999 1.362 . S
C999 H989 0.930 . S
C999 C992 1.409 . S
C999 C998 1.362 . S
H1000 C1006 0.930 . S
H1001 C1009 0.930 . S
H1002 C1010 0.930 . S
H1003 C1011 0.930 . S
H1004 C1014 0.930 . S
H1005 C1015 0.930 . S
C1006 H1000 0.930 . S
C1006 C1007 1.355 . S
C1006 C1008 1.415 . S
C1007 C1006 1.355 . S
C1007 C1009 1.419 . S
C1008 C1006 1.415 . S
C1008 C1013 1.425 . S
C1008 C1015 1.409 . S
C1009 H1001 0.930 . S
C1009 C1007 1.419 . S
C1009 C1010 1.362 . S
C1010 H1002 0.930 . S
C1010 C1009 1.362 . S
C1010 C1013 1.409 . S
C1011 H1003 0.930 . S
C1011 C1012 1.355 . S
C1011 C1013 1.415 . S
C1012 C1011 1.355 . S
C1012 C1014 1.419 . S
C1013 C1008 1.425 . S
C1013 C1010 1.409 . S
C1013 C1011 1.415 . S
C1014 H1004 0.930 . S
C1014 C1012 1.419 . S
C1014 C1015 1.362 . S
C1015 H1005 0.930 . S
C1015 C1008 1.409 . S
C1015 C1014 1.362 . S
H1016 C1022 0.930 . S
H1017 C1025 0.930 . S
H1018 C1026 0.930 . S
H1019 C1027 0.930 . S
H1020 C1030 0.930 . S
H1021 C1031 0.930 . S
C1022 H1016 0.930 . S
C1022 C1023 1.355 . S
C1022 C1024 1.415 . S
C1023 C1022 1.355 . S
C1023 C1025 1.419 . S
C1024 C1022 1.415 . S
C1024 C1029 1.425 . S
C1024 C1031 1.409 . S
C1025 H1017 0.930 . S
C1025 C1023 1.419 . S
C1025 C1026 1.362 . S
C1026 H1018 0.930 . S
C1026 C1025 1.362 . S
C1026 C1029 1.409 . S
C1027 H1019 0.930 . S
C1027 C1028 1.355 . S
C1027 C1029 1.415 . S
C1028 C1027 1.355 . S
C1028 C1030 1.419 . S
C1029 C1024 1.425 . S
C1029 C1026 1.409 . S
C1029 C1027 1.415 . S
C1030 H1020 0.930 . S
C1030 C1028 1.419 . S
C1030 C1031 1.362 . S
C1031 H1021 0.930 . S
C1031 C1024 1.409 . S
C1031 C1030 1.362 . S
H1032 C1038 0.930 . S
H1033 C1041 0.930 . S
H1034 C1042 0.930 . S
H1035 C1043 0.930 . S
H1036 C1046 0.930 . S
H1037 C1047 0.930 . S
C1038 H1032 0.930 . S
C1038 C1039 1.355 . S
C1038 C1040 1.415 . S
C1039 C1038 1.355 . S
C1039 C1041 1.419 . S
C1040 C1038 1.415 . S
C1040 C1045 1.425 . S
C1040 C1047 1.409 . S
C1041 H1033 0.930 . S
C1041 C1039 1.419 . S
C1041 C1042 1.362 . S
C1042 H1034 0.930 . S
C1042 C1041 1.362 . S
C1042 C1045 1.409 . S
C1043 H1035 0.930 . S
C1043 C1044 1.355 . S
C1043 C1045 1.415 . S
C1044 C1043 1.355 . S
C1044 C1046 1.419 . S
C1045 C1040 1.425 . S
C1045 C1042 1.409 . S
C1045 C1043 1.415 . S
C1046 H1036 0.930 . S
C1046 C1044 1.419 . S
C1046 C1047 1.362 . S
C1047 H1037 0.930 . S
C1047 C1040 1.409 . S
C1047 C1046 1.362 . S
H1048 C1054 0.930 . S
H1049 C1057 0.930 . S
H1050 C1058 0.930 . S
H1051 C1059 0.930 . S
H1052 C1062 0.930 . S
H1053 C1063 0.930 . S
C1054 H1048 0.930 . S
C1054 C1055 1.355 . S
C1054 C1056 1.415 . S
C1055 C1054 1.355 . S
C1055 C1057 1.419 . S
C1056 C1054 1.415 . S
C1056 C1061 1.425 . S
C1056 C1063 1.409 . S
C1057 H1049 0.930 . S
C1057 C1055 1.419 . S
C1057 C1058 1.362 . S
C1058 H1050 0.930 . S
C1058 C1057 1.362 . S
C1058 C1061 1.409 . S
C1059 H1051 0.930 . S
C1059 C1060 1.355 . S
C1059 C1061 1.415 . S
C1060 C1059 1.355 . S
C1060 C1062 1.419 . S
C1061 C1056 1.425 . S
C1061 C1058 1.409 . S
C1061 C1059 1.415 . S
C1062 H1052 0.930 . S
C1062 C1060 1.419 . S
C1062 C1063 1.362 . S
C1063 H1053 0.930 . S
C1063 C1056 1.409 . S
C1063 C1062 1.362 . S
H1064 C1070 0.930 . S
H1065 C1073 0.930 . S
H1066 C1074 0.930 . S
H1067 C1075 0.930 . S
H1068 C1078 0.930 . S
H1069 C1079 0.930 . S
C1070 H1064 0.930 . S
C1070 C1071 1.355 . S
C1070 C1072 1.415 . S
C1071 C1070 1.355 . S
C1071 C1073 1.419 . S
C1072 C1070 1.415 . S
C1072 C1077 1.425 . S
C1072 C1079 1.409 . S
C1073 H1065 0.930 . S
C1073 C1071 1.419 . S
C1073 C1074 1.362 . S
C1074 H1066 0.930 . S
C1074 C1073 1.362 . S
C1074 C1077 1.409 . S
C1075 H1067 0.930 . S
C1075 C1076 1.355 . S
C1075 C1077 1.415 . S
C1076 C1075 1.355 . S
C1076 C1078 1.419 . S
C1077 C1072 1.425 . S
C1077 C1074 1.409 . S
C1077 C1075 1.415 . S
C1078 H1068 0.930 . S
C1078 C1076 1.419 . S
C1078 C1079 1.362 . S
C1079 H1069 0.930 . S
C1079 C1072 1.409 . S
C1079 C1078 1.362 . S
H1080 C1086 0.930 . S
H1081 C1089 0.930 . S
H1082 C1090 0.930 . S
H1083 C1091 0.930 . S
H1084 C1094 0.930 . S
H1085 C1095 0.930 . S
C1086 H1080 0.930 . S
C1086 C1087 1.355 . S
C1086 C1088 1.415 . S
C1087 C1086 1.355 . S
C1087 C1089 1.419 . S
C1088 C1086 1.415 . S
C1088 C1093 1.425 . S
C1088 C1095 1.409 . S
C1089 H1081 0.930 . S
C1089 C1087 1.419 . S
C1089 C1090 1.362 . S
C1090 H1082 0.930 . S
C1090 C1089 1.362 . S
C1090 C1093 1.409 . S
C1091 H1083 0.930 . S
C1091 C1092 1.355 . S
C1091 C1093 1.415 . S
C1092 C1091 1.355 . S
C1092 C1094 1.419 . S
C1093 C1088 1.425 . S
C1093 C1090 1.409 . S
C1093 C1091 1.415 . S
C1094 H1084 0.930 . S
C1094 C1092 1.419 . S
C1094 C1095 1.362 . S
C1095 H1085 0.930 . S
C1095 C1088 1.409 . S
C1095 C1094 1.362 . S
H1096 C1102 0.930 . S
H1097 C1105 0.930 . S
H1098 C1106 0.930 . S
H1099 C1107 0.930 . S
H1100 C1110 0.930 . S
H1101 C1111 0.930 . S
C1102 H1096 0.930 . S
C1102 C1103 1.355 . S
C1102 C1104 1.415 . S
C1103 C1102 1.355 . S
C1103 C1105 1.419 . S
C1104 C1102 1.415 . S
C1104 C1109 1.425 . S
C1104 C1111 1.409 . S
C1105 H1097 0.930 . S
C1105 C1103 1.419 . S
C1105 C1106 1.362 . S
C1106 H1098 0.930 . S
C1106 C1105 1.362 . S
C1106 C1109 1.409 . S
C1107 H1099 0.930 . S
C1107 C1108 1.355 . S
C1107 C1109 1.415 . S
C1108 C1107 1.355 . S
C1108 C1110 1.419 . S
C1109 C1104 1.425 . S
C1109 C1106 1.409 . S
C1109 C1107 1.415 . S
C1110 H1100 0.930 . S
C1110 C1108 1.419 . S
C1110 C1111 1.362 . S
C1111 H1101 0.930 . S
C1111 C1104 1.409 . S
C1111 C1110 1.362 . S
H1112 C1118 0.930 . S
H1113 C1121 0.930 . S
H1114 C1122 0.930 . S
H1115 C1123 0.930 . S
H1116 C1126 0.930 . S
H1117 C1127 0.930 . S
C1118 H1112 0.930 . S
C1118 C1119 1.355 . S
C1118 C1120 1.415 . S
C1119 C1118 1.355 . S
C1119 C1121 1.419 . S
C1120 C1118 1.415 . S
C1120 C1125 1.425 . S
C1120 C1127 1.409 . S
C1121 H1113 0.930 . S
C1121 C1119 1.419 . S
C1121 C1122 1.362 . S
C1122 H1114 0.930 . S
C1122 C1121 1.362 . S
C1122 C1125 1.409 . S
C1123 H1115 0.930 . S
C1123 C1124 1.355 . S
C1123 C1125 1.415 . S
C1124 C1123 1.355 . S
C1124 C1126 1.419 . S
C1125 C1120 1.425 . S
C1125 C1122 1.409 . S
C1125 C1123 1.415 . S
C1126 H1116 0.930 . S
C1126 C1124 1.419 . S
C1126 C1127 1.362 . S
C1127 H1117 0.930 . S
C1127 C1120 1.409 . S
C1127 C1126 1.362 . S
H1128 C1134 0.930 . S
H1129 C1137 0.930 . S
H1130 C1138 0.930 . S
H1131 C1139 0.930 . S
H1132 C1142 0.930 . S
H1133 C1143 0.930 . S
C1134 H1128 0.930 . S
C1134 C1135 1.355 . S
C1134 C1136 1.415 . S
C1135 C1134 1.355 . S
C1135 C1137 1.419 . S
C1136 C1134 1.415 . S
C1136 C1141 1.425 . S
C1136 C1143 1.409 . S
C1137 H1129 0.930 . S
C1137 C1135 1.419 . S
C1137 C1138 1.362 . S
C1138 H1130 0.930 . S
C1138 C1137 1.362 . S
C1138 C1141 1.409 . S
C1139 H1131 0.930 . S
C1139 C1140 1.355 . S
C1139 C1141 1.415 . S
C1140 C1139 1.355 . S
C1140 C1142 1.419 . S
C1141 C1136 1.425 . S
C1141 C1138 1.409 . S
C1141 C1139 1.415 . S
C1142 H1132 0.930 . S
C1142 C1140 1.419 . S
C1142 C1143 1.362 . S
C1143 H1133 0.930 . S
C1143 C1136 1.409 . S
C1143 C1142 1.362 . S
H1144 C1150 0.930 . S
H1145 C1153 0.930 . S
H1146 C1154 0.930 . S
H1147 C1155 0.930 . S
H1148 C1158 0.930 . S
H1149 C1159 0.930 . S
C1150 H1144 0.930 . S
C1150 C1151 1.355 . S
C1150 C1152 1.415 . S
C1151 C1150 1.355 . S
C1151 C1153 1.419 . S
C1152 C1150 1.415 . S
C1152 C1157 1.425 . S
C1152 C1159 1.409 . S
C1153 H1145 0.930 . S
C1153 C1151 1.419 . S
C1153 C1154 1.362 . S
C1154 H1146 0.930 . S
C1154 C1153 1.362 . S
C1154 C1157 1.409 . S
C1155 H1147 0.930 . S
C1155 C1156 1.355 . S
C1155 C1157 1.415 . S
C1156 C1155 1.355 . S
C1156 C1158 1.419 . S
C1157 C1152 1.425 . S
C1157 C1154 1.409 . S
C1157 C1155 1.415 . S
C1158 H1148 0.930 . S
C1158 C1156 1.419 . S
C1158 C1159 1.362 . S
C1159 H1149 0.930 . S
C1159 C1152 1.409 . S
C1159 C1158 1.362 . S
H1160 C1166 0.930 . S
H1161 C1169 0.930 . S
H1162 C1170 0.930 . S
H1163 C1171 0.930 . S
H1164 C1174 0.930 . S
H1165 C1175 0.930 . S
C1166 H1160 0.930 . S
C1166 C1167 1.355 . S
C1166 C1168 1.415 . S
C1167 C1166 1.355 . S
C1167 C1169 1.419 . S
C1168 C1166 1.415 . S
C1168 C1173 1.425 . S
C1168 C1175 1.409 . S
C1169 H1161 0.930 . S
C1169 C1167 1.419 . S
C1169 C1170 1.362 . S
C1170 H1162 0.930 . S
C1170 C1169 1.362 . S
C1170 C1173 1.409 . S
C1171 H1163 0.930 . S
C1171 C1172 1.355 . S
C1171 C1173 1.415 . S
C1172 C1171 1.355 . S
C1172 C1174 1.419 . S
C1173 C1168 1.425 . S
C1173 C1170 1.409 . S
C1173 C1171 1.415 . S
C1174 H1164 0.930 . S
C1174 C1172 1.419 . S
C1174 C1175 1.362 . S
C1175 H1165 0.930 . S
C1175 C1168 1.409 . S
C1175 C1174 1.362 . S
H1176 C1182 0.930 . S
H1177 C1185 0.930 . S
H1178 C1186 0.930 . S
H1179 C1187 0.930 . S
H1180 C1190 0.930 . S
H1181 C1191 0.930 . S
C1182 H1176 0.930 . S
C1182 C1183 1.355 . S
C1182 C1184 1.415 . S
C1183 C1182 1.355 . S
C1183 C1185 1.419 . S
C1184 C1182 1.415 . S
C1184 C1189 1.425 . S
C1184 C1191 1.409 . S
C1185 H1177 0.930 . S
C1185 C1183 1.419 . S
C1185 C1186 1.362 . S
C1186 H1178 0.930 . S
C1186 C1185 1.362 . S
C1186 C1189 1.409 . S
C1187 H1179 0.930 . S
C1187 C1188 1.355 . S
C1187 C1189 1.415 . S
C1188 C1187 1.355 . S
C1188 C1190 1.419 . S
C1189 C1184 1.425 . S
C1189 C1186 1.409 . S
C1189 C1187 1.415 . S
C1190 H1180 0.930 . S
C1190 C1188 1.419 . S
C1190 C1191 1.362 . S
C1191 H1181 0.930 . S
C1191 C1184 1.409 . S
C1191 C1190 1.362 . S
H1192 C1198 0.930 . S
H1193 C1201 0.930 . S
H1194 C1202 0.930 . S
H1195 C1203 0.930 . S
H1196 C1206 0.930 . S
H1197 C1207 0.930 . S
C1198 H1192 0.930 . S
C1198 C1199 1.355 . S
C1198 C1200 1.415 . S
C1199 C1198 1.355 . S
C1199 C1201 1.419 . S
C1200 C1198 1.415 . S
C1200 C1205 1.425 . S
C1200 C1207 1.409 . S
C1201 H1193 0.930 . S
C1201 C1199 1.419 . S
C1201 C1202 1.362 . S
C1202 H1194 0.930 . S
C1202 C1201 1.362 . S
C1202 C1205 1.409 . S
C1203 H1195 0.930 . S
C1203 C1204 1.355 . S
C1203 C1205 1.415 . S
C1204 C1203 1.355 . S
C1204 C1206 1.419 . S
C1205 C1200 1.425 . S
C1205 C1202 1.409 . S
C1205 C1203 1.415 . S
C1206 H1196 0.930 . S
C1206 C1204 1.419 . S
C1206 C1207 1.362 . S
C1207 H1197 0.930 . S
C1207 C1200 1.409 . S
C1207 C1206 1.362 . S
H1208 C1214 0.930 . S
H1209 C1217 0.930 . S
H1210 C1218 0.930 . S
H1211 C1219 0.930 . S
H1212 C1222 0.930 . S
H1213 C1223 0.930 . S
C1214 H1208 0.930 . S
C1214 C1215 1.355 . S
C1214 C1216 1.415 . S
C1215 C1214 1.355 . S
C1215 C1217 1.419 . S
C1216 C1214 1.415 . S
C1216 C1221 1.425 . S
C1216 C1223 1.409 . S
C1217 H1209 0.930 . S
C1217 C1215 1.419 . S
C1217 C1218 1.362 . S
C1218 H1210 0.930 . S
C1218 C1217 1.362 . S
C1218 C1221 1.409 . S
C1219 H1211 0.930 . S
C1219 C1220 1.355 . S
C1219 C1221 1.415 . S
C1220 C1219 1.355 . S
C1220 C1222 1.419 . S
C1221 C1216 1.425 . S
C1221 C1218 1.409 . S
C1221 C1219 1.415 . S
C1222 H1212 0.930 . S
C1222 C1220 1.419 . S
C1222 C1223 1.362 . S
C1223 H1213 0.930 . S
C1223 C1216 1.409 . S
C1223 C1222 1.362 . S
H1224 C1230 0.930 . S
H1225 C1233 0.930 . S
H1226 C1234 0.930 . S
H1227 C1235 0.930 . S
H1228 C1238 0.930 . S
H1229 C1239 0.930 . S
C1230 H1224 0.930 . S
C1230 C1231 1.355 . S
C1230 C1232 1.415 . S
C1231 C1230 1.355 . S
C1231 C1233 1.419 . S
C1232 C1230 1.415 . S
C1232 C1237 1.425 . S
C1232 C1239 1.409 . S
C1233 H1225 0.930 . S
C1233 C1231 1.419 . S
C1233 C1234 1.362 . S
C1234 H1226 0.930 . S
C1234 C1233 1.362 . S
C1234 C1237 1.409 . S
C1235 H1227 0.930 . S
C1235 C1236 1.355 . S
C1235 C1237 1.415 . S
C1236 C1235 1.355 . S
C1236 C1238 1.419 . S
C1237 C1232 1.425 . S
C1237 C1234 1.409 . S
C1237 C1235 1.415 . S
C1238 H1228 0.930 . S
C1238 C1236 1.419 . S
C1238 C1239 1.362 . S
C1239 H1229 0.930 . S
C1239 C1232 1.409 . S
C1239 C1238 1.362 . S
H1240 C1246 0.930 . S
H1241 C1249 0.930 . S
H1242 C1250 0.930 . S
H1243 C1251 0.930 . S
H1244 C1254 0.930 . S
H1245 C1255 0.930 . S
C1246 H1240 0.930 . S
C1246 C1247 1.355 . S
C1246 C1248 1.415 . S
C1247 C1246 1.355 . S
C1247 C1249 1.419 . S
C1248 C1246 1.415 . S
C1248 C1253 1.425 . S
C1248 C1255 1.409 . S
C1249 H1241 0.930 . S
C1249 C1247 1.419 . S
C1249 C1250 1.362 . S
C1250 H1242 0.930 . S
C1250 C1249 1.362 . S
C1250 C1253 1.409 . S
C1251 H1243 0.930 . S
C1251 C1252 1.355 . S
C1251 C1253 1.415 . S
C1252 C1251 1.355 . S
C1252 C1254 1.419 . S
C1253 C1248 1.425 . S
C1253 C1250 1.409 . S
C1253 C1251 1.415 . S
C1254 H1244 0.930 . S
C1254 C1252 1.419 . S
C1254 C1255 1.362 . S
C1255 H1245 0.930 . S
C1255 C1248 1.409 . S
C1255 C1254 1.362 . S
H1256 C1262 0.930 . S
H1257 C1265 0.930 . S
H1258 C1266 0.930 . S
H1259 C1267 0.930 . S
H1260 C1270 0.930 . S
H1261 C1271 0.930 . S
C1262 H1256 0.930 . S
C1262 C1263 1.355 . S
C1262 C1264 1.415 . S
C1263 C1262 1.355 . S
C1263 C1265 1.419 . S
C1264 C1262 1.415 . S
C1264 C1269 1.425 . S
C1264 C1271 1.409 . S
C1265 H1257 0.930 . S
C1265 C1263 1.419 . S
C1265 C1266 1.362 . S
C1266 H1258 0.930 . S
C1266 C1265 1.362 . S
C1266 C1269 1.409 . S
C1267 H1259 0.930 . S
C1267 C1268 1.355 . S
C1267 C1269 1.415 . S
C1268 C1267 1.355 . S
C1268 C1270 1.419 . S
C1269 C1264 1.425 . S
C1269 C1266 1.409 . S
C1269 C1267 1.415 . S
C1270 H1260 0.930 . S
C1270 C1268 1.419 . S
C1270 C1271 1.362 . S
C1271 H1261 0.930 . S
C1271 C1264 1.409 . S
C1271 C1270 1.362 . S
H1272 C1278 0.930 . S
H1273 C1281 0.930 . S
H1274 C1282 0.930 . S
H1275 C1283 0.930 . S
H1276 C1286 0.930 . S
H1277 C1287 0.930 . S
C1278 H1272 0.930 . S
C1278 C1279 1.355 . S
C1278 C1280 1.415 . S
C1279 C1278 1.355 . S
C1279 C1281 1.419 . S
C1280 C1278 1.415 . S
C1280 C1285 1.425 . S
C1280 C1287 1.409 . S
C1281 H1273 0.930 . S
C1281 C1279 1.419 . S
C1281 C1282 1.362 . S
C1282 H1274 0.930 . S
C1282 C1281 1.362 . S
C1282 C1285 1.409 . S
C1283 H1275 0.930 . S
C1283 C1284 1.355 . S
C1283 C1285 1.415 . S
C1284 C1283 1.355 . S
C1284 C1286 1.419 . S
C1285 C1280 1.425 . S
C1285 C1282 1.409 . S
C1285 C1283 1.415 . S
C1286 H1276 0.930 . S
C1286 C1284 1.419 . S
C1286 C1287 1.362 . S
C1287 H1277 0.930 . S
C1287 C1280 1.409 . S
C1287 C1286 1.362 . S
H1288 C1294 0.930 . S
H1289 C1297 0.930 . S
H1290 C1298 0.930 . S
H1291 C1299 0.930 . S
H1292 C1302 0.930 . S
H1293 C1303 0.930 . S
C1294 H1288 0.930 . S
C1294 C1295 1.355 . S
C1294 C1296 1.415 . S
C1295 C1294 1.355 . S
C1295 C1297 1.419 . S
C1296 C1294 1.415 . S
C1296 C1301 1.425 . S
C1296 C1303 1.409 . S
C1297 H1289 0.930 . S
C1297 C1295 1.419 . S
C1297 C1298 1.362 . S
C1298 H1290 0.930 . S
C1298 C1297 1.362 . S
C1298 C1301 1.409 . S
C1299 H1291 0.930 . S
C1299 C1300 1.355 . S
C1299 C1301 1.415 . S
C1300 C1299 1.355 . S
C1300 C1302 1.419 . S
C1301 C1296 1.425 . S
C1301 C1298 1.409 . S
C1301 C1299 1.415 . S
C1302 H1292 0.930 . S
C1302 C1300 1.419 . S
C1302 C1303 1.362 . S
C1303 H1293 0.930 . S
C1303 C1296 1.409 . S
C1303 C1302 1.362 . S
H1304 C1310 0.930 . S
H1305 C1313 0.930 . S
H1306 C1314 0.930 . S
H1307 C1315 0.930 . S
H1308 C1318 0.930 . S
H1309 C1319 0.930 . S
C1310 H1304 0.930 . S
C1310 C1311 1.355 . S
C1310 C1312 1.415 . S
C1311 C1310 1.355 . S
C1311 C1313 1.419 . S
C1312 C1310 1.415 . S
C1312 C1317 1.425 . S
C1312 C1319 1.409 . S
C1313 H1305 0.930 . S
C1313 C1311 1.419 . S
C1313 C1314 1.362 . S
C1314 H1306 0.930 . S
C1314 C1313 1.362 . S
C1314 C1317 1.409 . S
C1315 H1307 0.930 . S
C1315 C1316 1.355 . S
C1315 C1317 1.415 . S
C1316 C1315 1.355 . S
C1316 C1318 1.419 . S
C1317 C1312 1.425 . S
C1317 C1314 1.409 . S
C1317 C1315 1.415 . S
C1318 H1308 0.930 . S
C1318 C1316 1.419 . S
C1318 C1319 1.362 . S
C1319 H1309 0.930 . S
C1319 C1312 1.409 . S
C1319 C1318 1.362 . S
H1320 C1326 0.930 . S
H1321 C1329 0.930 . S
H1322 C1330 0.930 . S
H1323 C1331 0.930 . S
H1324 C1334 0.930 . S
H1325 C1335 0.930 . S
C1326 H1320 0.930 . S
C1326 C1327 1.355 . S
C1326 C1328 1.415 . S
C1327 C1326 1.355 . S
C1327 C1329 1.419 . S
C1328 C1326 1.415 . S
C1328 C1333 1.425 . S
C1328 C1335 1.409 . S
C1329 H1321 0.930 . S
C1329 C1327 1.419 . S
C1329 C1330 1.362 . S
C1330 H1322 0.930 . S
C1330 C1329 1.362 . S
C1330 C1333 1.409 . S
C1331 H1323 0.930 . S
C1331 C1332 1.355 . S
C1331 C1333 1.415 . S
C1332 C1331 1.355 . S
C1332 C1334 1.419 . S
C1333 C1328 1.425 . S
C1333 C1330 1.409 . S
C1333 C1331 1.415 . S
C1334 H1324 0.930 . S
C1334 C1332 1.419 . S
C1334 C1335 1.362 . S
C1335 H1325 0.930 . S
C1335 C1328 1.409 . S
C1335 C1334 1.362 . S
H1336 C1342 0.930 . S
H1337 C1345 0.930 . S
H1338 C1346 0.930 . S
H1339 C1347 0.930 . S
H1340 C1350 0.930 . S
H1341 C1351 0.930 . S
C1342 H1336 0.930 . S
C1342 C1343 1.355 . S
C1342 C1344 1.415 . S
C1343 C1342 1.355 . S
C1343 C1345 1.419 . S
C1344 C1342 1.415 . S
C1344 C1349 1.425 . S
C1344 C1351 1.409 . S
C1345 H1337 0.930 . S
C1345 C1343 1.419 . S
C1345 C1346 1.362 . S
C1346 H1338 0.930 . S
C1346 C1345 1.362 . S
C1346 C1349 1.409 . S
C1347 H1339 0.930 . S
C1347 C1348 1.355 . S
C1347 C1349 1.415 . S
C1348 C1347 1.355 . S
C1348 C1350 1.419 . S
C1349 C1344 1.425 . S
C1349 C1346 1.409 . S
C1349 C1347 1.415 . S
C1350 H1340 0.930 . S
C1350 C1348 1.419 . S
C1350 C1351 1.362 . S
C1351 H1341 0.930 . S
C1351 C1344 1.409 . S
C1351 C1350 1.362 . S
H1352 C1358 0.930 . S
H1353 C1361 0.930 . S
H1354 C1362 0.930 . S
H1355 C1363 0.930 . S
H1356 C1366 0.930 . S
H1357 C1367 0.930 . S
C1358 H1352 0.930 . S
C1358 C1359 1.355 . S
C1358 C1360 1.415 . S
C1359 C1358 1.355 . S
C1359 C1361 1.419 . S
C1360 C1358 1.415 . S
C1360 C1365 1.425 . S
C1360 C1367 1.409 . S
C1361 H1353 0.930 . S
C1361 C1359 1.419 . S
C1361 C1362 1.362 . S
C1362 H1354 0.930 . S
C1362 C1361 1.362 . S
C1362 C1365 1.409 . S
C1363 H1355 0.930 . S
C1363 C1364 1.355 . S
C1363 C1365 1.415 . S
C1364 C1363 1.355 . S
C1364 C1366 1.419 . S
C1365 C1360 1.425 . S
C1365 C1362 1.409 . S
C1365 C1363 1.415 . S
C1366 H1356 0.930 . S
C1366 C1364 1.419 . S
C1366 C1367 1.362 . S
C1367 H1357 0.930 . S
C1367 C1360 1.409 . S
C1367 C1366 1.362 . S
H1368 C1374 0.930 . S
H1369 C1377 0.930 . S
H1370 C1378 0.930 . S
H1371 C1379 0.930 . S
H1372 C1382 0.930 . S
H1373 C1383 0.930 . S
C1374 H1368 0.930 . S
C1374 C1375 1.355 . S
C1374 C1376 1.415 . S
C1375 C1374 1.355 . S
C1375 C1377 1.419 . S
C1376 C1374 1.415 . S
C1376 C1381 1.425 . S
C1376 C1383 1.409 . S
C1377 H1369 0.930 . S
C1377 C1375 1.419 . S
C1377 C1378 1.362 . S
C1378 H1370 0.930 . S
C1378 C1377 1.362 . S
C1378 C1381 1.409 . S
C1379 H1371 0.930 . S
C1379 C1380 1.355 . S
C1379 C1381 1.415 . S
C1380 C1379 1.355 . S
C1380 C1382 1.419 . S
C1381 C1376 1.425 . S
C1381 C1378 1.409 . S
C1381 C1379 1.415 . S
C1382 H1372 0.930 . S
C1382 C1380 1.419 . S
C1382 C1383 1.362 . S
C1383 H1373 0.930 . S
C1383 C1376 1.409 . S
C1383 C1382 1.362 . S
H1384 C1390 0.930 . S
H1385 C1393 0.930 . S
H1386 C1394 0.930 . S
H1387 C1395 0.930 . S
H1388 C1398 0.930 . S
H1389 C1399 0.930 . S
C1390 H1384 0.930 . S
C1390 C1391 1.355 . S
C1390 C1392 1.415 . S
C1391 C1390 1.355 . S
C1391 C1393 1.419 . S
C1392 C1390 1.415 . S
C1392 C1397 1.425 . S
C1392 C1399 1.409 . S
C1393 H1385 0.930 . S
C1393 C1391 1.419 . S
C1393 C1394 1.362 . S
C1394 H1386 0.930 . S
C1394 C1393 1.362 . S
C1394 C1397 1.409 . S
C1395 H1387 0.930 . S
C1395 C1396 1.355 . S
C1395 C1397 1.415 . S
C1396 C1395 1.355 . S
C1396 C1398 1.419 . S
C1397 C1392 1.425 . S
C1397 C1394 1.409 . S
C1397 C1395 1.415 . S
C1398 H1388 0.930 . S
C1398 C1396 1.419 . S
C1398 C1399 1.362 . S
C1399 H1389 0.930 . S
C1399 C1392 1.409 . S
C1399 C1398 1.362 . S
H1400 C1406 0.930 . S
H1401 C1409 0.930 . S
H1402 C1410 0.930 . S
H1403 C1411 0.930 . S
H1404 C1414 0.930 1_565 S
H1405 C1415 0.930 1_565 S
C1406 H1400 0.930 . S
C1406 C1407 1.355 . S
C1406 C1408 1.415 . S
C1407 C1406 1.355 . S
C1407 C1409 1.419 . S
C1408 C1406 1.415 . S
C1408 C1413 1.425 . S
C1408 C1415 1.409 . S
C1409 H1401 0.930 . S
C1409 C1407 1.419 . S
C1409 C1410 1.362 . S
C1410 H1402 0.930 . S
C1410 C1409 1.362 . S
C1410 C1413 1.409 . S
C1411 H1403 0.930 . S
C1411 C1412 1.355 . S
C1411 C1413 1.415 . S
C1412 C1411 1.355 . S
C1412 C1414 1.419 . S
C1413 C1408 1.425 . S
C1413 C1410 1.409 . S
C1413 C1411 1.415 . S
C1414 H1404 0.930 1_545 S
C1414 C1412 1.419 . S
C1414 C1415 1.362 . S
C1415 H1405 0.930 1_545 S
C1415 C1408 1.409 . S
C1415 C1414 1.362 . S
H1416 C1422 0.930 . S
H1417 C1425 0.930 . S
H1418 C1426 0.930 . S
H1419 C1427 0.930 . S
H1420 C1430 0.930 . S
H1421 C1431 0.930 . S
C1422 H1416 0.930 . S
C1422 C1423 1.355 . S
C1422 C1424 1.415 . S
C1423 C1422 1.355 . S
C1423 C1425 1.419 . S
C1424 C1422 1.415 . S
C1424 C1429 1.425 . S
C1424 C1431 1.409 . S
C1425 H1417 0.930 . S
C1425 C1423 1.419 . S
C1425 C1426 1.362 . S
C1426 H1418 0.930 . S
C1426 C1425 1.362 . S
C1426 C1429 1.409 . S
C1427 H1419 0.930 . S
C1427 C1428 1.355 . S
C1427 C1429 1.415 . S
C1428 C1427 1.355 . S
C1428 C1430 1.419 . S
C1429 C1424 1.425 . S
C1429 C1426 1.409 . S
C1429 C1427 1.415 . S
C1430 H1420 0.930 . S
C1430 C1428 1.419 . S
C1430 C1431 1.362 . S
C1431 H1421 0.930 . S
C1431 C1424 1.409 . S
C1431 C1430 1.362 . S
H1432 C1438 0.930 . S
H1433 C1441 0.930 . S
H1434 C1442 0.930 . S
H1435 C1443 0.930 . S
H1436 C1446 0.930 . S
H1437 C1447 0.930 . S
C1438 H1432 0.930 . S
C1438 C1439 1.355 . S
C1438 C1440 1.415 . S
C1439 C1438 1.355 . S
C1439 C1441 1.419 . S
C1440 C1438 1.415 . S
C1440 C1445 1.425 . S
C1440 C1447 1.409 . S
C1441 H1433 0.930 . S
C1441 C1439 1.419 . S
C1441 C1442 1.362 . S
C1442 H1434 0.930 . S
C1442 C1441 1.362 . S
C1442 C1445 1.409 . S
C1443 H1435 0.930 . S
C1443 C1444 1.355 . S
C1443 C1445 1.415 . S
C1444 C1443 1.355 . S
C1444 C1446 1.419 . S
C1445 C1440 1.425 . S
C1445 C1442 1.409 . S
C1445 C1443 1.415 . S
C1446 H1436 0.930 . S
C1446 C1444 1.419 . S
C1446 C1447 1.362 . S
C1447 H1437 0.930 . S
C1447 C1440 1.409 . S
C1447 C1446 1.362 . S
H1448 C1454 0.930 . S
H1449 C1457 0.930 . S
H1450 C1458 0.930 . S
H1451 C1459 0.930 . S
H1452 C1462 0.930 . S
H1453 C1463 0.930 . S
C1454 H1448 0.930 . S
C1454 C1455 1.355 . S
C1454 C1456 1.415 . S
C1455 C1454 1.355 . S
C1455 C1457 1.419 . S
C1456 C1454 1.415 . S
C1456 C1461 1.425 . S
C1456 C1463 1.409 . S
C1457 H1449 0.930 . S
C1457 C1455 1.419 . S
C1457 C1458 1.362 . S
C1458 H1450 0.930 . S
C1458 C1457 1.362 . S
C1458 C1461 1.409 . S
C1459 H1451 0.930 . S
C1459 C1460 1.355 . S
C1459 C1461 1.415 . S
C1460 C1459 1.355 . S
C1460 C1462 1.419 . S
C1461 C1456 1.425 . S
C1461 C1458 1.409 . S
C1461 C1459 1.415 . S
C1462 H1452 0.930 . S
C1462 C1460 1.419 . S
C1462 C1463 1.362 . S
C1463 H1453 0.930 . S
C1463 C1456 1.409 . S
C1463 C1462 1.362 . S
H1464 C1470 0.930 . S
H1465 C1473 0.930 . S
H1466 C1474 0.930 . S
H1467 C1475 0.930 . S
H1468 C1478 0.930 . S
H1469 C1479 0.930 . S
C1470 H1464 0.930 . S
C1470 C1471 1.355 . S
C1470 C1472 1.415 . S
C1471 C1470 1.355 . S
C1471 C1473 1.419 . S
C1472 C1470 1.415 . S
C1472 C1477 1.425 . S
C1472 C1479 1.409 . S
C1473 H1465 0.930 . S
C1473 C1471 1.419 . S
C1473 C1474 1.362 . S
C1474 H1466 0.930 . S
C1474 C1473 1.362 . S
C1474 C1477 1.409 . S
C1475 H1467 0.930 . S
C1475 C1476 1.355 . S
C1475 C1477 1.415 . S
C1476 C1475 1.355 . S
C1476 C1478 1.419 . S
C1477 C1472 1.425 . S
C1477 C1474 1.409 . S
C1477 C1475 1.415 . S
C1478 H1468 0.930 . S
C1478 C1476 1.419 . S
C1478 C1479 1.362 . S
C1479 H1469 0.930 . S
C1479 C1472 1.409 . S
C1479 C1478 1.362 . S
H1480 C1486 0.930 . S
H1481 C1489 0.930 . S
H1482 C1490 0.930 . S
H1483 C1491 0.930 . S
H1484 C1494 0.930 . S
H1485 C1495 0.930 . S
C1486 H1480 0.930 . S
C1486 C1487 1.355 . S
C1486 C1488 1.415 . S
C1487 C1486 1.355 . S
C1487 C1489 1.419 . S
C1488 C1486 1.415 . S
C1488 C1493 1.425 . S
C1488 C1495 1.409 . S
C1489 H1481 0.930 . S
C1489 C1487 1.419 . S
C1489 C1490 1.362 . S
C1490 H1482 0.930 . S
C1490 C1489 1.362 . S
C1490 C1493 1.409 . S
C1491 H1483 0.930 . S
C1491 C1492 1.355 . S
C1491 C1493 1.415 . S
C1492 C1491 1.355 . S
C1492 C1494 1.419 . S
C1493 C1488 1.425 . S
C1493 C1490 1.409 . S
C1493 C1491 1.415 . S
C1494 H1484 0.930 . S
C1494 C1492 1.419 . S
C1494 C1495 1.362 . S
C1495 H1485 0.930 . S
C1495 C1488 1.409 . S
C1495 C1494 1.362 . S
H1496 C1502 0.930 . S
H1497 C1505 0.930 . S
H1498 C1506 0.930 . S
H1499 C1507 0.930 . S
H1500 C1510 0.930 . S
H1501 C1511 0.930 . S
C1502 H1496 0.930 . S
C1502 C1503 1.355 . S
C1502 C1504 1.415 . S
C1503 C1502 1.355 . S
C1503 C1505 1.419 . S
C1504 C1502 1.415 . S
C1504 C1509 1.425 . S
C1504 C1511 1.409 . S
C1505 H1497 0.930 . S
C1505 C1503 1.419 . S
C1505 C1506 1.362 . S
C1506 H1498 0.930 . S
C1506 C1505 1.362 . S
C1506 C1509 1.409 . S
C1507 H1499 0.930 . S
C1507 C1508 1.355 . S
C1507 C1509 1.415 . S
C1508 C1507 1.355 . S
C1508 C1510 1.419 . S
C1509 C1504 1.425 . S
C1509 C1506 1.409 . S
C1509 C1507 1.415 . S
C1510 H1500 0.930 . S
C1510 C1508 1.419 . S
C1510 C1511 1.362 . S
C1511 H1501 0.930 . S
C1511 C1504 1.409 . S
C1511 C1510 1.362 . S
H1512 C1518 0.930 . S
H1513 C1521 0.930 . S
H1514 C1522 0.930 . S
H1515 C1523 0.930 . S
H1516 C1526 0.930 . S
H1517 C1527 0.930 . S
C1518 H1512 0.930 . S
C1518 C1519 1.355 . S
C1518 C1520 1.415 . S
C1519 C1518 1.355 . S
C1519 C1521 1.419 . S
C1520 C1518 1.415 . S
C1520 C1525 1.425 . S
C1520 C1527 1.409 . S
C1521 H1513 0.930 . S
C1521 C1519 1.419 . S
C1521 C1522 1.362 . S
C1522 H1514 0.930 . S
C1522 C1521 1.362 . S
C1522 C1525 1.409 . S
C1523 H1515 0.930 . S
C1523 C1524 1.355 . S
C1523 C1525 1.415 . S
C1524 C1523 1.355 . S
C1524 C1526 1.419 . S
C1525 C1520 1.425 . S
C1525 C1522 1.409 . S
C1525 C1523 1.415 . S
C1526 H1516 0.930 . S
C1526 C1524 1.419 . S
C1526 C1527 1.362 . S
C1527 H1517 0.930 . S
C1527 C1520 1.409 . S
C1527 C1526 1.362 . S
H1528 C1534 0.930 . S
H1529 C1537 0.930 . S
H1530 C1538 0.930 . S
H1531 C1539 0.930 . S
H1532 C1542 0.930 . S
H1533 C1543 0.930 . S
C1534 H1528 0.930 . S
C1534 C1535 1.355 . S
C1534 C1536 1.415 . S
C1535 C1534 1.355 . S
C1535 C1537 1.419 . S
C1536 C1534 1.415 . S
C1536 C1541 1.425 . S
C1536 C1543 1.409 . S
C1537 H1529 0.930 . S
C1537 C1535 1.419 . S
C1537 C1538 1.362 . S
C1538 H1530 0.930 . S
C1538 C1537 1.362 . S
C1538 C1541 1.409 . S
C1539 H1531 0.930 . S
C1539 C1540 1.355 . S
C1539 C1541 1.415 . S
C1540 C1539 1.355 . S
C1540 C1542 1.419 . S
C1541 C1536 1.425 . S
C1541 C1538 1.409 . S
C1541 C1539 1.415 . S
C1542 H1532 0.930 . S
C1542 C1540 1.419 . S
C1542 C1543 1.362 . S
C1543 H1533 0.930 . S
C1543 C1536 1.409 . S
C1543 C1542 1.362 . S
H1544 C1550 0.930 . S
H1545 C1553 0.930 . S
H1546 C1554 0.930 . S
H1547 C1555 0.930 . S
H1548 C1558 0.930 . S
H1549 C1559 0.930 . S
C1550 H1544 0.930 . S
C1550 C1551 1.355 . S
C1550 C1552 1.415 . S
C1551 C1550 1.355 . S
C1551 C1553 1.419 . S
C1552 C1550 1.415 . S
C1552 C1557 1.425 . S
C1552 C1559 1.409 . S
C1553 H1545 0.930 . S
C1553 C1551 1.419 . S
C1553 C1554 1.362 . S
C1554 H1546 0.930 . S
C1554 C1553 1.362 . S
C1554 C1557 1.409 . S
C1555 H1547 0.930 . S
C1555 C1556 1.355 . S
C1555 C1557 1.415 . S
C1556 C1555 1.355 . S
C1556 C1558 1.419 . S
C1557 C1552 1.425 . S
C1557 C1554 1.409 . S
C1557 C1555 1.415 . S
C1558 H1548 0.930 . S
C1558 C1556 1.419 . S
C1558 C1559 1.362 . S
C1559 H1549 0.930 . S
C1559 C1552 1.409 . S
C1559 C1558 1.362 . S
H1560 C1566 0.930 . S
H1561 C1569 0.930 . S
H1562 C1570 0.930 . S
H1563 C1571 0.930 . S
H1564 C1574 0.930 . S
H1565 C1575 0.930 . S
C1566 H1560 0.930 . S
C1566 C1567 1.355 . S
C1566 C1568 1.415 . S
C1567 C1566 1.355 . S
C1567 C1569 1.419 . S
C1568 C1566 1.415 . S
C1568 C1573 1.425 . S
C1568 C1575 1.409 . S
C1569 H1561 0.930 . S
C1569 C1567 1.419 . S
C1569 C1570 1.362 . S
C1570 H1562 0.930 . S
C1570 C1569 1.362 . S
C1570 C1573 1.409 . S
C1571 H1563 0.930 . S
C1571 C1572 1.355 . S
C1571 C1573 1.415 . S
C1572 C1571 1.355 . S
C1572 C1574 1.419 . S
C1573 C1568 1.425 . S
C1573 C1570 1.409 . S
C1573 C1571 1.415 . S
C1574 H1564 0.930 . S
C1574 C1572 1.419 . S
C1574 C1575 1.362 . S
C1575 H1565 0.930 . S
C1575 C1568 1.409 . S
C1575 C1574 1.362 . S
H1576 C1582 0.930 . S
H1577 C1585 0.930 1_565 S
H1578 C1586 0.930 . S
H1579 C1587 0.930 . S
H1580 C1590 0.930 . S
H1581 C1591 0.930 . S
C1582 H1576 0.930 . S
C1582 C1583 1.355 . S
C1582 C1584 1.415 . S
C1583 C1582 1.355 . S
C1583 C1585 1.419 . S
C1584 C1582 1.415 . S
C1584 C1589 1.425 . S
C1584 C1591 1.409 . S
C1585 H1577 0.930 1_545 S
C1585 C1583 1.419 . S
C1585 C1586 1.362 . S
C1586 H1578 0.930 . S
C1586 C1585 1.362 . S
C1586 C1589 1.409 . S
C1587 H1579 0.930 . S
C1587 C1588 1.355 . S
C1587 C1589 1.415 . S
C1588 C1587 1.355 . S
C1588 C1590 1.419 . S
C1589 C1584 1.425 . S
C1589 C1586 1.409 . S
C1589 C1587 1.415 . S
C1590 H1580 0.930 . S
C1590 C1588 1.419 . S
C1590 C1591 1.362 . S
C1591 H1581 0.930 . S
C1591 C1584 1.409 . S
C1591 C1590 1.362 . S
H1592 C1598 0.930 1_545 S
H1593 C1601 0.930 . S
H1594 C1602 0.930 . S
H1595 C1603 0.930 . S
H1596 C1606 0.930 . S
H1597 C1607 0.932 1_545 S
C1598 H1592 0.930 1_565 S
C1598 C1599 1.355 . S
C1598 C1600 1.415 . S
C1599 C1598 1.355 . S
C1599 C1601 1.419 . S
C1600 C1598 1.415 . S
C1600 C1605 1.425 . S
C1600 C1607 1.409 . S
C1601 H1593 0.930 . S
C1601 C1599 1.419 . S
C1601 C1602 1.362 . S
C1602 H1594 0.930 . S
C1602 C1601 1.362 . S
C1602 C1605 1.409 . S
C1603 H1595 0.930 . S
C1603 C1604 1.355 . S
C1603 C1605 1.415 . S
C1604 C1603 1.355 . S
C1604 C1606 1.419 . S
C1605 C1600 1.425 . S
C1605 C1602 1.409 . S
C1605 C1603 1.415 . S
C1606 H1596 0.930 . S
C1606 C1604 1.419 . S
C1606 C1607 1.362 . S
C1607 H1597 0.932 1_565 S
C1607 C1600 1.409 . S
C1607 C1606 1.362 . S
H1608 C1614 0.930 . S
H1609 C1617 0.930 . S
H1610 C1618 0.930 . S
H1611 C1619 0.930 . S
H1612 C1622 0.930 . S
H1613 C1623 0.930 . S
C1614 H1608 0.930 . S
C1614 C1615 1.355 . S
C1614 C1616 1.415 . S
C1615 C1614 1.355 . S
C1615 C1617 1.419 . S
C1616 C1614 1.415 . S
C1616 C1621 1.425 . S
C1616 C1623 1.409 . S
C1617 H1609 0.930 . S
C1617 C1615 1.419 . S
C1617 C1618 1.362 . S
C1618 H1610 0.930 . S
C1618 C1617 1.362 . S
C1618 C1621 1.409 . S
C1619 H1611 0.930 . S
C1619 C1620 1.355 . S
C1619 C1621 1.415 . S
C1620 C1619 1.355 . S
C1620 C1622 1.419 . S
C1621 C1616 1.425 . S
C1621 C1618 1.409 . S
C1621 C1619 1.415 . S
C1622 H1612 0.930 . S
C1622 C1620 1.419 . S
C1622 C1623 1.362 . S
C1623 H1613 0.930 . S
C1623 C1616 1.409 . S
C1623 C1622 1.362 . S
H1624 C1630 0.930 . S
H1625 C1633 0.930 . S
H1626 C1634 0.930 . S
H1627 C1635 0.930 . S
H1628 C1638 0.930 . S
H1629 C1639 0.930 . S
C1630 H1624 0.930 . S
C1630 C1631 1.355 . S
C1630 C1632 1.415 . S
C1631 C1630 1.355 . S
C1631 C1633 1.419 . S
C1632 C1630 1.415 . S
C1632 C1637 1.425 . S
C1632 C1639 1.409 . S
C1633 H1625 0.930 . S
C1633 C1631 1.419 . S
C1633 C1634 1.362 . S
C1634 H1626 0.930 . S
C1634 C1633 1.362 . S
C1634 C1637 1.409 . S
C1635 H1627 0.930 . S
C1635 C1636 1.355 . S
C1635 C1637 1.415 . S
C1636 C1635 1.355 . S
C1636 C1638 1.419 . S
C1637 C1632 1.425 . S
C1637 C1634 1.409 . S
C1637 C1635 1.415 . S
C1638 H1628 0.930 . S
C1638 C1636 1.419 . S
C1638 C1639 1.362 . S
C1639 H1629 0.930 . S
C1639 C1632 1.409 . S
C1639 C1638 1.362 . S
H1640 C1646 0.930 . S
H1641 C1649 0.930 . S
H1642 C1650 0.930 . S
H1643 C1651 0.930 . S
H1644 C1654 0.930 . S
H1645 C1655 0.930 . S
C1646 H1640 0.930 . S
C1646 C1647 1.355 . S
C1646 C1648 1.415 . S
C1647 C1646 1.355 . S
C1647 C1649 1.419 . S
C1648 C1646 1.415 . S
C1648 C1653 1.425 . S
C1648 C1655 1.409 . S
C1649 H1641 0.930 . S
C1649 C1647 1.419 . S
C1649 C1650 1.362 . S
C1650 H1642 0.930 . S
C1650 C1649 1.362 . S
C1650 C1653 1.409 . S
C1651 H1643 0.930 . S
C1651 C1652 1.355 . S
C1651 C1653 1.415 . S
C1652 C1651 1.355 . S
C1652 C1654 1.419 . S
C1653 C1648 1.425 . S
C1653 C1650 1.409 . S
C1653 C1651 1.415 . S
C1654 H1644 0.930 . S
C1654 C1652 1.419 . S
C1654 C1655 1.362 . S
C1655 H1645 0.930 . S
C1655 C1648 1.409 . S
C1655 C1654 1.362 . S
H1656 C1662 0.930 . S
H1657 C1665 0.930 . S
H1658 C1666 0.930 . S
H1659 C1667 0.930 . S
H1660 C1670 0.930 . S
H1661 C1671 0.930 . S
C1662 H1656 0.930 . S
C1662 C1663 1.355 . S
C1662 C1664 1.415 . S
C1663 C1662 1.355 . S
C1663 C1665 1.419 . S
C1664 C1662 1.415 . S
C1664 C1669 1.425 . S
C1664 C1671 1.409 . S
C1665 H1657 0.930 . S
C1665 C1663 1.419 . S
C1665 C1666 1.362 . S
C1666 H1658 0.930 . S
C1666 C1665 1.362 . S
C1666 C1669 1.409 . S
C1667 H1659 0.930 . S
C1667 C1668 1.355 . S
C1667 C1669 1.415 . S
C1668 C1667 1.355 . S
C1668 C1670 1.419 . S
C1669 C1664 1.425 . S
C1669 C1666 1.409 . S
C1669 C1667 1.415 . S
C1670 H1660 0.930 . S
C1670 C1668 1.419 . S
C1670 C1671 1.362 . S
C1671 H1661 0.930 . S
C1671 C1664 1.409 . S
C1671 C1670 1.362 . S
H1672 C1678 0.930 . S
H1673 C1681 0.930 . S
H1674 C1682 0.930 . S
H1675 C1683 0.930 . S
H1676 C1686 0.930 . S
H1677 C1687 0.930 . S
C1678 H1672 0.930 . S
C1678 C1679 1.355 . S
C1678 C1680 1.415 . S
C1679 C1678 1.355 . S
C1679 C1681 1.419 . S
C1680 C1678 1.415 . S
C1680 C1685 1.425 . S
C1680 C1687 1.409 . S
C1681 H1673 0.930 . S
C1681 C1679 1.419 . S
C1681 C1682 1.362 . S
C1682 H1674 0.930 . S
C1682 C1681 1.362 . S
C1682 C1685 1.409 . S
C1683 H1675 0.930 . S
C1683 C1684 1.355 . S
C1683 C1685 1.415 . S
C1684 C1683 1.355 . S
C1684 C1686 1.419 . S
C1685 C1680 1.425 . S
C1685 C1682 1.409 . S
C1685 C1683 1.415 . S
C1686 H1676 0.930 . S
C1686 C1684 1.419 . S
C1686 C1687 1.362 . S
C1687 H1677 0.930 . S
C1687 C1680 1.409 . S
C1687 C1686 1.362 . S
H1688 C1694 0.930 . S
H1689 C1697 0.930 . S
H1690 C1698 0.930 . S
H1691 C1699 0.930 . S
H1692 C1702 0.930 . S
H1693 C1703 0.930 . S
C1694 H1688 0.930 . S
C1694 C1695 1.355 . S
C1694 C1696 1.415 . S
C1695 C1694 1.355 . S
C1695 C1697 1.419 . S
C1696 C1694 1.415 . S
C1696 C1701 1.425 . S
C1696 C1703 1.409 . S
C1697 H1689 0.930 . S
C1697 C1695 1.419 . S
C1697 C1698 1.362 . S
C1698 H1690 0.930 . S
C1698 C1697 1.362 . S
C1698 C1701 1.409 . S
C1699 H1691 0.930 . S
C1699 C1700 1.355 . S
C1699 C1701 1.415 . S
C1700 C1699 1.355 . S
C1700 C1702 1.419 . S
C1701 C1696 1.425 . S
C1701 C1698 1.409 . S
C1701 C1699 1.415 . S
C1702 H1692 0.930 . S
C1702 C1700 1.419 . S
C1702 C1703 1.362 . S
C1703 H1693 0.930 . S
C1703 C1696 1.409 . S
C1703 C1702 1.362 . S
C559 C19 1.058 . S
C564 C435 1.139 . S
C575 C458 1.126 . S
C580 C42 1.043 . S
C591 C65 1.039 . S
C596 C389 1.108 . S
C607 C88 1.135 . S
C612 C412 1.118 . S
C623 C527 1.108 . S
C628 C111 1.039 . S
C639 C134 1.048 . S
C644 C504 1.131 . S
C655 C550 1.117 . S
C660 C157 1.135 . S
C671 C180 1.051 . S
C676 C481 1.097 . S
C687 C203 1.041 . S
C692 C320 1.122 . S
C703 C226 1.079 . S
C708 C366 1.094 . S
C719 C343 1.145 . S
C724 C249 1.143 . S
C735 C272 1.132 . S
C740 C297 1.114 . S
C751 C295 1.142 . S
C756 C159 1.147 . S
C767 C318 1.067 . S
C772 C182 1.144 . S
C783 C341 1.093 . S
C788 C113 1.096 . S
C799 C136 1.096 . S
C804 C364 1.053 . S
C815 C387 1.146 . S
C820 C251 1.135 . S
C831 C228 1.119 . S
C836 C410 1.040 . S
C847 C274 1.130 . S
C852 C433 1.047 . S
C863 C205 1.102 . S
C868 C456 1.042 . S
C879 C44 1.133 . S
C884 C479 1.051 . S
C895 C90 1.097 . S
C900 C502 1.051 . S
C911 C67 1.132 . S
C916 C525 1.049 . S
C927 C548 1.131 . S
C932 C21 1.113 . S
C943 C110 1.359 . S
C948 C16 1.399 . S
C959 C133 1.419 . S
C964 C39 1.429 . S
C975 C156 1.358 . S
C980 C62 1.399 . S
C991 C179 1.419 . S
C996 C85 1.428 . S
C1007 C108 1.428 . S
C1012 C202 1.414 . S
C1023 C131 1.427 . S
C1028 C271 1.418 . S
C1039 C154 1.420 . S
C1044 C225 1.397 . S
C1055 C177 1.429 . S
C1060 C248 1.419 . S
C1071 C200 1.398 . S
C1076 C18 1.363 . S
C1087 C223 1.429 . S
C1092 C64 1.419 . S
C1103 C246 1.398 . S
C1108 C87 1.358 . S
C1119 C41 1.359 . S
C1124 C269 1.397 . S
C1135 C386 1.390 . S
C1140 C292 1.417 . S
C1151 C409 1.366 . S
C1156 C315 1.404 . S
C1167 C338 1.404 . S
C1172 C432 1.376 . S
C1183 C361 1.397 . S
C1188 C455 1.359 . S
C1199 C478 1.382 . S
C1204 C384 1.407 . S
C1215 C407 1.399 . S
C1220 C547 1.364 . S
C1231 C501 1.361 . S
C1236 C430 1.401 . S
C1247 C453 1.405 . S
C1252 C524 1.378 . S
C1263 C294 1.419 . S
C1268 C476 1.428 . S
C1279 C499 1.400 . S
C1284 C340 1.360 . S
C1295 C522 1.398 . S
C1300 C363 1.362 . S
C1311 C317 1.376 . S
C1316 C545 1.410 . S
C1327 C20 1.645 . S
C1332 C224 1.575 1_554 S
C1343 C247 1.554 . S
C1348 C43 1.626 . S
C1359 C201 1.503 1_556 S
C1364 C66 1.616 . S
C1375 C270 1.527 . S
C1380 C89 1.629 . S
C1391 C112 1.640 . S
C1396 C86 1.575 1_455 S
C1407 C63 1.484 . S
C1412 C135 1.601 . S
C1423 C158 1.619 . S
C1428 C40 1.508 . S
C1439 C17 1.552 1_655 S
C1444 C181 1.625 . S
C1455 C204 1.615 . S
C1460 C132 1.535 1_545 S
C1471 C227 1.603 . S
C1476 C178 1.506 . S
C1487 C250 1.601 . S
C1492 C155 1.484 . S
C1503 C273 1.599 . S
C1508 C109 1.487 1_565 S
C1519 C296 1.623 . S
C1524 C500 1.549 1_556 S
C1535 C319 1.604 . S
C1540 C523 1.485 . S
C1551 C477 1.492 1_554 S
C1556 C342 1.609 . S
C1567 C546 1.490 . S
C1572 C365 1.599 . S
C1583 C388 1.616 . S
C1588 C362 1.502 1_655 S
C1599 C411 1.644 . S
C1604 C339 1.577 . S
C1615 C316 1.575 . S
C1620 C434 1.645 . S
C1631 C457 1.599 . S
C1636 C293 1.486 1_455 S
C1647 C480 1.637 . S
C1652 C408 1.545 1_565 S
C1663 C454 1.576 . S
C1668 C503 1.643 . S
C1679 C526 1.637 . S
C1684 C431 1.571 . S
C1695 C549 1.610 . S
C1700 C385 1.523 1_545 S
