# Generated by pormake.
# Topology whk, (6)-cn, num edge types: 1
# Building blocks:
#     Node 0, Type 0, BuildingBlock: CUWYAW_clean_sbu_0, # of connection points: 6
#     Node 1, Type 0, BuildingBlock: CUWYAW_clean_sbu_0, # of connection points: 6
#     Node 2, Type 0, BuildingBlock: CUWYAW_clean_sbu_0, # of connection points: 6
#     Node 3, Type 0, BuildingBlock: CUWYAW_clean_sbu_0, # of connection points: 6
#     Node 4, Type 0, BuildingBlock: CUWYAW_clean_sbu_0, # of connection points: 6
#     Node 5, Type 0, BuildingBlock: CUWYAW_clean_sbu_0, # of connection points: 6
#     Node 6, Type 0, BuildingBlock: CUWYAW_clean_sbu_0, # of connection points: 6
#     Node 7, Type 0, BuildingBlock: CUWYAW_clean_sbu_0, # of connection points: 6
#     Node 8, Type 0, BuildingBlock: CUWYAW_clean_sbu_0, # of connection points: 6
#     Node 9, Type 0, BuildingBlock: CUWYAW_clean_sbu_0, # of connection points: 6
#     Node 10, Type 0, BuildingBlock: CUWYAW_clean_sbu_0, # of connection points: 6
#     Node 11, Type 0, BuildingBlock: CUWYAW_clean_sbu_0, # of connection points: 6
#     Node 12, Type 0, BuildingBlock: CUWYAW_clean_sbu_0, # of connection points: 6
#     Node 13, Type 0, BuildingBlock: CUWYAW_clean_sbu_0, # of connection points: 6
#     Node 14, Type 0, BuildingBlock: CUWYAW_clean_sbu_0, # of connection points: 6
#     Node 15, Type 0, BuildingBlock: CUWYAW_clean_sbu_0, # of connection points: 6
#     Edge 16, Type (0, 0), BuildingBlock: XUDNAN_clean_linker_2, # of connection points: 2
#     Edge 17, Type (0, 0), BuildingBlock: XUDNAN_clean_linker_2, # of connection points: 2
#     Edge 18, Type (0, 0), BuildingBlock: XUDNAN_clean_linker_2, # of connection points: 2
#     Edge 19, Type (0, 0), BuildingBlock: XUDNAN_clean_linker_2, # of connection points: 2
#     Edge 20, Type (0, 0), BuildingBlock: XUDNAN_clean_linker_2, # of connection points: 2
#     Edge 21, Type (0, 0), BuildingBlock: XUDNAN_clean_linker_2, # of connection points: 2
#     Edge 22, Type (0, 0), BuildingBlock: XUDNAN_clean_linker_2, # of connection points: 2
#     Edge 23, Type (0, 0), BuildingBlock: XUDNAN_clean_linker_2, # of connection points: 2
#     Edge 24, Type (0, 0), BuildingBlock: XUDNAN_clean_linker_2, # of connection points: 2
#     Edge 25, Type (0, 0), BuildingBlock: XUDNAN_clean_linker_2, # of connection points: 2
#     Edge 26, Type (0, 0), BuildingBlock: XUDNAN_clean_linker_2, # of connection points: 2
#     Edge 27, Type (0, 0), BuildingBlock: XUDNAN_clean_linker_2, # of connection points: 2
#     Edge 28, Type (0, 0), BuildingBlock: XUDNAN_clean_linker_2, # of connection points: 2
#     Edge 29, Type (0, 0), BuildingBlock: XUDNAN_clean_linker_2, # of connection points: 2
#     Edge 30, Type (0, 0), BuildingBlock: XUDNAN_clean_linker_2, # of connection points: 2
#     Edge 31, Type (0, 0), BuildingBlock: XUDNAN_clean_linker_2, # of connection points: 2
#     Edge 32, Type (0, 0), BuildingBlock: XUDNAN_clean_linker_2, # of connection points: 2
#     Edge 33, Type (0, 0), BuildingBlock: XUDNAN_clean_linker_2, # of connection points: 2
#     Edge 34, Type (0, 0), BuildingBlock: XUDNAN_clean_linker_2, # of connection points: 2
#     Edge 35, Type (0, 0), BuildingBlock: XUDNAN_clean_linker_2, # of connection points: 2
#     Edge 36, Type (0, 0), BuildingBlock: XUDNAN_clean_linker_2, # of connection points: 2
#     Edge 37, Type (0, 0), BuildingBlock: XUDNAN_clean_linker_2, # of connection points: 2
#     Edge 38, Type (0, 0), BuildingBlock: XUDNAN_clean_linker_2, # of connection points: 2
#     Edge 39, Type (0, 0), BuildingBlock: XUDNAN_clean_linker_2, # of connection points: 2
#     Edge 40, Type (0, 0), BuildingBlock: XUDNAN_clean_linker_2, # of connection points: 2
#     Edge 41, Type (0, 0), BuildingBlock: XUDNAN_clean_linker_2, # of connection points: 2
#     Edge 42, Type (0, 0), BuildingBlock: XUDNAN_clean_linker_2, # of connection points: 2
#     Edge 43, Type (0, 0), BuildingBlock: XUDNAN_clean_linker_2, # of connection points: 2
#     Edge 44, Type (0, 0), BuildingBlock: XUDNAN_clean_linker_2, # of connection points: 2
#     Edge 45, Type (0, 0), BuildingBlock: XUDNAN_clean_linker_2, # of connection points: 2
#     Edge 46, Type (0, 0), BuildingBlock: XUDNAN_clean_linker_2, # of connection points: 2
#     Edge 47, Type (0, 0), BuildingBlock: XUDNAN_clean_linker_2, # of connection points: 2
#     Edge 48, Type (0, 0), BuildingBlock: XUDNAN_clean_linker_2, # of connection points: 2
#     Edge 49, Type (0, 0), BuildingBlock: XUDNAN_clean_linker_2, # of connection points: 2
#     Edge 50, Type (0, 0), BuildingBlock: XUDNAN_clean_linker_2, # of connection points: 2
#     Edge 51, Type (0, 0), BuildingBlock: XUDNAN_clean_linker_2, # of connection points: 2
#     Edge 52, Type (0, 0), BuildingBlock: XUDNAN_clean_linker_2, # of connection points: 2
#     Edge 53, Type (0, 0), BuildingBlock: XUDNAN_clean_linker_2, # of connection points: 2
#     Edge 54, Type (0, 0), BuildingBlock: XUDNAN_clean_linker_2, # of connection points: 2
#     Edge 55, Type (0, 0), BuildingBlock: XUDNAN_clean_linker_2, # of connection points: 2
#     Edge 56, Type (0, 0), BuildingBlock: XUDNAN_clean_linker_2, # of connection points: 2
#     Edge 57, Type (0, 0), BuildingBlock: XUDNAN_clean_linker_2, # of connection points: 2
#     Edge 58, Type (0, 0), BuildingBlock: XUDNAN_clean_linker_2, # of connection points: 2
#     Edge 59, Type (0, 0), BuildingBlock: XUDNAN_clean_linker_2, # of connection points: 2
#     Edge 60, Type (0, 0), BuildingBlock: XUDNAN_clean_linker_2, # of connection points: 2
#     Edge 61, Type (0, 0), BuildingBlock: XUDNAN_clean_linker_2, # of connection points: 2
#     Edge 62, Type (0, 0), BuildingBlock: XUDNAN_clean_linker_2, # of connection points: 2
#     Edge 63, Type (0, 0), BuildingBlock: XUDNAN_clean_linker_2, # of connection points: 2
# Relax obj value: 0.600
# Max RMSD: 0.306
# Mean RMSD: 0.306
data_MOF--net-whk--node1-CUWYAW_clean_sbu_0--edge1-XUDNAN_clean_linker_2
_symmetry_space_group_name_H-M    P1
_symmetry_Int_Tables_number       1
_symmetry_cell_setting            triclinic
loop_
_symmetry_equiv_pos_as_xyz
'x, y, z'
_cell_length_a     46.784781
_cell_length_b     46.965949
_cell_length_c     37.96002
_cell_angle_alpha  90.018333
_cell_angle_beta   90.238554
_cell_angle_gamma 89.952985
loop_
_atom_site_label
_atom_site_type_symbol
_atom_site_fract_x
_atom_site_fract_y
_atom_site_fract_z
_atom_type_partial_charge
C0 C 0.52773 0.18559 0.42501 0.0
Eu1 Eu 0.57298 0.21864 0.42509 0.0
C2 C 0.50191 0.16635 0.42414 0.0
C3 C 0.48193 0.16644 0.45176 0.0
C4 C 0.4565 0.15036 0.44955 0.0
C5 C 0.45033 0.13318 0.41991 0.0
C6 C 0.47085 0.13227 0.39285 0.0
C7 C 0.49606 0.14881 0.39476 0.0
C8 C 0.59535 0.25871 0.46985 0.0
C9 C 0.55602 0.28134 0.39051 0.0
C10 C 0.66322 0.28319 0.37366 0.0
Eu11 Eu 0.61975 0.25242 0.39327 0.0
C12 C 0.67636 0.28841 0.33937 0.0
C13 C 0.66374 0.27773 0.30844 0.0
C14 C 0.67799 0.27982 0.27631 0.0
C15 C 0.70498 0.29276 0.27472 0.0
C16 C 0.71665 0.30498 0.30551 0.0
C17 C 0.70243 0.30276 0.33759 0.0
C18 C 0.60468 0.20773 0.34989 0.0
C19 C 0.63623 0.20224 0.45013 0.0
O20 O 0.54042 0.19425 0.39619 0.0
O21 O 0.53988 0.19468 0.4542 0.0
O22 O 0.58373 0.235 0.48083 0.0
O23 O 0.59126 0.26113 0.4372 0.0
O24 O 0.54673 0.25767 0.40579 0.0
O25 O 0.58348 0.28406 0.38291 0.0
O26 O 0.66569 0.2573 0.38575 0.0
O27 O 0.63748 0.29328 0.37743 0.0
O28 O 0.60818 0.23378 0.33981 0.0
O29 O 0.60614 0.2075 0.38337 0.0
O30 O 0.64358 0.22736 0.43673 0.0
O31 O 0.61005 0.19203 0.44528 0.0
H32 H 0.48552 0.17965 0.47474 0.0
H33 H 0.44143 0.1516 0.47107 0.0
H34 H 0.46693 0.11958 0.3695 0.0
H35 H 0.51087 0.14813 0.37292 0.0
H36 H 0.64341 0.26687 0.30932 0.0
H37 H 0.66856 0.27016 0.25308 0.0
H38 H 0.73771 0.31454 0.30541 0.0
H39 H 0.71237 0.31117 0.36124 0.0
C40 C 0.37224 0.52715 0.4261 0.0
Eu41 Eu 0.34056 0.57344 0.42926 0.0
C42 C 0.39048 0.50067 0.42138 0.0
C43 C 0.40222 0.48523 0.44996 0.0
C44 C 0.42021 0.46125 0.44437 0.0
C45 C 0.42732 0.45208 0.41 0.0
C46 C 0.41492 0.46723 0.38167 0.0
C47 C 0.39696 0.49088 0.38722 0.0
C48 C 0.30463 0.59921 0.47659 0.0
C49 C 0.2726 0.55844 0.40526 0.0
C50 C 0.28136 0.66761 0.38521 0.0
Eu51 Eu 0.3045 0.61897 0.39875 0.0
C52 C 0.29816 0.69172 0.37227 0.0
C53 C 0.32251 0.68597 0.35201 0.0
C54 C 0.3427 0.70702 0.34604 0.0
C55 C 0.33931 0.73436 0.36023 0.0
C56 C 0.3141 0.74054 0.37906 0.0
C57 C 0.29375 0.71927 0.38523 0.0
C58 C 0.34434 0.60023 0.3514 0.0
C59 C 0.36367 0.63676 0.44153 0.0
O60 O 0.36004 0.53934 0.39884 0.0
O61 O 0.3669 0.54003 0.45616 0.0
O62 O 0.32987 0.58934 0.48534 0.0
O63 O 0.29929 0.59248 0.44524 0.0
O64 O 0.29812 0.54837 0.41551 0.0
O65 O 0.2697 0.58593 0.39869 0.0
O66 O 0.28815 0.65982 0.41722 0.0
O67 O 0.27931 0.64595 0.36363 0.0
O68 O 0.3174 0.60362 0.3447 0.0
O69 O 0.34841 0.60434 0.38411 0.0
O70 O 0.33825 0.64394 0.42898 0.0
O71 O 0.37175 0.60967 0.44226 0.0
H72 H 0.39781 0.49191 0.4767 0.0
H73 H 0.42927 0.45043 0.46699 0.0
H74 H 0.41921 0.46088 0.35478 0.0
H75 H 0.38842 0.50181 0.36436 0.0
H76 H 0.32678 0.66475 0.34216 0.0
H77 H 0.36147 0.70136 0.33145 0.0
H78 H 0.31019 0.76168 0.38933 0.0
H79 H 0.27514 0.72405 0.40107 0.0
C80 C 1.02845 0.37394 0.43834 0.0
Eu81 Eu 0.98576 0.33798 0.43311 0.0
C82 C 0.05429 0.39307 0.43889 0.0
C83 C 0.05693 0.41547 0.46326 0.0
C84 C 0.08039 0.43432 0.462 0.0
C85 C 0.10224 0.43122 0.43662 0.0
C86 C 0.1001 0.40811 0.41312 0.0
C87 C 0.07644 0.38948 0.41409 0.0
C88 C 0.96175 0.29918 0.47827 0.0
C89 C 1.01342 0.27587 0.41002 0.0
C90 C 0.91364 0.26292 0.36718 0.0
Eu91 Eu 0.94954 0.29796 0.39661 0.0
C92 C 0.90098 0.26241 0.33197 0.0
C93 C 0.88247 0.24043 0.32245 0.0
C94 C 0.86998 0.24024 0.28905 0.0
C95 C 0.87605 0.26197 0.2645 0.0
C96 C 0.89604 0.28305 0.27366 0.0
C97 C 0.90817 0.28341 0.30727 0.0
C98 C 0.96609 0.34215 0.35297 0.0
C99 C 0.91893 0.34983 0.44001 0.0
O100 O 1.02089 0.36109 0.40918 0.0
O101 O 1.01206 0.36802 0.46541 0.0
O102 O 0.96829 0.32525 0.48711 0.0
O103 O 0.9712 0.29403 0.44784 0.0
O104 O 1.01841 0.30292 0.41785 0.0
O105 O 0.98686 0.26763 0.40494 0.0
O106 O 0.90563 0.28368 0.38784 0.0
O107 O 0.94118 0.25903 0.36762 0.0
O108 O 0.96856 0.31542 0.34569 0.0
O109 O 0.95822 0.34385 0.38464 0.0
O110 O 0.91654 0.32321 0.42845 0.0
O111 O 0.94422 0.36263 0.44059 0.0
H112 H 0.04048 0.41888 0.48281 0.0
H113 H 0.08126 0.45163 0.48082 0.0
H114 H 0.11618 0.40501 0.39305 0.0
H115 H 0.07532 0.37238 0.395 0.0
H116 H 0.87701 0.2239 0.34116 0.0
H117 H 0.85419 0.22399 0.28345 0.0
H118 H 0.90126 0.30001 0.25548 0.0
H119 H 0.92264 0.30046 0.31418 0.0
C120 C 0.17971 1.02118 0.43559 0.0
Eu121 Eu 0.21881 0.9816 0.42506 0.0
C122 C 0.1686 0.05116 0.4351 0.0
C123 C 0.14361 0.05773 0.45397 0.0
C124 C 0.1302 0.08449 0.45071 0.0
C125 C 0.14144 0.10578 0.42856 0.0
C126 C 0.16687 0.09929 0.41013 0.0
C127 C 0.18013 0.07235 0.41316 0.0
C128 C 0.25984 0.95736 0.46799 0.0
C129 C 0.27897 1.00708 0.39411 0.0
C130 C 0.29096 0.90635 0.35962 0.0
Eu131 Eu 0.25596 0.94233 0.38813 0.0
C132 C 0.32049 0.90836 0.3472 0.0
C133 C 0.34084 0.92536 0.36454 0.0
C134 C 0.36971 0.92323 0.35548 0.0
C135 C 0.37842 0.90346 0.32972 0.0
C136 C 0.35722 0.89069 0.30841 0.0
C137 C 0.32851 0.89272 0.31756 0.0
C138 C 0.21116 0.95997 0.34696 0.0
C139 C 0.20397 0.91577 0.4363 0.0
O140 O 0.18444 1.00871 0.40535 0.0
O141 O 0.19714 1.01231 0.46042 0.0
O142 O 0.23392 0.96355 0.47804 0.0
O143 O 0.26347 0.96633 0.43694 0.0
O144 O 0.25223 1.01284 0.40316 0.0
O145 O 0.2867 0.98025 0.38954 0.0
O146 O 0.27252 0.9212 0.34158 0.0
O147 O 0.2868 0.90778 0.39367 0.0
O148 O 0.2378 0.96249 0.33856 0.0
O149 O 0.20992 0.95246 0.37896 0.0
O150 O 0.22848 0.91033 0.41993 0.0
O151 O 0.19411 0.94207 0.43856 0.0
H152 H 0.13394 0.04178 0.47073 0.0
H153 H 0.111 0.08851 0.46574 0.0
H154 H 0.17619 0.11481 0.39252 0.0
H155 H 0.19907 0.06789 0.39779 0.0
H156 H 0.33475 0.93865 0.3866 0.0
H157 H 0.38544 0.93376 0.37198 0.0
H158 H 0.3628 0.87568 0.28789 0.0
H159 H 0.31284 0.88042 0.30299 0.0
C160 C 0.0414 0.8812 0.08474 0.0
Eu161 Eu 0.07967 0.84017 0.09153 0.0
C162 C 1.01137 0.89271 0.08683 0.0
C163 C 1.00447 0.91837 0.06952 0.0
C164 C 0.97783 0.93195 0.07457 0.0
C165 C 0.95694 0.9203 0.09707 0.0
C166 C 0.96381 0.89428 0.114 0.0
C167 C 0.99058 0.88083 0.10914 0.0
C168 C 0.10009 0.79548 0.05258 0.0
C169 C 0.05021 0.78136 0.1267 0.0
C170 C 0.15436 0.76022 0.15018 0.0
Eu171 Eu 0.11709 0.79835 0.131 0.0
C172 C 0.15603 0.73373 0.17054 0.0
C173 C 0.13886 0.7293 0.2003 0.0
C174 C 0.14676 0.70892 0.22543 0.0
C175 C 0.17225 0.69327 0.22137 0.0
C176 C 0.18649 0.69483 0.18866 0.0
C177 C 0.1785 0.71502 0.16363 0.0
C178 C 0.10424 0.84521 0.17074 0.0
C179 C 0.14695 0.84859 0.081 0.0
O180 O 0.05413 0.87429 0.11434 0.0
O181 O 0.04969 0.86522 0.05823 0.0
O182 O 0.0961 0.82083 0.03905 0.0
O183 O 0.0909 0.79526 0.08366 0.0
O184 O 0.04669 0.80664 0.11108 0.0
O185 O 0.07589 0.77318 0.13742 0.0
O186 O 0.14892 0.7833 0.16814 0.0
O187 O 0.14125 0.75946 0.11975 0.0
O188 O 0.10329 0.8191 0.18216 0.0
O189 O 0.10966 0.84477 0.13792 0.0
O190 O 0.14933 0.82377 0.09775 0.0
O191 O 0.12176 0.86117 0.07697 0.0
H192 H 1.02007 0.9284 0.05257 0.0
H193 H 0.97361 0.95162 0.06062 0.0
H194 H 0.94874 0.88456 0.13189 0.0
H195 H 0.99524 0.86141 0.12345 0.0
H196 H 0.1209 0.74321 0.20563 0.0
H197 H 0.13469 0.70767 0.24966 0.0
H198 H 0.20603 0.68317 0.18383 0.0
H199 H 0.19169 0.71786 0.14048 0.0
C200 C 0.6867 1.02727 0.09878 0.0
Eu201 Eu 0.72155 0.071 0.09769 0.0
C202 C 0.66663 1.0023 0.10267 0.0
C203 C 0.65669 0.98611 0.07375 0.0
C204 C 0.63823 0.9625 0.07874 0.0
C205 C 0.62895 0.9546 0.11274 0.0
C206 C 0.63936 0.97065 0.14144 0.0
C207 C 0.65776 0.9939 0.13653 0.0
C208 C 0.76158 0.09307 0.05252 0.0
C209 C 0.78544 0.0467 0.12518 0.0
C210 C 0.79078 0.15602 0.14389 0.0
Eu211 Eu 0.76194 0.11097 0.13004 0.0
C212 C 0.77525 0.18236 0.15085 0.0
C213 C 0.74802 0.17983 0.16599 0.0
C214 C 0.72712 0.20003 0.15918 0.0
C215 C 0.73321 0.22383 0.1383 0.0
C216 C 0.76151 0.22798 0.1266 0.0
C217 C 0.78224 0.20707 0.13222 0.0
C218 C 0.71908 0.09709 0.17602 0.0
C219 C 0.70506 0.1356 0.08525 0.0
O220 O 0.69769 0.03937 0.12682 0.0
O221 O 0.69422 0.03943 0.06899 0.0
O222 O 0.73568 0.08646 0.04233 0.0
O223 O 0.76523 0.08453 0.08351 0.0
O224 O 0.75871 0.04095 0.1152 0.0
O225 O 0.79303 0.07347 0.13057 0.0
O226 O 0.78699 0.14698 0.11163 0.0
O227 O 0.78747 0.1358 0.16731 0.0
O228 O 0.74617 0.09664 0.18344 0.0
O229 O 0.71611 0.10206 0.14325 0.0
O230 O 0.73053 0.1406 0.09976 0.0
O231 O 0.69457 0.10948 0.08403 0.0
H232 H 0.66317 0.99168 0.04729 0.0
H233 H 0.63068 0.95086 0.0559 0.0
H234 H 0.63329 0.9652 0.1681 0.0
H235 H 0.66499 1.00543 0.15962 0.0
H236 H 0.74174 0.16071 0.17992 0.0
H237 H 0.70588 0.19597 0.16873 0.0
H238 H 0.76742 0.24674 0.11179 0.0
H239 H 0.80298 0.20922 0.11991 0.0
C240 C 0.5357 0.6872 0.09939 0.0
Eu241 Eu 0.48922 0.71836 0.10244 0.0
C242 C 0.56273 0.66972 0.09865 0.0
C243 C 0.56685 0.64852 0.07296 0.0
C244 C 0.59045 0.62986 0.07475 0.0
C245 C 0.61107 0.63205 0.1019 0.0
C246 C 0.60769 0.65414 0.12665 0.0
C247 C 0.58375 0.67249 0.12525 0.0
C248 C 0.46251 0.75631 0.05852 0.0
C249 C 0.50397 0.78255 0.13388 0.0
C250 C 0.39777 0.77308 0.1634 0.0
Eu251 Eu 0.44316 0.74935 0.13735 0.0
C252 C 0.37798 0.7612 0.18929 0.0
C253 C 0.35468 0.77701 0.20137 0.0
C254 C 0.33584 0.76506 0.22572 0.0
C255 C 0.3402 0.73717 0.23843 0.0
C256 C 0.36425 0.72186 0.22706 0.0
C257 C 0.38287 0.73373 0.20258 0.0
C258 C 0.46205 0.70447 0.17831 0.0
C259 C 0.42573 0.69628 0.08563 0.0
O260 O 0.52612 0.69866 0.12856 0.0
O261 O 0.52012 0.693 0.07138 0.0
O262 O 0.47375 0.73234 0.04783 0.0
O263 O 0.46847 0.76027 0.09058 0.0
O264 O 0.51441 0.75827 0.12136 0.0
O265 O 0.47617 0.78491 0.13945 0.0
O266 O 0.39797 0.76041 0.13271 0.0
O267 O 0.42347 0.77765 0.17558 0.0
O268 O 0.45903 0.73033 0.18914 0.0
O269 O 0.4587 0.70492 0.14524 0.0
O270 O 0.41737 0.72085 0.09948 0.0
O271 O 0.45295 0.68844 0.08771 0.0
H272 H 0.55118 0.64558 0.0522 0.0
H273 H 0.59223 0.61315 0.05521 0.0
H274 H 0.62284 0.65637 0.14812 0.0
H275 H 0.58136 0.68852 0.14555 0.0
H276 H 0.35078 0.79832 0.19151 0.0
H277 H 0.31726 0.77728 0.23345 0.0
H278 H 0.3684 0.70049 0.23655 0.0
H279 H 0.4009 0.7213 0.19359 0.0
C280 C 0.87534 0.52996 0.10045 0.0
Eu281 Eu 0.84335 0.48394 0.10144 0.0
C282 C 0.89395 0.55627 0.10084 0.0
C283 C 0.89497 0.57478 0.07169 0.0
C284 C 0.91031 0.60066 0.07321 0.0
C285 C 0.92558 0.60889 0.10378 0.0
C286 C 0.92536 0.58986 0.13253 0.0
C287 C 0.90962 0.56417 0.13119 0.0
C288 C 0.80471 0.46116 0.05424 0.0
C289 C 0.77842 0.50019 0.13028 0.0
C290 C 0.77368 0.39659 0.14252 0.0
Eu291 Eu 0.80889 0.43775 0.13109 0.0
C292 C 0.74334 0.39399 0.13335 0.0
C293 C 0.73316 0.40443 0.10107 0.0
C294 C 0.70522 0.39887 0.09043 0.0
C295 C 0.68665 0.38333 0.11208 0.0
C296 C 0.69619 0.37583 0.14625 0.0
C297 C 0.72439 0.38089 0.1566 0.0
C298 C 0.85184 0.45224 0.17749 0.0
C299 C 0.86503 0.41987 0.08472 0.0
O300 O 0.86702 0.51741 0.12951 0.0
O301 O 0.86667 0.5171 0.07157 0.0
O302 O 0.83034 0.46951 0.04548 0.0
O303 O 0.80092 0.46627 0.08643 0.0
O304 O 0.80372 0.51029 0.12046 0.0
O305 O 0.77534 0.47243 0.13388 0.0
O306 O 0.77972 0.41572 0.16639 0.0
O307 O 0.79155 0.39662 0.11604 0.0
O308 O 0.82544 0.44784 0.18588 0.0
O309 O 0.8536 0.45136 0.14409 0.0
O310 O 0.84009 0.41168 0.09772 0.0
O311 O 0.87289 0.44708 0.08628 0.0
H312 H 0.88323 0.56965 0.04788 0.0
H313 H 0.91004 0.6144 0.05031 0.0
H314 H 0.93656 0.5953 0.15663 0.0
H315 H 0.90942 0.55061 0.15426 0.0
H316 H 0.74728 0.41535 0.08311 0.0
H317 H 0.69922 0.40385 0.06377 0.0
H318 H 0.68294 0.36347 0.16385 0.0
H319 H 0.73171 0.37331 0.18204 0.0
C320 C 0.40015 0.76916 0.63719 0.0
Eu321 Eu 0.44492 0.80069 0.63265 0.0
C322 C 0.38031 0.7657 0.60711 0.0
C323 C 0.36147 0.78776 0.59803 0.0
C324 C 0.34994 0.78928 0.56421 0.0
C325 C 0.35665 0.76861 0.53856 0.0
C326 C 0.37344 0.74522 0.54877 0.0
C327 C 0.38511 0.74385 0.58265 0.0
C328 C 0.45983 0.84339 0.67793 0.0
C329 C 0.42302 0.85347 0.58218 0.0
C330 C 0.53295 0.87058 0.59923 0.0
Eu331 Eu 0.48762 0.83769 0.60014 0.0
C332 C 0.55975 0.88836 0.59997 0.0
C333 C 0.56131 0.91441 0.58175 0.0
C334 C 0.58534 0.93237 0.58537 0.0
C335 C 0.60895 0.92453 0.60654 0.0
C336 C 0.60789 0.89794 0.6236 0.0
C337 C 0.58354 0.88027 0.62066 0.0
C338 C 0.46675 0.79709 0.55492 0.0
C339 C 0.50844 0.77559 0.63557 0.0
O340 O 0.42564 0.75851 0.63226 0.0
O341 O 0.40123 0.79456 0.65124 0.0
O342 O 0.45673 0.81684 0.6867 0.0
O343 O 0.45643 0.84581 0.64476 0.0
O344 O 0.41868 0.82712 0.59333 0.0
O345 O 0.44876 0.86504 0.58531 0.0
O346 O 0.52414 0.85697 0.6273 0.0
O347 O 0.51686 0.86661 0.5712 0.0
O348 O 0.47436 0.82261 0.54489 0.0
O349 O 0.47281 0.79401 0.58702 0.0
O350 O 0.51513 0.79826 0.61621 0.0
O351 O 0.48222 0.77254 0.64764 0.0
H352 H 0.35678 0.80474 0.61642 0.0
H353 H 0.33566 0.80679 0.55844 0.0
H354 H 0.37806 0.72828 0.53043 0.0
H355 H 0.39936 0.72661 0.58933 0.0
H356 H 0.54343 0.92146 0.56576 0.0
H357 H 0.58522 0.95282 0.57218 0.0
H358 H 0.62537 0.89137 0.64055 0.0
H359 H 0.58315 0.8604 0.63511 0.0
C360 C 0.77732 0.38614 0.62881 0.0
Eu361 Eu 0.75794 0.43676 0.62137 0.0
C362 C 0.75627 0.36331 0.63382 0.0
C363 C 0.72992 0.37047 0.64918 0.0
C364 C 0.70711 0.35158 0.64845 0.0
C365 C 0.71004 0.32471 0.63274 0.0
C366 C 0.73667 0.31727 0.61784 0.0
C367 C 0.75951 0.3366 0.61798 0.0
C368 C 0.71663 0.45223 0.6688 0.0
C369 C 0.69927 0.42198 0.5765 0.0
C370 C 0.69123 0.53072 0.5975 0.0
Eu371 Eu 0.72237 0.48428 0.59373 0.0
C372 C 0.67368 0.5575 0.60226 0.0
C373 C 0.6586 0.57063 0.57433 0.0
C374 C 0.64096 0.59475 0.58029 0.0
C375 C 0.63771 0.60636 0.6144 0.0
C376 C 0.65361 0.59363 0.64188 0.0
C377 C 0.67111 0.56977 0.63597 0.0
C378 C 0.75973 0.46124 0.54602 0.0
C379 C 0.78865 0.49773 0.62479 0.0
O380 O 0.77566 0.3982 0.59783 0.0
O381 O 0.77886 0.4048 0.65445 0.0
O382 O 0.74318 0.44736 0.67655 0.0
O383 O 0.71384 0.45113 0.63551 0.0
O384 O 0.72519 0.41402 0.58617 0.0
O385 O 0.69078 0.44863 0.58113 0.0
O386 O 0.70319 0.51818 0.62469 0.0
O387 O 0.69641 0.51804 0.56726 0.0
O388 O 0.73444 0.47088 0.53717 0.0
O389 O 0.76421 0.4665 0.57799 0.0
O390 O 0.76366 0.50778 0.61296 0.0
O391 O 0.79255 0.47 0.62893 0.0
H392 H 0.72648 0.39127 0.66064 0.0
H393 H 0.68701 0.35835 0.65974 0.0
H394 H 0.74005 0.29646 0.60633 0.0
H395 H 0.77942 0.33088 0.60534 0.0
H396 H 0.65997 0.56194 0.54797 0.0
H397 H 0.62913 0.6037 0.55835 0.0
H398 H 0.65243 0.60204 0.6684 0.0
H399 H 0.68243 0.56068 0.65824 0.0
C400 C 0.15597 0.79173 0.64997 0.0
Eu401 Eu 0.11432 0.75707 0.63631 0.0
C402 C 0.18053 0.79652 0.62645 0.0
C403 C 0.20001 0.77428 0.62063 0.0
C404 C 0.21563 0.7732 0.58961 0.0
C405 C 0.21232 0.7945 0.56396 0.0
C406 C 0.19602 0.81873 0.57191 0.0
C407 C 0.18023 0.81976 0.60308 0.0
C408 C 0.09827 0.71268 0.67787 0.0
C409 C 0.14345 0.70559 0.58726 0.0
C410 C 0.03396 0.67982 0.59366 0.0
Eu411 Eu 0.07699 0.71544 0.59675 0.0
C412 C 1.01084 0.65763 0.59446 0.0
C413 C 0.98466 0.66167 0.57665 0.0
C414 C 0.96122 0.64316 0.58227 0.0
C415 C 0.96328 0.6198 0.60567 0.0
C416 C 0.99022 0.61515 0.62187 0.0
C417 C 1.01331 0.63392 0.6168 0.0
C418 C 0.09903 0.75848 0.55632 0.0
C419 C 0.04883 0.77707 0.62747 0.0
O420 O 0.13146 0.80023 0.63729 0.0
O421 O 0.15408 0.76645 0.66422 0.0
O422 O 0.09764 0.7393 0.68736 0.0
O423 O 0.10511 0.71111 0.64549 0.0
O424 O 0.14544 0.73159 0.60116 0.0
O425 O 0.11849 0.69228 0.5853 0.0
O426 O 0.04475 0.68975 0.62311 0.0
O427 O 0.04745 0.68825 0.56514 0.0
O428 O 0.09342 0.73329 0.54312 0.0
O429 O 0.09 0.75923 0.58744 0.0
O430 O 0.04556 0.75224 0.61074 0.0
O431 O 0.07393 0.7839 0.64125 0.0
H432 H 0.20138 0.75637 0.63847 0.0
H433 H 0.2293 0.75496 0.58498 0.0
H434 H 0.194 0.83594 0.55313 0.0
H435 H 0.16583 0.8375 0.60731 0.0
H436 H 0.98184 0.67996 0.55962 0.0
H437 H 0.94117 0.64795 0.56925 0.0
H438 H 0.99362 0.5971 0.63906 0.0
H439 H 0.03309 0.63011 0.63097 0.0
C440 C 0.77422 0.15064 0.678 0.0
Eu441 Eu 0.80818 0.11343 0.65023 0.0
C442 C 0.74304 0.15122 0.68054 0.0
C443 C 0.72622 0.13444 0.65794 0.0
C444 C 0.69675 0.13888 0.65584 0.0
C445 C 0.68389 0.16031 0.67622 0.0
C446 C 0.70047 0.1742 0.70221 0.0
C447 C 0.72987 0.16979 0.70412 0.0
C448 C 0.85666 0.09632 0.6845 0.0
C449 C 0.85728 0.14031 0.59681 0.0
C450 C 0.87414 0.02918 0.59978 0.0
Eu451 Eu 0.84115 0.07418 0.60569 0.0
C452 C 0.89367 1.00347 0.59884 0.0
C453 C 0.89544 0.98581 0.56895 0.0
C454 C 0.91117 0.96007 0.56979 0.0
C455 C 0.92604 0.95115 0.60042 0.0
C456 C 0.92514 0.96945 0.62985 0.0
C457 C 0.90908 0.99496 0.62916 0.0
C458 C 0.79688 0.1004 0.57094 0.0
C459 C 0.77976 0.05066 0.64045 0.0
O460 O 0.78687 0.1308 0.69639 0.0
O461 O 0.78451 0.15312 0.6461 0.0
O462 O 0.83134 0.09621 0.69798 0.0
O463 O 0.85433 0.10207 0.65191 0.0
O464 O 0.83476 0.14464 0.61746 0.0
O465 O 0.86624 0.11402 0.58965 0.0
O466 O 0.86572 0.0399 0.62991 0.0
O467 O 0.86506 0.04346 0.57199 0.0
O468 O 0.82063 0.09294 0.55514 0.0
O469 O 0.79714 0.09075 0.60191 0.0
O470 O 0.80287 0.04433 0.62152 0.0
O471 O 0.77723 0.07657 0.65346 0.0
H472 H 0.73613 0.11934 0.64025 0.0
H473 H 0.68458 0.12773 0.63579 0.0
H474 H 0.69149 0.19093 0.71838 0.0
H475 H 0.74248 0.18229 0.72236 0.0
H476 H 0.88388 0.9914 0.54515 0.0
H477 H 0.91144 0.94694 0.54634 0.0
H478 H 0.93597 0.96353 0.65403 0.0
H479 H 0.90831 1.00783 0.65282 0.0
C480 C 0.91365 0.28509 0.86971 0.0
Eu481 Eu 0.95114 0.25117 0.89839 0.0
C482 C 0.90141 0.28665 0.83421 0.0
C483 C 0.88493 0.31022 0.8246 0.0
C484 C 0.87347 0.3121 0.7907 0.0
C485 C 0.87849 0.29048 0.76566 0.0
C486 C 0.89612 0.26742 0.77513 0.0
C487 C 0.90738 0.26547 0.80919 0.0
C488 C 0.9704 0.20822 0.85518 0.0
C489 C 0.92497 0.19897 0.94638 0.0
C490 C 0.0308 0.17459 0.94838 0.0
Eu491 Eu 0.99138 0.2136 0.93529 0.0
C492 C 0.06026 0.16263 0.94337 0.0
C493 C 0.06727 0.13649 0.95936 0.0
C494 C 0.09359 0.12289 0.95289 0.0
C495 C 0.11402 0.13503 0.93021 0.0
C496 C 0.10702 0.16148 0.91442 0.0
C497 C 0.08048 0.17499 0.92073 0.0
C498 C 0.96594 0.25479 0.97723 0.0
C499 C 1.01611 0.27337 0.90479 0.0
O500 O 0.9066 0.26304 0.88878 0.0
O501 O 0.94088 0.29059 0.87127 0.0
O502 O 0.96969 0.23487 0.84704 0.0
O503 O 0.96354 0.20607 0.88724 0.0
O504 O 0.91981 0.22473 0.933 0.0
O505 O 0.95135 0.18888 0.94709 0.0
O506 O 1.01357 0.17431 0.92123 0.0
O507 O 1.02655 0.19682 0.96858 0.0
O508 O 0.97236 0.22932 0.98858 0.0
O509 O 0.9755 0.25731 0.94669 0.0
O510 O 1.02204 0.24598 0.90947 0.0
O511 O 0.98905 0.28152 0.90513 0.0
H512 H 0.88046 0.32691 0.84351 0.0
H513 H 0.85943 0.32983 0.78486 0.0
H514 H 0.90043 0.25043 0.75658 0.0
H515 H 0.92038 0.24723 0.81614 0.0
H516 H 0.05205 0.12622 0.97664 0.0
H517 H 0.098 0.10289 0.96601 0.0
H518 H 0.12183 0.17155 0.8965 0.0
H519 H 0.07561 0.19486 0.90752 0.0
C520 C 0.2662 0.90406 0.8757 0.0
Eu521 Eu 0.30369 0.94164 0.89575 0.0
C522 C 0.25232 0.8974 0.84168 0.0
C523 C 0.22277 0.90152 0.83745 0.0
C524 C 0.20899 0.89293 0.80646 0.0
C525 C 0.22443 0.87951 0.77937 0.0
C526 C 0.25439 0.87756 0.7827 0.0
C527 C 0.26816 0.88645 0.81342 0.0
C528 C 0.3475 0.95523 0.85065 0.0
C529 C 0.35646 0.91548 0.9436 0.0
C530 C 0.38135 1.02487 0.92838 0.0
Eu531 Eu 0.346 0.98156 0.92952 0.0
C532 C 0.4006 0.05047 0.92413 0.0
C533 C 0.416 0.06278 0.95236 0.0
C534 C 0.43318 0.08736 0.94727 0.0
C535 C 0.43557 0.10023 0.91374 0.0
C536 C 0.41964 0.08807 0.88594 0.0
C537 C 0.40262 0.06381 0.89099 0.0
C538 C 0.30655 0.95979 0.97504 0.0
C539 C 0.28356 1.00747 0.90091 0.0
O540 O 0.29349 0.89855 0.87865 0.0
O541 O 0.25925 0.92831 0.89003 0.0
O542 O 0.3207 0.95391 0.84178 0.0
O543 O 0.34931 0.95128 0.88362 0.0
O544 O 0.32948 0.91265 0.93278 0.0
O545 O 0.36993 0.94035 0.94136 0.0
O546 O 0.36936 1.01346 0.90049 0.0
O547 O 0.3753 1.01165 0.95802 0.0
O548 O 0.33249 0.9669 0.98471 0.0
O549 O 0.30242 0.9675 0.94364 0.0
O550 O 0.30921 1.01226 0.9148 0.0
O551 O 0.27615 0.98151 0.89116 0.0
H552 H 0.21015 0.91042 0.85865 0.0
H553 H 0.18599 0.89518 0.80464 0.0
H554 H 0.26718 0.86707 0.76284 0.0
H555 H 0.29107 0.8835 0.81552 0.0
H556 H 0.41482 0.05343 0.97838 0.0
H557 H 0.44507 0.09588 0.96941 0.0
H558 H 0.42018 0.09742 0.85988 0.0
H559 H 0.39087 0.05555 0.86858 0.0
C560 C 0.66198 0.2688 0.85974 0.0
Eu561 Eu 0.62192 0.29971 0.88761 0.0
C562 C 0.67849 0.27252 0.8271 0.0
C563 C 0.67629 0.25222 0.80001 0.0
C564 C 0.69062 0.25623 0.76813 0.0
C565 C 0.70759 0.28052 0.76295 0.0
C566 C 0.70927 0.30101 0.78997 0.0
C567 C 0.69471 0.2972 0.82152 0.0
C568 C 0.60475 0.34405 0.84492 0.0
C569 C 0.64761 0.35101 0.93712 0.0
C570 C 0.53686 0.37141 0.92313 0.0
Eu571 Eu 0.58132 0.33706 0.92344 0.0
C572 C 0.51129 0.3911 0.91957 0.0
C573 C 0.49646 0.40244 0.94876 0.0
C574 C 0.47242 0.42062 0.94408 0.0
C575 C 0.46264 0.42828 0.91006 0.0
C576 C 0.47734 0.41647 0.88114 0.0
C577 C 0.501 0.39833 0.88577 0.0
C578 C 0.60397 0.29674 0.96791 0.0
C579 C 0.55869 0.27354 0.89492 0.0
O580 O 0.66673 0.28675 0.88549 0.0
O581 O 0.63485 0.26397 0.85488 0.0
O582 O 0.6054 0.31763 0.83589 0.0
O583 O 0.61087 0.34531 0.87737 0.0
O584 O 0.65107 0.32483 0.92457 0.0
O585 O 0.62185 0.3631 0.93625 0.0
O586 O 0.5472 0.35864 0.89526 0.0
O587 O 0.55113 0.36584 0.95231 0.0
O588 O 0.59489 0.32171 0.97846 0.0
O589 O 0.59723 0.29328 0.93597 0.0
O590 O 0.55148 0.29899 0.90758 0.0
O591 O 0.58569 0.26799 0.88815 0.0
H592 H 0.66345 0.23325 0.80352 0.0
H593 H 0.68891 0.24009 0.74785 0.0
H594 H 0.72288 0.31952 0.78746 0.0
H595 H 0.69646 0.31349 0.84163 0.0
H596 H 0.50346 0.39732 0.97523 0.0
H597 H 0.46193 0.42924 0.96712 0.0
H598 H 0.47051 0.42124 0.8545 0.0
H599 H 0.5114 0.39005 0.86247 0.0
C600 C 0.27897 0.65922 0.85908 0.0
Eu601 Eu 0.25595 0.61458 0.88702 0.0
C602 C 0.26522 0.67743 0.83273 0.0
C603 C 0.2813 0.69545 0.81126 0.0
C604 C 0.26784 0.7111 0.7846 0.0
C605 C 0.23812 0.7087 0.77884 0.0
C606 C 0.22232 0.68998 0.80007 0.0
C607 C 0.23574 0.67454 0.82672 0.0
C608 C 0.21035 0.59641 0.84709 0.0
C609 C 0.20386 0.63304 0.94035 0.0
C610 C 0.19409 0.52291 0.92605 0.0
Eu611 Eu 0.22505 0.56948 0.92374 0.0
C612 C 0.17758 0.49527 0.92482 0.0
C613 C 0.15623 0.48841 0.94957 0.0
C614 C 0.14042 0.46272 0.9469 0.0
C615 C 0.14583 0.44285 0.91975 0.0
C616 C 0.16719 0.44992 0.89512 0.0
C617 C 0.18258 0.4756 0.89749 0.0
C618 C 0.2655 0.59584 0.9653 0.0
C619 C 0.28903 0.55352 0.891 0.0
O620 O 0.26743 0.65954 0.89044 0.0
O621 O 0.28399 0.63345 0.84789 0.0
O622 O 0.23621 0.59877 0.8359 0.0
O623 O 0.211 0.59965 0.88026 0.0
O624 O 0.228 0.64103 0.92491 0.0
O625 O 0.19596 0.6059 0.93987 0.0
O626 O 0.20545 0.53333 0.89729 0.0
O627 O 0.19962 0.53792 0.95456 0.0
O628 O 0.24213 0.58446 0.97787 0.0
O629 O 0.26753 0.5893 0.93328 0.0
O630 O 0.2649 0.54372 0.90492 0.0
O631 O 0.29137 0.58109 0.88427 0.0
H632 H 0.30416 0.69751 0.81522 0.0
H633 H 0.28061 0.72582 0.76939 0.0
H634 H 0.19948 0.68752 0.79648 0.0
H635 H 0.22307 0.66028 0.84272 0.0
H636 H 0.15155 0.50303 0.97085 0.0
H637 H 0.12434 0.45815 0.96653 0.0
H638 H 0.17195 0.43557 0.87358 0.0
H639 H 0.19865 0.47999 0.87777 0.0
H640 H 0.61108 0.20516 0.27681 0.0
H641 H 0.62883 0.15727 0.37203 0.0
H642 H 0.65673 0.12255 0.33731 0.0
H643 H 0.6049 0.14036 0.21884 0.0
H644 H 0.62058 0.15804 0.18151 0.0
H645 H 0.60024 0.17819 0.21315 0.0
H646 H 0.64372 0.21216 0.22527 0.0
H647 H 0.66102 0.19286 0.19067 0.0
H648 H 0.6783 0.19634 0.23316 0.0
H649 H 0.68746 0.09551 0.293 0.0
H650 H 0.71563 0.07707 0.24298 0.0
H651 H 0.67692 0.13999 0.1744 0.0
C652 C 0.6203 0.18701 0.29027 0.0
C653 C 0.61738 0.18414 0.32753 0.0
C654 C 0.63023 0.16008 0.34378 0.0
C655 C 0.64635 0.1402 0.32414 0.0
C656 C 0.64933 0.14403 0.28777 0.0
C657 C 0.63619 0.16657 0.27083 0.0
C658 C 0.64292 0.16573 0.23141 0.0
C659 C 0.61552 0.16026 0.20996 0.0
C660 C 0.65743 0.19341 0.21952 0.0
C661 C 0.66324 0.1402 0.22909 0.0
C662 C 0.66628 0.12784 0.26198 0.0
C663 C 0.68477 0.10481 0.26712 0.0
C664 C 0.70072 0.09434 0.23838 0.0
C665 C 0.69826 0.10642 0.20427 0.0
C666 C 0.67886 0.12962 0.1997 0.0
H667 H 0.4603 0.69889 0.25146 0.0
H668 H 0.43314 0.65729 0.15497 0.0
H669 H 0.40366 0.62409 0.18947 0.0
H670 H 0.46119 0.62987 0.30602 0.0
H671 H 0.44949 0.64859 0.34485 0.0
H672 H 0.47152 0.66642 0.31283 0.0
H673 H 0.43427 0.7058 0.30892 0.0
H674 H 0.41014 0.6881 0.33843 0.0
H675 H 0.39869 0.69769 0.29425 0.0
H676 H 0.37221 0.59912 0.23345 0.0
H677 H 0.34349 0.58232 0.28371 0.0
H678 H 0.39128 0.63768 0.35378 0.0
C679 C 0.44895 0.68215 0.23768 0.0
C680 C 0.44943 0.68082 0.2002 0.0
C681 C 0.43364 0.65883 0.18343 0.0
C682 C 0.41664 0.6398 0.20293 0.0
C683 C 0.41598 0.64221 0.23959 0.0
C684 C 0.43236 0.66229 0.25696 0.0
C685 C 0.4269 0.66082 0.29659 0.0
C686 C 0.45388 0.65083 0.31623 0.0
C687 C 0.41683 0.68981 0.31046 0.0
C688 C 0.40342 0.63817 0.29853 0.0
C689 C 0.398 0.62738 0.26525 0.0
C690 C 0.37674 0.60702 0.25967 0.0
C691 C 0.36053 0.59746 0.28851 0.0
C692 C 0.36543 0.60789 0.32303 0.0
C693 C 0.38749 0.62849 0.32802 0.0
H694 H 0.91489 0.37208 0.35001 0.0
H695 H 0.99209 0.35589 0.29076 0.0
H696 H 0.97311 0.38509 0.24145 0.0
H697 H 0.86835 0.36516 0.27588 0.0
H698 H 0.8432 0.39193 0.28995 0.0
H699 H 0.86383 0.3725 0.32212 0.0
H700 H 0.88328 0.41948 0.34807 0.0
H701 H 0.86251 0.43937 0.31643 0.0
H702 H 0.90058 0.4448 0.31955 0.0
H703 H 0.94434 0.41545 0.19695 0.0
H704 H 0.90804 0.44068 0.16091 0.0
H705 H 0.84832 0.43551 0.24771 0.0
C706 C 0.92812 0.3753 0.32701 0.0
C707 C 0.95553 0.36226 0.32483 0.0
C708 C 0.97144 0.36606 0.2935 0.0
C709 C 0.96072 0.38263 0.26526 0.0
C710 C 0.93363 0.39507 0.26813 0.0
C711 C 0.91745 0.39137 0.2982 0.0
C712 C 0.88807 0.40502 0.29355 0.0
C713 C 0.86445 0.38231 0.29549 0.0
C714 C 0.88334 0.42857 0.32104 0.0
C715 C 0.89031 0.41739 0.25647 0.0
C716 C 0.91682 0.41151 0.24228 0.0
C717 C 0.92361 0.42021 0.20804 0.0
C718 C 0.90281 0.43475 0.18769 0.0
C719 C 0.87518 0.44058 0.20122 0.0
C720 C 0.86922 0.4319 0.23643 0.0
H721 H 0.17696 0.91139 0.34647 0.0
H722 H 0.20032 0.98442 0.28322 0.0
H723 H 0.17204 0.96519 0.23332 0.0
H724 H 0.18398 0.861 0.27775 0.0
H725 H 0.1546 0.83877 0.29123 0.0
H726 H 0.17351 0.8598 0.32339 0.0
H727 H 0.12613 0.8834 0.34242 0.0
H728 H 0.10696 0.86239 0.31037 0.0
H729 H 0.10392 0.90066 0.30987 0.0
H730 H 0.14368 0.93616 0.18828 0.0
H731 H 0.11956 0.89953 0.15198 0.0
H732 H 0.11539 0.84396 0.24302 0.0
C733 C 0.17535 0.92377 0.32248 0.0
C734 C 0.19034 0.95 0.31923 0.0
C735 C 0.18862 0.96474 0.28673 0.0
C736 C 0.17263 0.95386 0.25813 0.0
C737 C 0.15851 0.92782 0.26191 0.0
C738 C 0.15975 0.9129 0.29331 0.0
C739 C 0.14451 0.88432 0.28947 0.0
C740 C 0.1654 0.85951 0.29583 0.0
C741 C 0.11886 0.8826 0.31453 0.0
C742 C 0.13472 0.88536 0.25104 0.0
C743 C 0.14282 0.91079 0.23574 0.0
C744 C 0.13708 0.91632 0.2002 0.0
C745 C 0.12321 0.89533 0.17969 0.0
C746 C 0.11513 0.86877 0.19436 0.0
C747 C 0.12076 0.86409 0.23084 0.0
H748 H 0.34234 0.9374 0.78069 0.0
H749 H 0.4043 0.94661 0.86518 0.0
H750 H 0.44065 0.92254 0.82855 0.0
H751 H 0.36346 0.86823 0.75445 0.0
H752 H 0.35804 0.87387 0.70793 0.0
H753 H 0.33762 0.89404 0.73938 0.0
H754 H 0.35519 0.94094 0.71105 0.0
H755 H 0.37565 0.92084 0.67948 0.0
H756 H 0.39301 0.94723 0.7066 0.0
H757 H 0.46929 0.89276 0.78464 0.0
H758 H 0.48776 0.86186 0.73688 0.0
H759 H 0.40846 0.87284 0.67929 0.0
C760 C 0.36375 0.93502 0.79121 0.0
C761 C 0.37036 0.94439 0.82602 0.0
C762 C 0.39859 0.94006 0.83871 0.0
C763 C 0.41944 0.92626 0.81801 0.0
C764 C 0.41209 0.91679 0.78424 0.0
C765 C 0.38494 0.92122 0.77076 0.0
C766 C 0.38222 0.90775 0.73426 0.0
C767 C 0.35896 0.8846 0.734 0.0
C768 C 0.37615 0.93055 0.70619 0.0
C769 C 0.41189 0.8948 0.72945 0.0
C770 C 0.42879 0.90027 0.75865 0.0
C771 C 0.45637 0.88892 0.76141 0.0
C772 C 0.46681 0.87144 0.73404 0.0
C773 C 0.4501 0.86562 0.70371 0.0
C774 C 0.42226 0.87773 0.70146 0.0
H775 H 0.65652 0.3725 0.84175 0.0
H776 H 0.57625 0.36201 0.78617 0.0
H777 H 0.59452 0.39173 0.73721 0.0
H778 H 0.67293 0.44582 0.81308 0.0
H779 H 0.71052 0.43857 0.80794 0.0
H780 H 0.69004 0.41915 0.84006 0.0
H781 H 0.70599 0.37153 0.81176 0.0
H782 H 0.72652 0.39081 0.77961 0.0
H783 H 0.69969 0.36576 0.76541 0.0
H784 H 0.62316 0.42054 0.69189 0.0
H785 H 0.65943 0.44404 0.65451 0.0
H786 H 0.72192 0.43477 0.73841 0.0
C787 C 0.64246 0.37731 0.8198 0.0
C788 C 0.61444 0.3657 0.81845 0.0
C789 C 0.59738 0.37127 0.78833 0.0
C790 C 0.60769 0.38807 0.76026 0.0
C791 C 0.63547 0.39897 0.76217 0.0
C792 C 0.65266 0.39373 0.79121 0.0
C793 C 0.68246 0.40595 0.78548 0.0
C794 C 0.68939 0.42873 0.8133 0.0
C795 C 0.705 0.3821 0.78559 0.0
C796 C 0.67937 0.41906 0.74891 0.0
C797 C 0.65206 0.41486 0.73591 0.0
C798 C 0.64449 0.42412 0.7021 0.0
C799 C 0.66528 0.43762 0.68098 0.0
C800 C 0.69362 0.44177 0.69335 0.0
C801 C 0.70043 0.43251 0.72811 0.0
H802 H 0.14201 0.67225 0.67466 0.0
H803 H 0.07664 0.70587 0.74369 0.0
H804 H 0.09547 0.67641 0.79255 0.0
H805 H 0.14533 0.59878 0.71464 0.0
H806 H 0.18356 0.59672 0.7094 0.0
H807 H 0.16234 0.6171 0.67867 0.0
H808 H 0.19426 0.65984 0.6908 0.0
H809 H 0.21478 0.64187 0.72436 0.0
H810 H 0.19638 0.67464 0.73429 0.0
H811 H 0.12315 0.6452 0.83548 0.0
H812 H 0.15872 0.61753 0.86945 0.0
H813 H 0.2085 0.6055 0.77443 0.0
C814 C 0.13104 0.67262 0.69972 0.0
C815 C 0.10716 0.69095 0.70492 0.0
C816 C 0.09442 0.69166 0.73871 0.0
C817 C 0.10508 0.67499 0.76673 0.0
C818 C 0.12886 0.6576 0.76102 0.0
C819 C 0.14168 0.65621 0.72829 0.0
C820 C 0.16837 0.63749 0.73006 0.0
C821 C 0.16467 0.61094 0.70681 0.0
C822 C 0.19506 0.65443 0.7193 0.0
C823 C 0.16904 0.62935 0.76908 0.0
C824 C 0.14563 0.64066 0.78619 0.0
C825 C 0.14145 0.63615 0.82221 0.0
C826 C 0.16179 0.62016 0.84137 0.0
C827 C 0.18651 0.60889 0.82492 0.0
C828 C 0.18979 0.61341 0.78798 0.0
H829 H 0.85838 0.10566 0.75657 0.0
H830 H 0.90947 0.1149 0.66221 0.0
H831 H 0.94611 0.14094 0.69674 0.0
H832 H 0.87158 0.17455 0.78981 0.0
H833 H 0.87253 0.16411 0.83548 0.0
H834 H 0.85191 0.14374 0.80429 0.0
H835 H 0.87946 0.09809 0.82219 0.0
H836 H 0.90014 0.11839 0.85351 0.0
H837 H 0.91795 0.09771 0.82012 0.0
H838 H 0.97496 0.17096 0.74085 0.0
H839 H 0.99373 0.20012 0.7902 0.0
H840 H 0.92478 0.17056 0.85654 0.0
C841 C 0.87762 0.11246 0.74324 0.0
C842 C 0.88102 0.10773 0.70645 0.0
C843 C 0.90636 0.11775 0.69025 0.0
C844 C 0.92729 0.13275 0.70974 0.0
C845 C 0.92288 0.13764 0.74568 0.0
C846 C 0.89871 0.12756 0.76233 0.0
C847 C 0.89822 0.13708 0.80074 0.0
C848 C 0.87201 0.15599 0.80799 0.0
C849 C 0.89899 0.11127 0.82561 0.0
C850 C 0.9258 0.15418 0.8032 0.0
C851 C 0.93969 0.15433 0.77109 0.0
C852 C 0.96449 0.17042 0.7662 0.0
C853 C 0.97512 0.18687 0.79448 0.0
C854 C 0.96139 0.18704 0.82768 0.0
C855 C 0.93648 0.17013 0.83199 0.0
H856 H 0.43814 0.077 0.39903 0.0
H857 H 0.39731 0.1553 0.43271 0.0
H858 H 0.35007 0.13241 0.42707 0.0
H859 H 0.38365 0.0549 0.33575 0.0
H860 H 0.38575 1.01763 0.34682 0.0
H861 H 0.41665 0.04012 0.35229 0.0
H862 H 0.42031 1.02528 0.41781 0.0
H863 H 0.3895 1.00267 0.41241 0.0
H864 H 0.38975 0.02975 0.44606 0.0
H865 H 0.30661 0.1014 0.41722 0.0
H866 H 0.27066 0.0637 0.40864 0.0
H867 H 0.3382 1.00366 0.38359 0.0
C868 C 0.41924 0.08935 0.40506 0.0
C869 C 0.42176 0.1182 0.41639 0.0
C870 C 0.39628 0.13328 0.42433 0.0
C871 C 0.3692 0.12044 0.42098 0.0
C872 C 0.36746 0.09214 0.40992 0.0
C873 C 0.39179 0.07659 0.40243 0.0
C874 C 0.38369 0.04607 0.39244 0.0
C875 C 0.39299 0.03928 0.35457 0.0
C876 C 0.39658 1.02468 0.41875 0.0
C877 C 0.35111 0.047 0.39533 0.0
C878 C 0.3423 0.07393 0.40517 0.0
C879 C 0.31336 0.08024 0.40958 0.0
C880 C 0.29296 0.05855 0.40448 0.0
C881 C 0.30119 0.03043 0.39523 0.0
C882 C 0.33089 1.02484 0.39035 0.0
H883 H 0.43452 0.39861 0.44354 0.0
H884 H 0.46947 0.45117 0.36016 0.0
H885 H 0.50358 0.4132 0.34538 0.0
H886 H 0.50248 0.36674 0.47076 0.0
H887 H 0.48762 0.33201 0.47917 0.0
H888 H 0.46561 0.3633 0.48375 0.0
H889 H 0.42898 0.34197 0.43991 0.0
H890 H 0.45099 0.3107 0.43503 0.0
H891 H 0.44068 0.33105 0.39678 0.0
H892 H 0.53518 0.36999 0.33953 0.0
H893 H 0.562 0.32488 0.34356 0.0
H894 H 0.50747 0.29766 0.4293 0.0
C895 C 0.44943 0.4022 0.42228 0.0
C896 C 0.44871 0.42826 0.40286 0.0
C897 C 0.46881 0.43159 0.37518 0.0
C898 C 0.48854 0.41003 0.3666 0.0
C899 C 0.48838 0.38466 0.38571 0.0
C900 C 0.4694 0.38053 0.41304 0.0
C901 C 0.47404 0.35095 0.42912 0.0
C902 C 0.48297 0.3534 0.46801 0.0
C903 C 0.44706 0.33258 0.42496 0.0
C904 C 0.49855 0.33928 0.40666 0.0
C905 C 0.50643 0.35928 0.38186 0.0
C906 C 0.529 0.35414 0.35873 0.0
C907 C 0.54416 0.32826 0.36117 0.0
C908 C 0.53687 0.30716 0.3863 0.0
C909 C 0.51338 0.31286 0.40918 0.0
H910 H 0.16145 0.42438 0.42508 0.0
H911 H 0.09593 0.48888 0.43902 0.0
H912 H 0.13211 0.52636 0.43201 0.0
H913 H 0.21752 0.46284 0.47328 0.0
H914 H 0.24606 0.45189 0.44451 0.0
H915 H 0.21522 0.42938 0.45015 0.0
H916 H 0.20687 0.42929 0.38278 0.0
H917 H 0.23764 0.45186 0.37695 0.0
H918 H 0.20335 0.46268 0.35975 0.0
H919 H 0.17384 0.55719 0.42177 0.0
H920 H 0.21957 0.58068 0.41275 0.0
H921 H 0.26212 0.49839 0.40773 0.0
C922 C 0.15476 0.44641 0.42664 0.0
C923 C 0.12549 0.45345 0.4329 0.0
C924 C 0.11795 0.48265 0.43487 0.0
C925 C 0.13844 0.50422 0.43066 0.0
C926 C 0.16684 0.49665 0.42469 0.0
C927 C 0.17527 0.46853 0.42298 0.0
C928 C 0.20766 0.46683 0.41702 0.0
C929 C 0.22249 0.45184 0.44809 0.0
C930 C 0.21427 0.45176 0.38204 0.0
C931 C 0.21592 0.49837 0.41543 0.0
C932 C 0.1917 0.5149 0.41965 0.0
C933 C 0.19293 0.54443 0.41852 0.0
C934 C 0.21937 0.55763 0.41312 0.0
C935 C 0.24508 0.54172 0.40916 0.0
C936 C 0.24317 0.5114 0.41055 0.0
H937 H 0.08306 0.11854 0.42563 0.0
H938 H 0.16649 0.15878 0.42333 0.0
H939 H 0.14333 0.20582 0.41764 0.0
H940 H 0.04927 0.16521 0.36202 0.0
H941 H 1.0153 0.16581 0.38425 0.0
H942 H 0.03833 0.13522 0.38833 0.0
H943 H 0.0372 0.13998 0.45625 0.0
H944 H 1.01412 0.17055 0.45233 0.0
H945 H 0.04728 0.17326 0.47642 0.0
H946 H 0.11059 0.24955 0.41384 0.0
H947 H 0.07159 0.28511 0.41022 0.0
H948 H 1.00918 0.21692 0.4134 0.0
C949 C 0.09655 0.13721 0.42416 0.0
C950 C 0.12689 0.13453 0.42493 0.0
C951 C 0.14338 0.15982 0.42238 0.0
C952 C 0.13034 0.18682 0.41935 0.0
C953 C 0.10053 0.18863 0.41864 0.0
C954 C 0.08382 0.16444 0.42082 0.0
C955 C 0.0522 0.17227 0.41901 0.0
C956 C 0.03794 0.15883 0.38646 0.0
C957 C 0.03679 0.16349 0.45303 0.0
C958 C 0.05371 0.20458 0.4156 0.0
C959 C 0.08181 0.21362 0.41563 0.0
C960 C 0.08855 0.24258 0.41359 0.0
C961 C 0.06617 0.26272 0.41154 0.0
C962 C 0.03712 0.2541 0.41119 0.0
C963 C 0.03105 0.22445 0.41315 0.0
H964 H 0.94387 0.97867 0.10131 0.0
H965 H 0.90393 0.89535 0.10507 0.0
H966 H 0.85704 0.91812 0.11424 0.0
H967 H 0.89968 1.01167 0.16818 0.0
H968 H 0.89773 0.04566 0.14628 0.0
H969 H 0.9284 1.02302 0.13997 0.0
H970 H 0.92043 1.02459 0.0725 0.0
H971 H 0.88978 0.04731 0.07861 0.0
H972 H 0.88619 1.01443 0.05452 0.0
H973 H 0.81322 0.95031 0.12141 0.0
H974 H 0.7773 0.9887 0.1269 0.0
H975 H 0.84476 0.0517 0.11997 0.0
C976 C 0.9253 0.96511 0.10384 0.0
C977 C 0.92816 0.93486 0.10254 0.0
C978 C 0.90292 0.91835 0.10646 0.0
C979 C 0.87594 0.93119 0.11149 0.0
C980 C 0.87398 0.96086 0.1128 0.0
C981 C 0.89802 0.97765 0.10915 0.0
C982 C 0.88993 1.00912 0.11174 0.0
C983 C 0.90483 1.0232 0.14343 0.0
C984 C 0.89701 1.02479 0.07729 0.0
C985 C 0.85766 1.00741 0.11731 0.0
C986 C 0.84889 0.97932 0.11767 0.0
C987 C 0.82001 0.97233 0.12139 0.0
C988 C 0.79963 0.9944 0.12457 0.0
C989 C 0.80787 1.02347 0.12442 0.0
C990 C 0.83752 0.02982 0.1209 0.0
H991 H 0.55416 0.79788 0.09786 0.0
H992 H 0.49393 0.82817 0.17602 0.0
H993 H 0.51904 0.87417 0.1784 0.0
H994 H 0.61759 0.8347 0.13368 0.0
H995 H 0.63181 0.84347 0.09099 0.0
H996 H 0.61019 0.81204 0.0964 0.0
H997 H 0.57609 0.82979 0.0473 0.0
H998 H 0.59746 0.86139 0.04194 0.0
H999 H 0.55982 0.86445 0.05116 0.0
H1000 H 0.54919 0.91765 0.17163 0.0
H1001 H 0.5833 0.95566 0.15733 0.0
H1002 H 0.62528 0.89975 0.08254 0.0
C1003 C 0.54662 0.81402 0.11596 0.0
C1004 C 0.52202 0.809 0.13711 0.0
C1005 C 0.51262 0.83114 0.1597 0.0
C1006 C 0.52678 0.85751 0.1612 0.0
C1007 C 0.55048 0.86197 0.13974 0.0
C1008 C 0.56049 0.8409 0.11755 0.0
C1009 C 0.58605 0.85202 0.09659 0.0
C1010 C 0.61301 0.83451 0.10492 0.0
C1011 C 0.57945 0.8519 0.05689 0.0
C1012 C 0.58878 0.88247 0.11058 0.0
C1013 C 0.56793 0.88753 0.13549 0.0
C1014 C 0.56572 0.91381 0.15234 0.0
C1015 C 0.58541 0.93536 0.14407 0.0
C1016 C 0.60746 0.931 0.11904 0.0
C1017 C 0.60878 0.90405 0.10173 0.0
H1018 H 0.67076 0.63741 0.1111 0.0
H1019 H 0.60279 0.57491 0.10331 0.0
H1020 H 0.63788 0.53638 0.11173 0.0
H1021 H 0.7234 0.59511 0.06267 0.0
H1022 H 0.75349 0.60609 0.08918 0.0
H1023 H 0.7232 0.62946 0.08388 0.0
H1024 H 0.71783 0.63238 0.15154 0.0
H1025 H 0.74804 0.60892 0.15705 0.0
H1026 H 0.71419 0.60005 0.1767 0.0
H1027 H 0.67888 0.50449 0.12293 0.0
H1028 H 0.72424 0.47966 0.1301 0.0
H1029 H 0.76963 0.56041 0.12658 0.0
C1030 C 0.66334 0.61559 0.11124 0.0
C1031 C 0.63371 0.60933 0.10649 0.0
C1032 C 0.62512 0.58041 0.10657 0.0
C1033 C 0.64497 0.5583 0.11155 0.0
C1034 C 0.67379 0.56506 0.11606 0.0
C1035 C 0.68322 0.59289 0.11549 0.0
C1036 C 0.71586 0.59361 0.11957 0.0
C1037 C 0.72981 0.60686 0.08688 0.0
C1038 C 0.72449 0.6097 0.15322 0.0
C1039 C 0.72312 0.56187 0.12261 0.0
C1040 C 0.69821 0.5461 0.121 0.0
C1041 C 0.69852 0.51662 0.12401 0.0
C1042 C 0.72478 0.50266 0.1283 0.0
C1043 C 0.75118 0.51771 0.12906 0.0
C1044 C 0.75014 0.54802 0.12621 0.0
H1045 H 0.051 0.72403 0.14663 0.0
H1046 H 0.99505 0.78874 0.10262 0.0
H1047 H 0.95774 0.75236 0.09311 0.0
H1048 H 0.03144 0.6683 0.08771 0.0
H1049 H 0.03275 0.64028 0.12011 0.0
H1050 H 0.05468 0.6715 0.12549 0.0
H1051 H 0.0328 0.6804 0.18697 0.0
H1052 H 1.01094 0.64906 0.18194 0.0
H1053 H 0.99454 0.68294 0.19143 0.0
H1054 H 0.92718 0.70794 0.08431 0.0
H1055 H 0.90486 0.66043 0.08099 0.0
H1056 H 0.97928 0.62354 0.13204 0.0
C1057 C 0.03071 0.73076 0.13564 0.0
C1058 C 1.0262 0.75973 0.12571 0.0
C1059 C 0.9993 0.76707 0.11083 0.0
C1060 C 0.97788 0.74638 0.10515 0.0
C1061 C 0.98324 0.71809 0.11454 0.0
C1062 C 1.0089 0.71029 0.12989 0.0
C1063 C 1.00931 0.67825 0.13702 0.0
C1064 C 0.03348 0.66373 0.11635 0.0
C1065 C 1.01206 0.67231 0.1767 0.0
C1066 C 0.98001 0.66919 0.12307 0.0
C1067 C 0.96543 0.69257 0.11004 0.0
C1068 C 0.93842 0.6896 0.09468 0.0
C1069 C 0.92592 0.66232 0.09269 0.0
C1070 C 0.94005 0.63782 0.10613 0.0
C1071 C 0.96757 0.64162 0.12174 0.0
H1072 H 0.76878 0.99543 0.61167 0.0
H1073 H 0.72881 0.0644 0.67004 0.0
H1074 H 0.68292 0.04004 0.66674 0.0
H1075 H 0.70937 0.98013 0.55415 0.0
H1076 H 0.71286 0.94192 0.55561 0.0
H1077 H 0.74381 0.96413 0.5623 0.0
H1078 H 0.75362 0.9396 0.6221 0.0
H1079 H 0.7228 0.91717 0.61548 0.0
H1080 H 0.72581 0.9385 0.6548 0.0
H1081 H 0.63983 1.01113 0.654 0.0
H1082 H 0.60298 0.97568 0.63846 0.0
H1083 H 0.66809 0.92149 0.59271 0.0
C1084 C 0.75049 1.00518 0.62421 0.0
C1085 C 0.75309 0.03226 0.64108 0.0
C1086 C 0.72815 0.04395 0.65689 0.0
C1087 C 0.70159 0.03024 0.65511 0.0
C1088 C 0.69962 1.00415 0.63797 0.0
C1089 C 0.72336 0.99128 0.62336 0.0
C1090 C 0.71466 0.96259 0.60726 0.0
C1091 C 0.72053 0.96218 0.56746 0.0
C1092 C 0.73015 0.938 0.62603 0.0
C1093 C 0.68246 0.96187 0.61469 0.0
C1094 C 0.67443 0.98637 0.63215 0.0
C1095 C 0.64593 0.99168 0.64073 0.0
C1096 C 0.62504 0.97142 0.63166 0.0
C1097 C 0.6324 0.94567 0.61455 0.0
C1098 C 0.6617 0.94083 0.60606 0.0
H1099 H 0.6248 0.65618 0.57565 0.0
H1100 H 0.60248 0.61114 0.67153 0.0
H1101 H 0.56981 0.64992 0.68775 0.0
H1102 H 0.62289 0.72742 0.61299 0.0
H1103 H 0.60695 0.7439 0.57479 0.0
H1104 H 0.62891 0.71261 0.56982 0.0
H1105 H 0.58752 0.68686 0.53752 0.0
H1106 H 0.56557 0.71817 0.54214 0.0
H1107 H 0.55307 0.68438 0.5584 0.0
H1108 H 0.53855 0.69304 0.69409 0.0
H1109 H 0.51017 0.73715 0.68923 0.0
H1110 H 0.55171 0.75668 0.59021 0.0
C1111 C 0.61295 0.6544 0.59997 0.0
C1112 C 0.61689 0.63035 0.62247 0.0
C1113 C 0.60072 0.62928 0.65405 0.0
C1114 C 0.58182 0.65128 0.66351 0.0
C1115 C 0.57887 0.67472 0.64127 0.0
C1116 C 0.59384 0.6765 0.61005 0.0
C1117 C 0.58627 0.70426 0.59105 0.0
C1118 C 0.61284 0.72316 0.58692 0.0
C1119 C 0.57228 0.69804 0.55514 0.0
C1120 C 0.56483 0.71768 0.61649 0.0
C1121 C 0.56092 0.70006 0.64521 0.0
C1122 C 0.54162 0.70705 0.6718 0.0
C1123 C 0.52558 0.73232 0.66886 0.0
C1124 C 0.52883 0.75091 0.63972 0.0
C1125 C 0.5491 0.74345 0.61332 0.0
H1126 H 0.91446 0.60577 0.56481 0.0
H1127 H 0.95227 0.5917 0.66819 0.0
H1128 H 0.91238 0.56046 0.68357 0.0
H1129 H 0.84069 0.60867 0.59638 0.0
H1130 H 0.82601 0.59083 0.55835 0.0
H1131 H 0.8581 0.61177 0.55427 0.0
H1132 H 0.88466 0.56823 0.52838 0.0
H1133 H 0.85264 0.54721 0.53232 0.0
H1134 H 0.88536 0.53528 0.55273 0.0
H1135 H 0.86936 0.52817 0.68765 0.0
H1136 H 0.82496 0.50006 0.68088 0.0
H1137 H 0.811 0.53755 0.57797 0.0
C1138 C 0.91442 0.59639 0.59082 0.0
C1139 C 0.93761 0.60116 0.61474 0.0
C1140 C 0.93595 0.58802 0.64846 0.0
C1141 C 0.91295 0.57029 0.6578 0.0
C1142 C 0.89091 0.56586 0.63362 0.0
C1143 C 0.8912 0.57874 0.60092 0.0
C1144 C 0.86432 0.57057 0.5802 0.0
C1145 C 0.84621 0.59704 0.5718 0.0
C1146 C 0.87223 0.55436 0.5464 0.0
C1147 C 0.84906 0.55109 0.60632 0.0
C1148 C 0.86505 0.54851 0.63685 0.0
C1149 C 0.85648 0.53045 0.66408 0.0
C1150 C 0.83113 0.51455 0.66006 0.0
C1151 C 0.81397 0.51705 0.62941 0.0
C1152 C 0.82311 0.5358 0.60224 0.0
H1153 H 0.97859 0.93578 0.6316 0.0
H1154 H 0.90684 0.9002 0.57376 0.0
H1155 H 0.92913 0.85267 0.57684 0.0
H1156 H 0.03294 0.89201 0.58978 0.0
H1157 H 0.05423 0.88794 0.62913 0.0
H1158 H 0.03248 0.91927 0.62322 0.0
H1159 H 1.0075 0.90927 0.68262 0.0
H1160 H 1.02909 0.87782 0.68859 0.0
H1161 H 0.99066 0.87526 0.68976 0.0
H1162 H 0.95899 0.80806 0.58662 0.0
H1163 H 0.9953 0.77115 0.5983 0.0
H1164 H 0.04936 0.8344 0.64863 0.0
C1165 C 0.96747 0.918 0.61968 0.0
C1166 C 0.9407 0.92223 0.60224 0.0
C1167 C 0.92735 0.89807 0.58682 0.0
C1168 C 0.93982 0.87075 0.58868 0.0
C1169 C 0.96604 0.86737 0.60593 0.0
C1170 C 0.9799 0.89038 0.62091 0.0
C1171 C 1.00842 0.88084 0.63688 0.0
C1172 C 0.0335 0.89591 0.61866 0.0
C1173 C 1.00894 0.88612 0.67684 0.0
C1174 C 1.00837 0.84896 0.62864 0.0
C1175 C 0.98354 0.84169 0.61099 0.0
C1176 C 0.97848 0.81364 0.60041 0.0
C1177 C 0.99936 0.79265 0.60734 0.0
C1178 C 1.02546 0.79937 0.62467 0.0
C1179 C 0.02968 0.82813 0.6357 0.0
H1180 H 0.12617 0.07689 0.92288 0.0
H1181 H 0.16715 0.15977 0.92296 0.0
H1182 H 0.21386 0.13664 0.91338 0.0
H1183 H 0.18249 0.03923 0.96888 0.0
H1184 H 0.17872 1.00705 0.94342 0.0
H1185 H 0.14836 0.03006 0.9498 0.0
H1186 H 0.14139 0.03346 0.88225 0.0
H1187 H 0.17182 1.01054 0.87572 0.0
H1188 H 0.17067 0.0451 0.85511 0.0
H1189 H 0.25729 0.10405 0.90654 0.0
H1190 H 0.29277 0.06522 0.90113 0.0
H1191 H 0.22426 1.00313 0.90332 0.0
C1192 C 0.14493 0.09027 0.92102 0.0
C1193 C 0.14252 0.12047 0.92367 0.0
C1194 C 0.16792 0.13681 0.92058 0.0
C1195 C 0.19476 0.12377 0.91533 0.0
C1196 C 0.1963 0.09413 0.91288 0.0
C1197 C 0.17201 0.07755 0.91546 0.0
C1198 C 0.17964 0.04607 0.91183 0.0
C1199 C 0.17184 0.02964 0.94548 0.0
C1200 C 0.165 0.03302 0.87929 0.0
C1201 C 0.21196 0.04751 0.90702 0.0
C1202 C 0.22115 0.07546 0.9079 0.0
C1203 C 0.25019 0.08214 0.90547 0.0
C1204 C 0.27029 0.05986 0.90235 0.0
C1205 C 0.26156 0.03096 0.90118 0.0
C1206 C 0.2318 1.02492 0.9033 0.0
H1207 H 0.44695 0.14962 0.95426 0.0
H1208 H 0.46994 0.10759 0.85647 0.0
H1209 H 0.50027 0.14819 0.84068 0.0
H1210 H 0.44502 0.22179 0.91913 0.0
H1211 H 0.46088 0.23823 0.95741 0.0
H1212 H 0.44041 0.20595 0.96198 0.0
H1213 H 0.48338 0.18138 0.99244 0.0
H1214 H 0.50386 0.21367 0.98827 0.0
H1215 H 0.51755 0.18075 0.97067 0.0
H1216 H 0.52879 0.19251 0.83462 0.0
H1217 H 0.55588 0.23722 0.84019 0.0
H1218 H 0.51614 0.25342 0.94124 0.0
C1219 C 0.45849 0.14889 0.92963 0.0
C1220 C 0.45537 0.12514 0.90641 0.0
C1221 C 0.47109 0.12544 0.87448 0.0
C1222 C 0.48862 0.14851 0.86525 0.0
C1223 C 0.4907 0.17164 0.88809 0.0
C1224 C 0.4763 0.1721 0.91978 0.0
C1225 C 0.48299 0.19983 0.93945 0.0
C1226 C 0.45569 0.21749 0.94481 0.0
C1227 C 0.49783 0.19352 0.97481 0.0
C1228 C 0.50339 0.21466 0.91388 0.0
C1229 C 0.50732 0.1978 0.88444 0.0
C1230 C 0.5257 0.20595 0.85745 0.0
C1231 C 0.54096 0.23157 0.86078 0.0
C1232 C 0.53788 0.24936 0.89069 0.0
C1233 C 0.51843 0.24084 0.91751 0.0
H1234 H 0.40904 0.43412 0.94392 0.0
H1235 H 0.4613 0.47145 0.8618 0.0
H1236 H 0.42267 0.5051 0.84766 0.0
H1237 H 0.34131 0.43988 0.89715 0.0
H1238 H 0.32059 0.44924 0.93538 0.0
H1239 H 0.35239 0.42787 0.9402 0.0
H1240 H 0.37299 0.46419 0.98478 0.0
H1241 H 0.34115 0.48555 0.98026 0.0
H1242 H 0.37573 0.50115 0.97239 0.0
H1243 H 0.37887 0.53552 0.84184 0.0
H1244 H 0.33297 0.56106 0.8454 0.0
H1245 H 0.30621 0.50519 0.93004 0.0
C1246 C 0.41243 0.4495 0.92313 0.0
C1247 C 0.43858 0.44958 0.90379 0.0
C1248 C 0.44166 0.47023 0.87672 0.0
C1249 C 0.41973 0.48968 0.86851 0.0
C1250 C 0.39427 0.4887 0.88743 0.0
C1251 C 0.39039 0.46924 0.91429 0.0
C1252 C 0.36055 0.47305 0.93018 0.0
C1253 C 0.34265 0.44589 0.92544 0.0
C1254 C 0.36274 0.48148 0.96922 0.0
C1255 C 0.34842 0.49756 0.90802 0.0
C1256 C 0.36848 0.50619 0.88365 0.0
C1257 C 0.363 0.5288 0.86074 0.0
C1258 C 0.33667 0.54322 0.86293 0.0
C1259 C 0.31548 0.53517 0.88759 0.0
C1260 C 0.32153 0.51167 0.91031 0.0
H1261 H 0.08743 0.43013 0.92791 0.0
H1262 H 0.16922 0.3905 0.90595 0.0
H1263 H 0.14541 0.34397 0.89942 0.0
H1264 H 0.05703 0.3707 0.97759 0.0
H1265 H 1.02156 0.37506 0.9597 0.0
H1266 H 0.04493 0.40539 0.96368 0.0
H1267 H 0.03859 0.41581 0.89718 0.0
H1268 H 1.01527 0.38547 0.89301 0.0
H1269 H 0.04647 0.3883 0.86554 0.0
H1270 H 0.11267 0.30071 0.89567 0.0
H1271 H 0.0737 0.26514 0.89389 0.0
H1272 H 1.0122 0.33189 0.91603 0.0
C1273 C 0.10038 0.41163 0.92203 0.0
C1274 C 0.13047 0.4144 0.91736 0.0
C1275 C 0.14628 0.3894 0.90929 0.0
C1276 C 0.13288 0.36268 0.90565 0.0
C1277 C 0.10333 0.36075 0.90992 0.0
C1278 C 0.08719 0.38458 0.91789 0.0
C1279 C 0.05561 0.37654 0.92031 0.0
C1280 C 0.04411 0.38227 0.95754 0.0
C1281 C 0.03795 0.39248 0.89234 0.0
C1282 C 0.05658 0.34462 0.91252 0.0
C1283 C 0.08439 0.33595 0.90683 0.0
C1284 C 0.09082 0.3074 0.89992 0.0
C1285 C 0.06844 0.28723 0.89891 0.0
C1286 C 0.03962 0.29542 0.90438 0.0
C1287 C 0.03383 0.32473 0.91117 0.0
H1288 H 0.74045 0.33158 0.24481 0.0
H1289 H 0.71314 0.24391 0.238 0.0
H1290 H 0.75692 0.23182 0.20717 0.0
H1291 H 0.79471 0.33026 0.16302 0.0
H1292 H 0.81993 0.35063 0.18883 0.0
H1293 H 0.78216 0.35737 0.19286 0.0
H1294 H 0.78386 0.3504 0.25936 0.0
H1295 H 0.8213 0.34463 0.25665 0.0
H1296 H 0.79899 0.31801 0.27703 0.0
H1297 H 0.80576 0.22444 0.19584 0.0
H1298 H 0.85376 0.2208 0.22079 0.0
H1299 H 0.85399 0.31156 0.23999 0.0
C1300 C 0.74299 0.31032 0.23426 0.0
C1301 C 0.7235 0.28881 0.2436 0.0
C1302 C 0.72735 0.26101 0.23035 0.0
C1303 C 0.7522 0.25394 0.21214 0.0
C1304 C 0.7727 0.27491 0.20623 0.0
C1305 C 0.76827 0.30283 0.21691 0.0
C1306 C 0.79631 0.31888 0.21908 0.0
C1307 C 0.79845 0.34053 0.18904 0.0
C1308 C 0.80032 0.33372 0.25519 0.0
C1309 C 0.81719 0.29464 0.21357 0.0
C1310 C 0.80319 0.27007 0.20301 0.0
C1311 C 0.81699 0.2437 0.20288 0.0
C1312 C 0.84432 0.24172 0.21757 0.0
C1313 C 0.85697 0.26578 0.23355 0.0
C1314 C 0.84472 0.29287 0.22789 0.0
H1315 H 0.35598 0.77591 0.40665 0.0
H1316 H 0.37326 0.74294 0.30222 0.0
H1317 H 0.40719 0.78173 0.29202 0.0
H1318 H 0.34639 0.83938 0.37175 0.0
H1319 H 0.35718 0.86058 0.40864 0.0
H1320 H 0.34407 0.8253 0.4158 0.0
H1321 H 0.38907 0.8111 0.44892 0.0
H1322 H 0.40438 0.84579 0.44307 0.0
H1323 H 0.42389 0.81502 0.42846 0.0
H1324 H 0.42526 0.83022 0.28511 0.0
H1325 H 0.4175 0.88187 0.28095 0.0
H1326 H 0.39805 0.88476 0.39185 0.0
C1327 C 0.36759 0.77632 0.38203 0.0
C1328 C 0.36204 0.75611 0.35541 0.0
C1329 C 0.37746 0.7577 0.32343 0.0
C1330 C 0.39704 0.7797 0.31746 0.0
C1331 C 0.40116 0.80006 0.34373 0.0
C1332 C 0.3868 0.79848 0.37554 0.0
C1333 C 0.38776 0.8266 0.39479 0.0
C1334 C 0.35711 0.83869 0.39795 0.0
C1335 C 0.40217 0.82438 0.43097 0.0
C1336 C 0.40565 0.844 0.36971 0.0
C1337 C 0.41291 0.82851 0.33998 0.0
C1338 C 0.42065 0.84226 0.30873 0.0
C1339 C 0.4169 0.87191 0.30667 0.0
C1340 C 0.405 0.88676 0.33559 0.0
C1341 C 0.40596 0.87362 0.3689 0.0
H1342 H 0.32059 0.68306 0.23203 0.0
H1343 H 0.30867 0.7604 0.29213 0.0
H1344 H 0.26446 0.74093 0.31691 0.0
H1345 H 0.26076 0.67981 0.19948 0.0
H1346 H 0.25356 0.64205 0.20034 0.0
H1347 H 0.28955 0.65426 0.20155 0.0
H1348 H 0.2987 0.62678 0.25949 0.0
H1349 H 0.26236 0.61394 0.25792 0.0
H1350 H 0.27542 0.632 0.29656 0.0
H1351 H 0.21728 0.72232 0.31999 0.0
H1352 H 0.17286 0.7167 0.28772 0.0
H1353 H 0.21008 0.64849 0.22654 0.0
C1354 C 0.30954 0.69507 0.25213 0.0
C1355 C 0.31808 0.72313 0.26025 0.0
C1356 C 0.30241 0.7389 0.28529 0.0
C1357 C 0.27747 0.72772 0.29998 0.0
C1358 C 0.26846 0.70057 0.28979 0.0
C1359 C 0.28422 0.6843 0.26639 0.0
C1360 C 0.2665 0.66004 0.2516 0.0
C1361 C 0.26762 0.65909 0.21089 0.0
C1362 C 0.27633 0.63151 0.26734 0.0
C1363 C 0.23719 0.66823 0.26544 0.0
C1364 C 0.23936 0.68995 0.29012 0.0
C1365 C 0.21539 0.70515 0.30109 0.0
C1366 C 0.1898 0.7016 0.2825 0.0
C1367 C 0.18868 0.68329 0.25287 0.0
C1368 C 0.21104 0.66342 0.24822 0.0
H1369 H 0.6849 0.35908 0.04704 0.0
H1370 H 0.63315 0.36915 0.13969 0.0
H1371 H 0.62584 0.31763 0.14218 0.0
H1372 H 0.67052 0.27747 0.02059 0.0
H1373 H 0.70849 0.2767 0.01455 0.0
H1374 H 0.68808 0.30818 0.00402 0.0
H1375 H 0.72636 0.33354 0.04463 0.0
H1376 H 0.74144 0.3007 0.05919 0.0
H1377 H 0.72654 0.32498 0.09095 0.0
H1378 H 0.64846 0.27371 0.15916 0.0
H1379 H 0.68532 0.23934 0.17616 0.0
H1380 H 0.7286 0.25368 0.07683 0.0
C1381 C 0.67055 0.35048 0.0666 0.0
C1382 C 0.66259 0.36715 0.09586 0.0
C1383 C 0.64141 0.35615 0.11846 0.0
C1384 C 0.63762 0.32661 0.12038 0.0
C1385 C 0.65444 0.30942 0.09863 0.0
C1386 C 0.67 0.32098 0.07093 0.0
C1387 C 0.69427 0.30141 0.06007 0.0
C1388 C 0.69014 0.29023 0.02257 0.0
C1389 C 0.72381 0.31604 0.064 0.0
C1390 C 0.69089 0.27804 0.0868 0.0
C1391 C 0.66798 0.28294 0.10887 0.0
C1392 C 0.66537 0.2686 0.14086 0.0
C1393 C 0.6866 0.24904 0.15041 0.0
C1394 C 0.70992 0.24348 0.12772 0.0
C1395 C 0.71121 0.25742 0.09495 0.0
H1396 H 0.24172 0.83368 0.52603 0.0
H1397 H 0.21281 0.74643 0.52385 0.0
H1398 H 0.24591 0.73587 0.47608 0.0
H1399 H 0.27758 0.82398 0.42002 0.0
H1400 H 0.30209 0.85114 0.43463 0.0
H1401 H 0.26459 0.85446 0.44391 0.0
H1402 H 0.27947 0.86202 0.50823 0.0
H1403 H 0.31624 0.85538 0.4991 0.0
H1404 H 0.29806 0.83431 0.53191 0.0
H1405 H 0.2939 0.72757 0.46333 0.0
H1406 H 0.33731 0.72411 0.49748 0.0
H1407 H 0.34463 0.81565 0.49903 0.0
C1408 C 0.24147 0.81292 0.51369 0.0
C1409 C 0.22573 0.79071 0.5291 0.0
C1410 C 0.2256 0.76357 0.51312 0.0
C1411 C 0.24396 0.7576 0.48525 0.0
C1412 C 0.26274 0.77879 0.47385 0.0
C1413 C 0.26032 0.80668 0.486 0.0
C1414 C 0.28697 0.82333 0.47702 0.0
C1415 C 0.28257 0.83906 0.44179 0.0
C1416 C 0.29575 0.8449 0.50591 0.0
C1417 C 0.30763 0.7986 0.47237 0.0
C1418 C 0.29258 0.77363 0.46489 0.0
C1419 C 0.30553 0.74694 0.46904 0.0
C1420 C 0.33057 0.74504 0.48891 0.0
C1421 C 0.34279 0.76992 0.50321 0.0
C1422 C 0.33413 0.79656 0.48968 0.0
H1423 H 0.67201 0.17384 0.60893 0.0
H1424 H 0.63862 0.18194 0.71423 0.0
H1425 H 0.62242 0.23026 0.70088 0.0
H1426 H 0.70945 0.22237 0.60867 0.0
H1427 H 0.7059 0.23856 0.56577 0.0
H1428 H 0.69651 0.20216 0.57136 0.0
H1429 H 0.64642 0.21135 0.54733 0.0
H1430 H 0.6546 0.2485 0.54092 0.0
H1431 H 0.62393 0.23807 0.56667 0.0
H1432 H 0.63747 0.27811 0.69281 0.0
H1433 H 0.67079 0.31744 0.68557 0.0
H1434 H 0.69548 0.28448 0.58345 0.0
C1435 C 0.65926 0.18511 0.62813 0.0
C1436 C 0.65792 0.17508 0.6631 0.0
C1437 C 0.64054 0.18969 0.68746 0.0
C1438 C 0.63147 0.21743 0.68003 0.0
C1439 C 0.63933 0.2296 0.64788 0.0
C1440 C 0.65159 0.21338 0.62129 0.0
C1441 C 0.66505 0.23225 0.59342 0.0
C1442 C 0.69604 0.22331 0.58444 0.0
C1443 C 0.64639 0.23263 0.56008 0.0
C1444 C 0.66391 0.2607 0.61214 0.0
C1445 C 0.64758 0.25906 0.64248 0.0
C1446 C 0.64895 0.2802 0.66826 0.0
C1447 C 0.66823 0.30262 0.66395 0.0
C1448 C 0.68595 0.30407 0.63385 0.0
C1449 C 0.68237 0.28375 0.60682 0.0
H1450 H 0.85276 0.24443 0.73667 0.0
H1451 H 0.86351 0.335 0.72212 0.0
H1452 H 0.81779 0.33718 0.69061 0.0
H1453 H 0.79688 0.23747 0.65119 0.0
H1454 H 0.77729 0.21103 0.67529 0.0
H1455 H 0.81591 0.21074 0.67599 0.0
H1456 H 0.81709 0.21231 0.74317 0.0
H1457 H 0.7792 0.21133 0.7445 0.0
H1458 H 0.79784 0.23993 0.76632 0.0
H1459 H 0.76745 0.33545 0.6966 0.0
H1460 H 0.72131 0.32817 0.725 0.0
H1461 H 0.73965 0.23835 0.73479 0.0
C1462 C 0.84641 0.26424 0.72446 0.0
C1463 C 0.86092 0.28966 0.73296 0.0
C1464 C 0.85219 0.31534 0.71681 0.0
C1465 C 0.82623 0.31668 0.69851 0.0
C1466 C 0.80967 0.29203 0.69592 0.0
C1467 C 0.82023 0.26571 0.70646 0.0
C1468 C 0.79635 0.24392 0.70854 0.0
C1469 C 0.79667 0.22465 0.67582 0.0
C1470 C 0.7977 0.22595 0.74268 0.0
C1471 C 0.77068 0.26357 0.70717 0.0
C1472 C 0.77866 0.29082 0.69709 0.0
C1473 C 0.76042 0.314 0.70199 0.0
C1474 C 0.73435 0.30975 0.71896 0.0
C1475 C 0.72724 0.2827 0.73252 0.0
C1476 C 0.74443 0.25906 0.72389 0.0
H1477 H 0.17665 0.84802 0.78876 0.0
H1478 H 0.23967 0.86917 0.71017 0.0
H1479 H 0.2326 0.8226 0.6824 0.0
H1480 H 0.19755 0.79482 0.81474 0.0
H1481 H 0.16686 0.77185 0.81937 0.0
H1482 H 0.16189 0.80931 0.81852 0.0
H1483 H 0.1268 0.80439 0.7668 0.0
H1484 H 0.13173 0.76627 0.76675 0.0
H1485 H 0.13726 0.78644 0.72704 0.0
H1486 H 0.24046 0.77218 0.68575 0.0
H1487 H 0.25591 0.72767 0.71381 0.0
H1488 H 0.18778 0.73567 0.78977 0.0
C1489 C 0.18736 0.84362 0.7642 0.0
C1490 C 0.20961 0.86153 0.75261 0.0
C1491 C 0.22314 0.8553 0.72028 0.0
C1492 C 0.21907 0.8288 0.70416 0.0
C1493 C 0.2009 0.80916 0.72023 0.0
C1494 C 0.18378 0.81686 0.74851 0.0
C1495 C 0.17152 0.79074 0.76649 0.0
C1496 C 0.17479 0.79177 0.80709 0.0
C1497 C 0.13998 0.78671 0.75612 0.0
C1498 C 0.18982 0.76787 0.7498 0.0
C1499 C 0.20501 0.77848 0.72139 0.0
C1500 C 0.22791 0.76336 0.70699 0.0
C1501 C 0.23688 0.73821 0.72344 0.0
C1502 C 0.22331 0.72862 0.75443 0.0
C1503 C 0.19819 0.74236 0.7658 0.0
H1504 H 0.69625 0.20396 0.45069 0.0
H1505 H 0.62401 0.16148 0.49899 0.0
H1506 H 0.65703 0.13212 0.53432 0.0
H1507 H 0.74044 0.14122 0.44359 0.0
H1508 H 0.7736 0.15908 0.45352 0.0
H1509 H 0.74462 0.17845 0.43327 0.0
H1510 H 0.74592 0.21541 0.48391 0.0
H1511 H 0.77515 0.19626 0.504 0.0
H1512 H 0.7432 0.20336 0.52885 0.0
H1513 H 0.69738 0.10694 0.5648 0.0
H1514 H 0.74241 0.08645 0.58701 0.0
H1515 H 0.79052 0.14203 0.51797 0.0
C1516 C 0.6874 0.1886 0.46888 0.0
C1517 C 0.65723 0.18523 0.47188 0.0
C1518 C 0.6468 0.16456 0.49582 0.0
C1519 C 0.66548 0.14775 0.51621 0.0
C1520 C 0.6949 0.15127 0.51231 0.0
C1521 C 0.70594 0.17107 0.48917 0.0
C1522 C 0.73863 0.16956 0.4894 0.0
C1523 C 0.74999 0.16161 0.45276 0.0
C1524 C 0.75148 0.19783 0.50231 0.0
C1525 C 0.74414 0.14567 0.51596 0.0
C1526 C 0.71845 0.13581 0.52907 0.0
C1527 C 0.71756 0.11442 0.5545 0.0
C1528 C 0.7434 0.10286 0.56701 0.0
C1529 C 0.7702 0.11224 0.55415 0.0
C1530 C 0.77047 0.13393 0.52795 0.0
H1531 H 0.46459 0.73754 0.56401 0.0
H1532 H 0.43913 0.80554 0.49311 0.0
H1533 H 0.41554 0.77001 0.45451 0.0
H1534 H 0.47703 0.68685 0.48726 0.0
H1535 H 0.46629 0.65552 0.51108 0.0
H1536 H 0.48294 0.68477 0.53415 0.0
H1537 H 0.43781 0.69095 0.57682 0.0
H1538 H 0.42752 0.65818 0.55576 0.0
H1539 H 0.40299 0.68723 0.55614 0.0
H1540 H 0.3892 0.73148 0.42799 0.0
H1541 H 0.36394 0.68816 0.41093 0.0
H1542 H 0.40691 0.64131 0.49424 0.0
C1543 C 0.45402 0.74494 0.54029 0.0
C1544 C 0.45363 0.77462 0.53171 0.0
C1545 C 0.43988 0.78323 0.50027 0.0
C1546 C 0.42632 0.76335 0.47824 0.0
C1547 C 0.42684 0.73468 0.48731 0.0
C1548 C 0.44057 0.72508 0.51726 0.0
C1549 C 0.43836 0.69242 0.51907 0.0
C1550 C 0.46791 0.6791 0.51251 0.0
C1551 C 0.42597 0.68175 0.55409 0.0
C1552 C 0.41809 0.68611 0.48823 0.0
C1553 C 0.41272 0.71097 0.46986 0.0
C1554 C 0.39364 0.71181 0.44174 0.0
C1555 C 0.37914 0.68692 0.43238 0.0
C1556 C 0.38323 0.66103 0.45094 0.0
C1557 C 0.40358 0.66051 0.47899 0.0
H1558 H 0.91076 0.38881 0.49461 0.0
H1559 H 0.86644 0.34628 0.40905 0.0
H1560 H 0.82178 0.37134 0.42485 0.0
H1561 H 0.85169 0.38378 0.55596 0.0
H1562 H 0.85863 0.41773 0.57639 0.0
H1563 H 0.88755 0.39779 0.55716 0.0
H1564 H 0.90037 0.44113 0.51813 0.0
H1565 H 0.8714 0.46113 0.53718 0.0
H1566 H 0.87334 0.45664 0.4901 0.0
H1567 H 0.78133 0.40207 0.4497 0.0
H1568 H 0.74825 0.43221 0.48454 0.0
H1569 H 0.8173 0.45214 0.55687 0.0
C1570 C 0.89169 0.38498 0.47906 0.0
C1571 C 0.8923 0.36564 0.45029 0.0
C1572 C 0.86664 0.36089 0.43115 0.0
C1573 C 0.84111 0.37515 0.43988 0.0
C1574 C 0.84112 0.39393 0.46841 0.0
C1575 C 0.86567 0.39858 0.48805 0.0
C1576 C 0.8594 0.41859 0.5187 0.0
C1577 C 0.86463 0.40357 0.55415 0.0
C1578 C 0.87719 0.446 0.51585 0.0
C1579 C 0.8277 0.42465 0.51302 0.0
C1580 C 0.81761 0.41047 0.48362 0.0
C1581 C 0.78908 0.41316 0.47283 0.0
C1582 C 0.77039 0.43046 0.49268 0.0
C1583 C 0.78003 0.44465 0.52342 0.0
C1584 C 0.80918 0.4416 0.53351 0.0
H1585 H 0.12581 0.76551 0.48903 0.0
H1586 H 0.10007 0.81114 0.58331 0.0
H1587 H 0.12425 0.85377 0.56245 0.0
H1588 H 0.1942 0.79802 0.47055 0.0
H1589 H 0.18774 0.80182 0.42435 0.0
H1590 H 0.16969 0.77424 0.44874 0.0
H1591 H 0.12206 0.79596 0.42392 0.0
H1592 H 0.14147 0.8244 0.40286 0.0
H1593 H 0.11349 0.83253 0.43373 0.0
H1594 H 0.15416 0.89006 0.53665 0.0
H1595 H 0.18301 0.9226 0.50108 0.0
H1596 H 0.18883 0.85885 0.41851 0.0
C1597 C 0.12532 0.78453 0.50512 0.0
C1598 C 0.11188 0.78427 0.53888 0.0
C1599 C 0.11108 0.81 0.55835 0.0
C1600 C 0.1246 0.83466 0.54652 0.0
C1601 C 0.13852 0.83406 0.51431 0.0
C1602 C 0.13838 0.81018 0.49306 0.0
C1603 C 0.15324 0.81726 0.45808 0.0
C1604 C 0.17763 0.79651 0.44995 0.0
C1605 C 0.13126 0.81755 0.42785 0.0
C1606 C 0.16444 0.84745 0.46525 0.0
C1607 C 0.15478 0.8566 0.49766 0.0
C1608 C 0.16154 0.88336 0.51098 0.0
C1609 C 0.17811 0.90171 0.49052 0.0
C1610 C 0.18832 0.89352 0.45695 0.0
C1611 C 0.18163 0.86572 0.4442 0.0
H1612 H 0.24842 0.95177 0.96393 0.0
H1613 H 0.31807 0.9277 0.03351 0.0
H1614 H 0.28517 0.89668 0.06695 0.0
H1615 H 0.19377 0.95454 0.03204 0.0
H1616 H 0.16589 0.9406 0.00404 0.0
H1617 H 0.19495 0.96051 0.98516 0.0
H1618 H 0.20614 0.91843 0.94347 0.0
H1619 H 0.1772 0.89829 0.96228 0.0
H1620 H 0.21282 0.88363 0.96176 0.0
H1621 H 0.24517 0.86635 0.09131 0.0
H1622 H 0.20051 0.84236 0.10843 0.0
H1623 H 0.15476 0.88795 0.0263 0.0
C1624 C 0.25669 0.94004 0.98632 0.0
C1625 C 0.28599 0.94225 0.99609 0.0
C1626 C 0.29583 0.92658 0.0256 0.0
C1627 C 0.27726 0.90876 0.04468 0.0
C1628 C 0.2486 0.90696 0.03436 0.0
C1629 C 0.23822 0.92245 0.00613 0.0
C1630 C 0.20626 0.91711 1.00119 0.0
C1631 C 0.18921 0.94484 0.00589 0.0
C1632 C 0.20026 0.90356 0.96503 0.0
C1633 C 0.20028 0.89616 0.03101 0.0
C1634 C 0.22519 0.89038 0.04943 0.0
C1635 C 0.22555 0.87096 0.07723 0.0
C1636 C 0.19996 0.85729 0.0867 0.0
C1637 C 0.17385 0.86318 0.06898 0.0
C1638 C 0.17417 0.88306 0.0407 0.0
H1639 H 0.69421 0.15491 0.01719 0.0
H1640 H 0.67483 0.17208 0.12651 0.0
H1641 H 0.64485 0.21306 0.10868 0.0
H1642 H 0.70007 0.22784 0.9904 0.0
H1643 H 0.68368 0.22309 0.94774 0.0
H1644 H 0.70233 0.19393 0.96842 0.0
H1645 H 0.65741 0.16231 0.9635 0.0
H1646 H 0.63847 0.19106 0.9423 0.0
H1647 H 0.624 0.17476 0.98133 0.0
H1648 H 0.61826 0.2541 0.07875 0.0
H1649 H 0.59916 0.29201 0.03985 0.0
H1650 H 0.63404 0.2483 0.94907 0.0
C1651 C 0.68353 0.1673 0.03729 0.0
C1652 C 0.68695 0.16023 0.07345 0.0
C1653 C 0.67276 0.1771 0.09885 0.0
C1654 C 0.65557 0.20045 0.08887 0.0
C1655 C 0.65271 0.20704 0.05314 0.0
C1656 C 0.66635 0.19096 0.02768 0.0
C1657 C 0.66033 0.20315 0.99114 0.0
C1658 C 0.68825 0.21257 0.97337 0.0
C1659 C 0.64409 0.18152 0.96821 0.0
C1660 C 0.64148 0.22867 0.99999 0.0
C1661 C 0.63719 0.2304 0.03594 0.0
C1662 C 0.62152 0.25284 0.05059 0.0
C1663 C 0.6107 0.27437 0.02824 0.0
C1664 C 0.61492 0.27327 0.99131 0.0
C1665 C 0.63018 0.24972 0.97713 0.0
H1666 H 0.2717 0.64153 0.01184 0.0
H1667 H 0.31787 0.57153 0.96406 0.0
H1668 H 0.36268 0.58854 0.99135 0.0
H1669 H 0.32615 0.69338 0.9982 0.0
H1670 H 0.32088 0.71214 0.03909 0.0
H1671 H 0.29157 0.69321 0.01899 0.0
H1672 H 0.28436 0.66431 0.07627 0.0
H1673 H 0.31353 0.68331 0.09665 0.0
H1674 H 0.31406 0.64496 0.09496 0.0
H1675 H 0.40315 0.61399 0.02124 0.0
H1676 H 0.43675 0.64626 0.05127 0.0
H1677 H 0.36624 0.70193 0.07922 0.0
C1678 C 0.29115 0.62942 0.00803 0.0
C1679 C 0.29109 0.6047 0.9864 0.0
C1680 C 0.31723 0.59014 0.98092 0.0
C1681 C 0.34286 0.59973 0.99628 0.0
C1682 C 0.34241 0.62429 0.01695 0.0
C1683 C 0.31728 0.63902 0.02295 0.0
C1684 C 0.32337 0.66579 0.04463 0.0
C1685 C 0.31499 0.69272 0.02399 0.0
C1686 C 0.30791 0.66451 0.08024 0.0
C1687 C 0.35575 0.66385 0.04955 0.0
C1688 C 0.36612 0.63956 0.03351 0.0
C1689 C 0.39521 0.63302 0.03398 0.0
C1690 C 0.41424 0.65162 0.0512 0.0
C1691 C 0.40447 0.67687 0.06782 0.0
C1692 C 0.37462 0.68291 0.06687 0.0
H1693 H 0.85646 0.36137 0.07621 0.0
H1694 H 0.91888 0.42803 0.05785 0.0
H1695 H 0.95185 0.39251 0.03262 0.0
H1696 H 0.90747 0.30565 0.10006 0.0
H1697 H 0.88802 0.27767 0.07803 0.0
H1698 H 0.86918 0.30805 0.0954 0.0
H1699 H 0.84711 0.31783 0.03399 0.0
H1700 H 0.8657 0.28736 0.01653 0.0
H1701 H 0.87028 0.32184 0.99649 0.0
H1702 H 0.97771 0.35028 0.00696 0.0
H1703 H 0.99419 0.3047 0.98191 0.0
H1704 H 0.91652 0.26364 0.01729 0.0
C1705 C 0.87711 0.36855 0.06702 0.0
C1706 C 0.88488 0.39785 0.06926 0.0
C1707 C 0.91217 0.40599 0.05663 0.0
C1708 C 0.93117 0.38584 0.04225 0.0
C1709 C 0.9229 0.35729 0.04055 0.0
C1710 C 0.8965 0.34857 0.05253 0.0
C1711 C 0.89281 0.31654 0.04683 0.0
C1712 C 0.88915 0.30106 0.08219 0.0
C1713 C 0.86747 0.31054 0.02198 0.0
C1714 C 0.92119 0.30866 0.02958 0.0
C1715 C 0.93816 0.33264 0.02633 0.0
C1716 C 0.96472 0.33137 0.00985 0.0
C1717 C 0.97401 0.30526 0.99581 0.0
C1718 C 0.95716 0.28027 0.99844 0.0
C1719 C 0.93041 0.28203 0.01595 0.0
H1720 H 0.4147 0.88934 0.52282 0.0
H1721 H 0.37188 0.85508 0.61453 0.0
H1722 H 0.32714 0.87868 0.5964 0.0
H1723 H 0.37624 0.9585 0.51955 0.0
H1724 H 0.37352 0.95877 0.47215 0.0
H1725 H 0.40308 0.94097 0.49338 0.0
H1726 H 0.39032 0.89514 0.45995 0.0
H1727 H 0.35987 0.91184 0.4394 0.0
H1728 H 0.35526 0.8798 0.46495 0.0
H1729 H 0.28632 0.90572 0.56878 0.0
H1730 H 0.2517 0.93178 0.5316 0.0
H1731 H 0.31826 0.94794 0.45499 0.0
C1732 C 0.39603 0.8873 0.53937 0.0
C1733 C 0.39712 0.87031 0.57048 0.0
C1734 C 0.37181 0.86772 0.59067 0.0
C1735 C 0.34619 0.88126 0.58065 0.0
C1736 C 0.34565 0.89757 0.54996 0.0
C1737 C 0.36981 0.90062 0.52941 0.0
C1738 C 0.36245 0.918 0.49644 0.0
C1739 C 0.37986 0.94571 0.49532 0.0
C1740 C 0.36727 0.90014 0.46316 0.0
C1741 C 0.33061 0.92417 0.5018 0.0
C1742 C 0.32159 0.91241 0.53318 0.0
C1743 C 0.29326 0.91511 0.54423 0.0
C1744 C 0.27363 0.93002 0.52282 0.0
C1745 C 0.28195 0.94217 0.49027 0.0
C1746 C 0.31103 0.93904 0.4797 0.0
H1747 H 0.69323 0.39635 0.5112 0.0
H1748 H 0.66079 0.39467 0.61779 0.0
H1749 H 0.63163 0.35217 0.60323 0.0
H1750 H 0.62581 0.3756 0.46848 0.0
H1751 H 0.64318 0.35449 0.43516 0.0
H1752 H 0.66136 0.38464 0.45418 0.0
H1753 H 0.70381 0.35202 0.47157 0.0
H1754 H 0.68559 0.32179 0.45282 0.0
H1755 H 0.69731 0.32088 0.49812 0.0
H1756 H 0.60692 0.30807 0.57693 0.0
H1757 H 0.58635 0.2693 0.54032 0.0
H1758 H 0.63295 0.30072 0.45001 0.0
C1759 C 0.67947 0.38735 0.53118 0.0
C1760 C 0.67883 0.39919 0.56553 0.0
C1761 C 0.66112 0.38636 0.59117 0.0
C1762 C 0.64463 0.36206 0.58315 0.0
C1763 C 0.64569 0.35082 0.54908 0.0
C1764 C 0.66238 0.36332 0.52334 0.0
C1765 C 0.65938 0.34728 0.48864 0.0
C1766 C 0.64667 0.36666 0.45992 0.0
C1767 C 0.68825 0.33475 0.47712 0.0
C1768 C 0.63851 0.32385 0.49881 0.0
C1769 C 0.63108 0.32604 0.5339 0.0
C1770 C 0.61249 0.3064 0.54936 0.0
C1771 C 0.60098 0.28429 0.52841 0.0
C1772 C 0.60802 0.28179 0.4923 0.0
C1773 C 0.62702 0.30202 0.47749 0.0
H1774 H 0.24732 0.60951 0.46481 0.0
H1775 H 0.31551 0.62685 0.53938 0.0
H1776 H 0.28206 0.65606 0.57493 0.0
H1777 H 0.21322 0.67845 0.46897 0.0
H1778 H 0.17744 0.66443 0.46575 0.0
H1779 H 0.2068 0.64539 0.44612 0.0
H1780 H 0.19351 0.60039 0.48173 0.0
H1781 H 0.16408 0.61922 0.50149 0.0
H1782 H 0.19078 0.60261 0.52902 0.0
H1783 H 0.24094 0.68513 0.6014 0.0
H1784 H 0.19566 0.70806 0.61895 0.0
H1785 H 0.1528 0.66996 0.52922 0.0
C1786 C 0.25523 0.61935 0.48872 0.0
C1787 C 0.28423 0.61575 0.49928 0.0
C1788 C 0.29351 0.62905 0.53079 0.0
C1789 C 0.27461 0.64581 0.55107 0.0
C1790 C 0.24622 0.64896 0.53987 0.0
C1791 C 0.2365 0.63582 0.50956 0.0
C1792 C 0.20483 0.64209 0.50364 0.0
C1793 C 0.20031 0.65857 0.46906 0.0
C1794 C 0.18727 0.61443 0.504 0.0
C1795 C 0.19805 0.66069 0.53548 0.0
C1796 C 0.2224 0.66473 0.55572 0.0
C1797 C 0.22183 0.68189 0.58574 0.0
C1798 C 0.19594 0.69506 0.59542 0.0
C1799 C 0.1705 0.69101 0.5756 0.0
C1800 C 0.1717 0.67335 0.54523 0.0
H1801 H 0.89237 0.14752 0.53703 0.0
H1802 H 0.85792 0.19271 0.62718 0.0
H1803 H 0.88151 0.2366 0.60758 0.0
H1804 H 0.96116 0.18494 0.53364 0.0
H1805 H 0.96217 0.18665 0.48622 0.0
H1806 H 0.94367 0.15787 0.50769 0.0
H1807 H 0.89753 0.17043 0.47322 0.0
H1808 H 0.91591 0.19925 0.45168 0.0
H1809 H 0.88341 0.2061 0.47558 0.0
H1810 H 0.90862 0.27638 0.57881 0.0
H1811 H 0.93578 0.30956 0.54118 0.0
H1812 H 0.95211 0.24108 0.46723 0.0
C1813 C 0.89004 0.16659 0.55278 0.0
C1814 C 0.87316 0.16627 0.58395 0.0
C1815 C 0.87048 0.19203 0.60329 0.0
C1816 C 0.88395 0.21726 0.59239 0.0
C1817 C 0.90012 0.21698 0.56164 0.0
C1818 C 0.90316 0.19242 0.54188 0.0
C1819 C 0.92097 0.19866 0.50905 0.0
C1820 C 0.94863 0.18097 0.50917 0.0
C1821 C 0.90341 0.19329 0.47539 0.0
C1822 C 0.92742 0.23037 0.51366 0.0
C1823 C 0.91527 0.24035 0.54439 0.0
C1824 C 0.91821 0.26876 0.55468 0.0
C1825 C 0.93378 0.28753 0.53311 0.0
C1826 C 0.94627 0.27816 0.50121 0.0
C1827 C 0.94293 0.24904 0.49147 0.0
H1828 H 0.86588 0.20972 0.95985 0.0
H1829 H 0.93073 0.14346 0.96495 0.0
H1830 H 0.89556 0.11011 0.98812 0.0
H1831 H 0.82963 0.18907 0.0409 0.0
H1832 H 0.79407 0.1961 0.02469 0.0
H1833 H 0.824 0.21565 0.00731 0.0
H1834 H 0.81004 0.19979 0.94425 0.0
H1835 H 0.7802 0.18004 0.96157 0.0
H1836 H 0.80642 0.16237 0.9346 0.0
H1837 H 0.85509 0.08338 0.01333 0.0
H1838 H 0.81071 0.06516 0.03985 0.0
H1839 H 0.76893 0.14587 0.01912 0.0
C1840 C 0.87261 0.18818 0.9657 0.0
C1841 C 0.90161 0.17967 0.96031 0.0
C1842 C 0.90911 0.15109 0.96867 0.0
C1843 C 0.8891 0.13167 0.98189 0.0
C1844 C 0.86107 0.14058 0.98695 0.0
C1845 C 0.85259 0.1681 0.97928 0.0
C1846 C 0.82086 0.17168 0.98836 0.0
C1847 C 0.81692 0.19448 0.01701 0.0
C1848 C 0.80334 0.17891 0.95522 0.0
C1849 C 0.81321 0.142 1.00229 0.0
C1850 C 0.83696 0.12455 1.00107 0.0
C1851 C 0.83621 0.0967 0.01385 0.0
C1852 C 0.81078 0.0864 0.0287 0.0
C1853 C 0.78592 0.10352 0.03045 0.0
C1854 C 0.78717 0.13179 0.01684 0.0
H1855 H 0.39373 0.90807 1.00092 0.0
H1856 H 0.35348 0.86303 0.91426 0.0
H1857 H 0.3773 0.81855 0.93281 0.0
H1858 H 0.4614 0.86925 1.00171 0.0
H1859 H 0.46414 0.86796 0.04906 0.0
H1860 H 0.44542 0.89693 0.02803 0.0
H1861 H 0.40033 0.88568 0.06474 0.0
H1862 H 0.41894 0.85671 0.0859 0.0
H1863 H 0.38547 0.85028 0.0636 0.0
H1864 H 0.40643 0.77867 0.95972 0.0
H1865 H 0.43493 0.74552 0.99643 0.0
H1866 H 0.45348 0.81415 0.06942 0.0
C1867 C 0.39021 0.88887 0.98572 0.0
C1868 C 0.37189 0.88922 0.95576 0.0
C1869 C 0.36739 0.86343 0.93715 0.0
C1870 C 0.38093 0.83799 0.94746 0.0
C1871 C 0.39869 0.83822 0.97706 0.0
C1872 C 0.40308 0.86287 0.9963 0.0
C1873 C 0.42191 0.85662 0.02833 0.0
C1874 C 0.44988 0.87371 0.02667 0.0
C1875 C 0.40569 0.86269 0.06268 0.0
C1876 C 0.42752 0.8248 0.02386 0.0
C1877 C 0.4142 0.81476 0.99378 0.0
C1878 C 0.41678 0.78631 0.98345 0.0
C1879 C 0.43313 0.76759 0.00441 0.0
C1880 C 0.44644 0.77705 0.03586 0.0
C1881 C 0.44348 0.80615 0.04562 0.0
H1882 H 0.75097 0.47363 0.02494 0.0
H1883 H 0.81402 0.40639 0.03511 0.0
H1884 H 0.7807 0.37271 0.00673 0.0
H1885 H 0.68451 0.43994 0.0349 0.0
H1886 H 0.66737 0.45444 0.99682 0.0
H1887 H 0.69625 0.47341 0.01769 0.0
H1888 H 0.72149 0.47574 0.95793 0.0
H1889 H 0.69271 0.45597 0.93778 0.0
H1890 H 0.72895 0.44343 0.93407 0.0
H1891 H 0.74203 0.34621 0.97706 0.0
H1892 H 0.69928 0.32676 0.94917 0.0
H1893 H 0.65718 0.40894 0.95779 0.0
C1894 C 0.75771 0.45183 0.02081 0.0
C1895 C 0.78524 0.44257 0.03264 0.0
C1896 C 0.79332 0.41402 0.02643 0.0
C1897 C 0.77441 0.39469 0.01032 0.0
C1898 C 0.74749 0.40421 0.99942 0.0
C1899 C 0.73917 0.43223 0.00355 0.0
C1900 C 0.70974 0.43676 0.98614 0.0
C1901 C 0.6883 0.45191 0.01041 0.0
C1902 C 0.71345 0.45399 0.95197 0.0
C1903 C 0.70108 0.40605 0.97714 0.0
C1904 C 0.72418 0.38824 0.9831 0.0
C1905 C 0.72359 0.35977 0.97314 0.0
C1906 C 0.6988 0.34882 0.95739 0.0
C1907 C 0.67374 0.36554 0.95279 0.0
C1908 C 0.67525 0.39499 0.96231 0.0
H1909 H 0.14345 0.78861 1.00166 0.0
H1910 H 0.08243 0.74184 0.06494 0.0
H1911 H 0.10145 0.69662 0.04219 0.0
H1912 H 0.14391 0.73947 0.92534 0.0
H1913 H 0.18185 0.74248 0.9182 0.0
H1914 H 0.16236 0.77178 0.93722 0.0
H1915 H 0.19674 0.77175 0.99076 0.0
H1916 H 0.21625 0.74237 0.97198 0.0
H1917 H 0.20169 0.73945 0.01572 0.0
H1918 H 0.12702 0.65599 0.01405 0.0
H1919 H 0.15855 0.62226 0.98346 0.0
H1920 H 0.20602 0.69298 0.93899 0.0
C1921 C 0.13376 0.76884 0.01005 0.0
C1922 C 0.11093 0.76899 0.03477 0.0
C1923 C 0.09959 0.7425 0.04587 0.0
C1924 C 0.11032 0.71656 0.03308 0.0
C1925 C 0.13289 0.71698 0.00925 0.0
C1926 C 0.14467 0.74233 0.99781 0.0
C1927 C 0.16989 0.73618 0.97335 0.0
C1928 C 0.16416 0.7482 0.93633 0.0
C1929 C 0.1978 0.74815 0.98888 0.0
C1930 C 0.17028 0.70358 0.97294 0.0
C1931 C 0.14852 0.69315 0.99373 0.0
C1932 C 0.14413 0.66395 0.99769 0.0
C1933 C 0.16228 0.64484 0.98005 0.0
C1934 C 0.18504 0.65459 0.95862 0.0
C1935 C 0.189 0.68459 0.95519 0.0
loop_
_geom_bond_atom_site_label_1
_geom_bond_atom_site_label_2
_geom_bond_distance
_geom_bond_site_symmetry_2
_ccdc_geom_bond_type
C0 Eu1 2.835 . S
C0 C2 1.500 . S
C0 O20 1.257 . S
C0 O21 1.260 . S
Eu1 C0 2.835 . S
Eu1 O20 2.473 . S
Eu1 O21 2.480 . S
Eu1 O22 2.430 . S
Eu1 O23 2.670 . S
Eu1 O24 2.394 . S
Eu1 O29 2.355 . S
Eu1 O31 2.374 . S
C2 C0 1.500 . S
C2 C3 1.377 . S
C2 C7 1.377 . S
C3 C2 1.377 . S
C3 C4 1.395 . S
C3 H32 0.931 . S
C4 C3 1.395 . S
C4 C5 1.383 . S
C4 H33 0.931 . S
C5 C4 1.383 . S
C5 C6 1.394 . S
C6 C5 1.394 . S
C6 C7 1.378 . S
C6 H34 0.931 . S
C7 C2 1.377 . S
C7 C6 1.378 . S
C7 H35 0.931 . S
C8 O22 1.259 . S
C8 O23 1.270 . S
C9 O24 1.251 . S
C9 O25 1.251 . S
C10 Eu11 2.835 . S
C10 C12 1.500 . S
C10 O26 1.257 . S
C10 O27 1.260 . S
Eu11 C10 2.835 . S
Eu11 O23 2.355 . S
Eu11 O25 2.374 . S
Eu11 O26 2.473 . S
Eu11 O27 2.480 . S
Eu11 O28 2.430 . S
Eu11 O29 2.670 . S
Eu11 O30 2.394 . S
C12 C10 1.500 . S
C12 C13 1.377 . S
C12 C17 1.377 . S
C13 C12 1.377 . S
C13 C14 1.395 . S
C13 H36 0.931 . S
C14 C13 1.395 . S
C14 C15 1.383 . S
C14 H37 0.931 . S
C15 C14 1.383 . S
C15 C16 1.394 . S
C16 C15 1.394 . S
C16 C17 1.378 . S
C16 H38 0.931 . S
C17 C12 1.377 . S
C17 C16 1.378 . S
C17 H39 0.931 . S
C18 O28 1.259 . S
C18 O29 1.270 . S
C19 O30 1.251 . S
C19 O31 1.251 . S
O20 C0 1.257 . S
O20 Eu1 2.473 . S
O21 C0 1.260 . S
O21 Eu1 2.480 . S
O22 Eu1 2.430 . S
O22 C8 1.259 . S
O23 Eu1 2.670 . S
O23 C8 1.270 . S
O23 Eu11 2.355 . S
O24 Eu1 2.394 . S
O24 C9 1.251 . S
O25 C9 1.251 . S
O25 Eu11 2.374 . S
O26 C10 1.257 . S
O26 Eu11 2.473 . S
O27 C10 1.260 . S
O27 Eu11 2.480 . S
O28 Eu11 2.430 . S
O28 C18 1.259 . S
O29 Eu1 2.355 . S
O29 Eu11 2.670 . S
O29 C18 1.270 . S
O30 Eu11 2.394 . S
O30 C19 1.251 . S
O31 Eu1 2.374 . S
O31 C19 1.251 . S
H32 C3 0.931 . S
H33 C4 0.931 . S
H34 C6 0.931 . S
H35 C7 0.931 . S
H36 C13 0.931 . S
H37 C14 0.931 . S
H38 C16 0.931 . S
H39 C17 0.931 . S
C40 Eu41 2.835 . S
C40 C42 1.500 . S
C40 O60 1.257 . S
C40 O61 1.260 . S
Eu41 C40 2.835 . S
Eu41 O60 2.473 . S
Eu41 O61 2.480 . S
Eu41 O62 2.430 . S
Eu41 O63 2.670 . S
Eu41 O64 2.394 . S
Eu41 O69 2.355 . S
Eu41 O71 2.374 . S
C42 C40 1.500 . S
C42 C43 1.377 . S
C42 C47 1.377 . S
C43 C42 1.377 . S
C43 C44 1.395 . S
C43 H72 0.931 . S
C44 C43 1.395 . S
C44 C45 1.383 . S
C44 H73 0.931 . S
C45 C44 1.383 . S
C45 C46 1.394 . S
C46 C45 1.394 . S
C46 C47 1.378 . S
C46 H74 0.931 . S
C47 C42 1.377 . S
C47 C46 1.378 . S
C47 H75 0.931 . S
C48 O62 1.259 . S
C48 O63 1.270 . S
C49 O64 1.251 . S
C49 O65 1.251 . S
C50 Eu51 2.835 . S
C50 C52 1.500 . S
C50 O66 1.257 . S
C50 O67 1.260 . S
Eu51 C50 2.835 . S
Eu51 O63 2.355 . S
Eu51 O65 2.374 . S
Eu51 O66 2.473 . S
Eu51 O67 2.480 . S
Eu51 O68 2.430 . S
Eu51 O69 2.670 . S
Eu51 O70 2.394 . S
C52 C50 1.500 . S
C52 C53 1.377 . S
C52 C57 1.377 . S
C53 C52 1.377 . S
C53 C54 1.395 . S
C53 H76 0.931 . S
C54 C53 1.395 . S
C54 C55 1.383 . S
C54 H77 0.931 . S
C55 C54 1.383 . S
C55 C56 1.394 . S
C56 C55 1.394 . S
C56 C57 1.378 . S
C56 H78 0.931 . S
C57 C52 1.377 . S
C57 C56 1.378 . S
C57 H79 0.931 . S
C58 O68 1.259 . S
C58 O69 1.270 . S
C59 O70 1.251 . S
C59 O71 1.251 . S
O60 C40 1.257 . S
O60 Eu41 2.473 . S
O61 C40 1.260 . S
O61 Eu41 2.480 . S
O62 Eu41 2.430 . S
O62 C48 1.259 . S
O63 Eu41 2.670 . S
O63 C48 1.270 . S
O63 Eu51 2.355 . S
O64 Eu41 2.394 . S
O64 C49 1.251 . S
O65 C49 1.251 . S
O65 Eu51 2.374 . S
O66 C50 1.257 . S
O66 Eu51 2.473 . S
O67 C50 1.260 . S
O67 Eu51 2.480 . S
O68 Eu51 2.430 . S
O68 C58 1.259 . S
O69 Eu41 2.355 . S
O69 Eu51 2.670 . S
O69 C58 1.270 . S
O70 Eu51 2.394 . S
O70 C59 1.251 . S
O71 Eu41 2.374 . S
O71 C59 1.251 . S
H72 C43 0.931 . S
H73 C44 0.931 . S
H74 C46 0.931 . S
H75 C47 0.931 . S
H76 C53 0.931 . S
H77 C54 0.931 . S
H78 C56 0.931 . S
H79 C57 0.931 . S
C80 Eu81 2.835 1_455 S
C80 C82 1.500 . S
C80 O100 1.257 . S
C80 O101 1.260 . S
Eu81 C80 2.835 1_655 S
Eu81 O100 2.473 1_655 S
Eu81 O101 2.480 1_655 S
Eu81 O102 2.430 . S
Eu81 O103 2.670 . S
Eu81 O104 2.394 1_655 S
Eu81 O109 2.355 . S
Eu81 O111 2.374 . S
C82 C80 1.500 . S
C82 C83 1.377 . S
C82 C87 1.377 . S
C83 C82 1.377 . S
C83 C84 1.395 . S
C83 H112 0.931 . S
C84 C83 1.395 . S
C84 C85 1.383 . S
C84 H113 0.931 . S
C85 C84 1.383 . S
C85 C86 1.394 . S
C86 C85 1.394 . S
C86 C87 1.378 . S
C86 H114 0.931 . S
C87 C82 1.377 . S
C87 C86 1.378 . S
C87 H115 0.931 . S
C88 O102 1.259 . S
C88 O103 1.270 . S
C89 O104 1.248 1_655 S
C89 O105 1.266 . S
C90 Eu91 2.835 . S
C90 C92 1.500 . S
C90 O106 1.257 . S
C90 O107 1.260 . S
Eu91 C90 2.835 . S
Eu91 O103 2.355 . S
Eu91 O105 2.374 . S
Eu91 O106 2.473 . S
Eu91 O107 2.480 . S
Eu91 O108 2.430 . S
Eu91 O109 2.670 . S
Eu91 O110 2.394 . S
C92 C90 1.500 . S
C92 C93 1.377 . S
C92 C97 1.377 . S
C93 C92 1.377 . S
C93 C94 1.395 . S
C93 H116 0.931 . S
C94 C93 1.395 . S
C94 C95 1.383 . S
C94 H117 0.931 . S
C95 C94 1.383 . S
C95 C96 1.394 . S
C96 C95 1.394 . S
C96 C97 1.378 . S
C96 H118 0.931 . S
C97 C92 1.377 . S
C97 C96 1.378 . S
C97 H119 0.931 . S
C98 O108 1.259 . S
C98 O109 1.270 . S
C99 O110 1.251 . S
C99 O111 1.251 . S
O100 C80 1.257 . S
O100 Eu81 2.473 1_455 S
O101 C80 1.260 . S
O101 Eu81 2.480 1_455 S
O102 Eu81 2.430 . S
O102 C88 1.259 . S
O103 Eu81 2.670 . S
O103 C88 1.270 . S
O103 Eu91 2.355 . S
O104 Eu81 2.394 1_455 S
O104 C89 1.248 1_455 S
O105 C89 1.266 . S
O105 Eu91 2.374 . S
O106 C90 1.257 . S
O106 Eu91 2.473 . S
O107 C90 1.260 . S
O107 Eu91 2.480 . S
O108 Eu91 2.430 . S
O108 C98 1.259 . S
O109 Eu81 2.355 . S
O109 Eu91 2.670 . S
O109 C98 1.270 . S
O110 Eu91 2.394 . S
O110 C99 1.251 . S
O111 Eu81 2.374 . S
O111 C99 1.251 . S
H112 C83 0.931 . S
H113 C84 0.931 . S
H114 C86 0.931 . S
H115 C87 0.931 . S
H116 C93 0.931 . S
H117 C94 0.931 . S
H118 C96 0.931 . S
H119 C97 0.931 . S
C120 Eu121 2.835 1_545 S
C120 C122 1.500 . S
C120 O140 1.257 . S
C120 O141 1.260 . S
Eu121 C120 2.835 1_565 S
Eu121 O140 2.473 1_565 S
Eu121 O141 2.480 1_565 S
Eu121 O142 2.430 . S
Eu121 O143 2.670 . S
Eu121 O144 2.394 1_565 S
Eu121 O149 2.355 . S
Eu121 O151 2.374 . S
C122 C120 1.500 . S
C122 C123 1.377 . S
C122 C127 1.377 . S
C123 C122 1.377 . S
C123 C124 1.395 . S
C123 H152 0.931 . S
C124 C123 1.395 . S
C124 C125 1.383 . S
C124 H153 0.931 . S
C125 C124 1.383 . S
C125 C126 1.394 . S
C126 C125 1.394 . S
C126 C127 1.378 . S
C126 H154 0.931 . S
C127 C122 1.377 . S
C127 C126 1.378 . S
C127 H155 0.931 . S
C128 O142 1.259 . S
C128 O143 1.270 . S
C129 O144 1.248 1_565 S
C129 O145 1.266 . S
C130 Eu131 2.835 . S
C130 C132 1.500 . S
C130 O146 1.257 . S
C130 O147 1.260 . S
Eu131 C130 2.835 . S
Eu131 O143 2.355 . S
Eu131 O145 2.374 . S
Eu131 O146 2.473 . S
Eu131 O147 2.480 . S
Eu131 O148 2.430 . S
Eu131 O149 2.670 . S
Eu131 O150 2.394 . S
C132 C130 1.500 . S
C132 C133 1.377 . S
C132 C137 1.377 . S
C133 C132 1.377 . S
C133 C134 1.395 . S
C133 H156 0.931 . S
C134 C133 1.395 . S
C134 C135 1.383 . S
C134 H157 0.931 . S
C135 C134 1.383 . S
C135 C136 1.394 . S
C136 C135 1.394 . S
C136 C137 1.378 . S
C136 H158 0.931 . S
C137 C132 1.377 . S
C137 C136 1.378 . S
C137 H159 0.931 . S
C138 O148 1.259 . S
C138 O149 1.270 . S
C139 O150 1.251 . S
C139 O151 1.251 . S
O140 C120 1.257 . S
O140 Eu121 2.473 1_545 S
O141 C120 1.260 . S
O141 Eu121 2.480 1_545 S
O142 Eu121 2.430 . S
O142 C128 1.259 . S
O143 Eu121 2.670 . S
O143 C128 1.270 . S
O143 Eu131 2.355 . S
O144 Eu121 2.394 1_545 S
O144 C129 1.248 1_545 S
O145 C129 1.266 . S
O145 Eu131 2.374 . S
O146 C130 1.257 . S
O146 Eu131 2.473 . S
O147 C130 1.260 . S
O147 Eu131 2.480 . S
O148 Eu131 2.430 . S
O148 C138 1.259 . S
O149 Eu121 2.355 . S
O149 Eu131 2.670 . S
O149 C138 1.270 . S
O150 Eu131 2.394 . S
O150 C139 1.251 . S
O151 Eu121 2.374 . S
O151 C139 1.251 . S
H152 C123 0.931 . S
H153 C124 0.931 . S
H154 C126 0.931 . S
H155 C127 0.931 . S
H156 C133 0.931 . S
H157 C134 0.931 . S
H158 C136 0.931 . S
H159 C137 0.931 . S
C160 Eu161 2.835 1_655 S
C160 C162 1.500 . S
C160 O180 1.257 . S
C160 O181 1.260 . S
Eu161 C160 2.835 1_455 S
Eu161 O180 2.473 1_455 S
Eu161 O181 2.480 1_455 S
Eu161 O182 2.430 . S
Eu161 O183 2.670 . S
Eu161 O184 2.394 1_455 S
Eu161 O189 2.355 . S
Eu161 O191 2.374 . S
C162 C160 1.500 . S
C162 C163 1.377 . S
C162 C167 1.377 . S
C163 C162 1.377 . S
C163 C164 1.395 . S
C163 H192 0.931 . S
C164 C163 1.395 . S
C164 C165 1.383 . S
C164 H193 0.931 . S
C165 C164 1.383 . S
C165 C166 1.394 . S
C166 C165 1.394 . S
C166 C167 1.378 . S
C166 H194 0.931 . S
C167 C162 1.377 . S
C167 C166 1.378 . S
C167 H195 0.931 . S
C168 O182 1.259 . S
C168 O183 1.270 . S
C169 O184 1.248 1_455 S
C169 O185 1.266 . S
C170 Eu171 2.835 . S
C170 C172 1.500 . S
C170 O186 1.257 . S
C170 O187 1.260 . S
Eu171 C170 2.835 . S
Eu171 O183 2.355 . S
Eu171 O185 2.374 . S
Eu171 O186 2.473 . S
Eu171 O187 2.480 . S
Eu171 O188 2.430 . S
Eu171 O189 2.670 . S
Eu171 O190 2.394 . S
C172 C170 1.500 . S
C172 C173 1.377 . S
C172 C177 1.377 . S
C173 C172 1.377 . S
C173 C174 1.395 . S
C173 H196 0.931 . S
C174 C173 1.395 . S
C174 C175 1.383 . S
C174 H197 0.931 . S
C175 C174 1.383 . S
C175 C176 1.394 . S
C176 C175 1.394 . S
C176 C177 1.378 . S
C176 H198 0.931 . S
C177 C172 1.377 . S
C177 C176 1.378 . S
C177 H199 0.931 . S
C178 O188 1.259 . S
C178 O189 1.270 . S
C179 O190 1.251 . S
C179 O191 1.251 . S
O180 C160 1.257 . S
O180 Eu161 2.473 1_655 S
O181 C160 1.260 . S
O181 Eu161 2.480 1_655 S
O182 Eu161 2.430 . S
O182 C168 1.259 . S
O183 Eu161 2.670 . S
O183 C168 1.270 . S
O183 Eu171 2.355 . S
O184 Eu161 2.394 1_655 S
O184 C169 1.248 1_655 S
O185 C169 1.266 . S
O185 Eu171 2.374 . S
O186 C170 1.257 . S
O186 Eu171 2.473 . S
O187 C170 1.260 . S
O187 Eu171 2.480 . S
O188 Eu171 2.430 . S
O188 C178 1.259 . S
O189 Eu161 2.355 . S
O189 Eu171 2.670 . S
O189 C178 1.270 . S
O190 Eu171 2.394 . S
O190 C179 1.251 . S
O191 Eu161 2.374 . S
O191 C179 1.251 . S
H192 C163 0.931 . S
H193 C164 0.931 . S
H194 C166 0.931 . S
H195 C167 0.931 . S
H196 C173 0.931 . S
H197 C174 0.931 . S
H198 C176 0.931 . S
H199 C177 0.931 . S
C200 Eu201 2.835 1_565 S
C200 C202 1.500 . S
C200 O220 1.257 . S
C200 O221 1.260 . S
Eu201 C200 2.835 1_545 S
Eu201 O220 2.473 1_545 S
Eu201 O221 2.480 1_545 S
Eu201 O222 2.430 . S
Eu201 O223 2.670 . S
Eu201 O224 2.394 1_545 S
Eu201 O229 2.355 . S
Eu201 O231 2.374 . S
C202 C200 1.500 . S
C202 C203 1.377 . S
C202 C207 1.377 . S
C203 C202 1.377 . S
C203 C204 1.395 . S
C203 H232 0.931 . S
C204 C203 1.395 . S
C204 C205 1.383 . S
C204 H233 0.931 . S
C205 C204 1.383 . S
C205 C206 1.394 . S
C206 C205 1.394 . S
C206 C207 1.378 . S
C206 H234 0.931 . S
C207 C202 1.377 . S
C207 C206 1.378 . S
C207 H235 0.931 . S
C208 O222 1.259 . S
C208 O223 1.270 . S
C209 O224 1.248 1_545 S
C209 O225 1.266 . S
C210 Eu211 2.835 . S
C210 C212 1.500 . S
C210 O226 1.257 . S
C210 O227 1.260 . S
Eu211 C210 2.835 . S
Eu211 O223 2.355 . S
Eu211 O225 2.374 . S
Eu211 O226 2.473 . S
Eu211 O227 2.480 . S
Eu211 O228 2.430 . S
Eu211 O229 2.670 . S
Eu211 O230 2.394 . S
C212 C210 1.500 . S
C212 C213 1.377 . S
C212 C217 1.377 . S
C213 C212 1.377 . S
C213 C214 1.395 . S
C213 H236 0.931 . S
C214 C213 1.395 . S
C214 C215 1.383 . S
C214 H237 0.931 . S
C215 C214 1.383 . S
C215 C216 1.394 . S
C216 C215 1.394 . S
C216 C217 1.378 . S
C216 H238 0.931 . S
C217 C212 1.377 . S
C217 C216 1.378 . S
C217 H239 0.931 . S
C218 O228 1.259 . S
C218 O229 1.270 . S
C219 O230 1.251 . S
C219 O231 1.251 . S
O220 C200 1.257 . S
O220 Eu201 2.473 1_565 S
O221 C200 1.260 . S
O221 Eu201 2.480 1_565 S
O222 Eu201 2.430 . S
O222 C208 1.259 . S
O223 Eu201 2.670 . S
O223 C208 1.270 . S
O223 Eu211 2.355 . S
O224 Eu201 2.394 1_565 S
O224 C209 1.248 1_565 S
O225 C209 1.266 . S
O225 Eu211 2.374 . S
O226 C210 1.257 . S
O226 Eu211 2.473 . S
O227 C210 1.260 . S
O227 Eu211 2.480 . S
O228 Eu211 2.430 . S
O228 C218 1.259 . S
O229 Eu201 2.355 . S
O229 Eu211 2.670 . S
O229 C218 1.270 . S
O230 Eu211 2.394 . S
O230 C219 1.251 . S
O231 Eu201 2.374 . S
O231 C219 1.251 . S
H232 C203 0.931 . S
H233 C204 0.931 . S
H234 C206 0.931 . S
H235 C207 0.931 . S
H236 C213 0.931 . S
H237 C214 0.931 . S
H238 C216 0.931 . S
H239 C217 0.931 . S
C240 Eu241 2.835 . S
C240 C242 1.500 . S
C240 O260 1.257 . S
C240 O261 1.260 . S
Eu241 C240 2.835 . S
Eu241 O260 2.473 . S
Eu241 O261 2.480 . S
Eu241 O262 2.430 . S
Eu241 O263 2.670 . S
Eu241 O264 2.394 . S
Eu241 O269 2.355 . S
Eu241 O271 2.374 . S
C242 C240 1.500 . S
C242 C243 1.377 . S
C242 C247 1.377 . S
C243 C242 1.377 . S
C243 C244 1.395 . S
C243 H272 0.931 . S
C244 C243 1.395 . S
C244 C245 1.383 . S
C244 H273 0.931 . S
C245 C244 1.383 . S
C245 C246 1.394 . S
C246 C245 1.394 . S
C246 C247 1.378 . S
C246 H274 0.931 . S
C247 C242 1.377 . S
C247 C246 1.378 . S
C247 H275 0.931 . S
C248 O262 1.259 . S
C248 O263 1.270 . S
C249 O264 1.251 . S
C249 O265 1.251 . S
C250 Eu251 2.835 . S
C250 C252 1.500 . S
C250 O266 1.257 . S
C250 O267 1.260 . S
Eu251 C250 2.835 . S
Eu251 O263 2.355 . S
Eu251 O265 2.374 . S
Eu251 O266 2.473 . S
Eu251 O267 2.480 . S
Eu251 O268 2.430 . S
Eu251 O269 2.670 . S
Eu251 O270 2.394 . S
C252 C250 1.500 . S
C252 C253 1.377 . S
C252 C257 1.377 . S
C253 C252 1.377 . S
C253 C254 1.395 . S
C253 H276 0.931 . S
C254 C253 1.395 . S
C254 C255 1.383 . S
C254 H277 0.931 . S
C255 C254 1.383 . S
C255 C256 1.394 . S
C256 C255 1.394 . S
C256 C257 1.378 . S
C256 H278 0.931 . S
C257 C252 1.377 . S
C257 C256 1.378 . S
C257 H279 0.931 . S
C258 O268 1.259 . S
C258 O269 1.270 . S
C259 O270 1.251 . S
C259 O271 1.251 . S
O260 C240 1.257 . S
O260 Eu241 2.473 . S
O261 C240 1.260 . S
O261 Eu241 2.480 . S
O262 Eu241 2.430 . S
O262 C248 1.259 . S
O263 Eu241 2.670 . S
O263 C248 1.270 . S
O263 Eu251 2.355 . S
O264 Eu241 2.394 . S
O264 C249 1.251 . S
O265 C249 1.251 . S
O265 Eu251 2.374 . S
O266 C250 1.257 . S
O266 Eu251 2.473 . S
O267 C250 1.260 . S
O267 Eu251 2.480 . S
O268 Eu251 2.430 . S
O268 C258 1.259 . S
O269 Eu241 2.355 . S
O269 Eu251 2.670 . S
O269 C258 1.270 . S
O270 Eu251 2.394 . S
O270 C259 1.251 . S
O271 Eu241 2.374 . S
O271 C259 1.251 . S
H272 C243 0.931 . S
H273 C244 0.931 . S
H274 C246 0.931 . S
H275 C247 0.931 . S
H276 C253 0.931 . S
H277 C254 0.931 . S
H278 C256 0.931 . S
H279 C257 0.931 . S
C280 Eu281 2.835 . S
C280 C282 1.500 . S
C280 O300 1.257 . S
C280 O301 1.260 . S
Eu281 C280 2.835 . S
Eu281 O300 2.473 . S
Eu281 O301 2.480 . S
Eu281 O302 2.430 . S
Eu281 O303 2.670 . S
Eu281 O304 2.394 . S
Eu281 O309 2.355 . S
Eu281 O311 2.374 . S
C282 C280 1.500 . S
C282 C283 1.377 . S
C282 C287 1.377 . S
C283 C282 1.377 . S
C283 C284 1.395 . S
C283 H312 0.931 . S
C284 C283 1.395 . S
C284 C285 1.383 . S
C284 H313 0.931 . S
C285 C284 1.383 . S
C285 C286 1.394 . S
C286 C285 1.394 . S
C286 C287 1.378 . S
C286 H314 0.931 . S
C287 C282 1.377 . S
C287 C286 1.378 . S
C287 H315 0.931 . S
C288 O302 1.259 . S
C288 O303 1.270 . S
C289 O304 1.251 . S
C289 O305 1.251 . S
C290 Eu291 2.835 . S
C290 C292 1.500 . S
C290 O306 1.257 . S
C290 O307 1.260 . S
Eu291 C290 2.835 . S
Eu291 O303 2.355 . S
Eu291 O305 2.374 . S
Eu291 O306 2.473 . S
Eu291 O307 2.480 . S
Eu291 O308 2.430 . S
Eu291 O309 2.670 . S
Eu291 O310 2.394 . S
C292 C290 1.500 . S
C292 C293 1.377 . S
C292 C297 1.377 . S
C293 C292 1.377 . S
C293 C294 1.395 . S
C293 H316 0.931 . S
C294 C293 1.395 . S
C294 C295 1.383 . S
C294 H317 0.931 . S
C295 C294 1.383 . S
C295 C296 1.394 . S
C296 C295 1.394 . S
C296 C297 1.378 . S
C296 H318 0.931 . S
C297 C292 1.377 . S
C297 C296 1.378 . S
C297 H319 0.931 . S
C298 O308 1.259 . S
C298 O309 1.270 . S
C299 O310 1.251 . S
C299 O311 1.251 . S
O300 C280 1.257 . S
O300 Eu281 2.473 . S
O301 C280 1.260 . S
O301 Eu281 2.480 . S
O302 Eu281 2.430 . S
O302 C288 1.259 . S
O303 Eu281 2.670 . S
O303 C288 1.270 . S
O303 Eu291 2.355 . S
O304 Eu281 2.394 . S
O304 C289 1.251 . S
O305 C289 1.251 . S
O305 Eu291 2.374 . S
O306 C290 1.257 . S
O306 Eu291 2.473 . S
O307 C290 1.260 . S
O307 Eu291 2.480 . S
O308 Eu291 2.430 . S
O308 C298 1.259 . S
O309 Eu281 2.355 . S
O309 Eu291 2.670 . S
O309 C298 1.270 . S
O310 Eu291 2.394 . S
O310 C299 1.251 . S
O311 Eu281 2.374 . S
O311 C299 1.251 . S
H312 C283 0.931 . S
H313 C284 0.931 . S
H314 C286 0.931 . S
H315 C287 0.931 . S
H316 C293 0.931 . S
H317 C294 0.931 . S
H318 C296 0.931 . S
H319 C297 0.931 . S
C320 Eu321 2.835 . S
C320 C322 1.500 . S
C320 O340 1.257 . S
C320 O341 1.260 . S
Eu321 C320 2.835 . S
Eu321 O340 2.473 . S
Eu321 O341 2.480 . S
Eu321 O342 2.430 . S
Eu321 O343 2.670 . S
Eu321 O344 2.394 . S
Eu321 O349 2.355 . S
Eu321 O351 2.374 . S
C322 C320 1.500 . S
C322 C323 1.377 . S
C322 C327 1.377 . S
C323 C322 1.377 . S
C323 C324 1.395 . S
C323 H352 0.931 . S
C324 C323 1.395 . S
C324 C325 1.383 . S
C324 H353 0.931 . S
C325 C324 1.383 . S
C325 C326 1.394 . S
C326 C325 1.394 . S
C326 C327 1.378 . S
C326 H354 0.931 . S
C327 C322 1.377 . S
C327 C326 1.378 . S
C327 H355 0.931 . S
C328 O342 1.259 . S
C328 O343 1.270 . S
C329 O344 1.251 . S
C329 O345 1.251 . S
C330 Eu331 2.835 . S
C330 C332 1.500 . S
C330 O346 1.257 . S
C330 O347 1.260 . S
Eu331 C330 2.835 . S
Eu331 O343 2.355 . S
Eu331 O345 2.374 . S
Eu331 O346 2.473 . S
Eu331 O347 2.480 . S
Eu331 O348 2.430 . S
Eu331 O349 2.670 . S
Eu331 O350 2.394 . S
C332 C330 1.500 . S
C332 C333 1.377 . S
C332 C337 1.377 . S
C333 C332 1.377 . S
C333 C334 1.395 . S
C333 H356 0.931 . S
C334 C333 1.395 . S
C334 C335 1.383 . S
C334 H357 0.931 . S
C335 C334 1.383 . S
C335 C336 1.394 . S
C336 C335 1.394 . S
C336 C337 1.378 . S
C336 H358 0.931 . S
C337 C332 1.377 . S
C337 C336 1.378 . S
C337 H359 0.931 . S
C338 O348 1.259 . S
C338 O349 1.270 . S
C339 O350 1.251 . S
C339 O351 1.251 . S
O340 C320 1.257 . S
O340 Eu321 2.473 . S
O341 C320 1.260 . S
O341 Eu321 2.480 . S
O342 Eu321 2.430 . S
O342 C328 1.259 . S
O343 Eu321 2.670 . S
O343 C328 1.270 . S
O343 Eu331 2.355 . S
O344 Eu321 2.394 . S
O344 C329 1.251 . S
O345 C329 1.251 . S
O345 Eu331 2.374 . S
O346 C330 1.257 . S
O346 Eu331 2.473 . S
O347 C330 1.260 . S
O347 Eu331 2.480 . S
O348 Eu331 2.430 . S
O348 C338 1.259 . S
O349 Eu321 2.355 . S
O349 Eu331 2.670 . S
O349 C338 1.270 . S
O350 Eu331 2.394 . S
O350 C339 1.251 . S
O351 Eu321 2.374 . S
O351 C339 1.251 . S
H352 C323 0.931 . S
H353 C324 0.931 . S
H354 C326 0.931 . S
H355 C327 0.931 . S
H356 C333 0.931 . S
H357 C334 0.931 . S
H358 C336 0.931 . S
H359 C337 0.931 . S
C360 Eu361 2.835 . S
C360 C362 1.500 . S
C360 O380 1.257 . S
C360 O381 1.260 . S
Eu361 C360 2.835 . S
Eu361 O380 2.473 . S
Eu361 O381 2.480 . S
Eu361 O382 2.430 . S
Eu361 O383 2.670 . S
Eu361 O384 2.394 . S
Eu361 O389 2.355 . S
Eu361 O391 2.374 . S
C362 C360 1.500 . S
C362 C363 1.377 . S
C362 C367 1.377 . S
C363 C362 1.377 . S
C363 C364 1.395 . S
C363 H392 0.931 . S
C364 C363 1.395 . S
C364 C365 1.383 . S
C364 H393 0.931 . S
C365 C364 1.383 . S
C365 C366 1.394 . S
C366 C365 1.394 . S
C366 C367 1.378 . S
C366 H394 0.931 . S
C367 C362 1.377 . S
C367 C366 1.378 . S
C367 H395 0.931 . S
C368 O382 1.259 . S
C368 O383 1.270 . S
C369 O384 1.251 . S
C369 O385 1.251 . S
C370 Eu371 2.835 . S
C370 C372 1.500 . S
C370 O386 1.257 . S
C370 O387 1.260 . S
Eu371 C370 2.835 . S
Eu371 O383 2.355 . S
Eu371 O385 2.374 . S
Eu371 O386 2.473 . S
Eu371 O387 2.480 . S
Eu371 O388 2.430 . S
Eu371 O389 2.670 . S
Eu371 O390 2.394 . S
C372 C370 1.500 . S
C372 C373 1.377 . S
C372 C377 1.377 . S
C373 C372 1.377 . S
C373 C374 1.395 . S
C373 H396 0.931 . S
C374 C373 1.395 . S
C374 C375 1.383 . S
C374 H397 0.931 . S
C375 C374 1.383 . S
C375 C376 1.394 . S
C376 C375 1.394 . S
C376 C377 1.378 . S
C376 H398 0.931 . S
C377 C372 1.377 . S
C377 C376 1.378 . S
C377 H399 0.931 . S
C378 O388 1.259 . S
C378 O389 1.270 . S
C379 O390 1.251 . S
C379 O391 1.251 . S
O380 C360 1.257 . S
O380 Eu361 2.473 . S
O381 C360 1.260 . S
O381 Eu361 2.480 . S
O382 Eu361 2.430 . S
O382 C368 1.259 . S
O383 Eu361 2.670 . S
O383 C368 1.270 . S
O383 Eu371 2.355 . S
O384 Eu361 2.394 . S
O384 C369 1.251 . S
O385 C369 1.251 . S
O385 Eu371 2.374 . S
O386 C370 1.257 . S
O386 Eu371 2.473 . S
O387 C370 1.260 . S
O387 Eu371 2.480 . S
O388 Eu371 2.430 . S
O388 C378 1.259 . S
O389 Eu361 2.355 . S
O389 Eu371 2.670 . S
O389 C378 1.270 . S
O390 Eu371 2.394 . S
O390 C379 1.251 . S
O391 Eu361 2.374 . S
O391 C379 1.251 . S
H392 C363 0.931 . S
H393 C364 0.931 . S
H394 C366 0.931 . S
H395 C367 0.931 . S
H396 C373 0.931 . S
H397 C374 0.931 . S
H398 C376 0.931 . S
H399 C377 0.931 . S
C400 Eu401 2.835 . S
C400 C402 1.500 . S
C400 O420 1.257 . S
C400 O421 1.260 . S
Eu401 C400 2.835 . S
Eu401 O420 2.473 . S
Eu401 O421 2.480 . S
Eu401 O422 2.430 . S
Eu401 O423 2.670 . S
Eu401 O424 2.394 . S
Eu401 O429 2.355 . S
Eu401 O431 2.374 . S
C402 C400 1.500 . S
C402 C403 1.377 . S
C402 C407 1.377 . S
C403 C402 1.377 . S
C403 C404 1.395 . S
C403 H432 0.931 . S
C404 C403 1.395 . S
C404 C405 1.383 . S
C404 H433 0.931 . S
C405 C404 1.383 . S
C405 C406 1.394 . S
C406 C405 1.394 . S
C406 C407 1.378 . S
C406 H434 0.931 . S
C407 C402 1.377 . S
C407 C406 1.378 . S
C407 H435 0.931 . S
C408 O422 1.259 . S
C408 O423 1.270 . S
C409 O424 1.251 . S
C409 O425 1.251 . S
C410 Eu411 2.835 1_655 S
C410 C412 1.500 . S
C410 O426 1.257 . S
C410 O427 1.260 . S
Eu411 C410 2.835 1_455 S
Eu411 O423 2.355 . S
Eu411 O425 2.374 . S
Eu411 O426 2.473 1_455 S
Eu411 O427 2.480 1_455 S
Eu411 O428 2.430 . S
Eu411 O429 2.670 . S
Eu411 O430 2.394 1_455 S
C412 C410 1.500 . S
C412 C413 1.377 . S
C412 C417 1.377 . S
C413 C412 1.377 . S
C413 C414 1.395 . S
C413 H436 0.931 . S
C414 C413 1.395 . S
C414 C415 1.383 . S
C414 H437 0.931 . S
C415 C414 1.383 . S
C415 C416 1.394 . S
C416 C415 1.394 . S
C416 C417 1.378 . S
C416 H438 0.931 . S
C417 C412 1.377 . S
C417 C416 1.378 . S
C417 H439 0.931 . S
C418 O428 1.259 . S
C418 O429 1.270 . S
C419 O430 1.248 1_455 S
C419 O431 1.266 . S
O420 C400 1.257 . S
O420 Eu401 2.473 . S
O421 C400 1.260 . S
O421 Eu401 2.480 . S
O422 Eu401 2.430 . S
O422 C408 1.259 . S
O423 Eu401 2.670 . S
O423 C408 1.270 . S
O423 Eu411 2.355 . S
O424 Eu401 2.394 . S
O424 C409 1.251 . S
O425 C409 1.251 . S
O425 Eu411 2.374 . S
O426 C410 1.257 . S
O426 Eu411 2.473 1_655 S
O427 C410 1.260 . S
O427 Eu411 2.480 1_655 S
O428 Eu411 2.430 . S
O428 C418 1.259 . S
O429 Eu401 2.355 . S
O429 Eu411 2.670 . S
O429 C418 1.270 . S
O430 Eu411 2.394 1_655 S
O430 C419 1.248 1_655 S
O431 Eu401 2.374 . S
O431 C419 1.266 . S
H432 C403 0.931 . S
H433 C404 0.931 . S
H434 C406 0.931 . S
H435 C407 0.931 . S
H436 C413 0.931 . S
H437 C414 0.931 . S
H438 C416 0.931 . S
H439 C417 0.931 . S
C440 Eu441 2.835 . S
C440 C442 1.500 . S
C440 O460 1.257 . S
C440 O461 1.260 . S
Eu441 C440 2.835 . S
Eu441 O460 2.473 . S
Eu441 O461 2.480 . S
Eu441 O462 2.430 . S
Eu441 O463 2.670 . S
Eu441 O464 2.394 . S
Eu441 O469 2.355 . S
Eu441 O471 2.374 . S
C442 C440 1.500 . S
C442 C443 1.377 . S
C442 C447 1.377 . S
C443 C442 1.377 . S
C443 C444 1.395 . S
C443 H472 0.931 . S
C444 C443 1.395 . S
C444 C445 1.383 . S
C444 H473 0.931 . S
C445 C444 1.383 . S
C445 C446 1.394 . S
C446 C445 1.394 . S
C446 C447 1.378 . S
C446 H474 0.931 . S
C447 C442 1.377 . S
C447 C446 1.378 . S
C447 H475 0.931 . S
C448 O462 1.259 . S
C448 O463 1.270 . S
C449 O464 1.251 . S
C449 O465 1.251 . S
C450 Eu451 2.835 1_565 S
C450 C452 1.500 . S
C450 O466 1.257 . S
C450 O467 1.260 . S
Eu451 C450 2.835 1_545 S
Eu451 O463 2.355 . S
Eu451 O465 2.374 . S
Eu451 O466 2.473 1_545 S
Eu451 O467 2.480 1_545 S
Eu451 O468 2.430 . S
Eu451 O469 2.670 . S
Eu451 O470 2.394 1_545 S
C452 C450 1.500 . S
C452 C453 1.377 . S
C452 C457 1.377 . S
C453 C452 1.377 . S
C453 C454 1.395 . S
C453 H476 0.931 . S
C454 C453 1.395 . S
C454 C455 1.383 . S
C454 H477 0.931 . S
C455 C454 1.383 . S
C455 C456 1.394 . S
C456 C455 1.394 . S
C456 C457 1.378 . S
C456 H478 0.931 . S
C457 C452 1.377 . S
C457 C456 1.378 . S
C457 H479 0.931 . S
C458 O468 1.259 . S
C458 O469 1.270 . S
C459 O470 1.248 1_545 S
C459 O471 1.266 . S
O460 C440 1.257 . S
O460 Eu441 2.473 . S
O461 C440 1.260 . S
O461 Eu441 2.480 . S
O462 Eu441 2.430 . S
O462 C448 1.259 . S
O463 Eu441 2.670 . S
O463 C448 1.270 . S
O463 Eu451 2.355 . S
O464 Eu441 2.394 . S
O464 C449 1.251 . S
O465 C449 1.251 . S
O465 Eu451 2.374 . S
O466 C450 1.257 . S
O466 Eu451 2.473 1_565 S
O467 C450 1.260 . S
O467 Eu451 2.480 1_565 S
O468 Eu451 2.430 . S
O468 C458 1.259 . S
O469 Eu441 2.355 . S
O469 Eu451 2.670 . S
O469 C458 1.270 . S
O470 Eu451 2.394 1_565 S
O470 C459 1.248 1_565 S
O471 Eu441 2.374 . S
O471 C459 1.266 . S
H472 C443 0.931 . S
H473 C444 0.931 . S
H474 C446 0.931 . S
H475 C447 0.931 . S
H476 C453 0.931 . S
H477 C454 0.931 . S
H478 C456 0.931 . S
H479 C457 0.931 . S
C480 Eu481 2.835 . S
C480 C482 1.500 . S
C480 O500 1.257 . S
C480 O501 1.260 . S
Eu481 C480 2.835 . S
Eu481 O500 2.473 . S
Eu481 O501 2.480 . S
Eu481 O502 2.430 . S
Eu481 O503 2.670 . S
Eu481 O504 2.394 . S
Eu481 O509 2.355 . S
Eu481 O511 2.374 . S
C482 C480 1.500 . S
C482 C483 1.377 . S
C482 C487 1.377 . S
C483 C482 1.377 . S
C483 C484 1.395 . S
C483 H512 0.931 . S
C484 C483 1.395 . S
C484 C485 1.383 . S
C484 H513 0.931 . S
C485 C484 1.383 . S
C485 C486 1.394 . S
C486 C485 1.394 . S
C486 C487 1.378 . S
C486 H514 0.931 . S
C487 C482 1.377 . S
C487 C486 1.378 . S
C487 H515 0.931 . S
C488 O502 1.259 . S
C488 O503 1.270 . S
C489 O504 1.251 . S
C489 O505 1.251 . S
C490 Eu491 2.835 1_455 S
C490 C492 1.500 . S
C490 O506 1.257 . S
C490 O507 1.260 . S
Eu491 C490 2.835 1_655 S
Eu491 O503 2.355 . S
Eu491 O505 2.374 . S
Eu491 O506 2.473 1_655 S
Eu491 O507 2.480 1_655 S
Eu491 O508 2.430 . S
Eu491 O509 2.670 . S
Eu491 O510 2.394 1_655 S
C492 C490 1.500 . S
C492 C493 1.377 . S
C492 C497 1.377 . S
C493 C492 1.377 . S
C493 C494 1.395 . S
C493 H516 0.931 . S
C494 C493 1.395 . S
C494 C495 1.383 . S
C494 H517 0.931 . S
C495 C494 1.383 . S
C495 C496 1.394 . S
C496 C495 1.394 . S
C496 C497 1.378 . S
C496 H518 0.931 . S
C497 C492 1.377 . S
C497 C496 1.378 . S
C497 H519 0.931 . S
C498 O508 1.259 . S
C498 O509 1.270 . S
C499 O510 1.248 1_655 S
C499 O511 1.266 . S
O500 C480 1.257 . S
O500 Eu481 2.473 . S
O501 C480 1.260 . S
O501 Eu481 2.480 . S
O502 Eu481 2.430 . S
O502 C488 1.259 . S
O503 Eu481 2.670 . S
O503 C488 1.270 . S
O503 Eu491 2.355 . S
O504 Eu481 2.394 . S
O504 C489 1.251 . S
O505 C489 1.251 . S
O505 Eu491 2.374 . S
O506 C490 1.257 . S
O506 Eu491 2.473 1_455 S
O507 C490 1.260 . S
O507 Eu491 2.480 1_455 S
O508 Eu491 2.430 . S
O508 C498 1.259 . S
O509 Eu481 2.355 . S
O509 Eu491 2.670 . S
O509 C498 1.270 . S
O510 Eu491 2.394 1_455 S
O510 C499 1.248 1_455 S
O511 Eu481 2.374 . S
O511 C499 1.266 . S
H512 C483 0.931 . S
H513 C484 0.931 . S
H514 C486 0.931 . S
H515 C487 0.931 . S
H516 C493 0.931 . S
H517 C494 0.931 . S
H518 C496 0.931 . S
H519 C497 0.931 . S
C520 Eu521 2.835 . S
C520 C522 1.500 . S
C520 O540 1.257 . S
C520 O541 1.260 . S
Eu521 C520 2.835 . S
Eu521 O540 2.473 . S
Eu521 O541 2.480 . S
Eu521 O542 2.430 . S
Eu521 O543 2.670 . S
Eu521 O544 2.394 . S
Eu521 O549 2.355 . S
Eu521 O551 2.374 . S
C522 C520 1.500 . S
C522 C523 1.377 . S
C522 C527 1.377 . S
C523 C522 1.377 . S
C523 C524 1.395 . S
C523 H552 0.931 . S
C524 C523 1.395 . S
C524 C525 1.383 . S
C524 H553 0.931 . S
C525 C524 1.383 . S
C525 C526 1.394 . S
C526 C525 1.394 . S
C526 C527 1.378 . S
C526 H554 0.931 . S
C527 C522 1.377 . S
C527 C526 1.378 . S
C527 H555 0.931 . S
C528 O542 1.259 . S
C528 O543 1.270 . S
C529 O544 1.251 . S
C529 O545 1.251 . S
C530 Eu531 2.835 1_545 S
C530 C532 1.500 . S
C530 O546 1.257 . S
C530 O547 1.260 . S
Eu531 C530 2.835 1_565 S
Eu531 O543 2.355 . S
Eu531 O545 2.374 . S
Eu531 O546 2.473 1_565 S
Eu531 O547 2.480 1_565 S
Eu531 O548 2.430 . S
Eu531 O549 2.670 . S
Eu531 O550 2.394 1_565 S
C532 C530 1.500 . S
C532 C533 1.377 . S
C532 C537 1.377 . S
C533 C532 1.377 . S
C533 C534 1.395 . S
C533 H556 0.931 . S
C534 C533 1.395 . S
C534 C535 1.383 . S
C534 H557 0.931 . S
C535 C534 1.383 . S
C535 C536 1.394 . S
C536 C535 1.394 . S
C536 C537 1.378 . S
C536 H558 0.931 . S
C537 C532 1.377 . S
C537 C536 1.378 . S
C537 H559 0.931 . S
C538 O548 1.259 . S
C538 O549 1.270 . S
C539 O550 1.248 1_565 S
C539 O551 1.266 . S
O540 C520 1.257 . S
O540 Eu521 2.473 . S
O541 C520 1.260 . S
O541 Eu521 2.480 . S
O542 Eu521 2.430 . S
O542 C528 1.259 . S
O543 Eu521 2.670 . S
O543 C528 1.270 . S
O543 Eu531 2.355 . S
O544 Eu521 2.394 . S
O544 C529 1.251 . S
O545 C529 1.251 . S
O545 Eu531 2.374 . S
O546 C530 1.257 . S
O546 Eu531 2.473 1_545 S
O547 C530 1.260 . S
O547 Eu531 2.480 1_545 S
O548 Eu531 2.430 . S
O548 C538 1.259 . S
O549 Eu521 2.355 . S
O549 Eu531 2.670 . S
O549 C538 1.270 . S
O550 Eu531 2.394 1_545 S
O550 C539 1.248 1_545 S
O551 Eu521 2.374 . S
O551 C539 1.266 . S
H552 C523 0.931 . S
H553 C524 0.931 . S
H554 C526 0.931 . S
H555 C527 0.931 . S
H556 C533 0.931 . S
H557 C534 0.931 . S
H558 C536 0.931 . S
H559 C537 0.931 . S
C560 Eu561 2.835 . S
C560 C562 1.500 . S
C560 O580 1.257 . S
C560 O581 1.260 . S
Eu561 C560 2.835 . S
Eu561 O580 2.473 . S
Eu561 O581 2.480 . S
Eu561 O582 2.430 . S
Eu561 O583 2.670 . S
Eu561 O584 2.394 . S
Eu561 O589 2.355 . S
Eu561 O591 2.374 . S
C562 C560 1.500 . S
C562 C563 1.377 . S
C562 C567 1.377 . S
C563 C562 1.377 . S
C563 C564 1.395 . S
C563 H592 0.931 . S
C564 C563 1.395 . S
C564 C565 1.383 . S
C564 H593 0.931 . S
C565 C564 1.383 . S
C565 C566 1.394 . S
C566 C565 1.394 . S
C566 C567 1.378 . S
C566 H594 0.931 . S
C567 C562 1.377 . S
C567 C566 1.378 . S
C567 H595 0.931 . S
C568 O582 1.259 . S
C568 O583 1.270 . S
C569 O584 1.251 . S
C569 O585 1.251 . S
C570 Eu571 2.835 . S
C570 C572 1.500 . S
C570 O586 1.257 . S
C570 O587 1.260 . S
Eu571 C570 2.835 . S
Eu571 O583 2.355 . S
Eu571 O585 2.374 . S
Eu571 O586 2.473 . S
Eu571 O587 2.480 . S
Eu571 O588 2.430 . S
Eu571 O589 2.670 . S
Eu571 O590 2.394 . S
C572 C570 1.500 . S
C572 C573 1.377 . S
C572 C577 1.377 . S
C573 C572 1.377 . S
C573 C574 1.395 . S
C573 H596 0.931 . S
C574 C573 1.395 . S
C574 C575 1.383 . S
C574 H597 0.931 . S
C575 C574 1.383 . S
C575 C576 1.394 . S
C576 C575 1.394 . S
C576 C577 1.378 . S
C576 H598 0.931 . S
C577 C572 1.377 . S
C577 C576 1.378 . S
C577 H599 0.931 . S
C578 O588 1.259 . S
C578 O589 1.270 . S
C579 O590 1.251 . S
C579 O591 1.251 . S
O580 C560 1.257 . S
O580 Eu561 2.473 . S
O581 C560 1.260 . S
O581 Eu561 2.480 . S
O582 Eu561 2.430 . S
O582 C568 1.259 . S
O583 Eu561 2.670 . S
O583 C568 1.270 . S
O583 Eu571 2.355 . S
O584 Eu561 2.394 . S
O584 C569 1.251 . S
O585 C569 1.251 . S
O585 Eu571 2.374 . S
O586 C570 1.257 . S
O586 Eu571 2.473 . S
O587 C570 1.260 . S
O587 Eu571 2.480 . S
O588 Eu571 2.430 . S
O588 C578 1.259 . S
O589 Eu561 2.355 . S
O589 Eu571 2.670 . S
O589 C578 1.270 . S
O590 Eu571 2.394 . S
O590 C579 1.251 . S
O591 Eu561 2.374 . S
O591 C579 1.251 . S
H592 C563 0.931 . S
H593 C564 0.931 . S
H594 C566 0.931 . S
H595 C567 0.931 . S
H596 C573 0.931 . S
H597 C574 0.931 . S
H598 C576 0.931 . S
H599 C577 0.931 . S
C600 Eu601 2.835 . S
C600 C602 1.500 . S
C600 O620 1.257 . S
C600 O621 1.260 . S
Eu601 C600 2.835 . S
Eu601 O620 2.473 . S
Eu601 O621 2.480 . S
Eu601 O622 2.430 . S
Eu601 O623 2.670 . S
Eu601 O624 2.394 . S
Eu601 O629 2.355 . S
Eu601 O631 2.374 . S
C602 C600 1.500 . S
C602 C603 1.377 . S
C602 C607 1.377 . S
C603 C602 1.377 . S
C603 C604 1.395 . S
C603 H632 0.931 . S
C604 C603 1.395 . S
C604 C605 1.383 . S
C604 H633 0.931 . S
C605 C604 1.383 . S
C605 C606 1.394 . S
C606 C605 1.394 . S
C606 C607 1.378 . S
C606 H634 0.931 . S
C607 C602 1.377 . S
C607 C606 1.378 . S
C607 H635 0.931 . S
C608 O622 1.259 . S
C608 O623 1.270 . S
C609 O624 1.251 . S
C609 O625 1.251 . S
C610 Eu611 2.835 . S
C610 C612 1.500 . S
C610 O626 1.257 . S
C610 O627 1.260 . S
Eu611 C610 2.835 . S
Eu611 O623 2.355 . S
Eu611 O625 2.374 . S
Eu611 O626 2.473 . S
Eu611 O627 2.480 . S
Eu611 O628 2.430 . S
Eu611 O629 2.670 . S
Eu611 O630 2.394 . S
C612 C610 1.500 . S
C612 C613 1.377 . S
C612 C617 1.377 . S
C613 C612 1.377 . S
C613 C614 1.395 . S
C613 H636 0.931 . S
C614 C613 1.395 . S
C614 C615 1.383 . S
C614 H637 0.931 . S
C615 C614 1.383 . S
C615 C616 1.394 . S
C616 C615 1.394 . S
C616 C617 1.378 . S
C616 H638 0.931 . S
C617 C612 1.377 . S
C617 C616 1.378 . S
C617 H639 0.931 . S
C618 O628 1.259 . S
C618 O629 1.270 . S
C619 O630 1.251 . S
C619 O631 1.251 . S
O620 C600 1.257 . S
O620 Eu601 2.473 . S
O621 C600 1.260 . S
O621 Eu601 2.480 . S
O622 Eu601 2.430 . S
O622 C608 1.259 . S
O623 Eu601 2.670 . S
O623 C608 1.270 . S
O623 Eu611 2.355 . S
O624 Eu601 2.394 . S
O624 C609 1.251 . S
O625 C609 1.251 . S
O625 Eu611 2.374 . S
O626 C610 1.257 . S
O626 Eu611 2.473 . S
O627 C610 1.260 . S
O627 Eu611 2.480 . S
O628 Eu611 2.430 . S
O628 C618 1.259 . S
O629 Eu601 2.355 . S
O629 Eu611 2.670 . S
O629 C618 1.270 . S
O630 Eu611 2.394 . S
O630 C619 1.251 . S
O631 Eu601 2.374 . S
O631 C619 1.251 . S
H632 C603 0.931 . S
H633 C604 0.931 . S
H634 C606 0.931 . S
H635 C607 0.931 . S
H636 C613 0.931 . S
H637 C614 0.931 . S
H638 C616 0.931 . S
H639 C617 0.931 . S
H640 C652 0.930 . S
H641 C654 0.930 . S
H642 C655 0.930 . S
H643 C659 0.959 . S
H644 C659 0.959 . S
H645 C659 0.961 . S
H646 C660 0.960 . S
H647 C660 0.961 . S
H648 C660 0.959 . S
H649 C663 0.929 . S
H650 C664 0.931 . S
H651 C666 0.930 . S
C652 H640 0.930 . S
C652 C653 1.399 . S
C652 C657 1.399 . S
C653 C652 1.399 . S
C653 C654 1.376 . S
C654 H641 0.930 . S
C654 C653 1.376 . S
C654 C655 1.388 . S
C655 H642 0.930 . S
C655 C654 1.388 . S
C655 C656 1.390 . S
C656 C655 1.390 . S
C656 C657 1.394 . S
C656 C662 1.465 . S
C657 C652 1.399 . S
C657 C656 1.394 . S
C657 C658 1.516 . S
C658 C657 1.516 . S
C658 C659 1.502 . S
C658 C660 1.561 . S
C658 C661 1.526 . S
C659 H643 0.959 . S
C659 H644 0.959 . S
C659 H645 0.961 . S
C659 C658 1.502 . S
C660 H646 0.960 . S
C660 H647 0.961 . S
C660 H648 0.959 . S
C660 C658 1.561 . S
C661 C658 1.526 . S
C661 C662 1.396 . S
C661 C666 1.390 . S
C662 C656 1.465 . S
C662 C661 1.396 . S
C662 C663 1.399 . S
C663 H649 0.929 . S
C663 C662 1.399 . S
C663 C664 1.385 . S
C664 H650 0.931 . S
C664 C663 1.385 . S
C664 C665 1.389 . S
C665 C664 1.389 . S
C665 C666 1.387 . S
C666 H651 0.930 . S
C666 C661 1.390 . S
C666 C665 1.387 . S
H667 C679 0.930 . S
H668 C681 0.930 . S
H669 C682 0.930 . S
H670 C686 0.959 . S
H671 C686 0.959 . S
H672 C686 0.961 . S
H673 C687 0.960 . S
H674 C687 0.961 . S
H675 C687 0.959 . S
H676 C690 0.929 . S
H677 C691 0.931 . S
H678 C693 0.930 . S
C679 H667 0.930 . S
C679 C680 1.399 . S
C679 C684 1.399 . S
C680 C679 1.399 . S
C680 C681 1.376 . S
C681 H668 0.930 . S
C681 C680 1.376 . S
C681 C682 1.388 . S
C682 H669 0.930 . S
C682 C681 1.388 . S
C682 C683 1.390 . S
C683 C682 1.390 . S
C683 C684 1.394 . S
C683 C689 1.465 . S
C684 C679 1.399 . S
C684 C683 1.394 . S
C684 C685 1.516 . S
C685 C684 1.516 . S
C685 C686 1.502 . S
C685 C687 1.561 . S
C685 C688 1.526 . S
C686 H670 0.959 . S
C686 H671 0.959 . S
C686 H672 0.961 . S
C686 C685 1.502 . S
C687 H673 0.960 . S
C687 H674 0.961 . S
C687 H675 0.959 . S
C687 C685 1.561 . S
C688 C685 1.526 . S
C688 C689 1.396 . S
C688 C693 1.390 . S
C689 C683 1.465 . S
C689 C688 1.396 . S
C689 C690 1.399 . S
C690 H676 0.929 . S
C690 C689 1.399 . S
C690 C691 1.385 . S
C691 H677 0.931 . S
C691 C690 1.385 . S
C691 C692 1.389 . S
C692 C691 1.389 . S
C692 C693 1.387 . S
C693 H678 0.930 . S
C693 C688 1.390 . S
C693 C692 1.387 . S
H694 C706 0.930 . S
H695 C708 0.930 . S
H696 C709 0.930 . S
H697 C713 0.959 . S
H698 C713 0.959 . S
H699 C713 0.961 . S
H700 C714 0.960 . S
H701 C714 0.961 . S
H702 C714 0.959 . S
H703 C717 0.929 . S
H704 C718 0.931 . S
H705 C720 0.930 . S
C706 H694 0.930 . S
C706 C707 1.399 . S
C706 C711 1.399 . S
C707 C706 1.399 . S
C707 C708 1.376 . S
C708 H695 0.930 . S
C708 C707 1.376 . S
C708 C709 1.388 . S
C709 H696 0.930 . S
C709 C708 1.388 . S
C709 C710 1.390 . S
C710 C709 1.390 . S
C710 C711 1.394 . S
C710 C716 1.465 . S
C711 C706 1.399 . S
C711 C710 1.394 . S
C711 C712 1.516 . S
C712 C711 1.516 . S
C712 C713 1.502 . S
C712 C714 1.561 . S
C712 C715 1.526 . S
C713 H697 0.959 . S
C713 H698 0.959 . S
C713 H699 0.961 . S
C713 C712 1.502 . S
C714 H700 0.960 . S
C714 H701 0.961 . S
C714 H702 0.959 . S
C714 C712 1.561 . S
C715 C712 1.526 . S
C715 C716 1.396 . S
C715 C720 1.390 . S
C716 C710 1.465 . S
C716 C715 1.396 . S
C716 C717 1.399 . S
C717 H703 0.929 . S
C717 C716 1.399 . S
C717 C718 1.385 . S
C718 H704 0.931 . S
C718 C717 1.385 . S
C718 C719 1.389 . S
C719 C718 1.389 . S
C719 C720 1.387 . S
C720 H705 0.930 . S
C720 C715 1.390 . S
C720 C719 1.387 . S
H721 C733 0.930 . S
H722 C735 0.930 . S
H723 C736 0.930 . S
H724 C740 0.959 . S
H725 C740 0.959 . S
H726 C740 0.961 . S
H727 C741 0.960 . S
H728 C741 0.961 . S
H729 C741 0.959 . S
H730 C744 0.929 . S
H731 C745 0.931 . S
H732 C747 0.930 . S
C733 H721 0.930 . S
C733 C734 1.399 . S
C733 C738 1.399 . S
C734 C733 1.399 . S
C734 C735 1.376 . S
C735 H722 0.930 . S
C735 C734 1.376 . S
C735 C736 1.388 . S
C736 H723 0.930 . S
C736 C735 1.388 . S
C736 C737 1.390 . S
C737 C736 1.390 . S
C737 C738 1.394 . S
C737 C743 1.465 . S
C738 C733 1.399 . S
C738 C737 1.394 . S
C738 C739 1.516 . S
C739 C738 1.516 . S
C739 C740 1.502 . S
C739 C741 1.561 . S
C739 C742 1.526 . S
C740 H724 0.959 . S
C740 H725 0.959 . S
C740 H726 0.961 . S
C740 C739 1.502 . S
C741 H727 0.960 . S
C741 H728 0.961 . S
C741 H729 0.959 . S
C741 C739 1.561 . S
C742 C739 1.526 . S
C742 C743 1.396 . S
C742 C747 1.390 . S
C743 C737 1.465 . S
C743 C742 1.396 . S
C743 C744 1.399 . S
C744 H730 0.929 . S
C744 C743 1.399 . S
C744 C745 1.385 . S
C745 H731 0.931 . S
C745 C744 1.385 . S
C745 C746 1.389 . S
C746 C745 1.389 . S
C746 C747 1.387 . S
C747 H732 0.930 . S
C747 C742 1.390 . S
C747 C746 1.387 . S
H748 C760 0.930 . S
H749 C762 0.930 . S
H750 C763 0.930 . S
H751 C767 0.959 . S
H752 C767 0.959 . S
H753 C767 0.961 . S
H754 C768 0.960 . S
H755 C768 0.961 . S
H756 C768 0.959 . S
H757 C771 0.929 . S
H758 C772 0.931 . S
H759 C774 0.930 . S
C760 H748 0.930 . S
C760 C761 1.399 . S
C760 C765 1.399 . S
C761 C760 1.399 . S
C761 C762 1.376 . S
C762 H749 0.930 . S
C762 C761 1.376 . S
C762 C763 1.388 . S
C763 H750 0.930 . S
C763 C762 1.388 . S
C763 C764 1.390 . S
C764 C763 1.390 . S
C764 C765 1.394 . S
C764 C770 1.465 . S
C765 C760 1.399 . S
C765 C764 1.394 . S
C765 C766 1.516 . S
C766 C765 1.516 . S
C766 C767 1.502 . S
C766 C768 1.561 . S
C766 C769 1.526 . S
C767 H751 0.959 . S
C767 H752 0.959 . S
C767 H753 0.961 . S
C767 C766 1.502 . S
C768 H754 0.960 . S
C768 H755 0.961 . S
C768 H756 0.959 . S
C768 C766 1.561 . S
C769 C766 1.526 . S
C769 C770 1.396 . S
C769 C774 1.390 . S
C770 C764 1.465 . S
C770 C769 1.396 . S
C770 C771 1.399 . S
C771 H757 0.929 . S
C771 C770 1.399 . S
C771 C772 1.385 . S
C772 H758 0.931 . S
C772 C771 1.385 . S
C772 C773 1.389 . S
C773 C772 1.389 . S
C773 C774 1.387 . S
C774 H759 0.930 . S
C774 C769 1.390 . S
C774 C773 1.387 . S
H775 C787 0.930 . S
H776 C789 0.930 . S
H777 C790 0.930 . S
H778 C794 0.959 . S
H779 C794 0.959 . S
H780 C794 0.961 . S
H781 C795 0.960 . S
H782 C795 0.961 . S
H783 C795 0.959 . S
H784 C798 0.929 . S
H785 C799 0.931 . S
H786 C801 0.930 . S
C787 H775 0.930 . S
C787 C788 1.399 . S
C787 C792 1.399 . S
C788 C787 1.399 . S
C788 C789 1.376 . S
C789 H776 0.930 . S
C789 C788 1.376 . S
C789 C790 1.388 . S
C790 H777 0.930 . S
C790 C789 1.388 . S
C790 C791 1.390 . S
C791 C790 1.390 . S
C791 C792 1.394 . S
C791 C797 1.465 . S
C792 C787 1.399 . S
C792 C791 1.394 . S
C792 C793 1.516 . S
C793 C792 1.516 . S
C793 C794 1.502 . S
C793 C795 1.561 . S
C793 C796 1.526 . S
C794 H778 0.959 . S
C794 H779 0.959 . S
C794 H780 0.961 . S
C794 C793 1.502 . S
C795 H781 0.960 . S
C795 H782 0.961 . S
C795 H783 0.959 . S
C795 C793 1.561 . S
C796 C793 1.526 . S
C796 C797 1.396 . S
C796 C801 1.390 . S
C797 C791 1.465 . S
C797 C796 1.396 . S
C797 C798 1.399 . S
C798 H784 0.929 . S
C798 C797 1.399 . S
C798 C799 1.385 . S
C799 H785 0.931 . S
C799 C798 1.385 . S
C799 C800 1.389 . S
C800 C799 1.389 . S
C800 C801 1.387 . S
C801 H786 0.930 . S
C801 C796 1.390 . S
C801 C800 1.387 . S
H802 C814 0.930 . S
H803 C816 0.930 . S
H804 C817 0.930 . S
H805 C821 0.959 . S
H806 C821 0.959 . S
H807 C821 0.961 . S
H808 C822 0.960 . S
H809 C822 0.961 . S
H810 C822 0.959 . S
H811 C825 0.929 . S
H812 C826 0.931 . S
H813 C828 0.930 . S
C814 H802 0.930 . S
C814 C815 1.399 . S
C814 C819 1.399 . S
C815 C814 1.399 . S
C815 C816 1.376 . S
C816 H803 0.930 . S
C816 C815 1.376 . S
C816 C817 1.388 . S
C817 H804 0.930 . S
C817 C816 1.388 . S
C817 C818 1.390 . S
C818 C817 1.390 . S
C818 C819 1.394 . S
C818 C824 1.465 . S
C819 C814 1.399 . S
C819 C818 1.394 . S
C819 C820 1.516 . S
C820 C819 1.516 . S
C820 C821 1.502 . S
C820 C822 1.561 . S
C820 C823 1.526 . S
C821 H805 0.959 . S
C821 H806 0.959 . S
C821 H807 0.961 . S
C821 C820 1.502 . S
C822 H808 0.960 . S
C822 H809 0.961 . S
C822 H810 0.959 . S
C822 C820 1.561 . S
C823 C820 1.526 . S
C823 C824 1.396 . S
C823 C828 1.390 . S
C824 C818 1.465 . S
C824 C823 1.396 . S
C824 C825 1.399 . S
C825 H811 0.929 . S
C825 C824 1.399 . S
C825 C826 1.385 . S
C826 H812 0.931 . S
C826 C825 1.385 . S
C826 C827 1.389 . S
C827 C826 1.389 . S
C827 C828 1.387 . S
C828 H813 0.930 . S
C828 C823 1.390 . S
C828 C827 1.387 . S
H829 C841 0.930 . S
H830 C843 0.930 . S
H831 C844 0.930 . S
H832 C848 0.959 . S
H833 C848 0.959 . S
H834 C848 0.961 . S
H835 C849 0.960 . S
H836 C849 0.961 . S
H837 C849 0.959 . S
H838 C852 0.929 . S
H839 C853 0.931 . S
H840 C855 0.930 . S
C841 H829 0.930 . S
C841 C842 1.399 . S
C841 C846 1.399 . S
C842 C841 1.399 . S
C842 C843 1.376 . S
C843 H830 0.930 . S
C843 C842 1.376 . S
C843 C844 1.388 . S
C844 H831 0.930 . S
C844 C843 1.388 . S
C844 C845 1.390 . S
C845 C844 1.390 . S
C845 C846 1.394 . S
C845 C851 1.465 . S
C846 C841 1.399 . S
C846 C845 1.394 . S
C846 C847 1.516 . S
C847 C846 1.516 . S
C847 C848 1.502 . S
C847 C849 1.561 . S
C847 C850 1.526 . S
C848 H832 0.959 . S
C848 H833 0.959 . S
C848 H834 0.961 . S
C848 C847 1.502 . S
C849 H835 0.960 . S
C849 H836 0.961 . S
C849 H837 0.959 . S
C849 C847 1.561 . S
C850 C847 1.526 . S
C850 C851 1.396 . S
C850 C855 1.390 . S
C851 C845 1.465 . S
C851 C850 1.396 . S
C851 C852 1.399 . S
C852 H838 0.929 . S
C852 C851 1.399 . S
C852 C853 1.385 . S
C853 H839 0.931 . S
C853 C852 1.385 . S
C853 C854 1.389 . S
C854 C853 1.389 . S
C854 C855 1.387 . S
C855 H840 0.930 . S
C855 C850 1.390 . S
C855 C854 1.387 . S
H856 C868 0.930 . S
H857 C870 0.930 . S
H858 C871 0.930 . S
H859 C875 0.959 . S
H860 C875 0.959 . S
H861 C875 0.961 . S
H862 C876 0.960 . S
H863 C876 0.961 . S
H864 C876 0.959 . S
H865 C879 0.929 . S
H866 C880 0.931 . S
H867 C882 0.930 . S
C868 H856 0.930 . S
C868 C869 1.399 . S
C868 C873 1.399 . S
C869 C868 1.399 . S
C869 C870 1.376 . S
C870 H857 0.930 . S
C870 C869 1.376 . S
C870 C871 1.388 . S
C871 H858 0.930 . S
C871 C870 1.388 . S
C871 C872 1.390 . S
C872 C871 1.390 . S
C872 C873 1.394 . S
C872 C878 1.465 . S
C873 C868 1.399 . S
C873 C872 1.394 . S
C873 C874 1.516 . S
C874 C873 1.516 . S
C874 C875 1.502 . S
C874 C876 1.561 . S
C874 C877 1.526 . S
C875 H859 0.959 . S
C875 H860 0.959 . S
C875 H861 0.961 . S
C875 C874 1.502 . S
C876 H862 0.960 . S
C876 H863 0.961 . S
C876 H864 0.959 . S
C876 C874 1.561 . S
C877 C874 1.526 . S
C877 C878 1.396 . S
C877 C882 1.390 . S
C878 C872 1.465 . S
C878 C877 1.396 . S
C878 C879 1.399 . S
C879 H865 0.929 . S
C879 C878 1.399 . S
C879 C880 1.385 . S
C880 H866 0.931 . S
C880 C879 1.385 . S
C880 C881 1.389 . S
C881 C880 1.389 . S
C881 C882 1.387 . S
C882 H867 0.930 . S
C882 C877 1.390 . S
C882 C881 1.387 . S
H883 C895 0.930 . S
H884 C897 0.930 . S
H885 C898 0.930 . S
H886 C902 0.959 . S
H887 C902 0.959 . S
H888 C902 0.961 . S
H889 C903 0.960 . S
H890 C903 0.961 . S
H891 C903 0.959 . S
H892 C906 0.929 . S
H893 C907 0.931 . S
H894 C909 0.930 . S
C895 H883 0.930 . S
C895 C896 1.399 . S
C895 C900 1.399 . S
C896 C895 1.399 . S
C896 C897 1.376 . S
C897 H884 0.930 . S
C897 C896 1.376 . S
C897 C898 1.388 . S
C898 H885 0.930 . S
C898 C897 1.388 . S
C898 C899 1.390 . S
C899 C898 1.390 . S
C899 C900 1.394 . S
C899 C905 1.465 . S
C900 C895 1.399 . S
C900 C899 1.394 . S
C900 C901 1.516 . S
C901 C900 1.516 . S
C901 C902 1.502 . S
C901 C903 1.561 . S
C901 C904 1.526 . S
C902 H886 0.959 . S
C902 H887 0.959 . S
C902 H888 0.961 . S
C902 C901 1.502 . S
C903 H889 0.960 . S
C903 H890 0.961 . S
C903 H891 0.959 . S
C903 C901 1.561 . S
C904 C901 1.526 . S
C904 C905 1.396 . S
C904 C909 1.390 . S
C905 C899 1.465 . S
C905 C904 1.396 . S
C905 C906 1.399 . S
C906 H892 0.929 . S
C906 C905 1.399 . S
C906 C907 1.385 . S
C907 H893 0.931 . S
C907 C906 1.385 . S
C907 C908 1.389 . S
C908 C907 1.389 . S
C908 C909 1.387 . S
C909 H894 0.930 . S
C909 C904 1.390 . S
C909 C908 1.387 . S
H910 C922 0.930 . S
H911 C924 0.930 . S
H912 C925 0.930 . S
H913 C929 0.959 . S
H914 C929 0.959 . S
H915 C929 0.961 . S
H916 C930 0.960 . S
H917 C930 0.961 . S
H918 C930 0.959 . S
H919 C933 0.929 . S
H920 C934 0.931 . S
H921 C936 0.930 . S
C922 H910 0.930 . S
C922 C923 1.399 . S
C922 C927 1.399 . S
C923 C922 1.399 . S
C923 C924 1.376 . S
C924 H911 0.930 . S
C924 C923 1.376 . S
C924 C925 1.388 . S
C925 H912 0.930 . S
C925 C924 1.388 . S
C925 C926 1.390 . S
C926 C925 1.390 . S
C926 C927 1.394 . S
C926 C932 1.465 . S
C927 C922 1.399 . S
C927 C926 1.394 . S
C927 C928 1.516 . S
C928 C927 1.516 . S
C928 C929 1.502 . S
C928 C930 1.561 . S
C928 C931 1.526 . S
C929 H913 0.959 . S
C929 H914 0.959 . S
C929 H915 0.961 . S
C929 C928 1.502 . S
C930 H916 0.960 . S
C930 H917 0.961 . S
C930 H918 0.959 . S
C930 C928 1.561 . S
C931 C928 1.526 . S
C931 C932 1.396 . S
C931 C936 1.390 . S
C932 C926 1.465 . S
C932 C931 1.396 . S
C932 C933 1.399 . S
C933 H919 0.929 . S
C933 C932 1.399 . S
C933 C934 1.385 . S
C934 H920 0.931 . S
C934 C933 1.385 . S
C934 C935 1.389 . S
C935 C934 1.389 . S
C935 C936 1.387 . S
C936 H921 0.930 . S
C936 C931 1.390 . S
C936 C935 1.387 . S
H937 C949 0.930 . S
H938 C951 0.930 . S
H939 C952 0.930 . S
H940 C956 0.959 . S
H941 C956 0.959 . S
H942 C956 0.961 . S
H943 C957 0.960 . S
H944 C957 0.961 . S
H945 C957 0.959 . S
H946 C960 0.929 . S
H947 C961 0.931 . S
H948 C963 0.930 . S
C949 H937 0.930 . S
C949 C950 1.399 . S
C949 C954 1.399 . S
C950 C949 1.399 . S
C950 C951 1.376 . S
C951 H938 0.930 . S
C951 C950 1.376 . S
C951 C952 1.388 . S
C952 H939 0.930 . S
C952 C951 1.388 . S
C952 C953 1.390 . S
C953 C952 1.390 . S
C953 C954 1.394 . S
C953 C959 1.465 . S
C954 C949 1.399 . S
C954 C953 1.394 . S
C954 C955 1.516 . S
C955 C954 1.516 . S
C955 C956 1.502 . S
C955 C957 1.561 . S
C955 C958 1.526 . S
C956 H940 0.959 . S
C956 H941 0.959 . S
C956 H942 0.961 . S
C956 C955 1.502 . S
C957 H943 0.960 . S
C957 H944 0.961 . S
C957 H945 0.959 . S
C957 C955 1.561 . S
C958 C955 1.526 . S
C958 C959 1.396 . S
C958 C963 1.390 . S
C959 C953 1.465 . S
C959 C958 1.396 . S
C959 C960 1.399 . S
C960 H946 0.929 . S
C960 C959 1.399 . S
C960 C961 1.385 . S
C961 H947 0.931 . S
C961 C960 1.385 . S
C961 C962 1.389 . S
C962 C961 1.389 . S
C962 C963 1.387 . S
C963 H948 0.930 . S
C963 C958 1.390 . S
C963 C962 1.387 . S
H964 C976 0.930 . S
H965 C978 0.930 . S
H966 C979 0.930 . S
H967 C983 0.959 . S
H968 C983 0.959 . S
H969 C983 0.961 . S
H970 C984 0.960 . S
H971 C984 0.961 . S
H972 C984 0.959 . S
H973 C987 0.929 . S
H974 C988 0.931 . S
H975 C990 0.930 . S
C976 H964 0.930 . S
C976 C977 1.399 . S
C976 C981 1.399 . S
C977 C976 1.399 . S
C977 C978 1.376 . S
C978 H965 0.930 . S
C978 C977 1.376 . S
C978 C979 1.388 . S
C979 H966 0.930 . S
C979 C978 1.388 . S
C979 C980 1.390 . S
C980 C979 1.390 . S
C980 C981 1.394 . S
C980 C986 1.465 . S
C981 C976 1.399 . S
C981 C980 1.394 . S
C981 C982 1.516 . S
C982 C981 1.516 . S
C982 C983 1.502 . S
C982 C984 1.561 . S
C982 C985 1.526 . S
C983 H967 0.959 . S
C983 H968 0.959 . S
C983 H969 0.961 . S
C983 C982 1.502 . S
C984 H970 0.960 . S
C984 H971 0.961 . S
C984 H972 0.959 . S
C984 C982 1.561 . S
C985 C982 1.526 . S
C985 C986 1.396 . S
C985 C990 1.390 . S
C986 C980 1.465 . S
C986 C985 1.396 . S
C986 C987 1.399 . S
C987 H973 0.929 . S
C987 C986 1.399 . S
C987 C988 1.385 . S
C988 H974 0.931 . S
C988 C987 1.385 . S
C988 C989 1.389 . S
C989 C988 1.389 . S
C989 C990 1.387 . S
C990 H975 0.930 . S
C990 C985 1.390 . S
C990 C989 1.387 . S
H991 C1003 0.930 . S
H992 C1005 0.930 . S
H993 C1006 0.930 . S
H994 C1010 0.959 . S
H995 C1010 0.959 . S
H996 C1010 0.961 . S
H997 C1011 0.960 . S
H998 C1011 0.973 . S
H999 C1011 0.959 . S
H1000 C1014 0.929 . S
H1001 C1015 0.931 . S
H1002 C1017 0.930 . S
C1003 H991 0.930 . S
C1003 C1004 1.399 . S
C1003 C1008 1.399 . S
C1004 C1003 1.399 . S
C1004 C1005 1.376 . S
C1005 H992 0.930 . S
C1005 C1004 1.376 . S
C1005 C1006 1.388 . S
C1006 H993 0.930 . S
C1006 C1005 1.388 . S
C1006 C1007 1.390 . S
C1007 C1006 1.390 . S
C1007 C1008 1.394 . S
C1007 C1013 1.465 . S
C1008 C1003 1.399 . S
C1008 C1007 1.394 . S
C1008 C1009 1.516 . S
C1009 C1008 1.516 . S
C1009 C1010 1.502 . S
C1009 C1011 1.561 . S
C1009 C1012 1.526 . S
C1010 H994 0.959 . S
C1010 H995 0.959 . S
C1010 H996 0.961 . S
C1010 C1009 1.502 . S
C1011 H997 0.960 . S
C1011 H998 0.973 . S
C1011 H999 0.959 . S
C1011 C1009 1.561 . S
C1012 C1009 1.526 . S
C1012 C1013 1.396 . S
C1012 C1017 1.390 . S
C1013 C1007 1.465 . S
C1013 C1012 1.396 . S
C1013 C1014 1.399 . S
C1014 H1000 0.929 . S
C1014 C1013 1.399 . S
C1014 C1015 1.385 . S
C1015 H1001 0.931 . S
C1015 C1014 1.385 . S
C1015 C1016 1.389 . S
C1016 C1015 1.389 . S
C1016 C1017 1.387 . S
C1017 H1002 0.930 . S
C1017 C1012 1.390 . S
C1017 C1016 1.387 . S
H1018 C1030 0.930 . S
H1019 C1032 0.930 . S
H1020 C1033 0.930 . S
H1021 C1037 0.959 . S
H1022 C1037 0.959 . S
H1023 C1037 0.961 . S
H1024 C1038 0.960 . S
H1025 C1038 0.961 . S
H1026 C1038 0.959 . S
H1027 C1041 0.929 . S
H1028 C1042 0.931 . S
H1029 C1044 0.930 . S
C1030 H1018 0.930 . S
C1030 C1031 1.399 . S
C1030 C1035 1.399 . S
C1031 C1030 1.399 . S
C1031 C1032 1.376 . S
C1032 H1019 0.930 . S
C1032 C1031 1.376 . S
C1032 C1033 1.388 . S
C1033 H1020 0.930 . S
C1033 C1032 1.388 . S
C1033 C1034 1.390 . S
C1034 C1033 1.390 . S
C1034 C1035 1.394 . S
C1034 C1040 1.465 . S
C1035 C1030 1.399 . S
C1035 C1034 1.394 . S
C1035 C1036 1.516 . S
C1036 C1035 1.516 . S
C1036 C1037 1.502 . S
C1036 C1038 1.561 . S
C1036 C1039 1.526 . S
C1037 H1021 0.959 . S
C1037 H1022 0.959 . S
C1037 H1023 0.961 . S
C1037 C1036 1.502 . S
C1038 H1024 0.960 . S
C1038 H1025 0.961 . S
C1038 H1026 0.959 . S
C1038 C1036 1.561 . S
C1039 C1036 1.526 . S
C1039 C1040 1.396 . S
C1039 C1044 1.390 . S
C1040 C1034 1.465 . S
C1040 C1039 1.396 . S
C1040 C1041 1.399 . S
C1041 H1027 0.929 . S
C1041 C1040 1.399 . S
C1041 C1042 1.385 . S
C1042 H1028 0.931 . S
C1042 C1041 1.385 . S
C1042 C1043 1.389 . S
C1043 C1042 1.389 . S
C1043 C1044 1.387 . S
C1044 H1029 0.930 . S
C1044 C1039 1.390 . S
C1044 C1043 1.387 . S
H1045 C1057 0.930 . S
H1046 C1059 0.930 . S
H1047 C1060 0.930 . S
H1048 C1064 0.959 . S
H1049 C1064 0.959 . S
H1050 C1064 0.961 . S
H1051 C1065 0.960 . S
H1052 C1065 0.961 . S
H1053 C1065 0.959 . S
H1054 C1068 0.929 . S
H1055 C1069 0.931 . S
H1056 C1071 0.930 . S
C1057 H1045 0.930 . S
C1057 C1058 1.399 . S
C1057 C1062 1.399 . S
C1058 C1057 1.399 . S
C1058 C1059 1.376 . S
C1059 H1046 0.930 . S
C1059 C1058 1.376 . S
C1059 C1060 1.388 . S
C1060 H1047 0.930 . S
C1060 C1059 1.388 . S
C1060 C1061 1.390 . S
C1061 C1060 1.390 . S
C1061 C1062 1.394 . S
C1061 C1067 1.465 . S
C1062 C1057 1.399 . S
C1062 C1061 1.394 . S
C1062 C1063 1.516 . S
C1063 C1062 1.516 . S
C1063 C1064 1.502 . S
C1063 C1065 1.561 . S
C1063 C1066 1.526 . S
C1064 H1048 0.959 . S
C1064 H1049 0.959 . S
C1064 H1050 0.961 . S
C1064 C1063 1.502 . S
C1065 H1051 0.960 . S
C1065 H1052 0.961 . S
C1065 H1053 0.959 . S
C1065 C1063 1.561 . S
C1066 C1063 1.526 . S
C1066 C1067 1.396 . S
C1066 C1071 1.390 . S
C1067 C1061 1.465 . S
C1067 C1066 1.396 . S
C1067 C1068 1.399 . S
C1068 H1054 0.929 . S
C1068 C1067 1.399 . S
C1068 C1069 1.385 . S
C1069 H1055 0.931 . S
C1069 C1068 1.385 . S
C1069 C1070 1.389 . S
C1070 C1069 1.389 . S
C1070 C1071 1.387 . S
C1071 H1056 0.930 . S
C1071 C1066 1.390 . S
C1071 C1070 1.387 . S
H1072 C1084 0.930 . S
H1073 C1086 0.930 1_545 S
H1074 C1087 0.930 . S
H1075 C1091 0.959 . S
H1076 C1091 0.959 . S
H1077 C1091 0.961 . S
H1078 C1092 0.960 . S
H1079 C1092 0.961 . S
H1080 C1092 0.959 . S
H1081 C1095 0.929 . S
H1082 C1096 0.931 . S
H1083 C1098 0.930 . S
C1084 H1072 0.930 . S
C1084 C1085 1.399 . S
C1084 C1089 1.399 . S
C1085 C1084 1.399 . S
C1085 C1086 1.376 . S
C1086 H1073 0.930 1_565 S
C1086 C1085 1.376 . S
C1086 C1087 1.388 . S
C1087 H1074 0.930 . S
C1087 C1086 1.388 . S
C1087 C1088 1.390 . S
C1088 C1087 1.390 . S
C1088 C1089 1.394 . S
C1088 C1094 1.465 . S
C1089 C1084 1.399 . S
C1089 C1088 1.394 . S
C1089 C1090 1.516 . S
C1090 C1089 1.516 . S
C1090 C1091 1.502 . S
C1090 C1092 1.561 . S
C1090 C1093 1.526 . S
C1091 H1075 0.959 . S
C1091 H1076 0.959 . S
C1091 H1077 0.961 . S
C1091 C1090 1.502 . S
C1092 H1078 0.960 . S
C1092 H1079 0.961 . S
C1092 H1080 0.959 . S
C1092 C1090 1.561 . S
C1093 C1090 1.526 . S
C1093 C1094 1.396 . S
C1093 C1098 1.390 . S
C1094 C1088 1.465 . S
C1094 C1093 1.396 . S
C1094 C1095 1.399 . S
C1095 H1081 0.929 . S
C1095 C1094 1.399 . S
C1095 C1096 1.385 . S
C1096 H1082 0.931 . S
C1096 C1095 1.385 . S
C1096 C1097 1.389 . S
C1097 C1096 1.389 . S
C1097 C1098 1.387 . S
C1098 H1083 0.930 . S
C1098 C1093 1.390 . S
C1098 C1097 1.387 . S
H1099 C1111 0.930 . S
H1100 C1113 0.930 . S
H1101 C1114 0.930 . S
H1102 C1118 0.959 . S
H1103 C1118 0.959 . S
H1104 C1118 0.961 . S
H1105 C1119 0.960 . S
H1106 C1119 0.961 . S
H1107 C1119 0.959 . S
H1108 C1122 0.929 . S
H1109 C1123 0.931 . S
H1110 C1125 0.930 . S
C1111 H1099 0.930 . S
C1111 C1112 1.399 . S
C1111 C1116 1.399 . S
C1112 C1111 1.399 . S
C1112 C1113 1.376 . S
C1113 H1100 0.930 . S
C1113 C1112 1.376 . S
C1113 C1114 1.388 . S
C1114 H1101 0.930 . S
C1114 C1113 1.388 . S
C1114 C1115 1.390 . S
C1115 C1114 1.390 . S
C1115 C1116 1.394 . S
C1115 C1121 1.465 . S
C1116 C1111 1.399 . S
C1116 C1115 1.394 . S
C1116 C1117 1.516 . S
C1117 C1116 1.516 . S
C1117 C1118 1.502 . S
C1117 C1119 1.561 . S
C1117 C1120 1.526 . S
C1118 H1102 0.959 . S
C1118 H1103 0.959 . S
C1118 H1104 0.961 . S
C1118 C1117 1.502 . S
C1119 H1105 0.960 . S
C1119 H1106 0.961 . S
C1119 H1107 0.959 . S
C1119 C1117 1.561 . S
C1120 C1117 1.526 . S
C1120 C1121 1.396 . S
C1120 C1125 1.390 . S
C1121 C1115 1.465 . S
C1121 C1120 1.396 . S
C1121 C1122 1.399 . S
C1122 H1108 0.929 . S
C1122 C1121 1.399 . S
C1122 C1123 1.385 . S
C1123 H1109 0.931 . S
C1123 C1122 1.385 . S
C1123 C1124 1.389 . S
C1124 C1123 1.389 . S
C1124 C1125 1.387 . S
C1125 H1110 0.930 . S
C1125 C1120 1.390 . S
C1125 C1124 1.387 . S
H1126 C1138 0.930 . S
H1127 C1140 0.930 . S
H1128 C1141 0.930 . S
H1129 C1145 0.959 . S
H1130 C1145 0.959 . S
H1131 C1145 0.961 . S
H1132 C1146 0.960 . S
H1133 C1146 0.961 . S
H1134 C1146 0.959 . S
H1135 C1149 0.929 . S
H1136 C1150 0.931 . S
H1137 C1152 0.930 . S
C1138 H1126 0.930 . S
C1138 C1139 1.399 . S
C1138 C1143 1.399 . S
C1139 C1138 1.399 . S
C1139 C1140 1.376 . S
C1140 H1127 0.930 . S
C1140 C1139 1.376 . S
C1140 C1141 1.388 . S
C1141 H1128 0.930 . S
C1141 C1140 1.388 . S
C1141 C1142 1.390 . S
C1142 C1141 1.390 . S
C1142 C1143 1.394 . S
C1142 C1148 1.465 . S
C1143 C1138 1.399 . S
C1143 C1142 1.394 . S
C1143 C1144 1.516 . S
C1144 C1143 1.516 . S
C1144 C1145 1.502 . S
C1144 C1146 1.561 . S
C1144 C1147 1.526 . S
C1145 H1129 0.959 . S
C1145 H1130 0.959 . S
C1145 H1131 0.961 . S
C1145 C1144 1.502 . S
C1146 H1132 0.960 . S
C1146 H1133 0.961 . S
C1146 H1134 0.959 . S
C1146 C1144 1.561 . S
C1147 C1144 1.526 . S
C1147 C1148 1.396 . S
C1147 C1152 1.390 . S
C1148 C1142 1.465 . S
C1148 C1147 1.396 . S
C1148 C1149 1.399 . S
C1149 H1135 0.929 . S
C1149 C1148 1.399 . S
C1149 C1150 1.385 . S
C1150 H1136 0.931 . S
C1150 C1149 1.385 . S
C1150 C1151 1.389 . S
C1151 C1150 1.389 . S
C1151 C1152 1.387 . S
C1152 H1137 0.930 . S
C1152 C1147 1.390 . S
C1152 C1151 1.387 . S
H1153 C1165 0.930 . S
H1154 C1167 0.930 . S
H1155 C1168 0.930 . S
H1156 C1172 0.959 . S
H1157 C1172 0.959 . S
H1158 C1172 0.961 . S
H1159 C1173 0.960 . S
H1160 C1173 0.961 . S
H1161 C1173 0.959 . S
H1162 C1176 0.929 . S
H1163 C1177 0.931 . S
H1164 C1179 0.930 . S
C1165 H1153 0.930 . S
C1165 C1166 1.399 . S
C1165 C1170 1.399 . S
C1166 C1165 1.399 . S
C1166 C1167 1.376 . S
C1167 H1154 0.930 . S
C1167 C1166 1.376 . S
C1167 C1168 1.388 . S
C1168 H1155 0.930 . S
C1168 C1167 1.388 . S
C1168 C1169 1.390 . S
C1169 C1168 1.390 . S
C1169 C1170 1.394 . S
C1169 C1175 1.465 . S
C1170 C1165 1.399 . S
C1170 C1169 1.394 . S
C1170 C1171 1.516 . S
C1171 C1170 1.516 . S
C1171 C1172 1.502 . S
C1171 C1173 1.561 . S
C1171 C1174 1.526 . S
C1172 H1156 0.959 . S
C1172 H1157 0.959 . S
C1172 H1158 0.961 . S
C1172 C1171 1.502 . S
C1173 H1159 0.960 . S
C1173 H1160 0.961 . S
C1173 H1161 0.959 . S
C1173 C1171 1.561 . S
C1174 C1171 1.526 . S
C1174 C1175 1.396 . S
C1174 C1179 1.390 . S
C1175 C1169 1.465 . S
C1175 C1174 1.396 . S
C1175 C1176 1.399 . S
C1176 H1162 0.929 . S
C1176 C1175 1.399 . S
C1176 C1177 1.385 . S
C1177 H1163 0.931 . S
C1177 C1176 1.385 . S
C1177 C1178 1.389 . S
C1178 C1177 1.389 . S
C1178 C1179 1.387 . S
C1179 H1164 0.930 . S
C1179 C1174 1.390 . S
C1179 C1178 1.387 . S
H1180 C1192 0.930 . S
H1181 C1194 0.930 . S
H1182 C1195 0.930 . S
H1183 C1199 0.959 . S
H1184 C1199 0.959 . S
H1185 C1199 0.961 . S
H1186 C1200 0.960 . S
H1187 C1200 0.961 . S
H1188 C1200 0.959 . S
H1189 C1203 0.929 . S
H1190 C1204 0.931 . S
H1191 C1206 0.930 . S
C1192 H1180 0.930 . S
C1192 C1193 1.399 . S
C1192 C1197 1.399 . S
C1193 C1192 1.399 . S
C1193 C1194 1.376 . S
C1194 H1181 0.930 . S
C1194 C1193 1.376 . S
C1194 C1195 1.388 . S
C1195 H1182 0.930 . S
C1195 C1194 1.388 . S
C1195 C1196 1.390 . S
C1196 C1195 1.390 . S
C1196 C1197 1.394 . S
C1196 C1202 1.465 . S
C1197 C1192 1.399 . S
C1197 C1196 1.394 . S
C1197 C1198 1.516 . S
C1198 C1197 1.516 . S
C1198 C1199 1.502 . S
C1198 C1200 1.561 . S
C1198 C1201 1.526 . S
C1199 H1183 0.959 . S
C1199 H1184 0.959 . S
C1199 H1185 0.961 . S
C1199 C1198 1.502 . S
C1200 H1186 0.960 . S
C1200 H1187 0.961 . S
C1200 H1188 0.959 . S
C1200 C1198 1.561 . S
C1201 C1198 1.526 . S
C1201 C1202 1.396 . S
C1201 C1206 1.390 . S
C1202 C1196 1.465 . S
C1202 C1201 1.396 . S
C1202 C1203 1.399 . S
C1203 H1189 0.929 . S
C1203 C1202 1.399 . S
C1203 C1204 1.385 . S
C1204 H1190 0.931 . S
C1204 C1203 1.385 . S
C1204 C1205 1.389 . S
C1205 C1204 1.389 . S
C1205 C1206 1.387 . S
C1206 H1191 0.930 . S
C1206 C1201 1.390 . S
C1206 C1205 1.387 . S
H1207 C1219 0.930 . S
H1208 C1221 0.930 . S
H1209 C1222 0.930 . S
H1210 C1226 0.959 . S
H1211 C1226 0.959 . S
H1212 C1226 0.961 . S
H1213 C1227 0.962 . S
H1214 C1227 0.961 . S
H1215 C1227 0.959 . S
H1216 C1230 0.929 . S
H1217 C1231 0.931 . S
H1218 C1233 0.930 . S
C1219 H1207 0.930 . S
C1219 C1220 1.399 . S
C1219 C1224 1.399 . S
C1220 C1219 1.399 . S
C1220 C1221 1.376 . S
C1221 H1208 0.930 . S
C1221 C1220 1.376 . S
C1221 C1222 1.388 . S
C1222 H1209 0.930 . S
C1222 C1221 1.388 . S
C1222 C1223 1.390 . S
C1223 C1222 1.390 . S
C1223 C1224 1.394 . S
C1223 C1229 1.465 . S
C1224 C1219 1.399 . S
C1224 C1223 1.394 . S
C1224 C1225 1.516 . S
C1225 C1224 1.516 . S
C1225 C1226 1.502 . S
C1225 C1227 1.561 . S
C1225 C1228 1.526 . S
C1226 H1210 0.959 . S
C1226 H1211 0.959 . S
C1226 H1212 0.961 . S
C1226 C1225 1.502 . S
C1227 H1213 0.962 . S
C1227 H1214 0.961 . S
C1227 H1215 0.959 . S
C1227 C1225 1.561 . S
C1228 C1225 1.526 . S
C1228 C1229 1.396 . S
C1228 C1233 1.390 . S
C1229 C1223 1.465 . S
C1229 C1228 1.396 . S
C1229 C1230 1.399 . S
C1230 H1216 0.929 . S
C1230 C1229 1.399 . S
C1230 C1231 1.385 . S
C1231 H1217 0.931 . S
C1231 C1230 1.385 . S
C1231 C1232 1.389 . S
C1232 C1231 1.389 . S
C1232 C1233 1.387 . S
C1233 H1218 0.930 . S
C1233 C1228 1.390 . S
C1233 C1232 1.387 . S
H1234 C1246 0.930 . S
H1235 C1248 0.930 . S
H1236 C1249 0.930 . S
H1237 C1253 0.959 . S
H1238 C1253 0.959 . S
H1239 C1253 0.961 . S
H1240 C1254 0.960 . S
H1241 C1254 0.961 . S
H1242 C1254 0.959 . S
H1243 C1257 0.929 . S
H1244 C1258 0.931 . S
H1245 C1260 0.930 . S
C1246 H1234 0.930 . S
C1246 C1247 1.399 . S
C1246 C1251 1.399 . S
C1247 C1246 1.399 . S
C1247 C1248 1.376 . S
C1248 H1235 0.930 . S
C1248 C1247 1.376 . S
C1248 C1249 1.388 . S
C1249 H1236 0.930 . S
C1249 C1248 1.388 . S
C1249 C1250 1.390 . S
C1250 C1249 1.390 . S
C1250 C1251 1.394 . S
C1250 C1256 1.465 . S
C1251 C1246 1.399 . S
C1251 C1250 1.394 . S
C1251 C1252 1.516 . S
C1252 C1251 1.516 . S
C1252 C1253 1.502 . S
C1252 C1254 1.561 . S
C1252 C1255 1.526 . S
C1253 H1237 0.959 . S
C1253 H1238 0.959 . S
C1253 H1239 0.961 . S
C1253 C1252 1.502 . S
C1254 H1240 0.960 . S
C1254 H1241 0.961 . S
C1254 H1242 0.959 . S
C1254 C1252 1.561 . S
C1255 C1252 1.526 . S
C1255 C1256 1.396 . S
C1255 C1260 1.390 . S
C1256 C1250 1.465 . S
C1256 C1255 1.396 . S
C1256 C1257 1.399 . S
C1257 H1243 0.929 . S
C1257 C1256 1.399 . S
C1257 C1258 1.385 . S
C1258 H1244 0.931 . S
C1258 C1257 1.385 . S
C1258 C1259 1.389 . S
C1259 C1258 1.389 . S
C1259 C1260 1.387 . S
C1260 H1245 0.930 . S
C1260 C1255 1.390 . S
C1260 C1259 1.387 . S
H1261 C1273 0.930 . S
H1262 C1275 0.930 . S
H1263 C1276 0.930 . S
H1264 C1280 0.959 . S
H1265 C1280 0.959 . S
H1266 C1280 0.961 . S
H1267 C1281 0.960 . S
H1268 C1281 0.961 . S
H1269 C1281 0.959 . S
H1270 C1284 0.929 . S
H1271 C1285 0.931 . S
H1272 C1287 0.930 . S
C1273 H1261 0.930 . S
C1273 C1274 1.399 . S
C1273 C1278 1.399 . S
C1274 C1273 1.399 . S
C1274 C1275 1.376 . S
C1275 H1262 0.930 . S
C1275 C1274 1.376 . S
C1275 C1276 1.388 . S
C1276 H1263 0.930 . S
C1276 C1275 1.388 . S
C1276 C1277 1.390 . S
C1277 C1276 1.390 . S
C1277 C1278 1.394 . S
C1277 C1283 1.465 . S
C1278 C1273 1.399 . S
C1278 C1277 1.394 . S
C1278 C1279 1.516 . S
C1279 C1278 1.516 . S
C1279 C1280 1.502 . S
C1279 C1281 1.561 . S
C1279 C1282 1.526 . S
C1280 H1264 0.959 . S
C1280 H1265 0.959 . S
C1280 H1266 0.961 . S
C1280 C1279 1.502 . S
C1281 H1267 0.960 . S
C1281 H1268 0.961 . S
C1281 H1269 0.959 . S
C1281 C1279 1.561 . S
C1282 C1279 1.526 . S
C1282 C1283 1.396 . S
C1282 C1287 1.390 . S
C1283 C1277 1.465 . S
C1283 C1282 1.396 . S
C1283 C1284 1.399 . S
C1284 H1270 0.929 . S
C1284 C1283 1.399 . S
C1284 C1285 1.385 . S
C1285 H1271 0.931 . S
C1285 C1284 1.385 . S
C1285 C1286 1.389 . S
C1286 C1285 1.389 . S
C1286 C1287 1.387 . S
C1287 H1272 0.930 . S
C1287 C1282 1.390 . S
C1287 C1286 1.387 . S
H1288 C1300 0.930 . S
H1289 C1302 0.930 . S
H1290 C1303 0.930 . S
H1291 C1307 0.959 . S
H1292 C1307 0.959 . S
H1293 C1307 0.961 . S
H1294 C1308 0.960 . S
H1295 C1308 0.961 . S
H1296 C1308 0.959 . S
H1297 C1311 0.929 . S
H1298 C1312 0.931 . S
H1299 C1314 0.930 . S
C1300 H1288 0.930 . S
C1300 C1301 1.399 . S
C1300 C1305 1.399 . S
C1301 C1300 1.399 . S
C1301 C1302 1.376 . S
C1302 H1289 0.930 . S
C1302 C1301 1.376 . S
C1302 C1303 1.388 . S
C1303 H1290 0.930 . S
C1303 C1302 1.388 . S
C1303 C1304 1.390 . S
C1304 C1303 1.390 . S
C1304 C1305 1.394 . S
C1304 C1310 1.465 . S
C1305 C1300 1.399 . S
C1305 C1304 1.394 . S
C1305 C1306 1.516 . S
C1306 C1305 1.516 . S
C1306 C1307 1.502 . S
C1306 C1308 1.561 . S
C1306 C1309 1.526 . S
C1307 H1291 0.959 . S
C1307 H1292 0.959 . S
C1307 H1293 0.961 . S
C1307 C1306 1.502 . S
C1308 H1294 0.960 . S
C1308 H1295 0.961 . S
C1308 H1296 0.959 . S
C1308 C1306 1.561 . S
C1309 C1306 1.526 . S
C1309 C1310 1.396 . S
C1309 C1314 1.390 . S
C1310 C1304 1.465 . S
C1310 C1309 1.396 . S
C1310 C1311 1.399 . S
C1311 H1297 0.929 . S
C1311 C1310 1.399 . S
C1311 C1312 1.385 . S
C1312 H1298 0.931 . S
C1312 C1311 1.385 . S
C1312 C1313 1.389 . S
C1313 C1312 1.389 . S
C1313 C1314 1.387 . S
C1314 H1299 0.930 . S
C1314 C1309 1.390 . S
C1314 C1313 1.387 . S
H1315 C1327 0.930 . S
H1316 C1329 0.930 . S
H1317 C1330 0.930 . S
H1318 C1334 0.959 . S
H1319 C1334 0.959 . S
H1320 C1334 0.961 . S
H1321 C1335 0.960 . S
H1322 C1335 0.961 . S
H1323 C1335 0.959 . S
H1324 C1338 0.929 . S
H1325 C1339 0.931 . S
H1326 C1341 0.930 . S
C1327 H1315 0.930 . S
C1327 C1328 1.399 . S
C1327 C1332 1.399 . S
C1328 C1327 1.399 . S
C1328 C1329 1.376 . S
C1329 H1316 0.930 . S
C1329 C1328 1.376 . S
C1329 C1330 1.388 . S
C1330 H1317 0.930 . S
C1330 C1329 1.388 . S
C1330 C1331 1.390 . S
C1331 C1330 1.390 . S
C1331 C1332 1.394 . S
C1331 C1337 1.465 . S
C1332 C1327 1.399 . S
C1332 C1331 1.394 . S
C1332 C1333 1.516 . S
C1333 C1332 1.516 . S
C1333 C1334 1.502 . S
C1333 C1335 1.561 . S
C1333 C1336 1.526 . S
C1334 H1318 0.959 . S
C1334 H1319 0.959 . S
C1334 H1320 0.961 . S
C1334 C1333 1.502 . S
C1335 H1321 0.960 . S
C1335 H1322 0.961 . S
C1335 H1323 0.959 . S
C1335 C1333 1.561 . S
C1336 C1333 1.526 . S
C1336 C1337 1.396 . S
C1336 C1341 1.390 . S
C1337 C1331 1.465 . S
C1337 C1336 1.396 . S
C1337 C1338 1.399 . S
C1338 H1324 0.929 . S
C1338 C1337 1.399 . S
C1338 C1339 1.385 . S
C1339 H1325 0.931 . S
C1339 C1338 1.385 . S
C1339 C1340 1.389 . S
C1340 C1339 1.389 . S
C1340 C1341 1.387 . S
C1341 H1326 0.930 . S
C1341 C1336 1.390 . S
C1341 C1340 1.387 . S
H1342 C1354 0.930 . S
H1343 C1356 0.930 . S
H1344 C1357 0.930 . S
H1345 C1361 0.959 . S
H1346 C1361 0.959 . S
H1347 C1361 0.961 . S
H1348 C1362 0.960 . S
H1349 C1362 0.961 . S
H1350 C1362 0.959 . S
H1351 C1365 0.929 . S
H1352 C1366 0.931 . S
H1353 C1368 0.930 . S
C1354 H1342 0.930 . S
C1354 C1355 1.399 . S
C1354 C1359 1.399 . S
C1355 C1354 1.399 . S
C1355 C1356 1.376 . S
C1356 H1343 0.930 . S
C1356 C1355 1.376 . S
C1356 C1357 1.388 . S
C1357 H1344 0.930 . S
C1357 C1356 1.388 . S
C1357 C1358 1.390 . S
C1358 C1357 1.390 . S
C1358 C1359 1.394 . S
C1358 C1364 1.465 . S
C1359 C1354 1.399 . S
C1359 C1358 1.394 . S
C1359 C1360 1.516 . S
C1360 C1359 1.516 . S
C1360 C1361 1.502 . S
C1360 C1362 1.561 . S
C1360 C1363 1.526 . S
C1361 H1345 0.959 . S
C1361 H1346 0.959 . S
C1361 H1347 0.961 . S
C1361 C1360 1.502 . S
C1362 H1348 0.960 . S
C1362 H1349 0.961 . S
C1362 H1350 0.959 . S
C1362 C1360 1.561 . S
C1363 C1360 1.526 . S
C1363 C1364 1.396 . S
C1363 C1368 1.390 . S
C1364 C1358 1.465 . S
C1364 C1363 1.396 . S
C1364 C1365 1.399 . S
C1365 H1351 0.929 . S
C1365 C1364 1.399 . S
C1365 C1366 1.385 . S
C1366 H1352 0.931 . S
C1366 C1365 1.385 . S
C1366 C1367 1.389 . S
C1367 C1366 1.389 . S
C1367 C1368 1.387 . S
C1368 H1353 0.930 . S
C1368 C1363 1.390 . S
C1368 C1367 1.387 . S
H1369 C1381 0.930 . S
H1370 C1383 0.930 . S
H1371 C1384 0.930 . S
H1372 C1388 0.959 . S
H1373 C1388 0.959 . S
H1374 C1388 0.961 . S
H1375 C1389 0.960 . S
H1376 C1389 0.961 . S
H1377 C1389 0.959 . S
H1378 C1392 0.929 . S
H1379 C1393 0.931 . S
H1380 C1395 0.930 . S
C1381 H1369 0.930 . S
C1381 C1382 1.399 . S
C1381 C1386 1.399 . S
C1382 C1381 1.399 . S
C1382 C1383 1.376 . S
C1383 H1370 0.930 . S
C1383 C1382 1.376 . S
C1383 C1384 1.388 . S
C1384 H1371 0.930 . S
C1384 C1383 1.388 . S
C1384 C1385 1.390 . S
C1385 C1384 1.390 . S
C1385 C1386 1.394 . S
C1385 C1391 1.465 . S
C1386 C1381 1.399 . S
C1386 C1385 1.394 . S
C1386 C1387 1.516 . S
C1387 C1386 1.516 . S
C1387 C1388 1.502 . S
C1387 C1389 1.561 . S
C1387 C1390 1.526 . S
C1388 H1372 0.959 . S
C1388 H1373 0.959 . S
C1388 H1374 0.961 . S
C1388 C1387 1.502 . S
C1389 H1375 0.960 . S
C1389 H1376 0.961 . S
C1389 H1377 0.959 . S
C1389 C1387 1.561 . S
C1390 C1387 1.526 . S
C1390 C1391 1.396 . S
C1390 C1395 1.390 . S
C1391 C1385 1.465 . S
C1391 C1390 1.396 . S
C1391 C1392 1.399 . S
C1392 H1378 0.929 . S
C1392 C1391 1.399 . S
C1392 C1393 1.385 . S
C1393 H1379 0.931 . S
C1393 C1392 1.385 . S
C1393 C1394 1.389 . S
C1394 C1393 1.389 . S
C1394 C1395 1.387 . S
C1395 H1380 0.930 . S
C1395 C1390 1.390 . S
C1395 C1394 1.387 . S
H1396 C1408 0.930 . S
H1397 C1410 0.930 . S
H1398 C1411 0.930 . S
H1399 C1415 0.959 . S
H1400 C1415 0.959 . S
H1401 C1415 0.961 . S
H1402 C1416 0.960 . S
H1403 C1416 0.961 . S
H1404 C1416 0.959 . S
H1405 C1419 0.929 . S
H1406 C1420 0.931 . S
H1407 C1422 0.930 . S
C1408 H1396 0.930 . S
C1408 C1409 1.399 . S
C1408 C1413 1.399 . S
C1409 C1408 1.399 . S
C1409 C1410 1.376 . S
C1410 H1397 0.930 . S
C1410 C1409 1.376 . S
C1410 C1411 1.388 . S
C1411 H1398 0.930 . S
C1411 C1410 1.388 . S
C1411 C1412 1.390 . S
C1412 C1411 1.390 . S
C1412 C1413 1.394 . S
C1412 C1418 1.465 . S
C1413 C1408 1.399 . S
C1413 C1412 1.394 . S
C1413 C1414 1.516 . S
C1414 C1413 1.516 . S
C1414 C1415 1.502 . S
C1414 C1416 1.561 . S
C1414 C1417 1.526 . S
C1415 H1399 0.959 . S
C1415 H1400 0.959 . S
C1415 H1401 0.961 . S
C1415 C1414 1.502 . S
C1416 H1402 0.960 . S
C1416 H1403 0.961 . S
C1416 H1404 0.959 . S
C1416 C1414 1.561 . S
C1417 C1414 1.526 . S
C1417 C1418 1.396 . S
C1417 C1422 1.390 . S
C1418 C1412 1.465 . S
C1418 C1417 1.396 . S
C1418 C1419 1.399 . S
C1419 H1405 0.929 . S
C1419 C1418 1.399 . S
C1419 C1420 1.385 . S
C1420 H1406 0.931 . S
C1420 C1419 1.385 . S
C1420 C1421 1.389 . S
C1421 C1420 1.389 . S
C1421 C1422 1.387 . S
C1422 H1407 0.930 . S
C1422 C1417 1.390 . S
C1422 C1421 1.387 . S
H1423 C1435 0.930 . S
H1424 C1437 0.930 . S
H1425 C1438 0.930 . S
H1426 C1442 0.959 . S
H1427 C1442 0.959 . S
H1428 C1442 0.961 . S
H1429 C1443 0.960 . S
H1430 C1443 0.961 . S
H1431 C1443 0.959 . S
H1432 C1446 0.929 . S
H1433 C1447 0.931 . S
H1434 C1449 0.930 . S
C1435 H1423 0.930 . S
C1435 C1436 1.399 . S
C1435 C1440 1.399 . S
C1436 C1435 1.399 . S
C1436 C1437 1.376 . S
C1437 H1424 0.930 . S
C1437 C1436 1.376 . S
C1437 C1438 1.388 . S
C1438 H1425 0.930 . S
C1438 C1437 1.388 . S
C1438 C1439 1.390 . S
C1439 C1438 1.390 . S
C1439 C1440 1.394 . S
C1439 C1445 1.465 . S
C1440 C1435 1.399 . S
C1440 C1439 1.394 . S
C1440 C1441 1.516 . S
C1441 C1440 1.516 . S
C1441 C1442 1.502 . S
C1441 C1443 1.561 . S
C1441 C1444 1.526 . S
C1442 H1426 0.959 . S
C1442 H1427 0.959 . S
C1442 H1428 0.961 . S
C1442 C1441 1.502 . S
C1443 H1429 0.960 . S
C1443 H1430 0.961 . S
C1443 H1431 0.959 . S
C1443 C1441 1.561 . S
C1444 C1441 1.526 . S
C1444 C1445 1.396 . S
C1444 C1449 1.390 . S
C1445 C1439 1.465 . S
C1445 C1444 1.396 . S
C1445 C1446 1.399 . S
C1446 H1432 0.929 . S
C1446 C1445 1.399 . S
C1446 C1447 1.385 . S
C1447 H1433 0.931 . S
C1447 C1446 1.385 . S
C1447 C1448 1.389 . S
C1448 C1447 1.389 . S
C1448 C1449 1.387 . S
C1449 H1434 0.930 . S
C1449 C1444 1.390 . S
C1449 C1448 1.387 . S
H1450 C1462 0.930 . S
H1451 C1464 0.930 . S
H1452 C1465 0.930 . S
H1453 C1469 0.959 . S
H1454 C1469 0.959 . S
H1455 C1469 0.961 . S
H1456 C1470 0.960 . S
H1457 C1470 0.961 . S
H1458 C1470 0.959 . S
H1459 C1473 0.929 . S
H1460 C1474 0.931 . S
H1461 C1476 0.930 . S
C1462 H1450 0.930 . S
C1462 C1463 1.399 . S
C1462 C1467 1.399 . S
C1463 C1462 1.399 . S
C1463 C1464 1.376 . S
C1464 H1451 0.930 . S
C1464 C1463 1.376 . S
C1464 C1465 1.388 . S
C1465 H1452 0.930 . S
C1465 C1464 1.388 . S
C1465 C1466 1.390 . S
C1466 C1465 1.390 . S
C1466 C1467 1.394 . S
C1466 C1472 1.465 . S
C1467 C1462 1.399 . S
C1467 C1466 1.394 . S
C1467 C1468 1.516 . S
C1468 C1467 1.516 . S
C1468 C1469 1.502 . S
C1468 C1470 1.561 . S
C1468 C1471 1.526 . S
C1469 H1453 0.959 . S
C1469 H1454 0.959 . S
C1469 H1455 0.961 . S
C1469 C1468 1.502 . S
C1470 H1456 0.960 . S
C1470 H1457 0.961 . S
C1470 H1458 0.959 . S
C1470 C1468 1.561 . S
C1471 C1468 1.526 . S
C1471 C1472 1.396 . S
C1471 C1476 1.390 . S
C1472 C1466 1.465 . S
C1472 C1471 1.396 . S
C1472 C1473 1.399 . S
C1473 H1459 0.929 . S
C1473 C1472 1.399 . S
C1473 C1474 1.385 . S
C1474 H1460 0.931 . S
C1474 C1473 1.385 . S
C1474 C1475 1.389 . S
C1475 C1474 1.389 . S
C1475 C1476 1.387 . S
C1476 H1461 0.930 . S
C1476 C1471 1.390 . S
C1476 C1475 1.387 . S
H1477 C1489 0.930 . S
H1478 C1491 0.930 . S
H1479 C1492 0.930 . S
H1480 C1496 0.959 . S
H1481 C1496 0.959 . S
H1482 C1496 0.961 . S
H1483 C1497 0.960 . S
H1484 C1497 0.961 . S
H1485 C1497 0.959 . S
H1486 C1500 0.929 . S
H1487 C1501 0.931 . S
H1488 C1503 0.930 . S
C1489 H1477 0.930 . S
C1489 C1490 1.399 . S
C1489 C1494 1.399 . S
C1490 C1489 1.399 . S
C1490 C1491 1.376 . S
C1491 H1478 0.930 . S
C1491 C1490 1.376 . S
C1491 C1492 1.388 . S
C1492 H1479 0.930 . S
C1492 C1491 1.388 . S
C1492 C1493 1.390 . S
C1493 C1492 1.390 . S
C1493 C1494 1.394 . S
C1493 C1499 1.465 . S
C1494 C1489 1.399 . S
C1494 C1493 1.394 . S
C1494 C1495 1.516 . S
C1495 C1494 1.516 . S
C1495 C1496 1.502 . S
C1495 C1497 1.561 . S
C1495 C1498 1.526 . S
C1496 H1480 0.959 . S
C1496 H1481 0.959 . S
C1496 H1482 0.961 . S
C1496 C1495 1.502 . S
C1497 H1483 0.960 . S
C1497 H1484 0.961 . S
C1497 H1485 0.959 . S
C1497 C1495 1.561 . S
C1498 C1495 1.526 . S
C1498 C1499 1.396 . S
C1498 C1503 1.390 . S
C1499 C1493 1.465 . S
C1499 C1498 1.396 . S
C1499 C1500 1.399 . S
C1500 H1486 0.929 . S
C1500 C1499 1.399 . S
C1500 C1501 1.385 . S
C1501 H1487 0.931 . S
C1501 C1500 1.385 . S
C1501 C1502 1.389 . S
C1502 C1501 1.389 . S
C1502 C1503 1.387 . S
C1503 H1488 0.930 . S
C1503 C1498 1.390 . S
C1503 C1502 1.387 . S
H1504 C1516 0.930 . S
H1505 C1518 0.930 . S
H1506 C1519 0.930 . S
H1507 C1523 0.959 . S
H1508 C1523 0.959 . S
H1509 C1523 0.961 . S
H1510 C1524 0.960 . S
H1511 C1524 0.961 . S
H1512 C1524 0.959 . S
H1513 C1527 0.929 . S
H1514 C1528 0.931 . S
H1515 C1530 0.930 . S
C1516 H1504 0.930 . S
C1516 C1517 1.399 . S
C1516 C1521 1.399 . S
C1517 C1516 1.399 . S
C1517 C1518 1.376 . S
C1518 H1505 0.930 . S
C1518 C1517 1.376 . S
C1518 C1519 1.388 . S
C1519 H1506 0.930 . S
C1519 C1518 1.388 . S
C1519 C1520 1.390 . S
C1520 C1519 1.390 . S
C1520 C1521 1.394 . S
C1520 C1526 1.465 . S
C1521 C1516 1.399 . S
C1521 C1520 1.394 . S
C1521 C1522 1.516 . S
C1522 C1521 1.516 . S
C1522 C1523 1.502 . S
C1522 C1524 1.561 . S
C1522 C1525 1.526 . S
C1523 H1507 0.959 . S
C1523 H1508 0.959 . S
C1523 H1509 0.961 . S
C1523 C1522 1.502 . S
C1524 H1510 0.960 . S
C1524 H1511 0.961 . S
C1524 H1512 0.959 . S
C1524 C1522 1.561 . S
C1525 C1522 1.526 . S
C1525 C1526 1.396 . S
C1525 C1530 1.390 . S
C1526 C1520 1.465 . S
C1526 C1525 1.396 . S
C1526 C1527 1.399 . S
C1527 H1513 0.929 . S
C1527 C1526 1.399 . S
C1527 C1528 1.385 . S
C1528 H1514 0.931 . S
C1528 C1527 1.385 . S
C1528 C1529 1.389 . S
C1529 C1528 1.389 . S
C1529 C1530 1.387 . S
C1530 H1515 0.930 . S
C1530 C1525 1.390 . S
C1530 C1529 1.387 . S
H1531 C1543 0.930 . S
H1532 C1545 0.930 . S
H1533 C1546 0.930 . S
H1534 C1550 0.959 . S
H1535 C1550 0.959 . S
H1536 C1550 0.961 . S
H1537 C1551 0.960 . S
H1538 C1551 0.961 . S
H1539 C1551 0.959 . S
H1540 C1554 0.929 . S
H1541 C1555 0.931 . S
H1542 C1557 0.930 . S
C1543 H1531 0.930 . S
C1543 C1544 1.399 . S
C1543 C1548 1.399 . S
C1544 C1543 1.399 . S
C1544 C1545 1.376 . S
C1545 H1532 0.930 . S
C1545 C1544 1.376 . S
C1545 C1546 1.388 . S
C1546 H1533 0.930 . S
C1546 C1545 1.388 . S
C1546 C1547 1.390 . S
C1547 C1546 1.390 . S
C1547 C1548 1.394 . S
C1547 C1553 1.465 . S
C1548 C1543 1.399 . S
C1548 C1547 1.394 . S
C1548 C1549 1.516 . S
C1549 C1548 1.516 . S
C1549 C1550 1.502 . S
C1549 C1551 1.561 . S
C1549 C1552 1.526 . S
C1550 H1534 0.959 . S
C1550 H1535 0.959 . S
C1550 H1536 0.961 . S
C1550 C1549 1.502 . S
C1551 H1537 0.960 . S
C1551 H1538 0.961 . S
C1551 H1539 0.959 . S
C1551 C1549 1.561 . S
C1552 C1549 1.526 . S
C1552 C1553 1.396 . S
C1552 C1557 1.390 . S
C1553 C1547 1.465 . S
C1553 C1552 1.396 . S
C1553 C1554 1.399 . S
C1554 H1540 0.929 . S
C1554 C1553 1.399 . S
C1554 C1555 1.385 . S
C1555 H1541 0.931 . S
C1555 C1554 1.385 . S
C1555 C1556 1.389 . S
C1556 C1555 1.389 . S
C1556 C1557 1.387 . S
C1557 H1542 0.930 . S
C1557 C1552 1.390 . S
C1557 C1556 1.387 . S
H1558 C1570 0.930 . S
H1559 C1572 0.930 . S
H1560 C1573 0.930 . S
H1561 C1577 0.959 . S
H1562 C1577 0.959 . S
H1563 C1577 0.961 . S
H1564 C1578 0.960 . S
H1565 C1578 0.961 . S
H1566 C1578 0.959 . S
H1567 C1581 0.929 . S
H1568 C1582 0.931 . S
H1569 C1584 0.930 . S
C1570 H1558 0.930 . S
C1570 C1571 1.399 . S
C1570 C1575 1.399 . S
C1571 C1570 1.399 . S
C1571 C1572 1.376 . S
C1572 H1559 0.930 . S
C1572 C1571 1.376 . S
C1572 C1573 1.388 . S
C1573 H1560 0.930 . S
C1573 C1572 1.388 . S
C1573 C1574 1.390 . S
C1574 C1573 1.390 . S
C1574 C1575 1.394 . S
C1574 C1580 1.465 . S
C1575 C1570 1.399 . S
C1575 C1574 1.394 . S
C1575 C1576 1.516 . S
C1576 C1575 1.516 . S
C1576 C1577 1.502 . S
C1576 C1578 1.561 . S
C1576 C1579 1.526 . S
C1577 H1561 0.959 . S
C1577 H1562 0.959 . S
C1577 H1563 0.961 . S
C1577 C1576 1.502 . S
C1578 H1564 0.960 . S
C1578 H1565 0.961 . S
C1578 H1566 0.959 . S
C1578 C1576 1.561 . S
C1579 C1576 1.526 . S
C1579 C1580 1.396 . S
C1579 C1584 1.390 . S
C1580 C1574 1.465 . S
C1580 C1579 1.396 . S
C1580 C1581 1.399 . S
C1581 H1567 0.929 . S
C1581 C1580 1.399 . S
C1581 C1582 1.385 . S
C1582 H1568 0.931 . S
C1582 C1581 1.385 . S
C1582 C1583 1.389 . S
C1583 C1582 1.389 . S
C1583 C1584 1.387 . S
C1584 H1569 0.930 . S
C1584 C1579 1.390 . S
C1584 C1583 1.387 . S
H1585 C1597 0.930 . S
H1586 C1599 0.930 . S
H1587 C1600 0.930 . S
H1588 C1604 0.959 . S
H1589 C1604 0.959 . S
H1590 C1604 0.961 . S
H1591 C1605 0.960 . S
H1592 C1605 0.961 . S
H1593 C1605 0.959 . S
H1594 C1608 0.929 . S
H1595 C1609 0.931 . S
H1596 C1611 0.930 . S
C1597 H1585 0.930 . S
C1597 C1598 1.399 . S
C1597 C1602 1.399 . S
C1598 C1597 1.399 . S
C1598 C1599 1.376 . S
C1599 H1586 0.930 . S
C1599 C1598 1.376 . S
C1599 C1600 1.388 . S
C1600 H1587 0.930 . S
C1600 C1599 1.388 . S
C1600 C1601 1.390 . S
C1601 C1600 1.390 . S
C1601 C1602 1.394 . S
C1601 C1607 1.465 . S
C1602 C1597 1.399 . S
C1602 C1601 1.394 . S
C1602 C1603 1.516 . S
C1603 C1602 1.516 . S
C1603 C1604 1.502 . S
C1603 C1605 1.561 . S
C1603 C1606 1.526 . S
C1604 H1588 0.959 . S
C1604 H1589 0.959 . S
C1604 H1590 0.961 . S
C1604 C1603 1.502 . S
C1605 H1591 0.960 . S
C1605 H1592 0.961 . S
C1605 H1593 0.959 . S
C1605 C1603 1.561 . S
C1606 C1603 1.526 . S
C1606 C1607 1.396 . S
C1606 C1611 1.390 . S
C1607 C1601 1.465 . S
C1607 C1606 1.396 . S
C1607 C1608 1.399 . S
C1608 H1594 0.929 . S
C1608 C1607 1.399 . S
C1608 C1609 1.385 . S
C1609 H1595 0.931 . S
C1609 C1608 1.385 . S
C1609 C1610 1.389 . S
C1610 C1609 1.389 . S
C1610 C1611 1.387 . S
C1611 H1596 0.930 . S
C1611 C1606 1.390 . S
C1611 C1610 1.387 . S
H1612 C1624 0.930 . S
H1613 C1626 0.930 . S
H1614 C1627 0.930 . S
H1615 C1631 0.959 . S
H1616 C1631 0.959 . S
H1617 C1631 0.961 . S
H1618 C1632 0.960 . S
H1619 C1632 0.961 . S
H1620 C1632 0.959 . S
H1621 C1635 0.929 . S
H1622 C1636 0.931 . S
H1623 C1638 0.930 1_556 S
C1624 H1612 0.930 . S
C1624 C1625 1.399 . S
C1624 C1629 1.399 . S
C1625 C1624 1.399 . S
C1625 C1626 1.376 1_556 S
C1626 H1613 0.930 . S
C1626 C1625 1.376 1_554 S
C1626 C1627 1.388 . S
C1627 H1614 0.930 . S
C1627 C1626 1.388 . S
C1627 C1628 1.390 . S
C1628 C1627 1.390 . S
C1628 C1629 1.394 1_554 S
C1628 C1634 1.465 . S
C1629 C1624 1.399 . S
C1629 C1628 1.394 1_556 S
C1629 C1630 1.516 . S
C1630 C1629 1.516 . S
C1630 C1631 1.502 . S
C1630 C1632 1.561 . S
C1630 C1633 1.526 1_556 S
C1631 H1615 0.959 . S
C1631 H1616 0.959 . S
C1631 H1617 0.961 . S
C1631 C1630 1.502 . S
C1632 H1618 0.960 . S
C1632 H1619 0.961 . S
C1632 H1620 0.959 . S
C1632 C1630 1.561 . S
C1633 C1630 1.526 1_554 S
C1633 C1634 1.396 . S
C1633 C1638 1.390 . S
C1634 C1628 1.465 . S
C1634 C1633 1.396 . S
C1634 C1635 1.399 . S
C1635 H1621 0.929 . S
C1635 C1634 1.399 . S
C1635 C1636 1.385 . S
C1636 H1622 0.931 . S
C1636 C1635 1.385 . S
C1636 C1637 1.389 . S
C1637 C1636 1.389 . S
C1637 C1638 1.387 . S
C1638 H1623 0.930 1_554 S
C1638 C1633 1.390 . S
C1638 C1637 1.387 . S
H1639 C1651 0.930 1_556 S
H1640 C1653 0.930 . S
H1641 C1654 0.930 . S
H1642 C1658 0.959 . S
H1643 C1658 0.959 . S
H1644 C1658 0.961 . S
H1645 C1659 0.960 . S
H1646 C1659 0.961 . S
H1647 C1659 0.959 . S
H1648 C1662 0.929 . S
H1649 C1663 0.931 . S
H1650 C1665 0.930 . S
C1651 H1639 0.930 1_554 S
C1651 C1652 1.399 . S
C1651 C1656 1.399 . S
C1652 C1651 1.399 . S
C1652 C1653 1.376 . S
C1653 H1640 0.930 . S
C1653 C1652 1.376 . S
C1653 C1654 1.388 . S
C1654 H1641 0.930 . S
C1654 C1653 1.388 . S
C1654 C1655 1.390 . S
C1655 C1654 1.390 . S
C1655 C1656 1.394 . S
C1655 C1661 1.465 . S
C1656 C1651 1.399 . S
C1656 C1655 1.394 . S
C1656 C1657 1.516 1_554 S
C1657 C1656 1.516 1_556 S
C1657 C1658 1.502 . S
C1657 C1659 1.561 . S
C1657 C1660 1.526 . S
C1658 H1642 0.959 . S
C1658 H1643 0.959 . S
C1658 H1644 0.961 . S
C1658 C1657 1.502 . S
C1659 H1645 0.960 . S
C1659 H1646 0.961 . S
C1659 H1647 0.959 . S
C1659 C1657 1.561 . S
C1660 C1657 1.526 . S
C1660 C1661 1.396 1_556 S
C1660 C1665 1.390 . S
C1661 C1655 1.465 . S
C1661 C1660 1.396 1_554 S
C1661 C1662 1.399 . S
C1662 H1648 0.929 . S
C1662 C1661 1.399 . S
C1662 C1663 1.385 . S
C1663 H1649 0.931 . S
C1663 C1662 1.385 . S
C1663 C1664 1.389 1_554 S
C1664 C1663 1.389 1_556 S
C1664 C1665 1.387 . S
C1665 H1650 0.930 . S
C1665 C1660 1.390 . S
C1665 C1664 1.387 . S
H1666 C1678 0.930 . S
H1667 C1680 0.930 . S
H1668 C1681 0.930 . S
H1669 C1685 0.959 . S
H1670 C1685 0.959 . S
H1671 C1685 0.961 . S
H1672 C1686 0.960 . S
H1673 C1686 0.961 . S
H1674 C1686 0.959 . S
H1675 C1689 0.929 . S
H1676 C1690 0.931 . S
H1677 C1692 0.930 . S
C1678 H1666 0.930 . S
C1678 C1679 1.399 1_554 S
C1678 C1683 1.399 . S
C1679 C1678 1.399 1_556 S
C1679 C1680 1.376 . S
C1680 H1667 0.930 . S
C1680 C1679 1.376 . S
C1680 C1681 1.388 . S
C1681 H1668 0.930 . S
C1681 C1680 1.388 . S
C1681 C1682 1.390 . S
C1682 C1681 1.390 . S
C1682 C1683 1.394 1_556 S
C1682 C1688 1.465 1_556 S
C1683 C1678 1.399 . S
C1683 C1682 1.394 1_554 S
C1683 C1684 1.516 . S
C1684 C1683 1.516 . S
C1684 C1685 1.502 . S
C1684 C1686 1.561 . S
C1684 C1687 1.526 . S
C1685 H1669 0.959 . S
C1685 H1670 0.959 . S
C1685 H1671 0.961 . S
C1685 C1684 1.502 . S
C1686 H1672 0.960 . S
C1686 H1673 0.961 . S
C1686 H1674 0.959 . S
C1686 C1684 1.561 . S
C1687 C1684 1.526 . S
C1687 C1688 1.396 . S
C1687 C1692 1.390 . S
C1688 C1682 1.465 1_554 S
C1688 C1687 1.396 . S
C1688 C1689 1.399 1_554 S
C1689 H1675 0.929 . S
C1689 C1688 1.399 1_556 S
C1689 C1690 1.385 . S
C1690 H1676 0.931 . S
C1690 C1689 1.385 . S
C1690 C1691 1.389 1_556 S
C1691 C1690 1.389 1_554 S
C1691 C1692 1.387 . S
C1692 H1677 0.930 . S
C1692 C1687 1.390 . S
C1692 C1691 1.387 . S
H1693 C1705 0.930 . S
H1694 C1707 0.939 . S
H1695 C1708 0.930 . S
H1696 C1712 0.959 . S
H1697 C1712 0.959 . S
H1698 C1712 0.961 . S
H1699 C1713 0.960 . S
H1700 C1713 0.961 . S
H1701 C1713 0.959 . S
H1702 C1716 0.929 . S
H1703 C1717 0.931 . S
H1704 C1719 0.930 . S
C1705 H1693 0.930 . S
C1705 C1706 1.399 . S
C1705 C1710 1.399 . S
C1706 C1705 1.399 . S
C1706 C1707 1.361 1_554 S
C1707 H1694 0.939 . S
C1707 C1706 1.361 1_556 S
C1707 C1708 1.396 . S
C1708 H1695 0.930 . S
C1708 C1707 1.396 . S
C1708 C1709 1.390 1_556 S
C1709 C1708 1.390 1_554 S
C1709 C1710 1.394 . S
C1709 C1715 1.465 1_554 S
C1710 C1705 1.399 . S
C1710 C1709 1.394 . S
C1710 C1711 1.516 . S
C1711 C1710 1.516 . S
C1711 C1712 1.502 . S
C1711 C1713 1.561 . S
C1711 C1714 1.526 . S
C1712 H1696 0.959 . S
C1712 H1697 0.959 . S
C1712 H1698 0.961 . S
C1712 C1711 1.502 . S
C1713 H1699 0.960 . S
C1713 H1700 0.961 . S
C1713 H1701 0.959 . S
C1713 C1711 1.561 . S
C1714 C1711 1.526 . S
C1714 C1715 1.396 1_554 S
C1714 C1719 1.390 . S
C1715 C1709 1.465 1_556 S
C1715 C1714 1.396 1_556 S
C1715 C1716 1.399 . S
C1716 H1702 0.929 . S
C1716 C1715 1.399 . S
C1716 C1717 1.385 . S
C1717 H1703 0.931 . S
C1717 C1716 1.385 . S
C1717 C1718 1.389 . S
C1718 C1717 1.389 . S
C1718 C1719 1.387 1_556 S
C1719 H1704 0.930 . S
C1719 C1714 1.390 . S
C1719 C1718 1.387 1_554 S
H1720 C1732 0.930 . S
H1721 C1734 0.930 . S
H1722 C1735 0.930 . S
H1723 C1739 0.959 . S
H1724 C1739 0.959 . S
H1725 C1739 0.961 . S
H1726 C1740 0.960 . S
H1727 C1740 0.961 . S
H1728 C1740 0.959 . S
H1729 C1743 0.929 . S
H1730 C1744 0.931 . S
H1731 C1746 0.930 . S
C1732 H1720 0.930 . S
C1732 C1733 1.399 . S
C1732 C1737 1.399 . S
C1733 C1732 1.399 . S
C1733 C1734 1.376 . S
C1734 H1721 0.930 . S
C1734 C1733 1.376 . S
C1734 C1735 1.388 . S
C1735 H1722 0.930 . S
C1735 C1734 1.388 . S
C1735 C1736 1.390 . S
C1736 C1735 1.390 . S
C1736 C1737 1.394 . S
C1736 C1742 1.465 . S
C1737 C1732 1.399 . S
C1737 C1736 1.394 . S
C1737 C1738 1.516 . S
C1738 C1737 1.516 . S
C1738 C1739 1.502 . S
C1738 C1740 1.561 . S
C1738 C1741 1.526 . S
C1739 H1723 0.959 . S
C1739 H1724 0.959 . S
C1739 H1725 0.961 . S
C1739 C1738 1.502 . S
C1740 H1726 0.960 . S
C1740 H1727 0.961 . S
C1740 H1728 0.959 . S
C1740 C1738 1.561 . S
C1741 C1738 1.526 . S
C1741 C1742 1.396 . S
C1741 C1746 1.390 . S
C1742 C1736 1.465 . S
C1742 C1741 1.396 . S
C1742 C1743 1.399 . S
C1743 H1729 0.929 . S
C1743 C1742 1.399 . S
C1743 C1744 1.385 . S
C1744 H1730 0.931 . S
C1744 C1743 1.385 . S
C1744 C1745 1.389 . S
C1745 C1744 1.389 . S
C1745 C1746 1.387 . S
C1746 H1731 0.930 . S
C1746 C1741 1.390 . S
C1746 C1745 1.387 . S
H1747 C1759 0.930 . S
H1748 C1761 0.930 . S
H1749 C1762 0.930 . S
H1750 C1766 0.959 . S
H1751 C1766 0.959 . S
H1752 C1766 0.961 . S
H1753 C1767 0.960 . S
H1754 C1767 0.961 . S
H1755 C1767 0.959 . S
H1756 C1770 0.929 . S
H1757 C1771 0.931 . S
H1758 C1773 0.930 . S
C1759 H1747 0.930 . S
C1759 C1760 1.399 . S
C1759 C1764 1.399 . S
C1760 C1759 1.399 . S
C1760 C1761 1.376 . S
C1761 H1748 0.930 . S
C1761 C1760 1.376 . S
C1761 C1762 1.388 . S
C1762 H1749 0.930 . S
C1762 C1761 1.388 . S
C1762 C1763 1.390 . S
C1763 C1762 1.390 . S
C1763 C1764 1.394 . S
C1763 C1769 1.465 . S
C1764 C1759 1.399 . S
C1764 C1763 1.394 . S
C1764 C1765 1.516 . S
C1765 C1764 1.516 . S
C1765 C1766 1.502 . S
C1765 C1767 1.561 . S
C1765 C1768 1.526 . S
C1766 H1750 0.959 . S
C1766 H1751 0.959 . S
C1766 H1752 0.961 . S
C1766 C1765 1.502 . S
C1767 H1753 0.960 . S
C1767 H1754 0.961 . S
C1767 H1755 0.959 . S
C1767 C1765 1.561 . S
C1768 C1765 1.526 . S
C1768 C1769 1.396 . S
C1768 C1773 1.390 . S
C1769 C1763 1.465 . S
C1769 C1768 1.396 . S
C1769 C1770 1.399 . S
C1770 H1756 0.929 . S
C1770 C1769 1.399 . S
C1770 C1771 1.385 . S
C1771 H1757 0.931 . S
C1771 C1770 1.385 . S
C1771 C1772 1.389 . S
C1772 C1771 1.389 . S
C1772 C1773 1.387 . S
C1773 H1758 0.930 . S
C1773 C1768 1.390 . S
C1773 C1772 1.387 . S
H1774 C1786 0.930 . S
H1775 C1788 0.930 . S
H1776 C1789 0.930 . S
H1777 C1793 0.959 . S
H1778 C1793 0.959 . S
H1779 C1793 0.961 . S
H1780 C1794 0.960 . S
H1781 C1794 0.961 . S
H1782 C1794 0.959 . S
H1783 C1797 0.929 . S
H1784 C1798 0.931 . S
H1785 C1800 0.930 . S
C1786 H1774 0.930 . S
C1786 C1787 1.399 . S
C1786 C1791 1.399 . S
C1787 C1786 1.399 . S
C1787 C1788 1.376 . S
C1788 H1775 0.930 . S
C1788 C1787 1.376 . S
C1788 C1789 1.388 . S
C1789 H1776 0.930 . S
C1789 C1788 1.388 . S
C1789 C1790 1.390 . S
C1790 C1789 1.390 . S
C1790 C1791 1.394 . S
C1790 C1796 1.465 . S
C1791 C1786 1.399 . S
C1791 C1790 1.394 . S
C1791 C1792 1.516 . S
C1792 C1791 1.516 . S
C1792 C1793 1.502 . S
C1792 C1794 1.561 . S
C1792 C1795 1.526 . S
C1793 H1777 0.959 . S
C1793 H1778 0.959 . S
C1793 H1779 0.961 . S
C1793 C1792 1.502 . S
C1794 H1780 0.960 . S
C1794 H1781 0.961 . S
C1794 H1782 0.959 . S
C1794 C1792 1.561 . S
C1795 C1792 1.526 . S
C1795 C1796 1.396 . S
C1795 C1800 1.390 . S
C1796 C1790 1.465 . S
C1796 C1795 1.396 . S
C1796 C1797 1.399 . S
C1797 H1783 0.929 . S
C1797 C1796 1.399 . S
C1797 C1798 1.385 . S
C1798 H1784 0.931 . S
C1798 C1797 1.385 . S
C1798 C1799 1.389 . S
C1799 C1798 1.389 . S
C1799 C1800 1.387 . S
C1800 H1785 0.930 . S
C1800 C1795 1.390 . S
C1800 C1799 1.387 . S
H1801 C1813 0.930 . S
H1802 C1815 0.930 . S
H1803 C1816 0.930 . S
H1804 C1820 0.959 . S
H1805 C1820 0.959 . S
H1806 C1820 0.961 . S
H1807 C1821 0.960 . S
H1808 C1821 0.961 . S
H1809 C1821 0.959 . S
H1810 C1824 0.929 . S
H1811 C1825 0.931 . S
H1812 C1827 0.930 . S
C1813 H1801 0.930 . S
C1813 C1814 1.399 . S
C1813 C1818 1.399 . S
C1814 C1813 1.399 . S
C1814 C1815 1.376 . S
C1815 H1802 0.930 . S
C1815 C1814 1.376 . S
C1815 C1816 1.388 . S
C1816 H1803 0.930 . S
C1816 C1815 1.388 . S
C1816 C1817 1.390 . S
C1817 C1816 1.390 . S
C1817 C1818 1.394 . S
C1817 C1823 1.465 . S
C1818 C1813 1.399 . S
C1818 C1817 1.394 . S
C1818 C1819 1.516 . S
C1819 C1818 1.516 . S
C1819 C1820 1.502 . S
C1819 C1821 1.561 . S
C1819 C1822 1.526 . S
C1820 H1804 0.959 . S
C1820 H1805 0.959 . S
C1820 H1806 0.961 . S
C1820 C1819 1.502 . S
C1821 H1807 0.960 . S
C1821 H1808 0.961 . S
C1821 H1809 0.959 . S
C1821 C1819 1.561 . S
C1822 C1819 1.526 . S
C1822 C1823 1.396 . S
C1822 C1827 1.390 . S
C1823 C1817 1.465 . S
C1823 C1822 1.396 . S
C1823 C1824 1.399 . S
C1824 H1810 0.929 . S
C1824 C1823 1.399 . S
C1824 C1825 1.385 . S
C1825 H1811 0.931 . S
C1825 C1824 1.385 . S
C1825 C1826 1.389 . S
C1826 C1825 1.389 . S
C1826 C1827 1.387 . S
C1827 H1812 0.930 . S
C1827 C1822 1.390 . S
C1827 C1826 1.387 . S
H1828 C1840 0.930 . S
H1829 C1842 0.930 . S
H1830 C1843 0.930 . S
H1831 C1847 0.959 . S
H1832 C1847 0.959 . S
H1833 C1847 0.961 . S
H1834 C1848 0.960 . S
H1835 C1848 0.961 . S
H1836 C1848 0.959 . S
H1837 C1851 0.929 . S
H1838 C1852 0.931 . S
H1839 C1854 0.930 . S
C1840 H1828 0.930 . S
C1840 C1841 1.399 . S
C1840 C1845 1.399 . S
C1841 C1840 1.399 . S
C1841 C1842 1.376 1_556 S
C1842 H1829 0.930 . S
C1842 C1841 1.376 1_554 S
C1842 C1843 1.388 . S
C1843 H1830 0.930 . S
C1843 C1842 1.388 . S
C1843 C1844 1.390 1_554 S
C1844 C1843 1.390 1_556 S
C1844 C1845 1.394 . S
C1844 C1850 1.465 1_556 S
C1845 C1840 1.399 . S
C1845 C1844 1.394 . S
C1845 C1846 1.516 . S
C1846 C1845 1.516 . S
C1846 C1847 1.502 . S
C1846 C1848 1.561 . S
C1846 C1849 1.526 . S
C1847 H1831 0.959 . S
C1847 H1832 0.959 . S
C1847 H1833 0.961 . S
C1847 C1846 1.502 . S
C1848 H1834 0.960 . S
C1848 H1835 0.961 . S
C1848 H1836 0.959 . S
C1848 C1846 1.561 . S
C1849 C1846 1.526 . S
C1849 C1850 1.396 1_556 S
C1849 C1854 1.390 . S
C1850 C1844 1.465 1_554 S
C1850 C1849 1.396 1_554 S
C1850 C1851 1.399 . S
C1851 H1837 0.929 . S
C1851 C1850 1.399 . S
C1851 C1852 1.385 . S
C1852 H1838 0.931 . S
C1852 C1851 1.385 . S
C1852 C1853 1.389 . S
C1853 C1852 1.389 . S
C1853 C1854 1.387 1_554 S
C1854 H1839 0.930 . S
C1854 C1849 1.390 . S
C1854 C1853 1.387 1_556 S
H1855 C1867 0.930 1_554 S
H1856 C1869 0.930 . S
H1857 C1870 0.930 . S
H1858 C1874 0.959 . S
H1859 C1874 0.959 . S
H1860 C1874 0.961 . S
H1861 C1875 0.960 . S
H1862 C1875 0.961 . S
H1863 C1875 0.959 . S
H1864 C1878 0.929 . S
H1865 C1879 0.931 . S
H1866 C1881 0.930 . S
C1867 H1855 0.930 1_556 S
C1867 C1868 1.399 . S
C1867 C1872 1.399 . S
C1868 C1867 1.399 . S
C1868 C1869 1.376 . S
C1869 H1856 0.930 . S
C1869 C1868 1.376 . S
C1869 C1870 1.388 . S
C1870 H1857 0.930 . S
C1870 C1869 1.388 . S
C1870 C1871 1.390 . S
C1871 C1870 1.390 . S
C1871 C1872 1.394 . S
C1871 C1877 1.465 . S
C1872 C1867 1.399 . S
C1872 C1871 1.394 . S
C1872 C1873 1.516 1_556 S
C1873 C1872 1.516 1_554 S
C1873 C1874 1.502 . S
C1873 C1875 1.561 . S
C1873 C1876 1.526 . S
C1874 H1858 0.959 . S
C1874 H1859 0.959 . S
C1874 H1860 0.961 . S
C1874 C1873 1.502 . S
C1875 H1861 0.960 . S
C1875 H1862 0.961 . S
C1875 H1863 0.959 . S
C1875 C1873 1.561 . S
C1876 C1873 1.526 . S
C1876 C1877 1.396 1_554 S
C1876 C1881 1.390 . S
C1877 C1871 1.465 . S
C1877 C1876 1.396 1_556 S
C1877 C1878 1.399 . S
C1878 H1864 0.929 . S
C1878 C1877 1.399 . S
C1878 C1879 1.385 . S
C1879 H1865 0.931 . S
C1879 C1878 1.385 . S
C1879 C1880 1.389 1_556 S
C1880 C1879 1.389 1_554 S
C1880 C1881 1.387 . S
C1881 H1866 0.930 . S
C1881 C1876 1.390 . S
C1881 C1880 1.387 . S
H1882 C1894 0.930 . S
H1883 C1896 0.930 . S
H1884 C1897 0.930 . S
H1885 C1901 0.959 . S
H1886 C1901 0.959 . S
H1887 C1901 0.961 . S
H1888 C1902 0.960 . S
H1889 C1902 0.961 . S
H1890 C1902 0.959 . S
H1891 C1905 0.929 . S
H1892 C1906 0.931 . S
H1893 C1908 0.930 . S
C1894 H1882 0.930 . S
C1894 C1895 1.399 1_556 S
C1894 C1899 1.399 . S
C1895 C1894 1.399 1_554 S
C1895 C1896 1.376 . S
C1896 H1883 0.930 . S
C1896 C1895 1.376 . S
C1896 C1897 1.388 . S
C1897 H1884 0.930 . S
C1897 C1896 1.388 . S
C1897 C1898 1.390 1_554 S
C1898 C1897 1.390 1_556 S
C1898 C1899 1.394 . S
C1898 C1904 1.465 . S
C1899 C1894 1.399 . S
C1899 C1898 1.394 . S
C1899 C1900 1.516 . S
C1900 C1899 1.516 . S
C1900 C1901 1.502 . S
C1900 C1902 1.561 . S
C1900 C1903 1.526 . S
C1901 H1885 0.959 . S
C1901 H1886 0.959 . S
C1901 H1887 0.961 . S
C1901 C1900 1.502 . S
C1902 H1888 0.960 . S
C1902 H1889 0.961 . S
C1902 H1890 0.959 . S
C1902 C1900 1.561 . S
C1903 C1900 1.526 . S
C1903 C1904 1.396 . S
C1903 C1908 1.390 . S
C1904 C1898 1.465 . S
C1904 C1903 1.396 . S
C1904 C1905 1.399 1_556 S
C1905 H1891 0.929 . S
C1905 C1904 1.399 1_554 S
C1905 C1906 1.385 1_554 S
C1906 H1892 0.931 . S
C1906 C1905 1.385 1_556 S
C1906 C1907 1.389 . S
C1907 C1906 1.389 . S
C1907 C1908 1.387 . S
C1908 H1893 0.930 . S
C1908 C1903 1.390 . S
C1908 C1907 1.387 . S
H1909 C1921 0.930 . S
H1910 C1923 0.930 . S
H1911 C1924 0.930 . S
H1912 C1928 0.959 . S
H1913 C1928 0.959 . S
H1914 C1928 0.961 . S
H1915 C1929 0.960 . S
H1916 C1929 0.961 . S
H1917 C1929 0.959 . S
H1918 C1932 0.929 . S
H1919 C1933 0.931 1_554 S
H1920 C1935 0.930 . S
C1921 H1909 0.930 . S
C1921 C1922 1.399 1_556 S
C1921 C1926 1.399 . S
C1922 C1921 1.399 1_554 S
C1922 C1923 1.376 . S
C1923 H1910 0.930 . S
C1923 C1922 1.376 . S
C1923 C1924 1.388 . S
C1924 H1911 0.930 . S
C1924 C1923 1.388 . S
C1924 C1925 1.392 . S
C1925 C1924 1.392 . S
C1925 C1926 1.392 1_554 S
C1925 C1931 1.465 1_554 S
C1926 C1921 1.399 . S
C1926 C1925 1.392 1_556 S
C1926 C1927 1.516 . S
C1927 C1926 1.516 . S
C1927 C1928 1.502 . S
C1927 C1929 1.561 . S
C1927 C1930 1.526 . S
C1928 H1912 0.959 . S
C1928 H1913 0.959 . S
C1928 H1914 0.961 . S
C1928 C1927 1.502 . S
C1929 H1915 0.960 . S
C1929 H1916 0.961 . S
C1929 H1917 0.959 . S
C1929 C1927 1.561 . S
C1930 C1927 1.526 . S
C1930 C1931 1.396 . S
C1930 C1935 1.390 . S
C1931 C1925 1.465 1_556 S
C1931 C1930 1.396 . S
C1931 C1932 1.399 1_556 S
C1932 H1918 0.929 . S
C1932 C1931 1.399 1_554 S
C1932 C1933 1.385 1_554 S
C1933 H1919 0.931 1_556 S
C1933 C1932 1.385 1_556 S
C1933 C1934 1.389 . S
C1934 C1933 1.389 . S
C1934 C1935 1.387 . S
C1935 H1920 0.930 . S
C1935 C1930 1.390 . S
C1935 C1934 1.387 . S
C653 C18 2.292 . S
C665 C218 2.302 . S
C680 C258 2.299 . S
C692 C58 2.307 . S
C707 C98 2.298 . S
C719 C298 2.289 . S
C734 C138 2.309 . S
C746 C178 2.300 . S
C761 C528 2.256 . S
C773 C328 2.251 . S
C788 C568 2.320 . S
C800 C368 2.326 . S
C815 C408 2.250 . S
C827 C608 2.252 . S
C842 C448 2.294 . S
C854 C488 2.280 . S
C869 C5 1.962 . S
C881 C129 1.814 1_545 S
C896 C45 1.922 . S
C908 C9 1.833 . S
C923 C85 1.915 . S
C935 C49 1.773 . S
C950 C125 1.948 . S
C962 C89 1.840 1_455 S
C977 C165 1.958 . S
C989 C209 1.830 1_565 S
C1004 C249 1.820 . S
C1016 C205 1.917 . S
C1031 C245 1.921 . S
C1043 C289 1.764 . S
C1058 C169 1.803 1_655 S
C1070 C285 1.962 . S
C1085 C459 1.760 1_565 S
C1097 C335 1.928 . S
C1112 C375 1.912 . S
C1124 C339 1.816 . S
C1139 C415 1.919 . S
C1151 C379 1.848 . S
C1166 C455 1.961 . S
C1178 C419 1.767 1_655 S
C1193 C495 1.930 . S
C1205 C539 1.840 1_545 S
C1220 C535 1.912 . S
C1232 C579 1.821 . S
C1247 C575 1.914 . S
C1259 C619 1.837 . S
C1274 C615 1.944 . S
C1286 C499 1.832 1_455 S
C1301 C15 1.175 . S
C1313 C95 1.132 . S
C1328 C55 1.175 . S
C1340 C135 1.132 . S
C1355 C255 1.145 . S
C1367 C175 1.166 . S
C1382 C295 1.130 . S
C1394 C215 1.149 . S
C1409 C405 1.167 . S
C1421 C325 1.130 . S
C1436 C445 1.127 . S
C1448 C365 1.166 . S
C1463 C485 1.137 . S
C1475 C565 1.156 . S
C1490 C525 1.137 . S
C1502 C605 1.156 . S
C1517 C19 2.649 . S
C1529 C458 2.638 . S
C1544 C338 2.651 . S
C1556 C59 2.632 . S
C1571 C99 2.632 . S
C1583 C378 2.651 . S
C1598 C418 2.648 . S
C1610 C139 2.649 . S
C1625 C538 2.651 . S
C1637 C179 2.632 . S
C1652 C219 2.631 . S
C1664 C578 2.657 . S
C1679 C618 2.643 . S
C1691 C259 2.653 . S
C1706 C299 2.654 . S
C1718 C498 2.641 . S
C1733 C329 2.634 . S
C1745 C128 2.654 . S
C1760 C369 2.633 . S
C1772 C8 2.655 . S
C1787 C48 2.640 . S
C1799 C409 2.650 . S
C1814 C449 2.638 . S
C1826 C88 2.650 . S
C1841 C489 2.652 . S
C1853 C208 2.640 . S
C1868 C529 2.636 . S
C1880 C248 2.652 . S
C1895 C288 2.639 . S
C1907 C569 2.652 . S
C1922 C168 2.638 . S
C1934 C609 2.653 . S
