# Generated by pormake.
# Topology zfu, (5)-cn, num edge types: 1
# Building blocks:
#     Node 0, Type 0, BuildingBlock: XOMCOT_clean_sbu_1, # of connection points: 5
#     Node 1, Type 0, BuildingBlock: XOMCOT_clean_sbu_1, # of connection points: 5
#     Node 2, Type 0, BuildingBlock: XOMCOT_clean_sbu_1, # of connection points: 5
#     Node 3, Type 0, BuildingBlock: XOMCOT_clean_sbu_1, # of connection points: 5
#     Node 4, Type 0, BuildingBlock: XOMCOT_clean_sbu_1, # of connection points: 5
#     Node 5, Type 0, BuildingBlock: XOMCOT_clean_sbu_1, # of connection points: 5
#     Node 6, Type 0, BuildingBlock: XOMCOT_clean_sbu_1, # of connection points: 5
#     Node 7, Type 0, BuildingBlock: XOMCOT_clean_sbu_1, # of connection points: 5
#     Edge 8, Type (0, 0), BuildingBlock: XIVTED_clean_linker_0, # of connection points: 2
#     Edge 9, Type (0, 0), BuildingBlock: XIVTED_clean_linker_0, # of connection points: 2
#     Edge 10, Type (0, 0), BuildingBlock: XIVTED_clean_linker_0, # of connection points: 2
#     Edge 11, Type (0, 0), BuildingBlock: XIVTED_clean_linker_0, # of connection points: 2
#     Edge 12, Type (0, 0), BuildingBlock: XIVTED_clean_linker_0, # of connection points: 2
#     Edge 13, Type (0, 0), BuildingBlock: XIVTED_clean_linker_0, # of connection points: 2
#     Edge 14, Type (0, 0), BuildingBlock: XIVTED_clean_linker_0, # of connection points: 2
#     Edge 15, Type (0, 0), BuildingBlock: XIVTED_clean_linker_0, # of connection points: 2
#     Edge 16, Type (0, 0), BuildingBlock: XIVTED_clean_linker_0, # of connection points: 2
#     Edge 17, Type (0, 0), BuildingBlock: XIVTED_clean_linker_0, # of connection points: 2
#     Edge 18, Type (0, 0), BuildingBlock: XIVTED_clean_linker_0, # of connection points: 2
#     Edge 19, Type (0, 0), BuildingBlock: XIVTED_clean_linker_0, # of connection points: 2
#     Edge 20, Type (0, 0), BuildingBlock: XIVTED_clean_linker_0, # of connection points: 2
#     Edge 21, Type (0, 0), BuildingBlock: XIVTED_clean_linker_0, # of connection points: 2
#     Edge 22, Type (0, 0), BuildingBlock: XIVTED_clean_linker_0, # of connection points: 2
#     Edge 23, Type (0, 0), BuildingBlock: XIVTED_clean_linker_0, # of connection points: 2
#     Edge 24, Type (0, 0), BuildingBlock: XIVTED_clean_linker_0, # of connection points: 2
#     Edge 25, Type (0, 0), BuildingBlock: XIVTED_clean_linker_0, # of connection points: 2
#     Edge 26, Type (0, 0), BuildingBlock: XIVTED_clean_linker_0, # of connection points: 2
#     Edge 27, Type (0, 0), BuildingBlock: XIVTED_clean_linker_0, # of connection points: 2
# Relax obj value: 0.127
# Max RMSD: 0.160
# Mean RMSD: 0.160
data_MOF--net-zfu--node1-XOMCOT_clean_sbu_1--edge1-XIVTED_clean_linker_0
_symmetry_space_group_name_H-M    P1
_symmetry_Int_Tables_number       1
_symmetry_cell_setting            triclinic
loop_
_symmetry_equiv_pos_as_xyz
'x, y, z'
_cell_length_a     38.963669
_cell_length_b     39.039065
_cell_length_c     27.386199
_cell_angle_alpha  89.934013
_cell_angle_beta   89.988229
_cell_angle_gamma 90.003199
loop_
_atom_site_label
_atom_site_type_symbol
_atom_site_fract_x
_atom_site_fract_y
_atom_site_fract_z
_atom_type_partial_charge
C0 C 0.44346 0.70871 0.01276 0.0
C1 C 0.45965 0.678 0.02156 0.0
N2 N 0.49157 0.67949 0.00258 0.0
N3 N 0.46503 0.72963 -0.01156 0.0
C4 C 0.49409 0.7111 0.98261 0.0
H5 H 0.41764 0.7155 0.02357 0.0
Co6 Co 0.45512 0.77426 0.96735 0.0
C7 C 0.52574 0.80253 0.94783 0.0
O8 O 0.51732 0.8145 0.90461 0.0
N9 N 0.44523 0.81942 0.94616 0.0
C10 C 0.44286 0.87638 0.94564 0.0
C11 C 0.45715 0.84817 0.96767 0.0
C12 C 0.42375 0.831 0.91076 0.0
N13 N 0.42177 0.86563 0.90986 0.0
O14 O 0.45788 0.75816 0.9011 0.0
H15 H 0.47468 0.84858 -0.00171 0.0
H16 H 0.40887 0.81449 0.88721 0.0
O17 O 0.50364 0.78597 0.97286 0.0
C18 C 0.42745 0.746 0.89676 0.0
O19 O 0.40536 0.75252 0.93188 0.0
N20 N 0.44769 0.78706 0.03196 0.0
C21 C 0.42235 0.77876 0.12601 0.0
C22 C 0.45773 0.7761 0.11675 0.0
C23 C 0.46996 0.78021 0.06913 0.0
C24 C 0.41401 0.79368 0.04127 0.0
C25 C 0.40078 0.78985 0.08818 0.0
H26 H 0.49635 0.77386 0.06152 0.0
H27 H 0.39653 0.79815 0.01126 0.0
H28 H 0.51647 0.72045 0.96336 0.0
H29 H 0.44882 0.65643 0.04105 0.0
H30 H 0.44751 0.90284 0.95541 0.0
H31 H 0.47534 0.76798 0.14509 0.0
H32 H 0.3733 0.79191 0.09334 0.0
C33 C 0.86522 0.94323 0.24191 0.0
C34 C 0.89527 0.96082 0.24974 0.0
N35 N 0.89078 0.99361 0.23553 0.0
N36 N 0.84164 0.96475 0.22304 0.0
C37 C 0.85794 0.99527 0.21951 0.0
H38 H 0.86084 0.91634 0.24917 0.0
Co39 Co 0.79711 0.95242 0.2034 0.0
C40 C 0.76456 1.02162 0.20172 0.0
O41 O 0.75855 1.01951 0.15463 0.0
N42 N 0.75225 0.94017 0.18369 0.0
C43 C 0.69586 0.93163 0.18745 0.0
C44 C 0.72356 0.94674 0.20971 0.0
C45 C 0.74116 0.92122 0.14526 0.0
N46 N 0.70688 0.91557 0.14692 0.0
O47 O 0.80839 0.96618 0.13817 0.0
H48 H 0.72296 0.96083 0.2437 0.0
H49 H 0.75797 0.91058 0.11772 0.0
O50 O 0.78028 0.99728 0.22338 0.0
C51 C 0.8255 0.94007 0.12392 0.0
O52 O 0.82754 0.91328 0.15288 0.0
N53 N 0.78887 0.93474 0.26544 0.0
C54 C 0.79919 0.89758 0.35073 0.0
C55 C 0.80016 0.93355 0.3514 0.0
C56 C 0.79508 0.9518 0.30799 0.0
C57 C 0.78504 0.90007 0.26506 0.0
C58 C 0.78984 0.88098 0.30742 0.0
H59 H 0.7997 0.97907 0.30767 0.0
H60 H 0.78119 0.88685 0.23081 0.0
H61 H 0.8462 1.01799 0.20422 0.0
H62 H 0.91858 0.95019 0.26498 0.0
H63 H 0.6696 0.93207 0.20035 0.0
H64 H 0.80774 0.94727 0.38402 0.0
H65 H 0.78849 0.8533 0.30553 0.0
C66 C 0.61444 0.34635 0.51233 0.0
C67 C 0.59819 0.37693 0.52171 0.0
N68 N 0.56615 0.37544 0.50319 0.0
N69 N 0.59279 0.3255 0.48813 0.0
C70 C 0.56361 0.34395 0.48293 0.0
H71 H 0.64036 0.33961 0.52272 0.0
Co72 Co 0.60281 0.28099 0.46674 0.0
C73 C 0.53219 0.25292 0.44746 0.0
O74 O 0.54042 0.24186 0.40371 0.0
N75 N 0.61283 0.23595 0.44539 0.0
C76 C 0.61526 0.17901 0.44517 0.0
C77 C 0.60071 0.20721 0.46677 0.0
C78 C 0.63471 0.22439 0.4105 0.0
N79 N 0.63673 0.18975 0.40981 0.0
O80 O 0.59935 0.29718 0.40058 0.0
H81 H 0.58296 0.20679 0.49713 0.0
H82 H 0.64989 0.24093 0.38729 0.0
O83 O 0.55438 0.269 0.47288 0.0
C84 C 0.62941 0.3101 0.39563 0.0
O85 O 0.6521 0.30388 0.43009 0.0
N86 N 0.6108 0.26808 0.5312 0.0
C87 C 0.63651 0.27689 0.6249 0.0
C88 C 0.60101 0.27862 0.61611 0.0
C89 C 0.58859 0.27433 0.56865 0.0
C90 C 0.64467 0.26219 0.54007 0.0
C91 C 0.6581 0.26634 0.58679 0.0
H92 H 0.56201 0.28007 0.56141 0.0
H93 H 0.66205 0.25816 0.50982 0.0
H94 H 0.54113 0.33462 0.46395 0.0
H95 H 0.60908 0.39839 0.5413 0.0
H96 H 0.61059 0.15256 0.45504 0.0
H97 H 0.58337 0.28622 0.64468 0.0
H98 H 0.68566 0.26495 0.59156 0.0
C99 C 0.19178 0.11229 0.74038 0.0
C100 C 0.16192 0.09429 0.74796 0.0
N101 N 0.16706 0.06146 0.73446 0.0
N102 N 0.21587 0.091 0.72238 0.0
C103 C 0.20007 0.06021 0.71908 0.0
H104 H 0.19569 0.13928 0.74732 0.0
Co105 Co 0.26049 0.10374 0.70371 0.0
C106 C 0.2938 0.03488 0.70342 0.0
O107 O 0.30052 0.03695 0.65651 0.0
N108 N 0.3055 0.11636 0.68502 0.0
C109 C 0.36177 0.12525 0.69027 0.0
C110 C 0.33387 0.10996 0.71182 0.0
C111 C 0.31698 0.1354 0.64684 0.0
N112 N 0.3512 0.14126 0.64941 0.0
O113 O 0.25015 0.08972 0.63838 0.0
H114 H 0.3341 0.09589 0.74587 0.0
H115 H 0.30049 0.14596 0.61884 0.0
O116 O 0.2775 0.0591 0.7244 0.0
C117 C 0.23319 0.11578 0.62352 0.0
O118 O 0.23077 0.14264 0.6522 0.0
N119 N 0.26782 0.12161 0.76579 0.0
C120 C 0.25696 0.15873 0.85088 0.0
C121 C 0.25607 0.12276 0.85164 0.0
C122 C 0.2614 0.10453 0.80833 0.0
C123 C 0.27141 0.1563 0.76531 0.0
C124 C 0.26633 0.17537 0.80756 0.0
H125 H 0.25691 0.07724 0.80807 0.0
H126 H 0.27542 0.16952 0.73105 0.0
H127 H 0.21234 0.03756 0.7045 0.0
H128 H 0.13832 0.10465 0.76263 0.0
H129 H 0.38785 0.125 0.70391 0.0
H130 H 0.24845 0.10901 0.88426 0.0
H131 H 0.2676 0.20306 0.8056 0.0
C132 C 0.94021 0.84829 0.74241 0.0
C133 C 0.95627 0.87906 0.73328 0.0
N134 N 0.98875 0.87725 0.75019 0.0
N135 N 0.96244 0.82702 0.7648 0.0
C136 C 0.9917 0.84541 0.76928 0.0
H137 H 0.91406 0.8417 0.73307 0.0
Co138 Co 0.95346 0.78213 0.78578 0.0
C139 C 1.02492 0.7554 0.80024 0.0
O140 O 1.01858 0.74565 0.84527 0.0
N141 N 0.94473 0.73663 0.80716 0.0
C142 C 0.94308 0.67963 0.80678 0.0
C143 C 0.95671 0.70821 0.78483 0.0
C144 C 0.92394 0.72445 0.84304 0.0
N145 N 0.9224 0.68981 0.84336 0.0
O146 O 0.9588 0.79773 0.85189 0.0
H147 H 0.9736 0.70828 0.75347 0.0
H148 H 0.90904 0.74051 0.86719 0.0
O149 O 1.00158 0.77055 0.77571 0.0
C150 C 0.92803 0.80849 0.85849 0.0
O151 O 0.90519 0.80175 0.82445 0.0
N152 N 0.94314 0.76979 0.72172 0.0
C153 C 0.91189 0.77737 0.63126 0.0
C154 C 0.94738 0.78263 0.63636 0.0
C155 C 0.96265 0.77869 0.68229 0.0
C156 C 0.90953 0.76105 0.71614 0.0
C157 C 0.89346 0.7643 0.67105 0.0
H158 H 0.98888 0.78687 0.6872 0.0
H159 H 0.89411 0.75494 0.7478 0.0
H160 H 1.01457 0.83577 0.78697 0.0
H161 H 0.94494 0.90086 0.71496 0.0
H162 H 0.94771 0.65332 0.7962 0.0
H163 H 0.96246 0.793 0.60659 0.0
H164 H 0.86615 0.75945 0.66841 0.0
C165 C 0.69334 0.44341 0.00511 0.0
C166 C 0.66361 0.46167 -0.00231 0.0
N167 N 0.66865 0.49411 0.01301 0.0
N168 N 0.71721 0.46417 0.02487 0.0
C169 C 0.70143 0.49489 0.02936 0.0
H170 H 0.69737 0.41665 -0.00333 0.0
Co171 Co 0.76174 0.45108 0.04341 0.0
C172 C 0.79538 0.51993 0.05009 0.0
O173 O 0.80312 0.51558 0.09637 0.0
N174 N 0.80664 0.43818 0.06199 0.0
C175 C 0.86311 0.43029 0.05785 0.0
C176 C 0.83523 0.44546 0.0361 0.0
C177 C 0.81797 0.41873 0.09982 0.0
N178 N 0.8523 0.41346 0.09792 0.0
O179 O 0.75016 0.46154 0.10988 0.0
H180 H 0.83568 0.46033 0.00275 0.0
H181 H 0.80135 0.40769 0.12729 0.0
O182 O 0.77847 0.49684 0.02757 0.0
C183 C 0.73348 0.43436 0.12107 0.0
O184 O 0.73286 0.40897 0.08956 0.0
N185 N 0.77007 0.43653 0.97975 0.0
C186 C 0.75829 0.40394 0.89113 0.0
C187 C 0.75734 0.43986 0.89437 0.0
C188 C 0.76314 0.45575 0.93931 0.0
C189 C 0.77418 0.40198 0.9763 0.0
C190 C 0.76865 0.38514 0.93221 0.0
H191 H 0.75825 0.48285 0.94259 0.0
H192 H 0.77846 0.38699 0.00898 0.0
H193 H 0.71355 0.51716 0.0453 0.0
H194 H 0.64021 0.45179 0.98178 0.0
H195 H 0.88938 0.43142 0.04505 0.0
H196 H 0.74962 0.45534 0.86342 0.0
H197 H 0.76924 0.35741 0.93172 0.0
C198 C 0.11659 0.20746 0.24365 0.0
C199 C 0.10017 0.17688 0.23454 0.0
N200 N 0.06771 0.17905 0.25142 0.0
N201 N 0.0946 0.22895 0.26602 0.0
C202 C 0.06513 0.21089 0.27052 0.0
H203 H 0.1428 0.21379 0.23423 0.0
Co204 Co 0.10377 0.27382 0.28671 0.0
C205 C 0.03234 0.30096 0.30077 0.0
O206 O 0.03866 0.31153 0.3454 0.0
N207 N 0.11265 0.31933 0.3078 0.0
C208 C 0.11449 0.37633 0.30715 0.0
C209 C 0.10085 0.34777 0.28524 0.0
C210 C 0.13332 0.33146 0.34377 0.0
N211 N 0.13499 0.36609 0.34395 0.0
O212 O 0.09847 0.25835 0.35291 0.0
H213 H 0.08406 0.34774 0.25379 0.0
H214 H 0.14805 0.31537 0.36814 0.0
O215 O 0.05569 0.28547 0.27676 0.0
C216 C 0.12926 0.24766 0.35954 0.0
O217 O 0.15205 0.25417 0.3253 0.0
N218 N 0.11401 0.28607 0.22255 0.0
C219 C 0.14501 0.27863 0.13191 0.0
C220 C 0.10952 0.27343 0.13721 0.0
C221 C 0.09438 0.2773 0.18323 0.0
C222 C 0.14763 0.29473 0.2168 0.0
C223 C 0.16357 0.29155 0.17161 0.0
H224 H 0.06813 0.26921 0.18826 0.0
H225 H 0.16314 0.30075 0.24838 0.0
H226 H 0.04236 0.22077 0.28816 0.0
H227 H 0.11123 0.15497 0.21619 0.0
H228 H 0.10998 0.40264 0.29645 0.0
H229 H 0.09435 0.26316 0.1075 0.0
H230 H 0.19089 0.29637 0.16882 0.0
C231 C 0.36457 0.61148 0.50936 0.0
C232 C 0.39432 0.59321 0.50238 0.0
N233 N 0.389 0.56064 0.517 0.0
N234 N 0.34038 0.59061 0.52815 0.0
C235 C 0.356 0.55979 0.5325 0.0
H236 H 0.36073 0.63832 0.50121 0.0
Co237 Co 0.29565 0.60391 0.54535 0.0
C238 C 0.26165 0.53526 0.5516 0.0
O239 O 0.25355 0.53968 0.59773 0.0
N240 N 0.25056 0.6171 0.56254 0.0
C241 C 0.19421 0.62518 0.5566 0.0
C242 C 0.22234 0.60976 0.53594 0.0
C243 C 0.23876 0.63686 0.59969 0.0
N244 N 0.20448 0.64226 0.59668 0.0
O245 O 0.30613 0.59333 0.61212 0.0
H246 H 0.22232 0.5947 0.5028 0.0
H247 H 0.25503 0.64806 0.62741 0.0
O248 O 0.27889 0.55823 0.52926 0.0
C249 C 0.32282 0.62031 0.62407 0.0
O250 O 0.32435 0.6458 0.59273 0.0
N251 N 0.28838 0.61846 0.48141 0.0
C252 C 0.30182 0.65068 0.39287 0.0
C253 C 0.30213 0.61475 0.39639 0.0
C254 C 0.29555 0.59906 0.4413 0.0
C255 C 0.28484 0.65306 0.47762 0.0
C256 C 0.29124 0.66972 0.43357 0.0
H257 H 0.30001 0.5719 0.44489 0.0
H258 H 0.28034 0.66817 0.51008 0.0
H259 H 0.34359 0.53738 0.54764 0.0
H260 H 0.41794 0.60317 0.48717 0.0
H261 H 0.16814 0.62408 0.54302 0.0
H262 H 0.30993 0.59906 0.36575 0.0
H263 H 0.2911 0.69745 0.43288 0.0
H264 H 0.68116 0.56285 0.00997 0.0
H265 H 0.48096 0.61087 0.00918 0.0
H266 H 0.59914 0.48866 0.01478 0.0
H267 H 0.56116 0.6867 -0.0019 0.0
H268 H 0.52444 0.56611 0.01266 0.0
H269 H 0.63831 0.60881 0.00744 0.0
C270 C 0.65422 0.55617 0.01077 0.0
C271 C 0.64386 0.5217 0.01241 0.0
C272 C 0.53262 0.59252 0.00945 0.0
C273 C 0.5946 0.57425 0.00915 0.0
C274 C 0.50772 0.6182 0.00772 0.0
C275 C 0.51728 0.65276 0.00351 0.0
C276 C 0.56757 0.60125 0.00711 0.0
C277 C 0.55251 0.66045 0.00088 0.0
C278 C 0.62974 0.58245 0.00902 0.0
C279 C 0.60847 0.5147 0.01277 0.0
N280 N 0.57635 0.63494 0.00286 0.0
N281 N 0.58525 0.54065 0.01119 0.0
H282 H 0.99823 0.18786 0.25309 0.0
H283 H 0.96013 0.98656 0.23284 0.0
H284 H 0.07674 0.11013 0.24465 0.0
H285 H 0.87995 0.06262 0.24011 0.0
H286 H 1.00285 0.03193 0.23702 0.0
H287 H 0.95443 0.14301 0.24875 0.0
C288 C 1.00634 0.16142 0.25061 0.0
C289 C 0.04141 0.1529 0.24924 0.0
C290 C 0.97594 0.03881 0.23771 0.0
C291 C 0.9912 0.10132 0.24375 0.0
C292 C 0.95142 1.01279 0.23559 0.0
C293 C 0.91622 1.02061 0.23646 0.0
C294 C 0.96543 0.07315 0.24079 0.0
C295 C 0.90671 0.05532 0.23899 0.0
C296 C 0.98126 0.1358 0.24783 0.0
C297 C 0.05018 0.1181 0.24522 0.0
N298 N 0.93115 0.08027 0.24123 0.0
N299 N 1.02533 0.09371 0.24269 0.0
H300 H 0.57659 0.44401 0.51109 0.0
H301 H 0.37637 0.49195 0.51215 0.0
H302 H 0.49653 0.36813 0.49895 0.0
H303 H 0.45846 0.56589 0.52046 0.0
H304 H 0.4192 0.44595 0.50899 0.0
H305 H 0.53307 0.48861 0.51575 0.0
C306 C 0.54985 0.43662 0.50966 0.0
C307 C 0.54036 0.40209 0.50481 0.0
C308 C 0.42779 0.47227 0.51149 0.0
C309 C 0.48998 0.45346 0.50971 0.0
C310 C 0.40332 0.49856 0.51359 0.0
C311 C 0.41372 0.53299 0.51634 0.0
C312 C 0.46294 0.48042 0.51235 0.0
C313 C 0.4491 0.53991 0.51755 0.0
C314 C 0.52491 0.46222 0.51207 0.0
C315 C 0.50514 0.39436 0.50222 0.0
N316 N 0.4723 0.51396 0.51555 0.0
N317 N 0.48125 0.41981 0.50482 0.0
H318 H 0.97857 0.94601 0.74366 0.0
H319 H 0.17913 0.99268 0.73989 0.0
H320 H 0.05839 0.8696 0.75214 0.0
H321 H 0.09756 0.06721 0.73145 0.0
H322 H 0.13598 0.94703 0.74346 0.0
H323 H 1.02231 0.99043 0.73868 0.0
C324 C 1.00528 0.93846 0.74422 0.0
C325 C 1.01464 0.90382 0.74818 0.0
C326 C 0.12757 0.9734 0.74085 0.0
C327 C 0.06526 0.95499 0.74291 0.0
C328 C 0.15223 0.9995 0.73852 0.0
C329 C 0.1421 0.03401 0.73559 0.0
C330 C 0.09248 0.98179 0.74007 0.0
C331 C 0.10674 0.04117 0.7345 0.0
C332 C 0.03035 0.96396 0.74163 0.0
C333 C 0.04986 0.8959 0.74963 0.0
N334 N 0.08335 1.01539 0.73674 0.0
N335 N 0.07385 0.92124 0.7469 0.0
H336 H 0.35953 0.63202 0.34297 0.0
H337 H 0.36729 0.80211 0.17989 0.0
H338 H 0.28159 0.71058 0.34781 0.0
H339 H 0.44146 0.72008 0.1729 0.0
H340 H 0.33674 0.77077 0.24411 0.0
H341 H 0.38988 0.66467 0.28092 0.0
C342 C 0.34836 0.65583 0.3303 0.0
C343 C 0.31774 0.6684 0.35051 0.0
C344 C 0.35991 0.75985 0.22881 0.0
C345 C 0.35319 0.70666 0.28024 0.0
C346 C 0.37743 0.77778 0.19229 0.0
C347 C 0.40707 0.76379 0.17093 0.0
C348 C 0.37206 0.72767 0.24393 0.0
C349 C 0.41912 0.73224 0.1887 0.0
C350 C 0.36603 0.67475 0.29526 0.0
C351 C 0.3052 0.69999 0.33348 0.0
N352 N 0.40146 0.7152 0.22382 0.0
N353 N 0.32302 0.71809 0.29942 0.0
H354 H 0.78568 0.90589 0.44853 0.0
H355 H 0.92854 0.77164 0.53381 0.0
H356 H 0.84385 0.84393 0.34775 0.0
H357 H 0.8533 0.8153 0.63125 0.0
H358 H 0.89903 0.79898 0.46485 0.0
H359 H 0.81144 0.87407 0.51652 0.0
C360 C 0.80368 0.88546 0.44077 0.0
C361 C 0.81243 0.87735 0.39251 0.0
C362 C 0.88881 0.80222 0.50132 0.0
C363 C 0.84222 0.84113 0.46978 0.0
C364 C 0.90568 0.78669 0.54059 0.0
C365 C 0.89318 0.7909 0.58821 0.0
C366 C 0.85961 0.82253 0.50995 0.0
C367 C 0.86348 0.81078 0.59504 0.0
C368 C 0.8183 0.86724 0.47947 0.0
C369 C 0.83592 0.85064 0.3844 0.0
N370 N 0.84787 0.82601 0.55644 0.0
N371 N 0.85016 0.83364 0.42261 0.0
H372 H 0.78027 0.34463 0.84643 0.0
H373 H 0.61567 0.33468 0.67246 0.0
H374 H 0.70039 0.42117 0.84072 0.0
H375 H 0.69299 0.25549 0.67765 0.0
H376 H 0.64578 0.36529 0.73654 0.0
H377 H 0.74937 0.3114 0.78463 0.0
C378 C 0.75645 0.35462 0.83184 0.0
C379 C 0.74304 0.38586 0.84867 0.0
C380 C 0.65608 0.34107 0.72406 0.0
C381 C 0.7074 0.34783 0.77844 0.0
C382 C 0.63855 0.32322 0.68785 0.0
C383 C 0.65167 0.29227 0.66959 0.0
C384 C 0.68717 0.32812 0.74222 0.0
C385 C 0.68207 0.27938 0.69027 0.0
C386 C 0.73878 0.3356 0.79671 0.0
C387 C 0.71213 0.39762 0.82831 0.0
N388 N 0.69892 0.29748 0.72528 0.0
N389 N 0.69535 0.37854 0.79452 0.0
H390 H 0.27066 0.15034 0.94859 0.0
H391 H 0.1281 0.28456 0.03456 0.0
H392 H 0.21223 0.21235 0.848 0.0
H393 H 0.20356 0.24064 0.13153 0.0
H394 H 0.1574 0.2573 0.96541 0.0
H395 H 0.24508 0.18209 0.01664 0.0
C396 C 0.25263 0.17076 0.94089 0.0
C397 C 0.24376 0.1789 0.89266 0.0
C398 C 0.16771 0.25399 0.00182 0.0
C399 C 0.21417 0.21507 0.97002 0.0
C400 C 0.15096 0.26947 0.04119 0.0
C401 C 0.16359 0.26516 0.08874 0.0
C402 C 0.19691 0.23363 0.01028 0.0
C403 C 0.19329 0.24525 0.09539 0.0
C404 C 0.23812 0.18894 0.97962 0.0
C405 C 0.22024 0.20562 0.88462 0.0
N406 N 0.20877 0.23006 0.0567 0.0
N407 N 0.2061 0.22259 0.92289 0.0
H408 H 0.30037 0.61618 0.71878 0.0
H409 H 0.46284 0.72403 0.814 0.0
H410 H 0.38982 0.63591 0.63072 0.0
H411 H 0.36662 0.71288 0.89074 0.0
H412 H 0.44134 0.68393 0.75146 0.0
H413 H 0.33001 0.64154 0.78915 0.0
C414 C 0.32673 0.6246 0.71488 0.0
C415 C 0.34282 0.6239 0.66928 0.0
C416 C 0.42515 0.69025 0.78229 0.0
C417 C 0.3764 0.65415 0.74848 0.0
C418 C 0.43736 0.71325 0.81774 0.0
C419 C 0.41645 0.72228 0.85738 0.0
C420 C 0.39198 0.6761 0.78695 0.0
C421 C 0.38371 0.70716 0.86068 0.0
C422 C 0.34351 0.63961 0.75471 0.0
C423 C 0.37668 0.63601 0.66559 0.0
N424 N 0.37257 0.68505 0.82607 0.0
N425 N 0.39222 0.65107 0.70444 0.0
H426 H 0.79854 0.93631 0.03253 0.0
H427 H 0.96744 0.84527 0.92553 0.0
H428 H 0.8939 0.93472 0.11188 0.0
H429 H 0.86289 0.82429 0.88258 0.0
H430 H 0.94541 0.88774 0.98481 0.0
H431 H 0.82727 0.90839 0.96362 0.0
C432 C 0.82592 0.93161 0.03439 0.0
C433 C 0.84405 0.93808 0.07741 0.0
C434 C 0.92752 0.87374 0.9621 0.0
C435 C 0.87671 0.90461 0.00024 0.0
C436 C 0.94003 0.84929 0.92882 0.0
C437 C 0.91705 0.83112 0.89905 0.0
C438 C 0.89196 0.88018 0.96481 0.0
C439 C 0.88175 0.83771 0.90439 0.0
C440 C 0.84222 0.91502 -0.00443 0.0
C441 C 0.87927 0.93038 0.07882 0.0
N442 N 0.87044 0.86166 0.9362 0.0
N443 N 0.89443 0.91353 0.0411 0.0
H444 H 0.75251 0.44329 0.21692 0.0
H445 H 0.59596 0.32575 0.30853 0.0
H446 H 0.66781 0.41364 0.12515 0.0
H447 H 0.68533 0.35111 0.39442 0.0
H448 H 0.6165 0.36544 0.24475 0.0
H449 H 0.72213 0.41888 0.28753 0.0
C450 C 0.727 0.43278 0.21207 0.0
C451 C 0.71257 0.43038 0.16547 0.0
C452 C 0.63138 0.36238 0.27785 0.0
C453 C 0.6782 0.40138 0.2451 0.0
C454 C 0.61968 0.33968 0.31408 0.0
C455 C 0.63919 0.33454 0.35647 0.0
C456 C 0.66259 0.38014 0.28444 0.0
C457 C 0.66963 0.3536 0.36201 0.0
C458 C 0.70981 0.41838 0.25211 0.0
C459 C 0.67976 0.41581 0.16073 0.0
N460 N 0.68039 0.37526 0.32649 0.0
N461 N 0.66387 0.40144 0.19984 0.0
H462 H 0.09023 0.20829 0.42401 0.0
H463 H 0.26103 0.12222 0.5331 0.0
H464 H 0.19445 0.23552 0.38698 0.0
H465 H 0.16475 0.11827 0.61002 0.0
H466 H 0.2321 0.15064 0.46475 0.0
H467 H 0.11304 0.16577 0.48278 0.0
C468 C 0.11771 0.20567 0.42861 0.0
C469 C 0.14041 0.22551 0.40055 0.0
C470 C 0.21703 0.14267 0.49599 0.0
C471 C 0.16645 0.17639 0.46554 0.0
C472 C 0.23346 0.12578 0.53444 0.0
C473 C 0.21508 0.1176 0.57668 0.0
C474 C 0.18212 0.15169 0.50025 0.0
C475 C 0.17958 0.1239 0.57751 0.0
C476 C 0.13069 0.18118 0.46153 0.0
C477 C 0.17584 0.22071 0.40743 0.0
N478 N 0.16425 0.1411 0.54019 0.0
N479 N 0.18764 0.19665 0.4388 0.0
H480 H 0.40353 0.8552 0.81493 0.0
H481 H 0.29345 0.02855 0.80304 0.0
H482 H 0.39126 0.92526 0.93518 0.0
H483 H 0.32898 0.97727 0.673 0.0
H484 H 0.32198 0.98537 0.85262 0.0
H485 H 0.36957 0.89426 0.76319 0.0
C486 C 0.39347 0.87861 0.8305 0.0
C487 C 0.40047 0.88712 0.87934 0.0
C488 C 0.32346 0.9834 0.81324 0.0
C489 C 0.36157 0.9317 0.82068 0.0
C490 C 0.30696 1.00806 0.78474 0.0
C491 C 0.30882 1.00682 0.73355 0.0
C492 C 0.34194 0.9569 0.7907 0.0
C493 C 0.32692 0.97942 0.71229 0.0
C494 C 0.3743 0.90095 0.80095 0.0
C495 C 0.38698 0.9179 0.8976 0.0
N496 N 0.34284 0.95559 0.74093 0.0
N497 N 0.36821 0.93894 0.8684 0.0
H498 H 0.55317 0.77903 0.03365 0.0
H499 H 0.70823 0.91378 0.04754 0.0
H500 H 0.57275 0.85113 0.91742 0.0
H501 H 0.65746 0.87087 0.17319 0.0
H502 H 0.66781 0.88245 -0.00578 0.0
H503 H 0.60087 0.80342 0.07959 0.0
C504 C 0.56754 0.7999 0.01758 0.0
C505 C 0.55824 0.81351 0.97196 0.0
C506 C 0.6658 0.87974 0.03347 0.0
C507 C 0.61362 0.84134 0.02443 0.0
C508 C 0.68891 0.89739 0.06376 0.0
C509 C 0.68596 0.89503 0.11476 0.0
C510 C 0.64014 0.85904 0.05447 0.0
C511 C 0.66036 0.87366 0.13409 0.0
C512 C 0.5949 0.81379 0.04389 0.0
C513 C 0.57872 0.83995 0.95259 0.0
N514 N 0.63857 0.85652 0.10404 0.0
N515 N 0.60529 0.85319 0.97906 0.0
H516 H 0.73049 0.07947 0.16963 0.0
H517 H 0.66773 0.13092 0.43733 0.0
H518 H 0.76343 0.02835 0.3013 0.0
H519 H 0.65543 0.19906 0.3147 0.0
H520 H 0.70142 0.09238 0.38631 0.0
H521 H 0.70187 0.12304 0.21994 0.0
C522 C 0.73199 0.07748 0.20901 0.0
C523 C 0.74942 0.04998 0.23111 0.0
C524 C 0.69157 0.11581 0.3704 0.0
C525 C 0.71638 0.09963 0.28887 0.0
C526 C 0.67213 0.13775 0.39953 0.0
C527 C 0.65851 0.16815 0.38019 0.0
C528 C 0.69726 0.12388 0.32106 0.0
C529 C 0.66556 0.17594 0.33107 0.0
C530 C 0.71565 0.10241 0.23769 0.0
C531 C 0.75042 0.0489 0.28239 0.0
N532 N 0.68416 0.15378 0.303 0.0
N533 N 0.73396 0.07308 0.30933 0.0
H534 H 0.48506 0.20503 0.41552 0.0
H535 H 0.39962 0.1864 0.6773 0.0
H536 H 0.50504 0.27464 0.53439 0.0
H537 H 0.3517 0.14301 0.54994 0.0
H538 H 0.43956 0.21753 0.6247 0.0
H539 H 0.43668 0.18114 0.46201 0.0
C540 C 0.47911 0.21561 0.45106 0.0
C541 C 0.49973 0.24152 0.47137 0.0
C542 C 0.42017 0.2015 0.608 0.0
C543 C 0.44466 0.2139 0.52499 0.0
C544 C 0.39746 0.18363 0.63808 0.0
C545 C 0.37244 0.16204 0.61792 0.0
C546 C 0.41849 0.19733 0.55711 0.0
C547 C 0.37055 0.15955 0.56681 0.0
C548 C 0.4515 0.20188 0.47761 0.0
C549 C 0.49059 0.25417 0.5176 0.0
N550 N 0.39362 0.1766 0.5381 0.0
N551 N 0.46415 0.23998 0.54297 0.0
H552 H 0.89039 0.63162 0.8157 0.0
H553 H 0.83376 0.5747 0.08356 0.0
H554 H 0.90617 0.69771 0.93958 0.0
H555 H 0.79198 0.53135 0.95148 0.0
H556 H 0.86257 0.61878 0.03406 0.0
H557 H 0.857 0.59288 0.86704 0.0
C558 C 0.88685 0.63793 0.85385 0.0
C559 C 0.90127 0.66784 0.87344 0.0
C560 C 0.8468 0.59974 0.01612 0.0
C561 C 0.86293 0.62336 0.93289 0.0
C562 C 0.83034 0.57454 0.04432 0.0
C563 C 0.81043 0.54897 0.02179 0.0
C564 C 0.84372 0.5991 0.96498 0.0
C565 C 0.80702 0.55023 0.97073 0.0
C566 C 0.86757 0.6159 0.88315 0.0
C567 C 0.89537 0.67498 0.92305 0.0
N568 N 0.8237 0.57452 0.94421 0.0
N569 N 0.87694 0.65271 0.95127 0.0
H570 H 1.01042 0.28163 0.20993 0.0
H571 H 0.8489 0.40866 0.19705 0.0
H572 H 0.98161 0.34546 0.33175 0.0
H573 H 0.90438 0.37189 0.07156 0.0
H574 H 0.88932 0.37739 0.25041 0.0
H575 H 0.96325 0.3057 0.16269 0.0
C576 C 0.99411 0.30058 0.22697 0.0
C577 C 1.00058 0.31194 0.27474 0.0
C578 C 0.89241 0.37604 0.21116 0.0
C579 C 0.94591 0.33956 0.22053 0.0
C580 C 0.86929 0.39366 0.18081 0.0
C581 C 0.87352 0.39303 0.12989 0.0
C582 C 0.91943 0.35716 0.19026 0.0
C583 C 0.90048 0.37341 0.11061 0.0
C584 C 0.96708 0.31434 0.19985 0.0
C585 C 0.97783 0.33608 0.29497 0.0
N586 N 0.92229 0.3563 0.1407 0.0
N587 N 0.95165 0.34927 0.26767 0.0
H588 H 0.22297 0.48057 0.58477 0.0
H589 H 0.16719 0.42428 0.31652 0.0
H590 H 0.26539 0.52401 0.45301 0.0
H591 H 0.15079 0.35803 0.44028 0.0
H592 H 0.20048 0.46285 0.3681 0.0
H593 H 0.1942 0.43668 0.53506 0.0
C594 C 0.22654 0.48079 0.54556 0.0
C595 C 0.24663 0.50632 0.52319 0.0
C596 C 0.18979 0.43983 0.38413 0.0
C597 C 0.21339 0.45642 0.46612 0.0
C598 C 0.17057 0.4179 0.35469 0.0
C599 C 0.15602 0.38799 0.37417 0.0
C600 C 0.19423 0.43227 0.4339 0.0
C601 C 0.1617 0.38076 0.42382 0.0
C602 C 0.2101 0.4557 0.51724 0.0
C603 C 0.25023 0.50515 0.47215 0.0
N604 N 0.18008 0.40293 0.45217 0.0
N605 N 0.23358 0.48096 0.4455 0.0
H606 H 0.15304 0.68372 0.56769 0.0
H607 H 0.07614 0.71239 0.83375 0.0
H608 H 0.20621 0.64802 0.69587 0.0
H609 H 0.04611 0.77157 0.70766 0.0
H610 H 0.12372 0.6881 0.7861 0.0
H611 H 0.11301 0.71505 0.61961 0.0
C612 C 0.15631 0.68262 0.60692 0.0
C613 C 0.18285 0.6631 0.62751 0.0
C614 C 0.10687 0.70667 0.76913 0.0
C615 C 0.13676 0.69881 0.68765 0.0
C616 C 0.0797 0.72062 0.79632 0.0
C617 C 0.05661 0.74378 0.77459 0.0
C618 C 0.11081 0.7157 0.71973 0.0
C619 C 0.0627 0.75343 0.7259 0.0
C620 C 0.13354 0.70064 0.63662 0.0
C621 C 0.18615 0.66289 0.67861 0.0
N622 N 0.08883 0.73911 0.70012 0.0
N623 N 0.16308 0.68011 0.70704 0.0
loop_
_geom_bond_atom_site_label_1
_geom_bond_atom_site_label_2
_geom_bond_distance
_geom_bond_site_symmetry_2
_ccdc_geom_bond_type
C0 C1 1.351 . S
C0 N3 1.368 . S
C0 H5 0.931 . S
C1 C0 1.351 . S
C1 N2 1.373 . S
C1 H29 0.930 . S
N2 C1 1.373 . S
N2 C4 1.340 . S
N3 C0 1.368 . S
N3 C4 1.321 . S
N3 Co6 2.135 . S
C4 N2 1.340 . S
C4 N3 1.321 . S
C4 H28 0.930 1_556 S
H5 C0 0.931 . S
Co6 N3 2.135 . S
Co6 N9 2.121 . S
Co6 O14 2.055 . S
Co6 O17 2.039 . S
Co6 N20 2.140 1_556 S
C7 O8 1.227 . S
C7 O17 1.265 1_554 S
O8 C7 1.227 . S
N9 Co6 2.121 . S
N9 C11 1.375 1_556 S
N9 C12 1.313 . S
C10 C11 1.338 . S
C10 N13 1.377 1_554 S
C10 H30 0.930 . S
C11 N9 1.375 1_554 S
C11 C10 1.338 . S
C11 H15 0.931 . S
C12 N9 1.313 . S
C12 N13 1.344 . S
C12 H16 0.930 . S
N13 C10 1.377 1_556 S
N13 C12 1.344 . S
O14 Co6 2.055 . S
O14 C18 1.253 . S
H15 C11 0.931 . S
H16 C12 0.930 . S
O17 Co6 2.039 . S
O17 C7 1.265 1_556 S
C18 O14 1.253 . S
C18 O19 1.227 . S
O19 C18 1.227 . S
N20 Co6 2.140 1_554 S
N20 C23 1.346 . S
N20 C24 1.345 . S
C21 C22 1.387 . S
C21 C25 1.391 . S
C22 C21 1.387 . S
C22 C23 1.369 . S
C22 H31 0.929 . S
C23 N20 1.346 . S
C23 C22 1.369 . S
C23 H26 0.928 . S
C24 N20 1.345 . S
C24 C25 1.371 . S
C24 H27 0.931 . S
C25 C21 1.391 . S
C25 C24 1.371 . S
C25 H32 0.930 . S
H26 C23 0.928 . S
H27 C24 0.931 . S
H28 C4 0.930 1_554 S
H29 C1 0.930 . S
H30 C10 0.930 . S
H31 C22 0.929 . S
H32 C25 0.930 . S
C33 C34 1.351 . S
C33 N36 1.368 . S
C33 H38 0.931 . S
C34 C33 1.351 . S
C34 N35 1.373 . S
C34 H62 0.930 . S
N35 C34 1.373 . S
N35 C37 1.340 . S
N36 C33 1.368 . S
N36 C37 1.321 . S
N36 Co39 2.135 . S
C37 N35 1.340 . S
C37 N36 1.321 . S
C37 H61 0.930 1_565 S
H38 C33 0.931 . S
Co39 N36 2.135 . S
Co39 N42 2.121 . S
Co39 O47 2.055 . S
Co39 O50 2.039 . S
Co39 N53 2.140 . S
C40 O41 1.227 . S
C40 O50 1.265 . S
O41 C40 1.227 . S
N42 Co39 2.121 . S
N42 C44 1.375 . S
N42 C45 1.313 . S
C43 C44 1.338 . S
C43 N46 1.377 . S
C43 H63 0.930 . S
C44 N42 1.375 . S
C44 C43 1.338 . S
C44 H48 0.931 . S
C45 N42 1.313 . S
C45 N46 1.344 . S
C45 H49 0.930 . S
N46 C43 1.377 . S
N46 C45 1.344 . S
O47 Co39 2.055 . S
O47 C51 1.253 . S
H48 C44 0.931 . S
H49 C45 0.930 . S
O50 Co39 2.039 . S
O50 C40 1.265 . S
C51 O47 1.253 . S
C51 O52 1.227 . S
O52 C51 1.227 . S
N53 Co39 2.140 . S
N53 C56 1.346 . S
N53 C57 1.345 . S
C54 C55 1.387 . S
C54 C58 1.391 . S
C55 C54 1.387 . S
C55 C56 1.369 . S
C55 H64 0.929 . S
C56 N53 1.346 . S
C56 C55 1.369 . S
C56 H59 0.928 . S
C57 N53 1.345 . S
C57 C58 1.371 . S
C57 H60 0.931 . S
C58 C54 1.391 . S
C58 C57 1.371 . S
C58 H65 0.930 . S
H59 C56 0.928 . S
H60 C57 0.931 . S
H61 C37 0.930 1_545 S
H62 C34 0.930 . S
H63 C43 0.930 . S
H64 C55 0.929 . S
H65 C58 0.930 . S
C66 C67 1.351 . S
C66 N69 1.368 . S
C66 H71 0.931 . S
C67 C66 1.351 . S
C67 N68 1.373 . S
C67 H95 0.930 . S
N68 C67 1.373 . S
N68 C70 1.340 . S
N69 C66 1.368 . S
N69 C70 1.321 . S
N69 Co72 2.135 . S
C70 N68 1.340 . S
C70 N69 1.321 . S
C70 H94 0.930 . S
H71 C66 0.931 . S
Co72 N69 2.135 . S
Co72 N75 2.121 . S
Co72 O80 2.055 . S
Co72 O83 2.039 . S
Co72 N86 2.140 . S
C73 O74 1.227 . S
C73 O83 1.265 . S
O74 C73 1.227 . S
N75 Co72 2.121 . S
N75 C77 1.375 . S
N75 C78 1.313 . S
C76 C77 1.338 . S
C76 N79 1.377 . S
C76 H96 0.930 . S
C77 N75 1.375 . S
C77 C76 1.338 . S
C77 H81 0.931 . S
C78 N75 1.313 . S
C78 N79 1.344 . S
C78 H82 0.930 . S
N79 C76 1.377 . S
N79 C78 1.344 . S
O80 Co72 2.055 . S
O80 C84 1.253 . S
H81 C77 0.931 . S
H82 C78 0.930 . S
O83 Co72 2.039 . S
O83 C73 1.265 . S
C84 O80 1.253 . S
C84 O85 1.227 . S
O85 C84 1.227 . S
N86 Co72 2.140 . S
N86 C89 1.346 . S
N86 C90 1.345 . S
C87 C88 1.387 . S
C87 C91 1.391 . S
C88 C87 1.387 . S
C88 C89 1.369 . S
C88 H97 0.929 . S
C89 N86 1.346 . S
C89 C88 1.369 . S
C89 H92 0.928 . S
C90 N86 1.345 . S
C90 C91 1.371 . S
C90 H93 0.931 . S
C91 C87 1.391 . S
C91 C90 1.371 . S
C91 H98 0.930 . S
H92 C89 0.928 . S
H93 C90 0.931 . S
H94 C70 0.930 . S
H95 C67 0.930 . S
H96 C76 0.930 . S
H97 C88 0.929 . S
H98 C91 0.930 . S
C99 C100 1.351 . S
C99 N102 1.368 . S
C99 H104 0.931 . S
C100 C99 1.351 . S
C100 N101 1.373 . S
C100 H128 0.930 . S
N101 C100 1.373 . S
N101 C103 1.340 . S
N102 C99 1.368 . S
N102 C103 1.321 . S
N102 Co105 2.135 . S
C103 N101 1.340 . S
C103 N102 1.321 . S
C103 H127 0.930 1_545 S
H104 C99 0.931 . S
Co105 N102 2.135 . S
Co105 N108 2.121 . S
Co105 O113 2.055 . S
Co105 O116 2.039 . S
Co105 N119 2.140 . S
C106 O107 1.227 . S
C106 O116 1.265 . S
O107 C106 1.227 . S
N108 Co105 2.121 . S
N108 C110 1.375 . S
N108 C111 1.313 . S
C109 C110 1.338 . S
C109 N112 1.377 . S
C109 H129 0.930 . S
C110 N108 1.375 . S
C110 C109 1.338 . S
C110 H114 0.931 . S
C111 N108 1.313 . S
C111 N112 1.344 . S
C111 H115 0.930 . S
N112 C109 1.377 . S
N112 C111 1.344 . S
O113 Co105 2.055 . S
O113 C117 1.253 . S
H114 C110 0.931 . S
H115 C111 0.930 . S
O116 Co105 2.039 . S
O116 C106 1.265 . S
C117 O113 1.253 . S
C117 O118 1.227 . S
O118 C117 1.227 . S
N119 Co105 2.140 . S
N119 C122 1.346 . S
N119 C123 1.345 . S
C120 C121 1.387 . S
C120 C124 1.391 . S
C121 C120 1.387 . S
C121 C122 1.369 . S
C121 H130 0.929 . S
C122 N119 1.346 . S
C122 C121 1.369 . S
C122 H125 0.928 . S
C123 N119 1.345 . S
C123 C124 1.371 . S
C123 H126 0.931 . S
C124 C120 1.391 . S
C124 C123 1.371 . S
C124 H131 0.930 . S
H125 C122 0.928 . S
H126 C123 0.931 . S
H127 C103 0.930 1_565 S
H128 C100 0.930 . S
H129 C109 0.930 . S
H130 C121 0.929 . S
H131 C124 0.930 . S
C132 C133 1.351 . S
C132 N135 1.368 . S
C132 H137 0.931 . S
C133 C132 1.351 . S
C133 N134 1.373 . S
C133 H161 0.930 . S
N134 C133 1.373 . S
N134 C136 1.340 . S
N135 C132 1.368 . S
N135 C136 1.321 . S
N135 Co138 2.135 . S
C136 N134 1.340 . S
C136 N135 1.321 . S
C136 H160 0.930 1_655 S
H137 C132 0.931 . S
Co138 N135 2.135 . S
Co138 N141 2.121 . S
Co138 O146 2.055 . S
Co138 O149 2.039 . S
Co138 N152 2.140 . S
C139 O140 1.227 . S
C139 O149 1.265 . S
O140 C139 1.227 . S
N141 Co138 2.121 . S
N141 C143 1.375 . S
N141 C144 1.313 . S
C142 C143 1.338 . S
C142 N145 1.377 . S
C142 H162 0.930 . S
C143 N141 1.375 . S
C143 C142 1.338 . S
C143 H147 0.931 . S
C144 N141 1.313 . S
C144 N145 1.344 . S
C144 H148 0.930 . S
N145 C142 1.377 . S
N145 C144 1.344 . S
O146 Co138 2.055 . S
O146 C150 1.253 . S
H147 C143 0.931 . S
H148 C144 0.930 . S
O149 Co138 2.039 . S
O149 C139 1.265 . S
C150 O146 1.253 . S
C150 O151 1.227 . S
O151 C150 1.227 . S
N152 Co138 2.140 . S
N152 C155 1.346 . S
N152 C156 1.345 . S
C153 C154 1.387 . S
C153 C157 1.391 . S
C154 C153 1.387 . S
C154 C155 1.369 . S
C154 H163 0.929 . S
C155 N152 1.346 . S
C155 C154 1.369 . S
C155 H158 0.928 . S
C156 N152 1.345 . S
C156 C157 1.371 . S
C156 H159 0.931 . S
C157 C153 1.391 . S
C157 C156 1.371 . S
C157 H164 0.930 . S
H158 C155 0.928 . S
H159 C156 0.931 . S
H160 C136 0.930 1_455 S
H161 C133 0.930 . S
H162 C142 0.930 . S
H163 C154 0.929 . S
H164 C157 0.930 . S
C165 C166 1.351 . S
C165 N168 1.368 . S
C165 H170 0.931 . S
C166 C165 1.351 . S
C166 N167 1.373 . S
C166 H194 0.930 . S
N167 C166 1.373 . S
N167 C169 1.340 . S
N168 C165 1.368 . S
N168 C169 1.321 . S
N168 Co171 2.135 . S
C169 N167 1.340 . S
C169 N168 1.321 . S
C169 H193 0.930 . S
H170 C165 0.931 . S
Co171 N168 2.135 . S
Co171 N174 2.121 . S
Co171 O179 2.055 . S
Co171 O182 2.039 . S
Co171 N185 2.140 1_554 S
C172 O173 1.227 1_554 S
C172 O182 1.265 . S
O173 C172 1.227 1_556 S
N174 Co171 2.121 . S
N174 C176 1.375 . S
N174 C177 1.313 . S
C175 C176 1.338 . S
C175 N178 1.377 . S
C175 H195 0.930 . S
C176 N174 1.375 . S
C176 C175 1.338 . S
C176 H180 0.931 1_554 S
C177 N174 1.313 . S
C177 N178 1.344 . S
C177 H181 0.930 . S
N178 C175 1.377 . S
N178 C177 1.344 . S
O179 Co171 2.055 . S
O179 C183 1.253 . S
H180 C176 0.931 1_556 S
H181 C177 0.930 . S
O182 Co171 2.039 . S
O182 C172 1.265 . S
C183 O179 1.253 . S
C183 O184 1.227 . S
O184 C183 1.227 . S
N185 Co171 2.140 1_556 S
N185 C188 1.346 . S
N185 C189 1.345 . S
C186 C187 1.387 . S
C186 C190 1.391 . S
C187 C186 1.387 . S
C187 C188 1.369 . S
C187 H196 0.929 . S
C188 N185 1.346 . S
C188 C187 1.369 . S
C188 H191 0.928 . S
C189 N185 1.345 . S
C189 C190 1.371 . S
C189 H192 0.931 1_556 S
C190 C186 1.391 . S
C190 C189 1.371 . S
C190 H197 0.930 . S
H191 C188 0.928 . S
H192 C189 0.931 1_554 S
H193 C169 0.930 . S
H194 C166 0.930 . S
H195 C175 0.930 . S
H196 C187 0.929 . S
H197 C190 0.930 . S
C198 C199 1.351 . S
C198 N201 1.368 . S
C198 H203 0.931 . S
C199 C198 1.351 . S
C199 N200 1.373 . S
C199 H227 0.930 . S
N200 C199 1.373 . S
N200 C202 1.340 . S
N201 C198 1.368 . S
N201 C202 1.321 . S
N201 Co204 2.135 . S
C202 N200 1.340 . S
C202 N201 1.321 . S
C202 H226 0.930 1_455 S
H203 C198 0.931 . S
Co204 N201 2.135 . S
Co204 N207 2.121 . S
Co204 O212 2.055 . S
Co204 O215 2.039 . S
Co204 N218 2.140 . S
C205 O206 1.227 . S
C205 O215 1.265 . S
O206 C205 1.227 . S
N207 Co204 2.121 . S
N207 C209 1.375 . S
N207 C210 1.313 . S
C208 C209 1.338 . S
C208 N211 1.377 . S
C208 H228 0.930 . S
C209 N207 1.375 . S
C209 C208 1.338 . S
C209 H213 0.931 . S
C210 N207 1.313 . S
C210 N211 1.344 . S
C210 H214 0.930 . S
N211 C208 1.377 . S
N211 C210 1.344 . S
O212 Co204 2.055 . S
O212 C216 1.253 . S
H213 C209 0.931 . S
H214 C210 0.930 . S
O215 Co204 2.039 . S
O215 C205 1.265 . S
C216 O212 1.253 . S
C216 O217 1.227 . S
O217 C216 1.227 . S
N218 Co204 2.140 . S
N218 C221 1.346 . S
N218 C222 1.345 . S
C219 C220 1.387 . S
C219 C223 1.391 . S
C220 C219 1.387 . S
C220 C221 1.369 . S
C220 H229 0.929 . S
C221 N218 1.346 . S
C221 C220 1.369 . S
C221 H224 0.928 . S
C222 N218 1.345 . S
C222 C223 1.371 . S
C222 H225 0.931 . S
C223 C219 1.391 . S
C223 C222 1.371 . S
C223 H230 0.930 . S
H224 C221 0.928 . S
H225 C222 0.931 . S
H226 C202 0.930 1_655 S
H227 C199 0.930 . S
H228 C208 0.930 . S
H229 C220 0.929 . S
H230 C223 0.930 . S
C231 C232 1.351 . S
C231 N234 1.368 . S
C231 H236 0.931 . S
C232 C231 1.351 . S
C232 N233 1.373 . S
C232 H260 0.930 . S
N233 C232 1.373 . S
N233 C235 1.340 . S
N234 C231 1.368 . S
N234 C235 1.321 . S
N234 Co237 2.135 . S
C235 N233 1.340 . S
C235 N234 1.321 . S
C235 H259 0.930 . S
H236 C231 0.931 . S
Co237 N234 2.135 . S
Co237 N240 2.121 . S
Co237 O245 2.055 . S
Co237 O248 2.039 . S
Co237 N251 2.140 . S
C238 O239 1.227 . S
C238 O248 1.265 . S
O239 C238 1.227 . S
N240 Co237 2.121 . S
N240 C242 1.375 . S
N240 C243 1.313 . S
C241 C242 1.338 . S
C241 N244 1.377 . S
C241 H261 0.930 . S
C242 N240 1.375 . S
C242 C241 1.338 . S
C242 H246 0.931 . S
C243 N240 1.313 . S
C243 N244 1.344 . S
C243 H247 0.930 . S
N244 C241 1.377 . S
N244 C243 1.344 . S
O245 Co237 2.055 . S
O245 C249 1.253 . S
H246 C242 0.931 . S
H247 C243 0.930 . S
O248 Co237 2.039 . S
O248 C238 1.265 . S
C249 O245 1.253 . S
C249 O250 1.227 . S
O250 C249 1.227 . S
N251 Co237 2.140 . S
N251 C254 1.346 . S
N251 C255 1.345 . S
C252 C253 1.387 . S
C252 C256 1.391 . S
C253 C252 1.387 . S
C253 C254 1.369 . S
C253 H262 0.929 . S
C254 N251 1.346 . S
C254 C253 1.369 . S
C254 H257 0.928 . S
C255 N251 1.345 . S
C255 C256 1.371 . S
C255 H258 0.931 . S
C256 C252 1.391 . S
C256 C255 1.371 . S
C256 H263 0.930 . S
H257 C254 0.928 . S
H258 C255 0.931 . S
H259 C235 0.930 . S
H260 C232 0.930 . S
H261 C241 0.930 . S
H262 C253 0.929 . S
H263 C256 0.930 . S
H264 C270 0.930 . S
H265 C274 0.930 . S
H266 C279 0.929 . S
H267 C277 0.929 . S
H268 C272 0.929 . S
H269 C278 0.929 . S
C270 H264 0.930 . S
C270 C271 1.367 . S
C270 C278 1.378 . S
C271 C270 1.367 . S
C271 C279 1.433 1_554 S
C272 H268 0.929 . S
C272 C274 1.378 . S
C272 C276 1.350 1_556 S
C273 C276 1.463 . S
C273 C278 1.350 . S
C273 N281 1.427 1_554 S
C274 H265 0.930 . S
C274 C272 1.378 . S
C274 C275 1.367 1_556 S
C275 C274 1.367 1_554 S
C275 C277 1.433 . S
C276 C272 1.350 1_554 S
C276 C273 1.463 . S
C276 N280 1.427 . S
C277 H267 0.929 . S
C277 C275 1.433 . S
C277 N280 1.384 . S
C278 H269 0.929 . S
C278 C270 1.378 . S
C278 C273 1.350 . S
C279 H266 0.929 . S
C279 C271 1.433 1_556 S
C279 N281 1.384 . S
N280 C276 1.427 . S
N280 C277 1.384 . S
N281 C273 1.427 1_556 S
N281 C279 1.384 . S
H282 C288 0.930 . S
H283 C292 0.930 . S
H284 C297 0.929 . S
H285 C295 0.929 . S
H286 C290 0.929 . S
H287 C296 0.929 . S
C288 H282 0.930 . S
C288 C289 1.367 . S
C288 C296 1.378 . S
C289 C288 1.367 . S
C289 C297 1.433 . S
C290 H286 0.929 . S
C290 C292 1.378 . S
C290 C294 1.350 . S
C291 C294 1.463 . S
C291 C296 1.350 . S
C291 N299 1.427 . S
C292 H283 0.930 . S
C292 C290 1.378 . S
C292 C293 1.367 . S
C293 C292 1.367 . S
C293 C295 1.433 . S
C294 C290 1.350 . S
C294 C291 1.463 . S
C294 N298 1.427 . S
C295 H285 0.929 . S
C295 C293 1.433 . S
C295 N298 1.384 . S
C296 H287 0.929 . S
C296 C288 1.378 . S
C296 C291 1.350 . S
C297 H284 0.929 . S
C297 C289 1.433 . S
C297 N299 1.384 . S
N298 C294 1.427 . S
N298 C295 1.384 . S
N299 C291 1.427 . S
N299 C297 1.384 . S
H300 C306 0.930 . S
H301 C310 0.930 . S
H302 C315 0.929 . S
H303 C313 0.929 . S
H304 C308 0.929 . S
H305 C314 0.929 . S
C306 H300 0.930 . S
C306 C307 1.367 . S
C306 C314 1.378 . S
C307 C306 1.367 . S
C307 C315 1.433 . S
C308 H304 0.929 . S
C308 C310 1.378 . S
C308 C312 1.350 . S
C309 C312 1.463 . S
C309 C314 1.350 . S
C309 N317 1.427 . S
C310 H301 0.930 . S
C310 C308 1.378 . S
C310 C311 1.367 . S
C311 C310 1.367 . S
C311 C313 1.433 . S
C312 C308 1.350 . S
C312 C309 1.463 . S
C312 N316 1.427 . S
C313 H303 0.929 . S
C313 C311 1.433 . S
C313 N316 1.384 . S
C314 H305 0.929 . S
C314 C306 1.378 . S
C314 C309 1.350 . S
C315 H302 0.929 . S
C315 C307 1.433 . S
C315 N317 1.384 . S
N316 C312 1.427 . S
N316 C313 1.384 . S
N317 C309 1.427 . S
N317 C315 1.384 . S
H318 C324 0.930 1_655 S
H319 C328 0.930 . S
H320 C333 0.929 . S
H321 C331 0.929 1_545 S
H322 C326 0.929 . S
H323 C332 0.929 . S
C324 H318 0.930 1_455 S
C324 C325 1.367 . S
C324 C332 1.378 . S
C325 C324 1.367 . S
C325 C333 1.433 . S
C326 H322 0.929 . S
C326 C328 1.378 . S
C326 C330 1.350 . S
C327 C330 1.463 . S
C327 C332 1.350 . S
C327 N335 1.427 . S
C328 H319 0.930 . S
C328 C326 1.378 . S
C328 C329 1.367 . S
C329 C328 1.367 . S
C329 C331 1.433 . S
C330 C326 1.350 . S
C330 C327 1.463 . S
C330 N334 1.427 . S
C331 H321 0.929 1_565 S
C331 C329 1.433 . S
C331 N334 1.384 . S
C332 H323 0.929 . S
C332 C324 1.378 . S
C332 C327 1.350 . S
C333 H320 0.929 . S
C333 C325 1.433 . S
C333 N335 1.384 . S
N334 C330 1.427 . S
N334 C331 1.384 . S
N335 C327 1.427 . S
N335 C333 1.384 . S
H336 C342 0.930 . S
H337 C346 0.930 . S
H338 C351 0.929 . S
H339 C349 0.929 . S
H340 C344 0.929 . S
H341 C350 0.929 . S
C342 H336 0.930 . S
C342 C343 1.367 . S
C342 C350 1.378 . S
C343 C342 1.367 . S
C343 C351 1.433 . S
C344 H340 0.929 . S
C344 C346 1.378 . S
C344 C348 1.350 . S
C345 C348 1.463 . S
C345 C350 1.350 . S
C345 N353 1.427 . S
C346 H337 0.930 . S
C346 C344 1.378 . S
C346 C347 1.367 . S
C347 C346 1.367 . S
C347 C349 1.433 . S
C348 C344 1.350 . S
C348 C345 1.463 . S
C348 N352 1.427 . S
C349 H339 0.929 . S
C349 C347 1.433 . S
C349 N352 1.384 . S
C350 H341 0.929 . S
C350 C342 1.378 . S
C350 C345 1.350 . S
C351 H338 0.929 . S
C351 C343 1.433 . S
C351 N353 1.384 . S
N352 C348 1.427 . S
N352 C349 1.384 . S
N353 C345 1.427 . S
N353 C351 1.384 . S
H354 C360 0.930 . S
H355 C364 0.930 . S
H356 C369 0.929 . S
H357 C367 0.929 . S
H358 C362 0.929 . S
H359 C368 0.929 . S
C360 H354 0.930 . S
C360 C361 1.367 . S
C360 C368 1.378 . S
C361 C360 1.367 . S
C361 C369 1.433 . S
C362 H358 0.929 . S
C362 C364 1.378 . S
C362 C366 1.350 . S
C363 C366 1.463 . S
C363 C368 1.350 . S
C363 N371 1.427 . S
C364 H355 0.930 . S
C364 C362 1.378 . S
C364 C365 1.367 . S
C365 C364 1.367 . S
C365 C367 1.433 . S
C366 C362 1.350 . S
C366 C363 1.463 . S
C366 N370 1.427 . S
C367 H357 0.929 . S
C367 C365 1.433 . S
C367 N370 1.384 . S
C368 H359 0.929 . S
C368 C360 1.378 . S
C368 C363 1.350 . S
C369 H356 0.929 . S
C369 C361 1.433 . S
C369 N371 1.384 . S
N370 C366 1.427 . S
N370 C367 1.384 . S
N371 C363 1.427 . S
N371 C369 1.384 . S
H372 C378 0.930 . S
H373 C382 0.930 . S
H374 C387 0.929 . S
H375 C385 0.929 . S
H376 C380 0.929 . S
H377 C386 0.929 . S
C378 H372 0.930 . S
C378 C379 1.367 . S
C378 C386 1.378 . S
C379 C378 1.367 . S
C379 C387 1.433 . S
C380 H376 0.929 . S
C380 C382 1.378 . S
C380 C384 1.350 . S
C381 C384 1.463 . S
C381 C386 1.350 . S
C381 N389 1.427 . S
C382 H373 0.930 . S
C382 C380 1.378 . S
C382 C383 1.367 . S
C383 C382 1.367 . S
C383 C385 1.433 . S
C384 C380 1.350 . S
C384 C381 1.463 . S
C384 N388 1.427 . S
C385 H375 0.929 . S
C385 C383 1.433 . S
C385 N388 1.384 . S
C386 H377 0.929 . S
C386 C378 1.378 . S
C386 C381 1.350 . S
C387 H374 0.929 . S
C387 C379 1.433 . S
C387 N389 1.384 . S
N388 C384 1.427 . S
N388 C385 1.384 . S
N389 C381 1.427 . S
N389 C387 1.384 . S
H390 C396 0.930 . S
H391 C400 0.930 . S
H392 C405 0.929 . S
H393 C403 0.929 . S
H394 C398 0.940 . S
H395 C404 0.929 1_554 S
C396 H390 0.930 . S
C396 C397 1.367 . S
C396 C404 1.378 . S
C397 C396 1.367 . S
C397 C405 1.433 . S
C398 H394 0.940 . S
C398 C400 1.378 . S
C398 C402 1.350 . S
C399 C402 1.463 1_556 S
C399 C404 1.350 . S
C399 N407 1.427 . S
C400 H391 0.930 . S
C400 C398 1.378 . S
C400 C401 1.367 . S
C401 C400 1.367 . S
C401 C403 1.433 . S
C402 C398 1.350 . S
C402 C399 1.463 1_554 S
C402 N406 1.427 . S
C403 H393 0.929 . S
C403 C401 1.433 . S
C403 N406 1.384 . S
C404 H395 0.929 1_556 S
C404 C396 1.378 . S
C404 C399 1.350 . S
C405 H392 0.929 . S
C405 C397 1.433 . S
C405 N407 1.384 . S
N406 C402 1.427 . S
N406 C403 1.384 . S
N407 C399 1.427 . S
N407 C405 1.384 . S
H408 C414 0.930 . S
H409 C418 0.930 . S
H410 C423 0.929 . S
H411 C421 0.929 . S
H412 C416 0.929 . S
H413 C422 0.929 . S
C414 H408 0.930 . S
C414 C415 1.367 . S
C414 C422 1.378 . S
C415 C414 1.367 . S
C415 C423 1.433 . S
C416 H412 0.929 . S
C416 C418 1.378 . S
C416 C420 1.350 . S
C417 C420 1.463 . S
C417 C422 1.350 . S
C417 N425 1.427 . S
C418 H409 0.930 . S
C418 C416 1.378 . S
C418 C419 1.367 . S
C419 C418 1.367 . S
C419 C421 1.433 . S
C420 C416 1.350 . S
C420 C417 1.463 . S
C420 N424 1.427 . S
C421 H411 0.929 . S
C421 C419 1.433 . S
C421 N424 1.384 . S
C422 H413 0.929 . S
C422 C414 1.378 . S
C422 C417 1.350 . S
C423 H410 0.929 . S
C423 C415 1.433 . S
C423 N425 1.384 . S
N424 C420 1.427 . S
N424 C421 1.384 . S
N425 C417 1.427 . S
N425 C423 1.384 . S
H426 C432 0.930 . S
H427 C436 0.930 . S
H428 C441 0.929 . S
H429 C439 0.929 . S
H430 C434 0.929 1_554 S
H431 C440 0.929 . S
C432 H426 0.930 . S
C432 C433 1.367 . S
C432 C440 1.378 . S
C433 C432 1.367 . S
C433 C441 1.433 . S
C434 H430 0.929 1_556 S
C434 C436 1.378 . S
C434 C438 1.350 . S
C435 C438 1.463 1_554 S
C435 C440 1.350 . S
C435 N443 1.427 . S
C436 H427 0.930 . S
C436 C434 1.378 . S
C436 C437 1.367 . S
C437 C436 1.367 . S
C437 C439 1.433 . S
C438 C434 1.350 . S
C438 C435 1.463 1_556 S
C438 N442 1.427 . S
C439 H429 0.929 . S
C439 C437 1.433 . S
C439 N442 1.384 . S
C440 H431 0.929 . S
C440 C432 1.378 . S
C440 C435 1.350 . S
C441 H428 0.929 . S
C441 C433 1.433 . S
C441 N443 1.384 . S
N442 C438 1.427 . S
N442 C439 1.384 . S
N443 C435 1.427 . S
N443 C441 1.384 . S
H444 C450 0.930 . S
H445 C454 0.930 . S
H446 C459 0.929 . S
H447 C457 0.929 . S
H448 C452 0.929 . S
H449 C458 0.929 . S
C450 H444 0.930 . S
C450 C451 1.367 . S
C450 C458 1.378 . S
C451 C450 1.367 . S
C451 C459 1.433 . S
C452 H448 0.929 . S
C452 C454 1.378 . S
C452 C456 1.350 . S
C453 C456 1.463 . S
C453 C458 1.350 . S
C453 N461 1.427 . S
C454 H445 0.930 . S
C454 C452 1.378 . S
C454 C455 1.367 . S
C455 C454 1.367 . S
C455 C457 1.433 . S
C456 C452 1.350 . S
C456 C453 1.463 . S
C456 N460 1.427 . S
C457 H447 0.929 . S
C457 C455 1.433 . S
C457 N460 1.384 . S
C458 H449 0.929 . S
C458 C450 1.378 . S
C458 C453 1.350 . S
C459 H446 0.929 . S
C459 C451 1.433 . S
C459 N461 1.384 . S
N460 C456 1.427 . S
N460 C457 1.384 . S
N461 C453 1.427 . S
N461 C459 1.384 . S
H462 C468 0.930 . S
H463 C472 0.930 . S
H464 C477 0.929 . S
H465 C475 0.929 . S
H466 C470 0.929 . S
H467 C476 0.929 . S
C468 H462 0.930 . S
C468 C469 1.367 . S
C468 C476 1.378 . S
C469 C468 1.367 . S
C469 C477 1.433 . S
C470 H466 0.929 . S
C470 C472 1.378 . S
C470 C474 1.350 . S
C471 C474 1.463 . S
C471 C476 1.350 . S
C471 N479 1.427 . S
C472 H463 0.930 . S
C472 C470 1.378 . S
C472 C473 1.367 . S
C473 C472 1.367 . S
C473 C475 1.433 . S
C474 C470 1.350 . S
C474 C471 1.463 . S
C474 N478 1.427 . S
C475 H465 0.929 . S
C475 C473 1.433 . S
C475 N478 1.384 . S
C476 H467 0.929 . S
C476 C468 1.378 . S
C476 C471 1.350 . S
C477 H464 0.929 . S
C477 C469 1.433 . S
C477 N479 1.384 . S
N478 C474 1.427 . S
N478 C475 1.384 . S
N479 C471 1.427 . S
N479 C477 1.384 . S
H480 C486 0.930 . S
H481 C490 0.930 . S
H482 C495 0.929 . S
H483 C493 0.929 1_545 S
H484 C488 0.929 . S
H485 C494 0.929 . S
C486 H480 0.930 . S
C486 C487 1.367 . S
C486 C494 1.378 . S
C487 C486 1.367 . S
C487 C495 1.433 . S
C488 H484 0.929 . S
C488 C490 1.378 . S
C488 C492 1.350 . S
C489 C492 1.463 . S
C489 C494 1.350 . S
C489 N497 1.427 . S
C490 H481 0.930 . S
C490 C488 1.378 . S
C490 C491 1.367 . S
C491 C490 1.367 . S
C491 C493 1.433 . S
C492 C488 1.350 . S
C492 C489 1.463 . S
C492 N496 1.427 . S
C493 H483 0.929 1_565 S
C493 C491 1.433 . S
C493 N496 1.384 . S
C494 H485 0.929 . S
C494 C486 1.378 . S
C494 C489 1.350 . S
C495 H482 0.929 . S
C495 C487 1.433 . S
C495 N497 1.384 . S
N496 C492 1.427 . S
N496 C493 1.384 . S
N497 C489 1.427 . S
N497 C495 1.384 . S
H498 C504 0.930 . S
H499 C508 0.930 . S
H500 C513 0.929 . S
H501 C511 0.929 . S
H502 C506 0.929 . S
H503 C512 0.929 . S
C504 H498 0.930 . S
C504 C505 1.367 . S
C504 C512 1.378 . S
C505 C504 1.367 . S
C505 C513 1.433 . S
C506 H502 0.929 . S
C506 C508 1.378 . S
C506 C510 1.350 . S
C507 C510 1.463 . S
C507 C512 1.350 . S
C507 N515 1.427 . S
C508 H499 0.930 . S
C508 C506 1.378 . S
C508 C509 1.367 . S
C509 C508 1.367 . S
C509 C511 1.433 . S
C510 C506 1.350 . S
C510 C507 1.463 . S
C510 N514 1.427 . S
C511 H501 0.929 . S
C511 C509 1.433 . S
C511 N514 1.384 . S
C512 H503 0.929 . S
C512 C504 1.378 . S
C512 C507 1.350 . S
C513 H500 0.929 . S
C513 C505 1.433 . S
C513 N515 1.384 . S
N514 C510 1.427 . S
N514 C511 1.384 . S
N515 C507 1.427 . S
N515 C513 1.384 . S
H516 C522 0.930 . S
H517 C526 0.930 . S
H518 C531 0.929 . S
H519 C529 0.929 . S
H520 C524 0.929 . S
H521 C530 0.929 . S
C522 H516 0.930 . S
C522 C523 1.367 . S
C522 C530 1.378 . S
C523 C522 1.367 . S
C523 C531 1.433 . S
C524 H520 0.929 . S
C524 C526 1.378 . S
C524 C528 1.350 . S
C525 C528 1.463 . S
C525 C530 1.350 . S
C525 N533 1.427 . S
C526 H517 0.930 . S
C526 C524 1.378 . S
C526 C527 1.367 . S
C527 C526 1.367 . S
C527 C529 1.433 . S
C528 C524 1.350 . S
C528 C525 1.463 . S
C528 N532 1.427 . S
C529 H519 0.929 . S
C529 C527 1.433 . S
C529 N532 1.384 . S
C530 H521 0.929 . S
C530 C522 1.378 . S
C530 C525 1.350 . S
C531 H518 0.929 . S
C531 C523 1.433 . S
C531 N533 1.384 . S
N532 C528 1.427 . S
N532 C529 1.384 . S
N533 C525 1.427 . S
N533 C531 1.384 . S
H534 C540 0.930 . S
H535 C544 0.930 . S
H536 C549 0.929 . S
H537 C547 0.929 . S
H538 C542 0.929 . S
H539 C548 0.929 . S
C540 H534 0.930 . S
C540 C541 1.367 . S
C540 C548 1.378 . S
C541 C540 1.367 . S
C541 C549 1.433 . S
C542 H538 0.929 . S
C542 C544 1.378 . S
C542 C546 1.350 . S
C543 C546 1.463 . S
C543 C548 1.350 . S
C543 N551 1.427 . S
C544 H535 0.930 . S
C544 C542 1.378 . S
C544 C545 1.367 . S
C545 C544 1.367 . S
C545 C547 1.433 . S
C546 C542 1.350 . S
C546 C543 1.463 . S
C546 N550 1.427 . S
C547 H537 0.929 . S
C547 C545 1.433 . S
C547 N550 1.384 . S
C548 H539 0.929 . S
C548 C540 1.378 . S
C548 C543 1.350 . S
C549 H536 0.929 . S
C549 C541 1.433 . S
C549 N551 1.384 . S
N550 C546 1.427 . S
N550 C547 1.384 . S
N551 C543 1.427 . S
N551 C549 1.384 . S
H552 C558 0.930 . S
H553 C562 0.930 . S
H554 C567 0.929 . S
H555 C565 0.929 . S
H556 C560 0.929 . S
H557 C566 0.929 . S
C558 H552 0.930 . S
C558 C559 1.367 . S
C558 C566 1.378 . S
C559 C558 1.367 . S
C559 C567 1.433 . S
C560 H556 0.929 . S
C560 C562 1.378 1_556 S
C560 C564 1.350 . S
C561 C564 1.463 . S
C561 C566 1.350 . S
C561 N569 1.427 . S
C562 H553 0.930 . S
C562 C560 1.378 1_554 S
C562 C563 1.367 1_554 S
C563 C562 1.367 1_556 S
C563 C565 1.433 . S
C564 C560 1.350 . S
C564 C561 1.463 . S
C564 N568 1.427 . S
C565 H555 0.929 . S
C565 C563 1.433 . S
C565 N568 1.384 . S
C566 H557 0.929 . S
C566 C558 1.378 . S
C566 C561 1.350 . S
C567 H554 0.929 . S
C567 C559 1.433 . S
C567 N569 1.384 . S
N568 C564 1.427 . S
N568 C565 1.384 . S
N569 C561 1.427 . S
N569 C567 1.384 . S
H570 C576 0.930 . S
H571 C580 0.930 . S
H572 C585 0.929 1_455 S
H573 C583 0.929 . S
H574 C578 0.929 . S
H575 C584 0.929 . S
C576 H570 0.930 . S
C576 C577 1.367 . S
C576 C584 1.378 . S
C577 C576 1.367 . S
C577 C585 1.433 . S
C578 H574 0.929 . S
C578 C580 1.378 . S
C578 C582 1.350 . S
C579 C582 1.463 . S
C579 C584 1.350 . S
C579 N587 1.427 . S
C580 H571 0.930 . S
C580 C578 1.378 . S
C580 C581 1.367 . S
C581 C580 1.367 . S
C581 C583 1.433 . S
C582 C578 1.350 . S
C582 C579 1.463 . S
C582 N586 1.427 . S
C583 H573 0.929 . S
C583 C581 1.433 . S
C583 N586 1.384 . S
C584 H575 0.929 . S
C584 C576 1.378 . S
C584 C579 1.350 . S
C585 H572 0.929 1_655 S
C585 C577 1.433 . S
C585 N587 1.384 . S
N586 C582 1.427 . S
N586 C583 1.384 . S
N587 C579 1.427 . S
N587 C585 1.384 . S
H588 C594 0.930 . S
H589 C598 0.930 . S
H590 C603 0.929 . S
H591 C601 0.929 . S
H592 C596 0.929 . S
H593 C602 0.929 . S
C594 H588 0.930 . S
C594 C595 1.367 . S
C594 C602 1.378 . S
C595 C594 1.367 . S
C595 C603 1.433 . S
C596 H592 0.929 . S
C596 C598 1.378 . S
C596 C600 1.350 . S
C597 C600 1.463 . S
C597 C602 1.350 . S
C597 N605 1.427 . S
C598 H589 0.930 . S
C598 C596 1.378 . S
C598 C599 1.367 . S
C599 C598 1.367 . S
C599 C601 1.433 . S
C600 C596 1.350 . S
C600 C597 1.463 . S
C600 N604 1.427 . S
C601 H591 0.929 . S
C601 C599 1.433 . S
C601 N604 1.384 . S
C602 H593 0.929 . S
C602 C594 1.378 . S
C602 C597 1.350 . S
C603 H590 0.929 . S
C603 C595 1.433 . S
C603 N605 1.384 . S
N604 C600 1.427 . S
N604 C601 1.384 . S
N605 C597 1.427 . S
N605 C603 1.384 . S
H606 C612 0.930 . S
H607 C616 0.930 . S
H608 C621 0.929 . S
H609 C619 0.929 . S
H610 C614 0.929 . S
H611 C620 0.929 . S
C612 H606 0.930 . S
C612 C613 1.367 . S
C612 C620 1.378 . S
C613 C612 1.367 . S
C613 C621 1.433 . S
C614 H610 0.929 . S
C614 C616 1.378 . S
C614 C618 1.350 . S
C615 C618 1.463 . S
C615 C620 1.350 . S
C615 N623 1.427 . S
C616 H607 0.930 . S
C616 C614 1.378 . S
C616 C617 1.367 . S
C617 C616 1.367 . S
C617 C619 1.433 . S
C618 C614 1.350 . S
C618 C615 1.463 . S
C618 N622 1.427 . S
C619 H609 0.929 . S
C619 C617 1.433 . S
C619 N622 1.384 . S
C620 H611 0.929 . S
C620 C612 1.378 . S
C620 C615 1.350 . S
C621 H608 0.929 . S
C621 C613 1.433 . S
C621 N623 1.384 . S
N622 C618 1.427 . S
N622 C619 1.384 . S
N623 C615 1.427 . S
N623 C621 1.384 . S
C271 N167 1.258 . S
C275 N2 1.255 1_554 S
C289 N200 1.259 1_655 S
C293 N35 1.255 1_545 S
C307 N68 1.264 . S
C311 N233 1.270 . S
C325 N134 1.261 1_455 S
C329 N101 1.268 1_565 S
C343 C252 0.894 . S
C347 C21 0.901 . S
C361 C54 0.896 . S
C365 C153 0.899 . S
C379 C186 0.901 . S
C383 C87 0.894 . S
C397 C120 0.898 . S
C401 C219 0.896 . S
C415 C249 1.594 . S
C419 C18 1.594 . S
C433 C51 1.596 . S
C437 C150 1.596 . S
C451 C183 1.593 . S
C455 C84 1.593 . S
C469 C216 1.589 . S
C473 C117 1.589 . S
C487 N13 1.672 . S
C491 C106 1.670 1_565 S
C505 C7 1.669 . S
C509 N46 1.672 . S
C523 C40 1.679 1_545 S
C527 N79 1.682 . S
C541 C73 1.674 . S
C545 N112 1.684 . S
C559 N145 1.676 . S
C563 C172 1.676 1_556 S
C577 C205 1.670 1_655 S
C581 N178 1.672 . S
C595 C238 1.678 . S
C599 N211 1.679 . S
C613 N244 1.682 . S
C617 C139 1.679 1_455 S
