# Generated by pormake.
# Topology wkb, (5)-cn, num edge types: 1
# Building blocks:
#     Node 0, Type 0, BuildingBlock: BEQFEK_clean_sbu_0, # of connection points: 5
#     Node 1, Type 0, BuildingBlock: BEQFEK_clean_sbu_0, # of connection points: 5
#     Node 2, Type 0, BuildingBlock: BEQFEK_clean_sbu_0, # of connection points: 5
#     Node 3, Type 0, BuildingBlock: BEQFEK_clean_sbu_0, # of connection points: 5
#     Node 4, Type 0, BuildingBlock: BEQFEK_clean_sbu_0, # of connection points: 5
#     Node 5, Type 0, BuildingBlock: BEQFEK_clean_sbu_0, # of connection points: 5
#     Node 6, Type 0, BuildingBlock: BEQFEK_clean_sbu_0, # of connection points: 5
#     Node 7, Type 0, BuildingBlock: BEQFEK_clean_sbu_0, # of connection points: 5
#     Node 8, Type 0, BuildingBlock: BEQFEK_clean_sbu_0, # of connection points: 5
#     Node 9, Type 0, BuildingBlock: BEQFEK_clean_sbu_0, # of connection points: 5
#     Node 10, Type 0, BuildingBlock: BEQFEK_clean_sbu_0, # of connection points: 5
#     Node 11, Type 0, BuildingBlock: BEQFEK_clean_sbu_0, # of connection points: 5
#     Edge 12, Type (0, 0), BuildingBlock: KIFKEQ_clean_linker_1, # of connection points: 2
#     Edge 13, Type (0, 0), BuildingBlock: KIFKEQ_clean_linker_1, # of connection points: 2
#     Edge 14, Type (0, 0), BuildingBlock: KIFKEQ_clean_linker_1, # of connection points: 2
#     Edge 15, Type (0, 0), BuildingBlock: KIFKEQ_clean_linker_1, # of connection points: 2
#     Edge 16, Type (0, 0), BuildingBlock: KIFKEQ_clean_linker_1, # of connection points: 2
#     Edge 17, Type (0, 0), BuildingBlock: KIFKEQ_clean_linker_1, # of connection points: 2
#     Edge 18, Type (0, 0), BuildingBlock: KIFKEQ_clean_linker_1, # of connection points: 2
#     Edge 19, Type (0, 0), BuildingBlock: KIFKEQ_clean_linker_1, # of connection points: 2
#     Edge 20, Type (0, 0), BuildingBlock: KIFKEQ_clean_linker_1, # of connection points: 2
#     Edge 21, Type (0, 0), BuildingBlock: KIFKEQ_clean_linker_1, # of connection points: 2
#     Edge 22, Type (0, 0), BuildingBlock: KIFKEQ_clean_linker_1, # of connection points: 2
#     Edge 23, Type (0, 0), BuildingBlock: KIFKEQ_clean_linker_1, # of connection points: 2
#     Edge 24, Type (0, 0), BuildingBlock: KIFKEQ_clean_linker_1, # of connection points: 2
#     Edge 25, Type (0, 0), BuildingBlock: KIFKEQ_clean_linker_1, # of connection points: 2
#     Edge 26, Type (0, 0), BuildingBlock: KIFKEQ_clean_linker_1, # of connection points: 2
#     Edge 27, Type (0, 0), BuildingBlock: KIFKEQ_clean_linker_1, # of connection points: 2
#     Edge 28, Type (0, 0), BuildingBlock: KIFKEQ_clean_linker_1, # of connection points: 2
#     Edge 29, Type (0, 0), BuildingBlock: KIFKEQ_clean_linker_1, # of connection points: 2
#     Edge 30, Type (0, 0), BuildingBlock: KIFKEQ_clean_linker_1, # of connection points: 2
#     Edge 31, Type (0, 0), BuildingBlock: KIFKEQ_clean_linker_1, # of connection points: 2
#     Edge 32, Type (0, 0), BuildingBlock: KIFKEQ_clean_linker_1, # of connection points: 2
#     Edge 33, Type (0, 0), BuildingBlock: KIFKEQ_clean_linker_1, # of connection points: 2
#     Edge 34, Type (0, 0), BuildingBlock: KIFKEQ_clean_linker_1, # of connection points: 2
#     Edge 35, Type (0, 0), BuildingBlock: KIFKEQ_clean_linker_1, # of connection points: 2
#     Edge 36, Type (0, 0), BuildingBlock: KIFKEQ_clean_linker_1, # of connection points: 2
#     Edge 37, Type (0, 0), BuildingBlock: KIFKEQ_clean_linker_1, # of connection points: 2
#     Edge 38, Type (0, 0), BuildingBlock: KIFKEQ_clean_linker_1, # of connection points: 2
#     Edge 39, Type (0, 0), BuildingBlock: KIFKEQ_clean_linker_1, # of connection points: 2
#     Edge 40, Type (0, 0), BuildingBlock: KIFKEQ_clean_linker_1, # of connection points: 2
#     Edge 41, Type (0, 0), BuildingBlock: KIFKEQ_clean_linker_1, # of connection points: 2
# Relax obj value: 0.114
# Max RMSD: 0.136
# Mean RMSD: 0.136
data_MOF--net-wkb--node1-BEQFEK_clean_sbu_0--edge1-KIFKEQ_clean_linker_1
_symmetry_space_group_name_H-M    P1
_symmetry_Int_Tables_number       1
_symmetry_cell_setting            triclinic
loop_
_symmetry_equiv_pos_as_xyz
'x, y, z'
_cell_length_a     44.611874
_cell_length_b     44.599969
_cell_length_c     41.877082
_cell_angle_alpha  90.010056
_cell_angle_beta   89.905328
_cell_angle_gamma 120.03179
loop_
_atom_site_label
_atom_site_type_symbol
_atom_site_fract_x
_atom_site_fract_y
_atom_site_fract_z
_atom_type_partial_charge
Co0 Co 0.04414 0.36437 0.01803 0.0
Co1 Co 0.07845 0.36994 0.0845 0.0
C2 C 1.00518 0.3143 0.0711 0.0
O3 O 1.00593 0.32414 0.04226 0.0
O4 O 0.03148 0.32989 0.08922 0.0
C5 C 1.01258 0.33812 0.955 0.0
O6 O 0.99416 0.30748 0.96827 0.0
C7 C 0.1047 0.35117 0.14125 0.0
C8 C 0.13882 0.40299 0.16192 0.0
C9 C 0.12642 0.36804 0.16677 0.0
N10 N 0.10435 0.3752 0.12212 0.0
N11 N 0.1248 0.40608 0.13462 0.0
C12 C 0.08272 0.31293 0.13634 0.0
H13 H 0.0717 0.30716 0.1119 0.0
H14 H 0.09806 0.29993 0.14023 0.0
H15 H 0.06129 0.30233 0.15403 0.0
C16 C 0.10636 0.36087 0.99692 0.0
N17 N 0.08663 0.36359 0.01994 0.0
N18 N 0.10074 0.36513 0.04789 0.0
C19 C 0.12954 0.36285 0.04362 0.0
C20 C 0.1341 0.36002 0.01107 0.0
C21 C 0.10002 0.36149 0.96191 0.0
H22 H 0.09487 0.38285 0.95675 0.0
H23 H 0.07697 0.33666 0.95494 0.0
H24 H 0.12254 0.36554 0.94738 0.0
O25 O 0.04997 0.40862 0.03546 0.0
O26 O 0.07484 0.41222 0.08211 0.0
H27 H 0.16182 0.38538 0.08453 0.0
H28 H 0.17178 0.35677 0.06199 0.0
C29 C 0.15071 0.36107 0.07047 0.0
H30 H 0.13372 0.33937 0.08647 0.0
H31 H 0.12896 0.42929 0.12464 0.0
O32 O 0.03274 0.36387 0.97218 0.0
C33 C 0.06274 0.42439 0.06165 0.0
Co34 Co 0.69367 0.03401 0.18159 0.0
Co35 Co 0.72166 0.06822 0.24823 0.0
C36 C 0.70543 0.99544 0.23429 0.0
O37 O 0.69634 0.99647 0.20559 0.0
O38 O 0.71578 0.02143 0.25281 0.0
C39 C 0.69364 1.00384 0.12027 0.0
O40 O 0.71029 0.99066 0.13521 0.0
C41 C 0.76887 0.09759 0.30337 0.0
C42 C 0.74509 0.12413 0.32853 0.0
C43 C 0.77179 0.11688 0.33037 0.0
N44 N 0.74159 0.09366 0.28633 0.0
N45 N 0.72758 0.10964 0.30152 0.0
C46 C 0.78983 0.08095 0.29516 0.0
H47 H 0.7805 0.06594 0.27266 0.0
H48 H 0.81745 0.10098 0.29235 0.0
H49 H 0.78811 0.0636 0.31495 0.0
C50 C 0.75898 0.09696 0.16063 0.0
N51 N 0.73654 0.07697 0.18359 0.0
N52 N 0.74849 0.09148 0.21158 0.0
C53 C 0.77887 0.12114 0.20726 0.0
C54 C 0.78658 0.12552 0.17486 0.0
C55 C 0.75518 0.08772 0.12594 0.0
H56 H 0.72965 0.08287 0.11731 0.0
H57 H 0.75653 0.06375 0.12287 0.0
H58 H 0.77587 0.1083 0.11117 0.0
O59 O 0.65458 0.03916 0.19872 0.0
O60 O 0.67537 0.06348 0.24569 0.0
H61 H 0.81849 0.17147 0.22381 0.0
H62 H 0.81414 0.13502 0.24619 0.0
C63 C 0.79966 0.14554 0.23342 0.0
H64 H 0.78227 0.14822 0.25065 0.0
H65 H 0.7058 0.11038 0.29359 0.0
O66 O 0.68328 0.02132 0.136 0.0
C67 C 0.65124 0.05146 0.2251 0.0
Co68 Co 0.67283 0.68328 0.34737 0.0
Co69 Co 0.66618 0.71487 0.41151 0.0
C70 C 0.72311 0.69965 0.40263 0.0
O71 O 0.71247 0.68841 0.37441 0.0
O72 O 0.70773 0.71125 0.42011 0.0
C73 C 0.70629 0.68804 0.28762 0.0
O74 O 0.73407 0.71165 0.30244 0.0
C75 C 0.67507 0.75873 0.46815 0.0
C76 C 0.62323 0.75391 0.46886 0.0
C77 C 0.65526 0.77036 0.48358 0.0
N78 N 0.65558 0.73672 0.44496 0.0
N79 N 0.62454 0.7336 0.4459 0.0
C80 C 0.71259 0.77072 0.47317 0.0
H81 H 0.72497 0.77052 0.45024 0.0
H82 H 0.72626 0.79711 0.48365 0.0
H83 H 0.71489 0.75265 0.48985 0.0
C84 C 0.67284 0.74619 0.32183 0.0
N85 N 0.67158 0.72541 0.34592 0.0
N86 N 0.6716 0.73992 0.37323 0.0
C87 C 0.67446 0.77102 0.36748 0.0
C88 C 0.67502 0.77597 0.33466 0.0
C89 C 0.66949 0.73676 0.2872 0.0
H90 H 0.65276 0.7084 0.28419 0.0
H91 H 0.69552 0.74498 0.27725 0.0
H92 H 0.65816 0.75003 0.27358 0.0
O93 O 0.62862 0.64464 0.36398 0.0
O94 O 0.62517 0.66751 0.40978 0.0
H95 H 0.65442 0.79024 0.4035 0.0
H96 H 0.69218 0.82353 0.38323 0.0
C97 C 0.6798 0.79682 0.39292 0.0
H98 H 0.69661 0.79605 0.41192 0.0
H99 H 0.6046 0.71848 0.43004 0.0
O100 O 0.67816 0.67144 0.30314 0.0
C101 C 0.61306 0.6424 0.39014 0.0
Co102 Co 1.0024 0.66691 0.51589 0.0
Co103 Co 0.96382 0.65896 0.58014 0.0
C104 C 0.03744 0.71547 0.57089 0.0
O105 O 0.03776 0.70626 0.54207 0.0
O106 O 1.01058 0.69927 0.58843 0.0
C107 C 0.0342 0.69925 0.45612 0.0
O108 O 0.04291 0.72836 0.47112 0.0
C109 C 0.93254 0.67366 0.6357 0.0
C110 C 0.88761 0.62154 0.64458 0.0
C111 C 0.9034 0.65561 0.65471 0.0
N112 N 0.93361 0.65121 0.61496 0.0
N113 N 0.90697 0.62007 0.62069 0.0
C114 C 0.95731 0.71183 0.63534 0.0
H115 H 0.96723 0.72056 0.61078 0.0
H116 H 0.94475 0.72626 0.6444 0.0
H117 H 0.97964 0.71759 0.65096 0.0
C118 C 0.94097 0.67037 0.49116 0.0
N119 N 0.95953 0.66706 0.515 0.0
N120 N 0.94426 0.6654 0.54238 0.0
C121 C 0.91606 0.66841 0.5369 0.0
C122 C 0.91305 0.67164 0.50431 0.0
C123 C 0.95057 0.67396 0.45656 0.0
H124 H 0.97267 0.70035 0.45226 0.0
H125 H 0.92892 0.6703 0.44101 0.0
H126 H 0.95834 0.65473 0.45 0.0
O127 O 0.9964 0.62243 0.53292 0.0
O128 O 0.96696 0.61637 0.57744 0.0
H129 H 0.8806 0.6423 0.57508 0.0
H130 H 0.87045 0.67015 0.55226 0.0
C131 C 0.89191 0.66737 0.56229 0.0
H132 H 0.9065 0.68848 0.57968 0.0
H133 H 0.90146 0.59797 0.60763 0.0
O134 O 1.01871 0.67089 0.47145 0.0
C135 C 0.98106 0.60532 0.55792 0.0
Co136 Co 0.35036 0.99488 0.68207 0.0
Co137 Co 0.31991 0.95832 0.74709 0.0
C138 C 0.33686 0.031 0.73726 0.0
O139 O 0.3468 0.03082 0.70862 0.0
O140 O 0.32554 1.00435 0.75511 0.0
C141 C 0.34491 0.02182 0.62151 0.0
O142 O 0.32135 0.02628 0.63615 0.0
C143 C 0.27696 0.92719 0.80473 0.0
C144 C 0.27832 0.8783 0.80686 0.0
C145 C 0.26384 0.8961 0.82102 0.0
N146 N 0.298 0.92747 0.78155 0.0
N147 N 0.29917 0.89849 0.78338 0.0
C148 C 0.26723 0.95454 0.80892 0.0
H149 H 0.26357 0.9634 0.78524 0.0
H150 H 0.24331 0.94494 0.82343 0.0
H151 H 0.28872 0.97715 0.82114 0.0
C152 C 0.28603 0.93202 0.65835 0.0
N153 N 0.30758 0.9519 0.68185 0.0
N154 N 0.29357 0.93822 0.70956 0.0
C155 C 0.26205 0.91022 0.70469 0.0
C156 C 0.25625 0.9051 0.67202 0.0
C157 C 0.29473 0.93691 0.62352 0.0
H158 H 0.32296 0.94806 0.61998 0.0
H159 H 0.28666 0.95468 0.61325 0.0
H160 H 0.28087 0.91189 0.61057 0.0
O161 O 0.38878 0.98864 0.69836 0.0
O162 O 0.36639 0.96291 0.74453 0.0
H163 H 0.24301 0.87167 0.74135 0.0
H164 H 0.20976 0.87656 0.7217 0.0
C165 C 0.23671 0.89064 0.73077 0.0
H166 H 0.23831 0.90878 0.7496 0.0
H167 H 0.31311 0.89189 0.76765 0.0
O168 O 0.36168 1.01079 0.63738 0.0
C169 C 0.39112 0.97529 0.72444 0.0
Co170 Co 0.37015 0.34355 0.84959 0.0
Co171 Co 0.3777 0.31338 0.91432 0.0
C172 C 0.32213 0.3309 0.90599 0.0
O173 O 0.33145 0.34048 0.87713 0.0
O174 O 0.33775 0.31953 0.92331 0.0
C175 C 0.33637 0.33736 0.78972 0.0
O176 O 0.30896 0.31318 0.80465 0.0
C177 C 0.37002 0.27581 0.97508 0.0
C178 C 0.42058 0.27781 0.97587 0.0
C179 C 0.3901 0.26616 0.99286 0.0
N180 N 0.38793 0.29218 0.94864 0.0
N181 N 0.41804 0.29322 0.94932 0.0
C182 C 0.33578 0.27203 0.98384 0.0
H183 H 0.33694 0.29728 0.98086 0.0
H184 H 0.31566 0.25327 0.96737 0.0
H185 H 0.32843 0.26322 0.00885 0.0
C186 C 0.36809 0.279 0.82562 0.0
N187 N 0.37012 0.30065 0.84919 0.0
N188 N 0.37037 0.28683 0.87682 0.0
C189 C 0.36685 0.25534 0.87188 0.0
C190 C 0.36556 0.24934 0.83918 0.0
C191 C 0.37159 0.28769 0.79079 0.0
H192 H 0.38836 0.31597 0.78724 0.0
H193 H 0.34561 0.27927 0.78069 0.0
H194 H 0.38297 0.27412 0.77768 0.0
O195 O 0.41538 0.38201 0.86489 0.0
O196 O 0.41963 0.35972 0.91072 0.0
H197 H 0.38788 0.23631 0.90701 0.0
H198 H 0.348 0.20332 0.88948 0.0
C199 C 0.36213 0.23049 0.89807 0.0
H200 H 0.34738 0.23323 0.91807 0.0
H201 H 0.43699 0.30475 0.93166 0.0
O202 O 0.36442 0.35463 0.80514 0.0
C203 C 0.43169 0.38434 0.89055 0.0
Co204 Co 0.6728 0.99424 0.82009 0.0
Co205 Co 0.66453 0.95565 0.75568 0.0
C206 C 0.72086 0.02859 0.76339 0.0
O207 O 0.71159 0.02936 0.79218 0.0
O208 O 0.705 1.00133 0.74639 0.0
C209 C 0.70669 0.02216 0.88002 0.0
O210 O 0.73411 0.02527 0.86524 0.0
C211 C 0.67191 0.92426 0.69582 0.0
C212 C 0.62026 0.87699 0.69431 0.0
C213 C 0.65135 0.89469 0.67799 0.0
N214 N 0.65371 0.92373 0.72166 0.0
N215 N 0.62295 0.89542 0.72058 0.0
C216 C 0.70703 0.95373 0.68761 0.0
H217 H 0.70663 0.97833 0.68905 0.0
H218 H 0.72604 0.955 0.7054 0.0
H219 H 0.7153 0.9512 0.66327 0.0
C220 C 0.67417 0.93151 0.84457 0.0
N221 N 0.67218 0.95101 0.82087 0.0
N222 N 0.67151 0.93653 0.79335 0.0
C223 C 0.67471 0.90842 0.79848 0.0
C224 C 0.67622 0.90402 0.83119 0.0
C225 C 0.67121 0.93722 0.87938 0.0
H226 H 0.65462 0.94891 0.88298 0.0
H227 H 0.69737 0.95485 0.88913 0.0
H228 H 0.65991 0.91244 0.89277 0.0
O229 O 0.62783 0.98799 0.80468 0.0
O230 O 0.62319 0.96103 0.75901 0.0
H231 H 0.65324 0.86847 0.76322 0.0
H232 H 0.69259 0.87435 0.78112 0.0
C233 C 0.67908 0.88794 0.7724 0.0
H234 H 0.69432 0.90534 0.75253 0.0
H235 H 0.60366 0.88883 0.73776 0.0
O236 O 0.67872 1.01141 0.86449 0.0
C237 C 0.61149 0.97409 0.77901 0.0
Co238 Co 0.69304 0.66547 0.9874 0.0
Co239 Co 0.72457 0.66016 0.92266 0.0
C240 C 0.70635 0.71518 0.93264 0.0
O241 O 0.69638 0.70495 0.96123 0.0
O242 O 0.71797 0.7001 0.91484 0.0
C243 C 0.69678 0.69757 0.0476 0.0
O244 O 0.71945 0.72597 0.03282 0.0
C245 C 0.76748 0.67413 0.86471 0.0
C246 C 0.76865 0.6252 0.8615 0.0
C247 C 0.78136 0.65741 0.84746 0.0
N248 N 0.74769 0.65275 0.88817 0.0
N249 N 0.74818 0.62345 0.88584 0.0
C250 C 0.77526 0.71069 0.86097 0.0
H251 H 0.77817 0.72272 0.8848 0.0
H252 H 0.79916 0.72627 0.84675 0.0
H253 H 0.75321 0.71064 0.8487 0.0
C254 C 0.75723 0.66753 0.01184 0.0
N255 N 0.73602 0.66589 0.98805 0.0
N256 N 0.75048 0.66649 0.96052 0.0
C257 C 0.78198 0.67015 0.96584 0.0
C258 C 0.78724 0.67061 0.99859 0.0
C259 C 0.7479 0.66339 0.04654 0.0
H260 H 0.71968 0.64585 0.04965 0.0
H261 H 0.75529 0.68909 0.05681 0.0
H262 H 0.76187 0.65258 0.05981 0.0
O263 O 0.65533 0.62082 0.97048 0.0
O264 O 0.67835 0.61756 0.92462 0.0
H265 H 0.80189 0.65078 0.92987 0.0
H266 H 0.83453 0.68933 0.9495 0.0
C267 C 0.8077 0.67605 0.9401 0.0
H268 H 0.80605 0.69224 0.92092 0.0
H269 H 0.7353 0.60262 0.90152 0.0
O270 O 0.68104 0.66949 0.03193 0.0
C271 C 0.6534 0.60509 0.94452 0.0
Co272 Co 0.04195 0.68724 0.15564 0.0
Co273 Co 0.07787 0.71527 0.08972 0.0
C274 C 1.00486 0.69884 0.10113 0.0
O275 O 1.00526 0.68987 0.13004 0.0
O276 O 0.03128 0.70922 0.08309 0.0
C277 C 1.01192 0.68896 0.2165 0.0
O278 O 1.00153 0.70816 0.20178 0.0
C279 C 0.10873 0.75777 0.03118 0.0
C280 C 0.1454 0.73996 0.01841 0.0
C281 C 0.13332 0.76164 0.00867 0.0
N282 N 0.10656 0.7348 0.05324 0.0
N283 N 0.12866 0.72446 0.04546 0.0
C284 C 0.08657 0.77419 0.03084 0.0
H285 H 0.10158 0.80085 0.04053 0.0
H286 H 0.07884 0.77591 0.00602 0.0
H287 H 0.06325 0.75948 0.04586 0.0
C288 C 0.10445 0.75298 0.17725 0.0
N289 N 0.08489 0.73023 0.15435 0.0
N290 N 0.09944 0.74239 0.1264 0.0
C291 C 0.12833 0.7734 0.13055 0.0
C292 C 0.13247 0.78117 0.1629 0.0
C293 C 0.0955 0.7488 0.21203 0.0
H294 H 0.08889 0.7225 0.22002 0.0
H295 H 0.0727 0.75208 0.21576 0.0
H296 H 0.11697 0.76828 0.22686 0.0
O297 O 0.04766 0.64808 0.13994 0.0
O298 O 0.073 0.66901 0.09338 0.0
H299 H 0.16035 0.77895 0.09036 0.0
H300 H 0.17531 0.81812 0.11325 0.0
C301 C 0.15201 0.79476 0.1041 0.0
H302 H 0.13783 0.80279 0.0877 0.0
H303 H 0.1321 0.70648 0.05852 0.0
O304 O 0.02767 0.67669 0.20074 0.0
C305 C 0.06069 0.64487 0.11398 0.0
Co306 Co 0.36984 0.03316 0.32188 0.0
Co307 Co 0.37847 0.07218 0.25772 0.0
C308 C 0.32085 0.99954 0.26624 0.0
O309 O 0.33061 0.99852 0.29472 0.0
O310 O 0.33686 0.02675 0.24912 0.0
C311 C 0.33676 1.00043 0.3816 0.0
O312 O 0.30753 0.99101 0.36659 0.0
C313 C 0.3679 0.1076 0.20276 0.0
C314 C 0.42171 0.15031 0.19584 0.0
C315 C 0.38816 0.13733 0.18509 0.0
N316 N 0.38865 0.10356 0.22343 0.0
N317 N 0.4208 0.12882 0.21876 0.0
C318 C 0.32936 0.08522 0.20199 0.0
H319 H 0.31949 0.07306 0.22568 0.0
H320 H 0.31703 0.10051 0.19488 0.0
H321 H 0.32233 0.06434 0.18416 0.0
C322 C 0.36746 0.09494 0.34704 0.0
N323 N 0.37071 0.07646 0.32304 0.0
N324 N 0.3731 0.09221 0.29581 0.0
C325 C 0.37069 0.12073 0.30156 0.0
C326 C 0.36706 0.12339 0.33417 0.0
C327 C 0.36276 0.08457 0.38146 0.0
H328 H 0.3819 0.07682 0.38838 0.0
H329 H 0.33633 0.06224 0.38496 0.0
H330 H 0.36577 0.10583 0.39728 0.0
O331 O 0.41436 0.03881 0.30554 0.0
O332 O 0.41918 0.06578 0.25986 0.0
H333 H 0.39693 0.15579 0.26314 0.0
H334 H 0.37053 0.16729 0.28674 0.0
C335 C 0.3722 0.14528 0.2764 0.0
H336 H 0.35059 0.13122 0.25938 0.0
H337 H 0.44197 0.1321 0.2321 0.0
O338 O 0.3651 0.01645 0.36629 0.0
C339 C 0.43059 0.05235 0.27969 0.0
Co340 Co 0.34807 0.3621 0.4883 0.0
Co341 Co 0.32046 0.36882 0.42187 0.0
C342 C 0.33577 0.31162 0.43566 0.0
O343 O 0.34532 0.32187 0.46425 0.0
O344 O 0.32546 0.32741 0.41733 0.0
C345 C 0.34832 0.33186 0.54949 0.0
O346 O 0.33195 0.30203 0.5345 0.0
C347 C 0.27263 0.35048 0.36759 0.0
C348 C 0.29673 0.39995 0.34096 0.0
C349 C 0.26951 0.36618 0.34024 0.0
N350 N 0.30052 0.37405 0.3838 0.0
N351 N 0.31476 0.40354 0.36776 0.0
C352 C 0.25126 0.31322 0.37691 0.0
H353 H 0.25917 0.30863 0.40069 0.0
H354 H 0.22344 0.30537 0.37748 0.0
H355 H 0.25458 0.29694 0.35878 0.0
C356 C 0.28263 0.35957 0.50924 0.0
N357 N 0.30523 0.36229 0.48635 0.0
N358 N 0.29364 0.36546 0.4584 0.0
C359 C 0.26342 0.36505 0.46268 0.0
C360 C 0.25534 0.36112 0.49501 0.0
C361 C 0.28593 0.35322 0.54381 0.0
H362 H 0.31112 0.37399 0.55303 0.0
H363 H 0.28512 0.32809 0.54626 0.0
H364 H 0.26473 0.35215 0.55848 0.0
O365 O 0.38735 0.40641 0.47138 0.0
O366 O 0.36689 0.41023 0.42435 0.0
H367 H 0.26106 0.38939 0.41929 0.0
H368 H 0.22533 0.37796 0.44634 0.0
C369 C 0.24323 0.36972 0.4366 0.0
H370 H 0.22772 0.34479 0.42394 0.0
H371 H 0.33702 0.42607 0.37496 0.0
O372 O 0.35836 0.3597 0.53384 0.0
C373 C 0.39091 0.42219 0.44505 0.0
Co374 Co 0.99805 0.34082 0.65208 0.0
Co375 Co 0.96307 0.31493 0.58534 0.0
C376 C 0.03721 0.33255 0.5987 0.0
O377 O 0.03648 0.33994 0.62808 0.0
O378 O 1.01093 0.32307 0.58071 0.0
C379 C 0.03354 0.35495 0.71501 0.0
O380 O 0.06068 0.35672 0.70084 0.0
C381 C 0.93515 0.26782 0.53012 0.0
C382 C 0.90938 0.29157 0.50374 0.0
C383 C 0.91657 0.2648 0.50261 0.0
N384 N 0.93868 0.2952 0.54677 0.0
N385 N 0.92319 0.30922 0.53087 0.0
C386 C 0.95156 0.24689 0.53923 0.0
H387 H 0.96744 0.25744 0.5611 0.0
H388 H 0.9313 0.21965 0.54366 0.0
H389 H 0.96794 0.2469 0.51924 0.0
C390 C 0.93758 0.27307 0.67124 0.0
N391 N 0.95616 0.29706 0.64885 0.0
N392 N 0.94063 0.28641 0.62108 0.0
C393 C 0.91125 0.2557 0.62511 0.0
C394 C 0.9084 0.24619 0.65705 0.0
C395 C 0.94871 0.27476 0.70519 0.0
H396 H 0.9437 0.29338 0.71834 0.0
H397 H 0.97681 0.28388 0.70611 0.0
H398 H 0.93445 0.24914 0.71708 0.0
O399 O 0.99245 0.38 0.63562 0.0
O400 O 0.96486 0.35969 0.58977 0.0
H401 H 0.88411 0.25528 0.58263 0.0
H402 H 0.85927 0.21957 0.6096 0.0
C403 C 0.88537 0.2367 0.59936 0.0
H404 H 0.89334 0.22042 0.58593 0.0
H405 H 0.92232 0.33107 0.53838 0.0
O406 O 1.00753 0.34972 0.69845 0.0
C407 C 0.97813 0.38345 0.61067 0.0
H408 H 0.27964 0.36846 0.27655 0.0
H409 H 0.19955 0.33436 0.3482 0.0
H410 H 0.23696 0.35651 0.23488 0.0
H411 H 0.15655 0.32215 0.30645 0.0
H412 H 0.1242 0.38014 0.22963 0.0
H413 H 0.1526 0.3672 0.27285 0.0
H414 H 0.18257 0.31266 0.20652 0.0
H415 H 0.15428 0.32597 0.1632 0.0
C416 C 0.25264 0.35732 0.28319 0.0
C417 C 0.2427 0.35197 0.31539 0.0
C418 C 0.22818 0.35026 0.25939 0.0
C419 C 0.19342 0.33836 0.26745 0.0
C420 C 0.18317 0.33122 0.29962 0.0
C421 C 0.20765 0.33787 0.32344 0.0
C422 C 0.13592 0.36444 0.22459 0.0
C423 C 0.13679 0.35368 0.19333 0.0
C424 C 0.15197 0.35683 0.2493 0.0
C425 C 0.16976 0.33888 0.24301 0.0
C426 C 0.16895 0.32646 0.21199 0.0
C427 C 0.1525 0.33375 0.1873 0.0
H428 H 0.7598 0.11228 0.39387 0.0
H429 H 0.84219 0.15136 0.3242 0.0
H430 H 0.80184 0.14294 0.43601 0.0
H431 H 0.88453 0.18188 0.36646 0.0
H432 H 0.88316 0.19442 0.50922 0.0
H433 H 0.85365 0.15151 0.46713 0.0
H434 H 0.89168 0.23355 0.39702 0.0
H435 H 0.92136 0.27617 0.43899 0.0
C436 C 0.78709 0.12656 0.38781 0.0
C437 C 0.79786 0.12924 0.35595 0.0
C438 C 0.81118 0.14392 0.41192 0.0
C439 C 0.84648 0.1648 0.40451 0.0
C440 C 0.85747 0.16592 0.37282 0.0
C441 C 0.83332 0.14817 0.3487 0.0
C442 C 0.88638 0.20307 0.48466 0.0
C443 C 0.90475 0.2385 0.4772 0.0
C444 C 0.8692 0.17857 0.46063 0.0
C445 C 0.87035 0.18919 0.42881 0.0
C446 C 0.89069 0.2245 0.42121 0.0
C447 C 0.90748 0.24893 0.44523 0.0
H448 H 0.68924 0.77552 0.53946 0.0
H449 H 0.64253 0.82335 0.4847 0.0
H450 H 0.6948 0.81221 0.58524 0.0
H451 H 0.64897 0.86063 0.52974 0.0
H452 H 0.60805 0.86859 0.62797 0.0
H453 H 0.61626 0.84448 0.57899 0.0
H454 H 0.71896 0.87054 0.60972 0.0
H455 H 0.7101 0.89395 0.65963 0.0
C456 C 0.68123 0.79467 0.53696 0.0
C457 C 0.66512 0.79649 0.50888 0.0
C458 C 0.68445 0.81569 0.56307 0.0
C459 C 0.67175 0.83887 0.56122 0.0
C460 C 0.65824 0.84246 0.53213 0.0
C461 C 0.65464 0.82124 0.50634 0.0
C462 C 0.63254 0.86955 0.62409 0.0
C463 C 0.65863 0.88357 0.64725 0.0
C464 C 0.63741 0.85603 0.59591 0.0
C465 C 0.66847 0.85599 0.59029 0.0
C466 C 0.69482 0.87033 0.61338 0.0
C467 C 0.68994 0.88407 0.6417 0.0
H468 H 0.93932 0.69857 0.70416 0.0
H469 H 0.83727 0.64043 0.66301 0.0
H470 H 0.91451 0.71088 0.75128 0.0
H471 H 0.81259 0.65288 0.70969 0.0
H472 H 0.77688 0.68887 0.79323 0.0
H473 H 0.81166 0.70022 0.74454 0.0
H474 H 0.87408 0.66474 0.79208 0.0
H475 H 0.83925 0.65317 0.84033 0.0
C476 C 0.9118 0.68942 0.70478 0.0
C477 C 0.89008 0.66851 0.68018 0.0
C478 C 0.89763 0.69633 0.73169 0.0
C479 C 0.86169 0.68285 0.73401 0.0
C480 C 0.84041 0.66397 0.70833 0.0
C481 C 0.85446 0.65658 0.68179 0.0
C482 C 0.79869 0.68453 0.79342 0.0
C483 C 0.8055 0.67013 0.82029 0.0
C484 C 0.81845 0.6909 0.76565 0.0
C485 C 0.84554 0.68341 0.76467 0.0
C486 C 0.85367 0.67119 0.79233 0.0
C487 C 0.83359 0.66428 0.8198 0.0
H488 H 0.20286 0.83668 0.81743 0.0
H489 H 0.26491 0.92253 0.87994 0.0
H490 H 0.16305 0.80605 0.8612 0.0
H491 H 0.22599 0.89128 0.92452 0.0
H492 H 0.14496 0.82776 0.99894 0.0
H493 H 0.16917 0.8633 0.95096 0.0
H494 H 0.17355 0.77859 0.90535 0.0
H495 H 0.14843 0.74314 0.9524 0.0
C496 C 0.20752 0.84914 0.84056 0.0
C497 C 0.23688 0.88159 0.84569 0.0
C498 C 0.18491 0.83163 0.86562 0.0
C499 C 0.19181 0.84589 0.89649 0.0
C500 C 0.21986 0.87965 0.901 0.0
C501 C 0.24222 0.89749 0.87563 0.0
C502 C 0.15007 0.81649 0.97825 0.0
C503 C 0.14447 0.78256 0.97921 0.0
C504 C 0.16433 0.83696 0.95094 0.0
C505 C 0.17306 0.82372 0.92425 0.0
C506 C 0.16646 0.78944 0.92515 0.0
C507 C 0.1524 0.76918 0.95228 0.0
H508 H 0.33 0.20936 0.01363 0.0
H509 H 0.43494 0.28231 0.04146 0.0
H510 H 0.32135 0.17783 0.06394 0.0
H511 H 0.42697 0.25058 0.09069 0.0
H512 H 0.4051 0.20434 0.18479 0.0
H513 H 0.39783 0.2362 0.14113 0.0
H514 H 0.34238 0.14117 0.08723 0.0
H515 H 0.34851 0.10913 0.13188 0.0
C516 C 0.35089 0.21906 0.03083 0.0
C517 C 0.38296 0.24855 0.02403 0.0
C518 C 0.3461 0.20081 0.05938 0.0
C519 C 0.37335 0.21186 0.08146 0.0
C520 C 0.40514 0.24176 0.07465 0.0
C521 C 0.40987 0.25981 0.04628 0.0
C522 C 0.39064 0.19024 0.16388 0.0
C523 C 0.37766 0.15451 0.16134 0.0
C524 C 0.38659 0.20842 0.13884 0.0
C525 C 0.37024 0.19134 0.11043 0.0
C526 C 0.35499 0.15507 0.10885 0.0
C527 C 0.35855 0.13672 0.13429 0.0
H528 H 0.08282 0.4616 0.11718 0.0
H529 H 0.04229 0.46078 0.02328 0.0
H530 H 0.08193 0.51439 0.13008 0.0
H531 H 0.04115 0.51353 0.03642 0.0
H532 H 0.0822 0.62826 0.0591 0.0
H533 H 0.08248 0.57516 0.04667 0.0
H534 H 0.04003 0.53443 0.13985 0.0
H535 H 0.03999 0.58792 0.15259 0.0
C536 C 0.07371 0.47264 0.09925 0.0
C537 C 0.06269 0.45691 0.06911 0.0
C538 C 0.07297 0.50279 0.10678 0.0
C539 C 0.06141 0.51812 0.08432 0.0
C540 C 0.05052 0.50253 0.05415 0.0
C541 C 0.05106 0.47222 0.04665 0.0
C542 C 0.07293 0.60807 0.07705 0.0
C543 C 0.06107 0.61244 0.10691 0.0
C544 C 0.07289 0.57749 0.06978 0.0
C545 C 0.06117 0.55052 0.0922 0.0
C546 C 0.0495 0.55488 0.12215 0.0
C547 C 0.04935 0.58547 0.1294 0.0
H548 H 0.46588 0.02966 0.31698 0.0
H549 H 0.46842 0.07398 0.22452 0.0
H550 H 0.51857 0.02851 0.30338 0.0
H551 H 0.52108 0.07307 0.21118 0.0
H552 H 0.59467 0.03206 0.18647 0.0
H553 H 0.54096 0.0314 0.19979 0.0
H554 H 0.58046 0.07001 0.29409 0.0
H555 H 0.63379 0.07042 0.28106 0.0
C556 C 0.47766 0.03922 0.29382 0.0
C557 C 0.46288 0.05195 0.27191 0.0
C558 C 0.50793 0.03868 0.28607 0.0
C559 C 0.52398 0.05066 0.25617 0.0
C560 C 0.50913 0.06325 0.23424 0.0
C561 C 0.47904 0.06399 0.24204 0.0
C562 C 0.5919 0.04041 0.21003 0.0
C563 C 0.61862 0.05132 0.23263 0.0
C564 C 0.56118 0.04016 0.21763 0.0
C565 C 0.55642 0.05059 0.24804 0.0
C566 C 0.5831 0.06139 0.27061 0.0
C567 C 0.61382 0.06185 0.26299 0.0
H568 H 0.57662 0.58445 0.35311 0.0
H569 H 0.57602 0.62676 0.44585 0.0
H570 H 0.52357 0.53115 0.36699 0.0
H571 H 0.52287 0.57361 0.45949 0.0
H572 H 0.44759 0.45877 0.48377 0.0
H573 H 0.50161 0.51165 0.47063 0.0
H574 H 0.46216 0.51194 0.37661 0.0
H575 H 0.40854 0.4592 0.38944 0.0
C576 C 0.56519 0.58246 0.37641 0.0
C577 C 0.58062 0.60998 0.39831 0.0
C578 C 0.53469 0.55195 0.38432 0.0
C579 C 0.51899 0.54815 0.41435 0.0
C580 C 0.53451 0.57556 0.4363 0.0
C581 C 0.56489 0.60613 0.42835 0.0
C582 C 0.45044 0.47013 0.46031 0.0
C583 C 0.42366 0.45465 0.4377 0.0
C584 C 0.48134 0.50051 0.45283 0.0
C585 C 0.48622 0.51593 0.42252 0.0
C586 C 0.45944 0.50047 0.39999 0.0
C587 C 0.42856 0.4703 0.40749 0.0
H588 H 0.93225 0.5507 0.59219 0.0
H589 H 0.02797 0.58581 0.54042 0.0
H590 H 0.93138 0.49687 0.6058 0.0
H591 H 0.02749 0.53224 0.55503 0.0
H592 H 0.02526 0.4489 0.63056 0.0
H593 H 0.02635 0.50308 0.61721 0.0
H594 H 0.931 0.44538 0.56485 0.0
H595 H 0.93034 0.3914 0.57719 0.0
C596 C 0.95311 0.54694 0.58379 0.0
C597 C 0.98012 0.57239 0.56514 0.0
C598 C 0.95257 0.51619 0.59158 0.0
C599 C 0.97947 0.51071 0.58159 0.0
C600 C 1.0066 0.53612 0.56313 0.0
C601 C 1.00672 0.56655 0.55462 0.0
C602 C 1.00445 0.44781 0.61639 0.0
C603 C 0.9777 0.41596 0.60493 0.0
C604 C 1.00522 0.47874 0.60861 0.0
C605 C 0.9788 0.47819 0.58998 0.0
C606 C 0.95162 0.44635 0.57926 0.0
C607 C 0.95129 0.41557 0.58632 0.0
H608 H 0.40718 0.95468 0.78023 0.0
H609 H 0.44821 0.9949 0.68642 0.0
H610 H 0.46018 0.95446 0.79354 0.0
H611 H 0.50142 0.99487 0.69998 0.0
H612 H 0.57369 0.95231 0.72397 0.0
H613 H 0.52076 0.95269 0.71088 0.0
H614 H 0.52224 0.99594 0.80351 0.0
H615 H 0.57526 0.99538 0.81687 0.0
C616 C 0.42748 0.96348 0.7624 0.0
C617 C 0.42334 0.97477 0.73219 0.0
C618 C 0.45798 0.96357 0.77017 0.0
C619 C 0.48504 0.97471 0.74787 0.0
C620 C 0.4809 0.98582 0.71759 0.0
C621 C 0.45045 0.98597 0.70987 0.0
C622 C 0.56277 0.96186 0.74166 0.0
C623 C 0.57881 0.9738 0.77154 0.0
C624 C 0.53251 0.96228 0.73401 0.0
C625 C 0.51734 0.97444 0.75609 0.0
C626 C 0.53315 0.98613 0.78607 0.0
C627 C 0.56361 0.98594 0.79368 0.0
H628 H 0.46859 0.44149 0.85236 0.0
H629 H 0.4698 0.40002 0.94535 0.0
H630 H 0.52226 0.49467 0.8654 0.0
H631 H 0.52335 0.4529 0.95812 0.0
H632 H 0.59633 0.5676 0.98242 0.0
H633 H 0.54307 0.51446 0.96886 0.0
H634 H 0.58436 0.51495 0.87541 0.0
H635 H 0.63751 0.5682 0.88875 0.0
C636 C 0.48031 0.44362 0.8755 0.0
C637 C 0.46479 0.41644 0.89778 0.0
C638 C 0.51114 0.47403 0.88291 0.0
C639 C 0.527 0.47804 0.91284 0.0
C640 C 0.51156 0.45082 0.93503 0.0
C641 C 0.48093 0.42038 0.92757 0.0
C642 C 0.59412 0.55638 0.959 0.0
C643 C 0.62128 0.57223 0.93672 0.0
C644 C 0.56363 0.52582 0.95128 0.0
C645 C 0.55947 0.5105 0.92104 0.0
C646 C 0.5866 0.52632 0.89877 0.0
C647 C 0.61717 0.55674 0.90654 0.0
H648 H 0.97762 0.34333 0.75103 0.0
H649 H 0.08403 0.3675 0.75913 0.0
H650 H 0.97177 0.3392 0.80892 0.0
H651 H 0.07825 0.36449 0.81744 0.0
H652 H 0.05862 0.39408 0.91991 0.0
H653 H 0.06441 0.39903 0.86198 0.0
H654 H 0.97533 0.29687 0.85204 0.0
H655 H 0.96995 0.29123 0.91027 0.0
C656 C 0.99983 0.34783 0.76509 0.0
C657 C 0.03122 0.35532 0.75034 0.0
C658 C 0.99637 0.34542 0.79826 0.0
C659 C 0.02445 0.35127 0.81752 0.0
C660 C 0.05621 0.35987 0.80301 0.0
C661 C 0.05949 0.36159 0.76969 0.0
C662 C 0.04019 0.37258 0.90549 0.0
C663 C 1.01392 0.3421 0.91979 0.0
C664 C 0.04367 0.37545 0.87232 0.0
C665 C 1.02049 0.34827 0.85267 0.0
C666 C 0.99353 0.31821 0.86677 0.0
C667 C 0.99046 0.31501 0.90005 0.0
H668 H 0.75832 0.03373 0.92213 0.0
H669 H 0.65272 1.01269 0.91789 0.0
H670 H 0.75417 0.02875 0.9802 0.0
H671 H 0.64839 1.007 0.97571 0.0
H672 H 0.66519 0.03286 0.08237 0.0
H673 H 0.66944 0.03968 0.02464 0.0
H674 H 0.7246 0.98312 0.02014 0.0
H675 H 0.72101 0.9769 0.07814 0.0
C676 C 0.73435 0.02841 0.93357 0.0
C677 C 0.70587 0.02362 0.91534 0.0
C678 C 0.73184 0.02515 0.96683 0.0
C679 C 0.70083 0.01711 0.98257 0.0
C680 C 0.67274 1.01345 0.96439 0.0
C681 C 0.67524 0.01669 0.93119 0.0
C682 C 0.67795 0.02156 0.06909 0.0
C683 C 0.69279 1.00433 0.08492 0.0
C684 C 0.68034 0.02545 0.03595 0.0
C685 C 0.69759 1.01219 0.01778 0.0
C686 C 0.71168 0.9942 0.03351 0.0
C687 C 0.70929 0.99029 0.06672 0.0
H688 H 0.73061 0.75124 0.08968 0.0
H689 H 0.65997 0.64082 0.08544 0.0
H690 H 0.73298 0.74765 0.14767 0.0
H691 H 0.66323 0.63708 0.14304 0.0
H692 H 0.75981 0.72388 0.24569 0.0
H693 H 0.75637 0.72604 0.18767 0.0
H694 H 0.6468 0.65189 0.19201 0.0
H695 H 0.65044 0.64888 0.24963 0.0
C696 C 0.71539 0.72627 0.10111 0.0
C697 C 0.69507 0.69635 0.08291 0.0
C698 C 0.71708 0.72413 0.13431 0.0
C699 C 0.69859 0.69201 0.15001 0.0
C700 C 0.67756 0.66229 0.13182 0.0
C701 C 0.67571 0.66445 0.09872 0.0
C702 C 0.73512 0.70764 0.23419 0.0
C703 C 0.70543 0.68619 0.25232 0.0
C704 C 0.73304 0.7092 0.20097 0.0
C705 C 0.70122 0.68942 0.18518 0.0
C706 C 0.67179 0.66723 0.20329 0.0
C707 C 0.6739 0.66554 0.23641 0.0
H708 H 0.05302 0.75292 0.41416 0.0
H709 H 1.01573 0.64294 0.41819 0.0
H710 H 0.04655 0.74929 0.35617 0.0
H711 H 1.0086 0.63926 0.36055 0.0
H712 H 0.03341 0.65312 0.25366 0.0
H713 H 0.04113 0.65646 0.31122 0.0
H714 H 0.99913 0.72505 0.31715 0.0
H715 H 0.99207 0.72235 0.25921 0.0
C716 C 0.04383 0.72807 0.40268 0.0
C717 C 0.0349 0.69823 0.42082 0.0
C718 C 0.03972 0.72592 0.36951 0.0
C719 C 0.02669 0.69392 0.3538 0.0
C720 C 1.0189 0.66434 0.37186 0.0
C721 C 0.02298 0.66648 0.40496 0.0
C722 C 0.02545 0.66865 0.26721 0.0
C723 C 1.01214 0.68751 0.2518 0.0
C724 C 0.02986 0.67052 0.30026 0.0
C725 C 1.02102 0.69124 0.31874 0.0
C726 C 1.00677 0.70934 0.30348 0.0
C727 C 1.00233 0.70746 0.27033 0.0
H728 H 0.30716 0.0362 0.57902 0.0
H729 H 0.38561 1.00653 0.58406 0.0
H730 H 0.30511 0.02944 0.5211 0.0
H731 H 0.38286 0.99887 0.5265 0.0
H732 H 0.39365 0.02315 0.41963 0.0
H733 H 0.39671 0.03015 0.47723 0.0
H734 H 0.28542 0.98351 0.4816 0.0
H735 H 0.2824 0.97738 0.42358 0.0
C736 C 0.32418 0.02854 0.56778 0.0
C737 C 0.34658 0.02198 0.58619 0.0
C738 C 0.32269 0.02424 0.53462 0.0
C739 C 0.34356 1.01325 0.51917 0.0
C740 C 0.36663 1.00763 0.53755 0.0
C741 C 0.36819 1.01203 0.57062 0.0
C742 C 0.36973 1.01397 0.43284 0.0
C743 C 0.33776 0.99976 0.41693 0.0
C744 C 0.37151 0.01797 0.46595 0.0
C745 C 0.34135 1.00768 0.48405 0.0
C746 C 0.30922 0.99234 0.46828 0.0
C747 C 0.30744 0.98842 0.43507 0.0
H748 H 0.32133 0.27747 0.59156 0.0
H749 H 0.37669 0.38933 0.58741 0.0
H750 H 0.31801 0.28007 0.64961 0.0
H751 H 0.3727 0.39185 0.64515 0.0
H752 H 0.39016 0.38179 0.75167 0.0
H753 H 0.39421 0.3803 0.69384 0.0
H754 H 0.28846 0.29603 0.68976 0.0
H755 H 0.28458 0.297 0.74785 0.0
C756 C 0.333 0.30259 0.60301 0.0
C757 C 0.34929 0.33317 0.58483 0.0
C758 C 0.33076 0.30408 0.63624 0.0
C759 C 0.34482 0.33617 0.65198 0.0
C760 C 0.36184 0.36672 0.63383 0.0
C761 C 0.36408 0.36524 0.60067 0.0
C762 C 0.3676 0.36319 0.73846 0.0
C763 C 0.33704 0.33948 0.75442 0.0
C764 C 0.36993 0.36237 0.70526 0.0
C765 C 0.34177 0.33785 0.68719 0.0
C766 C 0.31084 0.31483 0.70305 0.0
C767 C 0.30848 0.31566 0.73631 0.0
H768 H 0.27006 0.33571 0.87568 0.0
H769 H 0.31026 0.33485 0.96927 0.0
H770 H 0.22412 0.34284 0.90047 0.0
H771 H 0.26488 0.34242 0.99373 0.0
H772 H 0.2041 0.39877 0.01964 0.0
H773 H 0.24924 0.39139 0.99367 0.0
H774 H 0.17127 0.30603 0.93888 0.0
H775 H 0.12604 0.3125 0.96585 0.0
C776 C 0.26911 0.33703 0.90146 0.0
C777 C 0.29375 0.33456 0.92048 0.0
C778 C 0.24279 0.341 0.91562 0.0
C779 C 0.24108 0.34331 0.949 0.0
C780 C 0.26575 0.34098 0.96795 0.0
C781 C 0.29158 0.33638 0.95389 0.0
C782 C 0.19662 0.37817 0.00236 0.0
C783 C 0.16159 0.35603 0.99496 0.0
C784 C 0.22241 0.37406 0.9874 0.0
C785 C 0.21371 0.34815 0.96426 0.0
C786 C 0.17871 0.32641 0.95641 0.0
C787 C 0.15289 0.33012 0.97182 0.0
H788 H 0.99414 0.29174 0.13278 0.0
H789 H 0.94302 0.27123 0.04119 0.0
H790 H 0.9415 0.24668 0.15695 0.0
H791 H 0.89012 0.22479 0.06544 0.0
H792 H 0.79144 0.16993 0.12768 0.0
H793 H 0.84401 0.21464 0.10142 0.0
H794 H 0.90548 0.18621 0.16025 0.0
H795 H 0.85295 0.14244 0.18687 0.0
C796 C 0.97175 0.27734 0.11761 0.0
C797 C 0.97296 0.28524 0.08492 0.0
C798 C 0.94146 0.2512 0.13154 0.0
C799 C 0.91143 0.23183 0.11323 0.0
C800 C 0.91261 0.23944 0.08041 0.0
C801 C 0.94302 0.26591 0.06643 0.0
C802 C 0.81631 0.17342 0.13485 0.0
C803 C 0.81833 0.15292 0.15923 0.0
C804 C 0.8464 0.19881 0.11971 0.0
C805 C 0.87914 0.20415 0.12862 0.0
C806 C 0.88088 0.18335 0.15305 0.0
C807 C 0.85084 0.15819 0.1683 0.0
H808 H 0.64029 0.81054 0.347 0.0
H809 H 0.71647 0.8103 0.2835 0.0
H810 H 0.64811 0.86326 0.32148 0.0
H811 H 0.72335 0.86244 0.25713 0.0
H812 H 0.69523 0.93753 0.20151 0.0
H813 H 0.68724 0.88324 0.22412 0.0
H814 H 0.69951 0.92554 0.319 0.0
H815 H 0.70786 0.9796 0.29675 0.0
C816 C 0.65866 0.82174 0.32755 0.0
C817 C 0.67801 0.8065 0.31747 0.0
C818 C 0.66305 0.85182 0.31289 0.0
C819 C 0.68648 0.86703 0.28744 0.0
C820 C 0.70495 0.85112 0.27655 0.0
C821 C 0.70093 0.82126 0.29158 0.0
C822 C 0.6964 0.93528 0.22718 0.0
C823 C 0.70213 0.96293 0.24729 0.0
C824 C 0.69192 0.90426 0.24007 0.0
C825 C 0.69247 0.90013 0.27331 0.0
C826 C 0.69853 0.92785 0.29332 0.0
C827 C 0.70353 0.95892 0.28049 0.0
H828 H 0.74987 0.71693 0.46293 0.0
H829 H 0.76403 0.67809 0.37294 0.0
H830 H 0.79646 0.71092 0.48613 0.0
H831 H 0.81147 0.67299 0.39603 0.0
H832 H 0.86598 0.63018 0.45984 0.0
H833 H 0.82137 0.63833 0.43402 0.0
H834 H 0.85768 0.7344 0.48554 0.0
H835 H 0.9016 0.72552 0.51169 0.0
C836 C 0.76315 0.70745 0.44793 0.0
C837 C 0.75303 0.6979 0.41603 0.0
C838 C 0.79009 0.70419 0.46124 0.0
C839 C 0.80782 0.69145 0.44301 0.0
C840 C 0.79808 0.68241 0.41094 0.0
C841 C 0.77101 0.68557 0.39761 0.0
C842 C 0.86441 0.65309 0.46534 0.0
C843 C 0.88702 0.67723 0.48766 0.0
C844 C 0.83902 0.6579 0.45051 0.0
C845 C 0.83581 0.68702 0.4577 0.0
C846 C 0.85897 0.7114 0.47978 0.0
C847 C 0.88423 0.70648 0.49465 0.0
H848 H 0.22149 0.91183 0.62123 0.0
H849 H 0.22061 0.83601 0.68584 0.0
H850 H 0.16898 0.86652 0.59555 0.0
H851 H 0.16747 0.79101 0.661 0.0
H852 H 0.05157 0.73267 0.63391 0.0
H853 H 0.10498 0.77864 0.65721 0.0
H854 H 0.1491 0.81045 0.56303 0.0
H855 H 0.0957 0.76414 0.5395 0.0
C856 C 0.21027 0.88545 0.62975 0.0
C857 C 0.22507 0.87749 0.65565 0.0
C858 C 0.18015 0.85957 0.61514 0.0
C859 C 0.164 0.8253 0.62644 0.0
C860 C 0.17906 0.8173 0.65209 0.0
C861 C 0.20941 0.84305 0.66635 0.0
C862 C 0.07255 0.7495 0.61809 0.0
C863 C 0.06935 0.74461 0.58481 0.0
C864 C 0.10322 0.77571 0.63149 0.0
C865 C 0.13125 0.79799 0.61195 0.0
C866 C 0.12785 0.79371 0.57865 0.0
C867 C 0.09732 0.76712 0.56522 0.0
H868 H 0.39933 0.21396 0.85262 0.0
H869 H 0.32421 0.21465 0.78825 0.0
H870 H 0.39179 0.16132 0.82716 0.0
H871 H 0.31772 0.16271 0.76191 0.0
H872 H 0.3476 0.08964 0.70559 0.0
H873 H 0.35482 0.14323 0.72911 0.0
H874 H 0.34115 0.09882 0.82324 0.0
H875 H 0.33356 0.0454 0.80004 0.0
C876 C 0.38116 0.20283 0.83308 0.0
C877 C 0.36217 0.2183 0.82262 0.0
C878 C 0.37697 0.17281 0.81842 0.0
C879 C 0.35409 0.15788 0.79262 0.0
C880 C 0.33574 0.17383 0.78157 0.0
C881 C 0.33955 0.2036 0.79659 0.0
C882 C 0.34599 0.09128 0.73128 0.0
C883 C 0.34003 0.0632 0.7509 0.0
C884 C 0.35001 0.12189 0.74471 0.0
C885 C 0.34877 0.12522 0.778 0.0
C886 C 0.34262 0.09712 0.79753 0.0
C887 C 0.33806 0.06642 0.78416 0.0
H888 H 0.69585 0.76308 0.96451 0.0
H889 H 0.70878 0.73251 0.86984 0.0
H890 H 0.68821 0.80925 0.94119 0.0
H891 H 0.70075 0.77815 0.84683 0.0
H892 H 0.64186 0.83468 0.81845 0.0
H893 H 0.64973 0.78974 0.84379 0.0
H894 H 0.72503 0.86578 0.90793 0.0
H895 H 0.71821 0.91108 0.88168 0.0
C896 C 0.69711 0.76621 0.9388 0.0
C897 C 0.7029 0.74406 0.91907 0.0
C898 C 0.69285 0.79268 0.9255 0.0
C899 C 0.69366 0.7971 0.89221 0.0
C900 C 0.69962 0.7751 0.87254 0.0
C901 C 0.70444 0.74909 0.8858 0.0
C902 C 0.66034 0.84187 0.83774 0.0
C903 C 0.67962 0.87646 0.84789 0.0
C904 C 0.66473 0.81614 0.85232 0.0
C905 C 0.68808 0.82432 0.87774 0.0
C906 C 0.70666 0.85872 0.88854 0.0
C907 C 0.70266 0.88459 0.8736 0.0
H908 H 0.82265 0.6369 0.98519 0.0
H909 H 0.8212 0.71137 0.05007 0.0
H910 H 0.87504 0.64425 0.0109 0.0
H911 H 0.87301 0.71781 0.07658 0.0
H912 H 0.94632 0.68856 0.13276 0.0
H913 H 0.89283 0.68136 0.10921 0.0
H914 H 0.93721 0.69437 0.01507 0.0
H915 H 0.99051 0.70186 0.0383 0.0
C916 C 0.83356 0.65487 0.00493 0.0
C917 C 0.818 0.67378 0.01543 0.0
C918 C 0.86346 0.65898 0.01971 0.0
C919 C 0.87818 0.68171 0.04566 0.0
C920 C 0.86207 0.69992 0.05679 0.0
C921 C 0.83239 0.69615 0.04168 0.0
C922 C 0.9447 0.69002 0.10706 0.0
C923 C 0.97272 0.69572 0.08745 0.0
C924 C 0.91413 0.68601 0.09362 0.0
C925 C 0.9108 0.68706 0.06031 0.0
C926 C 0.93888 0.69302 0.04079 0.0
C927 C 0.96951 0.69752 0.05418 0.0
H928 H 0.14656 0.84704 0.15226 0.0
H929 H 0.17884 0.78712 0.2082 0.0
H930 H 0.19039 0.90007 0.17826 0.0
H931 H 0.22337 0.84007 0.23385 0.0
H932 H 0.27823 0.93702 0.29521 0.0
H933 H 0.23184 0.88462 0.27087 0.0
H934 H 0.25138 0.9379 0.18042 0.0
H935 H 0.29689 0.99041 0.20487 0.0
C936 C 0.1633 0.84539 0.17004 0.0
C937 C 0.15942 0.81319 0.17838 0.0
C938 C 0.18848 0.8757 0.18487 0.0
C939 C 0.21051 0.87446 0.20824 0.0
C940 C 0.20654 0.84203 0.21642 0.0
C941 C 0.18122 0.81172 0.20165 0.0
C942 C 0.27247 0.93763 0.27018 0.0
C943 C 0.2914 0.96801 0.25205 0.0
C944 C 0.246 0.90747 0.25614 0.0
C945 C 0.23787 0.90687 0.22358 0.0
C946 C 0.25651 0.93743 0.20562 0.0
C947 C 0.28282 0.96759 0.21966 0.0
H948 H 0.35664 0.2705 0.46625 0.0
H949 H 0.32034 0.28532 0.37521 0.0
H950 H 0.36252 0.22326 0.4434 0.0
H951 H 0.32716 0.23915 0.35235 0.0
H952 H 0.3134 0.13494 0.32592 0.0
H953 H 0.30361 0.17812 0.35241 0.0
H954 H 0.39809 0.21344 0.40616 0.0
H955 H 0.40712 0.16945 0.38 0.0
C956 C 0.34987 0.2637 0.44143 0.0
C957 C 0.33802 0.2818 0.42263 0.0
C958 C 0.35347 0.23676 0.42825 0.0
C959 C 0.34534 0.22732 0.39598 0.0
C960 C 0.33314 0.24522 0.37739 0.0
C961 C 0.32944 0.27197 0.39052 0.0
C962 C 0.33191 0.15193 0.34351 0.0
C963 C 0.36099 0.14907 0.35098 0.0
C964 C 0.32646 0.17677 0.3586 0.0
C965 C 0.35015 0.19949 0.38136 0.0
C966 C 0.37906 0.19615 0.3891 0.0
C967 C 0.38439 0.17114 0.37406 0.0
H968 H 0.04882 0.32427 0.53616 0.0
H969 H 0.09849 0.34871 0.62857 0.0
H970 H 0.10139 0.33164 0.51175 0.0
H971 H 0.15112 0.355 0.60409 0.0
H972 H 0.25077 0.39936 0.54366 0.0
H973 H 0.19827 0.39208 0.5695 0.0
H974 H 0.13613 0.30557 0.50716 0.0
H975 H 0.18867 0.31368 0.48107 0.0
C976 C 0.07087 0.33091 0.55141 0.0
C977 C 0.06931 0.3359 0.58442 0.0
C978 C 0.10108 0.33493 0.53735 0.0
C979 C 0.13062 0.34381 0.55588 0.0
C980 C 0.12905 0.3486 0.58897 0.0
C981 C 0.09878 0.34475 0.60307 0.0
C982 C 0.22579 0.37881 0.53565 0.0
C983 C 0.22362 0.35704 0.51048 0.0
C984 C 0.19572 0.37446 0.55052 0.0
C985 C 0.16282 0.34818 0.54052 0.0
C986 C 0.16088 0.32644 0.51523 0.0
C987 C 0.19093 0.33095 0.5003 0.0
H988 H 0.88468 0.17935 0.63922 0.0
H989 H 0.87067 0.24154 0.70992 0.0
H990 H 0.84096 0.12676 0.66579 0.0
H991 H 0.82599 0.18914 0.73613 0.0
H992 H 0.76963 0.08844 0.79284 0.0
H993 H 0.81561 0.14071 0.76757 0.0
H994 H 0.78123 0.0932 0.67483 0.0
H995 H 0.73648 0.04095 0.70004 0.0
C996 C 0.87184 0.18166 0.66028 0.0
C997 C 0.88093 0.21436 0.67255 0.0
C998 C 0.84671 0.15157 0.67553 0.0
C999 C 0.82974 0.15351 0.70322 0.0
C1000 C 0.83884 0.18647 0.71527 0.0
C1001 C 0.86424 0.21653 0.70017 0.0
C1002 C 0.77208 0.08915 0.76707 0.0
C1003 C 0.74946 0.06034 0.74854 0.0
C1004 C 0.79831 0.11923 0.75252 0.0
C1005 C 0.80232 0.12134 0.71905 0.0
C1006 C 0.77958 0.09245 0.70064 0.0
C1007 C 0.75369 0.06238 0.71517 0.0
loop_
_geom_bond_atom_site_label_1
_geom_bond_atom_site_label_2
_geom_bond_distance
_geom_bond_site_symmetry_2
_ccdc_geom_bond_type
Co0 O3 1.970 . S
Co0 N17 1.989 . S
Co0 O25 1.967 . S
Co0 O32 1.920 1_554 S
Co1 O4 1.966 . S
Co1 N10 2.022 . S
Co1 N18 1.993 . S
Co1 O26 1.941 . S
C2 O3 1.258 . S
C2 O4 1.263 . S
O3 Co0 1.970 . S
O3 C2 1.258 . S
O4 Co1 1.966 . S
O4 C2 1.263 . S
C5 O6 1.235 . S
C5 O32 1.289 . S
O6 C5 1.235 . S
C7 C9 1.400 . S
C7 N10 1.351 . S
C7 C12 1.501 . S
C8 C9 1.387 . S
C8 N11 1.341 . S
C9 C7 1.400 . S
C9 C8 1.387 . S
N10 Co1 2.022 . S
N10 C7 1.351 . S
N10 N11 1.365 . S
N11 C8 1.341 . S
N11 N10 1.365 . S
N11 H31 0.862 . S
C12 C7 1.501 . S
C12 H13 0.961 . S
C12 H14 0.961 . S
C12 H15 0.960 . S
H13 C12 0.961 . S
H14 C12 0.961 . S
H15 C12 0.960 . S
C16 N17 1.342 1_556 S
C16 C20 1.401 1_556 S
C16 C21 1.499 . S
N17 Co0 1.989 . S
N17 C16 1.342 1_554 S
N17 N18 1.388 . S
N18 Co1 1.993 . S
N18 N17 1.388 . S
N18 C19 1.346 . S
C19 N18 1.346 . S
C19 C20 1.396 . S
C19 C29 1.510 . S
C20 C16 1.401 1_554 S
C20 C19 1.396 . S
C21 C16 1.499 . S
C21 H22 0.959 . S
C21 H23 0.960 . S
C21 H24 0.961 . S
H22 C21 0.959 . S
H23 C21 0.960 . S
H24 C21 0.961 . S
O25 Co0 1.967 . S
O25 C33 1.258 . S
O26 Co1 1.941 . S
O26 C33 1.266 . S
H27 C29 0.959 . S
H28 C29 0.961 . S
C29 C19 1.510 . S
C29 H27 0.959 . S
C29 H28 0.961 . S
C29 H30 0.960 . S
H30 C29 0.960 . S
H31 N11 0.862 . S
O32 Co0 1.920 1_556 S
O32 C5 1.289 . S
C33 O25 1.258 . S
C33 O26 1.266 . S
Co34 O37 1.970 . S
Co34 N51 1.989 . S
Co34 O59 1.967 . S
Co34 O66 1.920 . S
Co35 O38 1.966 . S
Co35 N44 2.022 . S
Co35 N52 1.993 . S
Co35 O60 1.941 . S
C36 O37 1.258 . S
C36 O38 1.263 . S
O37 Co34 1.970 . S
O37 C36 1.258 . S
O38 Co35 1.966 . S
O38 C36 1.263 . S
C39 O40 1.235 . S
C39 O66 1.289 . S
O40 C39 1.235 . S
C41 C43 1.400 . S
C41 N44 1.351 . S
C41 C46 1.501 . S
C42 C43 1.387 . S
C42 N45 1.341 . S
C43 C41 1.400 . S
C43 C42 1.387 . S
N44 Co35 2.022 . S
N44 C41 1.351 . S
N44 N45 1.365 . S
N45 C42 1.341 . S
N45 N44 1.365 . S
N45 H65 0.862 . S
C46 C41 1.501 . S
C46 H47 0.961 . S
C46 H48 0.961 . S
C46 H49 0.960 . S
H47 C46 0.961 . S
H48 C46 0.961 . S
H49 C46 0.960 . S
C50 N51 1.342 . S
C50 C54 1.401 . S
C50 C55 1.499 . S
N51 Co34 1.989 . S
N51 C50 1.342 . S
N51 N52 1.388 . S
N52 Co35 1.993 . S
N52 N51 1.388 . S
N52 C53 1.346 . S
C53 N52 1.346 . S
C53 C54 1.396 . S
C53 C63 1.510 . S
C54 C50 1.401 . S
C54 C53 1.396 . S
C55 C50 1.499 . S
C55 H56 0.959 . S
C55 H57 0.960 . S
C55 H58 0.961 . S
H56 C55 0.959 . S
H57 C55 0.960 . S
H58 C55 0.961 . S
O59 Co34 1.967 . S
O59 C67 1.258 . S
O60 Co35 1.941 . S
O60 C67 1.266 . S
H61 C63 0.959 . S
H62 C63 0.961 . S
C63 C53 1.510 . S
C63 H61 0.959 . S
C63 H62 0.961 . S
C63 H64 0.960 . S
H64 C63 0.960 . S
H65 N45 0.862 . S
O66 Co34 1.920 . S
O66 C39 1.289 . S
C67 O59 1.258 . S
C67 O60 1.266 . S
Co68 O71 1.970 . S
Co68 N85 1.989 . S
Co68 O93 1.967 . S
Co68 O100 1.920 . S
Co69 O72 1.966 . S
Co69 N78 2.022 . S
Co69 N86 1.993 . S
Co69 O94 1.941 . S
C70 O71 1.258 . S
C70 O72 1.263 . S
O71 Co68 1.970 . S
O71 C70 1.258 . S
O72 Co69 1.966 . S
O72 C70 1.263 . S
C73 O74 1.235 . S
C73 O100 1.289 . S
O74 C73 1.235 . S
C75 C77 1.400 . S
C75 N78 1.351 . S
C75 C80 1.501 . S
C76 C77 1.387 . S
C76 N79 1.341 . S
C77 C75 1.400 . S
C77 C76 1.387 . S
N78 Co69 2.022 . S
N78 C75 1.351 . S
N78 N79 1.365 . S
N79 C76 1.341 . S
N79 N78 1.365 . S
N79 H99 0.862 . S
C80 C75 1.501 . S
C80 H81 0.961 . S
C80 H82 0.961 . S
C80 H83 0.960 . S
H81 C80 0.961 . S
H82 C80 0.961 . S
H83 C80 0.960 . S
C84 N85 1.342 . S
C84 C88 1.401 . S
C84 C89 1.499 . S
N85 Co68 1.989 . S
N85 C84 1.342 . S
N85 N86 1.388 . S
N86 Co69 1.993 . S
N86 N85 1.388 . S
N86 C87 1.346 . S
C87 N86 1.346 . S
C87 C88 1.396 . S
C87 C97 1.510 . S
C88 C84 1.401 . S
C88 C87 1.396 . S
C89 C84 1.499 . S
C89 H90 0.959 . S
C89 H91 0.960 . S
C89 H92 0.961 . S
H90 C89 0.959 . S
H91 C89 0.960 . S
H92 C89 0.961 . S
O93 Co68 1.967 . S
O93 C101 1.258 . S
O94 Co69 1.941 . S
O94 C101 1.266 . S
H95 C97 0.959 . S
H96 C97 0.961 . S
C97 C87 1.510 . S
C97 H95 0.959 . S
C97 H96 0.961 . S
C97 H98 0.960 . S
H98 C97 0.960 . S
H99 N79 0.862 . S
O100 Co68 1.920 . S
O100 C73 1.289 . S
C101 O93 1.258 . S
C101 O94 1.266 . S
Co102 O105 1.970 . S
Co102 N119 1.989 . S
Co102 O127 1.967 . S
Co102 O134 1.920 . S
Co103 O106 1.966 . S
Co103 N112 2.022 . S
Co103 N120 1.993 . S
Co103 O128 1.941 . S
C104 O105 1.258 . S
C104 O106 1.263 . S
O105 Co102 1.970 . S
O105 C104 1.258 . S
O106 Co103 1.966 . S
O106 C104 1.263 . S
C107 O108 1.235 . S
C107 O134 1.289 . S
O108 C107 1.235 . S
C109 C111 1.400 . S
C109 N112 1.351 . S
C109 C114 1.501 . S
C110 C111 1.387 . S
C110 N113 1.341 . S
C111 C109 1.400 . S
C111 C110 1.387 . S
N112 Co103 2.022 . S
N112 C109 1.351 . S
N112 N113 1.365 . S
N113 C110 1.341 . S
N113 N112 1.365 . S
N113 H133 0.862 . S
C114 C109 1.501 . S
C114 H115 0.961 . S
C114 H116 0.961 . S
C114 H117 0.960 . S
H115 C114 0.961 . S
H116 C114 0.961 . S
H117 C114 0.960 . S
C118 N119 1.342 . S
C118 C122 1.401 . S
C118 C123 1.499 . S
N119 Co102 1.989 . S
N119 C118 1.342 . S
N119 N120 1.388 . S
N120 Co103 1.993 . S
N120 N119 1.388 . S
N120 C121 1.346 . S
C121 N120 1.346 . S
C121 C122 1.396 . S
C121 C131 1.510 . S
C122 C118 1.401 . S
C122 C121 1.396 . S
C123 C118 1.499 . S
C123 H124 0.959 . S
C123 H125 0.960 . S
C123 H126 0.961 . S
H124 C123 0.959 . S
H125 C123 0.960 . S
H126 C123 0.961 . S
O127 Co102 1.967 . S
O127 C135 1.258 . S
O128 Co103 1.941 . S
O128 C135 1.266 . S
H129 C131 0.959 . S
H130 C131 0.961 . S
C131 C121 1.510 . S
C131 H129 0.959 . S
C131 H130 0.961 . S
C131 H132 0.960 . S
H132 C131 0.960 . S
H133 N113 0.862 . S
O134 Co102 1.920 . S
O134 C107 1.289 . S
C135 O127 1.258 . S
C135 O128 1.266 . S
Co136 O139 1.970 . S
Co136 N153 1.989 . S
Co136 O161 1.967 . S
Co136 O168 1.920 . S
Co137 O140 1.966 . S
Co137 N146 2.022 . S
Co137 N154 1.993 . S
Co137 O162 1.941 . S
C138 O139 1.258 . S
C138 O140 1.263 . S
O139 Co136 1.970 . S
O139 C138 1.258 . S
O140 Co137 1.966 . S
O140 C138 1.263 . S
C141 O142 1.235 . S
C141 O168 1.289 . S
O142 C141 1.235 . S
C143 C145 1.400 . S
C143 N146 1.351 . S
C143 C148 1.501 . S
C144 C145 1.387 . S
C144 N147 1.341 . S
C145 C143 1.400 . S
C145 C144 1.387 . S
N146 Co137 2.022 . S
N146 C143 1.351 . S
N146 N147 1.365 . S
N147 C144 1.341 . S
N147 N146 1.365 . S
N147 H167 0.862 . S
C148 C143 1.501 . S
C148 H149 0.961 . S
C148 H150 0.961 . S
C148 H151 0.960 . S
H149 C148 0.961 . S
H150 C148 0.961 . S
H151 C148 0.960 . S
C152 N153 1.342 . S
C152 C156 1.401 . S
C152 C157 1.499 . S
N153 Co136 1.989 . S
N153 C152 1.342 . S
N153 N154 1.388 . S
N154 Co137 1.993 . S
N154 N153 1.388 . S
N154 C155 1.346 . S
C155 N154 1.346 . S
C155 C156 1.396 . S
C155 C165 1.510 . S
C156 C152 1.401 . S
C156 C155 1.396 . S
C157 C152 1.499 . S
C157 H158 0.959 . S
C157 H159 0.960 . S
C157 H160 0.961 . S
H158 C157 0.959 . S
H159 C157 0.960 . S
H160 C157 0.961 . S
O161 Co136 1.967 . S
O161 C169 1.258 . S
O162 Co137 1.941 . S
O162 C169 1.266 . S
H163 C165 0.959 . S
H164 C165 0.961 . S
C165 C155 1.510 . S
C165 H163 0.959 . S
C165 H164 0.961 . S
C165 H166 0.960 . S
H166 C165 0.960 . S
H167 N147 0.862 . S
O168 Co136 1.920 . S
O168 C141 1.289 . S
C169 O161 1.258 . S
C169 O162 1.266 . S
Co170 O173 1.970 . S
Co170 N187 1.989 . S
Co170 O195 1.967 . S
Co170 O202 1.920 . S
Co171 O174 1.966 . S
Co171 N180 2.022 . S
Co171 N188 1.993 . S
Co171 O196 1.941 . S
C172 O173 1.258 . S
C172 O174 1.263 . S
O173 Co170 1.970 . S
O173 C172 1.258 . S
O174 Co171 1.966 . S
O174 C172 1.263 . S
C175 O176 1.235 . S
C175 O202 1.289 . S
O176 C175 1.235 . S
C177 C179 1.400 . S
C177 N180 1.351 . S
C177 C182 1.501 . S
C178 C179 1.387 . S
C178 N181 1.341 . S
C179 C177 1.400 . S
C179 C178 1.387 . S
N180 Co171 2.022 . S
N180 C177 1.351 . S
N180 N181 1.365 . S
N181 C178 1.341 . S
N181 N180 1.365 . S
N181 H201 0.862 . S
C182 C177 1.501 . S
C182 H183 0.961 . S
C182 H184 0.961 . S
C182 H185 0.960 . S
H183 C182 0.961 . S
H184 C182 0.961 . S
H185 C182 0.960 . S
C186 N187 1.342 . S
C186 C190 1.401 . S
C186 C191 1.499 . S
N187 Co170 1.989 . S
N187 C186 1.342 . S
N187 N188 1.388 . S
N188 Co171 1.993 . S
N188 N187 1.388 . S
N188 C189 1.346 . S
C189 N188 1.346 . S
C189 C190 1.396 . S
C189 C199 1.510 . S
C190 C186 1.401 . S
C190 C189 1.396 . S
C191 C186 1.499 . S
C191 H192 0.959 . S
C191 H193 0.960 . S
C191 H194 0.961 . S
H192 C191 0.959 . S
H193 C191 0.960 . S
H194 C191 0.961 . S
O195 Co170 1.967 . S
O195 C203 1.258 . S
O196 Co171 1.941 . S
O196 C203 1.266 . S
H197 C199 0.959 . S
H198 C199 0.961 . S
C199 C189 1.510 . S
C199 H197 0.959 . S
C199 H198 0.961 . S
C199 H200 0.960 . S
H200 C199 0.960 . S
H201 N181 0.862 . S
O202 Co170 1.920 . S
O202 C175 1.289 . S
C203 O195 1.258 . S
C203 O196 1.266 . S
Co204 O207 1.970 . S
Co204 N221 1.989 . S
Co204 O229 1.967 . S
Co204 O236 1.920 . S
Co205 O208 1.966 . S
Co205 N214 2.022 . S
Co205 N222 1.993 . S
Co205 O230 1.941 . S
C206 O207 1.258 . S
C206 O208 1.263 . S
O207 Co204 1.970 . S
O207 C206 1.258 . S
O208 Co205 1.966 . S
O208 C206 1.263 . S
C209 O210 1.235 . S
C209 O236 1.289 . S
O210 C209 1.235 . S
C211 C213 1.400 . S
C211 N214 1.351 . S
C211 C216 1.501 . S
C212 C213 1.387 . S
C212 N215 1.341 . S
C213 C211 1.400 . S
C213 C212 1.387 . S
N214 Co205 2.022 . S
N214 C211 1.351 . S
N214 N215 1.365 . S
N215 C212 1.341 . S
N215 N214 1.365 . S
N215 H235 0.862 . S
C216 C211 1.501 . S
C216 H217 0.961 . S
C216 H218 0.961 . S
C216 H219 0.960 . S
H217 C216 0.961 . S
H218 C216 0.961 . S
H219 C216 0.960 . S
C220 N221 1.342 . S
C220 C224 1.401 . S
C220 C225 1.499 . S
N221 Co204 1.989 . S
N221 C220 1.342 . S
N221 N222 1.388 . S
N222 Co205 1.993 . S
N222 N221 1.388 . S
N222 C223 1.346 . S
C223 N222 1.346 . S
C223 C224 1.396 . S
C223 C233 1.510 . S
C224 C220 1.401 . S
C224 C223 1.396 . S
C225 C220 1.499 . S
C225 H226 0.959 . S
C225 H227 0.960 . S
C225 H228 0.961 . S
H226 C225 0.959 . S
H227 C225 0.960 . S
H228 C225 0.961 . S
O229 Co204 1.967 . S
O229 C237 1.258 . S
O230 Co205 1.941 . S
O230 C237 1.266 . S
H231 C233 0.959 . S
H232 C233 0.961 . S
C233 C223 1.510 . S
C233 H231 0.959 . S
C233 H232 0.961 . S
C233 H234 0.960 . S
H234 C233 0.960 . S
H235 N215 0.862 . S
O236 Co204 1.920 . S
O236 C209 1.289 . S
C237 O229 1.258 . S
C237 O230 1.266 . S
Co238 O241 1.970 . S
Co238 N255 1.989 . S
Co238 O263 1.967 . S
Co238 O270 1.920 1_556 S
Co239 O242 1.966 . S
Co239 N248 2.022 . S
Co239 N256 1.993 . S
Co239 O264 1.941 . S
C240 O241 1.258 . S
C240 O242 1.263 . S
O241 Co238 1.970 . S
O241 C240 1.258 . S
O242 Co239 1.966 . S
O242 C240 1.263 . S
C243 O244 1.235 . S
C243 O270 1.289 . S
O244 C243 1.235 . S
C245 C247 1.400 . S
C245 N248 1.351 . S
C245 C250 1.501 . S
C246 C247 1.387 . S
C246 N249 1.341 . S
C247 C245 1.400 . S
C247 C246 1.387 . S
N248 Co239 2.022 . S
N248 C245 1.351 . S
N248 N249 1.365 . S
N249 C246 1.341 . S
N249 N248 1.365 . S
N249 H269 0.862 . S
C250 C245 1.501 . S
C250 H251 0.961 . S
C250 H252 0.961 . S
C250 H253 0.960 . S
H251 C250 0.961 . S
H252 C250 0.961 . S
H253 C250 0.960 . S
C254 N255 1.342 1_554 S
C254 C258 1.401 1_554 S
C254 C259 1.499 . S
N255 Co238 1.989 . S
N255 C254 1.342 1_556 S
N255 N256 1.388 . S
N256 Co239 1.993 . S
N256 N255 1.388 . S
N256 C257 1.346 . S
C257 N256 1.346 . S
C257 C258 1.396 . S
C257 C267 1.510 . S
C258 C254 1.401 1_556 S
C258 C257 1.396 . S
C259 C254 1.499 . S
C259 H260 0.959 . S
C259 H261 0.960 . S
C259 H262 0.961 . S
H260 C259 0.959 . S
H261 C259 0.960 . S
H262 C259 0.961 . S
O263 Co238 1.967 . S
O263 C271 1.258 . S
O264 Co239 1.941 . S
O264 C271 1.266 . S
H265 C267 0.959 . S
H266 C267 0.961 . S
C267 C257 1.510 . S
C267 H265 0.959 . S
C267 H266 0.961 . S
C267 H268 0.960 . S
H268 C267 0.960 . S
H269 N249 0.862 . S
O270 Co238 1.920 1_554 S
O270 C243 1.289 . S
C271 O263 1.258 . S
C271 O264 1.266 . S
Co272 O275 1.970 . S
Co272 N289 1.989 . S
Co272 O297 1.967 . S
Co272 O304 1.920 . S
Co273 O276 1.966 . S
Co273 N282 2.022 . S
Co273 N290 1.993 . S
Co273 O298 1.941 . S
C274 O275 1.258 . S
C274 O276 1.263 . S
O275 Co272 1.970 . S
O275 C274 1.258 . S
O276 Co273 1.966 . S
O276 C274 1.263 . S
C277 O278 1.235 . S
C277 O304 1.289 . S
O278 C277 1.235 . S
C279 C281 1.400 . S
C279 N282 1.351 . S
C279 C284 1.501 . S
C280 C281 1.387 . S
C280 N283 1.341 . S
C281 C279 1.400 . S
C281 C280 1.387 . S
N282 Co273 2.022 . S
N282 C279 1.351 . S
N282 N283 1.365 . S
N283 C280 1.341 . S
N283 N282 1.365 . S
N283 H303 0.862 . S
C284 C279 1.501 . S
C284 H285 0.961 . S
C284 H286 0.961 . S
C284 H287 0.960 . S
H285 C284 0.961 . S
H286 C284 0.961 . S
H287 C284 0.960 . S
C288 N289 1.342 . S
C288 C292 1.401 . S
C288 C293 1.499 . S
N289 Co272 1.989 . S
N289 C288 1.342 . S
N289 N290 1.388 . S
N290 Co273 1.993 . S
N290 N289 1.388 . S
N290 C291 1.346 . S
C291 N290 1.346 . S
C291 C292 1.396 . S
C291 C301 1.510 . S
C292 C288 1.401 . S
C292 C291 1.396 . S
C293 C288 1.499 . S
C293 H294 0.959 . S
C293 H295 0.960 . S
C293 H296 0.961 . S
H294 C293 0.959 . S
H295 C293 0.960 . S
H296 C293 0.961 . S
O297 Co272 1.967 . S
O297 C305 1.258 . S
O298 Co273 1.941 . S
O298 C305 1.266 . S
H299 C301 0.959 . S
H300 C301 0.961 . S
C301 C291 1.510 . S
C301 H299 0.959 . S
C301 H300 0.961 . S
C301 H302 0.960 . S
H302 C301 0.960 . S
H303 N283 0.862 . S
O304 Co272 1.920 . S
O304 C277 1.289 . S
C305 O297 1.258 . S
C305 O298 1.266 . S
Co306 O309 1.970 . S
Co306 N323 1.989 . S
Co306 O331 1.967 . S
Co306 O338 1.920 . S
Co307 O310 1.966 . S
Co307 N316 2.022 . S
Co307 N324 1.993 . S
Co307 O332 1.941 . S
C308 O309 1.258 . S
C308 O310 1.263 . S
O309 Co306 1.970 . S
O309 C308 1.258 . S
O310 Co307 1.966 . S
O310 C308 1.263 . S
C311 O312 1.235 . S
C311 O338 1.289 . S
O312 C311 1.235 . S
C313 C315 1.400 . S
C313 N316 1.351 . S
C313 C318 1.501 . S
C314 C315 1.387 . S
C314 N317 1.341 . S
C315 C313 1.400 . S
C315 C314 1.387 . S
N316 Co307 2.022 . S
N316 C313 1.351 . S
N316 N317 1.365 . S
N317 C314 1.341 . S
N317 N316 1.365 . S
N317 H337 0.862 . S
C318 C313 1.501 . S
C318 H319 0.961 . S
C318 H320 0.961 . S
C318 H321 0.960 . S
H319 C318 0.961 . S
H320 C318 0.961 . S
H321 C318 0.960 . S
C322 N323 1.342 . S
C322 C326 1.401 . S
C322 C327 1.499 . S
N323 Co306 1.989 . S
N323 C322 1.342 . S
N323 N324 1.388 . S
N324 Co307 1.993 . S
N324 N323 1.388 . S
N324 C325 1.346 . S
C325 N324 1.346 . S
C325 C326 1.396 . S
C325 C335 1.510 . S
C326 C322 1.401 . S
C326 C325 1.396 . S
C327 C322 1.499 . S
C327 H328 0.959 . S
C327 H329 0.960 . S
C327 H330 0.961 . S
H328 C327 0.959 . S
H329 C327 0.960 . S
H330 C327 0.961 . S
O331 Co306 1.967 . S
O331 C339 1.258 . S
O332 Co307 1.941 . S
O332 C339 1.266 . S
H333 C335 0.959 . S
H334 C335 0.961 . S
C335 C325 1.510 . S
C335 H333 0.959 . S
C335 H334 0.961 . S
C335 H336 0.960 . S
H336 C335 0.960 . S
H337 N317 0.862 . S
O338 Co306 1.920 . S
O338 C311 1.289 . S
C339 O331 1.258 . S
C339 O332 1.266 . S
Co340 O343 1.970 . S
Co340 N357 1.989 . S
Co340 O365 1.967 . S
Co340 O372 1.920 . S
Co341 O344 1.966 . S
Co341 N350 2.022 . S
Co341 N358 1.993 . S
Co341 O366 1.941 . S
C342 O343 1.258 . S
C342 O344 1.263 . S
O343 Co340 1.970 . S
O343 C342 1.258 . S
O344 Co341 1.966 . S
O344 C342 1.263 . S
C345 O346 1.235 . S
C345 O372 1.289 . S
O346 C345 1.235 . S
C347 C349 1.400 . S
C347 N350 1.351 . S
C347 C352 1.501 . S
C348 C349 1.387 . S
C348 N351 1.341 . S
C349 C347 1.400 . S
C349 C348 1.387 . S
N350 Co341 2.022 . S
N350 C347 1.351 . S
N350 N351 1.365 . S
N351 C348 1.341 . S
N351 N350 1.365 . S
N351 H371 0.862 . S
C352 C347 1.501 . S
C352 H353 0.961 . S
C352 H354 0.961 . S
C352 H355 0.960 . S
H353 C352 0.961 . S
H354 C352 0.961 . S
H355 C352 0.960 . S
C356 N357 1.342 . S
C356 C360 1.401 . S
C356 C361 1.499 . S
N357 Co340 1.989 . S
N357 C356 1.342 . S
N357 N358 1.388 . S
N358 Co341 1.993 . S
N358 N357 1.388 . S
N358 C359 1.346 . S
C359 N358 1.346 . S
C359 C360 1.396 . S
C359 C369 1.510 . S
C360 C356 1.401 . S
C360 C359 1.396 . S
C361 C356 1.499 . S
C361 H362 0.959 . S
C361 H363 0.960 . S
C361 H364 0.961 . S
H362 C361 0.959 . S
H363 C361 0.960 . S
H364 C361 0.961 . S
O365 Co340 1.967 . S
O365 C373 1.258 . S
O366 Co341 1.941 . S
O366 C373 1.266 . S
H367 C369 0.959 . S
H368 C369 0.961 . S
C369 C359 1.510 . S
C369 H367 0.959 . S
C369 H368 0.961 . S
C369 H370 0.960 . S
H370 C369 0.960 . S
H371 N351 0.862 . S
O372 Co340 1.920 . S
O372 C345 1.289 . S
C373 O365 1.258 . S
C373 O366 1.266 . S
Co374 O377 1.970 . S
Co374 N391 1.989 . S
Co374 O399 1.967 . S
Co374 O406 1.920 . S
Co375 O378 1.966 . S
Co375 N384 2.022 . S
Co375 N392 1.993 . S
Co375 O400 1.941 . S
C376 O377 1.258 . S
C376 O378 1.263 . S
O377 Co374 1.970 . S
O377 C376 1.258 . S
O378 Co375 1.966 . S
O378 C376 1.263 . S
C379 O380 1.235 . S
C379 O406 1.289 . S
O380 C379 1.235 . S
C381 C383 1.400 . S
C381 N384 1.351 . S
C381 C386 1.501 . S
C382 C383 1.387 . S
C382 N385 1.341 . S
C383 C381 1.400 . S
C383 C382 1.387 . S
N384 Co375 2.022 . S
N384 C381 1.351 . S
N384 N385 1.365 . S
N385 C382 1.341 . S
N385 N384 1.365 . S
N385 H405 0.862 . S
C386 C381 1.501 . S
C386 H387 0.961 . S
C386 H388 0.961 . S
C386 H389 0.960 . S
H387 C386 0.961 . S
H388 C386 0.961 . S
H389 C386 0.960 . S
C390 N391 1.342 . S
C390 C394 1.401 . S
C390 C395 1.499 . S
N391 Co374 1.989 . S
N391 C390 1.342 . S
N391 N392 1.388 . S
N392 Co375 1.993 . S
N392 N391 1.388 . S
N392 C393 1.346 . S
C393 N392 1.346 . S
C393 C394 1.396 . S
C393 C403 1.510 . S
C394 C390 1.401 . S
C394 C393 1.396 . S
C395 C390 1.499 . S
C395 H396 0.959 . S
C395 H397 0.960 . S
C395 H398 0.961 . S
H396 C395 0.959 . S
H397 C395 0.960 . S
H398 C395 0.961 . S
O399 Co374 1.967 . S
O399 C407 1.258 . S
O400 Co375 1.941 . S
O400 C407 1.266 . S
H401 C403 0.959 . S
H402 C403 0.961 . S
C403 C393 1.510 . S
C403 H401 0.959 . S
C403 H402 0.961 . S
C403 H404 0.960 . S
H404 C403 0.960 . S
H405 N385 0.862 . S
O406 Co374 1.920 . S
O406 C379 1.289 . S
C407 O399 1.258 . S
C407 O400 1.266 . S
H408 C416 0.950 . S
H409 C421 0.950 . S
H410 C418 0.950 . S
H411 C420 0.950 . S
H412 C422 0.950 . S
H413 C424 0.950 . S
H414 C426 0.950 . S
H415 C427 0.950 . S
C416 H408 0.950 . S
C416 C417 1.386 . S
C416 C418 1.391 . S
C417 C416 1.386 . S
C417 C421 1.393 . S
C418 H410 0.950 . S
C418 C416 1.391 . S
C418 C419 1.400 . S
C419 C418 1.400 . S
C419 C420 1.398 . S
C419 C425 1.491 . S
C420 H411 0.950 . S
C420 C419 1.398 . S
C420 C421 1.391 . S
C421 H409 0.950 . S
C421 C417 1.393 . S
C421 C420 1.391 . S
C422 H412 0.950 . S
C422 C423 1.386 . S
C422 C424 1.391 . S
C423 C422 1.386 . S
C423 C427 1.393 . S
C424 H413 0.950 . S
C424 C422 1.391 . S
C424 C425 1.400 . S
C425 C419 1.491 . S
C425 C424 1.400 . S
C425 C426 1.398 . S
C426 H414 0.950 . S
C426 C425 1.398 . S
C426 C427 1.391 . S
C427 H415 0.950 . S
C427 C423 1.393 . S
C427 C426 1.391 . S
H428 C436 0.950 . S
H429 C441 0.950 . S
H430 C438 0.950 . S
H431 C440 0.950 . S
H432 C442 0.950 . S
H433 C444 0.950 . S
H434 C446 0.950 . S
H435 C447 0.950 . S
C436 H428 0.950 . S
C436 C437 1.386 . S
C436 C438 1.391 . S
C437 C436 1.386 . S
C437 C441 1.393 . S
C438 H430 0.950 . S
C438 C436 1.391 . S
C438 C439 1.400 . S
C439 C438 1.400 . S
C439 C440 1.398 . S
C439 C445 1.491 . S
C440 H431 0.950 . S
C440 C439 1.398 . S
C440 C441 1.391 . S
C441 H429 0.950 . S
C441 C437 1.393 . S
C441 C440 1.391 . S
C442 H432 0.950 . S
C442 C443 1.386 . S
C442 C444 1.391 . S
C443 C442 1.386 . S
C443 C447 1.393 . S
C444 H433 0.950 . S
C444 C442 1.391 . S
C444 C445 1.400 . S
C445 C439 1.491 . S
C445 C444 1.400 . S
C445 C446 1.398 . S
C446 H434 0.950 . S
C446 C445 1.398 . S
C446 C447 1.391 . S
C447 H435 0.950 . S
C447 C443 1.393 . S
C447 C446 1.391 . S
H448 C456 0.950 . S
H449 C461 0.950 . S
H450 C458 0.950 . S
H451 C460 0.950 . S
H452 C462 0.950 . S
H453 C464 0.950 . S
H454 C466 0.950 . S
H455 C467 0.950 . S
C456 H448 0.950 . S
C456 C457 1.386 . S
C456 C458 1.391 . S
C457 C456 1.386 . S
C457 C461 1.393 . S
C458 H450 0.950 . S
C458 C456 1.391 . S
C458 C459 1.400 . S
C459 C458 1.400 . S
C459 C460 1.398 . S
C459 C465 1.491 . S
C460 H451 0.950 . S
C460 C459 1.398 . S
C460 C461 1.391 . S
C461 H449 0.950 . S
C461 C457 1.393 . S
C461 C460 1.391 . S
C462 H452 0.950 . S
C462 C463 1.386 . S
C462 C464 1.391 . S
C463 C462 1.386 . S
C463 C467 1.393 . S
C464 H453 0.950 . S
C464 C462 1.391 . S
C464 C465 1.400 . S
C465 C459 1.491 . S
C465 C464 1.400 . S
C465 C466 1.398 . S
C466 H454 0.950 . S
C466 C465 1.398 . S
C466 C467 1.391 . S
C467 H455 0.950 . S
C467 C463 1.393 . S
C467 C466 1.391 . S
H468 C476 0.950 . S
H469 C481 0.950 . S
H470 C478 0.950 . S
H471 C480 0.950 . S
H472 C482 0.950 . S
H473 C484 0.950 . S
H474 C486 0.950 . S
H475 C487 0.950 . S
C476 H468 0.950 . S
C476 C477 1.386 . S
C476 C478 1.391 . S
C477 C476 1.386 . S
C477 C481 1.393 . S
C478 H470 0.950 . S
C478 C476 1.391 . S
C478 C479 1.400 . S
C479 C478 1.400 . S
C479 C480 1.398 . S
C479 C485 1.491 . S
C480 H471 0.950 . S
C480 C479 1.398 . S
C480 C481 1.391 . S
C481 H469 0.950 . S
C481 C477 1.393 . S
C481 C480 1.391 . S
C482 H472 0.950 . S
C482 C483 1.386 . S
C482 C484 1.391 . S
C483 C482 1.386 . S
C483 C487 1.393 . S
C484 H473 0.950 . S
C484 C482 1.391 . S
C484 C485 1.400 . S
C485 C479 1.491 . S
C485 C484 1.400 . S
C485 C486 1.398 . S
C486 H474 0.950 . S
C486 C485 1.398 . S
C486 C487 1.391 . S
C487 H475 0.950 . S
C487 C483 1.393 . S
C487 C486 1.391 . S
H488 C496 0.950 . S
H489 C501 0.950 . S
H490 C498 0.950 . S
H491 C500 0.950 . S
H492 C502 0.950 1_554 S
H493 C504 0.950 . S
H494 C506 0.950 . S
H495 C507 0.950 . S
C496 H488 0.950 . S
C496 C497 1.386 . S
C496 C498 1.391 . S
C497 C496 1.386 . S
C497 C501 1.393 . S
C498 H490 0.950 . S
C498 C496 1.391 . S
C498 C499 1.400 . S
C499 C498 1.400 . S
C499 C500 1.398 . S
C499 C505 1.491 . S
C500 H491 0.950 . S
C500 C499 1.398 . S
C500 C501 1.391 . S
C501 H489 0.950 . S
C501 C497 1.393 . S
C501 C500 1.391 . S
C502 H492 0.950 1_556 S
C502 C503 1.386 . S
C502 C504 1.391 . S
C503 C502 1.386 . S
C503 C507 1.393 . S
C504 H493 0.950 . S
C504 C502 1.391 . S
C504 C505 1.400 . S
C505 C499 1.491 . S
C505 C504 1.400 . S
C505 C506 1.398 . S
C506 H494 0.950 . S
C506 C505 1.398 . S
C506 C507 1.391 . S
C507 H495 0.950 . S
C507 C503 1.393 . S
C507 C506 1.391 . S
H508 C516 0.950 1_556 S
H509 C521 0.950 . S
H510 C518 0.950 . S
H511 C520 0.950 . S
H512 C522 0.950 . S
H513 C524 0.950 . S
H514 C526 0.950 . S
H515 C527 0.950 . S
C516 H508 0.950 1_554 S
C516 C517 1.386 . S
C516 C518 1.391 . S
C517 C516 1.386 . S
C517 C521 1.393 . S
C518 H510 0.950 . S
C518 C516 1.391 . S
C518 C519 1.400 . S
C519 C518 1.400 . S
C519 C520 1.398 . S
C519 C525 1.491 . S
C520 H511 0.950 . S
C520 C519 1.398 . S
C520 C521 1.391 . S
C521 H509 0.950 . S
C521 C517 1.393 . S
C521 C520 1.391 . S
C522 H512 0.950 . S
C522 C523 1.386 . S
C522 C524 1.391 . S
C523 C522 1.386 . S
C523 C527 1.393 . S
C524 H513 0.950 . S
C524 C522 1.391 . S
C524 C525 1.400 . S
C525 C519 1.491 . S
C525 C524 1.400 . S
C525 C526 1.398 . S
C526 H514 0.950 . S
C526 C525 1.398 . S
C526 C527 1.391 . S
C527 H515 0.950 . S
C527 C523 1.393 . S
C527 C526 1.391 . S
H528 C536 0.950 . S
H529 C541 0.950 . S
H530 C538 0.950 . S
H531 C540 0.950 . S
H532 C542 0.950 . S
H533 C544 0.950 . S
H534 C546 0.950 . S
H535 C547 0.950 . S
C536 H528 0.950 . S
C536 C537 1.386 . S
C536 C538 1.391 . S
C537 C536 1.386 . S
C537 C541 1.393 . S
C538 H530 0.950 . S
C538 C536 1.391 . S
C538 C539 1.400 . S
C539 C538 1.400 . S
C539 C540 1.398 . S
C539 C545 1.491 . S
C540 H531 0.950 . S
C540 C539 1.398 . S
C540 C541 1.391 . S
C541 H529 0.950 . S
C541 C537 1.393 . S
C541 C540 1.391 . S
C542 H532 0.950 . S
C542 C543 1.386 . S
C542 C544 1.391 . S
C543 C542 1.386 . S
C543 C547 1.393 . S
C544 H533 0.950 . S
C544 C542 1.391 . S
C544 C545 1.400 . S
C545 C539 1.491 . S
C545 C544 1.400 . S
C545 C546 1.398 . S
C546 H534 0.950 . S
C546 C545 1.398 . S
C546 C547 1.391 . S
C547 H535 0.950 . S
C547 C543 1.393 . S
C547 C546 1.391 . S
H548 C556 0.950 . S
H549 C561 0.950 . S
H550 C558 0.950 . S
H551 C560 0.950 . S
H552 C562 0.950 . S
H553 C564 0.950 . S
H554 C566 0.950 . S
H555 C567 0.950 . S
C556 H548 0.950 . S
C556 C557 1.386 . S
C556 C558 1.391 . S
C557 C556 1.386 . S
C557 C561 1.393 . S
C558 H550 0.950 . S
C558 C556 1.391 . S
C558 C559 1.400 . S
C559 C558 1.400 . S
C559 C560 1.398 . S
C559 C565 1.491 . S
C560 H551 0.950 . S
C560 C559 1.398 . S
C560 C561 1.391 . S
C561 H549 0.950 . S
C561 C557 1.393 . S
C561 C560 1.391 . S
C562 H552 0.950 . S
C562 C563 1.386 . S
C562 C564 1.391 . S
C563 C562 1.386 . S
C563 C567 1.393 . S
C564 H553 0.950 . S
C564 C562 1.391 . S
C564 C565 1.400 . S
C565 C559 1.491 . S
C565 C564 1.400 . S
C565 C566 1.398 . S
C566 H554 0.950 . S
C566 C565 1.398 . S
C566 C567 1.391 . S
C567 H555 0.950 . S
C567 C563 1.393 . S
C567 C566 1.391 . S
H568 C576 0.950 . S
H569 C581 0.950 . S
H570 C578 0.950 . S
H571 C580 0.950 . S
H572 C582 0.950 . S
H573 C584 0.950 . S
H574 C586 0.950 . S
H575 C587 0.950 . S
C576 H568 0.950 . S
C576 C577 1.386 . S
C576 C578 1.391 . S
C577 C576 1.386 . S
C577 C581 1.393 . S
C578 H570 0.950 . S
C578 C576 1.391 . S
C578 C579 1.400 . S
C579 C578 1.400 . S
C579 C580 1.398 . S
C579 C585 1.491 . S
C580 H571 0.950 . S
C580 C579 1.398 . S
C580 C581 1.391 . S
C581 H569 0.950 . S
C581 C577 1.393 . S
C581 C580 1.391 . S
C582 H572 0.950 . S
C582 C583 1.386 . S
C582 C584 1.391 . S
C583 C582 1.386 . S
C583 C587 1.393 . S
C584 H573 0.950 . S
C584 C582 1.391 . S
C584 C585 1.400 . S
C585 C579 1.491 . S
C585 C584 1.400 . S
C585 C586 1.398 . S
C586 H574 0.950 . S
C586 C585 1.398 . S
C586 C587 1.391 . S
C587 H575 0.950 . S
C587 C583 1.393 . S
C587 C586 1.391 . S
H588 C596 0.950 . S
H589 C601 0.950 . S
H590 C598 0.950 . S
H591 C600 0.950 . S
H592 C602 0.950 . S
H593 C604 0.950 . S
H594 C606 0.950 . S
H595 C607 0.950 . S
C596 H588 0.950 . S
C596 C597 1.386 . S
C596 C598 1.391 . S
C597 C596 1.386 . S
C597 C601 1.393 . S
C598 H590 0.950 . S
C598 C596 1.391 . S
C598 C599 1.400 . S
C599 C598 1.400 . S
C599 C600 1.398 . S
C599 C605 1.491 . S
C600 H591 0.950 . S
C600 C599 1.398 . S
C600 C601 1.391 . S
C601 H589 0.950 . S
C601 C597 1.393 . S
C601 C600 1.391 . S
C602 H592 0.950 . S
C602 C603 1.386 . S
C602 C604 1.391 . S
C603 C602 1.386 . S
C603 C607 1.393 . S
C604 H593 0.950 . S
C604 C602 1.391 . S
C604 C605 1.400 . S
C605 C599 1.491 . S
C605 C604 1.400 . S
C605 C606 1.398 . S
C606 H594 0.950 . S
C606 C605 1.398 . S
C606 C607 1.391 . S
C607 H595 0.950 . S
C607 C603 1.393 . S
C607 C606 1.391 . S
H608 C616 0.950 . S
H609 C621 0.950 . S
H610 C618 0.950 . S
H611 C620 0.950 . S
H612 C622 0.950 . S
H613 C624 0.950 . S
H614 C626 0.950 . S
H615 C627 0.950 . S
C616 H608 0.950 . S
C616 C617 1.386 . S
C616 C618 1.391 . S
C617 C616 1.386 . S
C617 C621 1.393 . S
C618 H610 0.950 . S
C618 C616 1.391 . S
C618 C619 1.400 . S
C619 C618 1.400 . S
C619 C620 1.398 . S
C619 C625 1.491 . S
C620 H611 0.950 . S
C620 C619 1.398 . S
C620 C621 1.391 . S
C621 H609 0.950 . S
C621 C617 1.393 . S
C621 C620 1.391 . S
C622 H612 0.950 . S
C622 C623 1.386 . S
C622 C624 1.391 . S
C623 C622 1.386 . S
C623 C627 1.393 . S
C624 H613 0.950 . S
C624 C622 1.391 . S
C624 C625 1.400 . S
C625 C619 1.491 . S
C625 C624 1.400 . S
C625 C626 1.398 . S
C626 H614 0.950 . S
C626 C625 1.398 . S
C626 C627 1.391 . S
C627 H615 0.950 . S
C627 C623 1.393 . S
C627 C626 1.391 . S
H628 C636 0.950 . S
H629 C641 0.950 . S
H630 C638 0.950 . S
H631 C640 0.950 . S
H632 C642 0.950 . S
H633 C644 0.950 . S
H634 C646 0.950 . S
H635 C647 0.950 . S
C636 H628 0.950 . S
C636 C637 1.386 . S
C636 C638 1.391 . S
C637 C636 1.386 . S
C637 C641 1.393 . S
C638 H630 0.950 . S
C638 C636 1.391 . S
C638 C639 1.400 . S
C639 C638 1.400 . S
C639 C640 1.398 . S
C639 C645 1.491 . S
C640 H631 0.950 . S
C640 C639 1.398 . S
C640 C641 1.391 . S
C641 H629 0.950 . S
C641 C637 1.393 . S
C641 C640 1.391 . S
C642 H632 0.950 . S
C642 C643 1.386 . S
C642 C644 1.391 . S
C643 C642 1.386 . S
C643 C647 1.393 . S
C644 H633 0.950 . S
C644 C642 1.391 . S
C644 C645 1.400 . S
C645 C639 1.491 . S
C645 C644 1.400 . S
C645 C646 1.398 . S
C646 H634 0.950 . S
C646 C645 1.398 . S
C646 C647 1.391 . S
C647 H635 0.950 . S
C647 C643 1.393 . S
C647 C646 1.391 . S
H648 C656 0.950 . S
H649 C661 0.950 . S
H650 C658 0.950 . S
H651 C660 0.950 . S
H652 C662 0.950 . S
H653 C664 0.950 . S
H654 C666 0.950 . S
H655 C667 0.950 . S
C656 H648 0.950 . S
C656 C657 1.386 . S
C656 C658 1.391 . S
C657 C656 1.386 . S
C657 C661 1.393 1_655 S
C658 H650 0.950 . S
C658 C656 1.391 . S
C658 C659 1.400 . S
C659 C658 1.400 . S
C659 C660 1.398 1_655 S
C659 C665 1.491 1_655 S
C660 H651 0.950 . S
C660 C659 1.398 1_455 S
C660 C661 1.391 . S
C661 H649 0.950 . S
C661 C657 1.393 1_455 S
C661 C660 1.391 . S
C662 H652 0.950 . S
C662 C663 1.386 . S
C662 C664 1.391 . S
C663 C662 1.386 . S
C663 C667 1.393 1_455 S
C664 H653 0.950 . S
C664 C662 1.391 . S
C664 C665 1.400 . S
C665 C659 1.491 1_455 S
C665 C664 1.400 . S
C665 C666 1.398 1_455 S
C666 H654 0.950 . S
C666 C665 1.398 1_655 S
C666 C667 1.391 . S
C667 H655 0.950 . S
C667 C663 1.393 1_655 S
C667 C666 1.391 . S
H668 C676 0.950 . S
H669 C681 0.950 . S
H670 C678 0.950 . S
H671 C680 0.950 . S
H672 C682 0.950 . S
H673 C684 0.950 . S
H674 C686 0.950 . S
H675 C687 0.950 . S
C676 H668 0.950 . S
C676 C677 1.386 1_545 S
C676 C678 1.391 . S
C677 C676 1.386 1_565 S
C677 C681 1.393 . S
C678 H670 0.950 . S
C678 C676 1.391 . S
C678 C679 1.400 1_545 S
C679 C678 1.400 1_565 S
C679 C680 1.398 . S
C679 C685 1.491 1_566 S
C680 H671 0.950 . S
C680 C679 1.398 . S
C680 C681 1.391 . S
C681 H669 0.950 . S
C681 C677 1.393 . S
C681 C680 1.391 . S
C682 H672 0.950 . S
C682 C683 1.386 1_565 S
C682 C684 1.391 . S
C683 C682 1.386 1_545 S
C683 C687 1.393 . S
C684 H673 0.950 . S
C684 C682 1.391 . S
C684 C685 1.400 1_565 S
C685 C679 1.491 1_544 S
C685 C684 1.400 1_545 S
C685 C686 1.398 . S
C686 H674 0.950 . S
C686 C685 1.398 . S
C686 C687 1.391 . S
C687 H675 0.950 . S
C687 C683 1.393 . S
C687 C686 1.391 . S
H688 C696 0.950 . S
H689 C701 0.950 . S
H690 C698 0.950 . S
H691 C700 0.950 . S
H692 C702 0.950 . S
H693 C704 0.950 . S
H694 C706 0.950 . S
H695 C707 0.950 . S
C696 H688 0.950 . S
C696 C697 1.386 . S
C696 C698 1.391 . S
C697 C696 1.386 . S
C697 C701 1.393 . S
C698 H690 0.950 . S
C698 C696 1.391 . S
C698 C699 1.400 . S
C699 C698 1.400 . S
C699 C700 1.398 . S
C699 C705 1.491 . S
C700 H691 0.950 . S
C700 C699 1.398 . S
C700 C701 1.391 . S
C701 H689 0.950 . S
C701 C697 1.393 . S
C701 C700 1.391 . S
C702 H692 0.950 . S
C702 C703 1.386 . S
C702 C704 1.391 . S
C703 C702 1.386 . S
C703 C707 1.393 . S
C704 H693 0.950 . S
C704 C702 1.391 . S
C704 C705 1.400 . S
C705 C699 1.491 . S
C705 C704 1.400 . S
C705 C706 1.398 . S
C706 H694 0.950 . S
C706 C705 1.398 . S
C706 C707 1.391 . S
C707 H695 0.950 . S
C707 C703 1.393 . S
C707 C706 1.391 . S
H708 C716 0.950 . S
H709 C721 0.950 . S
H710 C718 0.950 . S
H711 C720 0.950 . S
H712 C722 0.950 . S
H713 C724 0.950 . S
H714 C726 0.950 . S
H715 C727 0.950 . S
C716 H708 0.950 . S
C716 C717 1.386 1_455 S
C716 C718 1.391 . S
C717 C716 1.386 1_655 S
C717 C721 1.393 . S
C718 H710 0.950 . S
C718 C716 1.391 . S
C718 C719 1.400 1_455 S
C719 C718 1.400 1_655 S
C719 C720 1.398 . S
C719 C725 1.491 1_655 S
C720 H711 0.950 . S
C720 C719 1.398 . S
C720 C721 1.391 . S
C721 H709 0.950 . S
C721 C717 1.393 . S
C721 C720 1.391 . S
C722 H712 0.950 . S
C722 C723 1.386 1_655 S
C722 C724 1.391 . S
C723 C722 1.386 1_455 S
C723 C727 1.393 . S
C724 H713 0.950 . S
C724 C722 1.391 . S
C724 C725 1.400 1_655 S
C725 C719 1.491 1_455 S
C725 C724 1.400 1_455 S
C725 C726 1.398 . S
C726 H714 0.950 . S
C726 C725 1.398 . S
C726 C727 1.391 . S
C727 H715 0.950 . S
C727 C723 1.393 . S
C727 C726 1.391 . S
H728 C736 0.950 . S
H729 C741 0.950 . S
H730 C738 0.950 . S
H731 C740 0.950 . S
H732 C742 0.950 . S
H733 C744 0.950 . S
H734 C746 0.950 . S
H735 C747 0.950 . S
C736 H728 0.950 . S
C736 C737 1.386 . S
C736 C738 1.391 . S
C737 C736 1.386 . S
C737 C741 1.393 1_565 S
C738 H730 0.950 . S
C738 C736 1.391 . S
C738 C739 1.400 . S
C739 C738 1.400 . S
C739 C740 1.398 1_565 S
C739 C745 1.491 1_565 S
C740 H731 0.950 . S
C740 C739 1.398 1_545 S
C740 C741 1.391 . S
C741 H729 0.950 . S
C741 C737 1.393 1_545 S
C741 C740 1.391 . S
C742 H732 0.950 . S
C742 C743 1.386 . S
C742 C744 1.391 . S
C743 C742 1.386 . S
C743 C747 1.393 1_545 S
C744 H733 0.950 . S
C744 C742 1.391 . S
C744 C745 1.400 . S
C745 C739 1.491 1_545 S
C745 C744 1.400 . S
C745 C746 1.398 1_545 S
C746 H734 0.950 . S
C746 C745 1.398 1_565 S
C746 C747 1.391 . S
C747 H735 0.950 . S
C747 C743 1.393 1_565 S
C747 C746 1.391 . S
H748 C756 0.950 . S
H749 C761 0.950 . S
H750 C758 0.950 . S
H751 C760 0.950 . S
H752 C762 0.950 . S
H753 C764 0.950 . S
H754 C766 0.950 . S
H755 C767 0.950 . S
C756 H748 0.950 . S
C756 C757 1.386 . S
C756 C758 1.391 . S
C757 C756 1.386 . S
C757 C761 1.393 . S
C758 H750 0.950 . S
C758 C756 1.391 . S
C758 C759 1.400 . S
C759 C758 1.400 . S
C759 C760 1.398 . S
C759 C765 1.491 . S
C760 H751 0.950 . S
C760 C759 1.398 . S
C760 C761 1.391 . S
C761 H749 0.950 . S
C761 C757 1.393 . S
C761 C760 1.391 . S
C762 H752 0.950 . S
C762 C763 1.386 . S
C762 C764 1.391 . S
C763 C762 1.386 . S
C763 C767 1.393 . S
C764 H753 0.950 . S
C764 C762 1.391 . S
C764 C765 1.400 . S
C765 C759 1.491 . S
C765 C764 1.400 . S
C765 C766 1.398 . S
C766 H754 0.950 . S
C766 C765 1.398 . S
C766 C767 1.391 . S
C767 H755 0.950 . S
C767 C763 1.393 . S
C767 C766 1.391 . S
H768 C776 0.950 . S
H769 C781 0.950 . S
H770 C778 0.950 . S
H771 C780 0.950 . S
H772 C782 0.950 . S
H773 C784 0.950 1_554 S
H774 C786 0.950 . S
H775 C787 0.950 . S
C776 H768 0.950 . S
C776 C777 1.386 . S
C776 C778 1.391 . S
C777 C776 1.386 . S
C777 C781 1.393 . S
C778 H770 0.950 . S
C778 C776 1.391 . S
C778 C779 1.400 . S
C779 C778 1.400 . S
C779 C780 1.398 . S
C779 C785 1.491 . S
C780 H771 0.950 . S
C780 C779 1.398 . S
C780 C781 1.391 . S
C781 H769 0.950 . S
C781 C777 1.393 . S
C781 C780 1.391 . S
C782 H772 0.950 . S
C782 C783 1.386 1_554 S
C782 C784 1.391 1_554 S
C783 C782 1.386 1_556 S
C783 C787 1.393 . S
C784 H773 0.950 1_556 S
C784 C782 1.391 1_556 S
C784 C785 1.400 . S
C785 C779 1.491 . S
C785 C784 1.400 . S
C785 C786 1.398 . S
C786 H774 0.950 . S
C786 C785 1.398 . S
C786 C787 1.391 . S
C787 H775 0.950 . S
C787 C783 1.393 . S
C787 C786 1.391 . S
H788 C796 0.950 . S
H789 C801 0.950 . S
H790 C798 0.950 . S
H791 C800 0.950 . S
H792 C802 0.950 . S
H793 C804 0.950 . S
H794 C806 0.950 . S
H795 C807 0.950 . S
C796 H788 0.950 . S
C796 C797 1.386 . S
C796 C798 1.391 . S
C797 C796 1.386 . S
C797 C801 1.393 . S
C798 H790 0.950 . S
C798 C796 1.391 . S
C798 C799 1.400 . S
C799 C798 1.400 . S
C799 C800 1.398 . S
C799 C805 1.491 . S
C800 H791 0.950 . S
C800 C799 1.398 . S
C800 C801 1.391 . S
C801 H789 0.950 . S
C801 C797 1.393 . S
C801 C800 1.391 . S
C802 H792 0.950 . S
C802 C803 1.386 . S
C802 C804 1.391 . S
C803 C802 1.386 . S
C803 C807 1.393 . S
C804 H793 0.950 . S
C804 C802 1.391 . S
C804 C805 1.400 . S
C805 C799 1.491 . S
C805 C804 1.400 . S
C805 C806 1.398 . S
C806 H794 0.950 . S
C806 C805 1.398 . S
C806 C807 1.391 . S
C807 H795 0.950 . S
C807 C803 1.393 . S
C807 C806 1.391 . S
H808 C816 0.950 . S
H809 C821 0.950 . S
H810 C818 0.950 . S
H811 C820 0.950 . S
H812 C822 0.950 . S
H813 C824 0.950 . S
H814 C826 0.950 . S
H815 C827 0.950 . S
C816 H808 0.950 . S
C816 C817 1.386 . S
C816 C818 1.391 . S
C817 C816 1.386 . S
C817 C821 1.393 . S
C818 H810 0.950 . S
C818 C816 1.391 . S
C818 C819 1.400 . S
C819 C818 1.400 . S
C819 C820 1.398 . S
C819 C825 1.491 . S
C820 H811 0.950 . S
C820 C819 1.398 . S
C820 C821 1.391 . S
C821 H809 0.950 . S
C821 C817 1.393 . S
C821 C820 1.391 . S
C822 H812 0.950 . S
C822 C823 1.386 . S
C822 C824 1.391 . S
C823 C822 1.386 . S
C823 C827 1.393 . S
C824 H813 0.950 . S
C824 C822 1.391 . S
C824 C825 1.400 . S
C825 C819 1.491 . S
C825 C824 1.400 . S
C825 C826 1.398 . S
C826 H814 0.950 . S
C826 C825 1.398 . S
C826 C827 1.391 . S
C827 H815 0.950 . S
C827 C823 1.393 . S
C827 C826 1.391 . S
H828 C836 0.950 . S
H829 C841 0.950 . S
H830 C838 0.950 . S
H831 C840 0.950 . S
H832 C842 0.950 . S
H833 C844 0.950 . S
H834 C846 0.950 . S
H835 C847 0.950 . S
C836 H828 0.950 . S
C836 C837 1.386 . S
C836 C838 1.391 . S
C837 C836 1.386 . S
C837 C841 1.393 . S
C838 H830 0.950 . S
C838 C836 1.391 . S
C838 C839 1.400 . S
C839 C838 1.400 . S
C839 C840 1.398 . S
C839 C845 1.491 . S
C840 H831 0.950 . S
C840 C839 1.398 . S
C840 C841 1.391 . S
C841 H829 0.950 . S
C841 C837 1.393 . S
C841 C840 1.391 . S
C842 H832 0.950 . S
C842 C843 1.386 . S
C842 C844 1.391 . S
C843 C842 1.386 . S
C843 C847 1.393 . S
C844 H833 0.950 . S
C844 C842 1.391 . S
C844 C845 1.400 . S
C845 C839 1.491 . S
C845 C844 1.400 . S
C845 C846 1.398 . S
C846 H834 0.950 . S
C846 C845 1.398 . S
C846 C847 1.391 . S
C847 H835 0.950 . S
C847 C843 1.393 . S
C847 C846 1.391 . S
H848 C856 0.950 . S
H849 C861 0.950 . S
H850 C858 0.950 . S
H851 C860 0.950 . S
H852 C862 0.950 . S
H853 C864 0.950 . S
H854 C866 0.950 . S
H855 C867 0.950 . S
C856 H848 0.950 . S
C856 C857 1.386 . S
C856 C858 1.391 . S
C857 C856 1.386 . S
C857 C861 1.393 . S
C858 H850 0.950 . S
C858 C856 1.391 . S
C858 C859 1.400 . S
C859 C858 1.400 . S
C859 C860 1.398 . S
C859 C865 1.491 . S
C860 H851 0.950 . S
C860 C859 1.398 . S
C860 C861 1.391 . S
C861 H849 0.950 . S
C861 C857 1.393 . S
C861 C860 1.391 . S
C862 H852 0.950 . S
C862 C863 1.386 . S
C862 C864 1.391 . S
C863 C862 1.386 . S
C863 C867 1.393 . S
C864 H853 0.950 . S
C864 C862 1.391 . S
C864 C865 1.400 . S
C865 C859 1.491 . S
C865 C864 1.400 . S
C865 C866 1.398 . S
C866 H854 0.950 . S
C866 C865 1.398 . S
C866 C867 1.391 . S
C867 H855 0.950 . S
C867 C863 1.393 . S
C867 C866 1.391 . S
H868 C876 0.950 . S
H869 C881 0.950 . S
H870 C878 0.950 . S
H871 C880 0.950 . S
H872 C882 0.950 . S
H873 C884 0.950 . S
H874 C886 0.950 . S
H875 C887 0.950 . S
C876 H868 0.950 . S
C876 C877 1.386 . S
C876 C878 1.391 . S
C877 C876 1.386 . S
C877 C881 1.393 . S
C878 H870 0.950 . S
C878 C876 1.391 . S
C878 C879 1.400 . S
C879 C878 1.400 . S
C879 C880 1.398 . S
C879 C885 1.491 . S
C880 H871 0.950 . S
C880 C879 1.398 . S
C880 C881 1.391 . S
C881 H869 0.950 . S
C881 C877 1.393 . S
C881 C880 1.391 . S
C882 H872 0.950 . S
C882 C883 1.386 . S
C882 C884 1.391 . S
C883 C882 1.386 . S
C883 C887 1.393 . S
C884 H873 0.950 . S
C884 C882 1.391 . S
C884 C885 1.400 . S
C885 C879 1.491 . S
C885 C884 1.400 . S
C885 C886 1.398 . S
C886 H874 0.950 . S
C886 C885 1.398 . S
C886 C887 1.391 . S
C887 H875 0.950 . S
C887 C883 1.393 . S
C887 C886 1.391 . S
H888 C896 0.950 . S
H889 C901 0.950 . S
H890 C898 0.950 . S
H891 C900 0.950 . S
H892 C902 0.950 . S
H893 C904 0.950 . S
H894 C906 0.950 . S
H895 C907 0.950 . S
C896 H888 0.950 . S
C896 C897 1.386 . S
C896 C898 1.391 . S
C897 C896 1.386 . S
C897 C901 1.393 . S
C898 H890 0.950 . S
C898 C896 1.391 . S
C898 C899 1.400 . S
C899 C898 1.400 . S
C899 C900 1.398 . S
C899 C905 1.491 . S
C900 H891 0.950 . S
C900 C899 1.398 . S
C900 C901 1.391 . S
C901 H889 0.950 . S
C901 C897 1.393 . S
C901 C900 1.391 . S
C902 H892 0.950 . S
C902 C903 1.386 . S
C902 C904 1.391 . S
C903 C902 1.386 . S
C903 C907 1.393 . S
C904 H893 0.950 . S
C904 C902 1.391 . S
C904 C905 1.400 . S
C905 C899 1.491 . S
C905 C904 1.400 . S
C905 C906 1.398 . S
C906 H894 0.950 . S
C906 C905 1.398 . S
C906 C907 1.391 . S
C907 H895 0.950 . S
C907 C903 1.393 . S
C907 C906 1.391 . S
H908 C916 0.950 . S
H909 C921 0.950 . S
H910 C918 0.950 1_556 S
H911 C920 0.950 . S
H912 C922 0.950 . S
H913 C924 0.950 . S
H914 C926 0.950 . S
H915 C927 0.950 . S
C916 H908 0.950 . S
C916 C917 1.386 1_556 S
C916 C918 1.391 1_556 S
C917 C916 1.386 1_554 S
C917 C921 1.393 . S
C918 H910 0.950 1_554 S
C918 C916 1.391 1_554 S
C918 C919 1.400 . S
C919 C918 1.400 . S
C919 C920 1.398 . S
C919 C925 1.491 . S
C920 H911 0.950 . S
C920 C919 1.398 . S
C920 C921 1.391 . S
C921 H909 0.950 . S
C921 C917 1.393 . S
C921 C920 1.391 . S
C922 H912 0.950 . S
C922 C923 1.386 . S
C922 C924 1.391 . S
C923 C922 1.386 . S
C923 C927 1.393 . S
C924 H913 0.950 . S
C924 C922 1.391 . S
C924 C925 1.400 . S
C925 C919 1.491 . S
C925 C924 1.400 . S
C925 C926 1.398 . S
C926 H914 0.950 . S
C926 C925 1.398 . S
C926 C927 1.391 . S
C927 H915 0.950 . S
C927 C923 1.393 . S
C927 C926 1.391 . S
H928 C936 0.950 . S
H929 C941 0.950 . S
H930 C938 0.950 . S
H931 C940 0.950 . S
H932 C942 0.950 . S
H933 C944 0.950 . S
H934 C946 0.950 . S
H935 C947 0.950 . S
C936 H928 0.950 . S
C936 C937 1.386 . S
C936 C938 1.391 . S
C937 C936 1.386 . S
C937 C941 1.393 . S
C938 H930 0.950 . S
C938 C936 1.391 . S
C938 C939 1.400 . S
C939 C938 1.400 . S
C939 C940 1.398 . S
C939 C945 1.491 . S
C940 H931 0.950 . S
C940 C939 1.398 . S
C940 C941 1.391 . S
C941 H929 0.950 . S
C941 C937 1.393 . S
C941 C940 1.391 . S
C942 H932 0.950 . S
C942 C943 1.386 . S
C942 C944 1.391 . S
C943 C942 1.386 . S
C943 C947 1.393 . S
C944 H933 0.950 . S
C944 C942 1.391 . S
C944 C945 1.400 . S
C945 C939 1.491 . S
C945 C944 1.400 . S
C945 C946 1.398 . S
C946 H934 0.950 . S
C946 C945 1.398 . S
C946 C947 1.391 . S
C947 H935 0.950 . S
C947 C943 1.393 . S
C947 C946 1.391 . S
H948 C956 0.950 . S
H949 C961 0.950 . S
H950 C958 0.950 . S
H951 C960 0.950 . S
H952 C962 0.950 . S
H953 C964 0.950 . S
H954 C966 0.950 . S
H955 C967 0.950 . S
C956 H948 0.950 . S
C956 C957 1.386 . S
C956 C958 1.391 . S
C957 C956 1.386 . S
C957 C961 1.393 . S
C958 H950 0.950 . S
C958 C956 1.391 . S
C958 C959 1.400 . S
C959 C958 1.400 . S
C959 C960 1.398 . S
C959 C965 1.491 . S
C960 H951 0.950 . S
C960 C959 1.398 . S
C960 C961 1.391 . S
C961 H949 0.950 . S
C961 C957 1.393 . S
C961 C960 1.391 . S
C962 H952 0.950 . S
C962 C963 1.386 . S
C962 C964 1.391 . S
C963 C962 1.386 . S
C963 C967 1.393 . S
C964 H953 0.950 . S
C964 C962 1.391 . S
C964 C965 1.400 . S
C965 C959 1.491 . S
C965 C964 1.400 . S
C965 C966 1.398 . S
C966 H954 0.950 . S
C966 C965 1.398 . S
C966 C967 1.391 . S
C967 H955 0.950 . S
C967 C963 1.393 . S
C967 C966 1.391 . S
H968 C976 0.950 . S
H969 C981 0.950 . S
H970 C978 0.950 . S
H971 C980 0.950 . S
H972 C982 0.950 . S
H973 C984 0.950 . S
H974 C986 0.950 . S
H975 C987 0.950 . S
C976 H968 0.950 . S
C976 C977 1.386 . S
C976 C978 1.391 . S
C977 C976 1.386 . S
C977 C981 1.393 . S
C978 H970 0.950 . S
C978 C976 1.391 . S
C978 C979 1.400 . S
C979 C978 1.400 . S
C979 C980 1.398 . S
C979 C985 1.491 . S
C980 H971 0.950 . S
C980 C979 1.398 . S
C980 C981 1.391 . S
C981 H969 0.950 . S
C981 C977 1.393 . S
C981 C980 1.391 . S
C982 H972 0.950 . S
C982 C983 1.386 . S
C982 C984 1.391 . S
C983 C982 1.386 . S
C983 C987 1.393 . S
C984 H973 0.950 . S
C984 C982 1.391 . S
C984 C985 1.400 . S
C985 C979 1.491 . S
C985 C984 1.400 . S
C985 C986 1.398 . S
C986 H974 0.950 . S
C986 C985 1.398 . S
C986 C987 1.391 . S
C987 H975 0.950 . S
C987 C983 1.393 . S
C987 C986 1.391 . S
H988 C996 0.950 . S
H989 C1001 0.950 . S
H990 C998 0.950 . S
H991 C1000 0.950 . S
H992 C1002 0.950 . S
H993 C1004 0.950 . S
H994 C1006 0.950 . S
H995 C1007 0.950 . S
C996 H988 0.950 . S
C996 C997 1.386 . S
C996 C998 1.391 . S
C997 C996 1.386 . S
C997 C1001 1.393 . S
C998 H990 0.950 . S
C998 C996 1.391 . S
C998 C999 1.400 . S
C999 C998 1.400 . S
C999 C1000 1.398 . S
C999 C1005 1.491 . S
C1000 H991 0.950 . S
C1000 C999 1.398 . S
C1000 C1001 1.391 . S
C1001 H989 0.950 . S
C1001 C997 1.393 . S
C1001 C1000 1.391 . S
C1002 H992 0.950 . S
C1002 C1003 1.386 . S
C1002 C1004 1.391 . S
C1003 C1002 1.386 . S
C1003 C1007 1.393 . S
C1004 H993 0.950 . S
C1004 C1002 1.391 . S
C1004 C1005 1.400 . S
C1005 C999 1.491 . S
C1005 C1004 1.400 . S
C1005 C1006 1.398 . S
C1006 H994 0.950 . S
C1006 C1005 1.398 . S
C1006 C1007 1.391 . S
C1007 H995 0.950 . S
C1007 C1003 1.393 . S
C1007 C1006 1.391 . S
C417 C349 0.920 . S
C423 C9 0.879 . S
C437 C43 0.900 . S
C443 C383 0.902 . S
C457 C77 0.917 . S
C463 C213 0.882 . S
C477 C111 0.923 . S
C483 C247 0.876 . S
C497 C145 0.884 . S
C503 C281 0.917 1_556 S
C517 C179 0.878 1_554 S
C523 C315 0.922 . S
C537 C33 1.314 . S
C543 C305 1.314 . S
C557 C339 1.306 . S
C563 C67 1.306 . S
C577 C101 1.309 . S
C583 C373 1.310 . S
C597 C135 1.323 . S
C603 C407 1.323 . S
C617 C169 1.321 . S
C623 C237 1.320 . S
C637 C203 1.317 . S
C643 C271 1.318 . S
C657 C379 1.563 . S
C663 C5 1.576 . S
C677 C209 1.578 . S
C683 C39 1.565 . S
C697 C243 1.574 . S
C703 C73 1.563 . S
C717 C107 1.578 . S
C723 C277 1.566 . S
C737 C141 1.568 . S
C743 C311 1.578 . S
C757 C345 1.568 . S
C763 C175 1.577 . S
C777 C172 2.065 . S
C783 C20 2.055 1_556 S
C797 C2 2.068 1_655 S
C803 C54 2.045 . S
C817 C88 2.047 . S
C823 C36 2.067 1_565 S
C837 C70 2.068 . S
C843 C122 2.046 . S
C857 C156 2.055 . S
C863 C104 2.066 1_455 S
C877 C190 2.045 . S
C883 C138 2.068 1_545 S
C897 C240 2.066 . S
C903 C224 2.055 . S
C917 C258 2.045 1_554 S
C923 C274 2.068 1_655 S
C937 C292 2.049 . S
C943 C308 2.068 1_565 S
C957 C342 2.065 . S
C963 C326 2.051 . S
C977 C376 2.068 1_455 S
C983 C360 2.050 . S
C997 C394 2.052 . S
C1003 C206 2.067 1_545 S
