# Generated by pormake.
# Topology crs, (6)-cn, num edge types: 1
# Building blocks:
#     Node 0, Type 0, BuildingBlock: BETDAH_clean_sbu_0, # of connection points: 6
#     Node 1, Type 0, BuildingBlock: BETDAH_clean_sbu_0, # of connection points: 6
#     Node 2, Type 0, BuildingBlock: BETDAH_clean_sbu_0, # of connection points: 6
#     Node 3, Type 0, BuildingBlock: BETDAH_clean_sbu_0, # of connection points: 6
#     Node 4, Type 0, BuildingBlock: BETDAH_clean_sbu_0, # of connection points: 6
#     Node 5, Type 0, BuildingBlock: BETDAH_clean_sbu_0, # of connection points: 6
#     Node 6, Type 0, BuildingBlock: BETDAH_clean_sbu_0, # of connection points: 6
#     Node 7, Type 0, BuildingBlock: BETDAH_clean_sbu_0, # of connection points: 6
#     Node 8, Type 0, BuildingBlock: BETDAH_clean_sbu_0, # of connection points: 6
#     Node 9, Type 0, BuildingBlock: BETDAH_clean_sbu_0, # of connection points: 6
#     Node 10, Type 0, BuildingBlock: BETDAH_clean_sbu_0, # of connection points: 6
#     Node 11, Type 0, BuildingBlock: BETDAH_clean_sbu_0, # of connection points: 6
#     Node 12, Type 0, BuildingBlock: BETDAH_clean_sbu_0, # of connection points: 6
#     Node 13, Type 0, BuildingBlock: BETDAH_clean_sbu_0, # of connection points: 6
#     Node 14, Type 0, BuildingBlock: BETDAH_clean_sbu_0, # of connection points: 6
#     Node 15, Type 0, BuildingBlock: BETDAH_clean_sbu_0, # of connection points: 6
#     Edge 16, Type (0, 0), BuildingBlock: XIVTED_clean_linker_0, # of connection points: 2
#     Edge 17, Type (0, 0), BuildingBlock: XIVTED_clean_linker_0, # of connection points: 2
#     Edge 18, Type (0, 0), BuildingBlock: XIVTED_clean_linker_0, # of connection points: 2
#     Edge 19, Type (0, 0), BuildingBlock: XIVTED_clean_linker_0, # of connection points: 2
#     Edge 20, Type (0, 0), BuildingBlock: XIVTED_clean_linker_0, # of connection points: 2
#     Edge 21, Type (0, 0), BuildingBlock: XIVTED_clean_linker_0, # of connection points: 2
#     Edge 22, Type (0, 0), BuildingBlock: XIVTED_clean_linker_0, # of connection points: 2
#     Edge 23, Type (0, 0), BuildingBlock: XIVTED_clean_linker_0, # of connection points: 2
#     Edge 24, Type (0, 0), BuildingBlock: XIVTED_clean_linker_0, # of connection points: 2
#     Edge 25, Type (0, 0), BuildingBlock: XIVTED_clean_linker_0, # of connection points: 2
#     Edge 26, Type (0, 0), BuildingBlock: XIVTED_clean_linker_0, # of connection points: 2
#     Edge 27, Type (0, 0), BuildingBlock: XIVTED_clean_linker_0, # of connection points: 2
#     Edge 28, Type (0, 0), BuildingBlock: XIVTED_clean_linker_0, # of connection points: 2
#     Edge 29, Type (0, 0), BuildingBlock: XIVTED_clean_linker_0, # of connection points: 2
#     Edge 30, Type (0, 0), BuildingBlock: XIVTED_clean_linker_0, # of connection points: 2
#     Edge 31, Type (0, 0), BuildingBlock: XIVTED_clean_linker_0, # of connection points: 2
#     Edge 32, Type (0, 0), BuildingBlock: XIVTED_clean_linker_0, # of connection points: 2
#     Edge 33, Type (0, 0), BuildingBlock: XIVTED_clean_linker_0, # of connection points: 2
#     Edge 34, Type (0, 0), BuildingBlock: XIVTED_clean_linker_0, # of connection points: 2
#     Edge 35, Type (0, 0), BuildingBlock: XIVTED_clean_linker_0, # of connection points: 2
#     Edge 36, Type (0, 0), BuildingBlock: XIVTED_clean_linker_0, # of connection points: 2
#     Edge 37, Type (0, 0), BuildingBlock: XIVTED_clean_linker_0, # of connection points: 2
#     Edge 38, Type (0, 0), BuildingBlock: XIVTED_clean_linker_0, # of connection points: 2
#     Edge 39, Type (0, 0), BuildingBlock: XIVTED_clean_linker_0, # of connection points: 2
#     Edge 40, Type (0, 0), BuildingBlock: XIVTED_clean_linker_0, # of connection points: 2
#     Edge 41, Type (0, 0), BuildingBlock: XIVTED_clean_linker_0, # of connection points: 2
#     Edge 42, Type (0, 0), BuildingBlock: XIVTED_clean_linker_0, # of connection points: 2
#     Edge 43, Type (0, 0), BuildingBlock: XIVTED_clean_linker_0, # of connection points: 2
#     Edge 44, Type (0, 0), BuildingBlock: XIVTED_clean_linker_0, # of connection points: 2
#     Edge 45, Type (0, 0), BuildingBlock: XIVTED_clean_linker_0, # of connection points: 2
#     Edge 46, Type (0, 0), BuildingBlock: XIVTED_clean_linker_0, # of connection points: 2
#     Edge 47, Type (0, 0), BuildingBlock: XIVTED_clean_linker_0, # of connection points: 2
#     Edge 48, Type (0, 0), BuildingBlock: XIVTED_clean_linker_0, # of connection points: 2
#     Edge 49, Type (0, 0), BuildingBlock: XIVTED_clean_linker_0, # of connection points: 2
#     Edge 50, Type (0, 0), BuildingBlock: XIVTED_clean_linker_0, # of connection points: 2
#     Edge 51, Type (0, 0), BuildingBlock: XIVTED_clean_linker_0, # of connection points: 2
#     Edge 52, Type (0, 0), BuildingBlock: XIVTED_clean_linker_0, # of connection points: 2
#     Edge 53, Type (0, 0), BuildingBlock: XIVTED_clean_linker_0, # of connection points: 2
#     Edge 54, Type (0, 0), BuildingBlock: XIVTED_clean_linker_0, # of connection points: 2
#     Edge 55, Type (0, 0), BuildingBlock: XIVTED_clean_linker_0, # of connection points: 2
#     Edge 56, Type (0, 0), BuildingBlock: XIVTED_clean_linker_0, # of connection points: 2
#     Edge 57, Type (0, 0), BuildingBlock: XIVTED_clean_linker_0, # of connection points: 2
#     Edge 58, Type (0, 0), BuildingBlock: XIVTED_clean_linker_0, # of connection points: 2
#     Edge 59, Type (0, 0), BuildingBlock: XIVTED_clean_linker_0, # of connection points: 2
#     Edge 60, Type (0, 0), BuildingBlock: XIVTED_clean_linker_0, # of connection points: 2
#     Edge 61, Type (0, 0), BuildingBlock: XIVTED_clean_linker_0, # of connection points: 2
#     Edge 62, Type (0, 0), BuildingBlock: XIVTED_clean_linker_0, # of connection points: 2
#     Edge 63, Type (0, 0), BuildingBlock: XIVTED_clean_linker_0, # of connection points: 2
# Relax obj value: 0.461
# Max RMSD: 0.360
# Mean RMSD: 0.299
data_MOF--net-crs--node1-BETDAH_clean_sbu_0--edge1-XIVTED_clean_linker_0
_symmetry_space_group_name_H-M    P1
_symmetry_Int_Tables_number       1
_symmetry_cell_setting            triclinic
loop_
_symmetry_equiv_pos_as_xyz
'x, y, z'
_cell_length_a     54.358738
_cell_length_b     55.156443
_cell_length_c     45.05798
_cell_angle_alpha  73.430852
_cell_angle_beta   75.717334
_cell_angle_gamma 64.010389
loop_
_atom_site_label
_atom_site_type_symbol
_atom_site_fract_x
_atom_site_fract_y
_atom_site_fract_z
_atom_type_partial_charge
Ho0 Ho 0.94816 0.99398 0.07315 0.0
Ho1 Ho 0.00353 0.98654 0.02944 0.0
C2 C 0.98399 0.93754 0.0452 0.0
C3 C 0.90072 0.99519 0.10317 0.0
C4 C 0.88996 0.97366 0.11749 0.0
C5 C 0.89676 0.95201 0.10256 0.0
C6 C 0.88906 0.93007 0.11776 0.0
C7 C 0.87446 0.92929 0.14826 0.0
C8 C 0.86734 0.95119 0.16305 0.0
C9 C 0.87513 0.97318 0.14777 0.0
C10 C -0.00717 0.97937 0.10105 0.0
C11 C 0.96678 0.04329 0.05548 0.0
C12 C 0.05244 0.98433 1.00603 0.0
C13 C 0.06841 0.99832 1.01071 0.0
C14 C 0.09432 0.98274 1.02098 0.0
C15 C 0.10946 0.99583 0.02598 0.0
C16 C 0.09894 0.0247 1.02046 0.0
C17 C 0.07266 0.0402 1.01112 0.0
C18 C 0.0575 0.02716 1.00636 0.0
C19 C 0.96008 1.00009 1.00081 0.0
O20 O 0.95997 0.95383 0.05843 0.0
O21 O 0.00572 0.94411 0.03617 0.0
O22 O 0.92039 0.99331 0.11652 0.0
O23 O 0.90589 1.00078 0.07256 0.0
O24 O 0.96793 0.99516 0.11074 0.0
O25 O -0.00786 0.97065 0.07846 0.0
O26 O -0.00835 0.02542 0.04651 0.0
O27 O 0.94465 0.03749 0.06151 0.0
O28 O 0.03085 0.99981 0.99146 0.0
O29 O 0.04762 0.96643 0.03033 0.0
O30 O 0.98534 0.9849 0.99106 0.0
O31 O 0.95948 0.00954 0.02357 0.0
H32 H 0.90826 0.95191 0.07926 0.0
H33 H 0.89425 0.91386 0.1054 0.0
H34 H 0.85609 0.95115 0.18651 0.0
H35 H 0.87004 0.98957 0.15981 0.0
H36 H 0.10291 0.96045 0.02495 0.0
H37 H 0.12973 0.98346 0.0331 0.0
H38 H 0.06395 0.06249 1.00716 0.0
H39 H 0.03731 0.03973 0.99909 0.0
Ho40 Ho -0.00059 0.27584 0.282 0.0
Ho41 Ho -0.0125 0.23634 0.26024 0.0
C42 C 0.96385 0.24309 0.32941 0.0
C43 C 0.00149 0.31375 0.3034 0.0
C44 C -0.00624 0.32764 0.32987 0.0
C45 C 0.98549 0.35629 0.3234 0.0
C46 C 0.98362 0.36969 0.34642 0.0
C47 C -0.00993 0.35468 0.37644 0.0
C48 C -0.00338 0.32616 0.3835 0.0
C49 C -0.00148 0.31273 0.36038 0.0
C50 C 0.04166 0.22561 0.2822 0.0
C51 C 0.02267 0.26973 0.21145 0.0
C52 C -0.01224 0.19664 0.24 0.0
C53 C 0.98182 0.18996 0.21374 0.0
C54 C -0.00448 0.19417 0.1831 0.0
C55 C -0.00874 0.18485 0.15966 0.0
C56 C 0.97326 0.17118 0.16645 0.0
C57 C 0.95905 0.16781 0.19696 0.0
C58 C 0.96333 0.17705 0.22027 0.0
C59 C 0.94613 0.28756 0.25664 0.0
O60 O 0.96761 0.26636 0.32096 0.0
O61 O 0.97617 0.22439 0.31185 0.0
O62 O 0.01953 0.28828 0.30691 0.0
O63 O 0.98238 0.31853 0.28714 0.0
O64 O 0.04428 0.24889 0.27405 0.0
O65 O 0.01641 0.22964 0.29124 0.0
O66 O 0.01599 0.24819 0.21848 0.0
O67 O 0.01469 0.28648 0.23106 0.0
O68 O 0.96657 0.21191 0.25693 0.0
O69 O 0.00942 0.20242 0.23585 0.0
O70 O 0.94249 0.26494 0.26255 0.0
O71 O 0.97165 0.28223 0.24993 0.0
H72 H 0.9818 0.3682 0.30003 0.0
H73 H 0.97794 0.39175 0.34041 0.0
H74 H 0.00175 0.31399 0.40636 0.0
H75 H 0.00501 0.29056 0.36598 0.0
H76 H 0.00991 0.20409 0.17739 0.0
H77 H 0.00234 0.18802 0.13634 0.0
H78 H 0.94545 0.15696 0.20328 0.0
H79 H 0.95274 0.17333 0.24379 0.0
Ho80 Ho 0.73184 0.2416 0.48851 0.0
Ho81 Ho 0.74217 0.27575 0.53058 0.0
C82 C 0.68377 0.26996 0.54313 0.0
C83 C 0.73078 0.2005 0.47369 0.0
C84 C 0.72357 0.17684 0.49063 0.0
C85 C 0.69759 0.1804 0.50868 0.0
C86 C 0.69092 0.15762 0.52332 0.0
C87 C 0.71014 0.13087 0.52031 0.0
C88 C 0.73657 0.12736 0.50349 0.0
C89 C 0.74314 0.15013 0.48868 0.0
C90 C 0.72287 0.29499 0.45875 0.0
C91 C 0.79127 0.24701 0.47737 0.0
C92 C 0.74907 0.31226 0.54852 0.0
C93 C 0.77249 0.32055 0.54017 0.0
C94 C 0.78868 0.31904 0.51059 0.0
C95 C 0.81393 0.32162 0.50477 0.0
C96 C 0.82362 0.32495 0.52876 0.0
C97 C 0.80708 0.32732 0.55802 0.0
C98 C 0.78161 0.32525 0.56363 0.0
C99 C 0.7512 0.22196 0.55938 0.0
O100 O 0.6944 0.25076 0.52582 0.0
O101 O 0.69693 0.28475 0.54507 0.0
O102 O 0.71043 0.22503 0.47067 0.0
O103 O 0.75314 0.20018 0.4803 0.0
O104 O 0.71924 0.27789 0.44715 0.0
O105 O 0.73019 0.2822 0.48523 0.0
O106 O 0.78174 0.26399 0.49718 0.0
O107 O 0.77681 0.23475 0.47222 0.0
O108 O 0.75511 0.28696 0.56432 0.0
O109 O 0.73412 0.31856 0.52649 0.0
O110 O 0.75501 0.23872 0.5712 0.0
O111 O 0.74356 0.2353 0.53331 0.0
H112 H 0.68221 0.20077 0.511 0.0
H113 H 0.6703 0.16111 0.53585 0.0
H114 H 0.75204 0.10702 0.50121 0.0
H115 H 0.76344 0.14688 0.47527 0.0
H116 H 0.78259 0.31451 0.49244 0.0
H117 H 0.82644 0.31976 0.48207 0.0
H118 H 0.81411 0.33028 0.57671 0.0
H119 H 0.76965 0.326 0.58673 0.0
Ho120 Ho 0.7168 1.00898 0.74999 0.0
Ho121 Ho 0.75791 0.01566 0.77587 0.0
C122 C 0.74764 0.04793 0.707 0.0
C123 C 0.67774 0.01 0.72588 0.0
C124 C 0.65816 0.02168 0.70285 0.0
C125 C 0.63002 0.037 0.7119 0.0
C126 C 0.61011 0.04109 0.6943 0.0
C127 C 0.618 0.02963 0.66759 0.0
C128 C 0.64626 0.01639 0.65709 0.0
C129 C 0.66616 0.01247 0.67452 0.0
C130 C 0.76731 0.96671 0.7486 0.0
C131 C 0.72626 0.97648 0.81989 0.0
C132 C 0.79891 0.0108 0.79991 0.0
C133 C 0.80575 0.01031 0.8299 0.0
C134 C 0.80692 0.98864 0.8559 0.0
C135 C 0.81642 0.98738 0.88273 0.0
C136 C 0.82486 1.00777 0.88405 0.0
C137 C 0.82255 0.02996 0.85846 0.0
C138 C 0.81321 0.03114 0.83169 0.0
C139 C 0.70746 0.05772 0.77963 0.0
O140 O 0.7242 0.04436 0.71428 0.0
O141 O 0.76733 0.03348 0.72498 0.0
O142 O 0.70405 0.99747 0.71635 0.0
O143 O 0.67298 0.02231 0.74885 0.0
O144 O 0.74399 0.96407 0.7554 0.0
O145 O 0.76307 0.99198 0.74163 0.0
O146 O 0.74677 0.98448 0.8158 0.0
O147 O 0.70933 0.98605 0.79884 0.0
O148 O 0.78155 0.03427 0.7864 0.0
O149 O 0.79501 0.98975 0.79735 0.0
O150 O 0.73078 0.06001 0.77522 0.0
O151 O 0.71162 0.03253 0.78482 0.0
H152 H 0.62317 0.04408 0.73377 0.0
H153 H 0.58846 0.05132 0.70298 0.0
H154 H 0.65291 1.00769 0.63632 0.0
H155 H 0.68763 1.00045 0.66691 0.0
H156 H 0.80122 0.97229 0.85527 0.0
H157 H 0.81778 0.97012 0.90216 0.0
H158 H 0.82931 0.04576 0.85842 0.0
H159 H 0.81269 0.04795 0.81188 0.0
Ho160 Ho 0.49423 0.78452 0.27554 0.0
Ho161 Ho 0.48517 0.7439 0.252 0.0
C162 C 0.45979 0.74973 0.32189 0.0
C163 C 0.49037 0.82409 0.29904 0.0
C164 C 0.4849 0.83236 0.32923 0.0
C165 C 0.46855 0.85995 0.33119 0.0
C166 C 0.46561 0.8693 0.35814 0.0
C167 C 0.47911 0.85125 0.38372 0.0
C168 C 0.49465 0.82332 0.38215 0.0
C169 C 0.49748 0.81394 0.35519 0.0
C170 C 0.53605 0.73361 0.28006 0.0
C171 C 0.52086 0.77833 0.2062 0.0
C172 C 0.48898 0.70416 0.2289 0.0
C173 C 0.48657 0.6986 0.19976 0.0
C174 C 0.50426 0.70184 0.17168 0.0
C175 C 0.50243 0.69448 0.14521 0.0
C176 C 0.48282 0.68388 0.14633 0.0
C177 C 0.46491 0.68116 0.17434 0.0
C178 C 0.46683 0.68836 0.2007 0.0
C179 C 0.44307 0.79451 0.24643 0.0
O180 O 0.46419 0.77257 0.31472 0.0
O181 O 0.47086 0.73197 0.30309 0.0
O182 O 0.51349 0.8033 0.29338 0.0
O183 O 0.46965 0.82397 0.28939 0.0
O184 O 0.53937 0.7565 0.27345 0.0
O185 O 0.51055 0.73857 0.28601 0.0
O186 O 0.51541 0.75606 0.21277 0.0
O187 O 0.51037 0.79585 0.22522 0.0
O188 O 0.46616 0.71975 0.24362 0.0
O189 O 0.51024 0.70915 0.22945 0.0
O190 O 0.44037 0.77147 0.25168 0.0
O191 O 0.46852 0.78999 0.24123 0.0
H192 H 0.45877 0.87453 0.31141 0.0
H193 H 0.45375 0.89098 0.35834 0.0
H194 H 0.505 0.8088 0.40159 0.0
H195 H 0.51009 0.79249 0.35436 0.0
H196 H 0.51972 0.70969 0.17025 0.0
H197 H 0.51642 0.69697 0.12394 0.0
H198 H 0.44995 0.67257 0.17629 0.0
H199 H 0.45316 0.68539 0.22214 0.0
Ho200 Ho 0.23687 0.74654 0.49741 0.0
Ho201 Ho 0.24827 0.78166 0.53725 0.0
C202 C 0.18926 0.77528 0.55172 0.0
C203 C 0.23375 0.70749 0.48016 0.0
C204 C 0.21725 0.69089 0.49171 0.0
C205 C 0.1976 0.69491 0.51866 0.0
C206 C 0.17817 0.68316 0.52606 0.0
C207 C 0.17797 0.66777 0.50622 0.0
C208 C 0.19865 0.66251 0.48028 0.0
C209 C 0.21825 0.67397 0.47312 0.0
C210 C 0.22909 0.79954 0.46614 0.0
C211 C 0.2959 0.75204 0.48342 0.0
C212 C 0.25069 0.82277 0.55058 0.0
C213 C 0.26092 0.84408 0.53251 0.0
C214 C 0.28323 0.83836 0.5083 0.0
C215 C 0.29226 0.85895 0.49059 0.0
C216 C 0.2795 0.88558 0.49717 0.0
C217 C 0.25694 0.89125 0.52131 0.0
C218 C 0.24767 0.87069 0.5387 0.0
C219 C 0.25618 0.72877 0.56871 0.0
O220 O 0.19866 0.75724 0.53313 0.0
O221 O 0.20341 0.78885 0.55449 0.0
O222 O 0.21938 0.73367 0.46998 0.0
O223 O 0.25219 0.70314 0.49728 0.0
O224 O 0.22469 0.78245 0.45552 0.0
O225 O 0.23666 0.78691 0.49246 0.0
O226 O 0.28608 0.77103 0.50083 0.0
O227 O 0.28194 0.73805 0.48143 0.0
O228 O 0.26953 0.79753 0.55628 0.0
O229 O 0.22863 0.82415 0.54204 0.0
O230 O 0.26028 0.74606 0.57947 0.0
O231 O 0.24896 0.74114 0.54215 0.0
H232 H 0.19621 0.70841 0.53288 0.0
H233 H 0.1622 0.6877 0.54597 0.0
H234 H 0.19882 0.65062 0.46474 0.0
H235 H 0.23316 0.6709 0.45211 0.0
H236 H 0.29355 0.81801 0.50285 0.0
H237 H 0.30936 0.85393 0.47189 0.0
H238 H 0.24693 0.91132 0.52748 0.0
H239 H 0.23033 0.87549 0.55722 0.0
Ho240 Ho 0.22194 0.50856 0.74426 0.0
Ho241 Ho 0.25579 0.51639 0.77956 0.0
C242 C 0.25177 0.55117 0.71008 0.0
C243 C 0.18901 0.5087 0.71138 0.0
C244 C 0.17201 0.522 0.68575 0.0
C245 C 0.14885 0.54707 0.68598 0.0
C246 C 0.12957 0.55563 0.66553 0.0
C247 C 0.1329 0.53907 0.64487 0.0
C248 C 0.15731 0.51515 0.64314 0.0
C249 C 0.17659 0.50678 0.66331 0.0
C250 C 0.27203 0.46628 0.74977 0.0
C251 C 0.22554 0.47405 0.81401 0.0
C252 C 0.28896 0.51598 0.81237 0.0
C253 C 0.30394 0.50327 0.83984 0.0
C254 C 0.33268 0.4883 0.83554 0.0
C255 C 0.34836 0.48302 0.85875 0.0
C256 C 0.33562 0.49286 0.88659 0.0
C257 C 0.30665 0.50565 0.89204 0.0
C258 C 0.29095 0.51083 0.86888 0.0
C259 C 0.20572 0.55868 0.77406 0.0
O260 O 0.23081 0.54454 0.71146 0.0
O261 O 0.26789 0.53917 0.73222 0.0
O262 O 0.21588 0.49881 0.70406 0.0
O263 O 0.18042 0.5185 0.73703 0.0
O264 O 0.24921 0.46373 0.75147 0.0
O265 O 0.26776 0.49155 0.74394 0.0
O266 O 0.2461 0.48112 0.81311 0.0
O267 O 0.20995 0.48547 0.79137 0.0
O268 O 0.2621 0.52875 0.8173 0.0
O269 O 0.2976 0.50372 0.78857 0.0
O270 O 0.22858 0.56119 0.77222 0.0
O271 O 0.20995 0.53339 0.77999 0.0
H272 H 0.14486 0.55929 0.70299 0.0
H273 H 0.11134 0.57448 0.66707 0.0
H274 H 0.16064 0.50159 0.62797 0.0
H275 H 0.1942 0.48727 0.66284 0.0
H276 H 0.34333 0.48246 0.81334 0.0
H277 H 0.37066 0.47329 0.8537 0.0
H278 H 0.29625 0.51312 0.91345 0.0
H279 H 0.26884 0.52249 0.87297 0.0
Ho280 Ho 0.94884 0.49379 0.57839 0.0
Ho281 Ho 0.97409 0.52588 0.52117 0.0
C282 C -0.01238 0.46448 0.51988 0.0
C283 C 0.92711 0.46048 0.61235 0.0
C284 C 0.9245 0.43884 0.60176 0.0
C285 C 0.90607 0.44613 0.5806 0.0
C286 C 0.9079 0.42691 0.56492 0.0
C287 C 0.92805 0.39989 0.57016 0.0
C288 C 0.94558 0.39214 0.59247 0.0
C289 C 0.94381 0.41146 0.60816 0.0
C290 C -0.00807 0.50123 0.58751 0.0
C291 C 0.93359 0.55525 0.5793 0.0
C292 C -0.00054 0.55575 0.48505 0.0
C293 C 0.00977 0.57408 0.49094 0.0
C294 C 0.00764 0.57682 0.5216 0.0
C295 C 0.01998 0.5921 0.52753 0.0
C296 C 0.03445 0.60498 0.5028 0.0
C297 C 0.03571 0.60288 0.47199 0.0
C298 C 0.02348 0.58748 0.46614 0.0
C299 C 0.93114 0.51874 0.51118 0.0
O300 O 0.96786 0.46554 0.54402 0.0
O301 O -0.00309 0.48428 0.5089 0.0
O302 O 0.95256 0.45656 0.61301 0.0
O303 O 0.91217 0.48601 0.60006 0.0
O304 O 0.97158 0.49982 0.60914 0.0
O305 O -0.01035 0.49611 0.56298 0.0
O306 O 0.95371 0.55433 0.55548 0.0
O307 O 0.92479 0.53511 0.59057 0.0
O308 O 0.97254 0.56395 0.48923 0.0
O309 O 0.01215 0.52971 0.49738 0.0
O310 O 0.9513 0.52095 0.4897 0.0
O311 O 0.93336 0.52335 0.5361 0.0
H312 H 0.8908 0.46695 0.57524 0.0
H313 H 0.8934 0.43326 0.54871 0.0
H314 H 0.96112 0.37136 0.5972 0.0
H315 H 0.95836 0.40529 0.62425 0.0
H316 H -0.00289 0.56654 0.54102 0.0
H317 H 0.01857 0.59349 0.55145 0.0
H318 H 0.04712 0.61221 0.45251 0.0
H319 H 0.02541 0.58538 0.44239 0.0
Ho320 Ho 0.2304 0.24375 0.98781 0.0
Ho321 Ho 0.23826 0.28058 0.02835 0.0
C322 C 0.1815 0.27036 0.04227 0.0
C323 C 0.23266 0.20225 0.97042 0.0
C324 C 0.22487 0.17867 0.98378 0.0
C325 C 0.20289 0.17978 1.00823 0.0
C326 C 0.19411 0.15806 1.01838 0.0
C327 C 0.20712 0.13512 1.00403 0.0
C328 C 0.23011 0.1335 0.98079 0.0
C329 C 0.2389 0.15514 0.97075 0.0
C330 C 0.22084 0.2971 0.95643 0.0
C331 C 0.28795 0.25259 0.97554 0.0
C332 C 0.23731 0.32231 0.04386 0.0
C333 C 0.24896 0.34285 0.02807 0.0
C334 C 0.27071 0.33749 1.00326 0.0
C335 C 0.28313 0.35617 0.98963 0.0
C336 C 0.2744 0.38022 1.00113 0.0
C337 C 0.25171 0.38608 0.0251 0.0
C338 C 0.23903 0.36752 0.0384 0.0
C339 C 0.24824 0.22726 0.05948 0.0
O340 O 0.19255 0.25152 0.02448 0.0
O341 O 0.19389 0.28583 0.04426 0.0
O342 O 0.21217 0.2266 0.96637 0.0
O343 O 0.25308 0.2018 0.98146 0.0
O344 O 0.21785 0.27926 0.94552 0.0
O345 O 0.22785 0.28497 0.98307 0.0
O346 O 0.27689 0.27149 0.99314 0.0
O347 O 0.27512 0.23777 0.9728 0.0
O348 O 0.25559 0.29713 0.05171 0.0
O349 O 0.21729 0.3235 0.03139 0.0
O350 O 0.25104 0.24515 0.07051 0.0
O351 O 0.24102 0.23933 0.03293 0.0
H352 H 0.19191 0.19781 1.01866 0.0
H353 H 0.17622 0.15993 0.03615 0.0
H354 H 0.24068 0.1159 0.9696 0.0
H355 H 0.25607 0.1539 0.95205 0.0
H356 H 0.27857 0.31854 0.99492 0.0
H357 H 0.30029 0.35123 0.97094 0.0
H358 H 0.24475 0.4042 0.03487 0.0
H359 H 0.22219 0.37193 0.05752 0.0
Ho360 Ho 0.22041 0.01076 0.24658 0.0
Ho361 Ho 0.2662 0.0109 0.27308 0.0
C362 C 0.25077 0.05158 0.2091 0.0
C363 C 0.17731 0.02324 0.22129 0.0
C364 C 0.16834 0.01535 0.19839 0.0
C365 C 0.16101 0.03415 0.17032 0.0
C366 C 0.14861 0.02915 0.1503 0.0
C367 C 0.14301 1.00534 0.15813 0.0
C368 C 0.15184 0.98575 0.18532 0.0
C369 C 0.16435 0.99071 0.20531 0.0
C370 C 0.27046 0.96996 0.23421 0.0
C371 C 0.23299 0.97235 0.3139 0.0
C372 C 0.31216 0.99954 0.29164 0.0
C373 C 0.3261 0.99536 0.31786 0.0
C374 C 0.35426 0.97831 0.31651 0.0
C375 C 0.36982 0.97779 0.33725 0.0
C376 C 0.35745 0.9943 0.35992 0.0
C377 C 0.32873 0.01007 0.36253 0.0
C378 C 0.31316 0.01068 0.34155 0.0
C379 C 0.21599 0.05185 0.28539 0.0
O380 O 0.2268 0.04913 0.21796 0.0
O381 O 0.2721 0.03419 0.22378 0.0
O382 O 0.1825 1.00621 0.24806 0.0
O383 O 0.19476 0.03508 0.21018 0.0
O384 O 0.247 0.96832 0.2367 0.0
O385 O 0.26614 0.99432 0.23436 0.0
O386 O 0.25569 0.97714 0.30896 0.0
O387 O 0.21376 0.98646 0.29516 0.0
O388 O 0.29481 0.02452 0.28176 0.0
O389 O 0.30418 0.98058 0.29087 0.0
O390 O 0.23949 0.05351 0.28272 0.0
O391 O 0.22034 0.02749 0.28521 0.0
H392 H 0.16385 0.05332 0.16443 0.0
H393 H 0.14239 0.04447 0.12932 0.0
H394 H 0.14757 0.96734 0.19223 0.0
H395 H 0.16975 0.97582 0.22679 0.0
H396 H 0.36462 0.9665 0.29823 0.0
H397 H 0.39187 0.96564 0.3342 0.0
H398 H 0.31848 0.02259 0.38012 0.0
H399 H 0.29136 0.02396 0.34299 0.0
Ho400 Ho 0.49338 0.28281 0.7753 0.0
Ho401 Ho 0.48483 0.24042 0.75369 0.0
C402 C 0.45717 0.24965 0.822 0.0
C403 C 0.48948 0.32396 0.79577 0.0
C404 C 0.49329 0.33043 0.82353 0.0
C405 C 0.51195 0.34269 0.81979 0.0
C406 C 0.51507 0.35067 0.84489 0.0
C407 C 0.49947 0.3467 0.87441 0.0
C408 C 0.48101 0.33403 0.87832 0.0
C409 C 0.47797 0.32591 0.85312 0.0
C410 C 0.53471 0.23185 0.78392 0.0
C411 C 0.51992 0.27413 0.70628 0.0
C412 C 0.48888 0.19951 0.73267 0.0
C413 C 0.49 0.19215 0.70311 0.0
C414 C 0.46825 0.18653 0.69942 0.0
C415 C 0.46941 0.1776 0.67289 0.0
C416 C 0.49248 0.17386 0.64943 0.0
C417 C 0.51416 0.17983 0.65289 0.0
C418 C 0.51293 0.18894 0.67946 0.0
C419 C 0.44335 0.29144 0.74619 0.0
O420 O 0.46184 0.27245 0.81396 0.0
O421 O 0.46902 0.23075 0.80459 0.0
O422 O 0.51187 0.30891 0.77995 0.0
O423 O 0.46852 0.3176 0.79782 0.0
O424 O 0.53788 0.25467 0.77845 0.0
O425 O 0.50926 0.23689 0.78801 0.0
O426 O 0.51552 0.25122 0.71439 0.0
O427 O 0.50829 0.2928 0.724 0.0
O428 O 0.4654 0.21773 0.74297 0.0
O429 O 0.51023 0.20261 0.73684 0.0
O430 O 0.44002 0.2686 0.75249 0.0
O431 O 0.46885 0.28631 0.74125 0.0
H432 H 0.5238 0.34662 0.79715 0.0
H433 H 0.52907 0.36083 0.84084 0.0
H434 H 0.46883 0.33051 0.90082 0.0
H435 H 0.46343 0.31645 0.85671 0.0
H436 H 0.45051 0.18848 0.71746 0.0
H437 H 0.45259 0.17271 0.67131 0.0
H438 H 0.53214 0.17731 0.63513 0.0
H439 H 0.53008 0.19304 0.68164 0.0
Ho440 Ho -0.00614 0.78454 0.78037 0.0
Ho441 Ho 0.98585 0.74502 0.75348 0.0
C442 C 0.95736 0.74952 0.82335 0.0
C443 C -0.01135 0.8234 0.80588 0.0
C444 C -0.01119 0.82744 0.83685 0.0
C445 C 0.97041 0.8221 0.86332 0.0
C446 C 0.9707 0.82707 0.89203 0.0
C447 C -0.01051 0.83726 0.8948 0.0
C448 C 0.00801 0.84225 0.8683 0.0
C449 C 0.0076 0.83746 0.83968 0.0
C450 C 0.03611 0.73407 0.78473 0.0
C451 C 0.02419 0.77734 0.7132 0.0
C452 C -0.01031 0.7081 0.72586 0.0
C453 C 0.9726 0.69593 0.71965 0.0
C454 C 0.98213 0.66718 0.72494 0.0
C455 C 0.96862 0.65499 0.7151 0.0
C456 C 0.9454 0.67138 0.69954 0.0
C457 C 0.93504 0.70018 0.69565 0.0
C458 C 0.94846 0.71237 0.70571 0.0
C459 C 0.94308 0.7949 0.75109 0.0
O460 O 0.96542 0.76978 0.81965 0.0
O461 O 0.96479 0.7347 0.80176 0.0
O462 O 0.01219 0.80746 0.79264 0.0
O463 O 0.96762 0.81966 0.80187 0.0
O464 O 0.03888 0.75687 0.78136 0.0
O465 O 0.01077 0.73879 0.78859 0.0
O466 O 0.02156 0.75353 0.72161 0.0
O467 O 0.00993 0.79651 0.73 0.0
O468 O -0.00545 0.70244 0.75462 0.0
O469 O 0.98523 0.73364 0.71185 0.0
O470 O 0.94065 0.77176 0.75552 0.0
O471 O 0.9684 0.7909 0.74557 0.0
H472 H 0.95571 0.8143 0.86183 0.0
H473 H 0.95626 0.82291 0.91205 0.0
H474 H 0.02238 0.8506 0.86943 0.0
H475 H 0.02185 0.8419 0.81956 0.0
H476 H 0.00077 0.65412 0.73551 0.0
H477 H 0.97731 0.63277 0.71812 0.0
H478 H 0.91703 0.7133 0.68401 0.0
H479 H 0.94052 0.73463 0.70152 0.0
Ho480 Ho 0.72627 0.50538 0.24835 0.0
Ho481 Ho 0.7559 0.51552 0.28602 0.0
C482 C 0.75649 0.54781 0.21547 0.0
C483 C 0.69758 0.5023 0.21263 0.0
C484 C 0.6842 0.51246 0.18434 0.0
C485 C 0.66427 0.53932 0.17697 0.0
C486 C 0.64803 0.54611 0.15366 0.0
C487 C 0.65121 0.52601 0.1378 0.0
C488 C 0.67263 0.49978 0.1439 0.0
C489 C 0.68893 0.49317 0.16682 0.0
C490 C 0.77599 0.46359 0.2584 0.0
C491 C 0.72478 0.47366 0.31879 0.0
C492 C 0.78536 0.51524 0.32349 0.0
C493 C 0.79533 0.50135 0.35416 0.0
C494 C 0.82369 0.48577 0.35519 0.0
C495 C 0.83441 0.47736 0.38331 0.0
C496 C 0.817 0.48458 0.41101 0.0
C497 C 0.78838 0.49854 0.41038 0.0
C498 C 0.77763 0.50683 0.38226 0.0
C499 C 0.70635 0.55744 0.27623 0.0
O500 O 0.73641 0.54047 0.21523 0.0
O501 O 0.77072 0.53713 0.23934 0.0
O502 O 0.72453 0.49104 0.20931 0.0
O503 O 0.68646 0.51568 0.23556 0.0
O504 O 0.75352 0.46066 0.25941 0.0
O505 O 0.77154 0.48896 0.25147 0.0
O506 O 0.74485 0.48091 0.31926 0.0
O507 O 0.71079 0.48441 0.29483 0.0
O508 O 0.75895 0.53031 0.32374 0.0
O509 O 0.79596 0.5018 0.30062 0.0
O510 O 0.72884 0.56022 0.27573 0.0
O511 O 0.71061 0.53206 0.28294 0.0
H512 H 0.66036 0.55461 0.19012 0.0
H513 H 0.63217 0.5667 0.14913 0.0
H514 H 0.67562 0.48355 0.13273 0.0
H515 H 0.70412 0.47227 0.17228 0.0
H516 H 0.83785 0.48147 0.3339 0.0
H517 H 0.85661 0.46695 0.38282 0.0
H518 H 0.77442 0.50416 0.43137 0.0
H519 H 0.75564 0.51881 0.38235 0.0
Ho520 Ho 0.73917 0.74873 1.00027 0.0
Ho521 Ho 0.74845 0.77865 0.04229 0.0
C522 C 0.68933 0.77642 0.0523 0.0
C523 C 0.72475 0.72042 0.97686 0.0
C524 C 0.70356 0.70914 0.98798 0.0
C525 C 0.69392 0.70339 1.02005 0.0
C526 C 0.67214 0.69468 0.03018 0.0
C527 C 0.6595 0.69213 1.00827 0.0
C528 C 0.66917 0.69806 0.97618 0.0
C529 C 0.69105 0.70651 0.96614 0.0
C530 C 0.7384 0.79968 0.97209 0.0
C531 C 0.79891 0.74782 0.9919 0.0
C532 C 0.75358 0.81335 0.06577 0.0
C533 C 0.76888 0.81191 0.08956 0.0
C534 C 0.79626 0.80989 0.08149 0.0
C535 C 0.80973 0.81108 0.10332 0.0
C536 C 0.79609 0.81445 0.13369 0.0
C537 C 0.76916 0.81517 0.1422 0.0
C538 C 0.75564 0.81404 0.12031 0.0
C539 C 0.76039 0.72454 0.07194 0.0
O540 O 0.70079 0.7569 0.03579 0.0
O541 O 0.70252 0.79108 0.05395 0.0
O542 O 0.71494 0.74733 0.97004 0.0
O543 O 0.7457 0.70929 0.99268 0.0
O544 O 0.74788 0.77897 0.95847 0.0
O545 O 0.72802 0.79291 1.00005 0.0
O546 O 0.7877 0.76808 1.0076 0.0
O547 O 0.78518 0.73361 0.99032 0.0
O548 O 0.73361 0.80458 0.0761 0.0
O549 O 0.76807 0.80599 0.03951 0.0
O550 O 0.76311 0.74237 0.0829 0.0
O551 O 0.75264 0.73665 0.04561 0.0
H552 H 0.70298 0.70593 0.03721 0.0
H553 H 0.66506 0.69016 0.055 0.0
H554 H 0.66017 0.69566 0.95882 0.0
H555 H 0.69806 0.71121 0.94131 0.0
H556 H 0.80702 0.80836 0.05797 0.0
H557 H 0.83027 0.81103 0.09575 0.0
H558 H 0.75817 0.81763 0.16543 0.0
H559 H 0.73451 0.81567 0.12724 0.0
Ho560 Ho 0.45289 0.02734 0.52365 0.0
Ho561 Ho 0.51746 0.99547 0.51407 0.0
C562 C 0.48157 0.96168 0.52002 0.0
C563 C 0.40112 0.04671 0.51922 0.0
C564 C 0.38579 0.03527 0.50832 0.0
C565 C 0.3695 0.05094 0.48426 0.0
C566 C 0.35754 0.03888 0.47163 0.0
C567 C 0.36227 0.01089 0.48256 0.0
C568 C 0.37784 0.99561 0.50722 0.0
C569 C 0.38938 1.00766 0.52003 0.0
C570 C 0.47753 0.01392 0.57452 0.0
C571 C 0.48928 0.06087 0.51747 0.0
C572 C 0.56982 0.97524 0.51644 0.0
C573 C 0.58879 0.98448 0.52426 0.0
C574 C 0.59562 0.97664 0.55471 0.0
C575 C 0.61233 0.98675 0.56229 0.0
C576 C 0.62307 1.00419 0.53929 0.0
C577 C 0.61714 0.01116 0.50864 0.0
C578 C 0.60017 1.00146 0.50119 0.0
C579 C 0.49241 0.00915 0.46325 0.0
O580 O 0.45978 0.9855 0.51741 0.0
O581 O 0.50582 0.95945 0.52413 0.0
O582 O 0.41123 0.0329 0.54545 0.0
O583 O 0.41875 0.05461 0.49774 0.0
O584 O 0.45454 0.03495 0.56922 0.0
O585 O 0.48446 0.99946 0.55416 0.0
O586 O 0.51101 0.03705 0.52013 0.0
O587 O 0.46489 0.06317 0.51367 0.0
O588 O 0.55878 0.98927 0.49083 0.0
O589 O 0.55211 0.9689 0.53944 0.0
O590 O 0.51537 0.98809 0.46849 0.0
O591 O 0.4858 0.02338 0.48372 0.0
H592 H 0.36658 0.07226 0.47478 0.0
H593 H 0.34536 0.05111 0.4528 0.0
H594 H 0.38122 0.97417 0.51661 0.0
H595 H 0.4017 0.99501 0.53864 0.0
H596 H 0.58794 0.96281 0.57265 0.0
H597 H 0.61712 0.98076 0.58593 0.0
H598 H 0.62519 0.02467 0.49054 0.0
H599 H 0.59575 1.00756 0.47737 0.0
Ho600 Ho 0.46234 0.52153 0.02901 0.0
Ho601 Ho 0.51832 0.51411 0.98542 0.0
C602 C 0.5006 0.4642 1.00293 0.0
C603 C 0.41358 0.52343 0.0526 0.0
C604 C 0.39885 0.50863 0.04718 0.0
C605 C 0.37172 0.52283 0.04022 0.0
C606 C 0.3591 0.5094 0.03095 0.0
C607 C 0.37368 0.48168 0.02803 0.0
C608 C 0.40082 0.46766 0.03527 0.0
C609 C 0.41306 0.48084 0.04517 0.0
C610 C 0.5047 0.51107 0.058 0.0
C611 C 0.48167 0.57065 1.01277 0.0
C612 C 0.56524 0.51591 0.95987 0.0
C613 C 0.57589 0.53524 0.96327 0.0
C614 C 0.59443 0.52677 0.98464 0.0
C615 C 0.59883 0.54626 0.99433 0.0
C616 C 0.58488 0.57453 0.98263 0.0
C617 C 0.56797 0.58281 0.95953 0.0
C618 C 0.56364 0.56339 0.94983 0.0
C619 C 0.47536 0.52444 0.95717 0.0
O620 O 0.47581 0.48134 1.01361 0.0
O621 O 0.52239 0.47068 0.99521 0.0
O622 O 0.43519 0.50825 0.06722 0.0
O623 O 0.41822 0.54142 0.02828 0.0
O624 O 0.47899 0.52497 0.06765 0.0
O625 O 0.5062 0.50088 0.03546 0.0
O626 O 0.506 0.55368 1.00119 0.0
O627 O 0.45968 0.56448 1.02076 0.0
O628 O 0.54383 0.527 0.94482 0.0
O629 O 0.56247 0.49794 0.98534 0.0
O630 O 0.50096 0.50999 0.94772 0.0
O631 O 0.47446 0.53484 0.97923 0.0
H632 H 0.36051 0.5444 0.04137 0.0
H633 H 0.33801 0.52077 0.0261 0.0
H634 H 0.41303 0.44655 0.03269 0.0
H635 H 0.43405 0.46939 0.05038 0.0
H636 H 0.60431 0.50519 0.99519 0.0
H637 H 0.61266 0.53919 1.01149 0.0
H638 H 0.55679 0.6044 0.95011 0.0
H639 H 0.54926 0.57074 0.93322 0.0
H640 H 0.92141 0.0822 0.08291 0.0
H641 H 0.01415 0.14413 0.12347 0.0
H642 H 0.00806 0.06122 0.04738 0.0
H643 H 0.92664 0.16895 0.15576 0.0
H644 H 0.01078 0.11827 0.08993 0.0
H645 H 0.92131 0.11841 0.10419 0.0
C646 C 0.94028 0.0855 0.07903 0.0
C647 C 0.96483 0.06841 0.06351 0.0
C648 C -0.00778 0.12963 0.10407 0.0
C649 C 0.96495 0.1096 0.0882 0.0
C650 C -0.0059 0.14461 0.12311 0.0
C651 C 0.9707 0.15856 0.1428 0.0
C652 C 0.96679 0.1284 0.10477 0.0
C653 C 0.94535 0.15804 0.1415 0.0
C654 C 0.94024 0.10613 0.09132 0.0
C655 C -0.01135 0.07371 0.05928 0.0
N656 N 0.94413 0.14297 0.12312 0.0
N657 N -0.01182 0.09357 0.07186 0.0
H658 H 0.82074 0.21281 0.43523 0.0
H659 H 0.93632 0.27513 0.37363 0.0
H660 H 0.82569 0.27165 0.47698 0.0
H661 H 0.94146 0.20431 0.34554 0.0
H662 H 0.89631 0.27358 0.41232 0.0
H663 H 0.8651 0.20893 0.40263 0.0
C664 C 0.83114 0.22481 0.43774 0.0
C665 C 0.81918 0.24275 0.45888 0.0
C666 C 0.90638 0.25816 0.39795 0.0
C667 C 0.87007 0.23851 0.42131 0.0
C668 C 0.92933 0.25899 0.37587 0.0
C669 C 0.94237 0.23984 0.35619 0.0
C670 C 0.89606 0.23826 0.40019 0.0
C671 C 0.9322 0.21947 0.36021 0.0
C672 C 0.85655 0.22254 0.41911 0.0
C673 C 0.83385 0.25767 0.461 0.0
N674 N 0.90952 0.21941 0.38145 0.0
N675 N 0.85831 0.25539 0.44233 0.0
H676 H 0.71374 0.07968 0.6615 0.0
H677 H 0.78301 0.18906 0.60441 0.0
H678 H 0.78822 0.06811 0.69171 0.0
H679 H 0.7254 0.19043 0.55264 0.0
H680 H 0.78444 0.14475 0.63651 0.0
H681 H 0.71679 0.11971 0.62156 0.0
C682 C 0.73091 0.08531 0.65959 0.0
C683 C 0.75073 0.07037 0.68025 0.0
C684 C 0.77169 0.15443 0.61794 0.0
C685 C 0.75404 0.11661 0.63472 0.0
C686 C 0.77087 0.17981 0.59954 0.0
C687 C 0.75418 0.19344 0.57567 0.0
C688 C 0.75518 0.14255 0.61312 0.0
C689 C 0.73878 0.18048 0.57057 0.0
C690 C 0.73261 0.10821 0.63672 0.0
C691 C 0.77244 0.07881 0.67648 0.0
N692 N 0.73935 0.15592 0.58942 0.0
N693 N 0.77331 0.1014 0.65454 0.0
H694 H 0.90606 0.03802 1.00495 0.0
H695 H 0.86323 0.96077 0.91323 0.0
H696 H 0.9599 0.96179 0.9748 0.0
H697 H 0.81912 0.04751 0.91394 0.0
H698 H 0.89217 0.95721 0.94917 0.0
H699 H 0.86817 0.03834 0.98366 0.0
C700 C 0.90976 0.02128 0.99418 0.0
C701 C 0.93613 1.00012 0.99106 0.0
C702 C 0.8759 0.97697 0.9418 0.0
C703 C 0.89325 1.00003 0.96743 0.0
C704 C 0.85917 0.97897 0.92149 0.0
C705 C 0.83893 1.00457 0.91018 0.0
C706 C 0.87246 1.00071 0.95091 0.0
C707 C 0.83487 0.02748 0.92157 0.0
C708 C 0.88825 0.02145 0.98208 0.0
C709 C 0.93996 0.97876 0.97717 0.0
N710 N 0.85172 0.0251 0.94105 0.0
N711 N 0.91882 0.97929 0.96583 0.0
H712 H 0.04748 0.94431 0.09252 0.0
H713 H 0.09654 0.04576 0.13527 0.0
H714 H -0.0068 0.02178 0.1196 0.0
H715 H 0.14736 0.95897 0.14172 0.0
H716 H 0.06224 0.04 0.11515 0.0
H717 H 0.08738 0.95177 0.09852 0.0
C718 C 0.04403 0.96285 0.09964 0.0
C719 C 0.01714 0.9824 0.10569 0.0
C720 C 0.08103 0.02225 0.12066 0.0
C721 C 0.0622 0.99118 0.11217 0.0
C722 C 0.10082 0.02556 0.13184 0.0
C723 C 0.12475 1.00271 0.14064 0.0
C724 C 0.08506 0.9959 0.11833 0.0
C725 C 0.12893 0.97701 0.13584 0.0
C726 C 0.06669 0.9671 0.10301 0.0
C727 C 0.0136 1.00605 0.11498 0.0
N728 N 0.1091 0.97421 0.12531 0.0
N729 N 0.03585 0.0098 0.11782 0.0
H730 H 0.01794 0.46105 0.46142 0.0
H731 H 0.97236 0.34777 0.43998 0.0
H732 H 0.97335 0.42014 0.53563 0.0
H733 H 0.01269 0.39255 0.36512 0.0
H734 H 0.97647 0.37065 0.47674 0.0
H735 H 0.02111 0.43195 0.42749 0.0
C736 C 0.00935 0.44556 0.47085 0.0
C737 C -0.0048 0.44322 0.50142 0.0
C738 C 0.98441 0.37545 0.45226 0.0
C739 C -0.00177 0.41017 0.46243 0.0
C740 C 0.98213 0.36235 0.43128 0.0
C741 C -0.00807 0.36845 0.39933 0.0
C742 C -0.0033 0.39471 0.44126 0.0
C743 C 0.00431 0.38761 0.3894 0.0
C744 C 0.01092 0.42911 0.45134 0.0
C745 C 0.98432 0.42283 0.51219 0.0
N746 N 0.00628 0.40006 0.41023 0.0
N747 N 0.98579 0.40733 0.49265 0.0
H748 H 0.65209 0.24043 0.55132 0.0
H749 H 0.54113 0.31404 0.68619 0.0
H750 H 0.65344 0.30768 0.58095 0.0
H751 H 0.54508 0.2419 0.66221 0.0
H752 H 0.5786 0.31569 0.64344 0.0
H753 H 0.60956 0.24427 0.58754 0.0
C754 C 0.64337 0.25619 0.56519 0.0
C755 C 0.6566 0.27365 0.56308 0.0
C756 C 0.57109 0.29966 0.64736 0.0
C757 C 0.60771 0.27806 0.6049 0.0
C758 C 0.54956 0.29878 0.6717 0.0
C759 C 0.53996 0.27772 0.678 0.0
C760 C 0.58312 0.27936 0.6291 0.0
C761 C 0.55184 0.25846 0.65841 0.0
C762 C 0.61905 0.25832 0.58597 0.0
C763 C 0.64415 0.29364 0.58179 0.0
N764 N 0.57285 0.25965 0.63504 0.0
N765 N 0.62054 0.29519 0.60198 0.0
H766 H 0.75285 0.95415 0.87249 0.0
H767 H 0.7209 0.82042 0.91544 0.0
H768 H 0.69516 0.94646 0.82866 0.0
H769 H 0.74253 0.84362 0.98584 0.0
H770 H 0.71488 0.86541 0.8817 0.0
H771 H 0.75266 0.91325 0.91287 0.0
C772 C 0.73987 0.94417 0.87151 0.0
C773 C 0.72398 0.95395 0.84695 0.0
C774 C 0.72067 0.8609 0.90462 0.0
C775 C 0.72418 0.90672 0.89282 0.0
C776 C 0.72414 0.83516 0.92393 0.0
C777 C 0.73205 0.82829 0.95362 0.0
C778 C 0.72587 0.87995 0.91449 0.0
C779 C 0.73612 0.8482 0.96326 0.0
C780 C 0.73978 0.92081 0.89462 0.0
C781 C 0.7077 0.93993 0.84701 0.0
N782 N 0.73339 0.87302 0.94357 0.0
N783 N 0.70853 0.91696 0.86919 0.0
H784 H 0.15219 0.23792 0.05308 0.0
H785 H 0.04283 0.31033 0.18957 0.0
H786 H 0.14987 0.30857 0.07896 0.0
H787 H 0.04669 0.23765 0.16697 0.0
H788 H 0.07872 0.31285 0.1453 0.0
H789 H 0.11062 0.24024 0.09081 0.0
C790 C 0.14284 0.25411 0.06639 0.0
C791 C 0.15478 0.27298 0.06284 0.0
C792 C 0.07156 0.29648 0.14983 0.0
C793 C 0.10711 0.27564 0.10634 0.0
C794 C 0.05094 0.29507 0.17511 0.0
C795 C 0.04174 0.27364 0.18224 0.0
C796 C 0.08324 0.27627 0.13148 0.0
C797 C 0.05313 0.2545 0.16251 0.0
C798 C 0.11909 0.25537 0.08804 0.0
C799 C 0.14163 0.29344 0.08092 0.0
N800 N 0.0734 0.25614 0.13824 0.0
N801 N 0.11867 0.29411 0.10192 0.0
H802 H 0.68959 0.44898 0.32188 0.0
H803 H 0.74635 0.32699 0.46806 0.0
H804 H 0.75131 0.4438 0.37068 0.0
H805 H 0.69475 0.32706 0.4096 0.0
H806 H 0.7446 0.37217 0.43698 0.0
H807 H 0.68718 0.40725 0.35785 0.0
C808 C 0.70242 0.43934 0.34038 0.0
C809 C 0.72071 0.45015 0.34305 0.0
C810 C 0.73339 0.36247 0.43112 0.0
C811 C 0.71817 0.40175 0.38454 0.0
C812 C 0.73419 0.33679 0.44918 0.0
C813 C 0.7204 0.32336 0.44189 0.0
C814 C 0.71853 0.37499 0.40546 0.0
C815 C 0.70562 0.33666 0.41625 0.0
C816 C 0.70112 0.41531 0.36089 0.0
C817 C 0.73686 0.43639 0.36759 0.0
N818 N 0.70505 0.36161 0.39908 0.0
N819 N 0.73529 0.41295 0.38722 0.0
H820 H 0.52416 0.97156 0.59591 0.0
H821 H 0.5688 0.07091 0.6511 0.0
H822 H 0.4743 0.05795 0.59336 0.0
H823 H 0.61909 0.98466 0.6527 0.0
H824 H 0.53333 0.06651 0.63084 0.0
H825 H 0.55799 0.97528 0.61995 0.0
C826 C 0.5205 0.99129 0.60018 0.0
C827 C 0.49683 0.01456 0.59199 0.0
C828 C 0.55214 0.04855 0.63562 0.0
C829 C 0.53548 0.01921 0.61863 0.0
C830 C 0.57236 0.0511 0.64711 0.0
C831 C 0.59697 0.02818 0.65334 0.0
C832 C 0.55644 0.02281 0.63073 0.0
C833 C 0.6006 1.00296 0.64776 0.0
C834 C 0.53977 0.99347 0.61377 0.0
C835 C 0.49248 0.03951 0.59899 0.0
N836 N 0.58053 1.00094 0.63691 0.0
N837 N 0.51179 0.04127 0.61149 0.0
H838 H 0.9408 0.92554 0.04236 0.0
H839 H 0.03369 0.8272 0.92222 0.0
H840 H 0.02971 0.89651 0.02212 0.0
H841 H 0.9445 0.86306 0.93514 0.0
H842 H 0.03283 0.84452 0.96684 0.0
H843 H 0.94222 0.89442 1.01233 0.0
C844 C 0.96071 0.91206 0.03245 0.0
C845 C 0.98516 0.91396 0.03452 0.0
C846 C 0.01342 0.84832 0.96019 0.0
C847 C -0.01315 0.87858 0.99947 0.0
C848 C 0.01391 0.83854 0.93462 0.0
C849 C -0.01087 0.84408 0.92458 0.0
C850 C -0.01202 0.86392 0.97583 0.0
C851 C 0.9641 0.85831 0.94201 0.0
C852 C 0.96147 0.89444 1.01498 0.0
C853 C 0.0103 0.89605 1.02085 0.0
N854 N 0.96417 0.86806 0.96652 0.0
N855 N 0.01046 0.87942 1.00355 0.0
H856 H 0.12918 0.01496 0.06655 0.0
H857 H 0.18744 0.1093 0.0607 0.0
H858 H 0.10836 0.06601 0.97657 0.0
H859 H 0.19735 0.11585 0.96106 0.0
H860 H 0.16229 0.07965 0.06873 0.0
H861 H 0.15793 0.03915 0.0667 0.0
C862 C 0.13052 0.03139 0.04703 0.0
C863 C 0.1161 0.03889 0.02175 0.0
C864 C 0.17056 0.0871 0.04522 0.0
C865 C 0.14882 0.06621 0.02154 0.0
C866 C 0.18468 0.10414 0.04062 0.0
C867 C 0.19462 0.11484 1.01019 0.0
C868 C 0.16613 0.08124 1.0191 0.0
C869 C 0.19045 0.1077 0.98492 0.0
C870 C 0.14674 0.04523 0.04719 0.0
C871 C 0.11873 0.05998 0.99677 0.0
N872 N 0.17622 0.09165 0.98995 0.0
N873 N 0.13493 0.07273 0.9972 0.0
H874 H 0.69969 0.60963 0.24936 0.0
H875 H 0.53503 0.68142 0.29587 0.0
H876 H 0.65206 0.56094 0.29691 0.0
H877 H 0.59027 0.72353 0.26103 0.0
H878 H 0.57524 0.63707 0.29313 0.0
H879 H 0.6577 0.65114 0.24893 0.0
C880 C 0.68025 0.60765 0.25966 0.0
C881 C 0.67952 0.58171 0.27348 0.0
C882 C 0.57844 0.65607 0.2861 0.0
C883 C 0.63064 0.62985 0.27341 0.0
C884 C 0.55554 0.68135 0.28767 0.0
C885 C 0.5593 0.70625 0.27884 0.0
C886 C 0.60516 0.65582 0.27535 0.0
C887 C 0.58629 0.70495 0.26826 0.0
C888 C 0.65614 0.63151 0.25948 0.0
C889 C 0.65356 0.58055 0.28606 0.0
N890 N 0.60796 0.68036 0.26682 0.0
N891 N 0.6301 0.60435 0.28598 0.0
H892 H 0.25194 0.94184 0.47919 0.0
H893 H 0.39009 0.96237 0.46312 0.0
H894 H 0.33401 0.87725 0.47845 0.0
H895 H 0.30906 0.02762 0.47199 0.0
H896 H 0.37012 0.93445 0.45248 0.0
H897 H 0.27248 0.97604 0.46203 0.0
C898 C 0.27424 0.93482 0.47507 0.0
C899 C 0.29122 0.90655 0.48106 0.0
C900 C 0.35665 0.95503 0.45625 0.0
C901 C 0.31478 0.94556 0.46102 0.0
C902 C 0.36807 0.97096 0.46228 0.0
C903 C 0.35107 0.99702 0.4691 0.0
C904 C 0.32784 0.9649 0.45798 0.0
C905 C 0.32279 1.00746 0.46715 0.0
C906 C 0.28593 0.95437 0.46503 0.0
C907 C 0.31997 0.89871 0.47429 0.0
N908 N 0.31189 0.99106 0.46252 0.0
N909 N 0.33078 0.91808 0.46512 0.0
H910 H 0.08999 0.72559 0.76812 0.0
H911 H 0.1519 0.5608 0.79223 0.0
H912 H 0.03632 0.68174 0.79571 0.0
H913 H 0.19842 0.61178 0.75389 0.0
H914 H 0.1089 0.6031 0.79398 0.0
H915 H 0.12958 0.68264 0.76375 0.0
C916 C 0.08652 0.7068 0.77335 0.0
C917 C 0.05978 0.70729 0.78241 0.0
C918 C 0.12861 0.60487 0.78503 0.0
C919 C 0.10552 0.65737 0.77741 0.0
C920 C 0.15305 0.5808 0.78398 0.0
C921 C 0.1788 0.58279 0.77326 0.0
C922 C 0.13014 0.6309 0.77525 0.0
C923 C 0.17916 0.60916 0.76274 0.0
C924 C 0.10924 0.68214 0.77074 0.0
C925 C 0.05663 0.68223 0.78867 0.0
N926 N 0.15539 0.63195 0.76416 0.0
N927 N 0.07929 0.65817 0.7862 0.0
H928 H 0.86555 0.29215 0.56284 0.0
H929 H 0.92365 0.40709 0.50862 0.0
H930 H 0.84379 0.35923 0.48352 0.0
H931 H 0.93464 0.34642 0.59482 0.0
H932 H 0.91074 0.37874 0.48753 0.0
H933 H 0.90634 0.30034 0.56223 0.0
C934 C 0.86977 0.30829 0.54493 0.0
C935 C 0.85105 0.32568 0.52385 0.0
C936 C 0.91672 0.37128 0.51074 0.0
C937 C 0.89706 0.33557 0.52337 0.0
C938 C 0.92388 0.38752 0.52285 0.0
C939 C 0.9289 0.37964 0.55401 0.0
C940 C 0.91442 0.34721 0.53011 0.0
C941 C 0.93027 0.35359 0.57094 0.0
C942 C 0.89305 0.3129 0.54447 0.0
C943 C 0.85759 0.34581 0.50055 0.0
N944 N 0.92234 0.3386 0.55904 0.0
N945 N 0.87975 0.35074 0.50143 0.0
H946 H 0.32341 0.96752 0.23027 0.0
H947 H 0.3896 0.80277 0.25245 0.0
H948 H 0.27906 0.91719 0.23751 0.0
H949 H 0.44134 0.84794 0.23366 0.0
H950 H 0.34924 0.84567 0.24836 0.0
H951 H 0.36685 0.92567 0.23236 0.0
C952 C 0.32281 0.94776 0.23218 0.0
C953 C 0.29751 0.94586 0.2338 0.0
C954 C 0.3693 0.8465 0.24499 0.0
C955 C 0.34692 0.89809 0.23625 0.0
C956 C 0.39253 0.82182 0.24735 0.0
C957 C 0.41905 0.82162 0.24328 0.0
C958 C 0.37215 0.87166 0.23862 0.0
C959 C 0.42129 0.84714 0.23688 0.0
C960 C 0.34758 0.92392 0.23335 0.0
C961 C 0.29796 0.91976 0.2362 0.0
N962 N 0.3981 0.8712 0.23479 0.0
N963 N 0.32207 0.89711 0.23742 0.0
H964 H 0.27887 0.41365 0.77387 0.0
H965 H 0.44411 0.34369 0.73242 0.0
H966 H 0.32612 0.46347 0.73096 0.0
H967 H 0.38917 0.30115 0.76229 0.0
H968 H 0.40348 0.38782 0.7349 0.0
H969 H 0.32114 0.37253 0.77421 0.0
C970 C 0.29828 0.41595 0.7645 0.0
C971 C 0.29886 0.44208 0.75199 0.0
C972 C 0.40046 0.36876 0.74087 0.0
C973 C 0.34805 0.39443 0.75204 0.0
C974 C 0.42359 0.34363 0.73943 0.0
C975 C 0.42001 0.31871 0.74699 0.0
C976 C 0.37375 0.36875 0.75018 0.0
C977 C 0.39302 0.31977 0.75609 0.0
C978 C 0.32256 0.39232 0.76466 0.0
C979 C 0.32476 0.44367 0.74067 0.0
N980 N 0.37115 0.34419 0.75742 0.0
N981 N 0.34842 0.42009 0.74072 0.0
H982 H 0.15543 0.74872 0.55681 0.0
H983 H 0.04635 0.8166 0.69664 0.0
H984 H 0.16129 0.80998 0.59356 0.0
H985 H 0.05078 0.74603 0.66868 0.0
H986 H 0.0846 0.81884 0.65492 0.0
H987 H 0.11334 0.75196 0.59338 0.0
C988 C 0.14782 0.76305 0.57236 0.0
C989 C 0.16222 0.77898 0.57208 0.0
C990 C 0.07703 0.803 0.65782 0.0
C991 C 0.11367 0.78271 0.6144 0.0
C992 C 0.0551 0.8018 0.68154 0.0
C993 C 0.04536 0.78102 0.68631 0.0
C994 C 0.08917 0.78342 0.63859 0.0
C995 C 0.05765 0.76231 0.66608 0.0
C996 C 0.12372 0.76482 0.59337 0.0
C997 C 0.15106 0.79719 0.59292 0.0
N998 N 0.07887 0.76393 0.64326 0.0
N999 N 0.12756 0.79846 0.61329 0.0
H1000 H 0.19317 0.95138 0.32666 0.0
H1001 H 0.25407 0.83139 0.47285 0.0
H1002 H 0.26535 0.94088 0.36102 0.0
H1003 H 0.19984 0.83094 0.4181 0.0
H1004 H 0.2536 0.87553 0.43863 0.0
H1005 H 0.19029 0.91163 0.36645 0.0
C1006 C 0.20829 0.94096 0.34274 0.0
C1007 C 0.22962 0.94965 0.34017 0.0
C1008 C 0.2416 0.86588 0.43433 0.0
C1009 C 0.2264 0.90361 0.38621 0.0
C1010 C 0.24171 0.84088 0.45404 0.0
C1011 C 0.22692 0.82759 0.44848 0.0
C1012 C 0.22622 0.87782 0.40906 0.0
C1013 C 0.21155 0.84043 0.42334 0.0
C1014 C 0.20668 0.91809 0.36546 0.0
C1015 C 0.24858 0.935 0.36189 0.0
N1016 N 0.21158 0.86469 0.40472 0.0
N1017 N 0.24657 0.91275 0.38389 0.0
H1018 H 0.9346 0.62474 0.72373 0.0
H1019 H 0.93423 0.60634 0.55682 0.0
H1020 H 0.9313 0.6883 0.6407 0.0
H1021 H 0.91373 0.55393 0.64159 0.0
H1022 H 0.92916 0.63859 0.58755 0.0
H1023 H 0.92331 0.60012 0.69514 0.0
C1024 C 0.93111 0.6337 0.69962 0.0
C1025 C 0.93413 0.65848 0.68449 0.0
C1026 C 0.92519 0.62034 0.59944 0.0
C1027 C 0.92141 0.63039 0.65161 0.0
C1028 C 0.92804 0.60194 0.58188 0.0
C1029 C 0.92449 0.57739 0.59671 0.0
C1030 C 0.91934 0.61389 0.63218 0.0
C1031 C 0.91654 0.57268 0.62922 0.0
C1032 C 0.92454 0.61971 0.68336 0.0
C1033 C 0.92906 0.66932 0.65334 0.0
N1034 N 0.91475 0.59052 0.64599 0.0
N1035 N 0.92339 0.655 0.63781 0.0
H1036 H 0.32411 0.7153 0.44412 0.0
H1037 H 0.43843 0.77822 0.36937 0.0
H1038 H 0.33004 0.77865 0.47686 0.0
H1039 H 0.43574 0.71213 0.33882 0.0
H1040 H 0.40125 0.7757 0.41178 0.0
H1041 H 0.36697 0.71114 0.40832 0.0
C1042 C 0.33447 0.7282 0.44403 0.0
C1043 C 0.32318 0.74752 0.46351 0.0
C1044 C 0.40894 0.76153 0.39604 0.0
C1045 C 0.37241 0.74288 0.4223 0.0
C1046 C 0.43027 0.76291 0.37178 0.0
C1047 C 0.44017 0.74547 0.35029 0.0
C1048 C 0.39715 0.74271 0.39883 0.0
C1049 C 0.42879 0.726 0.35478 0.0
C1050 C 0.35901 0.72579 0.42352 0.0
C1051 C 0.33775 0.76356 0.46228 0.0
N1052 N 0.40769 0.72535 0.37833 0.0
N1053 N 0.36142 0.76101 0.4419 0.0
H1054 H 0.29085 0.0724 0.19475 0.0
H1055 H 0.22587 0.19348 0.05159 0.0
H1056 H 0.21573 0.08473 0.16538 0.0
H1057 H 0.27728 0.19701 0.10788 0.0
H1058 H 0.22793 0.14884 0.08554 0.0
H1059 H 0.29227 0.11315 0.15545 0.0
C1060 C 0.2748 0.08346 0.17985 0.0
C1061 C 0.25306 0.07509 0.18362 0.0
C1062 C 0.23895 0.15931 0.09023 0.0
C1063 C 0.25468 0.1219 0.13821 0.0
C1064 C 0.23793 0.18464 0.07072 0.0
C1065 C 0.25144 0.19894 0.07691 0.0
C1066 C 0.25403 0.14801 0.11571 0.0
C1067 C 0.26653 0.18673 0.10227 0.0
C1068 C 0.27557 0.10684 0.15746 0.0
C1069 C 0.23281 0.09046 0.16353 0.0
N1070 N 0.26748 0.16207 0.1206 0.0
N1071 N 0.23411 0.11304 0.14173 0.0
H1072 H 0.83315 0.77404 0.98647 0.0
H1073 H 0.9323 0.71287 0.83832 0.0
H1074 H 0.82685 0.71205 0.95154 0.0
H1075 H 0.93783 0.77524 0.87332 0.0
H1076 H 0.89688 0.70878 0.88272 0.0
H1077 H 0.87466 0.77108 0.94863 0.0
C1078 C 0.84064 0.75954 0.97115 0.0
C1079 C 0.82624 0.74343 0.97214 0.0
C1080 C 0.90602 0.72319 0.88083 0.0
C1081 C 0.87382 0.74014 0.92835 0.0
C1082 C 0.92634 0.7255 0.85547 0.0
C1083 C 0.93803 0.74458 0.85184 0.0
C1084 C 0.89722 0.74009 0.90276 0.0
C1085 C 0.92936 0.76036 0.87492 0.0
C1086 C 0.86436 0.75792 0.94943 0.0
C1087 C 0.83711 0.72499 0.95163 0.0
N1088 N 0.9094 0.7579 0.8992 0.0
N1089 N 0.86005 0.72404 0.93043 0.0
H1090 H 0.22384 0.58074 0.65911 0.0
H1091 H 0.28198 0.69879 0.61974 0.0
H1092 H 0.28661 0.57668 0.70537 0.0
H1093 H 0.2345 0.6951 0.55883 0.0
H1094 H 0.28293 0.65443 0.65162 0.0
H1095 H 0.22655 0.62239 0.62249 0.0
C1096 C 0.23841 0.58836 0.66145 0.0
C1097 C 0.25505 0.57493 0.68555 0.0
C1098 C 0.27245 0.66309 0.63115 0.0
C1099 C 0.25794 0.62312 0.64371 0.0
C1100 C 0.2719 0.68851 0.61288 0.0
C1101 C 0.25827 0.70068 0.58635 0.0
C1102 C 0.25887 0.64964 0.62332 0.0
C1103 C 0.24548 0.68636 0.5788 0.0
C1104 C 0.23991 0.61223 0.64048 0.0
C1105 C 0.2734 0.58607 0.68727 0.0
N1106 N 0.24587 0.66176 0.59729 0.0
N1107 N 0.27416 0.60948 0.66693 0.0
H1108 H 0.35232 0.04068 0.37665 0.0
H1109 H 0.49635 0.96517 0.444 0.0
H1110 H 0.40322 0.95371 0.38509 0.0
H1111 H 0.44454 0.05092 0.44324 0.0
H1112 H 0.46227 0.9614 0.42152 0.0
H1113 H 0.38474 0.04524 0.40168 0.0
C1114 C 0.37004 0.02244 0.38417 0.0
C1115 C 0.37506 0.99677 0.37852 0.0
C1116 C 0.45815 0.98109 0.42631 0.0
C1117 C 0.41251 1.00204 0.40668 0.0
C1118 C 0.47773 0.98332 0.43902 0.0
C1119 C 0.47284 1.00827 0.44635 0.0
C1120 C 0.4336 1.00413 0.42022 0.0
C1121 C 0.44853 0.0311 0.43901 0.0
C1122 C 0.38869 0.02515 0.39819 0.0
C1123 C 0.3987 0.97402 0.38832 0.0
N1124 N 0.42968 0.0285 0.42639 0.0
N1125 N 0.41656 0.97725 0.40174 0.0
H1126 H 0.85019 0.79197 0.14423 0.0
H1127 H 0.82412 0.93237 0.1818 0.0
H1128 H 0.77003 0.85371 0.16943 0.0
H1129 H 0.90394 0.87416 0.14924 0.0
H1130 H 0.80627 0.89642 0.19576 0.0
H1131 H 0.87153 0.81382 0.16421 0.0
C1132 C 0.83703 0.80971 0.15466 0.0
C1133 C 0.80838 0.82159 0.15418 0.0
C1134 C 0.82786 0.89131 0.18619 0.0
C1135 C 0.83258 0.84675 0.17684 0.0
C1136 C 0.8381 0.91183 0.17833 0.0
C1137 C 0.86531 0.90645 0.16339 0.0
C1138 C 0.84486 0.86541 0.17865 0.0
C1139 C 0.88252 0.87942 0.15965 0.0
C1140 C 0.84921 0.82215 0.16614 0.0
C1141 C 0.79224 0.84404 0.16888 0.0
N1142 N 0.87185 0.86004 0.16657 0.0
N1143 N 0.80462 0.85631 0.1789 0.0
H1144 H 0.67743 0.11902 0.57521 0.0
H1145 H 0.60899 0.03549 0.58279 0.0
H1146 H 0.72344 0.08873 0.49122 0.0
H1147 H 0.67456 1.00061 0.5117 0.0
H1148 H 0.63311 0.06236 0.58727 0.0
H1149 H 0.65928 0.08317 0.58938 0.0
C1150 C 0.68376 0.10479 0.5598 0.0
C1151 C 0.7017 0.10719 0.53174 0.0
C1152 C 0.64281 0.04832 0.57131 0.0
C1153 C 0.6807 0.06628 0.54749 0.0
C1154 C 0.62898 0.03288 0.56891 0.0
C1155 C 0.63985 0.01602 0.5468 0.0
C1156 C 0.66765 0.04677 0.55129 0.0
C1157 C 0.66546 0.01363 0.52882 0.0
C1158 C 0.6733 0.0843 0.56786 0.0
C1159 C 0.7098 0.08772 0.51313 0.0
N1160 N 0.6783 0.0291 0.5312 0.0
N1161 N 0.69905 0.06836 0.5212 0.0
H1162 H 0.78292 0.41177 0.28757 0.0
H1163 H 0.94713 0.33988 0.23774 0.0
H1164 H 0.83006 0.4602 0.23651 0.0
H1165 H 0.89238 0.29769 0.27859 0.0
H1166 H 0.907 0.38433 0.24023 0.0
H1167 H 0.82504 0.37035 0.28877 0.0
C1168 C 0.80229 0.4137 0.27667 0.0
C1169 C 0.80286 0.43951 0.26164 0.0
C1170 C 0.90391 0.36529 0.24867 0.0
C1171 C 0.85185 0.39151 0.26254 0.0
C1172 C 0.92677 0.33995 0.24728 0.0
C1173 C 0.92309 0.31501 0.25782 0.0
C1174 C 0.87733 0.36553 0.26095 0.0
C1175 C 0.89628 0.31631 0.26998 0.0
C1176 C 0.82647 0.38991 0.2773 0.0
C1177 C 0.82871 0.44067 0.24831 0.0
N1178 N 0.87465 0.34094 0.27117 0.0
N1179 N 0.85223 0.41692 0.24879 0.0
H1180 H 0.03776 0.65373 0.47042 0.0
H1181 H 0.15654 0.6386 0.55795 0.0
H1182 H 0.0666 0.58774 0.54903 0.0
H1183 H 0.14516 0.68149 0.46282 0.0
H1184 H 0.11679 0.62689 0.56198 0.0
H1185 H 0.06963 0.67224 0.47524 0.0
C1186 C 0.05063 0.6433 0.48888 0.0
C1187 C 0.04997 0.6189 0.50895 0.0
C1188 C 0.12301 0.63897 0.54034 0.0
C1189 C 0.08638 0.63991 0.51462 0.0
C1190 C 0.14558 0.64556 0.53805 0.0
C1191 C 0.15422 0.66053 0.50984 0.0
C1192 C 0.1089 0.648 0.51443 0.0
C1193 C 0.13938 0.66941 0.48473 0.0
C1194 C 0.06877 0.65386 0.49164 0.0
C1195 C 0.06655 0.60658 0.53301 0.0
N1196 N 0.11744 0.663 0.48761 0.0
N1197 N 0.08441 0.61703 0.53496 0.0
H1198 H 0.70051 0.11072 0.76725 0.0
H1199 H 0.53455 0.17948 0.79491 0.0
H1200 H 0.65328 0.06027 0.79397 0.0
H1201 H 0.58881 0.22216 0.77451 0.0
H1202 H 0.57569 0.13551 0.79417 0.0
H1203 H 0.65817 0.15138 0.76878 0.0
C1204 C 0.6811 0.10814 0.77357 0.0
C1205 C 0.68057 0.08191 0.78072 0.0
C1206 C 0.57843 0.15456 0.78995 0.0
C1207 C 0.63111 0.1292 0.78253 0.0
C1208 C 0.55502 0.1796 0.79038 0.0
C1209 C 0.55825 0.20455 0.78478 0.0
C1210 C 0.60509 0.15467 0.78381 0.0
C1211 C 0.58518 0.20355 0.77901 0.0
C1212 C 0.65673 0.13156 0.77444 0.0
C1213 C 0.65462 0.08012 0.78843 0.0
N1214 N 0.60732 0.17922 0.77865 0.0
N1215 N 0.63081 0.10351 0.7892 0.0
H1216 H 0.73304 0.57386 0.16103 0.0
H1217 H 0.78249 0.69748 0.12581 0.0
H1218 H 0.7885 0.57569 0.21349 0.0
H1219 H 0.74474 0.68726 0.05924 0.0
H1220 H 0.78409 0.65313 0.15817 0.0
H1221 H 0.73623 0.61501 0.12374 0.0
C1222 C 0.74614 0.58266 0.1646 0.0
C1223 C 0.76055 0.57105 0.19063 0.0
C1224 C 0.77558 0.66037 0.13642 0.0
C1225 C 0.76394 0.61869 0.14799 0.0
C1226 C 0.77466 0.68579 0.11785 0.0
C1227 C 0.76335 0.69626 0.08972 0.0
C1228 C 0.76475 0.64514 0.12725 0.0
C1229 C 0.75353 0.68007 0.08074 0.0
C1230 C 0.74792 0.60624 0.14323 0.0
C1231 C 0.77706 0.58365 0.19387 0.0
N1232 N 0.75419 0.65548 0.09956 0.0
N1233 N 0.77809 0.60677 0.17309 0.0
H1234 H 0.9457 0.4803 0.47733 0.0
H1235 H 0.86036 0.4401 0.43671 0.0
H1236 H 0.8768 0.52832 0.53653 0.0
H1237 H 0.80185 0.52171 0.4483 0.0
H1238 H 0.88707 0.44024 0.4731 0.0
H1239 H 0.91635 0.46288 0.46516 0.0
C1240 C 0.92444 0.48659 0.48849 0.0
C1241 C 0.91366 0.50565 0.50808 0.0
C1242 C 0.8682 0.45798 0.46793 0.0
C1243 C 0.87936 0.48635 0.49345 0.0
C1244 C 0.85291 0.45786 0.44726 0.0
C1245 C 0.82928 0.48124 0.43872 0.0
C1246 C 0.86004 0.48183 0.47968 0.0
C1247 C 0.82011 0.50335 0.4539 0.0
C1248 C 0.90762 0.47648 0.48165 0.0
C1249 C 0.88582 0.51357 0.52135 0.0
N1250 N 0.83583 0.50334 0.47314 0.0
N1251 N 0.86932 0.50449 0.51303 0.0
H1252 H 0.07742 0.55925 0.6668 0.0
H1253 H 0.0406 0.49982 0.54961 0.0
H1254 H 0.13478 0.52925 0.5872 0.0
H1255 H 0.98635 0.52923 0.63085 0.0
H1256 H 0.07278 0.51731 0.55712 0.0
H1257 H 0.04101 0.55697 0.64708 0.0
C1258 C 0.08235 0.55281 0.64474 0.0
C1259 C 0.10957 0.54387 0.62908 0.0
C1260 C 0.05372 0.52009 0.57312 0.0
C1261 C 0.06777 0.54011 0.60692 0.0
C1262 C 0.03544 0.51008 0.56886 0.0
C1263 C 0.01113 0.51264 0.59 0.0
C1264 C 0.04748 0.53271 0.59866 0.0
C1265 C 0.00517 0.52632 0.61439 0.0
C1266 C 0.06148 0.55117 0.63365 0.0
C1267 C 0.11437 0.53551 0.60068 0.0
N1268 N 0.02328 0.53564 0.61815 0.0
N1269 N 0.09383 0.53331 0.59084 0.0
H1270 H 0.54596 0.74771 0.16045 0.0
H1271 H 0.65863 0.81353 0.09078 0.0
H1272 H 0.54362 0.81689 0.18953 0.0
H1273 H 0.65665 0.7488 0.05679 0.0
H1274 H 0.6149 0.81716 0.12465 0.0
H1275 H 0.58451 0.75003 0.11984 0.0
C1276 C 0.55327 0.76364 0.15808 0.0
C1277 C 0.5415 0.78205 0.17864 0.0
C1278 C 0.62393 0.80232 0.10959 0.0
C1279 C 0.58609 0.78459 0.13225 0.0
C1280 C 0.64894 0.80023 0.09019 0.0
C1281 C 0.66156 0.78069 0.07095 0.0
C1282 C 0.61142 0.78465 0.10995 0.0
C1283 C 0.64788 0.76407 0.07127 0.0
C1284 C 0.57539 0.76491 0.13487 0.0
C1285 C 0.55197 0.80223 0.1743 0.0
N1286 N 0.62374 0.7663 0.09058 0.0
N1287 N 0.5738 0.80278 0.15184 0.0
H1288 H 0.59531 0.5567 0.14679 0.0
H1289 H 0.56087 0.48194 0.04571 0.0
H1290 H 0.65852 0.50533 0.08561 0.0
H1291 H 0.49974 0.54947 0.08787 0.0
H1292 H 0.59739 0.49032 0.0589 0.0
H1293 H 0.56027 0.55605 0.12294 0.0
C1294 C 0.60198 0.54575 0.12788 0.0
C1295 C 0.63012 0.53061 0.11873 0.0
C1296 C 0.57596 0.50344 0.06494 0.0
C1297 C 0.58969 0.52882 0.09214 0.0
C1298 C 0.5552 0.49867 0.05739 0.0
C1299 C 0.52736 0.51502 0.06568 0.0
C1300 C 0.56865 0.52458 0.08106 0.0
C1301 C 0.52098 0.53614 0.08133 0.0
C1302 C 0.58182 0.5451 0.1145 0.0
C1303 C 0.63713 0.51659 0.09422 0.0
N1304 N 0.54143 0.54024 0.08859 0.0
N1305 N 0.61706 0.51561 0.08218 0.0
H1306 H 0.38176 0.42726 0.04684 0.0
H1307 H 0.3307 0.36139 0.99025 0.0
H1308 H 0.33568 0.50266 0.98671 0.0
H1309 H 0.25711 0.43653 0.99154 0.0
H1310 H 0.35828 0.38687 0.98766 0.0
H1311 H 0.36187 0.40315 0.02941 0.0
C1312 C 0.368 0.43874 0.02936 0.0
C1313 C 0.36093 0.46708 1.01777 0.0
C1314 C 0.33611 0.3978 0.98818 0.0
C1315 C 0.33765 0.43932 0.99798 0.0
C1316 C 0.32032 0.38339 0.9892 0.0
C1317 C 0.2914 0.39674 0.99193 0.0
C1318 C 0.32286 0.42559 0.99043 0.0
C1319 C 0.27927 0.4253 0.9905 0.0
C1320 C 0.35668 0.42483 1.01934 0.0
C1321 C 0.34175 0.48087 0.99636 0.0
N1322 N 0.29505 0.43878 0.99042 0.0
N1323 N 0.33045 0.46689 0.98741 0.0
H1324 H 0.09527 0.21828 0.269 0.0
H1325 H 0.16317 0.05378 0.29023 0.0
H1326 H 0.044 0.17181 0.29762 0.0
H1327 H 0.207 0.10463 0.28285 0.0
H1328 H 0.1193 0.09517 0.29026 0.0
H1329 H 0.13611 0.17575 0.27046 0.0
C1330 C 0.09254 0.19902 0.2757 0.0
C1331 C 0.06602 0.19875 0.28343 0.0
C1332 C 0.13855 0.09713 0.28881 0.0
C1333 C 0.11346 0.14917 0.28508 0.0
C1334 C 0.16356 0.07356 0.28879 0.0
C1335 C 0.18881 0.07573 0.28662 0.0
C1336 C 0.13896 0.12299 0.28632 0.0
C1337 C 0.18813 0.10185 0.28463 0.0
C1338 C 0.11605 0.17458 0.27658 0.0
C1339 C 0.06405 0.17298 0.29169 0.0
N1340 N 0.16379 0.12427 0.28442 0.0
N1341 N 0.08749 0.14915 0.29227 0.0
H1342 H 0.19689 0.32574 0.90384 0.0
H1343 H 0.25206 0.44566 0.86628 0.0
H1344 H 0.23951 0.33231 0.96793 0.0
H1345 H 0.19149 0.44791 0.81799 0.0
H1346 H 0.24894 0.40431 0.90333 0.0
H1347 H 0.19585 0.37009 0.8718 0.0
C1348 C 0.20588 0.33667 0.91135 0.0
C1349 C 0.21827 0.3253 0.93877 0.0
C1350 C 0.23615 0.41403 0.88479 0.0
C1351 C 0.21763 0.37628 0.90161 0.0
C1352 C 0.23789 0.43772 0.86357 0.0
C1353 C 0.22199 0.45053 0.83878 0.0
C1354 C 0.21867 0.40271 0.88108 0.0
C1355 C 0.20413 0.439 0.83662 0.0
C1356 C 0.20529 0.36207 0.89298 0.0
C1357 C 0.22967 0.34044 0.94715 0.0
N1358 N 0.20316 0.41578 0.85719 0.0
N1359 N 0.22935 0.36498 0.92855 0.0
H1360 H 0.31964 0.2147 0.93826 0.0
H1361 H 0.43022 0.2827 0.8652 0.0
H1362 H 0.31929 0.28216 0.96911 0.0
H1363 H 0.43541 0.21023 0.84079 0.0
H1364 H 0.39124 0.28113 0.90551 0.0
H1365 H 0.36328 0.21124 0.90444 0.0
C1366 C 0.32876 0.2287 0.93813 0.0
C1367 C 0.31552 0.24888 0.95656 0.0
C1368 C 0.40107 0.26539 0.89157 0.0
C1369 C 0.36565 0.24506 0.91758 0.0
C1370 C 0.42343 0.26623 0.86854 0.0
C1371 C 0.43614 0.24663 0.84938 0.0
C1372 C 0.39109 0.24493 0.89541 0.0
C1373 C 0.42633 0.22579 0.85493 0.0
C1374 C 0.35376 0.22667 0.91878 0.0
C1375 C 0.32855 0.26632 0.95534 0.0
N1376 N 0.40427 0.22566 0.87718 0.0
N1377 N 0.35271 0.26413 0.93606 0.0
H1378 H 0.41932 0.55471 0.96783 0.0
H1379 H 0.38364 0.45232 0.90706 0.0
H1380 H 0.4798 0.48205 0.93436 0.0
H1381 H 0.32693 0.53604 0.91171 0.0
H1382 H 0.41603 0.45822 0.93091 0.0
H1383 H 0.38241 0.54379 0.95971 0.0
C1384 C 0.42477 0.53637 0.95912 0.0
C1385 C 0.45255 0.51924 0.95185 0.0
C1386 C 0.39631 0.47517 0.92706 0.0
C1387 C 0.41085 0.5067 0.94245 0.0
C1388 C 0.37783 0.47178 0.91354 0.0
C1389 C 0.35272 0.49381 0.907 0.0
C1390 C 0.38972 0.50084 0.93386 0.0
C1391 C 0.34604 0.51847 0.91635 0.0
C1392 C 0.40381 0.53019 0.95442 0.0
C1393 C 0.45863 0.49596 0.94007 0.0
N1394 N 0.36462 0.52147 0.92887 0.0
N1395 N 0.43799 0.49037 0.93577 0.0
H1396 H 0.65944 0.6469 0.05322 0.0
H1397 H 0.58786 0.57357 0.04295 0.0
H1398 H 0.61074 0.712 0.98557 0.0
H1399 H 0.58721 0.62369 0.94977 0.0
H1400 H 0.59583 0.60698 0.06118 0.0
H1401 H 0.63141 0.62133 0.05726 0.0
C1402 C 0.64209 0.6563 0.04019 0.0
C1403 C 0.63781 0.68113 1.01832 0.0
C1404 C 0.59378 0.61063 0.03682 0.0
C1405 C 0.60587 0.65212 0.02264 0.0
C1406 C 0.5895 0.59149 0.02634 0.0
C1407 C 0.58764 0.59542 0.99463 0.0
C1408 C 0.59607 0.63385 1.01532 0.0
C1409 C 0.58859 0.61966 0.97439 0.0
C1410 C 0.62601 0.64171 0.04255 0.0
C1411 C 0.61515 0.69246 1.00198 0.0
N1412 N 0.59294 0.63782 0.98506 0.0
N1413 N 0.60048 0.67747 1.00378 0.0
H1414 H 0.94142 0.84819 0.73715 0.0
H1415 H 0.77527 0.91317 0.76601 0.0
H1416 H 0.88935 0.80263 0.76427 0.0
H1417 H 0.82092 0.96522 0.73293 0.0
H1418 H 0.81829 0.87289 0.767 0.0
H1419 H 0.89938 0.89147 0.73664 0.0
C1420 C 0.92124 0.84728 0.74297 0.0
C1421 C 0.91889 0.82174 0.75061 0.0
C1422 C 0.8192 0.89299 0.75943 0.0
C1423 C 0.871 0.87086 0.75021 0.0
C1424 C 0.79446 0.91616 0.75885 0.0
C1425 C 0.79438 0.9427 0.74916 0.0
C1426 C 0.84453 0.89599 0.75022 0.0
C1427 C 0.82005 0.9451 0.74042 0.0
C1428 C 0.8973 0.87194 0.74267 0.0
C1429 C 0.89228 0.82174 0.75808 0.0
N1430 N 0.84418 0.922 0.74108 0.0
N1431 N 0.86961 0.84573 0.75767 0.0
H1432 H 0.53743 0.13444 0.62269 0.0
H1433 H 0.4477 0.11048 0.52725 0.0
H1434 H 0.45158 0.18659 0.61512 0.0
H1435 H 0.53552 0.06375 0.52749 0.0
H1436 H 0.44999 0.14251 0.55332 0.0
H1437 H 0.53843 0.11193 0.58268 0.0
C1438 C 0.51892 0.14153 0.6122 0.0
C1439 C 0.49431 0.1623 0.62251 0.0
C1440 C 0.46885 0.12552 0.54715 0.0
C1441 C 0.49519 0.13631 0.57691 0.0
C1442 C 0.46759 0.1073 0.53202 0.0
C1443 C 0.49136 0.08412 0.52547 0.0
C1444 C 0.49402 0.12043 0.55599 0.0
C1445 C 0.51655 0.08114 0.53233 0.0
C1446 C 0.51946 0.12856 0.58942 0.0
C1447 C 0.47087 0.17032 0.60832 0.0
N1448 N 0.51712 0.09877 0.54766 0.0
N1449 N 0.47181 0.15715 0.5865 0.0
H1450 H 0.54597 0.3445 0.89081 0.0
H1451 H 0.45894 0.44779 1.00718 0.0
H1452 H 0.45743 0.37353 0.91667 0.0
H1453 H 0.54622 0.42536 0.9756 0.0
H1454 H 0.45977 0.41392 0.98204 0.0
H1455 H 0.54795 0.36756 0.92862 0.0
C1456 C 0.52696 0.35555 0.9046 0.0
C1457 C 0.50144 0.35735 0.90022 0.0
C1458 C 0.47889 0.41599 0.98105 0.0
C1459 C 0.5036 0.38369 0.94373 0.0
C1460 C 0.47848 0.43524 0.99577 0.0
C1461 C 0.50248 0.43965 0.99358 0.0
C1462 C 0.50353 0.40094 0.96379 0.0
C1463 C 0.52714 0.42285 0.97785 0.0
C1464 C 0.52813 0.36862 0.92628 0.0
C1465 C 0.47757 0.37147 0.91926 0.0
N1466 N 0.52695 0.40449 0.96323 0.0
N1467 N 0.47921 0.38432 0.9399 0.0
H1468 H 0.5218 0.83799 0.41554 0.0
H1469 H 0.43535 0.95679 0.51345 0.0
H1470 H 0.43508 0.88952 0.41344 0.0
H1471 H 0.52406 0.91426 0.50495 0.0
H1472 H 0.43363 0.92569 0.48577 0.0
H1473 H 0.52158 0.85941 0.45625 0.0
C1474 C 0.50257 0.85346 0.42399 0.0
C1475 C 0.47845 0.86204 0.41083 0.0
C1476 C 0.45345 0.92285 0.49038 0.0
C1477 C 0.47818 0.88692 0.4573 0.0
C1478 C 0.45444 0.94054 0.50642 0.0
C1479 C 0.47989 0.93851 0.51125 0.0
C1480 C 0.47814 0.90284 0.47898 0.0
C1481 C 0.50394 0.91676 0.50172 0.0
C1482 C 0.50253 0.86582 0.44712 0.0
C1483 C 0.45427 0.88251 0.4225 0.0
N1484 N 0.50252 0.90005 0.48562 0.0
N1485 N 0.45481 0.89434 0.44488 0.0
H1486 H 0.52493 0.5839 1.01144 0.0
H1487 H 0.43706 0.69046 0.12423 0.0
H1488 H 0.43658 0.61104 0.0383 0.0
H1489 H 0.52624 0.65478 0.10678 0.0
H1490 H 0.43586 0.66853 0.08485 0.0
H1491 H 0.52482 0.61703 0.03744 0.0
C1492 C 0.50535 0.59734 0.02202 0.0
C1493 C 0.48071 0.59453 0.02268 0.0
C1494 C 0.45569 0.66574 0.08938 0.0
C1495 C 0.48058 0.63226 0.05328 0.0
C1496 C 0.45641 0.67818 0.11195 0.0
C1497 C 0.4818 0.67412 0.11924 0.0
C1498 C 0.48054 0.64904 0.0739 0.0
C1499 C 0.50618 0.65853 0.10198 0.0
C1500 C 0.50537 0.61611 0.0372 0.0
C1501 C 0.45609 0.61232 0.0373 0.0
N1502 N 0.50494 0.64631 0.0804 0.0
N1503 N 0.4567 0.63019 0.05232 0.0
loop_
_geom_bond_atom_site_label_1
_geom_bond_atom_site_label_2
_geom_bond_distance
_geom_bond_site_symmetry_2
_ccdc_geom_bond_type
Ho0 C3 2.811 . S
Ho0 O20 2.319 1_655 S
Ho0 O22 2.378 . S
Ho0 O23 2.524 . S
Ho0 O24 2.381 1_655 S
Ho0 O25 2.669 1_655 S
Ho0 O27 2.346 1_565 S
Ho0 O31 2.305 1_564 S
Ho1 C12 2.811 . S
Ho1 O21 2.346 1_545 S
Ho1 O25 2.305 1_546 S
Ho1 O26 2.318 1_456 S
Ho1 O28 2.378 . S
Ho1 O29 2.524 . S
Ho1 O30 2.381 1_455 S
Ho1 O31 2.669 1_455 S
C2 O20 1.263 1_556 S
C2 O21 1.268 . S
C3 Ho0 2.811 . S
C3 C4 1.488 . S
C3 O22 1.215 . S
C3 O23 1.289 . S
C4 C3 1.488 . S
C4 C5 1.348 . S
C4 C9 1.413 . S
C5 C4 1.348 . S
C5 C6 1.442 . S
C5 H32 0.930 1_554 S
C6 C5 1.442 . S
C6 C7 1.381 . S
C6 H33 0.931 . S
C7 C6 1.381 . S
C7 C8 1.321 . S
C8 C7 1.321 . S
C8 C9 1.403 . S
C8 H34 0.934 . S
C9 C4 1.413 . S
C9 C8 1.403 . S
C9 H35 0.930 . S
C10 O24 1.275 . S
C10 O25 1.256 . S
C11 O26 1.263 . S
C11 O27 1.268 . S
C12 Ho1 2.811 . S
C12 C13 1.488 . S
C12 O28 1.215 . S
C12 O29 1.289 . S
C13 C12 1.488 . S
C13 C14 1.348 . S
C13 C18 1.413 . S
C14 C13 1.348 . S
C14 C15 1.442 . S
C14 H36 0.930 1_556 S
C15 C14 1.442 . S
C15 C16 1.381 . S
C15 H37 0.931 . S
C16 C15 1.381 . S
C16 C17 1.321 . S
C17 C16 1.321 . S
C17 C18 1.403 . S
C17 H38 0.934 . S
C18 C13 1.413 . S
C18 C17 1.403 . S
C18 H39 0.930 . S
C19 O30 1.275 . S
C19 O31 1.256 . S
O20 Ho0 2.319 1_455 S
O20 C2 1.263 1_554 S
O21 Ho1 2.346 1_565 S
O21 C2 1.268 . S
O22 Ho0 2.378 . S
O22 C3 1.215 . S
O23 Ho0 2.524 . S
O23 C3 1.289 . S
O24 Ho0 2.381 1_455 S
O24 C10 1.275 . S
O25 Ho0 2.669 1_455 S
O25 Ho1 2.305 1_564 S
O25 C10 1.256 . S
O26 Ho1 2.318 1_654 S
O26 C11 1.263 . S
O27 Ho0 2.346 1_545 S
O27 C11 1.268 . S
O28 Ho1 2.378 . S
O28 C12 1.215 . S
O29 Ho1 2.524 . S
O29 C12 1.289 . S
O30 Ho1 2.381 1_655 S
O30 C19 1.275 . S
O31 Ho0 2.305 1_546 S
O31 Ho1 2.669 1_655 S
O31 C19 1.256 . S
H32 C5 0.930 1_556 S
H33 C6 0.931 . S
H34 C8 0.934 . S
H35 C9 0.930 . S
H36 C14 0.930 1_554 S
H37 C15 0.931 . S
H38 C17 0.934 . S
H39 C18 0.930 . S
Ho40 C43 2.811 . S
Ho40 O60 2.322 1_455 S
Ho40 O62 2.378 . S
Ho40 O63 2.524 1_455 S
Ho40 O64 2.381 . S
Ho40 O65 2.669 . S
Ho40 O67 2.346 . S
Ho40 O71 2.305 1_455 S
Ho41 C52 2.811 . S
Ho41 O61 2.346 . S
Ho41 O65 2.305 1_655 S
Ho41 O66 2.322 1_655 S
Ho41 O68 2.378 . S
Ho41 O69 2.524 1_655 S
Ho41 O70 2.381 . S
Ho41 O71 2.669 . S
C42 O60 1.259 . S
C42 O61 1.268 . S
C43 Ho40 2.811 . S
C43 C44 1.488 1_455 S
C43 O62 1.215 . S
C43 O63 1.289 1_455 S
C44 C43 1.488 1_655 S
C44 C45 1.348 . S
C44 C49 1.413 1_655 S
C45 C44 1.348 . S
C45 C46 1.442 . S
C45 H72 0.930 . S
C46 C45 1.442 . S
C46 C47 1.381 . S
C46 H73 0.931 . S
C47 C46 1.381 . S
C47 C48 1.321 1_655 S
C48 C47 1.321 1_455 S
C48 C49 1.403 . S
C48 H74 0.934 . S
C49 C44 1.413 1_455 S
C49 C48 1.403 . S
C49 H75 0.930 . S
C50 O64 1.275 . S
C50 O65 1.256 . S
C51 O66 1.259 . S
C51 O67 1.268 . S
C52 Ho41 2.811 . S
C52 C53 1.488 1_655 S
C52 O68 1.215 . S
C52 O69 1.289 1_655 S
C53 C52 1.488 1_455 S
C53 C54 1.348 . S
C53 C58 1.413 1_455 S
C54 C53 1.348 . S
C54 C55 1.442 . S
C54 H76 0.930 . S
C55 C54 1.442 . S
C55 C56 1.381 . S
C55 H77 0.931 . S
C56 C55 1.381 . S
C56 C57 1.321 1_455 S
C57 C56 1.321 1_655 S
C57 C58 1.403 . S
C57 H78 0.934 . S
C58 C53 1.413 1_655 S
C58 C57 1.403 . S
C58 H79 0.930 . S
C59 O70 1.275 . S
C59 O71 1.256 . S
O60 Ho40 2.322 1_655 S
O60 C42 1.259 . S
O61 Ho41 2.346 . S
O61 C42 1.268 . S
O62 Ho40 2.378 . S
O62 C43 1.215 . S
O63 Ho40 2.524 1_655 S
O63 C43 1.289 1_655 S
O64 Ho40 2.381 . S
O64 C50 1.275 . S
O65 Ho40 2.669 . S
O65 Ho41 2.305 1_455 S
O65 C50 1.256 . S
O66 Ho41 2.322 1_455 S
O66 C51 1.259 . S
O67 Ho40 2.346 . S
O67 C51 1.268 . S
O68 Ho41 2.378 . S
O68 C52 1.215 . S
O69 Ho41 2.524 1_455 S
O69 C52 1.289 1_455 S
O70 Ho41 2.381 . S
O70 C59 1.275 . S
O71 Ho40 2.305 1_655 S
O71 Ho41 2.669 . S
O71 C59 1.256 . S
H72 C45 0.930 . S
H73 C46 0.931 . S
H74 C48 0.934 . S
H75 C49 0.930 . S
H76 C54 0.930 . S
H77 C55 0.931 . S
H78 C57 0.934 . S
H79 C58 0.930 . S
Ho80 C83 2.811 . S
Ho80 O100 2.322 . S
Ho80 O102 2.378 . S
Ho80 O103 2.524 . S
Ho80 O104 2.381 . S
Ho80 O105 2.669 . S
Ho80 O107 2.346 . S
Ho80 O111 2.305 . S
Ho81 C92 2.811 . S
Ho81 O101 2.346 . S
Ho81 O105 2.305 . S
Ho81 O106 2.322 . S
Ho81 O108 2.378 . S
Ho81 O109 2.524 . S
Ho81 O110 2.381 . S
Ho81 O111 2.669 . S
C82 O100 1.259 . S
C82 O101 1.268 . S
C83 Ho80 2.811 . S
C83 C84 1.488 . S
C83 O102 1.215 . S
C83 O103 1.289 . S
C84 C83 1.488 . S
C84 C85 1.348 . S
C84 C89 1.413 . S
C85 C84 1.348 . S
C85 C86 1.442 . S
C85 H112 0.930 . S
C86 C85 1.442 . S
C86 C87 1.381 . S
C86 H113 0.931 . S
C87 C86 1.381 . S
C87 C88 1.321 . S
C88 C87 1.321 . S
C88 C89 1.403 . S
C88 H114 0.934 . S
C89 C84 1.413 . S
C89 C88 1.403 . S
C89 H115 0.930 . S
C90 O104 1.275 . S
C90 O105 1.256 . S
C91 O106 1.259 . S
C91 O107 1.268 . S
C92 Ho81 2.811 . S
C92 C93 1.488 . S
C92 O108 1.215 . S
C92 O109 1.289 . S
C93 C92 1.488 . S
C93 C94 1.348 . S
C93 C98 1.413 . S
C94 C93 1.348 . S
C94 C95 1.442 . S
C94 H116 0.930 . S
C95 C94 1.442 . S
C95 C96 1.381 . S
C95 H117 0.931 . S
C96 C95 1.381 . S
C96 C97 1.321 . S
C97 C96 1.321 . S
C97 C98 1.403 . S
C97 H118 0.934 . S
C98 C93 1.413 . S
C98 C97 1.403 . S
C98 H119 0.930 . S
C99 O110 1.275 . S
C99 O111 1.256 . S
O100 Ho80 2.322 . S
O100 C82 1.259 . S
O101 Ho81 2.346 . S
O101 C82 1.268 . S
O102 Ho80 2.378 . S
O102 C83 1.215 . S
O103 Ho80 2.524 . S
O103 C83 1.289 . S
O104 Ho80 2.381 . S
O104 C90 1.275 . S
O105 Ho80 2.669 . S
O105 Ho81 2.305 . S
O105 C90 1.256 . S
O106 Ho81 2.322 . S
O106 C91 1.259 . S
O107 Ho80 2.346 . S
O107 C91 1.268 . S
O108 Ho81 2.378 . S
O108 C92 1.215 . S
O109 Ho81 2.524 . S
O109 C92 1.289 . S
O110 Ho81 2.381 . S
O110 C99 1.275 . S
O111 Ho80 2.305 . S
O111 Ho81 2.669 . S
O111 C99 1.256 . S
H112 C85 0.930 . S
H113 C86 0.931 . S
H114 C88 0.934 . S
H115 C89 0.930 . S
H116 C94 0.930 . S
H117 C95 0.931 . S
H118 C97 0.934 . S
H119 C98 0.930 . S
Ho120 C123 2.811 . S
Ho120 O140 2.322 1_565 S
Ho120 O142 2.378 . S
Ho120 O143 2.524 1_565 S
Ho120 O144 2.381 . S
Ho120 O145 2.669 . S
Ho120 O147 2.346 . S
Ho120 O151 2.305 1_565 S
Ho121 C132 2.811 . S
Ho121 O141 2.346 . S
Ho121 O145 2.305 1_545 S
Ho121 O146 2.322 1_545 S
Ho121 O148 2.378 . S
Ho121 O149 2.524 1_545 S
Ho121 O150 2.381 . S
Ho121 O151 2.669 . S
C122 O140 1.259 . S
C122 O141 1.268 . S
C123 Ho120 2.811 . S
C123 C124 1.488 1_565 S
C123 O142 1.215 . S
C123 O143 1.289 1_565 S
C124 C123 1.488 1_545 S
C124 C125 1.348 . S
C124 C129 1.413 1_545 S
C125 C124 1.348 . S
C125 C126 1.442 . S
C125 H152 0.930 . S
C126 C125 1.442 . S
C126 C127 1.381 . S
C126 H153 0.931 . S
C127 C126 1.381 . S
C127 C128 1.321 1_545 S
C128 C127 1.321 1_565 S
C128 C129 1.403 . S
C128 H154 0.934 . S
C129 C124 1.413 1_565 S
C129 C128 1.403 . S
C129 H155 0.930 . S
C130 O144 1.275 . S
C130 O145 1.256 . S
C131 O146 1.259 . S
C131 O147 1.268 . S
C132 Ho121 2.811 . S
C132 C133 1.488 1_545 S
C132 O148 1.215 . S
C132 O149 1.289 1_545 S
C133 C132 1.488 1_565 S
C133 C134 1.348 . S
C133 C138 1.413 1_565 S
C134 C133 1.348 . S
C134 C135 1.442 . S
C134 H156 0.930 . S
C135 C134 1.442 . S
C135 C136 1.381 . S
C135 H157 0.931 . S
C136 C135 1.381 . S
C136 C137 1.321 1_565 S
C137 C136 1.321 1_545 S
C137 C138 1.403 . S
C137 H158 0.934 . S
C138 C133 1.413 1_545 S
C138 C137 1.403 . S
C138 H159 0.930 . S
C139 O150 1.275 . S
C139 O151 1.256 . S
O140 Ho120 2.322 1_545 S
O140 C122 1.259 . S
O141 Ho121 2.346 . S
O141 C122 1.268 . S
O142 Ho120 2.378 . S
O142 C123 1.215 . S
O143 Ho120 2.524 1_545 S
O143 C123 1.289 1_545 S
O144 Ho120 2.381 . S
O144 C130 1.275 . S
O145 Ho120 2.669 . S
O145 Ho121 2.305 1_565 S
O145 C130 1.256 . S
O146 Ho121 2.322 1_565 S
O146 C131 1.259 . S
O147 Ho120 2.346 . S
O147 C131 1.268 . S
O148 Ho121 2.378 . S
O148 C132 1.215 . S
O149 Ho121 2.524 1_565 S
O149 C132 1.289 1_565 S
O150 Ho121 2.381 . S
O150 C139 1.275 . S
O151 Ho120 2.305 1_545 S
O151 Ho121 2.669 . S
O151 C139 1.256 . S
H152 C125 0.930 . S
H153 C126 0.931 . S
H154 C128 0.934 . S
H155 C129 0.930 . S
H156 C134 0.930 . S
H157 C135 0.931 . S
H158 C137 0.934 . S
H159 C138 0.930 . S
Ho160 C163 2.811 . S
Ho160 O180 2.322 . S
Ho160 O182 2.378 . S
Ho160 O183 2.524 . S
Ho160 O184 2.381 . S
Ho160 O185 2.669 . S
Ho160 O187 2.346 . S
Ho160 O191 2.305 . S
Ho161 C172 2.811 . S
Ho161 O181 2.346 . S
Ho161 O185 2.305 . S
Ho161 O186 2.322 . S
Ho161 O188 2.378 . S
Ho161 O189 2.524 . S
Ho161 O190 2.381 . S
Ho161 O191 2.669 . S
C162 O180 1.259 . S
C162 O181 1.268 . S
C163 Ho160 2.811 . S
C163 C164 1.488 . S
C163 O182 1.215 . S
C163 O183 1.289 . S
C164 C163 1.488 . S
C164 C165 1.348 . S
C164 C169 1.413 . S
C165 C164 1.348 . S
C165 C166 1.442 . S
C165 H192 0.930 . S
C166 C165 1.442 . S
C166 C167 1.381 . S
C166 H193 0.931 . S
C167 C166 1.381 . S
C167 C168 1.321 . S
C168 C167 1.321 . S
C168 C169 1.403 . S
C168 H194 0.934 . S
C169 C164 1.413 . S
C169 C168 1.403 . S
C169 H195 0.930 . S
C170 O184 1.275 . S
C170 O185 1.256 . S
C171 O186 1.259 . S
C171 O187 1.268 . S
C172 Ho161 2.811 . S
C172 C173 1.488 . S
C172 O188 1.215 . S
C172 O189 1.289 . S
C173 C172 1.488 . S
C173 C174 1.348 . S
C173 C178 1.413 . S
C174 C173 1.348 . S
C174 C175 1.442 . S
C174 H196 0.930 . S
C175 C174 1.442 . S
C175 C176 1.381 . S
C175 H197 0.931 . S
C176 C175 1.381 . S
C176 C177 1.321 . S
C177 C176 1.321 . S
C177 C178 1.403 . S
C177 H198 0.934 . S
C178 C173 1.413 . S
C178 C177 1.403 . S
C178 H199 0.930 . S
C179 O190 1.275 . S
C179 O191 1.256 . S
O180 Ho160 2.322 . S
O180 C162 1.259 . S
O181 Ho161 2.346 . S
O181 C162 1.268 . S
O182 Ho160 2.378 . S
O182 C163 1.215 . S
O183 Ho160 2.524 . S
O183 C163 1.289 . S
O184 Ho160 2.381 . S
O184 C170 1.275 . S
O185 Ho160 2.669 . S
O185 Ho161 2.305 . S
O185 C170 1.256 . S
O186 Ho161 2.322 . S
O186 C171 1.259 . S
O187 Ho160 2.346 . S
O187 C171 1.268 . S
O188 Ho161 2.378 . S
O188 C172 1.215 . S
O189 Ho161 2.524 . S
O189 C172 1.289 . S
O190 Ho161 2.381 . S
O190 C179 1.275 . S
O191 Ho160 2.305 . S
O191 Ho161 2.669 . S
O191 C179 1.256 . S
H192 C165 0.930 . S
H193 C166 0.931 . S
H194 C168 0.934 . S
H195 C169 0.930 . S
H196 C174 0.930 . S
H197 C175 0.931 . S
H198 C177 0.934 . S
H199 C178 0.930 . S
Ho200 C203 2.811 . S
Ho200 O220 2.322 . S
Ho200 O222 2.378 . S
Ho200 O223 2.524 . S
Ho200 O224 2.381 . S
Ho200 O225 2.669 . S
Ho200 O227 2.346 . S
Ho200 O231 2.305 . S
Ho201 C212 2.811 . S
Ho201 O221 2.346 . S
Ho201 O225 2.305 . S
Ho201 O226 2.322 . S
Ho201 O228 2.378 . S
Ho201 O229 2.524 . S
Ho201 O230 2.381 . S
Ho201 O231 2.669 . S
C202 O220 1.259 . S
C202 O221 1.268 . S
C203 Ho200 2.811 . S
C203 C204 1.488 . S
C203 O222 1.215 . S
C203 O223 1.289 . S
C204 C203 1.488 . S
C204 C205 1.348 . S
C204 C209 1.413 . S
C205 C204 1.348 . S
C205 C206 1.442 . S
C205 H232 0.930 . S
C206 C205 1.442 . S
C206 C207 1.381 . S
C206 H233 0.931 . S
C207 C206 1.381 . S
C207 C208 1.321 . S
C208 C207 1.321 . S
C208 C209 1.403 . S
C208 H234 0.934 . S
C209 C204 1.413 . S
C209 C208 1.403 . S
C209 H235 0.930 . S
C210 O224 1.275 . S
C210 O225 1.256 . S
C211 O226 1.259 . S
C211 O227 1.268 . S
C212 Ho201 2.811 . S
C212 C213 1.488 . S
C212 O228 1.215 . S
C212 O229 1.289 . S
C213 C212 1.488 . S
C213 C214 1.348 . S
C213 C218 1.413 . S
C214 C213 1.348 . S
C214 C215 1.442 . S
C214 H236 0.930 . S
C215 C214 1.442 . S
C215 C216 1.381 . S
C215 H237 0.931 . S
C216 C215 1.381 . S
C216 C217 1.321 . S
C217 C216 1.321 . S
C217 C218 1.403 . S
C217 H238 0.934 . S
C218 C213 1.413 . S
C218 C217 1.403 . S
C218 H239 0.930 . S
C219 O230 1.275 . S
C219 O231 1.256 . S
O220 Ho200 2.322 . S
O220 C202 1.259 . S
O221 Ho201 2.346 . S
O221 C202 1.268 . S
O222 Ho200 2.378 . S
O222 C203 1.215 . S
O223 Ho200 2.524 . S
O223 C203 1.289 . S
O224 Ho200 2.381 . S
O224 C210 1.275 . S
O225 Ho200 2.669 . S
O225 Ho201 2.305 . S
O225 C210 1.256 . S
O226 Ho201 2.322 . S
O226 C211 1.259 . S
O227 Ho200 2.346 . S
O227 C211 1.268 . S
O228 Ho201 2.378 . S
O228 C212 1.215 . S
O229 Ho201 2.524 . S
O229 C212 1.289 . S
O230 Ho201 2.381 . S
O230 C219 1.275 . S
O231 Ho200 2.305 . S
O231 Ho201 2.669 . S
O231 C219 1.256 . S
H232 C205 0.930 . S
H233 C206 0.931 . S
H234 C208 0.934 . S
H235 C209 0.930 . S
H236 C214 0.930 . S
H237 C215 0.931 . S
H238 C217 0.934 . S
H239 C218 0.930 . S
Ho240 C243 2.811 . S
Ho240 O260 2.322 . S
Ho240 O262 2.378 . S
Ho240 O263 2.524 . S
Ho240 O264 2.381 . S
Ho240 O265 2.669 . S
Ho240 O267 2.346 . S
Ho240 O271 2.305 . S
Ho241 C252 2.811 . S
Ho241 O261 2.346 . S
Ho241 O265 2.305 . S
Ho241 O266 2.322 . S
Ho241 O268 2.378 . S
Ho241 O269 2.524 . S
Ho241 O270 2.381 . S
Ho241 O271 2.669 . S
C242 O260 1.259 . S
C242 O261 1.268 . S
C243 Ho240 2.811 . S
C243 C244 1.488 . S
C243 O262 1.215 . S
C243 O263 1.289 . S
C244 C243 1.488 . S
C244 C245 1.348 . S
C244 C249 1.413 . S
C245 C244 1.348 . S
C245 C246 1.442 . S
C245 H272 0.930 . S
C246 C245 1.442 . S
C246 C247 1.381 . S
C246 H273 0.931 . S
C247 C246 1.381 . S
C247 C248 1.321 . S
C248 C247 1.321 . S
C248 C249 1.403 . S
C248 H274 0.934 . S
C249 C244 1.413 . S
C249 C248 1.403 . S
C249 H275 0.930 . S
C250 O264 1.275 . S
C250 O265 1.256 . S
C251 O266 1.259 . S
C251 O267 1.268 . S
C252 Ho241 2.811 . S
C252 C253 1.488 . S
C252 O268 1.215 . S
C252 O269 1.289 . S
C253 C252 1.488 . S
C253 C254 1.348 . S
C253 C258 1.413 . S
C254 C253 1.348 . S
C254 C255 1.442 . S
C254 H276 0.930 . S
C255 C254 1.442 . S
C255 C256 1.381 . S
C255 H277 0.931 . S
C256 C255 1.381 . S
C256 C257 1.321 . S
C257 C256 1.321 . S
C257 C258 1.403 . S
C257 H278 0.934 . S
C258 C253 1.413 . S
C258 C257 1.403 . S
C258 H279 0.930 . S
C259 O270 1.275 . S
C259 O271 1.256 . S
O260 Ho240 2.322 . S
O260 C242 1.259 . S
O261 Ho241 2.346 . S
O261 C242 1.268 . S
O262 Ho240 2.378 . S
O262 C243 1.215 . S
O263 Ho240 2.524 . S
O263 C243 1.289 . S
O264 Ho240 2.381 . S
O264 C250 1.275 . S
O265 Ho240 2.669 . S
O265 Ho241 2.305 . S
O265 C250 1.256 . S
O266 Ho241 2.322 . S
O266 C251 1.259 . S
O267 Ho240 2.346 . S
O267 C251 1.268 . S
O268 Ho241 2.378 . S
O268 C252 1.215 . S
O269 Ho241 2.524 . S
O269 C252 1.289 . S
O270 Ho241 2.381 . S
O270 C259 1.275 . S
O271 Ho240 2.305 . S
O271 Ho241 2.669 . S
O271 C259 1.256 . S
H272 C245 0.930 . S
H273 C246 0.931 . S
H274 C248 0.934 . S
H275 C249 0.930 . S
H276 C254 0.930 . S
H277 C255 0.931 . S
H278 C257 0.934 . S
H279 C258 0.930 . S
Ho280 C283 2.811 . S
Ho280 O300 2.322 1_655 S
Ho280 O302 2.378 . S
Ho280 O303 2.524 . S
Ho280 O304 2.381 1_655 S
Ho280 O305 2.669 1_655 S
Ho280 O307 2.346 . S
Ho280 O311 2.305 . S
Ho281 C292 2.811 . S
Ho281 O301 2.346 . S
Ho281 O305 2.305 . S
Ho281 O306 2.322 1_455 S
Ho281 O308 2.378 . S
Ho281 O309 2.524 . S
Ho281 O310 2.381 1_455 S
Ho281 O311 2.669 1_455 S
C282 O300 1.259 . S
C282 O301 1.268 . S
C283 Ho280 2.811 . S
C283 C284 1.488 . S
C283 O302 1.215 . S
C283 O303 1.289 . S
C284 C283 1.488 . S
C284 C285 1.348 . S
C284 C289 1.413 . S
C285 C284 1.348 . S
C285 C286 1.442 . S
C285 H312 0.930 . S
C286 C285 1.442 . S
C286 C287 1.381 . S
C286 H313 0.931 . S
C287 C286 1.381 . S
C287 C288 1.321 . S
C288 C287 1.321 . S
C288 C289 1.403 . S
C288 H314 0.934 . S
C289 C284 1.413 . S
C289 C288 1.403 . S
C289 H315 0.930 . S
C290 O304 1.275 . S
C290 O305 1.256 . S
C291 O306 1.259 . S
C291 O307 1.268 . S
C292 Ho281 2.811 . S
C292 C293 1.488 . S
C292 O308 1.215 . S
C292 O309 1.289 . S
C293 C292 1.488 . S
C293 C294 1.348 . S
C293 C298 1.413 . S
C294 C293 1.348 . S
C294 C295 1.442 . S
C294 H316 0.930 . S
C295 C294 1.442 . S
C295 C296 1.381 . S
C295 H317 0.931 . S
C296 C295 1.381 . S
C296 C297 1.321 . S
C297 C296 1.321 . S
C297 C298 1.403 . S
C297 H318 0.934 . S
C298 C293 1.413 . S
C298 C297 1.403 . S
C298 H319 0.930 . S
C299 O310 1.275 . S
C299 O311 1.256 . S
O300 Ho280 2.322 1_455 S
O300 C282 1.259 . S
O301 Ho281 2.346 . S
O301 C282 1.268 . S
O302 Ho280 2.378 . S
O302 C283 1.215 . S
O303 Ho280 2.524 . S
O303 C283 1.289 . S
O304 Ho280 2.381 1_455 S
O304 C290 1.275 . S
O305 Ho280 2.669 1_455 S
O305 Ho281 2.305 . S
O305 C290 1.256 . S
O306 Ho281 2.322 1_655 S
O306 C291 1.259 . S
O307 Ho280 2.346 . S
O307 C291 1.268 . S
O308 Ho281 2.378 . S
O308 C292 1.215 . S
O309 Ho281 2.524 . S
O309 C292 1.289 . S
O310 Ho281 2.381 1_655 S
O310 C299 1.275 . S
O311 Ho280 2.305 . S
O311 Ho281 2.669 1_655 S
O311 C299 1.256 . S
H312 C285 0.930 . S
H313 C286 0.931 . S
H314 C288 0.934 . S
H315 C289 0.930 . S
H316 C294 0.930 . S
H317 C295 0.931 . S
H318 C297 0.934 . S
H319 C298 0.930 . S
Ho320 C323 2.811 . S
Ho320 O340 2.322 1_556 S
Ho320 O342 2.378 . S
Ho320 O343 2.524 1_556 S
Ho320 O344 2.381 . S
Ho320 O345 2.669 . S
Ho320 O347 2.346 . S
Ho320 O351 2.305 1_556 S
Ho321 C332 2.811 . S
Ho321 O341 2.346 . S
Ho321 O345 2.305 1_554 S
Ho321 O346 2.322 1_554 S
Ho321 O348 2.378 . S
Ho321 O349 2.515 1_554 S
Ho321 O350 2.381 . S
Ho321 O351 2.669 . S
C322 O340 1.259 . S
C322 O341 1.268 . S
C323 Ho320 2.811 . S
C323 C324 1.488 . S
C323 O342 1.215 . S
C323 O343 1.289 1_556 S
C324 C323 1.488 . S
C324 C325 1.348 1_556 S
C324 C329 1.413 . S
C325 C324 1.348 1_554 S
C325 C326 1.442 . S
C325 H352 0.930 . S
C326 C325 1.442 . S
C326 C327 1.381 1_554 S
C326 H353 0.931 . S
C327 C326 1.381 1_556 S
C327 C328 1.321 . S
C328 C327 1.321 . S
C328 C329 1.403 . S
C328 H354 0.934 . S
C329 C324 1.413 . S
C329 C328 1.403 . S
C329 H355 0.930 . S
C330 O344 1.275 . S
C330 O345 1.256 . S
C331 O346 1.259 . S
C331 O347 1.268 . S
C332 Ho321 2.811 . S
C332 C333 1.488 . S
C332 O348 1.215 . S
C332 O349 1.259 1_554 S
C333 C332 1.488 . S
C333 C334 1.348 1_554 S
C333 C338 1.413 . S
C334 C333 1.348 1_556 S
C334 C335 1.442 . S
C334 H356 0.930 . S
C335 C334 1.442 . S
C335 C336 1.381 1_556 S
C335 H357 0.931 . S
C336 C335 1.381 1_554 S
C336 C337 1.321 . S
C337 C336 1.321 . S
C337 C338 1.403 . S
C337 H358 0.934 . S
C338 C333 1.413 . S
C338 C337 1.403 . S
C338 H359 0.930 . S
C339 O350 1.275 . S
C339 O351 1.256 . S
O340 Ho320 2.322 1_554 S
O340 C322 1.259 . S
O341 Ho321 2.346 . S
O341 C322 1.268 . S
O342 Ho320 2.378 . S
O342 C323 1.215 . S
O343 Ho320 2.524 1_554 S
O343 C323 1.289 1_554 S
O344 Ho320 2.381 . S
O344 C330 1.275 . S
O345 Ho320 2.669 . S
O345 Ho321 2.305 1_556 S
O345 C330 1.256 . S
O346 Ho321 2.322 1_556 S
O346 C331 1.259 . S
O347 Ho320 2.346 . S
O347 C331 1.268 . S
O348 Ho321 2.378 . S
O348 C332 1.215 . S
O349 Ho321 2.515 1_556 S
O349 C332 1.259 1_556 S
O350 Ho321 2.381 . S
O350 C339 1.275 . S
O351 Ho320 2.305 1_554 S
O351 Ho321 2.669 . S
O351 C339 1.256 . S
H352 C325 0.930 . S
H353 C326 0.931 . S
H354 C328 0.934 . S
H355 C329 0.930 . S
H356 C334 0.930 . S
H357 C335 0.931 . S
H358 C337 0.934 . S
H359 C338 0.930 . S
Ho360 C363 2.811 . S
Ho360 O380 2.322 1_565 S
Ho360 O382 2.378 . S
Ho360 O383 2.524 1_565 S
Ho360 O384 2.381 . S
Ho360 O385 2.669 . S
Ho360 O387 2.346 . S
Ho360 O391 2.305 1_565 S
Ho361 C372 2.811 . S
Ho361 O381 2.346 . S
Ho361 O385 2.305 1_545 S
Ho361 O386 2.322 1_545 S
Ho361 O388 2.378 . S
Ho361 O389 2.524 1_545 S
Ho361 O390 2.381 . S
Ho361 O391 2.669 . S
C362 O380 1.259 . S
C362 O381 1.268 . S
C363 Ho360 2.811 . S
C363 C364 1.488 1_565 S
C363 O382 1.215 . S
C363 O383 1.289 1_565 S
C364 C363 1.488 1_545 S
C364 C365 1.348 . S
C364 C369 1.413 1_545 S
C365 C364 1.348 . S
C365 C366 1.442 . S
C365 H392 0.930 . S
C366 C365 1.442 . S
C366 C367 1.381 . S
C366 H393 0.931 . S
C367 C366 1.381 . S
C367 C368 1.321 1_545 S
C368 C367 1.321 1_565 S
C368 C369 1.403 . S
C368 H394 0.934 . S
C369 C364 1.413 1_565 S
C369 C368 1.403 . S
C369 H395 0.930 . S
C370 O384 1.275 . S
C370 O385 1.256 . S
C371 O386 1.259 . S
C371 O387 1.268 . S
C372 Ho361 2.811 . S
C372 C373 1.488 1_545 S
C372 O388 1.215 . S
C372 O389 1.289 1_545 S
C373 C372 1.488 1_565 S
C373 C374 1.348 . S
C373 C378 1.413 1_565 S
C374 C373 1.348 . S
C374 C375 1.442 . S
C374 H396 0.930 . S
C375 C374 1.442 . S
C375 C376 1.381 . S
C375 H397 0.931 . S
C376 C375 1.381 . S
C376 C377 1.321 1_565 S
C377 C376 1.321 1_545 S
C377 C378 1.403 . S
C377 H398 0.934 . S
C378 C373 1.413 1_545 S
C378 C377 1.403 . S
C378 H399 0.930 . S
C379 O390 1.275 . S
C379 O391 1.256 . S
O380 Ho360 2.322 1_545 S
O380 C362 1.259 . S
O381 Ho361 2.346 . S
O381 C362 1.268 . S
O382 Ho360 2.378 . S
O382 C363 1.215 . S
O383 Ho360 2.524 1_545 S
O383 C363 1.289 1_545 S
O384 Ho360 2.381 . S
O384 C370 1.275 . S
O385 Ho360 2.669 . S
O385 Ho361 2.305 1_565 S
O385 C370 1.256 . S
O386 Ho361 2.322 1_565 S
O386 C371 1.259 . S
O387 Ho360 2.346 . S
O387 C371 1.268 . S
O388 Ho361 2.378 . S
O388 C372 1.215 . S
O389 Ho361 2.524 1_565 S
O389 C372 1.289 1_565 S
O390 Ho361 2.381 . S
O390 C379 1.275 . S
O391 Ho360 2.305 1_545 S
O391 Ho361 2.669 . S
O391 C379 1.256 . S
H392 C365 0.930 . S
H393 C366 0.931 . S
H394 C368 0.934 . S
H395 C369 0.930 . S
H396 C374 0.930 . S
H397 C375 0.931 . S
H398 C377 0.934 . S
H399 C378 0.930 . S
Ho400 C403 2.811 . S
Ho400 O420 2.322 . S
Ho400 O422 2.378 . S
Ho400 O423 2.524 . S
Ho400 O424 2.381 . S
Ho400 O425 2.669 . S
Ho400 O427 2.346 . S
Ho400 O431 2.305 . S
Ho401 C412 2.811 . S
Ho401 O421 2.346 . S
Ho401 O425 2.305 . S
Ho401 O426 2.322 . S
Ho401 O428 2.378 . S
Ho401 O429 2.524 . S
Ho401 O430 2.381 . S
Ho401 O431 2.669 . S
C402 O420 1.259 . S
C402 O421 1.268 . S
C403 Ho400 2.811 . S
C403 C404 1.488 . S
C403 O422 1.215 . S
C403 O423 1.289 . S
C404 C403 1.488 . S
C404 C405 1.348 . S
C404 C409 1.413 . S
C405 C404 1.348 . S
C405 C406 1.442 . S
C405 H432 0.930 . S
C406 C405 1.442 . S
C406 C407 1.381 . S
C406 H433 0.931 . S
C407 C406 1.381 . S
C407 C408 1.321 . S
C408 C407 1.321 . S
C408 C409 1.403 . S
C408 H434 0.934 . S
C409 C404 1.413 . S
C409 C408 1.403 . S
C409 H435 0.930 . S
C410 O424 1.275 . S
C410 O425 1.256 . S
C411 O426 1.259 . S
C411 O427 1.268 . S
C412 Ho401 2.811 . S
C412 C413 1.488 . S
C412 O428 1.215 . S
C412 O429 1.289 . S
C413 C412 1.488 . S
C413 C414 1.348 . S
C413 C418 1.413 . S
C414 C413 1.348 . S
C414 C415 1.442 . S
C414 H436 0.930 . S
C415 C414 1.442 . S
C415 C416 1.381 . S
C415 H437 0.931 . S
C416 C415 1.381 . S
C416 C417 1.321 . S
C417 C416 1.321 . S
C417 C418 1.403 . S
C417 H438 0.934 . S
C418 C413 1.413 . S
C418 C417 1.403 . S
C418 H439 0.930 . S
C419 O430 1.275 . S
C419 O431 1.256 . S
O420 Ho400 2.322 . S
O420 C402 1.259 . S
O421 Ho401 2.346 . S
O421 C402 1.268 . S
O422 Ho400 2.378 . S
O422 C403 1.215 . S
O423 Ho400 2.524 . S
O423 C403 1.289 . S
O424 Ho400 2.381 . S
O424 C410 1.275 . S
O425 Ho400 2.669 . S
O425 Ho401 2.305 . S
O425 C410 1.256 . S
O426 Ho401 2.322 . S
O426 C411 1.259 . S
O427 Ho400 2.346 . S
O427 C411 1.268 . S
O428 Ho401 2.378 . S
O428 C412 1.215 . S
O429 Ho401 2.524 . S
O429 C412 1.289 . S
O430 Ho401 2.381 . S
O430 C419 1.275 . S
O431 Ho400 2.305 . S
O431 Ho401 2.669 . S
O431 C419 1.256 . S
H432 C405 0.930 . S
H433 C406 0.931 . S
H434 C408 0.934 . S
H435 C409 0.930 . S
H436 C414 0.930 . S
H437 C415 0.931 . S
H438 C417 0.934 . S
H439 C418 0.930 . S
Ho440 C443 2.811 . S
Ho440 O460 2.322 1_455 S
Ho440 O462 2.378 . S
Ho440 O463 2.524 1_455 S
Ho440 O464 2.381 . S
Ho440 O465 2.669 . S
Ho440 O467 2.346 . S
Ho440 O471 2.305 1_455 S
Ho441 C452 2.811 . S
Ho441 O461 2.346 . S
Ho441 O465 2.305 1_655 S
Ho441 O466 2.322 1_655 S
Ho441 O468 2.378 . S
Ho441 O469 2.524 1_655 S
Ho441 O470 2.381 . S
Ho441 O471 2.669 . S
C442 O460 1.259 . S
C442 O461 1.268 . S
C443 Ho440 2.811 . S
C443 C444 1.488 1_455 S
C443 O462 1.215 . S
C443 O463 1.289 1_455 S
C444 C443 1.488 1_655 S
C444 C445 1.348 . S
C444 C449 1.413 1_655 S
C445 C444 1.348 . S
C445 C446 1.442 . S
C445 H472 0.930 . S
C446 C445 1.442 . S
C446 C447 1.381 . S
C446 H473 0.931 . S
C447 C446 1.381 . S
C447 C448 1.321 1_655 S
C448 C447 1.321 1_455 S
C448 C449 1.403 . S
C448 H474 0.934 . S
C449 C444 1.413 1_455 S
C449 C448 1.403 . S
C449 H475 0.930 . S
C450 O464 1.275 . S
C450 O465 1.256 . S
C451 O466 1.259 . S
C451 O467 1.268 . S
C452 Ho441 2.811 . S
C452 C453 1.488 1_655 S
C452 O468 1.215 . S
C452 O469 1.289 1_655 S
C453 C452 1.488 1_455 S
C453 C454 1.348 . S
C453 C458 1.413 1_455 S
C454 C453 1.348 . S
C454 C455 1.442 . S
C454 H476 0.930 . S
C455 C454 1.442 . S
C455 C456 1.381 . S
C455 H477 0.931 . S
C456 C455 1.381 . S
C456 C457 1.321 1_455 S
C457 C456 1.321 1_655 S
C457 C458 1.403 . S
C457 H478 0.934 . S
C458 C453 1.413 1_655 S
C458 C457 1.403 . S
C458 H479 0.930 . S
C459 O470 1.275 . S
C459 O471 1.256 . S
O460 Ho440 2.322 1_655 S
O460 C442 1.259 . S
O461 Ho441 2.346 . S
O461 C442 1.268 . S
O462 Ho440 2.378 . S
O462 C443 1.215 . S
O463 Ho440 2.524 1_655 S
O463 C443 1.289 1_655 S
O464 Ho440 2.381 . S
O464 C450 1.275 . S
O465 Ho440 2.669 . S
O465 Ho441 2.305 1_455 S
O465 C450 1.256 . S
O466 Ho441 2.322 1_455 S
O466 C451 1.259 . S
O467 Ho440 2.346 . S
O467 C451 1.268 . S
O468 Ho441 2.378 . S
O468 C452 1.215 . S
O469 Ho441 2.524 1_455 S
O469 C452 1.289 1_455 S
O470 Ho441 2.381 . S
O470 C459 1.275 . S
O471 Ho440 2.305 1_655 S
O471 Ho441 2.669 . S
O471 C459 1.256 . S
H472 C445 0.930 . S
H473 C446 0.931 . S
H474 C448 0.934 . S
H475 C449 0.930 . S
H476 C454 0.930 . S
H477 C455 0.931 . S
H478 C457 0.934 . S
H479 C458 0.930 . S
Ho480 C483 2.811 . S
Ho480 O500 2.322 . S
Ho480 O502 2.378 . S
Ho480 O503 2.524 . S
Ho480 O504 2.381 . S
Ho480 O505 2.669 . S
Ho480 O507 2.346 . S
Ho480 O511 2.305 . S
Ho481 C492 2.811 . S
Ho481 O501 2.346 . S
Ho481 O505 2.305 . S
Ho481 O506 2.322 . S
Ho481 O508 2.378 . S
Ho481 O509 2.524 . S
Ho481 O510 2.381 . S
Ho481 O511 2.669 . S
C482 O500 1.259 . S
C482 O501 1.268 . S
C483 Ho480 2.811 . S
C483 C484 1.488 . S
C483 O502 1.215 . S
C483 O503 1.289 . S
C484 C483 1.488 . S
C484 C485 1.348 . S
C484 C489 1.413 . S
C485 C484 1.348 . S
C485 C486 1.442 . S
C485 H512 0.930 . S
C486 C485 1.442 . S
C486 C487 1.381 . S
C486 H513 0.931 . S
C487 C486 1.381 . S
C487 C488 1.321 . S
C488 C487 1.321 . S
C488 C489 1.403 . S
C488 H514 0.934 . S
C489 C484 1.413 . S
C489 C488 1.403 . S
C489 H515 0.930 . S
C490 O504 1.275 . S
C490 O505 1.256 . S
C491 O506 1.259 . S
C491 O507 1.268 . S
C492 Ho481 2.811 . S
C492 C493 1.488 . S
C492 O508 1.215 . S
C492 O509 1.289 . S
C493 C492 1.488 . S
C493 C494 1.348 . S
C493 C498 1.413 . S
C494 C493 1.348 . S
C494 C495 1.442 . S
C494 H516 0.930 . S
C495 C494 1.442 . S
C495 C496 1.381 . S
C495 H517 0.931 . S
C496 C495 1.381 . S
C496 C497 1.321 . S
C497 C496 1.321 . S
C497 C498 1.403 . S
C497 H518 0.934 . S
C498 C493 1.413 . S
C498 C497 1.403 . S
C498 H519 0.930 . S
C499 O510 1.275 . S
C499 O511 1.256 . S
O500 Ho480 2.322 . S
O500 C482 1.259 . S
O501 Ho481 2.346 . S
O501 C482 1.268 . S
O502 Ho480 2.378 . S
O502 C483 1.215 . S
O503 Ho480 2.524 . S
O503 C483 1.289 . S
O504 Ho480 2.381 . S
O504 C490 1.275 . S
O505 Ho480 2.669 . S
O505 Ho481 2.305 . S
O505 C490 1.256 . S
O506 Ho481 2.322 . S
O506 C491 1.259 . S
O507 Ho480 2.346 . S
O507 C491 1.268 . S
O508 Ho481 2.378 . S
O508 C492 1.215 . S
O509 Ho481 2.524 . S
O509 C492 1.289 . S
O510 Ho481 2.381 . S
O510 C499 1.275 . S
O511 Ho480 2.305 . S
O511 Ho481 2.669 . S
O511 C499 1.256 . S
H512 C485 0.930 . S
H513 C486 0.931 . S
H514 C488 0.934 . S
H515 C489 0.930 . S
H516 C494 0.930 . S
H517 C495 0.931 . S
H518 C497 0.934 . S
H519 C498 0.930 . S
Ho520 C523 2.811 . S
Ho520 O540 2.322 1_556 S
Ho520 O542 2.378 . S
Ho520 O543 2.524 1_556 S
Ho520 O544 2.381 . S
Ho520 O545 2.669 . S
Ho520 O547 2.346 . S
Ho520 O551 2.305 1_556 S
Ho521 C532 2.811 . S
Ho521 O541 2.346 . S
Ho521 O545 2.305 1_554 S
Ho521 O546 2.322 1_554 S
Ho521 O548 2.378 . S
Ho521 O549 2.515 1_554 S
Ho521 O550 2.381 . S
Ho521 O551 2.669 . S
C522 O540 1.259 . S
C522 O541 1.268 . S
C523 Ho520 2.811 . S
C523 C524 1.488 . S
C523 O542 1.215 . S
C523 O543 1.289 1_556 S
C524 C523 1.488 . S
C524 C525 1.348 1_556 S
C524 C529 1.413 . S
C525 C524 1.348 1_554 S
C525 C526 1.442 . S
C525 H552 0.930 . S
C526 C525 1.442 . S
C526 C527 1.381 1_554 S
C526 H553 0.931 . S
C527 C526 1.381 1_556 S
C527 C528 1.321 . S
C528 C527 1.321 . S
C528 C529 1.403 . S
C528 H554 0.934 . S
C529 C524 1.413 . S
C529 C528 1.403 . S
C529 H555 0.930 . S
C530 O544 1.275 . S
C530 O545 1.256 . S
C531 O546 1.259 . S
C531 O547 1.268 . S
C532 Ho521 2.811 . S
C532 C533 1.488 . S
C532 O548 1.215 . S
C532 O549 1.259 1_554 S
C533 C532 1.488 . S
C533 C534 1.348 1_554 S
C533 C538 1.413 . S
C534 C533 1.348 1_556 S
C534 C535 1.442 . S
C534 H556 0.930 . S
C535 C534 1.442 . S
C535 C536 1.381 1_556 S
C535 H557 0.931 . S
C536 C535 1.381 1_554 S
C536 C537 1.321 . S
C537 C536 1.321 . S
C537 C538 1.403 . S
C537 H558 0.934 . S
C538 C533 1.413 . S
C538 C537 1.403 . S
C538 H559 0.930 . S
C539 O550 1.275 . S
C539 O551 1.256 . S
O540 Ho520 2.322 1_554 S
O540 C522 1.259 . S
O541 Ho521 2.346 . S
O541 C522 1.268 . S
O542 Ho520 2.378 . S
O542 C523 1.215 . S
O543 Ho520 2.524 1_554 S
O543 C523 1.289 1_554 S
O544 Ho520 2.381 . S
O544 C530 1.275 . S
O545 Ho520 2.669 . S
O545 Ho521 2.305 1_556 S
O545 C530 1.256 . S
O546 Ho521 2.322 1_556 S
O546 C531 1.259 . S
O547 Ho520 2.346 . S
O547 C531 1.268 . S
O548 Ho521 2.378 . S
O548 C532 1.215 . S
O549 Ho521 2.515 1_556 S
O549 C532 1.259 1_556 S
O550 Ho521 2.381 . S
O550 C539 1.275 . S
O551 Ho520 2.305 1_554 S
O551 Ho521 2.669 . S
O551 C539 1.256 . S
H552 C525 0.930 . S
H553 C526 0.931 . S
H554 C528 0.934 . S
H555 C529 0.930 . S
H556 C534 0.930 . S
H557 C535 0.931 . S
H558 C537 0.934 . S
H559 C538 0.930 . S
Ho560 C563 2.811 . S
Ho560 O580 2.322 . S
Ho560 O582 2.378 . S
Ho560 O583 2.524 . S
Ho560 O584 2.381 . S
Ho560 O585 2.669 . S
Ho560 O587 2.346 1_565 S
Ho560 O591 2.305 1_565 S
Ho561 C572 2.811 . S
Ho561 O581 2.346 1_545 S
Ho561 O585 2.305 1_545 S
Ho561 O586 2.322 . S
Ho561 O588 2.378 . S
Ho561 O589 2.524 . S
Ho561 O590 2.381 . S
Ho561 O591 2.669 . S
C562 O580 1.259 . S
C562 O581 1.268 . S
C563 Ho560 2.811 . S
C563 C564 1.488 . S
C563 O582 1.215 . S
C563 O583 1.289 . S
C564 C563 1.488 . S
C564 C565 1.348 . S
C564 C569 1.413 . S
C565 C564 1.348 . S
C565 C566 1.442 . S
C565 H592 0.930 . S
C566 C565 1.442 . S
C566 C567 1.381 . S
C566 H593 0.931 . S
C567 C566 1.381 . S
C567 C568 1.321 . S
C568 C567 1.321 . S
C568 C569 1.403 . S
C568 H594 0.934 . S
C569 C564 1.413 . S
C569 C568 1.403 . S
C569 H595 0.930 . S
C570 O584 1.275 . S
C570 O585 1.256 . S
C571 O586 1.259 . S
C571 O587 1.268 . S
C572 Ho561 2.811 . S
C572 C573 1.488 . S
C572 O588 1.215 . S
C572 O589 1.289 . S
C573 C572 1.488 . S
C573 C574 1.348 . S
C573 C578 1.413 . S
C574 C573 1.348 . S
C574 C575 1.442 . S
C574 H596 0.930 . S
C575 C574 1.442 . S
C575 C576 1.381 . S
C575 H597 0.931 . S
C576 C575 1.381 . S
C576 C577 1.321 . S
C577 C576 1.321 . S
C577 C578 1.403 . S
C577 H598 0.934 . S
C578 C573 1.413 . S
C578 C577 1.403 . S
C578 H599 0.930 . S
C579 O590 1.275 . S
C579 O591 1.256 . S
O580 Ho560 2.322 . S
O580 C562 1.259 . S
O581 Ho561 2.346 1_565 S
O581 C562 1.268 . S
O582 Ho560 2.378 . S
O582 C563 1.215 . S
O583 Ho560 2.524 . S
O583 C563 1.289 . S
O584 Ho560 2.381 . S
O584 C570 1.275 . S
O585 Ho560 2.669 . S
O585 Ho561 2.305 1_565 S
O585 C570 1.256 . S
O586 Ho561 2.322 . S
O586 C571 1.259 . S
O587 Ho560 2.346 1_545 S
O587 C571 1.268 . S
O588 Ho561 2.378 . S
O588 C572 1.215 . S
O589 Ho561 2.524 . S
O589 C572 1.289 . S
O590 Ho561 2.381 . S
O590 C579 1.275 . S
O591 Ho560 2.305 1_545 S
O591 Ho561 2.669 . S
O591 C579 1.256 . S
H592 C565 0.930 . S
H593 C566 0.931 . S
H594 C568 0.934 . S
H595 C569 0.930 . S
H596 C574 0.930 . S
H597 C575 0.931 . S
H598 C577 0.934 . S
H599 C578 0.930 . S
Ho600 C603 2.811 . S
Ho600 O620 2.324 1_554 S
Ho600 O622 2.378 . S
Ho600 O623 2.524 . S
Ho600 O624 2.381 . S
Ho600 O625 2.669 . S
Ho600 O627 2.346 . S
Ho600 O631 2.305 1_554 S
Ho601 C612 2.811 . S
Ho601 O621 2.346 . S
Ho601 O625 2.305 1_556 S
Ho601 O626 2.319 1_556 S
Ho601 O628 2.378 . S
Ho601 O629 2.524 . S
Ho601 O630 2.381 . S
Ho601 O631 2.669 . S
C602 O620 1.255 . S
C602 O621 1.268 . S
C603 Ho600 2.811 . S
C603 C604 1.488 . S
C603 O622 1.215 . S
C603 O623 1.289 . S
C604 C603 1.488 . S
C604 C605 1.348 . S
C604 C609 1.413 . S
C605 C604 1.348 . S
C605 C606 1.442 . S
C605 H632 0.930 1_554 S
C606 C605 1.442 . S
C606 C607 1.381 . S
C606 H633 0.931 . S
C607 C606 1.381 . S
C607 C608 1.321 . S
C608 C607 1.321 . S
C608 C609 1.403 . S
C608 H634 0.934 . S
C609 C604 1.413 . S
C609 C608 1.403 . S
C609 H635 0.930 . S
C610 O624 1.275 . S
C610 O625 1.256 . S
C611 O626 1.263 . S
C611 O627 1.268 . S
C612 Ho601 2.811 . S
C612 C613 1.488 . S
C612 O628 1.215 . S
C612 O629 1.289 . S
C613 C612 1.488 . S
C613 C614 1.348 . S
C613 C618 1.413 . S
C614 C613 1.348 . S
C614 C615 1.442 . S
C614 H636 0.930 1_556 S
C615 C614 1.442 . S
C615 C616 1.381 . S
C615 H637 0.931 . S
C616 C615 1.381 . S
C616 C617 1.321 . S
C617 C616 1.321 . S
C617 C618 1.403 . S
C617 H638 0.934 . S
C618 C613 1.413 . S
C618 C617 1.403 . S
C618 H639 0.930 . S
C619 O630 1.275 . S
C619 O631 1.256 . S
O620 Ho600 2.324 1_556 S
O620 C602 1.255 . S
O621 Ho601 2.346 . S
O621 C602 1.268 . S
O622 Ho600 2.378 . S
O622 C603 1.215 . S
O623 Ho600 2.524 . S
O623 C603 1.289 . S
O624 Ho600 2.381 . S
O624 C610 1.275 . S
O625 Ho600 2.669 . S
O625 Ho601 2.305 1_554 S
O625 C610 1.256 . S
O626 Ho601 2.319 1_554 S
O626 C611 1.263 . S
O627 Ho600 2.346 . S
O627 C611 1.268 . S
O628 Ho601 2.378 . S
O628 C612 1.215 . S
O629 Ho601 2.524 . S
O629 C612 1.289 . S
O630 Ho601 2.381 . S
O630 C619 1.275 . S
O631 Ho600 2.305 1_556 S
O631 Ho601 2.669 . S
O631 C619 1.256 . S
H632 C605 0.930 1_556 S
H633 C606 0.931 . S
H634 C608 0.934 . S
H635 C609 0.930 . S
H636 C614 0.930 1_554 S
H637 C615 0.931 . S
H638 C617 0.934 . S
H639 C618 0.930 . S
H640 C646 0.930 . S
H641 C650 0.930 . S
H642 C655 0.929 . S
H643 C653 0.929 . S
H644 C648 0.929 . S
H645 C654 0.929 . S
C646 H640 0.930 . S
C646 C647 1.367 . S
C646 C654 1.378 . S
C647 C646 1.367 . S
C647 C655 1.433 1_655 S
C648 H644 0.929 . S
C648 C650 1.378 . S
C648 C652 1.350 . S
C649 C652 1.463 1_655 S
C649 C654 1.350 . S
C649 N657 1.427 1_655 S
C650 H641 0.930 . S
C650 C648 1.378 . S
C650 C651 1.367 . S
C651 C650 1.367 . S
C651 C653 1.433 1_455 S
C652 C648 1.350 . S
C652 C649 1.463 1_455 S
C652 N656 1.427 1_455 S
C653 H643 0.929 . S
C653 C651 1.433 1_655 S
C653 N656 1.384 . S
C654 H645 0.929 . S
C654 C646 1.378 . S
C654 C649 1.350 . S
C655 H642 0.929 . S
C655 C647 1.433 1_455 S
C655 N657 1.384 . S
N656 C652 1.427 1_655 S
N656 C653 1.384 . S
N657 C649 1.427 1_455 S
N657 C655 1.384 . S
H658 C664 0.930 . S
H659 C668 0.930 . S
H660 C673 0.929 . S
H661 C671 0.929 . S
H662 C666 0.929 . S
H663 C672 0.929 . S
C664 H658 0.930 . S
C664 C665 1.367 . S
C664 C672 1.378 . S
C665 C664 1.367 . S
C665 C673 1.433 . S
C666 H662 0.929 . S
C666 C668 1.378 . S
C666 C670 1.350 . S
C667 C670 1.463 . S
C667 C672 1.350 . S
C667 N675 1.427 . S
C668 H659 0.930 . S
C668 C666 1.378 . S
C668 C669 1.367 . S
C669 C668 1.367 . S
C669 C671 1.433 . S
C670 C666 1.350 . S
C670 C667 1.463 . S
C670 N674 1.427 . S
C671 H661 0.929 . S
C671 C669 1.433 . S
C671 N674 1.384 . S
C672 H663 0.929 . S
C672 C664 1.378 . S
C672 C667 1.350 . S
C673 H660 0.929 . S
C673 C665 1.433 . S
C673 N675 1.384 . S
N674 C670 1.427 . S
N674 C671 1.384 . S
N675 C667 1.427 . S
N675 C673 1.384 . S
H676 C682 0.930 . S
H677 C686 0.930 . S
H678 C691 0.929 . S
H679 C689 0.929 . S
H680 C684 0.929 . S
H681 C690 0.929 . S
C682 H676 0.930 . S
C682 C683 1.367 . S
C682 C690 1.378 . S
C683 C682 1.367 . S
C683 C691 1.433 . S
C684 H680 0.929 . S
C684 C686 1.378 . S
C684 C688 1.350 . S
C685 C688 1.463 . S
C685 C690 1.350 . S
C685 N693 1.427 . S
C686 H677 0.930 . S
C686 C684 1.378 . S
C686 C687 1.367 . S
C687 C686 1.367 . S
C687 C689 1.433 . S
C688 C684 1.350 . S
C688 C685 1.463 . S
C688 N692 1.427 . S
C689 H679 0.929 . S
C689 C687 1.433 . S
C689 N692 1.384 . S
C690 H681 0.929 . S
C690 C682 1.378 . S
C690 C685 1.350 . S
C691 H678 0.929 . S
C691 C683 1.433 . S
C691 N693 1.384 . S
N692 C688 1.427 . S
N692 C689 1.384 . S
N693 C685 1.427 . S
N693 C691 1.384 . S
H694 C700 0.930 . S
H695 C704 0.930 . S
H696 C709 0.929 . S
H697 C707 0.929 . S
H698 C702 0.929 . S
H699 C708 0.929 . S
C700 H694 0.930 . S
C700 C701 1.367 . S
C700 C708 1.378 . S
C701 C700 1.367 . S
C701 C709 1.433 . S
C702 H698 0.929 . S
C702 C704 1.378 . S
C702 C706 1.350 1_565 S
C703 C706 1.463 . S
C703 C708 1.350 . S
C703 N711 1.427 . S
C704 H695 0.930 . S
C704 C702 1.378 . S
C704 C705 1.367 . S
C705 C704 1.367 . S
C705 C707 1.433 1_565 S
C706 C702 1.350 1_545 S
C706 C703 1.463 . S
C706 N710 1.427 . S
C707 H697 0.929 . S
C707 C705 1.433 1_545 S
C707 N710 1.384 . S
C708 H699 0.929 . S
C708 C700 1.378 . S
C708 C703 1.350 . S
C709 H696 0.929 . S
C709 C701 1.433 . S
C709 N711 1.384 . S
N710 C706 1.427 . S
N710 C707 1.384 . S
N711 C703 1.427 . S
N711 C709 1.384 . S
H712 C718 0.930 . S
H713 C722 0.930 . S
H714 C727 0.929 . S
H715 C725 0.929 . S
H716 C720 0.929 . S
H717 C726 0.929 . S
C718 H712 0.930 . S
C718 C719 1.367 . S
C718 C726 1.378 . S
C719 C718 1.367 . S
C719 C727 1.433 . S
C720 H716 0.929 . S
C720 C722 1.378 . S
C720 C724 1.350 1_545 S
C721 C724 1.463 . S
C721 C726 1.350 . S
C721 N729 1.427 . S
C722 H713 0.930 . S
C722 C720 1.378 . S
C722 C723 1.367 . S
C723 C722 1.367 . S
C723 C725 1.433 . S
C724 C720 1.350 1_565 S
C724 C721 1.463 . S
C724 N728 1.427 . S
C725 H715 0.929 . S
C725 C723 1.433 . S
C725 N728 1.384 1_545 S
C726 H717 0.929 . S
C726 C718 1.378 . S
C726 C721 1.350 . S
C727 H714 0.929 . S
C727 C719 1.433 . S
C727 N729 1.384 . S
N728 C724 1.427 . S
N728 C725 1.384 1_565 S
N729 C721 1.427 . S
N729 C727 1.384 . S
H730 C736 0.930 . S
H731 C740 0.930 . S
H732 C745 0.929 . S
H733 C743 0.929 . S
H734 C738 0.929 . S
H735 C744 0.929 . S
C736 H730 0.930 . S
C736 C737 1.367 1_655 S
C736 C744 1.378 . S
C737 C736 1.367 1_455 S
C737 C745 1.433 . S
C738 H734 0.929 . S
C738 C740 1.378 . S
C738 C742 1.358 . S
C739 C742 1.476 . S
C739 C744 1.350 1_455 S
C739 N747 1.427 . S
C740 H731 0.930 . S
C740 C738 1.378 . S
C740 C741 1.367 1_455 S
C741 C740 1.367 1_655 S
C741 C743 1.433 . S
C742 C738 1.358 . S
C742 C739 1.476 . S
C742 N746 1.406 1_455 S
C743 H733 0.929 . S
C743 C741 1.433 . S
C743 N746 1.384 . S
C744 H735 0.929 . S
C744 C736 1.378 . S
C744 C739 1.350 1_655 S
C745 H732 0.929 . S
C745 C737 1.433 . S
C745 N747 1.384 . S
N746 C742 1.406 1_655 S
N746 C743 1.384 . S
N747 C739 1.427 . S
N747 C745 1.384 . S
H748 C754 0.930 . S
H749 C758 0.930 . S
H750 C763 0.929 . S
H751 C761 0.929 . S
H752 C756 0.929 . S
H753 C762 0.929 . S
C754 H748 0.930 . S
C754 C755 1.367 . S
C754 C762 1.378 . S
C755 C754 1.367 . S
C755 C763 1.433 . S
C756 H752 0.929 . S
C756 C758 1.378 . S
C756 C760 1.350 . S
C757 C760 1.463 . S
C757 C762 1.350 . S
C757 N765 1.427 . S
C758 H749 0.930 . S
C758 C756 1.378 . S
C758 C759 1.367 . S
C759 C758 1.367 . S
C759 C761 1.433 . S
C760 C756 1.350 . S
C760 C757 1.463 . S
C760 N764 1.427 . S
C761 H751 0.929 . S
C761 C759 1.433 . S
C761 N764 1.384 . S
C762 H753 0.929 . S
C762 C754 1.378 . S
C762 C757 1.350 . S
C763 H750 0.929 . S
C763 C755 1.433 . S
C763 N765 1.384 . S
N764 C760 1.427 . S
N764 C761 1.384 . S
N765 C757 1.427 . S
N765 C763 1.384 . S
H766 C772 0.930 . S
H767 C776 0.930 . S
H768 C781 0.929 . S
H769 C779 0.929 . S
H770 C774 0.929 . S
H771 C780 0.929 . S
C772 H766 0.930 . S
C772 C773 1.367 . S
C772 C780 1.378 . S
C773 C772 1.367 . S
C773 C781 1.433 . S
C774 H770 0.929 . S
C774 C776 1.378 . S
C774 C778 1.350 . S
C775 C778 1.463 . S
C775 C780 1.350 . S
C775 N783 1.427 . S
C776 H767 0.930 . S
C776 C774 1.378 . S
C776 C777 1.367 . S
C777 C776 1.367 . S
C777 C779 1.433 . S
C778 C774 1.350 . S
C778 C775 1.463 . S
C778 N782 1.427 . S
C779 H769 0.929 . S
C779 C777 1.433 . S
C779 N782 1.384 . S
C780 H771 0.929 . S
C780 C772 1.378 . S
C780 C775 1.350 . S
C781 H768 0.929 . S
C781 C773 1.433 . S
C781 N783 1.384 . S
N782 C778 1.427 . S
N782 C779 1.384 . S
N783 C775 1.427 . S
N783 C781 1.384 . S
H784 C790 0.930 . S
H785 C794 0.930 . S
H786 C799 0.929 . S
H787 C797 0.929 . S
H788 C792 0.929 . S
H789 C798 0.929 . S
C790 H784 0.930 . S
C790 C791 1.367 . S
C790 C798 1.378 . S
C791 C790 1.367 . S
C791 C799 1.433 . S
C792 H788 0.929 . S
C792 C794 1.378 . S
C792 C796 1.350 . S
C793 C796 1.463 . S
C793 C798 1.350 . S
C793 N801 1.427 . S
C794 H785 0.930 . S
C794 C792 1.378 . S
C794 C795 1.367 . S
C795 C794 1.367 . S
C795 C797 1.433 . S
C796 C792 1.350 . S
C796 C793 1.463 . S
C796 N800 1.427 . S
C797 H787 0.929 . S
C797 C795 1.433 . S
C797 N800 1.384 . S
C798 H789 0.929 . S
C798 C790 1.378 . S
C798 C793 1.350 . S
C799 H786 0.929 . S
C799 C791 1.433 . S
C799 N801 1.384 . S
N800 C796 1.427 . S
N800 C797 1.384 . S
N801 C793 1.427 . S
N801 C799 1.384 . S
H802 C808 0.930 . S
H803 C812 0.930 . S
H804 C817 0.929 . S
H805 C815 0.929 . S
H806 C810 0.929 . S
H807 C816 0.929 . S
C808 H802 0.930 . S
C808 C809 1.367 . S
C808 C816 1.378 . S
C809 C808 1.367 . S
C809 C817 1.433 . S
C810 H806 0.929 . S
C810 C812 1.378 . S
C810 C814 1.350 . S
C811 C814 1.463 . S
C811 C816 1.350 . S
C811 N819 1.427 . S
C812 H803 0.930 . S
C812 C810 1.378 . S
C812 C813 1.367 . S
C813 C812 1.367 . S
C813 C815 1.433 . S
C814 C810 1.350 . S
C814 C811 1.463 . S
C814 N818 1.427 . S
C815 H805 0.929 . S
C815 C813 1.433 . S
C815 N818 1.384 . S
C816 H807 0.929 . S
C816 C808 1.378 . S
C816 C811 1.350 . S
C817 H804 0.929 . S
C817 C809 1.433 . S
C817 N819 1.384 . S
N818 C814 1.427 . S
N818 C815 1.384 . S
N819 C811 1.427 . S
N819 C817 1.384 . S
H820 C826 0.930 . S
H821 C830 0.930 . S
H822 C835 0.929 . S
H823 C833 0.929 . S
H824 C828 0.929 . S
H825 C834 0.929 . S
C826 H820 0.930 . S
C826 C827 1.367 . S
C826 C834 1.378 . S
C827 C826 1.367 . S
C827 C835 1.433 1_565 S
C828 H824 0.929 . S
C828 C830 1.378 . S
C828 C832 1.350 1_545 S
C829 C832 1.463 . S
C829 C834 1.350 . S
C829 N837 1.427 1_565 S
C830 H821 0.930 . S
C830 C828 1.378 . S
C830 C831 1.367 . S
C831 C830 1.367 . S
C831 C833 1.433 1_545 S
C832 C828 1.350 1_565 S
C832 C829 1.463 . S
C832 N836 1.427 . S
C833 H823 0.929 . S
C833 C831 1.433 1_565 S
C833 N836 1.384 . S
C834 H825 0.929 . S
C834 C826 1.378 . S
C834 C829 1.350 . S
C835 H822 0.929 . S
C835 C827 1.433 1_545 S
C835 N837 1.384 . S
N836 C832 1.427 . S
N836 C833 1.384 . S
N837 C829 1.427 1_545 S
N837 C835 1.384 . S
H838 C844 0.930 . S
H839 C848 0.930 . S
H840 C853 0.929 . S
H841 C851 0.929 . S
H842 C846 0.929 . S
H843 C852 0.929 . S
C844 H838 0.930 . S
C844 C845 1.367 1_655 S
C844 C852 1.378 . S
C845 C844 1.367 1_455 S
C845 C853 1.433 . S
C846 H842 0.929 . S
C846 C848 1.378 . S
C846 C850 1.360 . S
C847 C850 1.477 . S
C847 C852 1.350 1_455 S
C847 N855 1.427 . S
C848 H839 0.930 . S
C848 C846 1.378 . S
C848 C849 1.367 1_455 S
C849 C848 1.367 1_655 S
C849 C851 1.433 . S
C850 C846 1.360 . S
C850 C847 1.477 . S
C850 N854 1.402 1_455 S
C851 H841 0.929 . S
C851 C849 1.433 . S
C851 N854 1.384 . S
C852 H843 0.929 . S
C852 C844 1.378 . S
C852 C847 1.350 1_655 S
C853 H840 0.929 . S
C853 C845 1.433 . S
C853 N855 1.384 . S
N854 C850 1.402 1_655 S
N854 C851 1.384 . S
N855 C847 1.427 . S
N855 C853 1.384 . S
H856 C862 0.930 . S
H857 C866 0.930 . S
H858 C871 0.929 . S
H859 C869 0.929 . S
H860 C864 0.929 . S
H861 C870 0.929 . S
C862 H856 0.930 . S
C862 C863 1.367 . S
C862 C870 1.378 . S
C863 C862 1.367 . S
C863 C871 1.433 . S
C864 H860 0.929 . S
C864 C866 1.378 . S
C864 C868 1.350 . S
C865 C868 1.463 . S
C865 C870 1.350 . S
C865 N873 1.427 . S
C866 H857 0.930 . S
C866 C864 1.378 . S
C866 C867 1.367 . S
C867 C866 1.367 . S
C867 C869 1.433 1_556 S
C868 C864 1.350 . S
C868 C865 1.463 . S
C868 N872 1.427 . S
C869 H859 0.929 . S
C869 C867 1.433 1_554 S
C869 N872 1.384 1_554 S
C870 H861 0.929 . S
C870 C862 1.378 . S
C870 C865 1.350 . S
C871 H858 0.929 . S
C871 C863 1.433 . S
C871 N873 1.384 . S
N872 C868 1.427 . S
N872 C869 1.384 1_556 S
N873 C865 1.427 . S
N873 C871 1.384 . S
H874 C880 0.930 . S
H875 C884 0.930 . S
H876 C889 0.929 . S
H877 C887 0.929 . S
H878 C882 0.929 . S
H879 C888 0.929 . S
C880 H874 0.930 . S
C880 C881 1.367 . S
C880 C888 1.378 . S
C881 C880 1.367 . S
C881 C889 1.433 . S
C882 H878 0.929 . S
C882 C884 1.378 . S
C882 C886 1.350 . S
C883 C886 1.463 . S
C883 C888 1.350 . S
C883 N891 1.427 . S
C884 H875 0.930 . S
C884 C882 1.378 . S
C884 C885 1.367 . S
C885 C884 1.367 . S
C885 C887 1.433 . S
C886 C882 1.350 . S
C886 C883 1.463 . S
C886 N890 1.427 . S
C887 H877 0.929 . S
C887 C885 1.433 . S
C887 N890 1.384 . S
C888 H879 0.929 . S
C888 C880 1.378 . S
C888 C883 1.350 . S
C889 H876 0.929 . S
C889 C881 1.433 . S
C889 N891 1.384 . S
N890 C886 1.427 . S
N890 C887 1.384 . S
N891 C883 1.427 . S
N891 C889 1.384 . S
H892 C898 0.930 . S
H893 C902 0.930 . S
H894 C907 0.929 . S
H895 C905 0.929 . S
H896 C900 0.929 . S
H897 C906 0.929 . S
C898 H892 0.930 . S
C898 C899 1.367 . S
C898 C906 1.378 . S
C899 C898 1.367 . S
C899 C907 1.433 . S
C900 H896 0.929 . S
C900 C902 1.378 . S
C900 C904 1.350 . S
C901 C904 1.463 . S
C901 C906 1.350 . S
C901 N909 1.427 . S
C902 H893 0.930 . S
C902 C900 1.378 . S
C902 C903 1.367 . S
C903 C902 1.367 . S
C903 C905 1.433 . S
C904 C900 1.350 . S
C904 C901 1.463 . S
C904 N908 1.427 . S
C905 H895 0.929 . S
C905 C903 1.433 . S
C905 N908 1.384 . S
C906 H897 0.929 . S
C906 C898 1.378 . S
C906 C901 1.350 . S
C907 H894 0.929 . S
C907 C899 1.433 . S
C907 N909 1.384 . S
N908 C904 1.427 . S
N908 C905 1.384 . S
N909 C901 1.427 . S
N909 C907 1.384 . S
H910 C916 0.930 . S
H911 C920 0.930 . S
H912 C925 0.929 . S
H913 C923 0.929 . S
H914 C918 0.929 . S
H915 C924 0.929 . S
C916 H910 0.930 . S
C916 C917 1.367 . S
C916 C924 1.378 . S
C917 C916 1.367 . S
C917 C925 1.433 . S
C918 H914 0.929 . S
C918 C920 1.378 . S
C918 C922 1.350 . S
C919 C922 1.463 . S
C919 C924 1.350 . S
C919 N927 1.427 . S
C920 H911 0.930 . S
C920 C918 1.378 . S
C920 C921 1.367 . S
C921 C920 1.367 . S
C921 C923 1.433 . S
C922 C918 1.350 . S
C922 C919 1.463 . S
C922 N926 1.427 . S
C923 H913 0.929 . S
C923 C921 1.433 . S
C923 N926 1.384 . S
C924 H915 0.929 . S
C924 C916 1.378 . S
C924 C919 1.350 . S
C925 H912 0.929 . S
C925 C917 1.433 . S
C925 N927 1.384 . S
N926 C922 1.427 . S
N926 C923 1.384 . S
N927 C919 1.427 . S
N927 C925 1.384 . S
H928 C934 0.930 . S
H929 C938 0.930 . S
H930 C943 0.929 . S
H931 C941 0.929 . S
H932 C936 0.929 . S
H933 C942 0.929 . S
C934 H928 0.930 . S
C934 C935 1.367 . S
C934 C942 1.378 . S
C935 C934 1.367 . S
C935 C943 1.433 . S
C936 H932 0.929 . S
C936 C938 1.378 . S
C936 C940 1.350 . S
C937 C940 1.463 . S
C937 C942 1.350 . S
C937 N945 1.427 . S
C938 H929 0.930 . S
C938 C936 1.378 . S
C938 C939 1.367 . S
C939 C938 1.367 . S
C939 C941 1.433 . S
C940 C936 1.350 . S
C940 C937 1.463 . S
C940 N944 1.427 . S
C941 H931 0.929 . S
C941 C939 1.433 . S
C941 N944 1.384 . S
C942 H933 0.929 . S
C942 C934 1.378 . S
C942 C937 1.350 . S
C943 H930 0.929 . S
C943 C935 1.433 . S
C943 N945 1.384 . S
N944 C940 1.427 . S
N944 C941 1.384 . S
N945 C937 1.427 . S
N945 C943 1.384 . S
H946 C952 0.930 . S
H947 C956 0.930 . S
H948 C961 0.929 . S
H949 C959 0.929 . S
H950 C954 0.929 . S
H951 C960 0.929 . S
C952 H946 0.930 . S
C952 C953 1.367 . S
C952 C960 1.378 . S
C953 C952 1.367 . S
C953 C961 1.433 . S
C954 H950 0.929 . S
C954 C956 1.378 . S
C954 C958 1.350 . S
C955 C958 1.463 . S
C955 C960 1.350 . S
C955 N963 1.427 . S
C956 H947 0.930 . S
C956 C954 1.378 . S
C956 C957 1.367 . S
C957 C956 1.367 . S
C957 C959 1.433 . S
C958 C954 1.350 . S
C958 C955 1.463 . S
C958 N962 1.427 . S
C959 H949 0.929 . S
C959 C957 1.433 . S
C959 N962 1.384 . S
C960 H951 0.929 . S
C960 C952 1.378 . S
C960 C955 1.350 . S
C961 H948 0.929 . S
C961 C953 1.433 . S
C961 N963 1.384 . S
N962 C958 1.427 . S
N962 C959 1.384 . S
N963 C955 1.427 . S
N963 C961 1.384 . S
H964 C970 0.930 . S
H965 C974 0.930 . S
H966 C979 0.929 . S
H967 C977 0.929 . S
H968 C972 0.929 . S
H969 C978 0.929 . S
C970 H964 0.930 . S
C970 C971 1.367 . S
C970 C978 1.378 . S
C971 C970 1.367 . S
C971 C979 1.433 . S
C972 H968 0.929 . S
C972 C974 1.378 . S
C972 C976 1.350 . S
C973 C976 1.463 . S
C973 C978 1.350 . S
C973 N981 1.427 . S
C974 H965 0.930 . S
C974 C972 1.378 . S
C974 C975 1.367 . S
C975 C974 1.367 . S
C975 C977 1.433 . S
C976 C972 1.350 . S
C976 C973 1.463 . S
C976 N980 1.427 . S
C977 H967 0.929 . S
C977 C975 1.433 . S
C977 N980 1.384 . S
C978 H969 0.929 . S
C978 C970 1.378 . S
C978 C973 1.350 . S
C979 H966 0.929 . S
C979 C971 1.433 . S
C979 N981 1.384 . S
N980 C976 1.427 . S
N980 C977 1.384 . S
N981 C973 1.427 . S
N981 C979 1.384 . S
H982 C988 0.930 . S
H983 C992 0.930 . S
H984 C997 0.929 . S
H985 C995 0.929 . S
H986 C990 0.929 . S
H987 C996 0.929 . S
C988 H982 0.930 . S
C988 C989 1.367 . S
C988 C996 1.378 . S
C989 C988 1.367 . S
C989 C997 1.433 . S
C990 H986 0.929 . S
C990 C992 1.378 . S
C990 C994 1.350 . S
C991 C994 1.463 . S
C991 C996 1.350 . S
C991 N999 1.427 . S
C992 H983 0.930 . S
C992 C990 1.378 . S
C992 C993 1.367 . S
C993 C992 1.367 . S
C993 C995 1.433 . S
C994 C990 1.350 . S
C994 C991 1.463 . S
C994 N998 1.427 . S
C995 H985 0.929 . S
C995 C993 1.433 . S
C995 N998 1.384 . S
C996 H987 0.929 . S
C996 C988 1.378 . S
C996 C991 1.350 . S
C997 H984 0.929 . S
C997 C989 1.433 . S
C997 N999 1.384 . S
N998 C994 1.427 . S
N998 C995 1.384 . S
N999 C991 1.427 . S
N999 C997 1.384 . S
H1000 C1006 0.930 . S
H1001 C1010 0.930 . S
H1002 C1015 0.929 . S
H1003 C1013 0.929 . S
H1004 C1008 0.929 . S
H1005 C1014 0.929 . S
C1006 H1000 0.930 . S
C1006 C1007 1.367 . S
C1006 C1014 1.378 . S
C1007 C1006 1.367 . S
C1007 C1015 1.433 . S
C1008 H1004 0.929 . S
C1008 C1010 1.378 . S
C1008 C1012 1.350 . S
C1009 C1012 1.463 . S
C1009 C1014 1.350 . S
C1009 N1017 1.427 . S
C1010 H1001 0.930 . S
C1010 C1008 1.378 . S
C1010 C1011 1.367 . S
C1011 C1010 1.367 . S
C1011 C1013 1.433 . S
C1012 C1008 1.350 . S
C1012 C1009 1.463 . S
C1012 N1016 1.427 . S
C1013 H1003 0.929 . S
C1013 C1011 1.433 . S
C1013 N1016 1.384 . S
C1014 H1005 0.929 . S
C1014 C1006 1.378 . S
C1014 C1009 1.350 . S
C1015 H1002 0.929 . S
C1015 C1007 1.433 . S
C1015 N1017 1.384 . S
N1016 C1012 1.427 . S
N1016 C1013 1.384 . S
N1017 C1009 1.427 . S
N1017 C1015 1.384 . S
H1018 C1024 0.930 . S
H1019 C1028 0.930 . S
H1020 C1033 0.929 . S
H1021 C1031 0.929 . S
H1022 C1026 0.920 1_455 S
H1023 C1032 0.950 . S
C1024 H1018 0.930 . S
C1024 C1025 1.367 . S
C1024 C1032 1.351 1_455 S
C1025 C1024 1.367 . S
C1025 C1033 1.433 . S
C1026 H1022 0.920 1_655 S
C1026 C1028 1.378 . S
C1026 C1030 1.350 . S
C1027 C1030 1.459 1_455 S
C1027 C1032 1.359 1_455 S
C1027 N1035 1.430 . S
C1028 H1019 0.930 . S
C1028 C1026 1.378 . S
C1028 C1029 1.367 . S
C1029 C1028 1.367 . S
C1029 C1031 1.433 . S
C1030 C1026 1.350 . S
C1030 C1027 1.459 1_655 S
C1030 N1034 1.427 . S
C1031 H1021 0.929 . S
C1031 C1029 1.433 . S
C1031 N1034 1.384 . S
C1032 H1023 0.950 . S
C1032 C1024 1.351 1_655 S
C1032 C1027 1.359 1_655 S
C1033 H1020 0.929 . S
C1033 C1025 1.433 . S
C1033 N1035 1.384 . S
N1034 C1030 1.427 . S
N1034 C1031 1.384 . S
N1035 C1027 1.430 . S
N1035 C1033 1.384 . S
H1036 C1042 0.930 . S
H1037 C1046 0.930 . S
H1038 C1051 0.929 . S
H1039 C1049 0.929 . S
H1040 C1044 0.929 . S
H1041 C1050 0.929 . S
C1042 H1036 0.930 . S
C1042 C1043 1.367 . S
C1042 C1050 1.378 . S
C1043 C1042 1.367 . S
C1043 C1051 1.433 . S
C1044 H1040 0.929 . S
C1044 C1046 1.378 . S
C1044 C1048 1.350 . S
C1045 C1048 1.463 . S
C1045 C1050 1.350 . S
C1045 N1053 1.427 . S
C1046 H1037 0.930 . S
C1046 C1044 1.378 . S
C1046 C1047 1.367 . S
C1047 C1046 1.367 . S
C1047 C1049 1.433 . S
C1048 C1044 1.350 . S
C1048 C1045 1.463 . S
C1048 N1052 1.427 . S
C1049 H1039 0.929 . S
C1049 C1047 1.433 . S
C1049 N1052 1.384 . S
C1050 H1041 0.929 . S
C1050 C1042 1.378 . S
C1050 C1045 1.350 . S
C1051 H1038 0.929 . S
C1051 C1043 1.433 . S
C1051 N1053 1.384 . S
N1052 C1048 1.427 . S
N1052 C1049 1.384 . S
N1053 C1045 1.427 . S
N1053 C1051 1.384 . S
H1054 C1060 0.930 . S
H1055 C1064 0.930 . S
H1056 C1069 0.929 . S
H1057 C1067 0.929 . S
H1058 C1062 0.929 . S
H1059 C1068 0.929 . S
C1060 H1054 0.930 . S
C1060 C1061 1.367 . S
C1060 C1068 1.378 . S
C1061 C1060 1.367 . S
C1061 C1069 1.433 . S
C1062 H1058 0.929 . S
C1062 C1064 1.378 . S
C1062 C1066 1.350 . S
C1063 C1066 1.463 . S
C1063 C1068 1.350 . S
C1063 N1071 1.427 . S
C1064 H1055 0.930 . S
C1064 C1062 1.378 . S
C1064 C1065 1.367 . S
C1065 C1064 1.367 . S
C1065 C1067 1.433 . S
C1066 C1062 1.350 . S
C1066 C1063 1.463 . S
C1066 N1070 1.427 . S
C1067 H1057 0.929 . S
C1067 C1065 1.433 . S
C1067 N1070 1.384 . S
C1068 H1059 0.929 . S
C1068 C1060 1.378 . S
C1068 C1063 1.350 . S
C1069 H1056 0.929 . S
C1069 C1061 1.433 . S
C1069 N1071 1.384 . S
N1070 C1066 1.427 . S
N1070 C1067 1.384 . S
N1071 C1063 1.427 . S
N1071 C1069 1.384 . S
H1072 C1078 0.930 . S
H1073 C1082 0.930 . S
H1074 C1087 0.929 . S
H1075 C1085 0.929 . S
H1076 C1080 0.929 . S
H1077 C1086 0.929 . S
C1078 H1072 0.930 . S
C1078 C1079 1.367 . S
C1078 C1086 1.378 . S
C1079 C1078 1.367 . S
C1079 C1087 1.433 . S
C1080 H1076 0.929 . S
C1080 C1082 1.378 . S
C1080 C1084 1.350 . S
C1081 C1084 1.463 . S
C1081 C1086 1.350 . S
C1081 N1089 1.427 . S
C1082 H1073 0.930 . S
C1082 C1080 1.378 . S
C1082 C1083 1.367 . S
C1083 C1082 1.367 . S
C1083 C1085 1.433 . S
C1084 C1080 1.350 . S
C1084 C1081 1.463 . S
C1084 N1088 1.427 . S
C1085 H1075 0.929 . S
C1085 C1083 1.433 . S
C1085 N1088 1.384 . S
C1086 H1077 0.929 . S
C1086 C1078 1.378 . S
C1086 C1081 1.350 . S
C1087 H1074 0.929 . S
C1087 C1079 1.433 . S
C1087 N1089 1.384 . S
N1088 C1084 1.427 . S
N1088 C1085 1.384 . S
N1089 C1081 1.427 . S
N1089 C1087 1.384 . S
H1090 C1096 0.930 . S
H1091 C1100 0.930 . S
H1092 C1105 0.929 . S
H1093 C1103 0.929 . S
H1094 C1098 0.929 . S
H1095 C1104 0.929 . S
C1096 H1090 0.930 . S
C1096 C1097 1.367 . S
C1096 C1104 1.378 . S
C1097 C1096 1.367 . S
C1097 C1105 1.433 . S
C1098 H1094 0.929 . S
C1098 C1100 1.378 . S
C1098 C1102 1.350 . S
C1099 C1102 1.463 . S
C1099 C1104 1.350 . S
C1099 N1107 1.427 . S
C1100 H1091 0.930 . S
C1100 C1098 1.378 . S
C1100 C1101 1.367 . S
C1101 C1100 1.367 . S
C1101 C1103 1.433 . S
C1102 C1098 1.350 . S
C1102 C1099 1.463 . S
C1102 N1106 1.427 . S
C1103 H1093 0.929 . S
C1103 C1101 1.433 . S
C1103 N1106 1.384 . S
C1104 H1095 0.929 . S
C1104 C1096 1.378 . S
C1104 C1099 1.350 . S
C1105 H1092 0.929 . S
C1105 C1097 1.433 . S
C1105 N1107 1.384 . S
N1106 C1102 1.427 . S
N1106 C1103 1.384 . S
N1107 C1099 1.427 . S
N1107 C1105 1.384 . S
H1108 C1114 0.930 . S
H1109 C1118 0.941 . S
H1110 C1123 0.929 . S
H1111 C1121 0.929 . S
H1112 C1116 0.929 . S
H1113 C1122 0.929 . S
C1114 H1108 0.930 . S
C1114 C1115 1.367 1_545 S
C1114 C1122 1.378 . S
C1115 C1114 1.367 1_565 S
C1115 C1123 1.433 . S
C1116 H1112 0.929 . S
C1116 C1118 1.398 . S
C1116 C1120 1.350 1_565 S
C1117 C1120 1.463 . S
C1117 C1122 1.350 . S
C1117 N1125 1.427 1_545 S
C1118 H1109 0.941 . S
C1118 C1116 1.398 . S
C1118 C1119 1.337 1_565 S
C1119 C1118 1.337 1_545 S
C1119 C1121 1.433 . S
C1120 C1116 1.350 1_545 S
C1120 C1117 1.463 . S
C1120 N1124 1.427 . S
C1121 H1111 0.929 . S
C1121 C1119 1.433 . S
C1121 N1124 1.384 . S
C1122 H1113 0.929 . S
C1122 C1114 1.378 . S
C1122 C1117 1.350 . S
C1123 H1110 0.929 . S
C1123 C1115 1.433 . S
C1123 N1125 1.384 . S
N1124 C1120 1.427 . S
N1124 C1121 1.384 . S
N1125 C1117 1.427 1_565 S
N1125 C1123 1.384 . S
H1126 C1132 0.930 . S
H1127 C1136 0.930 . S
H1128 C1141 0.929 . S
H1129 C1139 0.929 . S
H1130 C1134 0.929 . S
H1131 C1140 0.929 . S
C1132 H1126 0.930 . S
C1132 C1133 1.367 1_556 S
C1132 C1140 1.378 . S
C1133 C1132 1.367 1_554 S
C1133 C1141 1.433 . S
C1134 H1130 0.929 . S
C1134 C1136 1.378 . S
C1134 C1138 1.350 . S
C1135 C1138 1.463 . S
C1135 C1140 1.350 1_554 S
C1135 N1143 1.427 . S
C1136 H1127 0.930 . S
C1136 C1134 1.378 . S
C1136 C1137 1.367 . S
C1137 C1136 1.367 . S
C1137 C1139 1.433 . S
C1138 C1134 1.350 . S
C1138 C1135 1.463 . S
C1138 N1142 1.427 . S
C1139 H1129 0.929 . S
C1139 C1137 1.433 . S
C1139 N1142 1.384 . S
C1140 H1131 0.929 . S
C1140 C1132 1.378 . S
C1140 C1135 1.350 1_556 S
C1141 H1128 0.929 . S
C1141 C1133 1.433 . S
C1141 N1143 1.384 . S
N1142 C1138 1.427 . S
N1142 C1139 1.384 . S
N1143 C1135 1.427 . S
N1143 C1141 1.384 . S
H1144 C1150 0.930 . S
H1145 C1154 0.930 . S
H1146 C1159 0.929 . S
H1147 C1157 0.929 . S
H1148 C1152 0.929 . S
H1149 C1158 0.929 . S
C1150 H1144 0.930 . S
C1150 C1151 1.367 . S
C1150 C1158 1.378 . S
C1151 C1150 1.367 . S
C1151 C1159 1.433 . S
C1152 H1148 0.929 . S
C1152 C1154 1.378 . S
C1152 C1156 1.350 . S
C1153 C1156 1.463 . S
C1153 C1158 1.350 . S
C1153 N1161 1.427 . S
C1154 H1145 0.930 . S
C1154 C1152 1.378 . S
C1154 C1155 1.367 . S
C1155 C1154 1.367 . S
C1155 C1157 1.433 . S
C1156 C1152 1.350 . S
C1156 C1153 1.463 . S
C1156 N1160 1.427 . S
C1157 H1147 0.929 . S
C1157 C1155 1.433 . S
C1157 N1160 1.384 . S
C1158 H1149 0.929 . S
C1158 C1150 1.378 . S
C1158 C1153 1.350 . S
C1159 H1146 0.929 . S
C1159 C1151 1.433 . S
C1159 N1161 1.384 . S
N1160 C1156 1.427 . S
N1160 C1157 1.384 . S
N1161 C1153 1.427 . S
N1161 C1159 1.384 . S
H1162 C1168 0.930 . S
H1163 C1172 0.930 . S
H1164 C1177 0.929 . S
H1165 C1175 0.929 . S
H1166 C1170 0.929 . S
H1167 C1176 0.929 . S
C1168 H1162 0.930 . S
C1168 C1169 1.367 . S
C1168 C1176 1.378 . S
C1169 C1168 1.367 . S
C1169 C1177 1.433 . S
C1170 H1166 0.929 . S
C1170 C1172 1.378 . S
C1170 C1174 1.350 . S
C1171 C1174 1.463 . S
C1171 C1176 1.350 . S
C1171 N1179 1.427 . S
C1172 H1163 0.930 . S
C1172 C1170 1.378 . S
C1172 C1173 1.367 . S
C1173 C1172 1.367 . S
C1173 C1175 1.433 . S
C1174 C1170 1.350 . S
C1174 C1171 1.463 . S
C1174 N1178 1.427 . S
C1175 H1165 0.929 . S
C1175 C1173 1.433 . S
C1175 N1178 1.384 . S
C1176 H1167 0.929 . S
C1176 C1168 1.378 . S
C1176 C1171 1.350 . S
C1177 H1164 0.929 . S
C1177 C1169 1.433 . S
C1177 N1179 1.384 . S
N1178 C1174 1.427 . S
N1178 C1175 1.384 . S
N1179 C1171 1.427 . S
N1179 C1177 1.384 . S
H1180 C1186 0.930 . S
H1181 C1190 0.930 . S
H1182 C1195 0.929 . S
H1183 C1193 0.929 . S
H1184 C1188 0.929 . S
H1185 C1194 0.929 . S
C1186 H1180 0.930 . S
C1186 C1187 1.367 . S
C1186 C1194 1.378 . S
C1187 C1186 1.367 . S
C1187 C1195 1.433 . S
C1188 H1184 0.929 . S
C1188 C1190 1.378 . S
C1188 C1192 1.350 . S
C1189 C1192 1.463 . S
C1189 C1194 1.350 . S
C1189 N1197 1.427 . S
C1190 H1181 0.930 . S
C1190 C1188 1.378 . S
C1190 C1191 1.367 . S
C1191 C1190 1.367 . S
C1191 C1193 1.433 . S
C1192 C1188 1.350 . S
C1192 C1189 1.463 . S
C1192 N1196 1.427 . S
C1193 H1183 0.929 . S
C1193 C1191 1.433 . S
C1193 N1196 1.384 . S
C1194 H1185 0.929 . S
C1194 C1186 1.378 . S
C1194 C1189 1.350 . S
C1195 H1182 0.929 . S
C1195 C1187 1.433 . S
C1195 N1197 1.384 . S
N1196 C1192 1.427 . S
N1196 C1193 1.384 . S
N1197 C1189 1.427 . S
N1197 C1195 1.384 . S
H1198 C1204 0.930 . S
H1199 C1208 0.930 . S
H1200 C1213 0.929 . S
H1201 C1211 0.929 . S
H1202 C1206 0.929 . S
H1203 C1212 0.929 . S
C1204 H1198 0.930 . S
C1204 C1205 1.367 . S
C1204 C1212 1.378 . S
C1205 C1204 1.367 . S
C1205 C1213 1.433 . S
C1206 H1202 0.929 . S
C1206 C1208 1.378 . S
C1206 C1210 1.350 . S
C1207 C1210 1.463 . S
C1207 C1212 1.350 . S
C1207 N1215 1.427 . S
C1208 H1199 0.930 . S
C1208 C1206 1.378 . S
C1208 C1209 1.367 . S
C1209 C1208 1.367 . S
C1209 C1211 1.433 . S
C1210 C1206 1.350 . S
C1210 C1207 1.463 . S
C1210 N1214 1.427 . S
C1211 H1201 0.929 . S
C1211 C1209 1.433 . S
C1211 N1214 1.384 . S
C1212 H1203 0.929 . S
C1212 C1204 1.378 . S
C1212 C1207 1.350 . S
C1213 H1200 0.929 . S
C1213 C1205 1.433 . S
C1213 N1215 1.384 . S
N1214 C1210 1.427 . S
N1214 C1211 1.384 . S
N1215 C1207 1.427 . S
N1215 C1213 1.384 . S
H1216 C1222 0.930 . S
H1217 C1226 0.930 . S
H1218 C1231 0.929 . S
H1219 C1229 0.929 . S
H1220 C1224 0.929 . S
H1221 C1230 0.929 . S
C1222 H1216 0.930 . S
C1222 C1223 1.367 . S
C1222 C1230 1.378 . S
C1223 C1222 1.367 . S
C1223 C1231 1.433 . S
C1224 H1220 0.929 . S
C1224 C1226 1.378 . S
C1224 C1228 1.350 . S
C1225 C1228 1.463 . S
C1225 C1230 1.350 . S
C1225 N1233 1.427 . S
C1226 H1217 0.930 . S
C1226 C1224 1.378 . S
C1226 C1227 1.367 . S
C1227 C1226 1.367 . S
C1227 C1229 1.433 . S
C1228 C1224 1.350 . S
C1228 C1225 1.463 . S
C1228 N1232 1.427 . S
C1229 H1219 0.929 . S
C1229 C1227 1.433 . S
C1229 N1232 1.384 . S
C1230 H1221 0.929 . S
C1230 C1222 1.378 . S
C1230 C1225 1.350 . S
C1231 H1218 0.929 . S
C1231 C1223 1.433 . S
C1231 N1233 1.384 . S
N1232 C1228 1.427 . S
N1232 C1229 1.384 . S
N1233 C1225 1.427 . S
N1233 C1231 1.384 . S
H1234 C1240 0.930 . S
H1235 C1244 0.930 . S
H1236 C1249 0.929 . S
H1237 C1247 0.929 . S
H1238 C1242 0.929 . S
H1239 C1248 0.929 . S
C1240 H1234 0.930 . S
C1240 C1241 1.367 . S
C1240 C1248 1.378 . S
C1241 C1240 1.367 . S
C1241 C1249 1.433 . S
C1242 H1238 0.929 . S
C1242 C1244 1.378 . S
C1242 C1246 1.350 . S
C1243 C1246 1.463 . S
C1243 C1248 1.350 . S
C1243 N1251 1.427 . S
C1244 H1235 0.930 . S
C1244 C1242 1.378 . S
C1244 C1245 1.367 . S
C1245 C1244 1.367 . S
C1245 C1247 1.433 . S
C1246 C1242 1.350 . S
C1246 C1243 1.463 . S
C1246 N1250 1.427 . S
C1247 H1237 0.929 . S
C1247 C1245 1.433 . S
C1247 N1250 1.384 . S
C1248 H1239 0.929 . S
C1248 C1240 1.378 . S
C1248 C1243 1.350 . S
C1249 H1236 0.929 . S
C1249 C1241 1.433 . S
C1249 N1251 1.384 . S
N1250 C1246 1.427 . S
N1250 C1247 1.384 . S
N1251 C1243 1.427 . S
N1251 C1249 1.384 . S
H1252 C1258 0.930 . S
H1253 C1262 0.930 . S
H1254 C1267 0.929 . S
H1255 C1265 0.929 . S
H1256 C1260 0.929 . S
H1257 C1266 0.929 . S
C1258 H1252 0.930 . S
C1258 C1259 1.367 . S
C1258 C1266 1.378 . S
C1259 C1258 1.367 . S
C1259 C1267 1.433 . S
C1260 H1256 0.929 . S
C1260 C1262 1.378 . S
C1260 C1264 1.350 . S
C1261 C1264 1.463 . S
C1261 C1266 1.350 . S
C1261 N1269 1.427 . S
C1262 H1253 0.930 . S
C1262 C1260 1.378 . S
C1262 C1263 1.367 . S
C1263 C1262 1.367 . S
C1263 C1265 1.433 . S
C1264 C1260 1.350 . S
C1264 C1261 1.463 . S
C1264 N1268 1.427 . S
C1265 H1255 0.929 . S
C1265 C1263 1.433 . S
C1265 N1268 1.384 . S
C1266 H1257 0.929 . S
C1266 C1258 1.378 . S
C1266 C1261 1.350 . S
C1267 H1254 0.929 . S
C1267 C1259 1.433 . S
C1267 N1269 1.384 . S
N1268 C1264 1.427 . S
N1268 C1265 1.384 . S
N1269 C1261 1.427 . S
N1269 C1267 1.384 . S
H1270 C1276 0.930 . S
H1271 C1280 0.930 . S
H1272 C1285 0.929 . S
H1273 C1283 0.929 . S
H1274 C1278 0.929 . S
H1275 C1284 0.929 . S
C1276 H1270 0.930 . S
C1276 C1277 1.367 . S
C1276 C1284 1.378 . S
C1277 C1276 1.367 . S
C1277 C1285 1.433 . S
C1278 H1274 0.929 . S
C1278 C1280 1.378 . S
C1278 C1282 1.350 . S
C1279 C1282 1.463 . S
C1279 C1284 1.350 . S
C1279 N1287 1.427 . S
C1280 H1271 0.930 . S
C1280 C1278 1.378 . S
C1280 C1281 1.367 . S
C1281 C1280 1.367 . S
C1281 C1283 1.433 . S
C1282 C1278 1.350 . S
C1282 C1279 1.463 . S
C1282 N1286 1.427 . S
C1283 H1273 0.929 . S
C1283 C1281 1.433 . S
C1283 N1286 1.384 . S
C1284 H1275 0.929 . S
C1284 C1276 1.378 . S
C1284 C1279 1.350 . S
C1285 H1272 0.929 . S
C1285 C1277 1.433 . S
C1285 N1287 1.384 . S
N1286 C1282 1.427 . S
N1286 C1283 1.384 . S
N1287 C1279 1.427 . S
N1287 C1285 1.384 . S
H1288 C1294 0.930 . S
H1289 C1298 0.930 . S
H1290 C1303 0.929 . S
H1291 C1301 0.929 . S
H1292 C1296 0.929 . S
H1293 C1302 0.929 . S
C1294 H1288 0.930 . S
C1294 C1295 1.367 . S
C1294 C1302 1.378 . S
C1295 C1294 1.367 . S
C1295 C1303 1.433 . S
C1296 H1292 0.929 . S
C1296 C1298 1.378 . S
C1296 C1300 1.350 . S
C1297 C1300 1.463 . S
C1297 C1302 1.350 . S
C1297 N1305 1.427 . S
C1298 H1289 0.930 . S
C1298 C1296 1.378 . S
C1298 C1299 1.367 . S
C1299 C1298 1.367 . S
C1299 C1301 1.433 . S
C1300 C1296 1.350 . S
C1300 C1297 1.463 . S
C1300 N1304 1.427 . S
C1301 H1291 0.929 . S
C1301 C1299 1.433 . S
C1301 N1304 1.384 . S
C1302 H1293 0.929 . S
C1302 C1294 1.378 . S
C1302 C1297 1.350 . S
C1303 H1290 0.929 . S
C1303 C1295 1.433 . S
C1303 N1305 1.384 . S
N1304 C1300 1.427 . S
N1304 C1301 1.384 . S
N1305 C1297 1.427 . S
N1305 C1303 1.384 . S
H1306 C1312 0.930 . S
H1307 C1316 0.930 . S
H1308 C1321 0.929 . S
H1309 C1319 0.929 . S
H1310 C1314 0.929 . S
H1311 C1320 0.929 . S
C1312 H1306 0.930 . S
C1312 C1313 1.367 . S
C1312 C1320 1.378 . S
C1313 C1312 1.367 . S
C1313 C1321 1.433 . S
C1314 H1310 0.929 . S
C1314 C1316 1.378 . S
C1314 C1318 1.350 . S
C1315 C1318 1.463 . S
C1315 C1320 1.350 . S
C1315 N1323 1.427 . S
C1316 H1307 0.930 . S
C1316 C1314 1.378 . S
C1316 C1317 1.367 . S
C1317 C1316 1.367 . S
C1317 C1319 1.433 . S
C1318 C1314 1.350 . S
C1318 C1315 1.463 . S
C1318 N1322 1.427 . S
C1319 H1309 0.929 . S
C1319 C1317 1.433 . S
C1319 N1322 1.384 . S
C1320 H1311 0.929 . S
C1320 C1312 1.378 . S
C1320 C1315 1.350 . S
C1321 H1308 0.929 . S
C1321 C1313 1.433 . S
C1321 N1323 1.384 . S
N1322 C1318 1.427 . S
N1322 C1319 1.384 . S
N1323 C1315 1.427 . S
N1323 C1321 1.384 . S
H1324 C1330 0.930 . S
H1325 C1334 0.930 . S
H1326 C1339 0.929 . S
H1327 C1337 0.929 . S
H1328 C1332 0.929 . S
H1329 C1338 0.929 . S
C1330 H1324 0.930 . S
C1330 C1331 1.367 . S
C1330 C1338 1.378 . S
C1331 C1330 1.367 . S
C1331 C1339 1.433 . S
C1332 H1328 0.929 . S
C1332 C1334 1.378 . S
C1332 C1336 1.350 . S
C1333 C1336 1.463 . S
C1333 C1338 1.350 . S
C1333 N1341 1.427 . S
C1334 H1325 0.930 . S
C1334 C1332 1.378 . S
C1334 C1335 1.367 . S
C1335 C1334 1.367 . S
C1335 C1337 1.433 . S
C1336 C1332 1.350 . S
C1336 C1333 1.463 . S
C1336 N1340 1.427 . S
C1337 H1327 0.929 . S
C1337 C1335 1.433 . S
C1337 N1340 1.384 . S
C1338 H1329 0.929 . S
C1338 C1330 1.378 . S
C1338 C1333 1.350 . S
C1339 H1326 0.929 . S
C1339 C1331 1.433 . S
C1339 N1341 1.384 . S
N1340 C1336 1.427 . S
N1340 C1337 1.384 . S
N1341 C1333 1.427 . S
N1341 C1339 1.384 . S
H1342 C1348 0.930 . S
H1343 C1352 0.930 . S
H1344 C1357 0.929 . S
H1345 C1355 0.929 . S
H1346 C1350 0.929 . S
H1347 C1356 0.929 . S
C1348 H1342 0.930 . S
C1348 C1349 1.367 . S
C1348 C1356 1.378 . S
C1349 C1348 1.367 . S
C1349 C1357 1.433 . S
C1350 H1346 0.929 . S
C1350 C1352 1.378 . S
C1350 C1354 1.350 . S
C1351 C1354 1.463 . S
C1351 C1356 1.350 . S
C1351 N1359 1.427 . S
C1352 H1343 0.930 . S
C1352 C1350 1.378 . S
C1352 C1353 1.367 . S
C1353 C1352 1.367 . S
C1353 C1355 1.433 . S
C1354 C1350 1.350 . S
C1354 C1351 1.463 . S
C1354 N1358 1.427 . S
C1355 H1345 0.929 . S
C1355 C1353 1.433 . S
C1355 N1358 1.384 . S
C1356 H1347 0.929 . S
C1356 C1348 1.378 . S
C1356 C1351 1.350 . S
C1357 H1344 0.929 . S
C1357 C1349 1.433 . S
C1357 N1359 1.384 . S
N1358 C1354 1.427 . S
N1358 C1355 1.384 . S
N1359 C1351 1.427 . S
N1359 C1357 1.384 . S
H1360 C1366 0.930 . S
H1361 C1370 0.930 . S
H1362 C1375 0.929 . S
H1363 C1373 0.929 . S
H1364 C1368 0.929 . S
H1365 C1374 0.929 . S
C1366 H1360 0.930 . S
C1366 C1367 1.367 . S
C1366 C1374 1.378 . S
C1367 C1366 1.367 . S
C1367 C1375 1.433 . S
C1368 H1364 0.929 . S
C1368 C1370 1.378 . S
C1368 C1372 1.350 . S
C1369 C1372 1.463 . S
C1369 C1374 1.350 . S
C1369 N1377 1.427 . S
C1370 H1361 0.930 . S
C1370 C1368 1.378 . S
C1370 C1371 1.367 . S
C1371 C1370 1.367 . S
C1371 C1373 1.433 . S
C1372 C1368 1.350 . S
C1372 C1369 1.463 . S
C1372 N1376 1.427 . S
C1373 H1363 0.929 . S
C1373 C1371 1.433 . S
C1373 N1376 1.384 . S
C1374 H1365 0.929 . S
C1374 C1366 1.378 . S
C1374 C1369 1.350 . S
C1375 H1362 0.929 . S
C1375 C1367 1.433 . S
C1375 N1377 1.384 . S
N1376 C1372 1.427 . S
N1376 C1373 1.384 . S
N1377 C1369 1.427 . S
N1377 C1375 1.384 . S
H1378 C1384 0.930 . S
H1379 C1388 0.930 . S
H1380 C1393 0.929 . S
H1381 C1391 0.929 . S
H1382 C1386 0.929 . S
H1383 C1392 0.929 . S
C1384 H1378 0.930 . S
C1384 C1385 1.367 . S
C1384 C1392 1.378 . S
C1385 C1384 1.367 . S
C1385 C1393 1.433 . S
C1386 H1382 0.929 . S
C1386 C1388 1.378 . S
C1386 C1390 1.350 . S
C1387 C1390 1.463 . S
C1387 C1392 1.350 . S
C1387 N1395 1.427 . S
C1388 H1379 0.930 . S
C1388 C1386 1.378 . S
C1388 C1389 1.367 . S
C1389 C1388 1.367 . S
C1389 C1391 1.433 . S
C1390 C1386 1.350 . S
C1390 C1387 1.463 . S
C1390 N1394 1.427 . S
C1391 H1381 0.929 . S
C1391 C1389 1.433 . S
C1391 N1394 1.384 . S
C1392 H1383 0.929 . S
C1392 C1384 1.378 . S
C1392 C1387 1.350 . S
C1393 H1380 0.929 . S
C1393 C1385 1.433 . S
C1393 N1395 1.384 . S
N1394 C1390 1.427 . S
N1394 C1391 1.384 . S
N1395 C1387 1.427 . S
N1395 C1393 1.384 . S
H1396 C1402 0.930 . S
H1397 C1406 0.930 . S
H1398 C1411 0.929 . S
H1399 C1409 0.929 . S
H1400 C1404 0.929 . S
H1401 C1410 0.929 . S
C1402 H1396 0.930 . S
C1402 C1403 1.367 . S
C1402 C1410 1.378 . S
C1403 C1402 1.367 . S
C1403 C1411 1.433 . S
C1404 H1400 0.929 . S
C1404 C1406 1.378 . S
C1404 C1408 1.350 . S
C1405 C1408 1.463 . S
C1405 C1410 1.350 . S
C1405 N1413 1.427 . S
C1406 H1397 0.930 . S
C1406 C1404 1.378 . S
C1406 C1407 1.367 . S
C1407 C1406 1.367 . S
C1407 C1409 1.433 . S
C1408 C1404 1.350 . S
C1408 C1405 1.463 . S
C1408 N1412 1.427 . S
C1409 H1399 0.929 . S
C1409 C1407 1.433 . S
C1409 N1412 1.384 . S
C1410 H1401 0.929 . S
C1410 C1402 1.378 . S
C1410 C1405 1.350 . S
C1411 H1398 0.929 . S
C1411 C1403 1.433 . S
C1411 N1413 1.384 . S
N1412 C1408 1.427 . S
N1412 C1409 1.384 . S
N1413 C1405 1.427 . S
N1413 C1411 1.384 . S
H1414 C1420 0.930 . S
H1415 C1424 0.930 . S
H1416 C1429 0.929 . S
H1417 C1427 0.929 . S
H1418 C1422 0.929 . S
H1419 C1428 0.929 . S
C1420 H1414 0.930 . S
C1420 C1421 1.367 . S
C1420 C1428 1.378 . S
C1421 C1420 1.367 . S
C1421 C1429 1.433 . S
C1422 H1418 0.929 . S
C1422 C1424 1.378 . S
C1422 C1426 1.350 . S
C1423 C1426 1.463 . S
C1423 C1428 1.350 . S
C1423 N1431 1.427 . S
C1424 H1415 0.930 . S
C1424 C1422 1.378 . S
C1424 C1425 1.367 . S
C1425 C1424 1.367 . S
C1425 C1427 1.433 . S
C1426 C1422 1.350 . S
C1426 C1423 1.463 . S
C1426 N1430 1.427 . S
C1427 H1417 0.929 . S
C1427 C1425 1.433 . S
C1427 N1430 1.384 . S
C1428 H1419 0.929 . S
C1428 C1420 1.378 . S
C1428 C1423 1.350 . S
C1429 H1416 0.929 . S
C1429 C1421 1.433 . S
C1429 N1431 1.384 . S
N1430 C1426 1.427 . S
N1430 C1427 1.384 . S
N1431 C1423 1.427 . S
N1431 C1429 1.384 . S
H1432 C1438 0.930 . S
H1433 C1442 0.930 . S
H1434 C1447 0.929 . S
H1435 C1445 0.929 . S
H1436 C1440 0.929 . S
H1437 C1446 0.929 . S
C1438 H1432 0.930 . S
C1438 C1439 1.367 . S
C1438 C1446 1.378 . S
C1439 C1438 1.367 . S
C1439 C1447 1.433 . S
C1440 H1436 0.929 . S
C1440 C1442 1.378 . S
C1440 C1444 1.350 . S
C1441 C1444 1.463 . S
C1441 C1446 1.350 . S
C1441 N1449 1.427 . S
C1442 H1433 0.930 . S
C1442 C1440 1.378 . S
C1442 C1443 1.367 . S
C1443 C1442 1.367 . S
C1443 C1445 1.433 . S
C1444 C1440 1.350 . S
C1444 C1441 1.463 . S
C1444 N1448 1.427 . S
C1445 H1435 0.929 . S
C1445 C1443 1.433 . S
C1445 N1448 1.384 . S
C1446 H1437 0.929 . S
C1446 C1438 1.378 . S
C1446 C1441 1.350 . S
C1447 H1434 0.929 . S
C1447 C1439 1.433 . S
C1447 N1449 1.384 . S
N1448 C1444 1.427 . S
N1448 C1445 1.384 . S
N1449 C1441 1.427 . S
N1449 C1447 1.384 . S
H1450 C1456 0.930 . S
H1451 C1460 0.930 . S
H1452 C1465 0.929 . S
H1453 C1463 0.929 . S
H1454 C1458 0.929 . S
H1455 C1464 0.929 . S
C1456 H1450 0.930 . S
C1456 C1457 1.367 . S
C1456 C1464 1.378 . S
C1457 C1456 1.367 . S
C1457 C1465 1.433 . S
C1458 H1454 0.929 . S
C1458 C1460 1.378 . S
C1458 C1462 1.350 . S
C1459 C1462 1.463 . S
C1459 C1464 1.350 . S
C1459 N1467 1.427 . S
C1460 H1451 0.930 . S
C1460 C1458 1.378 . S
C1460 C1461 1.367 . S
C1461 C1460 1.367 . S
C1461 C1463 1.433 . S
C1462 C1458 1.350 . S
C1462 C1459 1.463 . S
C1462 N1466 1.427 . S
C1463 H1453 0.929 . S
C1463 C1461 1.433 . S
C1463 N1466 1.384 . S
C1464 H1455 0.929 . S
C1464 C1456 1.378 . S
C1464 C1459 1.350 . S
C1465 H1452 0.929 . S
C1465 C1457 1.433 . S
C1465 N1467 1.384 . S
N1466 C1462 1.427 . S
N1466 C1463 1.384 . S
N1467 C1459 1.427 . S
N1467 C1465 1.384 . S
H1468 C1474 0.930 . S
H1469 C1478 0.930 . S
H1470 C1483 0.929 . S
H1471 C1481 0.929 . S
H1472 C1476 0.929 . S
H1473 C1482 0.929 . S
C1474 H1468 0.930 . S
C1474 C1475 1.367 . S
C1474 C1482 1.378 . S
C1475 C1474 1.367 . S
C1475 C1483 1.433 . S
C1476 H1472 0.929 . S
C1476 C1478 1.378 . S
C1476 C1480 1.350 . S
C1477 C1480 1.463 . S
C1477 C1482 1.350 . S
C1477 N1485 1.427 . S
C1478 H1469 0.930 . S
C1478 C1476 1.378 . S
C1478 C1479 1.367 . S
C1479 C1478 1.367 . S
C1479 C1481 1.433 . S
C1480 C1476 1.350 . S
C1480 C1477 1.463 . S
C1480 N1484 1.427 . S
C1481 H1471 0.929 . S
C1481 C1479 1.433 . S
C1481 N1484 1.384 . S
C1482 H1473 0.929 . S
C1482 C1474 1.378 . S
C1482 C1477 1.350 . S
C1483 H1470 0.929 . S
C1483 C1475 1.433 . S
C1483 N1485 1.384 . S
N1484 C1480 1.427 . S
N1484 C1481 1.384 . S
N1485 C1477 1.427 . S
N1485 C1483 1.384 . S
H1486 C1492 0.930 . S
H1487 C1496 0.930 . S
H1488 C1501 0.929 . S
H1489 C1499 0.929 . S
H1490 C1494 0.929 . S
H1491 C1500 0.929 . S
C1492 H1486 0.930 . S
C1492 C1493 1.367 . S
C1492 C1500 1.378 . S
C1493 C1492 1.367 . S
C1493 C1501 1.433 . S
C1494 H1490 0.929 . S
C1494 C1496 1.378 . S
C1494 C1498 1.350 . S
C1495 C1498 1.463 . S
C1495 C1500 1.350 . S
C1495 N1503 1.427 . S
C1496 H1487 0.930 . S
C1496 C1494 1.378 . S
C1496 C1497 1.367 . S
C1497 C1496 1.367 . S
C1497 C1499 1.433 . S
C1498 C1494 1.350 . S
C1498 C1495 1.463 . S
C1498 N1502 1.427 . S
C1499 H1489 0.929 . S
C1499 C1497 1.433 . S
C1499 N1502 1.384 . S
C1500 H1491 0.929 . S
C1500 C1492 1.378 . S
C1500 C1495 1.350 . S
C1501 H1488 0.929 . S
C1501 C1493 1.433 . S
C1501 N1503 1.384 . S
N1502 C1498 1.427 . S
N1502 C1499 1.384 . S
N1503 C1495 1.427 . S
N1503 C1501 1.384 . S
C647 C11 1.238 . S
C651 C56 1.193 . S
C665 C91 1.936 . S
C669 C42 1.908 . S
C683 C122 2.228 . S
C687 C99 2.250 . S
C701 C19 1.369 . S
C705 C136 1.324 . S
C719 C10 1.367 . S
C723 C367 1.320 . S
C737 C282 1.235 . S
C741 C47 1.193 . S
C755 C82 1.937 . S
C759 C411 1.899 . S
C773 C131 2.226 . S
C777 C530 2.244 . S
C791 C322 1.937 . S
C795 C51 1.899 . S
C809 C491 2.223 . S
C813 C90 2.251 . S
C827 C570 1.372 . S
C831 C127 1.334 . S
C845 C2 1.234 . S
C849 C447 1.191 . S
C863 C16 0.448 . S
C867 C327 0.358 . S
C881 C499 1.658 . S
C885 C170 1.675 . S
C899 C216 0.370 . S
C903 C567 0.469 . S
C917 C450 1.669 . S
C921 C259 1.663 . S
C935 C96 0.370 . S
C939 C287 0.434 . S
C953 C370 1.663 . S
C957 C179 1.669 . S
C971 C250 1.659 . S
C975 C419 1.674 . S
C989 C202 1.936 . S
C993 C451 1.900 . S
C1007 C371 2.224 . S
C1011 C210 2.245 . S
C1025 C456 1.183 . S
C1029 C291 1.233 . S
C1043 C211 1.936 . S
C1047 C162 1.907 . S
C1061 C362 2.221 . S
C1065 C339 2.249 . S
C1079 C531 1.937 . S
C1083 C442 1.900 . S
C1097 C242 2.229 . S
C1101 C219 2.248 . S
C1115 C376 1.322 . S
C1119 C579 1.357 . S
C1133 C536 0.388 . S
C1137 C7 0.476 . S
C1151 C87 0.360 . S
C1155 C576 0.456 . S
C1169 C490 1.660 . S
C1173 C59 1.673 . S
C1187 C296 0.474 . S
C1191 C207 0.378 . S
C1205 C139 1.660 . S
C1209 C410 1.672 . S
C1223 C482 2.230 . S
C1227 C539 2.248 . S
C1241 C299 1.368 . S
C1245 C496 1.340 . S
C1259 C247 1.324 . S
C1263 C290 1.369 . S
C1277 C171 1.907 . S
C1281 C522 1.936 . S
C1295 C487 1.325 . S
C1299 C610 1.370 . S
C1313 C607 0.451 . S
C1317 C336 0.390 . S
C1331 C50 1.664 . S
C1335 C379 1.668 . S
C1349 C330 2.249 . S
C1353 C251 2.229 . S
C1367 C331 1.936 . S
C1371 C402 1.903 . S
C1385 C619 1.371 . S
C1389 C256 1.337 . S
C1403 C527 0.366 . S
C1407 C616 0.465 . S
C1421 C459 1.672 . S
C1425 C130 1.662 . S
C1439 C416 1.199 . S
C1443 C571 1.238 . S
C1457 C407 1.188 . S
C1461 C602 1.236 . S
C1475 C167 1.184 . S
C1479 C562 1.232 . S
C1493 C611 1.235 . S
C1497 C176 1.193 . S
