# Generated by pormake.
# Topology uou, (4)-cn, num edge types: 1
# Building blocks:
#     Node 0, Type 0, BuildingBlock: GALJAG_clean_sbu_0, # of connection points: 4
#     Node 1, Type 0, BuildingBlock: GALJAG_clean_sbu_0, # of connection points: 4
#     Node 2, Type 0, BuildingBlock: GALJAG_clean_sbu_0, # of connection points: 4
#     Node 3, Type 0, BuildingBlock: GALJAG_clean_sbu_0, # of connection points: 4
#     Node 4, Type 0, BuildingBlock: GALJAG_clean_sbu_0, # of connection points: 4
#     Node 5, Type 0, BuildingBlock: GALJAG_clean_sbu_0, # of connection points: 4
#     Node 6, Type 0, BuildingBlock: GALJAG_clean_sbu_0, # of connection points: 4
#     Node 7, Type 0, BuildingBlock: GALJAG_clean_sbu_0, # of connection points: 4
#     Node 8, Type 0, BuildingBlock: GALJAG_clean_sbu_0, # of connection points: 4
#     Node 9, Type 0, BuildingBlock: GALJAG_clean_sbu_0, # of connection points: 4
#     Node 10, Type 0, BuildingBlock: GALJAG_clean_sbu_0, # of connection points: 4
#     Node 11, Type 0, BuildingBlock: GALJAG_clean_sbu_0, # of connection points: 4
#     Node 12, Type 0, BuildingBlock: GALJAG_clean_sbu_0, # of connection points: 4
#     Node 13, Type 0, BuildingBlock: GALJAG_clean_sbu_0, # of connection points: 4
#     Node 14, Type 0, BuildingBlock: GALJAG_clean_sbu_0, # of connection points: 4
#     Node 15, Type 0, BuildingBlock: GALJAG_clean_sbu_0, # of connection points: 4
#     Edge 16, Type (0, 0), BuildingBlock: CIFDUS_clean_linker_0, # of connection points: 2
#     Edge 17, Type (0, 0), BuildingBlock: CIFDUS_clean_linker_0, # of connection points: 2
#     Edge 18, Type (0, 0), BuildingBlock: CIFDUS_clean_linker_0, # of connection points: 2
#     Edge 19, Type (0, 0), BuildingBlock: CIFDUS_clean_linker_0, # of connection points: 2
#     Edge 20, Type (0, 0), BuildingBlock: CIFDUS_clean_linker_0, # of connection points: 2
#     Edge 21, Type (0, 0), BuildingBlock: CIFDUS_clean_linker_0, # of connection points: 2
#     Edge 22, Type (0, 0), BuildingBlock: CIFDUS_clean_linker_0, # of connection points: 2
#     Edge 23, Type (0, 0), BuildingBlock: CIFDUS_clean_linker_0, # of connection points: 2
#     Edge 24, Type (0, 0), BuildingBlock: CIFDUS_clean_linker_0, # of connection points: 2
#     Edge 25, Type (0, 0), BuildingBlock: CIFDUS_clean_linker_0, # of connection points: 2
#     Edge 26, Type (0, 0), BuildingBlock: CIFDUS_clean_linker_0, # of connection points: 2
#     Edge 27, Type (0, 0), BuildingBlock: CIFDUS_clean_linker_0, # of connection points: 2
#     Edge 28, Type (0, 0), BuildingBlock: CIFDUS_clean_linker_0, # of connection points: 2
#     Edge 29, Type (0, 0), BuildingBlock: CIFDUS_clean_linker_0, # of connection points: 2
#     Edge 30, Type (0, 0), BuildingBlock: CIFDUS_clean_linker_0, # of connection points: 2
#     Edge 31, Type (0, 0), BuildingBlock: CIFDUS_clean_linker_0, # of connection points: 2
#     Edge 32, Type (0, 0), BuildingBlock: CIFDUS_clean_linker_0, # of connection points: 2
#     Edge 33, Type (0, 0), BuildingBlock: CIFDUS_clean_linker_0, # of connection points: 2
#     Edge 34, Type (0, 0), BuildingBlock: CIFDUS_clean_linker_0, # of connection points: 2
#     Edge 35, Type (0, 0), BuildingBlock: CIFDUS_clean_linker_0, # of connection points: 2
#     Edge 36, Type (0, 0), BuildingBlock: CIFDUS_clean_linker_0, # of connection points: 2
#     Edge 37, Type (0, 0), BuildingBlock: CIFDUS_clean_linker_0, # of connection points: 2
#     Edge 38, Type (0, 0), BuildingBlock: CIFDUS_clean_linker_0, # of connection points: 2
#     Edge 39, Type (0, 0), BuildingBlock: CIFDUS_clean_linker_0, # of connection points: 2
#     Edge 40, Type (0, 0), BuildingBlock: CIFDUS_clean_linker_0, # of connection points: 2
#     Edge 41, Type (0, 0), BuildingBlock: CIFDUS_clean_linker_0, # of connection points: 2
#     Edge 42, Type (0, 0), BuildingBlock: CIFDUS_clean_linker_0, # of connection points: 2
#     Edge 43, Type (0, 0), BuildingBlock: CIFDUS_clean_linker_0, # of connection points: 2
#     Edge 44, Type (0, 0), BuildingBlock: CIFDUS_clean_linker_0, # of connection points: 2
#     Edge 45, Type (0, 0), BuildingBlock: CIFDUS_clean_linker_0, # of connection points: 2
#     Edge 46, Type (0, 0), BuildingBlock: CIFDUS_clean_linker_0, # of connection points: 2
#     Edge 47, Type (0, 0), BuildingBlock: CIFDUS_clean_linker_0, # of connection points: 2
# Relax obj value: 0.005
# Max RMSD: 0.017
# Mean RMSD: 0.017
data_MOF--net-uou--node1-GALJAG_clean_sbu_0--edge1-CIFDUS_clean_linker_0
_symmetry_space_group_name_H-M    P1
_symmetry_Int_Tables_number       1
_symmetry_cell_setting            triclinic
loop_
_symmetry_equiv_pos_as_xyz
'x, y, z'
_cell_length_a     31.276803
_cell_length_b     37.882803
_cell_length_c     47.595623
_cell_angle_alpha  89.985499
_cell_angle_beta   90.046643
_cell_angle_gamma 89.897912
loop_
_atom_site_label
_atom_site_type_symbol
_atom_site_fract_x
_atom_site_fract_y
_atom_site_fract_z
_atom_type_partial_charge
In0 In 0.06812 0.08788 0.11709 0.0
O1 O 0.1409 0.08219 0.11406 0.0
O2 O 0.10302 0.03564 0.11781 0.0
C3 C 0.05061 0.1576 0.11404 0.0
C4 C 0.03849 0.06429 0.06752 0.0
C5 C 0.04757 0.07702 0.17126 0.0
O6 O 0.0885 0.14579 0.11314 0.0
O7 O 0.02205 0.13427 0.11629 0.0
O8 O 0.02162 0.07024 0.15155 0.0
O9 O 0.08319 0.08914 0.1635 0.0
C10 C 0.13991 0.04877 0.11549 0.0
O11 O 0.02321 0.05366 0.09066 0.0
O12 O 0.06726 0.08745 0.06963 0.0
In13 In 0.44144 0.91705 0.11785 0.0
O14 O 0.36835 0.92083 0.11439 0.0
O15 O 0.40504 0.96817 0.118 0.0
C16 C 0.46902 0.84975 0.11439 0.0
C17 C 0.46984 0.94148 0.06849 0.0
C18 C 0.458 0.92842 0.17236 0.0
O19 O 0.42957 0.85742 0.11286 0.0
O20 O 0.49355 0.87585 0.11766 0.0
O21 O 0.4837 0.93801 0.15326 0.0
O22 O 0.4246 0.9131 0.16384 0.0
C23 C 0.36853 0.95433 0.11561 0.0
O24 O 0.48503 0.95229 0.09164 0.0
O25 O 0.44147 0.91792 0.07051 0.0
In26 In 0.55787 0.9239 0.38481 0.0
O27 O 0.51524 0.96063 0.41055 0.0
O28 O 0.55754 0.92543 0.43207 0.0
C29 C 0.54086 0.93347 0.33011 0.0
C30 C 0.63167 0.95956 0.38647 0.0
C31 C 0.5302 0.85706 0.38998 0.0
O32 O 0.51521 0.94368 0.34904 0.0
O33 O 0.57443 0.91857 0.33888 0.0
O34 O 0.56972 0.86449 0.39081 0.0
O35 O 0.50565 0.88316 0.38641 0.0
C36 C 0.52982 0.94961 0.43383 0.0
O37 O 0.63086 0.92611 0.38808 0.0
O38 O 0.59559 0.97425 0.38399 0.0
In39 In 0.93584 0.0851 0.38152 0.0
O40 O 0.98128 0.05021 0.40712 0.0
O41 O 0.93896 0.0848 0.42894 0.0
C42 C 0.95582 0.07466 0.32715 0.0
C43 C 0.86328 0.04748 0.38416 0.0
C44 C 0.95293 0.15468 0.38507 0.0
O45 O 0.98202 0.06786 0.34671 0.0
O46 O 0.92014 0.08646 0.33514 0.0
O47 O 0.91509 0.14289 0.38579 0.0
O48 O 0.9816 0.13141 0.3826 0.0
C49 C 0.96752 0.06131 0.43053 0.0
O50 O 0.86325 0.0809 0.38542 0.0
O51 O 0.89971 0.03349 0.3815 0.0
In52 In 0.95134 0.92409 0.88248 0.0
O53 O 0.98881 0.96248 0.90999 0.0
O54 O 0.94603 0.92671 0.93 0.0
C55 C 0.98154 0.93525 0.83028 0.0
C56 C 0.87589 0.95794 0.87888 0.0
C57 C 0.97615 0.85609 0.88802 0.0
O58 O 0.00278 0.94331 0.85197 0.0
O59 O 0.94531 0.92194 0.83502 0.0
O60 O 0.93712 0.86447 0.88526 0.0
O61 O 0.00164 0.88184 0.88828 0.0
C62 C 0.97213 0.95187 0.93268 0.0
O63 O 0.87793 0.92465 0.88154 0.0
O64 O 0.91156 0.97337 0.87774 0.0
In65 In 0.5662 0.07592 0.88299 0.0
O66 O 0.63933 0.07371 0.88119 0.0
O67 O 0.60455 0.02549 0.87859 0.0
C68 C 0.54883 0.14553 0.88776 0.0
C69 C 0.54371 0.04968 0.93335 0.0
C70 C 0.53143 0.06533 0.83192 0.0
O71 O 0.58662 0.13416 0.8847 0.0
O72 O 0.5206 0.12187 0.88871 0.0
O73 O 0.51083 0.05995 0.85433 0.0
O74 O 0.56946 0.07547 0.83535 0.0
C75 C 0.6406 0.04039 0.87907 0.0
O76 O 0.52735 0.03885 0.91064 0.0
O77 O 0.5706 0.07423 0.93061 0.0
In78 In 0.437 0.08674 0.61895 0.0
O79 O 0.47175 0.04665 0.59158 0.0
O80 O 0.43385 0.08579 0.57124 0.0
C81 C 0.46719 0.0709 0.67044 0.0
C82 C 0.35723 0.06022 0.62148 0.0
C83 C 0.46685 0.15346 0.61481 0.0
O84 O 0.48655 0.06209 0.64823 0.0
O85 O 0.4325 0.08727 0.66663 0.0
O86 O 0.42724 0.1468 0.61587 0.0
O87 O 0.49071 0.12665 0.61568 0.0
C88 C 0.45766 0.05906 0.56872 0.0
O89 O 0.36415 0.09312 0.62036 0.0
O90 O 0.3904 0.04122 0.62167 0.0
In91 In 0.06213 0.92123 0.61438 0.0
O92 O 0.02781 0.96269 0.58779 0.0
O93 O 0.0658 0.92418 0.5668 0.0
C94 C 0.03358 0.93427 0.66679 0.0
C95 C 0.14188 0.94747 0.61768 0.0
C96 C 0.03132 0.85505 0.60827 0.0
O97 O 0.01307 0.94385 0.64519 0.0
O98 O 0.06836 0.91854 0.66188 0.0
O99 O 0.07101 0.8611 0.61024 0.0
O100 O 0.00797 0.88217 0.60925 0.0
C101 C 0.04211 0.95106 0.56472 0.0
O102 O 0.13495 0.91467 0.61519 0.0
O103 O 0.10874 0.96648 0.61865 0.0
In104 In 0.55523 0.57729 0.1158 0.0
O105 O 0.62901 0.57713 0.11503 0.0
O106 O 0.59603 0.52892 0.12238 0.0
C107 C 0.52683 0.64402 0.10926 0.0
C108 C 0.52995 0.55003 0.06659 0.0
C109 C 0.52852 0.56862 0.16882 0.0
O110 O 0.56634 0.63689 0.11144 0.0
O111 O 0.50239 0.61753 0.1098 0.0
O112 O 0.51499 0.54924 0.1491 0.0
O113 O 0.55525 0.59186 0.1617 0.0
C114 C 0.6315 0.54421 0.11955 0.0
O115 O 0.51221 0.54186 0.08958 0.0
O116 O 0.55974 0.57236 0.06854 0.0
In117 In 0.94056 0.42426 0.11906 0.0
O118 O 0.8674 0.42731 0.12012 0.0
O119 O 0.90271 0.4753 0.12148 0.0
C120 C 0.95704 0.35424 0.11554 0.0
C121 C 0.96472 0.4486 0.06835 0.0
C122 C 0.9731 0.43637 0.17066 0.0
O123 O 0.91942 0.3662 0.11798 0.0
O124 O 0.98575 0.37753 0.11462 0.0
O125 O 0.99427 0.44206 0.14851 0.0
O126 O 0.93569 0.42506 0.16668 0.0
C127 C 0.86648 0.46072 0.12114 0.0
O128 O 0.98141 0.45948 0.09095 0.0
O129 O 0.9368 0.4249 0.07141 0.0
In130 In 0.06598 0.42001 0.38455 0.0
O131 O 0.02745 0.45886 0.41108 0.0
O132 O 0.06598 0.42117 0.43246 0.0
C133 C 0.03399 0.43434 0.33298 0.0
C134 C 0.14458 0.449 0.38263 0.0
C135 C 0.04741 0.35038 0.38785 0.0
O136 O 0.0124 0.43848 0.35513 0.0
O137 O 0.07166 0.42359 0.33691 0.0
O138 O 0.08532 0.36171 0.3868 0.0
O139 O 0.01913 0.37413 0.38759 0.0
C140 C 0.04058 0.44696 0.43434 0.0
O141 O 0.13871 0.41599 0.38251 0.0
O142 O 0.11082 0.46727 0.38364 0.0
In143 In 0.44005 0.5877 0.38379 0.0
O144 O 0.48583 0.54749 0.40327 0.0
O145 O 0.44236 0.5747 0.4301 0.0
C146 C 0.46105 0.58639 0.32911 0.0
C147 C 0.35945 0.56236 0.3826 0.0
C148 C 0.4712 0.65239 0.39494 0.0
O149 O 0.47142 0.56159 0.34554 0.0
O150 O 0.43984 0.61103 0.34015 0.0
O151 O 0.43146 0.64626 0.39359 0.0
O152 O 0.49488 0.62569 0.39153 0.0
C153 C 0.4718 0.55204 0.42792 0.0
O154 O 0.36754 0.59375 0.38988 0.0
O155 O 0.39172 0.54443 0.37566 0.0
In156 In 0.42928 0.40915 0.88516 0.0
O157 O 0.35642 0.40555 0.88259 0.0
O158 O 0.38491 0.45654 0.88183 0.0
C159 C 0.44938 0.33984 0.88945 0.0
C160 C 0.45214 0.43769 0.93472 0.0
C161 C 0.46327 0.42309 0.83439 0.0
O162 O 0.41118 0.35059 0.88792 0.0
O163 O 0.47703 0.36398 0.88913 0.0
O164 O 0.48407 0.42714 0.85688 0.0
O165 O 0.42545 0.41237 0.83756 0.0
C166 C 0.35094 0.43861 0.88133 0.0
O167 O 0.46643 0.44873 0.91154 0.0
O168 O 0.42696 0.41181 0.9329 0.0
In169 In 0.05878 0.58289 0.88179 0.0
O170 O 0.13193 0.58844 0.88193 0.0
O171 O 0.10511 0.53733 0.8767 0.0
C172 C 0.02883 0.64938 0.88753 0.0
C173 C 0.03605 0.55573 0.93185 0.0
C174 C 0.03232 0.57103 0.82879 0.0
O175 O 0.06841 0.64244 0.88642 0.0
O176 O 0.00465 0.62276 0.88616 0.0
O177 O 0.01988 0.55202 0.84904 0.0
O178 O 0.05779 0.59543 0.8354 0.0
C179 C 0.1385 0.55573 0.87872 0.0
O180 O 0.01846 0.54608 0.90917 0.0
O181 O 0.0641 0.57936 0.92913 0.0
In182 In 0.93233 0.58694 0.61522 0.0
O183 O 0.97274 0.54719 0.59042 0.0
O184 O 0.92914 0.58023 0.56811 0.0
C185 C 0.95823 0.58336 0.66902 0.0
C186 C 0.85195 0.56153 0.61907 0.0
C187 C 0.96513 0.6515 0.6056 0.0
O188 O 0.9687 0.55985 0.65142 0.0
O189 O 0.93443 0.60747 0.65958 0.0
O190 O 0.9252 0.64616 0.60707 0.0
O191 O 0.98802 0.62416 0.60819 0.0
C192 C 0.95678 0.55597 0.56696 0.0
O193 O 0.85944 0.59377 0.61421 0.0
O194 O 0.88481 0.54264 0.62234 0.0
In195 In 0.55418 0.42545 0.62008 0.0
O196 O 0.51548 0.46864 0.59898 0.0
O197 O 0.55232 0.43474 0.57275 0.0
C198 C 0.5253 0.43512 0.67287 0.0
C199 C 0.63454 0.45127 0.6212 0.0
C200 C 0.52618 0.35855 0.61218 0.0
O201 O 0.50457 0.44486 0.6515 0.0
O202 O 0.561 0.42107 0.66768 0.0
O203 O 0.56529 0.36553 0.61588 0.0
O204 O 0.50202 0.38516 0.61184 0.0
C205 C 0.52712 0.46075 0.57438 0.0
O206 O 0.6269 0.41891 0.61693 0.0
O207 O 0.60182 0.47014 0.62512 0.0
H208 H 0.28527 0.93264 0.115 0.0
H209 H 0.36438 0.02586 0.11407 0.0
H210 H 0.30101 0.06331 0.11346 0.0
H211 H 0.22296 0.06992 0.11393 0.0
H212 H 0.14349 0.97697 0.11551 0.0
H213 H 0.20687 0.93931 0.11509 0.0
C214 C 0.28856 0.96113 0.11458 0.0
C215 C 0.32946 0.97637 0.11462 0.0
C216 C 0.25186 0.98267 0.1144 0.0
C217 C 0.33324 0.01338 0.11412 0.0
C218 C 0.29701 0.03489 0.11376 0.0
C219 C 0.21955 0.04143 0.11412 0.0
C220 C 0.17862 0.02632 0.11478 0.0
C221 C 0.25615 0.01987 0.11402 0.0
C222 C 0.17469 0.98933 0.11505 0.0
C223 C 0.21092 0.96771 0.11481 0.0
H224 H 0.71393 0.93554 0.38677 0.0
H225 H 0.63833 0.03097 0.38741 0.0
H226 H 0.70307 0.0666 0.3873 0.0
H227 H 0.78125 0.07092 0.38622 0.0
H228 H 0.85725 0.97579 0.38483 0.0
H229 H 0.79249 0.93993 0.38606 0.0
C230 C 0.71171 0.96412 0.38697 0.0
C231 C 0.67142 0.98054 0.38706 0.0
C232 C 0.74917 0.98458 0.38672 0.0
C233 C 0.66899 0.01762 0.38727 0.0
C234 C 0.706 0.03808 0.38721 0.0
C235 C 0.7836 0.04235 0.38626 0.0
C236 C 0.82392 0.02607 0.3854 0.0
C237 C 0.74625 0.02187 0.38681 0.0
C238 C 0.82652 0.989 0.38542 0.0
C239 C 0.78951 0.96844 0.38614 0.0
H240 H 0.79448 0.93204 0.87832 0.0
H241 H 0.86638 0.02917 0.87722 0.0
H242 H 0.80027 0.06327 0.87681 0.0
H243 H 0.72185 0.0658 0.87759 0.0
H244 H 0.64961 0.96889 0.8782 0.0
H245 H 0.71575 0.9346 0.87789 0.0
C246 C 0.79561 0.96065 0.87792 0.0
C247 C 0.83528 0.97798 0.87786 0.0
C248 C 0.75735 0.98024 0.87762 0.0
C249 C 0.83625 0.01511 0.87727 0.0
C250 C 0.79844 0.0347 0.87706 0.0
C251 C 0.72062 0.03719 0.87758 0.0
C252 C 0.68091 0.01997 0.87798 0.0
C253 C 0.7588 0.01758 0.87736 0.0
C254 C 0.6798 0.98284 0.87789 0.0
C255 C 0.71762 0.96317 0.87775 0.0
H256 H 0.1625 0.01683 0.62054 0.0
H257 H 0.21857 0.91272 0.61771 0.0
H258 H 0.29017 0.93858 0.61924 0.0
H259 H 0.33664 0.99075 0.62071 0.0
H260 H 0.28054 0.09488 0.62285 0.0
H261 H 0.20895 0.06897 0.62231 0.0
C262 C 0.19038 0.99977 0.62032 0.0
C263 C 0.18525 0.96289 0.61901 0.0
C264 C 0.23135 0.01482 0.62106 0.0
C265 C 0.22167 0.94117 0.61869 0.0
C266 C 0.26259 0.95594 0.61956 0.0
C267 C 0.30875 0.0078 0.62115 0.0
C268 C 0.31387 0.04471 0.62184 0.0
C269 C 0.26778 0.99273 0.62067 0.0
C270 C 0.27744 0.06641 0.62233 0.0
C271 C 0.23653 0.05161 0.622 0.0
H272 H 0.78506 0.43602 0.12424 0.0
H273 H 0.85801 0.53225 0.11827 0.0
H274 H 0.79208 0.56689 0.11732 0.0
H275 H 0.7132 0.56986 0.1176 0.0
H276 H 0.6409 0.47329 0.12435 0.0
H277 H 0.70677 0.43901 0.1256 0.0
C278 C 0.78651 0.46456 0.12278 0.0
C279 C 0.82634 0.48148 0.12128 0.0
C280 C 0.74848 0.48437 0.12235 0.0
C281 C 0.82771 0.51853 0.11948 0.0
C282 C 0.79 0.5384 0.1189 0.0
C283 C 0.71195 0.54134 0.11939 0.0
C284 C 0.67218 0.52423 0.12082 0.0
C285 C 0.75014 0.52162 0.12023 0.0
C286 C 0.67107 0.48722 0.12322 0.0
C287 C 0.70876 0.4675 0.12391 0.0
H288 H 0.33821 0.49389 0.37493 0.0
H289 H 0.28335 0.59642 0.39124 0.0
H290 H 0.21174 0.57039 0.39231 0.0
H291 H 0.16496 0.51828 0.38895 0.0
H292 H 0.22067 0.41568 0.374 0.0
H293 H 0.29185 0.44199 0.37209 0.0
C294 C 0.31058 0.5106 0.37863 0.0
C295 C 0.31601 0.54705 0.3829 0.0
C296 C 0.26973 0.49541 0.37952 0.0
C297 C 0.27995 0.56829 0.38787 0.0
C298 C 0.23905 0.55341 0.38849 0.0
C299 C 0.19269 0.50171 0.38523 0.0
C300 C 0.18757 0.46509 0.38157 0.0
C301 C 0.23358 0.51699 0.38439 0.0
C302 C 0.22378 0.44392 0.37692 0.0
C303 C 0.26448 0.45895 0.37579 0.0
H304 H 0.15774 0.48614 0.87586 0.0
H305 H 0.21595 0.58913 0.88088 0.0
H306 H 0.287 0.56189 0.88158 0.0
H307 H 0.33233 0.50869 0.88164 0.0
H308 H 0.27361 0.40581 0.87748 0.0
H309 H 0.20286 0.43319 0.87556 0.0
C310 C 0.18597 0.50268 0.87699 0.0
C311 C 0.18161 0.53962 0.87829 0.0
C312 C 0.22655 0.48684 0.87762 0.0
C313 C 0.21847 0.56064 0.87985 0.0
C314 C 0.25907 0.54507 0.88028 0.0
C315 C 0.30405 0.49227 0.88024 0.0
C316 C 0.3082 0.45525 0.87971 0.0
C317 C 0.26346 0.50819 0.87931 0.0
C318 C 0.27127 0.43434 0.87795 0.0
C319 C 0.23082 0.44997 0.87685 0.0
H320 H 0.65638 0.52051 0.62182 0.0
H321 H 0.71057 0.4157 0.62047 0.0
H322 H 0.78265 0.4407 0.62038 0.0
H323 H 0.83012 0.49233 0.62029 0.0
H324 H 0.77593 0.59715 0.61994 0.0
H325 H 0.70386 0.57214 0.62113 0.0
C326 C 0.68397 0.50313 0.62158 0.0
C327 C 0.67817 0.46628 0.62124 0.0
C328 C 0.72524 0.5177 0.62122 0.0
C329 C 0.71421 0.44413 0.62073 0.0
C330 C 0.7554 0.45841 0.6207 0.0
C331 C 0.80254 0.50971 0.62057 0.0
C332 C 0.80833 0.54655 0.62014 0.0
C333 C 0.76127 0.49515 0.6209 0.0
C334 C 0.7723 0.56872 0.62027 0.0
C335 C 0.73111 0.55443 0.62096 0.0
H336 H 0.03452 0.06978 0.30331 0.0
H337 H 0.89994 0.07146 0.28352 0.0
H338 H 0.91623 0.06954 0.23337 0.0
H339 H 0.96886 0.07098 0.19498 0.0
H340 H 0.10338 0.07332 0.21486 0.0
H341 H 0.08711 0.06989 0.26495 0.0
C342 C 0.00883 0.06932 0.28799 0.0
C343 C 0.96616 0.07075 0.29705 0.0
C344 C 0.01844 0.06913 0.25915 0.0
C345 C 0.93311 0.0705 0.27702 0.0
C346 C 0.94237 0.06941 0.24834 0.0
C347 C 0.99454 0.07035 0.2103 0.0
C348 C 0.03719 0.07242 0.20129 0.0
C349 C 0.98492 0.06926 0.23914 0.0
C350 C 0.07023 0.07191 0.22133 0.0
C351 C 0.06098 0.06995 0.24998 0.0
H352 H 0.53498 0.93617 0.19786 0.0
H353 H 0.39959 0.93157 0.2144 0.0
H354 H 0.41298 0.93613 0.26486 0.0
H355 H 0.46351 0.93768 0.3045 0.0
H356 H 0.59903 0.93684 0.28801 0.0
H357 H 0.58546 0.9384 0.23745 0.0
C358 C 0.50849 0.93658 0.21255 0.0
C359 C 0.46644 0.9336 0.20254 0.0
C360 C 0.51649 0.93808 0.24156 0.0
C361 C 0.43229 0.93371 0.22171 0.0
C362 C 0.43991 0.93632 0.25054 0.0
C363 C 0.48996 0.93829 0.28978 0.0
C364 C 0.53213 0.93724 0.29983 0.0
C365 C 0.48191 0.93799 0.26074 0.0
C366 C 0.56625 0.93754 0.28065 0.0
C367 C 0.55853 0.93841 0.25177 0.0
H368 H 0.07986 0.93632 0.71484 0.0
H369 H 0.95085 0.94289 0.68319 0.0
H370 H 0.92324 0.94489 0.73127 0.0
H371 H 0.93575 0.94119 0.78226 0.0
H372 H 0.0649 0.93798 0.81395 0.0
H373 H 0.09267 0.93851 0.76587 0.0
C374 C 0.04573 0.93847 0.71853 0.0
C375 C 0.01734 0.93911 0.69562 0.0
C376 C 0.0302 0.9401 0.74617 0.0
C377 C 0.97326 0.94237 0.70056 0.0
C378 C 0.95749 0.94336 0.72801 0.0
C379 C 0.96997 0.94088 0.77859 0.0
C380 C 0.9983 0.9392 0.80149 0.0
C381 C 0.98563 0.9417 0.75096 0.0
C382 C 0.04255 0.93929 0.79658 0.0
C383 C 0.05839 0.93945 0.76913 0.0
H384 H 0.42446 0.07183 0.71994 0.0
H385 H 0.54975 0.05604 0.68421 0.0
H386 H 0.5806 0.05142 0.73129 0.0
H387 H 0.57252 0.05567 0.78255 0.0
H388 H 0.44691 0.06876 0.8184 0.0
H389 H 0.41545 0.0704 0.77132 0.0
C390 C 0.45846 0.0671 0.72251 0.0
C391 C 0.48491 0.06463 0.69873 0.0
C392 C 0.47586 0.06411 0.74961 0.0
C393 C 0.52879 0.05807 0.70225 0.0
C394 C 0.54646 0.05555 0.72914 0.0
C395 C 0.53822 0.05857 0.78 0.0
C396 C 0.51204 0.0624 0.80378 0.0
C397 C 0.5204 0.05911 0.75294 0.0
C398 C 0.46763 0.06571 0.80033 0.0
C399 C 0.44969 0.06681 0.77345 0.0
H400 H 0.52227 0.6208 0.20658 0.0
H401 H 0.50181 0.50912 0.19611 0.0
H402 H 0.48069 0.50409 0.24564 0.0
H403 H 0.46866 0.53201 0.29211 0.0
H404 H 0.48301 0.64474 0.30032 0.0
H405 H 0.50613 0.64897 0.25147 0.0
C406 C 0.51318 0.59537 0.2152 0.0
C407 C 0.51388 0.56531 0.19804 0.0
C408 C 0.50013 0.59296 0.24323 0.0
C409 C 0.50141 0.53258 0.20912 0.0
C410 C 0.48951 0.52972 0.23737 0.0
C411 C 0.47699 0.55737 0.28308 0.0
C412 C 0.47457 0.58799 0.29962 0.0
C413 C 0.48892 0.55975 0.25467 0.0
C414 C 0.48468 0.62088 0.28781 0.0
C415 C 0.49792 0.62331 0.25996 0.0
H416 H 0.0775 0.4397 0.28392 0.0
H417 H 0.94998 0.4397 0.31839 0.0
H418 H 0.91978 0.44181 0.27101 0.0
H419 H 0.9297 0.43996 0.2198 0.0
H420 H 0.05715 0.44186 0.18527 0.0
H421 H 0.08738 0.44296 0.23269 0.0
C422 C 0.0431 0.44046 0.28103 0.0
C423 C 0.01597 0.43924 0.30456 0.0
C424 C 0.02601 0.44188 0.25376 0.0
C425 C 0.9715 0.4406 0.30058 0.0
C426 C 0.95422 0.44168 0.27351 0.0
C427 C 0.96409 0.44089 0.22268 0.0
C428 C 0.9912 0.44051 0.19913 0.0
C429 C 0.98117 0.44175 0.24995 0.0
C430 C 0.03565 0.44212 0.2031 0.0
C431 C 0.05294 0.44262 0.23019 0.0
H432 H 0.56897 0.43105 0.72202 0.0
H433 H 0.44225 0.44458 0.68775 0.0
H434 H 0.41187 0.44317 0.735 0.0
H435 H 0.42098 0.43473 0.78577 0.0
H436 H 0.54773 0.42389 0.82048 0.0
H437 H 0.5786 0.42785 0.77334 0.0
C438 C 0.53476 0.43396 0.72498 0.0
C439 C 0.50781 0.43761 0.70153 0.0
C440 C 0.51757 0.43349 0.75221 0.0
C441 C 0.4636 0.44175 0.70554 0.0
C442 C 0.4462 0.44081 0.73252 0.0
C443 C 0.45538 0.43348 0.78298 0.0
C444 C 0.48209 0.42869 0.80639 0.0
C445 C 0.47282 0.43617 0.75594 0.0
C446 C 0.5266 0.42756 0.80267 0.0
C447 C 0.54422 0.42969 0.77575 0.0
H448 H 0.02913 0.62078 0.78873 0.0
H449 H 0.00219 0.51085 0.80366 0.0
H450 H 0.97936 0.50387 0.75457 0.0
H451 H 0.96621 0.5299 0.70729 0.0
H452 H 0.98731 0.64129 0.69502 0.0
H453 H 0.01366 0.64691 0.74306 0.0
C454 C 0.01838 0.59525 0.78121 0.0
C455 C 0.01757 0.56631 0.79959 0.0
C456 C 0.0044 0.59177 0.7534 0.0
C457 C 0.00298 0.53351 0.78978 0.0
C458 C 0.99009 0.52952 0.76175 0.0
C459 C 0.97691 0.55522 0.71524 0.0
C460 C 0.97524 0.58512 0.69779 0.0
C461 C 0.99061 0.55852 0.74333 0.0
C462 C 0.98839 0.61799 0.70823 0.0
C463 C 0.00342 0.62122 0.73564 0.0
H464 H 0.9718 0.18779 0.11611 0.0
H465 H 0.1059 0.21312 0.10974 0.0
H466 H 0.0886 0.27611 0.10909 0.0
H467 H 0.0355 0.32395 0.11115 0.0
H468 H 0.90142 0.2987 0.1178 0.0
H469 H 0.91859 0.23566 0.11745 0.0
C470 C 0.99726 0.20709 0.11451 0.0
C471 C 0.04012 0.19576 0.11301 0.0
C472 C 0.98707 0.24325 0.11422 0.0
C473 C 0.07269 0.22111 0.11094 0.0
C474 C 0.0628 0.25714 0.11058 0.0
C475 C 0.00999 0.30467 0.11244 0.0
C476 C 0.96721 0.31603 0.11453 0.0
C477 C 0.02013 0.2685 0.11233 0.0
C478 C 0.93458 0.29068 0.11618 0.0
C479 C 0.9444 0.25463 0.11601 0.0
H480 H 0.42454 0.78823 0.10751 0.0
H481 H 0.55221 0.82941 0.11746 0.0
H482 H 0.5816 0.76986 0.11567 0.0
H483 H 0.57125 0.70571 0.11249 0.0
H484 H 0.44373 0.66417 0.10294 0.0
H485 H 0.41434 0.7239 0.10319 0.0
C486 C 0.45877 0.78413 0.10922 0.0
C487 C 0.48604 0.81326 0.11271 0.0
C488 C 0.47562 0.74964 0.10822 0.0
C489 C 0.53039 0.80749 0.11483 0.0
C490 C 0.54732 0.77339 0.1138 0.0
C491 C 0.53707 0.70976 0.11027 0.0
C492 C 0.5098 0.6805 0.10772 0.0
C493 C 0.52027 0.74423 0.11065 0.0
C494 C 0.46552 0.68622 0.10495 0.0
C495 C 0.44861 0.7204 0.10514 0.0
H496 H 0.42738 0.71424 0.39547 0.0
H497 H 0.55503 0.67129 0.39982 0.0
H498 H 0.58493 0.73087 0.39962 0.0
H499 H 0.57485 0.79536 0.3958 0.0
H500 H 0.4468 0.83754 0.39046 0.0
H501 H 0.4172 0.77827 0.39344 0.0
C502 C 0.46172 0.71792 0.39668 0.0
C503 C 0.4889 0.68841 0.39762 0.0
C504 C 0.47871 0.75219 0.39614 0.0
C505 C 0.53337 0.69361 0.39907 0.0
C506 C 0.55052 0.72767 0.39887 0.0
C507 C 0.5405 0.79152 0.39541 0.0
C508 C 0.51315 0.82082 0.39275 0.0
C509 C 0.52353 0.75719 0.39699 0.0
C510 C 0.46866 0.81545 0.39234 0.0
C511 C 0.45162 0.78154 0.39408 0.0
H512 H 0.96835 0.32085 0.38981 0.0
H513 H 0.10261 0.29457 0.38709 0.0
H514 H 0.08507 0.23173 0.38638 0.0
H515 H 0.0317 0.18437 0.38558 0.0
H516 H 0.89739 0.21037 0.38825 0.0
H517 H 0.91486 0.27327 0.38997 0.0
C518 C 0.99378 0.30136 0.38917 0.0
C519 C 0.03674 0.31236 0.38846 0.0
C520 C 0.98345 0.26527 0.38869 0.0
C521 C 0.0693 0.2868 0.38764 0.0
C522 C 0.0593 0.25087 0.3872 0.0
C523 C 0.00622 0.20379 0.38658 0.0
C524 C 0.96329 0.19273 0.3867 0.0
C525 C 0.0165 0.23983 0.38756 0.0
C526 C 0.93067 0.21821 0.3881 0.0
C527 C 0.94065 0.25417 0.38907 0.0
H528 H 0.0741 0.71031 0.89185 0.0
H529 H 0.94529 0.67037 0.88663 0.0
H530 H 0.91716 0.73061 0.887 0.0
H531 H 0.92933 0.79506 0.88738 0.0
H532 H 0.05855 0.83432 0.89273 0.0
H533 H 0.08612 0.77418 0.89381 0.0
C534 C 0.03987 0.71478 0.89092 0.0
C535 C 0.01189 0.68588 0.88914 0.0
C536 C 0.02389 0.74948 0.8911 0.0
C537 C 0.96758 0.69215 0.88801 0.0
C538 C 0.95143 0.72662 0.88817 0.0
C539 C 0.96347 0.7904 0.88891 0.0
C540 C 0.99177 0.8192 0.88988 0.0
C541 C 0.9793 0.75555 0.8895 0.0
C542 C 0.03597 0.81269 0.8919 0.0
C543 C 0.05186 0.77826 0.8925 0.0
H544 H 0.52928 0.31158 0.88902 0.0
H545 H 0.39581 0.28321 0.89257 0.0
H546 H 0.4151 0.22066 0.89318 0.0
H547 H 0.46964 0.17413 0.89157 0.0
H548 H 0.60313 0.20213 0.88714 0.0
H549 H 0.58407 0.26484 0.88809 0.0
C550 C 0.50441 0.2917 0.89004 0.0
C551 C 0.46114 0.30202 0.89072 0.0
C552 C 0.51574 0.25578 0.89018 0.0
C553 C 0.42932 0.27597 0.89199 0.0
C554 C 0.44033 0.2402 0.89233 0.0
C555 C 0.49462 0.19393 0.89092 0.0
C556 C 0.53776 0.18349 0.88927 0.0
C557 C 0.4834 0.22983 0.89126 0.0
C558 C 0.5697 0.20948 0.88841 0.0
C559 C 0.55881 0.24532 0.88892 0.0
H560 H 0.42315 0.21534 0.60888 0.0
H561 H 0.55053 0.17269 0.61726 0.0
H562 H 0.58048 0.23209 0.61619 0.0
H563 H 0.57048 0.29651 0.61428 0.0
H564 H 0.44311 0.33911 0.60561 0.0
H565 H 0.41339 0.27963 0.60519 0.0
C566 C 0.45745 0.21908 0.6104 0.0
C567 C 0.48449 0.18965 0.61327 0.0
C568 C 0.47456 0.25339 0.60969 0.0
C569 C 0.52893 0.1949 0.61507 0.0
C570 C 0.54614 0.22889 0.61447 0.0
C571 C 0.53627 0.29274 0.61211 0.0
C572 C 0.5091 0.32221 0.61006 0.0
C573 C 0.51927 0.25837 0.61197 0.0
C574 C 0.4648 0.31688 0.60725 0.0
C575 C 0.4477 0.28285 0.60707 0.0
H576 H 0.0737 0.79204 0.6053 0.0
H577 H 0.94717 0.83766 0.60557 0.0
H578 H 0.9155 0.77899 0.60333 0.0
H579 H 0.9234 0.7145 0.60318 0.0
H580 H 0.04969 0.66853 0.60318 0.0
H581 H 0.08161 0.72731 0.6032 0.0
C582 C 0.03923 0.7891 0.60474 0.0
C583 C 0.0129 0.8192 0.60574 0.0
C584 C 0.02108 0.75515 0.6035 0.0
C585 C 0.96824 0.81495 0.60491 0.0
C586 C 0.95003 0.78138 0.60363 0.0
C587 C 0.95789 0.71736 0.60293 0.0
C588 C 0.98407 0.68718 0.60324 0.0
C589 C 0.97609 0.75127 0.60317 0.0
C590 C 0.02875 0.69134 0.60296 0.0
C591 C 0.04708 0.72497 0.60304 0.0
H592 H 0.01806 0.01127 0.94272 0.0
H593 H 0.94454 0.93035 0.98421 0.0
H594 H 0.95659 0.95891 0.02955 0.0
H595 H 0.989 0.00653 0.05757 0.0
H596 H 0.06263 0.08723 0.01582 0.0
H597 H 0.04912 0.05938 0.97049 0.0
C598 C 0.00483 0.99983 0.9617 0.0
C599 C 0.98068 0.96866 0.96013 0.0
C600 C 0.01161 0.01651 0.98766 0.0
C601 C 0.96341 0.95429 0.98488 0.0
C602 C 0.97018 0.97065 0.01081 0.0
C603 C 0.00169 0.01818 0.0385 0.0
C604 C 0.02671 0.0489 0.04006 0.0
C605 C 0.99423 1.00178 0.01247 0.0
C606 C 0.04322 0.06358 0.0152 0.0
C607 C 0.03566 0.04761 0.98926 0.0
H608 H 0.49416 0.99251 0.94356 0.0
H609 H 0.57158 0.07108 0.98489 0.0
H610 H 0.55694 0.04383 0.03041 0.0
H611 H 0.52159 0.9978 0.05853 0.0
H612 H 0.44427 0.91938 0.01686 0.0
H613 H 0.45975 0.94624 0.97144 0.0
C614 C 0.50769 0.00373 0.96254 0.0
C615 C 0.53373 0.03381 0.96089 0.0
C616 C 0.4994 0.98781 0.98858 0.0
C617 C 0.5513 0.04795 0.98564 0.0
C618 C 0.54304 0.03235 0.01166 0.0
C619 C 0.50843 0.98647 0.03948 0.0
C620 C 0.4819 0.95665 0.04105 0.0
C621 C 0.51716 1.00224 0.01339 0.0
C622 C 0.46484 0.94234 0.01621 0.0
C623 C 0.47356 0.95772 0.99022 0.0
H624 H 0.50369 0.99978 0.55875 0.0
H625 H 0.43223 0.08203 0.51701 0.0
H626 H 0.44672 0.0547 0.47147 0.0
H627 H 0.48061 0.00771 0.44346 0.0
H628 H 0.55238 0.9259 0.48559 0.0
H629 H 0.53655 0.95262 0.53099 0.0
C630 C 0.49136 0.01175 0.53968 0.0
C631 C 0.4671 0.0429 0.54121 0.0
C632 C 0.49969 0.99589 0.51364 0.0
C633 C 0.45114 0.05806 0.51635 0.0
C634 C 0.45933 0.04243 0.49032 0.0
C635 C 0.49248 0.99564 0.46261 0.0
C636 C 0.51758 0.9649 0.46118 0.0
C637 C 0.48361 0.01134 0.4887 0.0
C638 C 0.53297 0.9496 0.48613 0.0
C639 C 0.52404 0.96488 0.51212 0.0
H640 H 0.99683 0.01111 0.55533 0.0
H641 H 0.067 0.92885 0.51278 0.0
H642 H 0.0521 0.95662 0.46749 0.0
H643 H 0.01762 0.00363 0.4398 0.0
H644 H 0.94692 0.08545 0.48255 0.0
H645 H 0.96389 0.05873 0.52784 0.0
C646 C 0.00883 0.99927 0.53614 0.0
C647 C 0.03278 0.96791 0.53739 0.0
C648 C 0.00022 0.01539 0.51017 0.0
C649 C 0.04833 0.95295 0.51237 0.0
C650 C 0.0399 0.96883 0.48645 0.0
C651 C 0.0063 0.01575 0.45906 0.0
C652 C 0.98107 0.04644 0.45782 0.0
C653 C 0.01576 1.00001 0.48508 0.0
C654 C 0.9664 0.06178 0.48293 0.0
C655 C 0.97598 0.04648 0.50886 0.0
H656 H 0.47619 0.49489 0.05812 0.0
H657 H 0.55809 0.56828 0.01452 0.0
H658 H 0.54142 0.53981 0.96984 0.0
H659 H 0.50431 0.49369 0.94324 0.0
H660 H 0.42319 0.41968 0.98678 0.0
H661 H 0.43902 0.44865 0.03144 0.0
C662 C 0.49018 0.50474 0.0388 0.0
C663 C 0.51822 0.53365 0.03958 0.0
C664 C 0.48083 0.48802 0.01323 0.0
C665 C 0.53636 0.54604 0.01445 0.0
C666 C 0.52693 0.52975 0.9889 0.0
C667 C 0.49019 0.48386 0.96252 0.0
C668 C 0.46272 0.45458 0.96175 0.0
C669 C 0.49939 0.50062 0.98807 0.0
C670 C 0.44456 0.44215 0.98686 0.0
C671 C 0.45351 0.45873 0.01238 0.0
H672 H 0.0175 0.50362 0.05712 0.0
H673 H 0.93438 0.42784 0.01727 0.0
H674 H 0.94838 0.45461 0.9715 0.0
H675 H 0.98378 0.5 0.94278 0.0
H676 H 0.06682 0.57568 0.98285 0.0
H677 H 0.05308 0.54867 0.02848 0.0
C678 C 0.00265 0.49285 0.03839 0.0
C679 C 0.97505 0.46377 0.04057 0.0
C680 C 0.01058 0.50851 0.01218 0.0
C681 C 0.95586 0.4502 0.01614 0.0
C682 C 0.96374 0.46554 0.98996 0.0
C683 C 0.9987 0.51063 0.96153 0.0
C684 C 0.02616 0.53984 0.95944 0.0
C685 C 0.99088 0.49483 0.98774 0.0
C686 C 0.04547 0.55323 0.98389 0.0
C687 C 0.03772 0.53777 0.01 0.0
H688 H 0.00988 0.49969 0.5587 0.0
H689 H 0.93022 0.57472 0.51472 0.0
H690 H 0.94861 0.5474 0.46997 0.0
H691 H 0.98735 0.50241 0.44316 0.0
H692 H 0.06679 0.42692 0.48669 0.0
H693 H 0.04835 0.45405 0.5317 0.0
C694 C 0.99665 0.51005 0.53931 0.0
C695 C 0.96881 0.53921 0.54005 0.0
C696 C 0.0072 0.49408 0.51355 0.0
C697 C 0.95175 0.55228 0.51475 0.0
C698 C 0.96222 0.53668 0.48912 0.0
C699 C 0.00054 0.49184 0.4625 0.0
C700 C 0.02836 0.46272 0.46159 0.0
C701 C 0.98987 0.50757 0.48825 0.0
C702 C 0.04522 0.44932 0.48683 0.0
C703 C 0.03476 0.46485 0.51258 0.0
H704 H 0.55319 0.45282 0.52024 0.0
H705 H 0.46864 0.51384 0.57301 0.0
H706 H 0.44454 0.5476 0.53231 0.0
H707 H 0.44718 0.55969 0.48194 0.0
H708 H 0.53186 0.49947 0.42876 0.0
H709 H 0.55641 0.46553 0.46949 0.0
C710 C 0.52945 0.47347 0.52278 0.0
C711 C 0.51263 0.48078 0.54955 0.0
C712 C 0.51587 0.49294 0.49929 0.0
C713 C 0.48205 0.5077 0.5526 0.0
C714 C 0.46825 0.52703 0.52936 0.0
C715 C 0.47108 0.53918 0.47924 0.0
C716 C 0.48767 0.53205 0.45241 0.0
C717 C 0.48494 0.51987 0.50265 0.0
C718 C 0.51864 0.50544 0.44924 0.0
C719 C 0.53262 0.48601 0.4725 0.0
loop_
_geom_bond_atom_site_label_1
_geom_bond_atom_site_label_2
_geom_bond_distance
_geom_bond_site_symmetry_2
_ccdc_geom_bond_type
In0 O1 2.294 . S
In0 O2 2.326 . S
In0 O6 2.266 . S
In0 O7 2.326 . S
In0 O8 2.266 . S
In0 O9 2.326 . S
In0 O11 2.294 . S
In0 O12 2.326 . S
O1 In0 2.294 . S
O1 C10 1.240 . S
O2 In0 2.326 . S
O2 C10 1.252 . S
C3 O6 1.252 . S
C3 O7 1.260 . S
C4 O11 1.240 . S
C4 O12 1.252 . S
C5 O8 1.252 . S
C5 O9 1.260 . S
O6 In0 2.266 . S
O6 C3 1.252 . S
O7 In0 2.326 . S
O7 C3 1.260 . S
O8 In0 2.266 . S
O8 C5 1.252 . S
O9 In0 2.326 . S
O9 C5 1.260 . S
C10 O1 1.240 . S
C10 O2 1.252 . S
O11 In0 2.294 . S
O11 C4 1.240 . S
O12 In0 2.326 . S
O12 C4 1.252 . S
In13 O14 2.294 . S
In13 O15 2.326 . S
In13 O19 2.266 . S
In13 O20 2.326 . S
In13 O21 2.266 . S
In13 O22 2.326 . S
In13 O24 2.294 . S
In13 O25 2.326 . S
O14 In13 2.294 . S
O14 C23 1.240 . S
O15 In13 2.326 . S
O15 C23 1.252 . S
C16 O19 1.252 . S
C16 O20 1.260 . S
C17 O24 1.240 . S
C17 O25 1.252 . S
C18 O21 1.252 . S
C18 O22 1.260 . S
O19 In13 2.266 . S
O19 C16 1.252 . S
O20 In13 2.326 . S
O20 C16 1.260 . S
O21 In13 2.266 . S
O21 C18 1.252 . S
O22 In13 2.326 . S
O22 C18 1.260 . S
C23 O14 1.240 . S
C23 O15 1.252 . S
O24 In13 2.294 . S
O24 C17 1.240 . S
O25 In13 2.326 . S
O25 C17 1.252 . S
In26 O27 2.294 . S
In26 O28 2.326 . S
In26 O32 2.266 . S
In26 O33 2.326 . S
In26 O34 2.266 . S
In26 O35 2.326 . S
In26 O37 2.294 . S
In26 O38 2.326 . S
O27 In26 2.294 . S
O27 C36 1.240 . S
O28 In26 2.326 . S
O28 C36 1.252 . S
C29 O32 1.252 . S
C29 O33 1.260 . S
C30 O37 1.240 . S
C30 O38 1.252 . S
C31 O34 1.252 . S
C31 O35 1.260 . S
O32 In26 2.266 . S
O32 C29 1.252 . S
O33 In26 2.326 . S
O33 C29 1.260 . S
O34 In26 2.266 . S
O34 C31 1.252 . S
O35 In26 2.326 . S
O35 C31 1.260 . S
C36 O27 1.240 . S
C36 O28 1.252 . S
O37 In26 2.294 . S
O37 C30 1.240 . S
O38 In26 2.326 . S
O38 C30 1.252 . S
In39 O40 2.294 . S
In39 O41 2.326 . S
In39 O45 2.266 . S
In39 O46 2.326 . S
In39 O47 2.266 . S
In39 O48 2.326 . S
In39 O50 2.294 . S
In39 O51 2.326 . S
O40 In39 2.294 . S
O40 C49 1.240 . S
O41 In39 2.326 . S
O41 C49 1.252 . S
C42 O45 1.252 . S
C42 O46 1.260 . S
C43 O50 1.240 . S
C43 O51 1.252 . S
C44 O47 1.252 . S
C44 O48 1.260 . S
O45 In39 2.266 . S
O45 C42 1.252 . S
O46 In39 2.326 . S
O46 C42 1.260 . S
O47 In39 2.266 . S
O47 C44 1.252 . S
O48 In39 2.326 . S
O48 C44 1.260 . S
C49 O40 1.240 . S
C49 O41 1.252 . S
O50 In39 2.294 . S
O50 C43 1.240 . S
O51 In39 2.326 . S
O51 C43 1.252 . S
In52 O53 2.294 . S
In52 O54 2.326 . S
In52 O58 2.266 . S
In52 O59 2.326 . S
In52 O60 2.266 . S
In52 O61 2.326 . S
In52 O63 2.294 . S
In52 O64 2.326 . S
O53 In52 2.294 . S
O53 C62 1.240 . S
O54 In52 2.326 . S
O54 C62 1.252 . S
C55 O58 1.252 . S
C55 O59 1.260 . S
C56 O63 1.240 . S
C56 O64 1.252 . S
C57 O60 1.252 . S
C57 O61 1.260 . S
O58 In52 2.266 . S
O58 C55 1.252 . S
O59 In52 2.326 . S
O59 C55 1.260 . S
O60 In52 2.266 . S
O60 C57 1.252 . S
O61 In52 2.326 . S
O61 C57 1.260 . S
C62 O53 1.240 . S
C62 O54 1.252 . S
O63 In52 2.294 . S
O63 C56 1.240 . S
O64 In52 2.326 . S
O64 C56 1.252 . S
In65 O66 2.294 . S
In65 O67 2.326 . S
In65 O71 2.266 . S
In65 O72 2.326 . S
In65 O73 2.266 . S
In65 O74 2.326 . S
In65 O76 2.294 . S
In65 O77 2.326 . S
O66 In65 2.294 . S
O66 C75 1.240 . S
O67 In65 2.326 . S
O67 C75 1.252 . S
C68 O71 1.252 . S
C68 O72 1.260 . S
C69 O76 1.240 . S
C69 O77 1.252 . S
C70 O73 1.252 . S
C70 O74 1.260 . S
O71 In65 2.266 . S
O71 C68 1.252 . S
O72 In65 2.326 . S
O72 C68 1.260 . S
O73 In65 2.266 . S
O73 C70 1.252 . S
O74 In65 2.326 . S
O74 C70 1.260 . S
C75 O66 1.240 . S
C75 O67 1.252 . S
O76 In65 2.294 . S
O76 C69 1.240 . S
O77 In65 2.326 . S
O77 C69 1.252 . S
In78 O79 2.294 . S
In78 O80 2.326 . S
In78 O84 2.266 . S
In78 O85 2.326 . S
In78 O86 2.266 . S
In78 O87 2.326 . S
In78 O89 2.294 . S
In78 O90 2.326 . S
O79 In78 2.294 . S
O79 C88 1.240 . S
O80 In78 2.326 . S
O80 C88 1.252 . S
C81 O84 1.252 . S
C81 O85 1.260 . S
C82 O89 1.240 . S
C82 O90 1.252 . S
C83 O86 1.252 . S
C83 O87 1.260 . S
O84 In78 2.266 . S
O84 C81 1.252 . S
O85 In78 2.326 . S
O85 C81 1.260 . S
O86 In78 2.266 . S
O86 C83 1.252 . S
O87 In78 2.326 . S
O87 C83 1.260 . S
C88 O79 1.240 . S
C88 O80 1.252 . S
O89 In78 2.294 . S
O89 C82 1.240 . S
O90 In78 2.326 . S
O90 C82 1.252 . S
In91 O92 2.294 . S
In91 O93 2.326 . S
In91 O97 2.266 . S
In91 O98 2.326 . S
In91 O99 2.266 . S
In91 O100 2.326 . S
In91 O102 2.294 . S
In91 O103 2.326 . S
O92 In91 2.294 . S
O92 C101 1.240 . S
O93 In91 2.326 . S
O93 C101 1.252 . S
C94 O97 1.252 . S
C94 O98 1.260 . S
C95 O102 1.240 . S
C95 O103 1.252 . S
C96 O99 1.252 . S
C96 O100 1.260 . S
O97 In91 2.266 . S
O97 C94 1.252 . S
O98 In91 2.326 . S
O98 C94 1.260 . S
O99 In91 2.266 . S
O99 C96 1.252 . S
O100 In91 2.326 . S
O100 C96 1.260 . S
C101 O92 1.240 . S
C101 O93 1.252 . S
O102 In91 2.294 . S
O102 C95 1.240 . S
O103 In91 2.326 . S
O103 C95 1.252 . S
In104 O105 2.294 . S
In104 O106 2.326 . S
In104 O110 2.266 . S
In104 O111 2.326 . S
In104 O112 2.266 . S
In104 O113 2.326 . S
In104 O115 2.294 . S
In104 O116 2.326 . S
O105 In104 2.294 . S
O105 C114 1.240 . S
O106 In104 2.326 . S
O106 C114 1.252 . S
C107 O110 1.252 . S
C107 O111 1.260 . S
C108 O115 1.240 . S
C108 O116 1.252 . S
C109 O112 1.252 . S
C109 O113 1.260 . S
O110 In104 2.266 . S
O110 C107 1.252 . S
O111 In104 2.326 . S
O111 C107 1.260 . S
O112 In104 2.266 . S
O112 C109 1.252 . S
O113 In104 2.326 . S
O113 C109 1.260 . S
C114 O105 1.240 . S
C114 O106 1.252 . S
O115 In104 2.294 . S
O115 C108 1.240 . S
O116 In104 2.326 . S
O116 C108 1.252 . S
In117 O118 2.294 . S
In117 O119 2.326 . S
In117 O123 2.266 . S
In117 O124 2.326 . S
In117 O125 2.266 . S
In117 O126 2.326 . S
In117 O128 2.294 . S
In117 O129 2.326 . S
O118 In117 2.294 . S
O118 C127 1.240 . S
O119 In117 2.326 . S
O119 C127 1.252 . S
C120 O123 1.252 . S
C120 O124 1.260 . S
C121 O128 1.240 . S
C121 O129 1.252 . S
C122 O125 1.252 . S
C122 O126 1.260 . S
O123 In117 2.266 . S
O123 C120 1.252 . S
O124 In117 2.326 . S
O124 C120 1.260 . S
O125 In117 2.266 . S
O125 C122 1.252 . S
O126 In117 2.326 . S
O126 C122 1.260 . S
C127 O118 1.240 . S
C127 O119 1.252 . S
O128 In117 2.294 . S
O128 C121 1.240 . S
O129 In117 2.326 . S
O129 C121 1.252 . S
In130 O131 2.294 . S
In130 O132 2.326 . S
In130 O136 2.266 . S
In130 O137 2.326 . S
In130 O138 2.266 . S
In130 O139 2.326 . S
In130 O141 2.294 . S
In130 O142 2.326 . S
O131 In130 2.294 . S
O131 C140 1.240 . S
O132 In130 2.326 . S
O132 C140 1.252 . S
C133 O136 1.252 . S
C133 O137 1.260 . S
C134 O141 1.240 . S
C134 O142 1.252 . S
C135 O138 1.252 . S
C135 O139 1.260 . S
O136 In130 2.266 . S
O136 C133 1.252 . S
O137 In130 2.326 . S
O137 C133 1.260 . S
O138 In130 2.266 . S
O138 C135 1.252 . S
O139 In130 2.326 . S
O139 C135 1.260 . S
C140 O131 1.240 . S
C140 O132 1.252 . S
O141 In130 2.294 . S
O141 C134 1.240 . S
O142 In130 2.326 . S
O142 C134 1.252 . S
In143 O144 2.294 . S
In143 O145 2.326 . S
In143 O149 2.266 . S
In143 O150 2.326 . S
In143 O151 2.266 . S
In143 O152 2.326 . S
In143 O154 2.294 . S
In143 O155 2.326 . S
O144 In143 2.294 . S
O144 C153 1.240 . S
O145 In143 2.326 . S
O145 C153 1.252 . S
C146 O149 1.252 . S
C146 O150 1.260 . S
C147 O154 1.240 . S
C147 O155 1.252 . S
C148 O151 1.252 . S
C148 O152 1.260 . S
O149 In143 2.266 . S
O149 C146 1.252 . S
O150 In143 2.326 . S
O150 C146 1.260 . S
O151 In143 2.266 . S
O151 C148 1.252 . S
O152 In143 2.326 . S
O152 C148 1.260 . S
C153 O144 1.240 . S
C153 O145 1.252 . S
O154 In143 2.294 . S
O154 C147 1.240 . S
O155 In143 2.326 . S
O155 C147 1.252 . S
In156 O157 2.294 . S
In156 O158 2.326 . S
In156 O162 2.266 . S
In156 O163 2.326 . S
In156 O164 2.266 . S
In156 O165 2.326 . S
In156 O167 2.294 . S
In156 O168 2.326 . S
O157 In156 2.294 . S
O157 C166 1.240 . S
O158 In156 2.326 . S
O158 C166 1.252 . S
C159 O162 1.252 . S
C159 O163 1.260 . S
C160 O167 1.240 . S
C160 O168 1.252 . S
C161 O164 1.252 . S
C161 O165 1.260 . S
O162 In156 2.266 . S
O162 C159 1.252 . S
O163 In156 2.326 . S
O163 C159 1.260 . S
O164 In156 2.266 . S
O164 C161 1.252 . S
O165 In156 2.326 . S
O165 C161 1.260 . S
C166 O157 1.240 . S
C166 O158 1.252 . S
O167 In156 2.294 . S
O167 C160 1.240 . S
O168 In156 2.326 . S
O168 C160 1.252 . S
In169 O170 2.294 . S
In169 O171 2.326 . S
In169 O175 2.266 . S
In169 O176 2.326 . S
In169 O177 2.266 . S
In169 O178 2.326 . S
In169 O180 2.294 . S
In169 O181 2.326 . S
O170 In169 2.294 . S
O170 C179 1.240 . S
O171 In169 2.326 . S
O171 C179 1.252 . S
C172 O175 1.252 . S
C172 O176 1.260 . S
C173 O180 1.240 . S
C173 O181 1.252 . S
C174 O177 1.252 . S
C174 O178 1.260 . S
O175 In169 2.266 . S
O175 C172 1.252 . S
O176 In169 2.326 . S
O176 C172 1.260 . S
O177 In169 2.266 . S
O177 C174 1.252 . S
O178 In169 2.326 . S
O178 C174 1.260 . S
C179 O170 1.240 . S
C179 O171 1.252 . S
O180 In169 2.294 . S
O180 C173 1.240 . S
O181 In169 2.326 . S
O181 C173 1.252 . S
In182 O183 2.294 . S
In182 O184 2.326 . S
In182 O188 2.266 . S
In182 O189 2.326 . S
In182 O190 2.266 . S
In182 O191 2.326 . S
In182 O193 2.294 . S
In182 O194 2.326 . S
O183 In182 2.294 . S
O183 C192 1.240 . S
O184 In182 2.326 . S
O184 C192 1.252 . S
C185 O188 1.252 . S
C185 O189 1.260 . S
C186 O193 1.240 . S
C186 O194 1.252 . S
C187 O190 1.252 . S
C187 O191 1.260 . S
O188 In182 2.266 . S
O188 C185 1.252 . S
O189 In182 2.326 . S
O189 C185 1.260 . S
O190 In182 2.266 . S
O190 C187 1.252 . S
O191 In182 2.326 . S
O191 C187 1.260 . S
C192 O183 1.240 . S
C192 O184 1.252 . S
O193 In182 2.294 . S
O193 C186 1.240 . S
O194 In182 2.326 . S
O194 C186 1.252 . S
In195 O196 2.294 . S
In195 O197 2.326 . S
In195 O201 2.266 . S
In195 O202 2.326 . S
In195 O203 2.266 . S
In195 O204 2.326 . S
In195 O206 2.294 . S
In195 O207 2.326 . S
O196 In195 2.294 . S
O196 C205 1.240 . S
O197 In195 2.326 . S
O197 C205 1.252 . S
C198 O201 1.252 . S
C198 O202 1.260 . S
C199 O206 1.240 . S
C199 O207 1.252 . S
C200 O203 1.252 . S
C200 O204 1.260 . S
O201 In195 2.266 . S
O201 C198 1.252 . S
O202 In195 2.326 . S
O202 C198 1.260 . S
O203 In195 2.266 . S
O203 C200 1.252 . S
O204 In195 2.326 . S
O204 C200 1.260 . S
C205 O196 1.240 . S
C205 O197 1.252 . S
O206 In195 2.294 . S
O206 C199 1.240 . S
O207 In195 2.326 . S
O207 C199 1.252 . S
H208 C214 0.930 . S
H209 C217 0.930 . S
H210 C218 0.930 . S
H211 C219 0.930 . S
H212 C222 0.930 . S
H213 C223 0.930 . S
C214 H208 0.930 . S
C214 C215 1.355 . S
C214 C216 1.415 . S
C215 C214 1.355 . S
C215 C217 1.419 1_565 S
C216 C214 1.415 . S
C216 C221 1.425 1_565 S
C216 C223 1.409 . S
C217 H209 0.930 . S
C217 C215 1.419 1_545 S
C217 C218 1.362 . S
C218 H210 0.930 . S
C218 C217 1.362 . S
C218 C221 1.409 . S
C219 H211 0.930 . S
C219 C220 1.355 . S
C219 C221 1.415 . S
C220 C219 1.355 . S
C220 C222 1.419 1_545 S
C221 C216 1.425 1_545 S
C221 C218 1.409 . S
C221 C219 1.415 . S
C222 H212 0.930 . S
C222 C220 1.419 1_565 S
C222 C223 1.362 . S
C223 H213 0.930 . S
C223 C216 1.409 . S
C223 C222 1.362 . S
H224 C230 0.930 . S
H225 C233 0.930 . S
H226 C234 0.930 . S
H227 C235 0.930 . S
H228 C238 0.930 . S
H229 C239 0.930 . S
C230 H224 0.930 . S
C230 C231 1.355 . S
C230 C232 1.415 . S
C231 C230 1.355 . S
C231 C233 1.419 . S
C232 C230 1.415 . S
C232 C237 1.425 1_565 S
C232 C239 1.409 . S
C233 H225 0.930 . S
C233 C231 1.419 . S
C233 C234 1.362 1_565 S
C234 H226 0.930 . S
C234 C233 1.362 1_545 S
C234 C237 1.409 . S
C235 H227 0.930 . S
C235 C236 1.355 . S
C235 C237 1.415 . S
C236 C235 1.355 . S
C236 C238 1.419 . S
C237 C232 1.425 1_545 S
C237 C234 1.409 . S
C237 C235 1.415 . S
C238 H228 0.930 . S
C238 C236 1.419 . S
C238 C239 1.362 1_545 S
C239 H229 0.930 . S
C239 C232 1.409 . S
C239 C238 1.362 1_565 S
H240 C246 0.930 . S
H241 C249 0.930 . S
H242 C250 0.930 . S
H243 C251 0.930 . S
H244 C254 0.930 . S
H245 C255 0.930 . S
C246 H240 0.930 . S
C246 C247 1.355 . S
C246 C248 1.415 . S
C247 C246 1.355 . S
C247 C249 1.419 . S
C248 C246 1.415 . S
C248 C253 1.425 1_565 S
C248 C255 1.409 . S
C249 H241 0.930 . S
C249 C247 1.419 . S
C249 C250 1.362 1_565 S
C250 H242 0.930 . S
C250 C249 1.362 1_545 S
C250 C253 1.409 . S
C251 H243 0.930 . S
C251 C252 1.355 . S
C251 C253 1.415 . S
C252 C251 1.355 . S
C252 C254 1.419 . S
C253 C248 1.425 1_545 S
C253 C250 1.409 . S
C253 C251 1.415 . S
C254 H244 0.930 . S
C254 C252 1.419 . S
C254 C255 1.362 1_545 S
C255 H245 0.930 . S
C255 C248 1.409 . S
C255 C254 1.362 1_565 S
H256 C262 0.930 1_545 S
H257 C265 0.930 . S
H258 C266 0.930 . S
H259 C267 0.930 1_565 S
H260 C270 0.930 . S
H261 C271 0.930 . S
C262 H256 0.930 1_565 S
C262 C263 1.355 . S
C262 C264 1.415 1_565 S
C263 C262 1.355 . S
C263 C265 1.419 . S
C264 C262 1.415 1_545 S
C264 C269 1.425 1_545 S
C264 C271 1.409 . S
C265 H257 0.930 . S
C265 C263 1.419 . S
C265 C266 1.362 . S
C266 H258 0.930 . S
C266 C265 1.362 . S
C266 C269 1.409 . S
C267 H259 0.930 1_545 S
C267 C268 1.355 . S
C267 C269 1.415 1_545 S
C268 C267 1.355 . S
C268 C270 1.419 . S
C269 C264 1.425 1_565 S
C269 C266 1.409 . S
C269 C267 1.415 1_565 S
C270 H260 0.930 . S
C270 C268 1.419 . S
C270 C271 1.362 . S
C271 H261 0.930 . S
C271 C264 1.409 . S
C271 C270 1.362 . S
H272 C278 0.930 . S
H273 C281 0.930 . S
H274 C282 0.930 . S
H275 C283 0.930 . S
H276 C286 0.930 . S
H277 C287 0.930 . S
C278 H272 0.930 . S
C278 C279 1.355 . S
C278 C280 1.415 . S
C279 C278 1.355 . S
C279 C281 1.419 . S
C280 C278 1.415 . S
C280 C285 1.425 . S
C280 C287 1.409 . S
C281 H273 0.930 . S
C281 C279 1.419 . S
C281 C282 1.362 . S
C282 H274 0.930 . S
C282 C281 1.362 . S
C282 C285 1.409 . S
C283 H275 0.930 . S
C283 C284 1.355 . S
C283 C285 1.415 . S
C284 C283 1.355 . S
C284 C286 1.419 . S
C285 C280 1.425 . S
C285 C282 1.409 . S
C285 C283 1.415 . S
C286 H276 0.930 . S
C286 C284 1.419 . S
C286 C287 1.362 . S
C287 H277 0.930 . S
C287 C280 1.409 . S
C287 C286 1.362 . S
H288 C294 0.930 . S
H289 C297 0.930 . S
H290 C298 0.930 . S
H291 C299 0.930 . S
H292 C302 0.930 . S
H293 C303 0.930 . S
C294 H288 0.930 . S
C294 C295 1.355 . S
C294 C296 1.415 . S
C295 C294 1.355 . S
C295 C297 1.419 . S
C296 C294 1.415 . S
C296 C301 1.425 . S
C296 C303 1.409 . S
C297 H289 0.930 . S
C297 C295 1.419 . S
C297 C298 1.362 . S
C298 H290 0.930 . S
C298 C297 1.362 . S
C298 C301 1.409 . S
C299 H291 0.930 . S
C299 C300 1.355 . S
C299 C301 1.415 . S
C300 C299 1.355 . S
C300 C302 1.419 . S
C301 C296 1.425 . S
C301 C298 1.409 . S
C301 C299 1.415 . S
C302 H292 0.930 . S
C302 C300 1.419 . S
C302 C303 1.362 . S
C303 H293 0.930 . S
C303 C296 1.409 . S
C303 C302 1.362 . S
H304 C310 0.930 . S
H305 C313 0.930 . S
H306 C314 0.930 . S
H307 C315 0.930 . S
H308 C318 0.930 . S
H309 C319 0.930 . S
C310 H304 0.930 . S
C310 C311 1.355 . S
C310 C312 1.415 . S
C311 C310 1.355 . S
C311 C313 1.419 . S
C312 C310 1.415 . S
C312 C317 1.425 . S
C312 C319 1.409 . S
C313 H305 0.930 . S
C313 C311 1.419 . S
C313 C314 1.362 . S
C314 H306 0.930 . S
C314 C313 1.362 . S
C314 C317 1.409 . S
C315 H307 0.930 . S
C315 C316 1.355 . S
C315 C317 1.415 . S
C316 C315 1.355 . S
C316 C318 1.419 . S
C317 C312 1.425 . S
C317 C314 1.409 . S
C317 C315 1.415 . S
C318 H308 0.930 . S
C318 C316 1.419 . S
C318 C319 1.362 . S
C319 H309 0.930 . S
C319 C312 1.409 . S
C319 C318 1.362 . S
H320 C326 0.930 . S
H321 C329 0.930 . S
H322 C330 0.930 . S
H323 C331 0.930 . S
H324 C334 0.930 . S
H325 C335 0.930 . S
C326 H320 0.930 . S
C326 C327 1.355 . S
C326 C328 1.415 . S
C327 C326 1.355 . S
C327 C329 1.419 . S
C328 C326 1.415 . S
C328 C333 1.425 . S
C328 C335 1.409 . S
C329 H321 0.930 . S
C329 C327 1.419 . S
C329 C330 1.362 . S
C330 H322 0.930 . S
C330 C329 1.362 . S
C330 C333 1.409 . S
C331 H323 0.930 . S
C331 C332 1.355 . S
C331 C333 1.415 . S
C332 C331 1.355 . S
C332 C334 1.419 . S
C333 C328 1.425 . S
C333 C330 1.409 . S
C333 C331 1.415 . S
C334 H324 0.930 . S
C334 C332 1.419 . S
C334 C335 1.362 . S
C335 H325 0.930 . S
C335 C328 1.409 . S
C335 C334 1.362 . S
H336 C342 0.930 . S
H337 C345 0.930 . S
H338 C346 0.930 . S
H339 C347 0.930 . S
H340 C350 0.930 . S
H341 C351 0.930 . S
C342 H336 0.930 . S
C342 C343 1.355 1_455 S
C342 C344 1.415 . S
C343 C342 1.355 1_655 S
C343 C345 1.419 . S
C344 C342 1.415 . S
C344 C349 1.425 1_455 S
C344 C351 1.409 . S
C345 H337 0.930 . S
C345 C343 1.419 . S
C345 C346 1.362 . S
C346 H338 0.930 . S
C346 C345 1.362 . S
C346 C349 1.409 . S
C347 H339 0.930 . S
C347 C348 1.355 1_655 S
C347 C349 1.415 . S
C348 C347 1.355 1_455 S
C348 C350 1.419 . S
C349 C344 1.425 1_655 S
C349 C346 1.409 . S
C349 C347 1.415 . S
C350 H340 0.930 . S
C350 C348 1.419 . S
C350 C351 1.362 . S
C351 H341 0.930 . S
C351 C344 1.409 . S
C351 C350 1.362 . S
H352 C358 0.930 . S
H353 C361 0.930 . S
H354 C362 0.930 . S
H355 C363 0.930 . S
H356 C366 0.930 . S
H357 C367 0.930 . S
C358 H352 0.930 . S
C358 C359 1.355 . S
C358 C360 1.415 . S
C359 C358 1.355 . S
C359 C361 1.419 . S
C360 C358 1.415 . S
C360 C365 1.425 . S
C360 C367 1.409 . S
C361 H353 0.930 . S
C361 C359 1.419 . S
C361 C362 1.362 . S
C362 H354 0.930 . S
C362 C361 1.362 . S
C362 C365 1.409 . S
C363 H355 0.930 . S
C363 C364 1.355 . S
C363 C365 1.415 . S
C364 C363 1.355 . S
C364 C366 1.419 . S
C365 C360 1.425 . S
C365 C362 1.409 . S
C365 C363 1.415 . S
C366 H356 0.930 . S
C366 C364 1.419 . S
C366 C367 1.362 . S
C367 H357 0.930 . S
C367 C360 1.409 . S
C367 C366 1.362 . S
H368 C374 0.930 . S
H369 C377 0.930 . S
H370 C378 0.930 . S
H371 C379 0.930 . S
H372 C382 0.930 . S
H373 C383 0.930 . S
C374 H368 0.930 . S
C374 C375 1.355 . S
C374 C376 1.415 . S
C375 C374 1.355 . S
C375 C377 1.419 1_455 S
C376 C374 1.415 . S
C376 C381 1.425 1_455 S
C376 C383 1.409 . S
C377 H369 0.930 . S
C377 C375 1.419 1_655 S
C377 C378 1.362 . S
C378 H370 0.930 . S
C378 C377 1.362 . S
C378 C381 1.409 . S
C379 H371 0.930 . S
C379 C380 1.355 . S
C379 C381 1.415 . S
C380 C379 1.355 . S
C380 C382 1.419 1_655 S
C381 C376 1.425 1_655 S
C381 C378 1.409 . S
C381 C379 1.415 . S
C382 H372 0.930 . S
C382 C380 1.419 1_455 S
C382 C383 1.362 . S
C383 H373 0.930 . S
C383 C376 1.409 . S
C383 C382 1.362 . S
H384 C390 0.930 . S
H385 C393 0.930 . S
H386 C394 0.930 . S
H387 C395 0.930 . S
H388 C398 0.930 . S
H389 C399 0.930 . S
C390 H384 0.930 . S
C390 C391 1.355 . S
C390 C392 1.415 . S
C391 C390 1.355 . S
C391 C393 1.419 . S
C392 C390 1.415 . S
C392 C397 1.425 . S
C392 C399 1.409 . S
C393 H385 0.930 . S
C393 C391 1.419 . S
C393 C394 1.362 . S
C394 H386 0.930 . S
C394 C393 1.362 . S
C394 C397 1.409 . S
C395 H387 0.930 . S
C395 C396 1.355 . S
C395 C397 1.415 . S
C396 C395 1.355 . S
C396 C398 1.419 . S
C397 C392 1.425 . S
C397 C394 1.409 . S
C397 C395 1.415 . S
C398 H388 0.930 . S
C398 C396 1.419 . S
C398 C399 1.362 . S
C399 H389 0.930 . S
C399 C392 1.409 . S
C399 C398 1.362 . S
H400 C406 0.930 . S
H401 C409 0.930 . S
H402 C410 0.930 . S
H403 C411 0.930 . S
H404 C414 0.930 . S
H405 C415 0.930 . S
C406 H400 0.930 . S
C406 C407 1.355 . S
C406 C408 1.415 . S
C407 C406 1.355 . S
C407 C409 1.419 . S
C408 C406 1.415 . S
C408 C413 1.425 . S
C408 C415 1.409 . S
C409 H401 0.930 . S
C409 C407 1.419 . S
C409 C410 1.362 . S
C410 H402 0.930 . S
C410 C409 1.362 . S
C410 C413 1.409 . S
C411 H403 0.930 . S
C411 C412 1.355 . S
C411 C413 1.415 . S
C412 C411 1.355 . S
C412 C414 1.419 . S
C413 C408 1.425 . S
C413 C410 1.409 . S
C413 C411 1.415 . S
C414 H404 0.930 . S
C414 C412 1.419 . S
C414 C415 1.362 . S
C415 H405 0.930 . S
C415 C408 1.409 . S
C415 C414 1.362 . S
H416 C422 0.930 . S
H417 C425 0.930 . S
H418 C426 0.930 . S
H419 C427 0.930 . S
H420 C430 0.930 . S
H421 C431 0.930 . S
C422 H416 0.930 . S
C422 C423 1.355 . S
C422 C424 1.415 . S
C423 C422 1.355 . S
C423 C425 1.419 1_455 S
C424 C422 1.415 . S
C424 C429 1.425 1_455 S
C424 C431 1.409 . S
C425 H417 0.930 . S
C425 C423 1.419 1_655 S
C425 C426 1.362 . S
C426 H418 0.930 . S
C426 C425 1.362 . S
C426 C429 1.409 . S
C427 H419 0.930 . S
C427 C428 1.355 . S
C427 C429 1.415 . S
C428 C427 1.355 . S
C428 C430 1.419 1_655 S
C429 C424 1.425 1_655 S
C429 C426 1.409 . S
C429 C427 1.415 . S
C430 H420 0.930 . S
C430 C428 1.419 1_455 S
C430 C431 1.362 . S
C431 H421 0.930 . S
C431 C424 1.409 . S
C431 C430 1.362 . S
H432 C438 0.930 . S
H433 C441 0.930 . S
H434 C442 0.930 . S
H435 C443 0.930 . S
H436 C446 0.930 . S
H437 C447 0.930 . S
C438 H432 0.930 . S
C438 C439 1.355 . S
C438 C440 1.415 . S
C439 C438 1.355 . S
C439 C441 1.419 . S
C440 C438 1.415 . S
C440 C445 1.425 . S
C440 C447 1.409 . S
C441 H433 0.930 . S
C441 C439 1.419 . S
C441 C442 1.362 . S
C442 H434 0.930 . S
C442 C441 1.362 . S
C442 C445 1.409 . S
C443 H435 0.930 . S
C443 C444 1.355 . S
C443 C445 1.415 . S
C444 C443 1.355 . S
C444 C446 1.419 . S
C445 C440 1.425 . S
C445 C442 1.409 . S
C445 C443 1.415 . S
C446 H436 0.930 . S
C446 C444 1.419 . S
C446 C447 1.362 . S
C447 H437 0.930 . S
C447 C440 1.409 . S
C447 C446 1.362 . S
H448 C454 0.930 . S
H449 C457 0.930 . S
H450 C458 0.930 . S
H451 C459 0.930 . S
H452 C462 0.930 . S
H453 C463 0.930 . S
C454 H448 0.930 . S
C454 C455 1.355 1_655 S
C454 C456 1.415 . S
C455 C454 1.355 1_455 S
C455 C457 1.419 . S
C456 C454 1.415 . S
C456 C461 1.425 1_655 S
C456 C463 1.409 . S
C457 H449 0.930 . S
C457 C455 1.419 . S
C457 C458 1.362 . S
C458 H450 0.930 . S
C458 C457 1.362 . S
C458 C461 1.409 . S
C459 H451 0.930 . S
C459 C460 1.355 1_455 S
C459 C461 1.415 . S
C460 C459 1.355 1_655 S
C460 C462 1.419 . S
C461 C456 1.425 1_455 S
C461 C458 1.409 . S
C461 C459 1.415 . S
C462 H452 0.930 . S
C462 C460 1.419 . S
C462 C463 1.362 . S
C463 H453 0.930 . S
C463 C456 1.409 . S
C463 C462 1.362 . S
H464 C470 0.930 . S
H465 C473 0.930 . S
H466 C474 0.930 . S
H467 C475 0.930 . S
H468 C478 0.930 . S
H469 C479 0.930 . S
C470 H464 0.930 . S
C470 C471 1.355 . S
C470 C472 1.418 . S
C471 C470 1.355 . S
C471 C473 1.419 . S
C472 C470 1.418 . S
C472 C477 1.425 1_455 S
C472 C479 1.406 1_455 S
C473 H465 0.930 . S
C473 C471 1.419 . S
C473 C474 1.362 . S
C474 H466 0.930 . S
C474 C473 1.362 . S
C474 C477 1.406 1_455 S
C475 H467 0.930 . S
C475 C476 1.355 . S
C475 C477 1.418 . S
C476 C475 1.355 . S
C476 C478 1.419 . S
C477 C472 1.425 1_655 S
C477 C474 1.406 1_655 S
C477 C475 1.418 . S
C478 H468 0.930 . S
C478 C476 1.419 . S
C478 C479 1.362 . S
C479 H469 0.930 . S
C479 C472 1.406 1_655 S
C479 C478 1.362 . S
H480 C486 0.930 . S
H481 C489 0.930 . S
H482 C490 0.930 . S
H483 C491 0.930 . S
H484 C494 0.930 . S
H485 C495 0.930 . S
C486 H480 0.930 . S
C486 C487 1.355 . S
C486 C488 1.415 . S
C487 C486 1.355 . S
C487 C489 1.419 . S
C488 C486 1.415 . S
C488 C493 1.425 . S
C488 C495 1.409 . S
C489 H481 0.930 . S
C489 C487 1.419 . S
C489 C490 1.362 . S
C490 H482 0.930 . S
C490 C489 1.362 . S
C490 C493 1.409 . S
C491 H483 0.930 . S
C491 C492 1.355 . S
C491 C493 1.415 . S
C492 C491 1.355 . S
C492 C494 1.419 . S
C493 C488 1.425 . S
C493 C490 1.409 . S
C493 C491 1.415 . S
C494 H484 0.930 . S
C494 C492 1.419 . S
C494 C495 1.362 . S
C495 H485 0.930 . S
C495 C488 1.409 . S
C495 C494 1.362 . S
H496 C502 0.930 . S
H497 C505 0.930 . S
H498 C506 0.930 . S
H499 C507 0.930 . S
H500 C510 0.930 . S
H501 C511 0.930 . S
C502 H496 0.930 . S
C502 C503 1.355 . S
C502 C504 1.415 . S
C503 C502 1.355 . S
C503 C505 1.419 . S
C504 C502 1.415 . S
C504 C509 1.425 . S
C504 C511 1.409 . S
C505 H497 0.930 . S
C505 C503 1.419 . S
C505 C506 1.362 . S
C506 H498 0.930 . S
C506 C505 1.362 . S
C506 C509 1.409 . S
C507 H499 0.930 . S
C507 C508 1.355 . S
C507 C509 1.415 . S
C508 C507 1.355 . S
C508 C510 1.419 . S
C509 C504 1.425 . S
C509 C506 1.409 . S
C509 C507 1.415 . S
C510 H500 0.930 . S
C510 C508 1.419 . S
C510 C511 1.362 . S
C511 H501 0.930 . S
C511 C504 1.409 . S
C511 C510 1.362 . S
H512 C518 0.930 . S
H513 C521 0.930 . S
H514 C522 0.930 . S
H515 C523 0.930 . S
H516 C526 0.930 . S
H517 C527 0.930 . S
C518 H512 0.930 . S
C518 C519 1.355 . S
C518 C520 1.415 1_455 S
C519 C518 1.355 . S
C519 C521 1.419 . S
C520 C518 1.415 1_655 S
C520 C525 1.425 1_655 S
C520 C527 1.409 . S
C521 H513 0.930 . S
C521 C519 1.419 . S
C521 C522 1.362 . S
C522 H514 0.930 . S
C522 C521 1.362 . S
C522 C525 1.409 . S
C523 H515 0.930 . S
C523 C524 1.355 . S
C523 C525 1.415 1_655 S
C524 C523 1.355 . S
C524 C526 1.419 . S
C525 C520 1.425 1_455 S
C525 C522 1.409 . S
C525 C523 1.415 1_455 S
C526 H516 0.930 . S
C526 C524 1.419 . S
C526 C527 1.362 . S
C527 H517 0.930 . S
C527 C520 1.409 . S
C527 C526 1.362 . S
H528 C534 0.930 . S
H529 C537 0.930 . S
H530 C538 0.930 . S
H531 C539 0.930 . S
H532 C542 0.930 . S
H533 C543 0.930 . S
C534 H528 0.930 . S
C534 C535 1.355 . S
C534 C536 1.415 . S
C535 C534 1.355 . S
C535 C537 1.419 1_455 S
C536 C534 1.415 . S
C536 C541 1.425 1_455 S
C536 C543 1.409 . S
C537 H529 0.930 . S
C537 C535 1.419 1_655 S
C537 C538 1.362 . S
C538 H530 0.930 . S
C538 C537 1.362 . S
C538 C541 1.409 . S
C539 H531 0.930 . S
C539 C540 1.355 . S
C539 C541 1.415 . S
C540 C539 1.355 . S
C540 C542 1.419 1_655 S
C541 C536 1.425 1_655 S
C541 C538 1.409 . S
C541 C539 1.415 . S
C542 H532 0.930 . S
C542 C540 1.419 1_455 S
C542 C543 1.362 . S
C543 H533 0.930 . S
C543 C536 1.409 . S
C543 C542 1.362 . S
H544 C550 0.930 . S
H545 C553 0.930 . S
H546 C554 0.930 . S
H547 C555 0.930 . S
H548 C558 0.930 . S
H549 C559 0.930 . S
C550 H544 0.930 . S
C550 C551 1.355 . S
C550 C552 1.415 . S
C551 C550 1.355 . S
C551 C553 1.419 . S
C552 C550 1.415 . S
C552 C557 1.425 . S
C552 C559 1.409 . S
C553 H545 0.930 . S
C553 C551 1.419 . S
C553 C554 1.362 . S
C554 H546 0.930 . S
C554 C553 1.362 . S
C554 C557 1.409 . S
C555 H547 0.930 . S
C555 C556 1.355 . S
C555 C557 1.415 . S
C556 C555 1.355 . S
C556 C558 1.419 . S
C557 C552 1.425 . S
C557 C554 1.409 . S
C557 C555 1.415 . S
C558 H548 0.930 . S
C558 C556 1.419 . S
C558 C559 1.362 . S
C559 H549 0.930 . S
C559 C552 1.409 . S
C559 C558 1.362 . S
H560 C566 0.930 . S
H561 C569 0.930 . S
H562 C570 0.930 . S
H563 C571 0.930 . S
H564 C574 0.930 . S
H565 C575 0.930 . S
C566 H560 0.930 . S
C566 C567 1.355 . S
C566 C568 1.415 . S
C567 C566 1.355 . S
C567 C569 1.419 . S
C568 C566 1.415 . S
C568 C573 1.425 . S
C568 C575 1.409 . S
C569 H561 0.930 . S
C569 C567 1.419 . S
C569 C570 1.362 . S
C570 H562 0.930 . S
C570 C569 1.362 . S
C570 C573 1.409 . S
C571 H563 0.930 . S
C571 C572 1.355 . S
C571 C573 1.415 . S
C572 C571 1.355 . S
C572 C574 1.419 . S
C573 C568 1.425 . S
C573 C570 1.409 . S
C573 C571 1.415 . S
C574 H564 0.930 . S
C574 C572 1.419 . S
C574 C575 1.362 . S
C575 H565 0.930 . S
C575 C568 1.409 . S
C575 C574 1.362 . S
H576 C582 0.930 . S
H577 C585 0.930 . S
H578 C586 0.930 . S
H579 C587 0.930 . S
H580 C590 0.930 . S
H581 C591 0.930 . S
C582 H576 0.930 . S
C582 C583 1.355 . S
C582 C584 1.415 . S
C583 C582 1.355 . S
C583 C585 1.419 1_455 S
C584 C582 1.415 . S
C584 C589 1.425 1_455 S
C584 C591 1.409 . S
C585 H577 0.930 . S
C585 C583 1.419 1_655 S
C585 C586 1.362 . S
C586 H578 0.930 . S
C586 C585 1.362 . S
C586 C589 1.409 . S
C587 H579 0.930 . S
C587 C588 1.355 . S
C587 C589 1.415 . S
C588 C587 1.355 . S
C588 C590 1.419 1_655 S
C589 C584 1.425 1_655 S
C589 C586 1.409 . S
C589 C587 1.415 . S
C590 H580 0.930 . S
C590 C588 1.419 1_455 S
C590 C591 1.362 . S
C591 H581 0.930 . S
C591 C584 1.409 . S
C591 C590 1.362 . S
H592 C598 0.909 1_545 S
H593 C601 0.930 . S
H594 C602 0.930 . S
H595 C603 0.909 1_565 S
H596 C606 0.930 . S
H597 C607 0.930 . S
C598 H592 0.909 1_565 S
C598 C599 1.386 . S
C598 C600 1.404 1_565 S
C599 C598 1.386 . S
C599 C601 1.419 . S
C600 C598 1.404 1_545 S
C600 C605 1.425 1_646 S
C600 C607 1.409 . S
C601 H593 0.930 . S
C601 C599 1.419 . S
C601 C602 1.362 1_656 S
C602 H594 0.930 . S
C602 C601 1.362 1_454 S
C602 C605 1.409 . S
C603 H595 0.909 1_545 S
C603 C604 1.386 . S
C603 C605 1.404 1_545 S
C604 C603 1.386 . S
C604 C606 1.419 . S
C605 C600 1.425 1_464 S
C605 C602 1.409 . S
C605 C603 1.404 1_565 S
C606 H596 0.930 . S
C606 C604 1.419 . S
C606 C607 1.362 1_454 S
C607 H597 0.930 . S
C607 C600 1.409 . S
C607 C606 1.362 1_656 S
H608 C614 0.930 . S
H609 C617 0.930 . S
H610 C618 0.930 . S
H611 C619 0.930 . S
H612 C622 0.930 . S
H613 C623 0.930 . S
C614 H608 0.930 . S
C614 C615 1.355 . S
C614 C616 1.415 . S
C615 C614 1.355 . S
C615 C617 1.419 . S
C616 C614 1.415 . S
C616 C621 1.425 1_546 S
C616 C623 1.409 1_556 S
C617 H609 0.930 . S
C617 C615 1.419 . S
C617 C618 1.362 1_545 S
C618 H610 0.930 . S
C618 C617 1.362 1_565 S
C618 C621 1.409 1_556 S
C619 H611 0.930 . S
C619 C620 1.355 . S
C619 C621 1.415 . S
C620 C619 1.355 . S
C620 C622 1.419 . S
C621 C616 1.425 1_564 S
C621 C618 1.409 1_554 S
C621 C619 1.415 . S
C622 H612 0.930 . S
C622 C620 1.419 . S
C622 C623 1.362 1_565 S
C623 H613 0.930 . S
C623 C616 1.409 1_554 S
C623 C622 1.362 1_545 S
H624 C630 0.930 1_565 S
H625 C633 0.930 . S
H626 C634 0.930 . S
H627 C635 0.930 1_545 S
H628 C638 0.930 . S
H629 C639 0.930 . S
C630 H624 0.930 1_545 S
C630 C631 1.355 . S
C630 C632 1.415 1_545 S
C631 C630 1.355 . S
C631 C633 1.419 . S
C632 C630 1.415 1_565 S
C632 C637 1.425 1_565 S
C632 C639 1.409 . S
C633 H625 0.930 . S
C633 C631 1.419 . S
C633 C634 1.362 . S
C634 H626 0.930 . S
C634 C633 1.362 . S
C634 C637 1.409 . S
C635 H627 0.930 1_565 S
C635 C636 1.355 . S
C635 C637 1.415 1_565 S
C636 C635 1.355 . S
C636 C638 1.419 . S
C637 C632 1.425 1_545 S
C637 C634 1.409 . S
C637 C635 1.415 1_545 S
C638 H628 0.930 . S
C638 C636 1.419 . S
C638 C639 1.362 . S
C639 H629 0.930 . S
C639 C632 1.409 . S
C639 C638 1.362 . S
H640 C646 0.930 . S
H641 C649 0.930 . S
H642 C650 0.930 . S
H643 C651 0.930 . S
H644 C654 0.930 . S
H645 C655 0.930 . S
C646 H640 0.930 . S
C646 C647 1.355 1_655 S
C646 C648 1.415 1_565 S
C647 C646 1.355 1_455 S
C647 C649 1.419 . S
C648 C646 1.415 1_545 S
C648 C653 1.425 1_645 S
C648 C655 1.409 . S
C649 H641 0.930 . S
C649 C647 1.419 . S
C649 C650 1.362 . S
C650 H642 0.930 . S
C650 C649 1.362 . S
C650 C653 1.409 . S
C651 H643 0.930 . S
C651 C652 1.355 1_455 S
C651 C653 1.415 1_545 S
C652 C651 1.355 1_655 S
C652 C654 1.419 . S
C653 C648 1.425 1_465 S
C653 C650 1.409 . S
C653 C651 1.415 1_565 S
C654 H644 0.930 . S
C654 C652 1.419 . S
C654 C655 1.362 . S
C655 H645 0.930 . S
C655 C648 1.409 . S
C655 C654 1.362 . S
H656 C662 0.930 . S
H657 C665 0.930 . S
H658 C666 0.930 . S
H659 C667 0.930 . S
H660 C670 0.930 . S
H661 C671 0.930 . S
C662 H656 0.930 . S
C662 C663 1.355 . S
C662 C664 1.415 . S
C663 C662 1.355 . S
C663 C665 1.419 . S
C664 C662 1.415 . S
C664 C669 1.425 1_554 S
C664 C671 1.409 1_554 S
C665 H657 0.930 . S
C665 C663 1.419 . S
C665 C666 1.362 . S
C666 H658 0.930 . S
C666 C665 1.362 . S
C666 C669 1.409 1_554 S
C667 H659 0.930 . S
C667 C668 1.355 . S
C667 C669 1.415 . S
C668 C667 1.355 . S
C668 C670 1.419 . S
C669 C664 1.425 1_556 S
C669 C666 1.409 1_556 S
C669 C667 1.415 . S
C670 H660 0.930 . S
C670 C668 1.419 . S
C670 C671 1.362 . S
C671 H661 0.930 . S
C671 C664 1.409 1_556 S
C671 C670 1.362 . S
H672 C678 0.930 . S
H673 C681 0.930 . S
H674 C682 0.930 . S
H675 C683 0.930 . S
H676 C686 0.930 . S
H677 C687 0.930 . S
C678 H672 0.930 . S
C678 C679 1.355 1_455 S
C678 C680 1.415 . S
C679 C678 1.355 1_655 S
C679 C681 1.419 . S
C680 C678 1.415 . S
C680 C685 1.425 1_454 S
C680 C687 1.409 . S
C681 H673 0.930 . S
C681 C679 1.419 . S
C681 C682 1.362 1_554 S
C682 H674 0.930 . S
C682 C681 1.362 1_556 S
C682 C685 1.409 . S
C683 H675 0.930 . S
C683 C684 1.355 1_655 S
C683 C685 1.415 . S
C684 C683 1.355 1_455 S
C684 C686 1.419 . S
C685 C680 1.425 1_656 S
C685 C682 1.409 . S
C685 C683 1.415 . S
C686 H676 0.930 . S
C686 C684 1.419 . S
C686 C687 1.362 1_556 S
C687 H677 0.930 . S
C687 C680 1.409 . S
C687 C686 1.362 1_554 S
H688 C694 0.930 . S
H689 C697 0.930 . S
H690 C698 0.930 . S
H691 C699 0.930 . S
H692 C702 0.930 . S
H693 C703 0.930 . S
C694 H688 0.930 . S
C694 C695 1.355 1_455 S
C694 C696 1.415 . S
C695 C694 1.355 1_655 S
C695 C697 1.419 . S
C696 C694 1.415 . S
C696 C701 1.425 1_455 S
C696 C703 1.409 . S
C697 H689 0.930 . S
C697 C695 1.419 . S
C697 C698 1.362 . S
C698 H690 0.930 . S
C698 C697 1.362 . S
C698 C701 1.409 . S
C699 H691 0.930 . S
C699 C700 1.355 1_655 S
C699 C701 1.415 . S
C700 C699 1.355 1_455 S
C700 C702 1.419 . S
C701 C696 1.425 1_655 S
C701 C698 1.409 . S
C701 C699 1.415 . S
C702 H692 0.930 . S
C702 C700 1.419 . S
C702 C703 1.362 . S
C703 H693 0.930 . S
C703 C696 1.409 . S
C703 C702 1.362 . S
H704 C710 0.930 . S
H705 C713 0.930 . S
H706 C714 0.930 . S
H707 C715 0.930 . S
H708 C718 0.930 . S
H709 C719 0.930 . S
C710 H704 0.930 . S
C710 C711 1.355 . S
C710 C712 1.415 . S
C711 C710 1.355 . S
C711 C713 1.419 . S
C712 C710 1.415 . S
C712 C717 1.425 . S
C712 C719 1.409 . S
C713 H705 0.930 . S
C713 C711 1.419 . S
C713 C714 1.362 . S
C714 H706 0.930 . S
C714 C713 1.362 . S
C714 C717 1.409 . S
C715 H707 0.930 . S
C715 C716 1.355 . S
C715 C717 1.415 . S
C716 C715 1.355 . S
C716 C718 1.419 . S
C717 C712 1.425 . S
C717 C714 1.409 . S
C717 C715 1.415 . S
C718 H708 0.930 . S
C718 C716 1.419 . S
C718 C719 1.362 . S
C719 H709 0.930 . S
C719 C712 1.409 . S
C719 C718 1.362 . S
C215 C23 1.499 . S
C220 C10 1.499 . S
C231 C30 1.500 . S
C236 C43 1.500 . S
C247 C56 1.500 . S
C252 C75 1.500 . S
C263 C95 1.501 . S
C268 C82 1.501 . S
C279 C127 1.500 . S
C284 C114 1.500 . S
C295 C147 1.501 . S
C300 C134 1.501 . S
C311 C179 1.500 . S
C316 C166 1.500 . S
C327 C199 1.501 . S
C332 C186 1.501 . S
C343 C42 1.509 . S
C348 C5 1.514 . S
C359 C18 1.512 . S
C364 C29 1.509 . S
C375 C94 1.513 . S
C380 C55 1.516 . S
C391 C81 1.516 . S
C396 C70 1.512 . S
C407 C109 1.515 . S
C412 C146 1.510 . S
C423 C133 1.515 . S
C428 C122 1.514 . S
C439 C198 1.514 . S
C444 C161 1.516 . S
C455 C174 1.514 . S
C460 C185 1.509 . S
C471 C3 1.459 . S
C476 C120 1.449 . S
C487 C16 1.456 . S
C492 C107 1.450 . S
C503 C148 1.451 . S
C508 C31 1.453 . S
C519 C135 1.451 . S
C524 C44 1.460 . S
C535 C172 1.450 . S
C540 C57 1.454 . S
C551 C159 1.449 . S
C556 C68 1.459 . S
C567 C83 1.453 . S
C572 C200 1.452 . S
C583 C96 1.453 . S
C588 C187 1.452 . S
C599 C62 1.526 . S
C604 C4 1.526 . S
C615 C69 1.520 . S
C620 C17 1.520 . S
C631 C88 1.526 . S
C636 C36 1.526 . S
C647 C101 1.525 . S
C652 C49 1.525 . S
C663 C108 1.517 . S
C668 C160 1.517 . S
C679 C121 1.522 . S
C684 C173 1.522 . S
C695 C192 1.519 . S
C700 C140 1.519 . S
C711 C205 1.517 . S
C716 C153 1.517 . S
