# Generated by pormake.
# Topology wjr, (5)-cn, num edge types: 1
# Building blocks:
#     Node 0, Type 0, BuildingBlock: XOMCOT_clean_sbu_0, # of connection points: 5
#     Node 1, Type 0, BuildingBlock: XOMCOT_clean_sbu_0, # of connection points: 5
#     Node 2, Type 0, BuildingBlock: XOMCOT_clean_sbu_0, # of connection points: 5
#     Node 3, Type 0, BuildingBlock: XOMCOT_clean_sbu_0, # of connection points: 5
#     Node 4, Type 0, BuildingBlock: XOMCOT_clean_sbu_0, # of connection points: 5
#     Node 5, Type 0, BuildingBlock: XOMCOT_clean_sbu_0, # of connection points: 5
#     Node 6, Type 0, BuildingBlock: XOMCOT_clean_sbu_0, # of connection points: 5
#     Node 7, Type 0, BuildingBlock: XOMCOT_clean_sbu_0, # of connection points: 5
#     Node 8, Type 0, BuildingBlock: XOMCOT_clean_sbu_0, # of connection points: 5
#     Node 9, Type 0, BuildingBlock: XOMCOT_clean_sbu_0, # of connection points: 5
#     Node 10, Type 0, BuildingBlock: XOMCOT_clean_sbu_0, # of connection points: 5
#     Node 11, Type 0, BuildingBlock: XOMCOT_clean_sbu_0, # of connection points: 5
#     Node 12, Type 0, BuildingBlock: XOMCOT_clean_sbu_0, # of connection points: 5
#     Node 13, Type 0, BuildingBlock: XOMCOT_clean_sbu_0, # of connection points: 5
#     Node 14, Type 0, BuildingBlock: XOMCOT_clean_sbu_0, # of connection points: 5
#     Node 15, Type 0, BuildingBlock: XOMCOT_clean_sbu_0, # of connection points: 5
#     Node 16, Type 0, BuildingBlock: XOMCOT_clean_sbu_0, # of connection points: 5
#     Node 17, Type 0, BuildingBlock: XOMCOT_clean_sbu_0, # of connection points: 5
#     Node 18, Type 0, BuildingBlock: XOMCOT_clean_sbu_0, # of connection points: 5
#     Node 19, Type 0, BuildingBlock: XOMCOT_clean_sbu_0, # of connection points: 5
#     Node 20, Type 0, BuildingBlock: XOMCOT_clean_sbu_0, # of connection points: 5
#     Node 21, Type 0, BuildingBlock: XOMCOT_clean_sbu_0, # of connection points: 5
#     Node 22, Type 0, BuildingBlock: XOMCOT_clean_sbu_0, # of connection points: 5
#     Node 23, Type 0, BuildingBlock: XOMCOT_clean_sbu_0, # of connection points: 5
#     Edge 24, Type (0, 0), BuildingBlock: CIFDUS_clean_linker_0, # of connection points: 2
#     Edge 25, Type (0, 0), BuildingBlock: CIFDUS_clean_linker_0, # of connection points: 2
#     Edge 26, Type (0, 0), BuildingBlock: CIFDUS_clean_linker_0, # of connection points: 2
#     Edge 27, Type (0, 0), BuildingBlock: CIFDUS_clean_linker_0, # of connection points: 2
#     Edge 28, Type (0, 0), BuildingBlock: CIFDUS_clean_linker_0, # of connection points: 2
#     Edge 29, Type (0, 0), BuildingBlock: CIFDUS_clean_linker_0, # of connection points: 2
#     Edge 30, Type (0, 0), BuildingBlock: CIFDUS_clean_linker_0, # of connection points: 2
#     Edge 31, Type (0, 0), BuildingBlock: CIFDUS_clean_linker_0, # of connection points: 2
#     Edge 32, Type (0, 0), BuildingBlock: CIFDUS_clean_linker_0, # of connection points: 2
#     Edge 33, Type (0, 0), BuildingBlock: CIFDUS_clean_linker_0, # of connection points: 2
#     Edge 34, Type (0, 0), BuildingBlock: CIFDUS_clean_linker_0, # of connection points: 2
#     Edge 35, Type (0, 0), BuildingBlock: CIFDUS_clean_linker_0, # of connection points: 2
#     Edge 36, Type (0, 0), BuildingBlock: CIFDUS_clean_linker_0, # of connection points: 2
#     Edge 37, Type (0, 0), BuildingBlock: CIFDUS_clean_linker_0, # of connection points: 2
#     Edge 38, Type (0, 0), BuildingBlock: CIFDUS_clean_linker_0, # of connection points: 2
#     Edge 39, Type (0, 0), BuildingBlock: CIFDUS_clean_linker_0, # of connection points: 2
#     Edge 40, Type (0, 0), BuildingBlock: CIFDUS_clean_linker_0, # of connection points: 2
#     Edge 41, Type (0, 0), BuildingBlock: CIFDUS_clean_linker_0, # of connection points: 2
#     Edge 42, Type (0, 0), BuildingBlock: CIFDUS_clean_linker_0, # of connection points: 2
#     Edge 43, Type (0, 0), BuildingBlock: CIFDUS_clean_linker_0, # of connection points: 2
#     Edge 44, Type (0, 0), BuildingBlock: CIFDUS_clean_linker_0, # of connection points: 2
#     Edge 45, Type (0, 0), BuildingBlock: CIFDUS_clean_linker_0, # of connection points: 2
#     Edge 46, Type (0, 0), BuildingBlock: CIFDUS_clean_linker_0, # of connection points: 2
#     Edge 47, Type (0, 0), BuildingBlock: CIFDUS_clean_linker_0, # of connection points: 2
#     Edge 48, Type (0, 0), BuildingBlock: CIFDUS_clean_linker_0, # of connection points: 2
#     Edge 49, Type (0, 0), BuildingBlock: CIFDUS_clean_linker_0, # of connection points: 2
#     Edge 50, Type (0, 0), BuildingBlock: CIFDUS_clean_linker_0, # of connection points: 2
#     Edge 51, Type (0, 0), BuildingBlock: CIFDUS_clean_linker_0, # of connection points: 2
#     Edge 52, Type (0, 0), BuildingBlock: CIFDUS_clean_linker_0, # of connection points: 2
#     Edge 53, Type (0, 0), BuildingBlock: CIFDUS_clean_linker_0, # of connection points: 2
#     Edge 54, Type (0, 0), BuildingBlock: CIFDUS_clean_linker_0, # of connection points: 2
#     Edge 55, Type (0, 0), BuildingBlock: CIFDUS_clean_linker_0, # of connection points: 2
#     Edge 56, Type (0, 0), BuildingBlock: CIFDUS_clean_linker_0, # of connection points: 2
#     Edge 57, Type (0, 0), BuildingBlock: CIFDUS_clean_linker_0, # of connection points: 2
#     Edge 58, Type (0, 0), BuildingBlock: CIFDUS_clean_linker_0, # of connection points: 2
#     Edge 59, Type (0, 0), BuildingBlock: CIFDUS_clean_linker_0, # of connection points: 2
#     Edge 60, Type (0, 0), BuildingBlock: CIFDUS_clean_linker_0, # of connection points: 2
#     Edge 61, Type (0, 0), BuildingBlock: CIFDUS_clean_linker_0, # of connection points: 2
#     Edge 62, Type (0, 0), BuildingBlock: CIFDUS_clean_linker_0, # of connection points: 2
#     Edge 63, Type (0, 0), BuildingBlock: CIFDUS_clean_linker_0, # of connection points: 2
#     Edge 64, Type (0, 0), BuildingBlock: CIFDUS_clean_linker_0, # of connection points: 2
#     Edge 65, Type (0, 0), BuildingBlock: CIFDUS_clean_linker_0, # of connection points: 2
#     Edge 66, Type (0, 0), BuildingBlock: CIFDUS_clean_linker_0, # of connection points: 2
#     Edge 67, Type (0, 0), BuildingBlock: CIFDUS_clean_linker_0, # of connection points: 2
#     Edge 68, Type (0, 0), BuildingBlock: CIFDUS_clean_linker_0, # of connection points: 2
#     Edge 69, Type (0, 0), BuildingBlock: CIFDUS_clean_linker_0, # of connection points: 2
#     Edge 70, Type (0, 0), BuildingBlock: CIFDUS_clean_linker_0, # of connection points: 2
#     Edge 71, Type (0, 0), BuildingBlock: CIFDUS_clean_linker_0, # of connection points: 2
#     Edge 72, Type (0, 0), BuildingBlock: CIFDUS_clean_linker_0, # of connection points: 2
#     Edge 73, Type (0, 0), BuildingBlock: CIFDUS_clean_linker_0, # of connection points: 2
#     Edge 74, Type (0, 0), BuildingBlock: CIFDUS_clean_linker_0, # of connection points: 2
#     Edge 75, Type (0, 0), BuildingBlock: CIFDUS_clean_linker_0, # of connection points: 2
#     Edge 76, Type (0, 0), BuildingBlock: CIFDUS_clean_linker_0, # of connection points: 2
#     Edge 77, Type (0, 0), BuildingBlock: CIFDUS_clean_linker_0, # of connection points: 2
#     Edge 78, Type (0, 0), BuildingBlock: CIFDUS_clean_linker_0, # of connection points: 2
#     Edge 79, Type (0, 0), BuildingBlock: CIFDUS_clean_linker_0, # of connection points: 2
#     Edge 80, Type (0, 0), BuildingBlock: CIFDUS_clean_linker_0, # of connection points: 2
#     Edge 81, Type (0, 0), BuildingBlock: CIFDUS_clean_linker_0, # of connection points: 2
#     Edge 82, Type (0, 0), BuildingBlock: CIFDUS_clean_linker_0, # of connection points: 2
#     Edge 83, Type (0, 0), BuildingBlock: CIFDUS_clean_linker_0, # of connection points: 2
# Relax obj value: 0.384
# Max RMSD: 0.204
# Mean RMSD: 0.204
data_MOF--net-wjr--node1-XOMCOT_clean_sbu_0--edge1-CIFDUS_clean_linker_0
_symmetry_space_group_name_H-M    P1
_symmetry_Int_Tables_number       1
_symmetry_cell_setting            triclinic
loop_
_symmetry_equiv_pos_as_xyz
'x, y, z'
_cell_length_a     58.853248
_cell_length_b     59.231136
_cell_length_c     44.584952
_cell_angle_alpha  90.103307
_cell_angle_beta   89.97798
_cell_angle_gamma 119.99508
loop_
_atom_site_label
_atom_site_type_symbol
_atom_site_fract_x
_atom_site_fract_y
_atom_site_fract_z
_atom_type_partial_charge
Co0 Co 0.48134 0.11372 0.1965 0.0
C1 C 0.47866 0.16136 0.21341 0.0
C2 C 0.47108 0.13467 0.24968 0.0
C3 C 0.46931 0.15532 0.26049 0.0
N4 N 0.4768 0.13829 0.22025 0.0
N5 N 0.4742 0.17223 0.23785 0.0
H6 H 0.48343 0.17007 0.19135 0.0
H7 H 0.46837 0.11801 0.26247 0.0
C8 C 0.43424 0.06104 0.21191 0.0
O9 O 0.43339 0.05128 0.18517 0.0
N10 N 0.48612 0.08852 0.17399 0.0
C11 C 0.48971 0.08732 0.1443 0.0
C12 C 0.49327 0.0664 0.13883 0.0
C13 C 0.48834 0.06894 0.18617 0.0
N14 N 0.49228 0.05481 0.16523 0.0
C15 C 0.47599 0.1356 0.14157 0.0
C16 C 0.42481 0.09788 0.12952 0.0
C17 C 0.44026 0.11414 0.10618 0.0
C18 C 0.4656 0.13426 0.11299 0.0
C19 C 0.43579 0.10035 0.15804 0.0
N20 N 0.46184 0.11741 0.16297 0.0
H21 H 0.49624 0.15001 0.14549 0.0
H22 H 0.42339 0.08772 0.17546 0.0
H23 H 0.49004 0.10067 0.12766 0.0
H24 H 0.48619 0.06468 0.20993 0.0
O25 O 0.51693 0.1401 0.18553 0.0
O26 O 0.50588 0.11505 0.22591 0.0
O27 O 0.44939 0.08525 0.21727 0.0
C28 C 0.5242 0.13305 0.20963 0.0
H29 H 0.46426 0.15738 0.28327 0.0
H30 H 0.49658 0.06039 0.1171 0.0
H31 H 0.40475 0.0827 0.12542 0.0
H32 H 0.47811 0.14749 0.09573 0.0
Co33 Co 0.35323 0.46588 0.20726 0.0
C34 C 0.29679 0.44648 0.22035 0.0
C35 C 0.31525 0.43426 0.25282 0.0
C36 C 0.29047 0.42693 0.26273 0.0
N37 N 0.31914 0.44606 0.22596 0.0
N38 N 0.27891 0.43482 0.24248 0.0
H39 H 0.29434 0.45685 0.20191 0.0
H40 H 0.33003 0.43246 0.26527 0.0
C41 C 0.34952 0.41324 0.2206 0.0
O42 O 0.32421 0.39959 0.21522 0.0
N43 N 0.38748 0.48597 0.18979 0.0
C44 C 0.39424 0.50074 0.16486 0.0
C45 C 0.42075 0.51107 0.16018 0.0
C46 C 0.40978 0.48791 0.20032 0.0
N47 N 0.43038 0.50295 0.18255 0.0
C48 C 0.32687 0.46181 0.15126 0.0
C49 C 0.34447 0.43235 0.12197 0.0
C50 C 0.33306 0.44393 0.10481 0.0
C51 C 0.32331 0.45805 0.1201 0.0
C52 C 0.3479 0.43679 0.15286 0.0
N53 N 0.33956 0.45174 0.16728 0.0
H54 H 0.32138 0.47474 0.16194 0.0
H55 H 0.35935 0.42991 0.16432 0.0
H56 H 0.38084 0.50354 0.1509 0.0
H57 H 0.41076 0.47792 0.22015 0.0
O58 O 0.35014 0.49717 0.20692 0.0
O59 O 0.36643 0.4848 0.24412 0.0
O60 O 0.36215 0.43795 0.21704 0.0
C61 C 0.36127 0.50203 0.23326 0.0
H62 H 0.28205 0.41746 0.28386 0.0
H63 H 0.43203 0.52341 0.14168 0.0
H64 H 0.3521 0.42103 0.11138 0.0
H65 H 0.31471 0.46773 0.10789 0.0
Co66 Co 0.88149 0.35372 0.20668 0.0
C67 C 0.84267 0.30019 0.22771 0.0
C68 C 0.87286 0.32228 0.25991 0.0
C69 C 0.85514 0.29905 0.27277 0.0
N70 N 0.86539 0.32287 0.23148 0.0
N71 N 0.83612 0.28519 0.25258 0.0
H72 H 0.83072 0.29502 0.20776 0.0
H73 H 0.88966 0.33814 0.2709 0.0
C74 C 0.92605 0.34319 0.22228 0.0
O75 O 0.91046 0.31781 0.22312 0.0
N76 N 0.89753 0.38488 0.18275 0.0
C77 C 0.88631 0.39189 0.16105 0.0
C78 C 0.9049 0.41581 0.14984 0.0
C79 C 0.92252 0.40435 0.1845 0.0
N80 N 0.92757 0.42323 0.16451 0.0
C81 C 0.85179 0.32314 0.15629 0.0
C82 C 0.89415 0.32893 0.12341 0.0
C83 C 0.86993 0.31949 0.1088 0.0
C84 C 0.84837 0.31574 0.12603 0.0
C85 C 0.89677 0.33619 0.15366 0.0
N86 N 0.87586 0.3338 0.1697 0.0
H87 H 0.83535 0.32214 0.16821 0.0
H88 H 0.9162 0.34568 0.16309 0.0
H89 H 0.86609 0.38046 0.15391 0.0
H90 H 0.93666 0.40513 0.2005 0.0
O91 O 0.8493 0.35549 0.20784 0.0
O92 O 0.88182 0.37375 0.24079 0.0
O93 O 0.91743 0.35825 0.21428 0.0
C94 C 0.85908 0.3696 0.23188 0.0
H95 H 0.85552 0.29338 0.29575 0.0
H96 H 0.90216 0.42671 0.13215 0.0
H97 H 0.91135 0.33193 0.11122 0.0
H98 H 0.82934 0.30891 0.1158 0.0
Co99 Co 0.51577 0.8766 0.21013 0.0
C100 C 0.5357 0.84126 0.22811 0.0
C101 C 0.54052 0.8685 0.26264 0.0
C102 C 0.54853 0.852 0.27369 0.0
N103 N 0.53289 0.86209 0.23389 0.0
N104 N 0.54534 0.83475 0.25202 0.0
H105 H 0.52931 0.83001 0.20772 0.0
H106 H 0.53941 0.88356 0.27514 0.0
C107 C 0.56729 0.9228 0.23023 0.0
O108 O 0.58088 0.91116 0.2247 0.0
N109 N 0.49837 0.89089 0.18694 0.0
C110 C 0.48192 0.87932 0.16373 0.0
C111 C 0.47483 0.89644 0.15219 0.0
C112 C 0.50105 0.91475 0.18934 0.0
N113 N 0.48697 0.91876 0.16825 0.0
C114 C 0.52346 0.85283 0.15807 0.0
C115 C 0.55871 0.89864 0.12978 0.0
C116 C 0.54793 0.87527 0.11347 0.0
C117 C 0.53069 0.85206 0.12837 0.0
C118 C 0.55101 0.89856 0.15951 0.0
N119 N 0.53339 0.87585 0.17334 0.0
H120 H 0.50844 0.83498 0.16804 0.0
H121 H 0.55775 0.91712 0.17027 0.0
H122 H 0.4758 0.85992 0.1555 0.0
H123 H 0.51363 0.92912 0.20562 0.0
O124 O 0.48378 0.84255 0.20831 0.0
O125 O 0.49377 0.87242 0.2437 0.0
O126 O 0.54354 0.91281 0.22163 0.0
C127 C 0.47716 0.84976 0.23291 0.0
H128 H 0.55546 0.8523 0.29624 0.0
H129 H 0.46181 0.8927 0.13337 0.0
H130 H 0.57157 0.91713 0.11908 0.0
H131 H 0.52187 0.83351 0.11677 0.0
Co132 Co 0.63863 0.53191 0.20793 0.0
C133 C 0.69311 0.5454 0.22472 0.0
C134 C 0.67389 0.55536 0.25876 0.0
C135 C 0.69798 0.56083 0.26943 0.0
N136 N 0.67096 0.54612 0.23055 0.0
N137 N 0.71005 0.55443 0.24811 0.0
H138 H 0.69625 0.53717 0.20464 0.0
H139 H 0.65912 0.55725 0.27115 0.0
C140 C 0.64943 0.58581 0.22666 0.0
O141 O 0.67429 0.59677 0.21907 0.0
N142 N 0.60619 0.51751 0.18597 0.0
C143 C 0.60024 0.503 0.16081 0.0
C144 C 0.57611 0.49806 0.15074 0.0
C145 C 0.58562 0.52099 0.19113 0.0
N146 N 0.56702 0.50943 0.1698 0.0
C147 C 0.6678 0.53765 0.15414 0.0
C148 C 0.65645 0.5727 0.12696 0.0
C149 C 0.66582 0.5596 0.10906 0.0
C150 C 0.67261 0.54271 0.12338 0.0
C151 C 0.65153 0.56678 0.15743 0.0
N152 N 0.65663 0.54899 0.17073 0.0
H153 H 0.67057 0.52249 0.16373 0.0
H154 H 0.64112 0.57471 0.16921 0.0
H155 H 0.61276 0.4968 0.15026 0.0
H156 H 0.58458 0.53233 0.20959 0.0
O157 O 0.63744 0.4986 0.20368 0.0
O158 O 0.62044 0.50972 0.24136 0.0
O159 O 0.63374 0.56168 0.22142 0.0
C160 C 0.62401 0.49206 0.22856 0.0
H161 H 0.70573 0.56852 0.29145 0.0
H162 H 0.56601 0.48694 0.13095 0.0
H163 H 0.65118 0.58616 0.11715 0.0
H164 H 0.67949 0.53174 0.11059 0.0
Co165 Co 0.10289 0.63124 0.20847 0.0
C166 C 0.14357 0.68494 0.22767 0.0
C167 C 0.11367 0.66467 0.26067 0.0
C168 C 0.13215 0.68814 0.27264 0.0
N169 N 0.1207 0.66268 0.23241 0.0
N170 N 0.15092 0.70081 0.25187 0.0
H171 H 0.15529 0.68922 0.2077 0.0
H172 H 0.09652 0.64971 0.27209 0.0
C173 C 0.06221 0.64712 0.2208 0.0
O174 O 0.07859 0.67165 0.2143 0.0
N175 N 0.08491 0.5996 0.18544 0.0
C176 C 0.09534 0.59125 0.16424 0.0
C177 C 0.0758 0.56785 0.15303 0.0
C178 C 0.05931 0.58147 0.18677 0.0
N179 N 0.05325 0.56198 0.16713 0.0
C180 C 0.13385 0.66037 0.15836 0.0
C181 C 0.09252 0.65375 0.12275 0.0
C182 C 0.11718 0.66277 0.1094 0.0
C183 C 0.13819 0.66709 0.12804 0.0
C184 C 0.08905 0.64749 0.15339 0.0
N185 N 0.10949 0.65036 0.17079 0.0
H186 H 0.14983 0.66127 0.17117 0.0
H187 H 0.06935 0.63805 0.16217 0.0
H188 H 0.1157 0.60146 0.1574 0.0
H189 H 0.04546 0.58216 0.20218 0.0
O190 O 0.13368 0.62703 0.20998 0.0
O191 O 0.10143 0.61147 0.24331 0.0
O192 O 0.06851 0.62968 0.21637 0.0
C193 C 0.12349 0.61381 0.23445 0.0
H194 H 0.13191 0.69525 0.29496 0.0
H195 H 0.07791 0.55615 0.13577 0.0
H196 H 0.07556 0.64958 0.10926 0.0
H197 H 0.15766 0.67419 0.11893 0.0
Co198 Co 0.88399 0.52423 0.3268 0.0
C199 C 0.84719 0.54336 0.31255 0.0
C200 C 0.87803 0.55552 0.28022 0.0
C201 C 0.86051 0.56272 0.2701 0.0
N202 N 0.86995 0.54376 0.30711 0.0
N203 N 0.84102 0.55491 0.29038 0.0
H204 H 0.83433 0.53319 0.33101 0.0
H205 H 0.89493 0.55766 0.26814 0.0
C206 C 0.93163 0.5787 0.31854 0.0
O207 O 0.91786 0.59051 0.3209 0.0
N208 N 0.89772 0.5043 0.34551 0.0
C209 C 0.88531 0.48463 0.36523 0.0
C210 C 0.90124 0.47433 0.37136 0.0
C211 C 0.92086 0.50576 0.33984 0.0
N212 N 0.92355 0.48778 0.35546 0.0
C213 C 0.85503 0.5221 0.37949 0.0
C214 C 0.89788 0.55257 0.41548 0.0
C215 C 0.87303 0.5388 0.4289 0.0
C216 C 0.85137 0.52408 0.41017 0.0
C217 C 0.90069 0.55023 0.38458 0.0
N218 N 0.87944 0.53492 0.36688 0.0
H219 H 0.83827 0.50874 0.36633 0.0
H220 H 0.92031 0.55923 0.37568 0.0
H221 H 0.86589 0.47799 0.37415 0.0
H222 H 0.93512 0.51912 0.32395 0.0
O223 O 0.85054 0.49213 0.32197 0.0
O224 O 0.88305 0.50818 0.28898 0.0
O225 O 0.92099 0.55412 0.32237 0.0
C226 C 0.85988 0.48961 0.29648 0.0
H227 H 0.86164 0.57218 0.24897 0.0
H228 H 0.89689 0.45837 0.38645 0.0
H229 H 0.91532 0.56371 0.42896 0.0
H230 H 0.83174 0.51316 0.4193 0.0
Co231 Co 0.35228 0.88425 0.32378 0.0
C232 C 0.29817 0.84073 0.31433 0.0
C233 C 0.30676 0.87426 0.28774 0.0
C234 C 0.28225 0.85446 0.28011 0.0
N235 N 0.31672 0.86572 0.3092 0.0
N236 N 0.27694 0.83334 0.29662 0.0
H237 H 0.30077 0.82786 0.32934 0.0
H238 H 0.31701 0.8931 0.27713 0.0
C239 C 0.36722 0.94139 0.32315 0.0
O240 O 0.38034 0.94625 0.34845 0.0
N241 N 0.38837 0.9028 0.33762 0.0
C242 C 0.39894 0.89584 0.36011 0.0
C243 C 0.4256 0.91256 0.36056 0.0
C244 C 0.40896 0.92317 0.3241 0.0
N245 N 0.43178 0.9298 0.33807 0.0
C246 C 0.33833 0.86433 0.38378 0.0
C247 C 0.32595 0.90068 0.40502 0.0
C248 C 0.3275 0.88353 0.42542 0.0
C249 C 0.33269 0.86446 0.41425 0.0
C250 C 0.33117 0.89948 0.37457 0.0
N251 N 0.33929 0.8828 0.36465 0.0
H252 H 0.343 0.8499 0.3759 0.0
H253 H 0.32886 0.91225 0.35933 0.0
H254 H 0.38839 0.87934 0.37473 0.0
H255 H 0.40737 0.93276 0.30422 0.0
O256 O 0.35426 0.85237 0.32307 0.0
O257 O 0.36428 0.87993 0.28524 0.0
O258 O 0.35367 0.91805 0.31345 0.0
C259 C 0.36278 0.8588 0.29568 0.0
H260 H 0.26962 0.85532 0.26306 0.0
H261 H 0.43938 0.91224 0.3764 0.0
H262 H 0.32098 0.91506 0.41259 0.0
H263 H 0.33365 0.85053 0.42915 0.0
Co264 Co 0.46894 0.35761 0.32968 0.0
C265 C 0.46634 0.30902 0.30835 0.0
C266 C 0.44523 0.32088 0.27946 0.0
C267 C 0.44494 0.29952 0.2669 0.0
N268 N 0.45804 0.32643 0.30593 0.0
N269 N 0.45833 0.29211 0.28508 0.0
H270 H 0.47968 0.30989 0.32544 0.0
H271 H 0.43782 0.33235 0.26902 0.0
C272 C 0.41276 0.34271 0.31316 0.0
O273 O 0.40318 0.31853 0.32217 0.0
N274 N 0.48015 0.38888 0.35265 0.0
C275 C 0.49367 0.39529 0.37862 0.0
C276 C 0.49619 0.41838 0.38878 0.0
C277 C 0.47486 0.40806 0.3471 0.0
N278 N 0.48431 0.42628 0.36892 0.0
C279 C 0.46313 0.32533 0.38053 0.0
C280 C 0.42748 0.3344 0.41076 0.0
C281 C 0.43943 0.32247 0.42623 0.0
C282 C 0.45683 0.3172 0.41035 0.0
C283 C 0.43422 0.3421 0.3809 0.0
N284 N 0.4521 0.33783 0.36607 0.0
H285 H 0.47876 0.32369 0.37022 0.0
H286 H 0.42675 0.35361 0.37081 0.0
H287 H 0.50076 0.38374 0.38962 0.0
H288 H 0.46373 0.4083 0.32793 0.0
O289 O 0.50389 0.36225 0.33457 0.0
O290 O 0.49109 0.37783 0.29705 0.0
O291 O 0.43711 0.35926 0.31627 0.0
C292 C 0.50983 0.37597 0.31002 0.0
H293 H 0.4361 0.29065 0.24564 0.0
H294 H 0.50604 0.42858 0.40912 0.0
H295 H 0.41401 0.33899 0.42209 0.0
H296 H 0.46711 0.3087 0.42151 0.0
Co297 Co 0.10167 0.4581 0.32784 0.0
C298 C 0.14118 0.4427 0.31155 0.0
C299 C 0.10842 0.427 0.28148 0.0
C300 C 0.12667 0.4211 0.27047 0.0
N301 N 0.1173 0.44023 0.30749 0.0
N302 N 0.14729 0.43105 0.28939 0.0
H303 H 0.15471 0.45424 0.32897 0.0
H304 H 0.09043 0.42302 0.27043 0.0
C305 C 0.05658 0.40246 0.32095 0.0
O306 O 0.07076 0.39238 0.3303 0.0
N307 N 0.08617 0.47619 0.3472 0.0
C308 C 0.09791 0.4958 0.36722 0.0
C309 C 0.0813 0.50529 0.37332 0.0
C310 C 0.06264 0.47385 0.34146 0.0
N311 N 0.0592 0.49137 0.35717 0.0
C312 C 0.13131 0.46021 0.37978 0.0
C313 C 0.08913 0.4295 0.41641 0.0
C314 C 0.11423 0.44326 0.42932 0.0
C315 C 0.13552 0.45814 0.41025 0.0
C316 C 0.08577 0.43201 0.38564 0.0
N317 N 0.10673 0.4473 0.3676 0.0
H318 H 0.14779 0.47388 0.36656 0.0
H319 H 0.06602 0.42321 0.37707 0.0
H320 H 0.11744 0.5031 0.37616 0.0
H321 H 0.04873 0.46031 0.32534 0.0
O322 O 0.13419 0.49132 0.32404 0.0
O323 O 0.1021 0.47448 0.2905 0.0
O324 O 0.06564 0.42703 0.32182 0.0
C325 C 0.1247 0.49371 0.2986 0.0
H326 H 0.12517 0.41091 0.24974 0.0
H327 H 0.08514 0.52119 0.38834 0.0
H328 H 0.07197 0.41829 0.43026 0.0
H329 H 0.15529 0.46916 0.41903 0.0
Co330 Co 0.64187 0.10596 0.33087 0.0
C331 C 0.6959 0.1463 0.31258 0.0
C332 C 0.69362 0.1105 0.32625 0.0
C333 C 0.71918 0.12795 0.319 0.0
N334 N 0.67896 0.12193 0.32224 0.0
N335 N 0.7206 0.15042 0.31045 0.0
H336 H 0.69057 0.16098 0.308 0.0
H337 H 0.68646 0.09091 0.33433 0.0
C338 C 0.62307 0.04813 0.33445 0.0
O339 O 0.60752 0.04522 0.35709 0.0
N340 N 0.60458 0.08998 0.33929 0.0
C341 C 0.59291 0.09883 0.3583 0.0
C342 C 0.56611 0.08357 0.3554 0.0
C343 C 0.58465 0.07001 0.3244 0.0
N344 N 0.56104 0.06541 0.33426 0.0
C345 C 0.65202 0.12842 0.38949 0.0
C346 C 0.6567 0.09045 0.41997 0.0
C347 C 0.65635 0.11048 0.43649 0.0
C348 C 0.65515 0.1302 0.42051 0.0
C349 C 0.65398 0.08966 0.38861 0.0
N350 N 0.64989 0.10759 0.37387 0.0
H351 H 0.65056 0.14374 0.37831 0.0
H352 H 0.65516 0.07452 0.37664 0.0
H353 H 0.603 0.11546 0.37297 0.0
H354 H 0.58729 0.0589 0.30683 0.0
O355 O 0.6427 0.1389 0.32669 0.0
O356 O 0.63452 0.11089 0.28983 0.0
O357 O 0.63865 0.07076 0.324 0.0
C358 C 0.63564 0.13228 0.29897 0.0
H359 H 0.73548 0.12436 0.31998 0.0
H360 H 0.55145 0.08515 0.36847 0.0
H361 H 0.65835 0.0751 0.43111 0.0
H362 H 0.65619 0.14685 0.4319 0.0
Co363 Co 0.51437 0.63157 0.32658 0.0
C364 C 0.53421 0.68767 0.31401 0.0
C365 C 0.54787 0.67001 0.28221 0.0
C366 C 0.55621 0.6951 0.27315 0.0
N367 N 0.53452 0.66548 0.30816 0.0
N368 N 0.54749 0.70616 0.29311 0.0
H369 H 0.52299 0.68977 0.33175 0.0
H370 H 0.55046 0.65565 0.27002 0.0
C371 C 0.569 0.63821 0.31916 0.0
O372 O 0.581 0.6633 0.32505 0.0
N373 N 0.49411 0.59754 0.3438 0.0
C374 C 0.47795 0.59035 0.36769 0.0
C375 C 0.46833 0.56416 0.37272 0.0
C376 C 0.4937 0.57586 0.3342 0.0
N377 N 0.47826 0.55523 0.35154 0.0
C378 C 0.51417 0.65804 0.38058 0.0
C379 C 0.54321 0.64284 0.41504 0.0
C380 C 0.53099 0.65509 0.42933 0.0
C381 C 0.51693 0.66337 0.41138 0.0
C382 C 0.54015 0.63808 0.38409 0.0
N383 N 0.52567 0.64555 0.36711 0.0
H384 H 0.50112 0.66234 0.36809 0.0
H385 H 0.54776 0.62647 0.37456 0.0
H386 H 0.47384 0.60326 0.38079 0.0
H387 H 0.50519 0.5754 0.3155 0.0
O388 O 0.48221 0.63322 0.3232 0.0
O389 O 0.49791 0.61785 0.28851 0.0
O390 O 0.54405 0.62432 0.32062 0.0
C391 C 0.47934 0.62211 0.29711 0.0
H392 H 0.56712 0.70415 0.25292 0.0
H393 H 0.45536 0.55267 0.39072 0.0
H394 H 0.55363 0.63538 0.42788 0.0
H395 H 0.50712 0.67293 0.42119 0.0
Co396 Co 0.52317 0.88006 0.83406 0.0
C397 C 0.53742 0.83982 0.81561 0.0
C398 C 0.54819 0.87035 0.78345 0.0
C399 C 0.55427 0.85257 0.77178 0.0
N400 N 0.53789 0.8626 0.81108 0.0
N401 N 0.54743 0.83334 0.79197 0.0
H402 H 0.52896 0.82748 0.83486 0.0
H403 H 0.55058 0.88758 0.77223 0.0
C404 C 0.57955 0.9222 0.82264 0.0
O405 O 0.58853 0.90637 0.82862 0.0
N406 N 0.50845 0.89796 0.8555 0.0
C407 C 0.49407 0.89056 0.88083 0.0
C408 C 0.48599 0.9083 0.8869 0.0
C409 C 0.50866 0.91966 0.84626 0.0
N410 N 0.49512 0.92647 0.86502 0.0
C411 C 0.52384 0.85097 0.88466 0.0
C412 C 0.55608 0.89336 0.92017 0.0
C413 C 0.54194 0.86871 0.9336 0.0
C414 C 0.52671 0.84723 0.91499 0.0
C415 C 0.55306 0.89622 0.88943 0.0
N416 N 0.5366 0.87522 0.87211 0.0
H417 H 0.50934 0.83452 0.87206 0.0
H418 H 0.56195 0.91571 0.88051 0.0
H419 H 0.48934 0.87327 0.89362 0.0
H420 H 0.5184 0.93009 0.82604 0.0
O421 O 0.48874 0.84897 0.83406 0.0
O422 O 0.50381 0.8795 0.79895 0.0
O423 O 0.55523 0.91467 0.8258 0.0
C424 C 0.48444 0.85804 0.80945 0.0
H425 H 0.56283 0.85361 0.74997 0.0
H426 H 0.47375 0.90748 0.90547 0.0
H427 H 0.56769 0.91063 0.93362 0.0
H428 H 0.51557 0.82775 0.92415 0.0
Co429 Co 0.63036 0.51626 0.83523 0.0
C430 C 0.68448 0.53151 0.81445 0.0
C431 C 0.66038 0.53363 0.77979 0.0
C432 C 0.68424 0.53991 0.76758 0.0
N433 N 0.66061 0.52869 0.80925 0.0
N434 N 0.69938 0.53848 0.78935 0.0
H435 H 0.6906 0.52763 0.83566 0.0
H436 H 0.64384 0.53256 0.76794 0.0
C437 C 0.64033 0.56936 0.8131 0.0
O438 O 0.66581 0.57907 0.81111 0.0
N439 N 0.59983 0.50362 0.86029 0.0
C440 C 0.5952 0.49129 0.88685 0.0
C441 C 0.57131 0.4869 0.89748 0.0
C442 C 0.57885 0.50626 0.85489 0.0
N443 N 0.56114 0.4964 0.8773 0.0
C444 C 0.6633 0.52248 0.88557 0.0
C445 C 0.65865 0.56173 0.91324 0.0
C446 C 0.66931 0.54903 0.92965 0.0
C447 C 0.6724 0.52976 0.91499 0.0
C448 C 0.64979 0.55388 0.88388 0.0
N449 N 0.65172 0.53413 0.87042 0.0
H450 H 0.66387 0.50607 0.87584 0.0
H451 H 0.6395 0.56244 0.87322 0.0
H452 H 0.6083 0.48606 0.89781 0.0
H453 H 0.57691 0.51565 0.8351 0.0
O454 O 0.62829 0.4825 0.83892 0.0
O455 O 0.60896 0.49327 0.80362 0.0
O456 O 0.62552 0.54646 0.82346 0.0
C457 C 0.61309 0.47565 0.81544 0.0
H458 H 0.68988 0.54507 0.74441 0.0
H459 H 0.56216 0.47735 0.91832 0.0
H460 H 0.65597 0.57683 0.9235 0.0
H461 H 0.68006 0.51902 0.9268 0.0
Co462 Co 0.10536 0.63355 0.83206 0.0
C463 C 0.14706 0.68687 0.81334 0.0
C464 C 0.11857 0.66638 0.779 0.0
C465 C 0.13745 0.68985 0.76758 0.0
N466 N 0.12426 0.66466 0.80786 0.0
N467 N 0.15554 0.70276 0.7891 0.0
H468 H 0.15788 0.69086 0.83401 0.0
H469 H 0.10194 0.65133 0.7669 0.0
C470 C 0.06298 0.64634 0.81256 0.0
O471 O 0.07918 0.67159 0.81129 0.0
N472 N 0.08651 0.60225 0.85542 0.0
C473 C 0.09521 0.59494 0.87942 0.0
C474 C 0.07507 0.5715 0.88981 0.0
C475 C 0.06147 0.58337 0.85144 0.0
N476 N 0.05394 0.56458 0.87228 0.0
C477 C 0.13253 0.66348 0.88404 0.0
C478 C 0.08877 0.65855 0.91303 0.0
C479 C 0.11211 0.6678 0.92942 0.0
C480 C 0.13441 0.67105 0.91413 0.0
C481 C 0.08772 0.65126 0.88295 0.0
N482 N 0.10933 0.65334 0.86879 0.0
H483 H 0.1494 0.66403 0.87378 0.0
H484 H 0.06879 0.64181 0.87224 0.0
H485 H 0.11471 0.60597 0.88883 0.0
H486 H 0.04905 0.58306 0.83341 0.0
O487 O 0.1364 0.62989 0.83462 0.0
O488 O 0.1063 0.61318 0.79883 0.0
O489 O 0.07078 0.63078 0.8212 0.0
C490 C 0.12767 0.61571 0.81044 0.0
H491 H 0.13778 0.69661 0.74498 0.0
H492 H 0.0757 0.56064 0.90899 0.0
H493 H 0.07084 0.65509 0.92388 0.0
H494 H 0.15296 0.67828 0.92566 0.0
Co495 Co 0.4585 0.09939 0.83277 0.0
C496 C 0.44776 0.14088 0.81112 0.0
C497 C 0.43785 0.11066 0.77867 0.0
C498 C 0.43346 0.12935 0.76614 0.0
N499 N 0.44651 0.1177 0.80703 0.0
N500 N 0.43971 0.14835 0.78661 0.0
H501 H 0.45542 0.15274 0.83091 0.0
H502 H 0.4354 0.09331 0.76762 0.0
C503 C 0.40296 0.05839 0.81637 0.0
O504 O 0.39399 0.07406 0.82326 0.0
N505 N 0.47069 0.08113 0.85777 0.0
C506 C 0.48392 0.08984 0.88378 0.0
C507 C 0.48894 0.07115 0.89493 0.0
C508 C 0.46808 0.05747 0.85316 0.0
N509 N 0.47898 0.05085 0.87567 0.0
C510 C 0.45468 0.12825 0.88192 0.0
C511 C 0.41634 0.08639 0.91333 0.0
C512 C 0.4299 0.11071 0.92785 0.0
C513 C 0.44886 0.13187 0.91125 0.0
C514 C 0.42301 0.08353 0.8839 0.0
N515 N 0.44204 0.10434 0.86841 0.0
H516 H 0.47119 0.14442 0.87121 0.0
H517 H 0.41422 0.06411 0.87473 0.0
H518 H 0.48965 0.10855 0.89388 0.0
H519 H 0.45825 0.04532 0.83391 0.0
O520 O 0.49301 0.13025 0.83595 0.0
O521 O 0.48073 0.09998 0.80063 0.0
O522 O 0.42694 0.06515 0.8211 0.0
C523 C 0.49914 0.12146 0.81237 0.0
H524 H 0.42631 0.12899 0.74368 0.0
H525 H 0.49955 0.07261 0.91534 0.0
H526 H 0.40153 0.06935 0.925 0.0
H527 H 0.46071 0.15086 0.92142 0.0
Co528 Co 0.35527 0.46861 0.82523 0.0
C529 C 0.30234 0.45501 0.80204 0.0
C530 C 0.32144 0.43919 0.77558 0.0
C531 C 0.29916 0.43469 0.76083 0.0
N532 N 0.32326 0.45137 0.80182 0.0
N533 N 0.28724 0.44487 0.77726 0.0
H534 H 0.29937 0.46667 0.8185 0.0
H535 H 0.33631 0.43545 0.7666 0.0
C536 C 0.34827 0.41448 0.81425 0.0
O537 O 0.32273 0.40254 0.81804 0.0
N538 N 0.38775 0.48602 0.847 0.0
C539 C 0.39321 0.49906 0.87323 0.0
C540 C 0.41887 0.50698 0.88082 0.0
C541 C 0.40994 0.48659 0.83869 0.0
N542 N 0.42922 0.49913 0.85894 0.0
C543 C 0.32299 0.46367 0.87628 0.0
C544 C 0.33715 0.43359 0.91011 0.0
C545 C 0.32391 0.44479 0.92441 0.0
C546 C 0.31604 0.45929 0.90674 0.0
C547 C 0.34385 0.43855 0.8798 0.0
N548 N 0.33717 0.45377 0.86318 0.0
H549 H 0.31883 0.47685 0.864 0.0
H550 H 0.35646 0.43192 0.87073 0.0
H551 H 0.37944 0.50215 0.88614 0.0
H552 H 0.41165 0.47727 0.8186 0.0
O553 O 0.35468 0.50123 0.82465 0.0
O554 O 0.37295 0.4883 0.79015 0.0
O555 O 0.3623 0.43914 0.81745 0.0
C556 C 0.36803 0.50608 0.79981 0.0
H557 H 0.29287 0.42555 0.73906 0.0
H558 H 0.42905 0.51753 0.90086 0.0
H559 H 0.34351 0.42206 0.9226 0.0
H560 H 0.30615 0.46871 0.91675 0.0
Co561 Co 0.87933 0.35702 0.82892 0.0
C562 C 0.84084 0.30192 0.81433 0.0
C563 C 0.86876 0.32104 0.77908 0.0
C564 C 0.85083 0.29638 0.76961 0.0
N565 N 0.86283 0.32435 0.80732 0.0
N566 N 0.83306 0.28433 0.79166 0.0
H567 H 0.83 0.29911 0.83483 0.0
H568 H 0.88469 0.33585 0.76595 0.0
C569 C 0.92513 0.34887 0.8105 0.0
O570 O 0.91169 0.32337 0.81295 0.0
N571 N 0.89556 0.38977 0.85046 0.0
C572 C 0.8834 0.39943 0.8675 0.0
C573 C 0.902 0.42305 0.87927 0.0
C574 C 0.92133 0.40726 0.85277 0.0
N575 N 0.92574 0.42768 0.87009 0.0
C576 C 0.85496 0.33136 0.88414 0.0
C577 C 0.90001 0.33728 0.9107 0.0
C578 C 0.87802 0.33026 0.92884 0.0
C579 C 0.85491 0.32627 0.91491 0.0
C580 C 0.89933 0.34238 0.88026 0.0
N581 N 0.8772 0.34002 0.86727 0.0
H582 H 0.83758 0.33012 0.87443 0.0
H583 H 0.9175 0.35023 0.8682 0.0
H584 H 0.86249 0.38999 0.87132 0.0
H585 H 0.93672 0.40547 0.8419 0.0
O586 O 0.84616 0.3573 0.82877 0.0
O587 O 0.87673 0.37408 0.79362 0.0
O588 O 0.91519 0.36282 0.81846 0.0
C589 C 0.85433 0.36998 0.80353 0.0
H590 H 0.85077 0.28831 0.74783 0.0
H591 H 0.89844 0.43573 0.8936 0.0
H592 H 0.91823 0.34029 0.92029 0.0
H593 H 0.83747 0.32108 0.92799 0.0
Co594 Co 0.10432 0.46041 0.70629 0.0
C595 C 0.14702 0.45193 0.73035 0.0
C596 C 0.11296 0.43657 0.75842 0.0
C597 C 0.13195 0.43414 0.77328 0.0
N598 N 0.12204 0.44721 0.73121 0.0
N599 N 0.15347 0.44399 0.75583 0.0
H600 H 0.16078 0.46258 0.71266 0.0
H601 H 0.09429 0.43234 0.76776 0.0
C602 C 0.06101 0.40524 0.72153 0.0
O603 O 0.0758 0.39508 0.71506 0.0
N604 N 0.08631 0.47378 0.68273 0.0
C605 C 0.09605 0.4912 0.66013 0.0
C606 C 0.07683 0.49646 0.65074 0.0
C607 C 0.0615 0.46851 0.68665 0.0
N608 N 0.05522 0.48192 0.66736 0.0
C609 C 0.13121 0.45447 0.65558 0.0
C610 C 0.08621 0.42047 0.62452 0.0
C611 C 0.11017 0.43213 0.60913 0.0
C612 C 0.13299 0.44883 0.62535 0.0
C613 C 0.08525 0.42682 0.65452 0.0
N614 N 0.1075 0.44384 0.66979 0.0
H615 H 0.1487 0.46907 0.66671 0.0
H616 H 0.06614 0.41983 0.66428 0.0
H617 H 0.11579 0.49973 0.65142 0.0
H618 H 0.04846 0.45577 0.70385 0.0
O619 O 0.13604 0.49439 0.70355 0.0
O620 O 0.10597 0.48216 0.73927 0.0
O621 O 0.06949 0.42951 0.71753 0.0
C622 C 0.1276 0.50039 0.72762 0.0
H623 H 0.13027 0.42646 0.79569 0.0
H624 H 0.07851 0.50982 0.63319 0.0
H625 H 0.06795 0.40808 0.61289 0.0
H626 H 0.15196 0.45838 0.61444 0.0
Co627 Co 0.63443 0.10227 0.71191 0.0
C628 C 0.6882 0.14178 0.73065 0.0
C629 C 0.66717 0.11456 0.76572 0.0
C630 C 0.69107 0.13327 0.77685 0.0
N631 N 0.66555 0.11967 0.73661 0.0
N632 N 0.70427 0.15048 0.75478 0.0
H633 H 0.69227 0.15217 0.70973 0.0
H634 H 0.65168 0.09871 0.77825 0.0
C635 C 0.64272 0.05789 0.73432 0.0
O636 O 0.66845 0.0717 0.73443 0.0
N637 N 0.60329 0.0852 0.68737 0.0
C638 C 0.59617 0.0963 0.66567 0.0
C639 C 0.5726 0.07768 0.65367 0.0
C640 C 0.58429 0.05998 0.68793 0.0
N641 N 0.56545 0.05495 0.6676 0.0
C642 C 0.66439 0.12784 0.65995 0.0
C643 C 0.66 0.08391 0.63259 0.0
C644 C 0.66812 0.10646 0.61546 0.0
C645 C 0.67129 0.12889 0.62982 0.0
C646 C 0.65305 0.08358 0.66273 0.0
N647 N 0.65461 0.10521 0.67591 0.0
H648 H 0.66493 0.1448 0.66961 0.0
H649 H 0.64428 0.06518 0.67426 0.0
H650 H 0.60727 0.11655 0.65907 0.0
H651 H 0.5838 0.04561 0.70316 0.0
O652 O 0.63289 0.13435 0.70928 0.0
O653 O 0.61412 0.10426 0.74449 0.0
O654 O 0.62898 0.06716 0.7236 0.0
C655 C 0.61805 0.12601 0.73302 0.0
H656 H 0.69788 0.13431 0.79962 0.0
H657 H 0.56162 0.08051 0.63604 0.0
H658 H 0.65693 0.06605 0.62219 0.0
H659 H 0.67755 0.14674 0.61737 0.0
Co660 Co 0.52507 0.63372 0.71156 0.0
C661 C 0.54109 0.68901 0.72419 0.0
C662 C 0.56021 0.67475 0.75298 0.0
C663 C 0.56642 0.69922 0.76261 0.0
N664 N 0.54473 0.66846 0.7285 0.0
N665 N 0.55428 0.70811 0.74454 0.0
H666 H 0.52732 0.68921 0.7084 0.0
H667 H 0.56524 0.66177 0.76444 0.0
C668 C 0.57992 0.64118 0.71818 0.0
O669 O 0.59089 0.66404 0.70496 0.0
N670 N 0.50514 0.59897 0.69563 0.0
C671 C 0.48497 0.59029 0.67615 0.0
C672 C 0.47464 0.56389 0.6722 0.0
C673 C 0.50701 0.57797 0.70318 0.0
N674 N 0.48863 0.55635 0.68913 0.0
C675 C 0.52726 0.65973 0.65621 0.0
C676 C 0.55491 0.64145 0.62401 0.0
C677 C 0.54516 0.65554 0.60877 0.0
C678 C 0.5314 0.66496 0.62544 0.0
C679 C 0.55023 0.63657 0.65476 0.0
N680 N 0.53693 0.64604 0.67074 0.0
H681 H 0.51481 0.66535 0.66781 0.0
H682 H 0.55593 0.62372 0.66512 0.0
H683 H 0.47808 0.60228 0.66582 0.0
H684 H 0.52109 0.57832 0.71903 0.0
O685 O 0.4928 0.63531 0.71271 0.0
O686 O 0.50799 0.62147 0.74959 0.0
O687 O 0.555 0.62739 0.72036 0.0
C688 C 0.48949 0.62523 0.73944 0.0
H689 H 0.57805 0.70921 0.78215 0.0
H690 H 0.45841 0.55126 0.65774 0.0
H691 H 0.56482 0.63295 0.61199 0.0
H692 H 0.52321 0.67567 0.61468 0.0
Co693 Co 0.88551 0.52845 0.71069 0.0
C694 C 0.84337 0.54049 0.72432 0.0
C695 C 0.87652 0.56092 0.75336 0.0
C696 C 0.85706 0.56565 0.76286 0.0
N697 N 0.86817 0.54558 0.72877 0.0
N698 N 0.83616 0.55269 0.74464 0.0
H699 H 0.83005 0.52652 0.70827 0.0
H700 H 0.8949 0.56706 0.76477 0.0
C701 C 0.93037 0.58432 0.7184 0.0
O702 O 0.91725 0.59419 0.7054 0.0
N703 N 0.90252 0.51108 0.69313 0.0
C704 C 0.89156 0.49105 0.67354 0.0
C705 C 0.91023 0.4849 0.66489 0.0
C706 C 0.92769 0.51704 0.696 0.0
N707 N 0.93287 0.50137 0.67889 0.0
C708 C 0.86031 0.5296 0.65566 0.0
C709 C 0.90596 0.56065 0.62417 0.0
C710 C 0.88201 0.54963 0.60872 0.0
C711 C 0.85894 0.5341 0.62502 0.0
C712 C 0.90646 0.55555 0.65469 0.0
N713 N 0.88381 0.54059 0.67039 0.0
H714 H 0.84253 0.51589 0.66695 0.0
H715 H 0.92533 0.5623 0.66502 0.0
H716 H 0.87153 0.4819 0.66563 0.0
H717 H 0.94195 0.53245 0.71019 0.0
O718 O 0.85283 0.49496 0.71164 0.0
O719 O 0.88229 0.51112 0.74814 0.0
O720 O 0.92079 0.55969 0.72005 0.0
C721 C 0.86038 0.49202 0.73815 0.0
H722 H 0.85798 0.57702 0.78232 0.0
H723 H 0.90761 0.46997 0.64894 0.0
H724 H 0.92438 0.57193 0.61241 0.0
H725 H 0.83999 0.52482 0.61404 0.0
Co726 Co 0.35363 0.88391 0.70175 0.0
C727 C 0.30041 0.84285 0.72112 0.0
C728 C 0.32064 0.87171 0.75507 0.0
C729 C 0.29723 0.85267 0.76674 0.0
N730 N 0.32245 0.86584 0.72628 0.0
N731 N 0.28452 0.83438 0.74544 0.0
H732 H 0.2967 0.8318 0.7007 0.0
H733 H 0.33568 0.88844 0.76702 0.0
C734 C 0.34195 0.92709 0.72063 0.0
O735 O 0.3165 0.91133 0.7225 0.0
N736 N 0.38496 0.90175 0.67793 0.0
C737 C 0.39201 0.8923 0.65435 0.0
C738 C 0.41627 0.9114 0.64439 0.0
C739 C 0.40481 0.92621 0.68208 0.0
N740 N 0.42395 0.93264 0.66175 0.0
C741 C 0.32398 0.85575 0.65039 0.0
C742 C 0.32596 0.89753 0.62066 0.0
C743 C 0.31778 0.87424 0.60465 0.0
C744 C 0.31615 0.85298 0.6204 0.0
C745 C 0.33398 0.89961 0.65064 0.0
N746 N 0.33335 0.87896 0.66513 0.0
H747 H 0.32433 0.83956 0.66095 0.0
H748 H 0.34239 0.91847 0.66113 0.0
H749 H 0.38044 0.87287 0.64522 0.0
H750 H 0.40573 0.93882 0.70013 0.0
O751 O 0.3569 0.85284 0.70023 0.0
O752 O 0.37431 0.88357 0.7351 0.0
O753 O 0.35708 0.91883 0.71151 0.0
C754 C 0.3714 0.86197 0.72412 0.0
H755 H 0.29043 0.85226 0.78938 0.0
H756 H 0.42732 0.90996 0.6258 0.0
H757 H 0.32729 0.91449 0.60983 0.0
H758 H 0.31059 0.8347 0.60923 0.0
Co759 Co 0.46195 0.34988 0.70798 0.0
C760 C 0.44834 0.29503 0.72056 0.0
C761 C 0.43158 0.30981 0.75222 0.0
C762 C 0.4262 0.2856 0.76154 0.0
N763 N 0.44495 0.3156 0.72616 0.0
N764 N 0.43693 0.27634 0.74181 0.0
H765 H 0.46051 0.2945 0.70279 0.0
H766 H 0.42731 0.32291 0.76469 0.0
C767 C 0.40711 0.34027 0.72129 0.0
O768 O 0.39606 0.31696 0.70905 0.0
N769 N 0.47926 0.38423 0.69075 0.0
C770 C 0.49718 0.39273 0.66853 0.0
C771 C 0.50653 0.41893 0.66438 0.0
C772 C 0.47773 0.40513 0.69973 0.0
N773 N 0.49419 0.42653 0.68394 0.0
C774 C 0.45673 0.32391 0.65151 0.0
C775 C 0.42634 0.34149 0.62425 0.0
C776 C 0.43741 0.33005 0.60622 0.0
C777 C 0.45212 0.32043 0.62048 0.0
C778 C 0.43178 0.34497 0.65492 0.0
N779 N 0.44689 0.33633 0.6684 0.0
H780 H 0.47015 0.31861 0.66131 0.0
H781 H 0.42558 0.3567 0.66704 0.0
H782 H 0.5033 0.38079 0.65653 0.0
H783 H 0.4654 0.40491 0.71788 0.0
O784 O 0.49491 0.34982 0.70476 0.0
O785 O 0.48225 0.36379 0.74398 0.0
O786 O 0.432 0.35505 0.72082 0.0
C787 C 0.50044 0.36094 0.7311 0.0
H788 H 0.41594 0.27601 0.78191 0.0
H789 H 0.52107 0.4314 0.64814 0.0
H790 H 0.4147 0.34912 0.61451 0.0
H791 H 0.4616 0.31198 0.60756 0.0
H792 H 0.48084 0.01631 0.12531 0.0
H793 H 0.50616 0.04023 0.21653 0.0
H794 H 0.50565 -0.0005 0.22586 0.0
H795 H 0.49772 0.95706 0.2083 0.0
H796 H 0.47487 0.93416 0.11625 0.0
H797 H 0.47455 0.97452 0.10719 0.0
C798 C 0.48663 0.01285 0.1471 0.0
C799 C 0.49343 0.03137 0.17015 0.0
C800 C 0.48655 0.98947 0.15226 0.0
C801 C 0.50044 0.02623 0.19844 0.0
C802 C 0.50028 0.00296 0.20379 0.0
C803 C 0.49297 0.96094 0.18614 0.0
C804 C 0.48634 0.94246 0.16304 0.0
C805 C 0.49329 0.98442 0.18089 0.0
C806 C 0.47968 0.94774 0.13464 0.0
C807 C 0.4797 0.97097 0.12933 0.0
H808 H 0.53755 0.51075 0.21511 0.0
H809 H 0.54231 0.50905 0.11868 0.0
H810 H 0.50068 0.50843 0.11409 0.0
H811 H 0.46218 0.50666 0.13751 0.0
H812 H 0.45669 0.5074 0.23387 0.0
H813 H 0.49953 0.51039 0.23861 0.0
C814 C 0.52958 0.51054 0.19313 0.0
C815 C 0.54288 0.50981 0.16728 0.0
C816 C 0.50557 0.51002 0.19069 0.0
C817 C 0.53221 0.50919 0.13891 0.0
C818 C 0.50851 0.50901 0.13626 0.0
C819 C 0.4706 0.50793 0.1595 0.0
C820 C 0.45642 0.50687 0.18528 0.0
C821 C 0.49494 0.5092 0.16199 0.0
C822 C 0.46724 0.50799 0.21371 0.0
C823 C 0.4917 0.50973 0.21642 0.0
H824 H 0.04397 0.51338 0.15922 0.0
H825 H 0.00627 0.55944 0.16709 0.0
H826 H 0.96306 0.51999 0.16389 0.0
H827 H 0.93614 0.47198 0.16209 0.0
H828 H 0.97418 0.42606 0.1587 0.0
H829 H 0.01724 0.46571 0.15649 0.0
C830 C 0.02625 0.51468 0.15976 0.0
C831 C 0.02809 0.53906 0.1633 0.0
C832 C 0.00165 0.49195 0.15876 0.0
C833 C 0.00512 0.54071 0.16456 0.0
C834 C 0.98051 0.51823 0.16267 0.0
C835 C 0.95394 0.47087 0.16036 0.0
C836 C 0.95232 0.44645 0.16036 0.0
C837 C 0.97854 0.49371 0.1602 0.0
C838 C 0.97528 0.44487 0.15872 0.0
C839 C -0.00022 0.46744 0.15751 0.0
H840 H 0.00877 0.45382 0.35596 0.0
H841 H 0.05982 0.53711 0.35639 0.0
H842 H 0.0218 0.54348 0.35486 0.0
H843 H 0.97399 0.52517 0.35417 0.0
H844 H 0.92281 0.44192 0.35665 0.0
H845 H 0.96083 0.43548 0.35635 0.0
C846 C 0.01142 0.47329 0.35555 0.0
C847 C 0.03686 0.49498 0.3562 0.0
C848 C 0.98951 0.47673 0.35532 0.0
C849 C 0.0403 0.5202 0.35612 0.0
C850 C 0.01863 0.52381 0.35516 0.0
C851 C 0.97128 0.50566 0.35445 0.0
C852 C 0.94581 0.48402 0.3553 0.0
C853 C 0.99316 0.50221 0.35485 0.0
C854 C 0.94234 0.4588 0.35618 0.0
C855 C 0.96401 0.45515 0.3559 0.0
H856 H 0.44306 0.9784 0.32378 0.0
H857 H 0.47769 0.93041 0.33998 0.0
H858 H 0.52157 0.96865 0.33689 0.0
H859 H 0.54997 0.01601 0.33345 0.0
H860 H 0.51578 0.06485 0.32261 0.0
H861 H 0.47186 0.02614 0.31864 0.0
C862 C 0.4603 0.97635 0.32583 0.0
C863 C 0.4573 0.95172 0.33204 0.0
C864 C 0.48549 -0.00145 0.32475 0.0
C865 C 0.47966 0.94924 0.33528 0.0
C866 C 0.5047 0.97103 0.33336 0.0
C867 C 0.53291 0.01802 0.32955 0.0
C868 C 0.53591 0.04301 0.32805 0.0
C869 C 0.50785 -0.00419 0.32867 0.0
C870 C 0.51372 0.04565 0.32375 0.0
C871 C 0.48872 0.02358 0.32157 0.0
H872 H 0.48092 0.45348 0.32277 0.0
H873 H 0.48169 0.45026 0.41938 0.0
H874 H 0.47788 0.4894 0.42257 0.0
H875 H 0.47611 0.52545 0.39775 0.0
H876 H 0.47616 0.52905 0.30122 0.0
H877 H 0.47733 0.48842 0.29797 0.0
C878 C 0.47991 0.46114 0.3445 0.0
C879 C 0.48167 0.44907 0.37079 0.0
C880 C 0.47776 0.4836 0.34612 0.0
C881 C 0.48078 0.45947 0.39883 0.0
C882 C 0.47841 0.48171 0.40066 0.0
C883 C 0.47586 0.51701 0.37608 0.0
C884 C 0.476 0.53003 0.34977 0.0
C885 C 0.47708 0.49403 0.37445 0.0
C886 C 0.47621 0.51931 0.32173 0.0
C887 C 0.4769 0.49616 0.31989 0.0
H888 H 0.48216 0.0221 0.83081 0.0
H889 H 0.47894 0.02684 0.92709 0.0
H890 H 0.48308 0.98803 0.93236 0.0
H891 H 0.48884 0.95346 0.90961 0.0
H892 H 0.49225 0.94877 0.81333 0.0
H893 H 0.4868 0.98681 0.80798 0.0
C894 C 0.48204 0.01443 0.85289 0.0
C895 C 0.48031 0.02734 0.87851 0.0
C896 C 0.48461 0.99221 0.85575 0.0
C897 C 0.4806 0.01743 0.90704 0.0
C898 C 0.48284 -0.00482 0.91007 0.0
C899 C 0.48808 0.96059 0.88748 0.0
C900 C 0.49103 0.94836 0.86194 0.0
C901 C 0.48505 0.98253 0.88458 0.0
C902 C 0.49041 0.95807 0.83337 0.0
C903 C 0.48715 0.97973 0.83029 0.0
H904 H 0.45742 0.49802 0.90585 0.0
H905 H 0.45788 0.50483 0.80954 0.0
H906 H 0.49891 0.50415 0.80675 0.0
H907 H 0.53335 0.49976 0.83133 0.0
H908 H 0.53419 0.49412 0.9278 0.0
H909 H 0.49356 0.49567 0.93087 0.0
C910 C 0.46678 0.49979 0.88436 0.0
C911 C 0.45465 0.50137 0.85794 0.0
C912 C 0.49029 0.49917 0.88292 0.0
C913 C 0.46673 0.50327 0.83014 0.0
C914 C 0.49017 0.5029 0.82853 0.0
C915 C 0.52498 0.49926 0.85312 0.0
C916 C 0.53694 0.49688 0.87928 0.0
C917 C 0.50192 0.50053 0.85474 0.0
C918 C 0.52527 0.4956 0.90724 0.0
C919 C 0.50214 0.49672 0.90904 0.0
H920 H 0.93611 0.47702 0.86929 0.0
H921 H 0.9712 0.42907 0.88219 0.0
H922 H 0.01467 0.46801 0.88675 0.0
H923 H 0.04289 0.51575 0.88347 0.0
H924 H 0.00789 0.56328 0.8667 0.0
H925 H 0.96409 0.52464 0.86734 0.0
C926 C 0.95328 0.47525 0.87363 0.0
C927 C 0.95068 0.45045 0.87553 0.0
C928 C 0.97814 0.49762 0.87527 0.0
C929 C 0.97298 0.44813 0.88055 0.0
C930 C -0.00228 0.47032 0.88315 0.0
C931 C 0.02556 0.51751 0.88042 0.0
C932 C 0.02837 0.54208 0.875 0.0
C933 C 0.00059 0.49516 0.88002 0.0
C934 C 0.00599 0.54437 0.87061 0.0
C935 C 0.98104 0.52236 0.87106 0.0
H936 H 0.94018 0.46055 0.67342 0.0
H937 H 0.9808 0.54443 0.67719 0.0
H938 H 0.02298 0.54603 0.67148 0.0
H939 H 0.04826 0.52318 0.66684 0.0
H940 H 0.00756 0.43931 0.66671 0.0
H941 H 0.96525 0.43782 0.6691 0.0
C942 C 0.9583 0.47912 0.67272 0.0
C943 C 0.95756 0.50231 0.67562 0.0
C944 C 0.98232 0.4798 0.66995 0.0
C945 C 0.98107 0.52634 0.67524 0.0
C946 C 0.0051 0.52725 0.67182 0.0
C947 C 0.03002 0.5047 0.66689 0.0
C948 C 0.03068 0.48139 0.6663 0.0
C949 C 0.00595 0.50409 0.66928 0.0
C950 C 0.00719 0.45741 0.66706 0.0
C951 C 0.98314 0.45658 0.66849 0.0
H952 H 0.517 0.04758 0.6634 0.0
H953 H 0.56143 0.00788 0.66274 0.0
H954 H 0.52089 0.9657 0.6581 0.0
H955 H 0.47251 0.94015 0.65698 0.0
H956 H 0.42818 0.97981 0.66279 0.0
H957 H 0.46878 0.02213 0.66252 0.0
C958 C 0.51764 0.02963 0.66181 0.0
C959 C 0.54187 0.03055 0.66314 0.0
C960 C 0.4943 0.0056 0.66022 0.0
C961 C 0.54278 0.00735 0.66175 0.0
C962 C 0.5197 0.98336 0.6591 0.0
C963 C 0.47195 0.95816 0.65778 0.0
C964 C 0.44771 0.95719 0.65968 0.0
C965 C 0.49533 0.98224 0.65867 0.0
C966 C 0.44684 0.9804 0.66133 0.0
C967 C 0.46995 0.00447 0.66116 0.0
H968 H 0.45622 0.43832 0.69111 0.0
H969 H 0.53988 0.47188 0.68303 0.0
H970 H 0.54582 0.51583 0.68605 0.0
H971 H 0.52683 0.5445 0.68874 0.0
H972 H 0.44298 0.51103 0.69287 0.0
H973 H 0.43721 0.46706 0.69377 0.0
C974 C 0.4757 0.45534 0.69033 0.0
C975 C 0.49762 0.45213 0.68693 0.0
C976 C 0.4788 0.48038 0.69124 0.0
C977 C 0.5228 0.47412 0.68545 0.0
C978 C 0.52617 0.49913 0.68724 0.0
C979 C 0.50738 0.52751 0.69015 0.0
C980 C 0.48534 0.53074 0.69082 0.0
C981 C 0.50428 0.50248 0.68981 0.0
C982 C 0.46013 0.50876 0.69215 0.0
C983 C 0.45687 0.48375 0.69273 0.0
H984 H 0.45675 0.26825 0.23236 0.0
H985 H 0.47272 0.26869 0.32707 0.0
H986 H 0.48198 0.23352 0.31968 0.0
H987 H 0.48365 0.20145 0.28731 0.0
H988 H 0.46378 0.19735 0.19359 0.0
H989 H 0.45842 0.23557 0.19954 0.0
C990 C 0.46205 0.2606 0.25147 0.0
C991 C 0.46403 0.27134 0.28027 0.0
C992 C 0.46677 0.23978 0.24723 0.0
C993 C 0.4714 0.26128 0.30457 0.0
C994 C 0.47657 0.24097 0.30043 0.0
C995 C 0.47789 0.20867 0.26816 0.0
C996 C 0.47368 0.19623 0.24016 0.0
C997 C 0.47403 0.22993 0.27198 0.0
C998 C 0.4672 0.20656 0.21539 0.0
C999 C 0.46391 0.22827 0.21886 0.0
H1000 H 0.25552 0.43492 0.2944 0.0
H1001 H 0.24649 0.43309 0.19829 0.0
H1002 H 0.20436 0.43153 0.20426 0.0
H1003 H 0.17026 0.43081 0.237 0.0
H1004 H 0.17956 0.43217 0.33308 0.0
H1005 H 0.22149 0.43363 0.32692 0.0
C1006 C 0.24423 0.43381 0.27471 0.0
C1007 C 0.25408 0.4339 0.24591 0.0
C1008 C 0.22012 0.43289 0.27835 0.0
C1009 C 0.23943 0.43319 0.22068 0.0
C1010 C 0.2153 0.43218 0.2241 0.0
C1011 C 0.18131 0.43112 0.25658 0.0
C1012 C 0.17174 0.43133 0.28549 0.0
C1013 C 0.20545 0.43199 0.25285 0.0
C1014 C 0.18659 0.43226 0.31062 0.0
C1015 C 0.2105 0.43298 0.3071 0.0
H1016 H 0.83174 0.24746 0.28919 0.0
H1017 H 0.78778 0.26762 0.22836 0.0
H1018 H 0.74754 0.22713 0.24087 0.0
H1019 H 0.72469 0.18652 0.2706 0.0
H1020 H 0.76932 0.16752 0.33189 0.0
H1021 H 0.80942 0.20716 0.31799 0.0
C1022 C 0.81333 0.24306 0.27877 0.0
C1023 C 0.81273 0.26059 0.25806 0.0
C1024 C 0.79037 0.22 0.28629 0.0
C1025 C 0.78883 0.25434 0.2442 0.0
C1026 C 0.76578 0.2313 0.25153 0.0
C1027 C 0.74319 0.19121 0.28098 0.0
C1028 C 0.74403 0.1741 0.30222 0.0
C1029 C 0.76628 0.21411 0.27282 0.0
C1030 C 0.76819 0.18019 0.31523 0.0
C1031 C 0.79112 0.20291 0.30739 0.0
H1032 H 0.54376 0.80962 0.30312 0.0
H1033 H 0.55395 0.80888 0.20729 0.0
H1034 H 0.55632 0.76905 0.21169 0.0
H1035 H 0.55348 0.73354 0.24246 0.0
H1036 H 0.54479 0.73517 0.33845 0.0
H1037 H 0.54403 0.77584 0.33422 0.0
C1038 C 0.54697 0.8011 0.2832 0.0
C1039 C 0.54851 0.81224 0.25487 0.0
C1040 C 0.54843 0.77829 0.2859 0.0
C1041 C 0.55224 0.80052 0.22931 0.0
C1042 C 0.55373 0.77781 0.23182 0.0
C1043 C 0.55188 0.74295 0.26255 0.0
C1044 C 0.549 0.73114 0.29073 0.0
C1045 C 0.55155 0.76638 0.25997 0.0
C1046 C 0.54656 0.74355 0.31643 0.0
C1047 C 0.54626 0.76689 0.31405 0.0
H1048 H 0.73417 0.55365 0.29932 0.0
H1049 H 0.74216 0.55691 0.20294 0.0
H1050 H 0.78383 0.55757 0.20753 0.0
H1051 H 0.81762 0.55666 0.23892 0.0
H1052 H 0.81018 0.55504 0.33532 0.0
H1053 H 0.76864 0.55452 0.33064 0.0
C1054 C 0.74511 0.55489 0.27926 0.0
C1055 C 0.7349 0.55525 0.2508 0.0
C1056 C 0.76915 0.55552 0.28207 0.0
C1057 C 0.74928 0.55628 0.22511 0.0
C1058 C 0.77322 0.55682 0.22773 0.0
C1059 C 0.80716 0.55658 0.25895 0.0
C1060 C 0.81708 0.55583 0.28746 0.0
C1061 C 0.78331 0.5564 0.2561 0.0
C1062 C 0.80289 0.55526 0.3131 0.0
C1063 C 0.77917 0.55508 0.31045 0.0
H1064 H 0.25046 0.81188 0.2458 0.0
H1065 H 0.25324 0.797 0.33993 0.0
H1066 H 0.21405 0.75388 0.33437 0.0
H1067 H 0.17858 0.72098 0.30266 0.0
H1068 H 0.17624 0.73641 0.20855 0.0
H1069 H 0.2158 0.77896 0.21412 0.0
C1070 C 0.24235 0.79931 0.26516 0.0
C1071 C 0.25447 0.80769 0.29333 0.0
C1072 C 0.21998 0.77473 0.26174 0.0
C1073 C 0.24422 0.7909 0.31805 0.0
C1074 C 0.2218 0.76635 0.31487 0.0
C1075 C 0.18665 0.73376 0.28346 0.0
C1076 C 0.17445 0.72566 0.25526 0.0
C1077 C 0.20941 0.75816 0.28685 0.0
C1078 C 0.1854 0.74216 0.23041 0.0
C1079 C 0.20792 0.76651 0.23361 0.0
H1080 H 0.54477 0.80884 0.74003 0.0
H1081 H 0.55382 0.8053 0.8356 0.0
H1082 H 0.55692 0.76592 0.82932 0.0
H1083 H 0.55698 0.73255 0.79662 0.0
H1084 H 0.54822 0.7363 0.70103 0.0
H1085 H 0.54518 0.77572 0.70732 0.0
C1086 C 0.54771 0.79964 0.75946 0.0
C1087 C 0.54917 0.81008 0.78825 0.0
C1088 C 0.5495 0.77707 0.75566 0.0
C1089 C 0.55239 0.79754 0.81325 0.0
C1090 C 0.55431 0.77511 0.80965 0.0
C1091 C 0.55473 0.74216 0.77713 0.0
C1092 C 0.55296 0.73158 0.74836 0.0
C1093 C 0.55292 0.76473 0.78095 0.0
C1094 C 0.54944 0.74396 0.7234 0.0
C1095 C 0.5478 0.76653 0.72699 0.0
H1096 H 0.81425 0.55769 0.7957 0.0
H1097 H 0.80012 0.54149 0.701 0.0
H1098 H 0.75614 0.53532 0.70663 0.0
H1099 H 0.72164 0.53391 0.73845 0.0
H1100 H 0.73625 0.55185 0.8328 0.0
H1101 H 0.7802 0.55789 0.82725 0.0
C1102 C 0.80175 0.55317 0.77619 0.0
C1103 C 0.81055 0.55002 0.74795 0.0
C1104 C 0.77652 0.54981 0.77955 0.0
C1105 C 0.79377 0.54368 0.72305 0.0
C1106 C 0.76865 0.54027 0.72623 0.0
C1107 C 0.73447 0.53948 0.75778 0.0
C1108 C 0.72551 0.54239 0.78602 0.0
C1109 C 0.7598 0.5432 0.75438 0.0
C1110 C 0.7424 0.54911 0.81087 0.0
C1111 C 0.76763 0.55274 0.80769 0.0
H1112 H 0.26089 0.8098 0.79721 0.0
H1113 H 0.2525 0.80362 0.7008 0.0
H1114 H 0.21213 0.76201 0.70594 0.0
H1115 H 0.17954 0.7273 0.73749 0.0
H1116 H 0.1862 0.73473 0.83397 0.0
H1117 H 0.227 0.77601 0.82889 0.0
C1118 C 0.25019 0.79966 0.77724 0.0
C1119 C 0.26008 0.81005 0.74861 0.0
C1120 C 0.22666 0.77584 0.78032 0.0
C1121 C 0.24583 0.7961 0.72313 0.0
C1122 C 0.22256 0.77229 0.72603 0.0
C1123 C 0.18955 0.73794 0.75754 0.0
C1124 C 0.17953 0.72756 0.78612 0.0
C1125 C 0.21284 0.76196 0.7545 0.0
C1126 C 0.19341 0.74179 0.81165 0.0
C1127 C 0.21675 0.76559 0.80879 0.0
H1128 H 0.44353 0.17374 0.73476 0.0
H1129 H 0.43361 0.17653 0.83038 0.0
H1130 H 0.43254 0.21688 0.82484 0.0
H1131 H 0.43444 0.25124 0.79317 0.0
H1132 H 0.4427 0.24827 0.69732 0.0
H1133 H 0.44456 0.2081 0.70266 0.0
C1134 C 0.44087 0.18301 0.75435 0.0
C1135 C 0.43873 0.17206 0.78298 0.0
C1136 C 0.44007 0.2062 0.75099 0.0
C1137 C 0.43571 0.18465 0.80816 0.0
C1138 C 0.43494 0.20768 0.805 0.0
C1139 C 0.43627 0.24171 0.77333 0.0
C1140 C 0.43822 0.25274 0.74483 0.0
C1141 C 0.43709 0.2186 0.77655 0.0
C1142 C 0.44134 0.24035 0.71953 0.0
C1143 C 0.44226 0.2173 0.72257 0.0
H1144 H 0.19002 0.44464 0.71884 0.0
H1145 H 0.17342 0.45027 0.81192 0.0
H1146 H 0.21386 0.45164 0.82683 0.0
H1147 H 0.25304 0.44916 0.81373 0.0
H1148 H 0.2704 0.44484 0.72055 0.0
H1149 H 0.2308 0.44507 0.70553 0.0
C1150 C 0.19545 0.44651 0.74232 0.0
C1151 C 0.17848 0.44694 0.76417 0.0
C1152 C 0.21884 0.44732 0.75083 0.0
C1153 C 0.18575 0.44925 0.7946 0.0
C1154 C 0.209 0.45019 0.8032 0.0
C1155 C 0.24834 0.44859 0.79014 0.0
C1156 C 0.26456 0.4466 0.76844 0.0
C1157 C 0.22552 0.44887 0.78154 0.0
C1158 C 0.25802 0.44572 0.7379 0.0
C1159 C 0.23542 0.44606 0.72919 0.0
H1160 H 0.72802 0.17761 0.80531 0.0
H1161 H 0.73716 0.17751 0.70918 0.0
H1162 H 0.77784 0.21907 0.71225 0.0
H1163 H 0.80994 0.25584 0.74172 0.0
H1164 H 0.80259 0.2551 0.8382 0.0
H1165 H 0.76198 0.21334 0.8353 0.0
C1166 C 0.739 0.18639 0.78502 0.0
C1167 C 0.72919 0.17437 0.757 0.0
C1168 C 0.76265 0.21025 0.78694 0.0
C1169 C 0.74378 0.18642 0.731 0.0
C1170 C 0.7672 0.21018 0.73274 0.0
C1171 C 0.79987 0.24657 0.76229 0.0
C1172 C 0.80954 0.259 0.79015 0.0
C1173 C 0.7767 0.22236 0.76055 0.0
C1174 C 0.7956 0.24644 0.81635 0.0
C1175 C 0.77237 0.22239 0.81475 0.0
H1176 H 0.39017 0.01321 0.21071 0.0
H1177 H 0.44892 0.06936 0.27051 0.0
H1178 H 0.43151 0.03822 0.31165 0.0
H1179 H 0.40271 0.99335 0.32917 0.0
H1180 H 0.34317 0.9377 0.26955 0.0
H1181 H 0.3574 0.97033 0.23032 0.0
C1182 C 0.39884 0.01873 0.23288 0.0
C1183 C 0.42086 0.04346 0.23745 0.0
C1184 C 0.38866 0.00075 0.25658 0.0
C1185 C 0.43182 0.05047 0.26637 0.0
C1186 C 0.42198 0.03261 0.28994 0.0
C1187 C 0.39243 0.98851 0.30786 0.0
C1188 C 0.37217 0.96287 0.3023 0.0
C1189 C 0.40081 0.00745 0.28513 0.0
C1190 C 0.35906 0.95708 0.2745 0.0
C1191 C 0.36724 0.97577 0.25187 0.0
H1192 H 0.32997 0.36678 0.25105 0.0
H1193 H 0.40197 0.43227 0.21878 0.0
H1194 H 0.42739 0.41624 0.24464 0.0
H1195 H 0.4297 0.38514 0.27797 0.0
H1196 H 0.35874 0.31866 0.31038 0.0
H1197 H 0.33244 0.3335 0.28289 0.0
C1198 C 0.35119 0.37727 0.24933 0.0
C1199 C 0.364 0.40087 0.23318 0.0
C1200 C 0.36592 0.36794 0.26453 0.0
C1201 C 0.39155 0.41428 0.23132 0.0
C1202 C 0.40617 0.40513 0.24613 0.0
C1203 C 0.40846 0.37383 0.2792 0.0
C1204 C 0.39624 0.35097 0.29657 0.0
C1205 C 0.39361 0.38229 0.26319 0.0
C1206 C 0.36868 0.33641 0.29733 0.0
C1207 C 0.35364 0.34489 0.28158 0.0
H1208 H 0.03801 0.41805 0.27522 0.0
H1209 H 0.01975 0.35056 0.32879 0.0
H1210 H 0.97827 0.32514 0.30123 0.0
H1211 H 0.94612 0.32323 0.26344 0.0
H1212 H 0.9669 0.39103 0.20902 0.0
H1213 H 0.00858 0.41509 0.23515 0.0
C1214 C 0.02493 0.39777 0.28102 0.0
C1215 C 0.03166 0.38633 0.30445 0.0
C1216 C 0.00161 0.38332 0.26477 0.0
C1217 C 0.01486 0.35987 0.31105 0.0
C1218 C 0.99119 0.34536 0.29525 0.0
C1219 C 0.96001 0.34309 0.25693 0.0
C1220 C 0.95311 0.35544 0.23458 0.0
C1221 C 0.98423 0.35697 0.27219 0.0
C1222 C 0.97136 0.38121 0.2265 0.0
C1223 C -0.00472 0.39502 0.24144 0.0
H1224 H 0.61586 0.9665 0.2379 0.0
H1225 H 0.53784 0.92445 0.27519 0.0
H1226 H 0.54983 0.95721 0.31393 0.0
H1227 H 0.58056 -0.00025 0.33458 0.0
H1228 H 0.65714 0.04525 0.29483 0.0
H1229 H 0.64781 0.00952 0.26014 0.0
C1230 C 0.60163 0.96463 0.25462 0.0
C1231 C 0.576 0.94319 0.25355 0.0
C1232 C 0.60829 0.98433 0.27636 0.0
C1233 C 0.55765 0.94093 0.27528 0.0
C1234 C 0.56444 0.95968 0.29752 0.0
C1235 C 0.59539 0.00176 0.31866 0.0
C1236 C 0.61942 0.02514 0.31724 0.0
C1237 C 0.58946 0.98173 0.29793 0.0
C1238 C 0.63839 0.02741 0.29633 0.0
C1239 C 0.63302 0.00704 0.27636 0.0
H1240 H 0.61695 0.66119 0.291 0.0
H1241 H 0.55326 0.58675 0.32 0.0
H1242 H 0.57262 0.56439 0.29396 0.0
H1243 H 0.60589 0.56544 0.26085 0.0
H1244 H 0.67055 0.63901 0.23164 0.0
H1245 H 0.6526 0.66223 0.25986 0.0
C1246 C 0.60762 0.64012 0.29205 0.0
C1247 C 0.58355 0.62569 0.30728 0.0
C1248 C 0.61881 0.6272 0.27666 0.0
C1249 C 0.57162 0.59836 0.30824 0.0
C1250 C 0.58265 0.5855 0.29329 0.0
C1251 C 0.61611 0.58658 0.26049 0.0
C1252 C 0.63933 0.60046 0.24375 0.0
C1253 C 0.60589 0.59966 0.27694 0.0
C1254 C 0.65253 0.62785 0.24416 0.0
C1255 C 0.64228 0.64112 0.26033 0.0
H1256 H 0.95524 0.62239 0.28301 0.0
H1257 H 0.96911 0.5657 0.3275 0.0
H1258 H 0.01056 0.58206 0.30111 0.0
H1259 H 0.04119 0.60991 0.26288 0.0
H1260 H 0.02962 0.66809 0.21878 0.0
H1261 H 0.98896 0.65379 0.24751 0.0
C1262 C 0.96765 0.61406 0.28739 0.0
C1263 C 0.9589 0.59261 0.30697 0.0
C1264 C 0.99161 0.62351 0.27183 0.0
C1265 C 0.97515 0.58194 0.31227 0.0
C1266 C -0.00113 0.59125 0.29713 0.0
C1267 C 0.02975 0.61946 0.25942 0.0
C1268 C 0.03804 0.63963 0.23825 0.0
C1269 C 0.0069 0.61149 0.27629 0.0
C1270 C 0.02344 0.65231 0.23472 0.0
C1271 C 0.00026 0.64415 0.25118 0.0
H1272 H 0.56451 0.95573 0.80313 0.0
H1273 H 0.63266 0.94669 0.80969 0.0
H1274 H 0.65876 0.98801 0.78274 0.0
H1275 H 0.66154 0.02647 0.75602 0.0
H1276 H 0.59147 0.03261 0.7501 0.0
H1277 H 0.56695 0.99253 0.77756 0.0
C1278 C 0.58511 0.96269 0.79894 0.0
C1279 C 0.59655 0.94804 0.80856 0.0
C1280 C 0.59968 0.98591 0.78304 0.0
C1281 C 0.62332 0.95758 0.80266 0.0
C1282 C 0.63822 0.98116 0.78711 0.0
C1283 C 0.6409 0.01891 0.76063 0.0
C1284 C 0.62844 0.03254 0.75033 0.0
C1285 C 0.62651 -0.00456 0.7769 0.0
C1286 C 0.60165 0.02248 0.75684 0.0
C1287 C 0.5875 -0.00045 0.77294 0.0
H1288 H 0.65972 0.60906 0.7717 0.0
H1289 H 0.59193 0.56132 0.82663 0.0
H1290 H 0.56759 0.57912 0.80186 0.0
H1291 H 0.56448 0.60635 0.76328 0.0
H1292 H 0.63175 0.65569 0.70864 0.0
H1293 H 0.65738 0.63925 0.73465 0.0
C1294 C 0.63979 0.60291 0.77855 0.0
C1295 C 0.6276 0.58358 0.80079 0.0
C1296 C 0.62569 0.61328 0.76405 0.0
C1297 C 0.6017 0.57579 0.80931 0.0
C1298 C 0.58771 0.58599 0.79515 0.0
C1299 C 0.58474 0.61352 0.75689 0.0
C1300 C 0.59607 0.63194 0.73371 0.0
C1301 C 0.59931 0.60431 0.77213 0.0
C1302 C 0.62251 0.64138 0.72627 0.0
C1303 C 0.63716 0.63199 0.74117 0.0
H1304 H 0.04346 0.66447 0.7686 0.0
H1305 H 0.02109 0.6016 0.83157 0.0
H1306 H 0.97815 0.57723 0.80811 0.0
H1307 H 0.94817 0.57212 0.76767 0.0
H1308 H 0.96842 0.63467 0.70501 0.0
H1309 H 0.01086 0.66095 0.7304 0.0
C1310 C 0.02895 0.64569 0.77751 0.0
C1311 C 0.03565 0.63464 0.80149 0.0
C1312 C 0.00407 0.6316 0.76372 0.0
C1313 C 0.01666 0.61026 0.81275 0.0
C1314 C 0.99205 0.59631 0.79937 0.0
C1315 C 0.96185 0.59153 0.75952 0.0
C1316 C 0.95542 0.60128 0.73418 0.0
C1317 C 0.98583 0.60646 0.77438 0.0
C1318 C 0.97305 0.62669 0.72437 0.0
C1319 C -0.00271 0.64167 0.73889 0.0
H1320 H 0.41812 0.03941 0.77071 0.0
H1321 H 0.35062 0.02281 0.82429 0.0
H1322 H 0.3246 0.98109 0.79778 0.0
H1323 H 0.32229 0.94808 0.76124 0.0
H1324 H 0.38982 0.96747 0.70595 0.0
H1325 H 0.41443 0.00938 0.73094 0.0
C1326 C 0.39767 0.02665 0.77657 0.0
C1327 C 0.38639 0.03385 0.79976 0.0
C1328 C 0.38285 0.0032 0.76085 0.0
C1329 C 0.35975 0.01752 0.80664 0.0
C1330 C 0.34491 0.99371 0.79148 0.0
C1331 C 0.34221 0.96169 0.7543 0.0
C1332 C 0.35438 0.95425 0.7322 0.0
C1333 C 0.35636 0.98616 0.76873 0.0
C1334 C 0.38019 0.97225 0.72344 0.0
C1335 C 0.39431 -0.00366 0.73767 0.0
H1336 H 0.32717 0.36963 0.78057 0.0
H1337 H 0.39926 0.42844 0.82133 0.0
H1338 H 0.42345 0.41047 0.79633 0.0
H1339 H 0.4249 0.38007 0.76085 0.0
H1340 H 0.35365 0.32062 0.71945 0.0
H1341 H 0.32839 0.3368 0.74671 0.0
C1342 C 0.34807 0.37814 0.78438 0.0
C1343 C 0.36139 0.40044 0.80269 0.0
C1344 C 0.36209 0.36786 0.7695 0.0
C1345 C 0.38854 0.41142 0.80719 0.0
C1346 C 0.40244 0.4012 0.79284 0.0
C1347 C 0.40383 0.37059 0.75765 0.0
C1348 C 0.39125 0.34936 0.7378 0.0
C1349 C 0.38954 0.37983 0.77348 0.0
C1350 C 0.36386 0.3371 0.73445 0.0
C1351 C 0.34942 0.34634 0.75007 0.0
H1352 H 0.03116 0.42346 0.74511 0.0
H1353 H 0.03326 0.35223 0.73318 0.0
H1354 H 0.99161 0.32815 0.76061 0.0
H1355 H 0.95437 0.32777 0.78807 0.0
H1356 H 0.95455 0.4005 0.79822 0.0
H1357 H -0.00437 0.42337 0.77177 0.0
C1358 C 0.02258 0.40261 0.74817 0.0
C1359 C 0.03531 0.3897 0.7368 0.0
C1360 C -0.00095 0.38912 0.76407 0.0
C1361 C 0.02384 0.36269 0.74153 0.0
C1362 C 6e-05 0.34894 0.75731 0.0
C1363 C 0.96354 0.34864 0.7847 0.0
C1364 C 0.95129 0.36228 0.79574 0.0
C1365 C 0.98747 0.362 0.76879 0.0
C1366 C 0.96346 0.38934 0.79078 0.0
C1367 C 0.987 0.40256 0.77528 0.0
H1368 H 0.55185 0.15979 0.25811 0.0
H1369 H 0.55658 0.12281 0.17704 0.0
H1370 H 0.59586 0.12315 0.19589 0.0
H1371 H 0.62308 0.12631 0.23955 0.0
H1372 H 0.6186 0.16423 0.32025 0.0
H1373 H 0.58563 0.172 0.29717 0.0
C1374 C 0.56222 0.15286 0.24416 0.0
C1375 C 0.55167 0.14142 0.21631 0.0
C1376 C 0.58462 0.153 0.25526 0.0
C1377 C 0.5648 0.13208 0.1984 0.0
C1378 C 0.58703 0.132 0.20933 0.0
C1379 C 0.61553 0.13705 0.25168 0.0
C1380 C 0.6229 0.14422 0.28174 0.0
C1381 C 0.59634 0.1413 0.23833 0.0
C1382 C 0.61317 0.15836 0.29712 0.0
C1383 C 0.5941 0.16263 0.28404 0.0
H1384 H 0.43122 0.59112 0.32004 0.0
H1385 H 0.47233 0.62322 0.23719 0.0
H1386 H 0.43432 0.59111 0.20861 0.0
H1387 H 0.39411 0.54825 0.20802 0.0
H1388 H 0.35661 0.51244 0.29138 0.0
H1389 H 0.38774 0.55159 0.31896 0.0
C1390 C 0.43129 0.59177 0.29572 0.0
C1391 C 0.4543 0.60957 0.28063 0.0
C1392 C 0.41001 0.57213 0.27957 0.0
C1393 C 0.45464 0.60979 0.24915 0.0
C1394 C 0.43301 0.59126 0.23286 0.0
C1395 C 0.39207 0.54962 0.23205 0.0
C1396 C 0.37299 0.52779 0.24772 0.0
C1397 C 0.41117 0.57149 0.24787 0.0
C1398 C 0.37099 0.52925 0.27894 0.0
C1399 C 0.38899 0.55151 0.29471 0.0
H1400 H 0.84256 0.44173 0.31893 0.0
H1401 H 0.85325 0.48337 0.23629 0.0
H1402 H 0.8473 0.44552 0.20757 0.0
H1403 H 0.84862 0.40466 0.20694 0.0
H1404 H 0.84555 0.36666 0.29027 0.0
H1405 H 0.83847 0.3984 0.31784 0.0
C1406 C 0.84243 0.44199 0.29459 0.0
C1407 C 0.84799 0.465 0.2796 0.0
C1408 C 0.84082 0.42084 0.27845 0.0
C1409 C 0.84869 0.46563 0.24814 0.0
C1410 C 0.84555 0.44411 0.23178 0.0
C1411 C 0.84529 0.40283 0.23098 0.0
C1412 C 0.84719 0.38333 0.24667 0.0
C1413 C 0.84297 0.42214 0.24677 0.0
C1414 C 0.8438 0.38144 0.27788 0.0
C1415 C 0.83999 0.3997 0.29361 0.0
H1416 H 0.38959 0.83633 0.31766 0.0
H1417 H 0.36303 0.85352 0.23533 0.0
H1418 H 0.39269 0.84416 0.20651 0.0
H1419 H 0.43295 0.84146 0.20614 0.0
H1420 H 0.4636 0.83078 0.28915 0.0
H1421 H 0.42537 0.82626 0.31622 0.0
C1422 C 0.3896 0.83698 0.29334 0.0
C1423 C 0.37434 0.8457 0.27857 0.0
C1424 C 0.40775 0.83294 0.27707 0.0
C1425 C 0.37477 0.84694 0.24711 0.0
C1426 C 0.39181 0.84172 0.23065 0.0
C1427 C 0.43045 0.83675 0.22987 0.0
C1428 C 0.45068 0.83605 0.24568 0.0
C1429 C 0.4094 0.83612 0.24551 0.0
C1430 C 0.44791 0.83091 0.27658 0.0
C1431 C 0.42627 0.82875 0.29209 0.0
H1432 H 0.61741 0.47446 0.28561 0.0
H1433 H 0.59494 0.44939 0.19427 0.0
H1434 H 0.55836 0.40797 0.21179 0.0
H1435 H 0.5282 0.38317 0.25317 0.0
H1436 H 0.55178 0.40721 0.34453 0.0
H1437 H 0.59283 0.44454 0.32713 0.0
C1438 C 0.60508 0.45945 0.26963 0.0
C1439 C 0.60864 0.46487 0.23877 0.0
C1440 C 0.58412 0.43572 0.27991 0.0
C1441 C 0.59265 0.44546 0.21814 0.0
C1442 C 0.57154 0.42192 0.22817 0.0
C1443 C 0.54282 0.39609 0.26919 0.0
C1444 C 0.53707 0.3927 0.3 0.0
C1445 C 0.56639 0.41741 0.25899 0.0
C1446 C 0.55599 0.40942 0.32071 0.0
C1447 C 0.57931 0.4309 0.31075 0.0
H1448 H 0.13555 0.57943 0.21012 0.0
H1449 H 0.1332 0.61461 0.29378 0.0
H1450 H 0.13998 0.58283 0.32155 0.0
H1451 H 0.13814 0.54049 0.32214 0.0
H1452 H 0.13305 0.50146 0.23877 0.0
H1453 H 0.13825 0.53924 0.21063 0.0
C1454 C 0.13753 0.58061 0.23435 0.0
C1455 C 0.13426 0.59937 0.25001 0.0
C1456 C 0.13981 0.5613 0.25016 0.0
C1457 C 0.13595 0.60038 0.28141 0.0
C1458 C 0.13964 0.58213 0.29725 0.0
C1459 C 0.13928 0.54081 0.29783 0.0
C1460 C 0.13566 0.51857 0.28242 0.0
C1461 C 0.14046 0.56184 0.28192 0.0
C1462 C 0.13618 0.51863 0.25095 0.0
C1463 C 0.13888 0.5401 0.23492 0.0
H1464 H 0.46862 0.85035 0.75142 0.0
H1465 H 0.44131 0.84643 0.84196 0.0
H1466 H 0.40114 0.84416 0.82331 0.0
H1467 H 0.37775 0.85097 0.78137 0.0
H1468 H 0.40337 0.8517 0.6907 0.0
H1469 H 0.44002 0.84705 0.70904 0.0
C1470 C 0.45338 0.84803 0.76691 0.0
C1471 C 0.45779 0.84862 0.79792 0.0
C1472 C 0.43024 0.84649 0.75599 0.0
C1473 C 0.4381 0.84571 0.81796 0.0
C1474 C 0.41529 0.84472 0.80732 0.0
C1475 C 0.39089 0.84919 0.76571 0.0
C1476 C 0.38811 0.85176 0.73485 0.0
C1477 C 0.41168 0.84619 0.77643 0.0
C1478 C 0.40512 0.84951 0.71457 0.0
C1479 C 0.4262 0.84712 0.72506 0.0
H1480 H 0.5166 0.36743 0.78898 0.0
H1481 H 0.5445 0.38964 0.69846 0.0
H1482 H 0.5852 0.42652 0.71721 0.0
H1483 H 0.60824 0.45712 0.75894 0.0
H1484 H 0.58153 0.43393 0.84957 0.0
H1485 H 0.54519 0.3925 0.83141 0.0
C1486 C 0.5321 0.37974 0.77349 0.0
C1487 C 0.52755 0.37602 0.74243 0.0
C1488 C 0.55544 0.40095 0.78447 0.0
C1489 C 0.54766 0.39203 0.72248 0.0
C1490 C 0.57081 0.41334 0.73319 0.0
C1491 C 0.59501 0.44249 0.77469 0.0
C1492 C 0.59734 0.44841 0.80545 0.0
C1493 C 0.57428 0.41871 0.76405 0.0
C1494 C 0.58016 0.42955 0.8258 0.0
C1495 C 0.55924 0.40601 0.81539 0.0
H1496 H 0.1382 0.51819 0.78477 0.0
H1497 H 0.13902 0.54248 0.69359 0.0
H1498 H 0.14254 0.58325 0.71132 0.0
H1499 H 0.13729 0.6079 0.75303 0.0
H1500 H 0.13938 0.58504 0.84419 0.0
H1501 H 0.14336 0.54805 0.8264 0.0
C1502 C 0.14017 0.53291 0.76886 0.0
C1503 C 0.13828 0.52745 0.73799 0.0
C1504 C 0.14237 0.55636 0.77926 0.0
C1505 C 0.14072 0.54647 0.71746 0.0
C1506 C 0.14242 0.56963 0.72761 0.0
C1507 C 0.13957 0.5953 0.7689 0.0
C1508 C 0.13794 0.59898 0.7998 0.0
C1509 C 0.1421 0.57424 0.75847 0.0
C1510 C 0.14085 0.58264 0.82029 0.0
C1511 C 0.14284 0.56135 0.81012 0.0
H1512 H 0.51789 0.13249 0.75555 0.0
H1513 H 0.54098 0.13317 0.84737 0.0
H1514 H 0.58329 0.13917 0.83082 0.0
H1515 H 0.60975 0.13594 0.78985 0.0
H1516 H 0.58809 0.13808 0.69809 0.0
H1517 H 0.54948 0.13999 0.7148 0.0
C1518 C 0.53261 0.13484 0.77185 0.0
C1519 C 0.52646 0.13222 0.80254 0.0
C1520 C 0.557 0.13862 0.76215 0.0
C1521 C 0.5455 0.13531 0.82363 0.0
C1522 C 0.56957 0.13852 0.81416 0.0
C1523 C 0.59713 0.13793 0.77363 0.0
C1524 C 0.60153 0.13675 0.74287 0.0
C1525 C 0.57504 0.13908 0.78345 0.0
C1526 C 0.58513 0.13921 0.7219 0.0
C1527 C 0.56287 0.13995 0.73146 0.0
H1528 H 0.40121 0.55197 0.82575 0.0
H1529 H 0.36586 0.51666 0.74125 0.0
H1530 H 0.39827 0.55559 0.7145 0.0
H1531 H 0.44192 0.5948 0.71483 0.0
H1532 H 0.48088 0.62636 0.79902 0.0
H1533 H 0.44187 0.59454 0.82633 0.0
C1534 C 0.39999 0.55342 0.8016 0.0
C1535 C 0.38111 0.53182 0.78539 0.0
C1536 C 0.41975 0.57516 0.78633 0.0
C1537 C 0.38011 0.53332 0.75407 0.0
C1538 C 0.3988 0.55545 0.7388 0.0
C1539 C 0.44134 0.59538 0.73914 0.0
C1540 C 0.46402 0.61292 0.75499 0.0
C1541 C 0.41951 0.57588 0.75459 0.0
C1542 C 0.46347 0.6131 0.78646 0.0
C1543 C 0.44128 0.59473 0.80204 0.0
H1544 H 0.84231 0.44362 0.71536 0.0
H1545 H 0.85212 0.48529 0.79798 0.0
H1546 H 0.84391 0.44687 0.82684 0.0
H1547 H 0.84352 0.40518 0.82807 0.0
H1548 H 0.84033 0.36632 0.74522 0.0
H1549 H 0.83558 0.39911 0.71698 0.0
C1550 C 0.84154 0.44383 0.73966 0.0
C1551 C 0.84763 0.4671 0.7546 0.0
C1552 C 0.8383 0.4221 0.75606 0.0
C1553 C 0.84734 0.46748 0.78609 0.0
C1554 C 0.84284 0.44557 0.80257 0.0
C1555 C 0.84056 0.40332 0.80399 0.0
C1556 C 0.8419 0.38327 0.78871 0.0
C1557 C 0.83962 0.42323 0.7878 0.0
C1558 C 0.83894 0.38144 0.7574 0.0
C1559 C 0.83657 0.40037 0.74124 0.0
H1560 H 0.44026 0.14701 0.06316 0.0
H1561 H 0.42182 0.06772 0.07783 0.0
H1562 H 0.41474 0.05878 0.0241 0.0
H1563 H 0.41883 0.07493 0.9727 0.0
H1564 H 0.43427 0.15344 0.95785 0.0
H1565 H 0.43762 0.16119 1.01176 0.0
C1566 C 0.43423 0.12768 0.05456 0.0
C1567 C 0.43165 0.10808 0.0744 0.0
C1568 C 0.43005 0.12261 0.02356 0.0
C1569 C 0.42372 0.08307 0.06304 0.0
C1570 C 0.41986 0.078 0.03227 0.0
C1571 C 0.42216 0.09354 0.98104 0.0
C1572 C 0.42688 0.11371 0.96079 0.0
C1573 C 0.42361 0.09781 1.01223 0.0
C1574 C 0.43138 0.13771 0.97259 0.0
C1575 C 0.43316 0.14218 1.00354 0.0
H1576 H 0.29598 0.43932 0.06336 0.0
H1577 H 0.37357 0.449 0.0703 0.0
H1578 H 0.37703 0.44934 1.01602 0.0
H1579 H 0.35903 0.44815 0.96644 0.0
H1580 H 0.2818 0.43885 0.95792 0.0
H1581 H 0.27756 0.43775 1.01267 0.0
C1582 C 0.31364 0.44152 0.05299 0.0
C1583 C 0.33428 0.44369 0.07122 0.0
C1584 C 0.31572 0.44198 0.02135 0.0
C1585 C 0.35702 0.44656 0.05715 0.0
C1586 C 0.35917 0.44701 0.02596 0.0
C1587 C 0.34102 0.44541 0.97641 0.0
C1588 C 0.32067 0.44332 0.95783 0.0
C1589 C 0.33869 0.44473 1.00784 0.0
C1590 C 0.29787 0.44062 0.9715 0.0
C1591 C 0.29539 0.43989 1.00287 0.0
H1592 H 0.90543 0.35056 0.06688 0.0
H1593 H 0.82933 0.28155 0.07532 0.0
H1594 H 0.82493 0.27849 0.02065 0.0
H1595 H 0.84256 0.29608 0.97007 0.0
H1596 H 0.91882 0.36525 0.96303 0.0
H1597 H 0.92343 0.3671 1.01727 0.0
C1598 C 0.88807 0.33449 0.05689 0.0
C1599 C 0.86783 0.31624 0.07542 0.0
C1600 C 0.88567 0.33283 0.02548 0.0
C1601 C 0.84519 0.29601 0.06177 0.0
C1602 C 0.84268 0.2942 0.03043 0.0
C1603 C 0.86018 0.31152 0.98043 0.0
C1604 C 0.88042 0.33029 0.96224 0.0
C1605 C 0.86272 0.31265 1.012 0.0
C1606 C 0.90313 0.35015 0.97621 0.0
C1607 C 0.90574 0.35139 1.00735 0.0
H1608 H 0.51175 0.84736 0.07072 0.0
H1609 H 0.5937 0.90426 0.08173 0.0
H1610 H 0.59952 0.90684 0.02719 0.0
H1611 H 0.58078 0.89372 0.97608 0.0
H1612 H 0.4983 0.83749 0.96653 0.0
H1613 H 0.49358 0.8334 0.02061 0.0
C1614 C 0.53106 0.85995 0.06132 0.0
C1615 C 0.55227 0.87547 0.08044 0.0
C1616 C 0.53422 0.86143 0.03004 0.0
C1617 C 0.57696 0.89219 0.06761 0.0
C1618 C 0.58031 0.89363 0.03639 0.0
C1619 C 0.5618 0.88054 0.98583 0.0
C1620 C 0.54006 0.8657 0.96695 0.0
C1621 C 0.55899 0.87854 1.01732 0.0
C1622 C 0.51562 0.84869 0.98019 0.0
C1623 C 0.51277 0.84649 1.01126 0.0
H1624 H 0.70024 0.55887 0.0675 0.0
H1625 H 0.62863 0.56195 0.07476 0.0
H1626 H 0.6247 0.56094 0.02055 0.0
H1627 H 0.63952 0.55617 0.97106 0.0
H1628 H 0.71018 0.5517 0.96257 0.0
H1629 H 0.71613 0.55568 1.01706 0.0
C1630 C 0.68381 0.55938 0.05724 0.0
C1631 C 0.66497 0.5608 0.07554 0.0
C1632 C 0.68127 0.55826 0.0257 0.0
C1633 C 0.64388 0.56156 0.06158 0.0
C1634 C 0.6414 0.56069 0.03042 0.0
C1635 C 0.65656 0.55662 0.98096 0.0
C1636 C 0.67441 0.55374 0.96256 0.0
C1637 C 0.65978 0.55876 1.01227 0.0
C1638 C 0.69599 0.5537 0.97611 0.0
C1639 C 0.69945 0.55604 1.00731 0.0
H1640 H 0.13722 0.65478 0.9714 0.0
H1641 H 0.087 0.68809 0.96268 0.0
H1642 H 0.08446 0.69008 1.01732 0.0
H1643 H 0.09551 0.68104 0.06792 0.0
H1644 H 0.14555 0.64735 0.07542 0.0
H1645 H 0.14964 0.64756 0.02118 0.0
C1646 C 0.12615 0.66302 0.98132 0.0
C1647 C 0.11239 0.67132 0.96271 0.0
C1648 C 0.12474 0.66409 1.01275 0.0
C1649 C 0.09763 0.68131 0.97629 0.0
C1650 C 0.09621 0.68253 1.00761 0.0
C1651 C 0.10735 0.67381 0.05768 0.0
C1652 C 0.12039 0.66446 0.07602 0.0
C1653 C 0.10945 0.67368 0.02612 0.0
C1654 C 0.13573 0.65524 0.06217 0.0
C1655 C 0.13793 0.65511 0.03101 0.0
H1656 H 0.89905 0.57801 0.47027 0.0
H1657 H 0.84059 0.49646 0.46313 0.0
H1658 H 0.83695 0.49316 0.51749 0.0
H1659 H 0.85211 0.51247 0.56735 0.0
H1660 H 0.91126 0.59362 0.57511 0.0
H1661 H 0.91316 0.5978 0.5205 0.0
C1662 C 0.88552 0.5595 0.48057 0.0
C1663 C 0.87003 0.53759 0.46232 0.0
C1664 C 0.88377 0.55755 0.51212 0.0
C1665 C 0.85242 0.51385 0.47631 0.0
C1666 C 0.85047 0.51184 0.50754 0.0
C1667 C 0.86509 0.53121 0.55717 0.0
C1668 C 0.88152 0.55268 0.57548 0.0
C1669 C 0.8662 0.53347 0.5257 0.0
C1670 C 0.89857 0.57668 0.56167 0.0
C1671 C 0.89963 0.57911 0.53039 0.0
H1672 H 0.29689 0.84624 0.46625 0.0
H1673 H 0.35445 0.92779 0.45832 0.0
H1674 H 0.35555 0.9326 0.51287 0.0
H1675 H 0.34286 0.91288 0.56275 0.0
H1676 H 0.28293 0.8319 0.57093 0.0
H1677 H 0.28032 0.82765 0.5165 0.0
C1678 C 0.30946 0.86509 0.47653 0.0
C1679 C 0.32565 0.88661 0.4583 0.0
C1680 C 0.3098 0.86778 0.50797 0.0
C1681 C 0.34168 0.91098 0.47186 0.0
C1682 C 0.34242 0.91371 0.50306 0.0
C1683 C 0.32868 0.89441 0.55285 0.0
C1684 C 0.31343 0.87267 0.57137 0.0
C1685 C 0.32687 0.89215 0.52138 0.0
C1686 C 0.2955 0.84888 0.55757 0.0
C1687 C 0.29385 0.84642 0.52631 0.0
H1688 H 0.43906 0.35562 0.46817 0.0
H1689 H 0.43357 0.28057 0.45903 0.0
H1690 H 0.43178 0.27577 0.51369 0.0
H1691 H 0.43288 0.29358 0.56439 0.0
H1692 H 0.44005 0.3696 0.57221 0.0
H1693 H 0.43938 0.37289 0.51802 0.0
C1694 C 0.43695 0.33795 0.47804 0.0
C1695 C 0.43625 0.31841 0.45938 0.0
C1696 C 0.43618 0.33544 0.50943 0.0
C1697 C 0.43424 0.29598 0.47278 0.0
C1698 C 0.43318 0.29321 0.50407 0.0
C1699 C 0.43431 0.31087 0.55426 0.0
C1700 C 0.43613 0.33111 0.57272 0.0
C1701 C 0.4344 0.31296 0.52269 0.0
C1702 C 0.43789 0.35332 0.55893 0.0
C1703 C 0.43778 0.3554 0.52777 0.0
H1704 H 0.09041 0.40368 0.47065 0.0
H1705 H 0.14622 0.48593 0.46333 0.0
H1706 H 0.15151 0.4892 0.51756 0.0
H1707 H 0.13843 0.46959 0.56752 0.0
H1708 H 0.08223 0.38759 0.57561 0.0
H1709 H 0.07886 0.38349 0.52099 0.0
C1710 C 0.10374 0.4223 0.48091 0.0
C1711 C 0.11799 0.44445 0.46264 0.0
C1712 C 0.10657 0.42419 0.51243 0.0
C1713 C 0.13533 0.46839 0.47653 0.0
C1714 C 0.13825 0.47037 0.50769 0.0
C1715 C 0.12585 0.45068 0.5574 0.0
C1716 C 0.11061 0.42895 0.57585 0.0
C1717 C 0.12383 0.44848 0.52591 0.0
C1718 C 0.09403 0.40473 0.5621 0.0
C1719 C 0.09209 0.40235 0.5308 0.0
H1720 H 0.68236 0.09531 0.47608 0.0
H1721 H 0.62906 0.12554 0.4728 0.0
H1722 H 0.62929 0.12808 0.52709 0.0
H1723 H 0.64396 0.12154 0.57573 0.0
H1724 H 0.69469 0.08871 0.58081 0.0
H1725 H 0.69576 0.08693 0.52576 0.0
C1726 C 0.67063 0.10225 0.48722 0.0
C1727 C 0.65615 0.11072 0.47003 0.0
C1728 C 0.67035 0.10319 0.51886 0.0
C1729 C 0.64109 0.11965 0.48512 0.0
C1730 C 0.64098 0.12091 0.51631 0.0
C1731 C 0.65551 0.11427 0.56477 0.0
C1732 C 0.66959 0.10569 0.58223 0.0
C1733 C 0.65562 0.1129 0.53337 0.0
C1734 C 0.68384 0.09559 0.56778 0.0
C1735 C 0.68443 0.09458 0.53635 0.0
H1736 H 0.50798 0.65086 0.56869 0.0
H1737 H 0.5878 0.66659 0.57365 0.0
H1738 H 0.5909 0.66878 0.51892 0.0
H1739 H 0.57051 0.66511 0.46941 0.0
H1740 H 0.49017 0.64813 0.46512 0.0
H1741 H 0.48811 0.64839 0.51959 0.0
C1742 C 0.52623 0.65521 0.55789 0.0
C1743 C 0.54762 0.65857 0.57543 0.0
C1744 C 0.52786 0.65633 0.52636 0.0
C1745 C 0.57091 0.66366 0.56081 0.0
C1746 C 0.57274 0.665 0.52946 0.0
C1747 C 0.55253 0.66143 0.48034 0.0
C1748 C 0.53062 0.65679 0.46285 0.0
C1749 C 0.55124 0.6611 0.51195 0.0
C1750 C 0.50759 0.65233 0.47768 0.0
C1751 C 0.50626 0.6522 0.50898 0.0
loop_
_geom_bond_atom_site_label_1
_geom_bond_atom_site_label_2
_geom_bond_distance
_geom_bond_site_symmetry_2
_ccdc_geom_bond_type
Co0 N4 2.148 . S
Co0 N10 2.128 . S
Co0 N20 2.194 . S
Co0 O25 2.351 . S
Co0 O26 2.155 . S
Co0 O27 2.096 . S
C1 N4 1.301 . S
C1 N5 1.328 . S
C1 H6 0.930 . S
C2 C3 1.333 . S
C2 N4 1.317 . S
C2 H7 0.930 . S
C3 C2 1.333 . S
C3 N5 1.350 . S
C3 H29 0.931 . S
N4 Co0 2.148 . S
N4 C1 1.301 . S
N4 C2 1.317 . S
N5 C1 1.328 . S
N5 C3 1.350 . S
H6 C1 0.930 . S
H7 C2 0.930 . S
C8 O9 1.224 . S
C8 O27 1.247 . S
O9 C8 1.224 . S
N10 Co0 2.128 . S
N10 C11 1.355 . S
N10 C13 1.311 . S
C11 N10 1.355 . S
C11 C12 1.363 . S
C11 H23 0.929 . S
C12 C11 1.363 . S
C12 N14 1.375 . S
C12 H30 0.931 . S
C13 N10 1.311 . S
C13 N14 1.347 . S
C13 H24 0.929 . S
N14 C12 1.375 . S
N14 C13 1.347 . S
C15 C18 1.365 . S
C15 N20 1.328 . S
C15 H21 0.929 . S
C16 C17 1.362 . S
C16 C19 1.378 . S
C16 H31 0.929 . S
C17 C16 1.362 . S
C17 C18 1.366 . S
C18 C15 1.365 . S
C18 C17 1.366 . S
C18 H32 0.930 . S
C19 C16 1.378 . S
C19 N20 1.315 . S
C19 H22 0.930 . S
N20 Co0 2.194 . S
N20 C15 1.328 . S
N20 C19 1.315 . S
H21 C15 0.929 . S
H22 C19 0.930 . S
H23 C11 0.929 . S
H24 C13 0.929 . S
O25 Co0 2.351 . S
O25 C28 1.244 . S
O26 Co0 2.155 . S
O26 C28 1.240 . S
O27 Co0 2.096 . S
O27 C8 1.247 . S
C28 O25 1.244 . S
C28 O26 1.240 . S
H29 C3 0.931 . S
H30 C12 0.931 . S
H31 C16 0.929 . S
H32 C18 0.930 . S
Co33 N37 2.148 . S
Co33 N43 2.128 . S
Co33 N53 2.194 . S
Co33 O58 2.351 . S
Co33 O59 2.155 . S
Co33 O60 2.096 . S
C34 N37 1.301 . S
C34 N38 1.328 . S
C34 H39 0.930 . S
C35 C36 1.333 . S
C35 N37 1.317 . S
C35 H40 0.930 . S
C36 C35 1.333 . S
C36 N38 1.350 . S
C36 H62 0.931 . S
N37 Co33 2.148 . S
N37 C34 1.301 . S
N37 C35 1.317 . S
N38 C34 1.328 . S
N38 C36 1.350 . S
H39 C34 0.930 . S
H40 C35 0.930 . S
C41 O42 1.224 . S
C41 O60 1.247 . S
O42 C41 1.224 . S
N43 Co33 2.128 . S
N43 C44 1.355 . S
N43 C46 1.311 . S
C44 N43 1.355 . S
C44 C45 1.363 . S
C44 H56 0.929 . S
C45 C44 1.363 . S
C45 N47 1.375 . S
C45 H63 0.931 . S
C46 N43 1.311 . S
C46 N47 1.347 . S
C46 H57 0.929 . S
N47 C45 1.375 . S
N47 C46 1.347 . S
C48 C51 1.365 . S
C48 N53 1.328 . S
C48 H54 0.929 . S
C49 C50 1.362 . S
C49 C52 1.378 . S
C49 H64 0.929 . S
C50 C49 1.362 . S
C50 C51 1.366 . S
C51 C48 1.365 . S
C51 C50 1.366 . S
C51 H65 0.930 . S
C52 C49 1.378 . S
C52 N53 1.315 . S
C52 H55 0.930 . S
N53 Co33 2.194 . S
N53 C48 1.328 . S
N53 C52 1.315 . S
H54 C48 0.929 . S
H55 C52 0.930 . S
H56 C44 0.929 . S
H57 C46 0.929 . S
O58 Co33 2.351 . S
O58 C61 1.244 . S
O59 Co33 2.155 . S
O59 C61 1.240 . S
O60 Co33 2.096 . S
O60 C41 1.247 . S
C61 O58 1.244 . S
C61 O59 1.240 . S
H62 C36 0.931 . S
H63 C45 0.931 . S
H64 C49 0.929 . S
H65 C51 0.930 . S
Co66 N70 2.148 . S
Co66 N76 2.128 . S
Co66 N86 2.194 . S
Co66 O91 2.351 . S
Co66 O92 2.155 . S
Co66 O93 2.096 . S
C67 N70 1.301 . S
C67 N71 1.328 . S
C67 H72 0.930 . S
C68 C69 1.333 . S
C68 N70 1.317 . S
C68 H73 0.930 . S
C69 C68 1.333 . S
C69 N71 1.350 . S
C69 H95 0.931 . S
N70 Co66 2.148 . S
N70 C67 1.301 . S
N70 C68 1.317 . S
N71 C67 1.328 . S
N71 C69 1.350 . S
H72 C67 0.930 . S
H73 C68 0.930 . S
C74 O75 1.224 . S
C74 O93 1.247 . S
O75 C74 1.224 . S
N76 Co66 2.128 . S
N76 C77 1.355 . S
N76 C79 1.311 . S
C77 N76 1.355 . S
C77 C78 1.363 . S
C77 H89 0.929 . S
C78 C77 1.363 . S
C78 N80 1.375 . S
C78 H96 0.931 . S
C79 N76 1.311 . S
C79 N80 1.347 . S
C79 H90 0.929 . S
N80 C78 1.375 . S
N80 C79 1.347 . S
C81 C84 1.365 . S
C81 N86 1.328 . S
C81 H87 0.929 . S
C82 C83 1.362 . S
C82 C85 1.378 . S
C82 H97 0.929 . S
C83 C82 1.362 . S
C83 C84 1.366 . S
C84 C81 1.365 . S
C84 C83 1.366 . S
C84 H98 0.930 . S
C85 C82 1.378 . S
C85 N86 1.315 . S
C85 H88 0.930 . S
N86 Co66 2.194 . S
N86 C81 1.328 . S
N86 C85 1.315 . S
H87 C81 0.929 . S
H88 C85 0.930 . S
H89 C77 0.929 . S
H90 C79 0.929 . S
O91 Co66 2.351 . S
O91 C94 1.244 . S
O92 Co66 2.155 . S
O92 C94 1.240 . S
O93 Co66 2.096 . S
O93 C74 1.247 . S
C94 O91 1.244 . S
C94 O92 1.240 . S
H95 C69 0.931 . S
H96 C78 0.931 . S
H97 C82 0.929 . S
H98 C84 0.930 . S
Co99 N103 2.148 . S
Co99 N109 2.128 . S
Co99 N119 2.194 . S
Co99 O124 2.351 . S
Co99 O125 2.155 . S
Co99 O126 2.096 . S
C100 N103 1.301 . S
C100 N104 1.328 . S
C100 H105 0.930 . S
C101 C102 1.333 . S
C101 N103 1.317 . S
C101 H106 0.930 . S
C102 C101 1.333 . S
C102 N104 1.350 . S
C102 H128 0.931 . S
N103 Co99 2.148 . S
N103 C100 1.301 . S
N103 C101 1.317 . S
N104 C100 1.328 . S
N104 C102 1.350 . S
H105 C100 0.930 . S
H106 C101 0.930 . S
C107 O108 1.224 . S
C107 O126 1.247 . S
O108 C107 1.224 . S
N109 Co99 2.128 . S
N109 C110 1.355 . S
N109 C112 1.311 . S
C110 N109 1.355 . S
C110 C111 1.363 . S
C110 H122 0.929 . S
C111 C110 1.363 . S
C111 N113 1.375 . S
C111 H129 0.931 . S
C112 N109 1.311 . S
C112 N113 1.347 . S
C112 H123 0.929 . S
N113 C111 1.375 . S
N113 C112 1.347 . S
C114 C117 1.365 . S
C114 N119 1.328 . S
C114 H120 0.929 . S
C115 C116 1.362 . S
C115 C118 1.378 . S
C115 H130 0.929 . S
C116 C115 1.362 . S
C116 C117 1.366 . S
C117 C114 1.365 . S
C117 C116 1.366 . S
C117 H131 0.930 . S
C118 C115 1.378 . S
C118 N119 1.315 . S
C118 H121 0.930 . S
N119 Co99 2.194 . S
N119 C114 1.328 . S
N119 C118 1.315 . S
H120 C114 0.929 . S
H121 C118 0.930 . S
H122 C110 0.929 . S
H123 C112 0.929 . S
O124 Co99 2.351 . S
O124 C127 1.244 . S
O125 Co99 2.155 . S
O125 C127 1.240 . S
O126 Co99 2.096 . S
O126 C107 1.247 . S
C127 O124 1.244 . S
C127 O125 1.240 . S
H128 C102 0.931 . S
H129 C111 0.931 . S
H130 C115 0.929 . S
H131 C117 0.930 . S
Co132 N136 2.148 . S
Co132 N142 2.128 . S
Co132 N152 2.194 . S
Co132 O157 2.351 . S
Co132 O158 2.155 . S
Co132 O159 2.096 . S
C133 N136 1.301 . S
C133 N137 1.328 . S
C133 H138 0.930 . S
C134 C135 1.333 . S
C134 N136 1.317 . S
C134 H139 0.930 . S
C135 C134 1.333 . S
C135 N137 1.350 . S
C135 H161 0.931 . S
N136 Co132 2.148 . S
N136 C133 1.301 . S
N136 C134 1.317 . S
N137 C133 1.328 . S
N137 C135 1.350 . S
H138 C133 0.930 . S
H139 C134 0.930 . S
C140 O141 1.224 . S
C140 O159 1.247 . S
O141 C140 1.224 . S
N142 Co132 2.128 . S
N142 C143 1.355 . S
N142 C145 1.311 . S
C143 N142 1.355 . S
C143 C144 1.363 . S
C143 H155 0.929 . S
C144 C143 1.363 . S
C144 N146 1.375 . S
C144 H162 0.931 . S
C145 N142 1.311 . S
C145 N146 1.347 . S
C145 H156 0.929 . S
N146 C144 1.375 . S
N146 C145 1.347 . S
C147 C150 1.365 . S
C147 N152 1.328 . S
C147 H153 0.929 . S
C148 C149 1.362 . S
C148 C151 1.378 . S
C148 H163 0.929 . S
C149 C148 1.362 . S
C149 C150 1.366 . S
C150 C147 1.365 . S
C150 C149 1.366 . S
C150 H164 0.930 . S
C151 C148 1.378 . S
C151 N152 1.315 . S
C151 H154 0.930 . S
N152 Co132 2.194 . S
N152 C147 1.328 . S
N152 C151 1.315 . S
H153 C147 0.929 . S
H154 C151 0.930 . S
H155 C143 0.929 . S
H156 C145 0.929 . S
O157 Co132 2.351 . S
O157 C160 1.244 . S
O158 Co132 2.155 . S
O158 C160 1.240 . S
O159 Co132 2.096 . S
O159 C140 1.247 . S
C160 O157 1.244 . S
C160 O158 1.240 . S
H161 C135 0.931 . S
H162 C144 0.931 . S
H163 C148 0.929 . S
H164 C150 0.930 . S
Co165 N169 2.148 . S
Co165 N175 2.128 . S
Co165 N185 2.194 . S
Co165 O190 2.351 . S
Co165 O191 2.155 . S
Co165 O192 2.096 . S
C166 N169 1.301 . S
C166 N170 1.328 . S
C166 H171 0.930 . S
C167 C168 1.333 . S
C167 N169 1.317 . S
C167 H172 0.930 . S
C168 C167 1.333 . S
C168 N170 1.350 . S
C168 H194 0.931 . S
N169 Co165 2.148 . S
N169 C166 1.301 . S
N169 C167 1.317 . S
N170 C166 1.328 . S
N170 C168 1.350 . S
H171 C166 0.930 . S
H172 C167 0.930 . S
C173 O174 1.224 . S
C173 O192 1.247 . S
O174 C173 1.224 . S
N175 Co165 2.128 . S
N175 C176 1.355 . S
N175 C178 1.311 . S
C176 N175 1.355 . S
C176 C177 1.363 . S
C176 H188 0.929 . S
C177 C176 1.363 . S
C177 N179 1.375 . S
C177 H195 0.931 . S
C178 N175 1.311 . S
C178 N179 1.347 . S
C178 H189 0.929 . S
N179 C177 1.375 . S
N179 C178 1.347 . S
C180 C183 1.365 . S
C180 N185 1.328 . S
C180 H186 0.929 . S
C181 C182 1.362 . S
C181 C184 1.378 . S
C181 H196 0.929 . S
C182 C181 1.362 . S
C182 C183 1.366 . S
C183 C180 1.365 . S
C183 C182 1.366 . S
C183 H197 0.930 . S
C184 C181 1.378 . S
C184 N185 1.315 . S
C184 H187 0.930 . S
N185 Co165 2.194 . S
N185 C180 1.328 . S
N185 C184 1.315 . S
H186 C180 0.929 . S
H187 C184 0.930 . S
H188 C176 0.929 . S
H189 C178 0.929 . S
O190 Co165 2.351 . S
O190 C193 1.244 . S
O191 Co165 2.155 . S
O191 C193 1.240 . S
O192 Co165 2.096 . S
O192 C173 1.247 . S
C193 O190 1.244 . S
C193 O191 1.240 . S
H194 C168 0.931 . S
H195 C177 0.931 . S
H196 C181 0.929 . S
H197 C183 0.930 . S
Co198 N202 2.148 . S
Co198 N208 2.128 . S
Co198 N218 2.194 . S
Co198 O223 2.351 . S
Co198 O224 2.155 . S
Co198 O225 2.096 . S
C199 N202 1.301 . S
C199 N203 1.328 . S
C199 H204 0.930 . S
C200 C201 1.333 . S
C200 N202 1.317 . S
C200 H205 0.930 . S
C201 C200 1.333 . S
C201 N203 1.350 . S
C201 H227 0.931 . S
N202 Co198 2.148 . S
N202 C199 1.301 . S
N202 C200 1.317 . S
N203 C199 1.328 . S
N203 C201 1.350 . S
H204 C199 0.930 . S
H205 C200 0.930 . S
C206 O207 1.224 . S
C206 O225 1.247 . S
O207 C206 1.224 . S
N208 Co198 2.128 . S
N208 C209 1.355 . S
N208 C211 1.311 . S
C209 N208 1.355 . S
C209 C210 1.363 . S
C209 H221 0.929 . S
C210 C209 1.363 . S
C210 N212 1.375 . S
C210 H228 0.931 . S
C211 N208 1.311 . S
C211 N212 1.347 . S
C211 H222 0.929 . S
N212 C210 1.375 . S
N212 C211 1.347 . S
C213 C216 1.365 . S
C213 N218 1.328 . S
C213 H219 0.929 . S
C214 C215 1.362 . S
C214 C217 1.378 . S
C214 H229 0.929 . S
C215 C214 1.362 . S
C215 C216 1.366 . S
C216 C213 1.365 . S
C216 C215 1.366 . S
C216 H230 0.930 . S
C217 C214 1.378 . S
C217 N218 1.315 . S
C217 H220 0.930 . S
N218 Co198 2.194 . S
N218 C213 1.328 . S
N218 C217 1.315 . S
H219 C213 0.929 . S
H220 C217 0.930 . S
H221 C209 0.929 . S
H222 C211 0.929 . S
O223 Co198 2.351 . S
O223 C226 1.244 . S
O224 Co198 2.155 . S
O224 C226 1.240 . S
O225 Co198 2.096 . S
O225 C206 1.247 . S
C226 O223 1.244 . S
C226 O224 1.240 . S
H227 C201 0.931 . S
H228 C210 0.931 . S
H229 C214 0.929 . S
H230 C216 0.930 . S
Co231 N235 2.148 . S
Co231 N241 2.128 . S
Co231 N251 2.194 . S
Co231 O256 2.351 . S
Co231 O257 2.155 . S
Co231 O258 2.096 . S
C232 N235 1.301 . S
C232 N236 1.328 . S
C232 H237 0.930 . S
C233 C234 1.333 . S
C233 N235 1.317 . S
C233 H238 0.930 . S
C234 C233 1.333 . S
C234 N236 1.350 . S
C234 H260 0.931 . S
N235 Co231 2.148 . S
N235 C232 1.301 . S
N235 C233 1.317 . S
N236 C232 1.328 . S
N236 C234 1.350 . S
H237 C232 0.930 . S
H238 C233 0.930 . S
C239 O240 1.224 . S
C239 O258 1.247 . S
O240 C239 1.224 . S
N241 Co231 2.128 . S
N241 C242 1.355 . S
N241 C244 1.311 . S
C242 N241 1.355 . S
C242 C243 1.363 . S
C242 H254 0.929 . S
C243 C242 1.363 . S
C243 N245 1.375 . S
C243 H261 0.931 . S
C244 N241 1.311 . S
C244 N245 1.347 . S
C244 H255 0.929 . S
N245 C243 1.375 . S
N245 C244 1.347 . S
C246 C249 1.365 . S
C246 N251 1.328 . S
C246 H252 0.929 . S
C247 C248 1.362 . S
C247 C250 1.378 . S
C247 H262 0.929 . S
C248 C247 1.362 . S
C248 C249 1.366 . S
C249 C246 1.365 . S
C249 C248 1.366 . S
C249 H263 0.930 . S
C250 C247 1.378 . S
C250 N251 1.315 . S
C250 H253 0.930 . S
N251 Co231 2.194 . S
N251 C246 1.328 . S
N251 C250 1.315 . S
H252 C246 0.929 . S
H253 C250 0.930 . S
H254 C242 0.929 . S
H255 C244 0.929 . S
O256 Co231 2.351 . S
O256 C259 1.244 . S
O257 Co231 2.155 . S
O257 C259 1.240 . S
O258 Co231 2.096 . S
O258 C239 1.247 . S
C259 O256 1.244 . S
C259 O257 1.240 . S
H260 C234 0.931 . S
H261 C243 0.931 . S
H262 C247 0.929 . S
H263 C249 0.930 . S
Co264 N268 2.148 . S
Co264 N274 2.128 . S
Co264 N284 2.194 . S
Co264 O289 2.351 . S
Co264 O290 2.155 . S
Co264 O291 2.096 . S
C265 N268 1.301 . S
C265 N269 1.328 . S
C265 H270 0.930 . S
C266 C267 1.333 . S
C266 N268 1.317 . S
C266 H271 0.930 . S
C267 C266 1.333 . S
C267 N269 1.350 . S
C267 H293 0.931 . S
N268 Co264 2.148 . S
N268 C265 1.301 . S
N268 C266 1.317 . S
N269 C265 1.328 . S
N269 C267 1.350 . S
H270 C265 0.930 . S
H271 C266 0.930 . S
C272 O273 1.224 . S
C272 O291 1.247 . S
O273 C272 1.224 . S
N274 Co264 2.128 . S
N274 C275 1.355 . S
N274 C277 1.311 . S
C275 N274 1.355 . S
C275 C276 1.363 . S
C275 H287 0.929 . S
C276 C275 1.363 . S
C276 N278 1.375 . S
C276 H294 0.931 . S
C277 N274 1.311 . S
C277 N278 1.347 . S
C277 H288 0.929 . S
N278 C276 1.375 . S
N278 C277 1.347 . S
C279 C282 1.365 . S
C279 N284 1.328 . S
C279 H285 0.929 . S
C280 C281 1.362 . S
C280 C283 1.378 . S
C280 H295 0.929 . S
C281 C280 1.362 . S
C281 C282 1.366 . S
C282 C279 1.365 . S
C282 C281 1.366 . S
C282 H296 0.930 . S
C283 C280 1.378 . S
C283 N284 1.315 . S
C283 H286 0.930 . S
N284 Co264 2.194 . S
N284 C279 1.328 . S
N284 C283 1.315 . S
H285 C279 0.929 . S
H286 C283 0.930 . S
H287 C275 0.929 . S
H288 C277 0.929 . S
O289 Co264 2.351 . S
O289 C292 1.244 . S
O290 Co264 2.155 . S
O290 C292 1.240 . S
O291 Co264 2.096 . S
O291 C272 1.247 . S
C292 O289 1.244 . S
C292 O290 1.240 . S
H293 C267 0.931 . S
H294 C276 0.931 . S
H295 C280 0.929 . S
H296 C282 0.930 . S
Co297 N301 2.148 . S
Co297 N307 2.128 . S
Co297 N317 2.194 . S
Co297 O322 2.351 . S
Co297 O323 2.155 . S
Co297 O324 2.096 . S
C298 N301 1.301 . S
C298 N302 1.328 . S
C298 H303 0.930 . S
C299 C300 1.333 . S
C299 N301 1.317 . S
C299 H304 0.930 . S
C300 C299 1.333 . S
C300 N302 1.350 . S
C300 H326 0.931 . S
N301 Co297 2.148 . S
N301 C298 1.301 . S
N301 C299 1.317 . S
N302 C298 1.328 . S
N302 C300 1.350 . S
H303 C298 0.930 . S
H304 C299 0.930 . S
C305 O306 1.224 . S
C305 O324 1.247 . S
O306 C305 1.224 . S
N307 Co297 2.128 . S
N307 C308 1.355 . S
N307 C310 1.311 . S
C308 N307 1.355 . S
C308 C309 1.363 . S
C308 H320 0.929 . S
C309 C308 1.363 . S
C309 N311 1.375 . S
C309 H327 0.931 . S
C310 N307 1.311 . S
C310 N311 1.347 . S
C310 H321 0.929 . S
N311 C309 1.375 . S
N311 C310 1.347 . S
C312 C315 1.365 . S
C312 N317 1.328 . S
C312 H318 0.929 . S
C313 C314 1.362 . S
C313 C316 1.378 . S
C313 H328 0.929 . S
C314 C313 1.362 . S
C314 C315 1.366 . S
C315 C312 1.365 . S
C315 C314 1.366 . S
C315 H329 0.930 . S
C316 C313 1.378 . S
C316 N317 1.315 . S
C316 H319 0.930 . S
N317 Co297 2.194 . S
N317 C312 1.328 . S
N317 C316 1.315 . S
H318 C312 0.929 . S
H319 C316 0.930 . S
H320 C308 0.929 . S
H321 C310 0.929 . S
O322 Co297 2.351 . S
O322 C325 1.244 . S
O323 Co297 2.155 . S
O323 C325 1.240 . S
O324 Co297 2.096 . S
O324 C305 1.247 . S
C325 O322 1.244 . S
C325 O323 1.240 . S
H326 C300 0.931 . S
H327 C309 0.931 . S
H328 C313 0.929 . S
H329 C315 0.930 . S
Co330 N334 2.148 . S
Co330 N340 2.128 . S
Co330 N350 2.194 . S
Co330 O355 2.351 . S
Co330 O356 2.155 . S
Co330 O357 2.096 . S
C331 N334 1.301 . S
C331 N335 1.328 . S
C331 H336 0.930 . S
C332 C333 1.333 . S
C332 N334 1.317 . S
C332 H337 0.930 . S
C333 C332 1.333 . S
C333 N335 1.350 . S
C333 H359 0.931 . S
N334 Co330 2.148 . S
N334 C331 1.301 . S
N334 C332 1.317 . S
N335 C331 1.328 . S
N335 C333 1.350 . S
H336 C331 0.930 . S
H337 C332 0.930 . S
C338 O339 1.224 . S
C338 O357 1.247 . S
O339 C338 1.224 . S
N340 Co330 2.128 . S
N340 C341 1.355 . S
N340 C343 1.311 . S
C341 N340 1.355 . S
C341 C342 1.363 . S
C341 H353 0.929 . S
C342 C341 1.363 . S
C342 N344 1.375 . S
C342 H360 0.931 . S
C343 N340 1.311 . S
C343 N344 1.347 . S
C343 H354 0.929 . S
N344 C342 1.375 . S
N344 C343 1.347 . S
C345 C348 1.365 . S
C345 N350 1.328 . S
C345 H351 0.929 . S
C346 C347 1.362 . S
C346 C349 1.378 . S
C346 H361 0.929 . S
C347 C346 1.362 . S
C347 C348 1.366 . S
C348 C345 1.365 . S
C348 C347 1.366 . S
C348 H362 0.930 . S
C349 C346 1.378 . S
C349 N350 1.315 . S
C349 H352 0.930 . S
N350 Co330 2.194 . S
N350 C345 1.328 . S
N350 C349 1.315 . S
H351 C345 0.929 . S
H352 C349 0.930 . S
H353 C341 0.929 . S
H354 C343 0.929 . S
O355 Co330 2.351 . S
O355 C358 1.244 . S
O356 Co330 2.155 . S
O356 C358 1.240 . S
O357 Co330 2.096 . S
O357 C338 1.247 . S
C358 O355 1.244 . S
C358 O356 1.240 . S
H359 C333 0.931 . S
H360 C342 0.931 . S
H361 C346 0.929 . S
H362 C348 0.930 . S
Co363 N367 2.148 . S
Co363 N373 2.128 . S
Co363 N383 2.194 . S
Co363 O388 2.351 . S
Co363 O389 2.155 . S
Co363 O390 2.096 . S
C364 N367 1.301 . S
C364 N368 1.328 . S
C364 H369 0.930 . S
C365 C366 1.333 . S
C365 N367 1.317 . S
C365 H370 0.930 . S
C366 C365 1.333 . S
C366 N368 1.350 . S
C366 H392 0.931 . S
N367 Co363 2.148 . S
N367 C364 1.301 . S
N367 C365 1.317 . S
N368 C364 1.328 . S
N368 C366 1.350 . S
H369 C364 0.930 . S
H370 C365 0.930 . S
C371 O372 1.224 . S
C371 O390 1.247 . S
O372 C371 1.224 . S
N373 Co363 2.128 . S
N373 C374 1.355 . S
N373 C376 1.311 . S
C374 N373 1.355 . S
C374 C375 1.363 . S
C374 H386 0.929 . S
C375 C374 1.363 . S
C375 N377 1.375 . S
C375 H393 0.931 . S
C376 N373 1.311 . S
C376 N377 1.347 . S
C376 H387 0.929 . S
N377 C375 1.375 . S
N377 C376 1.347 . S
C378 C381 1.365 . S
C378 N383 1.328 . S
C378 H384 0.929 . S
C379 C380 1.362 . S
C379 C382 1.378 . S
C379 H394 0.929 . S
C380 C379 1.362 . S
C380 C381 1.366 . S
C381 C378 1.365 . S
C381 C380 1.366 . S
C381 H395 0.930 . S
C382 C379 1.378 . S
C382 N383 1.315 . S
C382 H385 0.930 . S
N383 Co363 2.194 . S
N383 C378 1.328 . S
N383 C382 1.315 . S
H384 C378 0.929 . S
H385 C382 0.930 . S
H386 C374 0.929 . S
H387 C376 0.929 . S
O388 Co363 2.351 . S
O388 C391 1.244 . S
O389 Co363 2.155 . S
O389 C391 1.240 . S
O390 Co363 2.096 . S
O390 C371 1.247 . S
C391 O388 1.244 . S
C391 O389 1.240 . S
H392 C366 0.931 . S
H393 C375 0.931 . S
H394 C379 0.929 . S
H395 C381 0.930 . S
Co396 N400 2.148 . S
Co396 N406 2.128 . S
Co396 N416 2.194 . S
Co396 O421 2.351 . S
Co396 O422 2.155 . S
Co396 O423 2.096 . S
C397 N400 1.301 . S
C397 N401 1.328 . S
C397 H402 0.930 . S
C398 C399 1.333 . S
C398 N400 1.317 . S
C398 H403 0.930 . S
C399 C398 1.333 . S
C399 N401 1.350 . S
C399 H425 0.931 . S
N400 Co396 2.148 . S
N400 C397 1.301 . S
N400 C398 1.317 . S
N401 C397 1.328 . S
N401 C399 1.350 . S
H402 C397 0.930 . S
H403 C398 0.930 . S
C404 O405 1.224 . S
C404 O423 1.247 . S
O405 C404 1.224 . S
N406 Co396 2.128 . S
N406 C407 1.355 . S
N406 C409 1.311 . S
C407 N406 1.355 . S
C407 C408 1.363 . S
C407 H419 0.929 . S
C408 C407 1.363 . S
C408 N410 1.375 . S
C408 H426 0.931 . S
C409 N406 1.311 . S
C409 N410 1.347 . S
C409 H420 0.929 . S
N410 C408 1.375 . S
N410 C409 1.347 . S
C411 C414 1.365 . S
C411 N416 1.328 . S
C411 H417 0.929 . S
C412 C413 1.362 . S
C412 C415 1.378 . S
C412 H427 0.929 . S
C413 C412 1.362 . S
C413 C414 1.366 . S
C414 C411 1.365 . S
C414 C413 1.366 . S
C414 H428 0.930 . S
C415 C412 1.378 . S
C415 N416 1.315 . S
C415 H418 0.930 . S
N416 Co396 2.194 . S
N416 C411 1.328 . S
N416 C415 1.315 . S
H417 C411 0.929 . S
H418 C415 0.930 . S
H419 C407 0.929 . S
H420 C409 0.929 . S
O421 Co396 2.351 . S
O421 C424 1.244 . S
O422 Co396 2.155 . S
O422 C424 1.240 . S
O423 Co396 2.096 . S
O423 C404 1.247 . S
C424 O421 1.244 . S
C424 O422 1.240 . S
H425 C399 0.931 . S
H426 C408 0.931 . S
H427 C412 0.929 . S
H428 C414 0.930 . S
Co429 N433 2.148 . S
Co429 N439 2.128 . S
Co429 N449 2.194 . S
Co429 O454 2.351 . S
Co429 O455 2.155 . S
Co429 O456 2.096 . S
C430 N433 1.301 . S
C430 N434 1.328 . S
C430 H435 0.930 . S
C431 C432 1.333 . S
C431 N433 1.317 . S
C431 H436 0.930 . S
C432 C431 1.333 . S
C432 N434 1.350 . S
C432 H458 0.931 . S
N433 Co429 2.148 . S
N433 C430 1.301 . S
N433 C431 1.317 . S
N434 C430 1.328 . S
N434 C432 1.350 . S
H435 C430 0.930 . S
H436 C431 0.930 . S
C437 O438 1.224 . S
C437 O456 1.247 . S
O438 C437 1.224 . S
N439 Co429 2.128 . S
N439 C440 1.355 . S
N439 C442 1.311 . S
C440 N439 1.355 . S
C440 C441 1.363 . S
C440 H452 0.929 . S
C441 C440 1.363 . S
C441 N443 1.375 . S
C441 H459 0.931 . S
C442 N439 1.311 . S
C442 N443 1.347 . S
C442 H453 0.929 . S
N443 C441 1.375 . S
N443 C442 1.347 . S
C444 C447 1.365 . S
C444 N449 1.328 . S
C444 H450 0.929 . S
C445 C446 1.362 . S
C445 C448 1.378 . S
C445 H460 0.929 . S
C446 C445 1.362 . S
C446 C447 1.366 . S
C447 C444 1.365 . S
C447 C446 1.366 . S
C447 H461 0.930 . S
C448 C445 1.378 . S
C448 N449 1.315 . S
C448 H451 0.930 . S
N449 Co429 2.194 . S
N449 C444 1.328 . S
N449 C448 1.315 . S
H450 C444 0.929 . S
H451 C448 0.930 . S
H452 C440 0.929 . S
H453 C442 0.929 . S
O454 Co429 2.351 . S
O454 C457 1.244 . S
O455 Co429 2.155 . S
O455 C457 1.240 . S
O456 Co429 2.096 . S
O456 C437 1.247 . S
C457 O454 1.244 . S
C457 O455 1.240 . S
H458 C432 0.931 . S
H459 C441 0.931 . S
H460 C445 0.929 . S
H461 C447 0.930 . S
Co462 N466 2.148 . S
Co462 N472 2.128 . S
Co462 N482 2.194 . S
Co462 O487 2.351 . S
Co462 O488 2.155 . S
Co462 O489 2.096 . S
C463 N466 1.301 . S
C463 N467 1.328 . S
C463 H468 0.930 . S
C464 C465 1.333 . S
C464 N466 1.317 . S
C464 H469 0.930 . S
C465 C464 1.333 . S
C465 N467 1.350 . S
C465 H491 0.931 . S
N466 Co462 2.148 . S
N466 C463 1.301 . S
N466 C464 1.317 . S
N467 C463 1.328 . S
N467 C465 1.350 . S
H468 C463 0.930 . S
H469 C464 0.930 . S
C470 O471 1.224 . S
C470 O489 1.247 . S
O471 C470 1.224 . S
N472 Co462 2.128 . S
N472 C473 1.355 . S
N472 C475 1.311 . S
C473 N472 1.355 . S
C473 C474 1.363 . S
C473 H485 0.929 . S
C474 C473 1.363 . S
C474 N476 1.375 . S
C474 H492 0.931 . S
C475 N472 1.311 . S
C475 N476 1.347 . S
C475 H486 0.929 . S
N476 C474 1.375 . S
N476 C475 1.347 . S
C477 C480 1.365 . S
C477 N482 1.328 . S
C477 H483 0.929 . S
C478 C479 1.362 . S
C478 C481 1.378 . S
C478 H493 0.929 . S
C479 C478 1.362 . S
C479 C480 1.366 . S
C480 C477 1.365 . S
C480 C479 1.366 . S
C480 H494 0.930 . S
C481 C478 1.378 . S
C481 N482 1.315 . S
C481 H484 0.930 . S
N482 Co462 2.194 . S
N482 C477 1.328 . S
N482 C481 1.315 . S
H483 C477 0.929 . S
H484 C481 0.930 . S
H485 C473 0.929 . S
H486 C475 0.929 . S
O487 Co462 2.351 . S
O487 C490 1.244 . S
O488 Co462 2.155 . S
O488 C490 1.240 . S
O489 Co462 2.096 . S
O489 C470 1.247 . S
C490 O487 1.244 . S
C490 O488 1.240 . S
H491 C465 0.931 . S
H492 C474 0.931 . S
H493 C478 0.929 . S
H494 C480 0.930 . S
Co495 N499 2.148 . S
Co495 N505 2.128 . S
Co495 N515 2.194 . S
Co495 O520 2.351 . S
Co495 O521 2.155 . S
Co495 O522 2.096 . S
C496 N499 1.301 . S
C496 N500 1.328 . S
C496 H501 0.930 . S
C497 C498 1.333 . S
C497 N499 1.317 . S
C497 H502 0.930 . S
C498 C497 1.333 . S
C498 N500 1.350 . S
C498 H524 0.931 . S
N499 Co495 2.148 . S
N499 C496 1.301 . S
N499 C497 1.317 . S
N500 C496 1.328 . S
N500 C498 1.350 . S
H501 C496 0.930 . S
H502 C497 0.930 . S
C503 O504 1.224 . S
C503 O522 1.247 . S
O504 C503 1.224 . S
N505 Co495 2.128 . S
N505 C506 1.355 . S
N505 C508 1.311 . S
C506 N505 1.355 . S
C506 C507 1.363 . S
C506 H518 0.929 . S
C507 C506 1.363 . S
C507 N509 1.375 . S
C507 H525 0.931 . S
C508 N505 1.311 . S
C508 N509 1.347 . S
C508 H519 0.929 . S
N509 C507 1.375 . S
N509 C508 1.347 . S
C510 C513 1.365 . S
C510 N515 1.328 . S
C510 H516 0.929 . S
C511 C512 1.362 . S
C511 C514 1.378 . S
C511 H526 0.929 . S
C512 C511 1.362 . S
C512 C513 1.366 . S
C513 C510 1.365 . S
C513 C512 1.366 . S
C513 H527 0.930 . S
C514 C511 1.378 . S
C514 N515 1.315 . S
C514 H517 0.930 . S
N515 Co495 2.194 . S
N515 C510 1.328 . S
N515 C514 1.315 . S
H516 C510 0.929 . S
H517 C514 0.930 . S
H518 C506 0.929 . S
H519 C508 0.929 . S
O520 Co495 2.351 . S
O520 C523 1.244 . S
O521 Co495 2.155 . S
O521 C523 1.240 . S
O522 Co495 2.096 . S
O522 C503 1.247 . S
C523 O520 1.244 . S
C523 O521 1.240 . S
H524 C498 0.931 . S
H525 C507 0.931 . S
H526 C511 0.929 . S
H527 C513 0.930 . S
Co528 N532 2.148 . S
Co528 N538 2.128 . S
Co528 N548 2.194 . S
Co528 O553 2.351 . S
Co528 O554 2.155 . S
Co528 O555 2.096 . S
C529 N532 1.301 . S
C529 N533 1.328 . S
C529 H534 0.930 . S
C530 C531 1.333 . S
C530 N532 1.317 . S
C530 H535 0.930 . S
C531 C530 1.333 . S
C531 N533 1.350 . S
C531 H557 0.931 . S
N532 Co528 2.148 . S
N532 C529 1.301 . S
N532 C530 1.317 . S
N533 C529 1.328 . S
N533 C531 1.350 . S
H534 C529 0.930 . S
H535 C530 0.930 . S
C536 O537 1.224 . S
C536 O555 1.247 . S
O537 C536 1.224 . S
N538 Co528 2.128 . S
N538 C539 1.355 . S
N538 C541 1.311 . S
C539 N538 1.355 . S
C539 C540 1.363 . S
C539 H551 0.929 . S
C540 C539 1.363 . S
C540 N542 1.375 . S
C540 H558 0.931 . S
C541 N538 1.311 . S
C541 N542 1.347 . S
C541 H552 0.929 . S
N542 C540 1.375 . S
N542 C541 1.347 . S
C543 C546 1.365 . S
C543 N548 1.328 . S
C543 H549 0.929 . S
C544 C545 1.362 . S
C544 C547 1.378 . S
C544 H559 0.929 . S
C545 C544 1.362 . S
C545 C546 1.366 . S
C546 C543 1.365 . S
C546 C545 1.366 . S
C546 H560 0.930 . S
C547 C544 1.378 . S
C547 N548 1.315 . S
C547 H550 0.930 . S
N548 Co528 2.194 . S
N548 C543 1.328 . S
N548 C547 1.315 . S
H549 C543 0.929 . S
H550 C547 0.930 . S
H551 C539 0.929 . S
H552 C541 0.929 . S
O553 Co528 2.351 . S
O553 C556 1.244 . S
O554 Co528 2.155 . S
O554 C556 1.240 . S
O555 Co528 2.096 . S
O555 C536 1.247 . S
C556 O553 1.244 . S
C556 O554 1.240 . S
H557 C531 0.931 . S
H558 C540 0.931 . S
H559 C544 0.929 . S
H560 C546 0.930 . S
Co561 N565 2.148 . S
Co561 N571 2.128 . S
Co561 N581 2.194 . S
Co561 O586 2.351 . S
Co561 O587 2.155 . S
Co561 O588 2.096 . S
C562 N565 1.301 . S
C562 N566 1.328 . S
C562 H567 0.930 . S
C563 C564 1.333 . S
C563 N565 1.317 . S
C563 H568 0.930 . S
C564 C563 1.333 . S
C564 N566 1.350 . S
C564 H590 0.931 . S
N565 Co561 2.148 . S
N565 C562 1.301 . S
N565 C563 1.317 . S
N566 C562 1.328 . S
N566 C564 1.350 . S
H567 C562 0.930 . S
H568 C563 0.930 . S
C569 O570 1.224 . S
C569 O588 1.247 . S
O570 C569 1.224 . S
N571 Co561 2.128 . S
N571 C572 1.355 . S
N571 C574 1.311 . S
C572 N571 1.355 . S
C572 C573 1.363 . S
C572 H584 0.929 . S
C573 C572 1.363 . S
C573 N575 1.375 . S
C573 H591 0.931 . S
C574 N571 1.311 . S
C574 N575 1.347 . S
C574 H585 0.929 . S
N575 C573 1.375 . S
N575 C574 1.347 . S
C576 C579 1.365 . S
C576 N581 1.328 . S
C576 H582 0.929 . S
C577 C578 1.362 . S
C577 C580 1.378 . S
C577 H592 0.929 . S
C578 C577 1.362 . S
C578 C579 1.366 . S
C579 C576 1.365 . S
C579 C578 1.366 . S
C579 H593 0.930 . S
C580 C577 1.378 . S
C580 N581 1.315 . S
C580 H583 0.930 . S
N581 Co561 2.194 . S
N581 C576 1.328 . S
N581 C580 1.315 . S
H582 C576 0.929 . S
H583 C580 0.930 . S
H584 C572 0.929 . S
H585 C574 0.929 . S
O586 Co561 2.351 . S
O586 C589 1.244 . S
O587 Co561 2.155 . S
O587 C589 1.240 . S
O588 Co561 2.096 . S
O588 C569 1.247 . S
C589 O586 1.244 . S
C589 O587 1.240 . S
H590 C564 0.931 . S
H591 C573 0.931 . S
H592 C577 0.929 . S
H593 C579 0.930 . S
Co594 N598 2.148 . S
Co594 N604 2.128 . S
Co594 N614 2.194 . S
Co594 O619 2.351 . S
Co594 O620 2.155 . S
Co594 O621 2.096 . S
C595 N598 1.301 . S
C595 N599 1.328 . S
C595 H600 0.930 . S
C596 C597 1.333 . S
C596 N598 1.317 . S
C596 H601 0.930 . S
C597 C596 1.333 . S
C597 N599 1.350 . S
C597 H623 0.931 . S
N598 Co594 2.148 . S
N598 C595 1.301 . S
N598 C596 1.317 . S
N599 C595 1.328 . S
N599 C597 1.350 . S
H600 C595 0.930 . S
H601 C596 0.930 . S
C602 O603 1.224 . S
C602 O621 1.247 . S
O603 C602 1.224 . S
N604 Co594 2.128 . S
N604 C605 1.355 . S
N604 C607 1.311 . S
C605 N604 1.355 . S
C605 C606 1.363 . S
C605 H617 0.929 . S
C606 C605 1.363 . S
C606 N608 1.375 . S
C606 H624 0.931 . S
C607 N604 1.311 . S
C607 N608 1.347 . S
C607 H618 0.929 . S
N608 C606 1.375 . S
N608 C607 1.347 . S
C609 C612 1.365 . S
C609 N614 1.328 . S
C609 H615 0.929 . S
C610 C611 1.362 . S
C610 C613 1.378 . S
C610 H625 0.929 . S
C611 C610 1.362 . S
C611 C612 1.366 . S
C612 C609 1.365 . S
C612 C611 1.366 . S
C612 H626 0.930 . S
C613 C610 1.378 . S
C613 N614 1.315 . S
C613 H616 0.930 . S
N614 Co594 2.194 . S
N614 C609 1.328 . S
N614 C613 1.315 . S
H615 C609 0.929 . S
H616 C613 0.930 . S
H617 C605 0.929 . S
H618 C607 0.929 . S
O619 Co594 2.351 . S
O619 C622 1.244 . S
O620 Co594 2.155 . S
O620 C622 1.240 . S
O621 Co594 2.096 . S
O621 C602 1.247 . S
C622 O619 1.244 . S
C622 O620 1.240 . S
H623 C597 0.931 . S
H624 C606 0.931 . S
H625 C610 0.929 . S
H626 C612 0.930 . S
Co627 N631 2.148 . S
Co627 N637 2.128 . S
Co627 N647 2.194 . S
Co627 O652 2.351 . S
Co627 O653 2.155 . S
Co627 O654 2.096 . S
C628 N631 1.301 . S
C628 N632 1.328 . S
C628 H633 0.930 . S
C629 C630 1.333 . S
C629 N631 1.317 . S
C629 H634 0.930 . S
C630 C629 1.333 . S
C630 N632 1.350 . S
C630 H656 0.931 . S
N631 Co627 2.148 . S
N631 C628 1.301 . S
N631 C629 1.317 . S
N632 C628 1.328 . S
N632 C630 1.350 . S
H633 C628 0.930 . S
H634 C629 0.930 . S
C635 O636 1.224 . S
C635 O654 1.247 . S
O636 C635 1.224 . S
N637 Co627 2.128 . S
N637 C638 1.355 . S
N637 C640 1.311 . S
C638 N637 1.355 . S
C638 C639 1.363 . S
C638 H650 0.929 . S
C639 C638 1.363 . S
C639 N641 1.375 . S
C639 H657 0.931 . S
C640 N637 1.311 . S
C640 N641 1.347 . S
C640 H651 0.929 . S
N641 C639 1.375 . S
N641 C640 1.347 . S
C642 C645 1.365 . S
C642 N647 1.328 . S
C642 H648 0.929 . S
C643 C644 1.362 . S
C643 C646 1.378 . S
C643 H658 0.929 . S
C644 C643 1.362 . S
C644 C645 1.366 . S
C645 C642 1.365 . S
C645 C644 1.366 . S
C645 H659 0.930 . S
C646 C643 1.378 . S
C646 N647 1.315 . S
C646 H649 0.930 . S
N647 Co627 2.194 . S
N647 C642 1.328 . S
N647 C646 1.315 . S
H648 C642 0.929 . S
H649 C646 0.930 . S
H650 C638 0.929 . S
H651 C640 0.929 . S
O652 Co627 2.351 . S
O652 C655 1.244 . S
O653 Co627 2.155 . S
O653 C655 1.240 . S
O654 Co627 2.096 . S
O654 C635 1.247 . S
C655 O652 1.244 . S
C655 O653 1.240 . S
H656 C630 0.931 . S
H657 C639 0.931 . S
H658 C643 0.929 . S
H659 C645 0.930 . S
Co660 N664 2.148 . S
Co660 N670 2.128 . S
Co660 N680 2.194 . S
Co660 O685 2.351 . S
Co660 O686 2.155 . S
Co660 O687 2.096 . S
C661 N664 1.301 . S
C661 N665 1.328 . S
C661 H666 0.930 . S
C662 C663 1.333 . S
C662 N664 1.317 . S
C662 H667 0.930 . S
C663 C662 1.333 . S
C663 N665 1.350 . S
C663 H689 0.931 . S
N664 Co660 2.148 . S
N664 C661 1.301 . S
N664 C662 1.317 . S
N665 C661 1.328 . S
N665 C663 1.350 . S
H666 C661 0.930 . S
H667 C662 0.930 . S
C668 O669 1.224 . S
C668 O687 1.247 . S
O669 C668 1.224 . S
N670 Co660 2.128 . S
N670 C671 1.355 . S
N670 C673 1.311 . S
C671 N670 1.355 . S
C671 C672 1.363 . S
C671 H683 0.929 . S
C672 C671 1.363 . S
C672 N674 1.375 . S
C672 H690 0.931 . S
C673 N670 1.311 . S
C673 N674 1.347 . S
C673 H684 0.929 . S
N674 C672 1.375 . S
N674 C673 1.347 . S
C675 C678 1.365 . S
C675 N680 1.328 . S
C675 H681 0.929 . S
C676 C677 1.362 . S
C676 C679 1.378 . S
C676 H691 0.929 . S
C677 C676 1.362 . S
C677 C678 1.366 . S
C678 C675 1.365 . S
C678 C677 1.366 . S
C678 H692 0.930 . S
C679 C676 1.378 . S
C679 N680 1.315 . S
C679 H682 0.930 . S
N680 Co660 2.194 . S
N680 C675 1.328 . S
N680 C679 1.315 . S
H681 C675 0.929 . S
H682 C679 0.930 . S
H683 C671 0.929 . S
H684 C673 0.929 . S
O685 Co660 2.351 . S
O685 C688 1.244 . S
O686 Co660 2.155 . S
O686 C688 1.240 . S
O687 Co660 2.096 . S
O687 C668 1.247 . S
C688 O685 1.244 . S
C688 O686 1.240 . S
H689 C663 0.931 . S
H690 C672 0.931 . S
H691 C676 0.929 . S
H692 C678 0.930 . S
Co693 N697 2.148 . S
Co693 N703 2.128 . S
Co693 N713 2.194 . S
Co693 O718 2.351 . S
Co693 O719 2.155 . S
Co693 O720 2.096 . S
C694 N697 1.301 . S
C694 N698 1.328 . S
C694 H699 0.930 . S
C695 C696 1.333 . S
C695 N697 1.317 . S
C695 H700 0.930 . S
C696 C695 1.333 . S
C696 N698 1.350 . S
C696 H722 0.931 . S
N697 Co693 2.148 . S
N697 C694 1.301 . S
N697 C695 1.317 . S
N698 C694 1.328 . S
N698 C696 1.350 . S
H699 C694 0.930 . S
H700 C695 0.930 . S
C701 O702 1.224 . S
C701 O720 1.247 . S
O702 C701 1.224 . S
N703 Co693 2.128 . S
N703 C704 1.355 . S
N703 C706 1.311 . S
C704 N703 1.355 . S
C704 C705 1.363 . S
C704 H716 0.929 . S
C705 C704 1.363 . S
C705 N707 1.375 . S
C705 H723 0.931 . S
C706 N703 1.311 . S
C706 N707 1.347 . S
C706 H717 0.929 . S
N707 C705 1.375 . S
N707 C706 1.347 . S
C708 C711 1.365 . S
C708 N713 1.328 . S
C708 H714 0.929 . S
C709 C710 1.362 . S
C709 C712 1.378 . S
C709 H724 0.929 . S
C710 C709 1.362 . S
C710 C711 1.366 . S
C711 C708 1.365 . S
C711 C710 1.366 . S
C711 H725 0.930 . S
C712 C709 1.378 . S
C712 N713 1.315 . S
C712 H715 0.930 . S
N713 Co693 2.194 . S
N713 C708 1.328 . S
N713 C712 1.315 . S
H714 C708 0.929 . S
H715 C712 0.930 . S
H716 C704 0.929 . S
H717 C706 0.929 . S
O718 Co693 2.351 . S
O718 C721 1.244 . S
O719 Co693 2.155 . S
O719 C721 1.240 . S
O720 Co693 2.096 . S
O720 C701 1.247 . S
C721 O718 1.244 . S
C721 O719 1.240 . S
H722 C696 0.931 . S
H723 C705 0.931 . S
H724 C709 0.929 . S
H725 C711 0.930 . S
Co726 N730 2.148 . S
Co726 N736 2.128 . S
Co726 N746 2.194 . S
Co726 O751 2.351 . S
Co726 O752 2.155 . S
Co726 O753 2.096 . S
C727 N730 1.301 . S
C727 N731 1.328 . S
C727 H732 0.930 . S
C728 C729 1.333 . S
C728 N730 1.317 . S
C728 H733 0.930 . S
C729 C728 1.333 . S
C729 N731 1.350 . S
C729 H755 0.931 . S
N730 Co726 2.148 . S
N730 C727 1.301 . S
N730 C728 1.317 . S
N731 C727 1.328 . S
N731 C729 1.350 . S
H732 C727 0.930 . S
H733 C728 0.930 . S
C734 O735 1.224 . S
C734 O753 1.247 . S
O735 C734 1.224 . S
N736 Co726 2.128 . S
N736 C737 1.355 . S
N736 C739 1.311 . S
C737 N736 1.355 . S
C737 C738 1.363 . S
C737 H749 0.929 . S
C738 C737 1.363 . S
C738 N740 1.375 . S
C738 H756 0.931 . S
C739 N736 1.311 . S
C739 N740 1.347 . S
C739 H750 0.929 . S
N740 C738 1.375 . S
N740 C739 1.347 . S
C741 C744 1.365 . S
C741 N746 1.328 . S
C741 H747 0.929 . S
C742 C743 1.362 . S
C742 C745 1.378 . S
C742 H757 0.929 . S
C743 C742 1.362 . S
C743 C744 1.366 . S
C744 C741 1.365 . S
C744 C743 1.366 . S
C744 H758 0.930 . S
C745 C742 1.378 . S
C745 N746 1.315 . S
C745 H748 0.930 . S
N746 Co726 2.194 . S
N746 C741 1.328 . S
N746 C745 1.315 . S
H747 C741 0.929 . S
H748 C745 0.930 . S
H749 C737 0.929 . S
H750 C739 0.929 . S
O751 Co726 2.351 . S
O751 C754 1.244 . S
O752 Co726 2.155 . S
O752 C754 1.240 . S
O753 Co726 2.096 . S
O753 C734 1.247 . S
C754 O751 1.244 . S
C754 O752 1.240 . S
H755 C729 0.931 . S
H756 C738 0.931 . S
H757 C742 0.929 . S
H758 C744 0.930 . S
Co759 N763 2.148 . S
Co759 N769 2.128 . S
Co759 N779 2.194 . S
Co759 O784 2.351 . S
Co759 O785 2.155 . S
Co759 O786 2.096 . S
C760 N763 1.301 . S
C760 N764 1.328 . S
C760 H765 0.930 . S
C761 C762 1.333 . S
C761 N763 1.317 . S
C761 H766 0.930 . S
C762 C761 1.333 . S
C762 N764 1.350 . S
C762 H788 0.931 . S
N763 Co759 2.148 . S
N763 C760 1.301 . S
N763 C761 1.317 . S
N764 C760 1.328 . S
N764 C762 1.350 . S
H765 C760 0.930 . S
H766 C761 0.930 . S
C767 O768 1.224 . S
C767 O786 1.247 . S
O768 C767 1.224 . S
N769 Co759 2.128 . S
N769 C770 1.355 . S
N769 C772 1.311 . S
C770 N769 1.355 . S
C770 C771 1.363 . S
C770 H782 0.929 . S
C771 C770 1.363 . S
C771 N773 1.375 . S
C771 H789 0.931 . S
C772 N769 1.311 . S
C772 N773 1.347 . S
C772 H783 0.929 . S
N773 C771 1.375 . S
N773 C772 1.347 . S
C774 C777 1.365 . S
C774 N779 1.328 . S
C774 H780 0.929 . S
C775 C776 1.362 . S
C775 C778 1.378 . S
C775 H790 0.929 . S
C776 C775 1.362 . S
C776 C777 1.366 . S
C777 C774 1.365 . S
C777 C776 1.366 . S
C777 H791 0.930 . S
C778 C775 1.378 . S
C778 N779 1.315 . S
C778 H781 0.930 . S
N779 Co759 2.194 . S
N779 C774 1.328 . S
N779 C778 1.315 . S
H780 C774 0.929 . S
H781 C778 0.930 . S
H782 C770 0.929 . S
H783 C772 0.929 . S
O784 Co759 2.351 . S
O784 C787 1.244 . S
O785 Co759 2.155 . S
O785 C787 1.240 . S
O786 Co759 2.096 . S
O786 C767 1.247 . S
C787 O784 1.244 . S
C787 O785 1.240 . S
H788 C762 0.931 . S
H789 C771 0.931 . S
H790 C775 0.929 . S
H791 C777 0.930 . S
H792 C798 0.930 . S
H793 C801 0.930 . S
H794 C802 0.930 . S
H795 C803 0.930 . S
H796 C806 0.930 . S
H797 C807 0.930 . S
C798 H792 0.930 . S
C798 C799 1.355 . S
C798 C800 1.415 . S
C799 C798 1.355 . S
C799 C801 1.419 . S
C800 C798 1.415 . S
C800 C805 1.425 1_545 S
C800 C807 1.409 . S
C801 H793 0.930 . S
C801 C799 1.419 . S
C801 C802 1.362 1_545 S
C802 H794 0.930 . S
C802 C801 1.362 1_565 S
C802 C805 1.409 . S
C803 H795 0.930 . S
C803 C804 1.355 . S
C803 C805 1.415 . S
C804 C803 1.355 . S
C804 C806 1.419 . S
C805 C800 1.425 1_565 S
C805 C802 1.409 . S
C805 C803 1.415 . S
C806 H796 0.930 . S
C806 C804 1.419 . S
C806 C807 1.362 1_565 S
C807 H797 0.930 . S
C807 C800 1.409 . S
C807 C806 1.362 1_545 S
H808 C814 0.930 . S
H809 C817 0.930 . S
H810 C818 0.930 . S
H811 C819 0.930 . S
H812 C822 0.930 . S
H813 C823 0.930 . S
C814 H808 0.930 . S
C814 C815 1.355 . S
C814 C816 1.415 . S
C815 C814 1.355 . S
C815 C817 1.419 . S
C816 C814 1.415 . S
C816 C821 1.425 . S
C816 C823 1.409 . S
C817 H809 0.930 . S
C817 C815 1.419 . S
C817 C818 1.362 . S
C818 H810 0.930 . S
C818 C817 1.362 . S
C818 C821 1.409 . S
C819 H811 0.930 . S
C819 C820 1.355 . S
C819 C821 1.415 . S
C820 C819 1.355 . S
C820 C822 1.419 . S
C821 C816 1.425 . S
C821 C818 1.409 . S
C821 C819 1.415 . S
C822 H812 0.930 . S
C822 C820 1.419 . S
C822 C823 1.362 . S
C823 H813 0.930 . S
C823 C816 1.409 . S
C823 C822 1.362 . S
H824 C830 0.930 . S
H825 C833 0.930 . S
H826 C834 0.930 . S
H827 C835 0.930 . S
H828 C838 0.930 . S
H829 C839 0.930 . S
C830 H824 0.930 . S
C830 C831 1.355 . S
C830 C832 1.415 . S
C831 C830 1.355 . S
C831 C833 1.419 . S
C832 C830 1.415 . S
C832 C837 1.425 1_455 S
C832 C839 1.409 . S
C833 H825 0.930 . S
C833 C831 1.419 . S
C833 C834 1.362 1_455 S
C834 H826 0.930 . S
C834 C833 1.362 1_655 S
C834 C837 1.409 . S
C835 H827 0.930 . S
C835 C836 1.355 . S
C835 C837 1.415 . S
C836 C835 1.355 . S
C836 C838 1.419 . S
C837 C832 1.425 1_655 S
C837 C834 1.409 . S
C837 C835 1.415 . S
C838 H828 0.930 . S
C838 C836 1.419 . S
C838 C839 1.362 1_655 S
C839 H829 0.930 . S
C839 C832 1.409 . S
C839 C838 1.362 1_455 S
H840 C846 0.928 . S
H841 C849 0.930 . S
H842 C850 0.930 . S
H843 C851 0.928 . S
H844 C854 0.930 . S
H845 C855 0.930 . S
C846 H840 0.928 . S
C846 C847 1.355 . S
C846 C848 1.415 1_455 S
C847 C846 1.355 . S
C847 C849 1.419 . S
C848 C846 1.415 1_655 S
C848 C853 1.425 1_655 S
C848 C855 1.409 . S
C849 H841 0.930 . S
C849 C847 1.419 . S
C849 C850 1.362 . S
C850 H842 0.930 . S
C850 C849 1.362 . S
C850 C853 1.409 . S
C851 H843 0.928 . S
C851 C852 1.355 . S
C851 C853 1.415 1_655 S
C852 C851 1.355 . S
C852 C854 1.419 . S
C853 C848 1.425 1_455 S
C853 C850 1.409 . S
C853 C851 1.415 1_455 S
C854 H844 0.930 . S
C854 C852 1.419 . S
C854 C855 1.362 . S
C855 H845 0.930 . S
C855 C848 1.409 . S
C855 C854 1.362 . S
H856 C862 0.930 . S
H857 C865 0.930 . S
H858 C866 0.930 . S
H859 C867 0.930 . S
H860 C870 0.930 . S
H861 C871 0.930 . S
C862 H856 0.930 . S
C862 C863 1.355 . S
C862 C864 1.415 1_565 S
C863 C862 1.355 . S
C863 C865 1.419 . S
C864 C862 1.415 1_545 S
C864 C869 1.425 1_545 S
C864 C871 1.409 . S
C865 H857 0.930 . S
C865 C863 1.419 . S
C865 C866 1.362 . S
C866 H858 0.930 . S
C866 C865 1.362 . S
C866 C869 1.409 . S
C867 H859 0.930 . S
C867 C868 1.355 . S
C867 C869 1.415 1_545 S
C868 C867 1.355 . S
C868 C870 1.419 . S
C869 C864 1.425 1_565 S
C869 C866 1.409 . S
C869 C867 1.415 1_565 S
C870 H860 0.930 . S
C870 C868 1.419 . S
C870 C871 1.362 . S
C871 H861 0.930 . S
C871 C864 1.409 . S
C871 C870 1.362 . S
H872 C878 0.930 . S
H873 C881 0.930 . S
H874 C882 0.930 . S
H875 C883 0.930 . S
H876 C886 0.930 . S
H877 C887 0.930 . S
C878 H872 0.930 . S
C878 C879 1.355 . S
C878 C880 1.415 . S
C879 C878 1.355 . S
C879 C881 1.419 . S
C880 C878 1.415 . S
C880 C885 1.425 . S
C880 C887 1.409 . S
C881 H873 0.930 . S
C881 C879 1.419 . S
C881 C882 1.362 . S
C882 H874 0.930 . S
C882 C881 1.362 . S
C882 C885 1.409 . S
C883 H875 0.930 . S
C883 C884 1.355 . S
C883 C885 1.415 . S
C884 C883 1.355 . S
C884 C886 1.419 . S
C885 C880 1.425 . S
C885 C882 1.409 . S
C885 C883 1.415 . S
C886 H876 0.930 . S
C886 C884 1.419 . S
C886 C887 1.362 . S
C887 H877 0.930 . S
C887 C880 1.409 . S
C887 C886 1.362 . S
H888 C894 0.930 . S
H889 C897 0.930 . S
H890 C898 0.930 . S
H891 C899 0.930 . S
H892 C902 0.930 . S
H893 C903 0.930 . S
C894 H888 0.930 . S
C894 C895 1.355 . S
C894 C896 1.415 . S
C895 C894 1.355 . S
C895 C897 1.419 . S
C896 C894 1.415 . S
C896 C901 1.425 1_545 S
C896 C903 1.409 . S
C897 H889 0.930 . S
C897 C895 1.419 . S
C897 C898 1.362 1_545 S
C898 H890 0.930 . S
C898 C897 1.362 1_565 S
C898 C901 1.409 . S
C899 H891 0.930 . S
C899 C900 1.355 . S
C899 C901 1.415 . S
C900 C899 1.355 . S
C900 C902 1.419 . S
C901 C896 1.425 1_565 S
C901 C898 1.409 . S
C901 C899 1.415 . S
C902 H892 0.930 . S
C902 C900 1.419 . S
C902 C903 1.362 1_565 S
C903 H893 0.930 . S
C903 C896 1.409 . S
C903 C902 1.362 1_545 S
H904 C910 0.930 . S
H905 C913 0.930 . S
H906 C914 0.930 . S
H907 C915 0.930 . S
H908 C918 0.930 . S
H909 C919 0.930 . S
C910 H904 0.930 . S
C910 C911 1.355 . S
C910 C912 1.415 . S
C911 C910 1.355 . S
C911 C913 1.419 . S
C912 C910 1.415 . S
C912 C917 1.425 . S
C912 C919 1.409 . S
C913 H905 0.930 . S
C913 C911 1.419 . S
C913 C914 1.362 . S
C914 H906 0.930 . S
C914 C913 1.362 . S
C914 C917 1.409 . S
C915 H907 0.930 . S
C915 C916 1.355 . S
C915 C917 1.415 . S
C916 C915 1.355 . S
C916 C918 1.419 . S
C917 C912 1.425 . S
C917 C914 1.409 . S
C917 C915 1.415 . S
C918 H908 0.930 . S
C918 C916 1.419 . S
C918 C919 1.362 . S
C919 H909 0.930 . S
C919 C912 1.409 . S
C919 C918 1.362 . S
H920 C926 0.930 . S
H921 C929 0.930 . S
H922 C930 0.930 . S
H923 C931 0.930 . S
H924 C934 0.930 . S
H925 C935 0.930 . S
C926 H920 0.930 . S
C926 C927 1.355 . S
C926 C928 1.415 . S
C927 C926 1.355 . S
C927 C929 1.419 . S
C928 C926 1.415 . S
C928 C933 1.425 1_655 S
C928 C935 1.409 . S
C929 H921 0.930 . S
C929 C927 1.419 . S
C929 C930 1.362 1_655 S
C930 H922 0.930 . S
C930 C929 1.362 1_455 S
C930 C933 1.409 . S
C931 H923 0.930 . S
C931 C932 1.355 . S
C931 C933 1.415 . S
C932 C931 1.355 . S
C932 C934 1.419 . S
C933 C928 1.425 1_455 S
C933 C930 1.409 . S
C933 C931 1.415 . S
C934 H924 0.930 . S
C934 C932 1.419 . S
C934 C935 1.362 1_455 S
C935 H925 0.930 . S
C935 C928 1.409 . S
C935 C934 1.362 1_655 S
H936 C942 0.930 . S
H937 C945 0.930 . S
H938 C946 0.930 . S
H939 C947 0.930 . S
H940 C950 0.930 . S
H941 C951 0.930 . S
C942 H936 0.930 . S
C942 C943 1.355 . S
C942 C944 1.415 . S
C943 C942 1.355 . S
C943 C945 1.419 . S
C944 C942 1.415 . S
C944 C949 1.425 1_655 S
C944 C951 1.409 . S
C945 H937 0.930 . S
C945 C943 1.419 . S
C945 C946 1.362 1_655 S
C946 H938 0.930 . S
C946 C945 1.362 1_455 S
C946 C949 1.409 . S
C947 H939 0.930 . S
C947 C948 1.355 . S
C947 C949 1.415 . S
C948 C947 1.355 . S
C948 C950 1.419 . S
C949 C944 1.425 1_455 S
C949 C946 1.409 . S
C949 C947 1.415 . S
C950 H940 0.930 . S
C950 C948 1.419 . S
C950 C951 1.362 1_455 S
C951 H941 0.930 . S
C951 C944 1.409 . S
C951 C950 1.362 1_655 S
H952 C958 0.930 . S
H953 C961 0.930 . S
H954 C962 0.930 . S
H955 C963 0.930 . S
H956 C966 0.930 . S
H957 C967 0.930 . S
C958 H952 0.930 . S
C958 C959 1.355 . S
C958 C960 1.415 . S
C959 C958 1.355 . S
C959 C961 1.419 . S
C960 C958 1.415 . S
C960 C965 1.425 1_545 S
C960 C967 1.409 . S
C961 H953 0.930 . S
C961 C959 1.419 . S
C961 C962 1.362 1_545 S
C962 H954 0.930 . S
C962 C961 1.362 1_565 S
C962 C965 1.409 . S
C963 H955 0.930 . S
C963 C964 1.355 . S
C963 C965 1.415 . S
C964 C963 1.355 . S
C964 C966 1.419 . S
C965 C960 1.425 1_565 S
C965 C962 1.409 . S
C965 C963 1.415 . S
C966 H956 0.930 . S
C966 C964 1.419 . S
C966 C967 1.362 1_565 S
C967 H957 0.930 . S
C967 C960 1.409 . S
C967 C966 1.362 1_545 S
H968 C974 0.930 . S
H969 C977 0.930 . S
H970 C978 0.930 . S
H971 C979 0.930 . S
H972 C982 0.930 . S
H973 C983 0.930 . S
C974 H968 0.930 . S
C974 C975 1.355 . S
C974 C976 1.415 . S
C975 C974 1.355 . S
C975 C977 1.419 . S
C976 C974 1.415 . S
C976 C981 1.425 . S
C976 C983 1.409 . S
C977 H969 0.930 . S
C977 C975 1.419 . S
C977 C978 1.362 . S
C978 H970 0.930 . S
C978 C977 1.362 . S
C978 C981 1.409 . S
C979 H971 0.930 . S
C979 C980 1.355 . S
C979 C981 1.415 . S
C980 C979 1.355 . S
C980 C982 1.419 . S
C981 C976 1.425 . S
C981 C978 1.409 . S
C981 C979 1.415 . S
C982 H972 0.930 . S
C982 C980 1.419 . S
C982 C983 1.362 . S
C983 H973 0.930 . S
C983 C976 1.409 . S
C983 C982 1.362 . S
H984 C990 0.930 . S
H985 C993 0.930 . S
H986 C994 0.930 . S
H987 C995 0.930 . S
H988 C998 0.930 . S
H989 C999 0.930 . S
C990 H984 0.930 . S
C990 C991 1.355 . S
C990 C992 1.415 . S
C991 C990 1.355 . S
C991 C993 1.419 . S
C992 C990 1.415 . S
C992 C997 1.425 . S
C992 C999 1.409 . S
C993 H985 0.930 . S
C993 C991 1.419 . S
C993 C994 1.362 . S
C994 H986 0.930 . S
C994 C993 1.362 . S
C994 C997 1.409 . S
C995 H987 0.930 . S
C995 C996 1.355 . S
C995 C997 1.415 . S
C996 C995 1.355 . S
C996 C998 1.419 . S
C997 C992 1.425 . S
C997 C994 1.409 . S
C997 C995 1.415 . S
C998 H988 0.930 . S
C998 C996 1.419 . S
C998 C999 1.362 . S
C999 H989 0.930 . S
C999 C992 1.409 . S
C999 C998 1.362 . S
H1000 C1006 0.930 . S
H1001 C1009 0.930 . S
H1002 C1010 0.930 . S
H1003 C1011 0.930 . S
H1004 C1014 0.930 . S
H1005 C1015 0.930 . S
C1006 H1000 0.930 . S
C1006 C1007 1.355 . S
C1006 C1008 1.415 . S
C1007 C1006 1.355 . S
C1007 C1009 1.419 . S
C1008 C1006 1.415 . S
C1008 C1013 1.425 . S
C1008 C1015 1.409 . S
C1009 H1001 0.930 . S
C1009 C1007 1.419 . S
C1009 C1010 1.362 . S
C1010 H1002 0.930 . S
C1010 C1009 1.362 . S
C1010 C1013 1.409 . S
C1011 H1003 0.930 . S
C1011 C1012 1.355 . S
C1011 C1013 1.415 . S
C1012 C1011 1.355 . S
C1012 C1014 1.419 . S
C1013 C1008 1.425 . S
C1013 C1010 1.409 . S
C1013 C1011 1.415 . S
C1014 H1004 0.930 . S
C1014 C1012 1.419 . S
C1014 C1015 1.362 . S
C1015 H1005 0.930 . S
C1015 C1008 1.409 . S
C1015 C1014 1.362 . S
H1016 C1022 0.930 . S
H1017 C1025 0.930 . S
H1018 C1026 0.930 . S
H1019 C1027 0.930 . S
H1020 C1030 0.930 . S
H1021 C1031 0.930 . S
C1022 H1016 0.930 . S
C1022 C1023 1.355 . S
C1022 C1024 1.415 . S
C1023 C1022 1.355 . S
C1023 C1025 1.419 . S
C1024 C1022 1.415 . S
C1024 C1029 1.425 . S
C1024 C1031 1.409 . S
C1025 H1017 0.930 . S
C1025 C1023 1.419 . S
C1025 C1026 1.362 . S
C1026 H1018 0.930 . S
C1026 C1025 1.362 . S
C1026 C1029 1.409 . S
C1027 H1019 0.930 . S
C1027 C1028 1.355 . S
C1027 C1029 1.415 . S
C1028 C1027 1.355 . S
C1028 C1030 1.419 . S
C1029 C1024 1.425 . S
C1029 C1026 1.409 . S
C1029 C1027 1.415 . S
C1030 H1020 0.930 . S
C1030 C1028 1.419 . S
C1030 C1031 1.362 . S
C1031 H1021 0.930 . S
C1031 C1024 1.409 . S
C1031 C1030 1.362 . S
H1032 C1038 0.930 . S
H1033 C1041 0.930 . S
H1034 C1042 0.930 . S
H1035 C1043 0.930 . S
H1036 C1046 0.930 . S
H1037 C1047 0.930 . S
C1038 H1032 0.930 . S
C1038 C1039 1.355 . S
C1038 C1040 1.415 . S
C1039 C1038 1.355 . S
C1039 C1041 1.419 . S
C1040 C1038 1.415 . S
C1040 C1045 1.425 . S
C1040 C1047 1.409 . S
C1041 H1033 0.930 . S
C1041 C1039 1.419 . S
C1041 C1042 1.362 . S
C1042 H1034 0.930 . S
C1042 C1041 1.362 . S
C1042 C1045 1.409 . S
C1043 H1035 0.930 . S
C1043 C1044 1.355 . S
C1043 C1045 1.415 . S
C1044 C1043 1.355 . S
C1044 C1046 1.419 . S
C1045 C1040 1.425 . S
C1045 C1042 1.409 . S
C1045 C1043 1.415 . S
C1046 H1036 0.930 . S
C1046 C1044 1.419 . S
C1046 C1047 1.362 . S
C1047 H1037 0.930 . S
C1047 C1040 1.409 . S
C1047 C1046 1.362 . S
H1048 C1054 0.930 . S
H1049 C1057 0.930 . S
H1050 C1058 0.930 . S
H1051 C1059 0.930 . S
H1052 C1062 0.930 . S
H1053 C1063 0.930 . S
C1054 H1048 0.930 . S
C1054 C1055 1.355 . S
C1054 C1056 1.415 . S
C1055 C1054 1.355 . S
C1055 C1057 1.419 . S
C1056 C1054 1.415 . S
C1056 C1061 1.425 . S
C1056 C1063 1.409 . S
C1057 H1049 0.930 . S
C1057 C1055 1.419 . S
C1057 C1058 1.362 . S
C1058 H1050 0.930 . S
C1058 C1057 1.362 . S
C1058 C1061 1.409 . S
C1059 H1051 0.930 . S
C1059 C1060 1.355 . S
C1059 C1061 1.415 . S
C1060 C1059 1.355 . S
C1060 C1062 1.419 . S
C1061 C1056 1.425 . S
C1061 C1058 1.409 . S
C1061 C1059 1.415 . S
C1062 H1052 0.930 . S
C1062 C1060 1.419 . S
C1062 C1063 1.362 . S
C1063 H1053 0.930 . S
C1063 C1056 1.409 . S
C1063 C1062 1.362 . S
H1064 C1070 0.930 . S
H1065 C1073 0.930 . S
H1066 C1074 0.930 . S
H1067 C1075 0.930 . S
H1068 C1078 0.930 . S
H1069 C1079 0.930 . S
C1070 H1064 0.930 . S
C1070 C1071 1.355 . S
C1070 C1072 1.415 . S
C1071 C1070 1.355 . S
C1071 C1073 1.419 . S
C1072 C1070 1.415 . S
C1072 C1077 1.425 . S
C1072 C1079 1.409 . S
C1073 H1065 0.930 . S
C1073 C1071 1.419 . S
C1073 C1074 1.362 . S
C1074 H1066 0.930 . S
C1074 C1073 1.362 . S
C1074 C1077 1.409 . S
C1075 H1067 0.930 . S
C1075 C1076 1.355 . S
C1075 C1077 1.415 . S
C1076 C1075 1.355 . S
C1076 C1078 1.419 . S
C1077 C1072 1.425 . S
C1077 C1074 1.409 . S
C1077 C1075 1.415 . S
C1078 H1068 0.930 . S
C1078 C1076 1.419 . S
C1078 C1079 1.362 . S
C1079 H1069 0.930 . S
C1079 C1072 1.409 . S
C1079 C1078 1.362 . S
H1080 C1086 0.930 . S
H1081 C1089 0.930 . S
H1082 C1090 0.930 . S
H1083 C1091 0.930 . S
H1084 C1094 0.930 . S
H1085 C1095 0.930 . S
C1086 H1080 0.930 . S
C1086 C1087 1.355 . S
C1086 C1088 1.415 . S
C1087 C1086 1.355 . S
C1087 C1089 1.419 . S
C1088 C1086 1.415 . S
C1088 C1093 1.425 . S
C1088 C1095 1.409 . S
C1089 H1081 0.930 . S
C1089 C1087 1.419 . S
C1089 C1090 1.362 . S
C1090 H1082 0.930 . S
C1090 C1089 1.362 . S
C1090 C1093 1.409 . S
C1091 H1083 0.930 . S
C1091 C1092 1.355 . S
C1091 C1093 1.415 . S
C1092 C1091 1.355 . S
C1092 C1094 1.419 . S
C1093 C1088 1.425 . S
C1093 C1090 1.409 . S
C1093 C1091 1.415 . S
C1094 H1084 0.930 . S
C1094 C1092 1.419 . S
C1094 C1095 1.362 . S
C1095 H1085 0.930 . S
C1095 C1088 1.409 . S
C1095 C1094 1.362 . S
H1096 C1102 0.930 . S
H1097 C1105 0.930 . S
H1098 C1106 0.930 . S
H1099 C1107 0.930 . S
H1100 C1110 0.930 . S
H1101 C1111 0.930 . S
C1102 H1096 0.930 . S
C1102 C1103 1.355 . S
C1102 C1104 1.415 . S
C1103 C1102 1.355 . S
C1103 C1105 1.419 . S
C1104 C1102 1.415 . S
C1104 C1109 1.425 . S
C1104 C1111 1.409 . S
C1105 H1097 0.930 . S
C1105 C1103 1.419 . S
C1105 C1106 1.362 . S
C1106 H1098 0.930 . S
C1106 C1105 1.362 . S
C1106 C1109 1.409 . S
C1107 H1099 0.930 . S
C1107 C1108 1.355 . S
C1107 C1109 1.415 . S
C1108 C1107 1.355 . S
C1108 C1110 1.419 . S
C1109 C1104 1.425 . S
C1109 C1106 1.409 . S
C1109 C1107 1.415 . S
C1110 H1100 0.930 . S
C1110 C1108 1.419 . S
C1110 C1111 1.362 . S
C1111 H1101 0.930 . S
C1111 C1104 1.409 . S
C1111 C1110 1.362 . S
H1112 C1118 0.930 . S
H1113 C1121 0.930 . S
H1114 C1122 0.930 . S
H1115 C1123 0.930 . S
H1116 C1126 0.930 . S
H1117 C1127 0.930 . S
C1118 H1112 0.930 . S
C1118 C1119 1.355 . S
C1118 C1120 1.415 . S
C1119 C1118 1.355 . S
C1119 C1121 1.419 . S
C1120 C1118 1.415 . S
C1120 C1125 1.425 . S
C1120 C1127 1.409 . S
C1121 H1113 0.930 . S
C1121 C1119 1.419 . S
C1121 C1122 1.362 . S
C1122 H1114 0.930 . S
C1122 C1121 1.362 . S
C1122 C1125 1.409 . S
C1123 H1115 0.930 . S
C1123 C1124 1.355 . S
C1123 C1125 1.415 . S
C1124 C1123 1.355 . S
C1124 C1126 1.419 . S
C1125 C1120 1.425 . S
C1125 C1122 1.409 . S
C1125 C1123 1.415 . S
C1126 H1116 0.930 . S
C1126 C1124 1.419 . S
C1126 C1127 1.362 . S
C1127 H1117 0.930 . S
C1127 C1120 1.409 . S
C1127 C1126 1.362 . S
H1128 C1134 0.930 . S
H1129 C1137 0.930 . S
H1130 C1138 0.930 . S
H1131 C1139 0.930 . S
H1132 C1142 0.930 . S
H1133 C1143 0.930 . S
C1134 H1128 0.930 . S
C1134 C1135 1.355 . S
C1134 C1136 1.415 . S
C1135 C1134 1.355 . S
C1135 C1137 1.419 . S
C1136 C1134 1.415 . S
C1136 C1141 1.425 . S
C1136 C1143 1.409 . S
C1137 H1129 0.930 . S
C1137 C1135 1.419 . S
C1137 C1138 1.362 . S
C1138 H1130 0.930 . S
C1138 C1137 1.362 . S
C1138 C1141 1.409 . S
C1139 H1131 0.930 . S
C1139 C1140 1.355 . S
C1139 C1141 1.415 . S
C1140 C1139 1.355 . S
C1140 C1142 1.419 . S
C1141 C1136 1.425 . S
C1141 C1138 1.409 . S
C1141 C1139 1.415 . S
C1142 H1132 0.930 . S
C1142 C1140 1.419 . S
C1142 C1143 1.362 . S
C1143 H1133 0.930 . S
C1143 C1136 1.409 . S
C1143 C1142 1.362 . S
H1144 C1150 0.930 . S
H1145 C1153 0.930 . S
H1146 C1154 0.930 . S
H1147 C1155 0.930 . S
H1148 C1158 0.930 . S
H1149 C1159 0.930 . S
C1150 H1144 0.930 . S
C1150 C1151 1.355 . S
C1150 C1152 1.415 . S
C1151 C1150 1.355 . S
C1151 C1153 1.419 . S
C1152 C1150 1.415 . S
C1152 C1157 1.425 . S
C1152 C1159 1.409 . S
C1153 H1145 0.930 . S
C1153 C1151 1.419 . S
C1153 C1154 1.362 . S
C1154 H1146 0.930 . S
C1154 C1153 1.362 . S
C1154 C1157 1.409 . S
C1155 H1147 0.930 . S
C1155 C1156 1.355 . S
C1155 C1157 1.415 . S
C1156 C1155 1.355 . S
C1156 C1158 1.419 . S
C1157 C1152 1.425 . S
C1157 C1154 1.409 . S
C1157 C1155 1.415 . S
C1158 H1148 0.930 . S
C1158 C1156 1.419 . S
C1158 C1159 1.362 . S
C1159 H1149 0.930 . S
C1159 C1152 1.409 . S
C1159 C1158 1.362 . S
H1160 C1166 0.930 . S
H1161 C1169 0.930 . S
H1162 C1170 0.930 . S
H1163 C1171 0.930 . S
H1164 C1174 0.930 . S
H1165 C1175 0.930 . S
C1166 H1160 0.930 . S
C1166 C1167 1.355 . S
C1166 C1168 1.415 . S
C1167 C1166 1.355 . S
C1167 C1169 1.419 . S
C1168 C1166 1.415 . S
C1168 C1173 1.425 . S
C1168 C1175 1.409 . S
C1169 H1161 0.930 . S
C1169 C1167 1.419 . S
C1169 C1170 1.362 . S
C1170 H1162 0.930 . S
C1170 C1169 1.362 . S
C1170 C1173 1.409 . S
C1171 H1163 0.930 . S
C1171 C1172 1.355 . S
C1171 C1173 1.415 . S
C1172 C1171 1.355 . S
C1172 C1174 1.419 . S
C1173 C1168 1.425 . S
C1173 C1170 1.409 . S
C1173 C1171 1.415 . S
C1174 H1164 0.930 . S
C1174 C1172 1.419 . S
C1174 C1175 1.362 . S
C1175 H1165 0.930 . S
C1175 C1168 1.409 . S
C1175 C1174 1.362 . S
H1176 C1182 0.930 . S
H1177 C1185 0.930 . S
H1178 C1186 0.930 . S
H1179 C1187 0.930 . S
H1180 C1190 0.930 . S
H1181 C1191 0.930 . S
C1182 H1176 0.930 . S
C1182 C1183 1.355 . S
C1182 C1184 1.415 1_545 S
C1183 C1182 1.355 . S
C1183 C1185 1.419 . S
C1184 C1182 1.415 1_565 S
C1184 C1189 1.425 1_565 S
C1184 C1191 1.409 . S
C1185 H1177 0.930 . S
C1185 C1183 1.419 . S
C1185 C1186 1.362 . S
C1186 H1178 0.930 . S
C1186 C1185 1.362 . S
C1186 C1189 1.409 . S
C1187 H1179 0.930 . S
C1187 C1188 1.355 . S
C1187 C1189 1.415 1_565 S
C1188 C1187 1.355 . S
C1188 C1190 1.419 . S
C1189 C1184 1.425 1_545 S
C1189 C1186 1.409 . S
C1189 C1187 1.415 1_545 S
C1190 H1180 0.930 . S
C1190 C1188 1.419 . S
C1190 C1191 1.362 . S
C1191 H1181 0.930 . S
C1191 C1184 1.409 . S
C1191 C1190 1.362 . S
H1192 C1198 0.930 . S
H1193 C1201 0.930 . S
H1194 C1202 0.930 . S
H1195 C1203 0.930 . S
H1196 C1206 0.930 . S
H1197 C1207 0.930 . S
C1198 H1192 0.930 . S
C1198 C1199 1.355 . S
C1198 C1200 1.415 . S
C1199 C1198 1.355 . S
C1199 C1201 1.419 . S
C1200 C1198 1.415 . S
C1200 C1205 1.425 . S
C1200 C1207 1.409 . S
C1201 H1193 0.930 . S
C1201 C1199 1.419 . S
C1201 C1202 1.362 . S
C1202 H1194 0.930 . S
C1202 C1201 1.362 . S
C1202 C1205 1.409 . S
C1203 H1195 0.930 . S
C1203 C1204 1.355 . S
C1203 C1205 1.415 . S
C1204 C1203 1.355 . S
C1204 C1206 1.419 . S
C1205 C1200 1.425 . S
C1205 C1202 1.409 . S
C1205 C1203 1.415 . S
C1206 H1196 0.930 . S
C1206 C1204 1.419 . S
C1206 C1207 1.362 . S
C1207 H1197 0.930 . S
C1207 C1200 1.409 . S
C1207 C1206 1.362 . S
H1208 C1214 0.930 . S
H1209 C1217 0.930 . S
H1210 C1218 0.930 . S
H1211 C1219 0.930 . S
H1212 C1222 0.930 . S
H1213 C1223 0.930 . S
C1214 H1208 0.930 . S
C1214 C1215 1.355 . S
C1214 C1216 1.413 . S
C1215 C1214 1.355 . S
C1215 C1217 1.419 . S
C1216 C1214 1.413 . S
C1216 C1221 1.424 1_455 S
C1216 C1223 1.412 1_455 S
C1217 H1209 0.930 . S
C1217 C1215 1.419 . S
C1217 C1218 1.362 . S
C1218 H1210 0.930 . S
C1218 C1217 1.362 . S
C1218 C1221 1.411 1_455 S
C1219 H1211 0.930 . S
C1219 C1220 1.355 . S
C1219 C1221 1.414 . S
C1220 C1219 1.355 . S
C1220 C1222 1.419 . S
C1221 C1216 1.424 1_655 S
C1221 C1218 1.411 1_655 S
C1221 C1219 1.414 . S
C1222 H1212 0.930 . S
C1222 C1220 1.419 . S
C1222 C1223 1.362 . S
C1223 H1213 0.930 . S
C1223 C1216 1.412 1_655 S
C1223 C1222 1.362 . S
H1224 C1230 0.930 . S
H1225 C1233 0.930 . S
H1226 C1234 0.930 . S
H1227 C1235 0.930 . S
H1228 C1238 0.930 . S
H1229 C1239 0.930 . S
C1230 H1224 0.930 . S
C1230 C1231 1.355 . S
C1230 C1232 1.415 1_565 S
C1231 C1230 1.355 . S
C1231 C1233 1.419 . S
C1232 C1230 1.415 1_545 S
C1232 C1237 1.425 1_545 S
C1232 C1239 1.409 . S
C1233 H1225 0.930 . S
C1233 C1231 1.419 . S
C1233 C1234 1.362 . S
C1234 H1226 0.930 . S
C1234 C1233 1.362 . S
C1234 C1237 1.409 . S
C1235 H1227 0.930 . S
C1235 C1236 1.355 . S
C1235 C1237 1.415 1_545 S
C1236 C1235 1.355 . S
C1236 C1238 1.419 . S
C1237 C1232 1.425 1_565 S
C1237 C1234 1.409 . S
C1237 C1235 1.415 1_565 S
C1238 H1228 0.930 . S
C1238 C1236 1.419 . S
C1238 C1239 1.362 . S
C1239 H1229 0.930 . S
C1239 C1232 1.409 . S
C1239 C1238 1.362 . S
H1240 C1246 0.930 . S
H1241 C1249 0.930 . S
H1242 C1250 0.930 . S
H1243 C1251 0.930 . S
H1244 C1254 0.930 . S
H1245 C1255 0.930 . S
C1246 H1240 0.930 . S
C1246 C1247 1.355 . S
C1246 C1248 1.415 . S
C1247 C1246 1.355 . S
C1247 C1249 1.419 . S
C1248 C1246 1.415 . S
C1248 C1253 1.425 . S
C1248 C1255 1.409 . S
C1249 H1241 0.930 . S
C1249 C1247 1.419 . S
C1249 C1250 1.362 . S
C1250 H1242 0.930 . S
C1250 C1249 1.362 . S
C1250 C1253 1.409 . S
C1251 H1243 0.930 . S
C1251 C1252 1.355 . S
C1251 C1253 1.415 . S
C1252 C1251 1.355 . S
C1252 C1254 1.419 . S
C1253 C1248 1.425 . S
C1253 C1250 1.409 . S
C1253 C1251 1.415 . S
C1254 H1244 0.930 . S
C1254 C1252 1.419 . S
C1254 C1255 1.362 . S
C1255 H1245 0.930 . S
C1255 C1248 1.409 . S
C1255 C1254 1.362 . S
H1256 C1262 0.930 . S
H1257 C1265 0.930 . S
H1258 C1266 0.930 . S
H1259 C1267 0.930 . S
H1260 C1270 0.930 . S
H1261 C1271 0.930 . S
C1262 H1256 0.930 . S
C1262 C1263 1.355 . S
C1262 C1264 1.415 . S
C1263 C1262 1.355 . S
C1263 C1265 1.419 . S
C1264 C1262 1.415 . S
C1264 C1269 1.425 1_655 S
C1264 C1271 1.409 1_655 S
C1265 H1257 0.930 . S
C1265 C1263 1.419 . S
C1265 C1266 1.362 . S
C1266 H1258 0.930 . S
C1266 C1265 1.362 . S
C1266 C1269 1.409 1_655 S
C1267 H1259 0.930 . S
C1267 C1268 1.355 . S
C1267 C1269 1.415 . S
C1268 C1267 1.355 . S
C1268 C1270 1.419 . S
C1269 C1264 1.425 1_455 S
C1269 C1266 1.409 1_455 S
C1269 C1267 1.415 . S
C1270 H1260 0.930 . S
C1270 C1268 1.419 . S
C1270 C1271 1.362 . S
C1271 H1261 0.930 . S
C1271 C1264 1.409 1_455 S
C1271 C1270 1.362 . S
H1272 C1278 0.930 . S
H1273 C1281 0.930 . S
H1274 C1282 0.930 . S
H1275 C1283 0.930 . S
H1276 C1286 0.930 . S
H1277 C1287 0.930 . S
C1278 H1272 0.930 . S
C1278 C1279 1.355 . S
C1278 C1280 1.411 1_565 S
C1279 C1278 1.355 . S
C1279 C1281 1.419 . S
C1280 C1278 1.411 1_545 S
C1280 C1285 1.421 1_545 S
C1280 C1287 1.415 . S
C1281 H1273 0.930 . S
C1281 C1279 1.419 . S
C1281 C1282 1.362 . S
C1282 H1274 0.930 . S
C1282 C1281 1.362 . S
C1282 C1285 1.414 . S
C1283 H1275 0.930 . S
C1283 C1284 1.355 . S
C1283 C1285 1.412 1_545 S
C1284 C1283 1.355 . S
C1284 C1286 1.419 . S
C1285 C1280 1.421 1_565 S
C1285 C1282 1.414 . S
C1285 C1283 1.412 1_565 S
C1286 H1276 0.930 . S
C1286 C1284 1.419 . S
C1286 C1287 1.362 . S
C1287 H1277 0.930 . S
C1287 C1280 1.415 . S
C1287 C1286 1.362 . S
H1288 C1294 0.930 . S
H1289 C1297 0.930 . S
H1290 C1298 0.930 . S
H1291 C1299 0.930 . S
H1292 C1302 0.930 . S
H1293 C1303 0.930 . S
C1294 H1288 0.930 . S
C1294 C1295 1.355 . S
C1294 C1296 1.415 . S
C1295 C1294 1.355 . S
C1295 C1297 1.419 . S
C1296 C1294 1.415 . S
C1296 C1301 1.425 . S
C1296 C1303 1.409 . S
C1297 H1289 0.930 . S
C1297 C1295 1.419 . S
C1297 C1298 1.362 . S
C1298 H1290 0.930 . S
C1298 C1297 1.362 . S
C1298 C1301 1.409 . S
C1299 H1291 0.930 . S
C1299 C1300 1.355 . S
C1299 C1301 1.415 . S
C1300 C1299 1.355 . S
C1300 C1302 1.419 . S
C1301 C1296 1.425 . S
C1301 C1298 1.409 . S
C1301 C1299 1.415 . S
C1302 H1292 0.930 . S
C1302 C1300 1.419 . S
C1302 C1303 1.362 . S
C1303 H1293 0.930 . S
C1303 C1296 1.409 . S
C1303 C1302 1.362 . S
H1304 C1310 0.930 . S
H1305 C1313 0.930 . S
H1306 C1314 0.930 1_655 S
H1307 C1315 0.930 . S
H1308 C1318 0.930 . S
H1309 C1319 0.930 1_455 S
C1310 H1304 0.930 . S
C1310 C1311 1.355 . S
C1310 C1312 1.415 . S
C1311 C1310 1.355 . S
C1311 C1313 1.419 . S
C1312 C1310 1.415 . S
C1312 C1317 1.425 1_455 S
C1312 C1319 1.409 1_455 S
C1313 H1305 0.930 . S
C1313 C1311 1.419 . S
C1313 C1314 1.362 . S
C1314 H1306 0.930 1_455 S
C1314 C1313 1.362 . S
C1314 C1317 1.409 1_455 S
C1315 H1307 0.930 . S
C1315 C1316 1.355 . S
C1315 C1317 1.415 . S
C1316 C1315 1.355 . S
C1316 C1318 1.419 . S
C1317 C1312 1.425 1_655 S
C1317 C1314 1.409 1_655 S
C1317 C1315 1.415 . S
C1318 H1308 0.930 . S
C1318 C1316 1.419 . S
C1318 C1319 1.362 . S
C1319 H1309 0.930 1_655 S
C1319 C1312 1.409 1_655 S
C1319 C1318 1.362 . S
H1320 C1326 0.930 . S
H1321 C1329 0.930 . S
H1322 C1330 0.930 . S
H1323 C1331 0.930 . S
H1324 C1334 0.930 . S
H1325 C1335 0.930 . S
C1326 H1320 0.930 . S
C1326 C1327 1.355 . S
C1326 C1328 1.415 . S
C1327 C1326 1.355 . S
C1327 C1329 1.419 . S
C1328 C1326 1.415 . S
C1328 C1333 1.425 1_545 S
C1328 C1335 1.409 . S
C1329 H1321 0.930 . S
C1329 C1327 1.419 . S
C1329 C1330 1.362 1_545 S
C1330 H1322 0.930 . S
C1330 C1329 1.362 1_565 S
C1330 C1333 1.409 . S
C1331 H1323 0.930 . S
C1331 C1332 1.355 . S
C1331 C1333 1.415 . S
C1332 C1331 1.355 . S
C1332 C1334 1.419 . S
C1333 C1328 1.425 1_565 S
C1333 C1330 1.409 . S
C1333 C1331 1.415 . S
C1334 H1324 0.930 . S
C1334 C1332 1.419 . S
C1334 C1335 1.362 1_565 S
C1335 H1325 0.930 . S
C1335 C1328 1.409 . S
C1335 C1334 1.362 1_545 S
H1336 C1342 0.930 . S
H1337 C1345 0.930 . S
H1338 C1346 0.930 . S
H1339 C1347 0.930 . S
H1340 C1350 0.930 . S
H1341 C1351 0.930 . S
C1342 H1336 0.930 . S
C1342 C1343 1.355 . S
C1342 C1344 1.415 . S
C1343 C1342 1.355 . S
C1343 C1345 1.419 . S
C1344 C1342 1.415 . S
C1344 C1349 1.425 . S
C1344 C1351 1.409 . S
C1345 H1337 0.930 . S
C1345 C1343 1.419 . S
C1345 C1346 1.362 . S
C1346 H1338 0.930 . S
C1346 C1345 1.362 . S
C1346 C1349 1.409 . S
C1347 H1339 0.930 . S
C1347 C1348 1.355 . S
C1347 C1349 1.415 . S
C1348 C1347 1.355 . S
C1348 C1350 1.419 . S
C1349 C1344 1.425 . S
C1349 C1346 1.409 . S
C1349 C1347 1.415 . S
C1350 H1340 0.930 . S
C1350 C1348 1.419 . S
C1350 C1351 1.362 . S
C1351 H1341 0.930 . S
C1351 C1344 1.409 . S
C1351 C1350 1.362 . S
H1352 C1358 0.930 . S
H1353 C1361 0.930 . S
H1354 C1362 0.930 . S
H1355 C1363 0.930 . S
H1356 C1366 0.930 . S
H1357 C1367 0.930 . S
C1358 H1352 0.930 . S
C1358 C1359 1.355 . S
C1358 C1360 1.415 1_455 S
C1359 C1358 1.355 . S
C1359 C1361 1.419 . S
C1360 C1358 1.415 1_655 S
C1360 C1365 1.425 1_655 S
C1360 C1367 1.409 . S
C1361 H1353 0.930 . S
C1361 C1359 1.419 . S
C1361 C1362 1.362 . S
C1362 H1354 0.930 . S
C1362 C1361 1.362 . S
C1362 C1365 1.409 . S
C1363 H1355 0.930 . S
C1363 C1364 1.355 . S
C1363 C1365 1.415 1_655 S
C1364 C1363 1.355 . S
C1364 C1366 1.419 . S
C1365 C1360 1.425 1_455 S
C1365 C1362 1.409 . S
C1365 C1363 1.415 1_455 S
C1366 H1356 0.930 . S
C1366 C1364 1.419 . S
C1366 C1367 1.362 . S
C1367 H1357 0.930 . S
C1367 C1360 1.409 . S
C1367 C1366 1.362 . S
H1368 C1374 0.930 . S
H1369 C1377 0.930 . S
H1370 C1378 0.930 . S
H1371 C1379 0.930 . S
H1372 C1382 0.930 . S
H1373 C1383 0.930 . S
C1374 H1368 0.930 . S
C1374 C1375 1.355 . S
C1374 C1376 1.415 . S
C1375 C1374 1.355 . S
C1375 C1377 1.419 . S
C1376 C1374 1.415 . S
C1376 C1381 1.425 . S
C1376 C1383 1.409 . S
C1377 H1369 0.930 . S
C1377 C1375 1.419 . S
C1377 C1378 1.362 . S
C1378 H1370 0.930 . S
C1378 C1377 1.362 . S
C1378 C1381 1.409 . S
C1379 H1371 0.930 . S
C1379 C1380 1.355 . S
C1379 C1381 1.415 . S
C1380 C1379 1.355 . S
C1380 C1382 1.419 . S
C1381 C1376 1.425 . S
C1381 C1378 1.409 . S
C1381 C1379 1.415 . S
C1382 H1372 0.930 . S
C1382 C1380 1.419 . S
C1382 C1383 1.362 . S
C1383 H1373 0.930 . S
C1383 C1376 1.409 . S
C1383 C1382 1.362 . S
H1384 C1390 0.930 . S
H1385 C1393 0.930 . S
H1386 C1394 0.930 . S
H1387 C1395 0.930 . S
H1388 C1398 0.930 . S
H1389 C1399 0.930 . S
C1390 H1384 0.930 . S
C1390 C1391 1.355 . S
C1390 C1392 1.415 . S
C1391 C1390 1.355 . S
C1391 C1393 1.419 . S
C1392 C1390 1.415 . S
C1392 C1397 1.425 . S
C1392 C1399 1.409 . S
C1393 H1385 0.930 . S
C1393 C1391 1.419 . S
C1393 C1394 1.362 . S
C1394 H1386 0.930 . S
C1394 C1393 1.362 . S
C1394 C1397 1.409 . S
C1395 H1387 0.930 . S
C1395 C1396 1.355 . S
C1395 C1397 1.415 . S
C1396 C1395 1.355 . S
C1396 C1398 1.419 . S
C1397 C1392 1.425 . S
C1397 C1394 1.409 . S
C1397 C1395 1.415 . S
C1398 H1388 0.930 . S
C1398 C1396 1.419 . S
C1398 C1399 1.362 . S
C1399 H1389 0.930 . S
C1399 C1392 1.409 . S
C1399 C1398 1.362 . S
H1400 C1406 0.930 . S
H1401 C1409 0.930 . S
H1402 C1410 0.930 . S
H1403 C1411 0.930 . S
H1404 C1414 0.930 . S
H1405 C1415 0.930 . S
C1406 H1400 0.930 . S
C1406 C1407 1.355 . S
C1406 C1408 1.415 . S
C1407 C1406 1.355 . S
C1407 C1409 1.419 . S
C1408 C1406 1.415 . S
C1408 C1413 1.425 . S
C1408 C1415 1.409 . S
C1409 H1401 0.930 . S
C1409 C1407 1.419 . S
C1409 C1410 1.362 . S
C1410 H1402 0.930 . S
C1410 C1409 1.362 . S
C1410 C1413 1.409 . S
C1411 H1403 0.930 . S
C1411 C1412 1.355 . S
C1411 C1413 1.415 . S
C1412 C1411 1.355 . S
C1412 C1414 1.419 . S
C1413 C1408 1.425 . S
C1413 C1410 1.409 . S
C1413 C1411 1.415 . S
C1414 H1404 0.930 . S
C1414 C1412 1.419 . S
C1414 C1415 1.362 . S
C1415 H1405 0.930 . S
C1415 C1408 1.409 . S
C1415 C1414 1.362 . S
H1416 C1422 0.930 . S
H1417 C1425 0.930 . S
H1418 C1426 0.930 . S
H1419 C1427 0.930 . S
H1420 C1430 0.930 . S
H1421 C1431 0.930 . S
C1422 H1416 0.930 . S
C1422 C1423 1.355 . S
C1422 C1424 1.415 . S
C1423 C1422 1.355 . S
C1423 C1425 1.419 . S
C1424 C1422 1.415 . S
C1424 C1429 1.425 . S
C1424 C1431 1.409 . S
C1425 H1417 0.930 . S
C1425 C1423 1.419 . S
C1425 C1426 1.362 . S
C1426 H1418 0.930 . S
C1426 C1425 1.362 . S
C1426 C1429 1.409 . S
C1427 H1419 0.930 . S
C1427 C1428 1.355 . S
C1427 C1429 1.415 . S
C1428 C1427 1.355 . S
C1428 C1430 1.419 . S
C1429 C1424 1.425 . S
C1429 C1426 1.409 . S
C1429 C1427 1.415 . S
C1430 H1420 0.930 . S
C1430 C1428 1.419 . S
C1430 C1431 1.362 . S
C1431 H1421 0.930 . S
C1431 C1424 1.409 . S
C1431 C1430 1.362 . S
H1432 C1438 0.930 . S
H1433 C1441 0.930 . S
H1434 C1442 0.930 . S
H1435 C1443 0.930 . S
H1436 C1446 0.930 . S
H1437 C1447 0.930 . S
C1438 H1432 0.930 . S
C1438 C1439 1.355 . S
C1438 C1440 1.415 . S
C1439 C1438 1.355 . S
C1439 C1441 1.419 . S
C1440 C1438 1.415 . S
C1440 C1445 1.425 . S
C1440 C1447 1.409 . S
C1441 H1433 0.930 . S
C1441 C1439 1.419 . S
C1441 C1442 1.362 . S
C1442 H1434 0.930 . S
C1442 C1441 1.362 . S
C1442 C1445 1.409 . S
C1443 H1435 0.930 . S
C1443 C1444 1.355 . S
C1443 C1445 1.415 . S
C1444 C1443 1.355 . S
C1444 C1446 1.419 . S
C1445 C1440 1.425 . S
C1445 C1442 1.409 . S
C1445 C1443 1.415 . S
C1446 H1436 0.930 . S
C1446 C1444 1.419 . S
C1446 C1447 1.362 . S
C1447 H1437 0.930 . S
C1447 C1440 1.409 . S
C1447 C1446 1.362 . S
H1448 C1454 0.930 . S
H1449 C1457 0.930 . S
H1450 C1458 0.930 . S
H1451 C1459 0.930 . S
H1452 C1462 0.930 . S
H1453 C1463 0.930 . S
C1454 H1448 0.930 . S
C1454 C1455 1.355 . S
C1454 C1456 1.415 . S
C1455 C1454 1.355 . S
C1455 C1457 1.419 . S
C1456 C1454 1.415 . S
C1456 C1461 1.425 . S
C1456 C1463 1.409 . S
C1457 H1449 0.930 . S
C1457 C1455 1.419 . S
C1457 C1458 1.362 . S
C1458 H1450 0.930 . S
C1458 C1457 1.362 . S
C1458 C1461 1.409 . S
C1459 H1451 0.930 . S
C1459 C1460 1.355 . S
C1459 C1461 1.415 . S
C1460 C1459 1.355 . S
C1460 C1462 1.419 . S
C1461 C1456 1.425 . S
C1461 C1458 1.409 . S
C1461 C1459 1.415 . S
C1462 H1452 0.930 . S
C1462 C1460 1.419 . S
C1462 C1463 1.362 . S
C1463 H1453 0.930 . S
C1463 C1456 1.409 . S
C1463 C1462 1.362 . S
H1464 C1470 0.930 . S
H1465 C1473 0.930 . S
H1466 C1474 0.930 . S
H1467 C1475 0.930 . S
H1468 C1478 0.930 . S
H1469 C1479 0.930 . S
C1470 H1464 0.930 . S
C1470 C1471 1.355 . S
C1470 C1472 1.415 . S
C1471 C1470 1.355 . S
C1471 C1473 1.419 . S
C1472 C1470 1.415 . S
C1472 C1477 1.425 . S
C1472 C1479 1.409 . S
C1473 H1465 0.930 . S
C1473 C1471 1.419 . S
C1473 C1474 1.362 . S
C1474 H1466 0.930 . S
C1474 C1473 1.362 . S
C1474 C1477 1.409 . S
C1475 H1467 0.930 . S
C1475 C1476 1.355 . S
C1475 C1477 1.415 . S
C1476 C1475 1.355 . S
C1476 C1478 1.419 . S
C1477 C1472 1.425 . S
C1477 C1474 1.409 . S
C1477 C1475 1.415 . S
C1478 H1468 0.930 . S
C1478 C1476 1.419 . S
C1478 C1479 1.362 . S
C1479 H1469 0.930 . S
C1479 C1472 1.409 . S
C1479 C1478 1.362 . S
H1480 C1486 0.930 . S
H1481 C1489 0.930 . S
H1482 C1490 0.930 . S
H1483 C1491 0.930 . S
H1484 C1494 0.930 . S
H1485 C1495 0.930 . S
C1486 H1480 0.930 . S
C1486 C1487 1.355 . S
C1486 C1488 1.415 . S
C1487 C1486 1.355 . S
C1487 C1489 1.419 . S
C1488 C1486 1.415 . S
C1488 C1493 1.425 . S
C1488 C1495 1.409 . S
C1489 H1481 0.930 . S
C1489 C1487 1.419 . S
C1489 C1490 1.362 . S
C1490 H1482 0.930 . S
C1490 C1489 1.362 . S
C1490 C1493 1.409 . S
C1491 H1483 0.930 . S
C1491 C1492 1.355 . S
C1491 C1493 1.415 . S
C1492 C1491 1.355 . S
C1492 C1494 1.419 . S
C1493 C1488 1.425 . S
C1493 C1490 1.409 . S
C1493 C1491 1.415 . S
C1494 H1484 0.930 . S
C1494 C1492 1.419 . S
C1494 C1495 1.362 . S
C1495 H1485 0.930 . S
C1495 C1488 1.409 . S
C1495 C1494 1.362 . S
H1496 C1502 0.930 . S
H1497 C1505 0.930 . S
H1498 C1506 0.930 . S
H1499 C1507 0.930 . S
H1500 C1510 0.930 . S
H1501 C1511 0.930 . S
C1502 H1496 0.930 . S
C1502 C1503 1.355 . S
C1502 C1504 1.415 . S
C1503 C1502 1.355 . S
C1503 C1505 1.419 . S
C1504 C1502 1.415 . S
C1504 C1509 1.425 . S
C1504 C1511 1.409 . S
C1505 H1497 0.930 . S
C1505 C1503 1.419 . S
C1505 C1506 1.362 . S
C1506 H1498 0.930 . S
C1506 C1505 1.362 . S
C1506 C1509 1.409 . S
C1507 H1499 0.930 . S
C1507 C1508 1.355 . S
C1507 C1509 1.415 . S
C1508 C1507 1.355 . S
C1508 C1510 1.419 . S
C1509 C1504 1.425 . S
C1509 C1506 1.409 . S
C1509 C1507 1.415 . S
C1510 H1500 0.930 . S
C1510 C1508 1.419 . S
C1510 C1511 1.362 . S
C1511 H1501 0.930 . S
C1511 C1504 1.409 . S
C1511 C1510 1.362 . S
H1512 C1518 0.930 . S
H1513 C1521 0.930 . S
H1514 C1522 0.930 . S
H1515 C1523 0.930 . S
H1516 C1526 0.930 . S
H1517 C1527 0.930 . S
C1518 H1512 0.930 . S
C1518 C1519 1.355 . S
C1518 C1520 1.415 . S
C1519 C1518 1.355 . S
C1519 C1521 1.419 . S
C1520 C1518 1.415 . S
C1520 C1525 1.425 . S
C1520 C1527 1.409 . S
C1521 H1513 0.930 . S
C1521 C1519 1.419 . S
C1521 C1522 1.362 . S
C1522 H1514 0.930 . S
C1522 C1521 1.362 . S
C1522 C1525 1.409 . S
C1523 H1515 0.930 . S
C1523 C1524 1.355 . S
C1523 C1525 1.415 . S
C1524 C1523 1.355 . S
C1524 C1526 1.419 . S
C1525 C1520 1.425 . S
C1525 C1522 1.409 . S
C1525 C1523 1.415 . S
C1526 H1516 0.930 . S
C1526 C1524 1.419 . S
C1526 C1527 1.362 . S
C1527 H1517 0.930 . S
C1527 C1520 1.409 . S
C1527 C1526 1.362 . S
H1528 C1534 0.930 . S
H1529 C1537 0.930 . S
H1530 C1538 0.930 . S
H1531 C1539 0.930 . S
H1532 C1542 0.930 . S
H1533 C1543 0.930 . S
C1534 H1528 0.930 . S
C1534 C1535 1.355 . S
C1534 C1536 1.415 . S
C1535 C1534 1.355 . S
C1535 C1537 1.419 . S
C1536 C1534 1.415 . S
C1536 C1541 1.425 . S
C1536 C1543 1.409 . S
C1537 H1529 0.930 . S
C1537 C1535 1.419 . S
C1537 C1538 1.362 . S
C1538 H1530 0.930 . S
C1538 C1537 1.362 . S
C1538 C1541 1.409 . S
C1539 H1531 0.930 . S
C1539 C1540 1.355 . S
C1539 C1541 1.415 . S
C1540 C1539 1.355 . S
C1540 C1542 1.419 . S
C1541 C1536 1.425 . S
C1541 C1538 1.409 . S
C1541 C1539 1.415 . S
C1542 H1532 0.930 . S
C1542 C1540 1.419 . S
C1542 C1543 1.362 . S
C1543 H1533 0.930 . S
C1543 C1536 1.409 . S
C1543 C1542 1.362 . S
H1544 C1550 0.930 . S
H1545 C1553 0.930 . S
H1546 C1554 0.930 . S
H1547 C1555 0.930 . S
H1548 C1558 0.930 . S
H1549 C1559 0.930 . S
C1550 H1544 0.930 . S
C1550 C1551 1.355 . S
C1550 C1552 1.415 . S
C1551 C1550 1.355 . S
C1551 C1553 1.419 . S
C1552 C1550 1.415 . S
C1552 C1557 1.425 . S
C1552 C1559 1.409 . S
C1553 H1545 0.930 . S
C1553 C1551 1.419 . S
C1553 C1554 1.362 . S
C1554 H1546 0.930 . S
C1554 C1553 1.362 . S
C1554 C1557 1.409 . S
C1555 H1547 0.930 . S
C1555 C1556 1.355 . S
C1555 C1557 1.415 . S
C1556 C1555 1.355 . S
C1556 C1558 1.419 . S
C1557 C1552 1.425 . S
C1557 C1554 1.409 . S
C1557 C1555 1.415 . S
C1558 H1548 0.930 . S
C1558 C1556 1.419 . S
C1558 C1559 1.362 . S
C1559 H1549 0.930 . S
C1559 C1552 1.409 . S
C1559 C1558 1.362 . S
H1560 C1566 0.930 . S
H1561 C1569 0.930 . S
H1562 C1570 0.930 . S
H1563 C1571 0.930 . S
H1564 C1574 0.930 . S
H1565 C1575 0.930 . S
C1566 H1560 0.930 . S
C1566 C1567 1.355 . S
C1566 C1568 1.415 . S
C1567 C1566 1.355 . S
C1567 C1569 1.419 . S
C1568 C1566 1.415 . S
C1568 C1573 1.425 1_554 S
C1568 C1575 1.409 1_554 S
C1569 H1561 0.930 . S
C1569 C1567 1.419 . S
C1569 C1570 1.362 . S
C1570 H1562 0.930 . S
C1570 C1569 1.362 . S
C1570 C1573 1.409 1_554 S
C1571 H1563 0.930 . S
C1571 C1572 1.355 . S
C1571 C1573 1.415 . S
C1572 C1571 1.355 . S
C1572 C1574 1.419 . S
C1573 C1568 1.425 1_556 S
C1573 C1570 1.409 1_556 S
C1573 C1571 1.415 . S
C1574 H1564 0.930 . S
C1574 C1572 1.419 . S
C1574 C1575 1.362 . S
C1575 H1565 0.930 . S
C1575 C1568 1.409 1_556 S
C1575 C1574 1.362 . S
H1576 C1582 0.930 . S
H1577 C1585 0.930 . S
H1578 C1586 0.930 . S
H1579 C1587 0.930 . S
H1580 C1590 0.930 . S
H1581 C1591 0.930 . S
C1582 H1576 0.930 . S
C1582 C1583 1.355 . S
C1582 C1584 1.415 . S
C1583 C1582 1.355 . S
C1583 C1585 1.419 . S
C1584 C1582 1.415 . S
C1584 C1589 1.425 1_554 S
C1584 C1591 1.409 1_554 S
C1585 H1577 0.930 . S
C1585 C1583 1.419 . S
C1585 C1586 1.362 . S
C1586 H1578 0.930 . S
C1586 C1585 1.362 . S
C1586 C1589 1.409 1_554 S
C1587 H1579 0.930 . S
C1587 C1588 1.355 . S
C1587 C1589 1.415 . S
C1588 C1587 1.355 . S
C1588 C1590 1.419 . S
C1589 C1584 1.425 1_556 S
C1589 C1586 1.409 1_556 S
C1589 C1587 1.415 . S
C1590 H1580 0.930 . S
C1590 C1588 1.419 . S
C1590 C1591 1.362 . S
C1591 H1581 0.930 . S
C1591 C1584 1.409 1_556 S
C1591 C1590 1.362 . S
H1592 C1598 0.930 . S
H1593 C1601 0.930 . S
H1594 C1602 0.930 . S
H1595 C1603 0.930 . S
H1596 C1606 0.930 . S
H1597 C1607 0.930 . S
C1598 H1592 0.930 . S
C1598 C1599 1.355 . S
C1598 C1600 1.415 . S
C1599 C1598 1.355 . S
C1599 C1601 1.419 . S
C1600 C1598 1.415 . S
C1600 C1605 1.425 1_554 S
C1600 C1607 1.409 1_554 S
C1601 H1593 0.930 . S
C1601 C1599 1.419 . S
C1601 C1602 1.362 . S
C1602 H1594 0.930 . S
C1602 C1601 1.362 . S
C1602 C1605 1.409 1_554 S
C1603 H1595 0.930 . S
C1603 C1604 1.355 . S
C1603 C1605 1.415 . S
C1604 C1603 1.355 . S
C1604 C1606 1.419 . S
C1605 C1600 1.425 1_556 S
C1605 C1602 1.409 1_556 S
C1605 C1603 1.415 . S
C1606 H1596 0.930 . S
C1606 C1604 1.419 . S
C1606 C1607 1.362 . S
C1607 H1597 0.930 . S
C1607 C1600 1.409 1_556 S
C1607 C1606 1.362 . S
H1608 C1614 0.930 . S
H1609 C1617 0.930 . S
H1610 C1618 0.930 . S
H1611 C1619 0.930 . S
H1612 C1622 0.930 . S
H1613 C1623 0.930 . S
C1614 H1608 0.930 . S
C1614 C1615 1.355 . S
C1614 C1616 1.415 . S
C1615 C1614 1.355 . S
C1615 C1617 1.419 . S
C1616 C1614 1.415 . S
C1616 C1621 1.425 1_554 S
C1616 C1623 1.409 1_554 S
C1617 H1609 0.930 . S
C1617 C1615 1.419 . S
C1617 C1618 1.362 . S
C1618 H1610 0.930 . S
C1618 C1617 1.362 . S
C1618 C1621 1.409 1_554 S
C1619 H1611 0.930 . S
C1619 C1620 1.355 . S
C1619 C1621 1.415 . S
C1620 C1619 1.355 . S
C1620 C1622 1.419 . S
C1621 C1616 1.425 1_556 S
C1621 C1618 1.409 1_556 S
C1621 C1619 1.415 . S
C1622 H1612 0.930 . S
C1622 C1620 1.419 . S
C1622 C1623 1.362 . S
C1623 H1613 0.930 . S
C1623 C1616 1.409 1_556 S
C1623 C1622 1.362 . S
H1624 C1630 0.930 . S
H1625 C1633 0.930 . S
H1626 C1634 0.930 . S
H1627 C1635 0.930 . S
H1628 C1638 0.930 . S
H1629 C1639 0.930 . S
C1630 H1624 0.930 . S
C1630 C1631 1.355 . S
C1630 C1632 1.415 . S
C1631 C1630 1.355 . S
C1631 C1633 1.419 . S
C1632 C1630 1.415 . S
C1632 C1637 1.425 1_554 S
C1632 C1639 1.409 1_554 S
C1633 H1625 0.930 . S
C1633 C1631 1.419 . S
C1633 C1634 1.362 . S
C1634 H1626 0.930 . S
C1634 C1633 1.362 . S
C1634 C1637 1.409 1_554 S
C1635 H1627 0.930 . S
C1635 C1636 1.355 . S
C1635 C1637 1.415 . S
C1636 C1635 1.355 . S
C1636 C1638 1.419 . S
C1637 C1632 1.425 1_556 S
C1637 C1634 1.409 1_556 S
C1637 C1635 1.415 . S
C1638 H1628 0.930 . S
C1638 C1636 1.419 . S
C1638 C1639 1.362 . S
C1639 H1629 0.930 . S
C1639 C1632 1.409 1_556 S
C1639 C1638 1.362 . S
H1640 C1646 0.930 . S
H1641 C1649 0.930 . S
H1642 C1650 0.930 . S
H1643 C1651 0.930 . S
H1644 C1654 0.930 . S
H1645 C1655 0.930 . S
C1646 H1640 0.930 . S
C1646 C1647 1.355 . S
C1646 C1648 1.415 . S
C1647 C1646 1.355 . S
C1647 C1649 1.419 . S
C1648 C1646 1.415 . S
C1648 C1653 1.425 1_556 S
C1648 C1655 1.409 1_556 S
C1649 H1641 0.930 . S
C1649 C1647 1.419 . S
C1649 C1650 1.362 . S
C1650 H1642 0.930 . S
C1650 C1649 1.362 . S
C1650 C1653 1.409 1_556 S
C1651 H1643 0.930 . S
C1651 C1652 1.355 . S
C1651 C1653 1.415 . S
C1652 C1651 1.355 . S
C1652 C1654 1.419 . S
C1653 C1648 1.425 1_554 S
C1653 C1650 1.409 1_554 S
C1653 C1651 1.415 . S
C1654 H1644 0.930 . S
C1654 C1652 1.419 . S
C1654 C1655 1.362 . S
C1655 H1645 0.930 . S
C1655 C1648 1.409 1_554 S
C1655 C1654 1.362 . S
H1656 C1662 0.930 . S
H1657 C1665 0.930 . S
H1658 C1666 0.930 . S
H1659 C1667 0.930 . S
H1660 C1670 0.930 . S
H1661 C1671 0.930 . S
C1662 H1656 0.930 . S
C1662 C1663 1.355 . S
C1662 C1664 1.415 . S
C1663 C1662 1.355 . S
C1663 C1665 1.419 . S
C1664 C1662 1.415 . S
C1664 C1669 1.425 . S
C1664 C1671 1.409 . S
C1665 H1657 0.930 . S
C1665 C1663 1.419 . S
C1665 C1666 1.362 . S
C1666 H1658 0.930 . S
C1666 C1665 1.362 . S
C1666 C1669 1.409 . S
C1667 H1659 0.930 . S
C1667 C1668 1.355 . S
C1667 C1669 1.415 . S
C1668 C1667 1.355 . S
C1668 C1670 1.419 . S
C1669 C1664 1.425 . S
C1669 C1666 1.409 . S
C1669 C1667 1.415 . S
C1670 H1660 0.930 . S
C1670 C1668 1.419 . S
C1670 C1671 1.362 . S
C1671 H1661 0.930 . S
C1671 C1664 1.409 . S
C1671 C1670 1.362 . S
H1672 C1678 0.930 . S
H1673 C1681 0.930 . S
H1674 C1682 0.930 . S
H1675 C1683 0.930 . S
H1676 C1686 0.930 . S
H1677 C1687 0.930 . S
C1678 H1672 0.930 . S
C1678 C1679 1.355 . S
C1678 C1680 1.415 . S
C1679 C1678 1.355 . S
C1679 C1681 1.419 . S
C1680 C1678 1.415 . S
C1680 C1685 1.425 . S
C1680 C1687 1.409 . S
C1681 H1673 0.930 . S
C1681 C1679 1.419 . S
C1681 C1682 1.362 . S
C1682 H1674 0.930 . S
C1682 C1681 1.362 . S
C1682 C1685 1.409 . S
C1683 H1675 0.930 . S
C1683 C1684 1.355 . S
C1683 C1685 1.415 . S
C1684 C1683 1.355 . S
C1684 C1686 1.419 . S
C1685 C1680 1.425 . S
C1685 C1682 1.409 . S
C1685 C1683 1.415 . S
C1686 H1676 0.930 . S
C1686 C1684 1.419 . S
C1686 C1687 1.362 . S
C1687 H1677 0.930 . S
C1687 C1680 1.409 . S
C1687 C1686 1.362 . S
H1688 C1694 0.930 . S
H1689 C1697 0.930 . S
H1690 C1698 0.930 . S
H1691 C1699 0.930 . S
H1692 C1702 0.930 . S
H1693 C1703 0.930 . S
C1694 H1688 0.930 . S
C1694 C1695 1.355 . S
C1694 C1696 1.415 . S
C1695 C1694 1.355 . S
C1695 C1697 1.419 . S
C1696 C1694 1.415 . S
C1696 C1701 1.425 . S
C1696 C1703 1.409 . S
C1697 H1689 0.930 . S
C1697 C1695 1.419 . S
C1697 C1698 1.362 . S
C1698 H1690 0.930 . S
C1698 C1697 1.362 . S
C1698 C1701 1.409 . S
C1699 H1691 0.930 . S
C1699 C1700 1.355 . S
C1699 C1701 1.415 . S
C1700 C1699 1.355 . S
C1700 C1702 1.419 . S
C1701 C1696 1.425 . S
C1701 C1698 1.409 . S
C1701 C1699 1.415 . S
C1702 H1692 0.930 . S
C1702 C1700 1.419 . S
C1702 C1703 1.362 . S
C1703 H1693 0.930 . S
C1703 C1696 1.409 . S
C1703 C1702 1.362 . S
H1704 C1710 0.930 . S
H1705 C1713 0.930 . S
H1706 C1714 0.930 . S
H1707 C1715 0.930 . S
H1708 C1718 0.930 . S
H1709 C1719 0.930 . S
C1710 H1704 0.930 . S
C1710 C1711 1.355 . S
C1710 C1712 1.415 . S
C1711 C1710 1.355 . S
C1711 C1713 1.419 . S
C1712 C1710 1.415 . S
C1712 C1717 1.425 . S
C1712 C1719 1.409 . S
C1713 H1705 0.930 . S
C1713 C1711 1.419 . S
C1713 C1714 1.362 . S
C1714 H1706 0.930 . S
C1714 C1713 1.362 . S
C1714 C1717 1.409 . S
C1715 H1707 0.930 . S
C1715 C1716 1.355 . S
C1715 C1717 1.415 . S
C1716 C1715 1.355 . S
C1716 C1718 1.419 . S
C1717 C1712 1.425 . S
C1717 C1714 1.409 . S
C1717 C1715 1.415 . S
C1718 H1708 0.930 . S
C1718 C1716 1.419 . S
C1718 C1719 1.362 . S
C1719 H1709 0.930 . S
C1719 C1712 1.409 . S
C1719 C1718 1.362 . S
H1720 C1726 0.930 . S
H1721 C1729 0.930 . S
H1722 C1730 0.930 . S
H1723 C1731 0.930 . S
H1724 C1734 0.930 . S
H1725 C1735 0.930 . S
C1726 H1720 0.930 . S
C1726 C1727 1.355 . S
C1726 C1728 1.415 . S
C1727 C1726 1.355 . S
C1727 C1729 1.419 . S
C1728 C1726 1.415 . S
C1728 C1733 1.425 . S
C1728 C1735 1.409 . S
C1729 H1721 0.930 . S
C1729 C1727 1.419 . S
C1729 C1730 1.362 . S
C1730 H1722 0.930 . S
C1730 C1729 1.362 . S
C1730 C1733 1.409 . S
C1731 H1723 0.930 . S
C1731 C1732 1.355 . S
C1731 C1733 1.415 . S
C1732 C1731 1.355 . S
C1732 C1734 1.419 . S
C1733 C1728 1.425 . S
C1733 C1730 1.409 . S
C1733 C1731 1.415 . S
C1734 H1724 0.930 . S
C1734 C1732 1.419 . S
C1734 C1735 1.362 . S
C1735 H1725 0.930 . S
C1735 C1728 1.409 . S
C1735 C1734 1.362 . S
H1736 C1742 0.930 . S
H1737 C1745 0.930 . S
H1738 C1746 0.930 . S
H1739 C1747 0.930 . S
H1740 C1750 0.930 . S
H1741 C1751 0.930 . S
C1742 H1736 0.930 . S
C1742 C1743 1.355 . S
C1742 C1744 1.415 . S
C1743 C1742 1.355 . S
C1743 C1745 1.419 . S
C1744 C1742 1.415 . S
C1744 C1749 1.425 . S
C1744 C1751 1.409 . S
C1745 H1737 0.930 . S
C1745 C1743 1.419 . S
C1745 C1746 1.362 . S
C1746 H1738 0.930 . S
C1746 C1745 1.362 . S
C1746 C1749 1.409 . S
C1747 H1739 0.930 . S
C1747 C1748 1.355 . S
C1747 C1749 1.415 . S
C1748 C1747 1.355 . S
C1748 C1750 1.419 . S
C1749 C1744 1.425 . S
C1749 C1746 1.409 . S
C1749 C1747 1.415 . S
C1750 H1740 0.930 . S
C1750 C1748 1.419 . S
C1750 C1751 1.362 . S
C1751 H1741 0.930 . S
C1751 C1744 1.409 . S
C1751 C1750 1.362 . S
C799 N14 0.774 . S
C804 N113 0.772 . S
C815 N146 0.656 . S
C820 N47 0.652 . S
C831 N179 0.776 . S
C836 N80 0.777 . S
C847 N311 0.634 . S
C852 N212 0.636 . S
C863 N245 0.627 . S
C868 N344 0.626 . S
C879 N278 0.689 . S
C884 N377 0.683 . S
C895 N509 0.773 . S
C900 N410 0.771 . S
C911 N542 0.672 . S
C916 N443 0.677 . S
C927 N575 0.767 . S
C932 N476 0.769 . S
C943 N707 0.753 . S
C948 N608 0.757 . S
C959 N641 0.777 . S
C964 N740 0.778 . S
C975 N773 0.625 . S
C980 N674 0.626 . S
C991 N269 1.415 . S
C996 N5 1.379 . S
C1007 N38 1.372 . S
C1012 N302 1.408 . S
C1023 N71 1.429 . S
C1028 N335 1.404 . S
C1039 N104 1.411 . S
C1044 N368 1.431 . S
C1055 N137 1.363 . S
C1060 N203 1.395 . S
C1071 N236 1.430 . S
C1076 N170 1.405 . S
C1087 N401 1.422 . S
C1092 N665 1.429 . S
C1103 N698 1.404 . S
C1108 N434 1.429 . S
C1119 N731 1.417 . S
C1124 N467 1.381 . S
C1135 N500 1.373 . S
C1140 N764 1.408 . S
C1151 N599 1.360 . S
C1156 N533 1.365 . S
C1167 N632 1.419 . S
C1172 N566 1.430 . S
C1183 C8 1.589 . S
C1188 C239 1.572 . S
C1199 C41 1.556 . S
C1204 C272 1.604 . S
C1215 C305 1.609 . S
C1220 C74 1.549 . S
C1231 C107 1.587 . S
C1236 C338 1.575 . S
C1247 C371 1.570 . S
C1252 C140 1.591 . S
C1263 C206 1.552 . S
C1268 C173 1.607 . S
C1279 C404 1.597 . S
C1284 C635 1.563 . S
C1295 C437 1.550 . S
C1300 C668 1.609 . S
C1311 C470 1.559 . S
C1316 C701 1.595 . S
C1327 C503 1.604 . S
C1332 C734 1.551 . S
C1343 C536 1.557 . S
C1348 C767 1.596 . S
C1359 C602 1.588 . S
C1364 C569 1.573 . S
C1375 C28 0.793 . S
C1380 C358 0.793 . S
C1391 C391 0.728 . S
C1396 C61 0.857 . S
C1407 C226 0.817 . S
C1412 C94 0.774 . S
C1423 C259 0.714 . S
C1428 C127 0.867 . S
C1439 C160 0.867 . S
C1444 C292 0.714 . S
C1455 C193 0.785 . S
C1460 C325 0.807 . S
C1471 C424 0.771 . S
C1476 C754 0.814 . S
C1487 C787 0.801 . S
C1492 C457 0.785 . S
C1503 C622 0.857 . S
C1508 C490 0.725 . S
C1519 C523 0.723 . S
C1524 C655 0.858 . S
C1535 C556 0.823 . S
C1540 C688 0.767 . S
C1551 C721 0.729 . S
C1556 C589 0.856 . S
C1567 C17 1.459 . S
C1572 C512 1.476 . S
C1583 C50 1.464 . S
C1588 C545 1.472 . S
C1599 C83 1.477 . S
C1604 C578 1.458 . S
C1615 C116 1.479 . S
C1620 C413 1.456 . S
C1631 C149 1.455 . S
C1636 C446 1.480 . S
C1647 C479 1.463 . S
C1652 C182 1.472 . S
C1663 C215 1.455 . S
C1668 C710 1.480 . S
C1679 C248 1.458 . S
C1684 C743 1.477 . S
C1695 C281 1.471 . S
C1700 C776 1.464 . S
C1711 C314 1.463 . S
C1716 C611 1.473 . S
C1727 C347 1.458 . S
C1732 C644 1.477 . S
C1743 C677 1.474 . S
C1748 C380 1.462 . S
