# Generated by pormake.
# Topology uoz, (4)-cn, num edge types: 1
# Building blocks:
#     Node 0, Type 0, BuildingBlock: KUFVIS_clean_sbu_0, # of connection points: 4
#     Node 1, Type 0, BuildingBlock: KUFVIS_clean_sbu_0, # of connection points: 4
#     Node 2, Type 0, BuildingBlock: KUFVIS_clean_sbu_0, # of connection points: 4
#     Node 3, Type 0, BuildingBlock: KUFVIS_clean_sbu_0, # of connection points: 4
#     Node 4, Type 0, BuildingBlock: KUFVIS_clean_sbu_0, # of connection points: 4
#     Node 5, Type 0, BuildingBlock: KUFVIS_clean_sbu_0, # of connection points: 4
#     Node 6, Type 0, BuildingBlock: KUFVIS_clean_sbu_0, # of connection points: 4
#     Node 7, Type 0, BuildingBlock: KUFVIS_clean_sbu_0, # of connection points: 4
#     Node 8, Type 0, BuildingBlock: KUFVIS_clean_sbu_0, # of connection points: 4
#     Node 9, Type 0, BuildingBlock: KUFVIS_clean_sbu_0, # of connection points: 4
#     Node 10, Type 0, BuildingBlock: KUFVIS_clean_sbu_0, # of connection points: 4
#     Node 11, Type 0, BuildingBlock: KUFVIS_clean_sbu_0, # of connection points: 4
#     Node 12, Type 0, BuildingBlock: KUFVIS_clean_sbu_0, # of connection points: 4
#     Node 13, Type 0, BuildingBlock: KUFVIS_clean_sbu_0, # of connection points: 4
#     Node 14, Type 0, BuildingBlock: KUFVIS_clean_sbu_0, # of connection points: 4
#     Node 15, Type 0, BuildingBlock: KUFVIS_clean_sbu_0, # of connection points: 4
#     Edge 16, Type (0, 0), None
#     Edge 17, Type (0, 0), None
#     Edge 18, Type (0, 0), None
#     Edge 19, Type (0, 0), None
#     Edge 20, Type (0, 0), None
#     Edge 21, Type (0, 0), None
#     Edge 22, Type (0, 0), None
#     Edge 23, Type (0, 0), None
#     Edge 24, Type (0, 0), None
#     Edge 25, Type (0, 0), None
#     Edge 26, Type (0, 0), None
#     Edge 27, Type (0, 0), None
#     Edge 28, Type (0, 0), None
#     Edge 29, Type (0, 0), None
#     Edge 30, Type (0, 0), None
#     Edge 31, Type (0, 0), None
#     Edge 32, Type (0, 0), None
#     Edge 33, Type (0, 0), None
#     Edge 34, Type (0, 0), None
#     Edge 35, Type (0, 0), None
#     Edge 36, Type (0, 0), None
#     Edge 37, Type (0, 0), None
#     Edge 38, Type (0, 0), None
#     Edge 39, Type (0, 0), None
#     Edge 40, Type (0, 0), None
#     Edge 41, Type (0, 0), None
#     Edge 42, Type (0, 0), None
#     Edge 43, Type (0, 0), None
#     Edge 44, Type (0, 0), None
#     Edge 45, Type (0, 0), None
#     Edge 46, Type (0, 0), None
#     Edge 47, Type (0, 0), None
# Relax obj value: 0.130
# Max RMSD: 0.146
# Mean RMSD: 0.146
data_MOF--net-uoz--node1-KUFVIS_clean_sbu_0--edge1-none
_symmetry_space_group_name_H-M    P1
_symmetry_Int_Tables_number       1
_symmetry_cell_setting            triclinic
loop_
_symmetry_equiv_pos_as_xyz
'x, y, z'
_cell_length_a     28.21812
_cell_length_b     28.108016
_cell_length_c     9.7154722
_cell_angle_alpha  90.05353
_cell_angle_beta   89.673561
_cell_angle_gamma 89.839367
loop_
_atom_site_label
_atom_site_type_symbol
_atom_site_fract_x
_atom_site_fract_y
_atom_site_fract_z
_atom_type_partial_charge
Mn0 Mn 0.07788 0.5703 0.26961 0.0
Mn1 Mn 0.0845 0.60405 0.94557 0.0
C2 C 0.05427 0.52184 0.06729 0.0
C3 C 0.08902 0.50693 0.5534 0.0
C4 C 0.01155 0.63932 0.19104 0.0
O5 O 0.11084 0.62999 0.27036 0.0
O6 O 0.13569 0.62919 0.05359 0.0
C7 C 0.18009 0.56339 0.85283 0.0
N8 N 0.13542 0.57846 0.82155 0.0
C9 C 0.16088 0.54853 0.54176 0.0
C10 C 0.20392 0.53914 0.60727 0.0
C11 C 0.20898 0.53809 0.7554 0.0
C12 C 0.11948 0.5708 0.69428 0.0
H13 H 0.19217 0.56574 0.9582 0.0
C14 C 0.14036 0.63926 0.17889 0.0
O15 O 0.08674 0.55897 0.49289 0.0
O16 O 0.08674 0.55898 0.493 0.0
N17 N 0.03409 0.57931 0.81656 0.0
C18 C 0.98754 0.56785 0.83708 0.0
C19 C 0.9573 0.54853 0.73135 0.0
C20 C 0.96745 0.54181 0.58714 0.0
C21 C 0.01374 0.54279 0.53977 0.0
C22 C 0.05248 0.56891 0.69309 0.0
H23 H 0.97247 0.57235 0.93878 0.0
O24 O 0.02146 0.53833 0.13991 0.0
O25 O 0.08833 0.55004 0.06613 0.0
O26 O 0.02121 0.61286 0.29165 0.0
O27 O 0.0327 0.63568 0.07096 0.0
C28 C 0.04797 0.5138 0.35886 0.0
C29 C 0.12978 0.51985 0.35313 0.0
H30 H 0.23304 0.52746 0.54337 0.0
H31 H 0.24002 0.52011 0.79521 0.0
H32 H 0.92185 0.53923 0.76443 0.0
H33 H 0.93961 0.53001 0.51925 0.0
H34 H 0.02713 0.49136 0.29889 0.0
H35 H 0.15122 0.50705 0.26863 0.0
Mn36 Mn 0.74121 0.74574 0.52014 0.0
Mn37 Mn 0.70829 0.75357 0.19645 0.0
C38 C 0.79091 0.72342 0.31846 0.0
C39 C 0.80506 0.75837 0.80343 0.0
C40 C 0.672 0.67722 0.43681 0.0
O41 O 0.68231 0.77958 0.52127 0.0
O42 O 0.68359 0.8048 0.30528 0.0
C43 C 0.74919 0.84964 0.1044 0.0
N44 N 0.7338 0.80497 0.07298 0.0
C45 C 0.76348 0.83056 0.79262 0.0
C46 C 0.77307 0.87361 0.85841 0.0
C47 C 0.7745 0.8784 1.00657 0.0
C48 C 0.7412 0.78912 0.94506 0.0
H49 H 0.74712 0.86179 0.21006 0.0
C50 C 0.67367 0.80945 0.43073 0.0
O51 O 0.75322 0.75614 0.74315 0.0
O52 O 0.75321 0.75614 0.74325 0.0
N53 N 0.7329 0.70344 0.06624 0.0
C54 C 0.74439 0.65681 0.0867 0.0
C55 C 0.76386 0.6264 0.98079 0.0
C56 C 0.77065 0.63649 0.83666 0.0
C57 C 0.76957 0.68289 0.78922 0.0
C58 C 0.74326 0.72188 0.94294 0.0
H59 H 0.73985 0.64189 0.18837 0.0
O60 O 0.77468 0.69016 0.38967 0.0
O61 O 0.76231 0.75741 0.31754 0.0
O62 O 0.69768 0.68814 0.53965 0.0
O63 O 0.67582 0.7003 0.31952 0.0
C64 C 0.79852 0.71707 0.6084 0.0
C65 C 0.79222 0.79899 0.60341 0.0
H66 H 0.7846 0.90279 0.79477 0.0
H67 H 0.79276 0.90931 0.04649 0.0
H68 H 0.77321 0.59082 0.0133 0.0
H69 H 0.78258 0.60842 0.76857 0.0
H70 H 0.8212 0.69609 0.54847 0.0
H71 H 0.80475 0.82027 0.51859 0.0
Mn72 Mn 0.58791 0.39898 0.70023 0.0
Mn73 Mn 0.55767 0.38377 0.44836 0.0
C74 C 0.58722 0.47043 0.60404 0.0
C75 C 0.55042 0.40741 1.00238 0.0
C76 C 0.63854 0.33859 0.68081 0.0
O77 O 0.54012 0.34872 0.7439 0.0
O78 O 0.50589 0.35423 0.54567 0.0
C79 C 0.46191 0.4211 0.3578 0.0
N80 N 0.50882 0.41441 0.33007 0.0
C81 C 0.49021 0.4535 0.08036 0.0
C82 C 0.44362 0.44805 0.12099 0.0
C83 C 0.43303 0.44654 0.26384 0.0
C84 C 0.52655 0.43467 0.2143 0.0
H85 H 0.44767 0.41212 0.45799 0.0
C86 C 0.50501 0.34254 0.66926 0.0
O87 O 0.55153 0.38803 0.88316 0.0
O88 O 0.55143 0.38793 0.88326 0.0
N89 N 0.6049 0.41116 0.31863 0.0
C90 C 0.65276 0.4145 0.33387 0.0
C91 C 0.68148 0.43393 0.22722 0.0
C92 C 0.66474 0.44382 0.09059 0.0
C93 C 0.61587 0.4499 0.06283 0.0
C94 C 0.58411 0.43133 0.20461 0.0
H95 H 0.66879 0.40461 0.43066 0.0
O96 O 0.6253 0.45356 0.65956 0.0
O97 O 0.55077 0.44133 0.58455 0.0
O98 O 0.63522 0.36536 0.78384 0.0
O99 O 0.61261 0.34468 0.56606 0.0
C100 C 0.58512 0.4712 0.90445 0.0
C101 C 0.51678 0.47236 0.91054 0.0
H102 H 0.41624 0.45381 0.04583 0.0
H103 H 0.3995 0.46108 0.29819 0.0
H104 H 0.71873 0.43878 0.24837 0.0
H105 H 0.69046 0.45102 0.01042 0.0
H106 H 0.60498 0.49202 0.8379 0.0
H107 H 0.49634 0.4785 0.8191 0.0
Mn108 Mn 0.91274 0.25677 0.95048 0.0
Mn109 Mn 0.92866 0.22613 0.69858 0.0
C110 C 0.84178 0.25623 0.85388 0.0
C111 C 0.90443 0.21898 0.25206 0.0
C112 C 0.973 0.30401 0.93666 0.0
O113 O 0.963 0.20888 0.99454 0.0
O114 O 0.95969 0.17365 0.79647 0.0
C115 C 0.89243 0.13034 0.60651 0.0
N116 N 0.89813 0.17752 0.57943 0.0
C117 C 0.85866 0.15886 0.33049 0.0
C118 C 0.86403 0.11217 0.37079 0.0
C119 C 0.8677 0.10091 0.51304 0.0
C120 C 0.87746 0.19538 0.46443 0.0
H121 H 0.90231 0.11604 0.70558 0.0
C122 C 0.97095 0.1735 0.92117 0.0
O123 O 0.92406 0.22079 0.13317 0.0
O124 O 0.92412 0.22073 0.13323 0.0
N125 N 0.901 0.2739 0.56922 0.0
C126 C 0.89774 0.32205 0.58447 0.0
C127 C 0.8784 0.35092 0.47815 0.0
C128 C 0.86829 0.33405 0.34158 0.0
C129 C 0.86213 0.28499 0.31361 0.0
C130 C 0.88068 0.25311 0.45518 0.0
H131 H 0.90774 0.33827 0.68108 0.0
O132 O 0.85841 0.29453 0.90973 0.0
O133 O 0.871 0.21952 0.83433 0.0
O134 O 0.94516 0.3033 0.03691 0.0
O135 O 0.96681 0.28006 0.81824 0.0
C136 C 0.84103 0.25406 0.15462 0.0
C137 C 0.83997 0.18529 0.16027 0.0
H138 H 0.8578 0.08515 0.29455 0.0
H139 H 0.85507 0.0666 0.54696 0.0
H140 H 0.87366 0.38835 0.49987 0.0
H141 H 0.86111 0.35982 0.26176 0.0
H142 H 0.82023 0.27401 0.08847 0.0
H143 H 0.83301 0.16445 0.0697 0.0
Mn144 Mn 0.05591 0.3985 0.94307 0.0
Mn145 Mn 0.08606 0.3829 0.19338 0.0
C146 C 0.05619 0.46965 0.03918 0.0
C147 C 0.09244 0.40841 0.63981 0.0
C148 C 0.00848 0.33883 0.95441 0.0
O149 O 0.10346 0.34803 0.89947 0.0
O150 O 0.1386 0.35249 0.09559 0.0
C151 C 0.18188 0.41934 0.28514 0.0
N152 N 0.13473 0.4135 0.31255 0.0
C153 C 0.15299 0.45359 0.56189 0.0
C154 C 0.19972 0.448 0.52108 0.0
C155 C 0.21115 0.44424 0.3787 0.0
C156 C 0.11667 0.43454 0.42749 0.0
H157 H 0.1963 0.40951 0.18574 0.0
C158 C 0.13904 0.34137 0.97108 0.0
O159 O 0.09066 0.38909 0.75834 0.0
O160 O 0.09074 0.38901 0.75826 0.0
N161 N 0.03805 0.41061 0.32303 0.0
C162 C -0.00994 0.41419 0.30732 0.0
C163 C 0.96105 0.43372 0.41384 0.0
C164 C 0.9777 0.44411 0.55052 0.0
C165 C 0.02671 0.45055 0.57871 0.0
C166 C 0.05876 0.43128 0.43691 0.0
H167 H 0.97413 0.40423 0.21041 0.0
O168 O 0.01835 0.45311 0.98182 0.0
O169 O 0.09278 0.44053 0.05882 0.0
O170 O 0.00988 0.36649 0.85417 0.0
O171 O 0.03217 0.34487 0.073 0.0
C172 C 0.05738 0.47211 0.73826 0.0
C173 C 0.12619 0.47285 0.73283 0.0
H174 H 0.22655 0.45423 0.5971 0.0
H175 H 0.24526 0.45714 0.34448 0.0
H176 H 0.9238 0.4385 0.39221 0.0
H177 H 0.95181 0.45137 0.63037 0.0
H178 H 0.03744 0.49274 0.80555 0.0
H179 H 0.14655 0.47887 0.82445 0.0
Mn180 Mn 0.91475 0.72498 0.19253 0.0
Mn181 Mn 0.92915 0.75477 0.44321 0.0
C182 C 0.84293 0.72544 0.28883 0.0
C183 C 0.90307 0.7615 0.88932 0.0
C184 C 0.97371 0.67411 0.20987 0.0
O185 O 0.96497 0.77225 0.14929 0.0
O186 O 0.9581 0.807 0.34588 0.0
C187 C 0.89148 0.85071 0.53425 0.0
N188 N 0.89848 0.80373 0.56263 0.0
C189 C 0.85817 0.82248 0.81224 0.0
C190 C 0.86367 0.86937 0.77088 0.0
C191 C 0.86577 0.87983 0.62794 0.0
C192 C 0.87737 0.7858 0.6774 0.0
H193 H 0.9005 0.86478 0.43392 0.0
C194 C 0.9697 0.80799 0.22225 0.0
O195 O 0.92194 0.75901 0.00762 0.0
O196 O 0.92268 0.75972 1.00697 0.0
N197 N 0.90175 0.7068 0.57257 0.0
C198 C 0.89816 0.65865 0.5563 0.0
C199 C 0.87851 0.62972 0.66253 0.0
C200 C 0.868 0.6465 0.79947 0.0
C201 C 0.86129 0.69568 0.82788 0.0
C202 C 0.88068 0.72769 0.68619 0.0
H203 H 0.90806 0.64253 0.45905 0.0
O204 O 0.85968 0.68775 0.22946 0.0
O205 O 0.87186 0.76193 0.3089 0.0
O206 O 0.94789 0.67787 0.10573 0.0
O207 O 0.96756 0.69995 0.32486 0.0
C208 C 0.83957 0.72675 0.98797 0.0
C209 C 0.83885 0.79582 0.98305 0.0
H210 H 0.8579 0.89716 0.84572 0.0
H211 H 0.85147 0.91347 0.59353 0.0
H212 H 0.87374 0.59231 0.64055 0.0
H213 H 0.86075 0.62061 0.87906 0.0
H214 H 0.81906 0.70698 0.05579 0.0
H215 H 0.83332 0.81629 0.07539 0.0
Mn216 Mn 0.56405 0.56981 0.37449 0.0
Mn217 Mn 0.55863 0.60465 0.69959 0.0
C218 C 0.5888 0.52288 0.57843 0.0
C219 C 0.55401 0.50662 0.08991 0.0
C220 C 0.63365 0.6398 0.4578 0.0
O221 O 0.53189 0.62968 0.37339 0.0
O222 O 0.50752 0.62994 0.59055 0.0
C223 C 0.46291 0.5636 0.79161 0.0
N224 N 0.50752 0.57872 0.82265 0.0
C225 C 0.48216 0.54853 0.10238 0.0
C226 C 0.43919 0.53921 0.0372 0.0
C227 C 0.43419 0.53822 0.88909 0.0
C228 C 0.5235 0.57053 0.94945 0.0
H229 H 0.45074 0.56606 0.68637 0.0
C230 C 0.50228 0.63886 0.46455 0.0
O231 O 0.5563 0.5587 0.15051 0.0
O232 O 0.5563 0.5587 0.15062 0.0
N233 N 0.6089 0.57908 0.82776 0.0
C234 C 0.65548 0.56747 0.80727 0.0
C235 C 0.68578 0.54813 0.91296 0.0
C236 C 0.67567 0.54151 0.05711 0.0
C237 C 0.62932 0.54219 0.10387 0.0
C238 C 0.59052 0.56829 0.95049 0.0
H239 H 0.67062 0.5721 0.70577 0.0
O240 O 0.62103 0.53942 0.50446 0.0
O241 O 0.55455 0.55093 0.57934 0.0
O242 O 0.62186 0.61372 0.35602 0.0
O243 O 0.6115 0.63663 0.57656 0.0
C244 C 0.5952 0.51364 0.28487 0.0
C245 C 0.51342 0.51987 0.29069 0.0
H246 H 0.41017 0.52747 0.10103 0.0
H247 H 0.40327 0.5202 0.84919 0.0
H248 H 0.72131 0.53885 0.88007 0.0
H249 H 0.70355 0.52973 0.12505 0.0
H250 H 0.61601 0.49161 0.34634 0.0
H251 H 0.49219 0.50789 0.37639 0.0
Mn252 Mn 0.74302 0.23266 0.62472 0.0
Mn253 Mn 0.70744 0.22736 0.94912 0.0
C254 C 0.78937 0.25781 0.82847 0.0
C255 C 0.80563 0.22313 0.33969 0.0
C256 C 0.67284 0.29983 0.70236 0.0
O257 O 0.68286 0.20103 0.6234 0.0
O258 O 0.68095 0.17551 0.83915 0.0
C259 C 0.74765 0.13113 0.04177 0.0
N260 N 0.73335 0.17635 0.07272 0.0
C261 C 0.7639 0.15117 0.35162 0.0
C262 C 0.77278 0.10786 0.28682 0.0
C263 C 0.77245 0.10193 0.1388 0.0
C264 C 0.74193 0.19258 0.19941 0.0
H265 H 0.74469 0.11858 0.93681 0.0
C266 C 0.67198 0.17123 0.71213 0.0
O267 O 0.75378 0.22566 0.40079 0.0
O268 O 0.75377 0.22565 0.40068 0.0
N269 N 0.7331 0.278 0.07801 0.0
C270 C 0.74466 0.32468 0.0576 0.0
C271 C 0.76404 0.35515 0.16308 0.0
C272 C 0.77079 0.34524 0.30711 0.0
C273 C 0.76997 0.29885 0.35411 0.0
C274 C 0.74404 0.25973 0.20086 0.0
H275 H 0.73989 0.33978 0.95637 0.0
O276 O 0.77277 0.29022 0.7553 0.0
O277 O 0.76143 0.22341 0.82925 0.0
O278 O 0.70015 0.28947 0.60368 0.0
O279 O 0.67594 0.27951 0.82381 0.0
C280 C 0.79845 0.2648 0.53483 0.0
C281 C 0.79252 0.18251 0.53976 0.0
H282 H 0.78499 0.07933 0.35132 0.0
H283 H 0.78941 0.07014 0.09873 0.0
H284 H 0.7733 0.39068 0.12999 0.0
H285 H 0.7826 0.3733 0.37483 0.0
H286 H 0.82042 0.28585 0.596 0.0
H287 H 0.80493 0.16113 0.62434 0.0
Mn288 Mn 0.40014 0.24826 0.62383 0.0
Mn289 Mn 0.43517 0.25426 0.94772 0.0
C290 C 0.35308 0.22375 0.8275 0.0
C291 C 0.33747 0.25842 0.33984 0.0
C292 C 0.47006 0.18143 0.70144 0.0
O293 O 0.46021 0.28037 0.62278 0.0
O294 O 0.4616 0.30605 0.8385 0.0
C295 C 0.39519 0.35049 0.0409 0.0
N296 N 0.40941 0.30529 0.07161 0.0
C297 C 0.37899 0.33047 0.35123 0.0
C298 C 0.37012 0.37377 0.28655 0.0
C299 C 0.37041 0.37974 0.13856 0.0
C300 C 0.40121 0.28909 0.1986 0.0
H301 H 0.39814 0.36294 0.9358 0.0
C302 C 0.47079 0.31025 0.71161 0.0
O303 O 0.38929 0.25602 0.4002 0.0
O304 O 0.3893 0.25602 0.4001 0.0
N305 N 0.40985 0.20358 0.07677 0.0
C306 C 0.39836 0.1569 0.05655 0.0
C307 C 0.379 0.12645 0.16256 0.0
C308 C 0.37222 0.13641 0.30682 0.0
C309 C 0.37307 0.18282 0.35393 0.0
C310 C 0.3992 0.22185 0.20005 0.0
H311 H 0.40302 0.14183 0.95499 0.0
O312 O 0.36958 0.19108 0.7542 0.0
O313 O 0.38118 0.25804 0.82833 0.0
O314 O 0.44311 0.19143 0.60242 0.0
O315 O 0.46672 0.20219 0.82219 0.0
C316 C 0.34423 0.21708 0.53507 0.0
C317 C 0.35017 0.29914 0.53989 0.0
H318 H 0.35783 0.40228 0.35156 0.0
H319 H 0.35348 0.41153 0.09908 0.0
H320 H 0.36975 0.0909 0.12968 0.0
H321 H 0.36036 0.10839 0.37483 0.0
H322 H 0.32203 0.19619 0.59652 0.0
H323 H 0.33761 0.32056 0.62474 0.0
Mn324 Mn 0.24385 0.7358 0.11682 0.0
Mn325 Mn 0.20778 0.72838 0.44254 0.0
C326 C 0.2942 0.76018 0.30854 0.0
C327 C 0.29214 0.72211 0.80639 0.0
C328 C 0.1722 0.8044 0.20519 0.0
O329 O 0.18321 0.70282 0.12369 0.0
O330 O 0.18406 0.67644 0.33667 0.0
C331 C 0.24902 0.63222 0.53483 0.0
N332 N 0.23098 0.67639 0.56574 0.0
C333 C 0.25975 0.65011 0.84278 0.0
C334 C 0.27451 0.609 0.77819 0.0
C335 C 0.27472 0.60364 0.6318 0.0
C336 C 0.22927 0.69087 0.69586 0.0
H337 H 0.24874 0.62037 0.42879 0.0
C338 C 0.17409 0.67235 0.21213 0.0
O339 O 0.24613 0.72547 0.89608 0.0
O340 O 0.24615 0.72548 0.89617 0.0
N341 N 0.22914 0.7792 0.57198 0.0
C342 C 0.24322 0.82539 0.55223 0.0
C343 C 0.26335 0.85527 0.65839 0.0
C344 C 0.27157 0.84427 0.80041 0.0
C345 C 0.26791 0.79801 0.84438 0.0
C346 C 0.23254 0.76115 0.69745 0.0
H347 H 0.24107 0.84002 0.44957 0.0
O348 O 0.28041 0.79118 0.22571 0.0
O349 O 0.26407 0.72659 0.32101 0.0
O350 O 0.19884 0.79378 0.10346 0.0
O351 O 0.17551 0.78122 0.32155 0.0
C352 C 0.30278 0.76059 1.00655 0.0
C353 C 0.29649 0.68269 0.0097 0.0
H354 H 0.28589 0.58038 0.84357 0.0
H355 H 0.29344 0.57287 0.59141 0.0
H356 H 0.27354 0.89065 0.62619 0.0
H357 H 0.28429 0.87144 0.86963 0.0
H358 H 0.32926 0.77703 0.06338 0.0
H359 H 0.30945 0.66266 0.09525 0.0
Mn360 Mn 0.22961 0.22509 0.95011 0.0
Mn361 Mn 0.21404 0.25537 0.69934 0.0
C362 C 0.30075 0.22553 0.85416 0.0
C363 C 0.23896 0.26224 0.25307 0.0
C364 C 0.16966 0.17766 0.9382 0.0
O365 O 0.17925 0.27271 0.99367 0.0
O366 O 0.18337 0.30788 0.79654 0.0
C367 C 0.25037 0.35124 0.60749 0.0
N368 N 0.24453 0.30405 0.58008 0.0
C369 C 0.28436 0.32258 0.33081 0.0
C370 C 0.27891 0.36932 0.37133 0.0
C371 C 0.27526 0.38064 0.51369 0.0
C372 C 0.26535 0.28611 0.46493 0.0
H373 H 0.24054 0.36557 0.70696 0.0
C374 C 0.17223 0.30825 0.92116 0.0
O375 O 0.21982 0.26037 0.13433 0.0
O376 O 0.21946 0.26071 0.13466 0.0
N377 N 0.24166 0.20745 0.56987 0.0
C378 C 0.24501 0.15932 0.58546 0.0
C379 C 0.26446 0.13037 0.47879 0.0
C380 C 0.27477 0.14722 0.34202 0.0
C381 C 0.28117 0.19633 0.31405 0.0
C382 C 0.2622 0.22825 0.45573 0.0
H383 H 0.23499 0.14322 0.68246 0.0
O384 O 0.28417 0.18743 0.9115 0.0
O385 O 0.27158 0.26216 0.83377 0.0
O386 O 0.19726 0.17872 0.03809 0.0
O387 O 0.1759 0.20151 0.81971 0.0
C388 C 0.30269 0.22727 0.15495 0.0
C389 C 0.30357 0.29605 0.16055 0.0
H390 H 0.28531 0.39625 0.29494 0.0
H391 H 0.28798 0.41491 0.54753 0.0
H392 H 0.26915 0.09294 0.50038 0.0
H393 H 0.28204 0.12141 0.26203 0.0
H394 H 0.32331 0.20734 0.08761 0.0
H395 H 0.31042 0.31681 0.06964 0.0
Mn396 Mn 0.40385 0.74058 0.52092 0.0
Mn397 Mn 0.43369 0.72796 0.20277 0.0
C398 C 0.34682 0.75935 0.33855 0.0
C399 C 0.35093 0.72234 0.83087 0.0
C400 C 0.47175 0.80581 0.43867 0.0
O401 O 0.4618 0.70375 0.51794 0.0
O402 O 0.45824 0.6759 0.30695 0.0
C403 C 0.3931 0.63196 0.10953 0.0
N404 N 0.4104 0.67632 0.07829 0.0
C405 C 0.38288 0.65009 0.79937 0.0
C406 C 0.3679 0.60896 0.86551 0.0
C407 C 0.36775 0.60327 0.0124 0.0
C408 C 0.41223 0.69084 0.9473 0.0
H409 H 0.39372 0.6201 0.21553 0.0
C410 C 0.46905 0.67229 0.43103 0.0
O411 O 0.39759 0.72536 0.74359 0.0
O412 O 0.39757 0.72537 0.7435 0.0
N413 N 0.41243 0.77885 0.07199 0.0
C414 C 0.39901 0.82535 0.09214 0.0
C415 C 0.37928 0.85545 0.98589 0.0
C416 C 0.37132 0.84443 0.84321 0.0
C417 C 0.37541 0.79805 0.79678 0.0
C418 C 0.40937 0.76081 0.94519 0.0
H419 H 0.40131 0.83996 0.19489 0.0
O420 O 0.36219 0.79213 0.41385 0.0
O421 O 0.37663 0.72503 0.32581 0.0
O422 O 0.44638 0.79693 0.54304 0.0
O423 O 0.46695 0.78128 0.32406 0.0
C424 C 0.3413 0.76084 0.63179 0.0
C425 C 0.34749 0.68272 0.62869 0.0
H426 H 0.35672 0.58022 0.80032 0.0
H427 H 0.34934 0.57237 0.05247 0.0
H428 H 0.36926 0.89097 0.01815 0.0
H429 H 0.35867 0.87184 0.77453 0.0
H430 H 0.31377 0.77732 0.57831 0.0
H431 H 0.33333 0.66249 0.54518 0.0
Mn432 Mn 0.555 0.08238 0.70106 0.0
Mn433 Mn 0.58525 0.0977 0.44835 0.0
C434 C 0.5556 0.01108 0.60394 0.0
C435 C 0.5929 0.07425 1.00226 0.0
C436 C 0.50442 0.14284 0.68108 0.0
O437 O 0.60271 0.13252 0.74492 0.0
O438 O 0.637 0.12738 0.54542 0.0
C439 C 0.68075 0.06033 0.35703 0.0
N440 N 0.63399 0.06709 0.32944 0.0
C441 C 0.65285 0.02805 0.07945 0.0
C442 C 0.69941 0.03344 0.11995 0.0
C443 C 0.7098 0.03496 0.2627 0.0
C444 C 0.61637 0.04696 0.21371 0.0
H445 H 0.69471 0.06926 0.45719 0.0
C446 C 0.63782 0.13892 0.66939 0.0
O447 O 0.59129 0.09371 0.88323 0.0
O448 O 0.5914 0.09383 0.88334 0.0
N449 N 0.53793 0.07044 0.31917 0.0
C450 C 0.48997 0.06722 0.33451 0.0
C451 C 0.46142 0.04783 0.22798 0.0
C452 C 0.47839 0.03793 0.09114 0.0
C453 C 0.52728 0.0318 0.06325 0.0
C454 C 0.55883 0.05027 0.20483 0.0
H455 H 0.47367 0.07711 0.43151 0.0
O456 O 0.51743 0.02801 0.66014 0.0
O457 O 0.59213 0.0401 0.58409 0.0
O458 O 0.50758 0.1163 0.78448 0.0
O459 O 0.5305 0.13664 0.56626 0.0
C460 C 0.55834 0.01043 0.90462 0.0
C461 C 0.62658 0.00921 0.90993 0.0
H462 H 0.72701 0.02768 0.04451 0.0
H463 H 0.74333 0.02057 0.29641 0.0
H464 H 0.42411 0.04305 0.24956 0.0
H465 H 0.45291 0.03076 0.01114 0.0
H466 H 0.53862 0.98974 0.83792 0.0
H467 H 0.64712 0.00341 0.81781 0.0
Mn468 Mn 0.06423 0.9118 0.26871 0.0
Mn469 Mn 0.05832 0.87689 0.94414 0.0
C470 C 0.08862 0.95883 0.06497 0.0
C471 C 0.05391 0.97497 0.55336 0.0
C472 C 0.13362 0.84179 0.18491 0.0
O473 O 0.03192 0.85201 0.26943 0.0
O474 O 0.00674 0.85073 0.05389 0.0
C475 C 0.96204 0.9172 0.85233 0.0
N476 N 0.00717 0.90283 0.82147 0.0
C477 C 0.98224 0.93314 0.54219 0.0
C478 C 0.93906 0.9422 0.60705 0.0
C479 C 0.93301 0.94206 0.75504 0.0
C480 C 0.02338 0.91108 0.69446 0.0
H481 H 0.94944 0.91437 0.95744 0.0
C482 C 0.00204 0.84204 0.18075 0.0
O483 O 0.05648 0.92287 0.4928 0.0
O484 O 0.05649 0.92288 0.49269 0.0
N485 N 0.10861 0.90252 0.81508 0.0
C486 C 0.15508 0.91405 0.83527 0.0
C487 C 0.18548 0.93349 0.72944 0.0
C488 C 0.1756 0.94012 0.58538 0.0
C489 C 0.12936 0.93924 0.53852 0.0
C490 C 0.09038 0.91323 0.69235 0.0
H491 H 0.17004 0.90923 0.93645 0.0
O492 O 0.12105 0.94221 0.13746 0.0
O493 O 0.05439 0.93082 0.06464 0.0
O494 O 0.12191 0.86794 0.28697 0.0
O495 O 0.11131 0.84502 0.06695 0.0
C496 C 0.09549 0.96784 0.35784 0.0
C497 C 0.01366 0.96185 0.35354 0.0
H498 H 0.91081 0.95453 0.54235 0.0
H499 H 0.90141 0.95927 0.79506 0.0
H500 H 0.2209 0.94273 0.76187 0.0
H501 H 0.20359 0.95194 0.51721 0.0
H502 H 0.11647 0.98993 0.29633 0.0
H503 H -0.0076 0.97436 0.26906 0.0
Mn504 Mn 0.57922 0.91218 0.37443 0.0
Mn505 Mn 0.58439 0.87709 0.69964 0.0
C506 C 0.55407 0.95863 0.57886 0.0
C507 C 0.58886 0.97504 0.0898 0.0
C508 C 0.51042 0.84218 0.45744 0.0
O509 O 0.61116 0.85204 0.37333 0.0
O510 O 0.63536 0.852 0.59006 0.0
C511 C 0.68007 0.91842 0.79077 0.0
N512 N 0.6355 0.90293 0.82196 0.0
C513 C 0.66061 0.93299 0.10152 0.0
C514 C 0.70362 0.94232 0.03654 0.0
C515 C 0.70849 0.94393 0.88845 0.0
C516 C 0.61945 0.91095 0.94894 0.0
H517 H 0.69243 0.91628 0.68524 0.0
C518 C 0.64056 0.84286 0.46415 0.0
O519 O 0.58638 0.923 0.1504 0.0
O520 O 0.58637 0.923 0.15051 0.0
N521 N 0.53412 0.9026 0.82855 0.0
C522 C 0.48765 0.91418 0.8083 0.0
C523 C 0.4572 0.93361 0.91423 0.0
C524 C 0.46714 0.94028 0.05826 0.0
C525 C 0.51344 0.93953 0.10487 0.0
C526 C 0.5524 0.91335 0.95104 0.0
H527 H 0.47273 0.90937 0.70707 0.0
O528 O 0.52192 0.942 0.50572 0.0
O529 O 0.58841 0.93069 0.5794 0.0
O530 O 0.52185 0.86848 0.3561 0.0
O531 O 0.53202 0.84542 0.57633 0.0
C532 C 0.54723 0.96806 0.28552 0.0
C533 C 0.62904 0.96186 0.28993 0.0
H534 H 0.7325 0.95397 0.10025 0.0
H535 H 0.7392 0.96247 0.84831 0.0
H536 H 0.42172 0.94286 0.88195 0.0
H537 H 0.43912 0.95214 0.12656 0.0
H538 H 0.52622 0.99001 0.34769 0.0
H539 H 0.6501 0.97376 0.37544 0.0
Mn540 Mn 0.08735 0.08214 0.94231 0.0
Mn541 Mn 0.05681 0.09817 0.19439 0.0
C542 C 0.08693 0.01125 0.03943 0.0
C543 C 0.04976 0.07401 0.64099 0.0
C544 C 0.13459 0.14244 0.95584 0.0
O545 O 0.0395 0.13244 0.89811 0.0
O546 O 0.00448 0.12919 0.09679 0.0
C547 C 0.96133 0.06191 0.28692 0.0
N548 N 0.00833 0.06763 0.31383 0.0
C549 C -0.0102 0.0282 0.5633 0.0
C550 C 0.94321 0.03372 0.52321 0.0
C551 C 0.93196 0.0372 0.38098 0.0
C552 C 0.02617 0.04709 0.42909 0.0
H553 H 0.94716 0.07172 0.18771 0.0
C554 C 0.0042 0.14029 0.97185 0.0
O555 O 0.05111 0.09336 0.76025 0.0
O556 O 0.05104 0.09344 0.76019 0.0
N557 N 0.10459 0.07055 0.32345 0.0
C558 C 0.15265 0.06726 0.3081 0.0
C559 C 0.18137 0.0479 0.4146 0.0
C560 C 0.16445 0.0378 0.55137 0.0
C561 C 0.11552 0.03154 0.57933 0.0
C562 C 0.0838 0.05025 0.43781 0.0
H563 H 0.16891 0.07724 0.21123 0.0
O564 O 0.12513 0.02791 0.98319 0.0
O565 O 0.05026 0.04041 0.05931 0.0
O566 O 0.13369 0.11472 0.85541 0.0
O567 O 0.1106 0.13628 0.07429 0.0
C568 C 0.08452 0.01019 0.73841 0.0
C569 C 0.01605 0.00918 0.73312 0.0
H570 H 0.91628 0.02749 0.5999 0.0
H571 H 0.89783 0.02441 0.34757 0.0
H572 H 0.2187 0.04321 0.39277 0.0
H573 H 0.19002 0.03064 0.63125 0.0
H574 H 0.10434 0.9896 0.80527 0.0
H575 H -0.00473 0.00249 0.82422 0.0
loop_
_geom_bond_atom_site_label_1
_geom_bond_atom_site_label_2
_geom_bond_distance
_geom_bond_site_symmetry_2
_ccdc_geom_bond_type
Mn0 O5 2.095 . S
Mn0 O15 2.162 . S
Mn0 O16 2.297 . S
Mn0 O24 2.385 . S
Mn0 O25 2.209 . S
Mn0 O26 2.094 . S
Mn1 O6 2.121 1_556 S
Mn1 N8 2.257 . S
Mn1 N17 2.282 . S
Mn1 O25 2.215 1_556 S
Mn1 O27 2.117 1_556 S
C2 O24 1.234 . S
C2 O25 1.283 . S
C3 O15 1.281 . S
C3 O16 1.236 . S
C4 O26 1.240 . S
C4 O27 1.264 . S
O5 Mn0 2.095 . S
O5 C14 1.250 . S
O6 Mn1 2.121 1_554 S
O6 C14 1.258 . S
C7 N8 1.326 . S
C7 C11 1.460 . S
C7 H13 0.929 . S
N8 Mn1 2.257 . S
N8 C7 1.326 . S
N8 C12 1.362 . S
C9 C10 1.258 . S
C9 C12 1.431 . S
C9 C29 1.449 . S
C10 C9 1.258 . S
C10 C11 1.477 . S
C10 H30 0.931 . S
C11 C7 1.460 . S
C11 C10 1.477 . S
C11 H31 0.930 . S
C12 N8 1.362 . S
C12 C9 1.431 . S
C12 C22 1.476 . S
H13 C7 0.929 . S
C14 O5 1.250 . S
C14 O6 1.258 . S
O15 Mn0 2.162 . S
O15 C3 1.281 . S
O16 Mn0 2.297 . S
O16 C3 1.236 . S
N17 Mn1 2.282 . S
N17 C18 1.328 . S
N17 C22 1.318 . S
C18 N17 1.328 . S
C18 C19 1.457 1_455 S
C18 H23 0.929 1_455 S
C19 C18 1.457 1_655 S
C19 C20 1.291 1_655 S
C19 H32 0.931 . S
C20 C19 1.291 1_455 S
C20 C21 1.373 . S
C20 H33 0.929 1_455 S
C21 C20 1.373 . S
C21 C22 1.396 . S
C21 C28 1.403 . S
C22 C12 1.476 . S
C22 N17 1.318 . S
C22 C21 1.396 . S
H23 C18 0.929 1_655 S
O24 Mn0 2.385 . S
O24 C2 1.234 . S
O25 Mn0 2.209 . S
O25 Mn1 2.215 1_554 S
O25 C2 1.283 . S
O26 Mn0 2.094 . S
O26 C4 1.240 . S
O27 Mn1 2.117 1_554 S
O27 C4 1.264 . S
C28 C21 1.403 . S
C28 C29 1.399 . S
C28 H34 0.929 . S
C29 C9 1.449 . S
C29 C28 1.399 . S
C29 H35 0.930 . S
H30 C10 0.931 . S
H31 C11 0.930 . S
H32 C19 0.931 . S
H33 C20 0.929 1_655 S
H34 C28 0.929 . S
H35 C29 0.930 . S
Mn36 O41 2.095 . S
Mn36 O51 2.162 . S
Mn36 O52 2.297 . S
Mn36 O60 2.385 . S
Mn36 O61 2.209 . S
Mn36 O62 2.094 . S
Mn37 O42 2.121 . S
Mn37 N44 2.257 . S
Mn37 N53 2.282 . S
Mn37 O61 2.215 . S
Mn37 O63 2.117 . S
C38 O60 1.234 . S
C38 O61 1.283 . S
C39 O51 1.281 . S
C39 O52 1.236 . S
C40 O62 1.240 . S
C40 O63 1.264 . S
O41 Mn36 2.095 . S
O41 C50 1.250 . S
O42 Mn37 2.121 . S
O42 C50 1.258 . S
C43 N44 1.326 . S
C43 C47 1.460 1_554 S
C43 H49 0.929 . S
N44 Mn37 2.257 . S
N44 C43 1.326 . S
N44 C48 1.362 1_554 S
C45 C46 1.258 . S
C45 C48 1.431 . S
C45 C65 1.449 . S
C46 C45 1.258 . S
C46 C47 1.477 . S
C46 H66 0.931 . S
C47 C43 1.460 1_556 S
C47 C46 1.477 . S
C47 H67 0.930 . S
C48 N44 1.362 1_556 S
C48 C45 1.431 . S
C48 C58 1.476 . S
H49 C43 0.929 . S
C50 O41 1.250 . S
C50 O42 1.258 . S
O51 Mn36 2.162 . S
O51 C39 1.281 . S
O52 Mn36 2.297 . S
O52 C39 1.236 . S
N53 Mn37 2.282 . S
N53 C54 1.328 . S
N53 C58 1.318 1_554 S
C54 N53 1.328 . S
C54 C55 1.457 1_554 S
C54 H59 0.929 . S
C55 C54 1.457 1_556 S
C55 C56 1.291 . S
C55 H68 0.931 . S
C56 C55 1.291 . S
C56 C57 1.373 . S
C56 H69 0.929 . S
C57 C56 1.373 . S
C57 C58 1.396 . S
C57 C64 1.403 . S
C58 C48 1.476 . S
C58 N53 1.318 1_556 S
C58 C57 1.396 . S
H59 C54 0.929 . S
O60 Mn36 2.385 . S
O60 C38 1.234 . S
O61 Mn36 2.209 . S
O61 Mn37 2.215 . S
O61 C38 1.283 . S
O62 Mn36 2.094 . S
O62 C40 1.240 . S
O63 Mn37 2.117 . S
O63 C40 1.264 . S
C64 C57 1.403 . S
C64 C65 1.399 . S
C64 H70 0.929 . S
C65 C45 1.449 . S
C65 C64 1.399 . S
C65 H71 0.930 . S
H66 C46 0.931 . S
H67 C47 0.930 . S
H68 C55 0.931 . S
H69 C56 0.929 . S
H70 C64 0.929 . S
H71 C65 0.930 . S
Mn72 O77 2.095 . S
Mn72 O87 2.162 1_556 S
Mn72 O88 2.297 . S
Mn72 O96 2.385 . S
Mn72 O97 2.209 . S
Mn72 O98 2.094 . S
Mn73 O78 2.121 . S
Mn73 N80 2.257 . S
Mn73 N89 2.282 . S
Mn73 O97 2.215 . S
Mn73 O99 2.117 . S
C74 O96 1.234 . S
C74 O97 1.283 . S
C75 O87 1.281 . S
C75 O88 1.236 1_554 S
C76 O98 1.240 . S
C76 O99 1.264 . S
O77 Mn72 2.095 . S
O77 C86 1.250 . S
O78 Mn73 2.121 . S
O78 C86 1.258 . S
C79 N80 1.326 . S
C79 C83 1.460 . S
C79 H85 0.929 . S
N80 Mn73 2.257 . S
N80 C79 1.326 . S
N80 C84 1.362 . S
C81 C82 1.258 . S
C81 C84 1.431 . S
C81 C101 1.449 1_554 S
C82 C81 1.258 . S
C82 C83 1.477 . S
C82 H102 0.931 . S
C83 C79 1.460 . S
C83 C82 1.477 . S
C83 H103 0.930 . S
C84 N80 1.362 . S
C84 C81 1.431 . S
C84 C94 1.476 . S
H85 C79 0.929 . S
C86 O77 1.250 . S
C86 O78 1.258 . S
O87 Mn72 2.162 1_554 S
O87 C75 1.281 . S
O88 Mn72 2.297 . S
O88 C75 1.236 1_556 S
N89 Mn73 2.282 . S
N89 C90 1.328 . S
N89 C94 1.318 . S
C90 N89 1.328 . S
C90 C91 1.457 . S
C90 H95 0.929 . S
C91 C90 1.457 . S
C91 C92 1.291 . S
C91 H104 0.931 . S
C92 C91 1.291 . S
C92 C93 1.373 . S
C92 H105 0.929 . S
C93 C92 1.373 . S
C93 C94 1.396 . S
C93 C100 1.402 1_554 S
C94 C84 1.476 . S
C94 N89 1.318 . S
C94 C93 1.396 . S
H95 C90 0.929 . S
O96 Mn72 2.385 . S
O96 C74 1.234 . S
O97 Mn72 2.209 . S
O97 Mn73 2.215 . S
O97 C74 1.283 . S
O98 Mn72 2.094 . S
O98 C76 1.240 . S
O99 Mn73 2.117 . S
O99 C76 1.264 . S
C100 C93 1.402 1_556 S
C100 C101 1.399 . S
C100 H106 0.930 . S
C101 C81 1.449 1_556 S
C101 C100 1.399 . S
C101 H107 0.930 . S
H102 C82 0.931 . S
H103 C83 0.930 . S
H104 C91 0.931 . S
H105 C92 0.929 . S
H106 C100 0.930 . S
H107 C101 0.930 . S
Mn108 O113 2.095 . S
Mn108 O123 2.162 . S
Mn108 O124 2.297 . S
Mn108 O132 2.385 1_554 S
Mn108 O133 2.209 1_554 S
Mn108 O134 2.094 . S
Mn109 O114 2.121 . S
Mn109 N116 2.257 . S
Mn109 N125 2.282 . S
Mn109 O133 2.215 . S
Mn109 O135 2.117 . S
C110 O132 1.234 . S
C110 O133 1.283 . S
C111 O123 1.281 . S
C111 O124 1.236 . S
C112 O134 1.240 1_556 S
C112 O135 1.264 . S
O113 Mn108 2.095 . S
O113 C122 1.250 1_554 S
O114 Mn109 2.121 . S
O114 C122 1.258 . S
C115 N116 1.326 . S
C115 C119 1.460 . S
C115 H121 0.929 . S
N116 Mn109 2.257 . S
N116 C115 1.326 . S
N116 C120 1.362 . S
C117 C118 1.258 . S
C117 C120 1.431 . S
C117 C137 1.449 . S
C118 C117 1.258 . S
C118 C119 1.477 . S
C118 H138 0.931 . S
C119 C115 1.460 . S
C119 C118 1.477 . S
C119 H139 0.930 . S
C120 N116 1.362 . S
C120 C117 1.431 . S
C120 C130 1.476 . S
H121 C115 0.929 . S
C122 O113 1.250 1_556 S
C122 O114 1.258 . S
O123 Mn108 2.162 . S
O123 C111 1.281 . S
O124 Mn108 2.297 . S
O124 C111 1.236 . S
N125 Mn109 2.282 . S
N125 C126 1.328 . S
N125 C130 1.318 . S
C126 N125 1.328 . S
C126 C127 1.457 . S
C126 H131 0.929 . S
C127 C126 1.457 . S
C127 C128 1.291 . S
C127 H140 0.931 . S
C128 C127 1.291 . S
C128 C129 1.373 . S
C128 H141 0.929 . S
C129 C128 1.373 . S
C129 C130 1.396 . S
C129 C136 1.403 . S
C130 C120 1.476 . S
C130 N125 1.318 . S
C130 C129 1.396 . S
H131 C126 0.929 . S
O132 Mn108 2.385 1_556 S
O132 C110 1.234 . S
O133 Mn108 2.209 1_556 S
O133 Mn109 2.215 . S
O133 C110 1.283 . S
O134 Mn108 2.094 . S
O134 C112 1.240 1_554 S
O135 Mn109 2.117 . S
O135 C112 1.264 . S
C136 C129 1.403 . S
C136 C137 1.399 . S
C136 H142 0.929 . S
C137 C117 1.449 . S
C137 C136 1.399 . S
C137 H143 0.930 . S
H138 C118 0.931 . S
H139 C119 0.930 . S
H140 C127 0.931 . S
H141 C128 0.929 . S
H142 C136 0.929 . S
H143 C137 0.930 . S
Mn144 O149 2.095 . S
Mn144 O159 2.162 . S
Mn144 O160 2.297 . S
Mn144 O168 2.385 . S
Mn144 O169 2.209 1_556 S
Mn144 O170 2.094 . S
Mn145 O150 2.121 . S
Mn145 N152 2.257 . S
Mn145 N161 2.282 . S
Mn145 O169 2.215 . S
Mn145 O171 2.117 . S
C146 O168 1.234 1_554 S
C146 O169 1.283 . S
C147 O159 1.281 . S
C147 O160 1.236 . S
C148 O170 1.240 . S
C148 O171 1.264 1_556 S
O149 Mn144 2.095 . S
O149 C158 1.250 . S
O150 Mn145 2.121 . S
O150 C158 1.258 1_554 S
C151 N152 1.326 . S
C151 C155 1.460 . S
C151 H157 0.929 . S
N152 Mn145 2.257 . S
N152 C151 1.326 . S
N152 C156 1.362 . S
C153 C154 1.258 . S
C153 C156 1.431 . S
C153 C173 1.449 . S
C154 C153 1.258 . S
C154 C155 1.477 . S
C154 H174 0.931 . S
C155 C151 1.460 . S
C155 C154 1.477 . S
C155 H175 0.930 . S
C156 N152 1.362 . S
C156 C153 1.431 . S
C156 C166 1.476 . S
H157 C151 0.929 . S
C158 O149 1.250 . S
C158 O150 1.258 1_556 S
O159 Mn144 2.162 . S
O159 C147 1.281 . S
O160 Mn144 2.297 . S
O160 C147 1.236 . S
N161 Mn145 2.282 . S
N161 C162 1.328 . S
N161 C166 1.318 . S
C162 N161 1.328 . S
C162 C163 1.457 1_455 S
C162 H167 0.929 1_455 S
C163 C162 1.457 1_655 S
C163 C164 1.291 1_655 S
C163 H176 0.931 . S
C164 C163 1.291 1_455 S
C164 C165 1.373 . S
C164 H177 0.929 1_455 S
C165 C164 1.373 . S
C165 C166 1.396 . S
C165 C172 1.403 . S
C166 C156 1.476 . S
C166 N161 1.318 . S
C166 C165 1.396 . S
H167 C162 0.929 1_655 S
O168 Mn144 2.385 . S
O168 C146 1.234 1_556 S
O169 Mn144 2.209 1_554 S
O169 Mn145 2.215 . S
O169 C146 1.283 . S
O170 Mn144 2.094 . S
O170 C148 1.240 . S
O171 Mn145 2.117 . S
O171 C148 1.264 1_554 S
C172 C165 1.403 . S
C172 C173 1.399 . S
C172 H178 0.929 . S
C173 C153 1.449 . S
C173 C172 1.399 . S
C173 H179 0.930 . S
H174 C154 0.931 . S
H175 C155 0.930 . S
H176 C163 0.931 . S
H177 C164 0.929 1_655 S
H178 C172 0.929 . S
H179 C173 0.930 . S
Mn180 O185 2.095 . S
Mn180 O195 2.162 1_554 S
Mn180 O196 2.297 1_554 S
Mn180 O204 2.385 . S
Mn180 O205 2.209 . S
Mn180 O206 2.094 . S
Mn181 O186 2.121 . S
Mn181 N188 2.257 . S
Mn181 N197 2.282 . S
Mn181 O205 2.215 . S
Mn181 O207 2.117 . S
C182 O204 1.234 . S
C182 O205 1.283 . S
C183 O195 1.281 . S
C183 O196 1.236 . S
C184 O206 1.240 . S
C184 O207 1.264 . S
O185 Mn180 2.095 . S
O185 C194 1.250 . S
O186 Mn181 2.121 . S
O186 C194 1.258 . S
C187 N188 1.326 . S
C187 C191 1.460 . S
C187 H193 0.929 . S
N188 Mn181 2.257 . S
N188 C187 1.326 . S
N188 C192 1.362 . S
C189 C190 1.258 . S
C189 C192 1.431 . S
C189 C209 1.449 . S
C190 C189 1.258 . S
C190 C191 1.477 . S
C190 H210 0.931 . S
C191 C187 1.460 . S
C191 C190 1.477 . S
C191 H211 0.930 . S
C192 N188 1.362 . S
C192 C189 1.431 . S
C192 C202 1.476 . S
H193 C187 0.929 . S
C194 O185 1.250 . S
C194 O186 1.258 . S
O195 Mn180 2.162 1_556 S
O195 C183 1.281 . S
O196 Mn180 2.297 1_556 S
O196 C183 1.236 . S
N197 Mn181 2.282 . S
N197 C198 1.328 . S
N197 C202 1.318 . S
C198 N197 1.328 . S
C198 C199 1.457 . S
C198 H203 0.929 . S
C199 C198 1.457 . S
C199 C200 1.291 . S
C199 H212 0.931 . S
C200 C199 1.291 . S
C200 C201 1.373 . S
C200 H213 0.929 . S
C201 C200 1.373 . S
C201 C202 1.396 . S
C201 C208 1.403 . S
C202 C192 1.476 . S
C202 N197 1.318 . S
C202 C201 1.396 . S
H203 C198 0.929 . S
O204 Mn180 2.385 . S
O204 C182 1.234 . S
O205 Mn180 2.209 . S
O205 Mn181 2.215 . S
O205 C182 1.283 . S
O206 Mn180 2.094 . S
O206 C184 1.240 . S
O207 Mn181 2.117 . S
O207 C184 1.264 . S
C208 C201 1.403 . S
C208 C209 1.399 . S
C208 H214 0.929 . S
C209 C189 1.449 . S
C209 C208 1.399 . S
C209 H215 0.930 . S
H210 C190 0.931 . S
H211 C191 0.930 . S
H212 C199 0.931 . S
H213 C200 0.929 . S
H214 C208 0.929 . S
H215 C209 0.930 . S
Mn216 O221 2.095 . S
Mn216 O231 2.162 . S
Mn216 O232 2.297 . S
Mn216 O240 2.385 . S
Mn216 O241 2.209 . S
Mn216 O242 2.094 . S
Mn217 O222 2.121 . S
Mn217 N224 2.257 . S
Mn217 N233 2.282 . S
Mn217 O241 2.215 . S
Mn217 O243 2.117 . S
C218 O240 1.234 . S
C218 O241 1.283 . S
C219 O231 1.281 . S
C219 O232 1.236 . S
C220 O242 1.240 . S
C220 O243 1.264 . S
O221 Mn216 2.095 . S
O221 C230 1.250 . S
O222 Mn217 2.121 . S
O222 C230 1.258 . S
C223 N224 1.326 . S
C223 C227 1.460 . S
C223 H229 0.929 . S
N224 Mn217 2.257 . S
N224 C223 1.326 . S
N224 C228 1.362 . S
C225 C226 1.258 . S
C225 C228 1.431 1_554 S
C225 C245 1.449 . S
C226 C225 1.258 . S
C226 C227 1.477 1_554 S
C226 H246 0.931 . S
C227 C223 1.460 . S
C227 C226 1.477 1_556 S
C227 H247 0.930 . S
C228 N224 1.362 . S
C228 C225 1.431 1_556 S
C228 C238 1.476 . S
H229 C223 0.929 . S
C230 O221 1.250 . S
C230 O222 1.258 . S
O231 Mn216 2.162 . S
O231 C219 1.281 . S
O232 Mn216 2.297 . S
O232 C219 1.236 . S
N233 Mn217 2.282 . S
N233 C234 1.328 . S
N233 C238 1.318 . S
C234 N233 1.328 . S
C234 C235 1.457 . S
C234 H239 0.929 . S
C235 C234 1.457 . S
C235 C236 1.291 1_556 S
C235 H248 0.931 . S
C236 C235 1.291 1_554 S
C236 C237 1.373 . S
C236 H249 0.929 . S
C237 C236 1.373 . S
C237 C238 1.396 1_554 S
C237 C244 1.403 . S
C238 C228 1.476 . S
C238 N233 1.318 . S
C238 C237 1.396 1_556 S
H239 C234 0.929 . S
O240 Mn216 2.385 . S
O240 C218 1.234 . S
O241 Mn216 2.209 . S
O241 Mn217 2.215 . S
O241 C218 1.283 . S
O242 Mn216 2.094 . S
O242 C220 1.240 . S
O243 Mn217 2.117 . S
O243 C220 1.264 . S
C244 C237 1.403 . S
C244 C245 1.399 . S
C244 H250 0.929 . S
C245 C225 1.449 . S
C245 C244 1.399 . S
C245 H251 0.930 . S
H246 C226 0.931 . S
H247 C227 0.930 . S
H248 C235 0.931 . S
H249 C236 0.929 . S
H250 C244 0.929 . S
H251 C245 0.930 . S
Mn252 O257 2.095 . S
Mn252 O267 2.162 . S
Mn252 O268 2.297 . S
Mn252 O276 2.385 . S
Mn252 O277 2.209 . S
Mn252 O278 2.094 . S
Mn253 O258 2.121 . S
Mn253 N260 2.257 1_556 S
Mn253 N269 2.282 1_556 S
Mn253 O277 2.215 . S
Mn253 O279 2.117 . S
C254 O276 1.234 . S
C254 O277 1.283 . S
C255 O267 1.281 . S
C255 O268 1.236 . S
C256 O278 1.240 . S
C256 O279 1.264 . S
O257 Mn252 2.095 . S
O257 C266 1.250 . S
O258 Mn253 2.121 . S
O258 C266 1.258 . S
C259 N260 1.326 . S
C259 C263 1.460 . S
C259 H265 0.929 1_554 S
N260 Mn253 2.257 1_554 S
N260 C259 1.326 . S
N260 C264 1.362 . S
C261 C262 1.258 . S
C261 C264 1.431 . S
C261 C281 1.449 . S
C262 C261 1.258 . S
C262 C263 1.477 . S
C262 H282 0.931 . S
C263 C259 1.460 . S
C263 C262 1.477 . S
C263 H283 0.930 . S
C264 N260 1.362 . S
C264 C261 1.431 . S
C264 C274 1.476 . S
H265 C259 0.929 1_556 S
C266 O257 1.250 . S
C266 O258 1.258 . S
O267 Mn252 2.162 . S
O267 C255 1.281 . S
O268 Mn252 2.297 . S
O268 C255 1.236 . S
N269 Mn253 2.282 1_554 S
N269 C270 1.328 . S
N269 C274 1.318 . S
C270 N269 1.328 . S
C270 C271 1.457 . S
C270 H275 0.929 1_554 S
C271 C270 1.457 . S
C271 C272 1.291 . S
C271 H284 0.931 . S
C272 C271 1.291 . S
C272 C273 1.373 . S
C272 H285 0.929 . S
C273 C272 1.373 . S
C273 C274 1.396 . S
C273 C280 1.403 . S
C274 C264 1.476 . S
C274 N269 1.318 . S
C274 C273 1.396 . S
H275 C270 0.929 1_556 S
O276 Mn252 2.385 . S
O276 C254 1.234 . S
O277 Mn252 2.209 . S
O277 Mn253 2.215 . S
O277 C254 1.283 . S
O278 Mn252 2.094 . S
O278 C256 1.240 . S
O279 Mn253 2.117 . S
O279 C256 1.264 . S
C280 C273 1.403 . S
C280 C281 1.399 . S
C280 H286 0.929 . S
C281 C261 1.449 . S
C281 C280 1.399 . S
C281 H287 0.930 . S
H282 C262 0.931 . S
H283 C263 0.930 . S
H284 C271 0.931 . S
H285 C272 0.929 . S
H286 C280 0.929 . S
H287 C281 0.930 . S
Mn288 O293 2.095 . S
Mn288 O303 2.162 . S
Mn288 O304 2.297 . S
Mn288 O312 2.385 . S
Mn288 O313 2.209 . S
Mn288 O314 2.094 . S
Mn289 O294 2.121 . S
Mn289 N296 2.257 1_556 S
Mn289 N305 2.282 1_556 S
Mn289 O313 2.215 . S
Mn289 O315 2.117 . S
C290 O312 1.234 . S
C290 O313 1.283 . S
C291 O303 1.281 . S
C291 O304 1.236 . S
C292 O314 1.240 . S
C292 O315 1.264 . S
O293 Mn288 2.095 . S
O293 C302 1.250 . S
O294 Mn289 2.121 . S
O294 C302 1.258 . S
C295 N296 1.326 . S
C295 C299 1.460 . S
C295 H301 0.929 1_554 S
N296 Mn289 2.257 1_554 S
N296 C295 1.326 . S
N296 C300 1.362 . S
C297 C298 1.258 . S
C297 C300 1.431 . S
C297 C317 1.449 . S
C298 C297 1.258 . S
C298 C299 1.477 . S
C298 H318 0.931 . S
C299 C295 1.460 . S
C299 C298 1.477 . S
C299 H319 0.930 . S
C300 N296 1.362 . S
C300 C297 1.431 . S
C300 C310 1.476 . S
H301 C295 0.929 1_556 S
C302 O293 1.250 . S
C302 O294 1.258 . S
O303 Mn288 2.162 . S
O303 C291 1.281 . S
O304 Mn288 2.297 . S
O304 C291 1.236 . S
N305 Mn289 2.282 1_554 S
N305 C306 1.328 . S
N305 C310 1.318 . S
C306 N305 1.328 . S
C306 C307 1.457 . S
C306 H311 0.929 1_554 S
C307 C306 1.457 . S
C307 C308 1.291 . S
C307 H320 0.931 . S
C308 C307 1.291 . S
C308 C309 1.373 . S
C308 H321 0.929 . S
C309 C308 1.373 . S
C309 C310 1.396 . S
C309 C316 1.403 . S
C310 C300 1.476 . S
C310 N305 1.318 . S
C310 C309 1.396 . S
H311 C306 0.929 1_556 S
O312 Mn288 2.385 . S
O312 C290 1.234 . S
O313 Mn288 2.209 . S
O313 Mn289 2.215 . S
O313 C290 1.283 . S
O314 Mn288 2.094 . S
O314 C292 1.240 . S
O315 Mn289 2.117 . S
O315 C292 1.264 . S
C316 C309 1.403 . S
C316 C317 1.399 . S
C316 H322 0.929 . S
C317 C297 1.449 . S
C317 C316 1.399 . S
C317 H323 0.930 . S
H318 C298 0.931 . S
H319 C299 0.930 . S
H320 C307 0.931 . S
H321 C308 0.929 . S
H322 C316 0.929 . S
H323 C317 0.930 . S
Mn324 O329 2.095 . S
Mn324 O339 2.162 1_554 S
Mn324 O340 2.297 1_554 S
Mn324 O348 2.385 . S
Mn324 O349 2.209 . S
Mn324 O350 2.094 . S
Mn325 O330 2.121 . S
Mn325 N332 2.257 . S
Mn325 N341 2.282 . S
Mn325 O349 2.215 . S
Mn325 O351 2.117 . S
C326 O348 1.234 . S
C326 O349 1.283 . S
C327 O339 1.281 . S
C327 O340 1.236 . S
C328 O350 1.240 . S
C328 O351 1.264 . S
O329 Mn324 2.095 . S
O329 C338 1.250 . S
O330 Mn325 2.121 . S
O330 C338 1.258 . S
C331 N332 1.326 . S
C331 C335 1.460 . S
C331 H337 0.929 . S
N332 Mn325 2.257 . S
N332 C331 1.326 . S
N332 C336 1.362 . S
C333 C334 1.258 . S
C333 C336 1.431 . S
C333 C353 1.449 . S
C334 C333 1.258 . S
C334 C335 1.477 . S
C334 H354 0.931 . S
C335 C331 1.460 . S
C335 C334 1.477 . S
C335 H355 0.930 . S
C336 N332 1.362 . S
C336 C333 1.431 . S
C336 C346 1.476 . S
H337 C331 0.929 . S
C338 O329 1.250 . S
C338 O330 1.258 . S
O339 Mn324 2.162 1_556 S
O339 C327 1.281 . S
O340 Mn324 2.297 1_556 S
O340 C327 1.236 . S
N341 Mn325 2.282 . S
N341 C342 1.328 . S
N341 C346 1.318 . S
C342 N341 1.328 . S
C342 C343 1.457 . S
C342 H347 0.929 . S
C343 C342 1.457 . S
C343 C344 1.291 . S
C343 H356 0.931 . S
C344 C343 1.291 . S
C344 C345 1.373 . S
C344 H357 0.929 . S
C345 C344 1.373 . S
C345 C346 1.396 . S
C345 C352 1.403 . S
C346 C336 1.476 . S
C346 N341 1.318 . S
C346 C345 1.396 . S
H347 C342 0.929 . S
O348 Mn324 2.385 . S
O348 C326 1.234 . S
O349 Mn324 2.209 . S
O349 Mn325 2.215 . S
O349 C326 1.283 . S
O350 Mn324 2.094 . S
O350 C328 1.240 . S
O351 Mn325 2.117 . S
O351 C328 1.264 . S
C352 C345 1.403 . S
C352 C353 1.399 . S
C352 H358 0.929 . S
C353 C333 1.449 . S
C353 C352 1.399 . S
C353 H359 0.930 . S
H354 C334 0.931 . S
H355 C335 0.930 . S
H356 C343 0.931 . S
H357 C344 0.929 . S
H358 C352 0.929 . S
H359 C353 0.930 . S
Mn360 O365 2.095 . S
Mn360 O375 2.162 . S
Mn360 O376 2.297 . S
Mn360 O384 2.385 1_554 S
Mn360 O385 2.209 1_554 S
Mn360 O386 2.094 . S
Mn361 O366 2.121 . S
Mn361 N368 2.257 . S
Mn361 N377 2.282 . S
Mn361 O385 2.215 . S
Mn361 O387 2.117 . S
C362 O384 1.234 . S
C362 O385 1.283 . S
C363 O375 1.281 . S
C363 O376 1.236 . S
C364 O386 1.240 1_556 S
C364 O387 1.264 . S
O365 Mn360 2.095 . S
O365 C374 1.250 1_554 S
O366 Mn361 2.121 . S
O366 C374 1.258 . S
C367 N368 1.326 . S
C367 C371 1.460 . S
C367 H373 0.929 . S
N368 Mn361 2.257 . S
N368 C367 1.326 . S
N368 C372 1.362 . S
C369 C370 1.258 . S
C369 C372 1.431 . S
C369 C389 1.449 . S
C370 C369 1.258 . S
C370 C371 1.477 . S
C370 H390 0.931 . S
C371 C367 1.460 . S
C371 C370 1.477 . S
C371 H391 0.930 . S
C372 N368 1.362 . S
C372 C369 1.431 . S
C372 C382 1.476 . S
H373 C367 0.929 . S
C374 O365 1.250 1_556 S
C374 O366 1.258 . S
O375 Mn360 2.162 . S
O375 C363 1.281 . S
O376 Mn360 2.297 . S
O376 C363 1.236 . S
N377 Mn361 2.282 . S
N377 C378 1.328 . S
N377 C382 1.318 . S
C378 N377 1.328 . S
C378 C379 1.457 . S
C378 H383 0.929 . S
C379 C378 1.457 . S
C379 C380 1.291 . S
C379 H392 0.931 . S
C380 C379 1.291 . S
C380 C381 1.373 . S
C380 H393 0.929 . S
C381 C380 1.373 . S
C381 C382 1.396 . S
C381 C388 1.403 . S
C382 C372 1.476 . S
C382 N377 1.318 . S
C382 C381 1.396 . S
H383 C378 0.929 . S
O384 Mn360 2.385 1_556 S
O384 C362 1.234 . S
O385 Mn360 2.209 1_556 S
O385 Mn361 2.215 . S
O385 C362 1.283 . S
O386 Mn360 2.094 . S
O386 C364 1.240 1_554 S
O387 Mn361 2.117 . S
O387 C364 1.264 . S
C388 C381 1.403 . S
C388 C389 1.399 . S
C388 H394 0.929 . S
C389 C369 1.449 . S
C389 C388 1.399 . S
C389 H395 0.930 . S
H390 C370 0.931 . S
H391 C371 0.930 . S
H392 C379 0.931 . S
H393 C380 0.929 . S
H394 C388 0.929 . S
H395 C389 0.930 . S
Mn396 O401 2.095 . S
Mn396 O411 2.162 . S
Mn396 O412 2.297 . S
Mn396 O420 2.385 . S
Mn396 O421 2.209 . S
Mn396 O422 2.094 . S
Mn397 O402 2.121 . S
Mn397 N404 2.257 . S
Mn397 N413 2.282 . S
Mn397 O421 2.215 . S
Mn397 O423 2.117 . S
C398 O420 1.234 . S
C398 O421 1.283 . S
C399 O411 1.281 . S
C399 O412 1.236 . S
C400 O422 1.240 . S
C400 O423 1.264 . S
O401 Mn396 2.095 . S
O401 C410 1.250 . S
O402 Mn397 2.121 . S
O402 C410 1.258 . S
C403 N404 1.326 . S
C403 C407 1.460 1_554 S
C403 H409 0.929 . S
N404 Mn397 2.257 . S
N404 C403 1.326 . S
N404 C408 1.362 1_554 S
C405 C406 1.258 . S
C405 C408 1.431 . S
C405 C425 1.449 . S
C406 C405 1.258 . S
C406 C407 1.477 . S
C406 H426 0.931 . S
C407 C403 1.460 1_556 S
C407 C406 1.477 . S
C407 H427 0.930 . S
C408 N404 1.362 1_556 S
C408 C405 1.431 . S
C408 C418 1.476 . S
H409 C403 0.929 . S
C410 O401 1.250 . S
C410 O402 1.258 . S
O411 Mn396 2.162 . S
O411 C399 1.281 . S
O412 Mn396 2.297 . S
O412 C399 1.236 . S
N413 Mn397 2.282 . S
N413 C414 1.328 . S
N413 C418 1.318 1_554 S
C414 N413 1.328 . S
C414 C415 1.457 1_554 S
C414 H419 0.929 . S
C415 C414 1.457 1_556 S
C415 C416 1.291 . S
C415 H428 0.931 . S
C416 C415 1.291 . S
C416 C417 1.373 . S
C416 H429 0.929 . S
C417 C416 1.373 . S
C417 C418 1.396 . S
C417 C424 1.403 . S
C418 C408 1.476 . S
C418 N413 1.318 1_556 S
C418 C417 1.396 . S
H419 C414 0.929 . S
O420 Mn396 2.385 . S
O420 C398 1.234 . S
O421 Mn396 2.209 . S
O421 Mn397 2.215 . S
O421 C398 1.283 . S
O422 Mn396 2.094 . S
O422 C400 1.240 . S
O423 Mn397 2.117 . S
O423 C400 1.264 . S
C424 C417 1.403 . S
C424 C425 1.399 . S
C424 H430 0.929 . S
C425 C405 1.449 . S
C425 C424 1.399 . S
C425 H431 0.930 . S
H426 C406 0.931 . S
H427 C407 0.930 . S
H428 C415 0.931 . S
H429 C416 0.929 . S
H430 C424 0.929 . S
H431 C425 0.930 . S
Mn432 O437 2.095 . S
Mn432 O447 2.162 1_556 S
Mn432 O448 2.297 . S
Mn432 O456 2.385 . S
Mn432 O457 2.209 . S
Mn432 O458 2.094 . S
Mn433 O438 2.121 . S
Mn433 N440 2.257 . S
Mn433 N449 2.282 . S
Mn433 O457 2.215 . S
Mn433 O459 2.117 . S
C434 O456 1.234 . S
C434 O457 1.283 . S
C435 O447 1.281 . S
C435 O448 1.236 1_554 S
C436 O458 1.240 . S
C436 O459 1.264 . S
O437 Mn432 2.095 . S
O437 C446 1.250 . S
O438 Mn433 2.121 . S
O438 C446 1.258 . S
C439 N440 1.326 . S
C439 C443 1.460 . S
C439 H445 0.929 . S
N440 Mn433 2.257 . S
N440 C439 1.326 . S
N440 C444 1.362 . S
C441 C442 1.258 . S
C441 C444 1.431 . S
C441 C461 1.449 1_554 S
C442 C441 1.258 . S
C442 C443 1.477 . S
C442 H462 0.931 . S
C443 C439 1.460 . S
C443 C442 1.477 . S
C443 H463 0.930 . S
C444 N440 1.362 . S
C444 C441 1.431 . S
C444 C454 1.476 . S
H445 C439 0.929 . S
C446 O437 1.250 . S
C446 O438 1.258 . S
O447 Mn432 2.162 1_554 S
O447 C435 1.281 . S
O448 Mn432 2.297 . S
O448 C435 1.236 1_556 S
N449 Mn433 2.282 . S
N449 C450 1.328 . S
N449 C454 1.318 . S
C450 N449 1.328 . S
C450 C451 1.457 . S
C450 H455 0.929 . S
C451 C450 1.457 . S
C451 C452 1.291 . S
C451 H464 0.931 . S
C452 C451 1.291 . S
C452 C453 1.373 . S
C452 H465 0.929 . S
C453 C452 1.373 . S
C453 C454 1.396 . S
C453 C460 1.402 1_554 S
C454 C444 1.476 . S
C454 N449 1.318 . S
C454 C453 1.396 . S
H455 C450 0.929 . S
O456 Mn432 2.385 . S
O456 C434 1.234 . S
O457 Mn432 2.209 . S
O457 Mn433 2.215 . S
O457 C434 1.283 . S
O458 Mn432 2.094 . S
O458 C436 1.240 . S
O459 Mn433 2.117 . S
O459 C436 1.264 . S
C460 C453 1.402 1_556 S
C460 C461 1.399 . S
C460 H466 0.930 1_545 S
C461 C441 1.449 1_556 S
C461 C460 1.399 . S
C461 H467 0.930 1_545 S
H462 C442 0.931 . S
H463 C443 0.930 . S
H464 C451 0.931 . S
H465 C452 0.929 . S
H466 C460 0.930 1_565 S
H467 C461 0.930 1_565 S
Mn468 O473 2.095 . S
Mn468 O483 2.162 . S
Mn468 O484 2.297 . S
Mn468 O492 2.385 . S
Mn468 O493 2.209 . S
Mn468 O494 2.094 . S
Mn469 O474 2.121 1_556 S
Mn469 N476 2.257 . S
Mn469 N485 2.282 . S
Mn469 O493 2.215 1_556 S
Mn469 O495 2.117 1_556 S
C470 O492 1.234 . S
C470 O493 1.283 . S
C471 O483 1.281 . S
C471 O484 1.236 . S
C472 O494 1.240 . S
C472 O495 1.264 . S
O473 Mn468 2.095 . S
O473 C482 1.250 . S
O474 Mn469 2.121 1_554 S
O474 C482 1.258 . S
C475 N476 1.326 1_655 S
C475 C479 1.460 . S
C475 H481 0.929 . S
N476 Mn469 2.257 . S
N476 C475 1.326 1_455 S
N476 C480 1.362 . S
C477 C478 1.258 1_455 S
C477 C480 1.431 . S
C477 C497 1.449 . S
C478 C477 1.258 1_655 S
C478 C479 1.477 . S
C478 H498 0.931 . S
C479 C475 1.460 . S
C479 C478 1.477 . S
C479 H499 0.930 . S
C480 N476 1.362 . S
C480 C477 1.431 . S
C480 C490 1.476 . S
H481 C475 0.929 . S
C482 O473 1.250 . S
C482 O474 1.258 . S
O483 Mn468 2.162 . S
O483 C471 1.281 . S
O484 Mn468 2.297 . S
O484 C471 1.236 . S
N485 Mn469 2.282 . S
N485 C486 1.328 . S
N485 C490 1.318 . S
C486 N485 1.328 . S
C486 C487 1.457 . S
C486 H491 0.929 . S
C487 C486 1.457 . S
C487 C488 1.291 . S
C487 H500 0.931 . S
C488 C487 1.291 . S
C488 C489 1.373 . S
C488 H501 0.929 . S
C489 C488 1.373 . S
C489 C490 1.396 . S
C489 C496 1.403 . S
C490 C480 1.476 . S
C490 N485 1.318 . S
C490 C489 1.396 . S
H491 C486 0.929 . S
O492 Mn468 2.385 . S
O492 C470 1.234 . S
O493 Mn468 2.209 . S
O493 Mn469 2.215 1_554 S
O493 C470 1.283 . S
O494 Mn468 2.094 . S
O494 C472 1.240 . S
O495 Mn469 2.117 1_554 S
O495 C472 1.264 . S
C496 C489 1.403 . S
C496 C497 1.399 . S
C496 H502 0.929 1_565 S
C497 C477 1.449 . S
C497 C496 1.399 . S
C497 H503 0.930 1_565 S
H498 C478 0.931 . S
H499 C479 0.930 . S
H500 C487 0.931 . S
H501 C488 0.929 . S
H502 C496 0.929 1_545 S
H503 C497 0.930 1_545 S
Mn504 O509 2.095 . S
Mn504 O519 2.162 . S
Mn504 O520 2.297 . S
Mn504 O528 2.385 . S
Mn504 O529 2.209 . S
Mn504 O530 2.094 . S
Mn505 O510 2.121 . S
Mn505 N512 2.257 . S
Mn505 N521 2.282 . S
Mn505 O529 2.215 . S
Mn505 O531 2.117 . S
C506 O528 1.234 . S
C506 O529 1.283 . S
C507 O519 1.281 . S
C507 O520 1.236 . S
C508 O530 1.240 . S
C508 O531 1.264 . S
O509 Mn504 2.095 . S
O509 C518 1.250 . S
O510 Mn505 2.121 . S
O510 C518 1.258 . S
C511 N512 1.326 . S
C511 C515 1.460 . S
C511 H517 0.929 . S
N512 Mn505 2.257 . S
N512 C511 1.326 . S
N512 C516 1.362 . S
C513 C514 1.258 . S
C513 C516 1.431 1_554 S
C513 C533 1.449 . S
C514 C513 1.258 . S
C514 C515 1.477 1_554 S
C514 H534 0.931 . S
C515 C511 1.460 . S
C515 C514 1.477 1_556 S
C515 H535 0.930 . S
C516 N512 1.362 . S
C516 C513 1.431 1_556 S
C516 C526 1.476 . S
H517 C511 0.929 . S
C518 O509 1.250 . S
C518 O510 1.258 . S
O519 Mn504 2.162 . S
O519 C507 1.281 . S
O520 Mn504 2.297 . S
O520 C507 1.236 . S
N521 Mn505 2.282 . S
N521 C522 1.328 . S
N521 C526 1.318 . S
C522 N521 1.328 . S
C522 C523 1.457 . S
C522 H527 0.929 . S
C523 C522 1.457 . S
C523 C524 1.291 1_556 S
C523 H536 0.931 . S
C524 C523 1.291 1_554 S
C524 C525 1.373 . S
C524 H537 0.929 . S
C525 C524 1.373 . S
C525 C526 1.396 1_554 S
C525 C532 1.403 . S
C526 C516 1.476 . S
C526 N521 1.318 . S
C526 C525 1.396 1_556 S
H527 C522 0.929 . S
O528 Mn504 2.385 . S
O528 C506 1.234 . S
O529 Mn504 2.209 . S
O529 Mn505 2.215 . S
O529 C506 1.283 . S
O530 Mn504 2.094 . S
O530 C508 1.240 . S
O531 Mn505 2.117 . S
O531 C508 1.264 . S
C532 C525 1.403 . S
C532 C533 1.399 . S
C532 H538 0.929 1_565 S
C533 C513 1.449 . S
C533 C532 1.399 . S
C533 H539 0.930 1_565 S
H534 C514 0.931 . S
H535 C515 0.930 . S
H536 C523 0.931 . S
H537 C524 0.929 . S
H538 C532 0.929 1_545 S
H539 C533 0.930 1_545 S
Mn540 O545 2.095 . S
Mn540 O555 2.162 . S
Mn540 O556 2.297 . S
Mn540 O564 2.385 . S
Mn540 O565 2.209 1_556 S
Mn540 O566 2.094 . S
Mn541 O546 2.121 . S
Mn541 N548 2.257 . S
Mn541 N557 2.282 . S
Mn541 O565 2.215 . S
Mn541 O567 2.117 . S
C542 O564 1.234 1_554 S
C542 O565 1.283 . S
C543 O555 1.281 . S
C543 O556 1.236 . S
C544 O566 1.240 . S
C544 O567 1.264 1_556 S
O545 Mn540 2.095 . S
O545 C554 1.250 . S
O546 Mn541 2.121 . S
O546 C554 1.258 1_554 S
C547 N548 1.326 1_655 S
C547 C551 1.460 . S
C547 H553 0.929 . S
N548 Mn541 2.257 . S
N548 C547 1.326 1_455 S
N548 C552 1.362 . S
C549 C550 1.258 1_455 S
C549 C552 1.431 . S
C549 C569 1.449 . S
C550 C549 1.258 1_655 S
C550 C551 1.477 . S
C550 H570 0.931 . S
C551 C547 1.460 . S
C551 C550 1.477 . S
C551 H571 0.930 . S
C552 N548 1.362 . S
C552 C549 1.431 . S
C552 C562 1.476 . S
H553 C547 0.929 . S
C554 O545 1.250 . S
C554 O546 1.258 1_556 S
O555 Mn540 2.162 . S
O555 C543 1.281 . S
O556 Mn540 2.297 . S
O556 C543 1.236 . S
N557 Mn541 2.282 . S
N557 C558 1.328 . S
N557 C562 1.318 . S
C558 N557 1.328 . S
C558 C559 1.457 . S
C558 H563 0.929 . S
C559 C558 1.457 . S
C559 C560 1.291 . S
C559 H572 0.931 . S
C560 C559 1.291 . S
C560 C561 1.373 . S
C560 H573 0.929 . S
C561 C560 1.373 . S
C561 C562 1.396 . S
C561 C568 1.403 . S
C562 C552 1.476 . S
C562 N557 1.318 . S
C562 C561 1.396 . S
H563 C558 0.929 . S
O564 Mn540 2.385 . S
O564 C542 1.234 1_556 S
O565 Mn540 2.209 1_554 S
O565 Mn541 2.215 . S
O565 C542 1.283 . S
O566 Mn540 2.094 . S
O566 C544 1.240 . S
O567 Mn541 2.117 . S
O567 C544 1.264 1_554 S
C568 C561 1.403 . S
C568 C569 1.399 . S
C568 H574 0.929 1_545 S
C569 C549 1.449 . S
C569 C568 1.399 . S
C569 H575 0.930 1_545 S
H570 C550 0.931 . S
H571 C551 0.930 . S
H572 C559 0.931 . S
H573 C560 0.929 . S
H574 C568 0.929 1_565 S
H575 C569 0.930 1_565 S
C338 C14 1.207 . S
C518 C50 1.207 . S
C86 C302 1.207 . S
C122 C554 1.207 1_655 S
C158 C374 1.207 . S
C482 C194 1.207 1_455 S
C410 C230 1.207 . S
C266 C446 1.207 . S
C148 C112 1.684 1_455 S
C436 C292 1.684 . S
C220 C40 1.684 . S
C328 C472 1.684 . S
C4 C184 1.684 1_455 S
C544 C364 1.684 . S
C256 C76 1.685 . S
C400 C508 1.684 . S
C2 C146 0.868 . S
C182 C38 0.868 . S
C218 C74 0.868 . S
C110 C254 0.868 . S
C362 C290 0.868 . S
C398 C326 0.868 . S
C506 C434 0.868 1_565 S
C542 C470 0.868 1_545 S
C147 C3 1.703 . S
C183 C39 1.703 . S
C219 C75 1.702 . S
C111 C255 1.702 . S
C291 C363 1.702 . S
C399 C327 1.702 . S
C507 C435 1.702 1_565 S
C543 C471 1.702 1_545 S
