# Generated by pormake.
# Topology sow, (4)-cn, num edge types: 1
# Building blocks:
#     Node 0, Type 0, BuildingBlock: NAWXER_clean_sbu_0, # of connection points: 4
#     Node 1, Type 0, BuildingBlock: NAWXER_clean_sbu_0, # of connection points: 4
#     Node 2, Type 0, BuildingBlock: NAWXER_clean_sbu_0, # of connection points: 4
#     Node 3, Type 0, BuildingBlock: NAWXER_clean_sbu_0, # of connection points: 4
#     Node 4, Type 0, BuildingBlock: NAWXER_clean_sbu_0, # of connection points: 4
#     Node 5, Type 0, BuildingBlock: NAWXER_clean_sbu_0, # of connection points: 4
#     Node 6, Type 0, BuildingBlock: NAWXER_clean_sbu_0, # of connection points: 4
#     Node 7, Type 0, BuildingBlock: NAWXER_clean_sbu_0, # of connection points: 4
#     Edge 8, Type (0, 0), BuildingBlock: EZIPEK_clean_linker_0, # of connection points: 2
#     Edge 9, Type (0, 0), BuildingBlock: EZIPEK_clean_linker_0, # of connection points: 2
#     Edge 10, Type (0, 0), BuildingBlock: EZIPEK_clean_linker_0, # of connection points: 2
#     Edge 11, Type (0, 0), BuildingBlock: EZIPEK_clean_linker_0, # of connection points: 2
#     Edge 12, Type (0, 0), BuildingBlock: EZIPEK_clean_linker_0, # of connection points: 2
#     Edge 13, Type (0, 0), BuildingBlock: EZIPEK_clean_linker_0, # of connection points: 2
#     Edge 14, Type (0, 0), BuildingBlock: EZIPEK_clean_linker_0, # of connection points: 2
#     Edge 15, Type (0, 0), BuildingBlock: EZIPEK_clean_linker_0, # of connection points: 2
#     Edge 16, Type (0, 0), BuildingBlock: EZIPEK_clean_linker_0, # of connection points: 2
#     Edge 17, Type (0, 0), BuildingBlock: EZIPEK_clean_linker_0, # of connection points: 2
#     Edge 18, Type (0, 0), BuildingBlock: EZIPEK_clean_linker_0, # of connection points: 2
#     Edge 19, Type (0, 0), BuildingBlock: EZIPEK_clean_linker_0, # of connection points: 2
#     Edge 20, Type (0, 0), BuildingBlock: EZIPEK_clean_linker_0, # of connection points: 2
#     Edge 21, Type (0, 0), BuildingBlock: EZIPEK_clean_linker_0, # of connection points: 2
#     Edge 22, Type (0, 0), BuildingBlock: EZIPEK_clean_linker_0, # of connection points: 2
#     Edge 23, Type (0, 0), BuildingBlock: EZIPEK_clean_linker_0, # of connection points: 2
# Relax obj value: 0.113
# Max RMSD: 0.238
# Mean RMSD: 0.237
data_MOF--net-sow--node1-NAWXER_clean_sbu_0--edge1-EZIPEK_clean_linker_0
_symmetry_space_group_name_H-M    P1
_symmetry_Int_Tables_number       1
_symmetry_cell_setting            triclinic
loop_
_symmetry_equiv_pos_as_xyz
'x, y, z'
_cell_length_a     31.370745
_cell_length_b     13.90806
_cell_length_c     16.590806
_cell_angle_alpha  89.996986
_cell_angle_beta   89.816052
_cell_angle_gamma 89.879672
loop_
_atom_site_label
_atom_site_type_symbol
_atom_site_fract_x
_atom_site_fract_y
_atom_site_fract_z
_atom_type_partial_charge
C0 C 0.19585 0.2701 0.21415 0.0
C1 C 0.08862 0.14506 0.03168 0.0
O2 O 0.18588 0.18391 0.19829 0.0
Zn3 Zn 0.14586 0.20963 0.11472 0.0
O4 O 0.1789 0.33918 0.17398 0.0
Zn5 Zn 0.13261 0.34944 0.07697 0.0
O6 O 0.09005 0.43049 0.12539 0.0
O7 O 0.09457 0.28429 0.1777 0.0
O8 O 0.09176 0.23696 0.02686 0.0
O9 O 0.11552 0.10031 0.07473 0.0
O10 O 0.18436 0.25626 0.01435 0.0
O11 O 0.16282 0.40361 0.98675 0.0
C12 C 0.07637 0.36694 0.17397 0.0
C13 C 0.18712 0.33299 0.97182 0.0
C14 C 0.31282 0.36206 0.71644 0.0
C15 C 0.42628 0.45784 0.53452 0.0
O16 O 0.32864 0.44399 0.70243 0.0
Zn17 Zn 0.36632 0.40709 0.61775 0.0
O18 O 0.32498 0.28934 0.67429 0.0
Zn19 Zn 0.3706 0.26745 0.57595 0.0
O20 O 0.407 0.17076 0.61945 0.0
O21 O 0.41308 0.31353 0.67727 0.0
O22 O 0.41806 0.36783 0.52712 0.0
O23 O 0.40219 0.50788 0.57958 0.0
O24 O 0.32409 0.37623 0.51791 0.0
O25 O 0.33765 0.22544 0.48595 0.0
C26 C 0.42525 0.22559 0.66971 0.0
C27 C 0.31702 0.30223 0.47375 0.0
C28 C 0.70465 0.20497 0.79574 0.0
C29 C 0.60211 0.39307 0.94924 0.0
O30 O 0.69835 0.29497 0.79699 0.0
Zn31 Zn 0.65712 0.29881 0.88168 0.0
O32 O 0.68412 0.15023 0.84483 0.0
Zn33 Zn 0.63561 0.17404 0.93835 0.0
O34 O 0.58838 0.09823 0.90086 0.0
O35 O 0.60224 0.22791 0.82792 0.0
O36 O 0.60056 0.30385 0.96809 0.0
O37 O 0.63198 0.42371 0.90435 0.0
O38 O 0.69309 0.26083 0.98843 0.0
O39 O 0.65987 0.13602 0.0394 0.0
C40 C 0.57888 0.15449 0.84326 0.0
C41 C 0.68973 0.19689 0.04394 0.0
C42 C 0.81639 0.16735 0.2989 0.0
C43 C 0.93984 0.06083 0.45187 0.0
O44 O 0.83819 0.09069 0.2942 0.0
Zn45 Zn 0.876 0.11266 0.38209 0.0
O46 O 0.82562 0.22916 0.35372 0.0
Zn47 Zn 0.87483 0.24152 0.44626 0.0
O48 O 0.90701 0.35345 0.41338 0.0
O49 O 0.91626 0.22585 0.33581 0.0
O50 O 0.92712 0.14383 0.47594 0.0
O51 O 0.91822 0.01468 0.40031 0.0
O52 O 0.83551 0.11028 0.48889 0.0
O53 O 0.84336 0.25297 0.54486 0.0
C54 C 0.92558 0.31267 0.35443 0.0
C55 C 0.82648 0.17031 0.5453 0.0
C56 C 0.93135 0.94185 0.97387 0.0
C57 C 0.81972 0.83296 0.79504 0.0
O58 O 0.9255 0.85089 0.98172 0.0
Zn59 Zn 0.8803 0.74458 0.93376 0.0
O60 O 0.9059 0.98838 0.92919 0.0
Zn61 Zn 0.87247 0.88336 0.89242 0.0
O62 O 0.83173 0.84717 0.99427 0.0
O63 O 0.84896 0.69788 0.02474 0.0
O64 O 0.83378 0.91659 0.80868 0.0
O65 O 0.83359 0.76152 0.83676 0.0
O66 O 0.91884 0.65246 0.88893 0.0
O67 O 0.9212 0.79581 0.83118 0.0
C68 C 0.82678 0.77213 0.03839 0.0
C69 C 0.93548 0.70943 0.83817 0.0
C70 C 0.59048 0.63266 0.47784 0.0
C71 C 0.70414 0.73614 0.29796 0.0
O72 O 0.59691 0.72362 0.48264 0.0
Zn73 Zn 0.64235 0.82756 0.43365 0.0
O74 O 0.61617 0.58303 0.43559 0.0
Zn75 Zn 0.65097 0.68596 0.3961 0.0
O76 O 0.69037 0.72611 0.49719 0.0
O77 O 0.67314 0.87645 0.52453 0.0
O78 O 0.69067 0.65217 0.31309 0.0
O79 O 0.68953 0.80808 0.33816 0.0
O80 O 0.60346 0.91638 0.38444 0.0
O81 O 0.60333 0.77008 0.33162 0.0
C82 C 0.69505 0.80221 0.53993 0.0
C83 C 0.58816 0.85583 0.33513 0.0
C84 C 0.44583 0.58201 0.04282 0.0
C85 C 0.32748 0.69122 0.20716 0.0
O86 O 0.43543 0.66845 0.02386 0.0
Zn87 Zn 0.38557 0.7699 0.06041 0.0
O88 O 0.42288 0.53485 0.09179 0.0
Zn89 Zn 0.3835 0.6364 0.11713 0.0
O90 O 0.34175 0.64766 0.0139 0.0
O91 O 0.3525 0.79337 0.96565 0.0
O92 O 0.34548 0.60981 0.20405 0.0
O93 O 0.33885 0.75802 0.15809 0.0
O94 O 0.42052 0.87538 0.09505 0.0
O95 O 0.42671 0.74267 0.16791 0.0
C96 C 0.33357 0.71327 0.9618 0.0
C97 C 0.43805 0.82931 0.15212 0.0
C98 C 0.10223 0.8994 0.54606 0.0
C99 C 0.2105 0.74377 0.71005 0.0
O100 O 0.10613 0.80986 0.52865 0.0
Zn101 Zn 0.14689 0.69039 0.56585 0.0
O102 O 0.12901 0.93942 0.59249 0.0
Zn103 Zn 0.16054 0.82412 0.61793 0.0
O104 O 0.19735 0.79581 0.51075 0.0
O105 O 0.17837 0.65119 0.47128 0.0
O106 O 0.2015 0.83233 0.70334 0.0
O107 O 0.19243 0.68253 0.66357 0.0
O108 O 0.10222 0.60626 0.60404 0.0
O109 O 0.10917 0.74229 0.67225 0.0
C110 C 0.20145 0.72509 0.4617 0.0
C111 C 0.08961 0.66297 0.65943 0.0
C112 C 0.2901 0.38833 0.86007 0.0
C113 C 0.28087 0.3515 0.78217 0.0
C114 C 0.2115 0.29445 0.83124 0.0
C115 C 0.21911 0.33993 0.90632 0.0
N116 N 0.26182 0.44731 0.98673 0.0
N117 N 0.22869 0.29018 0.68892 0.0
C118 C 0.2572 0.39244 0.919 0.0
C119 C 0.24051 0.30954 0.76641 0.0
N120 N 0.33075 0.41527 0.87912 0.0
N121 N 0.17639 0.23764 0.82152 0.0
H122 H 0.24792 0.30661 0.63952 0.0
H123 H 0.19818 0.26798 0.67295 0.0
H124 H 0.1534 0.22835 0.86642 0.0
H125 H 0.17171 0.19438 0.77106 0.0
H126 H 0.34007 0.43421 0.93719 0.0
H127 H 0.35627 0.4092 0.83898 0.0
H128 H 0.28703 0.49484 0.995 0.0
H129 H 0.23852 0.452 0.03152 0.0
C130 C 0.21431 0.25334 0.35976 0.0
C131 C 0.22498 0.28975 0.28245 0.0
C132 C 0.29232 0.35235 0.33625 0.0
C133 C 0.28406 0.30422 0.41005 0.0
N134 N 0.23977 0.19787 0.48912 0.0
N135 N 0.27595 0.36511 0.19367 0.0
C136 C 0.24574 0.2517 0.42107 0.0
C137 C 0.26428 0.33816 0.26984 0.0
N138 N 0.17364 0.22308 0.37536 0.0
N139 N 0.32743 0.40976 0.32919 0.0
H140 H 0.25684 0.35298 0.1435 0.0
H141 H 0.30588 0.39209 0.17876 0.0
H142 H 0.34948 0.41899 0.37544 0.0
H143 H 0.33333 0.45322 0.27951 0.0
H144 H 0.16281 0.20491 0.43278 0.0
H145 H 0.14938 0.22558 0.33254 0.0
H146 H 0.21473 0.14946 0.49614 0.0
H147 H 0.26163 0.19563 0.53625 0.0
C148 C 0.75557 0.10074 0.21939 0.0
C149 C 0.7801 0.18183 0.24171 0.0
C150 C 0.73754 0.2783 0.14716 0.0
C151 C 0.7206 0.19276 0.11261 0.0
N152 N 0.72401 0.01829 0.10738 0.0
N153 N 0.79711 0.34944 0.21682 0.0
C154 C 0.73238 0.10261 0.14644 0.0
C155 C 0.77182 0.27146 0.20314 0.0
N156 N 0.75308 0.02266 0.26895 0.0
N157 N 0.71984 0.36579 0.13018 0.0
H158 H 0.82258 0.34907 0.25663 0.0
H159 H 0.79487 0.41245 0.18302 0.0
H160 H 0.69267 0.37394 0.09493 0.0
H161 H 0.72889 0.42884 0.15945 0.0
H162 H 0.73174 0.96678 0.25821 0.0
H163 H 0.76764 0.02036 0.3254 0.0
H164 H 0.73476 0.95204 0.12875 0.0
H165 H 0.71172 0.01513 0.04919 0.0
C166 C 0.77812 0.1526 0.75352 0.0
C167 C 0.73441 0.16491 0.73451 0.0
C168 C 0.75044 0.15046 0.59008 0.0
C169 C 0.79456 0.14733 0.60875 0.0
N170 N 0.85 0.11828 0.70521 0.0
N171 N 0.67727 0.14997 0.63927 0.0
C172 C 0.80821 0.13906 0.68985 0.0
C173 C 0.72006 0.15465 0.65403 0.0
N174 N 0.79082 0.15826 0.83211 0.0
N175 N 0.73784 0.15558 0.51135 0.0
H176 H 0.65461 0.15469 0.68524 0.0
H177 H 0.66422 0.134 0.5833 0.0
H178 H 0.75905 0.14937 0.46313 0.0
H179 H 0.70672 0.1695 0.49325 0.0
H180 H 0.82251 0.15991 0.85034 0.0
H181 H 0.76917 0.16414 0.87976 0.0
H182 H 0.86212 0.10478 0.76239 0.0
H183 H 0.87217 0.10692 0.6591 0.0
C184 C 0.75522 0.72096 0.0904 0.0
C185 C 0.79433 0.76958 0.10341 0.0
C186 C 0.77577 0.79053 0.24603 0.0
C187 C 0.73492 0.75075 0.23095 0.0
N188 N 0.68244 0.697 0.13488 0.0
N189 N 0.83957 0.86349 0.19009 0.0
C190 C 0.72365 0.72143 0.15193 0.0
C191 C 0.80377 0.80902 0.18012 0.0
N192 N 0.74863 0.67175 0.02025 0.0
N193 N 0.7886 0.80611 0.32355 0.0
H194 H 0.8613 0.87637 0.14359 0.0
H195 H 0.84602 0.90182 0.24254 0.0
H196 H 0.7695 0.78972 0.37315 0.0
H197 H 0.81939 0.82677 0.33904 0.0
H198 H 0.72267 0.62646 0.01119 0.0
H199 H 0.771 0.66924 0.9737 0.0
H200 H 0.67154 0.68454 0.07656 0.0
H201 H 0.65809 0.6984 0.17784 0.0
C202 C 0.76684 0.8525 0.58987 0.0
C203 C 0.72745 0.80567 0.60451 0.0
C204 C 0.7475 0.78036 0.74565 0.0
C205 C 0.78847 0.81893 0.72905 0.0
N206 N 0.84018 0.87389 0.6314 0.0
N207 N 0.68229 0.71218 0.69225 0.0
C208 C 0.79903 0.85002 0.64993 0.0
C209 C 0.71854 0.76491 0.68106 0.0
N210 N 0.77326 0.90086 0.51914 0.0
N211 N 0.73519 0.76454 0.82358 0.0
H212 H 0.65959 0.70246 0.64716 0.0
H213 H 0.67632 0.67219 0.74415 0.0
H214 H 0.75472 0.78031 0.87248 0.0
H215 H 0.70433 0.74532 0.84022 0.0
H216 H 0.79981 0.94352 0.50798 0.0
H217 H 0.75049 0.90459 0.4736 0.0
H218 H 0.85069 0.88762 0.57294 0.0
H219 H 0.86492 0.87065 0.67317 0.0
C220 C 0.31154 0.66991 0.82142 0.0
C221 C 0.3 0.69946 0.90038 0.0
C222 C 0.22643 0.72742 0.85663 0.0
C223 C 0.23941 0.71214 0.77575 0.0
N224 N 0.29169 0.65645 0.68003 0.0
N225 N 0.24735 0.75664 0.99512 0.0
C226 C 0.28113 0.67817 0.75791 0.0
C227 C 0.25747 0.72669 0.91887 0.0
N228 N 0.35176 0.63516 0.80778 0.0
N229 N 0.18413 0.74078 0.87364 0.0
H230 H 0.26902 0.75491 0.04263 0.0
H231 H 0.21837 0.78821 0.0107 0.0
H232 H 0.16069 0.74014 0.82912 0.0
H233 H 0.17166 0.74356 0.93179 0.0
H234 H 0.36285 0.60995 0.75263 0.0
H235 H 0.37418 0.62771 0.85367 0.0
H236 H 0.32233 0.64059 0.66005 0.0
H237 H 0.26914 0.65408 0.63416 0.0
C238 C 0.30682 0.74785 0.34513 0.0
C239 C 0.2946 0.70906 0.26969 0.0
C240 C 0.22036 0.70085 0.31565 0.0
C241 C 0.23324 0.72807 0.3945 0.0
N242 N 0.29038 0.76731 0.48669 0.0
N243 N 0.24126 0.63477 0.18617 0.0
C244 C 0.27685 0.75007 0.4098 0.0
C245 C 0.25178 0.68165 0.25574 0.0
N246 N 0.34731 0.78201 0.35515 0.0
N247 N 0.17798 0.69727 0.29698 0.0
H248 H 0.26328 0.62058 0.1404 0.0
H249 H 0.21163 0.60314 0.17669 0.0
H250 H 0.15403 0.71536 0.33808 0.0
H251 H 0.16673 0.68674 0.23865 0.0
H252 H 0.35689 0.82163 0.40515 0.0
H253 H 0.37073 0.7767 0.31063 0.0
H254 H 0.32238 0.77055 0.50293 0.0
H255 H 0.27004 0.77139 0.5361 0.0
C256 C 0.04048 0.37461 0.30776 0.0
C257 C 0.03763 0.38335 0.2229 0.0
C258 C 0.9597 0.3812 0.23173 0.0
C259 C 0.96268 0.35737 0.31433 0.0
N260 N 1.00562 0.32877 0.43252 0.0
N261 N 0.99288 0.40371 0.10421 0.0
C262 C 1.00296 0.3556 0.35339 0.0
C263 C 0.99714 0.39106 0.18519 0.0
N264 N 0.07919 0.38526 0.34432 0.0
N265 N 0.92073 0.39071 0.19626 0.0
H266 H 0.01826 0.41049 0.06389 0.0
H267 H 0.01826 0.41049 0.06389 0.0
H268 H 0.89244 0.38686 0.22916 0.0
H269 H 0.91705 0.40603 0.13505 0.0
H270 H 0.08325 0.38822 0.40651 0.0
H271 H 0.10699 0.40015 0.31192 0.0
H272 H 0.03419 0.31311 0.46144 0.0
H273 H 0.97892 0.3169 0.46871 0.0
C274 C 0.49931 0.15609 0.6751 0.0
C275 C 0.46234 0.19041 0.71609 0.0
C276 C 0.50022 0.1838 0.84468 0.0
C277 C 0.53691 0.14851 0.80365 0.0
N278 N 0.56804 0.07657 0.68593 0.0
N279 N 0.42413 0.21451 0.84073 0.0
C280 C 0.53523 0.1264 0.7207 0.0
C281 C 0.46172 0.19712 0.8013 0.0
N282 N 0.50133 0.15789 0.59277 0.0
N283 N 0.50273 0.20943 0.92408 0.0
H284 H 0.39521 0.22341 0.8107 0.0
H285 H 0.4208 0.21125 0.90313 0.0
H286 H 0.52957 0.19679 0.95935 0.0
H287 H 0.47907 0.24833 0.95392 0.0
H288 H 0.52918 0.14428 0.56035 0.0
H289 H 0.47631 0.18102 0.55646 0.0
H290 H 0.56727 0.05061 0.62706 0.0
H291 H 0.59419 0.05255 0.71915 0.0
C292 C 0.04855 0.63055 0.78472 0.0
C293 C 0.04844 0.64836 0.7009 0.0
C294 C 0.97165 0.6819 0.70561 0.0
C295 C 0.97327 0.67893 0.7909 0.0
N296 N 0.01399 0.65764 0.91334 0.0
N297 N 0.01092 0.69556 0.58028 0.0
C298 C 0.01173 0.6535 0.8311 0.0
C299 C 1.01011 0.67376 0.66064 0.0
N300 N 0.08412 0.59211 0.81969 0.0
N301 N 0.9332 0.691 0.66771 0.0
H302 H 0.03791 0.6865 0.54426 0.0
H303 H 0.98558 0.72784 0.55015 0.0
H304 H 0.90439 0.69629 0.69905 0.0
H305 H 0.92933 0.68463 0.60564 0.0
H306 H 0.08523 0.56883 0.87929 0.0
H307 H 0.11146 0.57513 0.7865 0.0
H308 H 0.04233 0.65109 0.94535 0.0
H309 H 0.98812 0.6751 0.95005 0.0
C310 C 0.51657 0.85788 0.15439 0.0
C311 C 0.47621 0.86775 0.19248 0.0
C312 C 0.51027 0.89501 0.32261 0.0
C313 C 0.55064 0.8797 0.28542 0.0
N314 N 0.59345 0.87439 0.16503 0.0
N315 N 0.43451 0.92452 0.30416 0.0
C316 C 0.55412 0.87069 0.20069 0.0
C317 C 0.47311 0.89636 0.27392 0.0
N318 N 0.51895 0.83065 0.07531 0.0
N319 N 0.50704 0.9015 0.40463 0.0
H320 H 0.40719 0.92721 0.26841 0.0
H321 H 0.43035 0.95386 0.36138 0.0
H322 H 0.53333 0.90201 0.44278 0.0
H323 H 0.47812 0.9008 0.43556 0.0
H324 H 0.54713 0.80968 0.04699 0.0
H325 H 0.49219 0.82428 0.03862 0.0
H326 H 0.59819 0.87627 0.10293 0.0
H327 H 0.62135 0.88456 0.19807 0.0
C328 C 1.0105 0.14301 0.9919 0.0
C329 C 0.04964 0.09298 1.00206 0.0
C330 C 1.01003 0.94083 0.01265 0.0
C331 C 0.97089 0.99149 0.0037 0.0
N332 N 0.93489 0.1434 0.01975 0.0
N333 N 0.08616 0.94153 0.98803 0.0
C334 C 0.9715 0.09349 0.00377 0.0
C335 C 0.04924 0.99087 1.00266 0.0
N336 N 1.01006 0.23514 0.96354 0.0
N337 N 1.01023 0.84733 0.03768 0.0
H338 H 0.11448 0.9764 0.97274 0.0
H339 H 0.0873 0.86726 0.97993 0.0
H340 H 0.98305 0.81259 0.05871 0.0
H341 H 0.03809 0.80954 0.05058 0.0
H342 H 0.98199 0.27197 0.95014 0.0
H343 H 0.03709 0.26861 0.94031 0.0
H344 H 0.93425 0.21772 0.02798 0.0
H345 H 0.90655 0.10895 0.03569 0.0
C346 C 0.54534 0.48629 0.50535 0.0
C347 C 0.54945 0.58793 0.50668 0.0
C348 C 0.47149 0.60271 0.50551 0.0
C349 C 0.46731 0.50116 0.50449 0.0
N350 N 0.50153 0.35128 0.46783 0.0
N351 N 0.515 0.73663 0.54598 0.0
C352 C 0.50454 0.44385 0.49452 0.0
C353 C 0.51218 0.64492 0.51722 0.0
N354 N 0.58018 0.43002 0.52014 0.0
N355 N 0.4367 0.65915 0.49064 0.0
H356 H 0.54313 0.76499 0.56897 0.0
H357 H 0.48833 0.77828 0.55999 0.0
H358 H 0.40724 0.63003 0.47482 0.0
H359 H 0.43858 0.73345 0.4832 0.0
H360 H 0.57845 0.35571 0.52758 0.0
H361 H 0.60956 0.45919 0.53635 0.0
H362 H 0.52805 0.30896 0.45435 0.0
H363 H 0.47329 0.32221 0.44603 0.0
C364 C 0.48965 0.49205 0.94081 0.0
C365 C 0.4871 0.54124 0.01541 0.0
C366 C 0.56212 0.50188 0.04378 0.0
C367 C 0.56483 0.45468 0.96837 0.0
N368 N 0.53483 0.4215 0.8376 0.0
N369 N 0.52165 0.60563 0.13344 0.0
C370 C 0.52968 0.45517 0.91447 0.0
C371 C 0.52367 0.55022 0.06547 0.0
N372 N 0.45348 0.47749 0.89669 0.0
N373 N 0.59596 0.49798 0.09544 0.0
H374 H 0.49365 0.63839 0.15322 0.0
H375 H 0.5481 0.62454 0.16762 0.0
H376 H 0.62516 0.46735 0.07939 0.0
H377 H 0.59479 0.52096 0.1551 0.0
H378 H 0.45206 0.43254 0.8466 0.0
H379 H 0.42382 0.50498 0.9137 0.0
H380 H 0.51169 0.42729 0.79304 0.0
H381 H 0.56382 0.39524 0.81595 0.0
C382 C 0.02741 0.94833 0.57957 0.0
C383 C 0.06218 0.94972 0.52426 0.0
C384 C 0.01785 0.0345 0.42562 0.0
C385 C 0.98199 0.02371 0.47758 0.0
N386 N 0.95092 0.96184 0.59979 0.0
N387 N 0.09052 0.98705 0.39305 0.0
C388 C 0.98633 0.97858 0.55361 0.0
C389 C 0.05744 0.99109 0.44682 0.0
N390 N 0.03383 0.91953 0.65742 0.0
N391 N 0.0143 0.08836 0.35699 0.0
H392 H 0.12043 0.95943 0.408 0.0
H393 H 0.08778 1.00587 0.33256 0.0
H394 H 0.98569 0.11927 0.33844 0.0
H395 H 0.0402 0.10856 0.32148 0.0
H396 H 0.01089 0.9252 0.70265 0.0
H397 H 0.0634 0.89732 0.67899 0.0
H398 H 0.95096 0.91895 0.65123 0.0
H399 H 0.92054 0.98511 0.58331 0.0
loop_
_geom_bond_atom_site_label_1
_geom_bond_atom_site_label_2
_geom_bond_distance
_geom_bond_site_symmetry_2
_ccdc_geom_bond_type
C0 O2 1.247 . S
C0 O4 1.258 . S
C1 O8 1.247 . S
C1 O9 1.258 . S
O2 C0 1.247 . S
O2 Zn3 2.028 . S
Zn3 O2 2.028 . S
Zn3 O7 2.035 . S
Zn3 O9 2.035 . S
Zn3 O10 2.028 . S
O4 C0 1.258 . S
O4 Zn5 2.035 . S
Zn5 O4 2.035 . S
Zn5 O6 2.028 . S
Zn5 O8 2.028 . S
Zn5 O11 2.035 1_554 S
O6 Zn5 2.028 . S
O6 C12 1.247 . S
O7 Zn3 2.035 . S
O7 C12 1.258 . S
O8 C1 1.247 . S
O8 Zn5 2.028 . S
O9 C1 1.258 . S
O9 Zn3 2.035 . S
O10 Zn3 2.028 . S
O10 C13 1.247 1_554 S
O11 Zn5 2.035 1_556 S
O11 C13 1.258 . S
C12 O6 1.247 . S
C12 O7 1.258 . S
C13 O10 1.247 1_556 S
C13 O11 1.258 . S
C14 O16 1.247 . S
C14 O18 1.258 . S
C15 O22 1.247 . S
C15 O23 1.258 . S
O16 C14 1.247 . S
O16 Zn17 2.028 . S
Zn17 O16 2.028 . S
Zn17 O21 2.035 . S
Zn17 O23 2.035 . S
Zn17 O24 2.028 . S
O18 C14 1.258 . S
O18 Zn19 2.035 . S
Zn19 O18 2.035 . S
Zn19 O20 2.028 . S
Zn19 O22 2.028 . S
Zn19 O25 2.035 . S
O20 Zn19 2.028 . S
O20 C26 1.247 . S
O21 Zn17 2.035 . S
O21 C26 1.258 . S
O22 C15 1.247 . S
O22 Zn19 2.028 . S
O23 C15 1.258 . S
O23 Zn17 2.035 . S
O24 Zn17 2.028 . S
O24 C27 1.247 . S
O25 Zn19 2.035 . S
O25 C27 1.258 . S
C26 O20 1.247 . S
C26 O21 1.258 . S
C27 O24 1.247 . S
C27 O25 1.258 . S
C28 O30 1.247 . S
C28 O32 1.258 . S
C29 O36 1.247 . S
C29 O37 1.258 . S
O30 C28 1.247 . S
O30 Zn31 2.028 . S
Zn31 O30 2.028 . S
Zn31 O35 2.035 . S
Zn31 O37 2.035 . S
Zn31 O38 2.028 . S
O32 C28 1.258 . S
O32 Zn33 2.035 . S
Zn33 O32 2.035 . S
Zn33 O34 2.028 . S
Zn33 O36 2.028 . S
Zn33 O39 2.035 1_556 S
O34 Zn33 2.028 . S
O34 C40 1.247 . S
O35 Zn31 2.035 . S
O35 C40 1.258 . S
O36 C29 1.247 . S
O36 Zn33 2.028 . S
O37 C29 1.258 . S
O37 Zn31 2.035 . S
O38 Zn31 2.028 . S
O38 C41 1.247 1_556 S
O39 Zn33 2.035 1_554 S
O39 C41 1.258 . S
C40 O34 1.247 . S
C40 O35 1.258 . S
C41 O38 1.247 1_554 S
C41 O39 1.258 . S
C42 O44 1.247 . S
C42 O46 1.258 . S
C43 O50 1.247 . S
C43 O51 1.258 . S
O44 C42 1.247 . S
O44 Zn45 2.028 . S
Zn45 O44 2.028 . S
Zn45 O49 2.035 . S
Zn45 O51 2.035 . S
Zn45 O52 2.028 . S
O46 C42 1.258 . S
O46 Zn47 2.035 . S
Zn47 O46 2.035 . S
Zn47 O48 2.028 . S
Zn47 O50 2.028 . S
Zn47 O53 2.035 . S
O48 Zn47 2.028 . S
O48 C54 1.247 . S
O49 Zn45 2.035 . S
O49 C54 1.258 . S
O50 C43 1.247 . S
O50 Zn47 2.028 . S
O51 C43 1.258 . S
O51 Zn45 2.035 . S
O52 Zn45 2.028 . S
O52 C55 1.247 . S
O53 Zn47 2.035 . S
O53 C55 1.258 . S
C54 O48 1.247 . S
C54 O49 1.258 . S
C55 O52 1.247 . S
C55 O53 1.258 . S
C56 O58 1.247 . S
C56 O60 1.258 . S
C57 O64 1.247 . S
C57 O65 1.258 . S
O58 C56 1.247 . S
O58 Zn59 2.028 . S
Zn59 O58 2.028 . S
Zn59 O63 2.035 1_556 S
Zn59 O65 2.035 . S
Zn59 O66 2.028 . S
O60 C56 1.258 . S
O60 Zn61 2.035 . S
Zn61 O60 2.035 . S
Zn61 O62 2.028 . S
Zn61 O64 2.028 . S
Zn61 O67 2.035 . S
O62 Zn61 2.028 . S
O62 C68 1.247 1_556 S
O63 Zn59 2.035 1_554 S
O63 C68 1.258 . S
O64 C57 1.247 . S
O64 Zn61 2.028 . S
O65 C57 1.258 . S
O65 Zn59 2.035 . S
O66 Zn59 2.028 . S
O66 C69 1.247 . S
O67 Zn61 2.035 . S
O67 C69 1.258 . S
C68 O62 1.247 1_554 S
C68 O63 1.258 . S
C69 O66 1.247 . S
C69 O67 1.258 . S
C70 O72 1.247 . S
C70 O74 1.258 . S
C71 O78 1.247 . S
C71 O79 1.258 . S
O72 C70 1.247 . S
O72 Zn73 2.028 . S
Zn73 O72 2.028 . S
Zn73 O77 2.035 . S
Zn73 O79 2.035 . S
Zn73 O80 2.028 . S
O74 C70 1.258 . S
O74 Zn75 2.035 . S
Zn75 O74 2.035 . S
Zn75 O76 2.028 . S
Zn75 O78 2.028 . S
Zn75 O81 2.035 . S
O76 Zn75 2.028 . S
O76 C82 1.247 . S
O77 Zn73 2.035 . S
O77 C82 1.258 . S
O78 C71 1.247 . S
O78 Zn75 2.028 . S
O79 C71 1.258 . S
O79 Zn73 2.035 . S
O80 Zn73 2.028 . S
O80 C83 1.247 . S
O81 Zn75 2.035 . S
O81 C83 1.258 . S
C82 O76 1.247 . S
C82 O77 1.258 . S
C83 O80 1.247 . S
C83 O81 1.258 . S
C84 O86 1.247 . S
C84 O88 1.258 . S
C85 O92 1.247 . S
C85 O93 1.258 . S
O86 C84 1.247 . S
O86 Zn87 2.028 . S
Zn87 O86 2.028 . S
Zn87 O91 2.035 1_554 S
Zn87 O93 2.035 . S
Zn87 O94 2.028 . S
O88 C84 1.258 . S
O88 Zn89 2.035 . S
Zn89 O88 2.035 . S
Zn89 O90 2.028 . S
Zn89 O92 2.028 . S
Zn89 O95 2.035 . S
O90 Zn89 2.028 . S
O90 C96 1.247 1_554 S
O91 Zn87 2.035 1_556 S
O91 C96 1.258 . S
O92 C85 1.247 . S
O92 Zn89 2.028 . S
O93 C85 1.258 . S
O93 Zn87 2.035 . S
O94 Zn87 2.028 . S
O94 C97 1.247 . S
O95 Zn89 2.035 . S
O95 C97 1.258 . S
C96 O90 1.247 1_556 S
C96 O91 1.258 . S
C97 O94 1.247 . S
C97 O95 1.258 . S
C98 O100 1.247 . S
C98 O102 1.258 . S
C99 O106 1.247 . S
C99 O107 1.258 . S
O100 C98 1.247 . S
O100 Zn101 2.028 . S
Zn101 O100 2.028 . S
Zn101 O105 2.035 . S
Zn101 O107 2.035 . S
Zn101 O108 2.028 . S
O102 C98 1.258 . S
O102 Zn103 2.035 . S
Zn103 O102 2.035 . S
Zn103 O104 2.028 . S
Zn103 O106 2.028 . S
Zn103 O109 2.035 . S
O104 Zn103 2.028 . S
O104 C110 1.247 . S
O105 Zn101 2.035 . S
O105 C110 1.258 . S
O106 C99 1.247 . S
O106 Zn103 2.028 . S
O107 C99 1.258 . S
O107 Zn101 2.035 . S
O108 Zn101 2.028 . S
O108 C111 1.247 . S
O109 Zn103 2.035 . S
O109 C111 1.258 . S
C110 O104 1.247 . S
C110 O105 1.258 . S
C111 O108 1.247 . S
C111 O109 1.258 . S
C112 C113 1.363 . S
C112 C118 1.379 . S
C112 N120 1.356 . S
C113 C112 1.363 . S
C113 C119 1.363 . S
C114 C115 1.363 . S
C114 C119 1.379 . S
C114 N121 1.356 . S
C115 C114 1.363 . S
C115 C118 1.363 . S
N116 C118 1.356 . S
N116 H128 0.984 . S
N116 H129 0.985 . S
N117 C119 1.356 . S
N117 H122 0.984 . S
N117 H123 0.985 . S
C118 C112 1.379 . S
C118 C115 1.363 . S
C118 N116 1.356 . S
C119 C113 1.363 . S
C119 C114 1.379 . S
C119 N117 1.356 . S
N120 C112 1.356 . S
N120 H126 0.984 . S
N120 H127 0.984 . S
N121 C114 1.356 . S
N121 H124 0.984 . S
N121 H125 0.985 . S
H122 N117 0.984 . S
H123 N117 0.985 . S
H124 N121 0.984 . S
H125 N121 0.985 . S
H126 N120 0.984 . S
H127 N120 0.984 . S
H128 N116 0.984 . S
H129 N116 0.985 . S
C130 C131 1.363 . S
C130 C136 1.379 . S
C130 N138 1.356 . S
C131 C130 1.363 . S
C131 C137 1.363 . S
C132 C133 1.363 . S
C132 C137 1.379 . S
C132 N139 1.356 . S
C133 C132 1.363 . S
C133 C136 1.363 . S
N134 C136 1.356 . S
N134 H146 0.984 . S
N134 H147 0.985 . S
N135 C137 1.356 . S
N135 H140 0.984 . S
N135 H141 0.985 . S
C136 C130 1.379 . S
C136 C133 1.363 . S
C136 N134 1.356 . S
C137 C131 1.363 . S
C137 C132 1.379 . S
C137 N135 1.356 . S
N138 C130 1.356 . S
N138 H144 0.984 . S
N138 H145 0.984 . S
N139 C132 1.356 . S
N139 H142 0.984 . S
N139 H143 0.985 . S
H140 N135 0.984 . S
H141 N135 0.985 . S
H142 N139 0.984 . S
H143 N139 0.985 . S
H144 N138 0.984 . S
H145 N138 0.984 . S
H146 N134 0.984 . S
H147 N134 0.985 . S
C148 C149 1.363 . S
C148 C154 1.379 . S
C148 N156 1.356 . S
C149 C148 1.363 . S
C149 C155 1.363 . S
C150 C151 1.363 . S
C150 C155 1.379 . S
C150 N157 1.356 . S
C151 C150 1.363 . S
C151 C154 1.363 . S
N152 C154 1.356 . S
N152 H164 0.984 . S
N152 H165 0.985 . S
N153 C155 1.356 . S
N153 H158 0.984 . S
N153 H159 0.985 . S
C154 C148 1.379 . S
C154 C151 1.363 . S
C154 N152 1.356 . S
C155 C149 1.363 . S
C155 C150 1.379 . S
C155 N153 1.356 . S
N156 C148 1.356 . S
N156 H162 0.984 . S
N156 H163 0.984 . S
N157 C150 1.356 . S
N157 H160 0.984 . S
N157 H161 0.985 . S
H158 N153 0.984 . S
H159 N153 0.985 . S
H160 N157 0.984 . S
H161 N157 0.985 . S
H162 N156 0.984 . S
H163 N156 0.984 . S
H164 N152 0.984 . S
H165 N152 0.985 . S
C166 C167 1.363 . S
C166 C172 1.379 . S
C166 N174 1.356 . S
C167 C166 1.363 . S
C167 C173 1.363 . S
C168 C169 1.363 . S
C168 C173 1.379 . S
C168 N175 1.356 . S
C169 C168 1.363 . S
C169 C172 1.363 . S
N170 C172 1.356 . S
N170 H182 0.984 . S
N170 H183 0.985 . S
N171 C173 1.356 . S
N171 H176 0.984 . S
N171 H177 0.985 . S
C172 C166 1.379 . S
C172 C169 1.363 . S
C172 N170 1.356 . S
C173 C167 1.363 . S
C173 C168 1.379 . S
C173 N171 1.356 . S
N174 C166 1.356 . S
N174 H180 0.984 . S
N174 H181 0.984 . S
N175 C168 1.356 . S
N175 H178 0.984 . S
N175 H179 0.985 . S
H176 N171 0.984 . S
H177 N171 0.985 . S
H178 N175 0.984 . S
H179 N175 0.985 . S
H180 N174 0.984 . S
H181 N174 0.984 . S
H182 N170 0.984 . S
H183 N170 0.985 . S
C184 C185 1.363 . S
C184 C190 1.379 . S
C184 N192 1.356 . S
C185 C184 1.363 . S
C185 C191 1.363 . S
C186 C187 1.363 . S
C186 C191 1.379 . S
C186 N193 1.356 . S
C187 C186 1.363 . S
C187 C190 1.363 . S
N188 C190 1.356 . S
N188 H200 0.984 . S
N188 H201 0.985 . S
N189 C191 1.356 . S
N189 H194 0.984 . S
N189 H195 0.985 . S
C190 C184 1.379 . S
C190 C187 1.363 . S
C190 N188 1.356 . S
C191 C185 1.363 . S
C191 C186 1.379 . S
C191 N189 1.356 . S
N192 C184 1.356 . S
N192 H198 0.984 . S
N192 H199 0.984 . S
N193 C186 1.356 . S
N193 H196 0.984 . S
N193 H197 0.985 . S
H194 N189 0.984 . S
H195 N189 0.985 . S
H196 N193 0.984 . S
H197 N193 0.985 . S
H198 N192 0.984 . S
H199 N192 0.984 . S
H200 N188 0.984 . S
H201 N188 0.985 . S
C202 C203 1.363 . S
C202 C208 1.379 . S
C202 N210 1.356 . S
C203 C202 1.363 . S
C203 C209 1.363 . S
C204 C205 1.363 . S
C204 C209 1.379 . S
C204 N211 1.356 . S
C205 C204 1.363 . S
C205 C208 1.363 . S
N206 C208 1.356 . S
N206 H218 0.984 . S
N206 H219 0.985 . S
N207 C209 1.356 . S
N207 H212 0.984 . S
N207 H213 0.985 . S
C208 C202 1.379 . S
C208 C205 1.363 . S
C208 N206 1.356 . S
C209 C203 1.363 . S
C209 C204 1.379 . S
C209 N207 1.356 . S
N210 C202 1.356 . S
N210 H216 0.984 . S
N210 H217 0.984 . S
N211 C204 1.356 . S
N211 H214 0.984 . S
N211 H215 0.985 . S
H212 N207 0.984 . S
H213 N207 0.985 . S
H214 N211 0.984 . S
H215 N211 0.985 . S
H216 N210 0.984 . S
H217 N210 0.984 . S
H218 N206 0.984 . S
H219 N206 0.985 . S
C220 C221 1.363 . S
C220 C226 1.379 . S
C220 N228 1.356 . S
C221 C220 1.363 . S
C221 C227 1.363 . S
C222 C223 1.363 . S
C222 C227 1.379 . S
C222 N229 1.356 . S
C223 C222 1.363 . S
C223 C226 1.363 . S
N224 C226 1.356 . S
N224 H236 0.984 . S
N224 H237 0.985 . S
N225 C227 1.356 . S
N225 H230 0.984 1_556 S
N225 H231 0.985 . S
C226 C220 1.379 . S
C226 C223 1.363 . S
C226 N224 1.356 . S
C227 C221 1.363 . S
C227 C222 1.379 . S
C227 N225 1.356 . S
N228 C220 1.356 . S
N228 H234 0.984 . S
N228 H235 0.984 . S
N229 C222 1.356 . S
N229 H232 0.984 . S
N229 H233 0.985 . S
H230 N225 0.984 1_554 S
H231 N225 0.985 . S
H232 N229 0.984 . S
H233 N229 0.985 . S
H234 N228 0.984 . S
H235 N228 0.984 . S
H236 N224 0.984 . S
H237 N224 0.985 . S
C238 C239 1.363 . S
C238 C244 1.379 . S
C238 N246 1.356 . S
C239 C238 1.363 . S
C239 C245 1.363 . S
C240 C241 1.363 . S
C240 C245 1.379 . S
C240 N247 1.356 . S
C241 C240 1.363 . S
C241 C244 1.363 . S
N242 C244 1.356 . S
N242 H254 0.984 . S
N242 H255 0.985 . S
N243 C245 1.356 . S
N243 H248 0.984 . S
N243 H249 0.985 . S
C244 C238 1.379 . S
C244 C241 1.363 . S
C244 N242 1.356 . S
C245 C239 1.363 . S
C245 C240 1.379 . S
C245 N243 1.356 . S
N246 C238 1.356 . S
N246 H252 0.984 . S
N246 H253 0.984 . S
N247 C240 1.356 . S
N247 H250 0.984 . S
N247 H251 0.985 . S
H248 N243 0.984 . S
H249 N243 0.985 . S
H250 N247 0.984 . S
H251 N247 0.985 . S
H252 N246 0.984 . S
H253 N246 0.984 . S
H254 N242 0.984 . S
H255 N242 0.985 . S
C256 C257 1.363 . S
C256 C262 1.379 1_455 S
C256 N264 1.356 . S
C257 C256 1.363 . S
C257 C263 1.363 . S
C258 C259 1.363 . S
C258 C263 1.379 1_655 S
C258 N265 1.356 . S
C259 C258 1.363 . S
C259 C262 1.363 . S
N260 C262 1.356 . S
N260 H272 0.984 . S
N260 H273 0.985 . S
N261 C263 1.356 . S
N261 H266 0.984 . S
N261 H267 0.985 . S
C262 C256 1.379 1_655 S
C262 C259 1.363 . S
C262 N260 1.356 . S
C263 C257 1.363 . S
C263 C258 1.379 1_455 S
C263 N261 1.356 . S
N264 C256 1.356 . S
N264 H270 0.984 . S
N264 H271 0.984 . S
N265 C258 1.356 . S
N265 H268 0.984 . S
N265 H269 0.985 . S
H266 N261 0.984 . S
H267 N261 0.985 . S
H268 N265 0.984 . S
H269 N265 0.985 . S
H270 N264 0.984 . S
H271 N264 0.984 . S
H272 N260 0.984 . S
H273 N260 0.985 . S
C274 C275 1.363 . S
C274 C280 1.379 . S
C274 N282 1.356 . S
C275 C274 1.363 . S
C275 C281 1.363 . S
C276 C277 1.363 . S
C276 C281 1.379 . S
C276 N283 1.356 . S
C277 C276 1.363 . S
C277 C280 1.363 . S
N278 C280 1.356 . S
N278 H290 0.984 . S
N278 H291 0.985 . S
N279 C281 1.356 . S
N279 H284 0.984 . S
N279 H285 0.985 . S
C280 C274 1.379 . S
C280 C277 1.363 . S
C280 N278 1.356 . S
C281 C275 1.363 . S
C281 C276 1.379 . S
C281 N279 1.356 . S
N282 C274 1.356 . S
N282 H288 0.984 . S
N282 H289 0.984 . S
N283 C276 1.356 . S
N283 H286 0.984 . S
N283 H287 0.985 . S
H284 N279 0.984 . S
H285 N279 0.985 . S
H286 N283 0.984 . S
H287 N283 0.985 . S
H288 N282 0.984 . S
H289 N282 0.984 . S
H290 N278 0.984 . S
H291 N278 0.985 . S
C292 C293 1.363 . S
C292 C298 1.379 1_455 S
C292 N300 1.356 . S
C293 C292 1.363 . S
C293 C299 1.363 . S
C294 C295 1.363 . S
C294 C299 1.379 1_655 S
C294 N301 1.356 . S
C295 C294 1.363 . S
C295 C298 1.363 . S
N296 C298 1.356 . S
N296 H308 0.984 . S
N296 H309 0.985 . S
N297 C299 1.356 . S
N297 H302 0.984 . S
N297 H303 0.985 . S
C298 C292 1.379 1_655 S
C298 C295 1.363 . S
C298 N296 1.356 . S
C299 C293 1.363 . S
C299 C294 1.379 1_455 S
C299 N297 1.356 . S
N300 C292 1.356 . S
N300 H306 0.984 . S
N300 H307 0.984 . S
N301 C294 1.356 . S
N301 H304 0.984 . S
N301 H305 0.985 . S
H302 N297 0.984 . S
H303 N297 0.985 . S
H304 N301 0.984 . S
H305 N301 0.985 . S
H306 N300 0.984 . S
H307 N300 0.984 . S
H308 N296 0.984 . S
H309 N296 0.985 . S
C310 C311 1.363 . S
C310 C316 1.379 . S
C310 N318 1.356 . S
C311 C310 1.363 . S
C311 C317 1.363 . S
C312 C313 1.363 . S
C312 C317 1.379 . S
C312 N319 1.356 . S
C313 C312 1.363 . S
C313 C316 1.363 . S
N314 C316 1.356 . S
N314 H326 0.984 . S
N314 H327 0.985 . S
N315 C317 1.356 . S
N315 H320 0.984 . S
N315 H321 0.985 . S
C316 C310 1.379 . S
C316 C313 1.363 . S
C316 N314 1.356 . S
C317 C311 1.363 . S
C317 C312 1.379 . S
C317 N315 1.356 . S
N318 C310 1.356 . S
N318 H324 0.984 . S
N318 H325 0.984 . S
N319 C312 1.356 . S
N319 H322 0.984 . S
N319 H323 0.985 . S
H320 N315 0.984 . S
H321 N315 0.985 . S
H322 N319 0.984 . S
H323 N319 0.985 . S
H324 N318 0.984 . S
H325 N318 0.984 . S
H326 N314 0.984 . S
H327 N314 0.985 . S
C328 C329 1.363 1_554 S
C328 C334 1.379 1_445 S
C328 N336 1.356 . S
C329 C328 1.363 1_556 S
C329 C335 1.363 . S
C330 C331 1.363 1_556 S
C330 C335 1.379 1_665 S
C330 N337 1.356 . S
C331 C330 1.363 1_554 S
C331 C334 1.363 . S
N332 C334 1.356 . S
N332 H344 0.984 . S
N332 H345 0.985 . S
N333 C335 1.356 . S
N333 H338 0.984 . S
N333 H339 0.985 . S
C334 C328 1.379 1_665 S
C334 C331 1.363 . S
C334 N332 1.356 . S
C335 C329 1.363 . S
C335 C330 1.379 1_445 S
C335 N333 1.356 . S
N336 C328 1.356 . S
N336 H342 0.984 . S
N336 H343 0.984 . S
N337 C330 1.356 . S
N337 H340 0.984 . S
N337 H341 0.985 . S
H338 N333 0.984 . S
H339 N333 0.985 . S
H340 N337 0.984 . S
H341 N337 0.985 . S
H342 N336 0.984 . S
H343 N336 0.984 . S
H344 N332 0.984 . S
H345 N332 0.985 . S
C346 C347 1.363 . S
C346 C352 1.379 . S
C346 N354 1.356 . S
C347 C346 1.363 . S
C347 C353 1.363 . S
C348 C349 1.363 . S
C348 C353 1.379 . S
C348 N355 1.356 . S
C349 C348 1.363 . S
C349 C352 1.363 . S
N350 C352 1.356 . S
N350 H362 0.984 . S
N350 H363 0.985 . S
N351 C353 1.356 . S
N351 H356 0.984 . S
N351 H357 0.985 . S
C352 C346 1.379 . S
C352 C349 1.363 . S
C352 N350 1.356 . S
C353 C347 1.363 . S
C353 C348 1.379 . S
C353 N351 1.356 . S
N354 C346 1.356 . S
N354 H360 0.984 . S
N354 H361 0.984 . S
N355 C348 1.356 . S
N355 H358 0.984 . S
N355 H359 0.985 . S
H356 N351 0.984 . S
H357 N351 0.985 . S
H358 N355 0.984 . S
H359 N355 0.985 . S
H360 N354 0.984 . S
H361 N354 0.984 . S
H362 N350 0.984 . S
H363 N350 0.985 . S
C364 C365 1.363 . S
C364 C370 1.379 . S
C364 N372 1.356 . S
C365 C364 1.363 . S
C365 C371 1.363 1_556 S
C366 C367 1.363 . S
C366 C371 1.379 . S
C366 N373 1.356 . S
C367 C366 1.363 . S
C367 C370 1.363 1_554 S
N368 C370 1.356 . S
N368 H380 0.984 . S
N368 H381 0.985 . S
N369 C371 1.356 . S
N369 H374 0.984 . S
N369 H375 0.985 . S
C370 C364 1.379 . S
C370 C367 1.363 1_556 S
C370 N368 1.356 . S
C371 C365 1.363 1_554 S
C371 C366 1.379 . S
C371 N369 1.356 . S
N372 C364 1.356 . S
N372 H378 0.984 . S
N372 H379 0.984 . S
N373 C366 1.356 . S
N373 H376 0.984 . S
N373 H377 0.985 . S
H374 N369 0.984 . S
H375 N369 0.985 . S
H376 N373 0.984 . S
H377 N373 0.985 . S
H378 N372 0.984 . S
H379 N372 0.984 . S
H380 N368 0.984 . S
H381 N368 0.985 . S
C382 C383 1.363 1_655 S
C382 C388 1.369 1_565 S
C382 N390 1.356 1_655 S
C383 C382 1.363 1_455 S
C383 C389 1.373 . S
C384 C385 1.363 1_455 S
C384 C389 1.369 1_545 S
C384 N391 1.356 1_455 S
C385 C384 1.363 1_655 S
C385 C388 1.373 . S
N386 C388 1.360 . S
N386 H398 0.984 1_545 S
N386 H399 0.985 . S
N387 C389 1.360 . S
N387 H392 0.984 . S
N387 H393 0.985 1_565 S
C388 C382 1.369 1_545 S
C388 C385 1.373 . S
C388 N386 1.360 . S
C389 C383 1.373 . S
C389 C384 1.369 1_565 S
C389 N387 1.360 . S
N390 C382 1.356 1_455 S
N390 H396 0.984 1_455 S
N390 H397 0.984 . S
N391 C384 1.356 1_655 S
N391 H394 0.984 . S
N391 H395 0.985 1_655 S
H392 N387 0.984 . S
H393 N387 0.985 1_545 S
H394 N391 0.984 . S
H395 N391 0.985 1_455 S
H396 N390 0.984 1_655 S
H397 N390 0.984 . S
H398 N386 0.984 1_565 S
H399 N386 0.985 . S
C113 C14 1.873 . S
C115 C13 1.927 . S
C131 C0 1.873 . S
C133 C27 1.927 . S
C149 C42 1.873 . S
C151 C41 1.927 . S
C167 C28 1.873 . S
C169 C55 1.927 . S
C185 C68 1.927 . S
C187 C71 1.873 . S
C203 C82 1.927 . S
C205 C57 1.873 . S
C221 C96 1.927 . S
C223 C99 1.873 . S
C239 C85 1.873 . S
C241 C110 1.927 . S
C257 C12 0.939 . S
C259 C54 0.939 . S
C275 C26 0.939 . S
C277 C40 0.939 . S
C293 C111 0.939 . S
C295 C69 0.939 . S
C311 C97 0.939 . S
C313 C83 0.939 . S
C329 C1 1.894 1_556 S
C331 C56 1.894 1_554 S
C347 C70 1.894 . S
C349 C15 1.894 . S
C365 C84 1.893 1_556 S
C367 C29 1.893 1_554 S
C383 C98 1.894 . S
C385 C43 1.894 . S
