# Generated by pormake.
# Topology umc, (4)-cn, num edge types: 1
# Building blocks:
#     Node 0, Type 0, BuildingBlock: MUDLON_clean_sbu_0, # of connection points: 4
#     Node 1, Type 0, BuildingBlock: MUDLON_clean_sbu_0, # of connection points: 4
#     Node 2, Type 0, BuildingBlock: MUDLON_clean_sbu_0, # of connection points: 4
#     Node 3, Type 0, BuildingBlock: MUDLON_clean_sbu_0, # of connection points: 4
#     Node 4, Type 0, BuildingBlock: MUDLON_clean_sbu_0, # of connection points: 4
#     Node 5, Type 0, BuildingBlock: MUDLON_clean_sbu_0, # of connection points: 4
#     Node 6, Type 0, BuildingBlock: MUDLON_clean_sbu_0, # of connection points: 4
#     Node 7, Type 0, BuildingBlock: MUDLON_clean_sbu_0, # of connection points: 4
#     Node 8, Type 0, BuildingBlock: MUDLON_clean_sbu_0, # of connection points: 4
#     Node 9, Type 0, BuildingBlock: MUDLON_clean_sbu_0, # of connection points: 4
#     Node 10, Type 0, BuildingBlock: MUDLON_clean_sbu_0, # of connection points: 4
#     Node 11, Type 0, BuildingBlock: MUDLON_clean_sbu_0, # of connection points: 4
#     Node 12, Type 0, BuildingBlock: MUDLON_clean_sbu_0, # of connection points: 4
#     Node 13, Type 0, BuildingBlock: MUDLON_clean_sbu_0, # of connection points: 4
#     Node 14, Type 0, BuildingBlock: MUDLON_clean_sbu_0, # of connection points: 4
#     Node 15, Type 0, BuildingBlock: MUDLON_clean_sbu_0, # of connection points: 4
#     Edge 16, Type (0, 0), BuildingBlock: UVAHIK_clean_linker_0, # of connection points: 2
#     Edge 17, Type (0, 0), BuildingBlock: UVAHIK_clean_linker_0, # of connection points: 2
#     Edge 18, Type (0, 0), BuildingBlock: UVAHIK_clean_linker_0, # of connection points: 2
#     Edge 19, Type (0, 0), BuildingBlock: UVAHIK_clean_linker_0, # of connection points: 2
#     Edge 20, Type (0, 0), BuildingBlock: UVAHIK_clean_linker_0, # of connection points: 2
#     Edge 21, Type (0, 0), BuildingBlock: UVAHIK_clean_linker_0, # of connection points: 2
#     Edge 22, Type (0, 0), BuildingBlock: UVAHIK_clean_linker_0, # of connection points: 2
#     Edge 23, Type (0, 0), BuildingBlock: UVAHIK_clean_linker_0, # of connection points: 2
#     Edge 24, Type (0, 0), BuildingBlock: UVAHIK_clean_linker_0, # of connection points: 2
#     Edge 25, Type (0, 0), BuildingBlock: UVAHIK_clean_linker_0, # of connection points: 2
#     Edge 26, Type (0, 0), BuildingBlock: UVAHIK_clean_linker_0, # of connection points: 2
#     Edge 27, Type (0, 0), BuildingBlock: UVAHIK_clean_linker_0, # of connection points: 2
#     Edge 28, Type (0, 0), BuildingBlock: UVAHIK_clean_linker_0, # of connection points: 2
#     Edge 29, Type (0, 0), BuildingBlock: UVAHIK_clean_linker_0, # of connection points: 2
#     Edge 30, Type (0, 0), BuildingBlock: UVAHIK_clean_linker_0, # of connection points: 2
#     Edge 31, Type (0, 0), BuildingBlock: UVAHIK_clean_linker_0, # of connection points: 2
#     Edge 32, Type (0, 0), BuildingBlock: UVAHIK_clean_linker_0, # of connection points: 2
#     Edge 33, Type (0, 0), BuildingBlock: UVAHIK_clean_linker_0, # of connection points: 2
#     Edge 34, Type (0, 0), BuildingBlock: UVAHIK_clean_linker_0, # of connection points: 2
#     Edge 35, Type (0, 0), BuildingBlock: UVAHIK_clean_linker_0, # of connection points: 2
#     Edge 36, Type (0, 0), BuildingBlock: UVAHIK_clean_linker_0, # of connection points: 2
#     Edge 37, Type (0, 0), BuildingBlock: UVAHIK_clean_linker_0, # of connection points: 2
#     Edge 38, Type (0, 0), BuildingBlock: UVAHIK_clean_linker_0, # of connection points: 2
#     Edge 39, Type (0, 0), BuildingBlock: UVAHIK_clean_linker_0, # of connection points: 2
#     Edge 40, Type (0, 0), BuildingBlock: UVAHIK_clean_linker_0, # of connection points: 2
#     Edge 41, Type (0, 0), BuildingBlock: UVAHIK_clean_linker_0, # of connection points: 2
#     Edge 42, Type (0, 0), BuildingBlock: UVAHIK_clean_linker_0, # of connection points: 2
#     Edge 43, Type (0, 0), BuildingBlock: UVAHIK_clean_linker_0, # of connection points: 2
#     Edge 44, Type (0, 0), BuildingBlock: UVAHIK_clean_linker_0, # of connection points: 2
#     Edge 45, Type (0, 0), BuildingBlock: UVAHIK_clean_linker_0, # of connection points: 2
#     Edge 46, Type (0, 0), BuildingBlock: UVAHIK_clean_linker_0, # of connection points: 2
#     Edge 47, Type (0, 0), BuildingBlock: UVAHIK_clean_linker_0, # of connection points: 2
# Relax obj value: 0.000
# Max RMSD: 0.077
# Mean RMSD: 0.076
data_MOF--net-umc--node1-MUDLON_clean_sbu_0--edge1-UVAHIK_clean_linker_0
_symmetry_space_group_name_H-M    P1
_symmetry_Int_Tables_number       1
_symmetry_cell_setting            triclinic
loop_
_symmetry_equiv_pos_as_xyz
'x, y, z'
_cell_length_a     76.064745
_cell_length_b     19.058554
_cell_length_c     77.963619
_cell_angle_alpha  90.009327
_cell_angle_beta   90.006574
_cell_angle_gamma 89.977839
loop_
_atom_site_label
_atom_site_type_symbol
_atom_site_fract_x
_atom_site_fract_y
_atom_site_fract_z
_atom_type_partial_charge
Mg0 Mg 0.37863 0.00282 0.3917 0.0
C1 C 0.36301 0.93715 0.42388 0.0
O2 O 0.35168 0.9882 0.42155 0.0
C3 C 0.37856 0.02133 0.3549 0.0
O4 O 0.38064 0.08376 0.36177 0.0
C5 C 0.34312 0.05915 0.3877 0.0
O6 O 0.34279 -0.00342 0.38061 0.0
O7 O 0.35761 0.08098 0.39395 0.0
O8 O 0.37477 0.92652 0.41252 0.0
O9 O 0.40601 0.03655 0.39458 0.0
C10 C 0.41628 0.98562 0.39808 0.0
O11 O 0.40941 0.92295 0.40015 0.0
O12 O 0.37716 0.96878 0.36493 0.0
Mg13 Mg 0.64356 0.99105 0.39026 0.0
C14 C 0.6365 0.07754 0.42222 0.0
O15 O 0.62064 0.05297 0.41943 0.0
C16 C 0.64753 0.97181 0.35355 0.0
O17 O 0.64495 0.90912 0.3601 0.0
C18 C 0.67902 0.93982 0.39408 0.0
O19 O 0.67996 0.00815 0.39198 0.0
O20 O 0.66386 0.91142 0.39422 0.0
O21 O 0.64848 0.06561 0.41118 0.0
O22 O 0.61582 0.96062 0.39147 0.0
C23 C 0.60564 0.00599 0.38469 0.0
O24 O 0.61274 0.06142 0.37746 0.0
O25 O 0.6479 0.02412 0.36373 0.0
Mg26 Mg 0.38061 0.98492 0.13302 0.0
C27 C 0.36617 0.0384 0.09941 0.0
O28 O 0.35777 0.97857 0.10087 0.0
C29 C 0.38001 0.97018 0.16985 0.0
O30 O 0.38219 0.90715 0.16333 0.0
C31 C 0.34488 0.93212 0.1357 0.0
O32 O 0.34422 -0.00111 0.13988 0.0
O33 O 0.35976 0.90587 0.13178 0.0
O34 O 0.37607 0.05836 0.11167 0.0
O35 O 0.40804 0.95182 0.13029 0.0
C36 C 0.41824 0.00214 0.12617 0.0
O37 O 0.41131 0.06428 0.12341 0.0
O38 O 0.37884 0.02188 0.15953 0.0
Mg39 Mg 0.6455 0.00127 0.13208 0.0
C40 C 0.63805 0.91382 0.10035 0.0
O41 O 0.62219 0.93808 0.10337 0.0
C42 C 0.64973 0.02175 0.16868 0.0
O43 O 0.64748 0.08426 0.1619 0.0
C44 C 0.68096 0.05227 0.12768 0.0
O45 O 0.68193 0.98375 0.12936 0.0
O46 O 0.6658 0.08077 0.12799 0.0
O47 O 0.6502 0.92631 0.11119 0.0
O48 O 0.61773 0.03165 0.1311 0.0
C49 C 0.60773 0.98627 0.13811 0.0
O50 O 0.61504 0.93119 0.14532 0.0
O51 O 0.64988 0.96886 0.15867 0.0
Mg52 Mg 0.64569 0.98511 0.63194 0.0
C53 C 0.66252 0.05697 0.60065 0.0
O54 O 0.67558 0.01467 0.60439 0.0
C55 C 0.64637 0.96785 0.66868 0.0
O56 O 0.64471 0.9051 0.66188 0.0
C57 C 0.68138 0.92995 0.63553 0.0
O58 O 0.68196 -0.00577 0.64162 0.0
O59 O 0.6667 0.90667 0.63005 0.0
O60 O 0.64935 0.05997 0.61072 0.0
O61 O 0.61831 0.95089 0.62935 0.0
C62 C 0.60798 0.00124 0.62551 0.0
O63 O 0.61478 0.06375 0.62299 0.0
O64 O 0.64727 0.02042 0.6586 0.0
Mg65 Mg 0.38061 -0.00328 0.63271 0.0
C66 C 0.38814 0.89978 0.60223 0.0
O67 O 0.40448 0.91289 0.60659 0.0
C68 C 0.37652 0.01825 0.66929 0.0
O69 O 0.3793 0.08032 0.66247 0.0
C70 C 0.34582 0.0531 0.62461 0.0
O71 O 0.34435 0.98478 0.62288 0.0
O72 O 0.36081 0.0784 0.62851 0.0
O73 O 0.37577 0.92195 0.61181 0.0
O74 O 0.40845 0.02598 0.63145 0.0
C75 C 0.4186 0.98277 0.63906 0.0
O76 O 0.41148 0.92946 0.64718 0.0
O77 O 0.37603 0.96522 0.65933 0.0
Mg78 Mg 0.64247 -0.00114 0.89056 0.0
C79 C 0.66018 0.92603 0.9213 0.0
O80 O 0.67349 0.96577 0.9168 0.0
C81 C 0.64234 0.015 0.85376 0.0
O82 O 0.63962 0.07738 0.86045 0.0
C83 C 0.6778 0.05633 0.88622 0.0
O84 O 0.67832 0.99309 0.87951 0.0
O85 O 0.66325 0.07817 0.89236 0.0
O86 O 0.64653 0.92471 0.91183 0.0
O87 O 0.61502 0.03213 0.89329 0.0
C88 C 0.60481 0.98182 0.8974 0.0
O89 O 0.61171 0.91959 0.90007 0.0
O90 O 0.64416 0.96314 0.86394 0.0
Mg91 Mg 0.37736 0.99044 0.89097 0.0
C92 C 0.38467 0.08978 0.92106 0.0
O93 O 0.40099 0.08131 0.91598 0.0
C94 C 0.37354 0.97142 0.85423 0.0
O95 O 0.37574 0.90856 0.86082 0.0
C96 C 0.34181 0.93934 0.89433 0.0
O97 O 0.34089 0.00766 0.8922 0.0
O98 O 0.35698 0.91092 0.89467 0.0
O99 O 0.3723 0.06398 0.91203 0.0
O100 O 0.4051 0.95976 0.89257 0.0
C101 C 0.41537 0.00229 0.8849 0.0
O102 O 0.40839 0.05546 0.87661 0.0
O103 O 0.37331 0.0238 0.8644 0.0
Mg104 Mg 0.87789 0.50145 0.39155 0.0
C105 C 0.88548 0.42395 0.42446 0.0
O106 O 0.90028 0.45828 0.42232 0.0
C107 C 0.87314 0.51869 0.35496 0.0
O108 O 0.87528 0.58184 0.3614 0.0
C109 C 0.8424 0.55304 0.39574 0.0
O110 O 0.84133 0.48456 0.39405 0.0
O111 O 0.85761 0.5811 0.39553 0.0
O112 O 0.87377 0.42756 0.4128 0.0
O113 O 0.90561 0.53227 0.39169 0.0
C114 C 0.91559 0.48225 0.38688 0.0
O115 O 0.90825 0.42269 0.3823 0.0
O116 O 0.87327 0.46661 0.36521 0.0
Mg117 Mg 0.14323 0.48459 0.39128 0.0
C118 C 0.13709 0.55227 0.42532 0.0
O119 O 0.12423 0.50646 0.42447 0.0
C120 C 0.14825 0.46533 0.35477 0.0
O121 O 0.14656 0.4024 0.36145 0.0
C122 C 0.17803 0.42954 0.39967 0.0
O123 O 0.1792 0.49781 0.40171 0.0
O124 O 0.16319 0.4036 0.3955 0.0
O125 O 0.14725 0.55916 0.41243 0.0
O126 O 0.11535 0.45613 0.39158 0.0
C127 C 0.10554 0.50968 0.38947 0.0
O128 O 0.1131 0.57109 0.38737 0.0
O129 O 0.14777 0.51805 0.36482 0.0
Mg130 Mg 0.87946 0.4926 0.13358 0.0
C131 C 0.88643 0.58341 0.10227 0.0
O132 O 0.90255 0.56246 0.10545 0.0
C133 C 0.87565 0.47043 0.17014 0.0
O134 O 0.87851 0.40853 0.16325 0.0
C135 C 0.8441 0.43994 0.12975 0.0
O136 O 0.84292 0.50796 0.1323 0.0
O137 O 0.85938 0.41244 0.1293 0.0
O138 O 0.87433 0.56801 0.11293 0.0
O139 O 0.90727 0.4631 0.13224 0.0
C140 C 0.91734 0.50729 0.1396 0.0
O141 O 0.91011 0.56117 0.14741 0.0
O142 O 0.87502 0.52359 0.16024 0.0
Mg143 Mg 0.14435 0.50388 0.13309 0.0
C144 C 0.15722 0.45404 0.09884 0.0
O145 O 0.16406 0.51716 0.09972 0.0
C146 C 0.14466 0.51785 0.1699 0.0
O147 O 0.1419 0.5806 0.16344 0.0
C148 C 0.18043 0.55301 0.13432 0.0
O149 O 0.18094 0.48506 0.13718 0.0
O150 O 0.16549 0.5816 0.13182 0.0
O151 O 0.1487 0.43061 0.1117 0.0
O152 O 0.11701 0.53847 0.13051 0.0
C153 C 0.10664 0.48965 0.12576 0.0
O154 O 0.11334 0.42774 0.12226 0.0
O155 O 0.14631 0.46652 0.15953 0.0
Mg156 Mg 0.14663 0.4913 0.6328 0.0
C157 C 0.16312 0.57194 0.60274 0.0
O158 O 0.17726 0.53724 0.60738 0.0
C159 C 0.14693 0.47201 0.66956 0.0
O160 O 0.14424 0.41006 0.66263 0.0
C161 C 0.18207 0.43256 0.63646 0.0
O162 O 0.18247 0.49271 0.64469 0.0
O163 O 0.16763 0.41352 0.62958 0.0
O164 O 0.14939 0.56801 0.61203 0.0
O165 O 0.1192 0.45831 0.63037 0.0
C166 C 0.10898 0.51098 0.63192 0.0
O167 O 0.11608 0.57286 0.63463 0.0
O168 O 0.14866 0.52456 0.65959 0.0
Mg169 Mg 0.88149 0.4974 0.63337 0.0
C170 C 0.86413 0.42043 0.60303 0.0
O171 O 0.85034 0.45687 0.60782 0.0
C172 C 0.88201 0.51392 0.67016 0.0
O173 O 0.88498 0.576 0.66342 0.0
C174 C 0.84603 0.55322 0.63745 0.0
O175 O 0.84578 0.49023 0.6443 0.0
O176 O 0.8605 0.57584 0.63131 0.0
O177 O 0.87799 0.42243 0.61221 0.0
O178 O 0.90896 0.52979 0.63067 0.0
C179 C 0.91903 0.47631 0.63042 0.0
O180 O 0.9118 0.41386 0.63156 0.0
O181 O 0.87984 0.46214 0.66002 0.0
Mg182 Mg 0.14346 0.49683 0.89129 0.0
C183 C 0.13687 0.39613 0.92126 0.0
O184 O 0.12045 0.40377 0.91642 0.0
C185 C 0.14786 0.51708 0.85459 0.0
O186 O 0.14594 0.57998 0.86124 0.0
C187 C 0.17876 0.55054 0.89497 0.0
O188 O 0.18002 0.48229 0.89288 0.0
O189 O 0.16345 0.5778 0.89517 0.0
O190 O 0.14901 0.42293 0.91212 0.0
O191 O 0.11557 0.5251 0.89301 0.0
C192 C 0.10551 0.48215 0.88521 0.0
O193 O 0.11275 0.42998 0.87675 0.0
O194 O 0.14769 0.46446 0.86467 0.0
Mg195 Mg 0.87857 0.48266 0.89202 0.0
C196 C 0.86198 0.55035 0.9238 0.0
O197 O 0.84978 0.50351 0.9206 0.0
C198 C 0.87784 0.46625 0.85523 0.0
O199 O 0.87905 0.40318 0.86195 0.0
C200 C 0.8427 0.43094 0.88821 0.0
O201 O 0.84247 0.49619 0.88275 0.0
O202 O 0.85725 0.40542 0.8934 0.0
O203 O 0.87468 0.55735 0.91327 0.0
O204 O 0.90581 0.44693 0.89485 0.0
C205 C 0.91627 0.49573 0.89945 0.0
O206 O 0.90969 0.55812 0.90263 0.0
O207 O 0.87733 0.51868 0.86539 0.0
C208 C 0.35048 0.91265 0.45295 0.0
C209 C 0.36406 0.9028 0.44095 0.0
C210 C 0.35259 0.89178 0.47003 0.0
C211 C 0.38773 0.86827 0.50161 0.0
H212 H 0.34996 0.80185 0.53079 0.0
C213 C 0.39791 0.84624 0.57444 0.0
C214 C 0.38428 0.87307 0.58472 0.0
C215 C 0.39516 0.83279 0.557 0.0
C216 C 0.36063 0.82073 0.52285 0.0
H217 H 0.39014 0.85928 0.4373 0.0
H218 H 0.39379 0.82252 0.46714 0.0
H219 H 0.34561 0.808 0.49977 0.0
H220 H 0.35678 0.90302 0.58487 0.0
H221 H 0.35207 0.8809 0.55445 0.0
H222 H 0.40254 0.88379 0.52456 0.0
C223 C 0.38157 0.84719 0.46334 0.0
C224 C 0.35815 0.82407 0.50505 0.0
C225 C 0.37941 0.86771 0.4462 0.0
C226 C 0.36756 0.88217 0.57736 0.0
C227 C 0.36485 0.86926 0.55987 0.0
C228 C 0.39019 0.86526 0.51937 0.0
C229 C 0.36837 0.86078 0.47557 0.0
C230 C 0.37157 0.849 0.49423 0.0
C231 C 0.37876 0.8464 0.54933 0.0
C232 C 0.37659 0.84254 0.53029 0.0
H233 H 0.33846 0.93932 0.44934 0.0
H234 H 0.34219 0.90356 0.47907 0.0
H235 H 0.39825 0.88889 0.49373 0.0
H236 H 0.41091 0.83799 0.57973 0.0
H237 H 0.40608 0.81357 0.54943 0.0
C238 C 0.6456 0.10966 0.57611 0.0
C239 C 0.66175 0.08913 0.58332 0.0
C240 C 0.64446 0.12706 0.55867 0.0
C241 C 0.66781 0.08998 0.51804 0.0
H242 H 0.63366 0.21873 0.49877 0.0
C243 C 0.65849 0.11077 0.44494 0.0
C244 C 0.64092 0.10574 0.43946 0.0
C245 C 0.66243 0.12462 0.46217 0.0
C246 C 0.64326 0.18254 0.50395 0.0
H247 H 0.68958 0.07637 0.57821 0.0
H248 H 0.6877 0.10873 0.54805 0.0
H249 H 0.63807 0.21486 0.5298 0.0
H250 H 0.61377 0.11634 0.44757 0.0
H251 H 0.62062 0.14032 0.47748 0.0
H252 H 0.67275 0.05653 0.49231 0.0
C253 C 0.67579 0.10919 0.55566 0.0
C254 C 0.64577 0.18018 0.52176 0.0
C255 C 0.6769 0.09118 0.57301 0.0
C256 C 0.62745 0.11953 0.45135 0.0
C257 C 0.63139 0.13369 0.46853 0.0
C258 C 0.66536 0.09257 0.50028 0.0
C259 C 0.65946 0.12491 0.54809 0.0
C260 C 0.65788 0.133 0.52908 0.0
C261 C 0.6489 0.13419 0.47428 0.0
C262 C 0.65285 0.13798 0.49301 0.0
H263 H 0.63366 0.10836 0.58366 0.0
H264 H 0.63163 0.13842 0.55333 0.0
H265 H 0.677 0.05192 0.52313 0.0
H266 H 0.6692 0.10056 0.43613 0.0
H267 H 0.67608 0.12573 0.46612 0.0
C268 C 0.38038 0.11652 0.07739 0.0
C269 C 0.36613 0.07465 0.08258 0.0
C270 C 0.38175 0.13924 0.06032 0.0
C271 C 0.3571 0.15717 0.0192 0.0
H272 H 0.4019 0.11177 0.9983 0.0
C273 C 0.36489 0.10242 0.94669 0.0
C274 C 0.38113 0.11559 0.93871 0.0
C275 C 0.36266 0.11481 0.96427 0.0
C276 C 0.38939 0.1264 1.00388 0.0
H277 H 0.34157 0.02799 0.07428 0.0
H278 H 0.34384 0.06807 0.04474 0.0
H279 H 0.39868 0.10468 0.02925 0.0
H280 H 0.40733 0.15726 0.94272 0.0
H281 H 0.4033 0.18088 0.97317 0.0
H282 H 0.34771 0.1776 0.99379 0.0
C283 C 0.354 0.08332 0.05373 0.0
C284 C 0.38755 0.12222 0.02171 0.0
C285 C 0.35275 0.06 0.07067 0.0
C286 C 0.39469 0.14585 0.94848 0.0
C287 C 0.39242 0.15884 0.96601 0.0
C288 C 0.35897 0.16184 1.00136 0.0
C289 C 0.36877 0.12136 0.04819 0.0
C290 C 0.37128 0.13596 0.02956 0.0
C291 C 0.37657 0.1413 0.97429 0.0
C292 C 0.37504 0.14492 0.9934 0.0
H293 H 0.39094 0.12846 0.08624 0.0
H294 H 0.39321 0.16908 0.05649 0.0
H295 H 0.34444 0.16895 0.02488 0.0
H296 H 0.35417 0.07886 0.93959 0.0
H297 H 0.35031 0.1 0.97014 0.0
C298 C 0.64388 0.87532 0.94647 0.0
C299 C 0.65985 0.89513 0.93879 0.0
C300 C 0.64317 0.85883 0.96398 0.0
C301 C 0.66749 0.89757 1.00394 0.0
H302 H 0.63389 0.7694 0.02429 0.0
C303 C 0.65966 0.8804 0.07731 0.0
C304 C 0.6422 0.88513 0.0831 0.0
C305 C 0.66329 0.86591 0.06003 0.0
C306 C 0.64334 0.80545 0.0188 0.0
H307 H 0.68782 0.90769 0.94319 0.0
H308 H 0.68668 0.87713 0.97349 0.0
H309 H 0.63759 0.7719 0.99316 0.0
H310 H 0.61491 0.87342 0.07552 0.0
H311 H 0.62122 0.84836 0.04556 0.0
H312 H 0.67297 0.93232 0.02947 0.0
C313 C 0.67458 0.87641 0.96617 0.0
C314 C 0.64544 0.80701 1.00094 0.0
C315 C 0.67526 0.8934 0.94873 0.0
C316 C 0.62852 0.87047 0.0715 0.0
C317 C 0.63215 0.85569 0.05428 0.0
C318 C 0.66544 0.89583 0.02176 0.0
C319 C 0.65845 0.86127 0.97418 0.0
C320 C 0.65734 0.85398 0.99324 0.0
C321 C 0.64955 0.85539 0.04821 0.0
C322 C 0.65312 0.85067 0.02942 0.0
H323 H 0.63174 0.87633 0.93921 0.0
H324 H 0.63048 0.84792 0.96966 0.0
H325 H 0.67654 0.93544 0.99854 0.0
H326 H 0.67052 0.8913 0.08589 0.0
H327 H 0.67686 0.86499 0.05583 0.0
C328 C 0.84907 0.38486 0.5758 0.0
C329 C 0.8646 0.3898 0.58552 0.0
C330 C 0.84971 0.36825 0.55833 0.0
C331 C 0.8794 0.30646 0.52308 0.0
H332 H 0.84977 0.42596 0.49505 0.0
C333 C 0.89546 0.38149 0.45318 0.0
C334 C 0.88167 0.39249 0.44147 0.0
C335 C 0.89196 0.36387 0.47024 0.0
C336 C 0.8579 0.39106 0.50263 0.0
H337 H 0.89291 0.37708 0.58466 0.0
H338 H 0.89408 0.34948 0.55418 0.0
H339 H 0.84632 0.42665 0.52601 0.0
H340 H 0.85337 0.38959 0.43829 0.0
H341 H 0.84722 0.3587 0.46818 0.0
H342 H 0.89146 0.27328 0.49957 0.0
C343 C 0.88134 0.35749 0.56005 0.0
C344 C 0.85592 0.39138 0.52046 0.0
C345 C 0.88069 0.37355 0.57758 0.0
C346 C 0.8643 0.38144 0.44698 0.0
C347 C 0.86077 0.36432 0.46414 0.0
C348 C 0.88144 0.30641 0.50521 0.0
C349 C 0.86591 0.35674 0.55007 0.0
C350 C 0.86685 0.35008 0.53098 0.0
C351 C 0.87456 0.35721 0.47608 0.0
C352 C 0.87093 0.34974 0.49479 0.0
H353 H 0.83643 0.39637 0.58154 0.0
H354 H 0.83751 0.36645 0.55119 0.0
H355 H 0.88785 0.27303 0.53071 0.0
H356 H 0.90901 0.38934 0.44935 0.0
H357 H 0.9029 0.35936 0.47907 0.0
C358 C 0.14571 0.61573 0.57754 0.0
C359 C 0.1621 0.60202 0.58519 0.0
C360 C 0.14453 0.63106 0.56001 0.0
C361 C 0.16952 0.60087 0.51987 0.0
H362 H 0.13144 0.70809 0.49974 0.0
C363 C 0.15814 0.60503 0.4466 0.0
C364 C 0.1409 0.58631 0.442 0.0
C365 C 0.16205 0.62449 0.46354 0.0
C366 C 0.14219 0.67818 0.50518 0.0
H367 H 0.19021 0.59926 0.58066 0.0
H368 H 0.18822 0.62833 0.55028 0.0
H369 H 0.13611 0.71163 0.53072 0.0
H370 H 0.11409 0.57793 0.45117 0.0
H371 H 0.12082 0.61277 0.48049 0.0
H372 H 0.17539 0.56659 0.49435 0.0
C373 C 0.1762 0.62491 0.55766 0.0
C374 C 0.14483 0.67988 0.52296 0.0
C375 C 0.17736 0.60884 0.57515 0.0
C376 C 0.12751 0.5919 0.45434 0.0
C377 C 0.13135 0.61223 0.47114 0.0
C378 C 0.16697 0.59972 0.5021 0.0
C379 C 0.15973 0.63382 0.5497 0.0
C380 C 0.15826 0.6398 0.53062 0.0
C381 C 0.14874 0.62667 0.47609 0.0
C382 C 0.15301 0.63693 0.49458 0.0
H383 H 0.13367 0.61069 0.58486 0.0
H384 H 0.13159 0.63688 0.55441 0.0
H385 H 0.17982 0.56833 0.52521 0.0
H386 H 0.16876 0.60085 0.4374 0.0
H387 H 0.17556 0.63584 0.46695 0.0
C388 C 0.87842 0.6074 0.94807 0.0
C389 C 0.86248 0.58385 0.94097 0.0
C390 C 0.87941 0.62583 0.96546 0.0
C391 C 0.85643 0.58653 1.00618 0.0
H392 H 0.88901 0.72189 0.02529 0.0
C393 C 0.86451 0.61286 0.0792 0.0
C394 C 0.88203 0.61076 0.08495 0.0
C395 C 0.86071 0.62542 0.06189 0.0
C396 C 0.87985 0.68386 0.02015 0.0
H397 H 0.83482 0.5668 0.94617 0.0
H398 H 0.8364 0.60104 0.97621 0.0
H399 H 0.8849 0.71563 0.99422 0.0
H400 H 0.90918 0.62555 0.07723 0.0
H401 H 0.90256 0.64726 0.04716 0.0
H402 H 0.85163 0.55367 0.03196 0.0
C403 C 0.84829 0.60304 0.96858 0.0
C404 C 0.87752 0.68013 1.00232 0.0
C405 C 0.84735 0.58396 0.9513 0.0
C406 C 0.89554 0.62643 0.07324 0.0
C407 C 0.89173 0.63926 0.05596 0.0
C408 C 0.85869 0.59048 0.02394 0.0
C409 C 0.86446 0.62169 0.97608 0.0
C410 C 0.86595 0.63069 0.99508 0.0
C411 C 0.87432 0.63656 0.04995 0.0
C412 C 0.87062 0.63843 0.03116 0.0
H413 H 0.89034 0.60757 0.94048 0.0
H414 H 0.89211 0.63951 0.97075 0.0
H415 H 0.84769 0.5467 1.00115 0.0
H416 H 0.85377 0.60124 0.08787 0.0
H417 H 0.84713 0.62415 0.05773 0.0
C418 C 0.17024 0.43412 0.0699 0.0
C419 C 0.1574 0.41686 0.08215 0.0
C420 C 0.16897 0.40944 0.05307 0.0
C421 C 0.13547 0.36228 0.02187 0.0
H422 H 0.17538 0.31223 0.99345 0.0
C423 C 0.12753 0.33848 0.94872 0.0
C424 C 0.14078 0.37026 0.93883 0.0
C425 C 0.13012 0.3254 0.96621 0.0
C426 C 0.1641 0.32648 1.00116 0.0
H427 H 0.13355 0.35739 0.08656 0.0
H428 H 0.1312 0.31463 0.05697 0.0
H429 H 0.17905 0.32247 0.02447 0.0
H430 H 0.16751 0.40964 0.93942 0.0
H431 H 0.17189 0.38857 0.96987 0.0
H432 H 0.12068 0.3701 0.99867 0.0
C433 C 0.14228 0.34731 0.06046 0.0
C434 C 0.16619 0.33199 0.01896 0.0
C435 C 0.1437 0.37129 0.07743 0.0
C436 C 0.15704 0.38489 0.94662 0.0
C437 C 0.15956 0.37249 0.96415 0.0
C438 C 0.1334 0.35742 1.00408 0.0
C439 C 0.15469 0.36753 0.048 0.0
C440 C 0.15199 0.35139 0.02949 0.0
C441 C 0.14596 0.34445 0.97432 0.0
C442 C 0.14777 0.34092 0.99341 0.0
H443 H 0.18097 0.46906 0.07315 0.0
H444 H 0.17866 0.42654 0.0438 0.0
H445 H 0.12431 0.37833 0.02956 0.0
H446 H 0.1149 0.32593 0.94309 0.0
H447 H 0.11948 0.30213 0.97347 0.0
C448 C 0.57796 0.94546 0.39475 0.0
C449 C 0.58619 0.0011 0.38606 0.0
C450 C 0.5596 0.94407 0.39659 0.0
C451 C 0.52056 0.06084 0.39594 0.0
H452 H 0.49452 0.88831 0.38931 0.0
C453 C 0.44417 0.05243 0.39164 0.0
C454 C 0.43568 -0.00635 0.39869 0.0
C455 C 0.4626 0.05509 0.39081 0.0
C456 C 0.50158 0.93686 0.39146 0.0
H457 H 0.58148 0.09829 0.37226 0.0
H458 H 0.54973 0.09551 0.37539 0.0
H459 H 0.52643 0.8877 0.38659 0.0
H460 H 0.43991 0.89325 0.41115 0.0
H461 H 0.47177 0.89866 0.41009 0.0
H462 H 0.49573 0.11001 0.40086 0.0
C463 C 0.55739 0.05344 0.381 0.0
C464 C 0.51991 0.93642 0.38987 0.0
C465 C 0.57564 0.05467 0.3791 0.0
C466 C 0.446 0.93902 0.40545 0.0
C467 C 0.46432 0.94185 0.40472 0.0
C468 C 0.50223 0.06124 0.3976 0.0
C469 C 0.54912 -0.00151 0.38987 0.0
C470 C 0.52963 -0.00157 0.39203 0.0
C471 C 0.47291 -0.00083 0.39709 0.0
C472 C 0.49247 -0.00075 0.39537 0.0
H473 H 0.58568 0.90349 0.40031 0.0
H474 H 0.55365 0.90113 0.40359 0.0
H475 H 0.52767 0.1094 0.39793 0.0
H476 H 0.43659 0.09523 0.38626 0.0
H477 H 0.46874 0.09994 0.38475 0.0
C478 C 0.44801 0.04823 0.1187 0.0
C479 C 0.43765 -0.00593 0.12563 0.0
C480 C 0.46635 0.04496 0.11934 0.0
C481 C 0.50246 0.96593 0.144 0.0
H482 H 0.53127 0.02951 0.10602 0.0
C483 C 0.57794 0.93729 0.14442 0.0
C484 C 0.58825 0.99073 0.13709 0.0
C485 C 0.55965 0.93805 0.14291 0.0
C486 C 0.52344 0.01251 0.11684 0.0
H487 H 0.43851 0.89298 0.13831 0.0
H488 H 0.47069 0.88711 0.13943 0.0
H489 H 0.49936 0.02619 0.10296 0.0
H490 H 0.58728 0.08763 0.12259 0.0
H491 H 0.55518 0.08975 0.12019 0.0
H492 H 0.52644 0.95307 0.15798 0.0
C493 C 0.46453 0.93246 0.1336 0.0
C494 C 0.50512 0.01027 0.11506 0.0
C495 C 0.4461 0.9355 0.13285 0.0
C496 C 0.57974 0.04566 0.12838 0.0
C497 C 0.56134 0.04652 0.1269 0.0
C498 C 0.52075 0.96845 0.14582 0.0
C499 C 0.47486 0.98757 0.12701 0.0
C500 C 0.4944 0.987 0.12862 0.0
C501 C 0.55106 0.99244 0.13409 0.0
C502 C 0.53151 0.99169 0.13226 0.0
H503 H 0.44196 0.09412 0.11301 0.0
H504 H 0.47384 0.08863 0.1143 0.0
H505 H 0.49459 0.94899 0.15482 0.0
H506 H 0.584 0.8939 0.15117 0.0
H507 H 0.55228 0.89491 0.14838 0.0
C508 C 0.57823 0.04617 0.61766 0.0
C509 C 0.58859 0.99287 0.62497 0.0
C510 C 0.55991 0.04332 0.61842 0.0
C511 C 0.52205 0.92507 0.62693 0.0
H512 H 0.4978 0.10047 0.63588 0.0
C513 C 0.44859 0.93534 0.64533 0.0
C514 C 0.43805 0.98732 0.63766 0.0
C515 C 0.46685 0.93615 0.64343 0.0
C516 C 0.50434 0.05119 0.63318 0.0
H517 H 0.58774 0.89355 0.63845 0.0
H518 H 0.55559 0.88887 0.64004 0.0
H519 H 0.5297 0.09946 0.63317 0.0
H520 H 0.43859 0.0817 0.62217 0.0
H521 H 0.47062 0.08338 0.61892 0.0
H522 H 0.49662 0.87679 0.62719 0.0
C523 C 0.5617 0.93265 0.63351 0.0
C524 C 0.52266 0.05051 0.6316 0.0
C525 C 0.58013 0.93529 0.63263 0.0
C526 C 0.4463 0.04099 0.62827 0.0
C527 C 0.46466 0.042 0.62645 0.0
C528 C 0.50371 0.92572 0.62859 0.0
C529 C 0.55136 0.98734 0.62666 0.0
C530 C 0.53179 0.98747 0.62841 0.0
C531 C 0.47514 0.98913 0.63388 0.0
C532 C 0.49462 0.98879 0.63175 0.0
H533 H 0.58429 0.09095 0.61148 0.0
H534 H 0.55245 0.08546 0.6126 0.0
H535 H 0.52855 0.87574 0.62423 0.0
H536 H 0.44274 0.89325 0.65271 0.0
H537 H 0.47451 0.89534 0.64958 0.0
C538 C 0.57516 0.93672 0.90557 0.0
C539 C 0.58541 0.98996 0.8981 0.0
C540 C 0.55683 0.93954 0.90502 0.0
C541 C 0.51887 0.05794 0.89686 0.0
H542 H 0.49443 0.88269 0.88833 0.0
C543 C 0.44544 0.0486 0.8786 0.0
C544 C 0.43481 -0.00281 0.88636 0.0
C545 C 0.46369 0.04738 0.88051 0.0
C546 C 0.50102 0.93192 0.89092 0.0
H547 H 0.58435 0.08907 0.88454 0.0
H548 H 0.5522 0.09368 0.88332 0.0
H549 H 0.52636 0.88331 0.89078 0.0
H550 H 0.43518 0.90337 0.90206 0.0
H551 H 0.46723 0.90093 0.90534 0.0
H552 H 0.49348 0.10656 0.89672 0.0
C553 C 0.5584 0.04999 0.88982 0.0
C554 C 0.51937 0.93238 0.89235 0.0
C555 C 0.57684 0.04738 0.89048 0.0
C556 C 0.44297 0.94364 0.89588 0.0
C557 C 0.46133 0.94221 0.89772 0.0
C558 C 0.50053 0.0575 0.89534 0.0
C559 C 0.54816 -0.00458 0.89685 0.0
C560 C 0.52856 -0.00461 0.89535 0.0
C561 C 0.47189 -0.00545 0.89019 0.0
C562 C 0.49137 -0.00549 0.89231 0.0
H563 H 0.58131 0.89205 0.91172 0.0
H564 H 0.54945 0.89748 0.91097 0.0
H565 H 0.52543 0.10725 0.89943 0.0
H566 H 0.43967 0.09057 0.87111 0.0
H567 H 0.47141 0.08775 0.87428 0.0
C568 C 0.94534 0.42728 0.38467 0.0
C569 C 0.93506 0.48766 0.3874 0.0
C570 C 0.96367 0.43041 0.3854 0.0
C571 C 1.00109 0.55029 0.38099 0.0
H572 H 0.02669 0.40461 0.40517 0.0
C573 C 0.07605 0.56711 0.39075 0.0
C574 C 0.08606 0.50517 0.38985 0.0
C575 C 0.05771 0.5647 0.39086 0.0
C576 C 0.0198 0.44518 0.39815 0.0
H577 H 0.93608 0.59901 0.39295 0.0
H578 H 0.96829 0.60469 0.39405 0.0
H579 H 0.99463 0.40245 0.40473 0.0
H580 H 0.08457 0.39183 0.38843 0.0
H581 H 0.05241 0.38744 0.38819 0.0
H582 H 0.02615 0.59234 0.37406 0.0
C583 C 0.96204 0.55485 0.39135 0.0
C584 C 1.00139 0.44411 0.39797 0.0
C585 C 0.94361 0.55159 0.39078 0.0
C586 C 0.07724 0.44047 0.38918 0.0
C587 C 0.05879 0.43805 0.38913 0.0
C588 C 0.01949 0.55105 0.38104 0.0
C589 C 0.97226 0.49411 0.38876 0.0
C590 C 0.99182 0.49663 0.38938 0.0
C591 C 0.04877 0.50027 0.3899 0.0
C592 C 0.02912 0.49859 0.38965 0.0
H593 H 0.93925 0.37707 0.38203 0.0
H594 H 0.97113 0.3829 0.38312 0.0
H595 H 0.99411 0.59088 0.37404 0.0
H596 H 0.08238 0.61792 0.39148 0.0
H597 H 0.05054 0.61363 0.39187 0.0
C598 C 0.07901 0.55597 0.13346 0.0
C599 C 0.08726 0.49886 0.12536 0.0
C600 C 0.0606 0.55959 0.13439 0.0
C601 C 0.01964 0.48759 0.11516 0.0
H602 H 0.9989 0.53517 0.15905 0.0
C603 C 0.94519 0.44991 0.12885 0.0
C604 C 0.93681 0.50293 0.13836 0.0
C605 C 0.96357 0.44928 0.12716 0.0
C606 C 1.00443 0.52253 0.14663 0.0
H607 H 0.08259 0.40224 0.11134 0.0
H608 H 0.05074 0.40872 0.11292 0.0
H609 H 0.03072 0.53926 0.15559 0.0
H610 H 0.94127 0.59647 0.15366 0.0
H611 H 0.97297 0.59584 0.15052 0.0
H612 H 0.99336 0.471 0.10617 0.0
C613 C 0.05839 0.45081 0.11853 0.0
C614 C 0.02271 0.52506 0.14465 0.0
C615 C 0.0767 0.44693 0.11772 0.0
C616 C 0.94723 0.5546 0.14628 0.0
C617 C 0.9655 0.55405 0.14457 0.0
C618 C 1.00135 0.48532 0.11712 0.0
C619 C 0.05008 0.50656 0.12709 0.0
C620 C 0.03056 0.5074 0.12891 0.0
C621 C 0.97396 0.50164 0.13493 0.0
C622 C 0.99348 0.50264 0.13289 0.0
H623 H 0.08676 0.59675 0.13949 0.0
H624 H 0.05461 0.60369 0.14091 0.0
H625 H 0.02524 0.47438 0.1028 0.0
H626 H 0.93757 0.40934 0.12259 0.0
H627 H 0.96963 0.40757 0.11981 0.0
C628 C 0.94716 0.54711 0.63022 0.0
C629 C 0.93849 0.48209 0.62931 0.0
C630 C 0.96561 0.55033 0.62984 0.0
C631 C 1.00516 0.43949 0.63744 0.0
H632 H 0.02955 0.58609 0.61258 0.0
C633 C 0.0811 0.43976 0.62877 0.0
C634 C 0.08953 0.50488 0.63081 0.0
C635 C 0.06268 0.43587 0.62798 0.0
C636 C 0.02295 0.54506 0.61971 0.0
H637 H 0.94248 0.36969 0.62683 0.0
H638 H 0.97429 0.3755 0.62593 0.0
H639 H 0.99749 0.58342 0.61258 0.0
H640 H 0.0851 0.61693 0.63355 0.0
H641 H 0.0533 0.60996 0.63232 0.0
H642 H 0.03061 0.40123 0.6446 0.0
C643 C 0.96699 0.42396 0.62731 0.0
C644 C 1.00454 0.54368 0.61974 0.0
C645 C 0.94866 0.42075 0.62772 0.0
C646 C 0.07912 0.56578 0.63194 0.0
C647 C 0.06081 0.56193 0.6311 0.0
C648 C 0.02356 0.44083 0.63739 0.0
C649 C 0.97576 0.48861 0.62854 0.0
C650 C 0.99539 0.4909 0.62862 0.0
C651 C 0.05231 0.49705 0.62913 0.0
C652 C 0.03271 0.49378 0.62858 0.0
H653 H 0.93973 0.59531 0.63148 0.0
H654 H 0.97192 0.60105 0.63094 0.0
H655 H 0.99859 0.39867 0.64465 0.0
H656 H 0.08872 0.39188 0.62785 0.0
H657 H 0.05656 0.38503 0.62632 0.0
C658 C 0.07763 0.53732 0.89658 0.0
C659 C 0.08604 0.48578 0.88663 0.0
C660 C 0.05926 0.53724 0.89838 0.0
C661 C 0.01841 0.46509 0.87857 0.0
H662 H 0.99768 0.50846 0.92272 0.0
C663 C 0.94388 0.42943 0.89168 0.0
C664 C 0.93563 0.48604 0.89997 0.0
C665 C 0.9623 0.42584 0.89077 0.0
C666 C 1.00326 0.49654 0.91028 0.0
H667 H 0.08164 0.39406 0.87067 0.0
H668 H 0.04997 0.39337 0.87399 0.0
H669 H 0.02955 0.51281 0.91929 0.0
H670 H 0.94027 0.58163 0.91441 0.0
H671 H 0.97213 0.57514 0.9129 0.0
H672 H 0.99212 0.44865 0.86958 0.0
C673 C 0.0574 0.43464 0.88021 0.0
C674 C 0.02155 0.4994 0.90828 0.0
C675 C 0.07566 0.43483 0.87839 0.0
C676 C 0.94618 0.53735 0.90787 0.0
C677 C 0.96449 0.53347 0.9071 0.0
C678 C 1.00015 0.46193 0.88059 0.0
C679 C 0.04891 0.4856 0.89027 0.0
C680 C 0.02939 0.48386 0.89238 0.0
C681 C 0.97281 0.47836 0.8983 0.0
C682 C 0.99233 0.47787 0.89645 0.0
H683 H 0.08522 0.57732 0.9031 0.0
H684 H 0.05317 0.57787 0.90606 0.0
H685 H 0.02391 0.45386 0.86605 0.0
H686 H 0.93613 0.38916 0.88544 0.0
H687 H 0.96831 0.38226 0.88405 0.0
C688 C 0.19504 0.3183 0.39391 0.0
C689 C 0.19422 0.38635 0.40081 0.0
C690 C 0.21105 0.28168 0.39348 0.0
C691 C 0.25922 0.31409 0.39469 0.0
H692 H 0.26217 0.1132 0.40171 0.0
C693 C 0.32582 0.1644 0.39788 0.0
C694 C 0.32649 0.09953 0.38932 0.0
C695 C 0.30976 0.19985 0.39985 0.0
C696 C 0.26155 0.1693 0.39958 0.0
H697 H 0.20939 0.46777 0.41344 0.0
H698 H 0.23699 0.40377 0.41304 0.0
H699 H 0.23382 0.17215 0.40437 0.0
H700 H 0.3108 0.02177 0.37589 0.0
H701 H 0.2831 0.08343 0.37921 0.0
H702 H 0.28695 0.31118 0.38988 0.0
C703 C 0.22547 0.37919 0.40751 0.0
C704 C 0.24528 0.20308 0.40108 0.0
C705 C 0.20957 0.41574 0.40785 0.0
C706 C 0.31082 0.07145 0.38264 0.0
C707 C 0.29485 0.10659 0.38465 0.0
C708 C 0.2755 0.28035 0.39324 0.0
C709 C 0.22654 0.31228 0.40001 0.0
C710 C 0.24388 0.27593 0.39861 0.0
C711 C 0.29406 0.17096 0.39338 0.0
C712 C 0.27686 0.20746 0.39557 0.0
H713 H 0.18347 0.29434 0.38831 0.0
H714 H 0.21139 0.2304 0.38751 0.0
H715 H 0.25863 0.37007 0.39239 0.0
H716 H 0.33764 0.18739 0.40322 0.0
H717 H 0.3096 0.24921 0.40673 0.0
C718 C 0.69547 0.82487 0.39633 0.0
C719 C 0.69552 0.89858 0.39569 0.0
C720 C 0.71137 0.78749 0.39719 0.0
C721 C 0.759 0.80729 0.3879 0.0
H722 H 0.76413 0.64357 0.41693 0.0
C723 C 0.82626 0.66873 0.39743 0.0
C724 C 0.82601 0.595 0.39719 0.0
C725 C 0.81048 0.70687 0.39809 0.0
C726 C 0.76288 0.68888 0.40864 0.0
H727 H 0.71234 0.99066 0.39588 0.0
H728 H 0.73973 0.926 0.39755 0.0
H729 H 0.73611 0.70592 0.41615 0.0
H730 H 0.80893 0.50371 0.39772 0.0
H731 H 0.7817 0.56971 0.39869 0.0
H732 H 0.7857 0.79011 0.38029 0.0
C733 C 0.72754 0.89676 0.39707 0.0
C734 C 0.74679 0.72453 0.40817 0.0
C735 C 0.71175 0.9339 0.39621 0.0
C736 C 0.80968 0.56045 0.39789 0.0
C737 C 0.79399 0.59838 0.39858 0.0
C738 C 0.77508 0.77165 0.38836 0.0
C739 C 0.72761 0.82309 0.3974 0.0
C740 C 0.74463 0.78421 0.39779 0.0
C741 C 0.79413 0.67207 0.3986 0.0
C742 C 0.77723 0.71185 0.39869 0.0
H743 H 0.68321 0.79609 0.39593 0.0
H744 H 0.71094 0.7307 0.39733 0.0
H745 H 0.75775 0.8524 0.37954 0.0
H746 H 0.8386 0.69694 0.39692 0.0
H747 H 0.81108 0.76363 0.39827 0.0
C748 C 0.19732 0.66692 0.13333 0.0
C749 C 0.19711 0.59322 0.13357 0.0
C750 C 0.21334 0.70344 0.13307 0.0
C751 C 0.26113 0.6787 0.14219 0.0
H752 H 0.26617 0.85074 0.11617 0.0
C753 C 0.32841 0.81791 0.13236 0.0
C754 C 0.32834 0.89097 0.13483 0.0
C755 C 0.31254 0.78044 0.13172 0.0
C756 C 0.26494 0.8029 0.12358 0.0
H757 H 0.21358 0.50016 0.13326 0.0
H758 H 0.24122 0.56322 0.13237 0.0
H759 H 0.23809 0.78895 0.11607 0.0
H760 H 0.3115 0.98186 0.13843 0.0
H761 H 0.28407 0.91686 0.13724 0.0
H762 H 0.28806 0.69254 0.14955 0.0
C763 C 0.22914 0.59326 0.13288 0.0
C764 C 0.2488 0.76762 0.12359 0.0
C765 C 0.21322 0.55698 0.13327 0.0
C766 C 0.31209 0.92562 0.13652 0.0
C767 C 0.29631 0.88844 0.13572 0.0
C768 C 0.27729 0.71371 0.14207 0.0
C769 C 0.22948 0.66698 0.13294 0.0
C770 C 0.24664 0.70509 0.13294 0.0
C771 C 0.29631 0.81544 0.13334 0.0
C772 C 0.27937 0.77641 0.13283 0.0
H773 H 0.18514 0.69636 0.13359 0.0
H774 H 0.21306 0.76023 0.13331 0.0
H775 H 0.25993 0.63145 0.14981 0.0
H776 H 0.3407 0.7897 0.13101 0.0
H777 H 0.31296 0.72419 0.12977 0.0
C778 C 0.71364 0.05835 0.12494 0.0
C779 C 0.69744 0.09364 0.12617 0.0
C780 C 0.72944 0.09549 0.12434 0.0
C781 C 0.74864 0.27005 0.11549 0.0
H782 H 0.78779 0.19796 0.14211 0.0
C783 C 0.81137 0.43218 0.12791 0.0
C784 C 0.82776 0.39792 0.12793 0.0
C785 C 0.79573 0.39415 0.12677 0.0
C786 C 0.77709 0.21829 0.1344 0.0
H787 H 0.68518 0.19615 0.12743 0.0
H788 H 0.71293 0.2615 0.1265 0.0
H789 H 0.75986 0.13539 0.14211 0.0
H790 H 0.84051 0.2964 0.12657 0.0
H791 H 0.81308 0.22952 0.12444 0.0
H792 H 0.76587 0.35319 0.10786 0.0
C793 C 0.71332 0.20477 0.12587 0.0
C794 C 0.76104 0.18248 0.13442 0.0
C795 C 0.69742 0.16738 0.12646 0.0
C796 C 0.82812 0.32439 0.1266 0.0
C797 C 0.81239 0.28612 0.12548 0.0
C798 C 0.76471 0.30586 0.11546 0.0
C799 C 0.72954 0.16913 0.12499 0.0
C800 C 0.74658 0.20791 0.12499 0.0
C801 C 0.79599 0.32062 0.1256 0.0
C802 C 0.77913 0.28062 0.12497 0.0
H803 H 0.7142 0.00158 0.12454 0.0
H804 H 0.74161 0.06629 0.12332 0.0
H805 H 0.73789 0.29056 0.10788 0.0
H806 H 0.81053 0.48875 0.12894 0.0
H807 H 0.7834 0.4225 0.12718 0.0
C808 C 0.71415 0.9239 0.63505 0.0
C809 C 0.69789 0.88893 0.63414 0.0
C810 C 0.72993 0.88669 0.6341 0.0
C811 C 0.74924 0.71606 0.64306 0.0
H812 H 0.78746 0.77954 0.61402 0.0
C813 C 0.81328 0.55712 0.63763 0.0
C814 C 0.82933 0.5929 0.63588 0.0
C815 C 0.79731 0.59282 0.63649 0.0
C816 C 0.77705 0.76159 0.6224 0.0
H817 H 0.68546 0.78728 0.63144 0.0
H818 H 0.71324 0.72157 0.63017 0.0
H819 H 0.75933 0.84122 0.61348 0.0
H820 H 0.84119 0.69452 0.63144 0.0
H821 H 0.81322 0.75794 0.63007 0.0
H822 H 0.76696 0.63827 0.65254 0.0
C823 C 0.71365 0.77812 0.6315 0.0
C824 C 0.76088 0.7967 0.62199 0.0
C825 C 0.69777 0.81565 0.63217 0.0
C826 C 0.82903 0.6655 0.63281 0.0
C827 C 0.81296 0.70167 0.63193 0.0
C828 C 0.76547 0.68157 0.64367 0.0
C829 C 0.72988 0.81338 0.63246 0.0
C830 C 0.7468 0.77425 0.6323 0.0
C831 C 0.79685 0.66577 0.63386 0.0
C832 C 0.77962 0.70362 0.63331 0.0
H833 H 0.71473 0.98039 0.63648 0.0
H834 H 0.7422 0.91524 0.63503 0.0
H835 H 0.73873 0.69832 0.65137 0.0
H836 H 0.81299 0.50095 0.63975 0.0
H837 H 0.78529 0.56275 0.63757 0.0
C838 C 0.19906 0.32789 0.62541 0.0
C839 C 0.19858 0.39172 0.63444 0.0
C840 C 0.21498 0.29166 0.62328 0.0
C841 C 0.26331 0.31856 0.62404 0.0
H842 H 0.26533 0.11735 0.63078 0.0
C843 C 0.32918 0.16542 0.63015 0.0
C844 C 0.32981 0.09727 0.6233 0.0
C845 C 0.31331 0.20301 0.63041 0.0
C846 C 0.265 0.17344 0.62859 0.0
H847 H 0.21453 0.46702 0.64842 0.0
H848 H 0.24201 0.40411 0.64477 0.0
H849 H 0.23723 0.17799 0.63309 0.0
H850 H 0.31447 0.01668 0.61055 0.0
H851 H 0.28712 0.08239 0.61061 0.0
H852 H 0.29108 0.31411 0.61955 0.0
C853 C 0.23019 0.3823 0.63914 0.0
C854 C 0.24884 0.20818 0.62994 0.0
C855 C 0.21434 0.41814 0.64134 0.0
C856 C 0.31443 0.06877 0.61612 0.0
C857 C 0.29867 0.10631 0.61627 0.0
C858 C 0.27946 0.28378 0.62263 0.0
C859 C 0.23077 0.31881 0.63003 0.0
C860 C 0.24781 0.28124 0.6278 0.0
C861 C 0.29776 0.17334 0.62373 0.0
C862 C 0.28055 0.21074 0.62495 0.0
H863 H 0.18717 0.30617 0.6199 0.0
H864 H 0.21499 0.243 0.6161 0.0
H865 H 0.26295 0.3748 0.62208 0.0
H866 H 0.34078 0.1887 0.63585 0.0
H867 H 0.3131 0.25433 0.63636 0.0
C868 C 0.69422 0.16946 0.89146 0.0
C869 C 0.6943 0.09736 0.88766 0.0
C870 C 0.71008 0.2069 0.89248 0.0
C871 C 0.7576 0.18435 0.89994 0.0
H872 H 0.76279 0.35638 0.87398 0.0
C873 C 0.82553 0.31806 0.89045 0.0
C874 C 0.82593 0.39159 0.8894 0.0
C875 C 0.8094 0.2823 0.89093 0.0
C876 C 0.76156 0.30911 0.88158 0.0
H877 H 0.71112 0.00793 0.88227 0.0
H878 H 0.73856 0.07279 0.88429 0.0
H879 H 0.73455 0.29628 0.87433 0.0
H880 H 0.80977 0.48536 0.88872 0.0
H881 H 0.78195 0.42391 0.89023 0.0
H882 H 0.78445 0.19739 0.90747 0.0
C883 C 0.72631 0.10049 0.88643 0.0
C884 C 0.74532 0.27463 0.88172 0.0
C885 C 0.71054 0.06348 0.88515 0.0
C886 C 0.80994 0.42857 0.88927 0.0
C887 C 0.79391 0.39314 0.89002 0.0
C888 C 0.77378 0.21933 0.90001 0.0
C889 C 0.72629 0.17261 0.89002 0.0
C890 C 0.7432 0.2116 0.89078 0.0
C891 C 0.79334 0.31943 0.89062 0.0
C892 C 0.77604 0.28207 0.89074 0.0
H893 H 0.68193 0.197 0.89345 0.0
H894 H 0.70969 0.2625 0.89533 0.0
H895 H 0.7563 0.13607 0.90716 0.0
H896 H 0.83764 0.28815 0.89052 0.0
H897 H 0.80955 0.22552 0.89118 0.0
C898 C 0.21145 0.55894 0.8972 0.0
C899 C 0.19505 0.59303 0.89652 0.0
C900 C 0.22706 0.59728 0.89802 0.0
C901 C 0.24576 0.77104 0.88812 0.0
H902 H 0.28465 0.70553 0.91607 0.0
C903 C 0.30905 0.93347 0.89614 0.0
C904 C 0.3253 0.89814 0.89581 0.0
C905 C 0.29326 0.89636 0.89692 0.0
C906 C 0.274 0.7241 0.90805 0.0
H907 H 0.18226 0.6946 0.8964 0.0
H908 H 0.20966 0.76206 0.89793 0.0
H909 H 0.25669 0.64289 0.91669 0.0
H910 H 0.33761 0.79563 0.89626 0.0
H911 H 0.30988 0.7303 0.89749 0.0
H912 H 0.26307 0.85196 0.87939 0.0
C913 C 0.21037 0.70532 0.89766 0.0
C914 C 0.25793 0.68829 0.90842 0.0
C915 C 0.19466 0.66674 0.89689 0.0
C916 C 0.32534 0.82444 0.89652 0.0
C917 C 0.30944 0.78709 0.89729 0.0
C918 C 0.26182 0.80683 0.88774 0.0
C919 C 0.22678 0.67095 0.89818 0.0
C920 C 0.24361 0.71112 0.89841 0.0
C921 C 0.29319 0.8227 0.89735 0.0
C922 C 0.27617 0.78381 0.89768 0.0
H923 H 0.21232 0.50223 0.89693 0.0
H924 H 0.23941 0.56896 0.89812 0.0
H925 H 0.23515 0.78942 0.88001 0.0
H926 H 0.30846 0.99023 0.89575 0.0
H927 H 0.28106 0.92565 0.89728 0.0
C928 C 0.37712 0.94878 0.32778 0.0
C929 C 0.37788 0.0145 0.33593 0.0
C930 C 0.37685 0.94424 0.3098 0.0
C931 C 0.38756 0.04799 0.27067 0.0
H932 H 0.35832 0.91078 0.24763 0.0
C933 C 0.37822 0.04487 0.19661 0.0
C934 C 0.37893 0.97851 0.18877 0.0
C935 C 0.37754 0.05074 0.21456 0.0
C936 C 0.36667 0.94912 0.25387 0.0
H937 H 0.37861 0.12697 0.3315 0.0
H938 H 0.37785 0.11903 0.30049 0.0
H939 H 0.35849 0.91612 0.27889 0.0
H940 H 0.37932 0.86634 0.19371 0.0
H941 H 0.37821 0.87669 0.22469 0.0
H942 H 0.39572 0.08098 0.24563 0.0
C943 C 0.37785 0.07083 0.30784 0.0
C944 C 0.3668 0.952 0.27181 0.0
C945 C 0.37816 0.07534 0.32571 0.0
C946 C 0.37878 0.91841 0.19925 0.0
C947 C 0.37801 0.92424 0.21708 0.0
C948 C 0.38739 0.04523 0.25272 0.0
C949 C 0.37731 0.00533 0.2996 0.0
C950 C 0.37728 0.00141 0.28047 0.0
C951 C 0.37741 0.99036 0.225 0.0
C952 C 0.37699 -0.00443 0.24409 0.0
H953 H 0.37691 0.90093 0.33527 0.0
H954 H 0.37658 0.89282 0.3039 0.0
H955 H 0.39602 0.08602 0.27686 0.0
H956 H 0.37831 0.09216 0.18891 0.0
H957 H 0.37696 0.10251 0.22025 0.0
C958 C 0.6515 0.94918 0.19576 0.0
C959 C 0.65134 0.01493 0.18759 0.0
C960 C 0.65213 0.94471 0.21373 0.0
C961 C 0.64267 0.0501 0.25275 0.0
H962 H 0.67058 0.90889 0.27593 0.0
C963 C 0.65059 0.04579 0.32682 0.0
C964 C 0.64946 0.97958 0.33468 0.0
C965 C 0.65177 0.05142 0.3089 0.0
C966 C 0.6626 0.94835 0.26966 0.0
H967 H 0.65226 0.12743 0.19195 0.0
H968 H 0.65358 0.11952 0.22297 0.0
H969 H 0.67062 0.91421 0.24465 0.0
H970 H 0.64893 0.86739 0.32981 0.0
H971 H 0.65083 0.87729 0.29886 0.0
H972 H 0.63456 0.08399 0.27772 0.0
C973 C 0.65285 0.07136 0.21563 0.0
C974 C 0.6626 0.95127 0.25171 0.0
C975 C 0.6522 0.07581 0.19777 0.0
C976 C 0.64979 0.91934 0.32424 0.0
C977 C 0.65101 0.92493 0.30643 0.0
C978 C 0.64268 0.0472 0.27069 0.0
C979 C 0.65262 0.00589 0.22389 0.0
C980 C 0.65262 0.00214 0.24301 0.0
C981 C 0.65193 0.99095 0.29848 0.0
C982 C 0.65258 -0.00388 0.27939 0.0
H983 H 0.65082 0.90131 0.1883 0.0
H984 H 0.65182 0.89337 0.21967 0.0
H985 H 0.63459 0.0893 0.2465 0.0
H986 H 0.65039 0.0932 0.33447 0.0
H987 H 0.65263 0.10313 0.30321 0.0
C988 C 0.64539 0.94192 0.82685 0.0
C989 C 0.64347 0.00764 0.83482 0.0
C990 C 0.6463 0.93689 0.8089 0.0
C991 C 0.65578 0.04267 0.76992 0.0
H992 H 0.62942 0.89796 0.74634 0.0
C993 C 0.64653 0.0407 0.6958 0.0
C994 C 0.647 0.97494 0.68765 0.0
C995 C 0.64653 0.04524 0.71379 0.0
C996 C 0.63705 0.93826 0.7527 0.0
H997 H 0.64106 0.11957 0.83009 0.0
H998 H 0.64256 0.11064 0.7991 0.0
H999 H 0.6291 0.90246 0.77757 0.0
H1000 H 0.64831 0.86255 0.69207 0.0
H1001 H 0.64861 0.87057 0.72308 0.0
H1002 H 0.66375 0.07844 0.74506 0.0
C1003 C 0.64356 0.06301 0.80662 0.0
C1004 C 0.63687 0.94072 0.77064 0.0
C1005 C 0.64257 0.06798 0.82445 0.0
C1006 C 0.64776 0.91416 0.69786 0.0
C1007 C 0.64782 0.91867 0.71573 0.0
C1008 C 0.656 0.04009 0.75197 0.0
C1009 C 0.64543 -0.00249 0.79858 0.0
C1010 C 0.64618 0.99308 0.77949 0.0
C1011 C 0.64703 0.98412 0.72398 0.0
C1012 C 0.64663 0.98785 0.74311 0.0
H1013 H 0.64614 0.89446 0.83446 0.0
H1014 H 0.64787 0.88562 0.80311 0.0
H1015 H 0.66329 0.08321 0.77632 0.0
H1016 H 0.64591 0.0885 0.68831 0.0
H1017 H 0.64578 0.09656 0.7197 0.0
C1018 C 0.37129 0.91896 0.82493 0.0
C1019 C 0.37199 0.97925 0.83532 0.0
C1020 C 0.37057 0.92447 0.80708 0.0
C1021 C 0.38123 0.04455 0.7715 0.0
H1022 H 0.35272 0.9159 0.74478 0.0
C1023 C 0.37416 0.07322 0.6983 0.0
C1024 C 0.37456 0.01206 0.68819 0.0
C1025 C 0.37303 0.06925 0.71614 0.0
C1026 C 0.36091 0.95169 0.75204 0.0
H1027 H 0.37224 0.09293 0.83502 0.0
H1028 H 0.37088 0.10274 0.8037 0.0
H1029 H 0.35174 0.91125 0.77605 0.0
H1030 H 0.3738 0.89847 0.68902 0.0
H1031 H 0.37196 0.89133 0.72037 0.0
H1032 H 0.3905 0.08468 0.74753 0.0
C1033 C 0.37105 0.05101 0.80945 0.0
C1034 C 0.36032 0.94918 0.76998 0.0
C1035 C 0.37172 0.04548 0.8274 0.0
C1036 C 0.3735 0.94656 0.69642 0.0
C1037 C 0.37238 0.94256 0.71437 0.0
C1038 C 0.38182 0.04704 0.75357 0.0
C1039 C 0.37056 0.99046 0.79907 0.0
C1040 C 0.37053 -0.00459 0.77996 0.0
C1041 C 0.3723 0.00396 0.72446 0.0
C1042 C 0.37169 0.0006 0.74359 0.0
H1043 H 0.37148 0.867 0.83055 0.0
H1044 H 0.37047 0.87672 0.79955 0.0
H1045 H 0.3895 0.08008 0.77874 0.0
H1046 H 0.37481 0.12469 0.69244 0.0
H1047 H 0.37264 0.11763 0.72342 0.0
C1048 C 0.87371 0.41513 0.19913 0.0
C1049 C 0.87373 0.47635 0.18905 0.0
C1050 C 0.87255 0.41895 0.21698 0.0
C1051 C 0.85965 0.53521 0.25286 0.0
H1052 H 0.88912 0.41009 0.27959 0.0
C1053 C 0.87013 0.57021 0.32564 0.0
C1054 C 0.87133 0.51024 0.3361 0.0
C1055 C 0.86929 0.56423 0.30781 0.0
C1056 C 0.8806 0.44466 0.27235 0.0
H1057 H 0.87231 0.58984 0.18991 0.0
H1058 H 0.87043 0.59672 0.22125 0.0
H1059 H 0.89013 0.40534 0.24839 0.0
H1060 H 0.87229 0.39662 0.33594 0.0
H1061 H 0.87073 0.38598 0.30464 0.0
H1062 H 0.85022 0.57487 0.27686 0.0
C1063 C 0.87115 0.54556 0.21524 0.0
C1064 C 0.8812 0.44209 0.25442 0.0
C1065 C 0.8723 0.54171 0.19729 0.0
C1066 C 0.87139 0.44383 0.32826 0.0
C1067 C 0.8706 0.43782 0.31032 0.0
C1068 C 0.85905 0.53779 0.2708 0.0
C1069 C 0.87143 0.48413 0.22531 0.0
C1070 C 0.87077 0.48742 0.24443 0.0
C1071 C 0.86965 0.49809 0.29988 0.0
C1072 C 0.86958 0.49276 0.28078 0.0
H1073 H 0.87465 0.36375 0.19326 0.0
H1074 H 0.87246 0.37054 0.22425 0.0
H1075 H 0.85123 0.5701 0.24559 0.0
H1076 H 0.87005 0.6223 0.33119 0.0
H1077 H 0.86883 0.61179 0.30023 0.0
C1078 C 0.15179 0.41225 0.32567 0.0
C1079 C 0.14981 0.47269 0.33586 0.0
C1080 C 0.1522 0.41685 0.30781 0.0
C1081 C 0.15898 0.53995 0.27164 0.0
H1082 H 0.13356 0.39836 0.24587 0.0
C1083 C 0.1447 0.56906 0.1994 0.0
C1084 C 0.14599 0.50948 0.1888 0.0
C1085 C 0.14594 0.5632 0.2172 0.0
C1086 C 0.14093 0.43774 0.25283 0.0
H1087 H 0.14706 0.5858 0.33516 0.0
H1088 H 0.14762 0.59398 0.30379 0.0
H1089 H 0.13416 0.39274 0.27709 0.0
H1090 H 0.14961 0.39671 0.18874 0.0
H1091 H 0.15181 0.38632 0.22002 0.0
H1092 H 0.16561 0.58525 0.24736 0.0
C1093 C 0.14902 0.5429 0.30972 0.0
C1094 C 0.14127 0.43463 0.27077 0.0
C1095 C 0.14864 0.53828 0.3277 0.0
C1096 C 0.14853 0.44359 0.19652 0.0
C1097 C 0.14972 0.43768 0.21444 0.0
C1098 C 0.15863 0.5431 0.2537 0.0
C1099 C 0.15059 0.48203 0.29955 0.0
C1100 C 0.15027 0.48576 0.28042 0.0
C1101 C 0.14848 0.49756 0.22499 0.0
C1102 C 0.14953 0.49222 0.24406 0.0
H1103 H 0.1529 0.36083 0.33149 0.0
H1104 H 0.15382 0.36906 0.30046 0.0
H1105 H 0.16627 0.57954 0.27861 0.0
H1106 H 0.14269 0.62074 0.19396 0.0
H1107 H 0.14461 0.61025 0.22488 0.0
C1108 C 0.15111 0.5698 0.82541 0.0
C1109 C 0.1495 0.50947 0.83569 0.0
C1110 C 0.15182 0.56462 0.80756 0.0
C1111 C 0.13938 0.44856 0.7718 0.0
H1112 H 0.17018 0.56932 0.74532 0.0
C1113 C 0.14686 0.41746 0.69869 0.0
C1114 C 0.14796 0.4783 0.68853 0.0
C1115 C 0.14757 0.42152 0.71655 0.0
C1116 C 0.16134 0.53584 0.7525 0.0
H1117 H 0.14765 0.39604 0.83519 0.0
H1118 H 0.14896 0.38682 0.80386 0.0
H1119 H 0.17106 0.57344 0.77659 0.0
H1120 H 0.15081 0.59136 0.68928 0.0
H1121 H 0.15186 0.59871 0.72065 0.0
H1122 H 0.12954 0.41134 0.74776 0.0
C1123 C 0.14952 0.43832 0.8097 0.0
C1124 C 0.16188 0.53802 0.77045 0.0
C1125 C 0.14889 0.44351 0.82765 0.0
C1126 C 0.14993 0.54352 0.69672 0.0
C1127 C 0.15062 0.54762 0.7147 0.0
C1128 C 0.13881 0.44647 0.75387 0.0
C1129 C 0.1509 0.49895 0.79944 0.0
C1130 C 0.15088 0.4945 0.78033 0.0
C1131 C 0.14935 0.48658 0.72484 0.0
C1132 C 0.14979 0.49004 0.74396 0.0
H1133 H 0.15164 0.62155 0.83113 0.0
H1134 H 0.15265 0.61245 0.80011 0.0
H1135 H 0.13049 0.41527 0.77897 0.0
H1136 H 0.14546 0.36617 0.69287 0.0
H1137 H 0.14689 0.3733 0.72387 0.0
C1138 C 0.88273 0.56684 0.69947 0.0
C1139 C 0.88101 0.50676 0.68911 0.0
C1140 C 0.88179 0.56205 0.71732 0.0
C1141 C 0.88695 0.43839 0.75328 0.0
H1142 H 0.86192 0.58149 0.77893 0.0
C1143 C 0.87568 0.41338 0.82601 0.0
C1144 C 0.87724 0.47378 0.83628 0.0
C1145 C 0.87567 0.41815 0.80815 0.0
C1146 C 0.86915 0.5416 0.77199 0.0
H1147 H 0.87694 0.39425 0.68949 0.0
H1148 H 0.87527 0.38576 0.72083 0.0
H1149 H 0.86246 0.58641 0.74766 0.0
H1150 H 0.87978 0.58695 0.83572 0.0
H1151 H 0.88002 0.59542 0.80434 0.0
H1152 H 0.89379 0.39389 0.77756 0.0
C1153 C 0.87746 0.43665 0.71504 0.0
C1154 C 0.86943 0.54427 0.75405 0.0
C1155 C 0.87834 0.44149 0.69709 0.0
C1156 C 0.87854 0.53946 0.82819 0.0
C1157 C 0.8786 0.54424 0.8102 0.0
C1158 C 0.88672 0.43583 0.77122 0.0
C1159 C 0.87913 0.49702 0.72536 0.0
C1160 C 0.87835 0.49275 0.74445 0.0
C1161 C 0.87732 0.48344 0.79996 0.0
C1162 C 0.87779 0.48732 0.78083 0.0
H1163 H 0.88484 0.61806 0.69383 0.0
H1164 H 0.88342 0.60942 0.72483 0.0
H1165 H 0.8942 0.39856 0.74633 0.0
H1166 H 0.87446 0.36187 0.83176 0.0
H1167 H 0.87425 0.37037 0.80076 0.0
loop_
_geom_bond_atom_site_label_1
_geom_bond_atom_site_label_2
_geom_bond_distance
_geom_bond_site_symmetry_2
_ccdc_geom_bond_type
Mg0 O7 2.141 . S
Mg0 O8 2.048 . S
Mg0 O9 2.048 . S
Mg0 O12 2.141 . S
C1 O2 1.313 . S
C1 O8 1.195 . S
O2 C1 1.313 . S
C3 O4 1.245 . S
C3 O12 1.289 . S
O4 C3 1.245 . S
C5 O6 1.245 . S
C5 O7 1.289 . S
O6 C5 1.245 . S
O7 Mg0 2.141 . S
O7 C5 1.289 . S
O8 Mg0 2.048 . S
O8 C1 1.195 . S
O9 Mg0 2.048 . S
O9 C10 1.195 . S
C10 O9 1.195 . S
C10 O11 1.313 . S
O11 C10 1.313 . S
O12 Mg0 2.141 . S
O12 C3 1.289 . S
Mg13 O20 2.141 . S
Mg13 O21 2.048 . S
Mg13 O22 2.048 . S
Mg13 O25 2.141 . S
C14 O15 1.313 . S
C14 O21 1.195 . S
O15 C14 1.313 . S
C16 O17 1.245 . S
C16 O25 1.289 . S
O17 C16 1.245 . S
C18 O19 1.245 . S
C18 O20 1.289 . S
O19 C18 1.245 . S
O20 Mg13 2.141 . S
O20 C18 1.289 . S
O21 Mg13 2.048 . S
O21 C14 1.195 . S
O22 Mg13 2.048 . S
O22 C23 1.195 . S
C23 O22 1.195 . S
C23 O24 1.313 . S
O24 C23 1.313 . S
O25 Mg13 2.141 . S
O25 C16 1.289 . S
Mg26 O33 2.141 . S
Mg26 O34 2.048 . S
Mg26 O35 2.048 . S
Mg26 O38 2.141 . S
C27 O28 1.313 . S
C27 O34 1.195 . S
O28 C27 1.313 . S
C29 O30 1.245 . S
C29 O38 1.289 . S
O30 C29 1.245 . S
C31 O32 1.245 . S
C31 O33 1.289 . S
O32 C31 1.245 . S
O33 Mg26 2.141 . S
O33 C31 1.289 . S
O34 Mg26 2.048 . S
O34 C27 1.195 . S
O35 Mg26 2.048 . S
O35 C36 1.195 . S
C36 O35 1.195 . S
C36 O37 1.313 . S
O37 C36 1.313 . S
O38 Mg26 2.141 . S
O38 C29 1.289 . S
Mg39 O46 2.141 . S
Mg39 O47 2.048 . S
Mg39 O48 2.048 . S
Mg39 O51 2.141 . S
C40 O41 1.313 . S
C40 O47 1.195 . S
O41 C40 1.313 . S
C42 O43 1.245 . S
C42 O51 1.289 . S
O43 C42 1.245 . S
C44 O45 1.245 . S
C44 O46 1.289 . S
O45 C44 1.245 . S
O46 Mg39 2.141 . S
O46 C44 1.289 . S
O47 Mg39 2.048 . S
O47 C40 1.195 . S
O48 Mg39 2.048 . S
O48 C49 1.195 . S
C49 O48 1.195 . S
C49 O50 1.313 . S
O50 C49 1.313 . S
O51 Mg39 2.141 . S
O51 C42 1.289 . S
Mg52 O59 2.141 . S
Mg52 O60 2.048 . S
Mg52 O61 2.048 . S
Mg52 O64 2.141 . S
C53 O54 1.313 . S
C53 O60 1.195 . S
O54 C53 1.313 . S
C55 O56 1.245 . S
C55 O64 1.289 . S
O56 C55 1.245 . S
C57 O58 1.245 . S
C57 O59 1.289 . S
O58 C57 1.245 . S
O59 Mg52 2.141 . S
O59 C57 1.289 . S
O60 Mg52 2.048 . S
O60 C53 1.195 . S
O61 Mg52 2.048 . S
O61 C62 1.195 . S
C62 O61 1.195 . S
C62 O63 1.313 1_565 S
O63 C62 1.313 1_545 S
O64 Mg52 2.141 . S
O64 C55 1.289 . S
Mg65 O72 2.141 . S
Mg65 O73 2.048 . S
Mg65 O74 2.048 . S
Mg65 O77 2.141 . S
C66 O67 1.313 . S
C66 O73 1.195 . S
O67 C66 1.313 . S
C68 O69 1.245 . S
C68 O77 1.289 . S
O69 C68 1.245 . S
C70 O71 1.245 . S
C70 O72 1.289 . S
O71 C70 1.245 . S
O72 Mg65 2.141 . S
O72 C70 1.289 . S
O73 Mg65 2.048 . S
O73 C66 1.195 . S
O74 Mg65 2.048 . S
O74 C75 1.195 . S
C75 O74 1.195 . S
C75 O76 1.313 1_545 S
O76 C75 1.313 1_565 S
O77 Mg65 2.141 . S
O77 C68 1.289 . S
Mg78 O85 2.141 . S
Mg78 O86 2.048 . S
Mg78 O87 2.048 . S
Mg78 O90 2.141 . S
C79 O80 1.313 . S
C79 O86 1.195 . S
O80 C79 1.313 . S
C81 O82 1.245 . S
C81 O90 1.289 . S
O82 C81 1.245 . S
C83 O84 1.245 . S
C83 O85 1.289 . S
O84 C83 1.245 . S
O85 Mg78 2.141 . S
O85 C83 1.289 . S
O86 Mg78 2.048 . S
O86 C79 1.195 . S
O87 Mg78 2.048 . S
O87 C88 1.195 . S
C88 O87 1.195 . S
C88 O89 1.313 1_545 S
O89 C88 1.313 1_565 S
O90 Mg78 2.141 . S
O90 C81 1.289 . S
Mg91 O98 2.141 . S
Mg91 O99 2.048 . S
Mg91 O100 2.048 . S
Mg91 O103 2.141 . S
C92 O93 1.313 . S
C92 O99 1.195 . S
O93 C92 1.313 . S
C94 O95 1.245 . S
C94 O103 1.289 . S
O95 C94 1.245 . S
C96 O97 1.245 . S
C96 O98 1.289 . S
O97 C96 1.245 . S
O98 Mg91 2.141 . S
O98 C96 1.289 . S
O99 Mg91 2.048 . S
O99 C92 1.195 . S
O100 Mg91 2.048 . S
O100 C101 1.195 . S
C101 O100 1.195 . S
C101 O102 1.313 1_565 S
O102 C101 1.313 1_545 S
O103 Mg91 2.141 . S
O103 C94 1.289 . S
Mg104 O111 2.141 . S
Mg104 O112 2.048 . S
Mg104 O113 2.048 . S
Mg104 O116 2.141 . S
C105 O106 1.313 . S
C105 O112 1.195 . S
O106 C105 1.313 . S
C107 O108 1.245 . S
C107 O116 1.289 . S
O108 C107 1.245 . S
C109 O110 1.245 . S
C109 O111 1.289 . S
O110 C109 1.245 . S
O111 Mg104 2.141 . S
O111 C109 1.289 . S
O112 Mg104 2.048 . S
O112 C105 1.195 . S
O113 Mg104 2.048 . S
O113 C114 1.195 . S
C114 O113 1.195 . S
C114 O115 1.313 . S
O115 C114 1.313 . S
O116 Mg104 2.141 . S
O116 C107 1.289 . S
Mg117 O124 2.141 . S
Mg117 O125 2.048 . S
Mg117 O126 2.048 . S
Mg117 O129 2.141 . S
C118 O119 1.313 . S
C118 O125 1.195 . S
O119 C118 1.313 . S
C120 O121 1.245 . S
C120 O129 1.289 . S
O121 C120 1.245 . S
C122 O123 1.245 . S
C122 O124 1.289 . S
O123 C122 1.245 . S
O124 Mg117 2.141 . S
O124 C122 1.289 . S
O125 Mg117 2.048 . S
O125 C118 1.195 . S
O126 Mg117 2.048 . S
O126 C127 1.195 . S
C127 O126 1.195 . S
C127 O128 1.313 . S
O128 C127 1.313 . S
O129 Mg117 2.141 . S
O129 C120 1.289 . S
Mg130 O137 2.141 . S
Mg130 O138 2.048 . S
Mg130 O139 2.048 . S
Mg130 O142 2.141 . S
C131 O132 1.313 . S
C131 O138 1.195 . S
O132 C131 1.313 . S
C133 O134 1.245 . S
C133 O142 1.289 . S
O134 C133 1.245 . S
C135 O136 1.245 . S
C135 O137 1.289 . S
O136 C135 1.245 . S
O137 Mg130 2.141 . S
O137 C135 1.289 . S
O138 Mg130 2.048 . S
O138 C131 1.195 . S
O139 Mg130 2.048 . S
O139 C140 1.195 . S
C140 O139 1.195 . S
C140 O141 1.313 . S
O141 C140 1.313 . S
O142 Mg130 2.141 . S
O142 C133 1.289 . S
Mg143 O150 2.141 . S
Mg143 O151 2.048 . S
Mg143 O152 2.048 . S
Mg143 O155 2.141 . S
C144 O145 1.313 . S
C144 O151 1.195 . S
O145 C144 1.313 . S
C146 O147 1.245 . S
C146 O155 1.289 . S
O147 C146 1.245 . S
C148 O149 1.245 . S
C148 O150 1.289 . S
O149 C148 1.245 . S
O150 Mg143 2.141 . S
O150 C148 1.289 . S
O151 Mg143 2.048 . S
O151 C144 1.195 . S
O152 Mg143 2.048 . S
O152 C153 1.195 . S
C153 O152 1.195 . S
C153 O154 1.313 . S
O154 C153 1.313 . S
O155 Mg143 2.141 . S
O155 C146 1.289 . S
Mg156 O163 2.141 . S
Mg156 O164 2.048 . S
Mg156 O165 2.048 . S
Mg156 O168 2.141 . S
C157 O158 1.313 . S
C157 O164 1.195 . S
O158 C157 1.313 . S
C159 O160 1.245 . S
C159 O168 1.289 . S
O160 C159 1.245 . S
C161 O162 1.245 . S
C161 O163 1.289 . S
O162 C161 1.245 . S
O163 Mg156 2.141 . S
O163 C161 1.289 . S
O164 Mg156 2.048 . S
O164 C157 1.195 . S
O165 Mg156 2.048 . S
O165 C166 1.195 . S
C166 O165 1.195 . S
C166 O167 1.313 . S
O167 C166 1.313 . S
O168 Mg156 2.141 . S
O168 C159 1.289 . S
Mg169 O176 2.141 . S
Mg169 O177 2.048 . S
Mg169 O178 2.048 . S
Mg169 O181 2.141 . S
C170 O171 1.313 . S
C170 O177 1.195 . S
O171 C170 1.313 . S
C172 O173 1.245 . S
C172 O181 1.289 . S
O173 C172 1.245 . S
C174 O175 1.245 . S
C174 O176 1.289 . S
O175 C174 1.245 . S
O176 Mg169 2.141 . S
O176 C174 1.289 . S
O177 Mg169 2.048 . S
O177 C170 1.195 . S
O178 Mg169 2.048 . S
O178 C179 1.195 . S
C179 O178 1.195 . S
C179 O180 1.313 . S
O180 C179 1.313 . S
O181 Mg169 2.141 . S
O181 C172 1.289 . S
Mg182 O189 2.141 . S
Mg182 O190 2.048 . S
Mg182 O191 2.048 . S
Mg182 O194 2.141 . S
C183 O184 1.313 . S
C183 O190 1.195 . S
O184 C183 1.313 . S
C185 O186 1.245 . S
C185 O194 1.289 . S
O186 C185 1.245 . S
C187 O188 1.245 . S
C187 O189 1.289 . S
O188 C187 1.245 . S
O189 Mg182 2.141 . S
O189 C187 1.289 . S
O190 Mg182 2.048 . S
O190 C183 1.195 . S
O191 Mg182 2.048 . S
O191 C192 1.195 . S
C192 O191 1.195 . S
C192 O193 1.313 . S
O193 C192 1.313 . S
O194 Mg182 2.141 . S
O194 C185 1.289 . S
Mg195 O202 2.141 . S
Mg195 O203 2.048 . S
Mg195 O204 2.048 . S
Mg195 O207 2.141 . S
C196 O197 1.313 . S
C196 O203 1.195 . S
O197 C196 1.313 . S
C198 O199 1.245 . S
C198 O207 1.289 . S
O199 C198 1.245 . S
C200 O201 1.245 . S
C200 O202 1.289 . S
O201 C200 1.245 . S
O202 Mg195 2.141 . S
O202 C200 1.289 . S
O203 Mg195 2.048 . S
O203 C196 1.195 . S
O204 Mg195 2.048 . S
O204 C205 1.195 . S
C205 O204 1.195 . S
C205 O206 1.313 . S
O206 C205 1.313 . S
O207 Mg195 2.141 . S
O207 C198 1.289 . S
C208 C209 1.349 . S
C208 C210 1.327 . S
C208 H233 0.950 . S
C209 C208 1.349 . S
C209 C225 1.349 . S
C210 C208 1.327 . S
C210 C229 1.429 . S
C210 H234 0.950 . S
C211 C228 1.574 . S
C211 C230 1.368 . S
C211 H235 0.949 . S
H212 C216 0.949 . S
C213 C214 1.349 . S
C213 C215 1.327 . S
C213 H236 0.950 . S
C214 C213 1.349 . S
C214 C226 1.349 . S
C215 C213 1.327 . S
C215 C231 1.429 . S
C215 H237 0.950 . S
C216 H212 0.949 . S
C216 C224 1.574 . S
C216 C232 1.368 . S
H217 C225 0.950 . S
H218 C223 0.950 . S
H219 C224 0.949 . S
H220 C226 0.950 . S
H221 C227 0.950 . S
H222 C228 0.949 . S
C223 H218 0.950 . S
C223 C225 1.327 . S
C223 C229 1.429 . S
C224 C216 1.574 . S
C224 H219 0.949 . S
C224 C230 1.368 . S
C225 C209 1.349 . S
C225 H217 0.950 . S
C225 C223 1.327 . S
C226 C214 1.349 . S
C226 H220 0.950 . S
C226 C227 1.327 . S
C227 H221 0.950 . S
C227 C226 1.327 . S
C227 C231 1.429 . S
C228 C211 1.574 . S
C228 H222 0.949 . S
C228 C232 1.368 . S
C229 C210 1.429 . S
C229 C223 1.429 . S
C229 C230 1.523 . S
C230 C211 1.368 . S
C230 C224 1.368 . S
C230 C229 1.523 . S
C231 C215 1.429 . S
C231 C227 1.429 . S
C231 C232 1.523 . S
C232 C216 1.368 . S
C232 C228 1.368 . S
C232 C231 1.523 . S
H233 C208 0.950 . S
H234 C210 0.950 . S
H235 C211 0.949 . S
H236 C213 0.950 . S
H237 C215 0.950 . S
C238 C239 1.349 . S
C238 C240 1.327 . S
C238 H263 0.950 . S
C239 C238 1.349 . S
C239 C255 1.349 . S
C240 C238 1.327 . S
C240 C259 1.429 . S
C240 H264 0.950 . S
C241 C258 1.574 . S
C241 C260 1.368 . S
C241 H265 0.949 . S
H242 C246 0.949 . S
C243 C244 1.349 . S
C243 C245 1.327 . S
C243 H266 0.950 . S
C244 C243 1.349 . S
C244 C256 1.349 . S
C245 C243 1.327 . S
C245 C261 1.429 . S
C245 H267 0.950 . S
C246 H242 0.949 . S
C246 C254 1.574 . S
C246 C262 1.368 . S
H247 C255 0.950 . S
H248 C253 0.950 . S
H249 C254 0.949 . S
H250 C256 0.950 . S
H251 C257 0.950 . S
H252 C258 0.949 . S
C253 H248 0.950 . S
C253 C255 1.327 . S
C253 C259 1.429 . S
C254 C246 1.574 . S
C254 H249 0.949 . S
C254 C260 1.368 . S
C255 C239 1.349 . S
C255 H247 0.950 . S
C255 C253 1.327 . S
C256 C244 1.349 . S
C256 H250 0.950 . S
C256 C257 1.327 . S
C257 H251 0.950 . S
C257 C256 1.327 . S
C257 C261 1.429 . S
C258 C241 1.574 . S
C258 H252 0.949 . S
C258 C262 1.368 . S
C259 C240 1.429 . S
C259 C253 1.429 . S
C259 C260 1.523 . S
C260 C241 1.368 . S
C260 C254 1.368 . S
C260 C259 1.523 . S
C261 C245 1.429 . S
C261 C257 1.429 . S
C261 C262 1.523 . S
C262 C246 1.368 . S
C262 C258 1.368 . S
C262 C261 1.523 . S
H263 C238 0.950 . S
H264 C240 0.950 . S
H265 C241 0.949 . S
H266 C243 0.950 . S
H267 C245 0.950 . S
C268 C269 1.349 . S
C268 C270 1.327 . S
C268 H293 0.950 . S
C269 C268 1.349 . S
C269 C285 1.349 . S
C270 C268 1.327 . S
C270 C289 1.429 . S
C270 H294 0.950 . S
C271 C288 1.574 1_554 S
C271 C290 1.368 . S
C271 H295 0.949 . S
H272 C276 0.949 . S
C273 C274 1.349 . S
C273 C275 1.327 . S
C273 H296 0.950 . S
C274 C273 1.349 . S
C274 C286 1.349 . S
C275 C273 1.327 . S
C275 C291 1.429 . S
C275 H297 0.950 . S
C276 H272 0.949 . S
C276 C284 1.574 1_556 S
C276 C292 1.368 . S
H277 C285 0.950 . S
H278 C283 0.950 . S
H279 C284 0.949 . S
H280 C286 0.950 . S
H281 C287 0.950 . S
H282 C288 0.949 . S
C283 H278 0.950 . S
C283 C285 1.327 . S
C283 C289 1.429 . S
C284 C276 1.574 1_554 S
C284 H279 0.949 . S
C284 C290 1.368 . S
C285 C269 1.349 . S
C285 H277 0.950 . S
C285 C283 1.327 . S
C286 C274 1.349 . S
C286 H280 0.950 . S
C286 C287 1.327 . S
C287 H281 0.950 . S
C287 C286 1.327 . S
C287 C291 1.429 . S
C288 C271 1.574 1_556 S
C288 H282 0.949 . S
C288 C292 1.368 . S
C289 C270 1.429 . S
C289 C283 1.429 . S
C289 C290 1.523 . S
C290 C271 1.368 . S
C290 C284 1.368 . S
C290 C289 1.523 . S
C291 C275 1.429 . S
C291 C287 1.429 . S
C291 C292 1.523 . S
C292 C276 1.368 . S
C292 C288 1.368 . S
C292 C291 1.523 . S
H293 C268 0.950 . S
H294 C270 0.950 . S
H295 C271 0.949 . S
H296 C273 0.950 . S
H297 C275 0.950 . S
C298 C299 1.349 . S
C298 C300 1.327 . S
C298 H323 0.950 . S
C299 C298 1.349 . S
C299 C315 1.349 . S
C300 C298 1.327 . S
C300 C319 1.429 . S
C300 H324 0.950 . S
C301 C318 1.574 1_556 S
C301 C320 1.368 . S
C301 H325 0.949 . S
H302 C306 0.949 . S
C303 C304 1.349 . S
C303 C305 1.327 . S
C303 H326 0.950 . S
C304 C303 1.349 . S
C304 C316 1.349 . S
C305 C303 1.327 . S
C305 C321 1.429 . S
C305 H327 0.950 . S
C306 H302 0.949 . S
C306 C314 1.574 1_554 S
C306 C322 1.368 . S
H307 C315 0.950 . S
H308 C313 0.950 . S
H309 C314 0.949 . S
H310 C316 0.950 . S
H311 C317 0.950 . S
H312 C318 0.949 . S
C313 H308 0.950 . S
C313 C315 1.327 . S
C313 C319 1.429 . S
C314 C306 1.574 1_556 S
C314 H309 0.949 . S
C314 C320 1.368 . S
C315 C299 1.349 . S
C315 H307 0.950 . S
C315 C313 1.327 . S
C316 C304 1.349 . S
C316 H310 0.950 . S
C316 C317 1.327 . S
C317 H311 0.950 . S
C317 C316 1.327 . S
C317 C321 1.429 . S
C318 C301 1.574 1_554 S
C318 H312 0.949 . S
C318 C322 1.368 . S
C319 C300 1.429 . S
C319 C313 1.429 . S
C319 C320 1.523 . S
C320 C301 1.368 . S
C320 C314 1.368 . S
C320 C319 1.523 . S
C321 C305 1.429 . S
C321 C317 1.429 . S
C321 C322 1.523 . S
C322 C306 1.368 . S
C322 C318 1.368 . S
C322 C321 1.523 . S
H323 C298 0.950 . S
H324 C300 0.950 . S
H325 C301 0.949 . S
H326 C303 0.950 . S
H327 C305 0.950 . S
C328 C329 1.349 . S
C328 C330 1.327 . S
C328 H353 0.950 . S
C329 C328 1.349 . S
C329 C345 1.349 . S
C330 C328 1.327 . S
C330 C349 1.429 . S
C330 H354 0.950 . S
C331 C348 1.574 . S
C331 C350 1.368 . S
C331 H355 0.949 . S
H332 C336 0.949 . S
C333 C334 1.349 . S
C333 C335 1.327 . S
C333 H356 0.950 . S
C334 C333 1.349 . S
C334 C346 1.349 . S
C335 C333 1.327 . S
C335 C351 1.429 . S
C335 H357 0.950 . S
C336 H332 0.949 . S
C336 C344 1.574 . S
C336 C352 1.368 . S
H337 C345 0.950 . S
H338 C343 0.950 . S
H339 C344 0.949 . S
H340 C346 0.950 . S
H341 C347 0.950 . S
H342 C348 0.949 . S
C343 H338 0.950 . S
C343 C345 1.327 . S
C343 C349 1.429 . S
C344 C336 1.574 . S
C344 H339 0.949 . S
C344 C350 1.368 . S
C345 C329 1.349 . S
C345 H337 0.950 . S
C345 C343 1.327 . S
C346 C334 1.349 . S
C346 H340 0.950 . S
C346 C347 1.327 . S
C347 H341 0.950 . S
C347 C346 1.327 . S
C347 C351 1.429 . S
C348 C331 1.574 . S
C348 H342 0.949 . S
C348 C352 1.368 . S
C349 C330 1.429 . S
C349 C343 1.429 . S
C349 C350 1.523 . S
C350 C331 1.368 . S
C350 C344 1.368 . S
C350 C349 1.523 . S
C351 C335 1.429 . S
C351 C347 1.429 . S
C351 C352 1.523 . S
C352 C336 1.368 . S
C352 C348 1.368 . S
C352 C351 1.523 . S
H353 C328 0.950 . S
H354 C330 0.950 . S
H355 C331 0.949 . S
H356 C333 0.950 . S
H357 C335 0.950 . S
C358 C359 1.349 . S
C358 C360 1.327 . S
C358 H383 0.950 . S
C359 C358 1.349 . S
C359 C375 1.349 . S
C360 C358 1.327 . S
C360 C379 1.429 . S
C360 H384 0.950 . S
C361 C378 1.574 . S
C361 C380 1.368 . S
C361 H385 0.949 . S
H362 C366 0.949 . S
C363 C364 1.349 . S
C363 C365 1.327 . S
C363 H386 0.950 . S
C364 C363 1.349 . S
C364 C376 1.349 . S
C365 C363 1.327 . S
C365 C381 1.429 . S
C365 H387 0.950 . S
C366 H362 0.949 . S
C366 C374 1.574 . S
C366 C382 1.368 . S
H367 C375 0.950 . S
H368 C373 0.950 . S
H369 C374 0.949 . S
H370 C376 0.950 . S
H371 C377 0.950 . S
H372 C378 0.949 . S
C373 H368 0.950 . S
C373 C375 1.327 . S
C373 C379 1.429 . S
C374 C366 1.574 . S
C374 H369 0.949 . S
C374 C380 1.368 . S
C375 C359 1.349 . S
C375 H367 0.950 . S
C375 C373 1.327 . S
C376 C364 1.349 . S
C376 H370 0.950 . S
C376 C377 1.327 . S
C377 H371 0.950 . S
C377 C376 1.327 . S
C377 C381 1.429 . S
C378 C361 1.574 . S
C378 H372 0.949 . S
C378 C382 1.368 . S
C379 C360 1.429 . S
C379 C373 1.429 . S
C379 C380 1.523 . S
C380 C361 1.368 . S
C380 C374 1.368 . S
C380 C379 1.523 . S
C381 C365 1.429 . S
C381 C377 1.429 . S
C381 C382 1.523 . S
C382 C366 1.368 . S
C382 C378 1.368 . S
C382 C381 1.523 . S
H383 C358 0.950 . S
H384 C360 0.950 . S
H385 C361 0.949 . S
H386 C363 0.950 . S
H387 C365 0.950 . S
C388 C389 1.349 . S
C388 C390 1.327 . S
C388 H413 0.950 . S
C389 C388 1.349 . S
C389 C405 1.349 . S
C390 C388 1.327 . S
C390 C409 1.429 . S
C390 H414 0.950 . S
C391 C408 1.574 1_556 S
C391 C410 1.368 . S
C391 H415 0.949 . S
H392 C396 0.949 . S
C393 C394 1.349 . S
C393 C395 1.327 . S
C393 H416 0.950 . S
C394 C393 1.349 . S
C394 C406 1.349 . S
C395 C393 1.327 . S
C395 C411 1.429 . S
C395 H417 0.950 . S
C396 H392 0.949 . S
C396 C404 1.574 1_554 S
C396 C412 1.368 . S
H397 C405 0.950 . S
H398 C403 0.950 . S
H399 C404 0.949 . S
H400 C406 0.950 . S
H401 C407 0.950 . S
H402 C408 0.949 . S
C403 H398 0.950 . S
C403 C405 1.327 . S
C403 C409 1.429 . S
C404 C396 1.574 1_556 S
C404 H399 0.949 . S
C404 C410 1.368 . S
C405 C389 1.349 . S
C405 H397 0.950 . S
C405 C403 1.327 . S
C406 C394 1.349 . S
C406 H400 0.950 . S
C406 C407 1.327 . S
C407 H401 0.950 . S
C407 C406 1.327 . S
C407 C411 1.429 . S
C408 C391 1.574 1_554 S
C408 H402 0.949 . S
C408 C412 1.368 . S
C409 C390 1.429 . S
C409 C403 1.429 . S
C409 C410 1.523 . S
C410 C391 1.368 . S
C410 C404 1.368 . S
C410 C409 1.523 . S
C411 C395 1.429 . S
C411 C407 1.429 . S
C411 C412 1.523 . S
C412 C396 1.368 . S
C412 C408 1.368 . S
C412 C411 1.523 . S
H413 C388 0.950 . S
H414 C390 0.950 . S
H415 C391 0.949 . S
H416 C393 0.950 . S
H417 C395 0.950 . S
C418 C419 1.349 . S
C418 C420 1.327 . S
C418 H443 0.950 . S
C419 C418 1.349 . S
C419 C435 1.349 . S
C420 C418 1.327 . S
C420 C439 1.429 . S
C420 H444 0.950 . S
C421 C438 1.574 1_554 S
C421 C440 1.368 . S
C421 H445 0.949 . S
H422 C426 0.949 . S
C423 C424 1.349 . S
C423 C425 1.327 . S
C423 H446 0.950 . S
C424 C423 1.349 . S
C424 C436 1.349 . S
C425 C423 1.327 . S
C425 C441 1.429 . S
C425 H447 0.950 . S
C426 H422 0.949 . S
C426 C434 1.574 1_556 S
C426 C442 1.368 . S
H427 C435 0.950 . S
H428 C433 0.950 . S
H429 C434 0.949 . S
H430 C436 0.950 . S
H431 C437 0.950 . S
H432 C438 0.949 . S
C433 H428 0.950 . S
C433 C435 1.327 . S
C433 C439 1.429 . S
C434 C426 1.574 1_554 S
C434 H429 0.949 . S
C434 C440 1.368 . S
C435 C419 1.349 . S
C435 H427 0.950 . S
C435 C433 1.327 . S
C436 C424 1.349 . S
C436 H430 0.950 . S
C436 C437 1.327 . S
C437 H431 0.950 . S
C437 C436 1.327 . S
C437 C441 1.429 . S
C438 C421 1.574 1_556 S
C438 H432 0.949 . S
C438 C442 1.368 . S
C439 C420 1.429 . S
C439 C433 1.429 . S
C439 C440 1.523 . S
C440 C421 1.368 . S
C440 C434 1.368 . S
C440 C439 1.523 . S
C441 C425 1.429 . S
C441 C437 1.429 . S
C441 C442 1.523 . S
C442 C426 1.368 . S
C442 C438 1.368 . S
C442 C441 1.523 . S
H443 C418 0.950 . S
H444 C420 0.950 . S
H445 C421 0.949 . S
H446 C423 0.950 . S
H447 C425 0.950 . S
C448 C449 1.349 1_545 S
C448 C450 1.327 . S
C448 H473 0.950 . S
C449 C448 1.349 1_565 S
C449 C465 1.349 . S
C450 C448 1.327 . S
C450 C469 1.429 1_545 S
C450 H474 0.950 . S
C451 C468 1.574 . S
C451 C470 1.368 . S
C451 H475 0.949 . S
H452 C456 0.949 . S
C453 C454 1.349 1_565 S
C453 C455 1.327 . S
C453 H476 0.950 . S
C454 C453 1.349 1_545 S
C454 C466 1.349 . S
C455 C453 1.327 . S
C455 C471 1.429 1_565 S
C455 H477 0.950 . S
C456 H452 0.949 . S
C456 C464 1.574 . S
C456 C472 1.368 . S
H457 C465 0.950 . S
H458 C463 0.950 . S
H459 C464 0.949 . S
H460 C466 0.950 . S
H461 C467 0.950 . S
H462 C468 0.949 . S
C463 H458 0.950 . S
C463 C465 1.327 . S
C463 C469 1.429 . S
C464 C456 1.574 . S
C464 H459 0.949 . S
C464 C470 1.368 1_545 S
C465 C449 1.349 . S
C465 H457 0.950 . S
C465 C463 1.327 . S
C466 C454 1.349 . S
C466 H460 0.950 . S
C466 C467 1.327 . S
C467 H461 0.950 . S
C467 C466 1.327 . S
C467 C471 1.429 . S
C468 C451 1.574 . S
C468 H462 0.949 . S
C468 C472 1.368 1_565 S
C469 C450 1.429 1_565 S
C469 C463 1.429 . S
C469 C470 1.523 . S
C470 C451 1.368 . S
C470 C464 1.368 1_565 S
C470 C469 1.523 . S
C471 C455 1.429 1_545 S
C471 C467 1.429 . S
C471 C472 1.523 . S
C472 C456 1.368 . S
C472 C468 1.368 1_545 S
C472 C471 1.523 . S
H473 C448 0.950 . S
H474 C450 0.950 . S
H475 C451 0.949 . S
H476 C453 0.950 . S
H477 C455 0.950 . S
C478 C479 1.349 . S
C478 C480 1.327 . S
C478 H503 0.950 . S
C479 C478 1.349 . S
C479 C495 1.349 1_565 S
C480 C478 1.327 . S
C480 C499 1.429 . S
C480 H504 0.950 . S
C481 C498 1.574 . S
C481 C500 1.368 1_545 S
C481 H505 0.949 . S
H482 C486 0.949 . S
C483 C484 1.349 . S
C483 C485 1.327 . S
C483 H506 0.950 . S
C484 C483 1.349 . S
C484 C496 1.349 1_545 S
C485 C483 1.327 . S
C485 C501 1.429 . S
C485 H507 0.950 . S
C486 H482 0.949 . S
C486 C494 1.574 . S
C486 C502 1.368 1_565 S
H487 C495 0.950 . S
H488 C493 0.950 . S
H489 C494 0.949 . S
H490 C496 0.950 . S
H491 C497 0.950 . S
H492 C498 0.949 . S
C493 H488 0.950 . S
C493 C495 1.327 . S
C493 C499 1.429 1_545 S
C494 C486 1.574 . S
C494 H489 0.949 . S
C494 C500 1.368 . S
C495 C479 1.349 1_545 S
C495 H487 0.950 . S
C495 C493 1.327 . S
C496 C484 1.349 1_565 S
C496 H490 0.950 . S
C496 C497 1.327 . S
C497 H491 0.950 . S
C497 C496 1.327 . S
C497 C501 1.429 1_565 S
C498 C481 1.574 . S
C498 H492 0.949 . S
C498 C502 1.368 . S
C499 C480 1.429 . S
C499 C493 1.429 1_565 S
C499 C500 1.523 . S
C500 C481 1.368 1_565 S
C500 C494 1.368 . S
C500 C499 1.523 . S
C501 C485 1.429 . S
C501 C497 1.429 1_545 S
C501 C502 1.523 . S
C502 C486 1.368 1_545 S
C502 C498 1.368 . S
C502 C501 1.523 . S
H503 C478 0.950 . S
H504 C480 0.950 . S
H505 C481 0.949 . S
H506 C483 0.950 . S
H507 C485 0.950 . S
C508 C509 1.349 1_545 S
C508 C510 1.327 . S
C508 H533 0.950 . S
C509 C508 1.349 1_565 S
C509 C525 1.349 . S
C510 C508 1.327 . S
C510 C529 1.429 1_545 S
C510 H534 0.950 . S
C511 C528 1.574 . S
C511 C530 1.368 . S
C511 H535 0.949 . S
H512 C516 0.949 . S
C513 C514 1.349 1_565 S
C513 C515 1.327 . S
C513 H536 0.950 . S
C514 C513 1.349 1_545 S
C514 C526 1.349 . S
C515 C513 1.327 . S
C515 C531 1.429 1_565 S
C515 H537 0.950 . S
C516 H512 0.949 . S
C516 C524 1.574 . S
C516 C532 1.368 . S
H517 C525 0.950 . S
H518 C523 0.950 . S
H519 C524 0.949 . S
H520 C526 0.950 . S
H521 C527 0.950 . S
H522 C528 0.949 . S
C523 H518 0.950 . S
C523 C525 1.327 . S
C523 C529 1.429 . S
C524 C516 1.574 . S
C524 H519 0.949 . S
C524 C530 1.368 1_545 S
C525 C509 1.349 . S
C525 H517 0.950 . S
C525 C523 1.327 . S
C526 C514 1.349 . S
C526 H520 0.950 . S
C526 C527 1.327 . S
C527 H521 0.950 . S
C527 C526 1.327 . S
C527 C531 1.429 . S
C528 C511 1.574 . S
C528 H522 0.949 . S
C528 C532 1.368 1_565 S
C529 C510 1.429 1_565 S
C529 C523 1.429 . S
C529 C530 1.523 . S
C530 C511 1.368 . S
C530 C524 1.368 1_565 S
C530 C529 1.523 . S
C531 C515 1.429 1_545 S
C531 C527 1.429 . S
C531 C532 1.523 . S
C532 C516 1.368 . S
C532 C528 1.368 1_545 S
C532 C531 1.523 . S
H533 C508 0.950 . S
H534 C510 0.950 . S
H535 C511 0.949 . S
H536 C513 0.950 . S
H537 C515 0.950 . S
C538 C539 1.349 1_565 S
C538 C540 1.327 . S
C538 H563 0.950 . S
C539 C538 1.349 1_545 S
C539 C555 1.349 . S
C540 C538 1.327 . S
C540 C559 1.429 1_565 S
C540 H564 0.950 . S
C541 C558 1.574 . S
C541 C560 1.368 . S
C541 H565 0.949 . S
H542 C546 0.949 . S
C543 C544 1.349 1_545 S
C543 C545 1.327 . S
C543 H566 0.950 . S
C544 C543 1.349 1_565 S
C544 C556 1.349 . S
C545 C543 1.327 . S
C545 C561 1.429 1_545 S
C545 H567 0.950 . S
C546 H542 0.949 . S
C546 C554 1.574 . S
C546 C562 1.368 . S
H547 C555 0.950 . S
H548 C553 0.950 . S
H549 C554 0.949 . S
H550 C556 0.950 . S
H551 C557 0.950 . S
H552 C558 0.949 . S
C553 H548 0.950 . S
C553 C555 1.327 . S
C553 C559 1.429 . S
C554 C546 1.574 . S
C554 H549 0.949 . S
C554 C560 1.368 1_565 S
C555 C539 1.349 . S
C555 H547 0.950 . S
C555 C553 1.327 . S
C556 C544 1.349 . S
C556 H550 0.950 . S
C556 C557 1.327 . S
C557 H551 0.950 . S
C557 C556 1.327 . S
C557 C561 1.429 . S
C558 C541 1.574 . S
C558 H552 0.949 . S
C558 C562 1.368 1_545 S
C559 C540 1.429 1_545 S
C559 C553 1.429 . S
C559 C560 1.523 . S
C560 C541 1.368 . S
C560 C554 1.368 1_545 S
C560 C559 1.523 . S
C561 C545 1.429 1_565 S
C561 C557 1.429 . S
C561 C562 1.523 . S
C562 C546 1.368 . S
C562 C558 1.368 1_565 S
C562 C561 1.523 . S
H563 C538 0.950 . S
H564 C540 0.950 . S
H565 C541 0.949 . S
H566 C543 0.950 . S
H567 C545 0.950 . S
C568 C569 1.349 . S
C568 C570 1.327 . S
C568 H593 0.950 . S
C569 C568 1.349 . S
C569 C585 1.349 . S
C570 C568 1.327 . S
C570 C589 1.429 . S
C570 H594 0.950 . S
C571 C588 1.574 1_655 S
C571 C590 1.368 . S
C571 H595 0.949 . S
H572 C576 0.949 . S
C573 C574 1.349 . S
C573 C575 1.327 . S
C573 H596 0.950 . S
C574 C573 1.349 . S
C574 C586 1.349 . S
C575 C573 1.327 . S
C575 C591 1.429 . S
C575 H597 0.950 . S
C576 H572 0.949 . S
C576 C584 1.574 1_455 S
C576 C592 1.368 . S
H577 C585 0.950 . S
H578 C583 0.950 . S
H579 C584 0.949 . S
H580 C586 0.950 . S
H581 C587 0.950 . S
H582 C588 0.949 . S
C583 H578 0.950 . S
C583 C585 1.327 . S
C583 C589 1.429 . S
C584 C576 1.574 1_655 S
C584 H579 0.949 . S
C584 C590 1.368 . S
C585 C569 1.349 . S
C585 H577 0.950 . S
C585 C583 1.327 . S
C586 C574 1.349 . S
C586 H580 0.950 . S
C586 C587 1.327 . S
C587 H581 0.950 . S
C587 C586 1.327 . S
C587 C591 1.429 . S
C588 C571 1.574 1_455 S
C588 H582 0.949 . S
C588 C592 1.368 . S
C589 C570 1.429 . S
C589 C583 1.429 . S
C589 C590 1.523 . S
C590 C571 1.368 . S
C590 C584 1.368 . S
C590 C589 1.523 . S
C591 C575 1.429 . S
C591 C587 1.429 . S
C591 C592 1.523 . S
C592 C576 1.368 . S
C592 C588 1.368 . S
C592 C591 1.523 . S
H593 C568 0.950 . S
H594 C570 0.950 . S
H595 C571 0.949 . S
H596 C573 0.950 . S
H597 C575 0.950 . S
C598 C599 1.349 . S
C598 C600 1.327 . S
C598 H623 0.950 . S
C599 C598 1.349 . S
C599 C615 1.349 . S
C600 C598 1.327 . S
C600 C619 1.429 . S
C600 H624 0.950 . S
C601 C618 1.574 1_455 S
C601 C620 1.368 . S
C601 H625 0.949 . S
H602 C606 0.949 . S
C603 C604 1.349 . S
C603 C605 1.327 . S
C603 H626 0.950 . S
C604 C603 1.349 . S
C604 C616 1.349 . S
C605 C603 1.327 . S
C605 C621 1.429 . S
C605 H627 0.950 . S
C606 H602 0.949 . S
C606 C614 1.574 1_655 S
C606 C622 1.368 . S
H607 C615 0.950 . S
H608 C613 0.950 . S
H609 C614 0.949 . S
H610 C616 0.950 . S
H611 C617 0.950 . S
H612 C618 0.949 . S
C613 H608 0.950 . S
C613 C615 1.327 . S
C613 C619 1.429 . S
C614 C606 1.574 1_455 S
C614 H609 0.949 . S
C614 C620 1.368 . S
C615 C599 1.349 . S
C615 H607 0.950 . S
C615 C613 1.327 . S
C616 C604 1.349 . S
C616 H610 0.950 . S
C616 C617 1.327 . S
C617 H611 0.950 . S
C617 C616 1.327 . S
C617 C621 1.429 . S
C618 C601 1.574 1_655 S
C618 H612 0.949 . S
C618 C622 1.368 . S
C619 C600 1.429 . S
C619 C613 1.429 . S
C619 C620 1.523 . S
C620 C601 1.368 . S
C620 C614 1.368 . S
C620 C619 1.523 . S
C621 C605 1.429 . S
C621 C617 1.429 . S
C621 C622 1.523 . S
C622 C606 1.368 . S
C622 C618 1.368 . S
C622 C621 1.523 . S
H623 C598 0.950 . S
H624 C600 0.950 . S
H625 C601 0.949 . S
H626 C603 0.950 . S
H627 C605 0.950 . S
C628 C629 1.349 . S
C628 C630 1.327 . S
C628 H653 0.950 . S
C629 C628 1.349 . S
C629 C645 1.349 . S
C630 C628 1.327 . S
C630 C649 1.429 . S
C630 H654 0.950 . S
C631 C648 1.574 1_655 S
C631 C650 1.368 . S
C631 H655 0.949 . S
H632 C636 0.949 . S
C633 C634 1.349 . S
C633 C635 1.327 . S
C633 H656 0.950 . S
C634 C633 1.349 . S
C634 C646 1.349 . S
C635 C633 1.327 . S
C635 C651 1.429 . S
C635 H657 0.950 . S
C636 H632 0.949 . S
C636 C644 1.574 1_455 S
C636 C652 1.368 . S
H637 C645 0.950 . S
H638 C643 0.950 . S
H639 C644 0.949 . S
H640 C646 0.950 . S
H641 C647 0.950 . S
H642 C648 0.949 . S
C643 H638 0.950 . S
C643 C645 1.327 . S
C643 C649 1.429 . S
C644 C636 1.574 1_655 S
C644 H639 0.949 . S
C644 C650 1.368 . S
C645 C629 1.349 . S
C645 H637 0.950 . S
C645 C643 1.327 . S
C646 C634 1.349 . S
C646 H640 0.950 . S
C646 C647 1.327 . S
C647 H641 0.950 . S
C647 C646 1.327 . S
C647 C651 1.429 . S
C648 C631 1.574 1_455 S
C648 H642 0.949 . S
C648 C652 1.368 . S
C649 C630 1.429 . S
C649 C643 1.429 . S
C649 C650 1.523 . S
C650 C631 1.368 . S
C650 C644 1.368 . S
C650 C649 1.523 . S
C651 C635 1.429 . S
C651 C647 1.429 . S
C651 C652 1.523 . S
C652 C636 1.368 . S
C652 C648 1.368 . S
C652 C651 1.523 . S
H653 C628 0.950 . S
H654 C630 0.950 . S
H655 C631 0.949 . S
H656 C633 0.950 . S
H657 C635 0.950 . S
C658 C659 1.349 . S
C658 C660 1.327 . S
C658 H683 0.950 . S
C659 C658 1.349 . S
C659 C675 1.349 . S
C660 C658 1.327 . S
C660 C679 1.429 . S
C660 H684 0.950 . S
C661 C678 1.574 1_455 S
C661 C680 1.368 . S
C661 H685 0.949 . S
H662 C666 0.949 . S
C663 C664 1.349 . S
C663 C665 1.327 . S
C663 H686 0.950 . S
C664 C663 1.349 . S
C664 C676 1.349 . S
C665 C663 1.327 . S
C665 C681 1.429 . S
C665 H687 0.950 . S
C666 H662 0.949 . S
C666 C674 1.574 1_655 S
C666 C682 1.368 . S
H667 C675 0.950 . S
H668 C673 0.950 . S
H669 C674 0.949 . S
H670 C676 0.950 . S
H671 C677 0.950 . S
H672 C678 0.949 . S
C673 H668 0.950 . S
C673 C675 1.327 . S
C673 C679 1.429 . S
C674 C666 1.574 1_455 S
C674 H669 0.949 . S
C674 C680 1.368 . S
C675 C659 1.349 . S
C675 H667 0.950 . S
C675 C673 1.327 . S
C676 C664 1.349 . S
C676 H670 0.950 . S
C676 C677 1.327 . S
C677 H671 0.950 . S
C677 C676 1.327 . S
C677 C681 1.429 . S
C678 C661 1.574 1_655 S
C678 H672 0.949 . S
C678 C682 1.368 . S
C679 C660 1.429 . S
C679 C673 1.429 . S
C679 C680 1.523 . S
C680 C661 1.368 . S
C680 C674 1.368 . S
C680 C679 1.523 . S
C681 C665 1.429 . S
C681 C677 1.429 . S
C681 C682 1.523 . S
C682 C666 1.368 . S
C682 C678 1.368 . S
C682 C681 1.523 . S
H683 C658 0.950 . S
H684 C660 0.950 . S
H685 C661 0.949 . S
H686 C663 0.950 . S
H687 C665 0.950 . S
C688 C689 1.349 . S
C688 C690 1.327 . S
C688 H713 0.950 . S
C689 C688 1.349 . S
C689 C705 1.349 . S
C690 C688 1.327 . S
C690 C709 1.429 . S
C690 H714 0.950 . S
C691 C708 1.574 . S
C691 C710 1.368 . S
C691 H715 0.949 . S
H692 C696 0.949 . S
C693 C694 1.349 . S
C693 C695 1.327 . S
C693 H716 0.950 . S
C694 C693 1.349 . S
C694 C706 1.349 . S
C695 C693 1.327 . S
C695 C711 1.429 . S
C695 H717 0.950 . S
C696 H692 0.949 . S
C696 C704 1.574 . S
C696 C712 1.368 . S
H697 C705 0.950 . S
H698 C703 0.950 . S
H699 C704 0.949 . S
H700 C706 0.950 . S
H701 C707 0.950 . S
H702 C708 0.949 . S
C703 H698 0.950 . S
C703 C705 1.327 . S
C703 C709 1.429 . S
C704 C696 1.574 . S
C704 H699 0.949 . S
C704 C710 1.368 . S
C705 C689 1.349 . S
C705 H697 0.950 . S
C705 C703 1.327 . S
C706 C694 1.349 . S
C706 H700 0.950 . S
C706 C707 1.327 . S
C707 H701 0.950 . S
C707 C706 1.327 . S
C707 C711 1.429 . S
C708 C691 1.574 . S
C708 H702 0.949 . S
C708 C712 1.368 . S
C709 C690 1.429 . S
C709 C703 1.429 . S
C709 C710 1.523 . S
C710 C691 1.368 . S
C710 C704 1.368 . S
C710 C709 1.523 . S
C711 C695 1.429 . S
C711 C707 1.429 . S
C711 C712 1.523 . S
C712 C696 1.368 . S
C712 C708 1.368 . S
C712 C711 1.523 . S
H713 C688 0.950 . S
H714 C690 0.950 . S
H715 C691 0.949 . S
H716 C693 0.950 . S
H717 C695 0.950 . S
C718 C719 1.349 . S
C718 C720 1.327 . S
C718 H743 0.950 . S
C719 C718 1.349 . S
C719 C735 1.349 . S
C720 C718 1.327 . S
C720 C739 1.429 . S
C720 H744 0.950 . S
C721 C738 1.574 . S
C721 C740 1.368 . S
C721 H745 0.949 . S
H722 C726 0.949 . S
C723 C724 1.349 . S
C723 C725 1.327 . S
C723 H746 0.950 . S
C724 C723 1.349 . S
C724 C736 1.349 . S
C725 C723 1.327 . S
C725 C741 1.429 . S
C725 H747 0.950 . S
C726 H722 0.949 . S
C726 C734 1.574 . S
C726 C742 1.368 . S
H727 C735 0.950 . S
H728 C733 0.950 . S
H729 C734 0.949 . S
H730 C736 0.950 . S
H731 C737 0.950 . S
H732 C738 0.949 . S
C733 H728 0.950 . S
C733 C735 1.327 . S
C733 C739 1.429 . S
C734 C726 1.574 . S
C734 H729 0.949 . S
C734 C740 1.368 . S
C735 C719 1.349 . S
C735 H727 0.950 . S
C735 C733 1.327 . S
C736 C724 1.349 . S
C736 H730 0.950 . S
C736 C737 1.327 . S
C737 H731 0.950 . S
C737 C736 1.327 . S
C737 C741 1.429 . S
C738 C721 1.574 . S
C738 H732 0.949 . S
C738 C742 1.368 . S
C739 C720 1.429 . S
C739 C733 1.429 . S
C739 C740 1.523 . S
C740 C721 1.368 . S
C740 C734 1.368 . S
C740 C739 1.523 . S
C741 C725 1.429 . S
C741 C737 1.429 . S
C741 C742 1.523 . S
C742 C726 1.368 . S
C742 C738 1.368 . S
C742 C741 1.523 . S
H743 C718 0.950 . S
H744 C720 0.950 . S
H745 C721 0.949 . S
H746 C723 0.950 . S
H747 C725 0.950 . S
C748 C749 1.349 . S
C748 C750 1.327 . S
C748 H773 0.950 . S
C749 C748 1.349 . S
C749 C765 1.349 . S
C750 C748 1.327 . S
C750 C769 1.429 . S
C750 H774 0.950 . S
C751 C768 1.574 . S
C751 C770 1.368 . S
C751 H775 0.949 . S
H752 C756 0.949 . S
C753 C754 1.349 . S
C753 C755 1.327 . S
C753 H776 0.950 . S
C754 C753 1.349 . S
C754 C766 1.349 . S
C755 C753 1.327 . S
C755 C771 1.429 . S
C755 H777 0.950 . S
C756 H752 0.949 . S
C756 C764 1.574 . S
C756 C772 1.368 . S
H757 C765 0.950 . S
H758 C763 0.950 . S
H759 C764 0.949 . S
H760 C766 0.950 . S
H761 C767 0.950 . S
H762 C768 0.949 . S
C763 H758 0.950 . S
C763 C765 1.327 . S
C763 C769 1.429 . S
C764 C756 1.574 . S
C764 H759 0.949 . S
C764 C770 1.368 . S
C765 C749 1.349 . S
C765 H757 0.950 . S
C765 C763 1.327 . S
C766 C754 1.349 . S
C766 H760 0.950 . S
C766 C767 1.327 . S
C767 H761 0.950 . S
C767 C766 1.327 . S
C767 C771 1.429 . S
C768 C751 1.574 . S
C768 H762 0.949 . S
C768 C772 1.368 . S
C769 C750 1.429 . S
C769 C763 1.429 . S
C769 C770 1.523 . S
C770 C751 1.368 . S
C770 C764 1.368 . S
C770 C769 1.523 . S
C771 C755 1.429 . S
C771 C767 1.429 . S
C771 C772 1.523 . S
C772 C756 1.368 . S
C772 C768 1.368 . S
C772 C771 1.523 . S
H773 C748 0.950 . S
H774 C750 0.950 . S
H775 C751 0.949 . S
H776 C753 0.950 . S
H777 C755 0.950 . S
C778 C779 1.349 . S
C778 C780 1.327 . S
C778 H803 0.950 . S
C779 C778 1.349 . S
C779 C795 1.349 . S
C780 C778 1.327 . S
C780 C799 1.429 . S
C780 H804 0.950 . S
C781 C798 1.574 . S
C781 C800 1.368 . S
C781 H805 0.949 . S
H782 C786 0.949 . S
C783 C784 1.349 . S
C783 C785 1.327 . S
C783 H806 0.950 . S
C784 C783 1.349 . S
C784 C796 1.349 . S
C785 C783 1.327 . S
C785 C801 1.429 . S
C785 H807 0.950 . S
C786 H782 0.949 . S
C786 C794 1.574 . S
C786 C802 1.368 . S
H787 C795 0.950 . S
H788 C793 0.950 . S
H789 C794 0.949 . S
H790 C796 0.950 . S
H791 C797 0.950 . S
H792 C798 0.949 . S
C793 H788 0.950 . S
C793 C795 1.327 . S
C793 C799 1.429 . S
C794 C786 1.574 . S
C794 H789 0.949 . S
C794 C800 1.368 . S
C795 C779 1.349 . S
C795 H787 0.950 . S
C795 C793 1.327 . S
C796 C784 1.349 . S
C796 H790 0.950 . S
C796 C797 1.327 . S
C797 H791 0.950 . S
C797 C796 1.327 . S
C797 C801 1.429 . S
C798 C781 1.574 . S
C798 H792 0.949 . S
C798 C802 1.368 . S
C799 C780 1.429 . S
C799 C793 1.429 . S
C799 C800 1.523 . S
C800 C781 1.368 . S
C800 C794 1.368 . S
C800 C799 1.523 . S
C801 C785 1.429 . S
C801 C797 1.429 . S
C801 C802 1.523 . S
C802 C786 1.368 . S
C802 C798 1.368 . S
C802 C801 1.523 . S
H803 C778 0.950 . S
H804 C780 0.950 . S
H805 C781 0.949 . S
H806 C783 0.950 . S
H807 C785 0.950 . S
C808 C809 1.349 . S
C808 C810 1.327 . S
C808 H833 0.950 . S
C809 C808 1.349 . S
C809 C825 1.349 . S
C810 C808 1.327 . S
C810 C829 1.429 . S
C810 H834 0.950 . S
C811 C828 1.574 . S
C811 C830 1.368 . S
C811 H835 0.949 . S
H812 C816 0.949 . S
C813 C814 1.349 . S
C813 C815 1.327 . S
C813 H836 0.950 . S
C814 C813 1.349 . S
C814 C826 1.349 . S
C815 C813 1.327 . S
C815 C831 1.429 . S
C815 H837 0.950 . S
C816 H812 0.949 . S
C816 C824 1.574 . S
C816 C832 1.368 . S
H817 C825 0.950 . S
H818 C823 0.950 . S
H819 C824 0.949 . S
H820 C826 0.950 . S
H821 C827 0.950 . S
H822 C828 0.949 . S
C823 H818 0.950 . S
C823 C825 1.327 . S
C823 C829 1.429 . S
C824 C816 1.574 . S
C824 H819 0.949 . S
C824 C830 1.368 . S
C825 C809 1.349 . S
C825 H817 0.950 . S
C825 C823 1.327 . S
C826 C814 1.349 . S
C826 H820 0.950 . S
C826 C827 1.327 . S
C827 H821 0.950 . S
C827 C826 1.327 . S
C827 C831 1.429 . S
C828 C811 1.574 . S
C828 H822 0.949 . S
C828 C832 1.368 . S
C829 C810 1.429 . S
C829 C823 1.429 . S
C829 C830 1.523 . S
C830 C811 1.368 . S
C830 C824 1.368 . S
C830 C829 1.523 . S
C831 C815 1.429 . S
C831 C827 1.429 . S
C831 C832 1.523 . S
C832 C816 1.368 . S
C832 C828 1.368 . S
C832 C831 1.523 . S
H833 C808 0.950 . S
H834 C810 0.950 . S
H835 C811 0.949 . S
H836 C813 0.950 . S
H837 C815 0.950 . S
C838 C839 1.349 . S
C838 C840 1.327 . S
C838 H863 0.950 . S
C839 C838 1.349 . S
C839 C855 1.349 . S
C840 C838 1.327 . S
C840 C859 1.429 . S
C840 H864 0.950 . S
C841 C858 1.574 . S
C841 C860 1.368 . S
C841 H865 0.949 . S
H842 C846 0.949 . S
C843 C844 1.349 . S
C843 C845 1.327 . S
C843 H866 0.950 . S
C844 C843 1.349 . S
C844 C856 1.349 . S
C845 C843 1.327 . S
C845 C861 1.429 . S
C845 H867 0.950 . S
C846 H842 0.949 . S
C846 C854 1.574 . S
C846 C862 1.368 . S
H847 C855 0.950 . S
H848 C853 0.950 . S
H849 C854 0.949 . S
H850 C856 0.950 . S
H851 C857 0.950 . S
H852 C858 0.949 . S
C853 H848 0.950 . S
C853 C855 1.327 . S
C853 C859 1.429 . S
C854 C846 1.574 . S
C854 H849 0.949 . S
C854 C860 1.368 . S
C855 C839 1.349 . S
C855 H847 0.950 . S
C855 C853 1.327 . S
C856 C844 1.349 . S
C856 H850 0.950 . S
C856 C857 1.327 . S
C857 H851 0.950 . S
C857 C856 1.327 . S
C857 C861 1.429 . S
C858 C841 1.574 . S
C858 H852 0.949 . S
C858 C862 1.368 . S
C859 C840 1.429 . S
C859 C853 1.429 . S
C859 C860 1.523 . S
C860 C841 1.368 . S
C860 C854 1.368 . S
C860 C859 1.523 . S
C861 C845 1.429 . S
C861 C857 1.429 . S
C861 C862 1.523 . S
C862 C846 1.368 . S
C862 C858 1.368 . S
C862 C861 1.523 . S
H863 C838 0.950 . S
H864 C840 0.950 . S
H865 C841 0.949 . S
H866 C843 0.950 . S
H867 C845 0.950 . S
C868 C869 1.349 . S
C868 C870 1.327 . S
C868 H893 0.950 . S
C869 C868 1.349 . S
C869 C885 1.349 . S
C870 C868 1.327 . S
C870 C889 1.429 . S
C870 H894 0.950 . S
C871 C888 1.574 . S
C871 C890 1.368 . S
C871 H895 0.949 . S
H872 C876 0.949 . S
C873 C874 1.349 . S
C873 C875 1.327 . S
C873 H896 0.950 . S
C874 C873 1.349 . S
C874 C886 1.349 . S
C875 C873 1.327 . S
C875 C891 1.429 . S
C875 H897 0.950 . S
C876 H872 0.949 . S
C876 C884 1.574 . S
C876 C892 1.368 . S
H877 C885 0.950 . S
H878 C883 0.950 . S
H879 C884 0.949 . S
H880 C886 0.950 . S
H881 C887 0.950 . S
H882 C888 0.949 . S
C883 H878 0.950 . S
C883 C885 1.327 . S
C883 C889 1.429 . S
C884 C876 1.574 . S
C884 H879 0.949 . S
C884 C890 1.368 . S
C885 C869 1.349 . S
C885 H877 0.950 . S
C885 C883 1.327 . S
C886 C874 1.349 . S
C886 H880 0.950 . S
C886 C887 1.327 . S
C887 H881 0.950 . S
C887 C886 1.327 . S
C887 C891 1.429 . S
C888 C871 1.574 . S
C888 H882 0.949 . S
C888 C892 1.368 . S
C889 C870 1.429 . S
C889 C883 1.429 . S
C889 C890 1.523 . S
C890 C871 1.368 . S
C890 C884 1.368 . S
C890 C889 1.523 . S
C891 C875 1.429 . S
C891 C887 1.429 . S
C891 C892 1.523 . S
C892 C876 1.368 . S
C892 C888 1.368 . S
C892 C891 1.523 . S
H893 C868 0.950 . S
H894 C870 0.950 . S
H895 C871 0.949 . S
H896 C873 0.950 . S
H897 C875 0.950 . S
C898 C899 1.349 . S
C898 C900 1.327 . S
C898 H923 0.950 . S
C899 C898 1.349 . S
C899 C915 1.349 . S
C900 C898 1.327 . S
C900 C919 1.429 . S
C900 H924 0.950 . S
C901 C918 1.574 . S
C901 C920 1.368 . S
C901 H925 0.949 . S
H902 C906 0.949 . S
C903 C904 1.349 . S
C903 C905 1.327 . S
C903 H926 0.950 . S
C904 C903 1.349 . S
C904 C916 1.349 . S
C905 C903 1.327 . S
C905 C921 1.429 . S
C905 H927 0.950 . S
C906 H902 0.949 . S
C906 C914 1.574 . S
C906 C922 1.368 . S
H907 C915 0.950 . S
H908 C913 0.950 . S
H909 C914 0.949 . S
H910 C916 0.950 . S
H911 C917 0.950 . S
H912 C918 0.949 . S
C913 H908 0.950 . S
C913 C915 1.327 . S
C913 C919 1.429 . S
C914 C906 1.574 . S
C914 H909 0.949 . S
C914 C920 1.368 . S
C915 C899 1.349 . S
C915 H907 0.950 . S
C915 C913 1.327 . S
C916 C904 1.349 . S
C916 H910 0.950 . S
C916 C917 1.327 . S
C917 H911 0.950 . S
C917 C916 1.327 . S
C917 C921 1.429 . S
C918 C901 1.574 . S
C918 H912 0.949 . S
C918 C922 1.368 . S
C919 C900 1.429 . S
C919 C913 1.429 . S
C919 C920 1.523 . S
C920 C901 1.368 . S
C920 C914 1.368 . S
C920 C919 1.523 . S
C921 C905 1.429 . S
C921 C917 1.429 . S
C921 C922 1.523 . S
C922 C906 1.368 . S
C922 C918 1.368 . S
C922 C921 1.523 . S
H923 C898 0.950 . S
H924 C900 0.950 . S
H925 C901 0.949 . S
H926 C903 0.950 . S
H927 C905 0.950 . S
C928 C929 1.349 . S
C928 C930 1.327 1_545 S
C928 H953 0.950 1_545 S
C929 C928 1.349 . S
C929 C945 1.349 . S
C930 C928 1.327 1_565 S
C930 C949 1.429 1_565 S
C930 H954 0.950 . S
C931 C948 1.574 . S
C931 C950 1.368 . S
C931 H955 0.949 . S
H932 C936 0.949 . S
C933 C934 1.349 . S
C933 C935 1.327 1_565 S
C933 H956 0.950 1_565 S
C934 C933 1.349 . S
C934 C946 1.349 . S
C935 C933 1.327 1_545 S
C935 C951 1.429 1_545 S
C935 H957 0.950 . S
C936 H932 0.949 . S
C936 C944 1.574 . S
C936 C952 1.368 . S
H937 C945 0.950 . S
H938 C943 0.950 . S
H939 C944 0.949 . S
H940 C946 0.950 . S
H941 C947 0.950 . S
H942 C948 0.949 . S
C943 H938 0.950 . S
C943 C945 1.327 . S
C943 C949 1.429 . S
C944 C936 1.574 . S
C944 H939 0.949 . S
C944 C950 1.368 1_565 S
C945 C929 1.349 . S
C945 H937 0.950 . S
C945 C943 1.327 . S
C946 C934 1.349 . S
C946 H940 0.950 . S
C946 C947 1.327 . S
C947 H941 0.950 . S
C947 C946 1.327 . S
C947 C951 1.429 . S
C948 C931 1.574 . S
C948 H942 0.949 . S
C948 C952 1.368 1_545 S
C949 C930 1.429 1_545 S
C949 C943 1.429 . S
C949 C950 1.523 . S
C950 C931 1.368 . S
C950 C944 1.368 1_545 S
C950 C949 1.523 . S
C951 C935 1.429 1_565 S
C951 C947 1.429 . S
C951 C952 1.523 . S
C952 C936 1.368 . S
C952 C948 1.368 1_565 S
C952 C951 1.523 . S
H953 C928 0.950 1_565 S
H954 C930 0.950 . S
H955 C931 0.949 . S
H956 C933 0.950 1_545 S
H957 C935 0.950 . S
C958 C959 1.349 . S
C958 C960 1.327 1_545 S
C958 H983 0.950 1_545 S
C959 C958 1.349 . S
C959 C975 1.349 . S
C960 C958 1.327 1_565 S
C960 C979 1.429 1_565 S
C960 H984 0.950 . S
C961 C978 1.574 . S
C961 C980 1.368 . S
C961 H985 0.949 . S
H962 C966 0.949 . S
C963 C964 1.349 . S
C963 C965 1.327 1_565 S
C963 H986 0.950 1_565 S
C964 C963 1.349 . S
C964 C976 1.349 . S
C965 C963 1.327 1_545 S
C965 C981 1.429 1_545 S
C965 H987 0.950 . S
C966 H962 0.949 . S
C966 C974 1.574 . S
C966 C982 1.368 . S
H967 C975 0.950 . S
H968 C973 0.950 . S
H969 C974 0.949 . S
H970 C976 0.950 . S
H971 C977 0.950 . S
H972 C978 0.949 . S
C973 H968 0.950 . S
C973 C975 1.327 . S
C973 C979 1.429 . S
C974 C966 1.574 . S
C974 H969 0.949 . S
C974 C980 1.368 1_565 S
C975 C959 1.349 . S
C975 H967 0.950 . S
C975 C973 1.327 . S
C976 C964 1.349 . S
C976 H970 0.950 . S
C976 C977 1.327 . S
C977 H971 0.950 . S
C977 C976 1.327 . S
C977 C981 1.429 . S
C978 C961 1.574 . S
C978 H972 0.949 . S
C978 C982 1.368 1_545 S
C979 C960 1.429 1_545 S
C979 C973 1.429 . S
C979 C980 1.523 . S
C980 C961 1.368 . S
C980 C974 1.368 1_545 S
C980 C979 1.523 . S
C981 C965 1.429 1_565 S
C981 C977 1.429 . S
C981 C982 1.523 . S
C982 C966 1.368 . S
C982 C978 1.368 1_565 S
C982 C981 1.523 . S
H983 C958 0.950 1_565 S
H984 C960 0.950 . S
H985 C961 0.949 . S
H986 C963 0.950 1_545 S
H987 C965 0.950 . S
C988 C989 1.349 . S
C988 C990 1.327 . S
C988 H1013 0.950 . S
C989 C988 1.349 . S
C989 C1005 1.349 . S
C990 C988 1.327 . S
C990 C1009 1.429 . S
C990 H1014 0.950 . S
C991 C1008 1.574 . S
C991 C1010 1.368 1_565 S
C991 H1015 0.949 . S
H992 C996 0.949 . S
C993 C994 1.349 . S
C993 C995 1.327 . S
C993 H1016 0.950 . S
C994 C993 1.349 . S
C994 C1006 1.349 . S
C995 C993 1.327 . S
C995 C1011 1.429 . S
C995 H1017 0.950 . S
C996 H992 0.949 . S
C996 C1004 1.574 . S
C996 C1012 1.368 1_545 S
H997 C1005 0.950 1_565 S
H998 C1003 0.950 . S
H999 C1004 0.949 . S
H1000 C1006 0.950 1_545 S
H1001 C1007 0.950 . S
H1002 C1008 0.949 . S
C1003 H998 0.950 . S
C1003 C1005 1.327 1_565 S
C1003 C1009 1.429 1_565 S
C1004 C996 1.574 . S
C1004 H999 0.949 . S
C1004 C1010 1.368 . S
C1005 C989 1.349 . S
C1005 H997 0.950 1_545 S
C1005 C1003 1.327 1_545 S
C1006 C994 1.349 . S
C1006 H1000 0.950 1_565 S
C1006 C1007 1.327 1_565 S
C1007 H1001 0.950 . S
C1007 C1006 1.327 1_545 S
C1007 C1011 1.429 1_545 S
C1008 C991 1.574 . S
C1008 H1002 0.949 . S
C1008 C1012 1.368 . S
C1009 C990 1.429 . S
C1009 C1003 1.429 1_545 S
C1009 C1010 1.523 . S
C1010 C991 1.368 1_545 S
C1010 C1004 1.368 . S
C1010 C1009 1.523 . S
C1011 C995 1.429 . S
C1011 C1007 1.429 1_565 S
C1011 C1012 1.523 . S
C1012 C996 1.368 1_565 S
C1012 C1008 1.368 . S
C1012 C1011 1.523 . S
H1013 C988 0.950 . S
H1014 C990 0.950 . S
H1015 C991 0.949 . S
H1016 C993 0.950 . S
H1017 C995 0.950 . S
C1018 C1019 1.349 . S
C1018 C1020 1.327 1_565 S
C1018 H1043 0.950 1_565 S
C1019 C1018 1.349 . S
C1019 C1035 1.349 . S
C1020 C1018 1.327 1_545 S
C1020 C1039 1.429 1_545 S
C1020 H1044 0.950 . S
C1021 C1038 1.574 . S
C1021 C1040 1.368 . S
C1021 H1045 0.949 . S
H1022 C1026 0.949 . S
C1023 C1024 1.349 . S
C1023 C1025 1.327 1_545 S
C1023 H1046 0.950 1_545 S
C1024 C1023 1.349 . S
C1024 C1036 1.349 . S
C1025 C1023 1.327 1_565 S
C1025 C1041 1.429 1_565 S
C1025 H1047 0.950 . S
C1026 H1022 0.949 . S
C1026 C1034 1.574 . S
C1026 C1042 1.368 . S
H1027 C1035 0.950 . S
H1028 C1033 0.950 . S
H1029 C1034 0.949 . S
H1030 C1036 0.950 . S
H1031 C1037 0.950 . S
H1032 C1038 0.949 . S
C1033 H1028 0.950 . S
C1033 C1035 1.327 . S
C1033 C1039 1.429 . S
C1034 C1026 1.574 . S
C1034 H1029 0.949 . S
C1034 C1040 1.368 1_545 S
C1035 C1019 1.349 . S
C1035 H1027 0.950 . S
C1035 C1033 1.327 . S
C1036 C1024 1.349 . S
C1036 H1030 0.950 . S
C1036 C1037 1.327 . S
C1037 H1031 0.950 . S
C1037 C1036 1.327 . S
C1037 C1041 1.429 . S
C1038 C1021 1.574 . S
C1038 H1032 0.949 . S
C1038 C1042 1.368 1_565 S
C1039 C1020 1.429 1_565 S
C1039 C1033 1.429 . S
C1039 C1040 1.523 . S
C1040 C1021 1.368 . S
C1040 C1034 1.368 1_565 S
C1040 C1039 1.523 . S
C1041 C1025 1.429 1_545 S
C1041 C1037 1.429 . S
C1041 C1042 1.523 . S
C1042 C1026 1.368 . S
C1042 C1038 1.368 1_545 S
C1042 C1041 1.523 . S
H1043 C1018 0.950 1_545 S
H1044 C1020 0.950 . S
H1045 C1021 0.949 . S
H1046 C1023 0.950 1_565 S
H1047 C1025 0.950 . S
C1048 C1049 1.349 . S
C1048 C1050 1.327 . S
C1048 H1073 0.950 . S
C1049 C1048 1.349 . S
C1049 C1065 1.349 . S
C1050 C1048 1.327 . S
C1050 C1069 1.429 . S
C1050 H1074 0.950 . S
C1051 C1068 1.574 . S
C1051 C1070 1.368 . S
C1051 H1075 0.949 . S
H1052 C1056 0.949 . S
C1053 C1054 1.349 . S
C1053 C1055 1.327 . S
C1053 H1076 0.950 . S
C1054 C1053 1.349 . S
C1054 C1066 1.349 . S
C1055 C1053 1.327 . S
C1055 C1071 1.429 . S
C1055 H1077 0.950 . S
C1056 H1052 0.949 . S
C1056 C1064 1.574 . S
C1056 C1072 1.368 . S
H1057 C1065 0.950 . S
H1058 C1063 0.950 . S
H1059 C1064 0.949 . S
H1060 C1066 0.950 . S
H1061 C1067 0.950 . S
H1062 C1068 0.949 . S
C1063 H1058 0.950 . S
C1063 C1065 1.327 . S
C1063 C1069 1.429 . S
C1064 C1056 1.574 . S
C1064 H1059 0.949 . S
C1064 C1070 1.368 . S
C1065 C1049 1.349 . S
C1065 H1057 0.950 . S
C1065 C1063 1.327 . S
C1066 C1054 1.349 . S
C1066 H1060 0.950 . S
C1066 C1067 1.327 . S
C1067 H1061 0.950 . S
C1067 C1066 1.327 . S
C1067 C1071 1.429 . S
C1068 C1051 1.574 . S
C1068 H1062 0.949 . S
C1068 C1072 1.368 . S
C1069 C1050 1.429 . S
C1069 C1063 1.429 . S
C1069 C1070 1.523 . S
C1070 C1051 1.368 . S
C1070 C1064 1.368 . S
C1070 C1069 1.523 . S
C1071 C1055 1.429 . S
C1071 C1067 1.429 . S
C1071 C1072 1.523 . S
C1072 C1056 1.368 . S
C1072 C1068 1.368 . S
C1072 C1071 1.523 . S
H1073 C1048 0.950 . S
H1074 C1050 0.950 . S
H1075 C1051 0.949 . S
H1076 C1053 0.950 . S
H1077 C1055 0.950 . S
C1078 C1079 1.349 . S
C1078 C1080 1.327 . S
C1078 H1103 0.950 . S
C1079 C1078 1.349 . S
C1079 C1095 1.349 . S
C1080 C1078 1.327 . S
C1080 C1099 1.429 . S
C1080 H1104 0.950 . S
C1081 C1098 1.574 . S
C1081 C1100 1.368 . S
C1081 H1105 0.949 . S
H1082 C1086 0.949 . S
C1083 C1084 1.349 . S
C1083 C1085 1.327 . S
C1083 H1106 0.950 . S
C1084 C1083 1.349 . S
C1084 C1096 1.349 . S
C1085 C1083 1.327 . S
C1085 C1101 1.429 . S
C1085 H1107 0.950 . S
C1086 H1082 0.949 . S
C1086 C1094 1.574 . S
C1086 C1102 1.368 . S
H1087 C1095 0.950 . S
H1088 C1093 0.950 . S
H1089 C1094 0.949 . S
H1090 C1096 0.950 . S
H1091 C1097 0.950 . S
H1092 C1098 0.949 . S
C1093 H1088 0.950 . S
C1093 C1095 1.327 . S
C1093 C1099 1.429 . S
C1094 C1086 1.574 . S
C1094 H1089 0.949 . S
C1094 C1100 1.368 . S
C1095 C1079 1.349 . S
C1095 H1087 0.950 . S
C1095 C1093 1.327 . S
C1096 C1084 1.349 . S
C1096 H1090 0.950 . S
C1096 C1097 1.327 . S
C1097 H1091 0.950 . S
C1097 C1096 1.327 . S
C1097 C1101 1.429 . S
C1098 C1081 1.574 . S
C1098 H1092 0.949 . S
C1098 C1102 1.368 . S
C1099 C1080 1.429 . S
C1099 C1093 1.429 . S
C1099 C1100 1.523 . S
C1100 C1081 1.368 . S
C1100 C1094 1.368 . S
C1100 C1099 1.523 . S
C1101 C1085 1.429 . S
C1101 C1097 1.429 . S
C1101 C1102 1.523 . S
C1102 C1086 1.368 . S
C1102 C1098 1.368 . S
C1102 C1101 1.523 . S
H1103 C1078 0.950 . S
H1104 C1080 0.950 . S
H1105 C1081 0.949 . S
H1106 C1083 0.950 . S
H1107 C1085 0.950 . S
C1108 C1109 1.349 . S
C1108 C1110 1.327 . S
C1108 H1133 0.950 . S
C1109 C1108 1.349 . S
C1109 C1125 1.349 . S
C1110 C1108 1.327 . S
C1110 C1129 1.429 . S
C1110 H1134 0.950 . S
C1111 C1128 1.574 . S
C1111 C1130 1.368 . S
C1111 H1135 0.949 . S
H1112 C1116 0.949 . S
C1113 C1114 1.349 . S
C1113 C1115 1.327 . S
C1113 H1136 0.950 . S
C1114 C1113 1.349 . S
C1114 C1126 1.349 . S
C1115 C1113 1.327 . S
C1115 C1131 1.429 . S
C1115 H1137 0.950 . S
C1116 H1112 0.949 . S
C1116 C1124 1.574 . S
C1116 C1132 1.368 . S
H1117 C1125 0.950 . S
H1118 C1123 0.950 . S
H1119 C1124 0.949 . S
H1120 C1126 0.950 . S
H1121 C1127 0.950 . S
H1122 C1128 0.949 . S
C1123 H1118 0.950 . S
C1123 C1125 1.327 . S
C1123 C1129 1.429 . S
C1124 C1116 1.574 . S
C1124 H1119 0.949 . S
C1124 C1130 1.368 . S
C1125 C1109 1.349 . S
C1125 H1117 0.950 . S
C1125 C1123 1.327 . S
C1126 C1114 1.349 . S
C1126 H1120 0.950 . S
C1126 C1127 1.327 . S
C1127 H1121 0.950 . S
C1127 C1126 1.327 . S
C1127 C1131 1.429 . S
C1128 C1111 1.574 . S
C1128 H1122 0.949 . S
C1128 C1132 1.368 . S
C1129 C1110 1.429 . S
C1129 C1123 1.429 . S
C1129 C1130 1.523 . S
C1130 C1111 1.368 . S
C1130 C1124 1.368 . S
C1130 C1129 1.523 . S
C1131 C1115 1.429 . S
C1131 C1127 1.429 . S
C1131 C1132 1.523 . S
C1132 C1116 1.368 . S
C1132 C1128 1.368 . S
C1132 C1131 1.523 . S
H1133 C1108 0.950 . S
H1134 C1110 0.950 . S
H1135 C1111 0.949 . S
H1136 C1113 0.950 . S
H1137 C1115 0.950 . S
C1138 C1139 1.349 . S
C1138 C1140 1.327 . S
C1138 H1163 0.950 . S
C1139 C1138 1.349 . S
C1139 C1155 1.349 . S
C1140 C1138 1.327 . S
C1140 C1159 1.429 . S
C1140 H1164 0.950 . S
C1141 C1158 1.574 . S
C1141 C1160 1.368 . S
C1141 H1165 0.949 . S
H1142 C1146 0.949 . S
C1143 C1144 1.349 . S
C1143 C1145 1.327 . S
C1143 H1166 0.950 . S
C1144 C1143 1.349 . S
C1144 C1156 1.349 . S
C1145 C1143 1.327 . S
C1145 C1161 1.429 . S
C1145 H1167 0.950 . S
C1146 H1142 0.949 . S
C1146 C1154 1.574 . S
C1146 C1162 1.368 . S
H1147 C1155 0.950 . S
H1148 C1153 0.950 . S
H1149 C1154 0.949 . S
H1150 C1156 0.950 . S
H1151 C1157 0.950 . S
H1152 C1158 0.949 . S
C1153 H1148 0.950 . S
C1153 C1155 1.327 . S
C1153 C1159 1.429 . S
C1154 C1146 1.574 . S
C1154 H1149 0.949 . S
C1154 C1160 1.368 . S
C1155 C1139 1.349 . S
C1155 H1147 0.950 . S
C1155 C1153 1.327 . S
C1156 C1144 1.349 . S
C1156 H1150 0.950 . S
C1156 C1157 1.327 . S
C1157 H1151 0.950 . S
C1157 C1156 1.327 . S
C1157 C1161 1.429 . S
C1158 C1141 1.574 . S
C1158 H1152 0.949 . S
C1158 C1162 1.368 . S
C1159 C1140 1.429 . S
C1159 C1153 1.429 . S
C1159 C1160 1.523 . S
C1160 C1141 1.368 . S
C1160 C1154 1.368 . S
C1160 C1159 1.523 . S
C1161 C1145 1.429 . S
C1161 C1157 1.429 . S
C1161 C1162 1.523 . S
C1162 C1146 1.368 . S
C1162 C1158 1.368 . S
C1162 C1161 1.523 . S
H1163 C1138 0.950 . S
H1164 C1140 0.950 . S
H1165 C1141 0.949 . S
H1166 C1143 0.950 . S
H1167 C1145 0.950 . S
C209 C1 1.529 . S
C214 C66 1.518 . S
C239 C53 1.518 . S
C244 C14 1.529 . S
C269 C27 1.529 . S
C274 C92 1.518 . S
C299 C79 1.518 . S
C304 C40 1.529 . S
C329 C170 1.518 . S
C334 C105 1.529 . S
C359 C157 1.518 . S
C364 C118 1.529 . S
C389 C196 1.518 . S
C394 C131 1.529 . S
C419 C144 1.529 . S
C424 C183 1.518 . S
C449 C23 1.515 . S
C454 C10 1.515 . S
C479 C36 1.515 . S
C484 C49 1.515 . S
C509 C62 1.531 . S
C514 C75 1.531 . S
C539 C88 1.531 . S
C544 C101 1.531 . S
C569 C114 1.515 . S
C574 C127 1.515 . S
C599 C153 1.515 . S
C604 C140 1.515 . S
C629 C179 1.531 . S
C634 C166 1.531 . S
C659 C192 1.531 . S
C664 C205 1.531 . S
C689 C122 1.509 . S
C694 C5 1.509 . S
C719 C18 1.509 . S
C724 C109 1.509 . S
C749 C148 1.509 . S
C754 C31 1.509 . S
C779 C44 1.509 . S
C784 C135 1.509 . S
C809 C57 1.530 . S
C814 C174 1.530 . S
C839 C161 1.530 . S
C844 C70 1.530 . S
C869 C83 1.530 . S
C874 C200 1.530 . S
C899 C187 1.530 . S
C904 C96 1.530 . S
C929 C3 1.535 . S
C934 C29 1.535 . S
C959 C42 1.534 . S
C964 C16 1.534 . S
C989 C81 1.514 . S
C994 C55 1.514 . S
C1019 C94 1.512 . S
C1024 C68 1.512 . S
C1049 C133 1.536 . S
C1054 C107 1.536 . S
C1079 C120 1.534 . S
C1084 C146 1.534 . S
C1109 C185 1.513 . S
C1114 C159 1.513 . S
C1139 C172 1.512 . S
C1144 C198 1.512 . S
