# Generated by pormake.
# Topology fch, (5)-cn, num edge types: 1
# Building blocks:
#     Node 0, Type 0, BuildingBlock: BEQFEK_clean_sbu_0, # of connection points: 5
#     Node 1, Type 0, BuildingBlock: BEQFEK_clean_sbu_0, # of connection points: 5
#     Node 2, Type 0, BuildingBlock: BEQFEK_clean_sbu_0, # of connection points: 5
#     Node 3, Type 0, BuildingBlock: BEQFEK_clean_sbu_0, # of connection points: 5
#     Node 4, Type 0, BuildingBlock: BEQFEK_clean_sbu_0, # of connection points: 5
#     Node 5, Type 0, BuildingBlock: BEQFEK_clean_sbu_0, # of connection points: 5
#     Node 6, Type 0, BuildingBlock: BEQFEK_clean_sbu_0, # of connection points: 5
#     Node 7, Type 0, BuildingBlock: BEQFEK_clean_sbu_0, # of connection points: 5
#     Node 8, Type 0, BuildingBlock: BEQFEK_clean_sbu_0, # of connection points: 5
#     Node 9, Type 0, BuildingBlock: BEQFEK_clean_sbu_0, # of connection points: 5
#     Node 10, Type 0, BuildingBlock: BEQFEK_clean_sbu_0, # of connection points: 5
#     Node 11, Type 0, BuildingBlock: BEQFEK_clean_sbu_0, # of connection points: 5
#     Node 12, Type 0, BuildingBlock: BEQFEK_clean_sbu_0, # of connection points: 5
#     Node 13, Type 0, BuildingBlock: BEQFEK_clean_sbu_0, # of connection points: 5
#     Node 14, Type 0, BuildingBlock: BEQFEK_clean_sbu_0, # of connection points: 5
#     Node 15, Type 0, BuildingBlock: BEQFEK_clean_sbu_0, # of connection points: 5
#     Node 16, Type 0, BuildingBlock: BEQFEK_clean_sbu_0, # of connection points: 5
#     Node 17, Type 0, BuildingBlock: BEQFEK_clean_sbu_0, # of connection points: 5
#     Node 18, Type 0, BuildingBlock: BEQFEK_clean_sbu_0, # of connection points: 5
#     Node 19, Type 0, BuildingBlock: BEQFEK_clean_sbu_0, # of connection points: 5
#     Node 20, Type 0, BuildingBlock: BEQFEK_clean_sbu_0, # of connection points: 5
#     Node 21, Type 0, BuildingBlock: BEQFEK_clean_sbu_0, # of connection points: 5
#     Node 22, Type 0, BuildingBlock: BEQFEK_clean_sbu_0, # of connection points: 5
#     Node 23, Type 0, BuildingBlock: BEQFEK_clean_sbu_0, # of connection points: 5
#     Node 24, Type 0, BuildingBlock: BEQFEK_clean_sbu_0, # of connection points: 5
#     Node 25, Type 0, BuildingBlock: BEQFEK_clean_sbu_0, # of connection points: 5
#     Node 26, Type 0, BuildingBlock: BEQFEK_clean_sbu_0, # of connection points: 5
#     Node 27, Type 0, BuildingBlock: BEQFEK_clean_sbu_0, # of connection points: 5
#     Node 28, Type 0, BuildingBlock: BEQFEK_clean_sbu_0, # of connection points: 5
#     Node 29, Type 0, BuildingBlock: BEQFEK_clean_sbu_0, # of connection points: 5
#     Node 30, Type 0, BuildingBlock: BEQFEK_clean_sbu_0, # of connection points: 5
#     Node 31, Type 0, BuildingBlock: BEQFEK_clean_sbu_0, # of connection points: 5
#     Node 32, Type 0, BuildingBlock: BEQFEK_clean_sbu_0, # of connection points: 5
#     Node 33, Type 0, BuildingBlock: BEQFEK_clean_sbu_0, # of connection points: 5
#     Node 34, Type 0, BuildingBlock: BEQFEK_clean_sbu_0, # of connection points: 5
#     Node 35, Type 0, BuildingBlock: BEQFEK_clean_sbu_0, # of connection points: 5
#     Node 36, Type 0, BuildingBlock: BEQFEK_clean_sbu_0, # of connection points: 5
#     Node 37, Type 0, BuildingBlock: BEQFEK_clean_sbu_0, # of connection points: 5
#     Node 38, Type 0, BuildingBlock: BEQFEK_clean_sbu_0, # of connection points: 5
#     Node 39, Type 0, BuildingBlock: BEQFEK_clean_sbu_0, # of connection points: 5
#     Node 40, Type 0, BuildingBlock: BEQFEK_clean_sbu_0, # of connection points: 5
#     Node 41, Type 0, BuildingBlock: BEQFEK_clean_sbu_0, # of connection points: 5
#     Node 42, Type 0, BuildingBlock: BEQFEK_clean_sbu_0, # of connection points: 5
#     Node 43, Type 0, BuildingBlock: BEQFEK_clean_sbu_0, # of connection points: 5
#     Node 44, Type 0, BuildingBlock: BEQFEK_clean_sbu_0, # of connection points: 5
#     Node 45, Type 0, BuildingBlock: BEQFEK_clean_sbu_0, # of connection points: 5
#     Node 46, Type 0, BuildingBlock: BEQFEK_clean_sbu_0, # of connection points: 5
#     Node 47, Type 0, BuildingBlock: BEQFEK_clean_sbu_0, # of connection points: 5
#     Edge 48, Type (0, 0), BuildingBlock: ZUJKAS_clean_linker_0, # of connection points: 2
#     Edge 49, Type (0, 0), BuildingBlock: ZUJKAS_clean_linker_0, # of connection points: 2
#     Edge 50, Type (0, 0), BuildingBlock: ZUJKAS_clean_linker_0, # of connection points: 2
#     Edge 51, Type (0, 0), BuildingBlock: ZUJKAS_clean_linker_0, # of connection points: 2
#     Edge 52, Type (0, 0), BuildingBlock: ZUJKAS_clean_linker_0, # of connection points: 2
#     Edge 53, Type (0, 0), BuildingBlock: ZUJKAS_clean_linker_0, # of connection points: 2
#     Edge 54, Type (0, 0), BuildingBlock: ZUJKAS_clean_linker_0, # of connection points: 2
#     Edge 55, Type (0, 0), BuildingBlock: ZUJKAS_clean_linker_0, # of connection points: 2
#     Edge 56, Type (0, 0), BuildingBlock: ZUJKAS_clean_linker_0, # of connection points: 2
#     Edge 57, Type (0, 0), BuildingBlock: ZUJKAS_clean_linker_0, # of connection points: 2
#     Edge 58, Type (0, 0), BuildingBlock: ZUJKAS_clean_linker_0, # of connection points: 2
#     Edge 59, Type (0, 0), BuildingBlock: ZUJKAS_clean_linker_0, # of connection points: 2
#     Edge 60, Type (0, 0), BuildingBlock: ZUJKAS_clean_linker_0, # of connection points: 2
#     Edge 61, Type (0, 0), BuildingBlock: ZUJKAS_clean_linker_0, # of connection points: 2
#     Edge 62, Type (0, 0), BuildingBlock: ZUJKAS_clean_linker_0, # of connection points: 2
#     Edge 63, Type (0, 0), BuildingBlock: ZUJKAS_clean_linker_0, # of connection points: 2
#     Edge 64, Type (0, 0), BuildingBlock: ZUJKAS_clean_linker_0, # of connection points: 2
#     Edge 65, Type (0, 0), BuildingBlock: ZUJKAS_clean_linker_0, # of connection points: 2
#     Edge 66, Type (0, 0), BuildingBlock: ZUJKAS_clean_linker_0, # of connection points: 2
#     Edge 67, Type (0, 0), BuildingBlock: ZUJKAS_clean_linker_0, # of connection points: 2
#     Edge 68, Type (0, 0), BuildingBlock: ZUJKAS_clean_linker_0, # of connection points: 2
#     Edge 69, Type (0, 0), BuildingBlock: ZUJKAS_clean_linker_0, # of connection points: 2
#     Edge 70, Type (0, 0), BuildingBlock: ZUJKAS_clean_linker_0, # of connection points: 2
#     Edge 71, Type (0, 0), BuildingBlock: ZUJKAS_clean_linker_0, # of connection points: 2
#     Edge 72, Type (0, 0), BuildingBlock: ZUJKAS_clean_linker_0, # of connection points: 2
#     Edge 73, Type (0, 0), BuildingBlock: ZUJKAS_clean_linker_0, # of connection points: 2
#     Edge 74, Type (0, 0), BuildingBlock: ZUJKAS_clean_linker_0, # of connection points: 2
#     Edge 75, Type (0, 0), BuildingBlock: ZUJKAS_clean_linker_0, # of connection points: 2
#     Edge 76, Type (0, 0), BuildingBlock: ZUJKAS_clean_linker_0, # of connection points: 2
#     Edge 77, Type (0, 0), BuildingBlock: ZUJKAS_clean_linker_0, # of connection points: 2
#     Edge 78, Type (0, 0), BuildingBlock: ZUJKAS_clean_linker_0, # of connection points: 2
#     Edge 79, Type (0, 0), BuildingBlock: ZUJKAS_clean_linker_0, # of connection points: 2
#     Edge 80, Type (0, 0), BuildingBlock: ZUJKAS_clean_linker_0, # of connection points: 2
#     Edge 81, Type (0, 0), BuildingBlock: ZUJKAS_clean_linker_0, # of connection points: 2
#     Edge 82, Type (0, 0), BuildingBlock: ZUJKAS_clean_linker_0, # of connection points: 2
#     Edge 83, Type (0, 0), BuildingBlock: ZUJKAS_clean_linker_0, # of connection points: 2
#     Edge 84, Type (0, 0), BuildingBlock: ZUJKAS_clean_linker_0, # of connection points: 2
#     Edge 85, Type (0, 0), BuildingBlock: ZUJKAS_clean_linker_0, # of connection points: 2
#     Edge 86, Type (0, 0), BuildingBlock: ZUJKAS_clean_linker_0, # of connection points: 2
#     Edge 87, Type (0, 0), BuildingBlock: ZUJKAS_clean_linker_0, # of connection points: 2
#     Edge 88, Type (0, 0), BuildingBlock: ZUJKAS_clean_linker_0, # of connection points: 2
#     Edge 89, Type (0, 0), BuildingBlock: ZUJKAS_clean_linker_0, # of connection points: 2
#     Edge 90, Type (0, 0), BuildingBlock: ZUJKAS_clean_linker_0, # of connection points: 2
#     Edge 91, Type (0, 0), BuildingBlock: ZUJKAS_clean_linker_0, # of connection points: 2
#     Edge 92, Type (0, 0), BuildingBlock: ZUJKAS_clean_linker_0, # of connection points: 2
#     Edge 93, Type (0, 0), BuildingBlock: ZUJKAS_clean_linker_0, # of connection points: 2
#     Edge 94, Type (0, 0), BuildingBlock: ZUJKAS_clean_linker_0, # of connection points: 2
#     Edge 95, Type (0, 0), BuildingBlock: ZUJKAS_clean_linker_0, # of connection points: 2
#     Edge 96, Type (0, 0), BuildingBlock: ZUJKAS_clean_linker_0, # of connection points: 2
#     Edge 97, Type (0, 0), BuildingBlock: ZUJKAS_clean_linker_0, # of connection points: 2
#     Edge 98, Type (0, 0), BuildingBlock: ZUJKAS_clean_linker_0, # of connection points: 2
#     Edge 99, Type (0, 0), BuildingBlock: ZUJKAS_clean_linker_0, # of connection points: 2
#     Edge 100, Type (0, 0), BuildingBlock: ZUJKAS_clean_linker_0, # of connection points: 2
#     Edge 101, Type (0, 0), BuildingBlock: ZUJKAS_clean_linker_0, # of connection points: 2
#     Edge 102, Type (0, 0), BuildingBlock: ZUJKAS_clean_linker_0, # of connection points: 2
#     Edge 103, Type (0, 0), BuildingBlock: ZUJKAS_clean_linker_0, # of connection points: 2
#     Edge 104, Type (0, 0), BuildingBlock: ZUJKAS_clean_linker_0, # of connection points: 2
#     Edge 105, Type (0, 0), BuildingBlock: ZUJKAS_clean_linker_0, # of connection points: 2
#     Edge 106, Type (0, 0), BuildingBlock: ZUJKAS_clean_linker_0, # of connection points: 2
#     Edge 107, Type (0, 0), BuildingBlock: ZUJKAS_clean_linker_0, # of connection points: 2
#     Edge 108, Type (0, 0), BuildingBlock: ZUJKAS_clean_linker_0, # of connection points: 2
#     Edge 109, Type (0, 0), BuildingBlock: ZUJKAS_clean_linker_0, # of connection points: 2
#     Edge 110, Type (0, 0), BuildingBlock: ZUJKAS_clean_linker_0, # of connection points: 2
#     Edge 111, Type (0, 0), BuildingBlock: ZUJKAS_clean_linker_0, # of connection points: 2
#     Edge 112, Type (0, 0), BuildingBlock: ZUJKAS_clean_linker_0, # of connection points: 2
#     Edge 113, Type (0, 0), BuildingBlock: ZUJKAS_clean_linker_0, # of connection points: 2
#     Edge 114, Type (0, 0), BuildingBlock: ZUJKAS_clean_linker_0, # of connection points: 2
#     Edge 115, Type (0, 0), BuildingBlock: ZUJKAS_clean_linker_0, # of connection points: 2
#     Edge 116, Type (0, 0), BuildingBlock: ZUJKAS_clean_linker_0, # of connection points: 2
#     Edge 117, Type (0, 0), BuildingBlock: ZUJKAS_clean_linker_0, # of connection points: 2
#     Edge 118, Type (0, 0), BuildingBlock: ZUJKAS_clean_linker_0, # of connection points: 2
#     Edge 119, Type (0, 0), BuildingBlock: ZUJKAS_clean_linker_0, # of connection points: 2
#     Edge 120, Type (0, 0), BuildingBlock: ZUJKAS_clean_linker_0, # of connection points: 2
#     Edge 121, Type (0, 0), BuildingBlock: ZUJKAS_clean_linker_0, # of connection points: 2
#     Edge 122, Type (0, 0), BuildingBlock: ZUJKAS_clean_linker_0, # of connection points: 2
#     Edge 123, Type (0, 0), BuildingBlock: ZUJKAS_clean_linker_0, # of connection points: 2
#     Edge 124, Type (0, 0), BuildingBlock: ZUJKAS_clean_linker_0, # of connection points: 2
#     Edge 125, Type (0, 0), BuildingBlock: ZUJKAS_clean_linker_0, # of connection points: 2
#     Edge 126, Type (0, 0), BuildingBlock: ZUJKAS_clean_linker_0, # of connection points: 2
#     Edge 127, Type (0, 0), BuildingBlock: ZUJKAS_clean_linker_0, # of connection points: 2
#     Edge 128, Type (0, 0), BuildingBlock: ZUJKAS_clean_linker_0, # of connection points: 2
#     Edge 129, Type (0, 0), BuildingBlock: ZUJKAS_clean_linker_0, # of connection points: 2
#     Edge 130, Type (0, 0), BuildingBlock: ZUJKAS_clean_linker_0, # of connection points: 2
#     Edge 131, Type (0, 0), BuildingBlock: ZUJKAS_clean_linker_0, # of connection points: 2
#     Edge 132, Type (0, 0), BuildingBlock: ZUJKAS_clean_linker_0, # of connection points: 2
#     Edge 133, Type (0, 0), BuildingBlock: ZUJKAS_clean_linker_0, # of connection points: 2
#     Edge 134, Type (0, 0), BuildingBlock: ZUJKAS_clean_linker_0, # of connection points: 2
#     Edge 135, Type (0, 0), BuildingBlock: ZUJKAS_clean_linker_0, # of connection points: 2
#     Edge 136, Type (0, 0), BuildingBlock: ZUJKAS_clean_linker_0, # of connection points: 2
#     Edge 137, Type (0, 0), BuildingBlock: ZUJKAS_clean_linker_0, # of connection points: 2
#     Edge 138, Type (0, 0), BuildingBlock: ZUJKAS_clean_linker_0, # of connection points: 2
#     Edge 139, Type (0, 0), BuildingBlock: ZUJKAS_clean_linker_0, # of connection points: 2
#     Edge 140, Type (0, 0), BuildingBlock: ZUJKAS_clean_linker_0, # of connection points: 2
#     Edge 141, Type (0, 0), BuildingBlock: ZUJKAS_clean_linker_0, # of connection points: 2
#     Edge 142, Type (0, 0), BuildingBlock: ZUJKAS_clean_linker_0, # of connection points: 2
#     Edge 143, Type (0, 0), BuildingBlock: ZUJKAS_clean_linker_0, # of connection points: 2
#     Edge 144, Type (0, 0), BuildingBlock: ZUJKAS_clean_linker_0, # of connection points: 2
#     Edge 145, Type (0, 0), BuildingBlock: ZUJKAS_clean_linker_0, # of connection points: 2
#     Edge 146, Type (0, 0), BuildingBlock: ZUJKAS_clean_linker_0, # of connection points: 2
#     Edge 147, Type (0, 0), BuildingBlock: ZUJKAS_clean_linker_0, # of connection points: 2
#     Edge 148, Type (0, 0), BuildingBlock: ZUJKAS_clean_linker_0, # of connection points: 2
#     Edge 149, Type (0, 0), BuildingBlock: ZUJKAS_clean_linker_0, # of connection points: 2
#     Edge 150, Type (0, 0), BuildingBlock: ZUJKAS_clean_linker_0, # of connection points: 2
#     Edge 151, Type (0, 0), BuildingBlock: ZUJKAS_clean_linker_0, # of connection points: 2
#     Edge 152, Type (0, 0), BuildingBlock: ZUJKAS_clean_linker_0, # of connection points: 2
#     Edge 153, Type (0, 0), BuildingBlock: ZUJKAS_clean_linker_0, # of connection points: 2
#     Edge 154, Type (0, 0), BuildingBlock: ZUJKAS_clean_linker_0, # of connection points: 2
#     Edge 155, Type (0, 0), BuildingBlock: ZUJKAS_clean_linker_0, # of connection points: 2
#     Edge 156, Type (0, 0), BuildingBlock: ZUJKAS_clean_linker_0, # of connection points: 2
#     Edge 157, Type (0, 0), BuildingBlock: ZUJKAS_clean_linker_0, # of connection points: 2
#     Edge 158, Type (0, 0), BuildingBlock: ZUJKAS_clean_linker_0, # of connection points: 2
#     Edge 159, Type (0, 0), BuildingBlock: ZUJKAS_clean_linker_0, # of connection points: 2
#     Edge 160, Type (0, 0), BuildingBlock: ZUJKAS_clean_linker_0, # of connection points: 2
#     Edge 161, Type (0, 0), BuildingBlock: ZUJKAS_clean_linker_0, # of connection points: 2
#     Edge 162, Type (0, 0), BuildingBlock: ZUJKAS_clean_linker_0, # of connection points: 2
#     Edge 163, Type (0, 0), BuildingBlock: ZUJKAS_clean_linker_0, # of connection points: 2
#     Edge 164, Type (0, 0), BuildingBlock: ZUJKAS_clean_linker_0, # of connection points: 2
#     Edge 165, Type (0, 0), BuildingBlock: ZUJKAS_clean_linker_0, # of connection points: 2
#     Edge 166, Type (0, 0), BuildingBlock: ZUJKAS_clean_linker_0, # of connection points: 2
#     Edge 167, Type (0, 0), BuildingBlock: ZUJKAS_clean_linker_0, # of connection points: 2
# Relax obj value: 0.828
# Max RMSD: 0.190
# Mean RMSD: 0.190
data_MOF--net-fch--node1-BEQFEK_clean_sbu_0--edge1-ZUJKAS_clean_linker_0
_symmetry_space_group_name_H-M    P1
_symmetry_Int_Tables_number       1
_symmetry_cell_setting            triclinic
loop_
_symmetry_equiv_pos_as_xyz
'x, y, z'
_cell_length_a     92.65251
_cell_length_b     92.648106
_cell_length_c     92.647014
_cell_angle_alpha  89.999753
_cell_angle_beta   90.003498
_cell_angle_gamma 89.994002
loop_
_atom_site_label
_atom_site_type_symbol
_atom_site_fract_x
_atom_site_fract_y
_atom_site_fract_z
_atom_type_partial_charge
Co0 Co 0.0705 0.4255 0.15131 0.0
Co1 Co 0.04392 0.40499 0.15412 0.0
C2 C 0.04093 0.43763 0.15336 0.0
O3 O 0.05448 0.43927 0.15201 0.0
O4 O 0.0354 0.42506 0.15438 0.0
C5 C 0.09176 0.44507 0.15864 0.0
O6 O 0.08366 0.44545 0.17028 0.0
C7 C 0.01806 0.39186 0.14185 0.0
C8 C 0.014 0.37343 0.15643 0.0
C9 C 0.00884 0.38027 0.14415 0.0
N10 N 0.02829 0.39173 0.15213 0.0
N11 N 0.02582 0.38068 0.16081 0.0
C12 C 0.01675 0.40342 0.13061 0.0
H13 H 0.02334 0.41296 0.13347 0.0
H14 H 0.02072 0.39929 0.12011 0.0
H15 H 0.00529 0.40664 0.12926 0.0
C16 C 0.0757 0.40825 0.12533 0.0
N17 N 0.06767 0.41168 0.13689 0.0
N18 N 0.05705 0.40236 0.13829 0.0
C19 C 0.05827 0.39237 0.12773 0.0
C20 C 0.07009 0.39582 0.11916 0.0
C21 C 0.08831 0.41698 0.12024 0.0
H22 H 0.09792 0.41419 0.12682 0.0
H23 H 0.08604 0.42864 0.1217 0.0
H24 H 0.09072 0.41488 0.1087 0.0
O25 O 0.07281 0.41584 0.16987 0.0
O26 O 0.05401 0.40132 0.17288 0.0
H27 H 0.04631 0.37513 0.13763 0.0
H28 H 0.05529 0.37024 0.12103 0.0
C29 C 0.04933 0.37895 0.12671 0.0
H30 H 0.03937 0.38128 0.12052 0.0
H31 H 0.03217 0.37812 0.16976 0.0
O32 O 0.08824 0.43671 0.14836 0.0
C33 C 0.06589 0.40666 0.17733 0.0
Co34 Co 0.58212 0.07053 0.15436 0.0
Co35 Co 0.60092 0.04262 0.15568 0.0
C36 C 0.56865 0.04098 0.15527 0.0
O37 O 0.56786 0.05467 0.15481 0.0
O38 O 0.58085 0.03467 0.15563 0.0
C39 C 0.56176 0.08765 0.14081 0.0
O40 O 0.56169 0.07634 0.13226 0.0
C41 C 0.61111 0.01516 0.14499 0.0
C42 C 0.63279 0.01285 0.15464 0.0
C43 C 0.623 0.00613 0.14554 0.0
N44 N 0.61364 0.02663 0.15344 0.0
N45 N 0.62658 0.02519 0.15927 0.0
C46 C 0.59813 0.01372 0.13545 0.0
H47 H 0.58963 0.00765 0.1413 0.0
H48 H 0.59382 0.02453 0.13263 0.0
H49 H 0.60083 0.00777 0.12541 0.0
C50 C 0.60053 0.07635 0.12899 0.0
N51 N 0.59608 0.06783 0.13987 0.0
N52 N 0.6039 0.05596 0.14009 0.0
C53 C 0.61338 0.05644 0.129 0.0
C54 C 0.61155 0.06938 0.1217 0.0
C55 C 0.5944 0.09095 0.1257 0.0
H56 H 0.592 0.09677 0.13587 0.0
H57 H 0.58424 0.08962 0.11953 0.0
H58 H 0.60187 0.09754 0.11909 0.0
O59 O 0.59188 0.07233 0.17285 0.0
O60 O 0.60477 0.05213 0.17478 0.0
H61 H 0.63096 0.04305 0.13566 0.0
H62 H 0.63176 0.04851 0.11695 0.0
C63 C 0.62446 0.04514 0.12584 0.0
H64 H 0.61898 0.03498 0.12271 0.0
H65 H 0.63129 0.03275 0.16617 0.0
O66 O 0.57054 0.08802 0.15131 0.0
C67 C 0.60053 0.06425 0.17976 0.0
Co68 Co 0.92836 0.5829 0.15322 0.0
Co69 Co 0.95637 0.60148 0.15557 0.0
C70 C 0.95759 0.56908 0.15428 0.0
O71 O 0.94392 0.56836 0.15355 0.0
O72 O 0.96396 0.58123 0.15506 0.0
C73 C 0.91069 0.56227 0.14044 0.0
O74 O 0.92229 0.56076 0.13241 0.0
C75 C 0.98404 0.61131 0.1451 0.0
C76 C 0.98731 0.63225 0.15602 0.0
C77 C 0.99359 0.62274 0.14632 0.0
N78 N 0.97271 0.61382 0.15375 0.0
N79 N 0.97471 0.62633 0.16032 0.0
C80 C 0.98495 0.59878 0.13493 0.0
H81 H 0.97397 0.59501 0.13198 0.0
H82 H 0.99095 0.60176 0.125 0.0
H83 H 0.99071 0.58977 0.14031 0.0
C84 C 0.92347 0.60149 0.12778 0.0
N85 N 0.93151 0.5971 0.13905 0.0
N86 N 0.94319 0.60513 0.13997 0.0
C87 C 0.94297 0.61491 0.12914 0.0
C88 C 0.93046 0.61295 0.12111 0.0
C89 C 0.90976 0.59425 0.12316 0.0
H90 H 0.91239 0.58346 0.11872 0.0
H91 H 0.90393 0.60027 0.11468 0.0
H92 H 0.90258 0.59279 0.13262 0.0
O93 O 0.92665 0.5922 0.172 0.0
O94 O 0.94687 0.60488 0.17472 0.0
H95 H 0.95053 0.63452 0.11893 0.0
H96 H 0.96424 0.62128 0.12296 0.0
C97 C 0.95414 0.62635 0.1269 0.0
H98 H 0.95647 0.63179 0.13729 0.0
H99 H 0.96741 0.63091 0.16756 0.0
O100 O 0.91047 0.57195 0.15011 0.0
C101 C 0.93467 0.60052 0.17937 0.0
Co102 Co 0.42321 0.92933 0.15102 0.0
Co103 Co 0.40401 0.95689 0.15363 0.0
C104 C 0.43653 0.95863 0.15297 0.0
O105 O 0.43758 0.94498 0.15195 0.0
O106 O 0.42422 0.96475 0.15365 0.0
C107 C 0.44242 0.90697 0.15717 0.0
O108 O 0.44394 0.91463 0.16901 0.0
C109 C 0.39296 0.98424 0.14323 0.0
C110 C 0.37183 0.98624 0.1541 0.0
C111 C 0.38091 0.99304 0.14435 0.0
N112 N 0.39115 0.97283 0.15195 0.0
N113 N 0.37855 0.9741 0.15852 0.0
C114 C 0.40539 0.98577 0.13301 0.0
H115 H 0.40996 0.97502 0.13038 0.0
H116 H 0.40197 0.99126 0.12293 0.0
H117 H 0.41395 0.99232 0.13822 0.0
C118 C 0.40544 0.92457 0.12538 0.0
N119 N 0.40949 0.93272 0.13665 0.0
N120 N 0.40095 0.94403 0.13769 0.0
C121 C 0.39107 0.94336 0.12696 0.0
C122 C 0.39359 0.93096 0.1189 0.0
C123 C 0.41282 0.91086 0.12106 0.0
H124 H 0.41037 0.90237 0.12915 0.0
H125 H 0.42467 0.91254 0.12095 0.0
H126 H 0.40931 0.90714 0.11023 0.0
O127 O 0.41339 0.92699 0.16945 0.0
O128 O 0.40025 0.94686 0.17242 0.0
H129 H 0.37333 0.95535 0.13561 0.0
H130 H 0.3709 0.94978 0.11706 0.0
C131 C 0.37883 0.95372 0.12512 0.0
H132 H 0.38313 0.96428 0.12147 0.0
H133 H 0.37439 0.96653 0.16574 0.0
O134 O 0.4337 0.91127 0.14751 0.0
C135 C 0.4047 0.9346 0.17681 0.0
Co136 Co 0.06548 0.57382 0.84066 0.0
Co137 Co 0.03954 0.59533 0.84048 0.0
C138 C 0.03494 0.56337 0.838 0.0
O139 O 0.04849 0.56138 0.83817 0.0
O140 O 0.02967 0.57604 0.83897 0.0
C141 C 0.08009 0.549 0.84965 0.0
O142 O 0.06734 0.54634 0.85523 0.0
C143 C 0.01418 0.60796 0.8535 0.0
C144 C 0.01247 0.62943 0.84324 0.0
C145 C 0.00623 0.62063 0.85358 0.0
N146 N 0.02481 0.6093 0.84377 0.0
N147 N 0.02372 0.62211 0.83757 0.0
C148 C 0.01147 0.5944 0.86188 0.0
H149 H 0.00594 0.58653 0.85474 0.0
H150 H 0.02188 0.58952 0.86525 0.0
H151 H 0.00453 0.59623 0.87143 0.0
C152 C 0.0714 0.58786 0.86846 0.0
N153 N 0.06327 0.5861 0.85657 0.0
N154 N 0.05279 0.59569 0.85649 0.0
C155 C 0.0541 0.60406 0.86839 0.0
C156 C 0.06582 0.59922 0.87639 0.0
C157 C 0.08484 0.57946 0.8716 0.0
H158 H 0.09167 0.57898 0.86178 0.0
H159 H 0.08185 0.56827 0.87462 0.0
H160 H 0.09118 0.58434 0.8805 0.0
O161 O 0.0689 0.58544 0.82351 0.0
O162 O 0.04987 0.60005 0.82198 0.0
H163 H 0.04225 0.62302 0.86239 0.0
H164 H 0.04909 0.62332 0.88067 0.0
C165 C 0.04437 0.6164 0.87213 0.0
H166 H 0.03397 0.6121 0.87618 0.0
H167 H 0.03076 0.62593 0.82966 0.0
O168 O 0.08214 0.56082 0.84303 0.0
C169 C 0.06188 0.59534 0.81715 0.0
Co170 Co 0.41789 0.07212 0.84444 0.0
Co171 Co 0.39935 0.0441 0.84243 0.0
C172 C 0.43171 0.04281 0.84325 0.0
O173 O 0.43243 0.05649 0.84406 0.0
O174 O 0.41956 0.03644 0.8425 0.0
C175 C 0.43778 0.08994 0.8581 0.0
O176 O 0.43849 0.0786 0.8666 0.0
C177 C 0.38944 0.0161 0.85217 0.0
C178 C 0.36764 0.01413 0.84269 0.0
C179 C 0.37757 0.00707 0.85136 0.0
N180 N 0.38677 0.02793 0.84427 0.0
N181 N 0.37375 0.02669 0.83854 0.0
C182 C 0.40255 0.01423 0.86143 0.0
H183 H 0.40672 0.02491 0.86492 0.0
H184 H 0.40008 0.00759 0.87109 0.0
H185 H 0.41106 0.00871 0.85508 0.0
C186 C 0.39906 0.07742 0.86962 0.0
N187 N 0.40377 0.06908 0.8587 0.0
N188 N 0.39606 0.05715 0.8582 0.0
C189 C 0.3864 0.0574 0.86914 0.0
C190 C 0.38797 0.07027 0.87663 0.0
C191 C 0.40504 0.092 0.87321 0.0
H192 H 0.40723 0.09811 0.86316 0.0
H193 H 0.4153 0.09065 0.87921 0.0
H194 H 0.3976 0.09834 0.8801 0.0
O195 O 0.40838 0.07399 0.82584 0.0
O196 O 0.3955 0.05385 0.82346 0.0
H197 H 0.36876 0.04428 0.86213 0.0
H198 H 0.36821 0.04888 0.88108 0.0
C199 C 0.37539 0.04594 0.87196 0.0
H200 H 0.38094 0.03565 0.87451 0.0
H201 H 0.36894 0.03452 0.83203 0.0
O202 O 0.42892 0.08992 0.84768 0.0
C203 C 0.3998 0.06604 0.8187 0.0
Co204 Co 0.92502 0.41612 0.84493 0.0
Co205 Co 0.95373 0.39851 0.84335 0.0
C206 C 0.95393 0.43084 0.84413 0.0
O207 O 0.94023 0.43106 0.84467 0.0
O208 O 0.96076 0.41892 0.84365 0.0
C209 C 0.90674 0.43561 0.85841 0.0
O210 O 0.91792 0.43628 0.8671 0.0
C211 C 0.98125 0.38868 0.85459 0.0
C212 C 0.9854 0.36854 0.84249 0.0
C213 C 0.99103 0.37743 0.85313 0.0
N214 N 0.97026 0.38642 0.84543 0.0
N215 N 0.97277 0.37438 0.8382 0.0
C216 C 0.98267 0.40207 0.86355 0.0
H217 H 0.98612 0.41108 0.85646 0.0
H218 H 0.97202 0.405 0.86819 0.0
H219 H 0.99074 0.40098 0.87227 0.0
C220 C 0.91994 0.39712 0.87 0.0
N221 N 0.92828 0.40204 0.85918 0.0
N222 N 0.94044 0.39468 0.85884 0.0
C223 C 0.94031 0.38502 0.86979 0.0
C224 C 0.92731 0.38625 0.87713 0.0
C225 C 0.90523 0.40285 0.8735 0.0
H226 H 0.89921 0.40509 0.86341 0.0
H227 H 0.90636 0.41304 0.87965 0.0
H228 H 0.8989 0.39524 0.8802 0.0
O229 O 0.92375 0.40666 0.82626 0.0
O230 O 0.94447 0.39466 0.82409 0.0
H231 H 0.95498 0.36862 0.86274 0.0
H232 H 0.94866 0.36635 0.88106 0.0
C233 C 0.95204 0.37435 0.87282 0.0
H234 H 0.96171 0.38015 0.87682 0.0
H235 H 0.96589 0.37016 0.83035 0.0
O236 O 0.90696 0.42683 0.84792 0.0
C237 C 0.9322 0.39853 0.81916 0.0
Co238 Co 0.57561 0.92989 0.8441 0.0
Co239 Co 0.59597 0.95674 0.84354 0.0
C240 C 0.56334 0.95954 0.84286 0.0
O241 O 0.56177 0.94592 0.84334 0.0
O242 O 0.57589 0.96521 0.84285 0.0
C243 C 0.55369 0.9102 0.83794 0.0
O244 O 0.55031 0.92035 0.82863 0.0
C245 C 0.60849 0.98207 0.8574 0.0
C246 C 0.62751 0.98678 0.8438 0.0
C247 C 0.62012 0.99143 0.85596 0.0
N248 N 0.60913 0.97226 0.84675 0.0
N249 N 0.62054 0.97509 0.83867 0.0
C250 C 0.59643 0.98291 0.86814 0.0
H251 H 0.58717 0.97619 0.86474 0.0
H252 H 0.60018 0.9788 0.87873 0.0
H253 H 0.59292 0.99427 0.86957 0.0
C254 C 0.59134 0.92386 0.87083 0.0
N255 N 0.58859 0.93229 0.85937 0.0
N256 N 0.59797 0.94293 0.85887 0.0
C257 C 0.60739 0.94128 0.86989 0.0
C258 C 0.60346 0.92916 0.87785 0.0
C259 C 0.58213 0.91129 0.87512 0.0
H260 H 0.57061 0.91379 0.87303 0.0
H261 H 0.58346 0.90863 0.88672 0.0
H262 H 0.58516 0.90176 0.86853 0.0
O263 O 0.58634 0.92817 0.82608 0.0
O264 O 0.60044 0.94754 0.82453 0.0
H265 H 0.62916 0.94395 0.87777 0.0
H266 H 0.61808 0.95984 0.87846 0.0
C267 C 0.62073 0.95016 0.87195 0.0
H268 H 0.62505 0.95368 0.86137 0.0
H269 H 0.62352 0.96911 0.8296 0.0
O270 O 0.56459 0.9119 0.84607 0.0
C271 C 0.59571 0.93566 0.81946 0.0
Co272 Co 0.15455 0.06946 0.41812 0.0
Co273 Co 0.1559 0.04116 0.39988 0.0
C274 C 0.1574 0.04035 0.43218 0.0
O275 O 0.15653 0.05402 0.43263 0.0
O276 O 0.15724 0.03368 0.42016 0.0
C277 C 0.14188 0.08683 0.43897 0.0
O278 O 0.1338 0.07524 0.44019 0.0
C279 C 0.14582 0.01304 0.3903 0.0
C280 C 0.15405 0.01156 0.36797 0.0
C281 C 0.14588 0.00428 0.37817 0.0
N282 N 0.15363 0.02491 0.38745 0.0
N283 N 0.15865 0.02392 0.37413 0.0
C284 C 0.13722 0.01102 0.40384 0.0
H285 H 0.13432 0.02164 0.40855 0.0
H286 H 0.12724 0.00476 0.40169 0.0
H287 H 0.14385 0.00503 0.41182 0.0
C288 C 0.12737 0.07332 0.402 0.0
N289 N 0.13926 0.06572 0.40535 0.0
N290 N 0.13963 0.05383 0.39754 0.0
C291 C 0.12777 0.05353 0.38902 0.0
C292 C 0.11965 0.0658 0.39171 0.0
C293 C 0.12375 0.08793 0.40788 0.0
H294 H 0.13373 0.09432 0.40952 0.0
H295 H 0.11815 0.08668 0.41838 0.0
H296 H 0.11647 0.09389 0.40047 0.0
O297 O 0.17227 0.07176 0.40715 0.0
O298 O 0.17441 0.05127 0.39479 0.0
H299 H 0.13347 0.03983 0.37133 0.0
H300 H 0.11453 0.0445 0.37203 0.0
C301 C 0.12416 0.04175 0.3786 0.0
H302 H 0.12196 0.03166 0.38463 0.0
H303 H 0.16486 0.03186 0.36911 0.0
O304 O 0.15163 0.08718 0.42938 0.0
C305 C 0.17906 0.06373 0.39837 0.0
Co306 Co 0.9301 0.14862 0.42563 0.0
Co307 Co 0.95598 0.15345 0.40462 0.0
C308 C 0.95957 0.15268 0.43729 0.0
O309 O 0.94619 0.15039 0.43917 0.0
O310 O 0.96479 0.15412 0.42462 0.0
C311 C 0.90685 0.15464 0.44386 0.0
O312 O 0.91238 0.16765 0.44282 0.0
C313 C 0.98156 0.14161 0.3911 0.0
C314 C 0.98606 0.15669 0.3732 0.0
C315 C 0.99086 0.14405 0.37962 0.0
N316 N 0.97158 0.15212 0.39128 0.0
N317 N 0.9743 0.16113 0.38055 0.0
C318 C 0.98252 0.12997 0.40229 0.0
H319 H 0.97609 0.13278 0.41196 0.0
H320 H 0.97814 0.11976 0.39785 0.0
H321 H 0.99394 0.1281 0.4054 0.0
C322 C 0.92598 0.12284 0.40798 0.0
N323 N 0.93366 0.13454 0.41168 0.0
N324 N 0.94375 0.13693 0.40198 0.0
C325 C 0.94247 0.12691 0.39144 0.0
C326 C 0.93119 0.11765 0.39494 0.0
C327 C 0.91381 0.11693 0.41682 0.0
H328 H 0.91639 0.11792 0.42846 0.0
H329 H 0.91173 0.10542 0.41424 0.0
H330 H 0.90391 0.12329 0.41463 0.0
O331 O 0.92646 0.16695 0.41594 0.0
O332 O 0.94472 0.17157 0.40113 0.0
H333 H 0.94403 0.12228 0.36865 0.0
H334 H 0.96068 0.12114 0.37849 0.0
C335 C 0.95048 0.1273 0.37741 0.0
H336 H 0.95307 0.13858 0.3744 0.0
H337 H 0.96816 0.17028 0.37827 0.0
O338 O 0.91273 0.14431 0.43702 0.0
C339 C 0.9326 0.17499 0.40669 0.0
Co340 Co 0.84706 0.92894 0.42139 0.0
Co341 Co 0.84405 0.95599 0.40152 0.0
C342 C 0.84508 0.95878 0.43378 0.0
O343 O 0.8461 0.94518 0.43506 0.0
O344 O 0.84428 0.96463 0.42137 0.0
C345 C 0.86019 0.91313 0.44329 0.0
O346 O 0.86765 0.92516 0.44421 0.0
C347 C 0.85452 0.98294 0.39012 0.0
C348 C 0.84337 0.98526 0.36916 0.0
C349 C 0.85337 0.99184 0.37815 0.0
N350 N 0.84558 0.9717 0.38838 0.0
N351 N 0.83884 0.97316 0.37588 0.0
C352 C 0.865 0.9842 0.40237 0.0
H353 H 0.86756 0.97337 0.4068 0.0
H354 H 0.87511 0.98955 0.39882 0.0
H355 H 0.86006 0.99076 0.41109 0.0
C356 C 0.8725 0.92371 0.40299 0.0
N357 N 0.86122 0.93183 0.40716 0.0
N358 N 0.85996 0.94303 0.3985 0.0
C359 C 0.87054 0.94236 0.38848 0.0
C360 C 0.87878 0.93008 0.39098 0.0
C361 C 0.8773 0.91034 0.41071 0.0
H362 H 0.88116 0.91333 0.42162 0.0
H363 H 0.88624 0.90471 0.40513 0.0
H364 H 0.86803 0.90287 0.41196 0.0
O365 O 0.82842 0.92614 0.41198 0.0
O366 O 0.82526 0.94578 0.39848 0.0
H367 H 0.87976 0.94847 0.36788 0.0
H368 H 0.87625 0.96311 0.38022 0.0
C369 C 0.87214 0.95264 0.37613 0.0
H370 H 0.86149 0.95449 0.37101 0.0
H371 H 0.83141 0.96574 0.3718 0.0
O372 O 0.85082 0.91183 0.43339 0.0
C373 C 0.82091 0.93362 0.40327 0.0
Co374 Co 0.06716 0.84208 0.42031 0.0
Co375 Co 0.04062 0.84059 0.3996 0.0
C376 C 0.03711 0.83766 0.43162 0.0
O377 O 0.05068 0.83868 0.43319 0.0
O378 O 0.03141 0.83834 0.41913 0.0
C379 C 0.08158 0.85211 0.44463 0.0
O380 O 0.06875 0.85771 0.44688 0.0
C381 C 0.01341 0.85091 0.3883 0.0
C382 C 0.01332 0.84329 0.3657 0.0
C383 C 0.00546 0.85125 0.37564 0.0
N384 N 0.02536 0.84306 0.38603 0.0
N385 N 0.02522 0.83839 0.37254 0.0
C386 C 0.01066 0.8593 0.40185 0.0
H387 H 0.02099 0.86187 0.40733 0.0
H388 H 0.00479 0.86947 0.39948 0.0
H389 H 0.00398 0.85267 0.40926 0.0
C390 C 0.07127 0.87012 0.40606 0.0
N391 N 0.06379 0.85788 0.40816 0.0
N392 N 0.05295 0.85728 0.39899 0.0
C393 C 0.05334 0.86922 0.3906 0.0
C394 C 0.06487 0.87776 0.39494 0.0
C395 C 0.08495 0.87383 0.41383 0.0
H396 H 0.09206 0.86422 0.41431 0.0
H397 H 0.08233 0.8771 0.42504 0.0
H398 H 0.09083 0.88277 0.40845 0.0
O399 O 0.07107 0.82506 0.40868 0.0
O400 O 0.0517 0.8226 0.39469 0.0
H401 H 0.04229 0.863 0.3713 0.0
H402 H 0.04621 0.8821 0.37242 0.0
C403 C 0.04296 0.87241 0.37865 0.0
H404 H 0.0321 0.87436 0.38328 0.0
H405 H 0.03343 0.83226 0.36789 0.0
O406 O 0.08388 0.84518 0.43305 0.0
C407 C 0.06404 0.8183 0.39905 0.0
Co408 Co 0.15813 0.93135 0.57751 0.0
Co409 Co 0.15883 0.95798 0.59817 0.0
C410 C 0.16192 0.96164 0.56627 0.0
O411 O 0.16148 0.94803 0.56482 0.0
O412 O 0.16073 0.96743 0.5787 0.0
C413 C 0.1485 0.91718 0.55291 0.0
O414 O 0.14291 0.93003 0.55075 0.0
C415 C 0.1478 0.98447 0.61092 0.0
C416 C 0.15685 0.98404 0.633 0.0
C417 C 0.14777 0.99179 0.624 0.0
N418 N 0.15623 0.97276 0.61225 0.0
N419 N 0.16172 0.9726 0.62543 0.0
C420 C 0.14064 0.98872 0.59706 0.0
H421 H 0.1491 0.99117 0.58896 0.0
H422 H 0.13423 0.97952 0.59284 0.0
H423 H 0.13373 0.9984 0.59819 0.0
C424 C 0.12998 0.92674 0.59137 0.0
N425 N 0.14214 0.93443 0.58948 0.0
N426 N 0.14239 0.94528 0.59866 0.0
C427 C 0.13032 0.94468 0.60685 0.0
C428 C 0.12205 0.93301 0.60236 0.0
C429 C 0.12656 0.91307 0.58347 0.0
H430 H 0.13628 0.90609 0.58307 0.0
H431 H 0.1234 0.91572 0.57223 0.0
H432 H 0.11763 0.90704 0.58869 0.0
O433 O 0.17504 0.9275 0.58932 0.0
O434 O 0.17702 0.94717 0.60296 0.0
H435 H 0.13609 0.95622 0.62602 0.0
H436 H 0.11721 0.95138 0.62502 0.0
C437 C 0.1267 0.95502 0.61871 0.0
H438 H 0.12419 0.96572 0.61399 0.0
H439 H 0.16854 0.96455 0.62933 0.0
O440 O 0.1553 0.91475 0.56454 0.0
C441 C 0.18158 0.93483 0.59886 0.0
Co442 Co 0.07386 0.15419 0.58122 0.0
Co443 Co 0.04595 0.15538 0.60005 0.0
C444 C 0.04435 0.15515 0.56774 0.0
O445 O 0.05804 0.15482 0.56697 0.0
O446 O 0.038 0.15531 0.57993 0.0
C447 C 0.09128 0.14099 0.56077 0.0
O448 O 0.08003 0.13236 0.56039 0.0
C449 C 0.01893 0.14403 0.61099 0.0
C450 C 0.01616 0.15518 0.6319 0.0
C451 C 0.00996 0.14494 0.62294 0.0
N452 N 0.03006 0.15308 0.61292 0.0
N453 N 0.02836 0.15977 0.62541 0.0
C454 C 0.01665 0.13557 0.59739 0.0
H455 H 0.01258 0.14299 0.58892 0.0
H456 H 0.02709 0.1311 0.59357 0.0
H457 H 0.00869 0.12678 0.59868 0.0
C458 C 0.07918 0.12804 0.59864 0.0
N459 N 0.07104 0.13946 0.59489 0.0
N460 N 0.05932 0.13976 0.60294 0.0
C461 C 0.05965 0.12832 0.61202 0.0
C462 C 0.07216 0.12051 0.60942 0.0
C463 C 0.0939 0.12487 0.59277 0.0
H464 H 0.0997 0.13505 0.59039 0.0
H465 H 0.09284 0.11851 0.58268 0.0
H466 H 0.10034 0.11844 0.60056 0.0
O467 O 0.07566 0.17256 0.59117 0.0
O468 O 0.05539 0.17453 0.6039 0.0
H469 H 0.0455 0.1344 0.62925 0.0
H470 H 0.05149 0.11584 0.63003 0.0
C471 C 0.04812 0.12472 0.62274 0.0
H472 H 0.03826 0.12128 0.61691 0.0
H473 H 0.03555 0.16739 0.62954 0.0
O474 O 0.09143 0.15135 0.5697 0.0
C475 C 0.06755 0.17949 0.59976 0.0
Co476 Co 0.84374 0.07073 0.57899 0.0
Co477 Co 0.84364 0.0431 0.59824 0.0
C478 C 0.84249 0.04133 0.56575 0.0
O479 O 0.84263 0.05502 0.56474 0.0
O480 O 0.8429 0.03513 0.57804 0.0
C481 C 0.83625 0.09198 0.55901 0.0
O482 O 0.82509 0.08337 0.55742 0.0
C483 C 0.85582 0.01636 0.60924 0.0
C484 C 0.84588 0.01432 0.63084 0.0
C485 C 0.85569 0.00786 0.62158 0.0
N486 N 0.84674 0.02746 0.61124 0.0
N487 N 0.84077 0.02618 0.62413 0.0
C488 C 0.86357 0.01367 0.5953 0.0
H489 H 0.85551 0.01095 0.5869 0.0
H490 H 0.86915 0.02368 0.59179 0.0
H491 H 0.87136 0.00464 0.59597 0.0
C492 C 0.87103 0.07592 0.59396 0.0
N493 N 0.8592 0.0679 0.59157 0.0
N494 N 0.85921 0.05663 0.60022 0.0
C495 C 0.87114 0.05729 0.60862 0.0
C496 C 0.87901 0.06947 0.6048 0.0
C497 C 0.87424 0.08977 0.58628 0.0
H498 H 0.86502 0.09729 0.58767 0.0
H499 H 0.87542 0.0876 0.57456 0.0
H500 H 0.88418 0.095 0.5904 0.0
O501 O 0.82594 0.07239 0.58995 0.0
O502 O 0.82463 0.0523 0.60302 0.0
H503 H 0.86566 0.04389 0.62664 0.0
H504 H 0.88413 0.05023 0.6267 0.0
C505 C 0.87515 0.04636 0.6198 0.0
H506 H 0.87863 0.03628 0.61437 0.0
H507 H 0.83335 0.03348 0.62842 0.0
O508 O 0.84596 0.08873 0.56812 0.0
C509 C 0.81946 0.0644 0.59899 0.0
Co510 Co 0.92853 0.84156 0.57927 0.0
Co511 Co 0.95699 0.84186 0.59737 0.0
C512 C 0.95753 0.83936 0.56504 0.0
O513 O 0.94382 0.83974 0.56463 0.0
O514 O 0.96426 0.84013 0.57702 0.0
C515 C 0.90805 0.83447 0.55863 0.0
O516 O 0.91743 0.82403 0.55655 0.0
C517 C 0.98493 0.85304 0.60643 0.0
C518 C 0.98663 0.84566 0.62905 0.0
C519 C 0.99374 0.85356 0.61852 0.0
N520 N 0.9732 0.84514 0.60962 0.0
N521 N 0.97432 0.84065 0.62312 0.0
C522 C 0.98678 0.86111 0.59255 0.0
H523 H 0.9761 0.86367 0.58778 0.0
H524 H 0.9929 0.87125 0.59428 0.0
H525 H 0.99282 0.85425 0.58482 0.0
C526 C 0.92414 0.86933 0.59361 0.0
N527 N 0.93201 0.85742 0.59118 0.0
N528 N 0.94374 0.8577 0.59919 0.0
C529 C 0.94359 0.86994 0.60714 0.0
C530 C 0.93122 0.87771 0.60374 0.0
C531 C 0.90977 0.87216 0.58677 0.0
H532 H 0.90271 0.86261 0.58827 0.0
H533 H 0.91126 0.87378 0.575 0.0
H534 H 0.90437 0.88176 0.59146 0.0
O535 O 0.92706 0.82418 0.5909 0.0
O536 O 0.9477 0.82316 0.60314 0.0
H537 H 0.95717 0.86545 0.62527 0.0
H538 H 0.95234 0.88429 0.62341 0.0
C539 C 0.95521 0.8743 0.61746 0.0
H540 H 0.96534 0.87624 0.61141 0.0
H541 H 0.96652 0.83448 0.62839 0.0
O542 O 0.91036 0.84364 0.56856 0.0
C543 C 0.9354 0.81796 0.59982 0.0
Co544 Co 0.41899 0.1549 0.06888 0.0
Co545 Co 0.39975 0.15698 0.04125 0.0
C546 C 0.43206 0.1576 0.03933 0.0
O547 O 0.433 0.15664 0.05298 0.0
O548 O 0.4198 0.15779 0.03312 0.0
C549 C 0.43999 0.14137 0.08539 0.0
O550 O 0.44062 0.13346 0.07363 0.0
C551 C 0.3885 0.1465 0.01387 0.0
C552 C 0.36673 0.15618 0.0128 0.0
C553 C 0.37596 0.1468 0.00568 0.0
N554 N 0.38663 0.15499 0.02546 0.0
N555 N 0.37365 0.16087 0.02471 0.0
C556 C 0.40241 0.13891 0.01058 0.0
H557 H 0.41094 0.14711 0.00884 0.0
H558 H 0.40569 0.13225 0.01998 0.0
H559 H 0.40181 0.13216 0.00075 0.0
C560 C 0.4023 0.1281 0.07312 0.0
N561 N 0.40569 0.13997 0.06547 0.0
N562 N 0.39742 0.14067 0.05392 0.0
C563 C 0.38852 0.12908 0.05389 0.0
C564 C 0.39149 0.12074 0.06596 0.0
C565 C 0.40848 0.12432 0.08757 0.0
H566 H 0.41059 0.13425 0.09389 0.0
H567 H 0.41876 0.1184 0.08603 0.0
H568 H 0.40102 0.11728 0.09375 0.0
O569 O 0.40857 0.17289 0.07171 0.0
O570 O 0.39549 0.17555 0.05173 0.0
H571 H 0.37068 0.13558 0.04072 0.0
H572 H 0.37049 0.11671 0.04566 0.0
C573 C 0.37748 0.12591 0.04254 0.0
H574 H 0.38302 0.12316 0.03231 0.0
H575 H 0.3694 0.16781 0.03249 0.0
O576 O 0.43074 0.15143 0.08618 0.0
C577 C 0.39968 0.18 0.06408 0.0
Co578 Co 0.42122 0.84281 0.93184 0.0
Co579 Co 0.39901 0.84279 0.95721 0.0
C580 C 0.43071 0.84055 0.96268 0.0
O581 O 0.43317 0.84023 0.94922 0.0
O582 O 0.41798 0.84206 0.9676 0.0
C583 C 0.44586 0.85303 0.91812 0.0
O584 O 0.44695 0.85982 0.93052 0.0
C585 C 0.38556 0.85587 0.9821 0.0
C586 C 0.36489 0.84418 0.98436 0.0
C587 C 0.37311 0.85513 0.99038 0.0
N588 N 0.38463 0.846 0.97154 0.0
N589 N 0.37225 0.83904 0.97289 0.0
C590 C 0.39885 0.86471 0.98475 0.0
H591 H 0.40656 0.85821 0.99121 0.0
H592 H 0.40412 0.86739 0.97433 0.0
H593 H 0.39655 0.87475 0.99077 0.0
C594 C 0.40613 0.86992 0.92467 0.0
N595 N 0.40843 0.85853 0.93338 0.0
N596 N 0.39857 0.85833 0.9436 0.0
C597 C 0.38957 0.86964 0.94162 0.0
C598 C 0.39406 0.87732 0.92956 0.0
C599 C 0.4156 0.87369 0.91211 0.0
H600 H 0.42671 0.87561 0.91606 0.0
H601 H 0.412 0.88357 0.90643 0.0
H602 H 0.41591 0.86451 0.90443 0.0
O603 O 0.41006 0.82539 0.92834 0.0
O604 O 0.39531 0.82383 0.94727 0.0
H605 H 0.36874 0.87979 0.94465 0.0
H606 H 0.37932 0.87732 0.96078 0.0
C607 C 0.37624 0.87237 0.95033 0.0
H608 H 0.37059 0.86206 0.9525 0.0
H609 H 0.36887 0.83075 0.96607 0.0
O610 O 0.43491 0.84515 0.91576 0.0
C611 C 0.40031 0.81886 0.93543 0.0
Co612 Co 0.15946 0.41965 0.93143 0.0
Co613 Co 0.15757 0.39745 0.95671 0.0
C614 C 0.16187 0.42889 0.96237 0.0
O615 O 0.16275 0.43129 0.94892 0.0
O616 O 0.15927 0.41631 0.96723 0.0
C617 C 0.15181 0.44542 0.918 0.0
O618 O 0.14622 0.44758 0.93086 0.0
C619 C 0.14322 0.38433 0.98115 0.0
C620 C 0.15484 0.36374 0.98426 0.0
C621 C 0.14368 0.37208 0.98968 0.0
N622 N 0.15346 0.38324 0.97098 0.0
N623 N 0.16038 0.37089 0.97284 0.0
C624 C 0.13402 0.39746 0.9833 0.0
H625 H 0.13814 0.40362 0.99271 0.0
H626 H 0.13432 0.40446 0.97359 0.0
H627 H 0.12269 0.39441 0.9856 0.0
C628 C 0.1312 0.40707 0.92418 0.0
N629 N 0.14281 0.40812 0.93283 0.0
N630 N 0.14215 0.39813 0.94291 0.0
C631 C 0.13006 0.39021 0.94081 0.0
C632 C 0.12269 0.39576 0.92899 0.0
C633 C 0.12895 0.41597 0.91089 0.0
H634 H 0.13904 0.41623 0.90446 0.0
H635 H 0.12628 0.4272 0.91409 0.0
H636 H 0.12011 0.41166 0.90406 0.0
O637 O 0.17602 0.4073 0.92794 0.0
O638 O 0.1764 0.39259 0.94697 0.0
H639 H 0.13517 0.37088 0.9525 0.0
H640 H 0.1174 0.37088 0.94442 0.0
C641 C 0.12563 0.37761 0.9499 0.0
H642 H 0.12087 0.38163 0.9601 0.0
H643 H 0.16898 0.36743 0.96644 0.0
O644 O 0.15799 0.43349 0.91535 0.0
C645 C 0.1818 0.39716 0.93514 0.0
Co646 Co 0.57887 0.15669 0.92984 0.0
Co647 Co 0.59797 0.15785 0.95761 0.0
C648 C 0.56568 0.15878 0.95942 0.0
O649 O 0.56484 0.15821 0.94575 0.0
O650 O 0.5779 0.15864 0.96574 0.0
C651 C 0.55766 0.14409 0.91287 0.0
O652 O 0.55676 0.13586 0.92439 0.0
C653 C 0.60921 0.14698 0.98491 0.0
C654 C 0.63133 0.15588 0.98555 0.0
C655 C 0.62192 0.14684 0.99285 0.0
N656 N 0.61116 0.1554 0.97327 0.0
N657 N 0.62435 0.16082 0.97377 0.0
C658 C 0.59512 0.1399 0.98848 0.0
H659 H 0.58685 0.14839 0.99008 0.0
H660 H 0.59156 0.13312 0.97927 0.0
H661 H 0.5956 0.13338 0.99847 0.0
C662 C 0.59506 0.12969 0.92511 0.0
N663 N 0.59194 0.14152 0.93293 0.0
N664 N 0.60011 0.14178 0.94457 0.0
C665 C 0.60862 0.1299 0.94451 0.0
C666 C 0.60554 0.12188 0.93226 0.0
C667 C 0.58875 0.12624 0.91064 0.0
H668 H 0.58685 0.13629 0.90445 0.0
H669 H 0.57834 0.12052 0.91214 0.0
H670 H 0.59604 0.1191 0.90436 0.0
O671 O 0.58948 0.17456 0.9275 0.0
O672 O 0.60244 0.17665 0.94763 0.0
H673 H 0.62651 0.13534 0.95807 0.0
H674 H 0.62581 0.11653 0.95297 0.0
C675 C 0.61925 0.12606 0.95604 0.0
H676 H 0.61338 0.12355 0.96615 0.0
H677 H 0.6287 0.16759 0.9659 0.0
O678 O 0.56715 0.15393 0.91241 0.0
C679 C 0.59839 0.1814 0.93534 0.0
Co680 Co 0.84514 0.5787 0.92944 0.0
Co681 Co 0.84304 0.598 0.95698 0.0
C682 C 0.84378 0.56565 0.95906 0.0
O683 O 0.8445 0.56464 0.9454 0.0
O684 O 0.84317 0.57795 0.96518 0.0
C685 C 0.85777 0.55751 0.91217 0.0
O686 O 0.86585 0.55614 0.92375 0.0
C687 C 0.85369 0.60902 0.98423 0.0
C688 C 0.84393 0.63072 0.98577 0.0
C689 C 0.85324 0.62131 0.99272 0.0
N690 N 0.84502 0.611 0.9728 0.0
N691 N 0.83907 0.62393 0.97383 0.0
C692 C 0.86341 0.59623 0.98602 0.0
H693 H 0.86604 0.59147 0.97535 0.0
H694 H 0.87354 0.59929 0.99163 0.0
H695 H 0.85778 0.58794 0.99258 0.0
C696 C 0.8708 0.59679 0.92405 0.0
N697 N 0.85955 0.59269 0.93227 0.0
N698 N 0.85883 0.60095 0.94381 0.0
C699 C 0.86984 0.61052 0.94335 0.0
C700 C 0.8777 0.60822 0.93081 0.0
C701 C 0.87507 0.58948 0.91027 0.0
H702 H 0.86541 0.58789 0.90338 0.0
H703 H 0.8797 0.57876 0.91283 0.0
H704 H 0.88329 0.59561 0.90416 0.0
O705 O 0.82669 0.58843 0.92725 0.0
O706 O 0.82409 0.60172 0.9471 0.0
H707 H 0.86226 0.62813 0.95623 0.0
H708 H 0.88084 0.62982 0.95063 0.0
C709 C 0.87242 0.62212 0.95428 0.0
H710 H 0.87593 0.61715 0.96458 0.0
H711 H 0.83208 0.6283 0.96616 0.0
O712 O 0.84817 0.56726 0.91184 0.0
C713 C 0.81949 0.59721 0.93492 0.0
Co714 Co 0.57687 0.84304 0.07195 0.0
Co715 Co 0.59628 0.84147 0.04445 0.0
C716 C 0.56387 0.84031 0.04265 0.0
O717 O 0.56269 0.84073 0.0563 0.0
O718 O 0.57615 0.84085 0.03649 0.0
C719 C 0.55778 0.83609 0.09426 0.0
O720 O 0.55799 0.82361 0.08752 0.0
C721 C 0.60641 0.85257 0.01712 0.0
C722 C 0.62797 0.84274 0.01447 0.0
C723 C 0.61823 0.85206 0.00799 0.0
N724 N 0.60894 0.84389 0.02842 0.0
N725 N 0.62182 0.83797 0.02678 0.0
C726 C 0.59343 0.86211 0.01587 0.0
H727 H 0.58912 0.86472 0.02674 0.0
H728 H 0.59612 0.87226 0.01009 0.0
H729 H 0.58492 0.85636 0.00972 0.0
C730 C 0.59277 0.87011 0.07619 0.0
N731 N 0.58965 0.85831 0.06837 0.0
N732 N 0.59851 0.85745 0.05732 0.0
C733 C 0.6078 0.86867 0.0579 0.0
C734 C 0.60448 0.87704 0.06993 0.0
C735 C 0.58439 0.87471 0.08922 0.0
H736 H 0.57269 0.87306 0.08729 0.0
H737 H 0.58628 0.88623 0.09185 0.0
H738 H 0.58761 0.86794 0.09856 0.0
O739 O 0.58787 0.82533 0.07459 0.0
O740 O 0.6008 0.82282 0.0545 0.0
H741 H 0.6257 0.86018 0.04601 0.0
H742 H 0.62828 0.87843 0.05225 0.0
C743 C 0.62029 0.87068 0.04786 0.0
H744 H 0.61627 0.87477 0.03735 0.0
H745 H 0.62651 0.83089 0.03418 0.0
O746 O 0.56569 0.84628 0.08964 0.0
C747 C 0.59678 0.81832 0.06688 0.0
Co748 Co 0.15644 0.57641 0.06923 0.0
Co749 Co 0.15669 0.59568 0.04159 0.0
C750 C 0.15924 0.56337 0.03989 0.0
O751 O 0.15907 0.56231 0.05356 0.0
O752 O 0.15807 0.57556 0.03363 0.0
C753 C 0.16276 0.55506 0.08944 0.0
O754 O 0.17296 0.55235 0.07997 0.0
C755 C 0.14439 0.60599 0.01475 0.0
C756 C 0.1546 0.62734 0.01167 0.0
C757 C 0.14465 0.61791 0.00569 0.0
N758 N 0.15356 0.60837 0.0257 0.0
N759 N 0.15968 0.62112 0.02382 0.0
C760 C 0.13648 0.59204 0.01271 0.0
H761 H 0.14424 0.58377 0.00886 0.0
H762 H 0.13212 0.58827 0.02321 0.0
H763 H 0.12768 0.59284 0.00468 0.0
C764 C 0.12868 0.5909 0.07378 0.0
N765 N 0.14056 0.58843 0.06584 0.0
N766 N 0.14074 0.5972 0.05467 0.0
C767 C 0.12894 0.60575 0.0553 0.0
C768 C 0.12089 0.60192 0.06736 0.0
C769 C 0.12559 0.58355 0.08784 0.0
H770 H 0.1348 0.58525 0.09529 0.0
H771 H 0.12455 0.57176 0.08599 0.0
H772 H 0.11561 0.58768 0.093 0.0
O773 O 0.17361 0.58818 0.07161 0.0
O774 O 0.17527 0.60112 0.05144 0.0
H775 H 0.13511 0.62397 0.04247 0.0
H776 H 0.11652 0.62436 0.04848 0.0
C777 C 0.12539 0.61732 0.04461 0.0
H778 H 0.12196 0.61225 0.03434 0.0
H779 H 0.16724 0.62561 0.03085 0.0
O780 O 0.15404 0.56537 0.08715 0.0
C781 C 0.18007 0.59739 0.0638 0.0
Co782 Co 0.84634 0.42045 0.0712 0.0
Co783 Co 0.84398 0.4012 0.04361 0.0
C784 C 0.84541 0.43359 0.04165 0.0
O785 O 0.8463 0.43458 0.0553 0.0
O786 O 0.84442 0.42131 0.03553 0.0
C787 C 0.85968 0.44074 0.08904 0.0
O788 O 0.86834 0.44159 0.07783 0.0
C789 C 0.85467 0.3894 0.01649 0.0
C790 C 0.84349 0.36839 0.01491 0.0
C791 C 0.85367 0.377 0.00813 0.0
N792 N 0.84577 0.38802 0.02785 0.0
N793 N 0.83903 0.37549 0.0268 0.0
C794 C 0.8632 0.40282 0.01351 0.0
H795 H 0.85562 0.41194 0.01195 0.0
H796 H 0.87005 0.40542 0.02299 0.0
H797 H 0.86992 0.40199 0.00367 0.0
C798 C 0.87123 0.40146 0.07696 0.0
N799 N 0.8603 0.406 0.06854 0.0
N800 N 0.85965 0.39793 0.05685 0.0
C801 C 0.87047 0.38814 0.05738 0.0
C802 C 0.87805 0.39006 0.07014 0.0
C803 C 0.87508 0.40796 0.09125 0.0
H804 H 0.86514 0.41027 0.0975 0.0
H805 H 0.88093 0.41823 0.08942 0.0
H806 H 0.88218 0.4008 0.09769 0.0
O807 O 0.82753 0.41146 0.073 0.0
O808 O 0.82486 0.39786 0.05343 0.0
H809 H 0.86306 0.37072 0.04416 0.0
H810 H 0.88163 0.36904 0.0499 0.0
C811 C 0.87318 0.37673 0.04629 0.0
H812 H 0.87675 0.38188 0.03611 0.0
H813 H 0.83157 0.37168 0.03433 0.0
O814 O 0.84943 0.43169 0.08889 0.0
C815 C 0.82015 0.40276 0.06542 0.0
Co816 Co 0.56761 0.91862 0.6566 0.0
Co817 Co 0.54065 0.8984 0.65693 0.0
C818 C 0.53743 0.93044 0.65899 0.0
O819 O 0.55106 0.93175 0.65881 0.0
O820 O 0.53156 0.91804 0.65813 0.0
C821 C 0.58233 0.94195 0.64544 0.0
O822 O 0.56993 0.94297 0.63862 0.0
C823 C 0.51427 0.88662 0.64505 0.0
C824 C 0.51268 0.865 0.65502 0.0
C825 C 0.506 0.87415 0.64526 0.0
N826 N 0.52547 0.88483 0.65404 0.0
N827 N 0.52446 0.87192 0.66004 0.0
C828 C 0.51127 0.90048 0.63726 0.0
H829 H 0.50692 0.9084 0.64511 0.0
H830 H 0.52148 0.90496 0.63288 0.0
H831 H 0.50327 0.89922 0.62849 0.0
C832 C 0.57311 0.90363 0.62917 0.0
N833 N 0.56502 0.90605 0.64096 0.0
N834 N 0.55388 0.89721 0.64098 0.0
C835 C 0.55463 0.88881 0.62905 0.0
C836 C 0.56674 0.89276 0.62116 0.0
C837 C 0.58721 0.91091 0.62611 0.0
H838 H 0.59344 0.91218 0.63625 0.0
H839 H 0.58511 0.92177 0.62153 0.0
H840 H 0.59378 0.90466 0.61828 0.0
O841 O 0.5705 0.90743 0.67409 0.0
O842 O 0.55065 0.89396 0.67568 0.0
H843 H 0.54183 0.87036 0.63456 0.0
H844 H 0.54765 0.87075 0.61593 0.0
C845 C 0.54388 0.87742 0.62512 0.0
H846 H 0.53358 0.88264 0.62198 0.0
H847 H 0.53188 0.86779 0.66744 0.0
O848 O 0.58439 0.93135 0.65387 0.0
C849 C 0.56281 0.89815 0.68062 0.0
Co850 Co 0.07704 0.56785 0.65839 0.0
Co851 Co 0.09847 0.54176 0.65767 0.0
C852 C 0.06676 0.53745 0.66209 0.0
O853 O 0.06481 0.55098 0.66234 0.0
O854 O 0.07919 0.53208 0.6598 0.0
C855 C 0.05125 0.58202 0.65179 0.0
O856 O 0.04804 0.56892 0.64742 0.0
C857 C 0.11075 0.51682 0.64326 0.0
C858 C 0.1299 0.51157 0.65645 0.0
C859 C 0.12208 0.50711 0.64449 0.0
N860 N 0.11193 0.52666 0.65384 0.0
N861 N 0.12345 0.52354 0.66165 0.0
C862 C 0.09826 0.51607 0.63302 0.0
H863 H 0.09361 0.50503 0.63304 0.0
H864 H 0.08984 0.52406 0.63589 0.0
H865 H 0.10196 0.51847 0.6219 0.0
C866 C 0.09031 0.57372 0.63015 0.0
N867 N 0.08857 0.56534 0.64186 0.0
N868 N 0.09846 0.55514 0.64191 0.0
C869 C 0.10712 0.55701 0.63033 0.0
C870 C 0.10221 0.56881 0.62247 0.0
C871 C 0.08063 0.58613 0.62647 0.0
H872 H 0.06923 0.58281 0.62782 0.0
H873 H 0.08218 0.58982 0.61519 0.0
H874 H 0.08279 0.5952 0.63399 0.0
O875 O 0.08957 0.57134 0.6749 0.0
O876 O 0.1037 0.55191 0.67613 0.0
H877 H 0.12867 0.55548 0.62157 0.0
H878 H 0.11847 0.53901 0.62143 0.0
C879 C 0.12085 0.54887 0.62777 0.0
H880 H 0.12581 0.54569 0.63818 0.0
H881 H 0.12671 0.52937 0.67072 0.0
O882 O 0.06386 0.58455 0.65653 0.0
C883 C 0.09945 0.56407 0.68104 0.0
Co884 Co 0.42661 0.07632 0.65406 0.0
Co885 Co 0.4544 0.09537 0.65481 0.0
C886 C 0.4556 0.06271 0.65617 0.0
O887 O 0.44193 0.06181 0.65551 0.0
O888 O 0.4619 0.07495 0.65599 0.0
C889 C 0.40316 0.0591 0.66258 0.0
O890 O 0.40979 0.05996 0.67509 0.0
C891 C 0.48046 0.10653 0.64116 0.0
C892 C 0.48594 0.1254 0.65467 0.0
C893 C 0.49035 0.1177 0.64262 0.0
N894 N 0.47058 0.10771 0.6517 0.0
N895 N 0.47389 0.11903 0.65974 0.0
C896 C 0.48084 0.09436 0.63051 0.0
H897 H 0.47372 0.08542 0.63396 0.0
H898 H 0.47695 0.0982 0.61987 0.0
H899 H 0.49206 0.09037 0.62916 0.0
C900 C 0.42173 0.09197 0.62708 0.0
N901 N 0.4299 0.08889 0.63863 0.0
N902 N 0.44097 0.09776 0.63919 0.0
C903 C 0.43989 0.10717 0.62808 0.0
C904 C 0.42767 0.10377 0.62004 0.0
C905 C 0.40866 0.08347 0.62281 0.0
H906 H 0.41057 0.07182 0.62481 0.0
H907 H 0.40598 0.08502 0.61124 0.0
H908 H 0.39936 0.08693 0.62951 0.0
O909 O 0.425 0.08751 0.67184 0.0
O910 O 0.44508 0.10053 0.67359 0.0
H911 H 0.4436 0.12876 0.62013 0.0
H912 H 0.45899 0.11698 0.61966 0.0
C913 C 0.44937 0.12009 0.62605 0.0
H914 H 0.45297 0.12431 0.63665 0.0
H915 H 0.46796 0.12236 0.66872 0.0
O916 O 0.40839 0.06574 0.65178 0.0
C917 C 0.43287 0.09654 0.67849 0.0
Co918 Co 0.92105 0.43151 0.65657 0.0
Co919 Co 0.89973 0.45773 0.65582 0.0
C920 C 0.93154 0.46188 0.65981 0.0
O921 O 0.93343 0.44833 0.66014 0.0
O922 O 0.91911 0.46731 0.6576 0.0
C923 C 0.94671 0.41665 0.65037 0.0
O924 O 0.95057 0.42972 0.64645 0.0
C925 C 0.88717 0.48204 0.64068 0.0
C926 C 0.8681 0.48773 0.65382 0.0
C927 C 0.87569 0.49159 0.64151 0.0
N928 N 0.88629 0.4728 0.65181 0.0
N929 N 0.87485 0.4762 0.65962 0.0
C930 C 0.89945 0.48236 0.63017 0.0
H931 H 0.9038 0.49349 0.62931 0.0
H932 H 0.90813 0.47482 0.63345 0.0
H933 H 0.89562 0.4791 0.61932 0.0
C934 C 0.9073 0.42529 0.62869 0.0
N935 N 0.90928 0.43386 0.64022 0.0
N936 N 0.89937 0.44404 0.64032 0.0
C937 C 0.89043 0.44193 0.62899 0.0
C938 C 0.89522 0.43003 0.62122 0.0
C939 C 0.91692 0.41283 0.625 0.0
H940 H 0.92835 0.41608 0.62634 0.0
H941 H 0.9153 0.40914 0.61373 0.0
H942 H 0.91471 0.40377 0.63252 0.0
O943 O 0.90876 0.42845 0.67335 0.0
O944 O 0.89475 0.44799 0.67455 0.0
H945 H 0.87193 0.45335 0.63717 0.0
H946 H 0.86854 0.44291 0.62107 0.0
C947 C 0.87652 0.44984 0.6267 0.0
H948 H 0.8785 0.45946 0.61988 0.0
H949 H 0.87176 0.47079 0.669 0.0
O950 O 0.9339 0.41453 0.65476 0.0
C951 C 0.89904 0.43588 0.67956 0.0
Co952 Co 0.56966 0.07669 0.34485 0.0
Co953 Co 0.54221 0.09623 0.34273 0.0
C954 C 0.54006 0.06397 0.34145 0.0
O955 O 0.55368 0.06293 0.34245 0.0
O956 O 0.5339 0.07627 0.34156 0.0
C957 C 0.5855 0.05434 0.35721 0.0
O958 O 0.57311 0.05253 0.36386 0.0
C959 C 0.51505 0.10755 0.35337 0.0
C960 C 0.51335 0.12892 0.34289 0.0
C961 C 0.50655 0.11986 0.35266 0.0
N962 N 0.52649 0.10937 0.34468 0.0
N963 N 0.5254 0.12211 0.33836 0.0
C964 C 0.51215 0.09382 0.36143 0.0
H965 H 0.50946 0.08524 0.35353 0.0
H966 H 0.52204 0.09037 0.36723 0.0
H967 H 0.50302 0.09476 0.36906 0.0
C968 C 0.5736 0.09274 0.37195 0.0
N969 N 0.56603 0.08965 0.35997 0.0
N970 N 0.55474 0.09825 0.35914 0.0
C971 C 0.55488 0.1072 0.37068 0.0
C972 C 0.56673 0.10383 0.37919 0.0
C973 C 0.58773 0.08592 0.37586 0.0
H974 H 0.59449 0.08464 0.36608 0.0
H975 H 0.5857 0.0751 0.38055 0.0
H976 H 0.59372 0.0925 0.38389 0.0
O977 O 0.57282 0.08747 0.32708 0.0
O978 O 0.55284 0.10056 0.32437 0.0
H979 H 0.54221 0.12522 0.36367 0.0
H980 H 0.54741 0.12594 0.38248 0.0
C981 C 0.54395 0.11873 0.37357 0.0
H982 H 0.53358 0.11364 0.37665 0.0
H983 H 0.53298 0.12625 0.33113 0.0
O984 O 0.58689 0.06481 0.34849 0.0
C985 C 0.56524 0.09644 0.32001 0.0
Co986 Co 0.9179 0.57132 0.34627 0.0
Co987 Co 0.89999 0.54282 0.34428 0.0
C988 C 0.93233 0.54231 0.34493 0.0
O989 O 0.93268 0.556 0.34555 0.0
O990 O 0.92035 0.53558 0.34449 0.0
C991 C 0.93782 0.58937 0.35967 0.0
O992 O 0.93877 0.57807 0.36819 0.0
C993 C 0.88967 0.51514 0.35483 0.0
C994 C 0.86864 0.51255 0.34385 0.0
C995 C 0.87777 0.50612 0.35381 0.0
N996 N 0.88754 0.52652 0.34612 0.0
N997 N 0.875 0.5249 0.33951 0.0
C998 C 0.90336 0.51277 0.36311 0.0
H999 H 0.91215 0.51037 0.35535 0.0
H1000 H 0.90636 0.52279 0.36894 0.0
H1001 H 0.90266 0.50362 0.37075 0.0
C1002 C 0.90003 0.57551 0.37231 0.0
N1003 N 0.90416 0.56776 0.36075 0.0
N1004 N 0.89645 0.55584 0.36006 0.0
C1005 C 0.88717 0.55565 0.37134 0.0
C1006 C 0.8893 0.56804 0.37948 0.0
C1007 C 0.90556 0.59023 0.37601 0.0
H1008 H 0.90779 0.59644 0.36603 0.0
H1009 H 0.9157 0.58917 0.38229 0.0
H1010 H 0.89765 0.59627 0.38268 0.0
O1011 O 0.9082 0.57305 0.32774 0.0
O1012 O 0.89618 0.55241 0.32522 0.0
H1013 H 0.8703 0.54135 0.36467 0.0
H1014 H 0.86925 0.54673 0.3834 0.0
C1015 C 0.87668 0.54379 0.37449 0.0
H1016 H 0.88269 0.53395 0.37765 0.0
H1017 H 0.8707 0.5323 0.3322 0.0
O1018 O 0.92875 0.58927 0.34943 0.0
C1019 C 0.90003 0.56476 0.3205 0.0
Co1020 Co 0.42808 0.91992 0.34061 0.0
Co1021 Co 0.45516 0.89985 0.34235 0.0
C1022 C 0.45843 0.93169 0.33919 0.0
O1023 O 0.4448 0.93288 0.33858 0.0
O1024 O 0.46435 0.9194 0.34094 0.0
C1025 C 0.41314 0.94411 0.34964 0.0
O1026 O 0.42537 0.94569 0.35665 0.0
C1027 C 0.48143 0.88817 0.35497 0.0
C1028 C 0.48221 0.86592 0.34637 0.0
C1029 C 0.48933 0.87545 0.35543 0.0
N1030 N 0.47003 0.88615 0.34626 0.0
N1031 N 0.47055 0.87286 0.34111 0.0
C1032 C 0.48502 0.90242 0.36173 0.0
H1033 H 0.489 0.9098 0.35319 0.0
H1034 H 0.47512 0.90729 0.36639 0.0
H1035 H 0.49349 0.90157 0.37009 0.0
C1036 C 0.42142 0.90604 0.36834 0.0
N1037 N 0.43001 0.90799 0.35682 0.0
N1038 N 0.44121 0.89929 0.3577 0.0
C1039 C 0.44004 0.89147 0.36997 0.0
C1040 C 0.42752 0.89561 0.37712 0.0
C1041 C 0.40719 0.91341 0.37041 0.0
H1042 H 0.40139 0.91411 0.35997 0.0
H1043 H 0.40908 0.92453 0.37444 0.0
H1044 H 0.40032 0.90757 0.3783 0.0
O1045 O 0.42597 0.90809 0.32344 0.0
O1046 O 0.44605 0.89489 0.32327 0.0
H1047 H 0.45284 0.87259 0.36631 0.0
H1048 H 0.44726 0.87492 0.38488 0.0
C1049 C 0.45088 0.8806 0.37498 0.0
H1050 H 0.46119 0.88614 0.37738 0.0
H1051 H 0.46291 0.8685 0.33408 0.0
O1052 O 0.41123 0.93283 0.3421 0.0
C1053 C 0.4341 0.89874 0.3176 0.0
Co1054 Co 0.07813 0.43299 0.34615 0.0
Co1055 Co 0.09843 0.45976 0.34331 0.0
C1056 C 0.06614 0.46288 0.34314 0.0
O1057 O 0.06475 0.4493 0.34426 0.0
O1058 O 0.07861 0.46868 0.34275 0.0
C1059 C 0.05525 0.41757 0.35803 0.0
O1060 O 0.05336 0.43004 0.36452 0.0
C1061 C 0.11085 0.48666 0.35352 0.0
C1062 C 0.13232 0.48717 0.34313 0.0
C1063 C 0.1236 0.4945 0.35282 0.0
N1064 N 0.11213 0.47506 0.34493 0.0
N1065 N 0.12492 0.47547 0.33863 0.0
C1066 C 0.09729 0.49029 0.36155 0.0
H1067 H 0.09386 0.48089 0.36813 0.0
H1068 H 0.0984 0.49997 0.36845 0.0
H1069 H 0.08861 0.49248 0.35361 0.0
C1070 C 0.09465 0.42871 0.37291 0.0
N1071 N 0.0916 0.43621 0.36088 0.0
N1072 N 0.10055 0.44719 0.35972 0.0
C1073 C 0.10973 0.44688 0.37107 0.0
C1074 C 0.10615 0.43525 0.37981 0.0
C1075 C 0.08723 0.41502 0.37724 0.0
H1076 H 0.08584 0.40796 0.36768 0.0
H1077 H 0.0764 0.41765 0.3816 0.0
H1078 H 0.09343 0.40909 0.38561 0.0
O1079 O 0.08809 0.42971 0.32801 0.0
O1080 O 0.102 0.44898 0.32481 0.0
H1081 H 0.12804 0.45887 0.36364 0.0
H1082 H 0.12882 0.45403 0.38253 0.0
C1083 C 0.12161 0.45751 0.37363 0.0
H1084 H 0.11686 0.46809 0.37656 0.0
H1085 H 0.12872 0.46761 0.33152 0.0
O1086 O 0.06606 0.41593 0.3498 0.0
C1087 C 0.09714 0.43681 0.32055 0.0
Co1088 Co 0.65577 0.57082 0.91888 0.0
Co1089 Co 0.65688 0.5424 0.9008 0.0
C1090 C 0.65786 0.54176 0.93312 0.0
O1091 O 0.65724 0.55545 0.93352 0.0
O1092 O 0.65777 0.53506 0.92112 0.0
C1093 C 0.64289 0.58849 0.93928 0.0
O1094 O 0.6345 0.5771 0.94019 0.0
C1095 C 0.64652 0.51431 0.89158 0.0
C1096 C 0.65514 0.51215 0.86945 0.0
C1097 C 0.64674 0.50521 0.87971 0.0
N1098 N 0.65447 0.52603 0.88856 0.0
N1099 N 0.65971 0.52466 0.87535 0.0
C1100 C 0.63767 0.51271 0.90501 0.0
H1101 H 0.63482 0.52347 0.90943 0.0
H1102 H 0.62765 0.50653 0.90283 0.0
H1103 H 0.64408 0.50682 0.91324 0.0
C1104 C 0.62893 0.5751 0.90226 0.0
N1105 N 0.64061 0.56728 0.90587 0.0
N1106 N 0.64086 0.55534 0.89816 0.0
C1107 C 0.62914 0.55518 0.88945 0.0
C1108 C 0.62118 0.56763 0.89193 0.0
C1109 C 0.62573 0.58997 0.90773 0.0
H1110 H 0.6359 0.59597 0.90962 0.0
H1111 H 0.61968 0.58918 0.91802 0.0
H1112 H 0.619 0.59608 0.89992 0.0
O1113 O 0.67371 0.57269 0.90821 0.0
O1114 O 0.67564 0.55215 0.89591 0.0
H1115 H 0.63479 0.54127 0.87192 0.0
H1116 H 0.61585 0.54599 0.87255 0.0
C1117 C 0.62548 0.54331 0.87915 0.0
H1118 H 0.62323 0.5333 0.88529 0.0
H1119 H 0.66611 0.53239 0.87025 0.0
O1120 O 0.65297 0.58863 0.93003 0.0
C1121 C 0.6805 0.56451 0.89956 0.0
Co1122 Co 0.4322 0.65614 0.92022 0.0
Co1123 Co 0.45914 0.65645 0.89996 0.0
C1124 C 0.4624 0.65808 0.93207 0.0
O1125 O 0.44876 0.65801 0.9334 0.0
O1126 O 0.46826 0.65732 0.91965 0.0
C1127 C 0.41686 0.64563 0.94366 0.0
O1128 O 0.42915 0.63874 0.94534 0.0
C1129 C 0.48547 0.64468 0.88764 0.0
C1130 C 0.48616 0.65436 0.86584 0.0
C1131 C 0.49324 0.64473 0.87483 0.0
N1132 N 0.47415 0.6536 0.88617 0.0
N1133 N 0.47466 0.65945 0.87316 0.0
C1134 C 0.48898 0.63702 0.90145 0.0
H1135 H 0.49204 0.64516 0.90967 0.0
H1136 H 0.47925 0.63133 0.90549 0.0
H1137 H 0.49807 0.62936 0.90033 0.0
C1138 C 0.4264 0.62892 0.90496 0.0
N1139 N 0.43463 0.64058 0.90752 0.0
N1140 N 0.44571 0.64065 0.89862 0.0
C1141 C 0.44476 0.62889 0.88999 0.0
C1142 C 0.43257 0.62106 0.89387 0.0
C1143 C 0.41233 0.62591 0.91233 0.0
H1144 H 0.40607 0.63604 0.91343 0.0
H1145 H 0.41449 0.62158 0.92328 0.0
H1146 H 0.40578 0.61793 0.90625 0.0
O1147 O 0.42951 0.67375 0.90919 0.0
O1148 O 0.44933 0.67536 0.8957 0.0
H1149 H 0.45713 0.63458 0.87132 0.0
H1150 H 0.45157 0.61588 0.87179 0.0
C1151 C 0.45535 0.62511 0.8784 0.0
H1152 H 0.46578 0.62212 0.88342 0.0
H1153 H 0.46702 0.66671 0.86919 0.0
O1154 O 0.41522 0.65369 0.93272 0.0
C1155 C 0.43722 0.68033 0.89997 0.0
Co1156 Co 0.3419 0.43165 0.91938 0.0
Co1157 Co 0.34041 0.45883 0.89945 0.0
C1158 C 0.33757 0.4614 0.93153 0.0
O1159 O 0.33863 0.4478 0.93272 0.0
O1160 O 0.33819 0.46745 0.9192 0.0
C1161 C 0.35299 0.41681 0.94288 0.0
O1162 O 0.35922 0.42943 0.94462 0.0
C1163 C 0.35049 0.48652 0.88899 0.0
C1164 C 0.34262 0.48733 0.86649 0.0
C1165 C 0.35057 0.49496 0.87663 0.0
N1166 N 0.34281 0.47453 0.88634 0.0
N1167 N 0.33801 0.4751 0.87291 0.0
C1168 C 0.35888 0.48893 0.90259 0.0
H1169 H 0.36165 0.47846 0.90769 0.0
H1170 H 0.36895 0.49505 0.9004 0.0
H1171 H 0.35218 0.49522 0.91027 0.0
C1172 C 0.36977 0.42779 0.90473 0.0
N1173 N 0.35759 0.43528 0.90714 0.0
N1174 N 0.35708 0.44649 0.89842 0.0
C1175 C 0.36908 0.44641 0.89009 0.0
C1176 C 0.37753 0.43464 0.89396 0.0
C1177 C 0.37335 0.41372 0.91183 0.0
H1178 H 0.3635 0.40699 0.91274 0.0
H1179 H 0.37752 0.41584 0.92285 0.0
H1180 H 0.38164 0.40765 0.90568 0.0
O1181 O 0.32476 0.42809 0.90782 0.0
O1182 O 0.32233 0.44789 0.8944 0.0
H1183 H 0.36318 0.45842 0.87126 0.0
H1184 H 0.38227 0.4545 0.87255 0.0
C1185 C 0.37245 0.4574 0.87875 0.0
H1186 H 0.37425 0.46801 0.88396 0.0
H1187 H 0.33192 0.46699 0.86803 0.0
O1188 O 0.34513 0.41475 0.93185 0.0
C1189 C 0.31798 0.43546 0.89845 0.0
Co1190 Co 0.56601 0.33974 0.91815 0.0
Co1191 Co 0.53931 0.34131 0.89762 0.0
C1192 C 0.53566 0.33605 0.92908 0.0
O1193 O 0.54926 0.33551 0.93052 0.0
O1194 O 0.52989 0.33891 0.91694 0.0
C1195 C 0.57967 0.3481 0.94322 0.0
O1196 O 0.56687 0.35395 0.94494 0.0
C1197 C 0.51319 0.35429 0.88633 0.0
C1198 C 0.51207 0.34629 0.86388 0.0
C1199 C 0.50523 0.35528 0.87368 0.0
N1200 N 0.52437 0.34538 0.88403 0.0
N1201 N 0.52363 0.34054 0.87062 0.0
C1202 C 0.50995 0.36092 0.90073 0.0
H1203 H 0.50602 0.35235 0.9081 0.0
H1204 H 0.51999 0.36543 0.90546 0.0
H1205 H 0.50154 0.36938 0.90015 0.0
C1206 C 0.57166 0.36842 0.90579 0.0
N1207 N 0.56343 0.35655 0.90715 0.0
N1208 N 0.5526 0.3572 0.89797 0.0
C1209 C 0.5537 0.36961 0.89037 0.0
C1210 C 0.56574 0.37714 0.89519 0.0
C1211 C 0.58561 0.37074 0.91361 0.0
H1212 H 0.59196 0.36059 0.91367 0.0
H1213 H 0.58328 0.37377 0.92496 0.0
H1214 H 0.59215 0.3794 0.90856 0.0
O1215 O 0.5694 0.32359 0.90533 0.0
O1216 O 0.54938 0.32279 0.89203 0.0
H1217 H 0.5418 0.36526 0.87103 0.0
H1218 H 0.5474 0.38388 0.87291 0.0
C1219 C 0.54344 0.37423 0.87878 0.0
H1220 H 0.5329 0.37694 0.88373 0.0
H1221 H 0.53111 0.33349 0.86602 0.0
O1222 O 0.58245 0.34152 0.93153 0.0
C1223 C 0.56166 0.31768 0.89568 0.0
Co1224 Co 0.65143 0.43077 0.07713 0.0
Co1225 Co 0.65482 0.45707 0.09793 0.0
C1226 C 0.6558 0.4607 0.0657 0.0
O1227 O 0.65415 0.4472 0.06405 0.0
O1228 O 0.65619 0.46627 0.07828 0.0
C1229 C 0.64018 0.41598 0.05341 0.0
O1230 O 0.63459 0.42879 0.05098 0.0
C1231 C 0.64597 0.48457 0.10986 0.0
C1232 C 0.65511 0.48444 0.13188 0.0
C1233 C 0.64676 0.49256 0.12248 0.0
N1234 N 0.65354 0.47236 0.11164 0.0
N1235 N 0.65911 0.47237 0.12478 0.0
C1236 C 0.63686 0.48762 0.09685 0.0
H1237 H 0.63362 0.47739 0.09154 0.0
H1238 H 0.62706 0.49382 0.09984 0.0
H1239 H 0.64323 0.49409 0.08904 0.0
C1240 C 0.6243 0.42712 0.09315 0.0
N1241 N 0.63659 0.4343 0.09039 0.0
N1242 N 0.63796 0.44509 0.09954 0.0
C1243 C 0.62649 0.44498 0.10857 0.0
C1244 C 0.61744 0.43367 0.1047 0.0
C1245 C 0.61976 0.41364 0.08547 0.0
H1246 H 0.62911 0.40624 0.08444 0.0
H1247 H 0.61603 0.41649 0.07445 0.0
H1248 H 0.61092 0.40799 0.09124 0.0
O1249 O 0.66934 0.42679 0.0873 0.0
O1250 O 0.67286 0.44563 0.1017 0.0
H1251 H 0.63398 0.45597 0.12746 0.0
H1252 H 0.61475 0.4525 0.12736 0.0
C1253 C 0.62418 0.45549 0.12061 0.0
H1254 H 0.62226 0.46637 0.11602 0.0
H1255 H 0.66529 0.46397 0.12903 0.0
O1256 O 0.64748 0.41395 0.06481 0.0
C1257 C 0.67687 0.43346 0.09661 0.0
Co1258 Co 0.57109 0.65377 0.08005 0.0
Co1259 Co 0.54275 0.65487 0.09825 0.0
C1260 C 0.542 0.65548 0.06587 0.0
O1261 O 0.55569 0.65492 0.06539 0.0
O1262 O 0.53537 0.65549 0.07791 0.0
C1263 C 0.58904 0.64097 0.05977 0.0
O1264 O 0.57774 0.63246 0.05876 0.0
C1265 C 0.51539 0.64332 0.10816 0.0
C1266 C 0.51233 0.65359 0.12948 0.0
C1267 C 0.50628 0.64369 0.12003 0.0
N1268 N 0.52647 0.65232 0.1106 0.0
N1269 N 0.52456 0.65851 0.12332 0.0
C1270 C 0.51339 0.63531 0.09424 0.0
H1271 H 0.51059 0.64318 0.08567 0.0
H1272 H 0.52369 0.63006 0.09108 0.0
H1273 H 0.50464 0.62721 0.09476 0.0
C1274 C 0.5757 0.62716 0.097 0.0
N1275 N 0.56775 0.63871 0.09324 0.0
N1276 N 0.55588 0.63903 0.10108 0.0
C1277 C 0.55595 0.6275 0.11006 0.0
C1278 C 0.56843 0.61959 0.1076 0.0
C1279 C 0.59051 0.62393 0.0914 0.0
H1280 H 0.5965 0.63409 0.08944 0.0
H1281 H 0.58961 0.61787 0.08112 0.0
H1282 H 0.59669 0.6172 0.09916 0.0
O1283 O 0.5728 0.67185 0.09056 0.0
O1284 O 0.55232 0.67374 0.10298 0.0
H1285 H 0.54176 0.63367 0.12722 0.0
H1286 H 0.5475 0.61503 0.12793 0.0
C1287 C 0.5443 0.62399 0.12067 0.0
H1288 H 0.53444 0.62071 0.11475 0.0
H1289 H 0.5317 0.66594 0.12787 0.0
O1290 O 0.58898 0.65107 0.06899 0.0
C1291 C 0.56462 0.67865 0.09921 0.0
Co1292 Co 0.33962 0.5698 0.07818 0.0
Co1293 Co 0.33923 0.54196 0.09725 0.0
C1294 C 0.33529 0.54038 0.06523 0.0
O1295 O 0.33603 0.55402 0.06446 0.0
O1296 O 0.33649 0.53395 0.07731 0.0
C1297 C 0.35041 0.58485 0.05506 0.0
O1298 O 0.35668 0.57222 0.05351 0.0
C1299 C 0.35017 0.51407 0.10604 0.0
C1300 C 0.34338 0.51204 0.1288 0.0
C1301 C 0.35093 0.50505 0.11794 0.0
N1302 N 0.34244 0.52579 0.10961 0.0
N1303 N 0.3383 0.5245 0.1232 0.0
C1304 C 0.35797 0.51241 0.09198 0.0
H1305 H 0.35095 0.5065 0.08428 0.0
H1306 H 0.36052 0.52315 0.08733 0.0
H1307 H 0.36812 0.50621 0.09341 0.0
C1308 C 0.368 0.57352 0.09193 0.0
N1309 N 0.35579 0.56599 0.08974 0.0
N1310 N 0.35575 0.55449 0.0981 0.0
C1311 C 0.36807 0.55441 0.10593 0.0
C1312 C 0.37623 0.56639 0.10213 0.0
C1313 C 0.37126 0.58783 0.08516 0.0
H1314 H 0.36132 0.59447 0.08464 0.0
H1315 H 0.37528 0.58607 0.07402 0.0
H1316 H 0.37961 0.5938 0.09133 0.0
O1317 O 0.32287 0.57276 0.09044 0.0
O1318 O 0.32119 0.55249 0.10329 0.0
H1319 H 0.36302 0.54163 0.12449 0.0
H1320 H 0.38196 0.54603 0.12277 0.0
C1321 C 0.37203 0.54311 0.11676 0.0
H1322 H 0.3739 0.53273 0.11113 0.0
H1323 H 0.33233 0.53227 0.12875 0.0
O1324 O 0.34244 0.58698 0.06599 0.0
C1325 C 0.31653 0.56499 0.09979 0.0
Co1326 Co 0.43208 0.33906 0.07516 0.0
Co1327 Co 0.45785 0.34023 0.097 0.0
C1328 C 0.46279 0.33495 0.06564 0.0
O1329 O 0.44928 0.33466 0.06352 0.0
O1330 O 0.46803 0.33764 0.07805 0.0
C1331 C 0.41836 0.3445 0.04866 0.0
O1332 O 0.43171 0.34748 0.04497 0.0
C1333 C 0.48398 0.35259 0.10887 0.0
C1334 C 0.48422 0.34496 0.13146 0.0
C1335 C 0.49179 0.35331 0.12161 0.0
N1336 N 0.47242 0.34413 0.11101 0.0
N1337 N 0.47263 0.33952 0.12452 0.0
C1338 C 0.48665 0.3608 0.09522 0.0
H1339 H 0.4763 0.36292 0.08955 0.0
H1340 H 0.49217 0.37119 0.09748 0.0
H1341 H 0.49361 0.35425 0.088 0.0
C1342 C 0.42616 0.36764 0.08756 0.0
N1343 N 0.43448 0.35583 0.08631 0.0
N1344 N 0.44476 0.35621 0.09611 0.0
C1345 C 0.44315 0.36832 0.10408 0.0
C1346 C 0.43126 0.37593 0.09894 0.0
C1347 C 0.41359 0.37084 0.07791 0.0
H1348 H 0.41685 0.36931 0.06651 0.0
H1349 H 0.40963 0.38205 0.07927 0.0
H1350 H 0.40473 0.36314 0.08029 0.0
O1351 O 0.42809 0.32295 0.08797 0.0
O1352 O 0.44732 0.32196 0.10237 0.0
H1353 H 0.45317 0.36204 0.12394 0.0
H1354 H 0.44689 0.38047 0.12373 0.0
C1355 C 0.45194 0.37182 0.11717 0.0
H1356 H 0.46283 0.37542 0.11374 0.0
H1357 H 0.46475 0.33288 0.12906 0.0
O1358 O 0.41565 0.34093 0.06162 0.0
C1359 C 0.43518 0.31702 0.09809 0.0
Co1360 Co 0.9222 0.65542 0.56616 0.0
Co1361 Co 0.90126 0.65721 0.53978 0.0
C1362 C 0.93332 0.65881 0.53586 0.0
O1363 O 0.93502 0.65802 0.54943 0.0
O1364 O 0.92074 0.65844 0.5303 0.0
C1365 C 0.9469 0.64647 0.58117 0.0
O1366 O 0.95015 0.64145 0.56831 0.0
C1367 C 0.88885 0.64671 0.51309 0.0
C1368 C 0.86707 0.65642 0.51276 0.0
C1369 C 0.87618 0.6473 0.50516 0.0
N1370 N 0.88737 0.65513 0.52477 0.0
N1371 N 0.87437 0.66101 0.52449 0.0
C1372 C 0.90167 0.63721 0.51051 0.0
H1373 H 0.90713 0.63466 0.52086 0.0
H1374 H 0.89843 0.62703 0.50509 0.0
H1375 H 0.90946 0.64298 0.50347 0.0
C1376 C 0.90666 0.62825 0.57115 0.0
N1377 N 0.90932 0.64011 0.56326 0.0
N1378 N 0.90007 0.64086 0.55249 0.0
C1379 C 0.8911 0.62938 0.55331 0.0
C1380 C 0.89497 0.62106 0.56518 0.0
C1381 C 0.91546 0.62384 0.58398 0.0
H1382 H 0.91406 0.63191 0.59271 0.0
H1383 H 0.92703 0.62367 0.58095 0.0
H1384 H 0.91246 0.61299 0.58802 0.0
O1385 O 0.91124 0.67295 0.56979 0.0
O1386 O 0.89718 0.67559 0.55049 0.0
H1387 H 0.87236 0.63719 0.54226 0.0
H1388 H 0.87104 0.61862 0.54798 0.0
C1389 C 0.87842 0.62697 0.5436 0.0
H1390 H 0.8823 0.62343 0.53285 0.0
H1391 H 0.87036 0.66787 0.53247 0.0
O1392 O 0.93472 0.65241 0.58313 0.0
C1393 C 0.90181 0.67993 0.56271 0.0
Co1394 Co 0.91759 0.33946 0.42911 0.0
Co1395 Co 0.89722 0.33999 0.45599 0.0
C1396 C 0.92908 0.33661 0.45928 0.0
O1397 O 0.93054 0.33631 0.44568 0.0
O1398 O 0.91678 0.33847 0.46508 0.0
C1399 C 0.94146 0.35 0.41522 0.0
O1400 O 0.94228 0.35635 0.42787 0.0
C1401 C 0.88693 0.35162 0.48298 0.0
C1402 C 0.86466 0.34336 0.48495 0.0
C1403 C 0.87492 0.35176 0.49187 0.0
N1404 N 0.88404 0.3434 0.47143 0.0
N1405 N 0.87071 0.33844 0.47264 0.0
C1406 C 0.90055 0.36013 0.48477 0.0
H1407 H 0.90519 0.36284 0.47406 0.0
H1408 H 0.89852 0.37023 0.49089 0.0
H1409 H 0.90852 0.35355 0.4908 0.0
C1410 C 0.90259 0.36681 0.42296 0.0
N1411 N 0.90534 0.35547 0.4316 0.0
N1412 N 0.89652 0.35578 0.44273 0.0
C1413 C 0.88794 0.36751 0.44157 0.0
C1414 C 0.89149 0.37481 0.42898 0.0
C1415 C 0.91046 0.36976 0.40914 0.0
H1416 H 0.91044 0.35992 0.40232 0.0
H1417 H 0.92182 0.37252 0.41165 0.0
H1418 H 0.90569 0.37887 0.40304 0.0
O1419 O 0.90591 0.32236 0.42618 0.0
O1420 O 0.89222 0.32134 0.44591 0.0
H1421 H 0.86892 0.36144 0.45316 0.0
H1422 H 0.86921 0.38014 0.44761 0.0
C1423 C 0.87587 0.37106 0.45169 0.0
H1424 H 0.88041 0.37406 0.46235 0.0
H1425 H 0.86571 0.33182 0.46502 0.0
O1426 O 0.93061 0.34209 0.41249 0.0
C1427 C 0.89637 0.31613 0.43382 0.0
Co1428 Co 0.65404 0.91944 0.42739 0.0
Co1429 Co 0.65482 0.90127 0.45583 0.0
C1430 C 0.65558 0.93374 0.45633 0.0
O1431 O 0.65515 0.9342 0.44263 0.0
O1432 O 0.65542 0.92171 0.46301 0.0
C1433 C 0.66161 0.9371 0.40391 0.0
O1434 O 0.67437 0.93625 0.41004 0.0
C1435 C 0.64294 0.89026 0.48295 0.0
C1436 C 0.65442 0.86951 0.4856 0.0
C1437 C 0.64386 0.87814 0.49172 0.0
N1438 N 0.65229 0.88869 0.47197 0.0
N1439 N 0.65919 0.87631 0.47366 0.0
C1440 C 0.63393 0.90351 0.48521 0.0
H1441 H 0.64075 0.91324 0.48408 0.0
H1442 H 0.62544 0.90404 0.47679 0.0
H1443 H 0.62889 0.90374 0.49605 0.0
C1444 C 0.62771 0.90276 0.42252 0.0
N1445 N 0.63898 0.90648 0.43082 0.0
N1446 N 0.63923 0.89837 0.44248 0.0
C1447 C 0.62799 0.88907 0.44186 0.0
C1448 C 0.6204 0.89156 0.42917 0.0
C1449 C 0.62406 0.90997 0.40852 0.0
H1450 H 0.63237 0.90716 0.40037 0.0
H1451 H 0.62422 0.92185 0.40999 0.0
H1452 H 0.61327 0.9067 0.40448 0.0
O1453 O 0.67214 0.90883 0.4259 0.0
O1454 O 0.67382 0.89671 0.44656 0.0
H1455 H 0.6354 0.87171 0.45523 0.0
H1456 H 0.6173 0.86933 0.44832 0.0
C1457 C 0.62517 0.87731 0.45256 0.0
H1458 H 0.62073 0.88207 0.46259 0.0
H1459 H 0.66701 0.87241 0.46655 0.0
O1460 O 0.65115 0.93006 0.40929 0.0
C1461 C 0.67888 0.90034 0.43429 0.0
Co1462 Co 0.08078 0.65534 0.42613 0.0
Co1463 Co 0.09844 0.65693 0.4548 0.0
C1464 C 0.06606 0.65674 0.45497 0.0
O1465 O 0.06583 0.65601 0.44129 0.0
O1466 O 0.07799 0.65718 0.46178 0.0
C1467 C 0.06113 0.64184 0.40812 0.0
O1468 O 0.06057 0.63326 0.4194 0.0
C1469 C 0.10712 0.64592 0.48266 0.0
C1470 C 0.12846 0.65585 0.48646 0.0
C1471 C 0.11843 0.64649 0.49243 0.0
N1472 N 0.11022 0.6546 0.4715 0.0
N1473 N 0.12295 0.66061 0.47384 0.0
C1474 C 0.09421 0.63621 0.48313 0.0
H1475 H 0.09056 0.6336 0.47202 0.0
H1476 H 0.09669 0.62605 0.48898 0.0
H1477 H 0.08529 0.64182 0.48881 0.0
C1478 C 0.09951 0.63005 0.42123 0.0
N1479 N 0.09455 0.64084 0.42958 0.0
N1480 N 0.10196 0.64123 0.44171 0.0
C1481 C 0.11172 0.63038 0.44154 0.0
C1482 C 0.11049 0.62303 0.42855 0.0
C1483 C 0.09396 0.62668 0.40642 0.0
H1484 H 0.08364 0.6207 0.40739 0.0
H1485 H 0.10154 0.61986 0.40019 0.0
H1486 H 0.09195 0.63683 0.40041 0.0
O1487 O 0.09076 0.67374 0.42465 0.0
O1488 O 0.10297 0.67589 0.44526 0.0
H1489 H 0.12868 0.63773 0.45536 0.0
H1490 H 0.1304 0.61908 0.44989 0.0
C1491 C 0.12266 0.62765 0.45309 0.0
H1492 H 0.11707 0.62427 0.46311 0.0
H1493 H 0.128 0.6677 0.4667 0.0
O1494 O 0.06998 0.65228 0.40813 0.0
C1495 C 0.09919 0.68071 0.43292 0.0
Co1496 Co 0.3401 0.07837 0.42748 0.0
Co1497 Co 0.3402 0.09886 0.45431 0.0
C1498 C 0.33643 0.06693 0.45763 0.0
O1499 O 0.3369 0.06541 0.44403 0.0
O1500 O 0.3377 0.07935 0.46338 0.0
C1501 C 0.34914 0.05392 0.41267 0.0
O1502 O 0.35495 0.0515 0.42537 0.0
C1503 C 0.35111 0.1094 0.48164 0.0
C1504 C 0.34431 0.13225 0.48212 0.0
C1505 C 0.35177 0.12185 0.48988 0.0
N1506 N 0.34351 0.1122 0.46963 0.0
N1507 N 0.33938 0.12586 0.46999 0.0
C1508 C 0.35884 0.09545 0.4843 0.0
H1509 H 0.36153 0.09013 0.47392 0.0
H1510 H 0.36891 0.09726 0.49055 0.0
H1511 H 0.35172 0.08816 0.49058 0.0
C1512 C 0.36829 0.09199 0.42247 0.0
N1513 N 0.35629 0.09013 0.4304 0.0
N1514 N 0.35643 0.09908 0.44143 0.0
C1515 C 0.36867 0.10702 0.4408 0.0
C1516 C 0.37659 0.10267 0.42883 0.0
C1517 C 0.37115 0.08446 0.40845 0.0
H1518 H 0.36114 0.08416 0.4019 0.0
H1519 H 0.37453 0.07319 0.41068 0.0
H1520 H 0.37974 0.08992 0.40214 0.0
O1521 O 0.32325 0.09046 0.42431 0.0
O1522 O 0.32194 0.10428 0.44393 0.0
H1523 H 0.36396 0.12645 0.45232 0.0
H1524 H 0.38294 0.12391 0.44845 0.0
C1525 C 0.37277 0.11839 0.45149 0.0
H1526 H 0.37425 0.11336 0.46224 0.0
H1527 H 0.33346 0.13089 0.46184 0.0
O1528 O 0.3424 0.06566 0.41057 0.0
C1529 C 0.31704 0.10018 0.43173 0.0
Co1530 Co 0.07489 0.34111 0.5657 0.0
Co1531 Co 0.09608 0.34273 0.53949 0.0
C1532 C 0.06457 0.33836 0.53502 0.0
O1533 O 0.06273 0.3377 0.54858 0.0
O1534 O 0.07694 0.34087 0.5296 0.0
C1535 C 0.04943 0.3486 0.5799 0.0
O1536 O 0.04684 0.35412 0.5671 0.0
C1537 C 0.10821 0.35484 0.51325 0.0
C1538 C 0.13077 0.3471 0.51346 0.0
C1539 C 0.12108 0.3554 0.50564 0.0
N1540 N 0.11014 0.34653 0.52496 0.0
N1541 N 0.12362 0.34186 0.52501 0.0
C1542 C 0.09464 0.3631 0.51029 0.0
H1543 H 0.0889 0.36547 0.52054 0.0
H1544 H 0.09702 0.37336 0.50458 0.0
H1545 H 0.08744 0.35646 0.5034 0.0
C1546 C 0.08845 0.36895 0.57263 0.0
N1547 N 0.08649 0.35763 0.56376 0.0
N1548 N 0.09577 0.35834 0.55303 0.0
C1549 C 0.10394 0.3703 0.55473 0.0
C1550 C 0.09959 0.37735 0.56723 0.0
C1551 C 0.07992 0.37143 0.58612 0.0
H1552 H 0.08132 0.36209 0.59349 0.0
H1553 H 0.06831 0.3722 0.58333 0.0
H1554 H 0.08314 0.3815 0.59173 0.0
O1555 O 0.08729 0.32458 0.56895 0.0
O1556 O 0.10123 0.32406 0.54937 0.0
H1557 H 0.12373 0.3648 0.54418 0.0
H1558 H 0.12265 0.38344 0.54979 0.0
C1559 C 0.11645 0.37423 0.54531 0.0
H1560 H 0.11243 0.37718 0.53444 0.0
H1561 H 0.12801 0.3353 0.53304 0.0
O1562 O 0.06157 0.34269 0.58225 0.0
C1563 C 0.09714 0.31876 0.56142 0.0
Co1564 Co 0.65689 0.07829 0.56679 0.0
Co1565 Co 0.65767 0.099 0.54021 0.0
C1566 C 0.6598 0.06699 0.53649 0.0
O1567 O 0.65942 0.06544 0.55009 0.0
O1568 O 0.65902 0.07949 0.53081 0.0
C1569 C 0.6462 0.0544 0.5812 0.0
O1570 O 0.63993 0.05288 0.56857 0.0
C1571 C 0.64596 0.11122 0.514 0.0
C1572 C 0.65596 0.13286 0.51278 0.0
C1573 C 0.64617 0.12384 0.50596 0.0
N1574 N 0.65497 0.1128 0.52521 0.0
N1575 N 0.661 0.12571 0.52442 0.0
C1576 C 0.6381 0.09745 0.5108 0.0
H1577 H 0.64589 0.08957 0.50626 0.0
H1578 H 0.63376 0.09278 0.52095 0.0
H1579 H 0.62928 0.09889 0.50288 0.0
C1580 C 0.6291 0.09277 0.5718 0.0
N1581 N 0.64121 0.09078 0.56407 0.0
N1582 N 0.64145 0.0999 0.55317 0.0
C1583 C 0.62939 0.10812 0.55377 0.0
C1584 C 0.62116 0.10371 0.56549 0.0
C1585 C 0.62554 0.08484 0.58542 0.0
H1586 H 0.63533 0.08381 0.59222 0.0
H1587 H 0.62166 0.07386 0.58266 0.0
H1588 H 0.61702 0.09046 0.59169 0.0
O1589 O 0.67424 0.08956 0.57017 0.0
O1590 O 0.6762 0.10339 0.55061 0.0
H1591 H 0.63516 0.12672 0.54128 0.0
H1592 H 0.61659 0.12655 0.54725 0.0
C1593 C 0.62562 0.11979 0.54326 0.0
H1594 H 0.62228 0.11483 0.5329 0.0
H1595 H 0.66839 0.12971 0.53191 0.0
O1596 O 0.654 0.06542 0.58345 0.0
C1597 C 0.68089 0.099 0.56279 0.0
Co1598 Co 0.34325 0.92359 0.57102 0.0
Co1599 Co 0.34162 0.90389 0.54367 0.0
C1600 C 0.33923 0.93611 0.54141 0.0
O1601 O 0.34025 0.93725 0.55503 0.0
O1602 O 0.33972 0.92379 0.53531 0.0
C1603 C 0.35366 0.94695 0.58711 0.0
O1604 O 0.3594 0.95012 0.57453 0.0
C1605 C 0.35233 0.89274 0.51641 0.0
C1606 C 0.34262 0.87098 0.51511 0.0
C1607 C 0.35194 0.88031 0.50805 0.0
N1608 N 0.3439 0.89073 0.52801 0.0
N1609 N 0.33803 0.87775 0.52715 0.0
C1610 C 0.35985 0.90671 0.51324 0.0
H1611 H 0.3516 0.91507 0.51095 0.0
H1612 H 0.36598 0.91027 0.52289 0.0
H1613 H 0.36709 0.90603 0.50377 0.0
C1614 C 0.37088 0.90854 0.57487 0.0
N1615 N 0.35881 0.91123 0.56729 0.0
N1616 N 0.35818 0.90251 0.55608 0.0
C1617 C 0.36994 0.89386 0.55629 0.0
C1618 C 0.37839 0.89754 0.56812 0.0
C1619 C 0.37447 0.91555 0.58899 0.0
H1620 H 0.36472 0.91593 0.59591 0.0
H1621 H 0.37808 0.92679 0.58697 0.0
H1622 H 0.38313 0.90968 0.59481 0.0
O1623 O 0.32596 0.91211 0.57434 0.0
O1624 O 0.32354 0.89883 0.55447 0.0
H1625 H 0.36338 0.87536 0.54409 0.0
H1626 H 0.38235 0.87553 0.54872 0.0
C1627 C 0.37303 0.88229 0.54546 0.0
H1628 H 0.37558 0.88735 0.53492 0.0
H1629 H 0.33108 0.87343 0.53488 0.0
O1630 O 0.34646 0.93538 0.58841 0.0
C1631 C 0.31917 0.90281 0.5669 0.0
H1632 H 0.10503 0.45209 0.29646 0.0
H1633 H 0.1038 0.44329 0.2715 0.0
H1634 H 0.09498 0.40029 0.28698 0.0
H1635 H 0.09637 0.40889 0.31181 0.0
H1636 H 0.11181 0.40126 0.26093 0.0
H1637 H 0.06156 0.43406 0.25906 0.0
H1638 H 0.07768 0.44392 0.26342 0.0
H1639 H 0.07106 0.43041 0.27566 0.0
C1640 C 0.10335 0.44068 0.29453 0.0
C1641 C 0.1005 0.43123 0.30603 0.0
C1642 C 0.10256 0.43569 0.2803 0.0
C1643 C 0.09896 0.42123 0.27748 0.0
C1644 C 0.09766 0.41151 0.28896 0.0
H1645 H 0.05105 0.39638 0.20084 0.0
H1646 H 0.05961 0.39636 0.22591 0.0
C1647 C 0.0984 0.41647 0.30313 0.0
C1648 C 0.09448 0.41661 0.26289 0.0
H1649 H 0.06809 0.42179 0.23779 0.0
C1650 C 0.10228 0.40574 0.25581 0.0
C1651 C 0.08175 0.42215 0.25653 0.0
C1652 C 0.07242 0.43318 0.26407 0.0
C1653 C 0.09792 0.40058 0.24223 0.0
C1654 C 0.08554 0.40658 0.23561 0.0
C1655 C 0.07755 0.41716 0.24291 0.0
C1656 C 0.08132 0.4032 0.22059 0.0
C1657 C 0.10655 0.38873 0.23515 0.0
C1658 C 0.09082 0.40657 0.20933 0.0
C1659 C 0.08598 0.40659 0.19511 0.0
C1660 C 0.0715 0.40336 0.19186 0.0
C1661 C 0.06226 0.39891 0.20302 0.0
C1662 C 0.06713 0.39892 0.21732 0.0
H1663 H 0.11235 0.3821 0.24329 0.0
H1664 H 0.09953 0.38154 0.22861 0.0
H1665 H 0.11474 0.39362 0.22791 0.0
H1666 H 0.10171 0.41017 0.21159 0.0
H1667 H 0.0934 0.40996 0.18672 0.0
H1668 H 0.59813 0.04856 0.20435 0.0
H1669 H 0.59686 0.05851 0.2288 0.0
H1670 H 0.61024 0.10011 0.21263 0.0
H1671 H 0.61062 0.09036 0.18807 0.0
H1672 H 0.61285 0.07199 0.24815 0.0
H1673 H 0.57109 0.10988 0.22766 0.0
H1674 H 0.57857 0.09572 0.21666 0.0
H1675 H 0.5885 0.11217 0.21954 0.0
C1676 C 0.60123 0.0597 0.20613 0.0
C1677 C 0.60434 0.06877 0.19444 0.0
C1678 C 0.60043 0.06541 0.22006 0.0
C1679 C 0.60296 0.08019 0.22244 0.0
C1680 C 0.60773 0.08882 0.21096 0.0
H1681 H 0.5922 0.10532 0.31302 0.0
H1682 H 0.6028 0.10529 0.2888 0.0
C1683 C 0.60814 0.08321 0.19699 0.0
C1684 C 0.59914 0.08669 0.23655 0.0
H1685 H 0.57616 0.11077 0.25243 0.0
C1686 C 0.60493 0.08057 0.24911 0.0
C1687 C 0.58864 0.09777 0.23774 0.0
C1688 C 0.58122 0.10419 0.22471 0.0
C1689 C 0.60011 0.08475 0.26283 0.0
C1690 C 0.58963 0.09585 0.26403 0.0
C1691 C 0.58429 0.1024 0.25148 0.0
C1692 C 0.58286 0.09956 0.27804 0.0
C1693 C 0.60565 0.07655 0.2758 0.0
C1694 C 0.56788 0.09785 0.27981 0.0
C1695 C 0.56172 0.09845 0.29355 0.0
C1696 C 0.57053 0.10055 0.30567 0.0
C1697 C 0.58525 0.1036 0.30377 0.0
C1698 C 0.59133 0.10339 0.28999 0.0
H1699 H 0.61085 0.06621 0.27268 0.0
H1700 H 0.61384 0.08318 0.28148 0.0
H1701 H 0.59676 0.07412 0.28347 0.0
H1702 H 0.56111 0.09503 0.2707 0.0
H1703 H 0.55036 0.09597 0.29481 0.0
H1704 H 0.9506 0.59821 0.20387 0.0
H1705 H 0.94086 0.59573 0.22833 0.0
H1706 H 0.89851 0.60723 0.21267 0.0
H1707 H 0.9081 0.6089 0.18811 0.0
H1708 H 0.92649 0.61078 0.24807 0.0
H1709 H 0.89119 0.56714 0.22704 0.0
H1710 H 0.90494 0.57556 0.21618 0.0
H1711 H 0.88785 0.5844 0.21896 0.0
C1712 C 0.93932 0.60063 0.20577 0.0
C1713 C 0.93004 0.6036 0.1942 0.0
C1714 C 0.93373 0.59914 0.2197 0.0
C1715 C 0.91885 0.60079 0.2222 0.0
C1716 C 0.90991 0.60539 0.21088 0.0
H1717 H 0.89069 0.59102 0.31176 0.0
H1718 H 0.89195 0.60059 0.28717 0.0
C1719 C 0.91542 0.60653 0.19692 0.0
C1720 C 0.9126 0.59641 0.23626 0.0
H1721 H 0.88922 0.57249 0.25179 0.0
C1722 C 0.91826 0.60249 0.2489 0.0
C1723 C 0.90204 0.58538 0.23729 0.0
C1724 C 0.89624 0.57763 0.22417 0.0
C1725 C 0.91392 0.59763 0.26256 0.0
C1726 C 0.90318 0.58678 0.2636 0.0
C1727 C 0.89728 0.58093 0.25095 0.0
C1728 C 0.89896 0.58043 0.27766 0.0
C1729 C 0.92149 0.60367 0.27569 0.0
C1730 C 0.90106 0.56561 0.28018 0.0
C1731 C 0.8998 0.56001 0.29413 0.0
C1732 C 0.89663 0.56923 0.3057 0.0
C1733 C 0.89323 0.58375 0.30296 0.0
C1734 C 0.89413 0.58925 0.28897 0.0
H1735 H 0.93184 0.60901 0.27282 0.0
H1736 H 0.91448 0.61186 0.28088 0.0
H1737 H 0.9238 0.59504 0.28368 0.0
H1738 H 0.90465 0.55857 0.27156 0.0
H1739 H 0.90259 0.54882 0.29604 0.0
H1740 H 0.45086 0.89985 0.2937 0.0
H1741 H 0.44181 0.90102 0.26893 0.0
H1742 H 0.39944 0.88856 0.28374 0.0
H1743 H 0.40831 0.8883 0.30865 0.0
H1744 H 0.42842 0.88575 0.24889 0.0
H1745 H 0.39131 0.92831 0.26916 0.0
H1746 H 0.40499 0.92024 0.28036 0.0
H1747 H 0.38831 0.91085 0.27696 0.0
C1748 C 0.43976 0.89685 0.29157 0.0
C1749 C 0.43022 0.89412 0.30298 0.0
C1750 C 0.43456 0.8976 0.27744 0.0
C1751 C 0.41981 0.89541 0.27458 0.0
C1752 C 0.41072 0.89081 0.28579 0.0
H1753 H 0.39587 0.9077 0.18388 0.0
H1754 H 0.3961 0.89698 0.20803 0.0
C1755 C 0.41583 0.89045 0.29995 0.0
C1756 C 0.41382 0.89965 0.26037 0.0
H1757 H 0.39085 0.92364 0.24431 0.0
C1758 C 0.42011 0.89392 0.24786 0.0
C1759 C 0.40312 0.91055 0.25909 0.0
C1760 C 0.39663 0.91796 0.27209 0.0
C1761 C 0.4164 0.8991 0.23413 0.0
C1762 C 0.40562 0.9099 0.23285 0.0
C1763 C 0.39897 0.91526 0.24533 0.0
C1764 C 0.4022 0.91679 0.21882 0.0
C1765 C 0.42471 0.89353 0.22125 0.0
C1766 C 0.40416 0.93175 0.21709 0.0
C1767 C 0.40346 0.93799 0.20338 0.0
C1768 C 0.40101 0.92928 0.19126 0.0
C1769 C 0.39784 0.91458 0.19314 0.0
C1770 C 0.39817 0.90843 0.20687 0.0
H1771 H 0.43492 0.88814 0.2245 0.0
H1772 H 0.41805 0.88548 0.21541 0.0
H1773 H 0.4274 0.90243 0.21368 0.0
H1774 H 0.40714 0.93844 0.2262 0.0
H1775 H 0.40606 0.94932 0.20213 0.0
H1776 H 0.10833 0.59116 0.68725 0.0
H1777 H 0.10915 0.60205 0.71127 0.0
H1778 H 0.1007 0.56031 0.73024 0.0
H1779 H 0.10076 0.54936 0.70629 0.0
H1780 H 0.08642 0.60385 0.7263 0.0
H1781 H 0.12613 0.57606 0.76045 0.0
H1782 H 0.1264 0.57439 0.74105 0.0
H1783 H 0.11513 0.56273 0.75186 0.0
C1784 C 0.10739 0.58424 0.69664 0.0
C1785 C 0.10456 0.56945 0.69503 0.0
C1786 C 0.10775 0.59047 0.71034 0.0
C1787 C 0.10498 0.58205 0.72263 0.0
C1788 C 0.10325 0.56703 0.72103 0.0
H1789 H 0.04834 0.59592 0.79119 0.0
H1790 H 0.06033 0.59681 0.76771 0.0
C1791 C 0.10325 0.56074 0.70732 0.0
C1792 C 0.10131 0.58911 0.73654 0.0
H1793 H 0.10442 0.58479 0.77289 0.0
C1794 C 0.09066 0.59994 0.73648 0.0
C1795 C 0.10698 0.58433 0.74987 0.0
C1796 C 0.11941 0.57386 0.75077 0.0
C1797 C 0.08478 0.60529 0.74936 0.0
C1798 C 0.08928 0.59927 0.76263 0.0
C1799 C 0.10071 0.58927 0.76273 0.0
C1800 C 0.08147 0.60198 0.77636 0.0
C1801 C 0.07364 0.61714 0.74852 0.0
C1802 C 0.08923 0.60483 0.78906 0.0
C1803 C 0.08243 0.60393 0.80246 0.0
C1804 C 0.06771 0.60048 0.80336 0.0
C1805 C 0.05963 0.5989 0.79069 0.0
C1806 C 0.06651 0.59945 0.77726 0.0
H1807 H 0.07581 0.62437 0.7392 0.0
H1808 H 0.06283 0.61228 0.74683 0.0
H1809 H 0.07341 0.62374 0.75852 0.0
H1810 H 0.10075 0.60682 0.78867 0.0
H1811 H 0.08886 0.60506 0.81217 0.0
H1812 H 0.40603 0.10532 0.68567 0.0
H1813 H 0.39591 0.10641 0.71001 0.0
H1814 H 0.43806 0.09736 0.72775 0.0
H1815 H 0.44827 0.0971 0.70343 0.0
H1816 H 0.39434 0.08385 0.72572 0.0
H1817 H 0.42383 0.1245 0.75747 0.0
H1818 H 0.42478 0.12398 0.73802 0.0
H1819 H 0.4365 0.11276 0.74881 0.0
C1820 C 0.4132 0.10422 0.69485 0.0
C1821 C 0.4279 0.10119 0.69279 0.0
C1822 C 0.40742 0.10475 0.70872 0.0
C1823 C 0.41619 0.10198 0.72075 0.0
C1824 C 0.4311 0.09991 0.71871 0.0
H1825 H 0.40016 0.05044 0.79385 0.0
H1826 H 0.40063 0.06041 0.76942 0.0
C1827 C 0.43696 0.09972 0.70481 0.0
C1828 C 0.4095 0.09895 0.73498 0.0
H1829 H 0.41415 0.10413 0.77105 0.0
C1830 C 0.39845 0.08856 0.73562 0.0
C1831 C 0.41461 0.10522 0.74791 0.0
C1832 C 0.42547 0.11735 0.74798 0.0
C1833 C 0.39302 0.08364 0.74885 0.0
C1834 C 0.39916 0.08887 0.76179 0.0
C1835 C 0.40956 0.09992 0.76115 0.0
C1836 C 0.39592 0.08236 0.77606 0.0
C1837 C 0.38088 0.07279 0.74876 0.0
C1838 C 0.39291 0.09129 0.78791 0.0
C1839 C 0.39303 0.08565 0.80186 0.0
C1840 C 0.39588 0.07094 0.80416 0.0
C1841 C 0.39768 0.06176 0.79228 0.0
C1842 C 0.3979 0.06747 0.77832 0.0
H1843 H 0.37386 0.07429 0.73916 0.0
H1844 H 0.38547 0.06174 0.74815 0.0
H1845 H 0.37412 0.07361 0.75862 0.0
H1846 H 0.39132 0.10278 0.78645 0.0
H1847 H 0.39165 0.09292 0.81092 0.0
H1848 H 0.94802 0.40219 0.79478 0.0
H1849 H 0.93813 0.40434 0.77035 0.0
H1850 H 0.89676 0.38944 0.78572 0.0
H1851 H 0.90644 0.38808 0.81027 0.0
H1852 H 0.9248 0.38876 0.75023 0.0
H1853 H 0.88658 0.42929 0.77241 0.0
H1854 H 0.90092 0.42159 0.78303 0.0
H1855 H 0.88454 0.4116 0.77998 0.0
C1856 C 0.93696 0.39892 0.79281 0.0
C1857 C 0.92792 0.39509 0.80431 0.0
C1858 C 0.93128 0.40023 0.77889 0.0
C1859 C 0.91656 0.39754 0.77634 0.0
C1860 C 0.908 0.39206 0.78756 0.0
H1861 H 0.88957 0.40918 0.68665 0.0
H1862 H 0.89005 0.39865 0.71088 0.0
C1863 C 0.91357 0.39109 0.80151 0.0
C1864 C 0.91 0.40184 0.7624 0.0
H1865 H 0.88528 0.42481 0.74749 0.0
C1866 C 0.91607 0.39653 0.74961 0.0
C1867 C 0.89875 0.4122 0.76165 0.0
C1868 C 0.89239 0.41912 0.77498 0.0
C1869 C 0.91154 0.40159 0.73608 0.0
C1870 C 0.90018 0.41183 0.73532 0.0
C1871 C 0.89382 0.41682 0.7481 0.0
C1872 C 0.89591 0.41862 0.72148 0.0
C1873 C 0.91957 0.39651 0.72283 0.0
C1874 C 0.89752 0.4336 0.71966 0.0
C1875 C 0.89668 0.43973 0.7059 0.0
C1876 C 0.89442 0.43088 0.69384 0.0
C1877 C 0.89134 0.41618 0.69585 0.0
C1878 C 0.89182 0.41013 0.70963 0.0
H1879 H 0.9301 0.39149 0.72562 0.0
H1880 H 0.91301 0.38827 0.71713 0.0
H1881 H 0.92161 0.40559 0.71529 0.0
H1882 H 0.90053 0.44039 0.7287 0.0
H1883 H 0.89924 0.45106 0.70456 0.0
H1884 H 0.5935 0.9503 0.79424 0.0
H1885 H 0.59257 0.93925 0.77025 0.0
H1886 H 0.60632 0.89859 0.78839 0.0
H1887 H 0.60639 0.90945 0.81248 0.0
H1888 H 0.60897 0.92491 0.75163 0.0
H1889 H 0.56718 0.88793 0.77364 0.0
H1890 H 0.57448 0.90269 0.78396 0.0
H1891 H 0.58453 0.88618 0.78204 0.0
C1892 C 0.59678 0.93915 0.79298 0.0
C1893 C 0.59993 0.93066 0.80508 0.0
C1894 C 0.59618 0.9328 0.77931 0.0
C1895 C 0.59889 0.91796 0.77763 0.0
C1896 C 0.60369 0.90992 0.78953 0.0
H1897 H 0.58931 0.88857 0.68834 0.0
H1898 H 0.59945 0.88931 0.71274 0.0
C1899 C 0.60394 0.91616 0.80322 0.0
C1900 C 0.59521 0.91076 0.76383 0.0
H1901 H 0.57245 0.88583 0.74898 0.0
C1902 C 0.6011 0.91626 0.75103 0.0
C1903 C 0.58476 0.8996 0.76311 0.0
C1904 C 0.57726 0.89383 0.77639 0.0
C1905 C 0.59644 0.91134 0.7375 0.0
C1906 C 0.58602 0.90015 0.73677 0.0
C1907 C 0.58055 0.89426 0.74959 0.0
C1908 C 0.57941 0.89572 0.7229 0.0
C1909 C 0.60208 0.91887 0.72418 0.0
C1910 C 0.56449 0.89754 0.7208 0.0
C1911 C 0.55858 0.89653 0.70696 0.0
C1912 C 0.56758 0.89392 0.6951 0.0
C1913 C 0.5822 0.89065 0.6974 0.0
C1914 C 0.58803 0.89127 0.71127 0.0
H1915 H 0.60729 0.92935 0.7268 0.0
H1916 H 0.6103 0.91195 0.71889 0.0
H1917 H 0.59325 0.92093 0.71634 0.0
H1918 H 0.5576 0.90084 0.72965 0.0
H1919 H 0.5473 0.89923 0.70539 0.0
H1920 H 0.20438 0.04926 0.40058 0.0
H1921 H 0.2283 0.06045 0.40108 0.0
H1922 H 0.20986 0.10068 0.3865 0.0
H1923 H 0.18582 0.0897 0.38687 0.0
H1924 H 0.24682 0.07448 0.3845 0.0
H1925 H 0.22452 0.11241 0.4253 0.0
H1926 H 0.21427 0.09744 0.41833 0.0
H1927 H 0.21625 0.11369 0.40785 0.0
C1928 C 0.20554 0.06034 0.39702 0.0
C1929 C 0.19336 0.0687 0.3938 0.0
C1930 C 0.21918 0.06676 0.39738 0.0
C1931 C 0.22077 0.08155 0.39433 0.0
C1932 C 0.2088 0.08941 0.3894 0.0
H1933 H 0.31027 0.10997 0.40503 0.0
H1934 H 0.28611 0.1098 0.39431 0.0
C1935 C 0.19513 0.08309 0.38941 0.0
C1936 C 0.23453 0.08891 0.39787 0.0
H1937 H 0.24923 0.11416 0.42038 0.0
C1938 C 0.24737 0.08327 0.39221 0.0
C1939 C 0.23518 0.10027 0.40812 0.0
C1940 C 0.22185 0.10624 0.41537 0.0
C1941 C 0.26088 0.08818 0.39697 0.0
C1942 C 0.26153 0.09952 0.40725 0.0
C1943 C 0.24868 0.10561 0.4124 0.0
C1944 C 0.27532 0.1038 0.41414 0.0
C1945 C 0.27422 0.08045 0.39165 0.0
C1946 C 0.27701 0.10208 0.42913 0.0
C1947 C 0.29072 0.10278 0.43537 0.0
C1948 C 0.30286 0.10498 0.42663 0.0
C1949 C 0.301 0.10822 0.41194 0.0
C1950 C 0.28725 0.10791 0.40578 0.0
H1951 H 0.27158 0.06997 0.38646 0.0
H1952 H 0.27976 0.08725 0.3835 0.0
H1953 H 0.28185 0.07836 0.40066 0.0
H1954 H 0.26792 0.09904 0.43583 0.0
H1955 H 0.29196 0.10011 0.44669 0.0
H1956 H 0.94539 0.20017 0.39769 0.0
H1957 H 0.93447 0.22431 0.39865 0.0
H1958 H 0.89352 0.20546 0.41022 0.0
H1959 H 0.9042 0.18146 0.4091 0.0
H1960 H 0.89116 0.23057 0.39242 0.0
H1961 H 0.92617 0.23791 0.44062 0.0
H1962 H 0.93562 0.23377 0.4242 0.0
H1963 H 0.92369 0.22062 0.43203 0.0
C1964 C 0.93396 0.20117 0.39997 0.0
C1965 C 0.92571 0.189 0.40361 0.0
C1966 C 0.92777 0.21494 0.40059 0.0
C1967 C 0.91329 0.21661 0.40482 0.0
C1968 C 0.90473 0.20438 0.40704 0.0
H1969 H 0.88687 0.29361 0.45048 0.0
H1970 H 0.88653 0.2682 0.44314 0.0
C1971 C 0.91088 0.19069 0.40646 0.0
C1972 C 0.90754 0.2309 0.40891 0.0
H1973 H 0.91179 0.2577 0.43372 0.0
C1974 C 0.89564 0.23655 0.40143 0.0
C1975 C 0.91311 0.23837 0.421 0.0
C1976 C 0.92526 0.23234 0.43004 0.0
C1977 C 0.88948 0.24982 0.40544 0.0
C1978 C 0.8955 0.2576 0.41711 0.0
C1979 C 0.90712 0.25169 0.42482 0.0
C1980 C 0.8912 0.27256 0.42066 0.0
C1981 C 0.87658 0.25533 0.39718 0.0
C1982 C 0.89315 0.28342 0.41032 0.0
C1983 C 0.8933 0.29786 0.41447 0.0
C1984 C 0.89164 0.3017 0.42906 0.0
C1985 C 0.88817 0.29096 0.43917 0.0
C1986 C 0.88803 0.27645 0.43499 0.0
H1987 H 0.87026 0.2463 0.39247 0.0
H1988 H 0.86936 0.26187 0.40418 0.0
H1989 H 0.88036 0.26223 0.38815 0.0
H1990 H 0.89585 0.28072 0.39927 0.0
H1991 H 0.89586 0.30594 0.40641 0.0
H1992 H 0.79596 0.94893 0.40422 0.0
H1993 H 0.77162 0.93875 0.40569 0.0
H1994 H 0.7887 0.89642 0.39629 0.0
H1995 H 0.81313 0.90647 0.39575 0.0
H1996 H 0.75316 0.92415 0.39006 0.0
H1997 H 0.77172 0.88913 0.43504 0.0
H1998 H 0.78307 0.90278 0.42714 0.0
H1999 H 0.78071 0.88564 0.41827 0.0
C2000 C 0.79442 0.93753 0.40211 0.0
C2001 C 0.80632 0.92842 0.40003 0.0
C2002 C 0.78055 0.93169 0.40301 0.0
C2003 C 0.77842 0.91673 0.40161 0.0
C2004 C 0.79016 0.9079 0.39796 0.0
H2005 H 0.68781 0.89058 0.40822 0.0
H2006 H 0.71266 0.89077 0.39923 0.0
C2007 C 0.80406 0.91366 0.39747 0.0
C2008 C 0.76417 0.91038 0.40517 0.0
H2009 H 0.74732 0.88729 0.42847 0.0
C2010 C 0.75187 0.91602 0.39838 0.0
C2011 C 0.76252 0.89989 0.4162 0.0
C2012 C 0.77518 0.8941 0.42469 0.0
C2013 C 0.73796 0.91189 0.40265 0.0
C2014 C 0.73631 0.90128 0.41357 0.0
C2015 C 0.74862 0.89526 0.41999 0.0
C2016 C 0.72196 0.89754 0.41957 0.0
C2017 C 0.72522 0.91961 0.39599 0.0
C2018 C 0.71918 0.8998 0.43432 0.0
C2019 C 0.70507 0.8991 0.4396 0.0
C2020 C 0.69361 0.89636 0.43012 0.0
C2021 C 0.69654 0.89279 0.41569 0.0
C2022 C 0.71068 0.89309 0.41051 0.0
H2023 H 0.72849 0.92981 0.3906 0.0
H2024 H 0.7202 0.91257 0.38771 0.0
H2025 H 0.71696 0.92222 0.40427 0.0
H2026 H 0.72775 0.90311 0.44155 0.0
H2027 H 0.70302 0.902 0.45074 0.0
H2028 H 0.09166 0.81265 0.39157 0.0
H2029 H 0.10306 0.78886 0.39097 0.0
H2030 H 0.06141 0.76893 0.39728 0.0
H2031 H 0.04996 0.79268 0.39708 0.0
H2032 H 0.10398 0.77329 0.41365 0.0
H2033 H 0.07896 0.73988 0.37142 0.0
H2034 H 0.07697 0.75926 0.37169 0.0
H2035 H 0.06504 0.74793 0.38213 0.0
C2036 C 0.0849 0.80311 0.39214 0.0
C2037 C 0.06996 0.80439 0.39432 0.0
C2038 C 0.09142 0.78955 0.39189 0.0
C2039 C 0.08313 0.77707 0.39408 0.0
C2040 C 0.06803 0.77833 0.3952 0.0
H2041 H 0.09745 0.70583 0.44794 0.0
H2042 H 0.09746 0.73002 0.43739 0.0
C2043 C 0.06147 0.79191 0.39512 0.0
C2044 C 0.09033 0.76321 0.39765 0.0
H2045 H 0.08751 0.72691 0.39275 0.0
C2046 C 0.10063 0.76316 0.40881 0.0
C2047 C 0.08625 0.75 0.39123 0.0
C2048 C 0.07632 0.74931 0.37834 0.0
C2049 C 0.1062 0.75023 0.41435 0.0
C2050 C 0.10095 0.73698 0.40894 0.0
C2051 C 0.09141 0.73705 0.39711 0.0
C2052 C 0.10406 0.72297 0.41605 0.0
C2053 C 0.11748 0.75096 0.42607 0.0
C2054 C 0.10801 0.71097 0.4077 0.0
C2055 C 0.10763 0.69715 0.41365 0.0
C2056 C 0.10358 0.69514 0.42811 0.0
C2057 C 0.10088 0.70719 0.43684 0.0
C2058 C 0.10092 0.72102 0.43079 0.0
H2059 H 0.1243 0.76075 0.42483 0.0
H2060 H 0.11205 0.75171 0.43672 0.0
H2061 H 0.12457 0.74131 0.42602 0.0
H2062 H 0.11049 0.71219 0.39634 0.0
H2063 H 0.10969 0.68795 0.40673 0.0
H2064 H 0.31336 0.89417 0.59417 0.0
H2065 H 0.28949 0.89233 0.60528 0.0
H2066 H 0.26981 0.90047 0.5638 0.0
H2067 H 0.29364 0.90139 0.55262 0.0
H2068 H 0.27314 0.91383 0.60784 0.0
H2069 H 0.24121 0.8731 0.57902 0.0
H2070 H 0.26058 0.87399 0.57723 0.0
H2071 H 0.24905 0.88489 0.56589 0.0
C2072 C 0.30387 0.89491 0.58737 0.0
C2073 C 0.30523 0.89786 0.57257 0.0
C2074 C 0.29025 0.89394 0.59372 0.0
C2075 C 0.27778 0.89622 0.58542 0.0
C2076 C 0.27918 0.89825 0.57042 0.0
H2077 H 0.20704 0.94918 0.60049 0.0
H2078 H 0.23089 0.93805 0.60149 0.0
C2079 C 0.29281 0.89884 0.564 0.0
C2080 C 0.26372 0.89889 0.59261 0.0
H2081 H 0.2276 0.89401 0.58809 0.0
C2082 C 0.2632 0.90918 0.60377 0.0
C2083 C 0.25071 0.89264 0.58768 0.0
C2084 C 0.25047 0.88042 0.57691 0.0
C2085 C 0.25003 0.9142 0.60926 0.0
C2086 C 0.23702 0.90925 0.60303 0.0
C2087 C 0.23754 0.89809 0.59273 0.0
C2088 C 0.22294 0.91642 0.60572 0.0
C2089 C 0.25027 0.92495 0.62149 0.0
C2090 C 0.21048 0.9081 0.60796 0.0
C2091 C 0.19685 0.91442 0.60693 0.0
C2092 C 0.19548 0.92921 0.60397 0.0
C2093 C 0.20788 0.9378 0.60305 0.0
C2094 C 0.22153 0.93141 0.60369 0.0
H2095 H 0.25955 0.92284 0.6288 0.0
H2096 H 0.25168 0.93598 0.61703 0.0
H2097 H 0.24017 0.92462 0.62792 0.0
H2098 H 0.21126 0.89654 0.60957 0.0
H2099 H 0.18738 0.9076 0.60762 0.0
H2100 H 0.05163 0.20394 0.59732 0.0
H2101 H 0.06147 0.22839 0.59528 0.0
H2102 H 0.10338 0.21267 0.6082 0.0
H2103 H 0.09372 0.18811 0.60942 0.0
H2104 H 0.07548 0.24824 0.61052 0.0
H2105 H 0.11196 0.22645 0.56817 0.0
H2106 H 0.09794 0.21575 0.57634 0.0
H2107 H 0.11469 0.21876 0.58572 0.0
C2108 C 0.06281 0.20583 0.60019 0.0
C2109 C 0.07199 0.19424 0.60339 0.0
C2110 C 0.06846 0.21976 0.59894 0.0
C2111 C 0.08329 0.22223 0.60108 0.0
C2112 C 0.09204 0.2109 0.60599 0.0
H2113 H 0.10829 0.31232 0.58761 0.0
H2114 H 0.10905 0.28823 0.59847 0.0
C2115 C 0.08649 0.19694 0.60688 0.0
C2116 C 0.08969 0.23621 0.59667 0.0
H2117 H 0.11308 0.25136 0.5725 0.0
C2118 C 0.08381 0.24895 0.60232 0.0
C2119 C 0.10043 0.23706 0.58579 0.0
C2120 C 0.10654 0.2238 0.57853 0.0
C2121 C 0.08794 0.26252 0.59704 0.0
C2122 C 0.09871 0.26337 0.5862 0.0
C2123 C 0.10498 0.25066 0.58093 0.0
C2124 C 0.10229 0.2772 0.579 0.0
C2125 C 0.08002 0.27568 0.60252 0.0
C2126 C 0.09977 0.27877 0.56412 0.0
C2127 C 0.09991 0.29246 0.55778 0.0
C2128 C 0.10239 0.30468 0.56633 0.0
C2129 C 0.10636 0.30297 0.58085 0.0
C2130 C 0.10658 0.28926 0.58709 0.0
H2131 H 0.06987 0.27278 0.6082 0.0
H2132 H 0.08699 0.28155 0.61028 0.0
H2133 H 0.0773 0.28311 0.59351 0.0
H2134 H 0.09657 0.26958 0.55763 0.0
H2135 H 0.09665 0.29358 0.5466 0.0
H2136 H 0.79469 0.04905 0.59657 0.0
H2137 H 0.77046 0.0595 0.59534 0.0
H2138 H 0.78733 0.1005 0.60965 0.0
H2139 H 0.81169 0.09025 0.61005 0.0
H2140 H 0.75107 0.07343 0.61124 0.0
H2141 H 0.7735 0.11086 0.57006 0.0
H2142 H 0.7839 0.09629 0.57764 0.0
H2143 H 0.78137 0.11275 0.58764 0.0
C2144 C 0.7931 0.06014 0.59995 0.0
C2145 C 0.80494 0.06892 0.60331 0.0
C2146 C 0.77929 0.06614 0.59916 0.0
C2147 C 0.7772 0.08093 0.6019 0.0
C2148 C 0.78879 0.08922 0.607 0.0
H2149 H 0.68765 0.10852 0.58956 0.0
H2150 H 0.71172 0.10813 0.60047 0.0
C2151 C 0.80264 0.08332 0.60743 0.0
C2152 C 0.76336 0.08783 0.59783 0.0
H2153 H 0.74866 0.11238 0.57455 0.0
C2154 C 0.75051 0.08205 0.60334 0.0
C2155 C 0.76271 0.09895 0.58732 0.0
C2156 C 0.77608 0.105 0.58021 0.0
C2157 C 0.73702 0.08665 0.59825 0.0
C2158 C 0.73637 0.09781 0.58777 0.0
C2159 C 0.74921 0.10398 0.58269 0.0
C2160 C 0.7226 0.10193 0.58075 0.0
C2161 C 0.72371 0.07884 0.60349 0.0
C2162 C 0.721 0.1001 0.56576 0.0
C2163 C 0.70734 0.10091 0.55942 0.0
C2164 C 0.69517 0.10334 0.56805 0.0
C2165 C 0.69695 0.10659 0.58274 0.0
C2166 C 0.71064 0.10616 0.589 0.0
H2167 H 0.72641 0.06841 0.60878 0.0
H2168 H 0.71803 0.08564 0.61154 0.0
H2169 H 0.71618 0.07661 0.59443 0.0
H2170 H 0.73012 0.09697 0.55915 0.0
H2171 H 0.70616 0.09823 0.5481 0.0
H2172 H 0.90247 0.70562 0.54873 0.0
H2173 H 0.90359 0.7293 0.56039 0.0
H2174 H 0.89294 0.70973 0.60132 0.0
H2175 H 0.89271 0.68595 0.58979 0.0
H2176 H 0.88795 0.74717 0.57621 0.0
H2177 H 0.93232 0.72496 0.60997 0.0
H2178 H 0.92427 0.71488 0.59544 0.0
H2179 H 0.91522 0.71628 0.61257 0.0
C2180 C 0.89991 0.70648 0.56011 0.0
C2181 C 0.89763 0.69407 0.56843 0.0
C2182 C 0.90062 0.71998 0.5668 0.0
C2183 C 0.89886 0.72119 0.58183 0.0
C2184 C 0.89486 0.70897 0.58981 0.0
H2185 H 0.90984 0.81017 0.61163 0.0
H2186 H 0.89977 0.78573 0.61166 0.0
C2187 C 0.89452 0.69544 0.5832 0.0
C2188 C 0.90276 0.73487 0.58916 0.0
H2189 H 0.92701 0.74952 0.61278 0.0
C2190 C 0.89637 0.7477 0.58433 0.0
C2191 C 0.91392 0.7355 0.59962 0.0
C2192 C 0.92194 0.72221 0.60463 0.0
C2193 C 0.90123 0.76119 0.58915 0.0
C2194 C 0.9124 0.76183 0.59961 0.0
C2195 C 0.91835 0.74897 0.60492 0.0
C2196 C 0.91929 0.77568 0.60368 0.0
C2197 C 0.89499 0.77458 0.58224 0.0
C2198 C 0.93402 0.77784 0.60073 0.0
C2199 C 0.93994 0.79169 0.60129 0.0
C2200 C 0.93111 0.80351 0.60461 0.0
C2201 C 0.91681 0.80115 0.60903 0.0
C2202 C 0.91101 0.78725 0.60884 0.0
H2203 H 0.889 0.77207 0.57216 0.0
H2204 H 0.88731 0.77975 0.58984 0.0
H2205 H 0.90361 0.78248 0.57962 0.0
H2206 H 0.94067 0.76902 0.59686 0.0
H2207 H 0.95095 0.79332 0.5977 0.0
H2208 H 0.39064 0.1865 0.09102 0.0
H2209 H 0.39013 0.21047 0.10203 0.0
H2210 H 0.4006 0.22943 0.06075 0.0
H2211 H 0.40027 0.20551 0.04964 0.0
H2212 H 0.41285 0.22554 0.10487 0.0
H2213 H 0.37415 0.25949 0.07531 0.0
H2214 H 0.37411 0.24008 0.07366 0.0
H2215 H 0.38593 0.25094 0.06261 0.0
C2216 C 0.39218 0.19588 0.08422 0.0
C2217 C 0.39541 0.19426 0.0695 0.0
C2218 C 0.39199 0.20956 0.09052 0.0
C2219 C 0.3953 0.22181 0.08226 0.0
C2220 C 0.39762 0.22024 0.06732 0.0
H2221 H 0.44957 0.29161 0.09979 0.0
H2222 H 0.4383 0.2678 0.10006 0.0
C2223 C 0.39747 0.20656 0.06094 0.0
C2224 C 0.39857 0.23573 0.08952 0.0
H2225 H 0.3949 0.27208 0.08564 0.0
C2226 C 0.40864 0.2357 0.10089 0.0
C2227 C 0.3929 0.24902 0.08463 0.0
C2228 C 0.38105 0.24985 0.0735 0.0
C2229 C 0.41392 0.24861 0.10678 0.0
C2230 C 0.40941 0.2619 0.10079 0.0
C2231 C 0.39859 0.26192 0.09014 0.0
C2232 C 0.41667 0.27577 0.10422 0.0
C2233 C 0.42441 0.2478 0.1192 0.0
C2234 C 0.40841 0.2882 0.10683 0.0
C2235 C 0.41483 0.30181 0.1063 0.0
C2236 C 0.42965 0.30319 0.10346 0.0
C2237 C 0.43818 0.29076 0.1023 0.0
C2238 C 0.43171 0.27713 0.10248 0.0
H2239 H 0.4221 0.23827 0.12611 0.0
H2240 H 0.43552 0.24648 0.1149 0.0
H2241 H 0.42404 0.25766 0.126 0.0
H2242 H 0.39683 0.28745 0.10823 0.0
H2243 H 0.40804 0.31131 0.1071 0.0
H2244 H 0.45218 0.70536 0.90211 0.0
H2245 H 0.4414 0.72944 0.90338 0.0
H2246 H 0.40046 0.71191 0.88971 0.0
H2247 H 0.41105 0.68769 0.88931 0.0
H2248 H 0.42715 0.74853 0.88761 0.0
H2249 H 0.39019 0.72601 0.92914 0.0
H2250 H 0.40478 0.71569 0.92152 0.0
H2251 H 0.38822 0.71801 0.91163 0.0
C2252 C 0.44102 0.70677 0.89889 0.0
C2253 C 0.43238 0.69478 0.89571 0.0
C2254 C 0.43483 0.72049 0.8997 0.0
C2255 C 0.41998 0.72237 0.89715 0.0
C2256 C 0.41179 0.71062 0.89224 0.0
H2257 H 0.39112 0.81168 0.90866 0.0
H2258 H 0.39203 0.78752 0.89799 0.0
C2259 C 0.41789 0.69685 0.8918 0.0
C2260 C 0.41294 0.73617 0.90116 0.0
H2261 H 0.38826 0.75078 0.92436 0.0
C2262 C 0.41855 0.74904 0.89553 0.0
C2263 C 0.40184 0.73679 0.9117 0.0
C2264 C 0.39598 0.72342 0.91896 0.0
C2265 C 0.41379 0.76253 0.90051 0.0
C2266 C 0.40264 0.76314 0.91099 0.0
C2267 C 0.39666 0.75027 0.91622 0.0
C2268 C 0.39829 0.77693 0.91786 0.0
C2269 C 0.42143 0.77589 0.89513 0.0
C2270 C 0.40001 0.77872 0.93284 0.0
C2271 C 0.3989 0.79242 0.93904 0.0
C2272 C 0.39626 0.80447 0.93029 0.0
C2273 C 0.39317 0.80248 0.91558 0.0
C2274 C 0.39391 0.78874 0.90946 0.0
H2275 H 0.43191 0.77327 0.88991 0.0
H2276 H 0.41457 0.78137 0.88698 0.0
H2277 H 0.42352 0.78356 0.9041 0.0
H2278 H 0.40326 0.76973 0.93956 0.0
H2279 H 0.40148 0.79377 0.95037 0.0
H2280 H 0.29228 0.44931 0.89966 0.0
H2281 H 0.26872 0.43744 0.90089 0.0
H2282 H 0.28835 0.39704 0.88853 0.0
H2283 H 0.31205 0.40875 0.88818 0.0
H2284 H 0.25048 0.42186 0.88545 0.0
H2285 H 0.27449 0.38715 0.92812 0.0
H2286 H 0.28415 0.40201 0.92015 0.0
H2287 H 0.2826 0.38512 0.91067 0.0
C2288 C 0.29145 0.43803 0.8967 0.0
C2289 C 0.30388 0.42988 0.89394 0.0
C2290 C 0.27802 0.43121 0.89749 0.0
C2291 C 0.27688 0.41622 0.89533 0.0
C2292 C 0.28907 0.40849 0.89076 0.0
H2293 H 0.18841 0.38583 0.90905 0.0
H2294 H 0.21241 0.38604 0.89795 0.0
C2295 C 0.30254 0.41521 0.89035 0.0
C2296 C 0.2634 0.40865 0.89948 0.0
H2297 H 0.24979 0.38436 0.92368 0.0
C2298 C 0.25031 0.41353 0.89368 0.0
C2299 C 0.26324 0.39791 0.91039 0.0
C2300 C 0.27684 0.39281 0.91781 0.0
C2301 C 0.23703 0.40851 0.89892 0.0
C2302 C 0.23686 0.39779 0.90987 0.0
C2303 C 0.24996 0.39242 0.91519 0.0
C2304 C 0.2233 0.39351 0.91722 0.0
C2305 C 0.22338 0.41549 0.89335 0.0
C2306 C 0.22176 0.39607 0.93211 0.0
C2307 C 0.20816 0.39534 0.93859 0.0
C2308 C 0.19598 0.39224 0.9302 0.0
C2309 C 0.19773 0.38821 0.9157 0.0
C2310 C 0.21137 0.38856 0.90931 0.0
H2311 H 0.22563 0.42572 0.8875 0.0
H2312 H 0.21796 0.40804 0.8857 0.0
H2313 H 0.21581 0.41788 0.90232 0.0
H2314 H 0.23084 0.39978 0.93847 0.0
H2315 H 0.207 0.39868 0.94974 0.0
H2316 H 0.54655 0.29271 0.89665 0.0
H2317 H 0.55751 0.26876 0.8984 0.0
H2318 H 0.59865 0.28656 0.88575 0.0
H2319 H 0.58783 0.31066 0.88477 0.0
H2320 H 0.5732 0.2493 0.88375 0.0
H2321 H 0.6068 0.27449 0.92663 0.0
H2322 H 0.59229 0.28398 0.91786 0.0
H2323 H 0.60943 0.28194 0.90895 0.0
C2324 C 0.55777 0.29138 0.89363 0.0
C2325 C 0.56641 0.30344 0.89069 0.0
C2326 C 0.56407 0.27772 0.89474 0.0
C2327 C 0.57902 0.27601 0.89274 0.0
C2328 C 0.5872 0.28775 0.88782 0.0
H2329 H 0.60991 0.18827 0.90946 0.0
H2330 H 0.60904 0.2121 0.89805 0.0
C2331 C 0.58099 0.30145 0.88704 0.0
C2332 C 0.58614 0.26257 0.8977 0.0
H2333 H 0.60944 0.24958 0.9232 0.0
C2334 C 0.58126 0.24934 0.89224 0.0
C2335 C 0.59647 0.26268 0.90901 0.0
C2336 C 0.60148 0.2765 0.91607 0.0
C2337 C 0.58603 0.2362 0.89807 0.0
C2338 C 0.59641 0.23632 0.90934 0.0
C2339 C 0.60165 0.24954 0.91446 0.0
C2340 C 0.60066 0.22292 0.91698 0.0
C2341 C 0.57922 0.2224 0.89268 0.0
C2342 C 0.59768 0.22145 0.93179 0.0
C2343 C 0.59871 0.20795 0.93846 0.0
C2344 C 0.60257 0.19581 0.93032 0.0
C2345 C 0.60693 0.19756 0.91591 0.0
C2346 C 0.60622 0.21109 0.90935 0.0
H2347 H 0.56912 0.22447 0.88655 0.0
H2348 H 0.58686 0.21681 0.88534 0.0
H2349 H 0.57666 0.21503 0.90178 0.0
H2350 H 0.5935 0.23048 0.93793 0.0
H2351 H 0.59512 0.20678 0.94953 0.0
H2352 H 0.81261 0.60565 0.90793 0.0
H2353 H 0.78851 0.60589 0.8972 0.0
H2354 H 0.77004 0.59617 0.93887 0.0
H2355 H 0.79413 0.59667 0.94971 0.0
H2356 H 0.77335 0.58276 0.89531 0.0
H2357 H 0.74016 0.62297 0.9239 0.0
H2358 H 0.75959 0.62283 0.92523 0.0
H2359 H 0.74882 0.61138 0.93671 0.0
C2360 C 0.80331 0.60418 0.91487 0.0
C2361 C 0.80511 0.6012 0.92961 0.0
C2362 C 0.78958 0.60423 0.90873 0.0
C2363 C 0.77743 0.60107 0.9172 0.0
C2364 C 0.77917 0.599 0.93215 0.0
H2365 H 0.7053 0.54887 0.89995 0.0
H2366 H 0.72967 0.55893 0.90045 0.0
C2367 C 0.79293 0.59925 0.93836 0.0
C2368 C 0.76345 0.59777 0.91015 0.0
H2369 H 0.72719 0.6026 0.9136 0.0
C2370 C 0.76327 0.58735 0.8991 0.0
C2371 C 0.7503 0.6039 0.91483 0.0
C2372 C 0.74976 0.61601 0.92571 0.0
C2373 C 0.75027 0.58229 0.89324 0.0
C2374 C 0.73709 0.58743 0.89892 0.0
C2375 C 0.73729 0.59848 0.90933 0.0
C2376 C 0.723 0.58076 0.89527 0.0
C2377 C 0.75085 0.57138 0.88117 0.0
C2378 C 0.71116 0.58956 0.89185 0.0
C2379 C 0.69723 0.58387 0.8919 0.0
C2380 C 0.69495 0.56924 0.89513 0.0
C2381 C 0.70685 0.56012 0.89718 0.0
C2382 C 0.72079 0.56589 0.89744 0.0
H2383 H 0.76068 0.57292 0.87447 0.0
H2384 H 0.75138 0.56036 0.88584 0.0
H2385 H 0.74122 0.5721 0.87408 0.0
H2386 H 0.71259 0.60104 0.8901 0.0
H2387 H 0.68816 0.59109 0.89034 0.0
H2388 H 0.60459 0.81138 0.09412 0.0
H2389 H 0.60516 0.78717 0.10456 0.0
H2390 H 0.59747 0.76897 0.06234 0.0
H2391 H 0.59768 0.79316 0.05183 0.0
H2392 H 0.58248 0.7715 0.10554 0.0
H2393 H 0.62411 0.73938 0.07786 0.0
H2394 H 0.62366 0.75882 0.0767 0.0
H2395 H 0.61285 0.74794 0.06469 0.0
C2396 C 0.60366 0.80214 0.08702 0.0
C2397 C 0.60114 0.80404 0.07219 0.0
C2398 C 0.6039 0.78833 0.09299 0.0
C2399 C 0.60137 0.77621 0.08427 0.0
C2400 C 0.59981 0.77808 0.06927 0.0
H2401 H 0.54909 0.70352 0.09866 0.0
H2402 H 0.55916 0.7279 0.09878 0.0
C2403 C 0.5999 0.79191 0.06324 0.0
C2404 C 0.59809 0.76206 0.09102 0.0
H2405 H 0.60337 0.72593 0.08692 0.0
C2406 C 0.58731 0.76155 0.1017 0.0
C2407 C 0.60452 0.74907 0.08628 0.0
C2408 C 0.61704 0.74887 0.07587 0.0
C2409 C 0.58217 0.74837 0.10708 0.0
C2410 C 0.58759 0.73536 0.10126 0.0
C2411 C 0.59902 0.73589 0.09127 0.0
C2412 C 0.58088 0.72114 0.10432 0.0
C2413 C 0.57088 0.7486 0.11881 0.0
C2414 C 0.58962 0.70923 0.10764 0.0
C2415 C 0.58393 0.6953 0.10719 0.0
C2416 C 0.56936 0.69309 0.1037 0.0
C2417 C 0.5603 0.70502 0.10164 0.0
C2418 C 0.56607 0.71896 0.10175 0.0
H2419 H 0.5722 0.75824 0.12583 0.0
H2420 H 0.56002 0.74927 0.11381 0.0
H2421 H 0.57138 0.73877 0.12565 0.0
H2422 H 0.60105 0.71062 0.10968 0.0
H2423 H 0.59111 0.6862 0.10875 0.0
H2424 H 0.31029 0.59188 0.10924 0.0
H2425 H 0.28629 0.6028 0.11 0.0
H2426 H 0.26731 0.56123 0.10083 0.0
H2427 H 0.29126 0.55024 0.10084 0.0
H2428 H 0.27152 0.60455 0.08673 0.0
H2429 H 0.23704 0.57706 0.12648 0.0
H2430 H 0.25645 0.57541 0.12685 0.0
H2431 H 0.24574 0.56379 0.11546 0.0
C2432 C 0.30091 0.58499 0.10812 0.0
C2433 C 0.30253 0.57025 0.10503 0.0
C2434 C 0.28721 0.59124 0.10845 0.0
C2435 C 0.27495 0.58288 0.10544 0.0
C2436 C 0.27652 0.56789 0.10353 0.0
H2437 H 0.20569 0.5973 0.04957 0.0
H2438 H 0.22944 0.59789 0.06103 0.0
C2439 C 0.29023 0.56158 0.10352 0.0
C2440 C 0.26111 0.59003 0.10172 0.0
H2441 H 0.22471 0.58633 0.10504 0.0
C2442 C 0.26129 0.60081 0.09102 0.0
C2443 C 0.24775 0.58543 0.10743 0.0
C2444 C 0.24677 0.5749 0.11981 0.0
C2445 C 0.24847 0.60635 0.08519 0.0
C2446 C 0.23513 0.60062 0.08984 0.0
C2447 C 0.23493 0.59061 0.10126 0.0
C2448 C 0.22137 0.60368 0.08223 0.0
C2449 C 0.24942 0.61808 0.07394 0.0
C2450 C 0.20894 0.60708 0.09019 0.0
C2451 C 0.19538 0.60642 0.0837 0.0
C2452 C 0.19405 0.6026 0.06909 0.0
C2453 C 0.20651 0.60055 0.06077 0.0
C2454 C 0.22009 0.60091 0.06735 0.0
H2455 H 0.259 0.62504 0.07582 0.0
H2456 H 0.25069 0.61308 0.06313 0.0
H2457 H 0.23962 0.62498 0.07387 0.0
H2458 H 0.20964 0.60927 0.10166 0.0
H2459 H 0.18586 0.60793 0.09032 0.0
H2460 H 0.79633 0.3956 0.04926 0.0
H2461 H 0.77116 0.39638 0.05757 0.0
H2462 H 0.78569 0.40392 0.10115 0.0
H2463 H 0.81067 0.40293 0.09305 0.0
H2464 H 0.76039 0.38701 0.09965 0.0
H2465 H 0.75718 0.4376 0.06744 0.0
H2466 H 0.76178 0.42168 0.05738 0.0
H2467 H 0.77401 0.42843 0.07083 0.0
C2468 C 0.79413 0.39695 0.06067 0.0
C2469 C 0.80541 0.3995 0.07047 0.0
C2470 C 0.77978 0.39749 0.06538 0.0
C2471 C 0.77662 0.40055 0.07991 0.0
C2472 C 0.7879 0.40165 0.08989 0.0
H2473 H 0.7007 0.44778 0.1068 0.0
H2474 H 0.72561 0.4389 0.10607 0.0
C2475 C 0.80217 0.40115 0.08521 0.0
C2476 C 0.76188 0.40457 0.08449 0.0
H2477 H 0.73632 0.43067 0.0801 0.0
C2478 C 0.75506 0.39651 0.09536 0.0
C2479 C 0.75521 0.41724 0.07918 0.0
C2480 C 0.76243 0.42684 0.06816 0.0
C2481 C 0.74154 0.40064 0.10085 0.0
C2482 C 0.73469 0.41306 0.09519 0.0
C2483 C 0.74164 0.4212 0.08448 0.0
C2484 C 0.71984 0.41731 0.09923 0.0
C2485 C 0.73483 0.39181 0.11276 0.0
C2486 C 0.70836 0.40794 0.09623 0.0
C2487 C 0.6942 0.41296 0.09668 0.0
C2488 C 0.69125 0.42749 0.1 0.0
C2489 C 0.70264 0.43654 0.10422 0.0
C2490 C 0.71687 0.43149 0.10375 0.0
H2491 H 0.74315 0.38587 0.11902 0.0
H2492 H 0.72853 0.39871 0.12027 0.0
H2493 H 0.72741 0.38373 0.10795 0.0
H2494 H 0.71038 0.39705 0.09248 0.0
H2495 H 0.68562 0.40568 0.09348 0.0
H2496 H 0.94728 0.54143 0.15351 0.0
H2497 H 0.96101 0.51898 0.15397 0.0
H2498 H 0.00075 0.54316 0.15531 0.0
H2499 H 0.98708 0.56578 0.15512 0.0
H2500 H 0.98112 0.50871 0.1348 0.0
H2501 H 0.00559 0.51541 0.18904 0.0
H2502 H 0.99081 0.52645 0.18279 0.0
H2503 H 0.00896 0.53025 0.17705 0.0
C2504 C 0.95895 0.54203 0.15396 0.0
C2505 C 0.96606 0.55546 0.15436 0.0
C2506 C 0.96678 0.52915 0.1542 0.0
C2507 C 0.9819 0.52936 0.1549 0.0
C2508 C 0.98907 0.54272 0.15509 0.0
H2509 H 0.0496 0.46579 0.15333 0.0
H2510 H 0.03464 0.4874 0.15374 0.0
C2511 C 0.98124 0.55565 0.15489 0.0
C2512 C 0.9901 0.51557 0.15511 0.0
H2513 H 0.01446 0.49605 0.17474 0.0
C2514 C 0.98835 0.50589 0.14357 0.0
C2515 C -0.00054 0.51188 0.1666 0.0
C2516 C 0.00124 0.52147 0.17965 0.0
C2517 C 0.996 0.4928 0.14302 0.0
C2518 C 0.00551 0.48921 0.15441 0.0
C2519 C 0.00716 0.49882 0.16602 0.0
C2520 C 0.01437 0.47586 0.1542 0.0
C2521 C 0.99418 0.48312 0.13005 0.0
C2522 C 0.00793 0.46212 0.15446 0.0
C2523 C 0.01649 0.44964 0.15422 0.0
C2524 C 0.03164 0.45069 0.15375 0.0
C2525 C 0.03799 0.46451 0.15363 0.0
C2526 C 0.02945 0.47692 0.1539 0.0
H2527 H 0.98892 0.48882 0.1209 0.0
H2528 H 0.00478 0.47891 0.12637 0.0
H2529 H 0.98732 0.47377 0.13304 0.0
H2530 H 0.9963 0.46106 0.15493 0.0
H2531 H 0.01125 0.43919 0.15437 0.0
H2532 H 0.56551 0.01145 0.15555 0.0
H2533 H 0.54295 0.99764 0.15515 0.0
H2534 H 0.51859 0.03729 0.15495 0.0
H2535 H 0.54095 0.05115 0.15511 0.0
H2536 H 0.52001 0.99775 0.17477 0.0
H2537 H 0.50159 0.0156 0.12065 0.0
H2538 H 0.51986 0.01824 0.1269 0.0
H2539 H 0.5057 0.03017 0.13274 0.0
C2540 C 0.55536 0.01724 0.15536 0.0
C2541 C 0.55509 0.03243 0.15526 0.0
C2542 C 0.54247 0.00932 0.15515 0.0
C2543 C 0.52908 0.01643 0.15476 0.0
C2544 C 0.52878 0.03157 0.15491 0.0
H2545 H 0.43921 0.9882 0.15392 0.0
H2546 H 0.46158 0.00233 0.15488 0.0
C2547 C 0.54162 0.03948 0.15509 0.0
C2548 C 0.5154 0.00807 0.15447 0.0
H2549 H 0.48466 0.00258 0.13483 0.0
C2550 C 0.51231 0.99874 0.16601 0.0
C2551 C 0.50533 0.00943 0.14305 0.0
C2552 C 0.50831 0.01879 0.13006 0.0
C2553 C 0.49933 0.99091 0.16654 0.0
C2554 C 0.48928 0.99227 0.15512 0.0
C2555 C 0.49235 0.00161 0.1436 0.0
C2556 C 0.47571 0.98374 0.1547 0.0
C2557 C 0.49638 0.98145 0.17946 0.0
C2558 C 0.47625 0.96863 0.15407 0.0
C2559 C 0.46353 0.96054 0.15351 0.0
C2560 C 0.44996 0.96739 0.15349 0.0
C2561 C 0.44945 0.98257 0.15397 0.0
C2562 C 0.46222 0.99066 0.15451 0.0
H2563 H 0.50314 0.98455 0.18887 0.0
H2564 H 0.48484 0.98201 0.18266 0.0
H2565 H 0.49892 0.97008 0.17668 0.0
H2566 H 0.48653 0.96307 0.1539 0.0
H2567 H 0.46438 0.94889 0.15308 0.0
H2568 H 0.94273 0.4581 0.84597 0.0
H2569 H 0.95555 0.48105 0.84415 0.0
H2570 H 0.99588 0.45831 0.83954 0.0
H2571 H 0.98314 0.43521 0.84118 0.0
H2572 H 0.97767 0.49227 0.86135 0.0
H2573 H 0.99559 0.48555 0.80459 0.0
H2574 H 0.98178 0.47438 0.81262 0.0
H2575 H 0.00051 0.47089 0.81628 0.0
C2576 C 0.95434 0.45793 0.84456 0.0
C2577 C 0.96189 0.44476 0.84363 0.0
C2578 C 0.96164 0.47109 0.84354 0.0
C2579 C 0.97663 0.4714 0.84147 0.0
C2580 C 0.98426 0.45831 0.84084 0.0
H2581 H 0.04308 0.53527 0.83483 0.0
H2582 H 0.02796 0.51382 0.83538 0.0
C2583 C 0.97697 0.44511 0.84188 0.0
C2584 C 0.98425 0.48545 0.84014 0.0
H2585 H 0.00553 0.50532 0.81753 0.0
C2586 C 0.98368 0.49519 0.85173 0.0
C2587 C 0.99201 0.48926 0.82755 0.0
C2588 C 0.99244 0.47954 0.81448 0.0
C2589 C 0.99108 0.50843 0.85129 0.0
C2590 C 0.99905 0.51213 0.83879 0.0
C2591 C -0.0006 0.50249 0.8271 0.0
C2592 C 0.00791 0.52547 0.83798 0.0
C2593 C 0.99075 0.5181 0.86439 0.0
C2594 C 0.00164 0.53926 0.839 0.0
C2595 C 0.01031 0.55168 0.83871 0.0
C2596 C 0.02539 0.55049 0.83735 0.0
C2597 C 0.03152 0.53665 0.83595 0.0
C2598 C 0.02289 0.52432 0.83624 0.0
H2599 H 0.98677 0.51233 0.87412 0.0
H2600 H 0.00166 0.52248 0.86672 0.0
H2601 H 0.98342 0.52733 0.86229 0.0
H2602 H 0.99006 0.54041 0.84007 0.0
H2603 H 0.00522 0.56215 0.83975 0.0
H2604 H 0.5353 0.95071 0.84083 0.0
H2605 H 0.51357 0.96552 0.84062 0.0
H2606 H 0.53954 0.00398 0.8441 0.0
H2607 H 0.56151 0.9892 0.84413 0.0
H2608 H 0.50381 0.98417 0.86169 0.0
H2609 H 0.51295 0.01337 0.81013 0.0
H2610 H 0.52308 0.99748 0.8151 0.0
H2611 H 0.52746 0.01469 0.82292 0.0
C2612 C 0.53647 0.96233 0.84148 0.0
C2613 C 0.55021 0.96875 0.84246 0.0
C2614 C 0.52399 0.97078 0.84137 0.0
C2615 C 0.52491 0.98586 0.84217 0.0
C2616 C 0.53858 0.99237 0.84318 0.0
H2617 H 0.45938 0.05299 0.84511 0.0
H2618 H 0.4818 0.03914 0.84512 0.0
C2619 C 0.55113 0.9839 0.84327 0.0
C2620 C 0.51146 0.99462 0.8424 0.0
H2621 H 0.49276 0.02058 0.82404 0.0
C2622 C 0.50138 0.99212 0.85345 0.0
C2623 C 0.5083 0.00499 0.83164 0.0
C2624 C 0.51844 0.00775 0.81919 0.0
C2625 C 0.48831 -0.00022 0.85411 0.0
C2626 C 0.48511 0.01007 0.84329 0.0
C2627 C 0.49523 0.01267 0.8323 0.0
C2628 C 0.47136 0.01835 0.84326 0.0
C2629 C 0.47817 0.99698 0.86654 0.0
C2630 C 0.45801 0.01127 0.84204 0.0
C2631 C 0.44511 0.01916 0.84205 0.0
C2632 C 0.44532 0.03431 0.84319 0.0
C2633 C 0.45876 0.04134 0.84425 0.0
C2634 C 0.47162 0.03345 0.84423 0.0
H2635 H 0.48375 0.99164 0.87572 0.0
H2636 H 0.47325 0.00718 0.87045 0.0
H2637 H 0.46935 0.98975 0.86288 0.0
H2638 H 0.45756 -0.00036 0.84099 0.0
H2639 H 0.43499 0.01339 0.84111 0.0
H2640 H 0.16009 0.01103 0.43621 0.0
H2641 H 0.16164 0.99802 0.4592 0.0
H2642 H 0.15847 0.03828 0.48233 0.0
H2643 H 0.15716 0.05136 0.45954 0.0
H2644 H 0.17981 0.0206 0.49318 0.0
H2645 H 0.1284 0.99047 0.48701 0.0
H2646 H 0.14079 0.98804 0.47232 0.0
H2647 H 0.13311 0.00555 0.47562 0.0
C2648 C 0.15971 0.01712 0.44619 0.0
C2649 C 0.15844 0.03225 0.44599 0.0
C2650 C 0.16052 0.00966 0.45932 0.0
C2651 C 0.15996 0.01717 0.4725 0.0
C2652 C 0.15888 0.03226 0.47231 0.0
H2653 H 0.16056 0.99131 0.56367 0.0
H2654 H 0.16059 0.00543 0.54124 0.0
C2655 C 0.1581 0.03971 0.45923 0.0
C2656 C 0.16057 0.00938 0.48651 0.0
H2657 H 0.14322 0.984 0.50684 0.0
C2658 C 0.17178 0.01263 0.4962 0.0
C2659 C 0.15003 0.99907 0.49048 0.0
C2660 C 0.13732 0.99564 0.48089 0.0
C2661 C 0.17293 0.00558 0.5096 0.0
C2662 C 0.16249 0.99516 0.51348 0.0
C2663 C 0.15122 0.992 0.50384 0.0
C2664 C 0.16328 0.98694 0.52722 0.0
C2665 C 0.18551 0.00906 0.51933 0.0
C2666 C 0.16473 0.97189 0.52678 0.0
C2667 C 0.16467 0.96384 0.53949 0.0
C2668 C 0.16307 0.97061 0.55302 0.0
C2669 C 0.16187 0.98575 0.55348 0.0
C2670 C 0.16194 0.99384 0.54067 0.0
H2671 H 0.19418 0.01497 0.51351 0.0
H2672 H 0.18172 0.01596 0.52836 0.0
H2673 H 0.19015 0.99905 0.52403 0.0
H2674 H 0.16578 0.96635 0.51653 0.0
H2675 H 0.16565 0.95221 0.53866 0.0
H2676 H 0.01483 0.15553 0.56443 0.0
H2677 H 0.00115 0.15542 0.54179 0.0
H2678 H 0.04093 0.15536 0.51765 0.0
H2679 H 0.05465 0.1552 0.54009 0.0
H2680 H 0.00142 0.17532 0.51919 0.0
H2681 H 0.01927 0.12147 0.49994 0.0
H2682 H 0.02191 0.12742 0.51831 0.0
H2683 H 0.03381 0.13353 0.50425 0.0
C2684 C 0.02067 0.15542 0.55432 0.0
C2685 C 0.03586 0.15527 0.55413 0.0
C2686 C 0.01283 0.15538 0.54138 0.0
C2687 C 0.02001 0.15513 0.52802 0.0
C2688 C 0.03515 0.15521 0.52781 0.0
H2689 H 0.98924 0.15472 0.43844 0.0
H2690 H 0.00443 0.15611 0.46014 0.0
C2691 C 0.04298 0.15522 0.5407 0.0
C2692 C 0.01171 0.15507 0.51429 0.0
H2693 H 0.00593 0.13574 0.48339 0.0
C2694 C 0.00237 0.16665 0.51139 0.0
C2695 C 0.01303 0.14379 0.50406 0.0
C2696 C 0.02244 0.13078 0.50681 0.0
C2697 C 0.99439 0.16729 0.49851 0.0
C2698 C 0.99562 0.15595 0.48835 0.0
C2699 C 0.00507 0.14446 0.49116 0.0
C2700 C 0.98655 0.15541 0.47515 0.0
C2701 C 0.98481 0.18018 0.49581 0.0
C2702 C 0.97151 0.15437 0.4764 0.0
C2703 C 0.96285 0.15355 0.46411 0.0
C2704 C 0.96902 0.15369 0.45021 0.0
C2705 C 0.98413 0.15466 0.44896 0.0
C2706 C 0.99282 0.15543 0.46134 0.0
H2707 H 0.98807 0.18959 0.50249 0.0
H2708 H 0.98506 0.18339 0.48426 0.0
H2709 H 0.97353 0.17736 0.49866 0.0
H2710 H 0.96646 0.15404 0.48694 0.0
H2711 H 0.95128 0.15277 0.46554 0.0
H2712 H 0.84103 0.05128 0.53802 0.0
H2713 H 0.84084 0.0373 0.51574 0.0
H2714 H 0.8431 0.99783 0.5403 0.0
H2715 H 0.84306 0.01175 0.56278 0.0
H2716 H 0.8616 0.01861 0.50552 0.0
H2717 H 0.80942 0.99013 0.51296 0.0
H2718 H 0.81459 0.00551 0.52375 0.0
H2719 H 0.82185 0.98794 0.52767 0.0
C2720 C 0.8414 0.03961 0.53876 0.0
C2721 C 0.84205 0.03265 0.55226 0.0
C2722 C 0.84131 0.03164 0.52596 0.0
C2723 C 0.84179 0.01652 0.52633 0.0
C2724 C 0.84245 0.00949 0.53976 0.0
H2725 H 0.84636 0.9495 0.46173 0.0
H2726 H 0.84566 0.96396 0.48369 0.0
C2727 C 0.84251 0.01747 0.55261 0.0
C2728 C 0.84205 0.00822 0.5126 0.0
H2729 H 0.82394 0.98261 0.49323 0.0
C2730 C 0.85333 0.01078 0.5028 0.0
C2731 C 0.83124 0.99805 0.50905 0.0
C2732 C 0.81851 0.9953 0.51883 0.0
C2733 C 0.85425 0.00323 0.48968 0.0
C2734 C 0.84348 0.993 0.48616 0.0
C2735 C 0.83218 0.99047 0.49594 0.0
C2736 C 0.84399 0.98443 0.47262 0.0
C2737 C 0.86695 0.00599 0.47986 0.0
C2738 C 0.84318 0.99114 0.45904 0.0
C2739 C 0.84359 0.98288 0.44637 0.0
C2740 C 0.84474 0.96775 0.44707 0.0
C2741 C 0.84548 0.96112 0.46073 0.0
C2742 C 0.84506 0.96936 0.47334 0.0
H2743 H 0.87589 0.01158 0.48557 0.0
H2744 H 0.87113 0.99572 0.4753 0.0
H2745 H 0.86345 0.01294 0.47075 0.0
H2746 H 0.8421 0.00275 0.45824 0.0
H2747 H 0.84294 0.98835 0.43605 0.0
H2748 H 0.94631 0.83762 0.53783 0.0
H2749 H 0.95929 0.836 0.515 0.0
H2750 H -0.00016 0.83698 0.5378 0.0
H2751 H 0.98693 0.8385 0.56085 0.0
H2752 H 0.97918 0.85579 0.50366 0.0
H2753 H 0.00381 0.80165 0.51106 0.0
H2754 H 0.98903 0.80805 0.52204 0.0
H2755 H 0.00711 0.81413 0.52553 0.0
C2756 C 0.958 0.83742 0.53806 0.0
C2757 C 0.96557 0.83816 0.55123 0.0
C2758 C 0.96539 0.8365 0.52496 0.0
C2759 C 0.98051 0.8362 0.5247 0.0
C2760 C 0.98815 0.83694 0.53778 0.0
H2761 H 0.04627 0.83572 0.45952 0.0
H2762 H 0.03173 0.83497 0.48137 0.0
C2763 C 0.98076 0.83789 0.55094 0.0
C2764 C 0.9882 0.83556 0.51066 0.0
H2765 H 0.01163 0.8152 0.49078 0.0
C2766 C 0.98621 0.84688 0.50078 0.0
C2767 C 0.99732 0.8239 0.50694 0.0
C2768 C -0.00061 0.81116 0.51687 0.0
C2769 C 0.99344 0.84708 0.48745 0.0
C2770 C 0.00267 0.83548 0.48378 0.0
C2771 C 0.00451 0.82406 0.49359 0.0
C2772 C 0.01123 0.83541 0.47022 0.0
C2773 C 0.99151 0.85994 0.47764 0.0
C2774 C 0.00454 0.83566 0.4566 0.0
C2775 C 0.01286 0.83615 0.44397 0.0
C2776 C 0.02803 0.83631 0.44476 0.0
C2777 C 0.03463 0.83567 0.45844 0.0
C2778 C 0.02633 0.83521 0.47099 0.0
H2779 H 0.98675 0.86931 0.48343 0.0
H2780 H 0.00199 0.8633 0.47289 0.0
H2781 H 0.98413 0.857 0.46868 0.0
H2782 H 0.99288 0.83553 0.45575 0.0
H2783 H 0.00743 0.83656 0.43363 0.0
H2784 H 0.53808 0.15926 0.94908 0.0
H2785 H 0.51562 0.15991 0.96272 0.0
H2786 H 0.53965 0.15996 0.00258 0.0
H2787 H 0.56232 0.1596 0.98897 0.0
H2788 H 0.5053 0.14012 0.98214 0.0
H2789 H 0.51186 0.19359 0.00836 0.0
H2790 H 0.52299 0.18781 0.99345 0.0
H2791 H 0.5266 0.18138 0.0114 0.0
C2792 C 0.53866 0.15951 0.96075 0.0
C2793 C 0.55208 0.15941 0.96791 0.0
C2794 C 0.52576 0.15986 0.96854 0.0
C2795 C 0.52592 0.16017 0.98366 0.0
C2796 C 0.53926 0.16002 0.9909 0.0
H2797 H 0.45978 0.15734 0.0494 0.0
H2798 H 0.48212 0.15804 0.03551 0.0
C2799 C 0.55222 0.15971 0.9831 0.0
C2800 C 0.51207 0.16017 0.99176 0.0
H2801 H 0.49207 0.1793 0.01614 0.0
C2802 C 0.50238 0.14872 0.98953 0.0
C2803 C 0.50825 0.17141 0.00137 0.0
C2804 C 0.51789 0.18432 0.00372 0.0
C2805 C 0.4891 0.14807 0.99683 0.0
C2806 C 0.48532 0.15928 0.00648 0.0
C2807 C 0.49499 0.17073 0.00871 0.0
C2808 C 0.47157 0.15907 0.01472 0.0
C2809 C 0.4794 0.13522 0.99443 0.0
C2810 C 0.45817 0.1596 0.00765 0.0
C2811 C 0.44529 0.15921 0.01557 0.0
C2812 C 0.44559 0.15832 0.03073 0.0
C2813 C 0.45908 0.15799 0.03775 0.0
C2814 C 0.4719 0.15841 0.02983 0.0
H2815 H 0.48524 0.12609 0.9893 0.0
H2816 H 0.47469 0.13143 0.00478 0.0
H2817 H 0.47038 0.13838 0.9872 0.0
H2818 H 0.45767 0.16037 0.99599 0.0
H2819 H 0.43513 0.1596 0.00982 0.0
H2820 H 0.45187 0.82051 0.96171 0.0
H2821 H 0.47376 0.81941 0.97639 0.0
H2822 H 0.46018 0.8577 -0.00071 0.0
H2823 H 0.43769 0.85802 0.98533 0.0
H2824 H 0.49485 0.83596 0.97725 0.0
H2825 H 0.47309 0.8355 0.03275 0.0
H2826 H 0.46164 0.83326 0.0172 0.0
H2827 H 0.4669 0.85106 0.02312 0.0
C2828 C 0.45344 0.82846 0.97015 0.0
C2829 C 0.44309 0.83924 0.97257 0.0
C2830 C 0.46599 0.8279 0.97848 0.0
C2831 C 0.46866 0.83837 0.98915 0.0
C2832 C 0.45824 0.84918 0.99154 0.0
H2833 H 0.55745 0.85466 0.01773 0.0
H2834 H 0.53447 0.85453 0.00466 0.0
C2835 C 0.44542 0.84944 0.9835 0.0
C2836 C 0.48275 0.83838 0.99699 0.0
H2837 H 0.49814 0.84117 0.03036 0.0
C2838 C 0.49551 0.83693 0.9889 0.0
C2839 C 0.48375 0.83947 0.01221 0.0
C2840 C 0.4706 0.83974 0.02181 0.0
C2841 C 0.50915 0.83648 0.99551 0.0
C2842 C 0.5102 0.83839 0.01065 0.0
C2843 C 0.49744 0.83985 0.01875 0.0
C2844 C 0.52432 0.83853 0.01841 0.0
C2845 C 0.52215 0.83346 0.98617 0.0
C2846 C 0.52621 0.83005 0.03086 0.0
C2847 C 0.53912 0.83058 0.03863 0.0
C2848 C 0.55058 0.83931 0.03394 0.0
C2849 C 0.54886 0.84762 0.02139 0.0
C2850 C 0.53575 0.84746 0.01387 0.0
H2851 H 0.5191 0.82738 0.97628 0.0
H2852 H 0.52699 0.84383 0.98265 0.0
H2853 H 0.53044 0.82713 0.99206 0.0
H2854 H 0.51764 0.82306 0.03465 0.0
H2855 H 0.54018 0.82409 0.04831 0.0
H2856 H 0.18184 0.45017 0.96119 0.0
H2857 H 0.18267 0.4723 0.9755 0.0
H2858 H 0.14469 0.45855 0.99878 0.0
H2859 H 0.1446 0.43587 0.98518 0.0
H2860 H 0.16556 0.49309 0.97586 0.0
H2861 H 0.16678 0.47271 0.03186 0.0
H2862 H 0.16923 0.46094 0.01659 0.0
H2863 H 0.15134 0.46591 0.02245 0.0
C2864 C 0.17393 0.45174 0.96966 0.0
C2865 C 0.16328 0.44129 0.97225 0.0
C2866 C 0.17433 0.46443 0.97778 0.0
C2867 C 0.16384 0.46715 0.9884 0.0
C2868 C 0.15321 0.4566 0.99104 0.0
H2869 H 0.14505 0.55605 0.01509 0.0
H2870 H 0.1459 0.53284 0.00245 0.0
C2871 C 0.1531 0.44366 0.98321 0.0
C2872 C 0.16354 0.48142 0.9959 0.0
H2873 H 0.16045 0.49755 0.02889 0.0
C2874 C 0.16462 0.49402 0.98749 0.0
C2875 C 0.16247 0.48278 0.01109 0.0
C2876 C 0.16255 0.46985 0.02101 0.0
C2877 C 0.16469 0.50783 0.99377 0.0
C2878 C 0.16281 0.5092 0.00888 0.0
C2879 C 0.16174 0.4966 0.01729 0.0
C2880 C 0.16231 0.5235 0.0163 0.0
C2881 C 0.16727 0.52068 0.98409 0.0
C2882 C 0.17081 0.52592 0.02863 0.0
C2883 C 0.1699 0.53896 0.03615 0.0
C2884 C 0.16073 0.55002 0.03132 0.0
C2885 C 0.15241 0.54779 0.01886 0.0
C2886 C 0.15298 0.53454 0.01158 0.0
H2887 H 0.17336 0.51758 0.97423 0.0
H2888 H 0.15674 0.52514 0.98054 0.0
H2889 H 0.17339 0.52929 0.98974 0.0
H2890 H 0.1781 0.51766 0.03255 0.0
H2891 H 0.1764 0.54042 0.04577 0.0
H2892 H 0.84398 0.56283 0.98865 0.0
H2893 H 0.84451 0.54039 0.00269 0.0
H2894 H 0.84377 0.51564 0.96329 0.0
H2895 H 0.8435 0.53785 0.94922 0.0
H2896 H 0.82492 0.51766 0.0034 0.0
H2897 H 0.87826 0.49844 0.98422 0.0
H2898 H 0.87211 0.51672 0.98146 0.0
H2899 H 0.86589 0.50244 0.96986 0.0
C2900 C 0.84398 0.55262 0.98297 0.0
C2901 C 0.8438 0.55219 0.96779 0.0
C2902 C 0.84428 0.5398 0.99101 0.0
C2903 C 0.84446 0.52633 0.98403 0.0
C2904 C 0.844 0.52589 0.96891 0.0
H2905 H 0.84348 0.43648 0.01211 0.0
H2906 H 0.84295 0.45894 0.99812 0.0
C2907 C 0.84375 0.53864 0.96088 0.0
C2908 C 0.84483 0.5127 0.9925 0.0
H2909 H 0.86407 0.48159 0.99742 0.0
C2910 C 0.83353 0.50982 0.00217 0.0
C2911 C 0.85604 0.50244 0.99084 0.0
C2912 C 0.86883 0.50519 0.98114 0.0
C2913 C 0.83299 0.49684 0.01002 0.0
C2914 C 0.84417 0.48657 0.0083 0.0
C2915 C 0.85547 0.48945 0.99865 0.0
C2916 C 0.84452 0.47294 0.01674 0.0
C2917 C 0.82032 0.49411 0.01988 0.0
C2918 C 0.84582 0.47337 0.03181 0.0
C2919 C 0.84619 0.46059 0.03981 0.0
C2920 C 0.8453 0.44706 0.03293 0.0
C2921 C 0.84418 0.44667 0.01778 0.0
C2922 C 0.84386 0.4595 0.00976 0.0
H2923 H 0.81102 0.50121 0.01725 0.0
H2924 H 0.81677 0.48268 0.01921 0.0
H2925 H 0.82359 0.49633 0.03119 0.0
H2926 H 0.84663 0.48361 0.03739 0.0
H2927 H 0.84714 0.46136 0.05144 0.0
H2928 H 0.48515 0.05948 0.65697 0.0
H2929 H 0.49884 0.03681 0.65791 0.0
H2930 H 0.45906 0.0127 0.65836 0.0
H2931 H 0.44534 0.0351 0.65733 0.0
H2932 H 0.49758 0.0143 0.67903 0.0
H2933 H 0.48165 0.9946 0.62472 0.0
H2934 H 0.4794 0.01316 0.63022 0.0
H2935 H 0.4668 -0.00036 0.63611 0.0
C2936 C 0.47932 0.04935 0.65725 0.0
C2937 C 0.46413 0.04915 0.65699 0.0
C2938 C 0.48716 0.03642 0.65779 0.0
C2939 C 0.47996 0.02307 0.65797 0.0
C2940 C 0.46483 0.02285 0.65794 0.0
H2941 H 0.50777 0.93289 0.65899 0.0
H2942 H 0.49349 0.95521 0.65958 0.0
C2943 C 0.45701 0.03572 0.65741 0.0
C2944 C 0.48817 0.00932 0.65839 0.0
H2945 H 0.49406 0.97803 0.63977 0.0
C2946 C 0.49688 0.00639 0.67043 0.0
C2947 C 0.48714 0.99898 0.64719 0.0
C2948 C 0.47835 0.00176 0.63376 0.0
C2949 C 0.50444 0.9933 0.67166 0.0
C2950 C 0.50348 0.98298 0.66042 0.0
C2951 C 0.49472 0.9859 0.64841 0.0
C2952 C 0.51201 0.96941 0.66059 0.0
C2953 C 0.5132 0.99053 0.68512 0.0
C2954 C 0.52712 0.97 0.66081 0.0
C2955 C 0.53527 0.95734 0.66049 0.0
C2956 C 0.5285 0.94374 0.65981 0.0
C2957 C 0.51333 0.94315 0.65956 0.0
C2958 C 0.50516 0.95589 0.65988 0.0
H2959 H 0.50948 0.99731 0.69428 0.0
H2960 H 0.5126 0.97901 0.68837 0.0
H2961 H 0.52466 0.99322 0.68297 0.0
H2962 H 0.53265 0.9803 0.66101 0.0
H2963 H 0.54692 0.95827 0.6606 0.0
H2964 H 0.95276 0.45864 0.67954 0.0
H2965 H 0.97534 0.47211 0.68132 0.0
H2966 H 0.96242 0.49838 0.64504 0.0
H2967 H 0.93931 0.48552 0.64399 0.0
H2968 H 0.99621 0.47307 0.66405 0.0
H2969 H 0.97724 0.52933 0.66984 0.0
H2970 H 0.96511 0.51419 0.67112 0.0
H2971 H 0.97026 0.52126 0.65373 0.0
C2972 C 0.95463 0.46755 0.6722 0.0
C2973 C 0.94428 0.47119 0.66174 0.0
C2974 C 0.96757 0.47519 0.67314 0.0
C2975 C 0.97064 0.48642 0.66342 0.0
C2976 C 0.96021 0.49011 0.65298 0.0
H2977 H 0.05978 0.51338 0.64659 0.0
H2978 H 0.03667 0.50051 0.64688 0.0
C2979 C 0.94702 0.48273 0.65233 0.0
C2980 C 0.98508 0.49351 0.66373 0.0
H2981 H 0.00205 0.52621 0.66367 0.0
C2982 C 0.99745 0.48471 0.66413 0.0
C2983 C 0.98682 0.5087 0.66399 0.0
C2984 C 0.97414 0.5189 0.66481 0.0
C2985 C 0.01141 0.49059 0.66482 0.0
C2986 C 0.01316 0.50577 0.66435 0.0
C2987 C 0.0008 0.51457 0.66392 0.0
C2988 C 0.02762 0.51285 0.6646 0.0
C2989 C 0.02402 0.48042 0.66651 0.0
C2990 C 0.03024 0.52428 0.67422 0.0
C2991 C 0.04321 0.53192 0.6737 0.0
C2992 C 0.05401 0.52808 0.6638 0.0
C2993 C 0.05171 0.51633 0.65452 0.0
C2994 C 0.03851 0.50894 0.65474 0.0
H2995 H 0.02066 0.4701 0.67163 0.0
H2996 H 0.02846 0.4778 0.6557 0.0
H2997 H 0.03273 0.48527 0.67317 0.0
H2998 H 0.02209 0.52753 0.68195 0.0
H2999 H 0.04472 0.541 0.68092 0.0
H3000 H 0.48803 0.93451 0.3407 0.0
H3001 H 0.50203 0.95702 0.34051 0.0
H3002 H 0.46278 0.98149 0.33549 0.0
H3003 H 0.44876 0.95929 0.33579 0.0
H3004 H 0.50301 0.97955 0.31893 0.0
H3005 H 0.48201 -0.00057 0.37142 0.0
H3006 H 0.48033 0.98084 0.36582 0.0
H3007 H 0.46832 0.99431 0.35869 0.0
C3008 C 0.48239 0.94468 0.33955 0.0
C3009 C 0.46725 0.94505 0.33838 0.0
C3010 C 0.4904 0.95752 0.33942 0.0
C3011 C 0.4834 0.97092 0.33824 0.0
C3012 C 0.46837 0.97129 0.33671 0.0
H3013 H 0.51056 0.06107 0.33904 0.0
H3014 H 0.4967 0.03856 0.33749 0.0
C3015 C 0.46038 0.95853 0.33681 0.0
C3016 C 0.49171 0.9846 0.33858 0.0
H3017 H 0.49576 0.01596 0.35754 0.0
C3018 C 0.50151 0.98748 0.3274 0.0
C3019 C 0.48963 0.99497 0.3496 0.0
C3020 C 0.4796 0.99223 0.36214 0.0
C3021 C 0.50912 0.00059 0.32683 0.0
C3022 C 0.50707 0.01094 0.33788 0.0
C3023 C 0.49726 0.00805 0.34904 0.0
C3024 C 0.51542 0.02461 0.33838 0.0
C3025 C 0.51907 0.00335 0.31423 0.0
C3026 C 0.53049 0.02422 0.33957 0.0
C3027 C 0.53841 0.037 0.34046 0.0
C3028 C 0.53143 0.05051 0.34029 0.0
C3029 C 0.51629 0.05088 0.33917 0.0
C3030 C 0.50835 0.03803 0.33829 0.0
H3031 H 0.51633 0.99643 0.30483 0.0
H3032 H 0.51863 0.01483 0.31082 0.0
H3033 H 0.53032 0.00084 0.31748 0.0
H3034 H 0.53615 0.014 0.34002 0.0
H3035 H 0.55004 0.03625 0.34141 0.0
H3036 H 0.03827 0.45346 0.34254 0.0
H3037 H 0.01626 0.46777 0.34235 0.0
H3038 H 0.04147 0.50689 0.34268 0.0
H3039 H 0.06375 0.49258 0.34259 0.0
H3040 H 0.00701 0.48701 0.36282 0.0
H3041 H 0.01315 0.51415 0.3097 0.0
H3042 H 0.02397 0.49882 0.31492 0.0
H3043 H 0.02811 0.51647 0.32181 0.0
C3044 C 0.03922 0.46511 0.34246 0.0
C3045 C 0.05285 0.47185 0.34257 0.0
C3046 C 0.02657 0.47328 0.34238 0.0
C3047 C 0.02718 0.48839 0.34236 0.0
C3048 C 0.04073 0.49523 0.34242 0.0
H3049 H 0.95966 0.55343 0.34581 0.0
H3050 H 0.98252 0.54036 0.34539 0.0
C3051 C 0.05347 0.48703 0.34246 0.0
C3052 C 0.01355 0.49683 0.34279 0.0
H3053 H 0.99329 0.52134 0.3241 0.0
C3054 C 0.004 0.49451 0.35434 0.0
C3055 C 0.00964 0.5066 0.33172 0.0
C3056 C 0.01917 0.50911 0.31876 0.0
C3057 C 0.99071 0.50174 0.35518 0.0
C3058 C 0.98675 0.51141 0.34407 0.0
C3059 C 0.99634 0.51387 0.33259 0.0
C3060 C 0.97275 0.5192 0.34424 0.0
C3061 C 0.98112 0.49914 0.36809 0.0
C3062 C 0.95962 0.51164 0.34357 0.0
C3063 C 0.94646 0.51908 0.3438 0.0
C3064 C 0.9462 0.53424 0.34466 0.0
C3065 C 0.95941 0.54176 0.34518 0.0
C3066 C 0.97252 0.53431 0.34492 0.0
H3067 H 0.98715 0.49423 0.37721 0.0
H3068 H 0.97613 0.50938 0.37184 0.0
H3069 H 0.97231 0.49164 0.365 0.0
H3070 H 0.95956 0.49998 0.34278 0.0
H3071 H 0.93653 0.51295 0.34326 0.0
H3072 H 0.65834 0.51235 0.93728 0.0
H3073 H 0.65871 0.49936 0.96033 0.0
H3074 H 0.65944 0.53985 0.98325 0.0
H3075 H 0.65887 0.5529 0.96041 0.0
H3076 H 0.67915 0.50044 0.98286 0.0
H3077 H 0.62531 0.51885 0.0017 0.0
H3078 H 0.63113 0.5207 0.9832 0.0
H3079 H 0.63736 0.53318 0.99669 0.0
C3080 C 0.65855 0.5185 0.94722 0.0
C3081 C 0.65847 0.53368 0.94696 0.0
C3082 C 0.65878 0.51106 0.96038 0.0
C3083 C 0.65885 0.51865 0.97351 0.0
C3084 C 0.65906 0.53378 0.97327 0.0
H3085 H 0.65769 0.49036 0.06389 0.0
H3086 H 0.65939 0.50502 0.04185 0.0
C3087 C 0.65882 0.54121 0.96016 0.0
C3088 C 0.65887 0.51079 0.98748 0.0
H3089 H 0.63955 0.50588 0.01852 0.0
C3090 C 0.67048 0.5016 0.99065 0.0
C3091 C 0.64759 0.5124 0.99767 0.0
C3092 C 0.63457 0.52171 0.99464 0.0
C3093 C 0.67116 0.49402 0.00377 0.0
C3094 C 0.65981 0.4955 0.01388 0.0
C3095 C 0.64828 0.50483 0.01079 0.0
C3096 C 0.65923 0.48676 0.02729 0.0
C3097 C 0.68411 0.4846 0.00675 0.0
C3098 C 0.6584 0.47169 0.02639 0.0
C3099 C 0.65741 0.46333 0.03887 0.0
C3100 C 0.65715 0.46985 0.0526 0.0
C3101 C 0.65793 0.48499 0.05351 0.0
C3102 C 0.65889 0.49338 0.04094 0.0
H3103 H 0.69355 0.48784 0.00011 0.0
H3104 H 0.6872 0.48504 0.01832 0.0
H3105 H 0.68142 0.47325 0.00402 0.0
H3106 H 0.65832 0.46637 0.01597 0.0
H3107 H 0.65675 0.45172 0.03769 0.0
H3108 H 0.45291 0.6601 0.95987 0.0
H3109 H 0.46712 0.66021 0.98195 0.0
H3110 H 0.50627 0.65713 0.95698 0.0
H3111 H 0.49207 0.65722 0.93462 0.0
H3112 H 0.48557 0.6388 0.99171 0.0
H3113 H 0.51475 0.69072 0.98458 0.0
H3114 H 0.49911 0.68596 0.97397 0.0
H3115 H 0.51641 0.67824 0.96982 0.0
C3116 C 0.46455 0.65956 0.95898 0.0
C3117 C 0.47133 0.65867 0.94539 0.0
C3118 C 0.47266 0.65959 0.97167 0.0
C3119 C 0.48776 0.65881 0.97114 0.0
C3120 C 0.49463 0.658 0.95764 0.0
H3121 H 0.55287 0.65472 0.03844 0.0
H3122 H 0.53963 0.65537 0.01569 0.0
C3123 C 0.48649 0.65797 0.94486 0.0
C3124 C 0.49611 0.65834 0.98483 0.0
H3125 H 0.52127 0.67649 0.00477 0.0
C3126 C 0.49337 0.64706 0.99458 0.0
C3127 C 0.50627 0.66911 0.98855 0.0
C3128 C 0.50927 0.68177 0.97876 0.0
C3129 C 0.5006 0.64616 0.00788 0.0
C3130 C 0.51067 0.65699 0.01166 0.0
C3131 C 0.51351 0.66822 0.00187 0.0
C3132 C 0.51856 0.65673 0.02563 0.0
C3133 C 0.49759 0.63347 0.01763 0.0
C3134 C 0.51112 0.65746 0.03883 0.0
C3135 C 0.51867 0.65707 0.05193 0.0
C3136 C 0.53382 0.65603 0.05207 0.0
C3137 C 0.54121 0.6555 0.03879 0.0
C3138 C 0.53366 0.65588 0.02574 0.0
H3139 H 0.4925 0.62439 0.01168 0.0
H3140 H 0.50767 0.62952 0.02277 0.0
H3141 H 0.49006 0.63687 0.0263 0.0
H3142 H 0.49947 0.6584 0.039 0.0
H3143 H 0.51263 0.65762 0.06192 0.0
H3144 H 0.33229 0.5511 0.03797 0.0
H3145 H 0.33114 0.53778 0.01534 0.0
H3146 H 0.33389 0.4976 0.03864 0.0
H3147 H 0.33491 0.51087 0.06153 0.0
H3148 H 0.35221 0.51909 0.0047 0.0
H3149 H 0.29956 0.49117 0.01117 0.0
H3150 H 0.30479 0.50637 0.02219 0.0
H3151 H 0.31198 0.48873 0.02587 0.0
C3152 C 0.33251 0.53941 0.03837 0.0
C3153 C 0.33368 0.53205 0.05163 0.0
C3154 C 0.33186 0.53183 0.02538 0.0
C3155 C 0.3323 0.51671 0.0253 0.0
C3156 C 0.33329 0.50927 0.03848 0.0
H3157 H 0.33641 0.45155 0.95925 0.0
H3158 H 0.33484 0.46556 0.98141 0.0
C3159 C 0.33394 0.51687 0.05154 0.0
C3160 C 0.33242 0.50888 0.01132 0.0
H3161 H 0.31384 0.48436 0.99103 0.0
C3162 C 0.34379 0.51155 0.00166 0.0
C3163 C 0.32141 0.49908 0.00741 0.0
C3164 C 0.30866 0.49622 0.01712 0.0
C3165 C 0.34463 0.50442 0.98832 0.0
C3166 C 0.33364 0.49457 0.9844 0.0
C3167 C 0.32222 0.49197 0.99403 0.0
C3168 C 0.33419 0.48628 0.97069 0.0
C3169 C 0.35752 0.50716 0.97873 0.0
C3170 C 0.33414 0.49327 0.95722 0.0
C3171 C 0.3351 0.48526 0.94442 0.0
C3172 C 0.33602 0.47011 0.94489 0.0
C3173 C 0.33575 0.46319 0.95842 0.0
C3174 C 0.33482 0.47118 0.97115 0.0
H3175 H 0.36654 0.51229 0.98473 0.0
H3176 H 0.36147 0.49695 0.97385 0.0
H3177 H 0.35432 0.51454 0.96985 0.0
H3178 H 0.33338 0.50492 0.95661 0.0
H3179 H 0.3352 0.49093 0.9342 0.0
H3180 H 0.45987 0.31495 0.04458 0.0
H3181 H 0.47315 0.31346 0.02186 0.0
H3182 H 0.49908 0.35 0.03473 0.0
H3183 H 0.48642 0.35078 0.05795 0.0
H3184 H 0.4733 0.33118 0.00127 0.0
H3185 H 0.53008 0.32593 0.01873 0.0
H3186 H 0.51527 0.32418 0.03121 0.0
H3187 H 0.52196 0.34178 0.02624 0.0
C3188 C 0.46871 0.32238 0.0427 0.0
C3189 C 0.47227 0.33286 0.05304 0.0
C3190 C 0.47623 0.32161 0.02967 0.0
C3191 C 0.48726 0.33153 0.02652 0.0
C3192 C 0.49097 0.34191 0.03699 0.0
H3193 H 0.51166 0.35114 0.93724 0.0
H3194 H 0.49946 0.35003 0.96069 0.0
C3195 C 0.4837 0.3424 0.05025 0.0
C3196 C 0.49401 0.33159 0.0119 0.0
H3197 H 0.52626 0.33268 0.99414 0.0
C3198 C 0.4849 0.33134 -0.00026 0.0
C3199 C 0.50914 0.33166 0.00979 0.0
C3200 C 0.51966 0.33074 0.0222 0.0
C3201 C 0.49045 0.33114 0.98563 0.0
C3202 C 0.50556 0.33194 0.98352 0.0
C3203 C 0.51467 0.33218 0.99567 0.0
C3204 C 0.51227 0.33223 0.96888 0.0
C3205 C 0.47999 0.32962 0.97323 0.0
C3206 C 0.52374 0.32284 0.96568 0.0
C3207 C 0.53098 0.3238 0.9525 0.0
C3208 C 0.52672 0.33395 0.94208 0.0
C3209 C 0.51494 0.34302 0.945 0.0
C3210 C 0.50794 0.34234 0.95839 0.0
H3211 H 0.46984 0.32426 0.9767 0.0
H3212 H 0.4771 0.3405 0.96915 0.0
H3213 H 0.48473 0.32328 0.96423 0.0
H3214 H 0.5273 0.31492 0.97351 0.0
H3215 H 0.54008 0.31672 0.95052 0.0
H3216 H 0.96127 0.6616 0.54467 0.0
H3217 H 0.98297 0.66215 0.52992 0.0
H3218 H 0.95712 0.65877 0.49137 0.0
H3219 H 0.93512 0.65803 0.50615 0.0
H3220 H 0.98066 0.63948 0.49229 0.0
H3221 H 0.99845 0.69512 0.50512 0.0
H3222 H 0.99482 0.68442 0.52086 0.0
H3223 H 0.98035 0.68882 0.50868 0.0
C3224 C 0.9601 0.66107 0.53305 0.0
C3225 C 0.94638 0.65982 0.52661 0.0
C3226 C 0.97257 0.66149 0.52462 0.0
C3227 C 0.97167 0.66075 0.50954 0.0
C3228 C 0.95804 0.65948 0.503 0.0
H3229 H 0.0388 0.65574 0.44372 0.0
H3230 H 0.01587 0.65667 0.45663 0.0
C3231 C 0.94548 0.65909 0.51146 0.0
C3232 C 0.98509 0.66064 0.50077 0.0
H3233 H 0.01593 0.67974 0.49407 0.0
C3234 C 0.9883 0.64834 0.49253 0.0
C3235 C 0.99509 0.67219 0.50118 0.0
C3236 C 0.99197 0.68594 0.50932 0.0
C3237 C 0.00144 0.64708 0.48505 0.0
C3238 C 0.01153 0.65854 0.48564 0.0
C3239 C 0.00823 0.67093 0.49371 0.0
C3240 C 0.02552 0.65795 0.47785 0.0
C3241 C 0.0046 0.63331 0.47695 0.0
C3242 C 0.03861 0.65868 0.48546 0.0
C3243 C 0.05181 0.65823 0.4781 0.0
C3244 C 0.05216 0.65713 0.46295 0.0
C3245 C 0.03898 0.65651 0.45538 0.0
C3246 C 0.02583 0.65696 0.46275 0.0
H3247 H 0.99756 0.6243 0.48056 0.0
H3248 H 0.00263 0.63508 0.46527 0.0
H3249 H 0.01605 0.63004 0.47835 0.0
H3250 H 0.03861 0.65953 0.49713 0.0
H3251 H 0.06173 0.65876 0.48427 0.0
H3252 H 0.05719 0.35465 0.51159 0.0
H3253 H 0.03395 0.35454 0.49888 0.0
H3254 H 0.02025 0.31804 0.52441 0.0
H3255 H 0.04297 0.31887 0.53777 0.0
H3256 H 0.01976 0.33775 0.4826 0.0
H3257 H 0.98727 0.34348 0.53217 0.0
H3258 H 0.00666 0.34479 0.53236 0.0
H3259 H 0.99792 0.32739 0.53304 0.0
C3260 C 0.04922 0.34656 0.51437 0.0
C3261 C 0.05176 0.33685 0.52571 0.0
C3262 C 0.03592 0.34652 0.50716 0.0
C3263 C 0.02507 0.33659 0.51101 0.0
C3264 C 0.02811 0.32623 0.52166 0.0
H3265 H 0.9517 0.31849 0.45531 0.0
H3266 H 0.97464 0.31828 0.46833 0.0
C3267 C 0.04118 0.32656 0.52914 0.0
C3268 C 0.01061 0.33707 0.50396 0.0
H3269 H 0.9744 0.3362 0.51097 0.0
C3270 C 0.00985 0.33754 0.48883 0.0
C3271 C 0.99759 0.33722 0.51203 0.0
C3272 C 0.9974 0.33837 0.52829 0.0
C3273 C 0.99654 0.33781 0.48157 0.0
C3274 C 0.98355 0.33679 0.48961 0.0
C3275 C 0.9843 0.33667 0.50474 0.0
C3276 C 0.96909 0.33599 0.48257 0.0
C3277 C 0.99666 0.33961 0.46537 0.0
C3278 C 0.95783 0.34522 0.48693 0.0
C3279 C 0.94445 0.34489 0.47989 0.0
C3280 C 0.9422 0.3355 0.46822 0.0
C3281 C 0.95324 0.32593 0.46421 0.0
C3282 C 0.96643 0.32596 0.47151 0.0
H3283 H 0.00655 0.34531 0.46169 0.0
H3284 H 0.99661 0.32882 0.46018 0.0
H3285 H 0.98712 0.34577 0.46154 0.0
H3286 H 0.95951 0.35298 0.49551 0.0
H3287 H 0.93612 0.35244 0.48311 0.0
H3288 H 0.65975 0.06495 0.50677 0.0
H3289 H 0.65989 0.04283 0.4922 0.0
H3290 H 0.66142 0.01719 0.53101 0.0
H3291 H 0.6615 0.03904 0.54557 0.0
H3292 H 0.68052 0.00768 0.51015 0.0
H3293 H 0.62561 0.01538 0.48723 0.0
H3294 H 0.63791 0.03008 0.48429 0.0
H3295 H 0.6322 0.0258 0.50232 0.0
C3296 C 0.66016 0.05461 0.51219 0.0
C3297 C 0.66054 0.05382 0.52736 0.0
C3298 C 0.66015 0.04197 0.50386 0.0
C3299 C 0.66044 0.02834 0.51054 0.0
C3300 C 0.66114 0.02756 0.52562 0.0
H3301 H 0.65707 0.93776 0.48574 0.0
H3302 H 0.65855 0.96072 0.49879 0.0
C3303 C 0.66117 0.04012 0.53393 0.0
C3304 C 0.65997 0.01479 0.50197 0.0
H3305 H 0.63876 0.9951 0.47912 0.0
C3306 C 0.6714 0.00493 0.50335 0.0
C3307 C 0.64803 0.01121 0.49314 0.0
C3308 C 0.63516 0.02109 0.4917 0.0
C3309 C 0.67127 0.99163 0.49607 0.0
C3310 C 0.65928 0.98798 0.48736 0.0
C3311 C 0.64792 0.99791 0.48584 0.0
C3312 C 0.65836 0.974 0.47957 0.0
C3313 C 0.68408 0.98168 0.4976 0.0
C3314 C 0.65743 0.97385 0.46447 0.0
C3315 C 0.65651 0.96079 0.457 0.0
C3316 C 0.65641 0.94754 0.46447 0.0
C3317 C 0.65719 0.94773 0.47963 0.0
C3318 C 0.65812 0.96084 0.48711 0.0
H3319 H 0.69377 0.98749 0.50162 0.0
H3320 H 0.68143 0.97303 0.50545 0.0
H3321 H 0.68676 0.97651 0.48712 0.0
H3322 H 0.65753 0.98387 0.45844 0.0
H3323 H 0.6559 0.96111 0.44533 0.0
H3324 H 0.337 0.93882 0.51187 0.0
H3325 H 0.3356 0.96125 0.49785 0.0
H3326 H 0.33665 0.98602 0.53722 0.0
H3327 H 0.33819 0.96386 0.55126 0.0
H3328 H 0.3148 0.98412 0.49935 0.0
H3329 H 0.3699 0.00314 0.51331 0.0
H3330 H 0.36416 0.98472 0.51603 0.0
H3331 H 0.35889 0.99854 0.52858 0.0
C3332 C 0.33694 0.94903 0.51754 0.0
C3333 C 0.33783 0.9495 0.5327 0.0
C3334 C 0.33612 0.96184 0.50951 0.0
C3335 C 0.33627 0.9753 0.51649 0.0
C3336 C 0.33682 0.97577 0.5316 0.0
H3337 H 0.33654 0.06492 0.4873 0.0
H3338 H 0.33545 0.04286 0.50191 0.0
C3339 C 0.33763 0.96304 0.53961 0.0
C3340 C 0.3358 0.98891 0.50807 0.0
H3341 H 0.35476 0.01975 0.50108 0.0
C3342 C 0.32356 0.99189 0.49966 0.0
C3343 C 0.3472 0.99906 0.50858 0.0
C3344 C 0.36085 0.9962 0.517 0.0
C3345 C 0.32232 0.00487 0.4919 0.0
C3346 C 0.33376 0.015 0.49236 0.0
C3347 C 0.34597 0.01202 0.50081 0.0
C3348 C 0.3336 0.02843 0.48363 0.0
C3349 C 0.30868 0.00773 0.48348 0.0
C3350 C 0.33299 0.02763 0.46853 0.0
C3351 C 0.33361 0.04016 0.46019 0.0
C3352 C 0.33496 0.05381 0.46674 0.0
C3353 C 0.33547 0.05461 0.4819 0.0
C3354 C 0.33486 0.04202 0.49026 0.0
H3355 H 0.29952 0.00116 0.48756 0.0
H3356 H 0.30564 0.01931 0.48397 0.0
H3357 H 0.31046 0.00481 0.472 0.0
H3358 H 0.33236 0.01727 0.46316 0.0
H3359 H 0.33326 0.03908 0.44855 0.0
H3360 H 0.17019 0.52673 0.09102 0.0
H3361 H 0.16205 0.50923 0.10896 0.0
H3362 H 0.14213 0.54349 0.13345 0.0
H3363 H 0.14952 0.56095 0.11503 0.0
H3364 H 0.16416 0.50393 0.13724 0.0
H3365 H 0.10776 0.51946 0.12356 0.0
H3366 H 0.12305 0.52627 0.11371 0.0
H3367 H 0.11833 0.53387 0.13097 0.0
C3368 C 0.16425 0.53055 0.10034 0.0
C3369 C 0.16019 0.5451 0.10152 0.0
C3370 C 0.15965 0.52056 0.11061 0.0
C3371 C 0.15114 0.52501 0.12232 0.0
C3372 C 0.14828 0.53977 0.12424 0.0
H3373 H 0.0978 0.46849 0.17542 0.0
H3374 H 0.11476 0.48795 0.16996 0.0
C3375 C 0.15255 0.54972 0.11377 0.0
C3376 C 0.14401 0.51402 0.13144 0.0
H3377 H 0.1108 0.50069 0.14012 0.0
C3378 C 0.1525 0.50331 0.13803 0.0
C3379 C 0.12876 0.51316 0.13232 0.0
C3380 C 0.11893 0.52371 0.12467 0.0
C3381 C 0.14611 0.49154 0.14511 0.0
C3382 C 0.13094 0.49063 0.1457 0.0
C3383 C 0.12247 0.50161 0.13972 0.0
C3384 C 0.1234 0.47765 0.15089 0.0
C3385 C 0.15552 0.47995 0.15157 0.0
C3386 C 0.1229 0.46538 0.14206 0.0
C3387 C 0.11306 0.45436 0.14498 0.0
C3388 C 0.10364 0.45548 0.15682 0.0
C3389 C 0.10489 0.46734 0.1662 0.0
C3390 C 0.11461 0.47844 0.16316 0.0
H3391 H 0.16691 0.48351 0.15264 0.0
H3392 H 0.15139 0.47673 0.16235 0.0
H3393 H 0.15523 0.47026 0.14452 0.0
H3394 H 0.12947 0.46475 0.13241 0.0
H3395 H 0.1124 0.44529 0.13763 0.0
H3396 H 0.5475 0.09455 0.11622 0.0
H3397 H 0.52718 0.11113 0.11372 0.0
H3398 H 0.53081 0.12274 0.15865 0.0
H3399 H 0.55144 0.10629 0.1612 0.0
H3400 H 0.50286 0.11085 0.14842 0.0
H3401 H 0.52259 0.1564 0.11516 0.0
H3402 H 0.52901 0.13914 0.10908 0.0
H3403 H 0.53433 0.14573 0.12655 0.0
C3404 C 0.54418 0.10087 0.12549 0.0
C3405 C 0.55096 0.09911 0.13891 0.0
C3406 C 0.53266 0.1104 0.12403 0.0
C3407 C 0.52766 0.11822 0.13598 0.0
C3408 C 0.53469 0.1169 0.1493 0.0
H3409 H 0.44857 0.16071 0.10593 0.0
H3410 H 0.46845 0.15777 0.1232 0.0
C3411 C 0.54643 0.10752 0.15071 0.0
C3412 C 0.51389 0.12605 0.1347 0.0
H3413 H 0.4973 0.15002 0.11235 0.0
C3414 C 0.50162 0.11978 0.14095 0.0
C3415 C 0.51236 0.13778 0.1251 0.0
C3416 C 0.5253 0.14526 0.11868 0.0
C3417 C 0.48775 0.12385 0.1365 0.0
C3418 C 0.48629 0.13439 0.1256 0.0
C3419 C 0.4985 0.14184 0.12064 0.0
C3420 C 0.4729 0.13568 0.11714 0.0
C3421 C 0.47484 0.1161 0.14264 0.0
C3422 C 0.46887 0.12418 0.10816 0.0
C3423 C 0.45778 0.12589 0.09817 0.0
C3424 C 0.45047 0.1391 0.09709 0.0
C3425 C 0.45403 0.1504 0.1066 0.0
C3426 C 0.46533 0.14875 0.11646 0.0
H3427 H 0.47714 0.11182 0.15361 0.0
H3428 H 0.46531 0.12337 0.14319 0.0
H3429 H 0.47208 0.10684 0.13556 0.0
H3430 H 0.47479 0.1141 0.10839 0.0
H3431 H 0.4552 0.117 0.09102 0.0
H3432 H 0.90334 0.54685 0.11672 0.0
H3433 H 0.88606 0.52703 0.11538 0.0
H3434 H 0.87424 0.53402 0.15987 0.0
H3435 H 0.8914 0.55419 0.16121 0.0
H3436 H 0.88546 0.5054 0.15208 0.0
H3437 H 0.84098 0.52287 0.11636 0.0
H3438 H 0.85832 0.52876 0.11001 0.0
H3439 H 0.85157 0.53539 0.12698 0.0
C3440 C 0.8968 0.54441 0.1261 0.0
C3441 C 0.89873 0.55195 0.13907 0.0
C3442 C 0.88686 0.53318 0.1253 0.0
C3443 C 0.8788 0.52922 0.13749 0.0
C3444 C 0.88025 0.53709 0.15032 0.0
H3445 H 0.83886 0.44905 0.10817 0.0
H3446 H 0.84027 0.46907 0.12545 0.0
C3447 C 0.89004 0.54856 0.15105 0.0
C3448 C 0.87079 0.5155 0.13712 0.0
H3449 H 0.84791 0.49747 0.11477 0.0
C3450 C 0.87683 0.50366 0.14436 0.0
C3451 C 0.85942 0.51332 0.12722 0.0
C3452 C 0.85209 0.5258 0.1198 0.0
C3453 C 0.87309 0.48953 0.14051 0.0
C3454 C 0.86313 0.48736 0.12919 0.0
C3455 C 0.85569 0.49919 0.12335 0.0
C3456 C 0.86273 0.47369 0.12109 0.0
C3457 C 0.88069 0.47706 0.14767 0.0
C3458 C 0.87493 0.46966 0.11308 0.0
C3459 C 0.8741 0.45849 0.10307 0.0
C3460 C 0.86107 0.45109 0.10099 0.0
C3461 C 0.84906 0.45457 0.10961 0.0
C3462 C 0.84983 0.46595 0.11949 0.0
H3463 H 0.88408 0.47989 0.15882 0.0
H3464 H 0.87367 0.46735 0.14805 0.0
H3465 H 0.89054 0.47434 0.14141 0.0
H3466 H 0.8849 0.47571 0.11399 0.0
H3467 H 0.88352 0.45598 0.09661 0.0
H3468 H 0.43937 0.88647 0.13628 0.0
H3469 H 0.45706 0.86823 0.12923 0.0
H3470 H 0.48483 0.88162 0.16415 0.0
H3471 H 0.467 0.89951 0.17155 0.0
H3472 H 0.48243 0.87641 0.1197 0.0
H3473 H 0.49129 0.83874 0.16509 0.0
H3474 H 0.47564 0.85034 0.16405 0.0
H3475 H 0.49251 0.85717 0.17088 0.0
C3476 C 0.44908 0.88526 0.14267 0.0
C3477 C 0.4519 0.89452 0.15435 0.0
C3478 C 0.45914 0.8748 0.13868 0.0
C3479 C 0.47222 0.87348 0.14622 0.0
C3480 C 0.47468 0.88217 0.15838 0.0
H3481 H 0.55503 0.86033 0.11071 0.0
H3482 H 0.53416 0.86725 0.12524 0.0
C3483 C 0.46453 0.89252 0.16251 0.0
C3484 C 0.4842 0.86502 0.13992 0.0
H3485 H 0.511 0.84095 0.14791 0.0
C3486 C 0.48846 0.86845 0.1258 0.0
C3487 C 0.4921 0.85463 0.14787 0.0
C3488 C 0.48755 0.8499 0.16276 0.0
C3489 C 0.50075 0.86226 0.11963 0.0
C3490 C 0.50913 0.85258 0.12789 0.0
C3491 C 0.5046 0.84858 0.14175 0.0
C3492 C 0.52287 0.84706 0.12216 0.0
C3493 C 0.5049 0.8664 0.10442 0.0
C3494 C 0.52361 0.83318 0.11623 0.0
C3495 C 0.53552 0.82917 0.1079 0.0
C3496 C 0.54676 0.83906 0.10536 0.0
C3497 C 0.54647 0.85254 0.11233 0.0
C3498 C 0.5346 0.85649 0.12067 0.0
H3499 H 0.49586 0.87169 0.09858 0.0
H3500 H 0.5141 0.87406 0.10478 0.0
H3501 H 0.50838 0.85676 0.09821 0.0
H3502 H 0.51459 0.82581 0.11727 0.0
H3503 H 0.53549 0.81868 0.10274 0.0
H3504 H 0.10829 0.55165 0.84099 0.0
H3505 H 0.12777 0.53403 0.84436 0.0
H3506 H 0.09784 0.50508 0.86522 0.0
H3507 H 0.07845 0.52237 0.86176 0.0
H3508 H 0.13789 0.52438 0.86989 0.0
H3509 H 0.11889 0.47767 0.83873 0.0
H3510 H 0.11195 0.49566 0.83574 0.0
H3511 H 0.10429 0.48426 0.84955 0.0
C3512 C 0.10585 0.54143 0.84611 0.0
C3513 C 0.09184 0.53838 0.85113 0.0
C3514 C 0.11697 0.53138 0.84796 0.0
C3515 C 0.11416 0.51811 0.85469 0.0
C3516 C 0.10015 0.51505 0.85956 0.0
H3517 H 0.14029 0.47219 0.92099 0.0
H3518 H 0.13661 0.49023 0.90237 0.0
C3519 C 0.0891 0.52504 0.85775 0.0
C3520 C 0.12594 0.50804 0.85839 0.0
H3521 H 0.13135 0.47187 0.86174 0.0
C3522 C 0.13683 0.51292 0.8677 0.0
C3523 C 0.12493 0.49316 0.85516 0.0
C3524 C 0.11446 0.48744 0.84409 0.0
C3525 C 0.14535 0.50312 0.87543 0.0
C3526 C 0.1426 0.48817 0.87399 0.0
C3527 C 0.1332 0.48335 0.86315 0.0
C3528 C 0.14681 0.47783 0.88537 0.0
C3529 C 0.15648 0.50887 0.88581 0.0
C3530 C 0.15349 0.46467 0.88195 0.0
C3531 C 0.15543 0.45416 0.89262 0.0
C3532 C 0.15057 0.45664 0.9068 0.0
C3533 C 0.14416 0.46994 0.91019 0.0
C3534 C 0.14224 0.48037 0.89958 0.0
H3535 H 0.16153 0.51884 0.88148 0.0
H3536 H 0.15115 0.51174 0.89615 0.0
H3537 H 0.16507 0.5008 0.88801 0.0
H3538 H 0.15688 0.46241 0.87099 0.0
H3539 H 0.16041 0.444 0.88969 0.0
H3540 H 0.54243 0.1201 0.90599 0.0
H3541 H 0.52276 0.11817 0.88857 0.0
H3542 H 0.52905 0.1626 0.87617 0.0
H3543 H 0.54905 0.16454 0.89347 0.0
H3544 H 0.50014 0.15396 0.88702 0.0
H3545 H 0.52015 0.11878 0.8431 0.0
H3546 H 0.52574 0.11283 0.86069 0.0
H3547 H 0.53196 0.12995 0.85396 0.0
C3548 C 0.53982 0.12936 0.89934 0.0
C3549 C 0.54716 0.14247 0.9011 0.0
C3550 C 0.52869 0.12822 0.88933 0.0
C3551 C 0.52462 0.14021 0.88102 0.0
C3552 C 0.53221 0.15321 0.88238 0.0
H3553 H 0.44654 0.10949 0.83786 0.0
H3554 H 0.46621 0.12708 0.84027 0.0
C3555 C 0.54358 0.15429 0.89225 0.0
C3556 C 0.51117 0.13938 0.87262 0.0
H3557 H 0.4946 0.11673 0.84895 0.0
C3558 C 0.49892 0.14625 0.87829 0.0
C3559 C 0.50967 0.12949 0.86114 0.0
C3560 C 0.52262 0.12244 0.85426 0.0
C3561 C 0.48505 0.14205 0.87399 0.0
C3562 C 0.48356 0.13079 0.86385 0.0
C3563 C 0.49581 0.12529 0.85685 0.0
C3564 C 0.4701 0.12241 0.8628 0.0
C3565 C 0.47212 0.14882 0.88118 0.0
C3566 C 0.4658 0.11412 0.87472 0.0
C3567 C 0.45484 0.10394 0.87332 0.0
C3568 C 0.44793 0.10198 0.86001 0.0
C3569 C 0.45168 0.11085 0.84827 0.0
C3570 C 0.46286 0.12089 0.84961 0.0
H3571 H 0.47455 0.15997 0.88485 0.0
H3572 H 0.46271 0.14909 0.87376 0.0
H3573 H 0.46914 0.14234 0.89081 0.0
H3574 H 0.47148 0.11496 0.88491 0.0
H3575 H 0.4521 0.09729 0.88254 0.0
H3576 H 0.89868 0.44965 0.88277 0.0
H3577 H 0.88179 0.46977 0.88463 0.0
H3578 H 0.8715 0.46562 0.83941 0.0
H3579 H 0.88829 0.44521 0.83751 0.0
H3580 H 0.88293 0.49314 0.84858 0.0
H3581 H 0.83731 0.47586 0.88287 0.0
H3582 H 0.8543 0.46937 0.88957 0.0
H3583 H 0.84789 0.46333 0.87225 0.0
C3584 C 0.89254 0.45278 0.87331 0.0
C3585 C 0.89483 0.44599 0.85999 0.0
C3586 C 0.88281 0.46417 0.87441 0.0
C3587 C 0.87531 0.46903 0.86218 0.0
C3588 C 0.87707 0.46186 0.84898 0.0
H3589 H 0.83726 0.55017 0.8923 0.0
H3590 H 0.83845 0.5302 0.87491 0.0
C3591 C 0.88665 0.45025 0.84793 0.0
C3592 C 0.86774 0.48299 0.863 0.0
H3593 H 0.84501 0.501 0.88554 0.0
C3594 C 0.87423 0.49488 0.85623 0.0
C3595 C 0.85628 0.4852 0.87279 0.0
C3596 C 0.84844 0.47273 0.87968 0.0
C3597 C 0.87082 0.50898 0.86046 0.0
C3598 C 0.86073 0.51109 0.87166 0.0
C3599 C 0.85289 0.49931 0.87704 0.0
C3600 C 0.8605 0.52457 0.88008 0.0
C3601 C 0.8789 0.52145 0.85383 0.0
C3602 C 0.87255 0.52798 0.88859 0.0
C3603 C 0.87183 0.53911 0.89866 0.0
C3604 C 0.85908 0.5471 0.90027 0.0
C3605 C 0.84725 0.54419 0.8912 0.0
C3606 C 0.8479 0.53284 0.88128 0.0
H3607 H 0.8826 0.51881 0.84273 0.0
H3608 H 0.87207 0.5313 0.85345 0.0
H3609 H 0.88858 0.52384 0.86047 0.0
H3610 H 0.88229 0.52152 0.88797 0.0
H3611 H 0.88111 0.54118 0.90547 0.0
H3612 H 0.56039 0.88334 0.84786 0.0
H3613 H 0.54342 0.86474 0.85587 0.0
H3614 H 0.50782 0.89205 0.84314 0.0
H3615 H 0.52469 0.91 0.83419 0.0
H3616 H 0.52793 0.86756 0.87711 0.0
H3617 H 0.48971 0.85528 0.83389 0.0
H3618 H 0.50653 0.86439 0.83016 0.0
H3619 H 0.49053 0.87452 0.83492 0.0
C3620 C 0.54892 0.88507 0.84634 0.0
C3621 C 0.54379 0.89808 0.84051 0.0
C3622 C 0.53924 0.87446 0.85089 0.0
C3623 C 0.52427 0.87685 0.85003 0.0
C3624 C 0.51924 0.8896 0.8435 0.0
H3625 H 0.46637 0.87386 0.91669 0.0
H3626 H 0.48597 0.87592 0.89933 0.0
C3627 C 0.52891 0.89999 0.83855 0.0
C3628 C 0.51408 0.86768 0.85832 0.0
H3629 H 0.47882 0.85714 0.8586 0.0
C3630 C 0.51737 0.86486 0.87286 0.0
C3631 C 0.50038 0.86365 0.85288 0.0
C3632 C 0.49672 0.86448 0.83704 0.0
C3633 C 0.50687 0.85967 0.88237 0.0
C3634 C 0.49257 0.85787 0.87737 0.0
C3635 C 0.48967 0.85906 0.86255 0.0
C3636 C 0.48037 0.8565 0.88756 0.0
C3637 C 0.51111 0.85676 0.89783 0.0
C3638 C 0.47023 0.84534 0.88623 0.0
C3639 C 0.45876 0.84433 0.896 0.0
C3640 C 0.45735 0.85444 0.90723 0.0
C3641 C 0.46731 0.86578 0.90829 0.0
C3642 C 0.4786 0.8669 0.89844 0.0
H3643 H 0.52246 0.85294 0.89849 0.0
H3644 H 0.51038 0.86693 0.90412 0.0
H3645 H 0.504 0.84855 0.90291 0.0
H3646 H 0.47129 0.83733 0.87778 0.0
H3647 H 0.45119 0.83548 0.89494 0.0
H3648 H 0.11816 0.09358 0.4547 0.0
H3649 H 0.11653 0.11105 0.47435 0.0
H3650 H 0.16061 0.12398 0.46684 0.0
H3651 H 0.16226 0.10661 0.44687 0.0
H3652 H 0.15325 0.11325 0.49582 0.0
H3653 H 0.11631 0.15629 0.47719 0.0
H3654 H 0.1104 0.13858 0.47195 0.0
H3655 H 0.12711 0.14557 0.46494 0.0
C3656 C 0.1274 0.10036 0.45702 0.0
C3657 C 0.14034 0.09872 0.44936 0.0
C3658 C 0.12643 0.11041 0.46815 0.0
C3659 C 0.13841 0.11887 0.47188 0.0
C3660 C 0.15122 0.11765 0.46394 0.0
H3661 H 0.10998 0.16163 0.55112 0.0
H3662 H 0.12675 0.15951 0.53071 0.0
C3663 C 0.15213 0.10774 0.45259 0.0
C3664 C 0.13787 0.12725 0.48537 0.0
H3665 H 0.11538 0.15043 0.50283 0.0
C3666 C 0.14538 0.12179 0.49734 0.0
C3667 C 0.12778 0.13849 0.48726 0.0
C3668 C 0.12004 0.14519 0.47461 0.0
C3669 C 0.14168 0.12604 0.51136 0.0
C3670 C 0.13025 0.13592 0.51331 0.0
C3671 C 0.12406 0.14273 0.50128 0.0
C3672 C 0.12245 0.13686 0.52713 0.0
C3673 C 0.14917 0.11907 0.52402 0.0
C3674 C 0.11465 0.12477 0.53185 0.0
C3675 C 0.10493 0.12599 0.54325 0.0
C3676 C 0.10296 0.1393 0.55017 0.0
C3677 C 0.11137 0.15122 0.54597 0.0
C3678 C 0.12094 0.15005 0.53437 0.0
H3679 H 0.16029 0.11565 0.52112 0.0
H3680 H 0.14967 0.12654 0.53338 0.0
H3681 H 0.14305 0.10931 0.52732 0.0
H3682 H 0.11549 0.11457 0.5262 0.0
H3683 H 0.09862 0.11664 0.54632 0.0
H3684 H 0.85458 0.1147 0.56232 0.0
H3685 H 0.86214 0.13171 0.54366 0.0
H3686 H 0.83165 0.11275 0.51398 0.0
H3687 H 0.82366 0.09612 0.53274 0.0
H3688 H 0.87512 0.12112 0.52093 0.0
H3689 H 0.82937 0.15431 0.50187 0.0
H3690 H 0.82899 0.14479 0.51889 0.0
H3691 H 0.82473 0.13553 0.50234 0.0
C3692 C 0.84918 0.11448 0.55195 0.0
C3693 C 0.83869 0.10397 0.54889 0.0
C3694 C 0.85346 0.12423 0.54133 0.0
C3695 C 0.84743 0.12354 0.52744 0.0
C3696 C 0.83622 0.11373 0.52469 0.0
H3697 H 0.89294 0.1291 0.4485 0.0
H3698 H 0.87662 0.12334 0.46839 0.0
C3699 C 0.83177 0.10411 0.5354 0.0
C3700 C 0.85474 0.13087 0.51529 0.0
H3701 H 0.849 0.15078 0.48479 0.0
C3702 C 0.86943 0.12785 0.51321 0.0
C3703 C 0.84733 0.13962 0.50519 0.0
C3704 C 0.83176 0.14387 0.50727 0.0
C3705 C 0.87679 0.13283 0.50105 0.0
C3706 C 0.86918 0.1408 0.49053 0.0
C3707 C 0.85467 0.14443 0.49282 0.0
C3708 C 0.87634 0.14504 0.477 0.0
C3709 C 0.89261 0.12926 0.49936 0.0
C3710 C 0.88102 0.15927 0.47503 0.0
C3711 C 0.89037 0.1626 0.4637 0.0
C3712 C 0.89516 0.15171 0.45426 0.0
C3713 C 0.88958 0.13768 0.45569 0.0
C3714 C 0.88022 0.13438 0.46699 0.0
H3715 H 0.89753 0.12574 0.50971 0.0
H3716 H 0.89382 0.12035 0.49144 0.0
H3717 H 0.89869 0.13872 0.49523 0.0
H3718 H 0.87811 0.16758 0.48273 0.0
H3719 H 0.8944 0.17354 0.46279 0.0
H3720 H 0.8825 0.84848 0.56271 0.0
H3721 H 0.86609 0.8571 0.54389 0.0
H3722 H 0.89265 0.83654 0.51156 0.0
H3723 H 0.90832 0.82711 0.53032 0.0
H3724 H 0.87356 0.87587 0.52653 0.0
H3725 H 0.85556 0.83114 0.49232 0.0
H3726 H 0.86328 0.82796 0.50992 0.0
H3727 H 0.87469 0.82943 0.49416 0.0
C3728 C 0.88446 0.84538 0.55161 0.0
C3729 C 0.89668 0.83723 0.54792 0.0
C3730 C 0.87509 0.85029 0.54086 0.0
C3731 C 0.87803 0.84743 0.52624 0.0
C3732 C 0.88979 0.83854 0.52271 0.0
H3733 H 0.88297 0.90917 0.46127 0.0
H3734 H 0.88466 0.89235 0.48146 0.0
C3735 C 0.89889 0.83328 0.53347 0.0
C3736 C 0.87081 0.85593 0.51474 0.0
H3737 H 0.86077 0.8541 0.47934 0.0
C3738 C 0.87035 0.871 0.51638 0.0
C3739 C 0.86628 0.84974 0.50151 0.0
C3740 C 0.86483 0.83365 0.49949 0.0
C3741 C 0.86677 0.88003 0.50484 0.0
C3742 C 0.86419 0.87387 0.49112 0.0
C3743 C 0.86327 0.85882 0.48976 0.0
C3744 C 0.86353 0.88295 0.47802 0.0
C3745 C 0.86624 0.89611 0.5074 0.0
C3746 C 0.85149 0.88256 0.46886 0.0
C3747 C 0.85065 0.89197 0.45709 0.0
C3748 C 0.8618 0.90192 0.45443 0.0
C3749 C 0.87412 0.90177 0.46321 0.0
C3750 C 0.87505 0.89224 0.4748 0.0
H3751 H 0.86316 0.89858 0.51873 0.0
H3752 H 0.87711 0.90078 0.50553 0.0
H3753 H 0.85844 0.90149 0.50005 0.0
H3754 H 0.84258 0.87532 0.47107 0.0
H3755 H 0.84102 0.89185 0.45045 0.0
H3756 H 0.15684 0.88879 0.55448 0.0
H3757 H 0.15404 0.87026 0.53574 0.0
H3758 H 0.13437 0.90178 0.50767 0.0
H3759 H 0.13721 0.92021 0.52607 0.0
H3760 H 0.12854 0.86104 0.52459 0.0
H3761 H 0.16186 0.88185 0.48019 0.0
H3762 H 0.16439 0.8876 0.49868 0.0
H3763 H 0.15121 0.89634 0.4873 0.0
C3764 C 0.15208 0.89177 0.54423 0.0
C3765 C 0.1472 0.90594 0.54174 0.0
C3766 C 0.15058 0.88121 0.53354 0.0
C3767 C 0.14437 0.88475 0.5202 0.0
C3768 C 0.13964 0.89892 0.51771 0.0
H3769 H 0.07904 0.8642 0.47119 0.0
H3770 H 0.09757 0.86666 0.48956 0.0
C3771 C 0.14107 0.90941 0.52834 0.0
C3772 C 0.14095 0.87357 0.50939 0.0
H3773 H 0.13863 0.87052 0.47286 0.0
C3774 C 0.13116 0.86271 0.5133 0.0
C3775 C 0.14473 0.87536 0.49472 0.0
C3776 C 0.15627 0.88583 0.49003 0.0
C3777 C 0.12346 0.85513 0.50274 0.0
C3778 C 0.12547 0.85878 0.48806 0.0
C3779 C 0.1368 0.86802 0.48415 0.0
C3780 C 0.1142 0.85579 0.47721 0.0
C3781 C 0.11243 0.84412 0.50743 0.0
C3782 C 0.11752 0.84926 0.46397 0.0
C3783 C 0.10691 0.84797 0.45331 0.0
C3784 C 0.09292 0.85338 0.45572 0.0
C3785 C 0.08969 0.85991 0.46899 0.0
C3786 C 0.10023 0.86114 0.4796 0.0
H3787 H 0.11609 0.83841 0.51732 0.0
H3788 H 0.10216 0.84969 0.51006 0.0
H3789 H 0.11033 0.83605 0.49882 0.0
H3790 H 0.12832 0.84531 0.46185 0.0
H3791 H 0.1097 0.84289 0.44315 0.0
H3792 H 0.58041 0.96596 0.62882 0.0
H3793 H 0.59829 0.98493 0.62585 0.0
H3794 H 0.62711 0.96281 0.65497 0.0
H3795 H 0.60914 0.94352 0.65801 0.0
H3796 H 0.61203 0.00246 0.64913 0.0
H3797 H 0.64996 0.96953 0.61589 0.0
H3798 H 0.63138 0.96402 0.61788 0.0
H3799 H 0.64342 0.96292 0.633 0.0
C3800 C 0.59053 0.96506 0.63462 0.0
C3801 C 0.59339 0.95322 0.64361 0.0
C3802 C 0.60069 0.97596 0.63298 0.0
C3803 C 0.61394 0.97525 0.64025 0.0
C3804 C 0.61691 0.96349 0.64929 0.0
H3805 H 0.65714 0.05417 0.60876 0.0
H3806 H 0.65393 0.03524 0.62707 0.0
C3807 C 0.60667 0.95251 0.65097 0.0
C3808 C 0.62458 0.98673 0.63753 0.0
H3809 H 0.65078 0.99472 0.61305 0.0
C3810 C 0.62093 0.00083 0.6417 0.0
C3811 C 0.63619 0.98443 0.62794 0.0
C3812 C 0.64057 0.96944 0.62335 0.0
C3813 C 0.62743 0.01278 0.63511 0.0
C3814 C 0.63783 0.01043 0.62422 0.0
C3815 C 0.64273 0.99639 0.6214 0.0
C3816 C 0.64082 0.02164 0.61336 0.0
C3817 C 0.622 0.02773 0.63861 0.0
C3818 C 0.63456 0.02014 0.59967 0.0
C3819 C 0.6363 0.03083 0.5893 0.0
C3820 C 0.64438 0.04326 0.5924 0.0
C3821 C 0.6508 0.04472 0.6061 0.0
C3822 C 0.64902 0.03395 0.61655 0.0
H3823 H 0.61384 0.02766 0.64739 0.0
H3824 H 0.63116 0.03467 0.64197 0.0
H3825 H 0.61708 0.03265 0.62885 0.0
H3826 H 0.62809 0.01074 0.59709 0.0
H3827 H 0.63126 0.02934 0.57886 0.0
H3828 H 0.9442 0.65641 0.60896 0.0
H3829 H 0.96213 0.65469 0.62839 0.0
H3830 H 0.99115 0.63255 0.59946 0.0
H3831 H 0.97359 0.63442 0.58011 0.0
H3832 H 0.97272 0.63076 0.64044 0.0
H3833 H 0.01836 0.66086 0.61785 0.0
H3834 H 0.0002 0.66299 0.61103 0.0
H3835 H 0.0118 0.6489 0.60417 0.0
C3836 C 0.95448 0.65131 0.60674 0.0
C3837 C 0.9575 0.64555 0.59301 0.0
C3838 C 0.96472 0.65042 0.61781 0.0
C3839 C 0.97813 0.64389 0.61524 0.0
C3840 C 0.98109 0.63813 0.60155 0.0
H3841 H 0.02355 0.57938 0.64273 0.0
H3842 H 0.0058 0.59831 0.63964 0.0
C3843 C 0.97093 0.63902 0.59053 0.0
C3844 C 0.98855 0.64134 0.62704 0.0
H3845 H 0.0249 0.63838 0.63123 0.0
C3846 C 0.98411 0.63288 0.63878 0.0
C3847 C 0.00336 0.64459 0.62532 0.0
C3848 C 0.00864 0.655 0.61399 0.0
C3849 C 0.99427 0.62575 0.64741 0.0
C3850 C 0.00908 0.62686 0.64388 0.0
C3851 C 0.01352 0.63714 0.63367 0.0
C3852 C 0.01944 0.61542 0.64791 0.0
C3853 C 0.98899 0.61622 0.6595 0.0
C3854 C 0.03323 0.61875 0.65325 0.0
C3855 C 0.0436 0.60786 0.6548 0.0
C3856 C 0.04033 0.59356 0.6509 0.0
C3857 C 0.02643 0.59027 0.64585 0.0
C3858 C 0.01616 0.60108 0.64429 0.0
H3859 H 0.97953 0.6212 0.66492 0.0
H3860 H 0.98541 0.60572 0.65499 0.0
H3861 H 0.99755 0.61424 0.66766 0.0
H3862 H 0.03606 0.62978 0.65587 0.0
H3863 H 0.05423 0.6107 0.65875 0.0
H3864 H 0.36642 0.97338 0.58696 0.0
H3865 H 0.36808 0.99053 0.60686 0.0
H3866 H 0.34564 0.96084 0.63477 0.0
H3867 H 0.34385 0.94345 0.61482 0.0
H3868 H 0.33967 -0.00057 0.62719 0.0
H3869 H 0.38885 0.97521 0.65196 0.0
H3870 H 0.38635 0.9736 0.63271 0.0
H3871 H 0.37443 0.96424 0.64474 0.0
C3872 C 0.36185 0.97043 0.59731 0.0
C3873 C 0.35502 0.95706 0.59933 0.0
C3874 C 0.36275 0.98027 0.60863 0.0
C3875 C 0.3569 0.9769 0.62215 0.0
C3876 C 0.35013 0.96357 0.62433 0.0
H3877 H 0.39264 0.03937 0.6819 0.0
H3878 H 0.37634 0.01927 0.67659 0.0
C3879 C 0.34918 0.95369 0.61295 0.0
C3880 C 0.35842 0.98745 0.6339 0.0
H3881 H 0.3841 -0.00025 0.65703 0.0
C3882 C 0.34911 -0.00063 0.63411 0.0
C3883 C 0.3706 0.98715 0.64302 0.0
C3884 C 0.38067 0.97437 0.64324 0.0
C3885 C 0.35247 0.01166 0.64228 0.0
C3886 C 0.36561 0.01205 0.65003 0.0
C3887 C 0.37407 -0.0005 0.65101 0.0
C3888 C 0.37229 0.02582 0.65454 0.0
C3889 C 0.34234 0.02439 0.64185 0.0
C3890 C 0.3751 0.03637 0.64402 0.0
C3891 C 0.38441 0.04779 0.64699 0.0
C3892 C 0.39121 0.0488 0.66049 0.0
C3893 C 0.3876 0.03883 0.67136 0.0
C3894 C 0.37826 0.02737 0.66837 0.0
H3895 H 0.33095 0.02071 0.64107 0.0
H3896 H 0.34353 0.03132 0.65156 0.0
H3897 H 0.34467 0.03096 0.63211 0.0
H3898 H 0.37093 0.03523 0.63316 0.0
H3899 H 0.3869 0.05533 0.63841 0.0
H3900 H 0.94231 0.38795 0.65642 0.0
H3901 H 0.95953 0.36811 0.65303 0.0
H3902 H 0.99143 0.39855 0.63803 0.0
H3903 H 0.97461 0.41824 0.64165 0.0
H3904 H 0.97048 0.35967 0.62828 0.0
H3905 H 0.01629 0.3737 0.66287 0.0
H3906 H 0.99862 0.38153 0.66556 0.0
H3907 H 0.01133 0.38967 0.6532 0.0
C3908 C 0.9531 0.39039 0.65264 0.0
C3909 C 0.9571 0.40465 0.64924 0.0
C3910 C 0.96293 0.37907 0.65079 0.0
C3911 C 0.9769 0.38188 0.64564 0.0
C3912 C 0.98092 0.39614 0.64252 0.0
H3913 H 0.02299 0.36106 0.57804 0.0
H3914 H 0.00498 0.36342 0.59689 0.0
C3915 C 0.97117 0.4074 0.64439 0.0
C3916 C 0.98673 0.37005 0.64136 0.0
H3917 H 0.02286 0.36415 0.63839 0.0
C3918 C 0.98188 0.36024 0.63089 0.0
C3919 C 0.00152 0.37028 0.64511 0.0
C3920 C 0.00715 0.37927 0.65745 0.0
C3921 C 0.99173 0.35233 0.62258 0.0
C3922 C 0.00667 0.35467 0.62458 0.0
C3923 C 0.01139 0.36272 0.63651 0.0
C3924 C 0.01718 0.35158 0.61297 0.0
C3925 C 0.98602 0.34236 0.61105 0.0
C3926 C 0.03027 0.34453 0.61584 0.0
C3927 C 0.04079 0.34338 0.60505 0.0
C3928 C 0.03836 0.34938 0.59131 0.0
C3929 C 0.02519 0.35628 0.58848 0.0
C3930 C 0.01476 0.35745 0.59921 0.0
H3931 H 0.97598 0.33695 0.61476 0.0
H3932 H 0.98324 0.34876 0.6013 0.0
H3933 H 0.99406 0.334 0.60804 0.0
H3934 H 0.03244 0.34014 0.62645 0.0
H3935 H 0.05086 0.33799 0.60754 0.0
H3936 H 0.68026 0.95748 0.39335 0.0
H3937 H 0.67374 0.979 0.37946 0.0
H3938 H 0.62996 0.96356 0.37603 0.0
H3939 H 0.63637 0.94199 0.38962 0.0
H3940 H 0.63986 0.97902 0.35127 0.0
H3941 H 0.64962 0.00802 0.40318 0.0
H3942 H 0.66447 0.99827 0.39537 0.0
H3943 H 0.64914 0.98859 0.40222 0.0
C3944 C 0.66934 0.95848 0.3893 0.0
C3945 C 0.65873 0.94822 0.39287 0.0
C3946 C 0.66565 0.9708 0.3814 0.0
C3947 C 0.65132 0.97297 0.37703 0.0
C3948 C 0.64108 0.96209 0.37938 0.0
H3949 H 0.58648 0.03233 0.37659 0.0
H3950 H 0.60549 0.01437 0.37956 0.0
C3951 C 0.64474 0.9498 0.38722 0.0
C3952 C 0.64627 0.98723 0.37204 0.0
H3953 H 0.63674 0.02022 0.38535 0.0
C3954 C 0.63952 0.98822 0.35852 0.0
C3955 C 0.64577 0.99912 0.38163 0.0
C3956 C 0.65255 0.99853 0.39645 0.0
C3957 C 0.63144 0.00045 0.35472 0.0
C3958 C 0.63022 0.01191 0.3647 0.0
C3959 C 0.63781 0.01137 0.37776 0.0
C3960 C 0.61925 0.02328 0.36294 0.0
C3961 C 0.62336 0.00064 0.34059 0.0
C3962 C 0.62087 0.03431 0.35272 0.0
C3963 C 0.61001 0.04466 0.35102 0.0
C3964 C 0.59741 0.04403 0.35949 0.0
C3965 C 0.59602 0.03309 0.36988 0.0
C3966 C 0.60686 0.02284 0.3716 0.0
H3967 H 0.62501 0.99058 0.33427 0.0
H3968 H 0.61163 0.00204 0.34261 0.0
H3969 H 0.62703 0.00993 0.33399 0.0
H3970 H 0.63045 0.03484 0.34604 0.0
H3971 H 0.61139 0.05299 0.34293 0.0
H3972 H 0.04666 0.61756 0.40059 0.0
H3973 H 0.02621 0.61574 0.38412 0.0
H3974 H 0.03071 0.66078 0.3732 0.0
H3975 H 0.05145 0.66263 0.38959 0.0
H3976 H 0.00321 0.65204 0.3851 0.0
H3977 H 0.01967 0.61707 0.33967 0.0
H3978 H 0.02618 0.61048 0.35669 0.0
H3979 H 0.03242 0.62763 0.35004 0.0
C3980 C 0.04354 0.62698 0.39441 0.0
C3981 C 0.05054 0.64024 0.39641 0.0
C3982 C 0.03194 0.62591 0.38491 0.0
C3983 C 0.02709 0.6381 0.37735 0.0
C3984 C 0.03445 0.65123 0.37882 0.0
H3985 H 0.94596 0.60877 0.339 0.0
H3986 H 0.96614 0.62587 0.34039 0.0
C3987 C 0.04625 0.65225 0.38817 0.0
C3988 C 0.01303 0.63735 0.36996 0.0
H3989 H 0.99454 0.61503 0.34741 0.0
C3990 C 0.00129 0.64436 0.37647 0.0
C3991 C 0.01061 0.62751 0.35859 0.0
C3992 C 0.02292 0.62035 0.35074 0.0
C3993 C 0.9871 0.6404 0.3731 0.0
C3994 C 0.98474 0.6292 0.36305 0.0
C3995 C 0.99641 0.62352 0.35525 0.0
C3996 C 0.97102 0.62117 0.36272 0.0
C3997 C 0.97479 0.64739 0.38112 0.0
C3998 C 0.96708 0.61304 0.37488 0.0
C3999 C 0.95579 0.60315 0.37406 0.0
C4000 C 0.94821 0.6013 0.3611 0.0
C4001 C 0.95162 0.61004 0.34916 0.0
C4002 C 0.9631 0.6198 0.34991 0.0
H4003 H 0.97765 0.65851 0.3846 0.0
H4004 H 0.96491 0.64783 0.37435 0.0
H4005 H 0.97234 0.64098 0.39094 0.0
H4006 H 0.97326 0.61377 0.38478 0.0
H4007 H 0.95335 0.59659 0.38343 0.0
H4008 H 0.34114 0.0563 0.38422 0.0
H4009 H 0.34343 0.03777 0.36538 0.0
H4010 H 0.3616 0.00841 0.39664 0.0
H4011 H 0.3593 0.02661 0.41534 0.0
H4012 H 0.36883 0.02562 0.3564 0.0
H4013 H 0.33312 0.98247 0.37582 0.0
H4014 H 0.33121 0.001 0.38168 0.0
H4015 H 0.34367 0.98901 0.39064 0.0
C4016 C 0.34546 0.04581 0.38706 0.0
C4017 C 0.35009 0.0429 0.40124 0.0
C4018 C 0.34668 0.03525 0.37633 0.0
C4019 C 0.35231 0.02161 0.37971 0.0
C4020 C 0.35678 0.01871 0.39389 0.0
H4021 H 0.41589 0.97059 0.36176 0.0
H4022 H 0.3979 0.98958 0.36317 0.0
C4023 C 0.35566 0.02921 0.40454 0.0
C4024 C 0.35544 0.01084 0.3684 0.0
H4025 H 0.35634 0.97428 0.36503 0.0
C4026 C 0.36567 0.01444 0.35785 0.0
C4027 C 0.35099 0.99633 0.36991 0.0
C4028 C 0.339 0.99204 0.38003 0.0
C4029 C 0.37316 0.00363 0.35039 0.0
C4030 C 0.37046 0.98902 0.35385 0.0
C4031 C 0.35868 0.9855 0.36268 0.0
C4032 C 0.3815 0.97781 0.35136 0.0
C4033 C 0.38475 0.00795 0.33982 0.0
C4034 C 0.37812 0.96469 0.3446 0.0
C4035 C 0.38843 0.95367 0.34389 0.0
C4036 C 0.40214 0.95559 0.35014 0.0
C4037 C 0.40544 0.96875 0.35685 0.0
C4038 C 0.39522 0.97972 0.35748 0.0
H4039 H 0.3817 0.01801 0.33407 0.0
H4040 H 0.39492 0.01014 0.34577 0.0
H4041 H 0.3868 -0.00069 0.33176 0.0
H4042 H 0.36749 0.96294 0.34007 0.0
H4043 H 0.3856 0.9436 0.33866 0.0
H4044 H 0.03101 0.41809 0.3745 0.0
H4045 H 0.01246 0.39958 0.37634 0.0
H4046 H 0.03608 0.37246 0.34679 0.0
H4047 H 0.05493 0.39101 0.34489 0.0
H4048 H 0.99617 0.38666 0.35148 0.0
H4049 H 0.02803 0.3477 0.38455 0.0
H4050 H 0.03322 0.36646 0.38385 0.0
H4051 H 0.03543 0.35528 0.36822 0.0
C4052 C 0.03234 0.4082 0.36841 0.0
C4053 C 0.04444 0.406 0.35957 0.0
C4054 C 0.02169 0.39767 0.36941 0.0
C4055 C 0.02292 0.38475 0.36164 0.0
C4056 C 0.035 0.3824 0.35286 0.0
H4057 H 0.94298 0.33967 0.38742 0.0
H4058 H 0.96279 0.34334 0.3701 0.0
C4059 C 0.04573 0.39298 0.35184 0.0
C4060 C 0.01149 0.37385 0.36333 0.0
H4061 H 0.00274 0.34628 0.38597 0.0
C4062 C 0.99758 0.37743 0.35855 0.0
C4063 C 0.01352 0.3618 0.37242 0.0
C4064 C 0.02833 0.35747 0.37761 0.0
C4065 C 0.98543 0.37037 0.3641 0.0
C4066 C 0.98739 0.35948 0.37458 0.0
C4067 C 0.00136 0.35469 0.37793 0.0
C4068 C 0.97574 0.35601 0.38483 0.0
C4069 C 0.97059 0.37569 0.36003 0.0
C4070 C 0.97661 0.36185 0.39874 0.0
C4071 C 0.96543 0.35987 0.40853 0.0
C4072 C 0.95314 0.35195 0.40461 0.0
C4073 C 0.95233 0.34588 0.3907 0.0
C4074 C 0.96359 0.34792 0.38083 0.0
H4075 H 0.97096 0.38417 0.35156 0.0
H4076 H 0.96397 0.36656 0.35599 0.0
H4077 H 0.9651 0.38018 0.3697 0.0
H4078 H 0.98588 0.36824 0.40196 0.0
H4079 H 0.96645 0.36462 0.41916 0.0
H4080 H 0.61879 0.59585 0.95412 0.0
H4081 H 0.61693 0.61317 0.97387 0.0
H4082 H 0.66163 0.62485 0.96816 0.0
H4083 H 0.66352 0.60763 0.94809 0.0
H4084 H 0.65308 0.61405 0.9966 0.0
H4085 H 0.61773 0.65821 0.9776 0.0
H4086 H 0.61151 0.64077 0.97186 0.0
H4087 H 0.62861 0.64741 0.96549 0.0
C4088 C 0.62813 0.60234 0.95684 0.0
C4089 C 0.6413 0.60038 0.94967 0.0
C4090 C 0.62703 0.61231 0.96803 0.0
C4091 C 0.63911 0.62037 0.97231 0.0
C4092 C 0.65217 0.61884 0.96484 0.0
H4093 H 0.60831 0.66165 0.05139 0.0
H4094 H 0.62586 0.65989 0.03161 0.0
C4095 C 0.65321 0.60902 0.95343 0.0
C4096 C 0.63833 0.62854 0.98592 0.0
H4097 H 0.6156 0.65173 0.00307 0.0
C4098 C 0.64531 0.6227 0.99802 0.0
C4099 C 0.62838 0.63993 0.98769 0.0
C4100 C 0.62123 0.64705 0.97493 0.0
C4101 C 0.64117 0.62671 0.012 0.0
C4102 C 0.62982 0.63671 0.01375 0.0
C4103 C 0.62421 0.64392 0.00166 0.0
C4104 C 0.62147 0.63739 0.02725 0.0
C4105 C 0.64807 0.61933 0.02475 0.0
C4106 C 0.61335 0.62528 0.03133 0.0
C4107 C 0.60319 0.62631 0.04235 0.0
C4108 C 0.60109 0.63944 0.04956 0.0
C4109 C 0.60979 0.65138 0.04602 0.0
C4110 C 0.6198 0.6504 0.03478 0.0
H4111 H 0.65925 0.61585 0.0222 0.0
H4112 H 0.64828 0.62655 0.03432 0.0
H4113 H 0.64172 0.60956 0.02755 0.0
H4114 H 0.6143 0.61522 0.02544 0.0
H4115 H 0.59667 0.61695 0.04492 0.0
H4116 H 0.41773 0.6299 0.96834 0.0
H4117 H 0.39925 0.62805 0.98688 0.0
H4118 H 0.37173 0.65689 0.96283 0.0
H4119 H 0.39029 0.65878 0.94396 0.0
H4120 H 0.38551 0.6521 0.00318 0.0
H4121 H 0.34775 0.61876 0.97016 0.0
H4122 H 0.3665 0.62021 0.96508 0.0
H4123 H 0.35482 0.63554 0.96327 0.0
C4124 C 0.40777 0.63586 0.96693 0.0
C4125 C 0.40544 0.64443 0.95466 0.0
C4126 C 0.39726 0.63487 0.97759 0.0
C4127 C 0.38421 0.64239 0.9762 0.0
C4128 C 0.38177 0.65102 0.96403 0.0
H4129 H 0.3392 0.61233 0.05461 0.0
H4130 H 0.34256 0.63063 0.03567 0.0
C4131 C 0.39235 0.65204 0.95329 0.0
C4132 C 0.37316 0.64031 0.98744 0.0
H4133 H 0.34634 0.61651 0.99537 0.0
C4134 C 0.37651 0.6448 0.00151 0.0
C4135 C 0.3614 0.63092 0.98509 0.0
C4136 C 0.35729 0.62602 0.97011 0.0
C4137 C 0.3696 0.63862 0.01346 0.0
C4138 C 0.35912 0.62781 0.01112 0.0
C4139 C 0.35445 0.62479 0.99704 0.0
C4140 C 0.35607 0.61701 0.02237 0.0
C4141 C 0.37473 0.64238 0.02844 0.0
C4142 C 0.36255 0.60341 0.02105 0.0
C4143 C 0.36073 0.59306 0.03174 0.0
C4144 C 0.35236 0.59609 0.04399 0.0
C4145 C 0.34576 0.60973 0.04529 0.0
C4146 C 0.34762 0.62016 0.03451 0.0
H4147 H 0.38273 0.65131 0.02839 0.0
H4148 H 0.36541 0.64563 0.03523 0.0
H4149 H 0.37977 0.63276 0.03353 0.0
H4150 H 0.36922 0.60087 0.01178 0.0
H4151 H 0.36593 0.58268 0.03037 0.0
H4152 H 0.38917 0.34142 0.05282 0.0
H4153 H 0.37 0.34584 0.03509 0.0
H4154 H 0.40221 0.35562 0.00289 0.0
H4155 H 0.42121 0.35094 0.02024 0.0
H4156 H 0.36484 0.37095 0.02306 0.0
H4157 H 0.37467 0.33288 0.97887 0.0
H4158 H 0.38215 0.33011 0.99668 0.0
H4159 H 0.39161 0.34093 0.9835 0.0
C4160 C 0.39212 0.34422 0.04186 0.0
C4161 C 0.40669 0.34593 0.03794 0.0
C4162 C 0.38117 0.34667 0.03175 0.0
C4163 C 0.38467 0.35073 0.01757 0.0
C4164 C 0.39922 0.35201 0.0136 0.0
H4165 H 0.36911 0.41814 0.96732 0.0
H4166 H 0.37173 0.39979 0.98587 0.0
C4167 C 0.41011 0.34955 0.02363 0.0
C4168 C 0.37349 0.35596 0.00746 0.0
H4169 H 0.36754 0.3578 0.97123 0.0
C4170 C 0.36499 0.36772 0.0118 0.0
C4171 C 0.37324 0.35153 0.99285 0.0
C4172 C 0.3808 0.33804 0.9878 0.0
C4173 C 0.35795 0.37636 0.0016 0.0
C4174 C 0.35979 0.3733 0.98677 0.0
C4175 C 0.36652 0.3604 0.9826 0.0
C4176 C 0.3573 0.38446 0.97568 0.0
C4177 C 0.34946 0.38926 0.00675 0.0
C4178 C 0.34875 0.38172 0.96349 0.0
C4179 C 0.34737 0.39219 0.9527 0.0
C4180 C 0.35464 0.40548 0.95393 0.0
C4181 C 0.3633 0.40807 0.96608 0.0
C4182 C 0.36467 0.39764 0.97679 0.0
H4183 H 0.34428 0.38699 0.01732 0.0
H4184 H 0.3569 0.39853 0.0083 0.0
H4185 H 0.341 0.39241 0.99887 0.0
H4186 H 0.34319 0.3715 0.96233 0.0
H4187 H 0.34063 0.38989 0.94343 0.0
H4188 H 0.65008 0.38812 0.05506 0.0
H4189 H 0.64822 0.36935 0.03645 0.0
H4190 H 0.62538 0.3991 0.00886 0.0
H4191 H 0.62725 0.4178 0.02716 0.0
H4192 H 0.62333 0.35788 0.02497 0.0
H4193 H 0.65544 0.38238 0.98148 0.0
H4194 H 0.65718 0.3879 0.00013 0.0
H4195 H 0.64337 0.39561 0.98879 0.0
C4196 C 0.64474 0.39066 0.04498 0.0
C4197 C 0.63883 0.40445 0.04254 0.0
C4198 C 0.64377 0.37996 0.03436 0.0
C4199 C 0.63705 0.38299 0.02116 0.0
C4200 C 0.63104 0.3967 0.0188 0.0
H4201 H 0.57535 0.358 0.97039 0.0
H4202 H 0.59305 0.3608 0.98947 0.0
C4203 C 0.63195 0.40733 0.02936 0.0
C4204 C 0.63483 0.37168 0.01017 0.0
H4205 H 0.63389 0.36867 0.9736 0.0
C4206 C 0.62607 0.35988 0.01376 0.0
C4207 C 0.63884 0.37394 0.99563 0.0
C4208 C 0.64938 0.38557 0.99133 0.0
C4209 C 0.61949 0.35163 0.00294 0.0
C4210 C 0.62155 0.35555 0.98834 0.0
C4211 C 0.63202 0.3659 0.98482 0.0
C4212 C 0.61081 0.35178 0.9772 0.0
C4213 C 0.60947 0.33955 0.00726 0.0
C4214 C 0.61497 0.34609 0.9638 0.0
C4215 C 0.60481 0.34461 0.95272 0.0
C4216 C 0.59044 0.34903 0.95487 0.0
C4217 C 0.58633 0.35452 0.96837 0.0
C4218 C 0.59641 0.35592 0.97938 0.0
H4219 H 0.6135 0.33405 0.01713 0.0
H4220 H 0.59868 0.34408 0.00982 0.0
H4221 H 0.60828 0.33146 0.9985 0.0
H4222 H 0.6261 0.34309 0.96184 0.0
H4223 H 0.60827 0.34033 0.9424 0.0
H4224 H 0.09774 0.38743 0.11407 0.0
H4225 H 0.10767 0.37804 0.09144 0.0
H4226 H 0.06492 0.37706 0.07303 0.0
H4227 H 0.05498 0.38682 0.09559 0.0
H4228 H 0.10169 0.35316 0.07345 0.0
H4229 H 0.08802 0.40565 0.0475 0.0
H4230 H 0.08771 0.4032 0.06681 0.0
H4231 H 0.07335 0.39613 0.05589 0.0
C4232 C 0.09047 0.38508 0.10521 0.0
C4233 C 0.07567 0.38808 0.1064 0.0
C4234 C 0.09612 0.37962 0.09237 0.0
C4235 C 0.08705 0.37707 0.08053 0.0
C4236 C 0.07211 0.37914 0.08201 0.0
H4237 H 0.11445 0.37044 0.99088 0.0
H4238 H 0.09946 0.36869 0.0126 0.0
C4239 C 0.06644 0.38462 0.09489 0.0
C4240 C 0.09348 0.3737 0.06632 0.0
H4241 H 0.10038 0.38871 0.03344 0.0
C4242 C 0.10129 0.36083 0.06462 0.0
C4243 C 0.09296 0.38378 0.05487 0.0
C4244 C 0.08516 0.39802 0.0563 0.0
C4245 C 0.10875 0.35784 0.05176 0.0
C4246 C 0.1086 0.36814 0.04049 0.0
C4247 C 0.10043 0.3808 0.04208 0.0
C4248 C 0.11752 0.36664 0.02729 0.0
C4249 C 0.11674 0.34372 0.05038 0.0
C4250 C 0.13263 0.36576 0.02832 0.0
C4251 C 0.14117 0.36675 0.01592 0.0
C4252 C 0.13472 0.36892 0.0024 0.0
C4253 C 0.11963 0.36909 0.00128 0.0
C4254 C 0.11108 0.36798 0.01364 0.0
H4255 H 0.11202 0.33532 0.05753 0.0
H4256 H 0.11659 0.33971 0.03909 0.0
H4257 H 0.12814 0.34532 0.05367 0.0
H4258 H 0.13785 0.36505 0.03875 0.0
H4259 H 0.15282 0.36662 0.01698 0.0
H4260 H 0.61637 0.11833 0.99752 0.0
H4261 H 0.62005 0.10472 0.01984 0.0
H4262 H 0.64047 0.14186 0.03913 0.0
H4263 H 0.63614 0.15575 0.01697 0.0
H4264 H 0.64384 0.09736 0.03614 0.0
H4265 H 0.60729 0.13392 0.0667 0.0
H4266 H 0.60869 0.13444 0.0473 0.0
H4267 H 0.6224 0.14266 0.0583 0.0
C4268 C 0.62142 0.12365 0.00662 0.0
C4269 C 0.62535 0.13826 0.00583 0.0
C4270 C 0.62372 0.11581 0.01927 0.0
C4271 C 0.63019 0.12239 0.03127 0.0
C4272 C 0.6351 0.1367 0.03013 0.0
H4273 H 0.63 0.092 0.12011 0.0
H4274 H 0.63818 0.10418 0.09806 0.0
C4275 C 0.63268 0.14459 0.01748 0.0
C4276 C 0.63095 0.1145 0.04515 0.0
H4277 H 0.61768 0.11473 0.07949 0.0
C4278 C 0.63824 0.1012 0.04568 0.0
C4279 C 0.62356 0.1195 0.05755 0.0
C4280 C 0.61493 0.13334 0.05747 0.0
C4281 C 0.63819 0.0927 0.05824 0.0
C4282 C 0.63055 0.0976 0.0705 0.0
C4283 C 0.62363 0.11106 0.07009 0.0
C4284 C 0.62853 0.08861 0.08356 0.0
C4285 C 0.64622 0.07855 0.05826 0.0
C4286 C 0.6208 0.07558 0.0827 0.0
C4287 C 0.61619 0.06863 0.09528 0.0
C4288 C 0.61915 0.0747 0.10881 0.0
C4289 C 0.62767 0.08718 0.10972 0.0
C4290 C 0.63231 0.09411 0.09717 0.0
H4291 H 0.65489 0.0784 0.04998 0.0
H4292 H 0.65107 0.07634 0.069 0.0
H4293 H 0.63856 0.06969 0.05573 0.0
H4294 H 0.61751 0.07131 0.07233 0.0
H4295 H 0.60951 0.05907 0.09442 0.0
H4296 H 0.94559 0.61633 0.09615 0.0
H4297 H 0.93609 0.62456 0.07286 0.0
H4298 H 0.89505 0.63366 0.09302 0.0
H4299 H 0.90491 0.62649 0.11634 0.0
H4300 H 0.9168 0.61091 0.05946 0.0
H4301 H 0.89536 0.66584 0.06548 0.0
H4302 H 0.9074 0.65807 0.07868 0.0
H4303 H 0.88818 0.65499 0.07975 0.0
C4304 C 0.93474 0.62066 0.09564 0.0
C4305 C 0.92585 0.62056 0.10789 0.0
C4306 C 0.92928 0.62528 0.08234 0.0
C4307 C 0.91482 0.62978 0.0811 0.0
C4308 C 0.90631 0.6306 0.09363 0.0
H4309 H 0.85641 0.60401 0.01612 0.0
H4310 H 0.87236 0.60773 0.0368 0.0
C4311 C 0.91187 0.62627 0.10694 0.0
C4312 C 0.90793 0.63121 0.06667 0.0
H4313 H 0.88243 0.65035 0.04815 0.0
C4314 C 0.90957 0.61975 0.05689 0.0
C4315 C 0.89865 0.64281 0.06304 0.0
C4316 C 0.89746 0.65617 0.07226 0.0
C4317 C 0.90149 0.61907 0.04413 0.0
C4318 C 0.89105 0.62985 0.04133 0.0
C4319 C 0.89014 0.64186 0.05052 0.0
C4320 C 0.88053 0.62834 0.02936 0.0
C4321 C 0.90411 0.60665 0.03391 0.0
C4322 C 0.87913 0.6391 0.01877 0.0
C4323 C 0.86978 0.63709 0.00707 0.0
C4324 C 0.86182 0.62425 0.00579 0.0
C4325 C 0.86271 0.61384 0.01673 0.0
C4326 C 0.87186 0.61593 0.02848 0.0
H4327 H 0.91536 0.6026 0.03482 0.0
H4328 H 0.89678 0.5976 0.03673 0.0
H4329 H 0.90209 0.60981 0.02253 0.0
H4330 H 0.88558 0.64884 0.01934 0.0
H4331 H 0.86919 0.64529 0.99875 0.0
H4332 H 0.37357 0.88435 0.99394 0.0
H4333 H 0.37165 0.89761 0.01675 0.0
H4334 H 0.36157 0.85794 0.03894 0.0
H4335 H 0.36417 0.84456 0.01622 0.0
H4336 H 0.3507 0.90106 0.03845 0.0
H4337 H 0.39898 0.87135 0.05821 0.0
H4338 H 0.39328 0.8708 0.03961 0.0
H4339 H 0.38413 0.86008 0.05294 0.0
C4340 C 0.37106 0.87848 0.00373 0.0
C4341 C 0.36966 0.8634 0.00354 0.0
C4342 C 0.36975 0.88607 0.01668 0.0
C4343 C 0.36684 0.87869 0.02958 0.0
C4344 C 0.36416 0.86377 0.02915 0.0
H4345 H 0.37987 0.90523 0.11815 0.0
H4346 H 0.37007 0.89305 0.09683 0.0
C4347 C 0.36558 0.85616 0.0162 0.0
C4348 C 0.368 0.88638 0.04354 0.0
H4349 H 0.38838 0.88793 0.07414 0.0
C4350 C 0.35886 0.89815 0.04632 0.0
C4351 C 0.37877 0.88264 0.05369 0.0
C4352 C 0.38945 0.87062 0.05096 0.0
C4353 C 0.36018 0.90626 0.05909 0.0
C4354 C 0.371 0.90253 0.06918 0.0
C4355 C 0.38 0.89067 0.06644 0.0
C4356 C 0.37383 0.91104 0.08241 0.0
C4357 C 0.34999 0.91867 0.06171 0.0
C4358 C 0.37876 0.92535 0.08144 0.0
C4359 C 0.3843 0.93233 0.09365 0.0
C4360 C 0.3851 0.92499 0.10686 0.0
C4361 C 0.37935 0.91103 0.10801 0.0
C4362 C 0.37376 0.90411 0.09587 0.0
H4363 H 0.34002 0.91768 0.05511 0.0
H4364 H 0.34693 0.91935 0.07328 0.0
H4365 H 0.35542 0.92891 0.05869 0.0
H4366 H 0.37919 0.9308 0.07111 0.0
H4367 H 0.3888 0.94307 0.09256 0.0
H4368 H 0.068 0.58433 0.9013 0.0
H4369 H 0.08058 0.59168 0.92335 0.0
H4370 H 0.08955 0.63327 0.90442 0.0
H4371 H 0.0768 0.6259 0.88231 0.0
H4372 H 0.10996 0.5994 0.92279 0.0
H4373 H 0.07585 0.64306 0.94603 0.0
H4374 H 0.06896 0.63013 0.93316 0.0
H4375 H 0.08038 0.64459 0.9272 0.0
C4376 C 0.07238 0.59515 0.90202 0.0
C4377 C 0.0714 0.60462 0.89027 0.0
C4378 C 0.07957 0.59933 0.91456 0.0
C4379 C 0.08591 0.61304 0.91553 0.0
C4380 C 0.08451 0.62274 0.90396 0.0
H4381 H 0.15458 0.62645 0.97941 0.0
H4382 H 0.14079 0.62796 0.9568 0.0
C4383 C 0.07725 0.61855 0.89139 0.0
C4384 C 0.09514 0.61648 0.9281 0.0
H4385 H 0.09766 0.63771 0.95812 0.0
C4386 C 0.10734 0.60785 0.93047 0.0
C4387 C 0.09164 0.62749 0.93806 0.0
C4388 C 0.07845 0.63683 0.93612 0.0
C4389 C 0.11598 0.60965 0.94275 0.0
C4390 C 0.11245 0.62059 0.9528 0.0
C4391 C 0.1004 0.62944 0.9503 0.0
C4392 C 0.12042 0.622 0.96657 0.0
C4393 C 0.12842 0.5994 0.94517 0.0
C4394 C 0.11338 0.61888 0.9796 0.0
C4395 C 0.1212 0.61811 0.99246 0.0
C4396 C 0.13618 0.6203 0.99244 0.0
C4397 C 0.14306 0.62444 0.9796 0.0
C4398 C 0.13523 0.62526 0.96672 0.0
H4399 H 0.12789 0.58986 0.93792 0.0
H4400 H 0.13872 0.60511 0.94301 0.0
H4401 H 0.12862 0.59555 0.95652 0.0
H4402 H 0.10193 0.61649 0.97974 0.0
H4403 H 0.11558 0.61544 0.00236 0.0
H4404 H 0.3804 0.11808 0.00112 0.0
H4405 H 0.37692 0.10469 0.97862 0.0
H4406 H 0.35865 0.14269 0.95883 0.0
H4407 H 0.36281 0.15632 0.98118 0.0
H4408 H 0.3536 0.09824 0.96145 0.0
H4409 H 0.39239 0.13367 0.93238 0.0
H4410 H 0.3903 0.13418 0.95172 0.0
H4411 H 0.37729 0.14291 0.94025 0.0
C4412 C 0.37586 0.12362 0.99188 0.0
C4413 C 0.37251 0.13838 0.9926 0.0
C4414 C 0.37367 0.11592 0.97912 0.0
C4415 C 0.36788 0.1228 0.96694 0.0
C4416 C 0.36351 0.13728 0.96799 0.0
H4417 H 0.36955 0.09294 0.87795 0.0
H4418 H 0.361 0.10504 0.89989 0.0
C4419 C 0.36582 0.14503 0.98074 0.0
C4420 C 0.36733 0.11499 0.95298 0.0
H4421 H 0.38172 0.11497 0.91909 0.0
C4422 C 0.35964 0.10194 0.95213 0.0
C4423 C 0.3753 0.11981 0.94087 0.0
C4424 C 0.3844 0.13333 0.94132 0.0
C4425 C 0.35984 0.09351 0.93952 0.0
C4426 C 0.36801 0.09823 0.92755 0.0
C4427 C 0.37536 0.11145 0.92827 0.0
C4428 C 0.37015 0.08926 0.91449 0.0
C4429 C 0.3514 0.0796 0.93913 0.0
C4430 C 0.3777 0.07614 0.91543 0.0
C4431 C 0.38256 0.06924 0.90291 0.0
C4432 C 0.38 0.07545 0.88936 0.0
C4433 C 0.37159 0.088 0.88836 0.0
C4434 C 0.36673 0.09489 0.90084 0.0
H4435 H 0.34261 0.07955 0.94729 0.0
H4436 H 0.34664 0.07775 0.92829 0.0
H4437 H 0.35876 0.07047 0.94158 0.0
H4438 H 0.3807 0.07176 0.92585 0.0
H4439 H 0.38915 0.05963 0.90386 0.0
H4440 H 0.8826 0.37993 0.00335 0.0
H4441 H 0.89552 0.37617 0.98062 0.0
H4442 H 0.85644 0.3601 0.96105 0.0
H4443 H 0.84329 0.36464 0.98359 0.0
H4444 H 0.90081 0.35315 0.96302 0.0
H4445 H 0.8665 0.39358 0.93491 0.0
H4446 H 0.86609 0.3912 0.95421 0.0
H4447 H 0.85667 0.37879 0.94263 0.0
C4448 C 0.87672 0.37585 0.9941 0.0
C4449 C 0.86181 0.37326 0.99494 0.0
C4450 C 0.88416 0.37348 0.98121 0.0
C4451 C 0.87685 0.36825 0.96902 0.0
C4452 C 0.86219 0.36456 0.9702 0.0
H4453 H 0.90456 0.36799 0.87941 0.0
H4454 H 0.89296 0.36004 0.90184 0.0
C4455 C 0.85471 0.36707 0.98307 0.0
C4456 C 0.88442 0.36755 0.95494 0.0
H4457 H 0.88424 0.38196 0.92105 0.0
C4458 C 0.89715 0.35936 0.9538 0.0
C4459 C 0.87967 0.37575 0.94295 0.0
C4460 C 0.86657 0.38544 0.94372 0.0
C4461 C 0.9053 0.35926 0.941 0.0
C4462 C 0.9006 0.36758 0.92912 0.0
C4463 C 0.88772 0.37547 0.93016 0.0
C4464 C 0.90925 0.36926 0.91581 0.0
C4465 C 0.91888 0.35034 0.94027 0.0
C4466 C 0.92249 0.37664 0.91625 0.0
C4467 C 0.92908 0.3812 0.90345 0.0
C4468 C 0.92243 0.3785 0.89013 0.0
C4469 C 0.9098 0.37018 0.88963 0.0
C4470 C 0.90321 0.36565 0.9024 0.0
H4471 H 0.91902 0.34178 0.94868 0.0
H4472 H 0.92008 0.34523 0.9295 0.0
H4473 H 0.92835 0.35745 0.94207 0.0
H4474 H 0.9272 0.37976 0.92648 0.0
H4475 H 0.93878 0.3877 0.90401 0.0
H4476 H 0.61051 0.90109 0.88263 0.0
H4477 H 0.61788 0.89019 0.90548 0.0
H4478 H 0.62054 0.93246 0.92485 0.0
H4479 H 0.61235 0.94336 0.90212 0.0
H4480 H 0.64036 0.89195 0.92419 0.0
H4481 H 0.59016 0.9132 0.94943 0.0
H4482 H 0.59343 0.91434 0.9303 0.0
H4483 H 0.60219 0.92668 0.94245 0.0
C4484 C 0.61271 0.90805 0.89177 0.0
C4485 C 0.61049 0.923 0.89078 0.0
C4486 C 0.61706 0.90183 0.90477 0.0
C4487 C 0.61941 0.91048 0.91697 0.0
C4488 C 0.61842 0.92556 0.91565 0.0
H4489 H 0.64188 0.86727 -0.00076 0.0
H4490 H 0.64409 0.88231 0.97748 0.0
C4491 C 0.61389 0.93178 0.90266 0.0
C4492 C 0.62144 0.90348 0.93122 0.0
H4493 H 0.60478 0.89833 0.96365 0.0
C4494 C 0.63269 0.89344 0.93291 0.0
C4495 C 0.6113 0.90534 0.94249 0.0
C4496 C 0.59852 0.91537 0.9411 0.0
C4497 C 0.63377 0.88484 0.94536 0.0
C4498 C 0.6235 0.88659 0.95652 0.0
C4499 C 0.61263 0.89704 0.95506 0.0
C4500 C 0.62289 0.87691 0.96924 0.0
C4501 C 0.64543 0.8735 0.94615 0.0
C4502 C 0.61027 0.86894 0.97183 0.0
C4503 C 0.60894 0.86059 0.98427 0.0
C4504 C 0.62021 0.86002 0.99435 0.0
C4505 C 0.63306 0.86755 0.99156 0.0
C4506 C 0.63434 0.87608 0.97914 0.0
H4507 H 0.65045 0.87147 0.93545 0.0
H4508 H 0.65402 0.87719 0.95363 0.0
H4509 H 0.64104 0.86317 0.95035 0.0
H4510 H 0.60134 0.86934 0.96429 0.0
H4511 H 0.59903 0.85463 0.98604 0.0
H4512 H 0.99378 0.11467 0.37877 0.0
H4513 H 0.01611 0.101 0.37585 0.0
H4514 H 0.03913 0.14044 0.36682 0.0
H4515 H 0.01686 0.15429 0.37048 0.0
H4516 H 0.03714 0.0977 0.35441 0.0
H4517 H 0.05879 0.12516 0.40328 0.0
H4518 H 0.04013 0.12657 0.39797 0.0
H4519 H 0.0537 0.1369 0.38872 0.0
C4520 C 0.00362 0.12046 0.37635 0.0
C4521 C 0.00375 0.1356 0.37553 0.0
C4522 C 0.01632 0.1126 0.37441 0.0
C4523 C 0.02933 0.11975 0.37147 0.0
C4524 C 0.02925 0.13476 0.36941 0.0
H4525 H 0.11326 0.07577 0.36479 0.0
H4526 H 0.09086 0.08817 0.35763 0.0
C4527 C 0.01653 0.14265 0.37143 0.0
C4528 C 0.04306 0.11159 0.37209 0.0
H4529 H 0.07342 0.10759 0.39251 0.0
C4530 C 0.04517 0.09992 0.36263 0.0
C4531 C 0.05339 0.11442 0.38297 0.0
C4532 C 0.0514 0.12635 0.39391 0.0
C4533 C 0.05727 0.09084 0.36395 0.0
C4534 C 0.06748 0.09363 0.37492 0.0
C4535 C 0.06553 0.10551 0.38411 0.0
C4536 C 0.07987 0.084 0.37783 0.0
C4537 C 0.05879 0.07805 0.354 0.0
C4538 C 0.08096 0.07733 0.39139 0.0
C4539 C 0.09367 0.07041 0.39546 0.0
C4540 C 0.10544 0.06995 0.38599 0.0
C4541 C 0.10414 0.07582 0.3721 0.0
C4542 C 0.0914 0.08288 0.36804 0.0
H4543 H 0.04877 0.07599 0.34775 0.0
H4544 H 0.0677 0.0801 0.34626 0.0
H4545 H 0.06156 0.0682 0.36024 0.0
H4546 H 0.07221 0.07813 0.39911 0.0
H4547 H 0.09459 0.06609 0.40629 0.0
H4548 H 0.94583 0.09522 0.3827 0.0
H4549 H 0.93537 0.07347 0.37173 0.0
H4550 H 0.89268 0.09118 0.37767 0.0
H4551 H 0.90312 0.11303 0.38792 0.0
H4552 H 0.91937 0.05564 0.38636 0.0
H4553 H 0.88725 0.0725 0.33939 0.0
H4554 H 0.90077 0.08409 0.34735 0.0
H4555 H 0.88264 0.08367 0.35447 0.0
C4556 C 0.93425 0.0946 0.3812 0.0
C4557 C 0.92523 0.10562 0.38634 0.0
C4558 C 0.92828 0.0822 0.37497 0.0
C4559 C 0.91323 0.08072 0.37373 0.0
C4560 C 0.90432 0.09215 0.37815 0.0
H4561 H 0.85869 0.01384 0.39674 0.0
H4562 H 0.87457 0.03453 0.39298 0.0
C4563 C 0.91027 0.10454 0.38426 0.0
C4564 C 0.90665 0.06656 0.3702 0.0
H4565 H 0.87786 0.05147 0.35278 0.0
C4566 C 0.91057 0.05465 0.3787 0.0
C4567 C 0.89529 0.06509 0.36007 0.0
C4568 C 0.89139 0.07701 0.3497 0.0
C4569 C 0.90265 0.04179 0.37827 0.0
C4570 C 0.89032 0.04093 0.36934 0.0
C4571 C 0.88714 0.0523 0.35988 0.0
C4572 C 0.87989 0.02896 0.37092 0.0
C4573 C 0.90721 0.02942 0.38785 0.0
C4574 C 0.87708 0.01939 0.35951 0.0
C4575 C 0.86796 0.00752 0.36166 0.0
C4576 C 0.86163 0.00513 0.37524 0.0
C4577 C 0.86382 0.0152 0.38632 0.0
C4578 C 0.87285 0.02701 0.38418 0.0
H4579 H 0.91894 0.02992 0.39033 0.0
H4580 H 0.90125 0.03007 0.39822 0.0
H4581 H 0.90479 0.01885 0.38275 0.0
H4582 H 0.88229 0.02085 0.34915 0.0
H4583 H 0.86631 -6e-05 0.35292 0.0
H4584 H 0.90368 0.9446 0.38535 0.0
H4585 H 0.92619 0.93441 0.3758 0.0
H4586 H 0.90491 0.89339 0.36977 0.0
H4587 H 0.88236 0.90379 0.37856 0.0
H4588 H 0.94005 0.91454 0.38942 0.0
H4589 H 0.92977 0.8933 0.33492 0.0
H4590 H 0.91765 0.9059 0.34353 0.0
H4591 H 0.91613 0.88679 0.34695 0.0
C4592 C 0.90376 0.93356 0.38149 0.0
C4593 C 0.89146 0.92486 0.38287 0.0
C4594 C 0.91659 0.92774 0.37607 0.0
C4595 C 0.91727 0.91313 0.37197 0.0
C4596 C 0.90465 0.90475 0.37251 0.0
H4597 H 0.98155 0.8525 0.39252 0.0
H4598 H 0.96078 0.86851 0.38968 0.0
C4599 C 0.89182 0.91062 0.37774 0.0
C4600 C 0.93142 0.90602 0.36954 0.0
H4601 H 0.94825 0.88047 0.34894 0.0
C4602 C 0.94194 0.90737 0.38036 0.0
C4603 C 0.93408 0.89677 0.35765 0.0
C4604 C 0.92384 0.89575 0.34505 0.0
C4605 C 0.95453 0.89902 0.38016 0.0
C4606 C 0.95649 0.88874 0.36904 0.0
C4607 C 0.94654 0.88811 0.35764 0.0
C4608 C 0.96832 0.87804 0.36972 0.0
C4609 C 0.96547 0.90104 0.39207 0.0
C4610 C 0.97903 0.87753 0.35902 0.0
C4611 C 0.99088 0.86828 0.36058 0.0
C4612 C 0.99215 0.85953 0.3729 0.0
C4613 C 0.98099 0.85944 0.38313 0.0
C4614 C 0.96915 0.86857 0.38152 0.0
H4615 H 0.96475 0.91202 0.39684 0.0
H4616 H 0.9633 0.89312 0.40079 0.0
H4617 H 0.97663 0.8993 0.38808 0.0
H4618 H 0.97848 0.88465 0.34976 0.0
H4619 H -0.00065 0.86845 0.35252 0.0
H4620 H 0.14411 0.98151 0.39665 0.0
H4621 H 0.1294 0.95974 0.39393 0.0
H4622 H 0.11519 0.9744 0.35209 0.0
H4623 H 0.12993 0.99632 0.35479 0.0
H4624 H 0.09252 0.96593 0.3728 0.0
H4625 H 0.13523 0.92451 0.36607 0.0
H4626 H 0.13839 0.93693 0.38064 0.0
H4627 H 0.13819 0.94344 0.36236 0.0
C4628 C 0.13787 0.98007 0.38686 0.0
C4629 C 0.13797 0.99063 0.37601 0.0
C4630 C 0.1296 0.96759 0.38526 0.0
C4631 C 0.1213 0.96546 0.37278 0.0
C4632 C 0.1216 0.97585 0.36177 0.0
H4633 H 0.07497 0.88278 0.3678 0.0
H4634 H 0.0871 0.90479 0.35918 0.0
C4635 C 0.13002 0.9883 0.3633 0.0
C4636 C 0.11167 0.95279 0.37182 0.0
H4637 H 0.11193 0.91602 0.37346 0.0
C4638 C 0.09671 0.955 0.37265 0.0
C4639 C 0.11718 0.93858 0.37146 0.0
C4640 C 0.13313 0.93566 0.36995 0.0
C4641 C 0.08717 0.94332 0.3741 0.0
C4642 C 0.09279 0.92916 0.3748 0.0
C4643 C 0.10766 0.92691 0.37299 0.0
C4644 C 0.08373 0.91669 0.379 0.0
C4645 C 0.0712 0.94624 0.37531 0.0
C4646 C 0.07774 0.9162 0.3929 0.0
C4647 C 0.07093 0.9037 0.3978 0.0
C4648 C 0.06996 0.89154 0.38886 0.0
C4649 C 0.07544 0.89217 0.37476 0.0
C4650 C 0.08239 0.90466 0.36988 0.0
H4651 H 0.06829 0.95678 0.37037 0.0
H4652 H 0.06482 0.93757 0.37003 0.0
H4653 H 0.06814 0.94662 0.38688 0.0
H4654 H 0.07893 0.92526 0.4002 0.0
H4655 H 0.0669 0.90333 0.40878 0.0
H4656 H 0.09691 0.931 0.58776 0.0
H4657 H 0.07463 0.9192 0.59574 0.0
H4658 H 0.09386 0.91091 0.63733 0.0
H4659 H 0.11623 0.92282 0.62931 0.0
H4660 H 0.08248 0.88615 0.62269 0.0
H4661 H 0.04267 0.93075 0.62493 0.0
H4662 H 0.05327 0.9306 0.6087 0.0
H4663 H 0.06194 0.93375 0.62577 0.0
C4664 C 0.0962 0.92697 0.59871 0.0
C4665 C 0.10811 0.92788 0.608 0.0
C4666 C 0.0835 0.92029 0.60328 0.0
C4667 C 0.08256 0.91436 0.61718 0.0
C4668 C 0.09435 0.91557 0.62662 0.0
H4669 H 0.00204 0.86991 0.64149 0.0
H4670 H 0.02416 0.88441 0.6438 0.0
C4671 C 0.10704 0.92239 0.62208 0.0
C4672 C 0.06982 0.90559 0.62112 0.0
H4673 H 0.03304 0.90674 0.62272 0.0
C4674 C 0.07168 0.89067 0.62299 0.0
C4675 C 0.05578 0.91154 0.6216 0.0
C4676 C 0.05326 0.92757 0.62028 0.0
C4677 C 0.05978 0.88143 0.62444 0.0
C4678 C 0.04571 0.88729 0.62394 0.0
C4679 C 0.04386 0.90229 0.62298 0.0
C4680 C 0.03281 0.87795 0.6231 0.0
C4681 C 0.06229 0.86543 0.62607 0.0
C4682 C 0.03044 0.86956 0.61073 0.0
C4683 C 0.01785 0.86142 0.60935 0.0
C4684 C 0.0074 0.86156 0.62032 0.0
C4685 C 0.00995 0.86966 0.63289 0.0
C4686 C 0.02251 0.87794 0.6342 0.0
H4687 H 0.0734 0.86307 0.62993 0.0
H4688 H 0.05442 0.86063 0.63373 0.0
H4689 H 0.06084 0.86012 0.61544 0.0
H4690 H 0.03823 0.86953 0.602 0.0
H4691 H 0.01627 0.85504 0.59968 0.0
H4692 H 0.07896 0.11454 0.63754 0.0
H4693 H 0.09122 0.09265 0.64647 0.0
H4694 H 0.08874 0.074 0.6039 0.0
H4695 H 0.07659 0.0957 0.59502 0.0
H4696 H 0.08351 0.0595 0.64267 0.0
H4697 H 0.13339 0.07954 0.61614 0.0
H4698 H 0.11868 0.09131 0.62121 0.0
H4699 H 0.11736 0.08043 0.60522 0.0
C4700 C 0.0807 0.10555 0.63026 0.0
C4701 C 0.07689 0.10667 0.61564 0.0
C4702 C 0.08771 0.09314 0.63533 0.0
C4703 C 0.09094 0.08184 0.62578 0.0
C4704 C 0.08636 0.08266 0.61139 0.0
H4705 H 0.11914 0.99648 0.61951 0.0
H4706 H 0.10572 0.01875 0.62379 0.0
C4707 C 0.07943 0.09501 0.60634 0.0
C4708 C 0.10024 0.0697 0.6302 0.0
H4709 H 0.13279 0.05456 0.62225 0.0
C4710 C 0.0944 0.05848 0.63848 0.0
C4711 C 0.11451 0.06858 0.62493 0.0
C4712 C 0.12145 0.08065 0.61648 0.0
C4713 C 0.10218 0.04567 0.64082 0.0
C4714 C 0.11599 0.04406 0.63446 0.0
C4715 C 0.12218 0.05574 0.62705 0.0
C4716 C 0.12359 0.02999 0.63386 0.0
C4717 C 0.09541 0.0339 0.64979 0.0
C4718 C 0.13814 0.02888 0.638 0.0
C4719 C 0.14592 0.01624 0.63521 0.0
C4720 C 0.13931 0.00465 0.62805 0.0
C4721 C 0.12458 0.00548 0.62462 0.0
C4722 C 0.11683 0.01809 0.62734 0.0
H4723 H 0.088 0.0385 0.65802 0.0
H4724 H 0.08894 0.02676 0.64268 0.0
H4725 H 0.10371 0.02727 0.65533 0.0
H4726 H 0.14358 0.03795 0.64297 0.0
H4727 H 0.15723 0.01574 0.63813 0.0
H4728 H 0.90391 0.07103 0.58986 0.0
H4729 H 0.92633 0.08287 0.59733 0.0
H4730 H 0.90781 0.09163 0.63916 0.0
H4731 H 0.88538 0.0795 0.63171 0.0
H4732 H 0.92653 0.11184 0.60503 0.0
H4733 H 0.94901 0.07756 0.64891 0.0
H4734 H 0.93578 0.07096 0.63619 0.0
H4735 H 0.93035 0.08264 0.65066 0.0
C4736 C 0.90482 0.07516 0.60077 0.0
C4737 C 0.89309 0.07437 0.61027 0.0
C4738 C 0.91755 0.08194 0.60501 0.0
C4739 C 0.91874 0.08807 0.61881 0.0
C4740 C 0.9072 0.08676 0.62856 0.0
H4741 H 0.9839 0.15571 0.63112 0.0
H4742 H 0.961 0.14245 0.633 0.0
C4743 C 0.89443 0.07987 0.62432 0.0
C4744 C 0.93147 0.09707 0.62226 0.0
H4745 H 0.96138 0.09927 0.64368 0.0
C4746 C 0.93412 0.10916 0.61354 0.0
C4747 C 0.9413 0.09349 0.63336 0.0
C4748 C 0.9391 0.0804 0.64278 0.0
C4749 C 0.94655 0.11757 0.61532 0.0
C4750 C 0.95645 0.11398 0.62637 0.0
C4751 C 0.95367 0.10206 0.63533 0.0
C4752 C 0.97038 0.12168 0.62778 0.0
C4753 C 0.94927 0.12982 0.60491 0.0
C4754 C 0.98328 0.11426 0.62505 0.0
C4755 C 0.9963 0.12177 0.62411 0.0
C4756 C 0.99657 0.13683 0.62572 0.0
C4757 C 0.98386 0.14412 0.62955 0.0
C4758 C 0.97082 0.13658 0.63057 0.0
H4759 H 0.94216 0.12921 0.59527 0.0
H4760 H 0.94714 0.14024 0.61041 0.0
H4761 H 0.96067 0.12982 0.60122 0.0
H4762 H 0.9832 0.10274 0.62304 0.0
H4763 H 0.0061 0.11587 0.62172 0.0
H4764 H 0.84607 0.98247 0.63268 0.0
H4765 H 0.85982 0.96002 0.63565 0.0
H4766 H 0.89815 0.98152 0.62022 0.0
H4767 H 0.8846 0.00404 0.61789 0.0
H4768 H 0.87163 0.94586 0.6137 0.0
H4769 H 0.91462 0.95843 0.65302 0.0
H4770 H 0.89893 0.96978 0.65073 0.0
H4771 H 0.91417 0.97153 0.63879 0.0
C4772 C 0.85749 0.98241 0.6302 0.0
C4773 C 0.86422 0.99478 0.62462 0.0
C4774 C 0.86533 0.96963 0.6319 0.0
C4775 C 0.88004 0.9691 0.62824 0.0
C4776 C 0.88689 0.9817 0.62336 0.0
H4777 H 0.9269 0.90193 0.58819 0.0
H4778 H 0.91496 0.92413 0.59617 0.0
C4779 C 0.87908 0.99447 0.62173 0.0
C4780 C 0.88776 0.9551 0.6277 0.0
H4781 H 0.91947 0.93852 0.63665 0.0
C4782 C 0.88196 0.94417 0.61896 0.0
C4783 C 0.90118 0.95281 0.63466 0.0
C4784 C 0.9075 0.96372 0.64495 0.0
C4785 C 0.88956 0.93138 0.61634 0.0
C4786 C 0.90344 0.92958 0.62241 0.0
C4787 C 0.90893 0.94008 0.63182 0.0
C4788 C 0.91257 0.91716 0.61834 0.0
C4789 C 0.8828 0.92001 0.60682 0.0
C4790 C 0.91576 0.90625 0.62835 0.0
C4791 C 0.92267 0.8936 0.6238 0.0
C4792 C 0.92644 0.89183 0.60924 0.0
C4793 C 0.92402 0.90312 0.59946 0.0
C4794 C 0.91718 0.91573 0.60399 0.0
H4795 H 0.87089 0.92125 0.60622 0.0
H4796 H 0.88719 0.92105 0.59573 0.0
H4797 H 0.88534 0.909 0.61082 0.0
H4798 H 0.91229 0.90722 0.63947 0.0
H4799 H 0.92439 0.88493 0.63146 0.0
H4800 H 0.35551 0.00124 0.13193 0.0
H4801 H 0.35101 0.02297 0.11732 0.0
H4802 H 0.39487 0.0368 0.12449 0.0
H4803 H 0.39936 0.01529 0.13911 0.0
H4804 H 0.37071 0.05867 0.12835 0.0
H4805 H 0.37132 0.02894 0.07599 0.0
H4806 H 0.36058 0.02217 0.09074 0.0
H4807 H 0.37987 0.02166 0.09192 0.0
C4808 C 0.36413 0.009 0.13044 0.0
C4809 C 0.37787 0.00648 0.13635 0.0
C4810 C 0.36156 0.02133 0.12209 0.0
C4811 C 0.37267 0.03134 0.11974 0.0
C4812 C 0.38621 0.02911 0.12612 0.0
H4813 H 0.40565 0.09547 0.06791 0.0
H4814 H 0.39723 0.07332 0.07957 0.0
C4815 C 0.3888 0.01678 0.13434 0.0
C4816 C 0.37055 0.04403 0.11034 0.0
H4817 H 0.37177 0.05428 0.07498 0.0
C4818 C 0.37057 0.05777 0.11668 0.0
C4819 C 0.37046 0.04271 0.09515 0.0
C4820 C 0.37059 0.02811 0.08793 0.0
C4821 C 0.37126 0.07028 0.10818 0.0
C4822 C 0.37189 0.06894 0.09299 0.0
C4823 C 0.37114 0.05522 0.08663 0.0
C4824 C 0.37574 0.08142 0.08383 0.0
C4825 C 0.37232 0.08479 0.11551 0.0
C4826 C 0.36625 0.09309 0.08194 0.0
C4827 C 0.37105 0.10573 0.07517 0.0
C4828 C 0.38535 0.10675 0.0703 0.0
C4829 C 0.39454 0.09481 0.07152 0.0
C4830 C 0.38975 0.0822 0.07816 0.0
H4831 H 0.37298 0.08383 0.12744 0.0
H4832 H 0.38198 0.09071 0.1116 0.0
H4833 H 0.36267 0.09135 0.11278 0.0
H4834 H 0.35539 0.09264 0.08624 0.0
H4835 H 0.36387 0.11494 0.07445 0.0
H4836 H 0.38559 0.88088 0.90171 0.0
H4837 H 0.37837 0.90343 0.89 0.0
H4838 H 0.37929 0.92512 0.93121 0.0
H4839 H 0.38726 0.90267 0.94283 0.0
H4840 H 0.3567 0.92315 0.89228 0.0
H4841 H 0.40919 0.94732 0.90852 0.0
H4842 H 0.40528 0.92842 0.91089 0.0
H4843 H 0.39806 0.94152 0.92327 0.0
C4844 C 0.38419 0.89048 0.90824 0.0
C4845 C 0.38737 0.89024 0.92305 0.0
C4846 C 0.37995 0.9033 0.90159 0.0
C4847 C 0.37865 0.91604 0.90968 0.0
C4848 C 0.3806 0.9155 0.92471 0.0
H4849 H 0.35471 0.99812 0.86759 0.0
H4850 H 0.35322 0.976 0.88217 0.0
C4851 C 0.38503 0.90268 0.93135 0.0
C4852 C 0.37663 0.92997 0.90209 0.0
H4853 H 0.39367 0.96176 0.89474 0.0
C4854 C 0.3647 0.93167 0.89288 0.0
C4855 C 0.38722 0.94096 0.90276 0.0
C4856 C 0.40073 0.93947 0.91178 0.0
C4857 C 0.36325 0.94393 0.88406 0.0
C4858 C 0.37388 0.95486 0.88473 0.0
C4859 C 0.38554 0.95334 0.89426 0.0
C4860 C 0.37381 0.96757 0.87501 0.0
C4861 C 0.35074 0.94476 0.87368 0.0
C4862 C 0.38584 0.97014 0.86616 0.0
C4863 C 0.38679 0.98279 0.85808 0.0
C4864 C 0.37571 0.99307 0.85866 0.0
C4865 C 0.36335 0.99026 0.86696 0.0
C4866 C 0.36247 0.97764 0.87523 0.0
H4867 H 0.34552 0.93407 0.87209 0.0
H4868 H 0.3425 0.95228 0.87803 0.0
H4869 H 0.35429 0.94891 0.86301 0.0
H4870 H 0.39467 0.96249 0.86576 0.0
H4871 H 0.39632 0.98465 0.85157 0.0
H4872 H 0.01725 0.37127 0.84154 0.0
H4873 H 0.04047 0.3697 0.85422 0.0
H4874 H 0.01878 0.37723 0.89475 0.0
H4875 H 0.99559 0.37816 0.88217 0.0
H4876 H 0.05253 0.3915 0.86884 0.0
H4877 H 0.04591 0.34511 0.90575 0.0
H4878 H 0.03388 0.34832 0.89074 0.0
H4879 H 0.03138 0.35777 0.90755 0.0
C4880 C 0.01748 0.37234 0.85318 0.0
C4881 C 0.00477 0.37527 0.86087 0.0
C4882 C 0.0307 0.37145 0.8604 0.0
C4883 C 0.03137 0.37327 0.87545 0.0
C4884 C 0.01854 0.37557 0.88318 0.0
H4885 H 0.09829 0.41139 0.92583 0.0
H4886 H 0.07636 0.40456 0.91272 0.0
C4887 C 0.00533 0.37639 0.87597 0.0
C4888 C 0.04551 0.37433 0.88287 0.0
H4889 H 0.0645 0.36228 0.9121 0.0
C4890 C 0.05523 0.38495 0.87816 0.0
C4891 C 0.04912 0.36568 0.89494 0.0
C4892 C 0.03958 0.35348 0.89994 0.0
C4893 C 0.06813 0.38762 0.88558 0.0
C4894 C 0.07126 0.37965 0.89821 0.0
C4895 C 0.06193 0.36854 0.90254 0.0
C4896 C 0.08394 0.38314 0.90727 0.0
C4897 C 0.07825 0.39906 0.8799 0.0
C4898 C 0.09519 0.37314 0.90903 0.0
C4899 C 0.10768 0.37702 0.9166 0.0
C4900 C 0.10896 0.39088 0.92258 0.0
C4901 C 0.09748 0.40065 0.92129 0.0
C4902 C 0.08503 0.39678 0.91376 0.0
H4903 H 0.07638 0.40121 0.86825 0.0
H4904 H 0.07639 0.40927 0.88588 0.0
H4905 H 0.08969 0.39585 0.88143 0.0
H4906 H 0.09452 0.36255 0.90412 0.0
H4907 H 0.11652 0.3694 0.91733 0.0
H4908 H 0.6181 0.99486 0.88531 0.0
H4909 H 0.62019 0.01734 0.89887 0.0
H4910 H 0.63332 0.03955 0.86012 0.0
H4911 H 0.63049 0.01716 0.8463 0.0
H4912 H 0.64193 0.03778 0.90374 0.0
H4913 H 0.59634 0.06055 0.87192 0.0
H4914 H 0.60113 0.04171 0.87121 0.0
H4915 H 0.61164 0.05481 0.8615 0.0
C4916 C 0.6212 0.00455 0.87961 0.0
C4917 C 0.62345 0.00442 0.86462 0.0
C4918 C 0.62267 0.01734 0.88744 0.0
C4919 C 0.62657 0.03017 0.88042 0.0
C4920 C 0.62998 0.02982 0.86566 0.0
H4921 H 0.63282 0.11451 0.92387 0.0
H4922 H 0.64002 0.09182 0.91203 0.0
C4923 C 0.62842 0.01702 0.85781 0.0
C4924 C 0.6257 0.04403 0.88832 0.0
H4925 H 0.60624 0.07524 0.88998 0.0
C4926 C 0.63424 0.04606 0.90069 0.0
C4927 C 0.6155 0.0547 0.88438 0.0
C4928 C 0.60553 0.05285 0.87161 0.0
C4929 C 0.63266 0.0584 0.90938 0.0
C4930 C 0.62238 0.06896 0.90547 0.0
C4931 C 0.61412 0.06709 0.89291 0.0
C4932 C 0.61914 0.08164 0.91461 0.0
C4933 C 0.64155 0.05983 0.92293 0.0
C4934 C 0.60515 0.08329 0.92016 0.0
C4935 C 0.60106 0.09616 0.92676 0.0
C4936 C 0.61092 0.10755 0.928 0.0
C4937 C 0.62516 0.10571 0.92318 0.0
C4938 C 0.62925 0.0928 0.91645 0.0
H4939 H 0.64721 0.04963 0.9257 0.0
H4940 H 0.64977 0.0684 0.92137 0.0
H4941 H 0.63462 0.06305 0.93217 0.0
H4942 H 0.5972 0.07482 0.91881 0.0
H4943 H 0.59 0.09746 0.93033 0.0
H4944 H 0.88196 0.62255 0.90559 0.0
H4945 H 0.90523 0.62979 0.89529 0.0
H4946 H 0.92646 0.618 0.93503 0.0
H4947 H 0.90322 0.61023 0.94513 0.0
H4948 H 0.92833 0.64808 0.90213 0.0
H4949 H 0.94359 0.59009 0.90552 0.0
H4950 H 0.92545 0.5963 0.90881 0.0
H4951 H 0.93909 0.59833 0.92247 0.0
C4952 C 0.8916 0.62174 0.91216 0.0
C4953 C 0.89098 0.61553 0.92596 0.0
C4954 C 0.90484 0.62594 0.90633 0.0
C4955 C 0.91759 0.62409 0.91428 0.0
C4956 C 0.91676 0.61921 0.92862 0.0
H4957 H 0.00585 0.61981 0.88286 0.0
H4958 H 0.98494 0.62319 0.8987 0.0
C4959 C 0.90352 0.61488 0.9344 0.0
C4960 C 0.93171 0.62559 0.90695 0.0
H4961 H 0.96058 0.60586 0.89541 0.0
C4962 C 0.93547 0.6389 0.90076 0.0
C4963 C 0.94089 0.61353 0.90503 0.0
C4964 C 0.93704 0.59872 0.91068 0.0
C4965 C 0.94821 0.64046 0.89267 0.0
C4966 C 0.95728 0.62836 0.89066 0.0
C4967 C 0.95364 0.61515 0.89708 0.0
C4968 C 0.97027 0.62875 0.88139 0.0
C4969 C 0.95188 0.65499 0.88633 0.0
C4970 C 0.96899 0.63102 0.86645 0.0
C4971 C 0.9809 0.62898 0.85739 0.0
C4972 C 0.99413 0.62441 0.86316 0.0
C4973 C 0.9956 0.62294 0.87816 0.0
C4974 C 0.98374 0.62499 0.8872 0.0
H4975 H 0.94606 0.66386 0.89193 0.0
H4976 H 0.96367 0.65709 0.88695 0.0
H4977 H 0.94868 0.65517 0.87479 0.0
H4978 H 0.95863 0.63368 0.86172 0.0
H4979 H 0.9796 0.63027 0.84584 0.0
H4980 H 0.64667 0.99764 0.13017 0.0
H4981 H 0.64869 0.97626 0.11451 0.0
H4982 H 0.60616 0.96268 0.12774 0.0
H4983 H 0.60407 0.98396 0.14316 0.0
H4984 H 0.64658 0.94645 0.11944 0.0
H4985 H 0.60266 0.96543 0.08383 0.0
H4986 H 0.61136 0.97706 0.09682 0.0
H4987 H 0.59711 0.96505 0.10237 0.0
C4988 C 0.63785 0.98998 0.12979 0.0
C4989 C 0.62508 0.99255 0.13754 0.0
C4990 C 0.63899 0.97784 0.12084 0.0
C4991 C 0.6274 0.96816 0.11966 0.0
C4992 C 0.61504 0.97028 0.12815 0.0
H4993 H 0.61382 0.88195 0.09725 0.0
H4994 H 0.62276 0.90458 0.10725 0.0
C4995 C 0.61386 0.9824 0.13696 0.0
C4996 C 0.62786 0.95592 0.10942 0.0
H4997 H 0.60787 0.93997 0.08301 0.0
C4998 C 0.63829 0.94511 0.11128 0.0
C4999 C 0.61733 0.9544 0.09848 0.0
C5000 C 0.60659 0.96619 0.09513 0.0
C5001 C 0.63776 0.93228 0.10321 0.0
C5002 C 0.62629 0.93015 0.09332 0.0
C5003 C 0.61656 0.94147 0.09071 0.0
C5004 C 0.62311 0.91589 0.08677 0.0
C5005 C 0.64934 0.92108 0.10555 0.0
C5006 C 0.62017 0.91466 0.07193 0.0
C5007 C 0.61465 0.9018 0.06628 0.0
C5008 C 0.612 0.89 0.07538 0.0
C5009 C 0.61563 0.89098 0.09005 0.0
C5010 C 0.62098 0.90385 0.09573 0.0
H5011 H 0.65975 0.92626 0.10847 0.0
H5012 H 0.64617 0.91399 0.11467 0.0
H5013 H 0.65099 0.91431 0.0958 0.0
H5014 H 0.62162 0.92384 0.06483 0.0
H5015 H 0.61186 0.9013 0.05493 0.0
H5016 H 0.11654 0.62947 0.07667 0.0
H5017 H 0.09492 0.63891 0.08892 0.0
H5018 H 0.07368 0.59792 0.08283 0.0
H5019 H 0.0952 0.58854 0.07061 0.0
H5020 H 0.05594 0.62417 0.07775 0.0
H5021 H 0.08513 0.6228 0.13039 0.0
H5022 H 0.09333 0.63235 0.11559 0.0
H5023 H 0.09158 0.61309 0.11478 0.0
C5024 C 0.1071 0.62265 0.0777 0.0
C5025 C 0.10739 0.60833 0.07276 0.0
C5026 C 0.09484 0.628 0.08473 0.0
C5027 C 0.08279 0.61906 0.08684 0.0
C5028 C 0.08288 0.60498 0.08126 0.0
H5029 H 0.01467 0.60271 0.14274 0.0
H5030 H 0.03669 0.60493 0.12838 0.0
C5031 C 0.09512 0.59963 0.07433 0.0
C5032 C 0.07049 0.62374 0.09584 0.0
H5033 H 0.06024 0.62732 0.13105 0.0
C5034 C 0.05688 0.6252 0.08937 0.0
C5035 C 0.07183 0.62493 0.111 0.0
C5036 C 0.08621 0.62316 0.11846 0.0
C5037 C 0.04443 0.62723 0.09777 0.0
C5038 C 0.04571 0.6278 0.11295 0.0
C5039 C 0.05938 0.62698 0.11938 0.0
C5040 C 0.03286 0.62716 0.12236 0.0
C5041 C 0.0299 0.62787 0.09046 0.0
C5042 C 0.02362 0.63905 0.12393 0.0
C5043 C 0.011 0.6378 0.13216 0.0
C5044 C 0.00744 0.62458 0.1387 0.0
C5045 C 0.017 0.6129 0.13751 0.0
C5046 C 0.02961 0.61419 0.12942 0.0
H5047 H 0.0307 0.62635 0.07859 0.0
H5048 H 0.02267 0.61943 0.09495 0.0
H5049 H 0.02482 0.63851 0.0926 0.0
H5050 H 0.02605 0.64918 0.11863 0.0
H5051 H 0.0038 0.64697 0.13302 0.0
H5052 H 0.98353 0.37009 0.15498 0.0
H5053 H 0.96105 0.36549 0.14183 0.0
H5054 H 0.98205 0.37698 0.10189 0.0
H5055 H 0.00462 0.38088 0.11484 0.0
H5056 H 0.9466 0.38613 0.12733 0.0
H5057 H 0.9597 0.34167 0.08969 0.0
H5058 H 0.97095 0.34609 0.10499 0.0
H5059 H 0.97237 0.35625 0.08848 0.0
C5060 C 0.9834 0.37138 0.14336 0.0
C5061 C 0.9957 0.37629 0.13599 0.0
C5062 C 0.97057 0.36875 0.13587 0.0
C5063 C 0.96988 0.37081 0.12087 0.0
C5064 C 0.98235 0.37511 0.11342 0.0
H5065 H 0.90508 0.3913 0.05905 0.0
H5066 H 0.92738 0.38354 0.07115 0.0
C5067 C 0.99518 0.37768 0.1209 0.0
C5068 C 0.95583 0.37011 0.11326 0.0
H5069 H 0.93875 0.35597 0.08377 0.0
C5070 C 0.94479 0.37934 0.11797 0.0
C5071 C 0.95354 0.36131 0.10098 0.0
C5072 C 0.96473 0.35067 0.09582 0.0
C5073 C 0.93174 0.38045 0.11042 0.0
C5074 C 0.92959 0.37194 0.09794 0.0
C5075 C 0.94046 0.36245 0.09336 0.0
C5076 C 0.91637 0.37354 0.08916 0.0
C5077 C 0.92057 0.39118 0.11553 0.0
C5078 C 0.90288 0.36983 0.09496 0.0
C5079 C 0.89023 0.37427 0.08809 0.0
C5080 C 0.89094 0.38238 0.07533 0.0
C5081 C 0.90437 0.385 0.06887 0.0
C5082 C 0.91705 0.38059 0.07577 0.0
H5083 H 0.92499 0.39876 0.12371 0.0
H5084 H 0.9163 0.39755 0.10633 0.0
H5085 H 0.91141 0.38528 0.1205 0.0
H5086 H 0.90217 0.36428 0.10523 0.0
H5087 H 0.87992 0.37216 0.0932 0.0
H5088 H 0.57509 0.86525 0.61454 0.0
H5089 H 0.58776 0.85745 0.59248 0.0
H5090 H 0.58318 0.90027 0.5748 0.0
H5091 H 0.5706 0.90804 0.59671 0.0
H5092 H 0.58026 0.86016 0.56051 0.0
H5093 H 0.62792 0.89155 0.57869 0.0
H5094 H 0.61362 0.88616 0.59079 0.0
H5095 H 0.61123 0.90143 0.57907 0.0
C5096 C 0.57648 0.87282 0.60574 0.0
C5097 C 0.57193 0.88721 0.60719 0.0
C5098 C 0.58373 0.8684 0.59323 0.0
C5099 C 0.58651 0.87836 0.58216 0.0
C5100 C 0.58122 0.89249 0.58331 0.0
H5101 H 0.61487 0.88144 0.49573 0.0
H5102 H 0.60139 0.87827 0.51816 0.0
C5103 C 0.57403 0.89689 0.59576 0.0
C5104 C 0.59591 0.87455 0.56986 0.0
H5105 H 0.62762 0.88431 0.55401 0.0
C5106 C 0.59072 0.86523 0.55914 0.0
C5107 C 0.60966 0.88097 0.56829 0.0
C5108 C 0.61604 0.89048 0.57988 0.0
C5109 C 0.59861 0.86285 0.5464 0.0
C5110 C 0.61187 0.87017 0.54436 0.0
C5111 C 0.61741 0.87878 0.55551 0.0
C5112 C 0.61962 0.87019 0.53036 0.0
C5113 C 0.59259 0.85267 0.53522 0.0
C5114 C 0.63438 0.86678 0.52974 0.0
C5115 C 0.64218 0.86893 0.517 0.0
C5116 C 0.63537 0.87472 0.50477 0.0
C5117 C 0.62047 0.87742 0.50518 0.0
C5118 C 0.61269 0.87532 0.5179 0.0
H5119 H 0.58561 0.84433 0.54026 0.0
H5120 H 0.58585 0.85887 0.52749 0.0
H5121 H 0.60134 0.84721 0.5291 0.0
H5122 H 0.63996 0.86285 0.53925 0.0
H5123 H 0.65364 0.8666 0.51688 0.0
H5124 H 0.14218 0.63227 0.50253 0.0
H5125 H 0.1437 0.61692 0.52414 0.0
H5126 H 0.09962 0.62757 0.5347 0.0
H5127 H 0.09803 0.64269 0.51317 0.0
H5128 H 0.13991 0.62218 0.55316 0.0
H5129 H 0.09866 0.58375 0.53371 0.0
H5130 H 0.1069 0.59701 0.52206 0.0
H5131 H 0.09203 0.60193 0.53357 0.0
C5132 C 0.13287 0.63135 0.50954 0.0
C5133 C 0.11987 0.63832 0.50603 0.0
C5134 C 0.13373 0.62258 0.52182 0.0
C5135 C 0.12163 0.62078 0.53077 0.0
C5136 C 0.10892 0.62841 0.52767 0.0
H5137 H 0.10851 0.5971 0.61774 0.0
H5138 H 0.11605 0.60825 0.59509 0.0
C5139 C 0.10802 0.63705 0.51538 0.0
C5140 C 0.12208 0.61093 0.54336 0.0
H5141 H 0.10335 0.58354 0.55924 0.0
C5142 C 0.13208 0.61358 0.55443 0.0
C5143 C 0.11214 0.59944 0.54482 0.0
C5144 C 0.10194 0.59525 0.53283 0.0
C5145 C 0.13174 0.60563 0.56734 0.0
C5146 C 0.12091 0.59503 0.56932 0.0
C5147 C 0.11155 0.59179 0.55785 0.0
C5148 C 0.11817 0.58806 0.58348 0.0
C5149 C 0.14292 0.60878 0.57875 0.0
C5150 C 0.11667 0.57299 0.58451 0.0
C5151 C 0.11196 0.56665 0.59737 0.0
C5152 C 0.10863 0.57527 0.60937 0.0
C5153 C 0.11078 0.59025 0.60854 0.0
C5154 C 0.11534 0.5966 0.59567 0.0
H5155 H 0.15315 0.61261 0.5738 0.0
H5156 H 0.13889 0.6175 0.58591 0.0
H5157 H 0.14527 0.59911 0.58542 0.0
H5158 H 0.11871 0.56619 0.57522 0.0
H5159 H 0.11037 0.55507 0.59776 0.0
H5160 H 0.40011 0.11264 0.61543 0.0
H5161 H 0.38955 0.12063 0.59261 0.0
H5162 H 0.43172 0.12013 0.57287 0.0
H5163 H 0.44224 0.11148 0.59561 0.0
H5164 H 0.39325 0.1431 0.57336 0.0
H5165 H 0.40953 0.09048 0.5493 0.0
H5166 H 0.41094 0.09406 0.56837 0.0
H5167 H 0.42403 0.1014 0.55608 0.0
C5168 C 0.40712 0.11432 0.60623 0.0
C5169 C 0.4219 0.1111 0.60711 0.0
C5170 C 0.40111 0.11901 0.59325 0.0
C5171 C 0.4098 0.12066 0.58097 0.0
C5172 C 0.42479 0.11862 0.58216 0.0
H5173 H 0.36949 0.14407 0.49763 0.0
H5174 H 0.38435 0.14575 0.51956 0.0
C5175 C 0.4308 0.1138 0.59515 0.0
C5176 C 0.40284 0.12298 0.56676 0.0
H5177 H 0.39571 0.10594 0.5349 0.0
C5178 C 0.39391 0.13509 0.56484 0.0
C5179 C 0.40359 0.11239 0.55578 0.0
C5180 C 0.41243 0.09878 0.55746 0.0
C5181 C 0.38536 0.13666 0.5524 0.0
C5182 C 0.38597 0.12594 0.54157 0.0
C5183 C 0.3953 0.11413 0.54326 0.0
C5184 C 0.3762 0.12595 0.52892 0.0
C5185 C 0.37527 0.14938 0.55126 0.0
C5186 C 0.36666 0.11435 0.52698 0.0
C5187 C 0.35835 0.11332 0.5145 0.0
C5188 C 0.35944 0.12385 0.50368 0.0
C5189 C 0.36849 0.13582 0.50586 0.0
C5190 C 0.37693 0.13681 0.51837 0.0
H5191 H 0.3741 0.15516 0.5617 0.0
H5192 H 0.37955 0.15711 0.54317 0.0
H5193 H 0.36442 0.14585 0.54758 0.0
H5194 H 0.36587 0.10591 0.53504 0.0
H5195 H 0.35121 0.10415 0.5132 0.0
H5196 H 0.89397 0.35191 0.51407 0.0
H5197 H 0.89295 0.36645 0.53603 0.0
H5198 H 0.85148 0.38326 0.52309 0.0
H5199 H 0.85244 0.36851 0.50102 0.0
H5200 H 0.89163 0.39632 0.53592 0.0
H5201 H 0.84526 0.37252 0.56578 0.0
H5202 H 0.85411 0.36324 0.5511 0.0
H5203 H 0.84191 0.37783 0.54741 0.0
C5204 C 0.88461 0.35866 0.51594 0.0
C5205 C 0.8734 0.35933 0.50579 0.0
C5206 C 0.884 0.3669 0.5285 0.0
C5207 C 0.87215 0.37594 0.53118 0.0
C5208 C 0.86064 0.37622 0.52131 0.0
H5209 H 0.88636 0.44336 0.59651 0.0
H5210 H 0.87782 0.4318 0.57424 0.0
C5211 C 0.86121 0.36785 0.50873 0.0
C5212 C 0.87255 0.38569 0.54383 0.0
H5213 H 0.85716 0.39222 0.57667 0.0
C5214 C 0.88401 0.39554 0.54479 0.0
C5215 C 0.86261 0.38459 0.55535 0.0
C5216 C 0.85032 0.37392 0.555 0.0
C5217 C 0.88617 0.40394 0.55718 0.0
C5218 C 0.87634 0.40272 0.56881 0.0
C5219 C 0.86458 0.39321 0.56768 0.0
C5220 C 0.87906 0.41007 0.58275 0.0
C5221 C 0.8994 0.41343 0.55798 0.0
C5222 C 0.88178 0.40175 0.59511 0.0
C5223 C 0.88643 0.40834 0.60783 0.0
C5224 C 0.88854 0.42333 0.60836 0.0
C5225 C 0.88493 0.43176 0.5963 0.0
C5226 C 0.88016 0.42517 0.58358 0.0
H5227 H 0.90736 0.4108 0.54941 0.0
H5228 H 0.89614 0.42487 0.5566 0.0
H5229 H 0.90479 0.41235 0.56863 0.0
H5230 H 0.8809 0.3901 0.59474 0.0
H5231 H 0.88879 0.40166 0.61713 0.0
H5232 H 0.56881 0.09036 0.40484 0.0
H5233 H 0.58119 0.09912 0.42647 0.0
H5234 H 0.5886 0.14014 0.40569 0.0
H5235 H 0.57598 0.13136 0.38401 0.0
H5236 H 0.61061 0.10774 0.42387 0.0
H5237 H 0.57617 0.15075 0.44793 0.0
H5238 H 0.56893 0.137 0.43614 0.0
H5239 H 0.57949 0.15144 0.42878 0.0
C5240 C 0.57269 0.10139 0.4051 0.0
C5241 C 0.57142 0.11027 0.39293 0.0
C5242 C 0.57978 0.10637 0.41739 0.0
C5243 C 0.58575 0.12028 0.41767 0.0
C5244 C 0.58386 0.12945 0.40575 0.0
H5245 H 0.65573 0.1341 0.48014 0.0
H5246 H 0.64161 0.13671 0.45781 0.0
C5247 C 0.57667 0.12447 0.39342 0.0
C5248 C 0.59541 0.12429 0.42972 0.0
H5249 H 0.59818 0.14556 0.45967 0.0
C5250 C 0.60799 0.11611 0.43163 0.0
C5251 C 0.5919 0.13522 0.43974 0.0
C5252 C 0.57836 0.14411 0.43819 0.0
C5253 C 0.61693 0.11816 0.44364 0.0
C5254 C 0.61334 0.12892 0.45385 0.0
C5255 C 0.60096 0.13743 0.45172 0.0
C5256 C 0.6214 0.13021 0.46757 0.0
C5257 C 0.62972 0.10825 0.44566 0.0
C5258 C 0.61453 0.12651 0.48054 0.0
C5259 C 0.62253 0.12512 0.49322 0.0
C5260 C 0.63752 0.12727 0.49308 0.0
C5261 C 0.64421 0.13212 0.48039 0.0
C5262 C 0.63619 0.13357 0.46768 0.0
H5263 H 0.62937 0.09883 0.43824 0.0
H5264 H 0.63982 0.11431 0.44347 0.0
H5265 H 0.6302 0.10418 0.45693 0.0
H5266 H 0.60311 0.12399 0.48072 0.0
H5267 H 0.61708 0.12186 0.50304 0.0
H5268 H 0.86109 0.5749 0.38462 0.0
H5269 H 0.85144 0.58646 0.40657 0.0
H5270 H 0.89326 0.58282 0.42672 0.0
H5271 H 0.90282 0.57135 0.40495 0.0
H5272 H 0.86831 0.57704 0.44548 0.0
H5273 H 0.86559 0.62879 0.4148 0.0
H5274 H 0.8563 0.61328 0.40769 0.0
H5275 H 0.87565 0.61348 0.40817 0.0
C5276 C 0.86803 0.57624 0.39394 0.0
C5277 C 0.88263 0.57229 0.39325 0.0
C5278 C 0.86257 0.58288 0.40638 0.0
C5279 C 0.8717 0.58556 0.41818 0.0
C5280 C 0.88605 0.58079 0.41774 0.0
H5281 H 0.89324 0.64366 0.48157 0.0
H5282 H 0.88841 0.62868 0.46041 0.0
C5283 C 0.8915 0.57427 0.40534 0.0
C5284 C 0.86707 0.59467 0.43043 0.0
H5285 H 0.86368 0.6301 0.43995 0.0
C5286 C 0.86687 0.58859 0.4443 0.0
C5287 C 0.86536 0.60975 0.42877 0.0
C5288 C 0.86578 0.61682 0.41409 0.0
C5289 C 0.86583 0.59733 0.45663 0.0
C5290 C 0.86496 0.61247 0.45498 0.0
C5291 C 0.86428 0.61847 0.44111 0.0
C5292 C 0.86706 0.62227 0.46737 0.0
C5293 C 0.86674 0.59044 0.47137 0.0
C5294 C 0.8565 0.62384 0.47811 0.0
C5295 C 0.85928 0.6324 0.49026 0.0
C5296 C 0.87269 0.6393 0.49184 0.0
C5297 C 0.88298 0.63814 0.48079 0.0
C5298 C 0.88017 0.6297 0.46866 0.0
H5299 H 0.86839 0.57858 0.47075 0.0
H5300 H 0.87577 0.59526 0.4776 0.0
H5301 H 0.85662 0.59257 0.4774 0.0
H5302 H 0.84626 0.61827 0.47721 0.0
H5303 H 0.85115 0.63322 0.49863 0.0
H5304 H 0.42021 0.86809 0.38482 0.0
H5305 H 0.40741 0.86063 0.4069 0.0
H5306 H 0.40884 0.90449 0.42246 0.0
H5307 H 0.42153 0.91192 0.40051 0.0
H5308 H 0.41407 0.86404 0.43764 0.0
H5309 H 0.36522 0.89393 0.42037 0.0
H5310 H 0.37971 0.88948 0.40811 0.0
H5311 H 0.38132 0.90471 0.42003 0.0
C5312 C 0.41802 0.87602 0.39314 0.0
C5313 C 0.42177 0.89055 0.39107 0.0
C5314 C 0.41069 0.87178 0.40566 0.0
C5315 C 0.40699 0.88207 0.41614 0.0
C5316 C 0.4114 0.89645 0.41436 0.0
H5317 H 0.38067 0.88413 0.50332 0.0
H5318 H 0.39362 0.88144 0.4805 0.0
C5319 C 0.41868 0.90066 0.4019 0.0
C5320 C 0.39793 0.87815 0.42867 0.0
H5321 H 0.36636 0.88717 0.44525 0.0
C5322 C 0.40354 0.8689 0.43926 0.0
C5323 C 0.38407 0.88424 0.43055 0.0
C5324 C 0.37714 0.89353 0.4191 0.0
C5325 C 0.39598 0.86631 0.45215 0.0
C5326 C 0.38262 0.87335 0.45452 0.0
C5327 C 0.37665 0.88187 0.44351 0.0
C5328 C 0.3752 0.87317 0.4687 0.0
C5329 C 0.40245 0.8562 0.46314 0.0
C5330 C 0.36051 0.86951 0.46967 0.0
C5331 C 0.35302 0.87139 0.48264 0.0
C5332 C 0.36007 0.87716 0.49474 0.0
C5333 C 0.37491 0.88011 0.49397 0.0
C5334 C 0.38237 0.87829 0.48102 0.0
H5335 H 0.40943 0.84798 0.45788 0.0
H5336 H 0.40931 0.86248 0.4707 0.0
H5337 H 0.39397 0.85058 0.46948 0.0
H5338 H 0.35476 0.86558 0.46027 0.0
H5339 H 0.34161 0.86887 0.48306 0.0
H5340 H 0.10434 0.35705 0.48158 0.0
H5341 H 0.10848 0.37177 0.4601 0.0
H5342 H 0.14896 0.38646 0.47779 0.0
H5343 H 0.14477 0.37172 0.4995 0.0
H5344 H 0.12955 0.40889 0.46784 0.0
H5345 H 0.13799 0.3663 0.42677 0.0
H5346 H 0.12253 0.36306 0.438 0.0
H5347 H 0.14027 0.36311 0.44589 0.0
C5348 C 0.11411 0.36341 0.4809 0.0
C5349 C 0.12413 0.36347 0.49226 0.0
C5350 C 0.11656 0.37167 0.46856 0.0
C5351 C 0.12908 0.38009 0.46733 0.0
C5352 C 0.13927 0.37995 0.47853 0.0
H5353 H 0.13357 0.42547 0.38408 0.0
H5354 H 0.14304 0.41391 0.40606 0.0
C5355 C 0.13689 0.37155 0.49086 0.0
C5356 C 0.13082 0.38972 0.45473 0.0
H5357 H 0.12994 0.38942 0.41795 0.0
C5358 C 0.12998 0.40468 0.45692 0.0
C5359 C 0.1316 0.38422 0.44053 0.0
C5360 C 0.1333 0.36829 0.43763 0.0
C5361 C 0.12874 0.41421 0.44521 0.0
C5362 C 0.1282 0.40858 0.43104 0.0
C5363 C 0.13023 0.39372 0.42884 0.0
C5364 C 0.12365 0.41748 0.41859 0.0
C5365 C 0.12745 0.43018 0.44812 0.0
C5366 C 0.1097 0.42339 0.41844 0.0
C5367 C 0.10432 0.42987 0.40597 0.0
C5368 C 0.1128 0.43058 0.39347 0.0
C5369 C 0.12696 0.4252 0.39372 0.0
C5370 C 0.13233 0.41859 0.40621 0.0
H5371 H 0.13273 0.43314 0.45847 0.0
H5372 H 0.13236 0.43661 0.43927 0.0
H5373 H 0.11587 0.4331 0.44893 0.0
H5374 H 0.1027 0.42235 0.42774 0.0
H5375 H 0.09331 0.43383 0.40589 0.0
H5376 H 0.61492 0.57378 0.86376 0.0
H5377 H 0.59308 0.58614 0.85486 0.0
H5378 H 0.57479 0.58441 0.89764 0.0
H5379 H 0.59649 0.57223 0.90649 0.0
H5380 H 0.5607 0.57959 0.85775 0.0
H5381 H 0.58014 0.6285 0.8863 0.0
H5382 H 0.59185 0.61357 0.88181 0.0
H5383 H 0.58009 0.61245 0.89719 0.0
C5384 C 0.60601 0.5757 0.87109 0.0
C5385 C 0.60725 0.57213 0.88577 0.0
C5386 C 0.59363 0.58277 0.86604 0.0
C5387 C 0.58247 0.5863 0.87567 0.0
C5388 C 0.58336 0.58186 0.8901 0.0
H5389 H 0.49692 0.61582 0.87843 0.0
H5390 H 0.51909 0.60198 0.87499 0.0
C5391 C 0.59569 0.57489 0.89513 0.0
C5392 C 0.57046 0.59579 0.87123 0.0
H5393 H 0.55533 0.62828 0.87942 0.0
C5394 C 0.55958 0.59034 0.86225 0.0
C5395 C 0.56924 0.60991 0.87687 0.0
C5396 C 0.58101 0.61654 0.88597 0.0
C5397 C 0.54699 0.59836 0.85953 0.0
C5398 C 0.54523 0.61201 0.8662 0.0
C5399 C 0.55659 0.61779 0.87438 0.0
C5400 C 0.5313 0.61988 0.86619 0.0
C5401 C 0.53561 0.59203 0.84977 0.0
C5402 C 0.53075 0.63458 0.86245 0.0
C5403 C 0.51816 0.64259 0.86479 0.0
C5404 C 0.50604 0.63605 0.87107 0.0
C5405 C 0.50632 0.62119 0.87402 0.0
C5406 C 0.51889 0.61321 0.87176 0.0
H5407 H 0.54052 0.58476 0.84158 0.0
H5408 H 0.528 0.58549 0.85631 0.0
H5409 H 0.52941 0.60058 0.84411 0.0
H5410 H 0.54022 0.63996 0.85819 0.0
H5411 H 0.5181 0.654 0.86225 0.0
H5412 H 0.36636 0.50286 0.85307 0.0
H5413 H 0.38125 0.52468 0.85031 0.0
H5414 H 0.36712 0.53956 0.89209 0.0
H5415 H 0.35215 0.518 0.89479 0.0
H5416 H 0.36773 0.56122 0.86919 0.0
H5417 H 0.41894 0.53015 0.87499 0.0
H5418 H 0.40617 0.52429 0.86157 0.0
H5419 H 0.40172 0.52277 0.88034 0.0
C5420 C 0.36634 0.5109 0.86156 0.0
C5421 C 0.3584 0.50864 0.87429 0.0
C5422 C 0.37487 0.52328 0.86001 0.0
C5423 C 0.37542 0.53358 0.8711 0.0
C5424 C 0.36691 0.53166 0.88347 0.0
H5425 H 0.42843 0.59603 0.90815 0.0
H5426 H 0.41574 0.57452 0.89947 0.0
C5427 C 0.35847 0.5193 0.88505 0.0
C5428 C 0.3853 0.54609 0.87034 0.0
H5429 H 0.42068 0.55542 0.87475 0.0
C5430 C 0.37934 0.56001 0.8701 0.0
C5431 C 0.40041 0.54438 0.87164 0.0
C5432 C 0.40729 0.52963 0.87223 0.0
C5433 C 0.38806 0.57229 0.87175 0.0
C5434 C 0.40311 0.57055 0.87358 0.0
C5435 C 0.40914 0.55667 0.87321 0.0
C5436 C 0.41238 0.58281 0.87789 0.0
C5437 C 0.38102 0.58697 0.87239 0.0
C5438 C 0.41505 0.59439 0.86848 0.0
C5439 C 0.42236 0.60666 0.87343 0.0
C5440 C 0.42704 0.60743 0.88782 0.0
C5441 C 0.42493 0.59559 0.89699 0.0
C5442 C 0.41772 0.58334 0.89205 0.0
H5443 H 0.36905 0.58627 0.87252 0.0
H5444 H 0.38463 0.59288 0.88218 0.0
H5445 H 0.38432 0.59338 0.86283 0.0
H5446 H 0.41108 0.59411 0.85749 0.0
H5447 H 0.42378 0.61577 0.86624 0.0
H5448 H 0.50224 0.38402 0.87874 0.0
H5449 H 0.48005 0.3983 0.87718 0.0
H5450 H 0.45754 0.36147 0.85971 0.0
H5451 H 0.47969 0.34699 0.86174 0.0
H5452 H 0.46027 0.40551 0.85511 0.0
H5453 H 0.43586 0.3704 0.89735 0.0
H5454 H 0.45483 0.3698 0.89304 0.0
H5455 H 0.44191 0.36136 0.8813 0.0
C5456 C 0.49252 0.37899 0.87461 0.0
C5457 C 0.49243 0.3643 0.8709 0.0
C5458 C 0.47993 0.38719 0.87355 0.0
C5459 C 0.4671 0.38085 0.86862 0.0
C5460 C 0.46728 0.36647 0.86382 0.0
H5461 H 0.38385 0.42684 0.86624 0.0
H5462 H 0.40591 0.41458 0.85792 0.0
C5463 C 0.4799 0.35824 0.86493 0.0
C5464 C 0.45338 0.38895 0.8699 0.0
H5465 H 0.4221 0.39002 0.8893 0.0
C5466 C 0.45182 0.40207 0.86244 0.0
C5467 C 0.44249 0.38449 0.87962 0.0
C5468 C 0.44382 0.37081 0.88839 0.0
C5469 C 0.43974 0.41098 0.86468 0.0
C5470 C 0.42901 0.40659 0.87457 0.0
C5471 C 0.43039 0.39331 0.88171 0.0
C5472 C 0.41672 0.41593 0.87859 0.0
C5473 C 0.43877 0.42527 0.85696 0.0
C5474 C 0.41565 0.42094 0.89284 0.0
C5475 C 0.40316 0.42787 0.89755 0.0
C5476 C 0.39153 0.4299 0.88809 0.0
C5477 C 0.39282 0.42556 0.87363 0.0
C5478 C 0.40537 0.41856 0.8689 0.0
H5479 H 0.44887 0.42792 0.85106 0.0
H5480 H 0.42976 0.42492 0.84907 0.0
H5481 H 0.43642 0.43406 0.86477 0.0
H5482 H 0.42429 0.41896 0.90048 0.0
H5483 H 0.40232 0.43109 0.90876 0.0
H5484 H 0.57499 0.38383 0.86807 0.0
H5485 H 0.58773 0.40592 0.86057 0.0
H5486 H 0.58282 0.42325 0.9035 0.0
H5487 H 0.5701 0.40128 0.91095 0.0
H5488 H 0.57745 0.44342 0.87911 0.0
H5489 H 0.62971 0.41366 0.87664 0.0
H5490 H 0.61462 0.40642 0.86676 0.0
H5491 H 0.61421 0.40658 0.88611 0.0
C5492 C 0.57639 0.39253 0.87575 0.0
C5493 C 0.57158 0.391 0.89004 0.0
C5494 C 0.58371 0.40504 0.87151 0.0
C5495 C 0.58627 0.41612 0.88153 0.0
C5496 C 0.58091 0.41482 0.89562 0.0
H5497 H 0.64462 0.48317 0.899 0.0
H5498 H 0.62993 0.46133 0.89688 0.0
C5499 C 0.57368 0.40231 0.89987 0.0
C5500 C 0.59535 0.42869 0.8778 0.0
H5501 H 0.63054 0.4388 0.87361 0.0
C5502 C 0.58902 0.44244 0.87762 0.0
C5503 C 0.61044 0.42728 0.87602 0.0
C5504 C 0.61775 0.41273 0.87645 0.0
C5505 C 0.5975 0.45491 0.87616 0.0
C5506 C 0.61263 0.45352 0.87483 0.0
C5507 C 0.6189 0.43976 0.87453 0.0
C5508 C 0.6222 0.46626 0.8754 0.0
C5509 C 0.59034 0.46953 0.87679 0.0
C5510 C 0.62294 0.47605 0.86388 0.0
C5511 C 0.63133 0.48855 0.86508 0.0
C5512 C 0.63892 0.49146 0.87788 0.0
C5513 C 0.63858 0.48135 0.88916 0.0
C5514 C 0.6303 0.46884 0.88792 0.0
H5515 H 0.57863 0.46876 0.87925 0.0
H5516 H 0.5956 0.47634 0.88513 0.0
H5517 H 0.59164 0.47505 0.86624 0.0
H5518 H 0.61684 0.47413 0.85408 0.0
H5519 H 0.63151 0.49617 0.85621 0.0
H5520 H 0.59131 0.43222 0.09189 0.0
H5521 H 0.56947 0.42076 0.10134 0.0
H5522 H 0.59119 0.41254 0.14171 0.0
H5523 H 0.61316 0.42404 0.13216 0.0
H5524 H 0.57936 0.38801 0.12894 0.0
H5525 H 0.53869 0.43161 0.13119 0.0
H5526 H 0.54815 0.43135 0.11429 0.0
H5527 H 0.55787 0.43516 0.13068 0.0
C5528 C 0.59124 0.42831 0.10291 0.0
C5529 C 0.60376 0.42905 0.11138 0.0
C5530 C 0.57878 0.42185 0.10834 0.0
C5531 C 0.57864 0.41599 0.12231 0.0
C5532 C 0.59103 0.41715 0.13097 0.0
H5533 H 0.49816 0.37007 0.14497 0.0
H5534 H 0.5198 0.38507 0.14857 0.0
C5535 C 0.60351 0.42374 0.12556 0.0
C5536 C 0.5662 0.40709 0.12694 0.0
H5537 H 0.5294 0.40728 0.12849 0.0
C5538 C 0.56846 0.39228 0.1292 0.0
C5539 C 0.55201 0.41268 0.12744 0.0
C5540 C 0.54903 0.42861 0.12592 0.0
C5541 C 0.55681 0.38275 0.13081 0.0
C5542 C 0.54258 0.38819 0.13003 0.0
C5543 C 0.54034 0.40313 0.12892 0.0
C5544 C 0.53 0.37846 0.12863 0.0
C5545 C 0.55979 0.36687 0.13278 0.0
C5546 C 0.52865 0.36982 0.11627 0.0
C5547 C 0.51635 0.36141 0.11417 0.0
C5548 C 0.50515 0.36153 0.12436 0.0
C5549 C 0.50667 0.36984 0.13696 0.0
C5550 C 0.51896 0.3784 0.139 0.0
H5551 H 0.57071 0.36499 0.13735 0.0
H5552 H 0.55164 0.36181 0.13996 0.0
H5553 H 0.55926 0.36143 0.12212 0.0
H5554 H 0.53699 0.36984 0.10807 0.0
H5555 H 0.51557 0.35488 0.10451 0.0
H5556 H 0.57532 0.6141 0.13574 0.0
H5557 H 0.58712 0.59216 0.14513 0.0
H5558 H 0.58425 0.5727 0.10292 0.0
H5559 H 0.57255 0.59447 0.09362 0.0
H5560 H 0.57786 0.55365 0.12768 0.0
H5561 H 0.62977 0.5839 0.13148 0.0
H5562 H 0.61413 0.59114 0.14046 0.0
H5563 H 0.61471 0.59064 0.12112 0.0
C5564 C 0.5769 0.60494 0.12865 0.0
C5565 C 0.57305 0.60581 0.11402 0.0
C5566 C 0.58369 0.59251 0.13396 0.0
C5567 C 0.58662 0.58089 0.12467 0.0
C5568 C 0.58204 0.58154 0.11026 0.0
H5569 H 0.64495 0.51631 0.10535 0.0
H5570 H 0.63045 0.53797 0.10945 0.0
C5571 C 0.57538 0.59393 0.10496 0.0
C5572 C 0.59559 0.56854 0.1293 0.0
H5573 H 0.63083 0.55873 0.13364 0.0
C5574 C 0.58939 0.55473 0.12938 0.0
C5575 C 0.61064 0.57008 0.13134 0.0
C5576 C 0.61782 0.5847 0.13105 0.0
C5577 C 0.59798 0.54232 0.1307 0.0
C5578 C 0.61311 0.54384 0.13202 0.0
C5579 C 0.61921 0.55767 0.13271 0.0
C5580 C 0.62284 0.53129 0.1305 0.0
C5581 C 0.59097 0.52765 0.12968 0.0
C5582 C 0.62364 0.52056 0.14116 0.0
C5583 C 0.63192 0.50814 0.13881 0.0
C5584 C 0.63934 0.50627 0.12571 0.0
C5585 C 0.63904 0.51734 0.11538 0.0
C5586 C 0.63087 0.52975 0.11776 0.0
H5587 H 0.57923 0.52838 0.12735 0.0
H5588 H 0.59621 0.52116 0.12107 0.0
H5589 H 0.59242 0.52181 0.14004 0.0
H5590 H 0.61761 0.52166 0.15112 0.0
H5591 H 0.63207 0.49976 0.14696 0.0
H5592 H 0.40047 0.5693 0.08635 0.0
H5593 H 0.42294 0.58112 0.09362 0.0
H5594 H 0.40617 0.58659 0.13673 0.0
H5595 H 0.38368 0.57447 0.12945 0.0
H5596 H 0.42281 0.60944 0.10306 0.0
H5597 H 0.44809 0.57333 0.14383 0.0
H5598 H 0.43442 0.56712 0.13138 0.0
H5599 H 0.42942 0.57781 0.14674 0.0
C5600 C 0.40179 0.57267 0.09748 0.0
C5601 C 0.39052 0.57094 0.1074 0.0
C5602 C 0.41457 0.57944 0.10161 0.0
C5603 C 0.41624 0.58468 0.11572 0.0
C5604 C 0.4052 0.58241 0.12586 0.0
H5605 H 0.48014 0.65335 0.12934 0.0
H5606 H 0.45764 0.63942 0.13114 0.0
C5607 C 0.3924 0.5755 0.12172 0.0
C5608 C 0.42888 0.59384 0.11917 0.0
H5609 H 0.45961 0.59568 0.13942 0.0
C5610 C 0.43082 0.60648 0.11107 0.0
C5611 C 0.43927 0.58992 0.12962 0.0
C5612 C 0.43783 0.57626 0.13835 0.0
C5613 C 0.4431 0.61513 0.11281 0.0
C5614 C 0.45356 0.61121 0.12321 0.0
C5615 C 0.45148 0.59872 0.13157 0.0
C5616 C 0.46733 0.61922 0.1245 0.0
C5617 C 0.44504 0.62802 0.10302 0.0
C5618 C 0.48033 0.6123 0.12098 0.0
C5619 C 0.49313 0.62018 0.12008 0.0
C5620 C 0.4931 0.63513 0.12253 0.0
C5621 C 0.48033 0.64187 0.1271 0.0
C5622 C 0.4675 0.63396 0.12807 0.0
H5623 H 0.43757 0.62772 0.09364 0.0
H5624 H 0.44282 0.63804 0.10918 0.0
H5625 H 0.45628 0.62859 0.0989 0.0
H5626 H 0.48047 0.6009 0.11835 0.0
H5627 H 0.503 0.61465 0.11714 0.0
H5628 H 0.40327 0.37979 0.10663 0.0
H5629 H 0.39145 0.40237 0.11348 0.0
H5630 H 0.43253 0.42427 0.1123 0.0
H5631 H 0.44431 0.40171 0.1048 0.0
H5632 H 0.39429 0.42176 0.13566 0.0
H5633 H 0.40892 0.44685 0.0831 0.0
H5634 H 0.4114 0.42787 0.08662 0.0
H5635 H 0.42392 0.44085 0.0938 0.0
C5636 C 0.40976 0.38944 0.10785 0.0
C5637 C 0.42461 0.38915 0.10491 0.0
C5638 C 0.40303 0.40229 0.11188 0.0
C5639 C 0.41106 0.41507 0.11312 0.0
C5640 C 0.42609 0.4146 0.11109 0.0
H5641 H 0.3689 0.49636 0.13959 0.0
H5642 H 0.38412 0.47463 0.14001 0.0
C5643 C 0.43282 0.40173 0.10693 0.0
C5644 C 0.40341 0.42892 0.11552 0.0
H5645 H 0.39519 0.46085 0.09911 0.0
C5646 C 0.39456 0.43039 0.12775 0.0
C5647 C 0.40367 0.44006 0.10507 0.0
C5648 C 0.41238 0.43885 0.09134 0.0
C5649 C 0.3857 0.44256 0.12965 0.0
C5650 C 0.38592 0.45363 0.11915 0.0
C5651 C 0.39507 0.45234 0.10715 0.0
C5652 C 0.37607 0.46623 0.11974 0.0
C5653 C 0.37575 0.44315 0.14252 0.0
C5654 C 0.36651 0.4687 0.10825 0.0
C5655 C 0.35799 0.4811 0.10793 0.0
C5656 C 0.35889 0.4913 0.11909 0.0
C5657 C 0.36801 0.4886 0.13089 0.0
C5658 C 0.37666 0.4762 0.13115 0.0
H5659 H 0.37453 0.43243 0.14774 0.0
H5660 H 0.38025 0.45073 0.15063 0.0
H5661 H 0.3649 0.44713 0.13934 0.0
H5662 H 0.3658 0.46111 0.09938 0.0
H5663 H 0.35083 0.48281 0.09885 0.0
H5664 H 0.88472 0.61626 0.59218 0.0
H5665 H 0.87678 0.59322 0.60242 0.0
H5666 H 0.88146 0.57305 0.56071 0.0
H5667 H 0.88979 0.59609 0.55052 0.0
H5668 H 0.85463 0.57299 0.59586 0.0
H5669 H 0.90978 0.55089 0.58678 0.0
H5670 H 0.90576 0.56986 0.58515 0.0
H5671 H 0.90068 0.55759 0.57103 0.0
C5672 C 0.8839 0.60692 0.5852 0.0
C5673 C 0.88808 0.60779 0.57067 0.0
C5674 C 0.87929 0.59381 0.59102 0.0
C5675 C 0.87878 0.5814 0.58237 0.0
C5676 C 0.88202 0.58248 0.5676 0.0
H5677 H 0.87551 0.49221 0.61206 0.0
H5678 H 0.87389 0.51351 0.59655 0.0
C5679 C 0.88668 0.59561 0.56178 0.0
C5680 C 0.87614 0.5672 0.5892 0.0
H5681 H 0.89307 0.53579 0.59826 0.0
C5682 C 0.86296 0.56477 0.59628 0.0
C5683 C 0.88707 0.55656 0.58978 0.0
C5684 C 0.90167 0.55882 0.5829 0.0
C5685 C 0.86048 0.55199 0.60406 0.0
C5686 C 0.87156 0.54153 0.60494 0.0
C5687 C 0.88457 0.54381 0.59752 0.0
C5688 C 0.8704 0.52849 0.61413 0.0
C5689 C 0.84606 0.54981 0.61128 0.0
C5690 C 0.86874 0.52981 0.62914 0.0
C5691 C 0.86978 0.51765 0.63803 0.0
C5692 C 0.87277 0.50406 0.63204 0.0
C5693 C 0.87373 0.50265 0.61698 0.0
C5694 C 0.87262 0.51477 0.6081 0.0
H5695 H 0.8375 0.55637 0.60604 0.0
H5696 H 0.84278 0.53828 0.61104 0.0
H5697 H 0.84683 0.55325 0.62272 0.0
H5698 H 0.8673 0.54032 0.63405 0.0
H5699 H 0.86898 0.51899 0.64961 0.0
H5700 H 0.8802 0.50147 0.38275 0.0
H5701 H 0.87798 0.47843 0.39551 0.0
H5702 H 0.86527 0.45767 0.3558 0.0
H5703 H 0.86812 0.48064 0.34288 0.0
H5704 H 0.85579 0.45862 0.39934 0.0
H5705 H 0.90104 0.43497 0.36777 0.0
H5706 H 0.89693 0.45399 0.36745 0.0
H5707 H 0.88625 0.44152 0.3571 0.0
C5708 C 0.87713 0.49192 0.37673 0.0
C5709 C 0.87496 0.49261 0.36175 0.0
C5710 C 0.87566 0.47884 0.38405 0.0
C5711 C 0.87182 0.46628 0.37653 0.0
C5712 C 0.86861 0.46717 0.36173 0.0
H5713 H 0.87733 0.37664 0.40347 0.0
H5714 H 0.8696 0.39871 0.39107 0.0
C5715 C 0.87017 0.48027 0.35439 0.0
C5716 C 0.87207 0.45217 0.38404 0.0
H5717 H 0.88978 0.4199 0.38477 0.0
C5718 C 0.86315 0.4501 0.39612 0.0
C5719 C 0.88176 0.44113 0.37985 0.0
C5720 C 0.89214 0.443 0.36742 0.0
C5721 C 0.86369 0.43724 0.40416 0.0
C5722 C 0.87349 0.42631 0.40005 0.0
C5723 C 0.8822 0.42829 0.38782 0.0
C5724 C 0.87558 0.41296 0.40858 0.0
C5725 C 0.85379 0.43545 0.41695 0.0
C5726 C 0.88117 0.41366 0.42266 0.0
C5727 C 0.88558 0.40107 0.42973 0.0
C5728 C 0.88457 0.38769 0.42272 0.0
C5729 C 0.87824 0.38691 0.40899 0.0
C5730 C 0.87383 0.39946 0.40194 0.0
H5731 H 0.84438 0.44287 0.41633 0.0
H5732 H 0.84979 0.42418 0.41775 0.0
H5733 H 0.85983 0.43798 0.42698 0.0
H5734 H 0.88287 0.42399 0.42787 0.0
H5735 H 0.8905 0.40185 0.44031 0.0
H5736 H 0.4941 0.88006 0.38408 0.0
H5737 H 0.51702 0.87762 0.39706 0.0
H5738 H 0.53697 0.86046 0.35865 0.0
H5739 H 0.51413 0.86335 0.34549 0.0
H5740 H 0.53637 0.8542 0.40229 0.0
H5741 H 0.56049 0.8971 0.36784 0.0
H5742 H 0.54134 0.89362 0.36829 0.0
H5743 H 0.55314 0.8819 0.35831 0.0
C5744 C 0.50343 0.87587 0.37841 0.0
C5745 C 0.5026 0.87243 0.36367 0.0
C5746 C 0.51643 0.87431 0.38587 0.0
C5747 C 0.52874 0.86915 0.37872 0.0
C5748 C 0.52764 0.86473 0.36426 0.0
H5749 H 0.6185 0.87691 0.40398 0.0
H5750 H 0.59647 0.86816 0.39228 0.0
C5751 C 0.51463 0.86634 0.35679 0.0
C5752 C 0.5429 0.86955 0.38609 0.0
H5753 H 0.57534 0.88689 0.38559 0.0
C5754 C 0.54497 0.86125 0.39861 0.0
C5755 C 0.55402 0.87883 0.38129 0.0
C5756 C 0.55217 0.88848 0.36827 0.0
C5757 C 0.55793 0.86199 0.40646 0.0
C5758 C 0.56894 0.87146 0.40176 0.0
C5759 C 0.56692 0.87955 0.38912 0.0
C5760 C 0.58241 0.87388 0.41005 0.0
C5761 C 0.55973 0.85263 0.41965 0.0
C5762 C 0.58188 0.87958 0.4241 0.0
C5763 C 0.59449 0.88445 0.43083 0.0
C5764 C 0.6077 0.88387 0.42348 0.0
C5765 C 0.60836 0.87745 0.40979 0.0
C5766 C 0.59582 0.87247 0.40313 0.0
H5767 H 0.55255 0.84303 0.41923 0.0
H5768 H 0.57106 0.84893 0.42084 0.0
H5769 H 0.5568 0.85896 0.42939 0.0
H5770 H 0.57163 0.88107 0.42952 0.0
H5771 H 0.59379 0.8895 0.44135 0.0
H5772 H 0.12036 0.49913 0.38167 0.0
H5773 H 0.12422 0.52172 0.39478 0.0
H5774 H 0.14128 0.54125 0.35609 0.0
H5775 H 0.13669 0.51881 0.34275 0.0
H5776 H 0.1473 0.53928 0.40055 0.0
H5777 H 0.10743 0.56732 0.36545 0.0
H5778 H 0.10983 0.54802 0.3651 0.0
H5779 H 0.12251 0.5596 0.35606 0.0
C5780 C 0.12475 0.50832 0.37594 0.0
C5781 C 0.12758 0.50753 0.36107 0.0
C5782 C 0.12716 0.52114 0.38347 0.0
C5783 C 0.13267 0.53329 0.37631 0.0
C5784 C 0.13664 0.53212 0.36172 0.0
H5785 H 0.12909 0.62231 0.40599 0.0
H5786 H 0.13837 0.60066 0.3939 0.0
C5787 C 0.13409 0.51931 0.35414 0.0
C5788 C 0.13316 0.54734 0.38393 0.0
H5789 H 0.11797 0.58089 0.38398 0.0
C5790 C 0.14101 0.54844 0.39686 0.0
C5791 C 0.12487 0.55925 0.37914 0.0
C5792 C 0.11557 0.55852 0.36576 0.0
C5793 C 0.14059 0.56107 0.40525 0.0
C5794 C 0.13206 0.57281 0.40059 0.0
C5795 C 0.12461 0.57188 0.38745 0.0
C5796 C 0.12957 0.58577 0.4096 0.0
C5797 C 0.14913 0.56172 0.41909 0.0
C5798 C 0.12198 0.58457 0.42267 0.0
C5799 C 0.11667 0.59691 0.42954 0.0
C5800 C 0.11883 0.61054 0.42335 0.0
C5801 C 0.12732 0.61184 0.41089 0.0
C5802 C 0.1326 0.59952 0.40401 0.0
H5803 H 0.15811 0.55377 0.4191 0.0
H5804 H 0.15365 0.57268 0.42085 0.0
H5805 H 0.14191 0.55915 0.42829 0.0
H5806 H 0.11928 0.57406 0.42702 0.0
H5807 H 0.11006 0.59574 0.43912 0.0
H5808 H 0.48115 0.13027 0.34226 0.0
H5809 H 0.45845 0.13343 0.3556 0.0
H5810 H 0.47969 0.11983 0.39478 0.0
H5811 H 0.50239 0.11728 0.38161 0.0
H5812 H 0.44443 0.11175 0.36814 0.0
H5813 H 0.45592 0.15289 0.40967 0.0
H5814 H 0.46747 0.15019 0.3942 0.0
H5815 H 0.46929 0.1389 0.40994 0.0
C5816 C 0.48096 0.12825 0.35377 0.0
C5817 C 0.49332 0.12312 0.36087 0.0
C5818 C 0.46804 0.13005 0.36137 0.0
C5819 C 0.46738 0.12696 0.37621 0.0
C5820 C 0.47996 0.12254 0.38341 0.0
H5821 H 0.4009 0.08726 0.42429 0.0
H5822 H 0.42276 0.09517 0.41171 0.0
C5823 C 0.49285 0.1208 0.37583 0.0
C5824 C 0.4533 0.12649 0.3838 0.0
H5825 H 0.43637 0.13622 0.4151 0.0
C5826 C 0.44258 0.11734 0.37826 0.0
C5827 C 0.45079 0.13389 0.39694 0.0
C5828 C 0.46144 0.14463 0.40294 0.0
C5829 C 0.42981 0.11472 0.3859 0.0
C5830 C 0.42782 0.12122 0.39956 0.0
C5831 C 0.43808 0.13106 0.40473 0.0
C5832 C 0.41548 0.11718 0.40883 0.0
C5833 C 0.41867 0.10474 0.37943 0.0
C5834 C 0.40449 0.12713 0.41193 0.0
C5835 C 0.39203 0.12263 0.4192 0.0
C5836 C 0.39052 0.10816 0.42346 0.0
C5837 C 0.40187 0.09846 0.42105 0.0
C5838 C 0.41428 0.10294 0.41384 0.0
H5839 H 0.41992 0.10385 0.36753 0.0
H5840 H 0.42 0.09379 0.38411 0.0
H5841 H 0.40756 0.10852 0.38187 0.0
H5842 H 0.40527 0.13817 0.40816 0.0
H5843 H 0.3833 0.13024 0.42086 0.0
H5844 H 0.12886 0.48051 0.65483 0.0
H5845 H 0.12973 0.45777 0.6413 0.0
H5846 H 0.12114 0.48093 0.60182 0.0
H5847 H 0.12079 0.50365 0.6152 0.0
H5848 H 0.10604 0.44753 0.62624 0.0
H5849 H 0.153 0.45307 0.58959 0.0
H5850 H 0.15058 0.46431 0.60534 0.0
H5851 H 0.14087 0.46817 0.58898 0.0
C5852 C 0.12747 0.48075 0.64322 0.0
C5853 C 0.12437 0.49376 0.63609 0.0
C5854 C 0.12794 0.46778 0.63552 0.0
C5855 C 0.12555 0.46767 0.62055 0.0
C5856 C 0.12318 0.48077 0.61333 0.0
H5857 H 0.10177 0.40456 0.55639 0.0
H5858 H 0.10976 0.42631 0.56937 0.0
C5859 C 0.12269 0.49372 0.62103 0.0
C5860 C 0.1239 0.45381 0.61277 0.0
H5861 H 0.13607 0.43437 0.58389 0.0
C5862 C 0.11273 0.44455 0.6171 0.0
C5863 C 0.13255 0.45005 0.60076 0.0
C5864 C 0.14501 0.45936 0.59595 0.0
C5865 C 0.1097 0.43183 0.60952 0.0
C5866 C 0.11826 0.42811 0.59744 0.0
C5867 C 0.12955 0.43727 0.59317 0.0
C5868 C 0.11532 0.41488 0.58898 0.0
C5869 C 0.09702 0.42273 0.61422 0.0
C5870 C 0.11631 0.40127 0.59555 0.0
C5871 C 0.1117 0.38896 0.58821 0.0
C5872 C 0.10615 0.39007 0.57417 0.0
C5873 C 0.10598 0.40354 0.56725 0.0
C5874 C 0.11054 0.4159 0.57463 0.0
H5875 H 0.08957 0.42879 0.6214 0.0
H5876 H 0.09082 0.41878 0.60475 0.0
H5877 H 0.10103 0.4132 0.62027 0.0
H5878 H 0.12022 0.40025 0.60652 0.0
H5879 H 0.11206 0.37861 0.59364 0.0
H5880 H 0.49361 0.11569 0.61327 0.0
H5881 H 0.51609 0.11724 0.59959 0.0
H5882 H 0.53898 0.12889 0.63841 0.0
H5883 H 0.51656 0.12671 0.65231 0.0
H5884 H 0.53712 0.13901 0.59538 0.0
H5885 H 0.5588 0.0915 0.62507 0.0
H5886 H 0.54006 0.09669 0.62597 0.0
H5887 H 0.55337 0.10646 0.63615 0.0
C5888 C 0.50345 0.11835 0.61895 0.0
C5889 C 0.50347 0.12044 0.63396 0.0
C5890 C 0.51624 0.1195 0.61106 0.0
C5891 C 0.52923 0.12287 0.61805 0.0
C5892 C 0.5291 0.12599 0.63288 0.0
H5893 H 0.6137 0.13034 0.57561 0.0
H5894 H 0.5909 0.13685 0.5876 0.0
C5895 C 0.5163 0.1248 0.64078 0.0
C5896 C 0.54299 0.12193 0.61001 0.0
H5897 H 0.57379 0.10192 0.6075 0.0
C5898 C 0.54522 0.13099 0.59805 0.0
C5899 C 0.55341 0.11131 0.61346 0.0
C5900 C 0.55131 0.10083 0.62577 0.0
C5901 C 0.55758 0.12959 0.58936 0.0
C5902 C 0.56793 0.11895 0.59282 0.0
C5903 C 0.5658 0.11008 0.6049 0.0
C5904 C 0.58076 0.11614 0.58374 0.0
C5905 C 0.55926 0.13915 0.57629 0.0
C5906 C 0.58249 0.10247 0.57745 0.0
C5907 C 0.59543 0.09878 0.57073 0.0
C5908 C 0.60682 0.10871 0.57014 0.0
C5909 C 0.60491 0.12264 0.57578 0.0
C5910 C 0.59193 0.12633 0.5826 0.0
H5911 H 0.5491 0.14493 0.57361 0.0
H5912 H 0.56776 0.1473 0.57843 0.0
H5913 H 0.56267 0.1327 0.56677 0.0
H5914 H 0.57402 0.09446 0.57826 0.0
H5915 H 0.59677 0.08795 0.56651 0.0
H5916 H 0.48021 0.86424 0.65517 0.0
H5917 H 0.45768 0.86176 0.6414 0.0
H5918 H 0.48006 0.87463 0.60262 0.0
H5919 H 0.50257 0.87655 0.61623 0.0
H5920 H 0.44491 0.88421 0.62874 0.0
H5921 H 0.45504 0.8427 0.5872 0.0
H5922 H 0.46644 0.84477 0.60288 0.0
H5923 H 0.46906 0.85603 0.58724 0.0
C5924 C 0.48031 0.86621 0.64364 0.0
C5925 C 0.49292 0.87098 0.63678 0.0
C5926 C 0.46748 0.8648 0.6358 0.0
C5927 C 0.46719 0.86793 0.62095 0.0
C5928 C 0.48004 0.8719 0.61398 0.0
H5929 H 0.4039 0.91107 0.57182 0.0
H5930 H 0.42527 0.90173 0.58428 0.0
C5931 C 0.49283 0.87326 0.62181 0.0
C5932 C 0.45326 0.86906 0.61317 0.0
H5933 H 0.43638 0.86032 0.58156 0.0
C5934 C 0.44293 0.87874 0.61857 0.0
C5935 C 0.45061 0.86186 0.59995 0.0
C5936 C 0.46083 0.85064 0.59407 0.0
C5937 C 0.43045 0.88204 0.61073 0.0
C5938 C 0.42835 0.87568 0.59703 0.0
C5939 C 0.43819 0.86535 0.59197 0.0
C5940 C 0.41639 0.88039 0.58761 0.0
C5941 C 0.41976 0.89262 0.617 0.0
C5942 C 0.40463 0.87125 0.58484 0.0
C5943 C 0.39245 0.87657 0.57765 0.0
C5944 C 0.39199 0.89103 0.57315 0.0
C5945 C 0.40409 0.89988 0.5752 0.0
C5946 C 0.41623 0.89458 0.58234 0.0
H5947 H 0.42098 0.89363 0.62889 0.0
H5948 H 0.4216 0.90342 0.61216 0.0
H5949 H 0.4085 0.88931 0.61455 0.0
H5950 H 0.40461 0.86026 0.58885 0.0
H5951 H 0.38313 0.86964 0.57629 0.0
loop_
_geom_bond_atom_site_label_1
_geom_bond_atom_site_label_2
_geom_bond_distance
_geom_bond_site_symmetry_2
_ccdc_geom_bond_type
Co0 O3 1.970 . S
Co0 N17 1.989 . S
Co0 O25 1.967 . S
Co0 O32 1.920 . S
Co1 O4 1.966 . S
Co1 N10 2.022 . S
Co1 N18 1.993 . S
Co1 O26 1.941 . S
C2 O3 1.258 . S
C2 O4 1.263 . S
O3 Co0 1.970 . S
O3 C2 1.258 . S
O4 Co1 1.966 . S
O4 C2 1.263 . S
C5 O6 1.235 . S
C5 O32 1.289 . S
O6 C5 1.235 . S
C7 C9 1.400 . S
C7 N10 1.351 . S
C7 C12 1.501 . S
C8 C9 1.387 . S
C8 N11 1.341 . S
C9 C7 1.400 . S
C9 C8 1.387 . S
N10 Co1 2.022 . S
N10 C7 1.351 . S
N10 N11 1.365 . S
N11 C8 1.341 . S
N11 N10 1.365 . S
N11 H31 0.862 . S
C12 C7 1.501 . S
C12 H13 0.961 . S
C12 H14 0.961 . S
C12 H15 0.960 . S
H13 C12 0.961 . S
H14 C12 0.961 . S
H15 C12 0.960 . S
C16 N17 1.342 . S
C16 C20 1.401 . S
C16 C21 1.499 . S
N17 Co0 1.989 . S
N17 C16 1.342 . S
N17 N18 1.388 . S
N18 Co1 1.993 . S
N18 N17 1.388 . S
N18 C19 1.346 . S
C19 N18 1.346 . S
C19 C20 1.396 . S
C19 C29 1.510 . S
C20 C16 1.401 . S
C20 C19 1.396 . S
C21 C16 1.499 . S
C21 H22 0.959 . S
C21 H23 0.960 . S
C21 H24 0.961 . S
H22 C21 0.959 . S
H23 C21 0.960 . S
H24 C21 0.961 . S
O25 Co0 1.967 . S
O25 C33 1.258 . S
O26 Co1 1.941 . S
O26 C33 1.266 . S
H27 C29 0.959 . S
H28 C29 0.961 . S
C29 C19 1.510 . S
C29 H27 0.959 . S
C29 H28 0.961 . S
C29 H30 0.960 . S
H30 C29 0.960 . S
H31 N11 0.862 . S
O32 Co0 1.920 . S
O32 C5 1.289 . S
C33 O25 1.258 . S
C33 O26 1.266 . S
Co34 O37 1.970 . S
Co34 N51 1.989 . S
Co34 O59 1.967 . S
Co34 O66 1.920 . S
Co35 O38 1.966 . S
Co35 N44 2.022 . S
Co35 N52 1.993 . S
Co35 O60 1.941 . S
C36 O37 1.258 . S
C36 O38 1.263 . S
O37 Co34 1.970 . S
O37 C36 1.258 . S
O38 Co35 1.966 . S
O38 C36 1.263 . S
C39 O40 1.235 . S
C39 O66 1.289 . S
O40 C39 1.235 . S
C41 C43 1.400 . S
C41 N44 1.351 . S
C41 C46 1.501 . S
C42 C43 1.387 . S
C42 N45 1.341 . S
C43 C41 1.400 . S
C43 C42 1.387 . S
N44 Co35 2.022 . S
N44 C41 1.351 . S
N44 N45 1.365 . S
N45 C42 1.341 . S
N45 N44 1.365 . S
N45 H65 0.862 . S
C46 C41 1.501 . S
C46 H47 0.961 . S
C46 H48 0.961 . S
C46 H49 0.960 . S
H47 C46 0.961 . S
H48 C46 0.961 . S
H49 C46 0.960 . S
C50 N51 1.342 . S
C50 C54 1.401 . S
C50 C55 1.499 . S
N51 Co34 1.989 . S
N51 C50 1.342 . S
N51 N52 1.388 . S
N52 Co35 1.993 . S
N52 N51 1.388 . S
N52 C53 1.346 . S
C53 N52 1.346 . S
C53 C54 1.396 . S
C53 C63 1.510 . S
C54 C50 1.401 . S
C54 C53 1.396 . S
C55 C50 1.499 . S
C55 H56 0.959 . S
C55 H57 0.960 . S
C55 H58 0.961 . S
H56 C55 0.959 . S
H57 C55 0.960 . S
H58 C55 0.961 . S
O59 Co34 1.967 . S
O59 C67 1.258 . S
O60 Co35 1.941 . S
O60 C67 1.266 . S
H61 C63 0.959 . S
H62 C63 0.961 . S
C63 C53 1.510 . S
C63 H61 0.959 . S
C63 H62 0.961 . S
C63 H64 0.960 . S
H64 C63 0.960 . S
H65 N45 0.862 . S
O66 Co34 1.920 . S
O66 C39 1.289 . S
C67 O59 1.258 . S
C67 O60 1.266 . S
Co68 O71 1.970 . S
Co68 N85 1.989 . S
Co68 O93 1.967 . S
Co68 O100 1.920 . S
Co69 O72 1.966 . S
Co69 N78 2.022 . S
Co69 N86 1.993 . S
Co69 O94 1.941 . S
C70 O71 1.258 . S
C70 O72 1.263 . S
O71 Co68 1.970 . S
O71 C70 1.258 . S
O72 Co69 1.966 . S
O72 C70 1.263 . S
C73 O74 1.235 . S
C73 O100 1.289 . S
O74 C73 1.235 . S
C75 C77 1.400 . S
C75 N78 1.351 . S
C75 C80 1.501 . S
C76 C77 1.387 . S
C76 N79 1.341 . S
C77 C75 1.400 . S
C77 C76 1.387 . S
N78 Co69 2.022 . S
N78 C75 1.351 . S
N78 N79 1.365 . S
N79 C76 1.341 . S
N79 N78 1.365 . S
N79 H99 0.862 . S
C80 C75 1.501 . S
C80 H81 0.961 . S
C80 H82 0.961 . S
C80 H83 0.960 . S
H81 C80 0.961 . S
H82 C80 0.961 . S
H83 C80 0.960 . S
C84 N85 1.342 . S
C84 C88 1.401 . S
C84 C89 1.499 . S
N85 Co68 1.989 . S
N85 C84 1.342 . S
N85 N86 1.388 . S
N86 Co69 1.993 . S
N86 N85 1.388 . S
N86 C87 1.346 . S
C87 N86 1.346 . S
C87 C88 1.396 . S
C87 C97 1.510 . S
C88 C84 1.401 . S
C88 C87 1.396 . S
C89 C84 1.499 . S
C89 H90 0.959 . S
C89 H91 0.960 . S
C89 H92 0.961 . S
H90 C89 0.959 . S
H91 C89 0.960 . S
H92 C89 0.961 . S
O93 Co68 1.967 . S
O93 C101 1.258 . S
O94 Co69 1.941 . S
O94 C101 1.266 . S
H95 C97 0.959 . S
H96 C97 0.961 . S
C97 C87 1.510 . S
C97 H95 0.959 . S
C97 H96 0.961 . S
C97 H98 0.960 . S
H98 C97 0.960 . S
H99 N79 0.862 . S
O100 Co68 1.920 . S
O100 C73 1.289 . S
C101 O93 1.258 . S
C101 O94 1.266 . S
Co102 O105 1.970 . S
Co102 N119 1.989 . S
Co102 O127 1.967 . S
Co102 O134 1.920 . S
Co103 O106 1.966 . S
Co103 N112 2.022 . S
Co103 N120 1.993 . S
Co103 O128 1.941 . S
C104 O105 1.258 . S
C104 O106 1.263 . S
O105 Co102 1.970 . S
O105 C104 1.258 . S
O106 Co103 1.966 . S
O106 C104 1.263 . S
C107 O108 1.235 . S
C107 O134 1.289 . S
O108 C107 1.235 . S
C109 C111 1.400 . S
C109 N112 1.351 . S
C109 C114 1.501 . S
C110 C111 1.387 . S
C110 N113 1.341 . S
C111 C109 1.400 . S
C111 C110 1.387 . S
N112 Co103 2.022 . S
N112 C109 1.351 . S
N112 N113 1.365 . S
N113 C110 1.341 . S
N113 N112 1.365 . S
N113 H133 0.862 . S
C114 C109 1.501 . S
C114 H115 0.961 . S
C114 H116 0.961 . S
C114 H117 0.960 . S
H115 C114 0.961 . S
H116 C114 0.961 . S
H117 C114 0.960 . S
C118 N119 1.342 . S
C118 C122 1.401 . S
C118 C123 1.499 . S
N119 Co102 1.989 . S
N119 C118 1.342 . S
N119 N120 1.388 . S
N120 Co103 1.993 . S
N120 N119 1.388 . S
N120 C121 1.346 . S
C121 N120 1.346 . S
C121 C122 1.396 . S
C121 C131 1.510 . S
C122 C118 1.401 . S
C122 C121 1.396 . S
C123 C118 1.499 . S
C123 H124 0.959 . S
C123 H125 0.960 . S
C123 H126 0.961 . S
H124 C123 0.959 . S
H125 C123 0.960 . S
H126 C123 0.961 . S
O127 Co102 1.967 . S
O127 C135 1.258 . S
O128 Co103 1.941 . S
O128 C135 1.266 . S
H129 C131 0.959 . S
H130 C131 0.961 . S
C131 C121 1.510 . S
C131 H129 0.959 . S
C131 H130 0.961 . S
C131 H132 0.960 . S
H132 C131 0.960 . S
H133 N113 0.862 . S
O134 Co102 1.920 . S
O134 C107 1.289 . S
C135 O127 1.258 . S
C135 O128 1.266 . S
Co136 O139 1.970 . S
Co136 N153 1.989 . S
Co136 O161 1.967 . S
Co136 O168 1.920 . S
Co137 O140 1.966 . S
Co137 N146 2.022 . S
Co137 N154 1.993 . S
Co137 O162 1.941 . S
C138 O139 1.258 . S
C138 O140 1.263 . S
O139 Co136 1.970 . S
O139 C138 1.258 . S
O140 Co137 1.966 . S
O140 C138 1.263 . S
C141 O142 1.235 . S
C141 O168 1.289 . S
O142 C141 1.235 . S
C143 C145 1.400 . S
C143 N146 1.351 . S
C143 C148 1.501 . S
C144 C145 1.387 . S
C144 N147 1.341 . S
C145 C143 1.400 . S
C145 C144 1.387 . S
N146 Co137 2.022 . S
N146 C143 1.351 . S
N146 N147 1.365 . S
N147 C144 1.341 . S
N147 N146 1.365 . S
N147 H167 0.862 . S
C148 C143 1.501 . S
C148 H149 0.961 . S
C148 H150 0.961 . S
C148 H151 0.960 . S
H149 C148 0.961 . S
H150 C148 0.961 . S
H151 C148 0.960 . S
C152 N153 1.342 . S
C152 C156 1.401 . S
C152 C157 1.499 . S
N153 Co136 1.989 . S
N153 C152 1.342 . S
N153 N154 1.388 . S
N154 Co137 1.993 . S
N154 N153 1.388 . S
N154 C155 1.346 . S
C155 N154 1.346 . S
C155 C156 1.396 . S
C155 C165 1.510 . S
C156 C152 1.401 . S
C156 C155 1.396 . S
C157 C152 1.499 . S
C157 H158 0.959 . S
C157 H159 0.960 . S
C157 H160 0.961 . S
H158 C157 0.959 . S
H159 C157 0.960 . S
H160 C157 0.961 . S
O161 Co136 1.967 . S
O161 C169 1.258 . S
O162 Co137 1.941 . S
O162 C169 1.266 . S
H163 C165 0.959 . S
H164 C165 0.961 . S
C165 C155 1.510 . S
C165 H163 0.959 . S
C165 H164 0.961 . S
C165 H166 0.960 . S
H166 C165 0.960 . S
H167 N147 0.862 . S
O168 Co136 1.920 . S
O168 C141 1.289 . S
C169 O161 1.258 . S
C169 O162 1.266 . S
Co170 O173 1.970 . S
Co170 N187 1.989 . S
Co170 O195 1.967 . S
Co170 O202 1.920 . S
Co171 O174 1.966 . S
Co171 N180 2.022 . S
Co171 N188 1.993 . S
Co171 O196 1.941 . S
C172 O173 1.258 . S
C172 O174 1.263 . S
O173 Co170 1.970 . S
O173 C172 1.258 . S
O174 Co171 1.966 . S
O174 C172 1.263 . S
C175 O176 1.235 . S
C175 O202 1.289 . S
O176 C175 1.235 . S
C177 C179 1.400 . S
C177 N180 1.351 . S
C177 C182 1.501 . S
C178 C179 1.387 . S
C178 N181 1.341 . S
C179 C177 1.400 . S
C179 C178 1.387 . S
N180 Co171 2.022 . S
N180 C177 1.351 . S
N180 N181 1.365 . S
N181 C178 1.341 . S
N181 N180 1.365 . S
N181 H201 0.862 . S
C182 C177 1.501 . S
C182 H183 0.961 . S
C182 H184 0.961 . S
C182 H185 0.960 . S
H183 C182 0.961 . S
H184 C182 0.961 . S
H185 C182 0.960 . S
C186 N187 1.342 . S
C186 C190 1.401 . S
C186 C191 1.499 . S
N187 Co170 1.989 . S
N187 C186 1.342 . S
N187 N188 1.388 . S
N188 Co171 1.993 . S
N188 N187 1.388 . S
N188 C189 1.346 . S
C189 N188 1.346 . S
C189 C190 1.396 . S
C189 C199 1.510 . S
C190 C186 1.401 . S
C190 C189 1.396 . S
C191 C186 1.499 . S
C191 H192 0.959 . S
C191 H193 0.960 . S
C191 H194 0.961 . S
H192 C191 0.959 . S
H193 C191 0.960 . S
H194 C191 0.961 . S
O195 Co170 1.967 . S
O195 C203 1.258 . S
O196 Co171 1.941 . S
O196 C203 1.266 . S
H197 C199 0.959 . S
H198 C199 0.961 . S
C199 C189 1.510 . S
C199 H197 0.959 . S
C199 H198 0.961 . S
C199 H200 0.960 . S
H200 C199 0.960 . S
H201 N181 0.862 . S
O202 Co170 1.920 . S
O202 C175 1.289 . S
C203 O195 1.258 . S
C203 O196 1.266 . S
Co204 O207 1.970 . S
Co204 N221 1.989 . S
Co204 O229 1.967 . S
Co204 O236 1.920 . S
Co205 O208 1.966 . S
Co205 N214 2.022 . S
Co205 N222 1.993 . S
Co205 O230 1.941 . S
C206 O207 1.258 . S
C206 O208 1.263 . S
O207 Co204 1.970 . S
O207 C206 1.258 . S
O208 Co205 1.966 . S
O208 C206 1.263 . S
C209 O210 1.235 . S
C209 O236 1.289 . S
O210 C209 1.235 . S
C211 C213 1.400 . S
C211 N214 1.351 . S
C211 C216 1.501 . S
C212 C213 1.387 . S
C212 N215 1.341 . S
C213 C211 1.400 . S
C213 C212 1.387 . S
N214 Co205 2.022 . S
N214 C211 1.351 . S
N214 N215 1.365 . S
N215 C212 1.341 . S
N215 N214 1.365 . S
N215 H235 0.862 . S
C216 C211 1.501 . S
C216 H217 0.961 . S
C216 H218 0.961 . S
C216 H219 0.960 . S
H217 C216 0.961 . S
H218 C216 0.961 . S
H219 C216 0.960 . S
C220 N221 1.342 . S
C220 C224 1.401 . S
C220 C225 1.499 . S
N221 Co204 1.989 . S
N221 C220 1.342 . S
N221 N222 1.388 . S
N222 Co205 1.993 . S
N222 N221 1.388 . S
N222 C223 1.346 . S
C223 N222 1.346 . S
C223 C224 1.396 . S
C223 C233 1.510 . S
C224 C220 1.401 . S
C224 C223 1.396 . S
C225 C220 1.499 . S
C225 H226 0.959 . S
C225 H227 0.960 . S
C225 H228 0.961 . S
H226 C225 0.959 . S
H227 C225 0.960 . S
H228 C225 0.961 . S
O229 Co204 1.967 . S
O229 C237 1.258 . S
O230 Co205 1.941 . S
O230 C237 1.266 . S
H231 C233 0.959 . S
H232 C233 0.961 . S
C233 C223 1.510 . S
C233 H231 0.959 . S
C233 H232 0.961 . S
C233 H234 0.960 . S
H234 C233 0.960 . S
H235 N215 0.862 . S
O236 Co204 1.920 . S
O236 C209 1.289 . S
C237 O229 1.258 . S
C237 O230 1.266 . S
Co238 O241 1.970 . S
Co238 N255 1.989 . S
Co238 O263 1.967 . S
Co238 O270 1.920 . S
Co239 O242 1.966 . S
Co239 N248 2.022 . S
Co239 N256 1.993 . S
Co239 O264 1.941 . S
C240 O241 1.258 . S
C240 O242 1.263 . S
O241 Co238 1.970 . S
O241 C240 1.258 . S
O242 Co239 1.966 . S
O242 C240 1.263 . S
C243 O244 1.235 . S
C243 O270 1.289 . S
O244 C243 1.235 . S
C245 C247 1.400 . S
C245 N248 1.351 . S
C245 C250 1.501 . S
C246 C247 1.387 . S
C246 N249 1.341 . S
C247 C245 1.400 . S
C247 C246 1.387 . S
N248 Co239 2.022 . S
N248 C245 1.351 . S
N248 N249 1.365 . S
N249 C246 1.341 . S
N249 N248 1.365 . S
N249 H269 0.862 . S
C250 C245 1.501 . S
C250 H251 0.961 . S
C250 H252 0.961 . S
C250 H253 0.960 . S
H251 C250 0.961 . S
H252 C250 0.961 . S
H253 C250 0.960 . S
C254 N255 1.342 . S
C254 C258 1.401 . S
C254 C259 1.499 . S
N255 Co238 1.989 . S
N255 C254 1.342 . S
N255 N256 1.388 . S
N256 Co239 1.993 . S
N256 N255 1.388 . S
N256 C257 1.346 . S
C257 N256 1.346 . S
C257 C258 1.396 . S
C257 C267 1.510 . S
C258 C254 1.401 . S
C258 C257 1.396 . S
C259 C254 1.499 . S
C259 H260 0.959 . S
C259 H261 0.960 . S
C259 H262 0.961 . S
H260 C259 0.959 . S
H261 C259 0.960 . S
H262 C259 0.961 . S
O263 Co238 1.967 . S
O263 C271 1.258 . S
O264 Co239 1.941 . S
O264 C271 1.266 . S
H265 C267 0.959 . S
H266 C267 0.961 . S
C267 C257 1.510 . S
C267 H265 0.959 . S
C267 H266 0.961 . S
C267 H268 0.960 . S
H268 C267 0.960 . S
H269 N249 0.862 . S
O270 Co238 1.920 . S
O270 C243 1.289 . S
C271 O263 1.258 . S
C271 O264 1.266 . S
Co272 O275 1.970 . S
Co272 N289 1.989 . S
Co272 O297 1.967 . S
Co272 O304 1.920 . S
Co273 O276 1.966 . S
Co273 N282 2.022 . S
Co273 N290 1.993 . S
Co273 O298 1.941 . S
C274 O275 1.258 . S
C274 O276 1.263 . S
O275 Co272 1.970 . S
O275 C274 1.258 . S
O276 Co273 1.966 . S
O276 C274 1.263 . S
C277 O278 1.235 . S
C277 O304 1.289 . S
O278 C277 1.235 . S
C279 C281 1.400 . S
C279 N282 1.351 . S
C279 C284 1.501 . S
C280 C281 1.387 . S
C280 N283 1.341 . S
C281 C279 1.400 . S
C281 C280 1.387 . S
N282 Co273 2.022 . S
N282 C279 1.351 . S
N282 N283 1.365 . S
N283 C280 1.341 . S
N283 N282 1.365 . S
N283 H303 0.862 . S
C284 C279 1.501 . S
C284 H285 0.961 . S
C284 H286 0.961 . S
C284 H287 0.960 . S
H285 C284 0.961 . S
H286 C284 0.961 . S
H287 C284 0.960 . S
C288 N289 1.342 . S
C288 C292 1.401 . S
C288 C293 1.499 . S
N289 Co272 1.989 . S
N289 C288 1.342 . S
N289 N290 1.388 . S
N290 Co273 1.993 . S
N290 N289 1.388 . S
N290 C291 1.346 . S
C291 N290 1.346 . S
C291 C292 1.396 . S
C291 C301 1.510 . S
C292 C288 1.401 . S
C292 C291 1.396 . S
C293 C288 1.499 . S
C293 H294 0.959 . S
C293 H295 0.960 . S
C293 H296 0.961 . S
H294 C293 0.959 . S
H295 C293 0.960 . S
H296 C293 0.961 . S
O297 Co272 1.967 . S
O297 C305 1.258 . S
O298 Co273 1.941 . S
O298 C305 1.266 . S
H299 C301 0.959 . S
H300 C301 0.961 . S
C301 C291 1.510 . S
C301 H299 0.959 . S
C301 H300 0.961 . S
C301 H302 0.960 . S
H302 C301 0.960 . S
H303 N283 0.862 . S
O304 Co272 1.920 . S
O304 C277 1.289 . S
C305 O297 1.258 . S
C305 O298 1.266 . S
Co306 O309 1.970 . S
Co306 N323 1.989 . S
Co306 O331 1.967 . S
Co306 O338 1.920 . S
Co307 O310 1.966 . S
Co307 N316 2.022 . S
Co307 N324 1.993 . S
Co307 O332 1.941 . S
C308 O309 1.258 . S
C308 O310 1.263 . S
O309 Co306 1.970 . S
O309 C308 1.258 . S
O310 Co307 1.966 . S
O310 C308 1.263 . S
C311 O312 1.235 . S
C311 O338 1.289 . S
O312 C311 1.235 . S
C313 C315 1.400 . S
C313 N316 1.351 . S
C313 C318 1.501 . S
C314 C315 1.387 . S
C314 N317 1.341 . S
C315 C313 1.400 . S
C315 C314 1.387 . S
N316 Co307 2.022 . S
N316 C313 1.351 . S
N316 N317 1.365 . S
N317 C314 1.341 . S
N317 N316 1.365 . S
N317 H337 0.862 . S
C318 C313 1.501 . S
C318 H319 0.961 . S
C318 H320 0.961 . S
C318 H321 0.960 . S
H319 C318 0.961 . S
H320 C318 0.961 . S
H321 C318 0.960 . S
C322 N323 1.342 . S
C322 C326 1.401 . S
C322 C327 1.499 . S
N323 Co306 1.989 . S
N323 C322 1.342 . S
N323 N324 1.388 . S
N324 Co307 1.993 . S
N324 N323 1.388 . S
N324 C325 1.346 . S
C325 N324 1.346 . S
C325 C326 1.396 . S
C325 C335 1.510 . S
C326 C322 1.401 . S
C326 C325 1.396 . S
C327 C322 1.499 . S
C327 H328 0.959 . S
C327 H329 0.960 . S
C327 H330 0.961 . S
H328 C327 0.959 . S
H329 C327 0.960 . S
H330 C327 0.961 . S
O331 Co306 1.967 . S
O331 C339 1.258 . S
O332 Co307 1.941 . S
O332 C339 1.266 . S
H333 C335 0.959 . S
H334 C335 0.961 . S
C335 C325 1.510 . S
C335 H333 0.959 . S
C335 H334 0.961 . S
C335 H336 0.960 . S
H336 C335 0.960 . S
H337 N317 0.862 . S
O338 Co306 1.920 . S
O338 C311 1.289 . S
C339 O331 1.258 . S
C339 O332 1.266 . S
Co340 O343 1.970 . S
Co340 N357 1.989 . S
Co340 O365 1.967 . S
Co340 O372 1.920 . S
Co341 O344 1.966 . S
Co341 N350 2.022 . S
Co341 N358 1.993 . S
Co341 O366 1.941 . S
C342 O343 1.258 . S
C342 O344 1.263 . S
O343 Co340 1.970 . S
O343 C342 1.258 . S
O344 Co341 1.966 . S
O344 C342 1.263 . S
C345 O346 1.235 . S
C345 O372 1.289 . S
O346 C345 1.235 . S
C347 C349 1.400 . S
C347 N350 1.351 . S
C347 C352 1.501 . S
C348 C349 1.387 . S
C348 N351 1.341 . S
C349 C347 1.400 . S
C349 C348 1.387 . S
N350 Co341 2.022 . S
N350 C347 1.351 . S
N350 N351 1.365 . S
N351 C348 1.341 . S
N351 N350 1.365 . S
N351 H371 0.862 . S
C352 C347 1.501 . S
C352 H353 0.961 . S
C352 H354 0.961 . S
C352 H355 0.960 . S
H353 C352 0.961 . S
H354 C352 0.961 . S
H355 C352 0.960 . S
C356 N357 1.342 . S
C356 C360 1.401 . S
C356 C361 1.499 . S
N357 Co340 1.989 . S
N357 C356 1.342 . S
N357 N358 1.388 . S
N358 Co341 1.993 . S
N358 N357 1.388 . S
N358 C359 1.346 . S
C359 N358 1.346 . S
C359 C360 1.396 . S
C359 C369 1.510 . S
C360 C356 1.401 . S
C360 C359 1.396 . S
C361 C356 1.499 . S
C361 H362 0.959 . S
C361 H363 0.960 . S
C361 H364 0.961 . S
H362 C361 0.959 . S
H363 C361 0.960 . S
H364 C361 0.961 . S
O365 Co340 1.967 . S
O365 C373 1.258 . S
O366 Co341 1.941 . S
O366 C373 1.266 . S
H367 C369 0.959 . S
H368 C369 0.961 . S
C369 C359 1.510 . S
C369 H367 0.959 . S
C369 H368 0.961 . S
C369 H370 0.960 . S
H370 C369 0.960 . S
H371 N351 0.862 . S
O372 Co340 1.920 . S
O372 C345 1.289 . S
C373 O365 1.258 . S
C373 O366 1.266 . S
Co374 O377 1.970 . S
Co374 N391 1.989 . S
Co374 O399 1.967 . S
Co374 O406 1.920 . S
Co375 O378 1.966 . S
Co375 N384 2.022 . S
Co375 N392 1.993 . S
Co375 O400 1.941 . S
C376 O377 1.258 . S
C376 O378 1.263 . S
O377 Co374 1.970 . S
O377 C376 1.258 . S
O378 Co375 1.966 . S
O378 C376 1.263 . S
C379 O380 1.235 . S
C379 O406 1.289 . S
O380 C379 1.235 . S
C381 C383 1.400 . S
C381 N384 1.351 . S
C381 C386 1.501 . S
C382 C383 1.387 . S
C382 N385 1.341 . S
C383 C381 1.400 . S
C383 C382 1.387 . S
N384 Co375 2.022 . S
N384 C381 1.351 . S
N384 N385 1.365 . S
N385 C382 1.341 . S
N385 N384 1.365 . S
N385 H405 0.862 . S
C386 C381 1.501 . S
C386 H387 0.961 . S
C386 H388 0.961 . S
C386 H389 0.960 . S
H387 C386 0.961 . S
H388 C386 0.961 . S
H389 C386 0.960 . S
C390 N391 1.342 . S
C390 C394 1.401 . S
C390 C395 1.499 . S
N391 Co374 1.989 . S
N391 C390 1.342 . S
N391 N392 1.388 . S
N392 Co375 1.993 . S
N392 N391 1.388 . S
N392 C393 1.346 . S
C393 N392 1.346 . S
C393 C394 1.396 . S
C393 C403 1.510 . S
C394 C390 1.401 . S
C394 C393 1.396 . S
C395 C390 1.499 . S
C395 H396 0.959 . S
C395 H397 0.960 . S
C395 H398 0.961 . S
H396 C395 0.959 . S
H397 C395 0.960 . S
H398 C395 0.961 . S
O399 Co374 1.967 . S
O399 C407 1.258 . S
O400 Co375 1.941 . S
O400 C407 1.266 . S
H401 C403 0.959 . S
H402 C403 0.961 . S
C403 C393 1.510 . S
C403 H401 0.959 . S
C403 H402 0.961 . S
C403 H404 0.960 . S
H404 C403 0.960 . S
H405 N385 0.862 . S
O406 Co374 1.920 . S
O406 C379 1.289 . S
C407 O399 1.258 . S
C407 O400 1.266 . S
Co408 O411 1.970 . S
Co408 N425 1.989 . S
Co408 O433 1.967 . S
Co408 O440 1.920 . S
Co409 O412 1.966 . S
Co409 N418 2.022 . S
Co409 N426 1.993 . S
Co409 O434 1.941 . S
C410 O411 1.258 . S
C410 O412 1.263 . S
O411 Co408 1.970 . S
O411 C410 1.258 . S
O412 Co409 1.966 . S
O412 C410 1.263 . S
C413 O414 1.235 . S
C413 O440 1.289 . S
O414 C413 1.235 . S
C415 C417 1.400 . S
C415 N418 1.351 . S
C415 C420 1.501 . S
C416 C417 1.387 . S
C416 N419 1.341 . S
C417 C415 1.400 . S
C417 C416 1.387 . S
N418 Co409 2.022 . S
N418 C415 1.351 . S
N418 N419 1.365 . S
N419 C416 1.341 . S
N419 N418 1.365 . S
N419 H439 0.862 . S
C420 C415 1.501 . S
C420 H421 0.961 . S
C420 H422 0.961 . S
C420 H423 0.960 . S
H421 C420 0.961 . S
H422 C420 0.961 . S
H423 C420 0.960 . S
C424 N425 1.342 . S
C424 C428 1.401 . S
C424 C429 1.499 . S
N425 Co408 1.989 . S
N425 C424 1.342 . S
N425 N426 1.388 . S
N426 Co409 1.993 . S
N426 N425 1.388 . S
N426 C427 1.346 . S
C427 N426 1.346 . S
C427 C428 1.396 . S
C427 C437 1.510 . S
C428 C424 1.401 . S
C428 C427 1.396 . S
C429 C424 1.499 . S
C429 H430 0.959 . S
C429 H431 0.960 . S
C429 H432 0.961 . S
H430 C429 0.959 . S
H431 C429 0.960 . S
H432 C429 0.961 . S
O433 Co408 1.967 . S
O433 C441 1.258 . S
O434 Co409 1.941 . S
O434 C441 1.266 . S
H435 C437 0.959 . S
H436 C437 0.961 . S
C437 C427 1.510 . S
C437 H435 0.959 . S
C437 H436 0.961 . S
C437 H438 0.960 . S
H438 C437 0.960 . S
H439 N419 0.862 . S
O440 Co408 1.920 . S
O440 C413 1.289 . S
C441 O433 1.258 . S
C441 O434 1.266 . S
Co442 O445 1.970 . S
Co442 N459 1.989 . S
Co442 O467 1.967 . S
Co442 O474 1.920 . S
Co443 O446 1.966 . S
Co443 N452 2.022 . S
Co443 N460 1.993 . S
Co443 O468 1.941 . S
C444 O445 1.258 . S
C444 O446 1.263 . S
O445 Co442 1.970 . S
O445 C444 1.258 . S
O446 Co443 1.966 . S
O446 C444 1.263 . S
C447 O448 1.235 . S
C447 O474 1.289 . S
O448 C447 1.235 . S
C449 C451 1.400 . S
C449 N452 1.351 . S
C449 C454 1.501 . S
C450 C451 1.387 . S
C450 N453 1.341 . S
C451 C449 1.400 . S
C451 C450 1.387 . S
N452 Co443 2.022 . S
N452 C449 1.351 . S
N452 N453 1.365 . S
N453 C450 1.341 . S
N453 N452 1.365 . S
N453 H473 0.862 . S
C454 C449 1.501 . S
C454 H455 0.961 . S
C454 H456 0.961 . S
C454 H457 0.960 . S
H455 C454 0.961 . S
H456 C454 0.961 . S
H457 C454 0.960 . S
C458 N459 1.342 . S
C458 C462 1.401 . S
C458 C463 1.499 . S
N459 Co442 1.989 . S
N459 C458 1.342 . S
N459 N460 1.388 . S
N460 Co443 1.993 . S
N460 N459 1.388 . S
N460 C461 1.346 . S
C461 N460 1.346 . S
C461 C462 1.396 . S
C461 C471 1.510 . S
C462 C458 1.401 . S
C462 C461 1.396 . S
C463 C458 1.499 . S
C463 H464 0.959 . S
C463 H465 0.960 . S
C463 H466 0.961 . S
H464 C463 0.959 . S
H465 C463 0.960 . S
H466 C463 0.961 . S
O467 Co442 1.967 . S
O467 C475 1.258 . S
O468 Co443 1.941 . S
O468 C475 1.266 . S
H469 C471 0.959 . S
H470 C471 0.961 . S
C471 C461 1.510 . S
C471 H469 0.959 . S
C471 H470 0.961 . S
C471 H472 0.960 . S
H472 C471 0.960 . S
H473 N453 0.862 . S
O474 Co442 1.920 . S
O474 C447 1.289 . S
C475 O467 1.258 . S
C475 O468 1.266 . S
Co476 O479 1.970 . S
Co476 N493 1.989 . S
Co476 O501 1.967 . S
Co476 O508 1.920 . S
Co477 O480 1.966 . S
Co477 N486 2.022 . S
Co477 N494 1.993 . S
Co477 O502 1.941 . S
C478 O479 1.258 . S
C478 O480 1.263 . S
O479 Co476 1.970 . S
O479 C478 1.258 . S
O480 Co477 1.966 . S
O480 C478 1.263 . S
C481 O482 1.235 . S
C481 O508 1.289 . S
O482 C481 1.235 . S
C483 C485 1.400 . S
C483 N486 1.351 . S
C483 C488 1.501 . S
C484 C485 1.387 . S
C484 N487 1.341 . S
C485 C483 1.400 . S
C485 C484 1.387 . S
N486 Co477 2.022 . S
N486 C483 1.351 . S
N486 N487 1.365 . S
N487 C484 1.341 . S
N487 N486 1.365 . S
N487 H507 0.862 . S
C488 C483 1.501 . S
C488 H489 0.961 . S
C488 H490 0.961 . S
C488 H491 0.960 . S
H489 C488 0.961 . S
H490 C488 0.961 . S
H491 C488 0.960 . S
C492 N493 1.342 . S
C492 C496 1.401 . S
C492 C497 1.499 . S
N493 Co476 1.989 . S
N493 C492 1.342 . S
N493 N494 1.388 . S
N494 Co477 1.993 . S
N494 N493 1.388 . S
N494 C495 1.346 . S
C495 N494 1.346 . S
C495 C496 1.396 . S
C495 C505 1.510 . S
C496 C492 1.401 . S
C496 C495 1.396 . S
C497 C492 1.499 . S
C497 H498 0.959 . S
C497 H499 0.960 . S
C497 H500 0.961 . S
H498 C497 0.959 . S
H499 C497 0.960 . S
H500 C497 0.961 . S
O501 Co476 1.967 . S
O501 C509 1.258 . S
O502 Co477 1.941 . S
O502 C509 1.266 . S
H503 C505 0.959 . S
H504 C505 0.961 . S
C505 C495 1.510 . S
C505 H503 0.959 . S
C505 H504 0.961 . S
C505 H506 0.960 . S
H506 C505 0.960 . S
H507 N487 0.862 . S
O508 Co476 1.920 . S
O508 C481 1.289 . S
C509 O501 1.258 . S
C509 O502 1.266 . S
Co510 O513 1.970 . S
Co510 N527 1.989 . S
Co510 O535 1.967 . S
Co510 O542 1.920 . S
Co511 O514 1.966 . S
Co511 N520 2.022 . S
Co511 N528 1.993 . S
Co511 O536 1.941 . S
C512 O513 1.258 . S
C512 O514 1.263 . S
O513 Co510 1.970 . S
O513 C512 1.258 . S
O514 Co511 1.966 . S
O514 C512 1.263 . S
C515 O516 1.235 . S
C515 O542 1.289 . S
O516 C515 1.235 . S
C517 C519 1.400 . S
C517 N520 1.351 . S
C517 C522 1.501 . S
C518 C519 1.387 . S
C518 N521 1.341 . S
C519 C517 1.400 . S
C519 C518 1.387 . S
N520 Co511 2.022 . S
N520 C517 1.351 . S
N520 N521 1.365 . S
N521 C518 1.341 . S
N521 N520 1.365 . S
N521 H541 0.862 . S
C522 C517 1.501 . S
C522 H523 0.961 . S
C522 H524 0.961 . S
C522 H525 0.960 . S
H523 C522 0.961 . S
H524 C522 0.961 . S
H525 C522 0.960 . S
C526 N527 1.342 . S
C526 C530 1.401 . S
C526 C531 1.499 . S
N527 Co510 1.989 . S
N527 C526 1.342 . S
N527 N528 1.388 . S
N528 Co511 1.993 . S
N528 N527 1.388 . S
N528 C529 1.346 . S
C529 N528 1.346 . S
C529 C530 1.396 . S
C529 C539 1.510 . S
C530 C526 1.401 . S
C530 C529 1.396 . S
C531 C526 1.499 . S
C531 H532 0.959 . S
C531 H533 0.960 . S
C531 H534 0.961 . S
H532 C531 0.959 . S
H533 C531 0.960 . S
H534 C531 0.961 . S
O535 Co510 1.967 . S
O535 C543 1.258 . S
O536 Co511 1.941 . S
O536 C543 1.266 . S
H537 C539 0.959 . S
H538 C539 0.961 . S
C539 C529 1.510 . S
C539 H537 0.959 . S
C539 H538 0.961 . S
C539 H540 0.960 . S
H540 C539 0.960 . S
H541 N521 0.862 . S
O542 Co510 1.920 . S
O542 C515 1.289 . S
C543 O535 1.258 . S
C543 O536 1.266 . S
Co544 O547 1.970 . S
Co544 N561 1.989 . S
Co544 O569 1.967 . S
Co544 O576 1.920 . S
Co545 O548 1.966 . S
Co545 N554 2.022 . S
Co545 N562 1.993 . S
Co545 O570 1.941 . S
C546 O547 1.258 . S
C546 O548 1.263 . S
O547 Co544 1.970 . S
O547 C546 1.258 . S
O548 Co545 1.966 . S
O548 C546 1.263 . S
C549 O550 1.235 . S
C549 O576 1.289 . S
O550 C549 1.235 . S
C551 C553 1.400 . S
C551 N554 1.351 . S
C551 C556 1.501 . S
C552 C553 1.387 . S
C552 N555 1.341 . S
C553 C551 1.400 . S
C553 C552 1.387 . S
N554 Co545 2.022 . S
N554 C551 1.351 . S
N554 N555 1.365 . S
N555 C552 1.341 . S
N555 N554 1.365 . S
N555 H575 0.862 . S
C556 C551 1.501 . S
C556 H557 0.961 . S
C556 H558 0.961 . S
C556 H559 0.960 . S
H557 C556 0.961 . S
H558 C556 0.961 . S
H559 C556 0.960 . S
C560 N561 1.342 . S
C560 C564 1.401 . S
C560 C565 1.499 . S
N561 Co544 1.989 . S
N561 C560 1.342 . S
N561 N562 1.388 . S
N562 Co545 1.993 . S
N562 N561 1.388 . S
N562 C563 1.346 . S
C563 N562 1.346 . S
C563 C564 1.396 . S
C563 C573 1.510 . S
C564 C560 1.401 . S
C564 C563 1.396 . S
C565 C560 1.499 . S
C565 H566 0.959 . S
C565 H567 0.960 . S
C565 H568 0.961 . S
H566 C565 0.959 . S
H567 C565 0.960 . S
H568 C565 0.961 . S
O569 Co544 1.967 . S
O569 C577 1.258 . S
O570 Co545 1.941 . S
O570 C577 1.266 . S
H571 C573 0.959 . S
H572 C573 0.961 . S
C573 C563 1.510 . S
C573 H571 0.959 . S
C573 H572 0.961 . S
C573 H574 0.960 . S
H574 C573 0.960 . S
H575 N555 0.862 . S
O576 Co544 1.920 . S
O576 C549 1.289 . S
C577 O569 1.258 . S
C577 O570 1.266 . S
Co578 O581 1.970 . S
Co578 N595 1.989 . S
Co578 O603 1.967 . S
Co578 O610 1.920 . S
Co579 O582 1.966 . S
Co579 N588 2.022 . S
Co579 N596 1.993 . S
Co579 O604 1.941 . S
C580 O581 1.258 . S
C580 O582 1.263 . S
O581 Co578 1.970 . S
O581 C580 1.258 . S
O582 Co579 1.966 . S
O582 C580 1.263 . S
C583 O584 1.235 . S
C583 O610 1.289 . S
O584 C583 1.235 . S
C585 C587 1.400 . S
C585 N588 1.351 . S
C585 C590 1.501 . S
C586 C587 1.387 . S
C586 N589 1.341 . S
C587 C585 1.400 . S
C587 C586 1.387 . S
N588 Co579 2.022 . S
N588 C585 1.351 . S
N588 N589 1.365 . S
N589 C586 1.341 . S
N589 N588 1.365 . S
N589 H609 0.862 . S
C590 C585 1.501 . S
C590 H591 0.961 . S
C590 H592 0.961 . S
C590 H593 0.960 . S
H591 C590 0.961 . S
H592 C590 0.961 . S
H593 C590 0.960 . S
C594 N595 1.342 . S
C594 C598 1.401 . S
C594 C599 1.499 . S
N595 Co578 1.989 . S
N595 C594 1.342 . S
N595 N596 1.388 . S
N596 Co579 1.993 . S
N596 N595 1.388 . S
N596 C597 1.346 . S
C597 N596 1.346 . S
C597 C598 1.396 . S
C597 C607 1.510 . S
C598 C594 1.401 . S
C598 C597 1.396 . S
C599 C594 1.499 . S
C599 H600 0.959 . S
C599 H601 0.960 . S
C599 H602 0.961 . S
H600 C599 0.959 . S
H601 C599 0.960 . S
H602 C599 0.961 . S
O603 Co578 1.967 . S
O603 C611 1.258 . S
O604 Co579 1.941 . S
O604 C611 1.266 . S
H605 C607 0.959 . S
H606 C607 0.961 . S
C607 C597 1.510 . S
C607 H605 0.959 . S
C607 H606 0.961 . S
C607 H608 0.960 . S
H608 C607 0.960 . S
H609 N589 0.862 . S
O610 Co578 1.920 . S
O610 C583 1.289 . S
C611 O603 1.258 . S
C611 O604 1.266 . S
Co612 O615 1.970 . S
Co612 N629 1.989 . S
Co612 O637 1.967 . S
Co612 O644 1.920 . S
Co613 O616 1.966 . S
Co613 N622 2.022 . S
Co613 N630 1.993 . S
Co613 O638 1.941 . S
C614 O615 1.258 . S
C614 O616 1.263 . S
O615 Co612 1.970 . S
O615 C614 1.258 . S
O616 Co613 1.966 . S
O616 C614 1.263 . S
C617 O618 1.235 . S
C617 O644 1.289 . S
O618 C617 1.235 . S
C619 C621 1.400 . S
C619 N622 1.351 . S
C619 C624 1.501 . S
C620 C621 1.387 . S
C620 N623 1.341 . S
C621 C619 1.400 . S
C621 C620 1.387 . S
N622 Co613 2.022 . S
N622 C619 1.351 . S
N622 N623 1.365 . S
N623 C620 1.341 . S
N623 N622 1.365 . S
N623 H643 0.862 . S
C624 C619 1.501 . S
C624 H625 0.961 . S
C624 H626 0.961 . S
C624 H627 0.960 . S
H625 C624 0.961 . S
H626 C624 0.961 . S
H627 C624 0.960 . S
C628 N629 1.342 . S
C628 C632 1.401 . S
C628 C633 1.499 . S
N629 Co612 1.989 . S
N629 C628 1.342 . S
N629 N630 1.388 . S
N630 Co613 1.993 . S
N630 N629 1.388 . S
N630 C631 1.346 . S
C631 N630 1.346 . S
C631 C632 1.396 . S
C631 C641 1.510 . S
C632 C628 1.401 . S
C632 C631 1.396 . S
C633 C628 1.499 . S
C633 H634 0.959 . S
C633 H635 0.960 . S
C633 H636 0.961 . S
H634 C633 0.959 . S
H635 C633 0.960 . S
H636 C633 0.961 . S
O637 Co612 1.967 . S
O637 C645 1.258 . S
O638 Co613 1.941 . S
O638 C645 1.266 . S
H639 C641 0.959 . S
H640 C641 0.961 . S
C641 C631 1.510 . S
C641 H639 0.959 . S
C641 H640 0.961 . S
C641 H642 0.960 . S
H642 C641 0.960 . S
H643 N623 0.862 . S
O644 Co612 1.920 . S
O644 C617 1.289 . S
C645 O637 1.258 . S
C645 O638 1.266 . S
Co646 O649 1.970 . S
Co646 N663 1.989 . S
Co646 O671 1.967 . S
Co646 O678 1.920 . S
Co647 O650 1.966 . S
Co647 N656 2.022 . S
Co647 N664 1.993 . S
Co647 O672 1.941 . S
C648 O649 1.258 . S
C648 O650 1.263 . S
O649 Co646 1.970 . S
O649 C648 1.258 . S
O650 Co647 1.966 . S
O650 C648 1.263 . S
C651 O652 1.235 . S
C651 O678 1.289 . S
O652 C651 1.235 . S
C653 C655 1.400 . S
C653 N656 1.351 . S
C653 C658 1.501 . S
C654 C655 1.387 . S
C654 N657 1.341 . S
C655 C653 1.400 . S
C655 C654 1.387 . S
N656 Co647 2.022 . S
N656 C653 1.351 . S
N656 N657 1.365 . S
N657 C654 1.341 . S
N657 N656 1.365 . S
N657 H677 0.862 . S
C658 C653 1.501 . S
C658 H659 0.961 . S
C658 H660 0.961 . S
C658 H661 0.960 . S
H659 C658 0.961 . S
H660 C658 0.961 . S
H661 C658 0.960 . S
C662 N663 1.342 . S
C662 C666 1.401 . S
C662 C667 1.499 . S
N663 Co646 1.989 . S
N663 C662 1.342 . S
N663 N664 1.388 . S
N664 Co647 1.993 . S
N664 N663 1.388 . S
N664 C665 1.346 . S
C665 N664 1.346 . S
C665 C666 1.396 . S
C665 C675 1.510 . S
C666 C662 1.401 . S
C666 C665 1.396 . S
C667 C662 1.499 . S
C667 H668 0.959 . S
C667 H669 0.960 . S
C667 H670 0.961 . S
H668 C667 0.959 . S
H669 C667 0.960 . S
H670 C667 0.961 . S
O671 Co646 1.967 . S
O671 C679 1.258 . S
O672 Co647 1.941 . S
O672 C679 1.266 . S
H673 C675 0.959 . S
H674 C675 0.961 . S
C675 C665 1.510 . S
C675 H673 0.959 . S
C675 H674 0.961 . S
C675 H676 0.960 . S
H676 C675 0.960 . S
H677 N657 0.862 . S
O678 Co646 1.920 . S
O678 C651 1.289 . S
C679 O671 1.258 . S
C679 O672 1.266 . S
Co680 O683 1.970 . S
Co680 N697 1.989 . S
Co680 O705 1.967 . S
Co680 O712 1.920 . S
Co681 O684 1.966 . S
Co681 N690 2.022 . S
Co681 N698 1.993 . S
Co681 O706 1.941 . S
C682 O683 1.258 . S
C682 O684 1.263 . S
O683 Co680 1.970 . S
O683 C682 1.258 . S
O684 Co681 1.966 . S
O684 C682 1.263 . S
C685 O686 1.235 . S
C685 O712 1.289 . S
O686 C685 1.235 . S
C687 C689 1.400 . S
C687 N690 1.351 . S
C687 C692 1.501 . S
C688 C689 1.387 . S
C688 N691 1.341 . S
C689 C687 1.400 . S
C689 C688 1.387 . S
N690 Co681 2.022 . S
N690 C687 1.351 . S
N690 N691 1.365 . S
N691 C688 1.341 . S
N691 N690 1.365 . S
N691 H711 0.862 . S
C692 C687 1.501 . S
C692 H693 0.961 . S
C692 H694 0.961 . S
C692 H695 0.960 . S
H693 C692 0.961 . S
H694 C692 0.961 . S
H695 C692 0.960 . S
C696 N697 1.342 . S
C696 C700 1.401 . S
C696 C701 1.499 . S
N697 Co680 1.989 . S
N697 C696 1.342 . S
N697 N698 1.388 . S
N698 Co681 1.993 . S
N698 N697 1.388 . S
N698 C699 1.346 . S
C699 N698 1.346 . S
C699 C700 1.396 . S
C699 C709 1.510 . S
C700 C696 1.401 . S
C700 C699 1.396 . S
C701 C696 1.499 . S
C701 H702 0.959 . S
C701 H703 0.960 . S
C701 H704 0.961 . S
H702 C701 0.959 . S
H703 C701 0.960 . S
H704 C701 0.961 . S
O705 Co680 1.967 . S
O705 C713 1.258 . S
O706 Co681 1.941 . S
O706 C713 1.266 . S
H707 C709 0.959 . S
H708 C709 0.961 . S
C709 C699 1.510 . S
C709 H707 0.959 . S
C709 H708 0.961 . S
C709 H710 0.960 . S
H710 C709 0.960 . S
H711 N691 0.862 . S
O712 Co680 1.920 . S
O712 C685 1.289 . S
C713 O705 1.258 . S
C713 O706 1.266 . S
Co714 O717 1.970 . S
Co714 N731 1.989 . S
Co714 O739 1.967 . S
Co714 O746 1.920 . S
Co715 O718 1.966 . S
Co715 N724 2.022 . S
Co715 N732 1.993 . S
Co715 O740 1.941 . S
C716 O717 1.258 . S
C716 O718 1.263 . S
O717 Co714 1.970 . S
O717 C716 1.258 . S
O718 Co715 1.966 . S
O718 C716 1.263 . S
C719 O720 1.235 . S
C719 O746 1.289 . S
O720 C719 1.235 . S
C721 C723 1.400 . S
C721 N724 1.351 . S
C721 C726 1.501 . S
C722 C723 1.387 . S
C722 N725 1.341 . S
C723 C721 1.400 . S
C723 C722 1.387 . S
N724 Co715 2.022 . S
N724 C721 1.351 . S
N724 N725 1.365 . S
N725 C722 1.341 . S
N725 N724 1.365 . S
N725 H745 0.862 . S
C726 C721 1.501 . S
C726 H727 0.961 . S
C726 H728 0.961 . S
C726 H729 0.960 . S
H727 C726 0.961 . S
H728 C726 0.961 . S
H729 C726 0.960 . S
C730 N731 1.342 . S
C730 C734 1.401 . S
C730 C735 1.499 . S
N731 Co714 1.989 . S
N731 C730 1.342 . S
N731 N732 1.388 . S
N732 Co715 1.993 . S
N732 N731 1.388 . S
N732 C733 1.346 . S
C733 N732 1.346 . S
C733 C734 1.396 . S
C733 C743 1.510 . S
C734 C730 1.401 . S
C734 C733 1.396 . S
C735 C730 1.499 . S
C735 H736 0.959 . S
C735 H737 0.960 . S
C735 H738 0.961 . S
H736 C735 0.959 . S
H737 C735 0.960 . S
H738 C735 0.961 . S
O739 Co714 1.967 . S
O739 C747 1.258 . S
O740 Co715 1.941 . S
O740 C747 1.266 . S
H741 C743 0.959 . S
H742 C743 0.961 . S
C743 C733 1.510 . S
C743 H741 0.959 . S
C743 H742 0.961 . S
C743 H744 0.960 . S
H744 C743 0.960 . S
H745 N725 0.862 . S
O746 Co714 1.920 . S
O746 C719 1.289 . S
C747 O739 1.258 . S
C747 O740 1.266 . S
Co748 O751 1.970 . S
Co748 N765 1.989 . S
Co748 O773 1.967 . S
Co748 O780 1.920 . S
Co749 O752 1.966 . S
Co749 N758 2.022 . S
Co749 N766 1.993 . S
Co749 O774 1.941 . S
C750 O751 1.258 . S
C750 O752 1.263 . S
O751 Co748 1.970 . S
O751 C750 1.258 . S
O752 Co749 1.966 . S
O752 C750 1.263 . S
C753 O754 1.235 . S
C753 O780 1.289 . S
O754 C753 1.235 . S
C755 C757 1.400 . S
C755 N758 1.351 . S
C755 C760 1.501 . S
C756 C757 1.387 . S
C756 N759 1.341 . S
C757 C755 1.400 . S
C757 C756 1.387 . S
N758 Co749 2.022 . S
N758 C755 1.351 . S
N758 N759 1.365 . S
N759 C756 1.341 . S
N759 N758 1.365 . S
N759 H779 0.862 . S
C760 C755 1.501 . S
C760 H761 0.961 . S
C760 H762 0.961 . S
C760 H763 0.960 . S
H761 C760 0.961 . S
H762 C760 0.961 . S
H763 C760 0.960 . S
C764 N765 1.342 . S
C764 C768 1.401 . S
C764 C769 1.499 . S
N765 Co748 1.989 . S
N765 C764 1.342 . S
N765 N766 1.388 . S
N766 Co749 1.993 . S
N766 N765 1.388 . S
N766 C767 1.346 . S
C767 N766 1.346 . S
C767 C768 1.396 . S
C767 C777 1.510 . S
C768 C764 1.401 . S
C768 C767 1.396 . S
C769 C764 1.499 . S
C769 H770 0.959 . S
C769 H771 0.960 . S
C769 H772 0.961 . S
H770 C769 0.959 . S
H771 C769 0.960 . S
H772 C769 0.961 . S
O773 Co748 1.967 . S
O773 C781 1.258 . S
O774 Co749 1.941 . S
O774 C781 1.266 . S
H775 C777 0.959 . S
H776 C777 0.961 . S
C777 C767 1.510 . S
C777 H775 0.959 . S
C777 H776 0.961 . S
C777 H778 0.960 . S
H778 C777 0.960 . S
H779 N759 0.862 . S
O780 Co748 1.920 . S
O780 C753 1.289 . S
C781 O773 1.258 . S
C781 O774 1.266 . S
Co782 O785 1.970 . S
Co782 N799 1.989 . S
Co782 O807 1.967 . S
Co782 O814 1.920 . S
Co783 O786 1.966 . S
Co783 N792 2.022 . S
Co783 N800 1.993 . S
Co783 O808 1.941 . S
C784 O785 1.258 . S
C784 O786 1.263 . S
O785 Co782 1.970 . S
O785 C784 1.258 . S
O786 Co783 1.966 . S
O786 C784 1.263 . S
C787 O788 1.235 . S
C787 O814 1.289 . S
O788 C787 1.235 . S
C789 C791 1.400 . S
C789 N792 1.351 . S
C789 C794 1.501 . S
C790 C791 1.387 . S
C790 N793 1.341 . S
C791 C789 1.400 . S
C791 C790 1.387 . S
N792 Co783 2.022 . S
N792 C789 1.351 . S
N792 N793 1.365 . S
N793 C790 1.341 . S
N793 N792 1.365 . S
N793 H813 0.862 . S
C794 C789 1.501 . S
C794 H795 0.961 . S
C794 H796 0.961 . S
C794 H797 0.960 . S
H795 C794 0.961 . S
H796 C794 0.961 . S
H797 C794 0.960 . S
C798 N799 1.342 . S
C798 C802 1.401 . S
C798 C803 1.499 . S
N799 Co782 1.989 . S
N799 C798 1.342 . S
N799 N800 1.388 . S
N800 Co783 1.993 . S
N800 N799 1.388 . S
N800 C801 1.346 . S
C801 N800 1.346 . S
C801 C802 1.396 . S
C801 C811 1.510 . S
C802 C798 1.401 . S
C802 C801 1.396 . S
C803 C798 1.499 . S
C803 H804 0.959 . S
C803 H805 0.960 . S
C803 H806 0.961 . S
H804 C803 0.959 . S
H805 C803 0.960 . S
H806 C803 0.961 . S
O807 Co782 1.967 . S
O807 C815 1.258 . S
O808 Co783 1.941 . S
O808 C815 1.266 . S
H809 C811 0.959 . S
H810 C811 0.961 . S
C811 C801 1.510 . S
C811 H809 0.959 . S
C811 H810 0.961 . S
C811 H812 0.960 . S
H812 C811 0.960 . S
H813 N793 0.862 . S
O814 Co782 1.920 . S
O814 C787 1.289 . S
C815 O807 1.258 . S
C815 O808 1.266 . S
Co816 O819 1.970 . S
Co816 N833 1.989 . S
Co816 O841 1.967 . S
Co816 O848 1.920 . S
Co817 O820 1.966 . S
Co817 N826 2.022 . S
Co817 N834 1.993 . S
Co817 O842 1.941 . S
C818 O819 1.258 . S
C818 O820 1.263 . S
O819 Co816 1.970 . S
O819 C818 1.258 . S
O820 Co817 1.966 . S
O820 C818 1.263 . S
C821 O822 1.235 . S
C821 O848 1.289 . S
O822 C821 1.235 . S
C823 C825 1.400 . S
C823 N826 1.351 . S
C823 C828 1.501 . S
C824 C825 1.387 . S
C824 N827 1.341 . S
C825 C823 1.400 . S
C825 C824 1.387 . S
N826 Co817 2.022 . S
N826 C823 1.351 . S
N826 N827 1.365 . S
N827 C824 1.341 . S
N827 N826 1.365 . S
N827 H847 0.862 . S
C828 C823 1.501 . S
C828 H829 0.961 . S
C828 H830 0.961 . S
C828 H831 0.960 . S
H829 C828 0.961 . S
H830 C828 0.961 . S
H831 C828 0.960 . S
C832 N833 1.342 . S
C832 C836 1.401 . S
C832 C837 1.499 . S
N833 Co816 1.989 . S
N833 C832 1.342 . S
N833 N834 1.388 . S
N834 Co817 1.993 . S
N834 N833 1.388 . S
N834 C835 1.346 . S
C835 N834 1.346 . S
C835 C836 1.396 . S
C835 C845 1.510 . S
C836 C832 1.401 . S
C836 C835 1.396 . S
C837 C832 1.499 . S
C837 H838 0.959 . S
C837 H839 0.960 . S
C837 H840 0.961 . S
H838 C837 0.959 . S
H839 C837 0.960 . S
H840 C837 0.961 . S
O841 Co816 1.967 . S
O841 C849 1.258 . S
O842 Co817 1.941 . S
O842 C849 1.266 . S
H843 C845 0.959 . S
H844 C845 0.961 . S
C845 C835 1.510 . S
C845 H843 0.959 . S
C845 H844 0.961 . S
C845 H846 0.960 . S
H846 C845 0.960 . S
H847 N827 0.862 . S
O848 Co816 1.920 . S
O848 C821 1.289 . S
C849 O841 1.258 . S
C849 O842 1.266 . S
Co850 O853 1.970 . S
Co850 N867 1.989 . S
Co850 O875 1.967 . S
Co850 O882 1.920 . S
Co851 O854 1.966 . S
Co851 N860 2.022 . S
Co851 N868 1.993 . S
Co851 O876 1.941 . S
C852 O853 1.258 . S
C852 O854 1.263 . S
O853 Co850 1.970 . S
O853 C852 1.258 . S
O854 Co851 1.966 . S
O854 C852 1.263 . S
C855 O856 1.235 . S
C855 O882 1.289 . S
O856 C855 1.235 . S
C857 C859 1.400 . S
C857 N860 1.351 . S
C857 C862 1.501 . S
C858 C859 1.387 . S
C858 N861 1.341 . S
C859 C857 1.400 . S
C859 C858 1.387 . S
N860 Co851 2.022 . S
N860 C857 1.351 . S
N860 N861 1.365 . S
N861 C858 1.341 . S
N861 N860 1.365 . S
N861 H881 0.862 . S
C862 C857 1.501 . S
C862 H863 0.961 . S
C862 H864 0.961 . S
C862 H865 0.960 . S
H863 C862 0.961 . S
H864 C862 0.961 . S
H865 C862 0.960 . S
C866 N867 1.342 . S
C866 C870 1.401 . S
C866 C871 1.499 . S
N867 Co850 1.989 . S
N867 C866 1.342 . S
N867 N868 1.388 . S
N868 Co851 1.993 . S
N868 N867 1.388 . S
N868 C869 1.346 . S
C869 N868 1.346 . S
C869 C870 1.396 . S
C869 C879 1.510 . S
C870 C866 1.401 . S
C870 C869 1.396 . S
C871 C866 1.499 . S
C871 H872 0.959 . S
C871 H873 0.960 . S
C871 H874 0.961 . S
H872 C871 0.959 . S
H873 C871 0.960 . S
H874 C871 0.961 . S
O875 Co850 1.967 . S
O875 C883 1.258 . S
O876 Co851 1.941 . S
O876 C883 1.266 . S
H877 C879 0.959 . S
H878 C879 0.961 . S
C879 C869 1.510 . S
C879 H877 0.959 . S
C879 H878 0.961 . S
C879 H880 0.960 . S
H880 C879 0.960 . S
H881 N861 0.862 . S
O882 Co850 1.920 . S
O882 C855 1.289 . S
C883 O875 1.258 . S
C883 O876 1.266 . S
Co884 O887 1.970 . S
Co884 N901 1.989 . S
Co884 O909 1.967 . S
Co884 O916 1.920 . S
Co885 O888 1.966 . S
Co885 N894 2.022 . S
Co885 N902 1.993 . S
Co885 O910 1.941 . S
C886 O887 1.258 . S
C886 O888 1.263 . S
O887 Co884 1.970 . S
O887 C886 1.258 . S
O888 Co885 1.966 . S
O888 C886 1.263 . S
C889 O890 1.235 . S
C889 O916 1.289 . S
O890 C889 1.235 . S
C891 C893 1.400 . S
C891 N894 1.351 . S
C891 C896 1.501 . S
C892 C893 1.387 . S
C892 N895 1.341 . S
C893 C891 1.400 . S
C893 C892 1.387 . S
N894 Co885 2.022 . S
N894 C891 1.351 . S
N894 N895 1.365 . S
N895 C892 1.341 . S
N895 N894 1.365 . S
N895 H915 0.862 . S
C896 C891 1.501 . S
C896 H897 0.961 . S
C896 H898 0.961 . S
C896 H899 0.960 . S
H897 C896 0.961 . S
H898 C896 0.961 . S
H899 C896 0.960 . S
C900 N901 1.342 . S
C900 C904 1.401 . S
C900 C905 1.499 . S
N901 Co884 1.989 . S
N901 C900 1.342 . S
N901 N902 1.388 . S
N902 Co885 1.993 . S
N902 N901 1.388 . S
N902 C903 1.346 . S
C903 N902 1.346 . S
C903 C904 1.396 . S
C903 C913 1.510 . S
C904 C900 1.401 . S
C904 C903 1.396 . S
C905 C900 1.499 . S
C905 H906 0.959 . S
C905 H907 0.960 . S
C905 H908 0.961 . S
H906 C905 0.959 . S
H907 C905 0.960 . S
H908 C905 0.961 . S
O909 Co884 1.967 . S
O909 C917 1.258 . S
O910 Co885 1.941 . S
O910 C917 1.266 . S
H911 C913 0.959 . S
H912 C913 0.961 . S
C913 C903 1.510 . S
C913 H911 0.959 . S
C913 H912 0.961 . S
C913 H914 0.960 . S
H914 C913 0.960 . S
H915 N895 0.862 . S
O916 Co884 1.920 . S
O916 C889 1.289 . S
C917 O909 1.258 . S
C917 O910 1.266 . S
Co918 O921 1.970 . S
Co918 N935 1.989 . S
Co918 O943 1.967 . S
Co918 O950 1.920 . S
Co919 O922 1.966 . S
Co919 N928 2.022 . S
Co919 N936 1.993 . S
Co919 O944 1.941 . S
C920 O921 1.258 . S
C920 O922 1.263 . S
O921 Co918 1.970 . S
O921 C920 1.258 . S
O922 Co919 1.966 . S
O922 C920 1.263 . S
C923 O924 1.235 . S
C923 O950 1.289 . S
O924 C923 1.235 . S
C925 C927 1.400 . S
C925 N928 1.351 . S
C925 C930 1.501 . S
C926 C927 1.387 . S
C926 N929 1.341 . S
C927 C925 1.400 . S
C927 C926 1.387 . S
N928 Co919 2.022 . S
N928 C925 1.351 . S
N928 N929 1.365 . S
N929 C926 1.341 . S
N929 N928 1.365 . S
N929 H949 0.862 . S
C930 C925 1.501 . S
C930 H931 0.961 . S
C930 H932 0.961 . S
C930 H933 0.960 . S
H931 C930 0.961 . S
H932 C930 0.961 . S
H933 C930 0.960 . S
C934 N935 1.342 . S
C934 C938 1.401 . S
C934 C939 1.499 . S
N935 Co918 1.989 . S
N935 C934 1.342 . S
N935 N936 1.388 . S
N936 Co919 1.993 . S
N936 N935 1.388 . S
N936 C937 1.346 . S
C937 N936 1.346 . S
C937 C938 1.396 . S
C937 C947 1.510 . S
C938 C934 1.401 . S
C938 C937 1.396 . S
C939 C934 1.499 . S
C939 H940 0.959 . S
C939 H941 0.960 . S
C939 H942 0.961 . S
H940 C939 0.959 . S
H941 C939 0.960 . S
H942 C939 0.961 . S
O943 Co918 1.967 . S
O943 C951 1.258 . S
O944 Co919 1.941 . S
O944 C951 1.266 . S
H945 C947 0.959 . S
H946 C947 0.961 . S
C947 C937 1.510 . S
C947 H945 0.959 . S
C947 H946 0.961 . S
C947 H948 0.960 . S
H948 C947 0.960 . S
H949 N929 0.862 . S
O950 Co918 1.920 . S
O950 C923 1.289 . S
C951 O943 1.258 . S
C951 O944 1.266 . S
Co952 O955 1.970 . S
Co952 N969 1.989 . S
Co952 O977 1.967 . S
Co952 O984 1.920 . S
Co953 O956 1.966 . S
Co953 N962 2.022 . S
Co953 N970 1.993 . S
Co953 O978 1.941 . S
C954 O955 1.258 . S
C954 O956 1.263 . S
O955 Co952 1.970 . S
O955 C954 1.258 . S
O956 Co953 1.966 . S
O956 C954 1.263 . S
C957 O958 1.235 . S
C957 O984 1.289 . S
O958 C957 1.235 . S
C959 C961 1.400 . S
C959 N962 1.351 . S
C959 C964 1.501 . S
C960 C961 1.387 . S
C960 N963 1.341 . S
C961 C959 1.400 . S
C961 C960 1.387 . S
N962 Co953 2.022 . S
N962 C959 1.351 . S
N962 N963 1.365 . S
N963 C960 1.341 . S
N963 N962 1.365 . S
N963 H983 0.862 . S
C964 C959 1.501 . S
C964 H965 0.961 . S
C964 H966 0.961 . S
C964 H967 0.960 . S
H965 C964 0.961 . S
H966 C964 0.961 . S
H967 C964 0.960 . S
C968 N969 1.342 . S
C968 C972 1.401 . S
C968 C973 1.499 . S
N969 Co952 1.989 . S
N969 C968 1.342 . S
N969 N970 1.388 . S
N970 Co953 1.993 . S
N970 N969 1.388 . S
N970 C971 1.346 . S
C971 N970 1.346 . S
C971 C972 1.396 . S
C971 C981 1.510 . S
C972 C968 1.401 . S
C972 C971 1.396 . S
C973 C968 1.499 . S
C973 H974 0.959 . S
C973 H975 0.960 . S
C973 H976 0.961 . S
H974 C973 0.959 . S
H975 C973 0.960 . S
H976 C973 0.961 . S
O977 Co952 1.967 . S
O977 C985 1.258 . S
O978 Co953 1.941 . S
O978 C985 1.266 . S
H979 C981 0.959 . S
H980 C981 0.961 . S
C981 C971 1.510 . S
C981 H979 0.959 . S
C981 H980 0.961 . S
C981 H982 0.960 . S
H982 C981 0.960 . S
H983 N963 0.862 . S
O984 Co952 1.920 . S
O984 C957 1.289 . S
C985 O977 1.258 . S
C985 O978 1.266 . S
Co986 O989 1.970 . S
Co986 N1003 1.989 . S
Co986 O1011 1.967 . S
Co986 O1018 1.920 . S
Co987 O990 1.966 . S
Co987 N996 2.022 . S
Co987 N1004 1.993 . S
Co987 O1012 1.941 . S
C988 O989 1.258 . S
C988 O990 1.263 . S
O989 Co986 1.970 . S
O989 C988 1.258 . S
O990 Co987 1.966 . S
O990 C988 1.263 . S
C991 O992 1.235 . S
C991 O1018 1.289 . S
O992 C991 1.235 . S
C993 C995 1.400 . S
C993 N996 1.351 . S
C993 C998 1.501 . S
C994 C995 1.387 . S
C994 N997 1.341 . S
C995 C993 1.400 . S
C995 C994 1.387 . S
N996 Co987 2.022 . S
N996 C993 1.351 . S
N996 N997 1.365 . S
N997 C994 1.341 . S
N997 N996 1.365 . S
N997 H1017 0.862 . S
C998 C993 1.501 . S
C998 H999 0.961 . S
C998 H1000 0.961 . S
C998 H1001 0.960 . S
H999 C998 0.961 . S
H1000 C998 0.961 . S
H1001 C998 0.960 . S
C1002 N1003 1.342 . S
C1002 C1006 1.401 . S
C1002 C1007 1.499 . S
N1003 Co986 1.989 . S
N1003 C1002 1.342 . S
N1003 N1004 1.388 . S
N1004 Co987 1.993 . S
N1004 N1003 1.388 . S
N1004 C1005 1.346 . S
C1005 N1004 1.346 . S
C1005 C1006 1.396 . S
C1005 C1015 1.510 . S
C1006 C1002 1.401 . S
C1006 C1005 1.396 . S
C1007 C1002 1.499 . S
C1007 H1008 0.959 . S
C1007 H1009 0.960 . S
C1007 H1010 0.961 . S
H1008 C1007 0.959 . S
H1009 C1007 0.960 . S
H1010 C1007 0.961 . S
O1011 Co986 1.967 . S
O1011 C1019 1.258 . S
O1012 Co987 1.941 . S
O1012 C1019 1.266 . S
H1013 C1015 0.959 . S
H1014 C1015 0.961 . S
C1015 C1005 1.510 . S
C1015 H1013 0.959 . S
C1015 H1014 0.961 . S
C1015 H1016 0.960 . S
H1016 C1015 0.960 . S
H1017 N997 0.862 . S
O1018 Co986 1.920 . S
O1018 C991 1.289 . S
C1019 O1011 1.258 . S
C1019 O1012 1.266 . S
Co1020 O1023 1.970 . S
Co1020 N1037 1.989 . S
Co1020 O1045 1.967 . S
Co1020 O1052 1.920 . S
Co1021 O1024 1.966 . S
Co1021 N1030 2.022 . S
Co1021 N1038 1.993 . S
Co1021 O1046 1.941 . S
C1022 O1023 1.258 . S
C1022 O1024 1.263 . S
O1023 Co1020 1.970 . S
O1023 C1022 1.258 . S
O1024 Co1021 1.966 . S
O1024 C1022 1.263 . S
C1025 O1026 1.235 . S
C1025 O1052 1.289 . S
O1026 C1025 1.235 . S
C1027 C1029 1.400 . S
C1027 N1030 1.351 . S
C1027 C1032 1.501 . S
C1028 C1029 1.387 . S
C1028 N1031 1.341 . S
C1029 C1027 1.400 . S
C1029 C1028 1.387 . S
N1030 Co1021 2.022 . S
N1030 C1027 1.351 . S
N1030 N1031 1.365 . S
N1031 C1028 1.341 . S
N1031 N1030 1.365 . S
N1031 H1051 0.862 . S
C1032 C1027 1.501 . S
C1032 H1033 0.961 . S
C1032 H1034 0.961 . S
C1032 H1035 0.960 . S
H1033 C1032 0.961 . S
H1034 C1032 0.961 . S
H1035 C1032 0.960 . S
C1036 N1037 1.342 . S
C1036 C1040 1.401 . S
C1036 C1041 1.499 . S
N1037 Co1020 1.989 . S
N1037 C1036 1.342 . S
N1037 N1038 1.388 . S
N1038 Co1021 1.993 . S
N1038 N1037 1.388 . S
N1038 C1039 1.346 . S
C1039 N1038 1.346 . S
C1039 C1040 1.396 . S
C1039 C1049 1.510 . S
C1040 C1036 1.401 . S
C1040 C1039 1.396 . S
C1041 C1036 1.499 . S
C1041 H1042 0.959 . S
C1041 H1043 0.960 . S
C1041 H1044 0.961 . S
H1042 C1041 0.959 . S
H1043 C1041 0.960 . S
H1044 C1041 0.961 . S
O1045 Co1020 1.967 . S
O1045 C1053 1.258 . S
O1046 Co1021 1.941 . S
O1046 C1053 1.266 . S
H1047 C1049 0.959 . S
H1048 C1049 0.961 . S
C1049 C1039 1.510 . S
C1049 H1047 0.959 . S
C1049 H1048 0.961 . S
C1049 H1050 0.960 . S
H1050 C1049 0.960 . S
H1051 N1031 0.862 . S
O1052 Co1020 1.920 . S
O1052 C1025 1.289 . S
C1053 O1045 1.258 . S
C1053 O1046 1.266 . S
Co1054 O1057 1.970 . S
Co1054 N1071 1.989 . S
Co1054 O1079 1.967 . S
Co1054 O1086 1.920 . S
Co1055 O1058 1.966 . S
Co1055 N1064 2.022 . S
Co1055 N1072 1.993 . S
Co1055 O1080 1.941 . S
C1056 O1057 1.258 . S
C1056 O1058 1.263 . S
O1057 Co1054 1.970 . S
O1057 C1056 1.258 . S
O1058 Co1055 1.966 . S
O1058 C1056 1.263 . S
C1059 O1060 1.235 . S
C1059 O1086 1.289 . S
O1060 C1059 1.235 . S
C1061 C1063 1.400 . S
C1061 N1064 1.351 . S
C1061 C1066 1.501 . S
C1062 C1063 1.387 . S
C1062 N1065 1.341 . S
C1063 C1061 1.400 . S
C1063 C1062 1.387 . S
N1064 Co1055 2.022 . S
N1064 C1061 1.351 . S
N1064 N1065 1.365 . S
N1065 C1062 1.341 . S
N1065 N1064 1.365 . S
N1065 H1085 0.862 . S
C1066 C1061 1.501 . S
C1066 H1067 0.961 . S
C1066 H1068 0.961 . S
C1066 H1069 0.960 . S
H1067 C1066 0.961 . S
H1068 C1066 0.961 . S
H1069 C1066 0.960 . S
C1070 N1071 1.342 . S
C1070 C1074 1.401 . S
C1070 C1075 1.499 . S
N1071 Co1054 1.989 . S
N1071 C1070 1.342 . S
N1071 N1072 1.388 . S
N1072 Co1055 1.993 . S
N1072 N1071 1.388 . S
N1072 C1073 1.346 . S
C1073 N1072 1.346 . S
C1073 C1074 1.396 . S
C1073 C1083 1.510 . S
C1074 C1070 1.401 . S
C1074 C1073 1.396 . S
C1075 C1070 1.499 . S
C1075 H1076 0.959 . S
C1075 H1077 0.960 . S
C1075 H1078 0.961 . S
H1076 C1075 0.959 . S
H1077 C1075 0.960 . S
H1078 C1075 0.961 . S
O1079 Co1054 1.967 . S
O1079 C1087 1.258 . S
O1080 Co1055 1.941 . S
O1080 C1087 1.266 . S
H1081 C1083 0.959 . S
H1082 C1083 0.961 . S
C1083 C1073 1.510 . S
C1083 H1081 0.959 . S
C1083 H1082 0.961 . S
C1083 H1084 0.960 . S
H1084 C1083 0.960 . S
H1085 N1065 0.862 . S
O1086 Co1054 1.920 . S
O1086 C1059 1.289 . S
C1087 O1079 1.258 . S
C1087 O1080 1.266 . S
Co1088 O1091 1.970 . S
Co1088 N1105 1.989 . S
Co1088 O1113 1.967 . S
Co1088 O1120 1.920 . S
Co1089 O1092 1.966 . S
Co1089 N1098 2.022 . S
Co1089 N1106 1.993 . S
Co1089 O1114 1.941 . S
C1090 O1091 1.258 . S
C1090 O1092 1.263 . S
O1091 Co1088 1.970 . S
O1091 C1090 1.258 . S
O1092 Co1089 1.966 . S
O1092 C1090 1.263 . S
C1093 O1094 1.235 . S
C1093 O1120 1.289 . S
O1094 C1093 1.235 . S
C1095 C1097 1.400 . S
C1095 N1098 1.351 . S
C1095 C1100 1.501 . S
C1096 C1097 1.387 . S
C1096 N1099 1.341 . S
C1097 C1095 1.400 . S
C1097 C1096 1.387 . S
N1098 Co1089 2.022 . S
N1098 C1095 1.351 . S
N1098 N1099 1.365 . S
N1099 C1096 1.341 . S
N1099 N1098 1.365 . S
N1099 H1119 0.862 . S
C1100 C1095 1.501 . S
C1100 H1101 0.961 . S
C1100 H1102 0.961 . S
C1100 H1103 0.960 . S
H1101 C1100 0.961 . S
H1102 C1100 0.961 . S
H1103 C1100 0.960 . S
C1104 N1105 1.342 . S
C1104 C1108 1.401 . S
C1104 C1109 1.499 . S
N1105 Co1088 1.989 . S
N1105 C1104 1.342 . S
N1105 N1106 1.388 . S
N1106 Co1089 1.993 . S
N1106 N1105 1.388 . S
N1106 C1107 1.346 . S
C1107 N1106 1.346 . S
C1107 C1108 1.396 . S
C1107 C1117 1.510 . S
C1108 C1104 1.401 . S
C1108 C1107 1.396 . S
C1109 C1104 1.499 . S
C1109 H1110 0.959 . S
C1109 H1111 0.960 . S
C1109 H1112 0.961 . S
H1110 C1109 0.959 . S
H1111 C1109 0.960 . S
H1112 C1109 0.961 . S
O1113 Co1088 1.967 . S
O1113 C1121 1.258 . S
O1114 Co1089 1.941 . S
O1114 C1121 1.266 . S
H1115 C1117 0.959 . S
H1116 C1117 0.961 . S
C1117 C1107 1.510 . S
C1117 H1115 0.959 . S
C1117 H1116 0.961 . S
C1117 H1118 0.960 . S
H1118 C1117 0.960 . S
H1119 N1099 0.862 . S
O1120 Co1088 1.920 . S
O1120 C1093 1.289 . S
C1121 O1113 1.258 . S
C1121 O1114 1.266 . S
Co1122 O1125 1.970 . S
Co1122 N1139 1.989 . S
Co1122 O1147 1.967 . S
Co1122 O1154 1.920 . S
Co1123 O1126 1.966 . S
Co1123 N1132 2.022 . S
Co1123 N1140 1.993 . S
Co1123 O1148 1.941 . S
C1124 O1125 1.258 . S
C1124 O1126 1.263 . S
O1125 Co1122 1.970 . S
O1125 C1124 1.258 . S
O1126 Co1123 1.966 . S
O1126 C1124 1.263 . S
C1127 O1128 1.235 . S
C1127 O1154 1.289 . S
O1128 C1127 1.235 . S
C1129 C1131 1.400 . S
C1129 N1132 1.351 . S
C1129 C1134 1.501 . S
C1130 C1131 1.387 . S
C1130 N1133 1.341 . S
C1131 C1129 1.400 . S
C1131 C1130 1.387 . S
N1132 Co1123 2.022 . S
N1132 C1129 1.351 . S
N1132 N1133 1.365 . S
N1133 C1130 1.341 . S
N1133 N1132 1.365 . S
N1133 H1153 0.862 . S
C1134 C1129 1.501 . S
C1134 H1135 0.961 . S
C1134 H1136 0.961 . S
C1134 H1137 0.960 . S
H1135 C1134 0.961 . S
H1136 C1134 0.961 . S
H1137 C1134 0.960 . S
C1138 N1139 1.342 . S
C1138 C1142 1.401 . S
C1138 C1143 1.499 . S
N1139 Co1122 1.989 . S
N1139 C1138 1.342 . S
N1139 N1140 1.388 . S
N1140 Co1123 1.993 . S
N1140 N1139 1.388 . S
N1140 C1141 1.346 . S
C1141 N1140 1.346 . S
C1141 C1142 1.396 . S
C1141 C1151 1.510 . S
C1142 C1138 1.401 . S
C1142 C1141 1.396 . S
C1143 C1138 1.499 . S
C1143 H1144 0.959 . S
C1143 H1145 0.960 . S
C1143 H1146 0.961 . S
H1144 C1143 0.959 . S
H1145 C1143 0.960 . S
H1146 C1143 0.961 . S
O1147 Co1122 1.967 . S
O1147 C1155 1.258 . S
O1148 Co1123 1.941 . S
O1148 C1155 1.266 . S
H1149 C1151 0.959 . S
H1150 C1151 0.961 . S
C1151 C1141 1.510 . S
C1151 H1149 0.959 . S
C1151 H1150 0.961 . S
C1151 H1152 0.960 . S
H1152 C1151 0.960 . S
H1153 N1133 0.862 . S
O1154 Co1122 1.920 . S
O1154 C1127 1.289 . S
C1155 O1147 1.258 . S
C1155 O1148 1.266 . S
Co1156 O1159 1.970 . S
Co1156 N1173 1.989 . S
Co1156 O1181 1.967 . S
Co1156 O1188 1.920 . S
Co1157 O1160 1.966 . S
Co1157 N1166 2.022 . S
Co1157 N1174 1.993 . S
Co1157 O1182 1.941 . S
C1158 O1159 1.258 . S
C1158 O1160 1.263 . S
O1159 Co1156 1.970 . S
O1159 C1158 1.258 . S
O1160 Co1157 1.966 . S
O1160 C1158 1.263 . S
C1161 O1162 1.235 . S
C1161 O1188 1.289 . S
O1162 C1161 1.235 . S
C1163 C1165 1.400 . S
C1163 N1166 1.351 . S
C1163 C1168 1.501 . S
C1164 C1165 1.387 . S
C1164 N1167 1.341 . S
C1165 C1163 1.400 . S
C1165 C1164 1.387 . S
N1166 Co1157 2.022 . S
N1166 C1163 1.351 . S
N1166 N1167 1.365 . S
N1167 C1164 1.341 . S
N1167 N1166 1.365 . S
N1167 H1187 0.862 . S
C1168 C1163 1.501 . S
C1168 H1169 0.961 . S
C1168 H1170 0.961 . S
C1168 H1171 0.960 . S
H1169 C1168 0.961 . S
H1170 C1168 0.961 . S
H1171 C1168 0.960 . S
C1172 N1173 1.342 . S
C1172 C1176 1.401 . S
C1172 C1177 1.499 . S
N1173 Co1156 1.989 . S
N1173 C1172 1.342 . S
N1173 N1174 1.388 . S
N1174 Co1157 1.993 . S
N1174 N1173 1.388 . S
N1174 C1175 1.346 . S
C1175 N1174 1.346 . S
C1175 C1176 1.396 . S
C1175 C1185 1.510 . S
C1176 C1172 1.401 . S
C1176 C1175 1.396 . S
C1177 C1172 1.499 . S
C1177 H1178 0.959 . S
C1177 H1179 0.960 . S
C1177 H1180 0.961 . S
H1178 C1177 0.959 . S
H1179 C1177 0.960 . S
H1180 C1177 0.961 . S
O1181 Co1156 1.967 . S
O1181 C1189 1.258 . S
O1182 Co1157 1.941 . S
O1182 C1189 1.266 . S
H1183 C1185 0.959 . S
H1184 C1185 0.961 . S
C1185 C1175 1.510 . S
C1185 H1183 0.959 . S
C1185 H1184 0.961 . S
C1185 H1186 0.960 . S
H1186 C1185 0.960 . S
H1187 N1167 0.862 . S
O1188 Co1156 1.920 . S
O1188 C1161 1.289 . S
C1189 O1181 1.258 . S
C1189 O1182 1.266 . S
Co1190 O1193 1.970 . S
Co1190 N1207 1.989 . S
Co1190 O1215 1.967 . S
Co1190 O1222 1.920 . S
Co1191 O1194 1.966 . S
Co1191 N1200 2.022 . S
Co1191 N1208 1.993 . S
Co1191 O1216 1.941 . S
C1192 O1193 1.258 . S
C1192 O1194 1.263 . S
O1193 Co1190 1.970 . S
O1193 C1192 1.258 . S
O1194 Co1191 1.966 . S
O1194 C1192 1.263 . S
C1195 O1196 1.235 . S
C1195 O1222 1.289 . S
O1196 C1195 1.235 . S
C1197 C1199 1.400 . S
C1197 N1200 1.351 . S
C1197 C1202 1.501 . S
C1198 C1199 1.387 . S
C1198 N1201 1.341 . S
C1199 C1197 1.400 . S
C1199 C1198 1.387 . S
N1200 Co1191 2.022 . S
N1200 C1197 1.351 . S
N1200 N1201 1.365 . S
N1201 C1198 1.341 . S
N1201 N1200 1.365 . S
N1201 H1221 0.862 . S
C1202 C1197 1.501 . S
C1202 H1203 0.961 . S
C1202 H1204 0.961 . S
C1202 H1205 0.960 . S
H1203 C1202 0.961 . S
H1204 C1202 0.961 . S
H1205 C1202 0.960 . S
C1206 N1207 1.342 . S
C1206 C1210 1.401 . S
C1206 C1211 1.499 . S
N1207 Co1190 1.989 . S
N1207 C1206 1.342 . S
N1207 N1208 1.388 . S
N1208 Co1191 1.993 . S
N1208 N1207 1.388 . S
N1208 C1209 1.346 . S
C1209 N1208 1.346 . S
C1209 C1210 1.396 . S
C1209 C1219 1.510 . S
C1210 C1206 1.401 . S
C1210 C1209 1.396 . S
C1211 C1206 1.499 . S
C1211 H1212 0.959 . S
C1211 H1213 0.960 . S
C1211 H1214 0.961 . S
H1212 C1211 0.959 . S
H1213 C1211 0.960 . S
H1214 C1211 0.961 . S
O1215 Co1190 1.967 . S
O1215 C1223 1.258 . S
O1216 Co1191 1.941 . S
O1216 C1223 1.266 . S
H1217 C1219 0.959 . S
H1218 C1219 0.961 . S
C1219 C1209 1.510 . S
C1219 H1217 0.959 . S
C1219 H1218 0.961 . S
C1219 H1220 0.960 . S
H1220 C1219 0.960 . S
H1221 N1201 0.862 . S
O1222 Co1190 1.920 . S
O1222 C1195 1.289 . S
C1223 O1215 1.258 . S
C1223 O1216 1.266 . S
Co1224 O1227 1.970 . S
Co1224 N1241 1.989 . S
Co1224 O1249 1.967 . S
Co1224 O1256 1.920 . S
Co1225 O1228 1.966 . S
Co1225 N1234 2.022 . S
Co1225 N1242 1.993 . S
Co1225 O1250 1.941 . S
C1226 O1227 1.258 . S
C1226 O1228 1.263 . S
O1227 Co1224 1.970 . S
O1227 C1226 1.258 . S
O1228 Co1225 1.966 . S
O1228 C1226 1.263 . S
C1229 O1230 1.235 . S
C1229 O1256 1.289 . S
O1230 C1229 1.235 . S
C1231 C1233 1.400 . S
C1231 N1234 1.351 . S
C1231 C1236 1.501 . S
C1232 C1233 1.387 . S
C1232 N1235 1.341 . S
C1233 C1231 1.400 . S
C1233 C1232 1.387 . S
N1234 Co1225 2.022 . S
N1234 C1231 1.351 . S
N1234 N1235 1.365 . S
N1235 C1232 1.341 . S
N1235 N1234 1.365 . S
N1235 H1255 0.862 . S
C1236 C1231 1.501 . S
C1236 H1237 0.961 . S
C1236 H1238 0.961 . S
C1236 H1239 0.960 . S
H1237 C1236 0.961 . S
H1238 C1236 0.961 . S
H1239 C1236 0.960 . S
C1240 N1241 1.342 . S
C1240 C1244 1.401 . S
C1240 C1245 1.499 . S
N1241 Co1224 1.989 . S
N1241 C1240 1.342 . S
N1241 N1242 1.388 . S
N1242 Co1225 1.993 . S
N1242 N1241 1.388 . S
N1242 C1243 1.346 . S
C1243 N1242 1.346 . S
C1243 C1244 1.396 . S
C1243 C1253 1.510 . S
C1244 C1240 1.401 . S
C1244 C1243 1.396 . S
C1245 C1240 1.499 . S
C1245 H1246 0.959 . S
C1245 H1247 0.960 . S
C1245 H1248 0.961 . S
H1246 C1245 0.959 . S
H1247 C1245 0.960 . S
H1248 C1245 0.961 . S
O1249 Co1224 1.967 . S
O1249 C1257 1.258 . S
O1250 Co1225 1.941 . S
O1250 C1257 1.266 . S
H1251 C1253 0.959 . S
H1252 C1253 0.961 . S
C1253 C1243 1.510 . S
C1253 H1251 0.959 . S
C1253 H1252 0.961 . S
C1253 H1254 0.960 . S
H1254 C1253 0.960 . S
H1255 N1235 0.862 . S
O1256 Co1224 1.920 . S
O1256 C1229 1.289 . S
C1257 O1249 1.258 . S
C1257 O1250 1.266 . S
Co1258 O1261 1.970 . S
Co1258 N1275 1.989 . S
Co1258 O1283 1.967 . S
Co1258 O1290 1.920 . S
Co1259 O1262 1.966 . S
Co1259 N1268 2.022 . S
Co1259 N1276 1.993 . S
Co1259 O1284 1.941 . S
C1260 O1261 1.258 . S
C1260 O1262 1.263 . S
O1261 Co1258 1.970 . S
O1261 C1260 1.258 . S
O1262 Co1259 1.966 . S
O1262 C1260 1.263 . S
C1263 O1264 1.235 . S
C1263 O1290 1.289 . S
O1264 C1263 1.235 . S
C1265 C1267 1.400 . S
C1265 N1268 1.351 . S
C1265 C1270 1.501 . S
C1266 C1267 1.387 . S
C1266 N1269 1.341 . S
C1267 C1265 1.400 . S
C1267 C1266 1.387 . S
N1268 Co1259 2.022 . S
N1268 C1265 1.351 . S
N1268 N1269 1.365 . S
N1269 C1266 1.341 . S
N1269 N1268 1.365 . S
N1269 H1289 0.862 . S
C1270 C1265 1.501 . S
C1270 H1271 0.961 . S
C1270 H1272 0.961 . S
C1270 H1273 0.960 . S
H1271 C1270 0.961 . S
H1272 C1270 0.961 . S
H1273 C1270 0.960 . S
C1274 N1275 1.342 . S
C1274 C1278 1.401 . S
C1274 C1279 1.499 . S
N1275 Co1258 1.989 . S
N1275 C1274 1.342 . S
N1275 N1276 1.388 . S
N1276 Co1259 1.993 . S
N1276 N1275 1.388 . S
N1276 C1277 1.346 . S
C1277 N1276 1.346 . S
C1277 C1278 1.396 . S
C1277 C1287 1.510 . S
C1278 C1274 1.401 . S
C1278 C1277 1.396 . S
C1279 C1274 1.499 . S
C1279 H1280 0.959 . S
C1279 H1281 0.960 . S
C1279 H1282 0.961 . S
H1280 C1279 0.959 . S
H1281 C1279 0.960 . S
H1282 C1279 0.961 . S
O1283 Co1258 1.967 . S
O1283 C1291 1.258 . S
O1284 Co1259 1.941 . S
O1284 C1291 1.266 . S
H1285 C1287 0.959 . S
H1286 C1287 0.961 . S
C1287 C1277 1.510 . S
C1287 H1285 0.959 . S
C1287 H1286 0.961 . S
C1287 H1288 0.960 . S
H1288 C1287 0.960 . S
H1289 N1269 0.862 . S
O1290 Co1258 1.920 . S
O1290 C1263 1.289 . S
C1291 O1283 1.258 . S
C1291 O1284 1.266 . S
Co1292 O1295 1.970 . S
Co1292 N1309 1.989 . S
Co1292 O1317 1.967 . S
Co1292 O1324 1.920 . S
Co1293 O1296 1.966 . S
Co1293 N1302 2.022 . S
Co1293 N1310 1.993 . S
Co1293 O1318 1.941 . S
C1294 O1295 1.258 . S
C1294 O1296 1.263 . S
O1295 Co1292 1.970 . S
O1295 C1294 1.258 . S
O1296 Co1293 1.966 . S
O1296 C1294 1.263 . S
C1297 O1298 1.235 . S
C1297 O1324 1.289 . S
O1298 C1297 1.235 . S
C1299 C1301 1.400 . S
C1299 N1302 1.351 . S
C1299 C1304 1.501 . S
C1300 C1301 1.387 . S
C1300 N1303 1.341 . S
C1301 C1299 1.400 . S
C1301 C1300 1.387 . S
N1302 Co1293 2.022 . S
N1302 C1299 1.351 . S
N1302 N1303 1.365 . S
N1303 C1300 1.341 . S
N1303 N1302 1.365 . S
N1303 H1323 0.862 . S
C1304 C1299 1.501 . S
C1304 H1305 0.961 . S
C1304 H1306 0.961 . S
C1304 H1307 0.960 . S
H1305 C1304 0.961 . S
H1306 C1304 0.961 . S
H1307 C1304 0.960 . S
C1308 N1309 1.342 . S
C1308 C1312 1.401 . S
C1308 C1313 1.499 . S
N1309 Co1292 1.989 . S
N1309 C1308 1.342 . S
N1309 N1310 1.388 . S
N1310 Co1293 1.993 . S
N1310 N1309 1.388 . S
N1310 C1311 1.346 . S
C1311 N1310 1.346 . S
C1311 C1312 1.396 . S
C1311 C1321 1.510 . S
C1312 C1308 1.401 . S
C1312 C1311 1.396 . S
C1313 C1308 1.499 . S
C1313 H1314 0.959 . S
C1313 H1315 0.960 . S
C1313 H1316 0.961 . S
H1314 C1313 0.959 . S
H1315 C1313 0.960 . S
H1316 C1313 0.961 . S
O1317 Co1292 1.967 . S
O1317 C1325 1.258 . S
O1318 Co1293 1.941 . S
O1318 C1325 1.266 . S
H1319 C1321 0.959 . S
H1320 C1321 0.961 . S
C1321 C1311 1.510 . S
C1321 H1319 0.959 . S
C1321 H1320 0.961 . S
C1321 H1322 0.960 . S
H1322 C1321 0.960 . S
H1323 N1303 0.862 . S
O1324 Co1292 1.920 . S
O1324 C1297 1.289 . S
C1325 O1317 1.258 . S
C1325 O1318 1.266 . S
Co1326 O1329 1.970 . S
Co1326 N1343 1.989 . S
Co1326 O1351 1.967 . S
Co1326 O1358 1.920 . S
Co1327 O1330 1.966 . S
Co1327 N1336 2.022 . S
Co1327 N1344 1.993 . S
Co1327 O1352 1.941 . S
C1328 O1329 1.258 . S
C1328 O1330 1.263 . S
O1329 Co1326 1.970 . S
O1329 C1328 1.258 . S
O1330 Co1327 1.966 . S
O1330 C1328 1.263 . S
C1331 O1332 1.235 . S
C1331 O1358 1.289 . S
O1332 C1331 1.235 . S
C1333 C1335 1.400 . S
C1333 N1336 1.351 . S
C1333 C1338 1.501 . S
C1334 C1335 1.387 . S
C1334 N1337 1.341 . S
C1335 C1333 1.400 . S
C1335 C1334 1.387 . S
N1336 Co1327 2.022 . S
N1336 C1333 1.351 . S
N1336 N1337 1.365 . S
N1337 C1334 1.341 . S
N1337 N1336 1.365 . S
N1337 H1357 0.862 . S
C1338 C1333 1.501 . S
C1338 H1339 0.961 . S
C1338 H1340 0.961 . S
C1338 H1341 0.960 . S
H1339 C1338 0.961 . S
H1340 C1338 0.961 . S
H1341 C1338 0.960 . S
C1342 N1343 1.342 . S
C1342 C1346 1.401 . S
C1342 C1347 1.499 . S
N1343 Co1326 1.989 . S
N1343 C1342 1.342 . S
N1343 N1344 1.388 . S
N1344 Co1327 1.993 . S
N1344 N1343 1.388 . S
N1344 C1345 1.346 . S
C1345 N1344 1.346 . S
C1345 C1346 1.396 . S
C1345 C1355 1.510 . S
C1346 C1342 1.401 . S
C1346 C1345 1.396 . S
C1347 C1342 1.499 . S
C1347 H1348 0.959 . S
C1347 H1349 0.960 . S
C1347 H1350 0.961 . S
H1348 C1347 0.959 . S
H1349 C1347 0.960 . S
H1350 C1347 0.961 . S
O1351 Co1326 1.967 . S
O1351 C1359 1.258 . S
O1352 Co1327 1.941 . S
O1352 C1359 1.266 . S
H1353 C1355 0.959 . S
H1354 C1355 0.961 . S
C1355 C1345 1.510 . S
C1355 H1353 0.959 . S
C1355 H1354 0.961 . S
C1355 H1356 0.960 . S
H1356 C1355 0.960 . S
H1357 N1337 0.862 . S
O1358 Co1326 1.920 . S
O1358 C1331 1.289 . S
C1359 O1351 1.258 . S
C1359 O1352 1.266 . S
Co1360 O1363 1.970 . S
Co1360 N1377 1.989 . S
Co1360 O1385 1.967 . S
Co1360 O1392 1.920 . S
Co1361 O1364 1.966 . S
Co1361 N1370 2.022 . S
Co1361 N1378 1.993 . S
Co1361 O1386 1.941 . S
C1362 O1363 1.258 . S
C1362 O1364 1.263 . S
O1363 Co1360 1.970 . S
O1363 C1362 1.258 . S
O1364 Co1361 1.966 . S
O1364 C1362 1.263 . S
C1365 O1366 1.235 . S
C1365 O1392 1.289 . S
O1366 C1365 1.235 . S
C1367 C1369 1.400 . S
C1367 N1370 1.351 . S
C1367 C1372 1.501 . S
C1368 C1369 1.387 . S
C1368 N1371 1.341 . S
C1369 C1367 1.400 . S
C1369 C1368 1.387 . S
N1370 Co1361 2.022 . S
N1370 C1367 1.351 . S
N1370 N1371 1.365 . S
N1371 C1368 1.341 . S
N1371 N1370 1.365 . S
N1371 H1391 0.862 . S
C1372 C1367 1.501 . S
C1372 H1373 0.961 . S
C1372 H1374 0.961 . S
C1372 H1375 0.960 . S
H1373 C1372 0.961 . S
H1374 C1372 0.961 . S
H1375 C1372 0.960 . S
C1376 N1377 1.342 . S
C1376 C1380 1.401 . S
C1376 C1381 1.499 . S
N1377 Co1360 1.989 . S
N1377 C1376 1.342 . S
N1377 N1378 1.388 . S
N1378 Co1361 1.993 . S
N1378 N1377 1.388 . S
N1378 C1379 1.346 . S
C1379 N1378 1.346 . S
C1379 C1380 1.396 . S
C1379 C1389 1.510 . S
C1380 C1376 1.401 . S
C1380 C1379 1.396 . S
C1381 C1376 1.499 . S
C1381 H1382 0.959 . S
C1381 H1383 0.960 . S
C1381 H1384 0.961 . S
H1382 C1381 0.959 . S
H1383 C1381 0.960 . S
H1384 C1381 0.961 . S
O1385 Co1360 1.967 . S
O1385 C1393 1.258 . S
O1386 Co1361 1.941 . S
O1386 C1393 1.266 . S
H1387 C1389 0.959 . S
H1388 C1389 0.961 . S
C1389 C1379 1.510 . S
C1389 H1387 0.959 . S
C1389 H1388 0.961 . S
C1389 H1390 0.960 . S
H1390 C1389 0.960 . S
H1391 N1371 0.862 . S
O1392 Co1360 1.920 . S
O1392 C1365 1.289 . S
C1393 O1385 1.258 . S
C1393 O1386 1.266 . S
Co1394 O1397 1.970 . S
Co1394 N1411 1.989 . S
Co1394 O1419 1.967 . S
Co1394 O1426 1.920 . S
Co1395 O1398 1.966 . S
Co1395 N1404 2.022 . S
Co1395 N1412 1.993 . S
Co1395 O1420 1.941 . S
C1396 O1397 1.258 . S
C1396 O1398 1.263 . S
O1397 Co1394 1.970 . S
O1397 C1396 1.258 . S
O1398 Co1395 1.966 . S
O1398 C1396 1.263 . S
C1399 O1400 1.235 . S
C1399 O1426 1.289 . S
O1400 C1399 1.235 . S
C1401 C1403 1.400 . S
C1401 N1404 1.351 . S
C1401 C1406 1.501 . S
C1402 C1403 1.387 . S
C1402 N1405 1.341 . S
C1403 C1401 1.400 . S
C1403 C1402 1.387 . S
N1404 Co1395 2.022 . S
N1404 C1401 1.351 . S
N1404 N1405 1.365 . S
N1405 C1402 1.341 . S
N1405 N1404 1.365 . S
N1405 H1425 0.862 . S
C1406 C1401 1.501 . S
C1406 H1407 0.961 . S
C1406 H1408 0.961 . S
C1406 H1409 0.960 . S
H1407 C1406 0.961 . S
H1408 C1406 0.961 . S
H1409 C1406 0.960 . S
C1410 N1411 1.342 . S
C1410 C1414 1.401 . S
C1410 C1415 1.499 . S
N1411 Co1394 1.989 . S
N1411 C1410 1.342 . S
N1411 N1412 1.388 . S
N1412 Co1395 1.993 . S
N1412 N1411 1.388 . S
N1412 C1413 1.346 . S
C1413 N1412 1.346 . S
C1413 C1414 1.396 . S
C1413 C1423 1.510 . S
C1414 C1410 1.401 . S
C1414 C1413 1.396 . S
C1415 C1410 1.499 . S
C1415 H1416 0.959 . S
C1415 H1417 0.960 . S
C1415 H1418 0.961 . S
H1416 C1415 0.959 . S
H1417 C1415 0.960 . S
H1418 C1415 0.961 . S
O1419 Co1394 1.967 . S
O1419 C1427 1.258 . S
O1420 Co1395 1.941 . S
O1420 C1427 1.266 . S
H1421 C1423 0.959 . S
H1422 C1423 0.961 . S
C1423 C1413 1.510 . S
C1423 H1421 0.959 . S
C1423 H1422 0.961 . S
C1423 H1424 0.960 . S
H1424 C1423 0.960 . S
H1425 N1405 0.862 . S
O1426 Co1394 1.920 . S
O1426 C1399 1.289 . S
C1427 O1419 1.258 . S
C1427 O1420 1.266 . S
Co1428 O1431 1.970 . S
Co1428 N1445 1.989 . S
Co1428 O1453 1.967 . S
Co1428 O1460 1.920 . S
Co1429 O1432 1.966 . S
Co1429 N1438 2.022 . S
Co1429 N1446 1.993 . S
Co1429 O1454 1.941 . S
C1430 O1431 1.258 . S
C1430 O1432 1.263 . S
O1431 Co1428 1.970 . S
O1431 C1430 1.258 . S
O1432 Co1429 1.966 . S
O1432 C1430 1.263 . S
C1433 O1434 1.235 . S
C1433 O1460 1.289 . S
O1434 C1433 1.235 . S
C1435 C1437 1.400 . S
C1435 N1438 1.351 . S
C1435 C1440 1.501 . S
C1436 C1437 1.387 . S
C1436 N1439 1.341 . S
C1437 C1435 1.400 . S
C1437 C1436 1.387 . S
N1438 Co1429 2.022 . S
N1438 C1435 1.351 . S
N1438 N1439 1.365 . S
N1439 C1436 1.341 . S
N1439 N1438 1.365 . S
N1439 H1459 0.862 . S
C1440 C1435 1.501 . S
C1440 H1441 0.961 . S
C1440 H1442 0.961 . S
C1440 H1443 0.960 . S
H1441 C1440 0.961 . S
H1442 C1440 0.961 . S
H1443 C1440 0.960 . S
C1444 N1445 1.342 . S
C1444 C1448 1.401 . S
C1444 C1449 1.499 . S
N1445 Co1428 1.989 . S
N1445 C1444 1.342 . S
N1445 N1446 1.388 . S
N1446 Co1429 1.993 . S
N1446 N1445 1.388 . S
N1446 C1447 1.346 . S
C1447 N1446 1.346 . S
C1447 C1448 1.396 . S
C1447 C1457 1.510 . S
C1448 C1444 1.401 . S
C1448 C1447 1.396 . S
C1449 C1444 1.499 . S
C1449 H1450 0.959 . S
C1449 H1451 0.960 . S
C1449 H1452 0.961 . S
H1450 C1449 0.959 . S
H1451 C1449 0.960 . S
H1452 C1449 0.961 . S
O1453 Co1428 1.967 . S
O1453 C1461 1.258 . S
O1454 Co1429 1.941 . S
O1454 C1461 1.266 . S
H1455 C1457 0.959 . S
H1456 C1457 0.961 . S
C1457 C1447 1.510 . S
C1457 H1455 0.959 . S
C1457 H1456 0.961 . S
C1457 H1458 0.960 . S
H1458 C1457 0.960 . S
H1459 N1439 0.862 . S
O1460 Co1428 1.920 . S
O1460 C1433 1.289 . S
C1461 O1453 1.258 . S
C1461 O1454 1.266 . S
Co1462 O1465 1.970 . S
Co1462 N1479 1.989 . S
Co1462 O1487 1.967 . S
Co1462 O1494 1.920 . S
Co1463 O1466 1.966 . S
Co1463 N1472 2.022 . S
Co1463 N1480 1.993 . S
Co1463 O1488 1.941 . S
C1464 O1465 1.258 . S
C1464 O1466 1.263 . S
O1465 Co1462 1.970 . S
O1465 C1464 1.258 . S
O1466 Co1463 1.966 . S
O1466 C1464 1.263 . S
C1467 O1468 1.235 . S
C1467 O1494 1.289 . S
O1468 C1467 1.235 . S
C1469 C1471 1.400 . S
C1469 N1472 1.351 . S
C1469 C1474 1.501 . S
C1470 C1471 1.387 . S
C1470 N1473 1.341 . S
C1471 C1469 1.400 . S
C1471 C1470 1.387 . S
N1472 Co1463 2.022 . S
N1472 C1469 1.351 . S
N1472 N1473 1.365 . S
N1473 C1470 1.341 . S
N1473 N1472 1.365 . S
N1473 H1493 0.862 . S
C1474 C1469 1.501 . S
C1474 H1475 0.961 . S
C1474 H1476 0.961 . S
C1474 H1477 0.960 . S
H1475 C1474 0.961 . S
H1476 C1474 0.961 . S
H1477 C1474 0.960 . S
C1478 N1479 1.342 . S
C1478 C1482 1.401 . S
C1478 C1483 1.499 . S
N1479 Co1462 1.989 . S
N1479 C1478 1.342 . S
N1479 N1480 1.388 . S
N1480 Co1463 1.993 . S
N1480 N1479 1.388 . S
N1480 C1481 1.346 . S
C1481 N1480 1.346 . S
C1481 C1482 1.396 . S
C1481 C1491 1.510 . S
C1482 C1478 1.401 . S
C1482 C1481 1.396 . S
C1483 C1478 1.499 . S
C1483 H1484 0.959 . S
C1483 H1485 0.960 . S
C1483 H1486 0.961 . S
H1484 C1483 0.959 . S
H1485 C1483 0.960 . S
H1486 C1483 0.961 . S
O1487 Co1462 1.967 . S
O1487 C1495 1.258 . S
O1488 Co1463 1.941 . S
O1488 C1495 1.266 . S
H1489 C1491 0.959 . S
H1490 C1491 0.961 . S
C1491 C1481 1.510 . S
C1491 H1489 0.959 . S
C1491 H1490 0.961 . S
C1491 H1492 0.960 . S
H1492 C1491 0.960 . S
H1493 N1473 0.862 . S
O1494 Co1462 1.920 . S
O1494 C1467 1.289 . S
C1495 O1487 1.258 . S
C1495 O1488 1.266 . S
Co1496 O1499 1.970 . S
Co1496 N1513 1.989 . S
Co1496 O1521 1.967 . S
Co1496 O1528 1.920 . S
Co1497 O1500 1.966 . S
Co1497 N1506 2.022 . S
Co1497 N1514 1.993 . S
Co1497 O1522 1.941 . S
C1498 O1499 1.258 . S
C1498 O1500 1.263 . S
O1499 Co1496 1.970 . S
O1499 C1498 1.258 . S
O1500 Co1497 1.966 . S
O1500 C1498 1.263 . S
C1501 O1502 1.235 . S
C1501 O1528 1.289 . S
O1502 C1501 1.235 . S
C1503 C1505 1.400 . S
C1503 N1506 1.351 . S
C1503 C1508 1.501 . S
C1504 C1505 1.387 . S
C1504 N1507 1.341 . S
C1505 C1503 1.400 . S
C1505 C1504 1.387 . S
N1506 Co1497 2.022 . S
N1506 C1503 1.351 . S
N1506 N1507 1.365 . S
N1507 C1504 1.341 . S
N1507 N1506 1.365 . S
N1507 H1527 0.862 . S
C1508 C1503 1.501 . S
C1508 H1509 0.961 . S
C1508 H1510 0.961 . S
C1508 H1511 0.960 . S
H1509 C1508 0.961 . S
H1510 C1508 0.961 . S
H1511 C1508 0.960 . S
C1512 N1513 1.342 . S
C1512 C1516 1.401 . S
C1512 C1517 1.499 . S
N1513 Co1496 1.989 . S
N1513 C1512 1.342 . S
N1513 N1514 1.388 . S
N1514 Co1497 1.993 . S
N1514 N1513 1.388 . S
N1514 C1515 1.346 . S
C1515 N1514 1.346 . S
C1515 C1516 1.396 . S
C1515 C1525 1.510 . S
C1516 C1512 1.401 . S
C1516 C1515 1.396 . S
C1517 C1512 1.499 . S
C1517 H1518 0.959 . S
C1517 H1519 0.960 . S
C1517 H1520 0.961 . S
H1518 C1517 0.959 . S
H1519 C1517 0.960 . S
H1520 C1517 0.961 . S
O1521 Co1496 1.967 . S
O1521 C1529 1.258 . S
O1522 Co1497 1.941 . S
O1522 C1529 1.266 . S
H1523 C1525 0.959 . S
H1524 C1525 0.961 . S
C1525 C1515 1.510 . S
C1525 H1523 0.959 . S
C1525 H1524 0.961 . S
C1525 H1526 0.960 . S
H1526 C1525 0.960 . S
H1527 N1507 0.862 . S
O1528 Co1496 1.920 . S
O1528 C1501 1.289 . S
C1529 O1521 1.258 . S
C1529 O1522 1.266 . S
Co1530 O1533 1.970 . S
Co1530 N1547 1.989 . S
Co1530 O1555 1.967 . S
Co1530 O1562 1.920 . S
Co1531 O1534 1.966 . S
Co1531 N1540 2.022 . S
Co1531 N1548 1.993 . S
Co1531 O1556 1.941 . S
C1532 O1533 1.258 . S
C1532 O1534 1.263 . S
O1533 Co1530 1.970 . S
O1533 C1532 1.258 . S
O1534 Co1531 1.966 . S
O1534 C1532 1.263 . S
C1535 O1536 1.235 . S
C1535 O1562 1.289 . S
O1536 C1535 1.235 . S
C1537 C1539 1.400 . S
C1537 N1540 1.351 . S
C1537 C1542 1.501 . S
C1538 C1539 1.387 . S
C1538 N1541 1.341 . S
C1539 C1537 1.400 . S
C1539 C1538 1.387 . S
N1540 Co1531 2.022 . S
N1540 C1537 1.351 . S
N1540 N1541 1.365 . S
N1541 C1538 1.341 . S
N1541 N1540 1.365 . S
N1541 H1561 0.862 . S
C1542 C1537 1.501 . S
C1542 H1543 0.961 . S
C1542 H1544 0.961 . S
C1542 H1545 0.960 . S
H1543 C1542 0.961 . S
H1544 C1542 0.961 . S
H1545 C1542 0.960 . S
C1546 N1547 1.342 . S
C1546 C1550 1.401 . S
C1546 C1551 1.499 . S
N1547 Co1530 1.989 . S
N1547 C1546 1.342 . S
N1547 N1548 1.388 . S
N1548 Co1531 1.993 . S
N1548 N1547 1.388 . S
N1548 C1549 1.346 . S
C1549 N1548 1.346 . S
C1549 C1550 1.396 . S
C1549 C1559 1.510 . S
C1550 C1546 1.401 . S
C1550 C1549 1.396 . S
C1551 C1546 1.499 . S
C1551 H1552 0.959 . S
C1551 H1553 0.960 . S
C1551 H1554 0.961 . S
H1552 C1551 0.959 . S
H1553 C1551 0.960 . S
H1554 C1551 0.961 . S
O1555 Co1530 1.967 . S
O1555 C1563 1.258 . S
O1556 Co1531 1.941 . S
O1556 C1563 1.266 . S
H1557 C1559 0.959 . S
H1558 C1559 0.961 . S
C1559 C1549 1.510 . S
C1559 H1557 0.959 . S
C1559 H1558 0.961 . S
C1559 H1560 0.960 . S
H1560 C1559 0.960 . S
H1561 N1541 0.862 . S
O1562 Co1530 1.920 . S
O1562 C1535 1.289 . S
C1563 O1555 1.258 . S
C1563 O1556 1.266 . S
Co1564 O1567 1.970 . S
Co1564 N1581 1.989 . S
Co1564 O1589 1.967 . S
Co1564 O1596 1.920 . S
Co1565 O1568 1.966 . S
Co1565 N1574 2.022 . S
Co1565 N1582 1.993 . S
Co1565 O1590 1.941 . S
C1566 O1567 1.258 . S
C1566 O1568 1.263 . S
O1567 Co1564 1.970 . S
O1567 C1566 1.258 . S
O1568 Co1565 1.966 . S
O1568 C1566 1.263 . S
C1569 O1570 1.235 . S
C1569 O1596 1.289 . S
O1570 C1569 1.235 . S
C1571 C1573 1.400 . S
C1571 N1574 1.351 . S
C1571 C1576 1.501 . S
C1572 C1573 1.387 . S
C1572 N1575 1.341 . S
C1573 C1571 1.400 . S
C1573 C1572 1.387 . S
N1574 Co1565 2.022 . S
N1574 C1571 1.351 . S
N1574 N1575 1.365 . S
N1575 C1572 1.341 . S
N1575 N1574 1.365 . S
N1575 H1595 0.862 . S
C1576 C1571 1.501 . S
C1576 H1577 0.961 . S
C1576 H1578 0.961 . S
C1576 H1579 0.960 . S
H1577 C1576 0.961 . S
H1578 C1576 0.961 . S
H1579 C1576 0.960 . S
C1580 N1581 1.342 . S
C1580 C1584 1.401 . S
C1580 C1585 1.499 . S
N1581 Co1564 1.989 . S
N1581 C1580 1.342 . S
N1581 N1582 1.388 . S
N1582 Co1565 1.993 . S
N1582 N1581 1.388 . S
N1582 C1583 1.346 . S
C1583 N1582 1.346 . S
C1583 C1584 1.396 . S
C1583 C1593 1.510 . S
C1584 C1580 1.401 . S
C1584 C1583 1.396 . S
C1585 C1580 1.499 . S
C1585 H1586 0.959 . S
C1585 H1587 0.960 . S
C1585 H1588 0.961 . S
H1586 C1585 0.959 . S
H1587 C1585 0.960 . S
H1588 C1585 0.961 . S
O1589 Co1564 1.967 . S
O1589 C1597 1.258 . S
O1590 Co1565 1.941 . S
O1590 C1597 1.266 . S
H1591 C1593 0.959 . S
H1592 C1593 0.961 . S
C1593 C1583 1.510 . S
C1593 H1591 0.959 . S
C1593 H1592 0.961 . S
C1593 H1594 0.960 . S
H1594 C1593 0.960 . S
H1595 N1575 0.862 . S
O1596 Co1564 1.920 . S
O1596 C1569 1.289 . S
C1597 O1589 1.258 . S
C1597 O1590 1.266 . S
Co1598 O1601 1.970 . S
Co1598 N1615 1.989 . S
Co1598 O1623 1.967 . S
Co1598 O1630 1.920 . S
Co1599 O1602 1.966 . S
Co1599 N1608 2.022 . S
Co1599 N1616 1.993 . S
Co1599 O1624 1.941 . S
C1600 O1601 1.258 . S
C1600 O1602 1.263 . S
O1601 Co1598 1.970 . S
O1601 C1600 1.258 . S
O1602 Co1599 1.966 . S
O1602 C1600 1.263 . S
C1603 O1604 1.235 . S
C1603 O1630 1.289 . S
O1604 C1603 1.235 . S
C1605 C1607 1.400 . S
C1605 N1608 1.351 . S
C1605 C1610 1.501 . S
C1606 C1607 1.387 . S
C1606 N1609 1.341 . S
C1607 C1605 1.400 . S
C1607 C1606 1.387 . S
N1608 Co1599 2.022 . S
N1608 C1605 1.351 . S
N1608 N1609 1.365 . S
N1609 C1606 1.341 . S
N1609 N1608 1.365 . S
N1609 H1629 0.862 . S
C1610 C1605 1.501 . S
C1610 H1611 0.961 . S
C1610 H1612 0.961 . S
C1610 H1613 0.960 . S
H1611 C1610 0.961 . S
H1612 C1610 0.961 . S
H1613 C1610 0.960 . S
C1614 N1615 1.342 . S
C1614 C1618 1.401 . S
C1614 C1619 1.499 . S
N1615 Co1598 1.989 . S
N1615 C1614 1.342 . S
N1615 N1616 1.388 . S
N1616 Co1599 1.993 . S
N1616 N1615 1.388 . S
N1616 C1617 1.346 . S
C1617 N1616 1.346 . S
C1617 C1618 1.396 . S
C1617 C1627 1.510 . S
C1618 C1614 1.401 . S
C1618 C1617 1.396 . S
C1619 C1614 1.499 . S
C1619 H1620 0.959 . S
C1619 H1621 0.960 . S
C1619 H1622 0.961 . S
H1620 C1619 0.959 . S
H1621 C1619 0.960 . S
H1622 C1619 0.961 . S
O1623 Co1598 1.967 . S
O1623 C1631 1.258 . S
O1624 Co1599 1.941 . S
O1624 C1631 1.266 . S
H1625 C1627 0.959 . S
H1626 C1627 0.961 . S
C1627 C1617 1.510 . S
C1627 H1625 0.959 . S
C1627 H1626 0.961 . S
C1627 H1628 0.960 . S
H1628 C1627 0.960 . S
H1629 N1609 0.862 . S
O1630 Co1598 1.920 . S
O1630 C1603 1.289 . S
C1631 O1623 1.258 . S
C1631 O1624 1.266 . S
H1632 C1640 0.929 . S
H1633 C1642 0.930 . S
H1634 C1644 0.930 . S
H1635 C1647 0.929 . S
H1636 C1650 0.930 . S
H1637 C1652 0.960 . S
H1638 C1652 0.960 . S
H1639 C1652 0.960 . S
C1640 H1632 0.929 . S
C1640 C1641 1.377 . S
C1640 C1642 1.384 . S
C1641 C1640 1.377 . S
C1641 C1647 1.390 . S
C1642 H1633 0.930 . S
C1642 C1640 1.384 . S
C1642 C1643 1.372 . S
C1643 C1642 1.372 . S
C1643 C1644 1.400 . S
C1643 C1648 1.490 . S
C1644 H1634 0.930 . S
C1644 C1643 1.400 . S
C1644 C1647 1.386 . S
H1645 C1661 0.930 . S
H1646 C1662 0.931 . S
C1647 H1635 0.929 . S
C1647 C1641 1.390 . S
C1647 C1644 1.386 . S
C1648 C1643 1.490 . S
C1648 C1650 1.395 . S
C1648 C1651 1.403 . S
H1649 C1655 0.930 . S
C1650 H1636 0.930 . S
C1650 C1648 1.395 . S
C1650 C1653 1.403 . S
C1651 C1648 1.403 . S
C1651 C1652 1.524 . S
C1651 C1655 1.400 . S
C1652 H1637 0.960 . S
C1652 H1638 0.960 . S
C1652 H1639 0.960 . S
C1652 C1651 1.524 . S
C1653 C1650 1.403 . S
C1653 C1654 1.392 . S
C1653 C1657 1.495 . S
C1654 C1653 1.392 . S
C1654 C1655 1.385 . S
C1654 C1656 1.478 . S
C1655 H1649 0.930 . S
C1655 C1651 1.400 . S
C1655 C1654 1.385 . S
C1656 C1654 1.478 . S
C1656 C1658 1.381 . S
C1656 C1662 1.383 . S
C1657 C1653 1.495 . S
C1657 H1663 0.959 . S
C1657 H1664 0.961 . S
C1657 H1665 0.960 . S
C1658 C1656 1.381 . S
C1658 C1659 1.394 . S
C1658 H1666 0.930 . S
C1659 C1658 1.394 . S
C1659 C1660 1.383 . S
C1659 H1667 0.929 . S
C1660 C1659 1.383 . S
C1660 C1661 1.377 . S
C1661 H1645 0.930 . S
C1661 C1660 1.377 . S
C1661 C1662 1.379 . S
C1662 H1646 0.931 . S
C1662 C1656 1.383 . S
C1662 C1661 1.379 . S
H1663 C1657 0.959 . S
H1664 C1657 0.961 . S
H1665 C1657 0.960 . S
H1666 C1658 0.930 . S
H1667 C1659 0.929 . S
H1668 C1676 0.929 . S
H1669 C1678 0.930 . S
H1670 C1680 0.930 . S
H1671 C1683 0.929 . S
H1672 C1686 0.930 . S
H1673 C1688 0.960 . S
H1674 C1688 0.960 . S
H1675 C1688 0.960 . S
C1676 H1668 0.929 . S
C1676 C1677 1.377 . S
C1676 C1678 1.384 . S
C1677 C1676 1.377 . S
C1677 C1683 1.390 . S
C1678 H1669 0.930 . S
C1678 C1676 1.384 . S
C1678 C1679 1.372 . S
C1679 C1678 1.372 . S
C1679 C1680 1.400 . S
C1679 C1684 1.490 . S
C1680 H1670 0.930 . S
C1680 C1679 1.400 . S
C1680 C1683 1.386 . S
H1681 C1697 0.930 . S
H1682 C1698 0.931 . S
C1683 H1671 0.929 . S
C1683 C1677 1.390 . S
C1683 C1680 1.386 . S
C1684 C1679 1.490 . S
C1684 C1686 1.395 . S
C1684 C1687 1.403 . S
H1685 C1691 0.930 . S
C1686 H1672 0.930 . S
C1686 C1684 1.395 . S
C1686 C1689 1.403 . S
C1687 C1684 1.403 . S
C1687 C1688 1.524 . S
C1687 C1691 1.400 . S
C1688 H1673 0.960 . S
C1688 H1674 0.960 . S
C1688 H1675 0.960 . S
C1688 C1687 1.524 . S
C1689 C1686 1.403 . S
C1689 C1690 1.392 . S
C1689 C1693 1.495 . S
C1690 C1689 1.392 . S
C1690 C1691 1.385 . S
C1690 C1692 1.478 . S
C1691 H1685 0.930 . S
C1691 C1687 1.400 . S
C1691 C1690 1.385 . S
C1692 C1690 1.478 . S
C1692 C1694 1.381 . S
C1692 C1698 1.383 . S
C1693 C1689 1.495 . S
C1693 H1699 0.959 . S
C1693 H1700 0.961 . S
C1693 H1701 0.960 . S
C1694 C1692 1.381 . S
C1694 C1695 1.394 . S
C1694 H1702 0.930 . S
C1695 C1694 1.394 . S
C1695 C1696 1.383 . S
C1695 H1703 0.929 . S
C1696 C1695 1.383 . S
C1696 C1697 1.377 . S
C1697 H1681 0.930 . S
C1697 C1696 1.377 . S
C1697 C1698 1.379 . S
C1698 H1682 0.931 . S
C1698 C1692 1.383 . S
C1698 C1697 1.379 . S
H1699 C1693 0.959 . S
H1700 C1693 0.961 . S
H1701 C1693 0.960 . S
H1702 C1694 0.930 . S
H1703 C1695 0.929 . S
H1704 C1712 0.929 . S
H1705 C1714 0.930 . S
H1706 C1716 0.930 . S
H1707 C1719 0.929 . S
H1708 C1722 0.930 . S
H1709 C1724 0.960 . S
H1710 C1724 0.960 . S
H1711 C1724 0.960 . S
C1712 H1704 0.929 . S
C1712 C1713 1.377 . S
C1712 C1714 1.384 . S
C1713 C1712 1.377 . S
C1713 C1719 1.390 . S
C1714 H1705 0.930 . S
C1714 C1712 1.384 . S
C1714 C1715 1.372 . S
C1715 C1714 1.372 . S
C1715 C1716 1.400 . S
C1715 C1720 1.490 . S
C1716 H1706 0.930 . S
C1716 C1715 1.400 . S
C1716 C1719 1.386 . S
H1717 C1733 0.930 . S
H1718 C1734 0.931 . S
C1719 H1707 0.929 . S
C1719 C1713 1.390 . S
C1719 C1716 1.386 . S
C1720 C1715 1.490 . S
C1720 C1722 1.395 . S
C1720 C1723 1.403 . S
H1721 C1727 0.930 . S
C1722 H1708 0.930 . S
C1722 C1720 1.395 . S
C1722 C1725 1.403 . S
C1723 C1720 1.403 . S
C1723 C1724 1.524 . S
C1723 C1727 1.400 . S
C1724 H1709 0.960 . S
C1724 H1710 0.960 . S
C1724 H1711 0.960 . S
C1724 C1723 1.524 . S
C1725 C1722 1.403 . S
C1725 C1726 1.392 . S
C1725 C1729 1.495 . S
C1726 C1725 1.392 . S
C1726 C1727 1.385 . S
C1726 C1728 1.478 . S
C1727 H1721 0.930 . S
C1727 C1723 1.400 . S
C1727 C1726 1.385 . S
C1728 C1726 1.478 . S
C1728 C1730 1.381 . S
C1728 C1734 1.383 . S
C1729 C1725 1.495 . S
C1729 H1735 0.959 . S
C1729 H1736 0.961 . S
C1729 H1737 0.960 . S
C1730 C1728 1.381 . S
C1730 C1731 1.394 . S
C1730 H1738 0.930 . S
C1731 C1730 1.394 . S
C1731 C1732 1.383 . S
C1731 H1739 0.929 . S
C1732 C1731 1.383 . S
C1732 C1733 1.377 . S
C1733 H1717 0.930 . S
C1733 C1732 1.377 . S
C1733 C1734 1.379 . S
C1734 H1718 0.931 . S
C1734 C1728 1.383 . S
C1734 C1733 1.379 . S
H1735 C1729 0.959 . S
H1736 C1729 0.961 . S
H1737 C1729 0.960 . S
H1738 C1730 0.930 . S
H1739 C1731 0.929 . S
H1740 C1748 0.929 . S
H1741 C1750 0.930 . S
H1742 C1752 0.930 . S
H1743 C1755 0.929 . S
H1744 C1758 0.930 . S
H1745 C1760 0.960 . S
H1746 C1760 0.960 . S
H1747 C1760 0.960 . S
C1748 H1740 0.929 . S
C1748 C1749 1.377 . S
C1748 C1750 1.384 . S
C1749 C1748 1.377 . S
C1749 C1755 1.390 . S
C1750 H1741 0.930 . S
C1750 C1748 1.384 . S
C1750 C1751 1.372 . S
C1751 C1750 1.372 . S
C1751 C1752 1.400 . S
C1751 C1756 1.490 . S
C1752 H1742 0.930 . S
C1752 C1751 1.400 . S
C1752 C1755 1.386 . S
H1753 C1769 0.930 . S
H1754 C1770 0.931 . S
C1755 H1743 0.929 . S
C1755 C1749 1.390 . S
C1755 C1752 1.386 . S
C1756 C1751 1.490 . S
C1756 C1758 1.395 . S
C1756 C1759 1.403 . S
H1757 C1763 0.930 . S
C1758 H1744 0.930 . S
C1758 C1756 1.395 . S
C1758 C1761 1.403 . S
C1759 C1756 1.403 . S
C1759 C1760 1.524 . S
C1759 C1763 1.400 . S
C1760 H1745 0.960 . S
C1760 H1746 0.960 . S
C1760 H1747 0.960 . S
C1760 C1759 1.524 . S
C1761 C1758 1.403 . S
C1761 C1762 1.392 . S
C1761 C1765 1.495 . S
C1762 C1761 1.392 . S
C1762 C1763 1.385 . S
C1762 C1764 1.478 . S
C1763 H1757 0.930 . S
C1763 C1759 1.400 . S
C1763 C1762 1.385 . S
C1764 C1762 1.478 . S
C1764 C1766 1.381 . S
C1764 C1770 1.383 . S
C1765 C1761 1.495 . S
C1765 H1771 0.959 . S
C1765 H1772 0.961 . S
C1765 H1773 0.960 . S
C1766 C1764 1.381 . S
C1766 C1767 1.394 . S
C1766 H1774 0.930 . S
C1767 C1766 1.394 . S
C1767 C1768 1.383 . S
C1767 H1775 0.929 . S
C1768 C1767 1.383 . S
C1768 C1769 1.377 . S
C1769 H1753 0.930 . S
C1769 C1768 1.377 . S
C1769 C1770 1.379 . S
C1770 H1754 0.931 . S
C1770 C1764 1.383 . S
C1770 C1769 1.379 . S
H1771 C1765 0.959 . S
H1772 C1765 0.961 . S
H1773 C1765 0.960 . S
H1774 C1766 0.930 . S
H1775 C1767 0.929 . S
H1776 C1784 0.929 . S
H1777 C1786 0.930 . S
H1778 C1788 0.930 . S
H1779 C1791 0.929 . S
H1780 C1794 0.930 . S
H1781 C1796 0.960 . S
H1782 C1796 0.960 . S
H1783 C1796 0.960 . S
C1784 H1776 0.929 . S
C1784 C1785 1.377 . S
C1784 C1786 1.384 . S
C1785 C1784 1.377 . S
C1785 C1791 1.390 . S
C1786 H1777 0.930 . S
C1786 C1784 1.384 . S
C1786 C1787 1.372 . S
C1787 C1786 1.372 . S
C1787 C1788 1.400 . S
C1787 C1792 1.490 . S
C1788 H1778 0.930 . S
C1788 C1787 1.400 . S
C1788 C1791 1.386 . S
H1789 C1805 0.930 . S
H1790 C1806 0.931 . S
C1791 H1779 0.929 . S
C1791 C1785 1.390 . S
C1791 C1788 1.386 . S
C1792 C1787 1.490 . S
C1792 C1794 1.395 . S
C1792 C1795 1.403 . S
H1793 C1799 0.930 . S
C1794 H1780 0.930 . S
C1794 C1792 1.395 . S
C1794 C1797 1.403 . S
C1795 C1792 1.403 . S
C1795 C1796 1.524 . S
C1795 C1799 1.400 . S
C1796 H1781 0.960 . S
C1796 H1782 0.960 . S
C1796 H1783 0.960 . S
C1796 C1795 1.524 . S
C1797 C1794 1.403 . S
C1797 C1798 1.392 . S
C1797 C1801 1.495 . S
C1798 C1797 1.392 . S
C1798 C1799 1.385 . S
C1798 C1800 1.478 . S
C1799 H1793 0.930 . S
C1799 C1795 1.400 . S
C1799 C1798 1.385 . S
C1800 C1798 1.478 . S
C1800 C1802 1.381 . S
C1800 C1806 1.383 . S
C1801 C1797 1.495 . S
C1801 H1807 0.959 . S
C1801 H1808 0.961 . S
C1801 H1809 0.960 . S
C1802 C1800 1.381 . S
C1802 C1803 1.394 . S
C1802 H1810 0.930 . S
C1803 C1802 1.394 . S
C1803 C1804 1.383 . S
C1803 H1811 0.929 . S
C1804 C1803 1.383 . S
C1804 C1805 1.377 . S
C1805 H1789 0.930 . S
C1805 C1804 1.377 . S
C1805 C1806 1.379 . S
C1806 H1790 0.931 . S
C1806 C1800 1.383 . S
C1806 C1805 1.379 . S
H1807 C1801 0.959 . S
H1808 C1801 0.961 . S
H1809 C1801 0.960 . S
H1810 C1802 0.930 . S
H1811 C1803 0.929 . S
H1812 C1820 0.929 . S
H1813 C1822 0.930 . S
H1814 C1824 0.930 . S
H1815 C1827 0.929 . S
H1816 C1830 0.930 . S
H1817 C1832 0.960 . S
H1818 C1832 0.960 . S
H1819 C1832 0.960 . S
C1820 H1812 0.929 . S
C1820 C1821 1.377 . S
C1820 C1822 1.384 . S
C1821 C1820 1.377 . S
C1821 C1827 1.390 . S
C1822 H1813 0.930 . S
C1822 C1820 1.384 . S
C1822 C1823 1.372 . S
C1823 C1822 1.372 . S
C1823 C1824 1.400 . S
C1823 C1828 1.490 . S
C1824 H1814 0.930 . S
C1824 C1823 1.400 . S
C1824 C1827 1.386 . S
H1825 C1841 0.930 . S
H1826 C1842 0.931 . S
C1827 H1815 0.929 . S
C1827 C1821 1.390 . S
C1827 C1824 1.386 . S
C1828 C1823 1.490 . S
C1828 C1830 1.395 . S
C1828 C1831 1.403 . S
H1829 C1835 0.930 . S
C1830 H1816 0.930 . S
C1830 C1828 1.395 . S
C1830 C1833 1.403 . S
C1831 C1828 1.403 . S
C1831 C1832 1.524 . S
C1831 C1835 1.400 . S
C1832 H1817 0.960 . S
C1832 H1818 0.960 . S
C1832 H1819 0.960 . S
C1832 C1831 1.524 . S
C1833 C1830 1.403 . S
C1833 C1834 1.392 . S
C1833 C1837 1.495 . S
C1834 C1833 1.392 . S
C1834 C1835 1.385 . S
C1834 C1836 1.478 . S
C1835 H1829 0.930 . S
C1835 C1831 1.400 . S
C1835 C1834 1.385 . S
C1836 C1834 1.478 . S
C1836 C1838 1.381 . S
C1836 C1842 1.383 . S
C1837 C1833 1.495 . S
C1837 H1843 0.959 . S
C1837 H1844 0.961 . S
C1837 H1845 0.960 . S
C1838 C1836 1.381 . S
C1838 C1839 1.394 . S
C1838 H1846 0.930 . S
C1839 C1838 1.394 . S
C1839 C1840 1.383 . S
C1839 H1847 0.929 . S
C1840 C1839 1.383 . S
C1840 C1841 1.377 . S
C1841 H1825 0.930 . S
C1841 C1840 1.377 . S
C1841 C1842 1.379 . S
C1842 H1826 0.931 . S
C1842 C1836 1.383 . S
C1842 C1841 1.379 . S
H1843 C1837 0.959 . S
H1844 C1837 0.961 . S
H1845 C1837 0.960 . S
H1846 C1838 0.930 . S
H1847 C1839 0.929 . S
H1848 C1856 0.929 . S
H1849 C1858 0.930 . S
H1850 C1860 0.930 . S
H1851 C1863 0.929 . S
H1852 C1866 0.930 . S
H1853 C1868 0.960 . S
H1854 C1868 0.960 . S
H1855 C1868 0.960 . S
C1856 H1848 0.929 . S
C1856 C1857 1.377 . S
C1856 C1858 1.384 . S
C1857 C1856 1.377 . S
C1857 C1863 1.390 . S
C1858 H1849 0.930 . S
C1858 C1856 1.384 . S
C1858 C1859 1.372 . S
C1859 C1858 1.372 . S
C1859 C1860 1.400 . S
C1859 C1864 1.490 . S
C1860 H1850 0.930 . S
C1860 C1859 1.400 . S
C1860 C1863 1.386 . S
H1861 C1877 0.930 . S
H1862 C1878 0.931 . S
C1863 H1851 0.929 . S
C1863 C1857 1.390 . S
C1863 C1860 1.386 . S
C1864 C1859 1.490 . S
C1864 C1866 1.395 . S
C1864 C1867 1.403 . S
H1865 C1871 0.930 . S
C1866 H1852 0.930 . S
C1866 C1864 1.395 . S
C1866 C1869 1.403 . S
C1867 C1864 1.403 . S
C1867 C1868 1.524 . S
C1867 C1871 1.400 . S
C1868 H1853 0.960 . S
C1868 H1854 0.960 . S
C1868 H1855 0.960 . S
C1868 C1867 1.524 . S
C1869 C1866 1.403 . S
C1869 C1870 1.392 . S
C1869 C1873 1.495 . S
C1870 C1869 1.392 . S
C1870 C1871 1.385 . S
C1870 C1872 1.478 . S
C1871 H1865 0.930 . S
C1871 C1867 1.400 . S
C1871 C1870 1.385 . S
C1872 C1870 1.478 . S
C1872 C1874 1.381 . S
C1872 C1878 1.383 . S
C1873 C1869 1.495 . S
C1873 H1879 0.959 . S
C1873 H1880 0.961 . S
C1873 H1881 0.960 . S
C1874 C1872 1.381 . S
C1874 C1875 1.394 . S
C1874 H1882 0.930 . S
C1875 C1874 1.394 . S
C1875 C1876 1.383 . S
C1875 H1883 0.929 . S
C1876 C1875 1.383 . S
C1876 C1877 1.377 . S
C1877 H1861 0.930 . S
C1877 C1876 1.377 . S
C1877 C1878 1.379 . S
C1878 H1862 0.931 . S
C1878 C1872 1.383 . S
C1878 C1877 1.379 . S
H1879 C1873 0.959 . S
H1880 C1873 0.961 . S
H1881 C1873 0.960 . S
H1882 C1874 0.930 . S
H1883 C1875 0.929 . S
H1884 C1892 0.929 . S
H1885 C1894 0.930 . S
H1886 C1896 0.930 . S
H1887 C1899 0.929 . S
H1888 C1902 0.930 . S
H1889 C1904 0.960 . S
H1890 C1904 0.960 . S
H1891 C1904 0.960 . S
C1892 H1884 0.929 . S
C1892 C1893 1.377 . S
C1892 C1894 1.384 . S
C1893 C1892 1.377 . S
C1893 C1899 1.390 . S
C1894 H1885 0.930 . S
C1894 C1892 1.384 . S
C1894 C1895 1.372 . S
C1895 C1894 1.372 . S
C1895 C1896 1.400 . S
C1895 C1900 1.490 . S
C1896 H1886 0.930 . S
C1896 C1895 1.400 . S
C1896 C1899 1.386 . S
H1897 C1913 0.930 . S
H1898 C1914 0.931 . S
C1899 H1887 0.929 . S
C1899 C1893 1.390 . S
C1899 C1896 1.386 . S
C1900 C1895 1.490 . S
C1900 C1902 1.395 . S
C1900 C1903 1.403 . S
H1901 C1907 0.930 . S
C1902 H1888 0.930 . S
C1902 C1900 1.395 . S
C1902 C1905 1.403 . S
C1903 C1900 1.403 . S
C1903 C1904 1.524 . S
C1903 C1907 1.400 . S
C1904 H1889 0.960 . S
C1904 H1890 0.960 . S
C1904 H1891 0.960 . S
C1904 C1903 1.524 . S
C1905 C1902 1.403 . S
C1905 C1906 1.392 . S
C1905 C1909 1.495 . S
C1906 C1905 1.392 . S
C1906 C1907 1.385 . S
C1906 C1908 1.478 . S
C1907 H1901 0.930 . S
C1907 C1903 1.400 . S
C1907 C1906 1.385 . S
C1908 C1906 1.478 . S
C1908 C1910 1.381 . S
C1908 C1914 1.383 . S
C1909 C1905 1.495 . S
C1909 H1915 0.959 . S
C1909 H1916 0.961 . S
C1909 H1917 0.960 . S
C1910 C1908 1.381 . S
C1910 C1911 1.394 . S
C1910 H1918 0.930 . S
C1911 C1910 1.394 . S
C1911 C1912 1.383 . S
C1911 H1919 0.929 . S
C1912 C1911 1.383 . S
C1912 C1913 1.377 . S
C1913 H1897 0.930 . S
C1913 C1912 1.377 . S
C1913 C1914 1.379 . S
C1914 H1898 0.931 . S
C1914 C1908 1.383 . S
C1914 C1913 1.379 . S
H1915 C1909 0.959 . S
H1916 C1909 0.961 . S
H1917 C1909 0.960 . S
H1918 C1910 0.930 . S
H1919 C1911 0.929 . S
H1920 C1928 0.929 . S
H1921 C1930 0.930 . S
H1922 C1932 0.930 . S
H1923 C1935 0.929 . S
H1924 C1938 0.930 . S
H1925 C1940 0.960 . S
H1926 C1940 0.960 . S
H1927 C1940 0.960 . S
C1928 H1920 0.929 . S
C1928 C1929 1.377 . S
C1928 C1930 1.384 . S
C1929 C1928 1.377 . S
C1929 C1935 1.390 . S
C1930 H1921 0.930 . S
C1930 C1928 1.384 . S
C1930 C1931 1.372 . S
C1931 C1930 1.372 . S
C1931 C1932 1.400 . S
C1931 C1936 1.490 . S
C1932 H1922 0.930 . S
C1932 C1931 1.400 . S
C1932 C1935 1.386 . S
H1933 C1949 0.930 . S
H1934 C1950 0.931 . S
C1935 H1923 0.929 . S
C1935 C1929 1.390 . S
C1935 C1932 1.386 . S
C1936 C1931 1.490 . S
C1936 C1938 1.395 . S
C1936 C1939 1.403 . S
H1937 C1943 0.930 . S
C1938 H1924 0.930 . S
C1938 C1936 1.395 . S
C1938 C1941 1.403 . S
C1939 C1936 1.403 . S
C1939 C1940 1.524 . S
C1939 C1943 1.400 . S
C1940 H1925 0.960 . S
C1940 H1926 0.960 . S
C1940 H1927 0.960 . S
C1940 C1939 1.524 . S
C1941 C1938 1.403 . S
C1941 C1942 1.392 . S
C1941 C1945 1.495 . S
C1942 C1941 1.392 . S
C1942 C1943 1.385 . S
C1942 C1944 1.478 . S
C1943 H1937 0.930 . S
C1943 C1939 1.400 . S
C1943 C1942 1.385 . S
C1944 C1942 1.478 . S
C1944 C1946 1.381 . S
C1944 C1950 1.383 . S
C1945 C1941 1.495 . S
C1945 H1951 0.959 . S
C1945 H1952 0.961 . S
C1945 H1953 0.960 . S
C1946 C1944 1.381 . S
C1946 C1947 1.394 . S
C1946 H1954 0.930 . S
C1947 C1946 1.394 . S
C1947 C1948 1.383 . S
C1947 H1955 0.929 . S
C1948 C1947 1.383 . S
C1948 C1949 1.377 . S
C1949 H1933 0.930 . S
C1949 C1948 1.377 . S
C1949 C1950 1.379 . S
C1950 H1934 0.931 . S
C1950 C1944 1.383 . S
C1950 C1949 1.379 . S
H1951 C1945 0.959 . S
H1952 C1945 0.961 . S
H1953 C1945 0.960 . S
H1954 C1946 0.930 . S
H1955 C1947 0.929 . S
H1956 C1964 0.929 . S
H1957 C1966 0.930 . S
H1958 C1968 0.930 . S
H1959 C1971 0.929 . S
H1960 C1974 0.930 . S
H1961 C1976 0.960 . S
H1962 C1976 0.960 . S
H1963 C1976 0.960 . S
C1964 H1956 0.929 . S
C1964 C1965 1.377 . S
C1964 C1966 1.384 . S
C1965 C1964 1.377 . S
C1965 C1971 1.390 . S
C1966 H1957 0.930 . S
C1966 C1964 1.384 . S
C1966 C1967 1.372 . S
C1967 C1966 1.372 . S
C1967 C1968 1.400 . S
C1967 C1972 1.490 . S
C1968 H1958 0.930 . S
C1968 C1967 1.400 . S
C1968 C1971 1.386 . S
H1969 C1985 0.930 . S
H1970 C1986 0.931 . S
C1971 H1959 0.929 . S
C1971 C1965 1.390 . S
C1971 C1968 1.386 . S
C1972 C1967 1.490 . S
C1972 C1974 1.395 . S
C1972 C1975 1.403 . S
H1973 C1979 0.930 . S
C1974 H1960 0.930 . S
C1974 C1972 1.395 . S
C1974 C1977 1.403 . S
C1975 C1972 1.403 . S
C1975 C1976 1.524 . S
C1975 C1979 1.400 . S
C1976 H1961 0.960 . S
C1976 H1962 0.960 . S
C1976 H1963 0.960 . S
C1976 C1975 1.524 . S
C1977 C1974 1.403 . S
C1977 C1978 1.392 . S
C1977 C1981 1.495 . S
C1978 C1977 1.392 . S
C1978 C1979 1.385 . S
C1978 C1980 1.478 . S
C1979 H1973 0.930 . S
C1979 C1975 1.400 . S
C1979 C1978 1.385 . S
C1980 C1978 1.478 . S
C1980 C1982 1.381 . S
C1980 C1986 1.383 . S
C1981 C1977 1.495 . S
C1981 H1987 0.959 . S
C1981 H1988 0.961 . S
C1981 H1989 0.960 . S
C1982 C1980 1.381 . S
C1982 C1983 1.394 . S
C1982 H1990 0.930 . S
C1983 C1982 1.394 . S
C1983 C1984 1.383 . S
C1983 H1991 0.929 . S
C1984 C1983 1.383 . S
C1984 C1985 1.377 . S
C1985 H1969 0.930 . S
C1985 C1984 1.377 . S
C1985 C1986 1.379 . S
C1986 H1970 0.931 . S
C1986 C1980 1.383 . S
C1986 C1985 1.379 . S
H1987 C1981 0.959 . S
H1988 C1981 0.961 . S
H1989 C1981 0.960 . S
H1990 C1982 0.930 . S
H1991 C1983 0.929 . S
H1992 C2000 0.929 . S
H1993 C2002 0.930 . S
H1994 C2004 0.930 . S
H1995 C2007 0.929 . S
H1996 C2010 0.930 . S
H1997 C2012 0.960 . S
H1998 C2012 0.960 . S
H1999 C2012 0.960 . S
C2000 H1992 0.929 . S
C2000 C2001 1.377 . S
C2000 C2002 1.384 . S
C2001 C2000 1.377 . S
C2001 C2007 1.390 . S
C2002 H1993 0.930 . S
C2002 C2000 1.384 . S
C2002 C2003 1.372 . S
C2003 C2002 1.372 . S
C2003 C2004 1.400 . S
C2003 C2008 1.490 . S
C2004 H1994 0.930 . S
C2004 C2003 1.400 . S
C2004 C2007 1.386 . S
H2005 C2021 0.930 . S
H2006 C2022 0.931 . S
C2007 H1995 0.929 . S
C2007 C2001 1.390 . S
C2007 C2004 1.386 . S
C2008 C2003 1.490 . S
C2008 C2010 1.395 . S
C2008 C2011 1.403 . S
H2009 C2015 0.930 . S
C2010 H1996 0.930 . S
C2010 C2008 1.395 . S
C2010 C2013 1.403 . S
C2011 C2008 1.403 . S
C2011 C2012 1.524 . S
C2011 C2015 1.400 . S
C2012 H1997 0.960 . S
C2012 H1998 0.960 . S
C2012 H1999 0.960 . S
C2012 C2011 1.524 . S
C2013 C2010 1.403 . S
C2013 C2014 1.392 . S
C2013 C2017 1.495 . S
C2014 C2013 1.392 . S
C2014 C2015 1.385 . S
C2014 C2016 1.478 . S
C2015 H2009 0.930 . S
C2015 C2011 1.400 . S
C2015 C2014 1.385 . S
C2016 C2014 1.478 . S
C2016 C2018 1.381 . S
C2016 C2022 1.383 . S
C2017 C2013 1.495 . S
C2017 H2023 0.959 . S
C2017 H2024 0.961 . S
C2017 H2025 0.960 . S
C2018 C2016 1.381 . S
C2018 C2019 1.394 . S
C2018 H2026 0.930 . S
C2019 C2018 1.394 . S
C2019 C2020 1.383 . S
C2019 H2027 0.929 . S
C2020 C2019 1.383 . S
C2020 C2021 1.377 . S
C2021 H2005 0.930 . S
C2021 C2020 1.377 . S
C2021 C2022 1.379 . S
C2022 H2006 0.931 . S
C2022 C2016 1.383 . S
C2022 C2021 1.379 . S
H2023 C2017 0.959 . S
H2024 C2017 0.961 . S
H2025 C2017 0.960 . S
H2026 C2018 0.930 . S
H2027 C2019 0.929 . S
H2028 C2036 0.929 . S
H2029 C2038 0.930 . S
H2030 C2040 0.930 . S
H2031 C2043 0.929 . S
H2032 C2046 0.930 . S
H2033 C2048 0.960 . S
H2034 C2048 0.960 . S
H2035 C2048 0.960 . S
C2036 H2028 0.929 . S
C2036 C2037 1.377 . S
C2036 C2038 1.384 . S
C2037 C2036 1.377 . S
C2037 C2043 1.390 . S
C2038 H2029 0.930 . S
C2038 C2036 1.384 . S
C2038 C2039 1.372 . S
C2039 C2038 1.372 . S
C2039 C2040 1.400 . S
C2039 C2044 1.490 . S
C2040 H2030 0.930 . S
C2040 C2039 1.400 . S
C2040 C2043 1.386 . S
H2041 C2057 0.930 . S
H2042 C2058 0.931 . S
C2043 H2031 0.929 . S
C2043 C2037 1.390 . S
C2043 C2040 1.386 . S
C2044 C2039 1.490 . S
C2044 C2046 1.395 . S
C2044 C2047 1.403 . S
H2045 C2051 0.930 . S
C2046 H2032 0.930 . S
C2046 C2044 1.395 . S
C2046 C2049 1.403 . S
C2047 C2044 1.403 . S
C2047 C2048 1.524 . S
C2047 C2051 1.400 . S
C2048 H2033 0.960 . S
C2048 H2034 0.960 . S
C2048 H2035 0.960 . S
C2048 C2047 1.524 . S
C2049 C2046 1.403 . S
C2049 C2050 1.392 . S
C2049 C2053 1.495 . S
C2050 C2049 1.392 . S
C2050 C2051 1.385 . S
C2050 C2052 1.478 . S
C2051 H2045 0.930 . S
C2051 C2047 1.400 . S
C2051 C2050 1.385 . S
C2052 C2050 1.478 . S
C2052 C2054 1.381 . S
C2052 C2058 1.383 . S
C2053 C2049 1.495 . S
C2053 H2059 0.959 . S
C2053 H2060 0.961 . S
C2053 H2061 0.960 . S
C2054 C2052 1.381 . S
C2054 C2055 1.394 . S
C2054 H2062 0.930 . S
C2055 C2054 1.394 . S
C2055 C2056 1.383 . S
C2055 H2063 0.929 . S
C2056 C2055 1.383 . S
C2056 C2057 1.377 . S
C2057 H2041 0.930 . S
C2057 C2056 1.377 . S
C2057 C2058 1.379 . S
C2058 H2042 0.931 . S
C2058 C2052 1.383 . S
C2058 C2057 1.379 . S
H2059 C2053 0.959 . S
H2060 C2053 0.961 . S
H2061 C2053 0.960 . S
H2062 C2054 0.930 . S
H2063 C2055 0.929 . S
H2064 C2072 0.929 . S
H2065 C2074 0.930 . S
H2066 C2076 0.930 . S
H2067 C2079 0.929 . S
H2068 C2082 0.930 . S
H2069 C2084 0.960 . S
H2070 C2084 0.960 . S
H2071 C2084 0.960 . S
C2072 H2064 0.929 . S
C2072 C2073 1.377 . S
C2072 C2074 1.384 . S
C2073 C2072 1.377 . S
C2073 C2079 1.390 . S
C2074 H2065 0.930 . S
C2074 C2072 1.384 . S
C2074 C2075 1.372 . S
C2075 C2074 1.372 . S
C2075 C2076 1.400 . S
C2075 C2080 1.490 . S
C2076 H2066 0.930 . S
C2076 C2075 1.400 . S
C2076 C2079 1.386 . S
H2077 C2093 0.930 . S
H2078 C2094 0.931 . S
C2079 H2067 0.929 . S
C2079 C2073 1.390 . S
C2079 C2076 1.386 . S
C2080 C2075 1.490 . S
C2080 C2082 1.395 . S
C2080 C2083 1.403 . S
H2081 C2087 0.930 . S
C2082 H2068 0.930 . S
C2082 C2080 1.395 . S
C2082 C2085 1.403 . S
C2083 C2080 1.403 . S
C2083 C2084 1.524 . S
C2083 C2087 1.400 . S
C2084 H2069 0.960 . S
C2084 H2070 0.960 . S
C2084 H2071 0.960 . S
C2084 C2083 1.524 . S
C2085 C2082 1.403 . S
C2085 C2086 1.392 . S
C2085 C2089 1.495 . S
C2086 C2085 1.392 . S
C2086 C2087 1.385 . S
C2086 C2088 1.478 . S
C2087 H2081 0.930 . S
C2087 C2083 1.400 . S
C2087 C2086 1.385 . S
C2088 C2086 1.478 . S
C2088 C2090 1.381 . S
C2088 C2094 1.383 . S
C2089 C2085 1.495 . S
C2089 H2095 0.959 . S
C2089 H2096 0.961 . S
C2089 H2097 0.960 . S
C2090 C2088 1.381 . S
C2090 C2091 1.394 . S
C2090 H2098 0.930 . S
C2091 C2090 1.394 . S
C2091 C2092 1.383 . S
C2091 H2099 0.929 . S
C2092 C2091 1.383 . S
C2092 C2093 1.377 . S
C2093 H2077 0.930 . S
C2093 C2092 1.377 . S
C2093 C2094 1.379 . S
C2094 H2078 0.931 . S
C2094 C2088 1.383 . S
C2094 C2093 1.379 . S
H2095 C2089 0.959 . S
H2096 C2089 0.961 . S
H2097 C2089 0.960 . S
H2098 C2090 0.930 . S
H2099 C2091 0.929 . S
H2100 C2108 0.929 . S
H2101 C2110 0.930 . S
H2102 C2112 0.930 . S
H2103 C2115 0.929 . S
H2104 C2118 0.930 . S
H2105 C2120 0.960 . S
H2106 C2120 0.960 . S
H2107 C2120 0.960 . S
C2108 H2100 0.929 . S
C2108 C2109 1.377 . S
C2108 C2110 1.384 . S
C2109 C2108 1.377 . S
C2109 C2115 1.390 . S
C2110 H2101 0.930 . S
C2110 C2108 1.384 . S
C2110 C2111 1.372 . S
C2111 C2110 1.372 . S
C2111 C2112 1.400 . S
C2111 C2116 1.490 . S
C2112 H2102 0.930 . S
C2112 C2111 1.400 . S
C2112 C2115 1.386 . S
H2113 C2129 0.930 . S
H2114 C2130 0.931 . S
C2115 H2103 0.929 . S
C2115 C2109 1.390 . S
C2115 C2112 1.386 . S
C2116 C2111 1.490 . S
C2116 C2118 1.395 . S
C2116 C2119 1.403 . S
H2117 C2123 0.930 . S
C2118 H2104 0.930 . S
C2118 C2116 1.395 . S
C2118 C2121 1.403 . S
C2119 C2116 1.403 . S
C2119 C2120 1.524 . S
C2119 C2123 1.400 . S
C2120 H2105 0.960 . S
C2120 H2106 0.960 . S
C2120 H2107 0.960 . S
C2120 C2119 1.524 . S
C2121 C2118 1.403 . S
C2121 C2122 1.392 . S
C2121 C2125 1.495 . S
C2122 C2121 1.392 . S
C2122 C2123 1.385 . S
C2122 C2124 1.478 . S
C2123 H2117 0.930 . S
C2123 C2119 1.400 . S
C2123 C2122 1.385 . S
C2124 C2122 1.478 . S
C2124 C2126 1.381 . S
C2124 C2130 1.383 . S
C2125 C2121 1.495 . S
C2125 H2131 0.959 . S
C2125 H2132 0.961 . S
C2125 H2133 0.960 . S
C2126 C2124 1.381 . S
C2126 C2127 1.394 . S
C2126 H2134 0.930 . S
C2127 C2126 1.394 . S
C2127 C2128 1.383 . S
C2127 H2135 0.929 . S
C2128 C2127 1.383 . S
C2128 C2129 1.377 . S
C2129 H2113 0.930 . S
C2129 C2128 1.377 . S
C2129 C2130 1.379 . S
C2130 H2114 0.931 . S
C2130 C2124 1.383 . S
C2130 C2129 1.379 . S
H2131 C2125 0.959 . S
H2132 C2125 0.961 . S
H2133 C2125 0.960 . S
H2134 C2126 0.930 . S
H2135 C2127 0.929 . S
H2136 C2144 0.929 . S
H2137 C2146 0.930 . S
H2138 C2148 0.930 . S
H2139 C2151 0.929 . S
H2140 C2154 0.930 . S
H2141 C2156 0.960 . S
H2142 C2156 0.960 . S
H2143 C2156 0.960 . S
C2144 H2136 0.929 . S
C2144 C2145 1.377 . S
C2144 C2146 1.384 . S
C2145 C2144 1.377 . S
C2145 C2151 1.390 . S
C2146 H2137 0.930 . S
C2146 C2144 1.384 . S
C2146 C2147 1.372 . S
C2147 C2146 1.372 . S
C2147 C2148 1.400 . S
C2147 C2152 1.490 . S
C2148 H2138 0.930 . S
C2148 C2147 1.400 . S
C2148 C2151 1.386 . S
H2149 C2165 0.930 . S
H2150 C2166 0.931 . S
C2151 H2139 0.929 . S
C2151 C2145 1.390 . S
C2151 C2148 1.386 . S
C2152 C2147 1.490 . S
C2152 C2154 1.395 . S
C2152 C2155 1.403 . S
H2153 C2159 0.930 . S
C2154 H2140 0.930 . S
C2154 C2152 1.395 . S
C2154 C2157 1.403 . S
C2155 C2152 1.403 . S
C2155 C2156 1.524 . S
C2155 C2159 1.400 . S
C2156 H2141 0.960 . S
C2156 H2142 0.960 . S
C2156 H2143 0.960 . S
C2156 C2155 1.524 . S
C2157 C2154 1.403 . S
C2157 C2158 1.392 . S
C2157 C2161 1.495 . S
C2158 C2157 1.392 . S
C2158 C2159 1.385 . S
C2158 C2160 1.478 . S
C2159 H2153 0.930 . S
C2159 C2155 1.400 . S
C2159 C2158 1.385 . S
C2160 C2158 1.478 . S
C2160 C2162 1.381 . S
C2160 C2166 1.383 . S
C2161 C2157 1.495 . S
C2161 H2167 0.959 . S
C2161 H2168 0.961 . S
C2161 H2169 0.960 . S
C2162 C2160 1.381 . S
C2162 C2163 1.394 . S
C2162 H2170 0.930 . S
C2163 C2162 1.394 . S
C2163 C2164 1.383 . S
C2163 H2171 0.929 . S
C2164 C2163 1.383 . S
C2164 C2165 1.377 . S
C2165 H2149 0.930 . S
C2165 C2164 1.377 . S
C2165 C2166 1.379 . S
C2166 H2150 0.931 . S
C2166 C2160 1.383 . S
C2166 C2165 1.379 . S
H2167 C2161 0.959 . S
H2168 C2161 0.961 . S
H2169 C2161 0.960 . S
H2170 C2162 0.930 . S
H2171 C2163 0.929 . S
H2172 C2180 0.929 . S
H2173 C2182 0.930 . S
H2174 C2184 0.930 . S
H2175 C2187 0.929 . S
H2176 C2190 0.930 . S
H2177 C2192 0.960 . S
H2178 C2192 0.960 . S
H2179 C2192 0.960 . S
C2180 H2172 0.929 . S
C2180 C2181 1.377 . S
C2180 C2182 1.384 . S
C2181 C2180 1.377 . S
C2181 C2187 1.390 . S
C2182 H2173 0.930 . S
C2182 C2180 1.384 . S
C2182 C2183 1.372 . S
C2183 C2182 1.372 . S
C2183 C2184 1.400 . S
C2183 C2188 1.490 . S
C2184 H2174 0.930 . S
C2184 C2183 1.400 . S
C2184 C2187 1.386 . S
H2185 C2201 0.930 . S
H2186 C2202 0.931 . S
C2187 H2175 0.929 . S
C2187 C2181 1.390 . S
C2187 C2184 1.386 . S
C2188 C2183 1.490 . S
C2188 C2190 1.395 . S
C2188 C2191 1.403 . S
H2189 C2195 0.930 . S
C2190 H2176 0.930 . S
C2190 C2188 1.395 . S
C2190 C2193 1.403 . S
C2191 C2188 1.403 . S
C2191 C2192 1.524 . S
C2191 C2195 1.400 . S
C2192 H2177 0.960 . S
C2192 H2178 0.960 . S
C2192 H2179 0.960 . S
C2192 C2191 1.524 . S
C2193 C2190 1.403 . S
C2193 C2194 1.392 . S
C2193 C2197 1.495 . S
C2194 C2193 1.392 . S
C2194 C2195 1.385 . S
C2194 C2196 1.478 . S
C2195 H2189 0.930 . S
C2195 C2191 1.400 . S
C2195 C2194 1.385 . S
C2196 C2194 1.478 . S
C2196 C2198 1.381 . S
C2196 C2202 1.383 . S
C2197 C2193 1.495 . S
C2197 H2203 0.959 . S
C2197 H2204 0.961 . S
C2197 H2205 0.960 . S
C2198 C2196 1.381 . S
C2198 C2199 1.394 . S
C2198 H2206 0.930 . S
C2199 C2198 1.394 . S
C2199 C2200 1.383 . S
C2199 H2207 0.929 . S
C2200 C2199 1.383 . S
C2200 C2201 1.377 . S
C2201 H2185 0.930 . S
C2201 C2200 1.377 . S
C2201 C2202 1.379 . S
C2202 H2186 0.931 . S
C2202 C2196 1.383 . S
C2202 C2201 1.379 . S
H2203 C2197 0.959 . S
H2204 C2197 0.961 . S
H2205 C2197 0.960 . S
H2206 C2198 0.930 . S
H2207 C2199 0.929 . S
H2208 C2216 0.929 . S
H2209 C2218 0.930 . S
H2210 C2220 0.930 . S
H2211 C2223 0.929 . S
H2212 C2226 0.930 . S
H2213 C2228 0.960 . S
H2214 C2228 0.960 . S
H2215 C2228 0.960 . S
C2216 H2208 0.929 . S
C2216 C2217 1.377 . S
C2216 C2218 1.384 . S
C2217 C2216 1.377 . S
C2217 C2223 1.390 . S
C2218 H2209 0.930 . S
C2218 C2216 1.384 . S
C2218 C2219 1.372 . S
C2219 C2218 1.372 . S
C2219 C2220 1.400 . S
C2219 C2224 1.490 . S
C2220 H2210 0.930 . S
C2220 C2219 1.400 . S
C2220 C2223 1.386 . S
H2221 C2237 0.930 . S
H2222 C2238 0.931 . S
C2223 H2211 0.929 . S
C2223 C2217 1.390 . S
C2223 C2220 1.386 . S
C2224 C2219 1.490 . S
C2224 C2226 1.395 . S
C2224 C2227 1.403 . S
H2225 C2231 0.930 . S
C2226 H2212 0.930 . S
C2226 C2224 1.395 . S
C2226 C2229 1.403 . S
C2227 C2224 1.403 . S
C2227 C2228 1.524 . S
C2227 C2231 1.400 . S
C2228 H2213 0.960 . S
C2228 H2214 0.960 . S
C2228 H2215 0.960 . S
C2228 C2227 1.524 . S
C2229 C2226 1.403 . S
C2229 C2230 1.392 . S
C2229 C2233 1.495 . S
C2230 C2229 1.392 . S
C2230 C2231 1.385 . S
C2230 C2232 1.478 . S
C2231 H2225 0.930 . S
C2231 C2227 1.400 . S
C2231 C2230 1.385 . S
C2232 C2230 1.478 . S
C2232 C2234 1.381 . S
C2232 C2238 1.383 . S
C2233 C2229 1.495 . S
C2233 H2239 0.959 . S
C2233 H2240 0.961 . S
C2233 H2241 0.960 . S
C2234 C2232 1.381 . S
C2234 C2235 1.394 . S
C2234 H2242 0.930 . S
C2235 C2234 1.394 . S
C2235 C2236 1.383 . S
C2235 H2243 0.929 . S
C2236 C2235 1.383 . S
C2236 C2237 1.377 . S
C2237 H2221 0.930 . S
C2237 C2236 1.377 . S
C2237 C2238 1.379 . S
C2238 H2222 0.931 . S
C2238 C2232 1.383 . S
C2238 C2237 1.379 . S
H2239 C2233 0.959 . S
H2240 C2233 0.961 . S
H2241 C2233 0.960 . S
H2242 C2234 0.930 . S
H2243 C2235 0.929 . S
H2244 C2252 0.929 . S
H2245 C2254 0.930 . S
H2246 C2256 0.930 . S
H2247 C2259 0.929 . S
H2248 C2262 0.930 . S
H2249 C2264 0.960 . S
H2250 C2264 0.960 . S
H2251 C2264 0.960 . S
C2252 H2244 0.929 . S
C2252 C2253 1.377 . S
C2252 C2254 1.384 . S
C2253 C2252 1.377 . S
C2253 C2259 1.390 . S
C2254 H2245 0.930 . S
C2254 C2252 1.384 . S
C2254 C2255 1.372 . S
C2255 C2254 1.372 . S
C2255 C2256 1.400 . S
C2255 C2260 1.490 . S
C2256 H2246 0.930 . S
C2256 C2255 1.400 . S
C2256 C2259 1.386 . S
H2257 C2273 0.930 . S
H2258 C2274 0.931 . S
C2259 H2247 0.929 . S
C2259 C2253 1.390 . S
C2259 C2256 1.386 . S
C2260 C2255 1.490 . S
C2260 C2262 1.395 . S
C2260 C2263 1.403 . S
H2261 C2267 0.930 . S
C2262 H2248 0.930 . S
C2262 C2260 1.395 . S
C2262 C2265 1.403 . S
C2263 C2260 1.403 . S
C2263 C2264 1.524 . S
C2263 C2267 1.400 . S
C2264 H2249 0.960 . S
C2264 H2250 0.960 . S
C2264 H2251 0.960 . S
C2264 C2263 1.524 . S
C2265 C2262 1.403 . S
C2265 C2266 1.392 . S
C2265 C2269 1.495 . S
C2266 C2265 1.392 . S
C2266 C2267 1.385 . S
C2266 C2268 1.478 . S
C2267 H2261 0.930 . S
C2267 C2263 1.400 . S
C2267 C2266 1.385 . S
C2268 C2266 1.478 . S
C2268 C2270 1.381 . S
C2268 C2274 1.383 . S
C2269 C2265 1.495 . S
C2269 H2275 0.959 . S
C2269 H2276 0.961 . S
C2269 H2277 0.960 . S
C2270 C2268 1.381 . S
C2270 C2271 1.394 . S
C2270 H2278 0.930 . S
C2271 C2270 1.394 . S
C2271 C2272 1.383 . S
C2271 H2279 0.929 . S
C2272 C2271 1.383 . S
C2272 C2273 1.377 . S
C2273 H2257 0.930 . S
C2273 C2272 1.377 . S
C2273 C2274 1.379 . S
C2274 H2258 0.931 . S
C2274 C2268 1.383 . S
C2274 C2273 1.379 . S
H2275 C2269 0.959 . S
H2276 C2269 0.961 . S
H2277 C2269 0.960 . S
H2278 C2270 0.930 . S
H2279 C2271 0.929 . S
H2280 C2288 0.929 . S
H2281 C2290 0.930 . S
H2282 C2292 0.930 . S
H2283 C2295 0.929 . S
H2284 C2298 0.930 . S
H2285 C2300 0.960 . S
H2286 C2300 0.960 . S
H2287 C2300 0.960 . S
C2288 H2280 0.929 . S
C2288 C2289 1.377 . S
C2288 C2290 1.384 . S
C2289 C2288 1.377 . S
C2289 C2295 1.390 . S
C2290 H2281 0.930 . S
C2290 C2288 1.384 . S
C2290 C2291 1.372 . S
C2291 C2290 1.372 . S
C2291 C2292 1.400 . S
C2291 C2296 1.490 . S
C2292 H2282 0.930 . S
C2292 C2291 1.400 . S
C2292 C2295 1.386 . S
H2293 C2309 0.930 . S
H2294 C2310 0.931 . S
C2295 H2283 0.929 . S
C2295 C2289 1.390 . S
C2295 C2292 1.386 . S
C2296 C2291 1.490 . S
C2296 C2298 1.395 . S
C2296 C2299 1.403 . S
H2297 C2303 0.930 . S
C2298 H2284 0.930 . S
C2298 C2296 1.395 . S
C2298 C2301 1.403 . S
C2299 C2296 1.403 . S
C2299 C2300 1.524 . S
C2299 C2303 1.400 . S
C2300 H2285 0.960 . S
C2300 H2286 0.960 . S
C2300 H2287 0.960 . S
C2300 C2299 1.524 . S
C2301 C2298 1.403 . S
C2301 C2302 1.392 . S
C2301 C2305 1.495 . S
C2302 C2301 1.392 . S
C2302 C2303 1.385 . S
C2302 C2304 1.478 . S
C2303 H2297 0.930 . S
C2303 C2299 1.400 . S
C2303 C2302 1.385 . S
C2304 C2302 1.478 . S
C2304 C2306 1.381 . S
C2304 C2310 1.383 . S
C2305 C2301 1.495 . S
C2305 H2311 0.959 . S
C2305 H2312 0.961 . S
C2305 H2313 0.960 . S
C2306 C2304 1.381 . S
C2306 C2307 1.394 . S
C2306 H2314 0.930 . S
C2307 C2306 1.394 . S
C2307 C2308 1.383 . S
C2307 H2315 0.929 . S
C2308 C2307 1.383 . S
C2308 C2309 1.377 . S
C2309 H2293 0.930 . S
C2309 C2308 1.377 . S
C2309 C2310 1.379 . S
C2310 H2294 0.931 . S
C2310 C2304 1.383 . S
C2310 C2309 1.379 . S
H2311 C2305 0.959 . S
H2312 C2305 0.961 . S
H2313 C2305 0.960 . S
H2314 C2306 0.930 . S
H2315 C2307 0.929 . S
H2316 C2324 0.929 . S
H2317 C2326 0.930 . S
H2318 C2328 0.930 . S
H2319 C2331 0.929 . S
H2320 C2334 0.930 . S
H2321 C2336 0.960 . S
H2322 C2336 0.960 . S
H2323 C2336 0.960 . S
C2324 H2316 0.929 . S
C2324 C2325 1.377 . S
C2324 C2326 1.384 . S
C2325 C2324 1.377 . S
C2325 C2331 1.390 . S
C2326 H2317 0.930 . S
C2326 C2324 1.384 . S
C2326 C2327 1.372 . S
C2327 C2326 1.372 . S
C2327 C2328 1.400 . S
C2327 C2332 1.490 . S
C2328 H2318 0.930 . S
C2328 C2327 1.400 . S
C2328 C2331 1.386 . S
H2329 C2345 0.930 . S
H2330 C2346 0.931 . S
C2331 H2319 0.929 . S
C2331 C2325 1.390 . S
C2331 C2328 1.386 . S
C2332 C2327 1.490 . S
C2332 C2334 1.395 . S
C2332 C2335 1.403 . S
H2333 C2339 0.930 . S
C2334 H2320 0.930 . S
C2334 C2332 1.395 . S
C2334 C2337 1.403 . S
C2335 C2332 1.403 . S
C2335 C2336 1.524 . S
C2335 C2339 1.400 . S
C2336 H2321 0.960 . S
C2336 H2322 0.960 . S
C2336 H2323 0.960 . S
C2336 C2335 1.524 . S
C2337 C2334 1.403 . S
C2337 C2338 1.392 . S
C2337 C2341 1.495 . S
C2338 C2337 1.392 . S
C2338 C2339 1.385 . S
C2338 C2340 1.478 . S
C2339 H2333 0.930 . S
C2339 C2335 1.400 . S
C2339 C2338 1.385 . S
C2340 C2338 1.478 . S
C2340 C2342 1.381 . S
C2340 C2346 1.383 . S
C2341 C2337 1.495 . S
C2341 H2347 0.959 . S
C2341 H2348 0.961 . S
C2341 H2349 0.960 . S
C2342 C2340 1.381 . S
C2342 C2343 1.394 . S
C2342 H2350 0.930 . S
C2343 C2342 1.394 . S
C2343 C2344 1.383 . S
C2343 H2351 0.929 . S
C2344 C2343 1.383 . S
C2344 C2345 1.377 . S
C2345 H2329 0.930 . S
C2345 C2344 1.377 . S
C2345 C2346 1.379 . S
C2346 H2330 0.931 . S
C2346 C2340 1.383 . S
C2346 C2345 1.379 . S
H2347 C2341 0.959 . S
H2348 C2341 0.961 . S
H2349 C2341 0.960 . S
H2350 C2342 0.930 . S
H2351 C2343 0.929 . S
H2352 C2360 0.929 . S
H2353 C2362 0.930 . S
H2354 C2364 0.930 . S
H2355 C2367 0.929 . S
H2356 C2370 0.930 . S
H2357 C2372 0.960 . S
H2358 C2372 0.960 . S
H2359 C2372 0.960 . S
C2360 H2352 0.929 . S
C2360 C2361 1.377 . S
C2360 C2362 1.384 . S
C2361 C2360 1.377 . S
C2361 C2367 1.390 . S
C2362 H2353 0.930 . S
C2362 C2360 1.384 . S
C2362 C2363 1.372 . S
C2363 C2362 1.372 . S
C2363 C2364 1.400 . S
C2363 C2368 1.490 . S
C2364 H2354 0.930 . S
C2364 C2363 1.400 . S
C2364 C2367 1.386 . S
H2365 C2381 0.930 . S
H2366 C2382 0.931 . S
C2367 H2355 0.929 . S
C2367 C2361 1.390 . S
C2367 C2364 1.386 . S
C2368 C2363 1.490 . S
C2368 C2370 1.395 . S
C2368 C2371 1.403 . S
H2369 C2375 0.930 . S
C2370 H2356 0.930 . S
C2370 C2368 1.395 . S
C2370 C2373 1.403 . S
C2371 C2368 1.403 . S
C2371 C2372 1.524 . S
C2371 C2375 1.400 . S
C2372 H2357 0.960 . S
C2372 H2358 0.960 . S
C2372 H2359 0.960 . S
C2372 C2371 1.524 . S
C2373 C2370 1.403 . S
C2373 C2374 1.392 . S
C2373 C2377 1.495 . S
C2374 C2373 1.392 . S
C2374 C2375 1.385 . S
C2374 C2376 1.478 . S
C2375 H2369 0.930 . S
C2375 C2371 1.400 . S
C2375 C2374 1.385 . S
C2376 C2374 1.478 . S
C2376 C2378 1.381 . S
C2376 C2382 1.383 . S
C2377 C2373 1.495 . S
C2377 H2383 0.959 . S
C2377 H2384 0.961 . S
C2377 H2385 0.960 . S
C2378 C2376 1.381 . S
C2378 C2379 1.394 . S
C2378 H2386 0.930 . S
C2379 C2378 1.394 . S
C2379 C2380 1.383 . S
C2379 H2387 0.929 . S
C2380 C2379 1.383 . S
C2380 C2381 1.377 . S
C2381 H2365 0.930 . S
C2381 C2380 1.377 . S
C2381 C2382 1.379 . S
C2382 H2366 0.931 . S
C2382 C2376 1.383 . S
C2382 C2381 1.379 . S
H2383 C2377 0.959 . S
H2384 C2377 0.961 . S
H2385 C2377 0.960 . S
H2386 C2378 0.930 . S
H2387 C2379 0.929 . S
H2388 C2396 0.929 . S
H2389 C2398 0.930 . S
H2390 C2400 0.930 . S
H2391 C2403 0.929 . S
H2392 C2406 0.930 . S
H2393 C2408 0.960 . S
H2394 C2408 0.960 . S
H2395 C2408 0.960 . S
C2396 H2388 0.929 . S
C2396 C2397 1.377 . S
C2396 C2398 1.384 . S
C2397 C2396 1.377 . S
C2397 C2403 1.390 . S
C2398 H2389 0.930 . S
C2398 C2396 1.384 . S
C2398 C2399 1.372 . S
C2399 C2398 1.372 . S
C2399 C2400 1.400 . S
C2399 C2404 1.490 . S
C2400 H2390 0.930 . S
C2400 C2399 1.400 . S
C2400 C2403 1.386 . S
H2401 C2417 0.930 . S
H2402 C2418 0.931 . S
C2403 H2391 0.929 . S
C2403 C2397 1.390 . S
C2403 C2400 1.386 . S
C2404 C2399 1.490 . S
C2404 C2406 1.395 . S
C2404 C2407 1.403 . S
H2405 C2411 0.930 . S
C2406 H2392 0.930 . S
C2406 C2404 1.395 . S
C2406 C2409 1.403 . S
C2407 C2404 1.403 . S
C2407 C2408 1.524 . S
C2407 C2411 1.400 . S
C2408 H2393 0.960 . S
C2408 H2394 0.960 . S
C2408 H2395 0.960 . S
C2408 C2407 1.524 . S
C2409 C2406 1.403 . S
C2409 C2410 1.392 . S
C2409 C2413 1.495 . S
C2410 C2409 1.392 . S
C2410 C2411 1.385 . S
C2410 C2412 1.478 . S
C2411 H2405 0.930 . S
C2411 C2407 1.400 . S
C2411 C2410 1.385 . S
C2412 C2410 1.478 . S
C2412 C2414 1.381 . S
C2412 C2418 1.383 . S
C2413 C2409 1.495 . S
C2413 H2419 0.959 . S
C2413 H2420 0.961 . S
C2413 H2421 0.960 . S
C2414 C2412 1.381 . S
C2414 C2415 1.394 . S
C2414 H2422 0.930 . S
C2415 C2414 1.394 . S
C2415 C2416 1.383 . S
C2415 H2423 0.929 . S
C2416 C2415 1.383 . S
C2416 C2417 1.377 . S
C2417 H2401 0.930 . S
C2417 C2416 1.377 . S
C2417 C2418 1.379 . S
C2418 H2402 0.931 . S
C2418 C2412 1.383 . S
C2418 C2417 1.379 . S
H2419 C2413 0.959 . S
H2420 C2413 0.961 . S
H2421 C2413 0.960 . S
H2422 C2414 0.930 . S
H2423 C2415 0.929 . S
H2424 C2432 0.929 . S
H2425 C2434 0.930 . S
H2426 C2436 0.930 . S
H2427 C2439 0.929 . S
H2428 C2442 0.930 . S
H2429 C2444 0.960 . S
H2430 C2444 0.960 . S
H2431 C2444 0.960 . S
C2432 H2424 0.929 . S
C2432 C2433 1.377 . S
C2432 C2434 1.384 . S
C2433 C2432 1.377 . S
C2433 C2439 1.390 . S
C2434 H2425 0.930 . S
C2434 C2432 1.384 . S
C2434 C2435 1.372 . S
C2435 C2434 1.372 . S
C2435 C2436 1.400 . S
C2435 C2440 1.490 . S
C2436 H2426 0.930 . S
C2436 C2435 1.400 . S
C2436 C2439 1.386 . S
H2437 C2453 0.930 . S
H2438 C2454 0.931 . S
C2439 H2427 0.929 . S
C2439 C2433 1.390 . S
C2439 C2436 1.386 . S
C2440 C2435 1.490 . S
C2440 C2442 1.395 . S
C2440 C2443 1.403 . S
H2441 C2447 0.930 . S
C2442 H2428 0.930 . S
C2442 C2440 1.395 . S
C2442 C2445 1.403 . S
C2443 C2440 1.403 . S
C2443 C2444 1.524 . S
C2443 C2447 1.400 . S
C2444 H2429 0.960 . S
C2444 H2430 0.960 . S
C2444 H2431 0.960 . S
C2444 C2443 1.524 . S
C2445 C2442 1.403 . S
C2445 C2446 1.392 . S
C2445 C2449 1.495 . S
C2446 C2445 1.392 . S
C2446 C2447 1.385 . S
C2446 C2448 1.478 . S
C2447 H2441 0.930 . S
C2447 C2443 1.400 . S
C2447 C2446 1.385 . S
C2448 C2446 1.478 . S
C2448 C2450 1.381 . S
C2448 C2454 1.383 . S
C2449 C2445 1.495 . S
C2449 H2455 0.959 . S
C2449 H2456 0.961 . S
C2449 H2457 0.960 . S
C2450 C2448 1.381 . S
C2450 C2451 1.394 . S
C2450 H2458 0.930 . S
C2451 C2450 1.394 . S
C2451 C2452 1.383 . S
C2451 H2459 0.929 . S
C2452 C2451 1.383 . S
C2452 C2453 1.377 . S
C2453 H2437 0.930 . S
C2453 C2452 1.377 . S
C2453 C2454 1.379 . S
C2454 H2438 0.931 . S
C2454 C2448 1.383 . S
C2454 C2453 1.379 . S
H2455 C2449 0.959 . S
H2456 C2449 0.961 . S
H2457 C2449 0.960 . S
H2458 C2450 0.930 . S
H2459 C2451 0.929 . S
H2460 C2468 0.929 . S
H2461 C2470 0.930 . S
H2462 C2472 0.930 . S
H2463 C2475 0.929 . S
H2464 C2478 0.930 . S
H2465 C2480 0.960 . S
H2466 C2480 0.960 . S
H2467 C2480 0.960 . S
C2468 H2460 0.929 . S
C2468 C2469 1.377 . S
C2468 C2470 1.384 . S
C2469 C2468 1.377 . S
C2469 C2475 1.390 . S
C2470 H2461 0.930 . S
C2470 C2468 1.384 . S
C2470 C2471 1.372 . S
C2471 C2470 1.372 . S
C2471 C2472 1.400 . S
C2471 C2476 1.490 . S
C2472 H2462 0.930 . S
C2472 C2471 1.400 . S
C2472 C2475 1.386 . S
H2473 C2489 0.930 . S
H2474 C2490 0.931 . S
C2475 H2463 0.929 . S
C2475 C2469 1.390 . S
C2475 C2472 1.386 . S
C2476 C2471 1.490 . S
C2476 C2478 1.395 . S
C2476 C2479 1.403 . S
H2477 C2483 0.930 . S
C2478 H2464 0.930 . S
C2478 C2476 1.395 . S
C2478 C2481 1.403 . S
C2479 C2476 1.403 . S
C2479 C2480 1.524 . S
C2479 C2483 1.400 . S
C2480 H2465 0.960 . S
C2480 H2466 0.960 . S
C2480 H2467 0.960 . S
C2480 C2479 1.524 . S
C2481 C2478 1.403 . S
C2481 C2482 1.392 . S
C2481 C2485 1.495 . S
C2482 C2481 1.392 . S
C2482 C2483 1.385 . S
C2482 C2484 1.478 . S
C2483 H2477 0.930 . S
C2483 C2479 1.400 . S
C2483 C2482 1.385 . S
C2484 C2482 1.478 . S
C2484 C2486 1.381 . S
C2484 C2490 1.383 . S
C2485 C2481 1.495 . S
C2485 H2491 0.959 . S
C2485 H2492 0.961 . S
C2485 H2493 0.960 . S
C2486 C2484 1.381 . S
C2486 C2487 1.394 . S
C2486 H2494 0.930 . S
C2487 C2486 1.394 . S
C2487 C2488 1.383 . S
C2487 H2495 0.929 . S
C2488 C2487 1.383 . S
C2488 C2489 1.377 . S
C2489 H2473 0.930 . S
C2489 C2488 1.377 . S
C2489 C2490 1.379 . S
C2490 H2474 0.931 . S
C2490 C2484 1.383 . S
C2490 C2489 1.379 . S
H2491 C2485 0.959 . S
H2492 C2485 0.961 . S
H2493 C2485 0.960 . S
H2494 C2486 0.930 . S
H2495 C2487 0.929 . S
H2496 C2504 0.929 . S
H2497 C2506 0.930 . S
H2498 C2508 0.919 1_455 S
H2499 C2511 0.929 . S
H2500 C2514 0.930 . S
H2501 C2516 0.945 1_455 S
H2502 C2516 0.984 . S
H2503 C2516 0.951 1_455 S
C2504 H2496 0.929 . S
C2504 C2505 1.377 . S
C2504 C2506 1.384 . S
C2505 C2504 1.377 . S
C2505 C2511 1.390 . S
C2506 H2497 0.930 . S
C2506 C2504 1.384 . S
C2506 C2507 1.372 . S
C2507 C2506 1.372 . S
C2507 C2508 1.400 . S
C2507 C2512 1.490 . S
C2508 H2498 0.919 1_655 S
C2508 C2507 1.400 . S
C2508 C2511 1.386 . S
H2509 C2525 0.930 . S
H2510 C2526 0.931 . S
C2511 H2499 0.929 . S
C2511 C2505 1.390 . S
C2511 C2508 1.386 . S
C2512 C2507 1.490 . S
C2512 C2514 1.395 . S
C2512 C2515 1.432 . S
H2513 C2519 0.930 . S
C2514 H2500 0.930 . S
C2514 C2512 1.395 . S
C2514 C2517 1.403 . S
C2515 C2512 1.432 . S
C2515 C2516 1.523 . S
C2515 C2519 1.373 1_655 S
C2516 H2501 0.945 1_655 S
C2516 H2502 0.984 . S
C2516 H2503 0.951 1_655 S
C2516 C2515 1.523 . S
C2517 C2514 1.403 . S
C2517 C2518 1.392 1_655 S
C2517 C2521 1.495 . S
C2518 C2517 1.392 1_455 S
C2518 C2519 1.385 . S
C2518 C2520 1.478 . S
C2519 H2513 0.930 . S
C2519 C2515 1.373 1_455 S
C2519 C2518 1.385 . S
C2520 C2518 1.478 . S
C2520 C2522 1.381 . S
C2520 C2526 1.383 . S
C2521 C2517 1.495 . S
C2521 H2527 0.959 . S
C2521 H2528 0.961 1_655 S
C2521 H2529 0.960 . S
C2522 C2520 1.381 . S
C2522 C2523 1.394 . S
C2522 H2530 0.930 1_455 S
C2523 C2522 1.394 . S
C2523 C2524 1.383 . S
C2523 H2531 0.929 . S
C2524 C2523 1.383 . S
C2524 C2525 1.377 . S
C2525 H2509 0.930 . S
C2525 C2524 1.377 . S
C2525 C2526 1.379 . S
C2526 H2510 0.931 . S
C2526 C2520 1.383 . S
C2526 C2525 1.379 . S
H2527 C2521 0.959 . S
H2528 C2521 0.961 1_455 S
H2529 C2521 0.960 . S
H2530 C2522 0.930 1_655 S
H2531 C2523 0.929 . S
H2532 C2540 0.929 . S
H2533 C2542 0.930 . S
H2534 C2544 0.930 . S
H2535 C2547 0.929 . S
H2536 C2550 0.930 . S
H2537 C2552 0.960 . S
H2538 C2552 0.960 . S
H2539 C2552 0.960 . S
C2540 H2532 0.929 . S
C2540 C2541 1.377 . S
C2540 C2542 1.384 . S
C2541 C2540 1.377 . S
C2541 C2547 1.390 . S
C2542 H2533 0.930 . S
C2542 C2540 1.384 . S
C2542 C2543 1.372 . S
C2543 C2542 1.372 . S
C2543 C2544 1.400 . S
C2543 C2548 1.490 . S
C2544 H2534 0.930 . S
C2544 C2543 1.400 . S
C2544 C2547 1.386 . S
H2545 C2561 0.930 . S
H2546 C2562 0.931 . S
C2547 H2535 0.929 . S
C2547 C2541 1.390 . S
C2547 C2544 1.386 . S
C2548 C2543 1.490 . S
C2548 C2550 1.395 1_545 S
C2548 C2551 1.403 . S
H2549 C2555 0.930 . S
C2550 H2536 0.930 . S
C2550 C2548 1.395 1_565 S
C2550 C2553 1.403 . S
C2551 C2548 1.403 . S
C2551 C2552 1.524 . S
C2551 C2555 1.400 . S
C2552 H2537 0.960 . S
C2552 H2538 0.960 . S
C2552 H2539 0.960 . S
C2552 C2551 1.524 . S
C2553 C2550 1.403 . S
C2553 C2554 1.392 . S
C2553 C2557 1.495 . S
C2554 C2553 1.392 . S
C2554 C2555 1.385 1_565 S
C2554 C2556 1.478 . S
C2555 H2549 0.930 . S
C2555 C2551 1.400 . S
C2555 C2554 1.385 1_545 S
C2556 C2554 1.478 . S
C2556 C2558 1.381 . S
C2556 C2562 1.383 . S
C2557 C2553 1.495 . S
C2557 H2563 0.959 . S
C2557 H2564 0.961 . S
C2557 H2565 0.960 . S
C2558 C2556 1.381 . S
C2558 C2559 1.394 . S
C2558 H2566 0.930 . S
C2559 C2558 1.394 . S
C2559 C2560 1.383 . S
C2559 H2567 0.929 . S
C2560 C2559 1.383 . S
C2560 C2561 1.377 . S
C2561 H2545 0.930 . S
C2561 C2560 1.377 . S
C2561 C2562 1.379 . S
C2562 H2546 0.931 . S
C2562 C2556 1.383 . S
C2562 C2561 1.379 . S
H2563 C2557 0.959 . S
H2564 C2557 0.961 . S
H2565 C2557 0.960 . S
H2566 C2558 0.930 . S
H2567 C2559 0.929 . S
H2568 C2576 0.929 . S
H2569 C2578 0.930 . S
H2570 C2580 0.930 . S
H2571 C2583 0.929 . S
H2572 C2586 0.930 . S
H2573 C2588 0.960 . S
H2574 C2588 0.960 . S
H2575 C2588 0.960 . S
C2576 H2568 0.929 . S
C2576 C2577 1.377 . S
C2576 C2578 1.384 . S
C2577 C2576 1.377 . S
C2577 C2583 1.390 . S
C2578 H2569 0.930 . S
C2578 C2576 1.384 . S
C2578 C2579 1.372 . S
C2579 C2578 1.372 . S
C2579 C2580 1.400 . S
C2579 C2584 1.490 . S
C2580 H2570 0.930 . S
C2580 C2579 1.400 . S
C2580 C2583 1.386 . S
H2581 C2597 0.930 . S
H2582 C2598 0.931 . S
C2583 H2571 0.929 . S
C2583 C2577 1.390 . S
C2583 C2580 1.386 . S
C2584 C2579 1.490 . S
C2584 C2586 1.395 . S
C2584 C2587 1.403 1_655 S
H2585 C2591 0.930 . S
C2586 H2572 0.930 . S
C2586 C2584 1.395 . S
C2586 C2589 1.403 . S
C2587 C2584 1.403 1_455 S
C2587 C2588 1.524 . S
C2587 C2591 1.400 . S
C2588 H2573 0.960 . S
C2588 H2574 0.960 . S
C2588 H2575 0.960 . S
C2588 C2587 1.524 . S
C2589 C2586 1.403 . S
C2589 C2590 1.392 1_655 S
C2589 C2593 1.495 . S
C2590 C2589 1.392 1_455 S
C2590 C2591 1.385 . S
C2590 C2592 1.478 . S
C2591 H2585 0.930 . S
C2591 C2587 1.400 . S
C2591 C2590 1.385 . S
C2592 C2590 1.478 . S
C2592 C2594 1.381 . S
C2592 C2598 1.383 . S
C2593 C2589 1.495 . S
C2593 H2599 0.959 . S
C2593 H2600 0.961 . S
C2593 H2601 0.960 . S
C2594 C2592 1.381 . S
C2594 C2595 1.394 . S
C2594 H2602 0.954 . S
C2595 C2594 1.394 . S
C2595 C2596 1.383 . S
C2595 H2603 0.929 . S
C2596 C2595 1.383 . S
C2596 C2597 1.377 . S
C2597 H2581 0.930 . S
C2597 C2596 1.377 . S
C2597 C2598 1.379 . S
C2598 H2582 0.931 . S
C2598 C2592 1.383 . S
C2598 C2597 1.379 . S
H2599 C2593 0.959 . S
H2600 C2593 0.961 . S
H2601 C2593 0.960 . S
H2602 C2594 0.954 . S
H2603 C2595 0.929 . S
H2604 C2612 0.929 . S
H2605 C2614 0.930 . S
H2606 C2616 0.930 . S
H2607 C2619 0.929 . S
H2608 C2622 0.930 . S
H2609 C2624 0.960 . S
H2610 C2624 0.960 . S
H2611 C2624 0.960 . S
C2612 H2604 0.929 . S
C2612 C2613 1.377 . S
C2612 C2614 1.384 . S
C2613 C2612 1.377 . S
C2613 C2619 1.390 . S
C2614 H2605 0.930 . S
C2614 C2612 1.384 . S
C2614 C2615 1.372 . S
C2615 C2614 1.372 . S
C2615 C2616 1.400 . S
C2615 C2620 1.490 . S
C2616 H2606 0.930 . S
C2616 C2615 1.400 . S
C2616 C2619 1.386 . S
H2617 C2633 0.930 . S
H2618 C2634 0.931 . S
C2619 H2607 0.929 . S
C2619 C2613 1.390 . S
C2619 C2616 1.386 . S
C2620 C2615 1.490 . S
C2620 C2622 1.395 . S
C2620 C2623 1.403 1_565 S
H2621 C2627 0.930 . S
C2622 H2608 0.930 . S
C2622 C2620 1.395 . S
C2622 C2625 1.403 . S
C2623 C2620 1.403 1_545 S
C2623 C2624 1.524 . S
C2623 C2627 1.400 . S
C2624 H2609 0.960 . S
C2624 H2610 0.960 . S
C2624 H2611 0.960 . S
C2624 C2623 1.524 . S
C2625 C2622 1.403 . S
C2625 C2626 1.392 1_565 S
C2625 C2629 1.495 . S
C2626 C2625 1.392 1_545 S
C2626 C2627 1.385 . S
C2626 C2628 1.478 . S
C2627 H2621 0.930 . S
C2627 C2623 1.400 . S
C2627 C2626 1.385 . S
C2628 C2626 1.478 . S
C2628 C2630 1.381 . S
C2628 C2634 1.383 . S
C2629 C2625 1.495 . S
C2629 H2635 0.959 . S
C2629 H2636 0.961 . S
C2629 H2637 0.960 . S
C2630 C2628 1.381 . S
C2630 C2631 1.394 . S
C2630 H2638 0.930 . S
C2631 C2630 1.394 . S
C2631 C2632 1.383 . S
C2631 H2639 0.929 . S
C2632 C2631 1.383 . S
C2632 C2633 1.377 . S
C2633 H2617 0.930 . S
C2633 C2632 1.377 . S
C2633 C2634 1.379 . S
C2634 H2618 0.931 . S
C2634 C2628 1.383 . S
C2634 C2633 1.379 . S
H2635 C2629 0.959 . S
H2636 C2629 0.961 . S
H2637 C2629 0.960 . S
H2638 C2630 0.930 . S
H2639 C2631 0.929 . S
H2640 C2648 0.929 . S
H2641 C2650 0.930 . S
H2642 C2652 0.930 . S
H2643 C2655 0.929 . S
H2644 C2658 0.930 . S
H2645 C2660 0.960 . S
H2646 C2660 0.960 . S
H2647 C2660 0.960 1_545 S
C2648 H2640 0.929 . S
C2648 C2649 1.377 . S
C2648 C2650 1.384 . S
C2649 C2648 1.377 . S
C2649 C2655 1.390 . S
C2650 H2641 0.930 . S
C2650 C2648 1.384 . S
C2650 C2651 1.372 . S
C2651 C2650 1.372 . S
C2651 C2652 1.400 . S
C2651 C2656 1.490 . S
C2652 H2642 0.930 . S
C2652 C2651 1.400 . S
C2652 C2655 1.386 . S
H2653 C2669 0.930 . S
H2654 C2670 0.931 . S
C2655 H2643 0.929 . S
C2655 C2649 1.390 . S
C2655 C2652 1.386 . S
C2656 C2651 1.490 . S
C2656 C2658 1.395 . S
C2656 C2659 1.403 1_545 S
H2657 C2663 0.930 . S
C2658 H2644 0.930 . S
C2658 C2656 1.395 . S
C2658 C2661 1.403 . S
C2659 C2656 1.403 1_565 S
C2659 C2660 1.524 . S
C2659 C2663 1.400 . S
C2660 H2645 0.960 . S
C2660 H2646 0.960 . S
C2660 H2647 0.960 1_565 S
C2660 C2659 1.524 . S
C2661 C2658 1.403 . S
C2661 C2662 1.392 1_545 S
C2661 C2665 1.495 . S
C2662 C2661 1.392 1_565 S
C2662 C2663 1.385 . S
C2662 C2664 1.478 . S
C2663 H2657 0.930 . S
C2663 C2659 1.400 . S
C2663 C2662 1.385 . S
C2664 C2662 1.478 . S
C2664 C2666 1.381 . S
C2664 C2670 1.383 . S
C2665 C2661 1.495 . S
C2665 H2671 0.959 . S
C2665 H2672 0.961 . S
C2665 H2673 0.960 1_545 S
C2666 C2664 1.381 . S
C2666 C2667 1.394 . S
C2666 H2674 0.930 . S
C2667 C2666 1.394 . S
C2667 C2668 1.383 . S
C2667 H2675 0.929 . S
C2668 C2667 1.383 . S
C2668 C2669 1.377 . S
C2669 H2653 0.930 . S
C2669 C2668 1.377 . S
C2669 C2670 1.379 . S
C2670 H2654 0.931 . S
C2670 C2664 1.383 . S
C2670 C2669 1.379 . S
H2671 C2665 0.959 . S
H2672 C2665 0.961 . S
H2673 C2665 0.960 1_565 S
H2674 C2666 0.930 . S
H2675 C2667 0.929 . S
H2676 C2684 0.929 . S
H2677 C2686 0.930 . S
H2678 C2688 0.930 . S
H2679 C2691 0.929 . S
H2680 C2694 0.930 . S
H2681 C2696 0.960 . S
H2682 C2696 0.960 . S
H2683 C2696 0.960 . S
C2684 H2676 0.929 . S
C2684 C2685 1.377 . S
C2684 C2686 1.384 . S
C2685 C2684 1.377 . S
C2685 C2691 1.390 . S
C2686 H2677 0.930 . S
C2686 C2684 1.384 . S
C2686 C2687 1.372 . S
C2687 C2686 1.372 . S
C2687 C2688 1.400 . S
C2687 C2692 1.490 . S
C2688 H2678 0.930 . S
C2688 C2687 1.400 . S
C2688 C2691 1.386 . S
H2689 C2705 0.930 . S
H2690 C2706 0.931 . S
C2691 H2679 0.929 . S
C2691 C2685 1.390 . S
C2691 C2688 1.386 . S
C2692 C2687 1.490 . S
C2692 C2694 1.395 1_455 S
C2692 C2695 1.403 . S
H2693 C2699 0.930 . S
C2694 H2680 0.930 . S
C2694 C2692 1.395 1_655 S
C2694 C2697 1.403 . S
C2695 C2692 1.403 . S
C2695 C2696 1.524 . S
C2695 C2699 1.400 . S
C2696 H2681 0.960 . S
C2696 H2682 0.960 . S
C2696 H2683 0.960 . S
C2696 C2695 1.524 . S
C2697 C2694 1.403 . S
C2697 C2698 1.392 . S
C2697 C2701 1.495 . S
C2698 C2697 1.392 . S
C2698 C2699 1.385 1_655 S
C2698 C2700 1.478 . S
C2699 H2693 0.930 . S
C2699 C2695 1.400 . S
C2699 C2698 1.385 1_455 S
C2700 C2698 1.478 . S
C2700 C2702 1.381 . S
C2700 C2706 1.383 . S
C2701 C2697 1.495 . S
C2701 H2707 0.959 . S
C2701 H2708 0.961 . S
C2701 H2709 0.960 . S
C2702 C2700 1.381 . S
C2702 C2703 1.394 . S
C2702 H2710 0.930 . S
C2703 C2702 1.394 . S
C2703 C2704 1.383 . S
C2703 H2711 0.929 . S
C2704 C2703 1.383 . S
C2704 C2705 1.377 . S
C2705 H2689 0.930 . S
C2705 C2704 1.377 . S
C2705 C2706 1.379 . S
C2706 H2690 0.931 . S
C2706 C2700 1.383 . S
C2706 C2705 1.379 . S
H2707 C2701 0.959 . S
H2708 C2701 0.961 . S
H2709 C2701 0.960 . S
H2710 C2702 0.930 . S
H2711 C2703 0.929 . S
H2712 C2720 0.929 . S
H2713 C2722 0.930 . S
H2714 C2724 0.930 . S
H2715 C2727 0.929 . S
H2716 C2730 0.930 . S
H2717 C2732 0.960 . S
H2718 C2732 0.960 . S
H2719 C2732 0.960 . S
C2720 H2712 0.929 . S
C2720 C2721 1.377 . S
C2720 C2722 1.384 . S
C2721 C2720 1.377 . S
C2721 C2727 1.390 . S
C2722 H2713 0.930 . S
C2722 C2720 1.384 . S
C2722 C2723 1.372 . S
C2723 C2722 1.372 . S
C2723 C2724 1.400 . S
C2723 C2728 1.490 . S
C2724 H2714 0.930 . S
C2724 C2723 1.400 . S
C2724 C2727 1.386 . S
H2725 C2741 0.930 . S
H2726 C2742 0.931 . S
C2727 H2715 0.929 . S
C2727 C2721 1.390 . S
C2727 C2724 1.386 . S
C2728 C2723 1.490 . S
C2728 C2730 1.395 . S
C2728 C2731 1.403 1_545 S
H2729 C2735 0.930 . S
C2730 H2716 0.930 . S
C2730 C2728 1.395 . S
C2730 C2733 1.403 . S
C2731 C2728 1.403 1_565 S
C2731 C2732 1.524 . S
C2731 C2735 1.400 . S
C2732 H2717 0.960 . S
C2732 H2718 0.960 . S
C2732 H2719 0.960 . S
C2732 C2731 1.524 . S
C2733 C2730 1.403 . S
C2733 C2734 1.392 1_545 S
C2733 C2737 1.495 . S
C2734 C2733 1.392 1_565 S
C2734 C2735 1.385 . S
C2734 C2736 1.478 . S
C2735 H2729 0.930 . S
C2735 C2731 1.400 . S
C2735 C2734 1.385 . S
C2736 C2734 1.478 . S
C2736 C2738 1.381 . S
C2736 C2742 1.383 . S
C2737 C2733 1.495 . S
C2737 H2743 0.959 . S
C2737 H2744 0.961 . S
C2737 H2745 0.960 . S
C2738 C2736 1.381 . S
C2738 C2739 1.394 . S
C2738 H2746 0.930 . S
C2739 C2738 1.394 . S
C2739 C2740 1.383 . S
C2739 H2747 0.929 . S
C2740 C2739 1.383 . S
C2740 C2741 1.377 . S
C2741 H2725 0.930 . S
C2741 C2740 1.377 . S
C2741 C2742 1.379 . S
C2742 H2726 0.931 . S
C2742 C2736 1.383 . S
C2742 C2741 1.379 . S
H2743 C2737 0.959 . S
H2744 C2737 0.961 . S
H2745 C2737 0.960 . S
H2746 C2738 0.930 . S
H2747 C2739 0.929 . S
H2748 C2756 0.929 . S
H2749 C2758 0.930 . S
H2750 C2760 0.930 . S
H2751 C2763 0.929 . S
H2752 C2766 0.930 . S
H2753 C2768 0.960 . S
H2754 C2768 0.960 . S
H2755 C2768 0.960 . S
C2756 H2748 0.929 . S
C2756 C2757 1.377 . S
C2756 C2758 1.384 . S
C2757 C2756 1.377 . S
C2757 C2763 1.390 . S
C2758 H2749 0.930 . S
C2758 C2756 1.384 . S
C2758 C2759 1.372 . S
C2759 C2758 1.372 . S
C2759 C2760 1.400 . S
C2759 C2764 1.490 . S
C2760 H2750 0.930 . S
C2760 C2759 1.400 . S
C2760 C2763 1.386 . S
H2761 C2777 0.930 . S
H2762 C2778 0.931 . S
C2763 H2751 0.929 . S
C2763 C2757 1.390 . S
C2763 C2760 1.386 . S
C2764 C2759 1.490 . S
C2764 C2766 1.395 . S
C2764 C2767 1.403 1_655 S
H2765 C2771 0.930 . S
C2766 H2752 0.930 . S
C2766 C2764 1.395 . S
C2766 C2769 1.403 . S
C2767 C2764 1.403 1_455 S
C2767 C2768 1.524 . S
C2767 C2771 1.400 . S
C2768 H2753 0.960 . S
C2768 H2754 0.960 . S
C2768 H2755 0.960 . S
C2768 C2767 1.524 . S
C2769 C2766 1.403 . S
C2769 C2770 1.392 1_655 S
C2769 C2773 1.495 . S
C2770 C2769 1.392 1_455 S
C2770 C2771 1.385 . S
C2770 C2772 1.478 . S
C2771 H2765 0.930 . S
C2771 C2767 1.400 . S
C2771 C2770 1.385 . S
C2772 C2770 1.478 . S
C2772 C2774 1.381 . S
C2772 C2778 1.383 . S
C2773 C2769 1.495 . S
C2773 H2779 0.959 . S
C2773 H2780 0.961 . S
C2773 H2781 0.960 . S
C2774 C2772 1.381 . S
C2774 C2775 1.394 . S
C2774 H2782 0.930 . S
C2775 C2774 1.394 . S
C2775 C2776 1.383 . S
C2775 H2783 0.929 . S
C2776 C2775 1.383 . S
C2776 C2777 1.377 . S
C2777 H2761 0.930 . S
C2777 C2776 1.377 . S
C2777 C2778 1.379 . S
C2778 H2762 0.931 . S
C2778 C2772 1.383 . S
C2778 C2777 1.379 . S
H2779 C2773 0.959 . S
H2780 C2773 0.961 . S
H2781 C2773 0.960 . S
H2782 C2774 0.930 . S
H2783 C2775 0.929 . S
H2784 C2792 0.929 . S
H2785 C2794 0.930 . S
H2786 C2796 1.006 . S
H2787 C2799 0.929 . S
H2788 C2802 0.930 . S
H2789 C2804 0.982 . S
H2790 C2804 0.960 . S
H2791 C2804 0.960 . S
C2792 H2784 0.929 . S
C2792 C2793 1.377 . S
C2792 C2794 1.384 . S
C2793 C2792 1.377 . S
C2793 C2799 1.390 . S
C2794 H2785 0.930 . S
C2794 C2792 1.384 . S
C2794 C2795 1.372 . S
C2795 C2794 1.372 . S
C2795 C2796 1.400 . S
C2795 C2800 1.490 . S
C2796 H2786 1.006 . S
C2796 C2795 1.400 . S
C2796 C2799 1.386 . S
H2797 C2813 0.930 . S
H2798 C2814 0.931 . S
C2799 H2787 0.929 . S
C2799 C2793 1.390 . S
C2799 C2796 1.386 . S
C2800 C2795 1.490 . S
C2800 C2802 1.395 . S
C2800 C2803 1.403 . S
H2801 C2807 0.930 . S
C2802 H2788 0.930 . S
C2802 C2800 1.395 . S
C2802 C2805 1.403 1_556 S
C2803 C2800 1.403 . S
C2803 C2804 1.524 . S
C2803 C2807 1.400 1_556 S
C2804 H2789 0.982 . S
C2804 H2790 0.960 . S
C2804 H2791 0.960 . S
C2804 C2803 1.524 . S
C2805 C2802 1.403 1_554 S
C2805 C2806 1.392 . S
C2805 C2809 1.495 . S
C2806 C2805 1.392 . S
C2806 C2807 1.385 . S
C2806 C2808 1.478 . S
C2807 H2801 0.930 . S
C2807 C2803 1.400 1_554 S
C2807 C2806 1.385 . S
C2808 C2806 1.478 . S
C2808 C2810 1.381 . S
C2808 C2814 1.383 . S
C2809 C2805 1.495 . S
C2809 H2815 0.959 1_554 S
C2809 H2816 0.961 . S
C2809 H2817 0.953 1_554 S
C2810 C2808 1.381 . S
C2810 C2811 1.394 . S
C2810 H2818 0.936 1_554 S
C2811 C2810 1.394 . S
C2811 C2812 1.383 . S
C2811 H2819 0.929 . S
C2812 C2811 1.383 . S
C2812 C2813 1.377 . S
C2813 H2797 0.930 . S
C2813 C2812 1.377 . S
C2813 C2814 1.379 . S
C2814 H2798 0.931 . S
C2814 C2808 1.383 . S
C2814 C2813 1.379 . S
H2815 C2809 0.959 1_556 S
H2816 C2809 0.961 . S
H2817 C2809 0.953 1_556 S
H2818 C2810 0.936 1_556 S
H2819 C2811 0.929 . S
H2820 C2828 0.929 . S
H2821 C2830 0.930 . S
H2822 C2832 0.930 . S
H2823 C2835 0.929 . S
H2824 C2838 0.930 . S
H2825 C2840 0.960 . S
H2826 C2840 0.960 . S
H2827 C2840 0.960 . S
C2828 H2820 0.929 . S
C2828 C2829 1.377 . S
C2828 C2830 1.384 . S
C2829 C2828 1.377 . S
C2829 C2835 1.390 . S
C2830 H2821 0.930 . S
C2830 C2828 1.384 . S
C2830 C2831 1.372 . S
C2831 C2830 1.372 . S
C2831 C2832 1.400 . S
C2831 C2836 1.490 . S
C2832 H2822 0.930 . S
C2832 C2831 1.400 . S
C2832 C2835 1.386 . S
H2833 C2849 0.930 . S
H2834 C2850 0.931 . S
C2835 H2823 0.929 . S
C2835 C2829 1.390 . S
C2835 C2832 1.386 . S
C2836 C2831 1.490 . S
C2836 C2838 1.395 . S
C2836 C2839 1.403 1_556 S
H2837 C2843 0.930 . S
C2838 H2824 0.930 . S
C2838 C2836 1.395 . S
C2838 C2841 1.403 . S
C2839 C2836 1.403 1_554 S
C2839 C2840 1.524 . S
C2839 C2843 1.400 . S
C2840 H2825 0.960 . S
C2840 H2826 0.960 . S
C2840 H2827 0.960 . S
C2840 C2839 1.524 . S
C2841 C2838 1.403 . S
C2841 C2842 1.392 1_556 S
C2841 C2845 1.495 . S
C2842 C2841 1.392 1_554 S
C2842 C2843 1.385 . S
C2842 C2844 1.478 . S
C2843 H2837 0.930 . S
C2843 C2839 1.400 . S
C2843 C2842 1.385 . S
C2844 C2842 1.478 . S
C2844 C2846 1.381 . S
C2844 C2850 1.383 . S
C2845 C2841 1.495 . S
C2845 H2851 0.959 . S
C2845 H2852 0.961 . S
C2845 H2853 0.960 . S
C2846 C2844 1.381 . S
C2846 C2847 1.394 . S
C2846 H2854 0.930 . S
C2847 C2846 1.394 . S
C2847 C2848 1.383 . S
C2847 H2855 0.929 . S
C2848 C2847 1.383 . S
C2848 C2849 1.377 . S
C2849 H2833 0.930 . S
C2849 C2848 1.377 . S
C2849 C2850 1.379 . S
C2850 H2834 0.931 . S
C2850 C2844 1.383 . S
C2850 C2849 1.379 . S
H2851 C2845 0.959 . S
H2852 C2845 0.961 . S
H2853 C2845 0.960 . S
H2854 C2846 0.930 . S
H2855 C2847 0.929 . S
H2856 C2864 0.929 . S
H2857 C2866 0.930 . S
H2858 C2868 0.930 . S
H2859 C2871 0.929 . S
H2860 C2874 0.930 . S
H2861 C2876 0.960 . S
H2862 C2876 0.960 . S
H2863 C2876 0.960 . S
C2864 H2856 0.929 . S
C2864 C2865 1.377 . S
C2864 C2866 1.384 . S
C2865 C2864 1.377 . S
C2865 C2871 1.390 . S
C2866 H2857 0.930 . S
C2866 C2864 1.384 . S
C2866 C2867 1.372 . S
C2867 C2866 1.372 . S
C2867 C2868 1.400 . S
C2867 C2872 1.490 . S
C2868 H2858 0.930 . S
C2868 C2867 1.400 . S
C2868 C2871 1.386 . S
H2869 C2885 0.930 . S
H2870 C2886 0.931 . S
C2871 H2859 0.929 . S
C2871 C2865 1.390 . S
C2871 C2868 1.386 . S
C2872 C2867 1.490 . S
C2872 C2874 1.395 . S
C2872 C2875 1.403 1_556 S
H2873 C2879 0.930 . S
C2874 H2860 0.930 . S
C2874 C2872 1.395 . S
C2874 C2877 1.403 . S
C2875 C2872 1.403 1_554 S
C2875 C2876 1.524 . S
C2875 C2879 1.400 . S
C2876 H2861 0.960 . S
C2876 H2862 0.960 . S
C2876 H2863 0.960 . S
C2876 C2875 1.524 . S
C2877 C2874 1.403 . S
C2877 C2878 1.392 1_556 S
C2877 C2881 1.495 . S
C2878 C2877 1.392 1_554 S
C2878 C2879 1.385 . S
C2878 C2880 1.478 . S
C2879 H2873 0.930 . S
C2879 C2875 1.400 . S
C2879 C2878 1.385 . S
C2880 C2878 1.478 . S
C2880 C2882 1.381 . S
C2880 C2886 1.383 . S
C2881 C2877 1.495 . S
C2881 H2887 0.959 . S
C2881 H2888 0.961 . S
C2881 H2889 0.960 . S
C2882 C2880 1.381 . S
C2882 C2883 1.394 . S
C2882 H2890 0.930 . S
C2883 C2882 1.394 . S
C2883 C2884 1.383 . S
C2883 H2891 0.929 . S
C2884 C2883 1.383 . S
C2884 C2885 1.377 . S
C2885 H2869 0.930 . S
C2885 C2884 1.377 . S
C2885 C2886 1.379 . S
C2886 H2870 0.931 . S
C2886 C2880 1.383 . S
C2886 C2885 1.379 . S
H2887 C2881 0.959 . S
H2888 C2881 0.961 . S
H2889 C2881 0.960 . S
H2890 C2882 0.930 . S
H2891 C2883 0.929 . S
H2892 C2900 0.929 . S
H2893 C2902 0.930 . S
H2894 C2904 0.930 . S
H2895 C2907 0.929 . S
H2896 C2910 0.930 . S
H2897 C2912 0.960 . S
H2898 C2912 0.960 . S
H2899 C2912 0.960 . S
C2900 H2892 0.929 . S
C2900 C2901 1.377 . S
C2900 C2902 1.384 . S
C2901 C2900 1.377 . S
C2901 C2907 1.390 . S
C2902 H2893 0.930 . S
C2902 C2900 1.384 . S
C2902 C2903 1.372 . S
C2903 C2902 1.372 . S
C2903 C2904 1.400 . S
C2903 C2908 1.490 . S
C2904 H2894 0.930 . S
C2904 C2903 1.400 . S
C2904 C2907 1.386 . S
H2905 C2921 0.930 . S
H2906 C2922 0.931 . S
C2907 H2895 0.929 . S
C2907 C2901 1.390 . S
C2907 C2904 1.386 . S
C2908 C2903 1.490 . S
C2908 C2910 1.395 1_556 S
C2908 C2911 1.403 . S
H2909 C2915 0.930 . S
C2910 H2896 0.930 . S
C2910 C2908 1.395 1_554 S
C2910 C2913 1.403 . S
C2911 C2908 1.403 . S
C2911 C2912 1.524 . S
C2911 C2915 1.400 . S
C2912 H2897 0.960 . S
C2912 H2898 0.960 . S
C2912 H2899 0.960 . S
C2912 C2911 1.524 . S
C2913 C2910 1.403 . S
C2913 C2914 1.392 . S
C2913 C2917 1.495 . S
C2914 C2913 1.392 . S
C2914 C2915 1.385 1_554 S
C2914 C2916 1.478 . S
C2915 H2909 0.930 . S
C2915 C2911 1.400 . S
C2915 C2914 1.385 1_556 S
C2916 C2914 1.478 . S
C2916 C2918 1.381 . S
C2916 C2922 1.383 . S
C2917 C2913 1.495 . S
C2917 H2923 0.959 . S
C2917 H2924 0.961 . S
C2917 H2925 0.960 . S
C2918 C2916 1.381 . S
C2918 C2919 1.394 . S
C2918 H2926 0.930 . S
C2919 C2918 1.394 . S
C2919 C2920 1.383 . S
C2919 H2927 0.929 . S
C2920 C2919 1.383 . S
C2920 C2921 1.377 . S
C2921 H2905 0.930 . S
C2921 C2920 1.377 . S
C2921 C2922 1.379 . S
C2922 H2906 0.931 . S
C2922 C2916 1.383 . S
C2922 C2921 1.379 . S
H2923 C2917 0.959 . S
H2924 C2917 0.961 . S
H2925 C2917 0.960 . S
H2926 C2918 0.930 . S
H2927 C2919 0.929 . S
H2928 C2936 0.929 . S
H2929 C2938 0.930 . S
H2930 C2940 0.930 . S
H2931 C2943 0.929 . S
H2932 C2946 0.930 . S
H2933 C2948 0.960 . S
H2934 C2948 0.960 1_545 S
H2935 C2948 0.960 1_545 S
C2936 H2928 0.929 . S
C2936 C2937 1.377 . S
C2936 C2938 1.384 . S
C2937 C2936 1.377 . S
C2937 C2943 1.390 . S
C2938 H2929 0.930 . S
C2938 C2936 1.384 . S
C2938 C2939 1.372 . S
C2939 C2938 1.372 . S
C2939 C2940 1.400 . S
C2939 C2944 1.490 . S
C2940 H2930 0.930 . S
C2940 C2939 1.400 . S
C2940 C2943 1.386 . S
H2941 C2957 0.930 . S
H2942 C2958 0.931 . S
C2943 H2931 0.929 . S
C2943 C2937 1.390 . S
C2943 C2940 1.386 . S
C2944 C2939 1.490 . S
C2944 C2946 1.395 . S
C2944 C2947 1.404 1_545 S
H2945 C2951 0.930 . S
C2946 H2932 0.930 . S
C2946 C2944 1.395 . S
C2946 C2949 1.403 . S
C2947 C2944 1.404 1_565 S
C2947 C2948 1.524 . S
C2947 C2951 1.399 . S
C2948 H2933 0.960 . S
C2948 H2934 0.960 1_565 S
C2948 H2935 0.960 1_565 S
C2948 C2947 1.524 . S
C2949 C2946 1.403 . S
C2949 C2950 1.392 1_545 S
C2949 C2953 1.495 . S
C2950 C2949 1.392 1_565 S
C2950 C2951 1.385 . S
C2950 C2952 1.478 . S
C2951 H2945 0.930 . S
C2951 C2947 1.399 . S
C2951 C2950 1.385 . S
C2952 C2950 1.478 . S
C2952 C2954 1.381 . S
C2952 C2958 1.383 . S
C2953 C2949 1.495 . S
C2953 H2959 0.959 . S
C2953 H2960 0.961 1_545 S
C2953 H2961 0.960 1_545 S
C2954 C2952 1.381 . S
C2954 C2955 1.394 . S
C2954 H2962 0.930 . S
C2955 C2954 1.394 . S
C2955 C2956 1.383 . S
C2955 H2963 0.929 . S
C2956 C2955 1.383 . S
C2956 C2957 1.377 . S
C2957 H2941 0.930 . S
C2957 C2956 1.377 . S
C2957 C2958 1.379 . S
C2958 H2942 0.931 . S
C2958 C2952 1.383 . S
C2958 C2957 1.379 . S
H2959 C2953 0.959 . S
H2960 C2953 0.961 1_565 S
H2961 C2953 0.960 1_565 S
H2962 C2954 0.930 . S
H2963 C2955 0.929 . S
H2964 C2972 0.929 . S
H2965 C2974 0.930 . S
H2966 C2976 0.930 . S
H2967 C2979 0.929 . S
H2968 C2982 0.942 . S
H2969 C2984 0.960 . S
H2970 C2984 0.960 . S
H2971 C2984 0.960 . S
C2972 H2964 0.929 . S
C2972 C2973 1.377 . S
C2972 C2974 1.384 . S
C2973 C2972 1.377 . S
C2973 C2979 1.390 . S
C2974 H2965 0.930 . S
C2974 C2972 1.384 . S
C2974 C2975 1.372 . S
C2975 C2974 1.372 . S
C2975 C2976 1.400 . S
C2975 C2980 1.490 . S
C2976 H2966 0.930 . S
C2976 C2975 1.400 . S
C2976 C2979 1.386 . S
H2977 C2993 0.930 . S
H2978 C2994 0.931 . S
C2979 H2967 0.929 . S
C2979 C2973 1.390 . S
C2979 C2976 1.386 . S
C2980 C2975 1.490 . S
C2980 C2982 1.453 . S
C2980 C2983 1.403 . S
H2981 C2987 0.930 . S
C2982 H2968 0.942 . S
C2982 C2980 1.453 . S
C2982 C2985 1.338 1_655 S
C2983 C2980 1.403 . S
C2983 C2984 1.524 . S
C2983 C2987 1.400 1_655 S
C2984 H2969 0.960 . S
C2984 H2970 0.960 . S
C2984 H2971 0.960 . S
C2984 C2983 1.524 . S
C2985 C2982 1.338 1_455 S
C2985 C2986 1.392 . S
C2985 C2989 1.495 . S
C2986 C2985 1.392 . S
C2986 C2987 1.385 . S
C2986 C2988 1.478 . S
C2987 H2981 0.930 . S
C2987 C2983 1.400 1_455 S
C2987 C2986 1.385 . S
C2988 C2986 1.478 . S
C2988 C2990 1.381 . S
C2988 C2994 1.383 . S
C2989 C2985 1.495 . S
C2989 H2995 0.959 . S
C2989 H2996 0.961 . S
C2989 H2997 0.960 . S
C2990 C2988 1.381 . S
C2990 C2991 1.394 . S
C2990 H2998 0.930 . S
C2991 C2990 1.394 . S
C2991 C2992 1.383 . S
C2991 H2999 0.929 . S
C2992 C2991 1.383 . S
C2992 C2993 1.377 . S
C2993 H2977 0.930 . S
C2993 C2992 1.377 . S
C2993 C2994 1.379 . S
C2994 H2978 0.931 . S
C2994 C2988 1.383 . S
C2994 C2993 1.379 . S
H2995 C2989 0.959 . S
H2996 C2989 0.961 . S
H2997 C2989 0.960 . S
H2998 C2990 0.930 . S
H2999 C2991 0.929 . S
H3000 C3008 0.929 . S
H3001 C3010 0.930 . S
H3002 C3012 0.930 . S
H3003 C3015 0.929 . S
H3004 C3018 0.930 . S
H3005 C3020 0.960 . S
H3006 C3020 0.960 1_565 S
H3007 C3020 0.960 1_565 S
C3008 H3000 0.929 . S
C3008 C3009 1.377 . S
C3008 C3010 1.384 . S
C3009 C3008 1.377 . S
C3009 C3015 1.390 . S
C3010 H3001 0.930 . S
C3010 C3008 1.384 . S
C3010 C3011 1.372 . S
C3011 C3010 1.372 . S
C3011 C3012 1.400 . S
C3011 C3016 1.490 . S
C3012 H3002 0.930 . S
C3012 C3011 1.400 . S
C3012 C3015 1.386 . S
H3013 C3029 0.930 . S
H3014 C3030 0.931 . S
C3015 H3003 0.929 . S
C3015 C3009 1.390 . S
C3015 C3012 1.386 . S
C3016 C3011 1.490 . S
C3016 C3018 1.395 . S
C3016 C3019 1.403 . S
H3017 C3023 0.930 . S
C3018 H3004 0.930 . S
C3018 C3016 1.395 . S
C3018 C3021 1.403 . S
C3019 C3016 1.403 . S
C3019 C3020 1.524 1_565 S
C3019 C3023 1.399 1_565 S
C3020 H3005 0.960 . S
C3020 H3006 0.960 1_545 S
C3020 H3007 0.960 1_545 S
C3020 C3019 1.524 1_545 S
C3021 C3018 1.403 . S
C3021 C3022 1.392 1_565 S
C3021 C3025 1.495 . S
C3022 C3021 1.392 1_545 S
C3022 C3023 1.385 . S
C3022 C3024 1.478 . S
C3023 H3017 0.930 . S
C3023 C3019 1.399 1_545 S
C3023 C3022 1.385 . S
C3024 C3022 1.478 . S
C3024 C3026 1.381 . S
C3024 C3030 1.383 . S
C3025 C3021 1.495 . S
C3025 H3031 0.959 . S
C3025 H3032 0.961 1_565 S
C3025 H3033 0.958 1_565 S
C3026 C3024 1.381 . S
C3026 C3027 1.394 . S
C3026 H3034 0.930 . S
C3027 C3026 1.394 . S
C3027 C3028 1.383 . S
C3027 H3035 0.929 . S
C3028 C3027 1.383 . S
C3028 C3029 1.377 . S
C3029 H3013 0.930 . S
C3029 C3028 1.377 . S
C3029 C3030 1.379 . S
C3030 H3014 0.931 . S
C3030 C3024 1.383 . S
C3030 C3029 1.379 . S
H3031 C3025 0.959 . S
H3032 C3025 0.961 1_545 S
H3033 C3025 0.958 1_545 S
H3034 C3026 0.930 . S
H3035 C3027 0.929 . S
H3036 C3044 0.929 . S
H3037 C3046 0.930 . S
H3038 C3048 0.930 . S
H3039 C3051 0.929 . S
H3040 C3054 0.930 . S
H3041 C3056 0.960 . S
H3042 C3056 0.960 . S
H3043 C3056 0.960 . S
C3044 H3036 0.929 . S
C3044 C3045 1.377 . S
C3044 C3046 1.384 . S
C3045 C3044 1.377 . S
C3045 C3051 1.390 . S
C3046 H3037 0.930 . S
C3046 C3044 1.384 . S
C3046 C3047 1.372 . S
C3047 C3046 1.372 . S
C3047 C3048 1.400 . S
C3047 C3052 1.490 . S
C3048 H3038 0.930 . S
C3048 C3047 1.400 . S
C3048 C3051 1.386 . S
H3049 C3065 0.930 . S
H3050 C3066 0.931 . S
C3051 H3039 0.929 . S
C3051 C3045 1.390 . S
C3051 C3048 1.386 . S
C3052 C3047 1.490 . S
C3052 C3054 1.395 . S
C3052 C3055 1.403 . S
H3053 C3059 0.930 . S
C3054 H3040 0.930 . S
C3054 C3052 1.395 . S
C3054 C3057 1.403 1_455 S
C3055 C3052 1.403 . S
C3055 C3056 1.524 . S
C3055 C3059 1.400 1_455 S
C3056 H3041 0.960 . S
C3056 H3042 0.960 . S
C3056 H3043 0.960 . S
C3056 C3055 1.524 . S
C3057 C3054 1.403 1_655 S
C3057 C3058 1.392 . S
C3057 C3061 1.495 . S
C3058 C3057 1.392 . S
C3058 C3059 1.385 . S
C3058 C3060 1.478 . S
C3059 H3053 0.930 . S
C3059 C3055 1.400 1_655 S
C3059 C3058 1.385 . S
C3060 C3058 1.478 . S
C3060 C3062 1.381 . S
C3060 C3066 1.383 . S
C3061 C3057 1.495 . S
C3061 H3067 0.959 . S
C3061 H3068 0.961 . S
C3061 H3069 0.960 . S
C3062 C3060 1.381 . S
C3062 C3063 1.394 . S
C3062 H3070 0.930 . S
C3063 C3062 1.394 . S
C3063 C3064 1.383 . S
C3063 H3071 0.929 . S
C3064 C3063 1.383 . S
C3064 C3065 1.377 . S
C3065 H3049 0.930 . S
C3065 C3064 1.377 . S
C3065 C3066 1.379 . S
C3066 H3050 0.931 . S
C3066 C3060 1.383 . S
C3066 C3065 1.379 . S
H3067 C3061 0.959 . S
H3068 C3061 0.961 . S
H3069 C3061 0.960 . S
H3070 C3062 0.930 . S
H3071 C3063 0.929 . S
H3072 C3080 0.929 . S
H3073 C3082 0.930 . S
H3074 C3084 0.930 . S
H3075 C3087 0.929 . S
H3076 C3090 0.930 . S
H3077 C3092 0.960 . S
H3078 C3092 0.960 1_556 S
H3079 C3092 0.960 1_556 S
C3080 H3072 0.929 . S
C3080 C3081 1.377 . S
C3080 C3082 1.384 . S
C3081 C3080 1.377 . S
C3081 C3087 1.390 . S
C3082 H3073 0.930 . S
C3082 C3080 1.384 . S
C3082 C3083 1.372 . S
C3083 C3082 1.372 . S
C3083 C3084 1.400 . S
C3083 C3088 1.490 . S
C3084 H3074 0.930 . S
C3084 C3083 1.400 . S
C3084 C3087 1.386 . S
H3085 C3101 0.930 . S
H3086 C3102 0.931 . S
C3087 H3075 0.929 . S
C3087 C3081 1.390 . S
C3087 C3084 1.386 . S
C3088 C3083 1.490 . S
C3088 C3090 1.395 . S
C3088 C3091 1.402 . S
H3089 C3095 0.930 . S
C3090 H3076 0.930 . S
C3090 C3088 1.395 . S
C3090 C3093 1.403 . S
C3091 C3088 1.402 . S
C3091 C3092 1.524 1_556 S
C3091 C3095 1.401 1_556 S
C3092 H3077 0.960 . S
C3092 H3078 0.960 1_554 S
C3092 H3079 0.960 1_554 S
C3092 C3091 1.524 1_554 S
C3093 C3090 1.403 . S
C3093 C3094 1.392 1_556 S
C3093 C3097 1.495 . S
C3094 C3093 1.392 1_554 S
C3094 C3095 1.385 . S
C3094 C3096 1.478 . S
C3095 H3089 0.930 . S
C3095 C3091 1.401 1_554 S
C3095 C3094 1.385 . S
C3096 C3094 1.478 . S
C3096 C3098 1.381 . S
C3096 C3102 1.383 . S
C3097 C3093 1.495 . S
C3097 H3103 0.959 . S
C3097 H3104 0.961 1_556 S
C3097 H3105 0.958 1_556 S
C3098 C3096 1.381 . S
C3098 C3099 1.394 . S
C3098 H3106 0.930 . S
C3099 C3098 1.394 . S
C3099 C3100 1.383 . S
C3099 H3107 0.929 . S
C3100 C3099 1.383 . S
C3100 C3101 1.377 . S
C3101 H3085 0.930 . S
C3101 C3100 1.377 . S
C3101 C3102 1.379 . S
C3102 H3086 0.931 . S
C3102 C3096 1.383 . S
C3102 C3101 1.379 . S
H3103 C3097 0.959 . S
H3104 C3097 0.961 1_554 S
H3105 C3097 0.958 1_554 S
H3106 C3098 0.930 . S
H3107 C3099 0.929 . S
H3108 C3116 0.929 . S
H3109 C3118 0.930 . S
H3110 C3120 0.930 . S
H3111 C3123 0.929 . S
H3112 C3126 0.929 . S
H3113 C3128 0.960 . S
H3114 C3128 0.960 . S
H3115 C3128 0.960 . S
C3116 H3108 0.929 . S
C3116 C3117 1.377 . S
C3116 C3118 1.384 . S
C3117 C3116 1.377 . S
C3117 C3123 1.390 . S
C3118 H3109 0.930 . S
C3118 C3116 1.384 . S
C3118 C3119 1.372 . S
C3119 C3118 1.372 . S
C3119 C3120 1.400 . S
C3119 C3124 1.490 . S
C3120 H3110 0.930 . S
C3120 C3119 1.400 . S
C3120 C3123 1.386 . S
H3121 C3137 0.930 . S
H3122 C3138 0.931 . S
C3123 H3111 0.929 . S
C3123 C3117 1.390 . S
C3123 C3120 1.386 . S
C3124 C3119 1.490 . S
C3124 C3126 1.363 1_556 S
C3124 C3127 1.403 . S
H3125 C3131 0.930 . S
C3126 H3112 0.929 . S
C3126 C3124 1.363 1_554 S
C3126 C3129 1.437 . S
C3127 C3124 1.403 . S
C3127 C3128 1.524 . S
C3127 C3131 1.400 1_556 S
C3128 H3113 0.960 . S
C3128 H3114 0.960 . S
C3128 H3115 0.960 . S
C3128 C3127 1.524 . S
C3129 C3126 1.437 . S
C3129 C3130 1.392 . S
C3129 C3133 1.495 . S
C3130 C3129 1.392 . S
C3130 C3131 1.385 . S
C3130 C3132 1.478 . S
C3131 H3125 0.930 . S
C3131 C3127 1.400 1_554 S
C3131 C3130 1.385 . S
C3132 C3130 1.478 . S
C3132 C3134 1.381 . S
C3132 C3138 1.383 . S
C3133 C3129 1.495 . S
C3133 H3139 0.959 . S
C3133 H3140 0.961 . S
C3133 H3141 0.960 . S
C3134 C3132 1.381 . S
C3134 C3135 1.394 . S
C3134 H3142 0.930 . S
C3135 C3134 1.394 . S
C3135 C3136 1.383 . S
C3135 H3143 0.929 . S
C3136 C3135 1.383 . S
C3136 C3137 1.377 . S
C3137 H3121 0.930 . S
C3137 C3136 1.377 . S
C3137 C3138 1.379 . S
C3138 H3122 0.931 . S
C3138 C3132 1.383 . S
C3138 C3137 1.379 . S
H3139 C3133 0.959 . S
H3140 C3133 0.961 . S
H3141 C3133 0.960 . S
H3142 C3134 0.930 . S
H3143 C3135 0.929 . S
H3144 C3152 0.929 . S
H3145 C3154 0.930 . S
H3146 C3156 0.930 . S
H3147 C3159 0.929 . S
H3148 C3162 0.929 1_554 S
H3149 C3164 0.960 . S
H3150 C3164 0.960 . S
H3151 C3164 0.960 . S
C3152 H3144 0.929 . S
C3152 C3153 1.377 . S
C3152 C3154 1.384 . S
C3153 C3152 1.377 . S
C3153 C3159 1.390 . S
C3154 H3145 0.930 . S
C3154 C3152 1.384 . S
C3154 C3155 1.372 . S
C3155 C3154 1.372 . S
C3155 C3156 1.400 . S
C3155 C3160 1.490 . S
C3156 H3146 0.930 . S
C3156 C3155 1.400 . S
C3156 C3159 1.386 . S
H3157 C3173 0.930 . S
H3158 C3174 0.931 . S
C3159 H3147 0.929 . S
C3159 C3153 1.390 . S
C3159 C3156 1.386 . S
C3160 C3155 1.490 . S
C3160 C3162 1.367 1_554 S
C3160 C3163 1.403 . S
H3161 C3167 0.930 . S
C3162 H3148 0.929 1_556 S
C3162 C3160 1.367 1_556 S
C3162 C3165 1.432 . S
C3163 C3160 1.403 . S
C3163 C3164 1.524 . S
C3163 C3167 1.400 1_554 S
C3164 H3149 0.960 . S
C3164 H3150 0.960 . S
C3164 H3151 0.960 . S
C3164 C3163 1.524 . S
C3165 C3162 1.432 . S
C3165 C3166 1.392 . S
C3165 C3169 1.495 . S
C3166 C3165 1.392 . S
C3166 C3167 1.385 . S
C3166 C3168 1.478 . S
C3167 H3161 0.930 . S
C3167 C3163 1.400 1_556 S
C3167 C3166 1.385 . S
C3168 C3166 1.478 . S
C3168 C3170 1.381 . S
C3168 C3174 1.383 . S
C3169 C3165 1.495 . S
C3169 H3175 0.959 . S
C3169 H3176 0.961 . S
C3169 H3177 0.960 . S
C3170 C3168 1.381 . S
C3170 C3171 1.394 . S
C3170 H3178 0.930 . S
C3171 C3170 1.394 . S
C3171 C3172 1.383 . S
C3171 H3179 0.929 . S
C3172 C3171 1.383 . S
C3172 C3173 1.377 . S
C3173 H3157 0.930 . S
C3173 C3172 1.377 . S
C3173 C3174 1.379 . S
C3174 H3158 0.931 . S
C3174 C3168 1.383 . S
C3174 C3173 1.379 . S
H3175 C3169 0.959 . S
H3176 C3169 0.961 . S
H3177 C3169 0.960 . S
H3178 C3170 0.930 . S
H3179 C3171 0.929 . S
H3180 C3188 0.929 . S
H3181 C3190 0.930 . S
H3182 C3192 0.930 . S
H3183 C3195 0.929 . S
H3184 C3198 0.940 . S
H3185 C3200 0.960 . S
H3186 C3200 0.960 . S
H3187 C3200 0.960 . S
C3188 H3180 0.929 . S
C3188 C3189 1.377 . S
C3188 C3190 1.384 . S
C3189 C3188 1.377 . S
C3189 C3195 1.390 . S
C3190 H3181 0.930 . S
C3190 C3188 1.384 . S
C3190 C3191 1.372 . S
C3191 C3190 1.372 . S
C3191 C3192 1.400 . S
C3191 C3196 1.490 . S
C3192 H3182 0.930 . S
C3192 C3191 1.400 . S
C3192 C3195 1.386 . S
H3193 C3209 0.930 . S
H3194 C3210 0.931 . S
C3195 H3183 0.929 . S
C3195 C3189 1.390 . S
C3195 C3192 1.386 . S
C3196 C3191 1.490 . S
C3196 C3198 1.448 . S
C3196 C3199 1.403 . S
H3197 C3203 0.930 . S
C3198 H3184 0.940 . S
C3198 C3196 1.448 . S
C3198 C3201 1.343 1_554 S
C3199 C3196 1.403 . S
C3199 C3200 1.524 . S
C3199 C3203 1.400 1_554 S
C3200 H3185 0.960 . S
C3200 H3186 0.960 . S
C3200 H3187 0.960 . S
C3200 C3199 1.524 . S
C3201 C3198 1.343 1_556 S
C3201 C3202 1.392 . S
C3201 C3205 1.495 . S
C3202 C3201 1.392 . S
C3202 C3203 1.385 . S
C3202 C3204 1.478 . S
C3203 H3197 0.930 . S
C3203 C3199 1.400 1_556 S
C3203 C3202 1.385 . S
C3204 C3202 1.478 . S
C3204 C3206 1.381 . S
C3204 C3210 1.383 . S
C3205 C3201 1.495 . S
C3205 H3211 0.959 . S
C3205 H3212 0.961 . S
C3205 H3213 0.960 . S
C3206 C3204 1.381 . S
C3206 C3207 1.394 . S
C3206 H3214 0.930 . S
C3207 C3206 1.394 . S
C3207 C3208 1.383 . S
C3207 H3215 0.929 . S
C3208 C3207 1.383 . S
C3208 C3209 1.377 . S
C3209 H3193 0.930 . S
C3209 C3208 1.377 . S
C3209 C3210 1.379 . S
C3210 H3194 0.931 . S
C3210 C3204 1.383 . S
C3210 C3209 1.379 . S
H3211 C3205 0.959 . S
H3212 C3205 0.961 . S
H3213 C3205 0.960 . S
H3214 C3206 0.930 . S
H3215 C3207 0.929 . S
H3216 C3224 0.929 . S
H3217 C3226 0.930 . S
H3218 C3228 0.930 . S
H3219 C3231 0.929 . S
H3220 C3234 0.930 . S
H3221 C3236 0.960 1_455 S
H3222 C3236 0.960 . S
H3223 C3236 0.960 . S
C3224 H3216 0.929 . S
C3224 C3225 1.377 . S
C3224 C3226 1.384 . S
C3225 C3224 1.377 . S
C3225 C3231 1.390 . S
C3226 H3217 0.930 . S
C3226 C3224 1.384 . S
C3226 C3227 1.372 . S
C3227 C3226 1.372 . S
C3227 C3228 1.400 . S
C3227 C3232 1.490 . S
C3228 H3218 0.930 . S
C3228 C3227 1.400 . S
C3228 C3231 1.386 . S
H3229 C3245 0.930 . S
H3230 C3246 0.931 . S
C3231 H3219 0.929 . S
C3231 C3225 1.390 . S
C3231 C3228 1.386 . S
C3232 C3227 1.490 . S
C3232 C3234 1.395 . S
C3232 C3235 1.403 . S
H3233 C3239 0.930 . S
C3234 H3220 0.930 . S
C3234 C3232 1.395 . S
C3234 C3237 1.403 1_655 S
C3235 C3232 1.403 . S
C3235 C3236 1.524 . S
C3235 C3239 1.400 1_655 S
C3236 H3221 0.960 1_655 S
C3236 H3222 0.960 . S
C3236 H3223 0.960 . S
C3236 C3235 1.524 . S
C3237 C3234 1.403 1_455 S
C3237 C3238 1.392 . S
C3237 C3241 1.495 . S
C3238 C3237 1.392 . S
C3238 C3239 1.385 . S
C3238 C3240 1.478 . S
C3239 H3233 0.930 . S
C3239 C3235 1.400 1_455 S
C3239 C3238 1.385 . S
C3240 C3238 1.478 . S
C3240 C3242 1.381 . S
C3240 C3246 1.383 . S
C3241 C3237 1.495 . S
C3241 H3247 0.959 1_455 S
C3241 H3248 0.961 . S
C3241 H3249 0.960 . S
C3242 C3240 1.381 . S
C3242 C3243 1.394 . S
C3242 H3250 0.930 . S
C3243 C3242 1.394 . S
C3243 C3244 1.383 . S
C3243 H3251 0.929 . S
C3244 C3243 1.383 . S
C3244 C3245 1.377 . S
C3245 H3229 0.930 . S
C3245 C3244 1.377 . S
C3245 C3246 1.379 . S
C3246 H3230 0.931 . S
C3246 C3240 1.383 . S
C3246 C3245 1.379 . S
H3247 C3241 0.959 1_655 S
H3248 C3241 0.961 . S
H3249 C3241 0.960 . S
H3250 C3242 0.930 . S
H3251 C3243 0.929 . S
H3252 C3260 0.929 . S
H3253 C3262 0.930 . S
H3254 C3264 0.930 . S
H3255 C3267 0.929 . S
H3256 C3270 0.930 . S
H3257 C3272 0.960 . S
H3258 C3272 0.951 1_455 S
H3259 C3272 0.960 1_455 S
C3260 H3252 0.929 . S
C3260 C3261 1.377 . S
C3260 C3262 1.384 . S
C3261 C3260 1.377 . S
C3261 C3267 1.390 . S
C3262 H3253 0.930 . S
C3262 C3260 1.384 . S
C3262 C3263 1.372 . S
C3263 C3262 1.372 . S
C3263 C3264 1.400 . S
C3263 C3268 1.490 . S
C3264 H3254 0.930 . S
C3264 C3263 1.400 . S
C3264 C3267 1.386 . S
H3265 C3281 0.930 . S
H3266 C3282 0.931 . S
C3267 H3255 0.929 . S
C3267 C3261 1.390 . S
C3267 C3264 1.386 . S
C3268 C3263 1.490 . S
C3268 C3270 1.395 . S
C3268 C3271 1.406 . S
H3269 C3275 0.930 . S
C3270 H3256 0.930 . S
C3270 C3268 1.395 . S
C3270 C3273 1.452 . S
C3271 C3268 1.406 . S
C3271 C3272 1.523 1_455 S
C3271 C3275 1.397 1_455 S
C3272 H3257 0.960 . S
C3272 H3258 0.951 1_655 S
C3272 H3259 0.960 1_655 S
C3272 C3271 1.523 1_655 S
C3273 C3270 1.452 . S
C3273 C3274 1.343 1_455 S
C3273 C3277 1.500 . S
C3274 C3273 1.343 1_655 S
C3274 C3275 1.385 . S
C3274 C3276 1.478 . S
C3275 H3269 0.930 . S
C3275 C3271 1.397 1_655 S
C3275 C3274 1.385 . S
C3276 C3274 1.478 . S
C3276 C3278 1.381 . S
C3276 C3282 1.383 . S
C3277 C3273 1.500 . S
C3277 H3283 0.959 . S
C3277 H3284 0.956 1_455 S
C3277 H3285 0.960 1_455 S
C3278 C3276 1.381 . S
C3278 C3279 1.394 . S
C3278 H3286 0.930 . S
C3279 C3278 1.394 . S
C3279 C3280 1.383 . S
C3279 H3287 0.929 . S
C3280 C3279 1.383 . S
C3280 C3281 1.377 . S
C3281 H3265 0.930 . S
C3281 C3280 1.377 . S
C3281 C3282 1.379 . S
C3282 H3266 0.931 . S
C3282 C3276 1.383 . S
C3282 C3281 1.379 . S
H3283 C3277 0.959 . S
H3284 C3277 0.956 1_655 S
H3285 C3277 0.960 1_655 S
H3286 C3278 0.930 . S
H3287 C3279 0.929 . S
H3288 C3296 0.929 . S
H3289 C3298 0.930 . S
H3290 C3300 0.930 . S
H3291 C3303 0.929 . S
H3292 C3306 0.930 . S
H3293 C3308 0.960 . S
H3294 C3308 0.960 . S
H3295 C3308 0.960 . S
C3296 H3288 0.929 . S
C3296 C3297 1.377 . S
C3296 C3298 1.384 . S
C3297 C3296 1.377 . S
C3297 C3303 1.390 . S
C3298 H3289 0.930 . S
C3298 C3296 1.384 . S
C3298 C3299 1.372 . S
C3299 C3298 1.372 . S
C3299 C3300 1.400 . S
C3299 C3304 1.490 . S
C3300 H3290 0.930 . S
C3300 C3299 1.400 . S
C3300 C3303 1.386 . S
H3301 C3317 0.930 . S
H3302 C3318 0.931 . S
C3303 H3291 0.929 . S
C3303 C3297 1.390 . S
C3303 C3300 1.386 . S
C3304 C3299 1.490 . S
C3304 C3306 1.395 . S
C3304 C3307 1.403 . S
H3305 C3311 0.930 . S
C3306 H3292 0.930 . S
C3306 C3304 1.395 . S
C3306 C3309 1.403 1_545 S
C3307 C3304 1.403 . S
C3307 C3308 1.524 . S
C3307 C3311 1.400 1_545 S
C3308 H3293 0.960 . S
C3308 H3294 0.960 . S
C3308 H3295 0.960 . S
C3308 C3307 1.524 . S
C3309 C3306 1.403 1_565 S
C3309 C3310 1.392 . S
C3309 C3313 1.495 . S
C3310 C3309 1.392 . S
C3310 C3311 1.385 . S
C3310 C3312 1.478 . S
C3311 H3305 0.930 . S
C3311 C3307 1.400 1_565 S
C3311 C3310 1.385 . S
C3312 C3310 1.478 . S
C3312 C3314 1.381 . S
C3312 C3318 1.383 . S
C3313 C3309 1.495 . S
C3313 H3319 0.959 . S
C3313 H3320 0.961 . S
C3313 H3321 0.960 . S
C3314 C3312 1.381 . S
C3314 C3315 1.394 . S
C3314 H3322 0.930 . S
C3315 C3314 1.394 . S
C3315 C3316 1.383 . S
C3315 H3323 0.929 . S
C3316 C3315 1.383 . S
C3316 C3317 1.377 . S
C3317 H3301 0.930 . S
C3317 C3316 1.377 . S
C3317 C3318 1.379 . S
C3318 H3302 0.931 . S
C3318 C3312 1.383 . S
C3318 C3317 1.379 . S
H3319 C3313 0.959 . S
H3320 C3313 0.961 . S
H3321 C3313 0.960 . S
H3322 C3314 0.930 . S
H3323 C3315 0.929 . S
H3324 C3332 0.929 . S
H3325 C3334 0.930 . S
H3326 C3336 0.930 . S
H3327 C3339 0.929 . S
H3328 C3342 0.930 . S
H3329 C3344 0.960 1_545 S
H3330 C3344 0.960 . S
H3331 C3344 0.960 . S
C3332 H3324 0.929 . S
C3332 C3333 1.377 . S
C3332 C3334 1.384 . S
C3333 C3332 1.377 . S
C3333 C3339 1.390 . S
C3334 H3325 0.930 . S
C3334 C3332 1.384 . S
C3334 C3335 1.372 . S
C3335 C3334 1.372 . S
C3335 C3336 1.400 . S
C3335 C3340 1.490 . S
C3336 H3326 0.930 . S
C3336 C3335 1.400 . S
C3336 C3339 1.386 . S
H3337 C3353 0.930 . S
H3338 C3354 0.931 . S
C3339 H3327 0.929 . S
C3339 C3333 1.390 . S
C3339 C3336 1.386 . S
C3340 C3335 1.490 . S
C3340 C3342 1.395 . S
C3340 C3343 1.403 . S
H3341 C3347 0.930 . S
C3342 H3328 0.930 . S
C3342 C3340 1.395 . S
C3342 C3345 1.403 1_565 S
C3343 C3340 1.403 . S
C3343 C3344 1.524 . S
C3343 C3347 1.400 1_565 S
C3344 H3329 0.960 1_565 S
C3344 H3330 0.960 . S
C3344 H3331 0.960 . S
C3344 C3343 1.524 . S
C3345 C3342 1.403 1_545 S
C3345 C3346 1.392 . S
C3345 C3349 1.495 . S
C3346 C3345 1.392 . S
C3346 C3347 1.385 . S
C3346 C3348 1.478 . S
C3347 H3341 0.930 . S
C3347 C3343 1.400 1_545 S
C3347 C3346 1.385 . S
C3348 C3346 1.478 . S
C3348 C3350 1.381 . S
C3348 C3354 1.383 . S
C3349 C3345 1.495 . S
C3349 H3355 0.959 1_545 S
C3349 H3356 0.961 . S
C3349 H3357 0.960 . S
C3350 C3348 1.381 . S
C3350 C3351 1.394 . S
C3350 H3358 0.930 . S
C3351 C3350 1.394 . S
C3351 C3352 1.383 . S
C3351 H3359 0.929 . S
C3352 C3351 1.383 . S
C3352 C3353 1.377 . S
C3353 H3337 0.930 . S
C3353 C3352 1.377 . S
C3353 C3354 1.379 . S
C3354 H3338 0.931 . S
C3354 C3348 1.383 . S
C3354 C3353 1.379 . S
H3355 C3349 0.959 1_565 S
H3356 C3349 0.961 . S
H3357 C3349 0.960 . S
H3358 C3350 0.930 . S
H3359 C3351 0.929 . S
H3360 C3368 0.929 . S
H3361 C3370 0.930 . S
H3362 C3372 0.930 . S
H3363 C3375 0.929 . S
H3364 C3378 0.930 . S
H3365 C3380 0.960 . S
H3366 C3380 0.960 . S
H3367 C3380 0.960 . S
C3368 H3360 0.929 . S
C3368 C3369 1.377 . S
C3368 C3370 1.384 . S
C3369 C3368 1.377 . S
C3369 C3375 1.390 . S
C3370 H3361 0.930 . S
C3370 C3368 1.384 . S
C3370 C3371 1.372 . S
C3371 C3370 1.372 . S
C3371 C3372 1.400 . S
C3371 C3376 1.490 . S
C3372 H3362 0.930 . S
C3372 C3371 1.400 . S
C3372 C3375 1.386 . S
H3373 C3389 0.930 . S
H3374 C3390 0.931 . S
C3375 H3363 0.929 . S
C3375 C3369 1.390 . S
C3375 C3372 1.386 . S
C3376 C3371 1.490 . S
C3376 C3378 1.395 . S
C3376 C3379 1.403 . S
H3377 C3383 0.930 . S
C3378 H3364 0.930 . S
C3378 C3376 1.395 . S
C3378 C3381 1.403 . S
C3379 C3376 1.403 . S
C3379 C3380 1.524 . S
C3379 C3383 1.400 . S
C3380 H3365 0.960 . S
C3380 H3366 0.960 . S
C3380 H3367 0.960 . S
C3380 C3379 1.524 . S
C3381 C3378 1.403 . S
C3381 C3382 1.392 . S
C3381 C3385 1.495 . S
C3382 C3381 1.392 . S
C3382 C3383 1.385 . S
C3382 C3384 1.478 . S
C3383 H3377 0.930 . S
C3383 C3379 1.400 . S
C3383 C3382 1.385 . S
C3384 C3382 1.478 . S
C3384 C3386 1.381 . S
C3384 C3390 1.383 . S
C3385 C3381 1.495 . S
C3385 H3391 0.959 . S
C3385 H3392 0.961 . S
C3385 H3393 0.960 . S
C3386 C3384 1.381 . S
C3386 C3387 1.394 . S
C3386 H3394 0.930 . S
C3387 C3386 1.394 . S
C3387 C3388 1.383 . S
C3387 H3395 0.929 . S
C3388 C3387 1.383 . S
C3388 C3389 1.377 . S
C3389 H3373 0.930 . S
C3389 C3388 1.377 . S
C3389 C3390 1.379 . S
C3390 H3374 0.931 . S
C3390 C3384 1.383 . S
C3390 C3389 1.379 . S
H3391 C3385 0.959 . S
H3392 C3385 0.961 . S
H3393 C3385 0.960 . S
H3394 C3386 0.930 . S
H3395 C3387 0.929 . S
H3396 C3404 0.929 . S
H3397 C3406 0.930 . S
H3398 C3408 0.930 . S
H3399 C3411 0.929 . S
H3400 C3414 0.930 . S
H3401 C3416 0.960 . S
H3402 C3416 0.960 . S
H3403 C3416 0.960 . S
C3404 H3396 0.929 . S
C3404 C3405 1.377 . S
C3404 C3406 1.384 . S
C3405 C3404 1.377 . S
C3405 C3411 1.390 . S
C3406 H3397 0.930 . S
C3406 C3404 1.384 . S
C3406 C3407 1.372 . S
C3407 C3406 1.372 . S
C3407 C3408 1.400 . S
C3407 C3412 1.490 . S
C3408 H3398 0.930 . S
C3408 C3407 1.400 . S
C3408 C3411 1.386 . S
H3409 C3425 0.930 . S
H3410 C3426 0.931 . S
C3411 H3399 0.929 . S
C3411 C3405 1.390 . S
C3411 C3408 1.386 . S
C3412 C3407 1.490 . S
C3412 C3414 1.395 . S
C3412 C3415 1.403 . S
H3413 C3419 0.930 . S
C3414 H3400 0.930 . S
C3414 C3412 1.395 . S
C3414 C3417 1.403 . S
C3415 C3412 1.403 . S
C3415 C3416 1.524 . S
C3415 C3419 1.400 . S
C3416 H3401 0.960 . S
C3416 H3402 0.960 . S
C3416 H3403 0.960 . S
C3416 C3415 1.524 . S
C3417 C3414 1.403 . S
C3417 C3418 1.392 . S
C3417 C3421 1.495 . S
C3418 C3417 1.392 . S
C3418 C3419 1.385 . S
C3418 C3420 1.478 . S
C3419 H3413 0.930 . S
C3419 C3415 1.400 . S
C3419 C3418 1.385 . S
C3420 C3418 1.478 . S
C3420 C3422 1.381 . S
C3420 C3426 1.383 . S
C3421 C3417 1.495 . S
C3421 H3427 0.959 . S
C3421 H3428 0.961 . S
C3421 H3429 0.960 . S
C3422 C3420 1.381 . S
C3422 C3423 1.394 . S
C3422 H3430 0.930 . S
C3423 C3422 1.394 . S
C3423 C3424 1.383 . S
C3423 H3431 0.929 . S
C3424 C3423 1.383 . S
C3424 C3425 1.377 . S
C3425 H3409 0.930 . S
C3425 C3424 1.377 . S
C3425 C3426 1.379 . S
C3426 H3410 0.931 . S
C3426 C3420 1.383 . S
C3426 C3425 1.379 . S
H3427 C3421 0.959 . S
H3428 C3421 0.961 . S
H3429 C3421 0.960 . S
H3430 C3422 0.930 . S
H3431 C3423 0.929 . S
H3432 C3440 0.929 . S
H3433 C3442 0.930 . S
H3434 C3444 0.930 . S
H3435 C3447 0.929 . S
H3436 C3450 0.930 . S
H3437 C3452 0.960 . S
H3438 C3452 0.960 . S
H3439 C3452 0.960 . S
C3440 H3432 0.929 . S
C3440 C3441 1.377 . S
C3440 C3442 1.384 . S
C3441 C3440 1.377 . S
C3441 C3447 1.390 . S
C3442 H3433 0.930 . S
C3442 C3440 1.384 . S
C3442 C3443 1.372 . S
C3443 C3442 1.372 . S
C3443 C3444 1.400 . S
C3443 C3448 1.490 . S
C3444 H3434 0.930 . S
C3444 C3443 1.400 . S
C3444 C3447 1.386 . S
H3445 C3461 0.930 . S
H3446 C3462 0.931 . S
C3447 H3435 0.929 . S
C3447 C3441 1.390 . S
C3447 C3444 1.386 . S
C3448 C3443 1.490 . S
C3448 C3450 1.395 . S
C3448 C3451 1.403 . S
H3449 C3455 0.930 . S
C3450 H3436 0.930 . S
C3450 C3448 1.395 . S
C3450 C3453 1.403 . S
C3451 C3448 1.403 . S
C3451 C3452 1.524 . S
C3451 C3455 1.400 . S
C3452 H3437 0.960 . S
C3452 H3438 0.960 . S
C3452 H3439 0.960 . S
C3452 C3451 1.524 . S
C3453 C3450 1.403 . S
C3453 C3454 1.392 . S
C3453 C3457 1.495 . S
C3454 C3453 1.392 . S
C3454 C3455 1.385 . S
C3454 C3456 1.478 . S
C3455 H3449 0.930 . S
C3455 C3451 1.400 . S
C3455 C3454 1.385 . S
C3456 C3454 1.478 . S
C3456 C3458 1.381 . S
C3456 C3462 1.383 . S
C3457 C3453 1.495 . S
C3457 H3463 0.959 . S
C3457 H3464 0.961 . S
C3457 H3465 0.960 . S
C3458 C3456 1.381 . S
C3458 C3459 1.394 . S
C3458 H3466 0.930 . S
C3459 C3458 1.394 . S
C3459 C3460 1.383 . S
C3459 H3467 0.929 . S
C3460 C3459 1.383 . S
C3460 C3461 1.377 . S
C3461 H3445 0.930 . S
C3461 C3460 1.377 . S
C3461 C3462 1.379 . S
C3462 H3446 0.931 . S
C3462 C3456 1.383 . S
C3462 C3461 1.379 . S
H3463 C3457 0.959 . S
H3464 C3457 0.961 . S
H3465 C3457 0.960 . S
H3466 C3458 0.930 . S
H3467 C3459 0.929 . S
H3468 C3476 0.929 . S
H3469 C3478 0.930 . S
H3470 C3480 0.930 . S
H3471 C3483 0.929 . S
H3472 C3486 0.930 . S
H3473 C3488 0.960 . S
H3474 C3488 0.960 . S
H3475 C3488 0.960 . S
C3476 H3468 0.929 . S
C3476 C3477 1.377 . S
C3476 C3478 1.384 . S
C3477 C3476 1.377 . S
C3477 C3483 1.390 . S
C3478 H3469 0.930 . S
C3478 C3476 1.384 . S
C3478 C3479 1.372 . S
C3479 C3478 1.372 . S
C3479 C3480 1.400 . S
C3479 C3484 1.490 . S
C3480 H3470 0.930 . S
C3480 C3479 1.400 . S
C3480 C3483 1.386 . S
H3481 C3497 0.930 . S
H3482 C3498 0.931 . S
C3483 H3471 0.929 . S
C3483 C3477 1.390 . S
C3483 C3480 1.386 . S
C3484 C3479 1.490 . S
C3484 C3486 1.395 . S
C3484 C3487 1.403 . S
H3485 C3491 0.930 . S
C3486 H3472 0.930 . S
C3486 C3484 1.395 . S
C3486 C3489 1.403 . S
C3487 C3484 1.403 . S
C3487 C3488 1.524 . S
C3487 C3491 1.400 . S
C3488 H3473 0.960 . S
C3488 H3474 0.960 . S
C3488 H3475 0.960 . S
C3488 C3487 1.524 . S
C3489 C3486 1.403 . S
C3489 C3490 1.392 . S
C3489 C3493 1.495 . S
C3490 C3489 1.392 . S
C3490 C3491 1.385 . S
C3490 C3492 1.478 . S
C3491 H3485 0.930 . S
C3491 C3487 1.400 . S
C3491 C3490 1.385 . S
C3492 C3490 1.478 . S
C3492 C3494 1.381 . S
C3492 C3498 1.383 . S
C3493 C3489 1.495 . S
C3493 H3499 0.959 . S
C3493 H3500 0.961 . S
C3493 H3501 0.960 . S
C3494 C3492 1.381 . S
C3494 C3495 1.394 . S
C3494 H3502 0.930 . S
C3495 C3494 1.394 . S
C3495 C3496 1.383 . S
C3495 H3503 0.929 . S
C3496 C3495 1.383 . S
C3496 C3497 1.377 . S
C3497 H3481 0.930 . S
C3497 C3496 1.377 . S
C3497 C3498 1.379 . S
C3498 H3482 0.931 . S
C3498 C3492 1.383 . S
C3498 C3497 1.379 . S
H3499 C3493 0.959 . S
H3500 C3493 0.961 . S
H3501 C3493 0.960 . S
H3502 C3494 0.930 . S
H3503 C3495 0.929 . S
H3504 C3512 0.929 . S
H3505 C3514 0.930 . S
H3506 C3516 0.930 . S
H3507 C3519 0.929 . S
H3508 C3522 0.930 . S
H3509 C3524 0.960 . S
H3510 C3524 0.960 . S
H3511 C3524 0.960 . S
C3512 H3504 0.929 . S
C3512 C3513 1.377 . S
C3512 C3514 1.384 . S
C3513 C3512 1.377 . S
C3513 C3519 1.390 . S
C3514 H3505 0.930 . S
C3514 C3512 1.384 . S
C3514 C3515 1.372 . S
C3515 C3514 1.372 . S
C3515 C3516 1.400 . S
C3515 C3520 1.490 . S
C3516 H3506 0.930 . S
C3516 C3515 1.400 . S
C3516 C3519 1.386 . S
H3517 C3533 0.930 . S
H3518 C3534 0.931 . S
C3519 H3507 0.929 . S
C3519 C3513 1.390 . S
C3519 C3516 1.386 . S
C3520 C3515 1.490 . S
C3520 C3522 1.395 . S
C3520 C3523 1.403 . S
H3521 C3527 0.930 . S
C3522 H3508 0.930 . S
C3522 C3520 1.395 . S
C3522 C3525 1.403 . S
C3523 C3520 1.403 . S
C3523 C3524 1.524 . S
C3523 C3527 1.400 . S
C3524 H3509 0.960 . S
C3524 H3510 0.960 . S
C3524 H3511 0.960 . S
C3524 C3523 1.524 . S
C3525 C3522 1.403 . S
C3525 C3526 1.392 . S
C3525 C3529 1.495 . S
C3526 C3525 1.392 . S
C3526 C3527 1.385 . S
C3526 C3528 1.478 . S
C3527 H3521 0.930 . S
C3527 C3523 1.400 . S
C3527 C3526 1.385 . S
C3528 C3526 1.478 . S
C3528 C3530 1.381 . S
C3528 C3534 1.383 . S
C3529 C3525 1.495 . S
C3529 H3535 0.959 . S
C3529 H3536 0.961 . S
C3529 H3537 0.960 . S
C3530 C3528 1.381 . S
C3530 C3531 1.394 . S
C3530 H3538 0.930 . S
C3531 C3530 1.394 . S
C3531 C3532 1.383 . S
C3531 H3539 0.929 . S
C3532 C3531 1.383 . S
C3532 C3533 1.377 . S
C3533 H3517 0.930 . S
C3533 C3532 1.377 . S
C3533 C3534 1.379 . S
C3534 H3518 0.931 . S
C3534 C3528 1.383 . S
C3534 C3533 1.379 . S
H3535 C3529 0.959 . S
H3536 C3529 0.961 . S
H3537 C3529 0.960 . S
H3538 C3530 0.930 . S
H3539 C3531 0.929 . S
H3540 C3548 0.929 . S
H3541 C3550 0.930 . S
H3542 C3552 0.930 . S
H3543 C3555 0.929 . S
H3544 C3558 0.930 . S
H3545 C3560 0.960 . S
H3546 C3560 0.960 . S
H3547 C3560 0.960 . S
C3548 H3540 0.929 . S
C3548 C3549 1.377 . S
C3548 C3550 1.384 . S
C3549 C3548 1.377 . S
C3549 C3555 1.390 . S
C3550 H3541 0.930 . S
C3550 C3548 1.384 . S
C3550 C3551 1.372 . S
C3551 C3550 1.372 . S
C3551 C3552 1.400 . S
C3551 C3556 1.490 . S
C3552 H3542 0.930 . S
C3552 C3551 1.400 . S
C3552 C3555 1.386 . S
H3553 C3569 0.930 . S
H3554 C3570 0.931 . S
C3555 H3543 0.929 . S
C3555 C3549 1.390 . S
C3555 C3552 1.386 . S
C3556 C3551 1.490 . S
C3556 C3558 1.395 . S
C3556 C3559 1.403 . S
H3557 C3563 0.930 . S
C3558 H3544 0.930 . S
C3558 C3556 1.395 . S
C3558 C3561 1.403 . S
C3559 C3556 1.403 . S
C3559 C3560 1.524 . S
C3559 C3563 1.400 . S
C3560 H3545 0.960 . S
C3560 H3546 0.960 . S
C3560 H3547 0.960 . S
C3560 C3559 1.524 . S
C3561 C3558 1.403 . S
C3561 C3562 1.392 . S
C3561 C3565 1.495 . S
C3562 C3561 1.392 . S
C3562 C3563 1.385 . S
C3562 C3564 1.478 . S
C3563 H3557 0.930 . S
C3563 C3559 1.400 . S
C3563 C3562 1.385 . S
C3564 C3562 1.478 . S
C3564 C3566 1.381 . S
C3564 C3570 1.383 . S
C3565 C3561 1.495 . S
C3565 H3571 0.959 . S
C3565 H3572 0.961 . S
C3565 H3573 0.960 . S
C3566 C3564 1.381 . S
C3566 C3567 1.394 . S
C3566 H3574 0.930 . S
C3567 C3566 1.394 . S
C3567 C3568 1.383 . S
C3567 H3575 0.929 . S
C3568 C3567 1.383 . S
C3568 C3569 1.377 . S
C3569 H3553 0.930 . S
C3569 C3568 1.377 . S
C3569 C3570 1.379 . S
C3570 H3554 0.931 . S
C3570 C3564 1.383 . S
C3570 C3569 1.379 . S
H3571 C3565 0.959 . S
H3572 C3565 0.961 . S
H3573 C3565 0.960 . S
H3574 C3566 0.930 . S
H3575 C3567 0.929 . S
H3576 C3584 0.929 . S
H3577 C3586 0.930 . S
H3578 C3588 0.930 . S
H3579 C3591 0.929 . S
H3580 C3594 0.930 . S
H3581 C3596 0.960 . S
H3582 C3596 0.960 . S
H3583 C3596 0.960 . S
C3584 H3576 0.929 . S
C3584 C3585 1.377 . S
C3584 C3586 1.384 . S
C3585 C3584 1.377 . S
C3585 C3591 1.390 . S
C3586 H3577 0.930 . S
C3586 C3584 1.384 . S
C3586 C3587 1.372 . S
C3587 C3586 1.372 . S
C3587 C3588 1.400 . S
C3587 C3592 1.490 . S
C3588 H3578 0.930 . S
C3588 C3587 1.400 . S
C3588 C3591 1.386 . S
H3589 C3605 0.930 . S
H3590 C3606 0.931 . S
C3591 H3579 0.929 . S
C3591 C3585 1.390 . S
C3591 C3588 1.386 . S
C3592 C3587 1.490 . S
C3592 C3594 1.395 . S
C3592 C3595 1.403 . S
H3593 C3599 0.930 . S
C3594 H3580 0.930 . S
C3594 C3592 1.395 . S
C3594 C3597 1.403 . S
C3595 C3592 1.403 . S
C3595 C3596 1.524 . S
C3595 C3599 1.400 . S
C3596 H3581 0.960 . S
C3596 H3582 0.960 . S
C3596 H3583 0.960 . S
C3596 C3595 1.524 . S
C3597 C3594 1.403 . S
C3597 C3598 1.392 . S
C3597 C3601 1.495 . S
C3598 C3597 1.392 . S
C3598 C3599 1.385 . S
C3598 C3600 1.478 . S
C3599 H3593 0.930 . S
C3599 C3595 1.400 . S
C3599 C3598 1.385 . S
C3600 C3598 1.478 . S
C3600 C3602 1.381 . S
C3600 C3606 1.383 . S
C3601 C3597 1.495 . S
C3601 H3607 0.959 . S
C3601 H3608 0.961 . S
C3601 H3609 0.960 . S
C3602 C3600 1.381 . S
C3602 C3603 1.394 . S
C3602 H3610 0.930 . S
C3603 C3602 1.394 . S
C3603 C3604 1.383 . S
C3603 H3611 0.929 . S
C3604 C3603 1.383 . S
C3604 C3605 1.377 . S
C3605 H3589 0.930 . S
C3605 C3604 1.377 . S
C3605 C3606 1.379 . S
C3606 H3590 0.931 . S
C3606 C3600 1.383 . S
C3606 C3605 1.379 . S
H3607 C3601 0.959 . S
H3608 C3601 0.961 . S
H3609 C3601 0.960 . S
H3610 C3602 0.930 . S
H3611 C3603 0.929 . S
H3612 C3620 0.929 . S
H3613 C3622 0.930 . S
H3614 C3624 0.930 . S
H3615 C3627 0.929 . S
H3616 C3630 0.930 . S
H3617 C3632 0.960 . S
H3618 C3632 0.960 . S
H3619 C3632 0.960 . S
C3620 H3612 0.929 . S
C3620 C3621 1.377 . S
C3620 C3622 1.384 . S
C3621 C3620 1.377 . S
C3621 C3627 1.390 . S
C3622 H3613 0.930 . S
C3622 C3620 1.384 . S
C3622 C3623 1.372 . S
C3623 C3622 1.372 . S
C3623 C3624 1.400 . S
C3623 C3628 1.490 . S
C3624 H3614 0.930 . S
C3624 C3623 1.400 . S
C3624 C3627 1.386 . S
H3625 C3641 0.930 . S
H3626 C3642 0.931 . S
C3627 H3615 0.929 . S
C3627 C3621 1.390 . S
C3627 C3624 1.386 . S
C3628 C3623 1.490 . S
C3628 C3630 1.395 . S
C3628 C3631 1.403 . S
H3629 C3635 0.930 . S
C3630 H3616 0.930 . S
C3630 C3628 1.395 . S
C3630 C3633 1.403 . S
C3631 C3628 1.403 . S
C3631 C3632 1.524 . S
C3631 C3635 1.400 . S
C3632 H3617 0.960 . S
C3632 H3618 0.960 . S
C3632 H3619 0.960 . S
C3632 C3631 1.524 . S
C3633 C3630 1.403 . S
C3633 C3634 1.392 . S
C3633 C3637 1.495 . S
C3634 C3633 1.392 . S
C3634 C3635 1.385 . S
C3634 C3636 1.478 . S
C3635 H3629 0.930 . S
C3635 C3631 1.400 . S
C3635 C3634 1.385 . S
C3636 C3634 1.478 . S
C3636 C3638 1.381 . S
C3636 C3642 1.383 . S
C3637 C3633 1.495 . S
C3637 H3643 0.959 . S
C3637 H3644 0.961 . S
C3637 H3645 0.960 . S
C3638 C3636 1.381 . S
C3638 C3639 1.394 . S
C3638 H3646 0.930 . S
C3639 C3638 1.394 . S
C3639 C3640 1.383 . S
C3639 H3647 0.929 . S
C3640 C3639 1.383 . S
C3640 C3641 1.377 . S
C3641 H3625 0.930 . S
C3641 C3640 1.377 . S
C3641 C3642 1.379 . S
C3642 H3626 0.931 . S
C3642 C3636 1.383 . S
C3642 C3641 1.379 . S
H3643 C3637 0.959 . S
H3644 C3637 0.961 . S
H3645 C3637 0.960 . S
H3646 C3638 0.930 . S
H3647 C3639 0.929 . S
H3648 C3656 0.929 . S
H3649 C3658 0.930 . S
H3650 C3660 0.930 . S
H3651 C3663 0.929 . S
H3652 C3666 0.930 . S
H3653 C3668 0.960 . S
H3654 C3668 0.960 . S
H3655 C3668 0.960 . S
C3656 H3648 0.929 . S
C3656 C3657 1.377 . S
C3656 C3658 1.384 . S
C3657 C3656 1.377 . S
C3657 C3663 1.390 . S
C3658 H3649 0.930 . S
C3658 C3656 1.384 . S
C3658 C3659 1.372 . S
C3659 C3658 1.372 . S
C3659 C3660 1.400 . S
C3659 C3664 1.490 . S
C3660 H3650 0.930 . S
C3660 C3659 1.400 . S
C3660 C3663 1.386 . S
H3661 C3677 0.930 . S
H3662 C3678 0.931 . S
C3663 H3651 0.929 . S
C3663 C3657 1.390 . S
C3663 C3660 1.386 . S
C3664 C3659 1.490 . S
C3664 C3666 1.395 . S
C3664 C3667 1.403 . S
H3665 C3671 0.930 . S
C3666 H3652 0.930 . S
C3666 C3664 1.395 . S
C3666 C3669 1.403 . S
C3667 C3664 1.403 . S
C3667 C3668 1.524 . S
C3667 C3671 1.400 . S
C3668 H3653 0.960 . S
C3668 H3654 0.960 . S
C3668 H3655 0.960 . S
C3668 C3667 1.524 . S
C3669 C3666 1.403 . S
C3669 C3670 1.392 . S
C3669 C3673 1.495 . S
C3670 C3669 1.392 . S
C3670 C3671 1.385 . S
C3670 C3672 1.478 . S
C3671 H3665 0.930 . S
C3671 C3667 1.400 . S
C3671 C3670 1.385 . S
C3672 C3670 1.478 . S
C3672 C3674 1.381 . S
C3672 C3678 1.383 . S
C3673 C3669 1.495 . S
C3673 H3679 0.959 . S
C3673 H3680 0.961 . S
C3673 H3681 0.960 . S
C3674 C3672 1.381 . S
C3674 C3675 1.394 . S
C3674 H3682 0.930 . S
C3675 C3674 1.394 . S
C3675 C3676 1.383 . S
C3675 H3683 0.929 . S
C3676 C3675 1.383 . S
C3676 C3677 1.377 . S
C3677 H3661 0.930 . S
C3677 C3676 1.377 . S
C3677 C3678 1.379 . S
C3678 H3662 0.931 . S
C3678 C3672 1.383 . S
C3678 C3677 1.379 . S
H3679 C3673 0.959 . S
H3680 C3673 0.961 . S
H3681 C3673 0.960 . S
H3682 C3674 0.930 . S
H3683 C3675 0.929 . S
H3684 C3692 0.929 . S
H3685 C3694 0.930 . S
H3686 C3696 0.930 . S
H3687 C3699 0.929 . S
H3688 C3702 0.930 . S
H3689 C3704 0.960 . S
H3690 C3704 0.960 . S
H3691 C3704 0.960 . S
C3692 H3684 0.929 . S
C3692 C3693 1.377 . S
C3692 C3694 1.384 . S
C3693 C3692 1.377 . S
C3693 C3699 1.390 . S
C3694 H3685 0.930 . S
C3694 C3692 1.384 . S
C3694 C3695 1.372 . S
C3695 C3694 1.372 . S
C3695 C3696 1.400 . S
C3695 C3700 1.490 . S
C3696 H3686 0.930 . S
C3696 C3695 1.400 . S
C3696 C3699 1.386 . S
H3697 C3713 0.930 . S
H3698 C3714 0.931 . S
C3699 H3687 0.929 . S
C3699 C3693 1.390 . S
C3699 C3696 1.386 . S
C3700 C3695 1.490 . S
C3700 C3702 1.395 . S
C3700 C3703 1.403 . S
H3701 C3707 0.930 . S
C3702 H3688 0.930 . S
C3702 C3700 1.395 . S
C3702 C3705 1.403 . S
C3703 C3700 1.403 . S
C3703 C3704 1.524 . S
C3703 C3707 1.400 . S
C3704 H3689 0.960 . S
C3704 H3690 0.960 . S
C3704 H3691 0.960 . S
C3704 C3703 1.524 . S
C3705 C3702 1.403 . S
C3705 C3706 1.392 . S
C3705 C3709 1.495 . S
C3706 C3705 1.392 . S
C3706 C3707 1.385 . S
C3706 C3708 1.478 . S
C3707 H3701 0.930 . S
C3707 C3703 1.400 . S
C3707 C3706 1.385 . S
C3708 C3706 1.478 . S
C3708 C3710 1.381 . S
C3708 C3714 1.383 . S
C3709 C3705 1.495 . S
C3709 H3715 0.959 . S
C3709 H3716 0.961 . S
C3709 H3717 0.960 . S
C3710 C3708 1.381 . S
C3710 C3711 1.394 . S
C3710 H3718 0.930 . S
C3711 C3710 1.394 . S
C3711 C3712 1.383 . S
C3711 H3719 0.929 . S
C3712 C3711 1.383 . S
C3712 C3713 1.377 . S
C3713 H3697 0.930 . S
C3713 C3712 1.377 . S
C3713 C3714 1.379 . S
C3714 H3698 0.931 . S
C3714 C3708 1.383 . S
C3714 C3713 1.379 . S
H3715 C3709 0.959 . S
H3716 C3709 0.961 . S
H3717 C3709 0.960 . S
H3718 C3710 0.930 . S
H3719 C3711 0.929 . S
H3720 C3728 0.929 . S
H3721 C3730 0.930 . S
H3722 C3732 0.930 . S
H3723 C3735 0.929 . S
H3724 C3738 0.930 . S
H3725 C3740 0.960 . S
H3726 C3740 0.960 . S
H3727 C3740 0.960 . S
C3728 H3720 0.929 . S
C3728 C3729 1.377 . S
C3728 C3730 1.384 . S
C3729 C3728 1.377 . S
C3729 C3735 1.390 . S
C3730 H3721 0.930 . S
C3730 C3728 1.384 . S
C3730 C3731 1.372 . S
C3731 C3730 1.372 . S
C3731 C3732 1.400 . S
C3731 C3736 1.490 . S
C3732 H3722 0.930 . S
C3732 C3731 1.400 . S
C3732 C3735 1.386 . S
H3733 C3749 0.930 . S
H3734 C3750 0.931 . S
C3735 H3723 0.929 . S
C3735 C3729 1.390 . S
C3735 C3732 1.386 . S
C3736 C3731 1.490 . S
C3736 C3738 1.395 . S
C3736 C3739 1.403 . S
H3737 C3743 0.930 . S
C3738 H3724 0.930 . S
C3738 C3736 1.395 . S
C3738 C3741 1.403 . S
C3739 C3736 1.403 . S
C3739 C3740 1.524 . S
C3739 C3743 1.400 . S
C3740 H3725 0.960 . S
C3740 H3726 0.960 . S
C3740 H3727 0.960 . S
C3740 C3739 1.524 . S
C3741 C3738 1.403 . S
C3741 C3742 1.392 . S
C3741 C3745 1.495 . S
C3742 C3741 1.392 . S
C3742 C3743 1.385 . S
C3742 C3744 1.478 . S
C3743 H3737 0.930 . S
C3743 C3739 1.400 . S
C3743 C3742 1.385 . S
C3744 C3742 1.478 . S
C3744 C3746 1.381 . S
C3744 C3750 1.383 . S
C3745 C3741 1.495 . S
C3745 H3751 0.959 . S
C3745 H3752 0.961 . S
C3745 H3753 0.960 . S
C3746 C3744 1.381 . S
C3746 C3747 1.394 . S
C3746 H3754 0.930 . S
C3747 C3746 1.394 . S
C3747 C3748 1.383 . S
C3747 H3755 0.929 . S
C3748 C3747 1.383 . S
C3748 C3749 1.377 . S
C3749 H3733 0.930 . S
C3749 C3748 1.377 . S
C3749 C3750 1.379 . S
C3750 H3734 0.931 . S
C3750 C3744 1.383 . S
C3750 C3749 1.379 . S
H3751 C3745 0.959 . S
H3752 C3745 0.961 . S
H3753 C3745 0.960 . S
H3754 C3746 0.930 . S
H3755 C3747 0.929 . S
H3756 C3764 0.929 . S
H3757 C3766 0.930 . S
H3758 C3768 0.930 . S
H3759 C3771 0.929 . S
H3760 C3774 0.930 . S
H3761 C3776 0.960 . S
H3762 C3776 0.960 . S
H3763 C3776 0.960 . S
C3764 H3756 0.929 . S
C3764 C3765 1.377 . S
C3764 C3766 1.384 . S
C3765 C3764 1.377 . S
C3765 C3771 1.390 . S
C3766 H3757 0.930 . S
C3766 C3764 1.384 . S
C3766 C3767 1.372 . S
C3767 C3766 1.372 . S
C3767 C3768 1.400 . S
C3767 C3772 1.490 . S
C3768 H3758 0.930 . S
C3768 C3767 1.400 . S
C3768 C3771 1.386 . S
H3769 C3785 0.930 . S
H3770 C3786 0.931 . S
C3771 H3759 0.929 . S
C3771 C3765 1.390 . S
C3771 C3768 1.386 . S
C3772 C3767 1.490 . S
C3772 C3774 1.395 . S
C3772 C3775 1.403 . S
H3773 C3779 0.930 . S
C3774 H3760 0.930 . S
C3774 C3772 1.395 . S
C3774 C3777 1.403 . S
C3775 C3772 1.403 . S
C3775 C3776 1.524 . S
C3775 C3779 1.400 . S
C3776 H3761 0.960 . S
C3776 H3762 0.960 . S
C3776 H3763 0.960 . S
C3776 C3775 1.524 . S
C3777 C3774 1.403 . S
C3777 C3778 1.392 . S
C3777 C3781 1.495 . S
C3778 C3777 1.392 . S
C3778 C3779 1.385 . S
C3778 C3780 1.478 . S
C3779 H3773 0.930 . S
C3779 C3775 1.400 . S
C3779 C3778 1.385 . S
C3780 C3778 1.478 . S
C3780 C3782 1.381 . S
C3780 C3786 1.383 . S
C3781 C3777 1.495 . S
C3781 H3787 0.959 . S
C3781 H3788 0.961 . S
C3781 H3789 0.960 . S
C3782 C3780 1.381 . S
C3782 C3783 1.394 . S
C3782 H3790 0.930 . S
C3783 C3782 1.394 . S
C3783 C3784 1.383 . S
C3783 H3791 0.929 . S
C3784 C3783 1.383 . S
C3784 C3785 1.377 . S
C3785 H3769 0.930 . S
C3785 C3784 1.377 . S
C3785 C3786 1.379 . S
C3786 H3770 0.931 . S
C3786 C3780 1.383 . S
C3786 C3785 1.379 . S
H3787 C3781 0.959 . S
H3788 C3781 0.961 . S
H3789 C3781 0.960 . S
H3790 C3782 0.930 . S
H3791 C3783 0.929 . S
H3792 C3800 0.929 . S
H3793 C3802 0.930 . S
H3794 C3804 0.930 . S
H3795 C3807 0.929 . S
H3796 C3810 0.930 . S
H3797 C3812 0.960 . S
H3798 C3812 0.960 . S
H3799 C3812 0.960 . S
C3800 H3792 0.929 . S
C3800 C3801 1.377 . S
C3800 C3802 1.384 . S
C3801 C3800 1.377 . S
C3801 C3807 1.390 . S
C3802 H3793 0.930 . S
C3802 C3800 1.384 . S
C3802 C3803 1.372 . S
C3803 C3802 1.372 . S
C3803 C3804 1.400 . S
C3803 C3808 1.490 . S
C3804 H3794 0.930 . S
C3804 C3803 1.400 . S
C3804 C3807 1.386 . S
H3805 C3821 0.930 . S
H3806 C3822 0.931 . S
C3807 H3795 0.929 . S
C3807 C3801 1.390 . S
C3807 C3804 1.386 . S
C3808 C3803 1.490 . S
C3808 C3810 1.395 . S
C3808 C3811 1.403 . S
H3809 C3815 0.930 . S
C3810 H3796 0.930 . S
C3810 C3808 1.395 . S
C3810 C3813 1.403 1_565 S
C3811 C3808 1.403 . S
C3811 C3812 1.524 . S
C3811 C3815 1.400 1_565 S
C3812 H3797 0.960 . S
C3812 H3798 0.960 . S
C3812 H3799 0.960 . S
C3812 C3811 1.524 . S
C3813 C3810 1.403 1_545 S
C3813 C3814 1.392 . S
C3813 C3817 1.495 . S
C3814 C3813 1.392 . S
C3814 C3815 1.385 . S
C3814 C3816 1.478 . S
C3815 H3809 0.930 . S
C3815 C3811 1.400 1_545 S
C3815 C3814 1.385 . S
C3816 C3814 1.478 . S
C3816 C3818 1.381 . S
C3816 C3822 1.383 . S
C3817 C3813 1.495 . S
C3817 H3823 0.959 . S
C3817 H3824 0.961 . S
C3817 H3825 0.960 . S
C3818 C3816 1.381 . S
C3818 C3819 1.394 . S
C3818 H3826 0.930 . S
C3819 C3818 1.394 . S
C3819 C3820 1.383 . S
C3819 H3827 0.929 . S
C3820 C3819 1.383 . S
C3820 C3821 1.377 . S
C3821 H3805 0.930 . S
C3821 C3820 1.377 . S
C3821 C3822 1.379 . S
C3822 H3806 0.931 . S
C3822 C3816 1.383 . S
C3822 C3821 1.379 . S
H3823 C3817 0.959 . S
H3824 C3817 0.961 . S
H3825 C3817 0.960 . S
H3826 C3818 0.930 . S
H3827 C3819 0.929 . S
H3828 C3836 0.929 . S
H3829 C3838 0.930 . S
H3830 C3840 0.930 . S
H3831 C3843 0.929 . S
H3832 C3846 0.930 . S
H3833 C3848 0.960 . S
H3834 C3848 0.960 . S
H3835 C3848 0.960 . S
C3836 H3828 0.929 . S
C3836 C3837 1.377 . S
C3836 C3838 1.384 . S
C3837 C3836 1.377 . S
C3837 C3843 1.390 . S
C3838 H3829 0.930 . S
C3838 C3836 1.384 . S
C3838 C3839 1.372 . S
C3839 C3838 1.372 . S
C3839 C3840 1.400 . S
C3839 C3844 1.490 . S
C3840 H3830 0.930 . S
C3840 C3839 1.400 . S
C3840 C3843 1.386 . S
H3841 C3857 0.930 . S
H3842 C3858 0.931 . S
C3843 H3831 0.929 . S
C3843 C3837 1.390 . S
C3843 C3840 1.386 . S
C3844 C3839 1.490 . S
C3844 C3846 1.395 . S
C3844 C3847 1.403 1_655 S
H3845 C3851 0.930 . S
C3846 H3832 0.930 . S
C3846 C3844 1.395 . S
C3846 C3849 1.403 . S
C3847 C3844 1.403 1_455 S
C3847 C3848 1.524 . S
C3847 C3851 1.400 . S
C3848 H3833 0.960 . S
C3848 H3834 0.960 . S
C3848 H3835 0.960 . S
C3848 C3847 1.524 . S
C3849 C3846 1.403 . S
C3849 C3850 1.392 1_655 S
C3849 C3853 1.495 . S
C3850 C3849 1.392 1_455 S
C3850 C3851 1.385 . S
C3850 C3852 1.478 . S
C3851 H3845 0.930 . S
C3851 C3847 1.400 . S
C3851 C3850 1.385 . S
C3852 C3850 1.478 . S
C3852 C3854 1.381 . S
C3852 C3858 1.383 . S
C3853 C3849 1.495 . S
C3853 H3859 0.959 . S
C3853 H3860 0.961 . S
C3853 H3861 0.960 . S
C3854 C3852 1.381 . S
C3854 C3855 1.394 . S
C3854 H3862 0.930 . S
C3855 C3854 1.394 . S
C3855 C3856 1.383 . S
C3855 H3863 0.929 . S
C3856 C3855 1.383 . S
C3856 C3857 1.377 . S
C3857 H3841 0.930 . S
C3857 C3856 1.377 . S
C3857 C3858 1.379 . S
C3858 H3842 0.931 . S
C3858 C3852 1.383 . S
C3858 C3857 1.379 . S
H3859 C3853 0.959 . S
H3860 C3853 0.961 . S
H3861 C3853 0.960 . S
H3862 C3854 0.930 . S
H3863 C3855 0.929 . S
H3864 C3872 0.929 . S
H3865 C3874 0.930 . S
H3866 C3876 0.930 . S
H3867 C3879 0.929 . S
H3868 C3882 0.930 . S
H3869 C3884 0.960 . S
H3870 C3884 0.960 . S
H3871 C3884 0.960 . S
C3872 H3864 0.929 . S
C3872 C3873 1.377 . S
C3872 C3874 1.384 . S
C3873 C3872 1.377 . S
C3873 C3879 1.390 . S
C3874 H3865 0.930 . S
C3874 C3872 1.384 . S
C3874 C3875 1.372 . S
C3875 C3874 1.372 . S
C3875 C3876 1.400 . S
C3875 C3880 1.490 . S
C3876 H3866 0.930 . S
C3876 C3875 1.400 . S
C3876 C3879 1.386 . S
H3877 C3893 0.930 . S
H3878 C3894 0.931 . S
C3879 H3867 0.929 . S
C3879 C3873 1.390 . S
C3879 C3876 1.386 . S
C3880 C3875 1.490 . S
C3880 C3882 1.395 . S
C3880 C3883 1.403 . S
H3881 C3887 0.930 . S
C3882 H3868 0.930 . S
C3882 C3880 1.395 . S
C3882 C3885 1.403 1_565 S
C3883 C3880 1.403 . S
C3883 C3884 1.524 . S
C3883 C3887 1.400 1_565 S
C3884 H3869 0.960 . S
C3884 H3870 0.960 . S
C3884 H3871 0.960 . S
C3884 C3883 1.524 . S
C3885 C3882 1.403 1_545 S
C3885 C3886 1.392 . S
C3885 C3889 1.495 . S
C3886 C3885 1.392 . S
C3886 C3887 1.385 . S
C3886 C3888 1.478 . S
C3887 H3881 0.930 . S
C3887 C3883 1.400 1_545 S
C3887 C3886 1.385 . S
C3888 C3886 1.478 . S
C3888 C3890 1.381 . S
C3888 C3894 1.383 . S
C3889 C3885 1.495 . S
C3889 H3895 0.959 . S
C3889 H3896 0.961 . S
C3889 H3897 0.960 . S
C3890 C3888 1.381 . S
C3890 C3891 1.394 . S
C3890 H3898 0.930 . S
C3891 C3890 1.394 . S
C3891 C3892 1.383 . S
C3891 H3899 0.929 . S
C3892 C3891 1.383 . S
C3892 C3893 1.377 . S
C3893 H3877 0.930 . S
C3893 C3892 1.377 . S
C3893 C3894 1.379 . S
C3894 H3878 0.931 . S
C3894 C3888 1.383 . S
C3894 C3893 1.379 . S
H3895 C3889 0.959 . S
H3896 C3889 0.961 . S
H3897 C3889 0.960 . S
H3898 C3890 0.930 . S
H3899 C3891 0.929 . S
H3900 C3908 0.929 . S
H3901 C3910 0.930 . S
H3902 C3912 0.930 . S
H3903 C3915 0.929 . S
H3904 C3918 0.930 . S
H3905 C3920 0.960 . S
H3906 C3920 0.960 . S
H3907 C3920 0.960 . S
C3908 H3900 0.929 . S
C3908 C3909 1.377 . S
C3908 C3910 1.384 . S
C3909 C3908 1.377 . S
C3909 C3915 1.390 . S
C3910 H3901 0.930 . S
C3910 C3908 1.384 . S
C3910 C3911 1.372 . S
C3911 C3910 1.372 . S
C3911 C3912 1.400 . S
C3911 C3916 1.490 . S
C3912 H3902 0.930 . S
C3912 C3911 1.400 . S
C3912 C3915 1.386 . S
H3913 C3929 0.930 . S
H3914 C3930 0.931 . S
C3915 H3903 0.929 . S
C3915 C3909 1.390 . S
C3915 C3912 1.386 . S
C3916 C3911 1.490 . S
C3916 C3918 1.395 . S
C3916 C3919 1.403 1_655 S
H3917 C3923 0.930 . S
C3918 H3904 0.930 . S
C3918 C3916 1.395 . S
C3918 C3921 1.403 . S
C3919 C3916 1.403 1_455 S
C3919 C3920 1.524 . S
C3919 C3923 1.400 . S
C3920 H3905 0.960 . S
C3920 H3906 0.960 . S
C3920 H3907 0.960 . S
C3920 C3919 1.524 . S
C3921 C3918 1.403 . S
C3921 C3922 1.392 1_655 S
C3921 C3925 1.495 . S
C3922 C3921 1.392 1_455 S
C3922 C3923 1.385 . S
C3922 C3924 1.478 . S
C3923 H3917 0.930 . S
C3923 C3919 1.400 . S
C3923 C3922 1.385 . S
C3924 C3922 1.478 . S
C3924 C3926 1.381 . S
C3924 C3930 1.383 . S
C3925 C3921 1.495 . S
C3925 H3931 0.959 . S
C3925 H3932 0.961 . S
C3925 H3933 0.960 . S
C3926 C3924 1.381 . S
C3926 C3927 1.394 . S
C3926 H3934 0.930 . S
C3927 C3926 1.394 . S
C3927 C3928 1.383 . S
C3927 H3935 0.929 . S
C3928 C3927 1.383 . S
C3928 C3929 1.377 . S
C3929 H3913 0.930 . S
C3929 C3928 1.377 . S
C3929 C3930 1.379 . S
C3930 H3914 0.931 . S
C3930 C3924 1.383 . S
C3930 C3929 1.379 . S
H3931 C3925 0.959 . S
H3932 C3925 0.961 . S
H3933 C3925 0.960 . S
H3934 C3926 0.930 . S
H3935 C3927 0.929 . S
H3936 C3944 0.929 . S
H3937 C3946 0.930 . S
H3938 C3948 0.930 . S
H3939 C3951 0.929 . S
H3940 C3954 0.930 . S
H3941 C3956 0.960 . S
H3942 C3956 0.960 . S
H3943 C3956 0.960 . S
C3944 H3936 0.929 . S
C3944 C3945 1.377 . S
C3944 C3946 1.384 . S
C3945 C3944 1.377 . S
C3945 C3951 1.390 . S
C3946 H3937 0.930 . S
C3946 C3944 1.384 . S
C3946 C3947 1.372 . S
C3947 C3946 1.372 . S
C3947 C3948 1.400 . S
C3947 C3952 1.490 . S
C3948 H3938 0.930 . S
C3948 C3947 1.400 . S
C3948 C3951 1.386 . S
H3949 C3965 0.930 . S
H3950 C3966 0.931 . S
C3951 H3939 0.929 . S
C3951 C3945 1.390 . S
C3951 C3948 1.386 . S
C3952 C3947 1.490 . S
C3952 C3954 1.395 . S
C3952 C3955 1.403 . S
H3953 C3959 0.930 . S
C3954 H3940 0.930 . S
C3954 C3952 1.395 . S
C3954 C3957 1.403 1_565 S
C3955 C3952 1.403 . S
C3955 C3956 1.524 . S
C3955 C3959 1.400 1_565 S
C3956 H3941 0.960 . S
C3956 H3942 0.960 . S
C3956 H3943 0.960 . S
C3956 C3955 1.524 . S
C3957 C3954 1.403 1_545 S
C3957 C3958 1.392 . S
C3957 C3961 1.495 . S
C3958 C3957 1.392 . S
C3958 C3959 1.385 . S
C3958 C3960 1.478 . S
C3959 H3953 0.930 . S
C3959 C3955 1.400 1_545 S
C3959 C3958 1.385 . S
C3960 C3958 1.478 . S
C3960 C3962 1.381 . S
C3960 C3966 1.383 . S
C3961 C3957 1.495 . S
C3961 H3967 0.959 . S
C3961 H3968 0.961 . S
C3961 H3969 0.960 . S
C3962 C3960 1.381 . S
C3962 C3963 1.394 . S
C3962 H3970 0.930 . S
C3963 C3962 1.394 . S
C3963 C3964 1.383 . S
C3963 H3971 0.929 . S
C3964 C3963 1.383 . S
C3964 C3965 1.377 . S
C3965 H3949 0.930 . S
C3965 C3964 1.377 . S
C3965 C3966 1.379 . S
C3966 H3950 0.931 . S
C3966 C3960 1.383 . S
C3966 C3965 1.379 . S
H3967 C3961 0.959 . S
H3968 C3961 0.961 . S
H3969 C3961 0.960 . S
H3970 C3962 0.930 . S
H3971 C3963 0.929 . S
H3972 C3980 0.929 . S
H3973 C3982 0.930 . S
H3974 C3984 0.930 . S
H3975 C3987 0.929 . S
H3976 C3990 0.930 . S
H3977 C3992 0.960 . S
H3978 C3992 0.960 . S
H3979 C3992 0.960 . S
C3980 H3972 0.929 . S
C3980 C3981 1.377 . S
C3980 C3982 1.384 . S
C3981 C3980 1.377 . S
C3981 C3987 1.390 . S
C3982 H3973 0.930 . S
C3982 C3980 1.384 . S
C3982 C3983 1.372 . S
C3983 C3982 1.372 . S
C3983 C3984 1.400 . S
C3983 C3988 1.490 . S
C3984 H3974 0.930 . S
C3984 C3983 1.400 . S
C3984 C3987 1.386 . S
H3985 C4001 0.930 . S
H3986 C4002 0.931 . S
C3987 H3975 0.929 . S
C3987 C3981 1.390 . S
C3987 C3984 1.386 . S
C3988 C3983 1.490 . S
C3988 C3990 1.395 1_455 S
C3988 C3991 1.403 . S
H3989 C3995 0.930 . S
C3990 H3976 0.930 . S
C3990 C3988 1.395 1_655 S
C3990 C3993 1.403 . S
C3991 C3988 1.403 . S
C3991 C3992 1.524 . S
C3991 C3995 1.372 1_455 S
C3992 H3977 0.960 . S
C3992 H3978 0.960 . S
C3992 H3979 0.960 . S
C3992 C3991 1.524 . S
C3993 C3990 1.403 . S
C3993 C3994 1.392 . S
C3993 C3997 1.495 . S
C3994 C3993 1.392 . S
C3994 C3995 1.414 . S
C3994 C3996 1.478 . S
C3995 H3989 0.930 . S
C3995 C3991 1.372 1_655 S
C3995 C3994 1.414 . S
C3996 C3994 1.478 . S
C3996 C3998 1.381 . S
C3996 C4002 1.383 . S
C3997 C3993 1.495 . S
C3997 H4003 0.959 . S
C3997 H4004 0.961 . S
C3997 H4005 0.960 . S
C3998 C3996 1.381 . S
C3998 C3999 1.394 . S
C3998 H4006 0.930 . S
C3999 C3998 1.394 . S
C3999 C4000 1.383 . S
C3999 H4007 0.929 . S
C4000 C3999 1.383 . S
C4000 C4001 1.377 . S
C4001 H3985 0.930 . S
C4001 C4000 1.377 . S
C4001 C4002 1.379 . S
C4002 H3986 0.931 . S
C4002 C3996 1.383 . S
C4002 C4001 1.379 . S
H4003 C3997 0.959 . S
H4004 C3997 0.961 . S
H4005 C3997 0.960 . S
H4006 C3998 0.930 . S
H4007 C3999 0.929 . S
H4008 C4016 0.929 . S
H4009 C4018 0.930 . S
H4010 C4020 0.930 . S
H4011 C4023 0.929 . S
H4012 C4026 0.930 . S
H4013 C4028 0.939 1_565 S
H4014 C4028 0.979 . S
H4015 C4028 0.962 . S
C4016 H4008 0.929 . S
C4016 C4017 1.377 . S
C4016 C4018 1.384 . S
C4017 C4016 1.377 . S
C4017 C4023 1.390 . S
C4018 H4009 0.930 . S
C4018 C4016 1.384 . S
C4018 C4019 1.372 . S
C4019 C4018 1.372 . S
C4019 C4020 1.400 . S
C4019 C4024 1.490 . S
C4020 H4010 0.930 . S
C4020 C4019 1.400 . S
C4020 C4023 1.386 . S
H4021 C4037 0.930 . S
H4022 C4038 0.931 . S
C4023 H4011 0.929 . S
C4023 C4017 1.390 . S
C4023 C4020 1.386 . S
C4024 C4019 1.490 . S
C4024 C4026 1.395 . S
C4024 C4027 1.457 . S
H4025 C4031 0.930 . S
C4026 H4012 0.930 . S
C4026 C4024 1.395 . S
C4026 C4029 1.463 . S
C4027 C4024 1.457 . S
C4027 C4028 1.523 . S
C4027 C4031 1.348 1_545 S
C4028 H4013 0.939 1_545 S
C4028 H4014 0.979 . S
C4028 H4015 0.962 . S
C4028 C4027 1.523 . S
C4029 C4026 1.463 . S
C4029 C4030 1.333 1_545 S
C4029 C4033 1.500 . S
C4030 C4029 1.333 1_565 S
C4030 C4031 1.385 . S
C4030 C4032 1.478 . S
C4031 H4025 0.930 . S
C4031 C4027 1.348 1_565 S
C4031 C4030 1.385 . S
C4032 C4030 1.478 . S
C4032 C4034 1.381 . S
C4032 C4038 1.383 . S
C4033 C4029 1.500 . S
C4033 H4039 0.959 . S
C4033 H4040 0.961 1_545 S
C4033 H4041 0.966 . S
C4034 C4032 1.381 . S
C4034 C4035 1.394 . S
C4034 H4042 0.930 . S
C4035 C4034 1.394 . S
C4035 C4036 1.383 . S
C4035 H4043 0.929 . S
C4036 C4035 1.383 . S
C4036 C4037 1.377 . S
C4037 H4021 0.930 . S
C4037 C4036 1.377 . S
C4037 C4038 1.379 . S
C4038 H4022 0.931 . S
C4038 C4032 1.383 . S
C4038 C4037 1.379 . S
H4039 C4033 0.959 . S
H4040 C4033 0.961 1_565 S
H4041 C4033 0.966 . S
H4042 C4034 0.930 . S
H4043 C4035 0.929 . S
H4044 C4052 0.929 . S
H4045 C4054 0.930 . S
H4046 C4056 0.930 . S
H4047 C4059 0.929 . S
H4048 C4062 0.930 . S
H4049 C4064 0.960 . S
H4050 C4064 0.960 . S
H4051 C4064 0.960 . S
C4052 H4044 0.929 . S
C4052 C4053 1.377 . S
C4052 C4054 1.384 . S
C4053 C4052 1.377 . S
C4053 C4059 1.390 . S
C4054 H4045 0.930 . S
C4054 C4052 1.384 . S
C4054 C4055 1.372 . S
C4055 C4054 1.372 . S
C4055 C4056 1.400 . S
C4055 C4060 1.490 . S
C4056 H4046 0.930 . S
C4056 C4055 1.400 . S
C4056 C4059 1.386 . S
H4057 C4073 0.930 . S
H4058 C4074 0.931 . S
C4059 H4047 0.929 . S
C4059 C4053 1.390 . S
C4059 C4056 1.386 . S
C4060 C4055 1.490 . S
C4060 C4062 1.344 1_455 S
C4060 C4063 1.403 . S
H4061 C4067 0.930 . S
C4062 H4048 0.930 . S
C4062 C4060 1.344 1_655 S
C4062 C4065 1.455 . S
C4063 C4060 1.403 . S
C4063 C4064 1.524 . S
C4063 C4067 1.400 1_455 S
C4064 H4049 0.960 . S
C4064 H4050 0.960 . S
C4064 H4051 0.960 . S
C4064 C4063 1.524 . S
C4065 C4062 1.455 . S
C4065 C4066 1.392 . S
C4065 C4069 1.495 . S
C4066 C4065 1.392 . S
C4066 C4067 1.385 . S
C4066 C4068 1.478 . S
C4067 H4061 0.930 . S
C4067 C4063 1.400 1_655 S
C4067 C4066 1.385 . S
C4068 C4066 1.478 . S
C4068 C4070 1.381 . S
C4068 C4074 1.383 . S
C4069 C4065 1.495 . S
C4069 H4075 0.959 . S
C4069 H4076 0.961 . S
C4069 H4077 0.960 . S
C4070 C4068 1.381 . S
C4070 C4071 1.394 . S
C4070 H4078 0.930 . S
C4071 C4070 1.394 . S
C4071 C4072 1.383 . S
C4071 H4079 0.929 . S
C4072 C4071 1.383 . S
C4072 C4073 1.377 . S
C4073 H4057 0.930 . S
C4073 C4072 1.377 . S
C4073 C4074 1.379 . S
C4074 H4058 0.931 . S
C4074 C4068 1.383 . S
C4074 C4073 1.379 . S
H4075 C4069 0.959 . S
H4076 C4069 0.961 . S
H4077 C4069 0.960 . S
H4078 C4070 0.930 . S
H4079 C4071 0.929 . S
H4080 C4088 0.929 . S
H4081 C4090 0.930 . S
H4082 C4092 0.930 . S
H4083 C4095 0.929 . S
H4084 C4098 0.932 . S
H4085 C4100 0.960 . S
H4086 C4100 0.960 . S
H4087 C4100 0.960 . S
C4088 H4080 0.929 . S
C4088 C4089 1.377 . S
C4088 C4090 1.384 . S
C4089 C4088 1.377 . S
C4089 C4095 1.390 . S
C4090 H4081 0.930 . S
C4090 C4088 1.384 . S
C4090 C4091 1.372 . S
C4091 C4090 1.372 . S
C4091 C4092 1.400 . S
C4091 C4096 1.490 . S
C4092 H4082 0.930 . S
C4092 C4091 1.400 . S
C4092 C4095 1.386 . S
H4093 C4109 0.930 . S
H4094 C4110 0.931 . S
C4095 H4083 0.929 . S
C4095 C4089 1.390 . S
C4095 C4092 1.386 . S
C4096 C4091 1.490 . S
C4096 C4098 1.410 . S
C4096 C4099 1.403 . S
H4097 C4103 0.930 . S
C4098 H4084 0.932 . S
C4098 C4096 1.410 . S
C4098 C4101 1.386 1_556 S
C4099 C4096 1.403 . S
C4099 C4100 1.524 . S
C4099 C4103 1.400 1_556 S
C4100 H4085 0.960 . S
C4100 H4086 0.960 . S
C4100 H4087 0.960 . S
C4100 C4099 1.524 . S
C4101 C4098 1.386 1_554 S
C4101 C4102 1.392 . S
C4101 C4105 1.495 . S
C4102 C4101 1.392 . S
C4102 C4103 1.385 . S
C4102 C4104 1.478 . S
C4103 H4097 0.930 . S
C4103 C4099 1.400 1_554 S
C4103 C4102 1.385 . S
C4104 C4102 1.478 . S
C4104 C4106 1.381 . S
C4104 C4110 1.383 . S
C4105 C4101 1.495 . S
C4105 H4111 0.959 . S
C4105 H4112 0.961 . S
C4105 H4113 0.960 . S
C4106 C4104 1.381 . S
C4106 C4107 1.394 . S
C4106 H4114 0.930 . S
C4107 C4106 1.394 . S
C4107 C4108 1.383 . S
C4107 H4115 0.929 . S
C4108 C4107 1.383 . S
C4108 C4109 1.377 . S
C4109 H4093 0.930 . S
C4109 C4108 1.377 . S
C4109 C4110 1.379 . S
C4110 H4094 0.931 . S
C4110 C4104 1.383 . S
C4110 C4109 1.379 . S
H4111 C4105 0.959 . S
H4112 C4105 0.961 . S
H4113 C4105 0.960 . S
H4114 C4106 0.930 . S
H4115 C4107 0.929 . S
H4116 C4124 0.929 . S
H4117 C4126 0.930 . S
H4118 C4128 0.930 . S
H4119 C4131 0.929 . S
H4120 C4134 0.930 . S
H4121 C4136 0.960 . S
H4122 C4136 0.960 . S
H4123 C4136 0.960 . S
C4124 H4116 0.929 . S
C4124 C4125 1.377 . S
C4124 C4126 1.384 . S
C4125 C4124 1.377 . S
C4125 C4131 1.390 . S
C4126 H4117 0.930 . S
C4126 C4124 1.384 . S
C4126 C4127 1.372 . S
C4127 C4126 1.372 . S
C4127 C4128 1.400 . S
C4127 C4132 1.490 . S
C4128 H4118 0.930 . S
C4128 C4127 1.400 . S
C4128 C4131 1.386 . S
H4129 C4145 0.930 . S
H4130 C4146 0.931 . S
C4131 H4119 0.929 . S
C4131 C4125 1.390 . S
C4131 C4128 1.386 . S
C4132 C4127 1.490 . S
C4132 C4134 1.395 1_556 S
C4132 C4135 1.403 . S
H4133 C4139 0.935 . S
C4134 H4120 0.930 . S
C4134 C4132 1.395 1_554 S
C4134 C4137 1.403 . S
C4135 C4132 1.403 . S
C4135 C4136 1.524 . S
C4135 C4139 1.400 1_556 S
C4136 H4121 0.960 . S
C4136 H4122 0.960 . S
C4136 H4123 0.960 . S
C4136 C4135 1.524 . S
C4137 C4134 1.403 . S
C4137 C4138 1.392 . S
C4137 C4141 1.495 . S
C4138 C4137 1.392 . S
C4138 C4139 1.385 . S
C4138 C4140 1.478 . S
C4139 H4133 0.935 . S
C4139 C4135 1.400 1_554 S
C4139 C4138 1.385 . S
C4140 C4138 1.478 . S
C4140 C4142 1.381 . S
C4140 C4146 1.383 . S
C4141 C4137 1.495 . S
C4141 H4147 0.959 . S
C4141 H4148 0.961 . S
C4141 H4149 0.960 . S
C4142 C4140 1.381 . S
C4142 C4143 1.394 . S
C4142 H4150 0.930 . S
C4143 C4142 1.394 . S
C4143 C4144 1.383 . S
C4143 H4151 0.929 . S
C4144 C4143 1.383 . S
C4144 C4145 1.377 . S
C4145 H4129 0.930 . S
C4145 C4144 1.377 . S
C4145 C4146 1.379 . S
C4146 H4130 0.931 . S
C4146 C4140 1.383 . S
C4146 C4145 1.379 . S
H4147 C4141 0.959 . S
H4148 C4141 0.961 . S
H4149 C4141 0.960 . S
H4150 C4142 0.930 . S
H4151 C4143 0.929 . S
H4152 C4160 0.929 . S
H4153 C4162 0.930 . S
H4154 C4164 0.930 . S
H4155 C4167 0.929 . S
H4156 C4170 0.930 . S
H4157 C4172 0.960 . S
H4158 C4172 0.960 . S
H4159 C4172 0.960 . S
C4160 H4152 0.929 . S
C4160 C4161 1.377 . S
C4160 C4162 1.384 . S
C4161 C4160 1.377 . S
C4161 C4167 1.390 . S
C4162 H4153 0.930 . S
C4162 C4160 1.384 . S
C4162 C4163 1.372 . S
C4163 C4162 1.372 . S
C4163 C4164 1.400 . S
C4163 C4168 1.490 . S
C4164 H4154 0.930 . S
C4164 C4163 1.400 . S
C4164 C4167 1.386 . S
H4165 C4181 0.930 . S
H4166 C4182 0.931 . S
C4167 H4155 0.929 . S
C4167 C4161 1.390 . S
C4167 C4164 1.386 . S
C4168 C4163 1.490 . S
C4168 C4170 1.395 . S
C4168 C4171 1.403 1_554 S
H4169 C4175 0.930 . S
C4170 H4156 0.930 . S
C4170 C4168 1.395 . S
C4170 C4173 1.403 . S
C4171 C4168 1.403 1_556 S
C4171 C4172 1.524 . S
C4171 C4175 1.400 . S
C4172 H4157 0.960 . S
C4172 H4158 0.960 . S
C4172 H4159 0.960 . S
C4172 C4171 1.524 . S
C4173 C4170 1.403 . S
C4173 C4174 1.392 1_554 S
C4173 C4177 1.495 . S
C4174 C4173 1.392 1_556 S
C4174 C4175 1.385 . S
C4174 C4176 1.478 . S
C4175 H4169 0.930 . S
C4175 C4171 1.400 . S
C4175 C4174 1.385 . S
C4176 C4174 1.478 . S
C4176 C4178 1.381 . S
C4176 C4182 1.383 . S
C4177 C4173 1.495 . S
C4177 H4183 0.959 . S
C4177 H4184 0.961 . S
C4177 H4185 0.960 . S
C4178 C4176 1.381 . S
C4178 C4179 1.394 . S
C4178 H4186 0.930 . S
C4179 C4178 1.394 . S
C4179 C4180 1.383 . S
C4179 H4187 0.929 . S
C4180 C4179 1.383 . S
C4180 C4181 1.377 . S
C4181 H4165 0.930 . S
C4181 C4180 1.377 . S
C4181 C4182 1.379 . S
C4182 H4166 0.931 . S
C4182 C4176 1.383 . S
C4182 C4181 1.379 . S
H4183 C4177 0.959 . S
H4184 C4177 0.961 . S
H4185 C4177 0.960 . S
H4186 C4178 0.930 . S
H4187 C4179 0.929 . S
H4188 C4196 0.929 . S
H4189 C4198 0.930 . S
H4190 C4200 0.930 . S
H4191 C4203 0.929 . S
H4192 C4206 0.930 . S
H4193 C4208 0.960 . S
H4194 C4208 0.960 . S
H4195 C4208 0.943 1_554 S
C4196 H4188 0.929 . S
C4196 C4197 1.377 . S
C4196 C4198 1.384 . S
C4197 C4196 1.377 . S
C4197 C4203 1.390 . S
C4198 H4189 0.930 . S
C4198 C4196 1.384 . S
C4198 C4199 1.372 . S
C4199 C4198 1.372 . S
C4199 C4200 1.400 . S
C4199 C4204 1.490 . S
C4200 H4190 0.930 . S
C4200 C4199 1.400 . S
C4200 C4203 1.386 . S
H4201 C4217 0.930 . S
H4202 C4218 0.931 . S
C4203 H4191 0.929 . S
C4203 C4197 1.390 . S
C4203 C4200 1.386 . S
C4204 C4199 1.490 . S
C4204 C4206 1.395 . S
C4204 C4207 1.403 1_554 S
H4205 C4211 0.930 . S
C4206 H4192 0.930 . S
C4206 C4204 1.395 . S
C4206 C4209 1.403 . S
C4207 C4204 1.403 1_556 S
C4207 C4208 1.524 . S
C4207 C4211 1.400 . S
C4208 H4193 0.960 . S
C4208 H4194 0.960 . S
C4208 H4195 0.943 1_556 S
C4208 C4207 1.524 . S
C4209 C4206 1.403 . S
C4209 C4210 1.392 1_554 S
C4209 C4213 1.495 . S
C4210 C4209 1.392 1_556 S
C4210 C4211 1.385 . S
C4210 C4212 1.478 . S
C4211 H4205 0.930 . S
C4211 C4207 1.400 . S
C4211 C4210 1.385 . S
C4212 C4210 1.478 . S
C4212 C4214 1.381 . S
C4212 C4218 1.383 . S
C4213 C4209 1.495 . S
C4213 H4219 0.959 . S
C4213 H4220 0.961 . S
C4213 H4221 0.982 . S
C4214 C4212 1.381 . S
C4214 C4215 1.394 . S
C4214 H4222 0.930 . S
C4215 C4214 1.394 . S
C4215 C4216 1.383 . S
C4215 H4223 0.929 . S
C4216 C4215 1.383 . S
C4216 C4217 1.377 . S
C4217 H4201 0.930 . S
C4217 C4216 1.377 . S
C4217 C4218 1.379 . S
C4218 H4202 0.931 . S
C4218 C4212 1.383 . S
C4218 C4217 1.379 . S
H4219 C4213 0.959 . S
H4220 C4213 0.961 . S
H4221 C4213 0.982 . S
H4222 C4214 0.930 . S
H4223 C4215 0.929 . S
H4224 C4232 0.929 . S
H4225 C4234 0.930 . S
H4226 C4236 0.930 . S
H4227 C4239 0.929 . S
H4228 C4242 0.930 . S
H4229 C4244 0.960 . S
H4230 C4244 0.960 . S
H4231 C4244 0.960 . S
C4232 H4224 0.929 . S
C4232 C4233 1.377 . S
C4232 C4234 1.384 . S
C4233 C4232 1.377 . S
C4233 C4239 1.390 . S
C4234 H4225 0.930 . S
C4234 C4232 1.384 . S
C4234 C4235 1.372 . S
C4235 C4234 1.372 . S
C4235 C4236 1.400 . S
C4235 C4240 1.490 . S
C4236 H4226 0.930 . S
C4236 C4235 1.400 . S
C4236 C4239 1.386 . S
H4237 C4253 0.930 1_556 S
H4238 C4254 0.931 . S
C4239 H4227 0.929 . S
C4239 C4233 1.390 . S
C4239 C4236 1.386 . S
C4240 C4235 1.490 . S
C4240 C4242 1.395 . S
C4240 C4243 1.403 . S
H4241 C4247 0.930 . S
C4242 H4228 0.930 . S
C4242 C4240 1.395 . S
C4242 C4245 1.403 . S
C4243 C4240 1.403 . S
C4243 C4244 1.524 . S
C4243 C4247 1.400 . S
C4244 H4229 0.960 . S
C4244 H4230 0.960 . S
C4244 H4231 0.960 . S
C4244 C4243 1.524 . S
C4245 C4242 1.403 . S
C4245 C4246 1.392 . S
C4245 C4249 1.495 . S
C4246 C4245 1.392 . S
C4246 C4247 1.385 . S
C4246 C4248 1.478 . S
C4247 H4241 0.930 . S
C4247 C4243 1.400 . S
C4247 C4246 1.385 . S
C4248 C4246 1.478 . S
C4248 C4250 1.381 . S
C4248 C4254 1.383 . S
C4249 C4245 1.495 . S
C4249 H4255 0.959 . S
C4249 H4256 0.961 . S
C4249 H4257 0.960 . S
C4250 C4248 1.381 . S
C4250 C4251 1.394 . S
C4250 H4258 0.930 . S
C4251 C4250 1.394 . S
C4251 C4252 1.383 . S
C4251 H4259 0.929 . S
C4252 C4251 1.383 . S
C4252 C4253 1.377 . S
C4253 H4237 0.930 1_554 S
C4253 C4252 1.377 . S
C4253 C4254 1.379 . S
C4254 H4238 0.931 . S
C4254 C4248 1.383 . S
C4254 C4253 1.379 . S
H4255 C4249 0.959 . S
H4256 C4249 0.961 . S
H4257 C4249 0.960 . S
H4258 C4250 0.930 . S
H4259 C4251 0.929 . S
H4260 C4268 0.929 . S
H4261 C4270 0.930 . S
H4262 C4272 0.930 . S
H4263 C4275 0.929 . S
H4264 C4278 0.930 . S
H4265 C4280 0.960 . S
H4266 C4280 0.960 . S
H4267 C4280 0.960 . S
C4268 H4260 0.929 . S
C4268 C4269 1.377 . S
C4268 C4270 1.384 . S
C4269 C4268 1.377 . S
C4269 C4275 1.390 . S
C4270 H4261 0.930 . S
C4270 C4268 1.384 . S
C4270 C4271 1.372 . S
C4271 C4270 1.372 . S
C4271 C4272 1.400 . S
C4271 C4276 1.490 . S
C4272 H4262 0.930 . S
C4272 C4271 1.400 . S
C4272 C4275 1.386 . S
H4273 C4289 0.930 . S
H4274 C4290 0.931 . S
C4275 H4263 0.929 . S
C4275 C4269 1.390 . S
C4275 C4272 1.386 . S
C4276 C4271 1.490 . S
C4276 C4278 1.395 . S
C4276 C4279 1.403 . S
H4277 C4283 0.930 . S
C4278 H4264 0.930 . S
C4278 C4276 1.395 . S
C4278 C4281 1.403 . S
C4279 C4276 1.403 . S
C4279 C4280 1.524 . S
C4279 C4283 1.400 . S
C4280 H4265 0.960 . S
C4280 H4266 0.960 . S
C4280 H4267 0.960 . S
C4280 C4279 1.524 . S
C4281 C4278 1.403 . S
C4281 C4282 1.392 . S
C4281 C4285 1.495 . S
C4282 C4281 1.392 . S
C4282 C4283 1.385 . S
C4282 C4284 1.478 . S
C4283 H4277 0.930 . S
C4283 C4279 1.400 . S
C4283 C4282 1.385 . S
C4284 C4282 1.478 . S
C4284 C4286 1.381 . S
C4284 C4290 1.383 . S
C4285 C4281 1.495 . S
C4285 H4291 0.959 . S
C4285 H4292 0.961 . S
C4285 H4293 0.960 . S
C4286 C4284 1.381 . S
C4286 C4287 1.394 . S
C4286 H4294 0.930 . S
C4287 C4286 1.394 . S
C4287 C4288 1.383 . S
C4287 H4295 0.929 . S
C4288 C4287 1.383 . S
C4288 C4289 1.377 . S
C4289 H4273 0.930 . S
C4289 C4288 1.377 . S
C4289 C4290 1.379 . S
C4290 H4274 0.931 . S
C4290 C4284 1.383 . S
C4290 C4289 1.379 . S
H4291 C4285 0.959 . S
H4292 C4285 0.961 . S
H4293 C4285 0.960 . S
H4294 C4286 0.930 . S
H4295 C4287 0.929 . S
H4296 C4304 0.929 . S
H4297 C4306 0.930 . S
H4298 C4308 0.930 . S
H4299 C4311 0.929 . S
H4300 C4314 0.930 . S
H4301 C4316 0.960 . S
H4302 C4316 0.960 . S
H4303 C4316 0.960 . S
C4304 H4296 0.929 . S
C4304 C4305 1.377 . S
C4304 C4306 1.384 . S
C4305 C4304 1.377 . S
C4305 C4311 1.390 . S
C4306 H4297 0.930 . S
C4306 C4304 1.384 . S
C4306 C4307 1.372 . S
C4307 C4306 1.372 . S
C4307 C4308 1.400 . S
C4307 C4312 1.490 . S
C4308 H4298 0.930 . S
C4308 C4307 1.400 . S
C4308 C4311 1.386 . S
H4309 C4325 0.930 . S
H4310 C4326 0.931 . S
C4311 H4299 0.929 . S
C4311 C4305 1.390 . S
C4311 C4308 1.386 . S
C4312 C4307 1.490 . S
C4312 C4314 1.395 . S
C4312 C4315 1.403 . S
H4313 C4319 0.930 . S
C4314 H4300 0.930 . S
C4314 C4312 1.395 . S
C4314 C4317 1.403 . S
C4315 C4312 1.403 . S
C4315 C4316 1.524 . S
C4315 C4319 1.400 . S
C4316 H4301 0.960 . S
C4316 H4302 0.960 . S
C4316 H4303 0.960 . S
C4316 C4315 1.524 . S
C4317 C4314 1.403 . S
C4317 C4318 1.392 . S
C4317 C4321 1.495 . S
C4318 C4317 1.392 . S
C4318 C4319 1.385 . S
C4318 C4320 1.478 . S
C4319 H4313 0.930 . S
C4319 C4315 1.400 . S
C4319 C4318 1.385 . S
C4320 C4318 1.478 . S
C4320 C4322 1.381 . S
C4320 C4326 1.383 . S
C4321 C4317 1.495 . S
C4321 H4327 0.959 . S
C4321 H4328 0.961 . S
C4321 H4329 0.960 . S
C4322 C4320 1.381 . S
C4322 C4323 1.394 . S
C4322 H4330 0.930 . S
C4323 C4322 1.394 . S
C4323 C4324 1.383 . S
C4323 H4331 0.929 1_554 S
C4324 C4323 1.383 . S
C4324 C4325 1.377 . S
C4325 H4309 0.930 . S
C4325 C4324 1.377 . S
C4325 C4326 1.379 . S
C4326 H4310 0.931 . S
C4326 C4320 1.383 . S
C4326 C4325 1.379 . S
H4327 C4321 0.959 . S
H4328 C4321 0.961 . S
H4329 C4321 0.960 . S
H4330 C4322 0.930 . S
H4331 C4323 0.929 1_556 S
H4332 C4340 0.929 . S
H4333 C4342 0.930 . S
H4334 C4344 0.930 . S
H4335 C4347 0.929 . S
H4336 C4350 0.930 . S
H4337 C4352 0.960 . S
H4338 C4352 0.960 . S
H4339 C4352 0.960 . S
C4340 H4332 0.929 . S
C4340 C4341 1.377 . S
C4340 C4342 1.384 . S
C4341 C4340 1.377 . S
C4341 C4347 1.390 . S
C4342 H4333 0.930 . S
C4342 C4340 1.384 . S
C4342 C4343 1.372 . S
C4343 C4342 1.372 . S
C4343 C4344 1.400 . S
C4343 C4348 1.490 . S
C4344 H4334 0.930 . S
C4344 C4343 1.400 . S
C4344 C4347 1.386 . S
H4345 C4361 0.930 . S
H4346 C4362 0.931 . S
C4347 H4335 0.929 . S
C4347 C4341 1.390 . S
C4347 C4344 1.386 . S
C4348 C4343 1.490 . S
C4348 C4350 1.395 . S
C4348 C4351 1.403 . S
H4349 C4355 0.930 . S
C4350 H4336 0.930 . S
C4350 C4348 1.395 . S
C4350 C4353 1.403 . S
C4351 C4348 1.403 . S
C4351 C4352 1.524 . S
C4351 C4355 1.400 . S
C4352 H4337 0.960 . S
C4352 H4338 0.960 . S
C4352 H4339 0.960 . S
C4352 C4351 1.524 . S
C4353 C4350 1.403 . S
C4353 C4354 1.392 . S
C4353 C4357 1.495 . S
C4354 C4353 1.392 . S
C4354 C4355 1.385 . S
C4354 C4356 1.478 . S
C4355 H4349 0.930 . S
C4355 C4351 1.400 . S
C4355 C4354 1.385 . S
C4356 C4354 1.478 . S
C4356 C4358 1.381 . S
C4356 C4362 1.383 . S
C4357 C4353 1.495 . S
C4357 H4363 0.959 . S
C4357 H4364 0.961 . S
C4357 H4365 0.960 . S
C4358 C4356 1.381 . S
C4358 C4359 1.394 . S
C4358 H4366 0.930 . S
C4359 C4358 1.394 . S
C4359 C4360 1.383 . S
C4359 H4367 0.929 . S
C4360 C4359 1.383 . S
C4360 C4361 1.377 . S
C4361 H4345 0.930 . S
C4361 C4360 1.377 . S
C4361 C4362 1.379 . S
C4362 H4346 0.931 . S
C4362 C4356 1.383 . S
C4362 C4361 1.379 . S
H4363 C4357 0.959 . S
H4364 C4357 0.961 . S
H4365 C4357 0.960 . S
H4366 C4358 0.930 . S
H4367 C4359 0.929 . S
H4368 C4376 0.929 . S
H4369 C4378 0.930 . S
H4370 C4380 0.930 . S
H4371 C4383 0.929 . S
H4372 C4386 0.930 . S
H4373 C4388 0.960 . S
H4374 C4388 0.960 . S
H4375 C4388 0.960 . S
C4376 H4368 0.929 . S
C4376 C4377 1.377 . S
C4376 C4378 1.384 . S
C4377 C4376 1.377 . S
C4377 C4383 1.390 . S
C4378 H4369 0.930 . S
C4378 C4376 1.384 . S
C4378 C4379 1.372 . S
C4379 C4378 1.372 . S
C4379 C4380 1.400 . S
C4379 C4384 1.490 . S
C4380 H4370 0.930 . S
C4380 C4379 1.400 . S
C4380 C4383 1.386 . S
H4381 C4397 0.930 . S
H4382 C4398 0.931 . S
C4383 H4371 0.929 . S
C4383 C4377 1.390 . S
C4383 C4380 1.386 . S
C4384 C4379 1.490 . S
C4384 C4386 1.395 . S
C4384 C4387 1.403 . S
H4385 C4391 0.930 . S
C4386 H4372 0.930 . S
C4386 C4384 1.395 . S
C4386 C4389 1.403 . S
C4387 C4384 1.403 . S
C4387 C4388 1.524 . S
C4387 C4391 1.400 . S
C4388 H4373 0.960 . S
C4388 H4374 0.960 . S
C4388 H4375 0.960 . S
C4388 C4387 1.524 . S
C4389 C4386 1.403 . S
C4389 C4390 1.392 . S
C4389 C4393 1.495 . S
C4390 C4389 1.392 . S
C4390 C4391 1.385 . S
C4390 C4392 1.478 . S
C4391 H4385 0.930 . S
C4391 C4387 1.400 . S
C4391 C4390 1.385 . S
C4392 C4390 1.478 . S
C4392 C4394 1.381 . S
C4392 C4398 1.383 . S
C4393 C4389 1.495 . S
C4393 H4399 0.959 . S
C4393 H4400 0.961 . S
C4393 H4401 0.960 . S
C4394 C4392 1.381 . S
C4394 C4395 1.394 . S
C4394 H4402 0.930 . S
C4395 C4394 1.394 . S
C4395 C4396 1.383 . S
C4395 H4403 0.929 . S
C4396 C4395 1.383 . S
C4396 C4397 1.377 . S
C4397 H4381 0.930 . S
C4397 C4396 1.377 . S
C4397 C4398 1.379 . S
C4398 H4382 0.931 . S
C4398 C4392 1.383 . S
C4398 C4397 1.379 . S
H4399 C4393 0.959 . S
H4400 C4393 0.961 . S
H4401 C4393 0.960 . S
H4402 C4394 0.930 . S
H4403 C4395 0.929 . S
H4404 C4412 0.929 1_554 S
H4405 C4414 0.930 . S
H4406 C4416 0.930 . S
H4407 C4419 0.929 . S
H4408 C4422 0.930 . S
H4409 C4424 0.960 . S
H4410 C4424 0.960 . S
H4411 C4424 0.960 . S
C4412 H4404 0.929 1_556 S
C4412 C4413 1.377 . S
C4412 C4414 1.384 . S
C4413 C4412 1.377 . S
C4413 C4419 1.390 . S
C4414 H4405 0.930 . S
C4414 C4412 1.384 . S
C4414 C4415 1.372 . S
C4415 C4414 1.372 . S
C4415 C4416 1.400 . S
C4415 C4420 1.490 . S
C4416 H4406 0.930 . S
C4416 C4415 1.400 . S
C4416 C4419 1.386 . S
H4417 C4433 0.930 . S
H4418 C4434 0.931 . S
C4419 H4407 0.929 . S
C4419 C4413 1.390 . S
C4419 C4416 1.386 . S
C4420 C4415 1.490 . S
C4420 C4422 1.395 . S
C4420 C4423 1.403 . S
H4421 C4427 0.930 . S
C4422 H4408 0.930 . S
C4422 C4420 1.395 . S
C4422 C4425 1.403 . S
C4423 C4420 1.403 . S
C4423 C4424 1.524 . S
C4423 C4427 1.400 . S
C4424 H4409 0.960 . S
C4424 H4410 0.960 . S
C4424 H4411 0.960 . S
C4424 C4423 1.524 . S
C4425 C4422 1.403 . S
C4425 C4426 1.392 . S
C4425 C4429 1.495 . S
C4426 C4425 1.392 . S
C4426 C4427 1.385 . S
C4426 C4428 1.478 . S
C4427 H4421 0.930 . S
C4427 C4423 1.400 . S
C4427 C4426 1.385 . S
C4428 C4426 1.478 . S
C4428 C4430 1.381 . S
C4428 C4434 1.383 . S
C4429 C4425 1.495 . S
C4429 H4435 0.959 . S
C4429 H4436 0.961 . S
C4429 H4437 0.960 . S
C4430 C4428 1.381 . S
C4430 C4431 1.394 . S
C4430 H4438 0.930 . S
C4431 C4430 1.394 . S
C4431 C4432 1.383 . S
C4431 H4439 0.929 . S
C4432 C4431 1.383 . S
C4432 C4433 1.377 . S
C4433 H4417 0.930 . S
C4433 C4432 1.377 . S
C4433 C4434 1.379 . S
C4434 H4418 0.931 . S
C4434 C4428 1.383 . S
C4434 C4433 1.379 . S
H4435 C4429 0.959 . S
H4436 C4429 0.961 . S
H4437 C4429 0.960 . S
H4438 C4430 0.930 . S
H4439 C4431 0.929 . S
H4440 C4448 0.988 . S
H4441 C4450 0.930 . S
H4442 C4452 0.930 . S
H4443 C4455 0.929 . S
H4444 C4458 0.930 . S
H4445 C4460 0.960 . S
H4446 C4460 0.960 . S
H4447 C4460 0.960 . S
C4448 H4440 0.988 . S
C4448 C4449 1.377 . S
C4448 C4450 1.384 . S
C4449 C4448 1.377 . S
C4449 C4455 1.390 . S
C4450 H4441 0.930 . S
C4450 C4448 1.384 . S
C4450 C4451 1.372 . S
C4451 C4450 1.372 . S
C4451 C4452 1.400 . S
C4451 C4456 1.490 . S
C4452 H4442 0.930 . S
C4452 C4451 1.400 . S
C4452 C4455 1.386 . S
H4453 C4469 0.930 . S
H4454 C4470 0.931 . S
C4455 H4443 0.929 . S
C4455 C4449 1.390 . S
C4455 C4452 1.386 . S
C4456 C4451 1.490 . S
C4456 C4458 1.395 . S
C4456 C4459 1.403 . S
H4457 C4463 0.930 . S
C4458 H4444 0.930 . S
C4458 C4456 1.395 . S
C4458 C4461 1.403 . S
C4459 C4456 1.403 . S
C4459 C4460 1.524 . S
C4459 C4463 1.400 . S
C4460 H4445 0.960 . S
C4460 H4446 0.960 . S
C4460 H4447 0.960 . S
C4460 C4459 1.524 . S
C4461 C4458 1.403 . S
C4461 C4462 1.392 . S
C4461 C4465 1.495 . S
C4462 C4461 1.392 . S
C4462 C4463 1.385 . S
C4462 C4464 1.478 . S
C4463 H4457 0.930 . S
C4463 C4459 1.400 . S
C4463 C4462 1.385 . S
C4464 C4462 1.478 . S
C4464 C4466 1.381 . S
C4464 C4470 1.383 . S
C4465 C4461 1.495 . S
C4465 H4471 0.959 . S
C4465 H4472 0.961 . S
C4465 H4473 0.960 . S
C4466 C4464 1.381 . S
C4466 C4467 1.394 . S
C4466 H4474 0.930 . S
C4467 C4466 1.394 . S
C4467 C4468 1.383 . S
C4467 H4475 0.929 . S
C4468 C4467 1.383 . S
C4468 C4469 1.377 . S
C4469 H4453 0.930 . S
C4469 C4468 1.377 . S
C4469 C4470 1.379 . S
C4470 H4454 0.931 . S
C4470 C4464 1.383 . S
C4470 C4469 1.379 . S
H4471 C4465 0.959 . S
H4472 C4465 0.961 . S
H4473 C4465 0.960 . S
H4474 C4466 0.930 . S
H4475 C4467 0.929 . S
H4476 C4484 0.929 . S
H4477 C4486 0.930 . S
H4478 C4488 0.930 . S
H4479 C4491 0.929 . S
H4480 C4494 0.930 . S
H4481 C4496 0.960 . S
H4482 C4496 0.960 . S
H4483 C4496 0.960 . S
C4484 H4476 0.929 . S
C4484 C4485 1.377 . S
C4484 C4486 1.384 . S
C4485 C4484 1.377 . S
C4485 C4491 1.390 . S
C4486 H4477 0.930 . S
C4486 C4484 1.384 . S
C4486 C4487 1.372 . S
C4487 C4486 1.372 . S
C4487 C4488 1.400 . S
C4487 C4492 1.490 . S
C4488 H4478 0.930 . S
C4488 C4487 1.400 . S
C4488 C4491 1.386 . S
H4489 C4505 0.930 . S
H4490 C4506 0.931 . S
C4491 H4479 0.929 . S
C4491 C4485 1.390 . S
C4491 C4488 1.386 . S
C4492 C4487 1.490 . S
C4492 C4494 1.395 . S
C4492 C4495 1.403 . S
H4493 C4499 0.930 . S
C4494 H4480 0.930 . S
C4494 C4492 1.395 . S
C4494 C4497 1.403 . S
C4495 C4492 1.403 . S
C4495 C4496 1.524 . S
C4495 C4499 1.400 . S
C4496 H4481 0.960 . S
C4496 H4482 0.960 . S
C4496 H4483 0.960 . S
C4496 C4495 1.524 . S
C4497 C4494 1.403 . S
C4497 C4498 1.392 . S
C4497 C4501 1.495 . S
C4498 C4497 1.392 . S
C4498 C4499 1.385 . S
C4498 C4500 1.478 . S
C4499 H4493 0.930 . S
C4499 C4495 1.400 . S
C4499 C4498 1.385 . S
C4500 C4498 1.478 . S
C4500 C4502 1.381 . S
C4500 C4506 1.383 . S
C4501 C4497 1.495 . S
C4501 H4507 0.959 . S
C4501 H4508 0.961 . S
C4501 H4509 0.960 . S
C4502 C4500 1.381 . S
C4502 C4503 1.394 . S
C4502 H4510 0.930 . S
C4503 C4502 1.394 . S
C4503 C4504 1.383 . S
C4503 H4511 0.929 . S
C4504 C4503 1.383 . S
C4504 C4505 1.377 . S
C4505 H4489 0.930 . S
C4505 C4504 1.377 . S
C4505 C4506 1.379 . S
C4506 H4490 0.931 . S
C4506 C4500 1.383 . S
C4506 C4505 1.379 . S
H4507 C4501 0.959 . S
H4508 C4501 0.961 . S
H4509 C4501 0.960 . S
H4510 C4502 0.930 . S
H4511 C4503 0.929 . S
H4512 C4520 0.929 . S
H4513 C4522 0.930 . S
H4514 C4524 0.930 . S
H4515 C4527 0.929 . S
H4516 C4530 0.930 . S
H4517 C4532 0.960 . S
H4518 C4532 0.960 . S
H4519 C4532 0.960 . S
C4520 H4512 0.929 . S
C4520 C4521 1.377 . S
C4520 C4522 1.384 . S
C4521 C4520 1.377 . S
C4521 C4527 1.390 . S
C4522 H4513 0.930 . S
C4522 C4520 1.384 . S
C4522 C4523 1.372 . S
C4523 C4522 1.372 . S
C4523 C4524 1.400 . S
C4523 C4528 1.490 . S
C4524 H4514 0.930 . S
C4524 C4523 1.400 . S
C4524 C4527 1.386 . S
H4525 C4541 0.930 . S
H4526 C4542 0.931 . S
C4527 H4515 0.929 . S
C4527 C4521 1.390 . S
C4527 C4524 1.386 . S
C4528 C4523 1.490 . S
C4528 C4530 1.395 . S
C4528 C4531 1.403 . S
H4529 C4535 0.930 . S
C4530 H4516 0.930 . S
C4530 C4528 1.395 . S
C4530 C4533 1.403 . S
C4531 C4528 1.403 . S
C4531 C4532 1.524 . S
C4531 C4535 1.400 . S
C4532 H4517 0.960 . S
C4532 H4518 0.960 . S
C4532 H4519 0.960 . S
C4532 C4531 1.524 . S
C4533 C4530 1.403 . S
C4533 C4534 1.392 . S
C4533 C4537 1.495 . S
C4534 C4533 1.392 . S
C4534 C4535 1.385 . S
C4534 C4536 1.478 . S
C4535 H4529 0.930 . S
C4535 C4531 1.400 . S
C4535 C4534 1.385 . S
C4536 C4534 1.478 . S
C4536 C4538 1.381 . S
C4536 C4542 1.383 . S
C4537 C4533 1.495 . S
C4537 H4543 0.959 . S
C4537 H4544 0.961 . S
C4537 H4545 0.960 . S
C4538 C4536 1.381 . S
C4538 C4539 1.394 . S
C4538 H4546 0.930 . S
C4539 C4538 1.394 . S
C4539 C4540 1.383 . S
C4539 H4547 0.929 . S
C4540 C4539 1.383 . S
C4540 C4541 1.377 . S
C4541 H4525 0.930 . S
C4541 C4540 1.377 . S
C4541 C4542 1.379 . S
C4542 H4526 0.931 . S
C4542 C4536 1.383 . S
C4542 C4541 1.379 . S
H4543 C4537 0.959 . S
H4544 C4537 0.961 . S
H4545 C4537 0.960 . S
H4546 C4538 0.930 . S
H4547 C4539 0.929 . S
H4548 C4556 0.929 . S
H4549 C4558 0.930 . S
H4550 C4560 0.930 . S
H4551 C4563 0.929 . S
H4552 C4566 0.930 . S
H4553 C4568 0.960 . S
H4554 C4568 0.960 . S
H4555 C4568 0.960 . S
C4556 H4548 0.929 . S
C4556 C4557 1.377 . S
C4556 C4558 1.384 . S
C4557 C4556 1.377 . S
C4557 C4563 1.390 . S
C4558 H4549 0.930 . S
C4558 C4556 1.384 . S
C4558 C4559 1.372 . S
C4559 C4558 1.372 . S
C4559 C4560 1.400 . S
C4559 C4564 1.490 . S
C4560 H4550 0.930 . S
C4560 C4559 1.400 . S
C4560 C4563 1.386 . S
H4561 C4577 0.930 . S
H4562 C4578 0.931 . S
C4563 H4551 0.929 . S
C4563 C4557 1.390 . S
C4563 C4560 1.386 . S
C4564 C4559 1.490 . S
C4564 C4566 1.395 . S
C4564 C4567 1.403 . S
H4565 C4571 0.930 . S
C4566 H4552 0.930 . S
C4566 C4564 1.395 . S
C4566 C4569 1.403 . S
C4567 C4564 1.403 . S
C4567 C4568 1.524 . S
C4567 C4571 1.400 . S
C4568 H4553 0.960 . S
C4568 H4554 0.960 . S
C4568 H4555 0.960 . S
C4568 C4567 1.524 . S
C4569 C4566 1.403 . S
C4569 C4570 1.392 . S
C4569 C4573 1.495 . S
C4570 C4569 1.392 . S
C4570 C4571 1.385 . S
C4570 C4572 1.478 . S
C4571 H4565 0.930 . S
C4571 C4567 1.400 . S
C4571 C4570 1.385 . S
C4572 C4570 1.478 . S
C4572 C4574 1.381 . S
C4572 C4578 1.383 . S
C4573 C4569 1.495 . S
C4573 H4579 0.959 . S
C4573 H4580 0.961 . S
C4573 H4581 0.960 . S
C4574 C4572 1.381 . S
C4574 C4575 1.394 . S
C4574 H4582 0.930 . S
C4575 C4574 1.394 . S
C4575 C4576 1.383 . S
C4575 H4583 0.929 1_545 S
C4576 C4575 1.383 . S
C4576 C4577 1.377 . S
C4577 H4561 0.930 . S
C4577 C4576 1.377 . S
C4577 C4578 1.379 . S
C4578 H4562 0.931 . S
C4578 C4572 1.383 . S
C4578 C4577 1.379 . S
H4579 C4573 0.959 . S
H4580 C4573 0.961 . S
H4581 C4573 0.960 . S
H4582 C4574 0.930 . S
H4583 C4575 0.929 1_565 S
H4584 C4592 0.929 . S
H4585 C4594 0.930 . S
H4586 C4596 0.930 . S
H4587 C4599 0.929 . S
H4588 C4602 0.930 . S
H4589 C4604 0.960 . S
H4590 C4604 0.960 . S
H4591 C4604 0.960 . S
C4592 H4584 0.929 . S
C4592 C4593 1.377 . S
C4592 C4594 1.384 . S
C4593 C4592 1.377 . S
C4593 C4599 1.390 . S
C4594 H4585 0.930 . S
C4594 C4592 1.384 . S
C4594 C4595 1.372 . S
C4595 C4594 1.372 . S
C4595 C4596 1.400 . S
C4595 C4600 1.490 . S
C4596 H4586 0.930 . S
C4596 C4595 1.400 . S
C4596 C4599 1.386 . S
H4597 C4613 0.930 . S
H4598 C4614 0.931 . S
C4599 H4587 0.929 . S
C4599 C4593 1.390 . S
C4599 C4596 1.386 . S
C4600 C4595 1.490 . S
C4600 C4602 1.395 . S
C4600 C4603 1.403 . S
H4601 C4607 0.930 . S
C4602 H4588 0.930 . S
C4602 C4600 1.395 . S
C4602 C4605 1.403 . S
C4603 C4600 1.403 . S
C4603 C4604 1.524 . S
C4603 C4607 1.400 . S
C4604 H4589 0.960 . S
C4604 H4590 0.960 . S
C4604 H4591 0.960 . S
C4604 C4603 1.524 . S
C4605 C4602 1.403 . S
C4605 C4606 1.392 . S
C4605 C4609 1.495 . S
C4606 C4605 1.392 . S
C4606 C4607 1.385 . S
C4606 C4608 1.478 . S
C4607 H4601 0.930 . S
C4607 C4603 1.400 . S
C4607 C4606 1.385 . S
C4608 C4606 1.478 . S
C4608 C4610 1.381 . S
C4608 C4614 1.383 . S
C4609 C4605 1.495 . S
C4609 H4615 0.959 . S
C4609 H4616 0.961 . S
C4609 H4617 0.960 . S
C4610 C4608 1.381 . S
C4610 C4611 1.394 . S
C4610 H4618 0.930 . S
C4611 C4610 1.394 . S
C4611 C4612 1.383 . S
C4611 H4619 0.929 1_655 S
C4612 C4611 1.383 . S
C4612 C4613 1.377 . S
C4613 H4597 0.930 . S
C4613 C4612 1.377 . S
C4613 C4614 1.379 . S
C4614 H4598 0.931 . S
C4614 C4608 1.383 . S
C4614 C4613 1.379 . S
H4615 C4609 0.959 . S
H4616 C4609 0.961 . S
H4617 C4609 0.960 . S
H4618 C4610 0.930 . S
H4619 C4611 0.929 1_455 S
H4620 C4628 0.929 . S
H4621 C4630 0.930 . S
H4622 C4632 0.930 . S
H4623 C4635 0.929 . S
H4624 C4638 0.930 . S
H4625 C4640 0.960 . S
H4626 C4640 0.960 . S
H4627 C4640 0.960 . S
C4628 H4620 0.929 . S
C4628 C4629 1.377 . S
C4628 C4630 1.384 . S
C4629 C4628 1.377 . S
C4629 C4635 1.390 . S
C4630 H4621 0.930 . S
C4630 C4628 1.384 . S
C4630 C4631 1.372 . S
C4631 C4630 1.372 . S
C4631 C4632 1.400 . S
C4631 C4636 1.490 . S
C4632 H4622 0.930 . S
C4632 C4631 1.400 . S
C4632 C4635 1.386 . S
H4633 C4649 0.930 . S
H4634 C4650 0.931 . S
C4635 H4623 0.929 . S
C4635 C4629 1.390 . S
C4635 C4632 1.386 . S
C4636 C4631 1.490 . S
C4636 C4638 1.395 . S
C4636 C4639 1.403 . S
H4637 C4643 0.930 . S
C4638 H4624 0.930 . S
C4638 C4636 1.395 . S
C4638 C4641 1.403 . S
C4639 C4636 1.403 . S
C4639 C4640 1.524 . S
C4639 C4643 1.400 . S
C4640 H4625 0.960 . S
C4640 H4626 0.960 . S
C4640 H4627 0.960 . S
C4640 C4639 1.524 . S
C4641 C4638 1.403 . S
C4641 C4642 1.392 . S
C4641 C4645 1.495 . S
C4642 C4641 1.392 . S
C4642 C4643 1.385 . S
C4642 C4644 1.478 . S
C4643 H4637 0.930 . S
C4643 C4639 1.400 . S
C4643 C4642 1.385 . S
C4644 C4642 1.478 . S
C4644 C4646 1.381 . S
C4644 C4650 1.383 . S
C4645 C4641 1.495 . S
C4645 H4651 0.959 . S
C4645 H4652 0.961 . S
C4645 H4653 0.960 . S
C4646 C4644 1.381 . S
C4646 C4647 1.394 . S
C4646 H4654 0.930 . S
C4647 C4646 1.394 . S
C4647 C4648 1.383 . S
C4647 H4655 0.929 . S
C4648 C4647 1.383 . S
C4648 C4649 1.377 . S
C4649 H4633 0.930 . S
C4649 C4648 1.377 . S
C4649 C4650 1.379 . S
C4650 H4634 0.931 . S
C4650 C4644 1.383 . S
C4650 C4649 1.379 . S
H4651 C4645 0.959 . S
H4652 C4645 0.961 . S
H4653 C4645 0.960 . S
H4654 C4646 0.930 . S
H4655 C4647 0.929 . S
H4656 C4664 0.929 . S
H4657 C4666 0.930 . S
H4658 C4668 0.930 . S
H4659 C4671 0.929 . S
H4660 C4674 0.930 . S
H4661 C4676 0.960 . S
H4662 C4676 0.960 . S
H4663 C4676 0.960 . S
C4664 H4656 0.929 . S
C4664 C4665 1.377 . S
C4664 C4666 1.384 . S
C4665 C4664 1.377 . S
C4665 C4671 1.390 . S
C4666 H4657 0.930 . S
C4666 C4664 1.384 . S
C4666 C4667 1.372 . S
C4667 C4666 1.372 . S
C4667 C4668 1.400 . S
C4667 C4672 1.490 . S
C4668 H4658 0.930 . S
C4668 C4667 1.400 . S
C4668 C4671 1.386 . S
H4669 C4685 0.930 . S
H4670 C4686 0.931 . S
C4671 H4659 0.929 . S
C4671 C4665 1.390 . S
C4671 C4668 1.386 . S
C4672 C4667 1.490 . S
C4672 C4674 1.395 . S
C4672 C4675 1.403 . S
H4673 C4679 0.930 . S
C4674 H4660 0.930 . S
C4674 C4672 1.395 . S
C4674 C4677 1.403 . S
C4675 C4672 1.403 . S
C4675 C4676 1.524 . S
C4675 C4679 1.400 . S
C4676 H4661 0.960 . S
C4676 H4662 0.960 . S
C4676 H4663 0.960 . S
C4676 C4675 1.524 . S
C4677 C4674 1.403 . S
C4677 C4678 1.392 . S
C4677 C4681 1.495 . S
C4678 C4677 1.392 . S
C4678 C4679 1.385 . S
C4678 C4680 1.478 . S
C4679 H4673 0.930 . S
C4679 C4675 1.400 . S
C4679 C4678 1.385 . S
C4680 C4678 1.478 . S
C4680 C4682 1.381 . S
C4680 C4686 1.383 . S
C4681 C4677 1.495 . S
C4681 H4687 0.959 . S
C4681 H4688 0.961 . S
C4681 H4689 0.960 . S
C4682 C4680 1.381 . S
C4682 C4683 1.394 . S
C4682 H4690 0.930 . S
C4683 C4682 1.394 . S
C4683 C4684 1.383 . S
C4683 H4691 0.929 . S
C4684 C4683 1.383 . S
C4684 C4685 1.377 . S
C4685 H4669 0.930 . S
C4685 C4684 1.377 . S
C4685 C4686 1.379 . S
C4686 H4670 0.931 . S
C4686 C4680 1.383 . S
C4686 C4685 1.379 . S
H4687 C4681 0.959 . S
H4688 C4681 0.961 . S
H4689 C4681 0.960 . S
H4690 C4682 0.930 . S
H4691 C4683 0.929 . S
H4692 C4700 0.929 . S
H4693 C4702 0.930 . S
H4694 C4704 0.930 . S
H4695 C4707 0.929 . S
H4696 C4710 0.930 . S
H4697 C4712 0.960 . S
H4698 C4712 0.960 . S
H4699 C4712 0.960 . S
C4700 H4692 0.929 . S
C4700 C4701 1.377 . S
C4700 C4702 1.384 . S
C4701 C4700 1.377 . S
C4701 C4707 1.390 . S
C4702 H4693 0.930 . S
C4702 C4700 1.384 . S
C4702 C4703 1.372 . S
C4703 C4702 1.372 . S
C4703 C4704 1.400 . S
C4703 C4708 1.490 . S
C4704 H4694 0.930 . S
C4704 C4703 1.400 . S
C4704 C4707 1.386 . S
H4705 C4721 0.930 . S
H4706 C4722 0.931 . S
C4707 H4695 0.929 . S
C4707 C4701 1.390 . S
C4707 C4704 1.386 . S
C4708 C4703 1.490 . S
C4708 C4710 1.395 . S
C4708 C4711 1.403 . S
H4709 C4715 0.930 . S
C4710 H4696 0.930 . S
C4710 C4708 1.395 . S
C4710 C4713 1.403 . S
C4711 C4708 1.403 . S
C4711 C4712 1.524 . S
C4711 C4715 1.400 . S
C4712 H4697 0.960 . S
C4712 H4698 0.960 . S
C4712 H4699 0.960 . S
C4712 C4711 1.524 . S
C4713 C4710 1.403 . S
C4713 C4714 1.392 . S
C4713 C4717 1.495 . S
C4714 C4713 1.392 . S
C4714 C4715 1.385 . S
C4714 C4716 1.478 . S
C4715 H4709 0.930 . S
C4715 C4711 1.400 . S
C4715 C4714 1.385 . S
C4716 C4714 1.478 . S
C4716 C4718 1.381 . S
C4716 C4722 1.383 . S
C4717 C4713 1.495 . S
C4717 H4723 0.959 . S
C4717 H4724 0.961 . S
C4717 H4725 0.960 . S
C4718 C4716 1.381 . S
C4718 C4719 1.394 . S
C4718 H4726 0.930 . S
C4719 C4718 1.394 . S
C4719 C4720 1.383 . S
C4719 H4727 0.929 . S
C4720 C4719 1.383 . S
C4720 C4721 1.377 . S
C4721 H4705 0.930 . S
C4721 C4720 1.377 . S
C4721 C4722 1.379 . S
C4722 H4706 0.931 . S
C4722 C4716 1.383 . S
C4722 C4721 1.379 . S
H4723 C4717 0.959 . S
H4724 C4717 0.961 . S
H4725 C4717 0.960 . S
H4726 C4718 0.930 . S
H4727 C4719 0.929 . S
H4728 C4736 0.929 . S
H4729 C4738 0.930 . S
H4730 C4740 0.930 . S
H4731 C4743 0.929 . S
H4732 C4746 0.930 . S
H4733 C4748 0.960 . S
H4734 C4748 0.960 . S
H4735 C4748 0.960 . S
C4736 H4728 0.929 . S
C4736 C4737 1.377 . S
C4736 C4738 1.384 . S
C4737 C4736 1.377 . S
C4737 C4743 1.390 . S
C4738 H4729 0.930 . S
C4738 C4736 1.384 . S
C4738 C4739 1.372 . S
C4739 C4738 1.372 . S
C4739 C4740 1.400 . S
C4739 C4744 1.490 . S
C4740 H4730 0.930 . S
C4740 C4739 1.400 . S
C4740 C4743 1.386 . S
H4741 C4757 0.930 . S
H4742 C4758 0.931 . S
C4743 H4731 0.929 . S
C4743 C4737 1.390 . S
C4743 C4740 1.386 . S
C4744 C4739 1.490 . S
C4744 C4746 1.395 . S
C4744 C4747 1.403 . S
H4745 C4751 0.930 . S
C4746 H4732 0.930 . S
C4746 C4744 1.395 . S
C4746 C4749 1.403 . S
C4747 C4744 1.403 . S
C4747 C4748 1.524 . S
C4747 C4751 1.400 . S
C4748 H4733 0.960 . S
C4748 H4734 0.960 . S
C4748 H4735 0.960 . S
C4748 C4747 1.524 . S
C4749 C4746 1.403 . S
C4749 C4750 1.392 . S
C4749 C4753 1.495 . S
C4750 C4749 1.392 . S
C4750 C4751 1.385 . S
C4750 C4752 1.478 . S
C4751 H4745 0.930 . S
C4751 C4747 1.400 . S
C4751 C4750 1.385 . S
C4752 C4750 1.478 . S
C4752 C4754 1.381 . S
C4752 C4758 1.383 . S
C4753 C4749 1.495 . S
C4753 H4759 0.959 . S
C4753 H4760 0.961 . S
C4753 H4761 0.960 . S
C4754 C4752 1.381 . S
C4754 C4755 1.394 . S
C4754 H4762 0.930 . S
C4755 C4754 1.394 . S
C4755 C4756 1.383 . S
C4755 H4763 0.929 . S
C4756 C4755 1.383 . S
C4756 C4757 1.377 . S
C4757 H4741 0.930 . S
C4757 C4756 1.377 . S
C4757 C4758 1.379 . S
C4758 H4742 0.931 . S
C4758 C4752 1.383 . S
C4758 C4757 1.379 . S
H4759 C4753 0.959 . S
H4760 C4753 0.961 . S
H4761 C4753 0.960 . S
H4762 C4754 0.930 . S
H4763 C4755 0.929 . S
H4764 C4772 0.929 . S
H4765 C4774 0.930 . S
H4766 C4776 0.930 . S
H4767 C4779 0.983 . S
H4768 C4782 0.930 . S
H4769 C4784 0.960 . S
H4770 C4784 0.960 . S
H4771 C4784 0.960 . S
C4772 H4764 0.929 . S
C4772 C4773 1.377 . S
C4772 C4774 1.384 . S
C4773 C4772 1.377 . S
C4773 C4779 1.390 . S
C4774 H4765 0.930 . S
C4774 C4772 1.384 . S
C4774 C4775 1.372 . S
C4775 C4774 1.372 . S
C4775 C4776 1.400 . S
C4775 C4780 1.490 . S
C4776 H4766 0.930 . S
C4776 C4775 1.400 . S
C4776 C4779 1.386 . S
H4777 C4793 0.930 . S
H4778 C4794 0.931 . S
C4779 H4767 0.983 . S
C4779 C4773 1.390 . S
C4779 C4776 1.386 . S
C4780 C4775 1.490 . S
C4780 C4782 1.395 . S
C4780 C4783 1.403 . S
H4781 C4787 0.930 . S
C4782 H4768 0.930 . S
C4782 C4780 1.395 . S
C4782 C4785 1.403 . S
C4783 C4780 1.403 . S
C4783 C4784 1.524 . S
C4783 C4787 1.400 . S
C4784 H4769 0.960 . S
C4784 H4770 0.960 . S
C4784 H4771 0.960 . S
C4784 C4783 1.524 . S
C4785 C4782 1.403 . S
C4785 C4786 1.392 . S
C4785 C4789 1.495 . S
C4786 C4785 1.392 . S
C4786 C4787 1.385 . S
C4786 C4788 1.478 . S
C4787 H4781 0.930 . S
C4787 C4783 1.400 . S
C4787 C4786 1.385 . S
C4788 C4786 1.478 . S
C4788 C4790 1.381 . S
C4788 C4794 1.383 . S
C4789 C4785 1.495 . S
C4789 H4795 0.959 . S
C4789 H4796 0.961 . S
C4789 H4797 0.960 . S
C4790 C4788 1.381 . S
C4790 C4791 1.394 . S
C4790 H4798 0.930 . S
C4791 C4790 1.394 . S
C4791 C4792 1.383 . S
C4791 H4799 0.929 . S
C4792 C4791 1.383 . S
C4792 C4793 1.377 . S
C4793 H4777 0.930 . S
C4793 C4792 1.377 . S
C4793 C4794 1.379 . S
C4794 H4778 0.931 . S
C4794 C4788 1.383 . S
C4794 C4793 1.379 . S
H4795 C4789 0.959 . S
H4796 C4789 0.961 . S
H4797 C4789 0.960 . S
H4798 C4790 0.930 . S
H4799 C4791 0.929 . S
H4800 C4808 0.929 . S
H4801 C4810 0.930 . S
H4802 C4812 0.930 . S
H4803 C4815 0.929 . S
H4804 C4818 0.930 . S
H4805 C4820 0.960 . S
H4806 C4820 0.960 . S
H4807 C4820 0.960 . S
C4808 H4800 0.929 . S
C4808 C4809 1.377 . S
C4808 C4810 1.384 . S
C4809 C4808 1.377 . S
C4809 C4815 1.390 . S
C4810 H4801 0.930 . S
C4810 C4808 1.384 . S
C4810 C4811 1.372 . S
C4811 C4810 1.372 . S
C4811 C4812 1.400 . S
C4811 C4816 1.490 . S
C4812 H4802 0.930 . S
C4812 C4811 1.400 . S
C4812 C4815 1.386 . S
H4813 C4829 0.930 . S
H4814 C4830 0.931 . S
C4815 H4803 0.929 . S
C4815 C4809 1.390 . S
C4815 C4812 1.386 . S
C4816 C4811 1.490 . S
C4816 C4818 1.395 . S
C4816 C4819 1.403 . S
H4817 C4823 0.930 . S
C4818 H4804 0.930 . S
C4818 C4816 1.395 . S
C4818 C4821 1.403 . S
C4819 C4816 1.403 . S
C4819 C4820 1.524 . S
C4819 C4823 1.400 . S
C4820 H4805 0.960 . S
C4820 H4806 0.960 . S
C4820 H4807 0.960 . S
C4820 C4819 1.524 . S
C4821 C4818 1.403 . S
C4821 C4822 1.392 . S
C4821 C4825 1.495 . S
C4822 C4821 1.392 . S
C4822 C4823 1.385 . S
C4822 C4824 1.478 . S
C4823 H4817 0.930 . S
C4823 C4819 1.400 . S
C4823 C4822 1.385 . S
C4824 C4822 1.478 . S
C4824 C4826 1.381 . S
C4824 C4830 1.383 . S
C4825 C4821 1.495 . S
C4825 H4831 0.959 . S
C4825 H4832 0.961 . S
C4825 H4833 0.960 . S
C4826 C4824 1.381 . S
C4826 C4827 1.394 . S
C4826 H4834 0.930 . S
C4827 C4826 1.394 . S
C4827 C4828 1.383 . S
C4827 H4835 0.929 . S
C4828 C4827 1.383 . S
C4828 C4829 1.377 . S
C4829 H4813 0.930 . S
C4829 C4828 1.377 . S
C4829 C4830 1.379 . S
C4830 H4814 0.931 . S
C4830 C4824 1.383 . S
C4830 C4829 1.379 . S
H4831 C4825 0.959 . S
H4832 C4825 0.961 . S
H4833 C4825 0.960 . S
H4834 C4826 0.930 . S
H4835 C4827 0.929 . S
H4836 C4844 0.929 . S
H4837 C4846 0.930 . S
H4838 C4848 0.930 . S
H4839 C4851 0.929 . S
H4840 C4854 0.930 . S
H4841 C4856 0.960 . S
H4842 C4856 0.960 . S
H4843 C4856 0.960 . S
C4844 H4836 0.929 . S
C4844 C4845 1.377 . S
C4844 C4846 1.384 . S
C4845 C4844 1.377 . S
C4845 C4851 1.390 . S
C4846 H4837 0.930 . S
C4846 C4844 1.384 . S
C4846 C4847 1.372 . S
C4847 C4846 1.372 . S
C4847 C4848 1.400 . S
C4847 C4852 1.490 . S
C4848 H4838 0.930 . S
C4848 C4847 1.400 . S
C4848 C4851 1.386 . S
H4849 C4865 0.930 . S
H4850 C4866 0.931 . S
C4851 H4839 0.929 . S
C4851 C4845 1.390 . S
C4851 C4848 1.386 . S
C4852 C4847 1.490 . S
C4852 C4854 1.395 . S
C4852 C4855 1.403 . S
H4853 C4859 0.930 . S
C4854 H4840 0.930 . S
C4854 C4852 1.395 . S
C4854 C4857 1.403 . S
C4855 C4852 1.403 . S
C4855 C4856 1.524 . S
C4855 C4859 1.400 . S
C4856 H4841 0.960 . S
C4856 H4842 0.960 . S
C4856 H4843 0.960 . S
C4856 C4855 1.524 . S
C4857 C4854 1.403 . S
C4857 C4858 1.392 . S
C4857 C4861 1.495 . S
C4858 C4857 1.392 . S
C4858 C4859 1.385 . S
C4858 C4860 1.478 . S
C4859 H4853 0.930 . S
C4859 C4855 1.400 . S
C4859 C4858 1.385 . S
C4860 C4858 1.478 . S
C4860 C4862 1.381 . S
C4860 C4866 1.383 . S
C4861 C4857 1.495 . S
C4861 H4867 0.959 . S
C4861 H4868 0.961 . S
C4861 H4869 0.960 . S
C4862 C4860 1.381 . S
C4862 C4863 1.394 . S
C4862 H4870 0.930 . S
C4863 C4862 1.394 . S
C4863 C4864 1.383 . S
C4863 H4871 0.929 . S
C4864 C4863 1.383 . S
C4864 C4865 1.377 . S
C4865 H4849 0.930 . S
C4865 C4864 1.377 . S
C4865 C4866 1.379 . S
C4866 H4850 0.931 . S
C4866 C4860 1.383 . S
C4866 C4865 1.379 . S
H4867 C4861 0.959 . S
H4868 C4861 0.961 . S
H4869 C4861 0.960 . S
H4870 C4862 0.930 . S
H4871 C4863 0.929 . S
H4872 C4880 0.929 . S
H4873 C4882 0.930 . S
H4874 C4884 0.930 . S
H4875 C4887 0.929 . S
H4876 C4890 0.930 . S
H4877 C4892 0.960 . S
H4878 C4892 0.960 . S
H4879 C4892 0.960 . S
C4880 H4872 0.929 . S
C4880 C4881 1.377 . S
C4880 C4882 1.384 . S
C4881 C4880 1.377 . S
C4881 C4887 1.390 . S
C4882 H4873 0.930 . S
C4882 C4880 1.384 . S
C4882 C4883 1.372 . S
C4883 C4882 1.372 . S
C4883 C4884 1.400 . S
C4883 C4888 1.490 . S
C4884 H4874 0.930 . S
C4884 C4883 1.400 . S
C4884 C4887 1.386 . S
H4885 C4901 0.930 . S
H4886 C4902 0.931 . S
C4887 H4875 0.929 . S
C4887 C4881 1.390 . S
C4887 C4884 1.386 . S
C4888 C4883 1.490 . S
C4888 C4890 1.395 . S
C4888 C4891 1.403 . S
H4889 C4895 0.930 . S
C4890 H4876 0.930 . S
C4890 C4888 1.395 . S
C4890 C4893 1.403 . S
C4891 C4888 1.403 . S
C4891 C4892 1.524 . S
C4891 C4895 1.400 . S
C4892 H4877 0.960 . S
C4892 H4878 0.960 . S
C4892 H4879 0.960 . S
C4892 C4891 1.524 . S
C4893 C4890 1.403 . S
C4893 C4894 1.392 . S
C4893 C4897 1.495 . S
C4894 C4893 1.392 . S
C4894 C4895 1.385 . S
C4894 C4896 1.478 . S
C4895 H4889 0.930 . S
C4895 C4891 1.400 . S
C4895 C4894 1.385 . S
C4896 C4894 1.478 . S
C4896 C4898 1.381 . S
C4896 C4902 1.383 . S
C4897 C4893 1.495 . S
C4897 H4903 0.959 . S
C4897 H4904 0.961 . S
C4897 H4905 0.960 . S
C4898 C4896 1.381 . S
C4898 C4899 1.394 . S
C4898 H4906 0.930 . S
C4899 C4898 1.394 . S
C4899 C4900 1.383 . S
C4899 H4907 0.929 . S
C4900 C4899 1.383 . S
C4900 C4901 1.377 . S
C4901 H4885 0.930 . S
C4901 C4900 1.377 . S
C4901 C4902 1.379 . S
C4902 H4886 0.931 . S
C4902 C4896 1.383 . S
C4902 C4901 1.379 . S
H4903 C4897 0.959 . S
H4904 C4897 0.961 . S
H4905 C4897 0.960 . S
H4906 C4898 0.930 . S
H4907 C4899 0.929 . S
H4908 C4916 0.929 . S
H4909 C4918 0.930 . S
H4910 C4920 0.930 . S
H4911 C4923 0.929 . S
H4912 C4926 0.930 . S
H4913 C4928 0.960 . S
H4914 C4928 0.960 . S
H4915 C4928 0.960 . S
C4916 H4908 0.929 . S
C4916 C4917 1.377 . S
C4916 C4918 1.384 . S
C4917 C4916 1.377 . S
C4917 C4923 1.390 . S
C4918 H4909 0.930 . S
C4918 C4916 1.384 . S
C4918 C4919 1.372 . S
C4919 C4918 1.372 . S
C4919 C4920 1.400 . S
C4919 C4924 1.490 . S
C4920 H4910 0.930 . S
C4920 C4919 1.400 . S
C4920 C4923 1.386 . S
H4921 C4937 0.930 . S
H4922 C4938 0.931 . S
C4923 H4911 0.929 . S
C4923 C4917 1.390 . S
C4923 C4920 1.386 . S
C4924 C4919 1.490 . S
C4924 C4926 1.395 . S
C4924 C4927 1.403 . S
H4925 C4931 0.930 . S
C4926 H4912 0.930 . S
C4926 C4924 1.395 . S
C4926 C4929 1.403 . S
C4927 C4924 1.403 . S
C4927 C4928 1.524 . S
C4927 C4931 1.400 . S
C4928 H4913 0.960 . S
C4928 H4914 0.960 . S
C4928 H4915 0.960 . S
C4928 C4927 1.524 . S
C4929 C4926 1.403 . S
C4929 C4930 1.392 . S
C4929 C4933 1.495 . S
C4930 C4929 1.392 . S
C4930 C4931 1.385 . S
C4930 C4932 1.478 . S
C4931 H4925 0.930 . S
C4931 C4927 1.400 . S
C4931 C4930 1.385 . S
C4932 C4930 1.478 . S
C4932 C4934 1.381 . S
C4932 C4938 1.383 . S
C4933 C4929 1.495 . S
C4933 H4939 0.959 . S
C4933 H4940 0.961 . S
C4933 H4941 0.960 . S
C4934 C4932 1.381 . S
C4934 C4935 1.394 . S
C4934 H4942 0.930 . S
C4935 C4934 1.394 . S
C4935 C4936 1.383 . S
C4935 H4943 0.929 . S
C4936 C4935 1.383 . S
C4936 C4937 1.377 . S
C4937 H4921 0.930 . S
C4937 C4936 1.377 . S
C4937 C4938 1.379 . S
C4938 H4922 0.931 . S
C4938 C4932 1.383 . S
C4938 C4937 1.379 . S
H4939 C4933 0.959 . S
H4940 C4933 0.961 . S
H4941 C4933 0.960 . S
H4942 C4934 0.930 . S
H4943 C4935 0.929 . S
H4944 C4952 0.929 . S
H4945 C4954 0.930 . S
H4946 C4956 0.930 . S
H4947 C4959 0.929 . S
H4948 C4962 0.930 . S
H4949 C4964 0.960 . S
H4950 C4964 0.960 . S
H4951 C4964 0.960 . S
C4952 H4944 0.929 . S
C4952 C4953 1.377 . S
C4952 C4954 1.384 . S
C4953 C4952 1.377 . S
C4953 C4959 1.390 . S
C4954 H4945 0.930 . S
C4954 C4952 1.384 . S
C4954 C4955 1.372 . S
C4955 C4954 1.372 . S
C4955 C4956 1.400 . S
C4955 C4960 1.490 . S
C4956 H4946 0.930 . S
C4956 C4955 1.400 . S
C4956 C4959 1.386 . S
H4957 C4973 0.930 1_455 S
H4958 C4974 0.931 . S
C4959 H4947 0.929 . S
C4959 C4953 1.390 . S
C4959 C4956 1.386 . S
C4960 C4955 1.490 . S
C4960 C4962 1.395 . S
C4960 C4963 1.403 . S
H4961 C4967 0.930 . S
C4962 H4948 0.930 . S
C4962 C4960 1.395 . S
C4962 C4965 1.403 . S
C4963 C4960 1.403 . S
C4963 C4964 1.524 . S
C4963 C4967 1.400 . S
C4964 H4949 0.960 . S
C4964 H4950 0.960 . S
C4964 H4951 0.960 . S
C4964 C4963 1.524 . S
C4965 C4962 1.403 . S
C4965 C4966 1.392 . S
C4965 C4969 1.495 . S
C4966 C4965 1.392 . S
C4966 C4967 1.385 . S
C4966 C4968 1.478 . S
C4967 H4961 0.930 . S
C4967 C4963 1.400 . S
C4967 C4966 1.385 . S
C4968 C4966 1.478 . S
C4968 C4970 1.381 . S
C4968 C4974 1.383 . S
C4969 C4965 1.495 . S
C4969 H4975 0.959 . S
C4969 H4976 0.961 . S
C4969 H4977 0.960 . S
C4970 C4968 1.381 . S
C4970 C4971 1.394 . S
C4970 H4978 0.930 . S
C4971 C4970 1.394 . S
C4971 C4972 1.383 . S
C4971 H4979 0.929 . S
C4972 C4971 1.383 . S
C4972 C4973 1.377 . S
C4973 H4957 0.930 1_655 S
C4973 C4972 1.377 . S
C4973 C4974 1.379 . S
C4974 H4958 0.931 . S
C4974 C4968 1.383 . S
C4974 C4973 1.379 . S
H4975 C4969 0.959 . S
H4976 C4969 0.961 . S
H4977 C4969 0.960 . S
H4978 C4970 0.930 . S
H4979 C4971 0.929 . S
H4980 C4988 0.929 1_545 S
H4981 C4990 0.930 . S
H4982 C4992 0.930 . S
H4983 C4995 0.929 . S
H4984 C4998 0.930 . S
H4985 C5000 0.960 . S
H4986 C5000 0.960 . S
H4987 C5000 0.960 . S
C4988 H4980 0.929 1_565 S
C4988 C4989 1.377 . S
C4988 C4990 1.384 . S
C4989 C4988 1.377 . S
C4989 C4995 1.390 . S
C4990 H4981 0.930 . S
C4990 C4988 1.384 . S
C4990 C4991 1.372 . S
C4991 C4990 1.372 . S
C4991 C4992 1.400 . S
C4991 C4996 1.490 . S
C4992 H4982 0.930 . S
C4992 C4991 1.400 . S
C4992 C4995 1.386 . S
H4993 C5009 0.930 . S
H4994 C5010 0.931 . S
C4995 H4983 0.929 . S
C4995 C4989 1.390 . S
C4995 C4992 1.386 . S
C4996 C4991 1.490 . S
C4996 C4998 1.395 . S
C4996 C4999 1.403 . S
H4997 C5003 0.930 . S
C4998 H4984 0.930 . S
C4998 C4996 1.395 . S
C4998 C5001 1.403 . S
C4999 C4996 1.403 . S
C4999 C5000 1.524 . S
C4999 C5003 1.400 . S
C5000 H4985 0.960 . S
C5000 H4986 0.960 . S
C5000 H4987 0.960 . S
C5000 C4999 1.524 . S
C5001 C4998 1.403 . S
C5001 C5002 1.392 . S
C5001 C5005 1.495 . S
C5002 C5001 1.392 . S
C5002 C5003 1.385 . S
C5002 C5004 1.478 . S
C5003 H4997 0.930 . S
C5003 C4999 1.400 . S
C5003 C5002 1.385 . S
C5004 C5002 1.478 . S
C5004 C5006 1.381 . S
C5004 C5010 1.383 . S
C5005 C5001 1.495 . S
C5005 H5011 0.959 . S
C5005 H5012 0.961 . S
C5005 H5013 0.960 . S
C5006 C5004 1.381 . S
C5006 C5007 1.394 . S
C5006 H5014 0.930 . S
C5007 C5006 1.394 . S
C5007 C5008 1.383 . S
C5007 H5015 0.929 . S
C5008 C5007 1.383 . S
C5008 C5009 1.377 . S
C5009 H4993 0.930 . S
C5009 C5008 1.377 . S
C5009 C5010 1.379 . S
C5010 H4994 0.931 . S
C5010 C5004 1.383 . S
C5010 C5009 1.379 . S
H5011 C5005 0.959 . S
H5012 C5005 0.961 . S
H5013 C5005 0.960 . S
H5014 C5006 0.930 . S
H5015 C5007 0.929 . S
H5016 C5024 0.929 . S
H5017 C5026 0.930 . S
H5018 C5028 0.930 . S
H5019 C5031 0.929 . S
H5020 C5034 0.930 . S
H5021 C5036 0.960 . S
H5022 C5036 0.960 . S
H5023 C5036 0.960 . S
C5024 H5016 0.929 . S
C5024 C5025 1.377 . S
C5024 C5026 1.384 . S
C5025 C5024 1.377 . S
C5025 C5031 1.390 . S
C5026 H5017 0.930 . S
C5026 C5024 1.384 . S
C5026 C5027 1.372 . S
C5027 C5026 1.372 . S
C5027 C5028 1.400 . S
C5027 C5032 1.490 . S
C5028 H5018 0.930 . S
C5028 C5027 1.400 . S
C5028 C5031 1.386 . S
H5029 C5045 0.930 . S
H5030 C5046 0.931 . S
C5031 H5019 0.929 . S
C5031 C5025 1.390 . S
C5031 C5028 1.386 . S
C5032 C5027 1.490 . S
C5032 C5034 1.395 . S
C5032 C5035 1.403 . S
H5033 C5039 0.930 . S
C5034 H5020 0.930 . S
C5034 C5032 1.395 . S
C5034 C5037 1.403 . S
C5035 C5032 1.403 . S
C5035 C5036 1.524 . S
C5035 C5039 1.400 . S
C5036 H5021 0.960 . S
C5036 H5022 0.960 . S
C5036 H5023 0.960 . S
C5036 C5035 1.524 . S
C5037 C5034 1.403 . S
C5037 C5038 1.392 . S
C5037 C5041 1.495 . S
C5038 C5037 1.392 . S
C5038 C5039 1.385 . S
C5038 C5040 1.478 . S
C5039 H5033 0.930 . S
C5039 C5035 1.400 . S
C5039 C5038 1.385 . S
C5040 C5038 1.478 . S
C5040 C5042 1.381 . S
C5040 C5046 1.383 . S
C5041 C5037 1.495 . S
C5041 H5047 0.959 . S
C5041 H5048 0.961 . S
C5041 H5049 0.960 . S
C5042 C5040 1.381 . S
C5042 C5043 1.394 . S
C5042 H5050 0.930 . S
C5043 C5042 1.394 . S
C5043 C5044 1.383 . S
C5043 H5051 0.929 . S
C5044 C5043 1.383 . S
C5044 C5045 1.377 . S
C5045 H5029 0.930 . S
C5045 C5044 1.377 . S
C5045 C5046 1.379 . S
C5046 H5030 0.931 . S
C5046 C5040 1.383 . S
C5046 C5045 1.379 . S
H5047 C5041 0.959 . S
H5048 C5041 0.961 . S
H5049 C5041 0.960 . S
H5050 C5042 0.930 . S
H5051 C5043 0.929 . S
H5052 C5060 0.929 . S
H5053 C5062 0.930 . S
H5054 C5064 0.930 . S
H5055 C5067 0.901 1_455 S
H5056 C5070 0.930 . S
H5057 C5072 0.960 . S
H5058 C5072 0.960 . S
H5059 C5072 0.960 . S
C5060 H5052 0.929 . S
C5060 C5061 1.377 . S
C5060 C5062 1.384 . S
C5061 C5060 1.377 . S
C5061 C5067 1.390 . S
C5062 H5053 0.930 . S
C5062 C5060 1.384 . S
C5062 C5063 1.372 . S
C5063 C5062 1.372 . S
C5063 C5064 1.400 . S
C5063 C5068 1.490 . S
C5064 H5054 0.930 . S
C5064 C5063 1.400 . S
C5064 C5067 1.386 . S
H5065 C5081 0.930 . S
H5066 C5082 0.931 . S
C5067 H5055 0.901 1_655 S
C5067 C5061 1.390 . S
C5067 C5064 1.386 . S
C5068 C5063 1.490 . S
C5068 C5070 1.395 . S
C5068 C5071 1.403 . S
H5069 C5075 0.930 . S
C5070 H5056 0.930 . S
C5070 C5068 1.395 . S
C5070 C5073 1.403 . S
C5071 C5068 1.403 . S
C5071 C5072 1.524 . S
C5071 C5075 1.400 . S
C5072 H5057 0.960 . S
C5072 H5058 0.960 . S
C5072 H5059 0.960 . S
C5072 C5071 1.524 . S
C5073 C5070 1.403 . S
C5073 C5074 1.392 . S
C5073 C5077 1.495 . S
C5074 C5073 1.392 . S
C5074 C5075 1.385 . S
C5074 C5076 1.478 . S
C5075 H5069 0.930 . S
C5075 C5071 1.400 . S
C5075 C5074 1.385 . S
C5076 C5074 1.478 . S
C5076 C5078 1.381 . S
C5076 C5082 1.383 . S
C5077 C5073 1.495 . S
C5077 H5083 0.959 . S
C5077 H5084 0.961 . S
C5077 H5085 0.960 . S
C5078 C5076 1.381 . S
C5078 C5079 1.394 . S
C5078 H5086 0.930 . S
C5079 C5078 1.394 . S
C5079 C5080 1.383 . S
C5079 H5087 0.929 . S
C5080 C5079 1.383 . S
C5080 C5081 1.377 . S
C5081 H5065 0.930 . S
C5081 C5080 1.377 . S
C5081 C5082 1.379 . S
C5082 H5066 0.931 . S
C5082 C5076 1.383 . S
C5082 C5081 1.379 . S
H5083 C5077 0.959 . S
H5084 C5077 0.961 . S
H5085 C5077 0.960 . S
H5086 C5078 0.930 . S
H5087 C5079 0.929 . S
H5088 C5096 0.929 . S
H5089 C5098 0.930 . S
H5090 C5100 0.930 . S
H5091 C5103 0.929 . S
H5092 C5106 0.930 . S
H5093 C5108 0.960 . S
H5094 C5108 0.960 . S
H5095 C5108 0.960 . S
C5096 H5088 0.929 . S
C5096 C5097 1.377 . S
C5096 C5098 1.384 . S
C5097 C5096 1.377 . S
C5097 C5103 1.390 . S
C5098 H5089 0.930 . S
C5098 C5096 1.384 . S
C5098 C5099 1.372 . S
C5099 C5098 1.372 . S
C5099 C5100 1.400 . S
C5099 C5104 1.490 . S
C5100 H5090 0.930 . S
C5100 C5099 1.400 . S
C5100 C5103 1.386 . S
H5101 C5117 0.930 . S
H5102 C5118 0.931 . S
C5103 H5091 0.929 . S
C5103 C5097 1.390 . S
C5103 C5100 1.386 . S
C5104 C5099 1.490 . S
C5104 C5106 1.395 . S
C5104 C5107 1.403 . S
H5105 C5111 0.930 . S
C5106 H5092 0.930 . S
C5106 C5104 1.395 . S
C5106 C5109 1.403 . S
C5107 C5104 1.403 . S
C5107 C5108 1.524 . S
C5107 C5111 1.400 . S
C5108 H5093 0.960 . S
C5108 H5094 0.960 . S
C5108 H5095 0.960 . S
C5108 C5107 1.524 . S
C5109 C5106 1.403 . S
C5109 C5110 1.392 . S
C5109 C5113 1.495 . S
C5110 C5109 1.392 . S
C5110 C5111 1.385 . S
C5110 C5112 1.478 . S
C5111 H5105 0.930 . S
C5111 C5107 1.400 . S
C5111 C5110 1.385 . S
C5112 C5110 1.478 . S
C5112 C5114 1.381 . S
C5112 C5118 1.383 . S
C5113 C5109 1.495 . S
C5113 H5119 0.959 . S
C5113 H5120 0.961 . S
C5113 H5121 0.960 . S
C5114 C5112 1.381 . S
C5114 C5115 1.394 . S
C5114 H5122 0.930 . S
C5115 C5114 1.394 . S
C5115 C5116 1.383 . S
C5115 H5123 0.929 . S
C5116 C5115 1.383 . S
C5116 C5117 1.377 . S
C5117 H5101 0.930 . S
C5117 C5116 1.377 . S
C5117 C5118 1.379 . S
C5118 H5102 0.931 . S
C5118 C5112 1.383 . S
C5118 C5117 1.379 . S
H5119 C5113 0.959 . S
H5120 C5113 0.961 . S
H5121 C5113 0.960 . S
H5122 C5114 0.930 . S
H5123 C5115 0.929 . S
H5124 C5132 0.929 . S
H5125 C5134 0.930 . S
H5126 C5136 0.930 . S
H5127 C5139 0.929 . S
H5128 C5142 0.930 . S
H5129 C5144 0.960 . S
H5130 C5144 0.960 . S
H5131 C5144 0.960 . S
C5132 H5124 0.929 . S
C5132 C5133 1.377 . S
C5132 C5134 1.384 . S
C5133 C5132 1.377 . S
C5133 C5139 1.390 . S
C5134 H5125 0.930 . S
C5134 C5132 1.384 . S
C5134 C5135 1.372 . S
C5135 C5134 1.372 . S
C5135 C5136 1.400 . S
C5135 C5140 1.490 . S
C5136 H5126 0.930 . S
C5136 C5135 1.400 . S
C5136 C5139 1.386 . S
H5137 C5153 0.930 . S
H5138 C5154 0.931 . S
C5139 H5127 0.929 . S
C5139 C5133 1.390 . S
C5139 C5136 1.386 . S
C5140 C5135 1.490 . S
C5140 C5142 1.395 . S
C5140 C5143 1.403 . S
H5141 C5147 0.930 . S
C5142 H5128 0.930 . S
C5142 C5140 1.395 . S
C5142 C5145 1.403 . S
C5143 C5140 1.403 . S
C5143 C5144 1.524 . S
C5143 C5147 1.400 . S
C5144 H5129 0.960 . S
C5144 H5130 0.960 . S
C5144 H5131 0.960 . S
C5144 C5143 1.524 . S
C5145 C5142 1.403 . S
C5145 C5146 1.392 . S
C5145 C5149 1.495 . S
C5146 C5145 1.392 . S
C5146 C5147 1.385 . S
C5146 C5148 1.478 . S
C5147 H5141 0.930 . S
C5147 C5143 1.400 . S
C5147 C5146 1.385 . S
C5148 C5146 1.478 . S
C5148 C5150 1.381 . S
C5148 C5154 1.383 . S
C5149 C5145 1.495 . S
C5149 H5155 0.959 . S
C5149 H5156 0.961 . S
C5149 H5157 0.960 . S
C5150 C5148 1.381 . S
C5150 C5151 1.394 . S
C5150 H5158 0.930 . S
C5151 C5150 1.394 . S
C5151 C5152 1.383 . S
C5151 H5159 0.929 . S
C5152 C5151 1.383 . S
C5152 C5153 1.377 . S
C5153 H5137 0.930 . S
C5153 C5152 1.377 . S
C5153 C5154 1.379 . S
C5154 H5138 0.931 . S
C5154 C5148 1.383 . S
C5154 C5153 1.379 . S
H5155 C5149 0.959 . S
H5156 C5149 0.961 . S
H5157 C5149 0.960 . S
H5158 C5150 0.930 . S
H5159 C5151 0.929 . S
H5160 C5168 0.929 . S
H5161 C5170 0.930 . S
H5162 C5172 0.930 . S
H5163 C5175 0.929 . S
H5164 C5178 0.930 . S
H5165 C5180 0.960 . S
H5166 C5180 0.960 . S
H5167 C5180 0.960 . S
C5168 H5160 0.929 . S
C5168 C5169 1.377 . S
C5168 C5170 1.384 . S
C5169 C5168 1.377 . S
C5169 C5175 1.390 . S
C5170 H5161 0.930 . S
C5170 C5168 1.384 . S
C5170 C5171 1.372 . S
C5171 C5170 1.372 . S
C5171 C5172 1.400 . S
C5171 C5176 1.490 . S
C5172 H5162 0.930 . S
C5172 C5171 1.400 . S
C5172 C5175 1.386 . S
H5173 C5189 0.930 . S
H5174 C5190 0.931 . S
C5175 H5163 0.929 . S
C5175 C5169 1.390 . S
C5175 C5172 1.386 . S
C5176 C5171 1.490 . S
C5176 C5178 1.395 . S
C5176 C5179 1.403 . S
H5177 C5183 0.930 . S
C5178 H5164 0.930 . S
C5178 C5176 1.395 . S
C5178 C5181 1.403 . S
C5179 C5176 1.403 . S
C5179 C5180 1.524 . S
C5179 C5183 1.400 . S
C5180 H5165 0.960 . S
C5180 H5166 0.960 . S
C5180 H5167 0.960 . S
C5180 C5179 1.524 . S
C5181 C5178 1.403 . S
C5181 C5182 1.392 . S
C5181 C5185 1.495 . S
C5182 C5181 1.392 . S
C5182 C5183 1.385 . S
C5182 C5184 1.478 . S
C5183 H5177 0.930 . S
C5183 C5179 1.400 . S
C5183 C5182 1.385 . S
C5184 C5182 1.478 . S
C5184 C5186 1.381 . S
C5184 C5190 1.383 . S
C5185 C5181 1.495 . S
C5185 H5191 0.959 . S
C5185 H5192 0.961 . S
C5185 H5193 0.960 . S
C5186 C5184 1.381 . S
C5186 C5187 1.394 . S
C5186 H5194 0.930 . S
C5187 C5186 1.394 . S
C5187 C5188 1.383 . S
C5187 H5195 0.929 . S
C5188 C5187 1.383 . S
C5188 C5189 1.377 . S
C5189 H5173 0.930 . S
C5189 C5188 1.377 . S
C5189 C5190 1.379 . S
C5190 H5174 0.931 . S
C5190 C5184 1.383 . S
C5190 C5189 1.379 . S
H5191 C5185 0.959 . S
H5192 C5185 0.961 . S
H5193 C5185 0.960 . S
H5194 C5186 0.930 . S
H5195 C5187 0.929 . S
H5196 C5204 0.929 . S
H5197 C5206 0.930 . S
H5198 C5208 0.930 . S
H5199 C5211 0.929 . S
H5200 C5214 0.930 . S
H5201 C5216 0.960 . S
H5202 C5216 0.960 . S
H5203 C5216 0.960 . S
C5204 H5196 0.929 . S
C5204 C5205 1.377 . S
C5204 C5206 1.384 . S
C5205 C5204 1.377 . S
C5205 C5211 1.390 . S
C5206 H5197 0.930 . S
C5206 C5204 1.384 . S
C5206 C5207 1.372 . S
C5207 C5206 1.372 . S
C5207 C5208 1.400 . S
C5207 C5212 1.490 . S
C5208 H5198 0.930 . S
C5208 C5207 1.400 . S
C5208 C5211 1.386 . S
H5209 C5225 0.930 . S
H5210 C5226 0.931 . S
C5211 H5199 0.929 . S
C5211 C5205 1.390 . S
C5211 C5208 1.386 . S
C5212 C5207 1.490 . S
C5212 C5214 1.395 . S
C5212 C5215 1.403 . S
H5213 C5219 0.930 . S
C5214 H5200 0.930 . S
C5214 C5212 1.395 . S
C5214 C5217 1.403 . S
C5215 C5212 1.403 . S
C5215 C5216 1.524 . S
C5215 C5219 1.400 . S
C5216 H5201 0.960 . S
C5216 H5202 0.960 . S
C5216 H5203 0.960 . S
C5216 C5215 1.524 . S
C5217 C5214 1.403 . S
C5217 C5218 1.392 . S
C5217 C5221 1.495 . S
C5218 C5217 1.392 . S
C5218 C5219 1.385 . S
C5218 C5220 1.478 . S
C5219 H5213 0.930 . S
C5219 C5215 1.400 . S
C5219 C5218 1.385 . S
C5220 C5218 1.478 . S
C5220 C5222 1.381 . S
C5220 C5226 1.383 . S
C5221 C5217 1.495 . S
C5221 H5227 0.959 . S
C5221 H5228 0.961 . S
C5221 H5229 0.960 . S
C5222 C5220 1.381 . S
C5222 C5223 1.394 . S
C5222 H5230 0.930 . S
C5223 C5222 1.394 . S
C5223 C5224 1.383 . S
C5223 H5231 0.929 . S
C5224 C5223 1.383 . S
C5224 C5225 1.377 . S
C5225 H5209 0.930 . S
C5225 C5224 1.377 . S
C5225 C5226 1.379 . S
C5226 H5210 0.931 . S
C5226 C5220 1.383 . S
C5226 C5225 1.379 . S
H5227 C5221 0.959 . S
H5228 C5221 0.961 . S
H5229 C5221 0.960 . S
H5230 C5222 0.930 . S
H5231 C5223 0.929 . S
H5232 C5240 0.929 . S
H5233 C5242 0.930 . S
H5234 C5244 0.930 . S
H5235 C5247 0.929 . S
H5236 C5250 0.930 . S
H5237 C5252 0.960 . S
H5238 C5252 0.960 . S
H5239 C5252 0.960 . S
C5240 H5232 0.929 . S
C5240 C5241 1.377 . S
C5240 C5242 1.384 . S
C5241 C5240 1.377 . S
C5241 C5247 1.390 . S
C5242 H5233 0.930 . S
C5242 C5240 1.384 . S
C5242 C5243 1.372 . S
C5243 C5242 1.372 . S
C5243 C5244 1.400 . S
C5243 C5248 1.490 . S
C5244 H5234 0.930 . S
C5244 C5243 1.400 . S
C5244 C5247 1.386 . S
H5245 C5261 0.930 . S
H5246 C5262 0.931 . S
C5247 H5235 0.929 . S
C5247 C5241 1.390 . S
C5247 C5244 1.386 . S
C5248 C5243 1.490 . S
C5248 C5250 1.395 . S
C5248 C5251 1.403 . S
H5249 C5255 0.930 . S
C5250 H5236 0.930 . S
C5250 C5248 1.395 . S
C5250 C5253 1.403 . S
C5251 C5248 1.403 . S
C5251 C5252 1.524 . S
C5251 C5255 1.400 . S
C5252 H5237 0.960 . S
C5252 H5238 0.960 . S
C5252 H5239 0.960 . S
C5252 C5251 1.524 . S
C5253 C5250 1.403 . S
C5253 C5254 1.392 . S
C5253 C5257 1.495 . S
C5254 C5253 1.392 . S
C5254 C5255 1.385 . S
C5254 C5256 1.478 . S
C5255 H5249 0.930 . S
C5255 C5251 1.400 . S
C5255 C5254 1.385 . S
C5256 C5254 1.478 . S
C5256 C5258 1.381 . S
C5256 C5262 1.383 . S
C5257 C5253 1.495 . S
C5257 H5263 0.959 . S
C5257 H5264 0.961 . S
C5257 H5265 0.960 . S
C5258 C5256 1.381 . S
C5258 C5259 1.394 . S
C5258 H5266 0.930 . S
C5259 C5258 1.394 . S
C5259 C5260 1.383 . S
C5259 H5267 0.929 . S
C5260 C5259 1.383 . S
C5260 C5261 1.377 . S
C5261 H5245 0.930 . S
C5261 C5260 1.377 . S
C5261 C5262 1.379 . S
C5262 H5246 0.931 . S
C5262 C5256 1.383 . S
C5262 C5261 1.379 . S
H5263 C5257 0.959 . S
H5264 C5257 0.961 . S
H5265 C5257 0.960 . S
H5266 C5258 0.930 . S
H5267 C5259 0.929 . S
H5268 C5276 0.929 . S
H5269 C5278 0.930 . S
H5270 C5280 0.930 . S
H5271 C5283 0.929 . S
H5272 C5286 0.930 . S
H5273 C5288 0.960 . S
H5274 C5288 0.960 . S
H5275 C5288 0.960 . S
C5276 H5268 0.929 . S
C5276 C5277 1.377 . S
C5276 C5278 1.384 . S
C5277 C5276 1.377 . S
C5277 C5283 1.390 . S
C5278 H5269 0.930 . S
C5278 C5276 1.384 . S
C5278 C5279 1.372 . S
C5279 C5278 1.372 . S
C5279 C5280 1.400 . S
C5279 C5284 1.490 . S
C5280 H5270 0.930 . S
C5280 C5279 1.400 . S
C5280 C5283 1.386 . S
H5281 C5297 0.930 . S
H5282 C5298 0.931 . S
C5283 H5271 0.929 . S
C5283 C5277 1.390 . S
C5283 C5280 1.386 . S
C5284 C5279 1.490 . S
C5284 C5286 1.395 . S
C5284 C5287 1.403 . S
H5285 C5291 0.930 . S
C5286 H5272 0.930 . S
C5286 C5284 1.395 . S
C5286 C5289 1.403 . S
C5287 C5284 1.403 . S
C5287 C5288 1.524 . S
C5287 C5291 1.400 . S
C5288 H5273 0.960 . S
C5288 H5274 0.960 . S
C5288 H5275 0.960 . S
C5288 C5287 1.524 . S
C5289 C5286 1.403 . S
C5289 C5290 1.392 . S
C5289 C5293 1.495 . S
C5290 C5289 1.392 . S
C5290 C5291 1.385 . S
C5290 C5292 1.478 . S
C5291 H5285 0.930 . S
C5291 C5287 1.400 . S
C5291 C5290 1.385 . S
C5292 C5290 1.478 . S
C5292 C5294 1.381 . S
C5292 C5298 1.383 . S
C5293 C5289 1.495 . S
C5293 H5299 0.959 . S
C5293 H5300 0.961 . S
C5293 H5301 0.960 . S
C5294 C5292 1.381 . S
C5294 C5295 1.394 . S
C5294 H5302 0.930 . S
C5295 C5294 1.394 . S
C5295 C5296 1.383 . S
C5295 H5303 0.929 . S
C5296 C5295 1.383 . S
C5296 C5297 1.377 . S
C5297 H5281 0.930 . S
C5297 C5296 1.377 . S
C5297 C5298 1.379 . S
C5298 H5282 0.931 . S
C5298 C5292 1.383 . S
C5298 C5297 1.379 . S
H5299 C5293 0.959 . S
H5300 C5293 0.961 . S
H5301 C5293 0.960 . S
H5302 C5294 0.930 . S
H5303 C5295 0.929 . S
H5304 C5312 0.929 . S
H5305 C5314 0.930 . S
H5306 C5316 0.930 . S
H5307 C5319 0.929 . S
H5308 C5322 0.930 . S
H5309 C5324 0.960 . S
H5310 C5324 0.960 . S
H5311 C5324 0.960 . S
C5312 H5304 0.929 . S
C5312 C5313 1.377 . S
C5312 C5314 1.384 . S
C5313 C5312 1.377 . S
C5313 C5319 1.390 . S
C5314 H5305 0.930 . S
C5314 C5312 1.384 . S
C5314 C5315 1.372 . S
C5315 C5314 1.372 . S
C5315 C5316 1.400 . S
C5315 C5320 1.490 . S
C5316 H5306 0.930 . S
C5316 C5315 1.400 . S
C5316 C5319 1.386 . S
H5317 C5333 0.930 . S
H5318 C5334 0.931 . S
C5319 H5307 0.929 . S
C5319 C5313 1.390 . S
C5319 C5316 1.386 . S
C5320 C5315 1.490 . S
C5320 C5322 1.395 . S
C5320 C5323 1.403 . S
H5321 C5327 0.930 . S
C5322 H5308 0.930 . S
C5322 C5320 1.395 . S
C5322 C5325 1.403 . S
C5323 C5320 1.403 . S
C5323 C5324 1.524 . S
C5323 C5327 1.400 . S
C5324 H5309 0.960 . S
C5324 H5310 0.960 . S
C5324 H5311 0.960 . S
C5324 C5323 1.524 . S
C5325 C5322 1.403 . S
C5325 C5326 1.392 . S
C5325 C5329 1.495 . S
C5326 C5325 1.392 . S
C5326 C5327 1.385 . S
C5326 C5328 1.478 . S
C5327 H5321 0.930 . S
C5327 C5323 1.400 . S
C5327 C5326 1.385 . S
C5328 C5326 1.478 . S
C5328 C5330 1.381 . S
C5328 C5334 1.383 . S
C5329 C5325 1.495 . S
C5329 H5335 0.959 . S
C5329 H5336 0.961 . S
C5329 H5337 0.960 . S
C5330 C5328 1.381 . S
C5330 C5331 1.394 . S
C5330 H5338 0.930 . S
C5331 C5330 1.394 . S
C5331 C5332 1.383 . S
C5331 H5339 0.929 . S
C5332 C5331 1.383 . S
C5332 C5333 1.377 . S
C5333 H5317 0.930 . S
C5333 C5332 1.377 . S
C5333 C5334 1.379 . S
C5334 H5318 0.931 . S
C5334 C5328 1.383 . S
C5334 C5333 1.379 . S
H5335 C5329 0.959 . S
H5336 C5329 0.961 . S
H5337 C5329 0.960 . S
H5338 C5330 0.930 . S
H5339 C5331 0.929 . S
H5340 C5348 0.929 . S
H5341 C5350 0.930 . S
H5342 C5352 0.930 . S
H5343 C5355 0.929 . S
H5344 C5358 0.930 . S
H5345 C5360 0.960 . S
H5346 C5360 0.960 . S
H5347 C5360 0.960 . S
C5348 H5340 0.929 . S
C5348 C5349 1.377 . S
C5348 C5350 1.384 . S
C5349 C5348 1.377 . S
C5349 C5355 1.390 . S
C5350 H5341 0.930 . S
C5350 C5348 1.384 . S
C5350 C5351 1.372 . S
C5351 C5350 1.372 . S
C5351 C5352 1.400 . S
C5351 C5356 1.490 . S
C5352 H5342 0.930 . S
C5352 C5351 1.400 . S
C5352 C5355 1.386 . S
H5353 C5369 0.930 . S
H5354 C5370 0.931 . S
C5355 H5343 0.929 . S
C5355 C5349 1.390 . S
C5355 C5352 1.386 . S
C5356 C5351 1.490 . S
C5356 C5358 1.395 . S
C5356 C5359 1.403 . S
H5357 C5363 0.930 . S
C5358 H5344 0.930 . S
C5358 C5356 1.395 . S
C5358 C5361 1.403 . S
C5359 C5356 1.403 . S
C5359 C5360 1.524 . S
C5359 C5363 1.400 . S
C5360 H5345 0.960 . S
C5360 H5346 0.960 . S
C5360 H5347 0.960 . S
C5360 C5359 1.524 . S
C5361 C5358 1.403 . S
C5361 C5362 1.392 . S
C5361 C5365 1.495 . S
C5362 C5361 1.392 . S
C5362 C5363 1.385 . S
C5362 C5364 1.478 . S
C5363 H5357 0.930 . S
C5363 C5359 1.400 . S
C5363 C5362 1.385 . S
C5364 C5362 1.478 . S
C5364 C5366 1.381 . S
C5364 C5370 1.383 . S
C5365 C5361 1.495 . S
C5365 H5371 0.959 . S
C5365 H5372 0.961 . S
C5365 H5373 0.960 . S
C5366 C5364 1.381 . S
C5366 C5367 1.394 . S
C5366 H5374 0.930 . S
C5367 C5366 1.394 . S
C5367 C5368 1.383 . S
C5367 H5375 0.929 . S
C5368 C5367 1.383 . S
C5368 C5369 1.377 . S
C5369 H5353 0.930 . S
C5369 C5368 1.377 . S
C5369 C5370 1.379 . S
C5370 H5354 0.931 . S
C5370 C5364 1.383 . S
C5370 C5369 1.379 . S
H5371 C5365 0.959 . S
H5372 C5365 0.961 . S
H5373 C5365 0.960 . S
H5374 C5366 0.930 . S
H5375 C5367 0.929 . S
H5376 C5384 0.929 . S
H5377 C5386 0.930 . S
H5378 C5388 0.930 . S
H5379 C5391 0.929 . S
H5380 C5394 0.930 . S
H5381 C5396 0.960 . S
H5382 C5396 0.960 . S
H5383 C5396 0.960 . S
C5384 H5376 0.929 . S
C5384 C5385 1.377 . S
C5384 C5386 1.384 . S
C5385 C5384 1.377 . S
C5385 C5391 1.390 . S
C5386 H5377 0.930 . S
C5386 C5384 1.384 . S
C5386 C5387 1.372 . S
C5387 C5386 1.372 . S
C5387 C5388 1.400 . S
C5387 C5392 1.490 . S
C5388 H5378 0.930 . S
C5388 C5387 1.400 . S
C5388 C5391 1.386 . S
H5389 C5405 0.930 . S
H5390 C5406 0.931 . S
C5391 H5379 0.929 . S
C5391 C5385 1.390 . S
C5391 C5388 1.386 . S
C5392 C5387 1.490 . S
C5392 C5394 1.395 . S
C5392 C5395 1.403 . S
H5393 C5399 0.930 . S
C5394 H5380 0.930 . S
C5394 C5392 1.395 . S
C5394 C5397 1.403 . S
C5395 C5392 1.403 . S
C5395 C5396 1.524 . S
C5395 C5399 1.400 . S
C5396 H5381 0.960 . S
C5396 H5382 0.960 . S
C5396 H5383 0.960 . S
C5396 C5395 1.524 . S
C5397 C5394 1.403 . S
C5397 C5398 1.392 . S
C5397 C5401 1.495 . S
C5398 C5397 1.392 . S
C5398 C5399 1.385 . S
C5398 C5400 1.478 . S
C5399 H5393 0.930 . S
C5399 C5395 1.400 . S
C5399 C5398 1.385 . S
C5400 C5398 1.478 . S
C5400 C5402 1.381 . S
C5400 C5406 1.383 . S
C5401 C5397 1.495 . S
C5401 H5407 0.959 . S
C5401 H5408 0.961 . S
C5401 H5409 0.960 . S
C5402 C5400 1.381 . S
C5402 C5403 1.394 . S
C5402 H5410 0.930 . S
C5403 C5402 1.394 . S
C5403 C5404 1.383 . S
C5403 H5411 0.929 . S
C5404 C5403 1.383 . S
C5404 C5405 1.377 . S
C5405 H5389 0.930 . S
C5405 C5404 1.377 . S
C5405 C5406 1.379 . S
C5406 H5390 0.931 . S
C5406 C5400 1.383 . S
C5406 C5405 1.379 . S
H5407 C5401 0.959 . S
H5408 C5401 0.961 . S
H5409 C5401 0.960 . S
H5410 C5402 0.930 . S
H5411 C5403 0.929 . S
H5412 C5420 0.929 . S
H5413 C5422 0.930 . S
H5414 C5424 0.930 . S
H5415 C5427 0.929 . S
H5416 C5430 0.930 . S
H5417 C5432 0.960 . S
H5418 C5432 0.960 . S
H5419 C5432 0.960 . S
C5420 H5412 0.929 . S
C5420 C5421 1.377 . S
C5420 C5422 1.384 . S
C5421 C5420 1.377 . S
C5421 C5427 1.390 . S
C5422 H5413 0.930 . S
C5422 C5420 1.384 . S
C5422 C5423 1.372 . S
C5423 C5422 1.372 . S
C5423 C5424 1.400 . S
C5423 C5428 1.490 . S
C5424 H5414 0.930 . S
C5424 C5423 1.400 . S
C5424 C5427 1.386 . S
H5425 C5441 0.930 . S
H5426 C5442 0.931 . S
C5427 H5415 0.929 . S
C5427 C5421 1.390 . S
C5427 C5424 1.386 . S
C5428 C5423 1.490 . S
C5428 C5430 1.395 . S
C5428 C5431 1.403 . S
H5429 C5435 0.930 . S
C5430 H5416 0.930 . S
C5430 C5428 1.395 . S
C5430 C5433 1.403 . S
C5431 C5428 1.403 . S
C5431 C5432 1.524 . S
C5431 C5435 1.400 . S
C5432 H5417 0.960 . S
C5432 H5418 0.960 . S
C5432 H5419 0.960 . S
C5432 C5431 1.524 . S
C5433 C5430 1.403 . S
C5433 C5434 1.392 . S
C5433 C5437 1.495 . S
C5434 C5433 1.392 . S
C5434 C5435 1.385 . S
C5434 C5436 1.478 . S
C5435 H5429 0.930 . S
C5435 C5431 1.400 . S
C5435 C5434 1.385 . S
C5436 C5434 1.478 . S
C5436 C5438 1.381 . S
C5436 C5442 1.383 . S
C5437 C5433 1.495 . S
C5437 H5443 0.959 . S
C5437 H5444 0.961 . S
C5437 H5445 0.960 . S
C5438 C5436 1.381 . S
C5438 C5439 1.394 . S
C5438 H5446 0.930 . S
C5439 C5438 1.394 . S
C5439 C5440 1.383 . S
C5439 H5447 0.929 . S
C5440 C5439 1.383 . S
C5440 C5441 1.377 . S
C5441 H5425 0.930 . S
C5441 C5440 1.377 . S
C5441 C5442 1.379 . S
C5442 H5426 0.931 . S
C5442 C5436 1.383 . S
C5442 C5441 1.379 . S
H5443 C5437 0.959 . S
H5444 C5437 0.961 . S
H5445 C5437 0.960 . S
H5446 C5438 0.930 . S
H5447 C5439 0.929 . S
H5448 C5456 0.929 . S
H5449 C5458 0.930 . S
H5450 C5460 0.930 . S
H5451 C5463 0.929 . S
H5452 C5466 0.930 . S
H5453 C5468 0.960 . S
H5454 C5468 0.960 . S
H5455 C5468 0.960 . S
C5456 H5448 0.929 . S
C5456 C5457 1.377 . S
C5456 C5458 1.384 . S
C5457 C5456 1.377 . S
C5457 C5463 1.390 . S
C5458 H5449 0.930 . S
C5458 C5456 1.384 . S
C5458 C5459 1.372 . S
C5459 C5458 1.372 . S
C5459 C5460 1.400 . S
C5459 C5464 1.490 . S
C5460 H5450 0.930 . S
C5460 C5459 1.400 . S
C5460 C5463 1.386 . S
H5461 C5477 0.930 . S
H5462 C5478 0.931 . S
C5463 H5451 0.929 . S
C5463 C5457 1.390 . S
C5463 C5460 1.386 . S
C5464 C5459 1.490 . S
C5464 C5466 1.395 . S
C5464 C5467 1.403 . S
H5465 C5471 0.930 . S
C5466 H5452 0.930 . S
C5466 C5464 1.395 . S
C5466 C5469 1.403 . S
C5467 C5464 1.403 . S
C5467 C5468 1.524 . S
C5467 C5471 1.400 . S
C5468 H5453 0.960 . S
C5468 H5454 0.960 . S
C5468 H5455 0.960 . S
C5468 C5467 1.524 . S
C5469 C5466 1.403 . S
C5469 C5470 1.392 . S
C5469 C5473 1.495 . S
C5470 C5469 1.392 . S
C5470 C5471 1.385 . S
C5470 C5472 1.478 . S
C5471 H5465 0.930 . S
C5471 C5467 1.400 . S
C5471 C5470 1.385 . S
C5472 C5470 1.478 . S
C5472 C5474 1.381 . S
C5472 C5478 1.383 . S
C5473 C5469 1.495 . S
C5473 H5479 0.959 . S
C5473 H5480 0.961 . S
C5473 H5481 0.960 . S
C5474 C5472 1.381 . S
C5474 C5475 1.394 . S
C5474 H5482 0.930 . S
C5475 C5474 1.394 . S
C5475 C5476 1.383 . S
C5475 H5483 0.929 . S
C5476 C5475 1.383 . S
C5476 C5477 1.377 . S
C5477 H5461 0.930 . S
C5477 C5476 1.377 . S
C5477 C5478 1.379 . S
C5478 H5462 0.931 . S
C5478 C5472 1.383 . S
C5478 C5477 1.379 . S
H5479 C5473 0.959 . S
H5480 C5473 0.961 . S
H5481 C5473 0.960 . S
H5482 C5474 0.930 . S
H5483 C5475 0.929 . S
H5484 C5492 0.929 . S
H5485 C5494 0.930 . S
H5486 C5496 0.930 . S
H5487 C5499 0.929 . S
H5488 C5502 0.930 . S
H5489 C5504 0.960 . S
H5490 C5504 0.960 . S
H5491 C5504 0.960 . S
C5492 H5484 0.929 . S
C5492 C5493 1.377 . S
C5492 C5494 1.384 . S
C5493 C5492 1.377 . S
C5493 C5499 1.390 . S
C5494 H5485 0.930 . S
C5494 C5492 1.384 . S
C5494 C5495 1.372 . S
C5495 C5494 1.372 . S
C5495 C5496 1.400 . S
C5495 C5500 1.490 . S
C5496 H5486 0.930 . S
C5496 C5495 1.400 . S
C5496 C5499 1.386 . S
H5497 C5513 0.930 . S
H5498 C5514 0.931 . S
C5499 H5487 0.929 . S
C5499 C5493 1.390 . S
C5499 C5496 1.386 . S
C5500 C5495 1.490 . S
C5500 C5502 1.395 . S
C5500 C5503 1.403 . S
H5501 C5507 0.930 . S
C5502 H5488 0.930 . S
C5502 C5500 1.395 . S
C5502 C5505 1.403 . S
C5503 C5500 1.403 . S
C5503 C5504 1.524 . S
C5503 C5507 1.400 . S
C5504 H5489 0.960 . S
C5504 H5490 0.960 . S
C5504 H5491 0.960 . S
C5504 C5503 1.524 . S
C5505 C5502 1.403 . S
C5505 C5506 1.392 . S
C5505 C5509 1.495 . S
C5506 C5505 1.392 . S
C5506 C5507 1.385 . S
C5506 C5508 1.478 . S
C5507 H5501 0.930 . S
C5507 C5503 1.400 . S
C5507 C5506 1.385 . S
C5508 C5506 1.478 . S
C5508 C5510 1.381 . S
C5508 C5514 1.383 . S
C5509 C5505 1.495 . S
C5509 H5515 0.959 . S
C5509 H5516 0.961 . S
C5509 H5517 0.960 . S
C5510 C5508 1.381 . S
C5510 C5511 1.394 . S
C5510 H5518 0.930 . S
C5511 C5510 1.394 . S
C5511 C5512 1.383 . S
C5511 H5519 0.929 . S
C5512 C5511 1.383 . S
C5512 C5513 1.377 . S
C5513 H5497 0.930 . S
C5513 C5512 1.377 . S
C5513 C5514 1.379 . S
C5514 H5498 0.931 . S
C5514 C5508 1.383 . S
C5514 C5513 1.379 . S
H5515 C5509 0.959 . S
H5516 C5509 0.961 . S
H5517 C5509 0.960 . S
H5518 C5510 0.930 . S
H5519 C5511 0.929 . S
H5520 C5528 0.929 . S
H5521 C5530 0.930 . S
H5522 C5532 0.930 . S
H5523 C5535 0.929 . S
H5524 C5538 0.930 . S
H5525 C5540 0.960 . S
H5526 C5540 0.960 . S
H5527 C5540 0.960 . S
C5528 H5520 0.929 . S
C5528 C5529 1.377 . S
C5528 C5530 1.384 . S
C5529 C5528 1.377 . S
C5529 C5535 1.390 . S
C5530 H5521 0.930 . S
C5530 C5528 1.384 . S
C5530 C5531 1.372 . S
C5531 C5530 1.372 . S
C5531 C5532 1.400 . S
C5531 C5536 1.490 . S
C5532 H5522 0.930 . S
C5532 C5531 1.400 . S
C5532 C5535 1.386 . S
H5533 C5549 0.930 . S
H5534 C5550 0.931 . S
C5535 H5523 0.929 . S
C5535 C5529 1.390 . S
C5535 C5532 1.386 . S
C5536 C5531 1.490 . S
C5536 C5538 1.395 . S
C5536 C5539 1.403 . S
H5537 C5543 0.930 . S
C5538 H5524 0.930 . S
C5538 C5536 1.395 . S
C5538 C5541 1.403 . S
C5539 C5536 1.403 . S
C5539 C5540 1.524 . S
C5539 C5543 1.400 . S
C5540 H5525 0.960 . S
C5540 H5526 0.960 . S
C5540 H5527 0.960 . S
C5540 C5539 1.524 . S
C5541 C5538 1.403 . S
C5541 C5542 1.392 . S
C5541 C5545 1.495 . S
C5542 C5541 1.392 . S
C5542 C5543 1.385 . S
C5542 C5544 1.478 . S
C5543 H5537 0.930 . S
C5543 C5539 1.400 . S
C5543 C5542 1.385 . S
C5544 C5542 1.478 . S
C5544 C5546 1.381 . S
C5544 C5550 1.383 . S
C5545 C5541 1.495 . S
C5545 H5551 0.959 . S
C5545 H5552 0.961 . S
C5545 H5553 0.960 . S
C5546 C5544 1.381 . S
C5546 C5547 1.394 . S
C5546 H5554 0.930 . S
C5547 C5546 1.394 . S
C5547 C5548 1.383 . S
C5547 H5555 0.929 . S
C5548 C5547 1.383 . S
C5548 C5549 1.377 . S
C5549 H5533 0.930 . S
C5549 C5548 1.377 . S
C5549 C5550 1.379 . S
C5550 H5534 0.931 . S
C5550 C5544 1.383 . S
C5550 C5549 1.379 . S
H5551 C5545 0.959 . S
H5552 C5545 0.961 . S
H5553 C5545 0.960 . S
H5554 C5546 0.930 . S
H5555 C5547 0.929 . S
H5556 C5564 0.929 . S
H5557 C5566 0.930 . S
H5558 C5568 0.930 . S
H5559 C5571 0.929 . S
H5560 C5574 0.930 . S
H5561 C5576 0.960 . S
H5562 C5576 0.960 . S
H5563 C5576 0.960 . S
C5564 H5556 0.929 . S
C5564 C5565 1.377 . S
C5564 C5566 1.384 . S
C5565 C5564 1.377 . S
C5565 C5571 1.390 . S
C5566 H5557 0.930 . S
C5566 C5564 1.384 . S
C5566 C5567 1.372 . S
C5567 C5566 1.372 . S
C5567 C5568 1.400 . S
C5567 C5572 1.490 . S
C5568 H5558 0.930 . S
C5568 C5567 1.400 . S
C5568 C5571 1.386 . S
H5569 C5585 0.930 . S
H5570 C5586 0.931 . S
C5571 H5559 0.929 . S
C5571 C5565 1.390 . S
C5571 C5568 1.386 . S
C5572 C5567 1.490 . S
C5572 C5574 1.395 . S
C5572 C5575 1.403 . S
H5573 C5579 0.930 . S
C5574 H5560 0.930 . S
C5574 C5572 1.395 . S
C5574 C5577 1.403 . S
C5575 C5572 1.403 . S
C5575 C5576 1.524 . S
C5575 C5579 1.400 . S
C5576 H5561 0.960 . S
C5576 H5562 0.960 . S
C5576 H5563 0.960 . S
C5576 C5575 1.524 . S
C5577 C5574 1.403 . S
C5577 C5578 1.392 . S
C5577 C5581 1.495 . S
C5578 C5577 1.392 . S
C5578 C5579 1.385 . S
C5578 C5580 1.478 . S
C5579 H5573 0.930 . S
C5579 C5575 1.400 . S
C5579 C5578 1.385 . S
C5580 C5578 1.478 . S
C5580 C5582 1.381 . S
C5580 C5586 1.383 . S
C5581 C5577 1.495 . S
C5581 H5587 0.959 . S
C5581 H5588 0.961 . S
C5581 H5589 0.960 . S
C5582 C5580 1.381 . S
C5582 C5583 1.394 . S
C5582 H5590 0.930 . S
C5583 C5582 1.394 . S
C5583 C5584 1.383 . S
C5583 H5591 0.929 . S
C5584 C5583 1.383 . S
C5584 C5585 1.377 . S
C5585 H5569 0.930 . S
C5585 C5584 1.377 . S
C5585 C5586 1.379 . S
C5586 H5570 0.931 . S
C5586 C5580 1.383 . S
C5586 C5585 1.379 . S
H5587 C5581 0.959 . S
H5588 C5581 0.961 . S
H5589 C5581 0.960 . S
H5590 C5582 0.930 . S
H5591 C5583 0.929 . S
H5592 C5600 0.929 . S
H5593 C5602 0.930 . S
H5594 C5604 0.930 . S
H5595 C5607 0.929 . S
H5596 C5610 0.930 . S
H5597 C5612 0.960 . S
H5598 C5612 0.960 . S
H5599 C5612 0.960 . S
C5600 H5592 0.929 . S
C5600 C5601 1.377 . S
C5600 C5602 1.384 . S
C5601 C5600 1.377 . S
C5601 C5607 1.390 . S
C5602 H5593 0.930 . S
C5602 C5600 1.384 . S
C5602 C5603 1.372 . S
C5603 C5602 1.372 . S
C5603 C5604 1.400 . S
C5603 C5608 1.490 . S
C5604 H5594 0.930 . S
C5604 C5603 1.400 . S
C5604 C5607 1.386 . S
H5605 C5621 0.930 . S
H5606 C5622 0.931 . S
C5607 H5595 0.929 . S
C5607 C5601 1.390 . S
C5607 C5604 1.386 . S
C5608 C5603 1.490 . S
C5608 C5610 1.395 . S
C5608 C5611 1.403 . S
H5609 C5615 0.930 . S
C5610 H5596 0.930 . S
C5610 C5608 1.395 . S
C5610 C5613 1.403 . S
C5611 C5608 1.403 . S
C5611 C5612 1.524 . S
C5611 C5615 1.400 . S
C5612 H5597 0.960 . S
C5612 H5598 0.960 . S
C5612 H5599 0.960 . S
C5612 C5611 1.524 . S
C5613 C5610 1.403 . S
C5613 C5614 1.392 . S
C5613 C5617 1.495 . S
C5614 C5613 1.392 . S
C5614 C5615 1.385 . S
C5614 C5616 1.478 . S
C5615 H5609 0.930 . S
C5615 C5611 1.400 . S
C5615 C5614 1.385 . S
C5616 C5614 1.478 . S
C5616 C5618 1.381 . S
C5616 C5622 1.383 . S
C5617 C5613 1.495 . S
C5617 H5623 0.959 . S
C5617 H5624 0.961 . S
C5617 H5625 0.960 . S
C5618 C5616 1.381 . S
C5618 C5619 1.394 . S
C5618 H5626 0.930 . S
C5619 C5618 1.394 . S
C5619 C5620 1.383 . S
C5619 H5627 0.929 . S
C5620 C5619 1.383 . S
C5620 C5621 1.377 . S
C5621 H5605 0.930 . S
C5621 C5620 1.377 . S
C5621 C5622 1.379 . S
C5622 H5606 0.931 . S
C5622 C5616 1.383 . S
C5622 C5621 1.379 . S
H5623 C5617 0.959 . S
H5624 C5617 0.961 . S
H5625 C5617 0.960 . S
H5626 C5618 0.930 . S
H5627 C5619 0.929 . S
H5628 C5636 0.929 . S
H5629 C5638 0.930 . S
H5630 C5640 0.930 . S
H5631 C5643 0.929 . S
H5632 C5646 0.930 . S
H5633 C5648 0.960 . S
H5634 C5648 0.960 . S
H5635 C5648 0.960 . S
C5636 H5628 0.929 . S
C5636 C5637 1.377 . S
C5636 C5638 1.384 . S
C5637 C5636 1.377 . S
C5637 C5643 1.390 . S
C5638 H5629 0.930 . S
C5638 C5636 1.384 . S
C5638 C5639 1.372 . S
C5639 C5638 1.372 . S
C5639 C5640 1.400 . S
C5639 C5644 1.490 . S
C5640 H5630 0.930 . S
C5640 C5639 1.400 . S
C5640 C5643 1.386 . S
H5641 C5657 0.930 . S
H5642 C5658 0.931 . S
C5643 H5631 0.929 . S
C5643 C5637 1.390 . S
C5643 C5640 1.386 . S
C5644 C5639 1.490 . S
C5644 C5646 1.395 . S
C5644 C5647 1.403 . S
H5645 C5651 0.930 . S
C5646 H5632 0.930 . S
C5646 C5644 1.395 . S
C5646 C5649 1.403 . S
C5647 C5644 1.403 . S
C5647 C5648 1.524 . S
C5647 C5651 1.400 . S
C5648 H5633 0.960 . S
C5648 H5634 0.960 . S
C5648 H5635 0.960 . S
C5648 C5647 1.524 . S
C5649 C5646 1.403 . S
C5649 C5650 1.392 . S
C5649 C5653 1.495 . S
C5650 C5649 1.392 . S
C5650 C5651 1.385 . S
C5650 C5652 1.478 . S
C5651 H5645 0.930 . S
C5651 C5647 1.400 . S
C5651 C5650 1.385 . S
C5652 C5650 1.478 . S
C5652 C5654 1.381 . S
C5652 C5658 1.383 . S
C5653 C5649 1.495 . S
C5653 H5659 0.959 . S
C5653 H5660 0.961 . S
C5653 H5661 0.960 . S
C5654 C5652 1.381 . S
C5654 C5655 1.394 . S
C5654 H5662 0.930 . S
C5655 C5654 1.394 . S
C5655 C5656 1.383 . S
C5655 H5663 0.929 . S
C5656 C5655 1.383 . S
C5656 C5657 1.377 . S
C5657 H5641 0.930 . S
C5657 C5656 1.377 . S
C5657 C5658 1.379 . S
C5658 H5642 0.931 . S
C5658 C5652 1.383 . S
C5658 C5657 1.379 . S
H5659 C5653 0.959 . S
H5660 C5653 0.961 . S
H5661 C5653 0.960 . S
H5662 C5654 0.930 . S
H5663 C5655 0.929 . S
H5664 C5672 0.929 . S
H5665 C5674 0.930 . S
H5666 C5676 0.930 . S
H5667 C5679 0.929 . S
H5668 C5682 0.930 . S
H5669 C5684 0.960 . S
H5670 C5684 0.960 . S
H5671 C5684 0.960 . S
C5672 H5664 0.929 . S
C5672 C5673 1.377 . S
C5672 C5674 1.384 . S
C5673 C5672 1.377 . S
C5673 C5679 1.390 . S
C5674 H5665 0.930 . S
C5674 C5672 1.384 . S
C5674 C5675 1.372 . S
C5675 C5674 1.372 . S
C5675 C5676 1.400 . S
C5675 C5680 1.490 . S
C5676 H5666 0.930 . S
C5676 C5675 1.400 . S
C5676 C5679 1.386 . S
H5677 C5693 0.930 . S
H5678 C5694 0.931 . S
C5679 H5667 0.929 . S
C5679 C5673 1.390 . S
C5679 C5676 1.386 . S
C5680 C5675 1.490 . S
C5680 C5682 1.395 . S
C5680 C5683 1.403 . S
H5681 C5687 0.930 . S
C5682 H5668 0.930 . S
C5682 C5680 1.395 . S
C5682 C5685 1.403 . S
C5683 C5680 1.403 . S
C5683 C5684 1.524 . S
C5683 C5687 1.400 . S
C5684 H5669 0.960 . S
C5684 H5670 0.960 . S
C5684 H5671 0.960 . S
C5684 C5683 1.524 . S
C5685 C5682 1.403 . S
C5685 C5686 1.392 . S
C5685 C5689 1.495 . S
C5686 C5685 1.392 . S
C5686 C5687 1.385 . S
C5686 C5688 1.478 . S
C5687 H5681 0.930 . S
C5687 C5683 1.400 . S
C5687 C5686 1.385 . S
C5688 C5686 1.478 . S
C5688 C5690 1.381 . S
C5688 C5694 1.383 . S
C5689 C5685 1.495 . S
C5689 H5695 0.959 . S
C5689 H5696 0.961 . S
C5689 H5697 0.960 . S
C5690 C5688 1.381 . S
C5690 C5691 1.394 . S
C5690 H5698 0.930 . S
C5691 C5690 1.394 . S
C5691 C5692 1.383 . S
C5691 H5699 0.929 . S
C5692 C5691 1.383 . S
C5692 C5693 1.377 . S
C5693 H5677 0.930 . S
C5693 C5692 1.377 . S
C5693 C5694 1.379 . S
C5694 H5678 0.931 . S
C5694 C5688 1.383 . S
C5694 C5693 1.379 . S
H5695 C5689 0.959 . S
H5696 C5689 0.961 . S
H5697 C5689 0.960 . S
H5698 C5690 0.930 . S
H5699 C5691 0.929 . S
H5700 C5708 0.929 . S
H5701 C5710 0.930 . S
H5702 C5712 0.930 . S
H5703 C5715 0.929 . S
H5704 C5718 0.930 . S
H5705 C5720 0.960 . S
H5706 C5720 0.960 . S
H5707 C5720 0.960 . S
C5708 H5700 0.929 . S
C5708 C5709 1.377 . S
C5708 C5710 1.384 . S
C5709 C5708 1.377 . S
C5709 C5715 1.390 . S
C5710 H5701 0.930 . S
C5710 C5708 1.384 . S
C5710 C5711 1.372 . S
C5711 C5710 1.372 . S
C5711 C5712 1.400 . S
C5711 C5716 1.490 . S
C5712 H5702 0.930 . S
C5712 C5711 1.400 . S
C5712 C5715 1.386 . S
H5713 C5729 0.930 . S
H5714 C5730 0.931 . S
C5715 H5703 0.929 . S
C5715 C5709 1.390 . S
C5715 C5712 1.386 . S
C5716 C5711 1.490 . S
C5716 C5718 1.395 . S
C5716 C5719 1.403 . S
H5717 C5723 0.930 . S
C5718 H5704 0.930 . S
C5718 C5716 1.395 . S
C5718 C5721 1.403 . S
C5719 C5716 1.403 . S
C5719 C5720 1.524 . S
C5719 C5723 1.400 . S
C5720 H5705 0.960 . S
C5720 H5706 0.960 . S
C5720 H5707 0.960 . S
C5720 C5719 1.524 . S
C5721 C5718 1.403 . S
C5721 C5722 1.392 . S
C5721 C5725 1.495 . S
C5722 C5721 1.392 . S
C5722 C5723 1.385 . S
C5722 C5724 1.478 . S
C5723 H5717 0.930 . S
C5723 C5719 1.400 . S
C5723 C5722 1.385 . S
C5724 C5722 1.478 . S
C5724 C5726 1.381 . S
C5724 C5730 1.383 . S
C5725 C5721 1.495 . S
C5725 H5731 0.959 . S
C5725 H5732 0.961 . S
C5725 H5733 0.960 . S
C5726 C5724 1.381 . S
C5726 C5727 1.394 . S
C5726 H5734 0.930 . S
C5727 C5726 1.394 . S
C5727 C5728 1.383 . S
C5727 H5735 0.929 . S
C5728 C5727 1.383 . S
C5728 C5729 1.377 . S
C5729 H5713 0.930 . S
C5729 C5728 1.377 . S
C5729 C5730 1.379 . S
C5730 H5714 0.931 . S
C5730 C5724 1.383 . S
C5730 C5729 1.379 . S
H5731 C5725 0.959 . S
H5732 C5725 0.961 . S
H5733 C5725 0.960 . S
H5734 C5726 0.930 . S
H5735 C5727 0.929 . S
H5736 C5744 0.929 . S
H5737 C5746 0.930 . S
H5738 C5748 0.930 . S
H5739 C5751 0.929 . S
H5740 C5754 0.930 . S
H5741 C5756 0.960 . S
H5742 C5756 0.960 . S
H5743 C5756 0.960 . S
C5744 H5736 0.929 . S
C5744 C5745 1.377 . S
C5744 C5746 1.384 . S
C5745 C5744 1.377 . S
C5745 C5751 1.390 . S
C5746 H5737 0.930 . S
C5746 C5744 1.384 . S
C5746 C5747 1.372 . S
C5747 C5746 1.372 . S
C5747 C5748 1.400 . S
C5747 C5752 1.490 . S
C5748 H5738 0.930 . S
C5748 C5747 1.400 . S
C5748 C5751 1.386 . S
H5749 C5765 0.930 . S
H5750 C5766 0.931 . S
C5751 H5739 0.929 . S
C5751 C5745 1.390 . S
C5751 C5748 1.386 . S
C5752 C5747 1.490 . S
C5752 C5754 1.395 . S
C5752 C5755 1.403 . S
H5753 C5759 0.930 . S
C5754 H5740 0.930 . S
C5754 C5752 1.395 . S
C5754 C5757 1.403 . S
C5755 C5752 1.403 . S
C5755 C5756 1.524 . S
C5755 C5759 1.400 . S
C5756 H5741 0.960 . S
C5756 H5742 0.960 . S
C5756 H5743 0.960 . S
C5756 C5755 1.524 . S
C5757 C5754 1.403 . S
C5757 C5758 1.392 . S
C5757 C5761 1.495 . S
C5758 C5757 1.392 . S
C5758 C5759 1.385 . S
C5758 C5760 1.478 . S
C5759 H5753 0.930 . S
C5759 C5755 1.400 . S
C5759 C5758 1.385 . S
C5760 C5758 1.478 . S
C5760 C5762 1.381 . S
C5760 C5766 1.383 . S
C5761 C5757 1.495 . S
C5761 H5767 0.959 . S
C5761 H5768 0.961 . S
C5761 H5769 0.960 . S
C5762 C5760 1.381 . S
C5762 C5763 1.394 . S
C5762 H5770 0.930 . S
C5763 C5762 1.394 . S
C5763 C5764 1.383 . S
C5763 H5771 0.929 . S
C5764 C5763 1.383 . S
C5764 C5765 1.377 . S
C5765 H5749 0.930 . S
C5765 C5764 1.377 . S
C5765 C5766 1.379 . S
C5766 H5750 0.931 . S
C5766 C5760 1.383 . S
C5766 C5765 1.379 . S
H5767 C5761 0.959 . S
H5768 C5761 0.961 . S
H5769 C5761 0.960 . S
H5770 C5762 0.930 . S
H5771 C5763 0.929 . S
H5772 C5780 0.929 . S
H5773 C5782 0.930 . S
H5774 C5784 0.930 . S
H5775 C5787 0.929 . S
H5776 C5790 0.930 . S
H5777 C5792 0.960 . S
H5778 C5792 0.960 . S
H5779 C5792 0.960 . S
C5780 H5772 0.929 . S
C5780 C5781 1.377 . S
C5780 C5782 1.384 . S
C5781 C5780 1.377 . S
C5781 C5787 1.390 . S
C5782 H5773 0.930 . S
C5782 C5780 1.384 . S
C5782 C5783 1.372 . S
C5783 C5782 1.372 . S
C5783 C5784 1.400 . S
C5783 C5788 1.490 . S
C5784 H5774 0.930 . S
C5784 C5783 1.400 . S
C5784 C5787 1.386 . S
H5785 C5801 0.930 . S
H5786 C5802 0.931 . S
C5787 H5775 0.929 . S
C5787 C5781 1.390 . S
C5787 C5784 1.386 . S
C5788 C5783 1.490 . S
C5788 C5790 1.395 . S
C5788 C5791 1.403 . S
H5789 C5795 0.930 . S
C5790 H5776 0.930 . S
C5790 C5788 1.395 . S
C5790 C5793 1.403 . S
C5791 C5788 1.403 . S
C5791 C5792 1.524 . S
C5791 C5795 1.400 . S
C5792 H5777 0.960 . S
C5792 H5778 0.960 . S
C5792 H5779 0.960 . S
C5792 C5791 1.524 . S
C5793 C5790 1.403 . S
C5793 C5794 1.392 . S
C5793 C5797 1.495 . S
C5794 C5793 1.392 . S
C5794 C5795 1.385 . S
C5794 C5796 1.478 . S
C5795 H5789 0.930 . S
C5795 C5791 1.400 . S
C5795 C5794 1.385 . S
C5796 C5794 1.478 . S
C5796 C5798 1.381 . S
C5796 C5802 1.383 . S
C5797 C5793 1.495 . S
C5797 H5803 0.959 . S
C5797 H5804 0.961 . S
C5797 H5805 0.960 . S
C5798 C5796 1.381 . S
C5798 C5799 1.394 . S
C5798 H5806 0.930 . S
C5799 C5798 1.394 . S
C5799 C5800 1.383 . S
C5799 H5807 0.929 . S
C5800 C5799 1.383 . S
C5800 C5801 1.377 . S
C5801 H5785 0.930 . S
C5801 C5800 1.377 . S
C5801 C5802 1.379 . S
C5802 H5786 0.931 . S
C5802 C5796 1.383 . S
C5802 C5801 1.379 . S
H5803 C5797 0.959 . S
H5804 C5797 0.961 . S
H5805 C5797 0.960 . S
H5806 C5798 0.930 . S
H5807 C5799 0.929 . S
H5808 C5816 0.929 . S
H5809 C5818 0.930 . S
H5810 C5820 0.930 . S
H5811 C5823 0.929 . S
H5812 C5826 0.930 . S
H5813 C5828 0.960 . S
H5814 C5828 0.960 . S
H5815 C5828 0.960 . S
C5816 H5808 0.929 . S
C5816 C5817 1.377 . S
C5816 C5818 1.384 . S
C5817 C5816 1.377 . S
C5817 C5823 1.390 . S
C5818 H5809 0.930 . S
C5818 C5816 1.384 . S
C5818 C5819 1.372 . S
C5819 C5818 1.372 . S
C5819 C5820 1.400 . S
C5819 C5824 1.490 . S
C5820 H5810 0.930 . S
C5820 C5819 1.400 . S
C5820 C5823 1.386 . S
H5821 C5837 0.930 . S
H5822 C5838 0.931 . S
C5823 H5811 0.929 . S
C5823 C5817 1.390 . S
C5823 C5820 1.386 . S
C5824 C5819 1.490 . S
C5824 C5826 1.395 . S
C5824 C5827 1.403 . S
H5825 C5831 0.930 . S
C5826 H5812 0.930 . S
C5826 C5824 1.395 . S
C5826 C5829 1.403 . S
C5827 C5824 1.403 . S
C5827 C5828 1.524 . S
C5827 C5831 1.400 . S
C5828 H5813 0.960 . S
C5828 H5814 0.960 . S
C5828 H5815 0.960 . S
C5828 C5827 1.524 . S
C5829 C5826 1.403 . S
C5829 C5830 1.392 . S
C5829 C5833 1.495 . S
C5830 C5829 1.392 . S
C5830 C5831 1.385 . S
C5830 C5832 1.478 . S
C5831 H5825 0.930 . S
C5831 C5827 1.400 . S
C5831 C5830 1.385 . S
C5832 C5830 1.478 . S
C5832 C5834 1.381 . S
C5832 C5838 1.383 . S
C5833 C5829 1.495 . S
C5833 H5839 0.959 . S
C5833 H5840 0.961 . S
C5833 H5841 0.960 . S
C5834 C5832 1.381 . S
C5834 C5835 1.394 . S
C5834 H5842 0.930 . S
C5835 C5834 1.394 . S
C5835 C5836 1.383 . S
C5835 H5843 0.929 . S
C5836 C5835 1.383 . S
C5836 C5837 1.377 . S
C5837 H5821 0.930 . S
C5837 C5836 1.377 . S
C5837 C5838 1.379 . S
C5838 H5822 0.931 . S
C5838 C5832 1.383 . S
C5838 C5837 1.379 . S
H5839 C5833 0.959 . S
H5840 C5833 0.961 . S
H5841 C5833 0.960 . S
H5842 C5834 0.930 . S
H5843 C5835 0.929 . S
H5844 C5852 0.929 . S
H5845 C5854 0.930 . S
H5846 C5856 0.930 . S
H5847 C5859 0.929 . S
H5848 C5862 0.930 . S
H5849 C5864 0.960 . S
H5850 C5864 0.960 . S
H5851 C5864 0.960 . S
C5852 H5844 0.929 . S
C5852 C5853 1.377 . S
C5852 C5854 1.384 . S
C5853 C5852 1.377 . S
C5853 C5859 1.390 . S
C5854 H5845 0.930 . S
C5854 C5852 1.384 . S
C5854 C5855 1.372 . S
C5855 C5854 1.372 . S
C5855 C5856 1.400 . S
C5855 C5860 1.490 . S
C5856 H5846 0.930 . S
C5856 C5855 1.400 . S
C5856 C5859 1.386 . S
H5857 C5873 0.930 . S
H5858 C5874 0.931 . S
C5859 H5847 0.929 . S
C5859 C5853 1.390 . S
C5859 C5856 1.386 . S
C5860 C5855 1.490 . S
C5860 C5862 1.395 . S
C5860 C5863 1.403 . S
H5861 C5867 0.930 . S
C5862 H5848 0.930 . S
C5862 C5860 1.395 . S
C5862 C5865 1.403 . S
C5863 C5860 1.403 . S
C5863 C5864 1.524 . S
C5863 C5867 1.400 . S
C5864 H5849 0.960 . S
C5864 H5850 0.960 . S
C5864 H5851 0.960 . S
C5864 C5863 1.524 . S
C5865 C5862 1.403 . S
C5865 C5866 1.392 . S
C5865 C5869 1.495 . S
C5866 C5865 1.392 . S
C5866 C5867 1.385 . S
C5866 C5868 1.478 . S
C5867 H5861 0.930 . S
C5867 C5863 1.400 . S
C5867 C5866 1.385 . S
C5868 C5866 1.478 . S
C5868 C5870 1.381 . S
C5868 C5874 1.383 . S
C5869 C5865 1.495 . S
C5869 H5875 0.959 . S
C5869 H5876 0.961 . S
C5869 H5877 0.960 . S
C5870 C5868 1.381 . S
C5870 C5871 1.394 . S
C5870 H5878 0.930 . S
C5871 C5870 1.394 . S
C5871 C5872 1.383 . S
C5871 H5879 0.929 . S
C5872 C5871 1.383 . S
C5872 C5873 1.377 . S
C5873 H5857 0.930 . S
C5873 C5872 1.377 . S
C5873 C5874 1.379 . S
C5874 H5858 0.931 . S
C5874 C5868 1.383 . S
C5874 C5873 1.379 . S
H5875 C5869 0.959 . S
H5876 C5869 0.961 . S
H5877 C5869 0.960 . S
H5878 C5870 0.930 . S
H5879 C5871 0.929 . S
H5880 C5888 0.929 . S
H5881 C5890 0.930 . S
H5882 C5892 0.930 . S
H5883 C5895 0.929 . S
H5884 C5898 0.930 . S
H5885 C5900 0.960 . S
H5886 C5900 0.960 . S
H5887 C5900 0.960 . S
C5888 H5880 0.929 . S
C5888 C5889 1.377 . S
C5888 C5890 1.384 . S
C5889 C5888 1.377 . S
C5889 C5895 1.390 . S
C5890 H5881 0.930 . S
C5890 C5888 1.384 . S
C5890 C5891 1.372 . S
C5891 C5890 1.372 . S
C5891 C5892 1.400 . S
C5891 C5896 1.490 . S
C5892 H5882 0.930 . S
C5892 C5891 1.400 . S
C5892 C5895 1.386 . S
H5893 C5909 0.930 . S
H5894 C5910 0.931 . S
C5895 H5883 0.929 . S
C5895 C5889 1.390 . S
C5895 C5892 1.386 . S
C5896 C5891 1.490 . S
C5896 C5898 1.395 . S
C5896 C5899 1.403 . S
H5897 C5903 0.930 . S
C5898 H5884 0.930 . S
C5898 C5896 1.395 . S
C5898 C5901 1.403 . S
C5899 C5896 1.403 . S
C5899 C5900 1.524 . S
C5899 C5903 1.400 . S
C5900 H5885 0.960 . S
C5900 H5886 0.960 . S
C5900 H5887 0.960 . S
C5900 C5899 1.524 . S
C5901 C5898 1.403 . S
C5901 C5902 1.392 . S
C5901 C5905 1.495 . S
C5902 C5901 1.392 . S
C5902 C5903 1.385 . S
C5902 C5904 1.478 . S
C5903 H5897 0.930 . S
C5903 C5899 1.400 . S
C5903 C5902 1.385 . S
C5904 C5902 1.478 . S
C5904 C5906 1.381 . S
C5904 C5910 1.383 . S
C5905 C5901 1.495 . S
C5905 H5911 0.959 . S
C5905 H5912 0.961 . S
C5905 H5913 0.960 . S
C5906 C5904 1.381 . S
C5906 C5907 1.394 . S
C5906 H5914 0.930 . S
C5907 C5906 1.394 . S
C5907 C5908 1.383 . S
C5907 H5915 0.929 . S
C5908 C5907 1.383 . S
C5908 C5909 1.377 . S
C5909 H5893 0.930 . S
C5909 C5908 1.377 . S
C5909 C5910 1.379 . S
C5910 H5894 0.931 . S
C5910 C5904 1.383 . S
C5910 C5909 1.379 . S
H5911 C5905 0.959 . S
H5912 C5905 0.961 . S
H5913 C5905 0.960 . S
H5914 C5906 0.930 . S
H5915 C5907 0.929 . S
H5916 C5924 0.929 . S
H5917 C5926 0.930 . S
H5918 C5928 0.930 . S
H5919 C5931 0.929 . S
H5920 C5934 0.930 . S
H5921 C5936 0.960 . S
H5922 C5936 0.960 . S
H5923 C5936 0.960 . S
C5924 H5916 0.929 . S
C5924 C5925 1.377 . S
C5924 C5926 1.384 . S
C5925 C5924 1.377 . S
C5925 C5931 1.390 . S
C5926 H5917 0.930 . S
C5926 C5924 1.384 . S
C5926 C5927 1.372 . S
C5927 C5926 1.372 . S
C5927 C5928 1.400 . S
C5927 C5932 1.490 . S
C5928 H5918 0.930 . S
C5928 C5927 1.400 . S
C5928 C5931 1.386 . S
H5929 C5945 0.930 . S
H5930 C5946 0.931 . S
C5931 H5919 0.929 . S
C5931 C5925 1.390 . S
C5931 C5928 1.386 . S
C5932 C5927 1.490 . S
C5932 C5934 1.395 . S
C5932 C5935 1.403 . S
H5933 C5939 0.930 . S
C5934 H5920 0.930 . S
C5934 C5932 1.395 . S
C5934 C5937 1.403 . S
C5935 C5932 1.403 . S
C5935 C5936 1.524 . S
C5935 C5939 1.400 . S
C5936 H5921 0.960 . S
C5936 H5922 0.960 . S
C5936 H5923 0.960 . S
C5936 C5935 1.524 . S
C5937 C5934 1.403 . S
C5937 C5938 1.392 . S
C5937 C5941 1.495 . S
C5938 C5937 1.392 . S
C5938 C5939 1.385 . S
C5938 C5940 1.478 . S
C5939 H5933 0.930 . S
C5939 C5935 1.400 . S
C5939 C5938 1.385 . S
C5940 C5938 1.478 . S
C5940 C5942 1.381 . S
C5940 C5946 1.383 . S
C5941 C5937 1.495 . S
C5941 H5947 0.959 . S
C5941 H5948 0.961 . S
C5941 H5949 0.960 . S
C5942 C5940 1.381 . S
C5942 C5943 1.394 . S
C5942 H5950 0.930 . S
C5943 C5942 1.394 . S
C5943 C5944 1.383 . S
C5943 H5951 0.929 . S
C5944 C5943 1.383 . S
C5944 C5945 1.377 . S
C5945 H5929 0.930 . S
C5945 C5944 1.377 . S
C5945 C5946 1.379 . S
C5946 H5930 0.931 . S
C5946 C5940 1.383 . S
C5946 C5945 1.379 . S
H5947 C5941 0.959 . S
H5948 C5941 0.961 . S
H5949 C5941 0.960 . S
H5950 C5942 0.930 . S
H5951 C5943 0.929 . S
C1641 C1087 0.556 . S
C1660 C33 0.611 . S
C1677 C67 0.545 . S
C1696 C985 0.563 . S
C1713 C101 0.543 . S
C1732 C1019 0.501 . S
C1749 C1053 0.542 . S
C1768 C135 0.524 . S
C1785 C883 0.562 . S
C1804 C169 0.622 . S
C1821 C917 0.566 . S
C1840 C203 0.622 . S
C1857 C237 0.547 . S
C1876 C951 0.490 . S
C1893 C271 0.545 . S
C1912 C849 0.561 . S
C1929 C305 0.542 . S
C1948 C1529 0.511 . S
C1965 C339 0.558 . S
C1984 C1427 0.614 . S
C2001 C373 0.542 . S
C2020 C1461 0.507 . S
C2037 C407 0.569 . S
C2056 C1495 0.573 . S
C2073 C1631 0.570 . S
C2092 C441 0.604 . S
C2109 C475 0.545 . S
C2128 C1563 0.493 . S
C2145 C509 0.543 . S
C2164 C1597 0.501 . S
C2181 C1393 0.542 . S
C2200 C543 0.521 . S
C2217 C577 0.568 . S
C2236 C1359 0.620 . S
C2253 C1155 0.544 . S
C2272 C611 0.548 . S
C2289 C1189 0.544 . S
C2308 C645 0.494 . S
C2325 C1223 0.546 . S
C2344 C679 0.491 . S
C2361 C713 0.569 . S
C2380 C1121 0.576 . S
C2397 C747 0.567 . S
C2416 C1291 0.556 . S
C2433 C1325 0.570 . S
C2452 C781 0.595 . S
C2469 C815 0.551 . S
C2488 C1257 0.591 . S
C2505 C70 1.710 . S
C2524 C2 1.698 . S
C2541 C36 1.707 . S
C2560 C104 1.697 . S
C2577 C206 1.712 . S
C2596 C138 1.706 . S
C2613 C240 1.712 . S
C2632 C172 1.709 . S
C2649 C274 1.712 . S
C2668 C410 1.719 . S
C2685 C444 1.708 . S
C2704 C308 1.704 . S
C2721 C478 1.713 . S
C2740 C342 1.716 . S
C2757 C512 1.713 . S
C2776 C376 1.715 . S
C2793 C648 1.710 . S
C2812 C546 1.696 . S
C2829 C580 1.712 . S
C2848 C716 1.718 . S
C2865 C614 1.713 . S
C2884 C750 1.716 . S
C2901 C682 1.707 . S
C2920 C784 1.698 . S
C2937 C886 1.708 . S
C2956 C818 1.703 . S
C2973 C920 1.713 . S
C2992 C852 1.718 . S
C3009 C1022 1.708 . S
C3028 C954 1.704 . S
C3045 C1056 1.711 . S
C3064 C988 1.700 . S
C3081 C1090 1.708 . S
C3100 C1226 1.704 . S
C3117 C1124 1.713 . S
C3136 C1260 1.713 . S
C3153 C1294 1.713 . S
C3172 C1158 1.714 . S
C3189 C1328 1.713 . S
C3208 C1192 1.718 . S
C3225 C1362 1.708 . S
C3244 C1464 1.693 . S
C3261 C1532 1.707 . S
C3280 C1396 1.694 . S
C3297 C1566 1.712 . S
C3316 C1430 1.719 . S
C3333 C1600 1.709 . S
C3352 C1498 1.714 . S
C3369 C753 1.003 . S
C3388 C5 1.061 . S
C3405 C39 1.004 . S
C3424 C549 1.013 . S
C3441 C73 1.002 . S
C3460 C787 1.049 . S
C3477 C107 1.023 . S
C3496 C719 0.962 . S
C3513 C141 1.023 . S
C3532 C617 0.985 . S
C3549 C651 1.007 . S
C3568 C175 0.997 . S
C3585 C209 1.006 . S
C3604 C685 1.000 . S
C3621 C243 1.023 . S
C3640 C583 0.969 . S
C3657 C277 1.002 . S
C3676 C447 1.029 . S
C3693 C481 1.021 . S
C3712 C311 0.959 . S
C3729 C515 1.023 . S
C3748 C345 0.967 . S
C3765 C413 1.022 . S
C3784 C379 0.998 . S
C3801 C821 1.016 . S
C3820 C1569 0.964 . S
C3837 C1365 1.023 . S
C3856 C855 0.994 . S
C3873 C1603 1.004 . S
C3892 C889 1.063 . S
C3909 C923 1.022 . S
C3928 C1535 0.998 . S
C3945 C1433 1.005 . S
C3964 C957 1.063 . S
C3981 C1467 1.004 . S
C4000 C991 1.012 . S
C4017 C1501 1.023 . S
C4036 C1025 0.965 . S
C4053 C1059 1.007 . S
C4072 C1399 0.995 . S
C4089 C1093 1.002 . S
C4108 C1263 1.057 . S
C4125 C1127 1.002 . S
C4144 C1297 1.044 . S
C4161 C1331 1.023 . S
C4180 C1161 0.996 . S
C4197 C1229 1.020 . S
C4216 C1195 1.018 . S
C4233 C20 1.737 . S
C4252 C621 1.790 1_554 S
C4269 C655 1.785 1_554 S
C4288 C54 1.728 . S
C4305 C88 1.743 . S
C4324 C689 1.776 1_554 S
C4341 C587 1.784 1_554 S
C4360 C122 1.731 . S
C4377 C156 1.737 . S
C4396 C757 1.779 1_556 S
C4413 C553 1.784 1_556 S
C4432 C190 1.754 . S
C4449 C791 1.784 1_556 S
C4468 C224 1.739 . S
C4485 C258 1.735 . S
C4504 C723 1.787 1_556 S
C4521 C315 1.784 1_455 S
C4540 C292 1.732 . S
C4557 C326 1.744 . S
C4576 C349 1.776 1_545 S
C4593 C360 1.743 . S
C4612 C383 1.775 1_655 S
C4629 C281 1.785 1_565 S
C4648 C394 1.724 . S
C4665 C428 1.735 . S
C4684 C519 1.784 1_455 S
C4701 C462 1.741 . S
C4720 C417 1.787 1_545 S
C4737 C496 1.737 . S
C4756 C451 1.778 1_655 S
C4773 C485 1.787 1_565 S
C4792 C530 1.731 . S
C4809 C111 1.786 1_545 S
C4828 C564 1.754 . S
C4845 C598 1.735 . S
C4864 C179 1.787 1_565 S
C4881 C213 1.787 1_455 S
C4900 C632 1.747 . S
C4917 C247 1.785 1_545 S
C4936 C666 1.726 . S
C4953 C700 1.737 . S
C4972 C145 1.790 1_655 S
C4989 C43 1.785 1_565 S
C5008 C734 1.756 . S
C5025 C768 1.743 . S
C5044 C77 1.783 1_455 S
C5061 C9 1.787 1_655 S
C5080 C802 1.726 . S
C5097 C836 1.741 . S
C5116 C1437 1.787 . S
C5133 C1471 1.786 . S
C5152 C870 1.755 . S
C5169 C904 1.735 . S
C5188 C1505 1.788 . S
C5205 C1403 1.787 . S
C5224 C938 1.715 . S
C5241 C972 1.738 . S
C5260 C1573 1.776 . S
C5277 C1006 1.744 . S
C5296 C1369 1.779 . S
C5313 C1040 1.742 . S
C5332 C1607 1.786 . S
C5349 C1539 1.785 . S
C5368 C1074 1.725 . S
C5385 C1108 1.742 . S
C5404 C1131 1.784 . S
C5421 C1165 1.787 . S
C5440 C1142 1.747 . S
C5457 C1199 1.784 . S
C5476 C1176 1.739 . S
C5493 C1210 1.744 . S
C5512 C1097 1.778 . S
C5529 C1244 1.736 . S
C5548 C1335 1.781 . S
C5565 C1278 1.743 . S
C5584 C1233 1.781 . S
C5601 C1312 1.737 . S
C5620 C1267 1.779 . S
C5637 C1346 1.736 . S
C5656 C1301 1.789 . S
C5673 C1380 1.738 . S
C5692 C927 1.790 . S
C5709 C995 1.784 . S
C5728 C1414 1.753 . S
C5745 C1029 1.784 . S
C5764 C1448 1.733 . S
C5781 C1063 1.784 . S
C5800 C1482 1.756 . S
C5817 C961 1.787 . S
C5836 C1516 1.741 . S
C5853 C859 1.787 . S
C5872 C1550 1.723 . S
C5889 C893 1.784 . S
C5908 C1584 1.732 . S
C5925 C825 1.787 . S
C5944 C1618 1.737 . S
