# Generated by pormake.
# Topology pem, (4)-cn, num edge types: 1
# Building blocks:
#     Node 0, Type 0, BuildingBlock: TATPOV_clean_sbu_0, # of connection points: 4
#     Node 1, Type 0, BuildingBlock: TATPOV_clean_sbu_0, # of connection points: 4
#     Node 2, Type 0, BuildingBlock: TATPOV_clean_sbu_0, # of connection points: 4
#     Node 3, Type 0, BuildingBlock: TATPOV_clean_sbu_0, # of connection points: 4
#     Node 4, Type 0, BuildingBlock: TATPOV_clean_sbu_0, # of connection points: 4
#     Node 5, Type 0, BuildingBlock: TATPOV_clean_sbu_0, # of connection points: 4
#     Node 6, Type 0, BuildingBlock: TATPOV_clean_sbu_0, # of connection points: 4
#     Node 7, Type 0, BuildingBlock: TATPOV_clean_sbu_0, # of connection points: 4
#     Node 8, Type 0, BuildingBlock: TATPOV_clean_sbu_0, # of connection points: 4
#     Node 9, Type 0, BuildingBlock: TATPOV_clean_sbu_0, # of connection points: 4
#     Node 10, Type 0, BuildingBlock: TATPOV_clean_sbu_0, # of connection points: 4
#     Node 11, Type 0, BuildingBlock: TATPOV_clean_sbu_0, # of connection points: 4
#     Node 12, Type 0, BuildingBlock: TATPOV_clean_sbu_0, # of connection points: 4
#     Node 13, Type 0, BuildingBlock: TATPOV_clean_sbu_0, # of connection points: 4
#     Node 14, Type 0, BuildingBlock: TATPOV_clean_sbu_0, # of connection points: 4
#     Node 15, Type 0, BuildingBlock: TATPOV_clean_sbu_0, # of connection points: 4
#     Node 16, Type 0, BuildingBlock: TATPOV_clean_sbu_0, # of connection points: 4
#     Node 17, Type 0, BuildingBlock: TATPOV_clean_sbu_0, # of connection points: 4
#     Node 18, Type 0, BuildingBlock: TATPOV_clean_sbu_0, # of connection points: 4
#     Node 19, Type 0, BuildingBlock: TATPOV_clean_sbu_0, # of connection points: 4
#     Node 20, Type 0, BuildingBlock: TATPOV_clean_sbu_0, # of connection points: 4
#     Node 21, Type 0, BuildingBlock: TATPOV_clean_sbu_0, # of connection points: 4
#     Node 22, Type 0, BuildingBlock: TATPOV_clean_sbu_0, # of connection points: 4
#     Node 23, Type 0, BuildingBlock: TATPOV_clean_sbu_0, # of connection points: 4
#     Node 24, Type 0, BuildingBlock: TATPOV_clean_sbu_0, # of connection points: 4
#     Node 25, Type 0, BuildingBlock: TATPOV_clean_sbu_0, # of connection points: 4
#     Node 26, Type 0, BuildingBlock: TATPOV_clean_sbu_0, # of connection points: 4
#     Node 27, Type 0, BuildingBlock: TATPOV_clean_sbu_0, # of connection points: 4
#     Node 28, Type 0, BuildingBlock: TATPOV_clean_sbu_0, # of connection points: 4
#     Node 29, Type 0, BuildingBlock: TATPOV_clean_sbu_0, # of connection points: 4
#     Node 30, Type 0, BuildingBlock: TATPOV_clean_sbu_0, # of connection points: 4
#     Node 31, Type 0, BuildingBlock: TATPOV_clean_sbu_0, # of connection points: 4
#     Edge 32, Type (0, 0), None
#     Edge 33, Type (0, 0), None
#     Edge 34, Type (0, 0), None
#     Edge 35, Type (0, 0), None
#     Edge 36, Type (0, 0), None
#     Edge 37, Type (0, 0), None
#     Edge 38, Type (0, 0), None
#     Edge 39, Type (0, 0), None
#     Edge 40, Type (0, 0), None
#     Edge 41, Type (0, 0), None
#     Edge 42, Type (0, 0), None
#     Edge 43, Type (0, 0), None
#     Edge 44, Type (0, 0), None
#     Edge 45, Type (0, 0), None
#     Edge 46, Type (0, 0), None
#     Edge 47, Type (0, 0), None
#     Edge 48, Type (0, 0), None
#     Edge 49, Type (0, 0), None
#     Edge 50, Type (0, 0), None
#     Edge 51, Type (0, 0), None
#     Edge 52, Type (0, 0), None
#     Edge 53, Type (0, 0), None
#     Edge 54, Type (0, 0), None
#     Edge 55, Type (0, 0), None
#     Edge 56, Type (0, 0), None
#     Edge 57, Type (0, 0), None
#     Edge 58, Type (0, 0), None
#     Edge 59, Type (0, 0), None
#     Edge 60, Type (0, 0), None
#     Edge 61, Type (0, 0), None
#     Edge 62, Type (0, 0), None
#     Edge 63, Type (0, 0), None
#     Edge 64, Type (0, 0), None
#     Edge 65, Type (0, 0), None
#     Edge 66, Type (0, 0), None
#     Edge 67, Type (0, 0), None
#     Edge 68, Type (0, 0), None
#     Edge 69, Type (0, 0), None
#     Edge 70, Type (0, 0), None
#     Edge 71, Type (0, 0), None
#     Edge 72, Type (0, 0), None
#     Edge 73, Type (0, 0), None
#     Edge 74, Type (0, 0), None
#     Edge 75, Type (0, 0), None
#     Edge 76, Type (0, 0), None
#     Edge 77, Type (0, 0), None
#     Edge 78, Type (0, 0), None
#     Edge 79, Type (0, 0), None
#     Edge 80, Type (0, 0), None
#     Edge 81, Type (0, 0), None
#     Edge 82, Type (0, 0), None
#     Edge 83, Type (0, 0), None
#     Edge 84, Type (0, 0), None
#     Edge 85, Type (0, 0), None
#     Edge 86, Type (0, 0), None
#     Edge 87, Type (0, 0), None
#     Edge 88, Type (0, 0), None
#     Edge 89, Type (0, 0), None
#     Edge 90, Type (0, 0), None
#     Edge 91, Type (0, 0), None
#     Edge 92, Type (0, 0), None
#     Edge 93, Type (0, 0), None
#     Edge 94, Type (0, 0), None
#     Edge 95, Type (0, 0), None
# Relax obj value: 0.080
# Max RMSD: 0.085
# Mean RMSD: 0.076
data_MOF--net-pem--node1-TATPOV_clean_sbu_0--edge1-none
_symmetry_space_group_name_H-M    P1
_symmetry_Int_Tables_number       1
_symmetry_cell_setting            triclinic
loop_
_symmetry_equiv_pos_as_xyz
'x, y, z'
_cell_length_a     20.386309
_cell_length_b     20.33559
_cell_length_c     21.017396
_cell_angle_alpha  89.53051
_cell_angle_beta   89.934287
_cell_angle_gamma 91.71098
loop_
_atom_site_label
_atom_site_type_symbol
_atom_site_fract_x
_atom_site_fract_y
_atom_site_fract_z
_atom_type_partial_charge
Zn0 Zn 0.94923 0.01648 0.1362 0.0
Zn1 Zn 0.05811 0.06209 0.05438 0.0
O2 O -0.00645 0.14616 0.07178 0.0
O3 O 0.92616 0.11216 0.14857 0.0
O4 O 0.10889 0.064 -0.03209 0.0
O5 O 0.03557 0.97348 0.17072 0.0
O6 O 0.11795 0.03097 0.12472 0.0
C7 C 0.94553 0.15731 0.1103 0.0
C8 C 0.9661 0.96938 0.02168 0.0
O9 O 0.01893 0.97343 0.05038 0.0
O10 O 0.91617 -0.00951 0.04914 0.0
C11 C 0.12374 0.11084 0.9294 0.0
O12 O 0.10522 0.17062 0.94218 0.0
C13 C 0.09687 -0.01326 0.16419 0.0
Zn14 Zn 0.25941 0.8889 0.23115 0.0
Zn15 Zn 0.14818 0.82534 0.29903 0.0
O16 O 0.23038 0.83212 0.36041 0.0
O17 O 0.30601 0.89792 0.31595 0.0
O18 O 0.06698 0.76972 0.33699 0.0
O19 O 0.20368 0.95808 0.19446 0.0
O20 O 0.1201 0.90347 0.24037 0.0
C21 C 0.28552 0.8638 0.36291 0.0
C22 C 0.20759 0.75865 0.19433 0.0
O23 O 0.16705 0.76252 0.23854 0.0
O24 O 0.25184 0.80258 0.18397 0.0
C25 C 0.07314 0.7075 0.34371 0.0
O26 O 0.13191 0.68361 0.33732 0.0
C27 C 0.1427 0.9488 0.20266 0.0
Zn28 Zn 0.50388 0.03009 0.61376 0.0
Zn29 Zn 0.38409 0.94539 0.53293 0.0
O30 O 0.44226 0.87241 0.57357 0.0
O31 O 0.52367 0.93015 0.62045 0.0
O32 O 0.33437 0.91925 0.45073 0.0
O33 O 0.4109 0.05795 0.64204 0.0
O34 O 0.3308 -0.00266 0.59702 0.0
C35 C 0.49761 0.87543 0.6029 0.0
C36 C 0.49583 -0.01691 0.4886 0.0
O37 O 0.44277 0.01101 0.49806 0.0
O38 O 0.53639 -0.01494 0.53348 0.0
C39 C 0.32403 0.86478 0.42221 0.0
O40 O 0.34324 0.80964 0.44791 0.0
C41 C 0.35032 0.04248 0.63545 0.0
Zn42 Zn 0.18605 0.08157 0.75418 0.0
Zn43 Zn 0.28337 0.17306 0.78966 0.0
O44 O 0.20944 0.14628 0.85793 0.0
O45 O 0.16392 0.04746 0.84255 0.0
O46 O 0.3473 0.25087 0.81487 0.0
O47 O 0.24531 0.04884 0.68363 0.0
O48 O 0.32488 0.11366 0.72118 0.0
C49 C 0.16815 0.10023 0.87449 0.0
C50 C 0.17232 0.22363 0.74446 0.0
O51 O 0.23353 0.22948 0.73883 0.0
O52 O 0.14319 0.16817 0.74932 0.0
C53 C 0.38343 0.2785 0.85719 0.0
O54 O 0.3888 0.25184 0.91394 0.0
C55 C 0.30379 0.07154 0.68043 0.0
Zn56 Zn 0.93155 0.96094 0.30198 0.0
Zn57 Zn 0.05092 0.92163 0.33971 0.0
O58 O -0.02909 0.84914 0.31967 0.0
O59 O 0.8987 0.88345 0.24979 0.0
O60 O 0.1234 0.87948 0.40217 0.0
O61 O 0.96897 0.04836 0.26991 0.0
O62 O 0.06882 0.01483 0.29211 0.0
C63 C 0.91961 0.83775 0.28491 0.0
C64 C 0.96832 0.95401 0.43238 0.0
O65 O 0.02423 0.9615 0.40997 0.0
O66 O 0.91822 0.94858 0.39711 0.0
C67 C 0.15618 0.90355 0.44989 0.0
O68 O 0.15445 0.96685 0.46126 0.0
C69 C 0.03046 0.05912 0.27059 0.0
Zn70 Zn 0.37786 0.81762 0.68152 0.0
Zn71 Zn 0.30014 0.83878 0.60383 0.0
O72 O 0.30825 0.90729 0.68772 0.0
O73 O 0.40602 0.89915 0.73083 0.0
O74 O 0.23858 0.88421 0.53248 0.0
O75 O 0.42597 0.73924 0.65512 0.0
O76 O 0.36687 0.75726 0.57015 0.0
C77 C 0.35095 0.9266 0.72976 0.0
C78 C 0.25013 0.75556 0.69457 0.0
O79 O 0.23695 0.77937 0.64063 0.0
O80 O 0.30316 0.76949 0.72295 0.0
C81 C 0.19435 0.86021 0.49441 0.0
O82 O 0.18303 0.79632 0.49374 0.0
C83 C 0.41108 0.72324 0.59909 0.0
Zn84 Zn 0.3041 -0.00145 0.90694 0.0
Zn85 Zn 0.38671 0.09578 0.87156 0.0
O86 O 0.37605 0.01944 0.79958 0.0
O87 O 0.2838 0.96311 0.81641 0.0
O88 O 0.45712 0.16838 0.84118 0.0
O89 O 0.2533 0.05471 -0.02871 0.0
O90 O 0.31569 0.13738 0.93574 0.0
C91 C 0.33461 0.97389 0.78238 0.0
C92 C 0.4357 -0.00388 0.95339 0.0
O93 O 0.44036 0.05404 0.93264 0.0
O94 O 0.38487 0.96014 0.94473 0.0
C95 C 0.51852 0.16408 0.85334 0.0
O96 O 0.54 0.109 0.87723 0.0
C97 C 0.27074 0.11507 -0.02583 0.0
Zn98 Zn 0.09111 0.25675 0.24781 0.0
Zn99 Zn 0.12931 0.19287 0.12152 0.0
O100 O 0.08897 0.12659 0.1927 0.0
O101 O 0.039 0.17509 0.2725 0.0
O102 O 0.18497 0.1408 0.05155 0.0
O103 O 0.05729 0.31668 0.17842 0.0
O104 O 0.06233 0.26124 0.08757 0.0
C105 C 0.05595 0.12312 0.24489 0.0
C106 C 0.22143 0.23385 0.20945 0.0
O107 O 0.19861 0.25003 0.15628 0.0
O108 O 0.18566 0.23579 0.25822 0.0
C109 C 0.23584 0.16025 0.01888 0.0
O110 O 0.25779 0.22125 0.02459 0.0
C111 C 0.04341 0.3106 0.11983 0.0
Zn112 Zn 0.42145 0.46943 0.85208 0.0
Zn113 Zn 0.55071 0.43333 0.85823 0.0
O114 O 0.47292 0.35838 0.86434 0.0
O115 O 0.38169 0.38691 0.81661 0.0
O116 O 0.62928 0.38771 0.91058 0.0
O117 O 0.45368 0.54041 0.79313 0.0
O118 O 0.55318 0.50176 0.77954 0.0
C119 C 0.41496 0.34359 0.84386 0.0
C120 C 0.50567 0.48473 0.9611 0.0
O121 O 0.54701 0.5008 0.9199 0.0
O122 O 0.44957 0.46309 0.94518 0.0
C123 C 0.67391 0.41025 0.94919 0.0
O124 O 0.68623 0.47393 0.9514 0.0
C125 C 0.50852 0.5429 0.76483 0.0
Zn126 Zn 0.88097 0.32316 0.19576 0.0
Zn127 Zn 0.80955 0.34123 0.10948 0.0
O128 O 0.81114 0.41329 0.19056 0.0
O129 O 0.90586 0.40881 0.23997 0.0
O130 O 0.7572 0.38544 0.02989 0.0
O131 O 0.9371 0.24823 0.17779 0.0
O132 O 0.87619 0.25458 0.09152 0.0
C133 C 0.85089 0.43565 0.23386 0.0
C134 C 0.74493 0.26889 0.19731 0.0
O135 O 0.73898 0.288 0.14056 0.0
O136 O 0.79643 0.28125 0.22917 0.0
C137 C 0.70659 0.36585 -0.0029 0.0
O138 O 0.68149 0.30649 0.00722 0.0
C139 C 0.92124 0.22517 0.12414 0.0
Zn140 Zn 0.79645 0.50382 0.40364 0.0
Zn141 Zn 0.88203 0.60201 0.38056 0.0
O142 O 0.87204 0.52794 0.30544 0.0
O143 O 0.77583 0.47606 0.31174 0.0
O144 O 0.95671 0.67447 0.35694 0.0
O145 O 0.74433 0.55572 0.46977 0.0
O146 O 0.80807 0.64123 0.4435 0.0
C147 C 0.83042 0.48483 0.28323 0.0
C148 C 0.93054 0.4922 0.44475 0.0
O149 O 0.93392 0.5539 0.43949 0.0
O150 O 0.87881 0.45938 0.43147 0.0
C151 C 0.01735 0.65944 0.35604 0.0
O152 O 0.03183 0.59741 0.36347 0.0
C153 C 0.76041 0.61597 0.47704 0.0
Zn154 Zn 0.66223 0.54762 0.20602 0.0
Zn155 Zn 0.78378 0.66163 0.2514 0.0
O156 O 0.73087 0.6333 0.33745 0.0
O157 O 0.64961 0.56559 0.30447 0.0
O158 O 0.84503 0.74887 0.2516 0.0
O159 O 0.74973 0.53927 0.1541 0.0
O160 O 0.83168 0.59673 0.20002 0.0
C161 C 0.67777 0.59844 0.34873 0.0
C162 C 0.66687 0.68258 0.22647 0.0
O163 O 0.71384 0.67176 0.18983 0.0
O164 O 0.62802 0.63514 0.24019 0.0
C165 C 0.87636 0.778 0.29667 0.0
O166 O 0.86499 0.75913 0.3556 0.0
C167 C 0.80991 0.55785 0.15693 0.0
Zn168 Zn 0.74003 0.38273 0.71807 0.0
Zn169 Zn 0.63103 0.32994 0.77983 0.0
O170 O 0.71766 0.33265 0.83943 0.0
O171 O 0.79065 0.40402 0.79974 0.0
O172 O 0.55447 0.27549 0.82222 0.0
O173 O 0.68673 0.44757 0.667 0.0
O174 O 0.60108 0.40508 0.71929 0.0
C175 C 0.77269 0.36499 0.84413 0.0
C176 C 0.68862 0.24685 0.69306 0.0
O177 O 0.63701 0.26219 0.71988 0.0
O178 O 0.73808 0.28627 0.69057 0.0
C179 C 0.56843 0.21647 0.83723 0.0
O180 O 0.63037 0.20039 0.83686 0.0
C181 C 0.62545 0.44453 0.67685 0.0
Zn182 Zn 0.83637 -0.01475 0.96279 0.0
Zn183 Zn 0.92486 0.86886 0.89147 0.0
O184 O 0.86812 0.82584 -0.03099 0.0
O185 O 0.81365 0.90386 0.01865 0.0
O186 O -0.02224 0.79131 0.8447 0.0
O187 O 0.79156 -0.00369 0.87971 0.0
O188 O 0.86924 0.9391 0.83144 0.0
C189 C 0.82963 0.84412 0.01391 0.0
C190 C -0.02929 0.96796 0.95409 0.0
O191 O -0.00128 0.9194 0.931 0.0
O192 O 0.92527 -0.0079 0.92286 0.0
C193 C 0.02312 0.75331 0.86573 0.0
O194 O 0.0456 0.76155 0.9237 0.0
C195 C 0.82191 -0.01947 0.82949 0.0
Zn196 Zn 0.67674 0.03996 0.69161 0.0
Zn197 Zn 0.80208 0.09093 0.64324 0.0
O198 O 0.8294 0.04356 0.7306 0.0
O199 O 0.73369 -0.00158 0.76031 0.0
O200 O 0.86976 0.16288 0.60102 0.0
O201 O 0.65307 -0.00599 0.61022 0.0
O202 O 0.74814 0.03224 0.57447 0.0
C203 C 0.79509 0.00642 0.76868 0.0
C204 C 0.69597 0.17864 0.68029 0.0
O205 O 0.75159 0.16255 0.66321 0.0
O206 O 0.65263 0.13588 0.69667 0.0
C207 C 0.88953 0.22304 0.60834 0.0
O208 O 0.86999 0.25581 0.65807 0.0
C209 C 0.69356 0.00117 0.56503 0.0
Zn210 Zn 0.60459 0.86598 0.43258 0.0
Zn211 Zn 0.58166 0.00821 0.38056 0.0
O212 O 0.64068 0.01756 0.46439 0.0
O213 O 0.66984 0.91652 0.49164 0.0
O214 O 0.51787 0.08283 0.35551 0.0
O215 O 0.60924 0.86778 0.33403 0.0
O216 O 0.62612 0.97073 0.30175 0.0
C217 C 0.67259 -0.02166 0.50077 0.0
C218 C 0.49634 0.92629 0.4464 0.0
O219 O 0.51787 0.93699 0.39155 0.0
O220 O 0.51149 0.87155 0.46995 0.0
C221 C 0.4777 0.12103 0.38284 0.0
O222 O 0.47836 0.12768 0.44485 0.0
C223 C 0.61978 0.90948 0.28959 0.0
Zn224 Zn 0.54682 0.77172 0.27986 0.0
Zn225 Zn 0.66784 0.80104 0.15602 0.0
O226 O 0.58617 0.72403 0.13825 0.0
O227 O 0.51145 0.70548 0.21671 0.0
O228 O 0.74589 0.81376 0.09002 0.0
O229 O 0.5669 0.83972 0.21508 0.0
O230 O 0.64897 0.89589 0.18036 0.0
C231 C 0.53447 0.69241 0.16196 0.0
C232 C 0.67616 0.73628 0.27041 0.0
O233 O 0.70147 0.78738 0.2455 0.0
O234 O 0.63545 0.74261 0.31548 0.0
C235 C 0.79523 0.79542 0.05712 0.0
O236 O 0.81321 0.734 0.05959 0.0
C237 C 0.6072 0.88673 0.22402 0.0
Zn238 Zn 0.0245 -0.00145 0.61945 0.0
Zn239 Zn 0.8913 0.04664 0.57979 0.0
O240 O 0.86922 0.96572 0.64612 0.0
O241 O 0.96993 0.94375 0.68033 0.0
O242 O 0.82359 0.10086 0.51463 0.0
O243 O 0.07221 0.08498 0.63769 0.0
O244 O -0.02678 0.10984 0.60705 0.0
C245 C 0.90843 0.93197 0.68129 0.0
C246 C 0.96334 0.96864 0.49688 0.0
O247 O 0.91152 -0.00597 0.51335 0.0
O248 O 0.01507 0.97092 0.5302 0.0
C249 C 0.79381 0.08572 0.46223 0.0
O250 O 0.80193 0.02743 0.43756 0.0
C251 C 0.03107 0.12816 0.62462 0.0
Zn252 Zn 0.55951 0.18711 0.23741 0.0
Zn253 Zn 0.63776 0.15451 0.3252 0.0
O254 O 0.57302 0.22721 0.36603 0.0
O255 O 0.51533 0.25912 0.2831 0.0
O256 O 0.70418 0.10899 0.38993 0.0
O257 O 0.52269 0.10092 0.201 0.0
O258 O 0.6167 0.08417 0.24849 0.0
C259 C 0.53152 0.26654 0.3407 0.0
C260 C 0.69237 0.23292 0.22641 0.0
O261 O 0.69913 0.21326 0.28304 0.0
O262 O 0.64037 0.22185 0.19516 0.0
C263 C 0.74588 0.13085 0.43138 0.0
O264 O 0.74843 0.19385 0.44461 0.0
C265 C 0.57252 0.06593 0.20779 0.0
Zn266 Zn 0.62146 -0.02108 0.04169 0.0
Zn267 Zn 0.54345 0.88528 0.07478 0.0
O268 O 0.62058 0.84694 0.01559 0.0
O269 O 0.68423 0.93104 -0.01458 0.0
O270 O 0.4778 0.80939 0.10499 0.0
O271 O 0.63984 0.02426 0.12573 0.0
O272 O 0.54585 0.97017 0.1413 0.0
C273 C 0.66855 0.87056 -0.0185 0.0
C274 C 0.48946 0.97215 -0.01141 0.0
O275 O 0.48439 0.91549 0.01222 0.0
O276 O 0.53989 0.00885 -0.00273 0.0
C277 C 0.44744 0.76837 0.06806 0.0
O278 O 0.46192 0.76807 0.00719 0.0
C279 C 0.58721 0.01656 0.15744 0.0
Zn280 Zn 0.87037 0.75204 0.74997 0.0
Zn281 Zn 0.80856 0.80108 0.83334 0.0
O282 O 0.86736 0.72918 0.87974 0.0
O283 O 0.89189 0.67182 0.7954 0.0
O284 O 0.75162 0.85233 0.9007 0.0
O285 O 0.92948 0.82636 0.72282 0.0
O286 O 0.83443 0.86512 0.74979 0.0
C287 C 0.88947 0.67667 0.85502 0.0
C288 C 0.7396 0.73303 0.74245 0.0
O289 O 0.74208 0.74422 0.80107 0.0
O290 O 0.78774 0.74403 0.70588 0.0
C291 C 0.70455 0.82841 0.93571 0.0
O292 O 0.68812 0.76569 0.93149 0.0
C293 C 0.88813 0.87135 0.71789 0.0
Zn294 Zn 0.56448 0.47962 0.13819 0.0
Zn295 Zn 0.40739 0.52631 0.08547 0.0
O296 O 0.38386 0.44316 0.14583 0.0
O297 O 0.48647 0.4169 0.17411 0.0
O298 O 0.35589 0.55069 -0.00591 0.0
O299 O 0.55746 0.58225 0.14245 0.0
O300 O 0.4531 0.60992 0.12872 0.0
C301 C 0.42423 0.40572 0.17596 0.0
C302 C 0.52601 0.47996 0.02531 0.0
O303 O 0.48686 0.49389 0.06759 0.0
O304 O 0.58236 0.46234 0.0423 0.0
C305 C 0.32426 0.52678 0.94512 0.0
O306 O 0.31256 0.46303 0.94221 0.0
C307 C 0.51414 0.626 0.13819 0.0
Zn308 Zn 0.08449 0.6325 0.72661 0.0
Zn309 Zn 0.17362 0.59891 0.79494 0.0
O310 O 0.10212 0.6672 0.84046 0.0
O311 O 0.02263 0.68772 0.77228 0.0
O312 O 0.24292 0.55075 0.86097 0.0
O313 O 0.06504 0.56636 0.65993 0.0
O314 O 0.1601 0.54167 0.70338 0.0
C315 C 0.05021 0.69957 0.82496 0.0
C316 C 0.208 0.70605 0.72061 0.0
O317 O 0.22939 0.66895 0.76384 0.0
O318 O 0.15204 0.69701 0.69623 0.0
C319 C 0.29094 0.57157 0.89702 0.0
O320 O 0.30624 0.63473 0.89727 0.0
C321 C 0.11748 0.53465 0.65766 0.0
Zn322 Zn 0.13139 0.45749 0.48011 0.0
Zn323 Zn 0.04842 0.3621 0.52984 0.0
O324 O 0.11573 0.30483 0.47677 0.0
O325 O 0.16555 0.3838 0.42072 0.0
O326 O -0.02414 0.30296 0.5795 0.0
O327 O 0.17166 0.50126 0.56193 0.0
O328 O 0.08185 0.44614 0.58842 0.0
C329 C 0.15609 0.32288 0.4324 0.0
C330 C -0.01094 0.45959 0.46138 0.0
O331 O -0.01285 0.39837 0.47048 0.0
O332 O 0.04204 0.49319 0.46543 0.0
C333 C 0.93726 0.25513 0.56224 0.0
O334 O 0.94244 0.23156 0.50455 0.0
C335 C 0.12628 0.48993 0.60202 0.0
Zn336 Zn -0.02365 0.30289 0.74008 0.0
Zn337 Zn 0.12152 0.32886 0.63337 0.0
O338 O 0.09373 0.23054 0.6147 0.0
O339 O 0.0083 0.22395 0.68173 0.0
O340 O 0.18904 0.37399 0.56488 0.0
O341 O 0.9581 0.40187 0.71939 0.0
O342 O 0.03884 0.37094 0.66426 0.0
C343 C 0.04555 0.19778 0.64053 0.0
C344 C 0.13496 0.28097 0.74303 0.0
O345 O 0.1612 0.33007 0.71466 0.0
O346 O 0.07293 0.27213 0.74827 0.0
C347 C 0.24488 0.35912 0.54081 0.0
O348 O 0.27102 0.30332 0.55741 0.0
C349 C 0.01726 0.41198 0.70403 0.0
Zn350 Zn 0.18005 0.56223 0.143 0.0
Zn351 Zn 0.28868 0.61594 0.09311 0.0
O352 O 0.30532 0.56188 0.18129 0.0
O353 O 0.22291 0.48979 0.19296 0.0
O354 O 0.37057 0.67437 0.06064 0.0
O355 O 0.13491 0.55353 0.05919 0.0
O356 O 0.2325 0.57337 0.01908 0.0
C357 C 0.27784 0.51287 0.21171 0.0
C358 C 0.20744 0.69806 0.16159 0.0
O359 O 0.24326 0.69368 0.11362 0.0
O360 O 0.17899 0.64815 0.18647 0.0
C361 C 0.39378 0.72354 0.09289 0.0
O362 O 0.37116 0.73331 0.15042 0.0
C363 C 0.1722 0.55678 0.01137 0.0
Zn364 Zn 0.43134 0.50792 0.60774 0.0
Zn365 Zn 0.54845 0.56515 0.521 0.0
O366 O 0.48811 0.65057 0.54422 0.0
O367 O 0.41102 0.60769 0.60839 0.0
O368 O 0.60516 0.56627 0.43585 0.0
O369 O 0.51919 0.47092 0.64314 0.0
O370 O 0.60289 0.52407 0.59423 0.0
C371 C 0.43528 0.65714 0.57791 0.0
C372 C 0.43832 0.48197 0.49036 0.0
O373 O 0.49393 0.48576 0.51517 0.0
O374 O 0.39205 0.46627 0.52774 0.0
C375 C 0.6361 0.61241 0.40546 0.0
O376 O 0.62921 0.67351 0.42326 0.0
C377 C 0.58072 0.48198 0.63569 0.0
Zn378 Zn 0.01158 0.5223 0.0986 0.0
Zn379 Zn 0.89318 0.42901 0.01459 0.0
O380 O 0.95379 0.35644 0.05845 0.0
O381 O 0.02797 0.42205 0.1077 0.0
O382 O 0.84109 0.40843 0.92855 0.0
O383 O 0.91724 0.5458 0.12143 0.0
O384 O 0.83968 0.47984 0.07861 0.0
C385 C 0.00607 0.36477 0.09258 0.0
C386 C 0.00436 0.46499 -0.01794 0.0
O387 O 0.95389 0.49796 -0.01113 0.0
O388 O 0.04606 0.46712 0.02584 0.0
C389 C 0.81489 0.35764 0.90179 0.0
O390 O 0.81819 0.29992 0.92989 0.0
C391 C 0.85748 0.5275 0.1148 0.0
Zn392 Zn 0.54954 0.71763 0.70704 0.0
Zn393 Zn 0.60209 0.68136 0.61354 0.0
O394 O 0.5675 0.60612 0.68205 0.0
O395 O 0.48335 0.64922 0.72992 0.0
O396 O 0.66408 0.63801 0.54286 0.0
O397 O 0.53376 0.80905 0.6843 0.0
O398 O 0.5467 0.76834 0.58803 0.0
C399 C 0.51977 0.60068 0.72194 0.0
C400 C 0.67896 0.71649 0.71619 0.0
O401 O 0.67286 0.72154 0.657 0.0
O402 O 0.63084 0.70461 0.75232 0.0
C403 C 0.72167 0.65694 0.52248 0.0
O404 O 0.74684 0.71371 0.54117 0.0
C405 C 0.52981 0.81571 0.62485 0.0
Zn406 Zn 0.30308 0.53386 0.41947 0.0
Zn407 Zn 0.37526 0.4138 0.37319 0.0
O408 O 0.32106 0.37676 0.45285 0.0
O409 O 0.26053 0.46031 0.48052 0.0
O410 O 0.44916 0.34744 0.3501 0.0
O411 O 0.29118 0.53866 0.3205 0.0
O412 O 0.32035 0.4389 0.29189 0.0
C413 C 0.27752 0.40103 0.48931 0.0
C414 C 0.42487 0.52776 0.43978 0.0
O415 O 0.41474 0.503 0.38592 0.0
O416 O 0.38915 0.57505 0.45439 0.0
C417 C 0.49476 0.31566 0.37791 0.0
O418 O 0.50472 0.32244 0.43923 0.0
C419 C 0.29917 0.49591 0.27747 0.0
Zn420 Zn 0.11457 0.39847 0.88737 0.0
Zn421 Zn 0.02316 0.51582 0.86333 0.0
O422 O 0.0946 0.55068 0.92705 0.0
O423 O 0.16661 0.47155 0.93617 0.0
O424 O 0.95065 0.58168 0.85799 0.0
O425 O 0.08293 0.3992 0.79346 0.0
O426 O 0.04731 0.4984 0.77325 0.0
C427 C 0.147 0.52821 0.95128 0.0
C428 C 0.00173 0.4094 0.93948 0.0
O429 O -0.01032 0.42519 0.88312 0.0
O430 O 0.04253 0.3645 0.94812 0.0
C431 C 0.92473 0.6265 0.89108 0.0
O432 O 0.94319 0.63674 0.95008 0.0
C433 C 0.05903 0.44028 0.75482 0.0
Zn434 Zn 0.40105 0.1925 0.19786 0.0
Zn435 Zn 0.32939 0.25758 0.31498 0.0
O436 O 0.39857 0.20626 0.36647 0.0
O437 O 0.43302 0.14868 0.28328 0.0
O438 O 0.24989 0.29599 0.36815 0.0
O439 O 0.42781 0.28932 0.17762 0.0
O440 O 0.36618 0.33352 0.2519 0.0
C441 C 0.43205 0.15938 0.34306 0.0
C442 C 0.27643 0.19118 0.21183 0.0
O443 O 0.30401 0.18214 0.26418 0.0
O444 O 0.30763 0.17752 0.16207 0.0
C445 C 0.1997 0.27498 0.40047 0.0
O446 O 0.18898 0.21146 0.40834 0.0
C447 C 0.40281 0.33976 0.20231 0.0
loop_
_geom_bond_atom_site_label_1
_geom_bond_atom_site_label_2
_geom_bond_distance
_geom_bond_site_symmetry_2
_ccdc_geom_bond_type
Zn0 O3 2.031 . S
Zn0 O5 2.049 1_645 S
Zn0 O10 2.067 1_545 S
Zn1 O2 1.962 . S
Zn1 O4 1.986 . S
Zn1 O6 1.996 . S
Zn1 O9 1.943 . S
O2 Zn1 1.962 . S
O2 C7 1.254 1_455 S
O3 Zn0 2.031 . S
O3 C7 1.269 . S
O4 Zn1 1.986 . S
O4 C11 1.262 . S
O5 Zn0 2.049 1_465 S
O5 C13 1.260 1_565 S
O6 Zn1 1.996 . S
O6 C13 1.257 . S
C7 O2 1.254 1_655 S
C7 O3 1.269 . S
C8 O9 1.249 1_655 S
C8 O10 1.270 1_545 S
O9 Zn1 1.943 . S
O9 C8 1.249 1_455 S
O10 Zn0 2.067 1_565 S
O10 C8 1.270 1_565 S
C11 O4 1.262 . S
C11 O12 1.232 1_554 S
O12 C11 1.232 1_556 S
C13 O5 1.260 1_545 S
C13 O6 1.257 . S
Zn14 O17 2.031 . S
Zn14 O19 2.049 . S
Zn14 O24 2.067 . S
Zn15 O16 1.962 . S
Zn15 O18 1.986 . S
Zn15 O20 1.996 . S
Zn15 O23 1.943 . S
O16 Zn15 1.962 . S
O16 C21 1.254 . S
O17 Zn14 2.031 . S
O17 C21 1.269 . S
O18 Zn15 1.986 . S
O18 C25 1.262 . S
O19 Zn14 2.049 . S
O19 C27 1.260 . S
O20 Zn15 1.996 . S
O20 C27 1.257 . S
C21 O16 1.254 . S
C21 O17 1.269 . S
C22 O23 1.249 . S
C22 O24 1.270 . S
O23 Zn15 1.943 . S
O23 C22 1.249 . S
O24 Zn14 2.067 . S
O24 C22 1.270 . S
C25 O18 1.262 . S
C25 O26 1.232 . S
O26 C25 1.232 . S
C27 O19 1.260 . S
C27 O20 1.257 . S
Zn28 O31 2.031 . S
Zn28 O33 2.049 1_565 S
Zn28 O38 2.067 1_565 S
Zn29 O30 1.962 . S
Zn29 O32 1.986 . S
Zn29 O34 1.996 . S
Zn29 O37 1.943 . S
O30 Zn29 1.962 . S
O30 C35 1.254 . S
O31 Zn28 2.031 . S
O31 C35 1.269 . S
O32 Zn29 1.986 . S
O32 C39 1.262 . S
O33 Zn28 2.049 1_545 S
O33 C41 1.260 1_545 S
O34 Zn29 1.996 . S
O34 C41 1.257 . S
C35 O30 1.254 . S
C35 O31 1.269 . S
C36 O37 1.249 . S
C36 O38 1.270 1_565 S
O37 Zn29 1.943 . S
O37 C36 1.249 . S
O38 Zn28 2.067 1_545 S
O38 C36 1.270 1_545 S
C39 O32 1.262 . S
C39 O40 1.232 . S
O40 C39 1.232 . S
C41 O33 1.260 1_565 S
C41 O34 1.257 . S
Zn42 O45 2.031 . S
Zn42 O47 2.049 . S
Zn42 O52 2.067 . S
Zn43 O44 1.962 . S
Zn43 O46 1.986 . S
Zn43 O48 1.996 . S
Zn43 O51 1.943 . S
O44 Zn43 1.962 . S
O44 C49 1.254 . S
O45 Zn42 2.031 . S
O45 C49 1.269 . S
O46 Zn43 1.986 . S
O46 C53 1.262 . S
O47 Zn42 2.049 . S
O47 C55 1.260 . S
O48 Zn43 1.996 . S
O48 C55 1.257 . S
C49 O44 1.254 . S
C49 O45 1.269 . S
C50 O51 1.249 . S
C50 O52 1.270 . S
O51 Zn43 1.943 . S
O51 C50 1.249 . S
O52 Zn42 2.067 . S
O52 C50 1.270 . S
C53 O46 1.262 . S
C53 O54 1.232 . S
O54 C53 1.232 . S
C55 O47 1.260 . S
C55 O48 1.257 . S
Zn56 O59 2.031 . S
Zn56 O61 2.049 1_665 S
Zn56 O66 2.067 1_565 S
Zn57 O58 1.962 . S
Zn57 O60 1.986 . S
Zn57 O62 1.996 . S
Zn57 O65 1.943 . S
O58 Zn57 1.962 . S
O58 C63 1.254 . S
O59 Zn56 2.031 . S
O59 C63 1.269 1_655 S
O60 Zn57 1.986 . S
O60 C67 1.262 . S
O61 Zn56 2.049 1_445 S
O61 C69 1.260 1_545 S
O62 Zn57 1.996 . S
O62 C69 1.257 . S
C63 O58 1.254 . S
C63 O59 1.269 1_455 S
C64 O65 1.249 . S
C64 O66 1.270 1_465 S
O65 Zn57 1.943 . S
O65 C64 1.249 . S
O66 Zn56 2.067 1_545 S
O66 C64 1.270 1_645 S
C67 O60 1.262 . S
C67 O68 1.232 . S
O68 C67 1.232 . S
C69 O61 1.260 1_565 S
C69 O62 1.257 . S
Zn70 O73 2.031 . S
Zn70 O75 2.049 . S
Zn70 O80 2.067 . S
Zn71 O72 1.962 . S
Zn71 O74 1.986 . S
Zn71 O76 1.996 . S
Zn71 O79 1.943 . S
O72 Zn71 1.962 . S
O72 C77 1.254 . S
O73 Zn70 2.031 . S
O73 C77 1.269 . S
O74 Zn71 1.986 . S
O74 C81 1.262 . S
O75 Zn70 2.049 . S
O75 C83 1.260 . S
O76 Zn71 1.996 . S
O76 C83 1.257 . S
C77 O72 1.254 . S
C77 O73 1.269 . S
C78 O79 1.249 . S
C78 O80 1.270 . S
O79 Zn71 1.943 . S
O79 C78 1.249 . S
O80 Zn70 2.067 . S
O80 C78 1.270 . S
C81 O74 1.262 . S
C81 O82 1.232 . S
O82 C81 1.232 . S
C83 O75 1.260 . S
C83 O76 1.257 . S
Zn84 O87 2.031 . S
Zn84 O89 2.049 1_566 S
Zn84 O94 2.067 . S
Zn85 O86 1.962 . S
Zn85 O88 1.986 . S
Zn85 O90 1.996 . S
Zn85 O93 1.943 . S
O86 Zn85 1.962 . S
O86 C91 1.254 1_545 S
O87 Zn84 2.031 . S
O87 C91 1.269 . S
O88 Zn85 1.986 . S
O88 C95 1.262 . S
O89 Zn84 2.049 1_544 S
O89 C97 1.260 1_554 S
O90 Zn85 1.996 . S
O90 C97 1.257 . S
C91 O86 1.254 1_565 S
C91 O87 1.269 . S
C92 O93 1.255 . S
C92 O94 1.268 1_545 S
O93 Zn85 1.943 . S
O93 C92 1.255 . S
O94 Zn84 2.067 . S
O94 C92 1.268 1_565 S
C95 O88 1.262 . S
C95 O96 1.232 . S
O96 C95 1.232 . S
C97 O89 1.260 1_556 S
C97 O90 1.257 . S
Zn98 O101 2.031 . S
Zn98 O103 2.049 . S
Zn98 O108 2.067 . S
Zn99 O100 1.962 . S
Zn99 O102 1.986 . S
Zn99 O104 1.996 . S
Zn99 O107 1.943 . S
O100 Zn99 1.962 . S
O100 C105 1.254 . S
O101 Zn98 2.031 . S
O101 C105 1.269 . S
O102 Zn99 1.986 . S
O102 C109 1.262 . S
O103 Zn98 2.049 . S
O103 C111 1.260 . S
O104 Zn99 1.996 . S
O104 C111 1.257 . S
C105 O100 1.254 . S
C105 O101 1.269 . S
C106 O107 1.249 . S
C106 O108 1.270 . S
O107 Zn99 1.943 . S
O107 C106 1.249 . S
O108 Zn98 2.067 . S
O108 C106 1.270 . S
C109 O102 1.262 . S
C109 O110 1.232 . S
O110 C109 1.232 . S
C111 O103 1.260 . S
C111 O104 1.257 . S
Zn112 O115 2.031 . S
Zn112 O117 2.049 . S
Zn112 O122 2.067 . S
Zn113 O114 1.962 . S
Zn113 O116 1.986 . S
Zn113 O118 1.996 . S
Zn113 O121 1.943 . S
O114 Zn113 1.962 . S
O114 C119 1.254 . S
O115 Zn112 2.031 . S
O115 C119 1.269 . S
O116 Zn113 1.986 . S
O116 C123 1.262 . S
O117 Zn112 2.049 . S
O117 C125 1.260 . S
O118 Zn113 1.996 . S
O118 C125 1.257 . S
C119 O114 1.254 . S
C119 O115 1.269 . S
C120 O121 1.249 . S
C120 O122 1.270 . S
O121 Zn113 1.943 . S
O121 C120 1.249 . S
O122 Zn112 2.067 . S
O122 C120 1.270 . S
C123 O116 1.262 . S
C123 O124 1.232 1_556 S
O124 C123 1.232 1_554 S
C125 O117 1.260 . S
C125 O118 1.257 . S
Zn126 O129 2.031 . S
Zn126 O131 2.049 . S
Zn126 O136 2.067 . S
Zn127 O128 1.962 . S
Zn127 O130 1.986 . S
Zn127 O132 1.996 . S
Zn127 O135 1.943 . S
O128 Zn127 1.962 . S
O128 C133 1.254 . S
O129 Zn126 2.031 . S
O129 C133 1.269 . S
O130 Zn127 1.986 . S
O130 C137 1.262 . S
O131 Zn126 2.049 . S
O131 C139 1.260 . S
O132 Zn127 1.996 . S
O132 C139 1.257 . S
C133 O128 1.254 . S
C133 O129 1.269 . S
C134 O135 1.249 . S
C134 O136 1.270 . S
O135 Zn127 1.943 . S
O135 C134 1.249 . S
O136 Zn126 2.067 . S
O136 C134 1.270 . S
C137 O130 1.262 . S
C137 O138 1.232 . S
O138 C137 1.232 . S
C139 O131 1.260 . S
C139 O132 1.257 . S
Zn140 O143 2.031 . S
Zn140 O145 2.049 . S
Zn140 O150 2.067 . S
Zn141 O142 1.962 . S
Zn141 O144 1.986 . S
Zn141 O146 1.996 . S
Zn141 O149 1.943 . S
O142 Zn141 1.962 . S
O142 C147 1.254 . S
O143 Zn140 2.031 . S
O143 C147 1.269 . S
O144 Zn141 1.986 . S
O144 C151 1.262 . S
O145 Zn140 2.049 . S
O145 C153 1.260 . S
O146 Zn141 1.996 . S
O146 C153 1.257 . S
C147 O142 1.254 . S
C147 O143 1.269 . S
C148 O149 1.249 . S
C148 O150 1.270 . S
O149 Zn141 1.943 . S
O149 C148 1.249 . S
O150 Zn140 2.067 . S
O150 C148 1.270 . S
C151 O144 1.262 . S
C151 O152 1.232 1_655 S
O152 C151 1.232 1_455 S
C153 O145 1.260 . S
C153 O146 1.257 . S
Zn154 O157 2.031 . S
Zn154 O159 2.049 . S
Zn154 O164 2.067 . S
Zn155 O156 1.962 . S
Zn155 O158 1.986 . S
Zn155 O160 1.996 . S
Zn155 O163 1.943 . S
O156 Zn155 1.962 . S
O156 C161 1.254 . S
O157 Zn154 2.031 . S
O157 C161 1.269 . S
O158 Zn155 1.986 . S
O158 C165 1.262 . S
O159 Zn154 2.049 . S
O159 C167 1.260 . S
O160 Zn155 1.996 . S
O160 C167 1.257 . S
C161 O156 1.254 . S
C161 O157 1.269 . S
C162 O163 1.249 . S
C162 O164 1.270 . S
O163 Zn155 1.943 . S
O163 C162 1.249 . S
O164 Zn154 2.067 . S
O164 C162 1.270 . S
C165 O158 1.262 . S
C165 O166 1.232 . S
O166 C165 1.232 . S
C167 O159 1.260 . S
C167 O160 1.257 . S
Zn168 O171 2.031 . S
Zn168 O173 2.049 . S
Zn168 O178 2.067 . S
Zn169 O170 1.962 . S
Zn169 O172 1.986 . S
Zn169 O174 1.996 . S
Zn169 O177 1.943 . S
O170 Zn169 1.962 . S
O170 C175 1.254 . S
O171 Zn168 2.031 . S
O171 C175 1.269 . S
O172 Zn169 1.986 . S
O172 C179 1.262 . S
O173 Zn168 2.049 . S
O173 C181 1.260 . S
O174 Zn169 1.996 . S
O174 C181 1.257 . S
C175 O170 1.254 . S
C175 O171 1.269 . S
C176 O177 1.249 . S
C176 O178 1.270 . S
O177 Zn169 1.943 . S
O177 C176 1.249 . S
O178 Zn168 2.067 . S
O178 C176 1.270 . S
C179 O172 1.262 . S
C179 O180 1.232 . S
O180 C179 1.232 . S
C181 O173 1.260 . S
C181 O174 1.257 . S
Zn182 O185 2.031 1_546 S
Zn182 O187 2.049 . S
Zn182 O192 2.067 . S
Zn183 O184 1.962 . S
Zn183 O186 1.986 . S
Zn183 O188 1.996 . S
Zn183 O191 1.943 . S
O184 Zn183 1.962 . S
O184 C189 1.254 . S
O185 Zn182 2.031 1_564 S
O185 C189 1.269 1_554 S
O186 Zn183 1.986 . S
O186 C193 1.262 . S
O187 Zn182 2.049 . S
O187 C195 1.260 . S
O188 Zn183 1.996 . S
O188 C195 1.257 1_565 S
C189 O184 1.254 . S
C189 O185 1.269 1_556 S
C190 O191 1.249 1_545 S
C190 O192 1.270 . S
O191 Zn183 1.943 . S
O191 C190 1.249 1_565 S
O192 Zn182 2.067 . S
O192 C190 1.270 . S
C193 O186 1.262 . S
C193 O194 1.232 . S
O194 C193 1.232 . S
C195 O187 1.260 . S
C195 O188 1.257 1_545 S
Zn196 O199 2.031 . S
Zn196 O201 2.049 . S
Zn196 O206 2.067 . S
Zn197 O198 1.962 . S
Zn197 O200 1.986 . S
Zn197 O202 1.996 . S
Zn197 O205 1.943 . S
O198 Zn197 1.962 . S
O198 C203 1.254 . S
O199 Zn196 2.031 . S
O199 C203 1.269 . S
O200 Zn197 1.986 . S
O200 C207 1.262 . S
O201 Zn196 2.049 . S
O201 C209 1.260 . S
O202 Zn197 1.996 . S
O202 C209 1.257 . S
C203 O198 1.254 . S
C203 O199 1.269 . S
C204 O205 1.249 . S
C204 O206 1.270 . S
O205 Zn197 1.943 . S
O205 C204 1.249 . S
O206 Zn196 2.067 . S
O206 C204 1.270 . S
C207 O200 1.262 . S
C207 O208 1.232 . S
O208 C207 1.232 . S
C209 O201 1.260 . S
C209 O202 1.257 . S
Zn210 O213 2.031 1_565 S
Zn210 O215 2.049 . S
Zn210 O220 2.067 . S
Zn211 O212 1.962 . S
Zn211 O214 1.986 . S
Zn211 O216 1.996 . S
Zn211 O219 1.943 . S
O212 Zn211 1.962 . S
O212 C217 1.254 . S
O213 Zn210 2.031 1_545 S
O213 C217 1.269 . S
O214 Zn211 1.986 . S
O214 C221 1.262 . S
O215 Zn210 2.049 . S
O215 C223 1.260 . S
O216 Zn211 1.996 . S
O216 C223 1.257 1_545 S
C217 O212 1.254 . S
C217 O213 1.269 . S
C218 O219 1.254 . S
C218 O220 1.266 1_545 S
O219 Zn211 1.943 . S
O219 C218 1.254 . S
O220 Zn210 2.067 . S
O220 C218 1.266 1_565 S
C221 O214 1.262 . S
C221 O222 1.232 . S
O222 C221 1.232 . S
C223 O215 1.260 . S
C223 O216 1.257 1_565 S
Zn224 O227 2.031 . S
Zn224 O229 2.049 . S
Zn224 O234 2.067 . S
Zn225 O226 1.962 . S
Zn225 O228 1.986 . S
Zn225 O230 1.996 . S
Zn225 O233 1.943 . S
O226 Zn225 1.962 . S
O226 C231 1.254 . S
O227 Zn224 2.031 . S
O227 C231 1.269 . S
O228 Zn225 1.986 . S
O228 C235 1.262 . S
O229 Zn224 2.049 . S
O229 C237 1.260 . S
O230 Zn225 1.996 . S
O230 C237 1.257 . S
C231 O226 1.254 . S
C231 O227 1.269 . S
C232 O233 1.249 . S
C232 O234 1.270 . S
O233 Zn225 1.943 . S
O233 C232 1.249 . S
O234 Zn224 2.067 . S
O234 C232 1.270 . S
C235 O228 1.262 . S
C235 O236 1.232 . S
O236 C235 1.232 . S
C237 O229 1.260 . S
C237 O230 1.257 . S
Zn238 O241 2.031 1_445 S
Zn238 O243 2.049 . S
Zn238 O248 2.067 . S
Zn239 O240 1.962 . S
Zn239 O242 1.986 . S
Zn239 O244 1.996 . S
Zn239 O247 1.943 . S
O240 Zn239 1.962 . S
O240 C245 1.254 1_545 S
O241 Zn238 2.031 1_665 S
O241 C245 1.269 . S
O242 Zn239 1.986 . S
O242 C249 1.262 . S
O243 Zn238 2.049 . S
O243 C251 1.260 . S
O244 Zn239 1.996 . S
O244 C251 1.257 1_655 S
C245 O240 1.254 1_565 S
C245 O241 1.269 . S
C246 O247 1.249 . S
C246 O248 1.270 1_655 S
O247 Zn239 1.943 . S
O247 C246 1.249 . S
O248 Zn238 2.067 . S
O248 C246 1.270 1_455 S
C249 O242 1.262 . S
C249 O250 1.232 . S
O250 C249 1.232 . S
C251 O243 1.260 . S
C251 O244 1.257 1_455 S
Zn252 O255 2.031 . S
Zn252 O257 2.049 . S
Zn252 O262 2.067 . S
Zn253 O254 1.962 . S
Zn253 O256 1.986 . S
Zn253 O258 1.996 . S
Zn253 O261 1.943 . S
O254 Zn253 1.962 . S
O254 C259 1.254 . S
O255 Zn252 2.031 . S
O255 C259 1.269 . S
O256 Zn253 1.986 . S
O256 C263 1.262 . S
O257 Zn252 2.049 . S
O257 C265 1.260 . S
O258 Zn253 1.996 . S
O258 C265 1.257 . S
C259 O254 1.254 . S
C259 O255 1.269 . S
C260 O261 1.249 . S
C260 O262 1.270 . S
O261 Zn253 1.943 . S
O261 C260 1.249 . S
O262 Zn252 2.067 . S
O262 C260 1.270 . S
C263 O256 1.262 . S
C263 O264 1.232 . S
O264 C263 1.232 . S
C265 O257 1.260 . S
C265 O258 1.257 . S
Zn266 O269 2.031 1_544 S
Zn266 O271 2.049 . S
Zn266 O276 2.067 . S
Zn267 O268 1.962 . S
Zn267 O270 1.986 . S
Zn267 O272 1.996 . S
Zn267 O275 1.943 . S
O268 Zn267 1.962 . S
O268 C273 1.264 . S
O269 Zn266 2.031 1_566 S
O269 C273 1.267 1_556 S
O270 Zn267 1.986 . S
O270 C277 1.262 . S
O271 Zn266 2.049 . S
O271 C279 1.260 . S
O272 Zn267 1.996 . S
O272 C279 1.257 1_565 S
C273 O268 1.264 . S
C273 O269 1.267 1_554 S
C274 O275 1.249 . S
C274 O276 1.270 1_565 S
O275 Zn267 1.943 . S
O275 C274 1.249 . S
O276 Zn266 2.067 . S
O276 C274 1.270 1_545 S
C277 O270 1.262 . S
C277 O278 1.232 . S
O278 C277 1.232 . S
C279 O271 1.260 . S
C279 O272 1.257 1_545 S
Zn280 O283 2.031 . S
Zn280 O285 2.049 . S
Zn280 O290 2.067 . S
Zn281 O282 1.962 . S
Zn281 O284 1.986 . S
Zn281 O286 1.996 . S
Zn281 O289 1.943 . S
O282 Zn281 1.962 . S
O282 C287 1.254 . S
O283 Zn280 2.031 . S
O283 C287 1.269 . S
O284 Zn281 1.986 . S
O284 C291 1.262 . S
O285 Zn280 2.049 . S
O285 C293 1.260 . S
O286 Zn281 1.996 . S
O286 C293 1.257 . S
C287 O282 1.254 . S
C287 O283 1.269 . S
C288 O289 1.249 . S
C288 O290 1.270 . S
O289 Zn281 1.943 . S
O289 C288 1.249 . S
O290 Zn280 2.067 . S
O290 C288 1.270 . S
C291 O284 1.262 . S
C291 O292 1.232 . S
O292 C291 1.232 . S
C293 O285 1.260 . S
C293 O286 1.257 . S
Zn294 O297 2.031 . S
Zn294 O299 2.049 . S
Zn294 O304 2.067 . S
Zn295 O296 1.962 . S
Zn295 O298 1.986 . S
Zn295 O300 1.996 . S
Zn295 O303 1.943 . S
O296 Zn295 1.962 . S
O296 C301 1.254 . S
O297 Zn294 2.031 . S
O297 C301 1.269 . S
O298 Zn295 1.986 . S
O298 C305 1.262 . S
O299 Zn294 2.049 . S
O299 C307 1.260 . S
O300 Zn295 1.996 . S
O300 C307 1.257 . S
C301 O296 1.254 . S
C301 O297 1.269 . S
C302 O303 1.249 . S
C302 O304 1.270 . S
O303 Zn295 1.943 . S
O303 C302 1.249 . S
O304 Zn294 2.067 . S
O304 C302 1.270 . S
C305 O298 1.262 . S
C305 O306 1.232 . S
O306 C305 1.232 . S
C307 O299 1.260 . S
C307 O300 1.257 . S
Zn308 O311 2.031 . S
Zn308 O313 2.049 . S
Zn308 O318 2.067 . S
Zn309 O310 1.962 . S
Zn309 O312 1.986 . S
Zn309 O314 1.996 . S
Zn309 O317 1.943 . S
O310 Zn309 1.962 . S
O310 C315 1.254 . S
O311 Zn308 2.031 . S
O311 C315 1.269 . S
O312 Zn309 1.986 . S
O312 C319 1.262 . S
O313 Zn308 2.049 . S
O313 C321 1.260 . S
O314 Zn309 1.996 . S
O314 C321 1.257 . S
C315 O310 1.254 . S
C315 O311 1.269 . S
C316 O317 1.249 . S
C316 O318 1.270 . S
O317 Zn309 1.943 . S
O317 C316 1.249 . S
O318 Zn308 2.067 . S
O318 C316 1.270 . S
C319 O312 1.262 . S
C319 O320 1.232 . S
O320 C319 1.232 . S
C321 O313 1.260 . S
C321 O314 1.257 . S
Zn322 O325 2.031 . S
Zn322 O327 2.049 . S
Zn322 O332 2.067 . S
Zn323 O324 1.962 . S
Zn323 O326 1.986 . S
Zn323 O328 1.996 . S
Zn323 O331 1.943 . S
O324 Zn323 1.962 . S
O324 C329 1.254 . S
O325 Zn322 2.031 . S
O325 C329 1.269 . S
O326 Zn323 1.986 . S
O326 C333 1.262 . S
O327 Zn322 2.049 . S
O327 C335 1.260 . S
O328 Zn323 1.996 . S
O328 C335 1.257 . S
C329 O324 1.254 . S
C329 O325 1.269 . S
C330 O331 1.249 . S
C330 O332 1.270 . S
O331 Zn323 1.943 . S
O331 C330 1.249 . S
O332 Zn322 2.067 . S
O332 C330 1.270 . S
C333 O326 1.262 . S
C333 O334 1.232 . S
O334 C333 1.232 . S
C335 O327 1.260 . S
C335 O328 1.257 . S
Zn336 O339 2.031 . S
Zn336 O341 2.049 . S
Zn336 O346 2.067 . S
Zn337 O338 1.962 . S
Zn337 O340 1.986 . S
Zn337 O342 1.996 . S
Zn337 O345 1.943 . S
O338 Zn337 1.962 . S
O338 C343 1.254 . S
O339 Zn336 2.031 . S
O339 C343 1.269 . S
O340 Zn337 1.986 . S
O340 C347 1.262 . S
O341 Zn336 2.049 . S
O341 C349 1.260 . S
O342 Zn337 1.996 . S
O342 C349 1.257 . S
C343 O338 1.254 . S
C343 O339 1.269 . S
C344 O345 1.249 . S
C344 O346 1.270 . S
O345 Zn337 1.943 . S
O345 C344 1.249 . S
O346 Zn336 2.067 . S
O346 C344 1.270 . S
C347 O340 1.262 . S
C347 O348 1.232 . S
O348 C347 1.232 . S
C349 O341 1.260 . S
C349 O342 1.257 . S
Zn350 O353 2.031 . S
Zn350 O355 2.049 . S
Zn350 O360 2.067 . S
Zn351 O352 1.962 . S
Zn351 O354 1.986 . S
Zn351 O356 1.996 . S
Zn351 O359 1.943 . S
O352 Zn351 1.962 . S
O352 C357 1.254 . S
O353 Zn350 2.031 . S
O353 C357 1.269 . S
O354 Zn351 1.986 . S
O354 C361 1.262 . S
O355 Zn350 2.049 . S
O355 C363 1.260 . S
O356 Zn351 1.996 . S
O356 C363 1.257 . S
C357 O352 1.254 . S
C357 O353 1.269 . S
C358 O359 1.249 . S
C358 O360 1.270 . S
O359 Zn351 1.943 . S
O359 C358 1.249 . S
O360 Zn350 2.067 . S
O360 C358 1.270 . S
C361 O354 1.262 . S
C361 O362 1.232 . S
O362 C361 1.232 . S
C363 O355 1.260 . S
C363 O356 1.257 . S
Zn364 O367 2.031 . S
Zn364 O369 2.049 . S
Zn364 O374 2.067 . S
Zn365 O366 1.962 . S
Zn365 O368 1.986 . S
Zn365 O370 1.996 . S
Zn365 O373 1.943 . S
O366 Zn365 1.962 . S
O366 C371 1.254 . S
O367 Zn364 2.031 . S
O367 C371 1.269 . S
O368 Zn365 1.986 . S
O368 C375 1.262 . S
O369 Zn364 2.049 . S
O369 C377 1.260 . S
O370 Zn365 1.996 . S
O370 C377 1.257 . S
C371 O366 1.254 . S
C371 O367 1.269 . S
C372 O373 1.249 . S
C372 O374 1.270 . S
O373 Zn365 1.943 . S
O373 C372 1.249 . S
O374 Zn364 2.067 . S
O374 C372 1.270 . S
C375 O368 1.262 . S
C375 O376 1.232 . S
O376 C375 1.232 . S
C377 O369 1.260 . S
C377 O370 1.257 . S
Zn378 O381 2.031 . S
Zn378 O383 2.049 1_455 S
Zn378 O388 2.067 . S
Zn379 O380 1.962 . S
Zn379 O382 1.986 . S
Zn379 O384 1.996 . S
Zn379 O387 1.943 . S
O380 Zn379 1.962 . S
O380 C385 1.254 1_655 S
O381 Zn378 2.031 . S
O381 C385 1.269 . S
O382 Zn379 1.986 . S
O382 C389 1.262 . S
O383 Zn378 2.049 1_655 S
O383 C391 1.260 . S
O384 Zn379 1.996 . S
O384 C391 1.257 . S
C385 O380 1.254 1_455 S
C385 O381 1.269 . S
C386 O387 1.249 1_455 S
C386 O388 1.270 . S
O387 Zn379 1.943 . S
O387 C386 1.249 1_655 S
O388 Zn378 2.067 . S
O388 C386 1.270 . S
C389 O382 1.262 . S
C389 O390 1.232 1_554 S
O390 C389 1.232 1_556 S
C391 O383 1.260 . S
C391 O384 1.257 . S
Zn392 O395 2.031 . S
Zn392 O397 2.049 . S
Zn392 O402 2.067 . S
Zn393 O394 1.962 . S
Zn393 O396 1.986 . S
Zn393 O398 1.996 . S
Zn393 O401 1.943 . S
O394 Zn393 1.962 . S
O394 C399 1.254 . S
O395 Zn392 2.031 . S
O395 C399 1.269 . S
O396 Zn393 1.986 . S
O396 C403 1.262 . S
O397 Zn392 2.049 . S
O397 C405 1.260 . S
O398 Zn393 1.996 . S
O398 C405 1.257 . S
C399 O394 1.254 . S
C399 O395 1.269 . S
C400 O401 1.249 . S
C400 O402 1.270 . S
O401 Zn393 1.943 . S
O401 C400 1.249 . S
O402 Zn392 2.067 . S
O402 C400 1.270 . S
C403 O396 1.262 . S
C403 O404 1.232 . S
O404 C403 1.232 . S
C405 O397 1.260 . S
C405 O398 1.257 . S
Zn406 O409 2.031 . S
Zn406 O411 2.049 . S
Zn406 O416 2.067 . S
Zn407 O408 1.962 . S
Zn407 O410 1.986 . S
Zn407 O412 1.996 . S
Zn407 O415 1.943 . S
O408 Zn407 1.962 . S
O408 C413 1.254 . S
O409 Zn406 2.031 . S
O409 C413 1.269 . S
O410 Zn407 1.986 . S
O410 C417 1.262 . S
O411 Zn406 2.049 . S
O411 C419 1.260 . S
O412 Zn407 1.996 . S
O412 C419 1.257 . S
C413 O408 1.254 . S
C413 O409 1.269 . S
C414 O415 1.249 . S
C414 O416 1.270 . S
O415 Zn407 1.943 . S
O415 C414 1.249 . S
O416 Zn406 2.067 . S
O416 C414 1.270 . S
C417 O410 1.262 . S
C417 O418 1.232 . S
O418 C417 1.232 . S
C419 O411 1.260 . S
C419 O412 1.257 . S
Zn420 O423 2.031 1_556 S
Zn420 O425 2.049 . S
Zn420 O430 2.067 . S
Zn421 O422 1.962 . S
Zn421 O424 1.986 . S
Zn421 O426 1.996 . S
Zn421 O429 1.943 . S
O422 Zn421 1.962 . S
O422 C427 1.254 . S
O423 Zn420 2.031 1_554 S
O423 C427 1.269 1_554 S
O424 Zn421 1.986 . S
O424 C431 1.262 . S
O425 Zn420 2.049 . S
O425 C433 1.260 . S
O426 Zn421 1.996 . S
O426 C433 1.257 . S
C427 O422 1.254 . S
C427 O423 1.269 1_556 S
C428 O429 1.249 . S
C428 O430 1.270 . S
O429 Zn421 1.943 . S
O429 C428 1.249 . S
O430 Zn420 2.067 . S
O430 C428 1.270 . S
C431 O424 1.262 . S
C431 O432 1.232 . S
O432 C431 1.232 . S
C433 O425 1.260 . S
C433 O426 1.257 . S
Zn434 O437 2.031 . S
Zn434 O439 2.049 . S
Zn434 O444 2.067 . S
Zn435 O436 1.962 . S
Zn435 O438 1.986 . S
Zn435 O440 1.996 . S
Zn435 O443 1.943 . S
O436 Zn435 1.962 . S
O436 C441 1.254 . S
O437 Zn434 2.031 . S
O437 C441 1.269 . S
O438 Zn435 1.986 . S
O438 C445 1.262 . S
O439 Zn434 2.049 . S
O439 C447 1.260 . S
O440 Zn435 1.996 . S
O440 C447 1.257 . S
C441 O436 1.254 . S
C441 O437 1.269 . S
C442 O443 1.249 . S
C442 O444 1.270 . S
O443 Zn435 1.943 . S
O443 C442 1.249 . S
O444 Zn434 2.067 . S
O444 C442 1.270 . S
C445 O438 1.262 . S
C445 O446 1.232 . S
O446 C445 1.232 . S
C447 O439 1.260 . S
C447 O440 1.257 . S
C8 C190 1.284 1_554 S
C358 C22 1.536 . S
C36 C218 1.336 1_565 S
C50 C344 1.440 . S
C64 C246 1.625 1_465 S
C78 C316 1.617 . S
C92 C274 1.590 1_546 S
C442 C106 1.364 . S
C302 C120 1.625 1_554 S
C134 C260 1.617 . S
C330 C148 1.590 1_455 S
C162 C232 1.440 . S
C204 C176 1.536 . S
C288 C400 1.364 . S
C414 C372 1.284 . S
C428 C386 1.337 1_556 S
C13 C27 1.279 1_545 S
C39 C21 1.841 . S
C55 C41 1.339 1_545 S
C49 C11 1.800 1_556 S
C105 C69 1.499 1_545 S
C81 C67 1.537 . S
C91 C77 1.567 . S
C97 C109 1.223 1_556 S
C139 C7 1.267 . S
C119 C53 1.830 . S
C151 C25 1.693 1_655 S
C385 C111 1.446 . S
C405 C35 1.446 . S
C165 C63 1.830 1_655 S
C95 C179 1.693 . S
C203 C195 1.482 . S
C217 C209 1.529 . S
C237 C223 1.686 . S
C189 C235 1.597 1_556 S
C245 C293 1.472 . S
C249 C263 1.506 . S
C279 C265 1.684 . S
C273 C291 1.542 1_554 S
C193 C315 1.671 1_655 S
C307 C231 1.514 . S
C333 C207 1.450 1_455 S
C431 C287 1.668 1_455 S
C441 C221 1.668 . S
C251 C343 1.514 . S
C361 C277 1.450 . S
C181 C377 1.279 . S
C389 C175 1.841 1_554 S
C167 C391 1.339 . S
C161 C375 1.800 . S
C125 C399 1.499 . S
C137 C123 1.537 1_554 S
C147 C133 1.567 . S
C153 C403 1.223 . S
C371 C83 1.267 . S
C357 C419 1.482 . S
C363 C427 1.529 1_554 S
C433 C349 1.686 . S
C347 C413 1.597 . S
C447 C301 1.472 . S
C305 C319 1.506 1_554 S
C335 C321 1.684 . S
C329 C445 1.550 . S
C417 C259 1.671 . S
