# Generated by pormake.
# Topology dei, (4)-cn, num edge types: 1
# Building blocks:
#     Node 0, Type 0, BuildingBlock: TATPOV_clean_sbu_0, # of connection points: 4
#     Node 1, Type 0, BuildingBlock: TATPOV_clean_sbu_0, # of connection points: 4
#     Node 2, Type 0, BuildingBlock: TATPOV_clean_sbu_0, # of connection points: 4
#     Node 3, Type 0, BuildingBlock: TATPOV_clean_sbu_0, # of connection points: 4
#     Node 4, Type 0, BuildingBlock: TATPOV_clean_sbu_0, # of connection points: 4
#     Node 5, Type 0, BuildingBlock: TATPOV_clean_sbu_0, # of connection points: 4
#     Node 6, Type 0, BuildingBlock: TATPOV_clean_sbu_0, # of connection points: 4
#     Node 7, Type 0, BuildingBlock: TATPOV_clean_sbu_0, # of connection points: 4
#     Node 8, Type 0, BuildingBlock: TATPOV_clean_sbu_0, # of connection points: 4
#     Node 9, Type 0, BuildingBlock: TATPOV_clean_sbu_0, # of connection points: 4
#     Node 10, Type 0, BuildingBlock: TATPOV_clean_sbu_0, # of connection points: 4
#     Node 11, Type 0, BuildingBlock: TATPOV_clean_sbu_0, # of connection points: 4
#     Node 12, Type 0, BuildingBlock: TATPOV_clean_sbu_0, # of connection points: 4
#     Node 13, Type 0, BuildingBlock: TATPOV_clean_sbu_0, # of connection points: 4
#     Node 14, Type 0, BuildingBlock: TATPOV_clean_sbu_0, # of connection points: 4
#     Node 15, Type 0, BuildingBlock: TATPOV_clean_sbu_0, # of connection points: 4
#     Node 16, Type 0, BuildingBlock: TATPOV_clean_sbu_0, # of connection points: 4
#     Node 17, Type 0, BuildingBlock: TATPOV_clean_sbu_0, # of connection points: 4
#     Node 18, Type 0, BuildingBlock: TATPOV_clean_sbu_0, # of connection points: 4
#     Node 19, Type 0, BuildingBlock: TATPOV_clean_sbu_0, # of connection points: 4
#     Node 20, Type 0, BuildingBlock: TATPOV_clean_sbu_0, # of connection points: 4
#     Node 21, Type 0, BuildingBlock: TATPOV_clean_sbu_0, # of connection points: 4
#     Node 22, Type 0, BuildingBlock: TATPOV_clean_sbu_0, # of connection points: 4
#     Node 23, Type 0, BuildingBlock: TATPOV_clean_sbu_0, # of connection points: 4
#     Node 24, Type 0, BuildingBlock: TATPOV_clean_sbu_0, # of connection points: 4
#     Node 25, Type 0, BuildingBlock: TATPOV_clean_sbu_0, # of connection points: 4
#     Node 26, Type 0, BuildingBlock: TATPOV_clean_sbu_0, # of connection points: 4
#     Node 27, Type 0, BuildingBlock: TATPOV_clean_sbu_0, # of connection points: 4
#     Node 28, Type 0, BuildingBlock: TATPOV_clean_sbu_0, # of connection points: 4
#     Node 29, Type 0, BuildingBlock: TATPOV_clean_sbu_0, # of connection points: 4
#     Node 30, Type 0, BuildingBlock: TATPOV_clean_sbu_0, # of connection points: 4
#     Node 31, Type 0, BuildingBlock: TATPOV_clean_sbu_0, # of connection points: 4
#     Edge 32, Type (0, 0), BuildingBlock: OJICUG_clean_linker_0, # of connection points: 2
#     Edge 33, Type (0, 0), BuildingBlock: OJICUG_clean_linker_0, # of connection points: 2
#     Edge 34, Type (0, 0), BuildingBlock: OJICUG_clean_linker_0, # of connection points: 2
#     Edge 35, Type (0, 0), BuildingBlock: OJICUG_clean_linker_0, # of connection points: 2
#     Edge 36, Type (0, 0), BuildingBlock: OJICUG_clean_linker_0, # of connection points: 2
#     Edge 37, Type (0, 0), BuildingBlock: OJICUG_clean_linker_0, # of connection points: 2
#     Edge 38, Type (0, 0), BuildingBlock: OJICUG_clean_linker_0, # of connection points: 2
#     Edge 39, Type (0, 0), BuildingBlock: OJICUG_clean_linker_0, # of connection points: 2
#     Edge 40, Type (0, 0), BuildingBlock: OJICUG_clean_linker_0, # of connection points: 2
#     Edge 41, Type (0, 0), BuildingBlock: OJICUG_clean_linker_0, # of connection points: 2
#     Edge 42, Type (0, 0), BuildingBlock: OJICUG_clean_linker_0, # of connection points: 2
#     Edge 43, Type (0, 0), BuildingBlock: OJICUG_clean_linker_0, # of connection points: 2
#     Edge 44, Type (0, 0), BuildingBlock: OJICUG_clean_linker_0, # of connection points: 2
#     Edge 45, Type (0, 0), BuildingBlock: OJICUG_clean_linker_0, # of connection points: 2
#     Edge 46, Type (0, 0), BuildingBlock: OJICUG_clean_linker_0, # of connection points: 2
#     Edge 47, Type (0, 0), BuildingBlock: OJICUG_clean_linker_0, # of connection points: 2
#     Edge 48, Type (0, 0), BuildingBlock: OJICUG_clean_linker_0, # of connection points: 2
#     Edge 49, Type (0, 0), BuildingBlock: OJICUG_clean_linker_0, # of connection points: 2
#     Edge 50, Type (0, 0), BuildingBlock: OJICUG_clean_linker_0, # of connection points: 2
#     Edge 51, Type (0, 0), BuildingBlock: OJICUG_clean_linker_0, # of connection points: 2
#     Edge 52, Type (0, 0), BuildingBlock: OJICUG_clean_linker_0, # of connection points: 2
#     Edge 53, Type (0, 0), BuildingBlock: OJICUG_clean_linker_0, # of connection points: 2
#     Edge 54, Type (0, 0), BuildingBlock: OJICUG_clean_linker_0, # of connection points: 2
#     Edge 55, Type (0, 0), BuildingBlock: OJICUG_clean_linker_0, # of connection points: 2
#     Edge 56, Type (0, 0), BuildingBlock: OJICUG_clean_linker_0, # of connection points: 2
#     Edge 57, Type (0, 0), BuildingBlock: OJICUG_clean_linker_0, # of connection points: 2
#     Edge 58, Type (0, 0), BuildingBlock: OJICUG_clean_linker_0, # of connection points: 2
#     Edge 59, Type (0, 0), BuildingBlock: OJICUG_clean_linker_0, # of connection points: 2
#     Edge 60, Type (0, 0), BuildingBlock: OJICUG_clean_linker_0, # of connection points: 2
#     Edge 61, Type (0, 0), BuildingBlock: OJICUG_clean_linker_0, # of connection points: 2
#     Edge 62, Type (0, 0), BuildingBlock: OJICUG_clean_linker_0, # of connection points: 2
#     Edge 63, Type (0, 0), BuildingBlock: OJICUG_clean_linker_0, # of connection points: 2
#     Edge 64, Type (0, 0), BuildingBlock: OJICUG_clean_linker_0, # of connection points: 2
#     Edge 65, Type (0, 0), BuildingBlock: OJICUG_clean_linker_0, # of connection points: 2
#     Edge 66, Type (0, 0), BuildingBlock: OJICUG_clean_linker_0, # of connection points: 2
#     Edge 67, Type (0, 0), BuildingBlock: OJICUG_clean_linker_0, # of connection points: 2
#     Edge 68, Type (0, 0), BuildingBlock: OJICUG_clean_linker_0, # of connection points: 2
#     Edge 69, Type (0, 0), BuildingBlock: OJICUG_clean_linker_0, # of connection points: 2
#     Edge 70, Type (0, 0), BuildingBlock: OJICUG_clean_linker_0, # of connection points: 2
#     Edge 71, Type (0, 0), BuildingBlock: OJICUG_clean_linker_0, # of connection points: 2
#     Edge 72, Type (0, 0), BuildingBlock: OJICUG_clean_linker_0, # of connection points: 2
#     Edge 73, Type (0, 0), BuildingBlock: OJICUG_clean_linker_0, # of connection points: 2
#     Edge 74, Type (0, 0), BuildingBlock: OJICUG_clean_linker_0, # of connection points: 2
#     Edge 75, Type (0, 0), BuildingBlock: OJICUG_clean_linker_0, # of connection points: 2
#     Edge 76, Type (0, 0), BuildingBlock: OJICUG_clean_linker_0, # of connection points: 2
#     Edge 77, Type (0, 0), BuildingBlock: OJICUG_clean_linker_0, # of connection points: 2
#     Edge 78, Type (0, 0), BuildingBlock: OJICUG_clean_linker_0, # of connection points: 2
#     Edge 79, Type (0, 0), BuildingBlock: OJICUG_clean_linker_0, # of connection points: 2
#     Edge 80, Type (0, 0), BuildingBlock: OJICUG_clean_linker_0, # of connection points: 2
#     Edge 81, Type (0, 0), BuildingBlock: OJICUG_clean_linker_0, # of connection points: 2
#     Edge 82, Type (0, 0), BuildingBlock: OJICUG_clean_linker_0, # of connection points: 2
#     Edge 83, Type (0, 0), BuildingBlock: OJICUG_clean_linker_0, # of connection points: 2
#     Edge 84, Type (0, 0), BuildingBlock: OJICUG_clean_linker_0, # of connection points: 2
#     Edge 85, Type (0, 0), BuildingBlock: OJICUG_clean_linker_0, # of connection points: 2
#     Edge 86, Type (0, 0), BuildingBlock: OJICUG_clean_linker_0, # of connection points: 2
#     Edge 87, Type (0, 0), BuildingBlock: OJICUG_clean_linker_0, # of connection points: 2
#     Edge 88, Type (0, 0), BuildingBlock: OJICUG_clean_linker_0, # of connection points: 2
#     Edge 89, Type (0, 0), BuildingBlock: OJICUG_clean_linker_0, # of connection points: 2
#     Edge 90, Type (0, 0), BuildingBlock: OJICUG_clean_linker_0, # of connection points: 2
#     Edge 91, Type (0, 0), BuildingBlock: OJICUG_clean_linker_0, # of connection points: 2
#     Edge 92, Type (0, 0), BuildingBlock: OJICUG_clean_linker_0, # of connection points: 2
#     Edge 93, Type (0, 0), BuildingBlock: OJICUG_clean_linker_0, # of connection points: 2
#     Edge 94, Type (0, 0), BuildingBlock: OJICUG_clean_linker_0, # of connection points: 2
#     Edge 95, Type (0, 0), BuildingBlock: OJICUG_clean_linker_0, # of connection points: 2
# Relax obj value: 0.256
# Max RMSD: 0.094
# Mean RMSD: 0.094
data_MOF--net-dei--node1-TATPOV_clean_sbu_0--edge1-OJICUG_clean_linker_0
_symmetry_space_group_name_H-M    P1
_symmetry_Int_Tables_number       1
_symmetry_cell_setting            triclinic
loop_
_symmetry_equiv_pos_as_xyz
'x, y, z'
_cell_length_a     38.119636
_cell_length_b     38.130669
_cell_length_c     70.131839
_cell_angle_alpha  89.906292
_cell_angle_beta   90.052279
_cell_angle_gamma 89.780131
loop_
_atom_site_label
_atom_site_type_symbol
_atom_site_fract_x
_atom_site_fract_y
_atom_site_fract_z
_atom_type_partial_charge
Zn0 Zn 0.11747 0.62956 0.01537 0.0
Zn1 Zn 0.11665 0.60629 0.05133 0.0
O2 O 0.13409 0.56363 0.03599 0.0
O3 O 0.13203 0.58243 0.00625 0.0
O4 O 0.11768 0.59272 0.07911 0.0
O5 O 0.155 0.6639 0.02183 0.0
O6 O 0.1495 0.64857 0.05188 0.0
C7 C 0.13831 0.55828 0.01816 0.0
C8 C 0.04872 0.63276 0.03252 0.0
O9 O 0.0646 0.6182 0.04647 0.0
O10 O 0.06576 0.64157 0.01776 0.0
C11 C 0.14331 0.57733 0.08723 0.0
O12 O 0.16991 0.56634 0.07692 0.0
C13 C 0.16348 0.66769 0.03913 0.0
Zn14 Zn 0.6075 0.87892 0.26312 0.0
Zn15 Zn 0.63074 0.88131 0.29929 0.0
O16 O 0.67343 0.89769 0.28384 0.0
O17 O 0.65463 0.89369 0.25416 0.0
O18 O 0.64398 0.88383 0.32716 0.0
O19 O 0.57233 0.91646 0.26849 0.0
O20 O 0.58861 0.91483 0.29854 0.0
C21 C 0.67866 0.90091 0.26594 0.0
C22 C 0.60565 0.81169 0.28198 0.0
O23 O 0.61959 0.82895 0.29554 0.0
O24 O 0.59668 0.82728 0.26675 0.0
C25 C 0.61832 0.8788 0.33842 0.0
O26 O 0.58741 0.87162 0.33113 0.0
C27 C 0.56905 0.92718 0.28545 0.0
Zn28 Zn 0.36787 0.34754 0.51335 0.0
Zn29 Zn 0.36586 0.36964 0.54962 0.0
O30 O 0.35063 0.4134 0.53472 0.0
O31 O 0.35471 0.39556 0.50489 0.0
O32 O 0.36404 0.38172 0.57757 0.0
O33 O 0.3288 0.31423 0.51848 0.0
O34 O 0.33042 0.32939 0.54872 0.0
C35 C 0.34795 0.4194 0.51687 0.0
C36 C 0.43517 0.34399 0.53158 0.0
O37 O 0.4181 0.35769 0.54532 0.0
O38 O 0.41925 0.33515 0.51647 0.0
C39 C 0.3388 0.39775 0.58565 0.0
O40 O 0.31289 0.41015 0.57524 0.0
C41 C 0.31727 0.31128 0.53531 0.0
Zn42 Zn 0.8864 0.08364 0.76218 0.0
Zn43 Zn 0.85993 0.08133 0.79797 0.0
O44 O 0.81979 0.0647 0.78082 0.0
O45 O 0.84046 0.06849 0.75154 0.0
O46 O 0.8428 0.07563 0.82509 0.0
O47 O 0.92177 0.04699 0.76939 0.0
O48 O 0.90362 0.05043 0.79905 0.0
C49 C 0.81562 0.06156 0.76284 0.0
C50 C 0.88457 0.15135 0.78107 0.0
O51 O 0.87012 0.13391 0.79442 0.0
O52 O 0.89519 0.13577 0.76617 0.0
C53 C 0.83589 0.10125 0.83605 0.0
O54 O 0.83676 0.13329 0.82917 0.0
C55 C 0.92451 0.03791 0.78669 0.0
Zn56 Zn 0.1259 0.34701 0.99291 0.0
Zn57 Zn 0.12994 0.36801 0.95677 0.0
O58 O 0.14412 0.41218 0.97181 0.0
O59 O 0.13867 0.39469 1.00164 0.0
O60 O 0.13504 0.37883 0.92877 0.0
O61 O 0.16423 0.31208 0.98924 0.0
O62 O 0.16293 0.32554 0.95879 0.0
C63 C 0.14572 0.41845 0.98967 0.0
C64 C 0.05968 0.34317 0.97311 0.0
O65 O 0.07741 0.35676 0.9596 0.0
O66 O 0.0747 0.33501 0.98864 0.0
C67 C 0.13668 0.40821 0.92024 0.0
O68 O 0.13459 0.43736 0.93014 0.0
C69 C 0.1751 0.30712 0.97243 0.0
Zn70 Zn 0.88807 0.88317 0.23849 0.0
Zn71 Zn 0.86652 0.8893 0.20283 0.0
O72 O 0.82338 0.90447 0.21851 0.0
O73 O 0.84134 0.89713 0.24814 0.0
O74 O 0.85461 0.89823 0.17531 0.0
O75 O 0.92381 0.92049 0.23529 0.0
O76 O 0.91021 0.92028 0.20487 0.0
C77 C 0.81757 0.90565 0.23643 0.0
C78 C 0.88944 0.81752 0.21779 0.0
O79 O 0.87585 0.836 0.20451 0.0
O80 O 0.89851 0.83191 0.23331 0.0
C81 C 0.8343 0.88021 0.16489 0.0
O82 O 0.81727 0.85368 0.17241 0.0
C83 C 0.92893 0.93158 0.21854 0.0
Zn84 Zn 0.36674 0.63138 0.49317 0.0
Zn85 Zn 0.36288 0.61079 0.45673 0.0
O86 O 0.34849 0.56636 0.47123 0.0
O87 O 0.35368 0.58324 0.50118 0.0
O88 O 0.35945 0.60061 0.42859 0.0
O89 O 0.3277 0.66547 0.4892 0.0
O90 O 0.32755 0.65134 0.4588 0.0
C91 C 0.34652 0.55981 0.48905 0.0
C92 C 0.43316 0.63486 0.47412 0.0
O93 O 0.41536 0.62201 0.46042 0.0
O94 O 0.41801 0.64319 0.48954 0.0
C95 C 0.34812 0.57338 0.4202 0.0
O96 O 0.33794 0.54624 0.43031 0.0
C97 C 0.31523 0.66913 0.4726 0.0
Zn98 Zn 0.60667 0.09822 0.74175 0.0
Zn99 Zn 0.62377 0.09534 0.70478 0.0
O100 O 0.6687 0.07671 0.71756 0.0
O101 O 0.6544 0.08076 0.74796 0.0
O102 O 0.63057 0.09382 0.67639 0.0
O103 O 0.56962 0.06229 0.73806 0.0
O104 O 0.58124 0.06315 0.70737 0.0
C105 C 0.67628 0.07258 0.73516 0.0
C106 C 0.60348 0.16561 0.72359 0.0
O107 O 0.61454 0.14792 0.7094 0.0
O108 O 0.59686 0.15028 0.73921 0.0
C109 C 0.654 0.07875 0.66644 0.0
O110 O 0.67989 0.06202 0.67491 0.0
C111 C 0.56354 0.05148 0.72135 0.0
Zn112 Zn 0.84112 0.34946 0.99061 0.0
Zn113 Zn 0.83844 0.36743 0.95375 0.0
O114 O 0.82157 0.412 0.96734 0.0
O115 O 0.82648 0.39751 0.99769 0.0
O116 O 0.83538 0.37624 0.92545 0.0
O117 O 0.80335 0.31438 0.98693 0.0
O118 O 0.80552 0.32553 0.95622 0.0
C119 C 0.81859 0.41969 0.98497 0.0
C120 C 0.9082 0.34427 0.97205 0.0
O121 O 0.89096 0.35671 0.95797 0.0
O122 O 0.89258 0.33737 0.98754 0.0
C123 C 0.83014 0.40491 0.91662 0.0
O124 O 0.82655 0.43417 0.92629 0.0
C125 C 0.79288 0.30833 0.97015 0.0
Zn126 Zn 0.38139 0.08594 0.74503 0.0
Zn127 Zn 0.35998 0.08191 0.70892 0.0
O128 O 0.3175 0.06439 0.72432 0.0
O129 O 0.33521 0.06929 0.75412 0.0
O130 O 0.3485 0.07486 0.68113 0.0
O131 O 0.41913 0.05065 0.7408 0.0
O132 O 0.40489 0.05259 0.71049 0.0
C133 C 0.31174 0.06128 0.74218 0.0
C134 C 0.38065 0.153 0.72539 0.0
O135 O 0.368 0.13507 0.7117 0.0
O136 O 0.38953 0.13792 0.7408 0.0
C137 C 0.32509 0.09044 0.67136 0.0
O138 O 0.30414 0.1131 0.67973 0.0
C139 C 0.42463 0.04128 0.72378 0.0
Zn140 Zn 0.65311 0.62685 0.49308 0.0
Zn141 Zn 0.65536 0.61119 0.45633 0.0
O142 O 0.67531 0.5666 0.46929 0.0
O143 O 0.67202 0.57995 0.4998 0.0
O144 O 0.66172 0.60601 0.42799 0.0
O145 O 0.68613 0.66691 0.4906 0.0
O146 O 0.68122 0.65751 0.4599 0.0
C147 C 0.67986 0.5584 0.48679 0.0
C148 C 0.5848 0.62792 0.47431 0.0
O149 O 0.60214 0.61717 0.45991 0.0
O150 O 0.60057 0.6346 0.48981 0.0
C151 C 0.65559 0.58017 0.41712 0.0
O152 O 0.64377 0.55075 0.42442 0.0
C153 C 0.69241 0.67613 0.47363 0.0
Zn154 Zn 0.10668 0.88806 0.24536 0.0
Zn155 Zn 0.12976 0.88902 0.20906 0.0
O156 O 0.17206 0.90714 0.22433 0.0
O157 O 0.15363 0.90397 0.25409 0.0
O158 O 0.1432 0.88882 0.18128 0.0
O159 O 0.07098 0.92459 0.2387 0.0
O160 O 0.08679 0.92109 0.20863 0.0
C161 C 0.17743 0.91114 0.24217 0.0
C162 C 0.10526 0.82007 0.22769 0.0
O163 O 0.11881 0.83707 0.2139 0.0
O164 O 0.09648 0.836 0.24281 0.0
C165 C 0.146 0.91657 0.17132 0.0
O166 O 0.14353 0.94726 0.17971 0.0
C167 C 0.06703 0.93382 0.22149 0.0
Zn168 Zn 0.83287 0.63188 0.00655 0.0
Zn169 Zn 0.82561 0.61178 0.04303 0.0
O170 O 0.81201 0.56791 0.02798 0.0
O171 O 0.82007 0.58404 0.99809 0.0
O172 O 0.81767 0.60085 0.07081 0.0
O173 O 0.79435 0.66689 0.00942 0.0
O174 O 0.79286 0.6538 0.0399 0.0
C175 C 0.81154 0.561 0.01019 0.0
C176 C 0.8974 0.63564 0.0281 0.0
O177 O 0.8784 0.62273 0.04129 0.0
O178 O 0.88382 0.6434 0.01213 0.0
C179 C 0.84 0.58539 0.08136 0.0
O180 O 0.86906 0.57331 0.0737 0.0
C181 C 0.78187 0.67196 0.02589 0.0
Zn182 Zn 0.10212 0.08586 0.76799 0.0
Zn183 Zn 0.12419 0.08402 0.80402 0.0
O184 O 0.16672 0.06616 0.78863 0.0
O185 O 0.14884 0.07074 0.75882 0.0
O186 O 0.13846 0.08275 0.83174 0.0
O187 O 0.06713 0.04871 0.77355 0.0
O188 O 0.0808 0.05228 0.80394 0.0
C189 C 0.17244 0.06293 0.77078 0.0
C190 C 0.09984 0.1535 0.78587 0.0
O191 O 0.11364 0.13647 0.79964 0.0
O192 O 0.09092 0.13757 0.7708 0.0
C193 C 0.13742 0.05479 0.84165 0.0
O194 O 0.12945 0.02506 0.83329 0.0
C195 C 0.06218 0.03937 0.79064 0.0
Zn196 Zn 0.65415 0.3482 0.50948 0.0
Zn197 Zn 0.65781 0.36943 0.54555 0.0
O198 O 0.6769 0.41088 0.52971 0.0
O199 O 0.67183 0.39386 0.49984 0.0
O200 O 0.66545 0.38194 0.57322 0.0
O201 O 0.68793 0.30901 0.51425 0.0
O202 O 0.68372 0.32256 0.54453 0.0
C203 C 0.68034 0.41692 0.51189 0.0
C204 C 0.58671 0.34958 0.52904 0.0
O205 O 0.60458 0.36238 0.54272 0.0
O206 O 0.60183 0.34077 0.51366 0.0
C207 C 0.64217 0.39587 0.58375 0.0
O208 O 0.61211 0.40545 0.57615 0.0
C209 C 0.69463 0.30208 0.53152 0.0
Zn210 Zn 0.38741 0.89341 0.26675 0.0
Zn211 Zn 0.36758 0.89611 0.30283 0.0
O212 O 0.32386 0.91317 0.28801 0.0
O213 O 0.34057 0.90903 0.25802 0.0
O214 O 0.3569 0.90205 0.3308 0.0
O215 O 0.42429 0.92939 0.27048 0.0
O216 O 0.41213 0.926 0.301 0.0
C217 C 0.31731 0.91632 0.27022 0.0
C218 C 0.38914 0.82581 0.28558 0.0
O219 O 0.37642 0.8431 0.29952 0.0
O220 O 0.39737 0.84154 0.27029 0.0
C221 C 0.33031 0.89133 0.34 0.0
O222 O 0.30529 0.87462 0.33091 0.0
C223 C 0.43078 0.93811 0.28749 0.0
Zn224 Zn 0.60338 0.13226 0.5131 0.0
Zn225 Zn 0.60844 0.11049 0.54941 0.0
O226 O 0.62269 0.0672 0.53415 0.0
O227 O 0.61582 0.08431 0.50432 0.0
O228 O 0.6126 0.09667 0.57697 0.0
O229 O 0.64305 0.16521 0.51752 0.0
O230 O 0.64371 0.15077 0.5479 0.0
C231 C 0.62389 0.06083 0.51632 0.0
C232 C 0.53768 0.13585 0.53305 0.0
O233 O 0.55589 0.12228 0.54643 0.0
O234 O 0.55232 0.14461 0.51755 0.0
C235 C 0.6415 0.08684 0.58435 0.0
O236 O 0.66926 0.08338 0.57341 0.0
C237 C 0.65592 0.16843 0.53404 0.0
Zn238 Zn 0.09711 0.37224 0.76589 0.0
Zn239 Zn 0.12149 0.37559 0.80151 0.0
O240 O 0.16248 0.39321 0.78494 0.0
O241 O 0.1429 0.38753 0.75552 0.0
O242 O 0.13728 0.37923 0.82891 0.0
O243 O 0.0614 0.40893 0.77176 0.0
O244 O 0.07707 0.406 0.80187 0.0
C245 C 0.16712 0.39581 0.76695 0.0
C246 C 0.09788 0.30512 0.78491 0.0
O247 O 0.11213 0.32281 0.79822 0.0
O248 O 0.08764 0.32041 0.76983 0.0
C249 C 0.1366 0.40831 0.83778 0.0
O250 O 0.12844 0.43706 0.8284 0.0
C251 C 0.05717 0.41825 0.7889 0.0
Zn252 Zn 0.84068 0.84718 0.00823 0.0
Zn253 Zn 0.8326 0.86651 0.04469 0.0
O254 O 0.81951 0.91123 0.03012 0.0
O255 O 0.82848 0.89562 1.00023 0.0
O256 O 0.82419 0.87565 0.07253 0.0
O257 O 0.80152 0.81296 0.0104 0.0
O258 O 0.79901 0.82564 0.04089 0.0
C259 C 0.81961 0.9185 0.01235 0.0
C260 C 0.90466 0.84218 0.03014 0.0
O261 O 0.88544 0.85515 0.04324 0.0
O262 O 0.89135 0.83466 0.0141 0.0
C263 C 0.84199 0.89592 0.08308 0.0
O264 O 0.86714 0.91479 0.07547 0.0
C265 C 0.78808 0.80821 0.02667 0.0
Zn266 Zn 0.38683 0.60774 0.26503 0.0
Zn267 Zn 0.36441 0.60385 0.30101 0.0
O268 O 0.32205 0.58691 0.28535 0.0
O269 O 0.33999 0.59331 0.25566 0.0
O270 O 0.35045 0.6014 0.32867 0.0
O271 O 0.42167 0.56987 0.27028 0.0
O272 O 0.40722 0.57119 0.30062 0.0
C273 C 0.31644 0.58471 0.26743 0.0
C274 C 0.38885 0.67424 0.28411 0.0
O275 O 0.37505 0.65642 0.29752 0.0
O276 O 0.39787 0.6592 0.26877 0.0
C277 C 0.34716 0.57265 0.3377 0.0
O278 O 0.34997 0.5429 0.3284 0.0
C279 C 0.42597 0.55898 0.28717 0.0
Zn280 Zn 0.60317 0.84824 0.49574 0.0
Zn281 Zn 0.60523 0.86805 0.45881 0.0
O282 O 0.62037 0.9126 0.47256 0.0
O283 O 0.61659 0.89682 0.50278 0.0
O284 O 0.60501 0.87928 0.43076 0.0
O285 O 0.64227 0.81455 0.49095 0.0
O286 O 0.64125 0.82821 0.46046 0.0
C287 C 0.62328 0.91974 0.49025 0.0
C288 C 0.5361 0.84372 0.47766 0.0
O289 O 0.5534 0.85621 0.46369 0.0
O290 O 0.55173 0.83599 0.49306 0.0
C291 C 0.6325 0.8806 0.42052 0.0
O292 O 0.66338 0.87682 0.42861 0.0
C293 C 0.65428 0.81085 0.47427 0.0
Zn294 Zn 0.37683 0.37247 0.74198 0.0
Zn295 Zn 0.35629 0.37414 0.7056 0.0
O296 O 0.31215 0.39145 0.71974 0.0
O297 O 0.32934 0.3882 0.74974 0.0
O298 O 0.34625 0.37509 0.6774 0.0
O299 O 0.41263 0.4092 0.73718 0.0
O300 O 0.39878 0.40689 0.70678 0.0
C301 C 0.30594 0.39524 0.73752 0.0
C302 C 0.37953 0.30467 0.7243 0.0
O303 O 0.36673 0.32177 0.71028 0.0
O304 O 0.38763 0.3206 0.73952 0.0
C305 C 0.33183 0.39989 0.66809 0.0
O306 O 0.31905 0.42709 0.67726 0.0
C307 C 0.4174 0.41933 0.72021 0.0
Zn308 Zn 0.84533 0.13124 0.9935 0.0
Zn309 Zn 0.8438 0.11261 0.95638 0.0
O310 O 0.82744 0.0676 0.96941 0.0
O311 O 0.83051 0.08265 0.99975 0.0
O312 O 0.84122 0.10627 0.92799 0.0
O313 O 0.80753 0.1668 0.98929 0.0
O314 O 0.80998 0.15367 0.95885 0.0
C315 C 0.8238 0.06014 0.98704 0.0
C316 C 0.913 0.13524 0.97522 0.0
O317 O 0.89596 0.12308 0.96107 0.0
O318 O 0.89712 0.14249 0.9906 0.0
C319 C 0.83343 0.08013 0.91764 0.0
O320 O 0.82677 0.04966 0.92559 0.0
C321 C 0.79698 0.1716 0.97238 0.0
Zn322 Zn 0.10534 0.60004 0.24378 0.0
Zn323 Zn 0.1264 0.59985 0.20717 0.0
O324 O 0.17054 0.58298 0.22134 0.0
O325 O 0.15316 0.58449 0.25133 0.0
O326 O 0.13658 0.59967 0.17899 0.0
O327 O 0.06955 0.56346 0.23819 0.0
O328 O 0.08422 0.56701 0.20796 0.0
C329 C 0.1768 0.57868 0.23908 0.0
C330 C 0.10283 0.66847 0.22647 0.0
O331 O 0.11554 0.65176 0.21233 0.0
O332 O 0.09473 0.65216 0.24159 0.0
C333 C 0.15043 0.57465 0.16966 0.0
O334 O 0.16256 0.54707 0.17882 0.0
C335 C 0.06516 0.5541 0.22106 0.0
Zn336 Zn 0.31596 0.85039 0.49633 0.0
Zn337 Zn 0.31466 0.87057 0.46005 0.0
O338 O 0.29517 0.91311 0.47501 0.0
O339 O 0.29774 0.89645 0.50508 0.0
O340 O 0.30955 0.88228 0.43206 0.0
O341 O 0.28263 0.81122 0.49148 0.0
O342 O 0.28839 0.82397 0.46114 0.0
C343 C 0.29054 0.91953 0.49271 0.0
C344 C 0.38454 0.85045 0.47818 0.0
O345 O 0.36752 0.86283 0.46402 0.0
O346 O 0.36851 0.84242 0.49341 0.0
C347 C 0.33278 0.8982 0.42241 0.0
O348 O 0.36077 0.9102 0.43113 0.0
C349 C 0.27687 0.80386 0.47418 0.0
Zn350 Zn 0.88337 0.59959 0.23739 0.0
Zn351 Zn 0.86446 0.595 0.20128 0.0
O352 O 0.82037 0.57814 0.21568 0.0
O353 O 0.83626 0.58445 0.24571 0.0
O354 O 0.85537 0.58758 0.17333 0.0
O355 O 0.92002 0.56282 0.23471 0.0
O356 O 0.90845 0.56426 0.20406 0.0
C357 C 0.81355 0.57581 0.23346 0.0
C358 C 0.88613 0.66605 0.21751 0.0
O359 O 0.87335 0.64825 0.2038 0.0
O360 O 0.89392 0.651 0.23309 0.0
C361 C 0.82923 0.59703 0.16331 0.0
O362 O 0.80301 0.61376 0.17141 0.0
C363 C 0.92653 0.55259 0.21795 0.0
Zn364 Zn 0.13163 0.1289 0.99564 0.0
Zn365 Zn 0.1343 0.10711 0.95943 0.0
O366 O 0.14971 0.06374 0.9749 0.0
O367 O 0.14552 0.0815 0.00471 0.0
O368 O 0.1384 0.09451 0.93159 0.0
O369 O 0.16914 0.1641 0.99075 0.0
O370 O 0.1665 0.14992 0.96045 0.0
C371 C 0.15231 0.05765 0.99275 0.0
C372 C 0.06457 0.13237 0.97639 0.0
O373 O 0.0819 0.11867 0.96274 0.0
O374 O 0.08004 0.14045 0.99177 0.0
C375 C 0.13867 0.06428 0.92398 0.0
O376 O 0.13581 0.0363 0.93481 0.0
C377 C 0.17892 0.16889 0.97373 0.0
Zn378 Zn 0.60153 0.3855 0.7404 0.0
Zn379 Zn 0.62001 0.38741 0.70394 0.0
O380 O 0.66455 0.40434 0.71782 0.0
O381 O 0.64859 0.4022 0.748 0.0
O382 O 0.62822 0.39328 0.67576 0.0
O383 O 0.56332 0.42055 0.7369 0.0
O384 O 0.57538 0.41718 0.70638 0.0
C385 C 0.67159 0.40841 0.73548 0.0
C386 C 0.6007 0.31732 0.72203 0.0
O387 O 0.61205 0.3345 0.7077 0.0
O388 O 0.59311 0.33324 0.73735 0.0
C389 C 0.65542 0.38752 0.66579 0.0
O390 O 0.6841 0.37579 0.67406 0.0
C391 C 0.55657 0.42912 0.71987 0.0
Zn392 Zn 0.31772 0.1292 0.51505 0.0
Zn393 Zn 0.31599 0.10999 0.55111 0.0
O394 O 0.29624 0.06735 0.53635 0.0
O395 O 0.2998 0.08331 0.50622 0.0
O396 O 0.30949 0.09943 0.57907 0.0
O397 O 0.28414 0.16865 0.51897 0.0
O398 O 0.29041 0.1572 0.54942 0.0
C399 C 0.29198 0.06064 0.51865 0.0
C400 C 0.38618 0.12893 0.53358 0.0
O401 O 0.36918 0.11649 0.54768 0.0
O402 O 0.37012 0.13714 0.51836 0.0
C403 C 0.33031 0.081 0.58912 0.0
O404 O 0.3571 0.06548 0.58086 0.0
C405 C 0.27872 0.17687 0.53618 0.0
Zn406 Zn 0.60415 0.59315 0.26185 0.0
Zn407 Zn 0.62885 0.58924 0.29743 0.0
O408 O 0.66984 0.57291 0.28048 0.0
O409 O 0.64989 0.57803 0.2511 0.0
O410 O 0.64429 0.58092 0.32461 0.0
O411 O 0.56793 0.55689 0.26735 0.0
O412 O 0.58423 0.55973 0.29732 0.0
C413 C 0.67447 0.5704 0.2625 0.0
C414 C 0.60496 0.66009 0.28176 0.0
O415 O 0.61931 0.64229 0.29508 0.0
O416 O 0.59503 0.64496 0.2666 0.0
C417 C 0.65689 0.60398 0.33569 0.0
O418 O 0.66311 0.63558 0.32904 0.0
C419 C 0.56378 0.5479 0.28456 0.0
Zn420 Zn 0.12475 0.84704 0.01742 0.0
Zn421 Zn 0.12442 0.86858 0.05349 0.0
O422 O 0.14239 0.91131 0.03831 0.0
O423 O 0.1401 0.89379 0.0084 0.0
O424 O 0.12707 0.88114 0.08142 0.0
O425 O 0.16144 0.81119 0.02307 0.0
O426 O 0.15561 0.82469 0.05333 0.0
C427 C 0.1467 0.91732 0.02055 0.0
C428 C 0.05596 0.84466 0.03479 0.0
O429 O 0.07196 0.85838 0.04889 0.0
O430 O 0.07291 0.8362 0.01994 0.0
C431 C 0.14131 0.90783 0.08898 0.0
O432 O 0.15483 0.93231 0.07807 0.0
C433 C 0.16921 0.80575 0.04036 0.0
Zn434 Zn 0.88051 0.37117 0.7626 0.0
Zn435 Zn 0.85521 0.3726 0.79827 0.0
O436 O 0.81503 0.39217 0.78173 0.0
O437 O 0.83472 0.38771 0.75228 0.0
O438 O 0.83829 0.37459 0.82545 0.0
O439 O 0.91577 0.40745 0.76992 0.0
O440 O 0.89893 0.40325 0.79979 0.0
C441 C 0.81063 0.39609 0.7638 0.0
C442 C 0.88016 0.30307 0.78069 0.0
O443 O 0.8655 0.32008 0.79416 0.0
O444 O 0.89021 0.31907 0.76582 0.0
C445 C 0.83574 0.40367 0.83422 0.0
O446 O 0.84139 0.43295 0.82483 0.0
C447 C 0.91914 0.41613 0.78722 0.0
C448 C 0.12565 0.59769 0.13912 0.0
C449 C 0.14929 0.57523 0.14856 0.0
H450 H 0.10475 0.61538 0.1125 0.0
C451 C 0.17061 0.55276 0.13766 0.0
H452 H 0.1086 0.6151 0.14709 0.0
C453 C 0.16864 0.55318 0.1177 0.0
C454 C 0.1448 0.57555 0.10831 0.0
H455 H 0.18901 0.53509 0.14454 0.0
H456 H 0.18567 0.53593 0.10963 0.0
C457 C 0.12321 0.59763 0.11927 0.0
C458 C 0.59599 0.88154 0.39091 0.0
C459 C 0.62927 0.88266 0.39949 0.0
H460 H 0.56657 0.8793 0.36503 0.0
C461 C 0.65919 0.88384 0.38777 0.0
H462 H 0.57237 0.88063 0.39947 0.0
C463 C 0.65583 0.88318 0.36787 0.0
C464 C 0.6225 0.88106 0.35936 0.0
H465 H 0.68522 0.88475 0.39395 0.0
H466 H 0.67931 0.88368 0.35919 0.0
C467 C 0.59266 0.88062 0.37111 0.0
C468 C 0.35625 0.37676 0.63754 0.0
C469 C 0.33285 0.39939 0.64698 0.0
H470 H 0.37691 0.35902 0.61093 0.0
C471 C 0.31164 0.42205 0.63607 0.0
H472 H 0.3732 0.35917 0.6455 0.0
C473 C 0.31354 0.42172 0.61611 0.0
C474 C 0.33717 0.39921 0.60673 0.0
H475 H 0.29341 0.43983 0.64295 0.0
H476 H 0.29665 0.43919 0.60804 0.0
C477 C 0.35859 0.37687 0.61769 0.0
C478 C 0.8307 0.05609 0.88428 0.0
C479 C 0.83158 0.08492 0.89671 0.0
H480 H 0.8313 0.03857 0.85525 0.0
C481 C 0.83135 0.11898 0.88897 0.0
H482 H 0.8307 0.02955 0.88981 0.0
C483 C 0.8313 0.12416 0.86929 0.0
C484 C 0.8318 0.09541 0.85681 0.0
H485 H 0.8316 0.14182 0.89814 0.0
H486 H 0.83187 0.15078 0.86389 0.0
C487 C 0.83099 0.06129 0.86449 0.0
C488 C 0.14432 0.37758 0.88897 0.0
C489 C 0.13956 0.40898 0.89916 0.0
H490 H 0.1476 0.35277 0.86172 0.0
C491 C 0.13647 0.4406 0.88897 0.0
H492 H 0.14711 0.35275 0.89636 0.0
C493 C 0.13675 0.44059 0.86899 0.0
C494 C 0.14027 0.40898 0.85883 0.0
H495 H 0.13293 0.46526 0.89638 0.0
H496 H 0.13333 0.46527 0.86154 0.0
C497 C 0.14473 0.37759 0.86907 0.0
C498 C 0.85701 0.91631 0.11606 0.0
C499 C 0.83707 0.89475 0.10403 0.0
H500 H 0.8715 0.92891 0.14469 0.0
C501 C 0.81401 0.87028 0.11227 0.0
H502 H 0.87487 0.93553 0.1102 0.0
C503 C 0.81218 0.86632 0.13207 0.0
C504 C 0.83322 0.88687 0.14407 0.0
H505 H 0.79814 0.85331 0.10342 0.0
H506 H 0.79497 0.8465 0.13792 0.0
C507 C 0.85504 0.91248 0.13586 0.0
C508 C 0.35042 0.6043 0.38877 0.0
C509 C 0.34606 0.57299 0.3991 0.0
H510 H 0.35358 0.62883 0.36143 0.0
C511 C 0.34008 0.5417 0.38907 0.0
H512 H 0.35475 0.62895 0.39604 0.0
C513 C 0.33958 0.5416 0.36908 0.0
C514 C 0.34465 0.57287 0.35878 0.0
H515 H 0.33649 0.51717 0.39662 0.0
H516 H 0.3357 0.51697 0.36172 0.0
C517 C 0.34954 0.60427 0.36888 0.0
C518 C 0.61969 0.09132 0.63686 0.0
C519 C 0.65096 0.07947 0.6454 0.0
H520 H 0.59205 0.10242 0.61105 0.0
C521 C 0.67878 0.0686 0.63365 0.0
H522 H 0.59759 0.09962 0.64547 0.0
C523 C 0.67562 0.07038 0.61376 0.0
C524 C 0.64445 0.08272 0.60529 0.0
H525 H 0.70316 0.05925 0.63981 0.0
H526 H 0.6977 0.06241 0.60506 0.0
C527 C 0.61642 0.09276 0.61708 0.0
C528 C 0.83026 0.37266 0.86556 0.0
C529 C 0.83096 0.4042 0.85518 0.0
H530 H 0.82955 0.34818 0.89297 0.0
C531 C 0.82949 0.43615 0.86517 0.0
H532 H 0.83131 0.34758 0.85835 0.0
C533 C 0.82842 0.43651 0.88513 0.0
C534 C 0.82901 0.40493 0.89549 0.0
H535 H 0.82991 0.46093 0.85761 0.0
H536 H 0.82797 0.46152 0.89243 0.0
C537 C 0.8294 0.37303 0.88546 0.0
C538 C 0.34894 0.06369 0.64139 0.0
C539 C 0.32402 0.08536 0.6504 0.0
H540 H 0.3704 0.04518 0.61505 0.0
C541 C 0.29948 0.10347 0.63909 0.0
H542 H 0.36817 0.04921 0.64966 0.0
C543 C 0.30071 0.10103 0.61919 0.0
C544 C 0.32658 0.08051 0.61016 0.0
H545 H 0.27984 0.12024 0.64555 0.0
H546 H 0.28197 0.11606 0.61088 0.0
C547 C 0.35025 0.06135 0.62151 0.0
C548 C 0.64933 0.55799 0.38355 0.0
C549 C 0.65918 0.58472 0.3962 0.0
H550 H 0.64116 0.54295 0.35449 0.0
C551 C 0.67094 0.61684 0.38867 0.0
H552 H 0.64031 0.53291 0.38886 0.0
C553 C 0.67144 0.62262 0.369 0.0
C554 C 0.66023 0.59643 0.35636 0.0
H555 H 0.67897 0.63797 0.39799 0.0
H556 H 0.67972 0.648 0.36375 0.0
C557 C 0.64986 0.56378 0.36383 0.0
C558 C 0.15382 0.94397 0.13897 0.0
C559 C 0.14726 0.91416 0.15025 0.0
H560 H 0.15733 0.96536 0.11072 0.0
C561 C 0.13962 0.88226 0.14116 0.0
H562 H 0.15978 0.96893 0.14555 0.0
C563 C 0.13767 0.88037 0.12131 0.0
C564 C 0.14378 0.91021 0.11002 0.0
H565 H 0.13428 0.85882 0.14939 0.0
H566 H 0.13132 0.85542 0.11483 0.0
C567 C 0.15237 0.94195 0.11904 0.0
C568 C 0.86113 0.57055 0.11422 0.0
C569 C 0.83522 0.58508 0.10233 0.0
H570 H 0.87948 0.56276 0.14271 0.0
C571 C 0.80593 0.6015 0.11074 0.0
H572 H 0.88395 0.55762 0.10825 0.0
C573 C 0.80336 0.60455 0.13057 0.0
C574 C 0.83001 0.59123 0.14242 0.0
H575 H 0.78542 0.61292 0.10199 0.0
H576 H 0.78095 0.61814 0.13657 0.0
C577 C 0.85856 0.57358 0.13402 0.0
C578 C 0.14574 0.08898 0.87177 0.0
C579 C 0.14098 0.05653 0.86268 0.0
H580 H 0.14875 0.11685 0.89812 0.0
C581 C 0.13734 0.02622 0.87397 0.0
H582 H 0.1487 0.11286 0.86354 0.0
C583 C 0.13737 0.0285 0.8939 0.0
C584 C 0.14092 0.06116 0.90295 0.0
H585 H 0.13369 0.00078 0.86742 0.0
H586 H 0.13383 0.00478 0.90218 0.0
C587 C 0.14566 0.09128 0.89164 0.0
C588 C 0.67827 0.38421 0.61312 0.0
C589 C 0.64722 0.39707 0.60471 0.0
H590 H 0.70535 0.37116 0.63901 0.0
C591 C 0.61999 0.40878 0.61659 0.0
H592 H 0.69982 0.37503 0.60438 0.0
C593 C 0.62313 0.40644 0.6364 0.0
C594 C 0.65362 0.39239 0.64483 0.0
H595 H 0.59577 0.41892 0.61062 0.0
H596 H 0.60125 0.41503 0.64508 0.0
C597 C 0.68145 0.38194 0.63299 0.0
C598 C 0.30155 0.88151 0.3718 0.0
C599 C 0.32912 0.89569 0.36101 0.0
H600 H 0.28088 0.87139 0.39965 0.0
C601 C 0.35658 0.91288 0.37057 0.0
H602 H 0.27994 0.86822 0.3649 0.0
C603 C 0.35712 0.91474 0.39047 0.0
C604 C 0.33023 0.89946 0.40131 0.0
H605 H 0.37816 0.92431 0.36272 0.0
H606 H 0.37912 0.92743 0.39735 0.0
C607 C 0.30209 0.88338 0.39174 0.0
C608 C -0.0104 0.62334 0.04766 0.0
C609 C 0.01003 0.63726 0.03278 0.0
H610 H 0.9379 0.6121 0.05797 0.0
C611 C -0.00707 0.65359 0.01735 0.0
H612 H 0.00192 0.61072 0.05979 0.0
C613 C 0.95637 0.65438 0.0163 0.0
C614 C 0.93589 0.63889 0.03067 0.0
H615 H 0.00777 0.6649 0.00571 0.0
H616 H 0.9442 0.66623 0.00389 0.0
C617 C 0.95289 0.62417 0.04662 0.0
C618 C 0.58534 0.71787 0.2685 0.0
C619 C 0.60181 0.6988 0.28319 0.0
H620 H 0.57335 0.76817 0.2567 0.0
C621 C 0.61702 0.71729 0.29843 0.0
H622 H 0.57307 0.70456 0.25662 0.0
C623 C 0.61714 0.75405 0.29848 0.0
C624 C 0.60209 0.77303 0.28329 0.0
H625 H 0.62982 0.70341 0.31 0.0
H626 H 0.63004 0.76754 0.3101 0.0
C627 C 0.58549 0.75446 0.26854 0.0
C628 C 0.49308 0.35676 0.54736 0.0
C629 C 0.47403 0.34175 0.53226 0.0
H630 H 0.54364 0.3711 0.55824 0.0
C631 C 0.49259 0.32733 0.51682 0.0
H632 H 0.47963 0.36813 0.55948 0.0
C633 C 0.52912 0.32921 0.51606 0.0
C634 C 0.54814 0.3455 0.53075 0.0
H635 H 0.47886 0.31541 0.50497 0.0
H636 H 0.54237 0.31846 0.50371 0.0
C637 C 0.52978 0.35859 0.54662 0.0
C638 C 0.90078 0.24591 0.76707 0.0
C639 C 0.88408 0.26438 0.78186 0.0
H640 H 0.91437 0.19601 0.75533 0.0
C641 C 0.86987 0.24535 0.7972 0.0
H642 H 0.91227 0.25967 0.7551 0.0
C643 C 0.87112 0.20863 0.79734 0.0
C644 C 0.8866 0.19016 0.78215 0.0
H645 H 0.85695 0.25874 0.80887 0.0
H646 H 0.85905 0.19475 0.80909 0.0
C647 C 0.90204 0.2093 0.76722 0.0
C648 C 0.96597 0.35354 0.95546 0.0
C649 C 0.94685 0.34013 0.97098 0.0
H650 H 0.0167 0.36492 0.94387 0.0
C651 C 0.96527 0.32478 0.98625 0.0
H652 H 0.95259 0.36543 0.94343 0.0
C653 C 0.00187 0.32444 0.98648 0.0
C654 C 0.02107 0.33948 0.97147 0.0
H655 H 0.95144 0.31387 0.99835 0.0
H656 H 0.01509 0.31332 0.99878 0.0
C657 C 0.00273 0.35324 0.95571 0.0
C658 C 0.90908 0.75941 0.23045 0.0
C659 C 0.89224 0.77883 0.21603 0.0
H660 H 0.9206 0.70896 0.2421 0.0
C661 C 0.87594 0.76067 0.201 0.0
H662 H 0.92221 0.77244 0.24215 0.0
C663 C 0.87502 0.72387 0.20096 0.0
C664 C 0.89034 0.70463 0.21598 0.0
H665 H 0.86277 0.77484 0.18965 0.0
H666 H 0.86123 0.7106 0.18958 0.0
C667 C 0.90812 0.72287 0.23043 0.0
C668 C 0.49022 0.62292 0.4572 0.0
C669 C 0.47199 0.6367 0.47295 0.0
H670 H 0.5402 0.60926 0.44521 0.0
C671 C 0.49136 0.64952 0.4885 0.0
H672 H 0.47613 0.6128 0.44498 0.0
C673 C 0.5279 0.64727 0.48868 0.0
C674 C 0.54614 0.63225 0.47329 0.0
H675 H 0.47827 0.66044 0.50085 0.0
H676 H 0.54179 0.65677 0.50111 0.0
C677 C 0.52695 0.62076 0.45735 0.0
C678 C 0.61133 0.22268 0.70602 0.0
C679 C 0.59993 0.2043 0.72227 0.0
H680 H 0.62045 0.27285 0.6931 0.0
C681 C 0.58654 0.22341 0.73778 0.0
H682 H 0.6217 0.20876 0.6938 0.0
C683 C 0.58576 0.26 0.73736 0.0
C684 C 0.59839 0.2785 0.72144 0.0
H685 H 0.57727 0.21016 0.75047 0.0
H686 H 0.57595 0.27377 0.74977 0.0
C687 C 0.61059 0.25943 0.70561 0.0
C688 C 0.36936 0.24683 0.70796 0.0
C689 C 0.38292 0.26594 0.72344 0.0
H690 H 0.35803 0.1961 0.69636 0.0
C691 C 0.39795 0.2475 0.73879 0.0
H692 H 0.35766 0.26022 0.69589 0.0
C693 C 0.39817 0.21091 0.73905 0.0
C694 C 0.38334 0.19172 0.72398 0.0
H695 H 0.40887 0.26131 0.75089 0.0
H696 H 0.40929 0.19771 0.75135 0.0
C697 C 0.36956 0.21007 0.70823 0.0
C698 C 0.08684 0.72584 0.24162 0.0
C699 C 0.1 0.70726 0.22585 0.0
H700 H 0.07799 0.77584 0.25453 0.0
C701 C 0.11259 0.72625 0.21008 0.0
H702 H 0.07678 0.7121 0.25397 0.0
C703 C 0.11333 0.76293 0.21041 0.0
C704 C 0.10148 0.78144 0.22652 0.0
H705 H 0.12283 0.7128 0.19767 0.0
H706 H 0.12405 0.77671 0.19824 0.0
C707 C 0.08757 0.76246 0.24194 0.0
C708 C 0.08 0.21058 0.77179 0.0
C709 C 0.09617 0.1922 0.78683 0.0
H710 H 0.06757 0.26037 0.7595 0.0
C711 C 0.11056 0.21134 0.80206 0.0
H712 H 0.0684 0.19673 0.7599 0.0
C713 C 0.11011 0.24808 0.80182 0.0
C714 C 0.09523 0.2664 0.78636 0.0
H715 H 0.12313 0.198 0.81389 0.0
H716 H 0.12233 0.26207 0.81348 0.0
C717 C 0.07951 0.24718 0.77157 0.0
C718 C 0.40796 0.73212 0.27097 0.0
C719 C 0.39225 0.71286 0.28575 0.0
H720 H 0.41958 0.78257 0.25942 0.0
C721 C 0.37799 0.73112 0.30137 0.0
H722 H 0.41945 0.71898 0.25878 0.0
C723 C 0.37807 0.76787 0.30175 0.0
C724 C 0.39239 0.78706 0.2865 0.0
H725 H 0.36579 0.71709 0.31304 0.0
H726 H 0.36591 0.7812 0.31367 0.0
C727 C 0.40802 0.7687 0.27133 0.0
C728 C 0.44438 0.1204 0.55006 0.0
C729 C 0.42479 0.13339 0.53456 0.0
H730 H 0.49551 0.11124 0.56189 0.0
C731 C 0.44259 0.15 0.51952 0.0
H732 H 0.43146 0.10766 0.56194 0.0
C733 C 0.47911 0.15225 0.51954 0.0
C734 C 0.49889 0.13787 0.53458 0.0
H735 H 0.42837 0.16072 0.50745 0.0
H736 H 0.49186 0.16438 0.50743 0.0
C737 C 0.48109 0.12259 0.55007 0.0
C738 C 0.96378 0.82322 0.01855 0.0
C739 C 0.94314 0.83878 0.03284 0.0
H740 H 0.01527 0.8126 0.00805 0.0
C741 C 0.95998 0.85358 0.04876 0.0
H742 H 0.95175 0.81131 0.00616 0.0
C743 C -0.0033 0.85439 0.04984 0.0
C744 C 0.01727 0.84039 0.03502 0.0
H745 H 0.94486 0.86574 0.06004 0.0
H746 H 0.00891 0.86705 0.06195 0.0
C747 C 0.00032 0.82401 0.01963 0.0
C748 C 0.44215 0.85722 0.46112 0.0
C749 C 0.42317 0.84605 0.47719 0.0
H750 H 0.49274 0.86493 0.44854 0.0
C751 C 0.44159 0.83137 0.49266 0.0
H752 H 0.42878 0.86843 0.4489 0.0
C753 C 0.47815 0.82922 0.49243 0.0
C754 C 0.49728 0.84171 0.47671 0.0
H755 H 0.42783 0.82216 0.50521 0.0
H756 H 0.49144 0.81864 0.50484 0.0
C757 C 0.47884 0.85508 0.46089 0.0
C758 C 0.00742 0.12441 0.95898 0.0
C759 C 0.02597 0.13675 0.97495 0.0
H760 H 0.95716 0.11444 0.94644 0.0
C761 C 0.00701 0.1514 0.99019 0.0
H762 H 0.02119 0.1131 0.94695 0.0
C763 C 0.97039 0.15216 0.9899 0.0
C764 C 0.95175 0.13832 0.97435 0.0
H765 H 0.0204 0.16143 1.00266 0.0
H766 H 0.95671 0.16271 1.00216 0.0
C767 C 0.97068 0.12521 0.95868 0.0
C768 C 0.15264 0.4606 0.01652 0.0
C769 C 0.15143 0.45433 0.99675 0.0
H770 H 0.14958 0.49854 0.03886 0.0
C771 C 0.15125 0.4829 0.98415 0.0
H772 H 0.15332 0.43909 0.02663 0.0
C773 C 0.14921 0.517 0.9912 0.0
C774 C 0.14725 0.52307 0.01098 0.0
H775 H 0.15063 0.47892 0.96886 0.0
H776 H 0.1473 0.53844 0.9811 0.0
C777 C 0.1505 0.49467 0.02357 0.0
C778 C 0.75321 0.91336 0.23143 0.0
C779 C 0.78208 0.91252 0.24381 0.0
H780 H 0.69755 0.91072 0.2288 0.0
C781 C 0.77636 0.91364 0.26363 0.0
H782 H 0.75679 0.91288 0.21611 0.0
C783 C 0.74243 0.9122 0.27094 0.0
C784 C 0.71369 0.90969 0.25855 0.0
H785 H 0.79814 0.9136 0.27356 0.0
H786 H 0.73894 0.91103 0.28626 0.0
C787 C 0.71927 0.91197 0.23874 0.0
C788 C 0.33799 0.48318 0.52252 0.0
C789 C 0.34046 0.45499 0.5098 0.0
H790 H 0.33741 0.53873 0.52584 0.0
C791 C 0.33935 0.46154 0.49005 0.0
H792 H 0.3383 0.47893 0.5378 0.0
C793 C 0.33895 0.49582 0.48316 0.0
C794 C 0.3396 0.52405 0.49592 0.0
H795 H 0.34067 0.44026 0.47985 0.0
H796 H 0.34013 0.5001 0.4679 0.0
C797 C 0.33753 0.51744 0.51564 0.0
C798 C 0.7519 0.05038 0.76732 0.0
C799 C 0.78037 0.05531 0.75499 0.0
H800 H 0.69634 0.05143 0.77054 0.0
C801 C 0.7741 0.05947 0.73532 0.0
H802 H 0.75588 0.04653 0.78248 0.0
C803 C 0.73986 0.06249 0.72845 0.0
C804 C 0.71154 0.06132 0.74116 0.0
H805 H 0.79558 0.06288 0.7254 0.0
H806 H 0.73577 0.06816 0.71346 0.0
C807 C 0.71777 0.05333 0.76046 0.0
C808 C 0.80638 0.51747 0.98391 0.0
C809 C 0.80534 0.52502 0.00354 0.0
H810 H 0.81122 0.47786 0.96253 0.0
C811 C 0.80277 0.49744 0.01668 0.0
H812 H 0.80779 0.53826 0.9734 0.0
C813 C 0.80466 0.46288 0.01042 0.0
C814 C 0.80915 0.45541 0.99093 0.0
H815 H 0.80147 0.50245 0.03186 0.0
H816 H 0.80453 0.44213 0.02099 0.0
C817 C 0.80828 0.48288 0.97765 0.0
C818 C 0.21373 0.05215 0.74386 0.0
C819 C 0.20769 0.05409 0.76364 0.0
H820 H 0.2517 0.05256 0.72146 0.0
C821 C 0.23622 0.05179 0.7762 0.0
H822 H 0.19219 0.05321 0.73379 0.0
C823 C 0.27033 0.05118 0.76909 0.0
C824 C 0.27642 0.05299 0.74931 0.0
H825 H 0.23237 0.0527 0.79149 0.0
H826 H 0.2919 0.05155 0.77915 0.0
C827 C 0.24784 0.05165 0.73675 0.0
C828 C 0.69477 0.47966 0.51806 0.0
C829 C 0.6894 0.45235 0.50504 0.0
H830 H 0.69682 0.53497 0.52235 0.0
C831 C 0.68795 0.46015 0.48542 0.0
H832 H 0.69658 0.47449 0.53323 0.0
C833 C 0.68792 0.4949 0.47914 0.0
C834 C 0.68943 0.52233 0.4924 0.0
H835 H 0.68437 0.43959 0.47496 0.0
H836 H 0.68411 0.50021 0.4641 0.0
C837 C 0.69487 0.51435 0.51179 0.0
C838 C 0.24067 0.92454 0.23674 0.0
C839 C 0.21251 0.92044 0.24937 0.0
H840 H 0.2962 0.9273 0.23355 0.0
C841 C 0.21886 0.92146 0.26914 0.0
H842 H 0.23657 0.92442 0.22145 0.0
C843 C 0.25307 0.92298 0.27612 0.0
C844 C 0.28144 0.9236 0.26342 0.0
H845 H 0.19759 0.91895 0.27928 0.0
H846 H 0.2573 0.92133 0.29137 0.0
C847 C 0.27485 0.92619 0.24371 0.0
C848 C 0.63476 -0.00259 0.52249 0.0
C849 C 0.63105 0.02513 0.50948 0.0
H850 H 0.63571 0.94199 0.52649 0.0
C851 C 0.63049 0.01793 0.48982 0.0
H852 H 0.63577 0.00218 0.5377 0.0
C853 C 0.63039 0.98342 0.48337 0.0
C854 C 0.63084 0.95567 0.49649 0.0
H855 H 0.62821 0.03885 0.47942 0.0
H856 H 0.62788 0.97859 0.46821 0.0
C857 C 0.63466 0.96293 0.51604 0.0
C858 C 0.23072 0.40854 0.77138 0.0
C859 C 0.202 0.40404 0.75915 0.0
H860 H 0.2864 0.40999 0.77398 0.0
C861 C 0.20765 0.40305 0.73931 0.0
H862 H 0.22718 0.40994 0.78668 0.0
C863 C 0.24165 0.40288 0.73199 0.0
C864 C 0.27046 0.40381 0.7444 0.0
H865 H 0.18595 0.40016 0.72946 0.0
H866 H 0.24529 0.39972 0.71677 0.0
C867 C 0.26466 0.40849 0.76406 0.0
C868 C 0.81015 0.98202 0.01887 0.0
C869 C 0.81314 0.95453 0.00573 0.0
H870 H 0.81069 0.03733 0.02315 0.0
C871 C 0.81392 0.9622 0.9861 0.0
H872 H 0.80906 0.9769 0.03405 0.0
C873 C 0.81498 -0.00317 0.97981 0.0
C874 C 0.81526 0.02426 0.99308 0.0
H875 H 0.81563 0.94148 0.97559 0.0
H876 H 0.81764 0.00194 0.96469 0.0
C877 C 0.81118 0.01663 0.01259 0.0
C878 C 0.27526 0.57515 0.2403 0.0
C879 C 0.28148 0.57546 0.26009 0.0
H880 H 0.23698 0.57547 0.21801 0.0
C881 C 0.25333 0.57045 0.27263 0.0
H882 H 0.29655 0.57832 0.23023 0.0
C883 C 0.21922 0.56855 0.26558 0.0
C884 C 0.21272 0.57178 0.24589 0.0
H885 H 0.25736 0.57001 0.28792 0.0
H886 H 0.19784 0.5667 0.27569 0.0
C887 C 0.24113 0.57335 0.23325 0.0
C888 C 0.28035 0.01769 0.49261 0.0
C889 C 0.28263 0.02503 0.51224 0.0
H890 H 0.2807 0.97832 0.47093 0.0
C891 C 0.28074 -0.00273 0.52533 0.0
H892 H 0.28113 0.03857 0.48213 0.0
C893 C 0.28026 0.96269 0.51887 0.0
C894 C 0.28182 0.95531 0.49922 0.0
H895 H 0.28198 0.00207 0.54054 0.0
H896 H 0.28104 0.94179 0.52934 0.0
C897 C 0.28001 0.98312 0.48615 0.0
C898 C 0.71551 0.56508 0.23491 0.0
C899 C 0.7097 0.56344 0.25472 0.0
H900 H 0.75326 0.57014 0.21251 0.0
C901 C 0.73848 0.55981 0.26703 0.0
H902 H 0.69379 0.56743 0.22501 0.0
C903 C 0.77246 0.56127 0.25983 0.0
C904 C 0.77826 0.56642 0.24021 0.0
H905 H 0.73487 0.55801 0.28232 0.0
H906 H 0.79416 0.56033 0.26981 0.0
C907 C 0.74957 0.56658 0.22771 0.0
C908 C 0.15856 0.95922 0.994 0.0
C909 C 0.15569 0.95271 0.0137 0.0
H910 H 0.1601 -0.00227 0.97184 0.0
C911 C 0.15765 0.98089 0.02646 0.0
H912 H 0.1577 0.93796 0.98378 0.0
C913 C 0.15923 0.01516 0.01958 0.0
C914 C 0.15876 0.0218 0.99983 0.0
H915 H 0.15596 0.97669 0.04171 0.0
H916 H 0.15877 0.03647 0.02977 0.0
C917 C 0.16004 -0.00652 0.98712 0.0
C918 C 0.77003 0.4065 0.73638 0.0
C919 C 0.77632 0.40722 0.75616 0.0
H920 H 0.73158 0.40687 0.71415 0.0
C921 C 0.74863 0.41529 0.76855 0.0
H922 H 0.791 0.40093 0.72641 0.0
C923 C 0.71468 0.41906 0.76148 0.0
C924 C 0.70782 0.41459 0.74191 0.0
H925 H 0.75277 0.41671 0.78381 0.0
H926 H 0.69351 0.42314 0.77154 0.0
C927 C 0.736 0.41013 0.7293 0.0
C928 C 0.20356 0.7537 0.03075 0.0
C929 C 0.18616 0.77223 0.04523 0.0
H930 H 0.21061 0.7037 0.01765 0.0
C931 C 0.17481 0.75403 0.06152 0.0
H932 H 0.21367 0.76728 0.01835 0.0
C933 C 0.17307 0.71748 0.06113 0.0
C934 C 0.18275 0.69949 0.04447 0.0
H935 H 0.16211 0.76777 0.07315 0.0
H936 H 0.15915 0.70419 0.07249 0.0
C937 C 0.20177 0.71727 0.03035 0.0
C938 C 0.51983 0.94036 0.30735 0.0
C939 C 0.53761 0.94766 0.29028 0.0
H940 H 0.4696 0.93271 0.32012 0.0
C941 C 0.52 0.96578 0.27568 0.0
H942 H 0.53305 0.92717 0.31903 0.0
C943 C 0.48366 0.96916 0.27636 0.0
C944 C 0.46502 0.95407 0.29153 0.0
H945 H 0.53348 0.97276 0.26263 0.0
H946 H 0.47006 0.97855 0.26376 0.0
C947 C 0.48336 0.94363 0.30799 0.0
C948 C 0.28383 0.22908 0.55693 0.0
C949 C 0.26988 0.21369 0.54036 0.0
H950 H 0.31058 0.27369 0.56825 0.0
C951 C 0.25974 0.2355 0.52516 0.0
H952 H 0.291 0.21312 0.56913 0.0
C953 C 0.27139 0.27002 0.52457 0.0
C954 C 0.29234 0.28302 0.53941 0.0
H955 H 0.24778 0.22458 0.51247 0.0
H956 H 0.26767 0.28499 0.51157 0.0
C957 C 0.29529 0.2638 0.5564 0.0
C958 C 0.97666 0.00205 0.77901 0.0
C959 C 0.9569 0.02011 0.79273 0.0
H960 H 0.02805 -0.0072 0.76806 0.0
C961 C 0.97321 0.03073 0.80973 0.0
H962 H 0.96444 -0.00743 0.76606 0.0
C963 C 0.00978 0.03099 0.81086 0.0
C964 C 0.02961 0.02057 0.79498 0.0
H965 H 0.95839 0.04397 0.82078 0.0
H966 H 0.02201 0.04451 0.82269 0.0
C967 C 0.0131 0.00215 0.78018 0.0
C968 C 0.21239 0.22087 0.98407 0.0
C969 C 0.19695 0.20187 0.96915 0.0
H970 H 0.21835 0.27147 0.99659 0.0
C971 C 0.1885 0.21935 0.95209 0.0
H972 H 0.22033 0.20783 0.99713 0.0
C973 C 0.18739 0.25594 0.95177 0.0
C974 C 0.19477 0.27471 0.96851 0.0
H975 H 0.17745 0.20521 0.94013 0.0
H976 H 0.17552 0.26884 0.93958 0.0
C977 C 0.21125 0.25735 0.98376 0.0
C978 C 0.98099 0.9422 0.19834 0.0
C979 C 0.96157 0.95063 0.21472 0.0
H980 H 0.03216 0.93106 0.1875 0.0
C981 C 0.97833 0.96757 0.22994 0.0
H982 H 0.96851 0.92989 0.1862 0.0
C983 C 0.01478 0.9683 0.23068 0.0
C984 C 0.03432 0.95193 0.21624 0.0
H985 H 0.96366 0.97541 0.24247 0.0
H986 H 0.0273 0.97668 0.24378 0.0
C987 C 0.01757 0.94288 0.1991 0.0
C988 C 0.29247 0.71784 0.45247 0.0
C989 C 0.29016 0.69778 0.4692 0.0
H990 H 0.28777 0.76917 0.44055 0.0
C991 C 0.26985 0.71021 0.48445 0.0
H992 H 0.30728 0.70841 0.44032 0.0
C993 C 0.25821 0.74485 0.4845 0.0
C994 C 0.26779 0.76734 0.46953 0.0
H995 H 0.26664 0.69461 0.49725 0.0
H996 H 0.24678 0.75519 0.49748 0.0
C997 C 0.28104 0.75268 0.45258 0.0
C998 C 0.47904 0.01149 0.73415 0.0
C999 C 0.45876 0.0254 0.71921 0.0
H1000 H 0.53026 0.00843 0.74634 0.0
C1001 C 0.47526 0.03449 0.702 0.0
H1002 H 0.46683 0.00312 0.74733 0.0
C1003 C 0.5117 0.0376 0.70144 0.0
C1004 C 0.53132 0.03142 0.71806 0.0
H1005 H 0.46017 0.04442 0.69004 0.0
H1006 H 0.5236 0.04972 0.68906 0.0
C1007 C 0.51536 0.01461 0.73359 0.0
C1008 C 0.78015 0.25694 0.94992 0.0
C1009 C 0.77348 0.27574 0.96674 0.0
H1010 H 0.79234 0.20657 0.93846 0.0
C1011 C 0.75921 0.25808 0.98249 0.0
H1012 H 0.78997 0.27006 0.9373 0.0
C1013 C 0.76083 0.22166 0.98322 0.0
C1014 C 0.77634 0.20322 0.9681 0.0
H1015 H 0.75236 0.27221 0.99536 0.0
H1016 H 0.75507 0.20866 0.9966 0.0
C1017 C 0.78159 0.22043 0.95061 0.0
C1018 C 0.69882 0.7688 0.48621 0.0
C1019 C 0.67959 0.78247 0.4708 0.0
H1020 H 0.72074 0.7227 0.49876 0.0
C1021 C 0.67865 0.76387 0.45358 0.0
H1022 H 0.70114 0.78332 0.49941 0.0
C1023 C 0.69006 0.72906 0.45317 0.0
C1024 C 0.70186 0.71297 0.47009 0.0
H1025 H 0.66487 0.77432 0.44129 0.0
H1026 H 0.68436 0.71362 0.4406 0.0
C1027 C 0.71034 0.73414 0.48577 0.0
C1028 C 0.76706 0.72205 0.04671 0.0
C1029 C 0.76227 0.70459 0.02928 0.0
H1030 H 0.77865 0.77129 0.05964 0.0
C1031 C 0.75012 0.72366 0.01345 0.0
H1032 H 0.77515 0.70784 0.05937 0.0
C1033 C 0.75227 0.76007 0.01358 0.0
C1034 C 0.76623 0.77706 0.0296 0.0
H1035 H 0.74471 0.71062 1.00005 0.0
H1036 H 0.74834 0.77413 1.0003 0.0
C1037 C 0.76912 0.75855 0.04686 0.0
C1038 C 0.69121 0.25141 0.55352 0.0
C1039 C 0.70411 0.26569 0.5364 0.0
H1040 H 0.66493 0.20768 0.56618 0.0
C1041 C 0.71343 0.24288 0.52153 0.0
H1042 H 0.68477 0.26817 0.56549 0.0
C1043 C 0.70168 0.20839 0.52186 0.0
C1044 C 0.68147 0.19648 0.53727 0.0
H1045 H 0.72463 0.25294 0.50843 0.0
H1046 H 0.70457 0.19259 0.50913 0.0
C1047 C 0.67962 0.21673 0.55391 0.0
C1048 C 0.9697 0.45335 0.77891 0.0
C1049 C 0.95136 0.43438 0.79283 0.0
H1050 H 0.02007 0.46423 0.76712 0.0
C1051 C 0.969 0.42367 0.80946 0.0
H1052 H 0.9564 0.46289 0.76624 0.0
C1053 C 0.00561 0.42447 0.80997 0.0
C1054 C 0.02415 0.43592 0.79383 0.0
H1055 H 0.95527 0.40969 0.82064 0.0
H1056 H 0.01899 0.41099 0.8215 0.0
C1057 C 0.00616 0.45418 0.77943 0.0
C1058 C 0.47744 0.54615 0.30759 0.0
C1059 C 0.45761 0.53827 0.29129 0.0
H1060 H 0.52913 0.55424 0.31843 0.0
C1061 C 0.4734 0.51962 0.27632 0.0
H1062 H 0.46566 0.55982 0.31952 0.0
C1063 C 0.50974 0.51641 0.27567 0.0
C1064 C 0.53017 0.532 0.28997 0.0
H1065 H 0.45832 0.51222 0.26386 0.0
H1066 H 0.52178 0.50671 0.26271 0.0
C1067 C 0.51391 0.54291 0.30694 0.0
C1068 C 0.46792 0.43213 0.69912 0.0
C1069 C 0.44939 0.43922 0.71598 0.0
H1070 H 0.51866 0.42441 0.68691 0.0
C1071 C 0.46648 0.4566 0.73095 0.0
H1072 H 0.45516 0.41951 0.68716 0.0
C1073 C 0.50285 0.45945 0.73081 0.0
C1074 C 0.52209 0.44478 0.71573 0.0
H1075 H 0.45244 0.46346 0.74386 0.0
H1076 H 0.51594 0.46833 0.74364 0.0
C1077 C 0.50442 0.43499 0.69898 0.0
C1078 C 0.97923 0.54272 0.19805 0.0
C1079 C 0.95999 0.53447 0.21452 0.0
H1080 H 0.03003 0.55476 0.18711 0.0
C1081 C 0.97727 0.51875 0.23003 0.0
H1082 H 0.96641 0.55402 0.18568 0.0
C1083 C 0.01373 0.51919 0.23086 0.0
C1084 C 0.03277 0.53537 0.21618 0.0
H1085 H 0.96282 0.51099 0.24264 0.0
H1086 H 0.02645 0.51174 0.24409 0.0
C1087 C 0.0158 0.54316 0.19889 0.0
loop_
_geom_bond_atom_site_label_1
_geom_bond_atom_site_label_2
_geom_bond_distance
_geom_bond_site_symmetry_2
_ccdc_geom_bond_type
Zn0 O3 2.031 . S
Zn0 O5 2.049 . S
Zn0 O10 2.067 . S
Zn1 O2 1.962 . S
Zn1 O4 1.986 . S
Zn1 O6 1.996 . S
Zn1 O9 1.943 . S
O2 Zn1 1.962 . S
O2 C7 1.254 . S
O3 Zn0 2.031 . S
O3 C7 1.269 . S
O4 Zn1 1.986 . S
O4 C11 1.262 . S
O5 Zn0 2.049 . S
O5 C13 1.260 . S
O6 Zn1 1.996 . S
O6 C13 1.257 . S
C7 O2 1.254 . S
C7 O3 1.269 . S
C8 O9 1.249 . S
C8 O10 1.270 . S
O9 Zn1 1.943 . S
O9 C8 1.249 . S
O10 Zn0 2.067 . S
O10 C8 1.270 . S
C11 O4 1.262 . S
C11 O12 1.232 . S
O12 C11 1.232 . S
C13 O5 1.260 . S
C13 O6 1.257 . S
Zn14 O17 2.031 . S
Zn14 O19 2.049 . S
Zn14 O24 2.067 . S
Zn15 O16 1.962 . S
Zn15 O18 1.986 . S
Zn15 O20 1.996 . S
Zn15 O23 1.943 . S
O16 Zn15 1.962 . S
O16 C21 1.254 . S
O17 Zn14 2.031 . S
O17 C21 1.269 . S
O18 Zn15 1.986 . S
O18 C25 1.262 . S
O19 Zn14 2.049 . S
O19 C27 1.260 . S
O20 Zn15 1.996 . S
O20 C27 1.257 . S
C21 O16 1.254 . S
C21 O17 1.269 . S
C22 O23 1.249 . S
C22 O24 1.270 . S
O23 Zn15 1.943 . S
O23 C22 1.249 . S
O24 Zn14 2.067 . S
O24 C22 1.270 . S
C25 O18 1.262 . S
C25 O26 1.232 . S
O26 C25 1.232 . S
C27 O19 1.260 . S
C27 O20 1.257 . S
Zn28 O31 2.031 . S
Zn28 O33 2.049 . S
Zn28 O38 2.067 . S
Zn29 O30 1.962 . S
Zn29 O32 1.986 . S
Zn29 O34 1.996 . S
Zn29 O37 1.943 . S
O30 Zn29 1.962 . S
O30 C35 1.254 . S
O31 Zn28 2.031 . S
O31 C35 1.269 . S
O32 Zn29 1.986 . S
O32 C39 1.262 . S
O33 Zn28 2.049 . S
O33 C41 1.260 . S
O34 Zn29 1.996 . S
O34 C41 1.257 . S
C35 O30 1.254 . S
C35 O31 1.269 . S
C36 O37 1.249 . S
C36 O38 1.270 . S
O37 Zn29 1.943 . S
O37 C36 1.249 . S
O38 Zn28 2.067 . S
O38 C36 1.270 . S
C39 O32 1.262 . S
C39 O40 1.232 . S
O40 C39 1.232 . S
C41 O33 1.260 . S
C41 O34 1.257 . S
Zn42 O45 2.031 . S
Zn42 O47 2.049 . S
Zn42 O52 2.067 . S
Zn43 O44 1.962 . S
Zn43 O46 1.986 . S
Zn43 O48 1.996 . S
Zn43 O51 1.943 . S
O44 Zn43 1.962 . S
O44 C49 1.254 . S
O45 Zn42 2.031 . S
O45 C49 1.269 . S
O46 Zn43 1.986 . S
O46 C53 1.262 . S
O47 Zn42 2.049 . S
O47 C55 1.260 . S
O48 Zn43 1.996 . S
O48 C55 1.257 . S
C49 O44 1.254 . S
C49 O45 1.269 . S
C50 O51 1.249 . S
C50 O52 1.270 . S
O51 Zn43 1.943 . S
O51 C50 1.249 . S
O52 Zn42 2.067 . S
O52 C50 1.270 . S
C53 O46 1.262 . S
C53 O54 1.232 . S
O54 C53 1.232 . S
C55 O47 1.260 . S
C55 O48 1.257 . S
Zn56 O59 2.031 . S
Zn56 O61 2.049 . S
Zn56 O66 2.067 . S
Zn57 O58 1.962 . S
Zn57 O60 1.986 . S
Zn57 O62 1.996 . S
Zn57 O65 1.943 . S
O58 Zn57 1.962 . S
O58 C63 1.254 . S
O59 Zn56 2.031 . S
O59 C63 1.269 . S
O60 Zn57 1.986 . S
O60 C67 1.262 . S
O61 Zn56 2.049 . S
O61 C69 1.260 . S
O62 Zn57 1.996 . S
O62 C69 1.257 . S
C63 O58 1.254 . S
C63 O59 1.269 . S
C64 O65 1.249 . S
C64 O66 1.270 . S
O65 Zn57 1.943 . S
O65 C64 1.249 . S
O66 Zn56 2.067 . S
O66 C64 1.270 . S
C67 O60 1.262 . S
C67 O68 1.232 . S
O68 C67 1.232 . S
C69 O61 1.260 . S
C69 O62 1.257 . S
Zn70 O73 2.031 . S
Zn70 O75 2.049 . S
Zn70 O80 2.067 . S
Zn71 O72 1.962 . S
Zn71 O74 1.986 . S
Zn71 O76 1.996 . S
Zn71 O79 1.943 . S
O72 Zn71 1.962 . S
O72 C77 1.254 . S
O73 Zn70 2.031 . S
O73 C77 1.269 . S
O74 Zn71 1.986 . S
O74 C81 1.262 . S
O75 Zn70 2.049 . S
O75 C83 1.260 . S
O76 Zn71 1.996 . S
O76 C83 1.257 . S
C77 O72 1.254 . S
C77 O73 1.269 . S
C78 O79 1.249 . S
C78 O80 1.270 . S
O79 Zn71 1.943 . S
O79 C78 1.249 . S
O80 Zn70 2.067 . S
O80 C78 1.270 . S
C81 O74 1.262 . S
C81 O82 1.232 . S
O82 C81 1.232 . S
C83 O75 1.260 . S
C83 O76 1.257 . S
Zn84 O87 2.031 . S
Zn84 O89 2.049 . S
Zn84 O94 2.067 . S
Zn85 O86 1.962 . S
Zn85 O88 1.986 . S
Zn85 O90 1.996 . S
Zn85 O93 1.943 . S
O86 Zn85 1.962 . S
O86 C91 1.254 . S
O87 Zn84 2.031 . S
O87 C91 1.269 . S
O88 Zn85 1.986 . S
O88 C95 1.262 . S
O89 Zn84 2.049 . S
O89 C97 1.260 . S
O90 Zn85 1.996 . S
O90 C97 1.257 . S
C91 O86 1.254 . S
C91 O87 1.269 . S
C92 O93 1.249 . S
C92 O94 1.270 . S
O93 Zn85 1.943 . S
O93 C92 1.249 . S
O94 Zn84 2.067 . S
O94 C92 1.270 . S
C95 O88 1.262 . S
C95 O96 1.232 . S
O96 C95 1.232 . S
C97 O89 1.260 . S
C97 O90 1.257 . S
Zn98 O101 2.031 . S
Zn98 O103 2.049 . S
Zn98 O108 2.067 . S
Zn99 O100 1.962 . S
Zn99 O102 1.986 . S
Zn99 O104 1.996 . S
Zn99 O107 1.943 . S
O100 Zn99 1.962 . S
O100 C105 1.254 . S
O101 Zn98 2.031 . S
O101 C105 1.269 . S
O102 Zn99 1.986 . S
O102 C109 1.262 . S
O103 Zn98 2.049 . S
O103 C111 1.260 . S
O104 Zn99 1.996 . S
O104 C111 1.257 . S
C105 O100 1.254 . S
C105 O101 1.269 . S
C106 O107 1.249 . S
C106 O108 1.270 . S
O107 Zn99 1.943 . S
O107 C106 1.249 . S
O108 Zn98 2.067 . S
O108 C106 1.270 . S
C109 O102 1.262 . S
C109 O110 1.232 . S
O110 C109 1.232 . S
C111 O103 1.260 . S
C111 O104 1.257 . S
Zn112 O115 2.031 . S
Zn112 O117 2.049 . S
Zn112 O122 2.067 . S
Zn113 O114 1.962 . S
Zn113 O116 1.986 . S
Zn113 O118 1.996 . S
Zn113 O121 1.943 . S
O114 Zn113 1.962 . S
O114 C119 1.254 . S
O115 Zn112 2.031 . S
O115 C119 1.269 . S
O116 Zn113 1.986 . S
O116 C123 1.262 . S
O117 Zn112 2.049 . S
O117 C125 1.260 . S
O118 Zn113 1.996 . S
O118 C125 1.257 . S
C119 O114 1.254 . S
C119 O115 1.269 . S
C120 O121 1.249 . S
C120 O122 1.270 . S
O121 Zn113 1.943 . S
O121 C120 1.249 . S
O122 Zn112 2.067 . S
O122 C120 1.270 . S
C123 O116 1.262 . S
C123 O124 1.232 . S
O124 C123 1.232 . S
C125 O117 1.260 . S
C125 O118 1.257 . S
Zn126 O129 2.031 . S
Zn126 O131 2.049 . S
Zn126 O136 2.067 . S
Zn127 O128 1.962 . S
Zn127 O130 1.986 . S
Zn127 O132 1.996 . S
Zn127 O135 1.943 . S
O128 Zn127 1.962 . S
O128 C133 1.254 . S
O129 Zn126 2.031 . S
O129 C133 1.269 . S
O130 Zn127 1.986 . S
O130 C137 1.262 . S
O131 Zn126 2.049 . S
O131 C139 1.260 . S
O132 Zn127 1.996 . S
O132 C139 1.257 . S
C133 O128 1.254 . S
C133 O129 1.269 . S
C134 O135 1.249 . S
C134 O136 1.270 . S
O135 Zn127 1.943 . S
O135 C134 1.249 . S
O136 Zn126 2.067 . S
O136 C134 1.270 . S
C137 O130 1.262 . S
C137 O138 1.232 . S
O138 C137 1.232 . S
C139 O131 1.260 . S
C139 O132 1.257 . S
Zn140 O143 2.031 . S
Zn140 O145 2.049 . S
Zn140 O150 2.067 . S
Zn141 O142 1.962 . S
Zn141 O144 1.986 . S
Zn141 O146 1.996 . S
Zn141 O149 1.943 . S
O142 Zn141 1.962 . S
O142 C147 1.254 . S
O143 Zn140 2.031 . S
O143 C147 1.269 . S
O144 Zn141 1.986 . S
O144 C151 1.262 . S
O145 Zn140 2.049 . S
O145 C153 1.260 . S
O146 Zn141 1.996 . S
O146 C153 1.257 . S
C147 O142 1.254 . S
C147 O143 1.269 . S
C148 O149 1.249 . S
C148 O150 1.270 . S
O149 Zn141 1.943 . S
O149 C148 1.249 . S
O150 Zn140 2.067 . S
O150 C148 1.270 . S
C151 O144 1.262 . S
C151 O152 1.232 . S
O152 C151 1.232 . S
C153 O145 1.260 . S
C153 O146 1.257 . S
Zn154 O157 2.031 . S
Zn154 O159 2.049 . S
Zn154 O164 2.067 . S
Zn155 O156 1.962 . S
Zn155 O158 1.986 . S
Zn155 O160 1.996 . S
Zn155 O163 1.943 . S
O156 Zn155 1.962 . S
O156 C161 1.254 . S
O157 Zn154 2.031 . S
O157 C161 1.269 . S
O158 Zn155 1.986 . S
O158 C165 1.262 . S
O159 Zn154 2.049 . S
O159 C167 1.260 . S
O160 Zn155 1.996 . S
O160 C167 1.257 . S
C161 O156 1.254 . S
C161 O157 1.269 . S
C162 O163 1.249 . S
C162 O164 1.270 . S
O163 Zn155 1.943 . S
O163 C162 1.249 . S
O164 Zn154 2.067 . S
O164 C162 1.270 . S
C165 O158 1.262 . S
C165 O166 1.232 . S
O166 C165 1.232 . S
C167 O159 1.260 . S
C167 O160 1.257 . S
Zn168 O171 2.031 . S
Zn168 O173 2.049 . S
Zn168 O178 2.067 . S
Zn169 O170 1.962 . S
Zn169 O172 1.986 . S
Zn169 O174 1.996 . S
Zn169 O177 1.943 . S
O170 Zn169 1.962 . S
O170 C175 1.254 . S
O171 Zn168 2.031 . S
O171 C175 1.269 . S
O172 Zn169 1.986 . S
O172 C179 1.262 . S
O173 Zn168 2.049 . S
O173 C181 1.260 . S
O174 Zn169 1.996 . S
O174 C181 1.257 . S
C175 O170 1.254 . S
C175 O171 1.269 . S
C176 O177 1.249 . S
C176 O178 1.270 . S
O177 Zn169 1.943 . S
O177 C176 1.249 . S
O178 Zn168 2.067 . S
O178 C176 1.270 . S
C179 O172 1.262 . S
C179 O180 1.232 . S
O180 C179 1.232 . S
C181 O173 1.260 . S
C181 O174 1.257 . S
Zn182 O185 2.031 . S
Zn182 O187 2.049 . S
Zn182 O192 2.067 . S
Zn183 O184 1.962 . S
Zn183 O186 1.986 . S
Zn183 O188 1.996 . S
Zn183 O191 1.943 . S
O184 Zn183 1.962 . S
O184 C189 1.254 . S
O185 Zn182 2.031 . S
O185 C189 1.269 . S
O186 Zn183 1.986 . S
O186 C193 1.262 . S
O187 Zn182 2.049 . S
O187 C195 1.260 . S
O188 Zn183 1.996 . S
O188 C195 1.257 . S
C189 O184 1.254 . S
C189 O185 1.269 . S
C190 O191 1.249 . S
C190 O192 1.270 . S
O191 Zn183 1.943 . S
O191 C190 1.249 . S
O192 Zn182 2.067 . S
O192 C190 1.270 . S
C193 O186 1.262 . S
C193 O194 1.232 . S
O194 C193 1.232 . S
C195 O187 1.260 . S
C195 O188 1.257 . S
Zn196 O199 2.031 . S
Zn196 O201 2.049 . S
Zn196 O206 2.067 . S
Zn197 O198 1.962 . S
Zn197 O200 1.986 . S
Zn197 O202 1.996 . S
Zn197 O205 1.943 . S
O198 Zn197 1.962 . S
O198 C203 1.254 . S
O199 Zn196 2.031 . S
O199 C203 1.269 . S
O200 Zn197 1.986 . S
O200 C207 1.262 . S
O201 Zn196 2.049 . S
O201 C209 1.260 . S
O202 Zn197 1.996 . S
O202 C209 1.257 . S
C203 O198 1.254 . S
C203 O199 1.269 . S
C204 O205 1.249 . S
C204 O206 1.270 . S
O205 Zn197 1.943 . S
O205 C204 1.249 . S
O206 Zn196 2.067 . S
O206 C204 1.270 . S
C207 O200 1.262 . S
C207 O208 1.232 . S
O208 C207 1.232 . S
C209 O201 1.260 . S
C209 O202 1.257 . S
Zn210 O213 2.031 . S
Zn210 O215 2.049 . S
Zn210 O220 2.067 . S
Zn211 O212 1.962 . S
Zn211 O214 1.986 . S
Zn211 O216 1.996 . S
Zn211 O219 1.943 . S
O212 Zn211 1.962 . S
O212 C217 1.254 . S
O213 Zn210 2.031 . S
O213 C217 1.269 . S
O214 Zn211 1.986 . S
O214 C221 1.262 . S
O215 Zn210 2.049 . S
O215 C223 1.260 . S
O216 Zn211 1.996 . S
O216 C223 1.257 . S
C217 O212 1.254 . S
C217 O213 1.269 . S
C218 O219 1.249 . S
C218 O220 1.270 . S
O219 Zn211 1.943 . S
O219 C218 1.249 . S
O220 Zn210 2.067 . S
O220 C218 1.270 . S
C221 O214 1.262 . S
C221 O222 1.232 . S
O222 C221 1.232 . S
C223 O215 1.260 . S
C223 O216 1.257 . S
Zn224 O227 2.031 . S
Zn224 O229 2.049 . S
Zn224 O234 2.067 . S
Zn225 O226 1.962 . S
Zn225 O228 1.986 . S
Zn225 O230 1.996 . S
Zn225 O233 1.943 . S
O226 Zn225 1.962 . S
O226 C231 1.254 . S
O227 Zn224 2.031 . S
O227 C231 1.269 . S
O228 Zn225 1.986 . S
O228 C235 1.262 . S
O229 Zn224 2.049 . S
O229 C237 1.260 . S
O230 Zn225 1.996 . S
O230 C237 1.257 . S
C231 O226 1.254 . S
C231 O227 1.269 . S
C232 O233 1.249 . S
C232 O234 1.270 . S
O233 Zn225 1.943 . S
O233 C232 1.249 . S
O234 Zn224 2.067 . S
O234 C232 1.270 . S
C235 O228 1.262 . S
C235 O236 1.232 . S
O236 C235 1.232 . S
C237 O229 1.260 . S
C237 O230 1.257 . S
Zn238 O241 2.031 . S
Zn238 O243 2.049 . S
Zn238 O248 2.067 . S
Zn239 O240 1.962 . S
Zn239 O242 1.986 . S
Zn239 O244 1.996 . S
Zn239 O247 1.943 . S
O240 Zn239 1.962 . S
O240 C245 1.254 . S
O241 Zn238 2.031 . S
O241 C245 1.269 . S
O242 Zn239 1.986 . S
O242 C249 1.262 . S
O243 Zn238 2.049 . S
O243 C251 1.260 . S
O244 Zn239 1.996 . S
O244 C251 1.257 . S
C245 O240 1.254 . S
C245 O241 1.269 . S
C246 O247 1.249 . S
C246 O248 1.270 . S
O247 Zn239 1.943 . S
O247 C246 1.249 . S
O248 Zn238 2.067 . S
O248 C246 1.270 . S
C249 O242 1.262 . S
C249 O250 1.232 . S
O250 C249 1.232 . S
C251 O243 1.260 . S
C251 O244 1.257 . S
Zn252 O255 2.031 . S
Zn252 O257 2.049 . S
Zn252 O262 2.067 . S
Zn253 O254 1.962 . S
Zn253 O256 1.986 . S
Zn253 O258 1.996 . S
Zn253 O261 1.943 . S
O254 Zn253 1.962 . S
O254 C259 1.254 . S
O255 Zn252 2.031 . S
O255 C259 1.269 . S
O256 Zn253 1.986 . S
O256 C263 1.262 . S
O257 Zn252 2.049 . S
O257 C265 1.260 . S
O258 Zn253 1.996 . S
O258 C265 1.257 . S
C259 O254 1.254 . S
C259 O255 1.269 . S
C260 O261 1.249 . S
C260 O262 1.270 . S
O261 Zn253 1.943 . S
O261 C260 1.249 . S
O262 Zn252 2.067 . S
O262 C260 1.270 . S
C263 O256 1.262 . S
C263 O264 1.232 . S
O264 C263 1.232 . S
C265 O257 1.260 . S
C265 O258 1.257 . S
Zn266 O269 2.031 . S
Zn266 O271 2.049 . S
Zn266 O276 2.067 . S
Zn267 O268 1.962 . S
Zn267 O270 1.986 . S
Zn267 O272 1.996 . S
Zn267 O275 1.943 . S
O268 Zn267 1.962 . S
O268 C273 1.254 . S
O269 Zn266 2.031 . S
O269 C273 1.269 . S
O270 Zn267 1.986 . S
O270 C277 1.262 . S
O271 Zn266 2.049 . S
O271 C279 1.260 . S
O272 Zn267 1.996 . S
O272 C279 1.257 . S
C273 O268 1.254 . S
C273 O269 1.269 . S
C274 O275 1.249 . S
C274 O276 1.270 . S
O275 Zn267 1.943 . S
O275 C274 1.249 . S
O276 Zn266 2.067 . S
O276 C274 1.270 . S
C277 O270 1.262 . S
C277 O278 1.232 . S
O278 C277 1.232 . S
C279 O271 1.260 . S
C279 O272 1.257 . S
Zn280 O283 2.031 . S
Zn280 O285 2.049 . S
Zn280 O290 2.067 . S
Zn281 O282 1.962 . S
Zn281 O284 1.986 . S
Zn281 O286 1.996 . S
Zn281 O289 1.943 . S
O282 Zn281 1.962 . S
O282 C287 1.254 . S
O283 Zn280 2.031 . S
O283 C287 1.269 . S
O284 Zn281 1.986 . S
O284 C291 1.262 . S
O285 Zn280 2.049 . S
O285 C293 1.260 . S
O286 Zn281 1.996 . S
O286 C293 1.257 . S
C287 O282 1.254 . S
C287 O283 1.269 . S
C288 O289 1.249 . S
C288 O290 1.270 . S
O289 Zn281 1.943 . S
O289 C288 1.249 . S
O290 Zn280 2.067 . S
O290 C288 1.270 . S
C291 O284 1.262 . S
C291 O292 1.232 . S
O292 C291 1.232 . S
C293 O285 1.260 . S
C293 O286 1.257 . S
Zn294 O297 2.031 . S
Zn294 O299 2.049 . S
Zn294 O304 2.067 . S
Zn295 O296 1.962 . S
Zn295 O298 1.986 . S
Zn295 O300 1.996 . S
Zn295 O303 1.943 . S
O296 Zn295 1.962 . S
O296 C301 1.254 . S
O297 Zn294 2.031 . S
O297 C301 1.269 . S
O298 Zn295 1.986 . S
O298 C305 1.262 . S
O299 Zn294 2.049 . S
O299 C307 1.260 . S
O300 Zn295 1.996 . S
O300 C307 1.257 . S
C301 O296 1.254 . S
C301 O297 1.269 . S
C302 O303 1.249 . S
C302 O304 1.270 . S
O303 Zn295 1.943 . S
O303 C302 1.249 . S
O304 Zn294 2.067 . S
O304 C302 1.270 . S
C305 O298 1.262 . S
C305 O306 1.232 . S
O306 C305 1.232 . S
C307 O299 1.260 . S
C307 O300 1.257 . S
Zn308 O311 2.031 . S
Zn308 O313 2.049 . S
Zn308 O318 2.067 . S
Zn309 O310 1.962 . S
Zn309 O312 1.986 . S
Zn309 O314 1.996 . S
Zn309 O317 1.943 . S
O310 Zn309 1.962 . S
O310 C315 1.254 . S
O311 Zn308 2.031 . S
O311 C315 1.269 . S
O312 Zn309 1.986 . S
O312 C319 1.262 . S
O313 Zn308 2.049 . S
O313 C321 1.260 . S
O314 Zn309 1.996 . S
O314 C321 1.257 . S
C315 O310 1.254 . S
C315 O311 1.269 . S
C316 O317 1.249 . S
C316 O318 1.270 . S
O317 Zn309 1.943 . S
O317 C316 1.249 . S
O318 Zn308 2.067 . S
O318 C316 1.270 . S
C319 O312 1.262 . S
C319 O320 1.232 . S
O320 C319 1.232 . S
C321 O313 1.260 . S
C321 O314 1.257 . S
Zn322 O325 2.031 . S
Zn322 O327 2.049 . S
Zn322 O332 2.067 . S
Zn323 O324 1.962 . S
Zn323 O326 1.986 . S
Zn323 O328 1.996 . S
Zn323 O331 1.943 . S
O324 Zn323 1.962 . S
O324 C329 1.254 . S
O325 Zn322 2.031 . S
O325 C329 1.269 . S
O326 Zn323 1.986 . S
O326 C333 1.262 . S
O327 Zn322 2.049 . S
O327 C335 1.260 . S
O328 Zn323 1.996 . S
O328 C335 1.257 . S
C329 O324 1.254 . S
C329 O325 1.269 . S
C330 O331 1.249 . S
C330 O332 1.270 . S
O331 Zn323 1.943 . S
O331 C330 1.249 . S
O332 Zn322 2.067 . S
O332 C330 1.270 . S
C333 O326 1.262 . S
C333 O334 1.232 . S
O334 C333 1.232 . S
C335 O327 1.260 . S
C335 O328 1.257 . S
Zn336 O339 2.031 . S
Zn336 O341 2.049 . S
Zn336 O346 2.067 . S
Zn337 O338 1.962 . S
Zn337 O340 1.986 . S
Zn337 O342 1.996 . S
Zn337 O345 1.943 . S
O338 Zn337 1.962 . S
O338 C343 1.254 . S
O339 Zn336 2.031 . S
O339 C343 1.269 . S
O340 Zn337 1.986 . S
O340 C347 1.262 . S
O341 Zn336 2.049 . S
O341 C349 1.260 . S
O342 Zn337 1.996 . S
O342 C349 1.257 . S
C343 O338 1.254 . S
C343 O339 1.269 . S
C344 O345 1.249 . S
C344 O346 1.270 . S
O345 Zn337 1.943 . S
O345 C344 1.249 . S
O346 Zn336 2.067 . S
O346 C344 1.270 . S
C347 O340 1.262 . S
C347 O348 1.232 . S
O348 C347 1.232 . S
C349 O341 1.260 . S
C349 O342 1.257 . S
Zn350 O353 2.031 . S
Zn350 O355 2.049 . S
Zn350 O360 2.067 . S
Zn351 O352 1.962 . S
Zn351 O354 1.986 . S
Zn351 O356 1.996 . S
Zn351 O359 1.943 . S
O352 Zn351 1.962 . S
O352 C357 1.254 . S
O353 Zn350 2.031 . S
O353 C357 1.269 . S
O354 Zn351 1.986 . S
O354 C361 1.262 . S
O355 Zn350 2.049 . S
O355 C363 1.260 . S
O356 Zn351 1.996 . S
O356 C363 1.257 . S
C357 O352 1.254 . S
C357 O353 1.269 . S
C358 O359 1.249 . S
C358 O360 1.270 . S
O359 Zn351 1.943 . S
O359 C358 1.249 . S
O360 Zn350 2.067 . S
O360 C358 1.270 . S
C361 O354 1.262 . S
C361 O362 1.232 . S
O362 C361 1.232 . S
C363 O355 1.260 . S
C363 O356 1.257 . S
Zn364 O367 2.031 . S
Zn364 O369 2.049 . S
Zn364 O374 2.067 . S
Zn365 O366 1.962 . S
Zn365 O368 1.986 . S
Zn365 O370 1.996 . S
Zn365 O373 1.943 . S
O366 Zn365 1.962 . S
O366 C371 1.254 . S
O367 Zn364 2.031 . S
O367 C371 1.269 . S
O368 Zn365 1.986 . S
O368 C375 1.262 . S
O369 Zn364 2.049 . S
O369 C377 1.260 . S
O370 Zn365 1.996 . S
O370 C377 1.257 . S
C371 O366 1.254 . S
C371 O367 1.269 . S
C372 O373 1.249 . S
C372 O374 1.270 . S
O373 Zn365 1.943 . S
O373 C372 1.249 . S
O374 Zn364 2.067 . S
O374 C372 1.270 . S
C375 O368 1.262 . S
C375 O376 1.232 . S
O376 C375 1.232 . S
C377 O369 1.260 . S
C377 O370 1.257 . S
Zn378 O381 2.031 . S
Zn378 O383 2.049 . S
Zn378 O388 2.067 . S
Zn379 O380 1.962 . S
Zn379 O382 1.986 . S
Zn379 O384 1.996 . S
Zn379 O387 1.943 . S
O380 Zn379 1.962 . S
O380 C385 1.254 . S
O381 Zn378 2.031 . S
O381 C385 1.269 . S
O382 Zn379 1.986 . S
O382 C389 1.262 . S
O383 Zn378 2.049 . S
O383 C391 1.260 . S
O384 Zn379 1.996 . S
O384 C391 1.257 . S
C385 O380 1.254 . S
C385 O381 1.269 . S
C386 O387 1.249 . S
C386 O388 1.270 . S
O387 Zn379 1.943 . S
O387 C386 1.249 . S
O388 Zn378 2.067 . S
O388 C386 1.270 . S
C389 O382 1.262 . S
C389 O390 1.232 . S
O390 C389 1.232 . S
C391 O383 1.260 . S
C391 O384 1.257 . S
Zn392 O395 2.031 . S
Zn392 O397 2.049 . S
Zn392 O402 2.067 . S
Zn393 O394 1.962 . S
Zn393 O396 1.986 . S
Zn393 O398 1.996 . S
Zn393 O401 1.943 . S
O394 Zn393 1.962 . S
O394 C399 1.254 . S
O395 Zn392 2.031 . S
O395 C399 1.269 . S
O396 Zn393 1.986 . S
O396 C403 1.262 . S
O397 Zn392 2.049 . S
O397 C405 1.260 . S
O398 Zn393 1.996 . S
O398 C405 1.257 . S
C399 O394 1.254 . S
C399 O395 1.269 . S
C400 O401 1.249 . S
C400 O402 1.270 . S
O401 Zn393 1.943 . S
O401 C400 1.249 . S
O402 Zn392 2.067 . S
O402 C400 1.270 . S
C403 O396 1.262 . S
C403 O404 1.232 . S
O404 C403 1.232 . S
C405 O397 1.260 . S
C405 O398 1.257 . S
Zn406 O409 2.031 . S
Zn406 O411 2.049 . S
Zn406 O416 2.067 . S
Zn407 O408 1.962 . S
Zn407 O410 1.986 . S
Zn407 O412 1.996 . S
Zn407 O415 1.943 . S
O408 Zn407 1.962 . S
O408 C413 1.254 . S
O409 Zn406 2.031 . S
O409 C413 1.269 . S
O410 Zn407 1.986 . S
O410 C417 1.262 . S
O411 Zn406 2.049 . S
O411 C419 1.260 . S
O412 Zn407 1.996 . S
O412 C419 1.257 . S
C413 O408 1.254 . S
C413 O409 1.269 . S
C414 O415 1.249 . S
C414 O416 1.270 . S
O415 Zn407 1.943 . S
O415 C414 1.249 . S
O416 Zn406 2.067 . S
O416 C414 1.270 . S
C417 O410 1.262 . S
C417 O418 1.232 . S
O418 C417 1.232 . S
C419 O411 1.260 . S
C419 O412 1.257 . S
Zn420 O423 2.031 . S
Zn420 O425 2.049 . S
Zn420 O430 2.067 . S
Zn421 O422 1.962 . S
Zn421 O424 1.986 . S
Zn421 O426 1.996 . S
Zn421 O429 1.943 . S
O422 Zn421 1.962 . S
O422 C427 1.254 . S
O423 Zn420 2.031 . S
O423 C427 1.269 . S
O424 Zn421 1.986 . S
O424 C431 1.262 . S
O425 Zn420 2.049 . S
O425 C433 1.260 . S
O426 Zn421 1.996 . S
O426 C433 1.257 . S
C427 O422 1.254 . S
C427 O423 1.269 . S
C428 O429 1.249 . S
C428 O430 1.270 . S
O429 Zn421 1.943 . S
O429 C428 1.249 . S
O430 Zn420 2.067 . S
O430 C428 1.270 . S
C431 O424 1.262 . S
C431 O432 1.232 . S
O432 C431 1.232 . S
C433 O425 1.260 . S
C433 O426 1.257 . S
Zn434 O437 2.031 . S
Zn434 O439 2.049 . S
Zn434 O444 2.067 . S
Zn435 O436 1.962 . S
Zn435 O438 1.986 . S
Zn435 O440 1.996 . S
Zn435 O443 1.943 . S
O436 Zn435 1.962 . S
O436 C441 1.254 . S
O437 Zn434 2.031 . S
O437 C441 1.269 . S
O438 Zn435 1.986 . S
O438 C445 1.262 . S
O439 Zn434 2.049 . S
O439 C447 1.260 . S
O440 Zn435 1.996 . S
O440 C447 1.257 . S
C441 O436 1.254 . S
C441 O437 1.269 . S
C442 O443 1.249 . S
C442 O444 1.270 . S
O443 Zn435 1.943 . S
O443 C442 1.249 . S
O444 Zn434 2.067 . S
O444 C442 1.270 . S
C445 O438 1.262 . S
C445 O446 1.232 . S
O446 C445 1.232 . S
C447 O439 1.260 . S
C447 O440 1.257 . S
C448 C449 1.387 . S
C448 H452 0.950 . S
C448 C457 1.390 . S
C449 C448 1.387 . S
C449 C451 1.387 . S
H450 C457 0.950 . S
C451 C449 1.387 . S
C451 C453 1.390 . S
C451 H455 0.950 . S
H452 C448 0.950 . S
C453 C451 1.390 . S
C453 C454 1.387 . S
C453 H456 0.950 . S
C454 C453 1.387 . S
C454 C457 1.387 . S
H455 C451 0.950 . S
H456 C453 0.950 . S
C457 C448 1.390 . S
C457 H450 0.950 . S
C457 C454 1.387 . S
C458 C459 1.387 . S
C458 H462 0.950 . S
C458 C467 1.390 . S
C459 C458 1.387 . S
C459 C461 1.387 . S
H460 C467 0.950 . S
C461 C459 1.387 . S
C461 C463 1.390 . S
C461 H465 0.950 . S
H462 C458 0.950 . S
C463 C461 1.390 . S
C463 C464 1.387 . S
C463 H466 0.950 . S
C464 C463 1.387 . S
C464 C467 1.387 . S
H465 C461 0.950 . S
H466 C463 0.950 . S
C467 C458 1.390 . S
C467 H460 0.950 . S
C467 C464 1.387 . S
C468 C469 1.387 . S
C468 H472 0.950 . S
C468 C477 1.390 . S
C469 C468 1.387 . S
C469 C471 1.387 . S
H470 C477 0.950 . S
C471 C469 1.387 . S
C471 C473 1.390 . S
C471 H475 0.950 . S
H472 C468 0.950 . S
C473 C471 1.390 . S
C473 C474 1.387 . S
C473 H476 0.950 . S
C474 C473 1.387 . S
C474 C477 1.387 . S
H475 C471 0.950 . S
H476 C473 0.950 . S
C477 C468 1.390 . S
C477 H470 0.950 . S
C477 C474 1.387 . S
C478 C479 1.387 . S
C478 H482 0.950 . S
C478 C487 1.390 . S
C479 C478 1.387 . S
C479 C481 1.387 . S
H480 C487 0.950 . S
C481 C479 1.387 . S
C481 C483 1.390 . S
C481 H485 0.950 . S
H482 C478 0.950 . S
C483 C481 1.390 . S
C483 C484 1.387 . S
C483 H486 0.950 . S
C484 C483 1.387 . S
C484 C487 1.387 . S
H485 C481 0.950 . S
H486 C483 0.950 . S
C487 C478 1.390 . S
C487 H480 0.950 . S
C487 C484 1.387 . S
C488 C489 1.387 . S
C488 H492 0.950 . S
C488 C497 1.390 . S
C489 C488 1.387 . S
C489 C491 1.387 . S
H490 C497 0.950 . S
C491 C489 1.387 . S
C491 C493 1.390 . S
C491 H495 0.950 . S
H492 C488 0.950 . S
C493 C491 1.390 . S
C493 C494 1.387 . S
C493 H496 0.950 . S
C494 C493 1.387 . S
C494 C497 1.387 . S
H495 C491 0.950 . S
H496 C493 0.950 . S
C497 C488 1.390 . S
C497 H490 0.950 . S
C497 C494 1.387 . S
C498 C499 1.387 . S
C498 H502 0.950 . S
C498 C507 1.390 . S
C499 C498 1.387 . S
C499 C501 1.387 . S
H500 C507 0.950 . S
C501 C499 1.387 . S
C501 C503 1.390 . S
C501 H505 0.950 . S
H502 C498 0.950 . S
C503 C501 1.390 . S
C503 C504 1.387 . S
C503 H506 0.950 . S
C504 C503 1.387 . S
C504 C507 1.387 . S
H505 C501 0.950 . S
H506 C503 0.950 . S
C507 C498 1.390 . S
C507 H500 0.950 . S
C507 C504 1.387 . S
C508 C509 1.387 . S
C508 H512 0.950 . S
C508 C517 1.390 . S
C509 C508 1.387 . S
C509 C511 1.387 . S
H510 C517 0.950 . S
C511 C509 1.387 . S
C511 C513 1.390 . S
C511 H515 0.950 . S
H512 C508 0.950 . S
C513 C511 1.390 . S
C513 C514 1.387 . S
C513 H516 0.950 . S
C514 C513 1.387 . S
C514 C517 1.387 . S
H515 C511 0.950 . S
H516 C513 0.950 . S
C517 C508 1.390 . S
C517 H510 0.950 . S
C517 C514 1.387 . S
C518 C519 1.387 . S
C518 H522 0.950 . S
C518 C527 1.390 . S
C519 C518 1.387 . S
C519 C521 1.387 . S
H520 C527 0.950 . S
C521 C519 1.387 . S
C521 C523 1.390 . S
C521 H525 0.950 . S
H522 C518 0.950 . S
C523 C521 1.390 . S
C523 C524 1.387 . S
C523 H526 0.950 . S
C524 C523 1.387 . S
C524 C527 1.387 . S
H525 C521 0.950 . S
H526 C523 0.950 . S
C527 C518 1.390 . S
C527 H520 0.950 . S
C527 C524 1.387 . S
C528 C529 1.387 . S
C528 H532 0.950 . S
C528 C537 1.390 . S
C529 C528 1.387 . S
C529 C531 1.387 . S
H530 C537 0.950 . S
C531 C529 1.387 . S
C531 C533 1.390 . S
C531 H535 0.950 . S
H532 C528 0.950 . S
C533 C531 1.390 . S
C533 C534 1.387 . S
C533 H536 0.950 . S
C534 C533 1.387 . S
C534 C537 1.387 . S
H535 C531 0.950 . S
H536 C533 0.950 . S
C537 C528 1.390 . S
C537 H530 0.950 . S
C537 C534 1.387 . S
C538 C539 1.387 . S
C538 H542 0.950 . S
C538 C547 1.390 . S
C539 C538 1.387 . S
C539 C541 1.387 . S
H540 C547 0.950 . S
C541 C539 1.387 . S
C541 C543 1.390 . S
C541 H545 0.950 . S
H542 C538 0.950 . S
C543 C541 1.390 . S
C543 C544 1.387 . S
C543 H546 0.950 . S
C544 C543 1.387 . S
C544 C547 1.387 . S
H545 C541 0.950 . S
H546 C543 0.950 . S
C547 C538 1.390 . S
C547 H540 0.950 . S
C547 C544 1.387 . S
C548 C549 1.387 . S
C548 H552 0.950 . S
C548 C557 1.390 . S
C549 C548 1.387 . S
C549 C551 1.387 . S
H550 C557 0.950 . S
C551 C549 1.387 . S
C551 C553 1.390 . S
C551 H555 0.950 . S
H552 C548 0.950 . S
C553 C551 1.390 . S
C553 C554 1.387 . S
C553 H556 0.950 . S
C554 C553 1.387 . S
C554 C557 1.387 . S
H555 C551 0.950 . S
H556 C553 0.950 . S
C557 C548 1.390 . S
C557 H550 0.950 . S
C557 C554 1.387 . S
C558 C559 1.387 . S
C558 H562 0.950 . S
C558 C567 1.390 . S
C559 C558 1.387 . S
C559 C561 1.387 . S
H560 C567 0.950 . S
C561 C559 1.387 . S
C561 C563 1.390 . S
C561 H565 0.950 . S
H562 C558 0.950 . S
C563 C561 1.390 . S
C563 C564 1.387 . S
C563 H566 0.950 . S
C564 C563 1.387 . S
C564 C567 1.387 . S
H565 C561 0.950 . S
H566 C563 0.950 . S
C567 C558 1.390 . S
C567 H560 0.950 . S
C567 C564 1.387 . S
C568 C569 1.387 . S
C568 H572 0.950 . S
C568 C577 1.390 . S
C569 C568 1.387 . S
C569 C571 1.387 . S
H570 C577 0.950 . S
C571 C569 1.387 . S
C571 C573 1.390 . S
C571 H575 0.950 . S
H572 C568 0.950 . S
C573 C571 1.390 . S
C573 C574 1.387 . S
C573 H576 0.950 . S
C574 C573 1.387 . S
C574 C577 1.387 . S
H575 C571 0.950 . S
H576 C573 0.950 . S
C577 C568 1.390 . S
C577 H570 0.950 . S
C577 C574 1.387 . S
C578 C579 1.387 . S
C578 H582 0.950 . S
C578 C587 1.390 . S
C579 C578 1.387 . S
C579 C581 1.387 . S
H580 C587 0.950 . S
C581 C579 1.387 . S
C581 C583 1.390 . S
C581 H585 0.950 . S
H582 C578 0.950 . S
C583 C581 1.390 . S
C583 C584 1.387 . S
C583 H586 0.950 . S
C584 C583 1.387 . S
C584 C587 1.387 . S
H585 C581 0.950 . S
H586 C583 0.950 . S
C587 C578 1.390 . S
C587 H580 0.950 . S
C587 C584 1.387 . S
C588 C589 1.387 . S
C588 H592 0.950 . S
C588 C597 1.390 . S
C589 C588 1.387 . S
C589 C591 1.387 . S
H590 C597 0.950 . S
C591 C589 1.387 . S
C591 C593 1.390 . S
C591 H595 0.950 . S
H592 C588 0.950 . S
C593 C591 1.390 . S
C593 C594 1.387 . S
C593 H596 0.950 . S
C594 C593 1.387 . S
C594 C597 1.387 . S
H595 C591 0.950 . S
H596 C593 0.950 . S
C597 C588 1.390 . S
C597 H590 0.950 . S
C597 C594 1.387 . S
C598 C599 1.387 . S
C598 H602 0.950 . S
C598 C607 1.390 . S
C599 C598 1.387 . S
C599 C601 1.387 . S
H600 C607 0.950 . S
C601 C599 1.387 . S
C601 C603 1.390 . S
C601 H605 0.950 . S
H602 C598 0.950 . S
C603 C601 1.390 . S
C603 C604 1.387 . S
C603 H606 0.950 . S
C604 C603 1.387 . S
C604 C607 1.387 . S
H605 C601 0.950 . S
H606 C603 0.950 . S
C607 C598 1.390 . S
C607 H600 0.950 . S
C607 C604 1.387 . S
C608 C609 1.387 . S
C608 H612 0.950 . S
C608 C617 1.390 1_455 S
C609 C608 1.387 . S
C609 C611 1.387 . S
H610 C617 0.950 . S
C611 C609 1.387 . S
C611 C613 1.390 1_455 S
C611 H615 0.950 . S
H612 C608 0.950 . S
C613 C611 1.390 1_655 S
C613 C614 1.387 . S
C613 H616 0.950 . S
C614 C613 1.387 . S
C614 C617 1.387 . S
H615 C611 0.950 . S
H616 C613 0.950 . S
C617 C608 1.390 1_655 S
C617 H610 0.950 . S
C617 C614 1.387 . S
C618 C619 1.387 . S
C618 H622 0.950 . S
C618 C627 1.390 . S
C619 C618 1.387 . S
C619 C621 1.387 . S
H620 C627 0.950 . S
C621 C619 1.387 . S
C621 C623 1.390 . S
C621 H625 0.950 . S
H622 C618 0.950 . S
C623 C621 1.390 . S
C623 C624 1.387 . S
C623 H626 0.950 . S
C624 C623 1.387 . S
C624 C627 1.387 . S
H625 C621 0.950 . S
H626 C623 0.950 . S
C627 C618 1.390 . S
C627 H620 0.950 . S
C627 C624 1.387 . S
C628 C629 1.387 . S
C628 H632 0.950 . S
C628 C637 1.390 . S
C629 C628 1.387 . S
C629 C631 1.387 . S
H630 C637 0.950 . S
C631 C629 1.387 . S
C631 C633 1.390 . S
C631 H635 0.950 . S
H632 C628 0.950 . S
C633 C631 1.390 . S
C633 C634 1.387 . S
C633 H636 0.950 . S
C634 C633 1.387 . S
C634 C637 1.387 . S
H635 C631 0.950 . S
H636 C633 0.950 . S
C637 C628 1.390 . S
C637 H630 0.950 . S
C637 C634 1.387 . S
C638 C639 1.387 . S
C638 H642 0.950 . S
C638 C647 1.390 . S
C639 C638 1.387 . S
C639 C641 1.387 . S
H640 C647 0.950 . S
C641 C639 1.387 . S
C641 C643 1.390 . S
C641 H645 0.950 . S
H642 C638 0.950 . S
C643 C641 1.390 . S
C643 C644 1.387 . S
C643 H646 0.950 . S
C644 C643 1.387 . S
C644 C647 1.387 . S
H645 C641 0.950 . S
H646 C643 0.950 . S
C647 C638 1.390 . S
C647 H640 0.950 . S
C647 C644 1.387 . S
C648 C649 1.387 . S
C648 H652 0.950 . S
C648 C657 1.390 1_655 S
C649 C648 1.387 . S
C649 C651 1.387 . S
H650 C657 0.950 . S
C651 C649 1.387 . S
C651 C653 1.390 1_655 S
C651 H655 0.950 . S
H652 C648 0.950 . S
C653 C651 1.390 1_455 S
C653 C654 1.387 . S
C653 H656 0.950 . S
C654 C653 1.387 . S
C654 C657 1.387 . S
H655 C651 0.950 . S
H656 C653 0.950 . S
C657 C648 1.390 1_455 S
C657 H650 0.950 . S
C657 C654 1.387 . S
C658 C659 1.387 . S
C658 H662 0.950 . S
C658 C667 1.390 . S
C659 C658 1.387 . S
C659 C661 1.387 . S
H660 C667 0.950 . S
C661 C659 1.387 . S
C661 C663 1.390 . S
C661 H665 0.950 . S
H662 C658 0.950 . S
C663 C661 1.390 . S
C663 C664 1.387 . S
C663 H666 0.950 . S
C664 C663 1.387 . S
C664 C667 1.387 . S
H665 C661 0.950 . S
H666 C663 0.950 . S
C667 C658 1.390 . S
C667 H660 0.950 . S
C667 C664 1.387 . S
C668 C669 1.387 . S
C668 H672 0.950 . S
C668 C677 1.390 . S
C669 C668 1.387 . S
C669 C671 1.387 . S
H670 C677 0.950 . S
C671 C669 1.387 . S
C671 C673 1.390 . S
C671 H675 0.950 . S
H672 C668 0.950 . S
C673 C671 1.390 . S
C673 C674 1.387 . S
C673 H676 0.950 . S
C674 C673 1.387 . S
C674 C677 1.387 . S
H675 C671 0.950 . S
H676 C673 0.950 . S
C677 C668 1.390 . S
C677 H670 0.950 . S
C677 C674 1.387 . S
C678 C679 1.387 . S
C678 H682 0.950 . S
C678 C687 1.390 . S
C679 C678 1.387 . S
C679 C681 1.387 . S
H680 C687 0.950 . S
C681 C679 1.387 . S
C681 C683 1.390 . S
C681 H685 0.950 . S
H682 C678 0.950 . S
C683 C681 1.390 . S
C683 C684 1.387 . S
C683 H686 0.950 . S
C684 C683 1.387 . S
C684 C687 1.387 . S
H685 C681 0.950 . S
H686 C683 0.950 . S
C687 C678 1.390 . S
C687 H680 0.950 . S
C687 C684 1.387 . S
C688 C689 1.387 . S
C688 H692 0.950 . S
C688 C697 1.390 . S
C689 C688 1.387 . S
C689 C691 1.387 . S
H690 C697 0.950 . S
C691 C689 1.387 . S
C691 C693 1.390 . S
C691 H695 0.950 . S
H692 C688 0.950 . S
C693 C691 1.390 . S
C693 C694 1.387 . S
C693 H696 0.950 . S
C694 C693 1.387 . S
C694 C697 1.387 . S
H695 C691 0.950 . S
H696 C693 0.950 . S
C697 C688 1.390 . S
C697 H690 0.950 . S
C697 C694 1.387 . S
C698 C699 1.387 . S
C698 H702 0.950 . S
C698 C707 1.390 . S
C699 C698 1.387 . S
C699 C701 1.387 . S
H700 C707 0.950 . S
C701 C699 1.387 . S
C701 C703 1.390 . S
C701 H705 0.950 . S
H702 C698 0.950 . S
C703 C701 1.390 . S
C703 C704 1.387 . S
C703 H706 0.950 . S
C704 C703 1.387 . S
C704 C707 1.387 . S
H705 C701 0.950 . S
H706 C703 0.950 . S
C707 C698 1.390 . S
C707 H700 0.950 . S
C707 C704 1.387 . S
C708 C709 1.387 . S
C708 H712 0.950 . S
C708 C717 1.390 . S
C709 C708 1.387 . S
C709 C711 1.387 . S
H710 C717 0.950 . S
C711 C709 1.387 . S
C711 C713 1.390 . S
C711 H715 0.950 . S
H712 C708 0.950 . S
C713 C711 1.390 . S
C713 C714 1.387 . S
C713 H716 0.950 . S
C714 C713 1.387 . S
C714 C717 1.387 . S
H715 C711 0.950 . S
H716 C713 0.950 . S
C717 C708 1.390 . S
C717 H710 0.950 . S
C717 C714 1.387 . S
C718 C719 1.387 . S
C718 H722 0.950 . S
C718 C727 1.390 . S
C719 C718 1.387 . S
C719 C721 1.387 . S
H720 C727 0.950 . S
C721 C719 1.387 . S
C721 C723 1.390 . S
C721 H725 0.950 . S
H722 C718 0.950 . S
C723 C721 1.390 . S
C723 C724 1.387 . S
C723 H726 0.950 . S
C724 C723 1.387 . S
C724 C727 1.387 . S
H725 C721 0.950 . S
H726 C723 0.950 . S
C727 C718 1.390 . S
C727 H720 0.950 . S
C727 C724 1.387 . S
C728 C729 1.387 . S
C728 H732 0.950 . S
C728 C737 1.390 . S
C729 C728 1.387 . S
C729 C731 1.387 . S
H730 C737 0.950 . S
C731 C729 1.387 . S
C731 C733 1.390 . S
C731 H735 0.950 . S
H732 C728 0.950 . S
C733 C731 1.390 . S
C733 C734 1.387 . S
C733 H736 0.950 . S
C734 C733 1.387 . S
C734 C737 1.387 . S
H735 C731 0.950 . S
H736 C733 0.950 . S
C737 C728 1.390 . S
C737 H730 0.950 . S
C737 C734 1.387 . S
C738 C739 1.387 . S
C738 H742 0.950 . S
C738 C747 1.390 1_655 S
C739 C738 1.387 . S
C739 C741 1.387 . S
H740 C747 0.950 . S
C741 C739 1.387 . S
C741 C743 1.390 1_655 S
C741 H745 0.950 . S
H742 C738 0.950 . S
C743 C741 1.390 1_455 S
C743 C744 1.387 . S
C743 H746 0.950 . S
C744 C743 1.387 . S
C744 C747 1.387 . S
H745 C741 0.950 . S
H746 C743 0.950 . S
C747 C738 1.390 1_455 S
C747 H740 0.950 . S
C747 C744 1.387 . S
C748 C749 1.387 . S
C748 H752 0.950 . S
C748 C757 1.390 . S
C749 C748 1.387 . S
C749 C751 1.387 . S
H750 C757 0.950 . S
C751 C749 1.387 . S
C751 C753 1.390 . S
C751 H755 0.950 . S
H752 C748 0.950 . S
C753 C751 1.390 . S
C753 C754 1.387 . S
C753 H756 0.950 . S
C754 C753 1.387 . S
C754 C757 1.387 . S
H755 C751 0.950 . S
H756 C753 0.950 . S
C757 C748 1.390 . S
C757 H750 0.950 . S
C757 C754 1.387 . S
C758 C759 1.387 . S
C758 H762 0.950 . S
C758 C767 1.390 1_455 S
C759 C758 1.387 . S
C759 C761 1.387 . S
H760 C767 0.950 . S
C761 C759 1.387 . S
C761 C763 1.390 1_455 S
C761 H765 0.950 . S
H762 C758 0.950 . S
C763 C761 1.390 1_655 S
C763 C764 1.387 . S
C763 H766 0.950 . S
C764 C763 1.387 . S
C764 C767 1.387 . S
H765 C761 0.950 . S
H766 C763 0.950 . S
C767 C758 1.390 1_655 S
C767 H760 0.950 . S
C767 C764 1.387 . S
C768 C769 1.387 . S
C768 H772 0.950 . S
C768 C777 1.390 1_556 S
C769 C768 1.387 . S
C769 C771 1.387 . S
H770 C777 0.950 . S
C771 C769 1.387 . S
C771 C773 1.390 1_556 S
C771 H775 0.950 . S
H772 C768 0.950 . S
C773 C771 1.390 1_554 S
C773 C774 1.387 . S
C773 H776 0.950 . S
C774 C773 1.387 . S
C774 C777 1.387 . S
H775 C771 0.950 . S
H776 C773 0.950 . S
C777 C768 1.390 1_554 S
C777 H770 0.950 . S
C777 C774 1.387 . S
C778 C779 1.387 . S
C778 H782 0.950 . S
C778 C787 1.390 . S
C779 C778 1.387 . S
C779 C781 1.387 . S
H780 C787 0.950 . S
C781 C779 1.387 . S
C781 C783 1.390 . S
C781 H785 0.950 . S
H782 C778 0.950 . S
C783 C781 1.390 . S
C783 C784 1.387 . S
C783 H786 0.950 . S
C784 C783 1.387 . S
C784 C787 1.387 . S
H785 C781 0.950 . S
H786 C783 0.950 . S
C787 C778 1.390 . S
C787 H780 0.950 . S
C787 C784 1.387 . S
C788 C789 1.387 . S
C788 H792 0.950 . S
C788 C797 1.390 . S
C789 C788 1.387 . S
C789 C791 1.387 . S
H790 C797 0.950 . S
C791 C789 1.387 . S
C791 C793 1.390 . S
C791 H795 0.950 . S
H792 C788 0.950 . S
C793 C791 1.390 . S
C793 C794 1.387 . S
C793 H796 0.950 . S
C794 C793 1.387 . S
C794 C797 1.387 . S
H795 C791 0.950 . S
H796 C793 0.950 . S
C797 C788 1.390 . S
C797 H790 0.950 . S
C797 C794 1.387 . S
C798 C799 1.387 . S
C798 H802 0.950 . S
C798 C807 1.390 . S
C799 C798 1.387 . S
C799 C801 1.387 . S
H800 C807 0.950 . S
C801 C799 1.387 . S
C801 C803 1.390 . S
C801 H805 0.950 . S
H802 C798 0.950 . S
C803 C801 1.390 . S
C803 C804 1.387 . S
C803 H806 0.950 . S
C804 C803 1.387 . S
C804 C807 1.387 . S
H805 C801 0.950 . S
H806 C803 0.950 . S
C807 C798 1.390 . S
C807 H800 0.950 . S
C807 C804 1.387 . S
C808 C809 1.387 . S
C808 H812 0.950 . S
C808 C817 1.390 1_554 S
C809 C808 1.387 . S
C809 C811 1.387 . S
H810 C817 0.950 . S
C811 C809 1.387 . S
C811 C813 1.390 1_554 S
C811 H815 0.950 . S
H812 C808 0.950 . S
C813 C811 1.390 1_556 S
C813 C814 1.387 . S
C813 H816 0.950 . S
C814 C813 1.387 . S
C814 C817 1.387 . S
H815 C811 0.950 . S
H816 C813 0.950 . S
C817 C808 1.390 1_556 S
C817 H810 0.950 . S
C817 C814 1.387 . S
C818 C819 1.387 . S
C818 H822 0.950 . S
C818 C827 1.390 . S
C819 C818 1.387 . S
C819 C821 1.387 . S
H820 C827 0.950 . S
C821 C819 1.387 . S
C821 C823 1.390 . S
C821 H825 0.950 . S
H822 C818 0.950 . S
C823 C821 1.390 . S
C823 C824 1.387 . S
C823 H826 0.950 . S
C824 C823 1.387 . S
C824 C827 1.387 . S
H825 C821 0.950 . S
H826 C823 0.950 . S
C827 C818 1.390 . S
C827 H820 0.950 . S
C827 C824 1.387 . S
C828 C829 1.387 . S
C828 H832 0.950 . S
C828 C837 1.390 . S
C829 C828 1.387 . S
C829 C831 1.387 . S
H830 C837 0.950 . S
C831 C829 1.387 . S
C831 C833 1.390 . S
C831 H835 0.950 . S
H832 C828 0.950 . S
C833 C831 1.390 . S
C833 C834 1.387 . S
C833 H836 0.950 . S
C834 C833 1.387 . S
C834 C837 1.387 . S
H835 C831 0.950 . S
H836 C833 0.950 . S
C837 C828 1.390 . S
C837 H830 0.950 . S
C837 C834 1.387 . S
C838 C839 1.387 . S
C838 H842 0.950 . S
C838 C847 1.390 . S
C839 C838 1.387 . S
C839 C841 1.387 . S
H840 C847 0.950 . S
C841 C839 1.387 . S
C841 C843 1.390 . S
C841 H845 0.950 . S
H842 C838 0.950 . S
C843 C841 1.390 . S
C843 C844 1.387 . S
C843 H846 0.950 . S
C844 C843 1.387 . S
C844 C847 1.387 . S
H845 C841 0.950 . S
H846 C843 0.950 . S
C847 C838 1.390 . S
C847 H840 0.950 . S
C847 C844 1.387 . S
C848 C849 1.387 . S
C848 H852 0.950 . S
C848 C857 1.390 1_545 S
C849 C848 1.387 . S
C849 C851 1.387 . S
H850 C857 0.950 . S
C851 C849 1.387 . S
C851 C853 1.390 1_545 S
C851 H855 0.950 . S
H852 C848 0.950 . S
C853 C851 1.390 1_565 S
C853 C854 1.387 . S
C853 H856 0.950 . S
C854 C853 1.387 . S
C854 C857 1.387 . S
H855 C851 0.950 . S
H856 C853 0.950 . S
C857 C848 1.390 1_565 S
C857 H850 0.950 . S
C857 C854 1.387 . S
C858 C859 1.387 . S
C858 H862 0.950 . S
C858 C867 1.390 . S
C859 C858 1.387 . S
C859 C861 1.387 . S
H860 C867 0.950 . S
C861 C859 1.387 . S
C861 C863 1.390 . S
C861 H865 0.950 . S
H862 C858 0.950 . S
C863 C861 1.390 . S
C863 C864 1.387 . S
C863 H866 0.950 . S
C864 C863 1.387 . S
C864 C867 1.387 . S
H865 C861 0.950 . S
H866 C863 0.950 . S
C867 C858 1.390 . S
C867 H860 0.950 . S
C867 C864 1.387 . S
C868 C869 1.387 . S
C868 H872 0.950 . S
C868 C877 1.390 1_564 S
C869 C868 1.387 . S
C869 C871 1.387 . S
H870 C877 0.950 . S
C871 C869 1.387 . S
C871 C873 1.390 1_564 S
C871 H875 0.950 . S
H872 C868 0.950 . S
C873 C871 1.390 1_546 S
C873 C874 1.387 . S
C873 H876 0.950 . S
C874 C873 1.387 . S
C874 C877 1.387 . S
H875 C871 0.950 . S
H876 C873 0.950 . S
C877 C868 1.390 1_546 S
C877 H870 0.950 . S
C877 C874 1.387 . S
C878 C879 1.387 . S
C878 H882 0.950 . S
C878 C887 1.390 . S
C879 C878 1.387 . S
C879 C881 1.387 . S
H880 C887 0.950 . S
C881 C879 1.387 . S
C881 C883 1.390 . S
C881 H885 0.950 . S
H882 C878 0.950 . S
C883 C881 1.390 . S
C883 C884 1.387 . S
C883 H886 0.950 . S
C884 C883 1.387 . S
C884 C887 1.387 . S
H885 C881 0.950 . S
H886 C883 0.950 . S
C887 C878 1.390 . S
C887 H880 0.950 . S
C887 C884 1.387 . S
C888 C889 1.387 . S
C888 H892 0.950 . S
C888 C897 1.390 1_545 S
C889 C888 1.387 . S
C889 C891 1.387 . S
H890 C897 0.950 . S
C891 C889 1.387 . S
C891 C893 1.390 1_545 S
C891 H895 0.950 . S
H892 C888 0.950 . S
C893 C891 1.390 1_565 S
C893 C894 1.387 . S
C893 H896 0.950 . S
C894 C893 1.387 . S
C894 C897 1.387 . S
H895 C891 0.950 . S
H896 C893 0.950 . S
C897 C888 1.390 1_565 S
C897 H890 0.950 . S
C897 C894 1.387 . S
C898 C899 1.387 . S
C898 H902 0.950 . S
C898 C907 1.390 . S
C899 C898 1.387 . S
C899 C901 1.387 . S
H900 C907 0.950 . S
C901 C899 1.387 . S
C901 C903 1.390 . S
C901 H905 0.950 . S
H902 C898 0.950 . S
C903 C901 1.390 . S
C903 C904 1.387 . S
C903 H906 0.950 . S
C904 C903 1.387 . S
C904 C907 1.387 . S
H905 C901 0.950 . S
H906 C903 0.950 . S
C907 C898 1.390 . S
C907 H900 0.950 . S
C907 C904 1.387 . S
C908 C909 1.387 . S
C908 H912 0.950 . S
C908 C917 1.390 1_564 S
C909 C908 1.387 . S
C909 C911 1.387 . S
H910 C917 0.950 . S
C911 C909 1.387 . S
C911 C913 1.390 1_564 S
C911 H915 0.950 . S
H912 C908 0.950 . S
C913 C911 1.390 1_546 S
C913 C914 1.387 . S
C913 H916 0.950 . S
C914 C913 1.387 . S
C914 C917 1.387 . S
H915 C911 0.950 . S
H916 C913 0.950 . S
C917 C908 1.390 1_546 S
C917 H910 0.950 . S
C917 C914 1.387 . S
C918 C919 1.387 . S
C918 H922 0.950 . S
C918 C927 1.390 . S
C919 C918 1.387 . S
C919 C921 1.387 . S
H920 C927 0.950 . S
C921 C919 1.387 . S
C921 C923 1.390 . S
C921 H925 0.950 . S
H922 C918 0.950 . S
C923 C921 1.390 . S
C923 C924 1.387 . S
C923 H926 0.950 . S
C924 C923 1.387 . S
C924 C927 1.387 . S
H925 C921 0.950 . S
H926 C923 0.950 . S
C927 C918 1.390 . S
C927 H920 0.950 . S
C927 C924 1.387 . S
C928 C929 1.387 . S
C928 H932 0.950 . S
C928 C937 1.390 . S
C929 C928 1.387 . S
C929 C931 1.387 . S
H930 C937 0.950 . S
C931 C929 1.387 . S
C931 C933 1.390 . S
C931 H935 0.950 . S
H932 C928 0.950 . S
C933 C931 1.390 . S
C933 C934 1.387 . S
C933 H936 0.950 . S
C934 C933 1.387 . S
C934 C937 1.387 . S
H935 C931 0.950 . S
H936 C933 0.950 . S
C937 C928 1.390 . S
C937 H930 0.950 . S
C937 C934 1.387 . S
C938 C939 1.387 . S
C938 H942 0.950 . S
C938 C947 1.390 . S
C939 C938 1.387 . S
C939 C941 1.387 . S
H940 C947 0.950 . S
C941 C939 1.387 . S
C941 C943 1.390 . S
C941 H945 0.950 . S
H942 C938 0.950 . S
C943 C941 1.390 . S
C943 C944 1.387 . S
C943 H946 0.950 . S
C944 C943 1.387 . S
C944 C947 1.387 . S
H945 C941 0.950 . S
H946 C943 0.950 . S
C947 C938 1.390 . S
C947 H940 0.950 . S
C947 C944 1.387 . S
C948 C949 1.387 . S
C948 H952 0.950 . S
C948 C957 1.390 . S
C949 C948 1.387 . S
C949 C951 1.387 . S
H950 C957 0.950 . S
C951 C949 1.387 . S
C951 C953 1.390 . S
C951 H955 0.950 . S
H952 C948 0.950 . S
C953 C951 1.390 . S
C953 C954 1.387 . S
C953 H956 0.950 . S
C954 C953 1.387 . S
C954 C957 1.387 . S
H955 C951 0.950 . S
H956 C953 0.950 . S
C957 C948 1.390 . S
C957 H950 0.950 . S
C957 C954 1.387 . S
C958 C959 1.387 . S
C958 H962 0.950 . S
C958 C967 1.390 1_655 S
C959 C958 1.387 . S
C959 C961 1.387 . S
H960 C967 0.950 . S
C961 C959 1.387 . S
C961 C963 1.390 1_655 S
C961 H965 0.950 . S
H962 C958 0.950 . S
C963 C961 1.390 1_455 S
C963 C964 1.387 . S
C963 H966 0.950 . S
C964 C963 1.387 . S
C964 C967 1.387 . S
H965 C961 0.950 . S
H966 C963 0.950 . S
C967 C958 1.390 1_455 S
C967 H960 0.950 . S
C967 C964 1.387 . S
C968 C969 1.387 . S
C968 H972 0.950 . S
C968 C977 1.390 . S
C969 C968 1.387 . S
C969 C971 1.387 . S
H970 C977 0.950 . S
C971 C969 1.387 . S
C971 C973 1.390 . S
C971 H975 0.950 . S
H972 C968 0.950 . S
C973 C971 1.390 . S
C973 C974 1.387 . S
C973 H976 0.950 . S
C974 C973 1.387 . S
C974 C977 1.387 . S
H975 C971 0.950 . S
H976 C973 0.950 . S
C977 C968 1.390 . S
C977 H970 0.950 . S
C977 C974 1.387 . S
C978 C979 1.387 . S
C978 H982 0.950 . S
C978 C987 1.390 1_655 S
C979 C978 1.387 . S
C979 C981 1.387 . S
H980 C987 0.950 . S
C981 C979 1.387 . S
C981 C983 1.390 1_655 S
C981 H985 0.950 . S
H982 C978 0.950 . S
C983 C981 1.390 1_455 S
C983 C984 1.387 . S
C983 H986 0.950 . S
C984 C983 1.387 . S
C984 C987 1.387 . S
H985 C981 0.950 . S
H986 C983 0.950 . S
C987 C978 1.390 1_455 S
C987 H980 0.950 . S
C987 C984 1.387 . S
C988 C989 1.387 . S
C988 H992 0.950 . S
C988 C997 1.390 . S
C989 C988 1.387 . S
C989 C991 1.387 . S
H990 C997 0.950 . S
C991 C989 1.387 . S
C991 C993 1.390 . S
C991 H995 0.950 . S
H992 C988 0.950 . S
C993 C991 1.390 . S
C993 C994 1.387 . S
C993 H996 0.950 . S
C994 C993 1.387 . S
C994 C997 1.387 . S
H995 C991 0.950 . S
H996 C993 0.950 . S
C997 C988 1.390 . S
C997 H990 0.950 . S
C997 C994 1.387 . S
C998 C999 1.387 . S
C998 H1002 0.950 . S
C998 C1007 1.390 . S
C999 C998 1.387 . S
C999 C1001 1.387 . S
H1000 C1007 0.950 . S
C1001 C999 1.387 . S
C1001 C1003 1.390 . S
C1001 H1005 0.950 . S
H1002 C998 0.950 . S
C1003 C1001 1.390 . S
C1003 C1004 1.387 . S
C1003 H1006 0.950 . S
C1004 C1003 1.387 . S
C1004 C1007 1.387 . S
H1005 C1001 0.950 . S
H1006 C1003 0.950 . S
C1007 C998 1.390 . S
C1007 H1000 0.950 . S
C1007 C1004 1.387 . S
C1008 C1009 1.387 . S
C1008 H1012 0.950 . S
C1008 C1017 1.390 . S
C1009 C1008 1.387 . S
C1009 C1011 1.387 . S
H1010 C1017 0.950 . S
C1011 C1009 1.387 . S
C1011 C1013 1.390 . S
C1011 H1015 0.950 . S
H1012 C1008 0.950 . S
C1013 C1011 1.390 . S
C1013 C1014 1.387 . S
C1013 H1016 0.950 . S
C1014 C1013 1.387 . S
C1014 C1017 1.387 . S
H1015 C1011 0.950 . S
H1016 C1013 0.950 . S
C1017 C1008 1.390 . S
C1017 H1010 0.950 . S
C1017 C1014 1.387 . S
C1018 C1019 1.387 . S
C1018 H1022 0.950 . S
C1018 C1027 1.390 . S
C1019 C1018 1.387 . S
C1019 C1021 1.387 . S
H1020 C1027 0.950 . S
C1021 C1019 1.387 . S
C1021 C1023 1.390 . S
C1021 H1025 0.950 . S
H1022 C1018 0.950 . S
C1023 C1021 1.390 . S
C1023 C1024 1.387 . S
C1023 H1026 0.950 . S
C1024 C1023 1.387 . S
C1024 C1027 1.387 . S
H1025 C1021 0.950 . S
H1026 C1023 0.950 . S
C1027 C1018 1.390 . S
C1027 H1020 0.950 . S
C1027 C1024 1.387 . S
C1028 C1029 1.387 . S
C1028 H1032 0.950 . S
C1028 C1037 1.390 . S
C1029 C1028 1.387 . S
C1029 C1031 1.387 . S
H1030 C1037 0.950 . S
C1031 C1029 1.387 . S
C1031 C1033 1.390 . S
C1031 H1035 0.950 . S
H1032 C1028 0.950 . S
C1033 C1031 1.390 . S
C1033 C1034 1.387 . S
C1033 H1036 0.950 . S
C1034 C1033 1.387 . S
C1034 C1037 1.387 . S
H1035 C1031 0.950 . S
H1036 C1033 0.950 . S
C1037 C1028 1.390 . S
C1037 H1030 0.950 . S
C1037 C1034 1.387 . S
C1038 C1039 1.387 . S
C1038 H1042 0.950 . S
C1038 C1047 1.390 . S
C1039 C1038 1.387 . S
C1039 C1041 1.387 . S
H1040 C1047 0.950 . S
C1041 C1039 1.387 . S
C1041 C1043 1.390 . S
C1041 H1045 0.950 . S
H1042 C1038 0.950 . S
C1043 C1041 1.390 . S
C1043 C1044 1.387 . S
C1043 H1046 0.950 . S
C1044 C1043 1.387 . S
C1044 C1047 1.387 . S
H1045 C1041 0.950 . S
H1046 C1043 0.950 . S
C1047 C1038 1.390 . S
C1047 H1040 0.950 . S
C1047 C1044 1.387 . S
C1048 C1049 1.387 . S
C1048 H1052 0.950 . S
C1048 C1057 1.390 1_655 S
C1049 C1048 1.387 . S
C1049 C1051 1.387 . S
H1050 C1057 0.950 . S
C1051 C1049 1.387 . S
C1051 C1053 1.390 1_655 S
C1051 H1055 0.950 . S
H1052 C1048 0.950 . S
C1053 C1051 1.390 1_455 S
C1053 C1054 1.387 . S
C1053 H1056 0.950 . S
C1054 C1053 1.387 . S
C1054 C1057 1.387 . S
H1055 C1051 0.950 . S
H1056 C1053 0.950 . S
C1057 C1048 1.390 1_455 S
C1057 H1050 0.950 . S
C1057 C1054 1.387 . S
C1058 C1059 1.387 . S
C1058 H1062 0.950 . S
C1058 C1067 1.390 . S
C1059 C1058 1.387 . S
C1059 C1061 1.387 . S
H1060 C1067 0.950 . S
C1061 C1059 1.387 . S
C1061 C1063 1.390 . S
C1061 H1065 0.950 . S
H1062 C1058 0.950 . S
C1063 C1061 1.390 . S
C1063 C1064 1.387 . S
C1063 H1066 0.950 . S
C1064 C1063 1.387 . S
C1064 C1067 1.387 . S
H1065 C1061 0.950 . S
H1066 C1063 0.950 . S
C1067 C1058 1.390 . S
C1067 H1060 0.950 . S
C1067 C1064 1.387 . S
C1068 C1069 1.387 . S
C1068 H1072 0.950 . S
C1068 C1077 1.390 . S
C1069 C1068 1.387 . S
C1069 C1071 1.387 . S
H1070 C1077 0.950 . S
C1071 C1069 1.387 . S
C1071 C1073 1.390 . S
C1071 H1075 0.950 . S
H1072 C1068 0.950 . S
C1073 C1071 1.390 . S
C1073 C1074 1.387 . S
C1073 H1076 0.950 . S
C1074 C1073 1.387 . S
C1074 C1077 1.387 . S
H1075 C1071 0.950 . S
H1076 C1073 0.950 . S
C1077 C1068 1.390 . S
C1077 H1070 0.950 . S
C1077 C1074 1.387 . S
C1078 C1079 1.387 . S
C1078 H1082 0.950 . S
C1078 C1087 1.390 1_655 S
C1079 C1078 1.387 . S
C1079 C1081 1.387 . S
H1080 C1087 0.950 . S
C1081 C1079 1.387 . S
C1081 C1083 1.390 1_655 S
C1081 H1085 0.950 . S
H1082 C1078 0.950 . S
C1083 C1081 1.390 1_455 S
C1083 C1084 1.387 . S
C1083 H1086 0.950 . S
C1084 C1083 1.387 . S
C1084 C1087 1.387 . S
H1085 C1081 0.950 . S
H1086 C1083 0.950 . S
C1087 C1078 1.390 1_455 S
C1087 H1080 0.950 . S
C1087 C1084 1.387 . S
C449 C333 1.580 . S
C454 C11 1.581 . S
C459 C291 1.581 . S
C464 C25 1.580 . S
C469 C305 1.580 . S
C474 C39 1.581 . S
C479 C319 1.579 . S
C484 C53 1.580 . S
C489 C67 1.581 . S
C494 C249 1.580 . S
C499 C263 1.579 . S
C504 C81 1.580 . S
C509 C95 1.581 . S
C514 C277 1.580 . S
C519 C109 1.580 . S
C524 C235 1.581 . S
C529 C445 1.579 . S
C534 C123 1.579 . S
C539 C137 1.580 . S
C544 C403 1.581 . S
C549 C151 1.581 . S
C554 C417 1.580 . S
C559 C165 1.581 . S
C564 C431 1.581 . S
C569 C179 1.580 . S
C574 C361 1.579 . S
C579 C193 1.579 . S
C584 C375 1.579 . S
C589 C207 1.579 . S
C594 C389 1.580 . S
C599 C221 1.580 . S
C604 C347 1.579 . S
C609 C8 1.566 . S
C614 C176 1.564 . S
C619 C414 1.566 . S
C624 C22 1.564 . S
C629 C36 1.566 . S
C634 C204 1.564 . S
C639 C442 1.566 . S
C644 C50 1.564 . S
C649 C120 1.564 . S
C654 C64 1.566 . S
C659 C78 1.565 . S
C664 C358 1.565 . S
C669 C92 1.566 . S
C674 C148 1.564 . S
C679 C106 1.566 . S
C684 C386 1.564 . S
C689 C302 1.566 . S
C694 C134 1.564 . S
C699 C330 1.564 . S
C704 C162 1.566 . S
C709 C190 1.566 . S
C714 C246 1.564 . S
C719 C274 1.564 . S
C724 C218 1.566 . S
C729 C400 1.564 . S
C734 C232 1.566 . S
C739 C260 1.564 . S
C744 C428 1.566 . S
C749 C344 1.564 . S
C754 C288 1.566 . S
C759 C372 1.564 . S
C764 C316 1.566 . S
C769 C63 1.176 . S
C774 C7 1.176 . S
C779 C77 1.176 . S
C784 C21 1.176 . S
C789 C35 1.176 . S
C794 C91 1.176 . S
C799 C49 1.176 . S
C804 C105 1.176 . S
C809 C175 1.176 . S
C814 C119 1.176 . S
C819 C189 1.176 . S
C824 C133 1.176 . S
C829 C203 1.176 . S
C834 C147 1.176 . S
C839 C161 1.177 . S
C844 C217 1.177 . S
C849 C231 1.176 . S
C854 C287 1.176 . S
C859 C245 1.176 . S
C864 C301 1.176 . S
C869 C259 1.176 . S
C874 C315 1.176 . S
C879 C273 1.177 . S
C884 C329 1.177 . S
C889 C399 1.176 . S
C894 C343 1.176 . S
C899 C413 1.177 . S
C904 C357 1.177 . S
C909 C427 1.176 . S
C914 C371 1.176 . S
C919 C441 1.176 . S
C924 C385 1.176 . S
C929 C433 1.367 . S
C934 C13 1.369 . S
C939 C27 1.367 . S
C944 C223 1.369 . S
C949 C405 1.369 . S
C954 C41 1.366 . S
C959 C55 1.370 . S
C964 C195 1.366 . S
C969 C377 1.366 . S
C974 C69 1.369 . S
C979 C83 1.366 . S
C984 C167 1.369 . S
C989 C97 1.366 . S
C994 C349 1.369 . S
C999 C139 1.368 . S
C1004 C111 1.368 . S
C1009 C125 1.369 . S
C1014 C321 1.366 . S
C1019 C293 1.368 . S
C1024 C153 1.367 . S
C1029 C181 1.369 . S
C1034 C265 1.366 . S
C1039 C209 1.369 . S
C1044 C237 1.367 . S
C1049 C447 1.366 . S
C1054 C251 1.369 . S
C1059 C279 1.367 . S
C1064 C419 1.369 . S
C1069 C307 1.368 . S
C1074 C391 1.367 . S
C1079 C363 1.368 . S
C1084 C335 1.367 . S
