# Generated by pormake.
# Topology lhb, (8)-cn, num edge types: 1
# Building blocks:
#     Node 0, Type 0, BuildingBlock: OLANAS_clean_sbu_2, # of connection points: 8
#     Node 1, Type 0, BuildingBlock: OLANAS_clean_sbu_2, # of connection points: 8
#     Node 2, Type 0, BuildingBlock: OLANAS_clean_sbu_2, # of connection points: 8
#     Node 3, Type 0, BuildingBlock: OLANAS_clean_sbu_2, # of connection points: 8
#     Node 4, Type 0, BuildingBlock: OLANAS_clean_sbu_2, # of connection points: 8
#     Node 5, Type 0, BuildingBlock: OLANAS_clean_sbu_2, # of connection points: 8
#     Node 6, Type 0, BuildingBlock: OLANAS_clean_sbu_2, # of connection points: 8
#     Node 7, Type 0, BuildingBlock: OLANAS_clean_sbu_2, # of connection points: 8
#     Edge 8, Type (0, 0), BuildingBlock: KIFKEQ_clean_linker_1, # of connection points: 2
#     Edge 9, Type (0, 0), BuildingBlock: KIFKEQ_clean_linker_1, # of connection points: 2
#     Edge 10, Type (0, 0), BuildingBlock: KIFKEQ_clean_linker_1, # of connection points: 2
#     Edge 11, Type (0, 0), BuildingBlock: KIFKEQ_clean_linker_1, # of connection points: 2
#     Edge 12, Type (0, 0), BuildingBlock: KIFKEQ_clean_linker_1, # of connection points: 2
#     Edge 13, Type (0, 0), BuildingBlock: KIFKEQ_clean_linker_1, # of connection points: 2
#     Edge 14, Type (0, 0), BuildingBlock: KIFKEQ_clean_linker_1, # of connection points: 2
#     Edge 15, Type (0, 0), BuildingBlock: KIFKEQ_clean_linker_1, # of connection points: 2
#     Edge 16, Type (0, 0), BuildingBlock: KIFKEQ_clean_linker_1, # of connection points: 2
#     Edge 17, Type (0, 0), BuildingBlock: KIFKEQ_clean_linker_1, # of connection points: 2
#     Edge 18, Type (0, 0), BuildingBlock: KIFKEQ_clean_linker_1, # of connection points: 2
#     Edge 19, Type (0, 0), BuildingBlock: KIFKEQ_clean_linker_1, # of connection points: 2
#     Edge 20, Type (0, 0), BuildingBlock: KIFKEQ_clean_linker_1, # of connection points: 2
#     Edge 21, Type (0, 0), BuildingBlock: KIFKEQ_clean_linker_1, # of connection points: 2
#     Edge 22, Type (0, 0), BuildingBlock: KIFKEQ_clean_linker_1, # of connection points: 2
#     Edge 23, Type (0, 0), BuildingBlock: KIFKEQ_clean_linker_1, # of connection points: 2
#     Edge 24, Type (0, 0), BuildingBlock: KIFKEQ_clean_linker_1, # of connection points: 2
#     Edge 25, Type (0, 0), BuildingBlock: KIFKEQ_clean_linker_1, # of connection points: 2
#     Edge 26, Type (0, 0), BuildingBlock: KIFKEQ_clean_linker_1, # of connection points: 2
#     Edge 27, Type (0, 0), BuildingBlock: KIFKEQ_clean_linker_1, # of connection points: 2
#     Edge 28, Type (0, 0), BuildingBlock: KIFKEQ_clean_linker_1, # of connection points: 2
#     Edge 29, Type (0, 0), BuildingBlock: KIFKEQ_clean_linker_1, # of connection points: 2
#     Edge 30, Type (0, 0), BuildingBlock: KIFKEQ_clean_linker_1, # of connection points: 2
#     Edge 31, Type (0, 0), BuildingBlock: KIFKEQ_clean_linker_1, # of connection points: 2
#     Edge 32, Type (0, 0), BuildingBlock: KIFKEQ_clean_linker_1, # of connection points: 2
#     Edge 33, Type (0, 0), BuildingBlock: KIFKEQ_clean_linker_1, # of connection points: 2
#     Edge 34, Type (0, 0), BuildingBlock: KIFKEQ_clean_linker_1, # of connection points: 2
#     Edge 35, Type (0, 0), BuildingBlock: KIFKEQ_clean_linker_1, # of connection points: 2
#     Edge 36, Type (0, 0), BuildingBlock: KIFKEQ_clean_linker_1, # of connection points: 2
#     Edge 37, Type (0, 0), BuildingBlock: KIFKEQ_clean_linker_1, # of connection points: 2
#     Edge 38, Type (0, 0), BuildingBlock: KIFKEQ_clean_linker_1, # of connection points: 2
#     Edge 39, Type (0, 0), BuildingBlock: KIFKEQ_clean_linker_1, # of connection points: 2
# Relax obj value: 0.220
# Max RMSD: 0.285
# Mean RMSD: 0.285
data_MOF--net-lhb--node1-OLANAS_clean_sbu_2--edge1-KIFKEQ_clean_linker_1
_symmetry_space_group_name_H-M    P1
_symmetry_Int_Tables_number       1
_symmetry_cell_setting            triclinic
loop_
_symmetry_equiv_pos_as_xyz
'x, y, z'
_cell_length_a     31.049205
_cell_length_b     19.34532
_cell_length_c     65.93459
_cell_angle_alpha  89.95064
_cell_angle_beta   89.978936
_cell_angle_gamma 90.028689
loop_
_atom_site_label
_atom_site_type_symbol
_atom_site_fract_x
_atom_site_fract_y
_atom_site_fract_z
_atom_type_partial_charge
C0 C 0.04668 0.88582 0.00351 0.0
O1 O 0.055 0.83715 0.01688 0.0
C2 C 0.08067 0.91707 -0.00904 0.0
C3 C 0.12479 0.90246 -0.00948 0.0
C4 C 0.15072 0.93925 0.97651 0.0
C5 C 0.13227 0.98862 0.96324 0.0
C6 C 0.08781 0.99961 0.9644 0.0
N7 N 0.06543 0.96489 0.97834 0.0
N8 N 0.00986 0.05258 -0.00066 0.0
Co9 Co 0.00714 0.98022 0.97892 0.0
N10 N 0.94884 0.99566 0.97895 0.0
C11 C 0.89143 0.06621 0.98929 0.0
C12 C 0.86527 0.03134 0.97499 0.0
C13 C 0.88269 0.97901 0.96242 0.0
C14 C 0.92626 0.96245 0.96477 0.0
C15 C 0.9347 0.04671 -0.00923 0.0
N16 N 0.99527 0.91042 0.95852 0.0
N17 N 0.00571 0.90984 9e-05 0.0
N18 N 0.01802 0.04847 0.95786 0.0
C19 C 0.96937 0.07806 0.00289 0.0
O20 O 0.96205 0.12733 0.01618 0.0
C21 C 0.06077 0.04778 0.9527 0.0
O22 O 0.07733 0.09273 0.93991 0.0
C23 C 0.9907 0.10626 0.95329 0.0
C24 C 0.97368 0.22868 0.95678 0.0
C25 C 0.99906 0.17128 0.96192 0.0
C26 C 0.95741 0.09901 0.93919 0.0
C27 C 0.93219 0.15622 0.93349 0.0
C28 C 0.94013 0.2205 0.94273 0.0
C29 C 0.9526 0.91257 0.95329 0.0
O30 O 0.9355 0.86804 0.94058 0.0
C31 C 0.0224 0.85233 0.95402 0.0
C32 C 0.05626 0.85958 0.9402 0.0
C33 C 0.08223 0.8027 0.93512 0.0
C34 C 0.07438 0.73858 0.94441 0.0
C35 C 0.03975 0.72999 0.95787 0.0
C36 C 0.01382 0.78725 0.96262 0.0
C37 C 0.96993 0.89065 0.01273 0.0
C38 C 0.93344 0.85866 0.0044 0.0
C39 C 0.9004 0.83448 0.01703 0.0
C40 C 0.90395 0.84275 0.03807 0.0
C41 C 0.94054 0.87348 0.04671 0.0
C42 C 0.97337 0.89729 0.03389 0.0
C43 C 0.04605 0.06788 0.01204 0.0
C44 C 0.11839 0.08712 0.03661 0.0
C45 C 0.0797 0.06412 0.04526 0.0
C46 C 0.04357 0.05484 0.03292 0.0
C47 C 0.08391 0.09591 0.00382 0.0
C48 C 0.12046 0.10417 0.01599 0.0
H49 H 0.13876 0.86418 0.00052 0.0
H50 H 0.18498 0.92935 0.97588 0.0
H51 H 0.15201 1.01666 0.95249 0.0
H52 H 0.87847 0.1076 -0.00152 0.0
H53 H 0.83174 0.04556 0.97342 0.0
H54 H 0.86294 0.95322 0.95122 0.0
H55 H 0.0256 0.17721 0.97242 0.0
H56 H 0.9523 0.04911 0.93218 0.0
H57 H 0.92246 0.26583 0.93784 0.0
H58 H 0.06081 0.90878 0.93266 0.0
H59 H 0.09381 0.69424 0.94027 0.0
H60 H 0.98677 0.78107 0.97281 0.0
H61 H 0.93157 0.849 0.98834 0.0
H62 H 0.87776 0.82552 0.04772 0.0
H63 H 0.00238 0.91894 0.04038 0.0
H64 H 0.14644 0.09514 0.04613 0.0
H65 H 0.01361 0.03714 0.0395 0.0
H66 H 0.08503 0.11159 0.98811 0.0
C67 C 0.2091 0.16092 0.25694 0.0
O68 O 0.2027 0.11101 0.27016 0.0
C69 C 0.17353 0.19218 0.24543 0.0
C70 C 0.12998 0.17361 0.24508 0.0
C71 C 0.10254 0.20887 0.2314 0.0
C72 C 0.119 0.26056 0.21831 0.0
C73 C 0.16295 0.27597 0.21949 0.0
N74 N 0.1868 0.2426 0.23317 0.0
N75 N 0.24511 0.32941 0.2529 0.0
Co76 Co 0.24511 0.2581 0.23214 0.0
N77 N 0.30341 0.27351 0.23057 0.0
C78 C 0.36222 0.34321 0.23961 0.0
C79 C 0.38667 0.3083 0.22466 0.0
C80 C 0.36777 0.25602 0.21257 0.0
C81 C 0.32441 0.23995 0.21594 0.0
C82 C 0.31909 0.32402 0.24212 0.0
N83 N 0.25449 0.18935 0.21117 0.0
N84 N 0.24939 0.18655 0.2528 0.0
N85 N 0.23144 0.32716 0.21171 0.0
C86 C 0.28603 0.35513 0.25519 0.0
O87 O 0.29492 0.40575 0.26782 0.0
C88 C 0.18836 0.32515 0.20732 0.0
O89 O 0.17033 0.36899 0.19466 0.0
C90 C 0.25851 0.38392 0.20589 0.0
C91 C 0.2768 0.50637 0.20727 0.0
C92 C 0.25115 0.45051 0.21358 0.0
C93 C 0.29094 0.37354 0.19162 0.0
C94 C 0.31677 0.42867 0.18492 0.0
C95 C 0.3099 0.49484 0.19312 0.0
C96 C 0.29662 0.19078 0.20503 0.0
O97 O 0.31201 0.14677 0.19169 0.0
C98 C 0.22661 0.13223 0.20674 0.0
C99 C 0.19333 0.14032 0.19269 0.0
C100 C 0.16885 0.08313 0.18631 0.0
C101 C 0.17694 0.01819 0.19514 0.0
C102 C 0.21034 1.00936 0.20924 0.0
C103 C 0.2353 0.06665 0.21489 0.0
C104 C 0.28632 0.16927 0.26487 0.0
C105 C 0.32294 0.139 0.25608 0.0
C106 C 0.35748 0.11792 0.2683 0.0
C107 C 0.35478 0.12574 0.28938 0.0
C108 C 0.31804 0.15472 0.2984 0.0
C109 C 0.28418 0.17698 0.286 0.0
C110 C 0.21019 0.35036 0.26574 0.0
C111 C 0.14892 0.4093 0.29161 0.0
C112 C 0.18473 0.37523 0.29981 0.0
C113 C 0.21488 0.34498 0.28686 0.0
C114 C 0.17421 0.38483 0.25768 0.0
C115 C 0.14329 0.4139 0.27059 0.0
H116 H 0.11768 0.13283 0.25472 0.0
H117 H 0.06873 0.1955 0.23075 0.0
H118 H 0.09823 0.28674 0.20759 0.0
H119 H 0.37633 0.38432 0.24853 0.0
H120 H 0.42005 0.32227 0.2223 0.0
H121 H 0.38619 0.23009 0.20091 0.0
H122 H 0.22526 0.45889 0.22429 0.0
H123 H 0.29507 0.32239 0.18534 0.0
H124 H 0.32821 0.53851 0.18748 0.0
H125 H 0.18817 0.19073 0.18599 0.0
H126 H 0.15987 0.9729 0.18977 0.0
H127 H 0.26206 0.0601 0.22525 0.0
H128 H 0.324 0.12892 0.24001 0.0
H129 H 0.38177 0.11003 0.29874 0.0
H130 H 0.25533 0.19825 0.29279 0.0
H131 H 0.12512 0.43193 0.30166 0.0
H132 H 0.24318 0.32033 0.29314 0.0
H133 H 0.17126 0.39271 0.24157 0.0
C134 C 0.71784 0.69913 0.25429 0.0
O135 O 0.70765 0.64872 0.2668 0.0
C136 C 0.68583 0.73094 0.24077 0.0
C137 C 0.64244 0.71368 0.23807 0.0
C138 C 0.6191 0.74884 0.22277 0.0
C139 C 0.63936 0.79934 0.21048 0.0
C140 C 0.68293 0.81334 0.21399 0.0
N141 N 0.70278 0.77989 0.22902 0.0
N142 N 0.7568 0.86551 0.25159 0.0
Co143 Co 0.7611 0.79344 0.23113 0.0
N144 N 0.81946 0.80717 0.23262 0.0
C145 C 0.8766 0.87465 0.24486 0.0
C146 C 0.90409 0.83848 0.23141 0.0
C147 C 0.88749 0.78724 0.21823 0.0
C148 C 0.8433 0.77342 0.21902 0.0
C149 C 0.83285 0.8573 0.24494 0.0
N150 N 0.77453 0.72325 0.211 0.0
N151 N 0.75933 0.7228 0.25223 0.0
N152 N 0.75353 0.86216 0.20983 0.0
C153 C 0.79719 0.8898 0.25611 0.0
O154 O 0.8036 0.93975 0.26928 0.0
C155 C 0.71179 0.8613 0.20316 0.0
O156 O 0.69762 0.9048 0.18936 0.0
C157 C 0.78306 0.91685 0.20486 0.0
C158 C 0.80374 0.03896 0.20615 0.0
C159 C 0.77597 0.98466 0.21194 0.0
C160 C 0.81668 0.90404 0.19126 0.0
C161 C 0.84504 0.9571 0.18556 0.0
C162 C 0.83974 0.02298 0.19407 0.0
C163 C 0.81771 0.72476 0.20672 0.0
O164 O 0.83579 0.6798 0.19444 0.0
C165 C 0.74785 0.66487 0.20608 0.0
C166 C 0.71636 0.67119 0.19107 0.0
C167 C 0.69217 0.6135 0.18494 0.0
C168 C 0.69908 0.54949 0.19448 0.0
C169 C 0.73127 0.54165 0.20925 0.0
C170 C 0.75548 0.5999 0.21502 0.0
C171 C 0.79369 0.69906 0.26512 0.0
C172 C 0.83005 0.66596 0.2569 0.0
C173 C 0.86024 0.63391 0.26955 0.0
C174 C 0.85342 0.63337 0.29049 0.0
C175 C 0.81729 0.66571 0.29894 0.0
C176 C 0.78809 0.7 0.28629 0.0
C177 C 0.71924 0.88532 0.26289 0.0
C178 C 0.64955 0.93423 0.28563 0.0
C179 C 0.68471 0.90415 0.29555 0.0
C180 C 0.71908 0.87821 0.28413 0.0
C181 C 0.68413 0.91714 0.25317 0.0
C182 C 0.6488 0.94017 0.26452 0.0
H183 H 0.62726 0.67393 0.24716 0.0
H184 H 0.58552 0.73649 0.22031 0.0
H185 H 0.62173 0.82561 0.19861 0.0
H186 H 0.88904 0.91515 0.25454 0.0
H187 H 0.93808 0.85077 0.231 0.0
H188 H 0.90834 0.76027 0.20773 0.0
H189 H 0.74791 0.99504 0.2212 0.0
H190 H 0.81911 0.8535 0.18432 0.0
H191 H 0.86267 0.06313 0.19023 0.0
H192 H 0.71218 0.72046 0.18352 0.0
H193 H 0.68216 0.50415 0.18901 0.0
H194 H 0.78087 0.59428 0.22609 0.0
H195 H 0.83399 0.66106 0.24079 0.0
H196 H 0.87664 0.6081 0.30031 0.0
H197 H 0.75987 0.7244 0.29279 0.0
H198 H 0.6223 0.95261 0.29442 0.0
H199 H 0.74635 0.8548 0.29174 0.0
H200 H 0.68473 0.92643 0.23705 0.0
C201 C 0.03907 0.42438 0.51031 0.0
O202 O 0.04619 0.37611 0.52396 0.0
C203 C 0.07414 0.45553 0.49842 0.0
C204 C 0.11798 0.43883 0.49831 0.0
C205 C 0.14487 0.47304 0.48415 0.0
C206 C 0.12763 0.52191 0.47039 0.0
C207 C 0.08344 0.53564 0.47138 0.0
N208 N 0.06007 0.5033 0.48548 0.0
N209 N 1.00014 0.59031 0.50408 0.0
Co210 Co 0.00151 0.51592 0.48422 0.0
N211 N 0.94295 0.52832 0.48247 0.0
C212 C 0.88287 0.59637 0.49066 0.0
C213 C 0.85909 0.55819 0.47618 0.0
C214 C 0.87899 0.50531 0.46469 0.0
C215 C 0.92257 0.49167 0.46828 0.0
C216 C 0.92634 0.57968 0.49338 0.0
N217 N 0.9933 0.44341 0.46418 0.0
N218 N 0.99839 0.44737 0.50578 0.0
N219 N 0.01416 0.58266 0.46287 0.0
C220 C 0.95877 0.61434 0.50602 0.0
O221 O 0.94894 0.66668 0.51787 0.0
C222 C 0.0573 0.58166 0.45853 0.0
O223 O 0.07469 0.62372 0.44516 0.0
C224 C 0.9863 0.63737 0.45615 0.0
C225 C 0.96836 0.76038 0.45426 0.0
C226 C 0.99418 0.70635 0.46186 0.0
C227 C 0.95327 0.62266 0.44249 0.0
C228 C 0.92649 0.67524 0.43505 0.0
C229 C 0.93354 0.74348 0.44151 0.0
C230 C 0.95125 0.44246 0.45792 0.0
O231 O 0.93678 0.39678 0.44482 0.0
C232 C 0.02271 0.38842 0.45954 0.0
C233 C 0.05557 0.39993 0.44556 0.0
C234 C 0.08074 0.34506 0.43821 0.0
C235 C 0.0736 0.27816 0.44589 0.0
C236 C 0.04044 0.26546 0.45996 0.0
C237 C 0.01512 0.32115 0.46675 0.0
C238 C 0.96124 0.4263 0.51719 0.0
C239 C 0.92731 0.39041 0.50781 0.0
C240 C 0.89312 0.36436 0.51939 0.0
C241 C 0.89375 0.3723 0.54047 0.0
C242 C 0.92804 0.40601 0.55014 0.0
C243 C 0.9612 0.43435 0.53836 0.0
C244 C 0.03472 0.61589 0.51643 0.0
C245 C 0.09533 0.68334 0.54081 0.0
C246 C 0.05999 0.6504 0.54983 0.0
C247 C 0.03031 0.61528 0.53765 0.0
C248 C 0.07007 0.64992 0.50759 0.0
C249 C 0.10084 0.68266 0.51978 0.0
H250 H 0.13092 0.40015 0.50849 0.0
H251 H 0.17889 0.46103 0.48366 0.0
H252 H 0.14798 0.54724 0.45932 0.0
H253 H 0.868 0.638 0.49908 0.0
H254 H 0.82549 0.57021 0.47365 0.0
H255 H 0.86109 0.47696 0.45333 0.0
H256 H 0.0214 0.71779 0.47151 0.0
H257 H 0.94946 0.57023 0.43717 0.0
H258 H 0.91322 0.78426 0.43564 0.0
H259 H 0.05967 0.45145 0.43951 0.0
H260 H 0.09125 0.23486 0.43961 0.0
H261 H 0.98859 0.31197 0.47707 0.0
H262 H 0.92828 0.37943 0.49182 0.0
H263 H 0.8671 0.3524 0.54938 0.0
H264 H 0.98803 0.46015 0.54565 0.0
H265 H 0.1191 0.70883 0.55028 0.0
H266 H 0.00274 0.5902 0.54455 0.0
H267 H 0.07281 0.65438 0.49139 0.0
C268 C 0.21722 0.7011 0.75123 0.0
O269 O 0.20683 0.64807 0.76273 0.0
C270 C 0.18525 0.73706 0.73862 0.0
C271 C 0.14166 0.72156 0.73571 0.0
C272 C 0.11832 0.7617 0.72151 0.0
C273 C 0.13873 0.81542 0.71052 0.0
C274 C 0.18242 0.82772 0.71426 0.0
N275 N 0.20239 0.78903 0.72811 0.0
N276 N 0.2567 0.86782 0.75241 0.0
Co277 Co 0.26081 0.8012 0.73042 0.0
N278 N 0.31923 0.81379 0.73224 0.0
C279 C 0.37661 0.87715 0.74603 0.0
C280 C 0.40407 0.84396 0.73192 0.0
C281 C 0.38735 0.79626 0.71767 0.0
C282 C 0.3431 0.78277 0.7181 0.0
C283 C 0.33276 0.86055 0.74562 0.0
N284 N 0.27416 0.73619 0.70877 0.0
N285 N 0.25873 0.72505 0.74974 0.0
N286 N 0.25352 0.87557 0.71081 0.0
C287 C 0.29718 0.89055 0.75743 0.0
O288 O 0.30379 0.93646 0.77179 0.0
C289 C 0.2115 0.87789 0.70451 0.0
O290 O 0.19733 0.92585 0.69205 0.0
C291 C 0.28259 0.93244 0.70769 0.0
C292 C 0.29978 0.05496 0.71184 0.0
C293 C 0.27393 0.99727 0.71644 0.0
C294 C 0.31668 0.92571 0.69398 0.0
C295 C 0.34284 0.98274 0.68915 0.0
C296 C 0.33503 0.04639 0.69873 0.0
C297 C 0.31744 0.73764 0.70477 0.0
O298 O 0.33539 0.69589 0.69151 0.0
C299 C 0.2468 0.68047 0.70227 0.0
C300 C 0.2128 0.69411 0.68906 0.0
C301 C 0.1853 0.641 0.68255 0.0
C302 C 0.1927 0.57333 0.68945 0.0
C303 C 0.22819 0.5575 0.7019 0.0
C304 C 0.25482 0.61201 0.70851 0.0
C305 C 0.29268 0.69919 0.76245 0.0
C306 C 0.32869 0.66568 0.75404 0.0
C307 C 0.35842 0.63181 0.76659 0.0
C308 C 0.35168 0.631 0.78758 0.0
C309 C 0.31597 0.66419 0.79616 0.0
C310 C 0.28691 0.6989 0.78358 0.0
C311 C 0.21946 0.88347 0.7645 0.0
C312 C 0.15094 0.92379 0.78939 0.0
C313 C 0.18631 0.88949 0.79794 0.0
C314 C 0.22022 0.86878 0.78535 0.0
C315 C 0.18422 0.91942 0.75621 0.0
C316 C 0.1497 0.93942 0.76865 0.0
H317 H 0.12634 0.67953 0.74381 0.0
H318 H 0.08462 0.75069 0.71886 0.0
H319 H 0.12111 0.84546 0.69944 0.0
H320 H 0.38917 0.91494 0.75658 0.0
H321 H 0.43812 0.85585 0.73185 0.0
H322 H 0.40817 0.7717 0.70666 0.0
H323 H 0.24618 1.00316 0.72624 0.0
H324 H 0.32073 0.87719 0.68604 0.0
H325 H 0.35443 0.09091 0.69469 0.0
H326 H 0.20842 0.74627 0.68356 0.0
H327 H 0.17181 0.53212 0.68432 0.0
H328 H 0.28242 0.60128 0.71797 0.0
H329 H 0.33261 0.66233 0.73786 0.0
H330 H 0.37471 0.60506 0.79734 0.0
H331 H 0.25865 0.72286 0.79011 0.0
H332 H 0.12402 0.93849 0.79895 0.0
H333 H 0.24812 0.84363 0.79186 0.0
H334 H 0.18445 0.93491 0.74049 0.0
C335 C 0.70843 0.15903 0.75505 0.0
O336 O 0.70189 0.11018 0.76858 0.0
C337 C 0.673 0.19016 0.74331 0.0
C338 C 0.62957 0.17103 0.74255 0.0
C339 C 0.60255 0.20586 0.72857 0.0
C340 C 0.61929 0.25766 0.71558 0.0
C341 C 0.66313 0.27355 0.71711 0.0
N342 N 0.68645 0.24075 0.73112 0.0
N343 N 0.7441 0.32675 0.75152 0.0
Co344 Co 0.74459 0.25643 0.73037 0.0
N345 N 0.80272 0.27196 0.72899 0.0
C346 C 0.86242 0.33603 0.73996 0.0
C347 C 0.88739 0.30025 0.72537 0.0
C348 C 0.8683 0.25036 0.71249 0.0
C349 C 0.82413 0.23795 0.71457 0.0
C350 C 0.81857 0.32004 0.74134 0.0
N351 N 0.7542 0.18784 0.70926 0.0
N352 N 0.74874 0.18424 0.75084 0.0
N353 N 0.73168 0.32656 0.71011 0.0
C354 C 0.78528 0.35083 0.75441 0.0
O355 O 0.79422 0.4003 0.76742 0.0
C356 C 0.68884 0.32346 0.7052 0.0
O357 O 0.67085 0.36842 0.69288 0.0
C358 C 0.75771 0.38686 0.70627 0.0
C359 C 0.77396 0.50919 0.71222 0.0
C360 C 0.74861 0.45017 0.71595 0.0
C361 C 0.79158 0.38339 0.69234 0.0
C362 C 0.81682 0.44207 0.68818 0.0
C363 C 0.80853 0.50389 0.6986 0.0
C364 C 0.7965 0.18901 0.70339 0.0
O365 O 0.81227 0.14421 0.69038 0.0
C366 C 0.7259 0.13083 0.70496 0.0
C367 C 0.69199 0.13982 0.69121 0.0
C368 C 0.66271 0.08587 0.68744 0.0
C369 C 0.66698 0.02436 0.69853 0.0
C370 C 0.70429 1.01037 0.70984 0.0
C371 C 0.73315 0.0651 0.71364 0.0
C372 C 0.78583 0.16986 0.76312 0.0
C373 C 0.82384 0.14406 0.75436 0.0
C374 C 0.86162 0.13945 0.76589 0.0
C375 C 0.86048 0.15637 0.78651 0.0
C376 C 0.82184 0.17638 0.79576 0.0
C377 C 0.7846 0.18346 0.78403 0.0
C378 C 0.70851 0.34854 0.76396 0.0
C379 C 0.64535 0.40817 0.78877 0.0
C380 C 0.68103 0.37571 0.7976 0.0
C381 C 0.71226 0.34531 0.78519 0.0
C382 C 0.6722 0.3808 0.75535 0.0
C383 C 0.64059 0.41063 0.76772 0.0
H384 H 0.61707 0.13006 0.75207 0.0
H385 H 0.56884 0.19203 0.72761 0.0
H386 H 0.59884 0.28347 0.70466 0.0
H387 H 0.87687 0.37478 0.74964 0.0
H388 H 0.92143 0.31133 0.724 0.0
H389 H 0.88732 0.22311 0.7013 0.0
H390 H 0.72171 0.45383 0.72623 0.0
H391 H 0.7968 0.33581 0.68405 0.0
H392 H 0.82755 0.54936 0.69511 0.0
H393 H 0.68992 0.18796 0.6829 0.0
H394 H 0.64297 0.98418 0.69679 0.0
H395 H 0.7617 0.05655 0.72272 0.0
H396 H 0.82422 0.1281 0.73869 0.0
H397 H 0.88945 0.15107 0.79558 0.0
H398 H 0.75489 0.2003 0.79107 0.0
H399 H 0.62078 0.43098 0.79837 0.0
H400 H 0.74035 0.32168 0.79201 0.0
H401 H 0.66926 0.38657 0.73922 0.0
C402 C 0.53121 0.94251 0.50267 0.0
O403 O 0.54067 0.8915 0.51509 0.0
C404 C 0.56364 0.97393 0.48926 0.0
C405 C 0.60685 0.9557 0.4865 0.0
C406 C 0.6308 0.99185 0.4716 0.0
C407 C 0.61133 0.04433 0.45976 0.0
C408 C 0.56789 0.05924 0.46331 0.0
N409 N 0.54743 0.02463 0.47793 0.0
N410 N 0.49592 0.11125 0.50149 0.0
Co411 Co 0.4895 0.04132 0.48051 0.0
N412 N 0.43151 0.05807 0.48257 0.0
C413 C 0.37619 0.127 0.49591 0.0
C414 C 0.34751 0.0936 0.48239 0.0
C415 C 0.36256 0.04274 0.46868 0.0
C416 C 0.40643 0.02637 0.46904 0.0
C417 C 0.41957 0.10752 0.49545 0.0
N418 N 0.47387 0.97417 0.45989 0.0
N419 N 0.49025 0.96851 0.50095 0.0
N420 N 0.49811 0.11152 0.45981 0.0
C421 C 0.45624 0.13692 0.50664 0.0
O422 O 0.45133 0.18508 0.52051 0.0
C423 C 0.53982 0.10974 0.45306 0.0
O424 O 0.5548 0.15482 0.43989 0.0
C425 C 0.4703 0.16945 0.45622 0.0
C426 C 0.45349 0.29169 0.46053 0.0
C427 C 0.47968 0.23426 0.46476 0.0
C428 C 0.43567 0.16272 0.44285 0.0
C429 C 0.40943 0.21977 0.43825 0.0
C430 C 0.41771 0.28339 0.44776 0.0
C431 C 0.43053 0.97753 0.45618 0.0
O432 O 0.4112 0.93498 0.44359 0.0
C433 C 0.50004 0.91721 0.45338 0.0
C434 C 0.53106 0.92733 0.43834 0.0
C435 C 0.55609 0.87192 0.43119 0.0
C436 C 0.54999 0.80594 0.4397 0.0
C437 C 0.51841 0.79471 0.45462 0.0
C438 C 0.49343 0.85073 0.46136 0.0
C439 C 0.4559 0.94752 0.51419 0.0
C440 C 0.41881 0.91559 0.50642 0.0
C441 C 0.38735 0.8893 0.51956 0.0
C442 C 0.39326 0.89454 0.54055 0.0
C443 C 0.4304 0.92546 0.54861 0.0
C444 C 0.46149 0.95209 0.53529 0.0
C445 C 0.53423 0.12644 0.51278 0.0
C446 C 0.60951 0.15079 0.53492 0.0
C447 C 0.57283 0.12555 0.54485 0.0
C448 C 0.53522 0.11357 0.53372 0.0
C449 C 0.57046 0.15522 0.50321 0.0
C450 C 0.60842 0.16601 0.51419 0.0
H451 H 0.62148 0.9147 0.4953 0.0
H452 H 0.66428 0.97884 0.46911 0.0
H453 H 0.62945 0.0715 0.44822 0.0
H454 H 0.36492 0.16708 0.50604 0.0
H455 H 0.31379 0.1077 0.48236 0.0
H456 H 0.34081 0.01788 0.45815 0.0
H457 H 0.50774 0.24013 0.47436 0.0
H458 H 0.43102 0.1139 0.43514 0.0
H459 H 0.39807 0.32797 0.44406 0.0
H460 H 0.53485 0.97845 0.43192 0.0
H461 H 0.56779 0.7622 0.43379 0.0
H462 H 0.46875 0.8426 0.47271 0.0
H463 H 0.41515 0.90791 0.49034 0.0
H464 H 0.36836 0.87527 0.55061 0.0
H465 H 0.49082 0.97438 0.54129 0.0
H466 H 0.63886 0.16006 0.54342 0.0
H467 H 0.5069 0.09337 0.54125 0.0
H468 H 0.56917 0.17005 0.48745 0.0
C469 C 0.53723 0.40866 0.00454 0.0
O470 O 0.54696 0.35831 0.01714 0.0
C471 C 0.56928 0.43924 -0.00923 0.0
C472 C 0.61259 0.42163 0.98802 0.0
C473 C 0.63627 0.45777 0.97302 0.0
C474 C 0.61649 0.50984 0.96113 0.0
C475 C 0.57299 0.52424 0.96471 0.0
N476 N 0.55268 0.48916 0.97927 0.0
N477 N 0.50318 0.57745 0.00311 0.0
Co478 Co 0.49499 0.50692 0.98245 0.0
N479 N 0.43728 0.52481 0.98526 0.0
C480 C 0.38312 0.59368 -0.00037 0.0
C481 C 0.35324 0.5595 0.98687 0.0
C482 C 0.36707 0.5081 0.97304 0.0
C483 C 0.41096 0.49191 0.97253 0.0
C484 C 0.42648 0.57459 -0.00174 0.0
N485 N 0.47755 0.43919 0.96228 0.0
N486 N 0.49633 0.43496 0.00303 0.0
N487 N 0.50306 0.57616 0.96148 0.0
C488 C 0.46407 0.60388 0.0088 0.0
O489 O 0.46038 0.65207 0.02274 0.0
C490 C 0.54465 0.57455 0.95456 0.0
O491 O 0.55902 0.61837 0.94088 0.0
C492 C 0.47394 0.63111 0.95654 0.0
C493 C 0.456 0.75367 0.95686 0.0
C494 C 0.48177 0.69846 0.96351 0.0
C495 C 0.44068 0.61908 0.94279 0.0
C496 C 0.41539 0.67385 0.93541 0.0
C497 C 0.42259 0.74082 0.94299 0.0
C498 C 0.4339 0.44232 0.95945 0.0
O499 O 0.41349 0.3997 0.94726 0.0
C500 C 0.50341 0.3828 0.95507 0.0
C501 C 0.53488 0.39484 0.94039 0.0
C502 C 0.56026 0.34053 0.93284 0.0
C503 C 0.55358 0.27331 0.94035 0.0
C504 C 0.52112 0.26002 0.95466 0.0
C505 C 0.49616 0.31512 0.96199 0.0
C506 C 0.46206 0.41325 0.01616 0.0
C507 C 0.42684 0.37591 0.00846 0.0
C508 C 0.39675 0.34573 0.02163 0.0
C509 C 0.40194 0.35418 0.04258 0.0
C510 C 0.43702 0.39089 0.05043 0.0
C511 C 0.46686 0.42067 0.03721 0.0
C512 C 0.54247 0.59232 0.01367 0.0
C513 C 0.62054 0.61244 0.03386 0.0
C514 C 0.58478 0.58796 0.04469 0.0
C515 C 0.54571 0.57806 0.0345 0.0
C516 C 0.57769 0.62147 0.00339 0.0
C517 C 0.61711 0.62965 0.01334 0.0
H518 H 0.62754 0.3813 -0.00304 0.0
H519 H 0.66982 0.44527 0.97054 0.0
H520 H 0.63446 0.53723 0.94958 0.0
H521 H 0.37271 0.6339 0.00992 0.0
H522 H 0.31951 0.57333 0.98754 0.0
H523 H 0.34437 0.4826 0.9631 0.0
H524 H 0.50856 0.70792 0.97367 0.0
H525 H 0.43622 0.56725 0.93702 0.0
H526 H 0.4047 0.78415 0.93687 0.0
H527 H 0.53873 0.44662 0.93451 0.0
H528 H 0.57155 0.23038 0.93405 0.0
H529 H 0.47098 0.30513 0.97293 0.0
H530 H 0.42399 0.36661 -0.00757 0.0
H531 H 0.37851 0.33192 0.05291 0.0
H532 H 0.49486 0.44669 0.04327 0.0
H533 H 0.65092 0.62091 0.0416 0.0
H534 H 0.51793 0.55909 0.04269 0.0
H535 H 0.57453 0.63815 0.98785 0.0
H536 H 0.02425 0.12556 0.0717 0.0
H537 H 0.13041 0.98202 0.06845 0.0
H538 H 0.03236 0.13091 0.10878 0.0
H539 H 0.1379 0.98661 0.10536 0.0
H540 H 0.18157 0.16195 0.1524 0.0
H541 H 0.14507 0.15204 0.12009 0.0
H542 H 0.05782 1.00149 0.14528 0.0
H543 H 0.09286 1.01361 0.17846 0.0
C544 C 0.04811 0.0932 0.07902 0.0
C545 C 0.07712 0.054 0.06738 0.0
C546 C 0.05261 0.0962 0.10012 0.0
C547 C 0.08561 0.059 0.10965 0.0
C548 C 0.11201 1.01514 0.09818 0.0
C549 C 0.1079 1.01281 0.07717 0.0
C550 C 0.15344 0.12904 0.15157 0.0
C551 C 0.14053 0.08808 0.16814 0.0
C552 C 0.13276 0.12312 0.13294 0.0
C553 C 0.09903 0.07593 0.1304 0.0
C554 C 0.08382 0.03835 0.14708 0.0
C555 C 0.10418 0.04492 0.16593 0.0
H556 H 0.91752 0.77961 0.07572 0.0
H557 H 0.97105 0.98431 0.06835 0.0
H558 H 0.90883 0.80012 0.11177 0.0
H559 H 0.96477 1.00347 0.10478 0.0
H560 H 0.86193 0.04724 0.15482 0.0
H561 H 0.9006 0.02543 0.12377 0.0
H562 H 0.93495 0.82181 0.14538 0.0
H563 H 0.89565 0.84387 0.17685 0.0
C564 C 0.9282 0.82859 0.08188 0.0
C565 C 0.94365 0.88115 0.06907 0.0
C566 C 0.92394 0.83993 0.10266 0.0
C567 C 0.93543 0.90394 0.11116 0.0
C568 C 0.95477 0.9541 0.09863 0.0
C569 C 0.95869 0.94293 0.07776 0.0
C570 C 0.87895 0.99863 0.15339 0.0
C571 C 0.87543 0.94712 0.16837 0.0
C572 C 0.90133 0.98612 0.13547 0.0
C573 C 0.92072 0.92166 0.13196 0.0
C574 C 0.9198 0.87169 0.14749 0.0
C575 C 0.89727 0.88425 0.16551 0.0
H576 H 0.15878 0.28278 0.42946 0.0
H577 H 0.0665 0.42995 0.4059 0.0
H578 H 0.20016 0.29245 0.39783 0.0
H579 H 0.10826 0.44146 0.3754 0.0
H580 H 0.19229 0.26137 0.324 0.0
H581 H 0.18134 0.25835 0.36082 0.0
H582 H 0.17935 0.4816 0.36204 0.0
H583 H 0.18908 0.48426 0.32533 0.0
C584 C 0.14769 0.31793 0.4178 0.0
C585 C 0.10941 0.35602 0.42041 0.0
C586 C 0.17151 0.32367 0.3998 0.0
C587 C 0.15777 0.36849 0.38433 0.0
C588 C 0.12042 0.40799 0.38727 0.0
C589 C 0.09644 0.4015 0.40493 0.0
C590 C 0.19085 0.30958 0.33233 0.0
C591 C 0.19022 0.37301 0.32199 0.0
C592 C 0.1849 0.30794 0.35336 0.0
C593 C 0.17851 0.36979 0.36414 0.0
C594 C 0.18336 0.4332 0.354 0.0
C595 C 0.18881 0.43478 0.33305 0.0
H596 H 0.80962 0.77288 0.32551 0.0
H597 H 0.81165 0.55027 0.32194 0.0
H598 H 0.82096 0.76613 0.3622 0.0
H599 H 0.82198 0.54314 0.35857 0.0
H600 H 0.84631 0.73305 0.42878 0.0
H601 H 0.80269 0.72526 0.39793 0.0
H602 H 0.89232 0.5766 0.37338 0.0
H603 H 0.93639 0.58625 0.4033 0.0
C604 C 0.81071 0.72261 0.33275 0.0
C605 C 0.81088 0.66212 0.32105 0.0
C606 C 0.81699 0.71861 0.35372 0.0
C607 C 0.82329 0.65405 0.36312 0.0
C608 C 0.81804 0.59354 0.35164 0.0
C609 C 0.81213 0.59756 0.33074 0.0
C610 C 0.85641 0.69821 0.41685 0.0
C611 C 0.89521 0.66086 0.4185 0.0
C612 C 0.83126 0.69349 0.39929 0.0
C613 C 0.84405 0.6503 0.38329 0.0
C614 C 0.88109 0.6094 0.38559 0.0
C615 C 0.90645 0.61487 0.40289 0.0
H616 H 0.05514 0.54254 0.57637 0.0
H617 H 0.05553 0.76526 0.57308 0.0
H618 H 0.07071 0.54872 0.61272 0.0
H619 H 0.07017 0.77175 0.60939 0.0
H620 H 0.19132 0.72842 0.65016 0.0
H621 H 0.14322 0.73767 0.62161 0.0
H622 H 0.05687 0.58986 0.64916 0.0
H623 H 0.10452 0.58269 0.67867 0.0
C624 C 0.05672 0.59268 0.58364 0.0
C625 C 0.0553 0.65343 0.57204 0.0
C626 C 0.06543 0.59633 0.60443 0.0
C627 C 0.07262 0.66079 0.61371 0.0
C628 C 0.06557 0.72146 0.6025 0.0
C629 C 0.0572 0.71779 0.58178 0.0
C630 C 0.16135 0.69987 0.65071 0.0
C631 C 0.15212 0.65438 0.66676 0.0
C632 C 0.13367 0.70512 0.63421 0.0
C633 C 0.09625 0.66445 0.63316 0.0
C634 C 0.08564 0.62151 0.64958 0.0
C635 C 0.11312 0.61709 0.66636 0.0
H636 H 0.87618 0.3424 0.67837 0.0
H637 H 0.82657 0.54029 0.65901 0.0
H638 H 0.91916 0.33543 0.64737 0.0
H639 H 0.86876 0.53328 0.62824 0.0
H640 H 0.94793 0.51808 0.57382 0.0
H641 H 0.93643 0.52919 0.61037 0.0
H642 H 0.89676 0.31506 0.61309 0.0
H643 H 0.91006 0.30346 0.57702 0.0
C644 C 0.87499 0.38477 0.66767 0.0
C645 C 0.84784 0.44161 0.67109 0.0
C646 C 0.89962 0.38094 0.64995 0.0
C647 C 0.89724 0.43365 0.63527 0.0
C648 C 0.87207 0.49232 0.63934 0.0
C649 C 0.84765 0.49622 0.65702 0.0
C650 C 0.93794 0.47303 0.58239 0.0
C651 C 0.92867 0.41044 0.57254 0.0
C652 C 0.93111 0.47944 0.60327 0.0
C653 C 0.9149 0.42337 0.61458 0.0
C654 C 0.90939 0.35927 0.60493 0.0
C655 C 0.91634 0.35286 0.58417 0.0
H656 H 0.1662 0.97997 0.82796 0.0
H657 H 0.20944 0.77066 0.81788 0.0
H658 H 0.1553 0.95464 0.86361 0.0
H659 H 0.20033 0.74571 0.85401 0.0
H660 H 0.09366 0.71221 0.90398 0.0
H661 H 0.13419 0.73067 0.87302 0.0
H662 H 0.18183 0.92453 0.89664 0.0
H663 H 0.14052 0.90613 0.9277 0.0
C664 C 0.17413 0.92878 0.8335 0.0
C665 C 0.18751 0.87674 0.82008 0.0
C666 C 0.16857 0.9145 0.85402 0.0
C667 C 0.17648 0.84786 0.86165 0.0
C668 C 0.19329 0.79726 0.84851 0.0
C669 C 0.19876 0.8116 0.82787 0.0
C670 C 0.11387 0.75772 0.90288 0.0
C671 C 0.11349 0.8082 0.9182 0.0
C672 C 0.1373 0.76823 0.8851 0.0
C673 C 0.16091 0.82947 0.88224 0.0
C674 C 0.16332 0.87736 0.89825 0.0
C675 C 0.13967 0.86695 0.91602 0.0
H676 H 0.8672 0.26911 0.8179 0.0
H677 H 0.77639 0.10117 0.82316 0.0
H678 H 0.88078 0.26335 0.85446 0.0
H679 H 0.79084 0.0944 0.85978 0.0
H680 H 0.85479 0.2239 0.92807 0.0
H681 H 0.81463 0.23542 0.89621 0.0
H682 H 0.90015 0.08948 0.86773 0.0
H683 H 0.94181 0.08043 0.89877 0.0
C684 C 0.84905 0.2328 0.82706 0.0
C685 C 0.82088 0.18553 0.81791 0.0
C686 C 0.85669 0.2296 0.84787 0.0
C687 C 0.83662 0.17865 0.8597 0.0
C688 C 0.80608 0.13461 0.85086 0.0
C689 C 0.79789 0.13853 0.83003 0.0
C690 C 0.86482 0.19367 0.91509 0.0
C691 C 0.902 0.15189 0.916 0.0
C692 C 0.84154 0.19989 0.897 0.0
C693 C 0.85453 0.16311 0.87979 0.0
C694 C 0.8895 0.11764 0.88103 0.0
C695 C 0.91314 0.11223 0.8989 0.0
H696 H 0.63961 0.97754 0.66303 0.0
H697 H 0.62017 0.19794 0.67032 0.0
H698 H 0.60463 0.98164 0.63059 0.0
H699 H 0.58751 0.20194 0.63654 0.0
H700 H 0.51835 0.17198 0.57453 0.0
H701 H 0.5277 0.15886 0.61141 0.0
H702 H 0.64127 0.035 0.60082 0.0
H703 H 0.63183 0.04787 0.56443 0.0
C704 C 0.62676 0.02681 0.65819 0.0
C705 C 0.63338 0.08774 0.66951 0.0
C706 C 0.60708 0.02899 0.63929 0.0
C707 C 0.59429 0.09217 0.63089 0.0
C708 C 0.59727 0.15245 0.6427 0.0
C709 C 0.61656 0.15023 0.66192 0.0
C710 C 0.54478 0.14105 0.58023 0.0
C711 C 0.57464 0.11128 0.5668 0.0
C712 C 0.55024 0.13398 0.60123 0.0
C713 C 0.58514 0.09595 0.60892 0.0
C714 C 0.61376 0.06394 0.59534 0.0
C715 C 0.6086 0.07163 0.57452 0.0
H716 H 0.46009 0.03583 0.57066 0.0
H717 H 0.41313 0.82667 0.577 0.0
H718 H 0.45626 0.05066 0.60739 0.0
H719 H 0.4073 0.8424 0.61341 0.0
H720 H 0.39832 0.87747 0.67894 0.0
H721 H 0.43646 0.86317 0.64676 0.0
H722 H 0.39202 0.06451 0.62755 0.0
H723 H 0.35427 0.07853 0.65929 0.0
C724 C 0.44979 0.99258 0.57991 0.0
C725 C 0.43574 0.93071 0.57092 0.0
C726 C 0.44733 1.00121 0.60094 0.0
C727 C 0.43065 0.94821 0.61331 0.0
C728 C 0.42039 0.88431 0.60441 0.0
C729 C 0.42304 0.87562 0.58347 0.0
C730 C 0.3975 0.91911 0.66797 0.0
C731 C 0.37297 0.97886 0.67167 0.0
C732 C 0.41937 0.91101 0.64956 0.0
C733 C 0.41703 0.96246 0.6345 0.0
C734 C 0.39518 0.02424 0.63887 0.0
C735 C 0.37337 0.03227 0.65718 0.0
H736 H 0.63959 0.28094 0.92587 0.0
H737 H 0.54861 0.42673 0.90056 0.0
H738 H 0.68451 0.2931 0.89547 0.0
H739 H 0.59382 0.44051 0.87109 0.0
H740 H 0.68117 0.48522 0.82309 0.0
H741 H 0.66568 0.4823 0.85936 0.0
H742 H 0.67098 0.25918 0.85833 0.0
H743 H 0.68748 0.26247 0.822 0.0
C744 C 0.62943 0.31614 0.91402 0.0
C745 C 0.59043 0.35289 0.91572 0.0
C746 C 0.65529 0.32336 0.89674 0.0
C747 C 0.6429 0.36832 0.88107 0.0
C748 C 0.60483 0.40679 0.88315 0.0
C749 C 0.57884 0.3989 0.90016 0.0
C750 C 0.68051 0.43577 0.83082 0.0
C751 C 0.68451 0.37401 0.81986 0.0
C752 C 0.67163 0.43406 0.85151 0.0
C753 C 0.6661 0.3705 0.86149 0.0
C754 C 0.67505 0.30888 0.85099 0.0
C755 C 0.68433 0.31067 0.83024 0.0
H756 H 0.33755 0.73678 0.92672 0.0
H757 H 0.42902 0.58838 0.90318 0.0
H758 H 0.29729 0.73035 0.89477 0.0
H759 H 0.38848 0.5804 0.87223 0.0
H760 H 0.31165 0.55 0.81983 0.0
H761 H 0.32003 0.54544 0.85659 0.0
H762 H 0.31643 0.76856 0.85905 0.0
H763 H 0.30678 0.77271 0.82221 0.0
C764 C 0.34867 0.70197 0.91498 0.0
C765 C 0.38659 0.663 0.91765 0.0
C766 C 0.32548 0.69811 0.89677 0.0
C767 C 0.33948 0.65441 0.88109 0.0
C768 C 0.37612 0.61326 0.88419 0.0
C769 C 0.39944 0.61776 0.90211 0.0
C770 C 0.31135 0.59786 0.82836 0.0
C771 C 0.30977 0.66172 0.81832 0.0
C772 C 0.31609 0.59533 0.84935 0.0
C773 C 0.32006 0.65667 0.86059 0.0
C774 C 0.31358 0.72044 0.85078 0.0
C775 C 0.30832 0.72292 0.82971 0.0
H776 H 0.53157 0.63503 0.07476 0.0
H777 H 0.64755 0.51705 0.06432 0.0
H778 H 0.54886 0.64078 0.11112 0.0
H779 H 0.66486 0.52384 0.10036 0.0
H780 H 0.71307 0.67531 0.14932 0.0
H781 H 0.67729 0.66187 0.11678 0.0
H782 H 0.57667 0.54205 0.14507 0.0
H783 H 0.61242 0.55587 0.17814 0.0
C784 C 0.5599 0.60847 0.08034 0.0
C785 C 0.58873 0.57669 0.06678 0.0
C786 C 0.56975 0.61195 0.10104 0.0
C787 C 0.6084 0.5836 0.10824 0.0
C788 C 0.63507 0.54655 0.09498 0.0
C789 C 0.62523 0.54283 0.07444 0.0
C790 C 0.68261 0.64803 0.14885 0.0
C791 C 0.6656 0.6165 0.1663 0.0
C792 C 0.66241 0.63985 0.13019 0.0
C793 C 0.6247 0.60039 0.12858 0.0
C794 C 0.60584 0.57258 0.14609 0.0
C795 C 0.62632 0.58036 0.16488 0.0
H796 H 0.30654 0.3447 0.15205 0.0
H797 H 0.39577 0.491 0.17854 0.0
H798 H 0.35298 0.33257 0.12301 0.0
H799 H 0.44158 0.48124 0.14832 0.0
H800 H 0.43993 0.50804 0.07331 0.0
H801 H 0.4247 0.5144 0.10977 0.0
H802 H 0.42924 0.29166 0.11348 0.0
H803 H 0.44368 0.28548 0.07714 0.0
C804 C 0.33661 0.37303 0.15203 0.0
C805 C 0.34745 0.41838 0.16787 0.0
C806 C 0.36324 0.36618 0.13524 0.0
C807 C 0.40111 0.40533 0.13358 0.0
C808 C 0.41259 0.45026 0.14937 0.0
C809 C 0.38618 0.45616 0.16652 0.0
C810 C 0.43937 0.46082 0.08216 0.0
C811 C 0.44187 0.39624 0.07257 0.0
C812 C 0.43088 0.4644 0.10298 0.0
C813 C 0.42501 0.40338 0.11424 0.0
C814 C 0.43309 0.33931 0.10502 0.0
C815 C 0.44125 0.33575 0.0843 0.0
H816 H 0.63514 0.81139 0.42403 0.0
H817 H 0.5426 0.95281 0.3979 0.0
H818 H 0.67919 0.82076 0.39326 0.0
H819 H 0.58696 0.96376 0.36797 0.0
H820 H 0.67903 1.0124 0.32118 0.0
H821 H 0.65893 1.00823 0.35692 0.0
H822 H 0.66745 0.7854 0.3558 0.0
H823 H 0.68848 0.78999 0.31992 0.0
C824 C 0.62437 0.84488 0.41189 0.0
C825 C 0.58534 0.88161 0.41354 0.0
C826 C 0.64971 0.85042 0.39437 0.0
C827 C 0.63676 0.89362 0.37837 0.0
C828 C 0.59836 0.93138 0.38026 0.0
C829 C 0.57291 0.92521 0.39753 0.0
C830 C 0.67794 0.96276 0.3288 0.0
C831 C 0.68449 0.90145 0.31789 0.0
C832 C 0.66634 0.96032 0.34918 0.0
C833 C 0.66068 0.89645 0.35896 0.0
C834 C 0.67157 0.83532 0.34861 0.0
C835 C 0.6835 0.83784 0.32812 0.0
H836 H 0.35406 0.11371 0.42868 0.0
H837 H 0.3959 0.31567 0.40862 0.0
H838 H 0.31609 0.09757 0.39656 0.0
H839 H 0.35805 0.29986 0.37696 0.0
H840 H 0.2884 0.2652 0.32032 0.0
H841 H 0.29316 0.28197 0.35695 0.0
H842 H 0.34808 0.0778 0.36329 0.0
H843 H 0.3415 0.06005 0.32695 0.0
C844 C 0.35435 0.15521 0.41765 0.0
C845 C 0.37845 0.21558 0.42115 0.0
C846 C 0.33257 0.14604 0.3993 0.0
C847 C 0.33447 0.19712 0.38414 0.0
C848 C 0.35542 0.2598 0.38838 0.0
C849 C 0.37724 0.26885 0.40664 0.0
C850 C 0.30034 0.22325 0.32963 0.0
C851 C 0.31547 0.16185 0.32074 0.0
C852 C 0.30327 0.23299 0.35058 0.0
C853 C 0.32149 0.18157 0.36299 0.0
C854 C 0.33361 0.11831 0.35422 0.0
C855 C 0.33056 0.10855 0.33334 0.0
H856 H 0.96167 0.66672 0.95539 0.0
H857 H 0.09231 0.63348 0.97531 0.0
H858 H 0.94608 0.54463 0.96011 0.0
H859 H 0.07651 0.51136 0.98103 0.0
H860 H 0.05192 0.29208 0.95547 0.0
H861 H 0.06721 0.41402 0.96075 0.0
H862 H 0.93548 0.44651 0.97993 0.0
H863 H 0.92005 0.32465 0.97362 0.0
C864 C 0.98666 0.63353 0.96146 0.0
C865 C 0.02827 0.65938 0.96483 0.0
C866 C 0.97776 0.56328 0.96424 0.0
C867 C 0.01016 0.51729 0.97074 0.0
C868 C 0.051 0.54453 0.9755 0.0
C869 C 0.06004 0.61463 0.97241 0.0
C870 C 0.02656 0.32508 0.96126 0.0
C871 C 0.98475 0.29913 0.96398 0.0
C872 C 0.03528 0.39522 0.96437 0.0
C873 C 0.00247 0.44096 0.97056 0.0
C874 C 0.96133 0.41356 0.97466 0.0
C875 C 0.9525 0.34361 0.97122 0.0
H876 H 0.19893 0.57054 0.20605 0.0
H877 H 0.33184 0.604 0.22227 0.0
H878 H 0.18395 0.69258 0.21106 0.0
H879 H 0.31674 0.72606 0.22841 0.0
H880 H 0.28849 0.94735 0.20567 0.0
H881 H 0.30471 0.82508 0.2095 0.0
H882 H 0.17518 0.789 0.23136 0.0
H883 H 0.15866 0.91119 0.22633 0.0
C884 C 0.22466 0.60387 0.2113 0.0
C885 C 0.26658 0.57803 0.21363 0.0
C886 C 0.21611 0.67407 0.21429 0.0
C887 C 0.24917 0.72005 0.22001 0.0
C888 C 0.29063 0.69294 0.22352 0.0
C889 C 0.2993 0.62289 0.22017 0.0
C890 C 0.26387 0.91337 0.21172 0.0
C891 C 0.2223 0.93845 0.21561 0.0
C892 C 0.27312 0.84305 0.21399 0.0
C893 C 0.24114 0.79627 0.22052 0.0
C894 C 0.20036 0.82274 0.22577 0.0
C895 C 0.19092 0.89287 0.22311 0.0
H896 H 0.76422 0.09692 0.24004 0.0
H897 H 0.81786 0.15053 0.18151 0.0
H898 H 0.7473 0.21967 0.24579 0.0
H899 H 0.80356 0.27116 0.18793 0.0
H900 H 0.81185 0.48586 0.21144 0.0
H901 H 0.8304 0.3638 0.21496 0.0
H902 H 0.69675 0.31388 0.22518 0.0
H903 H 0.67794 0.43643 0.22163 0.0
C904 C 0.77279 0.13436 0.22851 0.0
C905 C 0.79348 0.11323 0.21051 0.0
C906 C 0.76332 0.2046 0.23188 0.0
C907 C 0.77507 0.25494 0.21749 0.0
C908 C 0.79527 0.23377 0.19954 0.0
C909 C 0.80378 0.16418 0.19598 0.0
C910 C 0.78655 0.44935 0.21511 0.0
C911 C 0.74335 0.47078 0.21607 0.0
C912 C 0.79717 0.37938 0.21702 0.0
C913 C 0.76494 0.32943 0.22018 0.0
C914 C 0.72222 0.35134 0.22284 0.0
C915 C 0.71147 0.42136 0.22068 0.0
H916 H 0.96072 0.86904 0.42783 0.0
H917 H 0.00266 0.82098 0.48882 0.0
H918 H 0.97544 0.99027 0.43371 0.0
H919 H 0.0201 0.94363 0.49408 0.0
H920 H 0.09358 0.15959 0.47181 0.0
H921 H 0.07543 0.03618 0.47386 0.0
H922 H 0.94288 0.08406 0.46031 0.0
H923 H 0.96069 0.20695 0.45847 0.0
C924 C 0.97244 0.88407 0.44264 0.0
C925 C 0.9793 0.83467 0.45803 0.0
C926 C 0.98124 0.95381 0.4459 0.0
C927 C 0.99827 0.97632 0.46443 0.0
C928 C 0.00669 0.9274 0.47969 0.0
C929 C 0.99692 0.85723 0.4766 0.0
C930 C 0.0604 0.14375 0.46976 0.0
C931 C 0.02858 0.19288 0.46493 0.0
C932 C 0.05003 0.07333 0.47103 0.0
C933 C 0.00783 0.05084 0.46715 0.0
C934 C 0.97566 0.10022 0.46335 0.0
C935 C 0.98584 0.17054 0.46241 0.0
H936 H 0.34993 0.16065 0.72661 0.0
H937 H 0.21962 0.11122 0.70893 0.0
H938 H 0.33103 0.28367 0.72776 0.0
H939 H 0.20093 0.23365 0.71012 0.0
H940 H 0.21871 0.4451 0.67711 0.0
H941 H 0.23214 0.32457 0.68464 0.0
H942 H 0.27832 0.37943 0.74416 0.0
H943 H 0.26253 0.5016 0.73714 0.0
C944 C 0.317 0.17588 0.72352 0.0
C945 C 0.28635 0.12624 0.71754 0.0
C946 C 0.30619 0.24619 0.72426 0.0
C947 C 0.26468 0.26814 0.71879 0.0
C948 C 0.23327 0.2181 0.71426 0.0
C949 C 0.2439 0.14791 0.71376 0.0
C950 C 0.23058 0.43204 0.69207 0.0
C951 C 0.23844 0.48363 0.70667 0.0
C952 C 0.23853 0.36262 0.69631 0.0
C953 C 0.25553 0.34248 0.7151 0.0
C954 C 0.26487 0.39364 0.72959 0.0
C955 C 0.25607 0.46356 0.72549 0.0
H956 H 0.8267 0.61114 0.72738 0.0
H957 H 0.69337 0.56555 0.71434 0.0
H958 H 0.80857 0.73349 0.73161 0.0
H959 H 0.67538 0.68719 0.71893 0.0
H960 H 0.6893 0.89823 0.68603 0.0
H961 H 0.70252 0.77791 0.69298 0.0
H962 H 0.76062 0.83109 0.75029 0.0
H963 H 0.74517 0.95435 0.7438 0.0
C964 C 0.79336 0.62687 0.72597 0.0
C965 C 0.76162 0.5787 0.72012 0.0
C966 C 0.78298 0.69684 0.72858 0.0
C967 C 0.74071 0.71996 0.72532 0.0
C968 C 0.70834 0.67082 0.72137 0.0
C969 C 0.71863 0.60097 0.71886 0.0
C970 C 0.70365 0.88505 0.70049 0.0
C971 C 0.7147 0.93658 0.71467 0.0
C972 C 0.71143 0.81557 0.70439 0.0
C973 C 0.73157 0.79478 0.72239 0.0
C974 C 0.74443 0.84577 0.73639 0.0
C975 C 0.7358 0.9162 0.73263 0.0
H976 H 0.44066 0.72967 0.45604 0.0
H977 H 0.57558 0.6982 0.46846 0.0
H978 H 0.42675 0.6078 0.46222 0.0
H979 H 0.56171 0.57645 0.47573 0.0
H980 H 0.53104 0.35381 0.45482 0.0
H981 H 0.54747 0.47622 0.45774 0.0
H982 H 0.42112 0.51231 0.48333 0.0
H983 H 0.40426 0.38979 0.47931 0.0
C984 C 0.46715 0.69686 0.46068 0.0
C985 C 0.50923 0.72321 0.46161 0.0
C986 C 0.45923 0.62677 0.46435 0.0
C987 C 0.49313 0.58138 0.46934 0.0
C988 C 0.53489 0.60905 0.47144 0.0
C989 C 0.54288 0.67895 0.46742 0.0
C990 C 0.50724 0.38774 0.46154 0.0
C991 C 0.46633 0.36247 0.46673 0.0
C992 C 0.51661 0.45822 0.46327 0.0
C993 C 0.48545 0.50507 0.47053 0.0
C994 C 0.44558 0.47849 0.47714 0.0
C995 C 0.43599 0.40815 0.47507 0.0
H996 H 0.40307 0.85325 0.9723 0.0
H997 H 0.53348 0.81739 0.9525 0.0
H998 H 0.41896 0.97596 0.97664 0.0
H999 H 0.54908 0.94008 0.95556 0.0
H1000 H 0.57614 0.16109 0.96884 0.0
H1001 H 0.56093 0.03868 0.97432 0.0
H1002 H 0.42826 0.07327 0.95693 0.0
H1003 H 0.44334 0.19577 0.95272 0.0
C1004 C 0.43526 0.87182 0.96903 0.0
C1005 C 0.46706 0.82605 0.9621 0.0
C1006 C 0.44436 0.94226 0.9713 0.0
C1007 C 0.48524 0.96886 0.96621 0.0
C1008 C 0.51744 0.92208 0.95999 0.0
C1009 C 0.50853 0.85151 0.95813 0.0
C1010 C 0.54361 0.1423 0.96658 0.0
C1011 C 0.51093 0.18765 0.96033 0.0
C1012 C 0.53487 0.07203 0.96952 0.0
C1013 C 0.4934 0.04513 0.96583 0.0
C1014 C 0.46042 0.09152 0.96028 0.0
C1015 C 0.46903 0.16196 0.95775 0.0
H1016 H 0.37322 0.21845 0.03482 0.0
H1017 H 0.33891 0.37611 -0.00857 0.0
H1018 H 0.30786 0.15556 0.02695 0.0
H1019 H 0.27332 0.31166 0.98288 0.0
H1020 H 0.13564 0.23724 0.00516 0.0
H1021 H 0.20618 0.29108 0.00045 0.0
H1022 H 0.26629 0.08978 0.0039 0.0
H1023 H 0.19572 0.03708 0.00955 0.0
C1024 C 0.35191 0.23896 0.02328 0.0
C1025 C 0.36068 0.30276 0.01401 0.0
C1026 C 0.3146 0.20242 0.01854 0.0
C1027 C 0.28504 0.22855 0.00431 0.0
C1028 C 0.29513 0.29047 -0.00591 0.0
C1029 C 0.33277 0.32714 -0.00115 0.0
C1030 C 0.16397 0.20468 0.00429 0.0
C1031 C 0.1607 0.13343 0.00785 0.0
C1032 C 0.20438 0.2353 0.00153 0.0
C1033 C 0.2421 0.19492 0.00217 0.0
C1034 C 0.23805 0.12261 0.00382 0.0
C1035 C 0.19775 0.09226 0.00687 0.0
H1036 H 0.87179 0.70692 0.02703 0.0
H1037 H 0.84298 0.88185 0.98885 0.0
H1038 H 0.80321 0.65449 0.01815 0.0
H1039 H 0.77393 0.8289 0.9795 0.0
H1040 H 0.6358 0.764 0.00566 0.0
H1041 H 0.70775 0.81085 -0.00055 0.0
H1042 H 0.75715 0.60329 -0.00735 0.0
H1043 H 0.68533 0.55709 -0.00045 0.0
C1044 C 0.85104 0.73326 0.01631 0.0
C1045 C 0.86237 0.79844 0.00868 0.0
C1046 C 0.81189 0.70302 0.01103 0.0
C1047 C 0.78299 0.73748 -0.00193 0.0
C1048 C 0.79542 0.80122 0.98957 0.0
C1049 C 0.83496 0.8313 -0.00523 0.0
C1050 C 0.66181 0.72886 0.00198 0.0
C1051 C 0.65542 0.65724 0.00301 0.0
C1052 C 0.70302 0.7555 -0.00159 0.0
C1053 C 0.73834 0.7107 -0.0041 0.0
C1054 C 0.73075 0.63907 -0.00512 0.0
C1055 C 0.68967 0.61257 -0.00141 0.0
H1056 H 0.07921 0.36106 0.24703 0.0
H1057 H 0.12085 0.54754 0.27694 0.0
H1058 H 0.00925 0.4148 0.23977 0.0
H1059 H 0.05147 0.6015 0.26968 0.0
H1060 H 0.92742 0.69414 0.24982 0.0
H1061 H 0.99822 0.6424 0.24322 0.0
H1062 H 0.95118 0.44596 0.26521 0.0
H1063 H 0.88088 0.49798 0.27183 0.0
C1064 C 0.07377 0.41424 0.25145 0.0
C1065 C 0.10508 0.45029 0.26256 0.0
C1066 C 0.03379 0.44483 0.24743 0.0
C1067 C 0.02484 0.51228 0.25421 0.0
C1068 C 0.0575 0.54981 0.26405 0.0
C1069 C 0.0971 0.51891 0.26831 0.0
C1070 C 0.93203 0.63944 0.25256 0.0
C1071 C 0.89904 0.59985 0.26132 0.0
C1072 C 0.97248 0.60995 0.24893 0.0
C1073 C 0.98029 0.54021 0.25379 0.0
C1074 C 0.94609 0.49957 0.26111 0.0
C1075 C 0.90594 0.52928 0.26498 0.0
H1076 H 0.32336 0.94745 0.49711 0.0
H1077 H 0.36238 0.75659 0.52539 0.0
H1078 H 0.25227 0.8977 0.4899 0.0
H1079 H 0.29175 0.70657 0.51826 0.0
H1080 H 0.1659 0.62107 0.49902 0.0
H1081 H 0.23722 0.67022 0.49203 0.0
H1082 H 0.19425 0.86731 0.5152 0.0
H1083 H 0.12334 0.81789 0.52211 0.0
C1084 C 0.31707 0.89418 0.50116 0.0
C1085 C 0.34802 0.85565 0.51175 0.0
C1086 C 0.27644 0.86586 0.49718 0.0
C1087 C 0.26642 0.79828 0.50354 0.0
C1088 C 0.29861 0.75841 0.51294 0.0
C1089 C 0.33891 0.78703 0.51713 0.0
C1090 C 0.17143 0.67546 0.50186 0.0
C1091 C 0.13943 0.71589 0.51105 0.0
C1092 C 0.21222 0.70344 0.49804 0.0
C1093 C 0.22138 0.77249 0.50318 0.0
C1094 C 0.18811 0.8142 0.51087 0.0
C1095 C 0.14759 0.78598 0.51491 0.0
H1096 H 0.86647 0.23348 0.52678 0.0
H1097 H 0.83607 0.41517 0.49179 0.0
H1098 H 0.7975 0.18255 0.51763 0.0
H1099 H 0.76685 0.36391 0.48211 0.0
H1100 H 0.63009 0.30038 0.50899 0.0
H1101 H 0.70254 0.34499 0.50282 0.0
H1102 H 0.74806 0.13669 0.49267 0.0
H1103 H 0.67556 0.09261 0.49945 0.0
C1104 C 0.84544 0.26143 0.51654 0.0
C1105 C 0.85636 0.32809 0.50996 0.0
C1106 C 0.806 0.23219 0.51116 0.0
C1107 C 0.77646 0.26928 0.49918 0.0
C1108 C 0.78876 0.33423 0.49146 0.0
C1109 C 0.82849 0.36332 0.49679 0.0
C1110 C 0.65537 0.26473 0.50465 0.0
C1111 C 0.64764 0.19339 0.50458 0.0
C1112 C 0.69686 0.29008 0.50108 0.0
C1113 C 0.73128 0.24428 0.49749 0.0
C1114 C 0.72241 0.17319 0.49567 0.0
C1115 C 0.68095 0.14794 0.49933 0.0
H1116 H 0.93211 0.21752 0.75843 0.0
H1117 H 0.88397 1.00904 0.75471 0.0
H1118 H 0.0051 0.17615 0.75186 0.0
H1119 H 0.95718 0.96646 0.74907 0.0
H1120 H 0.12081 0.06348 0.78167 0.0
H1121 H 0.05185 0.11697 0.77437 0.0
H1122 H 0.02434 0.95657 0.73059 0.0
H1123 H 0.09367 0.90205 0.73854 0.0
C1124 C 0.9372 0.16296 0.75562 0.0
C1125 C 0.90278 0.1163 0.75703 0.0
C1126 C 0.97897 0.13905 0.75208 0.0
C1127 C 0.98728 0.06775 0.75035 0.0
C1128 C 0.95209 0.0217 0.75018 0.0
C1129 C 0.91014 0.04588 0.75346 0.0
C1130 C 0.10043 0.04066 0.77014 0.0
C1131 C 0.11239 0.97862 0.7607 0.0
C1132 C 0.06092 0.07153 0.7658 0.0
C1133 C 0.03223 0.04107 0.7519 0.0
C1134 C 0.04544 0.98107 0.74151 0.0
C1135 C 0.08528 0.95022 0.74585 0.0
H1136 H 0.61961 0.54591 0.7713 0.0
H1137 H 0.57533 0.3536 0.74575 0.0
H1138 H 0.5501 0.59916 0.76389 0.0
H1139 H 0.50525 0.40664 0.7383 0.0
H1140 H 0.37916 0.49624 0.77027 0.0
H1141 H 0.44891 0.44298 0.76345 0.0
H1142 H 0.49485 0.63559 0.73824 0.0
H1143 H 0.42458 0.68871 0.74513 0.0
C1144 C 0.59526 0.51579 0.76353 0.0
C1145 C 0.60253 0.44584 0.7591 0.0
C1146 C 0.55554 0.54625 0.75919 0.0
C1147 C 0.52207 0.507 0.7506 0.0
C1148 C 0.53037 0.43804 0.74501 0.0
C1149 C 0.57043 0.4078 0.74913 0.0
C1150 C 0.40382 0.52642 0.76272 0.0
C1151 C 0.39676 0.59646 0.75827 0.0
C1152 C 0.44369 0.49593 0.7587 0.0
C1153 C 0.47751 0.53519 0.75041 0.0
C1154 C 0.46946 0.60418 0.74474 0.0
C1155 C 0.42927 0.63446 0.74854 0.0
H1156 H 0.58593 0.87067 0.24468 0.0
H1157 H 0.62325 0.07402 0.26465 0.0
H1158 H 0.51264 0.91231 0.23829 0.0
H1159 H 0.55027 0.11608 0.25839 0.0
H1160 H 0.41611 0.18081 0.2438 0.0
H1161 H 0.48809 0.13812 0.2349 0.0
H1162 H 0.45978 0.94533 0.26525 0.0
H1163 H 0.38823 0.98833 0.27399 0.0
C1164 C 0.57882 0.92497 0.24681 0.0
C1165 C 0.61 0.96946 0.25494 0.0
C1166 C 0.53687 0.94867 0.24339 0.0
C1167 C 0.52558 1.01733 0.248 0.0
C1168 C 0.55798 0.06314 0.25447 0.0
C1169 C 0.59975 0.03923 0.25806 0.0
C1170 C 0.42497 0.12856 0.24789 0.0
C1171 C 0.39687 0.08761 0.25945 0.0
C1172 C 0.46615 0.10429 0.24296 0.0
C1173 C 0.47964 0.03838 0.24938 0.0
C1174 C 0.45024 0.99591 0.25982 0.0
C1175 C 0.40938 0.02052 0.26493 0.0
loop_
_geom_bond_atom_site_label_1
_geom_bond_atom_site_label_2
_geom_bond_distance
_geom_bond_site_symmetry_2
_ccdc_geom_bond_type
C0 O1 1.201 . S
C0 C2 1.493 . S
C0 N17 1.318 1_455 S
O1 C0 1.201 . S
C2 C0 1.493 . S
C2 C3 1.381 . S
C2 N7 1.335 1_554 S
C3 C2 1.381 . S
C3 C4 1.411 1_554 S
C3 H49 0.931 . S
C4 C3 1.411 1_556 S
C4 C5 1.384 . S
C4 H50 0.930 . S
C5 C4 1.384 . S
C5 C6 1.376 . S
C5 H51 0.929 . S
C6 C5 1.376 . S
C6 N7 1.330 . S
C6 C21 1.484 1_565 S
N7 C2 1.335 1_556 S
N7 C6 1.330 . S
N7 Co9 1.859 1_565 S
N8 Co9 1.962 1_554 S
N8 C19 1.318 1_455 S
N8 C43 1.421 . S
Co9 N7 1.859 1_545 S
Co9 N8 1.962 1_556 S
Co9 N10 1.859 1_455 S
Co9 N16 1.958 1_445 S
Co9 N17 1.962 1_446 S
Co9 N18 1.958 . S
N10 Co9 1.859 1_655 S
N10 C14 1.330 . S
N10 C15 1.335 1_556 S
C11 C12 1.411 1_554 S
C11 C15 1.381 . S
C11 H52 0.931 . S
C12 C11 1.411 1_556 S
C12 C13 1.384 . S
C12 H53 0.930 . S
C13 C12 1.384 . S
C13 C14 1.376 . S
C13 H54 0.929 . S
C14 N10 1.330 . S
C14 C13 1.376 . S
C14 C29 1.484 1_545 S
C15 N10 1.335 1_554 S
C15 C11 1.381 . S
C15 C19 1.493 . S
N16 Co9 1.958 1_665 S
N16 C29 1.344 . S
N16 C31 1.433 . S
N17 C0 1.318 1_655 S
N17 Co9 1.962 1_664 S
N17 C37 1.421 . S
N18 Co9 1.958 . S
N18 C21 1.344 . S
N18 C23 1.437 . S
C19 N8 1.318 1_655 S
C19 C15 1.493 . S
C19 O20 1.201 . S
O20 C19 1.201 . S
C21 C6 1.484 1_545 S
C21 N18 1.344 . S
C21 O22 1.268 . S
O22 C21 1.268 . S
C23 N18 1.437 . S
C23 C25 1.395 . S
C23 C26 1.352 1_455 S
C24 C25 1.382 1_655 S
C24 C28 1.386 . S
C25 C23 1.395 . S
C25 C24 1.382 1_455 S
C25 H55 0.928 . S
C26 C23 1.352 1_655 S
C26 C27 1.367 . S
C26 H56 0.930 . S
C27 C26 1.367 . S
C27 C28 1.369 . S
C28 C24 1.386 . S
C28 C27 1.369 . S
C28 H57 0.930 . S
C29 C14 1.484 1_565 S
C29 N16 1.344 . S
C29 O30 1.268 . S
O30 C29 1.268 . S
C31 N16 1.433 . S
C31 C32 1.357 1_655 S
C31 C36 1.394 . S
C32 C31 1.357 1_455 S
C32 C33 1.367 . S
C32 H58 0.930 . S
C33 C32 1.367 . S
C33 C34 1.369 . S
C34 C33 1.369 . S
C34 C35 1.386 . S
C34 H59 0.930 . S
C35 C34 1.386 . S
C35 C36 1.382 1_455 S
C36 C31 1.394 . S
C36 C35 1.382 1_655 S
C36 H60 0.928 . S
C37 N17 1.421 . S
C37 C38 1.371 . S
C37 C42 1.385 . S
C38 C37 1.371 . S
C38 C39 1.367 . S
C38 H61 0.931 . S
C39 C38 1.367 . S
C39 C40 1.401 . S
C40 C39 1.401 . S
C40 C41 1.385 . S
C40 H62 0.930 . S
C41 C40 1.385 . S
C41 C42 1.402 . S
C42 C37 1.385 . S
C42 C41 1.402 . S
C42 H63 0.929 . S
C43 N8 1.421 . S
C43 C46 1.385 . S
C43 C47 1.371 . S
C44 C45 1.385 . S
C44 C48 1.401 . S
C44 H64 0.930 . S
C45 C44 1.385 . S
C45 C46 1.402 . S
C46 C43 1.385 . S
C46 C45 1.402 . S
C46 H65 0.929 . S
C47 C43 1.371 . S
C47 C48 1.367 . S
C47 H66 0.931 . S
C48 C44 1.401 . S
C48 C47 1.367 . S
H49 C3 0.931 . S
H50 C4 0.930 . S
H51 C5 0.929 . S
H52 C11 0.931 . S
H53 C12 0.930 . S
H54 C13 0.929 . S
H55 C25 0.928 . S
H56 C26 0.930 . S
H57 C28 0.930 . S
H58 C32 0.930 . S
H59 C34 0.930 . S
H60 C36 0.928 . S
H61 C38 0.931 . S
H62 C40 0.930 . S
H63 C42 0.929 . S
H64 C44 0.930 . S
H65 C46 0.929 . S
H66 C47 0.931 . S
C67 O68 1.201 . S
C67 C69 1.493 . S
C67 N84 1.318 . S
O68 C67 1.201 . S
C69 C67 1.493 . S
C69 C70 1.381 . S
C69 N74 1.335 . S
C70 C69 1.381 . S
C70 C71 1.411 . S
C70 H116 0.931 . S
C71 C70 1.411 . S
C71 C72 1.384 . S
C71 H117 0.930 . S
C72 C71 1.384 . S
C72 C73 1.376 . S
C72 H118 0.929 . S
C73 C72 1.376 . S
C73 N74 1.330 . S
C73 C88 1.484 . S
N74 C69 1.335 . S
N74 C73 1.330 . S
N74 Co76 1.859 . S
N75 Co76 1.962 . S
N75 C86 1.318 . S
N75 C110 1.421 . S
Co76 N74 1.859 . S
Co76 N75 1.962 . S
Co76 N77 1.859 . S
Co76 N83 1.958 . S
Co76 N84 1.962 . S
Co76 N85 1.958 . S
N77 Co76 1.859 . S
N77 C81 1.330 . S
N77 C82 1.335 . S
C78 C79 1.411 . S
C78 C82 1.381 . S
C78 H119 0.931 . S
C79 C78 1.411 . S
C79 C80 1.384 . S
C79 H120 0.930 . S
C80 C79 1.384 . S
C80 C81 1.376 . S
C80 H121 0.929 . S
C81 N77 1.330 . S
C81 C80 1.376 . S
C81 C96 1.484 . S
C82 N77 1.335 . S
C82 C78 1.381 . S
C82 C86 1.493 . S
N83 Co76 1.958 . S
N83 C96 1.344 . S
N83 C98 1.425 . S
N84 C67 1.318 . S
N84 Co76 1.962 . S
N84 C104 1.421 . S
N85 Co76 1.958 . S
N85 C88 1.344 . S
N85 C90 1.425 . S
C86 N75 1.318 . S
C86 C82 1.493 . S
C86 O87 1.201 . S
O87 C86 1.201 . S
C88 C73 1.484 . S
C88 N85 1.344 . S
C88 O89 1.268 . S
O89 C88 1.268 . S
C90 N85 1.425 . S
C90 C92 1.392 . S
C90 C93 1.368 . S
C91 C92 1.382 . S
C91 C95 1.386 . S
C92 C90 1.392 . S
C92 C91 1.382 . S
C92 H122 0.928 . S
C93 C90 1.368 . S
C93 C94 1.367 . S
C93 H123 0.930 . S
C94 C93 1.367 . S
C94 C95 1.369 . S
C95 C91 1.386 . S
C95 C94 1.369 . S
C95 H124 0.930 . S
C96 C81 1.484 . S
C96 N83 1.344 . S
C96 O97 1.268 . S
O97 C96 1.268 . S
C98 N83 1.425 . S
C98 C99 1.368 . S
C98 C103 1.392 . S
C99 C98 1.368 . S
C99 C100 1.367 . S
C99 H125 0.930 . S
C100 C99 1.367 . S
C100 C101 1.369 . S
C101 C100 1.369 . S
C101 C102 1.386 . S
C101 H126 0.927 1_545 S
C102 C101 1.386 . S
C102 C103 1.382 . S
C103 C98 1.392 . S
C103 C102 1.382 . S
C103 H127 0.928 . S
C104 N84 1.421 . S
C104 C105 1.371 . S
C104 C109 1.385 . S
C105 C104 1.371 . S
C105 C106 1.367 . S
C105 H128 0.931 . S
C106 C105 1.367 . S
C106 C107 1.401 . S
C107 C106 1.401 . S
C107 C108 1.385 . S
C107 H129 0.930 . S
C108 C107 1.385 . S
C108 C109 1.402 . S
C109 C104 1.385 . S
C109 C108 1.402 . S
C109 H130 0.929 . S
C110 N75 1.421 . S
C110 C113 1.385 . S
C110 C114 1.371 . S
C111 C112 1.385 . S
C111 C115 1.401 . S
C111 H131 0.930 . S
C112 C111 1.385 . S
C112 C113 1.402 . S
C113 C110 1.385 . S
C113 C112 1.402 . S
C113 H132 0.929 . S
C114 C110 1.371 . S
C114 C115 1.367 . S
C114 H133 0.931 . S
C115 C111 1.401 . S
C115 C114 1.367 . S
H116 C70 0.931 . S
H117 C71 0.930 . S
H118 C72 0.929 . S
H119 C78 0.931 . S
H120 C79 0.930 . S
H121 C80 0.929 . S
H122 C92 0.928 . S
H123 C93 0.930 . S
H124 C95 0.930 . S
H125 C99 0.930 . S
H126 C101 0.927 1_565 S
H127 C103 0.928 . S
H128 C105 0.931 . S
H129 C107 0.930 . S
H130 C109 0.929 . S
H131 C111 0.930 . S
H132 C113 0.929 . S
H133 C114 0.931 . S
C134 O135 1.201 . S
C134 C136 1.493 . S
C134 N151 1.318 . S
O135 C134 1.201 . S
C136 C134 1.493 . S
C136 C137 1.381 . S
C136 N141 1.335 . S
C137 C136 1.381 . S
C137 C138 1.411 . S
C137 H183 0.931 . S
C138 C137 1.411 . S
C138 C139 1.384 . S
C138 H184 0.930 . S
C139 C138 1.384 . S
C139 C140 1.376 . S
C139 H185 0.929 . S
C140 C139 1.376 . S
C140 N141 1.330 . S
C140 C155 1.484 . S
N141 C136 1.335 . S
N141 C140 1.330 . S
N141 Co143 1.859 . S
N142 Co143 1.962 . S
N142 C153 1.318 . S
N142 C177 1.421 . S
Co143 N141 1.859 . S
Co143 N142 1.962 . S
Co143 N144 1.859 . S
Co143 N150 1.958 . S
Co143 N151 1.962 . S
Co143 N152 1.958 . S
N144 Co143 1.859 . S
N144 C148 1.330 . S
N144 C149 1.335 . S
C145 C146 1.411 . S
C145 C149 1.381 . S
C145 H186 0.931 . S
C146 C145 1.411 . S
C146 C147 1.384 . S
C146 H187 0.930 . S
C147 C146 1.384 . S
C147 C148 1.376 . S
C147 H188 0.929 . S
C148 N144 1.330 . S
C148 C147 1.376 . S
C148 C163 1.484 . S
C149 N144 1.335 . S
C149 C145 1.381 . S
C149 C153 1.493 . S
N150 Co143 1.958 . S
N150 C163 1.344 . S
N150 C165 1.425 . S
N151 C134 1.318 . S
N151 Co143 1.962 . S
N151 C171 1.421 . S
N152 Co143 1.958 . S
N152 C155 1.344 . S
N152 C157 1.425 . S
C153 N142 1.318 . S
C153 C149 1.493 . S
C153 O154 1.201 . S
O154 C153 1.201 . S
C155 C140 1.484 . S
C155 N152 1.344 . S
C155 O156 1.268 . S
O156 C155 1.268 . S
C157 N152 1.425 . S
C157 C159 1.392 . S
C157 C160 1.368 . S
C158 C159 1.382 . S
C158 C162 1.386 . S
C159 C157 1.392 . S
C159 C158 1.382 . S
C159 H189 0.928 . S
C160 C157 1.368 . S
C160 C161 1.367 . S
C160 H190 0.930 . S
C161 C160 1.367 . S
C161 C162 1.369 . S
C162 C158 1.386 . S
C162 C161 1.369 . S
C162 H191 0.927 1_565 S
C163 C148 1.484 . S
C163 N150 1.344 . S
C163 O164 1.268 . S
O164 C163 1.268 . S
C165 N150 1.425 . S
C165 C166 1.368 . S
C165 C170 1.392 . S
C166 C165 1.368 . S
C166 C167 1.367 . S
C166 H192 0.930 . S
C167 C166 1.367 . S
C167 C168 1.369 . S
C168 C167 1.369 . S
C168 C169 1.386 . S
C168 H193 0.930 . S
C169 C168 1.386 . S
C169 C170 1.382 . S
C170 C165 1.392 . S
C170 C169 1.382 . S
C170 H194 0.928 . S
C171 N151 1.421 . S
C171 C172 1.371 . S
C171 C176 1.385 . S
C172 C171 1.371 . S
C172 C173 1.367 . S
C172 H195 0.931 . S
C173 C172 1.367 . S
C173 C174 1.401 . S
C174 C173 1.401 . S
C174 C175 1.385 . S
C174 H196 0.930 . S
C175 C174 1.385 . S
C175 C176 1.402 . S
C176 C171 1.385 . S
C176 C175 1.402 . S
C176 H197 0.929 . S
C177 N142 1.421 . S
C177 C180 1.385 . S
C177 C181 1.371 . S
C178 C179 1.385 . S
C178 C182 1.401 . S
C178 H198 0.930 . S
C179 C178 1.385 . S
C179 C180 1.402 . S
C180 C177 1.385 . S
C180 C179 1.402 . S
C180 H199 0.929 . S
C181 C177 1.371 . S
C181 C182 1.367 . S
C181 H200 0.931 . S
C182 C178 1.401 . S
C182 C181 1.367 . S
H183 C137 0.931 . S
H184 C138 0.930 . S
H185 C139 0.929 . S
H186 C145 0.931 . S
H187 C146 0.930 . S
H188 C147 0.929 . S
H189 C159 0.928 . S
H190 C160 0.930 . S
H191 C162 0.927 1_545 S
H192 C166 0.930 . S
H193 C168 0.930 . S
H194 C170 0.928 . S
H195 C172 0.931 . S
H196 C174 0.930 . S
H197 C176 0.929 . S
H198 C178 0.930 . S
H199 C180 0.929 . S
H200 C181 0.931 . S
C201 O202 1.201 . S
C201 C203 1.493 . S
C201 N218 1.318 1_455 S
O202 C201 1.201 . S
C203 C201 1.493 . S
C203 C204 1.381 . S
C203 N208 1.335 . S
C204 C203 1.381 . S
C204 C205 1.411 . S
C204 H250 0.931 . S
C205 C204 1.411 . S
C205 C206 1.384 . S
C205 H251 0.930 . S
C206 C205 1.384 . S
C206 C207 1.376 . S
C206 H252 0.929 . S
C207 C206 1.376 . S
C207 N208 1.330 . S
C207 C222 1.484 . S
N208 C203 1.335 . S
N208 C207 1.330 . S
N208 Co210 1.859 . S
N209 Co210 1.962 . S
N209 C220 1.318 1_455 S
N209 C244 1.421 . S
Co210 N208 1.859 . S
Co210 N209 1.962 . S
Co210 N211 1.859 1_455 S
Co210 N217 1.958 1_455 S
Co210 N218 1.962 1_455 S
Co210 N219 1.958 . S
N211 Co210 1.859 1_655 S
N211 C215 1.330 . S
N211 C216 1.335 . S
C212 C213 1.411 . S
C212 C216 1.381 . S
C212 H253 0.931 . S
C213 C212 1.411 . S
C213 C214 1.384 . S
C213 H254 0.930 . S
C214 C213 1.384 . S
C214 C215 1.376 . S
C214 H255 0.929 . S
C215 N211 1.330 . S
C215 C214 1.376 . S
C215 C230 1.484 . S
C216 N211 1.335 . S
C216 C212 1.381 . S
C216 C220 1.493 . S
N217 Co210 1.958 1_655 S
N217 C230 1.344 . S
N217 C232 1.433 . S
N218 C201 1.318 1_655 S
N218 Co210 1.962 1_655 S
N218 C238 1.421 . S
N219 Co210 1.958 . S
N219 C222 1.344 . S
N219 C224 1.437 . S
C220 N209 1.318 1_655 S
C220 C216 1.493 . S
C220 O221 1.201 . S
O221 C220 1.201 . S
C222 C207 1.484 . S
C222 N219 1.344 . S
C222 O223 1.268 . S
O223 C222 1.268 . S
C224 N219 1.437 . S
C224 C226 1.395 . S
C224 C227 1.352 1_455 S
C225 C226 1.382 1_655 S
C225 C229 1.386 . S
C226 C224 1.395 . S
C226 C225 1.382 1_455 S
C226 H256 0.928 . S
C227 C224 1.352 1_655 S
C227 C228 1.367 . S
C227 H257 0.930 . S
C228 C227 1.367 . S
C228 C229 1.369 . S
C229 C225 1.386 . S
C229 C228 1.369 . S
C229 H258 0.930 . S
C230 C215 1.484 . S
C230 N217 1.344 . S
C230 O231 1.268 . S
O231 C230 1.268 . S
C232 N217 1.433 . S
C232 C233 1.357 1_655 S
C232 C237 1.394 . S
C233 C232 1.357 1_455 S
C233 C234 1.367 . S
C233 H259 0.930 . S
C234 C233 1.367 . S
C234 C235 1.369 . S
C235 C234 1.369 . S
C235 C236 1.386 . S
C235 H260 0.930 . S
C236 C235 1.386 . S
C236 C237 1.382 1_455 S
C237 C232 1.394 . S
C237 C236 1.382 1_655 S
C237 H261 0.928 . S
C238 N218 1.421 . S
C238 C239 1.371 . S
C238 C243 1.385 . S
C239 C238 1.371 . S
C239 C240 1.367 . S
C239 H262 0.931 . S
C240 C239 1.367 . S
C240 C241 1.401 . S
C241 C240 1.401 . S
C241 C242 1.385 . S
C241 H263 0.930 . S
C242 C241 1.385 . S
C242 C243 1.402 . S
C243 C238 1.385 . S
C243 C242 1.402 . S
C243 H264 0.929 . S
C244 N209 1.421 . S
C244 C247 1.385 . S
C244 C248 1.371 . S
C245 C246 1.385 . S
C245 C249 1.401 . S
C245 H265 0.930 . S
C246 C245 1.385 . S
C246 C247 1.402 . S
C247 C244 1.385 . S
C247 C246 1.402 . S
C247 H266 0.929 . S
C248 C244 1.371 . S
C248 C249 1.367 . S
C248 H267 0.931 . S
C249 C245 1.401 . S
C249 C248 1.367 . S
H250 C204 0.931 . S
H251 C205 0.930 . S
H252 C206 0.929 . S
H253 C212 0.931 . S
H254 C213 0.930 . S
H255 C214 0.929 . S
H256 C226 0.928 . S
H257 C227 0.930 . S
H258 C229 0.930 . S
H259 C233 0.930 . S
H260 C235 0.930 . S
H261 C237 0.928 . S
H262 C239 0.931 . S
H263 C241 0.930 . S
H264 C243 0.929 . S
H265 C245 0.930 . S
H266 C247 0.929 . S
H267 C248 0.931 . S
C268 O269 1.201 . S
C268 C270 1.493 . S
C268 N285 1.318 . S
O269 C268 1.201 . S
C270 C268 1.493 . S
C270 C271 1.381 . S
C270 N275 1.335 . S
C271 C270 1.381 . S
C271 C272 1.411 . S
C271 H317 0.931 . S
C272 C271 1.411 . S
C272 C273 1.384 . S
C272 H318 0.930 . S
C273 C272 1.384 . S
C273 C274 1.376 . S
C273 H319 0.929 . S
C274 C273 1.376 . S
C274 N275 1.330 . S
C274 C289 1.484 . S
N275 C270 1.335 . S
N275 C274 1.330 . S
N275 Co277 1.859 . S
N276 Co277 1.962 . S
N276 C287 1.318 . S
N276 C311 1.421 . S
Co277 N275 1.859 . S
Co277 N276 1.962 . S
Co277 N278 1.859 . S
Co277 N284 1.958 . S
Co277 N285 1.962 . S
Co277 N286 1.958 . S
N278 Co277 1.859 . S
N278 C282 1.330 . S
N278 C283 1.335 . S
C279 C280 1.411 . S
C279 C283 1.381 . S
C279 H320 0.931 . S
C280 C279 1.411 . S
C280 C281 1.384 . S
C280 H321 0.930 . S
C281 C280 1.384 . S
C281 C282 1.376 . S
C281 H322 0.929 . S
C282 N278 1.330 . S
C282 C281 1.376 . S
C282 C297 1.484 . S
C283 N278 1.335 . S
C283 C279 1.381 . S
C283 C287 1.493 . S
N284 Co277 1.958 . S
N284 C297 1.344 . S
N284 C299 1.425 . S
N285 C268 1.318 . S
N285 Co277 1.962 . S
N285 C305 1.421 . S
N286 Co277 1.958 . S
N286 C289 1.344 . S
N286 C291 1.425 . S
C287 N276 1.318 . S
C287 C283 1.493 . S
C287 O288 1.201 . S
O288 C287 1.201 . S
C289 C274 1.484 . S
C289 N286 1.344 . S
C289 O290 1.268 . S
O290 C289 1.268 . S
C291 N286 1.425 . S
C291 C293 1.392 . S
C291 C294 1.368 . S
C292 C293 1.382 . S
C292 C296 1.386 . S
C293 C291 1.392 . S
C293 C292 1.382 . S
C293 H323 0.928 . S
C294 C291 1.368 . S
C294 C295 1.367 . S
C294 H324 0.930 . S
C295 C294 1.367 . S
C295 C296 1.369 . S
C296 C292 1.386 . S
C296 C295 1.369 . S
C296 H325 0.927 1_565 S
C297 C282 1.484 . S
C297 N284 1.344 . S
C297 O298 1.268 . S
O298 C297 1.268 . S
C299 N284 1.425 . S
C299 C300 1.368 . S
C299 C304 1.392 . S
C300 C299 1.368 . S
C300 C301 1.367 . S
C300 H326 0.930 . S
C301 C300 1.367 . S
C301 C302 1.369 . S
C302 C301 1.369 . S
C302 C303 1.386 . S
C302 H327 0.930 . S
C303 C302 1.386 . S
C303 C304 1.382 . S
C304 C299 1.392 . S
C304 C303 1.382 . S
C304 H328 0.928 . S
C305 N285 1.421 . S
C305 C306 1.371 . S
C305 C310 1.385 . S
C306 C305 1.371 . S
C306 C307 1.367 . S
C306 H329 0.931 . S
C307 C306 1.367 . S
C307 C308 1.401 . S
C308 C307 1.401 . S
C308 C309 1.385 . S
C308 H330 0.930 . S
C309 C308 1.385 . S
C309 C310 1.402 . S
C310 C305 1.385 . S
C310 C309 1.402 . S
C310 H331 0.929 . S
C311 N276 1.421 . S
C311 C314 1.385 . S
C311 C315 1.371 . S
C312 C313 1.385 . S
C312 C316 1.401 . S
C312 H332 0.930 . S
C313 C312 1.385 . S
C313 C314 1.402 . S
C314 C311 1.385 . S
C314 C313 1.402 . S
C314 H333 0.929 . S
C315 C311 1.371 . S
C315 C316 1.367 . S
C315 H334 0.931 . S
C316 C312 1.401 . S
C316 C315 1.367 . S
H317 C271 0.931 . S
H318 C272 0.930 . S
H319 C273 0.929 . S
H320 C279 0.931 . S
H321 C280 0.930 . S
H322 C281 0.929 . S
H323 C293 0.928 . S
H324 C294 0.930 . S
H325 C296 0.927 1_545 S
H326 C300 0.930 . S
H327 C302 0.930 . S
H328 C304 0.928 . S
H329 C306 0.931 . S
H330 C308 0.930 . S
H331 C310 0.929 . S
H332 C312 0.930 . S
H333 C314 0.929 . S
H334 C315 0.931 . S
C335 O336 1.201 . S
C335 C337 1.493 . S
C335 N352 1.318 . S
O336 C335 1.201 . S
C337 C335 1.493 . S
C337 C338 1.381 . S
C337 N342 1.335 . S
C338 C337 1.381 . S
C338 C339 1.411 . S
C338 H384 0.931 . S
C339 C338 1.411 . S
C339 C340 1.384 . S
C339 H385 0.930 . S
C340 C339 1.384 . S
C340 C341 1.376 . S
C340 H386 0.929 . S
C341 C340 1.376 . S
C341 N342 1.330 . S
C341 C356 1.484 . S
N342 C337 1.335 . S
N342 C341 1.330 . S
N342 Co344 1.859 . S
N343 Co344 1.962 . S
N343 C354 1.318 . S
N343 C378 1.421 . S
Co344 N342 1.859 . S
Co344 N343 1.962 . S
Co344 N345 1.859 . S
Co344 N351 1.958 . S
Co344 N352 1.962 . S
Co344 N353 1.958 . S
N345 Co344 1.859 . S
N345 C349 1.330 . S
N345 C350 1.335 . S
C346 C347 1.411 . S
C346 C350 1.381 . S
C346 H387 0.931 . S
C347 C346 1.411 . S
C347 C348 1.384 . S
C347 H388 0.930 . S
C348 C347 1.384 . S
C348 C349 1.376 . S
C348 H389 0.929 . S
C349 N345 1.330 . S
C349 C348 1.376 . S
C349 C364 1.484 . S
C350 N345 1.335 . S
C350 C346 1.381 . S
C350 C354 1.493 . S
N351 Co344 1.958 . S
N351 C364 1.344 . S
N351 C366 1.425 . S
N352 C335 1.318 . S
N352 Co344 1.962 . S
N352 C372 1.421 . S
N353 Co344 1.958 . S
N353 C356 1.344 . S
N353 C358 1.425 . S
C354 N343 1.318 . S
C354 C350 1.493 . S
C354 O355 1.201 . S
O355 C354 1.201 . S
C356 C341 1.484 . S
C356 N353 1.344 . S
C356 O357 1.268 . S
O357 C356 1.268 . S
C358 N353 1.425 . S
C358 C360 1.392 . S
C358 C361 1.368 . S
C359 C360 1.382 . S
C359 C363 1.386 . S
C360 C358 1.392 . S
C360 C359 1.382 . S
C360 H390 0.928 . S
C361 C358 1.368 . S
C361 C362 1.367 . S
C361 H391 0.930 . S
C362 C361 1.367 . S
C362 C363 1.369 . S
C363 C359 1.386 . S
C363 C362 1.369 . S
C363 H392 0.930 . S
C364 C349 1.484 . S
C364 N351 1.344 . S
C364 O365 1.268 . S
O365 C364 1.268 . S
C366 N351 1.425 . S
C366 C367 1.368 . S
C366 C371 1.392 . S
C367 C366 1.368 . S
C367 C368 1.367 . S
C367 H393 0.930 . S
C368 C367 1.367 . S
C368 C369 1.369 . S
C369 C368 1.369 . S
C369 C370 1.386 . S
C369 H394 0.927 1_545 S
C370 C369 1.386 . S
C370 C371 1.382 . S
C371 C366 1.392 . S
C371 C370 1.382 . S
C371 H395 0.928 . S
C372 N352 1.421 . S
C372 C373 1.371 . S
C372 C377 1.385 . S
C373 C372 1.371 . S
C373 C374 1.367 . S
C373 H396 0.931 . S
C374 C373 1.367 . S
C374 C375 1.401 . S
C375 C374 1.401 . S
C375 C376 1.385 . S
C375 H397 0.930 . S
C376 C375 1.385 . S
C376 C377 1.402 . S
C377 C372 1.385 . S
C377 C376 1.402 . S
C377 H398 0.929 . S
C378 N343 1.421 . S
C378 C381 1.385 . S
C378 C382 1.371 . S
C379 C380 1.385 . S
C379 C383 1.401 . S
C379 H399 0.930 . S
C380 C379 1.385 . S
C380 C381 1.402 . S
C381 C378 1.385 . S
C381 C380 1.402 . S
C381 H400 0.929 . S
C382 C378 1.371 . S
C382 C383 1.367 . S
C382 H401 0.931 . S
C383 C379 1.401 . S
C383 C382 1.367 . S
H384 C338 0.931 . S
H385 C339 0.930 . S
H386 C340 0.929 . S
H387 C346 0.931 . S
H388 C347 0.930 . S
H389 C348 0.929 . S
H390 C360 0.928 . S
H391 C361 0.930 . S
H392 C363 0.930 . S
H393 C367 0.930 . S
H394 C369 0.927 1_565 S
H395 C371 0.928 . S
H396 C373 0.931 . S
H397 C375 0.930 . S
H398 C377 0.929 . S
H399 C379 0.930 . S
H400 C381 0.929 . S
H401 C382 0.931 . S
C402 O403 1.201 . S
C402 C404 1.493 . S
C402 N419 1.318 . S
O403 C402 1.201 . S
C404 C402 1.493 . S
C404 C405 1.381 . S
C404 N409 1.335 . S
C405 C404 1.381 . S
C405 C406 1.411 . S
C405 H451 0.931 . S
C406 C405 1.411 . S
C406 C407 1.384 . S
C406 H452 0.930 . S
C407 C406 1.384 . S
C407 C408 1.376 . S
C407 H453 0.929 . S
C408 C407 1.376 . S
C408 N409 1.330 . S
C408 C423 1.484 1_565 S
N409 C404 1.335 . S
N409 C408 1.330 . S
N409 Co411 1.859 1_565 S
N410 Co411 1.962 . S
N410 C421 1.318 . S
N410 C445 1.421 . S
Co411 N409 1.859 1_545 S
Co411 N410 1.962 . S
Co411 N412 1.859 . S
Co411 N418 1.958 1_545 S
Co411 N419 1.962 1_545 S
Co411 N420 1.958 . S
N412 Co411 1.859 . S
N412 C416 1.330 . S
N412 C417 1.335 . S
C413 C414 1.411 . S
C413 C417 1.381 . S
C413 H454 0.931 . S
C414 C413 1.411 . S
C414 C415 1.384 . S
C414 H455 0.930 . S
C415 C414 1.384 . S
C415 C416 1.376 . S
C415 H456 0.929 . S
C416 N412 1.330 . S
C416 C415 1.376 . S
C416 C431 1.484 1_545 S
C417 N412 1.335 . S
C417 C413 1.381 . S
C417 C421 1.493 . S
N418 Co411 1.958 1_565 S
N418 C431 1.344 . S
N418 C433 1.425 . S
N419 C402 1.318 . S
N419 Co411 1.962 1_565 S
N419 C439 1.421 . S
N420 Co411 1.958 . S
N420 C423 1.344 . S
N420 C425 1.425 . S
C421 N410 1.318 . S
C421 C417 1.493 . S
C421 O422 1.201 . S
O422 C421 1.201 . S
C423 C408 1.484 1_545 S
C423 N420 1.344 . S
C423 O424 1.268 . S
O424 C423 1.268 . S
C425 N420 1.425 . S
C425 C427 1.392 . S
C425 C428 1.368 . S
C426 C427 1.382 . S
C426 C430 1.386 . S
C427 C425 1.392 . S
C427 C426 1.382 . S
C427 H457 0.928 . S
C428 C425 1.368 . S
C428 C429 1.367 . S
C428 H458 0.930 . S
C429 C428 1.367 . S
C429 C430 1.369 . S
C430 C426 1.386 . S
C430 C429 1.369 . S
C430 H459 0.930 . S
C431 C416 1.484 1_565 S
C431 N418 1.344 . S
C431 O432 1.268 . S
O432 C431 1.268 . S
C433 N418 1.425 . S
C433 C434 1.368 . S
C433 C438 1.392 . S
C434 C433 1.368 . S
C434 C435 1.367 . S
C434 H460 0.930 . S
C435 C434 1.367 . S
C435 C436 1.369 . S
C436 C435 1.369 . S
C436 C437 1.386 . S
C436 H461 0.930 . S
C437 C436 1.386 . S
C437 C438 1.382 . S
C438 C433 1.392 . S
C438 C437 1.382 . S
C438 H462 0.928 . S
C439 N419 1.421 . S
C439 C440 1.371 . S
C439 C444 1.385 . S
C440 C439 1.371 . S
C440 C441 1.367 . S
C440 H463 0.931 . S
C441 C440 1.367 . S
C441 C442 1.401 . S
C442 C441 1.401 . S
C442 C443 1.385 . S
C442 H464 0.930 . S
C443 C442 1.385 . S
C443 C444 1.402 . S
C444 C439 1.385 . S
C444 C443 1.402 . S
C444 H465 0.929 . S
C445 N410 1.421 . S
C445 C448 1.385 . S
C445 C449 1.371 . S
C446 C447 1.385 . S
C446 C450 1.401 . S
C446 H466 0.930 . S
C447 C446 1.385 . S
C447 C448 1.402 . S
C448 C445 1.385 . S
C448 C447 1.402 . S
C448 H467 0.929 . S
C449 C445 1.371 . S
C449 C450 1.367 . S
C449 H468 0.931 . S
C450 C446 1.401 . S
C450 C449 1.367 . S
H451 C405 0.931 . S
H452 C406 0.930 . S
H453 C407 0.929 . S
H454 C413 0.931 . S
H455 C414 0.930 . S
H456 C415 0.929 . S
H457 C427 0.928 . S
H458 C428 0.930 . S
H459 C430 0.930 . S
H460 C434 0.930 . S
H461 C436 0.930 . S
H462 C438 0.928 . S
H463 C440 0.931 . S
H464 C442 0.930 . S
H465 C444 0.929 . S
H466 C446 0.930 . S
H467 C448 0.929 . S
H468 C449 0.931 . S
C469 O470 1.201 . S
C469 C471 1.493 . S
C469 N486 1.318 . S
O470 C469 1.201 . S
C471 C469 1.493 . S
C471 C472 1.381 . S
C471 N476 1.335 1_554 S
C472 C471 1.381 . S
C472 C473 1.411 1_554 S
C472 H518 0.931 . S
C473 C472 1.411 1_556 S
C473 C474 1.384 . S
C473 H519 0.930 . S
C474 C473 1.384 . S
C474 C475 1.376 . S
C474 H520 0.929 . S
C475 C474 1.376 . S
C475 N476 1.330 . S
C475 C490 1.484 . S
N476 C471 1.335 1_556 S
N476 C475 1.330 . S
N476 Co478 1.859 . S
N477 Co478 1.962 1_554 S
N477 C488 1.318 . S
N477 C512 1.421 . S
Co478 N476 1.859 . S
Co478 N477 1.962 1_556 S
Co478 N479 1.859 . S
Co478 N485 1.958 . S
Co478 N486 1.962 1_556 S
Co478 N487 1.958 . S
N479 Co478 1.859 . S
N479 C483 1.330 . S
N479 C484 1.335 1_556 S
C480 C481 1.411 1_554 S
C480 C484 1.381 . S
C480 H521 0.931 . S
C481 C480 1.411 1_556 S
C481 C482 1.384 . S
C481 H522 0.930 . S
C482 C481 1.384 . S
C482 C483 1.376 . S
C482 H523 0.929 . S
C483 N479 1.330 . S
C483 C482 1.376 . S
C483 C498 1.484 . S
C484 N479 1.335 1_554 S
C484 C480 1.381 . S
C484 C488 1.493 . S
N485 Co478 1.958 . S
N485 C498 1.344 . S
N485 C500 1.425 . S
N486 C469 1.318 . S
N486 Co478 1.962 1_554 S
N486 C506 1.421 . S
N487 Co478 1.958 . S
N487 C490 1.344 . S
N487 C492 1.425 . S
C488 N477 1.318 . S
C488 C484 1.493 . S
C488 O489 1.201 . S
O489 C488 1.201 . S
C490 C475 1.484 . S
C490 N487 1.344 . S
C490 O491 1.268 . S
O491 C490 1.268 . S
C492 N487 1.425 . S
C492 C494 1.392 . S
C492 C495 1.368 . S
C493 C494 1.382 . S
C493 C497 1.386 . S
C494 C492 1.392 . S
C494 C493 1.382 . S
C494 H524 0.928 . S
C495 C492 1.368 . S
C495 C496 1.367 . S
C495 H525 0.930 . S
C496 C495 1.367 . S
C496 C497 1.369 . S
C497 C493 1.386 . S
C497 C496 1.369 . S
C497 H526 0.930 . S
C498 C483 1.484 . S
C498 N485 1.344 . S
C498 O499 1.268 . S
O499 C498 1.268 . S
C500 N485 1.425 . S
C500 C501 1.368 . S
C500 C505 1.392 . S
C501 C500 1.368 . S
C501 C502 1.367 . S
C501 H527 0.930 . S
C502 C501 1.367 . S
C502 C503 1.369 . S
C503 C502 1.369 . S
C503 C504 1.386 . S
C503 H528 0.930 . S
C504 C503 1.386 . S
C504 C505 1.382 . S
C505 C500 1.392 . S
C505 C504 1.382 . S
C505 H529 0.928 . S
C506 N486 1.421 . S
C506 C507 1.371 . S
C506 C511 1.385 . S
C507 C506 1.371 . S
C507 C508 1.367 . S
C507 H530 0.931 . S
C508 C507 1.367 . S
C508 C509 1.401 . S
C509 C508 1.401 . S
C509 C510 1.385 . S
C509 H531 0.930 . S
C510 C509 1.385 . S
C510 C511 1.402 . S
C511 C506 1.385 . S
C511 C510 1.402 . S
C511 H532 0.929 . S
C512 N477 1.421 . S
C512 C515 1.385 . S
C512 C516 1.371 . S
C513 C514 1.385 . S
C513 C517 1.401 . S
C513 H533 0.930 . S
C514 C513 1.385 . S
C514 C515 1.402 . S
C515 C512 1.385 . S
C515 C514 1.402 . S
C515 H534 0.929 . S
C516 C512 1.371 . S
C516 C517 1.367 . S
C516 H535 0.931 . S
C517 C513 1.401 . S
C517 C516 1.367 . S
H518 C472 0.931 . S
H519 C473 0.930 . S
H520 C474 0.929 . S
H521 C480 0.931 . S
H522 C481 0.930 . S
H523 C482 0.929 . S
H524 C494 0.928 . S
H525 C495 0.930 . S
H526 C497 0.930 . S
H527 C501 0.930 . S
H528 C503 0.930 . S
H529 C505 0.928 . S
H530 C507 0.931 . S
H531 C509 0.930 . S
H532 C511 0.929 . S
H533 C513 0.930 . S
H534 C515 0.929 . S
H535 C516 0.931 . S
H536 C544 0.950 . S
H537 C549 0.950 . S
H538 C546 0.950 . S
H539 C548 0.950 . S
H540 C550 0.950 . S
H541 C552 0.950 . S
H542 C554 0.950 . S
H543 C555 0.950 . S
C544 H536 0.950 . S
C544 C545 1.386 . S
C544 C546 1.391 . S
C545 C544 1.386 . S
C545 C549 1.393 . S
C546 H538 0.950 . S
C546 C544 1.391 . S
C546 C547 1.400 . S
C547 C546 1.400 . S
C547 C548 1.398 . S
C547 C553 1.491 . S
C548 H539 0.950 . S
C548 C547 1.398 . S
C548 C549 1.391 . S
C549 H537 0.950 . S
C549 C545 1.393 . S
C549 C548 1.391 . S
C550 H540 0.950 . S
C550 C551 1.386 . S
C550 C552 1.391 . S
C551 C550 1.386 . S
C551 C555 1.393 . S
C552 H541 0.950 . S
C552 C550 1.391 . S
C552 C553 1.400 . S
C553 C547 1.491 . S
C553 C552 1.400 . S
C553 C554 1.398 . S
C554 H542 0.950 . S
C554 C553 1.398 . S
C554 C555 1.391 . S
C555 H543 0.950 . S
C555 C551 1.393 . S
C555 C554 1.391 . S
H556 C564 0.950 . S
H557 C569 0.950 1_545 S
H558 C566 0.950 . S
H559 C568 0.950 1_545 S
H560 C570 0.950 . S
H561 C572 0.950 . S
H562 C574 0.950 . S
H563 C575 0.950 . S
C564 H556 0.950 . S
C564 C565 1.386 . S
C564 C566 1.391 . S
C565 C564 1.386 . S
C565 C569 1.393 . S
C566 H558 0.950 . S
C566 C564 1.391 . S
C566 C567 1.400 . S
C567 C566 1.400 . S
C567 C568 1.398 . S
C567 C573 1.491 . S
C568 H559 0.950 1_565 S
C568 C567 1.398 . S
C568 C569 1.391 . S
C569 H557 0.950 1_565 S
C569 C565 1.393 . S
C569 C568 1.391 . S
C570 H560 0.950 . S
C570 C571 1.386 . S
C570 C572 1.391 . S
C571 C570 1.386 . S
C571 C575 1.393 . S
C572 H561 0.950 . S
C572 C570 1.391 . S
C572 C573 1.400 . S
C573 C567 1.491 . S
C573 C572 1.400 . S
C573 C574 1.398 . S
C574 H562 0.950 . S
C574 C573 1.398 . S
C574 C575 1.391 . S
C575 H563 0.950 . S
C575 C571 1.393 . S
C575 C574 1.391 . S
H576 C584 0.950 . S
H577 C589 0.950 . S
H578 C586 0.950 . S
H579 C588 0.950 . S
H580 C590 0.950 . S
H581 C592 0.950 . S
H582 C594 0.950 . S
H583 C595 0.950 . S
C584 H576 0.950 . S
C584 C585 1.386 . S
C584 C586 1.391 . S
C585 C584 1.386 . S
C585 C589 1.393 . S
C586 H578 0.950 . S
C586 C584 1.391 . S
C586 C587 1.400 . S
C587 C586 1.400 . S
C587 C588 1.398 . S
C587 C593 1.491 . S
C588 H579 0.950 . S
C588 C587 1.398 . S
C588 C589 1.391 . S
C589 H577 0.950 . S
C589 C585 1.393 . S
C589 C588 1.391 . S
C590 H580 0.950 . S
C590 C591 1.386 . S
C590 C592 1.391 . S
C591 C590 1.386 . S
C591 C595 1.393 . S
C592 H581 0.950 . S
C592 C590 1.391 . S
C592 C593 1.400 . S
C593 C587 1.491 . S
C593 C592 1.400 . S
C593 C594 1.398 . S
C594 H582 0.950 . S
C594 C593 1.398 . S
C594 C595 1.391 . S
C595 H583 0.950 . S
C595 C591 1.393 . S
C595 C594 1.391 . S
H596 C604 0.950 . S
H597 C609 0.950 . S
H598 C606 0.950 . S
H599 C608 0.950 . S
H600 C610 0.950 . S
H601 C612 0.950 . S
H602 C614 0.950 . S
H603 C615 0.950 . S
C604 H596 0.950 . S
C604 C605 1.386 . S
C604 C606 1.391 . S
C605 C604 1.386 . S
C605 C609 1.393 . S
C606 H598 0.950 . S
C606 C604 1.391 . S
C606 C607 1.400 . S
C607 C606 1.400 . S
C607 C608 1.398 . S
C607 C613 1.491 . S
C608 H599 0.950 . S
C608 C607 1.398 . S
C608 C609 1.391 . S
C609 H597 0.950 . S
C609 C605 1.393 . S
C609 C608 1.391 . S
C610 H600 0.950 . S
C610 C611 1.386 . S
C610 C612 1.391 . S
C611 C610 1.386 . S
C611 C615 1.393 . S
C612 H601 0.950 . S
C612 C610 1.391 . S
C612 C613 1.400 . S
C613 C607 1.491 . S
C613 C612 1.400 . S
C613 C614 1.398 . S
C614 H602 0.950 . S
C614 C613 1.398 . S
C614 C615 1.391 . S
C615 H603 0.950 . S
C615 C611 1.393 . S
C615 C614 1.391 . S
H616 C624 0.950 . S
H617 C629 0.950 . S
H618 C626 0.950 . S
H619 C628 0.950 . S
H620 C630 0.950 . S
H621 C632 0.950 . S
H622 C634 0.950 . S
H623 C635 0.950 . S
C624 H616 0.950 . S
C624 C625 1.386 . S
C624 C626 1.391 . S
C625 C624 1.386 . S
C625 C629 1.393 . S
C626 H618 0.950 . S
C626 C624 1.391 . S
C626 C627 1.400 . S
C627 C626 1.400 . S
C627 C628 1.398 . S
C627 C633 1.491 . S
C628 H619 0.950 . S
C628 C627 1.398 . S
C628 C629 1.391 . S
C629 H617 0.950 . S
C629 C625 1.393 . S
C629 C628 1.391 . S
C630 H620 0.950 . S
C630 C631 1.386 . S
C630 C632 1.391 . S
C631 C630 1.386 . S
C631 C635 1.393 . S
C632 H621 0.950 . S
C632 C630 1.391 . S
C632 C633 1.400 . S
C633 C627 1.491 . S
C633 C632 1.400 . S
C633 C634 1.398 . S
C634 H622 0.950 . S
C634 C633 1.398 . S
C634 C635 1.391 . S
C635 H623 0.950 . S
C635 C631 1.393 . S
C635 C634 1.391 . S
H636 C644 0.950 . S
H637 C649 0.950 . S
H638 C646 0.950 . S
H639 C648 0.950 . S
H640 C650 0.950 . S
H641 C652 0.950 . S
H642 C654 0.950 . S
H643 C655 0.950 . S
C644 H636 0.950 . S
C644 C645 1.386 . S
C644 C646 1.391 . S
C645 C644 1.386 . S
C645 C649 1.393 . S
C646 H638 0.950 . S
C646 C644 1.391 . S
C646 C647 1.400 . S
C647 C646 1.400 . S
C647 C648 1.398 . S
C647 C653 1.491 . S
C648 H639 0.950 . S
C648 C647 1.398 . S
C648 C649 1.391 . S
C649 H637 0.950 . S
C649 C645 1.393 . S
C649 C648 1.391 . S
C650 H640 0.950 . S
C650 C651 1.386 . S
C650 C652 1.391 . S
C651 C650 1.386 . S
C651 C655 1.393 . S
C652 H641 0.950 . S
C652 C650 1.391 . S
C652 C653 1.400 . S
C653 C647 1.491 . S
C653 C652 1.400 . S
C653 C654 1.398 . S
C654 H642 0.950 . S
C654 C653 1.398 . S
C654 C655 1.391 . S
C655 H643 0.950 . S
C655 C651 1.393 . S
C655 C654 1.391 . S
H656 C664 0.950 . S
H657 C669 0.950 . S
H658 C666 0.950 . S
H659 C668 0.950 . S
H660 C670 0.950 . S
H661 C672 0.950 . S
H662 C674 0.950 . S
H663 C675 0.950 . S
C664 H656 0.950 . S
C664 C665 1.386 . S
C664 C666 1.391 . S
C665 C664 1.386 . S
C665 C669 1.393 . S
C666 H658 0.950 . S
C666 C664 1.391 . S
C666 C667 1.400 . S
C667 C666 1.400 . S
C667 C668 1.398 . S
C667 C673 1.491 . S
C668 H659 0.950 . S
C668 C667 1.398 . S
C668 C669 1.391 . S
C669 H657 0.950 . S
C669 C665 1.393 . S
C669 C668 1.391 . S
C670 H660 0.950 . S
C670 C671 1.386 . S
C670 C672 1.391 . S
C671 C670 1.386 . S
C671 C675 1.393 . S
C672 H661 0.950 . S
C672 C670 1.391 . S
C672 C673 1.400 . S
C673 C667 1.491 . S
C673 C672 1.400 . S
C673 C674 1.398 . S
C674 H662 0.950 . S
C674 C673 1.398 . S
C674 C675 1.391 . S
C675 H663 0.950 . S
C675 C671 1.393 . S
C675 C674 1.391 . S
H676 C684 0.950 . S
H677 C689 0.950 . S
H678 C686 0.950 . S
H679 C688 0.950 . S
H680 C690 0.950 . S
H681 C692 0.950 . S
H682 C694 0.950 . S
H683 C695 0.950 . S
C684 H676 0.950 . S
C684 C685 1.386 . S
C684 C686 1.391 . S
C685 C684 1.386 . S
C685 C689 1.393 . S
C686 H678 0.950 . S
C686 C684 1.391 . S
C686 C687 1.400 . S
C687 C686 1.400 . S
C687 C688 1.398 . S
C687 C693 1.491 . S
C688 H679 0.950 . S
C688 C687 1.398 . S
C688 C689 1.391 . S
C689 H677 0.950 . S
C689 C685 1.393 . S
C689 C688 1.391 . S
C690 H680 0.950 . S
C690 C691 1.386 . S
C690 C692 1.391 . S
C691 C690 1.386 . S
C691 C695 1.393 . S
C692 H681 0.950 . S
C692 C690 1.391 . S
C692 C693 1.400 . S
C693 C687 1.491 . S
C693 C692 1.400 . S
C693 C694 1.398 . S
C694 H682 0.950 . S
C694 C693 1.398 . S
C694 C695 1.391 . S
C695 H683 0.950 . S
C695 C691 1.393 . S
C695 C694 1.391 . S
H696 C704 0.950 . S
H697 C709 0.950 . S
H698 C706 0.950 1_565 S
H699 C708 0.950 . S
H700 C710 0.950 . S
H701 C712 0.950 . S
H702 C714 0.950 1_565 S
H703 C715 0.950 1_565 S
C704 H696 0.950 . S
C704 C705 1.386 . S
C704 C706 1.391 . S
C705 C704 1.386 . S
C705 C709 1.393 . S
C706 H698 0.950 1_545 S
C706 C704 1.391 . S
C706 C707 1.400 . S
C707 C706 1.400 . S
C707 C708 1.398 . S
C707 C713 1.491 . S
C708 H699 0.950 . S
C708 C707 1.398 . S
C708 C709 1.391 . S
C709 H697 0.950 . S
C709 C705 1.393 . S
C709 C708 1.391 . S
C710 H700 0.950 . S
C710 C711 1.386 . S
C710 C712 1.391 . S
C711 C710 1.386 . S
C711 C715 1.393 . S
C712 H701 0.950 . S
C712 C710 1.391 . S
C712 C713 1.400 . S
C713 C707 1.491 . S
C713 C712 1.400 . S
C713 C714 1.398 . S
C714 H702 0.950 1_545 S
C714 C713 1.398 . S
C714 C715 1.391 . S
C715 H703 0.950 1_545 S
C715 C711 1.393 . S
C715 C714 1.391 . S
H716 C724 0.950 1_545 S
H717 C729 0.950 . S
H718 C726 0.950 1_545 S
H719 C728 0.950 . S
H720 C730 0.950 . S
H721 C732 0.950 . S
H722 C734 0.950 1_545 S
H723 C735 0.950 . S
C724 H716 0.950 1_565 S
C724 C725 1.386 . S
C724 C726 1.391 . S
C725 C724 1.386 . S
C725 C729 1.393 . S
C726 H718 0.950 1_565 S
C726 C724 1.391 . S
C726 C727 1.400 . S
C727 C726 1.400 . S
C727 C728 1.398 . S
C727 C733 1.491 . S
C728 H719 0.950 . S
C728 C727 1.398 . S
C728 C729 1.391 . S
C729 H717 0.950 . S
C729 C725 1.393 . S
C729 C728 1.391 . S
C730 H720 0.950 . S
C730 C731 1.386 . S
C730 C732 1.391 . S
C731 C730 1.386 . S
C731 C735 1.393 . S
C732 H721 0.950 . S
C732 C730 1.391 . S
C732 C733 1.400 . S
C733 C727 1.491 . S
C733 C732 1.400 . S
C733 C734 1.398 . S
C734 H722 0.950 1_565 S
C734 C733 1.398 . S
C734 C735 1.391 . S
C735 H723 0.950 . S
C735 C731 1.393 . S
C735 C734 1.391 . S
H736 C744 0.950 . S
H737 C749 0.950 . S
H738 C746 0.950 . S
H739 C748 0.950 . S
H740 C750 0.950 . S
H741 C752 0.950 . S
H742 C754 0.950 . S
H743 C755 0.950 . S
C744 H736 0.950 . S
C744 C745 1.386 . S
C744 C746 1.391 . S
C745 C744 1.386 . S
C745 C749 1.393 . S
C746 H738 0.950 . S
C746 C744 1.391 . S
C746 C747 1.400 . S
C747 C746 1.400 . S
C747 C748 1.398 . S
C747 C753 1.491 . S
C748 H739 0.950 . S
C748 C747 1.398 . S
C748 C749 1.391 . S
C749 H737 0.950 . S
C749 C745 1.393 . S
C749 C748 1.391 . S
C750 H740 0.950 . S
C750 C751 1.386 . S
C750 C752 1.391 . S
C751 C750 1.386 . S
C751 C755 1.393 . S
C752 H741 0.950 . S
C752 C750 1.391 . S
C752 C753 1.400 . S
C753 C747 1.491 . S
C753 C752 1.400 . S
C753 C754 1.398 . S
C754 H742 0.950 . S
C754 C753 1.398 . S
C754 C755 1.391 . S
C755 H743 0.950 . S
C755 C751 1.393 . S
C755 C754 1.391 . S
H756 C764 0.950 . S
H757 C769 0.950 . S
H758 C766 0.950 . S
H759 C768 0.950 . S
H760 C770 0.950 . S
H761 C772 0.950 . S
H762 C774 0.950 . S
H763 C775 0.950 . S
C764 H756 0.950 . S
C764 C765 1.386 . S
C764 C766 1.391 . S
C765 C764 1.386 . S
C765 C769 1.393 . S
C766 H758 0.950 . S
C766 C764 1.391 . S
C766 C767 1.400 . S
C767 C766 1.400 . S
C767 C768 1.398 . S
C767 C773 1.491 . S
C768 H759 0.950 . S
C768 C767 1.398 . S
C768 C769 1.391 . S
C769 H757 0.950 . S
C769 C765 1.393 . S
C769 C768 1.391 . S
C770 H760 0.950 . S
C770 C771 1.386 . S
C770 C772 1.391 . S
C771 C770 1.386 . S
C771 C775 1.393 . S
C772 H761 0.950 . S
C772 C770 1.391 . S
C772 C773 1.400 . S
C773 C767 1.491 . S
C773 C772 1.400 . S
C773 C774 1.398 . S
C774 H762 0.950 . S
C774 C773 1.398 . S
C774 C775 1.391 . S
C775 H763 0.950 . S
C775 C771 1.393 . S
C775 C774 1.391 . S
H776 C784 0.950 . S
H777 C789 0.950 . S
H778 C786 0.950 . S
H779 C788 0.950 . S
H780 C790 0.950 . S
H781 C792 0.950 . S
H782 C794 0.950 . S
H783 C795 0.950 . S
C784 H776 0.950 . S
C784 C785 1.386 . S
C784 C786 1.391 . S
C785 C784 1.386 . S
C785 C789 1.393 . S
C786 H778 0.950 . S
C786 C784 1.391 . S
C786 C787 1.400 . S
C787 C786 1.400 . S
C787 C788 1.398 . S
C787 C793 1.491 . S
C788 H779 0.950 . S
C788 C787 1.398 . S
C788 C789 1.391 . S
C789 H777 0.950 . S
C789 C785 1.393 . S
C789 C788 1.391 . S
C790 H780 0.950 . S
C790 C791 1.386 . S
C790 C792 1.391 . S
C791 C790 1.386 . S
C791 C795 1.393 . S
C792 H781 0.950 . S
C792 C790 1.391 . S
C792 C793 1.400 . S
C793 C787 1.491 . S
C793 C792 1.400 . S
C793 C794 1.398 . S
C794 H782 0.950 . S
C794 C793 1.398 . S
C794 C795 1.391 . S
C795 H783 0.950 . S
C795 C791 1.393 . S
C795 C794 1.391 . S
H796 C804 0.950 . S
H797 C809 0.950 . S
H798 C806 0.950 . S
H799 C808 0.950 . S
H800 C810 0.950 . S
H801 C812 0.950 . S
H802 C814 0.950 . S
H803 C815 0.950 . S
C804 H796 0.950 . S
C804 C805 1.386 . S
C804 C806 1.391 . S
C805 C804 1.386 . S
C805 C809 1.393 . S
C806 H798 0.950 . S
C806 C804 1.391 . S
C806 C807 1.400 . S
C807 C806 1.400 . S
C807 C808 1.398 . S
C807 C813 1.491 . S
C808 H799 0.950 . S
C808 C807 1.398 . S
C808 C809 1.391 . S
C809 H797 0.950 . S
C809 C805 1.393 . S
C809 C808 1.391 . S
C810 H800 0.950 . S
C810 C811 1.386 . S
C810 C812 1.391 . S
C811 C810 1.386 . S
C811 C815 1.393 . S
C812 H801 0.950 . S
C812 C810 1.391 . S
C812 C813 1.400 . S
C813 C807 1.491 . S
C813 C812 1.400 . S
C813 C814 1.398 . S
C814 H802 0.950 . S
C814 C813 1.398 . S
C814 C815 1.391 . S
C815 H803 0.950 . S
C815 C811 1.393 . S
C815 C814 1.391 . S
H816 C824 0.950 . S
H817 C829 0.950 . S
H818 C826 0.950 . S
H819 C828 0.950 . S
H820 C830 0.950 . S
H821 C832 0.950 . S
H822 C834 0.950 . S
H823 C835 0.950 . S
C824 H816 0.950 . S
C824 C825 1.386 . S
C824 C826 1.391 . S
C825 C824 1.386 . S
C825 C829 1.393 . S
C826 H818 0.950 . S
C826 C824 1.391 . S
C826 C827 1.400 . S
C827 C826 1.400 . S
C827 C828 1.398 . S
C827 C833 1.491 . S
C828 H819 0.950 . S
C828 C827 1.398 . S
C828 C829 1.391 . S
C829 H817 0.950 . S
C829 C825 1.393 . S
C829 C828 1.391 . S
C830 H820 0.950 . S
C830 C831 1.386 . S
C830 C832 1.391 . S
C831 C830 1.386 . S
C831 C835 1.393 . S
C832 H821 0.950 . S
C832 C830 1.391 . S
C832 C833 1.400 . S
C833 C827 1.491 . S
C833 C832 1.400 . S
C833 C834 1.398 . S
C834 H822 0.950 . S
C834 C833 1.398 . S
C834 C835 1.391 . S
C835 H823 0.950 . S
C835 C831 1.393 . S
C835 C834 1.391 . S
H836 C844 0.950 . S
H837 C849 0.950 . S
H838 C846 0.950 . S
H839 C848 0.950 . S
H840 C850 0.950 . S
H841 C852 0.950 . S
H842 C854 0.950 . S
H843 C855 0.950 . S
C844 H836 0.950 . S
C844 C845 1.386 . S
C844 C846 1.391 . S
C845 C844 1.386 . S
C845 C849 1.393 . S
C846 H838 0.950 . S
C846 C844 1.391 . S
C846 C847 1.400 . S
C847 C846 1.400 . S
C847 C848 1.398 . S
C847 C853 1.491 . S
C848 H839 0.950 . S
C848 C847 1.398 . S
C848 C849 1.391 . S
C849 H837 0.950 . S
C849 C845 1.393 . S
C849 C848 1.391 . S
C850 H840 0.950 . S
C850 C851 1.386 . S
C850 C852 1.391 . S
C851 C850 1.386 . S
C851 C855 1.393 . S
C852 H841 0.950 . S
C852 C850 1.391 . S
C852 C853 1.400 . S
C853 C847 1.491 . S
C853 C852 1.400 . S
C853 C854 1.398 . S
C854 H842 0.950 . S
C854 C853 1.398 . S
C854 C855 1.391 . S
C855 H843 0.950 . S
C855 C851 1.393 . S
C855 C854 1.391 . S
H856 C864 0.950 . S
H857 C869 0.950 . S
H858 C866 0.950 . S
H859 C868 0.950 . S
H860 C870 0.950 . S
H861 C872 0.950 . S
H862 C874 0.950 . S
H863 C875 0.950 . S
C864 H856 0.950 . S
C864 C865 1.386 1_655 S
C864 C866 1.391 . S
C865 C864 1.386 1_455 S
C865 C869 1.393 . S
C866 H858 0.950 . S
C866 C864 1.391 . S
C866 C867 1.400 1_655 S
C867 C866 1.400 1_455 S
C867 C868 1.398 . S
C867 C873 1.491 1_455 S
C868 H859 0.950 . S
C868 C867 1.398 . S
C868 C869 1.391 . S
C869 H857 0.950 . S
C869 C865 1.393 . S
C869 C868 1.391 . S
C870 H860 0.950 . S
C870 C871 1.386 1_455 S
C870 C872 1.391 . S
C871 C870 1.386 1_655 S
C871 C875 1.393 . S
C872 H861 0.950 . S
C872 C870 1.391 . S
C872 C873 1.400 1_455 S
C873 C867 1.491 1_655 S
C873 C872 1.400 1_655 S
C873 C874 1.398 . S
C874 H862 0.950 . S
C874 C873 1.398 . S
C874 C875 1.391 . S
C875 H863 0.950 . S
C875 C871 1.393 . S
C875 C874 1.391 . S
H876 C884 0.950 . S
H877 C889 0.950 . S
H878 C886 0.950 . S
H879 C888 0.950 . S
H880 C890 0.950 . S
H881 C892 0.950 . S
H882 C894 0.950 . S
H883 C895 0.950 . S
C884 H876 0.950 . S
C884 C885 1.386 . S
C884 C886 1.391 . S
C885 C884 1.386 . S
C885 C889 1.393 . S
C886 H878 0.950 . S
C886 C884 1.391 . S
C886 C887 1.400 . S
C887 C886 1.400 . S
C887 C888 1.398 . S
C887 C893 1.491 . S
C888 H879 0.950 . S
C888 C887 1.398 . S
C888 C889 1.391 . S
C889 H877 0.950 . S
C889 C885 1.393 . S
C889 C888 1.391 . S
C890 H880 0.950 . S
C890 C891 1.386 . S
C890 C892 1.391 . S
C891 C890 1.386 . S
C891 C895 1.393 . S
C892 H881 0.950 . S
C892 C890 1.391 . S
C892 C893 1.400 . S
C893 C887 1.491 . S
C893 C892 1.400 . S
C893 C894 1.398 . S
C894 H882 0.950 . S
C894 C893 1.398 . S
C894 C895 1.391 . S
C895 H883 0.950 . S
C895 C891 1.393 . S
C895 C894 1.391 . S
H896 C904 0.950 . S
H897 C909 0.950 . S
H898 C906 0.950 . S
H899 C908 0.950 . S
H900 C910 0.950 . S
H901 C912 0.950 . S
H902 C914 0.950 . S
H903 C915 0.950 . S
C904 H896 0.950 . S
C904 C905 1.386 . S
C904 C906 1.391 . S
C905 C904 1.386 . S
C905 C909 1.393 . S
C906 H898 0.950 . S
C906 C904 1.391 . S
C906 C907 1.400 . S
C907 C906 1.400 . S
C907 C908 1.398 . S
C907 C913 1.491 . S
C908 H899 0.950 . S
C908 C907 1.398 . S
C908 C909 1.391 . S
C909 H897 0.950 . S
C909 C905 1.393 . S
C909 C908 1.391 . S
C910 H900 0.950 . S
C910 C911 1.386 . S
C910 C912 1.391 . S
C911 C910 1.386 . S
C911 C915 1.393 . S
C912 H901 0.950 . S
C912 C910 1.391 . S
C912 C913 1.400 . S
C913 C907 1.491 . S
C913 C912 1.400 . S
C913 C914 1.398 . S
C914 H902 0.950 . S
C914 C913 1.398 . S
C914 C915 1.391 . S
C915 H903 0.950 . S
C915 C911 1.393 . S
C915 C914 1.391 . S
H916 C924 0.950 . S
H917 C929 0.950 . S
H918 C926 0.950 . S
H919 C928 0.950 . S
H920 C930 0.950 . S
H921 C932 0.950 . S
H922 C934 0.950 . S
H923 C935 0.950 . S
C924 H916 0.950 . S
C924 C925 1.386 . S
C924 C926 1.391 . S
C925 C924 1.386 . S
C925 C929 1.393 . S
C926 H918 0.950 . S
C926 C924 1.391 . S
C926 C927 1.400 . S
C927 C926 1.400 . S
C927 C928 1.398 . S
C927 C933 1.491 1_665 S
C928 H919 0.950 . S
C928 C927 1.398 . S
C928 C929 1.391 . S
C929 H917 0.950 . S
C929 C925 1.393 . S
C929 C928 1.391 . S
C930 H920 0.950 . S
C930 C931 1.386 . S
C930 C932 1.391 . S
C931 C930 1.386 . S
C931 C935 1.393 . S
C932 H921 0.950 . S
C932 C930 1.391 . S
C932 C933 1.400 . S
C933 C927 1.491 1_445 S
C933 C932 1.400 . S
C933 C934 1.398 . S
C934 H922 0.950 . S
C934 C933 1.398 . S
C934 C935 1.391 . S
C935 H923 0.950 . S
C935 C931 1.393 . S
C935 C934 1.391 . S
H936 C944 0.950 . S
H937 C949 0.950 . S
H938 C946 0.950 . S
H939 C948 0.950 . S
H940 C950 0.950 . S
H941 C952 0.950 . S
H942 C954 0.950 . S
H943 C955 0.950 . S
C944 H936 0.950 . S
C944 C945 1.386 . S
C944 C946 1.391 . S
C945 C944 1.386 . S
C945 C949 1.393 . S
C946 H938 0.950 . S
C946 C944 1.391 . S
C946 C947 1.400 . S
C947 C946 1.400 . S
C947 C948 1.398 . S
C947 C953 1.491 . S
C948 H939 0.950 . S
C948 C947 1.398 . S
C948 C949 1.391 . S
C949 H937 0.950 . S
C949 C945 1.393 . S
C949 C948 1.391 . S
C950 H940 0.950 . S
C950 C951 1.386 . S
C950 C952 1.391 . S
C951 C950 1.386 . S
C951 C955 1.393 . S
C952 H941 0.950 . S
C952 C950 1.391 . S
C952 C953 1.400 . S
C953 C947 1.491 . S
C953 C952 1.400 . S
C953 C954 1.398 . S
C954 H942 0.950 . S
C954 C953 1.398 . S
C954 C955 1.391 . S
C955 H943 0.950 . S
C955 C951 1.393 . S
C955 C954 1.391 . S
H956 C964 0.950 . S
H957 C969 0.950 . S
H958 C966 0.950 . S
H959 C968 0.950 . S
H960 C970 0.950 . S
H961 C972 0.950 . S
H962 C974 0.950 . S
H963 C975 0.950 . S
C964 H956 0.950 . S
C964 C965 1.386 . S
C964 C966 1.391 . S
C965 C964 1.386 . S
C965 C969 1.393 . S
C966 H958 0.950 . S
C966 C964 1.391 . S
C966 C967 1.400 . S
C967 C966 1.400 . S
C967 C968 1.398 . S
C967 C973 1.491 . S
C968 H959 0.950 . S
C968 C967 1.398 . S
C968 C969 1.391 . S
C969 H957 0.950 . S
C969 C965 1.393 . S
C969 C968 1.391 . S
C970 H960 0.950 . S
C970 C971 1.386 . S
C970 C972 1.391 . S
C971 C970 1.386 . S
C971 C975 1.393 . S
C972 H961 0.950 . S
C972 C970 1.391 . S
C972 C973 1.400 . S
C973 C967 1.491 . S
C973 C972 1.400 . S
C973 C974 1.398 . S
C974 H962 0.950 . S
C974 C973 1.398 . S
C974 C975 1.391 . S
C975 H963 0.950 . S
C975 C971 1.393 . S
C975 C974 1.391 . S
H976 C984 0.950 . S
H977 C989 0.950 . S
H978 C986 0.950 . S
H979 C988 0.950 . S
H980 C990 0.950 . S
H981 C992 0.950 . S
H982 C994 0.950 . S
H983 C995 0.950 . S
C984 H976 0.950 . S
C984 C985 1.386 . S
C984 C986 1.391 . S
C985 C984 1.386 . S
C985 C989 1.393 . S
C986 H978 0.950 . S
C986 C984 1.391 . S
C986 C987 1.400 . S
C987 C986 1.400 . S
C987 C988 1.398 . S
C987 C993 1.491 . S
C988 H979 0.950 . S
C988 C987 1.398 . S
C988 C989 1.391 . S
C989 H977 0.950 . S
C989 C985 1.393 . S
C989 C988 1.391 . S
C990 H980 0.950 . S
C990 C991 1.386 . S
C990 C992 1.391 . S
C991 C990 1.386 . S
C991 C995 1.393 . S
C992 H981 0.950 . S
C992 C990 1.391 . S
C992 C993 1.400 . S
C993 C987 1.491 . S
C993 C992 1.400 . S
C993 C994 1.398 . S
C994 H982 0.950 . S
C994 C993 1.398 . S
C994 C995 1.391 . S
C995 H983 0.950 . S
C995 C991 1.393 . S
C995 C994 1.391 . S
H996 C1004 0.950 . S
H997 C1009 0.950 . S
H998 C1006 0.950 . S
H999 C1008 0.950 . S
H1000 C1010 0.950 . S
H1001 C1012 0.950 . S
H1002 C1014 0.950 . S
H1003 C1015 0.950 . S
C1004 H996 0.950 . S
C1004 C1005 1.386 . S
C1004 C1006 1.391 . S
C1005 C1004 1.386 . S
C1005 C1009 1.393 . S
C1006 H998 0.950 . S
C1006 C1004 1.391 . S
C1006 C1007 1.400 . S
C1007 C1006 1.400 . S
C1007 C1008 1.398 . S
C1007 C1013 1.491 1_565 S
C1008 H999 0.950 . S
C1008 C1007 1.398 . S
C1008 C1009 1.391 . S
C1009 H997 0.950 . S
C1009 C1005 1.393 . S
C1009 C1008 1.391 . S
C1010 H1000 0.950 . S
C1010 C1011 1.386 . S
C1010 C1012 1.391 . S
C1011 C1010 1.386 . S
C1011 C1015 1.393 . S
C1012 H1001 0.950 . S
C1012 C1010 1.391 . S
C1012 C1013 1.400 . S
C1013 C1007 1.491 1_545 S
C1013 C1012 1.400 . S
C1013 C1014 1.398 . S
C1014 H1002 0.950 . S
C1014 C1013 1.398 . S
C1014 C1015 1.391 . S
C1015 H1003 0.950 . S
C1015 C1011 1.393 . S
C1015 C1014 1.391 . S
H1016 C1024 0.950 . S
H1017 C1029 0.950 . S
H1018 C1026 0.950 . S
H1019 C1028 0.950 . S
H1020 C1030 0.948 . S
H1021 C1032 0.958 . S
H1022 C1034 0.950 . S
H1023 C1035 0.950 . S
C1024 H1016 0.950 . S
C1024 C1025 1.386 . S
C1024 C1026 1.391 . S
C1025 C1024 1.386 . S
C1025 C1029 1.393 . S
C1026 H1018 0.950 . S
C1026 C1024 1.391 . S
C1026 C1027 1.400 . S
C1027 C1026 1.400 . S
C1027 C1028 1.398 . S
C1027 C1033 1.491 . S
C1028 H1019 0.950 . S
C1028 C1027 1.398 . S
C1028 C1029 1.391 . S
C1029 H1017 0.950 . S
C1029 C1025 1.393 . S
C1029 C1028 1.391 . S
C1030 H1020 0.948 . S
C1030 C1031 1.386 . S
C1030 C1032 1.391 . S
C1031 C1030 1.386 . S
C1031 C1035 1.393 . S
C1032 H1021 0.958 . S
C1032 C1030 1.391 . S
C1032 C1033 1.400 . S
C1033 C1027 1.491 . S
C1033 C1032 1.400 . S
C1033 C1034 1.398 . S
C1034 H1022 0.950 . S
C1034 C1033 1.398 . S
C1034 C1035 1.391 . S
C1035 H1023 0.950 . S
C1035 C1031 1.393 . S
C1035 C1034 1.391 . S
H1036 C1044 0.950 . S
H1037 C1049 0.950 . S
H1038 C1046 0.950 . S
H1039 C1048 0.950 . S
H1040 C1050 0.950 . S
H1041 C1052 0.950 . S
H1042 C1054 0.950 . S
H1043 C1055 0.950 . S
C1044 H1036 0.950 . S
C1044 C1045 1.386 . S
C1044 C1046 1.391 . S
C1045 C1044 1.386 . S
C1045 C1049 1.393 . S
C1046 H1038 0.950 . S
C1046 C1044 1.391 . S
C1046 C1047 1.400 . S
C1047 C1046 1.400 . S
C1047 C1048 1.398 . S
C1047 C1053 1.491 . S
C1048 H1039 0.950 . S
C1048 C1047 1.398 . S
C1048 C1049 1.391 . S
C1049 H1037 0.950 . S
C1049 C1045 1.393 . S
C1049 C1048 1.391 . S
C1050 H1040 0.950 . S
C1050 C1051 1.386 . S
C1050 C1052 1.391 . S
C1051 C1050 1.386 . S
C1051 C1055 1.393 . S
C1052 H1041 0.950 . S
C1052 C1050 1.391 . S
C1052 C1053 1.400 . S
C1053 C1047 1.491 . S
C1053 C1052 1.400 . S
C1053 C1054 1.398 . S
C1054 H1042 0.950 . S
C1054 C1053 1.398 . S
C1054 C1055 1.391 . S
C1055 H1043 0.950 . S
C1055 C1051 1.393 . S
C1055 C1054 1.391 . S
H1056 C1064 0.950 . S
H1057 C1069 0.950 . S
H1058 C1066 0.950 . S
H1059 C1068 0.950 . S
H1060 C1070 0.950 . S
H1061 C1072 0.950 . S
H1062 C1074 0.950 . S
H1063 C1075 0.950 . S
C1064 H1056 0.950 . S
C1064 C1065 1.386 . S
C1064 C1066 1.391 . S
C1065 C1064 1.386 . S
C1065 C1069 1.393 . S
C1066 H1058 0.950 . S
C1066 C1064 1.391 . S
C1066 C1067 1.400 . S
C1067 C1066 1.400 . S
C1067 C1068 1.398 . S
C1067 C1073 1.491 1_455 S
C1068 H1059 0.950 . S
C1068 C1067 1.398 . S
C1068 C1069 1.391 . S
C1069 H1057 0.950 . S
C1069 C1065 1.393 . S
C1069 C1068 1.391 . S
C1070 H1060 0.950 . S
C1070 C1071 1.386 . S
C1070 C1072 1.391 . S
C1071 C1070 1.386 . S
C1071 C1075 1.393 . S
C1072 H1061 0.950 . S
C1072 C1070 1.391 . S
C1072 C1073 1.400 . S
C1073 C1067 1.491 1_655 S
C1073 C1072 1.400 . S
C1073 C1074 1.398 . S
C1074 H1062 0.950 . S
C1074 C1073 1.398 . S
C1074 C1075 1.391 . S
C1075 H1063 0.950 . S
C1075 C1071 1.393 . S
C1075 C1074 1.391 . S
H1076 C1084 0.950 . S
H1077 C1089 0.950 . S
H1078 C1086 0.950 . S
H1079 C1088 0.950 . S
H1080 C1090 0.950 . S
H1081 C1092 0.950 . S
H1082 C1094 0.950 . S
H1083 C1095 0.950 . S
C1084 H1076 0.950 . S
C1084 C1085 1.386 . S
C1084 C1086 1.391 . S
C1085 C1084 1.386 . S
C1085 C1089 1.393 . S
C1086 H1078 0.950 . S
C1086 C1084 1.391 . S
C1086 C1087 1.400 . S
C1087 C1086 1.400 . S
C1087 C1088 1.398 . S
C1087 C1093 1.491 . S
C1088 H1079 0.950 . S
C1088 C1087 1.398 . S
C1088 C1089 1.391 . S
C1089 H1077 0.950 . S
C1089 C1085 1.393 . S
C1089 C1088 1.391 . S
C1090 H1080 0.950 . S
C1090 C1091 1.386 . S
C1090 C1092 1.391 . S
C1091 C1090 1.386 . S
C1091 C1095 1.393 . S
C1092 H1081 0.950 . S
C1092 C1090 1.391 . S
C1092 C1093 1.400 . S
C1093 C1087 1.491 . S
C1093 C1092 1.400 . S
C1093 C1094 1.398 . S
C1094 H1082 0.950 . S
C1094 C1093 1.398 . S
C1094 C1095 1.391 . S
C1095 H1083 0.950 . S
C1095 C1091 1.393 . S
C1095 C1094 1.391 . S
H1096 C1104 0.950 . S
H1097 C1109 0.950 . S
H1098 C1106 0.950 . S
H1099 C1108 0.950 . S
H1100 C1110 0.950 . S
H1101 C1112 0.950 . S
H1102 C1114 0.950 . S
H1103 C1115 0.950 . S
C1104 H1096 0.950 . S
C1104 C1105 1.386 . S
C1104 C1106 1.391 . S
C1105 C1104 1.386 . S
C1105 C1109 1.393 . S
C1106 H1098 0.950 . S
C1106 C1104 1.391 . S
C1106 C1107 1.400 . S
C1107 C1106 1.400 . S
C1107 C1108 1.398 . S
C1107 C1113 1.491 . S
C1108 H1099 0.950 . S
C1108 C1107 1.398 . S
C1108 C1109 1.391 . S
C1109 H1097 0.950 . S
C1109 C1105 1.393 . S
C1109 C1108 1.391 . S
C1110 H1100 0.950 . S
C1110 C1111 1.386 . S
C1110 C1112 1.391 . S
C1111 C1110 1.386 . S
C1111 C1115 1.393 . S
C1112 H1101 0.950 . S
C1112 C1110 1.391 . S
C1112 C1113 1.400 . S
C1113 C1107 1.491 . S
C1113 C1112 1.400 . S
C1113 C1114 1.398 . S
C1114 H1102 0.950 . S
C1114 C1113 1.398 . S
C1114 C1115 1.391 . S
C1115 H1103 0.950 . S
C1115 C1111 1.393 . S
C1115 C1114 1.391 . S
H1116 C1124 0.950 . S
H1117 C1129 0.950 . S
H1118 C1126 0.950 . S
H1119 C1128 0.950 . S
H1120 C1130 0.950 . S
H1121 C1132 0.950 . S
H1122 C1134 0.950 . S
H1123 C1135 0.950 . S
C1124 H1116 0.950 . S
C1124 C1125 1.386 . S
C1124 C1126 1.391 . S
C1125 C1124 1.386 . S
C1125 C1129 1.393 . S
C1126 H1118 0.950 . S
C1126 C1124 1.391 . S
C1126 C1127 1.400 . S
C1127 C1126 1.400 . S
C1127 C1128 1.398 . S
C1127 C1133 1.491 1_645 S
C1128 H1119 0.950 . S
C1128 C1127 1.398 . S
C1128 C1129 1.391 . S
C1129 H1117 0.950 . S
C1129 C1125 1.393 . S
C1129 C1128 1.391 . S
C1130 H1120 0.950 . S
C1130 C1131 1.386 . S
C1130 C1132 1.391 . S
C1131 C1130 1.386 . S
C1131 C1135 1.393 . S
C1132 H1121 0.950 . S
C1132 C1130 1.391 . S
C1132 C1133 1.400 . S
C1133 C1127 1.491 1_465 S
C1133 C1132 1.400 . S
C1133 C1134 1.398 . S
C1134 H1122 0.950 . S
C1134 C1133 1.398 . S
C1134 C1135 1.391 . S
C1135 H1123 0.950 . S
C1135 C1131 1.393 . S
C1135 C1134 1.391 . S
H1136 C1144 0.950 . S
H1137 C1149 0.950 . S
H1138 C1146 0.950 . S
H1139 C1148 0.950 . S
H1140 C1150 0.950 . S
H1141 C1152 0.950 . S
H1142 C1154 0.950 . S
H1143 C1155 0.950 . S
C1144 H1136 0.950 . S
C1144 C1145 1.386 . S
C1144 C1146 1.391 . S
C1145 C1144 1.386 . S
C1145 C1149 1.393 . S
C1146 H1138 0.950 . S
C1146 C1144 1.391 . S
C1146 C1147 1.400 . S
C1147 C1146 1.400 . S
C1147 C1148 1.398 . S
C1147 C1153 1.491 . S
C1148 H1139 0.950 . S
C1148 C1147 1.398 . S
C1148 C1149 1.391 . S
C1149 H1137 0.950 . S
C1149 C1145 1.393 . S
C1149 C1148 1.391 . S
C1150 H1140 0.950 . S
C1150 C1151 1.386 . S
C1150 C1152 1.391 . S
C1151 C1150 1.386 . S
C1151 C1155 1.393 . S
C1152 H1141 0.950 . S
C1152 C1150 1.391 . S
C1152 C1153 1.400 . S
C1153 C1147 1.491 . S
C1153 C1152 1.400 . S
C1153 C1154 1.398 . S
C1154 H1142 0.950 . S
C1154 C1153 1.398 . S
C1154 C1155 1.391 . S
C1155 H1143 0.950 . S
C1155 C1151 1.393 . S
C1155 C1154 1.391 . S
H1156 C1164 0.950 . S
H1157 C1169 0.950 1_545 S
H1158 C1166 0.950 . S
H1159 C1168 0.950 . S
H1160 C1170 0.950 . S
H1161 C1172 0.950 . S
H1162 C1174 0.950 . S
H1163 C1175 0.950 1_565 S
C1164 H1156 0.950 . S
C1164 C1165 1.386 . S
C1164 C1166 1.391 . S
C1165 C1164 1.386 . S
C1165 C1169 1.393 . S
C1166 H1158 0.950 . S
C1166 C1164 1.391 . S
C1166 C1167 1.400 . S
C1167 C1166 1.400 . S
C1167 C1168 1.398 1_565 S
C1167 C1173 1.491 1_565 S
C1168 H1159 0.950 . S
C1168 C1167 1.398 1_545 S
C1168 C1169 1.391 1_545 S
C1169 H1157 0.950 1_565 S
C1169 C1165 1.393 . S
C1169 C1168 1.391 1_565 S
C1170 H1160 0.950 . S
C1170 C1171 1.386 . S
C1170 C1172 1.391 . S
C1171 C1170 1.386 . S
C1171 C1175 1.393 . S
C1172 H1161 0.950 . S
C1172 C1170 1.391 . S
C1172 C1173 1.400 . S
C1173 C1167 1.491 1_545 S
C1173 C1172 1.400 . S
C1173 C1174 1.398 1_545 S
C1174 H1162 0.950 . S
C1174 C1173 1.398 1_565 S
C1174 C1175 1.391 1_565 S
C1175 H1163 0.950 1_545 S
C1175 C1171 1.393 . S
C1175 C1174 1.391 1_545 S
C545 C45 1.104 . S
C551 C100 1.093 . S
C565 C41 1.106 . S
C571 C161 1.085 . S
C585 C234 1.086 . S
C591 C112 1.074 . S
C605 C175 1.104 . S
C611 C228 1.100 . S
C625 C246 1.082 . S
C631 C301 1.104 . S
C645 C362 1.087 . S
C651 C242 1.107 . S
C665 C313 1.081 . S
C671 C33 1.106 . S
C685 C376 1.105 . S
C691 C27 1.101 . S
C705 C368 1.106 . S
C711 C447 1.081 . S
C725 C443 1.077 . S
C731 C295 1.103 . S
C745 C502 1.076 . S
C751 C380 1.102 . S
C765 C496 1.076 . S
C771 C309 1.101 . S
C785 C514 1.095 . S
C791 C167 1.103 . S
C805 C94 1.075 . S
C811 C510 1.085 . S
C825 C435 1.075 . S
C831 C179 1.090 . S
C845 C429 1.107 . S
C851 C108 1.093 . S
C865 C35 1.885 . S
C871 C24 1.897 . S
C885 C91 1.897 . S
C891 C102 1.885 1_565 S
C905 C158 1.893 1_545 S
C911 C169 1.888 . S
C925 C225 1.891 . S
C931 C236 1.890 . S
C945 C292 1.888 1_545 S
C951 C303 1.893 . S
C965 C359 1.887 . S
C971 C370 1.894 1_565 S
C985 C437 1.885 . S
C991 C426 1.897 . S
C1005 C493 1.897 . S
C1011 C504 1.886 . S
C1025 C508 1.306 . S
C1031 C48 1.314 . S
C1045 C39 1.305 . S
C1051 C517 1.322 . S
C1065 C115 1.308 . S
C1071 C173 1.316 . S
C1085 C441 1.324 . S
C1091 C249 1.299 . S
C1105 C240 1.303 . S
C1111 C450 1.324 . S
C1125 C374 1.311 . S
C1131 C316 1.313 . S
C1145 C383 1.323 . S
C1151 C307 1.302 . S
C1165 C182 1.302 . S
C1171 C106 1.323 . S
