# Generated by pormake.
# Topology wna, (6)-cn, num edge types: 1
# Building blocks:
#     Node 0, Type 0, BuildingBlock: INOVEN_clean_sbu_0, # of connection points: 6
#     Node 1, Type 0, BuildingBlock: INOVEN_clean_sbu_0, # of connection points: 6
#     Node 2, Type 0, BuildingBlock: INOVEN_clean_sbu_0, # of connection points: 6
#     Node 3, Type 0, BuildingBlock: INOVEN_clean_sbu_0, # of connection points: 6
#     Node 4, Type 0, BuildingBlock: INOVEN_clean_sbu_0, # of connection points: 6
#     Node 5, Type 0, BuildingBlock: INOVEN_clean_sbu_0, # of connection points: 6
#     Node 6, Type 0, BuildingBlock: INOVEN_clean_sbu_0, # of connection points: 6
#     Node 7, Type 0, BuildingBlock: INOVEN_clean_sbu_0, # of connection points: 6
#     Node 8, Type 0, BuildingBlock: INOVEN_clean_sbu_0, # of connection points: 6
#     Node 9, Type 0, BuildingBlock: INOVEN_clean_sbu_0, # of connection points: 6
#     Node 10, Type 0, BuildingBlock: INOVEN_clean_sbu_0, # of connection points: 6
#     Node 11, Type 0, BuildingBlock: INOVEN_clean_sbu_0, # of connection points: 6
#     Node 12, Type 0, BuildingBlock: INOVEN_clean_sbu_0, # of connection points: 6
#     Node 13, Type 0, BuildingBlock: INOVEN_clean_sbu_0, # of connection points: 6
#     Node 14, Type 0, BuildingBlock: INOVEN_clean_sbu_0, # of connection points: 6
#     Node 15, Type 0, BuildingBlock: INOVEN_clean_sbu_0, # of connection points: 6
#     Node 16, Type 0, BuildingBlock: INOVEN_clean_sbu_0, # of connection points: 6
#     Node 17, Type 0, BuildingBlock: INOVEN_clean_sbu_0, # of connection points: 6
#     Node 18, Type 0, BuildingBlock: INOVEN_clean_sbu_0, # of connection points: 6
#     Node 19, Type 0, BuildingBlock: INOVEN_clean_sbu_0, # of connection points: 6
#     Node 20, Type 0, BuildingBlock: INOVEN_clean_sbu_0, # of connection points: 6
#     Node 21, Type 0, BuildingBlock: INOVEN_clean_sbu_0, # of connection points: 6
#     Node 22, Type 0, BuildingBlock: INOVEN_clean_sbu_0, # of connection points: 6
#     Node 23, Type 0, BuildingBlock: INOVEN_clean_sbu_0, # of connection points: 6
#     Node 24, Type 0, BuildingBlock: INOVEN_clean_sbu_0, # of connection points: 6
#     Node 25, Type 0, BuildingBlock: INOVEN_clean_sbu_0, # of connection points: 6
#     Node 26, Type 0, BuildingBlock: INOVEN_clean_sbu_0, # of connection points: 6
#     Node 27, Type 0, BuildingBlock: INOVEN_clean_sbu_0, # of connection points: 6
#     Node 28, Type 0, BuildingBlock: INOVEN_clean_sbu_0, # of connection points: 6
#     Node 29, Type 0, BuildingBlock: INOVEN_clean_sbu_0, # of connection points: 6
#     Node 30, Type 0, BuildingBlock: INOVEN_clean_sbu_0, # of connection points: 6
#     Node 31, Type 0, BuildingBlock: INOVEN_clean_sbu_0, # of connection points: 6
#     Node 32, Type 0, BuildingBlock: INOVEN_clean_sbu_0, # of connection points: 6
#     Node 33, Type 0, BuildingBlock: INOVEN_clean_sbu_0, # of connection points: 6
#     Node 34, Type 0, BuildingBlock: INOVEN_clean_sbu_0, # of connection points: 6
#     Node 35, Type 0, BuildingBlock: INOVEN_clean_sbu_0, # of connection points: 6
#     Edge 36, Type (0, 0), BuildingBlock: KIFKEQ_clean_linker_1, # of connection points: 2
#     Edge 37, Type (0, 0), BuildingBlock: KIFKEQ_clean_linker_1, # of connection points: 2
#     Edge 38, Type (0, 0), BuildingBlock: KIFKEQ_clean_linker_1, # of connection points: 2
#     Edge 39, Type (0, 0), BuildingBlock: KIFKEQ_clean_linker_1, # of connection points: 2
#     Edge 40, Type (0, 0), BuildingBlock: KIFKEQ_clean_linker_1, # of connection points: 2
#     Edge 41, Type (0, 0), BuildingBlock: KIFKEQ_clean_linker_1, # of connection points: 2
#     Edge 42, Type (0, 0), BuildingBlock: KIFKEQ_clean_linker_1, # of connection points: 2
#     Edge 43, Type (0, 0), BuildingBlock: KIFKEQ_clean_linker_1, # of connection points: 2
#     Edge 44, Type (0, 0), BuildingBlock: KIFKEQ_clean_linker_1, # of connection points: 2
#     Edge 45, Type (0, 0), BuildingBlock: KIFKEQ_clean_linker_1, # of connection points: 2
#     Edge 46, Type (0, 0), BuildingBlock: KIFKEQ_clean_linker_1, # of connection points: 2
#     Edge 47, Type (0, 0), BuildingBlock: KIFKEQ_clean_linker_1, # of connection points: 2
#     Edge 48, Type (0, 0), BuildingBlock: KIFKEQ_clean_linker_1, # of connection points: 2
#     Edge 49, Type (0, 0), BuildingBlock: KIFKEQ_clean_linker_1, # of connection points: 2
#     Edge 50, Type (0, 0), BuildingBlock: KIFKEQ_clean_linker_1, # of connection points: 2
#     Edge 51, Type (0, 0), BuildingBlock: KIFKEQ_clean_linker_1, # of connection points: 2
#     Edge 52, Type (0, 0), BuildingBlock: KIFKEQ_clean_linker_1, # of connection points: 2
#     Edge 53, Type (0, 0), BuildingBlock: KIFKEQ_clean_linker_1, # of connection points: 2
#     Edge 54, Type (0, 0), BuildingBlock: KIFKEQ_clean_linker_1, # of connection points: 2
#     Edge 55, Type (0, 0), BuildingBlock: KIFKEQ_clean_linker_1, # of connection points: 2
#     Edge 56, Type (0, 0), BuildingBlock: KIFKEQ_clean_linker_1, # of connection points: 2
#     Edge 57, Type (0, 0), BuildingBlock: KIFKEQ_clean_linker_1, # of connection points: 2
#     Edge 58, Type (0, 0), BuildingBlock: KIFKEQ_clean_linker_1, # of connection points: 2
#     Edge 59, Type (0, 0), BuildingBlock: KIFKEQ_clean_linker_1, # of connection points: 2
#     Edge 60, Type (0, 0), BuildingBlock: KIFKEQ_clean_linker_1, # of connection points: 2
#     Edge 61, Type (0, 0), BuildingBlock: KIFKEQ_clean_linker_1, # of connection points: 2
#     Edge 62, Type (0, 0), BuildingBlock: KIFKEQ_clean_linker_1, # of connection points: 2
#     Edge 63, Type (0, 0), BuildingBlock: KIFKEQ_clean_linker_1, # of connection points: 2
#     Edge 64, Type (0, 0), BuildingBlock: KIFKEQ_clean_linker_1, # of connection points: 2
#     Edge 65, Type (0, 0), BuildingBlock: KIFKEQ_clean_linker_1, # of connection points: 2
#     Edge 66, Type (0, 0), BuildingBlock: KIFKEQ_clean_linker_1, # of connection points: 2
#     Edge 67, Type (0, 0), BuildingBlock: KIFKEQ_clean_linker_1, # of connection points: 2
#     Edge 68, Type (0, 0), BuildingBlock: KIFKEQ_clean_linker_1, # of connection points: 2
#     Edge 69, Type (0, 0), BuildingBlock: KIFKEQ_clean_linker_1, # of connection points: 2
#     Edge 70, Type (0, 0), BuildingBlock: KIFKEQ_clean_linker_1, # of connection points: 2
#     Edge 71, Type (0, 0), BuildingBlock: KIFKEQ_clean_linker_1, # of connection points: 2
#     Edge 72, Type (0, 0), BuildingBlock: KIFKEQ_clean_linker_1, # of connection points: 2
#     Edge 73, Type (0, 0), BuildingBlock: KIFKEQ_clean_linker_1, # of connection points: 2
#     Edge 74, Type (0, 0), BuildingBlock: KIFKEQ_clean_linker_1, # of connection points: 2
#     Edge 75, Type (0, 0), BuildingBlock: KIFKEQ_clean_linker_1, # of connection points: 2
#     Edge 76, Type (0, 0), BuildingBlock: KIFKEQ_clean_linker_1, # of connection points: 2
#     Edge 77, Type (0, 0), BuildingBlock: KIFKEQ_clean_linker_1, # of connection points: 2
#     Edge 78, Type (0, 0), BuildingBlock: KIFKEQ_clean_linker_1, # of connection points: 2
#     Edge 79, Type (0, 0), BuildingBlock: KIFKEQ_clean_linker_1, # of connection points: 2
#     Edge 80, Type (0, 0), BuildingBlock: KIFKEQ_clean_linker_1, # of connection points: 2
#     Edge 81, Type (0, 0), BuildingBlock: KIFKEQ_clean_linker_1, # of connection points: 2
#     Edge 82, Type (0, 0), BuildingBlock: KIFKEQ_clean_linker_1, # of connection points: 2
#     Edge 83, Type (0, 0), BuildingBlock: KIFKEQ_clean_linker_1, # of connection points: 2
#     Edge 84, Type (0, 0), BuildingBlock: KIFKEQ_clean_linker_1, # of connection points: 2
#     Edge 85, Type (0, 0), BuildingBlock: KIFKEQ_clean_linker_1, # of connection points: 2
#     Edge 86, Type (0, 0), BuildingBlock: KIFKEQ_clean_linker_1, # of connection points: 2
#     Edge 87, Type (0, 0), BuildingBlock: KIFKEQ_clean_linker_1, # of connection points: 2
#     Edge 88, Type (0, 0), BuildingBlock: KIFKEQ_clean_linker_1, # of connection points: 2
#     Edge 89, Type (0, 0), BuildingBlock: KIFKEQ_clean_linker_1, # of connection points: 2
#     Edge 90, Type (0, 0), BuildingBlock: KIFKEQ_clean_linker_1, # of connection points: 2
#     Edge 91, Type (0, 0), BuildingBlock: KIFKEQ_clean_linker_1, # of connection points: 2
#     Edge 92, Type (0, 0), BuildingBlock: KIFKEQ_clean_linker_1, # of connection points: 2
#     Edge 93, Type (0, 0), BuildingBlock: KIFKEQ_clean_linker_1, # of connection points: 2
#     Edge 94, Type (0, 0), BuildingBlock: KIFKEQ_clean_linker_1, # of connection points: 2
#     Edge 95, Type (0, 0), BuildingBlock: KIFKEQ_clean_linker_1, # of connection points: 2
#     Edge 96, Type (0, 0), BuildingBlock: KIFKEQ_clean_linker_1, # of connection points: 2
#     Edge 97, Type (0, 0), BuildingBlock: KIFKEQ_clean_linker_1, # of connection points: 2
#     Edge 98, Type (0, 0), BuildingBlock: KIFKEQ_clean_linker_1, # of connection points: 2
#     Edge 99, Type (0, 0), BuildingBlock: KIFKEQ_clean_linker_1, # of connection points: 2
#     Edge 100, Type (0, 0), BuildingBlock: KIFKEQ_clean_linker_1, # of connection points: 2
#     Edge 101, Type (0, 0), BuildingBlock: KIFKEQ_clean_linker_1, # of connection points: 2
#     Edge 102, Type (0, 0), BuildingBlock: KIFKEQ_clean_linker_1, # of connection points: 2
#     Edge 103, Type (0, 0), BuildingBlock: KIFKEQ_clean_linker_1, # of connection points: 2
#     Edge 104, Type (0, 0), BuildingBlock: KIFKEQ_clean_linker_1, # of connection points: 2
#     Edge 105, Type (0, 0), BuildingBlock: KIFKEQ_clean_linker_1, # of connection points: 2
#     Edge 106, Type (0, 0), BuildingBlock: KIFKEQ_clean_linker_1, # of connection points: 2
#     Edge 107, Type (0, 0), BuildingBlock: KIFKEQ_clean_linker_1, # of connection points: 2
#     Edge 108, Type (0, 0), BuildingBlock: KIFKEQ_clean_linker_1, # of connection points: 2
#     Edge 109, Type (0, 0), BuildingBlock: KIFKEQ_clean_linker_1, # of connection points: 2
#     Edge 110, Type (0, 0), BuildingBlock: KIFKEQ_clean_linker_1, # of connection points: 2
#     Edge 111, Type (0, 0), BuildingBlock: KIFKEQ_clean_linker_1, # of connection points: 2
#     Edge 112, Type (0, 0), BuildingBlock: KIFKEQ_clean_linker_1, # of connection points: 2
#     Edge 113, Type (0, 0), BuildingBlock: KIFKEQ_clean_linker_1, # of connection points: 2
#     Edge 114, Type (0, 0), BuildingBlock: KIFKEQ_clean_linker_1, # of connection points: 2
#     Edge 115, Type (0, 0), BuildingBlock: KIFKEQ_clean_linker_1, # of connection points: 2
#     Edge 116, Type (0, 0), BuildingBlock: KIFKEQ_clean_linker_1, # of connection points: 2
#     Edge 117, Type (0, 0), BuildingBlock: KIFKEQ_clean_linker_1, # of connection points: 2
#     Edge 118, Type (0, 0), BuildingBlock: KIFKEQ_clean_linker_1, # of connection points: 2
#     Edge 119, Type (0, 0), BuildingBlock: KIFKEQ_clean_linker_1, # of connection points: 2
#     Edge 120, Type (0, 0), BuildingBlock: KIFKEQ_clean_linker_1, # of connection points: 2
#     Edge 121, Type (0, 0), BuildingBlock: KIFKEQ_clean_linker_1, # of connection points: 2
#     Edge 122, Type (0, 0), BuildingBlock: KIFKEQ_clean_linker_1, # of connection points: 2
#     Edge 123, Type (0, 0), BuildingBlock: KIFKEQ_clean_linker_1, # of connection points: 2
#     Edge 124, Type (0, 0), BuildingBlock: KIFKEQ_clean_linker_1, # of connection points: 2
#     Edge 125, Type (0, 0), BuildingBlock: KIFKEQ_clean_linker_1, # of connection points: 2
#     Edge 126, Type (0, 0), BuildingBlock: KIFKEQ_clean_linker_1, # of connection points: 2
#     Edge 127, Type (0, 0), BuildingBlock: KIFKEQ_clean_linker_1, # of connection points: 2
#     Edge 128, Type (0, 0), BuildingBlock: KIFKEQ_clean_linker_1, # of connection points: 2
#     Edge 129, Type (0, 0), BuildingBlock: KIFKEQ_clean_linker_1, # of connection points: 2
#     Edge 130, Type (0, 0), BuildingBlock: KIFKEQ_clean_linker_1, # of connection points: 2
#     Edge 131, Type (0, 0), BuildingBlock: KIFKEQ_clean_linker_1, # of connection points: 2
#     Edge 132, Type (0, 0), BuildingBlock: KIFKEQ_clean_linker_1, # of connection points: 2
#     Edge 133, Type (0, 0), BuildingBlock: KIFKEQ_clean_linker_1, # of connection points: 2
#     Edge 134, Type (0, 0), BuildingBlock: KIFKEQ_clean_linker_1, # of connection points: 2
#     Edge 135, Type (0, 0), BuildingBlock: KIFKEQ_clean_linker_1, # of connection points: 2
#     Edge 136, Type (0, 0), BuildingBlock: KIFKEQ_clean_linker_1, # of connection points: 2
#     Edge 137, Type (0, 0), BuildingBlock: KIFKEQ_clean_linker_1, # of connection points: 2
#     Edge 138, Type (0, 0), BuildingBlock: KIFKEQ_clean_linker_1, # of connection points: 2
#     Edge 139, Type (0, 0), BuildingBlock: KIFKEQ_clean_linker_1, # of connection points: 2
#     Edge 140, Type (0, 0), BuildingBlock: KIFKEQ_clean_linker_1, # of connection points: 2
#     Edge 141, Type (0, 0), BuildingBlock: KIFKEQ_clean_linker_1, # of connection points: 2
#     Edge 142, Type (0, 0), BuildingBlock: KIFKEQ_clean_linker_1, # of connection points: 2
#     Edge 143, Type (0, 0), BuildingBlock: KIFKEQ_clean_linker_1, # of connection points: 2
# Relax obj value: 0.156
# Max RMSD: 0.228
# Mean RMSD: 0.210
data_MOF--net-wna--node1-INOVEN_clean_sbu_0--edge1-KIFKEQ_clean_linker_1
_symmetry_space_group_name_H-M    P1
_symmetry_Int_Tables_number       1
_symmetry_cell_setting            triclinic
loop_
_symmetry_equiv_pos_as_xyz
'x, y, z'
_cell_length_a     41.736283
_cell_length_b     41.758237
_cell_length_c     153.03148
_cell_angle_alpha  89.988179
_cell_angle_beta   90.003405
_cell_angle_gamma 120.06045
loop_
_atom_site_label
_atom_site_type_symbol
_atom_site_fract_x
_atom_site_fract_y
_atom_site_fract_z
_atom_type_partial_charge
Gd0 Gd 0.11548 0.25378 0.17079 0.0
Gd1 Gd 0.12256 0.24518 0.19133 0.0
C2 C 0.19812 0.29701 0.17996 0.0
C3 C 0.11149 0.27816 0.15542 0.0
C4 C 0.12829 0.29189 0.14665 0.0
C5 C 0.1352 0.26985 0.14085 0.0
C6 C 0.13256 0.32548 0.14355 0.0
C7 C 0.14742 0.31346 0.12888 0.0
C8 C 0.14207 0.33617 0.13481 0.0
C9 C 0.14474 0.28055 0.13209 0.0
C10 C 0.1257 0.19694 0.1754 0.0
C11 C 0.04479 0.19308 0.18139 0.0
C12 C 0.12694 0.22342 0.20694 0.0
C13 C 0.10864 0.21672 0.21563 0.0
C14 C 0.09921 0.24169 0.21937 0.0
C15 C 0.10158 0.18519 0.22043 0.0
C16 C 0.07701 0.20407 0.23267 0.0
C17 C 0.08597 0.1789 0.22882 0.0
C18 C 0.08361 0.23545 0.22778 0.0
C19 C 0.0949 0.29177 0.18783 0.0
O20 O 0.17773 0.29111 0.17279 0.0
O21 O 0.18312 0.2814 0.18759 0.0
O22 O 0.09883 0.24323 0.15724 0.0
O23 O 0.12539 0.29985 0.16225 0.0
O24 O 0.10905 0.19801 0.16832 0.0
O25 O 0.13992 0.22798 0.17926 0.0
O26 O 0.06734 0.19597 0.18782 0.0
O27 O 0.05577 0.2175 0.17491 0.0
O28 O 0.14669 0.25785 0.20429 0.0
O29 O 0.10791 0.20048 0.20062 0.0
O30 O 0.10188 0.28455 0.19559 0.0
O31 O 0.10387 0.27434 0.18265 0.0
H32 H 0.13186 0.24361 0.14298 0.0
H33 H 0.12713 0.34291 0.14783 0.0
H34 H 0.14453 0.36202 0.13266 0.0
H35 H 0.14835 0.26213 0.12775 0.0
H36 H 0.10428 0.26628 0.21584 0.0
H37 H 0.10846 0.16543 0.21771 0.0
H38 H 0.08075 0.15409 0.23226 0.0
H39 H 0.07749 0.2557 0.23051 0.0
Gd40 Gd 0.76864 0.86782 0.17091 0.0
Gd41 Gd 0.77371 0.87956 0.1903 0.0
C42 C 0.7243 0.90598 0.17979 0.0
C43 C 0.7467 0.84208 0.15523 0.0
C44 C 0.7311 0.84354 0.1466 0.0
C45 C 0.74363 0.87681 0.14197 0.0
C46 C 0.70646 0.81015 0.14245 0.0
C47 C 0.70874 0.84278 0.12898 0.0
C48 C 0.69545 0.80971 0.13378 0.0
C49 C 0.73249 0.87643 0.13327 0.0
C50 C 0.82445 0.93561 0.17548 0.0
C51 C 0.82989 0.8577 0.1809 0.0
C52 C 0.79195 0.89601 0.20667 0.0
C53 C 0.79932 0.88209 0.215 0.0
C54 C 0.77045 0.85411 0.21996 0.0
C55 C 0.83532 0.89956 0.2185 0.0
C56 C 0.81331 0.86236 0.23184 0.0
C57 C 0.84225 0.88979 0.22677 0.0
C58 C 0.77736 0.84437 0.22825 0.0
C59 C 0.72226 0.80908 0.18517 0.0
O60 O 0.72716 0.88769 0.17302 0.0
O61 O 0.74346 0.91032 0.18702 0.0
O62 O 0.78027 0.86829 0.15713 0.0
O63 O 0.72491 0.82971 0.16207 0.0
O64 O 0.82477 0.91689 0.16876 0.0
O65 O 0.79294 0.91906 0.17916 0.0
O66 O 0.82394 0.87389 0.18762 0.0
O67 O 0.80749 0.84663 0.17406 0.0
O68 O 0.75792 0.88014 0.20379 0.0
O69 O 0.81613 0.90561 0.20035 0.0
O70 O 0.71841 0.82644 0.19171 0.0
O71 O 0.75401 0.82913 0.18197 0.0
H72 H 0.76279 0.90302 0.14498 0.0
H73 H 0.6968 0.78406 0.14582 0.0
H74 H 0.67768 0.78316 0.13074 0.0
H75 H 0.74289 0.90255 0.12989 0.0
H76 H 0.74229 0.84015 0.21753 0.0
H77 H 0.8581 0.92162 0.21492 0.0
H78 H 0.87021 0.90469 0.22931 0.0
H79 H 0.7544 0.82278 0.23187 0.0
Gd80 Gd 0.15484 0.90677 0.17119 0.0
Gd81 Gd 0.14329 0.89942 0.19047 0.0
C82 C 0.11613 0.82367 0.17993 0.0
C83 C 0.18006 0.91038 0.15545 0.0
C84 C 0.17608 0.89284 0.14674 0.0
C85 C 0.14627 0.88521 0.14115 0.0
C86 C 0.20527 0.88879 0.14343 0.0
C87 C 0.17639 0.87264 0.12898 0.0
C88 C 0.20539 0.8787 0.13469 0.0
C89 C 0.14643 0.87524 0.1324 0.0
C90 C 0.08709 0.89458 0.17573 0.0
C91 C 0.16451 0.97767 0.18127 0.0
C92 C 0.12755 0.90084 0.20691 0.0
C93 C 0.14126 0.92241 0.21519 0.0
C94 C 0.17307 0.92694 0.2195 0.0
C95 C 0.12014 0.93579 0.21928 0.0
C96 C 0.16143 0.95654 0.23196 0.0
C97 C 0.13009 0.95267 0.22753 0.0
C98 C 0.18301 0.94378 0.22777 0.0
C99 C 0.21374 0.91885 0.1852 0.0
O100 O 0.13425 0.84502 0.17315 0.0
O101 O 0.11217 0.83841 0.18721 0.0
O102 O 0.15637 0.92088 0.15756 0.0
O103 O 0.19095 0.89877 0.16218 0.0
O104 O 0.10584 0.91367 0.16902 0.0
O105 O 0.10344 0.87942 0.17939 0.0
O106 O 0.14841 0.95523 0.18795 0.0
O107 O 0.17599 0.96675 0.17444 0.0
O108 O 0.14447 0.88387 0.20395 0.0
O109 O 0.11672 0.91453 0.20065 0.0
O110 O 0.19608 0.89633 0.19153 0.0
O111 O 0.19377 0.93093 0.18219 0.0
H112 H 0.12335 0.8882 0.14345 0.0
H113 H 0.2289 0.89503 0.14751 0.0
H114 H 0.22912 0.87736 0.1323 0.0
H115 H 0.12331 0.87021 0.12826 0.0
H116 H 0.18998 0.91687 0.21657 0.0
H117 H 0.09521 0.93228 0.2162 0.0
H118 H 0.11241 0.96159 0.23055 0.0
H119 H 0.20761 0.94668 0.23089 0.0
Gd120 Gd 0.2601 0.11088 0.35505 0.0
Gd121 Gd 0.25272 0.11619 0.33573 0.0
C122 C 0.30284 0.19252 0.34582 0.0
C123 C 0.28303 0.10832 0.37072 0.0
C124 C 0.29734 0.12571 0.37942 0.0
C125 C 0.27549 0.13281 0.38525 0.0
C126 C 0.33098 0.12993 0.38248 0.0
C127 C 0.31928 0.14499 0.39717 0.0
C128 C 0.34187 0.13953 0.39121 0.0
C129 C 0.28637 0.14241 0.39399 0.0
C130 C 0.20389 0.12283 0.35083 0.0
C131 C 0.19765 0.03894 0.3454 0.0
C132 C 0.23358 0.11377 0.31941 0.0
C133 C 0.22711 0.09304 0.31103 0.0
C134 C 0.2566 0.1002 0.30538 0.0
C135 C 0.1908 0.06869 0.30816 0.0
C136 C 0.21351 0.06018 0.2941 0.0
C137 C 0.1841 0.05243 0.29984 0.0
C138 C 0.2499 0.08391 0.29705 0.0
C139 C 0.30502 0.09794 0.3406 0.0
O140 O 0.30285 0.17183 0.35241 0.0
O141 O 0.28076 0.17698 0.33903 0.0
O142 O 0.24869 0.09785 0.36876 0.0
O143 O 0.305 0.11963 0.3639 0.0
O144 O 0.20451 0.10467 0.35763 0.0
O145 O 0.23485 0.13728 0.34695 0.0
O146 O 0.20252 0.06092 0.33873 0.0
O147 O 0.22119 0.05047 0.35203 0.0
O148 O 0.26759 0.13354 0.32224 0.0
O149 O 0.20982 0.09786 0.32577 0.0
O150 O 0.3082 0.11893 0.33406 0.0
O151 O 0.27355 0.08612 0.34396 0.0
H152 H 0.24919 0.12946 0.38316 0.0
H153 H 0.34826 0.1243 0.3782 0.0
H154 H 0.36772 0.14191 0.39334 0.0
H155 H 0.26802 0.14608 0.39835 0.0
H156 H 0.28493 0.11921 0.30728 0.0
H157 H 0.16737 0.06283 0.31228 0.0
H158 H 0.15572 0.03391 0.29789 0.0
H159 H 0.27331 0.09101 0.29282 0.0
Gd160 Gd 0.91258 0.15201 0.3549 0.0
Gd161 Gd 0.90741 0.13927 0.33555 0.0
C162 C 0.83094 0.11336 0.34562 0.0
C163 C 0.91494 0.17722 0.37061 0.0
C164 C 0.89747 0.17279 0.37938 0.0
C165 C 0.89968 0.14968 0.38577 0.0
C166 C 0.88363 0.19596 0.38189 0.0
C167 C 0.87688 0.17473 0.39707 0.0
C168 C 0.87332 0.1968 0.3906 0.0
C169 C 0.8895 0.15059 0.39446 0.0
C170 C 0.90023 0.08374 0.35068 0.0
C171 C 0.98461 0.16156 0.34531 0.0
C172 C 0.91031 0.12253 0.31925 0.0
C173 C 0.93194 0.1366 0.31096 0.0
C174 C 0.92156 0.15397 0.30458 0.0
C175 C 0.96058 0.12932 0.30892 0.0
C176 C 0.9671 0.15542 0.29425 0.0
C177 C 0.97795 0.13867 0.30071 0.0
C178 C 0.93895 0.16337 0.29637 0.0
C179 C 0.92561 0.20978 0.34041 0.0
O180 O 0.85169 0.13392 0.35223 0.0
O181 O 0.84643 0.10685 0.33881 0.0
O182 O 0.92714 0.15487 0.36854 0.0
O183 O 0.90226 0.18676 0.36385 0.0
O184 O 0.9181 0.10228 0.35753 0.0
O185 O 0.88606 0.10043 0.34678 0.0
O186 O 0.9627 0.14447 0.33861 0.0
O187 O 0.97304 0.17366 0.3519 0.0
O188 O 0.89133 0.13776 0.32197 0.0
O189 O 0.92495 0.11366 0.3257 0.0
O190 O 0.90473 0.19195 0.33385 0.0
O191 O 0.93742 0.1902 0.34379 0.0
H192 H 0.91077 0.13188 0.38415 0.0
H193 H 0.882 0.21449 0.37719 0.0
H194 H 0.86314 0.21531 0.39227 0.0
H195 H 0.89317 0.13349 0.39921 0.0
H196 H 0.8992 0.15944 0.30583 0.0
H197 H 0.96912 0.11562 0.31361 0.0
H198 H 0.99981 0.13253 0.29941 0.0
H199 H 0.92937 0.17574 0.29158 0.0
Gd200 Gd 0.87115 0.76406 0.35467 0.0
Gd201 Gd 0.88379 0.77028 0.3354 0.0
C202 C 0.90932 0.71997 0.34568 0.0
C203 C 0.84545 0.74164 0.37035 0.0
C204 C 0.84827 0.72706 0.37904 0.0
C205 C 0.87749 0.74844 0.38484 0.0
C206 C 0.81841 0.69369 0.3821 0.0
C207 C 0.84539 0.7048 0.39676 0.0
C208 C 0.81702 0.68264 0.39082 0.0
C209 C 0.87611 0.73741 0.39357 0.0
C210 C 0.93942 0.81982 0.3504 0.0
C211 C 0.86187 0.82609 0.34488 0.0
C212 C 0.90018 0.78869 0.31902 0.0
C213 C 0.88635 0.79631 0.31072 0.0
C214 C 0.85893 0.76752 0.30562 0.0
C215 C 0.90345 0.8325 0.30735 0.0
C216 C 0.86715 0.81082 0.29386 0.0
C217 C 0.89394 0.83968 0.29907 0.0
C218 C 0.84942 0.77469 0.29734 0.0
C219 C 0.81325 0.71855 0.34037 0.0
O220 O 0.89003 0.72177 0.35237 0.0
O221 O 0.91501 0.74065 0.33865 0.0
O222 O 0.86995 0.77578 0.36838 0.0
O223 O 0.83421 0.71965 0.36353 0.0
O224 O 0.9204 0.81974 0.3571 0.0
O225 O 0.92296 0.78864 0.3466 0.0
O226 O 0.87866 0.82068 0.33821 0.0
O227 O 0.84989 0.80292 0.35157 0.0
O228 O 0.88414 0.75464 0.32188 0.0
O229 O 0.90996 0.81278 0.32537 0.0
O230 O 0.83126 0.71437 0.33403 0.0
O231 O 0.83289 0.75034 0.34355 0.0
H232 H 0.90079 0.77453 0.38275 0.0
H233 H 0.7953 0.67677 0.37783 0.0
H234 H 0.79323 0.65702 0.39295 0.0
H235 H 0.89837 0.75542 0.39792 0.0
H236 H 0.84543 0.7392 0.30793 0.0
H237 H 0.92491 0.85529 0.31104 0.0
H238 H 0.90785 0.86795 0.29673 0.0
H239 H 0.82899 0.75161 0.29353 0.0
Gd240 Gd 0.90638 0.77117 0.83587 0.0
Gd241 Gd 0.91293 0.76615 0.85514 0.0
C242 C 0.9843 0.82758 0.84519 0.0
C243 C 0.90833 0.78858 0.81942 0.0
C244 C 0.92945 0.79552 0.81107 0.0
C245 C 0.92251 0.76625 0.80537 0.0
C246 C 0.95376 0.83192 0.80825 0.0
C247 C 0.96262 0.8097 0.79414 0.0
C248 C 0.97017 0.8389 0.79993 0.0
C249 C 0.93893 0.77322 0.79705 0.0
C250 C 0.9251 0.71966 0.84104 0.0
C251 C 0.83044 0.72185 0.84618 0.0
C252 C 0.9159 0.74465 0.87096 0.0
C253 C 0.8982 0.73108 0.87968 0.0
C254 C 0.89151 0.75368 0.88534 0.0
C255 C 0.89309 0.69733 0.88293 0.0
C256 C 0.87759 0.71026 0.89744 0.0
C257 C 0.88279 0.68697 0.89167 0.0
C258 C 0.88133 0.7434 0.89409 0.0
C259 C 0.90107 0.82203 0.85061 0.0
O260 O 0.96197 0.82171 0.83852 0.0
O261 O 0.97317 0.80482 0.85196 0.0
O262 O 0.89009 0.75471 0.82239 0.0
O263 O 0.92296 0.813 0.82569 0.0
O264 O 0.9028 0.7152 0.8347 0.0
O265 O 0.93735 0.75156 0.84416 0.0
O266 O 0.85151 0.72398 0.85292 0.0
O267 O 0.84553 0.74204 0.8391 0.0
O268 O 0.92634 0.77879 0.86881 0.0
O269 O 0.90465 0.72214 0.86424 0.0
O270 O 0.92009 0.8222 0.85732 0.0
O271 O 0.88585 0.79052 0.84695 0.0
H272 H 0.90349 0.73786 0.80722 0.0
H273 H 0.95948 0.85521 0.8124 0.0
H274 H 0.98862 0.86734 0.79802 0.0
H275 H 0.93196 0.74995 0.79278 0.0
H276 H 0.89536 0.78 0.88311 0.0
H277 H 0.89862 0.67958 0.8788 0.0
H278 H 0.88058 0.66145 0.89399 0.0
H279 H 0.87699 0.76181 0.89827 0.0
Gd280 Gd 0.24864 0.13852 0.83467 0.0
Gd281 Gd 0.25807 0.15427 0.85526 0.0
C282 C 0.19638 0.16336 0.84484 0.0
C283 C 0.22667 0.11264 0.81904 0.0
C284 C 0.22014 0.12439 0.81034 0.0
C285 C 0.24581 0.15833 0.8065 0.0
C286 C 0.1881 0.1004 0.80562 0.0
C287 C 0.20789 0.14337 0.79325 0.0
C288 C 0.18201 0.10972 0.79721 0.0
C289 C 0.23976 0.16768 0.79807 0.0
C290 C 0.29564 0.21277 0.83821 0.0
C291 C 0.30087 0.11484 0.84591 0.0
C292 C 0.28301 0.18269 0.8706 0.0
C293 C 0.29534 0.17814 0.87942 0.0
C294 C 0.27186 0.14888 0.88499 0.0
C295 C 0.32915 0.20629 0.88276 0.0
C296 C 0.31469 0.17755 0.89724 0.0
C297 C 0.33878 0.20597 0.89154 0.0
C298 C 0.28143 0.1486 0.89378 0.0
C299 C 0.20138 0.08688 0.85072 0.0
O300 O 0.19933 0.14417 0.83831 0.0
O301 O 0.22099 0.17688 0.85128 0.0
O302 O 0.26109 0.12706 0.82169 0.0
O303 O 0.20381 0.10884 0.82537 0.0
O304 O 0.2884 0.19866 0.83044 0.0
O305 O 0.27794 0.18631 0.84336 0.0
O306 O 0.29541 0.12953 0.8531 0.0
O307 O 0.28478 0.11398 0.83832 0.0
O308 O 0.24785 0.16225 0.86869 0.0
O309 O 0.30472 0.18893 0.86384 0.0
O310 O 0.20279 0.10427 0.85788 0.0
O311 O 0.23221 0.10417 0.84678 0.0
H312 H 0.27082 0.17748 0.80996 0.0
H313 H 0.1678 0.07411 0.80842 0.0
H314 H 0.15681 0.09049 0.79384 0.0
H315 H 0.26056 0.19366 0.79526 0.0
H316 H 0.24552 0.12676 0.88266 0.0
H317 H 0.34757 0.22946 0.87867 0.0
H318 H 0.36442 0.22895 0.89394 0.0
H319 H 0.26242 0.12591 0.89791 0.0
Gd320 Gd 0.8851 0.11762 0.83433 0.0
Gd321 Gd 0.8705 0.11353 0.85567 0.0
C322 C 0.86402 0.04232 0.84511 0.0
C323 C 0.91002 0.121 0.81864 0.0
C324 C 0.89716 0.10292 0.80992 0.0
C325 C 0.87725 0.11294 0.80418 0.0
C326 C 0.90678 0.07685 0.80703 0.0
C327 C 0.87707 0.07132 0.79289 0.0
C328 C 0.89678 0.06119 0.79866 0.0
C329 C 0.86732 0.09732 0.7958 0.0
C330 C 0.81189 0.09259 0.83858 0.0
C331 C 0.90902 0.19345 0.84567 0.0
C332 C 0.83808 0.10501 0.87064 0.0
C333 C 0.84281 0.11966 0.87974 0.0
C334 C 0.86048 0.10993 0.88619 0.0
C335 C 0.82588 0.14002 0.8823 0.0
C336 C 0.84285 0.13925 0.89759 0.0
C337 C 0.82601 0.1498 0.89109 0.0
C338 C 0.86058 0.11965 0.89497 0.0
C339 C 0.94258 0.13622 0.85169 0.0
O340 O 0.87859 0.06252 0.83798 0.0
O341 O 0.85426 0.05454 0.85209 0.0
O342 O 0.89757 0.14252 0.82142 0.0
O343 O 0.91294 0.10114 0.82491 0.0
O344 O 0.82461 0.09789 0.83066 0.0
O345 O 0.83914 0.10143 0.8435 0.0
O346 O 0.89028 0.17379 0.85263 0.0
O347 O 0.91301 0.17805 0.83843 0.0
O348 O 0.85623 0.08808 0.86844 0.0
O349 O 0.83537 0.12444 0.86422 0.0
O350 O 0.93037 0.13361 0.85965 0.0
O351 O 0.91579 0.12749 0.84657 0.0
H352 H 0.86956 0.13311 0.80613 0.0
H353 H 0.9226 0.06891 0.81121 0.0
H354 H 0.90534 0.04175 0.79665 0.0
H355 H 0.85182 0.10556 0.7916 0.0
H356 H 0.87335 0.09376 0.88452 0.0
H357 H 0.81163 0.14762 0.87755 0.0
H358 H 0.81254 0.16536 0.89279 0.0
H359 H 0.87341 0.11053 0.89975 0.0
Gd360 Gd 0.77707 0.90236 0.69021 0.0
Gd361 Gd 0.76895 0.90709 0.67092 0.0
C362 C 0.83154 0.9794 0.68039 0.0
C363 C 0.79725 0.90561 0.70645 0.0
C364 C 0.80414 0.9271 0.71472 0.0
C365 C 0.77483 0.9213 0.72028 0.0
C366 C 0.84061 0.95103 0.71755 0.0
C367 C 0.81837 0.96192 0.73141 0.0
C368 C 0.84763 0.9683 0.72576 0.0
C369 C 0.78185 0.93851 0.72849 0.0
C370 C 0.72456 0.9204 0.68548 0.0
C371 C 0.7265 0.82575 0.6803 0.0
C372 C 0.74558 0.90914 0.65527 0.0
C373 C 0.73096 0.89148 0.6466 0.0
C374 C 0.75297 0.8851 0.64067 0.0
C375 C 0.69678 0.88634 0.64369 0.0
C376 C 0.70823 0.87185 0.62892 0.0
C377 C 0.6855 0.87655 0.63498 0.0
C378 C 0.7417 0.87532 0.63196 0.0
C379 C 0.82541 0.89543 0.67511 0.0
O380 O 0.82701 0.9576 0.68708 0.0
O381 O 0.80775 0.96762 0.67381 0.0
O382 O 0.76307 0.88559 0.70375 0.0
O383 O 0.82062 0.9211 0.70001 0.0
O384 O 0.72176 0.89969 0.69205 0.0
O385 O 0.75579 0.9321 0.682 0.0
O386 O 0.7263 0.84625 0.67369 0.0
O387 O 0.74882 0.84147 0.68704 0.0
O388 O 0.77996 0.9196 0.65717 0.0
O389 O 0.72382 0.89812 0.66212 0.0
O390 O 0.82467 0.91352 0.66831 0.0
O391 O 0.79444 0.8809 0.67898 0.0
H392 H 0.74636 0.90284 0.71838 0.0
H393 H 0.86387 0.95568 0.71351 0.0
H394 H 0.87612 0.98568 0.72778 0.0
H395 H 0.75855 0.93327 0.73258 0.0
H396 H 0.77968 0.88918 0.64265 0.0
H397 H 0.67936 0.8914 0.64805 0.0
H398 H 0.65924 0.87348 0.63297 0.0
H399 H 0.76017 0.87227 0.62751 0.0
Gd400 Gd 0.12189 0.87832 0.69032 0.0
Gd401 Gd 0.11635 0.86594 0.67096 0.0
C402 C 0.04456 0.85654 0.68062 0.0
C403 C 0.11966 0.8955 0.70661 0.0
C404 C 0.09857 0.88195 0.71496 0.0
C405 C 0.09432 0.85029 0.71928 0.0
C406 C 0.08532 0.9031 0.71909 0.0
C407 C 0.06523 0.86213 0.73184 0.0
C408 C 0.06884 0.89333 0.72739 0.0
C409 C 0.07787 0.84052 0.7276 0.0
C410 C 0.10305 0.80776 0.68545 0.0
C411 C 0.19827 0.90385 0.68015 0.0
C412 C 0.11355 0.84052 0.65527 0.0
C413 C 0.13097 0.84324 0.64658 0.0
C414 C 0.13838 0.87212 0.64071 0.0
C415 C 0.13487 0.81357 0.64359 0.0
C416 C 0.15031 0.83999 0.62887 0.0
C417 C 0.14451 0.812 0.63488 0.0
C418 C 0.14802 0.87056 0.63198 0.0
C419 C 0.12866 0.93405 0.67532 0.0
O420 O 0.06649 0.87316 0.68734 0.0
O421 O 0.05604 0.84477 0.67394 0.0
O422 O 0.13824 0.87993 0.70385 0.0
O423 O 0.10464 0.90421 0.70022 0.0
O424 O 0.12379 0.82531 0.69204 0.0
O425 O 0.09156 0.82758 0.68204 0.0
O426 O 0.17747 0.88491 0.67339 0.0
O427 O 0.18297 0.90918 0.68717 0.0
O428 O 0.10387 0.86497 0.65722 0.0
O429 O 0.1242 0.82928 0.6621 0.0
O430 O 0.11009 0.9153 0.66855 0.0
O431 O 0.14323 0.91745 0.67911 0.0
H432 H 0.10428 0.83336 0.71632 0.0
H433 H 0.08861 0.9279 0.71599 0.0
H434 H 0.06 0.91103 0.73043 0.0
H435 H 0.07517 0.81602 0.73073 0.0
H436 H 0.13526 0.89526 0.64274 0.0
H437 H 0.12899 0.7907 0.64791 0.0
H438 H 0.14664 0.78834 0.63281 0.0
H439 H 0.15195 0.89254 0.62758 0.0
Gd440 Gd 0.14529 0.24734 0.68997 0.0
Gd441 Gd 0.15789 0.25394 0.67069 0.0
C442 C 0.16772 0.19208 0.68047 0.0
C443 C 0.12919 0.22878 0.70636 0.0
C444 C 0.14303 0.22099 0.71466 0.0
C445 C 0.16136 0.24894 0.72096 0.0
C446 C 0.1345 0.18477 0.71681 0.0
C447 C 0.16126 0.20448 0.73142 0.0
C448 C 0.14356 0.17667 0.72505 0.0
C449 C 0.17047 0.24086 0.72919 0.0
C450 C 0.21568 0.29943 0.68499 0.0
C451 C 0.11908 0.29711 0.67979 0.0
C452 C 0.183 0.27628 0.65495 0.0
C453 C 0.17902 0.28983 0.64622 0.0
C454 C 0.14996 0.26708 0.64051 0.0
C455 C 0.20766 0.32372 0.64302 0.0
C456 C 0.17974 0.31064 0.62845 0.0
C457 C 0.20797 0.33408 0.63428 0.0
C458 C 0.15032 0.27736 0.63176 0.0
C459 C 0.08968 0.19792 0.67499 0.0
O460 O 0.15073 0.19722 0.68713 0.0
O461 O 0.17963 0.21537 0.67379 0.0
O462 O 0.14528 0.26292 0.70354 0.0
O463 O 0.11925 0.20484 0.69997 0.0
O464 O 0.19755 0.30349 0.69133 0.0
O465 O 0.19621 0.26768 0.68177 0.0
O466 O 0.1397 0.29677 0.67322 0.0
O467 O 0.11257 0.27534 0.68664 0.0
O468 O 0.15962 0.24194 0.65703 0.0
O469 O 0.19356 0.29858 0.66171 0.0
O470 O 0.10854 0.19818 0.66825 0.0
O471 O 0.10617 0.22911 0.67877 0.0
H472 H 0.16781 0.27703 0.71963 0.0
H473 H 0.12003 0.16238 0.71219 0.0
H474 H 0.13642 0.14843 0.72643 0.0
H475 H 0.1836 0.26301 0.73392 0.0
H476 H 0.1275 0.24065 0.64271 0.0
H477 H 0.23077 0.34158 0.6472 0.0
H478 H 0.23129 0.35972 0.63199 0.0
H479 H 0.12776 0.25884 0.62754 0.0
Gd480 Gd 0.78287 0.58713 0.50422 0.0
Gd481 Gd 0.78909 0.58205 0.5235 0.0
C482 C 0.8652 0.63151 0.51321 0.0
C483 C 0.77969 0.60876 0.48844 0.0
C484 C 0.7971 0.62334 0.47975 0.0
C485 C 0.80427 0.60168 0.47389 0.0
C486 C 0.80123 0.657 0.47674 0.0
C487 C 0.81638 0.64569 0.46203 0.0
C488 C 0.81084 0.66809 0.46802 0.0
C489 C 0.81387 0.61276 0.46516 0.0
C490 C 0.79489 0.53139 0.50877 0.0
C491 C 0.71128 0.5257 0.5141 0.0
C492 C 0.78716 0.5646 0.53994 0.0
C493 C 0.76604 0.5578 0.54828 0.0
C494 C 0.7708 0.58729 0.55363 0.0
C495 C 0.74391 0.52149 0.55142 0.0
C496 C 0.73281 0.54431 0.56517 0.0
C497 C 0.72744 0.51483 0.55972 0.0
C498 C 0.75437 0.58064 0.56194 0.0
C499 C 0.77014 0.63339 0.51826 0.0
O500 O 0.8442 0.62943 0.50647 0.0
O501 O 0.85002 0.61129 0.52028 0.0
O502 O 0.77056 0.57485 0.4905 0.0
O503 O 0.78996 0.63095 0.49522 0.0
O504 O 0.77602 0.53118 0.50203 0.0
O505 O 0.80982 0.56281 0.51247 0.0
O506 O 0.73345 0.53152 0.52081 0.0
O507 O 0.72263 0.54839 0.50732 0.0
O508 O 0.80556 0.59846 0.53697 0.0
O509 O 0.77235 0.54016 0.53368 0.0
O510 O 0.79227 0.6379 0.52465 0.0
O511 O 0.75814 0.60146 0.51518 0.0
H512 H 0.80096 0.57536 0.47593 0.0
H513 H 0.79554 0.67414 0.48105 0.0
H514 H 0.81315 0.69394 0.46594 0.0
H515 H 0.81759 0.59455 0.46077 0.0
H516 H 0.7879 0.61567 0.5515 0.0
H517 H 0.74015 0.49813 0.54755 0.0
H518 H 0.71151 0.4865 0.56197 0.0
H519 H 0.75879 0.60408 0.56586 0.0
Gd520 Gd 0.43577 0.19981 0.50467 0.0
Gd521 Gd 0.4417 0.21229 0.52398 0.0
C522 C 0.39163 0.23798 0.51363 0.0
C523 C 0.41363 0.17428 0.48897 0.0
C524 C 0.39917 0.17707 0.48026 0.0
C525 C 0.42061 0.2063 0.47446 0.0
C526 C 0.36588 0.14718 0.47717 0.0
C527 C 0.37719 0.17414 0.46251 0.0
C528 C 0.35498 0.14576 0.46844 0.0
C529 C 0.40972 0.20489 0.46572 0.0
C530 C 0.49161 0.26787 0.50902 0.0
C531 C 0.49748 0.19017 0.51454 0.0
C532 C 0.45994 0.22879 0.54035 0.0
C533 C 0.46757 0.21519 0.54869 0.0
C534 C 0.43922 0.18581 0.55345 0.0
C535 C 0.50315 0.23432 0.55239 0.0
C536 C 0.48162 0.19613 0.56559 0.0
C537 C 0.51011 0.2249 0.5607 0.0
C538 C 0.44617 0.17637 0.56178 0.0
C539 C 0.39002 0.14186 0.51895 0.0
O540 O 0.39349 0.21873 0.50694 0.0
O541 O 0.41217 0.24356 0.52068 0.0
O542 O 0.44774 0.19883 0.49097 0.0
O543 O 0.39152 0.16294 0.49576 0.0
O544 O 0.49159 0.24899 0.5023 0.0
O545 O 0.46032 0.25144 0.51279 0.0
O546 O 0.49202 0.20691 0.52121 0.0
O547 O 0.47444 0.17837 0.50783 0.0
O548 O 0.42588 0.21258 0.53748 0.0
O549 O 0.48412 0.23857 0.53403 0.0
O550 O 0.38578 0.15972 0.52532 0.0
O551 O 0.42186 0.16157 0.51579 0.0
H552 H 0.44665 0.22962 0.47657 0.0
H553 H 0.34892 0.12405 0.48143 0.0
H554 H 0.32941 0.12194 0.46629 0.0
H555 H 0.42778 0.22717 0.46137 0.0
H556 H 0.41135 0.17064 0.55087 0.0
H557 H 0.52554 0.25728 0.54894 0.0
H558 H 0.53791 0.24043 0.56331 0.0
H559 H 0.42337 0.15432 0.56534 0.0
Gd560 Gd 0.82303 0.2405 0.50435 0.0
Gd561 Gd 0.81063 0.23377 0.52374 0.0
C562 C 0.78416 0.15784 0.51327 0.0
C563 C 0.84842 0.24364 0.48864 0.0
C564 C 0.84407 0.22639 0.47986 0.0
C565 C 0.81534 0.22112 0.47416 0.0
C566 C 0.87209 0.22029 0.47662 0.0
C567 C 0.84432 0.20671 0.46204 0.0
C568 C 0.87216 0.21044 0.46785 0.0
C569 C 0.81547 0.21141 0.46538 0.0
C570 C 0.75509 0.22833 0.50878 0.0
C571 C 0.8331 0.31187 0.51431 0.0
C572 C 0.79356 0.2355 0.54006 0.0
C573 C 0.80721 0.25661 0.5484 0.0
C574 C 0.83605 0.2569 0.55324 0.0
C575 C 0.78866 0.27376 0.55203 0.0
C576 C 0.82634 0.28968 0.56531 0.0
C577 C 0.79813 0.29013 0.56034 0.0
C578 C 0.84552 0.27328 0.56157 0.0
C579 C 0.88113 0.25239 0.51875 0.0
O580 O 0.80262 0.17897 0.5065 0.0
O581 O 0.77972 0.17273 0.52047 0.0
O582 O 0.82579 0.25549 0.49075 0.0
O583 O 0.85816 0.2309 0.49535 0.0
O584 O 0.77371 0.24691 0.502 0.0
O585 O 0.7716 0.21356 0.51252 0.0
O586 O 0.81633 0.28961 0.52097 0.0
O587 O 0.8448 0.30064 0.50757 0.0
O588 O 0.80929 0.21716 0.53723 0.0
O589 O 0.78448 0.25036 0.5337 0.0
O590 O 0.86352 0.23141 0.52531 0.0
O591 O 0.86139 0.26427 0.51547 0.0
H592 H 0.79335 0.22575 0.47638 0.0
H593 H 0.89493 0.22471 0.4808 0.0
H594 H 0.89504 0.20744 0.46554 0.0
H595 H 0.79322 0.2082 0.46116 0.0
H596 H 0.85075 0.24365 0.55072 0.0
H597 H 0.76614 0.27378 0.54852 0.0
H598 H 0.78307 0.30297 0.56289 0.0
H599 H 0.86711 0.27194 0.56518 0.0
Gd600 Gd 0.92704 0.4445 0.68829 0.0
Gd601 Gd 0.91932 0.44981 0.66898 0.0
C602 C 0.96964 0.52614 0.67909 0.0
C603 C 0.95006 0.44155 0.70392 0.0
C604 C 0.96536 0.45902 0.71253 0.0
C605 C 0.95107 0.478 0.71724 0.0
C606 C 0.9914 0.45211 0.71662 0.0
C607 C 0.98686 0.48054 0.73019 0.0
C608 C 1.00201 0.46267 0.72532 0.0
C609 C 0.96177 0.48872 0.72596 0.0
C610 C 0.87054 0.45604 0.68412 0.0
C611 C 0.86441 0.37254 0.67871 0.0
C612 C 0.89978 0.44736 0.6527 0.0
C613 C 0.89313 0.42653 0.64433 0.0
C614 C 0.92257 0.42961 0.6392 0.0
C615 C 0.85699 0.40612 0.64097 0.0
C616 C 0.87988 0.39332 0.62745 0.0
C617 C 0.85043 0.38966 0.63268 0.0
C618 C 0.91602 0.4132 0.63089 0.0
C619 C 0.97166 0.43152 0.67377 0.0
O620 O 0.96971 0.50541 0.68567 0.0
O621 O 0.94752 0.51063 0.67231 0.0
O622 O 0.91609 0.43289 0.70207 0.0
O623 O 0.97169 0.45169 0.69705 0.0
O624 O 0.87127 0.43779 0.69089 0.0
O625 O 0.90152 0.47074 0.68023 0.0
O626 O 0.86922 0.39446 0.67202 0.0
O627 O 0.88802 0.38411 0.68532 0.0
O628 O 0.93385 0.46716 0.65549 0.0
O629 O 0.87614 0.43142 0.65907 0.0
O630 O 0.97474 0.45251 0.66724 0.0
O631 O 0.94026 0.41974 0.67716 0.0
H632 H 0.9308 0.48361 0.71428 0.0
H633 H 1.00244 0.43703 0.71319 0.0
H634 H 0.02093 0.4553 0.72831 0.0
H635 H 0.94992 0.50297 0.7294 0.0
H636 H 0.95083 0.4453 0.64153 0.0
H637 H 0.83374 0.40368 0.64467 0.0
H638 H 0.82229 0.37508 0.63025 0.0
H639 H 0.9394 0.41626 0.62715 0.0
Gd640 Gd 0.57851 0.48471 0.68853 0.0
Gd641 Gd 0.57343 0.47405 0.66895 0.0
C642 C 0.49705 0.44889 0.6792 0.0
C643 C 0.58191 0.50999 0.70425 0.0
C644 C 0.56484 0.50823 0.71291 0.0
C645 C 0.54648 0.47529 0.71778 0.0
C646 C 0.57149 0.54135 0.71686 0.0
C647 C 0.54399 0.50927 0.73059 0.0
C648 C 0.56126 0.54192 0.72556 0.0
C649 C 0.5361 0.4758 0.7265 0.0
C650 C 0.56479 0.41675 0.68361 0.0
C651 C 0.65011 0.49352 0.67879 0.0
C652 C 0.57534 0.45763 0.65259 0.0
C653 C 0.59658 0.47119 0.64427 0.0
C654 C 0.59859 0.50125 0.63962 0.0
C655 C 0.61202 0.45138 0.64044 0.0
C656 C 0.62957 0.49024 0.62735 0.0
C657 C 0.62835 0.46079 0.63213 0.0
C658 C 0.61493 0.51068 0.63129 0.0
C659 C 0.59267 0.54415 0.67423 0.0
O660 O 0.51778 0.46711 0.68605 0.0
O661 O 0.51229 0.44376 0.67214 0.0
O662 O 0.58968 0.48414 0.70231 0.0
O663 O 0.57238 0.52233 0.69743 0.0
O664 O 0.58165 0.43317 0.69076 0.0
O665 O 0.55147 0.43473 0.67998 0.0
O666 O 0.62858 0.47845 0.67191 0.0
O667 O 0.63856 0.50438 0.68562 0.0
O668 O 0.55749 0.47384 0.65545 0.0
O669 O 0.58974 0.4479 0.65893 0.0
O670 O 0.57215 0.52734 0.66755 0.0
O671 O 0.60385 0.5238 0.67752 0.0
H672 H 0.54109 0.4493 0.71494 0.0
H673 H 0.58609 0.56724 0.71331 0.0
H674 H 0.5684 0.56835 0.72843 0.0
H675 H 0.52231 0.44995 0.73007 0.0
H676 H 0.58671 0.51698 0.6423 0.0
H677 H 0.6107 0.42792 0.64381 0.0
H678 H 0.63982 0.44473 0.62943 0.0
H679 H 0.61492 0.53328 0.62782 0.0
Gd680 Gd 0.53833 0.09743 0.68863 0.0
Gd681 Gd 0.55031 0.10405 0.66936 0.0
C682 C 0.57674 0.05421 0.67946 0.0
C683 C 0.51307 0.07484 0.70433 0.0
C684 C 0.51585 0.05987 0.71295 0.0
C685 C 0.54518 0.08096 0.71876 0.0
C686 C 0.48586 0.02654 0.71599 0.0
C687 C 0.51286 0.03719 0.73063 0.0
C688 C 0.48441 0.01528 0.72468 0.0
C689 C 0.54374 0.06971 0.72747 0.0
C690 C 0.60646 0.15338 0.6843 0.0
C691 C 0.52909 0.15995 0.67905 0.0
C692 C 0.56602 0.12213 0.65295 0.0
C693 C 0.55166 0.12892 0.64462 0.0
C694 C 0.52596 0.09947 0.63938 0.0
C695 C 0.5667 0.16515 0.64137 0.0
C696 C 0.53168 0.14233 0.62775 0.0
C697 C 0.55678 0.17178 0.63308 0.0
C698 C 0.51608 0.10609 0.63108 0.0
C699 C 0.47992 0.05221 0.67445 0.0
O700 O 0.55622 0.05448 0.68606 0.0
O701 O 0.58317 0.0761 0.67264 0.0
O702 O 0.53795 0.10886 0.70238 0.0
O703 O 0.50126 0.05304 0.69748 0.0
O704 O 0.58778 0.15301 0.69109 0.0
O705 O 0.58986 0.12231 0.68046 0.0
O706 O 0.54506 0.1543 0.67224 0.0
O707 O 0.51776 0.13704 0.68578 0.0
O708 O 0.55088 0.0882 0.65587 0.0
O709 O 0.57523 0.14634 0.65926 0.0
O710 O 0.49784 0.04796 0.66809 0.0
O711 O 0.49965 0.08401 0.67762 0.0
H712 H 0.56859 0.10701 0.71669 0.0
H713 H 0.46266 0.00986 0.71172 0.0
H714 H 0.4605 0.98973 0.7268 0.0
H715 H 0.56607 0.08753 0.73183 0.0
H716 H 0.51397 0.07114 0.64161 0.0
H717 H 0.58703 0.18845 0.64514 0.0
H718 H 0.56985 0.20003 0.63074 0.0
H719 H 0.49629 0.08268 0.62725 0.0
Gd720 Gd 0.57088 0.10641 0.16775 0.0
Gd721 Gd 0.57835 0.09745 0.18831 0.0
C722 C 0.64865 0.15861 0.17766 0.0
C723 C 0.56675 0.12834 0.15215 0.0
C724 C 0.58521 0.1347 0.14347 0.0
C725 C 0.58859 0.10683 0.13913 0.0
C726 C 0.59847 0.16899 0.13928 0.0
C727 C 0.61735 0.14728 0.12648 0.0
C728 C 0.61437 0.17524 0.13092 0.0
C729 C 0.60442 0.11303 0.13075 0.0
C730 C 0.59834 0.05963 0.17123 0.0
C731 C 0.4956 0.05437 0.17916 0.0
C732 C 0.58261 0.07277 0.20361 0.0
C733 C 0.56579 0.05931 0.2124 0.0
C734 C 0.55961 0.08184 0.2182 0.0
C735 C 0.56072 0.0254 0.21548 0.0
C736 C 0.54656 0.03805 0.23016 0.0
C737 C 0.55115 0.01485 0.22423 0.0
C738 C 0.55004 0.07129 0.22696 0.0
C739 C 0.56785 0.15419 0.18381 0.0
O740 O 0.62596 0.15566 0.17127 0.0
O741 O 0.63794 0.13411 0.18412 0.0
O742 O 0.54643 0.09399 0.15482 0.0
O743 O 0.58589 0.1512 0.15847 0.0
O744 O 0.59104 0.06653 0.16347 0.0
O745 O 0.58986 0.07752 0.17637 0.0
O746 O 0.51608 0.06 0.1863 0.0
O747 O 0.51045 0.07034 0.17154 0.0
O748 O 0.5958 0.10781 0.2018 0.0
O749 O 0.56819 0.05115 0.1968 0.0
O750 O 0.58444 0.153 0.19089 0.0
O751 O 0.55375 0.12323 0.17992 0.0
H752 H 0.57863 0.08002 0.14215 0.0
H753 H 0.59627 0.191 0.14245 0.0
H754 H 0.62452 0.20219 0.12797 0.0
H755 H 0.60575 0.09061 0.12755 0.0
H756 H 0.56356 0.10832 0.21607 0.0
H757 H 0.56556 1.00759 0.2112 0.0
H758 H 0.54806 0.98874 0.22637 0.0
H759 H 0.54704 0.09007 0.23131 0.0
Gd760 Gd 0.91659 0.46887 0.16811 0.0
Gd761 Gd 0.92386 0.4841 0.18863 0.0
C762 C 0.86443 0.49498 0.17781 0.0
C763 C 0.89522 0.44315 0.15246 0.0
C764 C 0.88899 0.45536 0.1438 0.0
C765 C 0.91549 0.48881 0.13991 0.0
C766 C 0.85626 0.43242 0.13918 0.0
C767 C 0.87687 0.47553 0.12684 0.0
C768 C 0.85023 0.44234 0.13084 0.0
C769 C 0.90951 0.49874 0.13155 0.0
C770 C 0.96344 0.5431 0.17168 0.0
C771 C 0.96696 0.44414 0.17966 0.0
C772 C 0.94764 0.51159 0.2041 0.0
C773 C 0.95938 0.50654 0.21297 0.0
C774 C 0.93299 0.48591 0.21944 0.0
C775 C 0.99686 0.52668 0.21542 0.0
C776 C 0.98107 0.50742 0.23068 0.0
C777 C 1.00758 0.52699 0.22414 0.0
C778 C 0.94368 0.48628 0.22815 0.0
C779 C 0.86701 0.41708 0.18387 0.0
O780 O 0.86742 0.4752 0.17144 0.0
O781 O 0.88859 0.50831 0.18434 0.0
O782 O 0.92954 0.45747 0.15518 0.0
O783 O 0.87212 0.43912 0.15875 0.0
O784 O 0.95662 0.52893 0.16392 0.0
O785 O 0.94554 0.51668 0.17685 0.0
O786 O 0.9602 0.45807 0.1868 0.0
O787 O 0.95261 0.44443 0.17191 0.0
O788 O 0.9126 0.49148 0.20204 0.0
O789 O 0.96977 0.5181 0.19741 0.0
O790 O 0.86768 0.4348 0.19091 0.0
O791 O 0.89837 0.43399 0.18015 0.0
H792 H 0.94104 0.50716 0.14329 0.0
H793 H 0.83533 0.40653 0.14202 0.0
H794 H 0.82445 0.42399 0.12755 0.0
H795 H 0.93091 0.52431 0.1287 0.0
H796 H 0.90378 0.47051 0.21786 0.0
H797 H 0.01789 0.54327 0.21065 0.0
H798 H 0.0367 0.54313 0.22576 0.0
H799 H 0.9223 0.4712 0.23296 0.0
Gd800 Gd 0.55068 0.45087 0.16868 0.0
Gd801 Gd 0.53889 0.44516 0.18798 0.0
C802 C 0.52948 0.37347 0.17824 0.0
C803 C 0.56702 0.44873 0.15231 0.0
C804 C 0.55428 0.42658 0.1441 0.0
C805 C 0.51941 0.41542 0.14038 0.0
C806 C 0.5789 0.41898 0.13953 0.0
C807 C 0.53468 0.39052 0.12753 0.0
C808 C 0.56928 0.40121 0.13138 0.0
C809 C 0.50975 0.39763 0.1322 0.0
C810 C 0.48013 0.43151 0.17379 0.0
C811 C 0.57643 0.52698 0.17883 0.0
C812 C 0.51383 0.44171 0.20374 0.0
C813 C 0.5152 0.4589 0.21236 0.0
C814 C 0.54819 0.47821 0.21718 0.0
C815 C 0.48182 0.45129 0.21635 0.0
C816 C 0.51382 0.47967 0.23004 0.0
C817 C 0.48109 0.46149 0.22504 0.0
C818 C 0.54751 0.48855 0.2259 0.0
C819 C 0.60704 0.45766 0.1835 0.0
O820 O 0.54547 0.39536 0.17148 0.0
O821 O 0.51824 0.38493 0.18502 0.0
O822 O 0.54898 0.46487 0.15508 0.0
O823 O 0.57832 0.43606 0.15871 0.0
O824 O 0.49788 0.45376 0.16742 0.0
O825 O 0.50014 0.41981 0.17699 0.0
O826 O 0.55628 0.50598 0.18545 0.0
O827 O 0.58271 0.51178 0.17194 0.0
O828 O 0.54054 0.43524 0.20179 0.0
O829 O 0.50048 0.44999 0.19691 0.0
O830 O 0.58831 0.43872 0.19023 0.0
O831 O 0.59032 0.4723 0.17979 0.0
H832 H 0.49975 0.42088 0.14371 0.0
H833 H 0.60612 0.42763 0.14217 0.0
H834 H 0.58954 0.39685 0.12798 0.0
H835 H 0.48267 0.38943 0.12954 0.0
H836 H 0.57439 0.48436 0.21432 0.0
H837 H 0.4559 0.43594 0.21284 0.0
H838 H 0.45451 0.45359 0.22796 0.0
H839 H 0.57342 0.50306 0.22943 0.0
Gd840 Gd 0.4431 0.23325 0.0249 0.0
Gd841 Gd 0.43535 0.24109 1.00431 0.0
C842 C 0.49518 0.3115 0.0151 0.0
C843 C 0.46455 0.22815 0.04051 0.0
C844 C 0.471 0.24593 0.04923 0.0
C845 C 0.45803 0.27019 0.05136 0.0
C846 C 0.49016 0.23798 0.05561 0.0
C847 C 0.48278 0.27766 0.06623 0.0
C848 C 0.49599 0.25359 0.06398 0.0
C849 C 0.46388 0.28591 0.05976 0.0
C850 C 0.39613 0.26036 0.02131 0.0
C851 C 0.39275 0.15805 0.01331 0.0
C852 C 0.41119 0.24488 0.9889 0.0
C853 C 0.39921 0.22828 0.98002 0.0
C854 C 0.42529 0.23215 0.97365 0.0
C855 C 0.36206 0.21317 0.97744 0.0
C856 C 0.37774 0.20836 0.96226 0.0
C857 C 0.35144 0.20321 0.96871 0.0
C858 C 0.41471 0.22229 0.96491 0.0
C859 C 0.49242 0.23141 1.00903 0.0
O860 O 0.49201 0.28897 0.02156 0.0
O861 O 0.47121 0.3006 1.00853 0.0
O862 O 0.4301 0.20891 0.03785 0.0
O863 O 0.48751 0.24767 0.03424 0.0
O864 O 0.40299 0.25315 0.02909 0.0
O865 O 0.41409 0.2519 0.01617 0.0
O866 O 0.39935 0.17868 1.00616 0.0
O867 O 0.40713 0.17274 0.02106 0.0
O868 O 0.44626 0.25972 0.99091 0.0
O869 O 0.38919 0.22922 0.99561 0.0
O870 O 0.49144 0.24809 1.00195 0.0
O871 O 0.46116 0.21685 1.0128 0.0
H872 H 0.44315 0.27676 0.04655 0.0
H873 H 0.50059 0.21949 0.05412 0.0
H874 H 0.51124 0.24701 0.06868 0.0
H875 H 0.45297 0.30399 0.06122 0.0
H876 H 0.45428 0.24418 0.97533 0.0
H877 H 0.34132 0.21021 0.98214 0.0
H878 H 0.3226 0.192 0.96699 0.0
H879 H 0.43595 0.22716 0.96018 0.0
Gd880 Gd 0.78914 0.21353 0.02385 0.0
Gd881 Gd 0.78252 0.2018 1.00456 0.0
C882 C 0.71113 0.19193 0.01451 0.0
C883 C 0.78695 0.22928 0.04026 0.0
C884 C 0.76473 0.21532 0.04847 0.0
C885 C 0.76931 0.19135 0.05414 0.0
C886 C 0.7416 0.22899 0.05117 0.0
C887 C 0.72909 0.19598 0.06511 0.0
C888 C 0.72393 0.21936 0.05935 0.0
C889 C 0.7517 0.18176 0.06232 0.0
C890 C 0.77019 0.14329 0.01867 0.0
C891 C 0.8651 0.23991 0.0135 0.0
C892 C 0.77896 0.1764 0.98885 0.0
C893 C 0.79638 0.17898 0.98019 0.0
C894 C 0.80742 0.20973 0.97467 0.0
C895 C 0.79683 0.14786 0.97686 0.0
C896 C 0.8162 0.17692 0.96248 0.0
C897 C 0.8067 0.14684 0.96814 0.0
C898 C 0.81723 0.20871 0.96594 0.0
C899 C 0.79452 0.26954 1.00908 0.0
O900 O 0.73334 0.20807 0.02122 0.0
O901 O 0.72235 0.18067 1.00769 0.0
O902 O 0.80419 0.21247 0.0374 0.0
O903 O 0.77376 0.24025 0.03391 0.0
O904 O 0.79242 0.16097 0.02504 0.0
O905 O 0.75807 0.16306 0.01556 0.0
O906 O 0.84396 0.22115 1.00675 0.0
O907 O 0.85009 0.24484 0.02062 0.0
O908 O 0.77023 0.20151 0.99084 0.0
O909 O 0.78908 0.16449 0.99565 0.0
O910 O 0.77549 0.25075 1.00236 0.0
O911 O 0.80968 0.25322 1.01274 0.0
H912 H 0.78718 0.18053 0.05235 0.0
H913 H 0.7379 0.24801 0.04706 0.0
H914 H 0.70721 0.23132 0.06127 0.0
H915 H 0.75601 0.1633 0.06649 0.0
H916 H 0.80725 0.23414 0.97699 0.0
H917 H 0.7879 0.12353 0.9809 0.0
H918 H 0.80515 0.12172 0.96574 0.0
H919 H 0.82499 0.23266 0.96184 0.0
Gd920 Gd 0.81028 0.58279 0.02439 0.0
Gd921 Gd 0.81955 0.58749 1.00483 0.0
C922 C 0.83054 0.52629 0.01462 0.0
C923 C 0.79519 0.56465 0.04081 0.0
C924 C 0.80953 0.55681 0.04901 0.0
C925 C 0.82999 0.58516 0.05508 0.0
C926 C 0.7995 0.52031 0.05131 0.0
C927 C 0.82903 0.5406 0.06563 0.0
C928 C 0.80922 0.51235 0.05948 0.0
C929 C 0.83968 0.57721 0.06325 0.0
C930 C 0.88019 0.63387 0.01889 0.0
C931 C 0.78373 0.63289 0.01424 0.0
C932 C 0.84265 0.60817 0.98889 0.0
C933 C 0.83849 0.62107 0.98007 0.0
C934 C 0.81699 0.59537 0.97356 0.0
C935 C 0.86052 0.65843 0.97764 0.0
C936 C 0.84134 0.64365 0.96234 0.0
C937 C 0.86179 0.66958 0.96892 0.0
C938 C 0.81833 0.60648 0.96485 0.0
C939 C 0.75196 0.53289 1.01009 0.0
O940 O 0.81503 0.53228 0.02147 0.0
O941 O 0.84115 0.54878 1.0078 0.0
O942 O 0.8114 0.59875 0.03796 0.0
O943 O 0.78455 0.54053 0.03444 0.0
O944 O 0.86355 0.63767 0.02559 0.0
O945 O 0.85972 0.60225 0.01563 0.0
O946 O 0.80237 0.63085 1.00742 0.0
O947 O 0.77873 0.61243 0.02128 0.0
O948 O 0.8193 0.57405 0.99116 0.0
O949 O 0.85398 0.63108 0.99553 0.0
O950 O 0.76796 0.53219 1.0029 0.0
O951 O 0.77005 0.56456 0.01353 0.0
H952 H 0.83788 0.61355 0.05361 0.0
H953 H 0.78319 0.49763 0.04688 0.0
H954 H 0.80003 0.48377 0.06107 0.0
H955 H 0.85538 0.59984 0.06773 0.0
H956 H 0.80022 0.56624 0.97511 0.0
H957 H 0.87786 0.67893 0.98243 0.0
H958 H 0.87939 0.69855 0.96732 0.0
H959 H 0.80251 0.58548 0.96002 0.0
Gd960 Gd 0.44895 0.92142 0.83808 0.0
Gd961 Gd 0.45537 0.91726 0.85733 0.0
C962 C 0.53167 0.966 0.847 0.0
C963 C 0.44594 0.94286 0.82229 0.0
C964 C 0.46358 0.95717 0.81361 0.0
C965 C 0.47039 0.93513 0.80779 0.0
C966 C 0.46833 0.99103 0.81057 0.0
C967 C 0.48333 0.97917 0.7959 0.0
C968 C 0.47818 1.00195 0.80185 0.0
C969 C 0.48022 0.94603 0.79906 0.0
C970 C 0.46081 0.86576 0.84275 0.0
C971 C 0.37741 0.86028 0.84799 0.0
C972 C 0.45304 0.90002 0.8738 0.0
C973 C 0.43107 0.89216 0.88203 0.0
C974 C 0.43978 0.92042 0.88819 0.0
C975 C 0.40406 0.85576 0.88429 0.0
C976 C 0.39604 0.87595 0.89874 0.0
C977 C 0.38671 0.8478 0.8925 0.0
C978 C 0.42246 0.91247 0.89639 0.0
C979 C 0.43619 0.9683 0.85193 0.0
O980 O 0.51059 0.96287 0.84018 0.0
O981 O 0.51658 0.94714 0.85425 0.0
O982 O 0.43645 0.90888 0.82438 0.0
O983 O 0.45637 0.96518 0.82904 0.0
O984 O 0.44172 0.86531 0.83603 0.0
O985 O 0.47596 0.89734 0.84639 0.0
O986 O 0.39955 0.86657 0.85473 0.0
O987 O 0.38875 0.88265 0.84116 0.0
O988 O 0.47025 0.93397 0.87086 0.0
O989 O 0.43979 0.87561 0.8675 0.0
O990 O 0.4586 0.97322 0.85829 0.0
O991 O 0.42416 0.93621 0.84894 0.0
H992 H 0.46662 0.90865 0.80986 0.0
H993 H 0.46294 1.00846 0.81485 0.0
H994 H 0.48095 0.02796 0.79974 0.0
H995 H 0.48363 0.92755 0.7947 0.0
H996 H 0.46071 0.94871 0.88675 0.0
H997 H 0.39703 0.83315 0.8798 0.0
H998 H 0.3669 0.81929 0.89407 0.0
H999 H 0.43006 0.93503 0.90094 0.0
Gd1000 Gd 0.10307 0.53419 0.83757 0.0
Gd1001 Gd 0.10781 0.54497 0.85691 0.0
C1002 C 0.05836 0.57156 0.84662 0.0
C1003 C 0.08187 0.50941 0.82179 0.0
C1004 C 0.06634 0.51109 0.81317 0.0
C1005 C 0.08004 0.54428 0.80843 0.0
C1006 C 0.04076 0.47785 0.8091 0.0
C1007 C 0.0446 0.51039 0.79549 0.0
C1008 C 0.03004 0.47745 0.8004 0.0
C1009 C 0.06922 0.54393 0.79971 0.0
C1010 C 0.15878 0.60177 0.84229 0.0
C1011 C 0.16439 0.5239 0.84748 0.0
C1012 C 0.12497 0.56009 0.87338 0.0
C1013 C 0.13253 0.5461 0.88167 0.0
C1014 C 0.10348 0.52069 0.88705 0.0
C1015 C 0.16903 0.56127 0.88477 0.0
C1016 C 0.14722 0.5271 0.89853 0.0
C1017 C 0.17628 0.55185 0.89305 0.0
C1018 C 0.11072 0.51125 0.89534 0.0
C1019 C 0.05658 0.47494 0.85151 0.0
O1020 O 0.06063 0.55291 0.83984 0.0
O1021 O 0.07843 0.57646 0.85371 0.0
O1022 O 0.11515 0.53593 0.82379 0.0
O1023 O 0.05995 0.49611 0.82859 0.0
O1024 O 0.15924 0.58328 0.83553 0.0
O1025 O 0.1272 0.58515 0.84592 0.0
O1026 O 0.15821 0.53966 0.85425 0.0
O1027 O 0.14208 0.51306 0.84062 0.0
O1028 O 0.09106 0.54361 0.87041 0.0
O1029 O 0.14951 0.57087 0.86711 0.0
O1030 O 0.05178 0.49231 0.85791 0.0
O1031 O 0.08864 0.49496 0.8485 0.0
H1032 H 0.09995 0.57037 0.81137 0.0
H1033 H 0.03019 0.45181 0.81254 0.0
H1034 H 1.0115 0.45098 0.79742 0.0
H1035 H 0.08061 0.56996 0.79624 0.0
H1036 H 0.07495 0.5088 0.88497 0.0
H1037 H 0.19209 0.58122 0.88086 0.0
H1038 H 0.20478 0.56426 0.89518 0.0
H1039 H 0.08751 0.49247 0.89936 0.0
Gd1040 Gd 0.4903 0.57576 0.83775 0.0
Gd1041 Gd 0.47852 0.56857 0.85709 0.0
C1042 C 0.45141 0.49281 0.84656 0.0
C1043 C 0.51597 0.57966 0.82205 0.0
C1044 C 0.51433 0.5624 0.81343 0.0
C1045 C 0.48113 0.54264 0.80871 0.0
C1046 C 0.5476 0.57015 0.80937 0.0
C1047 C 0.51505 0.54087 0.7958 0.0
C1048 C 0.54802 0.55959 0.80069 0.0
C1049 C 0.48148 0.53192 0.80001 0.0
C1050 C 0.42271 0.56393 0.84233 0.0
C1051 C 0.50027 0.64693 0.84781 0.0
C1052 C 0.46293 0.5704 0.87354 0.0
C1053 C 0.47684 0.59235 0.88178 0.0
C1054 C 0.49153 0.58035 0.88846 0.0
C1055 C 0.47225 0.62297 0.88346 0.0
C1056 C 0.49573 0.62829 0.89839 0.0
C1057 C 0.48162 0.6407 0.89163 0.0
C1058 C 0.50095 0.5981 0.89662 0.0
C1059 C 0.54874 0.58746 0.85184 0.0
O1060 O 0.46977 0.51409 0.83979 0.0
O1061 O 0.44726 0.50759 0.85381 0.0
O1062 O 0.4897 0.58686 0.82397 0.0
O1063 O 0.52861 0.57056 0.82889 0.0
O1064 O 0.44158 0.58324 0.83564 0.0
O1065 O 0.43899 0.54865 0.84597 0.0
O1066 O 0.4844 0.62468 0.85453 0.0
O1067 O 0.51121 0.63577 0.84092 0.0
O1068 O 0.48002 0.55351 0.87063 0.0
O1069 O 0.4517 0.58347 0.86721 0.0
O1070 O 0.53097 0.56495 0.85816 0.0
O1071 O 0.52897 0.59975 0.84882 0.0
H1072 H 0.455 0.53636 0.81164 0.0
H1073 H 0.57366 0.58583 0.8128 0.0
H1074 H 0.57451 0.56757 0.79771 0.0
H1075 H 0.45542 0.51702 0.79655 0.0
H1076 H 0.49484 0.55648 0.88748 0.0
H1077 H 0.46072 0.63287 0.87852 0.0
H1078 H 0.4776 0.6641 0.89267 0.0
H1079 H 0.51118 0.58726 0.90165 0.0
Gd1080 Gd 0.59184 0.78065 0.02175 0.0
Gd1081 Gd 0.58408 0.78644 1.00105 0.0
C1082 C 0.63731 0.86222 1.01227 0.0
C1083 C 0.61552 0.77644 0.03719 0.0
C1084 C 0.62909 0.79276 0.04598 0.0
C1085 C 0.61253 0.80919 0.05084 0.0
C1086 C 0.65655 0.78779 0.04998 0.0
C1087 C 0.64938 0.81342 0.06374 0.0
C1088 C 0.66654 0.7979 0.05872 0.0
C1089 C 0.62263 0.81949 0.0596 0.0
C1090 C 0.53676 0.79299 0.01668 0.0
C1091 C 0.5304 0.70996 1.01123 0.0
C1092 C 0.56362 0.79115 0.98532 0.0
C1093 C 0.55672 0.77237 0.97669 0.0
C1094 C 0.58019 0.76029 0.9733 0.0
C1095 C 0.52657 0.76747 0.97162 0.0
C1096 C 0.54374 0.73945 0.9598 0.0
C1097 C 0.52012 0.75123 0.9633 0.0
C1098 C 0.57382 0.74411 0.96496 0.0
C1099 C 0.62883 0.75706 1.0049 0.0
O1100 O 0.63084 0.84223 0.01952 0.0
O1101 O 0.62161 0.847 1.00465 0.0
O1102 O 0.58068 0.76431 0.03532 0.0
O1103 O 0.63751 0.79056 0.03042 0.0
O1104 O 0.53738 0.77816 0.0241 0.0
O1105 O 0.56777 0.80542 0.01292 0.0
O1106 O 0.53388 0.73224 1.00469 0.0
O1107 O 0.55453 0.72096 0.01777 0.0
O1108 O 0.59805 0.80996 0.98804 0.0
O1109 O 0.54011 0.77292 0.99162 0.0
O1110 O 0.62128 0.76305 0.99707 0.0
O1111 O 0.61236 0.76753 1.01002 0.0
H1112 H 0.59115 0.81326 0.04794 0.0
H1113 H 0.66939 0.77472 0.04643 0.0
H1114 H 0.68676 0.79214 0.06163 0.0
H1115 H 0.60916 0.83188 0.06316 0.0
H1116 H 0.60359 0.76351 0.97707 0.0
H1117 H 0.50814 0.77667 0.97405 0.0
H1118 H 0.49698 0.74866 0.95954 0.0
H1119 H 0.59235 0.73497 0.96257 0.0
Gd1120 Gd 0.24459 0.81917 0.02208 0.0
Gd1121 Gd 0.23851 0.80346 1.00152 0.0
C1122 C 0.16254 0.77935 1.01266 0.0
C1123 C 0.24795 0.8473 0.03746 0.0
C1124 C 0.23112 0.84212 0.04633 0.0
C1125 C 0.23591 0.82058 0.05271 0.0
C1126 C 0.21471 0.86298 0.04886 0.0
C1127 C 0.21035 0.84267 0.06405 0.0
C1128 C 0.20432 0.86314 0.05759 0.0
C1129 C 0.22563 0.8208 0.06143 0.0
C1130 C 0.23409 0.75184 0.0176 0.0
C1131 C 0.3155 0.82857 1.01167 0.0
C1132 C 0.23511 0.77845 0.98584 0.0
C1133 C 0.2535 0.79136 0.97715 0.0
C1134 C 0.2466 0.81461 0.97176 0.0
C1135 C 0.27672 0.77865 0.97394 0.0
C1136 C 0.2855 0.81179 0.96015 0.0
C1137 C 0.2926 0.7888 0.96558 0.0
C1138 C 0.26238 0.82467 0.96339 0.0
C1139 C 0.26559 0.87772 1.00505 0.0
O1140 O 0.1826 0.7954 0.01978 0.0
O1141 O 0.17778 0.77729 1.0052 0.0
O1142 O 0.26363 0.82788 0.03546 0.0
O1143 O 0.23181 0.85288 0.03075 0.0
O1144 O 0.24954 0.7691 0.02481 0.0
O1145 O 0.22064 0.76901 0.0136 0.0
O1146 O 0.29325 0.80903 1.0052 0.0
O1147 O 0.30443 0.84214 0.0181 0.0
O1148 O 0.21398 0.79138 0.98859 0.0
O1149 O 0.25453 0.77497 0.99214 0.0
O1150 O 0.25875 0.86357 0.99729 0.0
O1151 O 0.25666 0.85126 1.01021 0.0
H1152 H 0.24895 0.80454 0.05106 0.0
H1153 H 0.21101 0.88024 0.04416 0.0
H1154 H 0.19208 0.87985 0.05928 0.0
H1155 H 0.23121 0.805 0.06618 0.0
H1156 H 0.22874 0.82486 0.97396 0.0
H1157 H 0.28224 0.76032 0.97785 0.0
H1158 H 0.30977 0.77784 0.96331 0.0
H1159 H 0.25658 0.84276 0.95947 0.0
Gd1160 Gd 0.20588 0.43302 0.02157 0.0
Gd1161 Gd 0.21755 0.43731 1.00229 0.0
C1162 C 0.24416 0.38838 1.01285 0.0
C1163 C 0.18033 0.41136 0.03729 0.0
C1164 C 0.18277 0.39654 0.04598 0.0
C1165 C 0.21157 0.41791 0.05189 0.0
C1166 C 0.15295 0.36291 0.04894 0.0
C1167 C 0.17909 0.37367 0.06368 0.0
C1168 C 0.15116 0.35157 0.05764 0.0
C1169 C 0.20979 0.40657 0.06061 0.0
C1170 C 0.27378 0.48855 0.01704 0.0
C1171 C 0.19653 0.49443 1.0115 0.0
C1172 C 0.23331 0.45441 0.98583 0.0
C1173 C 0.21945 0.46185 0.97752 0.0
C1174 C 0.18986 0.43338 0.97282 0.0
C1175 C 0.23848 0.4973 0.97375 0.0
C1176 C 0.19959 0.4755 0.96066 0.0
C1177 C 0.22865 0.50408 0.96547 0.0
C1178 C 0.18006 0.44014 0.96453 0.0
C1179 C 0.14702 0.38637 1.00753 0.0
O1180 O 0.22586 0.39147 0.01959 0.0
O1181 O 0.24852 0.40738 1.00559 0.0
O1182 O 0.20542 0.44525 0.03528 0.0
O1183 O 0.16847 0.38926 0.0305 0.0
O1184 O 0.25498 0.48898 0.02374 0.0
O1185 O 0.25732 0.45701 0.01338 0.0
O1186 O 0.21266 0.48811 1.00482 0.0
O1187 O 0.18498 0.47201 0.01833 0.0
O1188 O 0.21681 0.42054 0.98883 0.0
O1189 O 0.24379 0.47898 0.99208 0.0
O1190 O 0.16466 0.38145 1.00122 0.0
O1191 O 0.16706 0.41843 1.01054 0.0
H1192 H 0.23481 0.44421 0.04989 0.0
H1193 H 0.13014 0.34599 0.04459 0.0
H1194 H 0.1274 0.32574 0.05968 0.0
H1195 H 0.23171 0.42455 0.06504 0.0
H1196 H 0.17465 0.40564 0.97547 0.0
H1197 H 0.26176 0.5197 0.97711 0.0
H1198 H 0.24474 0.53154 0.96271 0.0
H1199 H 0.1572 0.41751 0.96112 0.0
Gd1200 Gd 0.23835 0.43558 0.50181 0.0
Gd1201 Gd 0.24581 0.43284 0.5211 0.0
C1202 C 0.31684 0.49291 0.51084 0.0
C1203 C 0.23941 0.45132 0.48528 0.0
C1204 C 0.26078 0.45862 0.47697 0.0
C1205 C 0.25936 0.42964 0.47196 0.0
C1206 C 0.27983 0.49466 0.47351 0.0
C1207 C 0.29463 0.47254 0.46014 0.0
C1208 C 0.29659 0.50156 0.46524 0.0
C1209 C 0.27609 0.43652 0.46367 0.0
C1210 C 0.25719 0.38465 0.50735 0.0
C1211 C 0.16306 0.38752 0.51239 0.0
C1212 C 0.24987 0.4146 0.53719 0.0
C1213 C 0.23264 0.40102 0.54596 0.0
C1214 C 0.23619 0.42636 0.55249 0.0
C1215 C 0.21778 0.36368 0.54833 0.0
C1216 C 0.21236 0.37779 0.56363 0.0
C1217 C 0.20763 0.3522 0.55703 0.0
C1218 C 0.22615 0.41494 0.56117 0.0
C1219 C 0.23408 0.48805 0.51592 0.0
O1220 O 0.29431 0.48636 0.50417 0.0
O1221 O 0.3059 0.4708 0.51773 0.0
O1222 O 0.2224 0.41763 0.48839 0.0
O1223 O 0.25327 0.47634 0.49144 0.0
O1224 O 0.23434 0.37934 0.50107 0.0
O1225 O 0.26972 0.41695 0.51025 0.0
O1226 O 0.18454 0.38927 0.519 0.0
O1227 O 0.17783 0.40796 0.50533 0.0
O1228 O 0.25747 0.44768 0.53475 0.0
O1229 O 0.24067 0.39146 0.53062 0.0
O1230 O 0.25458 0.49016 0.52248 0.0
O1231 O 0.2181 0.45574 0.51274 0.0
H1232 H 0.24468 0.40144 0.47434 0.0
H1233 H 0.28093 0.51754 0.4771 0.0
H1234 H 0.31005 0.52957 0.46274 0.0
H1235 H 0.27434 0.41349 0.46002 0.0
H1236 H 0.24824 0.45549 0.55098 0.0
H1237 H 0.21513 0.34344 0.54353 0.0
H1238 H 0.19659 0.32326 0.55859 0.0
H1239 H 0.23082 0.43571 0.56602 0.0
Gd1240 Gd 0.58383 0.804 0.50104 0.0
Gd1241 Gd 0.59127 0.81859 0.52163 0.0
C1242 C 0.53184 0.82996 0.5109 0.0
C1243 C 0.56271 0.77889 0.48534 0.0
C1244 C 0.55663 0.79138 0.47668 0.0
C1245 C 0.58574 0.82028 0.47197 0.0
C1246 C 0.52127 0.77289 0.47286 0.0
C1247 C 0.54421 0.81143 0.45975 0.0
C1248 C 0.5151 0.78281 0.46453 0.0
C1249 C 0.5796 0.83012 0.46361 0.0
C1250 C 0.63087 0.87793 0.50479 0.0
C1251 C 0.63482 0.77963 0.51247 0.0
C1252 C 0.61438 0.84564 0.53716 0.0
C1253 C 0.62827 0.84246 0.5459 0.0
C1254 C 0.60668 0.81283 0.55159 0.0
C1255 C 0.66136 0.87225 0.54909 0.0
C1256 C 0.64962 0.84446 0.56366 0.0
C1257 C 0.67195 0.87323 0.55783 0.0
C1258 C 0.61729 0.81378 0.56035 0.0
C1259 C 0.53424 0.75208 0.51666 0.0
O1260 O 0.53486 0.81052 0.50444 0.0
O1261 O 0.55588 0.84285 0.51746 0.0
O1262 O 0.59695 0.79289 0.48809 0.0
O1263 O 0.53951 0.77461 0.49164 0.0
O1264 O 0.62421 0.86416 0.49698 0.0
O1265 O 0.61269 0.85131 0.50987 0.0
O1266 O 0.6287 0.79385 0.51965 0.0
O1267 O 0.6195 0.77926 0.50481 0.0
O1268 O 0.57974 0.82241 0.53523 0.0
O1269 O 0.63644 0.85505 0.53036 0.0
O1270 O 0.53472 0.76959 0.52372 0.0
O1271 O 0.56575 0.76887 0.51301 0.0
H1272 H 0.61337 0.8352 0.4747 0.0
H1273 H 0.49837 0.75029 0.47627 0.0
H1274 H 0.48759 0.76738 0.46176 0.0
H1275 H 0.60263 0.85259 0.4602 0.0
H1276 H 0.58083 0.78954 0.54939 0.0
H1277 H 0.67841 0.89562 0.5449 0.0
H1278 H 0.69737 0.897 0.56006 0.0
H1279 H 0.59919 0.79121 0.56462 0.0
Gd1280 Gd 0.21755 0.78602 0.50219 0.0
Gd1281 Gd 0.20583 0.77758 0.5214 0.0
C1282 C 0.19769 0.70789 0.51111 0.0
C1283 C 0.23313 0.78514 0.48571 0.0
C1284 C 0.21916 0.76358 0.47743 0.0
C1285 C 0.18858 0.76104 0.47291 0.0
C1286 C 0.23886 0.74814 0.47354 0.0
C1287 C 0.1986 0.72917 0.46068 0.0
C1288 C 0.2287 0.7311 0.46532 0.0
C1289 C 0.17844 0.74405 0.46466 0.0
C1290 C 0.14692 0.76564 0.50739 0.0
C1291 C 0.24287 0.86075 0.51279 0.0
C1292 C 0.1808 0.77299 0.53722 0.0
C1293 C 0.18337 0.79017 0.54593 0.0
C1294 C 0.2124 0.7978 0.55178 0.0
C1295 C 0.15353 0.79375 0.54896 0.0
C1296 C 0.18019 0.80942 0.56365 0.0
C1297 C 0.15199 0.80333 0.55767 0.0
C1298 C 0.21087 0.8074 0.56051 0.0
C1299 C 0.27421 0.79133 0.51679 0.0
O1300 O 0.21409 0.73118 0.5046 0.0
O1301 O 0.1853 0.71769 0.51797 0.0
O1302 O 0.21631 0.80208 0.48874 0.0
O1303 O 0.24412 0.77138 0.49192 0.0
O1304 O 0.16469 0.7888 0.50119 0.0
O1305 O 0.16692 0.75352 0.51038 0.0
O1306 O 0.22419 0.83898 0.51947 0.0
O1307 O 0.24831 0.8465 0.50562 0.0
O1308 O 0.20622 0.76485 0.53509 0.0
O1309 O 0.16827 0.78285 0.53048 0.0
O1310 O 0.25541 0.77131 0.5234 0.0
O1311 O 0.25741 0.80631 0.51327 0.0
H1312 H 0.17281 0.77276 0.47566 0.0
H1313 H 0.26286 0.75009 0.47678 0.0
H1314 H 0.2453 0.72052 0.46246 0.0
H1315 H 0.1548 0.7427 0.46138 0.0
H1316 H 0.23566 0.79493 0.54973 0.0
H1317 H 0.13054 0.7877 0.54466 0.0
H1318 H 0.12823 0.80525 0.55977 0.0
H1319 H 0.233 0.81153 0.56489 0.0
Gd1320 Gd 0.1079 0.5673 0.35701 0.0
Gd1321 Gd 0.10358 0.57388 0.33777 0.0
C1322 C 0.16428 0.64543 0.34771 0.0
C1323 C 0.12473 0.56913 0.3735 0.0
C1324 C 0.13165 0.59034 0.38182 0.0
C1325 C 0.10226 0.58503 0.3873 0.0
C1326 C 0.16807 0.61308 0.38484 0.0
C1327 C 0.14559 0.62364 0.39871 0.0
C1328 C 0.17494 0.62956 0.39314 0.0
C1329 C 0.10913 0.60155 0.3956 0.0
C1330 C 0.05638 0.58579 0.3517 0.0
C1331 C 0.05927 0.49155 0.34667 0.0
C1332 C 0.08353 0.57699 0.32183 0.0
C1333 C 0.06908 0.55911 0.31318 0.0
C1334 C 0.09044 0.55052 0.30756 0.0
C1335 C 0.03608 0.55589 0.30993 0.0
C1336 C 0.04747 0.53862 0.29547 0.0
C1337 C 0.02532 0.54565 0.30122 0.0
C1338 C 0.07975 0.54039 0.29884 0.0
C1339 C 0.15944 0.56255 0.34265 0.0
O1340 O 0.15848 0.62314 0.35439 0.0
O1341 O 0.14151 0.63414 0.34094 0.0
O1342 O 0.0909 0.55108 0.37047 0.0
O1343 O 0.14938 0.58365 0.36726 0.0
O1344 O 0.05159 0.56321 0.358 0.0
O1345 O 0.08847 0.59822 0.34866 0.0
O1346 O 0.06032 0.51272 0.34007 0.0
O1347 O 0.08033 0.50666 0.35363 0.0
O1348 O 0.11695 0.58499 0.32406 0.0
O1349 O 0.06098 0.56795 0.32851 0.0
O1350 O 0.16078 0.58266 0.33607 0.0
O1351 O 0.12744 0.54669 0.34602 0.0
H1352 H 0.07382 0.56726 0.38528 0.0
H1353 H 0.19141 0.61748 0.38087 0.0
H1354 H 0.2034 0.64679 0.39521 0.0
H1355 H 0.08573 0.59588 0.3997 0.0
H1356 H 0.11617 0.55291 0.30979 0.0
H1357 H 0.01934 0.56292 0.31403 0.0
H1358 H 1.00051 0.54498 0.29888 0.0
H1359 H 0.09723 0.53461 0.29467 0.0
Gd1360 Gd 0.45661 0.54517 0.35664 0.0
Gd1361 Gd 0.44899 0.53227 0.33735 0.0
C1362 C 0.37898 0.5251 0.3474 0.0
C1363 C 0.45525 0.5621 0.373 0.0
C1364 C 0.43414 0.54805 0.38134 0.0
C1365 C 0.43572 0.52058 0.38635 0.0
C1366 C 0.41494 0.56486 0.38479 0.0
C1367 C 0.40058 0.52816 0.39819 0.0
C1368 C 0.39833 0.55502 0.39307 0.0
C1369 C 0.41909 0.51071 0.39464 0.0
C1370 C 0.43652 0.47429 0.35179 0.0
C1371 C 0.53184 0.57006 0.34616 0.0
C1372 C 0.44449 0.5061 0.32167 0.0
C1373 C 0.46155 0.50804 0.31301 0.0
C1374 C 0.48051 0.54123 0.30825 0.0
C1375 C 0.45442 0.47497 0.30894 0.0
C1376 C 0.48268 0.50768 0.29531 0.0
C1377 C 0.46478 0.47474 0.30023 0.0
C1378 C 0.49102 0.54106 0.29952 0.0
C1379 C 0.46234 0.60069 0.34169 0.0
O1380 O 0.40204 0.54184 0.35393 0.0
O1381 O 0.38898 0.51224 0.34066 0.0
O1382 O 0.47382 0.54672 0.3701 0.0
O1383 O 0.44014 0.57108 0.36668 0.0
O1384 O 0.45824 0.492 0.35822 0.0
O1385 O 0.42486 0.49419 0.3485 0.0
O1386 O 0.51041 0.55109 0.33947 0.0
O1387 O 0.51726 0.57569 0.35326 0.0
O1388 O 0.43664 0.53187 0.32362 0.0
O1389 O 0.45448 0.49415 0.32848 0.0
O1390 O 0.44285 0.58173 0.33504 0.0
O1391 O 0.47714 0.58407 0.34538 0.0
H1392 H 0.45059 0.50726 0.38397 0.0
H1393 H 0.41344 0.58633 0.38115 0.0
H1394 H 0.38387 0.5687 0.39548 0.0
H1395 H 0.42186 0.49023 0.39839 0.0
H1396 H 0.4863 0.5672 0.31118 0.0
H1397 H 0.43937 0.44891 0.3124 0.0
H1398 H 0.45729 0.44837 0.29726 0.0
H1399 H 0.50528 0.5671 0.29604 0.0
Gd1400 Gd 0.47836 0.91319 0.35685 0.0
Gd1401 Gd 0.49084 0.9205 0.33753 0.0
C1402 C 0.50074 0.85829 0.34714 0.0
C1403 C 0.46126 0.89343 0.37312 0.0
C1404 C 0.47491 0.88529 0.38137 0.0
C1405 C 0.50158 0.91377 0.38666 0.0
C1406 C 0.45838 0.84872 0.38447 0.0
C1407 C 0.49372 0.86935 0.3981 0.0
C1408 C 0.46771 0.84084 0.39269 0.0
C1409 C 0.51092 0.9059 0.39489 0.0
C1410 C 0.54896 0.96531 0.352 0.0
C1411 C 0.45257 0.96376 0.34677 0.0
C1412 C 0.51609 0.94314 0.32183 0.0
C1413 C 0.51334 0.95787 0.31316 0.0
C1414 C 0.48404 0.93668 0.30736 0.0
C1415 C 0.54337 0.99112 0.31011 0.0
C1416 C 0.51645 0.98023 0.29545 0.0
C1417 C 0.54488 1.00222 0.30139 0.0
C1418 C 0.48553 0.94778 0.29863 0.0
C1419 C 0.42269 0.86438 0.34188 0.0
O1420 O 0.4839 0.86326 0.35386 0.0
O1421 O 0.51242 0.88168 0.34048 0.0
O1422 O 0.47709 0.92773 0.37042 0.0
O1423 O 0.45204 0.86988 0.36666 0.0
O1424 O 0.53122 0.96847 0.35855 0.0
O1425 O 0.52923 0.93396 0.34859 0.0
O1426 O 0.47293 0.96339 0.34015 0.0
O1427 O 0.44618 0.94193 0.35361 0.0
O1428 O 0.49153 0.90901 0.32379 0.0
O1429 O 0.52748 0.96504 0.32866 0.0
O1430 O 0.44134 0.86471 0.33508 0.0
O1431 O 0.43932 0.89553 0.34566 0.0
H1432 H 0.51463 0.94235 0.38456 0.0
H1433 H 0.43749 0.82613 0.38062 0.0
H1434 H 0.45425 0.8123 0.39483 0.0
H1435 H 0.53075 0.9287 0.39887 0.0
H1436 H 0.46061 0.91069 0.30945 0.0
H1437 H 0.56654 1.00788 0.31438 0.0
H1438 H 0.56883 0.02772 0.29927 0.0
H1439 H 0.46322 0.92991 0.29428 0.0
H1440 H 0.16296 0.18782 0.18933 0.0
H1441 H 0.10823 0.13814 0.16501 0.0
H1442 H 0.1775 0.13782 0.19129 0.0
H1443 H 0.12285 0.08919 0.16689 0.0
H1444 H 0.184 0.02653 0.16762 0.0
H1445 H 0.17857 0.08197 0.16678 0.0
H1446 H 0.14325 0.06738 0.1937 0.0
H1447 H 0.1487 0.01181 0.19458 0.0
C1448 C 0.15412 0.16637 0.18442 0.0
C1449 C 0.1346 0.16709 0.177 0.0
C1450 C 0.16237 0.13775 0.18554 0.0
C1451 C 0.15178 0.10974 0.17918 0.0
C1452 C 0.13212 0.11062 0.17183 0.0
C1453 C 0.1235 0.13867 0.17078 0.0
C1454 C 0.17568 0.03539 0.17342 0.0
C1455 C 0.16654 0.01439 0.18114 0.0
C1456 C 0.17235 0.06712 0.17292 0.0
C1457 C 0.16007 0.07895 0.18014 0.0
C1458 C 0.15291 0.05918 0.18802 0.0
C1459 C 0.15591 0.02718 0.1885 0.0
H1460 H 0.99652 0.16554 0.16754 0.0
H1461 H 1.0086 0.1429 0.1945 0.0
H1462 H 0.94008 0.10525 0.16646 0.0
H1463 H 0.95226 0.08265 0.19339 0.0
H1464 H 0.8331 0.98276 0.18916 0.0
H1465 H 0.88273 0.0476 0.19095 0.0
H1466 H 0.93047 0.04157 0.16641 0.0
H1467 H 0.88179 0.97765 0.16469 0.0
C1468 C 0.98684 0.14809 0.17328 0.0
C1469 C 1.00741 0.15914 0.18108 0.0
C1470 C 0.95457 0.11335 0.17265 0.0
C1471 C 0.94176 0.08886 0.17982 0.0
C1472 C 0.96114 0.10079 0.18776 0.0
C1473 C 0.99363 0.13535 0.18837 0.0
C1474 C 0.85416 0.99549 0.18415 0.0
C1475 C 0.85341 0.97504 0.17678 0.0
C1476 C 0.88261 0.03254 0.18518 0.0
C1477 C 0.91044 0.04999 0.17877 0.0
C1478 C 0.90923 0.02941 0.1714 0.0
C1479 C 0.88135 0.99252 0.17044 0.0
H1480 H 0.03938 0.85536 0.18929 0.0
H1481 H 0.046 0.91136 0.16506 0.0
H1482 H 0.97459 0.84052 0.19102 0.0
H1483 H 0.98225 0.89649 0.16672 0.0
H1484 H 0.8792 0.87191 0.19427 0.0
H1485 H 0.93955 0.87578 0.19345 0.0
H1486 H 0.91882 0.8414 0.16646 0.0
H1487 H 0.85862 0.8376 0.16724 0.0
C1488 C 0.027 0.86426 0.18433 0.0
C1489 C 0.0478 0.88439 0.17703 0.0
C1490 C 0.99002 0.85588 0.18532 0.0
C1491 C 0.97308 0.86695 0.17895 0.0
C1492 C 0.99406 0.88689 0.17167 0.0
C1493 C 0.03083 0.89564 0.17075 0.0
C1494 C 0.88721 0.86458 0.18819 0.0
C1495 C 0.86404 0.85475 0.18079 0.0
C1496 C 0.92178 0.86664 0.18775 0.0
C1497 C 0.93421 0.85928 0.17987 0.0
C1498 C 0.91029 0.84772 0.1726 0.0
C1499 C 0.87564 0.84535 0.17306 0.0
H1500 H 0.14632 0.10651 0.36163 0.0
H1501 H 0.19533 0.16198 0.33732 0.0
H1502 H 0.09765 0.1218 0.36003 0.0
H1503 H 0.14581 0.17731 0.33567 0.0
H1504 H 0.02078 0.14819 0.3321 0.0
H1505 H 0.0767 0.14359 0.33314 0.0
H1506 H 0.08807 0.17564 0.36028 0.0
H1507 H 0.032 0.18011 0.35927 0.0
C1508 C 0.14683 0.1222 0.35594 0.0
C1509 C 0.17484 0.13312 0.34961 0.0
C1510 C 0.11896 0.13122 0.35506 0.0
C1511 C 0.11791 0.15112 0.34777 0.0
C1512 C 0.1458 0.16194 0.34137 0.0
C1513 C 0.17418 0.15325 0.34232 0.0
C1514 C 0.03548 0.15485 0.33827 0.0
C1515 C 0.02161 0.16428 0.34563 0.0
C1516 C 0.06771 0.15236 0.33884 0.0
C1517 C 0.08675 0.15888 0.34681 0.0
C1518 C 0.07382 0.16995 0.35406 0.0
C1519 C 0.04178 0.17277 0.35347 0.0
H1520 H 0.87752 0.87657 0.33173 0.0
H1521 H 0.84143 0.8542 0.35862 0.0
H1522 H 0.88212 0.93712 0.33276 0.0
H1523 H 0.84593 0.91466 0.35961 0.0
H1524 H 0.91539 0.04183 0.36151 0.0
H1525 H 0.9004 0.97804 0.35975 0.0
H1526 H 0.84766 0.9723 0.33507 0.0
H1527 H 0.86266 0.03699 0.33689 0.0
C1528 C 0.86996 0.88425 0.33782 0.0
C1529 C 0.85937 0.86048 0.34512 0.0
C1530 C 0.87245 0.91897 0.33839 0.0
C1531 C 0.86476 0.93096 0.34629 0.0
C1532 C 0.85253 0.9065 0.35346 0.0
C1533 C 0.84973 0.87168 0.35287 0.0
C1534 C 0.90037 0.02704 0.35572 0.0
C1535 C 0.89009 0.04451 0.34935 0.0
C1536 C 0.89154 0.99026 0.35474 0.0
C1537 C 0.87249 0.96982 0.34731 0.0
C1538 C 0.86236 0.98728 0.34087 0.0
C1539 C 0.87083 0.02423 0.34192 0.0
H1540 H 0.98764 0.82812 0.33703 0.0
H1541 H 0.98047 0.87719 0.36124 0.0
H1542 H 0.05275 0.87748 0.33551 0.0
H1543 H 0.04461 0.92565 0.35977 0.0
H1544 H 0.16853 0.99123 0.3593 0.0
H1545 H 0.10803 0.93494 0.36018 0.0
H1546 H 0.08819 0.94674 0.33301 0.0
H1547 H 0.14868 1.00286 0.3321 0.0
C1548 C 0.99997 0.84923 0.34203 0.0
C1549 C 0.97891 0.84866 0.34926 0.0
C1550 C 0.03716 0.8775 0.34116 0.0
C1551 C 0.05407 0.90535 0.34757 0.0
C1552 C 0.03285 0.90436 0.3548 0.0
C1553 C 0.99586 0.87662 0.3556 0.0
C1554 C 0.15162 0.9815 0.35347 0.0
C1555 C 0.16347 1.00184 0.34565 0.0
C1556 C 0.11679 0.94932 0.35398 0.0
C1557 C 0.09304 0.93648 0.34668 0.0
C1558 C 0.10578 0.95567 0.33874 0.0
C1559 C 0.14045 0.98802 0.33824 0.0
H1560 H 0.92011 0.88115 0.86103 0.0
H1561 H 0.85976 0.8294 0.8374 0.0
H1562 H 0.9053 0.93005 0.85944 0.0
H1563 H 0.84485 0.87925 0.83576 0.0
H1564 H 0.87436 1.00434 0.83178 0.0
H1565 H 0.87845 0.94818 0.8328 0.0
H1566 H 0.85191 0.94001 0.86026 0.0
H1567 H 0.84805 0.99631 0.85929 0.0
C1568 C 0.90343 0.88008 0.85549 0.0
C1569 C 0.89098 0.85119 0.84936 0.0
C1570 C 0.8947 0.90811 0.85462 0.0
C1571 C 0.87351 0.90848 0.84754 0.0
C1572 C 0.86121 0.87977 0.84131 0.0
C1573 C 0.86964 0.85121 0.84225 0.0
C1574 C 0.86886 0.99035 0.83802 0.0
C1575 C 0.86121 1.00526 0.84548 0.0
C1576 C 0.87102 0.95794 0.83858 0.0
C1577 C 0.86591 0.93973 0.84662 0.0
C1578 C 0.85654 0.95363 0.85398 0.0
C1579 C 0.8541 0.98586 0.85341 0.0
H1580 H 0.14287 0.04517 0.86116 0.0
H1581 H 0.19308 0.04037 0.8369 0.0
H1582 H 0.09478 0.9811 0.85942 0.0
H1583 H 0.14399 0.97527 0.8351 0.0
H1584 H 0.03275 0.85743 0.85892 0.0
H1585 H 0.08805 0.9186 0.85972 0.0
H1586 H 0.07416 0.9381 0.83266 0.0
H1587 H 0.0189 0.87685 0.83182 0.0
C1588 C 0.14371 0.03036 0.85544 0.0
C1589 C 0.17199 0.0479 0.84919 0.0
C1590 C 0.11617 0.99341 0.85448 0.0
C1591 C 0.11573 0.97278 0.84719 0.0
C1592 C 0.14362 0.99039 0.84081 0.0
C1593 C 0.1717 0.02759 0.84183 0.0
C1594 C 0.0418 0.8744 0.85309 0.0
C1595 C 0.02107 0.86219 0.84533 0.0
C1596 C 0.07342 0.90962 0.85356 0.0
C1597 C 0.08533 0.93348 0.84628 0.0
C1598 C 0.06588 0.92045 0.83838 0.0
C1599 C 0.03405 0.88532 0.83792 0.0
H1600 H 1.00427 0.18174 0.86082 0.0
H1601 H 0.96793 0.11302 0.83783 0.0
H1602 H 0.06702 0.19396 0.85859 0.0
H1603 H 0.03038 0.12281 0.83584 0.0
H1604 H 0.15097 0.15913 0.8314 0.0
H1605 H 0.09192 0.15758 0.83228 0.0
H1606 H 0.10377 0.16897 0.86038 0.0
H1607 H 0.16364 0.17283 0.85934 0.0
C1608 C 1.00986 0.16928 0.85525 0.0
C1609 C 0.98123 0.14652 0.84949 0.0
C1610 C 0.04591 0.17585 0.85402 0.0
C1611 C 0.05434 0.1589 0.84712 0.0
C1612 C 0.02561 0.13689 0.84119 0.0
C1613 C 0.9896 0.1311 0.84231 0.0
C1614 C 0.14118 0.16196 0.83774 0.0
C1615 C 0.16229 0.16639 0.84529 0.0
C1616 C 0.10692 0.16062 0.83828 0.0
C1617 C 0.09228 0.1629 0.84641 0.0
C1618 C 0.11392 0.16792 0.85394 0.0
C1619 C 0.14849 0.17003 0.85337 0.0
H1620 H 0.88309 0.91195 0.66434 0.0
H1621 H 0.83403 0.85645 0.68864 0.0
H1622 H 0.93184 0.89678 0.66596 0.0
H1623 H 0.88363 0.84124 0.69031 0.0
H1624 H 1.00877 0.87037 0.69384 0.0
H1625 H 0.95293 0.87515 0.69283 0.0
H1626 H 0.94105 0.84263 0.66572 0.0
H1627 H 0.99699 0.83797 0.6667 0.0
C1628 C 0.8826 0.89629 0.67003 0.0
C1629 C 0.85454 0.88529 0.67635 0.0
C1630 C 0.91051 0.88734 0.67093 0.0
C1631 C 0.91155 0.86745 0.67822 0.0
C1632 C 0.88363 0.85661 0.68461 0.0
C1633 C 0.85522 0.86521 0.68365 0.0
C1634 C 0.99397 0.86365 0.68769 0.0
C1635 C 1.00766 0.85403 0.68033 0.0
C1636 C 0.96179 0.86624 0.68713 0.0
C1637 C 0.94265 0.85964 0.67918 0.0
C1638 C 0.95539 0.84839 0.67193 0.0
C1639 C 0.98737 0.84547 0.6725 0.0
H1640 H 0.15393 0.14278 0.69377 0.0
H1641 H 0.18704 0.16321 0.66667 0.0
H1642 H 0.14948 0.08229 0.69287 0.0
H1643 H 0.18272 0.10275 0.6658 0.0
H1644 H 0.11282 0.97543 0.66449 0.0
H1645 H 0.12835 0.03942 0.66605 0.0
H1646 H 0.18339 0.04675 0.69047 0.0
H1647 H 0.16783 0.98178 0.68885 0.0
C1648 C 0.16088 0.13469 0.68765 0.0
C1649 C 0.17057 0.15788 0.68026 0.0
C1650 C 0.1585 0.10001 0.68716 0.0
C1651 C 0.16537 0.08744 0.67925 0.0
C1652 C 0.17676 0.11136 0.67198 0.0
C1653 C 0.17947 0.14617 0.67248 0.0
C1654 C 0.12847 0.9906 0.67018 0.0
C1655 C 0.13921 0.97346 0.67654 0.0
C1656 C 0.13763 0.02751 0.67104 0.0
C1657 C 0.15748 0.04848 0.67833 0.0
C1658 C 0.16809 0.03137 0.68477 0.0
C1659 C 0.15928 0.99425 0.68384 0.0
H1660 H 0.88059 0.01607 0.69363 0.0
H1661 H 0.86038 0.02649 0.66638 0.0
H1662 H 0.94108 0.0721 0.6926 0.0
H1663 H 0.92091 0.0827 0.66538 0.0
H1664 H 0.04853 0.14007 0.66428 0.0
H1665 H 0.98431 0.09181 0.66582 0.0
H1666 H 0.9765 0.14119 0.68992 0.0
H1667 H 0.04163 0.19033 0.68832 0.0
C1668 C 0.88874 0.03064 0.68744 0.0
C1669 C 0.86563 0.0165 0.68006 0.0
C1670 C 0.92341 0.06293 0.68688 0.0
C1671 C 0.93605 0.08174 0.67889 0.0
C1672 C 0.91221 0.06861 0.67161 0.0
C1673 C 0.87737 0.03649 0.67219 0.0
C1674 C 0.03319 0.14094 0.6699 0.0
C1675 C 0.05021 0.16915 0.67617 0.0
C1676 C 0.99617 0.11332 0.67074 0.0
C1677 C 0.97503 0.11274 0.67794 0.0
C1678 C 0.99203 0.14085 0.68429 0.0
C1679 C 0.02923 0.16899 0.68338 0.0
H1680 H 0.81832 0.34696 0.52755 0.0
H1681 H 0.85312 0.36045 0.50057 0.0
H1682 H 0.81394 0.40308 0.52661 0.0
H1683 H 0.84881 0.41654 0.49966 0.0
H1684 H 0.77904 0.47389 0.49803 0.0
H1685 H 0.79411 0.42518 0.49974 0.0
H1686 H 0.84855 0.47304 0.52421 0.0
H1687 H 0.8335 0.52275 0.52243 0.0
C1688 C 0.82565 0.36218 0.52146 0.0
C1689 C 0.83582 0.34889 0.51411 0.0
C1690 C 0.82329 0.39451 0.52094 0.0
C1691 C 0.83065 0.41417 0.51304 0.0
C1692 C 0.84247 0.40181 0.50582 0.0
C1693 C 0.84516 0.36972 0.50636 0.0
C1694 C 0.79446 0.47436 0.50377 0.0
C1695 C 0.8052 0.50238 0.51008 0.0
C1696 C 0.80333 0.44644 0.50471 0.0
C1697 C 0.82289 0.4453 0.51206 0.0
C1698 C 0.83347 0.47314 0.51846 0.0
C1699 C 0.82498 0.50163 0.51744 0.0
H1700 H 0.50027 0.31556 0.52256 0.0
H1701 H 0.54911 0.30909 0.49823 0.0
H1702 H 0.54999 0.38046 0.52421 0.0
H1703 H 0.59785 0.37301 0.49982 0.0
H1704 H 0.66268 0.49674 0.50039 0.0
H1705 H 0.60644 0.43631 0.49958 0.0
H1706 H 0.61993 0.41582 0.5266 0.0
H1707 H 0.67616 0.47635 0.52744 0.0
C1708 C 0.5214 0.328 0.51756 0.0
C1709 C 0.52065 0.30721 0.51026 0.0
C1710 C 0.54988 0.36505 0.51851 0.0
C1711 C 0.57771 0.38209 0.51209 0.0
C1712 C 0.57658 0.36112 0.5048 0.0
C1713 C 0.54865 0.32427 0.50393 0.0
C1714 C 0.65338 0.47971 0.50621 0.0
C1715 C 0.67424 0.49142 0.51396 0.0
C1716 C 0.62121 0.44492 0.50573 0.0
C1717 C 0.60885 0.42101 0.513 0.0
C1718 C 0.62852 0.43356 0.52089 0.0
C1719 C 0.66092 0.46825 0.52135 0.0
H1720 H 0.54771 0.2054 0.52773 0.0
H1721 H 0.52565 0.16977 0.50081 0.0
H1722 H 0.60824 0.20982 0.52674 0.0
H1723 H 0.58608 0.17411 0.49986 0.0
H1724 H 0.7133 0.24404 0.49805 0.0
H1725 H 0.64949 0.22898 0.49983 0.0
H1726 H 0.6434 0.17508 0.52435 0.0
H1727 H 0.70816 0.19012 0.52251 0.0
C1728 C 0.55544 0.1979 0.52164 0.0
C1729 C 0.53179 0.1875 0.51433 0.0
C1730 C 0.59014 0.20028 0.5211 0.0
C1731 C 0.60221 0.19269 0.5132 0.0
C1732 C 0.57784 0.18062 0.50601 0.0
C1733 C 0.54305 0.17792 0.50658 0.0
C1734 C 0.69844 0.22875 0.50381 0.0
C1735 C 0.71583 0.21814 0.51012 0.0
C1736 C 0.66165 0.21988 0.5048 0.0
C1737 C 0.64109 0.20047 0.51218 0.0
C1738 C 0.65848 0.19004 0.51858 0.0
C1739 C 0.69546 0.19854 0.51752 0.0
H1740 H 0.86132 0.49474 0.67059 0.0
H1741 H 0.81257 0.43867 0.69485 0.0
H1742 H 0.81111 0.50911 0.66892 0.0
H1743 H 0.76326 0.453 0.69324 0.0
H1744 H 0.6977 0.51143 0.69268 0.0
H1745 H 0.75365 0.50684 0.69357 0.0
H1746 H 0.74159 0.47481 0.66643 0.0
H1747 H 0.68564 0.47951 0.6655 0.0
C1748 C 0.84007 0.48567 0.67557 0.0
C1749 C 0.84104 0.4657 0.68286 0.0
C1750 C 0.8113 0.49378 0.67461 0.0
C1751 C 0.78331 0.48255 0.681 0.0
C1752 C 0.78462 0.46272 0.68828 0.0
C1753 C 0.81288 0.45427 0.68917 0.0
C1754 C 0.70721 0.50398 0.68685 0.0
C1755 C 0.68686 0.49561 0.67904 0.0
C1756 C 0.73923 0.50112 0.68738 0.0
C1757 C 0.75198 0.49009 0.68009 0.0
C1758 C 0.73272 0.48356 0.67215 0.0
C1759 C 0.70048 0.4861 0.67164 0.0
H1760 H 0.52936 0.20207 0.6653 0.0
H1761 H 0.52456 0.19622 0.69345 0.0
H1762 H 0.53184 0.26157 0.66581 0.0
H1763 H 0.52938 0.2566 0.69406 0.0
H1764 H 0.51983 0.35836 0.69386 0.0
H1765 H 0.50479 0.29419 0.6923 0.0
H1766 H 0.57019 0.32336 0.66861 0.0
H1767 H 0.58275 0.38689 0.66998 0.0
C1768 C 0.52871 0.21349 0.67161 0.0
C1769 C 0.52662 0.19427 0.67933 0.0
C1770 C 0.53056 0.24795 0.67192 0.0
C1771 C 0.5312 0.26465 0.67998 0.0
C1772 C 0.52826 0.2448 0.68769 0.0
C1773 C 0.52564 0.21001 0.68737 0.0
C1774 C 0.5302 0.35063 0.68823 0.0
C1775 C 0.55208 0.3773 0.68199 0.0
C1776 C 0.52206 0.3139 0.68737 0.0
C1777 C 0.53657 0.30307 0.68038 0.0
C1778 C 0.55784 0.32998 0.67402 0.0
C1779 C 0.56524 0.36658 0.67479 0.0
H1780 H 0.81476 0.33648 0.66551 0.0
H1781 H 0.83588 0.32491 0.69263 0.0
H1782 H 0.75427 0.2804 0.66655 0.0
H1783 H 0.7754 0.2687 0.69363 0.0
H1784 H 0.65402 0.16165 0.67078 0.0
H1785 H 0.71899 0.2111 0.66909 0.0
H1786 H 0.71196 0.2595 0.69342 0.0
H1787 H 0.64793 0.21095 0.69506 0.0
C1788 C 0.80682 0.32167 0.67166 0.0
C1789 C 0.8302 0.33549 0.67901 0.0
C1790 C 0.77214 0.28935 0.67223 0.0
C1791 C 0.75977 0.2702 0.68019 0.0
C1792 C 0.78387 0.28305 0.68743 0.0
C1793 C 0.81869 0.31518 0.68684 0.0
C1794 C 0.66656 0.18284 0.67576 0.0
C1795 C 0.64585 0.18231 0.68306 0.0
C1796 C 0.70367 0.21116 0.67479 0.0
C1797 C 0.72085 0.23909 0.68117 0.0
C1798 C 0.69998 0.23815 0.68847 0.0
C1799 C 0.66305 0.21035 0.68937 0.0
H1800 H 0.52935 0.16277 0.17009 0.0
H1801 H 0.58607 0.21315 0.19418 0.0
H1802 H 0.51439 0.21254 0.16829 0.0
H1803 H 0.57111 0.26189 0.19245 0.0
H1804 H 0.5111 0.3255 0.19206 0.0
H1805 H 0.51597 0.2697 0.19288 0.0
H1806 H 0.54812 0.28235 0.16574 0.0
H1807 H 0.54311 0.33811 0.16488 0.0
C1808 C 0.53854 0.18433 0.17498 0.0
C1809 C 0.55874 0.18389 0.18229 0.0
C1810 C 0.53002 0.2128 0.17396 0.0
C1811 C 0.54109 0.24094 0.1803 0.0
C1812 C 0.56143 0.24033 0.18754 0.0
C1813 C 0.57026 0.21241 0.1885 0.0
C1814 C 0.51856 0.3161 0.18622 0.0
C1815 C 0.527 0.3366 0.17843 0.0
C1816 C 0.52158 0.28419 0.1867 0.0
C1817 C 0.53285 0.27175 0.1794 0.0
C1818 C 0.53923 0.29102 0.17147 0.0
C1819 C 0.53652 0.32314 0.171 0.0
H1820 H 0.859 0.37059 0.17007 0.0
H1821 H 0.80843 0.37502 0.19431 0.0
H1822 H 0.80983 0.3056 0.16817 0.0
H1823 H 0.76026 0.31098 0.19248 0.0
H1824 H 0.69663 0.18698 0.19155 0.0
H1825 H 0.75237 0.24785 0.19261 0.0
H1826 H 0.74022 0.26934 0.16559 0.0
H1827 H 0.68458 0.20852 0.1645 0.0
C1828 C 0.83754 0.35774 0.17498 0.0
C1829 C 0.83772 0.37798 0.18234 0.0
C1830 C 0.8094 0.32059 0.17391 0.0
C1831 C 0.78131 0.30286 0.18024 0.0
C1832 C 0.78175 0.32335 0.18756 0.0
C1833 C 0.80934 0.36031 0.18857 0.0
C1834 C 0.7062 0.20431 0.18578 0.0
C1835 C 0.68582 0.1928 0.17796 0.0
C1836 C 0.73805 0.23937 0.1864 0.0
C1837 C 0.7506 0.26372 0.17921 0.0
C1838 C 0.73149 0.25133 0.17125 0.0
C1839 C 0.69943 0.21643 0.17065 0.0
H1840 H 0.83712 0.51663 0.19153 0.0
H1841 H 0.81423 0.4804 0.16466 0.0
H1842 H 0.77691 0.51289 0.19253 0.0
H1843 H 0.75404 0.47662 0.16569 0.0
H1844 H 0.65413 0.49595 0.16978 0.0
H1845 H 0.71903 0.51131 0.168 0.0
H1846 H 0.71323 0.45853 0.19267 0.0
H1847 H 0.64927 0.44311 0.19438 0.0
C1848 C 0.81964 0.50855 0.18578 0.0
C1849 C 0.83059 0.49856 0.17804 0.0
C1850 C 0.78495 0.50616 0.18637 0.0
C1851 C 0.7604 0.49408 0.17921 0.0
C1852 C 0.77224 0.48618 0.17132 0.0
C1853 C 0.80677 0.4882 0.17075 0.0
C1854 C 0.66693 0.48787 0.17482 0.0
C1855 C 0.64653 0.46838 0.18222 0.0
C1856 C 0.70401 0.49656 0.1738 0.0
C1857 C 0.72153 0.48648 0.18024 0.0
C1858 C 0.701 0.46735 0.18766 0.0
C1859 C 0.6641 0.45826 0.1886 0.0
H1860 H 0.67612 0.20577 0.02794 0.0
H1861 H 0.66288 0.17364 1.00076 0.0
H1862 H 0.62048 0.21112 0.02713 0.0
H1863 H 0.60729 0.17894 1.0 0.0
H1864 H 0.55191 0.25016 0.99878 0.0
H1865 H 0.60048 0.23493 1.00053 0.0
H1866 H 0.55015 0.17721 0.02453 0.0
H1867 H 0.50049 0.19237 0.02271 0.0
C1868 C 0.66104 0.19921 0.02183 0.0
C1869 C 0.67427 0.18955 0.01439 0.0
C1870 C 0.629 0.20214 0.02139 0.0
C1871 C 0.60963 0.19586 0.01348 0.0
C1872 C 0.62185 0.18445 1.00616 0.0
C1873 C 0.65364 0.18119 1.00662 0.0
C1874 C 0.55091 0.23409 1.00444 0.0
C1875 C 0.52213 0.22231 1.01059 0.0
C1876 C 0.57874 0.22512 1.0054 0.0
C1877 C 0.57901 0.2044 1.0126 0.0
C1878 C 0.55066 0.19313 0.01889 0.0
C1879 C 0.52226 0.20176 0.01786 0.0
H1880 H 0.83373 0.31723 0.02263 0.0
H1881 H 0.7774 0.31049 0.99845 0.0
H1882 H 0.84828 0.38186 0.0244 0.0
H1883 H 0.79195 0.37409 1.00015 0.0
H1884 H 0.81694 0.47682 0.0279 0.0
H1885 H 0.81319 0.41662 0.02695 0.0
H1886 H 0.84629 0.43763 0.99988 0.0
H1887 H 0.84993 0.49772 1.00079 0.0
C1888 C 0.82469 0.32955 0.01769 0.0
C1889 C 0.80456 0.30876 1.01039 0.0
C1890 C 0.8329 0.36645 0.0187 0.0
C1891 C 0.82164 0.38332 1.01236 0.0
C1892 C 0.8017 0.36235 1.00508 0.0
C1893 C 0.79313 0.32566 1.00413 0.0
C1894 C 0.824 0.46891 0.02177 0.0
C1895 C 0.83344 0.49213 0.01439 0.0
C1896 C 0.82202 0.4344 0.02125 0.0
C1897 C 0.82908 0.42209 0.01332 0.0
C1898 C 0.8402 0.44605 1.00607 0.0
C1899 C 0.84248 0.48064 1.0066 0.0
H1900 H 0.53934 0.35143 0.02879 0.0
H1901 H 0.5286 0.35542 1.00083 0.0
H1902 H 0.59889 0.40845 0.02824 0.0
H1903 H 0.58902 0.41131 1.00015 0.0
H1904 H 0.69209 0.52282 1.00083 0.0
H1905 H 0.6278 0.47359 1.00256 0.0
H1906 H 0.66003 0.43079 0.02455 0.0
H1907 H 0.72371 0.4815 0.02303 0.0
C1908 C 0.54963 0.36464 0.02251 0.0
C1909 C 0.52907 0.3488 0.01485 0.0
C1910 C 0.58414 0.39727 0.02217 0.0
C1911 C 0.59955 0.41474 0.01414 0.0
C1912 C 0.57826 0.39937 1.0065 0.0
C1913 C 0.54342 0.36707 1.00687 0.0
C1914 C 0.68502 0.50325 1.00615 0.0
C1915 C 0.71259 0.5061 1.01187 0.0
C1916 C 0.64823 0.47464 1.00708 0.0
C1917 C 0.63819 0.44754 0.01365 0.0
C1918 C 0.66605 0.45119 0.0195 0.0
C1919 C 0.70273 0.48023 0.01864 0.0
H1920 H 0.5002 0.85752 0.85631 0.0
H1921 H 0.44434 0.80794 0.83208 0.0
H1922 H 0.51549 0.80793 0.85802 0.0
H1923 H 0.45968 0.75942 0.83372 0.0
H1924 H 0.51969 0.6958 0.83416 0.0
H1925 H 0.51504 0.7517 0.83342 0.0
H1926 H 0.48101 0.73758 0.86043 0.0
H1927 H 0.48571 0.68158 0.86122 0.0
C1928 C 0.49141 0.83627 0.85135 0.0
C1929 C 0.4712 0.8368 0.84405 0.0
C1930 C 0.50005 0.80786 0.85233 0.0
C1931 C 0.48918 0.7799 0.84595 0.0
C1932 C 0.46913 0.78078 0.83867 0.0
C1933 C 0.46011 0.80861 0.83777 0.0
C1934 C 0.51183 0.70486 0.84 0.0
C1935 C 0.5028 0.68386 0.84772 0.0
C1936 C 0.50897 0.73687 0.83956 0.0
C1937 C 0.49726 0.74896 0.84684 0.0
C1938 C 0.49025 0.72918 0.85472 0.0
C1939 C 0.4928 0.69693 0.85514 0.0
H1940 H 0.21697 0.64359 0.83172 0.0
H1941 H 0.16675 0.64876 0.85595 0.0
H1942 H 0.26552 0.70746 0.83352 0.0
H1943 H 0.21634 0.71362 0.85782 0.0
H1944 H 0.34254 0.81037 0.86128 0.0
H1945 H 0.28664 0.74951 0.86034 0.0
H1946 H 0.27314 0.77054 0.83336 0.0
H1947 H 0.32892 0.83124 0.83427 0.0
C1948 C 0.21618 0.65845 0.83745 0.0
C1949 C 0.1878 0.64105 0.84368 0.0
C1950 C 0.24401 0.69529 0.83844 0.0
C1951 C 0.2447 0.7159 0.84576 0.0
C1952 C 0.21656 0.6985 0.85209 0.0
C1953 C 0.18815 0.66146 0.85102 0.0
C1954 C 0.32734 0.80231 0.85518 0.0
C1955 C 0.34053 0.82574 0.84782 0.0
C1956 C 0.29515 0.76742 0.85466 0.0
C1957 C 0.27559 0.75494 0.84675 0.0
C1958 C 0.28782 0.77908 0.83953 0.0
C1959 C 0.31975 0.81404 0.84006 0.0
H1960 H 0.3748 0.52355 0.85573 0.0
H1961 H 0.38173 0.58133 0.83177 0.0
H1962 H 0.30977 0.50789 0.85741 0.0
H1963 H 0.31768 0.56564 0.83339 0.0
H1964 H 0.21333 0.53745 0.86088 0.0
H1965 H 0.27406 0.54223 0.86003 0.0
H1966 H 0.25452 0.51007 0.83289 0.0
H1967 H 0.19389 0.50535 0.8337 0.0
C1968 C 0.36245 0.5327 0.85082 0.0
C1969 C 0.38338 0.55355 0.84361 0.0
C1970 C 0.32532 0.52384 0.85178 0.0
C1971 C 0.30838 0.53515 0.84547 0.0
C1972 C 0.32951 0.55585 0.83828 0.0
C1973 C 0.36644 0.56507 0.83739 0.0
C1974 C 0.22168 0.53078 0.85476 0.0
C1975 C 0.19873 0.52131 0.84733 0.0
C1976 C 0.25648 0.53337 0.85429 0.0
C1977 C 0.26934 0.52692 0.84637 0.0
C1978 C 0.24564 0.51569 0.83907 0.0
C1979 C 0.21075 0.51279 0.83954 0.0
H1980 H 0.52503 0.84045 0.02637 0.0
H1981 H 0.48681 0.77205 1.00337 0.0
H1982 H 0.4759 0.85548 0.02473 0.0
H1983 H 0.43604 0.7849 1.00191 0.0
H1984 H 0.35658 0.82631 0.99803 0.0
H1985 H 0.41343 0.82359 0.99862 0.0
H1986 H 0.41368 0.83199 0.0268 0.0
H1987 H 0.358 0.83685 0.02609 0.0
C1988 C 0.50613 0.8289 0.0209 0.0
C1989 C 0.50991 0.80552 0.01493 0.0
C1990 C 0.47754 0.83706 0.02001 0.0
C1991 C 0.45126 0.82123 0.01323 0.0
C1992 C 0.4558 0.79834 1.00714 0.0
C1993 C 0.48491 0.7908 1.00795 0.0
C1994 C 0.36921 0.82825 1.00434 0.0
C1995 C 0.35273 0.83191 1.01201 0.0
C1996 C 0.40173 0.82624 1.0047 0.0
C1997 C 0.41844 0.82703 1.01277 0.0
C1998 C 0.40238 0.83183 0.02042 0.0
C1999 C 0.37021 0.83456 0.02004 0.0
H2000 H 0.19837 0.70623 1.00345 0.0
H2001 H 0.25064 0.71012 0.02808 0.0
H2002 H 0.18417 0.64182 1.0014 0.0
H2003 H 0.2364 0.64671 0.0261 0.0
H2004 H 0.21348 0.545 0.99827 0.0
H2005 H 0.21868 0.60591 0.99918 0.0
H2006 H 0.18084 0.58373 0.02591 0.0
H2007 H 0.17571 0.52302 0.02504 0.0
C2008 C 0.20674 0.69339 1.00841 0.0
C2009 C 0.22545 0.71324 0.01595 0.0
C2010 C 0.19868 0.6566 1.00724 0.0
C2011 C 0.20869 0.6389 0.01365 0.0
C2012 C 0.22758 0.65908 0.02112 0.0
C2013 C 0.23597 0.69565 0.02222 0.0
C2014 C 0.20568 0.55283 1.00431 0.0
C2015 C 0.19444 0.52906 1.01161 0.0
C2016 C 0.20853 0.58775 1.0048 0.0
C2017 C 0.20059 0.59992 1.01264 0.0
C2018 C 0.18768 0.57545 0.01981 0.0
C2019 C 0.18453 0.54048 0.01929 0.0
H2020 H 0.32098 0.49766 1.00333 0.0
H2021 H 0.31563 0.54552 0.02791 0.0
H2022 H 0.38569 0.54769 1.00154 0.0
H2023 H 0.37938 0.59454 0.02618 0.0
H2024 H 0.5032 0.66133 0.02502 0.0
H2025 H 0.44324 0.60451 0.02605 0.0
H2026 H 0.41998 0.61743 0.99921 0.0
H2027 H 0.47993 0.67416 0.99815 0.0
C2028 C 0.33364 0.51861 1.00836 0.0
C2029 C 0.31317 0.51753 0.01576 0.0
C2030 C 0.3706 0.54727 1.00734 0.0
C2031 C 0.3879 0.57497 0.01377 0.0
C2032 C 0.36731 0.57341 0.02118 0.0
C2033 C 0.33053 0.54532 0.02213 0.0
C2034 C 0.48566 0.65178 0.01928 0.0
C2035 C 0.49643 0.67264 1.01153 0.0
C2036 C 0.45114 0.61927 0.01989 0.0
C2037 C 0.42658 0.60654 1.01273 0.0
C2038 C 0.43821 0.62627 1.00483 0.0
C2039 C 0.47259 0.65897 1.00425 0.0
H2040 H 0.28127 0.56141 0.51665 0.0
H2041 H 0.16729 0.48122 0.51107 0.0
H2042 H 0.26769 0.61159 0.51476 0.0
H2043 H 0.15332 0.53186 0.50949 0.0
H2044 H 0.16065 0.64766 0.52212 0.0
H2045 H 0.16527 0.59116 0.52236 0.0
H2046 H 0.23802 0.63057 0.50005 0.0
H2047 H 0.23295 0.68615 0.49961 0.0
C2048 C 0.25331 0.5546 0.51498 0.0
C2049 C 0.22538 0.51755 0.51395 0.0
C2050 C 0.24556 0.58326 0.51392 0.0
C2051 C 0.20946 0.57552 0.51204 0.0
C2052 C 0.18135 0.53845 0.51098 0.0
C2053 C 0.18938 0.50962 0.5118 0.0
C2054 C 0.17705 0.64394 0.51717 0.0
C2055 C 0.19649 0.67161 0.51087 0.0
C2056 C 0.17954 0.61156 0.51729 0.0
C2057 C 0.20198 0.60662 0.51121 0.0
C2058 C 0.22048 0.6337 0.50479 0.0
C2059 C 0.21749 0.66556 0.50456 0.0
H2060 H 0.52845 0.70452 0.50329 0.0
H2061 H 0.47186 0.71239 0.52609 0.0
H2062 H 0.47876 0.63972 0.50128 0.0
H2063 H 0.42329 0.64854 0.52417 0.0
H2064 H 0.35193 0.54128 0.49729 0.0
H2065 H 0.40704 0.60292 0.49806 0.0
H2066 H 0.41911 0.5858 0.52538 0.0
H2067 H 0.36433 0.52428 0.52465 0.0
C2068 C 0.5055 0.69251 0.50785 0.0
C2069 C 0.50427 0.71353 0.51489 0.0
C2070 C 0.4771 0.6555 0.5067 0.0
C2071 C 0.44738 0.6388 0.51266 0.0
C2072 C 0.44612 0.66022 0.51958 0.0
C2073 C 0.47396 0.69699 0.52064 0.0
C2074 C 0.36672 0.55036 0.50343 0.0
C2075 C 0.35345 0.52776 0.51093 0.0
C2076 C 0.3984 0.58567 0.50385 0.0
C2077 C 0.41724 0.59942 0.5118 0.0
C2078 C 0.40497 0.57617 0.51918 0.0
C2079 C 0.37364 0.54076 0.51874 0.0
H2080 H 0.50451 0.85111 0.5247 0.0
H2081 H 0.48179 0.81604 0.49776 0.0
H2082 H 0.44429 0.84729 0.52576 0.0
H2083 H 0.42157 0.81216 0.49885 0.0
H2084 H 0.32129 0.83073 0.50316 0.0
H2085 H 0.38633 0.84662 0.50134 0.0
H2086 H 0.38075 0.79258 0.5258 0.0
H2087 H 0.31667 0.77665 0.52756 0.0
C2088 C 0.48707 0.84328 0.51895 0.0
C2089 C 0.49806 0.83361 0.51117 0.0
C2090 C 0.45238 0.84085 0.51957 0.0
C2091 C 0.42786 0.82904 0.51241 0.0
C2092 C 0.43975 0.82151 0.50448 0.0
C2093 C 0.47429 0.82358 0.50388 0.0
C2094 C 0.33418 0.82253 0.50815 0.0
C2095 C 0.31381 0.80252 0.51551 0.0
C2096 C 0.37133 0.8315 0.5071 0.0
C2097 C 0.38894 0.82121 0.51348 0.0
C2098 C 0.36845 0.80158 0.52085 0.0
C2099 C 0.33148 0.7922 0.52181 0.0
H2100 H 0.23246 0.60729 0.3399 0.0
H2101 H 0.15335 0.49787 0.34905 0.0
H2102 H 0.28237 0.59317 0.3416 0.0
H2103 H 0.20369 0.48336 0.35051 0.0
H2104 H 0.31972 0.48924 0.33606 0.0
H2105 H 0.26326 0.49401 0.33565 0.0
H2106 H 0.30065 0.56454 0.35833 0.0
H2107 H 0.35621 0.55943 0.35893 0.0
C2108 C 0.22579 0.5802 0.34228 0.0
C2109 C 0.1891 0.55372 0.34437 0.0
C2110 C 0.25432 0.57214 0.34322 0.0
C2111 C 0.24673 0.53713 0.34609 0.0
C2112 C 0.21009 0.51049 0.34823 0.0
C2113 C 0.18146 0.51887 0.34747 0.0
C2114 C 0.31556 0.50517 0.34105 0.0
C2115 C 0.34268 0.52397 0.34751 0.0
C2116 C 0.28322 0.50776 0.34083 0.0
C2117 C 0.27769 0.5295 0.34699 0.0
C2118 C 0.30418 0.5474 0.35356 0.0
C2119 C 0.33607 0.54442 0.35386 0.0
H2120 H 0.44623 0.6421 0.33094 0.0
H2121 H 0.50218 0.64848 0.35516 0.0
H2122 H 0.46172 0.70604 0.33256 0.0
H2123 H 0.5177 0.71342 0.35684 0.0
H2124 H 0.51991 0.82976 0.33324 0.0
H2125 H 0.51597 0.76949 0.33228 0.0
H2126 H 0.48347 0.74861 0.35939 0.0
H2127 H 0.48754 0.80891 0.36038 0.0
C2128 C 0.4621 0.65727 0.33662 0.0
C2129 C 0.47309 0.64015 0.34292 0.0
C2130 C 0.47122 0.69416 0.3375 0.0
C2131 C 0.4913 0.71511 0.34478 0.0
C2132 C 0.50222 0.69804 0.35115 0.0
C2133 C 0.49345 0.66095 0.35019 0.0
C2134 C 0.51258 0.81268 0.33905 0.0
C2135 C 0.50377 0.82421 0.34686 0.0
C2136 C 0.51009 0.77798 0.33848 0.0
C2137 C 0.49902 0.75399 0.34574 0.0
C2138 C 0.49225 0.76639 0.35369 0.0
C2139 C 0.49441 0.80096 0.35424 0.0
H2140 H 0.193 0.69382 0.33396 0.0
H2141 H 0.21451 0.6803 0.36092 0.0
H2142 H 0.25376 0.74956 0.33298 0.0
H2143 H 0.27538 0.73612 0.35991 0.0
H2144 H 0.38092 0.8065 0.33123 0.0
H2145 H 0.31704 0.75772 0.33303 0.0
H2146 H 0.31098 0.80612 0.35745 0.0
H2147 H 0.37576 0.85584 0.35558 0.0
C2148 C 0.21035 0.70302 0.33973 0.0
C2149 C 0.19881 0.6823 0.3475 0.0
C2150 C 0.24534 0.7349 0.33915 0.0
C2151 C 0.26965 0.74715 0.34635 0.0
C2152 C 0.25734 0.72761 0.35426 0.0
C2153 C 0.22244 0.69548 0.35482 0.0
C2154 C 0.36605 0.80704 0.33697 0.0
C2155 C 0.38345 0.83521 0.34325 0.0
C2156 C 0.32922 0.7791 0.33797 0.0
C2157 C 0.30865 0.77813 0.34533 0.0
C2158 C 0.32606 0.8061 0.3517 0.0
C2159 C 0.36306 0.83458 0.35063 0.0
H2160 H 0.24106 0.32936 0.16533 0.0
H2161 H 0.24993 0.31502 0.19299 0.0
H2162 H 0.30836 0.36223 0.1641 0.0
H2163 H 0.3172 0.34863 0.1918 0.0
H2164 H 0.43164 0.44773 0.16558 0.0
H2165 H 0.36452 0.41745 0.16725 0.0
H2166 H 0.36845 0.34418 0.18661 0.0
H2167 H 0.43575 0.37524 0.18504 0.0
C2168 C 0.25727 0.33349 0.17119 0.0
C2169 C 0.23962 0.31929 0.17927 0.0
C2170 C 0.29613 0.35262 0.17049 0.0
C2171 C 0.31878 0.35828 0.17784 0.0
C2172 C 0.30106 0.34448 0.18594 0.0
C2173 C 0.26222 0.32534 0.18664 0.0
C2174 C 0.41819 0.42529 0.17023 0.0
C2175 C 0.43922 0.41394 0.17516 0.0
C2176 C 0.37949 0.40762 0.17115 0.0
C2177 C 0.36047 0.37798 0.17704 0.0
C2178 C 0.38176 0.36707 0.18208 0.0
C2179 C 0.4205 0.38479 0.18115 0.0
H2180 H 0.63613 0.05783 0.18589 0.0
H2181 H 0.59412 1.00466 0.16106 0.0
H2182 H 0.66548 0.0203 0.18815 0.0
H2183 H 0.6207 0.9654 0.16347 0.0
H2184 H 0.70341 0.92605 0.16473 0.0
H2185 H 0.6729 0.96216 0.16311 0.0
H2186 H 0.66445 0.96601 0.19123 0.0
H2187 H 0.69735 0.93176 0.19276 0.0
C2188 C 0.63256 0.03757 0.181 0.0
C2189 C 0.61298 0.0344 0.17327 0.0
C2190 C 0.64928 0.01576 0.18229 0.0
C2191 C 0.64626 0.98965 0.17596 0.0
C2192 C 0.62514 0.98573 0.16841 0.0
C2193 C 0.60931 1.00805 0.16705 0.0
C2194 C 0.69484 0.93438 0.17057 0.0
C2195 C 0.70283 0.92575 0.17888 0.0
C2196 C 0.67693 0.95508 0.16966 0.0
C2197 C 0.66551 0.96727 0.17703 0.0
C2198 C 0.67309 0.95801 0.18535 0.0
C2199 C 0.69175 0.93792 0.18626 0.0
H2200 H 0.09586 0.78237 0.16488 0.0
H2201 H 0.09048 0.77097 0.19292 0.0
H2202 H 0.05985 0.71562 0.16332 0.0
H2203 H 0.05633 0.70378 0.19144 0.0
H2204 H 0.9652 0.58296 0.18632 0.0
H2205 H 1.00229 0.65002 0.18848 0.0
H2206 H 0.05659 0.6602 0.16371 0.0
H2207 H 0.01783 0.59417 0.16141 0.0
C2208 C 0.08761 0.76555 0.17074 0.0
C2209 C 0.09633 0.78234 0.17902 0.0
C2210 C 0.06695 0.72685 0.16986 0.0
C2211 C 0.05488 0.7033 0.17725 0.0
C2212 C 0.06421 0.72032 0.18555 0.0
C2213 C 0.08426 0.75913 0.18642 0.0
C2214 C 0.98524 0.5997 0.18139 0.0
C2215 C 0.98838 0.58319 0.17368 0.0
C2216 C 1.00679 0.63836 0.18261 0.0
C2217 C 0.03263 0.66154 0.17623 0.0
C2218 C 0.03648 0.64427 0.16869 0.0
C2219 C 0.01445 0.60599 0.1674 0.0
H2220 H 0.28762 0.24185 0.33782 0.0
H2221 H 0.36591 0.23693 0.35534 0.0
H2222 H 0.31962 0.30863 0.3392 0.0
H2223 H 0.39999 0.30429 0.35629 0.0
H2224 H 0.43633 0.42368 0.36313 0.0
H2225 H 0.40488 0.3568 0.36172 0.0
H2226 H 0.3669 0.36539 0.33597 0.0
H2227 H 0.3962 0.43222 0.3378 0.0
C2228 C 0.3122 0.25516 0.34187 0.0
C2229 C 0.32412 0.23383 0.34646 0.0
C2230 C 0.33096 0.29387 0.34262 0.0
C2231 C 0.36297 0.31289 0.34785 0.0
C2232 C 0.37518 0.29131 0.35234 0.0
C2233 C 0.35579 0.25242 0.35174 0.0
C2234 C 0.42121 0.41121 0.35717 0.0
C2235 C 0.41873 0.43339 0.35059 0.0
C2236 C 0.40327 0.37255 0.3563 0.0
C2237 C 0.38289 0.35468 0.34871 0.0
C2238 C 0.38128 0.3773 0.34203 0.0
C2239 C 0.39851 0.41594 0.34301 0.0
H2240 H 0.60008 0.01519 0.3634 0.0
H2241 H 0.59055 0.96843 0.33779 0.0
H2242 H 0.667 0.05074 0.36186 0.0
H2243 H 0.65735 1.00601 0.33586 0.0
H2244 H 0.78093 0.0496 0.33737 0.0
H2245 H 0.71412 0.01503 0.33884 0.0
H2246 H 0.71966 0.0986 0.3565 0.0
H2247 H 0.78702 0.13165 0.35543 0.0
C2248 C 0.61232 0.01299 0.35736 0.0
C2249 C 0.58985 0.98881 0.35074 0.0
C2250 C 0.65101 0.03377 0.35641 0.0
C2251 C 0.66862 0.03177 0.34872 0.0
C2252 C 0.64568 1.00807 0.342 0.0
C2253 C 0.60704 0.98662 0.34305 0.0
C2254 C 0.76788 0.06068 0.34155 0.0
C2255 C 0.78958 0.09354 0.34627 0.0
C2256 C 0.72915 0.04085 0.34236 0.0
C2257 C 0.71044 0.05355 0.34778 0.0
C2258 C 0.73237 0.08697 0.35239 0.0
C2259 C 0.77128 0.10635 0.35173 0.0
H2260 H 0.91477 0.68267 0.35997 0.0
H2261 H 0.94727 0.70653 0.33291 0.0
H2262 H 0.94908 0.64968 0.36121 0.0
H2263 H 0.98054 0.67269 0.33404 0.0
H2264 H 0.07045 0.64476 0.34123 0.0
H2265 H 0.03423 0.67569 0.33975 0.0
H2266 H 0.95241 0.59651 0.35752 0.0
H2267 H 0.98944 0.56648 0.35918 0.0
C2268 C 0.92884 0.68054 0.35424 0.0
C2269 C 0.92819 0.69751 0.34635 0.0
C2270 C 0.9485 0.66138 0.35494 0.0
C2271 C 0.96802 0.6584 0.34774 0.0
C2272 C 0.96667 0.67482 0.3398 0.0
C2273 C 0.9472 0.6941 0.33913 0.0
C2274 C 0.04465 0.63388 0.34479 0.0
C2275 C 0.03297 0.60317 0.35034 0.0
C2276 C 0.02362 0.65152 0.34391 0.0
C2277 C 0.9901 0.63888 0.34853 0.0
C2278 C 0.97823 0.60767 0.35397 0.0
C2279 C 0.99937 0.59016 0.35487 0.0
H2280 H 0.59629 0.56849 0.85944 0.0
H2281 H 0.59388 0.64646 0.84136 0.0
H2282 H 0.66347 0.59873 0.85791 0.0
H2283 H 0.66119 0.67758 0.84 0.0
H2284 H 0.77927 0.70812 0.83334 0.0
H2285 H 0.71206 0.67441 0.8344 0.0
H2286 H 0.71989 0.65221 0.86165 0.0
H2287 H 0.78732 0.68512 0.8605 0.0
C2288 C 0.61015 0.59215 0.85513 0.0
C2289 C 0.58961 0.60502 0.85053 0.0
C2290 C 0.64886 0.60979 0.8543 0.0
C2291 C 0.66833 0.64096 0.84885 0.0
C2292 C 0.64752 0.65346 0.84417 0.0
C2293 C 0.60877 0.63571 0.84498 0.0
C2294 C 0.76675 0.69591 0.83956 0.0
C2295 C 0.78905 0.69952 0.84683 0.0
C2296 C 0.72796 0.6767 0.84019 0.0
C2297 C 0.70999 0.66053 0.84813 0.0
C2298 C 0.73234 0.66373 0.85538 0.0
C2299 C 0.77123 0.68284 0.85474 0.0
H2300 H 0.31746 0.07989 0.83287 0.0
H2301 H 0.33463 0.1054 0.8604 0.0
H2302 H 0.35117 0.04636 0.834 0.0
H2303 H 0.36759 0.07115 0.86157 0.0
H2304 H 0.37879 0.9552 0.84091 0.0
H2305 H 0.34748 0.99115 0.83935 0.0
H2306 H 0.42256 0.07024 0.85817 0.0
H2307 H 0.4531 0.03373 0.85985 0.0
C2308 C 0.32842 0.07846 0.83918 0.0
C2309 C 0.32314 0.09563 0.84654 0.0
C2310 C 0.34762 0.05884 0.83984 0.0
C2311 C 0.36227 0.05564 0.84789 0.0
C2312 C 0.35734 0.07321 0.85522 0.0
C2313 C 0.33815 0.09284 0.85456 0.0
C2314 C 0.38869 0.98036 0.84469 0.0
C2315 C 0.41843 0.99141 0.85053 0.0
C2316 C 0.37082 1.0012 0.84377 0.0
C2317 C 0.38214 0.03383 0.84866 0.0
C2318 C 0.41238 0.04509 0.85439 0.0
C2319 C 0.4302 0.02424 0.85531 0.0
H2320 H 0.91567 0.23708 0.85984 0.0
H2321 H 0.94698 0.24442 0.83271 0.0
H2322 H 0.95015 0.30427 0.86091 0.0
H2323 H 0.98058 0.31171 0.8337 0.0
H2324 H 0.98958 0.42708 0.85886 0.0
H2325 H 0.9526 0.36008 0.85713 0.0
H2326 H 0.0345 0.36317 0.83933 0.0
H2327 H 0.07077 0.43042 0.8409 0.0
C2328 C 0.9295 0.25294 0.85405 0.0
C2329 C 0.92834 0.23491 0.84618 0.0
C2330 C 0.94927 0.29176 0.85466 0.0
C2331 C 0.96846 0.31398 0.8474 0.0
C2332 C 0.96683 0.29589 0.83949 0.0
C2333 C 0.94719 0.25706 0.8389 0.0
C2334 C 0.99956 0.41347 0.85453 0.0
C2335 C 0.03323 0.4342 0.85004 0.0
C2336 C 0.97845 0.37484 0.85358 0.0
C2337 C 0.9904 0.35563 0.84813 0.0
C2338 C 0.0239 0.37665 0.84352 0.0
C2339 C 0.04493 0.41534 0.84444 0.0
H2340 H 0.59403 0.5952 0.66291 0.0
H2341 H 0.63214 0.5857 0.68843 0.0
H2342 H 0.62543 0.66193 0.66442 0.0
H2343 H 0.66153 0.6526 0.69033 0.0
H2344 H 0.74135 0.77647 0.68849 0.0
H2345 H 0.70921 0.70961 0.68717 0.0
H2346 H 0.62937 0.71393 0.6699 0.0
H2347 H 0.66351 0.78127 0.67079 0.0
C2348 C 0.6087 0.60742 0.66893 0.0
C2349 C 0.6106 0.585 0.67554 0.0
C2350 C 0.6266 0.64602 0.66986 0.0
C2351 C 0.64639 0.66364 0.67753 0.0
C2352 C 0.64752 0.64082 0.68422 0.0
C2353 C 0.63028 0.60218 0.68319 0.0
C2354 C 0.71685 0.76312 0.68441 0.0
C2355 C 0.70511 0.78443 0.67974 0.0
C2356 C 0.69803 0.7244 0.6837 0.0
C2357 C 0.66619 0.70538 0.67842 0.0
C2358 C 0.65409 0.72693 0.67388 0.0
C2359 C 0.67352 0.76581 0.67444 0.0
H2360 H 0.43474 0.06543 0.68505 0.0
H2361 H 0.43249 0.98573 0.66678 0.0
H2362 H 0.36749 0.02887 0.68647 0.0
H2363 H 0.36537 0.94836 0.66838 0.0
H2364 H 0.24935 0.94123 0.69304 0.0
H2365 H 0.31659 0.97484 0.692 0.0
H2366 H 0.30887 0.94492 0.66475 0.0
H2367 H 0.2415 0.91027 0.66589 0.0
C2368 C 0.41989 0.03984 0.6814 0.0
C2369 C 0.43908 0.02864 0.67578 0.0
C2370 C 0.38117 0.01862 0.68225 0.0
C2371 C 0.36041 0.98538 0.67753 0.0
C2372 C 0.37992 0.97397 0.67202 0.0
C2373 C 0.41861 0.9953 0.67115 0.0
C2374 C 0.26192 0.94157 0.68683 0.0
C2375 C 0.23967 0.92287 0.67955 0.0
C2376 C 0.30073 0.96123 0.68621 0.0
C2377 C 0.31874 0.96311 0.67827 0.0
C2378 C 0.29641 0.94392 0.67102 0.0
C2379 C 0.25754 0.92406 0.67166 0.0
H2380 H 0.0214 0.43056 0.66227 0.0
H2381 H 0.97471 0.39256 0.68787 0.0
H2382 H 0.05675 0.399 0.66368 0.0
H2383 H 1.01211 0.36319 0.68966 0.0
H2384 H 0.05516 0.2831 0.68797 0.0
H2385 H 0.02074 0.31539 0.68655 0.0
H2386 H 0.10451 0.39377 0.66895 0.0
H2387 H 0.13744 0.35938 0.66996 0.0
C2388 C 0.01918 0.41591 0.66829 0.0
C2389 C 0.99507 0.41403 0.67494 0.0
C2390 C 0.03984 0.39789 0.66915 0.0
C2391 C 0.03779 0.378 0.6768 0.0
C2392 C 0.01418 0.3771 0.68355 0.0
C2393 C 0.99285 0.3944 0.68259 0.0
C2394 C 0.06632 0.3073 0.6838 0.0
C2395 C 0.09922 0.31857 0.67909 0.0
C2396 C 0.04658 0.32625 0.68303 0.0
C2397 C 0.05942 0.35783 0.67765 0.0
C2398 C 0.09281 0.36934 0.67303 0.0
C2399 C 0.11212 0.34976 0.67365 0.0
H2400 H 0.90832 0.66872 0.49894 0.0
H2401 H 0.91643 0.64444 0.52599 0.0
H2402 H 0.97572 0.70142 0.49775 0.0
H2403 H 0.98365 0.67793 0.5249 0.0
H2404 H 0.10182 0.70601 0.51774 0.0
H2405 H 0.0345 0.6749 0.51916 0.0
H2406 H 0.03217 0.75466 0.50157 0.0
H2407 H 0.0993 0.7849 0.49998 0.0
C2408 C 0.92442 0.67067 0.50467 0.0
C2409 C 0.90661 0.65372 0.51256 0.0
C2410 C 0.96329 0.68966 0.50401 0.0
C2411 C 0.98567 0.69245 0.51122 0.0
C2412 C 0.96773 0.67597 0.51914 0.0
C2413 C 0.92893 0.6569 0.51979 0.0
C2414 C 0.08691 0.71695 0.5142 0.0
C2415 C 0.10605 0.74791 0.50872 0.0
C2416 C 0.04816 0.69921 0.51505 0.0
C2417 C 0.02733 0.71197 0.51047 0.0
C2418 C 0.04678 0.7434 0.5051 0.0
C2419 C 0.08548 0.76102 0.50423 0.0
H2420 H 0.37888 0.27675 0.52631 0.0
H2421 H 0.35383 0.2428 0.49936 0.0
H2422 H 0.3451 0.31007 0.52513 0.0
H2423 H 0.32086 0.27711 0.49808 0.0
H2424 H 0.23748 0.31723 0.50015 0.0
H2425 H 0.26768 0.2804 0.50187 0.0
H2426 H 0.34792 0.36351 0.51923 0.0
H2427 H 0.31684 0.39958 0.51769 0.0
C2428 C 0.36619 0.27636 0.52011 0.0
C2429 C 0.36925 0.25692 0.51294 0.0
C2430 C 0.34694 0.29585 0.51941 0.0
C2431 C 0.33018 0.29677 0.51149 0.0
C2432 C 0.33284 0.27686 0.50434 0.0
C2433 C 0.35198 0.25721 0.50505 0.0
C2434 C 0.26143 0.32749 0.50439 0.0
C2435 C 0.2747 0.36141 0.50878 0.0
C2436 C 0.27904 0.30647 0.50532 0.0
C2437 C 0.3106 0.31877 0.51067 0.0
C2438 C 0.3235 0.3526 0.51515 0.0
C2439 C 0.30576 0.37352 0.51423 0.0
H2440 H 0.63148 0.91755 0.51934 0.0
H2441 H 0.68709 0.9286 0.49487 0.0
H2442 H 0.66893 0.98452 0.5216 0.0
H2443 H 0.72621 0.9945 0.4973 0.0
H2444 H 0.76523 0.11654 0.49825 0.0
H2445 H 0.72925 0.04984 0.49669 0.0
H2446 H 0.72306 0.03804 0.52482 0.0
H2447 H 0.75723 0.10527 0.52629 0.0
C2448 C 0.65227 0.93423 0.51454 0.0
C2449 C 0.65613 0.91776 0.50691 0.0
C2450 C 0.67401 0.97282 0.51583 0.0
C2451 C 0.70074 0.99589 0.50959 0.0
C2452 C 0.70538 0.97862 0.50216 0.0
C2453 C 0.68315 0.94044 0.50079 0.0
C2454 C 0.75641 0.09975 0.50411 0.0
C2455 C 0.76439 0.11654 0.5124 0.0
C2456 C 0.73578 0.06108 0.50324 0.0
C2457 C 0.723 0.03759 0.51062 0.0
C2458 C 0.73155 0.05459 0.51893 0.0
C2459 C 0.7516 0.09339 0.5198 0.0
H2460 H 0.06455 0.7662 0.67123 0.0
H2461 H 0.10171 0.75676 0.69687 0.0
H2462 H 0.03537 0.69941 0.66931 0.0
H2463 H 0.07041 0.68991 0.69533 0.0
H2464 H 0.032 0.57024 0.68886 0.0
H2465 H 0.06613 0.63756 0.68991 0.0
H2466 H 0.98749 0.64261 0.67236 0.0
H2467 H 0.9554 0.57584 0.6709 0.0
C2468 C 0.06624 0.74973 0.67649 0.0
C2469 C 0.08557 0.76692 0.68418 0.0
C2470 C 0.04908 0.71112 0.67545 0.0
C2471 C 0.04989 0.68826 0.68218 0.0
C2472 C 0.06943 0.70587 0.68988 0.0
C2473 C 0.08728 0.74451 0.69082 0.0
C2474 C 0.02227 0.58586 0.68518 0.0
C2475 C 0.99103 0.56746 0.67976 0.0
C2476 C 0.04169 0.62474 0.68583 0.0
C2477 C 0.02997 0.6465 0.68125 0.0
C2478 C 0.99844 0.62769 0.67586 0.0
C2479 C 0.97963 0.58899 0.67506 0.0
H2480 H 0.26278 0.36574 0.69278 0.0
H2481 H 0.26102 0.28714 0.67424 0.0
H2482 H 0.32986 0.40362 0.69114 0.0
H2483 H 0.32821 0.3242 0.67278 0.0
H2484 H 0.44596 0.41264 0.66624 0.0
H2485 H 0.37872 0.37888 0.6673 0.0
H2486 H 0.38653 0.40697 0.69469 0.0
H2487 H 0.45388 0.44172 0.69353 0.0
C2488 C 0.27676 0.35653 0.68835 0.0
C2489 C 0.25644 0.32334 0.68365 0.0
C2490 C 0.31541 0.37814 0.68745 0.0
C2491 C 0.33502 0.36718 0.68185 0.0
C2492 C 0.31442 0.3341 0.67707 0.0
C2493 C 0.27574 0.31259 0.67794 0.0
C2494 C 0.43341 0.41189 0.67249 0.0
C2495 C 0.45567 0.43006 0.6798 0.0
C2496 C 0.39461 0.39215 0.67312 0.0
C2497 C 0.37664 0.38968 0.6811 0.0
C2498 C 0.39897 0.40842 0.68838 0.0
C2499 C 0.43783 0.42835 0.68774 0.0
H2500 H 0.72064 0.95832 0.67128 0.0
H2501 H 0.67535 0.92191 0.69705 0.0
H2502 H 0.68306 0.98752 0.66946 0.0
H2503 H 0.63981 0.95328 0.69561 0.0
H2504 H 0.55864 0.99218 0.68934 0.0
H2505 H 0.59162 0.95785 0.69034 0.0
H2506 H 0.67475 0.03565 0.67253 0.0
H2507 H 0.64028 0.06792 0.67113 0.0
C2508 C 0.70277 0.95679 0.67659 0.0
C2509 C 0.70099 0.93768 0.68429 0.0
C2510 C 0.68134 0.97398 0.67561 0.0
C2511 C 0.65808 0.97346 0.6824 0.0
C2512 C 0.65646 0.95407 0.69011 0.0
C2513 C 0.67721 0.93617 0.69099 0.0
C2514 C 0.58383 1.00168 0.6856 0.0
C2515 C 0.59655 0.03273 0.68011 0.0
C2516 C 0.60315 0.98214 0.68622 0.0
C2517 C 0.6364 0.99354 0.68154 0.0
C2518 C 0.64904 0.02492 0.67611 0.0
C2519 C 0.62927 0.04384 0.67534 0.0
H2520 H 0.26217 0.90209 0.19322 0.0
H2521 H 0.2581 0.97605 0.17417 0.0
H2522 H 0.32934 0.9327 0.19159 0.0
H2523 H 0.32543 1.0074 0.17265 0.0
H2524 H 0.44388 0.0369 0.16614 0.0
H2525 H 0.37663 1.00307 0.16731 0.0
H2526 H 0.38534 0.98805 0.19495 0.0
H2527 H 0.45268 0.0212 0.19374 0.0
C2528 C 0.27564 0.92492 0.18867 0.0
C2529 C 0.25463 0.93659 0.18384 0.0
C2530 C 0.31435 0.94276 0.18777 0.0
C2531 C 0.33336 0.9729 0.18201 0.0
C2532 C 0.3121 0.98413 0.17708 0.0
C2533 C 0.27335 0.96625 0.17798 0.0
C2534 C 0.43158 0.02624 0.17248 0.0
C2535 C 0.45413 0.03198 0.17984 0.0
C2536 C 0.39275 1.00697 0.17316 0.0
C2537 C 0.37503 0.99272 0.18124 0.0
C2538 C 0.39762 0.99805 0.18858 0.0
C2539 C 0.43648 0.01732 0.1879 0.0
H2540 H 0.98298 0.41871 0.19462 0.0
H2541 H 0.99877 0.42322 0.16669 0.0
H2542 H 0.0138 0.38285 0.1961 0.0
H2543 H 0.03167 0.3889 0.16818 0.0
H2544 H 0.05973 0.29599 0.17287 0.0
H2545 H 0.02982 0.33315 0.17068 0.0
H2546 H 0.06777 0.38217 0.1962 0.0
H2547 H 0.0952 0.34359 0.19848 0.0
C2548 C 0.99365 0.41265 0.18878 0.0
C2549 C 0.98836 0.42419 0.18054 0.0
C2550 C 1.01174 0.39208 0.18963 0.0
C2551 C 0.02593 0.38279 0.18228 0.0
C2552 C 0.0209 0.39473 0.17402 0.0
C2553 C 1.00222 0.41485 0.17316 0.0
C2554 C 0.0617 0.31489 0.17796 0.0
C2555 C 0.07967 0.31663 0.18587 0.0
C2556 C 0.04463 0.33645 0.17672 0.0
C2557 C 0.04557 0.36075 0.1833 0.0
C2558 C 0.065 0.36323 0.19104 0.0
C2559 C 0.0813 0.34128 0.19233 0.0
H2560 H 0.5576 0.57054 0.18863 0.0
H2561 H 0.64026 0.57729 0.17066 0.0
H2562 H 0.59019 0.63785 0.18968 0.0
H2563 H 0.67444 0.64405 0.17213 0.0
H2564 H 0.72065 0.76754 0.17109 0.0
H2565 H 0.68366 0.70072 0.16917 0.0
H2566 H 0.63725 0.69087 0.19499 0.0
H2567 H 0.67209 0.75774 0.19649 0.0
C2568 C 0.58296 0.58642 0.18495 0.0
C2569 C 0.59604 0.56832 0.17952 0.0
C2570 C 0.60209 0.62532 0.18561 0.0
C2571 C 0.63556 0.64745 0.18102 0.0
C2572 C 0.64857 0.62891 0.17564 0.0
C2573 C 0.62896 0.59019 0.17483 0.0
C2574 C 0.70219 0.75099 0.1763 0.0
C2575 C 0.6993 0.76813 0.18392 0.0
C2576 C 0.68109 0.71232 0.17527 0.0
C2577 C 0.65707 0.6893 0.18193 0.0
C2578 C 0.65444 0.70687 0.18957 0.0
C2579 C 0.67483 0.74556 0.19049 0.0
H2580 H 0.2649 0.92918 0.99445 0.0
H2581 H 0.30045 0.91703 0.02004 0.0
H2582 H 0.29211 0.9952 0.99676 0.0
H2583 H 0.33016 0.98411 0.02226 0.0
H2584 H 0.3611 0.10522 0.02628 0.0
H2585 H 0.32827 0.03795 0.02479 0.0
H2586 H 0.34603 0.04993 0.99686 0.0
H2587 H 0.37677 0.11662 0.99835 0.0
C2588 C 0.27876 0.94077 1.00059 0.0
C2589 C 0.28049 0.91775 1.00705 0.0
C2590 C 0.29493 0.979 1.0019 0.0
C2591 C 0.31435 0.99596 1.00965 0.0
C2592 C 0.31536 0.97259 0.01622 0.0
C2593 C 0.29841 0.93397 0.01496 0.0
C2594 C 0.35764 0.09342 0.01981 0.0
C2595 C 0.37144 0.11666 1.01243 0.0
C2596 C 0.33899 0.0546 0.01895 0.0
C2597 C 0.33394 0.03765 1.01069 0.0
C2598 C 0.3481 0.06119 1.00334 0.0
C2599 C 0.36614 0.09986 1.00419 0.0
H2600 H 0.09888 0.31992 0.99995 0.0
H2601 H 0.10231 0.40062 0.01807 0.0
H2602 H 0.03172 0.28328 1.00156 0.0
H2603 H 0.035 0.36472 0.01951 0.0
H2604 H 0.91666 0.27762 0.02628 0.0
H2605 H 0.98386 0.31096 0.02514 0.0
H2606 H 0.97534 0.28038 0.99792 0.0
H2607 H 0.90795 0.24604 0.99916 0.0
C2608 C 0.08526 0.32987 1.00428 0.0
C2609 C 0.1061 0.36328 1.00887 0.0
C2610 C 0.04654 0.30896 1.00516 0.0
C2611 C 0.02732 0.32082 1.01064 0.0
C2612 C 0.04844 0.35414 0.01532 0.0
C2613 C 0.0872 0.37497 0.01446 0.0
C2614 C 0.92902 0.27776 0.02005 0.0
C2615 C 0.90652 0.25895 1.01281 0.0
C2616 C 0.96783 0.29727 0.01937 0.0
C2617 C 0.98563 0.29887 1.01142 0.0
C2618 C 0.96305 0.27961 1.0042 0.0
C2619 C 0.92417 0.25993 1.0049 0.0
H2620 H 0.73126 0.63196 0.0253 0.0
H2621 H 0.791 0.68283 1.00156 0.0
H2622 H 0.6952 0.66282 0.0235 0.0
H2623 H 0.75609 0.71489 0.99992 0.0
H2624 H 0.66008 0.7322 0.99328 0.0
H2625 H 0.69807 0.70437 0.99589 0.0
H2626 H 0.6907 0.71708 0.02372 0.0
H2627 H 0.65093 0.74384 0.02101 0.0
C2628 C 0.73716 0.65019 0.01975 0.0
C2629 C 0.76405 0.65458 0.01354 0.0
C2630 C 0.71647 0.66815 0.01873 0.0
C2631 C 0.72212 0.69133 1.0115 0.0
C2632 C 0.74999 0.69665 1.00547 0.0
C2633 C 0.7704 0.67843 1.00644 0.0
C2634 C 0.66655 0.72916 0.99998 0.0
C2635 C 0.65251 0.74051 1.00693 0.0
C2636 C 0.6888 0.7134 1.00149 0.0
C2637 C 0.69824 0.70862 1.01003 0.0
C2638 C 0.68403 0.71992 0.01704 0.0
C2639 C 0.66137 0.73557 0.0155 0.0
H2640 H 0.7614 0.0989 0.82884 0.0
H2641 H 0.77238 0.05396 0.85326 0.0
H2642 H 0.69552 0.07212 0.83128 0.0
H2643 H 0.7053 0.02448 0.85554 0.0
H2644 H 0.58405 0.99151 0.86009 0.0
H2645 H 0.65137 0.02465 0.85871 0.0
H2646 H 0.64027 0.01956 0.83057 0.0
H2647 H 0.57348 0.98866 0.83203 0.0
C2648 C 0.74956 0.08311 0.83477 0.0
C2649 C 0.77224 0.07863 0.84085 0.0
C2650 C 0.71136 0.06713 0.83613 0.0
C2651 C 0.694 0.04501 0.84353 0.0
C2652 C 0.71708 0.04137 0.84977 0.0
C2653 C 0.75573 0.05823 0.84848 0.0
C2654 C 0.59609 0.99788 0.85361 0.0
C2655 C 0.57307 0.98758 0.84618 0.0
C2656 C 0.63496 0.0167 0.8528 0.0
C2657 C 0.65221 0.02536 0.84452 0.0
C2658 C 0.62886 0.0147 0.8371 0.0
C2659 C 0.59012 0.99656 0.83792 0.0
H2660 H 0.90611 0.65337 0.83331 0.0
H2661 H 0.98366 0.73294 0.85161 0.0
H2662 H 0.93599 0.61617 0.83483 0.0
H2663 H 0.01444 0.6965 0.85297 0.0
H2664 H 0.04429 0.60849 0.85952 0.0
H2665 H 1.0108 0.64214 0.85848 0.0
H2666 H 0.98945 0.61318 0.83116 0.0
H2667 H 0.02212 0.57852 0.83229 0.0
C2668 C 0.9296 0.66294 0.83767 0.0
C2669 C 0.94246 0.6962 0.84233 0.0
C2670 C 0.94703 0.64171 0.83849 0.0
C2671 C 0.97799 0.65312 0.844 0.0
C2672 C 0.99047 0.68628 0.84875 0.0
C2673 C 0.97292 0.70742 0.84794 0.0
C2674 C 0.03229 0.60905 0.85329 0.0
C2675 C 0.03607 0.59062 0.84599 0.0
C2676 C 1.01322 0.62873 0.85267 0.0
C2677 C 0.99736 0.63089 0.84471 0.0
C2678 C 1.00072 0.61197 0.83744 0.0
C2679 C 0.01969 0.59211 0.83807 0.0
H2680 H 0.35037 0.26333 0.82793 0.0
H2681 H 0.29839 0.25271 0.85291 0.0
H2682 H 0.39006 0.32921 0.83026 0.0
H2683 H 0.33638 0.31967 0.85509 0.0
H2684 H 0.42562 0.4401 0.85954 0.0
H2685 H 0.39086 0.37292 0.85804 0.0
H2686 H 0.39412 0.38497 0.82993 0.0
H2687 H 0.43075 0.45165 0.8315 0.0
C2688 C 0.34734 0.27526 0.83394 0.0
C2689 C 0.32118 0.25269 0.84022 0.0
C2690 C 0.36991 0.31345 0.83525 0.0
C2691 C 0.36649 0.33085 0.84282 0.0
C2692 C 0.34057 0.30788 0.84921 0.0
C2693 C 0.31849 0.2693 0.84796 0.0
C2694 C 0.41922 0.42828 0.85303 0.0
C2695 C 0.43139 0.45151 0.84564 0.0
C2696 C 0.39882 0.3895 0.85216 0.0
C2697 C 0.38922 0.37255 0.84385 0.0
C2698 C 0.40142 0.39613 0.83647 0.0
C2699 C 0.42244 0.43479 0.83735 0.0
H2700 H 0.65569 0.91379 0.99915 0.0
H2701 H 0.67006 0.90512 0.02683 0.0
H2702 H 0.6893 0.98108 1.00033 0.0
H2703 H 0.70287 0.97231 0.02804 0.0
H2704 H 0.71414 0.09899 1.00738 0.0
H2705 H 0.6839 0.03184 1.00566 0.0
H2706 H 0.75819 0.02839 0.02481 0.0
H2707 H 0.78765 0.09533 0.02664 0.0
C2708 C 0.66607 0.92613 1.0055 0.0
C2709 C 0.66 0.90363 1.01289 0.0
C2710 C 0.68518 0.96494 1.00619 0.0
C2711 C 0.6989 0.98262 0.01429 0.0
C2712 C 0.69332 0.96006 0.02165 0.0
C2713 C 0.67423 0.92127 0.02096 0.0
C2714 C 0.72408 0.08387 1.01119 0.0
C2715 C 0.75323 0.10261 0.01718 0.0
C2716 C 0.70686 0.04525 1.01018 0.0
C2717 C 0.71828 0.02419 0.01512 0.0
C2718 C 0.74799 0.04325 0.02099 0.0
C2719 C 0.76516 0.08182 0.022 0.0
H2720 H 0.93213 0.68006 0.0306 0.0
H2721 H 0.92121 0.63849 1.00436 0.0
H2722 H 0.99888 0.71444 0.02908 0.0
H2723 H 0.98818 0.67533 1.00245 0.0
H2724 H 0.11218 0.71888 1.00338 0.0
H2725 H 0.04526 0.68445 1.00477 0.0
H2726 H 0.05171 0.76244 0.0243 0.0
H2727 H 0.11895 0.79488 0.02332 0.0
C2728 C 0.94406 0.6788 0.02441 0.0
C2729 C 0.92118 0.6564 0.01761 0.0
C2730 C 0.98273 0.69899 0.02348 0.0
C2731 C 1.00006 0.6984 0.0156 0.0
C2732 C 0.97676 0.67634 1.00872 0.0
C2733 C 0.93802 0.65532 1.00975 0.0
C2734 C 0.09925 0.72869 1.00797 0.0
C2735 C 0.12115 0.75972 0.01325 0.0
C2736 C 0.06046 0.70897 1.00874 0.0
C2737 C 0.04194 0.72008 0.01467 0.0
C2738 C 0.06415 0.75185 0.0198 0.0
C2739 C 0.10304 0.77095 0.01919 0.0
H2740 H 0.26974 0.36124 0.99988 0.0
H2741 H 0.26399 0.36718 0.02792 0.0
H2742 H 0.30363 0.328 1.00141 0.0
H2743 H 0.29977 0.33628 0.02952 0.0
H2744 H 0.34144 0.25671 0.0315 0.0
H2745 H 0.3027 0.28392 0.02914 0.0
H2746 H 0.35767 0.32845 1.00445 0.0
H2747 H 0.3947 0.2985 1.00666 0.0
C2748 C 0.27582 0.35555 1.00639 0.0
C2749 C 0.26374 0.36672 0.01377 0.0
C2750 C 0.29572 0.33668 1.00728 0.0
C2751 C 0.30487 0.32894 0.0156 0.0
C2752 C 0.29278 0.34044 0.02297 0.0
C2753 C 0.27227 0.35858 0.02207 0.0
C2754 C 0.34496 0.27198 0.02552 0.0
C2755 C 0.37119 0.27539 0.01928 0.0
C2756 C 0.32294 0.28818 0.02419 0.0
C2757 C 0.32702 0.3094 0.01665 0.0
C2758 C 0.353 0.31219 1.01031 0.0
C2759 C 0.37452 0.29511 1.01157 0.0
H2760 H 0.11289 0.40093 0.50421 0.0
H2761 H 0.11955 0.32611 0.52254 0.0
H2762 H 0.04615 0.36856 0.50573 0.0
H2763 H 0.05216 0.29156 0.52365 0.0
H2764 H 0.93213 0.25445 0.5303 0.0
H2765 H 0.99909 0.2863 0.52886 0.0
H2766 H 0.98975 0.3204 0.50272 0.0
H2767 H 0.92286 0.29074 0.50455 0.0
C2768 C 0.09996 0.37702 0.50847 0.0
C2769 C 0.12178 0.36616 0.51323 0.0
C2770 C 0.06127 0.35802 0.5093 0.0
C2771 C 0.0427 0.32678 0.51478 0.0
C2772 C 0.06477 0.31572 0.51948 0.0
C2773 C 0.10368 0.33538 0.5188 0.0
C2774 C 0.94446 0.2688 0.52424 0.0
C2775 C 0.92205 0.27013 0.51755 0.0
C2776 C 0.98317 0.28698 0.52336 0.0
C2777 C 1.00087 0.30646 0.51566 0.0
C2778 C 0.978 0.30682 0.50887 0.0
C2779 C 0.93932 0.28937 0.50985 0.0
H2780 H 0.66679 0.76853 0.52709 0.0
H2781 H 0.6533 0.74663 0.49936 0.0
H2782 H 0.6999 0.73436 0.52824 0.0
H2783 H 0.68707 0.71323 0.50047 0.0
H2784 H 0.71364 0.62122 0.50707 0.0
H2785 H 0.6823 0.65717 0.50561 0.0
H2786 H 0.7557 0.73442 0.52496 0.0
H2787 H 0.78631 0.69791 0.52653 0.0
C2788 C 0.67114 0.75679 0.52121 0.0
C2789 C 0.65713 0.76051 0.51313 0.0
C2790 C 0.69039 0.73722 0.52186 0.0
C2791 C 0.69632 0.72069 0.51446 0.0
C2792 C 0.68269 0.72487 0.50637 0.0
C2793 C 0.66345 0.74441 0.50572 0.0
C2794 C 0.72316 0.64598 0.51099 0.0
C2795 C 0.75245 0.65654 0.51694 0.0
C2796 C 0.70529 0.66681 0.51012 0.0
C2797 C 0.71616 0.6989 0.51519 0.0
C2798 C 0.74593 0.70967 0.52105 0.0
C2799 C 0.76377 0.68884 0.5219 0.0
H2800 H 0.25021 0.90288 0.52739 0.0
H2801 H 0.27827 0.91258 0.49999 0.0
H2802 H 0.28458 0.97028 0.52872 0.0
H2803 H 0.31156 0.97962 0.50124 0.0
H2804 H 0.40283 0.09703 0.50816 0.0
H2805 H 0.36645 0.02982 0.50673 0.0
H2806 H 0.28713 0.027 0.52532 0.0
H2807 H 0.3243 0.09415 0.5269 0.0
C2808 C 0.26329 0.91932 0.52162 0.0
C2809 C 0.26144 0.90201 0.51359 0.0
C2810 C 0.28299 0.95816 0.52236 0.0
C2811 C 0.30132 0.9809 0.5151 0.0
C2812 C 0.29866 0.96341 0.50704 0.0
C2813 C 0.27918 0.92471 0.50631 0.0
C2814 C 0.37754 0.08205 0.51191 0.0
C2815 C 0.36658 0.10105 0.51766 0.0
C2816 C 0.35644 0.04337 0.51107 0.0
C2817 C 0.32357 0.02246 0.51591 0.0
C2818 C 0.31244 0.04174 0.52157 0.0
C2819 C 0.33364 0.08041 0.52243 0.0
H2820 H 0.07295 0.44167 0.35493 0.0
H2821 H 0.99768 0.44768 0.33662 0.0
H2822 H 0.04082 0.37494 0.35346 0.0
H2823 H 0.96342 0.38032 0.33554 0.0
H2824 H 0.92733 0.2606 0.32885 0.0
H2825 H 0.95873 0.32752 0.33031 0.0
H2826 H 0.99275 0.31839 0.35647 0.0
H2827 H 0.96351 0.25157 0.35463 0.0
C2828 C 0.049 0.42861 0.35068 0.0
C2829 C 0.03796 0.45025 0.34591 0.0
C2830 C 0.03014 0.38992 0.34987 0.0
C2831 C 0.99889 0.37118 0.3444 0.0
C2832 C 0.98761 0.39306 0.3397 0.0
C2833 C 1.00711 0.43196 0.34036 0.0
C2834 C 0.94156 0.27297 0.33492 0.0
C2835 C 0.943 0.25065 0.34161 0.0
C2836 C 0.95948 0.31164 0.3358 0.0
C2837 C 0.97881 0.32939 0.34352 0.0
C2838 C 0.97927 0.3066 0.35031 0.0
C2839 C 0.96207 0.26796 0.34932 0.0
H2840 H 0.76794 0.7312 0.35105 0.0
H2841 H 0.76596 0.65264 0.33246 0.0
H2842 H 0.70067 0.69452 0.35241 0.0
H2843 H 0.69879 0.61519 0.33398 0.0
H2844 H 0.58326 0.60603 0.35902 0.0
H2845 H 0.65038 0.63969 0.35788 0.0
H2846 H 0.642 0.61209 0.33046 0.0
H2847 H 0.57456 0.57735 0.33169 0.0
C2848 C 0.75314 0.70585 0.34732 0.0
C2849 C 0.77241 0.69497 0.34163 0.0
C2850 C 0.71443 0.68457 0.34812 0.0
C2851 C 0.69376 0.6516 0.3433 0.0
C2852 C 0.71332 0.64056 0.33771 0.0
C2853 C 0.75201 0.66193 0.33688 0.0
C2854 C 0.59562 0.60688 0.35274 0.0
C2855 C 0.57317 0.58885 0.34545 0.0
C2856 C 0.63437 0.62658 0.35207 0.0
C2857 C 0.65215 0.62917 0.34406 0.0
C2858 C 0.62967 0.61056 0.33678 0.0
C2859 C 0.59079 0.59065 0.33747 0.0
H2860 H 0.3546 0.09661 0.32913 0.0
H2861 H 0.30827 0.05949 0.35479 0.0
H2862 H 0.39001 0.06515 0.33061 0.0
H2863 H 0.34574 0.0302 0.35666 0.0
H2864 H 0.38899 0.95012 0.35509 0.0
H2865 H 0.35453 0.98239 0.35366 0.0
H2866 H 0.43787 0.06025 0.33589 0.0
H2867 H 0.4708 0.02589 0.33692 0.0
C2868 C 0.35247 0.08217 0.33517 0.0
C2869 C 0.32844 0.08051 0.34183 0.0
C2870 C 0.37317 0.06421 0.33608 0.0
C2871 C 0.37125 0.04461 0.34377 0.0
C2872 C 0.34771 0.04391 0.35052 0.0
C2873 C 0.32634 0.06115 0.34951 0.0
C2874 C 0.40005 0.97421 0.35089 0.0
C2875 C 0.43281 0.98532 0.34613 0.0
C2876 C 0.38028 0.99314 0.3501 0.0
C2877 C 0.39296 0.02453 0.34467 0.0
C2878 C 0.42627 0.03595 0.34001 0.0
C2879 C 0.44558 0.01639 0.34065 0.0
H2880 H 0.11604 0.34325 0.07371 0.0
H2881 H 0.23305 0.38154 0.07537 0.0
H2882 H 0.10931 0.32829 0.0892 0.0
H2883 H 0.22651 0.36779 0.09101 0.0
H2884 H 0.19329 0.30452 0.11734 0.0
H2885 H 0.20109 0.31791 0.10169 0.0
H2886 H 0.12419 0.35839 0.10315 0.0
H2887 H 0.11539 0.34381 0.11866 0.0
C2888 C 0.14038 0.34827 0.07735 0.0
C2889 C 0.17511 0.36356 0.0732 0.0
C2890 C 0.13658 0.34014 0.0863 0.0
C2891 C 0.16738 0.34701 0.09144 0.0
C2892 C 0.20207 0.36184 0.08729 0.0
C2893 C 0.2059 0.37009 0.07831 0.0
C2894 C 0.17787 0.31608 0.11432 0.0
C2895 C 0.15371 0.32305 0.11934 0.0
C2896 C 0.18263 0.32412 0.10533 0.0
C2897 C 0.1632 0.33916 0.10108 0.0
C2898 C 0.13929 0.34638 0.10612 0.0
C2899 C 0.13463 0.33846 0.11509 0.0
H2900 H 0.60247 0.80578 0.0773 0.0
H2901 H 0.71672 0.83948 0.072 0.0
H2902 H 0.6164 0.8162 0.09283 0.0
H2903 H 0.73014 0.84773 0.08755 0.0
H2904 H 0.75265 0.88736 0.11557 0.0
H2905 H 0.73814 0.8837 0.10007 0.0
H2906 H 0.62929 0.79054 0.1051 0.0
H2907 H 0.643 0.79564 0.12064 0.0
C2908 C 0.63066 0.81565 0.0794 0.0
C2909 C 0.65836 0.82163 0.07329 0.0
C2910 C 0.63857 0.82111 0.08838 0.0
C2911 C 0.67442 0.8326 0.09156 0.0
C2912 C 0.70227 0.83926 0.08543 0.0
C2913 C 0.6944 0.83398 0.07645 0.0
C2914 C 0.72532 0.86653 0.11342 0.0
C2915 C 0.69913 0.84177 0.11946 0.0
C2916 C 0.71715 0.86404 0.10446 0.0
C2917 C 0.68255 0.8366 0.10121 0.0
C2918 C 0.65611 0.81232 0.10728 0.0
C2919 C 0.66422 0.81493 0.11624 0.0
H2920 H 0.20138 0.82968 0.12118 0.0
H2921 H 0.15654 0.9004 0.11503 0.0
H2922 H 0.20804 0.82168 0.1056 0.0
H2923 H 0.16214 0.89149 0.09948 0.0
H2924 H 0.22005 0.90398 0.07305 0.0
H2925 H 0.20988 0.9095 0.08849 0.0
H2926 H 0.17364 0.79379 0.0922 0.0
H2927 H 0.18342 0.78808 0.07669 0.0
C2928 C 0.19279 0.84342 0.11652 0.0
C2929 C 0.17843 0.86574 0.11942 0.0
C2930 C 0.19627 0.83852 0.10756 0.0
C2931 C 0.18574 0.85599 0.10123 0.0
C2932 C 0.17096 0.87792 0.10414 0.0
C2933 C 0.16731 0.88266 0.11308 0.0
C2934 C 0.2093 0.87946 0.07709 0.0
C2935 C 0.20254 0.84552 0.07352 0.0
C2936 C 0.20353 0.88268 0.086 0.0
C2937 C 0.19093 0.85212 0.09166 0.0
C2938 C 0.18388 0.8181 0.0881 0.0
C2939 C 0.18952 0.81483 0.07917 0.0
H2940 H 0.38517 0.22851 0.45094 0.0
H2941 H 0.34788 0.11171 0.45228 0.0
H2942 H 0.37225 0.22273 0.43526 0.0
H2943 H 0.33369 0.1057 0.43676 0.0
H2944 H 0.34989 0.11302 0.40734 0.0
H2945 H 0.36411 0.12132 0.42287 0.0
H2946 H 0.32308 0.19771 0.42445 0.0
H2947 H 0.31012 0.19049 0.40878 0.0
C2948 C 0.37412 0.20156 0.44792 0.0
C2949 C 0.36761 0.1706 0.45296 0.0
C2950 C 0.36634 0.19816 0.43892 0.0
C2951 C 0.35201 0.16375 0.43467 0.0
C2952 C 0.34518 0.13279 0.43973 0.0
C2953 C 0.35285 0.13615 0.44871 0.0
C2954 C 0.34437 0.13207 0.41094 0.0
C2955 C 0.3289 0.15115 0.40672 0.0
C2956 C 0.35207 0.13643 0.41992 0.0
C2957 C 0.34455 0.16001 0.42501 0.0
C2958 C 0.32952 0.1795 0.42078 0.0
C2959 C 0.32172 0.17506 0.41178 0.0
H2960 H 0.89082 0.23746 0.40612 0.0
H2961 H 0.84631 0.12004 0.40967 0.0
H2962 H 0.88117 0.24373 0.42156 0.0
H2963 H 0.83714 0.12652 0.42518 0.0
H2964 H 0.8656 0.16076 0.45422 0.0
H2965 H 0.87203 0.15248 0.43864 0.0
H2966 H 0.83375 0.22865 0.43252 0.0
H2967 H 0.82834 0.23772 0.44807 0.0
C2968 C 0.87846 0.2128 0.41014 0.0
C2969 C 0.86934 0.17818 0.40654 0.0
C2970 C 0.873 0.21646 0.41905 0.0
C2971 C 0.85839 0.18567 0.42469 0.0
C2972 C 0.84898 0.15099 0.4211 0.0
C2973 C 0.85428 0.14729 0.41217 0.0
C2974 C 0.85865 0.17585 0.44956 0.0
C2975 C 0.84643 0.19994 0.45247 0.0
C2976 C 0.86199 0.17081 0.4406 0.0
C2977 C 0.8535 0.18992 0.43426 0.0
C2978 C 0.84095 0.21373 0.43717 0.0
C2979 C 0.8374 0.2186 0.44612 0.0
H2980 H 0.78292 0.67517 0.40699 0.0
H2981 H 0.89985 0.7127 0.4083 0.0
H2982 H 0.77696 0.66072 0.4225 0.0
H2983 H 0.8941 0.69953 0.42396 0.0
H2984 H 0.86201 0.63693 0.45037 0.0
H2985 H 0.86919 0.65018 0.43471 0.0
H2986 H 0.79252 0.69088 0.43641 0.0
H2987 H 0.78426 0.67635 0.45193 0.0
C2988 C 0.8074 0.68015 0.41055 0.0
C2989 C 0.84188 0.69505 0.4063 0.0
C2990 C 0.80406 0.67232 0.41952 0.0
C2991 C 0.83507 0.67914 0.42457 0.0
C2992 C 0.86951 0.69362 0.42031 0.0
C2993 C 0.87288 0.70155 0.41132 0.0
C2994 C 0.84651 0.64852 0.4474 0.0
C2995 C 0.82253 0.65552 0.45249 0.0
C2996 C 0.85093 0.65649 0.43841 0.0
C2997 C 0.83135 0.67151 0.43422 0.0
C2998 C 0.80771 0.67885 0.43934 0.0
C2999 C 0.80336 0.67098 0.44831 0.0
H3000 H 0.83299 0.64218 0.9051 0.0
H3001 H 0.90582 0.75714 0.91154 0.0
H3002 H 0.82372 0.62692 0.92064 0.0
H3003 H 0.89568 0.74208 0.92705 0.0
H3004 H 0.90406 0.6949 0.95363 0.0
H3005 H 0.91136 0.71121 0.9382 0.0
H3006 H 0.79545 0.63361 0.93391 0.0
H3007 H 0.78795 0.61752 0.94939 0.0
C3008 C 0.84696 0.66427 0.90981 0.0
C3009 C 0.8702 0.70095 0.90699 0.0
C3010 C 0.84133 0.65555 0.91876 0.0
C3011 C 0.85896 0.6832 0.92517 0.0
C3012 C 0.88191 0.71991 0.92234 0.0
C3013 C 0.88738 0.72865 0.91341 0.0
C3014 C 0.87988 0.68168 0.94946 0.0
C3015 C 0.84535 0.65483 0.95287 0.0
C3016 C 0.88413 0.69103 0.94056 0.0
C3017 C 0.85405 0.67376 0.93474 0.0
C3018 C 0.81944 0.64713 0.93813 0.0
C3019 C 0.81514 0.63788 0.94705 0.0
H3020 H 0.38206 0.19969 0.90511 0.0
H3021 H 0.26705 0.15951 0.91116 0.0
H3022 H 0.39645 0.20566 0.9207 0.0
H3023 H 0.28122 0.16435 0.92672 0.0
H3024 H 0.32781 0.22065 0.95324 0.0
H3025 H 0.31223 0.21126 0.93778 0.0
H3026 H 0.38843 0.17094 0.93407 0.0
H3027 H 0.40382 0.17999 0.9496 0.0
C3028 C 0.35977 0.19198 0.90975 0.0
C3029 C 0.32335 0.17914 0.90681 0.0
C3030 C 0.36798 0.19505 0.91872 0.0
C3031 C 0.34006 0.1856 0.92503 0.0
C3032 C 0.30358 0.17233 0.92209 0.0
C3033 C 0.29535 0.1691 0.91313 0.0
C3034 C 0.34087 0.20918 0.9492 0.0
C3035 C 0.36711 0.20106 0.95277 0.0
C3036 C 0.33194 0.20385 0.94028 0.0
C3037 C 0.34903 0.19032 0.93461 0.0
C3038 C 0.37506 0.18192 0.93818 0.0
C3039 C 0.38391 0.18714 0.94711 0.0
H3040 H 0.89591 0.15873 0.91043 0.0
H3041 H 0.78454 0.13757 0.90639 0.0
H3042 H 0.89119 0.16943 0.92593 0.0
H3043 H 0.77996 0.14849 0.92184 0.0
H3044 H 0.79411 0.20237 0.94847 0.0
H3045 H 0.80243 0.19573 0.93295 0.0
H3046 H 0.86023 0.13711 0.93921 0.0
H3047 H 0.85305 0.14491 0.95476 0.0
C3048 C 0.87034 0.15619 0.91282 0.0
C3049 C 0.84065 0.14727 0.90707 0.0
C3050 C 0.86763 0.16235 0.92175 0.0
C3051 C 0.83518 0.15988 0.9252 0.0
C3052 C 0.80564 0.15129 0.91944 0.0
C3053 C 0.80831 0.14506 0.91053 0.0
C3054 C 0.80915 0.18858 0.94657 0.0
C3055 C 0.82292 0.17424 0.95294 0.0
C3056 C 0.8135 0.18433 0.93763 0.0
C3057 C 0.83184 0.16567 0.93476 0.0
C3058 C 0.84621 0.1519 0.94113 0.0
C3059 C 0.84175 0.15605 0.95008 0.0
H3060 H 0.64218 0.78973 0.57504 0.0
H3061 H 0.67777 0.90621 0.57407 0.0
H3062 H 0.65509 0.79489 0.59072 0.0
H3063 H 0.69187 0.9116 0.5896 0.0
H3064 H 0.6759 0.90274 0.61898 0.0
H3065 H 0.66124 0.89465 0.60347 0.0
H3066 H 0.70471 0.82038 0.60149 0.0
H3067 H 0.71815 0.82738 0.61714 0.0
C3068 C 0.65283 0.81646 0.57814 0.0
C3069 C 0.65892 0.84753 0.57322 0.0
C3070 C 0.6606 0.8195 0.58714 0.0
C3071 C 0.67445 0.85365 0.5915 0.0
C3072 C 0.68078 0.88471 0.58654 0.0
C3073 C 0.67315 0.88171 0.57757 0.0
C3074 C 0.68185 0.88418 0.6153 0.0
C3075 C 0.69818 0.86566 0.6194 0.0
C3076 C 0.67389 0.87994 0.60634 0.0
C3077 C 0.68199 0.85706 0.60115 0.0
C3078 C 0.69782 0.83806 0.60525 0.0
C3079 C 0.70589 0.84238 0.61424 0.0
H3080 H 0.11752 0.7768 0.57382 0.0
H3081 H 0.23455 0.85585 0.57524 0.0
H3082 H 0.11133 0.78541 0.58932 0.0
H3083 H 0.22857 0.86341 0.59088 0.0
H3084 H 0.19631 0.89428 0.61722 0.0
H3085 H 0.20371 0.8881 0.60158 0.0
H3086 H 0.12646 0.77078 0.60328 0.0
H3087 H 0.118 0.77715 0.61878 0.0
C3088 C 0.14198 0.79626 0.57741 0.0
C3089 C 0.17655 0.8157 0.57319 0.0
C3090 C 0.1385 0.80081 0.58637 0.0
C3091 C 0.16946 0.82495 0.59144 0.0
C3092 C 0.204 0.84477 0.58722 0.0
C3093 C 0.20751 0.84014 0.57823 0.0
C3094 C 0.18073 0.86718 0.61426 0.0
C3095 C 0.15654 0.83625 0.61934 0.0
C3096 C 0.18527 0.86356 0.60527 0.0
C3097 C 0.1656 0.82894 0.60109 0.0
C3098 C 0.14173 0.798 0.6062 0.0
C3099 C 0.13727 0.80159 0.61516 0.0
H3100 H 0.22437 0.32711 0.5724 0.0
H3101 H 0.1836 0.4028 0.57644 0.0
H3102 H 0.21482 0.31058 0.58782 0.0
H3103 H 0.17449 0.38652 0.59191 0.0
H3104 H 0.2029 0.37859 0.62079 0.0
H3105 H 0.20941 0.39389 0.60525 0.0
H3106 H 0.16765 0.27899 0.59886 0.0
H3107 H 0.16218 0.26389 0.61438 0.0
C3108 C 0.21286 0.3399 0.57652 0.0
C3109 C 0.20478 0.36637 0.57307 0.0
C3110 C 0.20746 0.33044 0.58541 0.0
C3111 C 0.19393 0.34721 0.59118 0.0
C3112 C 0.18551 0.37341 0.58773 0.0
C3113 C 0.19076 0.38277 0.57882 0.0
C3114 C 0.19521 0.35657 0.61608 0.0
C3115 C 0.18199 0.31995 0.61891 0.0
C3116 C 0.1986 0.3653 0.60714 0.0
C3117 C 0.18912 0.33773 0.60074 0.0
C3118 C 0.17562 0.30108 0.60356 0.0
C3119 C 0.17203 0.29232 0.6125 0.0
H3120 H 0.94091 0.47665 0.74361 0.0
H3121 H 0.05334 0.50295 0.73857 0.0
H3122 H 0.95469 0.48713 0.75914 0.0
H3123 H 0.06651 0.51137 0.75415 0.0
H3124 H 0.09012 0.55288 0.78206 0.0
H3125 H 0.07627 0.54906 0.76651 0.0
H3126 H 0.96517 0.45992 0.77155 0.0
H3127 H 0.97838 0.46515 0.78713 0.0
C3128 C 0.96869 0.48493 0.74577 0.0
C3129 C 0.99591 0.48884 0.73974 0.0
C3130 C 0.97647 0.49042 0.75475 0.0
C3131 C 1.01172 0.4999 0.75801 0.0
C3132 C 0.03914 0.50449 0.75195 0.0
C3133 C 0.03139 0.49913 0.74297 0.0
C3134 C 0.06247 0.53291 0.7799 0.0
C3135 C 0.03547 0.50931 0.78595 0.0
C3136 C 0.05466 0.53033 0.77092 0.0
C3137 C 0.0196 0.50397 0.76767 0.0
C3138 C 0.99239 0.48085 0.77374 0.0
C3139 C 1.00016 0.48353 0.78272 0.0
H3140 H 0.54884 0.46857 0.74421 0.0
H3141 H 0.52117 0.55336 0.73878 0.0
H3142 H 0.53868 0.47282 0.75972 0.0
H3143 H 0.51307 0.55909 0.75433 0.0
H3144 H 0.47221 0.54273 0.78229 0.0
H3145 H 0.4759 0.53188 0.76679 0.0
H3146 H 0.5657 0.51126 0.77201 0.0
H3147 H 0.56059 0.52004 0.78755 0.0
C3148 C 0.54034 0.48798 0.74628 0.0
C3149 C 0.53595 0.51063 0.74013 0.0
C3150 C 0.53503 0.49083 0.75525 0.0
C3151 C 0.52525 0.51651 0.75839 0.0
C3152 C 0.5202 0.53868 0.75223 0.0
C3153 C 0.52537 0.53573 0.74326 0.0
C3154 C 0.4923 0.53518 0.78018 0.0
C3155 C 0.51611 0.53239 0.78628 0.0
C3156 C 0.49481 0.52947 0.77122 0.0
C3157 C 0.5213 0.52088 0.76803 0.0
C3158 C 0.54465 0.51743 0.77414 0.0
C3159 C 0.54205 0.52299 0.7831 0.0
H3160 H 0.56708 0.04448 0.74216 0.0
H3161 H 0.45039 1.00807 0.74084 0.0
H3162 H 0.56122 0.03151 0.75783 0.0
H3163 H 0.4443 0.99379 0.75636 0.0
H3164 H 0.45192 0.01034 0.78574 0.0
H3165 H 0.46032 0.02448 0.77021 0.0
H3166 H 0.53579 0.9823 0.76863 0.0
H3167 H 0.52851 0.96944 0.78431 0.0
C3168 C 0.54014 0.0336 0.74518 0.0
C3169 C 0.50924 0.02738 0.74016 0.0
C3170 C 0.5367 0.02579 0.75418 0.0
C3171 C 0.5023 0.01171 0.75843 0.0
C3172 C 0.47137 1.0051 0.75338 0.0
C3173 C 0.47478 0.01282 0.74441 0.0
C3174 C 0.4708 1.00457 0.78214 0.0
C3175 C 0.48961 0.9888 0.78636 0.0
C3176 C 0.47521 0.01221 0.77317 0.0
C3177 C 0.49854 1.00433 0.76809 0.0
C3178 C 0.51778 0.98902 0.77231 0.0
C3179 C 0.5133 0.98128 0.78131 0.0
H3180 H 0.57749 1.00646 0.24034 0.0
H3181 H 0.50189 0.04856 0.24176 0.0
H3182 H 0.56895 0.99234 0.25587 0.0
H3183 H 0.49441 0.03565 0.25743 0.0
H3184 H 0.4624 0.97313 0.28389 0.0
H3185 H 0.46844 0.98617 0.26822 0.0
H3186 H 0.58518 0.02314 0.26974 0.0
H3187 H 0.57892 1.00888 0.28526 0.0
C3188 C 0.5588 0.01251 0.24394 0.0
C3189 C 0.54031 0.0286 0.23971 0.0
C3190 C 0.5543 1.00486 0.25291 0.0
C3191 C 0.53117 0.01304 0.25799 0.0
C3192 C 0.51227 0.0287 0.25376 0.0
C3193 C 0.51686 0.03647 0.24476 0.0
C3194 C 0.48934 0.98387 0.28088 0.0
C3195 C 0.52015 0.98992 0.28591 0.0
C3196 C 0.49288 0.99171 0.27188 0.0
C3197 C 0.52729 1.00561 0.26764 0.0
C3198 C 0.55811 0.01199 0.2727 0.0
C3199 C 0.5546 1.00428 0.28168 0.0
H3200 H 0.09469 0.56488 0.28142 0.0
H3201 H 0.97886 0.49687 0.28783 0.0
H3202 H 0.07953 0.55569 0.26591 0.0
H3203 H 0.96356 0.48861 0.27229 0.0
H3204 H 0.9525 0.45348 0.24346 0.0
H3205 H 0.96853 0.45953 0.25895 0.0
H3206 H 0.05046 0.57433 0.25491 0.0
H3207 H 0.03426 0.56848 0.23948 0.0
C3208 C 0.06598 0.54767 0.27954 0.0
C3209 C 0.03806 0.53158 0.28594 0.0
C3210 C 0.05721 0.54278 0.27061 0.0
C3211 C 0.02025 0.52152 0.26779 0.0
C3212 C 0.99236 0.50491 0.27418 0.0
C3213 C 1.00112 0.50996 0.28312 0.0
C3214 C 0.97382 0.48011 0.24586 0.0
C3215 C 0.99203 0.51045 0.24013 0.0
C3216 C 0.98303 0.48357 0.25477 0.0
C3217 C 1.01084 0.51744 0.25823 0.0
C3218 C 0.02933 0.54764 0.25249 0.0
C3219 C 0.02004 0.54422 0.2436 0.0
H3220 H 0.46839 0.50061 0.2383 0.0
H3221 H 0.5557 0.47636 0.24358 0.0
H3222 H 0.46271 0.50852 0.25387 0.0
H3223 H 0.55143 0.4863 0.2591 0.0
H3224 H 0.50486 0.46336 0.28699 0.0
H3225 H 0.51345 0.45847 0.27143 0.0
H3226 H 0.48961 0.54614 0.26631 0.0
H3227 H 0.47899 0.54961 0.28183 0.0
C3228 C 0.48658 0.49713 0.24275 0.0
C3229 C 0.51239 0.48758 0.23958 0.0
C3230 C 0.48364 0.50218 0.25173 0.0
C3231 C 0.50651 0.49801 0.25785 0.0
C3232 C 0.53288 0.48925 0.25466 0.0
C3233 C 0.53573 0.48407 0.24569 0.0
C3234 C 0.50115 0.48148 0.28257 0.0
C3235 C 0.49095 0.50675 0.28577 0.0
C3236 C 0.50661 0.479 0.2736 0.0
C3237 C 0.5022 0.50182 0.2675 0.0
C3238 C 0.49277 0.52765 0.27072 0.0
C3239 C 0.48719 0.53004 0.2797 0.0
H3240 H 0.9877 0.11346 0.28443 0.0
H3241 H 0.98496 0.21542 0.28359 0.0
H3242 H 0.01412 0.12559 0.2698 0.0
H3243 H 1.01142 0.22756 0.26892 0.0
H3244 H 0.02361 0.21819 0.23921 0.0
H3245 H 0.99794 0.20726 0.25395 0.0
H3246 H 0.06907 0.16468 0.26161 0.0
H3247 H 0.09479 0.17568 0.24692 0.0
C3248 C 0.99313 0.13874 0.28119 0.0
C3249 C 0.98414 0.16344 0.28528 0.0
C3250 C 1.00833 0.14572 0.27275 0.0
C3251 C 0.01507 0.17764 0.2681 0.0
C3252 C 1.00616 0.20239 0.2722 0.0
C3253 C 0.99095 0.19541 0.28065 0.0
C3254 C 0.0341 0.20682 0.24404 0.0
C3255 C 0.06131 0.19774 0.24177 0.0
C3256 C 0.01931 0.20053 0.25253 0.0
C3257 C 0.03121 0.18492 0.25904 0.0
C3258 C 0.05859 0.17607 0.25678 0.0
C3259 C 0.07339 0.18239 0.2483 0.0
H3260 H 0.91533 0.85935 0.28161 0.0
H3261 H 0.79975 0.77896 0.28536 0.0
H3262 H 0.90192 0.87141 0.26689 0.0
H3263 H 0.78658 0.78989 0.27048 0.0
H3264 H 0.76976 0.8467 0.24653 0.0
H3265 H 0.7822 0.83409 0.26131 0.0
H3266 H 0.88569 0.84519 0.25259 0.0
H3267 H 0.87328 0.8579 0.23781 0.0
C3268 C 0.88698 0.84428 0.27933 0.0
C3269 C 0.85867 0.81822 0.28478 0.0
C3270 C 0.87934 0.85086 0.2708 0.0
C3271 C 0.84312 0.83159 0.2674 0.0
C3272 C 0.81476 0.8056 0.27285 0.0
C3273 C 0.82242 0.79899 0.28139 0.0
C3274 C 0.79499 0.84603 0.24772 0.0
C3275 C 0.82047 0.85341 0.2409 0.0
C3276 C 0.80217 0.83878 0.25624 0.0
C3277 C 0.83507 0.83866 0.25824 0.0
C3278 C 0.86037 0.8457 0.2514 0.0
C3279 C 0.85321 0.85297 0.24288 0.0
H3280 H 0.15783 0.05015 0.28283 0.0
H3281 H 0.2527 0.03507 0.28457 0.0
H3282 H 0.14595 0.02529 0.26805 0.0
H3283 H 0.24169 0.01157 0.26963 0.0
H3284 H 0.18773 0.93479 0.24592 0.0
H3285 H 0.20064 0.95956 0.26074 0.0
H3286 H 0.1691 0.03984 0.25342 0.0
H3287 H 0.15616 0.01505 0.23861 0.0
C3288 C 0.17614 0.04141 0.28009 0.0
C3289 C 0.20621 0.04461 0.28499 0.0
C3290 C 0.1696 0.02757 0.27153 0.0
C3291 C 0.19289 0.01643 0.26755 0.0
C3292 C 0.22288 0.01948 0.27245 0.0
C3293 C 0.22947 0.03339 0.28102 0.0
C3294 C 0.18397 0.95804 0.24742 0.0
C3295 C 0.17077 0.97275 0.241 0.0
C3296 C 0.19137 0.97228 0.25596 0.0
C3297 C 0.18582 1.00172 0.25836 0.0
C3298 C 0.17306 0.01672 0.25191 0.0
C3299 C 0.16565 1.00248 0.24338 0.0
H3300 H 0.98789 0.77083 0.78453 0.0
H3301 H 0.97271 0.86564 0.78294 0.0
H3302 H 1.01128 0.78208 0.76957 0.0
H3303 H 0.99746 0.87774 0.76815 0.0
H3304 H 1.00706 0.86769 0.73865 0.0
H3305 H 0.98275 0.85487 0.7535 0.0
H3306 H 0.06302 0.82301 0.76061 0.0
H3307 H 0.08734 0.83581 0.74574 0.0
C3308 C 0.98953 0.79412 0.78102 0.0
C3309 C 0.97828 0.81726 0.78503 0.0
C3310 C 1.00339 0.80084 0.77243 0.0
C3311 C 1.00635 0.83086 0.76756 0.0
C3312 C 0.99524 0.85407 0.77159 0.0
C3313 C 0.98146 0.84739 0.78017 0.0
C3314 C 0.01976 0.85817 0.74338 0.0
C3315 C 0.04934 0.85292 0.74092 0.0
C3316 C 1.00578 0.85083 0.75194 0.0
C3317 C 0.02089 0.83799 0.75835 0.0
C3318 C 0.0502 0.83234 0.75587 0.0
C3319 C 0.06419 0.83968 0.7473 0.0
H3320 H 0.1179 0.14275 0.74142 0.0
H3321 H 0.22191 0.24572 0.74201 0.0
H3322 H 0.1295 0.12848 0.75611 0.0
H3323 H 0.23352 0.23143 0.75672 0.0
H3324 H 0.22433 0.2113 0.78649 0.0
H3325 H 0.21386 0.22597 0.77171 0.0
H3326 H 0.16715 0.11127 0.76441 0.0
H3327 H 0.17768 0.09663 0.77915 0.0
C3328 C 0.14351 0.16221 0.74462 0.0
C3329 C 0.16894 0.19543 0.74043 0.0
C3330 C 0.15018 0.154 0.75309 0.0
C3331 C 0.18253 0.17871 0.75769 0.0
C3332 C 0.20802 0.2119 0.7535 0.0
C3333 C 0.20134 0.22012 0.74501 0.0
C3334 C 0.21214 0.1892 0.78173 0.0
C3335 C 0.20177 0.15267 0.78412 0.0
C3336 C 0.20611 0.19766 0.77321 0.0
C3337 C 0.18949 0.16986 0.76679 0.0
C3338 C 0.17935 0.1334 0.76916 0.0
C3339 C 0.1854 0.12496 0.77767 0.0
H3340 H 0.87846 0.10631 0.77752 0.0
H3341 H 0.85367 0.99984 0.78769 0.0
H3342 H 0.86314 0.08033 0.76282 0.0
H3343 H 0.83965 0.97422 0.77296 0.0
H3344 H 0.78193 0.92993 0.74674 0.0
H3345 H 0.79478 0.95641 0.76138 0.0
H3346 H 0.88596 0.05769 0.75126 0.0
H3347 H 0.87226 0.03166 0.73655 0.0
C3348 C 0.8696 0.07731 0.77665 0.0
C3349 C 0.86732 0.05527 0.78385 0.0
C3350 C 0.86123 0.06248 0.76817 0.0
C3351 C 0.85017 0.02509 0.76664 0.0
C3352 C 0.84766 1.003 0.77385 0.0
C3353 C 0.85615 0.01785 0.78232 0.0
C3354 C 0.80443 0.95804 0.74759 0.0
C3355 C 0.82596 0.97858 0.74039 0.0
C3356 C 0.81212 0.97311 0.75604 0.0
C3357 C 0.84154 0.00925 0.75757 0.0
C3358 C 0.86287 0.02993 0.75036 0.0
C3359 C 0.85524 0.01481 0.74191 0.0
H3360 H 0.6228 0.44141 0.61443 0.0
H3361 H 0.67106 0.55837 0.61944 0.0
H3362 H 0.64769 0.45486 0.59965 0.0
H3363 H 0.69466 0.57178 0.60451 0.0
H3364 H 0.76486 0.58389 0.58018 0.0
H3365 H 0.74017 0.57144 0.595 0.0
H3366 H 0.64024 0.47605 0.58569 0.0
H3367 H 0.66499 0.48847 0.57087 0.0
C3368 C 0.63883 0.47006 0.61241 0.0
C3369 C 0.64494 0.49875 0.61822 0.0
C3370 C 0.65272 0.47778 0.60385 0.0
C3371 C 0.67321 0.51447 0.6008 0.0
C3372 C 0.67938 0.54319 0.60661 0.0
C3373 C 0.66544 0.53546 0.61518 0.0
C3374 C 0.73741 0.5605 0.58125 0.0
C3375 C 0.71704 0.53723 0.57425 0.0
C3376 C 0.7232 0.55331 0.58979 0.0
C3377 C 0.68812 0.52262 0.59162 0.0
C3378 C 0.66761 0.49955 0.58461 0.0
C3379 C 0.68184 0.50672 0.57607 0.0
H3380 H 0.52168 0.10147 0.61282 0.0
H3381 H 0.52171 0.19928 0.62197 0.0
H3382 H 0.50924 0.11384 0.59801 0.0
H3383 H 0.5092 0.21163 0.60717 0.0
H3384 H 0.52559 0.24487 0.57835 0.0
H3385 H 0.5372 0.23145 0.59311 0.0
H3386 H 0.4638 0.11479 0.58859 0.0
H3387 H 0.4534 0.12812 0.57367 0.0
C3388 C 0.51858 0.12539 0.61172 0.0
C3389 C 0.5228 0.14934 0.61867 0.0
C3390 C 0.51143 0.13253 0.60318 0.0
C3391 C 0.50826 0.16386 0.6013 0.0
C3392 C 0.51211 0.1876 0.60827 0.0
C3393 C 0.51928 0.18047 0.61681 0.0
C3394 C 0.51224 0.21627 0.58043 0.0
C3395 C 0.48862 0.18764 0.57472 0.0
C3396 C 0.51852 0.20858 0.58899 0.0
C3397 C 0.50141 0.17197 0.59213 0.0
C3398 C 0.47783 0.1433 0.58642 0.0
C3399 C 0.4715 0.15101 0.57785 0.0
H3400 H 0.82219 0.32695 0.62161 0.0
H3401 H 0.9217 0.42363 0.61261 0.0
H3402 H 0.80993 0.30215 0.6068 0.0
H3403 H 0.9094 0.39889 0.5978 0.0
H3404 H 0.89425 0.32828 0.57349 0.0
H3405 H 0.90754 0.35196 0.58842 0.0
H3406 H 0.7911 0.31109 0.5927 0.0
H3407 H 0.77768 0.28608 0.57793 0.0
C3408 C 0.8414 0.3431 0.61647 0.0
C3409 C 0.87297 0.37743 0.61838 0.0
C3410 C 0.83432 0.32884 0.60794 0.0
C3411 C 0.85854 0.34845 0.60101 0.0
C3412 C 0.89032 0.38261 0.60294 0.0
C3413 C 0.89742 0.39686 0.61148 0.0
C3414 C 0.8714 0.32401 0.57763 0.0
C3415 C 0.83483 0.30518 0.57442 0.0
C3416 C 0.87909 0.33801 0.58619 0.0
C3417 C 0.85046 0.33356 0.59184 0.0
C3418 C 0.81393 0.31476 0.58863 0.0
C3419 C 0.80625 0.30081 0.58007 0.0
H3420 H 0.75946 0.19026 0.08059 0.0
H3421 H 0.65992 0.18263 0.07004 0.0
H3422 H 0.73254 0.17808 0.09518 0.0
H3423 H 0.63286 0.17024 0.08464 0.0
H3424 H 0.60983 0.1869 0.11302 0.0
H3425 H 0.63667 0.19834 0.09844 0.0
H3426 H 0.68684 0.13226 0.10452 0.0
H3427 H 0.66144 0.12228 0.11926 0.0
C3428 C 0.73161 0.18551 0.08134 0.0
C3429 C 0.71198 0.18746 0.07406 0.0
C3430 C 0.71609 0.17849 0.08975 0.0
C3431 C 0.68038 0.17314 0.09117 0.0
C3432 C 0.66064 0.17483 0.08388 0.0
C3433 C 0.6762 0.18192 0.07547 0.0
C3434 C 0.62695 0.17512 0.11131 0.0
C3435 C 0.63344 0.15373 0.11742 0.0
C3436 C 0.64199 0.18128 0.10286 0.0
C3437 C 0.66402 0.16623 0.10021 0.0
C3438 C 0.67043 0.14474 0.1063 0.0
C3439 C 0.6554 0.13859 0.11476 0.0
H3440 H 0.89606 0.54446 0.1203 0.0
H3441 H 0.84374 0.42947 0.11276 0.0
H3442 H 0.88637 0.56057 0.10561 0.0
H3443 H 0.83251 0.44535 0.09822 0.0
H3444 H 0.84956 0.48956 0.07026 0.0
H3445 H 0.86185 0.4745 0.08482 0.0
H3446 H 0.83946 0.55633 0.09595 0.0
H3447 H 0.82734 0.57145 0.0814 0.0
C3448 C 0.88254 0.52254 0.11552 0.0
C3449 C 0.87071 0.48557 0.11781 0.0
C3450 C 0.87653 0.53177 0.10709 0.0
C3451 C 0.85853 0.50434 0.10065 0.0
C3452 C 0.84684 0.4674 0.10292 0.0
C3453 C 0.85285 0.45819 0.11135 0.0
C3454 C 0.84704 0.50424 0.0758 0.0
C3455 C 0.83745 0.53182 0.07458 0.0
C3456 C 0.85408 0.49555 0.08419 0.0
C3457 C 0.85167 0.51409 0.09164 0.0
C3458 C 0.84226 0.5418 0.0904 0.0
C3459 C 0.83528 0.55052 0.08202 0.0
H3460 H 0.55166 0.33999 0.12054 0.0
H3461 H 0.49632 0.40092 0.11418 0.0
H3462 H 0.53895 0.31356 0.10591 0.0
H3463 H 0.48222 0.37323 0.09964 0.0
H3464 H 0.49901 0.34785 0.07116 0.0
H3465 H 0.51016 0.37422 0.08583 0.0
H3466 H 0.49092 0.27043 0.09657 0.0
H3467 H 0.47984 0.24415 0.08194 0.0
C3468 C 0.53672 0.34779 0.11604 0.0
C3469 C 0.5252 0.37284 0.11862 0.0
C3470 C 0.52899 0.33219 0.10764 0.0
C3471 C 0.50945 0.34108 0.10151 0.0
C3472 C 0.49768 0.36593 0.1041 0.0
C3473 C 0.50537 0.3815 0.11252 0.0
C3474 C 0.49677 0.33047 0.07665 0.0
C3475 C 0.48868 0.2938 0.07528 0.0
C3476 C 0.50318 0.34566 0.0851 0.0
C3477 C 0.50168 0.32466 0.09247 0.0
C3478 C 0.49312 0.28785 0.0911 0.0
C3479 C 0.48673 0.27269 0.08266 0.0
H3480 H 0.32429 0.82569 0.90354 0.0
H3481 H 0.42989 0.90597 0.91444 0.0
H3482 H 0.29795 0.81025 0.91821 0.0
H3483 H 0.40323 0.89154 0.92906 0.0
H3484 H 0.35516 0.82885 0.95469 0.0
H3485 H 0.38101 0.84379 0.93998 0.0
H3486 H 0.27904 0.83368 0.9304 0.0
H3487 H 0.25271 0.81744 0.94505 0.0
C3488 C 0.34195 0.84012 0.90905 0.0
C3489 C 0.37934 0.86715 0.90773 0.0
C3490 C 0.32668 0.83153 0.91749 0.0
C3491 C 0.34835 0.84958 0.92489 0.0
C3492 C 0.38569 0.87669 0.92357 0.0
C3493 C 0.40091 0.88534 0.91514 0.0
C3494 C 0.33807 0.82948 0.94944 0.0
C3495 C 0.30172 0.82183 0.95112 0.0
C3496 C 0.3531 0.8385 0.941 0.0
C3497 C 0.33225 0.84007 0.93394 0.0
C3498 C 0.2959 0.83242 0.93561 0.0
C3499 C 0.28091 0.82352 0.94407 0.0
H3500 H 0.19905 0.53704 0.95434 0.0
H3501 H 0.1797 0.42968 0.9463 0.0
H3502 H 0.18623 0.54892 0.93953 0.0
H3503 H 0.16695 0.44158 0.93147 0.0
H3504 H 0.11251 0.46086 0.90751 0.0
H3505 H 0.12372 0.44829 0.92243 0.0
H3506 H 0.2113 0.56185 0.92506 0.0
H3507 H 0.19908 0.57477 0.9103 0.0
C3508 C 0.1923 0.516 0.94942 0.0
C3509 C 0.19051 0.48236 0.95159 0.0
C3510 C 0.18496 0.52286 0.94088 0.0
C3511 C 0.17561 0.49632 0.93421 0.0
C3512 C 0.17348 0.46254 0.93641 0.0
C3513 C 0.1808 0.45568 0.94496 0.0
C3514 C 0.13397 0.48328 0.91128 0.0
C3515 C 0.15483 0.51889 0.90762 0.0
C3516 C 0.14071 0.47594 0.91984 0.0
C3517 C 0.16846 0.504 0.92503 0.0
C3518 C 0.18938 0.53956 0.92135 0.0
C3519 C 0.18269 0.54687 0.9128 0.0
H3520 H 0.55313 0.64207 0.90956 0.0
H3521 H 0.45652 0.65415 0.90756 0.0
H3522 H 0.56451 0.6679 0.92427 0.0
H3523 H 0.46874 0.68134 0.92212 0.0
H3524 H 0.47731 0.69157 0.95192 0.0
H3525 H 0.46644 0.66567 0.93723 0.0
H3526 H 0.58426 0.72364 0.93247 0.0
H3527 H 0.59513 0.74949 0.94719 0.0
C3528 C 0.53429 0.65026 0.91223 0.0
C3529 C 0.5038 0.64581 0.9073 0.0
C3530 C 0.54108 0.66553 0.92067 0.0
C3531 C 0.51757 0.67679 0.92447 0.0
C3532 C 0.48727 0.67263 0.91951 0.0
C3533 C 0.48052 0.65743 0.91107 0.0
C3534 C 0.50096 0.69909 0.94773 0.0
C3535 C 0.53715 0.72282 0.95081 0.0
C3536 C 0.4947 0.6842 0.93927 0.0
C3537 C 0.5244 0.69253 0.93357 0.0
C3538 C 0.56062 0.71606 0.93667 0.0
C3539 C 0.56689 0.73093 0.94514 0.0
H3540 H 0.26659 0.42947 0.44538 0.0
H3541 H 0.35962 0.53217 0.45428 0.0
H3542 H 0.29189 0.44221 0.43061 0.0
H3543 H 0.38492 0.5449 0.43952 0.0
H3544 H 0.40034 0.57582 0.41058 0.0
H3545 H 0.37478 0.56184 0.42529 0.0
H3546 H 0.34072 0.44669 0.42143 0.0
H3547 H 0.36499 0.46045 0.40655 0.0
C3548 C 0.29269 0.45457 0.44423 0.0
C3549 C 0.3109 0.47976 0.4511 0.0
C3550 C 0.30725 0.46193 0.43572 0.0
C3551 C 0.3405 0.49472 0.43379 0.0
C3552 C 0.35892 0.51969 0.44067 0.0
C3553 C 0.34437 0.51234 0.44918 0.0
C3554 C 0.387 0.54739 0.41279 0.0
C3555 C 0.38472 0.51931 0.40728 0.0
C3556 C 0.37273 0.53942 0.42132 0.0
C3557 C 0.35568 0.50309 0.42464 0.0
C3558 C 0.35329 0.47495 0.41912 0.0
C3559 C 0.36763 0.48294 0.41058 0.0
H3560 H 0.56058 0.90127 0.40683 0.0
H3561 H 0.44526 0.8188 0.40996 0.0
H3562 H 0.57309 0.8888 0.42164 0.0
H3563 H 0.45804 0.80522 0.42459 0.0
H3564 H 0.48417 0.81538 0.45372 0.0
H3565 H 0.47272 0.82978 0.43902 0.0
H3566 H 0.57779 0.84404 0.43054 0.0
H3567 H 0.58932 0.82984 0.44528 0.0
C3568 C 0.53784 0.88045 0.41066 0.0
C3569 C 0.50186 0.86109 0.40712 0.0
C3570 C 0.54512 0.87297 0.41915 0.0
C3571 C 0.51663 0.84595 0.42439 0.0
C3572 C 0.48069 0.82655 0.42084 0.0
C3573 C 0.47343 0.83401 0.41236 0.0
C3574 C 0.50478 0.82135 0.44872 0.0
C3575 C 0.53766 0.82128 0.45074 0.0
C3576 C 0.49818 0.8296 0.44025 0.0
C3577 C 0.52419 0.83798 0.43351 0.0
C3578 C 0.55726 0.83828 0.43555 0.0
C3579 C 0.5639 0.83009 0.44403 0.0
H3580 H 0.17577 0.75293 0.44643 0.0
H3581 H 0.20001 0.66808 0.45437 0.0
H3582 H 0.16256 0.72764 0.43167 0.0
H3583 H 0.18677 0.64277 0.43961 0.0
H3584 H 0.19898 0.63033 0.41032 0.0
H3585 H 0.21106 0.65561 0.42506 0.0
H3586 H 0.11995 0.67641 0.42278 0.0
H3587 H 0.10879 0.65245 0.40787 0.0
C3588 C 0.17785 0.72859 0.44508 0.0
C3589 C 0.18909 0.71272 0.45167 0.0
C3590 C 0.17026 0.71403 0.43657 0.0
C3591 C 0.17368 0.68313 0.43436 0.0
C3592 C 0.18449 0.667 0.44097 0.0
C3593 C 0.19208 0.68155 0.44948 0.0
C3594 C 0.18175 0.64071 0.41289 0.0
C3595 C 0.15295 0.63937 0.40781 0.0
C3596 C 0.18838 0.6548 0.42143 0.0
C3597 C 0.16646 0.66806 0.4252 0.0
C3598 C 0.13771 0.66684 0.42012 0.0
C3599 C 0.13102 0.65267 0.41157 0.0
loop_
_geom_bond_atom_site_label_1
_geom_bond_atom_site_label_2
_geom_bond_distance
_geom_bond_site_symmetry_2
_ccdc_geom_bond_type
Gd0 C3 2.818 . S
Gd0 O20 2.377 . S
Gd0 O22 2.448 . S
Gd0 O23 2.506 . S
Gd0 O24 2.435 . S
Gd0 O25 2.717 . S
Gd0 O27 2.395 . S
Gd0 O31 2.327 . S
Gd1 C12 2.818 . S
Gd1 O21 2.395 . S
Gd1 O25 2.327 . S
Gd1 O26 2.377 . S
Gd1 O28 2.448 . S
Gd1 O29 2.506 . S
Gd1 O30 2.435 . S
Gd1 O31 2.717 . S
C2 O20 1.240 . S
C2 O21 1.240 . S
C3 Gd0 2.818 . S
C3 C4 1.510 . S
C3 O22 1.249 . S
C3 O23 1.252 . S
C4 C3 1.510 . S
C4 C5 1.404 . S
C4 C6 1.352 . S
C5 C4 1.404 . S
C5 C9 1.389 . S
C5 H32 0.930 . S
C6 C4 1.352 . S
C6 C8 1.374 . S
C6 H33 0.931 . S
C7 C8 1.359 . S
C7 C9 1.364 . S
C8 C6 1.374 . S
C8 C7 1.359 . S
C8 H34 0.931 . S
C9 C5 1.389 . S
C9 C7 1.364 . S
C9 H35 0.931 . S
C10 O24 1.256 . S
C10 O25 1.257 . S
C11 O26 1.240 . S
C11 O27 1.240 . S
C12 Gd1 2.818 . S
C12 C13 1.510 . S
C12 O28 1.249 . S
C12 O29 1.252 . S
C13 C12 1.510 . S
C13 C14 1.404 . S
C13 C15 1.352 . S
C14 C13 1.404 . S
C14 C18 1.389 . S
C14 H36 0.930 . S
C15 C13 1.352 . S
C15 C17 1.374 . S
C15 H37 0.931 . S
C16 C17 1.359 . S
C16 C18 1.364 . S
C17 C15 1.374 . S
C17 C16 1.359 . S
C17 H38 0.931 . S
C18 C14 1.389 . S
C18 C16 1.364 . S
C18 H39 0.931 . S
C19 O30 1.256 . S
C19 O31 1.257 . S
O20 Gd0 2.377 . S
O20 C2 1.240 . S
O21 Gd1 2.395 . S
O21 C2 1.240 . S
O22 Gd0 2.448 . S
O22 C3 1.249 . S
O23 Gd0 2.506 . S
O23 C3 1.252 . S
O24 Gd0 2.435 . S
O24 C10 1.256 . S
O25 Gd0 2.717 . S
O25 Gd1 2.327 . S
O25 C10 1.257 . S
O26 Gd1 2.377 . S
O26 C11 1.240 . S
O27 Gd0 2.395 . S
O27 C11 1.240 . S
O28 Gd1 2.448 . S
O28 C12 1.249 . S
O29 Gd1 2.506 . S
O29 C12 1.252 . S
O30 Gd1 2.435 . S
O30 C19 1.256 . S
O31 Gd0 2.327 . S
O31 Gd1 2.717 . S
O31 C19 1.257 . S
H32 C5 0.930 . S
H33 C6 0.931 . S
H34 C8 0.931 . S
H35 C9 0.931 . S
H36 C14 0.930 . S
H37 C15 0.931 . S
H38 C17 0.931 . S
H39 C18 0.931 . S
Gd40 C43 2.818 . S
Gd40 O60 2.377 . S
Gd40 O62 2.448 . S
Gd40 O63 2.506 . S
Gd40 O64 2.435 . S
Gd40 O65 2.717 . S
Gd40 O67 2.395 . S
Gd40 O71 2.327 . S
Gd41 C52 2.818 . S
Gd41 O61 2.395 . S
Gd41 O65 2.327 . S
Gd41 O66 2.377 . S
Gd41 O68 2.448 . S
Gd41 O69 2.506 . S
Gd41 O70 2.435 . S
Gd41 O71 2.717 . S
C42 O60 1.240 . S
C42 O61 1.240 . S
C43 Gd40 2.818 . S
C43 C44 1.510 . S
C43 O62 1.249 . S
C43 O63 1.252 . S
C44 C43 1.510 . S
C44 C45 1.404 . S
C44 C46 1.352 . S
C45 C44 1.404 . S
C45 C49 1.389 . S
C45 H72 0.930 . S
C46 C44 1.352 . S
C46 C48 1.374 . S
C46 H73 0.931 . S
C47 C48 1.359 . S
C47 C49 1.364 . S
C48 C46 1.374 . S
C48 C47 1.359 . S
C48 H74 0.931 . S
C49 C45 1.389 . S
C49 C47 1.364 . S
C49 H75 0.931 . S
C50 O64 1.256 . S
C50 O65 1.257 . S
C51 O66 1.240 . S
C51 O67 1.240 . S
C52 Gd41 2.818 . S
C52 C53 1.510 . S
C52 O68 1.249 . S
C52 O69 1.252 . S
C53 C52 1.510 . S
C53 C54 1.404 . S
C53 C55 1.352 . S
C54 C53 1.404 . S
C54 C58 1.389 . S
C54 H76 0.930 . S
C55 C53 1.352 . S
C55 C57 1.374 . S
C55 H77 0.931 . S
C56 C57 1.359 . S
C56 C58 1.364 . S
C57 C55 1.374 . S
C57 C56 1.359 . S
C57 H78 0.931 . S
C58 C54 1.389 . S
C58 C56 1.364 . S
C58 H79 0.931 . S
C59 O70 1.256 . S
C59 O71 1.257 . S
O60 Gd40 2.377 . S
O60 C42 1.240 . S
O61 Gd41 2.395 . S
O61 C42 1.240 . S
O62 Gd40 2.448 . S
O62 C43 1.249 . S
O63 Gd40 2.506 . S
O63 C43 1.252 . S
O64 Gd40 2.435 . S
O64 C50 1.256 . S
O65 Gd40 2.717 . S
O65 Gd41 2.327 . S
O65 C50 1.257 . S
O66 Gd41 2.377 . S
O66 C51 1.240 . S
O67 Gd40 2.395 . S
O67 C51 1.240 . S
O68 Gd41 2.448 . S
O68 C52 1.249 . S
O69 Gd41 2.506 . S
O69 C52 1.252 . S
O70 Gd41 2.435 . S
O70 C59 1.256 . S
O71 Gd40 2.327 . S
O71 Gd41 2.717 . S
O71 C59 1.257 . S
H72 C45 0.930 . S
H73 C46 0.931 . S
H74 C48 0.931 . S
H75 C49 0.931 . S
H76 C54 0.930 . S
H77 C55 0.931 . S
H78 C57 0.931 . S
H79 C58 0.931 . S
Gd80 C83 2.818 . S
Gd80 O100 2.377 . S
Gd80 O102 2.448 . S
Gd80 O103 2.506 . S
Gd80 O104 2.435 . S
Gd80 O105 2.717 . S
Gd80 O107 2.395 . S
Gd80 O111 2.327 . S
Gd81 C92 2.818 . S
Gd81 O101 2.395 . S
Gd81 O105 2.327 . S
Gd81 O106 2.377 . S
Gd81 O108 2.448 . S
Gd81 O109 2.506 . S
Gd81 O110 2.435 . S
Gd81 O111 2.717 . S
C82 O100 1.240 . S
C82 O101 1.240 . S
C83 Gd80 2.818 . S
C83 C84 1.510 . S
C83 O102 1.249 . S
C83 O103 1.252 . S
C84 C83 1.510 . S
C84 C85 1.404 . S
C84 C86 1.352 . S
C85 C84 1.404 . S
C85 C89 1.389 . S
C85 H112 0.930 . S
C86 C84 1.352 . S
C86 C88 1.374 . S
C86 H113 0.931 . S
C87 C88 1.359 . S
C87 C89 1.364 . S
C88 C86 1.374 . S
C88 C87 1.359 . S
C88 H114 0.931 . S
C89 C85 1.389 . S
C89 C87 1.364 . S
C89 H115 0.931 . S
C90 O104 1.256 . S
C90 O105 1.257 . S
C91 O106 1.240 . S
C91 O107 1.240 . S
C92 Gd81 2.818 . S
C92 C93 1.510 . S
C92 O108 1.249 . S
C92 O109 1.252 . S
C93 C92 1.510 . S
C93 C94 1.404 . S
C93 C95 1.352 . S
C94 C93 1.404 . S
C94 C98 1.389 . S
C94 H116 0.930 . S
C95 C93 1.352 . S
C95 C97 1.374 . S
C95 H117 0.931 . S
C96 C97 1.359 . S
C96 C98 1.364 . S
C97 C95 1.374 . S
C97 C96 1.359 . S
C97 H118 0.931 . S
C98 C94 1.389 . S
C98 C96 1.364 . S
C98 H119 0.931 . S
C99 O110 1.256 . S
C99 O111 1.257 . S
O100 Gd80 2.377 . S
O100 C82 1.240 . S
O101 Gd81 2.395 . S
O101 C82 1.240 . S
O102 Gd80 2.448 . S
O102 C83 1.249 . S
O103 Gd80 2.506 . S
O103 C83 1.252 . S
O104 Gd80 2.435 . S
O104 C90 1.256 . S
O105 Gd80 2.717 . S
O105 Gd81 2.327 . S
O105 C90 1.257 . S
O106 Gd81 2.377 . S
O106 C91 1.240 . S
O107 Gd80 2.395 . S
O107 C91 1.240 . S
O108 Gd81 2.448 . S
O108 C92 1.249 . S
O109 Gd81 2.506 . S
O109 C92 1.252 . S
O110 Gd81 2.435 . S
O110 C99 1.256 . S
O111 Gd80 2.327 . S
O111 Gd81 2.717 . S
O111 C99 1.257 . S
H112 C85 0.930 . S
H113 C86 0.931 . S
H114 C88 0.931 . S
H115 C89 0.931 . S
H116 C94 0.930 . S
H117 C95 0.931 . S
H118 C97 0.931 . S
H119 C98 0.931 . S
Gd120 C123 2.818 . S
Gd120 O140 2.377 . S
Gd120 O142 2.448 . S
Gd120 O143 2.506 . S
Gd120 O144 2.435 . S
Gd120 O145 2.717 . S
Gd120 O147 2.395 . S
Gd120 O151 2.327 . S
Gd121 C132 2.818 . S
Gd121 O141 2.395 . S
Gd121 O145 2.327 . S
Gd121 O146 2.377 . S
Gd121 O148 2.448 . S
Gd121 O149 2.506 . S
Gd121 O150 2.435 . S
Gd121 O151 2.717 . S
C122 O140 1.240 . S
C122 O141 1.240 . S
C123 Gd120 2.818 . S
C123 C124 1.510 . S
C123 O142 1.249 . S
C123 O143 1.252 . S
C124 C123 1.510 . S
C124 C125 1.404 . S
C124 C126 1.352 . S
C125 C124 1.404 . S
C125 C129 1.389 . S
C125 H152 0.930 . S
C126 C124 1.352 . S
C126 C128 1.374 . S
C126 H153 0.931 . S
C127 C128 1.359 . S
C127 C129 1.364 . S
C128 C126 1.374 . S
C128 C127 1.359 . S
C128 H154 0.931 . S
C129 C125 1.389 . S
C129 C127 1.364 . S
C129 H155 0.931 . S
C130 O144 1.256 . S
C130 O145 1.257 . S
C131 O146 1.240 . S
C131 O147 1.240 . S
C132 Gd121 2.818 . S
C132 C133 1.510 . S
C132 O148 1.249 . S
C132 O149 1.252 . S
C133 C132 1.510 . S
C133 C134 1.404 . S
C133 C135 1.352 . S
C134 C133 1.404 . S
C134 C138 1.389 . S
C134 H156 0.930 . S
C135 C133 1.352 . S
C135 C137 1.374 . S
C135 H157 0.931 . S
C136 C137 1.359 . S
C136 C138 1.364 . S
C137 C135 1.374 . S
C137 C136 1.359 . S
C137 H158 0.931 . S
C138 C134 1.389 . S
C138 C136 1.364 . S
C138 H159 0.931 . S
C139 O150 1.256 . S
C139 O151 1.257 . S
O140 Gd120 2.377 . S
O140 C122 1.240 . S
O141 Gd121 2.395 . S
O141 C122 1.240 . S
O142 Gd120 2.448 . S
O142 C123 1.249 . S
O143 Gd120 2.506 . S
O143 C123 1.252 . S
O144 Gd120 2.435 . S
O144 C130 1.256 . S
O145 Gd120 2.717 . S
O145 Gd121 2.327 . S
O145 C130 1.257 . S
O146 Gd121 2.377 . S
O146 C131 1.240 . S
O147 Gd120 2.395 . S
O147 C131 1.240 . S
O148 Gd121 2.448 . S
O148 C132 1.249 . S
O149 Gd121 2.506 . S
O149 C132 1.252 . S
O150 Gd121 2.435 . S
O150 C139 1.256 . S
O151 Gd120 2.327 . S
O151 Gd121 2.717 . S
O151 C139 1.257 . S
H152 C125 0.930 . S
H153 C126 0.931 . S
H154 C128 0.931 . S
H155 C129 0.931 . S
H156 C134 0.930 . S
H157 C135 0.931 . S
H158 C137 0.931 . S
H159 C138 0.931 . S
Gd160 C163 2.818 . S
Gd160 O180 2.377 . S
Gd160 O182 2.448 . S
Gd160 O183 2.506 . S
Gd160 O184 2.435 . S
Gd160 O185 2.717 . S
Gd160 O187 2.395 . S
Gd160 O191 2.327 . S
Gd161 C172 2.818 . S
Gd161 O181 2.395 . S
Gd161 O185 2.327 . S
Gd161 O186 2.377 . S
Gd161 O188 2.448 . S
Gd161 O189 2.506 . S
Gd161 O190 2.435 . S
Gd161 O191 2.717 . S
C162 O180 1.240 . S
C162 O181 1.240 . S
C163 Gd160 2.818 . S
C163 C164 1.510 . S
C163 O182 1.249 . S
C163 O183 1.252 . S
C164 C163 1.510 . S
C164 C165 1.404 . S
C164 C166 1.352 . S
C165 C164 1.404 . S
C165 C169 1.389 . S
C165 H192 0.930 . S
C166 C164 1.352 . S
C166 C168 1.374 . S
C166 H193 0.931 . S
C167 C168 1.359 . S
C167 C169 1.364 . S
C168 C166 1.374 . S
C168 C167 1.359 . S
C168 H194 0.931 . S
C169 C165 1.389 . S
C169 C167 1.364 . S
C169 H195 0.931 . S
C170 O184 1.256 . S
C170 O185 1.257 . S
C171 O186 1.240 . S
C171 O187 1.240 . S
C172 Gd161 2.818 . S
C172 C173 1.510 . S
C172 O188 1.249 . S
C172 O189 1.252 . S
C173 C172 1.510 . S
C173 C174 1.404 . S
C173 C175 1.352 . S
C174 C173 1.404 . S
C174 C178 1.389 . S
C174 H196 0.930 . S
C175 C173 1.352 . S
C175 C177 1.374 . S
C175 H197 0.931 . S
C176 C177 1.359 . S
C176 C178 1.364 . S
C177 C175 1.374 . S
C177 C176 1.359 . S
C177 H198 0.931 . S
C178 C174 1.389 . S
C178 C176 1.364 . S
C178 H199 0.931 . S
C179 O190 1.256 . S
C179 O191 1.257 . S
O180 Gd160 2.377 . S
O180 C162 1.240 . S
O181 Gd161 2.395 . S
O181 C162 1.240 . S
O182 Gd160 2.448 . S
O182 C163 1.249 . S
O183 Gd160 2.506 . S
O183 C163 1.252 . S
O184 Gd160 2.435 . S
O184 C170 1.256 . S
O185 Gd160 2.717 . S
O185 Gd161 2.327 . S
O185 C170 1.257 . S
O186 Gd161 2.377 . S
O186 C171 1.240 . S
O187 Gd160 2.395 . S
O187 C171 1.240 . S
O188 Gd161 2.448 . S
O188 C172 1.249 . S
O189 Gd161 2.506 . S
O189 C172 1.252 . S
O190 Gd161 2.435 . S
O190 C179 1.256 . S
O191 Gd160 2.327 . S
O191 Gd161 2.717 . S
O191 C179 1.257 . S
H192 C165 0.930 . S
H193 C166 0.931 . S
H194 C168 0.931 . S
H195 C169 0.931 . S
H196 C174 0.930 . S
H197 C175 0.931 . S
H198 C177 0.931 . S
H199 C178 0.931 . S
Gd200 C203 2.818 . S
Gd200 O220 2.377 . S
Gd200 O222 2.448 . S
Gd200 O223 2.506 . S
Gd200 O224 2.435 . S
Gd200 O225 2.717 . S
Gd200 O227 2.395 . S
Gd200 O231 2.327 . S
Gd201 C212 2.818 . S
Gd201 O221 2.395 . S
Gd201 O225 2.327 . S
Gd201 O226 2.377 . S
Gd201 O228 2.448 . S
Gd201 O229 2.506 . S
Gd201 O230 2.435 . S
Gd201 O231 2.717 . S
C202 O220 1.240 . S
C202 O221 1.240 . S
C203 Gd200 2.818 . S
C203 C204 1.510 . S
C203 O222 1.249 . S
C203 O223 1.252 . S
C204 C203 1.510 . S
C204 C205 1.404 . S
C204 C206 1.352 . S
C205 C204 1.404 . S
C205 C209 1.389 . S
C205 H232 0.930 . S
C206 C204 1.352 . S
C206 C208 1.374 . S
C206 H233 0.931 . S
C207 C208 1.359 . S
C207 C209 1.364 . S
C208 C206 1.374 . S
C208 C207 1.359 . S
C208 H234 0.931 . S
C209 C205 1.389 . S
C209 C207 1.364 . S
C209 H235 0.931 . S
C210 O224 1.256 . S
C210 O225 1.257 . S
C211 O226 1.240 . S
C211 O227 1.240 . S
C212 Gd201 2.818 . S
C212 C213 1.510 . S
C212 O228 1.249 . S
C212 O229 1.252 . S
C213 C212 1.510 . S
C213 C214 1.404 . S
C213 C215 1.352 . S
C214 C213 1.404 . S
C214 C218 1.389 . S
C214 H236 0.930 . S
C215 C213 1.352 . S
C215 C217 1.374 . S
C215 H237 0.931 . S
C216 C217 1.359 . S
C216 C218 1.364 . S
C217 C215 1.374 . S
C217 C216 1.359 . S
C217 H238 0.931 . S
C218 C214 1.389 . S
C218 C216 1.364 . S
C218 H239 0.931 . S
C219 O230 1.256 . S
C219 O231 1.257 . S
O220 Gd200 2.377 . S
O220 C202 1.240 . S
O221 Gd201 2.395 . S
O221 C202 1.240 . S
O222 Gd200 2.448 . S
O222 C203 1.249 . S
O223 Gd200 2.506 . S
O223 C203 1.252 . S
O224 Gd200 2.435 . S
O224 C210 1.256 . S
O225 Gd200 2.717 . S
O225 Gd201 2.327 . S
O225 C210 1.257 . S
O226 Gd201 2.377 . S
O226 C211 1.240 . S
O227 Gd200 2.395 . S
O227 C211 1.240 . S
O228 Gd201 2.448 . S
O228 C212 1.249 . S
O229 Gd201 2.506 . S
O229 C212 1.252 . S
O230 Gd201 2.435 . S
O230 C219 1.256 . S
O231 Gd200 2.327 . S
O231 Gd201 2.717 . S
O231 C219 1.257 . S
H232 C205 0.930 . S
H233 C206 0.931 . S
H234 C208 0.931 . S
H235 C209 0.931 . S
H236 C214 0.930 . S
H237 C215 0.931 . S
H238 C217 0.931 . S
H239 C218 0.931 . S
Gd240 C243 2.818 . S
Gd240 O260 2.377 . S
Gd240 O262 2.448 . S
Gd240 O263 2.506 . S
Gd240 O264 2.435 . S
Gd240 O265 2.717 . S
Gd240 O267 2.395 . S
Gd240 O271 2.327 . S
Gd241 C252 2.818 . S
Gd241 O261 2.395 . S
Gd241 O265 2.327 . S
Gd241 O266 2.377 . S
Gd241 O268 2.448 . S
Gd241 O269 2.506 . S
Gd241 O270 2.435 . S
Gd241 O271 2.717 . S
C242 O260 1.240 . S
C242 O261 1.240 . S
C243 Gd240 2.818 . S
C243 C244 1.510 . S
C243 O262 1.249 . S
C243 O263 1.252 . S
C244 C243 1.510 . S
C244 C245 1.404 . S
C244 C246 1.352 . S
C245 C244 1.404 . S
C245 C249 1.389 . S
C245 H272 0.930 . S
C246 C244 1.352 . S
C246 C248 1.374 . S
C246 H273 0.931 . S
C247 C248 1.359 . S
C247 C249 1.364 . S
C248 C246 1.374 . S
C248 C247 1.359 . S
C248 H274 0.931 . S
C249 C245 1.389 . S
C249 C247 1.364 . S
C249 H275 0.931 . S
C250 O264 1.256 . S
C250 O265 1.257 . S
C251 O266 1.240 . S
C251 O267 1.240 . S
C252 Gd241 2.818 . S
C252 C253 1.510 . S
C252 O268 1.249 . S
C252 O269 1.252 . S
C253 C252 1.510 . S
C253 C254 1.404 . S
C253 C255 1.352 . S
C254 C253 1.404 . S
C254 C258 1.389 . S
C254 H276 0.930 . S
C255 C253 1.352 . S
C255 C257 1.374 . S
C255 H277 0.931 . S
C256 C257 1.359 . S
C256 C258 1.364 . S
C257 C255 1.374 . S
C257 C256 1.359 . S
C257 H278 0.931 . S
C258 C254 1.389 . S
C258 C256 1.364 . S
C258 H279 0.931 . S
C259 O270 1.256 . S
C259 O271 1.257 . S
O260 Gd240 2.377 . S
O260 C242 1.240 . S
O261 Gd241 2.395 . S
O261 C242 1.240 . S
O262 Gd240 2.448 . S
O262 C243 1.249 . S
O263 Gd240 2.506 . S
O263 C243 1.252 . S
O264 Gd240 2.435 . S
O264 C250 1.256 . S
O265 Gd240 2.717 . S
O265 Gd241 2.327 . S
O265 C250 1.257 . S
O266 Gd241 2.377 . S
O266 C251 1.240 . S
O267 Gd240 2.395 . S
O267 C251 1.240 . S
O268 Gd241 2.448 . S
O268 C252 1.249 . S
O269 Gd241 2.506 . S
O269 C252 1.252 . S
O270 Gd241 2.435 . S
O270 C259 1.256 . S
O271 Gd240 2.327 . S
O271 Gd241 2.717 . S
O271 C259 1.257 . S
H272 C245 0.930 . S
H273 C246 0.931 . S
H274 C248 0.931 . S
H275 C249 0.931 . S
H276 C254 0.930 . S
H277 C255 0.931 . S
H278 C257 0.931 . S
H279 C258 0.931 . S
Gd280 C283 2.818 . S
Gd280 O300 2.377 . S
Gd280 O302 2.448 . S
Gd280 O303 2.506 . S
Gd280 O304 2.435 . S
Gd280 O305 2.717 . S
Gd280 O307 2.395 . S
Gd280 O311 2.327 . S
Gd281 C292 2.818 . S
Gd281 O301 2.395 . S
Gd281 O305 2.327 . S
Gd281 O306 2.377 . S
Gd281 O308 2.448 . S
Gd281 O309 2.506 . S
Gd281 O310 2.435 . S
Gd281 O311 2.717 . S
C282 O300 1.240 . S
C282 O301 1.240 . S
C283 Gd280 2.818 . S
C283 C284 1.510 . S
C283 O302 1.249 . S
C283 O303 1.252 . S
C284 C283 1.510 . S
C284 C285 1.404 . S
C284 C286 1.352 . S
C285 C284 1.404 . S
C285 C289 1.389 . S
C285 H312 0.930 . S
C286 C284 1.352 . S
C286 C288 1.374 . S
C286 H313 0.931 . S
C287 C288 1.359 . S
C287 C289 1.364 . S
C288 C286 1.374 . S
C288 C287 1.359 . S
C288 H314 0.931 . S
C289 C285 1.389 . S
C289 C287 1.364 . S
C289 H315 0.931 . S
C290 O304 1.256 . S
C290 O305 1.257 . S
C291 O306 1.240 . S
C291 O307 1.240 . S
C292 Gd281 2.818 . S
C292 C293 1.510 . S
C292 O308 1.249 . S
C292 O309 1.252 . S
C293 C292 1.510 . S
C293 C294 1.404 . S
C293 C295 1.352 . S
C294 C293 1.404 . S
C294 C298 1.389 . S
C294 H316 0.930 . S
C295 C293 1.352 . S
C295 C297 1.374 . S
C295 H317 0.931 . S
C296 C297 1.359 . S
C296 C298 1.364 . S
C297 C295 1.374 . S
C297 C296 1.359 . S
C297 H318 0.931 . S
C298 C294 1.389 . S
C298 C296 1.364 . S
C298 H319 0.931 . S
C299 O310 1.256 . S
C299 O311 1.257 . S
O300 Gd280 2.377 . S
O300 C282 1.240 . S
O301 Gd281 2.395 . S
O301 C282 1.240 . S
O302 Gd280 2.448 . S
O302 C283 1.249 . S
O303 Gd280 2.506 . S
O303 C283 1.252 . S
O304 Gd280 2.435 . S
O304 C290 1.256 . S
O305 Gd280 2.717 . S
O305 Gd281 2.327 . S
O305 C290 1.257 . S
O306 Gd281 2.377 . S
O306 C291 1.240 . S
O307 Gd280 2.395 . S
O307 C291 1.240 . S
O308 Gd281 2.448 . S
O308 C292 1.249 . S
O309 Gd281 2.506 . S
O309 C292 1.252 . S
O310 Gd281 2.435 . S
O310 C299 1.256 . S
O311 Gd280 2.327 . S
O311 Gd281 2.717 . S
O311 C299 1.257 . S
H312 C285 0.930 . S
H313 C286 0.931 . S
H314 C288 0.931 . S
H315 C289 0.931 . S
H316 C294 0.930 . S
H317 C295 0.931 . S
H318 C297 0.931 . S
H319 C298 0.931 . S
Gd320 C323 2.818 . S
Gd320 O340 2.377 . S
Gd320 O342 2.448 . S
Gd320 O343 2.506 . S
Gd320 O344 2.435 . S
Gd320 O345 2.717 . S
Gd320 O347 2.395 . S
Gd320 O351 2.327 . S
Gd321 C332 2.818 . S
Gd321 O341 2.395 . S
Gd321 O345 2.327 . S
Gd321 O346 2.377 . S
Gd321 O348 2.448 . S
Gd321 O349 2.506 . S
Gd321 O350 2.435 . S
Gd321 O351 2.717 . S
C322 O340 1.240 . S
C322 O341 1.240 . S
C323 Gd320 2.818 . S
C323 C324 1.510 . S
C323 O342 1.249 . S
C323 O343 1.252 . S
C324 C323 1.510 . S
C324 C325 1.404 . S
C324 C326 1.352 . S
C325 C324 1.404 . S
C325 C329 1.389 . S
C325 H352 0.930 . S
C326 C324 1.352 . S
C326 C328 1.374 . S
C326 H353 0.931 . S
C327 C328 1.359 . S
C327 C329 1.364 . S
C328 C326 1.374 . S
C328 C327 1.359 . S
C328 H354 0.931 . S
C329 C325 1.389 . S
C329 C327 1.364 . S
C329 H355 0.931 . S
C330 O344 1.256 . S
C330 O345 1.257 . S
C331 O346 1.240 . S
C331 O347 1.240 . S
C332 Gd321 2.818 . S
C332 C333 1.510 . S
C332 O348 1.249 . S
C332 O349 1.252 . S
C333 C332 1.510 . S
C333 C334 1.404 . S
C333 C335 1.352 . S
C334 C333 1.404 . S
C334 C338 1.389 . S
C334 H356 0.930 . S
C335 C333 1.352 . S
C335 C337 1.374 . S
C335 H357 0.931 . S
C336 C337 1.359 . S
C336 C338 1.364 . S
C337 C335 1.374 . S
C337 C336 1.359 . S
C337 H358 0.931 . S
C338 C334 1.389 . S
C338 C336 1.364 . S
C338 H359 0.931 . S
C339 O350 1.256 . S
C339 O351 1.257 . S
O340 Gd320 2.377 . S
O340 C322 1.240 . S
O341 Gd321 2.395 . S
O341 C322 1.240 . S
O342 Gd320 2.448 . S
O342 C323 1.249 . S
O343 Gd320 2.506 . S
O343 C323 1.252 . S
O344 Gd320 2.435 . S
O344 C330 1.256 . S
O345 Gd320 2.717 . S
O345 Gd321 2.327 . S
O345 C330 1.257 . S
O346 Gd321 2.377 . S
O346 C331 1.240 . S
O347 Gd320 2.395 . S
O347 C331 1.240 . S
O348 Gd321 2.448 . S
O348 C332 1.249 . S
O349 Gd321 2.506 . S
O349 C332 1.252 . S
O350 Gd321 2.435 . S
O350 C339 1.256 . S
O351 Gd320 2.327 . S
O351 Gd321 2.717 . S
O351 C339 1.257 . S
H352 C325 0.930 . S
H353 C326 0.931 . S
H354 C328 0.931 . S
H355 C329 0.931 . S
H356 C334 0.930 . S
H357 C335 0.931 . S
H358 C337 0.931 . S
H359 C338 0.931 . S
Gd360 C363 2.818 . S
Gd360 O380 2.377 . S
Gd360 O382 2.448 . S
Gd360 O383 2.506 . S
Gd360 O384 2.435 . S
Gd360 O385 2.717 . S
Gd360 O387 2.395 . S
Gd360 O391 2.327 . S
Gd361 C372 2.818 . S
Gd361 O381 2.395 . S
Gd361 O385 2.327 . S
Gd361 O386 2.377 . S
Gd361 O388 2.448 . S
Gd361 O389 2.506 . S
Gd361 O390 2.435 . S
Gd361 O391 2.717 . S
C362 O380 1.240 . S
C362 O381 1.240 . S
C363 Gd360 2.818 . S
C363 C364 1.510 . S
C363 O382 1.249 . S
C363 O383 1.252 . S
C364 C363 1.510 . S
C364 C365 1.404 . S
C364 C366 1.352 . S
C365 C364 1.404 . S
C365 C369 1.389 . S
C365 H392 0.930 . S
C366 C364 1.352 . S
C366 C368 1.374 . S
C366 H393 0.931 . S
C367 C368 1.359 . S
C367 C369 1.364 . S
C368 C366 1.374 . S
C368 C367 1.359 . S
C368 H394 0.931 . S
C369 C365 1.389 . S
C369 C367 1.364 . S
C369 H395 0.931 . S
C370 O384 1.256 . S
C370 O385 1.257 . S
C371 O386 1.240 . S
C371 O387 1.240 . S
C372 Gd361 2.818 . S
C372 C373 1.510 . S
C372 O388 1.249 . S
C372 O389 1.252 . S
C373 C372 1.510 . S
C373 C374 1.404 . S
C373 C375 1.352 . S
C374 C373 1.404 . S
C374 C378 1.389 . S
C374 H396 0.930 . S
C375 C373 1.352 . S
C375 C377 1.374 . S
C375 H397 0.931 . S
C376 C377 1.359 . S
C376 C378 1.364 . S
C377 C375 1.374 . S
C377 C376 1.359 . S
C377 H398 0.931 . S
C378 C374 1.389 . S
C378 C376 1.364 . S
C378 H399 0.931 . S
C379 O390 1.256 . S
C379 O391 1.257 . S
O380 Gd360 2.377 . S
O380 C362 1.240 . S
O381 Gd361 2.395 . S
O381 C362 1.240 . S
O382 Gd360 2.448 . S
O382 C363 1.249 . S
O383 Gd360 2.506 . S
O383 C363 1.252 . S
O384 Gd360 2.435 . S
O384 C370 1.256 . S
O385 Gd360 2.717 . S
O385 Gd361 2.327 . S
O385 C370 1.257 . S
O386 Gd361 2.377 . S
O386 C371 1.240 . S
O387 Gd360 2.395 . S
O387 C371 1.240 . S
O388 Gd361 2.448 . S
O388 C372 1.249 . S
O389 Gd361 2.506 . S
O389 C372 1.252 . S
O390 Gd361 2.435 . S
O390 C379 1.256 . S
O391 Gd360 2.327 . S
O391 Gd361 2.717 . S
O391 C379 1.257 . S
H392 C365 0.930 . S
H393 C366 0.931 . S
H394 C368 0.931 . S
H395 C369 0.931 . S
H396 C374 0.930 . S
H397 C375 0.931 . S
H398 C377 0.931 . S
H399 C378 0.931 . S
Gd400 C403 2.818 . S
Gd400 O420 2.377 . S
Gd400 O422 2.448 . S
Gd400 O423 2.506 . S
Gd400 O424 2.435 . S
Gd400 O425 2.717 . S
Gd400 O427 2.395 . S
Gd400 O431 2.327 . S
Gd401 C412 2.818 . S
Gd401 O421 2.395 . S
Gd401 O425 2.327 . S
Gd401 O426 2.377 . S
Gd401 O428 2.448 . S
Gd401 O429 2.506 . S
Gd401 O430 2.435 . S
Gd401 O431 2.717 . S
C402 O420 1.240 . S
C402 O421 1.240 . S
C403 Gd400 2.818 . S
C403 C404 1.510 . S
C403 O422 1.249 . S
C403 O423 1.252 . S
C404 C403 1.510 . S
C404 C405 1.404 . S
C404 C406 1.352 . S
C405 C404 1.404 . S
C405 C409 1.389 . S
C405 H432 0.930 . S
C406 C404 1.352 . S
C406 C408 1.374 . S
C406 H433 0.931 . S
C407 C408 1.359 . S
C407 C409 1.364 . S
C408 C406 1.374 . S
C408 C407 1.359 . S
C408 H434 0.931 . S
C409 C405 1.389 . S
C409 C407 1.364 . S
C409 H435 0.931 . S
C410 O424 1.256 . S
C410 O425 1.257 . S
C411 O426 1.240 . S
C411 O427 1.240 . S
C412 Gd401 2.818 . S
C412 C413 1.510 . S
C412 O428 1.249 . S
C412 O429 1.252 . S
C413 C412 1.510 . S
C413 C414 1.404 . S
C413 C415 1.352 . S
C414 C413 1.404 . S
C414 C418 1.389 . S
C414 H436 0.930 . S
C415 C413 1.352 . S
C415 C417 1.374 . S
C415 H437 0.931 . S
C416 C417 1.359 . S
C416 C418 1.364 . S
C417 C415 1.374 . S
C417 C416 1.359 . S
C417 H438 0.931 . S
C418 C414 1.389 . S
C418 C416 1.364 . S
C418 H439 0.931 . S
C419 O430 1.256 . S
C419 O431 1.257 . S
O420 Gd400 2.377 . S
O420 C402 1.240 . S
O421 Gd401 2.395 . S
O421 C402 1.240 . S
O422 Gd400 2.448 . S
O422 C403 1.249 . S
O423 Gd400 2.506 . S
O423 C403 1.252 . S
O424 Gd400 2.435 . S
O424 C410 1.256 . S
O425 Gd400 2.717 . S
O425 Gd401 2.327 . S
O425 C410 1.257 . S
O426 Gd401 2.377 . S
O426 C411 1.240 . S
O427 Gd400 2.395 . S
O427 C411 1.240 . S
O428 Gd401 2.448 . S
O428 C412 1.249 . S
O429 Gd401 2.506 . S
O429 C412 1.252 . S
O430 Gd401 2.435 . S
O430 C419 1.256 . S
O431 Gd400 2.327 . S
O431 Gd401 2.717 . S
O431 C419 1.257 . S
H432 C405 0.930 . S
H433 C406 0.931 . S
H434 C408 0.931 . S
H435 C409 0.931 . S
H436 C414 0.930 . S
H437 C415 0.931 . S
H438 C417 0.931 . S
H439 C418 0.931 . S
Gd440 C443 2.818 . S
Gd440 O460 2.377 . S
Gd440 O462 2.448 . S
Gd440 O463 2.506 . S
Gd440 O464 2.435 . S
Gd440 O465 2.717 . S
Gd440 O467 2.395 . S
Gd440 O471 2.327 . S
Gd441 C452 2.818 . S
Gd441 O461 2.395 . S
Gd441 O465 2.327 . S
Gd441 O466 2.377 . S
Gd441 O468 2.448 . S
Gd441 O469 2.506 . S
Gd441 O470 2.435 . S
Gd441 O471 2.717 . S
C442 O460 1.240 . S
C442 O461 1.240 . S
C443 Gd440 2.818 . S
C443 C444 1.510 . S
C443 O462 1.249 . S
C443 O463 1.252 . S
C444 C443 1.510 . S
C444 C445 1.404 . S
C444 C446 1.352 . S
C445 C444 1.404 . S
C445 C449 1.389 . S
C445 H472 0.930 . S
C446 C444 1.352 . S
C446 C448 1.374 . S
C446 H473 0.931 . S
C447 C448 1.359 . S
C447 C449 1.364 . S
C448 C446 1.374 . S
C448 C447 1.359 . S
C448 H474 0.931 . S
C449 C445 1.389 . S
C449 C447 1.364 . S
C449 H475 0.931 . S
C450 O464 1.256 . S
C450 O465 1.257 . S
C451 O466 1.240 . S
C451 O467 1.240 . S
C452 Gd441 2.818 . S
C452 C453 1.510 . S
C452 O468 1.249 . S
C452 O469 1.252 . S
C453 C452 1.510 . S
C453 C454 1.404 . S
C453 C455 1.352 . S
C454 C453 1.404 . S
C454 C458 1.389 . S
C454 H476 0.930 . S
C455 C453 1.352 . S
C455 C457 1.374 . S
C455 H477 0.931 . S
C456 C457 1.359 . S
C456 C458 1.364 . S
C457 C455 1.374 . S
C457 C456 1.359 . S
C457 H478 0.931 . S
C458 C454 1.389 . S
C458 C456 1.364 . S
C458 H479 0.931 . S
C459 O470 1.256 . S
C459 O471 1.257 . S
O460 Gd440 2.377 . S
O460 C442 1.240 . S
O461 Gd441 2.395 . S
O461 C442 1.240 . S
O462 Gd440 2.448 . S
O462 C443 1.249 . S
O463 Gd440 2.506 . S
O463 C443 1.252 . S
O464 Gd440 2.435 . S
O464 C450 1.256 . S
O465 Gd440 2.717 . S
O465 Gd441 2.327 . S
O465 C450 1.257 . S
O466 Gd441 2.377 . S
O466 C451 1.240 . S
O467 Gd440 2.395 . S
O467 C451 1.240 . S
O468 Gd441 2.448 . S
O468 C452 1.249 . S
O469 Gd441 2.506 . S
O469 C452 1.252 . S
O470 Gd441 2.435 . S
O470 C459 1.256 . S
O471 Gd440 2.327 . S
O471 Gd441 2.717 . S
O471 C459 1.257 . S
H472 C445 0.930 . S
H473 C446 0.931 . S
H474 C448 0.931 . S
H475 C449 0.931 . S
H476 C454 0.930 . S
H477 C455 0.931 . S
H478 C457 0.931 . S
H479 C458 0.931 . S
Gd480 C483 2.818 . S
Gd480 O500 2.377 . S
Gd480 O502 2.448 . S
Gd480 O503 2.506 . S
Gd480 O504 2.435 . S
Gd480 O505 2.717 . S
Gd480 O507 2.395 . S
Gd480 O511 2.327 . S
Gd481 C492 2.818 . S
Gd481 O501 2.395 . S
Gd481 O505 2.327 . S
Gd481 O506 2.377 . S
Gd481 O508 2.448 . S
Gd481 O509 2.506 . S
Gd481 O510 2.435 . S
Gd481 O511 2.717 . S
C482 O500 1.240 . S
C482 O501 1.240 . S
C483 Gd480 2.818 . S
C483 C484 1.510 . S
C483 O502 1.249 . S
C483 O503 1.252 . S
C484 C483 1.510 . S
C484 C485 1.404 . S
C484 C486 1.352 . S
C485 C484 1.404 . S
C485 C489 1.389 . S
C485 H512 0.930 . S
C486 C484 1.352 . S
C486 C488 1.374 . S
C486 H513 0.931 . S
C487 C488 1.359 . S
C487 C489 1.364 . S
C488 C486 1.374 . S
C488 C487 1.359 . S
C488 H514 0.931 . S
C489 C485 1.389 . S
C489 C487 1.364 . S
C489 H515 0.931 . S
C490 O504 1.256 . S
C490 O505 1.257 . S
C491 O506 1.240 . S
C491 O507 1.240 . S
C492 Gd481 2.818 . S
C492 C493 1.510 . S
C492 O508 1.249 . S
C492 O509 1.252 . S
C493 C492 1.510 . S
C493 C494 1.404 . S
C493 C495 1.352 . S
C494 C493 1.404 . S
C494 C498 1.389 . S
C494 H516 0.930 . S
C495 C493 1.352 . S
C495 C497 1.374 . S
C495 H517 0.931 . S
C496 C497 1.359 . S
C496 C498 1.364 . S
C497 C495 1.374 . S
C497 C496 1.359 . S
C497 H518 0.931 . S
C498 C494 1.389 . S
C498 C496 1.364 . S
C498 H519 0.931 . S
C499 O510 1.256 . S
C499 O511 1.257 . S
O500 Gd480 2.377 . S
O500 C482 1.240 . S
O501 Gd481 2.395 . S
O501 C482 1.240 . S
O502 Gd480 2.448 . S
O502 C483 1.249 . S
O503 Gd480 2.506 . S
O503 C483 1.252 . S
O504 Gd480 2.435 . S
O504 C490 1.256 . S
O505 Gd480 2.717 . S
O505 Gd481 2.327 . S
O505 C490 1.257 . S
O506 Gd481 2.377 . S
O506 C491 1.240 . S
O507 Gd480 2.395 . S
O507 C491 1.240 . S
O508 Gd481 2.448 . S
O508 C492 1.249 . S
O509 Gd481 2.506 . S
O509 C492 1.252 . S
O510 Gd481 2.435 . S
O510 C499 1.256 . S
O511 Gd480 2.327 . S
O511 Gd481 2.717 . S
O511 C499 1.257 . S
H512 C485 0.930 . S
H513 C486 0.931 . S
H514 C488 0.931 . S
H515 C489 0.931 . S
H516 C494 0.930 . S
H517 C495 0.931 . S
H518 C497 0.931 . S
H519 C498 0.931 . S
Gd520 C523 2.818 . S
Gd520 O540 2.377 . S
Gd520 O542 2.448 . S
Gd520 O543 2.506 . S
Gd520 O544 2.435 . S
Gd520 O545 2.717 . S
Gd520 O547 2.395 . S
Gd520 O551 2.327 . S
Gd521 C532 2.818 . S
Gd521 O541 2.395 . S
Gd521 O545 2.327 . S
Gd521 O546 2.377 . S
Gd521 O548 2.448 . S
Gd521 O549 2.506 . S
Gd521 O550 2.435 . S
Gd521 O551 2.717 . S
C522 O540 1.240 . S
C522 O541 1.240 . S
C523 Gd520 2.818 . S
C523 C524 1.510 . S
C523 O542 1.249 . S
C523 O543 1.252 . S
C524 C523 1.510 . S
C524 C525 1.404 . S
C524 C526 1.352 . S
C525 C524 1.404 . S
C525 C529 1.389 . S
C525 H552 0.930 . S
C526 C524 1.352 . S
C526 C528 1.374 . S
C526 H553 0.931 . S
C527 C528 1.359 . S
C527 C529 1.364 . S
C528 C526 1.374 . S
C528 C527 1.359 . S
C528 H554 0.931 . S
C529 C525 1.389 . S
C529 C527 1.364 . S
C529 H555 0.931 . S
C530 O544 1.256 . S
C530 O545 1.257 . S
C531 O546 1.240 . S
C531 O547 1.240 . S
C532 Gd521 2.818 . S
C532 C533 1.510 . S
C532 O548 1.249 . S
C532 O549 1.252 . S
C533 C532 1.510 . S
C533 C534 1.404 . S
C533 C535 1.352 . S
C534 C533 1.404 . S
C534 C538 1.389 . S
C534 H556 0.930 . S
C535 C533 1.352 . S
C535 C537 1.374 . S
C535 H557 0.931 . S
C536 C537 1.359 . S
C536 C538 1.364 . S
C537 C535 1.374 . S
C537 C536 1.359 . S
C537 H558 0.931 . S
C538 C534 1.389 . S
C538 C536 1.364 . S
C538 H559 0.931 . S
C539 O550 1.256 . S
C539 O551 1.257 . S
O540 Gd520 2.377 . S
O540 C522 1.240 . S
O541 Gd521 2.395 . S
O541 C522 1.240 . S
O542 Gd520 2.448 . S
O542 C523 1.249 . S
O543 Gd520 2.506 . S
O543 C523 1.252 . S
O544 Gd520 2.435 . S
O544 C530 1.256 . S
O545 Gd520 2.717 . S
O545 Gd521 2.327 . S
O545 C530 1.257 . S
O546 Gd521 2.377 . S
O546 C531 1.240 . S
O547 Gd520 2.395 . S
O547 C531 1.240 . S
O548 Gd521 2.448 . S
O548 C532 1.249 . S
O549 Gd521 2.506 . S
O549 C532 1.252 . S
O550 Gd521 2.435 . S
O550 C539 1.256 . S
O551 Gd520 2.327 . S
O551 Gd521 2.717 . S
O551 C539 1.257 . S
H552 C525 0.930 . S
H553 C526 0.931 . S
H554 C528 0.931 . S
H555 C529 0.931 . S
H556 C534 0.930 . S
H557 C535 0.931 . S
H558 C537 0.931 . S
H559 C538 0.931 . S
Gd560 C563 2.818 . S
Gd560 O580 2.377 . S
Gd560 O582 2.448 . S
Gd560 O583 2.506 . S
Gd560 O584 2.435 . S
Gd560 O585 2.717 . S
Gd560 O587 2.395 . S
Gd560 O591 2.327 . S
Gd561 C572 2.818 . S
Gd561 O581 2.395 . S
Gd561 O585 2.327 . S
Gd561 O586 2.377 . S
Gd561 O588 2.448 . S
Gd561 O589 2.506 . S
Gd561 O590 2.435 . S
Gd561 O591 2.717 . S
C562 O580 1.240 . S
C562 O581 1.240 . S
C563 Gd560 2.818 . S
C563 C564 1.510 . S
C563 O582 1.249 . S
C563 O583 1.252 . S
C564 C563 1.510 . S
C564 C565 1.404 . S
C564 C566 1.352 . S
C565 C564 1.404 . S
C565 C569 1.389 . S
C565 H592 0.930 . S
C566 C564 1.352 . S
C566 C568 1.374 . S
C566 H593 0.931 . S
C567 C568 1.359 . S
C567 C569 1.364 . S
C568 C566 1.374 . S
C568 C567 1.359 . S
C568 H594 0.931 . S
C569 C565 1.389 . S
C569 C567 1.364 . S
C569 H595 0.931 . S
C570 O584 1.256 . S
C570 O585 1.257 . S
C571 O586 1.240 . S
C571 O587 1.240 . S
C572 Gd561 2.818 . S
C572 C573 1.510 . S
C572 O588 1.249 . S
C572 O589 1.252 . S
C573 C572 1.510 . S
C573 C574 1.404 . S
C573 C575 1.352 . S
C574 C573 1.404 . S
C574 C578 1.389 . S
C574 H596 0.930 . S
C575 C573 1.352 . S
C575 C577 1.374 . S
C575 H597 0.931 . S
C576 C577 1.359 . S
C576 C578 1.364 . S
C577 C575 1.374 . S
C577 C576 1.359 . S
C577 H598 0.931 . S
C578 C574 1.389 . S
C578 C576 1.364 . S
C578 H599 0.931 . S
C579 O590 1.256 . S
C579 O591 1.257 . S
O580 Gd560 2.377 . S
O580 C562 1.240 . S
O581 Gd561 2.395 . S
O581 C562 1.240 . S
O582 Gd560 2.448 . S
O582 C563 1.249 . S
O583 Gd560 2.506 . S
O583 C563 1.252 . S
O584 Gd560 2.435 . S
O584 C570 1.256 . S
O585 Gd560 2.717 . S
O585 Gd561 2.327 . S
O585 C570 1.257 . S
O586 Gd561 2.377 . S
O586 C571 1.240 . S
O587 Gd560 2.395 . S
O587 C571 1.240 . S
O588 Gd561 2.448 . S
O588 C572 1.249 . S
O589 Gd561 2.506 . S
O589 C572 1.252 . S
O590 Gd561 2.435 . S
O590 C579 1.256 . S
O591 Gd560 2.327 . S
O591 Gd561 2.717 . S
O591 C579 1.257 . S
H592 C565 0.930 . S
H593 C566 0.931 . S
H594 C568 0.931 . S
H595 C569 0.931 . S
H596 C574 0.930 . S
H597 C575 0.931 . S
H598 C577 0.931 . S
H599 C578 0.931 . S
Gd600 C603 2.818 . S
Gd600 O620 2.377 . S
Gd600 O622 2.448 . S
Gd600 O623 2.506 . S
Gd600 O624 2.435 . S
Gd600 O625 2.717 . S
Gd600 O627 2.395 . S
Gd600 O631 2.327 . S
Gd601 C612 2.818 . S
Gd601 O621 2.395 . S
Gd601 O625 2.327 . S
Gd601 O626 2.377 . S
Gd601 O628 2.448 . S
Gd601 O629 2.506 . S
Gd601 O630 2.435 . S
Gd601 O631 2.717 . S
C602 O620 1.240 . S
C602 O621 1.240 . S
C603 Gd600 2.818 . S
C603 C604 1.510 . S
C603 O622 1.249 . S
C603 O623 1.252 . S
C604 C603 1.510 . S
C604 C605 1.404 . S
C604 C606 1.352 . S
C605 C604 1.404 . S
C605 C609 1.389 . S
C605 H632 0.930 . S
C606 C604 1.352 . S
C606 C608 1.374 1_655 S
C606 H633 0.931 1_655 S
C607 C608 1.359 1_655 S
C607 C609 1.364 . S
C608 C606 1.374 1_455 S
C608 C607 1.359 1_455 S
C608 H634 0.931 . S
C609 C605 1.389 . S
C609 C607 1.364 . S
C609 H635 0.931 . S
C610 O624 1.256 . S
C610 O625 1.257 . S
C611 O626 1.240 . S
C611 O627 1.240 . S
C612 Gd601 2.818 . S
C612 C613 1.510 . S
C612 O628 1.249 . S
C612 O629 1.252 . S
C613 C612 1.510 . S
C613 C614 1.404 . S
C613 C615 1.352 . S
C614 C613 1.404 . S
C614 C618 1.389 . S
C614 H636 0.930 . S
C615 C613 1.352 . S
C615 C617 1.374 . S
C615 H637 0.931 . S
C616 C617 1.359 . S
C616 C618 1.364 . S
C617 C615 1.374 . S
C617 C616 1.359 . S
C617 H638 0.931 . S
C618 C614 1.389 . S
C618 C616 1.364 . S
C618 H639 0.931 . S
C619 O630 1.256 . S
C619 O631 1.257 . S
O620 Gd600 2.377 . S
O620 C602 1.240 . S
O621 Gd601 2.395 . S
O621 C602 1.240 . S
O622 Gd600 2.448 . S
O622 C603 1.249 . S
O623 Gd600 2.506 . S
O623 C603 1.252 . S
O624 Gd600 2.435 . S
O624 C610 1.256 . S
O625 Gd600 2.717 . S
O625 Gd601 2.327 . S
O625 C610 1.257 . S
O626 Gd601 2.377 . S
O626 C611 1.240 . S
O627 Gd600 2.395 . S
O627 C611 1.240 . S
O628 Gd601 2.448 . S
O628 C612 1.249 . S
O629 Gd601 2.506 . S
O629 C612 1.252 . S
O630 Gd601 2.435 . S
O630 C619 1.256 . S
O631 Gd600 2.327 . S
O631 Gd601 2.717 . S
O631 C619 1.257 . S
H632 C605 0.930 . S
H633 C606 0.931 1_455 S
H634 C608 0.931 . S
H635 C609 0.931 . S
H636 C614 0.930 . S
H637 C615 0.931 . S
H638 C617 0.931 . S
H639 C618 0.931 . S
Gd640 C643 2.818 . S
Gd640 O660 2.377 . S
Gd640 O662 2.448 . S
Gd640 O663 2.506 . S
Gd640 O664 2.435 . S
Gd640 O665 2.717 . S
Gd640 O667 2.395 . S
Gd640 O671 2.327 . S
Gd641 C652 2.818 . S
Gd641 O661 2.395 . S
Gd641 O665 2.327 . S
Gd641 O666 2.377 . S
Gd641 O668 2.448 . S
Gd641 O669 2.506 . S
Gd641 O670 2.435 . S
Gd641 O671 2.717 . S
C642 O660 1.240 . S
C642 O661 1.240 . S
C643 Gd640 2.818 . S
C643 C644 1.510 . S
C643 O662 1.249 . S
C643 O663 1.252 . S
C644 C643 1.510 . S
C644 C645 1.404 . S
C644 C646 1.352 . S
C645 C644 1.404 . S
C645 C649 1.389 . S
C645 H672 0.930 . S
C646 C644 1.352 . S
C646 C648 1.374 . S
C646 H673 0.931 . S
C647 C648 1.359 . S
C647 C649 1.364 . S
C648 C646 1.374 . S
C648 C647 1.359 . S
C648 H674 0.931 . S
C649 C645 1.389 . S
C649 C647 1.364 . S
C649 H675 0.931 . S
C650 O664 1.256 . S
C650 O665 1.257 . S
C651 O666 1.240 . S
C651 O667 1.240 . S
C652 Gd641 2.818 . S
C652 C653 1.510 . S
C652 O668 1.249 . S
C652 O669 1.252 . S
C653 C652 1.510 . S
C653 C654 1.404 . S
C653 C655 1.352 . S
C654 C653 1.404 . S
C654 C658 1.389 . S
C654 H676 0.930 . S
C655 C653 1.352 . S
C655 C657 1.374 . S
C655 H677 0.931 . S
C656 C657 1.359 . S
C656 C658 1.364 . S
C657 C655 1.374 . S
C657 C656 1.359 . S
C657 H678 0.931 . S
C658 C654 1.389 . S
C658 C656 1.364 . S
C658 H679 0.931 . S
C659 O670 1.256 . S
C659 O671 1.257 . S
O660 Gd640 2.377 . S
O660 C642 1.240 . S
O661 Gd641 2.395 . S
O661 C642 1.240 . S
O662 Gd640 2.448 . S
O662 C643 1.249 . S
O663 Gd640 2.506 . S
O663 C643 1.252 . S
O664 Gd640 2.435 . S
O664 C650 1.256 . S
O665 Gd640 2.717 . S
O665 Gd641 2.327 . S
O665 C650 1.257 . S
O666 Gd641 2.377 . S
O666 C651 1.240 . S
O667 Gd640 2.395 . S
O667 C651 1.240 . S
O668 Gd641 2.448 . S
O668 C652 1.249 . S
O669 Gd641 2.506 . S
O669 C652 1.252 . S
O670 Gd641 2.435 . S
O670 C659 1.256 . S
O671 Gd640 2.327 . S
O671 Gd641 2.717 . S
O671 C659 1.257 . S
H672 C645 0.930 . S
H673 C646 0.931 . S
H674 C648 0.931 . S
H675 C649 0.931 . S
H676 C654 0.930 . S
H677 C655 0.931 . S
H678 C657 0.931 . S
H679 C658 0.931 . S
Gd680 C683 2.818 . S
Gd680 O700 2.377 . S
Gd680 O702 2.448 . S
Gd680 O703 2.506 . S
Gd680 O704 2.435 . S
Gd680 O705 2.717 . S
Gd680 O707 2.395 . S
Gd680 O711 2.327 . S
Gd681 C692 2.818 . S
Gd681 O701 2.395 . S
Gd681 O705 2.327 . S
Gd681 O706 2.377 . S
Gd681 O708 2.448 . S
Gd681 O709 2.506 . S
Gd681 O710 2.435 . S
Gd681 O711 2.717 . S
C682 O700 1.240 . S
C682 O701 1.240 . S
C683 Gd680 2.818 . S
C683 C684 1.510 . S
C683 O702 1.249 . S
C683 O703 1.252 . S
C684 C683 1.510 . S
C684 C685 1.404 . S
C684 C686 1.352 . S
C685 C684 1.404 . S
C685 C689 1.389 . S
C685 H712 0.930 . S
C686 C684 1.352 . S
C686 C688 1.374 1_545 S
C686 H713 0.931 1_545 S
C687 C688 1.359 1_545 S
C687 C689 1.364 . S
C688 C686 1.374 1_565 S
C688 C687 1.359 1_565 S
C688 H714 0.931 . S
C689 C685 1.389 . S
C689 C687 1.364 . S
C689 H715 0.931 . S
C690 O704 1.256 . S
C690 O705 1.257 . S
C691 O706 1.240 . S
C691 O707 1.240 . S
C692 Gd681 2.818 . S
C692 C693 1.510 . S
C692 O708 1.249 . S
C692 O709 1.252 . S
C693 C692 1.510 . S
C693 C694 1.404 . S
C693 C695 1.352 . S
C694 C693 1.404 . S
C694 C698 1.389 . S
C694 H716 0.930 . S
C695 C693 1.352 . S
C695 C697 1.374 . S
C695 H717 0.931 . S
C696 C697 1.359 . S
C696 C698 1.364 . S
C697 C695 1.374 . S
C697 C696 1.359 . S
C697 H718 0.931 . S
C698 C694 1.389 . S
C698 C696 1.364 . S
C698 H719 0.931 . S
C699 O710 1.256 . S
C699 O711 1.257 . S
O700 Gd680 2.377 . S
O700 C682 1.240 . S
O701 Gd681 2.395 . S
O701 C682 1.240 . S
O702 Gd680 2.448 . S
O702 C683 1.249 . S
O703 Gd680 2.506 . S
O703 C683 1.252 . S
O704 Gd680 2.435 . S
O704 C690 1.256 . S
O705 Gd680 2.717 . S
O705 Gd681 2.327 . S
O705 C690 1.257 . S
O706 Gd681 2.377 . S
O706 C691 1.240 . S
O707 Gd680 2.395 . S
O707 C691 1.240 . S
O708 Gd681 2.448 . S
O708 C692 1.249 . S
O709 Gd681 2.506 . S
O709 C692 1.252 . S
O710 Gd681 2.435 . S
O710 C699 1.256 . S
O711 Gd680 2.327 . S
O711 Gd681 2.717 . S
O711 C699 1.257 . S
H712 C685 0.930 . S
H713 C686 0.931 1_565 S
H714 C688 0.931 . S
H715 C689 0.931 . S
H716 C694 0.930 . S
H717 C695 0.931 . S
H718 C697 0.931 . S
H719 C698 0.931 . S
Gd720 C723 2.818 . S
Gd720 O740 2.377 . S
Gd720 O742 2.448 . S
Gd720 O743 2.506 . S
Gd720 O744 2.435 . S
Gd720 O745 2.717 . S
Gd720 O747 2.395 . S
Gd720 O751 2.327 . S
Gd721 C732 2.818 . S
Gd721 O741 2.395 . S
Gd721 O745 2.327 . S
Gd721 O746 2.377 . S
Gd721 O748 2.448 . S
Gd721 O749 2.506 . S
Gd721 O750 2.435 . S
Gd721 O751 2.717 . S
C722 O740 1.240 . S
C722 O741 1.240 . S
C723 Gd720 2.818 . S
C723 C724 1.510 . S
C723 O742 1.249 . S
C723 O743 1.252 . S
C724 C723 1.510 . S
C724 C725 1.404 . S
C724 C726 1.352 . S
C725 C724 1.404 . S
C725 C729 1.389 . S
C725 H752 0.930 . S
C726 C724 1.352 . S
C726 C728 1.374 . S
C726 H753 0.931 . S
C727 C728 1.359 . S
C727 C729 1.364 . S
C728 C726 1.374 . S
C728 C727 1.359 . S
C728 H754 0.931 . S
C729 C725 1.389 . S
C729 C727 1.364 . S
C729 H755 0.931 . S
C730 O744 1.256 . S
C730 O745 1.257 . S
C731 O746 1.240 . S
C731 O747 1.240 . S
C732 Gd721 2.818 . S
C732 C733 1.510 . S
C732 O748 1.249 . S
C732 O749 1.252 . S
C733 C732 1.510 . S
C733 C734 1.404 . S
C733 C735 1.352 . S
C734 C733 1.404 . S
C734 C738 1.389 . S
C734 H756 0.930 . S
C735 C733 1.352 . S
C735 C737 1.374 1_545 S
C735 H757 0.933 1_545 S
C736 C737 1.359 1_545 S
C736 C738 1.364 . S
C737 C735 1.374 1_565 S
C737 C736 1.359 1_565 S
C737 H758 0.931 . S
C738 C734 1.389 . S
C738 C736 1.364 . S
C738 H759 0.931 . S
C739 O750 1.256 . S
C739 O751 1.257 . S
O740 Gd720 2.377 . S
O740 C722 1.240 . S
O741 Gd721 2.395 . S
O741 C722 1.240 . S
O742 Gd720 2.448 . S
O742 C723 1.249 . S
O743 Gd720 2.506 . S
O743 C723 1.252 . S
O744 Gd720 2.435 . S
O744 C730 1.256 . S
O745 Gd720 2.717 . S
O745 Gd721 2.327 . S
O745 C730 1.257 . S
O746 Gd721 2.377 . S
O746 C731 1.240 . S
O747 Gd720 2.395 . S
O747 C731 1.240 . S
O748 Gd721 2.448 . S
O748 C732 1.249 . S
O749 Gd721 2.506 . S
O749 C732 1.252 . S
O750 Gd721 2.435 . S
O750 C739 1.256 . S
O751 Gd720 2.327 . S
O751 Gd721 2.717 . S
O751 C739 1.257 . S
H752 C725 0.930 . S
H753 C726 0.931 . S
H754 C728 0.931 . S
H755 C729 0.931 . S
H756 C734 0.930 . S
H757 C735 0.933 1_565 S
H758 C737 0.931 . S
H759 C738 0.931 . S
Gd760 C763 2.818 . S
Gd760 O780 2.377 . S
Gd760 O782 2.448 . S
Gd760 O783 2.506 . S
Gd760 O784 2.435 . S
Gd760 O785 2.717 . S
Gd760 O787 2.395 . S
Gd760 O791 2.327 . S
Gd761 C772 2.818 . S
Gd761 O781 2.395 . S
Gd761 O785 2.327 . S
Gd761 O786 2.377 . S
Gd761 O788 2.448 . S
Gd761 O789 2.506 . S
Gd761 O790 2.435 . S
Gd761 O791 2.717 . S
C762 O780 1.240 . S
C762 O781 1.240 . S
C763 Gd760 2.818 . S
C763 C764 1.510 . S
C763 O782 1.249 . S
C763 O783 1.252 . S
C764 C763 1.510 . S
C764 C765 1.404 . S
C764 C766 1.352 . S
C765 C764 1.404 . S
C765 C769 1.389 . S
C765 H792 0.930 . S
C766 C764 1.352 . S
C766 C768 1.374 . S
C766 H793 0.931 . S
C767 C768 1.359 . S
C767 C769 1.364 . S
C768 C766 1.374 . S
C768 C767 1.359 . S
C768 H794 0.931 . S
C769 C765 1.389 . S
C769 C767 1.364 . S
C769 H795 0.931 . S
C770 O784 1.256 . S
C770 O785 1.257 . S
C771 O786 1.240 . S
C771 O787 1.240 . S
C772 Gd761 2.818 . S
C772 C773 1.510 . S
C772 O788 1.249 . S
C772 O789 1.252 . S
C773 C772 1.510 . S
C773 C774 1.404 . S
C773 C775 1.352 . S
C774 C773 1.404 . S
C774 C778 1.389 . S
C774 H796 0.930 . S
C775 C773 1.352 . S
C775 C777 1.374 1_655 S
C775 H797 0.931 . S
C776 C777 1.359 1_655 S
C776 C778 1.364 . S
C777 C775 1.374 1_455 S
C777 C776 1.359 1_455 S
C777 H798 0.931 . S
C778 C774 1.389 . S
C778 C776 1.364 . S
C778 H799 0.931 . S
C779 O790 1.256 . S
C779 O791 1.257 . S
O780 Gd760 2.377 . S
O780 C762 1.240 . S
O781 Gd761 2.395 . S
O781 C762 1.240 . S
O782 Gd760 2.448 . S
O782 C763 1.249 . S
O783 Gd760 2.506 . S
O783 C763 1.252 . S
O784 Gd760 2.435 . S
O784 C770 1.256 . S
O785 Gd760 2.717 . S
O785 Gd761 2.327 . S
O785 C770 1.257 . S
O786 Gd761 2.377 . S
O786 C771 1.240 . S
O787 Gd760 2.395 . S
O787 C771 1.240 . S
O788 Gd761 2.448 . S
O788 C772 1.249 . S
O789 Gd761 2.506 . S
O789 C772 1.252 . S
O790 Gd761 2.435 . S
O790 C779 1.256 . S
O791 Gd760 2.327 . S
O791 Gd761 2.717 . S
O791 C779 1.257 . S
H792 C765 0.930 . S
H793 C766 0.931 . S
H794 C768 0.931 . S
H795 C769 0.931 . S
H796 C774 0.930 . S
H797 C775 0.931 . S
H798 C777 0.931 . S
H799 C778 0.931 . S
Gd800 C803 2.818 . S
Gd800 O820 2.377 . S
Gd800 O822 2.448 . S
Gd800 O823 2.506 . S
Gd800 O824 2.435 . S
Gd800 O825 2.717 . S
Gd800 O827 2.395 . S
Gd800 O831 2.327 . S
Gd801 C812 2.818 . S
Gd801 O821 2.395 . S
Gd801 O825 2.327 . S
Gd801 O826 2.377 . S
Gd801 O828 2.448 . S
Gd801 O829 2.506 . S
Gd801 O830 2.435 . S
Gd801 O831 2.717 . S
C802 O820 1.240 . S
C802 O821 1.240 . S
C803 Gd800 2.818 . S
C803 C804 1.510 . S
C803 O822 1.249 . S
C803 O823 1.252 . S
C804 C803 1.510 . S
C804 C805 1.404 . S
C804 C806 1.352 . S
C805 C804 1.404 . S
C805 C809 1.389 . S
C805 H832 0.930 . S
C806 C804 1.352 . S
C806 C808 1.374 . S
C806 H833 0.931 . S
C807 C808 1.359 . S
C807 C809 1.364 . S
C808 C806 1.374 . S
C808 C807 1.359 . S
C808 H834 0.931 . S
C809 C805 1.389 . S
C809 C807 1.364 . S
C809 H835 0.931 . S
C810 O824 1.256 . S
C810 O825 1.257 . S
C811 O826 1.240 . S
C811 O827 1.240 . S
C812 Gd801 2.818 . S
C812 C813 1.510 . S
C812 O828 1.249 . S
C812 O829 1.252 . S
C813 C812 1.510 . S
C813 C814 1.404 . S
C813 C815 1.352 . S
C814 C813 1.404 . S
C814 C818 1.389 . S
C814 H836 0.930 . S
C815 C813 1.352 . S
C815 C817 1.374 . S
C815 H837 0.931 . S
C816 C817 1.359 . S
C816 C818 1.364 . S
C817 C815 1.374 . S
C817 C816 1.359 . S
C817 H838 0.931 . S
C818 C814 1.389 . S
C818 C816 1.364 . S
C818 H839 0.931 . S
C819 O830 1.256 . S
C819 O831 1.257 . S
O820 Gd800 2.377 . S
O820 C802 1.240 . S
O821 Gd801 2.395 . S
O821 C802 1.240 . S
O822 Gd800 2.448 . S
O822 C803 1.249 . S
O823 Gd800 2.506 . S
O823 C803 1.252 . S
O824 Gd800 2.435 . S
O824 C810 1.256 . S
O825 Gd800 2.717 . S
O825 Gd801 2.327 . S
O825 C810 1.257 . S
O826 Gd801 2.377 . S
O826 C811 1.240 . S
O827 Gd800 2.395 . S
O827 C811 1.240 . S
O828 Gd801 2.448 . S
O828 C812 1.249 . S
O829 Gd801 2.506 . S
O829 C812 1.252 . S
O830 Gd801 2.435 . S
O830 C819 1.256 . S
O831 Gd800 2.327 . S
O831 Gd801 2.717 . S
O831 C819 1.257 . S
H832 C805 0.930 . S
H833 C806 0.931 . S
H834 C808 0.931 . S
H835 C809 0.931 . S
H836 C814 0.930 . S
H837 C815 0.931 . S
H838 C817 0.931 . S
H839 C818 0.931 . S
Gd840 C843 2.818 . S
Gd840 O860 2.377 . S
Gd840 O862 2.448 . S
Gd840 O863 2.506 . S
Gd840 O864 2.435 . S
Gd840 O865 2.717 1_554 S
Gd840 O867 2.395 . S
Gd840 O871 2.327 . S
Gd841 C852 2.818 . S
Gd841 O861 2.395 . S
Gd841 O865 2.327 . S
Gd841 O866 2.377 . S
Gd841 O868 2.448 . S
Gd841 O869 2.506 . S
Gd841 O870 2.435 . S
Gd841 O871 2.717 1_556 S
C842 O860 1.240 . S
C842 O861 1.240 1_554 S
C843 Gd840 2.818 . S
C843 C844 1.510 . S
C843 O862 1.249 . S
C843 O863 1.252 . S
C844 C843 1.510 . S
C844 C845 1.404 . S
C844 C846 1.352 . S
C845 C844 1.404 . S
C845 C849 1.389 . S
C845 H872 0.930 . S
C846 C844 1.352 . S
C846 C848 1.374 . S
C846 H873 0.931 . S
C847 C848 1.359 . S
C847 C849 1.364 . S
C848 C846 1.374 . S
C848 C847 1.359 . S
C848 H874 0.931 . S
C849 C845 1.389 . S
C849 C847 1.364 . S
C849 H875 0.931 . S
C850 O864 1.256 . S
C850 O865 1.257 1_554 S
C851 O866 1.240 . S
C851 O867 1.240 1_556 S
C852 Gd841 2.818 . S
C852 C853 1.510 . S
C852 O868 1.249 . S
C852 O869 1.252 . S
C853 C852 1.510 . S
C853 C854 1.404 . S
C853 C855 1.352 . S
C854 C853 1.404 . S
C854 C858 1.389 . S
C854 H876 0.930 . S
C855 C853 1.352 . S
C855 C857 1.374 . S
C855 H877 0.931 . S
C856 C857 1.359 . S
C856 C858 1.364 . S
C857 C855 1.374 . S
C857 C856 1.359 . S
C857 H878 0.931 . S
C858 C854 1.389 . S
C858 C856 1.364 . S
C858 H879 0.931 . S
C859 O870 1.256 . S
C859 O871 1.257 1_556 S
O860 Gd840 2.377 . S
O860 C842 1.240 . S
O861 Gd841 2.395 . S
O861 C842 1.240 1_556 S
O862 Gd840 2.448 . S
O862 C843 1.249 . S
O863 Gd840 2.506 . S
O863 C843 1.252 . S
O864 Gd840 2.435 . S
O864 C850 1.256 . S
O865 Gd840 2.717 1_556 S
O865 Gd841 2.327 . S
O865 C850 1.257 1_556 S
O866 Gd841 2.377 . S
O866 C851 1.240 . S
O867 Gd840 2.395 . S
O867 C851 1.240 1_554 S
O868 Gd841 2.448 . S
O868 C852 1.249 . S
O869 Gd841 2.506 . S
O869 C852 1.252 . S
O870 Gd841 2.435 . S
O870 C859 1.256 . S
O871 Gd840 2.327 . S
O871 Gd841 2.717 1_554 S
O871 C859 1.257 1_554 S
H872 C845 0.930 . S
H873 C846 0.931 . S
H874 C848 0.931 . S
H875 C849 0.931 . S
H876 C854 0.930 . S
H877 C855 0.931 . S
H878 C857 0.931 . S
H879 C858 0.931 . S
Gd880 C883 2.818 . S
Gd880 O900 2.377 . S
Gd880 O902 2.448 . S
Gd880 O903 2.506 . S
Gd880 O904 2.435 . S
Gd880 O905 2.717 1_554 S
Gd880 O907 2.395 . S
Gd880 O911 2.327 . S
Gd881 C892 2.818 . S
Gd881 O901 2.395 . S
Gd881 O905 2.327 . S
Gd881 O906 2.377 . S
Gd881 O908 2.448 . S
Gd881 O909 2.506 . S
Gd881 O910 2.435 . S
Gd881 O911 2.717 1_556 S
C882 O900 1.240 . S
C882 O901 1.240 1_554 S
C883 Gd880 2.818 . S
C883 C884 1.510 . S
C883 O902 1.249 . S
C883 O903 1.252 . S
C884 C883 1.510 . S
C884 C885 1.404 . S
C884 C886 1.352 . S
C885 C884 1.404 . S
C885 C889 1.389 . S
C885 H912 0.930 . S
C886 C884 1.352 . S
C886 C888 1.374 . S
C886 H913 0.931 . S
C887 C888 1.359 . S
C887 C889 1.364 . S
C888 C886 1.374 . S
C888 C887 1.359 . S
C888 H914 0.931 . S
C889 C885 1.389 . S
C889 C887 1.364 . S
C889 H915 0.931 . S
C890 O904 1.256 . S
C890 O905 1.257 1_554 S
C891 O906 1.240 . S
C891 O907 1.240 1_556 S
C892 Gd881 2.818 . S
C892 C893 1.510 . S
C892 O908 1.249 . S
C892 O909 1.252 . S
C893 C892 1.510 . S
C893 C894 1.404 . S
C893 C895 1.352 . S
C894 C893 1.404 . S
C894 C898 1.389 . S
C894 H916 0.930 . S
C895 C893 1.352 . S
C895 C897 1.374 . S
C895 H917 0.931 . S
C896 C897 1.359 . S
C896 C898 1.364 . S
C897 C895 1.374 . S
C897 C896 1.359 . S
C897 H918 0.931 . S
C898 C894 1.389 . S
C898 C896 1.364 . S
C898 H919 0.931 . S
C899 O910 1.256 . S
C899 O911 1.257 1_556 S
O900 Gd880 2.377 . S
O900 C882 1.240 . S
O901 Gd881 2.395 . S
O901 C882 1.240 1_556 S
O902 Gd880 2.448 . S
O902 C883 1.249 . S
O903 Gd880 2.506 . S
O903 C883 1.252 . S
O904 Gd880 2.435 . S
O904 C890 1.256 . S
O905 Gd880 2.717 1_556 S
O905 Gd881 2.327 . S
O905 C890 1.257 1_556 S
O906 Gd881 2.377 . S
O906 C891 1.240 . S
O907 Gd880 2.395 . S
O907 C891 1.240 1_554 S
O908 Gd881 2.448 . S
O908 C892 1.249 . S
O909 Gd881 2.506 . S
O909 C892 1.252 . S
O910 Gd881 2.435 . S
O910 C899 1.256 . S
O911 Gd880 2.327 . S
O911 Gd881 2.717 1_554 S
O911 C899 1.257 1_554 S
H912 C885 0.930 . S
H913 C886 0.931 . S
H914 C888 0.931 . S
H915 C889 0.931 . S
H916 C894 0.930 . S
H917 C895 0.931 . S
H918 C897 0.931 . S
H919 C898 0.931 . S
Gd920 C923 2.818 . S
Gd920 O940 2.377 . S
Gd920 O942 2.448 . S
Gd920 O943 2.506 . S
Gd920 O944 2.435 . S
Gd920 O945 2.717 1_554 S
Gd920 O947 2.395 . S
Gd920 O951 2.327 . S
Gd921 C932 2.818 . S
Gd921 O941 2.395 . S
Gd921 O945 2.327 . S
Gd921 O946 2.377 . S
Gd921 O948 2.448 . S
Gd921 O949 2.506 . S
Gd921 O950 2.435 . S
Gd921 O951 2.717 1_556 S
C922 O940 1.240 . S
C922 O941 1.240 1_554 S
C923 Gd920 2.818 . S
C923 C924 1.510 . S
C923 O942 1.249 . S
C923 O943 1.252 . S
C924 C923 1.510 . S
C924 C925 1.404 . S
C924 C926 1.352 . S
C925 C924 1.404 . S
C925 C929 1.389 . S
C925 H952 0.930 . S
C926 C924 1.352 . S
C926 C928 1.374 . S
C926 H953 0.931 . S
C927 C928 1.359 . S
C927 C929 1.364 . S
C928 C926 1.374 . S
C928 C927 1.359 . S
C928 H954 0.931 . S
C929 C925 1.389 . S
C929 C927 1.364 . S
C929 H955 0.931 . S
C930 O944 1.256 . S
C930 O945 1.257 1_554 S
C931 O946 1.240 . S
C931 O947 1.240 1_556 S
C932 Gd921 2.818 . S
C932 C933 1.510 . S
C932 O948 1.249 . S
C932 O949 1.252 . S
C933 C932 1.510 . S
C933 C934 1.404 . S
C933 C935 1.352 . S
C934 C933 1.404 . S
C934 C938 1.389 . S
C934 H956 0.930 . S
C935 C933 1.352 . S
C935 C937 1.374 . S
C935 H957 0.931 . S
C936 C937 1.359 . S
C936 C938 1.364 . S
C937 C935 1.374 . S
C937 C936 1.359 . S
C937 H958 0.931 . S
C938 C934 1.389 . S
C938 C936 1.364 . S
C938 H959 0.931 . S
C939 O950 1.256 . S
C939 O951 1.257 1_556 S
O940 Gd920 2.377 . S
O940 C922 1.240 . S
O941 Gd921 2.395 . S
O941 C922 1.240 1_556 S
O942 Gd920 2.448 . S
O942 C923 1.249 . S
O943 Gd920 2.506 . S
O943 C923 1.252 . S
O944 Gd920 2.435 . S
O944 C930 1.256 . S
O945 Gd920 2.717 1_556 S
O945 Gd921 2.327 . S
O945 C930 1.257 1_556 S
O946 Gd921 2.377 . S
O946 C931 1.240 . S
O947 Gd920 2.395 . S
O947 C931 1.240 1_554 S
O948 Gd921 2.448 . S
O948 C932 1.249 . S
O949 Gd921 2.506 . S
O949 C932 1.252 . S
O950 Gd921 2.435 . S
O950 C939 1.256 . S
O951 Gd920 2.327 . S
O951 Gd921 2.717 1_554 S
O951 C939 1.257 1_554 S
H952 C925 0.930 . S
H953 C926 0.931 . S
H954 C928 0.931 . S
H955 C929 0.931 . S
H956 C934 0.930 . S
H957 C935 0.931 . S
H958 C937 0.931 . S
H959 C938 0.931 . S
Gd960 C963 2.818 . S
Gd960 O980 2.377 . S
Gd960 O982 2.448 . S
Gd960 O983 2.506 . S
Gd960 O984 2.435 . S
Gd960 O985 2.717 . S
Gd960 O987 2.395 . S
Gd960 O991 2.327 . S
Gd961 C972 2.818 . S
Gd961 O981 2.395 . S
Gd961 O985 2.327 . S
Gd961 O986 2.377 . S
Gd961 O988 2.448 . S
Gd961 O989 2.506 . S
Gd961 O990 2.435 . S
Gd961 O991 2.717 . S
C962 O980 1.240 . S
C962 O981 1.240 . S
C963 Gd960 2.818 . S
C963 C964 1.510 . S
C963 O982 1.249 . S
C963 O983 1.252 . S
C964 C963 1.510 . S
C964 C965 1.404 . S
C964 C966 1.352 . S
C965 C964 1.404 . S
C965 C969 1.389 . S
C965 H992 0.930 . S
C966 C964 1.352 . S
C966 C968 1.374 1_565 S
C966 H993 0.933 1_565 S
C967 C968 1.359 1_565 S
C967 C969 1.364 . S
C968 C966 1.374 1_545 S
C968 C967 1.359 1_545 S
C968 H994 0.931 . S
C969 C965 1.389 . S
C969 C967 1.364 . S
C969 H995 0.931 . S
C970 O984 1.256 . S
C970 O985 1.257 . S
C971 O986 1.240 . S
C971 O987 1.240 . S
C972 Gd961 2.818 . S
C972 C973 1.510 . S
C972 O988 1.249 . S
C972 O989 1.252 . S
C973 C972 1.510 . S
C973 C974 1.404 . S
C973 C975 1.352 . S
C974 C973 1.404 . S
C974 C978 1.389 . S
C974 H996 0.930 . S
C975 C973 1.352 . S
C975 C977 1.374 . S
C975 H997 0.931 . S
C976 C977 1.359 . S
C976 C978 1.364 . S
C977 C975 1.374 . S
C977 C976 1.359 . S
C977 H998 0.931 . S
C978 C974 1.389 . S
C978 C976 1.364 . S
C978 H999 0.931 . S
C979 O990 1.256 . S
C979 O991 1.257 . S
O980 Gd960 2.377 . S
O980 C962 1.240 . S
O981 Gd961 2.395 . S
O981 C962 1.240 . S
O982 Gd960 2.448 . S
O982 C963 1.249 . S
O983 Gd960 2.506 . S
O983 C963 1.252 . S
O984 Gd960 2.435 . S
O984 C970 1.256 . S
O985 Gd960 2.717 . S
O985 Gd961 2.327 . S
O985 C970 1.257 . S
O986 Gd961 2.377 . S
O986 C971 1.240 . S
O987 Gd960 2.395 . S
O987 C971 1.240 . S
O988 Gd961 2.448 . S
O988 C972 1.249 . S
O989 Gd961 2.506 . S
O989 C972 1.252 . S
O990 Gd961 2.435 . S
O990 C979 1.256 . S
O991 Gd960 2.327 . S
O991 Gd961 2.717 . S
O991 C979 1.257 . S
H992 C965 0.930 . S
H993 C966 0.933 1_545 S
H994 C968 0.931 . S
H995 C969 0.931 . S
H996 C974 0.930 . S
H997 C975 0.931 . S
H998 C977 0.931 . S
H999 C978 0.931 . S
Gd1000 C1003 2.818 . S
Gd1000 O1020 2.377 . S
Gd1000 O1022 2.448 . S
Gd1000 O1023 2.506 . S
Gd1000 O1024 2.435 . S
Gd1000 O1025 2.717 . S
Gd1000 O1027 2.395 . S
Gd1000 O1031 2.327 . S
Gd1001 C1012 2.818 . S
Gd1001 O1021 2.395 . S
Gd1001 O1025 2.327 . S
Gd1001 O1026 2.377 . S
Gd1001 O1028 2.448 . S
Gd1001 O1029 2.506 . S
Gd1001 O1030 2.435 . S
Gd1001 O1031 2.717 . S
C1002 O1020 1.240 . S
C1002 O1021 1.240 . S
C1003 Gd1000 2.818 . S
C1003 C1004 1.510 . S
C1003 O1022 1.249 . S
C1003 O1023 1.252 . S
C1004 C1003 1.510 . S
C1004 C1005 1.404 . S
C1004 C1006 1.352 . S
C1005 C1004 1.404 . S
C1005 C1009 1.389 . S
C1005 H1032 0.930 . S
C1006 C1004 1.352 . S
C1006 C1008 1.374 1_455 S
C1006 H1033 0.931 . S
C1007 C1008 1.359 1_455 S
C1007 C1009 1.364 . S
C1008 C1006 1.374 1_655 S
C1008 C1007 1.359 1_655 S
C1008 H1034 0.931 . S
C1009 C1005 1.389 . S
C1009 C1007 1.364 . S
C1009 H1035 0.931 . S
C1010 O1024 1.256 . S
C1010 O1025 1.257 . S
C1011 O1026 1.240 . S
C1011 O1027 1.240 . S
C1012 Gd1001 2.818 . S
C1012 C1013 1.510 . S
C1012 O1028 1.249 . S
C1012 O1029 1.252 . S
C1013 C1012 1.510 . S
C1013 C1014 1.404 . S
C1013 C1015 1.352 . S
C1014 C1013 1.404 . S
C1014 C1018 1.389 . S
C1014 H1036 0.930 . S
C1015 C1013 1.352 . S
C1015 C1017 1.374 . S
C1015 H1037 0.931 . S
C1016 C1017 1.359 . S
C1016 C1018 1.364 . S
C1017 C1015 1.374 . S
C1017 C1016 1.359 . S
C1017 H1038 0.931 . S
C1018 C1014 1.389 . S
C1018 C1016 1.364 . S
C1018 H1039 0.931 . S
C1019 O1030 1.256 . S
C1019 O1031 1.257 . S
O1020 Gd1000 2.377 . S
O1020 C1002 1.240 . S
O1021 Gd1001 2.395 . S
O1021 C1002 1.240 . S
O1022 Gd1000 2.448 . S
O1022 C1003 1.249 . S
O1023 Gd1000 2.506 . S
O1023 C1003 1.252 . S
O1024 Gd1000 2.435 . S
O1024 C1010 1.256 . S
O1025 Gd1000 2.717 . S
O1025 Gd1001 2.327 . S
O1025 C1010 1.257 . S
O1026 Gd1001 2.377 . S
O1026 C1011 1.240 . S
O1027 Gd1000 2.395 . S
O1027 C1011 1.240 . S
O1028 Gd1001 2.448 . S
O1028 C1012 1.249 . S
O1029 Gd1001 2.506 . S
O1029 C1012 1.252 . S
O1030 Gd1001 2.435 . S
O1030 C1019 1.256 . S
O1031 Gd1000 2.327 . S
O1031 Gd1001 2.717 . S
O1031 C1019 1.257 . S
H1032 C1005 0.930 . S
H1033 C1006 0.931 . S
H1034 C1008 0.931 . S
H1035 C1009 0.931 . S
H1036 C1014 0.930 . S
H1037 C1015 0.931 . S
H1038 C1017 0.931 . S
H1039 C1018 0.931 . S
Gd1040 C1043 2.818 . S
Gd1040 O1060 2.377 . S
Gd1040 O1062 2.448 . S
Gd1040 O1063 2.506 . S
Gd1040 O1064 2.435 . S
Gd1040 O1065 2.717 . S
Gd1040 O1067 2.395 . S
Gd1040 O1071 2.327 . S
Gd1041 C1052 2.818 . S
Gd1041 O1061 2.395 . S
Gd1041 O1065 2.327 . S
Gd1041 O1066 2.377 . S
Gd1041 O1068 2.448 . S
Gd1041 O1069 2.506 . S
Gd1041 O1070 2.435 . S
Gd1041 O1071 2.717 . S
C1042 O1060 1.240 . S
C1042 O1061 1.240 . S
C1043 Gd1040 2.818 . S
C1043 C1044 1.510 . S
C1043 O1062 1.249 . S
C1043 O1063 1.252 . S
C1044 C1043 1.510 . S
C1044 C1045 1.404 . S
C1044 C1046 1.352 . S
C1045 C1044 1.404 . S
C1045 C1049 1.389 . S
C1045 H1072 0.930 . S
C1046 C1044 1.352 . S
C1046 C1048 1.374 . S
C1046 H1073 0.931 . S
C1047 C1048 1.359 . S
C1047 C1049 1.364 . S
C1048 C1046 1.374 . S
C1048 C1047 1.359 . S
C1048 H1074 0.931 . S
C1049 C1045 1.389 . S
C1049 C1047 1.364 . S
C1049 H1075 0.931 . S
C1050 O1064 1.256 . S
C1050 O1065 1.257 . S
C1051 O1066 1.240 . S
C1051 O1067 1.240 . S
C1052 Gd1041 2.818 . S
C1052 C1053 1.510 . S
C1052 O1068 1.249 . S
C1052 O1069 1.252 . S
C1053 C1052 1.510 . S
C1053 C1054 1.404 . S
C1053 C1055 1.352 . S
C1054 C1053 1.404 . S
C1054 C1058 1.389 . S
C1054 H1076 0.930 . S
C1055 C1053 1.352 . S
C1055 C1057 1.374 . S
C1055 H1077 0.931 . S
C1056 C1057 1.359 . S
C1056 C1058 1.364 . S
C1057 C1055 1.374 . S
C1057 C1056 1.359 . S
C1057 H1078 0.931 . S
C1058 C1054 1.389 . S
C1058 C1056 1.364 . S
C1058 H1079 0.931 . S
C1059 O1070 1.256 . S
C1059 O1071 1.257 . S
O1060 Gd1040 2.377 . S
O1060 C1042 1.240 . S
O1061 Gd1041 2.395 . S
O1061 C1042 1.240 . S
O1062 Gd1040 2.448 . S
O1062 C1043 1.249 . S
O1063 Gd1040 2.506 . S
O1063 C1043 1.252 . S
O1064 Gd1040 2.435 . S
O1064 C1050 1.256 . S
O1065 Gd1040 2.717 . S
O1065 Gd1041 2.327 . S
O1065 C1050 1.257 . S
O1066 Gd1041 2.377 . S
O1066 C1051 1.240 . S
O1067 Gd1040 2.395 . S
O1067 C1051 1.240 . S
O1068 Gd1041 2.448 . S
O1068 C1052 1.249 . S
O1069 Gd1041 2.506 . S
O1069 C1052 1.252 . S
O1070 Gd1041 2.435 . S
O1070 C1059 1.256 . S
O1071 Gd1040 2.327 . S
O1071 Gd1041 2.717 . S
O1071 C1059 1.257 . S
H1072 C1045 0.930 . S
H1073 C1046 0.931 . S
H1074 C1048 0.931 . S
H1075 C1049 0.931 . S
H1076 C1054 0.930 . S
H1077 C1055 0.931 . S
H1078 C1057 0.931 . S
H1079 C1058 0.931 . S
Gd1080 C1083 2.818 . S
Gd1080 O1100 2.377 . S
Gd1080 O1102 2.448 . S
Gd1080 O1103 2.506 . S
Gd1080 O1104 2.435 . S
Gd1080 O1105 2.717 1_554 S
Gd1080 O1107 2.395 . S
Gd1080 O1111 2.327 . S
Gd1081 C1092 2.818 . S
Gd1081 O1101 2.395 . S
Gd1081 O1105 2.327 . S
Gd1081 O1106 2.377 . S
Gd1081 O1108 2.448 . S
Gd1081 O1109 2.506 . S
Gd1081 O1110 2.435 . S
Gd1081 O1111 2.717 1_556 S
C1082 O1100 1.240 . S
C1082 O1101 1.240 1_554 S
C1083 Gd1080 2.818 . S
C1083 C1084 1.510 . S
C1083 O1102 1.249 . S
C1083 O1103 1.252 . S
C1084 C1083 1.510 . S
C1084 C1085 1.404 . S
C1084 C1086 1.352 . S
C1085 C1084 1.404 . S
C1085 C1089 1.389 . S
C1085 H1112 0.930 . S
C1086 C1084 1.352 . S
C1086 C1088 1.374 . S
C1086 H1113 0.931 . S
C1087 C1088 1.359 . S
C1087 C1089 1.364 . S
C1088 C1086 1.374 . S
C1088 C1087 1.359 . S
C1088 H1114 0.931 . S
C1089 C1085 1.389 . S
C1089 C1087 1.364 . S
C1089 H1115 0.931 . S
C1090 O1104 1.256 . S
C1090 O1105 1.257 1_554 S
C1091 O1106 1.240 . S
C1091 O1107 1.240 1_556 S
C1092 Gd1081 2.818 . S
C1092 C1093 1.510 . S
C1092 O1108 1.249 . S
C1092 O1109 1.252 . S
C1093 C1092 1.510 . S
C1093 C1094 1.404 . S
C1093 C1095 1.352 . S
C1094 C1093 1.404 . S
C1094 C1098 1.389 . S
C1094 H1116 0.930 . S
C1095 C1093 1.352 . S
C1095 C1097 1.374 . S
C1095 H1117 0.931 . S
C1096 C1097 1.359 . S
C1096 C1098 1.364 . S
C1097 C1095 1.374 . S
C1097 C1096 1.359 . S
C1097 H1118 0.931 . S
C1098 C1094 1.389 . S
C1098 C1096 1.364 . S
C1098 H1119 0.931 . S
C1099 O1110 1.256 . S
C1099 O1111 1.257 1_556 S
O1100 Gd1080 2.377 . S
O1100 C1082 1.240 . S
O1101 Gd1081 2.395 . S
O1101 C1082 1.240 1_556 S
O1102 Gd1080 2.448 . S
O1102 C1083 1.249 . S
O1103 Gd1080 2.506 . S
O1103 C1083 1.252 . S
O1104 Gd1080 2.435 . S
O1104 C1090 1.256 . S
O1105 Gd1080 2.717 1_556 S
O1105 Gd1081 2.327 . S
O1105 C1090 1.257 1_556 S
O1106 Gd1081 2.377 . S
O1106 C1091 1.240 . S
O1107 Gd1080 2.395 . S
O1107 C1091 1.240 1_554 S
O1108 Gd1081 2.448 . S
O1108 C1092 1.249 . S
O1109 Gd1081 2.506 . S
O1109 C1092 1.252 . S
O1110 Gd1081 2.435 . S
O1110 C1099 1.256 . S
O1111 Gd1080 2.327 . S
O1111 Gd1081 2.717 1_554 S
O1111 C1099 1.257 1_554 S
H1112 C1085 0.930 . S
H1113 C1086 0.931 . S
H1114 C1088 0.931 . S
H1115 C1089 0.931 . S
H1116 C1094 0.930 . S
H1117 C1095 0.931 . S
H1118 C1097 0.931 . S
H1119 C1098 0.931 . S
Gd1120 C1123 2.818 . S
Gd1120 O1140 2.377 . S
Gd1120 O1142 2.448 . S
Gd1120 O1143 2.506 . S
Gd1120 O1144 2.435 . S
Gd1120 O1145 2.717 1_554 S
Gd1120 O1147 2.395 . S
Gd1120 O1151 2.327 . S
Gd1121 C1132 2.818 . S
Gd1121 O1141 2.395 . S
Gd1121 O1145 2.327 . S
Gd1121 O1146 2.377 . S
Gd1121 O1148 2.448 . S
Gd1121 O1149 2.506 . S
Gd1121 O1150 2.435 . S
Gd1121 O1151 2.717 1_556 S
C1122 O1140 1.240 . S
C1122 O1141 1.240 1_554 S
C1123 Gd1120 2.818 . S
C1123 C1124 1.510 . S
C1123 O1142 1.249 . S
C1123 O1143 1.252 . S
C1124 C1123 1.510 . S
C1124 C1125 1.404 . S
C1124 C1126 1.352 . S
C1125 C1124 1.404 . S
C1125 C1129 1.389 . S
C1125 H1152 0.930 . S
C1126 C1124 1.352 . S
C1126 C1128 1.374 . S
C1126 H1153 0.931 . S
C1127 C1128 1.359 . S
C1127 C1129 1.364 . S
C1128 C1126 1.374 . S
C1128 C1127 1.359 . S
C1128 H1154 0.931 . S
C1129 C1125 1.389 . S
C1129 C1127 1.364 . S
C1129 H1155 0.931 . S
C1130 O1144 1.256 . S
C1130 O1145 1.257 1_554 S
C1131 O1146 1.240 . S
C1131 O1147 1.240 1_556 S
C1132 Gd1121 2.818 . S
C1132 C1133 1.510 . S
C1132 O1148 1.249 . S
C1132 O1149 1.252 . S
C1133 C1132 1.510 . S
C1133 C1134 1.404 . S
C1133 C1135 1.352 . S
C1134 C1133 1.404 . S
C1134 C1138 1.389 . S
C1134 H1156 0.930 . S
C1135 C1133 1.352 . S
C1135 C1137 1.374 . S
C1135 H1157 0.931 . S
C1136 C1137 1.359 . S
C1136 C1138 1.364 . S
C1137 C1135 1.374 . S
C1137 C1136 1.359 . S
C1137 H1158 0.931 . S
C1138 C1134 1.389 . S
C1138 C1136 1.364 . S
C1138 H1159 0.931 . S
C1139 O1150 1.256 . S
C1139 O1151 1.257 1_556 S
O1140 Gd1120 2.377 . S
O1140 C1122 1.240 . S
O1141 Gd1121 2.395 . S
O1141 C1122 1.240 1_556 S
O1142 Gd1120 2.448 . S
O1142 C1123 1.249 . S
O1143 Gd1120 2.506 . S
O1143 C1123 1.252 . S
O1144 Gd1120 2.435 . S
O1144 C1130 1.256 . S
O1145 Gd1120 2.717 1_556 S
O1145 Gd1121 2.327 . S
O1145 C1130 1.257 1_556 S
O1146 Gd1121 2.377 . S
O1146 C1131 1.240 . S
O1147 Gd1120 2.395 . S
O1147 C1131 1.240 1_554 S
O1148 Gd1121 2.448 . S
O1148 C1132 1.249 . S
O1149 Gd1121 2.506 . S
O1149 C1132 1.252 . S
O1150 Gd1121 2.435 . S
O1150 C1139 1.256 . S
O1151 Gd1120 2.327 . S
O1151 Gd1121 2.717 1_554 S
O1151 C1139 1.257 1_554 S
H1152 C1125 0.930 . S
H1153 C1126 0.931 . S
H1154 C1128 0.931 . S
H1155 C1129 0.931 . S
H1156 C1134 0.930 . S
H1157 C1135 0.931 . S
H1158 C1137 0.931 . S
H1159 C1138 0.931 . S
Gd1160 C1163 2.818 . S
Gd1160 O1180 2.377 . S
Gd1160 O1182 2.448 . S
Gd1160 O1183 2.506 . S
Gd1160 O1184 2.435 . S
Gd1160 O1185 2.717 1_554 S
Gd1160 O1187 2.395 . S
Gd1160 O1191 2.327 . S
Gd1161 C1172 2.818 . S
Gd1161 O1181 2.395 . S
Gd1161 O1185 2.327 . S
Gd1161 O1186 2.377 . S
Gd1161 O1188 2.448 . S
Gd1161 O1189 2.506 . S
Gd1161 O1190 2.435 . S
Gd1161 O1191 2.717 1_556 S
C1162 O1180 1.240 . S
C1162 O1181 1.240 1_554 S
C1163 Gd1160 2.818 . S
C1163 C1164 1.510 . S
C1163 O1182 1.249 . S
C1163 O1183 1.252 . S
C1164 C1163 1.510 . S
C1164 C1165 1.404 . S
C1164 C1166 1.352 . S
C1165 C1164 1.404 . S
C1165 C1169 1.389 . S
C1165 H1192 0.930 . S
C1166 C1164 1.352 . S
C1166 C1168 1.374 . S
C1166 H1193 0.931 . S
C1167 C1168 1.359 . S
C1167 C1169 1.364 . S
C1168 C1166 1.374 . S
C1168 C1167 1.359 . S
C1168 H1194 0.931 . S
C1169 C1165 1.389 . S
C1169 C1167 1.364 . S
C1169 H1195 0.931 . S
C1170 O1184 1.256 . S
C1170 O1185 1.257 1_554 S
C1171 O1186 1.240 . S
C1171 O1187 1.240 1_556 S
C1172 Gd1161 2.818 . S
C1172 C1173 1.510 . S
C1172 O1188 1.249 . S
C1172 O1189 1.252 . S
C1173 C1172 1.510 . S
C1173 C1174 1.404 . S
C1173 C1175 1.352 . S
C1174 C1173 1.404 . S
C1174 C1178 1.389 . S
C1174 H1196 0.930 . S
C1175 C1173 1.352 . S
C1175 C1177 1.374 . S
C1175 H1197 0.931 . S
C1176 C1177 1.359 . S
C1176 C1178 1.364 . S
C1177 C1175 1.374 . S
C1177 C1176 1.359 . S
C1177 H1198 0.931 . S
C1178 C1174 1.389 . S
C1178 C1176 1.364 . S
C1178 H1199 0.931 . S
C1179 O1190 1.256 . S
C1179 O1191 1.257 1_556 S
O1180 Gd1160 2.377 . S
O1180 C1162 1.240 . S
O1181 Gd1161 2.395 . S
O1181 C1162 1.240 1_556 S
O1182 Gd1160 2.448 . S
O1182 C1163 1.249 . S
O1183 Gd1160 2.506 . S
O1183 C1163 1.252 . S
O1184 Gd1160 2.435 . S
O1184 C1170 1.256 . S
O1185 Gd1160 2.717 1_556 S
O1185 Gd1161 2.327 . S
O1185 C1170 1.257 1_556 S
O1186 Gd1161 2.377 . S
O1186 C1171 1.240 . S
O1187 Gd1160 2.395 . S
O1187 C1171 1.240 1_554 S
O1188 Gd1161 2.448 . S
O1188 C1172 1.249 . S
O1189 Gd1161 2.506 . S
O1189 C1172 1.252 . S
O1190 Gd1161 2.435 . S
O1190 C1179 1.256 . S
O1191 Gd1160 2.327 . S
O1191 Gd1161 2.717 1_554 S
O1191 C1179 1.257 1_554 S
H1192 C1165 0.930 . S
H1193 C1166 0.931 . S
H1194 C1168 0.931 . S
H1195 C1169 0.931 . S
H1196 C1174 0.930 . S
H1197 C1175 0.931 . S
H1198 C1177 0.931 . S
H1199 C1178 0.931 . S
Gd1200 C1203 2.818 . S
Gd1200 O1220 2.377 . S
Gd1200 O1222 2.448 . S
Gd1200 O1223 2.506 . S
Gd1200 O1224 2.435 . S
Gd1200 O1225 2.717 . S
Gd1200 O1227 2.395 . S
Gd1200 O1231 2.327 . S
Gd1201 C1212 2.818 . S
Gd1201 O1221 2.395 . S
Gd1201 O1225 2.327 . S
Gd1201 O1226 2.377 . S
Gd1201 O1228 2.448 . S
Gd1201 O1229 2.506 . S
Gd1201 O1230 2.435 . S
Gd1201 O1231 2.717 . S
C1202 O1220 1.240 . S
C1202 O1221 1.240 . S
C1203 Gd1200 2.818 . S
C1203 C1204 1.510 . S
C1203 O1222 1.249 . S
C1203 O1223 1.252 . S
C1204 C1203 1.510 . S
C1204 C1205 1.404 . S
C1204 C1206 1.352 . S
C1205 C1204 1.404 . S
C1205 C1209 1.389 . S
C1205 H1232 0.930 . S
C1206 C1204 1.352 . S
C1206 C1208 1.374 . S
C1206 H1233 0.931 . S
C1207 C1208 1.359 . S
C1207 C1209 1.364 . S
C1208 C1206 1.374 . S
C1208 C1207 1.359 . S
C1208 H1234 0.931 . S
C1209 C1205 1.389 . S
C1209 C1207 1.364 . S
C1209 H1235 0.931 . S
C1210 O1224 1.256 . S
C1210 O1225 1.257 . S
C1211 O1226 1.240 . S
C1211 O1227 1.240 . S
C1212 Gd1201 2.818 . S
C1212 C1213 1.510 . S
C1212 O1228 1.249 . S
C1212 O1229 1.252 . S
C1213 C1212 1.510 . S
C1213 C1214 1.404 . S
C1213 C1215 1.352 . S
C1214 C1213 1.404 . S
C1214 C1218 1.389 . S
C1214 H1236 0.930 . S
C1215 C1213 1.352 . S
C1215 C1217 1.374 . S
C1215 H1237 0.931 . S
C1216 C1217 1.359 . S
C1216 C1218 1.364 . S
C1217 C1215 1.374 . S
C1217 C1216 1.359 . S
C1217 H1238 0.931 . S
C1218 C1214 1.389 . S
C1218 C1216 1.364 . S
C1218 H1239 0.931 . S
C1219 O1230 1.256 . S
C1219 O1231 1.257 . S
O1220 Gd1200 2.377 . S
O1220 C1202 1.240 . S
O1221 Gd1201 2.395 . S
O1221 C1202 1.240 . S
O1222 Gd1200 2.448 . S
O1222 C1203 1.249 . S
O1223 Gd1200 2.506 . S
O1223 C1203 1.252 . S
O1224 Gd1200 2.435 . S
O1224 C1210 1.256 . S
O1225 Gd1200 2.717 . S
O1225 Gd1201 2.327 . S
O1225 C1210 1.257 . S
O1226 Gd1201 2.377 . S
O1226 C1211 1.240 . S
O1227 Gd1200 2.395 . S
O1227 C1211 1.240 . S
O1228 Gd1201 2.448 . S
O1228 C1212 1.249 . S
O1229 Gd1201 2.506 . S
O1229 C1212 1.252 . S
O1230 Gd1201 2.435 . S
O1230 C1219 1.256 . S
O1231 Gd1200 2.327 . S
O1231 Gd1201 2.717 . S
O1231 C1219 1.257 . S
H1232 C1205 0.930 . S
H1233 C1206 0.931 . S
H1234 C1208 0.931 . S
H1235 C1209 0.931 . S
H1236 C1214 0.930 . S
H1237 C1215 0.931 . S
H1238 C1217 0.931 . S
H1239 C1218 0.931 . S
Gd1240 C1243 2.818 . S
Gd1240 O1260 2.377 . S
Gd1240 O1262 2.448 . S
Gd1240 O1263 2.506 . S
Gd1240 O1264 2.435 . S
Gd1240 O1265 2.717 . S
Gd1240 O1267 2.395 . S
Gd1240 O1271 2.327 . S
Gd1241 C1252 2.818 . S
Gd1241 O1261 2.395 . S
Gd1241 O1265 2.327 . S
Gd1241 O1266 2.377 . S
Gd1241 O1268 2.448 . S
Gd1241 O1269 2.506 . S
Gd1241 O1270 2.435 . S
Gd1241 O1271 2.717 . S
C1242 O1260 1.240 . S
C1242 O1261 1.240 . S
C1243 Gd1240 2.818 . S
C1243 C1244 1.510 . S
C1243 O1262 1.249 . S
C1243 O1263 1.252 . S
C1244 C1243 1.510 . S
C1244 C1245 1.404 . S
C1244 C1246 1.352 . S
C1245 C1244 1.404 . S
C1245 C1249 1.389 . S
C1245 H1272 0.930 . S
C1246 C1244 1.352 . S
C1246 C1248 1.374 . S
C1246 H1273 0.931 . S
C1247 C1248 1.359 . S
C1247 C1249 1.364 . S
C1248 C1246 1.374 . S
C1248 C1247 1.359 . S
C1248 H1274 0.931 . S
C1249 C1245 1.389 . S
C1249 C1247 1.364 . S
C1249 H1275 0.931 . S
C1250 O1264 1.256 . S
C1250 O1265 1.257 . S
C1251 O1266 1.240 . S
C1251 O1267 1.240 . S
C1252 Gd1241 2.818 . S
C1252 C1253 1.510 . S
C1252 O1268 1.249 . S
C1252 O1269 1.252 . S
C1253 C1252 1.510 . S
C1253 C1254 1.404 . S
C1253 C1255 1.352 . S
C1254 C1253 1.404 . S
C1254 C1258 1.389 . S
C1254 H1276 0.930 . S
C1255 C1253 1.352 . S
C1255 C1257 1.374 . S
C1255 H1277 0.931 . S
C1256 C1257 1.359 . S
C1256 C1258 1.364 . S
C1257 C1255 1.374 . S
C1257 C1256 1.359 . S
C1257 H1278 0.931 . S
C1258 C1254 1.389 . S
C1258 C1256 1.364 . S
C1258 H1279 0.931 . S
C1259 O1270 1.256 . S
C1259 O1271 1.257 . S
O1260 Gd1240 2.377 . S
O1260 C1242 1.240 . S
O1261 Gd1241 2.395 . S
O1261 C1242 1.240 . S
O1262 Gd1240 2.448 . S
O1262 C1243 1.249 . S
O1263 Gd1240 2.506 . S
O1263 C1243 1.252 . S
O1264 Gd1240 2.435 . S
O1264 C1250 1.256 . S
O1265 Gd1240 2.717 . S
O1265 Gd1241 2.327 . S
O1265 C1250 1.257 . S
O1266 Gd1241 2.377 . S
O1266 C1251 1.240 . S
O1267 Gd1240 2.395 . S
O1267 C1251 1.240 . S
O1268 Gd1241 2.448 . S
O1268 C1252 1.249 . S
O1269 Gd1241 2.506 . S
O1269 C1252 1.252 . S
O1270 Gd1241 2.435 . S
O1270 C1259 1.256 . S
O1271 Gd1240 2.327 . S
O1271 Gd1241 2.717 . S
O1271 C1259 1.257 . S
H1272 C1245 0.930 . S
H1273 C1246 0.931 . S
H1274 C1248 0.931 . S
H1275 C1249 0.931 . S
H1276 C1254 0.930 . S
H1277 C1255 0.931 . S
H1278 C1257 0.931 . S
H1279 C1258 0.931 . S
Gd1280 C1283 2.818 . S
Gd1280 O1300 2.377 . S
Gd1280 O1302 2.448 . S
Gd1280 O1303 2.506 . S
Gd1280 O1304 2.435 . S
Gd1280 O1305 2.717 . S
Gd1280 O1307 2.395 . S
Gd1280 O1311 2.327 . S
Gd1281 C1292 2.818 . S
Gd1281 O1301 2.395 . S
Gd1281 O1305 2.327 . S
Gd1281 O1306 2.377 . S
Gd1281 O1308 2.448 . S
Gd1281 O1309 2.506 . S
Gd1281 O1310 2.435 . S
Gd1281 O1311 2.717 . S
C1282 O1300 1.240 . S
C1282 O1301 1.240 . S
C1283 Gd1280 2.818 . S
C1283 C1284 1.510 . S
C1283 O1302 1.249 . S
C1283 O1303 1.252 . S
C1284 C1283 1.510 . S
C1284 C1285 1.404 . S
C1284 C1286 1.352 . S
C1285 C1284 1.404 . S
C1285 C1289 1.389 . S
C1285 H1312 0.930 . S
C1286 C1284 1.352 . S
C1286 C1288 1.374 . S
C1286 H1313 0.931 . S
C1287 C1288 1.359 . S
C1287 C1289 1.364 . S
C1288 C1286 1.374 . S
C1288 C1287 1.359 . S
C1288 H1314 0.931 . S
C1289 C1285 1.389 . S
C1289 C1287 1.364 . S
C1289 H1315 0.931 . S
C1290 O1304 1.256 . S
C1290 O1305 1.257 . S
C1291 O1306 1.240 . S
C1291 O1307 1.240 . S
C1292 Gd1281 2.818 . S
C1292 C1293 1.510 . S
C1292 O1308 1.249 . S
C1292 O1309 1.252 . S
C1293 C1292 1.510 . S
C1293 C1294 1.404 . S
C1293 C1295 1.352 . S
C1294 C1293 1.404 . S
C1294 C1298 1.389 . S
C1294 H1316 0.930 . S
C1295 C1293 1.352 . S
C1295 C1297 1.374 . S
C1295 H1317 0.931 . S
C1296 C1297 1.359 . S
C1296 C1298 1.364 . S
C1297 C1295 1.374 . S
C1297 C1296 1.359 . S
C1297 H1318 0.931 . S
C1298 C1294 1.389 . S
C1298 C1296 1.364 . S
C1298 H1319 0.931 . S
C1299 O1310 1.256 . S
C1299 O1311 1.257 . S
O1300 Gd1280 2.377 . S
O1300 C1282 1.240 . S
O1301 Gd1281 2.395 . S
O1301 C1282 1.240 . S
O1302 Gd1280 2.448 . S
O1302 C1283 1.249 . S
O1303 Gd1280 2.506 . S
O1303 C1283 1.252 . S
O1304 Gd1280 2.435 . S
O1304 C1290 1.256 . S
O1305 Gd1280 2.717 . S
O1305 Gd1281 2.327 . S
O1305 C1290 1.257 . S
O1306 Gd1281 2.377 . S
O1306 C1291 1.240 . S
O1307 Gd1280 2.395 . S
O1307 C1291 1.240 . S
O1308 Gd1281 2.448 . S
O1308 C1292 1.249 . S
O1309 Gd1281 2.506 . S
O1309 C1292 1.252 . S
O1310 Gd1281 2.435 . S
O1310 C1299 1.256 . S
O1311 Gd1280 2.327 . S
O1311 Gd1281 2.717 . S
O1311 C1299 1.257 . S
H1312 C1285 0.930 . S
H1313 C1286 0.931 . S
H1314 C1288 0.931 . S
H1315 C1289 0.931 . S
H1316 C1294 0.930 . S
H1317 C1295 0.931 . S
H1318 C1297 0.931 . S
H1319 C1298 0.931 . S
Gd1320 C1323 2.818 . S
Gd1320 O1340 2.377 . S
Gd1320 O1342 2.448 . S
Gd1320 O1343 2.506 . S
Gd1320 O1344 2.435 . S
Gd1320 O1345 2.717 . S
Gd1320 O1347 2.395 . S
Gd1320 O1351 2.327 . S
Gd1321 C1332 2.818 . S
Gd1321 O1341 2.395 . S
Gd1321 O1345 2.327 . S
Gd1321 O1346 2.377 . S
Gd1321 O1348 2.448 . S
Gd1321 O1349 2.506 . S
Gd1321 O1350 2.435 . S
Gd1321 O1351 2.717 . S
C1322 O1340 1.240 . S
C1322 O1341 1.240 . S
C1323 Gd1320 2.818 . S
C1323 C1324 1.510 . S
C1323 O1342 1.249 . S
C1323 O1343 1.252 . S
C1324 C1323 1.510 . S
C1324 C1325 1.404 . S
C1324 C1326 1.352 . S
C1325 C1324 1.404 . S
C1325 C1329 1.389 . S
C1325 H1352 0.930 . S
C1326 C1324 1.352 . S
C1326 C1328 1.374 . S
C1326 H1353 0.931 . S
C1327 C1328 1.359 . S
C1327 C1329 1.364 . S
C1328 C1326 1.374 . S
C1328 C1327 1.359 . S
C1328 H1354 0.931 . S
C1329 C1325 1.389 . S
C1329 C1327 1.364 . S
C1329 H1355 0.931 . S
C1330 O1344 1.256 . S
C1330 O1345 1.257 . S
C1331 O1346 1.240 . S
C1331 O1347 1.240 . S
C1332 Gd1321 2.818 . S
C1332 C1333 1.510 . S
C1332 O1348 1.249 . S
C1332 O1349 1.252 . S
C1333 C1332 1.510 . S
C1333 C1334 1.404 . S
C1333 C1335 1.352 . S
C1334 C1333 1.404 . S
C1334 C1338 1.389 . S
C1334 H1356 0.930 . S
C1335 C1333 1.352 . S
C1335 C1337 1.374 1_455 S
C1335 H1357 0.931 1_455 S
C1336 C1337 1.359 1_455 S
C1336 C1338 1.364 . S
C1337 C1335 1.374 1_655 S
C1337 C1336 1.359 1_655 S
C1337 H1358 0.931 . S
C1338 C1334 1.389 . S
C1338 C1336 1.364 . S
C1338 H1359 0.931 . S
C1339 O1350 1.256 . S
C1339 O1351 1.257 . S
O1340 Gd1320 2.377 . S
O1340 C1322 1.240 . S
O1341 Gd1321 2.395 . S
O1341 C1322 1.240 . S
O1342 Gd1320 2.448 . S
O1342 C1323 1.249 . S
O1343 Gd1320 2.506 . S
O1343 C1323 1.252 . S
O1344 Gd1320 2.435 . S
O1344 C1330 1.256 . S
O1345 Gd1320 2.717 . S
O1345 Gd1321 2.327 . S
O1345 C1330 1.257 . S
O1346 Gd1321 2.377 . S
O1346 C1331 1.240 . S
O1347 Gd1320 2.395 . S
O1347 C1331 1.240 . S
O1348 Gd1321 2.448 . S
O1348 C1332 1.249 . S
O1349 Gd1321 2.506 . S
O1349 C1332 1.252 . S
O1350 Gd1321 2.435 . S
O1350 C1339 1.256 . S
O1351 Gd1320 2.327 . S
O1351 Gd1321 2.717 . S
O1351 C1339 1.257 . S
H1352 C1325 0.930 . S
H1353 C1326 0.931 . S
H1354 C1328 0.931 . S
H1355 C1329 0.931 . S
H1356 C1334 0.930 . S
H1357 C1335 0.931 1_655 S
H1358 C1337 0.931 . S
H1359 C1338 0.931 . S
Gd1360 C1363 2.818 . S
Gd1360 O1380 2.377 . S
Gd1360 O1382 2.448 . S
Gd1360 O1383 2.506 . S
Gd1360 O1384 2.435 . S
Gd1360 O1385 2.717 . S
Gd1360 O1387 2.395 . S
Gd1360 O1391 2.327 . S
Gd1361 C1372 2.818 . S
Gd1361 O1381 2.395 . S
Gd1361 O1385 2.327 . S
Gd1361 O1386 2.377 . S
Gd1361 O1388 2.448 . S
Gd1361 O1389 2.506 . S
Gd1361 O1390 2.435 . S
Gd1361 O1391 2.717 . S
C1362 O1380 1.240 . S
C1362 O1381 1.240 . S
C1363 Gd1360 2.818 . S
C1363 C1364 1.510 . S
C1363 O1382 1.249 . S
C1363 O1383 1.252 . S
C1364 C1363 1.510 . S
C1364 C1365 1.404 . S
C1364 C1366 1.352 . S
C1365 C1364 1.404 . S
C1365 C1369 1.389 . S
C1365 H1392 0.930 . S
C1366 C1364 1.352 . S
C1366 C1368 1.374 . S
C1366 H1393 0.931 . S
C1367 C1368 1.359 . S
C1367 C1369 1.364 . S
C1368 C1366 1.374 . S
C1368 C1367 1.359 . S
C1368 H1394 0.931 . S
C1369 C1365 1.389 . S
C1369 C1367 1.364 . S
C1369 H1395 0.931 . S
C1370 O1384 1.256 . S
C1370 O1385 1.257 . S
C1371 O1386 1.240 . S
C1371 O1387 1.240 . S
C1372 Gd1361 2.818 . S
C1372 C1373 1.510 . S
C1372 O1388 1.249 . S
C1372 O1389 1.252 . S
C1373 C1372 1.510 . S
C1373 C1374 1.404 . S
C1373 C1375 1.352 . S
C1374 C1373 1.404 . S
C1374 C1378 1.389 . S
C1374 H1396 0.930 . S
C1375 C1373 1.352 . S
C1375 C1377 1.374 . S
C1375 H1397 0.931 . S
C1376 C1377 1.359 . S
C1376 C1378 1.364 . S
C1377 C1375 1.374 . S
C1377 C1376 1.359 . S
C1377 H1398 0.931 . S
C1378 C1374 1.389 . S
C1378 C1376 1.364 . S
C1378 H1399 0.931 . S
C1379 O1390 1.256 . S
C1379 O1391 1.257 . S
O1380 Gd1360 2.377 . S
O1380 C1362 1.240 . S
O1381 Gd1361 2.395 . S
O1381 C1362 1.240 . S
O1382 Gd1360 2.448 . S
O1382 C1363 1.249 . S
O1383 Gd1360 2.506 . S
O1383 C1363 1.252 . S
O1384 Gd1360 2.435 . S
O1384 C1370 1.256 . S
O1385 Gd1360 2.717 . S
O1385 Gd1361 2.327 . S
O1385 C1370 1.257 . S
O1386 Gd1361 2.377 . S
O1386 C1371 1.240 . S
O1387 Gd1360 2.395 . S
O1387 C1371 1.240 . S
O1388 Gd1361 2.448 . S
O1388 C1372 1.249 . S
O1389 Gd1361 2.506 . S
O1389 C1372 1.252 . S
O1390 Gd1361 2.435 . S
O1390 C1379 1.256 . S
O1391 Gd1360 2.327 . S
O1391 Gd1361 2.717 . S
O1391 C1379 1.257 . S
H1392 C1365 0.930 . S
H1393 C1366 0.931 . S
H1394 C1368 0.931 . S
H1395 C1369 0.931 . S
H1396 C1374 0.930 . S
H1397 C1375 0.931 . S
H1398 C1377 0.931 . S
H1399 C1378 0.931 . S
Gd1400 C1403 2.818 . S
Gd1400 O1420 2.377 . S
Gd1400 O1422 2.448 . S
Gd1400 O1423 2.506 . S
Gd1400 O1424 2.435 . S
Gd1400 O1425 2.717 . S
Gd1400 O1427 2.395 . S
Gd1400 O1431 2.327 . S
Gd1401 C1412 2.818 . S
Gd1401 O1421 2.395 . S
Gd1401 O1425 2.327 . S
Gd1401 O1426 2.377 . S
Gd1401 O1428 2.448 . S
Gd1401 O1429 2.506 . S
Gd1401 O1430 2.435 . S
Gd1401 O1431 2.717 . S
C1402 O1420 1.240 . S
C1402 O1421 1.240 . S
C1403 Gd1400 2.818 . S
C1403 C1404 1.510 . S
C1403 O1422 1.249 . S
C1403 O1423 1.252 . S
C1404 C1403 1.510 . S
C1404 C1405 1.404 . S
C1404 C1406 1.352 . S
C1405 C1404 1.404 . S
C1405 C1409 1.389 . S
C1405 H1432 0.930 . S
C1406 C1404 1.352 . S
C1406 C1408 1.374 . S
C1406 H1433 0.931 . S
C1407 C1408 1.359 . S
C1407 C1409 1.364 . S
C1408 C1406 1.374 . S
C1408 C1407 1.359 . S
C1408 H1434 0.931 . S
C1409 C1405 1.389 . S
C1409 C1407 1.364 . S
C1409 H1435 0.931 . S
C1410 O1424 1.256 . S
C1410 O1425 1.257 . S
C1411 O1426 1.240 . S
C1411 O1427 1.240 . S
C1412 Gd1401 2.818 . S
C1412 C1413 1.510 . S
C1412 O1428 1.249 . S
C1412 O1429 1.252 . S
C1413 C1412 1.510 . S
C1413 C1414 1.404 . S
C1413 C1415 1.352 . S
C1414 C1413 1.404 . S
C1414 C1418 1.389 . S
C1414 H1436 0.930 . S
C1415 C1413 1.352 . S
C1415 C1417 1.374 1_565 S
C1415 H1437 0.931 1_565 S
C1416 C1417 1.359 1_565 S
C1416 C1418 1.364 . S
C1417 C1415 1.374 1_545 S
C1417 C1416 1.359 1_545 S
C1417 H1438 0.931 . S
C1418 C1414 1.389 . S
C1418 C1416 1.364 . S
C1418 H1439 0.931 . S
C1419 O1430 1.256 . S
C1419 O1431 1.257 . S
O1420 Gd1400 2.377 . S
O1420 C1402 1.240 . S
O1421 Gd1401 2.395 . S
O1421 C1402 1.240 . S
O1422 Gd1400 2.448 . S
O1422 C1403 1.249 . S
O1423 Gd1400 2.506 . S
O1423 C1403 1.252 . S
O1424 Gd1400 2.435 . S
O1424 C1410 1.256 . S
O1425 Gd1400 2.717 . S
O1425 Gd1401 2.327 . S
O1425 C1410 1.257 . S
O1426 Gd1401 2.377 . S
O1426 C1411 1.240 . S
O1427 Gd1400 2.395 . S
O1427 C1411 1.240 . S
O1428 Gd1401 2.448 . S
O1428 C1412 1.249 . S
O1429 Gd1401 2.506 . S
O1429 C1412 1.252 . S
O1430 Gd1401 2.435 . S
O1430 C1419 1.256 . S
O1431 Gd1400 2.327 . S
O1431 Gd1401 2.717 . S
O1431 C1419 1.257 . S
H1432 C1405 0.930 . S
H1433 C1406 0.931 . S
H1434 C1408 0.931 . S
H1435 C1409 0.931 . S
H1436 C1414 0.930 . S
H1437 C1415 0.931 1_545 S
H1438 C1417 0.931 . S
H1439 C1418 0.931 . S
H1440 C1448 0.950 . S
H1441 C1453 0.950 . S
H1442 C1450 0.950 . S
H1443 C1452 0.950 . S
H1444 C1454 0.950 . S
H1445 C1456 0.950 . S
H1446 C1458 0.950 . S
H1447 C1459 0.950 1_565 S
C1448 H1440 0.950 . S
C1448 C1449 1.386 . S
C1448 C1450 1.391 . S
C1449 C1448 1.386 . S
C1449 C1453 1.393 . S
C1450 H1442 0.950 . S
C1450 C1448 1.391 . S
C1450 C1451 1.400 . S
C1451 C1450 1.400 . S
C1451 C1452 1.398 . S
C1451 C1457 1.491 . S
C1452 H1443 0.950 . S
C1452 C1451 1.398 . S
C1452 C1453 1.391 . S
C1453 H1441 0.950 . S
C1453 C1449 1.393 . S
C1453 C1452 1.391 . S
C1454 H1444 0.950 . S
C1454 C1455 1.386 . S
C1454 C1456 1.391 1_565 S
C1455 C1454 1.386 . S
C1455 C1459 1.393 1_565 S
C1456 H1445 0.950 . S
C1456 C1454 1.391 1_545 S
C1456 C1457 1.400 . S
C1457 C1451 1.491 . S
C1457 C1456 1.400 . S
C1457 C1458 1.398 . S
C1458 H1446 0.950 . S
C1458 C1457 1.398 . S
C1458 C1459 1.391 . S
C1459 H1447 0.950 1_545 S
C1459 C1455 1.393 1_545 S
C1459 C1458 1.391 . S
H1460 C1468 0.950 . S
H1461 C1473 0.950 . S
H1462 C1470 0.950 . S
H1463 C1472 0.950 . S
H1464 C1474 0.950 . S
H1465 C1476 0.950 . S
H1466 C1478 0.950 . S
H1467 C1479 0.950 1_565 S
C1468 H1460 0.950 . S
C1468 C1469 1.386 . S
C1468 C1470 1.391 1_455 S
C1469 C1468 1.386 . S
C1469 C1473 1.393 . S
C1470 H1462 0.950 . S
C1470 C1468 1.391 1_655 S
C1470 C1471 1.400 . S
C1471 C1470 1.400 . S
C1471 C1472 1.398 . S
C1471 C1477 1.491 . S
C1472 H1463 0.950 . S
C1472 C1471 1.398 . S
C1472 C1473 1.391 1_655 S
C1473 H1461 0.950 . S
C1473 C1469 1.393 . S
C1473 C1472 1.391 1_455 S
C1474 H1464 0.950 . S
C1474 C1475 1.386 . S
C1474 C1476 1.391 . S
C1475 C1474 1.386 . S
C1475 C1479 1.393 . S
C1476 H1465 0.950 . S
C1476 C1474 1.391 . S
C1476 C1477 1.400 . S
C1477 C1471 1.491 . S
C1477 C1476 1.400 . S
C1477 C1478 1.398 . S
C1478 H1466 0.950 . S
C1478 C1477 1.398 . S
C1478 C1479 1.391 . S
C1479 H1467 0.950 1_545 S
C1479 C1475 1.393 . S
C1479 C1478 1.391 . S
H1480 C1488 0.950 . S
H1481 C1493 0.950 . S
H1482 C1490 0.950 . S
H1483 C1492 0.950 . S
H1484 C1494 0.950 . S
H1485 C1496 0.950 . S
H1486 C1498 0.950 . S
H1487 C1499 0.950 . S
C1488 H1480 0.950 . S
C1488 C1489 1.386 . S
C1488 C1490 1.391 . S
C1489 C1488 1.386 . S
C1489 C1493 1.393 1_655 S
C1490 H1482 0.950 . S
C1490 C1488 1.391 . S
C1490 C1491 1.400 . S
C1491 C1490 1.400 . S
C1491 C1492 1.398 . S
C1491 C1497 1.491 . S
C1492 H1483 0.950 . S
C1492 C1491 1.398 . S
C1492 C1493 1.391 1_655 S
C1493 H1481 0.950 . S
C1493 C1489 1.393 1_455 S
C1493 C1492 1.391 1_455 S
C1494 H1484 0.950 . S
C1494 C1495 1.386 . S
C1494 C1496 1.391 . S
C1495 C1494 1.386 . S
C1495 C1499 1.393 . S
C1496 H1485 0.950 . S
C1496 C1494 1.391 . S
C1496 C1497 1.400 . S
C1497 C1491 1.491 . S
C1497 C1496 1.400 . S
C1497 C1498 1.398 . S
C1498 H1486 0.950 . S
C1498 C1497 1.398 . S
C1498 C1499 1.391 . S
C1499 H1487 0.950 . S
C1499 C1495 1.393 . S
C1499 C1498 1.391 . S
H1500 C1508 0.950 . S
H1501 C1513 0.950 . S
H1502 C1510 0.950 . S
H1503 C1512 0.950 . S
H1504 C1514 0.947 1_655 S
H1505 C1516 0.950 . S
H1506 C1518 0.950 . S
H1507 C1519 0.950 . S
C1508 H1500 0.950 . S
C1508 C1509 1.386 . S
C1508 C1510 1.391 . S
C1509 C1508 1.386 . S
C1509 C1513 1.393 . S
C1510 H1502 0.950 . S
C1510 C1508 1.391 . S
C1510 C1511 1.400 . S
C1511 C1510 1.400 . S
C1511 C1512 1.398 . S
C1511 C1517 1.491 . S
C1512 H1503 0.950 . S
C1512 C1511 1.398 . S
C1512 C1513 1.391 . S
C1513 H1501 0.950 . S
C1513 C1509 1.393 . S
C1513 C1512 1.391 . S
C1514 H1504 0.947 1_455 S
C1514 C1515 1.383 1_455 S
C1514 C1516 1.396 . S
C1515 C1514 1.383 1_655 S
C1515 C1519 1.393 . S
C1516 H1505 0.950 . S
C1516 C1514 1.396 . S
C1516 C1517 1.400 . S
C1517 C1511 1.491 . S
C1517 C1516 1.400 . S
C1517 C1518 1.398 . S
C1518 H1506 0.950 . S
C1518 C1517 1.398 . S
C1518 C1519 1.391 1_455 S
C1519 H1507 0.950 . S
C1519 C1515 1.393 . S
C1519 C1518 1.391 1_655 S
H1520 C1528 0.950 . S
H1521 C1533 0.950 . S
H1522 C1530 0.950 . S
H1523 C1532 0.950 . S
H1524 C1534 0.936 1_545 S
H1525 C1536 0.950 . S
H1526 C1538 0.950 . S
H1527 C1539 0.950 . S
C1528 H1520 0.950 . S
C1528 C1529 1.386 . S
C1528 C1530 1.391 . S
C1529 C1528 1.386 . S
C1529 C1533 1.393 . S
C1530 H1522 0.950 . S
C1530 C1528 1.391 . S
C1530 C1531 1.400 . S
C1531 C1530 1.400 . S
C1531 C1532 1.398 . S
C1531 C1537 1.491 . S
C1532 H1523 0.950 . S
C1532 C1531 1.398 . S
C1532 C1533 1.391 . S
C1533 H1521 0.950 . S
C1533 C1529 1.393 . S
C1533 C1532 1.391 . S
C1534 H1524 0.936 1_565 S
C1534 C1535 1.377 . S
C1534 C1536 1.414 . S
C1535 C1534 1.377 . S
C1535 C1539 1.393 . S
C1536 H1525 0.950 . S
C1536 C1534 1.414 . S
C1536 C1537 1.400 . S
C1537 C1531 1.491 . S
C1537 C1536 1.400 . S
C1537 C1538 1.398 . S
C1538 H1526 0.950 . S
C1538 C1537 1.398 . S
C1538 C1539 1.391 . S
C1539 H1527 0.950 . S
C1539 C1535 1.393 . S
C1539 C1538 1.391 . S
H1540 C1548 0.950 . S
H1541 C1553 0.950 1_655 S
H1542 C1550 0.950 . S
H1543 C1552 0.950 . S
H1544 C1554 0.950 . S
H1545 C1556 0.950 . S
H1546 C1558 0.950 . S
H1547 C1559 0.950 . S
C1548 H1540 0.950 . S
C1548 C1549 1.386 . S
C1548 C1550 1.391 . S
C1549 C1548 1.386 . S
C1549 C1553 1.393 . S
C1550 H1542 0.950 . S
C1550 C1548 1.391 . S
C1550 C1551 1.400 . S
C1551 C1550 1.400 . S
C1551 C1552 1.398 . S
C1551 C1557 1.491 . S
C1552 H1543 0.950 . S
C1552 C1551 1.398 . S
C1552 C1553 1.391 . S
C1553 H1541 0.950 1_455 S
C1553 C1549 1.393 . S
C1553 C1552 1.391 . S
C1554 H1544 0.950 . S
C1554 C1555 1.386 . S
C1554 C1556 1.391 1_545 S
C1555 C1554 1.386 . S
C1555 C1559 1.394 . S
C1556 H1545 0.950 . S
C1556 C1554 1.391 1_565 S
C1556 C1557 1.400 . S
C1557 C1551 1.491 . S
C1557 C1556 1.400 . S
C1557 C1558 1.398 . S
C1558 H1546 0.950 . S
C1558 C1557 1.398 . S
C1558 C1559 1.390 1_565 S
C1559 H1547 0.950 . S
C1559 C1555 1.394 . S
C1559 C1558 1.390 1_545 S
H1560 C1568 0.950 . S
H1561 C1573 0.950 . S
H1562 C1570 0.950 . S
H1563 C1572 0.950 . S
H1564 C1574 0.950 1_545 S
H1565 C1576 0.950 . S
H1566 C1578 0.950 . S
H1567 C1579 0.950 . S
C1568 H1560 0.950 . S
C1568 C1569 1.386 . S
C1568 C1570 1.391 . S
C1569 C1568 1.386 . S
C1569 C1573 1.393 . S
C1570 H1562 0.950 . S
C1570 C1568 1.391 . S
C1570 C1571 1.400 . S
C1571 C1570 1.400 . S
C1571 C1572 1.398 . S
C1571 C1577 1.491 . S
C1572 H1563 0.950 . S
C1572 C1571 1.398 . S
C1572 C1573 1.391 . S
C1573 H1561 0.950 . S
C1573 C1569 1.393 . S
C1573 C1572 1.391 . S
C1574 H1564 0.950 1_565 S
C1574 C1575 1.386 1_565 S
C1574 C1576 1.391 . S
C1575 C1574 1.386 1_545 S
C1575 C1579 1.393 . S
C1576 H1565 0.950 . S
C1576 C1574 1.391 . S
C1576 C1577 1.400 . S
C1577 C1571 1.491 . S
C1577 C1576 1.400 . S
C1577 C1578 1.398 . S
C1578 H1566 0.950 . S
C1578 C1577 1.398 . S
C1578 C1579 1.391 1_565 S
C1579 H1567 0.950 . S
C1579 C1575 1.393 . S
C1579 C1578 1.391 1_545 S
H1580 C1588 0.950 . S
H1581 C1593 0.950 . S
H1582 C1590 0.950 . S
H1583 C1592 0.950 . S
H1584 C1594 0.950 1_655 S
H1585 C1596 0.950 . S
H1586 C1598 0.950 . S
H1587 C1599 0.950 . S
C1588 H1580 0.950 . S
C1588 C1589 1.386 1_545 S
C1588 C1590 1.391 1_545 S
C1589 C1588 1.386 1_565 S
C1589 C1593 1.393 . S
C1590 H1582 0.950 . S
C1590 C1588 1.391 1_565 S
C1590 C1591 1.400 . S
C1591 C1590 1.400 . S
C1591 C1592 1.398 . S
C1591 C1597 1.491 . S
C1592 H1583 0.950 . S
C1592 C1591 1.398 . S
C1592 C1593 1.391 . S
C1593 H1581 0.950 . S
C1593 C1589 1.393 . S
C1593 C1592 1.391 . S
C1594 H1584 0.950 1_455 S
C1594 C1595 1.386 1_455 S
C1594 C1596 1.391 . S
C1595 C1594 1.386 1_655 S
C1595 C1599 1.393 . S
C1596 H1585 0.950 . S
C1596 C1594 1.391 . S
C1596 C1597 1.400 . S
C1597 C1591 1.491 . S
C1597 C1596 1.400 . S
C1597 C1598 1.398 . S
C1598 H1586 0.950 . S
C1598 C1597 1.398 . S
C1598 C1599 1.391 1_455 S
C1599 H1587 0.950 . S
C1599 C1595 1.393 . S
C1599 C1598 1.391 1_655 S
H1600 C1608 0.950 . S
H1601 C1613 0.950 1_655 S
H1602 C1610 0.950 . S
H1603 C1612 0.950 . S
H1604 C1614 0.950 . S
H1605 C1616 0.950 . S
H1606 C1618 0.950 . S
H1607 C1619 0.950 . S
C1608 H1600 0.950 . S
C1608 C1609 1.386 . S
C1608 C1610 1.391 . S
C1609 C1608 1.386 . S
C1609 C1613 1.393 . S
C1610 H1602 0.950 . S
C1610 C1608 1.391 . S
C1610 C1611 1.400 . S
C1611 C1610 1.400 . S
C1611 C1612 1.398 . S
C1611 C1617 1.491 . S
C1612 H1603 0.950 . S
C1612 C1611 1.398 . S
C1612 C1613 1.391 . S
C1613 H1601 0.950 1_455 S
C1613 C1609 1.393 . S
C1613 C1612 1.391 . S
C1614 H1604 0.950 . S
C1614 C1615 1.386 . S
C1614 C1616 1.391 . S
C1615 C1614 1.386 . S
C1615 C1619 1.393 . S
C1616 H1605 0.950 . S
C1616 C1614 1.391 . S
C1616 C1617 1.400 . S
C1617 C1611 1.491 . S
C1617 C1616 1.400 . S
C1617 C1618 1.398 . S
C1618 H1606 0.950 . S
C1618 C1617 1.398 . S
C1618 C1619 1.391 . S
C1619 H1607 0.950 . S
C1619 C1615 1.393 . S
C1619 C1618 1.391 . S
H1620 C1628 0.950 . S
H1621 C1633 0.950 . S
H1622 C1630 0.950 . S
H1623 C1632 0.950 . S
H1624 C1634 0.950 1_455 S
H1625 C1636 0.950 . S
H1626 C1638 0.950 . S
H1627 C1639 0.950 . S
C1628 H1620 0.950 . S
C1628 C1629 1.386 . S
C1628 C1630 1.391 . S
C1629 C1628 1.386 . S
C1629 C1633 1.393 . S
C1630 H1622 0.950 . S
C1630 C1628 1.391 . S
C1630 C1631 1.400 . S
C1631 C1630 1.400 . S
C1631 C1632 1.398 . S
C1631 C1637 1.491 . S
C1632 H1623 0.950 . S
C1632 C1631 1.398 . S
C1632 C1633 1.391 . S
C1633 H1621 0.950 . S
C1633 C1629 1.393 . S
C1633 C1632 1.391 . S
C1634 H1624 0.950 1_655 S
C1634 C1635 1.386 1_655 S
C1634 C1636 1.391 . S
C1635 C1634 1.386 1_455 S
C1635 C1639 1.393 . S
C1636 H1625 0.950 . S
C1636 C1634 1.391 . S
C1636 C1637 1.400 . S
C1637 C1631 1.491 . S
C1637 C1636 1.400 . S
C1637 C1638 1.398 . S
C1638 H1626 0.950 . S
C1638 C1637 1.398 . S
C1638 C1639 1.391 1_655 S
C1639 H1627 0.950 . S
C1639 C1635 1.393 . S
C1639 C1638 1.391 1_455 S
H1640 C1648 0.950 . S
H1641 C1653 0.950 . S
H1642 C1650 0.950 . S
H1643 C1652 0.950 . S
H1644 C1654 0.950 . S
H1645 C1656 0.950 . S
H1646 C1658 0.950 . S
H1647 C1659 0.950 . S
C1648 H1640 0.950 . S
C1648 C1649 1.386 . S
C1648 C1650 1.391 . S
C1649 C1648 1.386 . S
C1649 C1653 1.393 . S
C1650 H1642 0.950 . S
C1650 C1648 1.391 . S
C1650 C1651 1.400 . S
C1651 C1650 1.400 . S
C1651 C1652 1.398 . S
C1651 C1657 1.491 . S
C1652 H1643 0.950 . S
C1652 C1651 1.398 . S
C1652 C1653 1.391 . S
C1653 H1641 0.950 . S
C1653 C1649 1.393 . S
C1653 C1652 1.391 . S
C1654 H1644 0.950 . S
C1654 C1655 1.386 . S
C1654 C1656 1.391 . S
C1655 C1654 1.386 . S
C1655 C1659 1.393 1_545 S
C1656 H1645 0.950 . S
C1656 C1654 1.391 . S
C1656 C1657 1.400 . S
C1657 C1651 1.491 . S
C1657 C1656 1.400 . S
C1657 C1658 1.398 . S
C1658 H1646 0.950 . S
C1658 C1657 1.398 . S
C1658 C1659 1.391 1_545 S
C1659 H1647 0.950 . S
C1659 C1655 1.393 1_565 S
C1659 C1658 1.391 1_565 S
H1660 C1668 0.949 . S
H1661 C1673 0.950 . S
H1662 C1670 0.950 . S
H1663 C1672 0.950 . S
H1664 C1674 0.950 1_455 S
H1665 C1676 0.950 . S
H1666 C1678 0.950 . S
H1667 C1679 0.950 . S
C1668 H1660 0.949 . S
C1668 C1669 1.386 . S
C1668 C1670 1.391 1_565 S
C1669 C1668 1.386 . S
C1669 C1673 1.393 . S
C1670 H1662 0.950 . S
C1670 C1668 1.391 1_545 S
C1670 C1671 1.400 . S
C1671 C1670 1.400 . S
C1671 C1672 1.398 . S
C1671 C1677 1.491 . S
C1672 H1663 0.950 . S
C1672 C1671 1.398 . S
C1672 C1673 1.391 1_545 S
C1673 H1661 0.950 . S
C1673 C1669 1.393 . S
C1673 C1672 1.391 1_565 S
C1674 H1664 0.950 1_655 S
C1674 C1675 1.386 . S
C1674 C1676 1.391 . S
C1675 C1674 1.386 . S
C1675 C1679 1.393 . S
C1676 H1665 0.950 . S
C1676 C1674 1.391 . S
C1676 C1677 1.400 . S
C1677 C1671 1.491 . S
C1677 C1676 1.400 . S
C1677 C1678 1.398 . S
C1678 H1666 0.950 . S
C1678 C1677 1.398 . S
C1678 C1679 1.391 . S
C1679 H1667 0.950 . S
C1679 C1675 1.393 . S
C1679 C1678 1.391 . S
H1680 C1688 0.950 . S
H1681 C1693 0.950 . S
H1682 C1690 0.950 . S
H1683 C1692 0.950 . S
H1684 C1694 0.950 . S
H1685 C1696 0.950 . S
H1686 C1698 0.950 . S
H1687 C1699 0.950 . S
C1688 H1680 0.950 . S
C1688 C1689 1.386 . S
C1688 C1690 1.391 . S
C1689 C1688 1.386 . S
C1689 C1693 1.393 . S
C1690 H1682 0.950 . S
C1690 C1688 1.391 . S
C1690 C1691 1.400 . S
C1691 C1690 1.400 . S
C1691 C1692 1.398 . S
C1691 C1697 1.491 . S
C1692 H1683 0.950 . S
C1692 C1691 1.398 . S
C1692 C1693 1.391 . S
C1693 H1681 0.950 . S
C1693 C1689 1.393 . S
C1693 C1692 1.391 . S
C1694 H1684 0.950 . S
C1694 C1695 1.386 . S
C1694 C1696 1.391 . S
C1695 C1694 1.386 . S
C1695 C1699 1.393 . S
C1696 H1685 0.950 . S
C1696 C1694 1.391 . S
C1696 C1697 1.400 . S
C1697 C1691 1.491 . S
C1697 C1696 1.400 . S
C1697 C1698 1.398 . S
C1698 H1686 0.950 . S
C1698 C1697 1.398 . S
C1698 C1699 1.391 . S
C1699 H1687 0.950 . S
C1699 C1695 1.393 . S
C1699 C1698 1.391 . S
H1700 C1708 0.950 . S
H1701 C1713 0.950 . S
H1702 C1710 0.950 . S
H1703 C1712 0.950 . S
H1704 C1714 0.950 . S
H1705 C1716 0.950 . S
H1706 C1718 0.950 . S
H1707 C1719 0.950 . S
C1708 H1700 0.950 . S
C1708 C1709 1.386 . S
C1708 C1710 1.391 . S
C1709 C1708 1.386 . S
C1709 C1713 1.393 . S
C1710 H1702 0.950 . S
C1710 C1708 1.391 . S
C1710 C1711 1.400 . S
C1711 C1710 1.400 . S
C1711 C1712 1.398 . S
C1711 C1717 1.491 . S
C1712 H1703 0.950 . S
C1712 C1711 1.398 . S
C1712 C1713 1.391 . S
C1713 H1701 0.950 . S
C1713 C1709 1.393 . S
C1713 C1712 1.391 . S
C1714 H1704 0.950 . S
C1714 C1715 1.386 . S
C1714 C1716 1.391 . S
C1715 C1714 1.386 . S
C1715 C1719 1.393 . S
C1716 H1705 0.950 . S
C1716 C1714 1.391 . S
C1716 C1717 1.400 . S
C1717 C1711 1.491 . S
C1717 C1716 1.400 . S
C1717 C1718 1.398 . S
C1718 H1706 0.950 . S
C1718 C1717 1.398 . S
C1718 C1719 1.391 . S
C1719 H1707 0.950 . S
C1719 C1715 1.393 . S
C1719 C1718 1.391 . S
H1720 C1728 0.950 . S
H1721 C1733 0.950 . S
H1722 C1730 0.950 . S
H1723 C1732 0.950 . S
H1724 C1734 0.950 . S
H1725 C1736 0.950 . S
H1726 C1738 0.950 . S
H1727 C1739 0.950 . S
C1728 H1720 0.950 . S
C1728 C1729 1.386 . S
C1728 C1730 1.391 . S
C1729 C1728 1.386 . S
C1729 C1733 1.393 . S
C1730 H1722 0.950 . S
C1730 C1728 1.391 . S
C1730 C1731 1.400 . S
C1731 C1730 1.400 . S
C1731 C1732 1.398 . S
C1731 C1737 1.491 . S
C1732 H1723 0.950 . S
C1732 C1731 1.398 . S
C1732 C1733 1.391 . S
C1733 H1721 0.950 . S
C1733 C1729 1.393 . S
C1733 C1732 1.391 . S
C1734 H1724 0.950 . S
C1734 C1735 1.386 . S
C1734 C1736 1.391 . S
C1735 C1734 1.386 . S
C1735 C1739 1.393 . S
C1736 H1725 0.950 . S
C1736 C1734 1.391 . S
C1736 C1737 1.400 . S
C1737 C1731 1.491 . S
C1737 C1736 1.400 . S
C1737 C1738 1.398 . S
C1738 H1726 0.950 . S
C1738 C1737 1.398 . S
C1738 C1739 1.391 . S
C1739 H1727 0.950 . S
C1739 C1735 1.393 . S
C1739 C1738 1.391 . S
H1740 C1748 0.950 . S
H1741 C1753 0.950 . S
H1742 C1750 0.950 . S
H1743 C1752 0.950 . S
H1744 C1754 0.950 . S
H1745 C1756 0.950 . S
H1746 C1758 0.950 . S
H1747 C1759 0.950 . S
C1748 H1740 0.950 . S
C1748 C1749 1.386 . S
C1748 C1750 1.391 . S
C1749 C1748 1.386 . S
C1749 C1753 1.393 . S
C1750 H1742 0.950 . S
C1750 C1748 1.391 . S
C1750 C1751 1.400 . S
C1751 C1750 1.400 . S
C1751 C1752 1.398 . S
C1751 C1757 1.491 . S
C1752 H1743 0.950 . S
C1752 C1751 1.398 . S
C1752 C1753 1.391 . S
C1753 H1741 0.950 . S
C1753 C1749 1.393 . S
C1753 C1752 1.391 . S
C1754 H1744 0.950 . S
C1754 C1755 1.386 . S
C1754 C1756 1.391 . S
C1755 C1754 1.386 . S
C1755 C1759 1.393 . S
C1756 H1745 0.950 . S
C1756 C1754 1.391 . S
C1756 C1757 1.400 . S
C1757 C1751 1.491 . S
C1757 C1756 1.400 . S
C1757 C1758 1.398 . S
C1758 H1746 0.950 . S
C1758 C1757 1.398 . S
C1758 C1759 1.391 . S
C1759 H1747 0.950 . S
C1759 C1755 1.393 . S
C1759 C1758 1.391 . S
H1760 C1768 0.950 . S
H1761 C1773 0.950 . S
H1762 C1770 0.950 . S
H1763 C1772 0.950 . S
H1764 C1774 0.950 . S
H1765 C1776 0.950 . S
H1766 C1778 0.950 . S
H1767 C1779 0.950 . S
C1768 H1760 0.950 . S
C1768 C1769 1.386 . S
C1768 C1770 1.391 . S
C1769 C1768 1.386 . S
C1769 C1773 1.393 . S
C1770 H1762 0.950 . S
C1770 C1768 1.391 . S
C1770 C1771 1.400 . S
C1771 C1770 1.400 . S
C1771 C1772 1.398 . S
C1771 C1777 1.491 . S
C1772 H1763 0.950 . S
C1772 C1771 1.398 . S
C1772 C1773 1.391 . S
C1773 H1761 0.950 . S
C1773 C1769 1.393 . S
C1773 C1772 1.391 . S
C1774 H1764 0.950 . S
C1774 C1775 1.386 . S
C1774 C1776 1.391 . S
C1775 C1774 1.386 . S
C1775 C1779 1.393 . S
C1776 H1765 0.950 . S
C1776 C1774 1.391 . S
C1776 C1777 1.400 . S
C1777 C1771 1.491 . S
C1777 C1776 1.400 . S
C1777 C1778 1.398 . S
C1778 H1766 0.950 . S
C1778 C1777 1.398 . S
C1778 C1779 1.391 . S
C1779 H1767 0.950 . S
C1779 C1775 1.393 . S
C1779 C1778 1.391 . S
H1780 C1788 0.950 . S
H1781 C1793 0.950 . S
H1782 C1790 0.950 . S
H1783 C1792 0.950 . S
H1784 C1794 0.950 . S
H1785 C1796 0.950 . S
H1786 C1798 0.950 . S
H1787 C1799 0.950 . S
C1788 H1780 0.950 . S
C1788 C1789 1.386 . S
C1788 C1790 1.391 . S
C1789 C1788 1.386 . S
C1789 C1793 1.393 . S
C1790 H1782 0.950 . S
C1790 C1788 1.391 . S
C1790 C1791 1.400 . S
C1791 C1790 1.400 . S
C1791 C1792 1.398 . S
C1791 C1797 1.491 . S
C1792 H1783 0.950 . S
C1792 C1791 1.398 . S
C1792 C1793 1.391 . S
C1793 H1781 0.950 . S
C1793 C1789 1.393 . S
C1793 C1792 1.391 . S
C1794 H1784 0.950 . S
C1794 C1795 1.386 . S
C1794 C1796 1.391 . S
C1795 C1794 1.386 . S
C1795 C1799 1.393 . S
C1796 H1785 0.950 . S
C1796 C1794 1.391 . S
C1796 C1797 1.400 . S
C1797 C1791 1.491 . S
C1797 C1796 1.400 . S
C1797 C1798 1.398 . S
C1798 H1786 0.950 . S
C1798 C1797 1.398 . S
C1798 C1799 1.391 . S
C1799 H1787 0.950 . S
C1799 C1795 1.393 . S
C1799 C1798 1.391 . S
H1800 C1808 0.950 . S
H1801 C1813 0.950 . S
H1802 C1810 0.950 . S
H1803 C1812 0.950 . S
H1804 C1814 0.950 . S
H1805 C1816 0.950 . S
H1806 C1818 0.950 . S
H1807 C1819 0.950 . S
C1808 H1800 0.950 . S
C1808 C1809 1.386 . S
C1808 C1810 1.391 . S
C1809 C1808 1.386 . S
C1809 C1813 1.393 . S
C1810 H1802 0.950 . S
C1810 C1808 1.391 . S
C1810 C1811 1.400 . S
C1811 C1810 1.400 . S
C1811 C1812 1.398 . S
C1811 C1817 1.491 . S
C1812 H1803 0.950 . S
C1812 C1811 1.398 . S
C1812 C1813 1.391 . S
C1813 H1801 0.950 . S
C1813 C1809 1.393 . S
C1813 C1812 1.391 . S
C1814 H1804 0.950 . S
C1814 C1815 1.386 . S
C1814 C1816 1.391 . S
C1815 C1814 1.386 . S
C1815 C1819 1.393 . S
C1816 H1805 0.950 . S
C1816 C1814 1.391 . S
C1816 C1817 1.400 . S
C1817 C1811 1.491 . S
C1817 C1816 1.400 . S
C1817 C1818 1.398 . S
C1818 H1806 0.950 . S
C1818 C1817 1.398 . S
C1818 C1819 1.391 . S
C1819 H1807 0.950 . S
C1819 C1815 1.393 . S
C1819 C1818 1.391 . S
H1820 C1828 0.950 . S
H1821 C1833 0.950 . S
H1822 C1830 0.950 . S
H1823 C1832 0.950 . S
H1824 C1834 0.950 . S
H1825 C1836 0.950 . S
H1826 C1838 0.950 . S
H1827 C1839 0.950 . S
C1828 H1820 0.950 . S
C1828 C1829 1.386 . S
C1828 C1830 1.391 . S
C1829 C1828 1.386 . S
C1829 C1833 1.393 . S
C1830 H1822 0.950 . S
C1830 C1828 1.391 . S
C1830 C1831 1.400 . S
C1831 C1830 1.400 . S
C1831 C1832 1.398 . S
C1831 C1837 1.491 . S
C1832 H1823 0.950 . S
C1832 C1831 1.398 . S
C1832 C1833 1.391 . S
C1833 H1821 0.950 . S
C1833 C1829 1.393 . S
C1833 C1832 1.391 . S
C1834 H1824 0.950 . S
C1834 C1835 1.386 . S
C1834 C1836 1.391 . S
C1835 C1834 1.386 . S
C1835 C1839 1.393 . S
C1836 H1825 0.950 . S
C1836 C1834 1.391 . S
C1836 C1837 1.400 . S
C1837 C1831 1.491 . S
C1837 C1836 1.400 . S
C1837 C1838 1.398 . S
C1838 H1826 0.950 . S
C1838 C1837 1.398 . S
C1838 C1839 1.391 . S
C1839 H1827 0.950 . S
C1839 C1835 1.393 . S
C1839 C1838 1.391 . S
H1840 C1848 0.950 . S
H1841 C1853 0.950 . S
H1842 C1850 0.950 . S
H1843 C1852 0.950 . S
H1844 C1854 0.950 . S
H1845 C1856 0.950 . S
H1846 C1858 0.950 . S
H1847 C1859 0.950 . S
C1848 H1840 0.950 . S
C1848 C1849 1.386 . S
C1848 C1850 1.391 . S
C1849 C1848 1.386 . S
C1849 C1853 1.393 . S
C1850 H1842 0.950 . S
C1850 C1848 1.391 . S
C1850 C1851 1.400 . S
C1851 C1850 1.400 . S
C1851 C1852 1.398 . S
C1851 C1857 1.491 . S
C1852 H1843 0.950 . S
C1852 C1851 1.398 . S
C1852 C1853 1.391 . S
C1853 H1841 0.950 . S
C1853 C1849 1.393 . S
C1853 C1852 1.391 . S
C1854 H1844 0.950 . S
C1854 C1855 1.386 . S
C1854 C1856 1.391 . S
C1855 C1854 1.386 . S
C1855 C1859 1.393 . S
C1856 H1845 0.950 . S
C1856 C1854 1.391 . S
C1856 C1857 1.400 . S
C1857 C1851 1.491 . S
C1857 C1856 1.400 . S
C1857 C1858 1.398 . S
C1858 H1846 0.950 . S
C1858 C1857 1.398 . S
C1858 C1859 1.391 . S
C1859 H1847 0.950 . S
C1859 C1855 1.393 . S
C1859 C1858 1.391 . S
H1860 C1868 0.950 . S
H1861 C1873 0.909 1_556 S
H1862 C1870 0.950 . S
H1863 C1872 0.935 1_556 S
H1864 C1874 0.950 . S
H1865 C1876 0.950 . S
H1866 C1878 0.950 . S
H1867 C1879 0.950 . S
C1868 H1860 0.950 . S
C1868 C1869 1.386 . S
C1868 C1870 1.391 . S
C1869 C1868 1.386 . S
C1869 C1873 1.436 . S
C1870 H1862 0.950 . S
C1870 C1868 1.391 . S
C1870 C1871 1.400 . S
C1871 C1870 1.400 . S
C1871 C1872 1.413 . S
C1871 C1877 1.491 . S
C1872 H1863 0.935 1_554 S
C1872 C1871 1.413 . S
C1872 C1873 1.389 . S
C1873 H1861 0.909 1_554 S
C1873 C1869 1.436 . S
C1873 C1872 1.389 . S
C1874 H1864 0.950 . S
C1874 C1875 1.357 1_556 S
C1874 C1876 1.391 . S
C1875 C1874 1.357 1_554 S
C1875 C1879 1.434 . S
C1876 H1865 0.950 . S
C1876 C1874 1.391 . S
C1876 C1877 1.400 1_556 S
C1877 C1871 1.491 . S
C1877 C1876 1.400 1_554 S
C1877 C1878 1.398 . S
C1878 H1866 0.950 . S
C1878 C1877 1.398 . S
C1878 C1879 1.391 . S
C1879 H1867 0.950 . S
C1879 C1875 1.434 . S
C1879 C1878 1.391 . S
H1880 C1888 0.950 . S
H1881 C1893 0.950 . S
H1882 C1890 0.964 . S
H1883 C1892 0.950 . S
H1884 C1894 0.950 . S
H1885 C1896 0.950 . S
H1886 C1898 0.949 1_556 S
H1887 C1899 0.959 . S
C1888 H1880 0.950 . S
C1888 C1889 1.367 1_556 S
C1888 C1890 1.397 . S
C1889 C1888 1.367 1_554 S
C1889 C1893 1.424 . S
C1890 H1882 0.964 . S
C1890 C1888 1.397 . S
C1890 C1891 1.385 1_556 S
C1891 C1890 1.385 1_554 S
C1891 C1892 1.398 . S
C1891 C1897 1.491 . S
C1892 H1883 0.950 . S
C1892 C1891 1.398 . S
C1892 C1893 1.391 . S
C1893 H1881 0.950 . S
C1893 C1889 1.424 . S
C1893 C1892 1.391 . S
C1894 H1884 0.950 . S
C1894 C1895 1.386 . S
C1894 C1896 1.391 . S
C1895 C1894 1.386 . S
C1895 C1899 1.393 . S
C1896 H1885 0.950 . S
C1896 C1894 1.391 . S
C1896 C1897 1.400 . S
C1897 C1891 1.491 . S
C1897 C1896 1.400 . S
C1897 C1898 1.398 . S
C1898 H1886 0.949 1_554 S
C1898 C1897 1.398 . S
C1898 C1899 1.391 . S
C1899 H1887 0.959 . S
C1899 C1895 1.393 . S
C1899 C1898 1.391 . S
H1900 C1908 0.950 . S
H1901 C1913 0.950 . S
H1902 C1910 0.950 . S
H1903 C1912 0.950 . S
H1904 C1914 0.950 . S
H1905 C1916 0.950 . S
H1906 C1918 0.950 . S
H1907 C1919 0.950 . S
C1908 H1900 0.950 . S
C1908 C1909 1.386 . S
C1908 C1910 1.391 . S
C1909 C1908 1.386 . S
C1909 C1913 1.393 1_554 S
C1910 H1902 0.950 . S
C1910 C1908 1.391 . S
C1910 C1911 1.400 . S
C1911 C1910 1.400 . S
C1911 C1912 1.398 1_554 S
C1911 C1917 1.491 . S
C1912 H1903 0.950 . S
C1912 C1911 1.398 1_556 S
C1912 C1913 1.391 . S
C1913 H1901 0.950 . S
C1913 C1909 1.393 1_556 S
C1913 C1912 1.391 . S
C1914 H1904 0.950 . S
C1914 C1915 1.386 1_556 S
C1914 C1916 1.391 . S
C1915 C1914 1.386 1_554 S
C1915 C1919 1.393 . S
C1916 H1905 0.950 . S
C1916 C1914 1.391 . S
C1916 C1917 1.400 1_556 S
C1917 C1911 1.491 . S
C1917 C1916 1.400 1_554 S
C1917 C1918 1.398 . S
C1918 H1906 0.950 . S
C1918 C1917 1.398 . S
C1918 C1919 1.391 . S
C1919 H1907 0.950 . S
C1919 C1915 1.393 . S
C1919 C1918 1.391 . S
H1920 C1928 0.950 . S
H1921 C1933 0.950 . S
H1922 C1930 0.950 . S
H1923 C1932 0.950 . S
H1924 C1934 0.950 . S
H1925 C1936 0.950 . S
H1926 C1938 0.950 . S
H1927 C1939 0.950 . S
C1928 H1920 0.950 . S
C1928 C1929 1.386 . S
C1928 C1930 1.391 . S
C1929 C1928 1.386 . S
C1929 C1933 1.393 . S
C1930 H1922 0.950 . S
C1930 C1928 1.391 . S
C1930 C1931 1.400 . S
C1931 C1930 1.400 . S
C1931 C1932 1.398 . S
C1931 C1937 1.491 . S
C1932 H1923 0.950 . S
C1932 C1931 1.398 . S
C1932 C1933 1.391 . S
C1933 H1921 0.950 . S
C1933 C1929 1.393 . S
C1933 C1932 1.391 . S
C1934 H1924 0.950 . S
C1934 C1935 1.386 . S
C1934 C1936 1.391 . S
C1935 C1934 1.386 . S
C1935 C1939 1.393 . S
C1936 H1925 0.950 . S
C1936 C1934 1.391 . S
C1936 C1937 1.400 . S
C1937 C1931 1.491 . S
C1937 C1936 1.400 . S
C1937 C1938 1.398 . S
C1938 H1926 0.950 . S
C1938 C1937 1.398 . S
C1938 C1939 1.391 . S
C1939 H1927 0.950 . S
C1939 C1935 1.393 . S
C1939 C1938 1.391 . S
H1940 C1948 0.950 . S
H1941 C1953 0.950 . S
H1942 C1950 0.950 . S
H1943 C1952 0.950 . S
H1944 C1954 0.950 . S
H1945 C1956 0.950 . S
H1946 C1958 0.950 . S
H1947 C1959 0.950 . S
C1948 H1940 0.950 . S
C1948 C1949 1.386 . S
C1948 C1950 1.391 . S
C1949 C1948 1.386 . S
C1949 C1953 1.393 . S
C1950 H1942 0.950 . S
C1950 C1948 1.391 . S
C1950 C1951 1.400 . S
C1951 C1950 1.400 . S
C1951 C1952 1.398 . S
C1951 C1957 1.491 . S
C1952 H1943 0.950 . S
C1952 C1951 1.398 . S
C1952 C1953 1.391 . S
C1953 H1941 0.950 . S
C1953 C1949 1.393 . S
C1953 C1952 1.391 . S
C1954 H1944 0.950 . S
C1954 C1955 1.386 . S
C1954 C1956 1.391 . S
C1955 C1954 1.386 . S
C1955 C1959 1.393 . S
C1956 H1945 0.950 . S
C1956 C1954 1.391 . S
C1956 C1957 1.400 . S
C1957 C1951 1.491 . S
C1957 C1956 1.400 . S
C1957 C1958 1.398 . S
C1958 H1946 0.950 . S
C1958 C1957 1.398 . S
C1958 C1959 1.391 . S
C1959 H1947 0.950 . S
C1959 C1955 1.393 . S
C1959 C1958 1.391 . S
H1960 C1968 0.950 . S
H1961 C1973 0.950 . S
H1962 C1970 0.950 . S
H1963 C1972 0.950 . S
H1964 C1974 0.950 . S
H1965 C1976 0.950 . S
H1966 C1978 0.950 . S
H1967 C1979 0.950 . S
C1968 H1960 0.950 . S
C1968 C1969 1.386 . S
C1968 C1970 1.391 . S
C1969 C1968 1.386 . S
C1969 C1973 1.393 . S
C1970 H1962 0.950 . S
C1970 C1968 1.391 . S
C1970 C1971 1.400 . S
C1971 C1970 1.400 . S
C1971 C1972 1.398 . S
C1971 C1977 1.491 . S
C1972 H1963 0.950 . S
C1972 C1971 1.398 . S
C1972 C1973 1.391 . S
C1973 H1961 0.950 . S
C1973 C1969 1.393 . S
C1973 C1972 1.391 . S
C1974 H1964 0.950 . S
C1974 C1975 1.386 . S
C1974 C1976 1.391 . S
C1975 C1974 1.386 . S
C1975 C1979 1.393 . S
C1976 H1965 0.950 . S
C1976 C1974 1.391 . S
C1976 C1977 1.400 . S
C1977 C1971 1.491 . S
C1977 C1976 1.400 . S
C1977 C1978 1.398 . S
C1978 H1966 0.950 . S
C1978 C1977 1.398 . S
C1978 C1979 1.391 . S
C1979 H1967 0.950 . S
C1979 C1975 1.393 . S
C1979 C1978 1.391 . S
H1980 C1988 0.950 . S
H1981 C1993 0.950 . S
H1982 C1990 0.950 . S
H1983 C1992 0.950 . S
H1984 C1994 0.950 . S
H1985 C1996 0.950 . S
H1986 C1998 0.950 . S
H1987 C1999 0.950 . S
C1988 H1980 0.950 . S
C1988 C1989 1.386 1_554 S
C1988 C1990 1.391 . S
C1989 C1988 1.386 1_556 S
C1989 C1993 1.393 . S
C1990 H1982 0.950 . S
C1990 C1988 1.391 . S
C1990 C1991 1.400 1_554 S
C1991 C1990 1.400 1_556 S
C1991 C1992 1.398 . S
C1991 C1997 1.491 . S
C1992 H1983 0.950 . S
C1992 C1991 1.398 . S
C1992 C1993 1.391 . S
C1993 H1981 0.950 . S
C1993 C1989 1.393 . S
C1993 C1992 1.391 . S
C1994 H1984 0.950 . S
C1994 C1995 1.386 . S
C1994 C1996 1.391 . S
C1995 C1994 1.386 . S
C1995 C1999 1.393 1_556 S
C1996 H1985 0.950 . S
C1996 C1994 1.391 . S
C1996 C1997 1.400 . S
C1997 C1991 1.491 . S
C1997 C1996 1.400 . S
C1997 C1998 1.398 1_556 S
C1998 H1986 0.950 . S
C1998 C1997 1.398 1_554 S
C1998 C1999 1.391 . S
C1999 H1987 0.950 . S
C1999 C1995 1.393 1_554 S
C1999 C1998 1.391 . S
H2000 C2008 0.950 . S
H2001 C2013 0.950 . S
H2002 C2010 0.950 . S
H2003 C2012 0.950 . S
H2004 C2014 0.950 . S
H2005 C2016 0.950 . S
H2006 C2018 0.950 . S
H2007 C2019 0.950 . S
C2008 H2000 0.950 . S
C2008 C2009 1.386 1_554 S
C2008 C2010 1.391 . S
C2009 C2008 1.386 1_556 S
C2009 C2013 1.393 . S
C2010 H2002 0.950 . S
C2010 C2008 1.391 . S
C2010 C2011 1.400 1_554 S
C2011 C2010 1.400 1_556 S
C2011 C2012 1.398 . S
C2011 C2017 1.491 . S
C2012 H2003 0.950 . S
C2012 C2011 1.398 . S
C2012 C2013 1.391 . S
C2013 H2001 0.950 . S
C2013 C2009 1.393 . S
C2013 C2012 1.391 . S
C2014 H2004 0.950 . S
C2014 C2015 1.386 . S
C2014 C2016 1.391 . S
C2015 C2014 1.386 . S
C2015 C2019 1.393 1_556 S
C2016 H2005 0.950 . S
C2016 C2014 1.391 . S
C2016 C2017 1.400 . S
C2017 C2011 1.491 . S
C2017 C2016 1.400 . S
C2017 C2018 1.398 1_556 S
C2018 H2006 0.950 . S
C2018 C2017 1.398 1_554 S
C2018 C2019 1.391 . S
C2019 H2007 0.950 . S
C2019 C2015 1.393 1_554 S
C2019 C2018 1.391 . S
H2020 C2028 0.950 . S
H2021 C2033 0.975 . S
H2022 C2030 0.950 . S
H2023 C2032 0.948 . S
H2024 C2034 0.920 1_554 S
H2025 C2036 0.940 1_554 S
H2026 C2038 0.950 . S
H2027 C2039 0.950 . S
C2028 H2020 0.950 . S
C2028 C2029 1.386 . S
C2028 C2030 1.391 . S
C2029 C2028 1.386 . S
C2029 C2033 1.377 1_556 S
C2030 H2022 0.950 . S
C2030 C2028 1.391 . S
C2030 C2031 1.400 . S
C2031 C2030 1.400 . S
C2031 C2032 1.401 1_556 S
C2031 C2037 1.491 . S
C2032 H2023 0.948 . S
C2032 C2031 1.401 1_554 S
C2032 C2033 1.388 . S
C2033 H2021 0.975 . S
C2033 C2029 1.377 1_554 S
C2033 C2032 1.388 . S
C2034 H2024 0.920 1_556 S
C2034 C2035 1.417 . S
C2034 C2036 1.390 . S
C2035 C2034 1.417 . S
C2035 C2039 1.393 . S
C2036 H2025 0.940 1_556 S
C2036 C2034 1.390 . S
C2036 C2037 1.409 . S
C2037 C2031 1.491 . S
C2037 C2036 1.409 . S
C2037 C2038 1.398 . S
C2038 H2026 0.950 . S
C2038 C2037 1.398 . S
C2038 C2039 1.391 . S
C2039 H2027 0.950 . S
C2039 C2035 1.393 . S
C2039 C2038 1.391 . S
H2040 C2048 0.950 . S
H2041 C2053 0.950 . S
H2042 C2050 0.950 . S
H2043 C2052 0.950 . S
H2044 C2054 0.950 . S
H2045 C2056 0.950 . S
H2046 C2058 0.950 . S
H2047 C2059 0.950 . S
C2048 H2040 0.950 . S
C2048 C2049 1.386 . S
C2048 C2050 1.391 . S
C2049 C2048 1.386 . S
C2049 C2053 1.393 . S
C2050 H2042 0.950 . S
C2050 C2048 1.391 . S
C2050 C2051 1.400 . S
C2051 C2050 1.400 . S
C2051 C2052 1.398 . S
C2051 C2057 1.491 . S
C2052 H2043 0.950 . S
C2052 C2051 1.398 . S
C2052 C2053 1.391 . S
C2053 H2041 0.950 . S
C2053 C2049 1.393 . S
C2053 C2052 1.391 . S
C2054 H2044 0.950 . S
C2054 C2055 1.386 . S
C2054 C2056 1.391 . S
C2055 C2054 1.386 . S
C2055 C2059 1.393 . S
C2056 H2045 0.950 . S
C2056 C2054 1.391 . S
C2056 C2057 1.400 . S
C2057 C2051 1.491 . S
C2057 C2056 1.400 . S
C2057 C2058 1.398 . S
C2058 H2046 0.950 . S
C2058 C2057 1.398 . S
C2058 C2059 1.391 . S
C2059 H2047 0.950 . S
C2059 C2055 1.393 . S
C2059 C2058 1.391 . S
H2060 C2068 0.950 . S
H2061 C2073 0.950 . S
H2062 C2070 0.950 . S
H2063 C2072 0.950 . S
H2064 C2074 0.950 . S
H2065 C2076 0.950 . S
H2066 C2078 0.950 . S
H2067 C2079 0.950 . S
C2068 H2060 0.950 . S
C2068 C2069 1.386 . S
C2068 C2070 1.391 . S
C2069 C2068 1.386 . S
C2069 C2073 1.393 . S
C2070 H2062 0.950 . S
C2070 C2068 1.391 . S
C2070 C2071 1.400 . S
C2071 C2070 1.400 . S
C2071 C2072 1.398 . S
C2071 C2077 1.491 . S
C2072 H2063 0.950 . S
C2072 C2071 1.398 . S
C2072 C2073 1.391 . S
C2073 H2061 0.950 . S
C2073 C2069 1.393 . S
C2073 C2072 1.391 . S
C2074 H2064 0.950 . S
C2074 C2075 1.386 . S
C2074 C2076 1.391 . S
C2075 C2074 1.386 . S
C2075 C2079 1.393 . S
C2076 H2065 0.950 . S
C2076 C2074 1.391 . S
C2076 C2077 1.400 . S
C2077 C2071 1.491 . S
C2077 C2076 1.400 . S
C2077 C2078 1.398 . S
C2078 H2066 0.950 . S
C2078 C2077 1.398 . S
C2078 C2079 1.391 . S
C2079 H2067 0.950 . S
C2079 C2075 1.393 . S
C2079 C2078 1.391 . S
H2080 C2088 0.950 . S
H2081 C2093 0.950 . S
H2082 C2090 0.950 . S
H2083 C2092 0.950 . S
H2084 C2094 0.950 . S
H2085 C2096 0.950 . S
H2086 C2098 0.950 . S
H2087 C2099 0.950 . S
C2088 H2080 0.950 . S
C2088 C2089 1.386 . S
C2088 C2090 1.391 . S
C2089 C2088 1.386 . S
C2089 C2093 1.393 . S
C2090 H2082 0.950 . S
C2090 C2088 1.391 . S
C2090 C2091 1.400 . S
C2091 C2090 1.400 . S
C2091 C2092 1.398 . S
C2091 C2097 1.491 . S
C2092 H2083 0.950 . S
C2092 C2091 1.398 . S
C2092 C2093 1.391 . S
C2093 H2081 0.950 . S
C2093 C2089 1.393 . S
C2093 C2092 1.391 . S
C2094 H2084 0.950 . S
C2094 C2095 1.386 . S
C2094 C2096 1.391 . S
C2095 C2094 1.386 . S
C2095 C2099 1.393 . S
C2096 H2085 0.950 . S
C2096 C2094 1.391 . S
C2096 C2097 1.400 . S
C2097 C2091 1.491 . S
C2097 C2096 1.400 . S
C2097 C2098 1.398 . S
C2098 H2086 0.950 . S
C2098 C2097 1.398 . S
C2098 C2099 1.391 . S
C2099 H2087 0.950 . S
C2099 C2095 1.393 . S
C2099 C2098 1.391 . S
H2100 C2108 0.950 . S
H2101 C2113 0.950 . S
H2102 C2110 0.950 . S
H2103 C2112 0.950 . S
H2104 C2114 0.950 . S
H2105 C2116 0.950 . S
H2106 C2118 0.950 . S
H2107 C2119 0.950 . S
C2108 H2100 0.950 . S
C2108 C2109 1.386 . S
C2108 C2110 1.391 . S
C2109 C2108 1.386 . S
C2109 C2113 1.393 . S
C2110 H2102 0.950 . S
C2110 C2108 1.391 . S
C2110 C2111 1.400 . S
C2111 C2110 1.400 . S
C2111 C2112 1.398 . S
C2111 C2117 1.491 . S
C2112 H2103 0.950 . S
C2112 C2111 1.398 . S
C2112 C2113 1.391 . S
C2113 H2101 0.950 . S
C2113 C2109 1.393 . S
C2113 C2112 1.391 . S
C2114 H2104 0.950 . S
C2114 C2115 1.386 . S
C2114 C2116 1.391 . S
C2115 C2114 1.386 . S
C2115 C2119 1.393 . S
C2116 H2105 0.950 . S
C2116 C2114 1.391 . S
C2116 C2117 1.400 . S
C2117 C2111 1.491 . S
C2117 C2116 1.400 . S
C2117 C2118 1.398 . S
C2118 H2106 0.950 . S
C2118 C2117 1.398 . S
C2118 C2119 1.391 . S
C2119 H2107 0.950 . S
C2119 C2115 1.393 . S
C2119 C2118 1.391 . S
H2120 C2128 0.950 . S
H2121 C2133 0.950 . S
H2122 C2130 0.950 . S
H2123 C2132 0.950 . S
H2124 C2134 0.950 . S
H2125 C2136 0.950 . S
H2126 C2138 0.950 . S
H2127 C2139 0.950 . S
C2128 H2120 0.950 . S
C2128 C2129 1.386 . S
C2128 C2130 1.391 . S
C2129 C2128 1.386 . S
C2129 C2133 1.393 . S
C2130 H2122 0.950 . S
C2130 C2128 1.391 . S
C2130 C2131 1.400 . S
C2131 C2130 1.400 . S
C2131 C2132 1.398 . S
C2131 C2137 1.491 . S
C2132 H2123 0.950 . S
C2132 C2131 1.398 . S
C2132 C2133 1.391 . S
C2133 H2121 0.950 . S
C2133 C2129 1.393 . S
C2133 C2132 1.391 . S
C2134 H2124 0.950 . S
C2134 C2135 1.386 . S
C2134 C2136 1.391 . S
C2135 C2134 1.386 . S
C2135 C2139 1.393 . S
C2136 H2125 0.950 . S
C2136 C2134 1.391 . S
C2136 C2137 1.400 . S
C2137 C2131 1.491 . S
C2137 C2136 1.400 . S
C2137 C2138 1.398 . S
C2138 H2126 0.950 . S
C2138 C2137 1.398 . S
C2138 C2139 1.391 . S
C2139 H2127 0.950 . S
C2139 C2135 1.393 . S
C2139 C2138 1.391 . S
H2140 C2148 0.950 . S
H2141 C2153 0.950 . S
H2142 C2150 0.950 . S
H2143 C2152 0.950 . S
H2144 C2154 0.950 . S
H2145 C2156 0.950 . S
H2146 C2158 0.950 . S
H2147 C2159 0.950 . S
C2148 H2140 0.950 . S
C2148 C2149 1.386 . S
C2148 C2150 1.391 . S
C2149 C2148 1.386 . S
C2149 C2153 1.393 . S
C2150 H2142 0.950 . S
C2150 C2148 1.391 . S
C2150 C2151 1.400 . S
C2151 C2150 1.400 . S
C2151 C2152 1.398 . S
C2151 C2157 1.491 . S
C2152 H2143 0.950 . S
C2152 C2151 1.398 . S
C2152 C2153 1.391 . S
C2153 H2141 0.950 . S
C2153 C2149 1.393 . S
C2153 C2152 1.391 . S
C2154 H2144 0.950 . S
C2154 C2155 1.386 . S
C2154 C2156 1.391 . S
C2155 C2154 1.386 . S
C2155 C2159 1.393 . S
C2156 H2145 0.950 . S
C2156 C2154 1.391 . S
C2156 C2157 1.400 . S
C2157 C2151 1.491 . S
C2157 C2156 1.400 . S
C2157 C2158 1.398 . S
C2158 H2146 0.950 . S
C2158 C2157 1.398 . S
C2158 C2159 1.391 . S
C2159 H2147 0.950 . S
C2159 C2155 1.393 . S
C2159 C2158 1.391 . S
H2160 C2168 0.950 . S
H2161 C2173 0.950 . S
H2162 C2170 0.950 . S
H2163 C2172 0.950 . S
H2164 C2174 0.950 . S
H2165 C2176 0.950 . S
H2166 C2178 0.950 . S
H2167 C2179 0.950 . S
C2168 H2160 0.950 . S
C2168 C2169 1.386 . S
C2168 C2170 1.391 . S
C2169 C2168 1.386 . S
C2169 C2173 1.393 . S
C2170 H2162 0.950 . S
C2170 C2168 1.391 . S
C2170 C2171 1.400 . S
C2171 C2170 1.400 . S
C2171 C2172 1.398 . S
C2171 C2177 1.491 . S
C2172 H2163 0.950 . S
C2172 C2171 1.398 . S
C2172 C2173 1.391 . S
C2173 H2161 0.950 . S
C2173 C2169 1.393 . S
C2173 C2172 1.391 . S
C2174 H2164 0.950 . S
C2174 C2175 1.386 . S
C2174 C2176 1.391 . S
C2175 C2174 1.386 . S
C2175 C2179 1.393 . S
C2176 H2165 0.950 . S
C2176 C2174 1.391 . S
C2176 C2177 1.400 . S
C2177 C2171 1.491 . S
C2177 C2176 1.400 . S
C2177 C2178 1.398 . S
C2178 H2166 0.950 . S
C2178 C2177 1.398 . S
C2178 C2179 1.391 . S
C2179 H2167 0.950 . S
C2179 C2175 1.393 . S
C2179 C2178 1.391 . S
H2180 C2188 0.950 . S
H2181 C2193 0.950 1_545 S
H2182 C2190 0.950 . S
H2183 C2192 0.950 . S
H2184 C2194 0.950 . S
H2185 C2196 0.950 . S
H2186 C2198 0.950 . S
H2187 C2199 0.950 . S
C2188 H2180 0.950 . S
C2188 C2189 1.386 . S
C2188 C2190 1.391 1_545 S
C2189 C2188 1.386 . S
C2189 C2193 1.393 1_545 S
C2190 H2182 0.950 . S
C2190 C2188 1.391 1_565 S
C2190 C2191 1.400 . S
C2191 C2190 1.400 . S
C2191 C2192 1.398 . S
C2191 C2197 1.491 . S
C2192 H2183 0.950 . S
C2192 C2191 1.398 . S
C2192 C2193 1.391 . S
C2193 H2181 0.950 1_565 S
C2193 C2189 1.393 1_565 S
C2193 C2192 1.391 . S
C2194 H2184 0.950 . S
C2194 C2195 1.386 . S
C2194 C2196 1.391 . S
C2195 C2194 1.386 . S
C2195 C2199 1.393 . S
C2196 H2185 0.950 . S
C2196 C2194 1.391 . S
C2196 C2197 1.400 . S
C2197 C2191 1.491 . S
C2197 C2196 1.400 . S
C2197 C2198 1.398 . S
C2198 H2186 0.950 . S
C2198 C2197 1.398 . S
C2198 C2199 1.391 . S
C2199 H2187 0.950 . S
C2199 C2195 1.393 . S
C2199 C2198 1.391 . S
H2200 C2208 0.950 . S
H2201 C2213 0.950 . S
H2202 C2210 0.950 . S
H2203 C2212 0.950 . S
H2204 C2214 0.950 . S
H2205 C2216 0.950 . S
H2206 C2218 0.950 . S
H2207 C2219 0.950 . S
C2208 H2200 0.950 . S
C2208 C2209 1.386 . S
C2208 C2210 1.391 . S
C2209 C2208 1.386 . S
C2209 C2213 1.393 . S
C2210 H2202 0.950 . S
C2210 C2208 1.391 . S
C2210 C2211 1.400 . S
C2211 C2210 1.400 . S
C2211 C2212 1.398 . S
C2211 C2217 1.491 . S
C2212 H2203 0.950 . S
C2212 C2211 1.398 . S
C2212 C2213 1.391 . S
C2213 H2201 0.950 . S
C2213 C2209 1.393 . S
C2213 C2212 1.391 . S
C2214 H2204 0.950 . S
C2214 C2215 1.386 . S
C2214 C2216 1.391 . S
C2215 C2214 1.386 . S
C2215 C2219 1.393 1_655 S
C2216 H2205 0.950 . S
C2216 C2214 1.391 . S
C2216 C2217 1.400 1_655 S
C2217 C2211 1.491 . S
C2217 C2216 1.400 1_455 S
C2217 C2218 1.398 . S
C2218 H2206 0.950 . S
C2218 C2217 1.398 . S
C2218 C2219 1.391 . S
C2219 H2207 0.950 . S
C2219 C2215 1.393 1_455 S
C2219 C2218 1.391 . S
H2220 C2228 0.950 . S
H2221 C2233 0.950 . S
H2222 C2230 0.950 . S
H2223 C2232 0.950 . S
H2224 C2234 0.950 . S
H2225 C2236 0.950 . S
H2226 C2238 0.950 . S
H2227 C2239 0.950 . S
C2228 H2220 0.950 . S
C2228 C2229 1.386 . S
C2228 C2230 1.391 . S
C2229 C2228 1.386 . S
C2229 C2233 1.393 . S
C2230 H2222 0.950 . S
C2230 C2228 1.391 . S
C2230 C2231 1.400 . S
C2231 C2230 1.400 . S
C2231 C2232 1.398 . S
C2231 C2237 1.491 . S
C2232 H2223 0.950 . S
C2232 C2231 1.398 . S
C2232 C2233 1.391 . S
C2233 H2221 0.950 . S
C2233 C2229 1.393 . S
C2233 C2232 1.391 . S
C2234 H2224 0.950 . S
C2234 C2235 1.386 . S
C2234 C2236 1.391 . S
C2235 C2234 1.386 . S
C2235 C2239 1.393 . S
C2236 H2225 0.950 . S
C2236 C2234 1.391 . S
C2236 C2237 1.400 . S
C2237 C2231 1.491 . S
C2237 C2236 1.400 . S
C2237 C2238 1.398 . S
C2238 H2226 0.950 . S
C2238 C2237 1.398 . S
C2238 C2239 1.391 . S
C2239 H2227 0.950 . S
C2239 C2235 1.393 . S
C2239 C2238 1.391 . S
H2240 C2248 0.950 . S
H2241 C2253 0.950 . S
H2242 C2250 0.950 . S
H2243 C2252 0.950 . S
H2244 C2254 0.950 . S
H2245 C2256 0.950 1_565 S
H2246 C2258 0.950 . S
H2247 C2259 0.950 . S
C2248 H2240 0.950 . S
C2248 C2249 1.386 1_545 S
C2248 C2250 1.391 . S
C2249 C2248 1.386 1_565 S
C2249 C2253 1.393 . S
C2250 H2242 0.950 . S
C2250 C2248 1.391 . S
C2250 C2251 1.400 . S
C2251 C2250 1.400 . S
C2251 C2252 1.398 1_545 S
C2251 C2257 1.491 . S
C2252 H2243 0.950 . S
C2252 C2251 1.398 1_565 S
C2252 C2253 1.391 . S
C2253 H2241 0.950 . S
C2253 C2249 1.393 . S
C2253 C2252 1.391 . S
C2254 H2244 0.950 . S
C2254 C2255 1.386 . S
C2254 C2256 1.391 . S
C2255 C2254 1.386 . S
C2255 C2259 1.393 . S
C2256 H2245 0.950 1_545 S
C2256 C2254 1.391 . S
C2256 C2257 1.400 . S
C2257 C2251 1.491 . S
C2257 C2256 1.400 . S
C2257 C2258 1.398 . S
C2258 H2246 0.950 . S
C2258 C2257 1.398 . S
C2258 C2259 1.391 . S
C2259 H2247 0.950 . S
C2259 C2255 1.393 . S
C2259 C2258 1.391 . S
H2260 C2268 0.950 . S
H2261 C2273 0.950 . S
H2262 C2270 0.950 . S
H2263 C2272 0.950 1_455 S
H2264 C2274 0.950 . S
H2265 C2276 0.950 . S
H2266 C2278 0.950 . S
H2267 C2279 0.950 . S
C2268 H2260 0.950 . S
C2268 C2269 1.386 . S
C2268 C2270 1.391 . S
C2269 C2268 1.386 . S
C2269 C2273 1.393 . S
C2270 H2262 0.950 . S
C2270 C2268 1.391 . S
C2270 C2271 1.400 . S
C2271 C2270 1.400 . S
C2271 C2272 1.398 . S
C2271 C2277 1.491 . S
C2272 H2263 0.950 1_655 S
C2272 C2271 1.398 . S
C2272 C2273 1.391 . S
C2273 H2261 0.950 . S
C2273 C2269 1.393 . S
C2273 C2272 1.391 . S
C2274 H2264 0.950 . S
C2274 C2275 1.386 . S
C2274 C2276 1.391 . S
C2275 C2274 1.386 . S
C2275 C2279 1.393 1_455 S
C2276 H2265 0.950 . S
C2276 C2274 1.391 . S
C2276 C2277 1.400 1_455 S
C2277 C2271 1.491 . S
C2277 C2276 1.400 1_655 S
C2277 C2278 1.398 . S
C2278 H2266 0.950 . S
C2278 C2277 1.398 . S
C2278 C2279 1.391 . S
C2279 H2267 0.950 . S
C2279 C2275 1.393 1_655 S
C2279 C2278 1.391 . S
H2280 C2288 0.950 . S
H2281 C2293 0.950 . S
H2282 C2290 0.950 . S
H2283 C2292 0.950 . S
H2284 C2294 0.950 . S
H2285 C2296 0.950 . S
H2286 C2298 0.950 . S
H2287 C2299 0.950 . S
C2288 H2280 0.950 . S
C2288 C2289 1.386 . S
C2288 C2290 1.391 . S
C2289 C2288 1.386 . S
C2289 C2293 1.393 . S
C2290 H2282 0.950 . S
C2290 C2288 1.391 . S
C2290 C2291 1.400 . S
C2291 C2290 1.400 . S
C2291 C2292 1.398 . S
C2291 C2297 1.491 . S
C2292 H2283 0.950 . S
C2292 C2291 1.398 . S
C2292 C2293 1.391 . S
C2293 H2281 0.950 . S
C2293 C2289 1.393 . S
C2293 C2292 1.391 . S
C2294 H2284 0.950 . S
C2294 C2295 1.386 . S
C2294 C2296 1.391 . S
C2295 C2294 1.386 . S
C2295 C2299 1.393 . S
C2296 H2285 0.950 . S
C2296 C2294 1.391 . S
C2296 C2297 1.400 . S
C2297 C2291 1.491 . S
C2297 C2296 1.400 . S
C2297 C2298 1.398 . S
C2298 H2286 0.950 . S
C2298 C2297 1.398 . S
C2298 C2299 1.391 . S
C2299 H2287 0.950 . S
C2299 C2295 1.393 . S
C2299 C2298 1.391 . S
H2300 C2308 0.950 . S
H2301 C2313 0.950 . S
H2302 C2310 0.950 . S
H2303 C2312 0.950 1_565 S
H2304 C2314 0.950 . S
H2305 C2316 0.950 . S
H2306 C2318 0.950 . S
H2307 C2319 0.950 . S
C2308 H2300 0.950 . S
C2308 C2309 1.386 . S
C2308 C2310 1.391 . S
C2309 C2308 1.386 . S
C2309 C2313 1.393 . S
C2310 H2302 0.950 . S
C2310 C2308 1.391 . S
C2310 C2311 1.400 . S
C2311 C2310 1.400 . S
C2311 C2312 1.398 . S
C2311 C2317 1.491 . S
C2312 H2303 0.950 1_545 S
C2312 C2311 1.398 . S
C2312 C2313 1.391 . S
C2313 H2301 0.950 . S
C2313 C2309 1.393 . S
C2313 C2312 1.391 . S
C2314 H2304 0.950 . S
C2314 C2315 1.386 . S
C2314 C2316 1.391 . S
C2315 C2314 1.386 . S
C2315 C2319 1.393 1_565 S
C2316 H2305 0.950 . S
C2316 C2314 1.391 . S
C2316 C2317 1.400 1_565 S
C2317 C2311 1.491 . S
C2317 C2316 1.400 1_545 S
C2317 C2318 1.398 . S
C2318 H2306 0.950 . S
C2318 C2317 1.398 . S
C2318 C2319 1.391 . S
C2319 H2307 0.950 . S
C2319 C2315 1.393 1_545 S
C2319 C2318 1.391 . S
H2320 C2328 0.950 . S
H2321 C2333 0.950 . S
H2322 C2330 0.950 1_455 S
H2323 C2332 0.950 . S
H2324 C2334 0.950 . S
H2325 C2336 0.950 . S
H2326 C2338 0.950 . S
H2327 C2339 0.950 . S
C2328 H2320 0.950 . S
C2328 C2329 1.386 . S
C2328 C2330 1.391 . S
C2329 C2328 1.386 . S
C2329 C2333 1.393 . S
C2330 H2322 0.950 1_655 S
C2330 C2328 1.391 . S
C2330 C2331 1.400 . S
C2331 C2330 1.400 . S
C2331 C2332 1.398 . S
C2331 C2337 1.491 . S
C2332 H2323 0.950 . S
C2332 C2331 1.398 . S
C2332 C2333 1.391 . S
C2333 H2321 0.950 . S
C2333 C2329 1.393 . S
C2333 C2332 1.391 . S
C2334 H2324 0.950 . S
C2334 C2335 1.386 1_655 S
C2334 C2336 1.391 . S
C2335 C2334 1.386 1_455 S
C2335 C2339 1.393 . S
C2336 H2325 0.950 . S
C2336 C2334 1.391 . S
C2336 C2337 1.400 . S
C2337 C2331 1.491 . S
C2337 C2336 1.400 . S
C2337 C2338 1.398 1_655 S
C2338 H2326 0.950 . S
C2338 C2337 1.398 1_455 S
C2338 C2339 1.391 . S
C2339 H2327 0.950 . S
C2339 C2335 1.393 . S
C2339 C2338 1.391 . S
H2340 C2348 0.950 . S
H2341 C2353 0.950 . S
H2342 C2350 0.950 . S
H2343 C2352 0.950 . S
H2344 C2354 0.950 . S
H2345 C2356 0.950 . S
H2346 C2358 0.950 . S
H2347 C2359 0.950 . S
C2348 H2340 0.950 . S
C2348 C2349 1.386 . S
C2348 C2350 1.391 . S
C2349 C2348 1.386 . S
C2349 C2353 1.393 . S
C2350 H2342 0.950 . S
C2350 C2348 1.391 . S
C2350 C2351 1.400 . S
C2351 C2350 1.400 . S
C2351 C2352 1.398 . S
C2351 C2357 1.491 . S
C2352 H2343 0.950 . S
C2352 C2351 1.398 . S
C2352 C2353 1.391 . S
C2353 H2341 0.950 . S
C2353 C2349 1.393 . S
C2353 C2352 1.391 . S
C2354 H2344 0.950 . S
C2354 C2355 1.386 . S
C2354 C2356 1.391 . S
C2355 C2354 1.386 . S
C2355 C2359 1.393 . S
C2356 H2345 0.950 . S
C2356 C2354 1.391 . S
C2356 C2357 1.400 . S
C2357 C2351 1.491 . S
C2357 C2356 1.400 . S
C2357 C2358 1.398 . S
C2358 H2346 0.950 . S
C2358 C2357 1.398 . S
C2358 C2359 1.391 . S
C2359 H2347 0.950 . S
C2359 C2355 1.393 . S
C2359 C2358 1.391 . S
H2360 C2368 0.950 . S
H2361 C2373 0.950 . S
H2362 C2370 0.950 . S
H2363 C2372 0.950 . S
H2364 C2374 0.950 . S
H2365 C2376 0.950 . S
H2366 C2378 0.950 1_545 S
H2367 C2379 0.950 . S
C2368 H2360 0.950 . S
C2368 C2369 1.386 . S
C2368 C2370 1.391 . S
C2369 C2368 1.386 . S
C2369 C2373 1.393 1_545 S
C2370 H2362 0.950 . S
C2370 C2368 1.391 . S
C2370 C2371 1.400 1_545 S
C2371 C2370 1.400 1_565 S
C2371 C2372 1.398 . S
C2371 C2377 1.491 . S
C2372 H2363 0.950 . S
C2372 C2371 1.398 . S
C2372 C2373 1.391 . S
C2373 H2361 0.950 . S
C2373 C2369 1.393 1_565 S
C2373 C2372 1.391 . S
C2374 H2364 0.950 . S
C2374 C2375 1.386 . S
C2374 C2376 1.391 . S
C2375 C2374 1.386 . S
C2375 C2379 1.393 . S
C2376 H2365 0.950 . S
C2376 C2374 1.391 . S
C2376 C2377 1.400 . S
C2377 C2371 1.491 . S
C2377 C2376 1.400 . S
C2377 C2378 1.398 . S
C2378 H2366 0.950 1_565 S
C2378 C2377 1.398 . S
C2378 C2379 1.391 . S
C2379 H2367 0.950 . S
C2379 C2375 1.393 . S
C2379 C2378 1.391 . S
H2380 C2388 0.950 . S
H2381 C2393 0.950 . S
H2382 C2390 0.952 1_655 S
H2383 C2392 0.950 . S
H2384 C2394 0.950 . S
H2385 C2396 0.950 . S
H2386 C2398 0.950 . S
H2387 C2399 0.950 . S
C2388 H2380 0.950 . S
C2388 C2389 1.386 . S
C2388 C2390 1.380 1_655 S
C2389 C2388 1.386 . S
C2389 C2393 1.393 1_655 S
C2390 H2382 0.952 1_455 S
C2390 C2388 1.380 1_455 S
C2390 C2391 1.409 . S
C2391 C2390 1.409 . S
C2391 C2392 1.398 . S
C2391 C2397 1.491 . S
C2392 H2383 0.950 . S
C2392 C2391 1.398 . S
C2392 C2393 1.391 . S
C2393 H2381 0.950 . S
C2393 C2389 1.393 1_455 S
C2393 C2392 1.391 . S
C2394 H2384 0.950 . S
C2394 C2395 1.386 . S
C2394 C2396 1.391 . S
C2395 C2394 1.386 . S
C2395 C2399 1.393 . S
C2396 H2385 0.950 . S
C2396 C2394 1.391 . S
C2396 C2397 1.400 . S
C2397 C2391 1.491 . S
C2397 C2396 1.400 . S
C2397 C2398 1.398 . S
C2398 H2386 0.950 . S
C2398 C2397 1.398 . S
C2398 C2399 1.391 . S
C2399 H2387 0.950 . S
C2399 C2395 1.393 . S
C2399 C2398 1.391 . S
H2400 C2408 0.950 . S
H2401 C2413 0.950 . S
H2402 C2410 0.950 . S
H2403 C2412 0.939 1_455 S
H2404 C2414 0.950 . S
H2405 C2416 0.950 . S
H2406 C2418 0.950 . S
H2407 C2419 0.950 . S
C2408 H2400 0.950 . S
C2408 C2409 1.386 . S
C2408 C2410 1.391 . S
C2409 C2408 1.386 . S
C2409 C2413 1.393 . S
C2410 H2402 0.950 . S
C2410 C2408 1.391 . S
C2410 C2411 1.400 1_655 S
C2411 C2410 1.400 1_455 S
C2411 C2412 1.398 1_455 S
C2411 C2417 1.491 . S
C2412 H2403 0.939 1_655 S
C2412 C2411 1.398 1_655 S
C2412 C2413 1.391 . S
C2413 H2401 0.950 . S
C2413 C2409 1.393 . S
C2413 C2412 1.391 . S
C2414 H2404 0.950 . S
C2414 C2415 1.386 . S
C2414 C2416 1.391 . S
C2415 C2414 1.386 . S
C2415 C2419 1.393 . S
C2416 H2405 0.950 . S
C2416 C2414 1.391 . S
C2416 C2417 1.400 . S
C2417 C2411 1.491 . S
C2417 C2416 1.400 . S
C2417 C2418 1.398 . S
C2418 H2406 0.950 . S
C2418 C2417 1.398 . S
C2418 C2419 1.391 . S
C2419 H2407 0.950 . S
C2419 C2415 1.393 . S
C2419 C2418 1.391 . S
H2420 C2428 0.950 . S
H2421 C2433 0.950 . S
H2422 C2430 0.950 . S
H2423 C2432 0.950 . S
H2424 C2434 0.950 . S
H2425 C2436 0.950 . S
H2426 C2438 0.950 . S
H2427 C2439 0.950 . S
C2428 H2420 0.950 . S
C2428 C2429 1.386 . S
C2428 C2430 1.391 . S
C2429 C2428 1.386 . S
C2429 C2433 1.393 . S
C2430 H2422 0.950 . S
C2430 C2428 1.391 . S
C2430 C2431 1.400 . S
C2431 C2430 1.400 . S
C2431 C2432 1.398 . S
C2431 C2437 1.491 . S
C2432 H2423 0.950 . S
C2432 C2431 1.398 . S
C2432 C2433 1.391 . S
C2433 H2421 0.950 . S
C2433 C2429 1.393 . S
C2433 C2432 1.391 . S
C2434 H2424 0.950 . S
C2434 C2435 1.386 . S
C2434 C2436 1.391 . S
C2435 C2434 1.386 . S
C2435 C2439 1.393 . S
C2436 H2425 0.950 . S
C2436 C2434 1.391 . S
C2436 C2437 1.400 . S
C2437 C2431 1.491 . S
C2437 C2436 1.400 . S
C2437 C2438 1.398 . S
C2438 H2426 0.950 . S
C2438 C2437 1.398 . S
C2438 C2439 1.391 . S
C2439 H2427 0.950 . S
C2439 C2435 1.393 . S
C2439 C2438 1.391 . S
H2440 C2448 0.950 . S
H2441 C2453 0.950 . S
H2442 C2450 0.950 . S
H2443 C2452 0.950 . S
H2444 C2454 0.950 . S
H2445 C2456 0.950 . S
H2446 C2458 0.950 1_565 S
H2447 C2459 0.950 . S
C2448 H2440 0.950 . S
C2448 C2449 1.386 . S
C2448 C2450 1.391 . S
C2449 C2448 1.386 . S
C2449 C2453 1.393 . S
C2450 H2442 0.950 . S
C2450 C2448 1.391 . S
C2450 C2451 1.400 . S
C2451 C2450 1.400 . S
C2451 C2452 1.398 . S
C2451 C2457 1.491 . S
C2452 H2443 0.950 . S
C2452 C2451 1.398 . S
C2452 C2453 1.391 . S
C2453 H2441 0.950 . S
C2453 C2449 1.393 . S
C2453 C2452 1.391 . S
C2454 H2444 0.950 . S
C2454 C2455 1.386 . S
C2454 C2456 1.391 . S
C2455 C2454 1.386 . S
C2455 C2459 1.393 . S
C2456 H2445 0.950 . S
C2456 C2454 1.391 . S
C2456 C2457 1.400 1_545 S
C2457 C2451 1.491 . S
C2457 C2456 1.400 1_565 S
C2457 C2458 1.398 1_565 S
C2458 H2446 0.950 1_545 S
C2458 C2457 1.398 1_545 S
C2458 C2459 1.391 . S
C2459 H2447 0.950 . S
C2459 C2455 1.393 . S
C2459 C2458 1.391 . S
H2460 C2468 0.950 . S
H2461 C2473 0.950 . S
H2462 C2470 0.950 . S
H2463 C2472 0.950 . S
H2464 C2474 0.950 . S
H2465 C2476 0.950 . S
H2466 C2478 0.950 1_655 S
H2467 C2479 0.950 . S
C2468 H2460 0.950 . S
C2468 C2469 1.386 . S
C2468 C2470 1.391 . S
C2469 C2468 1.386 . S
C2469 C2473 1.393 . S
C2470 H2462 0.950 . S
C2470 C2468 1.391 . S
C2470 C2471 1.400 . S
C2471 C2470 1.400 . S
C2471 C2472 1.398 . S
C2471 C2477 1.491 . S
C2472 H2463 0.950 . S
C2472 C2471 1.398 . S
C2472 C2473 1.391 . S
C2473 H2461 0.950 . S
C2473 C2469 1.393 . S
C2473 C2472 1.391 . S
C2474 H2464 0.950 . S
C2474 C2475 1.386 1_455 S
C2474 C2476 1.391 . S
C2475 C2474 1.386 1_655 S
C2475 C2479 1.393 . S
C2476 H2465 0.950 . S
C2476 C2474 1.391 . S
C2476 C2477 1.400 . S
C2477 C2471 1.491 . S
C2477 C2476 1.400 . S
C2477 C2478 1.398 . S
C2478 H2466 0.950 1_455 S
C2478 C2477 1.398 . S
C2478 C2479 1.391 1_455 S
C2479 H2467 0.950 . S
C2479 C2475 1.393 . S
C2479 C2478 1.391 1_655 S
H2480 C2488 0.950 . S
H2481 C2493 0.950 . S
H2482 C2490 0.950 . S
H2483 C2492 0.950 . S
H2484 C2494 0.950 . S
H2485 C2496 0.950 . S
H2486 C2498 0.950 . S
H2487 C2499 0.950 . S
C2488 H2480 0.950 . S
C2488 C2489 1.386 . S
C2488 C2490 1.391 . S
C2489 C2488 1.386 . S
C2489 C2493 1.393 . S
C2490 H2482 0.950 . S
C2490 C2488 1.391 . S
C2490 C2491 1.400 . S
C2491 C2490 1.400 . S
C2491 C2492 1.398 . S
C2491 C2497 1.491 . S
C2492 H2483 0.950 . S
C2492 C2491 1.398 . S
C2492 C2493 1.391 . S
C2493 H2481 0.950 . S
C2493 C2489 1.393 . S
C2493 C2492 1.391 . S
C2494 H2484 0.950 . S
C2494 C2495 1.386 . S
C2494 C2496 1.391 . S
C2495 C2494 1.386 . S
C2495 C2499 1.393 . S
C2496 H2485 0.950 . S
C2496 C2494 1.391 . S
C2496 C2497 1.400 . S
C2497 C2491 1.491 . S
C2497 C2496 1.400 . S
C2497 C2498 1.398 . S
C2498 H2486 0.950 . S
C2498 C2497 1.398 . S
C2498 C2499 1.391 . S
C2499 H2487 0.950 . S
C2499 C2495 1.393 . S
C2499 C2498 1.391 . S
H2500 C2508 0.950 . S
H2501 C2513 0.950 . S
H2502 C2510 0.950 . S
H2503 C2512 0.950 . S
H2504 C2514 0.950 . S
H2505 C2516 0.950 . S
H2506 C2518 0.950 1_545 S
H2507 C2519 0.950 . S
C2508 H2500 0.950 . S
C2508 C2509 1.386 . S
C2508 C2510 1.391 . S
C2509 C2508 1.386 . S
C2509 C2513 1.393 . S
C2510 H2502 0.950 . S
C2510 C2508 1.391 . S
C2510 C2511 1.400 . S
C2511 C2510 1.400 . S
C2511 C2512 1.398 . S
C2511 C2517 1.491 . S
C2512 H2503 0.950 . S
C2512 C2511 1.398 . S
C2512 C2513 1.391 . S
C2513 H2501 0.950 . S
C2513 C2509 1.393 . S
C2513 C2512 1.391 . S
C2514 H2504 0.950 . S
C2514 C2515 1.386 1_565 S
C2514 C2516 1.391 . S
C2515 C2514 1.386 1_545 S
C2515 C2519 1.393 . S
C2516 H2505 0.950 . S
C2516 C2514 1.391 . S
C2516 C2517 1.400 . S
C2517 C2511 1.491 . S
C2517 C2516 1.400 . S
C2517 C2518 1.398 . S
C2518 H2506 0.950 1_565 S
C2518 C2517 1.398 . S
C2518 C2519 1.391 1_565 S
C2519 H2507 0.950 . S
C2519 C2515 1.393 . S
C2519 C2518 1.391 1_545 S
H2520 C2528 0.950 . S
H2521 C2533 0.950 . S
H2522 C2530 0.950 . S
H2523 C2532 0.950 . S
H2524 C2534 0.950 . S
H2525 C2536 0.950 . S
H2526 C2538 0.950 . S
H2527 C2539 0.950 . S
C2528 H2520 0.950 . S
C2528 C2529 1.386 . S
C2528 C2530 1.391 . S
C2529 C2528 1.386 . S
C2529 C2533 1.393 . S
C2530 H2522 0.950 . S
C2530 C2528 1.391 . S
C2530 C2531 1.400 . S
C2531 C2530 1.400 . S
C2531 C2532 1.398 . S
C2531 C2537 1.491 . S
C2532 H2523 0.950 . S
C2532 C2531 1.398 . S
C2532 C2533 1.391 . S
C2533 H2521 0.950 . S
C2533 C2529 1.393 . S
C2533 C2532 1.391 . S
C2534 H2524 0.950 . S
C2534 C2535 1.386 1_565 S
C2534 C2536 1.391 . S
C2535 C2534 1.386 1_545 S
C2535 C2539 1.393 . S
C2536 H2525 0.950 . S
C2536 C2534 1.391 . S
C2536 C2537 1.400 . S
C2537 C2531 1.491 . S
C2537 C2536 1.400 . S
C2537 C2538 1.398 . S
C2538 H2526 0.950 . S
C2538 C2537 1.398 . S
C2538 C2539 1.391 1_565 S
C2539 H2527 0.950 . S
C2539 C2535 1.393 . S
C2539 C2538 1.391 1_545 S
H2540 C2548 0.950 . S
H2541 C2553 0.950 . S
H2542 C2550 0.950 . S
H2543 C2552 0.950 . S
H2544 C2554 0.950 . S
H2545 C2556 0.950 . S
H2546 C2558 0.950 . S
H2547 C2559 0.950 . S
C2548 H2540 0.950 . S
C2548 C2549 1.386 1_455 S
C2548 C2550 1.391 . S
C2549 C2548 1.386 1_655 S
C2549 C2553 1.393 . S
C2550 H2542 0.950 . S
C2550 C2548 1.391 . S
C2550 C2551 1.400 . S
C2551 C2550 1.400 . S
C2551 C2552 1.398 . S
C2551 C2557 1.491 . S
C2552 H2543 0.950 . S
C2552 C2551 1.398 . S
C2552 C2553 1.391 1_455 S
C2553 H2541 0.950 . S
C2553 C2549 1.393 . S
C2553 C2552 1.391 1_655 S
C2554 H2544 0.950 . S
C2554 C2555 1.386 . S
C2554 C2556 1.391 . S
C2555 C2554 1.386 . S
C2555 C2559 1.393 . S
C2556 H2545 0.950 . S
C2556 C2554 1.391 . S
C2556 C2557 1.400 . S
C2557 C2551 1.491 . S
C2557 C2556 1.400 . S
C2557 C2558 1.398 . S
C2558 H2546 0.950 . S
C2558 C2557 1.398 . S
C2558 C2559 1.391 . S
C2559 H2547 0.950 . S
C2559 C2555 1.393 . S
C2559 C2558 1.391 . S
H2560 C2568 0.950 . S
H2561 C2573 0.950 . S
H2562 C2570 0.950 . S
H2563 C2572 0.950 . S
H2564 C2574 0.950 . S
H2565 C2576 0.950 . S
H2566 C2578 0.950 . S
H2567 C2579 0.950 . S
C2568 H2560 0.950 . S
C2568 C2569 1.386 . S
C2568 C2570 1.391 . S
C2569 C2568 1.386 . S
C2569 C2573 1.393 . S
C2570 H2562 0.950 . S
C2570 C2568 1.391 . S
C2570 C2571 1.400 . S
C2571 C2570 1.400 . S
C2571 C2572 1.398 . S
C2571 C2577 1.491 . S
C2572 H2563 0.950 . S
C2572 C2571 1.398 . S
C2572 C2573 1.391 . S
C2573 H2561 0.950 . S
C2573 C2569 1.393 . S
C2573 C2572 1.391 . S
C2574 H2564 0.950 . S
C2574 C2575 1.386 . S
C2574 C2576 1.391 . S
C2575 C2574 1.386 . S
C2575 C2579 1.393 . S
C2576 H2565 0.950 . S
C2576 C2574 1.391 . S
C2576 C2577 1.400 . S
C2577 C2571 1.491 . S
C2577 C2576 1.400 . S
C2577 C2578 1.398 . S
C2578 H2566 0.950 . S
C2578 C2577 1.398 . S
C2578 C2579 1.391 . S
C2579 H2567 0.950 . S
C2579 C2575 1.393 . S
C2579 C2578 1.391 . S
H2580 C2588 0.950 . S
H2581 C2593 0.950 . S
H2582 C2590 0.950 . S
H2583 C2592 0.950 . S
H2584 C2594 0.950 . S
H2585 C2596 0.950 . S
H2586 C2598 0.950 . S
H2587 C2599 0.950 . S
C2588 H2580 0.950 . S
C2588 C2589 1.330 1_556 S
C2588 C2590 1.391 . S
C2589 C2588 1.330 1_554 S
C2589 C2593 1.444 . S
C2590 H2582 0.950 . S
C2590 C2588 1.391 . S
C2590 C2591 1.497 . S
C2591 C2590 1.497 . S
C2591 C2592 1.293 1_556 S
C2591 C2597 1.511 1_565 S
C2592 H2583 0.950 . S
C2592 C2591 1.293 1_554 S
C2592 C2593 1.391 . S
C2593 H2581 0.950 . S
C2593 C2589 1.444 . S
C2593 C2592 1.391 . S
C2594 H2584 0.950 . S
C2594 C2595 1.386 1_554 S
C2594 C2596 1.391 . S
C2595 C2594 1.386 1_556 S
C2595 C2599 1.393 . S
C2596 H2585 0.950 . S
C2596 C2594 1.391 . S
C2596 C2597 1.400 1_554 S
C2597 C2591 1.511 1_545 S
C2597 C2596 1.400 1_556 S
C2597 C2598 1.398 . S
C2598 H2586 0.950 . S
C2598 C2597 1.398 . S
C2598 C2599 1.391 . S
C2599 H2587 0.950 . S
C2599 C2595 1.393 . S
C2599 C2598 1.391 . S
H2600 C2608 0.950 . S
H2601 C2613 0.950 . S
H2602 C2610 0.950 . S
H2603 C2612 0.950 . S
H2604 C2614 0.950 . S
H2605 C2616 0.950 . S
H2606 C2618 0.950 . S
H2607 C2619 0.950 . S
C2608 H2600 0.950 . S
C2608 C2609 1.341 1_556 S
C2608 C2610 1.391 . S
C2609 C2608 1.341 1_554 S
C2609 C2613 1.435 . S
C2610 H2602 0.950 . S
C2610 C2608 1.391 . S
C2610 C2611 1.466 . S
C2611 C2610 1.466 . S
C2611 C2612 1.326 1_556 S
C2611 C2617 1.511 1_455 S
C2612 H2603 0.950 . S
C2612 C2611 1.326 1_554 S
C2612 C2613 1.391 . S
C2613 H2601 0.950 . S
C2613 C2609 1.435 . S
C2613 C2612 1.391 . S
C2614 H2604 0.950 . S
C2614 C2615 1.386 1_554 S
C2614 C2616 1.391 . S
C2615 C2614 1.386 1_556 S
C2615 C2619 1.393 . S
C2616 H2605 0.950 . S
C2616 C2614 1.391 . S
C2616 C2617 1.400 1_554 S
C2617 C2611 1.511 1_655 S
C2617 C2616 1.400 1_556 S
C2617 C2618 1.398 . S
C2618 H2606 0.950 . S
C2618 C2617 1.398 . S
C2618 C2619 1.391 . S
C2619 H2607 0.950 . S
C2619 C2615 1.393 . S
C2619 C2618 1.391 . S
H2620 C2628 0.952 . S
H2621 C2633 0.950 . S
H2622 C2630 0.995 . S
H2623 C2632 0.950 . S
H2624 C2634 0.950 . S
H2625 C2636 0.950 . S
H2626 C2638 0.950 . S
H2627 C2639 0.950 . S
C2628 H2620 0.952 . S
C2628 C2629 1.383 1_554 S
C2628 C2630 1.388 . S
C2629 C2628 1.383 1_556 S
C2629 C2633 1.393 . S
C2630 H2622 0.995 . S
C2630 C2628 1.388 . S
C2630 C2631 1.372 1_554 S
C2631 C2630 1.372 1_556 S
C2631 C2632 1.398 . S
C2631 C2637 1.491 . S
C2632 H2623 0.950 . S
C2632 C2631 1.398 . S
C2632 C2633 1.391 . S
C2633 H2621 0.950 . S
C2633 C2629 1.393 . S
C2633 C2632 1.391 . S
C2634 H2624 0.950 . S
C2634 C2635 1.386 . S
C2634 C2636 1.391 . S
C2635 C2634 1.386 . S
C2635 C2639 1.393 1_556 S
C2636 H2625 0.950 . S
C2636 C2634 1.391 . S
C2636 C2637 1.400 . S
C2637 C2631 1.491 . S
C2637 C2636 1.400 . S
C2637 C2638 1.398 1_556 S
C2638 H2626 0.950 . S
C2638 C2637 1.398 1_554 S
C2638 C2639 1.391 . S
C2639 H2627 0.950 . S
C2639 C2635 1.393 1_554 S
C2639 C2638 1.391 . S
H2640 C2648 0.950 . S
H2641 C2653 0.950 . S
H2642 C2650 0.950 . S
H2643 C2652 0.950 . S
H2644 C2654 0.950 . S
H2645 C2656 0.950 . S
H2646 C2658 0.950 . S
H2647 C2659 0.950 . S
C2648 H2640 0.950 . S
C2648 C2649 1.386 . S
C2648 C2650 1.391 . S
C2649 C2648 1.386 . S
C2649 C2653 1.393 . S
C2650 H2642 0.950 . S
C2650 C2648 1.391 . S
C2650 C2651 1.400 . S
C2651 C2650 1.400 . S
C2651 C2652 1.398 . S
C2651 C2657 1.491 . S
C2652 H2643 0.950 . S
C2652 C2651 1.398 . S
C2652 C2653 1.391 . S
C2653 H2641 0.950 . S
C2653 C2649 1.393 . S
C2653 C2652 1.391 . S
C2654 H2644 0.950 . S
C2654 C2655 1.386 . S
C2654 C2656 1.391 1_565 S
C2655 C2654 1.386 . S
C2655 C2659 1.393 1_565 S
C2656 H2645 0.950 . S
C2656 C2654 1.391 1_545 S
C2656 C2657 1.400 . S
C2657 C2651 1.491 . S
C2657 C2656 1.400 . S
C2657 C2658 1.398 . S
C2658 H2646 0.950 . S
C2658 C2657 1.398 . S
C2658 C2659 1.391 . S
C2659 H2647 0.950 . S
C2659 C2655 1.393 1_545 S
C2659 C2658 1.391 . S
H2660 C2668 0.950 . S
H2661 C2673 0.950 . S
H2662 C2670 0.950 . S
H2663 C2672 0.950 . S
H2664 C2674 0.950 . S
H2665 C2676 0.950 . S
H2666 C2678 0.950 . S
H2667 C2679 0.950 . S
C2668 H2660 0.950 . S
C2668 C2669 1.386 . S
C2668 C2670 1.391 . S
C2669 C2668 1.386 . S
C2669 C2673 1.393 . S
C2670 H2662 0.950 . S
C2670 C2668 1.391 . S
C2670 C2671 1.400 . S
C2671 C2670 1.400 . S
C2671 C2672 1.398 . S
C2671 C2677 1.491 . S
C2672 H2663 0.950 . S
C2672 C2671 1.398 . S
C2672 C2673 1.391 . S
C2673 H2661 0.950 . S
C2673 C2669 1.393 . S
C2673 C2672 1.391 . S
C2674 H2664 0.950 . S
C2674 C2675 1.386 . S
C2674 C2676 1.391 1_455 S
C2675 C2674 1.386 . S
C2675 C2679 1.393 1_455 S
C2676 H2665 0.950 . S
C2676 C2674 1.391 1_655 S
C2676 C2677 1.400 . S
C2677 C2671 1.491 . S
C2677 C2676 1.400 . S
C2677 C2678 1.398 . S
C2678 H2666 0.950 . S
C2678 C2677 1.398 . S
C2678 C2679 1.391 . S
C2679 H2667 0.950 . S
C2679 C2675 1.393 1_655 S
C2679 C2678 1.391 . S
H2680 C2688 0.950 . S
H2681 C2693 0.950 . S
H2682 C2690 0.950 . S
H2683 C2692 0.950 . S
H2684 C2694 0.950 . S
H2685 C2696 0.950 . S
H2686 C2698 0.950 . S
H2687 C2699 0.950 . S
C2688 H2680 0.950 . S
C2688 C2689 1.386 . S
C2688 C2690 1.391 . S
C2689 C2688 1.386 . S
C2689 C2693 1.393 . S
C2690 H2682 0.950 . S
C2690 C2688 1.391 . S
C2690 C2691 1.400 . S
C2691 C2690 1.400 . S
C2691 C2692 1.398 . S
C2691 C2697 1.491 . S
C2692 H2683 0.950 . S
C2692 C2691 1.398 . S
C2692 C2693 1.391 . S
C2693 H2681 0.950 . S
C2693 C2689 1.393 . S
C2693 C2692 1.391 . S
C2694 H2684 0.950 . S
C2694 C2695 1.386 . S
C2694 C2696 1.391 . S
C2695 C2694 1.386 . S
C2695 C2699 1.393 . S
C2696 H2685 0.950 . S
C2696 C2694 1.391 . S
C2696 C2697 1.400 . S
C2697 C2691 1.491 . S
C2697 C2696 1.400 . S
C2697 C2698 1.398 . S
C2698 H2686 0.950 . S
C2698 C2697 1.398 . S
C2698 C2699 1.391 . S
C2699 H2687 0.950 . S
C2699 C2695 1.393 . S
C2699 C2698 1.391 . S
H2700 C2708 0.950 . S
H2701 C2713 0.950 . S
H2702 C2710 0.953 . S
H2703 C2712 0.950 . S
H2704 C2714 0.950 . S
H2705 C2716 0.950 . S
H2706 C2718 0.949 . S
H2707 C2719 0.961 . S
C2708 H2700 0.950 . S
C2708 C2709 1.386 . S
C2708 C2710 1.391 . S
C2709 C2708 1.386 . S
C2709 C2713 1.393 . S
C2710 H2702 0.953 . S
C2710 C2708 1.391 . S
C2710 C2711 1.400 . S
C2711 C2710 1.400 . S
C2711 C2712 1.398 . S
C2711 C2717 1.491 1_565 S
C2712 H2703 0.950 . S
C2712 C2711 1.398 . S
C2712 C2713 1.391 . S
C2713 H2701 0.950 . S
C2713 C2709 1.393 . S
C2713 C2712 1.391 . S
C2714 H2704 0.950 . S
C2714 C2715 1.387 . S
C2714 C2716 1.391 . S
C2715 C2714 1.387 . S
C2715 C2719 1.390 1_554 S
C2716 H2705 0.950 . S
C2716 C2714 1.391 . S
C2716 C2717 1.400 . S
C2717 C2711 1.491 1_545 S
C2717 C2716 1.400 . S
C2717 C2718 1.403 . S
C2718 H2706 0.949 . S
C2718 C2717 1.403 . S
C2718 C2719 1.385 1_554 S
C2719 H2707 0.961 . S
C2719 C2715 1.390 1_556 S
C2719 C2718 1.385 1_556 S
H2720 C2728 0.950 . S
H2721 C2733 0.950 . S
H2722 C2730 0.950 . S
H2723 C2732 0.972 . S
H2724 C2734 0.931 1_556 S
H2725 C2736 0.952 1_556 S
H2726 C2738 0.950 . S
H2727 C2739 0.950 . S
C2728 H2720 0.950 . S
C2728 C2729 1.387 1_554 S
C2728 C2730 1.391 . S
C2729 C2728 1.387 1_556 S
C2729 C2733 1.392 . S
C2730 H2722 0.950 . S
C2730 C2728 1.391 . S
C2730 C2731 1.400 . S
C2731 C2730 1.400 . S
C2731 C2732 1.377 1_554 S
C2731 C2737 1.491 1_655 S
C2732 H2723 0.972 . S
C2732 C2731 1.377 1_556 S
C2732 C2733 1.405 . S
C2733 H2721 0.950 . S
C2733 C2729 1.392 . S
C2733 C2732 1.405 . S
C2734 H2724 0.931 1_554 S
C2734 C2735 1.412 . S
C2734 C2736 1.388 . S
C2735 C2734 1.412 . S
C2735 C2739 1.393 . S
C2736 H2725 0.952 1_554 S
C2736 C2734 1.388 . S
C2736 C2737 1.399 . S
C2737 C2731 1.491 1_455 S
C2737 C2736 1.399 . S
C2737 C2738 1.398 . S
C2738 H2726 0.950 . S
C2738 C2737 1.398 . S
C2738 C2739 1.391 . S
C2739 H2727 0.950 . S
C2739 C2735 1.393 . S
C2739 C2738 1.391 . S
H2740 C2748 0.950 . S
H2741 C2753 0.950 . S
H2742 C2750 0.950 . S
H2743 C2752 0.950 . S
H2744 C2754 0.950 . S
H2745 C2756 0.950 . S
H2746 C2758 0.950 . S
H2747 C2759 0.950 . S
C2748 H2740 0.950 . S
C2748 C2749 1.386 1_556 S
C2748 C2750 1.391 . S
C2749 C2748 1.386 1_554 S
C2749 C2753 1.393 . S
C2750 H2742 0.950 . S
C2750 C2748 1.391 . S
C2750 C2751 1.400 1_556 S
C2751 C2750 1.400 1_554 S
C2751 C2752 1.398 . S
C2751 C2757 1.491 . S
C2752 H2743 0.950 . S
C2752 C2751 1.398 . S
C2752 C2753 1.391 . S
C2753 H2741 0.950 . S
C2753 C2749 1.393 . S
C2753 C2752 1.391 . S
C2754 H2744 0.950 . S
C2754 C2755 1.358 1_554 S
C2754 C2756 1.391 . S
C2755 C2754 1.358 1_556 S
C2755 C2759 1.419 . S
C2756 H2745 0.950 . S
C2756 C2754 1.391 . S
C2756 C2757 1.400 . S
C2757 C2751 1.491 . S
C2757 C2756 1.400 . S
C2757 C2758 1.398 1_554 S
C2758 H2746 0.950 . S
C2758 C2757 1.398 1_556 S
C2758 C2759 1.391 . S
C2759 H2747 0.950 . S
C2759 C2755 1.419 . S
C2759 C2758 1.391 . S
H2760 C2768 0.950 . S
H2761 C2773 0.950 . S
H2762 C2770 0.950 . S
H2763 C2772 0.950 . S
H2764 C2774 0.950 . S
H2765 C2776 0.950 . S
H2766 C2778 0.950 . S
H2767 C2779 0.950 . S
C2768 H2760 0.950 . S
C2768 C2769 1.386 . S
C2768 C2770 1.391 . S
C2769 C2768 1.386 . S
C2769 C2773 1.393 . S
C2770 H2762 0.950 . S
C2770 C2768 1.391 . S
C2770 C2771 1.400 1_455 S
C2771 C2770 1.400 1_655 S
C2771 C2772 1.398 1_655 S
C2771 C2777 1.491 . S
C2772 H2763 0.950 . S
C2772 C2771 1.398 1_455 S
C2772 C2773 1.391 . S
C2773 H2761 0.950 . S
C2773 C2769 1.393 . S
C2773 C2772 1.391 . S
C2774 H2764 0.950 . S
C2774 C2775 1.386 . S
C2774 C2776 1.391 . S
C2775 C2774 1.386 . S
C2775 C2779 1.393 . S
C2776 H2765 0.950 . S
C2776 C2774 1.391 . S
C2776 C2777 1.400 . S
C2777 C2771 1.491 . S
C2777 C2776 1.400 . S
C2777 C2778 1.398 . S
C2778 H2766 0.950 . S
C2778 C2777 1.398 . S
C2778 C2779 1.391 . S
C2779 H2767 0.950 . S
C2779 C2775 1.393 . S
C2779 C2778 1.391 . S
H2780 C2788 0.950 . S
H2781 C2793 0.950 . S
H2782 C2790 0.950 . S
H2783 C2792 0.950 . S
H2784 C2794 0.950 . S
H2785 C2796 0.950 . S
H2786 C2798 0.950 . S
H2787 C2799 0.950 . S
C2788 H2780 0.950 . S
C2788 C2789 1.386 . S
C2788 C2790 1.391 . S
C2789 C2788 1.386 . S
C2789 C2793 1.393 . S
C2790 H2782 0.950 . S
C2790 C2788 1.391 . S
C2790 C2791 1.400 . S
C2791 C2790 1.400 . S
C2791 C2792 1.398 . S
C2791 C2797 1.491 . S
C2792 H2783 0.950 . S
C2792 C2791 1.398 . S
C2792 C2793 1.391 . S
C2793 H2781 0.950 . S
C2793 C2789 1.393 . S
C2793 C2792 1.391 . S
C2794 H2784 0.950 . S
C2794 C2795 1.386 . S
C2794 C2796 1.391 . S
C2795 C2794 1.386 . S
C2795 C2799 1.393 . S
C2796 H2785 0.950 . S
C2796 C2794 1.391 . S
C2796 C2797 1.400 . S
C2797 C2791 1.491 . S
C2797 C2796 1.400 . S
C2797 C2798 1.398 . S
C2798 H2786 0.950 . S
C2798 C2797 1.398 . S
C2798 C2799 1.391 . S
C2799 H2787 0.950 . S
C2799 C2795 1.393 . S
C2799 C2798 1.391 . S
H2800 C2808 0.950 . S
H2801 C2813 0.950 . S
H2802 C2810 0.950 . S
H2803 C2812 0.950 1_545 S
H2804 C2814 0.950 . S
H2805 C2816 0.950 . S
H2806 C2818 0.950 . S
H2807 C2819 0.950 . S
C2808 H2800 0.950 . S
C2808 C2809 1.386 . S
C2808 C2810 1.391 . S
C2809 C2808 1.386 . S
C2809 C2813 1.393 . S
C2810 H2802 0.950 . S
C2810 C2808 1.391 . S
C2810 C2811 1.400 1_565 S
C2811 C2810 1.400 1_545 S
C2811 C2812 1.398 1_545 S
C2811 C2817 1.491 . S
C2812 H2803 0.950 1_565 S
C2812 C2811 1.398 1_565 S
C2812 C2813 1.391 . S
C2813 H2801 0.950 . S
C2813 C2809 1.393 . S
C2813 C2812 1.391 . S
C2814 H2804 0.950 . S
C2814 C2815 1.386 . S
C2814 C2816 1.391 . S
C2815 C2814 1.386 . S
C2815 C2819 1.393 . S
C2816 H2805 0.950 . S
C2816 C2814 1.391 . S
C2816 C2817 1.400 . S
C2817 C2811 1.491 . S
C2817 C2816 1.400 . S
C2817 C2818 1.398 . S
C2818 H2806 0.950 . S
C2818 C2817 1.398 . S
C2818 C2819 1.391 . S
C2819 H2807 0.950 . S
C2819 C2815 1.393 . S
C2819 C2818 1.391 . S
H2820 C2828 0.950 . S
H2821 C2833 0.950 . S
H2822 C2830 0.950 . S
H2823 C2832 0.950 . S
H2824 C2834 0.950 . S
H2825 C2836 0.950 . S
H2826 C2838 0.950 . S
H2827 C2839 0.950 . S
C2828 H2820 0.950 . S
C2828 C2829 1.386 1_655 S
C2828 C2830 1.391 . S
C2829 C2828 1.386 1_455 S
C2829 C2833 1.393 . S
C2830 H2822 0.950 . S
C2830 C2828 1.391 . S
C2830 C2831 1.400 . S
C2831 C2830 1.400 . S
C2831 C2832 1.398 . S
C2831 C2837 1.491 . S
C2832 H2823 0.950 . S
C2832 C2831 1.398 . S
C2832 C2833 1.391 1_655 S
C2833 H2821 0.950 . S
C2833 C2829 1.393 . S
C2833 C2832 1.391 1_455 S
C2834 H2824 0.950 . S
C2834 C2835 1.386 . S
C2834 C2836 1.391 . S
C2835 C2834 1.386 . S
C2835 C2839 1.393 . S
C2836 H2825 0.950 . S
C2836 C2834 1.391 . S
C2836 C2837 1.400 . S
C2837 C2831 1.491 . S
C2837 C2836 1.400 . S
C2837 C2838 1.398 . S
C2838 H2826 0.950 . S
C2838 C2837 1.398 . S
C2838 C2839 1.391 . S
C2839 H2827 0.950 . S
C2839 C2835 1.393 . S
C2839 C2838 1.391 . S
H2840 C2848 0.950 . S
H2841 C2853 0.950 . S
H2842 C2850 0.950 . S
H2843 C2852 0.950 . S
H2844 C2854 0.950 . S
H2845 C2856 0.950 . S
H2846 C2858 0.950 . S
H2847 C2859 0.950 . S
C2848 H2840 0.950 . S
C2848 C2849 1.386 . S
C2848 C2850 1.391 . S
C2849 C2848 1.386 . S
C2849 C2853 1.393 . S
C2850 H2842 0.950 . S
C2850 C2848 1.391 . S
C2850 C2851 1.400 . S
C2851 C2850 1.400 . S
C2851 C2852 1.398 . S
C2851 C2857 1.491 . S
C2852 H2843 0.950 . S
C2852 C2851 1.398 . S
C2852 C2853 1.391 . S
C2853 H2841 0.950 . S
C2853 C2849 1.393 . S
C2853 C2852 1.391 . S
C2854 H2844 0.950 . S
C2854 C2855 1.386 . S
C2854 C2856 1.391 . S
C2855 C2854 1.386 . S
C2855 C2859 1.393 . S
C2856 H2845 0.950 . S
C2856 C2854 1.391 . S
C2856 C2857 1.400 . S
C2857 C2851 1.491 . S
C2857 C2856 1.400 . S
C2857 C2858 1.398 . S
C2858 H2846 0.950 . S
C2858 C2857 1.398 . S
C2858 C2859 1.391 . S
C2859 H2847 0.950 . S
C2859 C2855 1.393 . S
C2859 C2858 1.391 . S
H2860 C2868 0.950 . S
H2861 C2873 0.950 . S
H2862 C2870 0.950 . S
H2863 C2872 0.950 . S
H2864 C2874 0.950 . S
H2865 C2876 0.950 . S
H2866 C2878 0.951 1_565 S
H2867 C2879 0.950 . S
C2868 H2860 0.950 . S
C2868 C2869 1.386 . S
C2868 C2870 1.391 . S
C2869 C2868 1.386 . S
C2869 C2873 1.393 . S
C2870 H2862 0.950 . S
C2870 C2868 1.391 . S
C2870 C2871 1.400 . S
C2871 C2870 1.400 . S
C2871 C2872 1.398 . S
C2871 C2877 1.491 . S
C2872 H2863 0.950 . S
C2872 C2871 1.398 . S
C2872 C2873 1.391 . S
C2873 H2861 0.950 . S
C2873 C2869 1.393 . S
C2873 C2872 1.391 . S
C2874 H2864 0.950 . S
C2874 C2875 1.386 1_545 S
C2874 C2876 1.391 . S
C2875 C2874 1.386 1_565 S
C2875 C2879 1.393 . S
C2876 H2865 0.950 . S
C2876 C2874 1.391 . S
C2876 C2877 1.400 . S
C2877 C2871 1.491 . S
C2877 C2876 1.400 . S
C2877 C2878 1.398 . S
C2878 H2866 0.951 1_545 S
C2878 C2877 1.398 . S
C2878 C2879 1.391 1_545 S
C2879 H2867 0.950 . S
C2879 C2875 1.393 . S
C2879 C2878 1.391 1_565 S
H2880 C2888 0.950 . S
H2881 C2893 0.950 . S
H2882 C2890 0.950 . S
H2883 C2892 0.950 . S
H2884 C2894 0.950 . S
H2885 C2896 0.950 . S
H2886 C2898 0.950 . S
H2887 C2899 0.950 . S
C2888 H2880 0.950 . S
C2888 C2889 1.386 . S
C2888 C2890 1.391 . S
C2889 C2888 1.386 . S
C2889 C2893 1.393 . S
C2890 H2882 0.950 . S
C2890 C2888 1.391 . S
C2890 C2891 1.400 . S
C2891 C2890 1.400 . S
C2891 C2892 1.398 . S
C2891 C2897 1.491 . S
C2892 H2883 0.950 . S
C2892 C2891 1.398 . S
C2892 C2893 1.391 . S
C2893 H2881 0.950 . S
C2893 C2889 1.393 . S
C2893 C2892 1.391 . S
C2894 H2884 0.950 . S
C2894 C2895 1.386 . S
C2894 C2896 1.391 . S
C2895 C2894 1.386 . S
C2895 C2899 1.393 . S
C2896 H2885 0.950 . S
C2896 C2894 1.391 . S
C2896 C2897 1.400 . S
C2897 C2891 1.491 . S
C2897 C2896 1.400 . S
C2897 C2898 1.398 . S
C2898 H2886 0.950 . S
C2898 C2897 1.398 . S
C2898 C2899 1.391 . S
C2899 H2887 0.950 . S
C2899 C2895 1.393 . S
C2899 C2898 1.391 . S
H2900 C2908 0.950 . S
H2901 C2913 0.950 . S
H2902 C2910 0.950 . S
H2903 C2912 0.950 . S
H2904 C2914 0.950 . S
H2905 C2916 0.950 . S
H2906 C2918 0.950 . S
H2907 C2919 0.950 . S
C2908 H2900 0.950 . S
C2908 C2909 1.386 . S
C2908 C2910 1.391 . S
C2909 C2908 1.386 . S
C2909 C2913 1.393 . S
C2910 H2902 0.950 . S
C2910 C2908 1.391 . S
C2910 C2911 1.400 . S
C2911 C2910 1.400 . S
C2911 C2912 1.398 . S
C2911 C2917 1.491 . S
C2912 H2903 0.950 . S
C2912 C2911 1.398 . S
C2912 C2913 1.391 . S
C2913 H2901 0.950 . S
C2913 C2909 1.393 . S
C2913 C2912 1.391 . S
C2914 H2904 0.950 . S
C2914 C2915 1.386 . S
C2914 C2916 1.391 . S
C2915 C2914 1.386 . S
C2915 C2919 1.393 . S
C2916 H2905 0.950 . S
C2916 C2914 1.391 . S
C2916 C2917 1.400 . S
C2917 C2911 1.491 . S
C2917 C2916 1.400 . S
C2917 C2918 1.398 . S
C2918 H2906 0.950 . S
C2918 C2917 1.398 . S
C2918 C2919 1.391 . S
C2919 H2907 0.950 . S
C2919 C2915 1.393 . S
C2919 C2918 1.391 . S
H2920 C2928 0.950 . S
H2921 C2933 0.950 . S
H2922 C2930 0.950 . S
H2923 C2932 0.950 . S
H2924 C2934 0.950 . S
H2925 C2936 0.950 . S
H2926 C2938 0.950 . S
H2927 C2939 0.950 . S
C2928 H2920 0.950 . S
C2928 C2929 1.386 . S
C2928 C2930 1.391 . S
C2929 C2928 1.386 . S
C2929 C2933 1.393 . S
C2930 H2922 0.950 . S
C2930 C2928 1.391 . S
C2930 C2931 1.400 . S
C2931 C2930 1.400 . S
C2931 C2932 1.398 . S
C2931 C2937 1.491 . S
C2932 H2923 0.950 . S
C2932 C2931 1.398 . S
C2932 C2933 1.391 . S
C2933 H2921 0.950 . S
C2933 C2929 1.393 . S
C2933 C2932 1.391 . S
C2934 H2924 0.950 . S
C2934 C2935 1.386 . S
C2934 C2936 1.391 . S
C2935 C2934 1.386 . S
C2935 C2939 1.393 . S
C2936 H2925 0.950 . S
C2936 C2934 1.391 . S
C2936 C2937 1.400 . S
C2937 C2931 1.491 . S
C2937 C2936 1.400 . S
C2937 C2938 1.398 . S
C2938 H2926 0.950 . S
C2938 C2937 1.398 . S
C2938 C2939 1.391 . S
C2939 H2927 0.950 . S
C2939 C2935 1.393 . S
C2939 C2938 1.391 . S
H2940 C2948 0.950 . S
H2941 C2953 0.950 . S
H2942 C2950 0.950 . S
H2943 C2952 0.950 . S
H2944 C2954 0.950 . S
H2945 C2956 0.950 . S
H2946 C2958 0.950 . S
H2947 C2959 0.950 . S
C2948 H2940 0.950 . S
C2948 C2949 1.386 . S
C2948 C2950 1.391 . S
C2949 C2948 1.386 . S
C2949 C2953 1.393 . S
C2950 H2942 0.950 . S
C2950 C2948 1.391 . S
C2950 C2951 1.400 . S
C2951 C2950 1.400 . S
C2951 C2952 1.398 . S
C2951 C2957 1.491 . S
C2952 H2943 0.950 . S
C2952 C2951 1.398 . S
C2952 C2953 1.391 . S
C2953 H2941 0.950 . S
C2953 C2949 1.393 . S
C2953 C2952 1.391 . S
C2954 H2944 0.950 . S
C2954 C2955 1.386 . S
C2954 C2956 1.391 . S
C2955 C2954 1.386 . S
C2955 C2959 1.393 . S
C2956 H2945 0.950 . S
C2956 C2954 1.391 . S
C2956 C2957 1.400 . S
C2957 C2951 1.491 . S
C2957 C2956 1.400 . S
C2957 C2958 1.398 . S
C2958 H2946 0.950 . S
C2958 C2957 1.398 . S
C2958 C2959 1.391 . S
C2959 H2947 0.950 . S
C2959 C2955 1.393 . S
C2959 C2958 1.391 . S
H2960 C2968 0.950 . S
H2961 C2973 0.950 . S
H2962 C2970 0.950 . S
H2963 C2972 0.950 . S
H2964 C2974 0.950 . S
H2965 C2976 0.950 . S
H2966 C2978 0.950 . S
H2967 C2979 0.950 . S
C2968 H2960 0.950 . S
C2968 C2969 1.386 . S
C2968 C2970 1.391 . S
C2969 C2968 1.386 . S
C2969 C2973 1.393 . S
C2970 H2962 0.950 . S
C2970 C2968 1.391 . S
C2970 C2971 1.400 . S
C2971 C2970 1.400 . S
C2971 C2972 1.398 . S
C2971 C2977 1.491 . S
C2972 H2963 0.950 . S
C2972 C2971 1.398 . S
C2972 C2973 1.391 . S
C2973 H2961 0.950 . S
C2973 C2969 1.393 . S
C2973 C2972 1.391 . S
C2974 H2964 0.950 . S
C2974 C2975 1.386 . S
C2974 C2976 1.391 . S
C2975 C2974 1.386 . S
C2975 C2979 1.393 . S
C2976 H2965 0.950 . S
C2976 C2974 1.391 . S
C2976 C2977 1.400 . S
C2977 C2971 1.491 . S
C2977 C2976 1.400 . S
C2977 C2978 1.398 . S
C2978 H2966 0.950 . S
C2978 C2977 1.398 . S
C2978 C2979 1.391 . S
C2979 H2967 0.950 . S
C2979 C2975 1.393 . S
C2979 C2978 1.391 . S
H2980 C2988 0.950 . S
H2981 C2993 0.950 . S
H2982 C2990 0.950 . S
H2983 C2992 0.950 . S
H2984 C2994 0.950 . S
H2985 C2996 0.950 . S
H2986 C2998 0.950 . S
H2987 C2999 0.950 . S
C2988 H2980 0.950 . S
C2988 C2989 1.386 . S
C2988 C2990 1.391 . S
C2989 C2988 1.386 . S
C2989 C2993 1.393 . S
C2990 H2982 0.950 . S
C2990 C2988 1.391 . S
C2990 C2991 1.400 . S
C2991 C2990 1.400 . S
C2991 C2992 1.398 . S
C2991 C2997 1.491 . S
C2992 H2983 0.950 . S
C2992 C2991 1.398 . S
C2992 C2993 1.391 . S
C2993 H2981 0.950 . S
C2993 C2989 1.393 . S
C2993 C2992 1.391 . S
C2994 H2984 0.950 . S
C2994 C2995 1.386 . S
C2994 C2996 1.391 . S
C2995 C2994 1.386 . S
C2995 C2999 1.393 . S
C2996 H2985 0.950 . S
C2996 C2994 1.391 . S
C2996 C2997 1.400 . S
C2997 C2991 1.491 . S
C2997 C2996 1.400 . S
C2997 C2998 1.398 . S
C2998 H2986 0.950 . S
C2998 C2997 1.398 . S
C2998 C2999 1.391 . S
C2999 H2987 0.950 . S
C2999 C2995 1.393 . S
C2999 C2998 1.391 . S
H3000 C3008 0.950 . S
H3001 C3013 0.950 . S
H3002 C3010 0.950 . S
H3003 C3012 0.950 . S
H3004 C3014 0.950 . S
H3005 C3016 0.950 . S
H3006 C3018 0.950 . S
H3007 C3019 0.950 . S
C3008 H3000 0.950 . S
C3008 C3009 1.386 . S
C3008 C3010 1.391 . S
C3009 C3008 1.386 . S
C3009 C3013 1.393 . S
C3010 H3002 0.950 . S
C3010 C3008 1.391 . S
C3010 C3011 1.400 . S
C3011 C3010 1.400 . S
C3011 C3012 1.398 . S
C3011 C3017 1.491 . S
C3012 H3003 0.950 . S
C3012 C3011 1.398 . S
C3012 C3013 1.391 . S
C3013 H3001 0.950 . S
C3013 C3009 1.393 . S
C3013 C3012 1.391 . S
C3014 H3004 0.950 . S
C3014 C3015 1.386 . S
C3014 C3016 1.391 . S
C3015 C3014 1.386 . S
C3015 C3019 1.393 . S
C3016 H3005 0.950 . S
C3016 C3014 1.391 . S
C3016 C3017 1.400 . S
C3017 C3011 1.491 . S
C3017 C3016 1.400 . S
C3017 C3018 1.398 . S
C3018 H3006 0.950 . S
C3018 C3017 1.398 . S
C3018 C3019 1.391 . S
C3019 H3007 0.950 . S
C3019 C3015 1.393 . S
C3019 C3018 1.391 . S
H3020 C3028 0.950 . S
H3021 C3033 0.950 . S
H3022 C3030 0.950 . S
H3023 C3032 0.950 . S
H3024 C3034 0.950 . S
H3025 C3036 0.950 . S
H3026 C3038 0.950 . S
H3027 C3039 0.950 . S
C3028 H3020 0.950 . S
C3028 C3029 1.386 . S
C3028 C3030 1.391 . S
C3029 C3028 1.386 . S
C3029 C3033 1.393 . S
C3030 H3022 0.950 . S
C3030 C3028 1.391 . S
C3030 C3031 1.400 . S
C3031 C3030 1.400 . S
C3031 C3032 1.398 . S
C3031 C3037 1.491 . S
C3032 H3023 0.950 . S
C3032 C3031 1.398 . S
C3032 C3033 1.391 . S
C3033 H3021 0.950 . S
C3033 C3029 1.393 . S
C3033 C3032 1.391 . S
C3034 H3024 0.950 . S
C3034 C3035 1.386 . S
C3034 C3036 1.391 . S
C3035 C3034 1.386 . S
C3035 C3039 1.393 . S
C3036 H3025 0.950 . S
C3036 C3034 1.391 . S
C3036 C3037 1.400 . S
C3037 C3031 1.491 . S
C3037 C3036 1.400 . S
C3037 C3038 1.398 . S
C3038 H3026 0.950 . S
C3038 C3037 1.398 . S
C3038 C3039 1.391 . S
C3039 H3027 0.950 . S
C3039 C3035 1.393 . S
C3039 C3038 1.391 . S
H3040 C3048 0.950 . S
H3041 C3053 0.950 . S
H3042 C3050 0.950 . S
H3043 C3052 0.950 . S
H3044 C3054 0.950 . S
H3045 C3056 0.950 . S
H3046 C3058 0.950 . S
H3047 C3059 0.950 . S
C3048 H3040 0.950 . S
C3048 C3049 1.386 . S
C3048 C3050 1.391 . S
C3049 C3048 1.386 . S
C3049 C3053 1.393 . S
C3050 H3042 0.950 . S
C3050 C3048 1.391 . S
C3050 C3051 1.400 . S
C3051 C3050 1.400 . S
C3051 C3052 1.398 . S
C3051 C3057 1.491 . S
C3052 H3043 0.950 . S
C3052 C3051 1.398 . S
C3052 C3053 1.391 . S
C3053 H3041 0.950 . S
C3053 C3049 1.393 . S
C3053 C3052 1.391 . S
C3054 H3044 0.950 . S
C3054 C3055 1.386 . S
C3054 C3056 1.391 . S
C3055 C3054 1.386 . S
C3055 C3059 1.393 . S
C3056 H3045 0.950 . S
C3056 C3054 1.391 . S
C3056 C3057 1.400 . S
C3057 C3051 1.491 . S
C3057 C3056 1.400 . S
C3057 C3058 1.398 . S
C3058 H3046 0.950 . S
C3058 C3057 1.398 . S
C3058 C3059 1.391 . S
C3059 H3047 0.950 . S
C3059 C3055 1.393 . S
C3059 C3058 1.391 . S
H3060 C3068 0.950 . S
H3061 C3073 0.950 . S
H3062 C3070 0.950 . S
H3063 C3072 0.950 . S
H3064 C3074 0.950 . S
H3065 C3076 0.950 . S
H3066 C3078 0.950 . S
H3067 C3079 0.950 . S
C3068 H3060 0.950 . S
C3068 C3069 1.386 . S
C3068 C3070 1.391 . S
C3069 C3068 1.386 . S
C3069 C3073 1.393 . S
C3070 H3062 0.950 . S
C3070 C3068 1.391 . S
C3070 C3071 1.400 . S
C3071 C3070 1.400 . S
C3071 C3072 1.398 . S
C3071 C3077 1.491 . S
C3072 H3063 0.950 . S
C3072 C3071 1.398 . S
C3072 C3073 1.391 . S
C3073 H3061 0.950 . S
C3073 C3069 1.393 . S
C3073 C3072 1.391 . S
C3074 H3064 0.950 . S
C3074 C3075 1.386 . S
C3074 C3076 1.391 . S
C3075 C3074 1.386 . S
C3075 C3079 1.393 . S
C3076 H3065 0.950 . S
C3076 C3074 1.391 . S
C3076 C3077 1.400 . S
C3077 C3071 1.491 . S
C3077 C3076 1.400 . S
C3077 C3078 1.398 . S
C3078 H3066 0.950 . S
C3078 C3077 1.398 . S
C3078 C3079 1.391 . S
C3079 H3067 0.950 . S
C3079 C3075 1.393 . S
C3079 C3078 1.391 . S
H3080 C3088 0.950 . S
H3081 C3093 0.950 . S
H3082 C3090 0.950 . S
H3083 C3092 0.950 . S
H3084 C3094 0.950 . S
H3085 C3096 0.950 . S
H3086 C3098 0.950 . S
H3087 C3099 0.950 . S
C3088 H3080 0.950 . S
C3088 C3089 1.386 . S
C3088 C3090 1.391 . S
C3089 C3088 1.386 . S
C3089 C3093 1.393 . S
C3090 H3082 0.950 . S
C3090 C3088 1.391 . S
C3090 C3091 1.400 . S
C3091 C3090 1.400 . S
C3091 C3092 1.398 . S
C3091 C3097 1.491 . S
C3092 H3083 0.950 . S
C3092 C3091 1.398 . S
C3092 C3093 1.391 . S
C3093 H3081 0.950 . S
C3093 C3089 1.393 . S
C3093 C3092 1.391 . S
C3094 H3084 0.950 . S
C3094 C3095 1.386 . S
C3094 C3096 1.391 . S
C3095 C3094 1.386 . S
C3095 C3099 1.393 . S
C3096 H3085 0.950 . S
C3096 C3094 1.391 . S
C3096 C3097 1.400 . S
C3097 C3091 1.491 . S
C3097 C3096 1.400 . S
C3097 C3098 1.398 . S
C3098 H3086 0.950 . S
C3098 C3097 1.398 . S
C3098 C3099 1.391 . S
C3099 H3087 0.950 . S
C3099 C3095 1.393 . S
C3099 C3098 1.391 . S
H3100 C3108 0.950 . S
H3101 C3113 0.950 . S
H3102 C3110 0.950 . S
H3103 C3112 0.950 . S
H3104 C3114 0.950 . S
H3105 C3116 0.950 . S
H3106 C3118 0.950 . S
H3107 C3119 0.950 . S
C3108 H3100 0.950 . S
C3108 C3109 1.386 . S
C3108 C3110 1.391 . S
C3109 C3108 1.386 . S
C3109 C3113 1.393 . S
C3110 H3102 0.950 . S
C3110 C3108 1.391 . S
C3110 C3111 1.400 . S
C3111 C3110 1.400 . S
C3111 C3112 1.398 . S
C3111 C3117 1.491 . S
C3112 H3103 0.950 . S
C3112 C3111 1.398 . S
C3112 C3113 1.391 . S
C3113 H3101 0.950 . S
C3113 C3109 1.393 . S
C3113 C3112 1.391 . S
C3114 H3104 0.950 . S
C3114 C3115 1.386 . S
C3114 C3116 1.391 . S
C3115 C3114 1.386 . S
C3115 C3119 1.393 . S
C3116 H3105 0.950 . S
C3116 C3114 1.391 . S
C3116 C3117 1.400 . S
C3117 C3111 1.491 . S
C3117 C3116 1.400 . S
C3117 C3118 1.398 . S
C3118 H3106 0.950 . S
C3118 C3117 1.398 . S
C3118 C3119 1.391 . S
C3119 H3107 0.950 . S
C3119 C3115 1.393 . S
C3119 C3118 1.391 . S
H3120 C3128 0.950 . S
H3121 C3133 0.950 . S
H3122 C3130 0.950 . S
H3123 C3132 0.950 . S
H3124 C3134 0.950 . S
H3125 C3136 0.950 . S
H3126 C3138 0.950 . S
H3127 C3139 0.950 . S
C3128 H3120 0.950 . S
C3128 C3129 1.386 . S
C3128 C3130 1.391 . S
C3129 C3128 1.386 . S
C3129 C3133 1.393 1_655 S
C3130 H3122 0.950 . S
C3130 C3128 1.391 . S
C3130 C3131 1.400 1_655 S
C3131 C3130 1.400 1_455 S
C3131 C3132 1.398 . S
C3131 C3137 1.491 . S
C3132 H3123 0.950 . S
C3132 C3131 1.398 . S
C3132 C3133 1.391 . S
C3133 H3121 0.950 . S
C3133 C3129 1.393 1_455 S
C3133 C3132 1.391 . S
C3134 H3124 0.950 . S
C3134 C3135 1.386 . S
C3134 C3136 1.391 . S
C3135 C3134 1.386 . S
C3135 C3139 1.393 1_455 S
C3136 H3125 0.950 . S
C3136 C3134 1.391 . S
C3136 C3137 1.400 . S
C3137 C3131 1.491 . S
C3137 C3136 1.400 . S
C3137 C3138 1.398 1_455 S
C3138 H3126 0.950 . S
C3138 C3137 1.398 1_655 S
C3138 C3139 1.391 . S
C3139 H3127 0.950 . S
C3139 C3135 1.393 1_655 S
C3139 C3138 1.391 . S
H3140 C3148 0.950 . S
H3141 C3153 0.950 . S
H3142 C3150 0.950 . S
H3143 C3152 0.950 . S
H3144 C3154 0.950 . S
H3145 C3156 0.950 . S
H3146 C3158 0.950 . S
H3147 C3159 0.950 . S
C3148 H3140 0.950 . S
C3148 C3149 1.386 . S
C3148 C3150 1.391 . S
C3149 C3148 1.386 . S
C3149 C3153 1.393 . S
C3150 H3142 0.950 . S
C3150 C3148 1.391 . S
C3150 C3151 1.400 . S
C3151 C3150 1.400 . S
C3151 C3152 1.398 . S
C3151 C3157 1.491 . S
C3152 H3143 0.950 . S
C3152 C3151 1.398 . S
C3152 C3153 1.391 . S
C3153 H3141 0.950 . S
C3153 C3149 1.393 . S
C3153 C3152 1.391 . S
C3154 H3144 0.950 . S
C3154 C3155 1.386 . S
C3154 C3156 1.391 . S
C3155 C3154 1.386 . S
C3155 C3159 1.393 . S
C3156 H3145 0.950 . S
C3156 C3154 1.391 . S
C3156 C3157 1.400 . S
C3157 C3151 1.491 . S
C3157 C3156 1.400 . S
C3157 C3158 1.398 . S
C3158 H3146 0.950 . S
C3158 C3157 1.398 . S
C3158 C3159 1.391 . S
C3159 H3147 0.950 . S
C3159 C3155 1.393 . S
C3159 C3158 1.391 . S
H3160 C3168 0.950 . S
H3161 C3173 0.950 . S
H3162 C3170 0.950 . S
H3163 C3172 0.950 . S
H3164 C3174 0.950 . S
H3165 C3176 0.950 . S
H3166 C3178 0.950 . S
H3167 C3179 0.950 . S
C3168 H3160 0.950 . S
C3168 C3169 1.386 . S
C3168 C3170 1.391 . S
C3169 C3168 1.386 . S
C3169 C3173 1.393 1_545 S
C3170 H3162 0.950 . S
C3170 C3168 1.391 . S
C3170 C3171 1.400 1_545 S
C3171 C3170 1.400 1_565 S
C3171 C3172 1.398 . S
C3171 C3177 1.491 . S
C3172 H3163 0.950 . S
C3172 C3171 1.398 . S
C3172 C3173 1.391 . S
C3173 H3161 0.950 . S
C3173 C3169 1.393 1_565 S
C3173 C3172 1.391 . S
C3174 H3164 0.950 . S
C3174 C3175 1.386 . S
C3174 C3176 1.391 . S
C3175 C3174 1.386 . S
C3175 C3179 1.393 1_565 S
C3176 H3165 0.950 . S
C3176 C3174 1.391 . S
C3176 C3177 1.400 . S
C3177 C3171 1.491 . S
C3177 C3176 1.400 . S
C3177 C3178 1.398 1_565 S
C3178 H3166 0.950 . S
C3178 C3177 1.398 1_545 S
C3178 C3179 1.391 . S
C3179 H3167 0.950 . S
C3179 C3175 1.393 1_545 S
C3179 C3178 1.391 . S
H3180 C3188 0.950 . S
H3181 C3193 0.950 . S
H3182 C3190 0.950 . S
H3183 C3192 0.950 . S
H3184 C3194 0.950 . S
H3185 C3196 0.950 . S
H3186 C3198 0.950 . S
H3187 C3199 0.950 . S
C3188 H3180 0.950 . S
C3188 C3189 1.386 1_565 S
C3188 C3190 1.391 . S
C3189 C3188 1.386 1_545 S
C3189 C3193 1.393 . S
C3190 H3182 0.950 . S
C3190 C3188 1.391 . S
C3190 C3191 1.400 1_565 S
C3191 C3190 1.400 1_545 S
C3191 C3192 1.398 . S
C3191 C3197 1.491 . S
C3192 H3183 0.950 . S
C3192 C3191 1.398 . S
C3192 C3193 1.391 . S
C3193 H3181 0.950 . S
C3193 C3189 1.393 . S
C3193 C3192 1.391 . S
C3194 H3184 0.950 . S
C3194 C3195 1.386 1_545 S
C3194 C3196 1.391 . S
C3195 C3194 1.386 1_565 S
C3195 C3199 1.393 . S
C3196 H3185 0.950 . S
C3196 C3194 1.391 . S
C3196 C3197 1.400 . S
C3197 C3191 1.491 . S
C3197 C3196 1.400 . S
C3197 C3198 1.398 1_545 S
C3198 H3186 0.950 . S
C3198 C3197 1.398 1_565 S
C3198 C3199 1.391 . S
C3199 H3187 0.950 . S
C3199 C3195 1.393 . S
C3199 C3198 1.391 . S
H3200 C3208 0.950 . S
H3201 C3213 0.950 . S
H3202 C3210 0.950 . S
H3203 C3212 0.950 . S
H3204 C3214 0.950 . S
H3205 C3216 0.950 . S
H3206 C3218 0.950 . S
H3207 C3219 0.950 . S
C3208 H3200 0.950 . S
C3208 C3209 1.386 . S
C3208 C3210 1.391 . S
C3209 C3208 1.386 . S
C3209 C3213 1.393 1_455 S
C3210 H3202 0.950 . S
C3210 C3208 1.391 . S
C3210 C3211 1.400 1_455 S
C3211 C3210 1.400 1_655 S
C3211 C3212 1.398 . S
C3211 C3217 1.491 . S
C3212 H3203 0.950 . S
C3212 C3211 1.398 . S
C3212 C3213 1.391 . S
C3213 H3201 0.950 . S
C3213 C3209 1.393 1_655 S
C3213 C3212 1.391 . S
C3214 H3204 0.950 . S
C3214 C3215 1.386 . S
C3214 C3216 1.391 . S
C3215 C3214 1.386 . S
C3215 C3219 1.393 1_655 S
C3216 H3205 0.950 . S
C3216 C3214 1.391 . S
C3216 C3217 1.400 . S
C3217 C3211 1.491 . S
C3217 C3216 1.400 . S
C3217 C3218 1.398 1_655 S
C3218 H3206 0.950 . S
C3218 C3217 1.398 1_455 S
C3218 C3219 1.391 . S
C3219 H3207 0.950 . S
C3219 C3215 1.393 1_455 S
C3219 C3218 1.391 . S
H3220 C3228 0.950 . S
H3221 C3233 0.950 . S
H3222 C3230 0.950 . S
H3223 C3232 0.950 . S
H3224 C3234 0.950 . S
H3225 C3236 0.950 . S
H3226 C3238 0.950 . S
H3227 C3239 0.950 . S
C3228 H3220 0.950 . S
C3228 C3229 1.386 . S
C3228 C3230 1.391 . S
C3229 C3228 1.386 . S
C3229 C3233 1.393 . S
C3230 H3222 0.950 . S
C3230 C3228 1.391 . S
C3230 C3231 1.400 . S
C3231 C3230 1.400 . S
C3231 C3232 1.398 . S
C3231 C3237 1.491 . S
C3232 H3223 0.950 . S
C3232 C3231 1.398 . S
C3232 C3233 1.391 . S
C3233 H3221 0.950 . S
C3233 C3229 1.393 . S
C3233 C3232 1.391 . S
C3234 H3224 0.950 . S
C3234 C3235 1.386 . S
C3234 C3236 1.391 . S
C3235 C3234 1.386 . S
C3235 C3239 1.393 . S
C3236 H3225 0.950 . S
C3236 C3234 1.391 . S
C3236 C3237 1.400 . S
C3237 C3231 1.491 . S
C3237 C3236 1.400 . S
C3237 C3238 1.398 . S
C3238 H3226 0.950 . S
C3238 C3237 1.398 . S
C3238 C3239 1.391 . S
C3239 H3227 0.950 . S
C3239 C3235 1.393 . S
C3239 C3238 1.391 . S
H3240 C3248 0.950 . S
H3241 C3253 0.950 . S
H3242 C3250 0.950 . S
H3243 C3252 0.950 . S
H3244 C3254 0.950 . S
H3245 C3256 0.950 . S
H3246 C3258 0.950 . S
H3247 C3259 0.950 . S
C3248 H3240 0.950 . S
C3248 C3249 1.386 . S
C3248 C3250 1.391 . S
C3249 C3248 1.386 . S
C3249 C3253 1.393 . S
C3250 H3242 0.950 . S
C3250 C3248 1.391 . S
C3250 C3251 1.400 . S
C3251 C3250 1.400 . S
C3251 C3252 1.398 . S
C3251 C3257 1.491 1_655 S
C3252 H3243 0.950 . S
C3252 C3251 1.398 . S
C3252 C3253 1.391 . S
C3253 H3241 0.950 . S
C3253 C3249 1.393 . S
C3253 C3252 1.391 . S
C3254 H3244 0.950 . S
C3254 C3255 1.386 . S
C3254 C3256 1.391 . S
C3255 C3254 1.386 . S
C3255 C3259 1.393 . S
C3256 H3245 0.950 . S
C3256 C3254 1.391 . S
C3256 C3257 1.400 . S
C3257 C3251 1.491 1_455 S
C3257 C3256 1.400 . S
C3257 C3258 1.398 . S
C3258 H3246 0.950 . S
C3258 C3257 1.398 . S
C3258 C3259 1.391 . S
C3259 H3247 0.950 . S
C3259 C3255 1.393 . S
C3259 C3258 1.391 . S
H3260 C3268 0.950 . S
H3261 C3273 0.950 . S
H3262 C3270 0.950 . S
H3263 C3272 0.950 . S
H3264 C3274 0.950 . S
H3265 C3276 0.950 . S
H3266 C3278 0.950 . S
H3267 C3279 0.950 . S
C3268 H3260 0.950 . S
C3268 C3269 1.386 . S
C3268 C3270 1.391 . S
C3269 C3268 1.386 . S
C3269 C3273 1.393 . S
C3270 H3262 0.950 . S
C3270 C3268 1.391 . S
C3270 C3271 1.400 . S
C3271 C3270 1.400 . S
C3271 C3272 1.398 . S
C3271 C3277 1.491 . S
C3272 H3263 0.950 . S
C3272 C3271 1.398 . S
C3272 C3273 1.391 . S
C3273 H3261 0.950 . S
C3273 C3269 1.393 . S
C3273 C3272 1.391 . S
C3274 H3264 0.950 . S
C3274 C3275 1.386 . S
C3274 C3276 1.391 . S
C3275 C3274 1.386 . S
C3275 C3279 1.393 . S
C3276 H3265 0.950 . S
C3276 C3274 1.391 . S
C3276 C3277 1.400 . S
C3277 C3271 1.491 . S
C3277 C3276 1.400 . S
C3277 C3278 1.398 . S
C3278 H3266 0.950 . S
C3278 C3277 1.398 . S
C3278 C3279 1.391 . S
C3279 H3267 0.950 . S
C3279 C3275 1.393 . S
C3279 C3278 1.391 . S
H3280 C3288 0.950 . S
H3281 C3293 0.950 . S
H3282 C3290 0.950 . S
H3283 C3292 0.950 . S
H3284 C3294 0.950 . S
H3285 C3296 0.950 . S
H3286 C3298 0.950 . S
H3287 C3299 0.950 . S
C3288 H3280 0.950 . S
C3288 C3289 1.386 . S
C3288 C3290 1.391 . S
C3289 C3288 1.386 . S
C3289 C3293 1.393 . S
C3290 H3282 0.950 . S
C3290 C3288 1.391 . S
C3290 C3291 1.400 . S
C3291 C3290 1.400 . S
C3291 C3292 1.398 . S
C3291 C3297 1.491 1_545 S
C3292 H3283 0.950 . S
C3292 C3291 1.398 . S
C3292 C3293 1.391 . S
C3293 H3281 0.950 . S
C3293 C3289 1.393 . S
C3293 C3292 1.391 . S
C3294 H3284 0.950 . S
C3294 C3295 1.386 . S
C3294 C3296 1.391 . S
C3295 C3294 1.386 . S
C3295 C3299 1.393 . S
C3296 H3285 0.950 . S
C3296 C3294 1.391 . S
C3296 C3297 1.400 . S
C3297 C3291 1.491 1_565 S
C3297 C3296 1.400 . S
C3297 C3298 1.398 . S
C3298 H3286 0.950 . S
C3298 C3297 1.398 . S
C3298 C3299 1.391 . S
C3299 H3287 0.950 . S
C3299 C3295 1.393 . S
C3299 C3298 1.391 . S
H3300 C3308 0.950 . S
H3301 C3313 0.950 . S
H3302 C3310 0.950 1_455 S
H3303 C3312 0.950 . S
H3304 C3314 0.950 . S
H3305 C3316 0.950 1_655 S
H3306 C3318 0.950 . S
H3307 C3319 0.950 . S
C3308 H3300 0.950 . S
C3308 C3309 1.386 . S
C3308 C3310 1.391 . S
C3309 C3308 1.386 . S
C3309 C3313 1.393 . S
C3310 H3302 0.950 1_655 S
C3310 C3308 1.391 . S
C3310 C3311 1.400 . S
C3311 C3310 1.400 . S
C3311 C3312 1.398 . S
C3311 C3317 1.491 1_655 S
C3312 H3303 0.950 . S
C3312 C3311 1.398 . S
C3312 C3313 1.391 . S
C3313 H3301 0.950 . S
C3313 C3309 1.393 . S
C3313 C3312 1.391 . S
C3314 H3304 0.950 . S
C3314 C3315 1.386 . S
C3314 C3316 1.391 . S
C3315 C3314 1.386 . S
C3315 C3319 1.393 . S
C3316 H3305 0.950 1_455 S
C3316 C3314 1.391 . S
C3316 C3317 1.400 . S
C3317 C3311 1.491 1_455 S
C3317 C3316 1.400 . S
C3317 C3318 1.398 . S
C3318 H3306 0.950 . S
C3318 C3317 1.398 . S
C3318 C3319 1.391 . S
C3319 H3307 0.950 . S
C3319 C3315 1.393 . S
C3319 C3318 1.391 . S
H3320 C3328 0.950 . S
H3321 C3333 0.950 . S
H3322 C3330 0.950 . S
H3323 C3332 0.950 . S
H3324 C3334 0.950 . S
H3325 C3336 0.950 . S
H3326 C3338 0.950 . S
H3327 C3339 0.950 . S
C3328 H3320 0.950 . S
C3328 C3329 1.386 . S
C3328 C3330 1.391 . S
C3329 C3328 1.386 . S
C3329 C3333 1.393 . S
C3330 H3322 0.950 . S
C3330 C3328 1.391 . S
C3330 C3331 1.400 . S
C3331 C3330 1.400 . S
C3331 C3332 1.398 . S
C3331 C3337 1.491 . S
C3332 H3323 0.950 . S
C3332 C3331 1.398 . S
C3332 C3333 1.391 . S
C3333 H3321 0.950 . S
C3333 C3329 1.393 . S
C3333 C3332 1.391 . S
C3334 H3324 0.950 . S
C3334 C3335 1.386 . S
C3334 C3336 1.391 . S
C3335 C3334 1.386 . S
C3335 C3339 1.393 . S
C3336 H3325 0.950 . S
C3336 C3334 1.391 . S
C3336 C3337 1.400 . S
C3337 C3331 1.491 . S
C3337 C3336 1.400 . S
C3337 C3338 1.398 . S
C3338 H3326 0.950 . S
C3338 C3337 1.398 . S
C3338 C3339 1.391 . S
C3339 H3327 0.950 . S
C3339 C3335 1.393 . S
C3339 C3338 1.391 . S
H3340 C3348 0.950 . S
H3341 C3353 0.950 1_565 S
H3342 C3350 0.950 . S
H3343 C3352 0.950 . S
H3344 C3354 0.950 . S
H3345 C3356 0.950 . S
H3346 C3358 0.950 . S
H3347 C3359 0.950 1_545 S
C3348 H3340 0.950 . S
C3348 C3349 1.386 . S
C3348 C3350 1.391 . S
C3349 C3348 1.386 . S
C3349 C3353 1.393 . S
C3350 H3342 0.950 . S
C3350 C3348 1.391 . S
C3350 C3351 1.400 . S
C3351 C3350 1.400 . S
C3351 C3352 1.398 1_545 S
C3351 C3357 1.491 1_545 S
C3352 H3343 0.950 . S
C3352 C3351 1.398 1_565 S
C3352 C3353 1.391 1_565 S
C3353 H3341 0.950 1_545 S
C3353 C3349 1.393 . S
C3353 C3352 1.391 1_545 S
C3354 H3344 0.950 . S
C3354 C3355 1.386 . S
C3354 C3356 1.391 . S
C3355 C3354 1.386 . S
C3355 C3359 1.393 . S
C3356 H3345 0.950 . S
C3356 C3354 1.391 . S
C3356 C3357 1.400 . S
C3357 C3351 1.491 1_565 S
C3357 C3356 1.400 . S
C3357 C3358 1.398 1_565 S
C3358 H3346 0.950 . S
C3358 C3357 1.398 1_545 S
C3358 C3359 1.391 1_545 S
C3359 H3347 0.950 1_565 S
C3359 C3355 1.393 . S
C3359 C3358 1.391 1_565 S
H3360 C3368 0.950 . S
H3361 C3373 0.950 . S
H3362 C3370 0.950 . S
H3363 C3372 0.950 . S
H3364 C3374 0.950 . S
H3365 C3376 0.950 . S
H3366 C3378 0.950 . S
H3367 C3379 0.950 . S
C3368 H3360 0.950 . S
C3368 C3369 1.386 . S
C3368 C3370 1.391 . S
C3369 C3368 1.386 . S
C3369 C3373 1.393 . S
C3370 H3362 0.950 . S
C3370 C3368 1.391 . S
C3370 C3371 1.400 . S
C3371 C3370 1.400 . S
C3371 C3372 1.398 . S
C3371 C3377 1.491 . S
C3372 H3363 0.950 . S
C3372 C3371 1.398 . S
C3372 C3373 1.391 . S
C3373 H3361 0.950 . S
C3373 C3369 1.393 . S
C3373 C3372 1.391 . S
C3374 H3364 0.950 . S
C3374 C3375 1.386 . S
C3374 C3376 1.391 . S
C3375 C3374 1.386 . S
C3375 C3379 1.393 . S
C3376 H3365 0.950 . S
C3376 C3374 1.391 . S
C3376 C3377 1.400 . S
C3377 C3371 1.491 . S
C3377 C3376 1.400 . S
C3377 C3378 1.398 . S
C3378 H3366 0.950 . S
C3378 C3377 1.398 . S
C3378 C3379 1.391 . S
C3379 H3367 0.950 . S
C3379 C3375 1.393 . S
C3379 C3378 1.391 . S
H3380 C3388 0.950 . S
H3381 C3393 0.950 . S
H3382 C3390 0.950 . S
H3383 C3392 0.950 . S
H3384 C3394 0.950 . S
H3385 C3396 0.950 . S
H3386 C3398 0.950 . S
H3387 C3399 0.950 . S
C3388 H3380 0.950 . S
C3388 C3389 1.386 . S
C3388 C3390 1.391 . S
C3389 C3388 1.386 . S
C3389 C3393 1.393 . S
C3390 H3382 0.950 . S
C3390 C3388 1.391 . S
C3390 C3391 1.400 . S
C3391 C3390 1.400 . S
C3391 C3392 1.398 . S
C3391 C3397 1.491 . S
C3392 H3383 0.950 . S
C3392 C3391 1.398 . S
C3392 C3393 1.391 . S
C3393 H3381 0.950 . S
C3393 C3389 1.393 . S
C3393 C3392 1.391 . S
C3394 H3384 0.950 . S
C3394 C3395 1.386 . S
C3394 C3396 1.391 . S
C3395 C3394 1.386 . S
C3395 C3399 1.393 . S
C3396 H3385 0.950 . S
C3396 C3394 1.391 . S
C3396 C3397 1.400 . S
C3397 C3391 1.491 . S
C3397 C3396 1.400 . S
C3397 C3398 1.398 . S
C3398 H3386 0.950 . S
C3398 C3397 1.398 . S
C3398 C3399 1.391 . S
C3399 H3387 0.950 . S
C3399 C3395 1.393 . S
C3399 C3398 1.391 . S
H3400 C3408 0.950 . S
H3401 C3413 0.950 . S
H3402 C3410 0.950 . S
H3403 C3412 0.950 . S
H3404 C3414 0.950 . S
H3405 C3416 0.950 . S
H3406 C3418 0.950 . S
H3407 C3419 0.950 . S
C3408 H3400 0.950 . S
C3408 C3409 1.386 . S
C3408 C3410 1.391 . S
C3409 C3408 1.386 . S
C3409 C3413 1.393 . S
C3410 H3402 0.950 . S
C3410 C3408 1.391 . S
C3410 C3411 1.400 . S
C3411 C3410 1.400 . S
C3411 C3412 1.398 . S
C3411 C3417 1.491 . S
C3412 H3403 0.950 . S
C3412 C3411 1.398 . S
C3412 C3413 1.391 . S
C3413 H3401 0.950 . S
C3413 C3409 1.393 . S
C3413 C3412 1.391 . S
C3414 H3404 0.950 . S
C3414 C3415 1.386 . S
C3414 C3416 1.391 . S
C3415 C3414 1.386 . S
C3415 C3419 1.393 . S
C3416 H3405 0.950 . S
C3416 C3414 1.391 . S
C3416 C3417 1.400 . S
C3417 C3411 1.491 . S
C3417 C3416 1.400 . S
C3417 C3418 1.398 . S
C3418 H3406 0.950 . S
C3418 C3417 1.398 . S
C3418 C3419 1.391 . S
C3419 H3407 0.950 . S
C3419 C3415 1.393 . S
C3419 C3418 1.391 . S
H3420 C3428 0.950 . S
H3421 C3433 0.950 . S
H3422 C3430 0.950 . S
H3423 C3432 0.950 . S
H3424 C3434 0.950 . S
H3425 C3436 0.950 . S
H3426 C3438 0.950 . S
H3427 C3439 0.950 . S
C3428 H3420 0.950 . S
C3428 C3429 1.386 . S
C3428 C3430 1.391 . S
C3429 C3428 1.386 . S
C3429 C3433 1.393 . S
C3430 H3422 0.950 . S
C3430 C3428 1.391 . S
C3430 C3431 1.400 . S
C3431 C3430 1.400 . S
C3431 C3432 1.398 . S
C3431 C3437 1.491 . S
C3432 H3423 0.950 . S
C3432 C3431 1.398 . S
C3432 C3433 1.391 . S
C3433 H3421 0.950 . S
C3433 C3429 1.393 . S
C3433 C3432 1.391 . S
C3434 H3424 0.950 . S
C3434 C3435 1.386 . S
C3434 C3436 1.391 . S
C3435 C3434 1.386 . S
C3435 C3439 1.393 . S
C3436 H3425 0.950 . S
C3436 C3434 1.391 . S
C3436 C3437 1.400 . S
C3437 C3431 1.491 . S
C3437 C3436 1.400 . S
C3437 C3438 1.398 . S
C3438 H3426 0.950 . S
C3438 C3437 1.398 . S
C3438 C3439 1.391 . S
C3439 H3427 0.950 . S
C3439 C3435 1.393 . S
C3439 C3438 1.391 . S
H3440 C3448 0.950 . S
H3441 C3453 0.950 . S
H3442 C3450 0.950 . S
H3443 C3452 0.950 . S
H3444 C3454 0.950 . S
H3445 C3456 0.950 . S
H3446 C3458 0.950 . S
H3447 C3459 0.950 . S
C3448 H3440 0.950 . S
C3448 C3449 1.386 . S
C3448 C3450 1.391 . S
C3449 C3448 1.386 . S
C3449 C3453 1.393 . S
C3450 H3442 0.950 . S
C3450 C3448 1.391 . S
C3450 C3451 1.400 . S
C3451 C3450 1.400 . S
C3451 C3452 1.398 . S
C3451 C3457 1.491 . S
C3452 H3443 0.950 . S
C3452 C3451 1.398 . S
C3452 C3453 1.391 . S
C3453 H3441 0.950 . S
C3453 C3449 1.393 . S
C3453 C3452 1.391 . S
C3454 H3444 0.950 . S
C3454 C3455 1.386 . S
C3454 C3456 1.391 . S
C3455 C3454 1.386 . S
C3455 C3459 1.393 . S
C3456 H3445 0.950 . S
C3456 C3454 1.391 . S
C3456 C3457 1.400 . S
C3457 C3451 1.491 . S
C3457 C3456 1.400 . S
C3457 C3458 1.398 . S
C3458 H3446 0.950 . S
C3458 C3457 1.398 . S
C3458 C3459 1.391 . S
C3459 H3447 0.950 . S
C3459 C3455 1.393 . S
C3459 C3458 1.391 . S
H3460 C3468 0.950 . S
H3461 C3473 0.950 . S
H3462 C3470 0.950 . S
H3463 C3472 0.950 . S
H3464 C3474 0.950 . S
H3465 C3476 0.950 . S
H3466 C3478 0.950 . S
H3467 C3479 0.950 . S
C3468 H3460 0.950 . S
C3468 C3469 1.386 . S
C3468 C3470 1.391 . S
C3469 C3468 1.386 . S
C3469 C3473 1.393 . S
C3470 H3462 0.950 . S
C3470 C3468 1.391 . S
C3470 C3471 1.400 . S
C3471 C3470 1.400 . S
C3471 C3472 1.398 . S
C3471 C3477 1.491 . S
C3472 H3463 0.950 . S
C3472 C3471 1.398 . S
C3472 C3473 1.391 . S
C3473 H3461 0.950 . S
C3473 C3469 1.393 . S
C3473 C3472 1.391 . S
C3474 H3464 0.950 . S
C3474 C3475 1.386 . S
C3474 C3476 1.391 . S
C3475 C3474 1.386 . S
C3475 C3479 1.393 . S
C3476 H3465 0.950 . S
C3476 C3474 1.391 . S
C3476 C3477 1.400 . S
C3477 C3471 1.491 . S
C3477 C3476 1.400 . S
C3477 C3478 1.398 . S
C3478 H3466 0.950 . S
C3478 C3477 1.398 . S
C3478 C3479 1.391 . S
C3479 H3467 0.950 . S
C3479 C3475 1.393 . S
C3479 C3478 1.391 . S
H3480 C3488 0.950 . S
H3481 C3493 0.950 . S
H3482 C3490 0.950 . S
H3483 C3492 0.950 . S
H3484 C3494 0.950 . S
H3485 C3496 0.950 . S
H3486 C3498 0.950 . S
H3487 C3499 0.950 . S
C3488 H3480 0.950 . S
C3488 C3489 1.386 . S
C3488 C3490 1.391 . S
C3489 C3488 1.386 . S
C3489 C3493 1.393 . S
C3490 H3482 0.950 . S
C3490 C3488 1.391 . S
C3490 C3491 1.400 . S
C3491 C3490 1.400 . S
C3491 C3492 1.398 . S
C3491 C3497 1.491 . S
C3492 H3483 0.950 . S
C3492 C3491 1.398 . S
C3492 C3493 1.391 . S
C3493 H3481 0.950 . S
C3493 C3489 1.393 . S
C3493 C3492 1.391 . S
C3494 H3484 0.950 . S
C3494 C3495 1.386 . S
C3494 C3496 1.391 . S
C3495 C3494 1.386 . S
C3495 C3499 1.393 . S
C3496 H3485 0.950 . S
C3496 C3494 1.391 . S
C3496 C3497 1.400 . S
C3497 C3491 1.491 . S
C3497 C3496 1.400 . S
C3497 C3498 1.398 . S
C3498 H3486 0.950 . S
C3498 C3497 1.398 . S
C3498 C3499 1.391 . S
C3499 H3487 0.950 . S
C3499 C3495 1.393 . S
C3499 C3498 1.391 . S
H3500 C3508 0.950 . S
H3501 C3513 0.950 . S
H3502 C3510 0.950 . S
H3503 C3512 0.950 . S
H3504 C3514 0.950 . S
H3505 C3516 0.950 . S
H3506 C3518 0.950 . S
H3507 C3519 0.950 . S
C3508 H3500 0.950 . S
C3508 C3509 1.386 . S
C3508 C3510 1.391 . S
C3509 C3508 1.386 . S
C3509 C3513 1.393 . S
C3510 H3502 0.950 . S
C3510 C3508 1.391 . S
C3510 C3511 1.400 . S
C3511 C3510 1.400 . S
C3511 C3512 1.398 . S
C3511 C3517 1.491 . S
C3512 H3503 0.950 . S
C3512 C3511 1.398 . S
C3512 C3513 1.391 . S
C3513 H3501 0.950 . S
C3513 C3509 1.393 . S
C3513 C3512 1.391 . S
C3514 H3504 0.950 . S
C3514 C3515 1.386 . S
C3514 C3516 1.391 . S
C3515 C3514 1.386 . S
C3515 C3519 1.393 . S
C3516 H3505 0.950 . S
C3516 C3514 1.391 . S
C3516 C3517 1.400 . S
C3517 C3511 1.491 . S
C3517 C3516 1.400 . S
C3517 C3518 1.398 . S
C3518 H3506 0.950 . S
C3518 C3517 1.398 . S
C3518 C3519 1.391 . S
C3519 H3507 0.950 . S
C3519 C3515 1.393 . S
C3519 C3518 1.391 . S
H3520 C3528 0.950 . S
H3521 C3533 0.950 . S
H3522 C3530 0.950 . S
H3523 C3532 0.950 . S
H3524 C3534 0.950 . S
H3525 C3536 0.950 . S
H3526 C3538 0.950 . S
H3527 C3539 0.950 . S
C3528 H3520 0.950 . S
C3528 C3529 1.386 . S
C3528 C3530 1.391 . S
C3529 C3528 1.386 . S
C3529 C3533 1.393 . S
C3530 H3522 0.950 . S
C3530 C3528 1.391 . S
C3530 C3531 1.400 . S
C3531 C3530 1.400 . S
C3531 C3532 1.398 . S
C3531 C3537 1.491 . S
C3532 H3523 0.950 . S
C3532 C3531 1.398 . S
C3532 C3533 1.391 . S
C3533 H3521 0.950 . S
C3533 C3529 1.393 . S
C3533 C3532 1.391 . S
C3534 H3524 0.950 . S
C3534 C3535 1.386 . S
C3534 C3536 1.391 . S
C3535 C3534 1.386 . S
C3535 C3539 1.393 . S
C3536 H3525 0.950 . S
C3536 C3534 1.391 . S
C3536 C3537 1.400 . S
C3537 C3531 1.491 . S
C3537 C3536 1.400 . S
C3537 C3538 1.398 . S
C3538 H3526 0.950 . S
C3538 C3537 1.398 . S
C3538 C3539 1.391 . S
C3539 H3527 0.950 . S
C3539 C3535 1.393 . S
C3539 C3538 1.391 . S
H3540 C3548 0.950 . S
H3541 C3553 0.950 . S
H3542 C3550 0.950 . S
H3543 C3552 0.950 . S
H3544 C3554 0.950 . S
H3545 C3556 0.950 . S
H3546 C3558 0.950 . S
H3547 C3559 0.950 . S
C3548 H3540 0.950 . S
C3548 C3549 1.386 . S
C3548 C3550 1.391 . S
C3549 C3548 1.386 . S
C3549 C3553 1.393 . S
C3550 H3542 0.950 . S
C3550 C3548 1.391 . S
C3550 C3551 1.400 . S
C3551 C3550 1.400 . S
C3551 C3552 1.398 . S
C3551 C3557 1.491 . S
C3552 H3543 0.950 . S
C3552 C3551 1.398 . S
C3552 C3553 1.391 . S
C3553 H3541 0.950 . S
C3553 C3549 1.393 . S
C3553 C3552 1.391 . S
C3554 H3544 0.950 . S
C3554 C3555 1.386 . S
C3554 C3556 1.391 . S
C3555 C3554 1.386 . S
C3555 C3559 1.393 . S
C3556 H3545 0.950 . S
C3556 C3554 1.391 . S
C3556 C3557 1.400 . S
C3557 C3551 1.491 . S
C3557 C3556 1.400 . S
C3557 C3558 1.398 . S
C3558 H3546 0.950 . S
C3558 C3557 1.398 . S
C3558 C3559 1.391 . S
C3559 H3547 0.950 . S
C3559 C3555 1.393 . S
C3559 C3558 1.391 . S
H3560 C3568 0.950 . S
H3561 C3573 0.950 . S
H3562 C3570 0.950 . S
H3563 C3572 0.950 . S
H3564 C3574 0.950 . S
H3565 C3576 0.950 . S
H3566 C3578 0.950 . S
H3567 C3579 0.950 . S
C3568 H3560 0.950 . S
C3568 C3569 1.386 . S
C3568 C3570 1.391 . S
C3569 C3568 1.386 . S
C3569 C3573 1.393 . S
C3570 H3562 0.950 . S
C3570 C3568 1.391 . S
C3570 C3571 1.400 . S
C3571 C3570 1.400 . S
C3571 C3572 1.398 . S
C3571 C3577 1.491 . S
C3572 H3563 0.950 . S
C3572 C3571 1.398 . S
C3572 C3573 1.391 . S
C3573 H3561 0.950 . S
C3573 C3569 1.393 . S
C3573 C3572 1.391 . S
C3574 H3564 0.950 . S
C3574 C3575 1.386 . S
C3574 C3576 1.391 . S
C3575 C3574 1.386 . S
C3575 C3579 1.393 . S
C3576 H3565 0.950 . S
C3576 C3574 1.391 . S
C3576 C3577 1.400 . S
C3577 C3571 1.491 . S
C3577 C3576 1.400 . S
C3577 C3578 1.398 . S
C3578 H3566 0.950 . S
C3578 C3577 1.398 . S
C3578 C3579 1.391 . S
C3579 H3567 0.950 . S
C3579 C3575 1.393 . S
C3579 C3578 1.391 . S
H3580 C3588 0.950 . S
H3581 C3593 0.950 . S
H3582 C3590 0.950 . S
H3583 C3592 0.950 . S
H3584 C3594 0.950 . S
H3585 C3596 0.950 . S
H3586 C3598 0.950 . S
H3587 C3599 0.950 . S
C3588 H3580 0.950 . S
C3588 C3589 1.386 . S
C3588 C3590 1.391 . S
C3589 C3588 1.386 . S
C3589 C3593 1.393 . S
C3590 H3582 0.950 . S
C3590 C3588 1.391 . S
C3590 C3591 1.400 . S
C3591 C3590 1.400 . S
C3591 C3592 1.398 . S
C3591 C3597 1.491 . S
C3592 H3583 0.950 . S
C3592 C3591 1.398 . S
C3592 C3593 1.391 . S
C3593 H3581 0.950 . S
C3593 C3589 1.393 . S
C3593 C3592 1.391 . S
C3594 H3584 0.950 . S
C3594 C3595 1.386 . S
C3594 C3596 1.391 . S
C3595 C3594 1.386 . S
C3595 C3599 1.393 . S
C3596 H3585 0.950 . S
C3596 C3594 1.391 . S
C3596 C3597 1.400 . S
C3597 C3591 1.491 . S
C3597 C3596 1.400 . S
C3597 C3598 1.398 . S
C3598 H3586 0.950 . S
C3598 C3597 1.398 . S
C3598 C3599 1.391 . S
C3599 H3587 0.950 . S
C3599 C3595 1.393 . S
C3599 C3598 1.391 . S
C1449 C10 1.731 . S
C1455 C91 1.786 . S
C1469 C11 1.796 . S
C1475 C50 1.727 1_545 S
C1489 C90 1.738 1_655 S
C1495 C51 1.783 . S
C1509 C130 1.808 . S
C1515 C171 1.876 . S
C1529 C211 1.864 . S
C1535 C170 1.816 1_565 S
C1549 C210 1.806 1_455 S
C1555 C131 1.866 . S
C1569 C259 1.734 . S
C1575 C322 1.785 . S
C1589 C299 1.739 1_565 S
C1595 C242 1.784 . S
C1609 C339 1.717 1_455 S
C1615 C282 1.792 . S
C1629 C379 1.812 . S
C1635 C402 1.865 . S
C1649 C442 1.864 . S
C1655 C419 1.816 1_545 S
C1669 C362 1.874 . S
C1675 C459 1.808 1_655 S
C1689 C571 1.854 . S
C1695 C490 1.799 . S
C1709 C530 1.798 . S
C1715 C491 1.854 . S
C1729 C531 1.854 . S
C1735 C570 1.795 . S
C1749 C610 1.828 . S
C1755 C651 1.886 . S
C1769 C691 1.890 . S
C1775 C650 1.817 . S
C1789 C611 1.895 . S
C1795 C690 1.816 . S
C1809 C739 1.765 . S
C1815 C802 1.832 . S
C1829 C779 1.775 . S
C1835 C722 1.820 . S
C1849 C762 1.833 . S
C1855 C819 1.754 . S
C1869 C882 1.714 . S
C1875 C859 1.631 1_554 S
C1889 C899 1.623 1_554 S
C1895 C922 1.712 . S
C1909 C842 1.702 . S
C1915 C939 1.670 1_554 S
C1929 C970 1.770 . S
C1935 C1051 1.820 . S
C1949 C1010 1.758 . S
C1955 C971 1.833 . S
C1969 C1050 1.775 . S
C1975 C1011 1.819 . S
C1989 C1090 1.670 1_556 S
C1995 C1131 1.703 . S
C2009 C1130 1.668 1_556 S
C2015 C1171 1.701 . S
C2029 C1170 1.664 1_556 S
C2035 C1091 1.701 . S
C2049 C1219 1.798 . S
C2055 C1282 1.865 . S
C2069 C1259 1.785 . S
C2075 C1202 1.862 . S
C2089 C1242 1.852 . S
C2095 C1299 1.804 . S
C2109 C1339 1.840 . S
C2115 C1362 1.887 . S
C2129 C1379 1.839 . S
C2135 C1402 1.885 . S
C2149 C1322 1.896 . S
C2155 C1419 1.819 . S
C2169 C2 1.832 . S
C2175 C810 1.804 . S
C2189 C730 1.805 . S
C2195 C42 1.821 . S
C2209 C82 1.831 . S
C2215 C770 1.790 . S
C2229 C122 1.723 . S
C2235 C1370 1.693 . S
C2249 C1410 1.673 . S
C2255 C162 1.716 . S
C2269 C202 1.715 . S
C2275 C1330 1.672 . S
C2289 C1059 1.808 . S
C2295 C251 1.827 . S
C2309 C291 1.831 . S
C2315 C979 1.808 . S
C2329 C331 1.824 . S
C2335 C1019 1.793 . S
C2349 C659 1.683 . S
C2355 C371 1.710 . S
C2369 C699 1.678 . S
C2375 C411 1.711 . S
C2389 C619 1.685 . S
C2395 C451 1.710 . S
C2409 C482 1.780 . S
C2415 C1290 1.735 . S
C2429 C522 1.767 . S
C2435 C1210 1.747 . S
C2449 C1250 1.752 . S
C2455 C562 1.770 . S
C2469 C410 1.739 . S
C2475 C602 1.763 . S
C2489 C450 1.718 . S
C2495 C642 1.762 . S
C2509 C370 1.740 . S
C2515 C682 1.763 . S
C2529 C99 1.798 . S
C2535 C731 1.814 . S
C2549 C771 1.818 . S
C2555 C19 1.805 . S
C2569 C811 1.827 . S
C2575 C59 1.805 . S
C2589 C1139 1.748 1_554 S
C2595 C851 1.789 . S
C2609 C1179 1.749 1_554 S
C2615 C891 1.794 . S
C2629 C931 1.791 . S
C2635 C1099 1.731 . S
C2649 C330 1.786 . S
C2655 C962 1.825 . S
C2669 C250 1.786 . S
C2675 C1002 1.825 . S
C2689 C290 1.790 . S
C2695 C1042 1.829 . S
C2709 C1082 1.784 . S
C2715 C890 1.735 . S
C2729 C930 1.737 1_556 S
C2735 C1122 1.790 . S
C2749 C1162 1.790 . S
C2755 C850 1.749 1_556 S
C2769 C1211 1.781 . S
C2775 C579 1.742 . S
C2789 C1251 1.766 . S
C2795 C499 1.744 . S
C2809 C1291 1.772 . S
C2815 C539 1.753 . S
C2829 C1331 1.769 . S
C2835 C179 1.732 . S
C2849 C219 1.723 . S
C2855 C1371 1.756 . S
C2869 C139 1.726 . S
C2875 C1411 1.754 . S
C2889 C1167 2.333 . S
C2895 C7 2.312 . S
C2909 C1087 2.320 . S
C2915 C47 2.317 . S
C2929 C87 2.326 . S
C2935 C1127 2.303 . S
C2949 C527 2.576 . S
C2955 C127 2.571 . S
C2969 C167 2.583 . S
C2975 C567 2.577 . S
C2989 C207 2.581 . S
C2995 C487 2.583 . S
C3009 C256 2.326 . S
C3015 C936 2.317 . S
C3029 C296 2.324 . S
C3035 C856 2.316 . S
C3049 C336 2.334 . S
C3055 C896 2.312 . S
C3069 C1256 2.582 . S
C3075 C376 2.582 . S
C3089 C1296 2.577 . S
C3095 C416 2.572 . S
C3109 C1216 2.573 . S
C3115 C456 2.577 . S
C3129 C607 2.629 . S
C3135 C1007 2.641 . S
C3149 C647 2.631 . S
C3155 C1047 2.642 . S
C3169 C687 2.628 . S
C3175 C967 2.636 . S
C3189 C736 2.632 . S
C3195 C1416 2.631 . S
C3209 C1336 2.636 . S
C3215 C776 2.631 . S
C3229 C816 2.633 . S
C3235 C1376 2.639 . S
C3249 C176 1.118 . S
C3255 C16 1.119 . S
C3269 C216 1.115 . S
C3275 C56 1.122 . S
C3289 C136 1.117 . S
C3295 C96 1.120 . S
C3309 C247 1.118 . S
C3315 C407 1.119 . S
C3329 C447 1.119 . S
C3335 C287 1.121 . S
C3349 C327 1.123 . S
C3355 C367 1.115 . S
C3369 C656 1.207 . S
C3375 C496 1.215 . S
C3389 C696 1.208 . S
C3395 C536 1.215 . S
C3409 C616 1.213 . S
C3415 C576 1.208 . S
C3429 C887 1.491 . S
C3435 C727 1.512 . S
C3449 C767 1.497 . S
C3455 C927 1.505 . S
C3469 C807 1.501 . S
C3475 C847 1.510 . S
C3489 C976 1.502 . S
C3495 C1136 1.500 . S
C3509 C1176 1.491 . S
C3515 C1016 1.511 . S
C3529 C1056 1.503 . S
C3535 C1096 1.505 . S
C3549 C1207 1.213 . S
C3555 C1367 1.208 . S
C3569 C1407 1.207 . S
C3575 C1247 1.214 . S
C3589 C1287 1.214 . S
C3595 C1327 1.208 . S
