# Generated by pormake.
# Topology wga, (5)-cn, num edge types: 1
# Building blocks:
#     Node 0, Type 0, BuildingBlock: XOMCOT_clean_sbu_1, # of connection points: 5
#     Node 1, Type 0, BuildingBlock: XOMCOT_clean_sbu_1, # of connection points: 5
#     Node 2, Type 0, BuildingBlock: XOMCOT_clean_sbu_1, # of connection points: 5
#     Node 3, Type 0, BuildingBlock: XOMCOT_clean_sbu_1, # of connection points: 5
#     Node 4, Type 0, BuildingBlock: XOMCOT_clean_sbu_1, # of connection points: 5
#     Node 5, Type 0, BuildingBlock: XOMCOT_clean_sbu_1, # of connection points: 5
#     Node 6, Type 0, BuildingBlock: XOMCOT_clean_sbu_1, # of connection points: 5
#     Node 7, Type 0, BuildingBlock: XOMCOT_clean_sbu_1, # of connection points: 5
#     Node 8, Type 0, BuildingBlock: XOMCOT_clean_sbu_1, # of connection points: 5
#     Node 9, Type 0, BuildingBlock: XOMCOT_clean_sbu_1, # of connection points: 5
#     Node 10, Type 0, BuildingBlock: XOMCOT_clean_sbu_1, # of connection points: 5
#     Node 11, Type 0, BuildingBlock: XOMCOT_clean_sbu_1, # of connection points: 5
#     Node 12, Type 0, BuildingBlock: XOMCOT_clean_sbu_1, # of connection points: 5
#     Node 13, Type 0, BuildingBlock: XOMCOT_clean_sbu_1, # of connection points: 5
#     Node 14, Type 0, BuildingBlock: XOMCOT_clean_sbu_1, # of connection points: 5
#     Node 15, Type 0, BuildingBlock: XOMCOT_clean_sbu_1, # of connection points: 5
#     Node 16, Type 0, BuildingBlock: XOMCOT_clean_sbu_1, # of connection points: 5
#     Node 17, Type 0, BuildingBlock: XOMCOT_clean_sbu_1, # of connection points: 5
#     Node 18, Type 0, BuildingBlock: XOMCOT_clean_sbu_1, # of connection points: 5
#     Node 19, Type 0, BuildingBlock: XOMCOT_clean_sbu_1, # of connection points: 5
#     Node 20, Type 0, BuildingBlock: XOMCOT_clean_sbu_1, # of connection points: 5
#     Node 21, Type 0, BuildingBlock: XOMCOT_clean_sbu_1, # of connection points: 5
#     Node 22, Type 0, BuildingBlock: XOMCOT_clean_sbu_1, # of connection points: 5
#     Node 23, Type 0, BuildingBlock: XOMCOT_clean_sbu_1, # of connection points: 5
#     Node 24, Type 0, BuildingBlock: XOMCOT_clean_sbu_1, # of connection points: 5
#     Node 25, Type 0, BuildingBlock: XOMCOT_clean_sbu_1, # of connection points: 5
#     Node 26, Type 0, BuildingBlock: XOMCOT_clean_sbu_1, # of connection points: 5
#     Node 27, Type 0, BuildingBlock: XOMCOT_clean_sbu_1, # of connection points: 5
#     Node 28, Type 0, BuildingBlock: XOMCOT_clean_sbu_1, # of connection points: 5
#     Node 29, Type 0, BuildingBlock: XOMCOT_clean_sbu_1, # of connection points: 5
#     Node 30, Type 0, BuildingBlock: XOMCOT_clean_sbu_1, # of connection points: 5
#     Node 31, Type 0, BuildingBlock: XOMCOT_clean_sbu_1, # of connection points: 5
#     Edge 32, Type (0, 0), BuildingBlock: UVAHIK_clean_linker_0, # of connection points: 2
#     Edge 33, Type (0, 0), BuildingBlock: UVAHIK_clean_linker_0, # of connection points: 2
#     Edge 34, Type (0, 0), BuildingBlock: UVAHIK_clean_linker_0, # of connection points: 2
#     Edge 35, Type (0, 0), BuildingBlock: UVAHIK_clean_linker_0, # of connection points: 2
#     Edge 36, Type (0, 0), BuildingBlock: UVAHIK_clean_linker_0, # of connection points: 2
#     Edge 37, Type (0, 0), BuildingBlock: UVAHIK_clean_linker_0, # of connection points: 2
#     Edge 38, Type (0, 0), BuildingBlock: UVAHIK_clean_linker_0, # of connection points: 2
#     Edge 39, Type (0, 0), BuildingBlock: UVAHIK_clean_linker_0, # of connection points: 2
#     Edge 40, Type (0, 0), BuildingBlock: UVAHIK_clean_linker_0, # of connection points: 2
#     Edge 41, Type (0, 0), BuildingBlock: UVAHIK_clean_linker_0, # of connection points: 2
#     Edge 42, Type (0, 0), BuildingBlock: UVAHIK_clean_linker_0, # of connection points: 2
#     Edge 43, Type (0, 0), BuildingBlock: UVAHIK_clean_linker_0, # of connection points: 2
#     Edge 44, Type (0, 0), BuildingBlock: UVAHIK_clean_linker_0, # of connection points: 2
#     Edge 45, Type (0, 0), BuildingBlock: UVAHIK_clean_linker_0, # of connection points: 2
#     Edge 46, Type (0, 0), BuildingBlock: UVAHIK_clean_linker_0, # of connection points: 2
#     Edge 47, Type (0, 0), BuildingBlock: UVAHIK_clean_linker_0, # of connection points: 2
#     Edge 48, Type (0, 0), BuildingBlock: UVAHIK_clean_linker_0, # of connection points: 2
#     Edge 49, Type (0, 0), BuildingBlock: UVAHIK_clean_linker_0, # of connection points: 2
#     Edge 50, Type (0, 0), BuildingBlock: UVAHIK_clean_linker_0, # of connection points: 2
#     Edge 51, Type (0, 0), BuildingBlock: UVAHIK_clean_linker_0, # of connection points: 2
#     Edge 52, Type (0, 0), BuildingBlock: UVAHIK_clean_linker_0, # of connection points: 2
#     Edge 53, Type (0, 0), BuildingBlock: UVAHIK_clean_linker_0, # of connection points: 2
#     Edge 54, Type (0, 0), BuildingBlock: UVAHIK_clean_linker_0, # of connection points: 2
#     Edge 55, Type (0, 0), BuildingBlock: UVAHIK_clean_linker_0, # of connection points: 2
#     Edge 56, Type (0, 0), BuildingBlock: UVAHIK_clean_linker_0, # of connection points: 2
#     Edge 57, Type (0, 0), BuildingBlock: UVAHIK_clean_linker_0, # of connection points: 2
#     Edge 58, Type (0, 0), BuildingBlock: UVAHIK_clean_linker_0, # of connection points: 2
#     Edge 59, Type (0, 0), BuildingBlock: UVAHIK_clean_linker_0, # of connection points: 2
#     Edge 60, Type (0, 0), BuildingBlock: UVAHIK_clean_linker_0, # of connection points: 2
#     Edge 61, Type (0, 0), BuildingBlock: UVAHIK_clean_linker_0, # of connection points: 2
#     Edge 62, Type (0, 0), BuildingBlock: UVAHIK_clean_linker_0, # of connection points: 2
#     Edge 63, Type (0, 0), BuildingBlock: UVAHIK_clean_linker_0, # of connection points: 2
#     Edge 64, Type (0, 0), BuildingBlock: UVAHIK_clean_linker_0, # of connection points: 2
#     Edge 65, Type (0, 0), BuildingBlock: UVAHIK_clean_linker_0, # of connection points: 2
#     Edge 66, Type (0, 0), BuildingBlock: UVAHIK_clean_linker_0, # of connection points: 2
#     Edge 67, Type (0, 0), BuildingBlock: UVAHIK_clean_linker_0, # of connection points: 2
#     Edge 68, Type (0, 0), BuildingBlock: UVAHIK_clean_linker_0, # of connection points: 2
#     Edge 69, Type (0, 0), BuildingBlock: UVAHIK_clean_linker_0, # of connection points: 2
#     Edge 70, Type (0, 0), BuildingBlock: UVAHIK_clean_linker_0, # of connection points: 2
#     Edge 71, Type (0, 0), BuildingBlock: UVAHIK_clean_linker_0, # of connection points: 2
#     Edge 72, Type (0, 0), BuildingBlock: UVAHIK_clean_linker_0, # of connection points: 2
#     Edge 73, Type (0, 0), BuildingBlock: UVAHIK_clean_linker_0, # of connection points: 2
#     Edge 74, Type (0, 0), BuildingBlock: UVAHIK_clean_linker_0, # of connection points: 2
#     Edge 75, Type (0, 0), BuildingBlock: UVAHIK_clean_linker_0, # of connection points: 2
#     Edge 76, Type (0, 0), BuildingBlock: UVAHIK_clean_linker_0, # of connection points: 2
#     Edge 77, Type (0, 0), BuildingBlock: UVAHIK_clean_linker_0, # of connection points: 2
#     Edge 78, Type (0, 0), BuildingBlock: UVAHIK_clean_linker_0, # of connection points: 2
#     Edge 79, Type (0, 0), BuildingBlock: UVAHIK_clean_linker_0, # of connection points: 2
#     Edge 80, Type (0, 0), BuildingBlock: UVAHIK_clean_linker_0, # of connection points: 2
#     Edge 81, Type (0, 0), BuildingBlock: UVAHIK_clean_linker_0, # of connection points: 2
#     Edge 82, Type (0, 0), BuildingBlock: UVAHIK_clean_linker_0, # of connection points: 2
#     Edge 83, Type (0, 0), BuildingBlock: UVAHIK_clean_linker_0, # of connection points: 2
#     Edge 84, Type (0, 0), BuildingBlock: UVAHIK_clean_linker_0, # of connection points: 2
#     Edge 85, Type (0, 0), BuildingBlock: UVAHIK_clean_linker_0, # of connection points: 2
#     Edge 86, Type (0, 0), BuildingBlock: UVAHIK_clean_linker_0, # of connection points: 2
#     Edge 87, Type (0, 0), BuildingBlock: UVAHIK_clean_linker_0, # of connection points: 2
#     Edge 88, Type (0, 0), BuildingBlock: UVAHIK_clean_linker_0, # of connection points: 2
#     Edge 89, Type (0, 0), BuildingBlock: UVAHIK_clean_linker_0, # of connection points: 2
#     Edge 90, Type (0, 0), BuildingBlock: UVAHIK_clean_linker_0, # of connection points: 2
#     Edge 91, Type (0, 0), BuildingBlock: UVAHIK_clean_linker_0, # of connection points: 2
#     Edge 92, Type (0, 0), BuildingBlock: UVAHIK_clean_linker_0, # of connection points: 2
#     Edge 93, Type (0, 0), BuildingBlock: UVAHIK_clean_linker_0, # of connection points: 2
#     Edge 94, Type (0, 0), BuildingBlock: UVAHIK_clean_linker_0, # of connection points: 2
#     Edge 95, Type (0, 0), BuildingBlock: UVAHIK_clean_linker_0, # of connection points: 2
#     Edge 96, Type (0, 0), BuildingBlock: UVAHIK_clean_linker_0, # of connection points: 2
#     Edge 97, Type (0, 0), BuildingBlock: UVAHIK_clean_linker_0, # of connection points: 2
#     Edge 98, Type (0, 0), BuildingBlock: UVAHIK_clean_linker_0, # of connection points: 2
#     Edge 99, Type (0, 0), BuildingBlock: UVAHIK_clean_linker_0, # of connection points: 2
#     Edge 100, Type (0, 0), BuildingBlock: UVAHIK_clean_linker_0, # of connection points: 2
#     Edge 101, Type (0, 0), BuildingBlock: UVAHIK_clean_linker_0, # of connection points: 2
#     Edge 102, Type (0, 0), BuildingBlock: UVAHIK_clean_linker_0, # of connection points: 2
#     Edge 103, Type (0, 0), BuildingBlock: UVAHIK_clean_linker_0, # of connection points: 2
#     Edge 104, Type (0, 0), BuildingBlock: UVAHIK_clean_linker_0, # of connection points: 2
#     Edge 105, Type (0, 0), BuildingBlock: UVAHIK_clean_linker_0, # of connection points: 2
#     Edge 106, Type (0, 0), BuildingBlock: UVAHIK_clean_linker_0, # of connection points: 2
#     Edge 107, Type (0, 0), BuildingBlock: UVAHIK_clean_linker_0, # of connection points: 2
#     Edge 108, Type (0, 0), BuildingBlock: UVAHIK_clean_linker_0, # of connection points: 2
#     Edge 109, Type (0, 0), BuildingBlock: UVAHIK_clean_linker_0, # of connection points: 2
#     Edge 110, Type (0, 0), BuildingBlock: UVAHIK_clean_linker_0, # of connection points: 2
#     Edge 111, Type (0, 0), BuildingBlock: UVAHIK_clean_linker_0, # of connection points: 2
# Relax obj value: 0.100
# Max RMSD: 0.111
# Mean RMSD: 0.111
data_MOF--net-wga--node1-XOMCOT_clean_sbu_1--edge1-UVAHIK_clean_linker_0
_symmetry_space_group_name_H-M    P1
_symmetry_Int_Tables_number       1
_symmetry_cell_setting            triclinic
loop_
_symmetry_equiv_pos_as_xyz
'x, y, z'
_cell_length_a     137.64274
_cell_length_b     137.57762
_cell_length_c     22.150134
_cell_angle_alpha  89.987763
_cell_angle_beta   89.983575
_cell_angle_gamma 90.006496
loop_
_atom_site_label
_atom_site_type_symbol
_atom_site_fract_x
_atom_site_fract_y
_atom_site_fract_z
_atom_type_partial_charge
C0 C 0.0777 0.57511 0.05839 0.0
C1 C 0.07684 0.57626 0.997 0.0
N2 N 0.08205 0.56923 0.9694 0.0
N3 N 0.08334 0.56734 0.06989 0.0
C4 C 0.08595 0.56393 0.01494 0.0
H5 H 0.07437 0.57961 0.09264 0.0
Co6 Co 0.08647 0.56312 0.14717 0.0
C7 C 0.08773 0.54178 0.1393 0.0
O8 O 0.08284 0.54126 0.19024 0.0
N9 N 0.08996 0.55911 0.22647 0.0
C10 C 0.09908 0.55282 0.29998 0.0
C11 C 0.09818 0.55411 0.23878 0.0
C12 C 0.08615 0.56103 0.28174 0.0
N13 N 0.09152 0.5572 0.32706 0.0
O14 O 0.09959 0.56716 0.1339 0.0
H15 H 0.10332 0.55165 0.20516 0.0
H16 H 0.07968 0.56526 0.28942 0.0
O17 O 0.08962 0.5501 0.11623 0.0
C18 C 0.10174 0.5753 0.15773 0.0
O19 O 0.09512 0.57979 0.19012 0.0
N20 N 0.07323 0.55994 0.15886 0.0
C21 C 0.05294 0.55883 0.16504 0.0
C22 C 0.05823 0.55243 0.12832 0.0
C23 C 0.06832 0.55327 0.12462 0.0
C24 C 0.06816 0.56644 0.19297 0.0
C25 C 0.05806 0.5659 0.19776 0.0
H26 H 0.07205 0.54894 0.09128 0.0
H27 H 0.07192 0.57245 0.21391 0.0
H28 H 0.09071 0.55777 1.00862 0.0
H29 H 0.07256 0.58179 0.97472 0.0
H30 H 0.10503 0.54923 0.32287 0.0
H31 H 0.05455 0.54719 0.09989 0.0
H32 H 0.05427 0.57116 0.22548 0.0
C33 C 0.67053 0.82668 0.3286 0.0
C34 C 0.66929 0.82591 0.26721 0.0
N35 N 0.67645 0.83092 0.23947 0.0
N36 N 0.67847 0.83208 0.33993 0.0
C37 C 0.68191 0.83462 0.28491 0.0
H38 H 0.66598 0.82344 0.36297 0.0
Co39 Co 0.68294 0.83494 0.41709 0.0
C40 C 0.70426 0.83542 0.40662 0.0
O41 O 0.70469 0.83024 0.45642 0.0
N42 N 0.68724 0.83817 0.49631 0.0
C43 C 0.69403 0.84695 0.56975 0.0
C44 C 0.69272 0.84609 0.50854 0.0
C45 C 0.68506 0.83453 0.55165 0.0
N46 N 0.68918 0.83968 0.59694 0.0
O47 O 0.67905 0.84817 0.4058 0.0
H48 H 0.69544 0.8511 0.4749 0.0
H49 H 0.68039 0.82838 0.55943 0.0
O50 O 0.69599 0.83789 0.38497 0.0
C51 C 0.67097 0.85007 0.43122 0.0
O52 O 0.6667 0.84317 0.46257 0.0
N53 N 0.68588 0.8216 0.42731 0.0
C54 C 0.68717 0.80133 0.4362 0.0
C55 C 0.69322 0.80652 0.3967 0.0
C56 C 0.69227 0.81659 0.39161 0.0
C57 C 0.67956 0.81661 0.46315 0.0
C58 C 0.68021 0.80652 0.46941 0.0
H59 H 0.6964 0.82024 0.35701 0.0
H60 H 0.67362 0.8204 0.48455 0.0
H61 H 0.68822 0.83917 0.27844 0.0
H62 H 0.66361 0.82182 0.245 0.0
H63 H 0.69793 0.8527 0.59257 0.0
H64 H 0.69853 0.80282 0.36883 0.0
H65 H 0.67501 0.8028 0.49787 0.0
C66 C 0.42489 0.42042 0.57395 0.0
C67 C 0.42577 0.41934 0.51258 0.0
N68 N 0.42002 0.42596 0.48529 0.0
N69 N 0.41871 0.42775 0.58577 0.0
C70 C 0.4158 0.43097 0.53099 0.0
H71 H 0.42853 0.41611 0.60798 0.0
Co72 Co 0.41522 0.43152 0.6633 0.0
C73 C 0.41355 0.45278 0.66091 0.0
O74 O 0.41825 0.4528 0.71257 0.0
N75 N 0.41136 0.43503 0.74282 0.0
C76 C 0.40174 0.44071 0.81585 0.0
C77 C 0.40284 0.43954 0.7547 0.0
C78 C 0.41516 0.43327 0.79828 0.0
N79 N 0.4095 0.43674 0.84329 0.0
O80 O 0.40227 0.42705 0.64855 0.0
H81 H 0.39766 0.44181 0.72076 0.0
H82 H 0.42188 0.42948 0.80635 0.0
O83 O 0.41183 0.44468 0.63439 0.0
C84 C 0.4014 0.4183 0.66646 0.0
O85 O 0.40907 0.41403 0.68995 0.0
N86 N 0.42833 0.435 0.67717 0.0
C87 C 0.44854 0.43654 0.68761 0.0
C88 C 0.44331 0.44296 0.65069 0.0
C89 C 0.43325 0.44191 0.64487 0.0
C90 C 0.43337 0.42847 0.71116 0.0
C91 C 0.44342 0.42923 0.71815 0.0
H92 H 0.42957 0.44632 0.61171 0.0
H93 H 0.42964 0.4223 0.73049 0.0
H94 H 0.41055 0.43674 0.52494 0.0
H95 H 0.43038 0.41411 0.49009 0.0
H96 H 0.39557 0.44395 0.83845 0.0
H97 H 0.447 0.44841 0.62392 0.0
H98 H 0.44716 0.42396 0.74602 0.0
C99 C 0.82788 0.17169 0.85507 0.0
C100 C 0.82908 0.17251 0.79368 0.0
N101 N 0.82208 0.16726 0.76608 0.0
N102 N 0.82013 0.16603 0.86653 0.0
C103 C 0.81677 0.16338 0.81158 0.0
H104 H 0.83232 0.17509 0.88936 0.0
Co105 Co 0.8158 0.16307 0.94387 0.0
C106 C 0.79454 0.16192 0.93443 0.0
O107 O 0.79407 0.16713 0.98408 0.0
N108 N 0.81167 0.15975 0.02324 0.0
C109 C 0.80523 0.15072 0.09677 0.0
C110 C 0.80653 0.1516 0.03558 0.0
C111 C 0.81367 0.1635 0.07852 0.0
N112 N 0.80975 0.1582 0.12385 0.0
O113 O 0.82017 0.14999 0.93324 0.0
H114 H 0.80403 0.14647 1.00201 0.0
H115 H 0.81806 0.16986 0.08624 0.0
O116 O 0.80283 0.15965 0.91226 0.0
C117 C 0.82872 0.14904 0.95424 0.0
O118 O 0.83285 0.15667 0.97915 0.0
N119 N 0.81241 0.17631 0.9536 0.0
C120 C 0.81068 0.19656 0.96008 0.0
C121 C 0.80478 0.19114 0.92101 0.0
C122 C 0.80593 0.18107 0.91723 0.0
C123 C 0.81856 0.18153 0.98926 0.0
C124 C 0.81767 0.19162 0.99439 0.0
H125 H 0.80192 0.17723 0.88288 0.0
H126 H 0.82458 0.17794 0.01114 0.0
H127 H 0.8106 0.15862 0.80522 0.0
H128 H 0.8346 0.1768 0.77139 0.0
H129 H 0.80156 0.14482 0.11967 0.0
H130 H 0.79946 0.19465 0.89234 0.0
H131 H 0.82276 0.19554 0.02262 0.0
C132 C 0.07368 0.42209 0.88573 0.0
C133 C 0.07239 0.4214 0.94713 0.0
N134 N 0.07822 0.42796 0.97406 0.0
N135 N 0.08022 0.42911 0.87379 0.0
C136 C 0.08295 0.43251 0.92852 0.0
H137 H 0.07005 0.41776 0.85176 0.0
Co138 Co 0.08398 0.43267 0.79622 0.0
C139 C 0.08743 0.45379 0.80108 0.0
O140 O 0.08289 0.45454 0.74907 0.0
N141 N 0.08806 0.43596 0.71691 0.0
C142 C 0.09811 0.44084 0.6441 0.0
C143 C 0.09684 0.43994 0.70522 0.0
C144 C 0.08426 0.43426 0.66137 0.0
N145 N 0.09021 0.43723 0.61618 0.0
O146 O 0.09655 0.42727 0.81082 0.0
H147 H 0.10207 0.44201 0.73928 0.0
H148 H 0.07747 0.43059 0.65365 0.0
O149 O 0.08839 0.44542 0.82576 0.0
C150 C 0.09699 0.41842 0.79441 0.0
O151 O 0.08916 0.41443 0.77111 0.0
N152 N 0.07118 0.4372 0.78282 0.0
C153 C 0.05106 0.44016 0.77729 0.0
C154 C 0.05698 0.44619 0.8127 0.0
C155 C 0.06695 0.44443 0.81614 0.0
C156 C 0.06549 0.43115 0.74923 0.0
C157 C 0.05547 0.43261 0.74481 0.0
H158 H 0.07107 0.44851 0.84882 0.0
H159 H 0.06864 0.42472 0.72917 0.0
H160 H 0.08819 0.43828 0.93488 0.0
H161 H 0.06762 0.41636 0.97019 0.0
H162 H 0.10443 0.44392 0.62223 0.0
H163 H 0.05389 0.45199 0.83957 0.0
H164 H 0.05115 0.42748 0.71916 0.0
C165 C 0.82977 0.83377 0.17401 0.0
C166 C 0.8313 0.83412 0.23538 0.0
N167 N 0.82261 0.83463 0.2632 0.0
N168 N 0.82016 0.83416 0.16273 0.0
C169 C 0.81598 0.83458 0.21811 0.0
H170 H 0.83534 0.83312 0.13988 0.0
Co171 Co 0.81451 0.83376 0.08565 0.0
C172 C 0.79634 0.84465 0.10338 0.0
O173 O 0.79811 0.84984 0.05485 0.0
N174 N 0.80889 0.83312 1.00772 0.0
C175 C 0.79847 0.82974 0.93389 0.0
C176 C 0.79983 0.82995 0.99526 0.0
C177 C 0.81296 0.8346 0.95268 0.0
N178 N 0.80675 0.83262 0.90669 0.0
O179 O 0.81834 0.84702 0.07293 0.0
H180 H 0.79456 0.82774 0.02874 0.0
H181 H 0.82043 0.83674 0.94631 0.0
O182 O 0.80224 0.83802 0.11983 0.0
C183 C 0.82675 0.84796 0.04967 0.0
O184 O 0.83153 0.84006 0.0343 0.0
N185 N 0.81154 0.8207 0.09721 0.0
C186 C 0.8097 0.80057 0.10586 0.0
C187 C 0.80309 0.80673 0.13542 0.0
C188 C 0.80417 0.81684 0.13086 0.0
C189 C 0.81799 0.81484 0.06829 0.0
C190 C 0.8172 0.80477 0.07181 0.0
H191 H 0.79914 0.82149 0.15465 0.0
H192 H 0.8238 0.81807 0.04216 0.0
H193 H 0.80822 0.83483 0.22543 0.0
H194 H 0.83828 0.83379 0.25779 0.0
H195 H 0.79185 0.82756 0.91139 0.0
H196 H 0.79726 0.80378 0.16265 0.0
H197 H 0.82238 0.80032 0.04754 0.0
C198 C 0.40998 0.58188 0.49102 0.0
C199 C 0.40942 0.58319 0.55247 0.0
N200 N 0.41011 0.57445 0.57948 0.0
N201 N 0.41091 0.57232 0.4788 0.0
C202 C 0.41107 0.56799 0.53376 0.0
H203 H 0.40993 0.58759 0.4576 0.0
Co204 Co 0.41239 0.56691 0.4016 0.0
C205 C 0.40147 0.54861 0.41409 0.0
O206 O 0.39608 0.55088 0.36719 0.0
N207 N 0.41407 0.56149 0.32371 0.0
C208 C 0.41789 0.55113 0.25024 0.0
C209 C 0.41733 0.55244 0.31159 0.0
C210 C 0.41285 0.56557 0.26849 0.0
N211 N 0.41509 0.55941 0.22283 0.0
O212 O 0.39925 0.57052 0.38265 0.0
H213 H 0.41921 0.54706 0.34522 0.0
H214 H 0.41057 0.57299 0.26166 0.0
O215 O 0.40803 0.55447 0.43219 0.0
C216 C 0.39838 0.57888 0.35853 0.0
O217 O 0.40629 0.58393 0.34727 0.0
N218 N 0.42534 0.56416 0.41961 0.0
C219 C 0.44518 0.56285 0.44318 0.0
C220 C 0.43896 0.55508 0.45695 0.0
C221 C 0.429 0.5559 0.44527 0.0
C222 C 0.43128 0.57173 0.40565 0.0
C223 C 0.44122 0.57126 0.41725 0.0
H224 H 0.42433 0.54989 0.45694 0.0
H225 H 0.42822 0.57822 0.3856 0.0
H226 H 0.41193 0.56024 0.54021 0.0
H227 H 0.40885 0.59011 0.57551 0.0
H228 H 0.42011 0.54451 0.22778 0.0
H229 H 0.44174 0.54849 0.47739 0.0
H230 H 0.44578 0.57738 0.40532 0.0
C231 C 0.66932 0.16283 0.71145 0.0
C232 C 0.6679 0.16263 0.77287 0.0
N233 N 0.67663 0.16282 0.80049 0.0
N234 N 0.67892 0.16303 0.69964 0.0
C235 C 0.68319 0.16307 0.75483 0.0
H236 H 0.66367 0.16299 0.67772 0.0
Co237 Co 0.68453 0.1639 0.62252 0.0
C238 C 0.70242 0.15244 0.63599 0.0
O239 O 0.70059 0.1478 0.58543 0.0
N240 N 0.69015 0.165 0.54466 0.0
C241 C 0.70068 0.16835 0.47113 0.0
C242 C 0.6992 0.16826 0.53251 0.0
C243 C 0.68621 0.16336 0.48945 0.0
N244 N 0.6925 0.16528 0.44391 0.0
O245 O 0.68029 0.15088 0.60547 0.0
H246 H 0.70443 0.1705 0.5662 0.0
H247 H 0.67889 0.1608 0.48238 0.0
O248 O 0.69662 0.15898 0.65499 0.0
C249 C 0.67189 0.1504 0.58149 0.0
O250 O 0.66735 0.15855 0.56879 0.0
N251 N 0.68791 0.17676 0.63849 0.0
C252 C 0.68994 0.19666 0.65827 0.0
C253 C 0.69695 0.1901 0.67991 0.0
C254 C 0.69576 0.18012 0.6699 0.0
C255 C 0.68113 0.18301 0.61657 0.0
C256 C 0.68199 0.19299 0.62589 0.0
H257 H 0.7011 0.17516 0.68792 0.0
H258 H 0.67495 0.18019 0.59203 0.0
H259 H 0.69095 0.16359 0.76136 0.0
H260 H 0.66091 0.16237 0.79514 0.0
H261 H 0.70721 0.17074 0.44831 0.0
H262 H 0.70315 0.19265 0.70546 0.0
H263 H 0.67649 0.19779 0.60762 0.0
C264 C 0.92471 0.42573 0.95246 0.0
C265 C 0.92589 0.42522 0.01399 0.0
N266 N 0.91958 0.43143 0.04003 0.0
N267 N 0.91776 0.4323 0.93947 0.0
C268 C 0.91469 0.4356 0.99377 0.0
H269 H 0.92863 0.42152 0.91922 0.0
Co270 Co 0.91357 0.4354 0.86169 0.0
C271 C 0.91157 0.4567 0.86138 0.0
O272 O 0.9159 0.45684 0.80848 0.0
N273 N 0.90902 0.43833 0.78272 0.0
C274 C 0.89884 0.44347 0.71127 0.0
C275 C 0.90037 0.44264 0.77229 0.0
C276 C 0.9125 0.43641 0.72662 0.0
N277 N 0.90648 0.43954 0.68231 0.0
O278 O 0.90079 0.43092 0.88196 0.0
H279 H 0.89543 0.44509 0.80714 0.0
H280 H 0.91915 0.43256 0.71773 0.0
O281 O 0.91016 0.4486 0.88842 0.0
C282 C 0.9001 0.4217 0.88307 0.0
O283 O 0.90785 0.41647 0.87092 0.0
N284 N 0.92649 0.439 0.84262 0.0
C285 C 0.9465 0.44111 0.82376 0.0
C286 C 0.94144 0.44754 0.86152 0.0
C287 C 0.9315 0.44621 0.87157 0.0
C288 C 0.9314 0.43241 0.80832 0.0
C289 C 0.94133 0.43345 0.79704 0.0
H290 H 0.92803 0.45071 0.90511 0.0
H291 H 0.9277 0.42599 0.79216 0.0
H292 H 0.90902 0.44097 0.99924 0.0
H293 H 0.93086 0.42048 0.03776 0.0
H294 H 0.89259 0.4468 0.69013 0.0
H295 H 0.94516 0.4534 0.88451 0.0
H296 H 0.94502 0.428 0.77015 0.0
C297 C 0.32536 0.1739 0.7129 0.0
C298 C 0.32624 0.17482 0.77439 0.0
N299 N 0.32007 0.16851 0.80108 0.0
N300 N 0.31859 0.16713 0.70036 0.0
C301 C 0.31552 0.16394 0.7549 0.0
H302 H 0.32944 0.17789 0.67934 0.0
Co303 Co 0.31519 0.16312 0.62269 0.0
C304 C 0.29388 0.16153 0.6247 0.0
O305 O 0.29368 0.16601 0.5723 0.0
N306 N 0.31194 0.15875 0.54373 0.0
C307 C 0.30634 0.14881 0.47217 0.0
C308 C 0.30744 0.15018 0.53321 0.0
C309 C 0.31371 0.16232 0.48764 0.0
N310 N 0.3103 0.15645 0.44345 0.0
O311 O 0.31954 0.15024 0.64164 0.0
H312 H 0.30511 0.14518 0.568 0.0
H313 H 0.31741 0.16905 0.47848 0.0
O314 O 0.30202 0.15989 0.65076 0.0
C315 C 0.32876 0.14954 0.63971 0.0
O316 O 0.33386 0.15729 0.62533 0.0
N317 N 0.31178 0.17613 0.6048 0.0
C318 C 0.31011 0.19618 0.58574 0.0
C319 C 0.30363 0.19129 0.62407 0.0
C320 C 0.30474 0.18132 0.63424 0.0
C321 C 0.31844 0.18089 0.57015 0.0
C322 C 0.31761 0.19083 0.55874 0.0
H323 H 0.30024 0.17794 0.66816 0.0
H324 H 0.3247 0.17701 0.55324 0.0
H325 H 0.31021 0.1582 0.76043 0.0
H326 H 0.33104 0.17981 0.79742 0.0
H327 H 0.30308 0.14255 0.45062 0.0
H328 H 0.29803 0.19521 0.64837 0.0
H329 H 0.32294 0.1943 0.52996 0.0
C330 C 0.58933 0.57832 0.47002 0.0
C331 C 0.59113 0.5782 0.53096 0.0
N332 N 0.58822 0.56958 0.55337 0.0
N333 N 0.58537 0.56978 0.45328 0.0
C334 C 0.58473 0.56459 0.50521 0.0
H335 H 0.59051 0.58443 0.44024 0.0
Co336 Co 0.58093 0.56722 0.37494 0.0
C337 C 0.58392 0.54592 0.35272 0.0
O338 O 0.57792 0.54601 0.30671 0.0
N339 N 0.57629 0.56508 0.29423 0.0
C340 C 0.56643 0.56339 0.21491 0.0
C341 C 0.5669 0.56477 0.27609 0.0
C342 C 0.58138 0.56401 0.2419 0.0
N343 N 0.57553 0.5629 0.19318 0.0
O344 O 0.59342 0.57092 0.34424 0.0
H345 H 0.56061 0.56552 0.30469 0.0
H346 H 0.58923 0.56387 0.23952 0.0
O347 O 0.58548 0.55373 0.38262 0.0
C348 C 0.59389 0.57938 0.32105 0.0
O349 O 0.58581 0.58437 0.31483 0.0
N350 N 0.56862 0.56437 0.40722 0.0
C351 C 0.54932 0.56298 0.44524 0.0
C352 C 0.55524 0.55469 0.44211 0.0
C353 C 0.5649 0.55553 0.42331 0.0
C354 C 0.5632 0.57258 0.41408 0.0
C355 C 0.55351 0.57205 0.43233 0.0
H356 H 0.56924 0.54904 0.42168 0.0
H357 H 0.56632 0.57955 0.40236 0.0
H358 H 0.58159 0.55739 0.50781 0.0
H359 H 0.59395 0.58421 0.5572 0.0
H360 H 0.55986 0.563 0.18821 0.0
H361 H 0.55243 0.54757 0.4536 0.0
H362 H 0.54926 0.57867 0.43378 0.0
C363 C 0.16986 0.82703 0.19384 0.0
C364 C 0.16883 0.82584 0.25511 0.0
N365 N 0.17679 0.82946 0.28266 0.0
N366 N 0.17842 0.83138 0.18242 0.0
C367 C 0.18248 0.83281 0.23731 0.0
H368 H 0.16467 0.82492 0.15959 0.0
Co369 Co 0.18256 0.83447 0.10494 0.0
C370 C 0.20381 0.8366 0.11223 0.0
O371 O 0.20445 0.83178 0.06112 0.0
N372 N 0.18646 0.8379 0.02536 0.0
C373 C 0.19192 0.84735 0.95096 0.0
C374 C 0.19067 0.84653 0.01218 0.0
C375 C 0.18511 0.83369 0.97061 0.0
N376 N 0.18842 0.83926 0.92456 0.0
O377 O 0.17789 0.84746 0.11627 0.0
H378 H 0.19256 0.852 0.04518 0.0
H379 H 0.18167 0.82674 0.96399 0.0
O380 O 0.19545 0.83819 0.13559 0.0
C381 C 0.16934 0.84829 0.09499 0.0
O382 O 0.16537 0.84064 0.06937 0.0
N383 N 0.18618 0.82136 0.09462 0.0
C384 C 0.18765 0.8011 0.08849 0.0
C385 C 0.19411 0.80652 0.12405 0.0
C386 C 0.19311 0.81662 0.12769 0.0
C387 C 0.17962 0.81616 0.06187 0.0
C388 C 0.18035 0.80608 0.05696 0.0
H389 H 0.19755 0.82046 0.15985 0.0
H390 H 0.17351 0.81983 0.04137 0.0
H391 H 0.1895 0.83617 0.24383 0.0
H392 H 0.16257 0.82272 0.27746 0.0
H393 H 0.19488 0.8536 0.92774 0.0
H394 H 0.19956 0.80295 0.15142 0.0
H395 H 0.17507 0.80221 0.02979 0.0
C396 C 0.91476 0.58236 0.09211 0.0
C397 C 0.91436 0.58386 0.0307 0.0
N398 N 0.914 0.57515 1.00307 0.0
N399 N 0.91453 0.57275 0.10359 0.0
C400 C 0.91415 0.56853 0.0483 0.0
H401 H 0.91535 0.58796 0.12611 0.0
Co402 Co 0.91514 0.56712 0.18068 0.0
C403 C 0.9042 0.54896 0.16456 0.0
O404 O 0.89921 0.55072 0.21392 0.0
N405 N 0.916 0.56152 0.25856 0.0
C406 C 0.91956 0.55113 0.33224 0.0
C407 C 0.91924 0.55248 0.27087 0.0
C408 C 0.91458 0.56559 0.31365 0.0
N409 N 0.91667 0.5594 0.35955 0.0
O410 O 0.90192 0.57091 0.19478 0.0
H411 H 0.92141 0.54721 0.23727 0.0
H412 H 0.9124 0.57305 0.32009 0.0
O413 O 0.91078 0.55486 0.14715 0.0
C414 C 0.90087 0.5793 0.2181 0.0
O415 O 0.90868 0.58426 0.23266 0.0
N416 N 0.92818 0.56412 0.1677 0.0
C417 C 0.94825 0.56203 0.15688 0.0
C418 C 0.94192 0.55562 0.12702 0.0
C419 C 0.93185 0.55682 0.13275 0.0
C420 C 0.93419 0.57041 0.1968 0.0
C421 C 0.94424 0.56948 0.19225 0.0
H422 H 0.92708 0.55193 0.10879 0.0
H423 H 0.93112 0.57617 0.22397 0.0
H424 H 0.91403 0.56076 0.04115 0.0
H425 H 0.9146 0.59084 1.00813 0.0
H426 H 0.92181 0.54452 0.35465 0.0
H427 H 0.9447 0.54984 0.09868 0.0
H428 H 0.94883 0.57451 0.21679 0.0
C429 C 0.16742 0.16196 0.85124 0.0
C430 C 0.1658 0.16163 0.78993 0.0
N431 N 0.17445 0.16114 0.76162 0.0
N432 N 0.17705 0.16158 0.86193 0.0
C433 C 0.18115 0.16117 0.80635 0.0
H434 H 0.16191 0.16252 0.88584 0.0
Co435 Co 0.18269 0.16179 0.93891 0.0
C436 C 0.20108 0.15141 0.91945 0.0
O437 O 0.19933 0.14594 0.96682 0.0
N438 N 0.18827 0.16221 0.01693 0.0
C439 C 0.19857 0.16562 0.09132 0.0
C440 C 0.19728 0.16546 0.02991 0.0
C441 C 0.18415 0.16065 0.07171 0.0
N442 N 0.19028 0.16265 0.11806 0.0
O443 O 0.1793 0.14837 0.94859 0.0
H444 H 0.20255 0.16782 0.9968 0.0
H445 H 0.17667 0.15848 0.07759 0.0
O446 O 0.19508 0.15803 0.9041 0.0
C447 C 0.17098 0.14658 0.97107 0.0
O448 O 0.16566 0.1539 0.99021 0.0
N449 N 0.18532 0.17498 0.92981 0.0
C450 C 0.18699 0.19517 0.92507 0.0
C451 C 0.19341 0.18922 0.89245 0.0
C452 C 0.19242 0.17909 0.89511 0.0
C453 C 0.17901 0.18063 0.96147 0.0
C454 C 0.17973 0.19073 0.95997 0.0
H455 H 0.19731 0.17462 0.86896 0.0
H456 H 0.17339 0.17723 0.98831 0.0
H457 H 0.1889 0.16086 0.79863 0.0
H458 H 0.15879 0.16192 0.76792 0.0
H459 H 0.20514 0.16786 0.11415 0.0
H460 H 0.19904 0.19235 0.86434 0.0
H461 H 0.17469 0.19501 0.98649 0.0
C462 C 0.57494 0.42227 0.53496 0.0
C463 C 0.57395 0.42154 0.47348 0.0
N464 N 0.58046 0.42751 0.44706 0.0
N465 N 0.58196 0.42876 0.54783 0.0
C466 C 0.58523 0.43182 0.49342 0.0
H467 H 0.57086 0.41823 0.56825 0.0
Co468 Co 0.58625 0.43171 0.62567 0.0
C469 C 0.58825 0.45298 0.62907 0.0
O470 O 0.58417 0.45285 0.68274 0.0
N471 N 0.59089 0.43447 0.70475 0.0
C472 C 0.60116 0.43951 0.77616 0.0
C473 C 0.5997 0.43849 0.71516 0.0
C474 C 0.58725 0.43292 0.7609 0.0
N475 N 0.59331 0.436 0.80497 0.0
O476 O 0.59905 0.42748 0.60413 0.0
H477 H 0.60477 0.44064 0.68032 0.0
H478 H 0.58028 0.4297 0.77017 0.0
O479 O 0.58946 0.44501 0.60022 0.0
C480 C 0.6 0.4183 0.60009 0.0
O481 O 0.59237 0.41276 0.60963 0.0
N482 N 0.57334 0.43509 0.64596 0.0
C483 C 0.55327 0.43657 0.66491 0.0
C484 C 0.55818 0.44335 0.62875 0.0
C485 C 0.56816 0.44236 0.61873 0.0
C486 C 0.56859 0.42823 0.67916 0.0
C487 C 0.55864 0.42894 0.69045 0.0
H488 H 0.57154 0.44712 0.5862 0.0
H489 H 0.5725 0.42189 0.69487 0.0
H490 H 0.59118 0.43689 0.48811 0.0
H491 H 0.56878 0.41694 0.45029 0.0
H492 H 0.60758 0.44246 0.79762 0.0
H493 H 0.55427 0.44909 0.6057 0.0
H494 H 0.55517 0.42342 0.71779 0.0
C495 C 0.32355 0.82454 0.36248 0.0
C496 C 0.3244 0.82356 0.30101 0.0
N497 N 0.31824 0.82985 0.27421 0.0
N498 N 0.31681 0.83135 0.3749 0.0
C499 C 0.31372 0.8345 0.32031 0.0
H500 H 0.32763 0.82057 0.3961 0.0
Co501 Co 0.31343 0.83536 0.45258 0.0
C502 C 0.29216 0.83785 0.44985 0.0
O503 O 0.2917 0.8336 0.50293 0.0
N504 N 0.31024 0.8397 0.5316 0.0
C505 C 0.30502 0.84974 0.60376 0.0
C506 C 0.30615 0.84845 0.54267 0.0
C507 C 0.31174 0.83592 0.58743 0.0
N508 N 0.30856 0.84184 0.63197 0.0
O509 O 0.31814 0.84812 0.43426 0.0
H510 H 0.3041 0.85364 0.50822 0.0
H511 H 0.31509 0.82898 0.59611 0.0
O512 O 0.30041 0.83898 0.42412 0.0
C513 C 0.32736 0.84869 0.43696 0.0
O514 O 0.3323 0.84089 0.45212 0.0
N515 N 0.30963 0.82244 0.46955 0.0
C516 C 0.30797 0.80223 0.48102 0.0
C517 C 0.30138 0.80751 0.4455 0.0
C518 C 0.30247 0.81756 0.43924 0.0
C519 C 0.31623 0.81737 0.50288 0.0
C520 C 0.31541 0.80733 0.51041 0.0
H521 H 0.29795 0.82123 0.40664 0.0
H522 H 0.32252 0.82106 0.52093 0.0
H523 H 0.30842 0.84023 0.31467 0.0
H524 H 0.32917 0.81852 0.27811 0.0
H525 H 0.30203 0.8561 0.62574 0.0
H526 H 0.2958 0.80383 0.41967 0.0
H527 H 0.32079 0.80357 0.5374 0.0
C528 C 0.57278 0.07501 0.5401 0.0
C529 C 0.57156 0.07532 0.47857 0.0
N530 N 0.5784 0.06967 0.45281 0.0
N531 N 0.5803 0.0691 0.55344 0.0
C532 C 0.58364 0.06603 0.49926 0.0
H533 H 0.56854 0.07896 0.57304 0.0
Co534 Co 0.58492 0.06658 0.6312 0.0
C535 C 0.58865 0.04538 0.63452 0.0
O536 O 0.58535 0.04507 0.69015 0.0
N537 N 0.58986 0.06427 0.71005 0.0
C538 C 0.60054 0.06028 0.78154 0.0
C539 C 0.59893 0.0609 0.72051 0.0
C540 C 0.5862 0.06583 0.76615 0.0
N541 N 0.59253 0.06339 0.81048 0.0
O542 O 0.59743 0.07145 0.60819 0.0
H543 H 0.60406 0.0589 0.68569 0.0
H544 H 0.57915 0.06889 0.77498 0.0
O545 O 0.58879 0.05347 0.60599 0.0
C546 C 0.59812 0.08061 0.60154 0.0
O547 O 0.59033 0.08599 0.609 0.0
N548 N 0.57228 0.06245 0.65299 0.0
C549 C 0.55245 0.05953 0.67453 0.0
C550 C 0.55778 0.05293 0.63941 0.0
C551 C 0.56763 0.05462 0.62819 0.0
C552 C 0.5671 0.06912 0.68521 0.0
C553 C 0.55725 0.0677 0.69771 0.0
H554 H 0.57129 0.0499 0.59674 0.0
H555 H 0.57054 0.07582 0.69908 0.0
H556 H 0.58982 0.06124 0.49401 0.0
H557 H 0.5662 0.07959 0.45457 0.0
H558 H 0.60711 0.05762 0.8027 0.0
H559 H 0.55432 0.04664 0.61936 0.0
H560 H 0.55334 0.07321 0.72279 0.0
C561 C 0.17276 0.32212 0.81805 0.0
C562 C 0.17192 0.32114 0.75659 0.0
N563 N 0.17799 0.32752 0.72981 0.0
N564 N 0.17941 0.32901 0.8305 0.0
C565 C 0.18246 0.33221 0.77592 0.0
H566 H 0.16872 0.3181 0.85166 0.0
Co567 Co 0.1827 0.33307 0.90817 0.0
C568 C 0.20392 0.33573 0.90636 0.0
O569 O 0.20432 0.33146 0.9594 0.0
N570 N 0.18578 0.33748 0.98723 0.0
C571 C 0.19085 0.34762 0.05926 0.0
C572 C 0.18976 0.3463 0.99819 0.0
C573 C 0.18431 0.3337 0.04311 0.0
N574 N 0.1874 0.33969 0.08757 0.0
O575 O 0.17787 0.34577 0.88955 0.0
H576 H 0.19175 0.35149 0.96367 0.0
H577 H 0.18106 0.32672 0.05188 0.0
O578 O 0.19571 0.33682 0.8801 0.0
C579 C 0.16865 0.34622 0.89285 0.0
O580 O 0.16384 0.33837 0.90879 0.0
N581 N 0.18662 0.3202 0.9254 0.0
C582 C 0.18841 0.3 0.93688 0.0
C583 C 0.19497 0.30532 0.90141 0.0
C584 C 0.19382 0.31537 0.89512 0.0
C585 C 0.18005 0.31509 0.95873 0.0
C586 C 0.18093 0.30505 0.96628 0.0
H587 H 0.19832 0.31907 0.86253 0.0
H588 H 0.17372 0.31873 0.97672 0.0
H589 H 0.18768 0.33802 0.77031 0.0
H590 H 0.1672 0.31605 0.73368 0.0
H591 H 0.19374 0.35403 0.08115 0.0
H592 H 0.20058 0.30169 0.87562 0.0
H593 H 0.17558 0.30126 0.99326 0.0
C594 C 0.92477 0.9229 0.05807 0.0
C595 C 0.92601 0.92259 0.99655 0.0
N596 N 0.91937 0.92849 0.97086 0.0
N597 N 0.91745 0.92905 0.07143 0.0
C598 C 0.91423 0.93228 0.01731 0.0
H599 H 0.92887 0.91881 0.09101 0.0
Co600 Co 0.91295 0.93166 0.14927 0.0
C601 C 0.90984 0.95287 0.15277 0.0
O602 O 0.91372 0.95303 0.20698 0.0
N603 N 0.90813 0.93408 0.22826 0.0
C604 C 0.8976 0.93843 0.29981 0.0
C605 C 0.89918 0.93774 0.23878 0.0
C606 C 0.91175 0.93242 0.28432 0.0
N607 N 0.90552 0.93508 0.32869 0.0
O608 O 0.90036 0.92691 0.12687 0.0
H609 H 0.8941 0.93989 0.20399 0.0
H610 H 0.91871 0.92914 0.29311 0.0
O611 O 0.90914 0.94481 0.12428 0.0
C612 C 0.89966 0.91774 0.12069 0.0
O613 O 0.90741 0.91234 0.1294 0.0
N614 N 0.92569 0.93565 0.17018 0.0
C615 C 0.94564 0.93832 0.18906 0.0
C616 C 0.94031 0.94486 0.15355 0.0
C617 C 0.93041 0.94327 0.14348 0.0
C618 C 0.93085 0.92903 0.20293 0.0
C619 C 0.94075 0.93033 0.21411 0.0
H620 H 0.92678 0.94789 0.11131 0.0
H621 H 0.92736 0.92242 0.21789 0.0
H622 H 0.90824 0.93731 0.01211 0.0
H623 H 0.93123 0.91817 0.97251 0.0
H624 H 0.89113 0.94132 0.32102 0.0
H625 H 0.9438 0.95101 0.13205 0.0
H626 H 0.94465 0.92484 0.23945 0.0
C627 C 0.32466 0.67548 0.29926 0.0
C628 C 0.32557 0.67637 0.23776 0.0
N629 N 0.31938 0.67008 0.21115 0.0
N630 N 0.31787 0.66874 0.31188 0.0
C631 C 0.31479 0.66554 0.25737 0.0
H632 H 0.32876 0.67946 0.33276 0.0
Co633 Co 0.31443 0.66475 0.3896 0.0
C634 C 0.2931 0.66345 0.38776 0.0
O635 O 0.29291 0.66795 0.4401 0.0
N636 N 0.31115 0.66041 0.46856 0.0
C637 C 0.3054 0.65054 0.54012 0.0
C638 C 0.30649 0.65192 0.47908 0.0
C639 C 0.31301 0.66392 0.52467 0.0
N640 N 0.30951 0.6581 0.56886 0.0
O641 O 0.31849 0.65179 0.37045 0.0
H642 H 0.30405 0.64698 0.44429 0.0
H643 H 0.31685 0.67058 0.53383 0.0
O644 O 0.30122 0.66175 0.36179 0.0
C645 C 0.32766 0.65069 0.36867 0.0
O646 O 0.33325 0.65825 0.37912 0.0
N647 N 0.31125 0.67781 0.40777 0.0
C648 C 0.30967 0.69782 0.42858 0.0
C649 C 0.30317 0.69305 0.38984 0.0
C650 C 0.30424 0.6831 0.3788 0.0
C651 C 0.31797 0.68246 0.44253 0.0
C652 C 0.31719 0.69238 0.4548 0.0
H653 H 0.2997 0.67981 0.34478 0.0
H654 H 0.3242 0.67851 0.4591 0.0
H655 H 0.30947 0.65982 0.25189 0.0
H656 H 0.33039 0.68134 0.21467 0.0
H657 H 0.30203 0.64433 0.56166 0.0
H658 H 0.29758 0.69704 0.36607 0.0
H659 H 0.32254 0.69577 0.48382 0.0
C660 C 0.57304 0.92219 0.41289 0.0
C661 C 0.57207 0.92116 0.47426 0.0
N662 N 0.57812 0.92747 0.50174 0.0
N663 N 0.5796 0.9292 0.40125 0.0
C664 C 0.58262 0.93226 0.45614 0.0
H665 H 0.56921 0.91808 0.37876 0.0
Co666 Co 0.58334 0.93285 0.3239 0.0
C667 C 0.58643 0.95406 0.32751 0.0
O668 O 0.58222 0.95464 0.27437 0.0
N669 N 0.58742 0.93622 0.24456 0.0
C670 C 0.5973 0.94132 0.17122 0.0
C671 C 0.59619 0.94023 0.23244 0.0
C672 C 0.58349 0.93468 0.18921 0.0
N673 N 0.58931 0.93781 0.14399 0.0
O674 O 0.5961 0.92795 0.33973 0.0
H675 H 0.60151 0.94219 0.26623 0.0
H676 H 0.57656 0.93127 0.18141 0.0
O677 O 0.58726 0.94578 0.35352 0.0
C678 C 0.59766 0.91947 0.31891 0.0
O679 O 0.59063 0.91511 0.28925 0.0
N680 N 0.57042 0.93696 0.30946 0.0
C681 C 0.55031 0.93966 0.29968 0.0
C682 C 0.55597 0.94585 0.33562 0.0
C683 C 0.56595 0.94424 0.34105 0.0
C684 C 0.56496 0.93068 0.27604 0.0
C685 C 0.55495 0.932 0.26944 0.0
H686 H 0.5699 0.94854 0.37349 0.0
H687 H 0.56831 0.92426 0.25703 0.0
H688 H 0.58817 0.93774 0.46235 0.0
H689 H 0.56717 0.91616 0.4966 0.0
H690 H 0.60364 0.9442 0.14845 0.0
H691 H 0.55269 0.95173 0.3609 0.0
H692 H 0.55083 0.92677 0.24344 0.0
C693 C 0.3247 0.323 0.66806 0.0
C694 C 0.32554 0.32203 0.72953 0.0
N695 N 0.31942 0.32837 0.75626 0.0
N696 N 0.31801 0.32985 0.65556 0.0
C697 C 0.31494 0.33303 0.71012 0.0
H698 H 0.32875 0.31899 0.63449 0.0
Co699 Co 0.31468 0.33387 0.57783 0.0
C700 C 0.29343 0.33631 0.57979 0.0
O701 O 0.29306 0.33205 0.52673 0.0
N702 N 0.31155 0.33824 0.49876 0.0
C703 C 0.30635 0.34831 0.4267 0.0
C704 C 0.30747 0.347 0.48777 0.0
C705 C 0.31305 0.33447 0.4429 0.0
N706 N 0.30988 0.34041 0.39843 0.0
O707 O 0.31938 0.34664 0.59619 0.0
H708 H 0.30542 0.35218 0.52226 0.0
H709 H 0.31637 0.32753 0.43415 0.0
O710 O 0.30163 0.33749 0.60596 0.0
C711 C 0.3286 0.3472 0.59413 0.0
O712 O 0.33358 0.33937 0.58014 0.0
N713 N 0.31088 0.32095 0.56072 0.0
C714 C 0.30912 0.30077 0.54821 0.0
C715 C 0.30257 0.30603 0.58412 0.0
C716 C 0.30371 0.31607 0.59091 0.0
C717 C 0.31747 0.3159 0.52721 0.0
C718 C 0.3166 0.30587 0.51915 0.0
H719 H 0.29921 0.31972 0.62368 0.0
H720 H 0.32378 0.31959 0.5093 0.0
H721 H 0.30968 0.33881 0.71569 0.0
H722 H 0.33026 0.31695 0.75249 0.0
H723 H 0.30338 0.35468 0.40478 0.0
H724 H 0.29697 0.30235 0.60974 0.0
H725 H 0.32195 0.30212 0.4919 0.0
C726 C 0.9259 0.07346 0.92627 0.0
C727 C 0.92715 0.07383 0.98776 0.0
N728 N 0.92069 0.06777 0.01365 0.0
N729 N 0.91874 0.06712 0.91315 0.0
C730 C 0.91563 0.06383 0.96737 0.0
H731 H 0.9299 0.07763 0.89314 0.0
Co732 Co 0.91443 0.06429 0.83529 0.0
C733 C 0.91128 0.04309 0.83375 0.0
O734 O 0.91539 0.0428 0.78019 0.0
N735 N 0.90978 0.06166 0.75625 0.0
C736 C 0.89935 0.05717 0.68451 0.0
C737 C 0.90086 0.05793 0.74555 0.0
C738 C 0.91346 0.06328 0.70028 0.0
N739 N 0.90728 0.06055 0.65578 0.0
O740 O 0.90184 0.0692 0.85597 0.0
H741 H 0.89575 0.05582 0.78022 0.0
H742 H 0.92039 0.06662 0.69169 0.0
O743 O 0.91047 0.05122 0.86137 0.0
C744 C 0.9013 0.07843 0.85831 0.0
O745 O 0.90914 0.08357 0.84684 0.0
N746 N 0.92719 0.06018 0.81615 0.0
C747 C 0.94729 0.05778 0.80309 0.0
C748 C 0.9418 0.05125 0.83779 0.0
C749 C 0.93183 0.0527 0.84493 0.0
C750 C 0.93246 0.06671 0.78344 0.0
C751 C 0.94246 0.06555 0.7752 0.0
H752 H 0.92805 0.04817 0.87696 0.0
H753 H 0.92901 0.07325 0.76687 0.0
H754 H 0.9098 0.05862 0.97276 0.0
H755 H 0.93228 0.07839 0.01164 0.0
H756 H 0.89292 0.05424 0.6632 0.0
H757 H 0.94524 0.04526 0.86129 0.0
H758 H 0.94645 0.07102 0.75029 0.0
C759 C 0.16702 0.66309 0.15923 0.0
C760 C 0.16541 0.66295 0.22053 0.0
N761 N 0.17406 0.66253 0.24909 0.0
N762 N 0.17663 0.66266 0.14853 0.0
C763 C 0.18074 0.66239 0.20412 0.0
H764 H 0.1615 0.66352 0.12462 0.0
Co765 Co 0.18225 0.66281 0.07147 0.0
C766 C 0.20068 0.65253 0.09059 0.0
O767 O 0.199 0.64708 0.04304 0.0
N768 N 0.18779 0.66317 0.99339 0.0
C769 C 0.19805 0.66631 0.91814 0.0
C770 C 0.19674 0.66655 0.97961 0.0
C771 C 0.18373 0.66115 0.93907 0.0
N772 N 0.18986 0.66292 0.8925 0.0
O773 O 0.17889 0.64938 0.06218 0.0
H774 H 0.20193 0.66925 0.01217 0.0
H775 H 0.17638 0.65854 0.93346 0.0
O776 O 0.19464 0.65909 0.10611 0.0
C777 C 0.17056 0.64753 0.04 0.0
O778 O 0.16514 0.65481 0.02137 0.0
N779 N 0.18489 0.67602 0.08026 0.0
C780 C 0.18649 0.6962 0.08632 0.0
C781 C 0.19286 0.69021 0.11904 0.0
C782 C 0.19191 0.6801 0.11569 0.0
C783 C 0.17865 0.6817 0.04828 0.0
C784 C 0.17934 0.6918 0.05043 0.0
H785 H 0.19674 0.67561 0.14209 0.0
H786 H 0.17309 0.67832 0.02088 0.0
H787 H 0.1885 0.6623 0.21147 0.0
H788 H 0.15835 0.66309 0.24201 0.0
H789 H 0.20444 0.66878 0.89406 0.0
H790 H 0.1984 0.69331 0.14792 0.0
H791 H 0.17434 0.69611 0.0238 0.0
C792 C 0.42246 0.92327 0.43064 0.0
C793 C 0.42339 0.92224 0.49206 0.0
N794 N 0.41751 0.92875 0.5194 0.0
N795 N 0.4161 0.93045 0.41883 0.0
C796 C 0.41315 0.93362 0.47366 0.0
H797 H 0.4262 0.91906 0.39658 0.0
Co798 Co 0.41249 0.93428 0.34146 0.0
C799 C 0.41004 0.95554 0.34789 0.0
O800 O 0.41454 0.9562 0.29569 0.0
N801 N 0.40853 0.93788 0.26229 0.0
C802 C 0.39882 0.94345 0.18942 0.0
C803 C 0.39995 0.94228 0.25058 0.0
C804 C 0.41234 0.93621 0.20674 0.0
N805 N 0.40663 0.93961 0.16179 0.0
O806 O 0.39967 0.92943 0.35607 0.0
H807 H 0.39473 0.94442 0.28461 0.0
H808 H 0.4191 0.93249 0.19858 0.0
O809 O 0.40872 0.94718 0.37193 0.0
C810 C 0.39894 0.92066 0.33838 0.0
O811 O 0.40663 0.91654 0.31413 0.0
N812 N 0.42548 0.93819 0.32768 0.0
C813 C 0.44558 0.9406 0.31486 0.0
C814 C 0.44018 0.94674 0.35272 0.0
C815 C 0.43019 0.94527 0.35966 0.0
C816 C 0.43071 0.93186 0.29322 0.0
C817 C 0.44069 0.93305 0.28503 0.0
H818 H 0.42642 0.94953 0.39308 0.0
H819 H 0.42718 0.92554 0.2743 0.0
H820 H 0.40779 0.93929 0.47975 0.0
H821 H 0.42815 0.91714 0.51456 0.0
H822 H 0.39259 0.94661 0.16697 0.0
H823 H 0.44366 0.95251 0.37797 0.0
H824 H 0.44462 0.92782 0.25785 0.0
C825 C 0.82415 0.67349 0.22756 0.0
C826 C 0.82458 0.67483 0.28888 0.0
N827 N 0.81772 0.66923 0.31509 0.0
N828 N 0.81705 0.66709 0.21465 0.0
C829 C 0.81327 0.66457 0.26881 0.0
H830 H 0.82886 0.67682 0.19439 0.0
Co831 Co 0.81436 0.66276 0.13686 0.0
C832 C 0.79323 0.65992 0.13106 0.0
O833 O 0.79338 0.66401 0.07744 0.0
N834 N 0.81191 0.65809 0.05748 0.0
C835 C 0.80803 0.64752 0.98516 0.0
C836 C 0.80894 0.64891 0.04621 0.0
C837 C 0.81277 0.66212 1.00179 0.0
N838 N 0.81042 0.65585 0.95693 0.0
O839 O 0.81905 0.65012 0.15871 0.0
H840 H 0.80746 0.6435 0.08043 0.0
H841 H 0.81495 0.66951 0.9937 0.0
O842 O 0.80114 0.65902 0.16094 0.0
C843 C 0.82826 0.64947 0.16052 0.0
O844 O 0.83348 0.65719 0.14761 0.0
N845 N 0.81056 0.67556 0.1171 0.0
C846 C 0.80882 0.69573 0.10389 0.0
C847 C 0.80198 0.69045 0.1374 0.0
C848 C 0.80309 0.68041 0.14461 0.0
C849 C 0.8174 0.68064 0.08569 0.0
C850 C 0.81656 0.69066 0.07732 0.0
H851 H 0.79832 0.67675 0.17577 0.0
H852 H 0.8238 0.67693 0.0692 0.0
H853 H 0.80743 0.65938 0.27407 0.0
H854 H 0.82978 0.67936 0.31226 0.0
H855 H 0.8059 0.6408 0.9635 0.0
H856 H 0.79614 0.6941 0.16103 0.0
H857 H 0.82211 0.69443 0.05176 0.0
C858 C 0.07593 0.07533 0.93059 0.0
C859 C 0.07502 0.07641 0.99201 0.0
N860 N 0.08062 0.06967 0.01946 0.0
N861 N 0.08199 0.06789 0.9189 0.0
C862 C 0.08479 0.06461 0.97379 0.0
H863 H 0.07237 0.07968 0.89645 0.0
Co864 Co 0.08548 0.06391 0.84167 0.0
C865 C 0.08712 0.04255 0.8484 0.0
O866 O 0.08257 0.04198 0.79634 0.0
N867 N 0.08933 0.06013 0.76254 0.0
C868 C 0.09877 0.05414 0.68959 0.0
C869 C 0.0977 0.05534 0.75078 0.0
C870 C 0.08561 0.06202 0.70701 0.0
N871 N 0.09116 0.05837 0.66199 0.0
O872 O 0.09849 0.06808 0.85733 0.0
H873 H 0.1028 0.05294 0.78479 0.0
H874 H 0.07904 0.06606 0.69892 0.0
O875 O 0.0887 0.05088 0.87216 0.0
C876 C 0.10071 0.07632 0.83521 0.0
O877 O 0.09421 0.08093 0.80252 0.0
N878 N 0.07234 0.06054 0.82757 0.0
C879 C 0.05215 0.05873 0.81558 0.0
C880 C 0.05741 0.05244 0.85323 0.0
C881 C 0.06743 0.05363 0.85986 0.0
C882 C 0.06727 0.06699 0.79302 0.0
C883 C 0.05724 0.0661 0.78528 0.0
H884 H 0.07107 0.04929 0.89343 0.0
H885 H 0.07097 0.0732 0.7738 0.0
H886 H 0.08991 0.05874 0.97997 0.0
H887 H 0.07047 0.0817 0.01442 0.0
H888 H 0.10485 0.0507 0.66711 0.0
H889 H 0.05379 0.04678 0.87875 0.0
H890 H 0.05344 0.07144 0.75815 0.0
C891 C 0.66936 0.33557 0.72074 0.0
C892 C 0.668 0.33609 0.7822 0.0
N893 N 0.67676 0.33582 0.80928 0.0
N894 N 0.67895 0.33508 0.70861 0.0
C895 C 0.68327 0.33515 0.76361 0.0
H896 H 0.66367 0.33535 0.68724 0.0
Co897 Co 0.68446 0.33387 0.63146 0.0
C898 C 0.70251 0.34511 0.64287 0.0
O899 O 0.70063 0.34967 0.59207 0.0
N900 N 0.68999 0.33243 0.5536 0.0
C901 C 0.70036 0.32858 0.48031 0.0
C902 C 0.69899 0.32904 0.54166 0.0
C903 C 0.68598 0.33381 0.49832 0.0
N904 N 0.69216 0.33156 0.45271 0.0
O905 O 0.68049 0.34692 0.61301 0.0
H906 H 0.70426 0.32699 0.5755 0.0
H907 H 0.6786 0.33618 0.49142 0.0
O908 O 0.69668 0.33867 0.66286 0.0
C909 C 0.67211 0.34762 0.589 0.0
O910 O 0.66727 0.3396 0.57736 0.0
N911 N 0.68763 0.321 0.64877 0.0
C912 C 0.68961 0.30108 0.66808 0.0
C913 C 0.69664 0.30761 0.68972 0.0
C914 C 0.69548 0.3176 0.67996 0.0
C915 C 0.68077 0.31479 0.62729 0.0
C916 C 0.68161 0.30481 0.63638 0.0
H917 H 0.70088 0.32253 0.69768 0.0
H918 H 0.67459 0.31765 0.60291 0.0
H919 H 0.69104 0.33467 0.77018 0.0
H920 H 0.66107 0.33636 0.80519 0.0
H921 H 0.70696 0.32627 0.45804 0.0
H922 H 0.70288 0.30503 0.7148 0.0
H923 H 0.67608 0.30004 0.61813 0.0
C924 C 0.42375 0.076 0.61297 0.0
C925 C 0.42462 0.07721 0.55165 0.0
N926 N 0.41911 0.07045 0.5238 0.0
N927 N 0.41779 0.06846 0.62419 0.0
C928 C 0.41503 0.06524 0.56912 0.0
H929 H 0.4273 0.0803 0.64739 0.0
Co930 Co 0.41466 0.06427 0.70152 0.0
C931 C 0.41224 0.04303 0.69238 0.0
O932 O 0.41717 0.04222 0.74297 0.0
N933 N 0.41119 0.06033 0.78088 0.0
C934 C 0.40192 0.05449 0.85506 0.0
C935 C 0.40277 0.0557 0.7938 0.0
C936 C 0.41516 0.06213 0.83584 0.0
N937 N 0.4097 0.05855 0.88157 0.0
O938 O 0.40174 0.06914 0.69086 0.0
H939 H 0.39745 0.0535 0.76058 0.0
H940 H 0.42179 0.06612 0.843 0.0
O941 O 0.41069 0.05148 0.66994 0.0
C942 C 0.40096 0.07775 0.71121 0.0
O943 O 0.40869 0.08182 0.73525 0.0
N944 N 0.42773 0.06032 0.71131 0.0
C945 C 0.44795 0.05799 0.71595 0.0
C946 C 0.44221 0.05198 0.67924 0.0
C947 C 0.43218 0.05344 0.67627 0.0
C948 C 0.43325 0.06646 0.74534 0.0
C949 C 0.44332 0.06531 0.74933 0.0
H950 H 0.42814 0.04935 0.6432 0.0
H951 H 0.4299 0.07267 0.76668 0.0
H952 H 0.41003 0.05927 0.56256 0.0
H953 H 0.42912 0.08259 0.52959 0.0
H954 H 0.39584 0.0512 0.87842 0.0
H955 H 0.44545 0.04637 0.65154 0.0
H956 H 0.44747 0.07045 0.77589 0.0
C957 C 0.67086 0.67562 0.32121 0.0
C958 C 0.67025 0.6767 0.25975 0.0
N959 N 0.67582 0.66983 0.23336 0.0
N960 N 0.67689 0.66819 0.33411 0.0
C961 C 0.67978 0.66477 0.27973 0.0
H962 H 0.66704 0.67991 0.35447 0.0
Co963 Co 0.67941 0.66369 0.41201 0.0
C964 C 0.70047 0.66031 0.41743 0.0
O965 O 0.70042 0.66436 0.47117 0.0
N966 N 0.6817 0.65884 0.49118 0.0
C967 C 0.68591 0.64824 0.56278 0.0
C968 C 0.68499 0.64974 0.50176 0.0
C969 C 0.68048 0.66264 0.54724 0.0
N970 N 0.68307 0.65637 0.59142 0.0
O971 O 0.67439 0.65121 0.38959 0.0
H972 H 0.68674 0.6445 0.46703 0.0
H973 H 0.67789 0.66988 0.55633 0.0
O974 O 0.69253 0.6596 0.38762 0.0
C975 C 0.66518 0.65082 0.38509 0.0
O976 O 0.6601 0.65871 0.39629 0.0
N977 N 0.68364 0.67636 0.43254 0.0
C978 C 0.68629 0.69642 0.4463 0.0
C979 C 0.69279 0.69089 0.41176 0.0
C980 C 0.69122 0.68093 0.4043 0.0
C981 C 0.67714 0.68169 0.46517 0.0
C982 C 0.67844 0.69167 0.4738 0.0
H983 H 0.69574 0.67712 0.37237 0.0
H984 H 0.67057 0.67829 0.48153 0.0
H985 H 0.68446 0.65851 0.27445 0.0
H986 H 0.666 0.68215 0.23657 0.0
H987 H 0.68836 0.64162 0.58437 0.0
H988 H 0.69883 0.69428 0.38858 0.0
H989 H 0.673 0.69572 0.49865 0.0
C990 C 0.07236 0.92369 0.106 0.0
C991 C 0.07135 0.92285 0.04455 0.0
N992 N 0.07778 0.92887 0.01767 0.0
N993 N 0.07931 0.93028 0.11833 0.0
C994 C 0.08252 0.93329 0.0637 0.0
H995 H 0.06828 0.91972 0.13968 0.0
Co996 Co 0.08333 0.93361 0.19603 0.0
C997 C 0.08658 0.9548 0.19277 0.0
O998 O 0.08235 0.95546 0.24585 0.0
N999 N 0.08766 0.93671 0.27508 0.0
C1000 C 0.09777 0.94164 0.34758 0.0
C1001 C 0.09652 0.94053 0.28647 0.0
C1002 C 0.08377 0.93533 0.33073 0.0
N1003 N 0.08973 0.93836 0.37547 0.0
O1004 O 0.09598 0.92855 0.17846 0.0
H1005 H 0.10181 0.9424 0.25225 0.0
H1006 H 0.07673 0.93218 0.33907 0.0
O1007 O 0.0874 0.94648 0.16734 0.0
C1008 C 0.0965 0.91932 0.17952 0.0
O1009 O 0.08863 0.91432 0.19229 0.0
N1010 N 0.07051 0.93784 0.21224 0.0
C1011 C 0.05035 0.94031 0.22147 0.0
C1012 C 0.056 0.94669 0.18676 0.0
C1013 C 0.066 0.94519 0.18147 0.0
C1014 C 0.06508 0.93146 0.24521 0.0
C1015 C 0.05505 0.93266 0.25143 0.0
H1016 H 0.06991 0.94958 0.14931 0.0
H1017 H 0.06847 0.92502 0.26362 0.0
H1018 H 0.08836 0.93847 0.05798 0.0
H1019 H 0.06619 0.91821 0.02172 0.0
H1020 H 0.10419 0.94443 0.36981 0.0
H1021 H 0.05269 0.9526 0.16183 0.0
H1022 H 0.05095 0.92728 0.2765 0.0
C1023 C 0.8289 0.32696 0.85579 0.0
C1024 C 0.83015 0.32619 0.79443 0.0
N1025 N 0.82298 0.33117 0.76669 0.0
N1026 N 0.82095 0.33235 0.86711 0.0
C1027 C 0.81751 0.33487 0.8121 0.0
H1028 H 0.83344 0.32371 0.89018 0.0
Co1029 Co 0.81647 0.33507 0.94443 0.0
C1030 C 0.79522 0.33581 0.93418 0.0
O1031 O 0.7948 0.33046 0.98331 0.0
N1032 N 0.8122 0.33815 0.02385 0.0
C1033 C 0.80549 0.34691 0.09768 0.0
C1034 C 0.80683 0.34613 0.03648 0.0
C1035 C 0.81431 0.33441 0.07901 0.0
N1036 N 0.81022 0.33954 0.1245 0.0
O1037 O 0.82059 0.34826 0.93506 0.0
H1038 H 0.8042 0.35124 1.00312 0.0
H1039 H 0.81891 0.32819 0.08653 0.0
O1040 O 0.80348 0.33831 0.91254 0.0
C1041 C 0.82905 0.34942 0.95717 0.0
O1042 O 0.83334 0.34186 0.98191 0.0
N1043 N 0.8133 0.32174 0.95294 0.0
C1044 C 0.81164 0.30148 0.95869 0.0
C1045 C 0.80582 0.3069 0.9191 0.0
C1046 C 0.80696 0.31697 0.91569 0.0
C1047 C 0.8194 0.31651 0.9889 0.0
C1048 C 0.81854 0.30642 0.99367 0.0
H1049 H 0.803 0.32083 0.88112 0.0
H1050 H 0.82535 0.32011 0.01146 0.0
H1051 H 0.81117 0.33938 0.80561 0.0
H1052 H 0.83582 0.32208 0.77224 0.0
H1053 H 0.80166 0.35269 0.12078 0.0
H1054 H 0.80058 0.3034 0.88992 0.0
H1055 H 0.82356 0.30249 0.02233 0.0
C1056 C 0.08618 0.55875 0.88145 0.0
C1057 C 0.0831 0.56776 0.90495 0.0
C1058 C 0.08696 0.55733 0.81897 0.0
C1059 C 0.07794 0.56679 0.67344 0.0
H1060 H 0.10058 0.55409 0.60566 0.0
C1061 C 0.08545 0.56628 0.41611 0.0
C1062 C 0.0899 0.558 0.39129 0.0
C1063 C 0.08438 0.56723 0.47874 0.0
C1064 C 0.09413 0.55752 0.62374 0.0
H1065 H 0.07874 0.5824 0.87996 0.0
H1066 H 0.07995 0.57984 0.77184 0.0
H1067 H 0.09923 0.55603 0.71473 0.0
H1068 H 0.09635 0.54406 0.41266 0.0
H1069 H 0.09432 0.54559 0.52147 0.0
H1070 H 0.07276 0.56819 0.58279 0.0
C1071 C 0.08163 0.57385 0.80179 0.0
C1072 C 0.09337 0.55865 0.68638 0.0
C1073 C 0.08093 0.5753 0.86409 0.0
C1074 C 0.09305 0.5506 0.43044 0.0
C1075 C 0.09191 0.5515 0.49293 0.0
C1076 C 0.07865 0.56559 0.61085 0.0
C1077 C 0.08463 0.56484 0.77842 0.0
C1078 C 0.0853 0.56336 0.71195 0.0
C1079 C 0.08766 0.55988 0.5181 0.0
C1080 C 0.08678 0.56098 0.58502 0.0
H1081 H 0.08782 0.55273 0.91109 0.0
H1082 H 0.08922 0.55028 0.80235 0.0
H1083 H 0.07156 0.57033 0.69179 0.0
H1084 H 0.08306 0.57216 0.38726 0.0
H1085 H 0.08121 0.57385 0.49629 0.0
C1086 C 0.69574 0.84094 0.70059 0.0
C1087 C 0.68822 0.83817 0.66121 0.0
C1088 C 0.69471 0.83989 0.76308 0.0
C1089 C 0.67985 0.82743 0.88071 0.0
H1090 H 0.69039 0.84751 0.98469 0.0
C1091 C 0.6703 0.83007 0.13424 0.0
C1092 C 0.67793 0.83193 0.17499 0.0
C1093 C 0.67176 0.83073 0.07191 0.0
C1094 C 0.68749 0.84179 0.95632 0.0
H1095 H 0.67372 0.8321 0.65684 0.0
H1096 H 0.67183 0.8304 0.76583 0.0
H1097 H 0.69245 0.84875 0.87566 0.0
H1098 H 0.69314 0.83601 0.1809 0.0
H1099 H 0.69561 0.83732 0.07216 0.0
H1100 H 0.67473 0.82059 0.96159 0.0
C1101 C 0.67862 0.83321 0.74845 0.0
C1102 C 0.68869 0.84248 0.8937 0.0
C1103 C 0.67969 0.83419 0.68584 0.0
C1104 C 0.68704 0.83463 0.15135 0.0
C1105 C 0.68848 0.83536 0.08886 0.0
C1106 C 0.67859 0.82679 0.9433 0.0
C1107 C 0.6861 0.83611 0.78803 0.0
C1108 C 0.68488 0.83531 0.85494 0.0
C1109 C 0.68087 0.83335 0.04839 0.0
C1110 C 0.68237 0.83397 0.98187 0.0
H1111 H 0.70246 0.84388 0.68301 0.0
H1112 H 0.70071 0.842 0.7918 0.0
H1113 H 0.67697 0.82167 0.85262 0.0
H1114 H 0.66313 0.82817 0.15026 0.0
H1115 H 0.66569 0.8293 0.04204 0.0
C1116 C 0.40751 0.44325 0.94657 0.0
C1117 C 0.41108 0.43602 0.90752 0.0
C1118 C 0.40864 0.44239 1.00908 0.0
C1119 C 0.41199 0.42418 0.12828 0.0
H1120 H 0.41997 0.4461 0.22651 0.0
C1121 C 0.42114 0.41973 0.38052 0.0
C1122 C 0.41867 0.42723 0.42093 0.0
C1123 C 0.42012 0.42097 0.31827 0.0
C1124 C 0.41759 0.43994 0.19995 0.0
H1125 H 0.41869 0.42226 0.90357 0.0
H1126 H 0.42067 0.42074 0.0129 0.0
H1127 H 0.41862 0.44798 0.11725 0.0
H1128 H 0.41309 0.44195 0.42651 0.0
H1129 H 0.41101 0.44399 0.31799 0.0
H1130 H 0.41077 0.41616 0.21058 0.0
C1131 C 0.41697 0.42706 0.99501 0.0
C1132 C 0.41686 0.44101 0.13725 0.0
C1133 C 0.41593 0.42798 0.93239 0.0
C1134 C 0.41501 0.43598 0.39711 0.0
C1135 C 0.41393 0.4372 0.33463 0.0
C1136 C 0.41263 0.42312 0.19093 0.0
C1137 C 0.41329 0.43424 0.03407 0.0
C1138 C 0.4141 0.43313 0.10069 0.0
C1139 C 0.4165 0.42971 0.29434 0.0
C1140 C 0.4155 0.43097 0.22767 0.0
H1141 H 0.40383 0.44958 0.92873 0.0
H1142 H 0.40568 0.44801 0.03794 0.0
H1143 H 0.40968 0.41802 0.10146 0.0
H1144 H 0.42385 0.41283 0.3967 0.0
H1145 H 0.42231 0.41508 0.28886 0.0
C1146 C 0.81896 0.16408 0.21279 0.0
C1147 C 0.8106 0.15978 0.18807 0.0
C1148 C 0.81996 0.16511 0.27541 0.0
C1149 C 0.8102 0.15542 0.42039 0.0
H1150 H 0.82331 0.17781 0.48861 0.0
C1151 C 0.81159 0.16323 0.67812 0.0
C1152 C 0.82061 0.16622 0.70164 0.0
C1153 C 0.81016 0.16248 0.61564 0.0
C1154 C 0.81969 0.17148 0.47021 0.0
H1155 H 0.79658 0.15354 0.20964 0.0
H1156 H 0.7982 0.15549 0.31845 0.0
H1157 H 0.82112 0.17669 0.37961 0.0
H1158 H 0.83528 0.17047 0.67675 0.0
H1159 H 0.83272 0.16931 0.56857 0.0
H1160 H 0.8087 0.15029 0.51131 0.0
C1161 C 0.80413 0.15783 0.28981 0.0
C1162 C 0.81846 0.17081 0.40763 0.0
C1163 C 0.80318 0.15673 0.22733 0.0
C1164 C 0.82817 0.16835 0.66081 0.0
C1165 C 0.82671 0.16767 0.59851 0.0
C1166 C 0.81137 0.15613 0.48301 0.0
C1167 C 0.81258 0.16193 0.31486 0.0
C1168 C 0.81374 0.16275 0.38175 0.0
C1169 C 0.81769 0.16477 0.57511 0.0
C1170 C 0.81618 0.16413 0.50864 0.0
H1171 H 0.82487 0.16639 0.18386 0.0
H1172 H 0.82664 0.16817 0.29288 0.0
H1173 H 0.80669 0.14902 0.40225 0.0
H1174 H 0.80555 0.16164 0.70775 0.0
H1175 H 0.80309 0.1603 0.59901 0.0
C1176 C 0.0793 0.43512 0.52753 0.0
C1177 C 0.08868 0.43644 0.55164 0.0
C1178 C 0.07789 0.43447 0.465 0.0
C1179 C 0.08919 0.44102 0.3195 0.0
H1180 H 0.07278 0.42077 0.25327 0.0
C1181 C 0.08802 0.43264 0.06328 0.0
C1182 C 0.07914 0.42964 0.03812 0.0
C1183 C 0.08899 0.43379 0.12584 0.0
C1184 C 0.07727 0.42658 0.27087 0.0
H1185 H 0.10393 0.43784 0.52765 0.0
H1186 H 0.10141 0.43689 0.41947 0.0
H1187 H 0.07462 0.42222 0.36233 0.0
H1188 H 0.06421 0.42592 0.05869 0.0
H1189 H 0.0658 0.42812 0.16725 0.0
H1190 H 0.09177 0.44548 0.22834 0.0
C1191 C 0.09515 0.43648 0.44898 0.0
C1192 C 0.07833 0.42738 0.33351 0.0
C1193 C 0.09658 0.43704 0.51133 0.0
C1194 C 0.0712 0.42806 0.07677 0.0
C1195 C 0.07213 0.42929 0.13914 0.0
C1196 C 0.08806 0.44028 0.25688 0.0
C1197 C 0.08579 0.4352 0.42502 0.0
C1198 C 0.08436 0.43457 0.35853 0.0
C1199 C 0.08106 0.43207 0.16472 0.0
C1200 C 0.08213 0.43301 0.23161 0.0
H1201 H 0.07302 0.43474 0.55674 0.0
H1202 H 0.07057 0.43356 0.44786 0.0
H1203 H 0.09378 0.44673 0.33744 0.0
H1204 H 0.0943 0.43383 0.03477 0.0
H1205 H 0.09602 0.43581 0.14377 0.0
C1206 C 0.81646 0.83841 0.81861 0.0
C1207 C 0.80858 0.83307 0.84217 0.0
C1208 C 0.81809 0.83889 0.7561 0.0
C1209 C 0.80556 0.83601 0.60923 0.0
H1210 H 0.83149 0.83268 0.54425 0.0
C1211 C 0.81236 0.83101 0.35269 0.0
C1212 C 0.82087 0.83495 0.32761 0.0
C1213 C 0.81087 0.83106 0.41534 0.0
C1214 C 0.82421 0.83378 0.56146 0.0
H1215 H 0.79643 0.82383 0.81688 0.0
H1216 H 0.79918 0.82484 0.70903 0.0
H1217 H 0.82901 0.83244 0.65324 0.0
H1218 H 0.83435 0.84234 0.34891 0.0
H1219 H 0.8317 0.84262 0.45755 0.0
H1220 H 0.80075 0.83746 0.51783 0.0
C1221 C 0.80403 0.82875 0.7389 0.0
C1222 C 0.82279 0.83362 0.62413 0.0
C1223 C 0.80244 0.8282 0.80118 0.0
C1224 C 0.82778 0.83909 0.36671 0.0
C1225 C 0.82627 0.83922 0.42922 0.0
C1226 C 0.80698 0.83625 0.54662 0.0
C1227 C 0.81185 0.83412 0.71544 0.0
C1228 C 0.81344 0.83466 0.64882 0.0
C1229 C 0.81782 0.83514 0.45463 0.0
C1230 C 0.81632 0.83507 0.52167 0.0
H1231 H 0.82131 0.84235 0.84823 0.0
H1232 H 0.82415 0.84315 0.73951 0.0
H1233 H 0.79828 0.83697 0.62672 0.0
H1234 H 0.80694 0.82766 0.32404 0.0
H1235 H 0.80434 0.82771 0.43297 0.0
C1236 C 0.40528 0.57887 0.6836 0.0
C1237 C 0.41016 0.57258 0.64378 0.0
C1238 C 0.4056 0.57737 0.74605 0.0
C1239 C 0.41144 0.55877 0.86307 0.0
H1240 H 0.41311 0.58126 0.96812 0.0
C1241 C 0.41999 0.55538 0.11786 0.0
C1242 C 0.41462 0.56118 0.15834 0.0
C1243 C 0.41933 0.55682 0.05546 0.0
C1244 C 0.41254 0.57491 0.93951 0.0
H1245 H 0.41921 0.55973 0.63884 0.0
H1246 H 0.4199 0.55715 0.74781 0.0
H1247 H 0.41222 0.58353 0.85913 0.0
H1248 H 0.40436 0.57311 0.16378 0.0
H1249 H 0.40331 0.57568 0.05492 0.0
H1250 H 0.41189 0.55016 0.94364 0.0
C1251 C 0.41566 0.56317 0.73072 0.0
C1252 C 0.41201 0.5762 0.87684 0.0
C1253 C 0.41528 0.56465 0.66809 0.0
C1254 C 0.40869 0.56857 0.13438 0.0
C1255 C 0.40807 0.57004 0.07181 0.0
C1256 C 0.41202 0.55749 0.92572 0.0
C1257 C 0.41088 0.56955 0.77067 0.0
C1258 C 0.41145 0.56815 0.83764 0.0
C1259 C 0.41333 0.56413 0.03151 0.0
C1260 C 0.41259 0.56553 0.96479 0.0
H1261 H 0.40112 0.58495 0.66645 0.0
H1262 H 0.40164 0.58231 0.77501 0.0
H1263 H 0.41084 0.5524 0.83466 0.0
H1264 H 0.4248 0.54976 0.1342 0.0
H1265 H 0.42364 0.55226 0.02592 0.0
C1266 C 0.68764 0.16051 0.88871 0.0
C1267 C 0.67846 0.16296 0.86505 0.0
C1268 C 0.6893 0.16055 0.95123 0.0
C1269 C 0.67642 0.15913 0.09802 0.0
H1270 H 0.70002 0.17033 0.16323 0.0
C1271 C 0.68152 0.16567 0.35492 0.0
C1272 C 0.69085 0.16446 0.37957 0.0
C1273 C 0.68006 0.16525 0.2923 0.0
C1274 C 0.69345 0.16703 0.14593 0.0
H1275 H 0.66392 0.16763 0.89001 0.0
H1276 H 0.66678 0.16754 0.99803 0.0
H1277 H 0.69755 0.16994 0.05428 0.0
H1278 H 0.7059 0.1615 0.35745 0.0
H1279 H 0.70336 0.1606 0.24888 0.0
H1280 H 0.67233 0.15613 0.18938 0.0
C1281 C 0.67267 0.16546 0.96824 0.0
C1282 C 0.69203 0.16684 0.08328 0.0
C1283 C 0.67103 0.1655 0.90591 0.0
C1284 C 0.69865 0.16264 0.34004 0.0
C1285 C 0.69718 0.16215 0.27757 0.0
C1286 C 0.67787 0.15927 0.16063 0.0
C1287 C 0.68181 0.16297 0.99183 0.0
C1288 C 0.68347 0.16293 0.05849 0.0
C1289 C 0.68788 0.16353 0.25262 0.0
C1290 C 0.68638 0.16326 0.18562 0.0
H1291 H 0.69353 0.15841 0.85915 0.0
H1292 H 0.69641 0.15851 0.96785 0.0
H1293 H 0.66981 0.15594 0.08048 0.0
H1294 H 0.67537 0.16719 0.3839 0.0
H1295 H 0.67281 0.16649 0.27499 0.0
C1296 C 0.92616 0.43179 0.1438 0.0
C1297 C 0.9183 0.433 0.10399 0.0
C1298 C 0.9249 0.43282 0.20608 0.0
C1299 C 0.90808 0.4427 0.3225 0.0
H1300 H 0.92198 0.42496 0.42762 0.0
C1301 C 0.89986 0.43939 0.57806 0.0
C1302 C 0.90785 0.43878 0.61764 0.0
C1303 C 0.90117 0.43884 0.51552 0.0
C1304 C 0.91812 0.43003 0.39895 0.0
H1305 H 0.90296 0.43636 0.09855 0.0
H1306 H 0.90069 0.43803 0.20746 0.0
H1307 H 0.92408 0.42379 0.31868 0.0
H1308 H 0.92352 0.43717 0.6214 0.0
H1309 H 0.92576 0.43607 0.51247 0.0
H1310 H 0.90201 0.44883 0.4031 0.0
C1311 C 0.90789 0.43643 0.19045 0.0
C1312 C 0.91933 0.42938 0.33637 0.0
C1313 C 0.90917 0.43546 0.12795 0.0
C1314 C 0.91718 0.43752 0.59273 0.0
C1315 C 0.91847 0.43691 0.53012 0.0
C1316 C 0.90682 0.4433 0.38513 0.0
C1317 C 0.91573 0.43504 0.23043 0.0
C1318 C 0.91435 0.43573 0.29721 0.0
C1319 C 0.91048 0.4376 0.49075 0.0
C1320 C 0.91184 0.43699 0.42412 0.0
H1321 H 0.93333 0.43008 0.12674 0.0
H1322 H 0.93117 0.43192 0.23513 0.0
H1323 H 0.90423 0.44781 0.29399 0.0
H1324 H 0.89255 0.44017 0.59521 0.0
H1325 H 0.89484 0.43924 0.48654 0.0
C1326 C 0.31031 0.1627 0.88853 0.0
C1327 C 0.31881 0.167 0.86533 0.0
C1328 C 0.30906 0.1615 0.95095 0.0
C1329 C 0.31755 0.17122 0.09725 0.0
H1330 H 0.30772 0.14706 0.1634 0.0
C1331 C 0.31865 0.16313 0.35335 0.0
C1332 C 0.3109 0.1579 0.37893 0.0
C1333 C 0.31934 0.1643 0.29069 0.0
C1334 C 0.31034 0.15392 0.14576 0.0
H1335 H 0.3328 0.17309 0.89054 0.0
H1336 H 0.33055 0.17114 0.99847 0.0
H1337 H 0.30926 0.14893 0.05427 0.0
H1338 H 0.29767 0.15003 0.35861 0.0
H1339 H 0.29877 0.15218 0.24965 0.0
H1340 H 0.31857 0.17627 0.18835 0.0
C1341 C 0.32478 0.16883 0.96847 0.0
C1342 C 0.31124 0.15497 0.0831 0.0
C1343 C 0.32606 0.16996 0.90629 0.0
C1344 C 0.30381 0.15396 0.34035 0.0
C1345 C 0.30446 0.15519 0.27775 0.0
C1346 C 0.3166 0.17019 0.15981 0.0
C1347 C 0.31625 0.16464 0.99166 0.0
C1348 C 0.31493 0.16361 0.05812 0.0
C1349 C 0.31226 0.16033 0.25196 0.0
C1350 C 0.31305 0.1615 0.18505 0.0
H1351 H 0.30453 0.16041 0.85869 0.0
H1352 H 0.30238 0.15831 0.9674 0.0
H1353 H 0.32027 0.17803 0.07943 0.0
H1354 H 0.32431 0.16613 0.38164 0.0
H1355 H 0.32555 0.16816 0.2726 0.0
C1356 C 0.59484 0.57097 0.65689 0.0
C1357 C 0.58806 0.56691 0.61657 0.0
C1358 C 0.59416 0.56929 0.71904 0.0
C1359 C 0.57617 0.56278 0.83591 0.0
H1360 H 0.59882 0.5603 0.9389 0.0
C1361 C 0.57204 0.55648 0.09137 0.0
C1362 C 0.57814 0.56175 0.13033 0.0
C1363 C 0.57384 0.55616 0.02931 0.0
C1364 C 0.59242 0.56107 0.91088 0.0
H1365 H 0.57542 0.55759 0.6103 0.0
H1366 H 0.57428 0.55453 0.71886 0.0
H1367 H 0.60084 0.56115 0.82943 0.0
H1368 H 0.59115 0.57056 0.13468 0.0
H1369 H 0.5943 0.5701 0.02577 0.0
H1370 H 0.56774 0.56287 0.917 0.0
C1371 C 0.58007 0.55914 0.7023 0.0
C1372 C 0.59358 0.56154 0.84801 0.0
C1373 C 0.58078 0.5608 0.63992 0.0
C1374 C 0.58635 0.56639 0.10591 0.0
C1375 C 0.58814 0.56612 0.04345 0.0
C1376 C 0.57501 0.56233 0.89863 0.0
C1377 C 0.58666 0.5635 0.74282 0.0
C1378 C 0.58546 0.56245 0.80964 0.0
C1379 C 0.58178 0.56116 1.00415 0.0
C1380 C 0.58312 0.56148 0.93711 0.0
H1381 H 0.60062 0.5756 0.64044 0.0
H1382 H 0.59933 0.57283 0.74862 0.0
H1383 H 0.56976 0.56368 0.80809 0.0
H1384 H 0.56577 0.55265 0.10888 0.0
H1385 H 0.56892 0.55205 1.00093 0.0
C1386 C 0.19403 0.84227 0.8198 0.0
C1387 C 0.18787 0.83736 0.86036 0.0
C1388 C 0.19319 0.84087 0.75751 0.0
C1389 C 0.17579 0.83229 0.64123 0.0
H1390 H 0.19851 0.83271 0.53766 0.0
C1391 C 0.17358 0.82359 0.38665 0.0
C1392 C 0.17862 0.82981 0.347 0.0
C1393 C 0.175 0.82415 0.44903 0.0
C1394 C 0.19209 0.83266 0.56595 0.0
H1395 H 0.17607 0.82693 0.86622 0.0
H1396 H 0.17482 0.82426 0.75791 0.0
H1397 H 0.20048 0.83403 0.64683 0.0
H1398 H 0.18926 0.84143 0.34289 0.0
H1399 H 0.19183 0.84231 0.4517 0.0
H1400 H 0.16741 0.83085 0.56027 0.0
C1401 C 0.18019 0.82937 0.77435 0.0
C1402 C 0.19321 0.83342 0.6286 0.0
C1403 C 0.18099 0.83081 0.83676 0.0
C1404 C 0.18531 0.83646 0.37163 0.0
C1405 C 0.18678 0.83697 0.43415 0.0
C1406 C 0.17468 0.83146 0.57867 0.0
C1407 C 0.18621 0.83446 0.73381 0.0
C1408 C 0.18507 0.8333 0.66713 0.0
C1409 C 0.18156 0.83089 0.47361 0.0
C1410 C 0.18281 0.83167 0.54024 0.0
H1411 H 0.19951 0.84725 0.83603 0.0
H1412 H 0.19789 0.845 0.72789 0.0
H1413 H 0.16933 0.83235 0.66916 0.0
H1414 H 0.16853 0.81822 0.36967 0.0
H1415 H 0.171 0.81924 0.47807 0.0
C1416 C 0.90959 0.58019 0.89919 0.0
C1417 C 0.9138 0.57337 0.93869 0.0
C1418 C 0.90965 0.57867 0.83667 0.0
C1419 C 0.92292 0.56561 0.71701 0.0
H1420 H 0.9001 0.57092 0.61984 0.0
C1421 C 0.92132 0.55517 0.46476 0.0
C1422 C 0.91631 0.56124 0.42408 0.0
C1423 C 0.9209 0.55678 0.52704 0.0
C1424 C 0.90659 0.56954 0.64602 0.0
H1425 H 0.92136 0.55958 0.943 0.0
H1426 H 0.92148 0.55692 0.83385 0.0
H1427 H 0.89948 0.57333 0.72894 0.0
H1428 H 0.9069 0.57386 0.41853 0.0
H1429 H 0.90643 0.57685 0.52691 0.0
H1430 H 0.93011 0.56199 0.63446 0.0
C1431 C 0.91815 0.56346 0.85138 0.0
C1432 C 0.90622 0.57088 0.70874 0.0
C1433 C 0.918 0.56494 0.91402 0.0
C1434 C 0.91092 0.56905 0.44794 0.0
C1435 C 0.91055 0.5707 0.51046 0.0
C1436 C 0.92332 0.56434 0.65432 0.0
C1437 C 0.914 0.57033 0.81188 0.0
C1438 C 0.91436 0.56889 0.74508 0.0
C1439 C 0.91553 0.56457 0.55098 0.0
C1440 C 0.91515 0.56623 0.61783 0.0
H1441 H 0.9062 0.58671 0.91664 0.0
H1442 H 0.90645 0.58413 0.80763 0.0
H1443 H 0.92938 0.56417 0.74344 0.0
H1444 H 0.92567 0.54915 0.44883 0.0
H1445 H 0.92472 0.55179 0.55648 0.0
C1446 C 0.18461 0.16466 0.67159 0.0
C1447 C 0.17611 0.16076 0.69714 0.0
C1448 C 0.18605 0.16453 0.60891 0.0
C1449 C 0.17263 0.16161 0.46314 0.0
H1450 H 0.19856 0.15835 0.39788 0.0
C1451 C 0.18049 0.15686 0.20586 0.0
C1452 C 0.18837 0.16222 0.18251 0.0
C1453 C 0.17881 0.15639 0.26835 0.0
C1454 C 0.19127 0.15933 0.41536 0.0
H1455 H 0.1626 0.15338 0.67661 0.0
H1456 H 0.16516 0.15297 0.56788 0.0
H1457 H 0.19611 0.15797 0.50677 0.0
H1458 H 0.20045 0.17154 0.20816 0.0
H1459 H 0.19761 0.17055 0.31585 0.0
H1460 H 0.16783 0.16285 0.3713 0.0
C1461 C 0.17062 0.15639 0.59588 0.0
C1462 C 0.18986 0.15915 0.47798 0.0
C1463 C 0.16915 0.1566 0.65845 0.0
C1464 C 0.19444 0.16714 0.22367 0.0
C1465 C 0.19281 0.1666 0.28588 0.0
C1466 C 0.17404 0.1617 0.40044 0.0
C1467 C 0.17906 0.16041 0.57002 0.0
C1468 C 0.18053 0.16037 0.50295 0.0
C1469 C 0.185 0.16119 0.30915 0.0
C1470 C 0.18339 0.16065 0.37576 0.0
H1471 H 0.19006 0.16803 0.69991 0.0
H1472 H 0.19256 0.16786 0.59094 0.0
H1473 H 0.16536 0.16273 0.48036 0.0
H1474 H 0.17569 0.15289 0.17609 0.0
H1475 H 0.17276 0.1521 0.28481 0.0
C1476 C 0.59609 0.44254 0.90762 0.0
C1477 C 0.59181 0.43558 0.86946 0.0
C1478 C 0.59479 0.44207 0.9702 0.0
C1479 C 0.5791 0.43096 0.08849 0.0
H1480 H 0.60064 0.43733 0.19417 0.0
C1481 C 0.57883 0.42159 0.34184 0.0
C1482 C 0.58206 0.42871 0.38285 0.0
C1483 C 0.58004 0.42281 0.27972 0.0
C1484 C 0.59453 0.43563 0.16527 0.0
H1485 H 0.58288 0.42262 0.86742 0.0
H1486 H 0.58073 0.42169 0.9765 0.0
H1487 H 0.60265 0.43861 0.08498 0.0
H1488 H 0.58924 0.44271 0.38965 0.0
H1489 H 0.59149 0.44477 0.2809 0.0
H1490 H 0.57105 0.42779 0.16886 0.0
C1491 C 0.58492 0.42766 0.95807 0.0
C1492 C 0.59566 0.43638 0.1026 0.0
C1493 C 0.58616 0.42817 0.89541 0.0
C1494 C 0.58673 0.43703 0.35975 0.0
C1495 C 0.588 0.43822 0.29734 0.0
C1496 C 0.57799 0.43014 0.15105 0.0
C1497 C 0.58923 0.4346 0.99639 0.0
C1498 C 0.58798 0.434 0.06329 0.0
C1499 C 0.58459 0.43116 0.25661 0.0
C1500 C 0.58571 0.43241 0.19019 0.0
H1501 H 0.60035 0.44843 0.88903 0.0
H1502 H 0.59807 0.44766 0.99798 0.0
H1503 H 0.57295 0.42926 0.0599 0.0
H1504 H 0.57542 0.41497 0.35751 0.0
H1505 H 0.57751 0.41714 0.24968 0.0
C1506 C 0.32408 0.82815 0.16879 0.0
C1507 C 0.31693 0.83128 0.20991 0.0
C1508 C 0.32275 0.82921 0.10661 0.0
C1509 C 0.30943 0.84321 0.99201 0.0
H1510 H 0.31616 0.82165 0.88725 0.0
C1511 C 0.30206 0.84439 0.73494 0.0
C1512 C 0.30904 0.84026 0.69637 0.0
C1513 C 0.30264 0.84311 0.79751 0.0
C1514 C 0.31436 0.8278 0.91565 0.0
H1515 H 0.30275 0.8381 0.21677 0.0
H1516 H 0.30053 0.84009 0.10806 0.0
H1517 H 0.31788 0.81994 0.99621 0.0
H1518 H 0.32216 0.83157 0.69357 0.0
H1519 H 0.32329 0.82946 0.80261 0.0
H1520 H 0.3061 0.85115 0.91159 0.0
C1521 C 0.30718 0.83681 0.12442 0.0
C1522 C 0.31532 0.8268 0.97822 0.0
C1523 C 0.30847 0.83568 0.18684 0.0
C1524 C 0.31659 0.83474 0.7219 0.0
C1525 C 0.31722 0.83352 0.78454 0.0
C1526 C 0.30854 0.84424 0.92935 0.0
C1527 C 0.31428 0.8335 0.08358 0.0
C1528 C 0.31292 0.8345 0.01715 0.0
C1529 C 0.31027 0.83772 0.8233 0.0
C1530 C 0.31103 0.83656 0.89023 0.0
H1531 H 0.33079 0.82493 0.18439 0.0
H1532 H 0.32845 0.82676 0.07648 0.0
H1533 H 0.30763 0.84932 0.02072 0.0
H1534 H 0.29607 0.84855 0.71668 0.0
H1535 H 0.29704 0.84629 0.82559 0.0
C1536 C 0.59907 0.06417 0.91484 0.0
C1537 C 0.59107 0.06397 0.87516 0.0
C1538 C 0.5977 0.06454 0.97738 0.0
C1539 C 0.57989 0.07145 0.09401 0.0
H1540 H 0.59547 0.05508 0.19861 0.0
C1541 C 0.57194 0.06867 0.3489 0.0
C1542 C 0.57986 0.06822 0.38888 0.0
C1543 C 0.57333 0.06781 0.28663 0.0
C1544 C 0.59114 0.0598 0.17021 0.0
H1545 H 0.57531 0.06395 0.87129 0.0
H1546 H 0.57295 0.06474 0.9802 0.0
H1547 H 0.59784 0.05441 0.0895 0.0
H1548 H 0.59545 0.06638 0.39462 0.0
H1549 H 0.59794 0.06501 0.28573 0.0
H1550 H 0.57329 0.07697 0.17438 0.0
C1551 C 0.58029 0.06467 0.96262 0.0
C1552 C 0.59249 0.05939 0.10758 0.0
C1553 C 0.58166 0.06424 0.90001 0.0
C1554 C 0.5892 0.06667 0.36509 0.0
C1555 C 0.59061 0.06588 0.30259 0.0
C1556 C 0.57859 0.0719 0.1566 0.0
C1557 C 0.5883 0.06479 1.00207 0.0
C1558 C 0.58686 0.0652 0.06871 0.0
C1559 C 0.5827 0.06654 0.26243 0.0
C1560 C 0.58417 0.06606 0.19563 0.0
H1561 H 0.60643 0.06416 0.89776 0.0
H1562 H 0.60402 0.06478 1.00643 0.0
H1563 H 0.57555 0.07613 0.06545 0.0
H1564 H 0.56463 0.06967 0.36583 0.0
H1565 H 0.56703 0.06811 0.25745 0.0
C1566 C 0.19385 0.34237 0.19051 0.0
C1567 C 0.18693 0.33813 0.15199 0.0
C1568 C 0.19328 0.3411 0.25308 0.0
C1569 C 0.18179 0.32562 0.37128 0.0
H1570 H 0.18824 0.34723 0.47634 0.0
C1571 C 0.17213 0.3258 0.62449 0.0
C1572 C 0.17926 0.329 0.66553 0.0
C1573 C 0.17342 0.3269 0.56231 0.0
C1574 C 0.18651 0.3411 0.44763 0.0
H1575 H 0.17393 0.32927 0.14928 0.0
H1576 H 0.17281 0.32716 0.25834 0.0
H1577 H 0.18972 0.34909 0.36718 0.0
H1578 H 0.19335 0.336 0.67225 0.0
H1579 H 0.19551 0.33807 0.56352 0.0
H1580 H 0.17839 0.31771 0.45185 0.0
C1581 C 0.17883 0.3313 0.24022 0.0
C1582 C 0.18738 0.34215 0.38496 0.0
C1583 C 0.17945 0.33252 0.17757 0.0
C1584 C 0.18765 0.33352 0.64238 0.0
C1585 C 0.18891 0.33469 0.57995 0.0
C1586 C 0.18086 0.3246 0.43385 0.0
C1587 C 0.18573 0.3356 0.27892 0.0
C1588 C 0.18499 0.33443 0.34585 0.0
C1589 C 0.18183 0.33131 0.5392 0.0
C1590 C 0.18316 0.33234 0.47277 0.0
H1591 H 0.19979 0.3466 0.1722 0.0
H1592 H 0.19884 0.34436 0.28113 0.0
H1593 H 0.18007 0.31945 0.34288 0.0
H1594 H 0.16547 0.32249 0.64015 0.0
H1595 H 0.16774 0.32439 0.53223 0.0
C1596 C 0.91638 0.93396 0.41809 0.0
C1597 C 0.90697 0.93448 0.39335 0.0
C1598 C 0.91775 0.93353 0.48069 0.0
C1599 C 0.90574 0.93925 0.6256 0.0
H1600 H 0.92437 0.92111 0.69269 0.0
C1601 C 0.90871 0.93187 0.88308 0.0
C1602 C 0.91799 0.93003 0.90696 0.0
C1603 C 0.90735 0.93272 0.82058 0.0
C1604 C 0.91923 0.92633 0.67482 0.0
H1605 H 0.89163 0.93477 0.41611 0.0
H1606 H 0.89403 0.93415 0.52476 0.0
H1607 H 0.92215 0.92198 0.58375 0.0
H1608 H 0.93318 0.92814 0.88414 0.0
H1609 H 0.93088 0.92981 0.77574 0.0
H1610 H 0.90287 0.94369 0.71656 0.0
C1611 C 0.90036 0.93418 0.49564 0.0
C1612 C 0.91795 0.92681 0.61224 0.0
C1613 C 0.89898 0.93455 0.43311 0.0
C1614 C 0.92591 0.92936 0.86711 0.0
C1615 C 0.92457 0.93029 0.80484 0.0
C1616 C 0.90706 0.93883 0.68823 0.0
C1617 C 0.90975 0.93367 0.52022 0.0
C1618 C 0.91118 0.93326 0.58684 0.0
C1619 C 0.91526 0.93184 0.78054 0.0
C1620 C 0.91383 0.93236 0.71375 0.0
H1621 H 0.92273 0.93404 0.38929 0.0
H1622 H 0.92509 0.93325 0.49821 0.0
H1623 H 0.90054 0.94439 0.60743 0.0
H1624 H 0.90245 0.93233 0.91254 0.0
H1625 H 0.90006 0.93381 0.80362 0.0
C1626 C 0.31801 0.66461 0.65888 0.0
C1627 C 0.31017 0.65951 0.63338 0.0
C1628 C 0.31874 0.66575 0.72153 0.0
C1629 C 0.30961 0.65549 0.86654 0.0
H1630 H 0.31983 0.67948 0.93277 0.0
C1631 C 0.30961 0.66431 0.12368 0.0
C1632 C 0.31814 0.66854 0.14692 0.0
C1633 C 0.30838 0.66311 0.06127 0.0
C1634 C 0.31703 0.67271 0.91498 0.0
H1635 H 0.29682 0.65184 0.65386 0.0
H1636 H 0.29799 0.65395 0.7628 0.0
H1637 H 0.31812 0.67774 0.82385 0.0
H1638 H 0.3322 0.67448 0.12184 0.0
H1639 H 0.32998 0.67252 0.0139 0.0
H1640 H 0.30845 0.65053 0.95805 0.0
C1641 C 0.30372 0.65687 0.73463 0.0
C1642 C 0.31608 0.67169 0.85243 0.0
C1643 C 0.30303 0.65567 0.67204 0.0
C1644 C 0.32544 0.67141 0.10602 0.0
C1645 C 0.32418 0.67027 0.04385 0.0
C1646 C 0.31051 0.65654 0.92919 0.0
C1647 C 0.3116 0.66189 0.76034 0.0
C1648 C 0.31242 0.66304 0.82723 0.0
C1649 C 0.31562 0.66616 0.02061 0.0
C1650 C 0.31431 0.66513 0.95414 0.0
H1651 H 0.32371 0.66753 0.63053 0.0
H1652 H 0.325 0.66952 0.73957 0.0
H1653 H 0.3069 0.64867 0.84892 0.0
H1654 H 0.30379 0.66209 0.15349 0.0
H1655 H 0.30167 0.65998 0.04477 0.0
C1656 C 0.59164 0.94414 0.04049 0.0
C1657 C 0.58765 0.93716 0.07978 0.0
C1658 C 0.59042 0.94333 0.97801 0.0
C1659 C 0.58585 0.92531 0.85911 0.0
H1660 H 0.57931 0.94767 0.76058 0.0
C1661 C 0.57653 0.92137 0.60665 0.0
C1662 C 0.57948 0.92869 0.56617 0.0
C1663 C 0.57758 0.92256 0.66892 0.0
C1664 C 0.58128 0.94137 0.78721 0.0
H1665 H 0.5792 0.92389 0.0841 0.0
H1666 H 0.57707 0.92246 0.97483 0.0
H1667 H 0.5808 0.94949 0.8698 0.0
H1668 H 0.58592 0.94306 0.5606 0.0
H1669 H 0.58806 0.945 0.66912 0.0
H1670 H 0.58653 0.9172 0.77692 0.0
C1671 C 0.58117 0.92855 0.99252 0.0
C1672 C 0.58209 0.94242 0.84991 0.0
C1673 C 0.5823 0.92942 0.05512 0.0
C1674 C 0.58363 0.93721 0.59001 0.0
C1675 C 0.58475 0.93838 0.65251 0.0
C1676 C 0.58513 0.92428 0.79646 0.0
C1677 C 0.58526 0.93547 0.95323 0.0
C1678 C 0.58434 0.93439 0.8866 0.0
C1679 C 0.58171 0.93107 0.69286 0.0
C1680 C 0.58277 0.93228 0.75958 0.0
H1681 H 0.59571 0.95024 0.05813 0.0
H1682 H 0.59371 0.94875 0.94899 0.0
H1683 H 0.58777 0.91902 0.886 0.0
H1684 H 0.57343 0.91463 0.5905 0.0
H1685 H 0.57502 0.91682 0.69834 0.0
C1686 C 0.31788 0.33332 0.30843 0.0
C1687 C 0.31035 0.33885 0.33402 0.0
C1688 C 0.3185 0.3321 0.24578 0.0
C1689 C 0.30984 0.34285 0.10108 0.0
H1690 H 0.31906 0.31851 0.0342 0.0
C1691 C 0.30969 0.33427 0.84363 0.0
C1692 C 0.31813 0.32983 0.82053 0.0
C1693 C 0.30841 0.33542 0.90605 0.0
C1694 C 0.31653 0.32538 0.05219 0.0
H1695 H 0.2974 0.34718 0.31386 0.0
H1696 H 0.29835 0.34493 0.20494 0.0
H1697 H 0.31736 0.32023 0.14317 0.0
H1698 H 0.33197 0.32344 0.846 0.0
H1699 H 0.32965 0.32529 0.95391 0.0
H1700 H 0.30893 0.34793 1.0097 0.0
C1701 C 0.30395 0.34173 0.23297 0.0
C1702 C 0.31558 0.32638 0.11476 0.0
C1703 C 0.30338 0.34301 0.29553 0.0
C1704 C 0.32527 0.32668 0.86162 0.0
C1705 C 0.32396 0.32776 0.92379 0.0
C1706 C 0.31071 0.34182 0.03841 0.0
C1707 C 0.31156 0.33632 0.20711 0.0
C1708 C 0.3123 0.33516 0.14019 0.0
C1709 C 0.3155 0.33209 0.94684 0.0
C1710 C 0.31415 0.33309 0.01327 0.0
H1711 H 0.32345 0.33013 0.33669 0.0
H1712 H 0.32456 0.32802 0.22764 0.0
H1713 H 0.30743 0.34977 0.11886 0.0
H1714 H 0.30398 0.3367 0.81371 0.0
H1715 H 0.30178 0.33873 0.92244 0.0
C1716 C 0.90078 0.061 0.55132 0.0
C1717 C 0.90875 0.06116 0.59114 0.0
C1718 C 0.90216 0.06139 0.48883 0.0
C1719 C 0.91961 0.06909 0.37238 0.0
H1720 H 0.90482 0.05197 0.26798 0.0
C1721 C 0.92736 0.06699 0.11705 0.0
C1722 C 0.91942 0.06616 0.07755 0.0
C1723 C 0.92612 0.06597 0.17934 0.0
C1724 C 0.90892 0.05689 0.29633 0.0
H1725 H 0.9245 0.06183 0.59535 0.0
H1726 H 0.92688 0.06267 0.48641 0.0
H1727 H 0.90257 0.05114 0.37713 0.0
H1728 H 0.90394 0.06348 0.07258 0.0
H1729 H 0.9017 0.06185 0.18154 0.0
H1730 H 0.92585 0.07499 0.29193 0.0
C1731 C 0.91954 0.06228 0.5039 0.0
C1732 C 0.90765 0.0564 0.35896 0.0
C1733 C 0.91816 0.06182 0.56649 0.0
C1734 C 0.91021 0.06408 0.10178 0.0
C1735 C 0.90895 0.06313 0.1643 0.0
C1736 C 0.92084 0.06964 0.30978 0.0
C1737 C 0.91155 0.06203 0.46432 0.0
C1738 C 0.91298 0.06249 0.39774 0.0
C1739 C 0.91688 0.06416 0.20401 0.0
C1740 C 0.91553 0.06354 0.27082 0.0
H1741 H 0.89341 0.06068 0.56822 0.0
H1742 H 0.89585 0.06134 0.45965 0.0
H1743 H 0.92372 0.07398 0.40092 0.0
H1744 H 0.93458 0.06841 0.09972 0.0
H1745 H 0.93245 0.06657 0.20816 0.0
C1746 C 0.18475 0.65945 0.33789 0.0
C1747 C 0.17573 0.66236 0.31383 0.0
C1748 C 0.18629 0.65922 0.40049 0.0
C1749 C 0.17322 0.65789 0.54652 0.0
H1750 H 0.19717 0.66808 0.61323 0.0
C1751 C 0.17868 0.66341 0.80451 0.0
C1752 C 0.18803 0.66199 0.82845 0.0
C1753 C 0.17711 0.66313 0.74192 0.0
C1754 C 0.19049 0.66506 0.59552 0.0
H1755 H 0.16133 0.6675 0.33839 0.0
H1756 H 0.16398 0.66695 0.44663 0.0
H1757 H 0.19471 0.66814 0.50433 0.0
H1758 H 0.20296 0.65869 0.80541 0.0
H1759 H 0.20024 0.65798 0.69696 0.0
H1760 H 0.16902 0.6547 0.6375 0.0
C1761 C 0.16984 0.66474 0.41696 0.0
C1762 C 0.18908 0.66512 0.53288 0.0
C1763 C 0.16832 0.66504 0.3545 0.0
C1764 C 0.19571 0.66 0.78843 0.0
C1765 C 0.19414 0.65963 0.72606 0.0
C1766 C 0.17466 0.65776 0.60917 0.0
C1767 C 0.17883 0.66182 0.44084 0.0
C1768 C 0.18041 0.66157 0.50754 0.0
C1769 C 0.18485 0.66133 0.70168 0.0
C1770 C 0.18331 0.66136 0.63469 0.0
H1771 H 0.19062 0.6572 0.30862 0.0
H1772 H 0.19328 0.65684 0.41733 0.0
H1773 H 0.16651 0.65498 0.5285 0.0
H1774 H 0.17263 0.66506 0.83399 0.0
H1775 H 0.16988 0.66459 0.72509 0.0
C1776 C 0.40444 0.94607 0.05847 0.0
C1777 C 0.40822 0.93895 0.09747 0.0
C1778 C 0.40565 0.94531 0.99595 0.0
C1779 C 0.42017 0.93253 0.87806 0.0
H1780 H 0.39894 0.94033 0.77358 0.0
C1781 C 0.41904 0.92278 0.62472 0.0
C1782 C 0.41625 0.93011 0.5838 0.0
C1783 C 0.41812 0.92415 0.68698 0.0
C1784 C 0.40497 0.93821 0.80211 0.0
H1785 H 0.41622 0.92541 0.10113 0.0
H1786 H 0.41821 0.92395 0.9921 0.0
H1787 H 0.39732 0.94207 0.88267 0.0
H1788 H 0.41021 0.94465 0.57748 0.0
H1789 H 0.40846 0.94694 0.68621 0.0
H1790 H 0.42773 0.92849 0.79731 0.0
C1791 C 0.41448 0.93027 1.0098 0.0
C1792 C 0.40406 0.93923 0.86476 0.0
C1793 C 0.41333 0.93108 0.07243 0.0
C1794 C 0.41235 0.93879 0.60719 0.0
C1795 C 0.41136 0.94012 0.66965 0.0
C1796 C 0.42104 0.93144 0.81548 0.0
C1797 C 0.41061 0.93735 0.97061 0.0
C1798 C 0.41164 0.93638 0.90368 0.0
C1799 C 0.41431 0.93284 0.71027 0.0
C1800 C 0.41345 0.93424 0.77675 0.0
H1801 H 0.4006 0.9523 0.07638 0.0
H1802 H 0.40275 0.95101 0.96753 0.0
H1803 H 0.42623 0.93043 0.90629 0.0
H1804 H 0.42187 0.91591 0.6089 0.0
H1805 H 0.4203 0.91832 0.71697 0.0
C1806 C 0.81584 0.66538 0.86766 0.0
C1807 C 0.81055 0.65758 0.89241 0.0
C1808 C 0.81613 0.66687 0.80518 0.0
C1809 C 0.80372 0.66002 0.66149 0.0
H1810 H 0.82788 0.66874 0.58965 0.0
C1811 C 0.81133 0.65991 0.40281 0.0
C1812 C 0.81598 0.6682 0.37921 0.0
C1813 C 0.81017 0.65876 0.46528 0.0
C1814 C 0.82105 0.66638 0.60909 0.0
H1815 H 0.80121 0.64539 0.86965 0.0
H1816 H 0.80204 0.64776 0.7614 0.0
H1817 H 0.82689 0.66649 0.69848 0.0
H1818 H 0.8226 0.68199 0.40358 0.0
H1819 H 0.82076 0.67986 0.51179 0.0
H1820 H 0.79799 0.65972 0.57141 0.0
C1821 C 0.80585 0.65284 0.7903 0.0
C1822 C 0.82046 0.66513 0.67161 0.0
C1823 C 0.80549 0.65139 0.85274 0.0
C1824 C 0.81921 0.67539 0.41975 0.0
C1825 C 0.81813 0.6742 0.48198 0.0
C1826 C 0.80434 0.66119 0.5988 0.0
C1827 C 0.8112 0.66057 0.76556 0.0
C1828 C 0.81178 0.66196 0.69878 0.0
C1829 C 0.81371 0.66582 0.50554 0.0
C1830 C 0.81301 0.66443 0.57197 0.0
H1831 H 0.8199 0.67028 0.89624 0.0
H1832 H 0.82021 0.67301 0.788 0.0
H1833 H 0.79686 0.65772 0.68071 0.0
H1834 H 0.8088 0.65418 0.37331 0.0
H1835 H 0.80677 0.6522 0.48216 0.0
C1836 C 0.08482 0.0672 0.57272 0.0
C1837 C 0.0896 0.05912 0.59766 0.0
C1838 C 0.0837 0.06808 0.51009 0.0
C1839 C 0.09369 0.05871 0.36483 0.0
H1840 H 0.07048 0.07043 0.29771 0.0
C1841 C 0.08538 0.05946 0.10738 0.0
C1842 C 0.08182 0.06828 0.08389 0.0
C1843 C 0.08633 0.0581 0.16985 0.0
C1844 C 0.07704 0.06721 0.31577 0.0
H1845 H 0.09664 0.04546 0.57637 0.0
H1846 H 0.09454 0.04687 0.46756 0.0
H1847 H 0.07192 0.06844 0.40668 0.0
H1848 H 0.07673 0.08268 0.10887 0.0
H1849 H 0.07823 0.08024 0.21695 0.0
H1850 H 0.09873 0.0574 0.27358 0.0
C1851 C 0.09188 0.05269 0.49604 0.0
C1852 C 0.07789 0.06609 0.37836 0.0
C1853 C 0.09307 0.05186 0.55856 0.0
C1854 C 0.07931 0.07571 0.12475 0.0
C1855 C 0.08018 0.07433 0.18703 0.0
C1856 C 0.0928 0.05977 0.30218 0.0
C1857 C 0.08726 0.06086 0.4708 0.0
C1858 C 0.08625 0.06188 0.40387 0.0
C1859 C 0.08366 0.0655 0.21042 0.0
C1860 C 0.0845 0.06408 0.27692 0.0
H1861 H 0.08218 0.07299 0.60148 0.0
H1862 H 0.08024 0.07455 0.49248 0.0
H1863 H 0.10032 0.05559 0.38264 0.0
H1864 H 0.0873 0.05351 0.07773 0.0
H1865 H 0.08896 0.05118 0.18646 0.0
C1866 C 0.68677 0.33115 0.89797 0.0
C1867 C 0.67862 0.3359 0.87358 0.0
C1868 C 0.68829 0.33089 0.96058 0.0
C1869 C 0.6752 0.33422 0.10698 0.0
H1870 H 0.70125 0.3352 0.17299 0.0
C1871 C 0.68292 0.33789 0.36429 0.0
C1872 C 0.69042 0.33208 0.38815 0.0
C1873 C 0.68142 0.33849 0.30174 0.0
C1874 C 0.69393 0.33484 0.15529 0.0
H1875 H 0.66589 0.34442 0.89608 0.0
H1876 H 0.66859 0.34414 1.00463 0.0
H1877 H 0.69891 0.33612 0.06406 0.0
H1878 H 0.70204 0.32214 0.36361 0.0
H1879 H 0.69949 0.32331 0.25544 0.0
H1880 H 0.67024 0.33304 0.19848 0.0
C1881 C 0.67369 0.34035 0.97577 0.0
C1882 C 0.69258 0.33534 0.09266 0.0
C1883 C 0.67215 0.34055 0.91332 0.0
C1884 C 0.69631 0.32685 0.34749 0.0
C1885 C 0.69485 0.32751 0.28511 0.0
C1886 C 0.67655 0.33379 0.16964 0.0
C1887 C 0.68173 0.33544 1.00049 0.0
C1888 C 0.68319 0.33501 0.06748 0.0
C1889 C 0.68741 0.33335 0.26132 0.0
C1890 C 0.68594 0.33405 0.19462 0.0
H1891 H 0.69185 0.3274 0.8688 0.0
H1892 H 0.69449 0.32692 0.9777 0.0
H1893 H 0.66787 0.33376 0.08953 0.0
H1894 H 0.6783 0.34212 0.39373 0.0
H1895 H 0.67567 0.34314 0.28496 0.0
C1896 C 0.41461 0.06026 0.43528 0.0
C1897 C 0.41798 0.06912 0.4593 0.0
C1898 C 0.41376 0.05897 0.37272 0.0
C1899 C 0.4126 0.07287 0.22819 0.0
H1900 H 0.41915 0.04801 0.15659 0.0
C1901 C 0.41609 0.06759 0.96984 0.0
C1902 C 0.41139 0.05939 0.94567 0.0
C1903 C 0.41714 0.06864 0.0324 0.0
C1904 C 0.41724 0.05498 0.17598 0.0
H1905 H 0.42289 0.08362 0.43521 0.0
H1906 H 0.42175 0.08126 0.32723 0.0
H1907 H 0.42027 0.05009 0.26578 0.0
H1908 H 0.40444 0.04573 0.96808 0.0
H1909 H 0.40631 0.04755 0.07711 0.0
H1910 H 0.4097 0.07778 0.13817 0.0
C1911 C 0.41961 0.07534 0.35656 0.0
C1912 C 0.41783 0.05617 0.23866 0.0
C1913 C 0.4204 0.07665 0.41891 0.0
C1914 C 0.40801 0.05217 0.98536 0.0
C1915 C 0.40915 0.05317 0.04778 0.0
C1916 C 0.41209 0.0717 0.16554 0.0
C1917 C 0.41628 0.06649 0.33247 0.0
C1918 C 0.41552 0.06514 0.26569 0.0
C1919 C 0.41363 0.06147 0.07211 0.0
C1920 C 0.41439 0.06274 0.13868 0.0
H1921 H 0.41275 0.05426 0.46458 0.0
H1922 H 0.41105 0.05209 0.356 0.0
H1923 H 0.41057 0.07983 0.24725 0.0
H1924 H 0.4187 0.07331 0.94053 0.0
H1925 H 0.4207 0.07509 0.04973 0.0
C1926 C 0.68493 0.66298 0.14611 0.0
C1927 C 0.67694 0.66819 0.16916 0.0
C1928 C 0.68604 0.66163 0.08371 0.0
C1929 C 0.67873 0.67221 0.93744 0.0
H1930 H 0.68528 0.64697 0.87132 0.0
C1931 C 0.67594 0.66417 0.68196 0.0
C1932 C 0.68286 0.65795 0.65586 0.0
C1933 C 0.67559 0.66548 0.74461 0.0
C1934 C 0.68359 0.65411 0.88894 0.0
H1935 H 0.6637 0.67575 0.14369 0.0
H1936 H 0.66575 0.67356 0.03591 0.0
H1937 H 0.68421 0.64907 0.98052 0.0
H1938 H 0.69502 0.64845 0.6751 0.0
H1939 H 0.69455 0.65083 0.78401 0.0
H1940 H 0.67818 0.67731 0.8463 0.0
C1941 C 0.67123 0.67063 0.06599 0.0
C1942 C 0.68296 0.6553 0.95162 0.0
C1943 C 0.67007 0.67191 0.12809 0.0
C1944 C 0.6895 0.65317 0.69383 0.0
C1945 C 0.68921 0.65452 0.75639 0.0
C1946 C 0.67943 0.67105 0.87487 0.0
C1947 C 0.67925 0.66553 0.04295 0.0
C1948 C 0.68042 0.66434 0.97655 0.0
C1949 C 0.68222 0.66066 0.78275 0.0
C1950 C 0.68177 0.66196 0.84965 0.0
H1951 H 0.69041 0.66007 0.17605 0.0
H1952 H 0.69233 0.65771 0.06729 0.0
H1953 H 0.67691 0.67931 0.95528 0.0
H1954 H 0.67064 0.66786 0.65409 0.0
H1955 H 0.67 0.67013 0.76317 0.0
C1956 C 0.09238 0.94482 0.47837 0.0
C1957 C 0.08809 0.93793 0.43981 0.0
C1958 C 0.09109 0.94426 0.54091 0.0
C1959 C 0.07559 0.93285 0.65927 0.0
H1960 H 0.09733 0.93906 0.76379 0.0
C1961 C 0.07591 0.92306 0.91232 0.0
C1962 C 0.07921 0.93015 0.95337 0.0
C1963 C 0.07696 0.92438 0.85012 0.0
C1964 C 0.09116 0.9374 0.73524 0.0
H1965 H 0.07909 0.92503 0.43696 0.0
H1966 H 0.07696 0.92392 0.54604 0.0
H1967 H 0.09912 0.94057 0.65463 0.0
H1968 H 0.08632 0.94419 0.96008 0.0
H1969 H 0.0883 0.94638 0.85132 0.0
H1970 H 0.06771 0.92949 0.74003 0.0
C1971 C 0.08116 0.92991 0.52796 0.0
C1972 C 0.09217 0.93829 0.67256 0.0
C1973 C 0.08239 0.93052 0.46531 0.0
C1974 C 0.08377 0.93853 0.9302 0.0
C1975 C 0.08489 0.9398 0.86776 0.0
C1976 C 0.07461 0.9319 0.72186 0.0
C1977 C 0.08553 0.93675 0.5667 0.0
C1978 C 0.0844 0.93599 0.63364 0.0
C1979 C 0.08141 0.93277 0.82702 0.0
C1980 C 0.08239 0.93412 0.76058 0.0
H1981 H 0.09668 0.95071 0.46009 0.0
H1982 H 0.09441 0.94978 0.56899 0.0
H1983 H 0.06938 0.9312 0.63102 0.0
H1984 H 0.07257 0.91642 0.92799 0.0
H1985 H 0.07438 0.91873 0.82004 0.0
C1986 C 0.81234 0.33475 0.67864 0.0
C1987 C 0.82148 0.33212 0.70223 0.0
C1988 C 0.81089 0.3354 0.61615 0.0
C1989 C 0.82074 0.32669 0.47091 0.0
H1990 H 0.80689 0.34861 0.40257 0.0
C1991 C 0.81966 0.33395 0.2133 0.0
C1992 C 0.81114 0.33795 0.18868 0.0
C1993 C 0.82071 0.33297 0.27591 0.0
C1994 C 0.81065 0.34235 0.42081 0.0
H1995 H 0.83629 0.32841 0.67745 0.0
H1996 H 0.83369 0.3294 0.56923 0.0
H1997 H 0.80897 0.34748 0.51161 0.0
H1998 H 0.7969 0.34367 0.21034 0.0
H1999 H 0.79861 0.34177 0.31914 0.0
H2000 H 0.82234 0.32149 0.38041 0.0
C2001 C 0.82763 0.33083 0.59913 0.0
C2002 C 0.81186 0.34173 0.48343 0.0
C2003 C 0.82911 0.33025 0.66146 0.0
C2004 C 0.80361 0.34071 0.22798 0.0
C2005 C 0.80462 0.33966 0.29045 0.0
C2006 C 0.81947 0.32727 0.40832 0.0
C2007 C 0.8185 0.33338 0.57568 0.0
C2008 C 0.81697 0.33392 0.5092 0.0
C2009 C 0.81323 0.33588 0.31543 0.0
C2010 C 0.81444 0.33514 0.38232 0.0
H2011 H 0.80625 0.33613 0.70823 0.0
H2012 H 0.80374 0.33731 0.59948 0.0
H2013 H 0.8246 0.32051 0.48942 0.0
H2014 H 0.82563 0.33187 0.18431 0.0
H2015 H 0.8275 0.33016 0.29334 0.0
C2016 C 0.15774 0.63562 1.01052 0.0
C2017 C 0.1664 0.63761 0.0417 0.0
C2018 C 0.15296 0.62676 0.01821 0.0
C2019 C 0.14963 0.60798 0.13263 0.0
H2020 H 0.1341 0.59592 1.00722 0.0
C2021 C 0.11746 0.5769 0.10045 0.0
C2022 C 0.11126 0.58002 0.14701 0.0
C2023 C 0.12597 0.58208 0.08717 0.0
C2024 C 0.13851 0.59907 0.04266 0.0
H2025 H 0.17713 0.63165 0.10306 0.0
H2026 H 0.16874 0.6161 0.11665 0.0
H2027 H 0.14615 0.60818 0.98025 0.0
H2028 H 0.10934 0.59073 0.21786 0.0
H2029 H 0.12407 0.5997 0.19486 0.0
H2030 H 0.14181 0.59905 0.19519 0.0
C2031 C 0.16562 0.62146 0.08652 0.0
C2032 C 0.14535 0.60616 0.02726 0.0
C2033 C 0.17046 0.63033 0.07846 0.0
C2034 C 0.11394 0.58815 0.18153 0.0
C2035 C 0.12245 0.59326 0.16866 0.0
C2036 C 0.14277 0.6009 0.14802 0.0
C2037 C 0.1567 0.61966 0.05751 0.0
C2038 C 0.15077 0.61093 0.07227 0.0
C2039 C 0.12849 0.5904 0.1207 0.0
C2040 C 0.13691 0.59659 0.10344 0.0
H2041 H 0.15445 0.64106 0.98164 0.0
H2042 H 0.14606 0.62569 0.99569 0.0
H2043 H 0.15363 0.61153 0.1685 0.0
H2044 H 0.11559 0.57065 0.07305 0.0
H2045 H 0.13052 0.57966 0.05017 0.0
C2046 C 0.60889 0.90564 0.29781 0.0
C2047 C 0.60709 0.91446 0.32768 0.0
C2048 C 0.61753 0.90057 0.30735 0.0
C2049 C 0.63819 0.89316 0.31392 0.0
H2050 H 0.64605 0.88923 0.48014 0.0
C2051 C 0.66867 0.86602 0.37721 0.0
C2052 C 0.66601 0.85954 0.42344 0.0
C2053 C 0.66315 0.87442 0.36648 0.0
C2054 C 0.64399 0.8903 0.43343 0.0
H2055 H 0.61307 0.925 0.39023 0.0
H2056 H 0.62823 0.91607 0.40725 0.0
H2057 H 0.6331 0.90075 0.45699 0.0
H2058 H 0.65582 0.85705 0.49655 0.0
H2059 H 0.64627 0.87156 0.47792 0.0
H2060 H 0.64872 0.88234 0.29063 0.0
C2061 C 0.6229 0.91308 0.3765 0.0
C2062 C 0.63662 0.89697 0.4201 0.0
C2063 C 0.61423 0.91821 0.36661 0.0
C2064 C 0.65804 0.86186 0.46036 0.0
C2065 C 0.6526 0.87025 0.45 0.0
C2066 C 0.64556 0.8865 0.32722 0.0
C2067 C 0.62461 0.90416 0.3472 0.0
C2068 C 0.63343 0.89826 0.36036 0.0
C2069 C 0.65495 0.87654 0.40223 0.0
C2070 C 0.64834 0.88477 0.38733 0.0
H2071 H 0.60356 0.90254 0.26742 0.0
H2072 H 0.61853 0.89365 0.2848 0.0
H2073 H 0.636 0.89409 0.2673 0.0
H2074 H 0.67478 0.86443 0.34802 0.0
H2075 H 0.66519 0.87917 0.3296 0.0
C2076 C 0.3298 0.36546 0.59793 0.0
C2077 C 0.33384 0.35625 0.60912 0.0
C2078 C 0.33528 0.37391 0.60853 0.0
C2079 C 0.35572 0.38315 0.69704 0.0
H2080 H 0.36218 0.39978 0.56142 0.0
C2081 C 0.39155 0.40351 0.68742 0.0
C2082 C 0.39209 0.41291 0.6629 0.0
C2083 C 0.38295 0.39819 0.6848 0.0
C2084 C 0.36029 0.39536 0.60015 0.0
H2085 H 0.34658 0.34864 0.64199 0.0
H2086 H 0.35595 0.36328 0.66208 0.0
H2087 H 0.34934 0.38753 0.55094 0.0
H2088 H 0.38397 0.42412 0.6162 0.0
H2089 H 0.36879 0.41472 0.6114 0.0
H2090 H 0.36676 0.3907 0.74596 0.0
C2091 C 0.34863 0.36402 0.64454 0.0
C2092 C 0.35295 0.38835 0.5941 0.0
C2093 C 0.34329 0.35563 0.63272 0.0
C2094 C 0.38377 0.41689 0.63554 0.0
C2095 C 0.3751 0.41151 0.63267 0.0
C2096 C 0.36296 0.39018 0.70327 0.0
C2097 C 0.34475 0.37323 0.63202 0.0
C2098 C 0.35088 0.38194 0.64182 0.0
C2099 C 0.3746 0.4021 0.65763 0.0
C2100 C 0.36563 0.39608 0.65414 0.0
H2101 H 0.32255 0.36612 0.5794 0.0
H2102 H 0.33214 0.38094 0.59847 0.0
H2103 H 0.35418 0.37837 0.73474 0.0
H2104 H 0.3978 0.40017 0.70866 0.0
H2105 H 0.38292 0.3909 0.70321 0.0
C2106 C 0.89272 0.09266 0.90223 0.0
C2107 C 0.89221 0.08345 0.8752 0.0
C2108 C 0.88426 0.09776 0.91631 0.0
C2109 C 0.85983 0.10212 0.86822 0.0
H2110 H 0.8571 0.11415 0.0256 0.0
C2111 C 0.83056 0.13167 0.91889 0.0
C2112 C 0.83418 0.13978 0.95034 0.0
C2113 C 0.83614 0.12316 0.9139 0.0
C2114 C 0.85774 0.11086 0.98135 0.0
H2115 H 0.88248 0.0723 0.84167 0.0
H2116 H 0.86755 0.08147 0.86473 0.0
H2117 H 0.86981 0.10211 1.00901 0.0
H2118 H 0.84644 0.14522 1.00189 0.0
H2119 H 0.85609 0.13063 0.99258 0.0
H2120 H 0.84816 0.11134 0.83939 0.0
C2121 C 0.87455 0.08461 0.8757 0.0
C2122 C 0.86498 0.10393 0.97206 0.0
C2123 C 0.88305 0.07938 0.8628 0.0
C2124 C 0.84339 0.13913 0.9774 0.0
C2125 C 0.84891 0.13069 0.97254 0.0
C2126 C 0.85263 0.10917 0.87731 0.0
C2127 C 0.8751 0.09385 0.90267 0.0
C2128 C 0.8663 0.09972 0.91496 0.0
C2129 C 0.8454 0.12259 0.94064 0.0
C2130 C 0.85174 0.11388 0.93346 0.0
H2131 H 0.89967 0.09596 0.9125 0.0
H2132 H 0.8849 0.1049 0.93656 0.0
H2133 H 0.86074 0.099 0.82367 0.0
H2134 H 0.82348 0.13195 0.89753 0.0
H2135 H 0.83321 0.11704 0.88916 0.0
C2136 C 0.16739 0.3644 0.88133 0.0
C2137 C 0.16323 0.3551 0.87631 0.0
C2138 C 0.16186 0.37271 0.86802 0.0
C2139 C 0.14092 0.38079 0.77999 0.0
H2140 H 0.13577 0.39976 0.90546 0.0
C2141 C 0.10598 0.40285 0.78129 0.0
C2142 C 0.10599 0.41258 0.80041 0.0
C2143 C 0.11431 0.39716 0.78635 0.0
C2144 C 0.13728 0.39466 0.86943 0.0
H2145 H 0.15019 0.34717 0.85193 0.0
H2146 H 0.14072 0.36156 0.82729 0.0
H2147 H 0.14835 0.38738 0.92086 0.0
H2148 H 0.1148 0.42398 0.84001 0.0
H2149 H 0.12949 0.41395 0.84875 0.0
H2150 H 0.12981 0.38783 0.72885 0.0
C2151 C 0.14817 0.36247 0.84204 0.0
C2152 C 0.14447 0.38758 0.87831 0.0
C2153 C 0.15358 0.35424 0.85649 0.0
C2154 C 0.11457 0.4165 0.82487 0.0
C2155 C 0.12296 0.41076 0.83003 0.0
C2156 C 0.13383 0.38788 0.77087 0.0
C2157 C 0.15221 0.37179 0.848 0.0
C2158 C 0.14609 0.38038 0.83449 0.0
C2159 C 0.12293 0.40102 0.81049 0.0
C2160 C 0.13164 0.39466 0.81641 0.0
H2161 H 0.1748 0.36526 0.89678 0.0
H2162 H 0.16511 0.37984 0.87299 0.0
H2163 H 0.14212 0.37538 0.74521 0.0
H2164 H 0.09951 0.39955 0.76255 0.0
H2165 H 0.11392 0.38963 0.7722 0.0
C2166 C 0.88139 0.91721 0.11891 0.0
C2167 C 0.8904 0.91307 0.10344 0.0
C2168 C 0.87272 0.91224 0.1063 0.0
C2169 C 0.86222 0.89335 1.00912 0.0
H2170 H 0.84609 0.88617 0.14557 0.0
C2171 C 0.84037 0.85822 0.01226 0.0
C2172 C 0.83163 0.85752 0.04469 0.0
C2173 C 0.84576 0.8668 0.0126 0.0
C2174 C 0.85034 0.88829 0.10657 0.0
H2175 H 0.8974 0.90076 0.06064 0.0
H2176 H 0.88233 0.89227 0.03726 0.0
H2177 H 0.85895 0.89826 0.1585 0.0
H2178 H 0.82146 0.86543 0.10094 0.0
H2179 H 0.8309 0.88056 0.10122 0.0
H2180 H 0.85383 0.88329 0.95729 0.0
C2181 C 0.88194 0.89927 0.05958 0.0
C2182 C 0.85772 0.8952 0.1141 0.0
C2183 C 0.89057 0.9041 0.07333 0.0
C2184 C 0.82817 0.86576 0.07551 0.0
C2185 C 0.83361 0.87439 0.076 0.0
C2186 C 0.85479 0.88655 1.00139 0.0
C2187 C 0.87294 0.90321 0.07661 0.0
C2188 C 0.86396 0.8975 0.06598 0.0
C2189 C 0.84256 0.87495 0.04529 0.0
C2190 C 0.84902 0.88361 0.05061 0.0
H2191 H 0.88107 0.9241 0.14242 0.0
H2192 H 0.86586 0.91541 0.11994 0.0
H2193 H 0.86686 0.8951 0.9711 0.0
H2194 H 0.84324 0.85203 0.98786 0.0
H2195 H 0.85267 0.86686 0.98927 0.0
C2196 C 0.34132 0.64098 0.3271 0.0
C2197 C 0.33217 0.64121 0.35497 0.0
C2198 C 0.34614 0.63219 0.31817 0.0
C2199 C 0.34963 0.60875 0.38554 0.0
H2200 H 0.36345 0.60329 0.23677 0.0
C2201 C 0.38025 0.57981 0.3742 0.0
C2202 C 0.38877 0.58333 0.34679 0.0
C2203 C 0.37146 0.58488 0.36792 0.0
C2204 C 0.35963 0.60468 0.27865 0.0
H2205 H 0.32077 0.63242 0.39461 0.0
H2206 H 0.32944 0.61691 0.38065 0.0
H2207 H 0.35123 0.61613 0.23899 0.0
H2208 H 0.39464 0.59462 0.28892 0.0
H2209 H 0.37951 0.6034 0.2784 0.0
H2210 H 0.3585 0.59777 0.42635 0.0
C2211 C 0.33276 0.62358 0.36496 0.0
C2212 C 0.3526 0.612 0.27976 0.0
C2213 C 0.32781 0.63242 0.37269 0.0
C2214 C 0.38823 0.59173 0.31088 0.0
C2215 C 0.37949 0.59673 0.30435 0.0
C2216 C 0.35675 0.60147 0.3846 0.0
C2217 C 0.34201 0.62342 0.33791 0.0
C2218 C 0.3478 0.61435 0.33373 0.0
C2219 C 0.37102 0.59349 0.33358 0.0
C2220 C 0.36211 0.59963 0.33169 0.0
H2221 H 0.34484 0.64765 0.31283 0.0
H2222 H 0.3533 0.6323 0.29785 0.0
H2223 H 0.34606 0.61046 0.42783 0.0
H2224 H 0.38046 0.57336 0.40219 0.0
H2225 H 0.36505 0.58217 0.39071 0.0
C2226 C 0.61638 0.08107 0.60454 0.0
C2227 C 0.6075 0.08531 0.58736 0.0
C2228 C 0.62513 0.08611 0.59603 0.0
C2229 C 0.63633 0.10608 0.50963 0.0
H2230 H 0.65154 0.11127 0.65338 0.0
C2231 C 0.6701 0.13234 0.59804 0.0
C2232 C 0.66687 0.14102 0.57122 0.0
C2233 C 0.66458 0.1238 0.5929 0.0
C2234 C 0.64755 0.10973 0.61237 0.0
H2235 H 0.60085 0.0979 0.54551 0.0
H2236 H 0.61607 0.10655 0.52941 0.0
H2237 H 0.63857 0.09914 0.65666 0.0
H2238 H 0.65557 0.14743 0.51572 0.0
H2239 H 0.64601 0.13275 0.50733 0.0
H2240 H 0.64508 0.11678 0.46555 0.0
C2241 C 0.6163 0.09939 0.54981 0.0
C2242 C 0.6401 0.10279 0.61435 0.0
C2243 C 0.60757 0.09447 0.55939 0.0
C2244 C 0.65826 0.14089 0.53717 0.0
C2245 C 0.6528 0.13241 0.53185 0.0
C2246 C 0.64381 0.11293 0.50746 0.0
C2247 C 0.62515 0.09535 0.56888 0.0
C2248 C 0.63419 0.10118 0.56362 0.0
C2249 C 0.65578 0.12378 0.56039 0.0
C2250 C 0.64925 0.11514 0.55947 0.0
H2251 H 0.61652 0.07403 0.62649 0.0
H2252 H 0.63187 0.08284 0.61112 0.0
H2253 H 0.63197 0.10487 0.4696 0.0
H2254 H 0.67671 0.13223 0.62457 0.0
H2255 H 0.66712 0.11726 0.61507 0.0
C2256 C 0.84315 0.35983 0.985 0.0
C2257 C 0.83417 0.35889 0.95537 0.0
C2258 C 0.84835 0.3685 0.98243 0.0
C2259 C 0.85197 0.3903 0.88992 0.0
H2260 H 0.86776 0.39779 0.02733 0.0
C2261 C 0.88184 0.42069 0.88408 0.0
C2262 C 0.89095 0.41674 0.89914 0.0
C2263 C 0.87331 0.41537 0.89508 0.0
C2264 C 0.86331 0.39586 0.9888 0.0
H2265 H 0.82355 0.36642 0.9003 0.0
H2266 H 0.83273 0.38172 0.89578 0.0
H2267 H 0.85533 0.3853 0.03932 0.0
H2268 H 0.89828 0.40441 0.93953 0.0
H2269 H 0.88346 0.39534 0.96039 0.0
H2270 H 0.86022 0.40077 0.83927 0.0
C2271 C 0.83572 0.37566 0.92085 0.0
C2272 C 0.85624 0.38867 0.99547 0.0
C2273 C 0.83045 0.36692 0.92361 0.0
C2274 C 0.89136 0.40761 0.92726 0.0
C2275 C 0.88288 0.40244 0.9395 0.0
C2276 C 0.85901 0.39759 0.88341 0.0
C2277 C 0.84475 0.37653 0.95024 0.0
C2278 C 0.85077 0.3855 0.94555 0.0
C2279 C 0.87378 0.40619 0.92285 0.0
C2280 C 0.865 0.40015 0.93229 0.0
H2281 H 0.84626 0.35381 1.00984 0.0
H2282 H 0.85537 0.3688 1.0045 0.0
H2283 H 0.84792 0.38802 0.85051 0.0
H2284 H 0.88135 0.4277 0.86201 0.0
H2285 H 0.86637 0.4184 0.88177 0.0
C2286 C 0.38336 0.07947 0.68046 0.0
C2287 C 0.3917 0.08324 0.70877 0.0
C2288 C 0.37476 0.08496 0.678 0.0
C2289 C 0.36279 0.10632 0.7499 0.0
H2290 H 0.34928 0.10919 0.59736 0.0
C2291 C 0.34326 0.14102 0.68002 0.0
C2292 C 0.33389 0.14046 0.65541 0.0
C2293 C 0.34855 0.13261 0.69209 0.0
C2294 C 0.35285 0.10831 0.64057 0.0
H2295 H 0.39749 0.0957 0.7569 0.0
H2296 H 0.38273 0.10518 0.75205 0.0
H2297 H 0.36202 0.09686 0.60769 0.0
H2298 H 0.32263 0.13066 0.6243 0.0
H2299 H 0.33213 0.11578 0.64382 0.0
H2300 H 0.35406 0.11815 0.78158 0.0
C2301 C 0.38269 0.09796 0.73259 0.0
C2302 C 0.36015 0.10125 0.64655 0.0
C2303 C 0.39122 0.09253 0.73487 0.0
C2304 C 0.32983 0.13127 0.64362 0.0
C2305 C 0.33526 0.1228 0.65447 0.0
C2306 C 0.3556 0.1134 0.74374 0.0
C2307 C 0.37434 0.09427 0.70424 0.0
C2308 C 0.36545 0.10043 0.70066 0.0
C2309 C 0.34468 0.12342 0.67883 0.0
C2310 C 0.35079 0.11468 0.68847 0.0
H2311 H 0.38349 0.07233 0.65991 0.0
H2312 H 0.36844 0.0819 0.6559 0.0
H2313 H 0.36655 0.10572 0.79271 0.0
H2314 H 0.34656 0.148 0.68976 0.0
H2315 H 0.35583 0.13331 0.71029 0.0
C2316 C 0.61206 0.58036 0.33278 0.0
C2317 C 0.60334 0.5842 0.30981 0.0
C2318 C 0.62068 0.58577 0.32993 0.0
C2319 C 0.63167 0.60801 0.2604 0.0
H2320 H 0.6458 0.60977 0.41147 0.0
C2321 C 0.65087 0.64251 0.33991 0.0
C2322 C 0.66013 0.64185 0.36616 0.0
C2323 C 0.64574 0.63415 0.32427 0.0
C2324 C 0.64206 0.60922 0.36857 0.0
H2325 H 0.59697 0.59647 0.26277 0.0
H2326 H 0.61183 0.60587 0.25842 0.0
H2327 H 0.63346 0.59718 0.39849 0.0
H2328 H 0.67135 0.6319 0.39609 0.0
H2329 H 0.66216 0.61714 0.37016 0.0
H2330 H 0.63986 0.62045 0.23211 0.0
C2331 C 0.61212 0.59868 0.27815 0.0
C2332 C 0.63499 0.602 0.361 0.0
C2333 C 0.60354 0.5933 0.28108 0.0
C2334 C 0.66423 0.63261 0.37574 0.0
C2335 C 0.65898 0.62419 0.36112 0.0
C2336 C 0.63864 0.61528 0.26824 0.0
C2337 C 0.62076 0.5951 0.30378 0.0
C2338 C 0.62947 0.60152 0.30757 0.0
C2339 C 0.64967 0.6249 0.33535 0.0
C2340 C 0.64368 0.61615 0.32309 0.0
H2341 H 0.61214 0.57336 0.35521 0.0
H2342 H 0.62723 0.58274 0.34947 0.0
H2343 H 0.62773 0.60771 0.21812 0.0
H2344 H 0.64754 0.64952 0.3317 0.0
H2345 H 0.63853 0.63492 0.30517 0.0
C2346 C 0.16735 0.86573 0.12879 0.0
C2347 C 0.16374 0.85748 0.09876 0.0
C2348 C 0.1617 0.87421 0.13298 0.0
C2349 C 0.13995 0.88606 0.0644 0.0
H2350 H 0.13712 0.89879 0.21958 0.0
C2351 C 0.10506 0.90467 0.14093 0.0
C2352 C 0.10558 0.91412 0.16459 0.0
C2353 C 0.11349 0.89946 0.12827 0.0
C2354 C 0.13798 0.89542 0.1757 0.0
H2355 H 0.15141 0.85171 0.04928 0.0
H2356 H 0.14164 0.86624 0.05725 0.0
H2357 H 0.1497 0.88637 0.20593 0.0
H2358 H 0.11534 0.92555 0.19379 0.0
H2359 H 0.13026 0.91619 0.17331 0.0
H2360 H 0.12784 0.89464 0.03543 0.0
C2361 C 0.14886 0.86633 0.07667 0.0
C2362 C 0.14519 0.88833 0.16779 0.0
C2363 C 0.15446 0.85792 0.07259 0.0
C2364 C 0.11475 0.91829 0.17526 0.0
C2365 C 0.12325 0.91294 0.16384 0.0
C2366 C 0.13271 0.89303 0.07253 0.0
C2367 C 0.15238 0.87459 0.10686 0.0
C2368 C 0.14602 0.88331 0.11262 0.0
C2369 C 0.12267 0.90349 0.14004 0.0
C2370 C 0.13146 0.89755 0.12874 0.0
H2371 H 0.17448 0.86561 0.14944 0.0
H2372 H 0.16463 0.88046 0.15643 0.0
H2373 H 0.14055 0.88254 0.02083 0.0
H2374 H 0.09809 0.90129 0.13203 0.0
H2375 H 0.11285 0.89215 0.11045 0.0
C2376 C 0.88289 0.58003 0.19648 0.0
C2377 C 0.89119 0.58389 0.22464 0.0
C2378 C 0.87405 0.58511 0.19796 0.0
C2379 C 0.86155 0.60584 0.27478 0.0
H2380 H 0.84853 0.60929 0.12103 0.0
C2381 C 0.84237 0.64084 0.20533 0.0
C2382 C 0.83321 0.64036 0.17776 0.0
C2383 C 0.84752 0.63237 0.21856 0.0
C2384 C 0.85195 0.60824 0.16457 0.0
H2385 H 0.8966 0.59589 0.27861 0.0
H2386 H 0.8814 0.6047 0.2806 0.0
H2387 H 0.86123 0.59696 0.13103 0.0
H2388 H 0.82215 0.63066 0.14285 0.0
H2389 H 0.83139 0.61572 0.16431 0.0
H2390 H 0.85272 0.61758 0.30699 0.0
C2391 C 0.88159 0.59773 0.2579 0.0
C2392 C 0.85922 0.60117 0.17041 0.0
C2393 C 0.89037 0.5927 0.25626 0.0
C2394 C 0.82919 0.63121 0.16442 0.0
C2395 C 0.83447 0.6227 0.17644 0.0
C2396 C 0.85438 0.61296 0.26872 0.0
C2397 C 0.87334 0.5941 0.22803 0.0
C2398 C 0.86437 0.60015 0.22499 0.0
C2399 C 0.8437 0.62323 0.20348 0.0
C2400 C 0.84975 0.61445 0.21303 0.0
H2401 H 0.8833 0.57325 0.17175 0.0
H2402 H 0.86782 0.58207 0.17486 0.0
H2403 H 0.86518 0.60509 0.3179 0.0
H2404 H 0.84563 0.64779 0.21632 0.0
H2405 H 0.85466 0.633 0.23879 0.0
C2406 C 0.15796 0.1348 0.99905 0.0
C2407 C 0.16663 0.13675 0.96789 0.0
C2408 C 0.15292 0.12613 0.98942 0.0
C2409 C 0.14466 0.10585 0.97502 0.0
H2410 H 0.14091 0.09998 0.80544 0.0
C2411 C 0.11631 0.07752 0.89405 0.0
C2412 C 0.11019 0.08098 0.84803 0.0
C2413 C 0.12484 0.08255 0.90903 0.0
C2414 C 0.14192 0.10149 0.85303 0.0
H2415 H 0.17713 0.13089 0.90463 0.0
H2416 H 0.1683 0.11568 0.88771 0.0
H2417 H 0.15304 0.11196 0.83517 0.0
H2418 H 0.10841 0.0922 0.78009 0.0
H2419 H 0.12317 0.10092 0.80605 0.0
H2420 H 0.13315 0.09575 0.99254 0.0
C2421 C 0.16536 0.12092 0.9193 0.0
C2422 C 0.14896 0.10827 0.87015 0.0
C2423 C 0.17045 0.1296 0.92929 0.0
C2424 C 0.11294 0.08935 0.81592 0.0
C2425 C 0.12147 0.09431 0.83048 0.0
C2426 C 0.13763 0.09904 0.95788 0.0
C2427 C 0.15641 0.1192 0.94816 0.0
C2428 C 0.1502 0.11077 0.93122 0.0
C2429 C 0.12745 0.09107 0.87778 0.0
C2430 C 0.13597 0.09701 0.89654 0.0
H2431 H 0.15484 0.14014 0.02931 0.0
H2432 H 0.14601 0.12511 0.01196 0.0
H2433 H 0.14552 0.10751 0.02251 0.0
H2434 H 0.11438 0.07109 0.91963 0.0
H2435 H 0.12933 0.07984 0.94546 0.0
C2436 C 0.61826 0.41803 0.60325 0.0
C2437 C 0.60943 0.41373 0.58577 0.0
C2438 C 0.62705 0.41302 0.59511 0.0
C2439 C 0.63839 0.39299 0.50997 0.0
H2440 H 0.65294 0.38747 0.65587 0.0
C2441 C 0.65897 0.35752 0.54244 0.0
C2442 C 0.66747 0.35714 0.5774 0.0
C2443 C 0.65386 0.36619 0.53577 0.0
C2444 C 0.64914 0.38911 0.61429 0.0
H2445 H 0.60288 0.40113 0.54356 0.0
H2446 H 0.61814 0.39256 0.52801 0.0
H2447 H 0.64025 0.39989 0.65725 0.0
H2448 H 0.6775 0.36568 0.63099 0.0
H2449 H 0.6685 0.38097 0.61927 0.0
H2450 H 0.64702 0.38204 0.46729 0.0
C2451 C 0.61832 0.39972 0.54839 0.0
C2452 C 0.64186 0.39622 0.61516 0.0
C2453 C 0.60957 0.40459 0.55766 0.0
C2454 C 0.67096 0.36575 0.60378 0.0
C2455 C 0.66579 0.37448 0.59734 0.0
C2456 C 0.64571 0.38596 0.50892 0.0
C2457 C 0.62713 0.40378 0.56796 0.0
C2458 C 0.63616 0.39793 0.56365 0.0
C2459 C 0.65709 0.37476 0.56389 0.0
C2460 C 0.65088 0.38362 0.56174 0.0
H2461 H 0.61833 0.42505 0.62533 0.0
H2462 H 0.63375 0.4163 0.61063 0.0
H2463 H 0.63419 0.39427 0.46938 0.0
H2464 H 0.65609 0.35103 0.52129 0.0
H2465 H 0.64712 0.36606 0.51054 0.0
C2466 C 0.38145 0.91894 0.37169 0.0
C2467 C 0.3898 0.91504 0.34417 0.0
C2468 C 0.37296 0.91334 0.37712 0.0
C2469 C 0.36128 0.89108 0.3146 0.0
H2470 H 0.3479 0.88961 0.46843 0.0
C2471 C 0.34217 0.85695 0.39853 0.0
C2472 C 0.33263 0.85767 0.42052 0.0
C2473 C 0.34747 0.86527 0.38434 0.0
C2474 C 0.35145 0.89009 0.42487 0.0
H2475 H 0.39574 0.90219 0.30085 0.0
H2476 H 0.38117 0.89251 0.31092 0.0
H2477 H 0.36047 0.902 0.45273 0.0
H2478 H 0.32113 0.86767 0.44517 0.0
H2479 H 0.33064 0.8824 0.42194 0.0
H2480 H 0.35271 0.87881 0.28812 0.0
C2481 C 0.38103 0.89992 0.32736 0.0
C2482 C 0.35864 0.89718 0.4158 0.0
C2483 C 0.38945 0.90547 0.32207 0.0
C2484 C 0.32846 0.86693 0.42798 0.0
C2485 C 0.33389 0.87532 0.415 0.0
C2486 C 0.35421 0.88397 0.32388 0.0
C2487 C 0.37266 0.90376 0.35475 0.0
C2488 C 0.36388 0.89751 0.36126 0.0
C2489 C 0.34343 0.87453 0.39283 0.0
C2490 C 0.34945 0.88321 0.3797 0.0
H2491 H 0.3815 0.92629 0.3892 0.0
H2492 H 0.36663 0.91651 0.39841 0.0
H2493 H 0.36499 0.89129 0.27149 0.0
H2494 H 0.34556 0.84992 0.39207 0.0
H2495 H 0.35484 0.86447 0.36785 0.0
C2496 C 0.08683 0.4718 0.81329 0.0
C2497 C 0.09015 0.46274 0.834 0.0
C2498 C 0.0887 0.48026 0.84594 0.0
C2499 C 0.09619 0.4981 0.9086 0.0
H2500 H 0.09464 0.4965 0.08289 0.0
C2501 C 0.09641 0.53276 0.0566 0.0
C2502 C 0.09009 0.53273 0.1064 0.0
C2503 C 0.09831 0.52416 0.0249 0.0
C2504 C 0.09502 0.49711 0.03422 0.0
H2505 H 0.09838 0.4555 0.90425 0.0
H2506 H 0.10196 0.47036 0.96051 0.0
H2507 H 0.09432 0.4817 0.02348 0.0
H2508 H 0.0808 0.52364 0.16194 0.0
H2509 H 0.08376 0.50885 0.10578 0.0
H2510 H 0.09615 0.51353 0.91909 0.0
C2511 C 0.09767 0.47089 0.91971 0.0
C2512 C 0.09502 0.48857 1.00004 0.0
C2513 C 0.09567 0.46237 0.8873 0.0
C2514 C 0.08578 0.52392 0.12407 0.0
C2515 C 0.08756 0.51538 0.09203 0.0
C2516 C 0.09603 0.50664 0.94273 0.0
C2517 C 0.09408 0.47994 0.89988 0.0
C2518 C 0.09536 0.48895 0.93663 0.0
C2519 C 0.09383 0.51536 0.04185 0.0
C2520 C 0.0952 0.50628 1.00597 0.0
H2521 H 0.0825 0.47236 0.77261 0.0
H2522 H 0.0856 0.487 0.82969 0.0
H2523 H 0.09672 0.4987 0.85998 0.0
H2524 H 0.09989 0.53943 0.04209 0.0
H2525 H 0.10329 0.52442 0.98707 0.0
C2526 C 0.71475 0.84577 0.33954 0.0
C2527 C 0.71329 0.83718 0.37249 0.0
C2528 C 0.72365 0.84748 0.31048 0.0
C2529 C 0.74932 0.83825 0.30819 0.0
H2530 H 0.75103 0.8536 0.16209 0.0
C2531 C 0.7783 0.84653 0.10177 0.0
C2532 C 0.78694 0.84559 0.13477 0.0
C2533 C 0.76931 0.84642 0.13125 0.0
C2534 C 0.75071 0.84917 0.20241 0.0
H2535 H 0.71968 0.8234 0.39802 0.0
H2536 H 0.73481 0.82602 0.34473 0.0
H2537 H 0.73532 0.85105 0.20935 0.0
H2538 H 0.79308 0.84437 0.22429 0.0
H2539 H 0.77753 0.84489 0.27633 0.0
H2540 H 0.76449 0.83569 0.29916 0.0
C2541 C 0.72943 0.83175 0.34369 0.0
C2542 C 0.74166 0.84785 0.2303 0.0
C2543 C 0.72069 0.83019 0.37392 0.0
C2544 C 0.78649 0.84497 0.19784 0.0
C2545 C 0.77753 0.84517 0.22751 0.0
C2546 C 0.75829 0.83935 0.27957 0.0
C2547 C 0.73117 0.84052 0.3126 0.0
C2548 C 0.74082 0.8423 0.28342 0.0
C2549 C 0.76876 0.84563 0.19466 0.0
C2550 C 0.75916 0.84481 0.22612 0.0
H2551 H 0.70913 0.85128 0.33787 0.0
H2552 H 0.72468 0.85436 0.28761 0.0
H2553 H 0.74911 0.83415 0.34987 0.0
H2554 H 0.77848 0.84691 0.05292 0.0
H2555 H 0.7628 0.84662 0.10388 0.0
C2556 C 0.40606 0.5366 0.49385 0.0
C2557 C 0.40104 0.53871 0.44022 0.0
C2558 C 0.4066 0.52708 0.51538 0.0
C2559 C 0.41265 0.5062 0.52698 0.0
H2560 H 0.39123 0.48788 0.52346 0.0
C2561 C 0.40644 0.46275 0.57589 0.0
C2562 C 0.41111 0.46221 0.6323 0.0
C2563 C 0.40464 0.47181 0.54893 0.0
C2564 C 0.39729 0.4929 0.524 0.0
H2565 H 0.39235 0.53249 0.36824 0.0
H2566 H 0.39342 0.51581 0.40547 0.0
H2567 H 0.38889 0.50442 0.48483 0.0
H2568 H 0.41731 0.47079 0.70511 0.0
H2569 H 0.41422 0.48639 0.65825 0.0
H2570 H 0.421 0.4948 0.56703 0.0
C2571 C 0.39686 0.52155 0.4312 0.0
C2572 C 0.39596 0.50236 0.50195 0.0
C2573 C 0.39626 0.53112 0.40981 0.0
C2574 C 0.41376 0.47089 0.66147 0.0
C2575 C 0.41204 0.47986 0.63451 0.0
C2576 C 0.41395 0.49681 0.5492 0.0
C2577 C 0.40222 0.51939 0.48359 0.0
C2578 C 0.40359 0.50918 0.50418 0.0
C2579 C 0.40757 0.48044 0.5777 0.0
C2580 C 0.40626 0.4901 0.54892 0.0
H2581 H 0.40973 0.54228 0.51881 0.0
H2582 H 0.41058 0.52574 0.55674 0.0
H2583 H 0.41877 0.51114 0.52778 0.0
H2584 H 0.4043 0.4562 0.55231 0.0
H2585 H 0.40118 0.47206 0.50503 0.0
C2586 C 0.77791 0.1667 0.90333 0.0
C2587 C 0.7855 0.15991 0.90104 0.0
C2588 C 0.76915 0.1649 0.87394 0.0
C2589 C 0.75712 0.14867 0.76088 0.0
H2590 H 0.73416 0.16014 0.83265 0.0
C2591 C 0.71224 0.15132 0.73019 0.0
C2592 C 0.71178 0.15108 0.66702 0.0
C2593 C 0.7212 0.1509 0.75972 0.0
C2594 C 0.7404 0.15667 0.81225 0.0
H2595 H 0.78998 0.14596 0.86567 0.0
H2596 H 0.7744 0.14249 0.81672 0.0
H2597 H 0.74958 0.16184 0.88253 0.0
H2598 H 0.72023 0.15014 0.58486 0.0
H2599 H 0.73591 0.15007 0.63569 0.0
H2600 H 0.74776 0.14296 0.69254 0.0
C2601 C 0.7753 0.14937 0.83974 0.0
C2602 C 0.74938 0.15786 0.84041 0.0
C2603 C 0.78421 0.15131 0.86801 0.0
C2604 C 0.72041 0.15024 0.63376 0.0
C2605 C 0.72941 0.15013 0.66317 0.0
C2606 C 0.74806 0.14725 0.73341 0.0
C2607 C 0.76759 0.15611 0.84283 0.0
C2608 C 0.75793 0.1541 0.81449 0.0
C2609 C 0.72996 0.15061 0.72668 0.0
C2610 C 0.73957 0.15139 0.75809 0.0
H2611 H 0.77878 0.17349 0.92748 0.0
H2612 H 0.76361 0.17048 0.87564 0.0
H2613 H 0.7635 0.14568 0.73915 0.0
H2614 H 0.70566 0.15187 0.75679 0.0
H2615 H 0.72121 0.15094 0.80856 0.0
C2616 C 0.91635 0.47369 0.88488 0.0
C2617 C 0.90983 0.46597 0.89297 0.0
C2618 C 0.91492 0.48252 0.9144 0.0
C2619 C 0.90045 0.49436 0.03769 0.0
H2620 H 0.91089 0.51748 0.96189 0.0
C2621 C 0.90296 0.53925 0.06997 0.0
C2622 C 0.90311 0.5396 0.13315 0.0
C2623 C 0.90253 0.53033 0.03997 0.0
C2624 C 0.90771 0.5112 0.98357 0.0
H2625 H 0.89667 0.46137 0.93804 0.0
H2626 H 0.89373 0.47704 0.98684 0.0
H2627 H 0.91193 0.50216 0.91019 0.0
H2628 H 0.90297 0.53102 0.21492 0.0
H2629 H 0.90293 0.51542 0.16321 0.0
H2630 H 0.89557 0.50357 0.1091 0.0
C2631 C 0.90019 0.47621 0.95949 0.0
C2632 C 0.90854 0.50226 0.95424 0.0
C2633 C 0.90181 0.46723 0.93121 0.0
C2634 C 0.90275 0.53091 0.16603 0.0
C2635 C 0.90265 0.52195 0.1361 0.0
C2636 C 0.89936 0.50338 0.06629 0.0
C2637 C 0.90673 0.48401 0.95145 0.0
C2638 C 0.90514 0.49365 0.98135 0.0
C2639 C 0.90262 0.5215 0.07246 0.0
C2640 C 0.90313 0.51193 0.04023 0.0
H2641 H 0.92271 0.47283 0.85653 0.0
H2642 H 0.92035 0.48812 0.90846 0.0
H2643 H 0.89778 0.48795 0.06065 0.0
H2644 H 0.90313 0.5459 0.04374 0.0
H2645 H 0.90218 0.53041 0.99119 0.0
C2646 C 0.21914 0.15021 0.92222 0.0
C2647 C 0.21053 0.15081 0.88862 0.0
C2648 C 0.22817 0.15051 0.8933 0.0
C2649 C 0.24694 0.14797 0.82426 0.0
H2650 H 0.24855 0.1621 0.6735 0.0
C2651 C 0.28328 0.1514 0.6921 0.0
C2652 C 0.28465 0.15973 0.65656 0.0
C2653 C 0.27428 0.14965 0.71978 0.0
C2654 C 0.24834 0.15827 0.71614 0.0
H2655 H 0.2045 0.15171 0.79871 0.0
H2656 H 0.22014 0.15148 0.7476 0.0
H2657 H 0.2331 0.16057 0.72334 0.0
H2658 H 0.27798 0.17301 0.62455 0.0
H2659 H 0.26265 0.17039 0.6757 0.0
H2660 H 0.26236 0.14641 0.81932 0.0
C2661 C 0.22008 0.15132 0.79643 0.0
C2662 C 0.23933 0.15716 0.7443 0.0
C2663 C 0.21106 0.15134 0.82556 0.0
C2664 C 0.27704 0.16643 0.65082 0.0
C2665 C 0.26819 0.16485 0.67982 0.0
C2666 C 0.25602 0.14933 0.79693 0.0
C2667 C 0.2288 0.15114 0.82984 0.0
C2668 C 0.23846 0.15201 0.79892 0.0
C2669 C 0.26657 0.15635 0.71386 0.0
C2670 C 0.25687 0.15456 0.74256 0.0
H2671 H 0.21889 0.1499 0.97108 0.0
H2672 H 0.23462 0.15056 0.92116 0.0
H2673 H 0.24663 0.14376 0.86547 0.0
H2674 H 0.28907 0.14612 0.69703 0.0
H2675 H 0.27336 0.14296 0.74479 0.0
C2676 C 0.58677 0.47104 0.62584 0.0
C2677 C 0.59043 0.46245 0.60031 0.0
C2678 C 0.58836 0.48 0.59809 0.0
C2679 C 0.59468 0.4909 0.45017 0.0
H2680 H 0.59503 0.51441 0.54659 0.0
C2681 C 0.59398 0.5359 0.4244 0.0
C2682 C 0.58744 0.53645 0.37579 0.0
C2683 C 0.59657 0.52687 0.44886 0.0
C2684 C 0.59515 0.50796 0.51866 0.0
H2685 H 0.59888 0.45654 0.52633 0.0
H2686 H 0.60195 0.47227 0.47864 0.0
H2687 H 0.59596 0.49872 0.59598 0.0
H2688 H 0.5787 0.5279 0.31383 0.0
H2689 H 0.58286 0.51236 0.35748 0.0
H2690 H 0.59417 0.50015 0.37274 0.0
C2691 C 0.59763 0.47206 0.51946 0.0
C2692 C 0.5955 0.49891 0.5472 0.0
C2693 C 0.59592 0.46304 0.54692 0.0
C2694 C 0.58378 0.52778 0.35115 0.0
C2695 C 0.58626 0.5188 0.376 0.0
C2696 C 0.5945 0.49996 0.42156 0.0
C2697 C 0.59379 0.48066 0.54443 0.0
C2698 C 0.59491 0.49025 0.51352 0.0
C2699 C 0.59258 0.5182 0.42571 0.0
C2700 C 0.59437 0.50862 0.45548 0.0
H2701 H 0.58245 0.47086 0.66668 0.0
H2702 H 0.58505 0.48638 0.61807 0.0
H2703 H 0.59419 0.48444 0.42249 0.0
H2704 H 0.59697 0.54245 0.44419 0.0
H2705 H 0.60159 0.52671 0.48642 0.0
C2706 C 0.27419 0.83634 0.43793 0.0
C2707 C 0.28306 0.84014 0.41723 0.0
C2708 C 0.26562 0.83789 0.40566 0.0
C2709 C 0.24739 0.84481 0.34438 0.0
H2710 H 0.2489 0.84433 0.16982 0.0
C2711 C 0.21264 0.84504 0.19685 0.0
C2712 C 0.21282 0.83905 0.14548 0.0
C2713 C 0.2212 0.84693 0.22904 0.0
C2714 C 0.24831 0.8444 0.21856 0.0
H2715 H 0.28984 0.84884 0.3474 0.0
H2716 H 0.27481 0.85188 0.29203 0.0
H2717 H 0.26373 0.84413 0.22871 0.0
H2718 H 0.22212 0.83036 0.08767 0.0
H2719 H 0.23683 0.83331 0.14447 0.0
H2720 H 0.23196 0.84436 0.33422 0.0
C2721 C 0.2745 0.84745 0.33239 0.0
C2722 C 0.25687 0.84446 0.2525 0.0
C2723 C 0.28312 0.84576 0.36431 0.0
C2724 C 0.22172 0.83508 0.12674 0.0
C2725 C 0.23022 0.83685 0.15921 0.0
C2726 C 0.23883 0.84458 0.31043 0.0
C2727 C 0.26564 0.84341 0.35219 0.0
C2728 C 0.25654 0.84445 0.31597 0.0
C2729 C 0.2301 0.84277 0.21096 0.0
C2730 C 0.23917 0.84415 0.24702 0.0
H2731 H 0.27388 0.8319 0.47828 0.0
H2732 H 0.25904 0.83446 0.42187 0.0
H2733 H 0.24681 0.84505 0.39309 0.0
H2734 H 0.20589 0.84824 0.21228 0.0
H2735 H 0.22083 0.85164 0.26812 0.0
C2736 C 0.59019 0.97176 0.3256 0.0
C2737 C 0.58915 0.96314 0.35891 0.0
C2738 C 0.59177 0.98061 0.35473 0.0
C2739 C 0.5985 0.99194 0.5013 0.0
H2740 H 0.58359 0.01358 0.43792 0.0
C2741 C 0.59098 0.02734 0.63467 0.0
C2742 C 0.59089 0.03618 0.60276 0.0
C2743 C 0.59216 0.01852 0.60428 0.0
C2744 C 0.58793 0.00767 0.45567 0.0
H2745 H 0.5893 0.95696 0.44892 0.0
H2746 H 0.59186 0.97249 0.50021 0.0
H2747 H 0.58304 0.99796 0.38695 0.0
H2748 H 0.59235 0.04269 0.51402 0.0
H2749 H 0.59443 0.02728 0.46096 0.0
H2750 H 0.60317 0.00168 0.57109 0.0
C2751 C 0.5916 0.97239 0.45136 0.0
C2752 C 0.58762 0.99869 0.42641 0.0
C2753 C 0.5901 0.96349 0.42203 0.0
C2754 C 0.59235 0.03602 0.53996 0.0
C2755 C 0.59349 0.02718 0.50951 0.0
C2756 C 0.59878 0.00094 0.53081 0.0
C2757 C 0.59225 0.98109 0.41805 0.0
C2758 C 0.59288 0.9907 0.44885 0.0
C2759 C 0.59323 0.01832 0.54121 0.0
C2760 C 0.59346 0.0089 0.5084 0.0
H2761 H 0.58963 0.97172 0.27681 0.0
H2762 H 0.59249 0.98711 0.32751 0.0
H2763 H 0.60273 0.98598 0.51943 0.0
H2764 H 0.58991 0.0272 0.68311 0.0
H2765 H 0.59185 0.01183 0.62998 0.0
C2766 C 0.22191 0.3343 0.89563 0.0
C2767 C 0.21308 0.33811 0.87455 0.0
C2768 C 0.23055 0.33598 0.86436 0.0
C2769 C 0.23973 0.34315 0.71314 0.0
H2770 H 0.26434 0.34296 0.79814 0.0
C2771 C 0.28417 0.34429 0.66427 0.0
C2772 C 0.28425 0.33857 0.61174 0.0
C2773 C 0.27547 0.346 0.6953 0.0
C2774 C 0.25757 0.34322 0.77344 0.0
H2775 H 0.20641 0.34695 0.805 0.0
H2776 H 0.22157 0.35023 0.7514 0.0
H2777 H 0.2493 0.34333 0.85506 0.0
H2778 H 0.27526 0.33016 0.5506 0.0
H2779 H 0.26028 0.33275 0.60549 0.0
H2780 H 0.24799 0.34342 0.63153 0.0
C2781 C 0.2218 0.34569 0.79128 0.0
C2782 C 0.24889 0.34325 0.80626 0.0
C2783 C 0.21311 0.34387 0.82218 0.0
C2784 C 0.27545 0.33468 0.59063 0.0
C2785 C 0.26681 0.33625 0.62202 0.0
C2786 C 0.24841 0.3433 0.68032 0.0
C2787 C 0.23064 0.34167 0.81156 0.0
C2788 C 0.23984 0.34292 0.77662 0.0
C2789 C 0.26667 0.3419 0.67496 0.0
C2790 C 0.25746 0.34303 0.70995 0.0
H2791 H 0.22215 0.32975 0.93555 0.0
H2792 H 0.23711 0.33254 0.88085 0.0
H2793 H 0.23296 0.34285 0.68842 0.0
H2794 H 0.29084 0.34743 0.68148 0.0
H2795 H 0.27565 0.35051 0.7353 0.0
C2796 C 0.90204 0.96238 0.06893 0.0
C2797 C 0.9076 0.96215 0.12204 0.0
C2798 C 0.90041 0.97118 0.03871 0.0
C2799 C 0.90343 0.98922 0.96249 0.0
H2800 H 0.90374 0.01368 0.04927 0.0
C2801 C 0.91262 0.02507 0.8431 0.0
C2802 C 0.90883 0.03388 0.86471 0.0
C2803 C 0.91087 0.01638 0.87374 0.0
C2804 C 0.90345 0.00695 0.02405 0.0
H2805 H 0.91581 0.97097 0.1852 0.0
H2806 H 0.91338 0.98611 0.13166 0.0
H2807 H 0.90298 0.99854 0.10505 0.0
H2808 H 0.89996 0.04046 0.93443 0.0
H2809 H 0.89655 0.02521 0.98681 0.0
H2810 H 0.9035 0.99763 0.88146 0.0
C2811 C 0.90993 0.97963 0.11403 0.0
C2812 C 0.90319 0.99821 0.05624 0.0
C2813 C 0.91141 0.97089 0.14467 0.0
C2814 C 0.90302 0.03378 0.91689 0.0
C2815 C 0.90113 0.02504 0.9471 0.0
C2816 C 0.90349 0.99796 0.93029 0.0
C2817 C 0.90446 0.97992 0.06039 0.0
C2818 C 0.90348 0.98921 0.02601 0.0
C2819 C 0.90514 0.01622 0.92634 0.0
C2820 C 0.90381 0.00695 0.96058 0.0
H2821 H 0.89897 0.95576 0.0506 0.0
H2822 H 0.89602 0.97109 0.99821 0.0
H2823 H 0.9037 0.98249 0.9373 0.0
H2824 H 0.91719 0.02489 0.80334 0.0
H2825 H 0.9143 0.00984 0.85691 0.0
C2826 C 0.28262 0.65323 0.32043 0.0
C2827 C 0.28387 0.66155 0.35614 0.0
C2828 C 0.27365 0.65138 0.2927 0.0
C2829 C 0.2476 0.65965 0.29597 0.0
H2830 H 0.24624 0.64526 0.14609 0.0
C2831 C 0.21875 0.65147 0.08848 0.0
C2832 C 0.2101 0.65194 0.12176 0.0
C2833 C 0.22774 0.65183 0.11779 0.0
C2834 C 0.24645 0.64943 0.18745 0.0
H2835 H 0.27702 0.6747 0.38859 0.0
H2836 H 0.26173 0.67192 0.33734 0.0
H2837 H 0.26188 0.64808 0.19281 0.0
H2838 H 0.20395 0.65263 0.21144 0.0
H2839 H 0.21953 0.6525 0.2632 0.0
H2840 H 0.23235 0.66175 0.28832 0.0
C2841 C 0.26734 0.66646 0.33307 0.0
C2842 C 0.25548 0.65089 0.21512 0.0
C2843 C 0.27617 0.66813 0.36214 0.0
C2844 C 0.21055 0.65237 0.18486 0.0
C2845 C 0.21952 0.6524 0.21437 0.0
C2846 C 0.23864 0.65845 0.26747 0.0
C2847 C 0.26585 0.65797 0.29873 0.0
C2848 C 0.25621 0.65608 0.2697 0.0
C2849 C 0.22829 0.65238 0.1813 0.0
C2850 C 0.23789 0.65333 0.21264 0.0
H2851 H 0.28847 0.64803 0.31534 0.0
H2852 H 0.27283 0.64469 0.26752 0.0
H2853 H 0.24772 0.66344 0.33874 0.0
H2854 H 0.21856 0.65124 0.03959 0.0
H2855 H 0.23422 0.65199 0.0902 0.0
C2856 C 0.41344 0.02512 0.67649 0.0
C2857 C 0.40956 0.03412 0.65873 0.0
C2858 C 0.41145 0.01671 0.64365 0.0
C2859 C 0.40327 0.00851 0.49251 0.0
H2860 H 0.40374 0.98341 0.57202 0.0
C2861 C 0.40207 0.96432 0.43448 0.0
C2862 C 0.40769 0.96455 0.38153 0.0
C2863 C 0.40037 0.97286 0.46731 0.0
C2864 C 0.4034 0.99033 0.54886 0.0
H2865 H 0.40032 0.04131 0.59334 0.0
H2866 H 0.39654 0.02652 0.53685 0.0
H2867 H 0.40372 0.99812 0.63221 0.0
H2868 H 0.41586 0.97394 0.32136 0.0
H2869 H 0.41326 0.98861 0.37924 0.0
H2870 H 0.40261 0.00071 0.40922 0.0
C2871 C 0.40134 0.026 0.57545 0.0
C2872 C 0.40356 0.99882 0.58354 0.0
C2873 C 0.40345 0.03448 0.608 0.0
C2874 C 0.41144 0.97349 0.36172 0.0
C2875 C 0.40986 0.98197 0.39483 0.0
C2876 C 0.40293 2e-05 0.45786 0.0
C2877 C 0.4054 0.017 0.59251 0.0
C2878 C 0.40383 0.00803 0.55584 0.0
C2879 C 0.40435 0.98179 0.44833 0.0
C2880 C 0.40331 0.9908 0.48543 0.0
H2881 H 0.41824 0.02458 0.71506 0.0
H2882 H 0.41493 0.01002 0.65758 0.0
H2883 H 0.40349 0.01543 0.46928 0.0
H2884 H 0.39904 0.95754 0.45075 0.0
H2885 H 0.39596 0.97243 0.50773 0.0
C2886 C 0.71855 0.66137 0.41448 0.0
C2887 C 0.70989 0.6578 0.38924 0.0
C2888 C 0.72747 0.65956 0.38696 0.0
C2889 C 0.74628 0.65212 0.33656 0.0
H2890 H 0.7474 0.65245 0.16191 0.0
C2891 C 0.78314 0.6517 0.2108 0.0
C2892 C 0.78376 0.65756 0.15901 0.0
C2893 C 0.77411 0.64982 0.23763 0.0
C2894 C 0.74726 0.65243 0.21077 0.0
H2895 H 0.70384 0.64927 0.31617 0.0
H2896 H 0.71951 0.64575 0.26906 0.0
H2897 H 0.73176 0.65296 0.21197 0.0
H2898 H 0.77541 0.66606 0.09488 0.0
H2899 H 0.75988 0.6632 0.14265 0.0
H2900 H 0.76178 0.65236 0.33544 0.0
C2901 C 0.71938 0.6502 0.30935 0.0
C2902 C 0.73822 0.65254 0.23963 0.0
C2903 C 0.71039 0.65216 0.3365 0.0
C2904 C 0.77519 0.66143 0.13444 0.0
C2905 C 0.76622 0.6597 0.16169 0.0
C2906 C 0.75531 0.6522 0.30773 0.0
C2907 C 0.72805 0.65398 0.33387 0.0
C2908 C 0.7376 0.65263 0.303 0.0
C2909 C 0.76552 0.65389 0.21379 0.0
C2910 C 0.75594 0.6526 0.2444 0.0
H2911 H 0.71843 0.66582 0.4548 0.0
H2912 H 0.73389 0.66283 0.40659 0.0
H2913 H 0.74613 0.6519 0.3854 0.0
H2914 H 0.78962 0.64857 0.23056 0.0
H2915 H 0.77387 0.64519 0.27712 0.0
C2916 C 0.09461 0.96347 0.1062 0.0
C2917 C 0.08908 0.96379 0.15949 0.0
C2918 C 0.09644 0.97199 0.07345 0.0
C2919 C 0.09447 -0.00082 0.08332 0.0
H2920 H 0.09361 0.99733 0.90894 0.0
C2921 C 0.08511 0.0247 0.86402 0.0
C2922 C 0.08932 0.03352 0.88212 0.0
C2923 C 0.08668 0.01621 0.89704 0.0
C2924 C 0.09378 0.99801 0.95762 0.0
H2925 H 0.08121 0.9733 0.2204 0.0
H2926 H 0.08402 0.98795 0.16259 0.0
H2927 H 0.09316 0.98262 0.9691 0.0
H2928 H 0.09872 0.04032 0.94823 0.0
H2929 H 0.10178 0.0254 1.00488 0.0
H2930 H 0.09436 0.0146 0.07193 0.0
C2931 C 0.08725 0.98126 0.14668 0.0
C2932 C 0.09371 0.98952 0.99228 0.0
C2933 C 0.08556 0.97279 0.17977 0.0
C2934 C 0.09533 0.03363 0.93334 0.0
C2935 C 0.09703 0.02508 0.966 0.0
C2936 C 0.09437 0.00768 0.04868 0.0
C2937 C 0.09266 0.98099 0.09279 0.0
C2938 C 0.09384 0.98998 0.05571 0.0
C2939 C 0.09264 0.01625 0.94863 0.0
C2940 C 0.09382 0.00722 0.98533 0.0
H2941 H 0.09747 0.95664 0.08959 0.0
H2942 H 0.10078 0.97149 0.03279 0.0
H2943 H 0.09483 -0.00014 0.13195 0.0
H2944 H 0.08036 0.02436 0.82508 0.0
H2945 H 0.08296 0.00966 0.88284 0.0
C2946 C 0.7205 0.34736 0.63899 0.0
C2947 C 0.71195 0.34645 0.67304 0.0
C2948 C 0.72956 0.34747 0.66755 0.0
C2949 C 0.74835 0.3504 0.73642 0.0
H2950 H 0.7503 0.33547 0.88407 0.0
C2951 C 0.78473 0.34644 0.86892 0.0
C2952 C 0.78615 0.33776 0.90088 0.0
C2953 C 0.77576 0.34834 0.84107 0.0
C2954 C 0.74998 0.33955 0.84234 0.0
H2955 H 0.70605 0.34557 0.76337 0.0
H2956 H 0.72173 0.34648 0.81367 0.0
H2957 H 0.73476 0.33717 0.8356 0.0
H2958 H 0.77966 0.32399 0.92574 0.0
H2959 H 0.76441 0.32695 0.87465 0.0
H2960 H 0.76379 0.3521 0.74116 0.0
C2961 C 0.72159 0.34657 0.76483 0.0
C2962 C 0.74093 0.34074 0.81503 0.0
C2963 C 0.71257 0.34615 0.73615 0.0
C2964 C 0.77868 0.33084 0.90243 0.0
C2965 C 0.76987 0.3326 0.87348 0.0
C2966 C 0.75748 0.349 0.76306 0.0
C2967 C 0.73027 0.34693 0.73097 0.0
C2968 C 0.73995 0.34614 0.76144 0.0
C2969 C 0.76816 0.34147 0.84359 0.0
C2970 C 0.75844 0.34345 0.8161 0.0
H2971 H 0.7202 0.3475 0.59012 0.0
H2972 H 0.736 0.34759 0.63949 0.0
H2973 H 0.74793 0.35479 0.69593 0.0
H2974 H 0.79041 0.35189 0.86716 0.0
H2975 H 0.77475 0.35528 0.81894 0.0
C2976 C 0.03682 0.56735 0.16172 0.0
C2977 C 0.04213 0.55864 0.16492 0.0
C2978 C 0.02669 0.56721 0.15851 0.0
C2979 C 0.00521 0.552 0.18996 0.0
H2980 H 0.99249 0.56972 0.07907 0.0
C2981 C 0.96348 0.55188 0.15372 0.0
C2982 C 0.95898 0.56105 0.15145 0.0
C2983 C 0.97363 0.55109 0.15189 0.0
C2984 C 0.99592 0.56478 0.11065 0.0
H2985 H 0.04093 0.54293 0.16832 0.0
H2986 H 0.02319 0.54268 0.16238 0.0
H2987 H 0.01017 0.56933 0.08426 0.0
H2988 H 0.96162 0.57654 0.14321 0.0
H2989 H 0.97923 0.57518 0.14122 0.0
H2990 H 0.99094 0.54756 0.21694 0.0
C2991 C 0.02689 0.54963 0.16262 0.0
C2992 C 0.00605 0.56456 0.11363 0.0
C2993 C 0.03705 0.54977 0.16556 0.0
C2994 C 0.96485 0.56937 0.1459 0.0
C2995 C 0.97495 0.56858 0.14402 0.0
C2996 C 0.99505 0.55224 0.1871 0.0
C2997 C 0.0216 0.55834 0.15852 0.0
C2998 C 0.01082 0.55825 0.15379 0.0
C2999 C 0.97948 0.55944 0.14745 0.0
C3000 C 0.99028 0.55872 0.14787 0.0
H3001 H 0.04051 0.57431 0.1603 0.0
H3002 H 0.02283 0.57406 0.15615 0.0
H3003 H 0.00865 0.54712 0.22175 0.0
H3004 H 0.95918 0.54533 0.15836 0.0
H3005 H 0.97688 0.54393 0.15398 0.0
C3006 C 0.68533 0.71233 0.50227 0.0
C3007 C 0.68713 0.7072 0.44853 0.0
C3008 C 0.68566 0.72251 0.50312 0.0
C3009 C 0.68322 0.74364 0.40213 0.0
H3010 H 0.69565 0.75793 0.53165 0.0
C3011 C 0.68916 0.78496 0.38726 0.0
C3012 C 0.68763 0.79052 0.43964 0.0
C3013 C 0.68931 0.77481 0.39 0.0
C3014 C 0.69205 0.75405 0.4955 0.0
H3015 H 0.69065 0.70875 0.35351 0.0
H3016 H 0.69135 0.72642 0.35524 0.0
H3017 H 0.69552 0.74017 0.53392 0.0
H3018 H 0.68519 0.78973 0.53627 0.0
H3019 H 0.68521 0.77201 0.54082 0.0
H3020 H 0.67965 0.75744 0.36386 0.0
C3021 C 0.68964 0.7226 0.39667 0.0
C3022 C 0.69199 0.74388 0.4968 0.0
C3023 C 0.68936 0.71246 0.39588 0.0
C3024 C 0.68631 0.78567 0.49496 0.0
C3025 C 0.68643 0.77551 0.49768 0.0
C3026 C 0.68324 0.75378 0.40095 0.0
C3027 C 0.68771 0.72775 0.45012 0.0
C3028 C 0.68763 0.73856 0.44987 0.0
C3029 C 0.68786 0.76995 0.44513 0.0
C3030 C 0.68772 0.75913 0.44736 0.0
H3031 H 0.68364 0.70848 0.54362 0.0
H3032 H 0.68408 0.72627 0.54493 0.0
H3033 H 0.67963 0.73976 0.36588 0.0
H3034 H 0.69007 0.78842 0.34371 0.0
H3035 H 0.69057 0.77078 0.34876 0.0
C3036 C 0.46489 0.42844 0.68885 0.0
C3037 C 0.45934 0.43702 0.69051 0.0
C3038 C 0.47503 0.42884 0.68994 0.0
C3039 C 0.49572 0.4452 0.65872 0.0
H3040 H 0.51019 0.42589 0.74915 0.0
C3041 C 0.53774 0.446 0.67913 0.0
C3042 C 0.54252 0.43703 0.6723 0.0
C3043 C 0.52761 0.4464 0.68456 0.0
C3044 C 0.50625 0.43129 0.72331 0.0
H3045 H 0.46011 0.45274 0.69527 0.0
H3046 H 0.47785 0.45343 0.69742 0.0
H3047 H 0.4925 0.4259 0.75323 0.0
H3048 H 0.54032 0.42146 0.66452 0.0
H3049 H 0.52274 0.42215 0.6745 0.0
H3050 H 0.50951 0.45055 0.62855 0.0
C3051 C 0.47434 0.4464 0.69454 0.0
C3052 C 0.49611 0.43129 0.7256 0.0
C3053 C 0.46418 0.446 0.69339 0.0
C3054 C 0.53692 0.42848 0.67112 0.0
C3055 C 0.52682 0.42887 0.67673 0.0
C3056 C 0.50588 0.44521 0.65653 0.0
C3057 C 0.47989 0.43782 0.69274 0.0
C3058 C 0.49071 0.43817 0.69278 0.0
C3059 C 0.52204 0.43783 0.68342 0.0
C3060 C 0.51126 0.43818 0.68826 0.0
H3061 H 0.46142 0.42141 0.68528 0.0
H3062 H 0.47907 0.4221 0.68725 0.0
H3063 H 0.49179 0.45053 0.6323 0.0
H3064 H 0.54183 0.45272 0.68083 0.0
H3065 H 0.52415 0.45341 0.69029 0.0
C3066 C 0.81177 0.28562 0.01534 0.0
C3067 C 0.81098 0.29068 0.96041 0.0
C3068 C 0.81143 0.27545 0.01656 0.0
C3069 C 0.81514 0.25402 0.91876 0.0
H3070 H 0.80102 0.24028 0.04401 0.0
C3071 C 0.80889 0.21268 0.90793 0.0
C3072 C 0.81009 0.20736 0.96162 0.0
C3073 C 0.80873 0.22283 0.90887 0.0
C3074 C 0.80508 0.24401 1.00909 0.0
H3075 H 0.80928 0.28899 0.86357 0.0
H3076 H 0.80846 0.27133 0.86588 0.0
H3077 H 0.80124 0.25804 0.04374 0.0
H3078 H 0.81189 0.20856 0.05858 0.0
H3079 H 0.81176 0.22631 0.0601 0.0
H3080 H 0.81899 0.24003 0.8841 0.0
C3081 C 0.80944 0.2752 0.90801 0.0
C3082 C 0.80521 0.25418 1.00894 0.0
C3083 C 0.80978 0.28534 0.9068 0.0
C3084 C 0.81103 0.21244 0.01638 0.0
C3085 C 0.81085 0.22261 0.01732 0.0
C3086 C 0.81501 0.24386 0.91889 0.0
C3087 C 0.81032 0.27012 0.96283 0.0
C3088 C 0.81022 0.25931 0.96362 0.0
C3089 C 0.80978 0.22792 0.96348 0.0
C3090 C 0.80995 0.23873 0.9639 0.0
H3091 H 0.81264 0.28951 0.05749 0.0
H3092 H 0.81221 0.27177 0.0595 0.0
H3093 H 0.81923 0.25772 0.88386 0.0
H3094 H 0.80828 0.20901 0.86485 0.0
H3095 H 0.80778 0.22669 0.86667 0.0
C3096 C 0.96318 0.44405 0.86586 0.0
C3097 C 0.95721 0.44188 0.81615 0.0
C3098 C 0.97327 0.44429 0.85965 0.0
C3099 C 0.9931 0.44638 0.74766 0.0
H3100 H 0.0084 0.43423 0.87375 0.0
C3101 C 0.03465 0.43966 0.72683 0.0
C3102 C 0.04028 0.44114 0.77898 0.0
C3103 C 0.02449 0.44009 0.72959 0.0
C3104 C 0.00426 0.43777 0.83848 0.0
H3105 H 0.95719 0.4385 0.72055 0.0
H3106 H 0.97486 0.43882 0.70985 0.0
H3107 H 0.99078 0.43444 0.88181 0.0
H3108 H 0.0396 0.44423 0.87501 0.0
H3109 H 0.022 0.44523 0.87939 0.0
H3110 H 0.00663 0.4497 0.70435 0.0
C3111 C 0.9717 0.44039 0.75356 0.0
C3112 C 0.99414 0.43788 0.8431 0.0
C3113 C 0.96159 0.44012 0.75982 0.0
C3114 C 0.03552 0.44319 0.83371 0.0
C3115 C 0.0254 0.44363 0.83644 0.0
C3116 C 0.00325 0.44628 0.74306 0.0
C3117 C 0.97767 0.44238 0.80358 0.0
C3118 C 0.98844 0.44223 0.79794 0.0
C3119 C 0.01974 0.44198 0.78461 0.0
C3120 C 0.00895 0.44201 0.78861 0.0
H3121 H 0.96007 0.44532 0.91008 0.0
H3122 H 0.97765 0.44597 0.89892 0.0
H3123 H 0.98892 0.44987 0.71236 0.0
H3124 H 0.03808 0.43813 0.68388 0.0
H3125 H 0.02035 0.43871 0.68889 0.0
C3126 C 0.79988 0.78511 0.10486 0.0
C3127 C 0.80891 0.78981 0.11009 0.0
C3128 C 0.79933 0.77494 0.10425 0.0
C3129 C 0.81448 0.75341 0.07161 0.0
H3130 H 0.79448 0.73908 0.15689 0.0
C3131 C 0.81689 0.71209 0.10679 0.0
C3132 C 0.80836 0.70654 0.10115 0.0
C3133 C 0.8165 0.72223 0.10624 0.0
C3134 C 0.80004 0.74298 0.13218 0.0
H3135 H 0.82438 0.78751 0.12228 0.0
H3136 H 0.82342 0.76985 0.12143 0.0
H3137 H 0.79458 0.75684 0.16078 0.0
H3138 H 0.79273 0.70734 0.0901 0.0
H3139 H 0.79206 0.7251 0.08912 0.0
H3140 H 0.81997 0.73962 0.04317 0.0
C3141 C 0.81678 0.77399 0.11622 0.0
C3142 C 0.8001 0.75316 0.13447 0.0
C3143 C 0.81733 0.78412 0.1168 0.0
C3144 C 0.79942 0.7114 0.09501 0.0
C3145 C 0.79904 0.72157 0.09453 0.0
C3146 C 0.81442 0.74327 0.06931 0.0
C3147 C 0.8078 0.76927 0.10891 0.0
C3148 C 0.8074 0.75848 0.10482 0.0
C3149 C 0.80758 0.72711 0.10013 0.0
C3150 C 0.80727 0.73792 0.10013 0.0
H3151 H 0.79327 0.78929 0.09921 0.0
H3152 H 0.7923 0.77152 0.09826 0.0
H3153 H 0.82008 0.75729 0.0471 0.0
H3154 H 0.82387 0.70862 0.1131 0.0
H3155 H 0.8232 0.72626 0.11188 0.0
C3156 C 0.46109 0.55396 0.43787 0.0
C3157 C 0.45577 0.56223 0.45506 0.0
C3158 C 0.47118 0.55369 0.44525 0.0
C3159 C 0.49227 0.5702 0.463 0.0
H3160 H 0.50606 0.54633 0.49918 0.0
C3161 C 0.53388 0.5694 0.49167 0.0
C3162 C 0.53873 0.56216 0.45847 0.0
C3163 C 0.52379 0.56908 0.49893 0.0
C3164 C 0.5023 0.55304 0.4889 0.0
H3165 H 0.45677 0.57648 0.49623 0.0
H3166 H 0.47432 0.57593 0.51046 0.0
H3167 H 0.48832 0.5464 0.49838 0.0
H3168 H 0.53672 0.54877 0.40811 0.0
H3169 H 0.51918 0.54815 0.42171 0.0
H3170 H 0.50625 0.57683 0.45347 0.0
C3171 C 0.47077 0.56977 0.48958 0.0
C3172 C 0.49213 0.55308 0.48822 0.0
C3173 C 0.46071 0.57007 0.48164 0.0
C3174 C 0.53328 0.55439 0.43473 0.0
C3175 C 0.5232 0.55404 0.44238 0.0
C3176 C 0.50241 0.57017 0.46418 0.0
C3177 C 0.47617 0.56164 0.47053 0.0
C3178 C 0.48698 0.56165 0.47463 0.0
C3179 C 0.51833 0.56148 0.47358 0.0
C3180 C 0.50755 0.56158 0.47653 0.0
H3181 H 0.45748 0.54784 0.41679 0.0
H3182 H 0.47509 0.54736 0.42928 0.0
H3183 H 0.48859 0.57689 0.45118 0.0
H3184 H 0.53786 0.57538 0.5116 0.0
H3185 H 0.52025 0.57484 0.52398 0.0
C3186 C 0.6996 0.21221 0.66103 0.0
C3187 C 0.69075 0.20728 0.66943 0.0
C3188 C 0.70006 0.22235 0.66672 0.0
C3189 C 0.68409 0.24382 0.65707 0.0
H3190 H 0.70567 0.25765 0.72984 0.0
C3191 C 0.68229 0.28495 0.69397 0.0
C3192 C 0.6905 0.29043 0.67788 0.0
C3193 C 0.68281 0.27484 0.69797 0.0
C3194 C 0.69963 0.25388 0.70894 0.0
H3195 H 0.67562 0.20903 0.69425 0.0
H3196 H 0.67642 0.22662 0.70463 0.0
H3197 H 0.70572 0.23985 0.72784 0.0
H3198 H 0.70581 0.28963 0.65556 0.0
H3199 H 0.70673 0.27189 0.66223 0.0
H3200 H 0.67801 0.25776 0.6377 0.0
C3201 C 0.68295 0.22272 0.69201 0.0
C3202 C 0.69967 0.24369 0.70778 0.0
C3203 C 0.68249 0.21264 0.68613 0.0
C3204 C 0.69937 0.2856 0.66832 0.0
C3205 C 0.69989 0.27545 0.67218 0.0
C3206 C 0.68406 0.25396 0.65825 0.0
C3207 C 0.69168 0.22773 0.68111 0.0
C3208 C 0.69185 0.23855 0.68219 0.0
C3209 C 0.69156 0.26994 0.6858 0.0
C3210 C 0.69178 0.25913 0.68456 0.0
H3211 H 0.70608 0.20827 0.64787 0.0
H3212 H 0.70688 0.22598 0.65771 0.0
H3213 H 0.67807 0.24011 0.63565 0.0
H3214 H 0.6754 0.28847 0.70291 0.0
H3215 H 0.67631 0.27084 0.71003 0.0
C3216 C 0.31723 0.28442 0.54798 0.0
C3217 C 0.30866 0.28996 0.54544 0.0
C3218 C 0.31685 0.27427 0.54772 0.0
C3219 C 0.30064 0.25367 0.58192 0.0
H3220 H 0.31993 0.23895 0.49292 0.0
C3221 C 0.30038 0.21152 0.57102 0.0
C3222 C 0.30945 0.2069 0.57717 0.0
C3223 C 0.29981 0.22161 0.56365 0.0
C3224 C 0.31453 0.24295 0.51841 0.0
H3225 H 0.29295 0.28914 0.53986 0.0
H3226 H 0.29229 0.27138 0.53947 0.0
H3227 H 0.31975 0.25662 0.48561 0.0
H3228 H 0.325 0.20935 0.58195 0.0
H3229 H 0.32401 0.22686 0.56891 0.0
H3230 H 0.2955 0.23999 0.61525 0.0
C3231 C 0.2993 0.27492 0.54224 0.0
C3232 C 0.31443 0.25309 0.5142 0.0
C3233 C 0.29968 0.28509 0.54241 0.0
C3234 C 0.31791 0.21262 0.57596 0.0
C3235 C 0.31735 0.22268 0.56853 0.0
C3236 C 0.30075 0.24352 0.58613 0.0
C3237 C 0.30789 0.26939 0.54503 0.0
C3238 C 0.30756 0.25858 0.54651 0.0
C3239 C 0.3083 0.22731 0.56222 0.0
C3240 C 0.30778 0.23805 0.55504 0.0
H3241 H 0.32426 0.2879 0.5518 0.0
H3242 H 0.32359 0.27025 0.55113 0.0
H3243 H 0.29532 0.25769 0.60793 0.0
H3244 H 0.29373 0.20732 0.57119 0.0
H3245 H 0.29274 0.22494 0.55831 0.0
C3246 C 0.19622 0.71172 0.08857 0.0
C3247 C 0.18716 0.70698 0.08967 0.0
C3248 C 0.19674 0.72189 0.08875 0.0
C3249 C 0.18199 0.74355 0.05229 0.0
H3250 H 0.20101 0.75749 0.14805 0.0
C3251 C 0.17945 0.7848 0.08977 0.0
C3252 C 0.18806 0.79028 0.08768 0.0
C3253 C 0.17976 0.77466 0.08935 0.0
C3254 C 0.19573 0.7537 0.12048 0.0
H3255 H 0.17158 0.70923 0.09471 0.0
H3256 H 0.1725 0.72689 0.0951 0.0
H3257 H 0.2008 0.73972 0.14951 0.0
H3258 H 0.20377 0.78937 0.08367 0.0
H3259 H 0.20431 0.7716 0.0829 0.0
H3260 H 0.17688 0.75747 0.02337 0.0
C3261 C 0.17919 0.72277 0.09266 0.0
C3262 C 0.19561 0.74352 0.12134 0.0
C3263 C 0.17867 0.71264 0.09247 0.0
C3264 C 0.19701 0.78536 0.08575 0.0
C3265 C 0.19732 0.77518 0.08537 0.0
C3266 C 0.18211 0.75369 0.05142 0.0
C3267 C 0.18822 0.72753 0.09006 0.0
C3268 C 0.18866 0.73833 0.08775 0.0
C3269 C 0.18869 0.76971 0.0869 0.0
C3270 C 0.18891 0.7589 0.08598 0.0
H3271 H 0.20289 0.70757 0.08591 0.0
H3272 H 0.20381 0.72532 0.08628 0.0
H3273 H 0.17668 0.73978 0.02483 0.0
H3274 H 0.17244 0.78833 0.0928 0.0
H3275 H 0.17298 0.77068 0.09187 0.0
C3276 C 0.19779 0.28427 0.94168 0.0
C3277 C 0.18884 0.28919 0.93873 0.0
C3278 C 0.19811 0.2741 0.94146 0.0
C3279 C 0.18283 0.25244 0.9703 0.0
H3280 H 0.20177 0.23893 0.87149 0.0
C3281 C 0.17931 0.21168 0.92015 0.0
C3282 C 0.18775 0.20595 0.92304 0.0
C3283 C 0.17989 0.2218 0.92198 0.0
C3284 C 0.19651 0.2426 0.89985 0.0
H3285 H 0.17323 0.28722 0.93166 0.0
H3286 H 0.1738 0.26957 0.93168 0.0
H3287 H 0.20202 0.25668 0.8766 0.0
H3288 H 0.20347 0.20641 0.92884 0.0
H3289 H 0.2045 0.22415 0.93194 0.0
H3290 H 0.17727 0.23841 0.99334 0.0
C3291 C 0.18057 0.27355 0.93538 0.0
C3292 C 0.19666 0.25276 0.90284 0.0
C3293 C 0.18024 0.28369 0.93552 0.0
C3294 C 0.19683 0.21061 0.92606 0.0
C3295 C 0.19742 0.22078 0.9279 0.0
C3296 C 0.18268 0.24231 0.96731 0.0
C3297 C 0.1895 0.26862 0.93834 0.0
C3298 C 0.18974 0.25781 0.93756 0.0
C3299 C 0.18894 0.22648 0.92673 0.0
C3300 C 0.18943 0.23726 0.9315 0.0
H3301 H 0.20454 0.28829 0.94463 0.0
H3302 H 0.2051 0.27052 0.94441 0.0
H3303 H 0.17752 0.25608 0.99846 0.0
H3304 H 0.17221 0.20833 0.91647 0.0
H3305 H 0.17323 0.22598 0.91954 0.0
C3306 C 0.2999 0.71305 0.44571 0.0
C3307 C 0.30898 0.7085 0.43867 0.0
C3308 C 0.29929 0.72311 0.45463 0.0
C3309 C 0.3139 0.74435 0.50283 0.0
H3310 H 0.29454 0.7593 0.41604 0.0
C3311 C 0.31623 0.78595 0.4796 0.0
C3312 C 0.3076 0.79141 0.48282 0.0
C3313 C 0.31594 0.77581 0.47856 0.0
C3314 C 0.2999 0.75522 0.44132 0.0
H3315 H 0.32453 0.71103 0.43406 0.0
H3316 H 0.32346 0.7285 0.44978 0.0
H3317 H 0.29486 0.74164 0.4059 0.0
H3318 H 0.29191 0.79043 0.48841 0.0
H3319 H 0.2914 0.77267 0.48655 0.0
H3320 H 0.31902 0.75791 0.53773 0.0
C3321 C 0.31681 0.72428 0.44961 0.0
C3322 C 0.30008 0.74509 0.43547 0.0
C3323 C 0.31742 0.71425 0.44063 0.0
C3324 C 0.29868 0.78645 0.48535 0.0
C3325 C 0.29839 0.77628 0.48423 0.0
C3326 C 0.31372 0.75446 0.50868 0.0
C3327 C 0.30775 0.72884 0.45677 0.0
C3328 C 0.30717 0.73955 0.46557 0.0
C3329 C 0.30702 0.77084 0.4806 0.0
C3330 C 0.30679 0.76003 0.47741 0.0
H3331 H 0.29326 0.70883 0.44505 0.0
H3332 H 0.2922 0.72638 0.46062 0.0
H3333 H 0.31934 0.74028 0.52757 0.0
H3334 H 0.32322 0.78951 0.47615 0.0
H3335 H 0.32272 0.77186 0.47456 0.0
C3336 C 0.53745 0.0603 0.73927 0.0
C3337 C 0.5418 0.05831 0.6832 0.0
C3338 C 0.52738 0.05955 0.74653 0.0
C3339 C 0.50522 0.04908 0.67557 0.0
H3340 H 0.49191 0.06896 0.76807 0.0
C3341 C 0.46379 0.05508 0.66207 0.0
C3342 C 0.45875 0.05713 0.71589 0.0
C3343 C 0.47393 0.05462 0.66134 0.0
C3344 C 0.49553 0.06328 0.74276 0.0
H3345 H 0.53895 0.05404 0.59063 0.0
H3346 H 0.52143 0.0528 0.60307 0.0
H3347 H 0.50958 0.06925 0.76085 0.0
H3348 H 0.4605 0.06011 0.81144 0.0
H3349 H 0.47823 0.05939 0.80994 0.0
H3350 H 0.49113 0.04323 0.65653 0.0
C3351 C 0.5258 0.05474 0.6419 0.0
C3352 C 0.50567 0.06343 0.73866 0.0
C3353 C 0.53586 0.05546 0.63473 0.0
C3354 C 0.46414 0.05864 0.76905 0.0
C3355 C 0.4743 0.05822 0.76823 0.0
C3356 C 0.49509 0.04895 0.67946 0.0
C3357 C 0.52141 0.05682 0.6978 0.0
C3358 C 0.51065 0.05638 0.70458 0.0
C3359 C 0.47931 0.05624 0.7143 0.0
C3360 C 0.49011 0.05609 0.71267 0.0
H3361 H 0.54184 0.06242 0.77765 0.0
H3362 H 0.52427 0.06106 0.79045 0.0
H3363 H 0.50882 0.04343 0.64988 0.0
H3364 H 0.45992 0.05409 0.61996 0.0
H3365 H 0.47757 0.05324 0.61884 0.0
C3366 C 0.03452 0.94333 0.16819 0.0
C3367 C 0.03955 0.94104 0.22162 0.0
C3368 C 0.02438 0.94348 0.167 0.0
C3369 C 0.00248 0.94471 0.26408 0.0
H3370 H 0.98992 0.93346 0.12384 0.0
C3371 C 0.96096 0.9373 0.25091 0.0
C3372 C 0.95635 0.93934 0.19568 0.0
C3373 C 0.97109 0.93784 0.25601 0.0
C3374 C 0.9933 0.93673 0.16303 0.0
H3375 H 0.03778 0.93731 0.31612 0.0
H3376 H 0.02004 0.93739 0.31375 0.0
H3377 H 0.00757 0.93381 0.12943 0.0
H3378 H 0.95881 0.94354 0.10247 0.0
H3379 H 0.97639 0.94465 0.11167 0.0
H3380 H 0.98815 0.94755 0.29771 0.0
C3381 C 0.02397 0.93918 0.27289 0.0
C3382 C 0.00343 0.93694 0.16623 0.0
C3383 C 0.03415 0.93904 0.27411 0.0
C3384 C 0.96209 0.94204 0.14591 0.0
C3385 C 0.9722 0.94256 0.15097 0.0
C3386 C 0.99232 0.94448 0.2609 0.0
C3387 C 0.01897 0.94129 0.2191 0.0
C3388 C 0.00816 0.94098 0.21658 0.0
C3389 C 0.97683 0.94038 0.20589 0.0
C3390 C 0.98762 0.94054 0.21014 0.0
H3391 H 0.03841 0.94477 0.12664 0.0
H3392 H 0.02077 0.94527 0.125 0.0
H3393 H 0.00589 0.94796 0.30324 0.0
H3394 H 0.95674 0.93526 0.2902 0.0
H3395 H 0.97443 0.93605 0.29885 0.0
C3396 C 0.53428 0.94296 0.35011 0.0
C3397 C 0.53955 0.94072 0.29748 0.0
C3398 C 0.52416 0.94363 0.3488 0.0
C3399 C 0.50278 0.93558 0.26152 0.0
H3400 H 0.48944 0.95528 0.35529 0.0
C3401 C 0.46102 0.9401 0.25407 0.0
C3402 C 0.45632 0.94159 0.3097 0.0
C3403 C 0.47115 0.94058 0.24985 0.0
C3404 C 0.49305 0.94969 0.32924 0.0
H3405 H 0.53825 0.93758 0.20191 0.0
H3406 H 0.52055 0.93875 0.19957 0.0
H3407 H 0.50715 0.95508 0.35254 0.0
H3408 H 0.45865 0.9447 0.40462 0.0
H3409 H 0.47628 0.94557 0.39721 0.0
H3410 H 0.48868 0.93013 0.23868 0.0
C3411 C 0.52427 0.93988 0.24207 0.0
C3412 C 0.5032 0.94957 0.32766 0.0
C3413 C 0.53442 0.93922 0.24338 0.0
C3414 C 0.462 0.9437 0.36083 0.0
C3415 C 0.47212 0.94419 0.3566 0.0
C3416 C 0.49262 0.9357 0.26307 0.0
C3417 C 0.51901 0.94205 0.29484 0.0
C3418 C 0.5082 0.94246 0.2942 0.0
C3419 C 0.47683 0.94257 0.30115 0.0
C3420 C 0.48763 0.94271 0.29735 0.0
H3421 H 0.53797 0.94397 0.39285 0.0
H3422 H 0.52034 0.94513 0.39052 0.0
H3423 H 0.50639 0.92992 0.23599 0.0
H3424 H 0.45686 0.93859 0.21365 0.0
H3425 H 0.47454 0.93944 0.20627 0.0
C3426 C 0.03654 0.0597 0.75646 0.0
C3427 C 0.04137 0.05807 0.81152 0.0
C3428 C 0.02639 0.05939 0.75337 0.0
C3429 C 0.00456 0.06156 0.85003 0.0
H3430 H 0.99126 0.04964 0.71462 0.0
C3431 C 0.96335 0.05481 0.8535 0.0
C3432 C 0.95807 0.05706 0.80096 0.0
C3433 C 0.97349 0.05469 0.85284 0.0
C3434 C 0.99487 0.05308 0.75244 0.0
H3435 H 0.03924 0.0549 0.90661 0.0
H3436 H 0.02163 0.05411 0.90088 0.0
H3437 H 0.00901 0.04989 0.71706 0.0
H3438 H 0.95936 0.06074 0.70612 0.0
H3439 H 0.97713 0.06062 0.7051 0.0
H3440 H 0.99047 0.06472 0.88554 0.0
C3441 C 0.02567 0.05574 0.86015 0.0
C3442 C 0.00504 0.05323 0.75383 0.0
C3443 C 0.0358 0.05605 0.86324 0.0
C3444 C 0.96321 0.05904 0.74743 0.0
C3445 C 0.97338 0.05888 0.74673 0.0
C3446 C 0.99442 0.06139 0.84869 0.0
C3447 C 0.02082 0.05747 0.80531 0.0
C3448 C 0.01001 0.05742 0.80286 0.0
C3449 C 0.97864 0.05682 0.79965 0.0
C3450 C 0.98945 0.0571 0.8001 0.0
H3451 H 0.04061 0.0612 0.71566 0.0
H3452 H 0.02289 0.06083 0.7105 0.0
H3453 H 0.00813 0.06503 0.88786 0.0
H3454 H 0.95965 0.05339 0.89575 0.0
H3455 H 0.97731 0.05295 0.8942 0.0
loop_
_geom_bond_atom_site_label_1
_geom_bond_atom_site_label_2
_geom_bond_distance
_geom_bond_site_symmetry_2
_ccdc_geom_bond_type
C0 C1 1.351 . S
C0 N3 1.368 . S
C0 H5 0.931 . S
C1 C0 1.351 . S
C1 N2 1.373 . S
C1 H29 0.930 . S
N2 C1 1.373 . S
N2 C4 1.340 . S
N3 C0 1.368 . S
N3 C4 1.321 . S
N3 Co6 2.135 1_556 S
C4 N2 1.340 . S
C4 N3 1.321 . S
C4 H28 0.930 . S
H5 C0 0.931 . S
Co6 N3 2.135 1_554 S
Co6 N9 2.121 . S
Co6 O14 2.055 . S
Co6 O17 2.039 . S
Co6 N20 2.140 . S
C7 O8 1.227 . S
C7 O17 1.265 . S
O8 C7 1.227 . S
N9 Co6 2.121 . S
N9 C11 1.375 . S
N9 C12 1.313 . S
C10 C11 1.338 . S
C10 N13 1.377 . S
C10 H30 0.930 . S
C11 N9 1.375 . S
C11 C10 1.338 . S
C11 H15 0.931 . S
C12 N9 1.313 . S
C12 N13 1.344 . S
C12 H16 0.930 . S
N13 C10 1.377 . S
N13 C12 1.344 . S
O14 Co6 2.055 . S
O14 C18 1.253 . S
H15 C11 0.931 . S
H16 C12 0.930 . S
O17 Co6 2.039 . S
O17 C7 1.265 . S
C18 O14 1.253 . S
C18 O19 1.227 . S
O19 C18 1.227 . S
N20 Co6 2.140 . S
N20 C23 1.346 . S
N20 C24 1.345 . S
C21 C22 1.387 . S
C21 C25 1.391 . S
C22 C21 1.387 . S
C22 C23 1.369 . S
C22 H31 0.929 1_554 S
C23 N20 1.346 . S
C23 C22 1.369 . S
C23 H26 0.928 1_554 S
C24 N20 1.345 . S
C24 C25 1.371 . S
C24 H27 0.931 . S
C25 C21 1.391 . S
C25 C24 1.371 . S
C25 H32 0.930 . S
H26 C23 0.928 1_556 S
H27 C24 0.931 . S
H28 C4 0.930 . S
H29 C1 0.930 . S
H30 C10 0.930 . S
H31 C22 0.929 1_556 S
H32 C25 0.930 . S
C33 C34 1.351 . S
C33 N36 1.368 . S
C33 H38 0.931 . S
C34 C33 1.351 . S
C34 N35 1.373 . S
C34 H62 0.930 . S
N35 C34 1.373 . S
N35 C37 1.340 . S
N36 C33 1.368 . S
N36 C37 1.321 . S
N36 Co39 2.135 . S
C37 N35 1.340 . S
C37 N36 1.321 . S
C37 H61 0.930 . S
H38 C33 0.931 . S
Co39 N36 2.135 . S
Co39 N42 2.121 . S
Co39 O47 2.055 . S
Co39 O50 2.039 . S
Co39 N53 2.140 . S
C40 O41 1.227 . S
C40 O50 1.265 . S
O41 C40 1.227 . S
N42 Co39 2.121 . S
N42 C44 1.375 . S
N42 C45 1.313 . S
C43 C44 1.338 . S
C43 N46 1.377 . S
C43 H63 0.930 . S
C44 N42 1.375 . S
C44 C43 1.338 . S
C44 H48 0.931 . S
C45 N42 1.313 . S
C45 N46 1.344 . S
C45 H49 0.930 . S
N46 C43 1.377 . S
N46 C45 1.344 . S
O47 Co39 2.055 . S
O47 C51 1.253 . S
H48 C44 0.931 . S
H49 C45 0.930 . S
O50 Co39 2.039 . S
O50 C40 1.265 . S
C51 O47 1.253 . S
C51 O52 1.227 . S
O52 C51 1.227 . S
N53 Co39 2.140 . S
N53 C56 1.346 . S
N53 C57 1.345 . S
C54 C55 1.387 . S
C54 C58 1.391 . S
C55 C54 1.387 . S
C55 C56 1.369 . S
C55 H64 0.929 . S
C56 N53 1.346 . S
C56 C55 1.369 . S
C56 H59 0.928 . S
C57 N53 1.345 . S
C57 C58 1.371 . S
C57 H60 0.931 . S
C58 C54 1.391 . S
C58 C57 1.371 . S
C58 H65 0.930 . S
H59 C56 0.928 . S
H60 C57 0.931 . S
H61 C37 0.930 . S
H62 C34 0.930 . S
H63 C43 0.930 . S
H64 C55 0.929 . S
H65 C58 0.930 . S
C66 C67 1.351 . S
C66 N69 1.368 . S
C66 H71 0.931 . S
C67 C66 1.351 . S
C67 N68 1.373 . S
C67 H95 0.930 . S
N68 C67 1.373 . S
N68 C70 1.340 . S
N69 C66 1.368 . S
N69 C70 1.321 . S
N69 Co72 2.135 . S
C70 N68 1.340 . S
C70 N69 1.321 . S
C70 H94 0.930 . S
H71 C66 0.931 . S
Co72 N69 2.135 . S
Co72 N75 2.121 . S
Co72 O80 2.055 . S
Co72 O83 2.039 . S
Co72 N86 2.140 . S
C73 O74 1.227 . S
C73 O83 1.265 . S
O74 C73 1.227 . S
N75 Co72 2.121 . S
N75 C77 1.375 . S
N75 C78 1.313 . S
C76 C77 1.338 . S
C76 N79 1.377 . S
C76 H96 0.930 . S
C77 N75 1.375 . S
C77 C76 1.338 . S
C77 H81 0.931 . S
C78 N75 1.313 . S
C78 N79 1.344 . S
C78 H82 0.930 . S
N79 C76 1.377 . S
N79 C78 1.344 . S
O80 Co72 2.055 . S
O80 C84 1.253 . S
H81 C77 0.931 . S
H82 C78 0.930 . S
O83 Co72 2.039 . S
O83 C73 1.265 . S
C84 O80 1.253 . S
C84 O85 1.227 . S
O85 C84 1.227 . S
N86 Co72 2.140 . S
N86 C89 1.346 . S
N86 C90 1.345 . S
C87 C88 1.387 . S
C87 C91 1.391 . S
C88 C87 1.387 . S
C88 C89 1.369 . S
C88 H97 0.929 . S
C89 N86 1.346 . S
C89 C88 1.369 . S
C89 H92 0.928 . S
C90 N86 1.345 . S
C90 C91 1.371 . S
C90 H93 0.931 . S
C91 C87 1.391 . S
C91 C90 1.371 . S
C91 H98 0.930 . S
H92 C89 0.928 . S
H93 C90 0.931 . S
H94 C70 0.930 . S
H95 C67 0.930 . S
H96 C76 0.930 . S
H97 C88 0.929 . S
H98 C91 0.930 . S
C99 C100 1.351 . S
C99 N102 1.368 . S
C99 H104 0.931 . S
C100 C99 1.351 . S
C100 N101 1.373 . S
C100 H128 0.930 . S
N101 C100 1.373 . S
N101 C103 1.340 . S
N102 C99 1.368 . S
N102 C103 1.321 . S
N102 Co105 2.135 . S
C103 N101 1.340 . S
C103 N102 1.321 . S
C103 H127 0.930 . S
H104 C99 0.931 . S
Co105 N102 2.135 . S
Co105 N108 2.121 . S
Co105 O113 2.055 . S
Co105 O116 2.039 . S
Co105 N119 2.140 . S
C106 O107 1.227 . S
C106 O116 1.265 . S
O107 C106 1.227 . S
N108 Co105 2.121 . S
N108 C110 1.375 . S
N108 C111 1.313 . S
C109 C110 1.338 . S
C109 N112 1.377 . S
C109 H129 0.930 1_556 S
C110 N108 1.375 . S
C110 C109 1.338 . S
C110 H114 0.931 . S
C111 N108 1.313 . S
C111 N112 1.344 . S
C111 H115 0.930 . S
N112 C109 1.377 . S
N112 C111 1.344 . S
O113 Co105 2.055 . S
O113 C117 1.253 . S
H114 C110 0.931 . S
H115 C111 0.930 . S
O116 Co105 2.039 . S
O116 C106 1.265 . S
C117 O113 1.253 . S
C117 O118 1.227 . S
O118 C117 1.227 . S
N119 Co105 2.140 . S
N119 C122 1.346 . S
N119 C123 1.345 . S
C120 C121 1.387 . S
C120 C124 1.391 . S
C121 C120 1.387 . S
C121 C122 1.369 . S
C121 H130 0.929 . S
C122 N119 1.346 . S
C122 C121 1.369 . S
C122 H125 0.928 . S
C123 N119 1.345 . S
C123 C124 1.371 . S
C123 H126 0.931 . S
C124 C120 1.391 . S
C124 C123 1.371 . S
C124 H131 0.930 . S
H125 C122 0.928 . S
H126 C123 0.931 . S
H127 C103 0.930 . S
H128 C100 0.930 . S
H129 C109 0.930 1_554 S
H130 C121 0.929 . S
H131 C124 0.930 . S
C132 C133 1.351 . S
C132 N135 1.368 . S
C132 H137 0.931 . S
C133 C132 1.351 . S
C133 N134 1.373 . S
C133 H161 0.930 . S
N134 C133 1.373 . S
N134 C136 1.340 . S
N135 C132 1.368 . S
N135 C136 1.321 . S
N135 Co138 2.135 1_554 S
C136 N134 1.340 . S
C136 N135 1.321 . S
C136 H160 0.930 . S
H137 C132 0.931 . S
Co138 N135 2.135 1_556 S
Co138 N141 2.121 . S
Co138 O146 2.055 . S
Co138 O149 2.039 . S
Co138 N152 2.140 . S
C139 O140 1.227 . S
C139 O149 1.265 . S
O140 C139 1.227 . S
N141 Co138 2.121 . S
N141 C143 1.375 . S
N141 C144 1.313 . S
C142 C143 1.338 . S
C142 N145 1.377 . S
C142 H162 0.930 . S
C143 N141 1.375 . S
C143 C142 1.338 . S
C143 H147 0.931 . S
C144 N141 1.313 . S
C144 N145 1.344 . S
C144 H148 0.930 . S
N145 C142 1.377 . S
N145 C144 1.344 . S
O146 Co138 2.055 . S
O146 C150 1.253 . S
H147 C143 0.931 . S
H148 C144 0.930 . S
O149 Co138 2.039 . S
O149 C139 1.265 . S
C150 O146 1.253 . S
C150 O151 1.227 . S
O151 C150 1.227 . S
N152 Co138 2.140 . S
N152 C155 1.346 . S
N152 C156 1.345 . S
C153 C154 1.387 . S
C153 C157 1.391 . S
C154 C153 1.387 . S
C154 C155 1.369 . S
C154 H163 0.929 1_556 S
C155 N152 1.346 . S
C155 C154 1.369 . S
C155 H158 0.928 1_556 S
C156 N152 1.345 . S
C156 C157 1.371 . S
C156 H159 0.931 . S
C157 C153 1.391 . S
C157 C156 1.371 . S
C157 H164 0.930 . S
H158 C155 0.928 1_554 S
H159 C156 0.931 . S
H160 C136 0.930 . S
H161 C133 0.930 . S
H162 C142 0.930 . S
H163 C154 0.929 1_554 S
H164 C157 0.930 . S
C165 C166 1.351 . S
C165 N168 1.368 . S
C165 H170 0.931 . S
C166 C165 1.351 . S
C166 N167 1.373 . S
C166 H194 0.930 . S
N167 C166 1.373 . S
N167 C169 1.340 . S
N168 C165 1.368 . S
N168 C169 1.321 . S
N168 Co171 2.135 . S
C169 N167 1.340 . S
C169 N168 1.321 . S
C169 H193 0.930 . S
H170 C165 0.931 . S
Co171 N168 2.135 . S
Co171 N174 2.121 . S
Co171 O179 2.055 . S
Co171 O182 2.039 . S
Co171 N185 2.140 . S
C172 O173 1.227 . S
C172 O182 1.265 . S
O173 C172 1.227 . S
N174 Co171 2.121 . S
N174 C176 1.375 . S
N174 C177 1.313 . S
C175 C176 1.338 . S
C175 N178 1.377 . S
C175 H195 0.930 1_554 S
C176 N174 1.375 . S
C176 C175 1.338 . S
C176 H180 0.931 . S
C177 N174 1.313 . S
C177 N178 1.344 . S
C177 H181 0.930 . S
N178 C175 1.377 . S
N178 C177 1.344 . S
O179 Co171 2.055 . S
O179 C183 1.253 . S
H180 C176 0.931 . S
H181 C177 0.930 . S
O182 Co171 2.039 . S
O182 C172 1.265 . S
C183 O179 1.253 . S
C183 O184 1.227 . S
O184 C183 1.227 . S
N185 Co171 2.140 . S
N185 C188 1.346 . S
N185 C189 1.345 . S
C186 C187 1.387 . S
C186 C190 1.391 . S
C187 C186 1.387 . S
C187 C188 1.369 . S
C187 H196 0.929 . S
C188 N185 1.346 . S
C188 C187 1.369 . S
C188 H191 0.928 . S
C189 N185 1.345 . S
C189 C190 1.371 . S
C189 H192 0.931 . S
C190 C186 1.391 . S
C190 C189 1.371 . S
C190 H197 0.930 . S
H191 C188 0.928 . S
H192 C189 0.931 . S
H193 C169 0.930 . S
H194 C166 0.930 . S
H195 C175 0.930 1_556 S
H196 C187 0.929 . S
H197 C190 0.930 . S
C198 C199 1.351 . S
C198 N201 1.368 . S
C198 H203 0.931 . S
C199 C198 1.351 . S
C199 N200 1.373 . S
C199 H227 0.930 . S
N200 C199 1.373 . S
N200 C202 1.340 . S
N201 C198 1.368 . S
N201 C202 1.321 . S
N201 Co204 2.135 . S
C202 N200 1.340 . S
C202 N201 1.321 . S
C202 H226 0.930 . S
H203 C198 0.931 . S
Co204 N201 2.135 . S
Co204 N207 2.121 . S
Co204 O212 2.055 . S
Co204 O215 2.039 . S
Co204 N218 2.140 . S
C205 O206 1.227 . S
C205 O215 1.265 . S
O206 C205 1.227 . S
N207 Co204 2.121 . S
N207 C209 1.375 . S
N207 C210 1.313 . S
C208 C209 1.338 . S
C208 N211 1.377 . S
C208 H228 0.930 . S
C209 N207 1.375 . S
C209 C208 1.338 . S
C209 H213 0.931 . S
C210 N207 1.313 . S
C210 N211 1.344 . S
C210 H214 0.930 . S
N211 C208 1.377 . S
N211 C210 1.344 . S
O212 Co204 2.055 . S
O212 C216 1.253 . S
H213 C209 0.931 . S
H214 C210 0.930 . S
O215 Co204 2.039 . S
O215 C205 1.265 . S
C216 O212 1.253 . S
C216 O217 1.227 . S
O217 C216 1.227 . S
N218 Co204 2.140 . S
N218 C221 1.346 . S
N218 C222 1.345 . S
C219 C220 1.387 . S
C219 C223 1.391 . S
C220 C219 1.387 . S
C220 C221 1.369 . S
C220 H229 0.929 . S
C221 N218 1.346 . S
C221 C220 1.369 . S
C221 H224 0.928 . S
C222 N218 1.345 . S
C222 C223 1.371 . S
C222 H225 0.931 . S
C223 C219 1.391 . S
C223 C222 1.371 . S
C223 H230 0.930 . S
H224 C221 0.928 . S
H225 C222 0.931 . S
H226 C202 0.930 . S
H227 C199 0.930 . S
H228 C208 0.930 . S
H229 C220 0.929 . S
H230 C223 0.930 . S
C231 C232 1.351 . S
C231 N234 1.368 . S
C231 H236 0.931 . S
C232 C231 1.351 . S
C232 N233 1.373 . S
C232 H260 0.930 . S
N233 C232 1.373 . S
N233 C235 1.340 . S
N234 C231 1.368 . S
N234 C235 1.321 . S
N234 Co237 2.135 . S
C235 N233 1.340 . S
C235 N234 1.321 . S
C235 H259 0.930 . S
H236 C231 0.931 . S
Co237 N234 2.135 . S
Co237 N240 2.121 . S
Co237 O245 2.055 . S
Co237 O248 2.039 . S
Co237 N251 2.140 . S
C238 O239 1.227 . S
C238 O248 1.265 . S
O239 C238 1.227 . S
N240 Co237 2.121 . S
N240 C242 1.375 . S
N240 C243 1.313 . S
C241 C242 1.338 . S
C241 N244 1.377 . S
C241 H261 0.930 . S
C242 N240 1.375 . S
C242 C241 1.338 . S
C242 H246 0.931 . S
C243 N240 1.313 . S
C243 N244 1.344 . S
C243 H247 0.930 . S
N244 C241 1.377 . S
N244 C243 1.344 . S
O245 Co237 2.055 . S
O245 C249 1.253 . S
H246 C242 0.931 . S
H247 C243 0.930 . S
O248 Co237 2.039 . S
O248 C238 1.265 . S
C249 O245 1.253 . S
C249 O250 1.227 . S
O250 C249 1.227 . S
N251 Co237 2.140 . S
N251 C254 1.346 . S
N251 C255 1.345 . S
C252 C253 1.387 . S
C252 C256 1.391 . S
C253 C252 1.387 . S
C253 C254 1.369 . S
C253 H262 0.929 . S
C254 N251 1.346 . S
C254 C253 1.369 . S
C254 H257 0.928 . S
C255 N251 1.345 . S
C255 C256 1.371 . S
C255 H258 0.931 . S
C256 C252 1.391 . S
C256 C255 1.371 . S
C256 H263 0.930 . S
H257 C254 0.928 . S
H258 C255 0.931 . S
H259 C235 0.930 . S
H260 C232 0.930 . S
H261 C241 0.930 . S
H262 C253 0.929 . S
H263 C256 0.930 . S
C264 C265 1.351 . S
C264 N267 1.368 . S
C264 H269 0.931 . S
C265 C264 1.351 . S
C265 N266 1.373 . S
C265 H293 0.930 . S
N266 C265 1.373 . S
N266 C268 1.340 . S
N267 C264 1.368 . S
N267 C268 1.321 . S
N267 Co270 2.135 1_554 S
C268 N266 1.340 . S
C268 N267 1.321 . S
C268 H292 0.930 . S
H269 C264 0.931 . S
Co270 N267 2.135 1_556 S
Co270 N273 2.121 . S
Co270 O278 2.055 . S
Co270 O281 2.039 . S
Co270 N284 2.140 . S
C271 O272 1.227 . S
C271 O281 1.265 . S
O272 C271 1.227 . S
N273 Co270 2.121 . S
N273 C275 1.375 . S
N273 C276 1.313 . S
C274 C275 1.338 . S
C274 N277 1.377 . S
C274 H294 0.930 . S
C275 N273 1.375 . S
C275 C274 1.338 . S
C275 H279 0.931 . S
C276 N273 1.313 . S
C276 N277 1.344 . S
C276 H280 0.930 . S
N277 C274 1.377 . S
N277 C276 1.344 . S
O278 Co270 2.055 . S
O278 C282 1.253 . S
H279 C275 0.931 . S
H280 C276 0.930 . S
O281 Co270 2.039 . S
O281 C271 1.265 . S
C282 O278 1.253 . S
C282 O283 1.227 . S
O283 C282 1.227 . S
N284 Co270 2.140 . S
N284 C287 1.346 . S
N284 C288 1.345 . S
C285 C286 1.387 . S
C285 C289 1.391 . S
C286 C285 1.387 . S
C286 C287 1.369 . S
C286 H295 0.929 1_556 S
C287 N284 1.346 . S
C287 C286 1.369 . S
C287 H290 0.928 1_556 S
C288 N284 1.345 . S
C288 C289 1.371 . S
C288 H291 0.931 . S
C289 C285 1.391 . S
C289 C288 1.371 . S
C289 H296 0.930 . S
H290 C287 0.928 1_554 S
H291 C288 0.931 . S
H292 C268 0.930 . S
H293 C265 0.930 . S
H294 C274 0.930 . S
H295 C286 0.929 1_554 S
H296 C289 0.930 . S
C297 C298 1.351 . S
C297 N300 1.368 . S
C297 H302 0.931 . S
C298 C297 1.351 . S
C298 N299 1.373 . S
C298 H326 0.930 . S
N299 C298 1.373 . S
N299 C301 1.340 . S
N300 C297 1.368 . S
N300 C301 1.321 . S
N300 Co303 2.135 . S
C301 N299 1.340 . S
C301 N300 1.321 . S
C301 H325 0.930 . S
H302 C297 0.931 . S
Co303 N300 2.135 . S
Co303 N306 2.121 . S
Co303 O311 2.055 . S
Co303 O314 2.039 . S
Co303 N317 2.140 . S
C304 O305 1.227 . S
C304 O314 1.265 . S
O305 C304 1.227 . S
N306 Co303 2.121 . S
N306 C308 1.375 . S
N306 C309 1.313 . S
C307 C308 1.338 . S
C307 N310 1.377 . S
C307 H327 0.930 . S
C308 N306 1.375 . S
C308 C307 1.338 . S
C308 H312 0.931 . S
C309 N306 1.313 . S
C309 N310 1.344 . S
C309 H313 0.930 . S
N310 C307 1.377 . S
N310 C309 1.344 . S
O311 Co303 2.055 . S
O311 C315 1.253 . S
H312 C308 0.931 . S
H313 C309 0.930 . S
O314 Co303 2.039 . S
O314 C304 1.265 . S
C315 O311 1.253 . S
C315 O316 1.227 . S
O316 C315 1.227 . S
N317 Co303 2.140 . S
N317 C320 1.346 . S
N317 C321 1.345 . S
C318 C319 1.387 . S
C318 C322 1.391 . S
C319 C318 1.387 . S
C319 C320 1.369 . S
C319 H328 0.929 . S
C320 N317 1.346 . S
C320 C319 1.369 . S
C320 H323 0.928 . S
C321 N317 1.345 . S
C321 C322 1.371 . S
C321 H324 0.931 . S
C322 C318 1.391 . S
C322 C321 1.371 . S
C322 H329 0.930 . S
H323 C320 0.928 . S
H324 C321 0.931 . S
H325 C301 0.930 . S
H326 C298 0.930 . S
H327 C307 0.930 . S
H328 C319 0.929 . S
H329 C322 0.930 . S
C330 C331 1.351 . S
C330 N333 1.368 . S
C330 H335 0.931 . S
C331 C330 1.351 . S
C331 N332 1.373 . S
C331 H359 0.930 . S
N332 C331 1.373 . S
N332 C334 1.340 . S
N333 C330 1.368 . S
N333 C334 1.321 . S
N333 Co336 2.135 . S
C334 N332 1.340 . S
C334 N333 1.321 . S
C334 H358 0.930 . S
H335 C330 0.931 . S
Co336 N333 2.135 . S
Co336 N339 2.121 . S
Co336 O344 2.055 . S
Co336 O347 2.039 . S
Co336 N350 2.140 . S
C337 O338 1.227 . S
C337 O347 1.265 . S
O338 C337 1.227 . S
N339 Co336 2.121 . S
N339 C341 1.375 . S
N339 C342 1.313 . S
C340 C341 1.338 . S
C340 N343 1.377 . S
C340 H360 0.930 . S
C341 N339 1.375 . S
C341 C340 1.338 . S
C341 H345 0.931 . S
C342 N339 1.313 . S
C342 N343 1.344 . S
C342 H346 0.930 . S
N343 C340 1.377 . S
N343 C342 1.344 . S
O344 Co336 2.055 . S
O344 C348 1.253 . S
H345 C341 0.931 . S
H346 C342 0.930 . S
O347 Co336 2.039 . S
O347 C337 1.265 . S
C348 O344 1.253 . S
C348 O349 1.227 . S
O349 C348 1.227 . S
N350 Co336 2.140 . S
N350 C353 1.346 . S
N350 C354 1.345 . S
C351 C352 1.387 . S
C351 C355 1.391 . S
C352 C351 1.387 . S
C352 C353 1.369 . S
C352 H361 0.929 . S
C353 N350 1.346 . S
C353 C352 1.369 . S
C353 H356 0.928 . S
C354 N350 1.345 . S
C354 C355 1.371 . S
C354 H357 0.931 . S
C355 C351 1.391 . S
C355 C354 1.371 . S
C355 H362 0.930 . S
H356 C353 0.928 . S
H357 C354 0.931 . S
H358 C334 0.930 . S
H359 C331 0.930 . S
H360 C340 0.930 . S
H361 C352 0.929 . S
H362 C355 0.930 . S
C363 C364 1.351 . S
C363 N366 1.368 . S
C363 H368 0.931 . S
C364 C363 1.351 . S
C364 N365 1.373 . S
C364 H392 0.930 . S
N365 C364 1.373 . S
N365 C367 1.340 . S
N366 C363 1.368 . S
N366 C367 1.321 . S
N366 Co369 2.135 . S
C367 N365 1.340 . S
C367 N366 1.321 . S
C367 H391 0.930 . S
H368 C363 0.931 . S
Co369 N366 2.135 . S
Co369 N372 2.121 . S
Co369 O377 2.055 . S
Co369 O380 2.039 . S
Co369 N383 2.140 . S
C370 O371 1.227 . S
C370 O380 1.265 . S
O371 C370 1.227 . S
N372 Co369 2.121 . S
N372 C374 1.375 . S
N372 C375 1.313 . S
C373 C374 1.338 . S
C373 N376 1.377 . S
C373 H393 0.930 1_554 S
C374 N372 1.375 . S
C374 C373 1.338 . S
C374 H378 0.931 . S
C375 N372 1.313 . S
C375 N376 1.344 . S
C375 H379 0.930 . S
N376 C373 1.377 . S
N376 C375 1.344 . S
O377 Co369 2.055 . S
O377 C381 1.253 . S
H378 C374 0.931 . S
H379 C375 0.930 . S
O380 Co369 2.039 . S
O380 C370 1.265 . S
C381 O377 1.253 . S
C381 O382 1.227 . S
O382 C381 1.227 . S
N383 Co369 2.140 . S
N383 C386 1.346 . S
N383 C387 1.345 . S
C384 C385 1.387 . S
C384 C388 1.391 . S
C385 C384 1.387 . S
C385 C386 1.369 . S
C385 H394 0.929 . S
C386 N383 1.346 . S
C386 C385 1.369 . S
C386 H389 0.928 . S
C387 N383 1.345 . S
C387 C388 1.371 . S
C387 H390 0.931 . S
C388 C384 1.391 . S
C388 C387 1.371 . S
C388 H395 0.930 . S
H389 C386 0.928 . S
H390 C387 0.931 . S
H391 C367 0.930 . S
H392 C364 0.930 . S
H393 C373 0.930 1_556 S
H394 C385 0.929 . S
H395 C388 0.930 . S
C396 C397 1.351 . S
C396 N399 1.368 . S
C396 H401 0.931 . S
C397 C396 1.351 . S
C397 N398 1.373 . S
C397 H425 0.930 . S
N398 C397 1.373 . S
N398 C400 1.340 . S
N399 C396 1.368 . S
N399 C400 1.321 . S
N399 Co402 2.135 1_556 S
C400 N398 1.340 . S
C400 N399 1.321 . S
C400 H424 0.930 . S
H401 C396 0.931 . S
Co402 N399 2.135 1_554 S
Co402 N405 2.121 . S
Co402 O410 2.055 . S
Co402 O413 2.039 . S
Co402 N416 2.140 . S
C403 O404 1.227 . S
C403 O413 1.265 . S
O404 C403 1.227 . S
N405 Co402 2.121 . S
N405 C407 1.375 . S
N405 C408 1.313 . S
C406 C407 1.338 . S
C406 N409 1.377 . S
C406 H426 0.930 . S
C407 N405 1.375 . S
C407 C406 1.338 . S
C407 H411 0.931 . S
C408 N405 1.313 . S
C408 N409 1.344 . S
C408 H412 0.930 . S
N409 C406 1.377 . S
N409 C408 1.344 . S
O410 Co402 2.055 . S
O410 C414 1.253 . S
H411 C407 0.931 . S
H412 C408 0.930 . S
O413 Co402 2.039 . S
O413 C403 1.265 . S
C414 O410 1.253 . S
C414 O415 1.227 . S
O415 C414 1.227 . S
N416 Co402 2.140 . S
N416 C419 1.346 . S
N416 C420 1.345 . S
C417 C418 1.387 . S
C417 C421 1.391 . S
C418 C417 1.387 . S
C418 C419 1.369 . S
C418 H427 0.929 1_554 S
C419 N416 1.346 . S
C419 C418 1.369 . S
C419 H422 0.928 1_554 S
C420 N416 1.345 . S
C420 C421 1.371 . S
C420 H423 0.931 . S
C421 C417 1.391 . S
C421 C420 1.371 . S
C421 H428 0.930 . S
H422 C419 0.928 1_556 S
H423 C420 0.931 . S
H424 C400 0.930 . S
H425 C397 0.930 . S
H426 C406 0.930 . S
H427 C418 0.929 1_556 S
H428 C421 0.930 . S
C429 C430 1.351 . S
C429 N432 1.368 . S
C429 H434 0.931 . S
C430 C429 1.351 . S
C430 N431 1.373 . S
C430 H458 0.930 . S
N431 C430 1.373 . S
N431 C433 1.340 . S
N432 C429 1.368 . S
N432 C433 1.321 . S
N432 Co435 2.135 . S
C433 N431 1.340 . S
C433 N432 1.321 . S
C433 H457 0.930 . S
H434 C429 0.931 . S
Co435 N432 2.135 . S
Co435 N438 2.121 . S
Co435 O443 2.055 . S
Co435 O446 2.039 . S
Co435 N449 2.140 . S
C436 O437 1.227 . S
C436 O446 1.265 . S
O437 C436 1.227 . S
N438 Co435 2.121 . S
N438 C440 1.375 . S
N438 C441 1.313 . S
C439 C440 1.338 . S
C439 N442 1.377 . S
C439 H459 0.930 1_556 S
C440 N438 1.375 . S
C440 C439 1.338 . S
C440 H444 0.931 . S
C441 N438 1.313 . S
C441 N442 1.344 . S
C441 H445 0.930 . S
N442 C439 1.377 . S
N442 C441 1.344 . S
O443 Co435 2.055 . S
O443 C447 1.253 . S
H444 C440 0.931 . S
H445 C441 0.930 . S
O446 Co435 2.039 . S
O446 C436 1.265 . S
C447 O443 1.253 . S
C447 O448 1.227 . S
O448 C447 1.227 . S
N449 Co435 2.140 . S
N449 C452 1.346 . S
N449 C453 1.345 . S
C450 C451 1.387 . S
C450 C454 1.391 . S
C451 C450 1.387 . S
C451 C452 1.369 . S
C451 H460 0.929 . S
C452 N449 1.346 . S
C452 C451 1.369 . S
C452 H455 0.928 . S
C453 N449 1.345 . S
C453 C454 1.371 . S
C453 H456 0.931 . S
C454 C450 1.391 . S
C454 C453 1.371 . S
C454 H461 0.930 . S
H455 C452 0.928 . S
H456 C453 0.931 . S
H457 C433 0.930 . S
H458 C430 0.930 . S
H459 C439 0.930 1_554 S
H460 C451 0.929 . S
H461 C454 0.930 . S
C462 C463 1.351 . S
C462 N465 1.368 . S
C462 H467 0.931 . S
C463 C462 1.351 . S
C463 N464 1.373 . S
C463 H491 0.930 . S
N464 C463 1.373 . S
N464 C466 1.340 . S
N465 C462 1.368 . S
N465 C466 1.321 . S
N465 Co468 2.135 . S
C466 N464 1.340 . S
C466 N465 1.321 . S
C466 H490 0.930 . S
H467 C462 0.931 . S
Co468 N465 2.135 . S
Co468 N471 2.121 . S
Co468 O476 2.055 . S
Co468 O479 2.039 . S
Co468 N482 2.140 . S
C469 O470 1.227 . S
C469 O479 1.265 . S
O470 C469 1.227 . S
N471 Co468 2.121 . S
N471 C473 1.375 . S
N471 C474 1.313 . S
C472 C473 1.338 . S
C472 N475 1.377 . S
C472 H492 0.930 . S
C473 N471 1.375 . S
C473 C472 1.338 . S
C473 H477 0.931 . S
C474 N471 1.313 . S
C474 N475 1.344 . S
C474 H478 0.930 . S
N475 C472 1.377 . S
N475 C474 1.344 . S
O476 Co468 2.055 . S
O476 C480 1.253 . S
H477 C473 0.931 . S
H478 C474 0.930 . S
O479 Co468 2.039 . S
O479 C469 1.265 . S
C480 O476 1.253 . S
C480 O481 1.227 . S
O481 C480 1.227 . S
N482 Co468 2.140 . S
N482 C485 1.346 . S
N482 C486 1.345 . S
C483 C484 1.387 . S
C483 C487 1.391 . S
C484 C483 1.387 . S
C484 C485 1.369 . S
C484 H493 0.929 . S
C485 N482 1.346 . S
C485 C484 1.369 . S
C485 H488 0.928 . S
C486 N482 1.345 . S
C486 C487 1.371 . S
C486 H489 0.931 . S
C487 C483 1.391 . S
C487 C486 1.371 . S
C487 H494 0.930 . S
H488 C485 0.928 . S
H489 C486 0.931 . S
H490 C466 0.930 . S
H491 C463 0.930 . S
H492 C472 0.930 . S
H493 C484 0.929 . S
H494 C487 0.930 . S
C495 C496 1.351 . S
C495 N498 1.368 . S
C495 H500 0.931 . S
C496 C495 1.351 . S
C496 N497 1.373 . S
C496 H524 0.930 . S
N497 C496 1.373 . S
N497 C499 1.340 . S
N498 C495 1.368 . S
N498 C499 1.321 . S
N498 Co501 2.135 . S
C499 N497 1.340 . S
C499 N498 1.321 . S
C499 H523 0.930 . S
H500 C495 0.931 . S
Co501 N498 2.135 . S
Co501 N504 2.121 . S
Co501 O509 2.055 . S
Co501 O512 2.039 . S
Co501 N515 2.140 . S
C502 O503 1.227 . S
C502 O512 1.265 . S
O503 C502 1.227 . S
N504 Co501 2.121 . S
N504 C506 1.375 . S
N504 C507 1.313 . S
C505 C506 1.338 . S
C505 N508 1.377 . S
C505 H525 0.930 . S
C506 N504 1.375 . S
C506 C505 1.338 . S
C506 H510 0.931 . S
C507 N504 1.313 . S
C507 N508 1.344 . S
C507 H511 0.930 . S
N508 C505 1.377 . S
N508 C507 1.344 . S
O509 Co501 2.055 . S
O509 C513 1.253 . S
H510 C506 0.931 . S
H511 C507 0.930 . S
O512 Co501 2.039 . S
O512 C502 1.265 . S
C513 O509 1.253 . S
C513 O514 1.227 . S
O514 C513 1.227 . S
N515 Co501 2.140 . S
N515 C518 1.346 . S
N515 C519 1.345 . S
C516 C517 1.387 . S
C516 C520 1.391 . S
C517 C516 1.387 . S
C517 C518 1.369 . S
C517 H526 0.929 . S
C518 N515 1.346 . S
C518 C517 1.369 . S
C518 H521 0.928 . S
C519 N515 1.345 . S
C519 C520 1.371 . S
C519 H522 0.931 . S
C520 C516 1.391 . S
C520 C519 1.371 . S
C520 H527 0.930 . S
H521 C518 0.928 . S
H522 C519 0.931 . S
H523 C499 0.930 . S
H524 C496 0.930 . S
H525 C505 0.930 . S
H526 C517 0.929 . S
H527 C520 0.930 . S
C528 C529 1.351 . S
C528 N531 1.368 . S
C528 H533 0.931 . S
C529 C528 1.351 . S
C529 N530 1.373 . S
C529 H557 0.930 . S
N530 C529 1.373 . S
N530 C532 1.340 . S
N531 C528 1.368 . S
N531 C532 1.321 . S
N531 Co534 2.135 . S
C532 N530 1.340 . S
C532 N531 1.321 . S
C532 H556 0.930 . S
H533 C528 0.931 . S
Co534 N531 2.135 . S
Co534 N537 2.121 . S
Co534 O542 2.055 . S
Co534 O545 2.039 . S
Co534 N548 2.140 . S
C535 O536 1.227 . S
C535 O545 1.265 . S
O536 C535 1.227 . S
N537 Co534 2.121 . S
N537 C539 1.375 . S
N537 C540 1.313 . S
C538 C539 1.338 . S
C538 N541 1.377 . S
C538 H558 0.930 . S
C539 N537 1.375 . S
C539 C538 1.338 . S
C539 H543 0.931 . S
C540 N537 1.313 . S
C540 N541 1.344 . S
C540 H544 0.930 . S
N541 C538 1.377 . S
N541 C540 1.344 . S
O542 Co534 2.055 . S
O542 C546 1.253 . S
H543 C539 0.931 . S
H544 C540 0.930 . S
O545 Co534 2.039 . S
O545 C535 1.265 . S
C546 O542 1.253 . S
C546 O547 1.227 . S
O547 C546 1.227 . S
N548 Co534 2.140 . S
N548 C551 1.346 . S
N548 C552 1.345 . S
C549 C550 1.387 . S
C549 C553 1.391 . S
C550 C549 1.387 . S
C550 C551 1.369 . S
C550 H559 0.929 . S
C551 N548 1.346 . S
C551 C550 1.369 . S
C551 H554 0.928 . S
C552 N548 1.345 . S
C552 C553 1.371 . S
C552 H555 0.931 . S
C553 C549 1.391 . S
C553 C552 1.371 . S
C553 H560 0.930 . S
H554 C551 0.928 . S
H555 C552 0.931 . S
H556 C532 0.930 . S
H557 C529 0.930 . S
H558 C538 0.930 . S
H559 C550 0.929 . S
H560 C553 0.930 . S
C561 C562 1.351 . S
C561 N564 1.368 . S
C561 H566 0.931 . S
C562 C561 1.351 . S
C562 N563 1.373 . S
C562 H590 0.930 . S
N563 C562 1.373 . S
N563 C565 1.340 . S
N564 C561 1.368 . S
N564 C565 1.321 . S
N564 Co567 2.135 . S
C565 N563 1.340 . S
C565 N564 1.321 . S
C565 H589 0.930 . S
H566 C561 0.931 . S
Co567 N564 2.135 . S
Co567 N570 2.121 . S
Co567 O575 2.055 . S
Co567 O578 2.039 . S
Co567 N581 2.140 . S
C568 O569 1.227 . S
C568 O578 1.265 . S
O569 C568 1.227 . S
N570 Co567 2.121 . S
N570 C572 1.375 . S
N570 C573 1.313 . S
C571 C572 1.338 . S
C571 N574 1.377 . S
C571 H591 0.930 1_556 S
C572 N570 1.375 . S
C572 C571 1.338 . S
C572 H576 0.931 . S
C573 N570 1.313 . S
C573 N574 1.344 . S
C573 H577 0.930 . S
N574 C571 1.377 . S
N574 C573 1.344 . S
O575 Co567 2.055 . S
O575 C579 1.253 . S
H576 C572 0.931 . S
H577 C573 0.930 . S
O578 Co567 2.039 . S
O578 C568 1.265 . S
C579 O575 1.253 . S
C579 O580 1.227 . S
O580 C579 1.227 . S
N581 Co567 2.140 . S
N581 C584 1.346 . S
N581 C585 1.345 . S
C582 C583 1.387 . S
C582 C586 1.391 . S
C583 C582 1.387 . S
C583 C584 1.369 . S
C583 H592 0.929 . S
C584 N581 1.346 . S
C584 C583 1.369 . S
C584 H587 0.928 . S
C585 N581 1.345 . S
C585 C586 1.371 . S
C585 H588 0.931 . S
C586 C582 1.391 . S
C586 C585 1.371 . S
C586 H593 0.930 . S
H587 C584 0.928 . S
H588 C585 0.931 . S
H589 C565 0.930 . S
H590 C562 0.930 . S
H591 C571 0.930 1_554 S
H592 C583 0.929 . S
H593 C586 0.930 . S
C594 C595 1.351 . S
C594 N597 1.368 . S
C594 H599 0.931 . S
C595 C594 1.351 . S
C595 N596 1.373 . S
C595 H623 0.930 . S
N596 C595 1.373 . S
N596 C598 1.340 . S
N597 C594 1.368 . S
N597 C598 1.321 . S
N597 Co600 2.135 1_556 S
C598 N596 1.340 . S
C598 N597 1.321 . S
C598 H622 0.930 . S
H599 C594 0.931 . S
Co600 N597 2.135 1_554 S
Co600 N603 2.121 . S
Co600 O608 2.055 . S
Co600 O611 2.039 . S
Co600 N614 2.140 . S
C601 O602 1.227 . S
C601 O611 1.265 . S
O602 C601 1.227 . S
N603 Co600 2.121 . S
N603 C605 1.375 . S
N603 C606 1.313 . S
C604 C605 1.338 . S
C604 N607 1.377 . S
C604 H624 0.930 . S
C605 N603 1.375 . S
C605 C604 1.338 . S
C605 H609 0.931 . S
C606 N603 1.313 . S
C606 N607 1.344 . S
C606 H610 0.930 . S
N607 C604 1.377 . S
N607 C606 1.344 . S
O608 Co600 2.055 . S
O608 C612 1.253 . S
H609 C605 0.931 . S
H610 C606 0.930 . S
O611 Co600 2.039 . S
O611 C601 1.265 . S
C612 O608 1.253 . S
C612 O613 1.227 . S
O613 C612 1.227 . S
N614 Co600 2.140 . S
N614 C617 1.346 . S
N614 C618 1.345 . S
C615 C616 1.387 . S
C615 C619 1.391 . S
C616 C615 1.387 . S
C616 C617 1.369 . S
C616 H625 0.929 1_554 S
C617 N614 1.346 . S
C617 C616 1.369 . S
C617 H620 0.928 1_554 S
C618 N614 1.345 . S
C618 C619 1.371 . S
C618 H621 0.931 . S
C619 C615 1.391 . S
C619 C618 1.371 . S
C619 H626 0.930 . S
H620 C617 0.928 1_556 S
H621 C618 0.931 . S
H622 C598 0.930 . S
H623 C595 0.930 . S
H624 C604 0.930 . S
H625 C616 0.929 1_556 S
H626 C619 0.930 . S
C627 C628 1.351 . S
C627 N630 1.368 . S
C627 H632 0.931 . S
C628 C627 1.351 . S
C628 N629 1.373 . S
C628 H656 0.930 . S
N629 C628 1.373 . S
N629 C631 1.340 . S
N630 C627 1.368 . S
N630 C631 1.321 . S
N630 Co633 2.135 . S
C631 N629 1.340 . S
C631 N630 1.321 . S
C631 H655 0.930 . S
H632 C627 0.931 . S
Co633 N630 2.135 . S
Co633 N636 2.121 . S
Co633 O641 2.055 . S
Co633 O644 2.039 . S
Co633 N647 2.140 . S
C634 O635 1.227 . S
C634 O644 1.265 . S
O635 C634 1.227 . S
N636 Co633 2.121 . S
N636 C638 1.375 . S
N636 C639 1.313 . S
C637 C638 1.338 . S
C637 N640 1.377 . S
C637 H657 0.930 . S
C638 N636 1.375 . S
C638 C637 1.338 . S
C638 H642 0.931 . S
C639 N636 1.313 . S
C639 N640 1.344 . S
C639 H643 0.930 . S
N640 C637 1.377 . S
N640 C639 1.344 . S
O641 Co633 2.055 . S
O641 C645 1.253 . S
H642 C638 0.931 . S
H643 C639 0.930 . S
O644 Co633 2.039 . S
O644 C634 1.265 . S
C645 O641 1.253 . S
C645 O646 1.227 . S
O646 C645 1.227 . S
N647 Co633 2.140 . S
N647 C650 1.346 . S
N647 C651 1.345 . S
C648 C649 1.387 . S
C648 C652 1.391 . S
C649 C648 1.387 . S
C649 C650 1.369 . S
C649 H658 0.929 . S
C650 N647 1.346 . S
C650 C649 1.369 . S
C650 H653 0.928 . S
C651 N647 1.345 . S
C651 C652 1.371 . S
C651 H654 0.931 . S
C652 C648 1.391 . S
C652 C651 1.371 . S
C652 H659 0.930 . S
H653 C650 0.928 . S
H654 C651 0.931 . S
H655 C631 0.930 . S
H656 C628 0.930 . S
H657 C637 0.930 . S
H658 C649 0.929 . S
H659 C652 0.930 . S
C660 C661 1.351 . S
C660 N663 1.368 . S
C660 H665 0.931 . S
C661 C660 1.351 . S
C661 N662 1.373 . S
C661 H689 0.930 . S
N662 C661 1.373 . S
N662 C664 1.340 . S
N663 C660 1.368 . S
N663 C664 1.321 . S
N663 Co666 2.135 . S
C664 N662 1.340 . S
C664 N663 1.321 . S
C664 H688 0.930 . S
H665 C660 0.931 . S
Co666 N663 2.135 . S
Co666 N669 2.121 . S
Co666 O674 2.055 . S
Co666 O677 2.039 . S
Co666 N680 2.140 . S
C667 O668 1.227 . S
C667 O677 1.265 . S
O668 C667 1.227 . S
N669 Co666 2.121 . S
N669 C671 1.375 . S
N669 C672 1.313 . S
C670 C671 1.338 . S
C670 N673 1.377 . S
C670 H690 0.930 . S
C671 N669 1.375 . S
C671 C670 1.338 . S
C671 H675 0.931 . S
C672 N669 1.313 . S
C672 N673 1.344 . S
C672 H676 0.930 . S
N673 C670 1.377 . S
N673 C672 1.344 . S
O674 Co666 2.055 . S
O674 C678 1.253 . S
H675 C671 0.931 . S
H676 C672 0.930 . S
O677 Co666 2.039 . S
O677 C667 1.265 . S
C678 O674 1.253 . S
C678 O679 1.227 . S
O679 C678 1.227 . S
N680 Co666 2.140 . S
N680 C683 1.346 . S
N680 C684 1.345 . S
C681 C682 1.387 . S
C681 C685 1.391 . S
C682 C681 1.387 . S
C682 C683 1.369 . S
C682 H691 0.929 . S
C683 N680 1.346 . S
C683 C682 1.369 . S
C683 H686 0.928 . S
C684 N680 1.345 . S
C684 C685 1.371 . S
C684 H687 0.931 . S
C685 C681 1.391 . S
C685 C684 1.371 . S
C685 H692 0.930 . S
H686 C683 0.928 . S
H687 C684 0.931 . S
H688 C664 0.930 . S
H689 C661 0.930 . S
H690 C670 0.930 . S
H691 C682 0.929 . S
H692 C685 0.930 . S
C693 C694 1.351 . S
C693 N696 1.368 . S
C693 H698 0.931 . S
C694 C693 1.351 . S
C694 N695 1.373 . S
C694 H722 0.930 . S
N695 C694 1.373 . S
N695 C697 1.340 . S
N696 C693 1.368 . S
N696 C697 1.321 . S
N696 Co699 2.135 . S
C697 N695 1.340 . S
C697 N696 1.321 . S
C697 H721 0.930 . S
H698 C693 0.931 . S
Co699 N696 2.135 . S
Co699 N702 2.121 . S
Co699 O707 2.055 . S
Co699 O710 2.039 . S
Co699 N713 2.140 . S
C700 O701 1.227 . S
C700 O710 1.265 . S
O701 C700 1.227 . S
N702 Co699 2.121 . S
N702 C704 1.375 . S
N702 C705 1.313 . S
C703 C704 1.338 . S
C703 N706 1.377 . S
C703 H723 0.930 . S
C704 N702 1.375 . S
C704 C703 1.338 . S
C704 H708 0.931 . S
C705 N702 1.313 . S
C705 N706 1.344 . S
C705 H709 0.930 . S
N706 C703 1.377 . S
N706 C705 1.344 . S
O707 Co699 2.055 . S
O707 C711 1.253 . S
H708 C704 0.931 . S
H709 C705 0.930 . S
O710 Co699 2.039 . S
O710 C700 1.265 . S
C711 O707 1.253 . S
C711 O712 1.227 . S
O712 C711 1.227 . S
N713 Co699 2.140 . S
N713 C716 1.346 . S
N713 C717 1.345 . S
C714 C715 1.387 . S
C714 C718 1.391 . S
C715 C714 1.387 . S
C715 C716 1.369 . S
C715 H724 0.929 . S
C716 N713 1.346 . S
C716 C715 1.369 . S
C716 H719 0.928 . S
C717 N713 1.345 . S
C717 C718 1.371 . S
C717 H720 0.931 . S
C718 C714 1.391 . S
C718 C717 1.371 . S
C718 H725 0.930 . S
H719 C716 0.928 . S
H720 C717 0.931 . S
H721 C697 0.930 . S
H722 C694 0.930 . S
H723 C703 0.930 . S
H724 C715 0.929 . S
H725 C718 0.930 . S
C726 C727 1.351 . S
C726 N729 1.368 . S
C726 H731 0.931 . S
C727 C726 1.351 . S
C727 N728 1.373 . S
C727 H755 0.930 . S
N728 C727 1.373 . S
N728 C730 1.340 . S
N729 C726 1.368 . S
N729 C730 1.321 . S
N729 Co732 2.135 1_554 S
C730 N728 1.340 . S
C730 N729 1.321 . S
C730 H754 0.930 . S
H731 C726 0.931 . S
Co732 N729 2.135 1_556 S
Co732 N735 2.121 . S
Co732 O740 2.055 . S
Co732 O743 2.039 . S
Co732 N746 2.140 . S
C733 O734 1.227 . S
C733 O743 1.265 . S
O734 C733 1.227 . S
N735 Co732 2.121 . S
N735 C737 1.375 . S
N735 C738 1.313 . S
C736 C737 1.338 . S
C736 N739 1.377 . S
C736 H756 0.930 . S
C737 N735 1.375 . S
C737 C736 1.338 . S
C737 H741 0.931 . S
C738 N735 1.313 . S
C738 N739 1.344 . S
C738 H742 0.930 . S
N739 C736 1.377 . S
N739 C738 1.344 . S
O740 Co732 2.055 . S
O740 C744 1.253 . S
H741 C737 0.931 . S
H742 C738 0.930 . S
O743 Co732 2.039 . S
O743 C733 1.265 . S
C744 O740 1.253 . S
C744 O745 1.227 . S
O745 C744 1.227 . S
N746 Co732 2.140 . S
N746 C749 1.346 . S
N746 C750 1.345 . S
C747 C748 1.387 . S
C747 C751 1.391 . S
C748 C747 1.387 . S
C748 C749 1.369 . S
C748 H757 0.929 1_556 S
C749 N746 1.346 . S
C749 C748 1.369 . S
C749 H752 0.928 1_556 S
C750 N746 1.345 . S
C750 C751 1.371 . S
C750 H753 0.931 . S
C751 C747 1.391 . S
C751 C750 1.371 . S
C751 H758 0.930 . S
H752 C749 0.928 1_554 S
H753 C750 0.931 . S
H754 C730 0.930 . S
H755 C727 0.930 . S
H756 C736 0.930 . S
H757 C748 0.929 1_554 S
H758 C751 0.930 . S
C759 C760 1.351 . S
C759 N762 1.368 . S
C759 H764 0.931 . S
C760 C759 1.351 . S
C760 N761 1.373 . S
C760 H788 0.930 . S
N761 C760 1.373 . S
N761 C763 1.340 . S
N762 C759 1.368 . S
N762 C763 1.321 . S
N762 Co765 2.135 . S
C763 N761 1.340 . S
C763 N762 1.321 . S
C763 H787 0.930 . S
H764 C759 0.931 . S
Co765 N762 2.135 . S
Co765 N768 2.121 . S
Co765 O773 2.055 . S
Co765 O776 2.039 . S
Co765 N779 2.140 . S
C766 O767 1.227 . S
C766 O776 1.265 . S
O767 C766 1.227 . S
N768 Co765 2.121 . S
N768 C770 1.375 . S
N768 C771 1.313 . S
C769 C770 1.338 . S
C769 N772 1.377 . S
C769 H789 0.930 1_554 S
C770 N768 1.375 . S
C770 C769 1.338 . S
C770 H774 0.931 . S
C771 N768 1.313 . S
C771 N772 1.344 . S
C771 H775 0.930 . S
N772 C769 1.377 . S
N772 C771 1.344 . S
O773 Co765 2.055 . S
O773 C777 1.253 . S
H774 C770 0.931 . S
H775 C771 0.930 . S
O776 Co765 2.039 . S
O776 C766 1.265 . S
C777 O773 1.253 . S
C777 O778 1.227 . S
O778 C777 1.227 . S
N779 Co765 2.140 . S
N779 C782 1.346 . S
N779 C783 1.345 . S
C780 C781 1.387 . S
C780 C784 1.391 . S
C781 C780 1.387 . S
C781 C782 1.369 . S
C781 H790 0.929 . S
C782 N779 1.346 . S
C782 C781 1.369 . S
C782 H785 0.928 . S
C783 N779 1.345 . S
C783 C784 1.371 . S
C783 H786 0.931 . S
C784 C780 1.391 . S
C784 C783 1.371 . S
C784 H791 0.930 . S
H785 C782 0.928 . S
H786 C783 0.931 . S
H787 C763 0.930 . S
H788 C760 0.930 . S
H789 C769 0.930 1_556 S
H790 C781 0.929 . S
H791 C784 0.930 . S
C792 C793 1.351 . S
C792 N795 1.368 . S
C792 H797 0.931 . S
C793 C792 1.351 . S
C793 N794 1.373 . S
C793 H821 0.930 . S
N794 C793 1.373 . S
N794 C796 1.340 . S
N795 C792 1.368 . S
N795 C796 1.321 . S
N795 Co798 2.135 . S
C796 N794 1.340 . S
C796 N795 1.321 . S
C796 H820 0.930 . S
H797 C792 0.931 . S
Co798 N795 2.135 . S
Co798 N801 2.121 . S
Co798 O806 2.055 . S
Co798 O809 2.039 . S
Co798 N812 2.140 . S
C799 O800 1.227 . S
C799 O809 1.265 . S
O800 C799 1.227 . S
N801 Co798 2.121 . S
N801 C803 1.375 . S
N801 C804 1.313 . S
C802 C803 1.338 . S
C802 N805 1.377 . S
C802 H822 0.930 . S
C803 N801 1.375 . S
C803 C802 1.338 . S
C803 H807 0.931 . S
C804 N801 1.313 . S
C804 N805 1.344 . S
C804 H808 0.930 . S
N805 C802 1.377 . S
N805 C804 1.344 . S
O806 Co798 2.055 . S
O806 C810 1.253 . S
H807 C803 0.931 . S
H808 C804 0.930 . S
O809 Co798 2.039 . S
O809 C799 1.265 . S
C810 O806 1.253 . S
C810 O811 1.227 . S
O811 C810 1.227 . S
N812 Co798 2.140 . S
N812 C815 1.346 . S
N812 C816 1.345 . S
C813 C814 1.387 . S
C813 C817 1.391 . S
C814 C813 1.387 . S
C814 C815 1.369 . S
C814 H823 0.929 . S
C815 N812 1.346 . S
C815 C814 1.369 . S
C815 H818 0.928 . S
C816 N812 1.345 . S
C816 C817 1.371 . S
C816 H819 0.931 . S
C817 C813 1.391 . S
C817 C816 1.371 . S
C817 H824 0.930 . S
H818 C815 0.928 . S
H819 C816 0.931 . S
H820 C796 0.930 . S
H821 C793 0.930 . S
H822 C802 0.930 . S
H823 C814 0.929 . S
H824 C817 0.930 . S
C825 C826 1.351 . S
C825 N828 1.368 . S
C825 H830 0.931 . S
C826 C825 1.351 . S
C826 N827 1.373 . S
C826 H854 0.930 . S
N827 C826 1.373 . S
N827 C829 1.340 . S
N828 C825 1.368 . S
N828 C829 1.321 . S
N828 Co831 2.135 . S
C829 N827 1.340 . S
C829 N828 1.321 . S
C829 H853 0.930 . S
H830 C825 0.931 . S
Co831 N828 2.135 . S
Co831 N834 2.121 . S
Co831 O839 2.055 . S
Co831 O842 2.039 . S
Co831 N845 2.140 . S
C832 O833 1.227 . S
C832 O842 1.265 . S
O833 C832 1.227 . S
N834 Co831 2.121 . S
N834 C836 1.375 . S
N834 C837 1.313 . S
C835 C836 1.338 . S
C835 N838 1.377 . S
C835 H855 0.930 1_554 S
C836 N834 1.375 . S
C836 C835 1.338 . S
C836 H840 0.931 . S
C837 N834 1.313 . S
C837 N838 1.344 . S
C837 H841 0.930 . S
N838 C835 1.377 . S
N838 C837 1.344 . S
O839 Co831 2.055 . S
O839 C843 1.253 . S
H840 C836 0.931 . S
H841 C837 0.930 . S
O842 Co831 2.039 . S
O842 C832 1.265 . S
C843 O839 1.253 . S
C843 O844 1.227 . S
O844 C843 1.227 . S
N845 Co831 2.140 . S
N845 C848 1.346 . S
N845 C849 1.345 . S
C846 C847 1.387 . S
C846 C850 1.391 . S
C847 C846 1.387 . S
C847 C848 1.369 . S
C847 H856 0.929 . S
C848 N845 1.346 . S
C848 C847 1.369 . S
C848 H851 0.928 . S
C849 N845 1.345 . S
C849 C850 1.371 . S
C849 H852 0.931 . S
C850 C846 1.391 . S
C850 C849 1.371 . S
C850 H857 0.930 . S
H851 C848 0.928 . S
H852 C849 0.931 . S
H853 C829 0.930 . S
H854 C826 0.930 . S
H855 C835 0.930 1_556 S
H856 C847 0.929 . S
H857 C850 0.930 . S
C858 C859 1.351 . S
C858 N861 1.368 . S
C858 H863 0.931 . S
C859 C858 1.351 . S
C859 N860 1.373 . S
C859 H887 0.930 . S
N860 C859 1.373 . S
N860 C862 1.340 . S
N861 C858 1.368 . S
N861 C862 1.321 . S
N861 Co864 2.135 1_554 S
C862 N860 1.340 . S
C862 N861 1.321 . S
C862 H886 0.930 . S
H863 C858 0.931 . S
Co864 N861 2.135 1_556 S
Co864 N867 2.121 . S
Co864 O872 2.055 . S
Co864 O875 2.039 . S
Co864 N878 2.140 . S
C865 O866 1.227 . S
C865 O875 1.265 . S
O866 C865 1.227 . S
N867 Co864 2.121 . S
N867 C869 1.375 . S
N867 C870 1.313 . S
C868 C869 1.338 . S
C868 N871 1.377 . S
C868 H888 0.930 . S
C869 N867 1.375 . S
C869 C868 1.338 . S
C869 H873 0.931 . S
C870 N867 1.313 . S
C870 N871 1.344 . S
C870 H874 0.930 . S
N871 C868 1.377 . S
N871 C870 1.344 . S
O872 Co864 2.055 . S
O872 C876 1.253 . S
H873 C869 0.931 . S
H874 C870 0.930 . S
O875 Co864 2.039 . S
O875 C865 1.265 . S
C876 O872 1.253 . S
C876 O877 1.227 . S
O877 C876 1.227 . S
N878 Co864 2.140 . S
N878 C881 1.346 . S
N878 C882 1.345 . S
C879 C880 1.387 . S
C879 C883 1.391 . S
C880 C879 1.387 . S
C880 C881 1.369 . S
C880 H889 0.929 1_556 S
C881 N878 1.346 . S
C881 C880 1.369 . S
C881 H884 0.928 1_556 S
C882 N878 1.345 . S
C882 C883 1.371 . S
C882 H885 0.931 . S
C883 C879 1.391 . S
C883 C882 1.371 . S
C883 H890 0.930 . S
H884 C881 0.928 1_554 S
H885 C882 0.931 . S
H886 C862 0.930 . S
H887 C859 0.930 . S
H888 C868 0.930 . S
H889 C880 0.929 1_554 S
H890 C883 0.930 . S
C891 C892 1.351 . S
C891 N894 1.368 . S
C891 H896 0.931 . S
C892 C891 1.351 . S
C892 N893 1.373 . S
C892 H920 0.930 . S
N893 C892 1.373 . S
N893 C895 1.340 . S
N894 C891 1.368 . S
N894 C895 1.321 . S
N894 Co897 2.135 . S
C895 N893 1.340 . S
C895 N894 1.321 . S
C895 H919 0.930 . S
H896 C891 0.931 . S
Co897 N894 2.135 . S
Co897 N900 2.121 . S
Co897 O905 2.055 . S
Co897 O908 2.039 . S
Co897 N911 2.140 . S
C898 O899 1.227 . S
C898 O908 1.265 . S
O899 C898 1.227 . S
N900 Co897 2.121 . S
N900 C902 1.375 . S
N900 C903 1.313 . S
C901 C902 1.338 . S
C901 N904 1.377 . S
C901 H921 0.930 . S
C902 N900 1.375 . S
C902 C901 1.338 . S
C902 H906 0.931 . S
C903 N900 1.313 . S
C903 N904 1.344 . S
C903 H907 0.930 . S
N904 C901 1.377 . S
N904 C903 1.344 . S
O905 Co897 2.055 . S
O905 C909 1.253 . S
H906 C902 0.931 . S
H907 C903 0.930 . S
O908 Co897 2.039 . S
O908 C898 1.265 . S
C909 O905 1.253 . S
C909 O910 1.227 . S
O910 C909 1.227 . S
N911 Co897 2.140 . S
N911 C914 1.346 . S
N911 C915 1.345 . S
C912 C913 1.387 . S
C912 C916 1.391 . S
C913 C912 1.387 . S
C913 C914 1.369 . S
C913 H922 0.929 . S
C914 N911 1.346 . S
C914 C913 1.369 . S
C914 H917 0.928 . S
C915 N911 1.345 . S
C915 C916 1.371 . S
C915 H918 0.931 . S
C916 C912 1.391 . S
C916 C915 1.371 . S
C916 H923 0.930 . S
H917 C914 0.928 . S
H918 C915 0.931 . S
H919 C895 0.930 . S
H920 C892 0.930 . S
H921 C901 0.930 . S
H922 C913 0.929 . S
H923 C916 0.930 . S
C924 C925 1.351 . S
C924 N927 1.368 . S
C924 H929 0.931 . S
C925 C924 1.351 . S
C925 N926 1.373 . S
C925 H953 0.930 . S
N926 C925 1.373 . S
N926 C928 1.340 . S
N927 C924 1.368 . S
N927 C928 1.321 . S
N927 Co930 2.135 . S
C928 N926 1.340 . S
C928 N927 1.321 . S
C928 H952 0.930 . S
H929 C924 0.931 . S
Co930 N927 2.135 . S
Co930 N933 2.121 . S
Co930 O938 2.055 . S
Co930 O941 2.039 . S
Co930 N944 2.140 . S
C931 O932 1.227 . S
C931 O941 1.265 . S
O932 C931 1.227 . S
N933 Co930 2.121 . S
N933 C935 1.375 . S
N933 C936 1.313 . S
C934 C935 1.338 . S
C934 N937 1.377 . S
C934 H954 0.930 . S
C935 N933 1.375 . S
C935 C934 1.338 . S
C935 H939 0.931 . S
C936 N933 1.313 . S
C936 N937 1.344 . S
C936 H940 0.930 . S
N937 C934 1.377 . S
N937 C936 1.344 . S
O938 Co930 2.055 . S
O938 C942 1.253 . S
H939 C935 0.931 . S
H940 C936 0.930 . S
O941 Co930 2.039 . S
O941 C931 1.265 . S
C942 O938 1.253 . S
C942 O943 1.227 . S
O943 C942 1.227 . S
N944 Co930 2.140 . S
N944 C947 1.346 . S
N944 C948 1.345 . S
C945 C946 1.387 . S
C945 C949 1.391 . S
C946 C945 1.387 . S
C946 C947 1.369 . S
C946 H955 0.929 . S
C947 N944 1.346 . S
C947 C946 1.369 . S
C947 H950 0.928 . S
C948 N944 1.345 . S
C948 C949 1.371 . S
C948 H951 0.931 . S
C949 C945 1.391 . S
C949 C948 1.371 . S
C949 H956 0.930 . S
H950 C947 0.928 . S
H951 C948 0.931 . S
H952 C928 0.930 . S
H953 C925 0.930 . S
H954 C934 0.930 . S
H955 C946 0.929 . S
H956 C949 0.930 . S
C957 C958 1.351 . S
C957 N960 1.368 . S
C957 H962 0.931 . S
C958 C957 1.351 . S
C958 N959 1.373 . S
C958 H986 0.930 . S
N959 C958 1.373 . S
N959 C961 1.340 . S
N960 C957 1.368 . S
N960 C961 1.321 . S
N960 Co963 2.135 . S
C961 N959 1.340 . S
C961 N960 1.321 . S
C961 H985 0.930 . S
H962 C957 0.931 . S
Co963 N960 2.135 . S
Co963 N966 2.121 . S
Co963 O971 2.055 . S
Co963 O974 2.039 . S
Co963 N977 2.140 . S
C964 O965 1.227 . S
C964 O974 1.265 . S
O965 C964 1.227 . S
N966 Co963 2.121 . S
N966 C968 1.375 . S
N966 C969 1.313 . S
C967 C968 1.338 . S
C967 N970 1.377 . S
C967 H987 0.930 . S
C968 N966 1.375 . S
C968 C967 1.338 . S
C968 H972 0.931 . S
C969 N966 1.313 . S
C969 N970 1.344 . S
C969 H973 0.930 . S
N970 C967 1.377 . S
N970 C969 1.344 . S
O971 Co963 2.055 . S
O971 C975 1.253 . S
H972 C968 0.931 . S
H973 C969 0.930 . S
O974 Co963 2.039 . S
O974 C964 1.265 . S
C975 O971 1.253 . S
C975 O976 1.227 . S
O976 C975 1.227 . S
N977 Co963 2.140 . S
N977 C980 1.346 . S
N977 C981 1.345 . S
C978 C979 1.387 . S
C978 C982 1.391 . S
C979 C978 1.387 . S
C979 C980 1.369 . S
C979 H988 0.929 . S
C980 N977 1.346 . S
C980 C979 1.369 . S
C980 H983 0.928 . S
C981 N977 1.345 . S
C981 C982 1.371 . S
C981 H984 0.931 . S
C982 C978 1.391 . S
C982 C981 1.371 . S
C982 H989 0.930 . S
H983 C980 0.928 . S
H984 C981 0.931 . S
H985 C961 0.930 . S
H986 C958 0.930 . S
H987 C967 0.930 . S
H988 C979 0.929 . S
H989 C982 0.930 . S
C990 C991 1.351 . S
C990 N993 1.368 . S
C990 H995 0.931 . S
C991 C990 1.351 . S
C991 N992 1.373 . S
C991 H1019 0.930 . S
N992 C991 1.373 . S
N992 C994 1.340 . S
N993 C990 1.368 . S
N993 C994 1.321 . S
N993 Co996 2.135 1_556 S
C994 N992 1.340 . S
C994 N993 1.321 . S
C994 H1018 0.930 . S
H995 C990 0.931 . S
Co996 N993 2.135 1_554 S
Co996 N999 2.121 . S
Co996 O1004 2.055 . S
Co996 O1007 2.039 . S
Co996 N1010 2.140 . S
C997 O998 1.227 . S
C997 O1007 1.265 . S
O998 C997 1.227 . S
N999 Co996 2.121 . S
N999 C1001 1.375 . S
N999 C1002 1.313 . S
C1000 C1001 1.338 . S
C1000 N1003 1.377 . S
C1000 H1020 0.930 . S
C1001 N999 1.375 . S
C1001 C1000 1.338 . S
C1001 H1005 0.931 . S
C1002 N999 1.313 . S
C1002 N1003 1.344 . S
C1002 H1006 0.930 . S
N1003 C1000 1.377 . S
N1003 C1002 1.344 . S
O1004 Co996 2.055 . S
O1004 C1008 1.253 . S
H1005 C1001 0.931 . S
H1006 C1002 0.930 . S
O1007 Co996 2.039 . S
O1007 C997 1.265 . S
C1008 O1004 1.253 . S
C1008 O1009 1.227 . S
O1009 C1008 1.227 . S
N1010 Co996 2.140 . S
N1010 C1013 1.346 . S
N1010 C1014 1.345 . S
C1011 C1012 1.387 . S
C1011 C1015 1.391 . S
C1012 C1011 1.387 . S
C1012 C1013 1.369 . S
C1012 H1021 0.929 1_554 S
C1013 N1010 1.346 . S
C1013 C1012 1.369 . S
C1013 H1016 0.928 1_554 S
C1014 N1010 1.345 . S
C1014 C1015 1.371 . S
C1014 H1017 0.931 . S
C1015 C1011 1.391 . S
C1015 C1014 1.371 . S
C1015 H1022 0.930 . S
H1016 C1013 0.928 1_556 S
H1017 C1014 0.931 . S
H1018 C994 0.930 . S
H1019 C991 0.930 . S
H1020 C1000 0.930 . S
H1021 C1012 0.929 1_556 S
H1022 C1015 0.930 . S
C1023 C1024 1.351 . S
C1023 N1026 1.368 . S
C1023 H1028 0.931 . S
C1024 C1023 1.351 . S
C1024 N1025 1.373 . S
C1024 H1052 0.930 . S
N1025 C1024 1.373 . S
N1025 C1027 1.340 . S
N1026 C1023 1.368 . S
N1026 C1027 1.321 . S
N1026 Co1029 2.135 . S
C1027 N1025 1.340 . S
C1027 N1026 1.321 . S
C1027 H1051 0.930 . S
H1028 C1023 0.931 . S
Co1029 N1026 2.135 . S
Co1029 N1032 2.121 . S
Co1029 O1037 2.055 . S
Co1029 O1040 2.039 . S
Co1029 N1043 2.140 . S
C1030 O1031 1.227 . S
C1030 O1040 1.265 . S
O1031 C1030 1.227 . S
N1032 Co1029 2.121 . S
N1032 C1034 1.375 . S
N1032 C1035 1.313 . S
C1033 C1034 1.338 . S
C1033 N1036 1.377 . S
C1033 H1053 0.930 1_556 S
C1034 N1032 1.375 . S
C1034 C1033 1.338 . S
C1034 H1038 0.931 . S
C1035 N1032 1.313 . S
C1035 N1036 1.344 . S
C1035 H1039 0.930 . S
N1036 C1033 1.377 . S
N1036 C1035 1.344 . S
O1037 Co1029 2.055 . S
O1037 C1041 1.253 . S
H1038 C1034 0.931 . S
H1039 C1035 0.930 . S
O1040 Co1029 2.039 . S
O1040 C1030 1.265 . S
C1041 O1037 1.253 . S
C1041 O1042 1.227 . S
O1042 C1041 1.227 . S
N1043 Co1029 2.140 . S
N1043 C1046 1.346 . S
N1043 C1047 1.345 . S
C1044 C1045 1.387 . S
C1044 C1048 1.391 . S
C1045 C1044 1.387 . S
C1045 C1046 1.369 . S
C1045 H1054 0.929 . S
C1046 N1043 1.346 . S
C1046 C1045 1.369 . S
C1046 H1049 0.928 . S
C1047 N1043 1.345 . S
C1047 C1048 1.371 . S
C1047 H1050 0.931 . S
C1048 C1044 1.391 . S
C1048 C1047 1.371 . S
C1048 H1055 0.930 . S
H1049 C1046 0.928 . S
H1050 C1047 0.931 . S
H1051 C1027 0.930 . S
H1052 C1024 0.930 . S
H1053 C1033 0.930 1_554 S
H1054 C1045 0.929 . S
H1055 C1048 0.930 . S
C1056 C1057 1.349 . S
C1056 C1058 1.327 . S
C1056 H1081 0.950 . S
C1057 C1056 1.349 . S
C1057 C1073 1.349 . S
C1058 C1056 1.327 . S
C1058 C1077 1.429 . S
C1058 H1082 0.950 . S
C1059 C1076 1.574 . S
C1059 C1078 1.368 . S
C1059 H1083 0.949 . S
H1060 C1064 0.949 . S
C1061 C1062 1.349 . S
C1061 C1063 1.327 . S
C1061 H1084 0.950 . S
C1062 C1061 1.349 . S
C1062 C1074 1.349 . S
C1063 C1061 1.327 . S
C1063 C1079 1.429 . S
C1063 H1085 0.950 . S
C1064 H1060 0.949 . S
C1064 C1072 1.574 . S
C1064 C1080 1.368 . S
H1065 C1073 0.950 . S
H1066 C1071 0.950 . S
H1067 C1072 0.949 . S
H1068 C1074 0.950 . S
H1069 C1075 0.950 . S
H1070 C1076 0.949 . S
C1071 H1066 0.950 . S
C1071 C1073 1.327 . S
C1071 C1077 1.429 . S
C1072 C1064 1.574 . S
C1072 H1067 0.949 . S
C1072 C1078 1.368 . S
C1073 C1057 1.349 . S
C1073 H1065 0.950 . S
C1073 C1071 1.327 . S
C1074 C1062 1.349 . S
C1074 H1068 0.950 . S
C1074 C1075 1.327 . S
C1075 H1069 0.950 . S
C1075 C1074 1.327 . S
C1075 C1079 1.429 . S
C1076 C1059 1.574 . S
C1076 H1070 0.949 . S
C1076 C1080 1.368 . S
C1077 C1058 1.429 . S
C1077 C1071 1.429 . S
C1077 C1078 1.523 . S
C1078 C1059 1.368 . S
C1078 C1072 1.368 . S
C1078 C1077 1.523 . S
C1079 C1063 1.429 . S
C1079 C1075 1.429 . S
C1079 C1080 1.523 . S
C1080 C1064 1.368 . S
C1080 C1076 1.368 . S
C1080 C1079 1.523 . S
H1081 C1056 0.950 . S
H1082 C1058 0.950 . S
H1083 C1059 0.949 . S
H1084 C1061 0.950 . S
H1085 C1063 0.950 . S
C1086 C1087 1.349 . S
C1086 C1088 1.327 . S
C1086 H1111 0.950 . S
C1087 C1086 1.349 . S
C1087 C1103 1.349 . S
C1088 C1086 1.327 . S
C1088 C1107 1.429 . S
C1088 H1112 0.950 . S
C1089 C1106 1.574 . S
C1089 C1108 1.368 . S
C1089 H1113 0.949 . S
H1090 C1094 0.949 . S
C1091 C1092 1.349 . S
C1091 C1093 1.327 1_554 S
C1091 H1114 0.950 . S
C1092 C1091 1.349 . S
C1092 C1104 1.349 . S
C1093 C1091 1.327 1_556 S
C1093 C1109 1.429 . S
C1093 H1115 0.950 . S
C1094 H1090 0.949 . S
C1094 C1102 1.574 . S
C1094 C1110 1.368 . S
H1095 C1103 0.950 . S
H1096 C1101 0.950 . S
H1097 C1102 0.949 . S
H1098 C1104 0.950 . S
H1099 C1105 0.950 . S
H1100 C1106 0.949 . S
C1101 H1096 0.950 . S
C1101 C1103 1.327 . S
C1101 C1107 1.429 . S
C1102 C1094 1.574 . S
C1102 H1097 0.949 . S
C1102 C1108 1.368 . S
C1103 C1087 1.349 . S
C1103 H1095 0.950 . S
C1103 C1101 1.327 . S
C1104 C1092 1.349 . S
C1104 H1098 0.950 . S
C1104 C1105 1.327 1_554 S
C1105 H1099 0.950 . S
C1105 C1104 1.327 1_556 S
C1105 C1109 1.429 . S
C1106 C1089 1.574 . S
C1106 H1100 0.949 . S
C1106 C1110 1.368 . S
C1107 C1088 1.429 . S
C1107 C1101 1.429 . S
C1107 C1108 1.523 . S
C1108 C1089 1.368 . S
C1108 C1102 1.368 . S
C1108 C1107 1.523 . S
C1109 C1093 1.429 . S
C1109 C1105 1.429 . S
C1109 C1110 1.523 . S
C1110 C1094 1.368 . S
C1110 C1106 1.368 . S
C1110 C1109 1.523 . S
H1111 C1086 0.950 . S
H1112 C1088 0.950 . S
H1113 C1089 0.949 . S
H1114 C1091 0.950 . S
H1115 C1093 0.950 . S
C1116 C1117 1.349 . S
C1116 C1118 1.327 . S
C1116 H1141 0.950 . S
C1117 C1116 1.349 . S
C1117 C1133 1.349 . S
C1118 C1116 1.327 . S
C1118 C1137 1.429 . S
C1118 H1142 0.950 . S
C1119 C1136 1.574 . S
C1119 C1138 1.368 1_554 S
C1119 H1143 0.949 1_554 S
H1120 C1124 0.949 . S
C1121 C1122 1.349 . S
C1121 C1123 1.327 . S
C1121 H1144 0.950 . S
C1122 C1121 1.349 . S
C1122 C1134 1.349 . S
C1123 C1121 1.327 . S
C1123 C1139 1.429 . S
C1123 H1145 0.950 . S
C1124 H1120 0.949 . S
C1124 C1132 1.574 . S
C1124 C1140 1.368 . S
H1125 C1133 0.950 . S
H1126 C1131 0.950 . S
H1127 C1132 0.949 1_556 S
H1128 C1134 0.950 . S
H1129 C1135 0.950 . S
H1130 C1136 0.949 . S
C1131 H1126 0.950 . S
C1131 C1133 1.327 . S
C1131 C1137 1.429 . S
C1132 C1124 1.574 . S
C1132 H1127 0.949 1_554 S
C1132 C1138 1.368 1_554 S
C1133 C1117 1.349 . S
C1133 H1125 0.950 . S
C1133 C1131 1.327 . S
C1134 C1122 1.349 . S
C1134 H1128 0.950 . S
C1134 C1135 1.327 . S
C1135 H1129 0.950 . S
C1135 C1134 1.327 . S
C1135 C1139 1.429 . S
C1136 C1119 1.574 . S
C1136 H1130 0.949 . S
C1136 C1140 1.368 . S
C1137 C1118 1.429 . S
C1137 C1131 1.429 . S
C1137 C1138 1.523 . S
C1138 C1119 1.368 1_556 S
C1138 C1132 1.368 1_556 S
C1138 C1137 1.523 . S
C1139 C1123 1.429 . S
C1139 C1135 1.429 . S
C1139 C1140 1.523 . S
C1140 C1124 1.368 . S
C1140 C1136 1.368 . S
C1140 C1139 1.523 . S
H1141 C1116 0.950 . S
H1142 C1118 0.950 . S
H1143 C1119 0.949 1_556 S
H1144 C1121 0.950 . S
H1145 C1123 0.950 . S
C1146 C1147 1.349 . S
C1146 C1148 1.327 . S
C1146 H1171 0.950 . S
C1147 C1146 1.349 . S
C1147 C1163 1.349 . S
C1148 C1146 1.327 . S
C1148 C1167 1.429 . S
C1148 H1172 0.950 . S
C1149 C1166 1.574 . S
C1149 C1168 1.368 . S
C1149 H1173 0.949 . S
H1150 C1154 0.949 . S
C1151 C1152 1.349 . S
C1151 C1153 1.327 . S
C1151 H1174 0.950 . S
C1152 C1151 1.349 . S
C1152 C1164 1.349 . S
C1153 C1151 1.327 . S
C1153 C1169 1.429 . S
C1153 H1175 0.950 . S
C1154 H1150 0.949 . S
C1154 C1162 1.574 . S
C1154 C1170 1.368 . S
H1155 C1163 0.950 . S
H1156 C1161 0.950 . S
H1157 C1162 0.949 . S
H1158 C1164 0.950 . S
H1159 C1165 0.950 . S
H1160 C1166 0.949 . S
C1161 H1156 0.950 . S
C1161 C1163 1.327 . S
C1161 C1167 1.429 . S
C1162 C1154 1.574 . S
C1162 H1157 0.949 . S
C1162 C1168 1.368 . S
C1163 C1147 1.349 . S
C1163 H1155 0.950 . S
C1163 C1161 1.327 . S
C1164 C1152 1.349 . S
C1164 H1158 0.950 . S
C1164 C1165 1.327 . S
C1165 H1159 0.950 . S
C1165 C1164 1.327 . S
C1165 C1169 1.429 . S
C1166 C1149 1.574 . S
C1166 H1160 0.949 . S
C1166 C1170 1.368 . S
C1167 C1148 1.429 . S
C1167 C1161 1.429 . S
C1167 C1168 1.523 . S
C1168 C1149 1.368 . S
C1168 C1162 1.368 . S
C1168 C1167 1.523 . S
C1169 C1153 1.429 . S
C1169 C1165 1.429 . S
C1169 C1170 1.523 . S
C1170 C1154 1.368 . S
C1170 C1166 1.368 . S
C1170 C1169 1.523 . S
H1171 C1146 0.950 . S
H1172 C1148 0.950 . S
H1173 C1149 0.949 . S
H1174 C1151 0.950 . S
H1175 C1153 0.950 . S
C1176 C1177 1.349 . S
C1176 C1178 1.327 . S
C1176 H1201 0.950 . S
C1177 C1176 1.349 . S
C1177 C1193 1.349 . S
C1178 C1176 1.327 . S
C1178 C1197 1.429 . S
C1178 H1202 0.950 . S
C1179 C1196 1.574 . S
C1179 C1198 1.368 . S
C1179 H1203 0.949 . S
H1180 C1184 0.949 . S
C1181 C1182 1.349 . S
C1181 C1183 1.327 . S
C1181 H1204 0.950 . S
C1182 C1181 1.349 . S
C1182 C1194 1.349 . S
C1183 C1181 1.327 . S
C1183 C1199 1.429 . S
C1183 H1205 0.950 . S
C1184 H1180 0.949 . S
C1184 C1192 1.574 . S
C1184 C1200 1.368 . S
H1185 C1193 0.950 . S
H1186 C1191 0.950 . S
H1187 C1192 0.949 . S
H1188 C1194 0.950 . S
H1189 C1195 0.950 . S
H1190 C1196 0.949 . S
C1191 H1186 0.950 . S
C1191 C1193 1.327 . S
C1191 C1197 1.429 . S
C1192 C1184 1.574 . S
C1192 H1187 0.949 . S
C1192 C1198 1.368 . S
C1193 C1177 1.349 . S
C1193 H1185 0.950 . S
C1193 C1191 1.327 . S
C1194 C1182 1.349 . S
C1194 H1188 0.950 . S
C1194 C1195 1.327 . S
C1195 H1189 0.950 . S
C1195 C1194 1.327 . S
C1195 C1199 1.429 . S
C1196 C1179 1.574 . S
C1196 H1190 0.949 . S
C1196 C1200 1.368 . S
C1197 C1178 1.429 . S
C1197 C1191 1.429 . S
C1197 C1198 1.523 . S
C1198 C1179 1.368 . S
C1198 C1192 1.368 . S
C1198 C1197 1.523 . S
C1199 C1183 1.429 . S
C1199 C1195 1.429 . S
C1199 C1200 1.523 . S
C1200 C1184 1.368 . S
C1200 C1196 1.368 . S
C1200 C1199 1.523 . S
H1201 C1176 0.950 . S
H1202 C1178 0.950 . S
H1203 C1179 0.949 . S
H1204 C1181 0.950 . S
H1205 C1183 0.950 . S
C1206 C1207 1.349 . S
C1206 C1208 1.327 . S
C1206 H1231 0.950 . S
C1207 C1206 1.349 . S
C1207 C1223 1.349 . S
C1208 C1206 1.327 . S
C1208 C1227 1.429 . S
C1208 H1232 0.950 . S
C1209 C1226 1.574 . S
C1209 C1228 1.368 . S
C1209 H1233 0.949 . S
H1210 C1214 0.949 . S
C1211 C1212 1.349 . S
C1211 C1213 1.327 . S
C1211 H1234 0.950 . S
C1212 C1211 1.349 . S
C1212 C1224 1.349 . S
C1213 C1211 1.327 . S
C1213 C1229 1.429 . S
C1213 H1235 0.950 . S
C1214 H1210 0.949 . S
C1214 C1222 1.574 . S
C1214 C1230 1.368 . S
H1215 C1223 0.950 . S
H1216 C1221 0.950 . S
H1217 C1222 0.949 . S
H1218 C1224 0.950 . S
H1219 C1225 0.950 . S
H1220 C1226 0.949 . S
C1221 H1216 0.950 . S
C1221 C1223 1.327 . S
C1221 C1227 1.429 . S
C1222 C1214 1.574 . S
C1222 H1217 0.949 . S
C1222 C1228 1.368 . S
C1223 C1207 1.349 . S
C1223 H1215 0.950 . S
C1223 C1221 1.327 . S
C1224 C1212 1.349 . S
C1224 H1218 0.950 . S
C1224 C1225 1.327 . S
C1225 H1219 0.950 . S
C1225 C1224 1.327 . S
C1225 C1229 1.429 . S
C1226 C1209 1.574 . S
C1226 H1220 0.949 . S
C1226 C1230 1.368 . S
C1227 C1208 1.429 . S
C1227 C1221 1.429 . S
C1227 C1228 1.523 . S
C1228 C1209 1.368 . S
C1228 C1222 1.368 . S
C1228 C1227 1.523 . S
C1229 C1213 1.429 . S
C1229 C1225 1.429 . S
C1229 C1230 1.523 . S
C1230 C1214 1.368 . S
C1230 C1226 1.368 . S
C1230 C1229 1.523 . S
H1231 C1206 0.950 . S
H1232 C1208 0.950 . S
H1233 C1209 0.949 . S
H1234 C1211 0.950 . S
H1235 C1213 0.950 . S
C1236 C1237 1.349 . S
C1236 C1238 1.327 . S
C1236 H1261 0.950 . S
C1237 C1236 1.349 . S
C1237 C1253 1.349 . S
C1238 C1236 1.327 . S
C1238 C1257 1.429 . S
C1238 H1262 0.950 . S
C1239 C1256 1.574 . S
C1239 C1258 1.368 . S
C1239 H1263 0.949 . S
H1240 C1244 0.949 1_554 S
C1241 C1242 1.349 . S
C1241 C1243 1.327 . S
C1241 H1264 0.950 . S
C1242 C1241 1.349 . S
C1242 C1254 1.349 . S
C1243 C1241 1.327 . S
C1243 C1259 1.429 . S
C1243 H1265 0.950 . S
C1244 H1240 0.949 1_556 S
C1244 C1252 1.574 . S
C1244 C1260 1.368 1_556 S
H1245 C1253 0.950 . S
H1246 C1251 0.950 . S
H1247 C1252 0.949 . S
H1248 C1254 0.950 . S
H1249 C1255 0.950 . S
H1250 C1256 0.949 1_554 S
C1251 H1246 0.950 . S
C1251 C1253 1.327 . S
C1251 C1257 1.429 . S
C1252 C1244 1.574 . S
C1252 H1247 0.949 . S
C1252 C1258 1.368 . S
C1253 C1237 1.349 . S
C1253 H1245 0.950 . S
C1253 C1251 1.327 . S
C1254 C1242 1.349 . S
C1254 H1248 0.950 . S
C1254 C1255 1.327 . S
C1255 H1249 0.950 . S
C1255 C1254 1.327 . S
C1255 C1259 1.429 . S
C1256 C1239 1.574 . S
C1256 H1250 0.949 1_556 S
C1256 C1260 1.368 1_556 S
C1257 C1238 1.429 . S
C1257 C1251 1.429 . S
C1257 C1258 1.523 . S
C1258 C1239 1.368 . S
C1258 C1252 1.368 . S
C1258 C1257 1.523 . S
C1259 C1243 1.429 . S
C1259 C1255 1.429 . S
C1259 C1260 1.523 . S
C1260 C1244 1.368 1_554 S
C1260 C1256 1.368 1_554 S
C1260 C1259 1.523 . S
H1261 C1236 0.950 . S
H1262 C1238 0.950 . S
H1263 C1239 0.949 . S
H1264 C1241 0.950 . S
H1265 C1243 0.950 . S
C1266 C1267 1.349 . S
C1266 C1268 1.327 1_556 S
C1266 H1291 0.950 . S
C1267 C1266 1.349 . S
C1267 C1283 1.349 . S
C1268 C1266 1.327 1_554 S
C1268 C1287 1.429 . S
C1268 H1292 0.950 . S
C1269 C1286 1.574 . S
C1269 C1288 1.368 . S
C1269 H1293 0.949 . S
H1270 C1274 0.949 . S
C1271 C1272 1.349 . S
C1271 C1273 1.327 . S
C1271 H1294 0.950 . S
C1272 C1271 1.349 . S
C1272 C1284 1.349 . S
C1273 C1271 1.327 . S
C1273 C1289 1.429 . S
C1273 H1295 0.950 . S
C1274 H1270 0.949 . S
C1274 C1282 1.574 . S
C1274 C1290 1.368 . S
H1275 C1283 0.950 . S
H1276 C1281 0.950 . S
H1277 C1282 0.949 . S
H1278 C1284 0.950 . S
H1279 C1285 0.950 . S
H1280 C1286 0.949 . S
C1281 H1276 0.950 . S
C1281 C1283 1.327 1_554 S
C1281 C1287 1.429 . S
C1282 C1274 1.574 . S
C1282 H1277 0.949 . S
C1282 C1288 1.368 . S
C1283 C1267 1.349 . S
C1283 H1275 0.950 . S
C1283 C1281 1.327 1_556 S
C1284 C1272 1.349 . S
C1284 H1278 0.950 . S
C1284 C1285 1.327 . S
C1285 H1279 0.950 . S
C1285 C1284 1.327 . S
C1285 C1289 1.429 . S
C1286 C1269 1.574 . S
C1286 H1280 0.949 . S
C1286 C1290 1.368 . S
C1287 C1268 1.429 . S
C1287 C1281 1.429 . S
C1287 C1288 1.523 . S
C1288 C1269 1.368 . S
C1288 C1282 1.368 . S
C1288 C1287 1.523 . S
C1289 C1273 1.429 . S
C1289 C1285 1.429 . S
C1289 C1290 1.523 . S
C1290 C1274 1.368 . S
C1290 C1286 1.368 . S
C1290 C1289 1.523 . S
H1291 C1266 0.950 . S
H1292 C1268 0.950 . S
H1293 C1269 0.949 . S
H1294 C1271 0.950 . S
H1295 C1273 0.950 . S
C1296 C1297 1.349 . S
C1296 C1298 1.327 . S
C1296 H1321 0.950 . S
C1297 C1296 1.349 . S
C1297 C1313 1.349 . S
C1298 C1296 1.327 . S
C1298 C1317 1.429 . S
C1298 H1322 0.950 . S
C1299 C1316 1.574 . S
C1299 C1318 1.368 . S
C1299 H1323 0.949 . S
H1300 C1304 0.949 . S
C1301 C1302 1.349 . S
C1301 C1303 1.327 . S
C1301 H1324 0.950 . S
C1302 C1301 1.349 . S
C1302 C1314 1.349 . S
C1303 C1301 1.327 . S
C1303 C1319 1.429 . S
C1303 H1325 0.950 . S
C1304 H1300 0.949 . S
C1304 C1312 1.574 . S
C1304 C1320 1.368 . S
H1305 C1313 0.950 . S
H1306 C1311 0.950 . S
H1307 C1312 0.949 . S
H1308 C1314 0.950 . S
H1309 C1315 0.950 . S
H1310 C1316 0.949 . S
C1311 H1306 0.950 . S
C1311 C1313 1.327 . S
C1311 C1317 1.429 . S
C1312 C1304 1.574 . S
C1312 H1307 0.949 . S
C1312 C1318 1.368 . S
C1313 C1297 1.349 . S
C1313 H1305 0.950 . S
C1313 C1311 1.327 . S
C1314 C1302 1.349 . S
C1314 H1308 0.950 . S
C1314 C1315 1.327 . S
C1315 H1309 0.950 . S
C1315 C1314 1.327 . S
C1315 C1319 1.429 . S
C1316 C1299 1.574 . S
C1316 H1310 0.949 . S
C1316 C1320 1.368 . S
C1317 C1298 1.429 . S
C1317 C1311 1.429 . S
C1317 C1318 1.523 . S
C1318 C1299 1.368 . S
C1318 C1312 1.368 . S
C1318 C1317 1.523 . S
C1319 C1303 1.429 . S
C1319 C1315 1.429 . S
C1319 C1320 1.523 . S
C1320 C1304 1.368 . S
C1320 C1316 1.368 . S
C1320 C1319 1.523 . S
H1321 C1296 0.950 . S
H1322 C1298 0.950 . S
H1323 C1299 0.949 . S
H1324 C1301 0.950 . S
H1325 C1303 0.950 . S
C1326 C1327 1.349 . S
C1326 C1328 1.327 1_556 S
C1326 H1351 0.950 . S
C1327 C1326 1.349 . S
C1327 C1343 1.349 . S
C1328 C1326 1.327 1_554 S
C1328 C1347 1.429 . S
C1328 H1352 0.950 . S
C1329 C1346 1.574 . S
C1329 C1348 1.368 . S
C1329 H1353 0.949 . S
H1330 C1334 0.949 . S
C1331 C1332 1.349 . S
C1331 C1333 1.327 . S
C1331 H1354 0.950 . S
C1332 C1331 1.349 . S
C1332 C1344 1.349 . S
C1333 C1331 1.327 . S
C1333 C1349 1.429 . S
C1333 H1355 0.950 . S
C1334 H1330 0.949 . S
C1334 C1342 1.574 . S
C1334 C1350 1.368 . S
H1335 C1343 0.950 . S
H1336 C1341 0.950 . S
H1337 C1342 0.949 . S
H1338 C1344 0.950 . S
H1339 C1345 0.950 . S
H1340 C1346 0.949 . S
C1341 H1336 0.950 . S
C1341 C1343 1.327 1_554 S
C1341 C1347 1.429 . S
C1342 C1334 1.574 . S
C1342 H1337 0.949 . S
C1342 C1348 1.368 . S
C1343 C1327 1.349 . S
C1343 H1335 0.950 . S
C1343 C1341 1.327 1_556 S
C1344 C1332 1.349 . S
C1344 H1338 0.950 . S
C1344 C1345 1.327 . S
C1345 H1339 0.950 . S
C1345 C1344 1.327 . S
C1345 C1349 1.429 . S
C1346 C1329 1.574 . S
C1346 H1340 0.949 . S
C1346 C1350 1.368 . S
C1347 C1328 1.429 . S
C1347 C1341 1.429 . S
C1347 C1348 1.523 . S
C1348 C1329 1.368 . S
C1348 C1342 1.368 . S
C1348 C1347 1.523 . S
C1349 C1333 1.429 . S
C1349 C1345 1.429 . S
C1349 C1350 1.523 . S
C1350 C1334 1.368 . S
C1350 C1346 1.368 . S
C1350 C1349 1.523 . S
H1351 C1326 0.950 . S
H1352 C1328 0.950 . S
H1353 C1329 0.949 . S
H1354 C1331 0.950 . S
H1355 C1333 0.950 . S
C1356 C1357 1.349 . S
C1356 C1358 1.327 . S
C1356 H1381 0.950 . S
C1357 C1356 1.349 . S
C1357 C1373 1.349 . S
C1358 C1356 1.327 . S
C1358 C1377 1.429 . S
C1358 H1382 0.950 . S
C1359 C1376 1.574 . S
C1359 C1378 1.368 . S
C1359 H1383 0.949 . S
H1360 C1364 0.949 1_554 S
C1361 C1362 1.349 . S
C1361 C1363 1.327 . S
C1361 H1384 0.950 . S
C1362 C1361 1.349 . S
C1362 C1374 1.349 . S
C1363 C1361 1.327 . S
C1363 C1379 1.429 . S
C1363 H1385 0.950 . S
C1364 H1360 0.949 1_556 S
C1364 C1372 1.574 . S
C1364 C1380 1.368 1_556 S
H1365 C1373 0.950 . S
H1366 C1371 0.950 . S
H1367 C1372 0.949 . S
H1368 C1374 0.950 . S
H1369 C1375 0.950 . S
H1370 C1376 0.949 1_554 S
C1371 H1366 0.950 . S
C1371 C1373 1.327 . S
C1371 C1377 1.429 . S
C1372 C1364 1.574 . S
C1372 H1367 0.949 . S
C1372 C1378 1.368 . S
C1373 C1357 1.349 . S
C1373 H1365 0.950 . S
C1373 C1371 1.327 . S
C1374 C1362 1.349 . S
C1374 H1368 0.950 . S
C1374 C1375 1.327 . S
C1375 H1369 0.950 . S
C1375 C1374 1.327 . S
C1375 C1379 1.429 . S
C1376 C1359 1.574 . S
C1376 H1370 0.949 1_556 S
C1376 C1380 1.368 1_556 S
C1377 C1358 1.429 . S
C1377 C1371 1.429 . S
C1377 C1378 1.523 . S
C1378 C1359 1.368 . S
C1378 C1372 1.368 . S
C1378 C1377 1.523 . S
C1379 C1363 1.429 . S
C1379 C1375 1.429 . S
C1379 C1380 1.523 . S
C1380 C1364 1.368 1_554 S
C1380 C1376 1.368 1_554 S
C1380 C1379 1.523 . S
H1381 C1356 0.950 . S
H1382 C1358 0.950 . S
H1383 C1359 0.949 . S
H1384 C1361 0.950 . S
H1385 C1363 0.950 . S
C1386 C1387 1.349 . S
C1386 C1388 1.327 . S
C1386 H1411 0.950 . S
C1387 C1386 1.349 . S
C1387 C1403 1.349 . S
C1388 C1386 1.327 . S
C1388 C1407 1.429 . S
C1388 H1412 0.950 . S
C1389 C1406 1.574 . S
C1389 C1408 1.368 . S
C1389 H1413 0.949 . S
H1390 C1394 0.949 . S
C1391 C1392 1.349 . S
C1391 C1393 1.327 . S
C1391 H1414 0.950 . S
C1392 C1391 1.349 . S
C1392 C1404 1.349 . S
C1393 C1391 1.327 . S
C1393 C1409 1.429 . S
C1393 H1415 0.950 . S
C1394 H1390 0.949 . S
C1394 C1402 1.574 . S
C1394 C1410 1.368 . S
H1395 C1403 0.950 . S
H1396 C1401 0.950 . S
H1397 C1402 0.949 . S
H1398 C1404 0.950 . S
H1399 C1405 0.950 . S
H1400 C1406 0.949 . S
C1401 H1396 0.950 . S
C1401 C1403 1.327 . S
C1401 C1407 1.429 . S
C1402 C1394 1.574 . S
C1402 H1397 0.949 . S
C1402 C1408 1.368 . S
C1403 C1387 1.349 . S
C1403 H1395 0.950 . S
C1403 C1401 1.327 . S
C1404 C1392 1.349 . S
C1404 H1398 0.950 . S
C1404 C1405 1.327 . S
C1405 H1399 0.950 . S
C1405 C1404 1.327 . S
C1405 C1409 1.429 . S
C1406 C1389 1.574 . S
C1406 H1400 0.949 . S
C1406 C1410 1.368 . S
C1407 C1388 1.429 . S
C1407 C1401 1.429 . S
C1407 C1408 1.523 . S
C1408 C1389 1.368 . S
C1408 C1402 1.368 . S
C1408 C1407 1.523 . S
C1409 C1393 1.429 . S
C1409 C1405 1.429 . S
C1409 C1410 1.523 . S
C1410 C1394 1.368 . S
C1410 C1406 1.368 . S
C1410 C1409 1.523 . S
H1411 C1386 0.950 . S
H1412 C1388 0.950 . S
H1413 C1389 0.949 . S
H1414 C1391 0.950 . S
H1415 C1393 0.950 . S
C1416 C1417 1.349 . S
C1416 C1418 1.327 . S
C1416 H1441 0.950 . S
C1417 C1416 1.349 . S
C1417 C1433 1.349 . S
C1418 C1416 1.327 . S
C1418 C1437 1.429 . S
C1418 H1442 0.950 . S
C1419 C1436 1.574 . S
C1419 C1438 1.368 . S
C1419 H1443 0.949 . S
H1420 C1424 0.949 . S
C1421 C1422 1.349 . S
C1421 C1423 1.327 . S
C1421 H1444 0.950 . S
C1422 C1421 1.349 . S
C1422 C1434 1.349 . S
C1423 C1421 1.327 . S
C1423 C1439 1.429 . S
C1423 H1445 0.950 . S
C1424 H1420 0.949 . S
C1424 C1432 1.574 . S
C1424 C1440 1.368 . S
H1425 C1433 0.950 . S
H1426 C1431 0.950 . S
H1427 C1432 0.949 . S
H1428 C1434 0.950 . S
H1429 C1435 0.950 . S
H1430 C1436 0.949 . S
C1431 H1426 0.950 . S
C1431 C1433 1.327 . S
C1431 C1437 1.429 . S
C1432 C1424 1.574 . S
C1432 H1427 0.949 . S
C1432 C1438 1.368 . S
C1433 C1417 1.349 . S
C1433 H1425 0.950 . S
C1433 C1431 1.327 . S
C1434 C1422 1.349 . S
C1434 H1428 0.950 . S
C1434 C1435 1.327 . S
C1435 H1429 0.950 . S
C1435 C1434 1.327 . S
C1435 C1439 1.429 . S
C1436 C1419 1.574 . S
C1436 H1430 0.949 . S
C1436 C1440 1.368 . S
C1437 C1418 1.429 . S
C1437 C1431 1.429 . S
C1437 C1438 1.523 . S
C1438 C1419 1.368 . S
C1438 C1432 1.368 . S
C1438 C1437 1.523 . S
C1439 C1423 1.429 . S
C1439 C1435 1.429 . S
C1439 C1440 1.523 . S
C1440 C1424 1.368 . S
C1440 C1436 1.368 . S
C1440 C1439 1.523 . S
H1441 C1416 0.950 . S
H1442 C1418 0.950 . S
H1443 C1419 0.949 . S
H1444 C1421 0.950 . S
H1445 C1423 0.950 . S
C1446 C1447 1.349 . S
C1446 C1448 1.327 . S
C1446 H1471 0.950 . S
C1447 C1446 1.349 . S
C1447 C1463 1.349 . S
C1448 C1446 1.327 . S
C1448 C1467 1.429 . S
C1448 H1472 0.950 . S
C1449 C1466 1.574 . S
C1449 C1468 1.368 . S
C1449 H1473 0.949 . S
H1450 C1454 0.949 . S
C1451 C1452 1.349 . S
C1451 C1453 1.327 . S
C1451 H1474 0.950 . S
C1452 C1451 1.349 . S
C1452 C1464 1.349 . S
C1453 C1451 1.327 . S
C1453 C1469 1.429 . S
C1453 H1475 0.950 . S
C1454 H1450 0.949 . S
C1454 C1462 1.574 . S
C1454 C1470 1.368 . S
H1455 C1463 0.950 . S
H1456 C1461 0.950 . S
H1457 C1462 0.949 . S
H1458 C1464 0.950 . S
H1459 C1465 0.950 . S
H1460 C1466 0.949 . S
C1461 H1456 0.950 . S
C1461 C1463 1.327 . S
C1461 C1467 1.429 . S
C1462 C1454 1.574 . S
C1462 H1457 0.949 . S
C1462 C1468 1.368 . S
C1463 C1447 1.349 . S
C1463 H1455 0.950 . S
C1463 C1461 1.327 . S
C1464 C1452 1.349 . S
C1464 H1458 0.950 . S
C1464 C1465 1.327 . S
C1465 H1459 0.950 . S
C1465 C1464 1.327 . S
C1465 C1469 1.429 . S
C1466 C1449 1.574 . S
C1466 H1460 0.949 . S
C1466 C1470 1.368 . S
C1467 C1448 1.429 . S
C1467 C1461 1.429 . S
C1467 C1468 1.523 . S
C1468 C1449 1.368 . S
C1468 C1462 1.368 . S
C1468 C1467 1.523 . S
C1469 C1453 1.429 . S
C1469 C1465 1.429 . S
C1469 C1470 1.523 . S
C1470 C1454 1.368 . S
C1470 C1466 1.368 . S
C1470 C1469 1.523 . S
H1471 C1446 0.950 . S
H1472 C1448 0.950 . S
H1473 C1449 0.949 . S
H1474 C1451 0.950 . S
H1475 C1453 0.950 . S
C1476 C1477 1.349 . S
C1476 C1478 1.327 . S
C1476 H1501 0.950 . S
C1477 C1476 1.349 . S
C1477 C1493 1.349 . S
C1478 C1476 1.327 . S
C1478 C1497 1.429 . S
C1478 H1502 0.950 . S
C1479 C1496 1.574 . S
C1479 C1498 1.368 1_554 S
C1479 H1503 0.949 1_554 S
H1480 C1484 0.949 . S
C1481 C1482 1.349 . S
C1481 C1483 1.327 . S
C1481 H1504 0.950 . S
C1482 C1481 1.349 . S
C1482 C1494 1.349 . S
C1483 C1481 1.327 . S
C1483 C1499 1.429 . S
C1483 H1505 0.950 . S
C1484 H1480 0.949 . S
C1484 C1492 1.574 . S
C1484 C1500 1.368 . S
H1485 C1493 0.950 . S
H1486 C1491 0.950 . S
H1487 C1492 0.949 1_556 S
H1488 C1494 0.950 . S
H1489 C1495 0.950 . S
H1490 C1496 0.949 . S
C1491 H1486 0.950 . S
C1491 C1493 1.327 . S
C1491 C1497 1.429 . S
C1492 C1484 1.574 . S
C1492 H1487 0.949 1_554 S
C1492 C1498 1.368 1_554 S
C1493 C1477 1.349 . S
C1493 H1485 0.950 . S
C1493 C1491 1.327 . S
C1494 C1482 1.349 . S
C1494 H1488 0.950 . S
C1494 C1495 1.327 . S
C1495 H1489 0.950 . S
C1495 C1494 1.327 . S
C1495 C1499 1.429 . S
C1496 C1479 1.574 . S
C1496 H1490 0.949 . S
C1496 C1500 1.368 . S
C1497 C1478 1.429 . S
C1497 C1491 1.429 . S
C1497 C1498 1.523 . S
C1498 C1479 1.368 1_556 S
C1498 C1492 1.368 1_556 S
C1498 C1497 1.523 . S
C1499 C1483 1.429 . S
C1499 C1495 1.429 . S
C1499 C1500 1.523 . S
C1500 C1484 1.368 . S
C1500 C1496 1.368 . S
C1500 C1499 1.523 . S
H1501 C1476 0.950 . S
H1502 C1478 0.950 . S
H1503 C1479 0.949 1_556 S
H1504 C1481 0.950 . S
H1505 C1483 0.950 . S
C1506 C1507 1.349 . S
C1506 C1508 1.327 1_554 S
C1506 H1531 0.950 . S
C1507 C1506 1.349 . S
C1507 C1523 1.349 . S
C1508 C1506 1.327 1_556 S
C1508 C1527 1.429 . S
C1508 H1532 0.950 . S
C1509 C1526 1.574 . S
C1509 C1528 1.368 . S
C1509 H1533 0.949 . S
H1510 C1514 0.949 . S
C1511 C1512 1.349 . S
C1511 C1513 1.327 . S
C1511 H1534 0.950 . S
C1512 C1511 1.349 . S
C1512 C1524 1.349 . S
C1513 C1511 1.327 . S
C1513 C1529 1.429 . S
C1513 H1535 0.950 . S
C1514 H1510 0.949 . S
C1514 C1522 1.574 . S
C1514 C1530 1.368 . S
H1515 C1523 0.950 . S
H1516 C1521 0.950 . S
H1517 C1522 0.949 . S
H1518 C1524 0.950 . S
H1519 C1525 0.950 . S
H1520 C1526 0.949 . S
C1521 H1516 0.950 . S
C1521 C1523 1.327 1_556 S
C1521 C1527 1.429 . S
C1522 C1514 1.574 . S
C1522 H1517 0.949 . S
C1522 C1528 1.368 . S
C1523 C1507 1.349 . S
C1523 H1515 0.950 . S
C1523 C1521 1.327 1_554 S
C1524 C1512 1.349 . S
C1524 H1518 0.950 . S
C1524 C1525 1.327 . S
C1525 H1519 0.950 . S
C1525 C1524 1.327 . S
C1525 C1529 1.429 . S
C1526 C1509 1.574 . S
C1526 H1520 0.949 . S
C1526 C1530 1.368 . S
C1527 C1508 1.429 . S
C1527 C1521 1.429 . S
C1527 C1528 1.523 . S
C1528 C1509 1.368 . S
C1528 C1522 1.368 . S
C1528 C1527 1.523 . S
C1529 C1513 1.429 . S
C1529 C1525 1.429 . S
C1529 C1530 1.523 . S
C1530 C1514 1.368 . S
C1530 C1526 1.368 . S
C1530 C1529 1.523 . S
H1531 C1506 0.950 . S
H1532 C1508 0.950 . S
H1533 C1509 0.949 . S
H1534 C1511 0.950 . S
H1535 C1513 0.950 . S
C1536 C1537 1.349 . S
C1536 C1538 1.327 . S
C1536 H1561 0.950 . S
C1537 C1536 1.349 . S
C1537 C1553 1.349 . S
C1538 C1536 1.327 . S
C1538 C1557 1.429 . S
C1538 H1562 0.950 . S
C1539 C1556 1.574 . S
C1539 C1558 1.368 1_554 S
C1539 H1563 0.949 1_554 S
H1540 C1544 0.949 . S
C1541 C1542 1.349 . S
C1541 C1543 1.327 . S
C1541 H1564 0.950 . S
C1542 C1541 1.349 . S
C1542 C1554 1.349 . S
C1543 C1541 1.327 . S
C1543 C1559 1.429 . S
C1543 H1565 0.950 . S
C1544 H1540 0.949 . S
C1544 C1552 1.574 . S
C1544 C1560 1.368 . S
H1545 C1553 0.950 . S
H1546 C1551 0.950 . S
H1547 C1552 0.949 1_556 S
H1548 C1554 0.950 . S
H1549 C1555 0.950 . S
H1550 C1556 0.949 . S
C1551 H1546 0.950 . S
C1551 C1553 1.327 . S
C1551 C1557 1.429 . S
C1552 C1544 1.574 . S
C1552 H1547 0.949 1_554 S
C1552 C1558 1.368 1_554 S
C1553 C1537 1.349 . S
C1553 H1545 0.950 . S
C1553 C1551 1.327 . S
C1554 C1542 1.349 . S
C1554 H1548 0.950 . S
C1554 C1555 1.327 . S
C1555 H1549 0.950 . S
C1555 C1554 1.327 . S
C1555 C1559 1.429 . S
C1556 C1539 1.574 . S
C1556 H1550 0.949 . S
C1556 C1560 1.368 . S
C1557 C1538 1.429 . S
C1557 C1551 1.429 . S
C1557 C1558 1.523 . S
C1558 C1539 1.368 1_556 S
C1558 C1552 1.368 1_556 S
C1558 C1557 1.523 . S
C1559 C1543 1.429 . S
C1559 C1555 1.429 . S
C1559 C1560 1.523 . S
C1560 C1544 1.368 . S
C1560 C1556 1.368 . S
C1560 C1559 1.523 . S
H1561 C1536 0.950 . S
H1562 C1538 0.950 . S
H1563 C1539 0.949 1_556 S
H1564 C1541 0.950 . S
H1565 C1543 0.950 . S
C1566 C1567 1.349 . S
C1566 C1568 1.327 . S
C1566 H1591 0.950 . S
C1567 C1566 1.349 . S
C1567 C1583 1.349 . S
C1568 C1566 1.327 . S
C1568 C1587 1.429 . S
C1568 H1592 0.950 . S
C1569 C1586 1.574 . S
C1569 C1588 1.368 . S
C1569 H1593 0.949 . S
H1570 C1574 0.949 . S
C1571 C1572 1.349 . S
C1571 C1573 1.327 . S
C1571 H1594 0.950 . S
C1572 C1571 1.349 . S
C1572 C1584 1.349 . S
C1573 C1571 1.327 . S
C1573 C1589 1.429 . S
C1573 H1595 0.950 . S
C1574 H1570 0.949 . S
C1574 C1582 1.574 . S
C1574 C1590 1.368 . S
H1575 C1583 0.950 . S
H1576 C1581 0.950 . S
H1577 C1582 0.949 . S
H1578 C1584 0.950 . S
H1579 C1585 0.950 . S
H1580 C1586 0.949 . S
C1581 H1576 0.950 . S
C1581 C1583 1.327 . S
C1581 C1587 1.429 . S
C1582 C1574 1.574 . S
C1582 H1577 0.949 . S
C1582 C1588 1.368 . S
C1583 C1567 1.349 . S
C1583 H1575 0.950 . S
C1583 C1581 1.327 . S
C1584 C1572 1.349 . S
C1584 H1578 0.950 . S
C1584 C1585 1.327 . S
C1585 H1579 0.950 . S
C1585 C1584 1.327 . S
C1585 C1589 1.429 . S
C1586 C1569 1.574 . S
C1586 H1580 0.949 . S
C1586 C1590 1.368 . S
C1587 C1568 1.429 . S
C1587 C1581 1.429 . S
C1587 C1588 1.523 . S
C1588 C1569 1.368 . S
C1588 C1582 1.368 . S
C1588 C1587 1.523 . S
C1589 C1573 1.429 . S
C1589 C1585 1.429 . S
C1589 C1590 1.523 . S
C1590 C1574 1.368 . S
C1590 C1586 1.368 . S
C1590 C1589 1.523 . S
H1591 C1566 0.950 . S
H1592 C1568 0.950 . S
H1593 C1569 0.949 . S
H1594 C1571 0.950 . S
H1595 C1573 0.950 . S
C1596 C1597 1.349 . S
C1596 C1598 1.327 . S
C1596 H1621 0.950 . S
C1597 C1596 1.349 . S
C1597 C1613 1.349 . S
C1598 C1596 1.327 . S
C1598 C1617 1.429 . S
C1598 H1622 0.950 . S
C1599 C1616 1.574 . S
C1599 C1618 1.368 . S
C1599 H1623 0.949 . S
H1600 C1604 0.949 . S
C1601 C1602 1.349 . S
C1601 C1603 1.327 . S
C1601 H1624 0.950 . S
C1602 C1601 1.349 . S
C1602 C1614 1.349 . S
C1603 C1601 1.327 . S
C1603 C1619 1.429 . S
C1603 H1625 0.950 . S
C1604 H1600 0.949 . S
C1604 C1612 1.574 . S
C1604 C1620 1.368 . S
H1605 C1613 0.950 . S
H1606 C1611 0.950 . S
H1607 C1612 0.949 . S
H1608 C1614 0.950 . S
H1609 C1615 0.950 . S
H1610 C1616 0.949 . S
C1611 H1606 0.950 . S
C1611 C1613 1.327 . S
C1611 C1617 1.429 . S
C1612 C1604 1.574 . S
C1612 H1607 0.949 . S
C1612 C1618 1.368 . S
C1613 C1597 1.349 . S
C1613 H1605 0.950 . S
C1613 C1611 1.327 . S
C1614 C1602 1.349 . S
C1614 H1608 0.950 . S
C1614 C1615 1.327 . S
C1615 H1609 0.950 . S
C1615 C1614 1.327 . S
C1615 C1619 1.429 . S
C1616 C1599 1.574 . S
C1616 H1610 0.949 . S
C1616 C1620 1.368 . S
C1617 C1598 1.429 . S
C1617 C1611 1.429 . S
C1617 C1618 1.523 . S
C1618 C1599 1.368 . S
C1618 C1612 1.368 . S
C1618 C1617 1.523 . S
C1619 C1603 1.429 . S
C1619 C1615 1.429 . S
C1619 C1620 1.523 . S
C1620 C1604 1.368 . S
C1620 C1616 1.368 . S
C1620 C1619 1.523 . S
H1621 C1596 0.950 . S
H1622 C1598 0.950 . S
H1623 C1599 0.949 . S
H1624 C1601 0.950 . S
H1625 C1603 0.950 . S
C1626 C1627 1.349 . S
C1626 C1628 1.327 . S
C1626 H1651 0.950 . S
C1627 C1626 1.349 . S
C1627 C1643 1.349 . S
C1628 C1626 1.327 . S
C1628 C1647 1.429 . S
C1628 H1652 0.950 . S
C1629 C1646 1.574 . S
C1629 C1648 1.368 . S
C1629 H1653 0.949 . S
H1630 C1634 0.949 . S
C1631 C1632 1.349 . S
C1631 C1633 1.327 1_554 S
C1631 H1654 0.950 . S
C1632 C1631 1.349 . S
C1632 C1644 1.349 . S
C1633 C1631 1.327 1_556 S
C1633 C1649 1.429 . S
C1633 H1655 0.950 . S
C1634 H1630 0.949 . S
C1634 C1642 1.574 . S
C1634 C1650 1.368 . S
H1635 C1643 0.950 . S
H1636 C1641 0.950 . S
H1637 C1642 0.949 . S
H1638 C1644 0.950 . S
H1639 C1645 0.950 . S
H1640 C1646 0.949 . S
C1641 H1636 0.950 . S
C1641 C1643 1.327 . S
C1641 C1647 1.429 . S
C1642 C1634 1.574 . S
C1642 H1637 0.949 . S
C1642 C1648 1.368 . S
C1643 C1627 1.349 . S
C1643 H1635 0.950 . S
C1643 C1641 1.327 . S
C1644 C1632 1.349 . S
C1644 H1638 0.950 . S
C1644 C1645 1.327 1_554 S
C1645 H1639 0.950 . S
C1645 C1644 1.327 1_556 S
C1645 C1649 1.429 . S
C1646 C1629 1.574 . S
C1646 H1640 0.949 . S
C1646 C1650 1.368 . S
C1647 C1628 1.429 . S
C1647 C1641 1.429 . S
C1647 C1648 1.523 . S
C1648 C1629 1.368 . S
C1648 C1642 1.368 . S
C1648 C1647 1.523 . S
C1649 C1633 1.429 . S
C1649 C1645 1.429 . S
C1649 C1650 1.523 . S
C1650 C1634 1.368 . S
C1650 C1646 1.368 . S
C1650 C1649 1.523 . S
H1651 C1626 0.950 . S
H1652 C1628 0.950 . S
H1653 C1629 0.949 . S
H1654 C1631 0.950 . S
H1655 C1633 0.950 . S
C1656 C1657 1.349 . S
C1656 C1658 1.327 . S
C1656 H1681 0.950 . S
C1657 C1656 1.349 . S
C1657 C1673 1.349 . S
C1658 C1656 1.327 . S
C1658 C1677 1.429 . S
C1658 H1682 0.950 . S
C1659 C1676 1.574 . S
C1659 C1678 1.368 1_556 S
C1659 H1683 0.949 1_556 S
H1660 C1664 0.949 . S
C1661 C1662 1.349 . S
C1661 C1663 1.327 . S
C1661 H1684 0.950 . S
C1662 C1661 1.349 . S
C1662 C1674 1.349 . S
C1663 C1661 1.327 . S
C1663 C1679 1.429 . S
C1663 H1685 0.950 . S
C1664 H1660 0.949 . S
C1664 C1672 1.574 . S
C1664 C1680 1.368 . S
H1665 C1673 0.950 . S
H1666 C1671 0.950 . S
H1667 C1672 0.949 1_554 S
H1668 C1674 0.950 . S
H1669 C1675 0.950 . S
H1670 C1676 0.949 . S
C1671 H1666 0.950 . S
C1671 C1673 1.327 . S
C1671 C1677 1.429 . S
C1672 C1664 1.574 . S
C1672 H1667 0.949 1_556 S
C1672 C1678 1.368 1_556 S
C1673 C1657 1.349 . S
C1673 H1665 0.950 . S
C1673 C1671 1.327 . S
C1674 C1662 1.349 . S
C1674 H1668 0.950 . S
C1674 C1675 1.327 . S
C1675 H1669 0.950 . S
C1675 C1674 1.327 . S
C1675 C1679 1.429 . S
C1676 C1659 1.574 . S
C1676 H1670 0.949 . S
C1676 C1680 1.368 . S
C1677 C1658 1.429 . S
C1677 C1671 1.429 . S
C1677 C1678 1.523 . S
C1678 C1659 1.368 1_554 S
C1678 C1672 1.368 1_554 S
C1678 C1677 1.523 . S
C1679 C1663 1.429 . S
C1679 C1675 1.429 . S
C1679 C1680 1.523 . S
C1680 C1664 1.368 . S
C1680 C1676 1.368 . S
C1680 C1679 1.523 . S
H1681 C1656 0.950 . S
H1682 C1658 0.950 . S
H1683 C1659 0.949 1_554 S
H1684 C1661 0.950 . S
H1685 C1663 0.950 . S
C1686 C1687 1.349 . S
C1686 C1688 1.327 . S
C1686 H1711 0.950 . S
C1687 C1686 1.349 . S
C1687 C1703 1.349 . S
C1688 C1686 1.327 . S
C1688 C1707 1.429 . S
C1688 H1712 0.950 . S
C1689 C1706 1.574 . S
C1689 C1708 1.368 . S
C1689 H1713 0.949 . S
H1690 C1694 0.949 . S
C1691 C1692 1.349 . S
C1691 C1693 1.327 1_556 S
C1691 H1714 0.950 . S
C1692 C1691 1.349 . S
C1692 C1704 1.349 . S
C1693 C1691 1.327 1_554 S
C1693 C1709 1.429 . S
C1693 H1715 0.950 . S
C1694 H1690 0.949 . S
C1694 C1702 1.574 . S
C1694 C1710 1.368 . S
H1695 C1703 0.950 . S
H1696 C1701 0.950 . S
H1697 C1702 0.949 . S
H1698 C1704 0.950 . S
H1699 C1705 0.950 . S
H1700 C1706 0.949 . S
C1701 H1696 0.950 . S
C1701 C1703 1.327 . S
C1701 C1707 1.429 . S
C1702 C1694 1.574 . S
C1702 H1697 0.949 . S
C1702 C1708 1.368 . S
C1703 C1687 1.349 . S
C1703 H1695 0.950 . S
C1703 C1701 1.327 . S
C1704 C1692 1.349 . S
C1704 H1698 0.950 . S
C1704 C1705 1.327 1_556 S
C1705 H1699 0.950 . S
C1705 C1704 1.327 1_554 S
C1705 C1709 1.429 . S
C1706 C1689 1.574 . S
C1706 H1700 0.949 . S
C1706 C1710 1.368 . S
C1707 C1688 1.429 . S
C1707 C1701 1.429 . S
C1707 C1708 1.523 . S
C1708 C1689 1.368 . S
C1708 C1702 1.368 . S
C1708 C1707 1.523 . S
C1709 C1693 1.429 . S
C1709 C1705 1.429 . S
C1709 C1710 1.523 . S
C1710 C1694 1.368 . S
C1710 C1706 1.368 . S
C1710 C1709 1.523 . S
H1711 C1686 0.950 . S
H1712 C1688 0.950 . S
H1713 C1689 0.949 . S
H1714 C1691 0.950 . S
H1715 C1693 0.950 . S
C1716 C1717 1.349 . S
C1716 C1718 1.327 . S
C1716 H1741 0.950 . S
C1717 C1716 1.349 . S
C1717 C1733 1.349 . S
C1718 C1716 1.327 . S
C1718 C1737 1.429 . S
C1718 H1742 0.950 . S
C1719 C1736 1.574 . S
C1719 C1738 1.368 . S
C1719 H1743 0.949 . S
H1720 C1724 0.949 . S
C1721 C1722 1.349 . S
C1721 C1723 1.327 . S
C1721 H1744 0.950 . S
C1722 C1721 1.349 . S
C1722 C1734 1.349 . S
C1723 C1721 1.327 . S
C1723 C1739 1.429 . S
C1723 H1745 0.950 . S
C1724 H1720 0.949 . S
C1724 C1732 1.574 . S
C1724 C1740 1.368 . S
H1725 C1733 0.950 . S
H1726 C1731 0.950 . S
H1727 C1732 0.949 . S
H1728 C1734 0.950 . S
H1729 C1735 0.950 . S
H1730 C1736 0.949 . S
C1731 H1726 0.950 . S
C1731 C1733 1.327 . S
C1731 C1737 1.429 . S
C1732 C1724 1.574 . S
C1732 H1727 0.949 . S
C1732 C1738 1.368 . S
C1733 C1717 1.349 . S
C1733 H1725 0.950 . S
C1733 C1731 1.327 . S
C1734 C1722 1.349 . S
C1734 H1728 0.950 . S
C1734 C1735 1.327 . S
C1735 H1729 0.950 . S
C1735 C1734 1.327 . S
C1735 C1739 1.429 . S
C1736 C1719 1.574 . S
C1736 H1730 0.949 . S
C1736 C1740 1.368 . S
C1737 C1718 1.429 . S
C1737 C1731 1.429 . S
C1737 C1738 1.523 . S
C1738 C1719 1.368 . S
C1738 C1732 1.368 . S
C1738 C1737 1.523 . S
C1739 C1723 1.429 . S
C1739 C1735 1.429 . S
C1739 C1740 1.523 . S
C1740 C1724 1.368 . S
C1740 C1736 1.368 . S
C1740 C1739 1.523 . S
H1741 C1716 0.950 . S
H1742 C1718 0.950 . S
H1743 C1719 0.949 . S
H1744 C1721 0.950 . S
H1745 C1723 0.950 . S
C1746 C1747 1.349 . S
C1746 C1748 1.327 . S
C1746 H1771 0.950 . S
C1747 C1746 1.349 . S
C1747 C1763 1.349 . S
C1748 C1746 1.327 . S
C1748 C1767 1.429 . S
C1748 H1772 0.950 . S
C1749 C1766 1.574 . S
C1749 C1768 1.368 . S
C1749 H1773 0.949 . S
H1750 C1754 0.949 . S
C1751 C1752 1.349 . S
C1751 C1753 1.327 . S
C1751 H1774 0.950 . S
C1752 C1751 1.349 . S
C1752 C1764 1.349 . S
C1753 C1751 1.327 . S
C1753 C1769 1.429 . S
C1753 H1775 0.950 . S
C1754 H1750 0.949 . S
C1754 C1762 1.574 . S
C1754 C1770 1.368 . S
H1755 C1763 0.950 . S
H1756 C1761 0.950 . S
H1757 C1762 0.949 . S
H1758 C1764 0.950 . S
H1759 C1765 0.950 . S
H1760 C1766 0.949 . S
C1761 H1756 0.950 . S
C1761 C1763 1.327 . S
C1761 C1767 1.429 . S
C1762 C1754 1.574 . S
C1762 H1757 0.949 . S
C1762 C1768 1.368 . S
C1763 C1747 1.349 . S
C1763 H1755 0.950 . S
C1763 C1761 1.327 . S
C1764 C1752 1.349 . S
C1764 H1758 0.950 . S
C1764 C1765 1.327 . S
C1765 H1759 0.950 . S
C1765 C1764 1.327 . S
C1765 C1769 1.429 . S
C1766 C1749 1.574 . S
C1766 H1760 0.949 . S
C1766 C1770 1.368 . S
C1767 C1748 1.429 . S
C1767 C1761 1.429 . S
C1767 C1768 1.523 . S
C1768 C1749 1.368 . S
C1768 C1762 1.368 . S
C1768 C1767 1.523 . S
C1769 C1753 1.429 . S
C1769 C1765 1.429 . S
C1769 C1770 1.523 . S
C1770 C1754 1.368 . S
C1770 C1766 1.368 . S
C1770 C1769 1.523 . S
H1771 C1746 0.950 . S
H1772 C1748 0.950 . S
H1773 C1749 0.949 . S
H1774 C1751 0.950 . S
H1775 C1753 0.950 . S
C1776 C1777 1.349 . S
C1776 C1778 1.327 . S
C1776 H1801 0.950 . S
C1777 C1776 1.349 . S
C1777 C1793 1.349 . S
C1778 C1776 1.327 . S
C1778 C1797 1.429 . S
C1778 H1802 0.950 . S
C1779 C1796 1.574 . S
C1779 C1798 1.368 1_556 S
C1779 H1803 0.949 1_556 S
H1780 C1784 0.949 . S
C1781 C1782 1.349 . S
C1781 C1783 1.327 . S
C1781 H1804 0.950 . S
C1782 C1781 1.349 . S
C1782 C1794 1.349 . S
C1783 C1781 1.327 . S
C1783 C1799 1.429 . S
C1783 H1805 0.950 . S
C1784 H1780 0.949 . S
C1784 C1792 1.574 . S
C1784 C1800 1.368 . S
H1785 C1793 0.950 . S
H1786 C1791 0.950 . S
H1787 C1792 0.949 1_554 S
H1788 C1794 0.950 . S
H1789 C1795 0.950 . S
H1790 C1796 0.949 . S
C1791 H1786 0.950 . S
C1791 C1793 1.327 . S
C1791 C1797 1.429 . S
C1792 C1784 1.574 . S
C1792 H1787 0.949 1_556 S
C1792 C1798 1.368 1_556 S
C1793 C1777 1.349 . S
C1793 H1785 0.950 . S
C1793 C1791 1.327 . S
C1794 C1782 1.349 . S
C1794 H1788 0.950 . S
C1794 C1795 1.327 . S
C1795 H1789 0.950 . S
C1795 C1794 1.327 . S
C1795 C1799 1.429 . S
C1796 C1779 1.574 . S
C1796 H1790 0.949 . S
C1796 C1800 1.368 . S
C1797 C1778 1.429 . S
C1797 C1791 1.429 . S
C1797 C1798 1.523 . S
C1798 C1779 1.368 1_554 S
C1798 C1792 1.368 1_554 S
C1798 C1797 1.523 . S
C1799 C1783 1.429 . S
C1799 C1795 1.429 . S
C1799 C1800 1.523 . S
C1800 C1784 1.368 . S
C1800 C1796 1.368 . S
C1800 C1799 1.523 . S
H1801 C1776 0.950 . S
H1802 C1778 0.950 . S
H1803 C1779 0.949 1_554 S
H1804 C1781 0.950 . S
H1805 C1783 0.950 . S
C1806 C1807 1.349 . S
C1806 C1808 1.327 . S
C1806 H1831 0.950 . S
C1807 C1806 1.349 . S
C1807 C1823 1.349 . S
C1808 C1806 1.327 . S
C1808 C1827 1.429 . S
C1808 H1832 0.950 . S
C1809 C1826 1.574 . S
C1809 C1828 1.368 . S
C1809 H1833 0.949 . S
H1810 C1814 0.949 . S
C1811 C1812 1.349 . S
C1811 C1813 1.327 . S
C1811 H1834 0.950 . S
C1812 C1811 1.349 . S
C1812 C1824 1.349 . S
C1813 C1811 1.327 . S
C1813 C1829 1.429 . S
C1813 H1835 0.950 . S
C1814 H1810 0.949 . S
C1814 C1822 1.574 . S
C1814 C1830 1.368 . S
H1815 C1823 0.950 . S
H1816 C1821 0.950 . S
H1817 C1822 0.949 . S
H1818 C1824 0.950 . S
H1819 C1825 0.950 . S
H1820 C1826 0.949 . S
C1821 H1816 0.950 . S
C1821 C1823 1.327 . S
C1821 C1827 1.429 . S
C1822 C1814 1.574 . S
C1822 H1817 0.949 . S
C1822 C1828 1.368 . S
C1823 C1807 1.349 . S
C1823 H1815 0.950 . S
C1823 C1821 1.327 . S
C1824 C1812 1.349 . S
C1824 H1818 0.950 . S
C1824 C1825 1.327 . S
C1825 H1819 0.950 . S
C1825 C1824 1.327 . S
C1825 C1829 1.429 . S
C1826 C1809 1.574 . S
C1826 H1820 0.949 . S
C1826 C1830 1.368 . S
C1827 C1808 1.429 . S
C1827 C1821 1.429 . S
C1827 C1828 1.523 . S
C1828 C1809 1.368 . S
C1828 C1822 1.368 . S
C1828 C1827 1.523 . S
C1829 C1813 1.429 . S
C1829 C1825 1.429 . S
C1829 C1830 1.523 . S
C1830 C1814 1.368 . S
C1830 C1826 1.368 . S
C1830 C1829 1.523 . S
H1831 C1806 0.950 . S
H1832 C1808 0.950 . S
H1833 C1809 0.949 . S
H1834 C1811 0.950 . S
H1835 C1813 0.950 . S
C1836 C1837 1.349 . S
C1836 C1838 1.327 . S
C1836 H1861 0.950 . S
C1837 C1836 1.349 . S
C1837 C1853 1.349 . S
C1838 C1836 1.327 . S
C1838 C1857 1.429 . S
C1838 H1862 0.950 . S
C1839 C1856 1.574 . S
C1839 C1858 1.368 . S
C1839 H1863 0.949 . S
H1840 C1844 0.949 . S
C1841 C1842 1.349 . S
C1841 C1843 1.327 . S
C1841 H1864 0.950 . S
C1842 C1841 1.349 . S
C1842 C1854 1.349 . S
C1843 C1841 1.327 . S
C1843 C1859 1.429 . S
C1843 H1865 0.950 . S
C1844 H1840 0.949 . S
C1844 C1852 1.574 . S
C1844 C1860 1.368 . S
H1845 C1853 0.950 . S
H1846 C1851 0.950 . S
H1847 C1852 0.949 . S
H1848 C1854 0.950 . S
H1849 C1855 0.950 . S
H1850 C1856 0.949 . S
C1851 H1846 0.950 . S
C1851 C1853 1.327 . S
C1851 C1857 1.429 . S
C1852 C1844 1.574 . S
C1852 H1847 0.949 . S
C1852 C1858 1.368 . S
C1853 C1837 1.349 . S
C1853 H1845 0.950 . S
C1853 C1851 1.327 . S
C1854 C1842 1.349 . S
C1854 H1848 0.950 . S
C1854 C1855 1.327 . S
C1855 H1849 0.950 . S
C1855 C1854 1.327 . S
C1855 C1859 1.429 . S
C1856 C1839 1.574 . S
C1856 H1850 0.949 . S
C1856 C1860 1.368 . S
C1857 C1838 1.429 . S
C1857 C1851 1.429 . S
C1857 C1858 1.523 . S
C1858 C1839 1.368 . S
C1858 C1852 1.368 . S
C1858 C1857 1.523 . S
C1859 C1843 1.429 . S
C1859 C1855 1.429 . S
C1859 C1860 1.523 . S
C1860 C1844 1.368 . S
C1860 C1856 1.368 . S
C1860 C1859 1.523 . S
H1861 C1836 0.950 . S
H1862 C1838 0.950 . S
H1863 C1839 0.949 . S
H1864 C1841 0.950 . S
H1865 C1843 0.950 . S
C1866 C1867 1.349 . S
C1866 C1868 1.327 1_556 S
C1866 H1891 0.950 . S
C1867 C1866 1.349 . S
C1867 C1883 1.349 . S
C1868 C1866 1.327 1_554 S
C1868 C1887 1.429 . S
C1868 H1892 0.950 . S
C1869 C1886 1.574 . S
C1869 C1888 1.368 . S
C1869 H1893 0.949 . S
H1870 C1874 0.949 . S
C1871 C1872 1.349 . S
C1871 C1873 1.327 . S
C1871 H1894 0.950 . S
C1872 C1871 1.349 . S
C1872 C1884 1.349 . S
C1873 C1871 1.327 . S
C1873 C1889 1.429 . S
C1873 H1895 0.950 . S
C1874 H1870 0.949 . S
C1874 C1882 1.574 . S
C1874 C1890 1.368 . S
H1875 C1883 0.950 . S
H1876 C1881 0.950 . S
H1877 C1882 0.949 . S
H1878 C1884 0.950 . S
H1879 C1885 0.950 . S
H1880 C1886 0.949 . S
C1881 H1876 0.950 . S
C1881 C1883 1.327 1_554 S
C1881 C1887 1.429 . S
C1882 C1874 1.574 . S
C1882 H1877 0.949 . S
C1882 C1888 1.368 . S
C1883 C1867 1.349 . S
C1883 H1875 0.950 . S
C1883 C1881 1.327 1_556 S
C1884 C1872 1.349 . S
C1884 H1878 0.950 . S
C1884 C1885 1.327 . S
C1885 H1879 0.950 . S
C1885 C1884 1.327 . S
C1885 C1889 1.429 . S
C1886 C1869 1.574 . S
C1886 H1880 0.949 . S
C1886 C1890 1.368 . S
C1887 C1868 1.429 . S
C1887 C1881 1.429 . S
C1887 C1888 1.523 . S
C1888 C1869 1.368 . S
C1888 C1882 1.368 . S
C1888 C1887 1.523 . S
C1889 C1873 1.429 . S
C1889 C1885 1.429 . S
C1889 C1890 1.523 . S
C1890 C1874 1.368 . S
C1890 C1886 1.368 . S
C1890 C1889 1.523 . S
H1891 C1866 0.950 . S
H1892 C1868 0.950 . S
H1893 C1869 0.949 . S
H1894 C1871 0.950 . S
H1895 C1873 0.950 . S
C1896 C1897 1.349 . S
C1896 C1898 1.327 . S
C1896 H1921 0.950 . S
C1897 C1896 1.349 . S
C1897 C1913 1.349 . S
C1898 C1896 1.327 . S
C1898 C1917 1.429 . S
C1898 H1922 0.950 . S
C1899 C1916 1.574 . S
C1899 C1918 1.368 . S
C1899 H1923 0.949 . S
H1900 C1904 0.949 1_556 S
C1901 C1902 1.349 . S
C1901 C1903 1.327 . S
C1901 H1924 0.950 . S
C1902 C1901 1.349 . S
C1902 C1914 1.349 . S
C1903 C1901 1.327 . S
C1903 C1919 1.429 . S
C1903 H1925 0.950 . S
C1904 H1900 0.949 1_554 S
C1904 C1912 1.574 . S
C1904 C1920 1.368 1_554 S
H1905 C1913 0.950 . S
H1906 C1911 0.950 . S
H1907 C1912 0.949 . S
H1908 C1914 0.950 . S
H1909 C1915 0.950 . S
H1910 C1916 0.949 1_556 S
C1911 H1906 0.950 . S
C1911 C1913 1.327 . S
C1911 C1917 1.429 . S
C1912 C1904 1.574 . S
C1912 H1907 0.949 . S
C1912 C1918 1.368 . S
C1913 C1897 1.349 . S
C1913 H1905 0.950 . S
C1913 C1911 1.327 . S
C1914 C1902 1.349 . S
C1914 H1908 0.950 . S
C1914 C1915 1.327 . S
C1915 H1909 0.950 . S
C1915 C1914 1.327 . S
C1915 C1919 1.429 . S
C1916 C1899 1.574 . S
C1916 H1910 0.949 1_554 S
C1916 C1920 1.368 1_554 S
C1917 C1898 1.429 . S
C1917 C1911 1.429 . S
C1917 C1918 1.523 . S
C1918 C1899 1.368 . S
C1918 C1912 1.368 . S
C1918 C1917 1.523 . S
C1919 C1903 1.429 . S
C1919 C1915 1.429 . S
C1919 C1920 1.523 . S
C1920 C1904 1.368 1_556 S
C1920 C1916 1.368 1_556 S
C1920 C1919 1.523 . S
H1921 C1896 0.950 . S
H1922 C1898 0.950 . S
H1923 C1899 0.949 . S
H1924 C1901 0.950 . S
H1925 C1903 0.950 . S
C1926 C1927 1.349 . S
C1926 C1928 1.327 1_554 S
C1926 H1951 0.950 . S
C1927 C1926 1.349 . S
C1927 C1943 1.349 . S
C1928 C1926 1.327 1_556 S
C1928 C1947 1.429 . S
C1928 H1952 0.950 . S
C1929 C1946 1.574 . S
C1929 C1948 1.368 . S
C1929 H1953 0.949 . S
H1930 C1934 0.949 . S
C1931 C1932 1.349 . S
C1931 C1933 1.327 . S
C1931 H1954 0.950 . S
C1932 C1931 1.349 . S
C1932 C1944 1.349 . S
C1933 C1931 1.327 . S
C1933 C1949 1.429 . S
C1933 H1955 0.950 . S
C1934 H1930 0.949 . S
C1934 C1942 1.574 . S
C1934 C1950 1.368 . S
H1935 C1943 0.950 . S
H1936 C1941 0.950 . S
H1937 C1942 0.949 . S
H1938 C1944 0.950 . S
H1939 C1945 0.950 . S
H1940 C1946 0.949 . S
C1941 H1936 0.950 . S
C1941 C1943 1.327 1_556 S
C1941 C1947 1.429 . S
C1942 C1934 1.574 . S
C1942 H1937 0.949 . S
C1942 C1948 1.368 . S
C1943 C1927 1.349 . S
C1943 H1935 0.950 . S
C1943 C1941 1.327 1_554 S
C1944 C1932 1.349 . S
C1944 H1938 0.950 . S
C1944 C1945 1.327 . S
C1945 H1939 0.950 . S
C1945 C1944 1.327 . S
C1945 C1949 1.429 . S
C1946 C1929 1.574 . S
C1946 H1940 0.949 . S
C1946 C1950 1.368 . S
C1947 C1928 1.429 . S
C1947 C1941 1.429 . S
C1947 C1948 1.523 . S
C1948 C1929 1.368 . S
C1948 C1942 1.368 . S
C1948 C1947 1.523 . S
C1949 C1933 1.429 . S
C1949 C1945 1.429 . S
C1949 C1950 1.523 . S
C1950 C1934 1.368 . S
C1950 C1946 1.368 . S
C1950 C1949 1.523 . S
H1951 C1926 0.950 . S
H1952 C1928 0.950 . S
H1953 C1929 0.949 . S
H1954 C1931 0.950 . S
H1955 C1933 0.950 . S
C1956 C1957 1.349 . S
C1956 C1958 1.327 . S
C1956 H1981 0.950 . S
C1957 C1956 1.349 . S
C1957 C1973 1.349 . S
C1958 C1956 1.327 . S
C1958 C1977 1.429 . S
C1958 H1982 0.950 . S
C1959 C1976 1.574 . S
C1959 C1978 1.368 . S
C1959 H1983 0.949 . S
H1960 C1964 0.949 . S
C1961 C1962 1.349 . S
C1961 C1963 1.327 . S
C1961 H1984 0.950 . S
C1962 C1961 1.349 . S
C1962 C1974 1.349 . S
C1963 C1961 1.327 . S
C1963 C1979 1.429 . S
C1963 H1985 0.950 . S
C1964 H1960 0.949 . S
C1964 C1972 1.574 . S
C1964 C1980 1.368 . S
H1965 C1973 0.950 . S
H1966 C1971 0.950 . S
H1967 C1972 0.949 . S
H1968 C1974 0.950 . S
H1969 C1975 0.950 . S
H1970 C1976 0.949 . S
C1971 H1966 0.950 . S
C1971 C1973 1.327 . S
C1971 C1977 1.429 . S
C1972 C1964 1.574 . S
C1972 H1967 0.949 . S
C1972 C1978 1.368 . S
C1973 C1957 1.349 . S
C1973 H1965 0.950 . S
C1973 C1971 1.327 . S
C1974 C1962 1.349 . S
C1974 H1968 0.950 . S
C1974 C1975 1.327 . S
C1975 H1969 0.950 . S
C1975 C1974 1.327 . S
C1975 C1979 1.429 . S
C1976 C1959 1.574 . S
C1976 H1970 0.949 . S
C1976 C1980 1.368 . S
C1977 C1958 1.429 . S
C1977 C1971 1.429 . S
C1977 C1978 1.523 . S
C1978 C1959 1.368 . S
C1978 C1972 1.368 . S
C1978 C1977 1.523 . S
C1979 C1963 1.429 . S
C1979 C1975 1.429 . S
C1979 C1980 1.523 . S
C1980 C1964 1.368 . S
C1980 C1976 1.368 . S
C1980 C1979 1.523 . S
H1981 C1956 0.950 . S
H1982 C1958 0.950 . S
H1983 C1959 0.949 . S
H1984 C1961 0.950 . S
H1985 C1963 0.950 . S
C1986 C1987 1.349 . S
C1986 C1988 1.327 . S
C1986 H2011 0.950 . S
C1987 C1986 1.349 . S
C1987 C2003 1.349 . S
C1988 C1986 1.327 . S
C1988 C2007 1.429 . S
C1988 H2012 0.950 . S
C1989 C2006 1.574 . S
C1989 C2008 1.368 . S
C1989 H2013 0.949 . S
H1990 C1994 0.949 . S
C1991 C1992 1.349 . S
C1991 C1993 1.327 . S
C1991 H2014 0.950 . S
C1992 C1991 1.349 . S
C1992 C2004 1.349 . S
C1993 C1991 1.327 . S
C1993 C2009 1.429 . S
C1993 H2015 0.950 . S
C1994 H1990 0.949 . S
C1994 C2002 1.574 . S
C1994 C2010 1.368 . S
H1995 C2003 0.950 . S
H1996 C2001 0.950 . S
H1997 C2002 0.949 . S
H1998 C2004 0.950 . S
H1999 C2005 0.950 . S
H2000 C2006 0.949 . S
C2001 H1996 0.950 . S
C2001 C2003 1.327 . S
C2001 C2007 1.429 . S
C2002 C1994 1.574 . S
C2002 H1997 0.949 . S
C2002 C2008 1.368 . S
C2003 C1987 1.349 . S
C2003 H1995 0.950 . S
C2003 C2001 1.327 . S
C2004 C1992 1.349 . S
C2004 H1998 0.950 . S
C2004 C2005 1.327 . S
C2005 H1999 0.950 . S
C2005 C2004 1.327 . S
C2005 C2009 1.429 . S
C2006 C1989 1.574 . S
C2006 H2000 0.949 . S
C2006 C2010 1.368 . S
C2007 C1988 1.429 . S
C2007 C2001 1.429 . S
C2007 C2008 1.523 . S
C2008 C1989 1.368 . S
C2008 C2002 1.368 . S
C2008 C2007 1.523 . S
C2009 C1993 1.429 . S
C2009 C2005 1.429 . S
C2009 C2010 1.523 . S
C2010 C1994 1.368 . S
C2010 C2006 1.368 . S
C2010 C2009 1.523 . S
H2011 C1986 0.950 . S
H2012 C1988 0.950 . S
H2013 C1989 0.949 . S
H2014 C1991 0.950 . S
H2015 C1993 0.950 . S
C2016 C2017 1.349 . S
C2016 C2018 1.327 . S
C2016 H2041 0.950 . S
C2017 C2016 1.349 . S
C2017 C2033 1.349 . S
C2018 C2016 1.327 . S
C2018 C2037 1.429 . S
C2018 H2042 0.950 . S
C2019 C2036 1.574 . S
C2019 C2038 1.368 . S
C2019 H2043 0.949 . S
H2020 C2024 0.949 . S
C2021 C2022 1.349 . S
C2021 C2023 1.327 . S
C2021 H2044 0.950 . S
C2022 C2021 1.349 . S
C2022 C2034 1.349 . S
C2023 C2021 1.327 . S
C2023 C2039 1.429 . S
C2023 H2045 0.950 . S
C2024 H2020 0.949 . S
C2024 C2032 1.574 . S
C2024 C2040 1.368 . S
H2025 C2033 0.950 . S
H2026 C2031 0.950 . S
H2027 C2032 0.949 . S
H2028 C2034 0.950 . S
H2029 C2035 0.950 . S
H2030 C2036 0.949 . S
C2031 H2026 0.950 . S
C2031 C2033 1.327 . S
C2031 C2037 1.429 . S
C2032 C2024 1.574 . S
C2032 H2027 0.949 . S
C2032 C2038 1.368 . S
C2033 C2017 1.349 . S
C2033 H2025 0.950 . S
C2033 C2031 1.327 . S
C2034 C2022 1.349 . S
C2034 H2028 0.950 . S
C2034 C2035 1.327 . S
C2035 H2029 0.950 . S
C2035 C2034 1.327 . S
C2035 C2039 1.429 . S
C2036 C2019 1.574 . S
C2036 H2030 0.949 . S
C2036 C2040 1.368 . S
C2037 C2018 1.429 . S
C2037 C2031 1.429 . S
C2037 C2038 1.523 . S
C2038 C2019 1.368 . S
C2038 C2032 1.368 . S
C2038 C2037 1.523 . S
C2039 C2023 1.429 . S
C2039 C2035 1.429 . S
C2039 C2040 1.523 . S
C2040 C2024 1.368 . S
C2040 C2036 1.368 . S
C2040 C2039 1.523 . S
H2041 C2016 0.950 . S
H2042 C2018 0.950 . S
H2043 C2019 0.949 . S
H2044 C2021 0.950 . S
H2045 C2023 0.950 . S
C2046 C2047 1.349 . S
C2046 C2048 1.327 . S
C2046 H2071 0.950 . S
C2047 C2046 1.349 . S
C2047 C2063 1.349 . S
C2048 C2046 1.327 . S
C2048 C2067 1.429 . S
C2048 H2072 0.950 . S
C2049 C2066 1.574 . S
C2049 C2068 1.368 . S
C2049 H2073 0.949 . S
H2050 C2054 0.949 . S
C2051 C2052 1.349 . S
C2051 C2053 1.327 . S
C2051 H2074 0.950 . S
C2052 C2051 1.349 . S
C2052 C2064 1.349 . S
C2053 C2051 1.327 . S
C2053 C2069 1.429 . S
C2053 H2075 0.950 . S
C2054 H2050 0.949 . S
C2054 C2062 1.574 . S
C2054 C2070 1.368 . S
H2055 C2063 0.950 . S
H2056 C2061 0.950 . S
H2057 C2062 0.949 . S
H2058 C2064 0.950 . S
H2059 C2065 0.950 . S
H2060 C2066 0.949 . S
C2061 H2056 0.950 . S
C2061 C2063 1.327 . S
C2061 C2067 1.429 . S
C2062 C2054 1.574 . S
C2062 H2057 0.949 . S
C2062 C2068 1.368 . S
C2063 C2047 1.349 . S
C2063 H2055 0.950 . S
C2063 C2061 1.327 . S
C2064 C2052 1.349 . S
C2064 H2058 0.950 . S
C2064 C2065 1.327 . S
C2065 H2059 0.950 . S
C2065 C2064 1.327 . S
C2065 C2069 1.429 . S
C2066 C2049 1.574 . S
C2066 H2060 0.949 . S
C2066 C2070 1.368 . S
C2067 C2048 1.429 . S
C2067 C2061 1.429 . S
C2067 C2068 1.523 . S
C2068 C2049 1.368 . S
C2068 C2062 1.368 . S
C2068 C2067 1.523 . S
C2069 C2053 1.429 . S
C2069 C2065 1.429 . S
C2069 C2070 1.523 . S
C2070 C2054 1.368 . S
C2070 C2066 1.368 . S
C2070 C2069 1.523 . S
H2071 C2046 0.950 . S
H2072 C2048 0.950 . S
H2073 C2049 0.949 . S
H2074 C2051 0.950 . S
H2075 C2053 0.950 . S
C2076 C2077 1.349 . S
C2076 C2078 1.327 . S
C2076 H2101 0.950 . S
C2077 C2076 1.349 . S
C2077 C2093 1.349 . S
C2078 C2076 1.327 . S
C2078 C2097 1.429 . S
C2078 H2102 0.950 . S
C2079 C2096 1.574 . S
C2079 C2098 1.368 . S
C2079 H2103 0.949 . S
H2080 C2084 0.949 . S
C2081 C2082 1.349 . S
C2081 C2083 1.327 . S
C2081 H2104 0.950 . S
C2082 C2081 1.349 . S
C2082 C2094 1.349 . S
C2083 C2081 1.327 . S
C2083 C2099 1.429 . S
C2083 H2105 0.950 . S
C2084 H2080 0.949 . S
C2084 C2092 1.574 . S
C2084 C2100 1.368 . S
H2085 C2093 0.950 . S
H2086 C2091 0.950 . S
H2087 C2092 0.949 . S
H2088 C2094 0.950 . S
H2089 C2095 0.950 . S
H2090 C2096 0.949 . S
C2091 H2086 0.950 . S
C2091 C2093 1.327 . S
C2091 C2097 1.429 . S
C2092 C2084 1.574 . S
C2092 H2087 0.949 . S
C2092 C2098 1.368 . S
C2093 C2077 1.349 . S
C2093 H2085 0.950 . S
C2093 C2091 1.327 . S
C2094 C2082 1.349 . S
C2094 H2088 0.950 . S
C2094 C2095 1.327 . S
C2095 H2089 0.950 . S
C2095 C2094 1.327 . S
C2095 C2099 1.429 . S
C2096 C2079 1.574 . S
C2096 H2090 0.949 . S
C2096 C2100 1.368 . S
C2097 C2078 1.429 . S
C2097 C2091 1.429 . S
C2097 C2098 1.523 . S
C2098 C2079 1.368 . S
C2098 C2092 1.368 . S
C2098 C2097 1.523 . S
C2099 C2083 1.429 . S
C2099 C2095 1.429 . S
C2099 C2100 1.523 . S
C2100 C2084 1.368 . S
C2100 C2096 1.368 . S
C2100 C2099 1.523 . S
H2101 C2076 0.950 . S
H2102 C2078 0.950 . S
H2103 C2079 0.949 . S
H2104 C2081 0.950 . S
H2105 C2083 0.950 . S
C2106 C2107 1.349 . S
C2106 C2108 1.327 . S
C2106 H2131 0.950 . S
C2107 C2106 1.349 . S
C2107 C2123 1.349 . S
C2108 C2106 1.327 . S
C2108 C2127 1.429 . S
C2108 H2132 0.950 . S
C2109 C2126 1.574 . S
C2109 C2128 1.368 . S
C2109 H2133 0.949 . S
H2110 C2114 0.949 . S
C2111 C2112 1.349 . S
C2111 C2113 1.327 . S
C2111 H2134 0.950 . S
C2112 C2111 1.349 . S
C2112 C2124 1.349 . S
C2113 C2111 1.327 . S
C2113 C2129 1.429 . S
C2113 H2135 0.950 . S
C2114 H2110 0.949 . S
C2114 C2122 1.574 . S
C2114 C2130 1.368 . S
H2115 C2123 0.950 . S
H2116 C2121 0.950 . S
H2117 C2122 0.949 . S
H2118 C2124 0.950 . S
H2119 C2125 0.950 . S
H2120 C2126 0.949 . S
C2121 H2116 0.950 . S
C2121 C2123 1.327 . S
C2121 C2127 1.429 . S
C2122 C2114 1.574 . S
C2122 H2117 0.949 . S
C2122 C2128 1.368 . S
C2123 C2107 1.349 . S
C2123 H2115 0.950 . S
C2123 C2121 1.327 . S
C2124 C2112 1.349 . S
C2124 H2118 0.950 . S
C2124 C2125 1.327 . S
C2125 H2119 0.950 . S
C2125 C2124 1.327 . S
C2125 C2129 1.429 . S
C2126 C2109 1.574 . S
C2126 H2120 0.949 . S
C2126 C2130 1.368 . S
C2127 C2108 1.429 . S
C2127 C2121 1.429 . S
C2127 C2128 1.523 . S
C2128 C2109 1.368 . S
C2128 C2122 1.368 . S
C2128 C2127 1.523 . S
C2129 C2113 1.429 . S
C2129 C2125 1.429 . S
C2129 C2130 1.523 . S
C2130 C2114 1.368 . S
C2130 C2126 1.368 . S
C2130 C2129 1.523 . S
H2131 C2106 0.950 . S
H2132 C2108 0.950 . S
H2133 C2109 0.949 . S
H2134 C2111 0.950 . S
H2135 C2113 0.950 . S
C2136 C2137 1.349 . S
C2136 C2138 1.327 . S
C2136 H2161 0.950 . S
C2137 C2136 1.349 . S
C2137 C2153 1.349 . S
C2138 C2136 1.327 . S
C2138 C2157 1.429 . S
C2138 H2162 0.950 . S
C2139 C2156 1.574 . S
C2139 C2158 1.368 . S
C2139 H2163 0.949 . S
H2140 C2144 0.949 . S
C2141 C2142 1.349 . S
C2141 C2143 1.327 . S
C2141 H2164 0.950 . S
C2142 C2141 1.349 . S
C2142 C2154 1.349 . S
C2143 C2141 1.327 . S
C2143 C2159 1.429 . S
C2143 H2165 0.950 . S
C2144 H2140 0.949 . S
C2144 C2152 1.574 . S
C2144 C2160 1.368 . S
H2145 C2153 0.950 . S
H2146 C2151 0.950 . S
H2147 C2152 0.949 . S
H2148 C2154 0.950 . S
H2149 C2155 0.950 . S
H2150 C2156 0.949 . S
C2151 H2146 0.950 . S
C2151 C2153 1.327 . S
C2151 C2157 1.429 . S
C2152 C2144 1.574 . S
C2152 H2147 0.949 . S
C2152 C2158 1.368 . S
C2153 C2137 1.349 . S
C2153 H2145 0.950 . S
C2153 C2151 1.327 . S
C2154 C2142 1.349 . S
C2154 H2148 0.950 . S
C2154 C2155 1.327 . S
C2155 H2149 0.950 . S
C2155 C2154 1.327 . S
C2155 C2159 1.429 . S
C2156 C2139 1.574 . S
C2156 H2150 0.949 . S
C2156 C2160 1.368 . S
C2157 C2138 1.429 . S
C2157 C2151 1.429 . S
C2157 C2158 1.523 . S
C2158 C2139 1.368 . S
C2158 C2152 1.368 . S
C2158 C2157 1.523 . S
C2159 C2143 1.429 . S
C2159 C2155 1.429 . S
C2159 C2160 1.523 . S
C2160 C2144 1.368 . S
C2160 C2156 1.368 . S
C2160 C2159 1.523 . S
H2161 C2136 0.950 . S
H2162 C2138 0.950 . S
H2163 C2139 0.949 . S
H2164 C2141 0.950 . S
H2165 C2143 0.950 . S
C2166 C2167 1.349 . S
C2166 C2168 1.327 . S
C2166 H2191 0.950 . S
C2167 C2166 1.349 . S
C2167 C2183 1.349 . S
C2168 C2166 1.327 . S
C2168 C2187 1.429 . S
C2168 H2192 0.950 . S
C2169 C2186 1.574 . S
C2169 C2188 1.368 . S
C2169 H2193 0.949 . S
H2170 C2174 0.949 . S
C2171 C2172 1.349 . S
C2171 C2173 1.327 . S
C2171 H2194 0.950 . S
C2172 C2171 1.349 . S
C2172 C2184 1.349 . S
C2173 C2171 1.327 . S
C2173 C2189 1.429 . S
C2173 H2195 0.950 . S
C2174 H2170 0.949 . S
C2174 C2182 1.574 . S
C2174 C2190 1.368 . S
H2175 C2183 0.950 . S
H2176 C2181 0.950 . S
H2177 C2182 0.949 . S
H2178 C2184 0.950 . S
H2179 C2185 0.950 . S
H2180 C2186 0.949 . S
C2181 H2176 0.950 . S
C2181 C2183 1.327 . S
C2181 C2187 1.429 . S
C2182 C2174 1.574 . S
C2182 H2177 0.949 . S
C2182 C2188 1.368 . S
C2183 C2167 1.349 . S
C2183 H2175 0.950 . S
C2183 C2181 1.327 . S
C2184 C2172 1.349 . S
C2184 H2178 0.950 . S
C2184 C2185 1.327 . S
C2185 H2179 0.950 . S
C2185 C2184 1.327 . S
C2185 C2189 1.429 . S
C2186 C2169 1.574 . S
C2186 H2180 0.949 . S
C2186 C2190 1.368 . S
C2187 C2168 1.429 . S
C2187 C2181 1.429 . S
C2187 C2188 1.523 . S
C2188 C2169 1.368 . S
C2188 C2182 1.368 . S
C2188 C2187 1.523 . S
C2189 C2173 1.429 . S
C2189 C2185 1.429 . S
C2189 C2190 1.523 . S
C2190 C2174 1.368 . S
C2190 C2186 1.368 . S
C2190 C2189 1.523 . S
H2191 C2166 0.950 . S
H2192 C2168 0.950 . S
H2193 C2169 0.949 . S
H2194 C2171 0.950 . S
H2195 C2173 0.950 . S
C2196 C2197 1.349 . S
C2196 C2198 1.327 . S
C2196 H2221 0.950 . S
C2197 C2196 1.349 . S
C2197 C2213 1.349 . S
C2198 C2196 1.327 . S
C2198 C2217 1.429 . S
C2198 H2222 0.950 . S
C2199 C2216 1.574 . S
C2199 C2218 1.368 . S
C2199 H2223 0.949 . S
H2200 C2204 0.949 . S
C2201 C2202 1.349 . S
C2201 C2203 1.327 . S
C2201 H2224 0.950 . S
C2202 C2201 1.349 . S
C2202 C2214 1.349 . S
C2203 C2201 1.327 . S
C2203 C2219 1.429 . S
C2203 H2225 0.950 . S
C2204 H2200 0.949 . S
C2204 C2212 1.574 . S
C2204 C2220 1.368 . S
H2205 C2213 0.950 . S
H2206 C2211 0.950 . S
H2207 C2212 0.949 . S
H2208 C2214 0.950 . S
H2209 C2215 0.950 . S
H2210 C2216 0.949 . S
C2211 H2206 0.950 . S
C2211 C2213 1.327 . S
C2211 C2217 1.429 . S
C2212 C2204 1.574 . S
C2212 H2207 0.949 . S
C2212 C2218 1.368 . S
C2213 C2197 1.349 . S
C2213 H2205 0.950 . S
C2213 C2211 1.327 . S
C2214 C2202 1.349 . S
C2214 H2208 0.950 . S
C2214 C2215 1.327 . S
C2215 H2209 0.950 . S
C2215 C2214 1.327 . S
C2215 C2219 1.429 . S
C2216 C2199 1.574 . S
C2216 H2210 0.949 . S
C2216 C2220 1.368 . S
C2217 C2198 1.429 . S
C2217 C2211 1.429 . S
C2217 C2218 1.523 . S
C2218 C2199 1.368 . S
C2218 C2212 1.368 . S
C2218 C2217 1.523 . S
C2219 C2203 1.429 . S
C2219 C2215 1.429 . S
C2219 C2220 1.523 . S
C2220 C2204 1.368 . S
C2220 C2216 1.368 . S
C2220 C2219 1.523 . S
H2221 C2196 0.950 . S
H2222 C2198 0.950 . S
H2223 C2199 0.949 . S
H2224 C2201 0.950 . S
H2225 C2203 0.950 . S
C2226 C2227 1.349 . S
C2226 C2228 1.327 . S
C2226 H2251 0.950 . S
C2227 C2226 1.349 . S
C2227 C2243 1.349 . S
C2228 C2226 1.327 . S
C2228 C2247 1.429 . S
C2228 H2252 0.950 . S
C2229 C2246 1.574 . S
C2229 C2248 1.368 . S
C2229 H2253 0.949 . S
H2230 C2234 0.949 . S
C2231 C2232 1.349 . S
C2231 C2233 1.327 . S
C2231 H2254 0.950 . S
C2232 C2231 1.349 . S
C2232 C2244 1.349 . S
C2233 C2231 1.327 . S
C2233 C2249 1.429 . S
C2233 H2255 0.950 . S
C2234 H2230 0.949 . S
C2234 C2242 1.574 . S
C2234 C2250 1.368 . S
H2235 C2243 0.950 . S
H2236 C2241 0.950 . S
H2237 C2242 0.949 . S
H2238 C2244 0.950 . S
H2239 C2245 0.950 . S
H2240 C2246 0.949 . S
C2241 H2236 0.950 . S
C2241 C2243 1.327 . S
C2241 C2247 1.429 . S
C2242 C2234 1.574 . S
C2242 H2237 0.949 . S
C2242 C2248 1.368 . S
C2243 C2227 1.349 . S
C2243 H2235 0.950 . S
C2243 C2241 1.327 . S
C2244 C2232 1.349 . S
C2244 H2238 0.950 . S
C2244 C2245 1.327 . S
C2245 H2239 0.950 . S
C2245 C2244 1.327 . S
C2245 C2249 1.429 . S
C2246 C2229 1.574 . S
C2246 H2240 0.949 . S
C2246 C2250 1.368 . S
C2247 C2228 1.429 . S
C2247 C2241 1.429 . S
C2247 C2248 1.523 . S
C2248 C2229 1.368 . S
C2248 C2242 1.368 . S
C2248 C2247 1.523 . S
C2249 C2233 1.429 . S
C2249 C2245 1.429 . S
C2249 C2250 1.523 . S
C2250 C2234 1.368 . S
C2250 C2246 1.368 . S
C2250 C2249 1.523 . S
H2251 C2226 0.950 . S
H2252 C2228 0.950 . S
H2253 C2229 0.949 . S
H2254 C2231 0.950 . S
H2255 C2233 0.950 . S
C2256 C2257 1.349 . S
C2256 C2258 1.327 . S
C2256 H2281 0.950 . S
C2257 C2256 1.349 . S
C2257 C2273 1.349 . S
C2258 C2256 1.327 . S
C2258 C2277 1.429 . S
C2258 H2282 0.950 . S
C2259 C2276 1.574 . S
C2259 C2278 1.368 . S
C2259 H2283 0.949 . S
H2260 C2264 0.949 . S
C2261 C2262 1.349 . S
C2261 C2263 1.327 . S
C2261 H2284 0.950 . S
C2262 C2261 1.349 . S
C2262 C2274 1.349 . S
C2263 C2261 1.327 . S
C2263 C2279 1.429 . S
C2263 H2285 0.950 . S
C2264 H2260 0.949 . S
C2264 C2272 1.574 . S
C2264 C2280 1.368 . S
H2265 C2273 0.950 . S
H2266 C2271 0.950 . S
H2267 C2272 0.949 . S
H2268 C2274 0.950 . S
H2269 C2275 0.950 . S
H2270 C2276 0.949 . S
C2271 H2266 0.950 . S
C2271 C2273 1.327 . S
C2271 C2277 1.429 . S
C2272 C2264 1.574 . S
C2272 H2267 0.949 . S
C2272 C2278 1.368 . S
C2273 C2257 1.349 . S
C2273 H2265 0.950 . S
C2273 C2271 1.327 . S
C2274 C2262 1.349 . S
C2274 H2268 0.950 . S
C2274 C2275 1.327 . S
C2275 H2269 0.950 . S
C2275 C2274 1.327 . S
C2275 C2279 1.429 . S
C2276 C2259 1.574 . S
C2276 H2270 0.949 . S
C2276 C2280 1.368 . S
C2277 C2258 1.429 . S
C2277 C2271 1.429 . S
C2277 C2278 1.523 . S
C2278 C2259 1.368 . S
C2278 C2272 1.368 . S
C2278 C2277 1.523 . S
C2279 C2263 1.429 . S
C2279 C2275 1.429 . S
C2279 C2280 1.523 . S
C2280 C2264 1.368 . S
C2280 C2276 1.368 . S
C2280 C2279 1.523 . S
H2281 C2256 0.950 . S
H2282 C2258 0.950 . S
H2283 C2259 0.949 . S
H2284 C2261 0.950 . S
H2285 C2263 0.950 . S
C2286 C2287 1.349 . S
C2286 C2288 1.327 . S
C2286 H2311 0.950 . S
C2287 C2286 1.349 . S
C2287 C2303 1.349 . S
C2288 C2286 1.327 . S
C2288 C2307 1.429 . S
C2288 H2312 0.950 . S
C2289 C2306 1.574 . S
C2289 C2308 1.368 . S
C2289 H2313 0.949 . S
H2290 C2294 0.949 . S
C2291 C2292 1.349 . S
C2291 C2293 1.327 . S
C2291 H2314 0.950 . S
C2292 C2291 1.349 . S
C2292 C2304 1.349 . S
C2293 C2291 1.327 . S
C2293 C2309 1.429 . S
C2293 H2315 0.950 . S
C2294 H2290 0.949 . S
C2294 C2302 1.574 . S
C2294 C2310 1.368 . S
H2295 C2303 0.950 . S
H2296 C2301 0.950 . S
H2297 C2302 0.949 . S
H2298 C2304 0.950 . S
H2299 C2305 0.950 . S
H2300 C2306 0.949 . S
C2301 H2296 0.950 . S
C2301 C2303 1.327 . S
C2301 C2307 1.429 . S
C2302 C2294 1.574 . S
C2302 H2297 0.949 . S
C2302 C2308 1.368 . S
C2303 C2287 1.349 . S
C2303 H2295 0.950 . S
C2303 C2301 1.327 . S
C2304 C2292 1.349 . S
C2304 H2298 0.950 . S
C2304 C2305 1.327 . S
C2305 H2299 0.950 . S
C2305 C2304 1.327 . S
C2305 C2309 1.429 . S
C2306 C2289 1.574 . S
C2306 H2300 0.949 . S
C2306 C2310 1.368 . S
C2307 C2288 1.429 . S
C2307 C2301 1.429 . S
C2307 C2308 1.523 . S
C2308 C2289 1.368 . S
C2308 C2302 1.368 . S
C2308 C2307 1.523 . S
C2309 C2293 1.429 . S
C2309 C2305 1.429 . S
C2309 C2310 1.523 . S
C2310 C2294 1.368 . S
C2310 C2306 1.368 . S
C2310 C2309 1.523 . S
H2311 C2286 0.950 . S
H2312 C2288 0.950 . S
H2313 C2289 0.949 . S
H2314 C2291 0.950 . S
H2315 C2293 0.950 . S
C2316 C2317 1.349 . S
C2316 C2318 1.327 . S
C2316 H2341 0.950 . S
C2317 C2316 1.349 . S
C2317 C2333 1.349 . S
C2318 C2316 1.327 . S
C2318 C2337 1.429 . S
C2318 H2342 0.950 . S
C2319 C2336 1.574 . S
C2319 C2338 1.368 . S
C2319 H2343 0.949 . S
H2320 C2324 0.949 . S
C2321 C2322 1.349 . S
C2321 C2323 1.327 . S
C2321 H2344 0.950 . S
C2322 C2321 1.349 . S
C2322 C2334 1.349 . S
C2323 C2321 1.327 . S
C2323 C2339 1.429 . S
C2323 H2345 0.950 . S
C2324 H2320 0.949 . S
C2324 C2332 1.574 . S
C2324 C2340 1.368 . S
H2325 C2333 0.950 . S
H2326 C2331 0.950 . S
H2327 C2332 0.949 . S
H2328 C2334 0.950 . S
H2329 C2335 0.950 . S
H2330 C2336 0.949 . S
C2331 H2326 0.950 . S
C2331 C2333 1.327 . S
C2331 C2337 1.429 . S
C2332 C2324 1.574 . S
C2332 H2327 0.949 . S
C2332 C2338 1.368 . S
C2333 C2317 1.349 . S
C2333 H2325 0.950 . S
C2333 C2331 1.327 . S
C2334 C2322 1.349 . S
C2334 H2328 0.950 . S
C2334 C2335 1.327 . S
C2335 H2329 0.950 . S
C2335 C2334 1.327 . S
C2335 C2339 1.429 . S
C2336 C2319 1.574 . S
C2336 H2330 0.949 . S
C2336 C2340 1.368 . S
C2337 C2318 1.429 . S
C2337 C2331 1.429 . S
C2337 C2338 1.523 . S
C2338 C2319 1.368 . S
C2338 C2332 1.368 . S
C2338 C2337 1.523 . S
C2339 C2323 1.429 . S
C2339 C2335 1.429 . S
C2339 C2340 1.523 . S
C2340 C2324 1.368 . S
C2340 C2336 1.368 . S
C2340 C2339 1.523 . S
H2341 C2316 0.950 . S
H2342 C2318 0.950 . S
H2343 C2319 0.949 . S
H2344 C2321 0.950 . S
H2345 C2323 0.950 . S
C2346 C2347 1.349 . S
C2346 C2348 1.327 . S
C2346 H2371 0.950 . S
C2347 C2346 1.349 . S
C2347 C2363 1.349 . S
C2348 C2346 1.327 . S
C2348 C2367 1.429 . S
C2348 H2372 0.950 . S
C2349 C2366 1.574 . S
C2349 C2368 1.368 . S
C2349 H2373 0.949 . S
H2350 C2354 0.949 . S
C2351 C2352 1.349 . S
C2351 C2353 1.327 . S
C2351 H2374 0.950 . S
C2352 C2351 1.349 . S
C2352 C2364 1.349 . S
C2353 C2351 1.327 . S
C2353 C2369 1.429 . S
C2353 H2375 0.950 . S
C2354 H2350 0.949 . S
C2354 C2362 1.574 . S
C2354 C2370 1.368 . S
H2355 C2363 0.950 . S
H2356 C2361 0.950 . S
H2357 C2362 0.949 . S
H2358 C2364 0.950 . S
H2359 C2365 0.950 . S
H2360 C2366 0.949 . S
C2361 H2356 0.950 . S
C2361 C2363 1.327 . S
C2361 C2367 1.429 . S
C2362 C2354 1.574 . S
C2362 H2357 0.949 . S
C2362 C2368 1.368 . S
C2363 C2347 1.349 . S
C2363 H2355 0.950 . S
C2363 C2361 1.327 . S
C2364 C2352 1.349 . S
C2364 H2358 0.950 . S
C2364 C2365 1.327 . S
C2365 H2359 0.950 . S
C2365 C2364 1.327 . S
C2365 C2369 1.429 . S
C2366 C2349 1.574 . S
C2366 H2360 0.949 . S
C2366 C2370 1.368 . S
C2367 C2348 1.429 . S
C2367 C2361 1.429 . S
C2367 C2368 1.523 . S
C2368 C2349 1.368 . S
C2368 C2362 1.368 . S
C2368 C2367 1.523 . S
C2369 C2353 1.429 . S
C2369 C2365 1.429 . S
C2369 C2370 1.523 . S
C2370 C2354 1.368 . S
C2370 C2366 1.368 . S
C2370 C2369 1.523 . S
H2371 C2346 0.950 . S
H2372 C2348 0.950 . S
H2373 C2349 0.949 . S
H2374 C2351 0.950 . S
H2375 C2353 0.950 . S
C2376 C2377 1.349 . S
C2376 C2378 1.327 . S
C2376 H2401 0.967 . S
C2377 C2376 1.349 . S
C2377 C2393 1.349 . S
C2378 C2376 1.327 . S
C2378 C2397 1.429 . S
C2378 H2402 0.950 . S
C2379 C2396 1.574 . S
C2379 C2398 1.368 . S
C2379 H2403 0.949 . S
H2380 C2384 0.949 . S
C2381 C2382 1.349 . S
C2381 C2383 1.327 . S
C2381 H2404 0.950 . S
C2382 C2381 1.349 . S
C2382 C2394 1.349 . S
C2383 C2381 1.327 . S
C2383 C2399 1.429 . S
C2383 H2405 0.950 . S
C2384 H2380 0.949 . S
C2384 C2392 1.574 . S
C2384 C2400 1.368 . S
H2385 C2393 0.950 . S
H2386 C2391 0.950 . S
H2387 C2392 0.949 . S
H2388 C2394 0.950 . S
H2389 C2395 0.950 . S
H2390 C2396 0.949 . S
C2391 H2386 0.950 . S
C2391 C2393 1.327 . S
C2391 C2397 1.429 . S
C2392 C2384 1.574 . S
C2392 H2387 0.949 . S
C2392 C2398 1.368 . S
C2393 C2377 1.349 . S
C2393 H2385 0.950 . S
C2393 C2391 1.327 . S
C2394 C2382 1.349 . S
C2394 H2388 0.950 . S
C2394 C2395 1.327 . S
C2395 H2389 0.950 . S
C2395 C2394 1.327 . S
C2395 C2399 1.429 . S
C2396 C2379 1.574 . S
C2396 H2390 0.949 . S
C2396 C2400 1.368 . S
C2397 C2378 1.429 . S
C2397 C2391 1.429 . S
C2397 C2398 1.523 . S
C2398 C2379 1.368 . S
C2398 C2392 1.368 . S
C2398 C2397 1.523 . S
C2399 C2383 1.429 . S
C2399 C2395 1.429 . S
C2399 C2400 1.523 . S
C2400 C2384 1.368 . S
C2400 C2396 1.368 . S
C2400 C2399 1.523 . S
H2401 C2376 0.967 . S
H2402 C2378 0.950 . S
H2403 C2379 0.949 . S
H2404 C2381 0.950 . S
H2405 C2383 0.950 . S
C2406 C2407 1.349 . S
C2406 C2408 1.327 . S
C2406 H2431 0.950 . S
C2407 C2406 1.349 . S
C2407 C2423 1.349 . S
C2408 C2406 1.327 . S
C2408 C2427 1.429 . S
C2408 H2432 0.950 . S
C2409 C2426 1.574 . S
C2409 C2428 1.368 . S
C2409 H2433 0.949 . S
H2410 C2414 0.949 . S
C2411 C2412 1.349 . S
C2411 C2413 1.327 . S
C2411 H2434 0.950 . S
C2412 C2411 1.349 . S
C2412 C2424 1.349 . S
C2413 C2411 1.327 . S
C2413 C2429 1.429 . S
C2413 H2435 0.950 . S
C2414 H2410 0.949 . S
C2414 C2422 1.574 . S
C2414 C2430 1.368 . S
H2415 C2423 0.950 . S
H2416 C2421 0.950 . S
H2417 C2422 0.949 . S
H2418 C2424 0.950 . S
H2419 C2425 0.950 . S
H2420 C2426 0.949 . S
C2421 H2416 0.950 . S
C2421 C2423 1.327 . S
C2421 C2427 1.429 . S
C2422 C2414 1.574 . S
C2422 H2417 0.949 . S
C2422 C2428 1.368 . S
C2423 C2407 1.349 . S
C2423 H2415 0.950 . S
C2423 C2421 1.327 . S
C2424 C2412 1.349 . S
C2424 H2418 0.950 . S
C2424 C2425 1.327 . S
C2425 H2419 0.950 . S
C2425 C2424 1.327 . S
C2425 C2429 1.429 . S
C2426 C2409 1.574 . S
C2426 H2420 0.949 . S
C2426 C2430 1.368 . S
C2427 C2408 1.429 . S
C2427 C2421 1.429 . S
C2427 C2428 1.523 . S
C2428 C2409 1.368 . S
C2428 C2422 1.368 . S
C2428 C2427 1.523 . S
C2429 C2413 1.429 . S
C2429 C2425 1.429 . S
C2429 C2430 1.523 . S
C2430 C2414 1.368 . S
C2430 C2426 1.368 . S
C2430 C2429 1.523 . S
H2431 C2406 0.950 . S
H2432 C2408 0.950 . S
H2433 C2409 0.949 . S
H2434 C2411 0.950 . S
H2435 C2413 0.950 . S
C2436 C2437 1.349 . S
C2436 C2438 1.327 . S
C2436 H2461 0.950 . S
C2437 C2436 1.349 . S
C2437 C2453 1.349 . S
C2438 C2436 1.327 . S
C2438 C2457 1.429 . S
C2438 H2462 0.950 . S
C2439 C2456 1.574 . S
C2439 C2458 1.368 . S
C2439 H2463 0.949 . S
H2440 C2444 0.949 . S
C2441 C2442 1.349 . S
C2441 C2443 1.327 . S
C2441 H2464 0.950 . S
C2442 C2441 1.349 . S
C2442 C2454 1.349 . S
C2443 C2441 1.327 . S
C2443 C2459 1.429 . S
C2443 H2465 0.950 . S
C2444 H2440 0.949 . S
C2444 C2452 1.574 . S
C2444 C2460 1.368 . S
H2445 C2453 0.950 . S
H2446 C2451 0.950 . S
H2447 C2452 0.949 . S
H2448 C2454 0.950 . S
H2449 C2455 0.950 . S
H2450 C2456 0.949 . S
C2451 H2446 0.950 . S
C2451 C2453 1.327 . S
C2451 C2457 1.429 . S
C2452 C2444 1.574 . S
C2452 H2447 0.949 . S
C2452 C2458 1.368 . S
C2453 C2437 1.349 . S
C2453 H2445 0.950 . S
C2453 C2451 1.327 . S
C2454 C2442 1.349 . S
C2454 H2448 0.950 . S
C2454 C2455 1.327 . S
C2455 H2449 0.950 . S
C2455 C2454 1.327 . S
C2455 C2459 1.429 . S
C2456 C2439 1.574 . S
C2456 H2450 0.949 . S
C2456 C2460 1.368 . S
C2457 C2438 1.429 . S
C2457 C2451 1.429 . S
C2457 C2458 1.523 . S
C2458 C2439 1.368 . S
C2458 C2452 1.368 . S
C2458 C2457 1.523 . S
C2459 C2443 1.429 . S
C2459 C2455 1.429 . S
C2459 C2460 1.523 . S
C2460 C2444 1.368 . S
C2460 C2456 1.368 . S
C2460 C2459 1.523 . S
H2461 C2436 0.950 . S
H2462 C2438 0.950 . S
H2463 C2439 0.949 . S
H2464 C2441 0.950 . S
H2465 C2443 0.950 . S
C2466 C2467 1.349 . S
C2466 C2468 1.327 . S
C2466 H2491 0.950 . S
C2467 C2466 1.349 . S
C2467 C2483 1.349 . S
C2468 C2466 1.327 . S
C2468 C2487 1.429 . S
C2468 H2492 0.950 . S
C2469 C2486 1.574 . S
C2469 C2488 1.368 . S
C2469 H2493 0.949 . S
H2470 C2474 0.949 . S
C2471 C2472 1.349 . S
C2471 C2473 1.327 . S
C2471 H2494 0.950 . S
C2472 C2471 1.349 . S
C2472 C2484 1.349 . S
C2473 C2471 1.327 . S
C2473 C2489 1.429 . S
C2473 H2495 0.950 . S
C2474 H2470 0.949 . S
C2474 C2482 1.574 . S
C2474 C2490 1.368 . S
H2475 C2483 0.950 . S
H2476 C2481 0.950 . S
H2477 C2482 0.949 . S
H2478 C2484 0.950 . S
H2479 C2485 0.950 . S
H2480 C2486 0.949 . S
C2481 H2476 0.950 . S
C2481 C2483 1.327 . S
C2481 C2487 1.429 . S
C2482 C2474 1.574 . S
C2482 H2477 0.949 . S
C2482 C2488 1.368 . S
C2483 C2467 1.349 . S
C2483 H2475 0.950 . S
C2483 C2481 1.327 . S
C2484 C2472 1.349 . S
C2484 H2478 0.950 . S
C2484 C2485 1.327 . S
C2485 H2479 0.950 . S
C2485 C2484 1.327 . S
C2485 C2489 1.429 . S
C2486 C2469 1.574 . S
C2486 H2480 0.949 . S
C2486 C2490 1.368 . S
C2487 C2468 1.429 . S
C2487 C2481 1.429 . S
C2487 C2488 1.523 . S
C2488 C2469 1.368 . S
C2488 C2482 1.368 . S
C2488 C2487 1.523 . S
C2489 C2473 1.429 . S
C2489 C2485 1.429 . S
C2489 C2490 1.523 . S
C2490 C2474 1.368 . S
C2490 C2486 1.368 . S
C2490 C2489 1.523 . S
H2491 C2466 0.950 . S
H2492 C2468 0.950 . S
H2493 C2469 0.949 . S
H2494 C2471 0.950 . S
H2495 C2473 0.950 . S
C2496 C2497 1.349 1_554 S
C2496 C2498 1.327 . S
C2496 H2521 0.950 . S
C2497 C2496 1.349 1_556 S
C2497 C2513 1.349 . S
C2498 C2496 1.327 . S
C2498 C2517 1.429 1_554 S
C2498 H2522 0.950 . S
C2499 C2516 1.574 . S
C2499 C2518 1.368 . S
C2499 H2523 0.949 . S
H2500 C2504 0.949 . S
C2501 C2502 1.349 1_556 S
C2501 C2503 1.327 . S
C2501 H2524 0.950 . S
C2502 C2501 1.349 1_554 S
C2502 C2514 1.349 . S
C2503 C2501 1.327 . S
C2503 C2519 1.429 1_556 S
C2503 H2525 0.950 . S
C2504 H2500 0.949 . S
C2504 C2512 1.574 . S
C2504 C2520 1.368 . S
H2505 C2513 0.950 . S
H2506 C2511 0.950 . S
H2507 C2512 0.949 . S
H2508 C2514 0.950 . S
H2509 C2515 0.950 . S
H2510 C2516 0.949 . S
C2511 H2506 0.950 . S
C2511 C2513 1.327 . S
C2511 C2517 1.429 . S
C2512 C2504 1.574 . S
C2512 H2507 0.949 . S
C2512 C2518 1.368 1_554 S
C2513 C2497 1.349 . S
C2513 H2505 0.950 . S
C2513 C2511 1.327 . S
C2514 C2502 1.349 . S
C2514 H2508 0.950 . S
C2514 C2515 1.327 . S
C2515 H2509 0.950 . S
C2515 C2514 1.327 . S
C2515 C2519 1.429 . S
C2516 C2499 1.574 . S
C2516 H2510 0.949 . S
C2516 C2520 1.368 1_556 S
C2517 C2498 1.429 1_556 S
C2517 C2511 1.429 . S
C2517 C2518 1.523 . S
C2518 C2499 1.368 . S
C2518 C2512 1.368 1_556 S
C2518 C2517 1.523 . S
C2519 C2503 1.429 1_554 S
C2519 C2515 1.429 . S
C2519 C2520 1.523 . S
C2520 C2504 1.368 . S
C2520 C2516 1.368 1_554 S
C2520 C2519 1.523 . S
H2521 C2496 0.950 . S
H2522 C2498 0.950 . S
H2523 C2499 0.949 . S
H2524 C2501 0.950 . S
H2525 C2503 0.950 . S
C2526 C2527 1.349 . S
C2526 C2528 1.327 . S
C2526 H2551 0.950 . S
C2527 C2526 1.349 . S
C2527 C2543 1.349 . S
C2528 C2526 1.327 . S
C2528 C2547 1.429 . S
C2528 H2552 0.950 . S
C2529 C2546 1.574 . S
C2529 C2548 1.368 . S
C2529 H2553 0.949 . S
H2530 C2534 0.949 . S
C2531 C2532 1.349 . S
C2531 C2533 1.327 . S
C2531 H2554 0.950 . S
C2532 C2531 1.349 . S
C2532 C2544 1.349 . S
C2533 C2531 1.327 . S
C2533 C2549 1.429 . S
C2533 H2555 0.950 . S
C2534 H2530 0.949 . S
C2534 C2542 1.574 . S
C2534 C2550 1.368 . S
H2535 C2543 0.950 . S
H2536 C2541 0.950 . S
H2537 C2542 0.949 . S
H2538 C2544 0.950 . S
H2539 C2545 0.950 . S
H2540 C2546 0.949 . S
C2541 H2536 0.950 . S
C2541 C2543 1.327 . S
C2541 C2547 1.429 . S
C2542 C2534 1.574 . S
C2542 H2537 0.949 . S
C2542 C2548 1.368 . S
C2543 C2527 1.349 . S
C2543 H2535 0.950 . S
C2543 C2541 1.327 . S
C2544 C2532 1.349 . S
C2544 H2538 0.950 . S
C2544 C2545 1.327 . S
C2545 H2539 0.950 . S
C2545 C2544 1.327 . S
C2545 C2549 1.429 . S
C2546 C2529 1.574 . S
C2546 H2540 0.949 . S
C2546 C2550 1.368 . S
C2547 C2528 1.429 . S
C2547 C2541 1.429 . S
C2547 C2548 1.523 . S
C2548 C2529 1.368 . S
C2548 C2542 1.368 . S
C2548 C2547 1.523 . S
C2549 C2533 1.429 . S
C2549 C2545 1.429 . S
C2549 C2550 1.523 . S
C2550 C2534 1.368 . S
C2550 C2546 1.368 . S
C2550 C2549 1.523 . S
H2551 C2526 0.950 . S
H2552 C2528 0.950 . S
H2553 C2529 0.949 . S
H2554 C2531 0.950 . S
H2555 C2533 0.950 . S
C2556 C2557 1.349 . S
C2556 C2558 1.327 . S
C2556 H2581 0.950 . S
C2557 C2556 1.349 . S
C2557 C2573 1.349 . S
C2558 C2556 1.327 . S
C2558 C2577 1.429 . S
C2558 H2582 0.950 . S
C2559 C2576 1.574 . S
C2559 C2578 1.368 . S
C2559 H2583 0.949 . S
H2560 C2564 0.949 . S
C2561 C2562 1.349 . S
C2561 C2563 1.327 . S
C2561 H2584 0.950 . S
C2562 C2561 1.349 . S
C2562 C2574 1.349 . S
C2563 C2561 1.327 . S
C2563 C2579 1.429 . S
C2563 H2585 0.950 . S
C2564 H2560 0.949 . S
C2564 C2572 1.574 . S
C2564 C2580 1.368 . S
H2565 C2573 0.950 . S
H2566 C2571 0.950 . S
H2567 C2572 0.949 . S
H2568 C2574 0.950 . S
H2569 C2575 0.950 . S
H2570 C2576 0.949 . S
C2571 H2566 0.950 . S
C2571 C2573 1.327 . S
C2571 C2577 1.429 . S
C2572 C2564 1.574 . S
C2572 H2567 0.949 . S
C2572 C2578 1.368 . S
C2573 C2557 1.349 . S
C2573 H2565 0.950 . S
C2573 C2571 1.327 . S
C2574 C2562 1.349 . S
C2574 H2568 0.950 . S
C2574 C2575 1.327 . S
C2575 H2569 0.950 . S
C2575 C2574 1.327 . S
C2575 C2579 1.429 . S
C2576 C2559 1.574 . S
C2576 H2570 0.949 . S
C2576 C2580 1.368 . S
C2577 C2558 1.429 . S
C2577 C2571 1.429 . S
C2577 C2578 1.523 . S
C2578 C2559 1.368 . S
C2578 C2572 1.368 . S
C2578 C2577 1.523 . S
C2579 C2563 1.429 . S
C2579 C2575 1.429 . S
C2579 C2580 1.523 . S
C2580 C2564 1.368 . S
C2580 C2576 1.368 . S
C2580 C2579 1.523 . S
H2581 C2556 0.950 . S
H2582 C2558 0.950 . S
H2583 C2559 0.949 . S
H2584 C2561 0.950 . S
H2585 C2563 0.950 . S
C2586 C2587 1.349 . S
C2586 C2588 1.327 . S
C2586 H2611 0.950 . S
C2587 C2586 1.349 . S
C2587 C2603 1.349 . S
C2588 C2586 1.327 . S
C2588 C2607 1.429 . S
C2588 H2612 0.950 . S
C2589 C2606 1.574 . S
C2589 C2608 1.368 . S
C2589 H2613 0.949 . S
H2590 C2594 0.949 . S
C2591 C2592 1.349 . S
C2591 C2593 1.327 . S
C2591 H2614 0.950 . S
C2592 C2591 1.349 . S
C2592 C2604 1.349 . S
C2593 C2591 1.327 . S
C2593 C2609 1.429 . S
C2593 H2615 0.950 . S
C2594 H2590 0.949 . S
C2594 C2602 1.574 . S
C2594 C2610 1.368 . S
H2595 C2603 0.950 . S
H2596 C2601 0.950 . S
H2597 C2602 0.949 . S
H2598 C2604 0.950 . S
H2599 C2605 0.950 . S
H2600 C2606 0.949 . S
C2601 H2596 0.950 . S
C2601 C2603 1.327 . S
C2601 C2607 1.429 . S
C2602 C2594 1.574 . S
C2602 H2597 0.949 . S
C2602 C2608 1.368 . S
C2603 C2587 1.349 . S
C2603 H2595 0.950 . S
C2603 C2601 1.327 . S
C2604 C2592 1.349 . S
C2604 H2598 0.950 . S
C2604 C2605 1.327 . S
C2605 H2599 0.950 . S
C2605 C2604 1.327 . S
C2605 C2609 1.429 . S
C2606 C2589 1.574 . S
C2606 H2600 0.949 . S
C2606 C2610 1.368 . S
C2607 C2588 1.429 . S
C2607 C2601 1.429 . S
C2607 C2608 1.523 . S
C2608 C2589 1.368 . S
C2608 C2602 1.368 . S
C2608 C2607 1.523 . S
C2609 C2593 1.429 . S
C2609 C2605 1.429 . S
C2609 C2610 1.523 . S
C2610 C2594 1.368 . S
C2610 C2606 1.368 . S
C2610 C2609 1.523 . S
H2611 C2586 0.950 . S
H2612 C2588 0.950 . S
H2613 C2589 0.949 . S
H2614 C2591 0.950 . S
H2615 C2593 0.950 . S
C2616 C2617 1.349 1_554 S
C2616 C2618 1.327 . S
C2616 H2641 0.950 . S
C2617 C2616 1.349 1_556 S
C2617 C2633 1.349 . S
C2618 C2616 1.327 . S
C2618 C2637 1.429 1_554 S
C2618 H2642 0.950 . S
C2619 C2636 1.574 . S
C2619 C2638 1.368 . S
C2619 H2643 0.949 . S
H2620 C2624 0.949 . S
C2621 C2622 1.349 1_556 S
C2621 C2623 1.327 . S
C2621 H2644 0.950 . S
C2622 C2621 1.349 1_554 S
C2622 C2634 1.349 . S
C2623 C2621 1.327 . S
C2623 C2639 1.429 1_556 S
C2623 H2645 0.950 . S
C2624 H2620 0.949 . S
C2624 C2632 1.574 . S
C2624 C2640 1.368 . S
H2625 C2633 0.950 . S
H2626 C2631 0.950 . S
H2627 C2632 0.949 . S
H2628 C2634 0.950 . S
H2629 C2635 0.950 . S
H2630 C2636 0.949 . S
C2631 H2626 0.950 . S
C2631 C2633 1.327 . S
C2631 C2637 1.429 . S
C2632 C2624 1.574 . S
C2632 H2627 0.949 . S
C2632 C2638 1.368 1_554 S
C2633 C2617 1.349 . S
C2633 H2625 0.950 . S
C2633 C2631 1.327 . S
C2634 C2622 1.349 . S
C2634 H2628 0.950 . S
C2634 C2635 1.327 . S
C2635 H2629 0.950 . S
C2635 C2634 1.327 . S
C2635 C2639 1.429 . S
C2636 C2619 1.574 . S
C2636 H2630 0.949 . S
C2636 C2640 1.368 1_556 S
C2637 C2618 1.429 1_556 S
C2637 C2631 1.429 . S
C2637 C2638 1.523 . S
C2638 C2619 1.368 . S
C2638 C2632 1.368 1_556 S
C2638 C2637 1.523 . S
C2639 C2623 1.429 1_554 S
C2639 C2635 1.429 . S
C2639 C2640 1.523 . S
C2640 C2624 1.368 . S
C2640 C2636 1.368 1_554 S
C2640 C2639 1.523 . S
H2641 C2616 0.950 . S
H2642 C2618 0.950 . S
H2643 C2619 0.949 . S
H2644 C2621 0.950 . S
H2645 C2623 0.950 . S
C2646 C2647 1.349 . S
C2646 C2648 1.327 . S
C2646 H2671 0.950 . S
C2647 C2646 1.349 . S
C2647 C2663 1.349 . S
C2648 C2646 1.327 . S
C2648 C2667 1.429 . S
C2648 H2672 0.950 . S
C2649 C2666 1.574 . S
C2649 C2668 1.368 . S
C2649 H2673 0.949 . S
H2650 C2654 0.949 . S
C2651 C2652 1.349 . S
C2651 C2653 1.327 . S
C2651 H2674 0.950 . S
C2652 C2651 1.349 . S
C2652 C2664 1.349 . S
C2653 C2651 1.327 . S
C2653 C2669 1.429 . S
C2653 H2675 0.950 . S
C2654 H2650 0.949 . S
C2654 C2662 1.574 . S
C2654 C2670 1.368 . S
H2655 C2663 0.950 . S
H2656 C2661 0.950 . S
H2657 C2662 0.949 . S
H2658 C2664 0.950 . S
H2659 C2665 0.950 . S
H2660 C2666 0.949 . S
C2661 H2656 0.950 . S
C2661 C2663 1.327 . S
C2661 C2667 1.429 . S
C2662 C2654 1.574 . S
C2662 H2657 0.949 . S
C2662 C2668 1.368 . S
C2663 C2647 1.349 . S
C2663 H2655 0.950 . S
C2663 C2661 1.327 . S
C2664 C2652 1.349 . S
C2664 H2658 0.950 . S
C2664 C2665 1.327 . S
C2665 H2659 0.950 . S
C2665 C2664 1.327 . S
C2665 C2669 1.429 . S
C2666 C2649 1.574 . S
C2666 H2660 0.949 . S
C2666 C2670 1.368 . S
C2667 C2648 1.429 . S
C2667 C2661 1.429 . S
C2667 C2668 1.523 . S
C2668 C2649 1.368 . S
C2668 C2662 1.368 . S
C2668 C2667 1.523 . S
C2669 C2653 1.429 . S
C2669 C2665 1.429 . S
C2669 C2670 1.523 . S
C2670 C2654 1.368 . S
C2670 C2666 1.368 . S
C2670 C2669 1.523 . S
H2671 C2646 0.950 . S
H2672 C2648 0.950 . S
H2673 C2649 0.949 . S
H2674 C2651 0.950 . S
H2675 C2653 0.950 . S
C2676 C2677 1.349 . S
C2676 C2678 1.327 . S
C2676 H2701 0.950 . S
C2677 C2676 1.349 . S
C2677 C2693 1.349 . S
C2678 C2676 1.327 . S
C2678 C2697 1.429 . S
C2678 H2702 0.950 . S
C2679 C2696 1.574 . S
C2679 C2698 1.368 . S
C2679 H2703 0.949 . S
H2680 C2684 0.949 . S
C2681 C2682 1.349 . S
C2681 C2683 1.327 . S
C2681 H2704 0.950 . S
C2682 C2681 1.349 . S
C2682 C2694 1.349 . S
C2683 C2681 1.327 . S
C2683 C2699 1.429 . S
C2683 H2705 0.950 . S
C2684 H2680 0.949 . S
C2684 C2692 1.574 . S
C2684 C2700 1.368 . S
H2685 C2693 0.950 . S
H2686 C2691 0.950 . S
H2687 C2692 0.949 . S
H2688 C2694 0.950 . S
H2689 C2695 0.950 . S
H2690 C2696 0.949 . S
C2691 H2686 0.950 . S
C2691 C2693 1.327 . S
C2691 C2697 1.429 . S
C2692 C2684 1.574 . S
C2692 H2687 0.949 . S
C2692 C2698 1.368 . S
C2693 C2677 1.349 . S
C2693 H2685 0.950 . S
C2693 C2691 1.327 . S
C2694 C2682 1.349 . S
C2694 H2688 0.950 . S
C2694 C2695 1.327 . S
C2695 H2689 0.950 . S
C2695 C2694 1.327 . S
C2695 C2699 1.429 . S
C2696 C2679 1.574 . S
C2696 H2690 0.949 . S
C2696 C2700 1.368 . S
C2697 C2678 1.429 . S
C2697 C2691 1.429 . S
C2697 C2698 1.523 . S
C2698 C2679 1.368 . S
C2698 C2692 1.368 . S
C2698 C2697 1.523 . S
C2699 C2683 1.429 . S
C2699 C2695 1.429 . S
C2699 C2700 1.523 . S
C2700 C2684 1.368 . S
C2700 C2696 1.368 . S
C2700 C2699 1.523 . S
H2701 C2676 0.950 . S
H2702 C2678 0.950 . S
H2703 C2679 0.949 . S
H2704 C2681 0.950 . S
H2705 C2683 0.950 . S
C2706 C2707 1.349 . S
C2706 C2708 1.327 . S
C2706 H2731 0.950 . S
C2707 C2706 1.349 . S
C2707 C2723 1.349 . S
C2708 C2706 1.327 . S
C2708 C2727 1.429 . S
C2708 H2732 0.950 . S
C2709 C2726 1.574 . S
C2709 C2728 1.368 . S
C2709 H2733 0.949 . S
H2710 C2714 0.949 . S
C2711 C2712 1.349 . S
C2711 C2713 1.327 . S
C2711 H2734 0.950 . S
C2712 C2711 1.349 . S
C2712 C2724 1.349 . S
C2713 C2711 1.327 . S
C2713 C2729 1.429 . S
C2713 H2735 0.950 . S
C2714 H2710 0.949 . S
C2714 C2722 1.574 . S
C2714 C2730 1.368 . S
H2715 C2723 0.950 . S
H2716 C2721 0.950 . S
H2717 C2722 0.949 . S
H2718 C2724 0.950 . S
H2719 C2725 0.950 . S
H2720 C2726 0.949 . S
C2721 H2716 0.950 . S
C2721 C2723 1.327 . S
C2721 C2727 1.429 . S
C2722 C2714 1.574 . S
C2722 H2717 0.949 . S
C2722 C2728 1.368 . S
C2723 C2707 1.349 . S
C2723 H2715 0.950 . S
C2723 C2721 1.327 . S
C2724 C2712 1.349 . S
C2724 H2718 0.950 . S
C2724 C2725 1.327 . S
C2725 H2719 0.950 . S
C2725 C2724 1.327 . S
C2725 C2729 1.429 . S
C2726 C2709 1.574 . S
C2726 H2720 0.949 . S
C2726 C2730 1.368 . S
C2727 C2708 1.429 . S
C2727 C2721 1.429 . S
C2727 C2728 1.523 . S
C2728 C2709 1.368 . S
C2728 C2722 1.368 . S
C2728 C2727 1.523 . S
C2729 C2713 1.429 . S
C2729 C2725 1.429 . S
C2729 C2730 1.523 . S
C2730 C2714 1.368 . S
C2730 C2726 1.368 . S
C2730 C2729 1.523 . S
H2731 C2706 0.950 . S
H2732 C2708 0.950 . S
H2733 C2709 0.949 . S
H2734 C2711 0.950 . S
H2735 C2713 0.950 . S
C2736 C2737 1.349 . S
C2736 C2738 1.327 . S
C2736 H2761 0.950 . S
C2737 C2736 1.349 . S
C2737 C2753 1.349 . S
C2738 C2736 1.327 . S
C2738 C2757 1.429 . S
C2738 H2762 0.950 . S
C2739 C2756 1.574 1_565 S
C2739 C2758 1.368 . S
C2739 H2763 0.949 . S
H2740 C2744 0.949 . S
C2741 C2742 1.349 . S
C2741 C2743 1.327 . S
C2741 H2764 0.950 . S
C2742 C2741 1.349 . S
C2742 C2754 1.349 . S
C2743 C2741 1.327 . S
C2743 C2759 1.429 . S
C2743 H2765 0.950 . S
C2744 H2740 0.949 . S
C2744 C2752 1.574 1_545 S
C2744 C2760 1.368 . S
H2745 C2753 0.950 . S
H2746 C2751 0.950 . S
H2747 C2752 0.949 . S
H2748 C2754 0.950 . S
H2749 C2755 0.950 . S
H2750 C2756 0.949 . S
C2751 H2746 0.950 . S
C2751 C2753 1.327 . S
C2751 C2757 1.429 . S
C2752 C2744 1.574 1_565 S
C2752 H2747 0.949 . S
C2752 C2758 1.368 . S
C2753 C2737 1.349 . S
C2753 H2745 0.950 . S
C2753 C2751 1.327 . S
C2754 C2742 1.349 . S
C2754 H2748 0.950 . S
C2754 C2755 1.327 . S
C2755 H2749 0.950 . S
C2755 C2754 1.327 . S
C2755 C2759 1.429 . S
C2756 C2739 1.574 1_545 S
C2756 H2750 0.949 . S
C2756 C2760 1.368 . S
C2757 C2738 1.429 . S
C2757 C2751 1.429 . S
C2757 C2758 1.523 . S
C2758 C2739 1.368 . S
C2758 C2752 1.368 . S
C2758 C2757 1.523 . S
C2759 C2743 1.429 . S
C2759 C2755 1.429 . S
C2759 C2760 1.523 . S
C2760 C2744 1.368 . S
C2760 C2756 1.368 . S
C2760 C2759 1.523 . S
H2761 C2736 0.950 . S
H2762 C2738 0.950 . S
H2763 C2739 0.949 . S
H2764 C2741 0.950 . S
H2765 C2743 0.950 . S
C2766 C2767 1.349 . S
C2766 C2768 1.327 . S
C2766 H2791 0.950 . S
C2767 C2766 1.349 . S
C2767 C2783 1.349 . S
C2768 C2766 1.327 . S
C2768 C2787 1.429 . S
C2768 H2792 0.950 . S
C2769 C2786 1.574 . S
C2769 C2788 1.368 . S
C2769 H2793 0.949 . S
H2770 C2774 0.949 . S
C2771 C2772 1.349 . S
C2771 C2773 1.327 . S
C2771 H2794 0.950 . S
C2772 C2771 1.349 . S
C2772 C2784 1.349 . S
C2773 C2771 1.327 . S
C2773 C2789 1.429 . S
C2773 H2795 0.950 . S
C2774 H2770 0.949 . S
C2774 C2782 1.574 . S
C2774 C2790 1.368 . S
H2775 C2783 0.950 . S
H2776 C2781 0.950 . S
H2777 C2782 0.949 . S
H2778 C2784 0.950 . S
H2779 C2785 0.950 . S
H2780 C2786 0.949 . S
C2781 H2776 0.950 . S
C2781 C2783 1.327 . S
C2781 C2787 1.429 . S
C2782 C2774 1.574 . S
C2782 H2777 0.949 . S
C2782 C2788 1.368 . S
C2783 C2767 1.349 . S
C2783 H2775 0.950 . S
C2783 C2781 1.327 . S
C2784 C2772 1.349 . S
C2784 H2778 0.950 . S
C2784 C2785 1.327 . S
C2785 H2779 0.950 . S
C2785 C2784 1.327 . S
C2785 C2789 1.429 . S
C2786 C2769 1.574 . S
C2786 H2780 0.949 . S
C2786 C2790 1.368 . S
C2787 C2768 1.429 . S
C2787 C2781 1.429 . S
C2787 C2788 1.523 . S
C2788 C2769 1.368 . S
C2788 C2782 1.368 . S
C2788 C2787 1.523 . S
C2789 C2773 1.429 . S
C2789 C2785 1.429 . S
C2789 C2790 1.523 . S
C2790 C2774 1.368 . S
C2790 C2786 1.368 . S
C2790 C2789 1.523 . S
H2791 C2766 0.950 . S
H2792 C2768 0.950 . S
H2793 C2769 0.949 . S
H2794 C2771 0.950 . S
H2795 C2773 0.950 . S
C2796 C2797 1.349 . S
C2796 C2798 1.327 . S
C2796 H2821 0.950 . S
C2797 C2796 1.349 . S
C2797 C2813 1.349 1_554 S
C2798 C2796 1.327 . S
C2798 C2817 1.429 . S
C2798 H2822 0.950 . S
C2799 C2816 1.574 1_565 S
C2799 C2818 1.368 1_556 S
C2799 H2823 0.949 . S
H2800 C2804 0.949 . S
C2801 C2802 1.349 . S
C2801 C2803 1.327 . S
C2801 H2824 0.950 . S
C2802 C2801 1.349 . S
C2802 C2814 1.349 1_556 S
C2803 C2801 1.327 . S
C2803 C2819 1.429 . S
C2803 H2825 0.950 . S
C2804 H2800 0.949 . S
C2804 C2812 1.574 1_545 S
C2804 C2820 1.368 1_554 S
H2805 C2813 0.950 . S
H2806 C2811 0.950 . S
H2807 C2812 0.949 . S
H2808 C2814 0.950 . S
H2809 C2815 0.950 . S
H2810 C2816 0.949 . S
C2811 H2806 0.950 . S
C2811 C2813 1.327 . S
C2811 C2817 1.429 1_556 S
C2812 C2804 1.574 1_565 S
C2812 H2807 0.949 . S
C2812 C2818 1.368 . S
C2813 C2797 1.349 1_556 S
C2813 H2805 0.950 . S
C2813 C2811 1.327 . S
C2814 C2802 1.349 1_554 S
C2814 H2808 0.950 . S
C2814 C2815 1.327 . S
C2815 H2809 0.950 . S
C2815 C2814 1.327 . S
C2815 C2819 1.429 1_554 S
C2816 C2799 1.574 1_545 S
C2816 H2810 0.949 . S
C2816 C2820 1.368 . S
C2817 C2798 1.429 . S
C2817 C2811 1.429 1_554 S
C2817 C2818 1.523 . S
C2818 C2799 1.368 1_554 S
C2818 C2812 1.368 . S
C2818 C2817 1.523 . S
C2819 C2803 1.429 . S
C2819 C2815 1.429 1_556 S
C2819 C2820 1.523 . S
C2820 C2804 1.368 1_556 S
C2820 C2816 1.368 . S
C2820 C2819 1.523 . S
H2821 C2796 0.950 . S
H2822 C2798 0.950 . S
H2823 C2799 0.949 . S
H2824 C2801 0.950 . S
H2825 C2803 0.950 . S
C2826 C2827 1.349 . S
C2826 C2828 1.327 . S
C2826 H2851 0.950 . S
C2827 C2826 1.349 . S
C2827 C2843 1.349 . S
C2828 C2826 1.327 . S
C2828 C2847 1.429 . S
C2828 H2852 0.950 . S
C2829 C2846 1.574 . S
C2829 C2848 1.368 . S
C2829 H2853 0.949 . S
H2830 C2834 0.949 . S
C2831 C2832 1.349 . S
C2831 C2833 1.327 . S
C2831 H2854 0.950 . S
C2832 C2831 1.349 . S
C2832 C2844 1.349 . S
C2833 C2831 1.327 . S
C2833 C2849 1.429 . S
C2833 H2855 0.950 . S
C2834 H2830 0.949 . S
C2834 C2842 1.574 . S
C2834 C2850 1.368 . S
H2835 C2843 0.950 . S
H2836 C2841 0.950 . S
H2837 C2842 0.949 . S
H2838 C2844 0.950 . S
H2839 C2845 0.950 . S
H2840 C2846 0.949 . S
C2841 H2836 0.950 . S
C2841 C2843 1.327 . S
C2841 C2847 1.429 . S
C2842 C2834 1.574 . S
C2842 H2837 0.949 . S
C2842 C2848 1.368 . S
C2843 C2827 1.349 . S
C2843 H2835 0.950 . S
C2843 C2841 1.327 . S
C2844 C2832 1.349 . S
C2844 H2838 0.950 . S
C2844 C2845 1.327 . S
C2845 H2839 0.950 . S
C2845 C2844 1.327 . S
C2845 C2849 1.429 . S
C2846 C2829 1.574 . S
C2846 H2840 0.949 . S
C2846 C2850 1.368 . S
C2847 C2828 1.429 . S
C2847 C2841 1.429 . S
C2847 C2848 1.523 . S
C2848 C2829 1.368 . S
C2848 C2842 1.368 . S
C2848 C2847 1.523 . S
C2849 C2833 1.429 . S
C2849 C2845 1.429 . S
C2849 C2850 1.523 . S
C2850 C2834 1.368 . S
C2850 C2846 1.368 . S
C2850 C2849 1.523 . S
H2851 C2826 0.950 . S
H2852 C2828 0.950 . S
H2853 C2829 0.949 . S
H2854 C2831 0.950 . S
H2855 C2833 0.950 . S
C2856 C2857 1.349 . S
C2856 C2858 1.327 . S
C2856 H2881 0.950 . S
C2857 C2856 1.349 . S
C2857 C2873 1.349 . S
C2858 C2856 1.327 . S
C2858 C2877 1.429 . S
C2858 H2882 0.950 . S
C2859 C2876 1.574 1_545 S
C2859 C2878 1.368 . S
C2859 H2883 0.949 . S
H2860 C2864 0.949 . S
C2861 C2862 1.349 . S
C2861 C2863 1.327 . S
C2861 H2884 0.950 . S
C2862 C2861 1.349 . S
C2862 C2874 1.349 . S
C2863 C2861 1.327 . S
C2863 C2879 1.429 . S
C2863 H2885 0.950 . S
C2864 H2860 0.949 . S
C2864 C2872 1.574 1_565 S
C2864 C2880 1.368 . S
H2865 C2873 0.950 . S
H2866 C2871 0.950 . S
H2867 C2872 0.949 . S
H2868 C2874 0.950 . S
H2869 C2875 0.950 . S
H2870 C2876 0.949 . S
C2871 H2866 0.950 . S
C2871 C2873 1.327 . S
C2871 C2877 1.429 . S
C2872 C2864 1.574 1_545 S
C2872 H2867 0.949 . S
C2872 C2878 1.368 . S
C2873 C2857 1.349 . S
C2873 H2865 0.950 . S
C2873 C2871 1.327 . S
C2874 C2862 1.349 . S
C2874 H2868 0.950 . S
C2874 C2875 1.327 . S
C2875 H2869 0.950 . S
C2875 C2874 1.327 . S
C2875 C2879 1.429 . S
C2876 C2859 1.574 1_565 S
C2876 H2870 0.949 . S
C2876 C2880 1.368 . S
C2877 C2858 1.429 . S
C2877 C2871 1.429 . S
C2877 C2878 1.523 . S
C2878 C2859 1.368 . S
C2878 C2872 1.368 . S
C2878 C2877 1.523 . S
C2879 C2863 1.429 . S
C2879 C2875 1.429 . S
C2879 C2880 1.523 . S
C2880 C2864 1.368 . S
C2880 C2876 1.368 . S
C2880 C2879 1.523 . S
H2881 C2856 0.950 . S
H2882 C2858 0.950 . S
H2883 C2859 0.949 . S
H2884 C2861 0.950 . S
H2885 C2863 0.950 . S
C2886 C2887 1.349 . S
C2886 C2888 1.327 . S
C2886 H2911 0.950 . S
C2887 C2886 1.349 . S
C2887 C2903 1.349 . S
C2888 C2886 1.327 . S
C2888 C2907 1.429 . S
C2888 H2912 0.950 . S
C2889 C2906 1.574 . S
C2889 C2908 1.368 . S
C2889 H2913 0.949 . S
H2890 C2894 0.949 . S
C2891 C2892 1.349 . S
C2891 C2893 1.327 . S
C2891 H2914 0.950 . S
C2892 C2891 1.349 . S
C2892 C2904 1.349 . S
C2893 C2891 1.327 . S
C2893 C2909 1.429 . S
C2893 H2915 0.950 . S
C2894 H2890 0.949 . S
C2894 C2902 1.574 . S
C2894 C2910 1.368 . S
H2895 C2903 0.950 . S
H2896 C2901 0.950 . S
H2897 C2902 0.949 . S
H2898 C2904 0.950 . S
H2899 C2905 0.950 . S
H2900 C2906 0.949 . S
C2901 H2896 0.950 . S
C2901 C2903 1.327 . S
C2901 C2907 1.429 . S
C2902 C2894 1.574 . S
C2902 H2897 0.949 . S
C2902 C2908 1.368 . S
C2903 C2887 1.349 . S
C2903 H2895 0.950 . S
C2903 C2901 1.327 . S
C2904 C2892 1.349 . S
C2904 H2898 0.950 . S
C2904 C2905 1.327 . S
C2905 H2899 0.950 . S
C2905 C2904 1.327 . S
C2905 C2909 1.429 . S
C2906 C2889 1.574 . S
C2906 H2900 0.949 . S
C2906 C2910 1.368 . S
C2907 C2888 1.429 . S
C2907 C2901 1.429 . S
C2907 C2908 1.523 . S
C2908 C2889 1.368 . S
C2908 C2902 1.368 . S
C2908 C2907 1.523 . S
C2909 C2893 1.429 . S
C2909 C2905 1.429 . S
C2909 C2910 1.523 . S
C2910 C2894 1.368 . S
C2910 C2906 1.368 . S
C2910 C2909 1.523 . S
H2911 C2886 0.950 . S
H2912 C2888 0.950 . S
H2913 C2889 0.949 . S
H2914 C2891 0.950 . S
H2915 C2893 0.950 . S
C2916 C2917 1.349 1_556 S
C2916 C2918 1.327 . S
C2916 H2941 0.950 . S
C2917 C2916 1.349 1_554 S
C2917 C2933 1.349 . S
C2918 C2916 1.327 . S
C2918 C2937 1.429 1_556 S
C2918 H2942 0.950 . S
C2919 C2936 1.574 1_565 S
C2919 C2938 1.368 . S
C2919 H2943 0.949 . S
H2920 C2924 0.949 . S
C2921 C2922 1.349 1_554 S
C2921 C2923 1.327 . S
C2921 H2944 0.950 . S
C2922 C2921 1.349 1_556 S
C2922 C2934 1.349 . S
C2923 C2921 1.327 . S
C2923 C2939 1.429 1_554 S
C2923 H2945 0.950 . S
C2924 H2920 0.949 . S
C2924 C2932 1.574 1_545 S
C2924 C2940 1.368 . S
H2925 C2933 0.950 . S
H2926 C2931 0.950 . S
H2927 C2932 0.949 . S
H2928 C2934 0.950 . S
H2929 C2935 0.950 . S
H2930 C2936 0.949 . S
C2931 H2926 0.950 . S
C2931 C2933 1.327 . S
C2931 C2937 1.429 . S
C2932 C2924 1.574 1_565 S
C2932 H2927 0.949 . S
C2932 C2938 1.368 1_556 S
C2933 C2917 1.349 . S
C2933 H2925 0.950 . S
C2933 C2931 1.327 . S
C2934 C2922 1.349 . S
C2934 H2928 0.950 . S
C2934 C2935 1.327 . S
C2935 H2929 0.950 . S
C2935 C2934 1.327 . S
C2935 C2939 1.429 . S
C2936 C2919 1.574 1_545 S
C2936 H2930 0.949 . S
C2936 C2940 1.368 1_554 S
C2937 C2918 1.429 1_554 S
C2937 C2931 1.429 . S
C2937 C2938 1.523 . S
C2938 C2919 1.368 . S
C2938 C2932 1.368 1_554 S
C2938 C2937 1.523 . S
C2939 C2923 1.429 1_556 S
C2939 C2935 1.429 . S
C2939 C2940 1.523 . S
C2940 C2924 1.368 . S
C2940 C2936 1.368 1_556 S
C2940 C2939 1.523 . S
H2941 C2916 0.950 . S
H2942 C2918 0.950 . S
H2943 C2919 0.949 . S
H2944 C2921 0.950 . S
H2945 C2923 0.950 . S
C2946 C2947 1.349 . S
C2946 C2948 1.327 . S
C2946 H2971 0.950 . S
C2947 C2946 1.349 . S
C2947 C2963 1.349 . S
C2948 C2946 1.327 . S
C2948 C2967 1.429 . S
C2948 H2972 0.950 . S
C2949 C2966 1.574 . S
C2949 C2968 1.368 . S
C2949 H2973 0.949 . S
H2950 C2954 0.949 . S
C2951 C2952 1.349 . S
C2951 C2953 1.327 . S
C2951 H2974 0.950 . S
C2952 C2951 1.349 . S
C2952 C2964 1.349 . S
C2953 C2951 1.327 . S
C2953 C2969 1.429 . S
C2953 H2975 0.950 . S
C2954 H2950 0.949 . S
C2954 C2962 1.574 . S
C2954 C2970 1.368 . S
H2955 C2963 0.950 . S
H2956 C2961 0.950 . S
H2957 C2962 0.949 . S
H2958 C2964 0.950 . S
H2959 C2965 0.950 . S
H2960 C2966 0.949 . S
C2961 H2956 0.950 . S
C2961 C2963 1.327 . S
C2961 C2967 1.429 . S
C2962 C2954 1.574 . S
C2962 H2957 0.949 . S
C2962 C2968 1.368 . S
C2963 C2947 1.349 . S
C2963 H2955 0.950 . S
C2963 C2961 1.327 . S
C2964 C2952 1.349 . S
C2964 H2958 0.950 . S
C2964 C2965 1.327 . S
C2965 H2959 0.950 . S
C2965 C2964 1.327 . S
C2965 C2969 1.429 . S
C2966 C2949 1.574 . S
C2966 H2960 0.949 . S
C2966 C2970 1.368 . S
C2967 C2948 1.429 . S
C2967 C2961 1.429 . S
C2967 C2968 1.523 . S
C2968 C2949 1.368 . S
C2968 C2962 1.368 . S
C2968 C2967 1.523 . S
C2969 C2953 1.429 . S
C2969 C2965 1.429 . S
C2969 C2970 1.523 . S
C2970 C2954 1.368 . S
C2970 C2966 1.368 . S
C2970 C2969 1.523 . S
H2971 C2946 0.950 . S
H2972 C2948 0.950 . S
H2973 C2949 0.949 . S
H2974 C2951 0.950 . S
H2975 C2953 0.950 . S
C2976 C2977 1.349 . S
C2976 C2978 1.327 . S
C2976 H3001 0.950 . S
C2977 C2976 1.349 . S
C2977 C2993 1.349 . S
C2978 C2976 1.327 . S
C2978 C2997 1.429 . S
C2978 H3002 0.950 . S
C2979 C2996 1.574 1_455 S
C2979 C2998 1.368 . S
C2979 H3003 0.949 1_554 S
H2980 C2984 0.949 . S
C2981 C2982 1.349 . S
C2981 C2983 1.327 . S
C2981 H3004 0.950 1_554 S
C2982 C2981 1.349 . S
C2982 C2994 1.349 . S
C2983 C2981 1.327 . S
C2983 C2999 1.429 . S
C2983 H3005 0.950 1_554 S
C2984 H2980 0.949 . S
C2984 C2992 1.574 1_655 S
C2984 C3000 1.368 . S
H2985 C2993 0.950 1_556 S
H2986 C2991 0.950 1_556 S
H2987 C2992 0.949 . S
H2988 C2994 0.950 . S
H2989 C2995 0.950 . S
H2990 C2996 0.949 1_556 S
C2991 H2986 0.950 1_554 S
C2991 C2993 1.327 . S
C2991 C2997 1.429 . S
C2992 C2984 1.574 1_455 S
C2992 H2987 0.949 . S
C2992 C2998 1.368 . S
C2993 C2977 1.349 . S
C2993 H2985 0.950 1_554 S
C2993 C2991 1.327 . S
C2994 C2982 1.349 . S
C2994 H2988 0.950 . S
C2994 C2995 1.327 . S
C2995 H2989 0.950 . S
C2995 C2994 1.327 . S
C2995 C2999 1.429 . S
C2996 C2979 1.574 1_655 S
C2996 H2990 0.949 1_554 S
C2996 C3000 1.368 . S
C2997 C2978 1.429 . S
C2997 C2991 1.429 . S
C2997 C2998 1.523 . S
C2998 C2979 1.368 . S
C2998 C2992 1.368 . S
C2998 C2997 1.523 . S
C2999 C2983 1.429 . S
C2999 C2995 1.429 . S
C2999 C3000 1.523 . S
C3000 C2984 1.368 . S
C3000 C2996 1.368 . S
C3000 C2999 1.523 . S
H3001 C2976 0.950 . S
H3002 C2978 0.950 . S
H3003 C2979 0.949 1_556 S
H3004 C2981 0.950 1_556 S
H3005 C2983 0.950 1_556 S
C3006 C3007 1.349 . S
C3006 C3008 1.327 . S
C3006 H3031 0.950 . S
C3007 C3006 1.349 . S
C3007 C3023 1.349 . S
C3008 C3006 1.327 . S
C3008 C3027 1.429 . S
C3008 H3032 0.950 . S
C3009 C3026 1.574 . S
C3009 C3028 1.368 . S
C3009 H3033 0.949 . S
H3010 C3014 0.949 . S
C3011 C3012 1.349 . S
C3011 C3013 1.327 . S
C3011 H3034 0.950 . S
C3012 C3011 1.349 . S
C3012 C3024 1.349 . S
C3013 C3011 1.327 . S
C3013 C3029 1.429 . S
C3013 H3035 0.950 . S
C3014 H3010 0.949 . S
C3014 C3022 1.574 . S
C3014 C3030 1.368 . S
H3015 C3023 0.950 . S
H3016 C3021 0.950 . S
H3017 C3022 0.949 . S
H3018 C3024 0.950 . S
H3019 C3025 0.950 . S
H3020 C3026 0.949 . S
C3021 H3016 0.950 . S
C3021 C3023 1.327 . S
C3021 C3027 1.429 . S
C3022 C3014 1.574 . S
C3022 H3017 0.949 . S
C3022 C3028 1.368 . S
C3023 C3007 1.349 . S
C3023 H3015 0.950 . S
C3023 C3021 1.327 . S
C3024 C3012 1.349 . S
C3024 H3018 0.950 . S
C3024 C3025 1.327 . S
C3025 H3019 0.950 . S
C3025 C3024 1.327 . S
C3025 C3029 1.429 . S
C3026 C3009 1.574 . S
C3026 H3020 0.949 . S
C3026 C3030 1.368 . S
C3027 C3008 1.429 . S
C3027 C3021 1.429 . S
C3027 C3028 1.523 . S
C3028 C3009 1.368 . S
C3028 C3022 1.368 . S
C3028 C3027 1.523 . S
C3029 C3013 1.429 . S
C3029 C3025 1.429 . S
C3029 C3030 1.523 . S
C3030 C3014 1.368 . S
C3030 C3026 1.368 . S
C3030 C3029 1.523 . S
H3031 C3006 0.950 . S
H3032 C3008 0.950 . S
H3033 C3009 0.949 . S
H3034 C3011 0.950 . S
H3035 C3013 0.950 . S
C3036 C3037 1.349 . S
C3036 C3038 1.327 . S
C3036 H3061 0.950 . S
C3037 C3036 1.349 . S
C3037 C3053 1.349 . S
C3038 C3036 1.327 . S
C3038 C3057 1.429 . S
C3038 H3062 0.950 . S
C3039 C3056 1.574 . S
C3039 C3058 1.368 . S
C3039 H3063 0.949 . S
H3040 C3044 0.949 . S
C3041 C3042 1.349 . S
C3041 C3043 1.327 . S
C3041 H3064 0.950 . S
C3042 C3041 1.349 . S
C3042 C3054 1.349 . S
C3043 C3041 1.327 . S
C3043 C3059 1.429 . S
C3043 H3065 0.950 . S
C3044 H3040 0.949 . S
C3044 C3052 1.574 . S
C3044 C3060 1.368 . S
H3045 C3053 0.950 . S
H3046 C3051 0.950 . S
H3047 C3052 0.949 . S
H3048 C3054 0.950 . S
H3049 C3055 0.950 . S
H3050 C3056 0.949 . S
C3051 H3046 0.950 . S
C3051 C3053 1.327 . S
C3051 C3057 1.429 . S
C3052 C3044 1.574 . S
C3052 H3047 0.949 . S
C3052 C3058 1.368 . S
C3053 C3037 1.349 . S
C3053 H3045 0.950 . S
C3053 C3051 1.327 . S
C3054 C3042 1.349 . S
C3054 H3048 0.950 . S
C3054 C3055 1.327 . S
C3055 H3049 0.950 . S
C3055 C3054 1.327 . S
C3055 C3059 1.429 . S
C3056 C3039 1.574 . S
C3056 H3050 0.949 . S
C3056 C3060 1.368 . S
C3057 C3038 1.429 . S
C3057 C3051 1.429 . S
C3057 C3058 1.523 . S
C3058 C3039 1.368 . S
C3058 C3052 1.368 . S
C3058 C3057 1.523 . S
C3059 C3043 1.429 . S
C3059 C3055 1.429 . S
C3059 C3060 1.523 . S
C3060 C3044 1.368 . S
C3060 C3056 1.368 . S
C3060 C3059 1.523 . S
H3061 C3036 0.950 . S
H3062 C3038 0.950 . S
H3063 C3039 0.949 . S
H3064 C3041 0.950 . S
H3065 C3043 0.950 . S
C3066 C3067 1.349 . S
C3066 C3068 1.327 . S
C3066 H3091 0.950 . S
C3067 C3066 1.349 . S
C3067 C3083 1.349 . S
C3068 C3066 1.327 . S
C3068 C3087 1.429 . S
C3068 H3092 0.950 . S
C3069 C3086 1.574 . S
C3069 C3088 1.368 . S
C3069 H3093 0.949 . S
H3070 C3074 0.949 . S
C3071 C3072 1.349 . S
C3071 C3073 1.327 . S
C3071 H3094 0.950 . S
C3072 C3071 1.349 . S
C3072 C3084 1.349 . S
C3073 C3071 1.327 . S
C3073 C3089 1.429 . S
C3073 H3095 0.950 . S
C3074 H3070 0.949 . S
C3074 C3082 1.574 . S
C3074 C3090 1.368 . S
H3075 C3083 0.950 . S
H3076 C3081 0.950 . S
H3077 C3082 0.949 . S
H3078 C3084 0.950 . S
H3079 C3085 0.950 . S
H3080 C3086 0.949 . S
C3081 H3076 0.950 . S
C3081 C3083 1.327 . S
C3081 C3087 1.429 . S
C3082 C3074 1.574 . S
C3082 H3077 0.949 . S
C3082 C3088 1.368 . S
C3083 C3067 1.349 . S
C3083 H3075 0.950 . S
C3083 C3081 1.327 . S
C3084 C3072 1.349 . S
C3084 H3078 0.950 . S
C3084 C3085 1.327 . S
C3085 H3079 0.950 . S
C3085 C3084 1.327 . S
C3085 C3089 1.429 . S
C3086 C3069 1.574 . S
C3086 H3080 0.949 . S
C3086 C3090 1.368 . S
C3087 C3068 1.429 . S
C3087 C3081 1.429 . S
C3087 C3088 1.523 . S
C3088 C3069 1.368 . S
C3088 C3082 1.368 . S
C3088 C3087 1.523 . S
C3089 C3073 1.429 . S
C3089 C3085 1.429 . S
C3089 C3090 1.523 . S
C3090 C3074 1.368 . S
C3090 C3086 1.368 . S
C3090 C3089 1.523 . S
H3091 C3066 0.950 . S
H3092 C3068 0.950 . S
H3093 C3069 0.949 . S
H3094 C3071 0.950 . S
H3095 C3073 0.950 . S
C3096 C3097 1.349 . S
C3096 C3098 1.327 . S
C3096 H3121 0.950 1_556 S
C3097 C3096 1.349 . S
C3097 C3113 1.349 . S
C3098 C3096 1.327 . S
C3098 C3117 1.429 . S
C3098 H3122 0.950 1_556 S
C3099 C3116 1.574 1_655 S
C3099 C3118 1.368 . S
C3099 H3123 0.949 . S
H3100 C3104 0.949 1_554 S
C3101 C3102 1.349 . S
C3101 C3103 1.327 . S
C3101 H3124 0.950 . S
C3102 C3101 1.349 . S
C3102 C3114 1.349 . S
C3103 C3101 1.327 . S
C3103 C3119 1.429 . S
C3103 H3125 0.950 . S
C3104 H3100 0.949 1_556 S
C3104 C3112 1.574 1_455 S
C3104 C3120 1.368 . S
H3105 C3113 0.950 . S
H3106 C3111 0.950 . S
H3107 C3112 0.949 1_554 S
H3108 C3114 0.950 1_554 S
H3109 C3115 0.950 1_554 S
H3110 C3116 0.949 . S
C3111 H3106 0.950 . S
C3111 C3113 1.327 . S
C3111 C3117 1.429 . S
C3112 C3104 1.574 1_655 S
C3112 H3107 0.949 1_556 S
C3112 C3118 1.368 . S
C3113 C3097 1.349 . S
C3113 H3105 0.950 . S
C3113 C3111 1.327 . S
C3114 C3102 1.349 . S
C3114 H3108 0.950 1_556 S
C3114 C3115 1.327 . S
C3115 H3109 0.950 1_556 S
C3115 C3114 1.327 . S
C3115 C3119 1.429 . S
C3116 C3099 1.574 1_455 S
C3116 H3110 0.949 . S
C3116 C3120 1.368 . S
C3117 C3098 1.429 . S
C3117 C3111 1.429 . S
C3117 C3118 1.523 . S
C3118 C3099 1.368 . S
C3118 C3112 1.368 . S
C3118 C3117 1.523 . S
C3119 C3103 1.429 . S
C3119 C3115 1.429 . S
C3119 C3120 1.523 . S
C3120 C3104 1.368 . S
C3120 C3116 1.368 . S
C3120 C3119 1.523 . S
H3121 C3096 0.950 1_554 S
H3122 C3098 0.950 1_554 S
H3123 C3099 0.949 . S
H3124 C3101 0.950 . S
H3125 C3103 0.950 . S
C3126 C3127 1.349 . S
C3126 C3128 1.327 . S
C3126 H3151 0.950 . S
C3127 C3126 1.349 . S
C3127 C3143 1.349 . S
C3128 C3126 1.327 . S
C3128 C3147 1.429 . S
C3128 H3152 0.950 . S
C3129 C3146 1.574 . S
C3129 C3148 1.368 . S
C3129 H3153 0.949 . S
H3130 C3134 0.949 . S
C3131 C3132 1.349 . S
C3131 C3133 1.327 . S
C3131 H3154 0.950 . S
C3132 C3131 1.349 . S
C3132 C3144 1.349 . S
C3133 C3131 1.327 . S
C3133 C3149 1.429 . S
C3133 H3155 0.950 . S
C3134 H3130 0.949 . S
C3134 C3142 1.574 . S
C3134 C3150 1.368 . S
H3135 C3143 0.950 . S
H3136 C3141 0.950 . S
H3137 C3142 0.949 . S
H3138 C3144 0.950 . S
H3139 C3145 0.950 . S
H3140 C3146 0.949 . S
C3141 H3136 0.950 . S
C3141 C3143 1.327 . S
C3141 C3147 1.429 . S
C3142 C3134 1.574 . S
C3142 H3137 0.949 . S
C3142 C3148 1.368 . S
C3143 C3127 1.349 . S
C3143 H3135 0.950 . S
C3143 C3141 1.327 . S
C3144 C3132 1.349 . S
C3144 H3138 0.950 . S
C3144 C3145 1.327 . S
C3145 H3139 0.950 . S
C3145 C3144 1.327 . S
C3145 C3149 1.429 . S
C3146 C3129 1.574 . S
C3146 H3140 0.949 . S
C3146 C3150 1.368 . S
C3147 C3128 1.429 . S
C3147 C3141 1.429 . S
C3147 C3148 1.523 . S
C3148 C3129 1.368 . S
C3148 C3142 1.368 . S
C3148 C3147 1.523 . S
C3149 C3133 1.429 . S
C3149 C3145 1.429 . S
C3149 C3150 1.523 . S
C3150 C3134 1.368 . S
C3150 C3146 1.368 . S
C3150 C3149 1.523 . S
H3151 C3126 0.950 . S
H3152 C3128 0.950 . S
H3153 C3129 0.949 . S
H3154 C3131 0.950 . S
H3155 C3133 0.950 . S
C3156 C3157 1.349 . S
C3156 C3158 1.327 . S
C3156 H3181 0.950 . S
C3157 C3156 1.349 . S
C3157 C3173 1.349 . S
C3158 C3156 1.327 . S
C3158 C3177 1.429 . S
C3158 H3182 0.950 . S
C3159 C3176 1.574 . S
C3159 C3178 1.368 . S
C3159 H3183 0.949 . S
H3160 C3164 0.949 . S
C3161 C3162 1.349 . S
C3161 C3163 1.327 . S
C3161 H3184 0.950 . S
C3162 C3161 1.349 . S
C3162 C3174 1.349 . S
C3163 C3161 1.327 . S
C3163 C3179 1.429 . S
C3163 H3185 0.950 . S
C3164 H3160 0.949 . S
C3164 C3172 1.574 . S
C3164 C3180 1.368 . S
H3165 C3173 0.950 . S
H3166 C3171 0.950 . S
H3167 C3172 0.949 . S
H3168 C3174 0.950 . S
H3169 C3175 0.950 . S
H3170 C3176 0.949 . S
C3171 H3166 0.950 . S
C3171 C3173 1.327 . S
C3171 C3177 1.429 . S
C3172 C3164 1.574 . S
C3172 H3167 0.949 . S
C3172 C3178 1.368 . S
C3173 C3157 1.349 . S
C3173 H3165 0.950 . S
C3173 C3171 1.327 . S
C3174 C3162 1.349 . S
C3174 H3168 0.950 . S
C3174 C3175 1.327 . S
C3175 H3169 0.950 . S
C3175 C3174 1.327 . S
C3175 C3179 1.429 . S
C3176 C3159 1.574 . S
C3176 H3170 0.949 . S
C3176 C3180 1.368 . S
C3177 C3158 1.429 . S
C3177 C3171 1.429 . S
C3177 C3178 1.523 . S
C3178 C3159 1.368 . S
C3178 C3172 1.368 . S
C3178 C3177 1.523 . S
C3179 C3163 1.429 . S
C3179 C3175 1.429 . S
C3179 C3180 1.523 . S
C3180 C3164 1.368 . S
C3180 C3176 1.368 . S
C3180 C3179 1.523 . S
H3181 C3156 0.950 . S
H3182 C3158 0.950 . S
H3183 C3159 0.949 . S
H3184 C3161 0.950 . S
H3185 C3163 0.950 . S
C3186 C3187 1.349 . S
C3186 C3188 1.327 . S
C3186 H3211 0.950 . S
C3187 C3186 1.349 . S
C3187 C3203 1.349 . S
C3188 C3186 1.327 . S
C3188 C3207 1.429 . S
C3188 H3212 0.950 . S
C3189 C3206 1.574 . S
C3189 C3208 1.368 . S
C3189 H3213 0.949 . S
H3190 C3194 0.949 . S
C3191 C3192 1.349 . S
C3191 C3193 1.327 . S
C3191 H3214 0.950 . S
C3192 C3191 1.349 . S
C3192 C3204 1.349 . S
C3193 C3191 1.327 . S
C3193 C3209 1.429 . S
C3193 H3215 0.950 . S
C3194 H3190 0.949 . S
C3194 C3202 1.574 . S
C3194 C3210 1.368 . S
H3195 C3203 0.950 . S
H3196 C3201 0.950 . S
H3197 C3202 0.949 . S
H3198 C3204 0.950 . S
H3199 C3205 0.950 . S
H3200 C3206 0.949 . S
C3201 H3196 0.950 . S
C3201 C3203 1.327 . S
C3201 C3207 1.429 . S
C3202 C3194 1.574 . S
C3202 H3197 0.949 . S
C3202 C3208 1.368 . S
C3203 C3187 1.349 . S
C3203 H3195 0.950 . S
C3203 C3201 1.327 . S
C3204 C3192 1.349 . S
C3204 H3198 0.950 . S
C3204 C3205 1.327 . S
C3205 H3199 0.950 . S
C3205 C3204 1.327 . S
C3205 C3209 1.429 . S
C3206 C3189 1.574 . S
C3206 H3200 0.949 . S
C3206 C3210 1.368 . S
C3207 C3188 1.429 . S
C3207 C3201 1.429 . S
C3207 C3208 1.523 . S
C3208 C3189 1.368 . S
C3208 C3202 1.368 . S
C3208 C3207 1.523 . S
C3209 C3193 1.429 . S
C3209 C3205 1.429 . S
C3209 C3210 1.523 . S
C3210 C3194 1.368 . S
C3210 C3206 1.368 . S
C3210 C3209 1.523 . S
H3211 C3186 0.950 . S
H3212 C3188 0.950 . S
H3213 C3189 0.949 . S
H3214 C3191 0.950 . S
H3215 C3193 0.950 . S
C3216 C3217 1.349 . S
C3216 C3218 1.327 . S
C3216 H3241 0.950 . S
C3217 C3216 1.349 . S
C3217 C3233 1.349 . S
C3218 C3216 1.327 . S
C3218 C3237 1.429 . S
C3218 H3242 0.950 . S
C3219 C3236 1.574 . S
C3219 C3238 1.368 . S
C3219 H3243 0.949 . S
H3220 C3224 0.949 . S
C3221 C3222 1.349 . S
C3221 C3223 1.327 . S
C3221 H3244 0.950 . S
C3222 C3221 1.349 . S
C3222 C3234 1.349 . S
C3223 C3221 1.327 . S
C3223 C3239 1.429 . S
C3223 H3245 0.950 . S
C3224 H3220 0.949 . S
C3224 C3232 1.574 . S
C3224 C3240 1.368 . S
H3225 C3233 0.950 . S
H3226 C3231 0.950 . S
H3227 C3232 0.949 . S
H3228 C3234 0.950 . S
H3229 C3235 0.950 . S
H3230 C3236 0.949 . S
C3231 H3226 0.950 . S
C3231 C3233 1.327 . S
C3231 C3237 1.429 . S
C3232 C3224 1.574 . S
C3232 H3227 0.949 . S
C3232 C3238 1.368 . S
C3233 C3217 1.349 . S
C3233 H3225 0.950 . S
C3233 C3231 1.327 . S
C3234 C3222 1.349 . S
C3234 H3228 0.950 . S
C3234 C3235 1.327 . S
C3235 H3229 0.950 . S
C3235 C3234 1.327 . S
C3235 C3239 1.429 . S
C3236 C3219 1.574 . S
C3236 H3230 0.949 . S
C3236 C3240 1.368 . S
C3237 C3218 1.429 . S
C3237 C3231 1.429 . S
C3237 C3238 1.523 . S
C3238 C3219 1.368 . S
C3238 C3232 1.368 . S
C3238 C3237 1.523 . S
C3239 C3223 1.429 . S
C3239 C3235 1.429 . S
C3239 C3240 1.523 . S
C3240 C3224 1.368 . S
C3240 C3236 1.368 . S
C3240 C3239 1.523 . S
H3241 C3216 0.950 . S
H3242 C3218 0.950 . S
H3243 C3219 0.949 . S
H3244 C3221 0.950 . S
H3245 C3223 0.950 . S
C3246 C3247 1.349 . S
C3246 C3248 1.327 . S
C3246 H3271 0.950 . S
C3247 C3246 1.349 . S
C3247 C3263 1.349 . S
C3248 C3246 1.327 . S
C3248 C3267 1.429 . S
C3248 H3272 0.950 . S
C3249 C3266 1.574 . S
C3249 C3268 1.368 . S
C3249 H3273 0.949 . S
H3250 C3254 0.949 . S
C3251 C3252 1.349 . S
C3251 C3253 1.327 . S
C3251 H3274 0.950 . S
C3252 C3251 1.349 . S
C3252 C3264 1.349 . S
C3253 C3251 1.327 . S
C3253 C3269 1.429 . S
C3253 H3275 0.950 . S
C3254 H3250 0.949 . S
C3254 C3262 1.574 . S
C3254 C3270 1.368 . S
H3255 C3263 0.950 . S
H3256 C3261 0.950 . S
H3257 C3262 0.949 . S
H3258 C3264 0.950 . S
H3259 C3265 0.950 . S
H3260 C3266 0.949 . S
C3261 H3256 0.950 . S
C3261 C3263 1.327 . S
C3261 C3267 1.429 . S
C3262 C3254 1.574 . S
C3262 H3257 0.949 . S
C3262 C3268 1.368 . S
C3263 C3247 1.349 . S
C3263 H3255 0.950 . S
C3263 C3261 1.327 . S
C3264 C3252 1.349 . S
C3264 H3258 0.950 . S
C3264 C3265 1.327 . S
C3265 H3259 0.950 . S
C3265 C3264 1.327 . S
C3265 C3269 1.429 . S
C3266 C3249 1.574 . S
C3266 H3260 0.949 . S
C3266 C3270 1.368 . S
C3267 C3248 1.429 . S
C3267 C3261 1.429 . S
C3267 C3268 1.523 . S
C3268 C3249 1.368 . S
C3268 C3262 1.368 . S
C3268 C3267 1.523 . S
C3269 C3253 1.429 . S
C3269 C3265 1.429 . S
C3269 C3270 1.523 . S
C3270 C3254 1.368 . S
C3270 C3266 1.368 . S
C3270 C3269 1.523 . S
H3271 C3246 0.950 . S
H3272 C3248 0.950 . S
H3273 C3249 0.949 . S
H3274 C3251 0.950 . S
H3275 C3253 0.950 . S
C3276 C3277 1.349 . S
C3276 C3278 1.327 . S
C3276 H3301 0.950 . S
C3277 C3276 1.349 . S
C3277 C3293 1.349 . S
C3278 C3276 1.327 . S
C3278 C3297 1.429 . S
C3278 H3302 0.950 . S
C3279 C3296 1.574 . S
C3279 C3298 1.368 . S
C3279 H3303 0.949 . S
H3280 C3284 0.949 . S
C3281 C3282 1.349 . S
C3281 C3283 1.327 . S
C3281 H3304 0.950 . S
C3282 C3281 1.349 . S
C3282 C3294 1.349 . S
C3283 C3281 1.327 . S
C3283 C3299 1.429 . S
C3283 H3305 0.950 . S
C3284 H3280 0.949 . S
C3284 C3292 1.574 . S
C3284 C3300 1.368 . S
H3285 C3293 0.950 . S
H3286 C3291 0.950 . S
H3287 C3292 0.949 . S
H3288 C3294 0.950 . S
H3289 C3295 0.950 . S
H3290 C3296 0.949 . S
C3291 H3286 0.950 . S
C3291 C3293 1.327 . S
C3291 C3297 1.429 . S
C3292 C3284 1.574 . S
C3292 H3287 0.949 . S
C3292 C3298 1.368 . S
C3293 C3277 1.349 . S
C3293 H3285 0.950 . S
C3293 C3291 1.327 . S
C3294 C3282 1.349 . S
C3294 H3288 0.950 . S
C3294 C3295 1.327 . S
C3295 H3289 0.950 . S
C3295 C3294 1.327 . S
C3295 C3299 1.429 . S
C3296 C3279 1.574 . S
C3296 H3290 0.949 . S
C3296 C3300 1.368 . S
C3297 C3278 1.429 . S
C3297 C3291 1.429 . S
C3297 C3298 1.523 . S
C3298 C3279 1.368 . S
C3298 C3292 1.368 . S
C3298 C3297 1.523 . S
C3299 C3283 1.429 . S
C3299 C3295 1.429 . S
C3299 C3300 1.523 . S
C3300 C3284 1.368 . S
C3300 C3296 1.368 . S
C3300 C3299 1.523 . S
H3301 C3276 0.950 . S
H3302 C3278 0.950 . S
H3303 C3279 0.949 . S
H3304 C3281 0.950 . S
H3305 C3283 0.950 . S
C3306 C3307 1.349 . S
C3306 C3308 1.327 . S
C3306 H3331 0.950 . S
C3307 C3306 1.349 . S
C3307 C3323 1.349 . S
C3308 C3306 1.327 . S
C3308 C3327 1.429 . S
C3308 H3332 0.950 . S
C3309 C3326 1.574 . S
C3309 C3328 1.368 . S
C3309 H3333 0.949 . S
H3310 C3314 0.949 . S
C3311 C3312 1.349 . S
C3311 C3313 1.327 . S
C3311 H3334 0.950 . S
C3312 C3311 1.349 . S
C3312 C3324 1.349 . S
C3313 C3311 1.327 . S
C3313 C3329 1.429 . S
C3313 H3335 0.950 . S
C3314 H3310 0.949 . S
C3314 C3322 1.574 . S
C3314 C3330 1.368 . S
H3315 C3323 0.950 . S
H3316 C3321 0.950 . S
H3317 C3322 0.949 . S
H3318 C3324 0.950 . S
H3319 C3325 0.950 . S
H3320 C3326 0.949 . S
C3321 H3316 0.950 . S
C3321 C3323 1.327 . S
C3321 C3327 1.429 . S
C3322 C3314 1.574 . S
C3322 H3317 0.949 . S
C3322 C3328 1.368 . S
C3323 C3307 1.349 . S
C3323 H3315 0.950 . S
C3323 C3321 1.327 . S
C3324 C3312 1.349 . S
C3324 H3318 0.950 . S
C3324 C3325 1.327 . S
C3325 H3319 0.950 . S
C3325 C3324 1.327 . S
C3325 C3329 1.429 . S
C3326 C3309 1.574 . S
C3326 H3320 0.949 . S
C3326 C3330 1.368 . S
C3327 C3308 1.429 . S
C3327 C3321 1.429 . S
C3327 C3328 1.523 . S
C3328 C3309 1.368 . S
C3328 C3322 1.368 . S
C3328 C3327 1.523 . S
C3329 C3313 1.429 . S
C3329 C3325 1.429 . S
C3329 C3330 1.523 . S
C3330 C3314 1.368 . S
C3330 C3326 1.368 . S
C3330 C3329 1.523 . S
H3331 C3306 0.950 . S
H3332 C3308 0.950 . S
H3333 C3309 0.949 . S
H3334 C3311 0.950 . S
H3335 C3313 0.950 . S
C3336 C3337 1.349 . S
C3336 C3338 1.327 . S
C3336 H3361 0.950 . S
C3337 C3336 1.349 . S
C3337 C3353 1.349 . S
C3338 C3336 1.327 . S
C3338 C3357 1.429 . S
C3338 H3362 0.950 . S
C3339 C3356 1.574 . S
C3339 C3358 1.368 . S
C3339 H3363 0.949 . S
H3340 C3344 0.949 . S
C3341 C3342 1.349 . S
C3341 C3343 1.327 . S
C3341 H3364 0.950 . S
C3342 C3341 1.349 . S
C3342 C3354 1.349 . S
C3343 C3341 1.327 . S
C3343 C3359 1.429 . S
C3343 H3365 0.950 . S
C3344 H3340 0.949 . S
C3344 C3352 1.574 . S
C3344 C3360 1.368 . S
H3345 C3353 0.950 . S
H3346 C3351 0.950 . S
H3347 C3352 0.949 . S
H3348 C3354 0.950 . S
H3349 C3355 0.950 . S
H3350 C3356 0.949 . S
C3351 H3346 0.950 . S
C3351 C3353 1.327 . S
C3351 C3357 1.429 . S
C3352 C3344 1.574 . S
C3352 H3347 0.949 . S
C3352 C3358 1.368 . S
C3353 C3337 1.349 . S
C3353 H3345 0.950 . S
C3353 C3351 1.327 . S
C3354 C3342 1.349 . S
C3354 H3348 0.950 . S
C3354 C3355 1.327 . S
C3355 H3349 0.950 . S
C3355 C3354 1.327 . S
C3355 C3359 1.429 . S
C3356 C3339 1.574 . S
C3356 H3350 0.949 . S
C3356 C3360 1.368 . S
C3357 C3338 1.429 . S
C3357 C3351 1.429 . S
C3357 C3358 1.523 . S
C3358 C3339 1.368 . S
C3358 C3352 1.368 . S
C3358 C3357 1.523 . S
C3359 C3343 1.429 . S
C3359 C3355 1.429 . S
C3359 C3360 1.523 . S
C3360 C3344 1.368 . S
C3360 C3356 1.368 . S
C3360 C3359 1.523 . S
H3361 C3336 0.950 . S
H3362 C3338 0.950 . S
H3363 C3339 0.949 . S
H3364 C3341 0.950 . S
H3365 C3343 0.950 . S
C3366 C3367 1.349 . S
C3366 C3368 1.327 . S
C3366 H3391 0.950 1_554 S
C3367 C3366 1.349 . S
C3367 C3383 1.349 . S
C3368 C3366 1.327 . S
C3368 C3387 1.429 . S
C3368 H3392 0.950 1_554 S
C3369 C3386 1.574 1_455 S
C3369 C3388 1.368 . S
C3369 H3393 0.949 . S
H3370 C3374 0.949 1_556 S
C3371 C3372 1.349 . S
C3371 C3373 1.327 . S
C3371 H3394 0.950 . S
C3372 C3371 1.349 . S
C3372 C3384 1.349 . S
C3373 C3371 1.327 . S
C3373 C3389 1.429 . S
C3373 H3395 0.950 . S
C3374 H3370 0.949 1_554 S
C3374 C3382 1.574 1_655 S
C3374 C3390 1.368 . S
H3375 C3383 0.950 . S
H3376 C3381 0.950 . S
H3377 C3382 0.949 1_556 S
H3378 C3384 0.950 1_556 S
H3379 C3385 0.950 1_556 S
H3380 C3386 0.949 . S
C3381 H3376 0.950 . S
C3381 C3383 1.327 . S
C3381 C3387 1.429 . S
C3382 C3374 1.574 1_455 S
C3382 H3377 0.949 1_554 S
C3382 C3388 1.368 . S
C3383 C3367 1.349 . S
C3383 H3375 0.950 . S
C3383 C3381 1.327 . S
C3384 C3372 1.349 . S
C3384 H3378 0.950 1_554 S
C3384 C3385 1.327 . S
C3385 H3379 0.950 1_554 S
C3385 C3384 1.327 . S
C3385 C3389 1.429 . S
C3386 C3369 1.574 1_655 S
C3386 H3380 0.949 . S
C3386 C3390 1.368 . S
C3387 C3368 1.429 . S
C3387 C3381 1.429 . S
C3387 C3388 1.523 . S
C3388 C3369 1.368 . S
C3388 C3382 1.368 . S
C3388 C3387 1.523 . S
C3389 C3373 1.429 . S
C3389 C3385 1.429 . S
C3389 C3390 1.523 . S
C3390 C3374 1.368 . S
C3390 C3386 1.368 . S
C3390 C3389 1.523 . S
H3391 C3366 0.950 1_556 S
H3392 C3368 0.950 1_556 S
H3393 C3369 0.949 . S
H3394 C3371 0.950 . S
H3395 C3373 0.950 . S
C3396 C3397 1.349 . S
C3396 C3398 1.327 . S
C3396 H3421 0.950 . S
C3397 C3396 1.349 . S
C3397 C3413 1.349 . S
C3398 C3396 1.327 . S
C3398 C3417 1.429 . S
C3398 H3422 0.950 . S
C3399 C3416 1.574 . S
C3399 C3418 1.368 . S
C3399 H3423 0.949 . S
H3400 C3404 0.949 . S
C3401 C3402 1.349 . S
C3401 C3403 1.327 . S
C3401 H3424 0.950 . S
C3402 C3401 1.349 . S
C3402 C3414 1.349 . S
C3403 C3401 1.327 . S
C3403 C3419 1.429 . S
C3403 H3425 0.950 . S
C3404 H3400 0.949 . S
C3404 C3412 1.574 . S
C3404 C3420 1.368 . S
H3405 C3413 0.950 . S
H3406 C3411 0.950 . S
H3407 C3412 0.949 . S
H3408 C3414 0.950 . S
H3409 C3415 0.950 . S
H3410 C3416 0.949 . S
C3411 H3406 0.950 . S
C3411 C3413 1.327 . S
C3411 C3417 1.429 . S
C3412 C3404 1.574 . S
C3412 H3407 0.949 . S
C3412 C3418 1.368 . S
C3413 C3397 1.349 . S
C3413 H3405 0.950 . S
C3413 C3411 1.327 . S
C3414 C3402 1.349 . S
C3414 H3408 0.950 . S
C3414 C3415 1.327 . S
C3415 H3409 0.950 . S
C3415 C3414 1.327 . S
C3415 C3419 1.429 . S
C3416 C3399 1.574 . S
C3416 H3410 0.949 . S
C3416 C3420 1.368 . S
C3417 C3398 1.429 . S
C3417 C3411 1.429 . S
C3417 C3418 1.523 . S
C3418 C3399 1.368 . S
C3418 C3412 1.368 . S
C3418 C3417 1.523 . S
C3419 C3403 1.429 . S
C3419 C3415 1.429 . S
C3419 C3420 1.523 . S
C3420 C3404 1.368 . S
C3420 C3416 1.368 . S
C3420 C3419 1.523 . S
H3421 C3396 0.950 . S
H3422 C3398 0.950 . S
H3423 C3399 0.949 . S
H3424 C3401 0.950 . S
H3425 C3403 0.950 . S
C3426 C3427 1.349 . S
C3426 C3428 1.327 . S
C3426 H3451 0.950 . S
C3427 C3426 1.349 . S
C3427 C3443 1.349 . S
C3428 C3426 1.327 . S
C3428 C3447 1.429 . S
C3428 H3452 0.950 . S
C3429 C3446 1.574 1_455 S
C3429 C3448 1.368 . S
C3429 H3453 0.949 1_556 S
H3430 C3434 0.949 . S
C3431 C3432 1.349 . S
C3431 C3433 1.327 . S
C3431 H3454 0.950 1_556 S
C3432 C3431 1.349 . S
C3432 C3444 1.349 . S
C3433 C3431 1.327 . S
C3433 C3449 1.429 . S
C3433 H3455 0.950 1_556 S
C3434 H3430 0.949 . S
C3434 C3442 1.574 1_655 S
C3434 C3450 1.368 . S
H3435 C3443 0.950 1_554 S
H3436 C3441 0.950 1_554 S
H3437 C3442 0.949 . S
H3438 C3444 0.950 . S
H3439 C3445 0.950 . S
H3440 C3446 0.949 1_554 S
C3441 H3436 0.950 1_556 S
C3441 C3443 1.327 . S
C3441 C3447 1.429 . S
C3442 C3434 1.574 1_455 S
C3442 H3437 0.949 . S
C3442 C3448 1.368 . S
C3443 C3427 1.349 . S
C3443 H3435 0.950 1_556 S
C3443 C3441 1.327 . S
C3444 C3432 1.349 . S
C3444 H3438 0.950 . S
C3444 C3445 1.327 . S
C3445 H3439 0.950 . S
C3445 C3444 1.327 . S
C3445 C3449 1.429 . S
C3446 C3429 1.574 1_655 S
C3446 H3440 0.949 1_556 S
C3446 C3450 1.368 . S
C3447 C3428 1.429 . S
C3447 C3441 1.429 . S
C3447 C3448 1.523 . S
C3448 C3429 1.368 . S
C3448 C3442 1.368 . S
C3448 C3447 1.523 . S
C3449 C3433 1.429 . S
C3449 C3445 1.429 . S
C3449 C3450 1.523 . S
C3450 C3434 1.368 . S
C3450 C3446 1.368 . S
C3450 C3449 1.523 . S
H3451 C3426 0.950 . S
H3452 C3428 0.950 . S
H3453 C3429 0.949 1_554 S
H3454 C3431 0.950 1_554 S
H3455 C3433 0.950 1_554 S
C1057 N2 1.452 . S
C1062 N13 1.455 . S
C1087 N46 1.454 . S
C1092 N35 1.452 . S
C1117 N79 1.455 . S
C1122 N68 1.452 . S
C1147 N112 1.454 1_554 S
C1152 N101 1.452 . S
C1177 N145 1.455 . S
C1182 N134 1.452 . S
C1207 N178 1.454 1_556 S
C1212 N167 1.452 . S
C1237 N200 1.452 . S
C1242 N211 1.455 . S
C1267 N233 1.452 . S
C1272 N244 1.454 . S
C1297 N266 1.452 . S
C1302 N277 1.455 . S
C1327 N299 1.452 . S
C1332 N310 1.454 . S
C1357 N332 1.452 . S
C1362 N343 1.455 . S
C1387 N376 1.454 1_556 S
C1392 N365 1.452 . S
C1417 N398 1.452 . S
C1422 N409 1.455 . S
C1447 N431 1.452 . S
C1452 N442 1.454 1_554 S
C1477 N475 1.455 . S
C1482 N464 1.452 . S
C1507 N497 1.452 . S
C1512 N508 1.454 . S
C1537 N541 1.455 . S
C1542 N530 1.452 . S
C1567 N574 1.454 1_554 S
C1572 N563 1.452 . S
C1597 N607 1.455 . S
C1602 N596 1.452 . S
C1627 N640 1.454 . S
C1632 N629 1.452 . S
C1657 N673 1.455 . S
C1662 N662 1.452 . S
C1687 N706 1.454 . S
C1692 N695 1.452 . S
C1717 N739 1.455 . S
C1722 N728 1.452 . S
C1747 N761 1.452 . S
C1752 N772 1.454 1_556 S
C1777 N805 1.455 . S
C1782 N794 1.452 . S
C1807 N838 1.454 1_556 S
C1812 N827 1.452 . S
C1837 N871 1.455 . S
C1842 N860 1.452 . S
C1867 N893 1.452 . S
C1872 N904 1.454 . S
C1897 N926 1.452 . S
C1902 N937 1.455 . S
C1927 N959 1.452 . S
C1932 N970 1.454 . S
C1957 N1003 1.455 . S
C1962 N992 1.452 . S
C1987 N1025 1.452 . S
C1992 N1036 1.454 1_554 S
C2017 C777 0.975 . S
C2022 C18 0.975 . S
C2047 C678 0.976 . S
C2052 C51 0.976 . S
C2077 C711 0.976 . S
C2082 C84 0.976 . S
C2107 C744 0.975 . S
C2112 C117 0.975 . S
C2137 C579 0.975 . S
C2142 C150 0.975 . S
C2167 C612 0.975 . S
C2172 C183 0.975 . S
C2197 C645 0.976 . S
C2202 C216 0.976 . S
C2227 C546 0.976 . S
C2232 C249 0.976 . S
C2257 C1041 0.975 . S
C2262 C282 0.975 . S
C2287 C942 0.976 . S
C2292 C315 0.976 . S
C2317 C348 0.976 . S
C2322 C975 0.976 . S
C2347 C381 0.975 . S
C2352 C1008 0.975 . S
C2377 C414 0.975 . S
C2382 C843 0.975 . S
C2407 C447 0.975 . S
C2412 C876 0.975 . S
C2437 C480 0.976 . S
C2442 C909 0.976 . S
C2467 C810 0.976 . S
C2472 C513 0.976 . S
C2497 C139 1.369 . S
C2502 C7 1.369 . S
C2527 C40 1.370 . S
C2532 C172 1.370 . S
C2557 C205 1.370 . S
C2562 C73 1.370 . S
C2587 C106 1.370 . S
C2592 C238 1.370 . S
C2617 C271 1.369 . S
C2622 C403 1.369 . S
C2647 C436 1.370 . S
C2652 C304 1.370 . S
C2677 C469 1.370 . S
C2682 C337 1.370 . S
C2707 C502 1.370 . S
C2712 C370 1.370 . S
C2737 C667 1.370 . S
C2742 C535 1.370 . S
C2767 C568 1.370 . S
C2772 C700 1.370 . S
C2797 C601 1.369 . S
C2802 C733 1.369 . S
C2827 C634 1.370 . S
C2832 C766 1.370 . S
C2857 C931 1.370 . S
C2862 C799 1.370 . S
C2887 C964 1.370 . S
C2892 C832 1.370 . S
C2917 C997 1.369 . S
C2922 C865 1.369 . S
C2947 C898 1.370 . S
C2952 C1030 1.370 . S
C2977 C21 1.416 . S
C2982 C417 1.416 . S
C3007 C978 1.416 . S
C3012 C54 1.416 . S
C3037 C87 1.416 . S
C3042 C483 1.416 . S
C3067 C1044 1.416 . S
C3072 C120 1.416 . S
C3097 C285 1.416 . S
C3102 C153 1.416 . S
C3127 C186 1.416 . S
C3132 C846 1.416 . S
C3157 C219 1.416 . S
C3162 C351 1.416 . S
C3187 C252 1.416 . S
C3192 C912 1.416 . S
C3217 C714 1.416 . S
C3222 C318 1.416 . S
C3247 C780 1.416 . S
C3252 C384 1.416 . S
C3277 C582 1.416 . S
C3282 C450 1.416 . S
C3307 C648 1.416 . S
C3312 C516 1.416 . S
C3337 C549 1.416 . S
C3342 C945 1.416 . S
C3367 C1011 1.416 . S
C3372 C615 1.416 . S
C3397 C681 1.416 . S
C3402 C813 1.416 . S
C3427 C879 1.416 . S
C3432 C747 1.416 . S
