# Generated by pormake.
# Topology uou, (4)-cn, num edge types: 1
# Building blocks:
#     Node 0, Type 0, BuildingBlock: KUFVIS_clean_sbu_0, # of connection points: 4
#     Node 1, Type 0, BuildingBlock: KUFVIS_clean_sbu_0, # of connection points: 4
#     Node 2, Type 0, BuildingBlock: KUFVIS_clean_sbu_0, # of connection points: 4
#     Node 3, Type 0, BuildingBlock: KUFVIS_clean_sbu_0, # of connection points: 4
#     Node 4, Type 0, BuildingBlock: KUFVIS_clean_sbu_0, # of connection points: 4
#     Node 5, Type 0, BuildingBlock: KUFVIS_clean_sbu_0, # of connection points: 4
#     Node 6, Type 0, BuildingBlock: KUFVIS_clean_sbu_0, # of connection points: 4
#     Node 7, Type 0, BuildingBlock: KUFVIS_clean_sbu_0, # of connection points: 4
#     Node 8, Type 0, BuildingBlock: KUFVIS_clean_sbu_0, # of connection points: 4
#     Node 9, Type 0, BuildingBlock: KUFVIS_clean_sbu_0, # of connection points: 4
#     Node 10, Type 0, BuildingBlock: KUFVIS_clean_sbu_0, # of connection points: 4
#     Node 11, Type 0, BuildingBlock: KUFVIS_clean_sbu_0, # of connection points: 4
#     Node 12, Type 0, BuildingBlock: KUFVIS_clean_sbu_0, # of connection points: 4
#     Node 13, Type 0, BuildingBlock: KUFVIS_clean_sbu_0, # of connection points: 4
#     Node 14, Type 0, BuildingBlock: KUFVIS_clean_sbu_0, # of connection points: 4
#     Node 15, Type 0, BuildingBlock: KUFVIS_clean_sbu_0, # of connection points: 4
#     Edge 16, Type (0, 0), BuildingBlock: KIFKEQ_clean_linker_1, # of connection points: 2
#     Edge 17, Type (0, 0), BuildingBlock: KIFKEQ_clean_linker_1, # of connection points: 2
#     Edge 18, Type (0, 0), BuildingBlock: KIFKEQ_clean_linker_1, # of connection points: 2
#     Edge 19, Type (0, 0), BuildingBlock: KIFKEQ_clean_linker_1, # of connection points: 2
#     Edge 20, Type (0, 0), BuildingBlock: KIFKEQ_clean_linker_1, # of connection points: 2
#     Edge 21, Type (0, 0), BuildingBlock: KIFKEQ_clean_linker_1, # of connection points: 2
#     Edge 22, Type (0, 0), BuildingBlock: KIFKEQ_clean_linker_1, # of connection points: 2
#     Edge 23, Type (0, 0), BuildingBlock: KIFKEQ_clean_linker_1, # of connection points: 2
#     Edge 24, Type (0, 0), BuildingBlock: KIFKEQ_clean_linker_1, # of connection points: 2
#     Edge 25, Type (0, 0), BuildingBlock: KIFKEQ_clean_linker_1, # of connection points: 2
#     Edge 26, Type (0, 0), BuildingBlock: KIFKEQ_clean_linker_1, # of connection points: 2
#     Edge 27, Type (0, 0), BuildingBlock: KIFKEQ_clean_linker_1, # of connection points: 2
#     Edge 28, Type (0, 0), BuildingBlock: KIFKEQ_clean_linker_1, # of connection points: 2
#     Edge 29, Type (0, 0), BuildingBlock: KIFKEQ_clean_linker_1, # of connection points: 2
#     Edge 30, Type (0, 0), BuildingBlock: KIFKEQ_clean_linker_1, # of connection points: 2
#     Edge 31, Type (0, 0), BuildingBlock: KIFKEQ_clean_linker_1, # of connection points: 2
#     Edge 32, Type (0, 0), BuildingBlock: KIFKEQ_clean_linker_1, # of connection points: 2
#     Edge 33, Type (0, 0), BuildingBlock: KIFKEQ_clean_linker_1, # of connection points: 2
#     Edge 34, Type (0, 0), BuildingBlock: KIFKEQ_clean_linker_1, # of connection points: 2
#     Edge 35, Type (0, 0), BuildingBlock: KIFKEQ_clean_linker_1, # of connection points: 2
#     Edge 36, Type (0, 0), BuildingBlock: KIFKEQ_clean_linker_1, # of connection points: 2
#     Edge 37, Type (0, 0), BuildingBlock: KIFKEQ_clean_linker_1, # of connection points: 2
#     Edge 38, Type (0, 0), BuildingBlock: KIFKEQ_clean_linker_1, # of connection points: 2
#     Edge 39, Type (0, 0), BuildingBlock: KIFKEQ_clean_linker_1, # of connection points: 2
#     Edge 40, Type (0, 0), BuildingBlock: KIFKEQ_clean_linker_1, # of connection points: 2
#     Edge 41, Type (0, 0), BuildingBlock: KIFKEQ_clean_linker_1, # of connection points: 2
#     Edge 42, Type (0, 0), BuildingBlock: KIFKEQ_clean_linker_1, # of connection points: 2
#     Edge 43, Type (0, 0), BuildingBlock: KIFKEQ_clean_linker_1, # of connection points: 2
#     Edge 44, Type (0, 0), BuildingBlock: KIFKEQ_clean_linker_1, # of connection points: 2
#     Edge 45, Type (0, 0), BuildingBlock: KIFKEQ_clean_linker_1, # of connection points: 2
#     Edge 46, Type (0, 0), BuildingBlock: KIFKEQ_clean_linker_1, # of connection points: 2
#     Edge 47, Type (0, 0), BuildingBlock: KIFKEQ_clean_linker_1, # of connection points: 2
# Relax obj value: 0.047
# Max RMSD: 0.084
# Mean RMSD: 0.084
data_MOF--net-uou--node1-KUFVIS_clean_sbu_0--edge1-KIFKEQ_clean_linker_1
_symmetry_space_group_name_H-M    P1
_symmetry_Int_Tables_number       1
_symmetry_cell_setting            triclinic
loop_
_symmetry_equiv_pos_as_xyz
'x, y, z'
_cell_length_a     38.389221
_cell_length_b     40.853568
_cell_length_c     53.407233
_cell_angle_alpha  89.986256
_cell_angle_beta   89.9765
_cell_angle_gamma 89.952598
loop_
_atom_site_label
_atom_site_type_symbol
_atom_site_fract_x
_atom_site_fract_y
_atom_site_fract_z
_atom_type_partial_charge
Mn0 Mn 0.07103 0.09804 0.12205 0.0
Mn1 Mn 0.05788 0.01785 0.13445 0.0
C2 C 0.06181 0.081 0.16286 0.0
C3 C 0.04966 0.14995 0.11128 0.0
C4 C 0.12912 0.04638 0.1235 0.0
O5 O 0.05887 0.07935 0.08784 0.0
O6 O 0.04877 0.02691 0.09863 0.0
C7 C 0.98178 0.01517 0.12573 0.0
N8 N 0.00973 1.00985 0.1409 0.0
C9 C 0.9738 0.98398 0.17202 0.0
C10 C 0.94461 0.98908 0.15672 0.0
C11 C 0.94859 1.00495 0.13355 0.0
C12 C 1.00611 0.99511 0.16338 0.0
H13 H 0.98485 0.02699 0.10777 0.0
C14 C 0.05003 0.05006 0.08252 0.0
O15 O 0.0819 0.14184 0.10727 0.0
O16 O 0.02972 0.12764 0.12093 0.0
N17 N 0.06534 1.00515 0.16846 0.0
C18 C 0.09576 1.00397 0.18154 0.0
C19 C 0.09627 0.98926 0.2053 0.0
C20 C 0.06568 0.97545 0.21512 0.0
C21 C 0.03458 0.97722 0.20138 0.0
C22 C 0.03565 0.99236 0.1779 0.0
H23 H 0.11951 0.01384 0.17377 0.0
O24 O 0.07744 0.10848 0.15813 0.0
O25 O 0.0518 0.06416 0.14347 0.0
O26 O 0.11932 0.07607 0.12091 0.0
O27 O 0.10822 0.02296 0.12836 0.0
C28 C 1.00261 0.96443 0.20995 0.0
C29 C 0.97215 0.96826 0.19546 0.0
H30 H 0.91901 0.981 0.16261 0.0
H31 H 0.92619 1.00903 0.12166 0.0
H32 H 0.12031 0.98808 0.21584 0.0
H33 H 0.06642 0.96356 0.23324 0.0
H34 H 1.00102 0.9518 0.22773 0.0
H35 H 0.94762 0.95895 0.20251 0.0
Mn36 Mn 0.44318 0.93425 0.11965 0.0
Mn37 Mn 0.45619 0.01404 0.13327 0.0
C38 C 0.45255 0.95007 0.16066 0.0
C39 C 0.4651 0.88308 0.10769 0.0
C40 C 0.38494 0.98562 0.12205 0.0
O41 O 0.45499 0.95396 0.08578 0.0
O42 O 0.46545 1.00607 0.09728 0.0
C43 C 0.53228 0.01713 0.12461 0.0
N44 N 0.50433 0.02187 0.13989 0.0
C45 C 0.54031 0.04613 0.1717 0.0
C46 C 0.56951 0.04164 0.15628 0.0
C47 C 0.5655 0.02688 0.1327 0.0
C48 C 0.50796 0.03558 0.16275 0.0
H49 H 0.52922 1.00611 0.10636 0.0
C50 C 0.46406 0.98329 0.08087 0.0
O51 O 0.43268 0.89088 0.10404 0.0
O52 O 0.48477 0.9052 0.11782 0.0
N53 N 0.44866 0.02558 0.16752 0.0
C54 C 0.41825 0.02617 0.18066 0.0
C55 C 0.4178 0.03962 0.20484 0.0
C56 C 0.44846 0.05275 0.21508 0.0
C57 C 0.47954 0.05163 0.20126 0.0
C58 C 0.4784 0.03776 0.17732 0.0
H59 H 0.39446 0.01676 0.17263 0.0
O60 O 0.43708 0.92263 0.15554 0.0
O61 O 0.46233 0.96752 0.14151 0.0
O62 O 0.39476 0.95599 0.1191 0.0
O63 O 0.40585 1.00898 0.12708 0.0
C64 C 0.51157 0.06382 0.21019 0.0
C65 C 0.54201 0.06064 0.19559 0.0
H66 H 0.59513 0.04931 0.1624 0.0
H67 H 0.58791 0.02326 0.12071 0.0
H68 H 0.39378 0.04031 0.21543 0.0
H69 H 0.44777 0.06364 0.23355 0.0
H70 H 0.51321 0.07557 0.22831 0.0
H71 H 0.56657 0.06949 0.2029 0.0
Mn72 Mn 0.57388 0.92312 0.3724 0.0
Mn73 Mn 0.55856 1.00204 0.35686 0.0
C74 C 0.56136 0.9369 0.33144 0.0
C75 C 0.55327 0.87196 0.38566 0.0
C76 C 0.63089 0.97537 0.36726 0.0
O77 O 0.56346 0.94453 0.40605 0.0
O78 O 0.55124 0.99594 0.39329 0.0
C79 C 0.4829 1.00434 0.36735 0.0
N80 N 0.5099 1.00818 0.35106 0.0
C81 C 0.47091 0.02354 0.31784 0.0
C82 C 0.4427 0.02 0.33429 0.0
C83 C 0.44874 1.01035 0.35916 0.0
C84 C 0.50444 0.0177 0.32716 0.0
H85 H 0.48738 0.99664 0.38642 0.0
C86 C 0.55401 0.97402 0.41032 0.0
O87 O 0.58572 0.88021 0.3885 0.0
O88 O 0.5328 0.89381 0.37601 0.0
N89 N 0.56427 1.01106 0.32197 0.0
C90 C 0.59401 1.01098 0.30803 0.0
C91 C 0.59229 0.01875 0.28244 0.0
C92 C 0.56007 0.0265 0.27149 0.0
C93 C 0.5299 0.02673 0.2863 0.0
C94 C 0.53326 0.0193 0.31175 0.0
H95 H 0.61878 1.00469 0.31633 0.0
O96 O 0.57782 0.90993 0.33647 0.0
O97 O 0.55305 0.95505 0.35051 0.0
O98 O 0.6219 0.94564 0.37102 0.0
O99 O 0.60925 0.99817 0.36214 0.0
C100 C 0.49642 0.03279 0.2766 0.0
C101 C 0.46698 0.03146 0.29234 0.0
H102 H 0.41627 0.02418 0.32795 0.0
H103 H 0.42709 1.00735 0.37194 0.0
H104 H 0.61569 0.01842 0.27113 0.0
H105 H 0.55874 0.03184 0.25164 0.0
H106 H 0.49291 0.03735 0.25692 0.0
H107 H 0.44136 0.03568 0.28448 0.0
Mn108 Mn 0.94029 0.09667 0.37582 0.0
Mn109 Mn 0.95788 0.01936 0.35742 0.0
C110 C 0.95392 0.08607 0.33444 0.0
C111 C 0.95955 0.14693 0.39141 0.0
C112 C 0.88476 0.04382 0.36872 0.0
O113 O 0.95015 0.07301 0.40875 0.0
O114 O 0.96642 0.02365 0.39382 0.0
C115 C 0.03391 0.01821 0.36653 0.0
N116 N 1.00647 0.01465 0.3506 0.0
C117 C 0.04472 1.0022 0.31623 0.0
C118 C 0.07337 1.00539 0.33231 0.0
C119 C 0.06793 1.01344 0.35757 0.0
C120 C 0.01137 1.00668 0.32631 0.0
H121 H 0.0299 0.0248 0.38589 0.0
C122 C 0.96222 0.04408 0.41177 0.0
O123 O 0.92709 0.13824 0.39321 0.0
O124 O 0.98084 0.12605 0.38143 0.0
N125 N 0.95125 1.01241 0.32234 0.0
C126 C 0.9211 1.0129 0.30889 0.0
C127 C 0.9222 1.00689 0.28301 0.0
C128 C 0.95423 1.00051 0.27126 0.0
C129 C 0.98484 0.99988 0.28557 0.0
C130 C 0.9821 1.00547 0.31134 0.0
H131 H 0.89647 0.01818 0.31778 0.0
O132 O 0.93705 0.11244 0.34043 0.0
O133 O 0.96218 0.06675 0.35283 0.0
O134 O 0.89284 0.07368 0.37278 0.0
O135 O 0.90715 0.02164 0.36363 0.0
C136 C 0.01813 0.99527 0.27512 0.0
C137 C 0.04803 0.99609 0.2904 0.0
H138 H 0.09968 1.00223 0.32538 0.0
H139 H 0.08992 0.01623 0.37006 0.0
H140 H 0.89847 1.00755 0.27209 0.0
H141 H 0.95507 0.99657 0.25122 0.0
H142 H 0.0211 0.99238 0.25521 0.0
H143 H 0.07349 0.99305 0.28196 0.0
Mn144 Mn 0.94475 0.93868 0.87224 0.0
Mn145 Mn 0.95838 0.01773 0.85655 0.0
C146 C 0.95442 0.95276 0.83075 0.0
C147 C 0.96652 0.88774 0.88514 0.0
C148 C 0.88677 0.99015 0.8684 0.0
O149 O 0.95639 0.95977 0.90569 0.0
O150 O 0.96786 1.01105 0.89266 0.0
C151 C 0.03456 0.02067 0.86493 0.0
N152 N 1.00653 0.02517 0.84969 0.0
C153 C 0.04231 0.04914 0.81761 0.0
C154 C 0.07159 0.04491 0.83298 0.0
C155 C 0.06772 0.03038 0.85667 0.0
C156 C 0.01005 0.03852 0.8267 0.0
H157 H 0.0316 1.00986 0.88326 0.0
C158 C 0.96614 0.98915 0.90974 0.0
O159 O 0.93415 0.8958 0.88874 0.0
O160 O 0.98626 0.90955 0.87469 0.0
N161 N 0.9508 0.02815 0.82211 0.0
C162 C 0.92032 0.02855 0.80906 0.0
C163 C 0.91968 0.0419 0.78485 0.0
C164 C 0.95021 0.05518 0.77451 0.0
C165 C 0.98138 0.05418 0.78821 0.0
C166 C 0.98044 0.04038 0.81216 0.0
H167 H 0.8966 0.01914 0.8172 0.0
O168 O 0.93873 0.92567 0.83656 0.0
O169 O 0.96421 0.97092 0.84947 0.0
O170 O 0.89643 0.96066 0.87236 0.0
O171 O 0.90799 1.01304 0.86277 0.0
C172 C 0.0133 0.06651 0.77915 0.0
C173 C 0.04383 0.0635 0.79366 0.0
H174 H 0.09716 0.05261 0.82675 0.0
H175 H 0.09019 0.02695 0.86862 0.0
H176 H 0.89559 0.04248 0.77434 0.0
H177 H 0.94936 0.06606 0.75603 0.0
H178 H 0.01479 0.07812 0.76096 0.0
H179 H 0.06832 0.07241 0.78624 0.0
Mn180 Mn 0.572 0.10028 0.8741 0.0
Mn181 Mn 0.55821 0.0224 0.85552 0.0
C182 C 0.56036 0.08911 0.83254 0.0
C183 C 0.54951 0.14979 0.88915 0.0
C184 C 0.63008 0.04938 0.86745 0.0
O185 O 0.5619 0.07664 0.90677 0.0
O186 O 0.54988 0.02615 0.89208 0.0
C187 C 0.48237 0.01882 0.86511 0.0
N188 N 0.50975 0.01618 0.849 0.0
C189 C 0.47152 1.00328 0.81475 0.0
C190 C 0.44295 1.00552 0.83102 0.0
C191 C 0.44842 1.01332 0.85632 0.0
C192 C 0.50483 1.00844 0.82467 0.0
H193 H 0.48636 0.02527 0.8845 0.0
C194 C 0.55228 0.047 0.90991 0.0
O195 O 0.58222 0.14235 0.89196 0.0
O196 O 0.53 0.12811 0.87842 0.0
N197 N 0.56472 0.01568 0.82039 0.0
C198 C 0.59474 0.01681 0.8068 0.0
C199 C 0.59358 1.01091 0.78091 0.0
C200 C 0.56161 1.00402 0.7693 0.0
C201 C 0.53114 1.00267 0.78375 0.0
C202 C 0.53397 1.00809 0.80953 0.0
H203 H 0.61931 0.02255 0.81559 0.0
O204 O 0.57615 0.11596 0.83873 0.0
O205 O 0.5522 0.06959 0.85083 0.0
O206 O 0.62044 0.07865 0.87241 0.0
O207 O 0.60882 0.02669 0.86131 0.0
C208 C 0.49787 0.99759 0.77344 0.0
C209 C 0.46812 0.99751 0.78889 0.0
H210 H 0.41667 1.00181 0.82421 0.0
H211 H 0.42648 0.01538 0.86896 0.0
H212 H 0.6172 1.0121 0.76988 0.0
H213 H 0.56069 1.00023 0.74924 0.0
H214 H 0.49476 0.99516 0.75352 0.0
H215 H 0.44266 0.99408 0.78056 0.0
Mn216 Mn 0.44567 0.09103 0.61921 0.0
Mn217 Mn 0.45988 1.01188 0.63442 0.0
C218 C 0.45398 0.07621 0.66073 0.0
C219 C 0.46709 0.14278 0.60791 0.0
C220 C 0.38825 0.03885 0.62176 0.0
O221 O 0.45913 0.07083 0.58567 0.0
O222 O 0.47008 0.01937 0.59856 0.0
C223 C 0.53629 1.01004 0.62687 0.0
N224 N 0.50798 1.00482 0.64171 0.0
C225 C 0.54335 0.98029 0.67378 0.0
C226 C 0.57291 0.98522 0.65881 0.0
C227 C 0.56938 1.00041 0.63533 0.0
C228 C 0.51117 0.99088 0.66452 0.0
H229 H 0.53361 0.02138 0.6087 0.0
C230 C 0.46911 0.04148 0.58161 0.0
O231 O 0.43508 0.1344 0.60332 0.0
O232 O 0.48677 0.12073 0.61814 0.0
N233 N 0.45171 1.00067 0.66865 0.0
C234 C 0.42098 0.99971 0.68139 0.0
C235 C 0.42 0.98575 0.7054 0.0
C236 C 0.45045 0.97242 0.71584 0.0
C237 C 0.48187 0.97395 0.70245 0.0
C238 C 0.48128 0.9884 0.67871 0.0
H239 H 0.39733 1.00914 0.67315 0.0
O240 O 0.43794 0.10312 0.65492 0.0
O241 O 0.46483 0.05859 0.64201 0.0
O242 O 0.39768 0.06842 0.61786 0.0
O243 O 0.40958 0.01618 0.62774 0.0
C244 C 0.51372 0.9616 0.71163 0.0
C245 C 0.54453 0.96526 0.6975 0.0
H246 H 0.59843 0.97757 0.66518 0.0
H247 H 0.59207 1.0044 0.62369 0.0
H248 H 0.39572 0.98477 0.71567 0.0
H249 H 0.4494 0.96115 0.73418 0.0
H250 H 0.51495 0.9496 0.72969 0.0
H251 H 0.56896 0.95637 0.70504 0.0
Mn252 Mn 0.07494 0.92523 0.61844 0.0
Mn253 Mn 0.06004 1.00386 0.63477 0.0
C254 C 0.06353 0.9385 0.65969 0.0
C255 C 0.05401 0.87422 0.6053 0.0
C256 C 0.13223 0.97742 0.62348 0.0
O257 O 0.06321 0.94674 0.58516 0.0
O258 O 0.05249 0.99828 0.59825 0.0
C259 C 0.98434 1.00623 0.62442 0.0
N260 N 0.01137 1.0098 0.64071 0.0
C261 C 0.97233 0.02377 0.67427 0.0
C262 C 0.9441 0.02049 0.65782 0.0
C263 C 0.95015 1.0117 0.63278 0.0
C264 C 1.0059 0.01856 0.66478 0.0
H265 H 0.98879 0.99911 0.60521 0.0
C266 C 0.05416 0.97638 0.58113 0.0
O267 O 0.08635 0.88251 0.60192 0.0
O268 O 0.03386 0.89591 0.61549 0.0
N269 N 0.06582 1.01236 0.66973 0.0
C270 C 0.09562 1.01224 0.68359 0.0
C271 C 0.09391 0.01929 0.7093 0.0
C272 C 0.06162 0.0263 0.72046 0.0
C273 C 0.03139 0.0266 0.70572 0.0
C274 C 0.03476 0.02 0.68014 0.0
H275 H 0.12043 1.00642 0.67516 0.0
O276 O 0.08016 0.91177 0.65426 0.0
O277 O 0.05462 0.95682 0.64084 0.0
O278 O 0.12287 0.94799 0.61885 0.0
O279 O 0.11077 0.99999 0.62953 0.0
C280 C 0.99787 0.0318 0.71561 0.0
C281 C 0.96839 0.03073 0.69993 0.0
H282 H 0.91765 0.02421 0.6643 0.0
H283 H 0.92849 1.00889 0.62 0.0
H284 H 0.11734 0.01891 0.72054 0.0
H285 H 0.06029 0.03099 0.74039 0.0
H286 H 0.99439 0.03533 0.73541 0.0
H287 H 0.94274 0.03431 0.70794 0.0
Mn288 Mn 0.57331 0.60092 0.1183 0.0
Mn289 Mn 0.55809 0.52308 0.13656 0.0
C290 C 0.56203 0.58932 0.1599 0.0
C291 C 0.5522 0.65145 0.10419 0.0
C292 C 0.6303 0.54872 0.12411 0.0
O293 O 0.56179 0.57798 0.08548 0.0
O294 O 0.54944 0.52751 0.10014 0.0
C295 C 0.48206 0.52115 0.12745 0.0
N296 N 0.50956 0.51771 0.14335 0.0
C297 C 0.47145 0.50489 0.17771 0.0
C298 C 0.44276 0.50794 0.16166 0.0
C299 C 0.4481 0.51611 0.13641 0.0
C300 C 0.50476 0.50964 0.16763 0.0
H301 H 0.48596 0.52789 0.10811 0.0
C302 C 0.55164 0.54847 0.08236 0.0
O303 O 0.58455 0.64307 0.10087 0.0
O304 O 0.53213 0.63001 0.11473 0.0
N305 N 0.56482 0.51577 0.1716 0.0
C306 C 0.59501 0.51614 0.18501 0.0
C307 C 0.59401 0.50977 0.21085 0.0
C308 C 0.56203 0.5032 0.2226 0.0
C309 C 0.53139 0.50268 0.20832 0.0
C310 C 0.53405 0.50853 0.18259 0.0
H311 H 0.61959 0.52159 0.17613 0.0
O312 O 0.57853 0.61585 0.15382 0.0
O313 O 0.55312 0.57031 0.14151 0.0
O314 O 0.62115 0.57815 0.11926 0.0
O315 O 0.60873 0.5264 0.13048 0.0
C316 C 0.49814 0.49799 0.2188 0.0
C317 C 0.46822 0.49871 0.20354 0.0
H318 H 0.41648 0.50458 0.1686 0.0
H319 H 0.42607 0.51881 0.12393 0.0
H320 H 0.61777 0.51033 0.22174 0.0
H321 H 0.56125 0.49902 0.24262 0.0
H322 H 0.49519 0.49526 0.23872 0.0
H323 H 0.44279 0.49558 0.212 0.0
Mn324 Mn 0.94428 0.43573 0.11991 0.0
Mn325 Mn 0.95792 0.51538 0.13376 0.0
C326 C 0.95308 0.45169 0.16105 0.0
C327 C 0.96543 0.38375 0.10906 0.0
C328 C 0.8864 0.48773 0.1224 0.0
O329 O 0.95743 0.45502 0.08606 0.0
O330 O 0.96657 0.5073 0.09769 0.0
C331 C 0.03395 0.51765 0.12457 0.0
N332 N 1.00624 0.52277 0.14001 0.0
C333 C 0.04288 0.54685 0.17151 0.0
C334 C 0.07184 0.54196 0.15594 0.0
C335 C 0.06737 0.52711 0.13243 0.0
C336 C 0.01031 0.53655 0.16281 0.0
H337 H 0.03055 0.50656 0.10639 0.0
C338 C 0.96589 0.48456 0.08122 0.0
O339 O 0.93336 0.39215 0.10465 0.0
O340 O 0.98532 0.40586 0.11897 0.0
N341 N 0.95098 0.52715 0.16802 0.0
C342 C 0.92068 0.52834 0.18128 0.0
C343 C 0.92062 0.54222 0.20531 0.0
C344 C 0.95153 0.55516 0.21528 0.0
C345 C 0.9825 0.55334 0.20137 0.0
C346 C 0.98096 0.53915 0.17756 0.0
H347 H 0.89669 0.5191 0.17345 0.0
O348 O 0.93703 0.42459 0.15584 0.0
O349 O 0.96359 0.46884 0.14196 0.0
O350 O 0.89617 0.45825 0.11848 0.0
O351 O 0.9075 0.51063 0.12814 0.0
C352 C 0.01478 0.56521 0.21007 0.0
C353 C 0.04503 0.56153 0.19532 0.0
H354 H 0.09763 0.54942 0.16186 0.0
H355 H 0.0896 0.52318 0.12032 0.0
H356 H 0.89667 0.54344 0.21598 0.0
H357 H 0.95107 0.5665 0.23358 0.0
H358 H 0.01677 0.57712 0.22812 0.0
H359 H 0.06979 0.57016 0.20245 0.0
Mn360 Mn 0.07313 0.42622 0.37357 0.0
Mn361 Mn 0.05847 0.50518 0.35801 0.0
C362 C 0.05961 0.4397 0.33273 0.0
C363 C 0.05252 0.37584 0.38804 0.0
C364 C 0.13063 0.47763 0.36786 0.0
O365 O 0.06434 0.44817 0.4072 0.0
O366 O 0.05077 0.4993 0.39445 0.0
C367 C 0.98278 0.5086 0.36818 0.0
N368 N 0.00997 0.51197 0.35199 0.0
C369 C 0.97151 0.52776 0.31857 0.0
C370 C 0.94311 0.52471 0.33492 0.0
C371 C 0.94879 0.51508 0.35984 0.0
C372 C 1.00486 0.52147 0.32805 0.0
H373 H 0.98699 0.50091 0.38729 0.0
C374 C 0.05428 0.47747 0.41149 0.0
O375 O 0.08525 0.38358 0.3897 0.0
O376 O 0.03173 0.3976 0.37859 0.0
N377 N 0.0646 0.51389 0.32311 0.0
C378 C 0.09443 0.51321 0.30928 0.0
C379 C 0.09305 0.52083 0.28366 0.0
C380 C 0.06105 0.52905 0.27256 0.0
C381 C 0.03079 0.52987 0.28726 0.0
C382 C 0.03383 0.52254 0.31275 0.0
H383 H 0.11902 0.50656 0.31768 0.0
O384 O 0.07555 0.41245 0.33773 0.0
O385 O 0.05213 0.45821 0.35181 0.0
O386 O 0.12137 0.4479 0.37109 0.0
O387 O 0.10914 0.5008 0.36348 0.0
C388 C 0.99752 0.53644 0.27742 0.0
C389 C 0.96792 0.53564 0.29304 0.0
H390 H 0.91681 0.52927 0.32845 0.0
H391 H 0.92699 0.51245 0.37253 0.0
H392 H 0.11651 0.52003 0.27244 0.0
H393 H 0.05997 0.53428 0.25269 0.0
H394 H 0.99431 0.54102 0.25772 0.0
H395 H 0.94244 0.54023 0.28506 0.0
Mn396 Mn 0.4454 0.58846 0.3724 0.0
Mn397 Mn 0.45762 0.50903 0.35715 0.0
C398 C 0.45408 0.57391 0.33102 0.0
C399 C 0.46765 0.6394 0.38476 0.0
C400 C 0.38671 0.53768 0.36925 0.0
O401 O 0.45758 0.56755 0.40583 0.0
O402 O 0.46711 0.51572 0.39322 0.0
C403 C 0.53374 0.50509 0.36551 0.0
N404 N 0.50565 0.50095 0.35027 0.0
C405 C 0.54112 0.47648 0.31821 0.0
C406 C 0.57045 0.48037 0.33357 0.0
C407 C 0.56677 0.49495 0.35725 0.0
C408 C 0.50899 0.48751 0.3273 0.0
H409 H 0.53091 0.51589 0.38385 0.0
C410 C 0.46625 0.5379 0.41011 0.0
O411 O 0.43533 0.63154 0.38872 0.0
O412 O 0.48714 0.61733 0.37433 0.0
N413 N 0.44984 0.49851 0.32275 0.0
C414 C 0.41936 0.49848 0.30972 0.0
C415 C 0.41857 0.48518 0.28548 0.0
C416 C 0.44895 0.47155 0.27514 0.0
C417 C 0.4801 0.4721 0.28886 0.0
C418 C 0.47934 0.48594 0.3128 0.0
H419 H 0.39576 0.50817 0.31788 0.0
O420 O 0.4388 0.60123 0.33683 0.0
O421 O 0.4641 0.55576 0.34973 0.0
O422 O 0.39684 0.56707 0.3729 0.0
O423 O 0.40735 0.51434 0.36356 0.0
C424 C 0.51187 0.45938 0.2798 0.0
C425 C 0.54245 0.46204 0.29429 0.0
H426 H 0.59592 0.47234 0.32734 0.0
H427 H 0.58929 0.4981 0.3692 0.0
H428 H 0.39449 0.48496 0.27496 0.0
H429 H 0.44805 0.46084 0.2566 0.0
H430 H 0.51321 0.44785 0.26157 0.0
H431 H 0.56683 0.45286 0.28686 0.0
Mn432 Mn 0.43913 0.4309 0.87512 0.0
Mn433 Mn 0.45753 0.50888 0.85919 0.0
C434 C 0.45002 0.44422 0.83379 0.0
C435 C 0.45928 0.37962 0.88837 0.0
C436 C 0.38404 0.48534 0.86998 0.0
O437 O 0.45144 0.45164 0.90854 0.0
O438 O 0.46431 0.5027 0.89566 0.0
C439 C 0.53314 0.50564 0.86981 0.0
N440 N 0.5066 0.51137 0.85345 0.0
C441 C 0.5469 0.5207 0.81972 0.0
C442 C 0.57466 0.51516 0.83624 0.0
C443 C 0.56773 0.50762 0.86141 0.0
C444 C 0.51297 0.51867 0.82922 0.0
H445 H 0.52799 0.49939 0.8891 0.0
C446 C 0.46148 0.48088 0.91273 0.0
O447 O 0.427 0.38829 0.89173 0.0
O448 O 0.47955 0.40088 0.87789 0.0
N449 N 0.45269 0.51848 0.82435 0.0
C450 C 0.42297 0.52328 0.8109 0.0
C451 C 0.42534 0.53149 0.78543 0.0
C452 C 0.4582 0.53465 0.77411 0.0
C453 C 0.48842 0.53023 0.78849 0.0
C454 C 0.48442 0.5229 0.8139 0.0
H455 H 0.39766 0.52064 0.81949 0.0
O456 O 0.43315 0.41769 0.83928 0.0
O457 O 0.46004 0.46189 0.85267 0.0
O458 O 0.39213 0.4555 0.87466 0.0
O459 O 0.4065 0.50724 0.86418 0.0
C460 C 0.52233 0.5321 0.77853 0.0
C461 C 0.55154 0.52742 0.79409 0.0
H462 H 0.60137 0.51637 0.82976 0.0
H463 H 0.589 0.5031 0.87425 0.0
H464 H 0.40192 0.53494 0.77447 0.0
H465 H 0.45981 0.54015 0.75436 0.0
H466 H 0.5263 0.53638 0.75885 0.0
H467 H 0.57744 0.52867 0.78608 0.0
Mn468 Mn 0.07253 0.60464 0.87389 0.0
Mn469 Mn 0.05657 0.52683 0.85587 0.0
C470 C 0.06008 0.59308 0.83243 0.0
C471 C 0.05196 0.65535 0.88822 0.0
C472 C 0.12929 0.55229 0.86696 0.0
O473 O 0.06188 0.58174 0.90693 0.0
O474 O 0.04953 0.5312 0.89249 0.0
C475 C 0.98099 0.52505 0.86676 0.0
N476 N 0.00776 0.52158 0.85021 0.0
C477 C 0.96811 0.50888 0.81676 0.0
C478 C 0.94015 0.51199 0.83349 0.0
C479 C 0.94663 0.52011 0.8586 0.0
C480 C 1.00186 0.51354 0.82606 0.0
H481 H 0.98576 0.53171 0.88601 0.0
C482 C 0.05216 0.55213 0.91025 0.0
O483 O 0.08436 0.64684 0.89109 0.0
O484 O 0.03155 0.63392 0.87805 0.0
N485 N 0.06174 0.51942 0.8207 0.0
C486 C 0.09135 0.5195 0.80662 0.0
C487 C 0.08921 0.51303 0.78084 0.0
C488 C 0.0567 0.50661 0.76984 0.0
C489 C 0.02668 0.5063 0.78479 0.0
C490 C 0.03047 0.51227 0.81044 0.0
H491 H 0.11634 0.52482 0.81494 0.0
O492 O 0.07683 0.61954 0.8383 0.0
O493 O 0.05154 0.57408 0.85095 0.0
O494 O 0.12034 0.58168 0.87221 0.0
O495 O 0.10745 0.53011 0.86079 0.0
C496 C 0.99295 0.50171 0.7751 0.0
C497 C 0.96372 0.50263 0.79104 0.0
H498 H 0.91357 0.50869 0.82717 0.0
H499 H 0.92518 0.52283 0.87159 0.0
H500 H 0.1125 0.5134 0.76942 0.0
H501 H 0.05505 0.50239 0.74986 0.0
H502 H 0.98907 0.49886 0.75527 0.0
H503 H 0.93792 0.49954 0.78319 0.0
Mn504 Mn 0.94342 0.59233 0.61972 0.0
Mn505 Mn 0.95557 0.51308 0.63532 0.0
C506 C 0.95183 0.57808 0.66129 0.0
C507 C 0.96614 0.64288 0.60705 0.0
C508 C 0.88479 0.54174 0.62223 0.0
O509 O 0.95557 0.57107 0.58634 0.0
O510 O 0.96701 0.51984 0.59955 0.0
C511 C 0.03207 0.50909 0.62885 0.0
N512 N 1.00323 0.50494 0.64337 0.0
C513 C 0.03706 0.4803 0.67625 0.0
C514 C 0.06712 0.48412 0.66161 0.0
C515 C 0.06464 0.49881 0.63789 0.0
C516 C 1.00542 0.49146 0.6664 0.0
H517 H 0.03018 0.52006 0.61051 0.0
C518 C 0.96583 0.54178 0.58247 0.0
O519 O 0.93375 0.63528 0.60312 0.0
O520 O 0.98539 0.62081 0.61769 0.0
N521 N 0.94615 0.50274 0.66955 0.0
C522 C 0.91514 0.50308 0.68195 0.0
C523 C 0.91324 0.49006 0.70625 0.0
C524 C 0.94305 0.47632 0.71732 0.0
C525 C 0.97474 0.47643 0.70423 0.0
C526 C 0.97512 0.49009 0.68022 0.0
H527 H 0.89198 0.51288 0.67324 0.0
O528 O 0.93678 0.60543 0.6553 0.0
O529 O 0.96179 0.55979 0.64266 0.0
O530 O 0.89481 0.57126 0.61921 0.0
O531 O 0.90551 0.51833 0.62768 0.0
C532 C 1.00598 0.46347 0.714 0.0
C533 C 0.0372 0.46587 0.70019 0.0
H534 H 0.09225 0.47599 0.66844 0.0
H535 H 0.08773 0.50195 0.62651 0.0
H536 H 0.88873 0.49016 0.71627 0.0
H537 H 0.94131 0.46587 0.73592 0.0
H538 H 1.00642 0.45194 0.73226 0.0
H539 H 0.06117 0.45655 0.70818 0.0
Mn540 Mn 0.57234 0.42861 0.62275 0.0
Mn541 Mn 0.55652 0.50837 0.63437 0.0
C542 C 0.56203 0.4466 0.66339 0.0
C543 C 0.55167 0.37639 0.6121 0.0
C544 C 0.62871 0.48155 0.62311 0.0
O545 O 0.56054 0.44694 0.58811 0.0
O546 O 0.54545 0.49825 0.59918 0.0
C547 C 0.47987 0.5072 0.62837 0.0
N548 N 0.50845 0.51393 0.64255 0.0
C549 C 0.47305 0.53661 0.67539 0.0
C550 C 0.44322 0.53014 0.66109 0.0
C551 C 0.44663 0.5151 0.63756 0.0
C552 C 0.50539 0.5274 0.66552 0.0
H553 H 0.48243 0.49594 0.61017 0.0
C554 C 0.54841 0.47533 0.58302 0.0
O555 O 0.58395 0.38464 0.60843 0.0
O556 O 0.53138 0.39867 0.62141 0.0
N557 N 0.56562 0.52171 0.66805 0.0
C558 C 0.59696 0.526 0.67955 0.0
C559 C 0.59817 0.54086 0.70323 0.0
C560 C 0.56728 0.55188 0.71454 0.0
C561 C 0.53534 0.54739 0.70226 0.0
C562 C 0.53571 0.53197 0.67888 0.0
H563 H 0.62089 0.51845 0.67063 0.0
O564 O 0.57772 0.41893 0.65944 0.0
O565 O 0.55258 0.46239 0.64353 0.0
O566 O 0.61997 0.45141 0.62202 0.0
O567 O 0.60688 0.50476 0.62666 0.0
C568 C 0.50324 0.5583 0.712 0.0
C569 C 0.47206 0.55233 0.69883 0.0
H570 H 0.41758 0.53665 0.66797 0.0
H571 H 0.42374 0.50993 0.62643 0.0
H572 H 0.62291 0.54435 0.71256 0.0
H573 H 0.56848 0.56396 0.73256 0.0
H574 H 0.50221 0.57152 0.72954 0.0
H575 H 0.44751 0.56038 0.70673 0.0
H576 H 0.35615 0.04408 0.10884 0.0
H577 H 0.32891 0.94584 0.13117 0.0
H578 H 0.29486 0.05877 0.10721 0.0
H579 H 0.26747 0.96087 0.131 0.0
H580 H 0.15764 0.98804 0.10968 0.0
H581 H 0.21888 0.97334 0.10732 0.0
H582 H 0.24678 0.07091 0.13154 0.0
H583 H 0.18536 0.08597 0.13244 0.0
C584 C 0.33698 0.02564 0.11356 0.0
C585 C 0.34739 0.99377 0.12012 0.0
C586 C 0.30172 0.03414 0.11284 0.0
C587 C 0.27583 1.0112 0.11916 0.0
C588 C 0.28638 0.97918 0.12556 0.0
C589 C 0.32169 0.9705 0.12579 0.0
C590 C 0.17691 1.00641 0.11434 0.0
C591 C 0.16663 0.0382 0.12124 0.0
C592 C 0.21214 0.9979 0.1132 0.0
C593 C 0.23816 0.02075 0.11941 0.0
C594 C 0.22776 0.05269 0.12616 0.0
C595 C 0.19245 0.06138 0.12682 0.0
H596 H 0.68809 0.93725 0.35723 0.0
H597 H 0.65797 0.03428 0.38074 0.0
H598 H 0.7491 0.95386 0.35743 0.0
H599 H 0.71874 0.05047 0.38253 0.0
H600 H 0.82727 0.08168 0.35953 0.0
H601 H 0.76652 0.06464 0.35905 0.0
H602 H 0.79751 0.96687 0.38089 0.0
H603 H 0.85823 0.98363 0.37979 0.0
C604 C 0.69459 0.96199 0.36283 0.0
C605 C 0.66821 0.98447 0.36883 0.0
C606 C 0.72966 0.97157 0.3631 0.0
C607 C 0.73927 1.0037 0.36991 0.0
C608 C 0.71267 0.02583 0.37652 0.0
C609 C 0.67768 0.01645 0.37572 0.0
C610 C 0.821 0.05659 0.36427 0.0
C611 C 0.84757 0.03403 0.36964 0.0
C612 C 0.78606 0.04675 0.36416 0.0
C613 C 0.77667 0.01423 0.36997 0.0
C614 C 0.80343 0.99188 0.37576 0.0
C615 C 0.83837 1.00157 0.37534 0.0
H616 H 0.85615 0.04897 0.85756 0.0
H617 H 0.83169 0.95077 0.88207 0.0
H618 H 0.79475 0.06299 0.85829 0.0
H619 H 0.76996 0.96519 0.88334 0.0
H620 H 0.66115 0.99165 0.85397 0.0
H621 H 0.72255 0.97743 0.85539 0.0
H622 H 0.74623 0.07292 0.88561 0.0
H623 H 0.68465 0.08755 0.88368 0.0
C624 C 0.83775 0.03036 0.86334 0.0
C625 C 0.84907 0.99863 0.86973 0.0
C626 C 0.8024 0.03855 0.86391 0.0
C627 C 0.77727 0.0153 0.87092 0.0
C628 C 0.78854 0.98363 0.87754 0.0
C629 C 0.82399 0.97538 0.87693 0.0
C630 C 0.67934 1.0097 0.861 0.0
C631 C 0.66777 0.04086 0.86867 0.0
C632 C 0.71465 1.00139 0.86196 0.0
C633 C 0.73947 0.02394 0.87067 0.0
C634 C 0.72793 0.05505 0.8785 0.0
C635 C 0.69255 0.06342 0.87748 0.0
H636 H 0.18706 0.93966 0.60697 0.0
H637 H 0.16279 0.03551 0.63651 0.0
H638 H 0.24843 0.95482 0.60455 0.0
H639 H 0.22399 0.05026 0.63465 0.0
H640 H 0.33276 0.07778 0.60795 0.0
H641 H 0.27118 0.06285 0.60666 0.0
H642 H 0.29706 0.96516 0.63146 0.0
H643 H 0.35827 0.97966 0.63217 0.0
C644 C 0.19474 0.9639 0.61303 0.0
C645 C 0.1698 0.98628 0.62194 0.0
C646 C 0.23002 0.97258 0.61173 0.0
C647 C 0.2413 1.00383 0.61939 0.0
C648 C 0.21631 0.02621 0.62819 0.0
C649 C 0.1811 0.01759 0.62942 0.0
C650 C 0.32534 0.05307 0.61299 0.0
C651 C 0.35067 0.03001 0.62014 0.0
C652 C 0.28996 0.04453 0.61239 0.0
C653 C 0.27902 1.01275 0.61897 0.0
C654 C 0.30443 0.98968 0.62587 0.0
C655 C 0.33968 0.99815 0.62642 0.0
H656 H 0.83117 0.44823 0.1091 0.0
H657 H 0.85597 0.54673 0.13269 0.0
H658 H 0.76944 0.46283 0.10783 0.0
H659 H 0.79468 0.56089 0.13199 0.0
H660 H 0.68503 0.58595 0.107 0.0
H661 H 0.74635 0.57066 0.10465 0.0
H662 H 0.72202 0.47577 0.13576 0.0
H663 H 0.66078 0.49066 0.13757 0.0
C664 C 0.82356 0.47294 0.11401 0.0
C665 C 0.84873 0.49623 0.12096 0.0
C666 C 0.78812 0.48129 0.11341 0.0
C667 C 0.77699 0.5131 0.11978 0.0
C668 C 0.80222 0.53635 0.12654 0.0
C669 C 0.83751 0.52808 0.1271 0.0
C670 C 0.69271 0.5618 0.1133 0.0
C671 C 0.6678 0.53963 0.12251 0.0
C672 C 0.72795 0.55305 0.11204 0.0
C673 C 0.73925 0.52194 0.12005 0.0
C674 C 0.71429 0.49972 0.12907 0.0
C675 C 0.67909 0.50841 0.13026 0.0
H676 H 0.35741 0.47941 0.38214 0.0
H677 H 0.33107 0.57798 0.36007 0.0
H678 H 0.29602 0.46513 0.38333 0.0
H679 H 0.26953 0.56337 0.35971 0.0
H680 H 0.15912 0.53642 0.38051 0.0
H681 H 0.22035 0.55111 0.38266 0.0
H682 H 0.24827 0.45331 0.35886 0.0
H683 H 0.1869 0.43826 0.35824 0.0
C684 C 0.3384 0.49802 0.37739 0.0
C685 C 0.34909 0.52985 0.37104 0.0
C686 C 0.30308 0.48975 0.37783 0.0
C687 C 0.27741 0.51289 0.37139 0.0
C688 C 0.28824 0.5449 0.36522 0.0
C689 C 0.32361 0.55334 0.3653 0.0
C690 C 0.17839 0.51803 0.37583 0.0
C691 C 0.16814 0.48614 0.36923 0.0
C692 C 0.21364 0.52653 0.37687 0.0
C693 C 0.23968 0.50356 0.37084 0.0
C694 C 0.22926 0.47162 0.36415 0.0
C695 C 0.19397 0.46294 0.36362 0.0
H696 H 0.15889 0.49394 0.85333 0.0
H697 H 0.18498 0.5893 0.88293 0.0
H698 H 0.21984 0.47819 0.85492 0.0
H699 H 0.24615 0.57313 0.88502 0.0
H700 H 0.35608 0.54524 0.85848 0.0
H701 H 0.29517 0.5614 0.85835 0.0
H702 H 0.266 0.46475 0.88354 0.0
H703 H 0.32707 0.44821 0.88314 0.0
C704 C 0.17755 0.51157 0.86034 0.0
C705 C 0.1668 0.54298 0.86801 0.0
C706 C 0.21261 0.50238 0.86141 0.0
C707 C 0.23804 0.52427 0.8702 0.0
C708 C 0.22737 0.55572 0.87787 0.0
C709 C 0.19222 0.56497 0.87677 0.0
C710 C 0.33679 0.52735 0.86409 0.0
C711 C 0.3467 0.4953 0.87077 0.0
C712 C 0.30174 0.53676 0.86415 0.0
C713 C 0.27553 0.51444 0.87093 0.0
C714 C 0.28541 0.48249 0.87787 0.0
C715 C 0.32052 0.47303 0.87777 0.0
H716 H 0.65697 0.54019 0.60903 0.0
H717 H 0.68518 0.44271 0.63278 0.0
H718 H 0.71829 0.55497 0.60664 0.0
H719 H 0.74639 0.45783 0.63184 0.0
H720 H 0.82891 0.58219 0.63035 0.0
H721 H 0.76733 0.56772 0.6299 0.0
H722 H 0.79427 0.46918 0.60735 0.0
H723 H 0.85566 0.48333 0.6093 0.0
C724 C 0.67632 0.52194 0.61388 0.0
C725 C 0.66616 0.49021 0.621 0.0
C726 C 0.71159 0.53049 0.61272 0.0
C727 C 0.7377 0.50773 0.6191 0.0
C728 C 0.72736 0.47595 0.62623 0.0
C729 C 0.69211 0.46724 0.62693 0.0
C730 C 0.82157 0.5575 0.62519 0.0
C731 C 0.84718 0.53389 0.62 0.0
C732 C 0.78616 0.54915 0.62478 0.0
C733 C 0.77544 0.5171 0.61872 0.0
C734 C 0.80124 0.49385 0.61277 0.0
C735 C 0.83658 0.50203 0.61366 0.0
H736 H 0.92239 0.0924 0.28912 0.0
H737 H 0.02208 0.07704 0.32412 0.0
H738 H 0.94965 0.08931 0.24794 0.0
H739 H 0.04942 0.07142 0.28331 0.0
H740 H 0.09462 0.09389 0.20659 0.0
H741 H 0.06894 0.09552 0.24813 0.0
H742 H 0.9729 0.05626 0.21804 0.0
H743 H 0.99756 0.0592 0.17621 0.0
C744 C 0.95012 0.08776 0.28785 0.0
C745 C 0.96999 0.08341 0.30956 0.0
C746 C 0.96583 0.08561 0.26427 0.0
C747 C 1.00184 0.07921 0.26196 0.0
C748 C 0.02176 0.07643 0.284 0.0
C749 C 1.00605 0.07901 0.30749 0.0
C750 C 0.06817 0.0852 0.20906 0.0
C751 C 0.0485 0.07516 0.18835 0.0
C752 C 0.05337 0.0859 0.23295 0.0
C753 C 0.01855 0.07613 0.23677 0.0
C754 C 0.99945 0.06473 0.21601 0.0
C755 C 0.01395 0.06519 0.19202 0.0
H756 H 0.5171 0.97092 0.17402 0.0
H757 H 0.41982 0.93652 0.20431 0.0
H758 H 0.54213 0.97239 0.21578 0.0
H759 H 0.44577 0.93351 0.24569 0.0
H760 H 0.49345 0.94811 0.32166 0.0
H761 H 0.46603 0.95636 0.28116 0.0
H762 H 0.56506 0.93786 0.24487 0.0
H763 H 0.59253 0.93224 0.28583 0.0
C764 C 0.50075 0.96468 0.18981 0.0
C765 C 0.46605 0.9552 0.18616 0.0
C766 C 0.51544 0.96433 0.21374 0.0
C767 C 0.49634 0.95259 0.2344 0.0
C768 C 0.46136 0.94336 0.2306 0.0
C769 C 0.44639 0.94486 0.20679 0.0
C770 C 0.50933 0.94662 0.30492 0.0
C771 C 0.54528 0.94125 0.30671 0.0
C772 C 0.49355 0.95071 0.2816 0.0
C773 C 0.51324 0.94842 0.25941 0.0
C774 C 0.5491 0.94119 0.26138 0.0
C775 C 0.56491 0.93757 0.28481 0.0
H776 H 0.09481 0.93352 0.70529 0.0
H777 H 0.99544 0.94841 0.66968 0.0
H778 H 0.06732 0.93853 0.74634 0.0
H779 H 0.96794 0.95575 0.71026 0.0
H780 H 0.92209 0.93703 0.78735 0.0
H781 H 0.94815 0.93289 0.74602 0.0
H782 H 0.04406 0.97356 0.77517 0.0
H783 H 0.01894 0.97337 0.81694 0.0
C784 C 0.06712 0.93842 0.70638 0.0
C785 C 0.04742 0.9421 0.68451 0.0
C786 C 0.05128 0.94166 0.72986 0.0
C787 C 0.01532 0.94843 0.73191 0.0
C788 C 0.99555 0.95049 0.70975 0.0
C789 C 0.01137 0.9469 0.68639 0.0
C790 C 0.94858 0.94549 0.78472 0.0
C791 C 0.96806 0.9568 0.80514 0.0
C792 C 0.96361 0.94332 0.76094 0.0
C793 C 0.99848 0.9528 0.75694 0.0
C794 C 0.01745 0.96533 0.77738 0.0
C795 C 1.00269 0.96641 0.80128 0.0
H796 H 0.51837 0.05597 0.6751 0.0
H797 H 0.42057 0.09144 0.70386 0.0
H798 H 0.54275 0.05598 0.71706 0.0
H799 H 0.44587 0.09574 0.74544 0.0
H800 H 0.49247 0.079 0.82214 0.0
H801 H 0.46544 0.07256 0.7813 0.0
H802 H 0.56496 0.09164 0.74597 0.0
H803 H 0.59196 0.09595 0.78722 0.0
C804 C 0.50175 0.06275 0.69061 0.0
C805 C 0.4671 0.07211 0.68646 0.0
C806 C 0.51608 0.06398 0.71462 0.0
C807 C 0.49662 0.07636 0.73489 0.0
C808 C 0.4617 0.08549 0.73063 0.0
C809 C 0.44711 0.08321 0.70672 0.0
C810 C 0.50851 0.08119 0.80553 0.0
C811 C 0.54448 0.08625 0.80762 0.0
C812 C 0.49297 0.0781 0.78204 0.0
C813 C 0.51298 0.0808 0.76003 0.0
C814 C 0.5488 0.088 0.76234 0.0
C815 C 0.56434 0.09081 0.78593 0.0
H816 H 0.49392 0.58072 0.17001 0.0
H817 H 0.59355 0.5947 0.20543 0.0
H818 H 0.46651 0.57361 0.21061 0.0
H819 H 0.56617 0.58967 0.24656 0.0
H820 H 0.4213 0.59039 0.28805 0.0
H821 H 0.44711 0.5957 0.24674 0.0
H822 H 0.54298 0.55349 0.27479 0.0
H823 H 0.51811 0.55241 0.31664 0.0
C824 C 0.5099 0.58218 0.1867 0.0
C825 C 0.54598 0.58656 0.18477 0.0
C826 C 0.49415 0.57869 0.21007 0.0
C827 C 0.51407 0.58027 0.23217 0.0
C828 C 0.55005 0.5869 0.23008 0.0
C829 C 0.56581 0.59013 0.20658 0.0
C830 C 0.44771 0.58179 0.28516 0.0
C831 C 0.46729 0.56979 0.30532 0.0
C832 C 0.4626 0.58467 0.26141 0.0
C833 C 0.49741 0.5752 0.25715 0.0
C834 C 0.51642 0.56178 0.27726 0.0
C835 C 0.50179 0.55995 0.30118 0.0
H836 H 0.99196 0.45227 0.32251 0.0
H837 H 0.09113 0.43437 0.28739 0.0
H838 H 0.96511 0.46022 0.28171 0.0
H839 H 0.06426 0.43971 0.24625 0.0
H840 H 0.01771 0.47186 0.17473 0.0
H841 H 0.04213 0.47399 0.21665 0.0
H842 H 0.94504 0.43645 0.24632 0.0
H843 H 0.91972 0.43872 0.20465 0.0
C844 C 0.00801 0.45033 0.30588 0.0
C845 C 0.04383 0.4444 0.30793 0.0
C846 C 0.99255 0.45425 0.2824 0.0
C847 C 0.01244 0.45122 0.26035 0.0
C848 C 0.04816 0.44359 0.26262 0.0
C849 C 0.06364 0.44014 0.28617 0.0
C850 C 1.0011 0.46599 0.19046 0.0
C851 C 0.96637 0.4567 0.18664 0.0
C852 C 0.01541 0.46606 0.2145 0.0
C853 C 0.9959 0.45494 0.23517 0.0
C854 C 0.96092 0.44582 0.2312 0.0
C855 C 0.94633 0.44687 0.20724 0.0
H856 H 0.49389 0.44234 0.6736 0.0
H857 H 0.59305 0.46289 0.70765 0.0
H858 H 0.4662 0.4424 0.71416 0.0
H859 H 0.56511 0.46799 0.74833 0.0
H860 H 0.51805 0.44049 0.8222 0.0
H861 H 0.54469 0.4429 0.78121 0.0
H862 H 0.44289 0.46048 0.74843 0.0
H863 H 0.41664 0.4537 0.78944 0.0
C864 C 0.50947 0.44802 0.68995 0.0
C865 C 0.54543 0.45265 0.6877 0.0
C866 C 0.49356 0.44843 0.71344 0.0
C867 C 0.51306 0.45471 0.73532 0.0
C868 C 0.549 0.4615 0.73251 0.0
C869 C 0.56516 0.45935 0.70907 0.0
C870 C 0.50162 0.44476 0.80603 0.0
C871 C 0.46553 0.44776 0.80883 0.0
C872 C 0.51688 0.44661 0.78234 0.0
C873 C 0.49648 0.45253 0.7608 0.0
C874 C 0.45999 0.45521 0.76396 0.0
C875 C 0.44469 0.4519 0.78761 0.0
H876 H 0.99183 0.58436 0.82248 0.0
H877 H 0.09132 0.59843 0.78683 0.0
H878 H 0.96425 0.5774 0.78189 0.0
H879 H 0.06382 0.59352 0.74578 0.0
H880 H 0.01582 0.55663 0.6757 0.0
H881 H 0.0406 0.55743 0.71755 0.0
H882 H 0.94477 0.59962 0.74571 0.0
H883 H 0.91903 0.59463 0.70433 0.0
C884 C 0.00775 0.58584 0.80576 0.0
C885 C 0.04384 0.59022 0.80761 0.0
C886 C 0.9919 0.58243 0.78239 0.0
C887 C 0.01176 0.58407 0.76025 0.0
C888 C 0.04774 0.59068 0.76228 0.0
C889 C 0.06357 0.59384 0.78575 0.0
C890 C 0.99948 0.56411 0.69117 0.0
C891 C 0.96499 0.57401 0.68702 0.0
C892 C 0.01406 0.56579 0.71511 0.0
C893 C 0.99506 0.57912 0.73525 0.0
C894 C 0.96027 0.58867 0.731 0.0
C895 C 0.94541 0.58597 0.70721 0.0
H896 H 0.08553 0.20231 0.09221 0.0
H897 H 0.98431 0.17393 0.11999 0.0
H898 H 0.06519 0.25867 0.08776 0.0
H899 H 0.96421 0.23026 0.11611 0.0
H900 H 0.03076 0.35992 0.1177 0.0
H901 H 0.05061 0.30346 0.11502 0.0
H902 H 0.94926 0.27422 0.08796 0.0
H903 H 0.92913 0.33084 0.0912 0.0
C904 C 0.05887 0.20805 0.09722 0.0
C905 C 0.03661 0.18362 0.10657 0.0
C906 C 0.04725 0.24042 0.09482 0.0
C907 C 0.01308 0.24918 0.10172 0.0
C908 C 0.99054 0.22446 0.11032 0.0
C909 C 1.00215 0.19212 0.1127 0.0
C910 C 0.01277 0.34153 0.11092 0.0
C911 C 0.97828 0.34991 0.10479 0.0
C912 C 0.02424 0.3091 0.10923 0.0
C913 C 1.00154 0.28412 0.10136 0.0
C914 C 0.96732 0.2927 0.09445 0.0
C915 C 0.95583 0.32521 0.09614 0.0
H916 H 0.53052 0.85952 0.11644 0.0
H917 H 0.43058 0.83156 0.08616 0.0
H918 H 0.55154 0.80377 0.11105 0.0
H919 H 0.45193 0.7758 0.08009 0.0
H920 H 0.48596 0.6742 0.10971 0.0
H921 H 0.46561 0.73032 0.10648 0.0
H922 H 0.56818 0.76084 0.08268 0.0
H923 H 0.58885 0.70442 0.0866 0.0
C924 C 0.51318 0.84157 0.10825 0.0
C925 C 0.47875 0.84994 0.10195 0.0
C926 C 0.52535 0.80957 0.10497 0.0
C927 C 0.50343 0.78511 0.09523 0.0
C928 C 0.46938 0.79384 0.08802 0.0
C929 C 0.45717 0.82587 0.09138 0.0
C930 C 0.50412 0.69276 0.10345 0.0
C931 C 0.53913 0.68484 0.0986 0.0
C932 C 0.49235 0.72503 0.10144 0.0
C933 C 0.51525 0.75029 0.09445 0.0
C934 C 0.54994 0.74211 0.0885 0.0
C935 C 0.56175 0.70973 0.09055 0.0
H936 H 0.53295 0.66296 0.37556 0.0
H937 H 0.43301 0.69135 0.40572 0.0
H938 H 0.55358 0.71897 0.37984 0.0
H939 H 0.45396 0.74741 0.41066 0.0
H940 H 0.48722 0.84865 0.37999 0.0
H941 H 0.46727 0.79243 0.38365 0.0
H942 H 0.57014 0.76269 0.40738 0.0
H943 H 0.59038 0.81913 0.40304 0.0
C944 C 0.51553 0.68106 0.38351 0.0
C945 C 0.48121 0.6727 0.39011 0.0
C946 C 0.52747 0.71323 0.38613 0.0
C947 C 0.50544 0.73791 0.39549 0.0
C948 C 0.4715 0.72921 0.40301 0.0
C949 C 0.45953 0.69701 0.40032 0.0
C950 C 0.50554 0.83023 0.38628 0.0
C951 C 0.54049 0.83839 0.39105 0.0
C952 C 0.494 0.7979 0.38855 0.0
C953 C 0.51707 0.77282 0.3957 0.0
C954 C 0.55175 0.78124 0.40144 0.0
C955 C 0.56332 0.81365 0.39913 0.0
H956 H 0.98765 0.35891 0.40425 0.0
H957 H 0.08827 0.31839 0.38615 0.0
H958 H 0.96483 0.30406 0.41124 0.0
H959 H 0.06521 0.26346 0.39097 0.0
H960 H 0.02341 0.16521 0.40853 0.0
H961 H 0.04566 0.22058 0.41365 0.0
H962 H 0.94545 0.25913 0.39082 0.0
H963 H 0.92288 0.20375 0.38791 0.0
C964 C 1.00487 0.33814 0.40178 0.0
C965 C 0.03969 0.34285 0.39465 0.0
C966 C 0.99173 0.30655 0.4055 0.0
C967 C 0.01281 0.27877 0.40138 0.0
C968 C 0.04804 0.28383 0.39487 0.0
C969 C 0.06138 0.31546 0.3919 0.0
C970 C 1.00606 0.18568 0.40519 0.0
C971 C 0.97147 0.18026 0.39783 0.0
C972 C 0.01889 0.21755 0.40778 0.0
C973 C 0.99778 0.24486 0.4022 0.0
C974 C 0.96266 0.23916 0.39572 0.0
C975 C 0.94958 0.20726 0.3939 0.0
H976 H 0.08916 0.70814 0.90557 0.0
H977 H 0.98583 0.67859 0.88308 0.0
H978 H 0.06892 0.76467 0.90967 0.0
H979 H 0.9659 0.73483 0.88647 0.0
H980 H 0.93167 0.83637 0.90676 0.0
H981 H 0.95261 0.78043 0.9127 0.0
H982 H 0.05243 0.80791 0.88176 0.0
H983 H 0.03183 0.8638 0.87654 0.0
C984 C 0.06206 0.71362 0.90179 0.0
C985 C 0.03919 0.68886 0.89387 0.0
C986 C 0.05049 0.74608 0.90394 0.0
C987 C 0.01578 0.75451 0.89821 0.0
C988 C 0.99266 0.72938 0.89134 0.0
C989 C 1.00419 0.69703 0.88924 0.0
C990 C 0.95823 0.83053 0.90155 0.0
C991 C 0.97998 0.85453 0.89103 0.0
C992 C 0.97021 0.79839 0.90481 0.0
C993 C 1.0042 0.78944 0.89755 0.0
C994 C 0.02629 0.81384 0.88788 0.0
C995 C 0.01435 0.84594 0.88471 0.0
H996 H 0.42321 0.32732 0.9079 0.0
H997 H 0.52536 0.35684 0.88264 0.0
H998 H 0.44468 0.27146 0.914 0.0
H999 H 0.54643 0.30132 0.88795 0.0
H1000 H 0.483 0.17149 0.88281 0.0
H1001 H 0.46112 0.2269 0.88757 0.0
H1002 H 0.56153 0.25774 0.91548 0.0
H1003 H 0.58381 0.20216 0.90988 0.0
C1004 C 0.45028 0.32197 0.90387 0.0
C1005 C 0.47247 0.34648 0.89461 0.0
C1006 C 0.46257 0.28992 0.90722 0.0
C1007 C 0.49731 0.28171 0.90134 0.0
C1008 C 0.51971 0.30666 0.89304 0.0
C1009 C 0.50749 0.33857 0.88977 0.0
C1010 C 0.50035 0.18996 0.89028 0.0
C1011 C 0.53531 0.18246 0.89569 0.0
C1012 C 0.48766 0.2218 0.89321 0.0
C1013 C 0.50956 0.24701 0.90172 0.0
C1014 C 0.54407 0.23909 0.90842 0.0
C1015 C 0.55683 0.20718 0.90538 0.0
H1016 H 0.53244 0.16622 0.6168 0.0
H1017 H 0.43116 0.19603 0.59 0.0
H1018 H 0.55248 0.22259 0.61463 0.0
H1019 H 0.4515 0.25261 0.58723 0.0
H1020 H 0.48624 0.35235 0.62014 0.0
H1021 H 0.46615 0.29615 0.61566 0.0
H1022 H 0.56765 0.26781 0.58816 0.0
H1023 H 0.58799 0.32406 0.59324 0.0
C1024 C 0.51457 0.18475 0.61004 0.0
C1025 C 0.48011 0.17658 0.6037 0.0
C1026 C 0.52617 0.21715 0.60865 0.0
C1027 C 0.50363 0.24234 0.60085 0.0
C1028 C 0.46945 0.23397 0.59368 0.0
C1029 C 0.45784 0.20148 0.59508 0.0
C1030 C 0.50422 0.33421 0.61293 0.0
C1031 C 0.53881 0.3427 0.60721 0.0
C1032 C 0.4926 0.30193 0.61019 0.0
C1033 C 0.51525 0.27726 0.60162 0.0
C1034 C 0.5496 0.28601 0.59517 0.0
C1035 C 0.56123 0.31833 0.59795 0.0
H1036 H 0.09064 0.82126 0.58762 0.0
H1037 H 0.98782 0.85144 0.61105 0.0
H1038 H 0.06989 0.76497 0.58324 0.0
H1039 H 0.96738 0.79541 0.60731 0.0
H1040 H 0.93211 0.69479 0.58558 0.0
H1041 H 0.95372 0.75056 0.58015 0.0
H1042 H 0.053 0.72155 0.61117 0.0
H1043 H 0.03173 0.66582 0.61595 0.0
C1044 C 0.06355 0.81596 0.59158 0.0
C1045 C 0.04096 0.84081 0.59982 0.0
C1046 C 0.05169 0.78366 0.58924 0.0
C1047 C 0.01697 0.7755 0.59508 0.0
C1048 C 0.99414 0.80071 0.60234 0.0
C1049 C 1.00596 0.83291 0.60466 0.0
C1050 C 0.9587 0.70025 0.59091 0.0
C1051 C 0.9801 0.6759 0.60135 0.0
C1052 C 0.97105 0.73228 0.58793 0.0
C1053 C 1.00506 0.74072 0.5954 0.0
C1054 C 0.02683 0.71598 0.60493 0.0
C1055 C 0.01452 0.68398 0.60784 0.0
H1056 H 1.00319 0.04327 0.92316 0.0
H1057 H 0.95521 0.95636 0.95389 0.0
H1058 H 0.02411 0.0582 0.96443 0.0
H1059 H 0.97512 0.97204 0.99554 0.0
H1060 H 0.04764 0.98976 0.06096 0.0
H1061 H 0.02718 0.97554 0.01938 0.0
H1062 H 1.00618 0.07765 0.00428 0.0
H1063 H 0.02795 0.09203 0.04575 0.0
C1064 C 0.9967 0.02751 0.93879 0.0
C1065 C 0.97751 0.99856 0.9352 0.0
C1066 C 0.00859 0.03621 0.96253 0.0
C1067 C 1.00133 0.01637 0.98335 0.0
C1068 C 0.98171 0.98762 0.97984 0.0
C1069 C 0.9701 0.9787 0.95599 0.0
C1070 C 0.03881 1.00924 0.04874 0.0
C1071 C 0.0394 0.04205 0.05665 0.0
C1072 C 0.02678 1.00102 0.02494 0.0
C1073 C 0.01468 0.02537 0.00853 0.0
C1074 C 0.01568 0.05829 0.01633 0.0
C1075 C 0.02811 0.06657 0.04011 0.0
H1076 H 0.56338 0.07799 0.9547 0.0
H1077 H 0.51588 0.99195 0.92225 0.0
H1078 H 0.5425 0.06144 0.99587 0.0
H1079 H 0.4939 0.97618 0.96309 0.0
H1080 H 0.48659 0.94156 0.04417 0.0
H1081 H 0.50989 0.95614 0.00318 0.0
H1082 H 0.48941 0.05829 0.01852 0.0
H1083 H 0.46745 0.04383 0.0597 0.0
C1084 C 0.54846 0.0556 0.95633 0.0
C1085 C 0.5413 0.03636 0.93517 0.0
C1086 C 0.53625 0.04621 0.9799 0.0
C1087 C 0.51626 0.01758 0.98278 0.0
C1088 C 0.50959 0.99812 0.96165 0.0
C1089 C 0.5221 1.00729 0.93817 0.0
C1090 C 0.48685 0.96708 0.03867 0.0
C1091 C 0.47529 0.99153 0.05519 0.0
C1092 C 0.50017 0.97547 0.01517 0.0
C1093 C 0.50181 1.00844 0.00762 0.0
C1094 C 0.48935 0.03274 0.02394 0.0
C1095 C 0.47645 0.02441 0.04749 0.0
H1096 H 0.50851 0.98845 0.56944 0.0
H1097 H 0.45867 0.07328 0.53684 0.0
H1098 H 0.53036 0.97265 0.5287 0.0
H1099 H 0.47949 0.05658 0.49554 0.0
H1100 H 0.55086 0.03568 0.42964 0.0
H1101 H 0.5308 0.05223 0.4709 0.0
H1102 H 0.51247 0.95081 0.48996 0.0
H1103 H 0.53387 0.9342 0.44893 0.0
C1104 C 0.50184 1.0036 0.5535 0.0
C1105 C 0.48169 0.03213 0.55641 0.0
C1106 C 0.51427 0.99436 0.53004 0.0
C1107 C 0.50657 1.01316 0.50874 0.0
C1108 C 0.48635 0.04174 0.5116 0.0
C1109 C 0.47422 0.05124 0.53523 0.0
C1110 C 0.54277 0.01687 0.44271 0.0
C1111 C 0.54402 0.98359 0.43603 0.0
C1112 C 0.53095 0.02641 0.46631 0.0
C1113 C 0.51973 1.00293 0.48374 0.0
C1114 C 0.52136 0.96957 0.47715 0.0
C1115 C 0.53359 0.96 0.45361 0.0
H1116 H 0.03281 0.93627 0.54312 0.0
H1117 H 0.04863 0.03807 0.56192 0.0
H1118 H 0.00868 0.95241 0.50283 0.0
H1119 H 0.02578 0.05418 0.52128 0.0
H1120 H 0.95095 0.07426 0.45712 0.0
H1121 H 0.97299 0.05736 0.49801 0.0
H1122 H 0.02424 0.97448 0.46365 0.0
H1123 H 1.00124 0.99043 0.42332 0.0
C1124 C 0.03171 0.96207 0.53848 0.0
C1125 C 0.04267 0.98586 0.55571 0.0
C1126 C 0.01787 0.97136 0.51535 0.0
C1127 C 0.0151 1.00465 0.5088 0.0
C1128 C 0.0268 0.02838 0.52588 0.0
C1129 C 0.04025 0.01911 0.5491 0.0
C1130 C 0.96669 0.05231 0.45838 0.0
C1131 C 0.97416 0.0337 0.43692 0.0
C1132 C 0.97957 0.04274 0.48178 0.0
C1133 C 1.00048 0.01454 0.48415 0.0
C1134 C 0.00774 0.99595 0.46267 0.0
C1135 C 0.99461 1.00528 0.43943 0.0
H1136 H 0.56189 0.57906 0.03716 0.0
H1137 H 0.51395 0.49402 0.07085 0.0
H1138 H 0.5402 0.56192 0.99629 0.0
H1139 H 0.49114 0.4778 0.03048 0.0
H1140 H 0.48306 0.44044 0.95049 0.0
H1141 H 0.50658 0.45639 0.99106 0.0
H1142 H 0.48761 0.55814 0.97327 0.0
H1143 H 0.4655 0.54223 0.93243 0.0
C1144 C 0.54667 0.55681 0.03587 0.0
C1145 C 0.53975 0.53793 0.05728 0.0
C1146 C 0.53399 0.54708 0.01249 0.0
C1147 C 0.51376 0.5185 0.01007 0.0
C1148 C 0.50709 0.49961 0.0315 0.0
C1149 C 0.52008 0.50907 0.05475 0.0
C1150 C 0.48365 0.46618 0.95537 0.0
C1151 C 0.47247 0.49007 0.93827 0.0
C1152 C 0.49711 0.47536 0.97864 0.0
C1153 C 0.49924 0.50861 0.98541 0.0
C1154 C 0.48716 0.53238 0.96849 0.0
C1155 C 0.47415 0.52323 0.94515 0.0
H1156 H 0.96792 0.54541 0.0605 0.0
H1157 H 0.98974 0.44384 0.04416 0.0
H1158 H 0.98965 0.561 0.01952 0.0
H1159 H 0.01279 0.45959 0.00331 0.0
H1160 H 0.01729 0.49628 0.92268 0.0
H1161 H 0.99617 0.47966 0.96348 0.0
H1162 H 0.04214 0.56609 -0.00359 0.0
H1163 H 0.06222 0.58351 0.95518 0.0
C1164 C 0.97748 0.52637 0.04815 0.0
C1165 C 0.97709 0.49335 0.05559 0.0
C1166 C 0.99026 0.53538 0.02471 0.0
C1167 C 1.00336 0.51165 0.00816 0.0
C1168 C 1.00257 0.47852 0.01546 0.0
C1169 C 0.98938 0.46945 0.03888 0.0
C1170 C 0.02314 0.51175 0.9386 0.0
C1171 C 0.04142 0.54135 0.93559 0.0
C1172 C 0.01112 0.50205 0.96209 0.0
C1173 C 0.01734 0.5215 0.98329 0.0
C1174 C 0.0363 0.55078 0.98041 0.0
C1175 C 0.04804 0.56069 0.9568 0.0
H1176 H 1.00584 0.48905 0.57039 0.0
H1177 H 0.95543 0.57357 0.53776 0.0
H1178 H 0.02886 0.47405 0.52977 0.0
H1179 H 0.97735 0.55765 0.49662 0.0
H1180 H 0.04992 0.53887 0.43122 0.0
H1181 H 0.02909 0.55454 0.47251 0.0
H1182 H 0.01252 0.45256 0.49067 0.0
H1183 H 0.03475 0.43689 0.4497 0.0
C1184 C 0.99927 0.50427 0.55446 0.0
C1185 C 0.97868 0.53252 0.55733 0.0
C1186 C 0.01239 0.49551 0.53107 0.0
C1187 C 1.00491 0.51451 0.50983 0.0
C1188 C 0.98411 0.54271 0.51264 0.0
C1189 C 0.97132 0.55174 0.53618 0.0
C1190 C 0.0421 0.51978 0.44412 0.0
C1191 C 0.04407 0.48662 0.43722 0.0
C1192 C 0.02983 0.52879 0.46773 0.0
C1193 C 0.01883 0.50487 0.48491 0.0
C1194 C 0.02123 0.47165 0.47809 0.0
C1195 C 0.03395 0.46262 0.45457 0.0
H1196 H 0.56317 0.44313 0.53893 0.0
H1197 H 0.50496 0.52461 0.56933 0.0
H1198 H 0.54363 0.45818 0.49683 0.0
H1199 H 0.48472 0.53874 0.5279 0.0
H1200 H 0.48476 0.57805 0.44891 0.0
H1201 H 0.50572 0.56195 0.49012 0.0
H1202 H 0.49298 0.46004 0.47037 0.0
H1203 H 0.47316 0.47609 0.42891 0.0
C1204 C 0.54605 0.464 0.53667 0.0
C1205 C 0.53595 0.48281 0.55745 0.0
C1206 C 0.53474 0.47258 0.5126 0.0
C1207 C 0.51287 0.49991 0.50897 0.0
C1208 C 0.50223 0.5181 0.52988 0.0
C1209 C 0.51374 0.50979 0.55374 0.0
C1210 C 0.48626 0.55223 0.4534 0.0
C1211 C 0.47719 0.52841 0.43564 0.0
C1212 C 0.49822 0.54295 0.47705 0.0
C1213 C 0.501 0.50965 0.48358 0.0
C1214 C 0.49171 0.48586 0.46584 0.0
C1215 C 0.48006 0.49512 0.44213 0.0
loop_
_geom_bond_atom_site_label_1
_geom_bond_atom_site_label_2
_geom_bond_distance
_geom_bond_site_symmetry_2
_ccdc_geom_bond_type
Mn0 O5 2.095 . S
Mn0 O15 2.162 . S
Mn0 O16 2.297 . S
Mn0 O24 2.385 . S
Mn0 O25 2.209 . S
Mn0 O26 2.094 . S
Mn1 O6 2.115 1_565 S
Mn1 N8 2.273 . S
Mn1 N17 2.291 . S
Mn1 O25 2.186 1_565 S
Mn1 O27 2.107 1_565 S
C2 O24 1.234 . S
C2 O25 1.283 . S
C3 O15 1.281 . S
C3 O16 1.236 . S
C4 O26 1.240 . S
C4 O27 1.264 . S
O5 Mn0 2.095 . S
O5 C14 1.250 . S
O6 Mn1 2.115 1_545 S
O6 C14 1.258 . S
C7 N8 1.326 1_655 S
C7 C11 1.460 . S
C7 H13 0.929 . S
N8 Mn1 2.273 . S
N8 C7 1.326 1_455 S
N8 C12 1.362 . S
C9 C10 1.258 . S
C9 C12 1.431 1_655 S
C9 C29 1.449 . S
C10 C9 1.258 . S
C10 C11 1.477 . S
C10 H30 0.931 . S
C11 C7 1.460 . S
C11 C10 1.477 . S
C11 H31 0.930 . S
C12 N8 1.362 . S
C12 C9 1.431 1_455 S
C12 C22 1.476 . S
H13 C7 0.929 . S
C14 O5 1.250 . S
C14 O6 1.258 . S
O15 Mn0 2.162 . S
O15 C3 1.281 . S
O16 Mn0 2.297 . S
O16 C3 1.236 . S
N17 Mn1 2.291 . S
N17 C18 1.328 . S
N17 C22 1.318 . S
C18 N17 1.328 . S
C18 C19 1.457 . S
C18 H23 0.929 1_565 S
C19 C18 1.457 . S
C19 C20 1.291 . S
C19 H32 0.931 . S
C20 C19 1.291 . S
C20 C21 1.373 . S
C20 H33 0.929 . S
C21 C20 1.373 . S
C21 C22 1.396 . S
C21 C28 1.403 . S
C22 C12 1.476 . S
C22 N17 1.318 . S
C22 C21 1.396 . S
H23 C18 0.929 1_545 S
O24 Mn0 2.385 . S
O24 C2 1.234 . S
O25 Mn0 2.209 . S
O25 Mn1 2.186 1_545 S
O25 C2 1.283 . S
O26 Mn0 2.094 . S
O26 C4 1.240 . S
O27 Mn1 2.107 1_545 S
O27 C4 1.264 . S
C28 C21 1.403 . S
C28 C29 1.399 1_455 S
C28 H34 0.929 . S
C29 C9 1.449 . S
C29 C28 1.399 1_655 S
C29 H35 0.930 . S
H30 C10 0.931 . S
H31 C11 0.930 . S
H32 C19 0.931 . S
H33 C20 0.929 . S
H34 C28 0.929 . S
H35 C29 0.930 . S
Mn36 O41 2.095 . S
Mn36 O51 2.162 . S
Mn36 O52 2.297 . S
Mn36 O60 2.385 . S
Mn36 O61 2.209 . S
Mn36 O62 2.094 . S
Mn37 O42 2.115 1_545 S
Mn37 N44 2.273 . S
Mn37 N53 2.291 . S
Mn37 O61 2.186 1_545 S
Mn37 O63 2.107 1_545 S
C38 O60 1.234 . S
C38 O61 1.283 . S
C39 O51 1.281 . S
C39 O52 1.236 . S
C40 O62 1.240 . S
C40 O63 1.264 . S
O41 Mn36 2.095 . S
O41 C50 1.250 . S
O42 Mn37 2.115 1_565 S
O42 C50 1.258 . S
C43 N44 1.326 . S
C43 C47 1.460 . S
C43 H49 0.929 . S
N44 Mn37 2.273 . S
N44 C43 1.326 . S
N44 C48 1.362 . S
C45 C46 1.258 . S
C45 C48 1.431 . S
C45 C65 1.449 . S
C46 C45 1.258 . S
C46 C47 1.477 . S
C46 H66 0.931 . S
C47 C43 1.460 . S
C47 C46 1.477 . S
C47 H67 0.930 . S
C48 N44 1.362 . S
C48 C45 1.431 . S
C48 C58 1.476 . S
H49 C43 0.929 . S
C50 O41 1.250 . S
C50 O42 1.258 . S
O51 Mn36 2.162 . S
O51 C39 1.281 . S
O52 Mn36 2.297 . S
O52 C39 1.236 . S
N53 Mn37 2.291 . S
N53 C54 1.328 . S
N53 C58 1.318 . S
C54 N53 1.328 . S
C54 C55 1.457 . S
C54 H59 0.929 1_545 S
C55 C54 1.457 . S
C55 C56 1.291 . S
C55 H68 0.931 . S
C56 C55 1.291 . S
C56 C57 1.373 . S
C56 H69 0.929 . S
C57 C56 1.373 . S
C57 C58 1.396 . S
C57 C64 1.403 . S
C58 C48 1.476 . S
C58 N53 1.318 . S
C58 C57 1.396 . S
H59 C54 0.929 1_565 S
O60 Mn36 2.385 . S
O60 C38 1.234 . S
O61 Mn36 2.209 . S
O61 Mn37 2.186 1_565 S
O61 C38 1.283 . S
O62 Mn36 2.094 . S
O62 C40 1.240 . S
O63 Mn37 2.107 1_565 S
O63 C40 1.264 . S
C64 C57 1.403 . S
C64 C65 1.399 . S
C64 H70 0.929 . S
C65 C45 1.449 . S
C65 C64 1.399 . S
C65 H71 0.930 . S
H66 C46 0.931 . S
H67 C47 0.930 . S
H68 C55 0.931 . S
H69 C56 0.929 . S
H70 C64 0.929 . S
H71 C65 0.930 . S
Mn72 O77 2.095 . S
Mn72 O87 2.162 . S
Mn72 O88 2.297 . S
Mn72 O96 2.385 . S
Mn72 O97 2.209 . S
Mn72 O98 2.094 . S
Mn73 O78 2.115 1_545 S
Mn73 N80 2.273 . S
Mn73 N89 2.291 . S
Mn73 O97 2.186 1_545 S
Mn73 O99 2.107 1_545 S
C74 O96 1.234 . S
C74 O97 1.283 . S
C75 O87 1.281 . S
C75 O88 1.236 . S
C76 O98 1.240 . S
C76 O99 1.264 . S
O77 Mn72 2.095 . S
O77 C86 1.250 . S
O78 Mn73 2.115 1_565 S
O78 C86 1.258 . S
C79 N80 1.326 . S
C79 C83 1.460 . S
C79 H85 0.929 . S
N80 Mn73 2.273 . S
N80 C79 1.326 . S
N80 C84 1.362 . S
C81 C82 1.258 . S
C81 C84 1.431 . S
C81 C101 1.449 . S
C82 C81 1.258 . S
C82 C83 1.477 . S
C82 H102 0.931 . S
C83 C79 1.460 . S
C83 C82 1.477 . S
C83 H103 0.930 . S
C84 N80 1.362 . S
C84 C81 1.431 . S
C84 C94 1.476 . S
H85 C79 0.929 . S
C86 O77 1.250 . S
C86 O78 1.258 . S
O87 Mn72 2.162 . S
O87 C75 1.281 . S
O88 Mn72 2.297 . S
O88 C75 1.236 . S
N89 Mn73 2.291 . S
N89 C90 1.328 . S
N89 C94 1.318 . S
C90 N89 1.328 . S
C90 C91 1.457 . S
C90 H95 0.929 1_545 S
C91 C90 1.457 . S
C91 C92 1.291 . S
C91 H104 0.931 . S
C92 C91 1.291 . S
C92 C93 1.373 . S
C92 H105 0.929 . S
C93 C92 1.373 . S
C93 C94 1.396 . S
C93 C100 1.403 . S
C94 C84 1.476 . S
C94 N89 1.318 . S
C94 C93 1.396 . S
H95 C90 0.929 1_565 S
O96 Mn72 2.385 . S
O96 C74 1.234 . S
O97 Mn72 2.209 . S
O97 Mn73 2.186 1_565 S
O97 C74 1.283 . S
O98 Mn72 2.094 . S
O98 C76 1.240 . S
O99 Mn73 2.107 1_565 S
O99 C76 1.264 . S
C100 C93 1.403 . S
C100 C101 1.399 . S
C100 H106 0.929 . S
C101 C81 1.449 . S
C101 C100 1.399 . S
C101 H107 0.930 . S
H102 C82 0.931 . S
H103 C83 0.930 . S
H104 C91 0.931 . S
H105 C92 0.929 . S
H106 C100 0.929 . S
H107 C101 0.930 . S
Mn108 O113 2.095 . S
Mn108 O123 2.162 . S
Mn108 O124 2.297 . S
Mn108 O132 2.385 . S
Mn108 O133 2.209 . S
Mn108 O134 2.094 . S
Mn109 O114 2.115 1_565 S
Mn109 N116 2.273 . S
Mn109 N125 2.291 . S
Mn109 O133 2.186 1_565 S
Mn109 O135 2.107 1_565 S
C110 O132 1.234 . S
C110 O133 1.283 . S
C111 O123 1.281 . S
C111 O124 1.236 . S
C112 O134 1.240 . S
C112 O135 1.264 . S
O113 Mn108 2.095 . S
O113 C122 1.250 . S
O114 Mn109 2.115 1_545 S
O114 C122 1.258 . S
C115 N116 1.326 1_455 S
C115 C119 1.460 . S
C115 H121 0.929 . S
N116 Mn109 2.273 . S
N116 C115 1.326 1_655 S
N116 C120 1.362 . S
C117 C118 1.258 . S
C117 C120 1.431 1_455 S
C117 C137 1.449 . S
C118 C117 1.258 . S
C118 C119 1.477 . S
C118 H138 0.931 . S
C119 C115 1.460 . S
C119 C118 1.477 . S
C119 H139 0.930 . S
C120 N116 1.362 . S
C120 C117 1.431 1_655 S
C120 C130 1.476 . S
H121 C115 0.929 . S
C122 O113 1.250 . S
C122 O114 1.258 . S
O123 Mn108 2.162 . S
O123 C111 1.281 . S
O124 Mn108 2.297 . S
O124 C111 1.236 . S
N125 Mn109 2.291 . S
N125 C126 1.328 . S
N125 C130 1.318 . S
C126 N125 1.328 . S
C126 C127 1.457 . S
C126 H131 0.929 1_565 S
C127 C126 1.457 . S
C127 C128 1.291 . S
C127 H140 0.931 . S
C128 C127 1.291 . S
C128 C129 1.373 . S
C128 H141 0.929 . S
C129 C128 1.373 . S
C129 C130 1.396 . S
C129 C136 1.403 . S
C130 C120 1.476 . S
C130 N125 1.318 . S
C130 C129 1.396 . S
H131 C126 0.929 1_545 S
O132 Mn108 2.385 . S
O132 C110 1.234 . S
O133 Mn108 2.209 . S
O133 Mn109 2.186 1_545 S
O133 C110 1.283 . S
O134 Mn108 2.094 . S
O134 C112 1.240 . S
O135 Mn109 2.107 1_545 S
O135 C112 1.264 . S
C136 C129 1.403 . S
C136 C137 1.399 1_655 S
C136 H142 0.929 . S
C137 C117 1.449 . S
C137 C136 1.399 1_455 S
C137 H143 0.930 . S
H138 C118 0.931 . S
H139 C119 0.930 . S
H140 C127 0.931 . S
H141 C128 0.929 . S
H142 C136 0.929 . S
H143 C137 0.930 . S
Mn144 O149 2.095 . S
Mn144 O159 2.162 . S
Mn144 O160 2.297 . S
Mn144 O168 2.385 . S
Mn144 O169 2.209 . S
Mn144 O170 2.094 . S
Mn145 O150 2.115 1_545 S
Mn145 N152 2.273 . S
Mn145 N161 2.291 . S
Mn145 O169 2.186 1_545 S
Mn145 O171 2.107 1_545 S
C146 O168 1.234 . S
C146 O169 1.283 . S
C147 O159 1.281 . S
C147 O160 1.236 . S
C148 O170 1.240 . S
C148 O171 1.264 . S
O149 Mn144 2.095 . S
O149 C158 1.250 . S
O150 Mn145 2.115 1_565 S
O150 C158 1.258 . S
C151 N152 1.326 1_455 S
C151 C155 1.460 . S
C151 H157 0.929 . S
N152 Mn145 2.273 . S
N152 C151 1.326 1_655 S
N152 C156 1.362 . S
C153 C154 1.258 . S
C153 C156 1.431 1_455 S
C153 C173 1.449 . S
C154 C153 1.258 . S
C154 C155 1.477 . S
C154 H174 0.931 . S
C155 C151 1.460 . S
C155 C154 1.477 . S
C155 H175 0.930 . S
C156 N152 1.362 . S
C156 C153 1.431 1_655 S
C156 C166 1.476 . S
H157 C151 0.929 . S
C158 O149 1.250 . S
C158 O150 1.258 . S
O159 Mn144 2.162 . S
O159 C147 1.281 . S
O160 Mn144 2.297 . S
O160 C147 1.236 . S
N161 Mn145 2.291 . S
N161 C162 1.328 . S
N161 C166 1.318 . S
C162 N161 1.328 . S
C162 C163 1.457 . S
C162 H167 0.929 1_545 S
C163 C162 1.457 . S
C163 C164 1.291 . S
C163 H176 0.931 . S
C164 C163 1.291 . S
C164 C165 1.373 . S
C164 H177 0.929 . S
C165 C164 1.373 . S
C165 C166 1.396 . S
C165 C172 1.403 . S
C166 C156 1.476 . S
C166 N161 1.318 . S
C166 C165 1.396 . S
H167 C162 0.929 1_565 S
O168 Mn144 2.385 . S
O168 C146 1.234 . S
O169 Mn144 2.209 . S
O169 Mn145 2.186 1_565 S
O169 C146 1.283 . S
O170 Mn144 2.094 . S
O170 C148 1.240 . S
O171 Mn145 2.107 1_565 S
O171 C148 1.264 . S
C172 C165 1.403 . S
C172 C173 1.399 1_655 S
C172 H178 0.929 . S
C173 C153 1.449 . S
C173 C172 1.399 1_455 S
C173 H179 0.930 . S
H174 C154 0.931 . S
H175 C155 0.930 . S
H176 C163 0.931 . S
H177 C164 0.929 . S
H178 C172 0.929 . S
H179 C173 0.930 . S
Mn180 O185 2.095 . S
Mn180 O195 2.162 . S
Mn180 O196 2.297 . S
Mn180 O204 2.385 . S
Mn180 O205 2.209 . S
Mn180 O206 2.094 . S
Mn181 O186 2.115 1_565 S
Mn181 N188 2.273 . S
Mn181 N197 2.291 . S
Mn181 O205 2.186 1_565 S
Mn181 O207 2.107 1_565 S
C182 O204 1.234 . S
C182 O205 1.283 . S
C183 O195 1.281 . S
C183 O196 1.236 . S
C184 O206 1.240 . S
C184 O207 1.264 . S
O185 Mn180 2.095 . S
O185 C194 1.250 . S
O186 Mn181 2.115 1_545 S
O186 C194 1.258 . S
C187 N188 1.326 . S
C187 C191 1.460 . S
C187 H193 0.929 . S
N188 Mn181 2.273 . S
N188 C187 1.326 . S
N188 C192 1.362 . S
C189 C190 1.258 . S
C189 C192 1.431 . S
C189 C209 1.449 . S
C190 C189 1.258 . S
C190 C191 1.477 . S
C190 H210 0.931 . S
C191 C187 1.460 . S
C191 C190 1.477 . S
C191 H211 0.930 . S
C192 N188 1.362 . S
C192 C189 1.431 . S
C192 C202 1.476 . S
H193 C187 0.929 . S
C194 O185 1.250 . S
C194 O186 1.258 . S
O195 Mn180 2.162 . S
O195 C183 1.281 . S
O196 Mn180 2.297 . S
O196 C183 1.236 . S
N197 Mn181 2.291 . S
N197 C198 1.328 . S
N197 C202 1.318 . S
C198 N197 1.328 . S
C198 C199 1.457 . S
C198 H203 0.929 1_565 S
C199 C198 1.457 . S
C199 C200 1.291 . S
C199 H212 0.931 . S
C200 C199 1.291 . S
C200 C201 1.373 . S
C200 H213 0.929 . S
C201 C200 1.373 . S
C201 C202 1.396 . S
C201 C208 1.403 . S
C202 C192 1.476 . S
C202 N197 1.318 . S
C202 C201 1.396 . S
H203 C198 0.929 1_545 S
O204 Mn180 2.385 . S
O204 C182 1.234 . S
O205 Mn180 2.209 . S
O205 Mn181 2.186 1_545 S
O205 C182 1.283 . S
O206 Mn180 2.094 . S
O206 C184 1.240 . S
O207 Mn181 2.107 1_545 S
O207 C184 1.264 . S
C208 C201 1.403 . S
C208 C209 1.399 . S
C208 H214 0.929 . S
C209 C189 1.449 . S
C209 C208 1.399 . S
C209 H215 0.930 . S
H210 C190 0.931 . S
H211 C191 0.930 . S
H212 C199 0.931 . S
H213 C200 0.929 . S
H214 C208 0.929 . S
H215 C209 0.930 . S
Mn216 O221 2.095 . S
Mn216 O231 2.162 . S
Mn216 O232 2.297 . S
Mn216 O240 2.385 . S
Mn216 O241 2.209 . S
Mn216 O242 2.094 . S
Mn217 O222 2.115 1_565 S
Mn217 N224 2.273 . S
Mn217 N233 2.291 . S
Mn217 O241 2.186 1_565 S
Mn217 O243 2.107 1_565 S
C218 O240 1.234 . S
C218 O241 1.283 . S
C219 O231 1.281 . S
C219 O232 1.236 . S
C220 O242 1.240 . S
C220 O243 1.264 . S
O221 Mn216 2.095 . S
O221 C230 1.250 . S
O222 Mn217 2.115 1_545 S
O222 C230 1.258 . S
C223 N224 1.326 . S
C223 C227 1.460 . S
C223 H229 0.929 . S
N224 Mn217 2.273 . S
N224 C223 1.326 . S
N224 C228 1.362 . S
C225 C226 1.258 . S
C225 C228 1.431 . S
C225 C245 1.449 . S
C226 C225 1.258 . S
C226 C227 1.477 . S
C226 H246 0.931 . S
C227 C223 1.460 . S
C227 C226 1.477 . S
C227 H247 0.930 . S
C228 N224 1.362 . S
C228 C225 1.431 . S
C228 C238 1.476 . S
H229 C223 0.929 . S
C230 O221 1.250 . S
C230 O222 1.258 . S
O231 Mn216 2.162 . S
O231 C219 1.281 . S
O232 Mn216 2.297 . S
O232 C219 1.236 . S
N233 Mn217 2.291 . S
N233 C234 1.328 . S
N233 C238 1.318 . S
C234 N233 1.328 . S
C234 C235 1.457 . S
C234 H239 0.929 1_565 S
C235 C234 1.457 . S
C235 C236 1.291 . S
C235 H248 0.931 . S
C236 C235 1.291 . S
C236 C237 1.373 . S
C236 H249 0.929 . S
C237 C236 1.373 . S
C237 C238 1.396 . S
C237 C244 1.403 . S
C238 C228 1.476 . S
C238 N233 1.318 . S
C238 C237 1.396 . S
H239 C234 0.929 1_545 S
O240 Mn216 2.385 . S
O240 C218 1.234 . S
O241 Mn216 2.209 . S
O241 Mn217 2.186 1_545 S
O241 C218 1.283 . S
O242 Mn216 2.094 . S
O242 C220 1.240 . S
O243 Mn217 2.107 1_545 S
O243 C220 1.264 . S
C244 C237 1.403 . S
C244 C245 1.399 . S
C244 H250 0.929 . S
C245 C225 1.449 . S
C245 C244 1.399 . S
C245 H251 0.930 . S
H246 C226 0.931 . S
H247 C227 0.930 . S
H248 C235 0.931 . S
H249 C236 0.929 . S
H250 C244 0.929 . S
H251 C245 0.930 . S
Mn252 O257 2.095 . S
Mn252 O267 2.162 . S
Mn252 O268 2.297 . S
Mn252 O276 2.385 . S
Mn252 O277 2.209 . S
Mn252 O278 2.094 . S
Mn253 O258 2.115 1_545 S
Mn253 N260 2.273 . S
Mn253 N269 2.291 . S
Mn253 O277 2.186 1_545 S
Mn253 O279 2.107 1_545 S
C254 O276 1.234 . S
C254 O277 1.283 . S
C255 O267 1.281 . S
C255 O268 1.236 . S
C256 O278 1.240 . S
C256 O279 1.264 . S
O257 Mn252 2.095 . S
O257 C266 1.250 . S
O258 Mn253 2.115 1_565 S
O258 C266 1.258 . S
C259 N260 1.326 1_655 S
C259 C263 1.460 . S
C259 H265 0.929 . S
N260 Mn253 2.273 . S
N260 C259 1.326 1_455 S
N260 C264 1.362 . S
C261 C262 1.258 . S
C261 C264 1.431 1_655 S
C261 C281 1.449 . S
C262 C261 1.258 . S
C262 C263 1.477 . S
C262 H282 0.931 . S
C263 C259 1.460 . S
C263 C262 1.477 . S
C263 H283 0.930 . S
C264 N260 1.362 . S
C264 C261 1.431 1_455 S
C264 C274 1.476 . S
H265 C259 0.929 . S
C266 O257 1.250 . S
C266 O258 1.258 . S
O267 Mn252 2.162 . S
O267 C255 1.281 . S
O268 Mn252 2.297 . S
O268 C255 1.236 . S
N269 Mn253 2.291 . S
N269 C270 1.328 . S
N269 C274 1.318 . S
C270 N269 1.328 . S
C270 C271 1.457 . S
C270 H275 0.929 1_545 S
C271 C270 1.457 . S
C271 C272 1.291 . S
C271 H284 0.931 . S
C272 C271 1.291 . S
C272 C273 1.373 . S
C272 H285 0.929 . S
C273 C272 1.373 . S
C273 C274 1.396 . S
C273 C280 1.403 . S
C274 C264 1.476 . S
C274 N269 1.318 . S
C274 C273 1.396 . S
H275 C270 0.929 1_565 S
O276 Mn252 2.385 . S
O276 C254 1.234 . S
O277 Mn252 2.209 . S
O277 Mn253 2.186 1_565 S
O277 C254 1.283 . S
O278 Mn252 2.094 . S
O278 C256 1.240 . S
O279 Mn253 2.107 1_565 S
O279 C256 1.264 . S
C280 C273 1.403 . S
C280 C281 1.399 1_455 S
C280 H286 0.929 . S
C281 C261 1.449 . S
C281 C280 1.399 1_655 S
C281 H287 0.930 . S
H282 C262 0.931 . S
H283 C263 0.930 . S
H284 C271 0.931 . S
H285 C272 0.929 . S
H286 C280 0.929 . S
H287 C281 0.930 . S
Mn288 O293 2.095 . S
Mn288 O303 2.162 . S
Mn288 O304 2.297 . S
Mn288 O312 2.385 . S
Mn288 O313 2.209 . S
Mn288 O314 2.094 . S
Mn289 O294 2.121 . S
Mn289 N296 2.257 . S
Mn289 N305 2.282 . S
Mn289 O313 2.215 . S
Mn289 O315 2.117 . S
C290 O312 1.234 . S
C290 O313 1.283 . S
C291 O303 1.281 . S
C291 O304 1.236 . S
C292 O314 1.240 . S
C292 O315 1.264 . S
O293 Mn288 2.095 . S
O293 C302 1.250 . S
O294 Mn289 2.121 . S
O294 C302 1.258 . S
C295 N296 1.326 . S
C295 C299 1.460 . S
C295 H301 0.929 . S
N296 Mn289 2.257 . S
N296 C295 1.326 . S
N296 C300 1.362 . S
C297 C298 1.258 . S
C297 C300 1.431 . S
C297 C317 1.449 . S
C298 C297 1.258 . S
C298 C299 1.477 . S
C298 H318 0.931 . S
C299 C295 1.460 . S
C299 C298 1.477 . S
C299 H319 0.930 . S
C300 N296 1.362 . S
C300 C297 1.431 . S
C300 C310 1.476 . S
H301 C295 0.929 . S
C302 O293 1.250 . S
C302 O294 1.258 . S
O303 Mn288 2.162 . S
O303 C291 1.281 . S
O304 Mn288 2.297 . S
O304 C291 1.236 . S
N305 Mn289 2.282 . S
N305 C306 1.328 . S
N305 C310 1.318 . S
C306 N305 1.328 . S
C306 C307 1.457 . S
C306 H311 0.929 . S
C307 C306 1.457 . S
C307 C308 1.291 . S
C307 H320 0.931 . S
C308 C307 1.291 . S
C308 C309 1.373 . S
C308 H321 0.929 . S
C309 C308 1.373 . S
C309 C310 1.396 . S
C309 C316 1.403 . S
C310 C300 1.476 . S
C310 N305 1.318 . S
C310 C309 1.396 . S
H311 C306 0.929 . S
O312 Mn288 2.385 . S
O312 C290 1.234 . S
O313 Mn288 2.209 . S
O313 Mn289 2.215 . S
O313 C290 1.283 . S
O314 Mn288 2.094 . S
O314 C292 1.240 . S
O315 Mn289 2.117 . S
O315 C292 1.264 . S
C316 C309 1.403 . S
C316 C317 1.399 . S
C316 H322 0.929 . S
C317 C297 1.449 . S
C317 C316 1.399 . S
C317 H323 0.930 . S
H318 C298 0.931 . S
H319 C299 0.930 . S
H320 C307 0.931 . S
H321 C308 0.929 . S
H322 C316 0.929 . S
H323 C317 0.930 . S
Mn324 O329 2.095 . S
Mn324 O339 2.162 . S
Mn324 O340 2.297 . S
Mn324 O348 2.385 . S
Mn324 O349 2.209 . S
Mn324 O350 2.094 . S
Mn325 O330 2.121 . S
Mn325 N332 2.257 . S
Mn325 N341 2.282 . S
Mn325 O349 2.215 . S
Mn325 O351 2.117 . S
C326 O348 1.234 . S
C326 O349 1.283 . S
C327 O339 1.281 . S
C327 O340 1.236 . S
C328 O350 1.240 . S
C328 O351 1.264 . S
O329 Mn324 2.095 . S
O329 C338 1.250 . S
O330 Mn325 2.121 . S
O330 C338 1.258 . S
C331 N332 1.326 1_455 S
C331 C335 1.460 . S
C331 H337 0.929 . S
N332 Mn325 2.257 . S
N332 C331 1.326 1_655 S
N332 C336 1.362 . S
C333 C334 1.258 . S
C333 C336 1.431 1_455 S
C333 C353 1.449 . S
C334 C333 1.258 . S
C334 C335 1.477 . S
C334 H354 0.931 . S
C335 C331 1.460 . S
C335 C334 1.477 . S
C335 H355 0.930 . S
C336 N332 1.362 . S
C336 C333 1.431 1_655 S
C336 C346 1.476 . S
H337 C331 0.929 . S
C338 O329 1.250 . S
C338 O330 1.258 . S
O339 Mn324 2.162 . S
O339 C327 1.281 . S
O340 Mn324 2.297 . S
O340 C327 1.236 . S
N341 Mn325 2.282 . S
N341 C342 1.328 . S
N341 C346 1.318 . S
C342 N341 1.328 . S
C342 C343 1.457 . S
C342 H347 0.929 . S
C343 C342 1.457 . S
C343 C344 1.291 . S
C343 H356 0.931 . S
C344 C343 1.291 . S
C344 C345 1.373 . S
C344 H357 0.929 . S
C345 C344 1.373 . S
C345 C346 1.396 . S
C345 C352 1.403 . S
C346 C336 1.476 . S
C346 N341 1.318 . S
C346 C345 1.396 . S
H347 C342 0.929 . S
O348 Mn324 2.385 . S
O348 C326 1.234 . S
O349 Mn324 2.209 . S
O349 Mn325 2.215 . S
O349 C326 1.283 . S
O350 Mn324 2.094 . S
O350 C328 1.240 . S
O351 Mn325 2.117 . S
O351 C328 1.264 . S
C352 C345 1.403 . S
C352 C353 1.399 1_655 S
C352 H358 0.929 . S
C353 C333 1.449 . S
C353 C352 1.399 1_455 S
C353 H359 0.930 . S
H354 C334 0.931 . S
H355 C335 0.930 . S
H356 C343 0.931 . S
H357 C344 0.929 . S
H358 C352 0.929 . S
H359 C353 0.930 . S
Mn360 O365 2.095 . S
Mn360 O375 2.162 . S
Mn360 O376 2.297 . S
Mn360 O384 2.385 . S
Mn360 O385 2.209 . S
Mn360 O386 2.094 . S
Mn361 O366 2.121 . S
Mn361 N368 2.257 . S
Mn361 N377 2.282 . S
Mn361 O385 2.215 . S
Mn361 O387 2.117 . S
C362 O384 1.234 . S
C362 O385 1.283 . S
C363 O375 1.281 . S
C363 O376 1.236 . S
C364 O386 1.240 . S
C364 O387 1.264 . S
O365 Mn360 2.095 . S
O365 C374 1.250 . S
O366 Mn361 2.121 . S
O366 C374 1.258 . S
C367 N368 1.326 1_655 S
C367 C371 1.460 . S
C367 H373 0.929 . S
N368 Mn361 2.257 . S
N368 C367 1.326 1_455 S
N368 C372 1.362 . S
C369 C370 1.258 . S
C369 C372 1.431 1_655 S
C369 C389 1.449 . S
C370 C369 1.258 . S
C370 C371 1.477 . S
C370 H390 0.931 . S
C371 C367 1.460 . S
C371 C370 1.477 . S
C371 H391 0.930 . S
C372 N368 1.362 . S
C372 C369 1.431 1_455 S
C372 C382 1.476 . S
H373 C367 0.929 . S
C374 O365 1.250 . S
C374 O366 1.258 . S
O375 Mn360 2.162 . S
O375 C363 1.281 . S
O376 Mn360 2.297 . S
O376 C363 1.236 . S
N377 Mn361 2.282 . S
N377 C378 1.328 . S
N377 C382 1.318 . S
C378 N377 1.328 . S
C378 C379 1.457 . S
C378 H383 0.929 . S
C379 C378 1.457 . S
C379 C380 1.291 . S
C379 H392 0.931 . S
C380 C379 1.291 . S
C380 C381 1.373 . S
C380 H393 0.929 . S
C381 C380 1.373 . S
C381 C382 1.396 . S
C381 C388 1.403 . S
C382 C372 1.476 . S
C382 N377 1.318 . S
C382 C381 1.396 . S
H383 C378 0.929 . S
O384 Mn360 2.385 . S
O384 C362 1.234 . S
O385 Mn360 2.209 . S
O385 Mn361 2.215 . S
O385 C362 1.283 . S
O386 Mn360 2.094 . S
O386 C364 1.240 . S
O387 Mn361 2.117 . S
O387 C364 1.264 . S
C388 C381 1.403 . S
C388 C389 1.399 1_455 S
C388 H394 0.929 . S
C389 C369 1.449 . S
C389 C388 1.399 1_655 S
C389 H395 0.930 . S
H390 C370 0.931 . S
H391 C371 0.930 . S
H392 C379 0.931 . S
H393 C380 0.929 . S
H394 C388 0.929 . S
H395 C389 0.930 . S
Mn396 O401 2.095 . S
Mn396 O411 2.162 . S
Mn396 O412 2.297 . S
Mn396 O420 2.385 . S
Mn396 O421 2.209 . S
Mn396 O422 2.094 . S
Mn397 O402 2.121 . S
Mn397 N404 2.257 . S
Mn397 N413 2.282 . S
Mn397 O421 2.215 . S
Mn397 O423 2.117 . S
C398 O420 1.234 . S
C398 O421 1.283 . S
C399 O411 1.281 . S
C399 O412 1.236 . S
C400 O422 1.240 . S
C400 O423 1.264 . S
O401 Mn396 2.095 . S
O401 C410 1.250 . S
O402 Mn397 2.121 . S
O402 C410 1.258 . S
C403 N404 1.326 . S
C403 C407 1.460 . S
C403 H409 0.929 . S
N404 Mn397 2.257 . S
N404 C403 1.326 . S
N404 C408 1.362 . S
C405 C406 1.258 . S
C405 C408 1.431 . S
C405 C425 1.449 . S
C406 C405 1.258 . S
C406 C407 1.477 . S
C406 H426 0.931 . S
C407 C403 1.460 . S
C407 C406 1.477 . S
C407 H427 0.930 . S
C408 N404 1.362 . S
C408 C405 1.431 . S
C408 C418 1.476 . S
H409 C403 0.929 . S
C410 O401 1.250 . S
C410 O402 1.258 . S
O411 Mn396 2.162 . S
O411 C399 1.281 . S
O412 Mn396 2.297 . S
O412 C399 1.236 . S
N413 Mn397 2.282 . S
N413 C414 1.328 . S
N413 C418 1.318 . S
C414 N413 1.328 . S
C414 C415 1.457 . S
C414 H419 0.929 . S
C415 C414 1.457 . S
C415 C416 1.291 . S
C415 H428 0.931 . S
C416 C415 1.291 . S
C416 C417 1.373 . S
C416 H429 0.929 . S
C417 C416 1.373 . S
C417 C418 1.396 . S
C417 C424 1.403 . S
C418 C408 1.476 . S
C418 N413 1.318 . S
C418 C417 1.396 . S
H419 C414 0.929 . S
O420 Mn396 2.385 . S
O420 C398 1.234 . S
O421 Mn396 2.209 . S
O421 Mn397 2.215 . S
O421 C398 1.283 . S
O422 Mn396 2.094 . S
O422 C400 1.240 . S
O423 Mn397 2.117 . S
O423 C400 1.264 . S
C424 C417 1.403 . S
C424 C425 1.399 . S
C424 H430 0.929 . S
C425 C405 1.449 . S
C425 C424 1.399 . S
C425 H431 0.930 . S
H426 C406 0.931 . S
H427 C407 0.930 . S
H428 C415 0.931 . S
H429 C416 0.929 . S
H430 C424 0.929 . S
H431 C425 0.930 . S
Mn432 O437 2.095 . S
Mn432 O447 2.162 . S
Mn432 O448 2.297 . S
Mn432 O456 2.385 . S
Mn432 O457 2.209 . S
Mn432 O458 2.094 . S
Mn433 O438 2.121 . S
Mn433 N440 2.257 . S
Mn433 N449 2.282 . S
Mn433 O457 2.215 . S
Mn433 O459 2.117 . S
C434 O456 1.234 . S
C434 O457 1.283 . S
C435 O447 1.281 . S
C435 O448 1.236 . S
C436 O458 1.240 . S
C436 O459 1.264 . S
O437 Mn432 2.095 . S
O437 C446 1.250 . S
O438 Mn433 2.121 . S
O438 C446 1.258 . S
C439 N440 1.326 . S
C439 C443 1.460 . S
C439 H445 0.929 . S
N440 Mn433 2.257 . S
N440 C439 1.326 . S
N440 C444 1.362 . S
C441 C442 1.258 . S
C441 C444 1.431 . S
C441 C461 1.449 . S
C442 C441 1.258 . S
C442 C443 1.477 . S
C442 H462 0.931 . S
C443 C439 1.460 . S
C443 C442 1.477 . S
C443 H463 0.930 . S
C444 N440 1.362 . S
C444 C441 1.431 . S
C444 C454 1.476 . S
H445 C439 0.929 . S
C446 O437 1.250 . S
C446 O438 1.258 . S
O447 Mn432 2.162 . S
O447 C435 1.281 . S
O448 Mn432 2.297 . S
O448 C435 1.236 . S
N449 Mn433 2.282 . S
N449 C450 1.328 . S
N449 C454 1.318 . S
C450 N449 1.328 . S
C450 C451 1.457 . S
C450 H455 0.929 . S
C451 C450 1.457 . S
C451 C452 1.291 . S
C451 H464 0.931 . S
C452 C451 1.291 . S
C452 C453 1.373 . S
C452 H465 0.929 . S
C453 C452 1.373 . S
C453 C454 1.396 . S
C453 C460 1.403 . S
C454 C444 1.476 . S
C454 N449 1.318 . S
C454 C453 1.396 . S
H455 C450 0.929 . S
O456 Mn432 2.385 . S
O456 C434 1.234 . S
O457 Mn432 2.209 . S
O457 Mn433 2.215 . S
O457 C434 1.283 . S
O458 Mn432 2.094 . S
O458 C436 1.240 . S
O459 Mn433 2.117 . S
O459 C436 1.264 . S
C460 C453 1.403 . S
C460 C461 1.399 . S
C460 H466 0.929 . S
C461 C441 1.449 . S
C461 C460 1.399 . S
C461 H467 0.930 . S
H462 C442 0.931 . S
H463 C443 0.930 . S
H464 C451 0.931 . S
H465 C452 0.929 . S
H466 C460 0.929 . S
H467 C461 0.930 . S
Mn468 O473 2.095 . S
Mn468 O483 2.162 . S
Mn468 O484 2.297 . S
Mn468 O492 2.385 . S
Mn468 O493 2.209 . S
Mn468 O494 2.094 . S
Mn469 O474 2.121 . S
Mn469 N476 2.257 . S
Mn469 N485 2.282 . S
Mn469 O493 2.215 . S
Mn469 O495 2.117 . S
C470 O492 1.234 . S
C470 O493 1.283 . S
C471 O483 1.281 . S
C471 O484 1.236 . S
C472 O494 1.240 . S
C472 O495 1.264 . S
O473 Mn468 2.095 . S
O473 C482 1.250 . S
O474 Mn469 2.121 . S
O474 C482 1.258 . S
C475 N476 1.326 1_655 S
C475 C479 1.460 . S
C475 H481 0.929 . S
N476 Mn469 2.257 . S
N476 C475 1.326 1_455 S
N476 C480 1.362 . S
C477 C478 1.258 . S
C477 C480 1.431 1_655 S
C477 C497 1.449 . S
C478 C477 1.258 . S
C478 C479 1.477 . S
C478 H498 0.931 . S
C479 C475 1.460 . S
C479 C478 1.477 . S
C479 H499 0.930 . S
C480 N476 1.362 . S
C480 C477 1.431 1_455 S
C480 C490 1.476 . S
H481 C475 0.929 . S
C482 O473 1.250 . S
C482 O474 1.258 . S
O483 Mn468 2.162 . S
O483 C471 1.281 . S
O484 Mn468 2.297 . S
O484 C471 1.236 . S
N485 Mn469 2.282 . S
N485 C486 1.328 . S
N485 C490 1.318 . S
C486 N485 1.328 . S
C486 C487 1.457 . S
C486 H491 0.929 . S
C487 C486 1.457 . S
C487 C488 1.291 . S
C487 H500 0.931 . S
C488 C487 1.291 . S
C488 C489 1.373 . S
C488 H501 0.929 . S
C489 C488 1.373 . S
C489 C490 1.396 . S
C489 C496 1.403 . S
C490 C480 1.476 . S
C490 N485 1.318 . S
C490 C489 1.396 . S
H491 C486 0.929 . S
O492 Mn468 2.385 . S
O492 C470 1.234 . S
O493 Mn468 2.209 . S
O493 Mn469 2.215 . S
O493 C470 1.283 . S
O494 Mn468 2.094 . S
O494 C472 1.240 . S
O495 Mn469 2.117 . S
O495 C472 1.264 . S
C496 C489 1.403 . S
C496 C497 1.399 1_455 S
C496 H502 0.929 . S
C497 C477 1.449 . S
C497 C496 1.399 1_655 S
C497 H503 0.930 . S
H498 C478 0.931 . S
H499 C479 0.930 . S
H500 C487 0.931 . S
H501 C488 0.929 . S
H502 C496 0.929 . S
H503 C497 0.930 . S
Mn504 O509 2.095 . S
Mn504 O519 2.162 . S
Mn504 O520 2.297 . S
Mn504 O528 2.385 . S
Mn504 O529 2.209 . S
Mn504 O530 2.094 . S
Mn505 O510 2.121 . S
Mn505 N512 2.257 . S
Mn505 N521 2.282 . S
Mn505 O529 2.215 . S
Mn505 O531 2.117 . S
C506 O528 1.234 . S
C506 O529 1.283 . S
C507 O519 1.281 . S
C507 O520 1.236 . S
C508 O530 1.240 . S
C508 O531 1.264 . S
O509 Mn504 2.095 . S
O509 C518 1.250 . S
O510 Mn505 2.121 . S
O510 C518 1.258 . S
C511 N512 1.326 1_455 S
C511 C515 1.460 . S
C511 H517 0.929 . S
N512 Mn505 2.257 . S
N512 C511 1.326 1_655 S
N512 C516 1.362 . S
C513 C514 1.258 . S
C513 C516 1.431 1_455 S
C513 C533 1.449 . S
C514 C513 1.258 . S
C514 C515 1.477 . S
C514 H534 0.931 . S
C515 C511 1.460 . S
C515 C514 1.477 . S
C515 H535 0.930 . S
C516 N512 1.362 . S
C516 C513 1.431 1_655 S
C516 C526 1.476 . S
H517 C511 0.929 . S
C518 O509 1.250 . S
C518 O510 1.258 . S
O519 Mn504 2.162 . S
O519 C507 1.281 . S
O520 Mn504 2.297 . S
O520 C507 1.236 . S
N521 Mn505 2.282 . S
N521 C522 1.328 . S
N521 C526 1.318 . S
C522 N521 1.328 . S
C522 C523 1.457 . S
C522 H527 0.929 . S
C523 C522 1.457 . S
C523 C524 1.291 . S
C523 H536 0.931 . S
C524 C523 1.291 . S
C524 C525 1.373 . S
C524 H537 0.929 . S
C525 C524 1.373 . S
C525 C526 1.396 . S
C525 C532 1.403 . S
C526 C516 1.476 . S
C526 N521 1.318 . S
C526 C525 1.396 . S
H527 C522 0.929 . S
O528 Mn504 2.385 . S
O528 C506 1.234 . S
O529 Mn504 2.209 . S
O529 Mn505 2.215 . S
O529 C506 1.283 . S
O530 Mn504 2.094 . S
O530 C508 1.240 . S
O531 Mn505 2.117 . S
O531 C508 1.264 . S
C532 C525 1.403 . S
C532 C533 1.399 1_655 S
C532 H538 0.929 . S
C533 C513 1.449 . S
C533 C532 1.399 1_455 S
C533 H539 0.930 . S
H534 C514 0.931 . S
H535 C515 0.930 . S
H536 C523 0.931 . S
H537 C524 0.929 . S
H538 C532 0.929 . S
H539 C533 0.930 . S
Mn540 O545 2.095 . S
Mn540 O555 2.162 . S
Mn540 O556 2.297 . S
Mn540 O564 2.385 . S
Mn540 O565 2.209 . S
Mn540 O566 2.094 . S
Mn541 O546 2.121 . S
Mn541 N548 2.257 . S
Mn541 N557 2.282 . S
Mn541 O565 2.215 . S
Mn541 O567 2.117 . S
C542 O564 1.234 . S
C542 O565 1.283 . S
C543 O555 1.281 . S
C543 O556 1.236 . S
C544 O566 1.240 . S
C544 O567 1.264 . S
O545 Mn540 2.095 . S
O545 C554 1.250 . S
O546 Mn541 2.121 . S
O546 C554 1.258 . S
C547 N548 1.326 . S
C547 C551 1.460 . S
C547 H553 0.929 . S
N548 Mn541 2.257 . S
N548 C547 1.326 . S
N548 C552 1.362 . S
C549 C550 1.258 . S
C549 C552 1.431 . S
C549 C569 1.449 . S
C550 C549 1.258 . S
C550 C551 1.477 . S
C550 H570 0.931 . S
C551 C547 1.460 . S
C551 C550 1.477 . S
C551 H571 0.930 . S
C552 N548 1.362 . S
C552 C549 1.431 . S
C552 C562 1.476 . S
H553 C547 0.929 . S
C554 O545 1.250 . S
C554 O546 1.258 . S
O555 Mn540 2.162 . S
O555 C543 1.281 . S
O556 Mn540 2.297 . S
O556 C543 1.236 . S
N557 Mn541 2.282 . S
N557 C558 1.328 . S
N557 C562 1.318 . S
C558 N557 1.328 . S
C558 C559 1.457 . S
C558 H563 0.929 . S
C559 C558 1.457 . S
C559 C560 1.291 . S
C559 H572 0.931 . S
C560 C559 1.291 . S
C560 C561 1.373 . S
C560 H573 0.929 . S
C561 C560 1.373 . S
C561 C562 1.396 . S
C561 C568 1.403 . S
C562 C552 1.476 . S
C562 N557 1.318 . S
C562 C561 1.396 . S
H563 C558 0.929 . S
O564 Mn540 2.385 . S
O564 C542 1.234 . S
O565 Mn540 2.209 . S
O565 Mn541 2.215 . S
O565 C542 1.283 . S
O566 Mn540 2.094 . S
O566 C544 1.240 . S
O567 Mn541 2.117 . S
O567 C544 1.264 . S
C568 C561 1.403 . S
C568 C569 1.399 . S
C568 H574 0.929 . S
C569 C549 1.449 . S
C569 C568 1.399 . S
C569 H575 0.930 . S
H570 C550 0.931 . S
H571 C551 0.930 . S
H572 C559 0.931 . S
H573 C560 0.929 . S
H574 C568 0.929 . S
H575 C569 0.930 . S
H576 C584 0.950 1_545 S
H577 C589 0.950 . S
H578 C586 0.950 . S
H579 C588 0.950 . S
H580 C590 0.950 1_565 S
H581 C592 0.950 . S
H582 C594 0.950 . S
H583 C595 0.950 . S
C584 H576 0.950 1_565 S
C584 C585 1.386 . S
C584 C586 1.391 1_565 S
C585 C584 1.386 . S
C585 C589 1.393 . S
C586 H578 0.950 . S
C586 C584 1.391 1_545 S
C586 C587 1.400 1_545 S
C587 C586 1.400 1_565 S
C587 C588 1.398 . S
C587 C593 1.491 1_565 S
C588 H579 0.950 . S
C588 C587 1.398 . S
C588 C589 1.391 . S
C589 H577 0.950 . S
C589 C585 1.393 . S
C589 C588 1.391 . S
C590 H580 0.950 1_545 S
C590 C591 1.386 . S
C590 C592 1.391 1_545 S
C591 C590 1.386 . S
C591 C595 1.393 . S
C592 H581 0.950 . S
C592 C590 1.391 1_565 S
C592 C593 1.400 1_565 S
C593 C587 1.491 1_545 S
C593 C592 1.400 1_545 S
C593 C594 1.398 . S
C594 H582 0.950 . S
C594 C593 1.398 . S
C594 C595 1.391 . S
C595 H583 0.950 . S
C595 C591 1.393 . S
C595 C594 1.391 . S
H596 C604 0.950 . S
H597 C609 0.936 1_545 S
H598 C606 0.950 . S
H599 C608 0.950 . S
H600 C610 0.950 . S
H601 C612 0.950 . S
H602 C614 0.950 . S
H603 C615 0.936 1_565 S
C604 H596 0.950 . S
C604 C605 1.386 . S
C604 C606 1.391 . S
C605 C604 1.386 . S
C605 C609 1.418 . S
C606 H598 0.950 . S
C606 C604 1.391 . S
C606 C607 1.400 . S
C607 C606 1.400 . S
C607 C608 1.398 1_565 S
C607 C613 1.491 1_565 S
C608 H599 0.950 . S
C608 C607 1.398 1_545 S
C608 C609 1.381 1_545 S
C609 H597 0.936 1_565 S
C609 C605 1.418 . S
C609 C608 1.381 1_565 S
C610 H600 0.950 . S
C610 C611 1.386 . S
C610 C612 1.391 . S
C611 C610 1.386 . S
C611 C615 1.418 . S
C612 H601 0.950 . S
C612 C610 1.391 . S
C612 C613 1.400 . S
C613 C607 1.491 1_545 S
C613 C612 1.400 . S
C613 C614 1.398 1_545 S
C614 H602 0.950 . S
C614 C613 1.398 1_565 S
C614 C615 1.381 1_565 S
C615 H603 0.936 1_545 S
C615 C611 1.418 . S
C615 C614 1.381 1_545 S
H616 C624 0.950 . S
H617 C629 0.950 . S
H618 C626 0.950 . S
H619 C628 0.950 . S
H620 C630 0.950 . S
H621 C632 0.950 . S
H622 C634 0.950 . S
H623 C635 0.950 . S
C624 H616 0.950 . S
C624 C625 1.386 1_545 S
C624 C626 1.391 . S
C625 C624 1.386 1_565 S
C625 C629 1.393 . S
C626 H618 0.950 . S
C626 C624 1.391 . S
C626 C627 1.400 1_545 S
C627 C626 1.400 1_565 S
C627 C628 1.398 . S
C627 C633 1.491 1_565 S
C628 H619 0.950 . S
C628 C627 1.398 . S
C628 C629 1.391 . S
C629 H617 0.950 . S
C629 C625 1.393 . S
C629 C628 1.391 . S
C630 H620 0.950 . S
C630 C631 1.386 1_565 S
C630 C632 1.391 . S
C631 C630 1.386 1_545 S
C631 C635 1.393 . S
C632 H621 0.950 . S
C632 C630 1.391 . S
C632 C633 1.400 1_565 S
C633 C627 1.491 1_545 S
C633 C632 1.400 1_545 S
C633 C634 1.398 . S
C634 H622 0.950 . S
C634 C633 1.398 . S
C634 C635 1.391 . S
C635 H623 0.950 . S
C635 C631 1.393 . S
C635 C634 1.391 . S
H636 C644 0.950 . S
H637 C649 0.950 . S
H638 C646 0.950 . S
H639 C648 0.954 . S
H640 C650 0.950 . S
H641 C652 0.950 . S
H642 C654 0.954 . S
H643 C655 0.950 . S
C644 H636 0.950 . S
C644 C645 1.386 . S
C644 C646 1.391 . S
C645 C644 1.386 . S
C645 C649 1.393 . S
C646 H638 0.950 . S
C646 C644 1.391 . S
C646 C647 1.400 . S
C647 C646 1.400 . S
C647 C648 1.397 1_565 S
C647 C653 1.491 1_565 S
C648 H639 0.954 . S
C648 C647 1.397 1_545 S
C648 C649 1.388 1_545 S
C649 H637 0.950 . S
C649 C645 1.393 . S
C649 C648 1.388 1_565 S
C650 H640 0.950 . S
C650 C651 1.386 . S
C650 C652 1.391 . S
C651 C650 1.386 . S
C651 C655 1.393 . S
C652 H641 0.950 . S
C652 C650 1.391 . S
C652 C653 1.400 . S
C653 C647 1.491 1_545 S
C653 C652 1.400 . S
C653 C654 1.397 1_545 S
C654 H642 0.954 . S
C654 C653 1.397 1_565 S
C654 C655 1.388 1_565 S
C655 H643 0.950 . S
C655 C651 1.393 . S
C655 C654 1.388 1_545 S
H656 C664 0.950 . S
H657 C669 0.950 . S
H658 C666 0.950 . S
H659 C668 0.950 . S
H660 C670 0.950 . S
H661 C672 0.950 . S
H662 C674 0.950 . S
H663 C675 0.950 . S
C664 H656 0.950 . S
C664 C665 1.386 . S
C664 C666 1.391 . S
C665 C664 1.386 . S
C665 C669 1.393 . S
C666 H658 0.950 . S
C666 C664 1.391 . S
C666 C667 1.400 . S
C667 C666 1.400 . S
C667 C668 1.398 . S
C667 C673 1.491 . S
C668 H659 0.950 . S
C668 C667 1.398 . S
C668 C669 1.391 . S
C669 H657 0.950 . S
C669 C665 1.393 . S
C669 C668 1.391 . S
C670 H660 0.950 . S
C670 C671 1.386 . S
C670 C672 1.391 . S
C671 C670 1.386 . S
C671 C675 1.393 . S
C672 H661 0.950 . S
C672 C670 1.391 . S
C672 C673 1.400 . S
C673 C667 1.491 . S
C673 C672 1.400 . S
C673 C674 1.398 . S
C674 H662 0.950 . S
C674 C673 1.398 . S
C674 C675 1.391 . S
C675 H663 0.950 . S
C675 C671 1.393 . S
C675 C674 1.391 . S
H676 C684 0.950 . S
H677 C689 0.950 . S
H678 C686 0.950 . S
H679 C688 0.950 . S
H680 C690 0.950 . S
H681 C692 0.950 . S
H682 C694 0.950 . S
H683 C695 0.950 . S
C684 H676 0.950 . S
C684 C685 1.386 . S
C684 C686 1.391 . S
C685 C684 1.386 . S
C685 C689 1.393 . S
C686 H678 0.950 . S
C686 C684 1.391 . S
C686 C687 1.400 . S
C687 C686 1.400 . S
C687 C688 1.398 . S
C687 C693 1.491 . S
C688 H679 0.950 . S
C688 C687 1.398 . S
C688 C689 1.391 . S
C689 H677 0.950 . S
C689 C685 1.393 . S
C689 C688 1.391 . S
C690 H680 0.950 . S
C690 C691 1.386 . S
C690 C692 1.391 . S
C691 C690 1.386 . S
C691 C695 1.393 . S
C692 H681 0.950 . S
C692 C690 1.391 . S
C692 C693 1.400 . S
C693 C687 1.491 . S
C693 C692 1.400 . S
C693 C694 1.398 . S
C694 H682 0.950 . S
C694 C693 1.398 . S
C694 C695 1.391 . S
C695 H683 0.950 . S
C695 C691 1.393 . S
C695 C694 1.391 . S
H696 C704 0.950 . S
H697 C709 0.950 . S
H698 C706 0.950 . S
H699 C708 0.950 . S
H700 C710 0.950 . S
H701 C712 0.950 . S
H702 C714 0.950 . S
H703 C715 0.950 . S
C704 H696 0.950 . S
C704 C705 1.386 . S
C704 C706 1.391 . S
C705 C704 1.386 . S
C705 C709 1.393 . S
C706 H698 0.950 . S
C706 C704 1.391 . S
C706 C707 1.400 . S
C707 C706 1.400 . S
C707 C708 1.398 . S
C707 C713 1.491 . S
C708 H699 0.950 . S
C708 C707 1.398 . S
C708 C709 1.391 . S
C709 H697 0.950 . S
C709 C705 1.393 . S
C709 C708 1.391 . S
C710 H700 0.950 . S
C710 C711 1.386 . S
C710 C712 1.391 . S
C711 C710 1.386 . S
C711 C715 1.393 . S
C712 H701 0.950 . S
C712 C710 1.391 . S
C712 C713 1.400 . S
C713 C707 1.491 . S
C713 C712 1.400 . S
C713 C714 1.398 . S
C714 H702 0.950 . S
C714 C713 1.398 . S
C714 C715 1.391 . S
C715 H703 0.950 . S
C715 C711 1.393 . S
C715 C714 1.391 . S
H716 C724 0.950 . S
H717 C729 0.950 . S
H718 C726 0.950 . S
H719 C728 0.950 . S
H720 C730 0.950 . S
H721 C732 0.950 . S
H722 C734 0.950 . S
H723 C735 0.950 . S
C724 H716 0.950 . S
C724 C725 1.386 . S
C724 C726 1.391 . S
C725 C724 1.386 . S
C725 C729 1.393 . S
C726 H718 0.950 . S
C726 C724 1.391 . S
C726 C727 1.400 . S
C727 C726 1.400 . S
C727 C728 1.398 . S
C727 C733 1.491 . S
C728 H719 0.950 . S
C728 C727 1.398 . S
C728 C729 1.391 . S
C729 H717 0.950 . S
C729 C725 1.393 . S
C729 C728 1.391 . S
C730 H720 0.950 . S
C730 C731 1.386 . S
C730 C732 1.391 . S
C731 C730 1.386 . S
C731 C735 1.393 . S
C732 H721 0.950 . S
C732 C730 1.391 . S
C732 C733 1.400 . S
C733 C727 1.491 . S
C733 C732 1.400 . S
C733 C734 1.398 . S
C734 H722 0.950 . S
C734 C733 1.398 . S
C734 C735 1.391 . S
C735 H723 0.950 . S
C735 C731 1.393 . S
C735 C734 1.391 . S
H736 C744 0.950 . S
H737 C749 0.950 . S
H738 C746 0.950 . S
H739 C748 0.950 . S
H740 C750 0.950 . S
H741 C752 0.950 . S
H742 C754 0.950 . S
H743 C755 0.950 . S
C744 H736 0.950 . S
C744 C745 1.386 . S
C744 C746 1.391 . S
C745 C744 1.386 . S
C745 C749 1.393 1_655 S
C746 H738 0.950 . S
C746 C744 1.391 . S
C746 C747 1.400 . S
C747 C746 1.400 . S
C747 C748 1.398 1_655 S
C747 C753 1.491 1_655 S
C748 H739 0.950 . S
C748 C747 1.398 1_455 S
C748 C749 1.391 . S
C749 H737 0.950 . S
C749 C745 1.393 1_455 S
C749 C748 1.391 . S
C750 H740 0.950 . S
C750 C751 1.386 . S
C750 C752 1.391 . S
C751 C750 1.386 . S
C751 C755 1.393 1_455 S
C752 H741 0.950 . S
C752 C750 1.391 . S
C752 C753 1.400 . S
C753 C747 1.491 1_455 S
C753 C752 1.400 . S
C753 C754 1.398 1_455 S
C754 H742 0.950 . S
C754 C753 1.398 1_655 S
C754 C755 1.391 . S
C755 H743 0.950 . S
C755 C751 1.393 1_655 S
C755 C754 1.391 . S
H756 C764 0.950 . S
H757 C769 0.950 . S
H758 C766 0.950 . S
H759 C768 0.950 . S
H760 C770 0.950 . S
H761 C772 0.950 . S
H762 C774 0.950 . S
H763 C775 0.950 . S
C764 H756 0.950 . S
C764 C765 1.386 . S
C764 C766 1.391 . S
C765 C764 1.386 . S
C765 C769 1.393 . S
C766 H758 0.950 . S
C766 C764 1.391 . S
C766 C767 1.400 . S
C767 C766 1.400 . S
C767 C768 1.398 . S
C767 C773 1.491 . S
C768 H759 0.950 . S
C768 C767 1.398 . S
C768 C769 1.391 . S
C769 H757 0.950 . S
C769 C765 1.393 . S
C769 C768 1.391 . S
C770 H760 0.950 . S
C770 C771 1.386 . S
C770 C772 1.391 . S
C771 C770 1.386 . S
C771 C775 1.393 . S
C772 H761 0.950 . S
C772 C770 1.391 . S
C772 C773 1.400 . S
C773 C767 1.491 . S
C773 C772 1.400 . S
C773 C774 1.398 . S
C774 H762 0.950 . S
C774 C773 1.398 . S
C774 C775 1.391 . S
C775 H763 0.950 . S
C775 C771 1.393 . S
C775 C774 1.391 . S
H776 C784 0.950 . S
H777 C789 0.950 . S
H778 C786 0.950 . S
H779 C788 0.950 . S
H780 C790 0.950 . S
H781 C792 0.950 . S
H782 C794 0.950 . S
H783 C795 0.950 . S
C784 H776 0.950 . S
C784 C785 1.386 . S
C784 C786 1.391 . S
C785 C784 1.386 . S
C785 C789 1.393 1_455 S
C786 H778 0.950 . S
C786 C784 1.391 . S
C786 C787 1.400 . S
C787 C786 1.400 . S
C787 C788 1.398 1_455 S
C787 C793 1.491 1_455 S
C788 H779 0.950 . S
C788 C787 1.398 1_655 S
C788 C789 1.391 . S
C789 H777 0.950 . S
C789 C785 1.393 1_655 S
C789 C788 1.391 . S
C790 H780 0.950 . S
C790 C791 1.386 . S
C790 C792 1.391 . S
C791 C790 1.386 . S
C791 C795 1.393 1_655 S
C792 H781 0.950 . S
C792 C790 1.391 . S
C792 C793 1.400 . S
C793 C787 1.491 1_655 S
C793 C792 1.400 . S
C793 C794 1.398 1_655 S
C794 H782 0.950 . S
C794 C793 1.398 1_455 S
C794 C795 1.391 . S
C795 H783 0.950 . S
C795 C791 1.393 1_455 S
C795 C794 1.391 . S
H796 C804 0.950 . S
H797 C809 0.950 . S
H798 C806 0.950 . S
H799 C808 0.950 . S
H800 C810 0.950 . S
H801 C812 0.950 . S
H802 C814 0.950 . S
H803 C815 0.950 . S
C804 H796 0.950 . S
C804 C805 1.386 . S
C804 C806 1.391 . S
C805 C804 1.386 . S
C805 C809 1.393 . S
C806 H798 0.950 . S
C806 C804 1.391 . S
C806 C807 1.400 . S
C807 C806 1.400 . S
C807 C808 1.398 . S
C807 C813 1.491 . S
C808 H799 0.950 . S
C808 C807 1.398 . S
C808 C809 1.391 . S
C809 H797 0.950 . S
C809 C805 1.393 . S
C809 C808 1.391 . S
C810 H800 0.950 . S
C810 C811 1.386 . S
C810 C812 1.391 . S
C811 C810 1.386 . S
C811 C815 1.393 . S
C812 H801 0.950 . S
C812 C810 1.391 . S
C812 C813 1.400 . S
C813 C807 1.491 . S
C813 C812 1.400 . S
C813 C814 1.398 . S
C814 H802 0.950 . S
C814 C813 1.398 . S
C814 C815 1.391 . S
C815 H803 0.950 . S
C815 C811 1.393 . S
C815 C814 1.391 . S
H816 C824 0.950 . S
H817 C829 0.950 . S
H818 C826 0.950 . S
H819 C828 0.950 . S
H820 C830 0.950 . S
H821 C832 0.950 . S
H822 C834 0.950 . S
H823 C835 0.950 . S
C824 H816 0.950 . S
C824 C825 1.386 . S
C824 C826 1.391 . S
C825 C824 1.386 . S
C825 C829 1.393 . S
C826 H818 0.950 . S
C826 C824 1.391 . S
C826 C827 1.400 . S
C827 C826 1.400 . S
C827 C828 1.398 . S
C827 C833 1.491 . S
C828 H819 0.950 . S
C828 C827 1.398 . S
C828 C829 1.391 . S
C829 H817 0.950 . S
C829 C825 1.393 . S
C829 C828 1.391 . S
C830 H820 0.950 . S
C830 C831 1.386 . S
C830 C832 1.391 . S
C831 C830 1.386 . S
C831 C835 1.393 . S
C832 H821 0.950 . S
C832 C830 1.391 . S
C832 C833 1.400 . S
C833 C827 1.491 . S
C833 C832 1.400 . S
C833 C834 1.398 . S
C834 H822 0.950 . S
C834 C833 1.398 . S
C834 C835 1.391 . S
C835 H823 0.950 . S
C835 C831 1.393 . S
C835 C834 1.391 . S
H836 C844 0.950 . S
H837 C849 0.950 . S
H838 C846 0.950 . S
H839 C848 0.950 . S
H840 C850 0.950 . S
H841 C852 0.950 . S
H842 C854 0.950 . S
H843 C855 0.950 . S
C844 H836 0.950 . S
C844 C845 1.386 1_655 S
C844 C846 1.391 . S
C845 C844 1.386 1_455 S
C845 C849 1.393 . S
C846 H838 0.950 . S
C846 C844 1.391 . S
C846 C847 1.400 1_655 S
C847 C846 1.400 1_455 S
C847 C848 1.398 . S
C847 C853 1.491 1_455 S
C848 H839 0.950 . S
C848 C847 1.398 . S
C848 C849 1.391 . S
C849 H837 0.950 . S
C849 C845 1.393 . S
C849 C848 1.391 . S
C850 H840 0.950 . S
C850 C851 1.386 1_455 S
C850 C852 1.391 . S
C851 C850 1.386 1_655 S
C851 C855 1.393 . S
C852 H841 0.950 . S
C852 C850 1.391 . S
C852 C853 1.400 1_455 S
C853 C847 1.491 1_655 S
C853 C852 1.400 1_655 S
C853 C854 1.398 . S
C854 H842 0.950 . S
C854 C853 1.398 . S
C854 C855 1.391 . S
C855 H843 0.950 . S
C855 C851 1.393 . S
C855 C854 1.391 . S
H856 C864 0.950 . S
H857 C869 0.950 . S
H858 C866 0.950 . S
H859 C868 0.950 . S
H860 C870 0.950 . S
H861 C872 0.950 . S
H862 C874 0.950 . S
H863 C875 0.950 . S
C864 H856 0.950 . S
C864 C865 1.386 . S
C864 C866 1.391 . S
C865 C864 1.386 . S
C865 C869 1.393 . S
C866 H858 0.950 . S
C866 C864 1.391 . S
C866 C867 1.400 . S
C867 C866 1.400 . S
C867 C868 1.398 . S
C867 C873 1.491 . S
C868 H859 0.950 . S
C868 C867 1.398 . S
C868 C869 1.391 . S
C869 H857 0.950 . S
C869 C865 1.393 . S
C869 C868 1.391 . S
C870 H860 0.950 . S
C870 C871 1.386 . S
C870 C872 1.391 . S
C871 C870 1.386 . S
C871 C875 1.393 . S
C872 H861 0.950 . S
C872 C870 1.391 . S
C872 C873 1.400 . S
C873 C867 1.491 . S
C873 C872 1.400 . S
C873 C874 1.398 . S
C874 H862 0.950 . S
C874 C873 1.398 . S
C874 C875 1.391 . S
C875 H863 0.950 . S
C875 C871 1.393 . S
C875 C874 1.391 . S
H876 C884 0.950 . S
H877 C889 0.950 . S
H878 C886 0.950 . S
H879 C888 0.950 . S
H880 C890 0.950 . S
H881 C892 0.950 . S
H882 C894 0.950 . S
H883 C895 0.950 . S
C884 H876 0.950 . S
C884 C885 1.386 1_655 S
C884 C886 1.391 . S
C885 C884 1.386 1_455 S
C885 C889 1.393 . S
C886 H878 0.950 . S
C886 C884 1.391 . S
C886 C887 1.400 1_655 S
C887 C886 1.400 1_455 S
C887 C888 1.398 . S
C887 C893 1.491 1_455 S
C888 H879 0.950 . S
C888 C887 1.398 . S
C888 C889 1.391 . S
C889 H877 0.950 . S
C889 C885 1.393 . S
C889 C888 1.391 . S
C890 H880 0.950 . S
C890 C891 1.386 1_455 S
C890 C892 1.391 . S
C891 C890 1.386 1_655 S
C891 C895 1.393 . S
C892 H881 0.950 . S
C892 C890 1.391 . S
C892 C893 1.400 1_455 S
C893 C887 1.491 1_655 S
C893 C892 1.400 1_655 S
C893 C894 1.398 . S
C894 H882 0.950 . S
C894 C893 1.398 . S
C894 C895 1.391 . S
C895 H883 0.950 . S
C895 C891 1.393 . S
C895 C894 1.391 . S
H896 C904 0.950 . S
H897 C909 0.950 . S
H898 C906 0.950 1_655 S
H899 C908 0.950 . S
H900 C910 0.950 . S
H901 C912 0.950 1_455 S
H902 C914 0.950 . S
H903 C915 0.950 . S
C904 H896 0.950 . S
C904 C905 1.386 . S
C904 C906 1.391 . S
C905 C904 1.386 . S
C905 C909 1.393 . S
C906 H898 0.950 1_455 S
C906 C904 1.391 . S
C906 C907 1.400 . S
C907 C906 1.400 . S
C907 C908 1.398 . S
C907 C913 1.491 1_455 S
C908 H899 0.950 . S
C908 C907 1.398 . S
C908 C909 1.391 . S
C909 H897 0.950 . S
C909 C905 1.393 . S
C909 C908 1.391 . S
C910 H900 0.950 . S
C910 C911 1.386 . S
C910 C912 1.391 . S
C911 C910 1.386 . S
C911 C915 1.393 . S
C912 H901 0.950 1_655 S
C912 C910 1.391 . S
C912 C913 1.400 . S
C913 C907 1.491 1_655 S
C913 C912 1.400 . S
C913 C914 1.398 . S
C914 H902 0.950 . S
C914 C913 1.398 . S
C914 C915 1.391 . S
C915 H903 0.950 . S
C915 C911 1.393 . S
C915 C914 1.391 . S
H916 C924 0.950 . S
H917 C929 0.950 . S
H918 C926 0.950 . S
H919 C928 0.950 . S
H920 C930 0.950 . S
H921 C932 0.950 . S
H922 C934 0.950 . S
H923 C935 0.950 . S
C924 H916 0.950 . S
C924 C925 1.386 . S
C924 C926 1.391 . S
C925 C924 1.386 . S
C925 C929 1.393 . S
C926 H918 0.950 . S
C926 C924 1.391 . S
C926 C927 1.400 . S
C927 C926 1.400 . S
C927 C928 1.398 . S
C927 C933 1.491 . S
C928 H919 0.950 . S
C928 C927 1.398 . S
C928 C929 1.391 . S
C929 H917 0.950 . S
C929 C925 1.393 . S
C929 C928 1.391 . S
C930 H920 0.950 . S
C930 C931 1.386 . S
C930 C932 1.391 . S
C931 C930 1.386 . S
C931 C935 1.393 . S
C932 H921 0.950 . S
C932 C930 1.391 . S
C932 C933 1.400 . S
C933 C927 1.491 . S
C933 C932 1.400 . S
C933 C934 1.398 . S
C934 H922 0.950 . S
C934 C933 1.398 . S
C934 C935 1.391 . S
C935 H923 0.950 . S
C935 C931 1.393 . S
C935 C934 1.391 . S
H936 C944 0.950 . S
H937 C949 0.950 . S
H938 C946 0.950 . S
H939 C948 0.950 . S
H940 C950 0.950 . S
H941 C952 0.950 . S
H942 C954 0.950 . S
H943 C955 0.950 . S
C944 H936 0.950 . S
C944 C945 1.386 . S
C944 C946 1.391 . S
C945 C944 1.386 . S
C945 C949 1.393 . S
C946 H938 0.950 . S
C946 C944 1.391 . S
C946 C947 1.400 . S
C947 C946 1.400 . S
C947 C948 1.398 . S
C947 C953 1.491 . S
C948 H939 0.950 . S
C948 C947 1.398 . S
C948 C949 1.391 . S
C949 H937 0.950 . S
C949 C945 1.393 . S
C949 C948 1.391 . S
C950 H940 0.950 . S
C950 C951 1.386 . S
C950 C952 1.391 . S
C951 C950 1.386 . S
C951 C955 1.393 . S
C952 H941 0.950 . S
C952 C950 1.391 . S
C952 C953 1.400 . S
C953 C947 1.491 . S
C953 C952 1.400 . S
C953 C954 1.398 . S
C954 H942 0.950 . S
C954 C953 1.398 . S
C954 C955 1.391 . S
C955 H943 0.950 . S
C955 C951 1.393 . S
C955 C954 1.391 . S
H956 C964 0.948 1_655 S
H957 C969 0.950 . S
H958 C966 0.950 . S
H959 C968 0.950 . S
H960 C970 0.948 1_455 S
H961 C972 0.950 . S
H962 C974 0.950 . S
H963 C975 0.950 . S
C964 H956 0.948 1_455 S
C964 C965 1.386 . S
C964 C966 1.391 1_455 S
C965 C964 1.386 . S
C965 C969 1.393 . S
C966 H958 0.950 . S
C966 C964 1.391 1_655 S
C966 C967 1.400 1_655 S
C967 C966 1.400 1_455 S
C967 C968 1.398 . S
C967 C973 1.491 1_455 S
C968 H959 0.950 . S
C968 C967 1.398 . S
C968 C969 1.391 . S
C969 H957 0.950 . S
C969 C965 1.393 . S
C969 C968 1.391 . S
C970 H960 0.948 1_655 S
C970 C971 1.386 . S
C970 C972 1.391 1_655 S
C971 C970 1.386 . S
C971 C975 1.393 . S
C972 H961 0.950 . S
C972 C970 1.391 1_455 S
C972 C973 1.400 1_455 S
C973 C967 1.491 1_655 S
C973 C972 1.400 1_655 S
C973 C974 1.398 . S
C974 H962 0.950 . S
C974 C973 1.398 . S
C974 C975 1.391 . S
C975 H963 0.950 . S
C975 C971 1.393 . S
C975 C974 1.391 . S
H976 C984 0.950 . S
H977 C989 0.950 1_655 S
H978 C986 0.950 . S
H979 C988 0.950 . S
H980 C990 0.950 . S
H981 C992 0.950 . S
H982 C994 0.950 . S
H983 C995 0.950 1_455 S
C984 H976 0.950 . S
C984 C985 1.386 . S
C984 C986 1.391 . S
C985 C984 1.386 . S
C985 C989 1.393 . S
C986 H978 0.950 . S
C986 C984 1.391 . S
C986 C987 1.400 . S
C987 C986 1.400 . S
C987 C988 1.398 1_455 S
C987 C993 1.491 1_455 S
C988 H979 0.950 . S
C988 C987 1.398 1_655 S
C988 C989 1.391 1_655 S
C989 H977 0.950 1_455 S
C989 C985 1.393 . S
C989 C988 1.391 1_455 S
C990 H980 0.950 . S
C990 C991 1.386 . S
C990 C992 1.391 . S
C991 C990 1.386 . S
C991 C995 1.393 . S
C992 H981 0.950 . S
C992 C990 1.391 . S
C992 C993 1.400 . S
C993 C987 1.491 1_655 S
C993 C992 1.400 . S
C993 C994 1.398 1_655 S
C994 H982 0.950 . S
C994 C993 1.398 1_455 S
C994 C995 1.391 1_455 S
C995 H983 0.950 1_655 S
C995 C991 1.393 . S
C995 C994 1.391 1_655 S
H996 C1004 0.950 . S
H997 C1009 0.950 . S
H998 C1006 0.950 . S
H999 C1008 0.950 . S
H1000 C1010 0.950 . S
H1001 C1012 0.950 . S
H1002 C1014 0.950 . S
H1003 C1015 0.950 . S
C1004 H996 0.950 . S
C1004 C1005 1.386 . S
C1004 C1006 1.391 . S
C1005 C1004 1.386 . S
C1005 C1009 1.393 . S
C1006 H998 0.950 . S
C1006 C1004 1.391 . S
C1006 C1007 1.400 . S
C1007 C1006 1.400 . S
C1007 C1008 1.398 . S
C1007 C1013 1.491 . S
C1008 H999 0.950 . S
C1008 C1007 1.398 . S
C1008 C1009 1.391 . S
C1009 H997 0.950 . S
C1009 C1005 1.393 . S
C1009 C1008 1.391 . S
C1010 H1000 0.950 . S
C1010 C1011 1.386 . S
C1010 C1012 1.391 . S
C1011 C1010 1.386 . S
C1011 C1015 1.393 . S
C1012 H1001 0.950 . S
C1012 C1010 1.391 . S
C1012 C1013 1.400 . S
C1013 C1007 1.491 . S
C1013 C1012 1.400 . S
C1013 C1014 1.398 . S
C1014 H1002 0.950 . S
C1014 C1013 1.398 . S
C1014 C1015 1.391 . S
C1015 H1003 0.950 . S
C1015 C1011 1.393 . S
C1015 C1014 1.391 . S
H1016 C1024 0.950 . S
H1017 C1029 0.950 . S
H1018 C1026 0.950 . S
H1019 C1028 0.950 . S
H1020 C1030 0.950 . S
H1021 C1032 0.950 . S
H1022 C1034 0.950 . S
H1023 C1035 0.950 . S
C1024 H1016 0.950 . S
C1024 C1025 1.386 . S
C1024 C1026 1.391 . S
C1025 C1024 1.386 . S
C1025 C1029 1.393 . S
C1026 H1018 0.950 . S
C1026 C1024 1.391 . S
C1026 C1027 1.400 . S
C1027 C1026 1.400 . S
C1027 C1028 1.398 . S
C1027 C1033 1.491 . S
C1028 H1019 0.950 . S
C1028 C1027 1.398 . S
C1028 C1029 1.391 . S
C1029 H1017 0.950 . S
C1029 C1025 1.393 . S
C1029 C1028 1.391 . S
C1030 H1020 0.950 . S
C1030 C1031 1.386 . S
C1030 C1032 1.391 . S
C1031 C1030 1.386 . S
C1031 C1035 1.393 . S
C1032 H1021 0.950 . S
C1032 C1030 1.391 . S
C1032 C1033 1.400 . S
C1033 C1027 1.491 . S
C1033 C1032 1.400 . S
C1033 C1034 1.398 . S
C1034 H1022 0.950 . S
C1034 C1033 1.398 . S
C1034 C1035 1.391 . S
C1035 H1023 0.950 . S
C1035 C1031 1.393 . S
C1035 C1034 1.391 . S
H1036 C1044 0.950 . S
H1037 C1049 0.950 1_655 S
H1038 C1046 0.950 . S
H1039 C1048 0.950 . S
H1040 C1050 0.950 . S
H1041 C1052 0.950 . S
H1042 C1054 0.950 . S
H1043 C1055 0.950 1_455 S
C1044 H1036 0.950 . S
C1044 C1045 1.386 . S
C1044 C1046 1.391 . S
C1045 C1044 1.386 . S
C1045 C1049 1.393 . S
C1046 H1038 0.950 . S
C1046 C1044 1.391 . S
C1046 C1047 1.400 . S
C1047 C1046 1.400 . S
C1047 C1048 1.398 1_455 S
C1047 C1053 1.491 1_455 S
C1048 H1039 0.950 . S
C1048 C1047 1.398 1_655 S
C1048 C1049 1.391 1_655 S
C1049 H1037 0.950 1_455 S
C1049 C1045 1.393 . S
C1049 C1048 1.391 1_455 S
C1050 H1040 0.950 . S
C1050 C1051 1.386 . S
C1050 C1052 1.391 . S
C1051 C1050 1.386 . S
C1051 C1055 1.393 . S
C1052 H1041 0.950 . S
C1052 C1050 1.391 . S
C1052 C1053 1.400 . S
C1053 C1047 1.491 1_655 S
C1053 C1052 1.400 . S
C1053 C1054 1.398 1_655 S
C1054 H1042 0.950 . S
C1054 C1053 1.398 1_455 S
C1054 C1055 1.391 1_455 S
C1055 H1043 0.950 1_655 S
C1055 C1051 1.393 . S
C1055 C1054 1.391 1_655 S
H1056 C1064 0.950 1_445 S
H1057 C1069 0.950 . S
H1058 C1066 0.950 . S
H1059 C1068 0.958 . S
H1060 C1070 0.950 1_665 S
H1061 C1072 0.950 . S
H1062 C1074 0.958 . S
H1063 C1075 0.950 . S
C1064 H1056 0.950 1_665 S
C1064 C1065 1.386 . S
C1064 C1066 1.391 1_665 S
C1065 C1064 1.386 . S
C1065 C1069 1.393 . S
C1066 H1058 0.950 . S
C1066 C1064 1.391 1_445 S
C1066 C1067 1.400 1_445 S
C1067 C1066 1.400 1_665 S
C1067 C1068 1.398 . S
C1067 C1073 1.491 1_666 S
C1068 H1059 0.958 . S
C1068 C1067 1.398 . S
C1068 C1069 1.391 . S
C1069 H1057 0.950 . S
C1069 C1065 1.393 . S
C1069 C1068 1.391 . S
C1070 H1060 0.950 1_445 S
C1070 C1071 1.386 . S
C1070 C1072 1.391 1_445 S
C1071 C1070 1.386 . S
C1071 C1075 1.393 . S
C1072 H1061 0.950 . S
C1072 C1070 1.391 1_665 S
C1072 C1073 1.400 1_665 S
C1073 C1067 1.491 1_444 S
C1073 C1072 1.400 1_445 S
C1073 C1074 1.398 . S
C1074 H1062 0.958 . S
C1074 C1073 1.398 . S
C1074 C1075 1.391 . S
C1075 H1063 0.950 . S
C1075 C1071 1.393 . S
C1075 C1074 1.391 . S
H1076 C1084 0.950 . S
H1077 C1089 0.950 . S
H1078 C1086 0.950 . S
H1079 C1088 0.950 . S
H1080 C1090 0.950 . S
H1081 C1092 0.950 . S
H1082 C1094 0.950 . S
H1083 C1095 0.950 . S
C1084 H1076 0.950 . S
C1084 C1085 1.386 . S
C1084 C1086 1.391 . S
C1085 C1084 1.386 . S
C1085 C1089 1.393 1_545 S
C1086 H1078 0.950 . S
C1086 C1084 1.391 . S
C1086 C1087 1.400 . S
C1087 C1086 1.400 . S
C1087 C1088 1.398 1_545 S
C1087 C1093 1.491 1_546 S
C1088 H1079 0.950 . S
C1088 C1087 1.398 1_565 S
C1088 C1089 1.391 . S
C1089 H1077 0.950 . S
C1089 C1085 1.393 1_565 S
C1089 C1088 1.391 . S
C1090 H1080 0.950 . S
C1090 C1091 1.386 . S
C1090 C1092 1.391 . S
C1091 C1090 1.386 . S
C1091 C1095 1.393 1_565 S
C1092 H1081 0.950 . S
C1092 C1090 1.391 . S
C1092 C1093 1.400 . S
C1093 C1087 1.491 1_564 S
C1093 C1092 1.400 . S
C1093 C1094 1.398 1_565 S
C1094 H1082 0.950 . S
C1094 C1093 1.398 1_545 S
C1094 C1095 1.391 . S
C1095 H1083 0.950 . S
C1095 C1091 1.393 1_545 S
C1095 C1094 1.391 . S
H1096 C1104 0.950 . S
H1097 C1109 0.950 . S
H1098 C1106 0.950 . S
H1099 C1108 0.950 . S
H1100 C1110 0.950 . S
H1101 C1112 0.950 . S
H1102 C1114 0.950 . S
H1103 C1115 0.950 . S
C1104 H1096 0.950 . S
C1104 C1105 1.386 . S
C1104 C1106 1.391 . S
C1105 C1104 1.386 . S
C1105 C1109 1.393 . S
C1106 H1098 0.950 . S
C1106 C1104 1.391 . S
C1106 C1107 1.400 . S
C1107 C1106 1.400 . S
C1107 C1108 1.398 . S
C1107 C1113 1.491 1_545 S
C1108 H1099 0.950 . S
C1108 C1107 1.398 . S
C1108 C1109 1.391 . S
C1109 H1097 0.950 . S
C1109 C1105 1.393 . S
C1109 C1108 1.391 . S
C1110 H1100 0.950 . S
C1110 C1111 1.386 . S
C1110 C1112 1.391 . S
C1111 C1110 1.386 . S
C1111 C1115 1.393 . S
C1112 H1101 0.950 . S
C1112 C1110 1.391 . S
C1112 C1113 1.400 . S
C1113 C1107 1.491 1_565 S
C1113 C1112 1.400 . S
C1113 C1114 1.398 . S
C1114 H1102 0.950 . S
C1114 C1113 1.398 . S
C1114 C1115 1.391 . S
C1115 H1103 0.950 . S
C1115 C1111 1.393 . S
C1115 C1114 1.391 . S
H1116 C1124 0.950 . S
H1117 C1129 0.952 1_545 S
H1118 C1126 0.950 . S
H1119 C1128 0.950 . S
H1120 C1130 0.950 . S
H1121 C1132 0.950 . S
H1122 C1134 0.950 . S
H1123 C1135 0.952 1_565 S
C1124 H1116 0.950 . S
C1124 C1125 1.386 . S
C1124 C1126 1.391 . S
C1125 C1124 1.386 . S
C1125 C1129 1.389 1_455 S
C1126 H1118 0.950 . S
C1126 C1124 1.391 . S
C1126 C1127 1.400 . S
C1127 C1126 1.400 . S
C1127 C1128 1.398 1_465 S
C1127 C1133 1.491 1_465 S
C1128 H1119 0.950 . S
C1128 C1127 1.398 1_645 S
C1128 C1129 1.392 1_545 S
C1129 H1117 0.952 1_565 S
C1129 C1125 1.389 1_655 S
C1129 C1128 1.392 1_565 S
C1130 H1120 0.950 . S
C1130 C1131 1.386 . S
C1130 C1132 1.391 . S
C1131 C1130 1.386 . S
C1131 C1135 1.389 1_655 S
C1132 H1121 0.950 . S
C1132 C1130 1.391 . S
C1132 C1133 1.400 . S
C1133 C1127 1.491 1_645 S
C1133 C1132 1.400 . S
C1133 C1134 1.398 1_645 S
C1134 H1122 0.950 . S
C1134 C1133 1.398 1_465 S
C1134 C1135 1.392 1_565 S
C1135 H1123 0.952 1_545 S
C1135 C1131 1.389 1_455 S
C1135 C1134 1.392 1_545 S
H1136 C1144 0.950 . S
H1137 C1149 0.950 . S
H1138 C1146 0.950 . S
H1139 C1148 0.950 . S
H1140 C1150 0.950 . S
H1141 C1152 0.950 . S
H1142 C1154 0.950 . S
H1143 C1155 0.950 . S
C1144 H1136 0.950 . S
C1144 C1145 1.386 . S
C1144 C1146 1.391 . S
C1145 C1144 1.386 . S
C1145 C1149 1.393 . S
C1146 H1138 0.950 . S
C1146 C1144 1.391 . S
C1146 C1147 1.400 . S
C1147 C1146 1.400 . S
C1147 C1148 1.398 . S
C1147 C1153 1.491 1_554 S
C1148 H1139 0.950 . S
C1148 C1147 1.398 . S
C1148 C1149 1.391 . S
C1149 H1137 0.950 . S
C1149 C1145 1.393 . S
C1149 C1148 1.391 . S
C1150 H1140 0.950 . S
C1150 C1151 1.386 . S
C1150 C1152 1.391 . S
C1151 C1150 1.386 . S
C1151 C1155 1.393 . S
C1152 H1141 0.950 . S
C1152 C1150 1.391 . S
C1152 C1153 1.400 . S
C1153 C1147 1.491 1_556 S
C1153 C1152 1.400 . S
C1153 C1154 1.398 . S
C1154 H1142 0.950 . S
C1154 C1153 1.398 . S
C1154 C1155 1.391 . S
C1155 H1143 0.950 . S
C1155 C1151 1.393 . S
C1155 C1154 1.391 . S
H1156 C1164 0.948 1_455 S
H1157 C1169 0.950 . S
H1158 C1166 0.950 . S
H1159 C1168 0.956 . S
H1160 C1170 0.948 1_655 S
H1161 C1172 0.950 . S
H1162 C1174 0.956 . S
H1163 C1175 0.950 . S
C1164 H1156 0.948 1_655 S
C1164 C1165 1.388 . S
C1164 C1166 1.390 1_655 S
C1165 C1164 1.388 . S
C1165 C1169 1.393 . S
C1166 H1158 0.950 . S
C1166 C1164 1.390 1_455 S
C1166 C1167 1.400 1_455 S
C1167 C1166 1.400 1_655 S
C1167 C1168 1.398 . S
C1167 C1173 1.491 1_654 S
C1168 H1159 0.956 . S
C1168 C1167 1.398 . S
C1168 C1169 1.391 . S
C1169 H1157 0.950 . S
C1169 C1165 1.393 . S
C1169 C1168 1.391 . S
C1170 H1160 0.948 1_455 S
C1170 C1171 1.388 . S
C1170 C1172 1.390 1_455 S
C1171 C1170 1.388 . S
C1171 C1175 1.393 . S
C1172 H1161 0.950 . S
C1172 C1170 1.390 1_655 S
C1172 C1173 1.400 1_655 S
C1173 C1167 1.491 1_456 S
C1173 C1172 1.400 1_455 S
C1173 C1174 1.398 . S
C1174 H1162 0.956 . S
C1174 C1173 1.398 . S
C1174 C1175 1.391 . S
C1175 H1163 0.950 . S
C1175 C1171 1.393 . S
C1175 C1174 1.391 . S
H1176 C1184 0.950 . S
H1177 C1189 0.950 . S
H1178 C1186 0.950 . S
H1179 C1188 0.950 . S
H1180 C1190 0.950 . S
H1181 C1192 0.950 . S
H1182 C1194 0.950 . S
H1183 C1195 0.950 . S
C1184 H1176 0.950 . S
C1184 C1185 1.386 1_455 S
C1184 C1186 1.391 . S
C1185 C1184 1.386 1_655 S
C1185 C1189 1.393 . S
C1186 H1178 0.950 . S
C1186 C1184 1.391 . S
C1186 C1187 1.400 1_455 S
C1187 C1186 1.400 1_655 S
C1187 C1188 1.398 . S
C1187 C1193 1.491 1_655 S
C1188 H1179 0.950 . S
C1188 C1187 1.398 . S
C1188 C1189 1.391 . S
C1189 H1177 0.950 . S
C1189 C1185 1.393 . S
C1189 C1188 1.391 . S
C1190 H1180 0.950 . S
C1190 C1191 1.386 1_655 S
C1190 C1192 1.391 . S
C1191 C1190 1.386 1_455 S
C1191 C1195 1.393 . S
C1192 H1181 0.950 . S
C1192 C1190 1.391 . S
C1192 C1193 1.400 1_655 S
C1193 C1187 1.491 1_455 S
C1193 C1192 1.400 1_455 S
C1193 C1194 1.398 . S
C1194 H1182 0.950 . S
C1194 C1193 1.398 . S
C1194 C1195 1.391 . S
C1195 H1183 0.950 . S
C1195 C1191 1.393 . S
C1195 C1194 1.391 . S
H1196 C1204 0.950 . S
H1197 C1209 0.950 . S
H1198 C1206 0.950 . S
H1199 C1208 0.950 . S
H1200 C1210 0.950 . S
H1201 C1212 0.950 . S
H1202 C1214 0.950 . S
H1203 C1215 0.950 . S
C1204 H1196 0.950 . S
C1204 C1205 1.386 . S
C1204 C1206 1.391 . S
C1205 C1204 1.386 . S
C1205 C1209 1.393 . S
C1206 H1198 0.950 . S
C1206 C1204 1.391 . S
C1206 C1207 1.400 . S
C1207 C1206 1.400 . S
C1207 C1208 1.398 . S
C1207 C1213 1.491 . S
C1208 H1199 0.950 . S
C1208 C1207 1.398 . S
C1208 C1209 1.391 . S
C1209 H1197 0.950 . S
C1209 C1205 1.393 . S
C1209 C1208 1.391 . S
C1210 H1200 0.950 . S
C1210 C1211 1.386 . S
C1210 C1212 1.391 . S
C1211 C1210 1.386 . S
C1211 C1215 1.393 . S
C1212 H1201 0.950 . S
C1212 C1210 1.391 . S
C1212 C1213 1.400 . S
C1213 C1207 1.491 . S
C1213 C1212 1.400 . S
C1213 C1214 1.398 . S
C1214 H1202 0.950 . S
C1214 C1213 1.398 . S
C1214 C1215 1.391 . S
C1215 H1203 0.950 . S
C1215 C1211 1.393 . S
C1215 C1214 1.391 . S
C585 C40 1.497 . S
C591 C4 1.495 . S
C605 C76 1.491 . S
C611 C112 1.493 . S
C625 C148 1.494 . S
C631 C184 1.497 . S
C645 C256 1.492 . S
C651 C220 1.491 . S
C665 C328 1.494 . S
C671 C292 1.496 . S
C685 C400 1.497 . S
C691 C364 1.496 . S
C705 C472 1.492 . S
C711 C436 1.495 . S
C725 C544 1.491 . S
C731 C508 1.492 . S
C745 C110 1.297 . S
C751 C2 1.315 . S
C765 C38 1.315 . S
C771 C74 1.298 . S
C785 C254 1.316 . S
C791 C146 1.303 . S
C805 C218 1.297 . S
C811 C182 1.314 . S
C825 C290 1.300 . S
C831 C398 1.300 . S
C845 C362 1.315 . S
C851 C326 1.297 . S
C865 C542 1.297 . S
C871 C434 1.303 . S
C885 C470 1.300 . S
C891 C506 1.316 . S
C905 C3 1.506 . S
C911 C327 1.507 . S
C925 C39 1.505 . S
C931 C291 1.507 . S
C945 C399 1.505 . S
C951 C75 1.507 . S
C965 C363 1.505 . S
C971 C111 1.506 . S
C985 C471 1.506 . S
C991 C147 1.507 . S
C1005 C435 1.505 . S
C1011 C183 1.505 . S
C1025 C219 1.506 . S
C1031 C543 1.505 . S
C1045 C255 1.506 . S
C1051 C507 1.507 . S
C1065 C158 1.228 . S
C1071 C14 1.228 . S
C1085 C194 1.243 . S
C1091 C50 1.243 . S
C1105 C230 1.227 . S
C1111 C86 1.227 . S
C1125 C266 1.252 . S
C1131 C122 1.252 . S
C1145 C302 1.229 . S
C1151 C446 1.229 . S
C1165 C338 1.253 . S
C1171 C482 1.253 . S
C1185 C518 1.227 . S
C1191 C374 1.227 . S
C1205 C554 1.252 . S
C1211 C410 1.252 . S
