# Generated by pormake.
# Topology bcu-h, (3)-cn, num edge types: 1
# Building blocks:
#     Node 0, Type 0, BuildingBlock: WUSLED_clean_sbu_0, # of connection points: 3
#     Node 1, Type 0, BuildingBlock: WUSLED_clean_sbu_0, # of connection points: 3
#     Node 2, Type 0, BuildingBlock: WUSLED_clean_sbu_0, # of connection points: 3
#     Node 3, Type 0, BuildingBlock: WUSLED_clean_sbu_0, # of connection points: 3
#     Node 4, Type 0, BuildingBlock: WUSLED_clean_sbu_0, # of connection points: 3
#     Node 5, Type 0, BuildingBlock: WUSLED_clean_sbu_0, # of connection points: 3
#     Node 6, Type 0, BuildingBlock: WUSLED_clean_sbu_0, # of connection points: 3
#     Node 7, Type 0, BuildingBlock: WUSLED_clean_sbu_0, # of connection points: 3
#     Node 8, Type 0, BuildingBlock: WUSLED_clean_sbu_0, # of connection points: 3
#     Node 9, Type 0, BuildingBlock: WUSLED_clean_sbu_0, # of connection points: 3
#     Node 10, Type 0, BuildingBlock: WUSLED_clean_sbu_0, # of connection points: 3
#     Node 11, Type 0, BuildingBlock: WUSLED_clean_sbu_0, # of connection points: 3
#     Node 12, Type 0, BuildingBlock: WUSLED_clean_sbu_0, # of connection points: 3
#     Node 13, Type 0, BuildingBlock: WUSLED_clean_sbu_0, # of connection points: 3
#     Node 14, Type 0, BuildingBlock: WUSLED_clean_sbu_0, # of connection points: 3
#     Node 15, Type 0, BuildingBlock: WUSLED_clean_sbu_0, # of connection points: 3
#     Edge 16, Type (0, 0), BuildingBlock: MIFKUJ_clean_linker_0, # of connection points: 2
#     Edge 17, Type (0, 0), BuildingBlock: MIFKUJ_clean_linker_0, # of connection points: 2
#     Edge 18, Type (0, 0), BuildingBlock: MIFKUJ_clean_linker_0, # of connection points: 2
#     Edge 19, Type (0, 0), BuildingBlock: MIFKUJ_clean_linker_0, # of connection points: 2
#     Edge 20, Type (0, 0), BuildingBlock: MIFKUJ_clean_linker_0, # of connection points: 2
#     Edge 21, Type (0, 0), BuildingBlock: MIFKUJ_clean_linker_0, # of connection points: 2
#     Edge 22, Type (0, 0), BuildingBlock: MIFKUJ_clean_linker_0, # of connection points: 2
#     Edge 23, Type (0, 0), BuildingBlock: MIFKUJ_clean_linker_0, # of connection points: 2
#     Edge 24, Type (0, 0), BuildingBlock: MIFKUJ_clean_linker_0, # of connection points: 2
#     Edge 25, Type (0, 0), BuildingBlock: MIFKUJ_clean_linker_0, # of connection points: 2
#     Edge 26, Type (0, 0), BuildingBlock: MIFKUJ_clean_linker_0, # of connection points: 2
#     Edge 27, Type (0, 0), BuildingBlock: MIFKUJ_clean_linker_0, # of connection points: 2
#     Edge 28, Type (0, 0), BuildingBlock: MIFKUJ_clean_linker_0, # of connection points: 2
#     Edge 29, Type (0, 0), BuildingBlock: MIFKUJ_clean_linker_0, # of connection points: 2
#     Edge 30, Type (0, 0), BuildingBlock: MIFKUJ_clean_linker_0, # of connection points: 2
#     Edge 31, Type (0, 0), BuildingBlock: MIFKUJ_clean_linker_0, # of connection points: 2
#     Edge 32, Type (0, 0), BuildingBlock: MIFKUJ_clean_linker_0, # of connection points: 2
#     Edge 33, Type (0, 0), BuildingBlock: MIFKUJ_clean_linker_0, # of connection points: 2
#     Edge 34, Type (0, 0), BuildingBlock: MIFKUJ_clean_linker_0, # of connection points: 2
#     Edge 35, Type (0, 0), BuildingBlock: MIFKUJ_clean_linker_0, # of connection points: 2
#     Edge 36, Type (0, 0), BuildingBlock: MIFKUJ_clean_linker_0, # of connection points: 2
#     Edge 37, Type (0, 0), BuildingBlock: MIFKUJ_clean_linker_0, # of connection points: 2
#     Edge 38, Type (0, 0), BuildingBlock: MIFKUJ_clean_linker_0, # of connection points: 2
#     Edge 39, Type (0, 0), BuildingBlock: MIFKUJ_clean_linker_0, # of connection points: 2
# Relax obj value: 0.010
# Max RMSD: 0.022
# Mean RMSD: 0.020
data_MOF--net-bcu-h--node1-WUSLED_clean_sbu_0--edge1-MIFKUJ_clean_linker_0
_symmetry_space_group_name_H-M    P1
_symmetry_Int_Tables_number       1
_symmetry_cell_setting            triclinic
loop_
_symmetry_equiv_pos_as_xyz
'x, y, z'
_cell_length_a     87.708071
_cell_length_b     87.712448
_cell_length_c     93.989881
_cell_angle_alpha  87.644459
_cell_angle_beta   87.524304
_cell_angle_gamma 88.861306
loop_
_atom_site_label
_atom_site_type_symbol
_atom_site_fract_x
_atom_site_fract_y
_atom_site_fract_z
_atom_type_partial_charge
C0 C 0.64206 0.02209 0.10643 0.0
C1 C 0.6481 0.02486 0.11965 0.0
C2 C 0.67402 0.02247 0.10932 0.0
C3 C 0.66393 0.02502 0.12109 0.0
C4 C 0.66784 0.01964 0.09611 0.0
C5 C 0.65202 0.01945 0.0947 0.0
U6 U 0.60148 0.0279 0.12151 0.0
O7 O 0.58151 0.03919 0.11202 0.0
O8 O 0.58058 0.01495 0.11874 0.0
C9 C 0.57365 0.02656 0.11231 0.0
C10 C 0.62544 0.02212 0.10471 0.0
C11 C 0.56602 0.02328 0.0991 0.0
C12 C 0.56574 0.0222 0.07326 0.0
C13 C 0.57357 0.0247 0.08565 0.0
C14 C 0.54285 0.01655 0.08768 0.0
C15 C 0.55022 0.01822 0.07412 0.0
C16 C 0.55067 0.01907 0.10001 0.0
C17 C 0.59743 0.03986 0.16091 0.0
C18 C 0.57674 0.03663 0.17885 0.0
C19 C 0.5964 0.05505 0.182 0.0
C20 C 0.60353 0.0511 0.16906 0.0
C21 C 0.58296 0.04781 0.18713 0.0
C22 C 0.58389 0.03271 0.16583 0.0
C23 C 0.60595 0.03543 0.14778 0.0
O24 O 0.61795 0.01147 0.11217 0.0
O25 O 0.61863 0.03559 0.10513 0.0
O26 O 0.60582 0.04539 0.13695 0.0
O27 O 0.60473 0.02124 0.14401 0.0
H28 H 0.64057 0.02698 0.12882 0.0
H29 H 0.66827 0.02741 0.13137 0.0
H30 H 0.67524 0.01742 0.08688 0.0
H31 H 0.64756 0.01727 0.08442 0.0
H32 H 0.57176 0.02371 0.06302 0.0
H33 H 0.58544 0.02794 0.08471 0.0
H34 H 0.53102 0.01323 0.08881 0.0
H35 H 0.54465 0.01785 0.1103 0.0
H36 H 0.56634 0.03094 0.18243 0.0
H37 H 0.60166 0.06352 0.18817 0.0
H38 H 0.61402 0.05668 0.16552 0.0
H39 H 0.57894 0.02401 0.15971 0.0
C40 C 0.50309 0.64128 0.60763 0.0
C41 C 0.49408 0.64888 0.61794 0.0
C42 C 0.50479 0.67332 0.60968 0.0
C43 C 0.49486 0.66472 0.61891 0.0
C44 C 0.51401 0.66557 0.59956 0.0
C45 C 0.51313 0.64973 0.59854 0.0
U46 U 0.49721 0.60123 0.624 0.0
O47 O 0.48395 0.58214 0.61682 0.0
O48 O 0.50864 0.57937 0.61923 0.0
C49 C 0.49611 0.57332 0.61496 0.0
C50 C 0.5021 0.62463 0.60618 0.0
C51 C 0.49747 0.56558 0.60133 0.0
C52 C 0.5055 0.56489 0.57625 0.0
C53 C 0.50411 0.57269 0.58899 0.0
C54 C 0.49344 0.54292 0.58804 0.0
C55 C 0.50025 0.54986 0.57563 0.0
C56 C 0.49209 0.5507 0.60073 0.0
C57 C 0.49034 0.59778 0.66499 0.0
C58 C 0.47642 0.5789 0.67985 0.0
C59 C 0.4941 0.59551 0.69047 0.0
C60 C 0.49754 0.60241 0.67708 0.0
C61 C 0.48329 0.58385 0.69209 0.0
C62 C 0.47992 0.5858 0.66642 0.0
C63 C 0.49333 0.60626 0.6513 0.0
O64 O 0.5132 0.61637 0.61172 0.0
O65 O 0.48855 0.61877 0.60889 0.0
O66 O 0.48217 0.60702 0.64237 0.0
O67 O 0.50682 0.604 0.64502 0.0
H68 H 0.4863 0.64259 0.62515 0.0
H69 H 0.48745 0.67026 0.62671 0.0
H70 H 0.522 0.67171 0.59246 0.0
H71 H 0.52027 0.64408 0.59059 0.0
H72 H 0.51092 0.57055 0.56696 0.0
H73 H 0.50831 0.58421 0.58924 0.0
H74 H 0.48901 0.53149 0.58792 0.0
H75 H 0.48685 0.54506 0.61013 0.0
H76 H 0.46797 0.57004 0.68071 0.0
H77 H 0.49983 0.59942 0.69958 0.0
H78 H 0.50566 0.61159 0.67621 0.0
H79 H 0.47424 0.58199 0.65723 0.0
C80 C 0.87034 0.50241 0.11065 0.0
C81 C 0.8621 0.49801 0.12323 0.0
C82 C 0.83809 0.50391 0.11181 0.0
C83 C 0.84611 0.49875 0.12381 0.0
C84 C 0.84649 0.50849 0.0993 0.0
C85 C 0.86244 0.50772 0.09874 0.0
U86 U 0.90898 0.49676 0.12773 0.0
O87 O 0.92941 0.48387 0.12045 0.0
O88 O 0.93065 0.50857 0.12289 0.0
C89 C 0.93767 0.49618 0.1184 0.0
C90 C 0.88713 0.50142 0.1097 0.0
C91 C 0.94604 0.49779 0.1045 0.0
C92 C 0.94708 0.49722 0.07861 0.0
C93 C 0.93878 0.49594 0.09168 0.0
C94 C 0.9699 0.50246 0.09103 0.0
C95 C 0.96278 0.50043 0.07811 0.0
C96 C 0.96161 0.50113 0.10406 0.0
C97 C 0.90909 0.48987 0.16875 0.0
C98 C 0.92793 0.47681 0.1834 0.0
C99 C 0.90826 0.49273 0.19439 0.0
C100 C 0.9024 0.49619 0.18102 0.0
C101 C 0.92094 0.48278 0.19581 0.0
C102 C 0.92206 0.48032 0.16999 0.0
C103 C 0.90173 0.49278 0.15504 0.0
O104 O 0.89424 0.51254 0.11542 0.0
O105 O 0.89314 0.48788 0.11271 0.0
O106 O 0.9024 0.48163 0.1461 0.0
O107 O 0.90385 0.5063 0.14879 0.0
H108 H 0.86802 0.49389 0.13255 0.0
H109 H 0.84003 0.49499 0.13356 0.0
H110 H 0.84074 0.51277 0.08995 0.0
H111 H 0.86863 0.51125 0.08897 0.0
H112 H 0.94123 0.49543 0.06891 0.0
H113 H 0.92674 0.49338 0.09179 0.0
H114 H 0.98188 0.50521 0.09108 0.0
H115 H 0.9674 0.5027 0.11384 0.0
H116 H 0.93764 0.46903 0.18409 0.0
H117 H 0.90277 0.49778 0.20365 0.0
H118 H 0.89243 0.50363 0.1803 0.0
H119 H 0.92744 0.47532 0.16065 0.0
C120 C 0.02452 0.87027 0.61077 0.0
C121 C 0.02759 0.86236 0.62365 0.0
C122 C 0.02504 0.83799 0.61238 0.0
C123 C 0.02783 0.84636 0.62446 0.0
C124 C 0.0219 0.84605 0.59954 0.0
C125 C 0.02166 0.86201 0.59876 0.0
U126 U 0.02812 0.90937 0.62692 0.0
O127 O 0.03907 0.93017 0.61791 0.0
O128 O 0.0145 0.93048 0.62337 0.0
C129 C 0.0261 0.93791 0.61733 0.0
C130 C 0.0243 0.88707 0.60963 0.0
C131 C 0.02319 0.94606 0.60362 0.0
C132 C 0.02266 0.94692 0.57772 0.0
C133 C 0.02519 0.93882 0.5906 0.0
C134 C 0.01587 0.9695 0.59073 0.0
C135 C 0.01798 0.96239 0.57761 0.0
C136 C 0.01846 0.96141 0.60358 0.0
C137 C 0.03687 0.90987 0.66707 0.0
C138 C 0.04076 0.9323 0.6808 0.0
C139 C 0.04196 0.90709 0.69227 0.0
C140 C 0.03898 0.90062 0.67936 0.0
C141 C 0.04288 0.92302 0.6932 0.0
C142 C 0.03776 0.92577 0.66784 0.0
C143 C 0.03391 0.90249 0.65369 0.0
O144 O 0.01297 0.89386 0.61662 0.0
O145 O 0.03749 0.89358 0.61102 0.0
O146 O 0.04458 0.9038 0.64347 0.0
O147 O 0.02003 0.90414 0.64906 0.0
H148 H 0.02985 0.86857 0.63304 0.0
H149 H 0.03044 0.84055 0.63447 0.0
H150 H 0.01946 0.84001 0.5901 0.0
H151 H 0.0192 0.86792 0.58874 0.0
H152 H 0.02423 0.94103 0.56784 0.0
H153 H 0.02876 0.92693 0.5904 0.0
H154 H 0.01246 0.98142 0.59107 0.0
H155 H 0.01687 0.96721 0.61351 0.0
H156 H 0.04128 0.9446 0.68114 0.0
H157 H 0.0438 0.89956 0.70148 0.0
H158 H 0.03841 0.88831 0.67896 0.0
H159 H 0.03615 0.9331 0.65844 0.0
C160 C 0.14468 0.98991 0.91072 0.0
C161 C 0.15268 0.98391 0.8989 0.0
C162 C 0.17692 0.99067 0.90858 0.0
C163 C 0.16867 0.98425 0.89786 0.0
C164 C 0.16878 0.99678 0.92034 0.0
C165 C 0.15283 0.99638 0.92139 0.0
U166 U 0.1054 0.98485 0.89535 0.0
O167 O 0.08527 0.97283 0.90472 0.0
O168 O 0.0838 0.9974 0.89943 0.0
C169 C 0.07703 0.98546 0.9056 0.0
C170 C 0.12789 0.98941 0.91221 0.0
C171 C 0.06896 0.98786 0.9195 0.0
C172 C 0.06616 1.00043 0.94213 0.0
C173 C 0.07434 0.99801 0.92924 0.0
C174 C 0.04731 0.98235 0.93586 0.0
C175 C 0.05251 0.99266 0.94559 0.0
C176 C 0.05544 0.98002 0.92296 0.0
C177 C 0.10459 0.97674 0.85503 0.0
C178 C 0.08229 0.97139 0.84163 0.0
C179 C 0.10716 0.9733 0.82951 0.0
C180 C 0.11365 0.97621 0.84241 0.0
C181 C 0.09139 0.97087 0.8289 0.0
C182 C 0.08884 0.97433 0.85459 0.0
C183 C 0.11201 0.97974 0.86837 0.0
O184 O 0.12048 1.00055 0.90557 0.0
O185 O 0.12187 0.97598 0.91078 0.0
O186 O 0.11129 0.96888 0.87842 0.0
O187 O 0.10989 0.99348 0.87327 0.0
H188 H 0.14657 0.97894 0.8905 0.0
H189 H 0.17455 0.97961 0.88859 0.0
H190 H 0.17475 1.00163 0.92888 0.0
H191 H 0.14685 1.00104 0.93061 0.0
H192 H 0.07059 0.0083 0.94945 0.0
H193 H 0.08482 1.00413 0.92687 0.0
H194 H 0.03678 0.9763 0.93808 0.0
H195 H 0.05106 0.97216 0.91559 0.0
H196 H 0.0701 0.96969 0.84154 0.0
H197 H 0.11457 0.97271 0.82003 0.0
H198 H 0.12584 0.97797 0.84255 0.0
H199 H 0.08165 0.97473 0.86424 0.0
C200 C 0.5114 0.14512 0.41173 0.0
C201 C 0.51627 0.15321 0.39921 0.0
C202 C 0.5103 0.17738 0.41037 0.0
C203 C 0.51574 0.1692 0.39854 0.0
C204 C 0.50523 0.16914 0.42281 0.0
C205 C 0.5058 0.15318 0.42346 0.0
U206 U 0.51683 0.10634 0.39484 0.0
O207 O 0.52949 0.08583 0.40221 0.0
O208 O 0.50478 0.0848 0.39969 0.0
C209 C 0.51708 0.07772 0.40428 0.0
C210 C 0.51221 0.12833 0.41278 0.0
C211 C 0.51529 0.06944 0.41823 0.0
C212 C 0.51776 0.06783 0.44395 0.0
C213 C 0.51916 0.0761 0.43089 0.0
C214 C 0.50828 0.04629 0.43189 0.0
C215 C 0.51234 0.0528 0.4446 0.0
C216 C 0.50977 0.05453 0.41885 0.0
C217 C 0.52416 0.10615 0.35387 0.0
C218 C 0.53538 0.08583 0.33971 0.0
C219 C 0.52363 0.10792 0.32803 0.0
C220 C 0.51998 0.11397 0.34129 0.0
C221 C 0.53159 0.09389 0.32703 0.0
C222 C 0.5317 0.09191 0.35303 0.0
C223 C 0.52114 0.11351 0.36755 0.0
O224 O 0.50108 0.12129 0.40701 0.0
O225 O 0.52572 0.12216 0.4099 0.0
O226 O 0.5322 0.1127 0.37657 0.0
O227 O 0.50755 0.11145 0.3737 0.0
H228 H 0.52061 0.14716 0.39002 0.0
H229 H 0.51987 0.17515 0.38885 0.0
H230 H 0.50073 0.17502 0.43203 0.0
H231 H 0.50191 0.14712 0.43318 0.0
H232 H 0.52081 0.07324 0.45355 0.0
H233 H 0.52333 0.08765 0.43068 0.0
H234 H 0.50423 0.0347 0.43197 0.0
H235 H 0.50673 0.04918 0.4092 0.0
H236 H 0.54158 0.07505 0.33934 0.0
H237 H 0.52027 0.1143 0.31852 0.0
H238 H 0.5141 0.12493 0.34172 0.0
H239 H 0.53501 0.08567 0.36263 0.0
C240 C 0.37146 0.51098 0.91579 0.0
C241 C 0.36543 0.50768 0.90268 0.0
C242 C 0.33954 0.51063 0.91285 0.0
C243 C 0.34961 0.50743 0.90125 0.0
C244 C 0.34567 0.51397 0.92594 0.0
C245 C 0.36148 0.51411 0.92739 0.0
U246 U 0.4118 0.51555 0.89976 0.0
O247 O 0.43121 0.52818 0.90707 0.0
O248 O 0.43328 0.50341 0.90477 0.0
C249 C 0.43964 0.51577 0.90906 0.0
C250 C 0.38808 0.51153 0.91743 0.0
C251 C 0.44733 0.51417 0.92271 0.0
C252 C 0.44782 0.51702 0.94834 0.0
C253 C 0.43995 0.51807 0.93565 0.0
C254 C 0.47038 0.50788 0.93533 0.0
C255 C 0.4632 0.51203 0.94832 0.0
C256 C 0.46253 0.50897 0.92268 0.0
C257 C 0.4162 0.52241 0.85893 0.0
C258 C 0.43676 0.53501 0.8451 0.0
C259 C 0.41848 0.52018 0.83323 0.0
C260 C 0.41099 0.51667 0.84636 0.0
C261 C 0.43132 0.52958 0.83241 0.0
C262 C 0.4293 0.53142 0.85826 0.0
C263 C 0.40727 0.51954 0.8724 0.0
O264 O 0.39616 0.5002 0.91205 0.0
O265 O 0.39421 0.52492 0.91457 0.0
O266 O 0.40663 0.5307 0.88135 0.0
O267 O 0.40908 0.50601 0.87868 0.0
H268 H 0.37296 0.50537 0.89354 0.0
H269 H 0.34527 0.50501 0.89098 0.0
H270 H 0.33824 0.51632 0.93512 0.0
H271 H 0.36592 0.51671 0.93757 0.0
H272 H 0.44195 0.52043 0.95811 0.0
H273 H 0.42818 0.52209 0.93592 0.0
H274 H 0.48209 0.50371 0.93492 0.0
H275 H 0.4684 0.50583 0.91282 0.0
H276 H 0.44673 0.54212 0.84485 0.0
H277 H 0.41387 0.51595 0.82367 0.0
H278 H 0.40088 0.50974 0.84665 0.0
H279 H 0.43359 0.5359 0.86785 0.0
C280 C 0.99165 0.37147 0.41608 0.0
C281 C 0.98472 0.36527 0.40449 0.0
C282 C 0.99205 0.33955 0.41283 0.0
C283 C 0.98487 0.34945 0.4029 0.0
C284 C 0.99905 0.34588 0.42437 0.0
C285 C 0.99883 0.36168 0.42598 0.0
U286 U 0.98552 0.41235 0.40171 0.0
O287 O 0.97441 0.43213 0.41172 0.0
O288 O 0.99858 0.43313 0.40473 0.0
C289 C 0.98707 0.43993 0.41147 0.0
C290 C 0.9915 0.38808 0.41799 0.0
C291 C 0.99057 0.44727 0.42479 0.0
C292 C 0.99036 0.44775 0.4507 0.0
C293 C 0.98763 0.44011 0.43825 0.0
C294 C 0.99929 0.46962 0.43638 0.0
C295 C 0.99616 0.46265 0.44992 0.0
C296 C 0.99651 0.46201 0.42398 0.0
C297 C 0.97337 0.41744 0.36244 0.0
C298 C 0.9783 0.43674 0.3435 0.0
C299 C 0.95664 0.4202 0.34248 0.0
C300 C 0.96053 0.41296 0.35538 0.0
C301 C 0.96555 0.43208 0.33628 0.0
C302 C 0.98216 0.42952 0.35647 0.0
C303 C 0.97781 0.40854 0.37538 0.0
O304 O 1.00208 0.3957 0.41056 0.0
O305 O 0.978 0.39486 0.4178 0.0
O306 O 0.9679 0.40845 0.38628 0.0
O307 O 0.99203 0.40948 0.3791 0.0
H308 H 0.97919 0.37267 0.39668 0.0
H309 H 0.97953 0.34499 0.3938 0.0
H310 H 1.0045 0.3386 0.43231 0.0
H311 H 1.00423 0.36625 0.435 0.0
H312 H 0.98799 0.44196 0.46093 0.0
H313 H 0.98311 0.42869 0.43914 0.0
H314 H 1.00357 0.48113 0.43534 0.0
H315 H 0.99881 0.46776 0.41371 0.0
H316 H 0.98532 0.44595 0.33909 0.0
H317 H 0.94689 0.41614 0.33714 0.0
H318 H 0.95367 0.40359 0.3597 0.0
H319 H 0.99214 0.43323 0.36169 0.0
C320 C 0.37322 0.99139 0.91639 0.0
C321 C 0.36708 0.98548 0.90425 0.0
C322 C 0.34128 0.99159 0.9133 0.0
C323 C 0.35127 0.98554 0.90274 0.0
C324 C 0.34753 0.99759 0.92539 0.0
C325 C 0.36335 0.99747 0.92691 0.0
U326 U 0.41368 0.9857 0.90111 0.0
O327 O 0.43459 0.99865 0.9038 0.0
O328 O 0.43378 0.97436 0.91031 0.0
C329 C 0.44161 0.987 0.91008 0.0
C330 C 0.38984 0.9913 0.91812 0.0
C331 C 0.4493 0.99017 0.92328 0.0
C332 C 0.44961 0.99123 0.94912 0.0
C333 C 0.44176 0.98877 0.93674 0.0
C334 C 0.47251 0.99679 0.93468 0.0
C335 C 0.46515 0.99515 0.94825 0.0
C336 C 0.46467 0.99431 0.92236 0.0
C337 C 0.41685 0.97456 0.86138 0.0
C338 C 0.43824 0.97665 0.84405 0.0
C339 C 0.41602 0.9623 0.83872 0.0
C340 C 0.40931 0.96558 0.85201 0.0
C341 C 0.43047 0.96796 0.83446 0.0
C342 C 0.43146 0.97995 0.85741 0.0
C343 C 0.40875 0.97864 0.87481 0.0
O344 O 0.39667 0.97785 0.91754 0.0
O345 O 0.39732 1.00205 0.91078 0.0
O346 O 0.41011 0.99273 0.87876 0.0
O347 O 0.40924 0.96847 0.88545 0.0
H348 H 0.37454 0.98083 0.89596 0.0
H349 H 0.34687 0.98102 0.89322 0.0
H350 H 0.34019 1.00216 0.9338 0.0
H351 H 0.36788 1.00207 0.93635 0.0
H352 H 0.4436 0.98974 0.95937 0.0
H353 H 0.42987 0.98559 0.93769 0.0
H354 H 0.48435 1.00007 0.93355 0.0
H355 H 0.47068 0.99552 0.91206 0.0
H356 H 0.44935 0.98124 0.84108 0.0
H357 H 0.40985 0.95532 0.83176 0.0
H358 H 0.39805 0.96127 0.8549 0.0
H359 H 0.4375 0.98691 0.8645 0.0
C360 C 0.50965 0.37404 0.41512 0.0
C361 C 0.51433 0.36722 0.40237 0.0
C362 C 0.50867 0.34201 0.41302 0.0
C363 C 0.51386 0.35136 0.40133 0.0
C364 C 0.50378 0.34899 0.4257 0.0
C365 C 0.50429 0.36484 0.42673 0.0
U366 U 0.51517 0.41387 0.39837 0.0
O367 O 0.50368 0.43575 0.40299 0.0
O368 O 0.52839 0.43311 0.40534 0.0
C369 C 0.5162 0.44189 0.40718 0.0
C370 C 0.51052 0.39066 0.41648 0.0
C371 C 0.51485 0.44971 0.42077 0.0
C372 C 0.50688 0.4505 0.44585 0.0
C373 C 0.50825 0.44264 0.43315 0.0
C374 C 0.51887 0.47245 0.43395 0.0
C375 C 0.51211 0.46555 0.4464 0.0
C376 C 0.5202 0.46461 0.42129 0.0
C377 C 0.52204 0.4171 0.35754 0.0
C378 C 0.53115 0.43953 0.34391 0.0
C379 C 0.52305 0.41751 0.33166 0.0
C380 C 0.51964 0.40999 0.34477 0.0
C381 C 0.52897 0.43232 0.33105 0.0
C382 C 0.52768 0.43199 0.35706 0.0
C383 C 0.51904 0.40854 0.37113 0.0
O384 O 0.52404 0.39649 0.41354 0.0
O385 O 0.49937 0.39879 0.41087 0.0
O386 O 0.50557 0.41086 0.37741 0.0
O387 O 0.53021 0.40799 0.38002 0.0
H388 H 0.51849 0.37416 0.39327 0.0
H389 H 0.51788 0.3464 0.39146 0.0
H390 H 0.49947 0.34221 0.43484 0.0
H391 H 0.50055 0.36992 0.43664 0.0
H392 H 0.5015 0.44487 0.45518 0.0
H393 H 0.50408 0.43111 0.43296 0.0
H394 H 0.52328 0.48389 0.434 0.0
H395 H 0.5254 0.47022 0.41185 0.0
H396 H 0.53554 0.45099 0.34382 0.0
H397 H 0.52146 0.41152 0.322 0.0
H398 H 0.51534 0.39848 0.34495 0.0
H399 H 0.52955 0.43768 0.36683 0.0
C400 C 0.14305 0.51318 0.91079 0.0
C401 C 0.15091 0.50982 0.89793 0.0
C402 C 0.17531 0.51266 0.90898 0.0
C403 C 0.1669 0.5095 0.89705 0.0
C404 C 0.16733 0.51609 0.9218 0.0
C405 C 0.15137 0.51632 0.92269 0.0
U406 U 0.104 0.51686 0.89421 0.0
O407 O 0.08282 0.50437 0.89955 0.0
O408 O 0.08321 0.5292 0.90148 0.0
C409 C 0.0754 0.51664 0.90382 0.0
C410 C 0.12624 0.51357 0.91199 0.0
C411 C 0.06714 0.51507 0.91779 0.0
C412 C 0.06628 0.51585 0.94367 0.0
C413 C 0.07448 0.51709 0.93054 0.0
C414 C 0.0434 0.51037 0.93143 0.0
C415 C 0.05059 0.51255 0.94428 0.0
C416 C 0.0516 0.51163 0.91834 0.0
C417 C 0.10293 0.52286 0.85329 0.0
C418 C 0.08108 0.53154 0.83984 0.0
C419 C 0.10414 0.52267 0.82741 0.0
C420 C 0.11092 0.51979 0.84046 0.0
C421 C 0.08917 0.52869 0.82691 0.0
C422 C 0.08789 0.52861 0.85292 0.0
C423 C 0.11077 0.52048 0.86677 0.0
O424 O 0.11973 0.52681 0.90879 0.0
O425 O 0.11939 0.50201 0.90669 0.0
O426 O 0.1092 0.50703 0.87329 0.0
O427 O 0.10978 0.53182 0.8755 0.0
H428 H 0.14468 0.50747 0.88858 0.0
H429 H 0.17269 0.50699 0.88698 0.0
H430 H 0.17344 0.51839 0.93123 0.0
H431 H 0.1455 0.51894 0.9327 0.0
H432 H 0.07217 0.51775 0.95331 0.0
H433 H 0.08651 0.51973 0.93034 0.0
H434 H 0.03144 0.50754 0.93147 0.0
H435 H 0.04576 0.50995 0.90861 0.0
H436 H 0.06949 0.53602 0.83984 0.0
H437 H 0.1108 0.52055 0.8177 0.0
H438 H 0.12256 0.5154 0.84053 0.0
H439 H 0.08151 0.531 0.86273 0.0
C440 C 0.99068 0.14275 0.4117 0.0
C441 C 0.98408 0.15071 0.40018 0.0
C442 C 0.99136 0.17499 0.40948 0.0
C443 C 0.98436 0.1667 0.39911 0.0
C444 C 0.99802 0.1669 0.42095 0.0
C445 C 0.99767 0.15095 0.42203 0.0
U446 U 0.98638 0.10329 0.39635 0.0
O447 O 0.99967 0.08207 0.40038 0.0
O448 O 0.97508 0.08283 0.40573 0.0
C449 C 0.98793 0.07492 0.40648 0.0
C450 C 0.99045 0.12595 0.41315 0.0
C451 C 0.99069 0.06691 0.42029 0.0
C452 C 0.99108 0.0663 0.4462 0.0
C453 C 0.98861 0.07428 0.43323 0.0
C454 C 0.99794 0.04359 0.43341 0.0
C455 C 0.99577 0.05083 0.44645 0.0
C456 C 0.9954 0.05155 0.42049 0.0
C457 C 0.9784 0.10194 0.35595 0.0
C458 C 0.96558 0.08328 0.34238 0.0
C459 C 0.98143 0.10235 0.33009 0.0
C460 C 0.98476 0.10827 0.34316 0.0
C461 C 0.9716 0.08993 0.32949 0.0
C462 C 0.96893 0.08924 0.3555 0.0
C463 C 0.98115 0.10949 0.36936 0.0
O464 O 0.97715 0.11966 0.41176 0.0
O465 O 1.00174 0.11875 0.40649 0.0
O466 O 0.99495 0.10794 0.37421 0.0
O467 O 0.97031 0.10869 0.37946 0.0
H468 H 0.97871 0.14457 0.39203 0.0
H469 H 0.97927 0.17256 0.39007 0.0
H470 H 1.00333 0.1729 0.42922 0.0
H471 H 1.00282 0.14501 0.43101 0.0
H472 H 0.98948 0.07229 0.45602 0.0
H473 H 0.98505 0.08618 0.43331 0.0
H474 H 1.00134 0.03166 0.43318 0.0
H475 H 0.99705 0.04565 0.41062 0.0
H476 H 0.9579 0.07377 0.34231 0.0
H477 H 0.98652 0.10758 0.32043 0.0
H478 H 0.99211 0.11805 0.34325 0.0
H479 H 0.96388 0.08413 0.36523 0.0
C480 C 0.87068 0.02374 0.11084 0.0
C481 C 0.86292 0.02634 0.12392 0.0
C482 C 0.83841 0.02385 0.11291 0.0
C483 C 0.84692 0.02636 0.12496 0.0
C484 C 0.84633 0.02113 0.09988 0.0
C485 C 0.86228 0.02109 0.09888 0.0
U486 U 0.91019 0.02922 0.12576 0.0
O487 O 0.93174 0.01654 0.12172 0.0
O488 O 0.93016 0.04094 0.11573 0.0
C489 C 0.93843 0.02831 0.11515 0.0
C490 C 0.88746 0.02401 0.10937 0.0
C491 C 0.94641 0.02551 0.1013 0.0
C492 C 0.94901 0.0125 0.07888 0.0
C493 C 0.94094 0.01516 0.09178 0.0
C494 C 0.96795 0.03068 0.08472 0.0
C495 C 0.96264 0.02022 0.0752 0.0
C496 C 0.95993 0.03327 0.09762 0.0
C497 C 0.9123 0.03977 0.16542 0.0
C498 C 0.93099 0.03441 0.18351 0.0
C499 C 0.91324 0.05572 0.18594 0.0
C500 C 0.9068 0.05222 0.17315 0.0
C501 C 0.92534 0.04679 0.19137 0.0
C502 C 0.92456 0.03094 0.17064 0.0
C503 C 0.90435 0.03581 0.15252 0.0
O504 O 0.89357 0.03749 0.11021 0.0
O505 O 0.8948 0.01315 0.11647 0.0
O506 O 0.90615 0.02178 0.14822 0.0
O507 O 0.90449 0.04613 0.14197 0.0
H508 H 0.86923 0.02846 0.13328 0.0
H509 H 0.84121 0.02863 0.13512 0.0
H510 H 0.84019 0.01892 0.09045 0.0
H511 H 0.86808 0.01903 0.0887 0.0
H512 H 0.9445 1.00451 0.07173 0.0
H513 H 0.93046 0.00911 0.09434 0.0
H514 H 0.97848 0.03669 0.08233 0.0
H515 H 0.96438 0.04127 0.10481 0.0
H516 H 0.94039 0.02739 0.1873 0.0
H517 H 0.90845 0.06519 0.19179 0.0
H518 H 0.89727 0.05911 0.16942 0.0
H519 H 0.92906 0.02127 0.1649 0.0
C520 C 0.50188 0.87035 0.61065 0.0
C521 C 0.50787 0.86232 0.62245 0.0
C522 C 0.50307 0.83805 0.61177 0.0
C523 C 0.5085 0.84633 0.62299 0.0
C524 C 0.49687 0.84621 0.60009 0.0
C525 C 0.49633 0.86216 0.59954 0.0
U526 U 0.49779 0.90956 0.62726 0.0
O527 O 0.5102 0.93078 0.62186 0.0
O528 O 0.48539 0.9302 0.6198 0.0
C529 C 0.49793 0.93805 0.61742 0.0
C530 C 0.50138 0.88718 0.60961 0.0
C531 C 0.49961 0.94618 0.6034 0.0
C532 C 0.49692 0.94757 0.5777 0.0
C533 C 0.49555 0.93943 0.59083 0.0
C534 C 0.50669 0.96914 0.58949 0.0
C535 C 0.50248 0.96254 0.57688 0.0
C536 C 0.50525 0.96104 0.60261 0.0
C537 C 0.49134 0.91106 0.66815 0.0
C538 C 0.48003 0.93175 0.68176 0.0
C539 C 0.49299 0.9107 0.69392 0.0
C540 C 0.49627 0.90403 0.68085 0.0
C541 C 0.48466 0.92454 0.69458 0.0
C542 C 0.48338 0.92509 0.66866 0.0
C543 C 0.49395 0.90308 0.65472 0.0
O544 O 0.48806 0.89362 0.61271 0.0
O545 O 0.51285 0.89416 0.61494 0.0
O546 O 0.50746 0.90467 0.64828 0.0
O547 O 0.48271 0.9038 0.64589 0.0
H548 H 0.51217 0.8684 0.6312 0.0
H549 H 0.51348 0.84048 0.63208 0.0
H550 H 0.4923 0.84027 0.59139 0.0
H551 H 0.49156 0.86814 0.59039 0.0
H552 H 0.49374 0.94208 0.56818 0.0
H553 H 0.49128 0.92791 0.59119 0.0
H554 H 0.51084 0.9807 0.58928 0.0
H555 H 0.50843 0.96645 0.61218 0.0
H556 H 0.47375 0.9425 0.68186 0.0
H557 H 0.49656 0.90473 0.70357 0.0
H558 H 0.50238 0.89318 0.68069 0.0
H559 H 0.47952 0.93075 0.65896 0.0
C560 C 0.64158 0.50416 0.1066 0.0
C561 C 0.64838 0.49967 0.11939 0.0
C562 C 0.67358 0.50537 0.10871 0.0
C563 C 0.66423 0.50026 0.12044 0.0
C564 C 0.66663 0.50999 0.09596 0.0
C565 C 0.65078 0.50938 0.09493 0.0
U566 U 0.60197 0.49803 0.12358 0.0
O567 O 0.58008 0.51001 0.11977 0.0
O568 O 0.58247 0.48544 0.11643 0.0
C569 C 0.5738 0.49777 0.11512 0.0
C570 C 0.62494 0.50341 0.10533 0.0
C571 C 0.56581 0.49984 0.10166 0.0
C572 C 0.56481 0.49772 0.07597 0.0
C573 C 0.57293 0.49634 0.0885 0.0
C574 C 0.54247 0.50645 0.08958 0.0
C575 C 0.54941 0.50267 0.07637 0.0
C576 C 0.55058 0.50501 0.10207 0.0
C577 C 0.59998 0.48916 0.16433 0.0
C578 C 0.57735 0.48918 0.18025 0.0
C579 C 0.60148 0.47952 0.18882 0.0
C580 C 0.60843 0.48267 0.17541 0.0
C581 C 0.58588 0.48286 0.19148 0.0
C582 C 0.58435 0.49232 0.16677 0.0
C583 C 0.60792 0.49274 0.15052 0.0
O584 O 0.61909 0.48982 0.10776 0.0
O585 O 0.61691 0.51429 0.11151 0.0
O586 O 0.60552 0.50649 0.14487 0.0
O587 O 0.60804 0.482 0.14118 0.0
H588 H 0.64143 0.49562 0.12853 0.0
H589 H 0.66918 0.49645 0.13036 0.0
H590 H 0.67342 0.51423 0.0868 0.0
H591 H 0.64572 0.51297 0.085 0.0
H592 H 0.57049 0.49458 0.06604 0.0
H593 H 0.5847 0.49235 0.08792 0.0
H594 H 0.53076 0.51057 0.09029 0.0
H595 H 0.5449 0.50785 0.11211 0.0
H596 H 0.56534 0.49197 0.18194 0.0
H597 H 0.60834 0.47437 0.1971 0.0
H598 H 0.62049 0.48008 0.1737 0.0
H599 H 0.57762 0.49733 0.15831 0.0
C600 C 0.02306 0.64151 0.60626 0.0
C601 C 0.02611 0.64767 0.61937 0.0
C602 C 0.0237 0.6735 0.60891 0.0
C603 C 0.02642 0.66351 0.62069 0.0
C604 C 0.0206 0.66721 0.59581 0.0
C605 C 0.02029 0.65137 0.59452 0.0
U606 U 0.02717 0.60108 0.62208 0.0
O607 O 0.01365 0.58057 0.61924 0.0
O608 O 0.03812 0.58055 0.61327 0.0
C609 C 0.02522 0.57316 0.61321 0.0
C610 C 0.02279 0.62487 0.60473 0.0
C611 C 0.02211 0.56555 0.59994 0.0
C612 C 0.02255 0.56483 0.57405 0.0
C613 C 0.02509 0.57261 0.58645 0.0
C614 C 0.01376 0.54298 0.58847 0.0
C615 C 0.01689 0.54987 0.5749 0.0
C616 C 0.01635 0.55073 0.60083 0.0
C617 C 0.03692 0.59777 0.66204 0.0
C618 C 0.0374 0.57474 0.67738 0.0
C619 C 0.04543 0.59873 0.68623 0.0
C620 C 0.0425 0.60599 0.6731 0.0
C621 C 0.04282 0.58304 0.6886 0.0
C622 C 0.03445 0.58207 0.66419 0.0
C623 C 0.03357 0.60605 0.64856 0.0
O624 O 0.03603 0.61772 0.60576 0.0
O625 O 0.01163 0.61779 0.61186 0.0
O626 O 0.01957 0.60509 0.64425 0.0
O627 O 0.04402 0.6051 0.63817 0.0
H628 H 0.02832 0.64021 0.62856 0.0
H629 H 0.02902 0.66793 0.63088 0.0
H630 H 0.01825 0.67452 0.58658 0.0
H631 H 0.01786 0.64682 0.58433 0.0
H632 H 0.02492 0.57055 0.56378 0.0
H633 H 0.02947 0.58409 0.58551 0.0
H634 H 0.00959 0.53143 0.58957 0.0
H635 H 0.01402 0.54506 0.61114 0.0
H636 H 0.03519 0.56267 0.67887 0.0
H637 H 0.04988 0.60542 0.69449 0.0
H638 H 0.04454 0.61811 0.67161 0.0
H639 H 0.03014 0.57553 0.65575 0.0
H640 H 0.45525 0.00902 0.97282 0.0
H641 H 0.46955 0.01273 0.99414 0.0
H642 H 0.50896 0.99044 0.97467 0.0
H643 H 0.49458 0.98617 0.95357 0.0
H644 H 0.5053 0.9809 1.00171 0.0
H645 H 0.50625 0.02974 0.97668 0.0
H646 H 0.49516 0.05267 0.96474 0.0
H647 H 0.47017 0.06345 1.00343 0.0
H648 H 0.48096 0.04046 0.01556 0.0
H649 H 0.56016 1.00439 0.04955 0.0
H650 H 0.54587 1.00067 0.02821 0.0
H651 H 0.50642 0.02291 0.04768 0.0
H652 H 0.52079 0.02717 0.0688 0.0
H653 H 0.51011 0.03248 0.02064 0.0
H654 H 0.50915 0.98364 0.04567 0.0
H655 H 0.52024 0.96071 0.05762 0.0
H656 H 0.54525 0.94994 0.01893 0.0
H657 H 0.53447 0.97292 1.0068 0.0
C658 C 0.46691 1.00476 0.97311 0.0
C659 C 0.47375 0.99737 0.96138 0.0
C660 C 0.47514 1.00704 0.98528 0.0
C661 C 0.49044 1.00207 0.98597 0.0
C662 C 0.49721 0.99446 0.97439 0.0
C663 C 0.48899 0.99216 0.96225 0.0
C664 C 0.49941 1.00474 0.99875 0.0
C665 C 0.50651 0.99222 1.00573 0.0
C666 C 0.50076 0.01944 1.00424 0.0
C667 C 0.49429 0.0333 0.99698 0.0
C668 C 0.4983 0.03694 0.98261 0.0
C669 C 0.49209 0.04996 0.97581 0.0
C670 C 0.48194 0.05949 0.98331 0.0
C671 C 0.47802 0.05604 0.99763 0.0
C672 C 0.48418 0.04303 1.00447 0.0
C673 C 0.54849 0.00863 0.04925 0.0
C674 C 0.54163 0.016 0.06098 0.0
C675 C 0.54027 1.00635 0.03708 0.0
C676 C 0.52496 0.01131 0.03638 0.0
C677 C 0.51817 0.0189 0.04796 0.0
C678 C 0.52638 0.0212 0.06011 0.0
C679 C 0.516 0.00864 0.02359 0.0
C680 C 0.5089 0.02116 0.01662 0.0
C681 C 0.51466 0.99394 0.01811 0.0
C682 C 0.52112 0.98008 0.02537 0.0
C683 C 0.51711 0.97644 0.03974 0.0
C684 C 0.52332 0.96343 0.04654 0.0
C685 C 0.53348 0.9539 0.03905 0.0
C686 C 0.5374 0.95734 0.02473 0.0
C687 C 0.53123 0.97036 0.01788 0.0
H688 H 0.53827 0.94382 0.04433 0.0
H689 H 0.47714 0.06957 0.97803 0.0
H690 H 0.50783 0.51964 0.57258 0.0
H691 H 0.50969 0.50553 0.55072 0.0
H692 H 0.49876 0.54665 0.52623 0.0
H693 H 0.49627 0.56076 0.54817 0.0
H694 H 0.48316 0.52324 0.51747 0.0
H695 H 0.53554 0.53193 0.52683 0.0
H696 H 0.55845 0.53148 0.54117 0.0
H697 H 0.5568 0.48262 0.5456 0.0
H698 H 0.53374 0.48278 0.53144 0.0
H699 H 0.50454 0.49579 0.44937 0.0
H700 H 0.50271 0.50997 0.4712 0.0
H701 H 0.51371 0.46892 0.49577 0.0
H702 H 0.51617 0.45475 0.47388 0.0
H703 H 0.52929 0.49235 0.50446 0.0
H704 H 0.4769 0.48365 0.49514 0.0
H705 H 0.45398 0.48409 0.48082 0.0
H706 H 0.45565 0.53295 0.47633 0.0
H707 H 0.47871 0.53279 0.49047 0.0
C708 C 0.50569 0.52569 0.56257 0.0
C709 C 0.50187 0.54137 0.56218 0.0
C710 C 0.50693 0.51762 0.55004 0.0
C711 C 0.50455 0.52504 0.53677 0.0
C712 C 0.5007 0.54068 0.53632 0.0
C713 C 0.49942 0.54876 0.54888 0.0
C714 C 0.50582 0.51643 0.52341 0.0
C715 C 0.49334 0.51667 0.51453 0.0
C716 C 0.51894 0.50752 0.51971 0.0
C717 C 0.53283 0.50738 0.52819 0.0
C718 C 0.53999 0.5211 0.53095 0.0
C719 C 0.55302 0.52089 0.53903 0.0
C720 C 0.55905 0.50703 0.54432 0.0
C721 C 0.5521 0.49335 0.54151 0.0
C722 C 0.53906 0.49349 0.53345 0.0
C723 C 0.5067 0.48977 0.45939 0.0
C724 C 0.51052 0.47409 0.45982 0.0
C725 C 0.50548 0.49788 0.47191 0.0
C726 C 0.50789 0.4905 0.48519 0.0
C727 C 0.51174 0.47487 0.48567 0.0
C728 C 0.51301 0.46674 0.47314 0.0
C729 C 0.50663 0.49915 0.49852 0.0
C730 C 0.51911 0.49892 0.5074 0.0
C731 C 0.49351 0.50807 0.50222 0.0
C732 C 0.47962 0.5082 0.49375 0.0
C733 C 0.47245 0.49448 0.49101 0.0
C734 C 0.45942 0.49468 0.48294 0.0
C735 C 0.45339 0.50853 0.47764 0.0
C736 C 0.46035 0.52223 0.48043 0.0
C737 C 0.47339 0.52209 0.48848 0.0
H738 H 0.4433 0.50866 0.47139 0.0
H739 H 0.56913 0.5069 0.55057 0.0
H740 H 0.05965 0.49985 0.96987 0.0
H741 H 0.04493 0.49803 0.99255 0.0
H742 H 1.00656 0.52046 0.97285 0.0
H743 H 0.02139 0.52289 0.95031 0.0
H744 H 0.01028 0.53151 0.99827 0.0
H745 H 0.00786 0.48137 0.97985 0.0
H746 H 0.01828 0.45739 0.97024 0.0
H747 H 0.04242 0.44821 1.00853 0.0
H748 H 0.0323 0.47225 0.01829 0.0
H749 H 0.9539 0.51329 0.05252 0.0
H750 H 0.96871 0.51515 0.0299 0.0
H751 H 1.00694 0.49255 0.04969 0.0
H752 H 0.992 0.49006 0.07217 0.0
H753 H 1.00336 0.48159 0.02426 0.0
H754 H 1.00575 0.5317 0.04271 0.0
H755 H 0.99534 0.55568 0.05232 0.0
H756 H 0.97127 0.56493 0.01399 0.0
H757 H 0.98139 0.54089 1.00423 0.0
C758 C 0.04813 0.50455 0.97038 0.0
C759 C 0.04171 0.51146 0.95819 0.0
C760 C 0.03966 0.50334 0.98334 0.0
C761 C 0.02453 0.5089 0.9844 0.0
C762 C 0.01817 0.51601 0.97232 0.0
C763 C 0.02664 0.51726 0.95937 0.0
C764 C 0.01532 0.50739 0.99807 0.0
C765 C 0.00861 0.52056 1.00385 0.0
C766 C 0.01338 0.49316 1.00557 0.0
C767 C 0.01944 0.47868 0.99974 0.0
C768 C 0.01548 0.47429 0.98617 0.0
C769 C 0.02132 0.46068 0.98071 0.0
C770 C 0.03104 0.4513 0.98876 0.0
C771 C 0.03491 0.4555 1.0023 0.0
C772 C 0.02912 0.4691 1.00781 0.0
C773 C 0.9654 0.50856 0.05205 0.0
C774 C 0.97175 0.50158 0.06424 0.0
C775 C 0.97393 0.50979 0.03912 0.0
C776 C 0.98906 0.50419 0.03811 0.0
C777 C 0.99534 0.49703 0.05019 0.0
C778 C 0.98681 0.49575 0.0631 0.0
C779 C 0.99831 0.50572 0.02445 0.0
C780 C 1.00503 0.49255 0.01868 0.0
C781 C 1.00026 0.51994 0.01697 0.0
C782 C 0.99421 0.53443 0.0228 0.0
C783 C 0.99815 0.53879 0.03637 0.0
C784 C 0.99232 0.55241 0.04184 0.0
C785 C 0.98262 0.5618 0.03379 0.0
C786 C 0.97877 0.55763 0.02023 0.0
C787 C 0.98456 0.54402 0.01472 0.0
H788 H 0.97812 0.57234 0.03804 0.0
H789 H 0.03554 0.44077 0.98451 0.0
H790 H 0.99501 0.98308 0.57164 0.0
H791 H 0.99136 0.99804 0.5495 0.0
H792 H 0.03132 0.97645 0.53031 0.0
H793 H 0.03528 0.96171 0.55258 0.0
H794 H 0.03121 1.00684 0.52459 0.0
H795 H 0.99562 0.96646 0.52168 0.0
H796 H 0.9744 0.94987 0.52995 0.0
H797 H 0.94415 0.98888 0.5321 0.0
H798 H 0.96527 1.00575 0.52403 0.0
H799 H 0.01877 0.03025 0.45261 0.0
H800 H 0.02239 0.01545 0.47484 0.0
H801 H 0.98237 0.03713 0.49383 0.0
H802 H 0.97844 0.05172 0.47146 0.0
H803 H 0.98247 1.00678 0.49971 0.0
H804 H 0.01804 0.04715 0.50253 0.0
H805 H 0.03928 0.06374 0.49426 0.0
H806 H 0.06955 0.02474 0.49225 0.0
H807 H 0.04843 0.00787 0.50033 0.0
C808 C 1.00308 0.98155 0.56275 0.0
C809 C 0.01545 0.97116 0.56392 0.0
C810 C 1.00089 0.99003 0.55003 0.0
C811 C 0.01098 0.9883 0.53815 0.0
C812 C 0.02336 0.97797 0.5393 0.0
C813 C 0.02553 0.96945 0.55201 0.0
C814 C 0.00873 0.99741 0.52463 0.0
C815 C 0.02063 1.00665 0.51904 0.0
C816 C 0.99479 0.9975 0.51755 0.0
C817 C 0.98207 0.98739 0.52239 0.0
C818 C 0.98448 0.97152 0.52404 0.0
C819 C 0.97246 0.96206 0.52866 0.0
C820 C 0.95794 0.96832 0.53158 0.0
C821 C 0.95541 0.98405 0.52985 0.0
C822 C 0.96739 0.99357 0.52524 0.0
C823 C 0.01068 0.03184 0.46148 0.0
C824 C 0.9983 0.0422 0.46021 0.0
C825 C 0.01285 0.02345 0.47425 0.0
C826 C 1.00274 0.02525 0.48609 0.0
C827 C 0.99035 0.03556 0.48487 0.0
C828 C 0.9882 0.044 0.4721 0.0
C829 C 1.00496 0.0162 0.49966 0.0
C830 C 0.99305 1.00697 0.50525 0.0
C831 C 0.01889 0.01612 0.50675 0.0
C832 C 0.03161 0.02623 0.5019 0.0
C833 C 0.0292 0.04209 0.50021 0.0
C834 C 0.04122 0.05155 0.49558 0.0
C835 C 0.05574 0.04529 0.4927 0.0
C836 C 0.05828 0.02957 0.49447 0.0
C837 C 0.0463 0.02005 0.49909 0.0
H838 H 0.06503 0.05263 0.48912 0.0
H839 H 0.94865 0.96098 0.53516 0.0
H840 H 0.0462 0.01996 0.95802 0.0
H841 H 0.03105 0.02448 0.97994 0.0
H842 H 0.02342 0.97615 0.98584 0.0
H843 H 0.03845 0.97158 0.96385 0.0
H844 H 0.99768 0.99134 0.99093 0.0
H845 H 0.04902 0.99531 1.00594 0.0
H846 H 0.07527 1.00499 1.00501 0.0
H847 H 0.05789 0.05048 1.01108 0.0
H848 H 0.03152 0.0411 0.01185 0.0
H849 H 0.96876 0.99277 0.06294 0.0
H850 H 0.98383 0.98801 0.04101 0.0
H851 H 0.99151 0.03628 0.03467 0.0
H852 H 0.97655 0.04109 0.05664 0.0
H853 H 0.01727 0.02096 0.02987 0.0
H854 H 0.96591 0.01695 0.01479 0.0
H855 H 0.93968 0.00722 0.01574 0.0
H856 H 0.95713 0.96173 1.00987 0.0
H857 H 0.98349 0.97116 1.00907 0.0
C858 C 0.04144 0.01027 0.96406 0.0
C859 C 0.0436 0.9954 0.95917 0.0
C860 C 0.03276 0.01287 0.97662 0.0
C861 C 0.02619 1.00064 0.9847 0.0
C862 C 0.02831 0.98579 0.97982 0.0
C863 C 0.03691 0.98319 0.96721 0.0
C864 C 0.01693 1.00334 0.99809 0.0
C865 C 1.00206 0.99763 0.99953 0.0
C866 C 0.02245 0.01186 1.00922 0.0
C867 C 0.03829 0.01752 1.00882 0.0
C868 C 0.05079 0.00739 1.00697 0.0
C869 C 0.06569 0.01282 1.00649 0.0
C870 C 0.06824 0.02834 1.00795 0.0
C871 C 0.0559 0.03846 1.00993 0.0
C872 C 0.04098 0.03309 1.0104 0.0
C873 C 0.97351 1.00239 0.0568 0.0
C874 C 0.97141 0.01732 0.06157 0.0
C875 C 0.98214 0.99966 0.04424 0.0
C876 C 0.98872 0.0118 0.03605 0.0
C877 C 0.98662 0.02671 0.04079 0.0
C878 C 0.97807 0.02944 0.05338 0.0
C879 C 0.99802 0.00897 0.0227 0.0
C880 C 0.01289 0.01466 0.02128 0.0
C881 C 0.99251 1.00042 0.01159 0.0
C882 C 0.97667 0.99474 0.01201 0.0
C883 C 0.96416 1.00486 0.01381 0.0
C884 C 0.94927 0.9994 0.0143 0.0
C885 C 0.94674 0.98386 0.01291 0.0
C886 C 0.95911 0.97375 1.01097 0.0
C887 C 0.97402 0.97915 1.01048 0.0
H888 H 0.93521 0.97966 0.01329 0.0
H889 H 0.07979 0.03253 1.00757 0.0
H890 H 0.52583 0.98078 0.56663 0.0
H891 H 0.52745 0.99597 0.54424 0.0
H892 H 0.4836 0.97959 0.53327 0.0
H893 H 0.48196 0.96428 0.55563 0.0
H894 H 0.50282 0.97971 0.51063 0.0
H895 H 0.48788 0.01575 0.54598 0.0
H896 H 0.48998 0.02918 0.56834 0.0
H897 H 0.53388 0.04587 0.5538 0.0
H898 H 0.53213 0.03236 0.53143 0.0
H899 H 0.48907 0.03432 0.45461 0.0
H900 H 0.48742 0.01903 0.47695 0.0
H901 H 0.53113 0.03556 0.48818 0.0
H902 H 0.53278 0.05099 0.46589 0.0
H903 H 0.51193 0.03535 0.51069 0.0
H904 H 0.52692 0.99931 0.47537 0.0
H905 H 0.52488 0.98586 0.45302 0.0
H906 H 0.48097 0.96915 0.46748 0.0
H907 H 0.48265 0.98267 0.48985 0.0
C908 C 0.51649 0.98047 0.55949 0.0
C909 C 0.50372 0.97138 0.56299 0.0
C910 C 0.51743 0.98917 0.54668 0.0
C911 C 0.50553 0.98914 0.53713 0.0
C912 C 0.49292 0.97983 0.54045 0.0
C913 C 0.49201 0.97105 0.55323 0.0
C914 C 0.50623 0.99883 0.52371 0.0
C915 C 0.5046 0.99191 0.51067 0.0
C916 C 0.50891 0.01472 0.52368 0.0
C917 C 0.50994 0.02293 0.53709 0.0
C918 C 0.49803 0.0222 0.54759 0.0
C919 C 0.49915 0.02984 0.56026 0.0
C920 C 0.51207 0.03834 0.5625 0.0
C921 C 0.52388 0.03926 0.55206 0.0
C922 C 0.52283 0.03163 0.53938 0.0
C923 C 0.49838 0.03464 0.4618 0.0
C924 C 0.5111 0.04383 0.45841 0.0
C925 C 0.49742 0.02587 0.47458 0.0
C926 C 0.50926 0.02592 0.48419 0.0
C927 C 0.52185 0.0353 0.48095 0.0
C928 C 0.52276 0.04415 0.46821 0.0
C929 C 0.50852 0.01622 0.4976 0.0
C930 C 0.51014 0.02315 0.51065 0.0
C931 C 0.50585 1.00034 0.49763 0.0
C932 C 0.50485 0.99212 0.48423 0.0
C933 C 0.51678 0.99285 0.47374 0.0
C934 C 0.5157 0.98521 0.46108 0.0
C935 C 0.50279 0.97669 0.45882 0.0
C936 C 0.49095 0.97577 0.46924 0.0
C937 C 0.49197 0.98341 0.48192 0.0
H938 H 0.50197 0.97078 0.449 0.0
H939 H 0.51292 0.04424 0.57232 0.0
H940 H 0.5591 0.5124 0.04933 0.0
H941 H 0.54445 0.51389 0.02776 0.0
H942 H 0.50481 0.49725 0.05188 0.0
H943 H 0.51955 0.4951 0.07334 0.0
H944 H 0.50762 0.48365 0.02732 0.0
H945 H 0.50868 0.53554 0.04164 0.0
H946 H 0.52069 0.55919 0.04848 0.0
H947 H 0.54532 0.56226 1.008 0.0
H948 H 0.5336 0.5385 1.001 0.0
H949 H 0.45305 0.50281 0.97537 0.0
H950 H 0.4674 0.50155 0.99714 0.0
H951 H 0.50735 0.51791 0.97333 0.0
H952 H 0.49293 0.51979 0.95166 0.0
H953 H 0.5042 0.53172 0.99784 0.0
H954 H 0.50327 0.47975 0.98359 0.0
H955 H 0.49126 0.45609 0.97675 0.0
H956 H 0.46638 0.45319 0.0171 0.0
H957 H 0.47809 0.47696 0.02411 0.0
C958 C 0.54731 0.50891 0.05004 0.0
C959 C 0.54052 0.5037 0.06314 0.0
C960 C 0.53888 0.50993 0.0377 0.0
C961 C 0.52343 0.5059 0.0382 0.0
C962 C 0.51668 0.50051 0.05121 0.0
C963 C 0.52511 0.49943 0.06353 0.0
C964 C 0.51431 0.50716 0.02516 0.0
C965 C 0.50671 0.49423 0.02099 0.0
C966 C 0.51335 0.52085 0.01668 0.0
C967 C 0.52037 0.53516 0.02085 0.0
C968 C 0.51674 0.54119 0.03424 0.0
C969 C 0.52348 0.55463 0.03814 0.0
C970 C 0.53379 0.5622 0.0287 0.0
C971 C 0.53735 0.55637 0.01532 0.0
C972 C 0.53065 0.54293 0.01137 0.0
C973 C 0.46484 0.50629 0.97477 0.0
C974 C 0.47183 0.51131 0.96169 0.0
C975 C 0.47309 0.50541 0.98722 0.0
C976 C 0.48855 0.50942 0.98687 0.0
C977 C 0.49547 0.51467 0.97389 0.0
C978 C 0.48723 0.51559 0.96146 0.0
C979 C 0.49753 0.50821 0.99999 0.0
C980 C 0.5051 0.52115 1.00418 0.0
C981 C 0.49846 0.49453 1.00848 0.0
C982 C 0.49144 0.48021 1.00431 0.0
C983 C 0.49515 0.47413 0.99096 0.0
C984 C 0.48841 0.46069 0.98706 0.0
C985 C 0.47804 0.45317 0.99647 0.0
C986 C 0.47441 0.45905 1.00982 0.0
C987 C 0.4811 0.47249 0.01376 0.0
H988 H 0.47284 0.44276 0.99344 0.0
H989 H 0.539 0.5726 0.03173 0.0
H990 H 0.03535 0.54881 0.5506 0.0
H991 H 0.03178 0.53414 0.52946 0.0
H992 H 0.98953 0.51686 0.54831 0.0
H993 H 0.99305 0.53147 0.56949 0.0
H994 H 1.00584 0.49436 0.5369 0.0
H995 H 0.99033 0.5448 0.52107 0.0
H996 H 0.99305 0.57254 0.51663 0.0
H997 H 0.03238 0.56465 0.48891 0.0
H998 H 0.03001 0.53686 0.49335 0.0
H999 H 0.97776 0.46366 0.47426 0.0
H1000 H 0.98139 0.47826 0.49543 0.0
H1001 H 0.0237 0.49543 0.4766 0.0
H1002 H 0.02012 0.48088 0.45539 0.0
H1003 H 0.00738 0.51797 0.488 0.0
H1004 H 0.02284 0.4675 0.50382 0.0
H1005 H 0.02007 0.43977 0.50826 0.0
H1006 H 0.98076 0.44772 0.53598 0.0
H1007 H 0.98318 0.47551 0.53155 0.0
C1008 C 0.0252 0.54205 0.55018 0.0
C1009 C 0.01448 0.54136 0.56177 0.0
C1010 C 0.02318 0.53363 0.53808 0.0
C1011 C 0.01031 0.52446 0.53719 0.0
C1012 C 0.99958 0.52379 0.54873 0.0
C1013 C 1.00162 0.53215 0.56085 0.0
C1014 C 0.00814 0.51537 0.52437 0.0
C1015 C 1.00597 0.49958 0.52622 0.0
C1016 C 0.00866 0.52205 0.51037 0.0
C1017 C 0.01008 0.53876 0.50765 0.0
C1018 C 0.99963 0.54899 0.51412 0.0
C1019 C 1.00109 0.56472 0.51158 0.0
C1020 C 0.0129 0.57036 0.50252 0.0
C1021 C 0.02325 0.56027 0.49594 0.0
C1022 C 0.02184 0.54453 0.49845 0.0
C1023 C 0.98794 0.47038 0.47469 0.0
C1024 C 0.99865 0.47106 0.4631 0.0
C1025 C 0.99 0.47875 0.48681 0.0
C1026 C 1.0029 0.48788 0.48771 0.0
C1027 C 0.01363 0.48853 0.47617 0.0
C1028 C 0.01155 0.48021 0.46403 0.0
C1029 C 1.00508 0.49696 0.50053 0.0
C1030 C 0.00726 0.51276 0.49867 0.0
C1031 C 1.00455 0.49028 0.51452 0.0
C1032 C 1.00311 0.47358 0.51724 0.0
C1033 C 0.01354 0.46333 0.51078 0.0
C1034 C 0.01204 0.44761 0.51331 0.0
C1035 C 1.00023 0.44199 0.52237 0.0
C1036 C 0.9899 0.45209 0.52895 0.0
C1037 C 0.99133 0.46783 0.52644 0.0
H1038 H 0.99909 0.42981 0.52432 0.0
H1039 H 0.01402 0.58254 0.50057 0.0
H1040 H 0.57901 0.07612 0.19809 0.0
H1041 H 0.56956 0.0824 0.222 0.0
H1042 H 0.56124 0.03481 0.23211 0.0
H1043 H 0.57081 0.0284 0.20815 0.0
H1044 H 0.53813 0.05317 0.24278 0.0
H1045 H 0.59259 0.05067 0.24364 0.0
H1046 H 0.61895 0.05654 0.23532 0.0
H1047 H 0.61041 0.10407 0.24231 0.0
H1048 H 0.58391 0.09852 0.25048 0.0
H1049 H 0.53117 0.06439 0.31811 0.0
H1050 H 0.53923 0.05515 0.29464 0.0
H1051 H 0.55058 0.10102 0.28027 0.0
H1052 H 0.54303 0.11023 0.30372 0.0
H1053 H 0.57261 0.08143 0.27238 0.0
H1054 H 0.51776 0.08398 0.27054 0.0
H1055 H 0.49136 0.07807 0.27869 0.0
H1056 H 0.50069 0.0303 0.27372 0.0
H1057 H 0.52723 0.03592 0.26571 0.0
C1058 C 0.5752 0.06696 0.20539 0.0
C1059 C 0.57585 0.05173 0.20124 0.0
C1060 C 0.56976 0.07058 0.21906 0.0
C1061 C 0.56493 0.05905 0.22894 0.0
C1062 C 0.56494 0.04389 0.22467 0.0
C1063 C 0.57038 0.04025 0.21096 0.0
C1064 C 0.5604 0.06285 0.24384 0.0
C1065 C 0.54574 0.05914 0.24934 0.0
C1066 C 0.57026 0.07081 0.25236 0.0
C1067 C 0.58623 0.07419 0.24756 0.0
C1068 C 0.5963 0.06239 0.24331 0.0
C1069 C 0.61127 0.06566 0.23863 0.0
C1070 C 0.61634 0.08067 0.23826 0.0
C1071 C 0.60646 0.09245 0.24259 0.0
C1072 C 0.59147 0.08924 0.24726 0.0
C1073 C 0.53548 0.07249 0.30997 0.0
C1074 C 0.53636 0.08808 0.31279 0.0
C1075 C 0.53995 0.06721 0.29651 0.0
C1076 C 0.54537 0.07741 0.28561 0.0
C1077 C 0.5464 0.09293 0.28847 0.0
C1078 C 0.54193 0.0982 0.30187 0.0
C1079 C 0.55021 0.07203 0.27126 0.0
C1080 C 0.565 0.07539 0.26587 0.0
C1081 C 0.54047 0.06374 0.26289 0.0
C1082 C 0.52452 0.06036 0.26768 0.0
C1083 C 0.51422 0.07221 0.2713 0.0
C1084 C 0.49922 0.06891 0.27587 0.0
C1085 C 0.49436 0.05381 0.27677 0.0
C1086 C 0.50448 0.04198 0.27304 0.0
C1087 C 0.51949 0.04522 0.26848 0.0
H1088 H 0.48275 0.05129 0.28031 0.0
H1089 H 0.62794 0.08318 0.23464 0.0
H1090 H 0.43754 0.51195 0.80933 0.0
H1091 H 0.44739 0.52031 0.78557 0.0
H1092 H 0.4511 0.56617 0.79977 0.0
H1093 H 0.44097 0.55798 0.82344 0.0
H1094 H 0.43687 0.56565 0.77482 0.0
H1095 H 0.48269 0.54392 0.79407 0.0
H1096 H 0.49862 0.52383 0.80546 0.0
H1097 H 0.49179 0.49456 0.77087 0.0
H1098 H 0.47564 0.51441 0.75936 0.0
H1099 H 0.47882 0.59918 0.71674 0.0
H1100 H 0.47111 0.58889 0.74038 0.0
H1101 H 0.46915 0.54381 0.72396 0.0
H1102 H 0.47745 0.55396 0.70025 0.0
H1103 H 0.48218 0.54298 0.74962 0.0
H1104 H 0.43666 0.5644 0.73024 0.0
H1105 H 0.42054 0.58422 0.71869 0.0
H1106 H 0.42633 0.61359 0.75341 0.0
H1107 H 0.44268 0.59403 0.76508 0.0
C1108 C 0.44049 0.52381 0.8074 0.0
C1109 C 0.43846 0.5343 0.81829 0.0
C1110 C 0.44623 0.52855 0.79384 0.0
C1111 C 0.45006 0.54386 0.7909 0.0
C1112 C 0.44824 0.5543 0.8018 0.0
C1113 C 0.44257 0.54957 0.81536 0.0
C1114 C 0.45532 0.54917 0.77631 0.0
C1115 C 0.44691 0.56084 0.7694 0.0
C1116 C 0.46812 0.54255 0.76903 0.0
C1117 C 0.47782 0.53059 0.77593 0.0
C1118 C 0.48447 0.53315 0.78896 0.0
C1119 C 0.49356 0.52182 0.79542 0.0
C1120 C 0.49618 0.50791 0.78892 0.0
C1121 C 0.48974 0.50533 0.77591 0.0
C1122 C 0.48062 0.51662 0.7694 0.0
C1123 C 0.47698 0.58703 0.71815 0.0
C1124 C 0.47878 0.57741 0.70655 0.0
C1125 C 0.4724 0.58118 0.73167 0.0
C1126 C 0.46934 0.5656 0.73392 0.0
C1127 C 0.47138 0.55588 0.72246 0.0
C1128 C 0.47599 0.56173 0.70889 0.0
C1129 C 0.46384 0.55959 0.74822 0.0
C1130 C 0.47214 0.54778 0.75505 0.0
C1131 C 0.45088 0.56602 0.75543 0.0
C1132 C 0.44101 0.5778 0.74847 0.0
C1133 C 0.43459 0.57513 0.73536 0.0
C1134 C 0.4254 0.58631 0.7288 0.0
C1135 C 0.42244 0.60017 0.73529 0.0
C1136 C 0.42865 0.60286 0.74839 0.0
C1137 C 0.43786 0.59172 0.75499 0.0
H1138 H 0.41532 0.60881 0.7302 0.0
H1139 H 0.50323 0.49915 0.79394 0.0
H1140 H 0.93734 0.44011 0.32669 0.0
H1141 H 0.93095 0.44949 0.30281 0.0
H1142 H 0.97871 0.44931 0.28983 0.0
H1143 H 0.98521 0.43987 0.31374 0.0
H1144 H 0.96399 0.47449 0.27896 0.0
H1145 H 0.95637 0.42052 0.28106 0.0
H1146 H 0.94621 0.39617 0.29107 0.0
H1147 H 0.90042 0.41302 0.2858 0.0
H1148 H 0.9103 0.43757 0.27594 0.0
H1149 H 0.95053 0.47889 0.20416 0.0
H1150 H 0.95916 0.47095 0.22782 0.0
H1151 H 0.91237 0.46877 0.24377 0.0
H1152 H 0.90368 0.47614 0.22013 0.0
H1153 H 0.92798 0.4443 0.2527 0.0
H1154 H 0.93568 0.49856 0.2511 0.0
H1155 H 0.94592 0.52292 0.24118 0.0
H1156 H 0.99166 0.50545 0.24534 0.0
H1157 H 0.98169 0.4809 0.25512 0.0
C1158 C 0.9465 0.44205 0.31877 0.0
C1159 C 0.96178 0.43908 0.32211 0.0
C1160 C 0.94283 0.44744 0.30511 0.0
C1161 C 0.95433 0.44986 0.29444 0.0
C1162 C 0.96964 0.4475 0.29788 0.0
C1163 C 0.97334 0.44214 0.31157 0.0
C1164 C 0.95028 0.45435 0.2796 0.0
C1165 C 0.95628 0.46778 0.27313 0.0
C1166 C 0.94006 0.44573 0.27205 0.0
C1167 C 0.93408 0.43093 0.27788 0.0
C1168 C 0.94413 0.41907 0.28213 0.0
C1169 C 0.93842 0.40523 0.28776 0.0
C1170 C 0.92268 0.40306 0.2891 0.0
C1171 C 0.91261 0.41472 0.28477 0.0
C1172 C 0.91826 0.4286 0.27915 0.0
C1173 C 0.94208 0.47663 0.21268 0.0
C1174 C 0.9264 0.47825 0.21022 0.0
C1175 C 0.94704 0.47224 0.22625 0.0
C1176 C 0.93643 0.46942 0.23765 0.0
C1177 C 0.92079 0.47093 0.23518 0.0
C1178 C 0.91583 0.4753 0.22166 0.0
C1179 C 0.94148 0.46458 0.2521 0.0
C1180 C 0.93571 0.45101 0.25849 0.0
C1181 C 0.95192 0.47308 0.25954 0.0
C1182 C 0.95793 0.48784 0.25369 0.0
C1183 C 0.94792 0.49987 0.24979 0.0
C1184 C 0.95368 0.51372 0.24422 0.0
C1185 C 0.96943 0.51571 0.2426 0.0
C1186 C 0.97946 0.50388 0.24658 0.0
C1187 C 0.97376 0.49 0.25215 0.0
H1188 H 0.97387 0.52645 0.23828 0.0
H1189 H 0.91828 0.39234 0.29347 0.0
H1190 H 0.06156 0.94699 0.69779 0.0
H1191 H 0.0683 0.95683 0.72063 0.0
H1192 H 0.03918 0.9238 0.74281 0.0
H1193 H 0.03194 0.9143 0.72003 0.0
H1194 H 0.03649 0.95047 0.75531 0.0
H1195 H 0.07809 0.91808 0.73938 0.0
H1196 H 0.09837 0.9091 0.72258 0.0
H1197 H 0.12011 0.9525 0.72305 0.0
H1198 H 0.09984 0.96181 0.73972 0.0
H1199 H 0.0694 0.95011 0.82372 0.0
H1200 H 0.05975 0.94375 0.80068 0.0
H1201 H 0.08866 0.9777 0.77962 0.0
H1202 H 0.09824 0.98421 0.80257 0.0
H1203 H 0.09125 0.95134 0.76639 0.0
H1204 H 0.04994 0.9833 0.78333 0.0
H1205 H 0.0297 0.99185 0.80036 0.0
H1206 H 0.00747 0.94887 0.79834 0.0
H1207 H 0.0277 0.93997 0.78143 0.0
C1208 C 0.05639 0.94197 0.70751 0.0
C1209 C 0.04631 0.92974 0.70703 0.0
C1210 C 0.06038 0.94752 0.72059 0.0
C1211 C 0.05446 0.94089 0.73349 0.0
C1212 C 0.04398 0.92905 0.73303 0.0
C1213 C 0.03996 0.92353 0.71997 0.0
C1214 C 0.05951 0.94593 0.74747 0.0
C1215 C 0.04846 0.95052 0.75778 0.0
C1216 C 0.07514 0.94627 0.75066 0.0
C1217 C 0.08736 0.94069 0.74067 0.0
C1218 C 0.08713 0.92574 0.73581 0.0
C1219 C 0.09864 0.92059 0.72633 0.0
C1220 C 0.1105 0.93024 0.72172 0.0
C1221 C 0.1109 0.94505 0.72661 0.0
C1222 C 0.09942 0.95026 0.73608 0.0
C1223 C 0.07352 0.95641 0.81422 0.0
C1224 C 0.08467 0.96763 0.81503 0.0
C1225 C 0.06801 0.95274 0.80103 0.0
C1226 C 0.07343 0.96028 0.78838 0.0
C1227 C 0.08435 0.97166 0.7892 0.0
C1228 C 0.08986 0.97533 0.80235 0.0
C1229 C 0.06824 0.95591 0.77423 0.0
C1230 C 0.07928 0.95139 0.7639 0.0
C1231 C 0.05261 0.95558 0.77107 0.0
C1232 C 0.04042 0.96091 0.78122 0.0
C1233 C 0.0408 0.97562 0.7866 0.0
C1234 C 0.02932 0.98054 0.79622 0.0
C1235 C 0.01733 0.9709 0.80046 0.0
C1236 C 0.01677 0.95632 0.79506 0.0
C1237 C 0.02824 0.95133 0.78545 0.0
H1238 H 0.00844 0.97473 0.8079 0.0
H1239 H 0.1194 0.92622 0.71438 0.0
H1240 H 0.46016 0.96032 0.82663 0.0
H1241 H 0.47052 0.95433 0.80283 0.0
H1242 H 0.42618 0.96291 0.7857 0.0
H1243 H 0.41581 0.96894 0.80935 0.0
H1244 H 0.43801 0.93685 0.77656 0.0
H1245 H 0.45566 0.98808 0.77971 0.0
H1246 H 0.469 0.009 0.79039 0.0
H1247 H 0.51132 0.9837 0.78693 0.0
H1248 H 0.49818 0.96252 0.77641 0.0
H1249 H 0.45712 0.93724 0.70302 0.0
H1250 H 0.44919 0.94598 0.72661 0.0
H1251 H 0.49389 0.93467 0.74176 0.0
H1252 H 0.50205 0.92625 0.71805 0.0
H1253 H 0.48282 0.9617 0.75216 0.0
H1254 H 0.46526 0.91061 0.74896 0.0
H1255 H 0.45201 0.88967 0.73823 0.0
H1256 H 0.40955 0.9147 0.74194 0.0
H1257 H 0.42259 0.9359 0.75251 0.0
C1258 C 0.45267 0.96111 0.81776 0.0
C1259 C 0.43713 0.965 0.81994 0.0
C1260 C 0.4586 0.95768 0.80415 0.0
C1261 C 0.44914 0.95821 0.79243 0.0
C1262 C 0.43369 0.96232 0.79457 0.0
C1263 C 0.42777 0.96571 0.80813 0.0
C1264 C 0.45509 0.95397 0.77801 0.0
C1265 C 0.44768 0.94245 0.77117 0.0
C1266 C 0.46799 0.96094 0.77109 0.0
C1267 C 0.4759 0.97365 0.77742 0.0
C1268 C 0.46778 0.98692 0.78134 0.0
C1269 C 0.47531 0.99884 0.78735 0.0
C1270 C 0.49099 0.99766 0.78938 0.0
C1271 C 0.49917 0.98458 0.78538 0.0
C1272 C 0.49169 0.97262 0.77938 0.0
C1273 C 0.46537 0.93685 0.71128 0.0
C1274 C 0.48021 0.93095 0.70864 0.0
C1275 C 0.46077 0.94173 0.72481 0.0
C1276 C 0.47088 0.94078 0.73602 0.0
C1277 C 0.48588 0.93545 0.7333 0.0
C1278 C 0.49048 0.93053 0.71977 0.0
C1279 C 0.46559 0.94476 0.75068 0.0
C1280 C 0.47314 0.95615 0.75758 0.0
C1281 C 0.45282 0.93767 0.75769 0.0
C1282 C 0.44493 0.92491 0.7514 0.0
C1283 C 0.45312 0.9117 0.74739 0.0
C1284 C 0.44564 0.89978 0.74135 0.0
C1285 C 0.42996 0.90087 0.73937 0.0
C1286 C 0.4217 0.91388 0.74346 0.0
C1287 C 0.42913 0.92585 0.74949 0.0
H1288 H 0.42419 0.89162 0.7347 0.0
H1289 H 0.49679 1.0069 0.79402 0.0
H1290 H 0.55766 0.47092 0.1985 0.0
H1291 H 0.54676 0.46439 0.22236 0.0
H1292 H 0.58703 0.48095 0.241 0.0
H1293 H 0.5979 0.48765 0.21727 0.0
H1294 H 0.57975 0.45318 0.25194 0.0
H1295 H 0.55337 0.50085 0.24309 0.0
H1296 H 0.53734 0.51935 0.22972 0.0
H1297 H 0.50012 0.48816 0.233 0.0
H1298 H 0.516 0.46938 0.24622 0.0
H1299 H 0.55444 0.44911 0.3241 0.0
H1300 H 0.56276 0.45968 0.30064 0.0
H1301 H 0.5223 0.44272 0.28265 0.0
H1302 H 0.51365 0.43253 0.30619 0.0
H1303 H 0.52925 0.47088 0.27134 0.0
H1304 H 0.55555 0.42306 0.27947 0.0
H1305 H 0.57141 0.40427 0.29268 0.0
H1306 H 0.60866 0.43544 0.29038 0.0
H1307 H 0.59294 0.45451 0.27732 0.0
C1308 C 0.56409 0.4734 0.20769 0.0
C1309 C 0.57872 0.47971 0.20595 0.0
C1310 C 0.55785 0.46964 0.22132 0.0
C1311 C 0.56606 0.47221 0.23349 0.0
C1312 C 0.58052 0.47878 0.23178 0.0
C1313 C 0.58674 0.48254 0.21819 0.0
C1314 C 0.55998 0.46742 0.24797 0.0
C1315 C 0.56881 0.45724 0.25625 0.0
C1316 C 0.54551 0.47237 0.25346 0.0
C1317 C 0.53593 0.48364 0.24551 0.0
C1318 C 0.54181 0.49788 0.24085 0.0
C1319 C 0.53274 0.50843 0.23332 0.0
C1320 C 0.51774 0.50491 0.23048 0.0
C1321 C 0.51175 0.49086 0.23519 0.0
C1322 C 0.52078 0.48026 0.24271 0.0
C1323 C 0.54716 0.44787 0.31522 0.0
C1324 C 0.53343 0.43986 0.31702 0.0
C1325 C 0.552 0.45381 0.30178 0.0
C1326 C 0.54327 0.45178 0.28983 0.0
C1327 C 0.52926 0.44436 0.29169 0.0
C1328 C 0.52441 0.43842 0.30514 0.0
C1329 C 0.5491 0.45677 0.27532 0.0
C1330 C 0.54022 0.46689 0.26702 0.0
C1331 C 0.56351 0.45173 0.26976 0.0
C1332 C 0.57302 0.44027 0.27755 0.0
C1333 C 0.56709 0.42595 0.28188 0.0
C1334 C 0.57605 0.41525 0.28932 0.0
C1335 C 0.59102 0.41868 0.2924 0.0
C1336 C 0.59706 0.43281 0.28801 0.0
C1337 C 0.58813 0.44357 0.28058 0.0
H1338 H 0.59794 0.41037 0.29817 0.0
H1339 H 0.51073 0.5131 0.22465 0.0
H1340 H 0.09101 0.51206 0.80278 0.0
H1341 H 0.08156 0.51925 0.7793 0.0
H1342 H 0.06246 0.56099 0.79574 0.0
H1343 H 0.07193 0.55391 0.81925 0.0
H1344 H 0.04315 0.54827 0.77805 0.0
H1345 H 0.09651 0.5607 0.77686 0.0
H1346 H 0.12396 0.55527 0.77953 0.0
H1347 H 0.12304 0.52138 0.7479 0.0
H1348 H 0.09552 0.52646 0.74519 0.0
H1349 H 0.03627 0.59419 0.71499 0.0
H1350 H 0.04259 0.58282 0.73815 0.0
H1351 H 0.06195 0.54333 0.71771 0.0
H1352 H 0.05612 0.55493 0.69436 0.0
H1353 H 0.08053 0.55284 0.73701 0.0
H1354 H 0.02755 0.54168 0.73684 0.0
H1355 H 1.00011 0.54709 0.73415 0.0
H1356 H 1.00013 0.57833 0.76814 0.0
H1357 H 0.02763 0.57327 0.77091 0.0
C1358 C 0.08481 0.52278 0.80141 0.0
C1359 C 0.08235 0.53246 0.8129 0.0
C1360 C 0.07939 0.52686 0.78797 0.0
C1361 C 0.07149 0.54077 0.78569 0.0
C1362 C 0.06853 0.5502 0.79724 0.0
C1363 C 0.07392 0.54611 0.8107 0.0
C1364 C 0.06676 0.54575 0.77117 0.0
C1365 C 0.05134 0.54941 0.7691 0.0
C1366 C 0.07737 0.54685 0.75939 0.0
C1367 C 0.09393 0.54385 0.76094 0.0
C1368 C 0.10214 0.55201 0.77055 0.0
C1369 C 0.11771 0.54901 0.77206 0.0
C1370 C 0.12523 0.53795 0.76392 0.0
C1371 C 0.1172 0.52991 0.75422 0.0
C1372 C 0.10162 0.53286 0.75268 0.0
C1373 C 0.04192 0.5831 0.71538 0.0
C1374 C 0.04576 0.57552 0.70277 0.0
C1375 C 0.04537 0.57652 0.72868 0.0
C1376 C 0.05261 0.56212 0.72973 0.0
C1377 C 0.05631 0.55442 0.71719 0.0
C1378 C 0.05286 0.56102 0.70385 0.0
C1379 C 0.05692 0.5555 0.74388 0.0
C1380 C 0.07229 0.55157 0.7459 0.0
C1381 C 0.04625 0.55414 0.75561 0.0
C1382 C 0.02969 0.55719 0.754 0.0
C1383 C 0.02173 0.54979 0.74367 0.0
C1384 C 1.00616 0.55278 0.74214 0.0
C1385 C 0.99839 0.56307 0.75095 0.0
C1386 C 1.00617 0.57037 0.76132 0.0
C1387 C 0.02175 0.56743 0.76289 0.0
H1388 H 0.98633 0.56537 0.74975 0.0
H1389 H 0.13729 0.53564 0.7651 0.0
H1390 H 0.93351 0.02661 0.21297 0.0
H1391 H 0.94266 0.03246 0.23635 0.0
H1392 H 0.94022 0.08056 0.22498 0.0
H1393 H 0.93148 0.07479 0.20149 0.0
H1394 H 0.96597 0.07348 0.2386 0.0
H1395 H 0.91233 0.06331 0.24614 0.0
H1396 H 0.88913 0.048 0.24526 0.0
H1397 H 0.90959 0.01251 0.27132 0.0
H1398 H 0.93301 0.02753 0.27219 0.0
H1399 H 0.96494 0.107 0.30545 0.0
H1400 H 0.95848 0.09812 0.28226 0.0
H1401 H 0.96176 0.05145 0.29829 0.0
H1402 H 0.96835 0.06028 0.32164 0.0
H1403 H 0.937 0.05585 0.28253 0.0
H1404 H 0.99003 0.06665 0.27632 0.0
H1405 H 0.01322 0.08193 0.27731 0.0
H1406 H 0.99418 0.116 0.24878 0.0
H1407 H 0.97077 0.10102 0.24777 0.0
C1408 C 0.93512 0.03843 0.21537 0.0
C1409 C 0.93167 0.05023 0.20535 0.0
C1410 C 0.94021 0.04176 0.2288 0.0
C1411 C 0.94194 0.05697 0.23252 0.0
C1412 C 0.93892 0.06874 0.2224 0.0
C1413 C 0.9338 0.06543 0.209 0.0
C1414 C 0.94666 0.0607 0.247 0.0
C1415 C 0.95954 0.06974 0.24819 0.0
C1416 C 0.93856 0.05548 0.25958 0.0
C1417 C 0.92448 0.04646 0.2591 0.0
C1418 C 0.91193 0.05218 0.25159 0.0
C1419 C 0.89873 0.04357 0.25111 0.0
C1420 C 0.8979 0.02927 0.25819 0.0
C1421 C 0.91026 0.02358 0.26581 0.0
C1422 C 0.92349 0.03214 0.26631 0.0
C1423 C 0.96448 0.09483 0.30404 0.0
C1424 C 0.96735 0.08436 0.31541 0.0
C1425 C 0.96074 0.08976 0.29074 0.0
C1426 C 0.95987 0.0741 0.28841 0.0
C1427 C 0.96241 0.06359 0.2998 0.0
C1428 C 0.96614 0.06867 0.31316 0.0
C1429 C 0.95618 0.06881 0.27411 0.0
C1430 C 0.9435 0.05948 0.27295 0.0
C1431 C 0.96449 0.07374 0.26154 0.0
C1432 C 0.97858 0.08276 0.26206 0.0
C1433 C 0.99073 0.07745 0.27033 0.0
C1434 C 1.00393 0.08605 0.27089 0.0
C1435 C 1.00516 0.09994 0.26314 0.0
C1436 C 0.9932 0.10524 0.25479 0.0
C1437 C 0.97998 0.09669 0.25421 0.0
H1438 H 0.01538 0.10659 0.26358 0.0
H1439 H 0.88768 0.02263 0.25781 0.0
H1440 H 0.81894 0.03661 0.09357 0.0
H1441 H 0.79109 0.03655 0.09459 0.0
H1442 H 0.79128 0.01221 0.1354 0.0
H1443 H 0.81926 0.01182 0.13425 0.0
H1444 H 0.77121 1.00008 0.11845 0.0
H1445 H 0.78174 0.05005 0.13311 0.0
H1446 H 0.79368 0.0753 0.13173 0.0
H1447 H 0.77253 0.086 0.0921 0.0
H1448 H 0.76063 0.06071 0.09314 0.0
H1449 H 0.69088 0.01078 0.13135 0.0
H1450 H 0.71857 0.01144 0.1335 0.0
H1451 H 0.72308 0.03538 0.09258 0.0
H1452 H 0.69541 0.03518 0.09054 0.0
H1453 H 0.74067 0.04784 0.11158 0.0
H1454 H 0.73135 0.99708 0.09651 0.0
H1455 H 0.71943 0.9718 0.09816 0.0
H1456 H 0.73831 0.96273 0.13911 0.0
H1457 H 0.75017 0.98805 0.13779 0.0
C1458 C 0.81309 0.03115 0.10273 0.0
C1459 C 0.82138 0.02419 0.11381 0.0
C1460 C 0.79713 0.03126 0.10337 0.0
C1461 C 0.78904 0.02453 0.11515 0.0
C1462 C 0.79726 0.01753 0.12623 0.0
C1463 C 0.81325 0.01743 0.1256 0.0
C1464 C 0.77204 0.02456 0.11569 0.0
C1465 C 0.76452 0.01056 0.11719 0.0
C1466 C 0.76328 0.03818 0.11381 0.0
C1467 C 0.7704 0.05342 0.11315 0.0
C1468 C 0.77973 0.05774 0.12404 0.0
C1469 C 0.78648 0.07207 0.12333 0.0
C1470 C 0.7839 0.08224 0.11181 0.0
C1471 C 0.77453 0.0781 0.101 0.0
C1472 C 0.76777 0.06378 0.10166 0.0
C1473 C 0.69774 0.01631 0.12286 0.0
C1474 C 0.69089 0.02287 0.11074 0.0
C1475 C 0.7136 0.01656 0.12405 0.0
C1476 C 0.72296 0.02331 0.11313 0.0
C1477 C 0.71613 0.03006 0.10113 0.0
C1478 C 0.70029 0.02981 0.09992 0.0
C1479 C 0.73987 0.02336 0.11413 0.0
C1480 C 0.74736 0.03738 0.11293 0.0
C1481 C 0.74859 0.00976 0.11633 0.0
C1482 C 0.7415 0.99452 0.11712 0.0
C1483 C 0.73285 0.98974 0.10592 0.0
C1484 C 0.72613 0.9754 0.10678 0.0
C1485 C 0.72808 0.96568 0.11875 0.0
C1486 C 0.73679 0.97028 0.12986 0.0
C1487 C 0.74352 0.98462 0.12906 0.0
H1488 H 0.72286 0.95458 0.1194 0.0
H1489 H 0.78913 0.09333 0.11128 0.0
H1490 H 0.49832 0.81804 0.6348 0.0
H1491 H 0.49932 0.79013 0.63515 0.0
H1492 H 0.51035 0.79149 0.58997 0.0
H1493 H 0.50974 0.81934 0.58956 0.0
H1494 H 0.48753 0.77145 0.59745 0.0
H1495 H 0.53748 0.78269 0.61327 0.0
H1496 H 0.55572 0.79427 0.6287 0.0
H1497 H 0.53604 0.76962 0.66518 0.0
H1498 H 0.51753 0.75805 0.64999 0.0
H1499 H 0.50816 0.69458 0.58755 0.0
H1500 H 0.50858 0.72227 0.58869 0.0
H1501 H 0.50217 0.71846 0.63445 0.0
H1502 H 0.50259 0.69065 0.63348 0.0
H1503 H 0.52205 0.73982 0.62752 0.0
H1504 H 0.47234 0.72844 0.61248 0.0
H1505 H 0.45345 0.71692 0.59769 0.0
H1506 H 0.47152 0.74193 0.56072 0.0
H1507 H 0.49067 0.75345 0.57526 0.0
C1508 C 0.50117 0.81243 0.62496 0.0
C1509 C 0.50391 0.82101 0.61214 0.0
C1510 C 0.50169 0.79645 0.62518 0.0
C1511 C 0.50496 0.78871 0.61259 0.0
C1512 C 0.50773 0.79722 0.5998 0.0
C1513 C 0.50729 0.81317 0.59958 0.0
C1514 C 0.5052 0.77175 0.61263 0.0
C1515 C 0.49522 0.76453 0.60389 0.0
C1516 C 0.51488 0.76271 0.62137 0.0
C1517 C 0.52602 0.76963 0.63051 0.0
C1518 C 0.53696 0.77984 0.6246 0.0
C1519 C 0.54736 0.78638 0.6333 0.0
C1520 C 0.54701 0.78272 0.64792 0.0
C1521 C 0.53628 0.77247 0.65386 0.0
C1522 C 0.52584 0.76591 0.64521 0.0
C1523 C 0.50707 0.69957 0.5979 0.0
C1524 C 0.50528 0.69028 0.61042 0.0
C1525 C 0.50712 0.71547 0.59852 0.0
C1526 C 0.50511 0.72252 0.61164 0.0
C1527 C 0.50363 0.71332 0.62418 0.0
C1528 C 0.50371 0.69739 0.62359 0.0
C1529 C 0.50447 0.73948 0.61222 0.0
C1530 C 0.51434 0.74671 0.6211 0.0
C1531 C 0.49457 0.74856 0.60371 0.0
C1532 C 0.48303 0.7417 0.59494 0.0
C1533 C 0.47236 0.7314 0.60118 0.0
C1534 C 0.46159 0.72488 0.59284 0.0
C1535 C 0.46131 0.72866 0.57827 0.0
C1536 C 0.47177 0.739 0.57201 0.0
C1537 C 0.48257 0.74554 0.58029 0.0
H1538 H 0.45297 0.7236 0.57183 0.0
H1539 H 0.55507 0.7878 0.65464 0.0
H1540 H 0.81834 0.5126 0.13365 0.0
H1541 H 0.79041 0.51343 0.13409 0.0
H1542 H 0.79134 0.49728 0.09133 0.0
H1543 H 0.81919 0.49626 0.09086 0.0
H1544 H 0.7715 0.5209 0.09426 0.0
H1545 H 0.78246 0.47363 0.12018 0.0
H1546 H 0.79395 0.45752 0.13914 0.0
H1547 H 0.76958 0.48326 0.17099 0.0
H1548 H 0.7581 0.49966 0.1522 0.0
H1549 H 0.69549 0.49762 0.08846 0.0
H1550 H 0.72317 0.49842 0.08995 0.0
H1551 H 0.71787 0.51441 0.13268 0.0
H1552 H 0.69009 0.51382 0.13124 0.0
H1553 H 0.73978 0.49234 0.1309 0.0
H1554 H 0.72794 0.5389 0.1054 0.0
H1555 H 0.71639 0.55533 0.08671 0.0
H1556 H 0.74237 0.53162 0.05447 0.0
H1557 H 0.75392 0.51489 0.07297 0.0
C1558 C 0.81261 0.50907 0.12439 0.0
C1559 C 0.82106 0.50437 0.11221 0.0
C1560 C 0.79663 0.50959 0.12465 0.0
C1561 C 0.78875 0.50532 0.11277 0.0
C1562 C 0.79715 0.50068 0.1006 0.0
C1563 C 0.8131 0.50016 0.10034 0.0
C1564 C 0.77177 0.50579 0.1129 0.0
C1565 C 0.76457 0.51451 0.10218 0.0
C1566 C 0.76269 0.49785 0.12349 0.0
C1567 C 0.76955 0.48797 0.13479 0.0
C1568 C 0.77965 0.47593 0.13123 0.0
C1569 C 0.78615 0.46673 0.14194 0.0
C1570 C 0.78254 0.46939 0.15627 0.0
C1571 C 0.77239 0.48123 0.1599 0.0
C1572 C 0.76588 0.49047 0.14922 0.0
C1573 C 0.70017 0.50149 0.09813 0.0
C1574 C 0.69051 0.50575 0.1097 0.0
C1575 C 0.71603 0.5019 0.09898 0.0
C1576 C 0.72263 0.50665 0.11137 0.0
C1577 C 0.71305 0.5107 0.12301 0.0
C1578 C 0.69716 0.51031 0.12218 0.0
C1579 C 0.73952 0.50727 0.11213 0.0
C1580 C 0.7467 0.49878 0.12302 0.0
C1581 C 0.74859 0.51549 0.10174 0.0
C1582 C 0.74169 0.52554 0.09057 0.0
C1583 C 0.7311 0.5371 0.09432 0.0
C1584 C 0.72457 0.54648 0.08376 0.0
C1585 C 0.72861 0.54449 0.06941 0.0
C1586 C 0.73923 0.53313 0.06559 0.0
C1587 C 0.74579 0.52371 0.07611 0.0
H1588 H 0.72354 0.55177 0.06125 0.0
H1589 H 0.78757 0.46226 0.16455 0.0
H1590 H 0.03592 0.69477 0.58972 0.0
H1591 H 0.03635 0.72243 0.59169 0.0
H1592 H 0.01341 0.71823 0.63314 0.0
H1593 H 0.01249 0.69054 0.63105 0.0
H1594 H 1.00118 0.74126 0.61757 0.0
H1595 H 0.05153 0.72553 0.62978 0.0
H1596 H 0.07644 0.71226 0.6268 0.0
H1597 H 0.08599 0.73842 0.58793 0.0
H1598 H 0.06104 0.7517 0.59057 0.0
H1599 H 0.01392 0.81861 0.63395 0.0
H1600 H 0.01421 0.79068 0.63476 0.0
H1601 H 0.03692 0.79085 0.59313 0.0
H1602 H 0.03713 0.81871 0.59244 0.0
H1603 H 0.04945 0.76968 0.61051 0.0
H1604 H 0.99834 0.78444 0.59793 0.0
H1605 H 0.97341 0.79763 0.60112 0.0
H1606 H 0.96539 0.7732 0.64119 0.0
H1607 H 0.99038 0.76001 0.63832 0.0
C1608 C 0.03085 0.69971 0.59922 0.0
C1609 C 0.02417 0.69038 0.61023 0.0
C1610 C 0.03125 0.71555 0.60039 0.0
C1611 C 0.02509 0.72244 0.61264 0.0
C1612 C 0.0183 0.71319 0.62361 0.0
C1613 C 0.0179 0.69733 0.62245 0.0
C1614 C 0.02554 0.73931 0.61386 0.0
C1615 C 0.01178 0.74744 0.61626 0.0
C1616 C 0.03931 0.74745 0.61192 0.0
C1617 C 0.05435 0.73951 0.61031 0.0
C1618 C 0.05889 0.72837 0.62054 0.0
C1619 C 0.07303 0.72086 0.61892 0.0
C1620 C 0.08278 0.72447 0.60717 0.0
C1621 C 0.07842 0.73562 0.59702 0.0
C1622 C 0.06429 0.74316 0.59858 0.0
C1623 C 0.01913 0.81271 0.62503 0.0
C1624 C 0.02542 0.82095 0.61309 0.0
C1625 C 0.01915 0.79672 0.62545 0.0
C1626 C 0.02541 0.78863 0.61392 0.0
C1627 C 0.03196 0.79682 0.60213 0.0
C1628 C 0.03195 0.81278 0.6017 0.0
C1629 C 0.02508 0.77164 0.61404 0.0
C1630 C 0.03887 0.76348 0.6119 0.0
C1631 C 0.01134 0.76348 0.61626 0.0
C1632 C 0.9963 0.77136 0.61798 0.0
C1633 C 0.99131 0.78197 0.60747 0.0
C1634 C 0.97716 0.78943 0.60921 0.0
C1635 C 0.96784 0.78629 0.62137 0.0
C1636 C 0.97263 0.77564 0.63179 0.0
C1637 C 0.98678 0.76816 0.63011 0.0
H1638 H 0.95689 0.79207 0.6227 0.0
H1639 H 0.09372 0.71864 0.60593 0.0
H1640 H 0.19562 0.01383 0.91514 0.0
H1641 H 0.22351 0.01375 0.91464 0.0
H1642 H 0.22474 0.96807 0.89926 0.0
H1643 H 0.1968 0.96792 0.90008 0.0
H1644 H 0.24407 0.97055 0.92041 0.0
H1645 H 0.23391 0.99848 0.87705 0.0
H1646 H 0.22205 0.01852 0.86179 0.0
H1647 H 0.24256 0.0531 0.88531 0.0
H1648 H 0.25438 0.03326 0.90086 0.0
H1649 H 0.32393 0.9688 0.90362 0.0
H1650 H 0.29623 0.96865 0.90151 0.0
H1651 H 0.29267 0.01394 0.91767 0.0
H1652 H 0.32041 0.01434 0.91948 0.0
H1653 H 0.27463 0.01113 0.89518 0.0
H1654 H 0.28393 0.98303 0.93906 0.0
H1655 H 0.29583 0.9629 0.9542 0.0
H1656 H 0.27687 0.92848 0.92936 0.0
H1657 H 0.26502 0.94843 0.91395 0.0
C1658 C 0.20181 1.00374 0.91169 0.0
C1659 C 0.19394 0.99088 0.90767 0.0
C1660 C 0.21778 1.00376 0.91128 0.0
C1661 C 0.22626 0.99096 0.90678 0.0
C1662 C 0.21846 0.97811 0.90273 0.0
C1663 C 0.20248 0.97809 0.9031 0.0
C1664 C 0.24326 0.99083 0.90673 0.0
C1665 C 0.25075 0.97929 0.91469 0.0
C1666 C 0.25201 1.00241 0.89953 0.0
C1667 C 0.24491 0.01438 0.89021 0.0
C1668 C 0.23579 0.01036 0.87905 0.0
C1669 C 0.22909 0.02168 0.87033 0.0
C1670 C 0.23152 0.03707 0.8726 0.0
C1671 C 0.24068 0.04117 0.88358 0.0
C1672 C 0.24739 0.02989 0.89234 0.0
C1673 C 0.31728 0.9788 0.90659 0.0
C1674 C 0.32442 0.99156 0.91178 0.0
C1675 C 0.30142 0.97864 0.90549 0.0
C1676 C 0.29233 0.99122 0.90958 0.0
C1677 C 0.29943 1.00409 0.91449 0.0
C1678 C 0.31529 1.00424 0.91564 0.0
C1679 C 0.2754 0.9909 0.90892 0.0
C1680 C 0.26793 1.00236 0.90083 0.0
C1681 C 0.26666 0.97923 0.91598 0.0
C1682 C 0.27373 0.96722 0.92526 0.0
C1683 C 0.2824 0.97117 0.93676 0.0
C1684 C 0.28912 0.95979 0.9454 0.0
C1685 C 0.28715 0.94442 0.94272 0.0
C1686 C 0.27841 0.94039 0.93141 0.0
C1687 C 0.27168 0.95173 0.92273 0.0
H1688 H 0.29236 0.93563 0.94942 0.0
H1689 H 0.22633 0.04582 0.86584 0.0
H1690 H 0.50105 0.32517 0.3904 0.0
H1691 H 0.50149 0.2974 0.38888 0.0
H1692 H 0.51611 0.29266 0.4321 0.0
H1693 H 0.5163 0.32038 0.4335 0.0
H1694 H 0.53223 0.274 0.41554 0.0
H1695 H 0.47875 0.28623 0.4233 0.0
H1696 H 0.45436 0.29934 0.41811 0.0
H1697 H 0.45518 0.27988 0.37689 0.0
H1698 H 0.47969 0.26681 0.38177 0.0
H1699 H 0.51749 0.19632 0.43147 0.0
H1700 H 0.517 0.22415 0.43082 0.0
H1701 H 0.50276 0.22503 0.38744 0.0
H1702 H 0.50266 0.19709 0.38819 0.0
H1703 H 0.4868 0.24567 0.40252 0.0
H1704 H 0.53962 0.23268 0.39494 0.0
H1705 H 0.56402 0.21951 0.39993 0.0
H1706 H 0.5646 0.24044 0.4404 0.0
H1707 H 0.54008 0.25358 0.43574 0.0
C1708 C 0.50448 0.31823 0.39955 0.0
C1709 C 0.50859 0.32507 0.4121 0.0
C1710 C 0.50457 0.30233 0.39871 0.0
C1711 C 0.50865 0.29289 0.41044 0.0
C1712 C 0.51286 0.29968 0.42293 0.0
C1713 C 0.51281 0.31556 0.42376 0.0
C1714 C 0.50878 0.27596 0.4097 0.0
C1715 C 0.52223 0.2678 0.41286 0.0
C1716 C 0.49589 0.26786 0.40577 0.0
C1717 C 0.48113 0.27567 0.40284 0.0
C1718 C 0.47379 0.28484 0.41309 0.0
C1719 C 0.45993 0.29224 0.41021 0.0
C1720 C 0.45325 0.29047 0.39716 0.0
C1721 C 0.46039 0.28126 0.38698 0.0
C1722 C 0.47425 0.27384 0.3898 0.0
C1723 C 0.51409 0.20239 0.42183 0.0
C1724 C 0.51011 0.19441 0.40988 0.0
C1725 C 0.51398 0.21834 0.42142 0.0
C1726 C 0.51005 0.22672 0.40902 0.0
C1727 C 0.50591 0.21883 0.39711 0.0
C1728 C 0.50599 0.20284 0.39751 0.0
C1729 C 0.51019 0.24371 0.40857 0.0
C1730 C 0.49681 0.25187 0.40515 0.0
C1731 C 0.52316 0.25184 0.41222 0.0
C1732 C 0.53794 0.24401 0.41504 0.0
C1733 C 0.54489 0.23438 0.40495 0.0
C1734 C 0.55876 0.22694 0.40771 0.0
C1735 C 0.56584 0.22911 0.42049 0.0
C1736 C 0.55909 0.23876 0.43051 0.0
C1737 C 0.54522 0.24622 0.42781 0.0
H1738 H 0.57657 0.22333 0.42261 0.0
H1739 H 0.44252 0.29622 0.39496 0.0
H1740 H 0.19454 0.49183 0.89611 0.0
H1741 H 0.2225 0.49118 0.89526 0.0
H1742 H 0.22249 0.53206 0.91924 0.0
H1743 H 0.19458 0.53296 0.91987 0.0
H1744 H 0.24361 0.53319 0.89718 0.0
H1745 H 0.22877 0.49747 0.93536 0.0
H1746 H 0.21545 0.47509 0.94621 0.0
H1747 H 0.23953 0.44599 0.91687 0.0
H1748 H 0.25284 0.46825 0.90571 0.0
H1749 H 0.3183 0.53127 0.92289 0.0
H1750 H 0.29063 0.53113 0.92067 0.0
H1751 H 0.29495 0.49009 0.89696 0.0
H1752 H 0.32267 0.49001 0.89936 0.0
H1753 H 0.27183 0.48824 0.91722 0.0
H1754 H 0.28771 0.52349 0.87982 0.0
H1755 H 0.3011 0.54572 0.86878 0.0
H1756 H 0.27518 0.57553 0.89615 0.0
H1757 H 0.26178 0.55344 0.90751 0.0
C1758 C 0.20049 0.50076 0.90108 0.0
C1759 C 0.19231 0.51241 0.90812 0.0
C1760 C 0.21647 0.50031 0.90068 0.0
C1761 C 0.2246 0.51149 0.90732 0.0
C1762 C 0.21647 0.52329 0.91408 0.0
C1763 C 0.20051 0.52371 0.91454 0.0
C1764 C 0.24156 0.51085 0.90737 0.0
C1765 C 0.24977 0.52343 0.9017 0.0
C1766 C 0.24965 0.49793 0.91289 0.0
C1767 C 0.24167 0.48454 0.9196 0.0
C1768 C 0.23113 0.48631 0.93114 0.0
C1769 C 0.2236 0.47365 0.93736 0.0
C1770 C 0.22661 0.45913 0.9322 0.0
C1771 C 0.23719 0.45725 0.92084 0.0
C1772 C 0.24473 0.46988 0.91457 0.0
C1773 C 0.31336 0.52216 0.91727 0.0
C1774 C 0.3227 0.51064 0.91131 0.0
C1775 C 0.29755 0.52217 0.9159 0.0
C1776 C 0.29071 0.51068 0.90852 0.0
C1777 C 0.29998 0.4991 0.90265 0.0
C1778 C 0.31582 0.49913 0.90394 0.0
C1779 C 0.27387 0.51067 0.90719 0.0
C1780 C 0.26568 0.49797 0.91262 0.0
C1781 C 0.26581 0.52346 0.90141 0.0
C1782 C 0.27384 0.53679 0.89461 0.0
C1783 C 0.28496 0.53477 0.88357 0.0
C1784 C 0.29253 0.54735 0.87724 0.0
C1785 C 0.28902 0.56202 0.88179 0.0
C1786 C 0.2779 0.56415 0.89266 0.0
C1787 C 0.2703 0.55161 0.89904 0.0
H1788 H 0.2949 0.57175 0.87686 0.0
H1789 H 0.22077 0.44934 0.93704 0.0
H1790 H 0.96829 0.195 0.40208 0.0
H1791 H 0.96856 0.22291 0.40145 0.0
H1792 H 0.01529 0.22141 0.41405 0.0
H1793 H 0.01508 0.19354 0.41474 0.0
H1794 H 0.99927 0.2411 0.42932 0.0
H1795 H 1.00538 0.23157 0.37945 0.0
H1796 H 0.99882 0.22071 0.35677 0.0
H1797 H 0.95562 0.24462 0.3584 0.0
H1798 H 0.96184 0.25548 0.38121 0.0
H1799 H 0.01574 0.31921 0.41688 0.0
H1800 H 0.01564 0.29148 0.41525 0.0
H1801 H 0.9686 0.2939 0.40359 0.0
H1802 H 0.96864 0.32169 0.40516 0.0
H1803 H 0.98447 0.27383 0.38769 0.0
H1804 H 0.97832 0.28315 0.43761 0.0
H1805 H 0.98493 0.29411 0.46024 0.0
H1806 H 0.02827 0.27047 0.45843 0.0
H1807 H 0.022 0.25953 0.43568 0.0
C1808 C 0.97869 0.20061 0.40453 0.0
C1809 C 0.99166 0.192 0.40848 0.0
C1810 C 0.97883 0.21659 0.40417 0.0
C1811 C 0.99199 0.22433 0.40759 0.0
C1812 C 1.00498 0.21575 0.41141 0.0
C1813 C 1.00483 0.19979 0.41184 0.0
C1814 C 0.99211 0.24132 0.40768 0.0
C1815 C 0.99625 0.24823 0.42013 0.0
C1816 C 0.98777 0.2507 0.39584 0.0
C1817 C 0.98402 0.24421 0.38211 0.0
C1818 C 0.99443 0.23442 0.37503 0.0
C1819 C 0.99078 0.22828 0.36214 0.0
C1820 C 0.97679 0.23194 0.35617 0.0
C1821 C 0.96644 0.24178 0.36305 0.0
C1822 C 0.97003 0.24794 0.37596 0.0
C1823 C 1.00534 0.31385 0.41403 0.0
C1824 C 0.99216 0.32269 0.41127 0.0
C1825 C 1.0053 0.29797 0.41309 0.0
C1826 C 0.99204 0.29054 0.40951 0.0
C1827 C 0.97897 0.29935 0.40638 0.0
C1828 C 0.97902 0.31526 0.40726 0.0
C1829 C 0.99173 0.27356 0.40929 0.0
C1830 C 0.98752 0.26667 0.39685 0.0
C1831 C 0.996 0.26417 0.42114 0.0
C1832 C 0.99975 0.27064 0.43488 0.0
C1833 C 0.9893 0.28037 0.44199 0.0
C1834 C 0.99298 0.28657 0.45485 0.0
C1835 C 1.00703 0.28302 0.46075 0.0
C1836 C 0.01741 0.27323 0.45384 0.0
C1837 C 0.01379 0.26702 0.44097 0.0
H1838 H 0.00986 0.28783 0.47071 0.0
H1839 H 0.97399 0.22718 0.34618 0.0
loop_
_geom_bond_atom_site_label_1
_geom_bond_atom_site_label_2
_geom_bond_distance
_geom_bond_site_symmetry_2
_ccdc_geom_bond_type
C0 C1 1.264 . S
C0 C5 1.479 1_545 S
C0 C10 1.465 . S
C1 C0 1.264 . S
C1 C3 1.339 1_545 S
C1 H28 0.931 . S
C2 C3 1.395 . S
C2 C4 1.320 . S
C3 C1 1.339 1_565 S
C3 C2 1.395 . S
C3 H29 0.929 1_565 S
C4 C2 1.320 . S
C4 C5 1.405 . S
C4 H30 0.930 . S
C5 C0 1.479 1_565 S
C5 C4 1.405 . S
C5 H31 0.931 . S
U6 O7 2.441 1_545 S
U6 O8 2.458 . S
U6 C9 3.004 . S
U6 C10 2.847 . S
U6 C23 2.882 . S
U6 O24 2.441 . S
U6 O25 2.420 . S
U6 O26 2.455 . S
U6 O27 2.449 . S
O7 U6 2.441 1_565 S
O7 C9 1.350 1_565 S
O8 U6 2.458 . S
O8 C9 1.306 . S
C9 U6 3.004 . S
C9 O7 1.350 1_545 S
C9 O8 1.306 . S
C9 C11 1.348 1_545 S
C10 C0 1.465 . S
C10 U6 2.847 . S
C10 O24 1.249 . S
C10 O25 1.202 . S
C11 C9 1.348 1_565 S
C11 C13 1.408 . S
C11 C16 1.342 . S
C12 C13 1.310 . S
C12 C15 1.461 . S
C12 H32 0.932 . S
C13 C11 1.408 . S
C13 C12 1.310 . S
C13 H33 0.930 . S
C14 C15 1.474 . S
C14 C16 1.285 . S
C14 H34 0.929 . S
C15 C12 1.461 . S
C15 C14 1.474 . S
C16 C11 1.342 . S
C16 C14 1.285 . S
C16 H35 0.932 . S
C17 C20 1.424 . S
C17 C22 1.245 . S
C17 C23 1.428 . S
C18 C21 1.260 . S
C18 C22 1.477 . S
C18 H36 0.932 . S
C19 C20 1.384 . S
C19 C21 1.479 . S
C19 H37 0.929 . S
C20 C17 1.424 . S
C20 C19 1.384 . S
C20 H38 0.928 . S
C21 C18 1.260 . S
C21 C19 1.479 . S
C22 C17 1.245 . S
C22 C18 1.477 . S
C22 H39 0.932 . S
C23 U6 2.882 . S
C23 C17 1.428 . S
C23 O26 1.301 . S
C23 O27 1.282 . S
O24 U6 2.441 . S
O24 C10 1.249 . S
O25 U6 2.420 . S
O25 C10 1.202 . S
O26 U6 2.455 . S
O26 C23 1.301 . S
O27 U6 2.449 . S
O27 C23 1.282 . S
H28 C1 0.931 . S
H29 C3 0.929 1_545 S
H30 C4 0.930 . S
H31 C5 0.931 . S
H32 C12 0.932 . S
H33 C13 0.930 . S
H34 C14 0.929 . S
H35 C16 0.932 . S
H36 C18 0.932 . S
H37 C19 0.929 . S
H38 C20 0.928 . S
H39 C22 0.932 . S
C40 C41 1.264 . S
C40 C45 1.479 . S
C40 C50 1.465 . S
C41 C40 1.264 . S
C41 C43 1.339 . S
C41 H68 0.931 . S
C42 C43 1.395 . S
C42 C44 1.320 . S
C43 C41 1.339 . S
C43 C42 1.395 . S
C43 H69 0.929 . S
C44 C42 1.320 . S
C44 C45 1.405 . S
C44 H70 0.930 . S
C45 C40 1.479 . S
C45 C44 1.405 . S
C45 H71 0.931 . S
U46 O47 2.454 . S
U46 O48 2.458 . S
U46 C49 2.984 . S
U46 C50 2.847 . S
U46 C63 2.882 . S
U46 O64 2.441 . S
U46 O65 2.420 . S
U46 O66 2.455 . S
U46 O67 2.449 . S
O47 U46 2.454 . S
O47 C49 1.353 . S
O48 U46 2.458 . S
O48 C49 1.286 . S
C49 U46 2.984 . S
C49 O47 1.353 . S
C49 O48 1.286 . S
C49 C51 1.363 . S
C50 C40 1.465 . S
C50 U46 2.847 . S
C50 O64 1.249 . S
C50 O65 1.202 . S
C51 C49 1.363 . S
C51 C53 1.408 . S
C51 C56 1.342 . S
C52 C53 1.310 . S
C52 C55 1.461 . S
C52 H72 0.932 . S
C53 C51 1.408 . S
C53 C52 1.310 . S
C53 H73 0.930 . S
C54 C55 1.474 . S
C54 C56 1.285 . S
C54 H74 0.929 . S
C55 C52 1.461 . S
C55 C54 1.474 . S
C56 C51 1.342 . S
C56 C54 1.285 . S
C56 H75 0.930 . S
C57 C60 1.424 . S
C57 C62 1.245 . S
C57 C63 1.428 . S
C58 C61 1.260 . S
C58 C62 1.477 . S
C58 H76 0.932 . S
C59 C60 1.384 . S
C59 C61 1.479 . S
C59 H77 0.929 . S
C60 C57 1.424 . S
C60 C59 1.384 . S
C60 H78 0.928 . S
C61 C58 1.260 . S
C61 C59 1.479 . S
C62 C57 1.245 . S
C62 C58 1.477 . S
C62 H79 0.932 . S
C63 U46 2.882 . S
C63 C57 1.428 . S
C63 O66 1.301 . S
C63 O67 1.282 . S
O64 U46 2.441 . S
O64 C50 1.249 . S
O65 U46 2.420 . S
O65 C50 1.202 . S
O66 U46 2.455 . S
O66 C63 1.301 . S
O67 U46 2.449 . S
O67 C63 1.282 . S
H68 C41 0.931 . S
H69 C43 0.929 . S
H70 C44 0.930 . S
H71 C45 0.931 . S
H72 C52 0.932 . S
H73 C53 0.930 . S
H74 C54 0.929 . S
H75 C56 0.930 . S
H76 C58 0.932 . S
H77 C59 0.929 . S
H78 C60 0.928 . S
H79 C62 0.932 . S
C80 C81 1.264 . S
C80 C85 1.479 . S
C80 C90 1.465 . S
C81 C80 1.264 . S
C81 C83 1.339 . S
C81 H108 0.931 . S
C82 C83 1.395 . S
C82 C84 1.320 . S
C83 C81 1.339 . S
C83 C82 1.395 . S
C83 H109 0.929 . S
C84 C82 1.320 . S
C84 C85 1.405 . S
C84 H110 0.930 . S
C85 C80 1.479 . S
C85 C84 1.405 . S
C85 H111 0.931 . S
U86 O87 2.454 . S
U86 O88 2.458 . S
U86 C89 2.984 . S
U86 C90 2.847 . S
U86 C103 2.882 . S
U86 O104 2.441 . S
U86 O105 2.420 . S
U86 O106 2.455 . S
U86 O107 2.449 . S
O87 U86 2.454 . S
O87 C89 1.353 . S
O88 U86 2.458 . S
O88 C89 1.286 . S
C89 U86 2.984 . S
C89 O87 1.353 . S
C89 O88 1.286 . S
C89 C91 1.363 . S
C90 C80 1.465 . S
C90 U86 2.847 . S
C90 O104 1.249 . S
C90 O105 1.202 . S
C91 C89 1.363 . S
C91 C93 1.408 . S
C91 C96 1.342 . S
C92 C93 1.310 . S
C92 C95 1.461 . S
C92 H112 0.932 . S
C93 C91 1.408 . S
C93 C92 1.310 . S
C93 H113 0.930 . S
C94 C95 1.474 . S
C94 C96 1.285 . S
C94 H114 0.929 . S
C95 C92 1.461 . S
C95 C94 1.474 . S
C96 C91 1.342 . S
C96 C94 1.285 . S
C96 H115 0.930 . S
C97 C100 1.424 . S
C97 C102 1.245 . S
C97 C103 1.428 . S
C98 C101 1.260 . S
C98 C102 1.477 . S
C98 H116 0.932 . S
C99 C100 1.384 . S
C99 C101 1.479 . S
C99 H117 0.929 . S
C100 C97 1.424 . S
C100 C99 1.384 . S
C100 H118 0.928 . S
C101 C98 1.260 . S
C101 C99 1.479 . S
C102 C97 1.245 . S
C102 C98 1.477 . S
C102 H119 0.932 . S
C103 U86 2.882 . S
C103 C97 1.428 . S
C103 O106 1.301 . S
C103 O107 1.282 . S
O104 U86 2.441 . S
O104 C90 1.249 . S
O105 U86 2.420 . S
O105 C90 1.202 . S
O106 U86 2.455 . S
O106 C103 1.301 . S
O107 U86 2.449 . S
O107 C103 1.282 . S
H108 C81 0.931 . S
H109 C83 0.929 . S
H110 C84 0.930 . S
H111 C85 0.931 . S
H112 C92 0.932 . S
H113 C93 0.930 . S
H114 C94 0.929 . S
H115 C96 0.930 . S
H116 C98 0.932 . S
H117 C99 0.929 . S
H118 C100 0.928 . S
H119 C102 0.932 . S
C120 C121 1.264 . S
C120 C125 1.479 1_455 S
C120 C130 1.465 . S
C121 C120 1.264 . S
C121 C123 1.334 1_455 S
C121 H148 0.931 . S
C122 C123 1.402 . S
C122 C124 1.320 . S
C123 C121 1.334 1_655 S
C123 C122 1.402 . S
C123 H149 0.925 1_655 S
C124 C122 1.320 . S
C124 C125 1.405 . S
C124 H150 0.930 . S
C125 C120 1.479 1_655 S
C125 C124 1.405 . S
C125 H151 0.931 . S
U126 O127 2.436 1_455 S
U126 O128 2.458 . S
U126 C129 2.999 . S
U126 C130 2.847 . S
U126 C143 2.882 . S
U126 O144 2.441 . S
U126 O145 2.420 . S
U126 O146 2.455 . S
U126 O147 2.449 . S
O127 U126 2.436 1_655 S
O127 C129 1.346 1_655 S
O128 U126 2.458 . S
O128 C129 1.304 . S
C129 U126 2.999 . S
C129 O127 1.346 1_455 S
C129 O128 1.304 . S
C129 C131 1.352 1_455 S
C130 C120 1.465 . S
C130 U126 2.847 . S
C130 O144 1.249 . S
C130 O145 1.202 . S
C131 C129 1.352 1_655 S
C131 C133 1.408 . S
C131 C136 1.342 . S
C132 C133 1.310 . S
C132 C135 1.461 . S
C132 H152 0.932 . S
C133 C131 1.408 . S
C133 C132 1.310 . S
C133 H153 0.930 . S
C134 C135 1.474 . S
C134 C136 1.285 . S
C134 H154 0.929 . S
C135 C132 1.461 . S
C135 C134 1.474 . S
C136 C131 1.342 . S
C136 C134 1.285 . S
C136 H155 0.933 . S
C137 C140 1.424 . S
C137 C142 1.245 . S
C137 C143 1.428 . S
C138 C141 1.260 . S
C138 C142 1.477 . S
C138 H156 0.932 . S
C139 C140 1.384 . S
C139 C141 1.479 . S
C139 H157 0.929 . S
C140 C137 1.424 . S
C140 C139 1.384 . S
C140 H158 0.928 . S
C141 C138 1.260 . S
C141 C139 1.479 . S
C142 C137 1.245 . S
C142 C138 1.477 . S
C142 H159 0.932 . S
C143 U126 2.882 . S
C143 C137 1.428 . S
C143 O146 1.301 . S
C143 O147 1.282 . S
O144 U126 2.441 . S
O144 C130 1.249 . S
O145 U126 2.420 . S
O145 C130 1.202 . S
O146 U126 2.455 . S
O146 C143 1.301 . S
O147 U126 2.449 . S
O147 C143 1.282 . S
H148 C121 0.931 . S
H149 C123 0.925 1_455 S
H150 C124 0.930 . S
H151 C125 0.931 . S
H152 C132 0.932 . S
H153 C133 0.930 . S
H154 C134 0.929 . S
H155 C136 0.933 . S
H156 C138 0.932 . S
H157 C139 0.929 . S
H158 C140 0.928 . S
H159 C142 0.932 . S
C160 C161 1.264 . S
C160 C165 1.479 1_565 S
C160 C170 1.465 . S
C161 C160 1.264 . S
C161 C163 1.334 1_565 S
C161 H188 0.931 . S
C162 C163 1.402 . S
C162 C164 1.320 . S
C163 C161 1.334 1_545 S
C163 C162 1.402 . S
C163 H189 0.925 1_545 S
C164 C162 1.320 . S
C164 C165 1.405 . S
C164 H190 0.930 . S
C165 C160 1.479 1_545 S
C165 C164 1.405 . S
C165 H191 0.931 . S
U166 O167 2.436 1_565 S
U166 O168 2.458 . S
U166 C169 2.999 . S
U166 C170 2.847 . S
U166 C183 2.882 . S
U166 O184 2.441 . S
U166 O185 2.420 . S
U166 O186 2.455 . S
U166 O187 2.449 . S
O167 U166 2.436 1_545 S
O167 C169 1.346 1_545 S
O168 U166 2.458 . S
O168 C169 1.304 . S
C169 U166 2.999 . S
C169 O167 1.346 1_565 S
C169 O168 1.304 . S
C169 C171 1.352 1_565 S
C170 C160 1.465 . S
C170 U166 2.847 . S
C170 O184 1.249 . S
C170 O185 1.202 . S
C171 C169 1.352 1_545 S
C171 C173 1.408 . S
C171 C176 1.342 . S
C172 C173 1.310 . S
C172 C175 1.461 . S
C172 H192 0.932 . S
C173 C171 1.408 . S
C173 C172 1.310 . S
C173 H193 0.930 . S
C174 C175 1.474 . S
C174 C176 1.285 . S
C174 H194 0.929 . S
C175 C172 1.461 . S
C175 C174 1.474 . S
C176 C171 1.342 . S
C176 C174 1.285 . S
C176 H195 0.933 . S
C177 C180 1.424 . S
C177 C182 1.245 . S
C177 C183 1.428 . S
C178 C181 1.260 . S
C178 C182 1.477 . S
C178 H196 0.932 . S
C179 C180 1.384 . S
C179 C181 1.479 . S
C179 H197 0.929 . S
C180 C177 1.424 . S
C180 C179 1.384 . S
C180 H198 0.928 . S
C181 C178 1.260 . S
C181 C179 1.479 . S
C182 C177 1.245 . S
C182 C178 1.477 . S
C182 H199 0.932 . S
C183 U166 2.882 . S
C183 C177 1.428 . S
C183 O186 1.301 . S
C183 O187 1.282 . S
O184 U166 2.441 . S
O184 C170 1.249 . S
O185 U166 2.420 . S
O185 C170 1.202 . S
O186 U166 2.455 . S
O186 C183 1.301 . S
O187 U166 2.449 . S
O187 C183 1.282 . S
H188 C161 0.931 . S
H189 C163 0.925 1_565 S
H190 C164 0.930 . S
H191 C165 0.931 . S
H192 C172 0.932 . S
H193 C173 0.930 . S
H194 C174 0.929 . S
H195 C176 0.933 . S
H196 C178 0.932 . S
H197 C179 0.929 . S
H198 C180 0.928 . S
H199 C182 0.932 . S
C200 C201 1.264 . S
C200 C205 1.479 . S
C200 C210 1.465 . S
C201 C200 1.264 . S
C201 C203 1.339 . S
C201 H228 0.931 . S
C202 C203 1.395 . S
C202 C204 1.320 . S
C203 C201 1.339 . S
C203 C202 1.395 . S
C203 H229 0.929 . S
C204 C202 1.320 . S
C204 C205 1.405 . S
C204 H230 0.930 . S
C205 C200 1.479 . S
C205 C204 1.405 . S
C205 H231 0.931 . S
U206 O207 2.454 . S
U206 O208 2.458 . S
U206 C209 2.984 . S
U206 C210 2.847 . S
U206 C223 2.882 . S
U206 O224 2.441 . S
U206 O225 2.420 . S
U206 O226 2.455 . S
U206 O227 2.449 . S
O207 U206 2.454 . S
O207 C209 1.353 . S
O208 U206 2.458 . S
O208 C209 1.286 . S
C209 U206 2.984 . S
C209 O207 1.353 . S
C209 O208 1.286 . S
C209 C211 1.363 . S
C210 C200 1.465 . S
C210 U206 2.847 . S
C210 O224 1.249 . S
C210 O225 1.202 . S
C211 C209 1.363 . S
C211 C213 1.408 . S
C211 C216 1.342 . S
C212 C213 1.310 . S
C212 C215 1.461 . S
C212 H232 0.932 . S
C213 C211 1.408 . S
C213 C212 1.310 . S
C213 H233 0.930 . S
C214 C215 1.474 . S
C214 C216 1.285 . S
C214 H234 0.929 . S
C215 C212 1.461 . S
C215 C214 1.474 . S
C216 C211 1.342 . S
C216 C214 1.285 . S
C216 H235 0.930 . S
C217 C220 1.424 . S
C217 C222 1.245 . S
C217 C223 1.428 . S
C218 C221 1.260 . S
C218 C222 1.477 . S
C218 H236 0.932 . S
C219 C220 1.384 . S
C219 C221 1.479 . S
C219 H237 0.929 . S
C220 C217 1.424 . S
C220 C219 1.384 . S
C220 H238 0.928 . S
C221 C218 1.260 . S
C221 C219 1.479 . S
C222 C217 1.245 . S
C222 C218 1.477 . S
C222 H239 0.932 . S
C223 U206 2.882 . S
C223 C217 1.428 . S
C223 O226 1.301 . S
C223 O227 1.282 . S
O224 U206 2.441 . S
O224 C210 1.249 . S
O225 U206 2.420 . S
O225 C210 1.202 . S
O226 U206 2.455 . S
O226 C223 1.301 . S
O227 U206 2.449 . S
O227 C223 1.282 . S
H228 C201 0.931 . S
H229 C203 0.929 . S
H230 C204 0.930 . S
H231 C205 0.931 . S
H232 C212 0.932 . S
H233 C213 0.930 . S
H234 C214 0.929 . S
H235 C216 0.930 . S
H236 C218 0.932 . S
H237 C219 0.929 . S
H238 C220 0.928 . S
H239 C222 0.932 . S
C240 C241 1.264 . S
C240 C245 1.479 . S
C240 C250 1.465 . S
C241 C240 1.264 . S
C241 C243 1.339 . S
C241 H268 0.931 . S
C242 C243 1.395 . S
C242 C244 1.320 . S
C243 C241 1.339 . S
C243 C242 1.395 . S
C243 H269 0.929 . S
C244 C242 1.320 . S
C244 C245 1.405 . S
C244 H270 0.930 . S
C245 C240 1.479 . S
C245 C244 1.405 . S
C245 H271 0.931 . S
U246 O247 2.454 . S
U246 O248 2.458 . S
U246 C249 2.984 . S
U246 C250 2.847 . S
U246 C263 2.882 . S
U246 O264 2.441 . S
U246 O265 2.420 . S
U246 O266 2.455 . S
U246 O267 2.449 . S
O247 U246 2.454 . S
O247 C249 1.353 . S
O248 U246 2.458 . S
O248 C249 1.286 . S
C249 U246 2.984 . S
C249 O247 1.353 . S
C249 O248 1.286 . S
C249 C251 1.363 . S
C250 C240 1.465 . S
C250 U246 2.847 . S
C250 O264 1.249 . S
C250 O265 1.202 . S
C251 C249 1.363 . S
C251 C253 1.408 . S
C251 C256 1.342 . S
C252 C253 1.310 . S
C252 C255 1.461 . S
C252 H272 0.932 . S
C253 C251 1.408 . S
C253 C252 1.310 . S
C253 H273 0.930 . S
C254 C255 1.474 . S
C254 C256 1.285 . S
C254 H274 0.929 . S
C255 C252 1.461 . S
C255 C254 1.474 . S
C256 C251 1.342 . S
C256 C254 1.285 . S
C256 H275 0.930 . S
C257 C260 1.424 . S
C257 C262 1.245 . S
C257 C263 1.428 . S
C258 C261 1.260 . S
C258 C262 1.477 . S
C258 H276 0.932 . S
C259 C260 1.384 . S
C259 C261 1.479 . S
C259 H277 0.929 . S
C260 C257 1.424 . S
C260 C259 1.384 . S
C260 H278 0.928 . S
C261 C258 1.260 . S
C261 C259 1.479 . S
C262 C257 1.245 . S
C262 C258 1.477 . S
C262 H279 0.932 . S
C263 U246 2.882 . S
C263 C257 1.428 . S
C263 O266 1.301 . S
C263 O267 1.282 . S
O264 U246 2.441 . S
O264 C250 1.249 . S
O265 U246 2.420 . S
O265 C250 1.202 . S
O266 U246 2.455 . S
O266 C263 1.301 . S
O267 U246 2.449 . S
O267 C263 1.282 . S
H268 C241 0.931 . S
H269 C243 0.929 . S
H270 C244 0.930 . S
H271 C245 0.931 . S
H272 C252 0.932 . S
H273 C253 0.930 . S
H274 C254 0.929 . S
H275 C256 0.930 . S
H276 C258 0.932 . S
H277 C259 0.929 . S
H278 C260 0.928 . S
H279 C262 0.932 . S
C280 C281 1.264 . S
C280 C285 1.479 1_655 S
C280 C290 1.465 . S
C281 C280 1.264 . S
C281 C283 1.339 1_655 S
C281 H308 0.931 . S
C282 C283 1.395 . S
C282 C284 1.320 . S
C283 C281 1.339 1_455 S
C283 C282 1.395 . S
C283 H309 0.929 1_455 S
C284 C282 1.320 . S
C284 C285 1.405 . S
C284 H310 0.930 . S
C285 C280 1.479 1_455 S
C285 C284 1.405 . S
C285 H311 0.931 . S
U286 O287 2.441 1_655 S
U286 O288 2.458 . S
U286 C289 3.004 . S
U286 C290 2.847 . S
U286 C303 2.882 . S
U286 O304 2.441 . S
U286 O305 2.420 . S
U286 O306 2.455 . S
U286 O307 2.449 . S
O287 U286 2.441 1_455 S
O287 C289 1.350 1_455 S
O288 U286 2.458 . S
O288 C289 1.306 . S
C289 U286 3.004 . S
C289 O287 1.350 1_655 S
C289 O288 1.306 . S
C289 C291 1.348 1_655 S
C290 C280 1.465 . S
C290 U286 2.847 . S
C290 O304 1.249 . S
C290 O305 1.202 . S
C291 C289 1.348 1_455 S
C291 C293 1.408 . S
C291 C296 1.342 . S
C292 C293 1.310 . S
C292 C295 1.461 . S
C292 H312 0.932 . S
C293 C291 1.408 . S
C293 C292 1.310 . S
C293 H313 0.930 . S
C294 C295 1.474 . S
C294 C296 1.285 . S
C294 H314 0.929 . S
C295 C292 1.461 . S
C295 C294 1.474 . S
C296 C291 1.342 . S
C296 C294 1.285 . S
C296 H315 0.932 . S
C297 C300 1.424 . S
C297 C302 1.245 . S
C297 C303 1.428 . S
C298 C301 1.260 . S
C298 C302 1.477 . S
C298 H316 0.932 . S
C299 C300 1.384 . S
C299 C301 1.479 . S
C299 H317 0.929 . S
C300 C297 1.424 . S
C300 C299 1.384 . S
C300 H318 0.928 . S
C301 C298 1.260 . S
C301 C299 1.479 . S
C302 C297 1.245 . S
C302 C298 1.477 . S
C302 H319 0.932 . S
C303 U286 2.882 . S
C303 C297 1.428 . S
C303 O306 1.301 . S
C303 O307 1.282 . S
O304 U286 2.441 . S
O304 C290 1.249 . S
O305 U286 2.420 . S
O305 C290 1.202 . S
O306 U286 2.455 . S
O306 C303 1.301 . S
O307 U286 2.449 . S
O307 C303 1.282 . S
H308 C281 0.931 . S
H309 C283 0.929 1_655 S
H310 C284 0.930 . S
H311 C285 0.931 . S
H312 C292 0.932 . S
H313 C293 0.930 . S
H314 C294 0.929 . S
H315 C296 0.932 . S
H316 C298 0.932 . S
H317 C299 0.929 . S
H318 C300 0.928 . S
H319 C302 0.932 . S
C320 C321 1.264 . S
C320 C325 1.479 . S
C320 C330 1.465 . S
C321 C320 1.264 . S
C321 C323 1.339 . S
C321 H348 0.931 . S
C322 C323 1.395 . S
C322 C324 1.320 . S
C323 C321 1.339 . S
C323 C322 1.395 . S
C323 H349 0.929 . S
C324 C322 1.320 . S
C324 C325 1.405 . S
C324 H350 0.930 . S
C325 C320 1.479 . S
C325 C324 1.405 . S
C325 H351 0.931 . S
U326 O327 2.454 . S
U326 O328 2.458 . S
U326 C329 2.984 . S
U326 C330 2.847 . S
U326 C343 2.882 . S
U326 O344 2.441 . S
U326 O345 2.420 . S
U326 O346 2.455 . S
U326 O347 2.449 . S
O327 U326 2.454 . S
O327 C329 1.353 . S
O328 U326 2.458 . S
O328 C329 1.286 . S
C329 U326 2.984 . S
C329 O327 1.353 . S
C329 O328 1.286 . S
C329 C331 1.363 . S
C330 C320 1.465 . S
C330 U326 2.847 . S
C330 O344 1.249 . S
C330 O345 1.202 . S
C331 C329 1.363 . S
C331 C333 1.408 . S
C331 C336 1.342 . S
C332 C333 1.310 . S
C332 C335 1.461 . S
C332 H352 0.932 . S
C333 C331 1.408 . S
C333 C332 1.310 . S
C333 H353 0.930 . S
C334 C335 1.474 . S
C334 C336 1.285 . S
C334 H354 0.929 . S
C335 C332 1.461 . S
C335 C334 1.474 . S
C336 C331 1.342 . S
C336 C334 1.285 . S
C336 H355 0.930 . S
C337 C340 1.424 . S
C337 C342 1.245 . S
C337 C343 1.428 1_565 S
C338 C341 1.260 . S
C338 C342 1.477 . S
C338 H356 0.932 . S
C339 C340 1.384 . S
C339 C341 1.479 . S
C339 H357 0.929 . S
C340 C337 1.424 . S
C340 C339 1.384 . S
C340 H358 0.928 . S
C341 C338 1.260 . S
C341 C339 1.479 . S
C342 C337 1.245 . S
C342 C338 1.477 . S
C342 H359 0.932 . S
C343 U326 2.882 . S
C343 C337 1.428 1_545 S
C343 O346 1.301 . S
C343 O347 1.282 . S
O344 U326 2.441 . S
O344 C330 1.249 . S
O345 U326 2.420 . S
O345 C330 1.202 . S
O346 U326 2.455 . S
O346 C343 1.301 . S
O347 U326 2.449 . S
O347 C343 1.282 . S
H348 C321 0.931 . S
H349 C323 0.929 . S
H350 C324 0.930 . S
H351 C325 0.931 . S
H352 C332 0.932 . S
H353 C333 0.930 . S
H354 C334 0.929 . S
H355 C336 0.930 . S
H356 C338 0.932 . S
H357 C339 0.929 . S
H358 C340 0.928 . S
H359 C342 0.932 . S
C360 C361 1.264 . S
C360 C365 1.479 . S
C360 C370 1.465 . S
C361 C360 1.264 . S
C361 C363 1.339 . S
C361 H388 0.931 . S
C362 C363 1.395 . S
C362 C364 1.320 . S
C363 C361 1.339 . S
C363 C362 1.395 . S
C363 H389 0.929 . S
C364 C362 1.320 . S
C364 C365 1.405 . S
C364 H390 0.930 . S
C365 C360 1.479 . S
C365 C364 1.405 . S
C365 H391 0.931 . S
U366 O367 2.454 . S
U366 O368 2.458 . S
U366 C369 2.984 . S
U366 C370 2.847 . S
U366 C383 2.882 . S
U366 O384 2.441 . S
U366 O385 2.420 . S
U366 O386 2.455 . S
U366 O387 2.449 . S
O367 U366 2.454 . S
O367 C369 1.353 . S
O368 U366 2.458 . S
O368 C369 1.286 . S
C369 U366 2.984 . S
C369 O367 1.353 . S
C369 O368 1.286 . S
C369 C371 1.363 . S
C370 C360 1.465 . S
C370 U366 2.847 . S
C370 O384 1.249 . S
C370 O385 1.202 . S
C371 C369 1.363 . S
C371 C373 1.408 . S
C371 C376 1.342 . S
C372 C373 1.310 . S
C372 C375 1.461 . S
C372 H392 0.932 . S
C373 C371 1.408 . S
C373 C372 1.310 . S
C373 H393 0.930 . S
C374 C375 1.474 . S
C374 C376 1.285 . S
C374 H394 0.929 . S
C375 C372 1.461 . S
C375 C374 1.474 . S
C376 C371 1.342 . S
C376 C374 1.285 . S
C376 H395 0.930 . S
C377 C380 1.424 . S
C377 C382 1.245 . S
C377 C383 1.428 . S
C378 C381 1.260 . S
C378 C382 1.477 . S
C378 H396 0.932 . S
C379 C380 1.384 . S
C379 C381 1.479 . S
C379 H397 0.929 . S
C380 C377 1.424 . S
C380 C379 1.384 . S
C380 H398 0.928 . S
C381 C378 1.260 . S
C381 C379 1.479 . S
C382 C377 1.245 . S
C382 C378 1.477 . S
C382 H399 0.932 . S
C383 U366 2.882 . S
C383 C377 1.428 . S
C383 O386 1.301 . S
C383 O387 1.282 . S
O384 U366 2.441 . S
O384 C370 1.249 . S
O385 U366 2.420 . S
O385 C370 1.202 . S
O386 U366 2.455 . S
O386 C383 1.301 . S
O387 U366 2.449 . S
O387 C383 1.282 . S
H388 C361 0.931 . S
H389 C363 0.929 . S
H390 C364 0.930 . S
H391 C365 0.931 . S
H392 C372 0.932 . S
H393 C373 0.930 . S
H394 C374 0.929 . S
H395 C376 0.930 . S
H396 C378 0.932 . S
H397 C379 0.929 . S
H398 C380 0.928 . S
H399 C382 0.932 . S
C400 C401 1.264 . S
C400 C405 1.479 . S
C400 C410 1.465 . S
C401 C400 1.264 . S
C401 C403 1.339 . S
C401 H428 0.931 . S
C402 C403 1.395 . S
C402 C404 1.320 . S
C403 C401 1.339 . S
C403 C402 1.395 . S
C403 H429 0.929 . S
C404 C402 1.320 . S
C404 C405 1.405 . S
C404 H430 0.930 . S
C405 C400 1.479 . S
C405 C404 1.405 . S
C405 H431 0.931 . S
U406 O407 2.454 . S
U406 O408 2.458 . S
U406 C409 2.984 . S
U406 C410 2.847 . S
U406 C423 2.882 . S
U406 O424 2.441 . S
U406 O425 2.420 . S
U406 O426 2.455 . S
U406 O427 2.449 . S
O407 U406 2.454 . S
O407 C409 1.353 . S
O408 U406 2.458 . S
O408 C409 1.286 . S
C409 U406 2.984 . S
C409 O407 1.353 . S
C409 O408 1.286 . S
C409 C411 1.363 . S
C410 C400 1.465 . S
C410 U406 2.847 . S
C410 O424 1.249 . S
C410 O425 1.202 . S
C411 C409 1.363 . S
C411 C413 1.408 . S
C411 C416 1.342 . S
C412 C413 1.310 . S
C412 C415 1.461 . S
C412 H432 0.932 . S
C413 C411 1.408 . S
C413 C412 1.310 . S
C413 H433 0.930 . S
C414 C415 1.474 . S
C414 C416 1.285 . S
C414 H434 0.929 . S
C415 C412 1.461 . S
C415 C414 1.474 . S
C416 C411 1.342 . S
C416 C414 1.285 . S
C416 H435 0.930 . S
C417 C420 1.424 . S
C417 C422 1.245 . S
C417 C423 1.428 . S
C418 C421 1.260 . S
C418 C422 1.477 . S
C418 H436 0.932 . S
C419 C420 1.384 . S
C419 C421 1.479 . S
C419 H437 0.929 . S
C420 C417 1.424 . S
C420 C419 1.384 . S
C420 H438 0.928 . S
C421 C418 1.260 . S
C421 C419 1.479 . S
C422 C417 1.245 . S
C422 C418 1.477 . S
C422 H439 0.932 . S
C423 U406 2.882 . S
C423 C417 1.428 . S
C423 O426 1.301 . S
C423 O427 1.282 . S
O424 U406 2.441 . S
O424 C410 1.249 . S
O425 U406 2.420 . S
O425 C410 1.202 . S
O426 U406 2.455 . S
O426 C423 1.301 . S
O427 U406 2.449 . S
O427 C423 1.282 . S
H428 C401 0.931 . S
H429 C403 0.929 . S
H430 C404 0.930 . S
H431 C405 0.931 . S
H432 C412 0.932 . S
H433 C413 0.930 . S
H434 C414 0.929 . S
H435 C416 0.930 . S
H436 C418 0.932 . S
H437 C419 0.929 . S
H438 C420 0.928 . S
H439 C422 0.932 . S
C440 C441 1.264 . S
C440 C445 1.479 . S
C440 C450 1.465 . S
C441 C440 1.264 . S
C441 C443 1.339 . S
C441 H468 0.931 . S
C442 C443 1.395 . S
C442 C444 1.320 . S
C443 C441 1.339 . S
C443 C442 1.395 . S
C443 H469 0.929 . S
C444 C442 1.320 . S
C444 C445 1.405 . S
C444 H470 0.930 . S
C445 C440 1.479 . S
C445 C444 1.405 . S
C445 H471 0.931 . S
U446 O447 2.454 . S
U446 O448 2.458 . S
U446 C449 2.984 . S
U446 C450 2.847 . S
U446 C463 2.882 . S
U446 O464 2.441 . S
U446 O465 2.420 . S
U446 O466 2.455 . S
U446 O467 2.449 . S
O447 U446 2.454 . S
O447 C449 1.353 . S
O448 U446 2.458 . S
O448 C449 1.286 . S
C449 U446 2.984 . S
C449 O447 1.353 . S
C449 O448 1.286 . S
C449 C451 1.363 . S
C450 C440 1.465 . S
C450 U446 2.847 . S
C450 O464 1.249 . S
C450 O465 1.202 . S
C451 C449 1.363 . S
C451 C453 1.408 . S
C451 C456 1.342 . S
C452 C453 1.310 . S
C452 C455 1.461 . S
C452 H472 0.932 . S
C453 C451 1.408 . S
C453 C452 1.310 . S
C453 H473 0.930 . S
C454 C455 1.474 . S
C454 C456 1.285 . S
C454 H474 0.929 . S
C455 C452 1.461 . S
C455 C454 1.474 . S
C456 C451 1.342 . S
C456 C454 1.285 . S
C456 H475 0.930 . S
C457 C460 1.424 . S
C457 C462 1.245 . S
C457 C463 1.428 1_655 S
C458 C461 1.260 . S
C458 C462 1.477 . S
C458 H476 0.932 . S
C459 C460 1.384 . S
C459 C461 1.479 . S
C459 H477 0.929 . S
C460 C457 1.424 . S
C460 C459 1.384 . S
C460 H478 0.928 . S
C461 C458 1.260 . S
C461 C459 1.479 . S
C462 C457 1.245 . S
C462 C458 1.477 . S
C462 H479 0.932 . S
C463 U446 2.882 . S
C463 C457 1.428 1_455 S
C463 O466 1.301 . S
C463 O467 1.282 . S
O464 U446 2.441 . S
O464 C450 1.249 . S
O465 U446 2.420 . S
O465 C450 1.202 . S
O466 U446 2.455 . S
O466 C463 1.301 . S
O467 U446 2.449 . S
O467 C463 1.282 . S
H468 C441 0.931 . S
H469 C443 0.929 . S
H470 C444 0.930 . S
H471 C445 0.931 . S
H472 C452 0.932 . S
H473 C453 0.930 . S
H474 C454 0.929 . S
H475 C456 0.930 . S
H476 C458 0.932 . S
H477 C459 0.929 . S
H478 C460 0.928 . S
H479 C462 0.932 . S
C480 C481 1.264 . S
C480 C485 1.479 . S
C480 C490 1.465 . S
C481 C480 1.264 . S
C481 C483 1.339 . S
C481 H508 0.931 . S
C482 C483 1.395 . S
C482 C484 1.320 . S
C483 C481 1.339 . S
C483 C482 1.395 . S
C483 H509 0.929 . S
C484 C482 1.320 . S
C484 C485 1.405 . S
C484 H510 0.930 . S
C485 C480 1.479 . S
C485 C484 1.405 . S
C485 H511 0.931 . S
U486 O487 2.454 . S
U486 O488 2.458 . S
U486 C489 2.984 . S
U486 C490 2.847 . S
U486 C503 2.882 . S
U486 O504 2.441 . S
U486 O505 2.420 . S
U486 O506 2.455 . S
U486 O507 2.449 . S
O487 U486 2.454 . S
O487 C489 1.353 . S
O488 U486 2.458 . S
O488 C489 1.286 . S
C489 U486 2.984 . S
C489 O487 1.353 . S
C489 O488 1.286 . S
C489 C491 1.363 . S
C490 C480 1.465 . S
C490 U486 2.847 . S
C490 O504 1.249 . S
C490 O505 1.202 . S
C491 C489 1.363 . S
C491 C493 1.408 . S
C491 C496 1.342 . S
C492 C493 1.310 . S
C492 C495 1.461 . S
C492 H512 0.932 . S
C493 C491 1.408 . S
C493 C492 1.310 . S
C493 H513 0.930 . S
C494 C495 1.474 . S
C494 C496 1.285 . S
C494 H514 0.929 . S
C495 C492 1.461 . S
C495 C494 1.474 . S
C496 C491 1.342 . S
C496 C494 1.285 . S
C496 H515 0.930 . S
C497 C500 1.424 . S
C497 C502 1.245 . S
C497 C503 1.428 1_545 S
C498 C501 1.260 . S
C498 C502 1.477 . S
C498 H516 0.932 . S
C499 C500 1.384 . S
C499 C501 1.479 . S
C499 H517 0.929 . S
C500 C497 1.424 . S
C500 C499 1.384 . S
C500 H518 0.928 . S
C501 C498 1.260 . S
C501 C499 1.479 . S
C502 C497 1.245 . S
C502 C498 1.477 . S
C502 H519 0.932 . S
C503 U486 2.882 . S
C503 C497 1.428 1_565 S
C503 O506 1.301 . S
C503 O507 1.282 . S
O504 U486 2.441 . S
O504 C490 1.249 . S
O505 U486 2.420 . S
O505 C490 1.202 . S
O506 U486 2.455 . S
O506 C503 1.301 . S
O507 U486 2.449 . S
O507 C503 1.282 . S
H508 C481 0.931 . S
H509 C483 0.929 . S
H510 C484 0.930 . S
H511 C485 0.931 . S
H512 C492 0.932 . S
H513 C493 0.930 . S
H514 C494 0.929 . S
H515 C496 0.930 . S
H516 C498 0.932 . S
H517 C499 0.929 . S
H518 C500 0.928 . S
H519 C502 0.932 . S
C520 C521 1.264 . S
C520 C525 1.479 . S
C520 C530 1.465 . S
C521 C520 1.264 . S
C521 C523 1.339 . S
C521 H548 0.931 . S
C522 C523 1.395 . S
C522 C524 1.320 . S
C523 C521 1.339 . S
C523 C522 1.395 . S
C523 H549 0.929 . S
C524 C522 1.320 . S
C524 C525 1.405 . S
C524 H550 0.930 . S
C525 C520 1.479 . S
C525 C524 1.405 . S
C525 H551 0.931 . S
U526 O527 2.454 . S
U526 O528 2.458 . S
U526 C529 2.984 . S
U526 C530 2.847 . S
U526 C543 2.882 . S
U526 O544 2.441 . S
U526 O545 2.420 . S
U526 O546 2.455 . S
U526 O547 2.449 . S
O527 U526 2.454 . S
O527 C529 1.353 . S
O528 U526 2.458 . S
O528 C529 1.286 . S
C529 U526 2.984 . S
C529 O527 1.353 . S
C529 O528 1.286 . S
C529 C531 1.363 . S
C530 C520 1.465 . S
C530 U526 2.847 . S
C530 O544 1.249 . S
C530 O545 1.202 . S
C531 C529 1.363 . S
C531 C533 1.408 . S
C531 C536 1.342 . S
C532 C533 1.310 . S
C532 C535 1.461 . S
C532 H552 0.932 . S
C533 C531 1.408 . S
C533 C532 1.310 . S
C533 H553 0.930 . S
C534 C535 1.474 . S
C534 C536 1.285 . S
C534 H554 0.929 . S
C535 C532 1.461 . S
C535 C534 1.474 . S
C536 C531 1.342 . S
C536 C534 1.285 . S
C536 H555 0.930 . S
C537 C540 1.424 . S
C537 C542 1.245 . S
C537 C543 1.428 . S
C538 C541 1.260 . S
C538 C542 1.477 . S
C538 H556 0.932 . S
C539 C540 1.384 . S
C539 C541 1.479 . S
C539 H557 0.929 . S
C540 C537 1.424 . S
C540 C539 1.384 . S
C540 H558 0.928 . S
C541 C538 1.260 . S
C541 C539 1.479 . S
C542 C537 1.245 . S
C542 C538 1.477 . S
C542 H559 0.932 . S
C543 U526 2.882 . S
C543 C537 1.428 . S
C543 O546 1.301 . S
C543 O547 1.282 . S
O544 U526 2.441 . S
O544 C530 1.249 . S
O545 U526 2.420 . S
O545 C530 1.202 . S
O546 U526 2.455 . S
O546 C543 1.301 . S
O547 U526 2.449 . S
O547 C543 1.282 . S
H548 C521 0.931 . S
H549 C523 0.929 . S
H550 C524 0.930 . S
H551 C525 0.931 . S
H552 C532 0.932 . S
H553 C533 0.930 . S
H554 C534 0.929 . S
H555 C536 0.930 . S
H556 C538 0.932 . S
H557 C539 0.929 . S
H558 C540 0.928 . S
H559 C542 0.932 . S
C560 C561 1.264 . S
C560 C565 1.479 . S
C560 C570 1.465 . S
C561 C560 1.264 . S
C561 C563 1.339 . S
C561 H588 0.931 . S
C562 C563 1.395 . S
C562 C564 1.320 . S
C563 C561 1.339 . S
C563 C562 1.395 . S
C563 H589 0.929 . S
C564 C562 1.320 . S
C564 C565 1.405 . S
C564 H590 0.930 . S
C565 C560 1.479 . S
C565 C564 1.405 . S
C565 H591 0.931 . S
U566 O567 2.454 . S
U566 O568 2.458 . S
U566 C569 2.984 . S
U566 C570 2.847 . S
U566 C583 2.882 . S
U566 O584 2.441 . S
U566 O585 2.420 . S
U566 O586 2.455 . S
U566 O587 2.449 . S
O567 U566 2.454 . S
O567 C569 1.353 . S
O568 U566 2.458 . S
O568 C569 1.286 . S
C569 U566 2.984 . S
C569 O567 1.353 . S
C569 O568 1.286 . S
C569 C571 1.363 . S
C570 C560 1.465 . S
C570 U566 2.847 . S
C570 O584 1.249 . S
C570 O585 1.202 . S
C571 C569 1.363 . S
C571 C573 1.408 . S
C571 C576 1.342 . S
C572 C573 1.310 . S
C572 C575 1.461 . S
C572 H592 0.932 . S
C573 C571 1.408 . S
C573 C572 1.310 . S
C573 H593 0.930 . S
C574 C575 1.474 . S
C574 C576 1.285 . S
C574 H594 0.929 . S
C575 C572 1.461 . S
C575 C574 1.474 . S
C576 C571 1.342 . S
C576 C574 1.285 . S
C576 H595 0.930 . S
C577 C580 1.424 . S
C577 C582 1.245 . S
C577 C583 1.428 . S
C578 C581 1.260 . S
C578 C582 1.477 . S
C578 H596 0.932 . S
C579 C580 1.384 . S
C579 C581 1.479 . S
C579 H597 0.929 . S
C580 C577 1.424 . S
C580 C579 1.384 . S
C580 H598 0.928 . S
C581 C578 1.260 . S
C581 C579 1.479 . S
C582 C577 1.245 . S
C582 C578 1.477 . S
C582 H599 0.932 . S
C583 U566 2.882 . S
C583 C577 1.428 . S
C583 O586 1.301 . S
C583 O587 1.282 . S
O584 U566 2.441 . S
O584 C570 1.249 . S
O585 U566 2.420 . S
O585 C570 1.202 . S
O586 U566 2.455 . S
O586 C583 1.301 . S
O587 U566 2.449 . S
O587 C583 1.282 . S
H588 C561 0.931 . S
H589 C563 0.929 . S
H590 C564 0.930 . S
H591 C565 0.931 . S
H592 C572 0.932 . S
H593 C573 0.930 . S
H594 C574 0.929 . S
H595 C576 0.930 . S
H596 C578 0.932 . S
H597 C579 0.929 . S
H598 C580 0.928 . S
H599 C582 0.932 . S
C600 C601 1.264 . S
C600 C605 1.479 . S
C600 C610 1.465 . S
C601 C600 1.264 . S
C601 C603 1.339 . S
C601 H628 0.931 . S
C602 C603 1.395 . S
C602 C604 1.320 . S
C603 C601 1.339 . S
C603 C602 1.395 . S
C603 H629 0.929 . S
C604 C602 1.320 . S
C604 C605 1.405 . S
C604 H630 0.930 . S
C605 C600 1.479 . S
C605 C604 1.405 . S
C605 H631 0.931 . S
U606 O607 2.454 . S
U606 O608 2.458 . S
U606 C609 2.984 . S
U606 C610 2.847 . S
U606 C623 2.882 . S
U606 O624 2.441 . S
U606 O625 2.420 . S
U606 O626 2.455 . S
U606 O627 2.449 . S
O607 U606 2.454 . S
O607 C609 1.353 . S
O608 U606 2.458 . S
O608 C609 1.286 . S
C609 U606 2.984 . S
C609 O607 1.353 . S
C609 O608 1.286 . S
C609 C611 1.363 . S
C610 C600 1.465 . S
C610 U606 2.847 . S
C610 O624 1.249 . S
C610 O625 1.202 . S
C611 C609 1.363 . S
C611 C613 1.408 . S
C611 C616 1.342 . S
C612 C613 1.310 . S
C612 C615 1.461 . S
C612 H632 0.932 . S
C613 C611 1.408 . S
C613 C612 1.310 . S
C613 H633 0.930 . S
C614 C615 1.474 . S
C614 C616 1.285 . S
C614 H634 0.929 . S
C615 C612 1.461 . S
C615 C614 1.474 . S
C616 C611 1.342 . S
C616 C614 1.285 . S
C616 H635 0.930 . S
C617 C620 1.424 . S
C617 C622 1.245 . S
C617 C623 1.428 1_455 S
C618 C621 1.260 . S
C618 C622 1.477 . S
C618 H636 0.932 . S
C619 C620 1.384 . S
C619 C621 1.479 . S
C619 H637 0.929 . S
C620 C617 1.424 . S
C620 C619 1.384 . S
C620 H638 0.928 . S
C621 C618 1.260 . S
C621 C619 1.479 . S
C622 C617 1.245 . S
C622 C618 1.477 . S
C622 H639 0.932 . S
C623 U606 2.882 . S
C623 C617 1.428 1_655 S
C623 O626 1.301 . S
C623 O627 1.282 . S
O624 U606 2.441 . S
O624 C610 1.249 . S
O625 U606 2.420 . S
O625 C610 1.202 . S
O626 U606 2.455 . S
O626 C623 1.301 . S
O627 U606 2.449 . S
O627 C623 1.282 . S
H628 C601 0.931 . S
H629 C603 0.929 . S
H630 C604 0.930 . S
H631 C605 0.931 . S
H632 C612 0.932 . S
H633 C613 0.930 . S
H634 C614 0.929 . S
H635 C616 0.930 . S
H636 C618 0.932 . S
H637 C619 0.929 . S
H638 C620 0.928 . S
H639 C622 0.932 . S
H640 C658 0.951 . S
H641 C660 0.951 . S
H642 C662 0.950 . S
H643 C663 0.950 . S
H644 C665 0.950 . S
H645 C668 0.950 . S
H646 C669 0.950 . S
H647 C671 0.950 1_554 S
H648 C672 0.882 1_554 S
H649 C673 0.951 . S
H650 C675 0.951 . S
H651 C677 0.950 . S
H652 C678 0.950 . S
H653 C680 0.950 . S
H654 C683 0.950 . S
H655 C684 0.950 . S
H656 C686 0.950 1_556 S
H657 C687 0.882 1_556 S
C658 H640 0.951 . S
C658 C659 1.366 . S
C658 C660 1.388 . S
C659 C658 1.366 . S
C659 C663 1.385 1_545 S
C660 H641 0.951 . S
C660 C658 1.388 . S
C660 C661 1.366 . S
C661 C660 1.366 . S
C661 C662 1.414 1_545 S
C661 C664 1.499 . S
C662 H642 0.950 . S
C662 C661 1.414 1_565 S
C662 C663 1.374 . S
C663 H643 0.950 . S
C663 C659 1.385 1_565 S
C663 C662 1.374 . S
C664 C661 1.499 . S
C664 C665 1.373 1_545 S
C664 C666 1.389 . S
C665 H644 0.950 . S
C665 C664 1.373 1_565 S
C665 C681 1.377 1_556 S
C666 C664 1.389 . S
C666 C667 1.524 . S
C666 C680 1.377 1_556 S
C667 C666 1.524 . S
C667 C668 1.397 . S
C667 C672 1.413 . S
C668 H645 0.950 . S
C668 C667 1.397 . S
C668 C669 1.334 . S
C669 H646 0.950 . S
C669 C668 1.334 . S
C669 C670 1.287 . S
C670 C669 1.287 . S
C670 C671 1.524 . S
C670 H689 0.913 . S
C671 H647 0.950 1_556 S
C671 C670 1.524 . S
C671 C672 1.437 . S
C672 H648 0.882 1_556 S
C672 C667 1.413 . S
C672 C671 1.437 . S
C673 H649 0.951 . S
C673 C674 1.366 . S
C673 C675 1.388 . S
C674 C673 1.366 . S
C674 C678 1.385 1_565 S
C675 H650 0.951 . S
C675 C673 1.388 . S
C675 C676 1.366 . S
C676 C675 1.366 . S
C676 C677 1.414 1_565 S
C676 C679 1.499 . S
C677 H651 0.950 . S
C677 C676 1.414 1_545 S
C677 C678 1.374 . S
C678 H652 0.950 . S
C678 C674 1.385 1_545 S
C678 C677 1.374 . S
C679 C676 1.499 . S
C679 C680 1.373 1_565 S
C679 C681 1.389 . S
C680 H653 0.950 . S
C680 C666 1.377 1_554 S
C680 C679 1.373 1_545 S
C681 C665 1.377 1_554 S
C681 C679 1.389 . S
C681 C682 1.524 . S
C682 C681 1.524 . S
C682 C683 1.397 . S
C682 C687 1.413 . S
C683 H654 0.950 . S
C683 C682 1.397 . S
C683 C684 1.334 . S
C684 H655 0.950 . S
C684 C683 1.334 . S
C684 C685 1.287 . S
C685 C684 1.287 . S
C685 C686 1.524 . S
C685 H688 0.999 . S
C686 H656 0.950 1_554 S
C686 C685 1.524 . S
C686 C687 1.437 . S
C687 H657 0.882 1_554 S
C687 C682 1.413 . S
C687 C686 1.437 . S
H688 C685 0.999 . S
H689 C670 0.913 . S
H690 C708 0.951 . S
H691 C710 0.951 . S
H692 C712 0.950 . S
H693 C713 0.950 . S
H694 C715 0.950 . S
H695 C718 0.950 . S
H696 C719 0.950 . S
H697 C721 0.950 . S
H698 C722 0.950 . S
H699 C723 0.951 . S
H700 C725 0.951 . S
H701 C727 0.950 . S
H702 C728 0.950 . S
H703 C730 0.950 . S
H704 C733 0.950 . S
H705 C734 0.950 . S
H706 C736 0.950 . S
H707 C737 0.950 . S
C708 H690 0.951 . S
C708 C709 1.366 . S
C708 C710 1.388 . S
C709 C708 1.366 . S
C709 C713 1.385 . S
C710 H691 0.951 . S
C710 C708 1.388 . S
C710 C711 1.366 . S
C711 C710 1.366 . S
C711 C712 1.414 . S
C711 C714 1.499 . S
C712 H692 0.950 . S
C712 C711 1.414 . S
C712 C713 1.374 . S
C713 H693 0.950 . S
C713 C709 1.385 . S
C713 C712 1.374 . S
C714 C711 1.499 . S
C714 C715 1.373 . S
C714 C716 1.389 . S
C715 H694 0.950 . S
C715 C714 1.373 . S
C715 C731 1.377 . S
C716 C714 1.389 . S
C716 C717 1.524 . S
C716 C730 1.377 . S
C717 C716 1.524 . S
C717 C718 1.397 . S
C717 C722 1.363 . S
C718 H695 0.950 . S
C718 C717 1.397 . S
C718 C719 1.334 . S
C719 H696 0.950 . S
C719 C718 1.334 . S
C719 C720 1.287 . S
C720 C719 1.287 . S
C720 C721 1.524 . S
C720 H739 0.913 . S
C721 H697 0.950 . S
C721 C720 1.524 . S
C721 C722 1.415 . S
C722 H698 0.950 . S
C722 C717 1.363 . S
C722 C721 1.415 . S
C723 H699 0.951 . S
C723 C724 1.366 . S
C723 C725 1.388 . S
C724 C723 1.366 . S
C724 C728 1.385 . S
C725 H700 0.951 . S
C725 C723 1.388 . S
C725 C726 1.366 . S
C726 C725 1.366 . S
C726 C727 1.414 . S
C726 C729 1.499 . S
C727 H701 0.950 . S
C727 C726 1.414 . S
C727 C728 1.374 . S
C728 H702 0.950 . S
C728 C724 1.385 . S
C728 C727 1.374 . S
C729 C726 1.499 . S
C729 C730 1.373 . S
C729 C731 1.389 . S
C730 H703 0.950 . S
C730 C716 1.377 . S
C730 C729 1.373 . S
C731 C715 1.377 . S
C731 C729 1.389 . S
C731 C732 1.524 . S
C732 C731 1.524 . S
C732 C733 1.397 . S
C732 C737 1.363 . S
C733 H704 0.950 . S
C733 C732 1.397 . S
C733 C734 1.334 . S
C734 H705 0.950 . S
C734 C733 1.334 . S
C734 C735 1.287 . S
C735 C734 1.287 . S
C735 C736 1.524 . S
C735 H738 0.999 . S
C736 H706 0.950 . S
C736 C735 1.524 . S
C736 C737 1.415 . S
C737 H707 0.950 . S
C737 C732 1.363 . S
C737 C736 1.415 . S
H738 C735 0.999 . S
H739 C720 0.913 . S
H740 C758 0.951 . S
H741 C760 0.951 . S
H742 C762 0.950 . S
H743 C763 0.950 . S
H744 C765 0.950 . S
H745 C768 0.950 . S
H746 C769 0.950 . S
H747 C771 0.950 . S
H748 C772 0.950 . S
H749 C773 0.951 . S
H750 C775 0.951 . S
H751 C777 0.950 . S
H752 C778 0.950 . S
H753 C780 0.950 . S
H754 C783 0.950 . S
H755 C784 0.950 . S
H756 C786 0.950 . S
H757 C787 0.950 . S
C758 H740 0.951 . S
C758 C759 1.366 . S
C758 C760 1.388 . S
C759 C758 1.366 . S
C759 C763 1.385 . S
C760 H741 0.951 . S
C760 C758 1.388 . S
C760 C761 1.366 . S
C761 C760 1.366 . S
C761 C762 1.414 . S
C761 C764 1.499 . S
C762 H742 0.950 . S
C762 C761 1.414 . S
C762 C763 1.374 . S
C763 H743 0.950 . S
C763 C759 1.385 . S
C763 C762 1.374 . S
C764 C761 1.499 . S
C764 C765 1.373 . S
C764 C766 1.357 1_556 S
C765 H744 0.950 . S
C765 C764 1.373 . S
C765 C781 1.412 1_455 S
C766 C764 1.357 1_554 S
C766 C767 1.527 1_455 S
C766 C780 1.412 1_455 S
C767 C766 1.527 1_655 S
C767 C768 1.399 1_554 S
C767 C772 1.361 1_655 S
C768 H745 0.950 . S
C768 C767 1.399 1_556 S
C768 C769 1.334 . S
C769 H746 0.950 . S
C769 C768 1.334 . S
C769 C770 1.287 1_556 S
C770 C769 1.287 1_554 S
C770 C771 1.524 1_655 S
C770 H789 0.913 . S
C771 H747 0.950 . S
C771 C770 1.524 1_455 S
C771 C772 1.415 . S
C772 H748 0.950 . S
C772 C767 1.361 1_455 S
C772 C771 1.415 . S
C773 H749 0.951 . S
C773 C774 1.366 . S
C773 C775 1.388 . S
C774 C773 1.366 . S
C774 C778 1.385 . S
C775 H750 0.951 . S
C775 C773 1.388 . S
C775 C776 1.366 . S
C776 C775 1.366 . S
C776 C777 1.414 . S
C776 C779 1.499 . S
C777 H751 0.950 . S
C777 C776 1.414 . S
C777 C778 1.374 . S
C778 H752 0.950 . S
C778 C774 1.385 . S
C778 C777 1.374 . S
C779 C776 1.499 . S
C779 C780 1.373 . S
C779 C781 1.357 1_554 S
C780 H753 0.950 . S
C780 C766 1.412 1_655 S
C780 C779 1.373 . S
C781 C765 1.412 1_655 S
C781 C779 1.357 1_556 S
C781 C782 1.527 1_655 S
C782 C781 1.527 1_455 S
C782 C783 1.399 1_556 S
C782 C787 1.361 1_455 S
C783 H754 0.950 . S
C783 C782 1.399 1_554 S
C783 C784 1.334 . S
C784 H755 0.950 . S
C784 C783 1.334 . S
C784 C785 1.287 1_554 S
C785 C784 1.287 1_556 S
C785 C786 1.524 1_455 S
C785 H788 0.999 . S
C786 H756 0.950 . S
C786 C785 1.524 1_655 S
C786 C787 1.415 . S
C787 H757 0.950 . S
C787 C782 1.361 1_655 S
C787 C786 1.415 . S
H788 C785 0.999 . S
H789 C770 0.913 . S
H790 C808 0.951 . S
H791 C810 0.951 . S
H792 C812 0.950 . S
H793 C813 0.950 . S
H794 C815 0.950 . S
H795 C818 0.950 . S
H796 C819 0.950 . S
H797 C821 0.950 . S
H798 C822 0.950 1_545 S
H799 C823 0.951 . S
H800 C825 0.951 . S
H801 C827 0.950 . S
H802 C828 0.950 . S
H803 C830 0.950 . S
H804 C833 0.950 . S
H805 C834 0.950 . S
H806 C836 0.950 . S
H807 C837 0.950 1_565 S
C808 H790 0.951 . S
C808 C809 1.366 . S
C808 C810 1.388 . S
C809 C808 1.366 . S
C809 C813 1.385 1_655 S
C810 H791 0.951 . S
C810 C808 1.388 . S
C810 C811 1.366 . S
C811 C810 1.366 . S
C811 C812 1.414 1_655 S
C811 C814 1.499 . S
C812 H792 0.950 . S
C812 C811 1.414 1_455 S
C812 C813 1.374 . S
C813 H793 0.950 . S
C813 C809 1.385 1_455 S
C813 C812 1.374 . S
C814 C811 1.499 . S
C814 C815 1.373 1_655 S
C814 C816 1.389 . S
C815 H794 0.950 . S
C815 C814 1.373 1_455 S
C815 C831 1.377 1_565 S
C816 C814 1.389 . S
C816 C817 1.524 . S
C816 C830 1.377 1_565 S
C817 C816 1.524 . S
C817 C818 1.397 . S
C817 C822 1.363 . S
C818 H795 0.950 . S
C818 C817 1.397 . S
C818 C819 1.334 . S
C819 H796 0.950 . S
C819 C818 1.334 . S
C819 C820 1.287 . S
C820 C819 1.287 . S
C820 C821 1.524 . S
C820 H839 0.913 . S
C821 H797 0.950 . S
C821 C820 1.524 . S
C821 C822 1.415 . S
C822 H798 0.950 1_565 S
C822 C817 1.363 . S
C822 C821 1.415 . S
C823 H799 0.951 . S
C823 C824 1.366 . S
C823 C825 1.388 . S
C824 C823 1.366 . S
C824 C828 1.385 1_455 S
C825 H800 0.951 . S
C825 C823 1.388 . S
C825 C826 1.366 . S
C826 C825 1.366 . S
C826 C827 1.414 1_455 S
C826 C829 1.499 . S
C827 H801 0.950 . S
C827 C826 1.414 1_655 S
C827 C828 1.374 . S
C828 H802 0.950 . S
C828 C824 1.385 1_655 S
C828 C827 1.374 . S
C829 C826 1.499 . S
C829 C830 1.373 1_455 S
C829 C831 1.389 . S
C830 H803 0.950 . S
C830 C816 1.377 1_545 S
C830 C829 1.373 1_655 S
C831 C815 1.377 1_545 S
C831 C829 1.389 . S
C831 C832 1.524 . S
C832 C831 1.524 . S
C832 C833 1.397 . S
C832 C837 1.363 . S
C833 H804 0.950 . S
C833 C832 1.397 . S
C833 C834 1.334 . S
C834 H805 0.950 . S
C834 C833 1.334 . S
C834 C835 1.287 . S
C835 C834 1.287 . S
C835 C836 1.524 . S
C835 H838 0.999 . S
C836 H806 0.950 . S
C836 C835 1.524 . S
C836 C837 1.415 . S
C837 H807 0.950 1_545 S
C837 C832 1.363 . S
C837 C836 1.415 . S
H838 C835 0.999 . S
H839 C820 0.913 . S
H840 C858 0.951 . S
H841 C860 0.951 . S
H842 C862 0.950 . S
H843 C863 0.950 . S
H844 C865 0.950 . S
H845 C868 0.951 1_565 S
H846 C869 0.933 1_556 S
H847 C871 0.950 . S
H848 C872 0.950 . S
H849 C873 0.951 . S
H850 C875 0.951 . S
H851 C877 0.950 . S
H852 C878 0.950 . S
H853 C880 0.950 . S
H854 C883 0.951 1_545 S
H855 C884 0.933 1_554 S
H856 C886 0.950 . S
H857 C887 0.950 . S
C858 H840 0.951 . S
C858 C859 1.366 . S
C858 C860 1.388 . S
C859 C858 1.366 . S
C859 C863 1.385 1_545 S
C860 H841 0.951 . S
C860 C858 1.388 . S
C860 C861 1.366 . S
C861 C860 1.366 . S
C861 C862 1.414 1_545 S
C861 C864 1.499 . S
C862 H842 0.950 . S
C862 C861 1.414 1_565 S
C862 C863 1.374 . S
C863 H843 0.950 . S
C863 C859 1.385 1_565 S
C863 C862 1.374 . S
C864 C861 1.499 . S
C864 C865 1.373 1_445 S
C864 C866 1.335 1_556 S
C865 H844 0.950 . S
C865 C864 1.373 1_665 S
C865 C881 1.424 . S
C866 C864 1.335 1_554 S
C866 C867 1.537 . S
C866 C880 1.424 . S
C867 C866 1.537 . S
C867 C868 1.396 1_554 S
C867 C872 1.363 . S
C868 H845 0.951 1_545 S
C868 C867 1.396 1_556 S
C868 C869 1.333 1_556 S
C869 H846 0.933 1_554 S
C869 C868 1.333 1_554 S
C869 C870 1.287 . S
C870 C869 1.287 . S
C870 C871 1.524 . S
C870 H889 0.913 . S
C871 H847 0.950 . S
C871 C870 1.524 . S
C871 C872 1.415 . S
C872 H848 0.950 . S
C872 C867 1.363 . S
C872 C871 1.415 . S
C873 H849 0.951 . S
C873 C874 1.366 . S
C873 C875 1.388 . S
C874 C873 1.366 . S
C874 C878 1.385 1_565 S
C875 H850 0.951 . S
C875 C873 1.388 . S
C875 C876 1.366 . S
C876 C875 1.366 . S
C876 C877 1.414 1_565 S
C876 C879 1.499 . S
C877 H851 0.950 . S
C877 C876 1.414 1_545 S
C877 C878 1.374 . S
C878 H852 0.950 . S
C878 C874 1.385 1_545 S
C878 C877 1.374 . S
C879 C876 1.499 . S
C879 C880 1.373 1_665 S
C879 C881 1.335 1_554 S
C880 H853 0.950 . S
C880 C866 1.424 . S
C880 C879 1.373 1_445 S
C881 C865 1.424 . S
C881 C879 1.335 1_556 S
C881 C882 1.537 . S
C882 C881 1.537 . S
C882 C883 1.396 1_556 S
C882 C887 1.363 . S
C883 H854 0.951 1_565 S
C883 C882 1.396 1_554 S
C883 C884 1.333 1_554 S
C884 H855 0.933 1_556 S
C884 C883 1.333 1_556 S
C884 C885 1.287 . S
C885 C884 1.287 . S
C885 C886 1.524 . S
C885 H888 0.999 . S
C886 H856 0.950 . S
C886 C885 1.524 . S
C886 C887 1.415 . S
C887 H857 0.950 . S
C887 C882 1.363 . S
C887 C886 1.415 . S
H888 C885 0.999 . S
H889 C870 0.913 . S
H890 C908 0.951 . S
H891 C910 0.951 . S
H892 C912 0.950 . S
H893 C913 0.950 . S
H894 C915 0.950 . S
H895 C918 0.950 . S
H896 C919 0.950 . S
H897 C921 0.950 . S
H898 C922 0.950 . S
H899 C923 0.951 . S
H900 C925 0.951 . S
H901 C927 0.950 . S
H902 C928 0.950 . S
H903 C930 0.950 . S
H904 C933 0.950 . S
H905 C934 0.950 . S
H906 C936 0.950 . S
H907 C937 0.950 . S
C908 H890 0.951 . S
C908 C909 1.366 . S
C908 C910 1.388 . S
C909 C908 1.366 . S
C909 C913 1.385 . S
C910 H891 0.951 . S
C910 C908 1.388 . S
C910 C911 1.366 . S
C911 C910 1.366 . S
C911 C912 1.414 . S
C911 C914 1.499 . S
C912 H892 0.950 . S
C912 C911 1.414 . S
C912 C913 1.374 . S
C913 H893 0.950 . S
C913 C909 1.385 . S
C913 C912 1.374 . S
C914 C911 1.499 . S
C914 C915 1.373 . S
C914 C916 1.389 1_565 S
C915 H894 0.950 . S
C915 C914 1.373 . S
C915 C931 1.377 . S
C916 C914 1.389 1_545 S
C916 C917 1.524 . S
C916 C930 1.377 . S
C917 C916 1.524 . S
C917 C918 1.397 . S
C917 C922 1.363 . S
C918 H895 0.950 . S
C918 C917 1.397 . S
C918 C919 1.334 . S
C919 H896 0.950 . S
C919 C918 1.334 . S
C919 C920 1.287 . S
C920 C919 1.287 . S
C920 C921 1.524 . S
C920 H939 0.913 . S
C921 H897 0.950 . S
C921 C920 1.524 . S
C921 C922 1.415 . S
C922 H898 0.950 . S
C922 C917 1.363 . S
C922 C921 1.415 . S
C923 H899 0.951 . S
C923 C924 1.366 . S
C923 C925 1.388 . S
C924 C923 1.366 . S
C924 C928 1.385 . S
C925 H900 0.951 . S
C925 C923 1.388 . S
C925 C926 1.366 . S
C926 C925 1.366 . S
C926 C927 1.414 . S
C926 C929 1.499 . S
C927 H901 0.950 . S
C927 C926 1.414 . S
C927 C928 1.374 . S
C928 H902 0.950 . S
C928 C924 1.385 . S
C928 C927 1.374 . S
C929 C926 1.499 . S
C929 C930 1.373 . S
C929 C931 1.389 1_545 S
C930 H903 0.950 . S
C930 C916 1.377 . S
C930 C929 1.373 . S
C931 C915 1.377 . S
C931 C929 1.389 1_565 S
C931 C932 1.524 . S
C932 C931 1.524 . S
C932 C933 1.397 . S
C932 C937 1.363 . S
C933 H904 0.950 . S
C933 C932 1.397 . S
C933 C934 1.334 . S
C934 H905 0.950 . S
C934 C933 1.334 . S
C934 C935 1.287 . S
C935 C934 1.287 . S
C935 C936 1.524 . S
C935 H938 0.999 . S
C936 H906 0.950 . S
C936 C935 1.524 . S
C936 C937 1.415 . S
C937 H907 0.950 . S
C937 C932 1.363 . S
C937 C936 1.415 . S
H938 C935 0.999 . S
H939 C920 0.913 . S
H940 C958 0.951 . S
H941 C960 0.951 . S
H942 C962 0.950 . S
H943 C963 0.950 . S
H944 C965 0.950 . S
H945 C968 0.950 . S
H946 C969 0.950 . S
H947 C971 0.950 . S
H948 C972 0.950 . S
H949 C973 0.951 . S
H950 C975 0.951 . S
H951 C977 0.950 . S
H952 C978 0.950 . S
H953 C980 0.950 . S
H954 C983 0.950 . S
H955 C984 0.950 . S
H956 C986 0.950 . S
H957 C987 0.950 . S
C958 H940 0.951 . S
C958 C959 1.366 . S
C958 C960 1.388 . S
C959 C958 1.366 . S
C959 C963 1.385 . S
C960 H941 0.951 . S
C960 C958 1.388 . S
C960 C961 1.366 . S
C961 C960 1.366 . S
C961 C962 1.414 . S
C961 C964 1.499 . S
C962 H942 0.950 . S
C962 C961 1.414 . S
C962 C963 1.374 . S
C963 H943 0.950 . S
C963 C959 1.385 . S
C963 C962 1.374 . S
C964 C961 1.499 . S
C964 C965 1.373 . S
C964 C966 1.389 1_554 S
C965 H944 0.950 . S
C965 C964 1.373 . S
C965 C981 1.377 . S
C966 C964 1.389 1_556 S
C966 C967 1.524 . S
C966 C980 1.377 . S
C967 C966 1.524 . S
C967 C968 1.397 1_556 S
C967 C972 1.363 . S
C968 H945 0.950 . S
C968 C967 1.397 1_554 S
C968 C969 1.334 . S
C969 H946 0.950 . S
C969 C968 1.334 . S
C969 C970 1.287 1_554 S
C970 C969 1.287 1_556 S
C970 C971 1.524 . S
C970 H989 0.913 . S
C971 H947 0.950 . S
C971 C970 1.524 . S
C971 C972 1.415 . S
C972 H948 0.950 . S
C972 C967 1.363 . S
C972 C971 1.415 . S
C973 H949 0.951 . S
C973 C974 1.366 . S
C973 C975 1.388 . S
C974 C973 1.366 . S
C974 C978 1.385 . S
C975 H950 0.951 . S
C975 C973 1.388 . S
C975 C976 1.366 . S
C976 C975 1.366 . S
C976 C977 1.414 . S
C976 C979 1.499 . S
C977 H951 0.950 . S
C977 C976 1.414 . S
C977 C978 1.374 . S
C978 H952 0.950 . S
C978 C974 1.385 . S
C978 C977 1.374 . S
C979 C976 1.499 . S
C979 C980 1.373 . S
C979 C981 1.389 1_556 S
C980 H953 0.950 . S
C980 C966 1.377 . S
C980 C979 1.373 . S
C981 C965 1.377 . S
C981 C979 1.389 1_554 S
C981 C982 1.524 . S
C982 C981 1.524 . S
C982 C983 1.397 1_554 S
C982 C987 1.363 . S
C983 H954 0.950 . S
C983 C982 1.397 1_556 S
C983 C984 1.334 . S
C984 H955 0.950 . S
C984 C983 1.334 . S
C984 C985 1.287 1_556 S
C985 C984 1.287 1_554 S
C985 C986 1.524 . S
C985 H988 0.999 . S
C986 H956 0.950 . S
C986 C985 1.524 . S
C986 C987 1.415 . S
C987 H957 0.950 . S
C987 C982 1.363 . S
C987 C986 1.415 . S
H988 C985 0.999 . S
H989 C970 0.913 . S
H990 C1008 0.951 . S
H991 C1010 0.951 . S
H992 C1012 0.950 . S
H993 C1013 0.950 . S
H994 C1015 0.950 . S
H995 C1018 0.950 . S
H996 C1019 0.950 . S
H997 C1021 0.950 . S
H998 C1022 0.950 . S
H999 C1023 0.951 . S
H1000 C1025 0.951 . S
H1001 C1027 0.950 . S
H1002 C1028 0.950 . S
H1003 C1030 0.950 . S
H1004 C1033 0.950 . S
H1005 C1034 0.950 . S
H1006 C1036 0.950 . S
H1007 C1037 0.950 . S
C1008 H990 0.951 . S
C1008 C1009 1.366 1_455 S
C1008 C1010 1.388 . S
C1009 C1008 1.366 1_655 S
C1009 C1013 1.385 . S
C1010 H991 0.951 . S
C1010 C1008 1.388 . S
C1010 C1011 1.366 1_455 S
C1011 C1010 1.366 1_655 S
C1011 C1012 1.414 . S
C1011 C1014 1.499 . S
C1012 H992 0.950 . S
C1012 C1011 1.414 . S
C1012 C1013 1.374 . S
C1013 H993 0.950 . S
C1013 C1009 1.385 . S
C1013 C1012 1.374 . S
C1014 C1011 1.499 . S
C1014 C1015 1.373 . S
C1014 C1016 1.383 1_655 S
C1015 H994 0.950 . S
C1015 C1014 1.373 . S
C1015 C1031 1.380 . S
C1016 C1014 1.383 1_455 S
C1016 C1017 1.524 . S
C1016 C1030 1.382 . S
C1017 C1016 1.524 . S
C1017 C1018 1.394 1_455 S
C1017 C1022 1.365 . S
C1018 H995 0.950 . S
C1018 C1017 1.394 1_655 S
C1018 C1019 1.334 . S
C1019 H996 0.950 . S
C1019 C1018 1.334 . S
C1019 C1020 1.287 . S
C1020 C1019 1.287 . S
C1020 C1021 1.524 1_655 S
C1020 H1039 0.913 . S
C1021 H997 0.950 . S
C1021 C1020 1.524 1_455 S
C1021 C1022 1.415 . S
C1022 H998 0.950 . S
C1022 C1017 1.365 . S
C1022 C1021 1.415 . S
C1023 H999 0.951 . S
C1023 C1024 1.366 1_655 S
C1023 C1025 1.388 . S
C1024 C1023 1.366 1_455 S
C1024 C1028 1.385 . S
C1025 H1000 0.951 . S
C1025 C1023 1.388 . S
C1025 C1026 1.366 1_655 S
C1026 C1025 1.366 1_455 S
C1026 C1027 1.414 . S
C1026 C1029 1.499 . S
C1027 H1001 0.950 . S
C1027 C1026 1.414 . S
C1027 C1028 1.374 . S
C1028 H1002 0.950 . S
C1028 C1024 1.385 . S
C1028 C1027 1.374 . S
C1029 C1026 1.499 . S
C1029 C1030 1.373 . S
C1029 C1031 1.386 1_455 S
C1030 H1003 0.950 . S
C1030 C1016 1.382 . S
C1030 C1029 1.373 . S
C1031 C1015 1.380 . S
C1031 C1029 1.386 1_655 S
C1031 C1032 1.524 1_655 S
C1032 C1031 1.524 1_455 S
C1032 C1033 1.394 . S
C1032 C1037 1.365 1_455 S
C1033 H1004 0.950 . S
C1033 C1032 1.394 . S
C1033 C1034 1.334 . S
C1034 H1005 0.950 . S
C1034 C1033 1.334 . S
C1034 C1035 1.287 . S
C1035 C1034 1.287 . S
C1035 C1036 1.524 1_455 S
C1035 H1038 0.999 . S
C1036 H1006 0.950 . S
C1036 C1035 1.524 1_655 S
C1036 C1037 1.415 . S
C1037 H1007 0.950 . S
C1037 C1032 1.365 1_655 S
C1037 C1036 1.415 . S
H1038 C1035 0.999 . S
H1039 C1020 0.913 . S
H1040 C1058 0.951 . S
H1041 C1060 0.951 . S
H1042 C1062 0.950 . S
H1043 C1063 0.950 . S
H1044 C1065 0.950 . S
H1045 C1068 0.950 . S
H1046 C1069 0.950 . S
H1047 C1071 0.950 . S
H1048 C1072 0.950 . S
H1049 C1073 0.951 . S
H1050 C1075 0.951 . S
H1051 C1077 0.950 . S
H1052 C1078 0.950 . S
H1053 C1080 0.950 . S
H1054 C1083 0.950 . S
H1055 C1084 0.950 . S
H1056 C1086 0.950 . S
H1057 C1087 0.950 . S
C1058 H1040 0.951 . S
C1058 C1059 1.366 . S
C1058 C1060 1.388 . S
C1059 C1058 1.366 . S
C1059 C1063 1.385 . S
C1060 H1041 0.951 . S
C1060 C1058 1.388 . S
C1060 C1061 1.366 . S
C1061 C1060 1.366 . S
C1061 C1062 1.414 . S
C1061 C1064 1.499 . S
C1062 H1042 0.950 . S
C1062 C1061 1.414 . S
C1062 C1063 1.374 . S
C1063 H1043 0.950 . S
C1063 C1059 1.385 . S
C1063 C1062 1.374 . S
C1064 C1061 1.499 . S
C1064 C1065 1.373 . S
C1064 C1066 1.389 . S
C1065 H1044 0.950 . S
C1065 C1064 1.373 . S
C1065 C1081 1.377 . S
C1066 C1064 1.389 . S
C1066 C1067 1.524 . S
C1066 C1080 1.377 . S
C1067 C1066 1.524 . S
C1067 C1068 1.397 . S
C1067 C1072 1.363 . S
C1068 H1045 0.950 . S
C1068 C1067 1.397 . S
C1068 C1069 1.334 . S
C1069 H1046 0.950 . S
C1069 C1068 1.334 . S
C1069 C1070 1.287 . S
C1070 C1069 1.287 . S
C1070 C1071 1.524 . S
C1070 H1089 0.913 . S
C1071 H1047 0.950 . S
C1071 C1070 1.524 . S
C1071 C1072 1.415 . S
C1072 H1048 0.950 . S
C1072 C1067 1.363 . S
C1072 C1071 1.415 . S
C1073 H1049 0.951 . S
C1073 C1074 1.366 . S
C1073 C1075 1.388 . S
C1074 C1073 1.366 . S
C1074 C1078 1.385 . S
C1075 H1050 0.951 . S
C1075 C1073 1.388 . S
C1075 C1076 1.366 . S
C1076 C1075 1.366 . S
C1076 C1077 1.414 . S
C1076 C1079 1.499 . S
C1077 H1051 0.950 . S
C1077 C1076 1.414 . S
C1077 C1078 1.374 . S
C1078 H1052 0.950 . S
C1078 C1074 1.385 . S
C1078 C1077 1.374 . S
C1079 C1076 1.499 . S
C1079 C1080 1.373 . S
C1079 C1081 1.389 . S
C1080 H1053 0.950 . S
C1080 C1066 1.377 . S
C1080 C1079 1.373 . S
C1081 C1065 1.377 . S
C1081 C1079 1.389 . S
C1081 C1082 1.524 . S
C1082 C1081 1.524 . S
C1082 C1083 1.397 . S
C1082 C1087 1.363 . S
C1083 H1054 0.950 . S
C1083 C1082 1.397 . S
C1083 C1084 1.334 . S
C1084 H1055 0.950 . S
C1084 C1083 1.334 . S
C1084 C1085 1.287 . S
C1085 C1084 1.287 . S
C1085 C1086 1.524 . S
C1085 H1088 0.999 . S
C1086 H1056 0.950 . S
C1086 C1085 1.524 . S
C1086 C1087 1.415 . S
C1087 H1057 0.950 . S
C1087 C1082 1.363 . S
C1087 C1086 1.415 . S
H1088 C1085 0.999 . S
H1089 C1070 0.913 . S
H1090 C1108 0.951 . S
H1091 C1110 0.951 . S
H1092 C1112 0.950 . S
H1093 C1113 0.950 . S
H1094 C1115 0.950 . S
H1095 C1118 0.950 . S
H1096 C1119 0.950 . S
H1097 C1121 0.950 . S
H1098 C1122 0.950 . S
H1099 C1123 0.951 . S
H1100 C1125 0.951 . S
H1101 C1127 0.950 . S
H1102 C1128 0.950 . S
H1103 C1130 0.950 . S
H1104 C1133 0.950 . S
H1105 C1134 0.950 . S
H1106 C1136 0.950 . S
H1107 C1137 0.950 . S
C1108 H1090 0.951 . S
C1108 C1109 1.366 . S
C1108 C1110 1.388 . S
C1109 C1108 1.366 . S
C1109 C1113 1.385 . S
C1110 H1091 0.951 . S
C1110 C1108 1.388 . S
C1110 C1111 1.366 . S
C1111 C1110 1.366 . S
C1111 C1112 1.414 . S
C1111 C1114 1.499 . S
C1112 H1092 0.950 . S
C1112 C1111 1.414 . S
C1112 C1113 1.374 . S
C1113 H1093 0.950 . S
C1113 C1109 1.385 . S
C1113 C1112 1.374 . S
C1114 C1111 1.499 . S
C1114 C1115 1.373 . S
C1114 C1116 1.389 . S
C1115 H1094 0.950 . S
C1115 C1114 1.373 . S
C1115 C1131 1.377 . S
C1116 C1114 1.389 . S
C1116 C1117 1.524 . S
C1116 C1130 1.377 . S
C1117 C1116 1.524 . S
C1117 C1118 1.397 . S
C1117 C1122 1.363 . S
C1118 H1095 0.950 . S
C1118 C1117 1.397 . S
C1118 C1119 1.334 . S
C1119 H1096 0.950 . S
C1119 C1118 1.334 . S
C1119 C1120 1.287 . S
C1120 C1119 1.287 . S
C1120 C1121 1.524 . S
C1120 H1139 0.913 . S
C1121 H1097 0.950 . S
C1121 C1120 1.524 . S
C1121 C1122 1.415 . S
C1122 H1098 0.950 . S
C1122 C1117 1.363 . S
C1122 C1121 1.415 . S
C1123 H1099 0.951 . S
C1123 C1124 1.366 . S
C1123 C1125 1.388 . S
C1124 C1123 1.366 . S
C1124 C1128 1.385 . S
C1125 H1100 0.951 . S
C1125 C1123 1.388 . S
C1125 C1126 1.366 . S
C1126 C1125 1.366 . S
C1126 C1127 1.414 . S
C1126 C1129 1.499 . S
C1127 H1101 0.950 . S
C1127 C1126 1.414 . S
C1127 C1128 1.374 . S
C1128 H1102 0.950 . S
C1128 C1124 1.385 . S
C1128 C1127 1.374 . S
C1129 C1126 1.499 . S
C1129 C1130 1.373 . S
C1129 C1131 1.389 . S
C1130 H1103 0.950 . S
C1130 C1116 1.377 . S
C1130 C1129 1.373 . S
C1131 C1115 1.377 . S
C1131 C1129 1.389 . S
C1131 C1132 1.524 . S
C1132 C1131 1.524 . S
C1132 C1133 1.397 . S
C1132 C1137 1.363 . S
C1133 H1104 0.950 . S
C1133 C1132 1.397 . S
C1133 C1134 1.334 . S
C1134 H1105 0.950 . S
C1134 C1133 1.334 . S
C1134 C1135 1.287 . S
C1135 C1134 1.287 . S
C1135 C1136 1.524 . S
C1135 H1138 0.999 . S
C1136 H1106 0.950 . S
C1136 C1135 1.524 . S
C1136 C1137 1.415 . S
C1137 H1107 0.950 . S
C1137 C1132 1.363 . S
C1137 C1136 1.415 . S
H1138 C1135 0.999 . S
H1139 C1120 0.913 . S
H1140 C1158 0.951 . S
H1141 C1160 0.951 . S
H1142 C1162 0.950 . S
H1143 C1163 0.978 . S
H1144 C1165 0.950 . S
H1145 C1168 0.950 . S
H1146 C1169 0.950 . S
H1147 C1171 0.950 . S
H1148 C1172 0.950 . S
H1149 C1173 0.951 . S
H1150 C1175 0.951 . S
H1151 C1177 0.950 . S
H1152 C1178 0.950 . S
H1153 C1180 0.950 . S
H1154 C1183 0.950 . S
H1155 C1184 0.950 . S
H1156 C1186 0.950 . S
H1157 C1187 0.950 . S
C1158 H1140 0.951 . S
C1158 C1159 1.366 . S
C1158 C1160 1.388 . S
C1159 C1158 1.366 . S
C1159 C1163 1.385 . S
C1160 H1141 0.951 . S
C1160 C1158 1.388 . S
C1160 C1161 1.366 . S
C1161 C1160 1.366 . S
C1161 C1162 1.414 . S
C1161 C1164 1.499 . S
C1162 H1142 0.950 . S
C1162 C1161 1.414 . S
C1162 C1163 1.374 . S
C1163 H1143 0.978 . S
C1163 C1159 1.385 . S
C1163 C1162 1.374 . S
C1164 C1161 1.499 . S
C1164 C1165 1.373 . S
C1164 C1166 1.389 . S
C1165 H1144 0.950 . S
C1165 C1164 1.373 . S
C1165 C1181 1.377 . S
C1166 C1164 1.389 . S
C1166 C1167 1.524 . S
C1166 C1180 1.377 . S
C1167 C1166 1.524 . S
C1167 C1168 1.397 . S
C1167 C1172 1.363 . S
C1168 H1145 0.950 . S
C1168 C1167 1.397 . S
C1168 C1169 1.334 . S
C1169 H1146 0.950 . S
C1169 C1168 1.334 . S
C1169 C1170 1.287 . S
C1170 C1169 1.287 . S
C1170 C1171 1.524 . S
C1170 H1189 0.913 . S
C1171 H1147 0.950 . S
C1171 C1170 1.524 . S
C1171 C1172 1.415 . S
C1172 H1148 0.950 . S
C1172 C1167 1.363 . S
C1172 C1171 1.415 . S
C1173 H1149 0.951 . S
C1173 C1174 1.366 . S
C1173 C1175 1.388 . S
C1174 C1173 1.366 . S
C1174 C1178 1.385 . S
C1175 H1150 0.951 . S
C1175 C1173 1.388 . S
C1175 C1176 1.366 . S
C1176 C1175 1.366 . S
C1176 C1177 1.414 . S
C1176 C1179 1.499 . S
C1177 H1151 0.950 . S
C1177 C1176 1.414 . S
C1177 C1178 1.374 . S
C1178 H1152 0.950 . S
C1178 C1174 1.385 . S
C1178 C1177 1.374 . S
C1179 C1176 1.499 . S
C1179 C1180 1.373 . S
C1179 C1181 1.389 . S
C1180 H1153 0.950 . S
C1180 C1166 1.377 . S
C1180 C1179 1.373 . S
C1181 C1165 1.377 . S
C1181 C1179 1.389 . S
C1181 C1182 1.524 . S
C1182 C1181 1.524 . S
C1182 C1183 1.397 . S
C1182 C1187 1.363 . S
C1183 H1154 0.950 . S
C1183 C1182 1.397 . S
C1183 C1184 1.334 . S
C1184 H1155 0.950 . S
C1184 C1183 1.334 . S
C1184 C1185 1.287 . S
C1185 C1184 1.287 . S
C1185 C1186 1.524 . S
C1185 H1188 0.999 . S
C1186 H1156 0.950 . S
C1186 C1185 1.524 . S
C1186 C1187 1.415 . S
C1187 H1157 0.950 . S
C1187 C1182 1.363 . S
C1187 C1186 1.415 . S
H1188 C1185 0.999 . S
H1189 C1170 0.913 . S
H1190 C1208 0.951 . S
H1191 C1210 0.951 . S
H1192 C1212 0.950 . S
H1193 C1213 0.950 . S
H1194 C1215 0.950 . S
H1195 C1218 0.950 . S
H1196 C1219 0.950 . S
H1197 C1221 0.950 . S
H1198 C1222 0.950 . S
H1199 C1223 0.951 . S
H1200 C1225 0.951 . S
H1201 C1227 0.950 . S
H1202 C1228 0.950 . S
H1203 C1230 0.950 . S
H1204 C1233 0.950 . S
H1205 C1234 0.983 . S
H1206 C1236 0.950 . S
H1207 C1237 0.950 . S
C1208 H1190 0.951 . S
C1208 C1209 1.366 . S
C1208 C1210 1.388 . S
C1209 C1208 1.366 . S
C1209 C1213 1.385 . S
C1210 H1191 0.951 . S
C1210 C1208 1.388 . S
C1210 C1211 1.366 . S
C1211 C1210 1.366 . S
C1211 C1212 1.414 . S
C1211 C1214 1.499 . S
C1212 H1192 0.950 . S
C1212 C1211 1.414 . S
C1212 C1213 1.374 . S
C1213 H1193 0.950 . S
C1213 C1209 1.385 . S
C1213 C1212 1.374 . S
C1214 C1211 1.499 . S
C1214 C1215 1.373 . S
C1214 C1216 1.389 . S
C1215 H1194 0.950 . S
C1215 C1214 1.373 . S
C1215 C1231 1.377 . S
C1216 C1214 1.389 . S
C1216 C1217 1.524 . S
C1216 C1230 1.377 . S
C1217 C1216 1.524 . S
C1217 C1218 1.397 . S
C1217 C1222 1.363 . S
C1218 H1195 0.950 . S
C1218 C1217 1.397 . S
C1218 C1219 1.334 . S
C1219 H1196 0.950 . S
C1219 C1218 1.334 . S
C1219 C1220 1.287 . S
C1220 C1219 1.287 . S
C1220 C1221 1.524 . S
C1220 H1239 0.913 . S
C1221 H1197 0.950 . S
C1221 C1220 1.524 . S
C1221 C1222 1.415 . S
C1222 H1198 0.950 . S
C1222 C1217 1.363 . S
C1222 C1221 1.415 . S
C1223 H1199 0.951 . S
C1223 C1224 1.366 . S
C1223 C1225 1.388 . S
C1224 C1223 1.366 . S
C1224 C1228 1.385 . S
C1225 H1200 0.951 . S
C1225 C1223 1.388 . S
C1225 C1226 1.366 . S
C1226 C1225 1.366 . S
C1226 C1227 1.414 . S
C1226 C1229 1.499 . S
C1227 H1201 0.950 . S
C1227 C1226 1.414 . S
C1227 C1228 1.374 . S
C1228 H1202 0.950 . S
C1228 C1224 1.385 . S
C1228 C1227 1.374 . S
C1229 C1226 1.499 . S
C1229 C1230 1.373 . S
C1229 C1231 1.389 . S
C1230 H1203 0.950 . S
C1230 C1216 1.377 . S
C1230 C1229 1.373 . S
C1231 C1215 1.377 . S
C1231 C1229 1.389 . S
C1231 C1232 1.524 . S
C1232 C1231 1.524 . S
C1232 C1233 1.397 . S
C1232 C1237 1.363 . S
C1233 H1204 0.950 . S
C1233 C1232 1.397 . S
C1233 C1234 1.334 . S
C1234 H1205 0.983 . S
C1234 C1233 1.334 . S
C1234 C1235 1.287 1_455 S
C1235 C1234 1.287 1_655 S
C1235 C1236 1.524 . S
C1235 H1238 0.999 . S
C1236 H1206 0.950 . S
C1236 C1235 1.524 . S
C1236 C1237 1.415 1_655 S
C1237 H1207 0.950 . S
C1237 C1232 1.363 . S
C1237 C1236 1.415 1_455 S
H1238 C1235 0.999 . S
H1239 C1220 0.913 . S
H1240 C1258 0.951 . S
H1241 C1260 0.951 . S
H1242 C1262 0.950 . S
H1243 C1263 0.950 . S
H1244 C1265 0.950 . S
H1245 C1268 0.950 . S
H1246 C1269 0.950 . S
H1247 C1271 0.950 . S
H1248 C1272 0.950 . S
H1249 C1273 0.951 . S
H1250 C1275 0.951 . S
H1251 C1277 0.950 . S
H1252 C1278 0.950 . S
H1253 C1280 0.950 . S
H1254 C1283 0.950 . S
H1255 C1284 0.950 . S
H1256 C1286 0.950 . S
H1257 C1287 0.950 . S
C1258 H1240 0.951 . S
C1258 C1259 1.366 . S
C1258 C1260 1.388 . S
C1259 C1258 1.366 . S
C1259 C1263 1.385 . S
C1260 H1241 0.951 . S
C1260 C1258 1.388 . S
C1260 C1261 1.366 . S
C1261 C1260 1.366 . S
C1261 C1262 1.414 . S
C1261 C1264 1.499 . S
C1262 H1242 0.950 . S
C1262 C1261 1.414 . S
C1262 C1263 1.374 . S
C1263 H1243 0.950 . S
C1263 C1259 1.385 . S
C1263 C1262 1.374 . S
C1264 C1261 1.499 . S
C1264 C1265 1.373 . S
C1264 C1266 1.389 . S
C1265 H1244 0.950 . S
C1265 C1264 1.373 . S
C1265 C1281 1.377 . S
C1266 C1264 1.389 . S
C1266 C1267 1.524 . S
C1266 C1280 1.377 . S
C1267 C1266 1.524 . S
C1267 C1268 1.397 . S
C1267 C1272 1.363 . S
C1268 H1245 0.950 . S
C1268 C1267 1.397 . S
C1268 C1269 1.334 1_565 S
C1269 H1246 0.950 . S
C1269 C1268 1.334 1_545 S
C1269 C1270 1.302 . S
C1270 C1269 1.302 . S
C1270 C1271 1.465 1_545 S
C1270 H1289 0.962 . S
C1271 H1247 0.950 . S
C1271 C1270 1.465 1_565 S
C1271 C1272 1.415 . S
C1272 H1248 0.950 . S
C1272 C1267 1.363 . S
C1272 C1271 1.415 . S
C1273 H1249 0.951 . S
C1273 C1274 1.366 . S
C1273 C1275 1.388 . S
C1274 C1273 1.366 . S
C1274 C1278 1.385 . S
C1275 H1250 0.951 . S
C1275 C1273 1.388 . S
C1275 C1276 1.366 . S
C1276 C1275 1.366 . S
C1276 C1277 1.414 . S
C1276 C1279 1.499 . S
C1277 H1251 0.950 . S
C1277 C1276 1.414 . S
C1277 C1278 1.374 . S
C1278 H1252 0.950 . S
C1278 C1274 1.385 . S
C1278 C1277 1.374 . S
C1279 C1276 1.499 . S
C1279 C1280 1.373 . S
C1279 C1281 1.389 . S
C1280 H1253 0.950 . S
C1280 C1266 1.377 . S
C1280 C1279 1.373 . S
C1281 C1265 1.377 . S
C1281 C1279 1.389 . S
C1281 C1282 1.524 . S
C1282 C1281 1.524 . S
C1282 C1283 1.397 . S
C1282 C1287 1.363 . S
C1283 H1254 0.950 . S
C1283 C1282 1.397 . S
C1283 C1284 1.334 . S
C1284 H1255 0.950 . S
C1284 C1283 1.334 . S
C1284 C1285 1.287 . S
C1285 C1284 1.287 . S
C1285 C1286 1.524 . S
C1285 H1288 0.999 . S
C1286 H1256 0.950 . S
C1286 C1285 1.524 . S
C1286 C1287 1.415 . S
C1287 H1257 0.950 . S
C1287 C1282 1.363 . S
C1287 C1286 1.415 . S
H1288 C1285 0.999 . S
H1289 C1270 0.962 . S
H1290 C1308 0.951 . S
H1291 C1310 0.951 . S
H1292 C1312 0.950 . S
H1293 C1313 0.950 . S
H1294 C1315 0.950 . S
H1295 C1318 0.950 . S
H1296 C1319 0.950 . S
H1297 C1321 0.950 . S
H1298 C1322 0.950 . S
H1299 C1323 0.951 . S
H1300 C1325 0.951 . S
H1301 C1327 0.950 . S
H1302 C1328 0.950 . S
H1303 C1330 0.950 . S
H1304 C1333 0.950 . S
H1305 C1334 0.950 . S
H1306 C1336 0.950 . S
H1307 C1337 0.950 . S
C1308 H1290 0.951 . S
C1308 C1309 1.366 . S
C1308 C1310 1.388 . S
C1309 C1308 1.366 . S
C1309 C1313 1.385 . S
C1310 H1291 0.951 . S
C1310 C1308 1.388 . S
C1310 C1311 1.366 . S
C1311 C1310 1.366 . S
C1311 C1312 1.414 . S
C1311 C1314 1.499 . S
C1312 H1292 0.950 . S
C1312 C1311 1.414 . S
C1312 C1313 1.374 . S
C1313 H1293 0.950 . S
C1313 C1309 1.385 . S
C1313 C1312 1.374 . S
C1314 C1311 1.499 . S
C1314 C1315 1.373 . S
C1314 C1316 1.389 . S
C1315 H1294 0.950 . S
C1315 C1314 1.373 . S
C1315 C1331 1.377 . S
C1316 C1314 1.389 . S
C1316 C1317 1.524 . S
C1316 C1330 1.377 . S
C1317 C1316 1.524 . S
C1317 C1318 1.397 . S
C1317 C1322 1.363 . S
C1318 H1295 0.950 . S
C1318 C1317 1.397 . S
C1318 C1319 1.334 . S
C1319 H1296 0.950 . S
C1319 C1318 1.334 . S
C1319 C1320 1.287 . S
C1320 C1319 1.287 . S
C1320 C1321 1.524 . S
C1320 H1339 0.913 . S
C1321 H1297 0.950 . S
C1321 C1320 1.524 . S
C1321 C1322 1.415 . S
C1322 H1298 0.950 . S
C1322 C1317 1.363 . S
C1322 C1321 1.415 . S
C1323 H1299 0.951 . S
C1323 C1324 1.366 . S
C1323 C1325 1.388 . S
C1324 C1323 1.366 . S
C1324 C1328 1.385 . S
C1325 H1300 0.951 . S
C1325 C1323 1.388 . S
C1325 C1326 1.366 . S
C1326 C1325 1.366 . S
C1326 C1327 1.414 . S
C1326 C1329 1.499 . S
C1327 H1301 0.950 . S
C1327 C1326 1.414 . S
C1327 C1328 1.374 . S
C1328 H1302 0.950 . S
C1328 C1324 1.385 . S
C1328 C1327 1.374 . S
C1329 C1326 1.499 . S
C1329 C1330 1.373 . S
C1329 C1331 1.389 . S
C1330 H1303 0.950 . S
C1330 C1316 1.377 . S
C1330 C1329 1.373 . S
C1331 C1315 1.377 . S
C1331 C1329 1.389 . S
C1331 C1332 1.524 . S
C1332 C1331 1.524 . S
C1332 C1333 1.397 . S
C1332 C1337 1.363 . S
C1333 H1304 0.950 . S
C1333 C1332 1.397 . S
C1333 C1334 1.334 . S
C1334 H1305 0.950 . S
C1334 C1333 1.334 . S
C1334 C1335 1.287 . S
C1335 C1334 1.287 . S
C1335 C1336 1.524 . S
C1335 H1338 0.999 . S
C1336 H1306 0.950 . S
C1336 C1335 1.524 . S
C1336 C1337 1.415 . S
C1337 H1307 0.950 . S
C1337 C1332 1.363 . S
C1337 C1336 1.415 . S
H1338 C1335 0.999 . S
H1339 C1320 0.913 . S
H1340 C1358 0.951 . S
H1341 C1360 0.951 . S
H1342 C1362 0.950 . S
H1343 C1363 0.950 . S
H1344 C1365 0.950 . S
H1345 C1368 0.950 . S
H1346 C1369 0.950 . S
H1347 C1371 0.950 . S
H1348 C1372 0.950 . S
H1349 C1373 0.951 . S
H1350 C1375 0.951 . S
H1351 C1377 0.950 . S
H1352 C1378 0.950 . S
H1353 C1380 0.950 . S
H1354 C1383 0.950 . S
H1355 C1384 0.950 . S
H1356 C1386 0.950 . S
H1357 C1387 0.939 1_455 S
C1358 H1340 0.951 . S
C1358 C1359 1.366 . S
C1358 C1360 1.388 . S
C1359 C1358 1.366 . S
C1359 C1363 1.385 . S
C1360 H1341 0.951 . S
C1360 C1358 1.388 . S
C1360 C1361 1.366 . S
C1361 C1360 1.366 . S
C1361 C1362 1.414 . S
C1361 C1364 1.499 . S
C1362 H1342 0.950 . S
C1362 C1361 1.414 . S
C1362 C1363 1.374 . S
C1363 H1343 0.950 . S
C1363 C1359 1.385 . S
C1363 C1362 1.374 . S
C1364 C1361 1.499 . S
C1364 C1365 1.373 . S
C1364 C1366 1.389 . S
C1365 H1344 0.950 . S
C1365 C1364 1.373 . S
C1365 C1381 1.377 . S
C1366 C1364 1.389 . S
C1366 C1367 1.524 . S
C1366 C1380 1.377 . S
C1367 C1366 1.524 . S
C1367 C1368 1.397 . S
C1367 C1372 1.363 . S
C1368 H1345 0.950 . S
C1368 C1367 1.397 . S
C1368 C1369 1.334 . S
C1369 H1346 0.950 . S
C1369 C1368 1.334 . S
C1369 C1370 1.287 . S
C1370 C1369 1.287 . S
C1370 C1371 1.524 . S
C1370 H1389 0.913 . S
C1371 H1347 0.950 . S
C1371 C1370 1.524 . S
C1371 C1372 1.415 . S
C1372 H1348 0.950 . S
C1372 C1367 1.363 . S
C1372 C1371 1.415 . S
C1373 H1349 0.951 . S
C1373 C1374 1.366 . S
C1373 C1375 1.388 . S
C1374 C1373 1.366 . S
C1374 C1378 1.385 . S
C1375 H1350 0.951 . S
C1375 C1373 1.388 . S
C1375 C1376 1.366 . S
C1376 C1375 1.366 . S
C1376 C1377 1.414 . S
C1376 C1379 1.499 . S
C1377 H1351 0.950 . S
C1377 C1376 1.414 . S
C1377 C1378 1.374 . S
C1378 H1352 0.950 . S
C1378 C1374 1.385 . S
C1378 C1377 1.374 . S
C1379 C1376 1.499 . S
C1379 C1380 1.373 . S
C1379 C1381 1.389 . S
C1380 H1353 0.950 . S
C1380 C1366 1.377 . S
C1380 C1379 1.373 . S
C1381 C1365 1.377 . S
C1381 C1379 1.389 . S
C1381 C1382 1.524 . S
C1382 C1381 1.524 . S
C1382 C1383 1.397 . S
C1382 C1387 1.351 1_455 S
C1383 H1354 0.950 . S
C1383 C1382 1.397 . S
C1383 C1384 1.334 1_455 S
C1384 H1355 0.950 . S
C1384 C1383 1.334 1_655 S
C1384 C1385 1.287 . S
C1385 C1384 1.287 . S
C1385 C1386 1.524 . S
C1385 H1388 0.999 . S
C1386 H1356 0.950 . S
C1386 C1385 1.524 . S
C1386 C1387 1.439 . S
C1387 H1357 0.939 1_655 S
C1387 C1382 1.351 1_655 S
C1387 C1386 1.439 . S
H1388 C1385 0.999 . S
H1389 C1370 0.913 . S
H1390 C1408 0.951 . S
H1391 C1410 0.951 . S
H1392 C1412 0.950 . S
H1393 C1413 0.950 . S
H1394 C1415 0.950 . S
H1395 C1418 0.950 . S
H1396 C1419 0.950 . S
H1397 C1421 0.950 . S
H1398 C1422 0.950 . S
H1399 C1423 0.951 . S
H1400 C1425 0.951 . S
H1401 C1427 0.950 . S
H1402 C1428 0.950 . S
H1403 C1430 0.950 . S
H1404 C1433 0.950 . S
H1405 C1434 0.999 . S
H1406 C1436 0.950 . S
H1407 C1437 0.950 . S
C1408 H1390 0.951 . S
C1408 C1409 1.366 . S
C1408 C1410 1.388 . S
C1409 C1408 1.366 . S
C1409 C1413 1.385 . S
C1410 H1391 0.951 . S
C1410 C1408 1.388 . S
C1410 C1411 1.366 . S
C1411 C1410 1.366 . S
C1411 C1412 1.414 . S
C1411 C1414 1.499 . S
C1412 H1392 0.950 . S
C1412 C1411 1.414 . S
C1412 C1413 1.374 . S
C1413 H1393 0.950 . S
C1413 C1409 1.385 . S
C1413 C1412 1.374 . S
C1414 C1411 1.499 . S
C1414 C1415 1.373 . S
C1414 C1416 1.389 . S
C1415 H1394 0.950 . S
C1415 C1414 1.373 . S
C1415 C1431 1.377 . S
C1416 C1414 1.389 . S
C1416 C1417 1.524 . S
C1416 C1430 1.377 . S
C1417 C1416 1.524 . S
C1417 C1418 1.397 . S
C1417 C1422 1.363 . S
C1418 H1395 0.950 . S
C1418 C1417 1.397 . S
C1418 C1419 1.334 . S
C1419 H1396 0.950 . S
C1419 C1418 1.334 . S
C1419 C1420 1.287 1_545 S
C1420 C1419 1.287 1_565 S
C1420 C1421 1.524 . S
C1420 H1439 0.913 . S
C1421 H1397 0.950 . S
C1421 C1420 1.524 . S
C1421 C1422 1.415 1_565 S
C1422 H1398 0.950 . S
C1422 C1417 1.363 . S
C1422 C1421 1.415 1_545 S
C1423 H1399 0.951 . S
C1423 C1424 1.366 . S
C1423 C1425 1.388 . S
C1424 C1423 1.366 . S
C1424 C1428 1.385 . S
C1425 H1400 0.951 . S
C1425 C1423 1.388 . S
C1425 C1426 1.366 . S
C1426 C1425 1.366 . S
C1426 C1427 1.414 . S
C1426 C1429 1.499 . S
C1427 H1401 0.950 . S
C1427 C1426 1.414 . S
C1427 C1428 1.374 . S
C1428 H1402 0.950 . S
C1428 C1424 1.385 . S
C1428 C1427 1.374 . S
C1429 C1426 1.499 . S
C1429 C1430 1.373 . S
C1429 C1431 1.389 . S
C1430 H1403 0.950 . S
C1430 C1416 1.377 . S
C1430 C1429 1.373 . S
C1431 C1415 1.377 . S
C1431 C1429 1.389 . S
C1431 C1432 1.524 . S
C1432 C1431 1.524 . S
C1432 C1433 1.397 . S
C1432 C1437 1.363 . S
C1433 H1404 0.950 . S
C1433 C1432 1.397 . S
C1433 C1434 1.300 1_655 S
C1434 H1405 0.999 . S
C1434 C1433 1.300 1_455 S
C1434 C1435 1.272 1_455 S
C1435 C1434 1.272 1_655 S
C1435 C1436 1.524 . S
C1435 H1438 0.999 1_655 S
C1436 H1406 0.950 . S
C1436 C1435 1.524 . S
C1436 C1437 1.415 . S
C1437 H1407 0.950 . S
C1437 C1432 1.363 . S
C1437 C1436 1.415 . S
H1438 C1435 0.999 1_455 S
H1439 C1420 0.913 . S
H1440 C1458 0.951 1_545 S
H1441 C1460 0.951 1_545 S
H1442 C1462 0.950 . S
H1443 C1463 0.950 . S
H1444 C1465 0.950 . S
H1445 C1468 0.950 . S
H1446 C1469 0.950 . S
H1447 C1471 0.950 . S
H1448 C1472 0.950 . S
H1449 C1473 0.951 . S
H1450 C1475 0.951 . S
H1451 C1477 0.950 1_545 S
H1452 C1478 0.950 1_545 S
H1453 C1480 0.950 . S
H1454 C1483 0.950 . S
H1455 C1484 0.950 . S
H1456 C1486 0.950 . S
H1457 C1487 0.950 . S
C1458 H1440 0.951 1_565 S
C1458 C1459 1.366 . S
C1458 C1460 1.388 . S
C1459 C1458 1.366 . S
C1459 C1463 1.385 . S
C1460 H1441 0.951 1_565 S
C1460 C1458 1.388 . S
C1460 C1461 1.366 . S
C1461 C1460 1.366 . S
C1461 C1462 1.414 . S
C1461 C1464 1.499 . S
C1462 H1442 0.950 . S
C1462 C1461 1.414 . S
C1462 C1463 1.374 . S
C1463 H1443 0.950 . S
C1463 C1459 1.385 . S
C1463 C1462 1.374 . S
C1464 C1461 1.499 . S
C1464 C1465 1.373 . S
C1464 C1466 1.389 1_565 S
C1465 H1444 0.950 . S
C1465 C1464 1.373 . S
C1465 C1481 1.377 . S
C1466 C1464 1.389 1_545 S
C1466 C1467 1.524 . S
C1466 C1480 1.377 . S
C1467 C1466 1.524 . S
C1467 C1468 1.397 . S
C1467 C1472 1.363 . S
C1468 H1445 0.950 . S
C1468 C1467 1.397 . S
C1468 C1469 1.334 . S
C1469 H1446 0.950 . S
C1469 C1468 1.334 . S
C1469 C1470 1.287 . S
C1470 C1469 1.287 . S
C1470 C1471 1.524 . S
C1470 H1489 0.913 . S
C1471 H1447 0.950 . S
C1471 C1470 1.524 . S
C1471 C1472 1.415 . S
C1472 H1448 0.950 . S
C1472 C1467 1.363 . S
C1472 C1471 1.415 . S
C1473 H1449 0.951 . S
C1473 C1474 1.366 . S
C1473 C1475 1.388 . S
C1474 C1473 1.366 . S
C1474 C1478 1.385 . S
C1475 H1450 0.951 . S
C1475 C1473 1.388 . S
C1475 C1476 1.366 . S
C1476 C1475 1.366 . S
C1476 C1477 1.414 . S
C1476 C1479 1.499 . S
C1477 H1451 0.950 1_565 S
C1477 C1476 1.414 . S
C1477 C1478 1.374 . S
C1478 H1452 0.950 1_565 S
C1478 C1474 1.385 . S
C1478 C1477 1.374 . S
C1479 C1476 1.499 . S
C1479 C1480 1.373 1_565 S
C1479 C1481 1.389 . S
C1480 H1453 0.950 . S
C1480 C1466 1.377 . S
C1480 C1479 1.373 1_545 S
C1481 C1465 1.377 . S
C1481 C1479 1.389 . S
C1481 C1482 1.524 . S
C1482 C1481 1.524 . S
C1482 C1483 1.397 . S
C1482 C1487 1.363 . S
C1483 H1454 0.950 . S
C1483 C1482 1.397 . S
C1483 C1484 1.334 . S
C1484 H1455 0.950 . S
C1484 C1483 1.334 . S
C1484 C1485 1.287 . S
C1485 C1484 1.287 . S
C1485 C1486 1.524 . S
C1485 H1488 0.999 . S
C1486 H1456 0.950 . S
C1486 C1485 1.524 . S
C1486 C1487 1.415 . S
C1487 H1457 0.950 . S
C1487 C1482 1.363 . S
C1487 C1486 1.415 . S
H1488 C1485 0.999 . S
H1489 C1470 0.913 . S
H1490 C1508 0.951 . S
H1491 C1510 0.951 . S
H1492 C1512 0.950 . S
H1493 C1513 0.950 . S
H1494 C1515 0.950 . S
H1495 C1518 0.950 . S
H1496 C1519 0.950 . S
H1497 C1521 0.950 . S
H1498 C1522 0.950 . S
H1499 C1523 0.951 . S
H1500 C1525 0.951 . S
H1501 C1527 0.950 . S
H1502 C1528 0.950 . S
H1503 C1530 0.950 . S
H1504 C1533 0.950 . S
H1505 C1534 0.950 . S
H1506 C1536 0.950 . S
H1507 C1537 0.950 . S
C1508 H1490 0.951 . S
C1508 C1509 1.366 . S
C1508 C1510 1.388 . S
C1509 C1508 1.366 . S
C1509 C1513 1.385 . S
C1510 H1491 0.951 . S
C1510 C1508 1.388 . S
C1510 C1511 1.366 . S
C1511 C1510 1.366 . S
C1511 C1512 1.414 . S
C1511 C1514 1.499 . S
C1512 H1492 0.950 . S
C1512 C1511 1.414 . S
C1512 C1513 1.374 . S
C1513 H1493 0.950 . S
C1513 C1509 1.385 . S
C1513 C1512 1.374 . S
C1514 C1511 1.499 . S
C1514 C1515 1.373 . S
C1514 C1516 1.389 . S
C1515 H1494 0.950 . S
C1515 C1514 1.373 . S
C1515 C1531 1.377 . S
C1516 C1514 1.389 . S
C1516 C1517 1.524 . S
C1516 C1530 1.377 . S
C1517 C1516 1.524 . S
C1517 C1518 1.397 . S
C1517 C1522 1.363 . S
C1518 H1495 0.950 . S
C1518 C1517 1.397 . S
C1518 C1519 1.334 . S
C1519 H1496 0.950 . S
C1519 C1518 1.334 . S
C1519 C1520 1.287 . S
C1520 C1519 1.287 . S
C1520 C1521 1.524 . S
C1520 H1539 0.913 . S
C1521 H1497 0.950 . S
C1521 C1520 1.524 . S
C1521 C1522 1.415 . S
C1522 H1498 0.950 . S
C1522 C1517 1.363 . S
C1522 C1521 1.415 . S
C1523 H1499 0.951 . S
C1523 C1524 1.366 . S
C1523 C1525 1.388 . S
C1524 C1523 1.366 . S
C1524 C1528 1.385 . S
C1525 H1500 0.951 . S
C1525 C1523 1.388 . S
C1525 C1526 1.366 . S
C1526 C1525 1.366 . S
C1526 C1527 1.414 . S
C1526 C1529 1.499 . S
C1527 H1501 0.950 . S
C1527 C1526 1.414 . S
C1527 C1528 1.374 . S
C1528 H1502 0.950 . S
C1528 C1524 1.385 . S
C1528 C1527 1.374 . S
C1529 C1526 1.499 . S
C1529 C1530 1.373 . S
C1529 C1531 1.389 . S
C1530 H1503 0.950 . S
C1530 C1516 1.377 . S
C1530 C1529 1.373 . S
C1531 C1515 1.377 . S
C1531 C1529 1.389 . S
C1531 C1532 1.524 . S
C1532 C1531 1.524 . S
C1532 C1533 1.397 . S
C1532 C1537 1.363 . S
C1533 H1504 0.950 . S
C1533 C1532 1.397 . S
C1533 C1534 1.334 . S
C1534 H1505 0.950 . S
C1534 C1533 1.334 . S
C1534 C1535 1.287 . S
C1535 C1534 1.287 . S
C1535 C1536 1.524 . S
C1535 H1538 0.999 . S
C1536 H1506 0.950 . S
C1536 C1535 1.524 . S
C1536 C1537 1.415 . S
C1537 H1507 0.950 . S
C1537 C1532 1.363 . S
C1537 C1536 1.415 . S
H1538 C1535 0.999 . S
H1539 C1520 0.913 . S
H1540 C1558 0.951 . S
H1541 C1560 0.951 . S
H1542 C1562 0.950 . S
H1543 C1563 0.950 . S
H1544 C1565 0.950 . S
H1545 C1568 0.950 . S
H1546 C1569 0.950 . S
H1547 C1571 0.950 . S
H1548 C1572 0.950 . S
H1549 C1573 0.951 . S
H1550 C1575 0.951 . S
H1551 C1577 0.950 . S
H1552 C1578 0.950 . S
H1553 C1580 0.950 . S
H1554 C1583 0.950 . S
H1555 C1584 0.950 . S
H1556 C1586 0.950 . S
H1557 C1587 0.950 . S
C1558 H1540 0.951 . S
C1558 C1559 1.366 . S
C1558 C1560 1.388 . S
C1559 C1558 1.366 . S
C1559 C1563 1.385 . S
C1560 H1541 0.951 . S
C1560 C1558 1.388 . S
C1560 C1561 1.366 . S
C1561 C1560 1.366 . S
C1561 C1562 1.414 . S
C1561 C1564 1.499 . S
C1562 H1542 0.950 . S
C1562 C1561 1.414 . S
C1562 C1563 1.374 . S
C1563 H1543 0.950 . S
C1563 C1559 1.385 . S
C1563 C1562 1.374 . S
C1564 C1561 1.499 . S
C1564 C1565 1.373 . S
C1564 C1566 1.389 . S
C1565 H1544 0.950 . S
C1565 C1564 1.373 . S
C1565 C1581 1.377 . S
C1566 C1564 1.389 . S
C1566 C1567 1.524 . S
C1566 C1580 1.377 . S
C1567 C1566 1.524 . S
C1567 C1568 1.397 . S
C1567 C1572 1.363 . S
C1568 H1545 0.950 . S
C1568 C1567 1.397 . S
C1568 C1569 1.334 . S
C1569 H1546 0.950 . S
C1569 C1568 1.334 . S
C1569 C1570 1.287 . S
C1570 C1569 1.287 . S
C1570 C1571 1.524 . S
C1570 H1589 0.913 . S
C1571 H1547 0.950 . S
C1571 C1570 1.524 . S
C1571 C1572 1.415 . S
C1572 H1548 0.950 . S
C1572 C1567 1.363 . S
C1572 C1571 1.415 . S
C1573 H1549 0.951 . S
C1573 C1574 1.366 . S
C1573 C1575 1.388 . S
C1574 C1573 1.366 . S
C1574 C1578 1.385 . S
C1575 H1550 0.951 . S
C1575 C1573 1.388 . S
C1575 C1576 1.366 . S
C1576 C1575 1.366 . S
C1576 C1577 1.414 . S
C1576 C1579 1.499 . S
C1577 H1551 0.950 . S
C1577 C1576 1.414 . S
C1577 C1578 1.374 . S
C1578 H1552 0.950 . S
C1578 C1574 1.385 . S
C1578 C1577 1.374 . S
C1579 C1576 1.499 . S
C1579 C1580 1.373 . S
C1579 C1581 1.389 . S
C1580 H1553 0.950 . S
C1580 C1566 1.377 . S
C1580 C1579 1.373 . S
C1581 C1565 1.377 . S
C1581 C1579 1.389 . S
C1581 C1582 1.524 . S
C1582 C1581 1.524 . S
C1582 C1583 1.397 . S
C1582 C1587 1.363 . S
C1583 H1554 0.950 . S
C1583 C1582 1.397 . S
C1583 C1584 1.334 . S
C1584 H1555 0.950 . S
C1584 C1583 1.334 . S
C1584 C1585 1.287 . S
C1585 C1584 1.287 . S
C1585 C1586 1.524 . S
C1585 H1588 0.999 . S
C1586 H1556 0.950 . S
C1586 C1585 1.524 . S
C1586 C1587 1.415 . S
C1587 H1557 0.950 . S
C1587 C1582 1.363 . S
C1587 C1586 1.415 . S
H1588 C1585 0.999 . S
H1589 C1570 0.913 . S
H1590 C1608 0.951 1_455 S
H1591 C1610 0.951 1_455 S
H1592 C1612 0.950 . S
H1593 C1613 0.950 . S
H1594 C1615 0.950 . S
H1595 C1618 0.950 . S
H1596 C1619 0.950 . S
H1597 C1621 0.950 . S
H1598 C1622 0.950 . S
H1599 C1623 0.951 . S
H1600 C1625 0.951 . S
H1601 C1627 0.950 1_455 S
H1602 C1628 0.950 1_455 S
H1603 C1630 0.950 . S
H1604 C1633 0.950 . S
H1605 C1634 0.950 . S
H1606 C1636 0.950 . S
H1607 C1637 0.950 . S
C1608 H1590 0.951 1_655 S
C1608 C1609 1.366 . S
C1608 C1610 1.388 . S
C1609 C1608 1.366 . S
C1609 C1613 1.385 . S
C1610 H1591 0.951 1_655 S
C1610 C1608 1.388 . S
C1610 C1611 1.366 . S
C1611 C1610 1.366 . S
C1611 C1612 1.414 . S
C1611 C1614 1.499 . S
C1612 H1592 0.950 . S
C1612 C1611 1.414 . S
C1612 C1613 1.374 . S
C1613 H1593 0.950 . S
C1613 C1609 1.385 . S
C1613 C1612 1.374 . S
C1614 C1611 1.499 . S
C1614 C1615 1.373 . S
C1614 C1616 1.389 1_655 S
C1615 H1594 0.950 . S
C1615 C1614 1.373 . S
C1615 C1631 1.377 . S
C1616 C1614 1.389 1_455 S
C1616 C1617 1.524 . S
C1616 C1630 1.377 . S
C1617 C1616 1.524 . S
C1617 C1618 1.397 . S
C1617 C1622 1.363 . S
C1618 H1595 0.950 . S
C1618 C1617 1.397 . S
C1618 C1619 1.334 . S
C1619 H1596 0.950 . S
C1619 C1618 1.334 . S
C1619 C1620 1.287 . S
C1620 C1619 1.287 . S
C1620 C1621 1.524 . S
C1620 H1639 0.913 . S
C1621 H1597 0.950 . S
C1621 C1620 1.524 . S
C1621 C1622 1.415 . S
C1622 H1598 0.950 . S
C1622 C1617 1.363 . S
C1622 C1621 1.415 . S
C1623 H1599 0.951 . S
C1623 C1624 1.366 . S
C1623 C1625 1.388 . S
C1624 C1623 1.366 . S
C1624 C1628 1.385 . S
C1625 H1600 0.951 . S
C1625 C1623 1.388 . S
C1625 C1626 1.366 . S
C1626 C1625 1.366 . S
C1626 C1627 1.414 . S
C1626 C1629 1.499 . S
C1627 H1601 0.950 1_655 S
C1627 C1626 1.414 . S
C1627 C1628 1.374 . S
C1628 H1602 0.950 1_655 S
C1628 C1624 1.385 . S
C1628 C1627 1.374 . S
C1629 C1626 1.499 . S
C1629 C1630 1.373 1_655 S
C1629 C1631 1.389 . S
C1630 H1603 0.950 . S
C1630 C1616 1.377 . S
C1630 C1629 1.373 1_455 S
C1631 C1615 1.377 . S
C1631 C1629 1.389 . S
C1631 C1632 1.524 . S
C1632 C1631 1.524 . S
C1632 C1633 1.397 . S
C1632 C1637 1.363 . S
C1633 H1604 0.950 . S
C1633 C1632 1.397 . S
C1633 C1634 1.334 . S
C1634 H1605 0.950 . S
C1634 C1633 1.334 . S
C1634 C1635 1.287 . S
C1635 C1634 1.287 . S
C1635 C1636 1.524 . S
C1635 H1638 0.999 . S
C1636 H1606 0.950 . S
C1636 C1635 1.524 . S
C1636 C1637 1.415 . S
C1637 H1607 0.950 . S
C1637 C1632 1.363 . S
C1637 C1636 1.415 . S
H1638 C1635 0.999 . S
H1639 C1620 0.913 . S
H1640 C1658 0.951 . S
H1641 C1660 0.951 . S
H1642 C1662 0.950 . S
H1643 C1663 0.950 . S
H1644 C1665 0.950 . S
H1645 C1668 0.950 . S
H1646 C1669 0.950 . S
H1647 C1671 0.950 . S
H1648 C1672 0.950 . S
H1649 C1673 0.951 . S
H1650 C1675 0.951 . S
H1651 C1677 0.950 . S
H1652 C1678 0.950 . S
H1653 C1680 0.950 . S
H1654 C1683 0.950 1_545 S
H1655 C1684 0.950 . S
H1656 C1686 0.950 . S
H1657 C1687 0.950 . S
C1658 H1640 0.951 . S
C1658 C1659 1.366 . S
C1658 C1660 1.388 . S
C1659 C1658 1.366 . S
C1659 C1663 1.385 1_545 S
C1660 H1641 0.951 . S
C1660 C1658 1.388 . S
C1660 C1661 1.366 . S
C1661 C1660 1.366 . S
C1661 C1662 1.414 1_545 S
C1661 C1664 1.499 . S
C1662 H1642 0.950 . S
C1662 C1661 1.414 1_565 S
C1662 C1663 1.374 . S
C1663 H1643 0.950 . S
C1663 C1659 1.385 1_565 S
C1663 C1662 1.374 . S
C1664 C1661 1.499 . S
C1664 C1665 1.373 1_545 S
C1664 C1666 1.389 . S
C1665 H1644 0.950 . S
C1665 C1664 1.373 1_565 S
C1665 C1681 1.377 . S
C1666 C1664 1.389 . S
C1666 C1667 1.524 . S
C1666 C1680 1.377 . S
C1667 C1666 1.524 . S
C1667 C1668 1.397 . S
C1667 C1672 1.363 . S
C1668 H1645 0.950 . S
C1668 C1667 1.397 . S
C1668 C1669 1.334 . S
C1669 H1646 0.950 . S
C1669 C1668 1.334 . S
C1669 C1670 1.287 . S
C1670 C1669 1.287 . S
C1670 C1671 1.524 . S
C1670 H1689 0.913 . S
C1671 H1647 0.950 . S
C1671 C1670 1.524 . S
C1671 C1672 1.415 . S
C1672 H1648 0.950 . S
C1672 C1667 1.363 . S
C1672 C1671 1.415 . S
C1673 H1649 0.951 . S
C1673 C1674 1.366 1_565 S
C1673 C1675 1.388 . S
C1674 C1673 1.366 1_545 S
C1674 C1678 1.385 . S
C1675 H1650 0.951 . S
C1675 C1673 1.388 . S
C1675 C1676 1.366 1_565 S
C1676 C1675 1.366 1_545 S
C1676 C1677 1.414 . S
C1676 C1679 1.499 . S
C1677 H1651 0.950 . S
C1677 C1676 1.414 . S
C1677 C1678 1.374 . S
C1678 H1652 0.950 . S
C1678 C1674 1.385 . S
C1678 C1677 1.374 . S
C1679 C1676 1.499 . S
C1679 C1680 1.373 . S
C1679 C1681 1.389 1_545 S
C1680 H1653 0.950 . S
C1680 C1666 1.377 . S
C1680 C1679 1.373 . S
C1681 C1665 1.377 . S
C1681 C1679 1.389 1_565 S
C1681 C1682 1.524 . S
C1682 C1681 1.524 . S
C1682 C1683 1.397 . S
C1682 C1687 1.363 . S
C1683 H1654 0.950 1_565 S
C1683 C1682 1.397 . S
C1683 C1684 1.334 . S
C1684 H1655 0.950 . S
C1684 C1683 1.334 . S
C1684 C1685 1.287 . S
C1685 C1684 1.287 . S
C1685 C1686 1.524 . S
C1685 H1688 0.999 . S
C1686 H1656 0.950 . S
C1686 C1685 1.524 . S
C1686 C1687 1.415 . S
C1687 H1657 0.950 . S
C1687 C1682 1.363 . S
C1687 C1686 1.415 . S
H1688 C1685 0.999 . S
H1689 C1670 0.913 . S
H1690 C1708 0.951 . S
H1691 C1710 0.951 . S
H1692 C1712 0.950 . S
H1693 C1713 0.950 . S
H1694 C1715 0.950 . S
H1695 C1718 0.950 . S
H1696 C1719 0.950 . S
H1697 C1721 0.950 . S
H1698 C1722 0.950 . S
H1699 C1723 0.951 . S
H1700 C1725 0.951 . S
H1701 C1727 0.950 . S
H1702 C1728 0.950 . S
H1703 C1730 0.950 . S
H1704 C1733 0.950 . S
H1705 C1734 0.950 . S
H1706 C1736 0.950 . S
H1707 C1737 0.950 . S
C1708 H1690 0.951 . S
C1708 C1709 1.366 . S
C1708 C1710 1.388 . S
C1709 C1708 1.366 . S
C1709 C1713 1.385 . S
C1710 H1691 0.951 . S
C1710 C1708 1.388 . S
C1710 C1711 1.366 . S
C1711 C1710 1.366 . S
C1711 C1712 1.414 . S
C1711 C1714 1.499 . S
C1712 H1692 0.950 . S
C1712 C1711 1.414 . S
C1712 C1713 1.374 . S
C1713 H1693 0.950 . S
C1713 C1709 1.385 . S
C1713 C1712 1.374 . S
C1714 C1711 1.499 . S
C1714 C1715 1.373 . S
C1714 C1716 1.389 . S
C1715 H1694 0.950 . S
C1715 C1714 1.373 . S
C1715 C1731 1.377 . S
C1716 C1714 1.389 . S
C1716 C1717 1.524 . S
C1716 C1730 1.377 . S
C1717 C1716 1.524 . S
C1717 C1718 1.397 . S
C1717 C1722 1.363 . S
C1718 H1695 0.950 . S
C1718 C1717 1.397 . S
C1718 C1719 1.334 . S
C1719 H1696 0.950 . S
C1719 C1718 1.334 . S
C1719 C1720 1.287 . S
C1720 C1719 1.287 . S
C1720 C1721 1.524 . S
C1720 H1739 0.913 . S
C1721 H1697 0.950 . S
C1721 C1720 1.524 . S
C1721 C1722 1.415 . S
C1722 H1698 0.950 . S
C1722 C1717 1.363 . S
C1722 C1721 1.415 . S
C1723 H1699 0.951 . S
C1723 C1724 1.366 . S
C1723 C1725 1.388 . S
C1724 C1723 1.366 . S
C1724 C1728 1.385 . S
C1725 H1700 0.951 . S
C1725 C1723 1.388 . S
C1725 C1726 1.366 . S
C1726 C1725 1.366 . S
C1726 C1727 1.414 . S
C1726 C1729 1.499 . S
C1727 H1701 0.950 . S
C1727 C1726 1.414 . S
C1727 C1728 1.374 . S
C1728 H1702 0.950 . S
C1728 C1724 1.385 . S
C1728 C1727 1.374 . S
C1729 C1726 1.499 . S
C1729 C1730 1.373 . S
C1729 C1731 1.389 . S
C1730 H1703 0.950 . S
C1730 C1716 1.377 . S
C1730 C1729 1.373 . S
C1731 C1715 1.377 . S
C1731 C1729 1.389 . S
C1731 C1732 1.524 . S
C1732 C1731 1.524 . S
C1732 C1733 1.397 . S
C1732 C1737 1.363 . S
C1733 H1704 0.950 . S
C1733 C1732 1.397 . S
C1733 C1734 1.334 . S
C1734 H1705 0.950 . S
C1734 C1733 1.334 . S
C1734 C1735 1.287 . S
C1735 C1734 1.287 . S
C1735 C1736 1.524 . S
C1735 H1738 0.999 . S
C1736 H1706 0.950 . S
C1736 C1735 1.524 . S
C1736 C1737 1.415 . S
C1737 H1707 0.950 . S
C1737 C1732 1.363 . S
C1737 C1736 1.415 . S
H1738 C1735 0.999 . S
H1739 C1720 0.913 . S
H1740 C1758 0.951 . S
H1741 C1760 0.951 . S
H1742 C1762 0.950 . S
H1743 C1763 0.950 . S
H1744 C1765 0.950 . S
H1745 C1768 0.950 . S
H1746 C1769 0.950 . S
H1747 C1771 0.950 . S
H1748 C1772 0.950 . S
H1749 C1773 0.951 . S
H1750 C1775 0.951 . S
H1751 C1777 0.950 . S
H1752 C1778 0.950 . S
H1753 C1780 0.950 . S
H1754 C1783 0.950 . S
H1755 C1784 0.950 . S
H1756 C1786 0.950 . S
H1757 C1787 0.950 . S
C1758 H1740 0.951 . S
C1758 C1759 1.366 . S
C1758 C1760 1.388 . S
C1759 C1758 1.366 . S
C1759 C1763 1.385 . S
C1760 H1741 0.951 . S
C1760 C1758 1.388 . S
C1760 C1761 1.366 . S
C1761 C1760 1.366 . S
C1761 C1762 1.414 . S
C1761 C1764 1.499 . S
C1762 H1742 0.950 . S
C1762 C1761 1.414 . S
C1762 C1763 1.374 . S
C1763 H1743 0.950 . S
C1763 C1759 1.385 . S
C1763 C1762 1.374 . S
C1764 C1761 1.499 . S
C1764 C1765 1.373 . S
C1764 C1766 1.389 . S
C1765 H1744 0.950 . S
C1765 C1764 1.373 . S
C1765 C1781 1.377 . S
C1766 C1764 1.389 . S
C1766 C1767 1.524 . S
C1766 C1780 1.377 . S
C1767 C1766 1.524 . S
C1767 C1768 1.397 . S
C1767 C1772 1.363 . S
C1768 H1745 0.950 . S
C1768 C1767 1.397 . S
C1768 C1769 1.334 . S
C1769 H1746 0.950 . S
C1769 C1768 1.334 . S
C1769 C1770 1.287 . S
C1770 C1769 1.287 . S
C1770 C1771 1.524 . S
C1770 H1789 0.913 . S
C1771 H1747 0.950 . S
C1771 C1770 1.524 . S
C1771 C1772 1.415 . S
C1772 H1748 0.950 . S
C1772 C1767 1.363 . S
C1772 C1771 1.415 . S
C1773 H1749 0.951 . S
C1773 C1774 1.366 . S
C1773 C1775 1.388 . S
C1774 C1773 1.366 . S
C1774 C1778 1.385 . S
C1775 H1750 0.951 . S
C1775 C1773 1.388 . S
C1775 C1776 1.366 . S
C1776 C1775 1.366 . S
C1776 C1777 1.414 . S
C1776 C1779 1.499 . S
C1777 H1751 0.950 . S
C1777 C1776 1.414 . S
C1777 C1778 1.374 . S
C1778 H1752 0.950 . S
C1778 C1774 1.385 . S
C1778 C1777 1.374 . S
C1779 C1776 1.499 . S
C1779 C1780 1.373 . S
C1779 C1781 1.389 . S
C1780 H1753 0.950 . S
C1780 C1766 1.377 . S
C1780 C1779 1.373 . S
C1781 C1765 1.377 . S
C1781 C1779 1.389 . S
C1781 C1782 1.524 . S
C1782 C1781 1.524 . S
C1782 C1783 1.397 . S
C1782 C1787 1.363 . S
C1783 H1754 0.950 . S
C1783 C1782 1.397 . S
C1783 C1784 1.334 . S
C1784 H1755 0.950 . S
C1784 C1783 1.334 . S
C1784 C1785 1.287 . S
C1785 C1784 1.287 . S
C1785 C1786 1.524 . S
C1785 H1788 0.999 . S
C1786 H1756 0.950 . S
C1786 C1785 1.524 . S
C1786 C1787 1.415 . S
C1787 H1757 0.950 . S
C1787 C1782 1.363 . S
C1787 C1786 1.415 . S
H1788 C1785 0.999 . S
H1789 C1770 0.913 . S
H1790 C1808 0.951 . S
H1791 C1810 0.951 . S
H1792 C1812 0.950 . S
H1793 C1813 0.950 . S
H1794 C1815 0.950 . S
H1795 C1818 0.950 . S
H1796 C1819 0.950 . S
H1797 C1821 0.950 . S
H1798 C1822 0.950 . S
H1799 C1823 0.951 . S
H1800 C1825 0.951 . S
H1801 C1827 0.950 . S
H1802 C1828 0.950 . S
H1803 C1830 0.947 1_655 S
H1804 C1833 0.950 1_655 S
H1805 C1834 0.950 . S
H1806 C1836 0.950 . S
H1807 C1837 0.950 . S
C1808 H1790 0.951 . S
C1808 C1809 1.366 1_655 S
C1808 C1810 1.388 . S
C1809 C1808 1.366 1_455 S
C1809 C1813 1.385 . S
C1810 H1791 0.951 . S
C1810 C1808 1.388 . S
C1810 C1811 1.366 1_655 S
C1811 C1810 1.366 1_455 S
C1811 C1812 1.414 . S
C1811 C1814 1.499 . S
C1812 H1792 0.950 . S
C1812 C1811 1.414 . S
C1812 C1813 1.374 . S
C1813 H1793 0.950 . S
C1813 C1809 1.385 . S
C1813 C1812 1.374 . S
C1814 C1811 1.499 . S
C1814 C1815 1.373 . S
C1814 C1816 1.389 . S
C1815 H1794 0.950 . S
C1815 C1814 1.373 . S
C1815 C1831 1.377 . S
C1816 C1814 1.389 . S
C1816 C1817 1.527 . S
C1816 C1830 1.377 . S
C1817 C1816 1.527 . S
C1817 C1818 1.402 . S
C1817 C1822 1.356 1_455 S
C1818 H1795 0.950 . S
C1818 C1817 1.402 . S
C1818 C1819 1.334 . S
C1819 H1796 0.950 . S
C1819 C1818 1.334 . S
C1819 C1820 1.287 1_455 S
C1820 C1819 1.287 1_655 S
C1820 C1821 1.524 . S
C1820 H1839 0.913 . S
C1821 H1797 0.950 . S
C1821 C1820 1.524 . S
C1821 C1822 1.415 . S
C1822 H1798 0.950 . S
C1822 C1817 1.356 1_655 S
C1822 C1821 1.415 . S
C1823 H1799 0.951 . S
C1823 C1824 1.366 . S
C1823 C1825 1.388 . S
C1824 C1823 1.366 . S
C1824 C1828 1.385 1_455 S
C1825 H1800 0.951 . S
C1825 C1823 1.388 . S
C1825 C1826 1.366 . S
C1826 C1825 1.366 . S
C1826 C1827 1.414 1_455 S
C1826 C1829 1.499 . S
C1827 H1801 0.950 . S
C1827 C1826 1.414 1_655 S
C1827 C1828 1.374 . S
C1828 H1802 0.950 . S
C1828 C1824 1.385 1_655 S
C1828 C1827 1.374 . S
C1829 C1826 1.499 . S
C1829 C1830 1.373 . S
C1829 C1831 1.389 . S
C1830 H1803 0.947 1_455 S
C1830 C1816 1.377 . S
C1830 C1829 1.373 . S
C1831 C1815 1.377 . S
C1831 C1829 1.389 . S
C1831 C1832 1.524 . S
C1832 C1831 1.524 . S
C1832 C1833 1.397 . S
C1832 C1837 1.363 . S
C1833 H1804 0.950 1_455 S
C1833 C1832 1.397 . S
C1833 C1834 1.334 . S
C1834 H1805 0.950 . S
C1834 C1833 1.334 . S
C1834 C1835 1.287 . S
C1835 C1834 1.287 . S
C1835 C1836 1.524 . S
C1835 H1838 0.999 . S
C1836 H1806 0.950 . S
C1836 C1835 1.524 . S
C1836 C1837 1.415 . S
C1837 H1807 0.950 . S
C1837 C1832 1.363 . S
C1837 C1836 1.415 . S
H1838 C1835 0.999 . S
H1839 C1820 0.913 . S
C659 C335 1.464 . S
C674 C15 1.462 . S
C709 C55 1.924 . S
C724 C375 1.932 . S
C759 C415 2.119 . S
C774 C95 2.109 . S
C809 C135 1.559 . S
C824 C455 1.563 . S
C859 C175 1.560 . S
C874 C495 1.563 . S
C909 C535 2.119 . S
C924 C215 2.109 . S
C959 C575 1.932 . S
C974 C255 1.924 . S
C1009 C615 1.465 . S
C1024 C295 1.462 . S
C1059 C21 1.685 . S
C1074 C221 1.642 . S
C1109 C261 1.749 . S
C1124 C61 1.750 . S
C1159 C301 1.685 . S
C1174 C101 1.642 . S
C1209 C141 1.541 . S
C1224 C181 1.535 . S
C1259 C341 1.706 . S
C1274 C541 1.706 . S
C1309 C581 1.803 . S
C1324 C381 1.803 . S
C1359 C421 1.709 . S
C1374 C621 1.702 . S
C1409 C501 1.563 . S
C1424 C461 1.556 . S
C1459 C482 1.470 . S
C1474 C2 1.455 . S
C1509 C522 1.933 . S
C1524 C42 1.893 . S
C1559 C82 1.885 . S
C1574 C562 1.932 . S
C1609 C602 1.470 . S
C1624 C122 1.453 . S
C1659 C162 1.453 . S
C1674 C322 1.470 . S
C1709 C362 1.932 . S
C1724 C202 1.885 . S
C1759 C402 1.933 . S
C1774 C242 1.893 . S
C1809 C442 1.470 . S
C1824 C282 1.455 . S
