# Generated by pormake.
# Topology neb, (4)-cn, num edge types: 1
# Building blocks:
#     Node 0, Type 0, BuildingBlock: AZAVOO_clean_sbu_0, # of connection points: 4
#     Node 1, Type 0, BuildingBlock: AZAVOO_clean_sbu_0, # of connection points: 4
#     Node 2, Type 0, BuildingBlock: AZAVOO_clean_sbu_0, # of connection points: 4
#     Node 3, Type 0, BuildingBlock: AZAVOO_clean_sbu_0, # of connection points: 4
#     Node 4, Type 0, BuildingBlock: AZAVOO_clean_sbu_0, # of connection points: 4
#     Node 5, Type 0, BuildingBlock: AZAVOO_clean_sbu_0, # of connection points: 4
#     Node 6, Type 0, BuildingBlock: AZAVOO_clean_sbu_0, # of connection points: 4
#     Node 7, Type 0, BuildingBlock: AZAVOO_clean_sbu_0, # of connection points: 4
#     Node 8, Type 0, BuildingBlock: AZAVOO_clean_sbu_0, # of connection points: 4
#     Node 9, Type 0, BuildingBlock: AZAVOO_clean_sbu_0, # of connection points: 4
#     Node 10, Type 0, BuildingBlock: AZAVOO_clean_sbu_0, # of connection points: 4
#     Node 11, Type 0, BuildingBlock: AZAVOO_clean_sbu_0, # of connection points: 4
#     Node 12, Type 0, BuildingBlock: AZAVOO_clean_sbu_0, # of connection points: 4
#     Node 13, Type 0, BuildingBlock: AZAVOO_clean_sbu_0, # of connection points: 4
#     Node 14, Type 0, BuildingBlock: AZAVOO_clean_sbu_0, # of connection points: 4
#     Node 15, Type 0, BuildingBlock: AZAVOO_clean_sbu_0, # of connection points: 4
#     Edge 16, Type (0, 0), BuildingBlock: OJICUG_clean_linker_0, # of connection points: 2
#     Edge 17, Type (0, 0), BuildingBlock: OJICUG_clean_linker_0, # of connection points: 2
#     Edge 18, Type (0, 0), BuildingBlock: OJICUG_clean_linker_0, # of connection points: 2
#     Edge 19, Type (0, 0), BuildingBlock: OJICUG_clean_linker_0, # of connection points: 2
#     Edge 20, Type (0, 0), BuildingBlock: OJICUG_clean_linker_0, # of connection points: 2
#     Edge 21, Type (0, 0), BuildingBlock: OJICUG_clean_linker_0, # of connection points: 2
#     Edge 22, Type (0, 0), BuildingBlock: OJICUG_clean_linker_0, # of connection points: 2
#     Edge 23, Type (0, 0), BuildingBlock: OJICUG_clean_linker_0, # of connection points: 2
#     Edge 24, Type (0, 0), BuildingBlock: OJICUG_clean_linker_0, # of connection points: 2
#     Edge 25, Type (0, 0), BuildingBlock: OJICUG_clean_linker_0, # of connection points: 2
#     Edge 26, Type (0, 0), BuildingBlock: OJICUG_clean_linker_0, # of connection points: 2
#     Edge 27, Type (0, 0), BuildingBlock: OJICUG_clean_linker_0, # of connection points: 2
#     Edge 28, Type (0, 0), BuildingBlock: OJICUG_clean_linker_0, # of connection points: 2
#     Edge 29, Type (0, 0), BuildingBlock: OJICUG_clean_linker_0, # of connection points: 2
#     Edge 30, Type (0, 0), BuildingBlock: OJICUG_clean_linker_0, # of connection points: 2
#     Edge 31, Type (0, 0), BuildingBlock: OJICUG_clean_linker_0, # of connection points: 2
#     Edge 32, Type (0, 0), BuildingBlock: OJICUG_clean_linker_0, # of connection points: 2
#     Edge 33, Type (0, 0), BuildingBlock: OJICUG_clean_linker_0, # of connection points: 2
#     Edge 34, Type (0, 0), BuildingBlock: OJICUG_clean_linker_0, # of connection points: 2
#     Edge 35, Type (0, 0), BuildingBlock: OJICUG_clean_linker_0, # of connection points: 2
#     Edge 36, Type (0, 0), BuildingBlock: OJICUG_clean_linker_0, # of connection points: 2
#     Edge 37, Type (0, 0), BuildingBlock: OJICUG_clean_linker_0, # of connection points: 2
#     Edge 38, Type (0, 0), BuildingBlock: OJICUG_clean_linker_0, # of connection points: 2
#     Edge 39, Type (0, 0), BuildingBlock: OJICUG_clean_linker_0, # of connection points: 2
#     Edge 40, Type (0, 0), BuildingBlock: OJICUG_clean_linker_0, # of connection points: 2
#     Edge 41, Type (0, 0), BuildingBlock: OJICUG_clean_linker_0, # of connection points: 2
#     Edge 42, Type (0, 0), BuildingBlock: OJICUG_clean_linker_0, # of connection points: 2
#     Edge 43, Type (0, 0), BuildingBlock: OJICUG_clean_linker_0, # of connection points: 2
#     Edge 44, Type (0, 0), BuildingBlock: OJICUG_clean_linker_0, # of connection points: 2
#     Edge 45, Type (0, 0), BuildingBlock: OJICUG_clean_linker_0, # of connection points: 2
#     Edge 46, Type (0, 0), BuildingBlock: OJICUG_clean_linker_0, # of connection points: 2
#     Edge 47, Type (0, 0), BuildingBlock: OJICUG_clean_linker_0, # of connection points: 2
# Relax obj value: 0.091
# Max RMSD: 0.142
# Mean RMSD: 0.142
data_MOF--net-neb--node1-AZAVOO_clean_sbu_0--edge1-OJICUG_clean_linker_0
_symmetry_space_group_name_H-M    P1
_symmetry_Int_Tables_number       1
_symmetry_cell_setting            triclinic
loop_
_symmetry_equiv_pos_as_xyz
'x, y, z'
_cell_length_a     35.902498
_cell_length_b     14.447647
_cell_length_c     55.722271
_cell_angle_alpha  102.31742
_cell_angle_beta   89.882918
_cell_angle_gamma 89.861396
loop_
_atom_site_label
_atom_site_type_symbol
_atom_site_fract_x
_atom_site_fract_y
_atom_site_fract_z
_atom_type_partial_charge
Mg0 Mg 0.10146 0.27126 0.44183 0.0
O1 O 0.11167 0.15121 0.40827 0.0
O2 O 0.15313 0.19867 0.38344 0.0
Mg3 Mg 0.16589 0.35494 0.39998 0.0
C4 C 0.13178 0.13571 0.38892 0.0
C5 C 0.04586 0.11964 0.4513 0.0
O6 O 0.03404 0.13444 0.43013 0.0
O7 O 0.15966 0.24785 0.45661 0.0
O8 O 0.19646 0.30858 0.4314 0.0
O9 O 0.05497 0.32617 0.42176 0.0
O10 O 0.11381 0.37059 0.42142 0.0
C11 C 0.19191 0.27081 0.44993 0.0
C12 C 0.08037 0.37493 0.41354 0.0
O13 O 0.07405 0.16523 0.4613 0.0
Mg14 Mg 0.13387 0.97696 0.76572 0.0
O15 O 0.14633 0.10022 0.79823 0.0
O16 O 0.18959 0.05302 0.82188 0.0
Mg17 Mg 0.20066 0.8948 0.80629 0.0
C18 C 0.16788 0.1163 0.81685 0.0
C19 C 0.07131 0.07089 0.74124 0.0
O20 O 0.05327 0.00313 0.7487 0.0
O21 O 0.19096 -0.00953 0.74829 0.0
O22 O 0.22925 0.92855 0.77242 0.0
O23 O 0.08837 0.92807 0.78775 0.0
O24 O 0.14699 0.88032 0.78671 0.0
C25 C 0.22334 0.96302 0.75347 0.0
C26 C 0.11394 0.87818 0.79544 0.0
O27 O 0.10607 0.07992 0.74537 0.0
Mg28 Mg 0.91276 0.70406 0.50799 0.0
O29 O 0.9026 0.8239 0.54162 0.0
O30 O 0.86113 0.77624 0.5664 0.0
Mg31 Mg 0.84834 0.62004 0.54978 0.0
C32 C 0.88249 0.83926 0.56097 0.0
C33 C 0.96837 0.85577 0.49856 0.0
O34 O 0.98021 0.84085 0.51971 0.0
O35 O 0.85456 0.72755 0.49323 0.0
O36 O 0.81776 0.66653 0.51838 0.0
O37 O 0.95927 0.64887 0.52798 0.0
O38 O 0.90043 0.60449 0.52834 0.0
C39 C 0.82232 0.70445 0.49987 0.0
C40 C 0.93388 0.60003 0.53618 0.0
O41 O 0.94015 0.81024 0.48856 0.0
Mg42 Mg 0.88293 0.01008 0.18591 0.0
O43 O 0.8711 0.88777 0.15308 0.0
O44 O 0.82821 0.93536 0.12924 0.0
Mg45 Mg 0.81684 0.09326 0.14511 0.0
C46 C 0.84988 0.87204 0.1343 0.0
C47 C 0.94521 0.91222 0.2097 0.0
O48 O 0.96385 0.97804 0.20181 0.0
O49 O 0.82555 -0.0049 0.20273 0.0
O50 O 0.78755 0.05754 0.17854 0.0
O51 O 0.92882 0.06015 0.16445 0.0
O52 O 0.8702 0.10767 0.1651 0.0
C53 C 0.79321 0.02218 0.19737 0.0
C54 C 0.90342 0.11022 0.15666 0.0
O55 O 0.91025 0.90604 0.20612 0.0
Mg56 Mg 0.11954 0.66098 0.91849 0.0
O57 O 0.13871 0.52058 0.89332 0.0
O58 O 0.18627 0.553 0.87039 0.0
Mg59 Mg 0.19371 0.71434 0.878 0.0
C60 C 0.16399 0.49442 0.87707 0.0
C61 C 0.05344 0.59606 0.94663 0.0
O62 O 0.03749 0.65954 0.93628 0.0
O63 O 0.17286 0.6733 0.9418 0.0
O64 O 0.21473 0.71814 0.91678 0.0
O65 O 0.07789 0.68123 0.88994 0.0
O66 O 0.13623 0.73149 0.89192 0.0
C67 C 0.20556 0.70157 0.93759 0.0
C68 C 0.10504 0.72015 0.88043 0.0
O69 O 0.0881 0.57982 0.94319 0.0
Mg70 Mg 0.0874 0.58659 0.28957 0.0
O71 O 0.1045 0.72597 0.31546 0.0
O72 O 0.1516 0.69522 0.3389 0.0
Mg73 Mg 0.16053 0.53407 0.33065 0.0
C74 C 0.12905 0.7529 0.33202 0.0
C75 C 0.02218 0.66495 0.26245 0.0
O76 O 1.00345 0.60625 0.27295 0.0
O77 O 0.14168 0.58242 0.2674 0.0
O78 O 0.1833 0.53895 0.29272 0.0
O79 O 0.04492 0.56246 0.31733 0.0
O80 O 0.10362 0.51435 0.31595 0.0
C81 C 0.17472 0.558 0.27208 0.0
C82 C 0.07204 0.52442 0.32712 0.0
O83 O 0.05726 0.67129 0.26537 0.0
Mg84 Mg 0.89941 0.3262 0.03352 0.0
O85 O 0.87992 0.467 0.05834 0.0
O86 O 0.83226 0.43504 0.08124 0.0
Mg87 Mg 0.82501 0.27371 0.07398 0.0
C88 C 0.85451 0.49346 0.07447 0.0
C89 C 0.96564 0.39062 0.00535 0.0
O90 O 0.98161 0.32749 0.01581 0.0
O91 O 0.84626 0.31269 0.01001 0.0
O92 O 0.80431 0.26854 0.03509 0.0
O93 O 0.94084 0.30727 0.06234 0.0
O94 O 0.88256 0.25658 0.06023 0.0
C95 C 0.81357 0.28441 0.01422 0.0
C96 C 0.91364 0.26852 0.07184 0.0
O97 O 0.93095 0.40672 0.00873 0.0
Mg98 Mg 0.92748 0.38861 0.66019 0.0
O99 O 0.91012 0.24886 0.63452 0.0
O100 O 0.86288 0.27943 0.61117 0.0
Mg101 Mg 0.85407 0.44062 0.61922 0.0
C102 C 0.88544 0.2218 0.61806 0.0
C103 C 0.99277 0.31371 0.68793 0.0
O104 O 0.01105 0.3745 0.67789 0.0
O105 O 0.87336 0.39398 0.68258 0.0
O106 O 0.83158 0.43726 0.65732 0.0
O107 O 0.96978 0.41188 0.63222 0.0
O108 O 0.9111 0.46022 0.63372 0.0
C109 C 0.84032 0.41876 0.67799 0.0
C110 C 0.9426 0.44983 0.62246 0.0
O111 O 0.95785 0.30466 0.6845 0.0
Mg112 Mg 0.62125 0.14055 0.91598 0.0
O113 O 0.63984 -0.00159 0.89128 0.0
O114 O 0.68754 0.02873 0.86816 0.0
Mg115 Mg 0.69566 0.18968 0.87512 0.0
C116 C 0.66509 0.97105 0.87506 0.0
C117 C 0.55538 0.08719 0.94592 0.0
O118 O 0.54112 0.15515 0.93642 0.0
O119 O 0.67457 0.1527 0.93926 0.0
O120 O 0.71662 0.19533 0.91401 0.0
O121 O 0.57962 0.16016 0.88741 0.0
O122 O 0.63821 0.20846 0.88897 0.0
C123 C 0.70735 0.18006 0.93494 0.0
C124 C 0.60691 0.19748 0.87761 0.0
O125 O 0.58919 0.06327 0.94124 0.0
Mg126 Mg 0.58556 0.0743 0.28475 0.0
O127 O 0.60172 0.2158 0.3103 0.0
O128 O 0.64856 0.18679 0.3342 0.0
Mg129 Mg 0.65819 0.02612 0.32682 0.0
C130 C 0.62605 0.2437 0.32697 0.0
C131 C 0.52049 0.17095 0.26219 0.0
O132 O 0.50257 0.14036 0.27955 0.0
O133 O 0.6403 0.06997 0.26298 0.0
O134 O 0.68148 0.02871 0.28891 0.0
O135 O 0.54274 0.05012 0.3124 0.0
O136 O 0.60167 0.00469 0.31171 0.0
C137 C 0.67327 0.04626 0.26805 0.0
C138 C 0.56989 0.01395 0.3226 0.0
O139 O 0.55522 0.15448 0.25941 0.0
Mg140 Mg 0.39771 0.84441 0.03621 0.0
O141 O 0.37898 0.98668 0.06079 0.0
O142 O 0.33108 0.95643 0.08376 0.0
Mg143 Mg 0.32295 0.7955 0.07684 0.0
C144 C 0.35361 0.01407 0.07692 0.0
C145 C 0.46384 0.89779 0.00642 0.0
O146 O 0.4781 0.82997 0.01597 0.0
O147 O 0.34458 0.83199 0.01271 0.0
O148 O 0.30234 0.7896 0.03787 0.0
O149 O 0.43907 0.82518 0.06498 0.0
O150 O 0.3805 0.77672 0.0632 0.0
C151 C 0.31175 0.80466 0.01695 0.0
C152 C 0.41168 0.78796 0.0747 0.0
O153 O 0.42999 0.92155 0.01101 0.0
Mg154 Mg 0.42959 0.90028 0.66465 0.0
O155 O 0.4125 0.76019 0.63896 0.0
O156 O 0.36576 0.79071 0.61522 0.0
Mg157 Mg 0.35711 0.9519 0.62296 0.0
C158 C 0.38808 0.73309 0.62233 0.0
C159 C 0.49472 0.81493 0.69017 0.0
O160 O 0.51385 0.86412 0.67712 0.0
O161 O 0.37498 0.90663 0.68664 0.0
O162 O 0.33389 0.94967 0.66092 0.0
O163 O 0.47241 0.92296 0.63687 0.0
O164 O 0.41381 0.97154 0.63797 0.0
C165 C 0.34212 0.93165 0.68172 0.0
C166 C 0.44546 0.96092 0.62691 0.0
O167 O 0.45933 0.81674 0.68938 0.0
Mg168 Mg 0.60035 0.76276 0.43719 0.0
O169 O 0.60947 0.64184 0.40358 0.0
O170 O 0.65046 0.68907 0.37841 0.0
Mg171 Mg 0.66382 0.84522 0.39466 0.0
C172 C 0.62917 0.62626 0.38404 0.0
C173 C 0.54446 0.61455 0.44881 0.0
O174 O 0.53081 0.62925 0.42808 0.0
O175 O 0.65886 0.73919 0.45131 0.0
O176 O 0.69537 0.79935 0.42584 0.0
O177 O 0.55332 0.81781 0.41763 0.0
O178 O 0.61219 0.86136 0.41656 0.0
C179 C 0.69103 0.76178 0.44443 0.0
C180 C 0.57855 0.8661 0.40909 0.0
O181 O 0.57374 0.65846 0.45752 0.0
Mg182 Mg 0.63357 0.45682 0.76326 0.0
O183 O 0.64629 0.5783 0.79615 0.0
O184 O 0.69002 0.52979 0.81924 0.0
Mg185 Mg 0.70118 0.37216 0.80291 0.0
C186 C 0.66807 0.59341 0.81465 0.0
C187 C 0.57034 0.56944 0.74407 0.0
O188 O 0.55089 0.51669 0.75598 0.0
O189 O 0.69036 0.47196 0.74567 0.0
O190 O 0.72923 0.4086 0.76916 0.0
O191 O 0.58853 0.40576 0.78523 0.0
O192 O 0.64721 0.35839 0.78366 0.0
C193 C 0.7229 0.44444 0.7505 0.0
C194 C 0.61432 0.35557 0.79258 0.0
O195 O 0.60565 0.56198 0.7436 0.0
Mg196 Mg 0.41399 0.21297 0.51247 0.0
O197 O 0.40471 0.33426 0.54596 0.0
O198 O 0.3637 0.28738 0.57118 0.0
Mg199 Mg 0.35063 0.13088 0.55513 0.0
C200 C 0.38491 0.35014 0.56546 0.0
C201 C 0.46974 0.36113 0.50074 0.0
O202 O 0.48336 0.34666 0.5215 0.0
O203 O 0.35545 0.23593 0.49832 0.0
O204 O 0.31901 0.17595 0.52387 0.0
O205 O 0.46113 0.15855 0.5321 0.0
O206 O 0.4023 0.11472 0.53324 0.0
C207 C 0.32331 0.21327 0.50523 0.0
C208 C 0.43597 0.11019 0.54069 0.0
O209 O 0.44049 0.31706 0.49203 0.0
Mg210 Mg 0.38295 0.52952 0.18888 0.0
O211 O 0.37135 0.40744 0.15588 0.0
O212 O 0.32791 0.45518 0.13243 0.0
Mg213 Mg 0.31607 0.6126 0.14857 0.0
C214 C 0.3499 0.39195 0.1372 0.0
C215 C 0.44366 0.39744 0.20369 0.0
O216 O 0.46118 0.42626 0.1859 0.0
O217 O 0.32584 0.51267 0.20575 0.0
O218 O 0.28722 0.5754 0.18199 0.0
O219 O 0.42852 0.58166 0.16757 0.0
O220 O 0.36965 0.62729 0.16828 0.0
C221 C 0.29331 0.53935 0.20065 0.0
C222 C 0.40279 0.63096 0.15981 0.0
O223 O 0.41057 0.42607 0.20911 0.0
C224 C 0.29264 0.26765 0.4702 0.0
C225 C 0.28971 0.22879 0.49116 0.0
H226 H 0.26431 0.31094 0.44079 0.0
C227 C 0.25422 0.20328 0.49842 0.0
H228 H 0.31945 0.28793 0.46405 0.0
C229 C 0.22246 0.21629 0.48504 0.0
C230 C 0.22541 0.25516 0.46408 0.0
H231 H 0.25086 0.17298 0.51447 0.0
H232 H 0.19563 0.19603 0.49118 0.0
C233 C 0.2609 0.28065 0.45684 0.0
C234 C 0.97604 0.93881 0.46366 0.0
C235 C 0.98805 0.92354 0.48649 0.0
H236 H 0.98487 0.01238 0.43465 0.0
C237 C 0.01933 0.97318 0.49764 0.0
H238 H 0.95207 0.90168 0.45456 0.0
C239 C 0.03818 0.03664 0.48621 0.0
C240 C 0.02617 0.05191 0.46338 0.0
H241 H 0.02934 0.96306 0.51522 0.0
H242 H 0.06215 0.07377 0.49531 0.0
C243 C 0.99489 0.00227 0.45223 0.0
C244 C 0.27691 0.97644 0.69571 0.0
C245 C 0.31235 0.94276 0.70062 0.0
H246 H 0.22134 0.0106 0.70851 0.0
C247 C 0.31882 0.92127 0.72367 0.0
H248 H 0.27091 -0.00542 0.67824 0.0
C249 C 0.29025 0.93097 0.74114 0.0
C250 C 0.25456 0.96252 0.73597 0.0
H251 H 0.3458 0.89588 0.72815 0.0
H252 H 0.29603 0.91198 0.75854 0.0
C253 C 0.24842 0.98633 0.71317 0.0
C254 C 0.07043 0.20491 0.719 0.0
C255 C 0.05129 0.13471 0.72806 0.0
H256 H 0.06699 0.31661 0.69927 0.0
C257 C 0.01267 0.12532 0.72425 0.0
H258 H 0.10018 0.21409 0.72165 0.0
C259 C 0.99364 0.18416 0.7115 0.0
C260 C 0.0128 0.25368 0.7022 0.0
H261 H 0.99703 0.07213 0.73103 0.0
H262 H 0.96392 0.17446 0.70875 0.0
C263 C 0.05138 0.26371 0.70618 0.0
C264 C 0.79183 0.75887 0.46473 0.0
C265 C 0.78884 0.72 0.48568 0.0
H266 H 0.7635 0.80211 0.43526 0.0
C267 C 0.75334 0.69435 0.49288 0.0
H268 H 0.81866 0.77923 0.45862 0.0
C269 C 0.72163 0.70724 0.47946 0.0
C270 C 0.72461 0.74614 0.45852 0.0
H271 H 0.74989 0.66404 0.50892 0.0
H272 H 0.69481 0.68688 0.48558 0.0
C273 C 0.7601 0.77176 0.4513 0.0
C274 C 0.69711 0.05967 0.22644 0.0
C275 C 0.70328 0.03663 0.24935 0.0
H276 H 0.72045 0.07215 0.19195 0.0
C277 C 0.73872 0.00329 0.25436 0.0
H278 H 0.67014 0.08491 0.2219 0.0
C279 C 0.76752 -0.00467 0.23717 0.0
C280 C 0.76169 0.0208 0.21453 0.0
H281 H 0.74449 0.98395 0.27172 0.0
H282 H 0.79457 0.97124 0.24191 0.0
C283 C 0.726 0.05194 0.20924 0.0
C284 C 1.0036 0.85345 0.22595 0.0
C285 C 0.96479 0.84722 0.22273 0.0
H286 H 0.05212 0.80078 0.24086 0.0
C287 C 0.94507 0.77903 0.23222 0.0
H288 H 0.01968 0.90503 0.21884 0.0
C289 C 0.96373 0.71911 0.2449 0.0
C290 C 1.00251 0.72601 0.2483 0.0
H291 H 0.91516 0.7723 0.23002 0.0
H292 H 0.94769 0.66784 0.25216 0.0
C293 C 0.02224 0.7935 0.23856 0.0
C294 C 0.24846 0.74917 0.00117 0.0
C295 C 0.28432 0.78139 -0.00331 0.0
H296 H 0.19576 0.69743 -0.01383 0.0
C297 C 0.29423 0.78471 0.97251 0.0
H298 H 0.23983 0.74513 0.01956 0.0
C299 C 0.26895 0.75649 0.95332 0.0
C300 C 0.23308 0.72435 0.95781 0.0
H301 H 0.32164 0.80826 0.96833 0.0
H302 H 0.27756 0.76057 0.93494 0.0
C303 C 0.22318 0.72092 -0.01802 0.0
C304 C 0.04766 0.47457 0.97263 0.0
C305 C 0.03108 0.5436 0.96173 0.0
H306 H 0.04007 0.37217 -0.00515 0.0
C307 C 0.99271 0.56171 0.96524 0.0
H308 H 0.07712 0.45877 0.97028 0.0
C309 C 0.97142 0.51197 -0.02068 0.0
C310 C 0.988 0.44296 -0.00978 0.0
H311 H 0.97901 0.61438 0.9571 0.0
H312 H 0.94196 0.52779 -0.01833 0.0
C313 C 0.02637 0.42483 -0.01329 0.0
C314 C 0.2684 0.50924 0.24032 0.0
C315 C 0.26212 0.53659 0.21797 0.0
H316 H 0.24606 0.49506 0.27484 0.0
C317 C 0.22628 0.56817 0.21314 0.0
H318 H 0.29558 0.48471 0.24471 0.0
C319 C 0.19772 0.57452 0.23053 0.0
C320 C 0.20436 0.54962 0.25316 0.0
H321 H 0.22039 0.58981 0.19608 0.0
H322 H 0.17064 0.6002 0.22635 0.0
C323 C 0.23994 0.5158 0.2577 0.0
C324 C 0.72499 0.20024 -0.02066 0.0
C325 C 0.73487 0.20333 0.95514 0.0
H326 H 0.74167 0.22496 0.01691 0.0
C327 C 0.77072 0.23549 0.95061 0.0
H328 H 0.69759 0.17673 -0.01644 0.0
C329 C 0.796 0.26403 0.96978 0.0
C330 C 0.78611 0.26098 -0.00602 0.0
H331 H 0.77931 0.23932 0.9322 0.0
H332 H 0.8234 0.28756 0.96557 0.0
C333 C 0.75027 0.22877 -0.00149 0.0
C334 C 0.78966 0.41392 0.73759 0.0
C335 C 0.75379 0.44555 0.73285 0.0
H336 H 0.84503 0.38009 0.72407 0.0
C337 C 0.74715 0.47099 0.71029 0.0
H338 H 0.79582 0.39371 0.75479 0.0
C339 C 0.77532 0.46253 0.69265 0.0
C340 C 0.81093 0.4287 0.69712 0.0
H341 H 0.71993 0.49541 0.70597 0.0
H342 H 0.76894 0.48185 0.67537 0.0
C343 C 0.81791 0.40567 0.71993 0.0
C344 C 0.5468 0.9652 0.9715 0.0
C345 C 0.53208 0.03883 0.96148 0.0
H346 H 0.53684 0.86299 -0.00654 0.0
C347 C 0.49465 0.06559 0.96633 0.0
H348 H 0.57549 0.94275 0.96812 0.0
C349 C 0.47244 0.0198 -0.01915 0.0
C350 C 0.48716 0.94617 -0.00913 0.0
H351 H 0.48239 0.12201 0.95889 0.0
H352 H 0.44375 0.04225 -0.01577 0.0
C353 C 0.52459 0.91941 -0.01397 0.0
C354 C 0.50064 0.31223 0.21354 0.0
C355 C 0.4629 0.33625 0.21798 0.0
H356 H 0.54847 0.24144 0.224 0.0
C357 C 0.44406 0.30334 0.23664 0.0
H358 H 0.51599 0.33641 0.1993 0.0
C359 C 0.46267 0.24873 0.25077 0.0
C360 C 0.50057 0.22603 0.24661 0.0
H361 H 0.41496 0.32036 0.24051 0.0
H362 H 0.44737 0.2252 0.26514 0.0
C363 C 0.51929 0.25786 0.22773 0.0
C364 C 0.49377 0.69983 0.71806 0.0
C365 C 0.51415 0.7549 0.7047 0.0
H366 H 0.49548 0.59841 0.74093 0.0
C367 C 0.55327 0.75017 0.70487 0.0
H368 H 0.46361 0.70181 0.71834 0.0
C369 C 0.57159 0.6907 0.71783 0.0
C370 C 0.55118 0.63469 0.73091 0.0
H371 H 0.56983 0.79173 0.6948 0.0
H372 H 0.60175 0.6881 0.71742 0.0
C373 C 0.51208 0.64045 0.73101 0.0
C374 C 0.47467 0.44102 0.46507 0.0
C375 C 0.48871 0.42632 0.4875 0.0
H376 H 0.48128 0.51163 0.43527 0.0
C377 C 0.52133 0.47381 0.49705 0.0
H378 H 0.44962 0.40547 0.45719 0.0
C379 C 0.53953 0.53462 0.48447 0.0
C380 C 0.52549 0.54933 0.46205 0.0
H381 H 0.53292 0.46403 0.51427 0.0
H382 H 0.56458 0.57016 0.49235 0.0
C383 C 0.49287 0.50184 0.45249 0.0
C384 C 0.09639 0.90061 0.35302 0.0
C385 C 0.12978 0.85323 0.34491 0.0
H386 H 0.07102 0.02708 0.37395 0.0
C387 C 0.16377 0.9008 0.35045 0.0
H388 H 0.06986 0.865 0.34914 0.0
C389 C 0.16434 -0.0056 0.36393 0.0
C390 C 0.13102 0.04045 0.37283 0.0
H391 H 0.18985 0.86548 0.34441 0.0
H392 H 0.19088 0.02956 0.36817 0.0
C393 C 0.09705 -0.00712 0.36725 0.0
C394 C 0.04311 0.40154 0.37743 0.0
C395 C 0.07318 0.4254 0.39368 0.0
H396 H 0.01894 0.41582 0.34307 0.0
C397 C 0.09905 0.49304 0.38959 0.0
H398 H 0.02268 0.34989 0.38028 0.0
C399 C 0.09683 0.53025 0.36862 0.0
C400 C 0.06873 0.50072 0.35133 0.0
H401 H 0.12199 0.51458 0.40213 0.0
H402 H 0.1179 0.57985 0.36555 0.0
C403 C 0.04089 0.43927 0.35627 0.0
C404 C 0.20028 0.25682 0.84229 0.0
C405 C 0.16707 0.211 0.83336 0.0
H406 H 0.22536 0.38404 0.86287 0.0
C407 C 0.13291 0.25688 0.84008 0.0
H408 H 0.22695 0.22282 0.83732 0.0
C409 C 0.13194 0.34724 0.8554 0.0
C410 C 0.16518 0.39463 0.86357 0.0
H411 H 0.10692 0.22269 0.83354 0.0
H412 H 0.10524 0.38158 0.86005 0.0
C413 C 0.19937 0.34869 0.85689 0.0
C414 C 0.07394 0.80697 0.85176 0.0
C415 C 0.10207 0.74564 0.85647 0.0
H416 H 0.05567 0.89867 0.82838 0.0
C417 C 0.13091 0.71925 0.83945 0.0
H418 H 0.05148 0.82813 0.8648 0.0
C419 C 0.13345 0.75925 0.81896 0.0
C420 C 0.10716 0.82662 0.81511 0.0
H421 H 0.1523 0.67 0.84241 0.0
H422 H 0.15684 0.73977 0.80659 0.0
C423 C 0.07648 0.8475 0.83109 0.0
C424 C 0.85065 0.07393 0.59966 0.0
C425 C 0.88466 0.12142 0.60519 0.0
H426 H 0.82347 0.94535 0.58189 0.0
C427 C 0.91803 0.07401 0.59701 0.0
H428 H 0.82459 0.10927 0.60576 0.0
C429 C 0.91731 0.98185 0.58272 0.0
C430 C 0.88331 0.93439 0.57714 0.0
H431 H 0.94457 0.10956 0.60087 0.0
H432 H 0.94331 0.94766 0.57596 0.0
C433 C 0.85003 0.98042 0.58613 0.0
C434 C 0.97368 0.53472 0.59324 0.0
C435 C 0.9458 0.4735 0.59824 0.0
H436 H 0.99183 0.62415 0.56923 0.0
C437 C 0.91754 0.4444 0.58104 0.0
H438 H 0.99575 0.55784 0.60637 0.0
C439 C 0.91521 0.48183 0.56012 0.0
C440 C 0.94113 0.54929 0.55597 0.0
H441 H 0.89642 0.395 0.58417 0.0
H442 H 0.89215 0.46064 0.54766 0.0
C443 C 0.97135 0.57266 0.57213 0.0
C444 C 0.88629 0.64134 0.09594 0.0
C445 C 0.85315 0.59351 0.08775 0.0
H446 H 0.91105 0.76636 0.11774 0.0
C447 C 0.81887 0.63926 0.09427 0.0
H448 H 0.91305 0.60715 0.09141 0.0
C449 C 0.81779 0.73131 0.10875 0.0
C450 C 0.8509 0.77751 0.11773 0.0
H451 H 0.79295 0.60356 0.08827 0.0
H452 H 0.79105 0.76509 0.11364 0.0
C453 C 0.88515 0.73189 0.11114 0.0
C454 C 0.94149 0.14135 0.12133 0.0
C455 C 0.91061 0.16225 0.13713 0.0
H456 H 0.96695 0.16069 0.08776 0.0
C457 C 0.88451 0.2299 0.1332 0.0
H458 H 0.96216 0.08997 0.12412 0.0
C459 C 0.88741 0.2701 0.11277 0.0
C460 C 0.91642 0.24356 0.09588 0.0
H461 H 0.86096 0.24935 0.14545 0.0
H462 H 0.86613 0.31946 0.10971 0.0
C463 C 0.94438 0.18203 0.1007 0.0
C464 C 0.70075 0.73271 0.84041 0.0
C465 C 0.66744 0.68754 0.83143 0.0
H466 H 0.72614 0.8594 0.86102 0.0
C467 C 0.63338 0.73384 0.83826 0.0
H468 H 0.72735 0.69842 0.83536 0.0
C469 C 0.63263 0.82409 0.85364 0.0
C470 C 0.66598 0.87096 0.86178 0.0
H471 H 0.60732 0.70017 0.83168 0.0
H472 H 0.60602 0.85888 0.8583 0.0
C473 C 0.70006 0.82445 0.85507 0.0
C474 C 0.63262 0.19738 0.8366 0.0
C475 C 0.60372 0.22275 0.85363 0.0
H476 H 0.65816 0.21861 0.80368 0.0
C477 C 0.57516 0.28281 0.8489 0.0
H478 H 0.65433 0.14899 0.83956 0.0
C479 C 0.57729 0.32332 0.82821 0.0
C480 C 0.608 0.30358 0.81222 0.0
H481 H 0.55262 0.30313 0.86193 0.0
H482 H 0.55613 0.37361 0.8255 0.0
C483 C 0.63474 0.23727 0.81607 0.0
C484 C 0.66061 0.39236 0.34476 0.0
C485 C 0.62664 0.34429 0.33966 0.0
H486 H 0.68783 0.52119 0.36226 0.0
C487 C 0.59335 0.39101 0.34831 0.0
H488 H 0.68662 0.3575 0.33832 0.0
C489 C 0.59414 0.48311 0.36268 0.0
C490 C 0.62812 0.5311 0.36786 0.0
H491 H 0.56686 0.35493 0.34479 0.0
H492 H 0.56823 0.5168 0.36981 0.0
C493 C 0.66128 0.48573 0.35836 0.0
C494 C 0.54111 0.89131 0.37293 0.0
C495 C 0.57092 0.91664 0.38932 0.0
H496 H 0.51719 0.90388 0.33838 0.0
C497 C 0.59633 0.98551 0.38536 0.0
H498 H 0.52107 0.83863 0.37569 0.0
C499 C 0.59401 0.0224 0.36435 0.0
C500 C 0.56631 -0.0088 0.34689 0.0
H501 H 0.61906 0.00807 0.39801 0.0
H502 H 0.61479 0.07284 0.36135 0.0
C503 C 0.53882 0.92863 0.35171 0.0
C504 C 0.31764 0.25267 0.11114 0.0
C505 C 0.35081 0.29768 0.12047 0.0
H506 H 0.2925 0.1261 0.09027 0.0
C507 C 0.38493 0.25114 0.11404 0.0
H508 H 0.29098 0.28712 0.11588 0.0
C509 C 0.38587 0.16084 0.09868 0.0
C510 C 0.35263 0.11419 0.09017 0.0
H511 H 0.41089 0.28466 0.1209 0.0
H512 H 0.41251 0.12584 0.09432 0.0
C513 C 0.3185 0.1609 0.0965 0.0
C514 C 0.44048 0.66297 0.12444 0.0
C515 C 0.40955 0.68291 0.14022 0.0
H516 H 0.46567 0.68263 0.09082 0.0
C517 C 0.38296 0.74923 0.13617 0.0
H518 H 0.46152 0.61263 0.12732 0.0
C519 C 0.38546 0.78894 0.11563 0.0
C520 C 0.41456 0.76324 0.09877 0.0
H521 H 0.35936 0.768 0.14841 0.0
H522 H 0.36386 0.83734 0.1125 0.0
C523 C 0.44298 0.7032 0.10372 0.0
C524 C 0.35329 0.58508 0.60413 0.0
C525 C 0.38731 0.63264 0.60952 0.0
H526 H 0.32605 0.4564 0.58651 0.0
C527 C 0.42064 0.58531 0.60121 0.0
H528 H 0.32726 0.62037 0.61031 0.0
C529 C 0.41986 0.4931 0.58692 0.0
C530 C 0.38585 0.44555 0.5815 0.0
H531 H 0.44717 0.62096 0.60497 0.0
H532 H 0.44583 0.45893 0.58008 0.0
C533 C 0.35262 0.49155 0.59061 0.0
C534 C 0.47371 0.08463 0.5767 0.0
C535 C 0.44378 0.05945 0.56039 0.0
H536 H 0.49796 0.07149 0.61112 0.0
C537 C 0.41852 0.99027 0.56434 0.0
H538 H 0.49366 0.13754 0.57394 0.0
C539 C 0.42111 0.95283 0.58525 0.0
C540 C 0.44893 0.98381 0.60263 0.0
H541 H 0.3957 0.96784 0.55176 0.0
H542 H 0.4004 0.90223 0.58827 0.0
C543 C 0.47626 0.04681 0.59783 0.0
loop_
_geom_bond_atom_site_label_1
_geom_bond_atom_site_label_2
_geom_bond_distance
_geom_bond_site_symmetry_2
_ccdc_geom_bond_type
Mg0 O1 2.028 . S
Mg0 O7 1.986 . S
Mg0 O9 2.114 . S
Mg0 O10 2.251 . S
Mg0 O13 2.010 . S
O1 Mg0 2.028 . S
O1 C4 1.250 . S
O2 Mg3 2.028 . S
O2 C4 1.248 . S
Mg3 O2 2.028 . S
Mg3 O8 2.032 . S
Mg3 O10 2.079 . S
C4 O1 1.250 . S
C4 O2 1.248 . S
C5 O6 1.264 . S
C5 O13 1.249 . S
O6 C5 1.264 . S
O7 Mg0 1.986 . S
O7 C11 1.246 . S
O8 Mg3 2.032 . S
O8 C11 1.259 . S
O9 Mg0 2.114 . S
O9 C12 1.252 . S
O10 Mg0 2.251 . S
O10 Mg3 2.079 . S
O10 C12 1.273 . S
C11 O7 1.246 . S
C11 O8 1.259 . S
C12 O9 1.252 . S
C12 O10 1.273 . S
O13 Mg0 2.010 . S
O13 C5 1.249 . S
Mg14 O15 2.028 . S
Mg14 O21 1.986 . S
Mg14 O23 2.114 . S
Mg14 O24 2.251 . S
Mg14 O27 2.010 . S
O15 Mg14 2.028 . S
O15 C18 1.250 . S
O16 Mg17 2.028 . S
O16 C18 1.248 . S
Mg17 O16 2.028 . S
Mg17 O22 2.032 . S
Mg17 O24 2.079 . S
C18 O15 1.250 . S
C18 O16 1.248 . S
C19 O20 1.264 . S
C19 O27 1.249 . S
O20 C19 1.264 . S
O21 Mg14 1.986 . S
O21 C25 1.246 . S
O22 Mg17 2.032 . S
O22 C25 1.259 . S
O23 Mg14 2.114 . S
O23 C26 1.252 1_545 S
O24 Mg14 2.251 . S
O24 Mg17 2.079 . S
O24 C26 1.273 1_545 S
C25 O21 1.246 . S
C25 O22 1.259 . S
C26 O23 1.252 1_565 S
C26 O24 1.273 1_565 S
O27 Mg14 2.010 . S
O27 C19 1.249 . S
Mg28 O29 2.028 . S
Mg28 O35 1.986 . S
Mg28 O37 2.114 . S
Mg28 O38 2.251 . S
Mg28 O41 2.010 . S
O29 Mg28 2.028 . S
O29 C32 1.250 . S
O30 Mg31 2.028 . S
O30 C32 1.248 . S
Mg31 O30 2.028 . S
Mg31 O36 2.032 . S
Mg31 O38 2.079 . S
C32 O29 1.250 . S
C32 O30 1.248 . S
C33 O34 1.264 . S
C33 O41 1.249 . S
O34 C33 1.264 . S
O35 Mg28 1.986 . S
O35 C39 1.246 . S
O36 Mg31 2.032 . S
O36 C39 1.259 . S
O37 Mg28 2.114 . S
O37 C40 1.252 . S
O38 Mg28 2.251 . S
O38 Mg31 2.079 . S
O38 C40 1.273 . S
C39 O35 1.246 . S
C39 O36 1.259 . S
C40 O37 1.252 . S
C40 O38 1.273 . S
O41 Mg28 2.010 . S
O41 C33 1.249 . S
Mg42 O43 2.028 . S
Mg42 O49 1.986 . S
Mg42 O51 2.114 . S
Mg42 O52 2.251 . S
Mg42 O55 2.010 . S
O43 Mg42 2.028 . S
O43 C46 1.250 . S
O44 Mg45 2.028 . S
O44 C46 1.248 . S
Mg45 O44 2.028 . S
Mg45 O50 2.032 . S
Mg45 O52 2.079 . S
C46 O43 1.250 . S
C46 O44 1.248 . S
C47 O48 1.264 . S
C47 O55 1.249 . S
O48 C47 1.264 . S
O49 Mg42 1.986 . S
O49 C53 1.246 . S
O50 Mg45 2.032 . S
O50 C53 1.259 . S
O51 Mg42 2.114 . S
O51 C54 1.252 1_565 S
O52 Mg42 2.251 . S
O52 Mg45 2.079 . S
O52 C54 1.273 1_565 S
C53 O49 1.246 . S
C53 O50 1.259 . S
C54 O51 1.252 1_545 S
C54 O52 1.273 1_545 S
O55 Mg42 2.010 . S
O55 C47 1.249 . S
Mg56 O57 2.028 . S
Mg56 O63 1.986 . S
Mg56 O65 2.114 . S
Mg56 O66 2.251 . S
Mg56 O69 2.010 . S
O57 Mg56 2.028 . S
O57 C60 1.250 . S
O58 Mg59 2.028 . S
O58 C60 1.248 . S
Mg59 O58 2.028 . S
Mg59 O64 2.032 . S
Mg59 O66 2.079 . S
C60 O57 1.250 . S
C60 O58 1.248 . S
C61 O62 1.288 . S
C61 O69 1.249 . S
O62 C61 1.288 . S
O63 Mg56 1.986 . S
O63 C67 1.246 . S
O64 Mg59 2.032 . S
O64 C67 1.259 . S
O65 Mg56 2.114 . S
O65 C68 1.252 . S
O66 Mg56 2.251 . S
O66 Mg59 2.079 . S
O66 C68 1.273 . S
C67 O63 1.246 . S
C67 O64 1.259 . S
C68 O65 1.252 . S
C68 O66 1.273 . S
O69 Mg56 2.010 . S
O69 C61 1.249 . S
Mg70 O71 2.028 . S
Mg70 O77 1.986 . S
Mg70 O79 2.114 . S
Mg70 O80 2.251 . S
Mg70 O83 2.010 . S
O71 Mg70 2.028 . S
O71 C74 1.250 . S
O72 Mg73 2.028 . S
O72 C74 1.248 . S
Mg73 O72 2.028 . S
Mg73 O78 2.032 . S
Mg73 O80 2.079 . S
C74 O71 1.250 . S
C74 O72 1.248 . S
C75 O76 1.264 . S
C75 O83 1.249 . S
O76 C75 1.264 . S
O77 Mg70 1.986 . S
O77 C81 1.246 . S
O78 Mg73 2.032 . S
O78 C81 1.259 . S
O79 Mg70 2.114 . S
O79 C82 1.252 . S
O80 Mg70 2.251 . S
O80 Mg73 2.079 . S
O80 C82 1.273 . S
C81 O77 1.246 . S
C81 O78 1.259 . S
C82 O79 1.252 . S
C82 O80 1.273 . S
O83 Mg70 2.010 . S
O83 C75 1.249 . S
Mg84 O85 2.028 . S
Mg84 O91 1.986 . S
Mg84 O93 2.114 . S
Mg84 O94 2.251 . S
Mg84 O97 2.010 . S
O85 Mg84 2.028 . S
O85 C88 1.250 . S
O86 Mg87 2.028 . S
O86 C88 1.248 . S
Mg87 O86 2.028 . S
Mg87 O92 2.032 . S
Mg87 O94 2.079 . S
C88 O85 1.250 . S
C88 O86 1.248 . S
C89 O90 1.288 . S
C89 O97 1.249 . S
O90 C89 1.288 . S
O91 Mg84 1.986 . S
O91 C95 1.246 . S
O92 Mg87 2.032 . S
O92 C95 1.259 . S
O93 Mg84 2.114 . S
O93 C96 1.252 . S
O94 Mg84 2.251 . S
O94 Mg87 2.079 . S
O94 C96 1.273 . S
C95 O91 1.246 . S
C95 O92 1.259 . S
C96 O93 1.252 . S
C96 O94 1.273 . S
O97 Mg84 2.010 . S
O97 C89 1.249 . S
Mg98 O99 2.028 . S
Mg98 O105 1.986 . S
Mg98 O107 2.114 . S
Mg98 O108 2.251 . S
Mg98 O111 2.010 . S
O99 Mg98 2.028 . S
O99 C102 1.250 . S
O100 Mg101 2.028 . S
O100 C102 1.248 . S
Mg101 O100 2.028 . S
Mg101 O106 2.032 . S
Mg101 O108 2.079 . S
C102 O99 1.250 . S
C102 O100 1.248 . S
C103 O104 1.264 . S
C103 O111 1.249 . S
O104 C103 1.264 . S
O105 Mg98 1.986 . S
O105 C109 1.246 . S
O106 Mg101 2.032 . S
O106 C109 1.259 . S
O107 Mg98 2.114 . S
O107 C110 1.252 . S
O108 Mg98 2.251 . S
O108 Mg101 2.079 . S
O108 C110 1.273 . S
C109 O105 1.246 . S
C109 O106 1.259 . S
C110 O107 1.252 . S
C110 O108 1.273 . S
O111 Mg98 2.010 . S
O111 C103 1.249 . S
Mg112 O113 2.028 . S
Mg112 O119 1.986 . S
Mg112 O121 2.114 . S
Mg112 O122 2.251 . S
Mg112 O125 2.010 . S
O113 Mg112 2.028 . S
O113 C116 1.250 . S
O114 Mg115 2.028 . S
O114 C116 1.248 . S
Mg115 O114 2.028 . S
Mg115 O120 2.032 . S
Mg115 O122 2.079 . S
C116 O113 1.250 . S
C116 O114 1.248 . S
C117 O118 1.288 . S
C117 O125 1.249 . S
O118 C117 1.288 . S
O119 Mg112 1.986 . S
O119 C123 1.246 . S
O120 Mg115 2.032 . S
O120 C123 1.259 . S
O121 Mg112 2.114 . S
O121 C124 1.252 . S
O122 Mg112 2.251 . S
O122 Mg115 2.079 . S
O122 C124 1.273 . S
C123 O119 1.246 . S
C123 O120 1.259 . S
C124 O121 1.252 . S
C124 O122 1.273 . S
O125 Mg112 2.010 . S
O125 C117 1.249 . S
Mg126 O127 2.028 . S
Mg126 O133 1.986 . S
Mg126 O135 2.114 . S
Mg126 O136 2.251 . S
Mg126 O139 2.010 . S
O127 Mg126 2.028 . S
O127 C130 1.250 . S
O128 Mg129 2.028 . S
O128 C130 1.248 . S
Mg129 O128 2.028 . S
Mg129 O134 2.032 . S
Mg129 O136 2.079 . S
C130 O127 1.250 . S
C130 O128 1.248 . S
C131 O132 1.264 . S
C131 O139 1.249 . S
O132 C131 1.264 . S
O133 Mg126 1.986 . S
O133 C137 1.246 . S
O134 Mg129 2.032 . S
O134 C137 1.259 . S
O135 Mg126 2.114 . S
O135 C138 1.252 1_545 S
O136 Mg126 2.251 . S
O136 Mg129 2.079 . S
O136 C138 1.273 1_545 S
C137 O133 1.246 . S
C137 O134 1.259 . S
C138 O135 1.252 1_565 S
C138 O136 1.273 1_565 S
O139 Mg126 2.010 . S
O139 C131 1.249 . S
Mg140 O141 2.028 . S
Mg140 O147 1.986 . S
Mg140 O149 2.114 . S
Mg140 O150 2.251 . S
Mg140 O153 2.010 . S
O141 Mg140 2.028 . S
O141 C144 1.250 . S
O142 Mg143 2.028 . S
O142 C144 1.248 . S
Mg143 O142 2.028 . S
Mg143 O148 2.032 . S
Mg143 O150 2.079 . S
C144 O141 1.250 . S
C144 O142 1.248 . S
C145 O146 1.288 . S
C145 O153 1.249 . S
O146 C145 1.288 . S
O147 Mg140 1.986 . S
O147 C151 1.246 . S
O148 Mg143 2.032 . S
O148 C151 1.259 . S
O149 Mg140 2.114 . S
O149 C152 1.252 . S
O150 Mg140 2.251 . S
O150 Mg143 2.079 . S
O150 C152 1.273 . S
C151 O147 1.246 . S
C151 O148 1.259 . S
C152 O149 1.252 . S
C152 O150 1.273 . S
O153 Mg140 2.010 . S
O153 C145 1.249 . S
Mg154 O155 2.028 . S
Mg154 O161 1.986 . S
Mg154 O163 2.114 . S
Mg154 O164 2.251 . S
Mg154 O167 2.010 . S
O155 Mg154 2.028 . S
O155 C158 1.250 . S
O156 Mg157 2.028 . S
O156 C158 1.248 . S
Mg157 O156 2.028 . S
Mg157 O162 2.032 . S
Mg157 O164 2.079 . S
C158 O155 1.250 . S
C158 O156 1.248 . S
C159 O160 1.264 . S
C159 O167 1.249 . S
O160 C159 1.264 . S
O161 Mg154 1.986 . S
O161 C165 1.246 . S
O162 Mg157 2.032 . S
O162 C165 1.259 . S
O163 Mg154 2.114 . S
O163 C166 1.252 1_565 S
O164 Mg154 2.251 . S
O164 Mg157 2.079 . S
O164 C166 1.273 1_565 S
C165 O161 1.246 . S
C165 O162 1.259 . S
C166 O163 1.252 1_545 S
C166 O164 1.273 1_545 S
O167 Mg154 2.010 . S
O167 C159 1.249 . S
Mg168 O169 2.028 . S
Mg168 O175 1.986 . S
Mg168 O177 2.114 . S
Mg168 O178 2.251 . S
Mg168 O181 2.010 . S
O169 Mg168 2.028 . S
O169 C172 1.250 . S
O170 Mg171 2.028 . S
O170 C172 1.248 . S
Mg171 O170 2.028 . S
Mg171 O176 2.032 . S
Mg171 O178 2.079 . S
C172 O169 1.250 . S
C172 O170 1.248 . S
C173 O174 1.264 . S
C173 O181 1.249 . S
O174 C173 1.264 . S
O175 Mg168 1.986 . S
O175 C179 1.246 . S
O176 Mg171 2.032 . S
O176 C179 1.259 . S
O177 Mg168 2.114 . S
O177 C180 1.252 . S
O178 Mg168 2.251 . S
O178 Mg171 2.079 . S
O178 C180 1.273 . S
C179 O175 1.246 . S
C179 O176 1.259 . S
C180 O177 1.252 . S
C180 O178 1.273 . S
O181 Mg168 2.010 . S
O181 C173 1.249 . S
Mg182 O183 2.028 . S
Mg182 O189 1.986 . S
Mg182 O191 2.114 . S
Mg182 O192 2.251 . S
Mg182 O195 2.010 . S
O183 Mg182 2.028 . S
O183 C186 1.250 . S
O184 Mg185 2.028 . S
O184 C186 1.248 . S
Mg185 O184 2.028 . S
Mg185 O190 2.032 . S
Mg185 O192 2.079 . S
C186 O183 1.250 . S
C186 O184 1.248 . S
C187 O188 1.264 . S
C187 O195 1.249 . S
O188 C187 1.264 . S
O189 Mg182 1.986 . S
O189 C193 1.246 . S
O190 Mg185 2.032 . S
O190 C193 1.259 . S
O191 Mg182 2.114 . S
O191 C194 1.252 . S
O192 Mg182 2.251 . S
O192 Mg185 2.079 . S
O192 C194 1.273 . S
C193 O189 1.246 . S
C193 O190 1.259 . S
C194 O191 1.252 . S
C194 O192 1.273 . S
O195 Mg182 2.010 . S
O195 C187 1.249 . S
Mg196 O197 2.028 . S
Mg196 O203 1.986 . S
Mg196 O205 2.114 . S
Mg196 O206 2.251 . S
Mg196 O209 2.010 . S
O197 Mg196 2.028 . S
O197 C200 1.250 . S
O198 Mg199 2.028 . S
O198 C200 1.248 . S
Mg199 O198 2.028 . S
Mg199 O204 2.032 . S
Mg199 O206 2.079 . S
C200 O197 1.250 . S
C200 O198 1.248 . S
C201 O202 1.264 . S
C201 O209 1.249 . S
O202 C201 1.264 . S
O203 Mg196 1.986 . S
O203 C207 1.246 . S
O204 Mg199 2.032 . S
O204 C207 1.259 . S
O205 Mg196 2.114 . S
O205 C208 1.252 . S
O206 Mg196 2.251 . S
O206 Mg199 2.079 . S
O206 C208 1.273 . S
C207 O203 1.246 . S
C207 O204 1.259 . S
C208 O205 1.252 . S
C208 O206 1.273 . S
O209 Mg196 2.010 . S
O209 C201 1.249 . S
Mg210 O211 2.028 . S
Mg210 O217 1.986 . S
Mg210 O219 2.114 . S
Mg210 O220 2.251 . S
Mg210 O223 2.010 . S
O211 Mg210 2.028 . S
O211 C214 1.250 . S
O212 Mg213 2.028 . S
O212 C214 1.248 . S
Mg213 O212 2.028 . S
Mg213 O218 2.032 . S
Mg213 O220 2.079 . S
C214 O211 1.250 . S
C214 O212 1.248 . S
C215 O216 1.264 . S
C215 O223 1.249 . S
O216 C215 1.264 . S
O217 Mg210 1.986 . S
O217 C221 1.246 . S
O218 Mg213 2.032 . S
O218 C221 1.259 . S
O219 Mg210 2.114 . S
O219 C222 1.252 . S
O220 Mg210 2.251 . S
O220 Mg213 2.079 . S
O220 C222 1.273 . S
C221 O217 1.246 . S
C221 O218 1.259 . S
C222 O219 1.252 . S
C222 O220 1.273 . S
O223 Mg210 2.010 . S
O223 C215 1.249 . S
C224 C225 1.387 . S
C224 H228 0.950 . S
C224 C233 1.390 . S
C225 C224 1.387 . S
C225 C227 1.387 . S
H226 C233 0.950 . S
C227 C225 1.387 . S
C227 C229 1.390 . S
C227 H231 0.950 . S
H228 C224 0.950 . S
C229 C227 1.390 . S
C229 C230 1.387 . S
C229 H232 0.950 . S
C230 C229 1.387 . S
C230 C233 1.387 . S
H231 C227 0.950 . S
H232 C229 0.950 . S
C233 C224 1.390 . S
C233 H226 0.950 . S
C233 C230 1.387 . S
C234 C235 1.387 1_545 S
C234 H238 0.950 . S
C234 C243 1.390 1_655 S
C235 C234 1.387 1_565 S
C235 C237 1.387 . S
H236 C243 0.950 . S
C237 C235 1.387 . S
C237 C239 1.390 1_655 S
C237 H241 0.950 . S
H238 C234 0.950 . S
C239 C237 1.390 1_455 S
C239 C240 1.387 1_565 S
C239 H242 0.950 . S
C240 C239 1.387 1_545 S
C240 C243 1.387 . S
H241 C237 0.950 . S
H242 C239 0.950 . S
C243 C234 1.390 1_455 S
C243 H236 0.950 . S
C243 C240 1.387 . S
C244 C245 1.387 1_545 S
C244 H248 0.950 . S
C244 C253 1.390 . S
C245 C244 1.387 1_565 S
C245 C247 1.387 . S
H246 C253 0.950 . S
C247 C245 1.387 . S
C247 C249 1.390 . S
C247 H251 0.950 . S
H248 C244 0.950 . S
C249 C247 1.390 . S
C249 C250 1.387 1_565 S
C249 H252 0.950 . S
C250 C249 1.387 1_545 S
C250 C253 1.387 . S
H251 C247 0.950 . S
H252 C249 0.950 . S
C253 C244 1.390 . S
C253 H246 0.950 . S
C253 C250 1.387 . S
C254 C255 1.387 . S
C254 H258 0.950 . S
C254 C263 1.390 1_455 S
C255 C254 1.387 . S
C255 C257 1.387 . S
H256 C263 0.950 . S
C257 C255 1.387 . S
C257 C259 1.390 1_455 S
C257 H261 0.950 . S
H258 C254 0.950 . S
C259 C257 1.390 1_655 S
C259 C260 1.387 . S
C259 H262 0.950 . S
C260 C259 1.387 . S
C260 C263 1.387 . S
H261 C257 0.950 . S
H262 C259 0.950 . S
C263 C254 1.390 1_655 S
C263 H256 0.950 . S
C263 C260 1.387 . S
C264 C265 1.387 . S
C264 H268 0.950 . S
C264 C273 1.390 . S
C265 C264 1.387 . S
C265 C267 1.387 . S
H266 C273 0.950 . S
C267 C265 1.387 . S
C267 C269 1.390 . S
C267 H271 0.950 . S
H268 C264 0.950 . S
C269 C267 1.390 . S
C269 C270 1.387 . S
C269 H272 0.950 . S
C270 C269 1.387 . S
C270 C273 1.387 . S
H271 C267 0.950 . S
H272 C269 0.950 . S
C273 C264 1.390 . S
C273 H266 0.950 . S
C273 C270 1.387 . S
C274 C275 1.387 . S
C274 H278 0.950 . S
C274 C283 1.390 . S
C275 C274 1.387 . S
C275 C277 1.387 1_545 S
H276 C283 0.950 . S
C277 C275 1.387 1_565 S
C277 C279 1.390 . S
C277 H281 0.950 . S
H278 C274 0.950 . S
C279 C277 1.390 . S
C279 C280 1.387 . S
C279 H282 0.950 . S
C280 C279 1.387 . S
C280 C283 1.387 1_565 S
H281 C277 0.950 . S
H282 C279 0.950 . S
C283 C274 1.390 . S
C283 H276 0.950 . S
C283 C280 1.387 1_545 S
C284 C285 1.387 1_455 S
C284 H288 0.950 . S
C284 C293 1.390 . S
C285 C284 1.387 1_655 S
C285 C287 1.387 . S
H286 C293 0.950 . S
C287 C285 1.387 . S
C287 C289 1.390 . S
C287 H291 0.950 . S
H288 C284 0.950 . S
C289 C287 1.390 . S
C289 C290 1.387 1_655 S
C289 H292 0.950 . S
C290 C289 1.387 1_455 S
C290 C293 1.387 . S
H291 C287 0.950 . S
H292 C289 0.950 . S
C293 C284 1.390 . S
C293 H286 0.950 . S
C293 C290 1.387 . S
C294 C295 1.387 . S
C294 H298 0.950 . S
C294 C303 1.390 1_554 S
C295 C294 1.387 . S
C295 C297 1.387 . S
H296 C303 0.950 . S
C297 C295 1.387 . S
C297 C299 1.390 1_554 S
C297 H301 0.950 . S
H298 C294 0.950 . S
C299 C297 1.390 1_556 S
C299 C300 1.387 . S
C299 H302 0.950 . S
C300 C299 1.387 . S
C300 C303 1.387 . S
H301 C297 0.950 . S
H302 C299 0.950 . S
C303 C294 1.390 1_556 S
C303 H296 0.950 . S
C303 C300 1.387 . S
C304 C305 1.387 1_554 S
C304 H308 0.950 . S
C304 C313 1.390 . S
C305 C304 1.387 1_556 S
C305 C307 1.387 1_455 S
H306 C313 0.950 . S
C307 C305 1.387 1_655 S
C307 C309 1.390 . S
C307 H311 0.950 . S
H308 C304 0.950 . S
C309 C307 1.390 . S
C309 C310 1.387 1_556 S
C309 H312 0.950 . S
C310 C309 1.387 1_554 S
C310 C313 1.387 1_655 S
H311 C307 0.950 . S
H312 C309 0.950 . S
C313 C304 1.390 . S
C313 H306 0.950 . S
C313 C310 1.387 1_455 S
C314 C315 1.387 . S
C314 H318 0.950 . S
C314 C323 1.390 . S
C315 C314 1.387 . S
C315 C317 1.387 . S
H316 C323 0.950 . S
C317 C315 1.387 . S
C317 C319 1.390 . S
C317 H321 0.950 . S
H318 C314 0.950 . S
C319 C317 1.390 . S
C319 C320 1.387 . S
C319 H322 0.950 . S
C320 C319 1.387 . S
C320 C323 1.387 . S
H321 C317 0.950 . S
H322 C319 0.950 . S
C323 C314 1.390 . S
C323 H316 0.950 . S
C323 C320 1.387 . S
C324 C325 1.387 1_554 S
C324 H328 0.950 . S
C324 C333 1.390 . S
C325 C324 1.387 1_556 S
C325 C327 1.387 . S
H326 C333 0.950 . S
C327 C325 1.387 . S
C327 C329 1.390 . S
C327 H331 0.950 . S
H328 C324 0.950 . S
C329 C327 1.390 . S
C329 C330 1.387 1_556 S
C329 H332 0.950 . S
C330 C329 1.387 1_554 S
C330 C333 1.387 . S
H331 C327 0.950 . S
H332 C329 0.950 . S
C333 C324 1.390 . S
C333 H326 0.950 . S
C333 C330 1.387 . S
C334 C335 1.387 . S
C334 H338 0.950 . S
C334 C343 1.390 . S
C335 C334 1.387 . S
C335 C337 1.387 . S
H336 C343 0.950 . S
C337 C335 1.387 . S
C337 C339 1.390 . S
C337 H341 0.950 . S
H338 C334 0.950 . S
C339 C337 1.390 . S
C339 C340 1.387 . S
C339 H342 0.950 . S
C340 C339 1.387 . S
C340 C343 1.387 . S
H341 C337 0.950 . S
H342 C339 0.950 . S
C343 C334 1.390 . S
C343 H336 0.950 . S
C343 C340 1.387 . S
C344 C345 1.387 1_565 S
C344 H348 0.950 . S
C344 C353 1.390 . S
C345 C344 1.387 1_545 S
C345 C347 1.387 1_556 S
H346 C353 0.950 . S
C347 C345 1.387 1_554 S
C347 C349 1.390 . S
C347 H351 0.950 . S
H348 C344 0.950 . S
C349 C347 1.390 . S
C349 C350 1.387 1_545 S
C349 H352 0.950 . S
C350 C349 1.387 1_565 S
C350 C353 1.387 1_554 S
H351 C347 0.950 . S
H352 C349 0.950 . S
C353 C344 1.390 . S
C353 H346 0.950 . S
C353 C350 1.387 1_556 S
C354 C355 1.387 . S
C354 H358 0.950 . S
C354 C363 1.390 . S
C355 C354 1.387 . S
C355 C357 1.387 . S
H356 C363 0.950 . S
C357 C355 1.387 . S
C357 C359 1.390 . S
C357 H361 0.950 . S
H358 C354 0.950 . S
C359 C357 1.390 . S
C359 C360 1.387 . S
C359 H362 0.950 . S
C360 C359 1.387 . S
C360 C363 1.387 . S
H361 C357 0.950 . S
H362 C359 0.950 . S
C363 C354 1.390 . S
C363 H356 0.950 . S
C363 C360 1.387 . S
C364 C365 1.387 . S
C364 H368 0.950 . S
C364 C373 1.390 . S
C365 C364 1.387 . S
C365 C367 1.387 . S
H366 C373 0.950 . S
C367 C365 1.387 . S
C367 C369 1.390 . S
C367 H371 0.950 . S
H368 C364 0.950 . S
C369 C367 1.390 . S
C369 C370 1.387 . S
C369 H372 0.950 . S
C370 C369 1.387 . S
C370 C373 1.387 . S
H371 C367 0.950 . S
H372 C369 0.950 . S
C373 C364 1.390 . S
C373 H366 0.950 . S
C373 C370 1.387 . S
C374 C375 1.387 . S
C374 H378 0.950 . S
C374 C383 1.390 . S
C375 C374 1.387 . S
C375 C377 1.387 . S
H376 C383 0.950 . S
C377 C375 1.387 . S
C377 C379 1.390 . S
C377 H381 0.950 . S
H378 C374 0.950 . S
C379 C377 1.390 . S
C379 C380 1.387 . S
C379 H382 0.950 . S
C380 C379 1.387 . S
C380 C383 1.387 . S
H381 C377 0.950 . S
H382 C379 0.950 . S
C383 C374 1.390 . S
C383 H376 0.950 . S
C383 C380 1.387 . S
C384 C385 1.387 . S
C384 H388 0.950 . S
C384 C393 1.390 . S
C385 C384 1.387 . S
C385 C387 1.387 . S
H386 C393 0.950 . S
C387 C385 1.387 . S
C387 C389 1.390 . S
C387 H391 0.950 . S
H388 C384 0.950 . S
C389 C387 1.390 . S
C389 C390 1.387 . S
C389 H392 0.950 . S
C390 C389 1.387 . S
C390 C393 1.387 . S
H391 C387 0.950 . S
H392 C389 0.950 . S
C393 C384 1.390 . S
C393 H386 0.950 . S
C393 C390 1.387 . S
C394 C395 1.387 . S
C394 H398 0.950 . S
C394 C403 1.390 . S
C395 C394 1.387 . S
C395 C397 1.387 . S
H396 C403 0.950 . S
C397 C395 1.387 . S
C397 C399 1.390 . S
C397 H401 0.950 . S
H398 C394 0.950 . S
C399 C397 1.390 . S
C399 C400 1.387 . S
C399 H402 0.950 . S
C400 C399 1.387 . S
C400 C403 1.387 . S
H401 C397 0.950 . S
H402 C399 0.950 . S
C403 C394 1.390 . S
C403 H396 0.950 . S
C403 C400 1.387 . S
C404 C405 1.387 . S
C404 H408 0.950 . S
C404 C413 1.390 . S
C405 C404 1.387 . S
C405 C407 1.387 . S
H406 C413 0.950 . S
C407 C405 1.387 . S
C407 C409 1.390 . S
C407 H411 0.950 . S
H408 C404 0.950 . S
C409 C407 1.390 . S
C409 C410 1.387 . S
C409 H412 0.950 . S
C410 C409 1.387 . S
C410 C413 1.387 . S
H411 C407 0.950 . S
H412 C409 0.950 . S
C413 C404 1.390 . S
C413 H406 0.950 . S
C413 C410 1.387 . S
C414 C415 1.387 . S
C414 H418 0.950 . S
C414 C423 1.390 . S
C415 C414 1.387 . S
C415 C417 1.387 . S
H416 C423 0.950 . S
C417 C415 1.387 . S
C417 C419 1.390 . S
C417 H421 0.950 . S
H418 C414 0.950 . S
C419 C417 1.390 . S
C419 C420 1.387 . S
C419 H422 0.950 . S
C420 C419 1.387 . S
C420 C423 1.387 . S
H421 C417 0.950 . S
H422 C419 0.950 . S
C423 C414 1.390 . S
C423 H416 0.950 . S
C423 C420 1.387 . S
C424 C425 1.387 . S
C424 H428 0.950 . S
C424 C433 1.390 . S
C425 C424 1.387 . S
C425 C427 1.387 . S
H426 C433 0.950 . S
C427 C425 1.387 . S
C427 C429 1.390 . S
C427 H431 0.950 . S
H428 C424 0.950 . S
C429 C427 1.390 . S
C429 C430 1.387 . S
C429 H432 0.950 . S
C430 C429 1.387 . S
C430 C433 1.387 . S
H431 C427 0.950 . S
H432 C429 0.950 . S
C433 C424 1.390 . S
C433 H426 0.950 . S
C433 C430 1.387 . S
C434 C435 1.387 . S
C434 H438 0.950 . S
C434 C443 1.390 . S
C435 C434 1.387 . S
C435 C437 1.387 . S
H436 C443 0.950 . S
C437 C435 1.387 . S
C437 C439 1.390 . S
C437 H441 0.950 . S
H438 C434 0.950 . S
C439 C437 1.390 . S
C439 C440 1.387 . S
C439 H442 0.950 . S
C440 C439 1.387 . S
C440 C443 1.387 . S
H441 C437 0.950 . S
H442 C439 0.950 . S
C443 C434 1.390 . S
C443 H436 0.950 . S
C443 C440 1.387 . S
C444 C445 1.387 . S
C444 H448 0.950 . S
C444 C453 1.390 . S
C445 C444 1.387 . S
C445 C447 1.387 . S
H446 C453 0.950 . S
C447 C445 1.387 . S
C447 C449 1.390 . S
C447 H451 0.950 . S
H448 C444 0.950 . S
C449 C447 1.390 . S
C449 C450 1.387 . S
C449 H452 0.950 . S
C450 C449 1.387 . S
C450 C453 1.387 . S
H451 C447 0.950 . S
H452 C449 0.950 . S
C453 C444 1.390 . S
C453 H446 0.950 . S
C453 C450 1.387 . S
C454 C455 1.387 . S
C454 H458 0.950 . S
C454 C463 1.390 . S
C455 C454 1.387 . S
C455 C457 1.387 . S
H456 C463 0.950 . S
C457 C455 1.387 . S
C457 C459 1.390 . S
C457 H461 0.950 . S
H458 C454 0.950 . S
C459 C457 1.390 . S
C459 C460 1.387 . S
C459 H462 0.950 . S
C460 C459 1.387 . S
C460 C463 1.387 . S
H461 C457 0.950 . S
H462 C459 0.950 . S
C463 C454 1.390 . S
C463 H456 0.950 . S
C463 C460 1.387 . S
C464 C465 1.387 . S
C464 H468 0.950 . S
C464 C473 1.390 . S
C465 C464 1.387 . S
C465 C467 1.387 . S
H466 C473 0.950 . S
C467 C465 1.387 . S
C467 C469 1.390 . S
C467 H471 0.950 . S
H468 C464 0.950 . S
C469 C467 1.390 . S
C469 C470 1.387 . S
C469 H472 0.950 . S
C470 C469 1.387 . S
C470 C473 1.387 . S
H471 C467 0.950 . S
H472 C469 0.950 . S
C473 C464 1.390 . S
C473 H466 0.950 . S
C473 C470 1.387 . S
C474 C475 1.387 . S
C474 H478 0.950 . S
C474 C483 1.390 . S
C475 C474 1.387 . S
C475 C477 1.387 . S
H476 C483 0.950 . S
C477 C475 1.387 . S
C477 C479 1.390 . S
C477 H481 0.950 . S
H478 C474 0.950 . S
C479 C477 1.390 . S
C479 C480 1.387 . S
C479 H482 0.950 . S
C480 C479 1.387 . S
C480 C483 1.387 . S
H481 C477 0.950 . S
H482 C479 0.950 . S
C483 C474 1.390 . S
C483 H476 0.950 . S
C483 C480 1.387 . S
C484 C485 1.387 . S
C484 H488 0.950 . S
C484 C493 1.390 . S
C485 C484 1.387 . S
C485 C487 1.387 . S
H486 C493 0.950 . S
C487 C485 1.387 . S
C487 C489 1.390 . S
C487 H491 0.950 . S
H488 C484 0.950 . S
C489 C487 1.390 . S
C489 C490 1.387 . S
C489 H492 0.950 . S
C490 C489 1.387 . S
C490 C493 1.387 . S
H491 C487 0.950 . S
H492 C489 0.950 . S
C493 C484 1.390 . S
C493 H486 0.950 . S
C493 C490 1.387 . S
C494 C495 1.387 . S
C494 H498 0.950 . S
C494 C503 1.390 . S
C495 C494 1.387 . S
C495 C497 1.387 . S
H496 C503 0.950 . S
C497 C495 1.387 . S
C497 C499 1.390 . S
C497 H501 0.950 . S
H498 C494 0.950 . S
C499 C497 1.390 . S
C499 C500 1.387 . S
C499 H502 0.950 . S
C500 C499 1.387 . S
C500 C503 1.387 . S
H501 C497 0.950 . S
H502 C499 0.950 . S
C503 C494 1.390 . S
C503 H496 0.950 . S
C503 C500 1.387 . S
C504 C505 1.387 . S
C504 H508 0.950 . S
C504 C513 1.390 . S
C505 C504 1.387 . S
C505 C507 1.387 . S
H506 C513 0.950 . S
C507 C505 1.387 . S
C507 C509 1.390 . S
C507 H511 0.950 . S
H508 C504 0.950 . S
C509 C507 1.390 . S
C509 C510 1.387 . S
C509 H512 0.950 . S
C510 C509 1.387 . S
C510 C513 1.387 . S
H511 C507 0.950 . S
H512 C509 0.950 . S
C513 C504 1.390 . S
C513 H506 0.950 . S
C513 C510 1.387 . S
C514 C515 1.387 . S
C514 H518 0.950 . S
C514 C523 1.390 . S
C515 C514 1.387 . S
C515 C517 1.387 . S
H516 C523 0.950 . S
C517 C515 1.387 . S
C517 C519 1.390 . S
C517 H521 0.950 . S
H518 C514 0.950 . S
C519 C517 1.390 . S
C519 C520 1.387 . S
C519 H522 0.950 . S
C520 C519 1.387 . S
C520 C523 1.387 . S
H521 C517 0.950 . S
H522 C519 0.950 . S
C523 C514 1.390 . S
C523 H516 0.950 . S
C523 C520 1.387 . S
C524 C525 1.387 . S
C524 H528 0.950 . S
C524 C533 1.390 . S
C525 C524 1.387 . S
C525 C527 1.387 . S
H526 C533 0.950 . S
C527 C525 1.387 . S
C527 C529 1.390 . S
C527 H531 0.950 . S
H528 C524 0.950 . S
C529 C527 1.390 . S
C529 C530 1.387 . S
C529 H532 0.950 . S
C530 C529 1.387 . S
C530 C533 1.387 . S
H531 C527 0.950 . S
H532 C529 0.950 . S
C533 C524 1.390 . S
C533 H526 0.950 . S
C533 C530 1.387 . S
C534 C535 1.387 . S
C534 H538 0.950 . S
C534 C543 1.390 . S
C535 C534 1.387 . S
C535 C537 1.387 . S
H536 C543 0.950 . S
C537 C535 1.387 . S
C537 C539 1.390 . S
C537 H541 0.950 . S
H538 C534 0.950 . S
C539 C537 1.390 . S
C539 C540 1.387 . S
C539 H542 0.950 . S
C540 C539 1.387 . S
C540 C543 1.387 . S
H541 C537 0.950 . S
H542 C539 0.950 . S
C543 C534 1.390 . S
C543 H536 0.950 . S
C543 C540 1.387 . S
C225 C207 1.510 . S
C230 C11 1.510 . S
C235 C33 1.440 . S
C240 C5 1.440 . S
C245 C165 1.511 . S
C250 C25 1.511 . S
C255 C19 1.440 . S
C260 C103 1.440 . S
C265 C39 1.510 . S
C270 C179 1.510 . S
C275 C137 1.510 . S
C280 C53 1.510 . S
C285 C47 1.442 . S
C290 C75 1.442 . S
C295 C151 1.510 . S
C300 C67 1.510 . S
C305 C61 1.442 . S
C310 C89 1.442 . S
C315 C221 1.511 . S
C320 C81 1.511 . S
C325 C123 1.510 . S
C330 C95 1.510 . S
C335 C193 1.510 . S
C340 C109 1.510 . S
C345 C117 1.439 . S
C350 C145 1.439 . S
C355 C215 1.441 . S
C360 C131 1.441 . S
C365 C159 1.440 . S
C370 C187 1.440 . S
C375 C201 1.440 . S
C380 C173 1.440 . S
C385 C74 1.212 . S
C390 C4 1.212 1_565 S
C395 C12 1.282 . S
C400 C82 1.282 . S
C405 C18 1.208 . S
C410 C60 1.208 . S
C415 C68 1.282 . S
C420 C26 1.282 . S
C425 C102 1.212 . S
C430 C32 1.212 1_545 S
C435 C110 1.284 . S
C440 C40 1.284 . S
C445 C88 1.208 . S
C450 C46 1.208 . S
C455 C54 1.284 . S
C460 C96 1.284 . S
C465 C186 1.208 . S
C470 C116 1.208 1_565 S
C475 C124 1.284 . S
C480 C194 1.284 . S
C485 C130 1.208 . S
C490 C172 1.208 . S
C495 C180 1.282 . S
C500 C138 1.282 . S
C505 C214 1.212 . S
C510 C144 1.212 1_545 S
C515 C222 1.284 . S
C520 C152 1.284 . S
C525 C158 1.212 . S
C530 C200 1.212 . S
C535 C208 1.284 . S
C540 C166 1.284 . S
