# Generated by pormake.
# Topology uot, (4)-cn, num edge types: 1
# Building blocks:
#     Node 0, Type 0, BuildingBlock: QUQFOY_clean_sbu_1, # of connection points: 4
#     Node 1, Type 0, BuildingBlock: QUQFOY_clean_sbu_1, # of connection points: 4
#     Node 2, Type 0, BuildingBlock: QUQFOY_clean_sbu_1, # of connection points: 4
#     Node 3, Type 0, BuildingBlock: QUQFOY_clean_sbu_1, # of connection points: 4
#     Node 4, Type 0, BuildingBlock: QUQFOY_clean_sbu_1, # of connection points: 4
#     Node 5, Type 0, BuildingBlock: QUQFOY_clean_sbu_1, # of connection points: 4
#     Node 6, Type 0, BuildingBlock: QUQFOY_clean_sbu_1, # of connection points: 4
#     Node 7, Type 0, BuildingBlock: QUQFOY_clean_sbu_1, # of connection points: 4
#     Node 8, Type 0, BuildingBlock: QUQFOY_clean_sbu_1, # of connection points: 4
#     Node 9, Type 0, BuildingBlock: QUQFOY_clean_sbu_1, # of connection points: 4
#     Node 10, Type 0, BuildingBlock: QUQFOY_clean_sbu_1, # of connection points: 4
#     Node 11, Type 0, BuildingBlock: QUQFOY_clean_sbu_1, # of connection points: 4
#     Node 12, Type 0, BuildingBlock: QUQFOY_clean_sbu_1, # of connection points: 4
#     Node 13, Type 0, BuildingBlock: QUQFOY_clean_sbu_1, # of connection points: 4
#     Node 14, Type 0, BuildingBlock: QUQFOY_clean_sbu_1, # of connection points: 4
#     Node 15, Type 0, BuildingBlock: QUQFOY_clean_sbu_1, # of connection points: 4
#     Edge 16, Type (0, 0), BuildingBlock: CIFDUS_clean_linker_0, # of connection points: 2
#     Edge 17, Type (0, 0), BuildingBlock: CIFDUS_clean_linker_0, # of connection points: 2
#     Edge 18, Type (0, 0), BuildingBlock: CIFDUS_clean_linker_0, # of connection points: 2
#     Edge 19, Type (0, 0), BuildingBlock: CIFDUS_clean_linker_0, # of connection points: 2
#     Edge 20, Type (0, 0), BuildingBlock: CIFDUS_clean_linker_0, # of connection points: 2
#     Edge 21, Type (0, 0), BuildingBlock: CIFDUS_clean_linker_0, # of connection points: 2
#     Edge 22, Type (0, 0), BuildingBlock: CIFDUS_clean_linker_0, # of connection points: 2
#     Edge 23, Type (0, 0), BuildingBlock: CIFDUS_clean_linker_0, # of connection points: 2
#     Edge 24, Type (0, 0), BuildingBlock: CIFDUS_clean_linker_0, # of connection points: 2
#     Edge 25, Type (0, 0), BuildingBlock: CIFDUS_clean_linker_0, # of connection points: 2
#     Edge 26, Type (0, 0), BuildingBlock: CIFDUS_clean_linker_0, # of connection points: 2
#     Edge 27, Type (0, 0), BuildingBlock: CIFDUS_clean_linker_0, # of connection points: 2
#     Edge 28, Type (0, 0), BuildingBlock: CIFDUS_clean_linker_0, # of connection points: 2
#     Edge 29, Type (0, 0), BuildingBlock: CIFDUS_clean_linker_0, # of connection points: 2
#     Edge 30, Type (0, 0), BuildingBlock: CIFDUS_clean_linker_0, # of connection points: 2
#     Edge 31, Type (0, 0), BuildingBlock: CIFDUS_clean_linker_0, # of connection points: 2
#     Edge 32, Type (0, 0), BuildingBlock: CIFDUS_clean_linker_0, # of connection points: 2
#     Edge 33, Type (0, 0), BuildingBlock: CIFDUS_clean_linker_0, # of connection points: 2
#     Edge 34, Type (0, 0), BuildingBlock: CIFDUS_clean_linker_0, # of connection points: 2
#     Edge 35, Type (0, 0), BuildingBlock: CIFDUS_clean_linker_0, # of connection points: 2
#     Edge 36, Type (0, 0), BuildingBlock: CIFDUS_clean_linker_0, # of connection points: 2
#     Edge 37, Type (0, 0), BuildingBlock: CIFDUS_clean_linker_0, # of connection points: 2
#     Edge 38, Type (0, 0), BuildingBlock: CIFDUS_clean_linker_0, # of connection points: 2
#     Edge 39, Type (0, 0), BuildingBlock: CIFDUS_clean_linker_0, # of connection points: 2
#     Edge 40, Type (0, 0), BuildingBlock: CIFDUS_clean_linker_0, # of connection points: 2
#     Edge 41, Type (0, 0), BuildingBlock: CIFDUS_clean_linker_0, # of connection points: 2
#     Edge 42, Type (0, 0), BuildingBlock: CIFDUS_clean_linker_0, # of connection points: 2
#     Edge 43, Type (0, 0), BuildingBlock: CIFDUS_clean_linker_0, # of connection points: 2
#     Edge 44, Type (0, 0), BuildingBlock: CIFDUS_clean_linker_0, # of connection points: 2
#     Edge 45, Type (0, 0), BuildingBlock: CIFDUS_clean_linker_0, # of connection points: 2
#     Edge 46, Type (0, 0), BuildingBlock: CIFDUS_clean_linker_0, # of connection points: 2
#     Edge 47, Type (0, 0), BuildingBlock: CIFDUS_clean_linker_0, # of connection points: 2
# Relax obj value: 0.058
# Max RMSD: 0.082
# Mean RMSD: 0.082
data_MOF--net-uot--node1-QUQFOY_clean_sbu_1--edge1-CIFDUS_clean_linker_0
_symmetry_space_group_name_H-M    P1
_symmetry_Int_Tables_number       1
_symmetry_cell_setting            triclinic
loop_
_symmetry_equiv_pos_as_xyz
'x, y, z'
_cell_length_a     40.87266
_cell_length_b     40.783281
_cell_length_c     38.98891
_cell_angle_alpha  89.989382
_cell_angle_beta   90.00561
_cell_angle_gamma 89.965011
loop_
_atom_site_label
_atom_site_type_symbol
_atom_site_fract_x
_atom_site_fract_y
_atom_site_fract_z
_atom_type_partial_charge
O0 O 0.18669 0.40498 0.28338 0.0
Cd1 Cd 0.22487 0.43576 0.29503 0.0
Cd2 Cd 0.18115 0.45366 0.34598 0.0
O3 O 0.15461 0.41357 0.328 0.0
O4 O 0.26199 0.41748 0.26788 0.0
O5 O 0.26204 0.41855 0.32447 0.0
C6 C 0.27628 0.40999 0.29627 0.0
C7 C 0.18494 0.46656 0.4046 0.0
C8 C 0.1607 0.39868 0.29999 0.0
C9 C 0.19705 0.50275 0.28935 0.0
O10 O 0.17998 0.49483 0.3153 0.0
O11 O 0.2186 0.48329 0.27754 0.0
O12 O 0.15775 0.46897 0.38807 0.0
O13 O 0.20989 0.45492 0.38829 0.0
O14 O 0.39933 0.83824 0.71754 0.0
Cd15 Cd 0.42848 0.79761 0.71179 0.0
Cd16 Cd 0.45709 0.84042 0.66035 0.0
O17 O 0.4168 0.86879 0.67445 0.0
O18 O 0.40556 0.76421 0.74056 0.0
O19 O 0.4112 0.75872 0.68463 0.0
C20 C 0.39954 0.74767 0.71316 0.0
C21 C 0.47565 0.84379 0.60295 0.0
C22 C 0.39762 0.86429 0.69977 0.0
C23 C 0.49713 0.82076 0.72393 0.0
O24 O 0.4944 0.83705 0.69622 0.0
O25 O 0.47418 0.80209 0.73414 0.0
O26 O 0.47779 0.8681 0.62383 0.0
O27 O 0.46222 0.81727 0.61426 0.0
O28 O 0.82886 0.6097 0.30523 0.0
Cd29 Cd 0.78885 0.57954 0.31088 0.0
Cd30 Cd 0.82664 0.55717 0.36701 0.0
O31 O 0.85587 0.59668 0.35239 0.0
O32 O 0.75415 0.59977 0.28174 0.0
O33 O 0.74982 0.59587 0.33806 0.0
C34 C 0.73771 0.60577 0.30924 0.0
C35 C 0.82203 0.54237 0.42517 0.0
C36 C 0.85319 0.61368 0.32511 0.0
C37 C 0.81253 0.51061 0.30714 0.0
O38 O 0.82665 0.5165 0.33551 0.0
O39 O 0.79488 0.53224 0.29268 0.0
O40 O 0.84902 0.53913 0.40853 0.0
O41 O 0.79772 0.55578 0.4093 0.0
O42 O 0.61522 0.17172 0.71818 0.0
Cd43 Cd 0.58495 0.21122 0.71024 0.0
Cd44 Cd 0.55796 0.16834 0.66049 0.0
O45 O 0.59831 0.14038 0.67552 0.0
O46 O 0.60736 0.24877 0.73328 0.0
O47 O 0.59902 0.24691 0.67734 0.0
C48 C 0.61124 0.26199 0.70353 0.0
C49 C 0.54067 0.16568 0.60266 0.0
C50 C 0.61728 0.14538 0.70092 0.0
C51 C 0.51688 0.18787 0.72308 0.0
O52 O 0.51996 0.17134 0.69558 0.0
O53 O 0.53959 0.20685 0.73321 0.0
O54 O 0.53847 0.14095 0.62301 0.0
O55 O 0.55347 0.1922 0.61475 0.0
O56 O 0.16976 0.61161 0.71322 0.0
Cd57 Cd 0.21046 0.58343 0.70349 0.0
Cd58 Cd 0.16964 0.55926 0.65057 0.0
O59 O 0.14022 0.59761 0.66811 0.0
O60 O 0.24755 0.60629 0.72672 0.0
O61 O 0.24458 0.6004 0.67046 0.0
C62 C 0.25979 0.61209 0.69683 0.0
C63 C 0.16774 0.54458 0.59213 0.0
C64 C 0.14395 0.61454 0.6953 0.0
C65 C 0.19073 0.51349 0.70907 0.0
O66 O 0.17421 0.51869 0.68197 0.0
O67 O 0.20836 0.53594 0.72212 0.0
O68 O 0.1429 0.54108 0.61204 0.0
O69 O 0.19372 0.55778 0.60491 0.0
O70 O 0.60837 0.8269 0.29361 0.0
Cd71 Cd 0.57499 0.79276 0.31086 0.0
Cd72 Cd 0.56581 0.84 0.35542 0.0
O73 O 0.61062 0.85827 0.33946 0.0
O74 O 0.5907 0.75071 0.29047 0.0
O75 O 0.59039 0.76015 0.34629 0.0
C76 C 0.59835 0.74124 0.32102 0.0
C77 C 0.55039 0.83312 0.41301 0.0
C78 C 0.62111 0.85079 0.30974 0.0
C79 C 0.51547 0.83016 0.29947 0.0
O80 O 0.52864 0.84953 0.32097 0.0
O81 O 0.52744 0.80176 0.29446 0.0
O82 O 0.55282 0.86185 0.39937 0.0
O83 O 0.55809 0.80814 0.39425 0.0
O84 O 0.82947 0.40665 0.7377 0.0
Cd85 Cd 0.79046 0.43529 0.72343 0.0
Cd86 Cd 0.83477 0.45164 0.6711 0.0
O87 O 0.86105 0.4127 0.69224 0.0
O88 O 0.75332 0.41682 0.75041 0.0
O89 O 0.75509 0.41493 0.69385 0.0
C90 C 0.74041 0.40706 0.72203 0.0
C91 C 0.83676 0.46245 0.6119 0.0
C92 C 0.85538 0.39958 0.72129 0.0
C93 C 0.81544 0.50356 0.72407 0.0
O94 O 0.83336 0.49449 0.69917 0.0
O95 O 0.79457 0.48416 0.73722 0.0
O96 O 0.86225 0.46494 0.63107 0.0
O97 O 0.81008 0.45204 0.62588 0.0
O98 O 0.40206 0.18164 0.29464 0.0
Cd99 Cd 0.43455 0.21829 0.30618 0.0
Cd100 Cd 0.45411 0.17292 0.35379 0.0
O101 O 0.41293 0.14727 0.33681 0.0
O102 O 0.41539 0.25795 0.28389 0.0
O103 O 0.42064 0.25316 0.34006 0.0
C104 C 0.41025 0.26984 0.31404 0.0
C105 C 0.46734 0.17827 0.41228 0.0
C106 C 0.39636 0.15494 0.3103 0.0
C107 C 0.50051 0.18955 0.29514 0.0
O108 O 0.49414 0.17197 0.32126 0.0
O109 O 0.48057 0.21153 0.28518 0.0
O110 O 0.46987 0.1506 0.39651 0.0
O111 O 0.4558 0.20285 0.39519 0.0
O112 O 0.68118 0.90511 0.79833 0.0
Cd113 Cd 0.71904 0.93388 0.8152 0.0
Cd114 Cd 0.67141 0.95191 0.86287 0.0
O115 O 0.64585 0.91296 0.84036 0.0
O116 O 0.75872 0.91393 0.79369 0.0
O117 O 0.75088 0.91509 0.84972 0.0
C118 C 0.76845 0.90571 0.82395 0.0
C119 C 0.66871 0.96296 0.92216 0.0
C120 C 0.65377 0.899 0.8123 0.0
C121 C 0.69455 1.00217 0.80992 0.0
O122 O 0.67493 0.99418 0.83381 0.0
O123 O 0.71614 0.98218 0.79917 0.0
O124 O 0.64353 0.96592 0.90256 0.0
O125 O 0.69537 0.952 0.90855 0.0
O126 O 0.89834 0.34168 0.2202 0.0
Cd127 Cd 0.92889 0.30235 0.21237 0.0
Cd128 Cd 0.95531 0.34387 0.1622 0.0
O129 O 0.91529 0.37222 0.17698 0.0
O130 O 0.90665 0.26422 0.23424 0.0
O131 O 0.91562 0.26739 0.17841 0.0
C132 C 0.90332 0.25161 0.20411 0.0
C133 C 0.97188 0.34632 0.10441 0.0
C134 C 0.89625 0.36768 0.20238 0.0
C135 C 0.99733 0.32459 0.22397 0.0
O136 O 0.994 0.34078 0.1963 0.0
O137 O 0.97442 0.30639 0.23502 0.0
O138 O 0.97435 0.37112 0.12459 0.0
O139 O 0.95919 0.31982 0.11667 0.0
O140 O 0.33113 0.1053 0.79333 0.0
Cd141 Cd 0.29221 0.07674 0.80766 0.0
Cd142 Cd 0.33703 0.05991 0.85828 0.0
O143 O 0.3645 0.09825 0.83721 0.0
O144 O 0.25593 0.09481 0.77914 0.0
O145 O 0.25579 0.09742 0.83565 0.0
C146 C 0.24202 0.10486 0.80685 0.0
C147 C 0.33117 0.05066 0.91752 0.0
C148 C 0.35784 0.11173 0.80854 0.0
C149 C 0.31755 0.00855 0.80525 0.0
O150 O 0.33586 0.01705 0.83006 0.0
O151 O 0.29639 0.0282 0.79302 0.0
O152 O 0.35876 0.04639 0.90215 0.0
O153 O 0.30718 0.06228 0.89964 0.0
O154 O 0.09659 0.6864 0.23934 0.0
Cd155 Cd 0.06677 0.72422 0.22436 0.0
Cd156 Cd 0.05237 0.68182 0.17334 0.0
O157 O 0.09227 0.65584 0.19291 0.0
O158 O 0.08652 0.7645 0.24455 0.0
O159 O 0.08411 0.75539 0.18865 0.0
C160 C 0.09409 0.77349 0.2138 0.0
C161 C 0.04254 0.68667 0.11423 0.0
C162 C 0.10495 0.66126 0.22221 0.0
C163 C 0.99981 0.69786 0.22643 0.0
O164 O 0.00945 0.68041 0.20137 0.0
O165 O 0.01843 0.71951 0.23943 0.0
O166 O 0.0396 0.65906 0.12999 0.0
O167 O 0.05307 0.71144 0.13169 0.0
O168 O 0.68695 0.10225 0.23083 0.0
Cd169 Cd 0.72698 0.07456 0.21779 0.0
Cd170 Cd 0.68082 0.05159 0.17011 0.0
O171 O 0.65258 0.09045 0.18892 0.0
O172 O 0.76208 0.09548 0.24579 0.0
O173 O 0.7632 0.09519 0.18928 0.0
C174 C 0.77623 0.10446 0.21785 0.0
C175 C 0.684 0.03823 0.11143 0.0
C176 C 0.65951 0.10631 0.21614 0.0
C177 C 0.70446 1.00578 0.227 0.0
O178 O 0.68496 0.01142 0.20226 0.0
O179 O 0.72524 0.02718 0.23634 0.0
O180 O 0.65759 0.03365 0.12885 0.0
O181 O 0.7083 0.05209 0.1269 0.0
O182 O 0.11652 0.34109 0.79871 0.0
Cd183 Cd 0.08691 0.30107 0.80694 0.0
Cd184 Cd 0.06189 0.33993 0.85748 0.0
O185 O 0.10049 0.37035 0.84323 0.0
O186 O 0.10964 0.26274 0.78594 0.0
O187 O 0.10069 0.26712 0.84171 0.0
C188 C 0.11316 0.25088 0.8164 0.0
C189 C 0.04752 0.3342 0.91554 0.0
C190 C 0.11867 0.36681 0.81697 0.0
C191 C 0.01829 0.32271 0.79674 0.0
O192 O 0.02229 0.3385 0.82454 0.0
O193 O 0.04094 0.30449 0.78505 0.0
O194 O 0.04308 0.36126 0.89917 0.0
O195 O 0.06145 0.31039 0.89928 0.0
O196 O 0.33087 0.89612 0.21942 0.0
Cd197 Cd 0.29167 0.92775 0.21702 0.0
Cd198 Cd 0.33393 0.95904 0.16568 0.0
O199 O 0.36347 0.92032 0.18182 0.0
O200 O 0.25859 0.90602 0.24707 0.0
O201 O 0.25037 0.91383 0.1918 0.0
C202 C 0.24006 0.90229 0.22068 0.0
C203 C 0.33834 0.97715 0.10812 0.0
C204 C 0.3581 0.89785 0.20383 0.0
C205 C 0.3148 0.99728 0.22981 0.0
O206 O 0.3287 0.99657 0.20065 0.0
O207 O 0.29894 0.97265 0.24098 0.0
O208 O 0.36205 0.97996 0.12959 0.0
O209 O 0.3119 0.96324 0.11887 0.0
O210 O 0.90142 0.6753 0.8035 0.0
Cd211 Cd 0.93138 0.71533 0.80992 0.0
Cd212 Cd 0.95466 0.67545 0.86581 0.0
O213 O 0.91458 0.64762 0.85022 0.0
O214 O 0.91087 0.75036 0.78129 0.0
O215 O 0.9145 0.75385 0.83768 0.0
C216 C 0.90442 0.76625 0.80906 0.0
C217 C 0.96992 0.67317 0.92411 0.0
C218 C 0.89745 0.65075 0.82313 0.0
C219 C 1.00042 0.69163 0.80551 0.0
O220 O 0.99483 0.67683 0.83361 0.0
O221 O 0.97868 0.70962 0.79168 0.0
O222 O 0.97204 0.64808 0.90427 0.0
O223 O 0.95805 0.69981 0.91128 0.0
H224 H 0.30616 0.37891 0.35026 0.0
H225 H 0.31411 0.3951 0.24114 0.0
H226 H 0.35864 0.35558 0.23781 0.0
H227 H 0.39139 0.3124 0.26443 0.0
H228 H 0.38345 0.2946 0.37316 0.0
H229 H 0.34334 0.33897 0.37814 0.0
C230 C 0.31803 0.3742 0.32588 0.0
C231 C 0.30651 0.38977 0.29594 0.0
C232 C 0.34352 0.35093 0.32399 0.0
C233 C 0.32221 0.38333 0.26456 0.0
C234 C 0.3477 0.36065 0.26258 0.0
C235 C 0.38127 0.31848 0.28934 0.0
C236 C 0.39021 0.29995 0.3183 0.0
C237 C 0.35794 0.34366 0.29192 0.0
C238 C 0.377 0.30842 0.35041 0.0
C239 C 0.3539 0.3337 0.35325 0.0
H240 H 0.37063 0.71458 0.65988 0.0
H241 H 0.37942 0.71524 0.77023 0.0
H242 H 0.33889 0.67173 0.77457 0.0
H243 H 0.29783 0.63659 0.74777 0.0
H244 H 0.28737 0.63597 0.63767 0.0
H245 H 0.33174 0.67599 0.63253 0.0
C246 C 0.36402 0.70485 0.68482 0.0
C247 C 0.37798 0.71839 0.71469 0.0
C248 C 0.34017 0.67995 0.68724 0.0
C249 C 0.369 0.70551 0.74681 0.0
C250 C 0.34574 0.6806 0.74936 0.0
C251 C 0.30542 0.64491 0.72257 0.0
C252 C 0.28907 0.63341 0.69318 0.0
C253 C 0.33065 0.66814 0.71984 0.0
C254 C 0.29946 0.6444 0.66076 0.0
C255 C 0.32479 0.6674 0.65781 0.0
H256 H 0.62033 0.69913 0.27232 0.0
H257 H 0.62378 0.71741 0.38125 0.0
H258 H 0.66522 0.67454 0.38794 0.0
H259 H 0.70474 0.6359 0.36175 0.0
H260 H 0.70209 0.62001 0.25232 0.0
H261 H 0.65609 0.65766 0.24707 0.0
C262 C 0.62971 0.69344 0.29766 0.0
C263 C 0.61906 0.71169 0.32618 0.0
C264 C 0.65403 0.66931 0.3012 0.0
C265 C 0.63152 0.70382 0.3588 0.0
C266 C 0.65538 0.6794 0.36263 0.0
C267 C 0.69374 0.64029 0.33685 0.0
C268 C 0.70709 0.62531 0.30744 0.0
C269 C 0.66749 0.66258 0.33386 0.0
C270 C 0.69255 0.63137 0.27536 0.0
C271 C 0.66621 0.65295 0.27229 0.0
H272 H 0.63043 0.30353 0.7539 0.0
H273 H 0.63722 0.28815 0.6447 0.0
H274 H 0.6759 0.33378 0.64003 0.0
H275 H 0.71165 0.37488 0.66804 0.0
H276 H 0.70419 0.38932 0.77749 0.0
H277 H 0.66183 0.34755 0.78083 0.0
C278 C 0.64007 0.31035 0.72898 0.0
C279 C 0.63115 0.29222 0.69976 0.0
C280 C 0.66239 0.33642 0.72654 0.0
C281 C 0.64367 0.30165 0.66764 0.0
C282 C 0.66592 0.32768 0.66498 0.0
C283 C 0.70038 0.36925 0.69252 0.0
C284 C 0.71141 0.3851 0.7225 0.0
C285 C 0.67604 0.3448 0.69439 0.0
C286 C 0.69645 0.37745 0.754 0.0
C287 C 0.6722 0.35345 0.756 0.0
H288 H 0.80911 0.88297 0.77433 0.0
H289 H 0.79213 0.8785 0.88344 0.0
H290 H 0.83494 0.83683 0.88914 0.0
H291 H 0.87391 0.79807 0.86216 0.0
H292 H 0.88886 0.80214 0.75263 0.0
H293 H 0.85041 0.84757 0.74821 0.0
C294 C 0.81499 0.87323 0.79947 0.0
C295 C 0.79722 0.88377 0.82836 0.0
C296 C 0.83922 0.84894 0.80247 0.0
C297 C 0.80535 0.87086 0.86072 0.0
C298 C 0.82977 0.8469 0.86399 0.0
C299 C 0.86911 0.80925 0.83742 0.0
C300 C 0.88416 0.79649 0.80774 0.0
C301 C 0.8464 0.83521 0.83491 0.0
C302 C 0.87753 0.81123 0.77587 0.0
C303 C 0.85547 0.83725 0.77328 0.0
H304 H 0.80549 0.13763 0.16483 0.0
H305 H 0.81099 0.12208 0.27424 0.0
H306 H 0.85266 0.16438 0.27902 0.0
H307 H 0.8839 0.20909 0.25338 0.0
H308 H 0.87889 0.22593 0.14429 0.0
H309 H 0.84108 0.17971 0.13813 0.0
C310 C 0.8162 0.14315 0.1896 0.0
C311 C 0.80482 0.12685 0.21916 0.0
C312 C 0.8401 0.16795 0.19233 0.0
C313 C 0.81901 0.13435 0.25108 0.0
C314 C 0.84287 0.15862 0.2539 0.0
C315 C 0.87484 0.20248 0.22816 0.0
C316 C 0.88397 0.22116 0.19941 0.0
C317 C 0.85299 0.17612 0.22488 0.0
C318 C 0.87223 0.212 0.16689 0.0
C319 C 0.85048 0.18564 0.16337 0.0
H320 H 0.13283 0.20711 0.76837 0.0
H321 H 0.13815 0.22721 0.87683 0.0
H322 H 0.17649 0.18159 0.88431 0.0
H323 H 0.21246 0.13916 0.85885 0.0
H324 H 0.20659 0.12012 0.75008 0.0
H325 H 0.16438 0.16182 0.74408 0.0
C326 C 0.14208 0.20133 0.79375 0.0
C327 C 0.13288 0.22078 0.82192 0.0
C328 C 0.16421 0.17526 0.7978 0.0
C329 C 0.14486 0.21268 0.85467 0.0
C330 C 0.1669 0.18666 0.85894 0.0
C331 C 0.20154 0.14377 0.83396 0.0
C332 C 0.21299 0.12667 0.80492 0.0
C333 C 0.17734 0.16821 0.83053 0.0
C334 C 0.19851 0.13299 0.77285 0.0
C335 C 0.17436 0.15694 0.76934 0.0
H336 H 0.2035 0.87445 0.1694 0.0
H337 H 0.20707 0.88793 0.27915 0.0
H338 H 0.15994 0.85207 0.28618 0.0
H339 H 0.12101 0.81302 0.26208 0.0
H340 H 0.11818 0.79687 0.15276 0.0
H341 H 0.16124 0.83785 0.14466 0.0
C342 C 0.19361 0.86991 0.19477 0.0
C343 C 0.20899 0.88371 0.22372 0.0
C344 C 0.1667 0.8486 0.19877 0.0
C345 C 0.19594 0.87745 0.25644 0.0
C346 C 0.16895 0.85691 0.26053 0.0
C347 C 0.12942 0.81874 0.23638 0.0
C348 C 0.11645 0.80169 0.20812 0.0
C349 C 0.15463 0.84175 0.232 0.0
C350 C 0.12771 0.80956 0.17503 0.0
C351 C 0.15248 0.83291 0.17038 0.0
H352 H 0.1767 0.55964 0.31732 0.0
H353 H 0.19746 0.51373 0.2202 0.0
H354 H 0.17225 0.56 0.18992 0.0
H355 H 0.13876 0.61076 0.19178 0.0
H356 H 0.12045 0.65678 0.28971 0.0
H357 H 0.15036 0.61345 0.31877 0.0
C358 C 0.17627 0.56011 0.28949 0.0
C359 C 0.18863 0.53331 0.271 0.0
C360 C 0.1618 0.58666 0.27238 0.0
C361 C 0.18823 0.53424 0.23497 0.0
C362 C 0.17353 0.56054 0.21768 0.0
C363 C 0.14168 0.61147 0.21942 0.0
C364 C 0.12691 0.6368 0.23849 0.0
C365 C 0.15934 0.58645 0.23619 0.0
C366 C 0.13135 0.63758 0.27428 0.0
C367 C 0.14843 0.61273 0.29105 0.0
H368 H 0.55898 0.83505 0.7042 0.0
H369 H 0.49884 0.8219 0.79392 0.0
H370 H 0.54284 0.84321 0.83028 0.0
H371 H 0.59652 0.87118 0.83552 0.0
H372 H 0.65693 0.88135 0.74523 0.0
H373 H 0.61501 0.85542 0.71048 0.0
C374 C 0.55576 0.83628 0.7318 0.0
C375 C 0.52567 0.82719 0.74631 0.0
C376 C 0.58116 0.84837 0.7525 0.0
C377 C 0.52188 0.82862 0.78213 0.0
C378 C 0.54694 0.84107 0.80291 0.0
C379 C 0.60066 0.86729 0.80835 0.0
C380 C 0.62975 0.87871 0.79308 0.0
C381 C 0.57641 0.8519 0.78825 0.0
C382 C 0.63482 0.87304 0.75784 0.0
C383 C 0.61077 0.85826 0.73777 0.0
H384 H 0.8652 0.37267 0.26361 0.0
H385 H 0.87831 0.42331 0.16738 0.0
H386 H 0.84868 0.47076 0.18999 0.0
H387 H 0.82493 0.50027 0.23952 0.0
H388 H 0.81725 0.45086 0.33694 0.0
H389 H 0.83836 0.40042 0.31139 0.0
C390 C 0.86111 0.39382 0.24728 0.0
C391 C 0.87416 0.39443 0.21388 0.0
C392 C 0.8451 0.42138 0.26082 0.0
C393 C 0.86871 0.4222 0.19325 0.0
C394 C 0.85181 0.4494 0.20619 0.0
C395 C 0.82715 0.47817 0.25483 0.0
C396 C 0.81946 0.47911 0.28998 0.0
C397 C 0.84071 0.44963 0.24028 0.0
C398 C 0.82302 0.4506 0.30981 0.0
C399 C 0.8352 0.42183 0.29525 0.0
H400 H 0.45501 0.17528 0.70262 0.0
H401 H 0.51474 0.18554 0.79302 0.0
H402 H 0.46997 0.16467 0.82867 0.0
H403 H 0.41555 0.13788 0.83295 0.0
H404 H 0.35572 0.13079 0.74186 0.0
H405 H 0.3985 0.15626 0.70804 0.0
C406 C 0.45796 0.17351 0.73022 0.0
C407 C 0.48812 0.18165 0.74515 0.0
C408 C 0.43214 0.16172 0.75049 0.0
C409 C 0.49163 0.17955 0.78096 0.0
C410 C 0.46612 0.16735 0.80131 0.0
C411 C 0.41172 0.14235 0.80583 0.0
C412 C 0.38253 0.13187 0.79005 0.0
C413 C 0.43651 0.15749 0.78622 0.0
C414 C 0.3779 0.1383 0.75487 0.0
C415 C 0.40245 0.15284 0.73531 0.0
H416 H 0.18185 0.50267 0.7772 0.0
H417 H 0.18868 0.45349 0.67962 0.0
H418 H 0.17154 0.40199 0.7061 0.0
H419 H 0.14786 0.37304 0.75486 0.0
H420 H 0.13527 0.42316 0.85146 0.0
H421 H 0.16168 0.472 0.82774 0.0
C422 C 0.18038 0.48042 0.76205 0.0
C423 C 0.18664 0.48169 0.72659 0.0
C424 C 0.16901 0.4512 0.77719 0.0
C425 C 0.18402 0.45296 0.70697 0.0
C426 C 0.17408 0.42359 0.72207 0.0
C427 C 0.1514 0.39439 0.77103 0.0
C428 C 0.13936 0.39443 0.80487 0.0
C429 C 0.16547 0.4227 0.75687 0.0
C430 C 0.14411 0.42246 0.82528 0.0
C431 C 0.15915 0.45046 0.81169 0.0
H432 H 0.42196 0.91403 0.20649 0.0
H433 H 0.35506 0.83557 0.23005 0.0
H434 H 0.39896 0.80544 0.25916 0.0
H435 H 0.45548 0.80417 0.28298 0.0
H436 H 0.51924 0.88644 0.26439 0.0
H437 H 0.47779 0.91221 0.22837 0.0
C438 C 0.41716 0.88998 0.21727 0.0
C439 C 0.38542 0.87692 0.21584 0.0
C440 C 0.44199 0.87369 0.23541 0.0
C441 C 0.3794 0.84606 0.23068 0.0
C442 C 0.40444 0.82893 0.24751 0.0
C443 C 0.46022 0.82754 0.27067 0.0
C444 C 0.49019 0.84352 0.27634 0.0
C445 C 0.43567 0.8429 0.25087 0.0
C446 C 0.49614 0.87391 0.26057 0.0
C447 C 0.47252 0.88862 0.23991 0.0
H448 H 0.82372 0.51822 0.79138 0.0
H449 H 0.82321 0.5609 0.69027 0.0
H450 H 0.84449 0.61238 0.71333 0.0
H451 H 0.8697 0.64245 0.76053 0.0
H452 H 0.87584 0.59817 0.86088 0.0
H453 H 0.84576 0.5503 0.84003 0.0
C454 C 0.82745 0.53917 0.77469 0.0
C455 C 0.8217 0.53604 0.73928 0.0
C456 C 0.84122 0.56818 0.78792 0.0
C457 C 0.82733 0.56295 0.71764 0.0
C458 C 0.83967 0.59227 0.73079 0.0
C459 C 0.864 0.62263 0.77809 0.0
C460 C 0.87524 0.62389 0.8122 0.0
C461 C 0.84772 0.59477 0.76566 0.0
C462 C 0.86769 0.5978 0.83445 0.0
C463 C 0.85052 0.57038 0.82252 0.0
H464 H 0.60394 0.13508 0.18954 0.0
H465 H 0.65861 0.12249 0.28345 0.0
H466 H 0.61546 0.14926 0.31573 0.0
H467 H 0.56007 0.17186 0.31858 0.0
H468 H 0.50588 0.18825 0.22539 0.0
H469 H 0.55089 0.16496 0.19164 0.0
C470 C 0.60651 0.13858 0.21697 0.0
C471 C 0.6344 0.1264 0.23396 0.0
C472 C 0.58162 0.15465 0.23564 0.0
C473 C 0.6375 0.13152 0.26954 0.0
C474 C 0.61274 0.14677 0.2882 0.0
C475 C 0.55842 0.17086 0.29082 0.0
C476 C 0.52975 0.18152 0.27448 0.0
C477 C 0.58443 0.1578 0.27167 0.0
C478 C 0.52789 0.18035 0.2385 0.0
C479 C 0.5535 0.16678 0.21923 0.0
H480 H 0.68685 0.01286 0.74186 0.0
H481 H 0.68852 0.06172 0.83981 0.0
H482 H 0.6692 0.11243 0.81307 0.0
H483 H 0.64525 0.14036 0.76371 0.0
H484 H 0.63717 0.08989 0.66682 0.0
H485 H 0.66579 0.04246 0.69101 0.0
C486 C 0.68381 0.03495 0.75703 0.0
C487 C 0.6894 0.03387 0.79261 0.0
C488 C 0.67107 0.06352 0.74173 0.0
C489 C 0.68458 0.06223 0.81233 0.0
C490 C 0.67337 0.0911 0.79708 0.0
C491 C 0.65027 0.11928 0.7476 0.0
C492 C 0.63895 0.1187 0.71348 0.0
C493 C 0.66553 0.0917 0.76204 0.0
C494 C 0.64547 0.09097 0.69317 0.0
C495 C 0.66178 0.0638 0.70704 0.0
H496 H 0.10357 0.37497 0.32779 0.0
H497 H 0.1613 0.37463 0.23496 0.0
H498 H 0.11677 0.34875 0.20396 0.0
H499 H 0.05916 0.33249 0.20114 0.0
H500 H 1.00145 0.32995 0.29356 0.0
H501 H 0.0482 0.3502 0.32676 0.0
C502 C 0.1066 0.3687 0.30095 0.0
C503 C 0.13563 0.37738 0.28372 0.0
C504 C 0.08077 0.3535 0.28304 0.0
C505 C 0.13924 0.3686 0.24898 0.0
C506 C 0.11368 0.35385 0.23106 0.0
C507 C 0.05708 0.33576 0.22868 0.0
C508 C 0.02695 0.33011 0.24487 0.0
C509 C 0.08401 0.34718 0.24752 0.0
C510 C 0.02452 0.33408 0.28058 0.0
C511 C 0.05116 0.3459 0.29951 0.0
H512 H 0.32667 0.99696 0.73757 0.0
H513 H 0.32437 0.94962 0.83635 0.0
H514 H 0.34468 0.89876 0.81077 0.0
H515 H 0.36928 0.87028 0.7622 0.0
H516 H 0.37802 0.91928 0.66451 0.0
H517 H 0.3488 0.96688 0.68756 0.0
C518 C 0.32985 0.97517 0.75318 0.0
C519 C 0.32377 0.97671 0.78865 0.0
C520 C 0.34313 0.94654 0.73856 0.0
C521 C 0.32872 0.94875 0.80895 0.0
C522 C 0.34048 0.9198 0.79436 0.0
C523 C 0.36431 0.89108 0.74566 0.0
C524 C 0.37593 0.8912 0.71165 0.0
C525 C 0.34871 0.91875 0.75944 0.0
C526 C 0.36947 0.91857 0.69079 0.0
C527 C 0.35282 0.94583 0.704 0.0
H528 H 0.86178 0.64138 0.26252 0.0
H529 H 0.9058 0.6351 0.36293 0.0
H530 H 0.95352 0.66548 0.34222 0.0
H531 H 0.98537 0.68833 0.29371 0.0
H532 H 0.94282 0.68901 0.19258 0.0
H533 H 0.89173 0.66686 0.21545 0.0
C534 C 0.88152 0.64707 0.28013 0.0
C535 C 0.88019 0.63578 0.31424 0.0
C536 C 0.90927 0.66354 0.26778 0.0
C537 C 0.90619 0.64331 0.33652 0.0
C538 C 0.93354 0.66066 0.32466 0.0
C539 C 0.96454 0.68438 0.27697 0.0
C540 C 0.96758 0.69052 0.24161 0.0
C541 C 0.93572 0.67016 0.2901 0.0
C542 C 0.94084 0.6846 0.21991 0.0
C543 C 0.91174 0.67178 0.23295 0.0
H544 H 0.68757 0.94551 0.20427 0.0
H545 H 0.70888 0.99973 0.29643 0.0
H546 H 0.68789 0.95452 0.33142 0.0
H547 H 0.65628 0.90286 0.33503 0.0
H548 H 0.63742 0.84826 0.24216 0.0
H549 H 0.6651 0.88994 0.2085 0.0
C550 C 0.68831 0.94704 0.23204 0.0
C551 C 0.69937 0.97593 0.24777 0.0
C552 C 0.67631 0.921 0.25192 0.0
C553 C 0.70055 0.97762 0.28376 0.0
C554 C 0.68828 0.95189 0.30376 0.0
C555 C 0.65882 0.89976 0.30753 0.0
C556 C 0.6441 0.87272 0.29121 0.0
C557 C 0.675 0.92393 0.28805 0.0
C558 C 0.64811 0.86891 0.25554 0.0
C559 C 0.66387 0.89285 0.23611 0.0
H560 H 0.91094 0.37244 0.69346 0.0
H561 H 0.8566 0.38065 0.78813 0.0
H562 H 0.90107 0.35468 0.81926 0.0
H563 H 0.95771 0.33526 0.82105 0.0
H564 H 0.01207 0.32462 0.72701 0.0
H565 H 0.96525 0.34537 0.69425 0.0
C566 C 0.90865 0.3681 0.7208 0.0
C567 C 0.88058 0.37904 0.73839 0.0
C568 C 0.93442 0.35284 0.73878 0.0
C569 C 0.87791 0.37277 0.7738 0.0
C570 C 0.90342 0.35796 0.79178 0.0
C571 C 0.95906 0.33693 0.7933 0.0
C572 C 0.98831 0.32877 0.77648 0.0
C573 C 0.93212 0.34876 0.77473 0.0
C574 C 0.98971 0.33068 0.74052 0.0
C575 C 0.96304 0.3428 0.72181 0.0
H576 H 0.37425 0.09616 0.33612 0.0
H577 H 0.36657 0.16021 0.24818 0.0
H578 H 0.33722 0.11814 0.21676 0.0
H579 H 0.32013 0.06086 0.21124 0.0
H580 H 0.32526 0.99675 0.29891 0.0
H581 H 0.34859 0.04113 0.33346 0.0
C582 C 0.36564 0.10111 0.31033 0.0
C583 C 0.3733 0.13118 0.29445 0.0
C584 C 0.34844 0.07668 0.29216 0.0
C585 C 0.36147 0.13726 0.2611 0.0
C586 C 0.34468 0.11314 0.24293 0.0
C587 C 0.32567 0.05688 0.23814 0.0
C588 C 0.32131 0.02561 0.25244 0.0
C589 C 0.33901 0.08243 0.25776 0.0
C590 C 0.32829 0.02073 0.28738 0.0
C591 C 0.34192 0.04601 0.30705 0.0
H592 H 0.1383 0.64152 0.75862 0.0
H593 H 0.08779 0.63331 0.66179 0.0
H594 H 0.04008 0.661 0.68633 0.0
H595 H 0.01059 0.68212 0.73723 0.0
H596 H 0.06013 0.68514 0.83481 0.0
H597 H 0.11043 0.66539 0.80801 0.0
C598 C 0.1171 0.64621 0.74262 0.0
C599 C 0.11667 0.63516 0.7084 0.0
C600 C 0.08944 0.66116 0.75718 0.0
C601 C 0.0888 0.64138 0.68824 0.0
C602 C 0.06146 0.65718 0.70229 0.0
C603 C 0.03267 0.67916 0.75236 0.0
C604 C 0.03178 0.6852 0.78789 0.0
C605 C 0.06118 0.66644 0.73699 0.0
C606 C 0.0603 0.68066 0.80741 0.0
C607 C 0.089 0.66925 0.79213 0.0
H608 H 0.21846 0.52451 0.55142 0.0
H609 H 0.11355 0.53616 0.55305 0.0
H610 H 0.10963 0.5124 0.4958 0.0
H611 H 0.13562 0.4878 0.44553 0.0
H612 H 0.24026 0.47391 0.44377 0.0
H613 H 0.24461 0.49855 0.50087 0.0
C614 C 0.19482 0.52214 0.53903 0.0
C615 C 0.16636 0.53235 0.55637 0.0
C616 C 0.19264 0.50765 0.50626 0.0
C617 C 0.13583 0.52858 0.54025 0.0
C618 C 0.13354 0.5149 0.50753 0.0
C619 C 0.15941 0.48997 0.45765 0.0
C620 C 0.18756 0.47896 0.44032 0.0
C621 C 0.16172 0.50415 0.4904 0.0
C622 C 0.21815 0.48199 0.45654 0.0
C623 C 0.22068 0.49627 0.48914 0.0
H624 H 0.5356 0.88116 0.45879 0.0
H625 H 0.53593 0.77599 0.44694 0.0
H626 H 0.51188 0.76977 0.50407 0.0
H627 H 0.49018 0.79444 0.55755 0.0
H628 H 0.49151 0.8997 0.56899 0.0
H629 H 0.51515 0.90554 0.51197 0.0
C630 C 0.53056 0.85682 0.46869 0.0
C631 C 0.53761 0.8291 0.44849 0.0
C632 C 0.51675 0.85343 0.50154 0.0
C633 C 0.53089 0.79779 0.4619 0.0
C634 C 0.517 0.79421 0.49457 0.0
C635 C 0.49548 0.81863 0.54745 0.0
C636 C 0.4889 0.84658 0.56756 0.0
C637 C 0.50964 0.82188 0.5146 0.0
C638 C 0.49628 0.87774 0.55418 0.0
C639 C 0.50987 0.88115 0.52152 0.0
H640 H 0.86992 0.51542 0.46418 0.0
H641 H 0.76703 0.53909 0.46549 0.0
H642 H 0.76181 0.51426 0.52243 0.0
H643 H 0.78686 0.48612 0.57232 0.0
H644 H 0.89022 0.46465 0.57084 0.0
H645 H 0.89472 0.48778 0.51333 0.0
C646 C 0.84632 0.51529 0.4769 0.0
C647 C 0.81893 0.52922 0.46055 0.0
C648 C 0.84351 0.50099 0.50953 0.0
C649 C 0.78857 0.52875 0.47752 0.0
C650 C 0.78554 0.51438 0.51003 0.0
C651 C 0.81023 0.48612 0.55915 0.0
C652 C 0.83813 0.47344 0.57572 0.0
C653 C 0.81284 0.50032 0.52628 0.0
C654 C 0.86838 0.47416 0.55862 0.0
C655 C 0.87101 0.48751 0.52578 0.0
H656 H 0.48616 0.12974 0.45579 0.0
H657 H 0.47537 0.23479 0.44951 0.0
H658 H 0.49827 0.24054 0.50723 0.0
H659 H 0.52207 0.21553 0.5596 0.0
H660 H 0.53058 0.11022 0.56574 0.0
H661 H 0.50822 0.10487 0.50805 0.0
C662 C 0.48866 0.15393 0.46704 0.0
C663 C 0.47905 0.18178 0.44823 0.0
C664 C 0.50174 0.15704 0.50025 0.0
C665 C 0.48241 0.2129 0.46339 0.0
C666 C 0.49567 0.21622 0.49638 0.0
C667 C 0.51921 0.19146 0.54817 0.0
C668 C 0.52821 0.16333 0.56694 0.0
C669 C 0.50563 0.18846 0.51502 0.0
C670 C 0.5239 0.13229 0.55193 0.0
C671 C 0.51106 0.12917 0.5189 0.0
H672 H 0.6355 0.01329 0.07137 0.0
H673 H 0.73874 0.03527 0.07088 0.0
H674 H 0.7437 0.01198 0.01327 0.0
H675 H 0.71853 0.98536 0.96264 0.0
H676 H 0.6148 0.96598 0.96276 0.0
H677 H 0.61034 0.98777 0.0209 0.0
C678 C 0.6591 0.01313 0.05866 0.0
C679 C 0.68669 0.0261 0.07553 0.0
C680 C 0.66176 0.99981 0.02549 0.0
C681 C 0.71704 0.02566 0.05852 0.0
C682 C 0.71994 0.01217 0.02559 0.0
C683 C 0.69505 0.98557 0.9756 0.0
C684 C 0.66708 0.97375 0.95848 0.0
C685 C 0.69248 0.99903 1.00884 0.0
C686 C 0.63672 0.97479 0.97537 0.0
C687 C 0.63412 0.98736 1.00861 0.0
H688 H 0.02541 0.38223 0.95754 0.0
H689 H 0.04205 0.27784 0.95362 0.0
H690 H 0.01863 0.27189 1.01113 0.0
H691 H 0.99295 0.29663 0.06266 0.0
H692 H 0.97886 0.40144 0.06638 0.0
H693 H 1.00137 0.40685 1.00877 0.0
C694 C 0.02404 0.35814 0.96925 0.0
C695 C 0.03545 0.33053 0.95124 0.0
C696 C 0.0107 0.35495 1.00226 0.0
C697 C 0.03359 0.29955 0.96695 0.0
C698 C 0.02004 0.29611 0.99979 0.0
C699 C 0.99459 0.32057 0.05067 0.0
C700 C 0.98404 0.34857 0.0687 0.0
C701 C 0.00833 0.32364 0.01765 0.0
C702 C 0.98678 0.3795 0.05308 0.0
C703 C 0.99971 0.38265 0.02013 0.0
H704 H 0.37845 0.03241 0.9627 0.0
H705 H 0.27393 0.0442 0.9536 0.0
H706 H 0.26655 0.0214 1.01117 0.0
H707 H 0.28993 0.99673 0.06394 0.0
H708 H 0.39472 0.98735 0.07305 0.0
H709 H 0.40176 0.01018 0.01571 0.0
C710 C 0.35403 0.03024 0.97335 0.0
C711 C 0.3268 0.04001 0.95373 0.0
C712 C 0.34998 0.01714 1.00646 0.0
C713 C 0.29537 0.03706 0.96812 0.0
C714 C 0.29111 0.02381 1.001 0.0
C715 C 0.31425 0.99952 0.05323 0.0
C716 C 0.34174 0.99006 0.07268 0.0
C717 C 0.31823 0.01343 0.02033 0.0
C718 C 0.37314 0.99435 0.05866 0.0
C719 C 0.37722 0.00747 0.02585 0.0
H720 H 0.98982 0.72318 0.96608 0.0
H721 H 0.97759 0.61814 0.96225 0.0
H722 H 0.99994 0.61308 0.01995 0.0
H723 H 0.023 0.63808 0.07146 0.0
H724 H 0.03704 0.74284 0.07582 0.0
H725 H 0.01448 0.74833 0.01791 0.0
C726 C 0.99182 0.69926 0.97805 0.0
C727 C 0.98182 0.6711 0.95995 0.0
C728 C 1.00539 0.6964 1.01119 0.0
C729 C 0.98504 0.64021 0.97559 0.0
C730 C 0.9979 0.63725 1.00859 0.0
C731 C 0.02135 0.66215 0.05973 0.0
C732 C 0.03173 0.68999 0.07803 0.0
C733 C 0.00828 0.66512 0.02656 0.0
C734 C 0.0294 0.72095 0.0623 0.0
C735 C 0.0163 0.72413 0.02923 0.0
loop_
_geom_bond_atom_site_label_1
_geom_bond_atom_site_label_2
_geom_bond_distance
_geom_bond_site_symmetry_2
_ccdc_geom_bond_type
O0 Cd1 2.223 . S
O0 C8 1.315 . S
Cd1 O0 2.223 . S
Cd1 O4 2.297 . S
Cd1 O5 2.439 . S
Cd1 O11 2.240 . S
Cd2 O3 2.240 . S
Cd2 O10 2.223 . S
Cd2 O12 2.297 . S
Cd2 O13 2.439 . S
O3 Cd2 2.240 . S
O3 C8 1.279 . S
O4 Cd1 2.297 . S
O4 C6 1.247 . S
O5 Cd1 2.439 . S
O5 C6 1.208 . S
C6 O4 1.247 . S
C6 O5 1.208 . S
C7 O12 1.247 . S
C7 O13 1.208 . S
C8 O0 1.315 . S
C8 O3 1.279 . S
C9 O10 1.315 . S
C9 O11 1.279 . S
O10 Cd2 2.223 . S
O10 C9 1.315 . S
O11 Cd1 2.240 . S
O11 C9 1.279 . S
O12 Cd2 2.297 . S
O12 C7 1.247 . S
O13 Cd2 2.439 . S
O13 C7 1.208 . S
O14 Cd15 2.223 . S
O14 C22 1.315 . S
Cd15 O14 2.223 . S
Cd15 O18 2.297 . S
Cd15 O19 2.439 . S
Cd15 O25 2.240 . S
Cd16 O17 2.240 . S
Cd16 O24 2.223 . S
Cd16 O26 2.297 . S
Cd16 O27 2.439 . S
O17 Cd16 2.240 . S
O17 C22 1.279 . S
O18 Cd15 2.297 . S
O18 C20 1.247 . S
O19 Cd15 2.439 . S
O19 C20 1.208 . S
C20 O18 1.247 . S
C20 O19 1.208 . S
C21 O26 1.247 . S
C21 O27 1.208 . S
C22 O14 1.315 . S
C22 O17 1.279 . S
C23 O24 1.315 . S
C23 O25 1.279 . S
O24 Cd16 2.223 . S
O24 C23 1.315 . S
O25 Cd15 2.240 . S
O25 C23 1.279 . S
O26 Cd16 2.297 . S
O26 C21 1.247 . S
O27 Cd16 2.439 . S
O27 C21 1.208 . S
O28 Cd29 2.223 . S
O28 C36 1.315 . S
Cd29 O28 2.223 . S
Cd29 O32 2.297 . S
Cd29 O33 2.439 . S
Cd29 O39 2.240 . S
Cd30 O31 2.240 . S
Cd30 O38 2.223 . S
Cd30 O40 2.297 . S
Cd30 O41 2.439 . S
O31 Cd30 2.240 . S
O31 C36 1.279 . S
O32 Cd29 2.297 . S
O32 C34 1.247 . S
O33 Cd29 2.439 . S
O33 C34 1.208 . S
C34 O32 1.247 . S
C34 O33 1.208 . S
C35 O40 1.247 . S
C35 O41 1.208 . S
C36 O28 1.315 . S
C36 O31 1.279 . S
C37 O38 1.315 . S
C37 O39 1.279 . S
O38 Cd30 2.223 . S
O38 C37 1.315 . S
O39 Cd29 2.240 . S
O39 C37 1.279 . S
O40 Cd30 2.297 . S
O40 C35 1.247 . S
O41 Cd30 2.439 . S
O41 C35 1.208 . S
O42 Cd43 2.223 . S
O42 C50 1.315 . S
Cd43 O42 2.223 . S
Cd43 O46 2.297 . S
Cd43 O47 2.439 . S
Cd43 O53 2.240 . S
Cd44 O45 2.240 . S
Cd44 O52 2.223 . S
Cd44 O54 2.297 . S
Cd44 O55 2.439 . S
O45 Cd44 2.240 . S
O45 C50 1.279 . S
O46 Cd43 2.297 . S
O46 C48 1.247 . S
O47 Cd43 2.439 . S
O47 C48 1.208 . S
C48 O46 1.247 . S
C48 O47 1.208 . S
C49 O54 1.247 . S
C49 O55 1.208 . S
C50 O42 1.315 . S
C50 O45 1.279 . S
C51 O52 1.315 . S
C51 O53 1.279 . S
O52 Cd44 2.223 . S
O52 C51 1.315 . S
O53 Cd43 2.240 . S
O53 C51 1.279 . S
O54 Cd44 2.297 . S
O54 C49 1.247 . S
O55 Cd44 2.439 . S
O55 C49 1.208 . S
O56 Cd57 2.223 . S
O56 C64 1.315 . S
Cd57 O56 2.223 . S
Cd57 O60 2.297 . S
Cd57 O61 2.439 . S
Cd57 O67 2.240 . S
Cd58 O59 2.240 . S
Cd58 O66 2.223 . S
Cd58 O68 2.297 . S
Cd58 O69 2.439 . S
O59 Cd58 2.240 . S
O59 C64 1.279 . S
O60 Cd57 2.297 . S
O60 C62 1.247 . S
O61 Cd57 2.439 . S
O61 C62 1.208 . S
C62 O60 1.247 . S
C62 O61 1.208 . S
C63 O68 1.247 . S
C63 O69 1.208 . S
C64 O56 1.315 . S
C64 O59 1.279 . S
C65 O66 1.315 . S
C65 O67 1.279 . S
O66 Cd58 2.223 . S
O66 C65 1.315 . S
O67 Cd57 2.240 . S
O67 C65 1.279 . S
O68 Cd58 2.297 . S
O68 C63 1.247 . S
O69 Cd58 2.439 . S
O69 C63 1.208 . S
O70 Cd71 2.223 . S
O70 C78 1.315 . S
Cd71 O70 2.223 . S
Cd71 O74 2.297 . S
Cd71 O75 2.439 . S
Cd71 O81 2.240 . S
Cd72 O73 2.240 . S
Cd72 O80 2.223 . S
Cd72 O82 2.297 . S
Cd72 O83 2.439 . S
O73 Cd72 2.240 . S
O73 C78 1.279 . S
O74 Cd71 2.297 . S
O74 C76 1.247 . S
O75 Cd71 2.439 . S
O75 C76 1.208 . S
C76 O74 1.247 . S
C76 O75 1.208 . S
C77 O82 1.247 . S
C77 O83 1.208 . S
C78 O70 1.315 . S
C78 O73 1.279 . S
C79 O80 1.315 . S
C79 O81 1.279 . S
O80 Cd72 2.223 . S
O80 C79 1.315 . S
O81 Cd71 2.240 . S
O81 C79 1.279 . S
O82 Cd72 2.297 . S
O82 C77 1.247 . S
O83 Cd72 2.439 . S
O83 C77 1.208 . S
O84 Cd85 2.223 . S
O84 C92 1.315 . S
Cd85 O84 2.223 . S
Cd85 O88 2.297 . S
Cd85 O89 2.439 . S
Cd85 O95 2.240 . S
Cd86 O87 2.240 . S
Cd86 O94 2.223 . S
Cd86 O96 2.297 . S
Cd86 O97 2.439 . S
O87 Cd86 2.240 . S
O87 C92 1.279 . S
O88 Cd85 2.297 . S
O88 C90 1.247 . S
O89 Cd85 2.439 . S
O89 C90 1.208 . S
C90 O88 1.247 . S
C90 O89 1.208 . S
C91 O96 1.247 . S
C91 O97 1.208 . S
C92 O84 1.315 . S
C92 O87 1.279 . S
C93 O94 1.315 . S
C93 O95 1.279 . S
O94 Cd86 2.223 . S
O94 C93 1.315 . S
O95 Cd85 2.240 . S
O95 C93 1.279 . S
O96 Cd86 2.297 . S
O96 C91 1.247 . S
O97 Cd86 2.439 . S
O97 C91 1.208 . S
O98 Cd99 2.223 . S
O98 C106 1.315 . S
Cd99 O98 2.223 . S
Cd99 O102 2.297 . S
Cd99 O103 2.439 . S
Cd99 O109 2.240 . S
Cd100 O101 2.240 . S
Cd100 O108 2.223 . S
Cd100 O110 2.297 . S
Cd100 O111 2.439 . S
O101 Cd100 2.240 . S
O101 C106 1.279 . S
O102 Cd99 2.297 . S
O102 C104 1.247 . S
O103 Cd99 2.439 . S
O103 C104 1.208 . S
C104 O102 1.247 . S
C104 O103 1.208 . S
C105 O110 1.247 . S
C105 O111 1.208 . S
C106 O98 1.315 . S
C106 O101 1.279 . S
C107 O108 1.315 . S
C107 O109 1.279 . S
O108 Cd100 2.223 . S
O108 C107 1.315 . S
O109 Cd99 2.240 . S
O109 C107 1.279 . S
O110 Cd100 2.297 . S
O110 C105 1.247 . S
O111 Cd100 2.439 . S
O111 C105 1.208 . S
O112 Cd113 2.223 . S
O112 C120 1.315 . S
Cd113 O112 2.223 . S
Cd113 O116 2.297 . S
Cd113 O117 2.439 . S
Cd113 O123 2.240 . S
Cd114 O115 2.240 . S
Cd114 O122 2.223 . S
Cd114 O124 2.297 . S
Cd114 O125 2.439 . S
O115 Cd114 2.240 . S
O115 C120 1.279 . S
O116 Cd113 2.297 . S
O116 C118 1.247 . S
O117 Cd113 2.439 . S
O117 C118 1.208 . S
C118 O116 1.247 . S
C118 O117 1.208 . S
C119 O124 1.247 . S
C119 O125 1.208 . S
C120 O112 1.315 . S
C120 O115 1.279 . S
C121 O122 1.315 . S
C121 O123 1.279 . S
O122 Cd114 2.223 . S
O122 C121 1.315 . S
O123 Cd113 2.240 . S
O123 C121 1.279 . S
O124 Cd114 2.297 . S
O124 C119 1.247 . S
O125 Cd114 2.439 . S
O125 C119 1.208 . S
O126 Cd127 2.223 . S
O126 C134 1.315 . S
Cd127 O126 2.223 . S
Cd127 O130 2.297 . S
Cd127 O131 2.439 . S
Cd127 O137 2.240 . S
Cd128 O129 2.240 . S
Cd128 O136 2.223 . S
Cd128 O138 2.297 . S
Cd128 O139 2.439 . S
O129 Cd128 2.240 . S
O129 C134 1.279 . S
O130 Cd127 2.297 . S
O130 C132 1.247 . S
O131 Cd127 2.439 . S
O131 C132 1.208 . S
C132 O130 1.247 . S
C132 O131 1.208 . S
C133 O138 1.247 . S
C133 O139 1.208 . S
C134 O126 1.315 . S
C134 O129 1.279 . S
C135 O136 1.315 . S
C135 O137 1.279 . S
O136 Cd128 2.223 . S
O136 C135 1.315 . S
O137 Cd127 2.240 . S
O137 C135 1.279 . S
O138 Cd128 2.297 . S
O138 C133 1.247 . S
O139 Cd128 2.439 . S
O139 C133 1.208 . S
O140 Cd141 2.223 . S
O140 C148 1.315 . S
Cd141 O140 2.223 . S
Cd141 O144 2.297 . S
Cd141 O145 2.439 . S
Cd141 O151 2.240 . S
Cd142 O143 2.240 . S
Cd142 O150 2.223 . S
Cd142 O152 2.297 . S
Cd142 O153 2.439 . S
O143 Cd142 2.240 . S
O143 C148 1.279 . S
O144 Cd141 2.297 . S
O144 C146 1.247 . S
O145 Cd141 2.439 . S
O145 C146 1.208 . S
C146 O144 1.247 . S
C146 O145 1.208 . S
C147 O152 1.247 . S
C147 O153 1.208 . S
C148 O140 1.315 . S
C148 O143 1.279 . S
C149 O150 1.315 . S
C149 O151 1.279 . S
O150 Cd142 2.223 . S
O150 C149 1.315 . S
O151 Cd141 2.240 . S
O151 C149 1.279 . S
O152 Cd142 2.297 . S
O152 C147 1.247 . S
O153 Cd142 2.439 . S
O153 C147 1.208 . S
O154 Cd155 2.223 . S
O154 C162 1.315 . S
Cd155 O154 2.223 . S
Cd155 O158 2.297 . S
Cd155 O159 2.439 . S
Cd155 O165 2.240 . S
Cd156 O157 2.240 . S
Cd156 O164 2.223 . S
Cd156 O166 2.297 . S
Cd156 O167 2.439 . S
O157 Cd156 2.240 . S
O157 C162 1.279 . S
O158 Cd155 2.297 . S
O158 C160 1.247 . S
O159 Cd155 2.439 . S
O159 C160 1.208 . S
C160 O158 1.247 . S
C160 O159 1.208 . S
C161 O166 1.247 . S
C161 O167 1.208 . S
C162 O154 1.315 . S
C162 O157 1.279 . S
C163 O164 1.315 . S
C163 O165 1.279 . S
O164 Cd156 2.223 . S
O164 C163 1.315 . S
O165 Cd155 2.240 . S
O165 C163 1.279 . S
O166 Cd156 2.297 . S
O166 C161 1.247 . S
O167 Cd156 2.439 . S
O167 C161 1.208 . S
O168 Cd169 2.223 . S
O168 C176 1.315 . S
Cd169 O168 2.223 . S
Cd169 O172 2.297 . S
Cd169 O173 2.439 . S
Cd169 O179 2.240 . S
Cd170 O171 2.240 . S
Cd170 O178 2.223 . S
Cd170 O180 2.297 . S
Cd170 O181 2.439 . S
O171 Cd170 2.240 . S
O171 C176 1.279 . S
O172 Cd169 2.297 . S
O172 C174 1.247 . S
O173 Cd169 2.439 . S
O173 C174 1.208 . S
C174 O172 1.247 . S
C174 O173 1.208 . S
C175 O180 1.247 . S
C175 O181 1.208 . S
C176 O168 1.315 . S
C176 O171 1.279 . S
C177 O178 1.315 . S
C177 O179 1.279 . S
O178 Cd170 2.223 . S
O178 C177 1.315 . S
O179 Cd169 2.240 . S
O179 C177 1.279 . S
O180 Cd170 2.297 . S
O180 C175 1.247 . S
O181 Cd170 2.439 . S
O181 C175 1.208 . S
O182 Cd183 2.223 . S
O182 C190 1.315 . S
Cd183 O182 2.223 . S
Cd183 O186 2.297 . S
Cd183 O187 2.439 . S
Cd183 O193 2.240 . S
Cd184 O185 2.240 . S
Cd184 O192 2.223 . S
Cd184 O194 2.297 . S
Cd184 O195 2.439 . S
O185 Cd184 2.240 . S
O185 C190 1.279 . S
O186 Cd183 2.297 . S
O186 C188 1.247 . S
O187 Cd183 2.439 . S
O187 C188 1.208 . S
C188 O186 1.247 . S
C188 O187 1.208 . S
C189 O194 1.247 . S
C189 O195 1.208 . S
C190 O182 1.315 . S
C190 O185 1.279 . S
C191 O192 1.315 . S
C191 O193 1.279 . S
O192 Cd184 2.223 . S
O192 C191 1.315 . S
O193 Cd183 2.240 . S
O193 C191 1.279 . S
O194 Cd184 2.297 . S
O194 C189 1.247 . S
O195 Cd184 2.439 . S
O195 C189 1.208 . S
O196 Cd197 2.223 . S
O196 C204 1.315 . S
Cd197 O196 2.223 . S
Cd197 O200 2.297 . S
Cd197 O201 2.439 . S
Cd197 O207 2.240 . S
Cd198 O199 2.240 . S
Cd198 O206 2.223 . S
Cd198 O208 2.297 . S
Cd198 O209 2.439 . S
O199 Cd198 2.240 . S
O199 C204 1.279 . S
O200 Cd197 2.297 . S
O200 C202 1.247 . S
O201 Cd197 2.439 . S
O201 C202 1.208 . S
C202 O200 1.247 . S
C202 O201 1.208 . S
C203 O208 1.247 . S
C203 O209 1.208 . S
C204 O196 1.315 . S
C204 O199 1.279 . S
C205 O206 1.315 . S
C205 O207 1.279 . S
O206 Cd198 2.223 . S
O206 C205 1.315 . S
O207 Cd197 2.240 . S
O207 C205 1.279 . S
O208 Cd198 2.297 . S
O208 C203 1.247 . S
O209 Cd198 2.439 . S
O209 C203 1.208 . S
O210 Cd211 2.223 . S
O210 C218 1.315 . S
Cd211 O210 2.223 . S
Cd211 O214 2.297 . S
Cd211 O215 2.439 . S
Cd211 O221 2.240 . S
Cd212 O213 2.240 . S
Cd212 O220 2.223 . S
Cd212 O222 2.297 . S
Cd212 O223 2.439 . S
O213 Cd212 2.240 . S
O213 C218 1.279 . S
O214 Cd211 2.297 . S
O214 C216 1.247 . S
O215 Cd211 2.439 . S
O215 C216 1.208 . S
C216 O214 1.247 . S
C216 O215 1.208 . S
C217 O222 1.247 . S
C217 O223 1.208 . S
C218 O210 1.315 . S
C218 O213 1.279 . S
C219 O220 1.315 . S
C219 O221 1.279 . S
O220 Cd212 2.223 . S
O220 C219 1.315 . S
O221 Cd211 2.240 . S
O221 C219 1.279 . S
O222 Cd212 2.297 . S
O222 C217 1.247 . S
O223 Cd212 2.439 . S
O223 C217 1.208 . S
H224 C230 0.930 . S
H225 C233 0.930 . S
H226 C234 0.930 . S
H227 C235 0.930 . S
H228 C238 0.930 . S
H229 C239 0.930 . S
C230 H224 0.930 . S
C230 C231 1.355 . S
C230 C232 1.415 . S
C231 C230 1.355 . S
C231 C233 1.419 . S
C232 C230 1.415 . S
C232 C237 1.425 . S
C232 C239 1.409 . S
C233 H225 0.930 . S
C233 C231 1.419 . S
C233 C234 1.362 . S
C234 H226 0.930 . S
C234 C233 1.362 . S
C234 C237 1.409 . S
C235 H227 0.930 . S
C235 C236 1.355 . S
C235 C237 1.415 . S
C236 C235 1.355 . S
C236 C238 1.419 . S
C237 C232 1.425 . S
C237 C234 1.409 . S
C237 C235 1.415 . S
C238 H228 0.930 . S
C238 C236 1.419 . S
C238 C239 1.362 . S
C239 H229 0.930 . S
C239 C232 1.409 . S
C239 C238 1.362 . S
H240 C246 0.930 . S
H241 C249 0.930 . S
H242 C250 0.930 . S
H243 C251 0.930 . S
H244 C254 0.930 . S
H245 C255 0.930 . S
C246 H240 0.930 . S
C246 C247 1.355 . S
C246 C248 1.415 . S
C247 C246 1.355 . S
C247 C249 1.419 . S
C248 C246 1.415 . S
C248 C253 1.425 . S
C248 C255 1.409 . S
C249 H241 0.930 . S
C249 C247 1.419 . S
C249 C250 1.362 . S
C250 H242 0.930 . S
C250 C249 1.362 . S
C250 C253 1.409 . S
C251 H243 0.930 . S
C251 C252 1.355 . S
C251 C253 1.415 . S
C252 C251 1.355 . S
C252 C254 1.419 . S
C253 C248 1.425 . S
C253 C250 1.409 . S
C253 C251 1.415 . S
C254 H244 0.930 . S
C254 C252 1.419 . S
C254 C255 1.362 . S
C255 H245 0.930 . S
C255 C248 1.409 . S
C255 C254 1.362 . S
H256 C262 0.930 . S
H257 C265 0.930 . S
H258 C266 0.930 . S
H259 C267 0.930 . S
H260 C270 0.930 . S
H261 C271 0.930 . S
C262 H256 0.930 . S
C262 C263 1.355 . S
C262 C264 1.415 . S
C263 C262 1.355 . S
C263 C265 1.419 . S
C264 C262 1.415 . S
C264 C269 1.425 . S
C264 C271 1.409 . S
C265 H257 0.930 . S
C265 C263 1.419 . S
C265 C266 1.362 . S
C266 H258 0.930 . S
C266 C265 1.362 . S
C266 C269 1.409 . S
C267 H259 0.930 . S
C267 C268 1.355 . S
C267 C269 1.415 . S
C268 C267 1.355 . S
C268 C270 1.419 . S
C269 C264 1.425 . S
C269 C266 1.409 . S
C269 C267 1.415 . S
C270 H260 0.930 . S
C270 C268 1.419 . S
C270 C271 1.362 . S
C271 H261 0.930 . S
C271 C264 1.409 . S
C271 C270 1.362 . S
H272 C278 0.930 . S
H273 C281 0.930 . S
H274 C282 0.930 . S
H275 C283 0.930 . S
H276 C286 0.930 . S
H277 C287 0.930 . S
C278 H272 0.930 . S
C278 C279 1.355 . S
C278 C280 1.415 . S
C279 C278 1.355 . S
C279 C281 1.419 . S
C280 C278 1.415 . S
C280 C285 1.425 . S
C280 C287 1.409 . S
C281 H273 0.930 . S
C281 C279 1.419 . S
C281 C282 1.362 . S
C282 H274 0.930 . S
C282 C281 1.362 . S
C282 C285 1.409 . S
C283 H275 0.930 . S
C283 C284 1.355 . S
C283 C285 1.415 . S
C284 C283 1.355 . S
C284 C286 1.419 . S
C285 C280 1.425 . S
C285 C282 1.409 . S
C285 C283 1.415 . S
C286 H276 0.930 . S
C286 C284 1.419 . S
C286 C287 1.362 . S
C287 H277 0.930 . S
C287 C280 1.409 . S
C287 C286 1.362 . S
H288 C294 0.930 . S
H289 C297 0.930 . S
H290 C298 0.930 . S
H291 C299 0.930 . S
H292 C302 0.930 . S
H293 C303 0.930 . S
C294 H288 0.930 . S
C294 C295 1.355 . S
C294 C296 1.415 . S
C295 C294 1.355 . S
C295 C297 1.419 . S
C296 C294 1.415 . S
C296 C301 1.425 . S
C296 C303 1.409 . S
C297 H289 0.930 . S
C297 C295 1.419 . S
C297 C298 1.362 . S
C298 H290 0.930 . S
C298 C297 1.362 . S
C298 C301 1.409 . S
C299 H291 0.930 . S
C299 C300 1.355 . S
C299 C301 1.415 . S
C300 C299 1.355 . S
C300 C302 1.419 . S
C301 C296 1.425 . S
C301 C298 1.409 . S
C301 C299 1.415 . S
C302 H292 0.930 . S
C302 C300 1.419 . S
C302 C303 1.362 . S
C303 H293 0.930 . S
C303 C296 1.409 . S
C303 C302 1.362 . S
H304 C310 0.930 . S
H305 C313 0.930 . S
H306 C314 0.930 . S
H307 C315 0.930 . S
H308 C318 0.930 . S
H309 C319 0.930 . S
C310 H304 0.930 . S
C310 C311 1.355 . S
C310 C312 1.415 . S
C311 C310 1.355 . S
C311 C313 1.419 . S
C312 C310 1.415 . S
C312 C317 1.425 . S
C312 C319 1.409 . S
C313 H305 0.930 . S
C313 C311 1.419 . S
C313 C314 1.362 . S
C314 H306 0.930 . S
C314 C313 1.362 . S
C314 C317 1.409 . S
C315 H307 0.930 . S
C315 C316 1.355 . S
C315 C317 1.415 . S
C316 C315 1.355 . S
C316 C318 1.419 . S
C317 C312 1.425 . S
C317 C314 1.409 . S
C317 C315 1.415 . S
C318 H308 0.930 . S
C318 C316 1.419 . S
C318 C319 1.362 . S
C319 H309 0.930 . S
C319 C312 1.409 . S
C319 C318 1.362 . S
H320 C326 0.930 . S
H321 C329 0.930 . S
H322 C330 0.930 . S
H323 C331 0.930 . S
H324 C334 0.930 . S
H325 C335 0.930 . S
C326 H320 0.930 . S
C326 C327 1.355 . S
C326 C328 1.415 . S
C327 C326 1.355 . S
C327 C329 1.419 . S
C328 C326 1.415 . S
C328 C333 1.425 . S
C328 C335 1.409 . S
C329 H321 0.930 . S
C329 C327 1.419 . S
C329 C330 1.362 . S
C330 H322 0.930 . S
C330 C329 1.362 . S
C330 C333 1.409 . S
C331 H323 0.930 . S
C331 C332 1.355 . S
C331 C333 1.415 . S
C332 C331 1.355 . S
C332 C334 1.419 . S
C333 C328 1.425 . S
C333 C330 1.409 . S
C333 C331 1.415 . S
C334 H324 0.930 . S
C334 C332 1.419 . S
C334 C335 1.362 . S
C335 H325 0.930 . S
C335 C328 1.409 . S
C335 C334 1.362 . S
H336 C342 0.930 . S
H337 C345 0.930 . S
H338 C346 0.930 . S
H339 C347 0.930 . S
H340 C350 0.930 . S
H341 C351 0.930 . S
C342 H336 0.930 . S
C342 C343 1.355 . S
C342 C344 1.415 . S
C343 C342 1.355 . S
C343 C345 1.419 . S
C344 C342 1.415 . S
C344 C349 1.425 . S
C344 C351 1.409 . S
C345 H337 0.930 . S
C345 C343 1.419 . S
C345 C346 1.362 . S
C346 H338 0.930 . S
C346 C345 1.362 . S
C346 C349 1.409 . S
C347 H339 0.930 . S
C347 C348 1.355 . S
C347 C349 1.415 . S
C348 C347 1.355 . S
C348 C350 1.419 . S
C349 C344 1.425 . S
C349 C346 1.409 . S
C349 C347 1.415 . S
C350 H340 0.930 . S
C350 C348 1.419 . S
C350 C351 1.362 . S
C351 H341 0.930 . S
C351 C344 1.409 . S
C351 C350 1.362 . S
H352 C358 0.930 . S
H353 C361 0.930 . S
H354 C362 0.930 . S
H355 C363 0.930 . S
H356 C366 0.930 . S
H357 C367 0.930 . S
C358 H352 0.930 . S
C358 C359 1.355 . S
C358 C360 1.415 . S
C359 C358 1.355 . S
C359 C361 1.419 . S
C360 C358 1.415 . S
C360 C365 1.425 . S
C360 C367 1.409 . S
C361 H353 0.930 . S
C361 C359 1.419 . S
C361 C362 1.362 . S
C362 H354 0.930 . S
C362 C361 1.362 . S
C362 C365 1.409 . S
C363 H355 0.930 . S
C363 C364 1.355 . S
C363 C365 1.415 . S
C364 C363 1.355 . S
C364 C366 1.419 . S
C365 C360 1.425 . S
C365 C362 1.409 . S
C365 C363 1.415 . S
C366 H356 0.930 . S
C366 C364 1.419 . S
C366 C367 1.362 . S
C367 H357 0.930 . S
C367 C360 1.409 . S
C367 C366 1.362 . S
H368 C374 0.930 . S
H369 C377 0.930 . S
H370 C378 0.930 . S
H371 C379 0.930 . S
H372 C382 0.930 . S
H373 C383 0.930 . S
C374 H368 0.930 . S
C374 C375 1.355 . S
C374 C376 1.415 . S
C375 C374 1.355 . S
C375 C377 1.419 . S
C376 C374 1.415 . S
C376 C381 1.425 . S
C376 C383 1.409 . S
C377 H369 0.930 . S
C377 C375 1.419 . S
C377 C378 1.362 . S
C378 H370 0.930 . S
C378 C377 1.362 . S
C378 C381 1.409 . S
C379 H371 0.930 . S
C379 C380 1.355 . S
C379 C381 1.415 . S
C380 C379 1.355 . S
C380 C382 1.419 . S
C381 C376 1.425 . S
C381 C378 1.409 . S
C381 C379 1.415 . S
C382 H372 0.930 . S
C382 C380 1.419 . S
C382 C383 1.362 . S
C383 H373 0.930 . S
C383 C376 1.409 . S
C383 C382 1.362 . S
H384 C390 0.930 . S
H385 C393 0.930 . S
H386 C394 0.930 . S
H387 C395 0.930 . S
H388 C398 0.930 . S
H389 C399 0.930 . S
C390 H384 0.930 . S
C390 C391 1.355 . S
C390 C392 1.415 . S
C391 C390 1.355 . S
C391 C393 1.419 . S
C392 C390 1.415 . S
C392 C397 1.425 . S
C392 C399 1.409 . S
C393 H385 0.930 . S
C393 C391 1.419 . S
C393 C394 1.362 . S
C394 H386 0.930 . S
C394 C393 1.362 . S
C394 C397 1.409 . S
C395 H387 0.930 . S
C395 C396 1.355 . S
C395 C397 1.415 . S
C396 C395 1.355 . S
C396 C398 1.419 . S
C397 C392 1.425 . S
C397 C394 1.409 . S
C397 C395 1.415 . S
C398 H388 0.930 . S
C398 C396 1.419 . S
C398 C399 1.362 . S
C399 H389 0.930 . S
C399 C392 1.409 . S
C399 C398 1.362 . S
H400 C406 0.930 . S
H401 C409 0.930 . S
H402 C410 0.930 . S
H403 C411 0.930 . S
H404 C414 0.930 . S
H405 C415 0.930 . S
C406 H400 0.930 . S
C406 C407 1.355 . S
C406 C408 1.415 . S
C407 C406 1.355 . S
C407 C409 1.419 . S
C408 C406 1.415 . S
C408 C413 1.425 . S
C408 C415 1.409 . S
C409 H401 0.930 . S
C409 C407 1.419 . S
C409 C410 1.362 . S
C410 H402 0.930 . S
C410 C409 1.362 . S
C410 C413 1.409 . S
C411 H403 0.930 . S
C411 C412 1.355 . S
C411 C413 1.415 . S
C412 C411 1.355 . S
C412 C414 1.419 . S
C413 C408 1.425 . S
C413 C410 1.409 . S
C413 C411 1.415 . S
C414 H404 0.930 . S
C414 C412 1.419 . S
C414 C415 1.362 . S
C415 H405 0.930 . S
C415 C408 1.409 . S
C415 C414 1.362 . S
H416 C422 0.930 . S
H417 C425 0.930 . S
H418 C426 0.930 . S
H419 C427 0.930 . S
H420 C430 0.930 . S
H421 C431 0.930 . S
C422 H416 0.930 . S
C422 C423 1.355 . S
C422 C424 1.415 . S
C423 C422 1.355 . S
C423 C425 1.419 . S
C424 C422 1.415 . S
C424 C429 1.425 . S
C424 C431 1.409 . S
C425 H417 0.930 . S
C425 C423 1.419 . S
C425 C426 1.362 . S
C426 H418 0.930 . S
C426 C425 1.362 . S
C426 C429 1.409 . S
C427 H419 0.930 . S
C427 C428 1.355 . S
C427 C429 1.415 . S
C428 C427 1.355 . S
C428 C430 1.419 . S
C429 C424 1.425 . S
C429 C426 1.409 . S
C429 C427 1.415 . S
C430 H420 0.930 . S
C430 C428 1.419 . S
C430 C431 1.362 . S
C431 H421 0.930 . S
C431 C424 1.409 . S
C431 C430 1.362 . S
H432 C438 0.930 . S
H433 C441 0.930 . S
H434 C442 0.930 . S
H435 C443 0.930 . S
H436 C446 0.930 . S
H437 C447 0.930 . S
C438 H432 0.930 . S
C438 C439 1.355 . S
C438 C440 1.415 . S
C439 C438 1.355 . S
C439 C441 1.419 . S
C440 C438 1.415 . S
C440 C445 1.425 . S
C440 C447 1.409 . S
C441 H433 0.930 . S
C441 C439 1.419 . S
C441 C442 1.362 . S
C442 H434 0.930 . S
C442 C441 1.362 . S
C442 C445 1.409 . S
C443 H435 0.930 . S
C443 C444 1.355 . S
C443 C445 1.415 . S
C444 C443 1.355 . S
C444 C446 1.419 . S
C445 C440 1.425 . S
C445 C442 1.409 . S
C445 C443 1.415 . S
C446 H436 0.930 . S
C446 C444 1.419 . S
C446 C447 1.362 . S
C447 H437 0.930 . S
C447 C440 1.409 . S
C447 C446 1.362 . S
H448 C454 0.930 . S
H449 C457 0.930 . S
H450 C458 0.930 . S
H451 C459 0.930 . S
H452 C462 0.930 . S
H453 C463 0.930 . S
C454 H448 0.930 . S
C454 C455 1.355 . S
C454 C456 1.415 . S
C455 C454 1.355 . S
C455 C457 1.419 . S
C456 C454 1.415 . S
C456 C461 1.425 . S
C456 C463 1.409 . S
C457 H449 0.930 . S
C457 C455 1.419 . S
C457 C458 1.362 . S
C458 H450 0.930 . S
C458 C457 1.362 . S
C458 C461 1.409 . S
C459 H451 0.930 . S
C459 C460 1.355 . S
C459 C461 1.415 . S
C460 C459 1.355 . S
C460 C462 1.419 . S
C461 C456 1.425 . S
C461 C458 1.409 . S
C461 C459 1.415 . S
C462 H452 0.930 . S
C462 C460 1.419 . S
C462 C463 1.362 . S
C463 H453 0.930 . S
C463 C456 1.409 . S
C463 C462 1.362 . S
H464 C470 0.930 . S
H465 C473 0.930 . S
H466 C474 0.930 . S
H467 C475 0.930 . S
H468 C478 0.930 . S
H469 C479 0.930 . S
C470 H464 0.930 . S
C470 C471 1.355 . S
C470 C472 1.415 . S
C471 C470 1.355 . S
C471 C473 1.419 . S
C472 C470 1.415 . S
C472 C477 1.425 . S
C472 C479 1.409 . S
C473 H465 0.930 . S
C473 C471 1.419 . S
C473 C474 1.362 . S
C474 H466 0.930 . S
C474 C473 1.362 . S
C474 C477 1.409 . S
C475 H467 0.930 . S
C475 C476 1.355 . S
C475 C477 1.415 . S
C476 C475 1.355 . S
C476 C478 1.419 . S
C477 C472 1.425 . S
C477 C474 1.409 . S
C477 C475 1.415 . S
C478 H468 0.930 . S
C478 C476 1.419 . S
C478 C479 1.362 . S
C479 H469 0.930 . S
C479 C472 1.409 . S
C479 C478 1.362 . S
H480 C486 0.930 . S
H481 C489 0.930 . S
H482 C490 0.930 . S
H483 C491 0.930 . S
H484 C494 0.930 . S
H485 C495 0.930 . S
C486 H480 0.930 . S
C486 C487 1.355 . S
C486 C488 1.415 . S
C487 C486 1.355 . S
C487 C489 1.419 . S
C488 C486 1.415 . S
C488 C493 1.425 . S
C488 C495 1.409 . S
C489 H481 0.930 . S
C489 C487 1.419 . S
C489 C490 1.362 . S
C490 H482 0.930 . S
C490 C489 1.362 . S
C490 C493 1.409 . S
C491 H483 0.930 . S
C491 C492 1.355 . S
C491 C493 1.415 . S
C492 C491 1.355 . S
C492 C494 1.419 . S
C493 C488 1.425 . S
C493 C490 1.409 . S
C493 C491 1.415 . S
C494 H484 0.930 . S
C494 C492 1.419 . S
C494 C495 1.362 . S
C495 H485 0.930 . S
C495 C488 1.409 . S
C495 C494 1.362 . S
H496 C502 0.930 . S
H497 C505 0.930 . S
H498 C506 0.930 . S
H499 C507 0.930 . S
H500 C510 0.930 1_655 S
H501 C511 0.930 . S
C502 H496 0.930 . S
C502 C503 1.355 . S
C502 C504 1.415 . S
C503 C502 1.355 . S
C503 C505 1.419 . S
C504 C502 1.415 . S
C504 C509 1.425 . S
C504 C511 1.409 . S
C505 H497 0.930 . S
C505 C503 1.419 . S
C505 C506 1.362 . S
C506 H498 0.930 . S
C506 C505 1.362 . S
C506 C509 1.409 . S
C507 H499 0.930 . S
C507 C508 1.355 . S
C507 C509 1.415 . S
C508 C507 1.355 . S
C508 C510 1.419 . S
C509 C504 1.425 . S
C509 C506 1.409 . S
C509 C507 1.415 . S
C510 H500 0.930 1_455 S
C510 C508 1.419 . S
C510 C511 1.362 . S
C511 H501 0.930 . S
C511 C504 1.409 . S
C511 C510 1.362 . S
H512 C518 0.930 . S
H513 C521 0.930 1_545 S
H514 C522 0.930 . S
H515 C523 0.930 . S
H516 C526 0.930 . S
H517 C527 0.930 . S
C518 H512 0.930 . S
C518 C519 1.355 . S
C518 C520 1.415 . S
C519 C518 1.355 . S
C519 C521 1.419 . S
C520 C518 1.415 . S
C520 C525 1.425 . S
C520 C527 1.409 . S
C521 H513 0.930 1_565 S
C521 C519 1.419 . S
C521 C522 1.362 . S
C522 H514 0.930 . S
C522 C521 1.362 . S
C522 C525 1.409 . S
C523 H515 0.930 . S
C523 C524 1.355 . S
C523 C525 1.415 . S
C524 C523 1.355 . S
C524 C526 1.419 . S
C525 C520 1.425 . S
C525 C522 1.409 . S
C525 C523 1.415 . S
C526 H516 0.930 . S
C526 C524 1.419 . S
C526 C527 1.362 . S
C527 H517 0.930 . S
C527 C520 1.409 . S
C527 C526 1.362 . S
H528 C534 0.930 . S
H529 C537 0.930 . S
H530 C538 0.930 . S
H531 C539 0.930 . S
H532 C542 0.930 . S
H533 C543 0.930 . S
C534 H528 0.930 . S
C534 C535 1.355 . S
C534 C536 1.415 . S
C535 C534 1.355 . S
C535 C537 1.419 . S
C536 C534 1.415 . S
C536 C541 1.425 . S
C536 C543 1.409 . S
C537 H529 0.930 . S
C537 C535 1.419 . S
C537 C538 1.362 . S
C538 H530 0.930 . S
C538 C537 1.362 . S
C538 C541 1.409 . S
C539 H531 0.930 . S
C539 C540 1.355 . S
C539 C541 1.415 . S
C540 C539 1.355 . S
C540 C542 1.419 . S
C541 C536 1.425 . S
C541 C538 1.409 . S
C541 C539 1.415 . S
C542 H532 0.930 . S
C542 C540 1.419 . S
C542 C543 1.362 . S
C543 H533 0.930 . S
C543 C536 1.409 . S
C543 C542 1.362 . S
H544 C550 0.930 . S
H545 C553 0.930 . S
H546 C554 0.930 . S
H547 C555 0.930 . S
H548 C558 0.930 . S
H549 C559 0.930 . S
C550 H544 0.930 . S
C550 C551 1.355 . S
C550 C552 1.415 . S
C551 C550 1.355 . S
C551 C553 1.419 . S
C552 C550 1.415 . S
C552 C557 1.425 . S
C552 C559 1.409 . S
C553 H545 0.930 . S
C553 C551 1.419 . S
C553 C554 1.362 . S
C554 H546 0.930 . S
C554 C553 1.362 . S
C554 C557 1.409 . S
C555 H547 0.930 . S
C555 C556 1.355 . S
C555 C557 1.415 . S
C556 C555 1.355 . S
C556 C558 1.419 . S
C557 C552 1.425 . S
C557 C554 1.409 . S
C557 C555 1.415 . S
C558 H548 0.930 . S
C558 C556 1.419 . S
C558 C559 1.362 . S
C559 H549 0.930 . S
C559 C552 1.409 . S
C559 C558 1.362 . S
H560 C566 0.930 . S
H561 C569 0.930 . S
H562 C570 0.930 . S
H563 C571 0.930 . S
H564 C574 0.930 1_455 S
H565 C575 0.930 . S
C566 H560 0.930 . S
C566 C567 1.355 . S
C566 C568 1.415 . S
C567 C566 1.355 . S
C567 C569 1.419 . S
C568 C566 1.415 . S
C568 C573 1.425 . S
C568 C575 1.409 . S
C569 H561 0.930 . S
C569 C567 1.419 . S
C569 C570 1.362 . S
C570 H562 0.930 . S
C570 C569 1.362 . S
C570 C573 1.409 . S
C571 H563 0.930 . S
C571 C572 1.355 . S
C571 C573 1.415 . S
C572 C571 1.355 . S
C572 C574 1.419 . S
C573 C568 1.425 . S
C573 C570 1.409 . S
C573 C571 1.415 . S
C574 H564 0.930 1_655 S
C574 C572 1.419 . S
C574 C575 1.362 . S
C575 H565 0.930 . S
C575 C568 1.409 . S
C575 C574 1.362 . S
H576 C582 0.930 . S
H577 C585 0.930 . S
H578 C586 0.930 . S
H579 C587 0.930 . S
H580 C590 0.930 1_565 S
H581 C591 0.930 . S
C582 H576 0.930 . S
C582 C583 1.355 . S
C582 C584 1.415 . S
C583 C582 1.355 . S
C583 C585 1.419 . S
C584 C582 1.415 . S
C584 C589 1.425 . S
C584 C591 1.409 . S
C585 H577 0.930 . S
C585 C583 1.419 . S
C585 C586 1.362 . S
C586 H578 0.930 . S
C586 C585 1.362 . S
C586 C589 1.409 . S
C587 H579 0.930 . S
C587 C588 1.355 . S
C587 C589 1.415 . S
C588 C587 1.355 . S
C588 C590 1.419 . S
C589 C584 1.425 . S
C589 C586 1.409 . S
C589 C587 1.415 . S
C590 H580 0.930 1_545 S
C590 C588 1.419 . S
C590 C591 1.362 . S
C591 H581 0.930 . S
C591 C584 1.409 . S
C591 C590 1.362 . S
H592 C598 0.930 . S
H593 C601 0.930 . S
H594 C602 0.930 . S
H595 C603 0.930 . S
H596 C606 0.930 . S
H597 C607 0.930 . S
C598 H592 0.930 . S
C598 C599 1.355 . S
C598 C600 1.415 . S
C599 C598 1.355 . S
C599 C601 1.419 . S
C600 C598 1.415 . S
C600 C605 1.425 . S
C600 C607 1.409 . S
C601 H593 0.930 . S
C601 C599 1.419 . S
C601 C602 1.362 . S
C602 H594 0.930 . S
C602 C601 1.362 . S
C602 C605 1.409 . S
C603 H595 0.930 . S
C603 C604 1.355 . S
C603 C605 1.415 . S
C604 C603 1.355 . S
C604 C606 1.419 . S
C605 C600 1.425 . S
C605 C602 1.409 . S
C605 C603 1.415 . S
C606 H596 0.930 . S
C606 C604 1.419 . S
C606 C607 1.362 . S
C607 H597 0.930 . S
C607 C600 1.409 . S
C607 C606 1.362 . S
H608 C614 0.930 . S
H609 C617 0.930 . S
H610 C618 0.930 . S
H611 C619 0.930 . S
H612 C622 0.930 . S
H613 C623 0.930 . S
C614 H608 0.930 . S
C614 C615 1.355 . S
C614 C616 1.415 . S
C615 C614 1.355 . S
C615 C617 1.419 . S
C616 C614 1.415 . S
C616 C621 1.425 . S
C616 C623 1.409 . S
C617 H609 0.930 . S
C617 C615 1.419 . S
C617 C618 1.362 . S
C618 H610 0.930 . S
C618 C617 1.362 . S
C618 C621 1.409 . S
C619 H611 0.930 . S
C619 C620 1.355 . S
C619 C621 1.415 . S
C620 C619 1.355 . S
C620 C622 1.419 . S
C621 C616 1.425 . S
C621 C618 1.409 . S
C621 C619 1.415 . S
C622 H612 0.930 . S
C622 C620 1.419 . S
C622 C623 1.362 . S
C623 H613 0.930 . S
C623 C616 1.409 . S
C623 C622 1.362 . S
H624 C630 0.930 . S
H625 C633 0.930 . S
H626 C634 0.930 . S
H627 C635 0.930 . S
H628 C638 0.930 . S
H629 C639 0.930 . S
C630 H624 0.930 . S
C630 C631 1.355 . S
C630 C632 1.415 . S
C631 C630 1.355 . S
C631 C633 1.419 . S
C632 C630 1.415 . S
C632 C637 1.425 . S
C632 C639 1.409 . S
C633 H625 0.930 . S
C633 C631 1.419 . S
C633 C634 1.362 . S
C634 H626 0.930 . S
C634 C633 1.362 . S
C634 C637 1.409 . S
C635 H627 0.930 . S
C635 C636 1.355 . S
C635 C637 1.415 . S
C636 C635 1.355 . S
C636 C638 1.419 . S
C637 C632 1.425 . S
C637 C634 1.409 . S
C637 C635 1.415 . S
C638 H628 0.930 . S
C638 C636 1.419 . S
C638 C639 1.362 . S
C639 H629 0.930 . S
C639 C632 1.409 . S
C639 C638 1.362 . S
H640 C646 0.930 . S
H641 C649 0.930 . S
H642 C650 0.930 . S
H643 C651 0.930 . S
H644 C654 0.930 . S
H645 C655 0.930 . S
C646 H640 0.930 . S
C646 C647 1.355 . S
C646 C648 1.415 . S
C647 C646 1.355 . S
C647 C649 1.419 . S
C648 C646 1.415 . S
C648 C653 1.425 . S
C648 C655 1.409 . S
C649 H641 0.930 . S
C649 C647 1.419 . S
C649 C650 1.362 . S
C650 H642 0.930 . S
C650 C649 1.362 . S
C650 C653 1.409 . S
C651 H643 0.930 . S
C651 C652 1.355 . S
C651 C653 1.415 . S
C652 C651 1.355 . S
C652 C654 1.419 . S
C653 C648 1.425 . S
C653 C650 1.409 . S
C653 C651 1.415 . S
C654 H644 0.930 . S
C654 C652 1.419 . S
C654 C655 1.362 . S
C655 H645 0.930 . S
C655 C648 1.409 . S
C655 C654 1.362 . S
H656 C662 0.930 . S
H657 C665 0.930 . S
H658 C666 0.930 . S
H659 C667 0.930 . S
H660 C670 0.930 . S
H661 C671 0.930 . S
C662 H656 0.930 . S
C662 C663 1.355 . S
C662 C664 1.415 . S
C663 C662 1.355 . S
C663 C665 1.419 . S
C664 C662 1.415 . S
C664 C669 1.425 . S
C664 C671 1.409 . S
C665 H657 0.930 . S
C665 C663 1.419 . S
C665 C666 1.362 . S
C666 H658 0.930 . S
C666 C665 1.362 . S
C666 C669 1.409 . S
C667 H659 0.930 . S
C667 C668 1.355 . S
C667 C669 1.415 . S
C668 C667 1.355 . S
C668 C670 1.419 . S
C669 C664 1.425 . S
C669 C666 1.409 . S
C669 C667 1.415 . S
C670 H660 0.930 . S
C670 C668 1.419 . S
C670 C671 1.362 . S
C671 H661 0.930 . S
C671 C664 1.409 . S
C671 C670 1.362 . S
H672 C678 0.930 . S
H673 C681 0.930 . S
H674 C682 0.930 1_556 S
H675 C683 0.930 . S
H676 C686 0.930 . S
H677 C687 0.930 1_554 S
C678 H672 0.930 . S
C678 C679 1.355 1_565 S
C678 C680 1.415 . S
C679 C678 1.355 1_545 S
C679 C681 1.419 . S
C680 C678 1.415 . S
C680 C685 1.425 1_564 S
C680 C687 1.409 1_554 S
C681 H673 0.930 . S
C681 C679 1.419 . S
C681 C682 1.362 . S
C682 H674 0.930 1_554 S
C682 C681 1.362 . S
C682 C685 1.409 1_554 S
C683 H675 0.930 . S
C683 C684 1.355 1_545 S
C683 C685 1.415 . S
C684 C683 1.355 1_565 S
C684 C686 1.419 . S
C685 C680 1.425 1_546 S
C685 C682 1.409 1_556 S
C685 C683 1.415 . S
C686 H676 0.930 . S
C686 C684 1.419 . S
C686 C687 1.362 . S
C687 H677 0.930 1_556 S
C687 C680 1.409 1_556 S
C687 C686 1.362 . S
H688 C694 0.930 1_655 S
H689 C697 0.930 . S
H690 C698 0.919 1_554 S
H691 C699 0.930 1_455 S
H692 C702 0.930 . S
H693 C703 0.919 1_556 S
C694 H688 0.930 1_455 S
C694 C695 1.355 . S
C694 C696 1.415 1_455 S
C695 C694 1.355 . S
C695 C697 1.419 . S
C696 C694 1.415 1_655 S
C696 C701 1.425 1_656 S
C696 C703 1.409 1_556 S
C697 H689 0.930 . S
C697 C695 1.419 . S
C697 C698 1.362 . S
C698 H690 0.919 1_556 S
C698 C697 1.362 . S
C698 C701 1.409 1_556 S
C699 H691 0.930 1_655 S
C699 C700 1.355 . S
C699 C701 1.415 1_655 S
C700 C699 1.355 . S
C700 C702 1.419 . S
C701 C696 1.425 1_454 S
C701 C698 1.409 1_554 S
C701 C699 1.415 1_455 S
C702 H692 0.930 . S
C702 C700 1.419 . S
C702 C703 1.362 . S
C703 H693 0.919 1_554 S
C703 C696 1.409 1_554 S
C703 C702 1.362 . S
H704 C710 0.930 . S
H705 C713 0.930 . S
H706 C714 0.930 . S
H707 C715 0.930 . S
H708 C718 0.930 . S
H709 C719 0.930 . S
C710 H704 0.930 . S
C710 C711 1.355 . S
C710 C712 1.415 . S
C711 C710 1.355 . S
C711 C713 1.419 1_545 S
C712 C710 1.415 . S
C712 C717 1.425 1_546 S
C712 C719 1.409 1_556 S
C713 H705 0.930 . S
C713 C711 1.419 1_565 S
C713 C714 1.362 . S
C714 H706 0.930 . S
C714 C713 1.362 . S
C714 C717 1.409 1_556 S
C715 H707 0.930 . S
C715 C716 1.355 . S
C715 C717 1.415 . S
C716 C715 1.355 . S
C716 C718 1.419 1_565 S
C717 C712 1.425 1_564 S
C717 C714 1.409 1_554 S
C717 C715 1.415 . S
C718 H708 0.930 . S
C718 C716 1.419 1_545 S
C718 C719 1.362 . S
C719 H709 0.930 . S
C719 C712 1.409 1_554 S
C719 C718 1.362 . S
H720 C726 0.930 . S
H721 C729 0.930 . S
H722 C730 0.930 . S
H723 C731 0.930 . S
H724 C734 0.930 . S
H725 C735 0.930 . S
C726 H720 0.930 . S
C726 C727 1.355 . S
C726 C728 1.415 1_655 S
C727 C726 1.355 . S
C727 C729 1.419 . S
C728 C726 1.415 1_455 S
C728 C733 1.425 1_456 S
C728 C735 1.409 1_556 S
C729 H721 0.930 . S
C729 C727 1.419 . S
C729 C730 1.362 . S
C730 H722 0.930 . S
C730 C729 1.362 . S
C730 C733 1.409 1_556 S
C731 H723 0.930 . S
C731 C732 1.355 . S
C731 C733 1.415 1_455 S
C732 C731 1.355 . S
C732 C734 1.419 . S
C733 C728 1.425 1_654 S
C733 C730 1.409 1_554 S
C733 C731 1.415 1_655 S
C734 H724 0.930 . S
C734 C732 1.419 . S
C734 C735 1.362 . S
C735 H725 0.930 . S
C735 C728 1.409 1_554 S
C735 C734 1.362 . S
C231 C6 1.369 . S
C236 C104 1.385 . S
C247 C20 1.358 . S
C252 C62 1.396 . S
C263 C76 1.398 . S
C268 C34 1.357 . S
C279 C48 1.394 . S
C284 C90 1.360 . S
C295 C118 1.389 . S
C300 C216 1.366 . S
C311 C174 1.359 . S
C316 C132 1.395 . S
C327 C188 1.390 . S
C332 C146 1.365 . S
C343 C202 1.363 . S
C348 C160 1.391 . S
C359 C9 1.432 . S
C364 C162 1.500 . S
C375 C23 1.455 . S
C380 C120 1.490 . S
C391 C134 1.508 . S
C396 C37 1.438 . S
C407 C51 1.477 . S
C412 C148 1.486 . S
C423 C65 1.488 . S
C428 C190 1.495 . S
C439 C204 1.498 . S
C444 C79 1.435 . S
C455 C93 1.489 . S
C460 C218 1.494 . S
C471 C176 1.494 . S
C476 C107 1.445 . S
C487 C121 1.492 1_545 S
C492 C50 1.489 . S
C503 C8 1.496 . S
C508 C135 1.439 1_455 S
C519 C149 1.430 1_565 S
C524 C22 1.502 . S
C535 C36 1.504 . S
C540 C163 1.428 1_655 S
C551 C177 1.492 1_565 S
C556 C78 1.490 . S
C567 C92 1.500 . S
C572 C191 1.433 1_655 S
C583 C106 1.489 . S
C588 C205 1.461 1_545 S
C599 C64 1.507 . S
C604 C219 1.451 1_455 S
C615 C63 1.527 . S
C620 C7 1.582 . S
C631 C77 1.564 . S
C636 C21 1.530 . S
C647 C35 1.582 . S
C652 C91 1.530 . S
C663 C105 1.577 . S
C668 C49 1.524 . S
C679 C175 1.558 . S
C684 C119 1.534 . S
C695 C189 1.564 . S
C700 C133 1.530 . S
C711 C147 1.574 . S
C716 C203 1.548 . S
C727 C217 1.527 . S
C732 C161 1.582 . S
