# Generated by pormake.
# Topology ukk, (4)-cn, num edge types: 1
# Building blocks:
#     Node 0, Type 0, BuildingBlock: MUDLON_clean_sbu_0, # of connection points: 4
#     Node 1, Type 0, BuildingBlock: MUDLON_clean_sbu_0, # of connection points: 4
#     Node 2, Type 0, BuildingBlock: MUDLON_clean_sbu_0, # of connection points: 4
#     Node 3, Type 0, BuildingBlock: MUDLON_clean_sbu_0, # of connection points: 4
#     Node 4, Type 0, BuildingBlock: MUDLON_clean_sbu_0, # of connection points: 4
#     Node 5, Type 0, BuildingBlock: MUDLON_clean_sbu_0, # of connection points: 4
#     Node 6, Type 0, BuildingBlock: MUDLON_clean_sbu_0, # of connection points: 4
#     Node 7, Type 0, BuildingBlock: MUDLON_clean_sbu_0, # of connection points: 4
#     Node 8, Type 0, BuildingBlock: MUDLON_clean_sbu_0, # of connection points: 4
#     Node 9, Type 0, BuildingBlock: MUDLON_clean_sbu_0, # of connection points: 4
#     Node 10, Type 0, BuildingBlock: MUDLON_clean_sbu_0, # of connection points: 4
#     Node 11, Type 0, BuildingBlock: MUDLON_clean_sbu_0, # of connection points: 4
#     Node 12, Type 0, BuildingBlock: MUDLON_clean_sbu_0, # of connection points: 4
#     Node 13, Type 0, BuildingBlock: MUDLON_clean_sbu_0, # of connection points: 4
#     Node 14, Type 0, BuildingBlock: MUDLON_clean_sbu_0, # of connection points: 4
#     Node 15, Type 0, BuildingBlock: MUDLON_clean_sbu_0, # of connection points: 4
#     Edge 16, Type (0, 0), BuildingBlock: UVAHIK_clean_linker_0, # of connection points: 2
#     Edge 17, Type (0, 0), BuildingBlock: UVAHIK_clean_linker_0, # of connection points: 2
#     Edge 18, Type (0, 0), BuildingBlock: UVAHIK_clean_linker_0, # of connection points: 2
#     Edge 19, Type (0, 0), BuildingBlock: UVAHIK_clean_linker_0, # of connection points: 2
#     Edge 20, Type (0, 0), BuildingBlock: UVAHIK_clean_linker_0, # of connection points: 2
#     Edge 21, Type (0, 0), BuildingBlock: UVAHIK_clean_linker_0, # of connection points: 2
#     Edge 22, Type (0, 0), BuildingBlock: UVAHIK_clean_linker_0, # of connection points: 2
#     Edge 23, Type (0, 0), BuildingBlock: UVAHIK_clean_linker_0, # of connection points: 2
#     Edge 24, Type (0, 0), BuildingBlock: UVAHIK_clean_linker_0, # of connection points: 2
#     Edge 25, Type (0, 0), BuildingBlock: UVAHIK_clean_linker_0, # of connection points: 2
#     Edge 26, Type (0, 0), BuildingBlock: UVAHIK_clean_linker_0, # of connection points: 2
#     Edge 27, Type (0, 0), BuildingBlock: UVAHIK_clean_linker_0, # of connection points: 2
#     Edge 28, Type (0, 0), BuildingBlock: UVAHIK_clean_linker_0, # of connection points: 2
#     Edge 29, Type (0, 0), BuildingBlock: UVAHIK_clean_linker_0, # of connection points: 2
#     Edge 30, Type (0, 0), BuildingBlock: UVAHIK_clean_linker_0, # of connection points: 2
#     Edge 31, Type (0, 0), BuildingBlock: UVAHIK_clean_linker_0, # of connection points: 2
#     Edge 32, Type (0, 0), BuildingBlock: UVAHIK_clean_linker_0, # of connection points: 2
#     Edge 33, Type (0, 0), BuildingBlock: UVAHIK_clean_linker_0, # of connection points: 2
#     Edge 34, Type (0, 0), BuildingBlock: UVAHIK_clean_linker_0, # of connection points: 2
#     Edge 35, Type (0, 0), BuildingBlock: UVAHIK_clean_linker_0, # of connection points: 2
#     Edge 36, Type (0, 0), BuildingBlock: UVAHIK_clean_linker_0, # of connection points: 2
#     Edge 37, Type (0, 0), BuildingBlock: UVAHIK_clean_linker_0, # of connection points: 2
#     Edge 38, Type (0, 0), BuildingBlock: UVAHIK_clean_linker_0, # of connection points: 2
#     Edge 39, Type (0, 0), BuildingBlock: UVAHIK_clean_linker_0, # of connection points: 2
#     Edge 40, Type (0, 0), BuildingBlock: UVAHIK_clean_linker_0, # of connection points: 2
#     Edge 41, Type (0, 0), BuildingBlock: UVAHIK_clean_linker_0, # of connection points: 2
#     Edge 42, Type (0, 0), BuildingBlock: UVAHIK_clean_linker_0, # of connection points: 2
#     Edge 43, Type (0, 0), BuildingBlock: UVAHIK_clean_linker_0, # of connection points: 2
#     Edge 44, Type (0, 0), BuildingBlock: UVAHIK_clean_linker_0, # of connection points: 2
#     Edge 45, Type (0, 0), BuildingBlock: UVAHIK_clean_linker_0, # of connection points: 2
#     Edge 46, Type (0, 0), BuildingBlock: UVAHIK_clean_linker_0, # of connection points: 2
#     Edge 47, Type (0, 0), BuildingBlock: UVAHIK_clean_linker_0, # of connection points: 2
# Relax obj value: 0.000
# Max RMSD: 0.071
# Mean RMSD: 0.071
data_MOF--net-ukk--node1-MUDLON_clean_sbu_0--edge1-UVAHIK_clean_linker_0
_symmetry_space_group_name_H-M    P1
_symmetry_Int_Tables_number       1
_symmetry_cell_setting            triclinic
loop_
_symmetry_equiv_pos_as_xyz
'x, y, z'
_cell_length_a     77.332314
_cell_length_b     77.62586
_cell_length_c     11.702162
_cell_angle_alpha  89.929242
_cell_angle_beta   89.950404
_cell_angle_gamma 90.00618
loop_
_atom_site_label
_atom_site_type_symbol
_atom_site_fract_x
_atom_site_fract_y
_atom_site_fract_z
_atom_type_partial_charge
Mg0 Mg 0.38568 0.12892 0.09463 0.0
C1 C 0.38672 0.16596 0.06368 0.0
O2 O 0.38771 0.15916 0.96108 0.0
C3 C 0.37557 0.09616 0.21444 0.0
O4 O 0.36477 0.09638 0.12794 0.0
C5 C 0.34832 0.13073 0.06087 0.0
O6 O 0.35111 0.13573 0.16653 0.0
O7 O 0.36134 0.12663 -0.00027 0.0
O8 O 0.38574 0.15583 0.14921 0.0
O9 O 0.41019 0.12635 0.002 0.0
C10 C 0.41989 0.11342 0.02146 0.0
O11 O 0.41372 0.10061 0.08249 0.0
O12 O 0.38577 0.10889 0.22806 0.0
Mg13 Mg 0.13078 0.634 0.85504 0.0
C14 C 0.16776 0.63791 0.89281 0.0
O15 O 0.16036 0.63845 0.9939 0.0
C16 C 0.10237 0.64486 0.68409 0.0
O17 O 0.10769 0.66043 0.70987 0.0
C18 C 0.13221 0.6711 0.90176 0.0
O19 O 0.14069 0.66895 0.80547 0.0
O20 O 0.12597 0.65783 0.95124 0.0
O21 O 0.15809 0.63621 0.80528 0.0
O22 O 0.12906 0.60919 0.94523 0.0
C23 C 0.13943 0.59778 0.90722 0.0
O24 O 0.15024 0.60206 0.82541 0.0
O25 O 0.11054 0.63194 0.72388 0.0
Mg26 Mg 0.63623 0.88692 0.10014 0.0
C27 C 0.64469 0.85046 0.07301 0.0
O28 O 0.64722 0.85747 0.97209 0.0
C29 C 0.62641 0.92023 0.19804 0.0
O30 O 0.61924 0.91985 0.09636 0.0
C31 C 0.67303 0.89267 0.06716 0.0
O32 O 0.67079 0.88979 0.17688 0.0
O33 O 0.65972 0.8928 0.00293 0.0
O34 O 0.64006 0.8602 0.15516 0.0
O35 O 0.61086 0.88793 0.01417 0.0
C36 C 0.60148 0.87451 0.00428 0.0
O37 O 0.60803 0.85949 0.03212 0.0
O38 O 0.63496 0.90711 0.23108 0.0
Mg39 Mg 0.89129 0.38189 0.87492 0.0
C40 C 0.85451 0.3754 0.90929 0.0
O41 O 0.86165 0.3747 0.01107 0.0
C42 C 0.91802 0.39695 0.71116 0.0
O43 O 0.9108 0.41133 0.74613 0.0
C44 C 0.90172 0.34581 0.91891 0.0
O45 O 0.90412 0.34784 0.80855 0.0
O46 O 0.89682 0.35879 0.97733 0.0
O47 O 0.86431 0.37804 0.82331 0.0
O48 O 0.89217 0.40733 0.95867 0.0
C49 C 0.88074 0.41804 0.925 0.0
O50 O 0.86903 0.41278 0.85178 0.0
O51 O 0.91148 0.38266 0.74283 0.0
Mg52 Mg 0.38557 0.38851 0.1427 0.0
C53 C 0.38283 0.3516 0.16153 0.0
O54 O 0.3819 0.35794 0.26545 0.0
C55 C 0.37963 0.4239 0.05821 0.0
O56 O 0.37289 0.42381 0.16128 0.0
C57 C 0.34815 0.39137 0.17323 0.0
O58 O 0.35073 0.39064 0.06231 0.0
O59 O 0.36131 0.39095 0.23882 0.0
O60 O 0.38443 0.36211 0.07839 0.0
O61 O 0.41031 0.38881 0.23409 0.0
C62 C 0.42056 0.40164 0.22906 0.0
O63 O 0.41505 0.41607 0.18315 0.0
O64 O 0.38617 0.40997 0.02003 0.0
Mg65 Mg 0.39176 0.63601 0.89956 0.0
C66 C 0.3548 0.63581 0.86007 0.0
O67 O 0.36231 0.63472 0.75951 0.0
C68 C 0.42111 0.64909 0.05528 0.0
O69 O 0.41752 0.66383 0.0057 0.0
C70 C 0.38905 0.67287 0.84437 0.0
O71 O 0.38151 0.67122 0.94448 0.0
O72 O 0.3951 0.65941 0.79642 0.0
O73 O 0.36443 0.63662 0.94833 0.0
O74 O 0.39425 0.61098 0.81334 0.0
C75 C 0.40582 0.60046 0.84718 0.0
O76 O 0.41746 0.60587 0.92043 0.0
O77 O 0.41159 0.63606 0.03473 0.0
Mg78 Mg 0.63588 0.62787 0.14327 0.0
C79 C 0.64398 0.66472 0.16239 0.0
O80 O 0.64817 0.65805 0.26184 0.0
C81 C 0.64272 0.59338 0.04532 0.0
O82 O 0.64948 0.59254 0.14804 0.0
C83 C 0.67306 0.6249 0.17942 0.0
O84 O 0.6709 0.6277 0.06957 0.0
O85 O 0.65965 0.62388 0.24254 0.0
O86 O 0.63827 0.65467 0.08496 0.0
O87 O 0.61048 0.6256 0.22695 0.0
C88 C 0.60225 0.63888 0.2607 0.0
O89 O 0.61018 0.65383 0.26054 0.0
O90 O 0.6358 0.60748 0.01308 0.0
Mg91 Mg 0.63053 0.38089 0.88825 0.0
C92 C 0.66767 0.37848 0.85114 0.0
O93 O 0.66055 0.37986 0.74961 0.0
C94 C 0.59873 0.37131 0.02979 0.0
O95 O 0.59989 0.35732 0.96731 0.0
C96 C 0.63138 0.34401 0.83859 0.0
O97 O 0.63883 0.34583 0.93877 0.0
O98 O 0.62585 0.35748 0.78799 0.0
O99 O 0.65776 0.37836 0.9383 0.0
O100 O 0.62929 0.40607 0.80277 0.0
C101 C 0.63844 0.41733 0.85391 0.0
O102 O 0.6473 0.41257 0.94431 0.0
O103 O 0.61055 0.38269 0.02158 0.0
Mg104 Mg 0.88685 0.62955 0.61641 0.0
C105 C 0.87951 0.66676 0.59569 0.0
O106 O 0.87414 0.66005 0.49902 0.0
C107 C 0.87937 0.59523 0.71797 0.0
O108 O 0.87182 0.59457 0.61763 0.0
C109 C 0.84947 0.62751 0.58565 0.0
O110 O 0.85204 0.63083 0.69443 0.0
O111 O 0.86266 0.6259 0.52106 0.0
O112 O 0.88572 0.65666 0.67141 0.0
O113 O 0.91182 0.62617 0.52965 0.0
C114 C 0.92051 0.63902 0.49356 0.0
O115 O 0.9132 0.65428 0.49253 0.0
O116 O 0.88693 0.60914 0.74751 0.0
Mg117 Mg 0.63095 0.134 0.36058 0.0
C118 C 0.66791 0.13728 0.39234 0.0
O119 O 0.66086 0.13772 0.49453 0.0
C120 C 0.5963 0.12688 0.27064 0.0
O121 O 0.596 0.12141 0.3769 0.0
C122 C 0.62223 0.17028 0.40334 0.0
O123 O 0.62042 0.16836 0.29246 0.0
O124 O 0.62635 0.15715 0.4629 0.0
O125 O 0.65793 0.13594 0.30613 0.0
O126 O 0.62965 0.10869 0.44395 0.0
C127 C 0.62794 0.09661 0.37119 0.0
O128 O 0.62732 0.10061 0.26215 0.0
O129 O 0.61021 0.13353 0.23216 0.0
Mg130 Mg 0.13372 0.38855 0.60921 0.0
C131 C 0.13025 0.35151 0.58155 0.0
O132 O 0.12694 0.35831 0.48103 0.0
C133 C 0.14446 0.42078 0.73432 0.0
O134 O 0.15639 0.41996 0.65462 0.0
C135 C 0.17101 0.38592 0.56978 0.0
O136 O 0.1684 0.38009 0.67389 0.0
O137 O 0.15792 0.39087 0.51217 0.0
O138 O 0.13369 0.36162 0.66424 0.0
O139 O 0.10901 0.3911 0.51959 0.0
C140 C 0.10003 0.4048 0.52663 0.0
O141 O 0.10698 0.41855 0.57304 0.0
O142 O 0.13344 0.40862 0.74179 0.0
Mg143 Mg 0.39039 0.88296 0.34444 0.0
C144 C 0.35341 0.87979 0.37996 0.0
O145 O 0.36065 0.88017 0.4815 0.0
C146 C 0.41919 0.87141 0.17858 0.0
O147 O 0.4137 0.856 0.20712 0.0
C148 C 0.38881 0.84598 0.3958 0.0
O149 O 0.38082 0.84779 0.29748 0.0
O150 O 0.39472 0.85941 0.44486 0.0
O151 O 0.36322 0.88062 0.29247 0.0
O152 O 0.39182 0.90799 0.43174 0.0
C153 C 0.38182 0.91936 0.38913 0.0
O154 O 0.37165 0.91494 0.30428 0.0
O155 O 0.411 0.88454 0.215 0.0
Mg156 Mg 0.88658 0.88998 0.62866 0.0
C157 C 0.88754 0.85284 0.6576 0.0
O158 O 0.89056 0.85962 0.75851 0.0
C159 C 0.90076 0.91685 0.45811 0.0
O160 O 0.91553 0.90918 0.48003 0.0
C161 C 0.84953 0.89493 0.65965 0.0
O162 O 0.85207 0.89381 0.54883 0.0
O163 O 0.86266 0.89403 0.7252 0.0
O164 O 0.88498 0.86303 0.57367 0.0
O165 O 0.91132 0.89068 0.71942 0.0
C166 C 0.92039 0.90391 0.7423 0.0
O167 O 0.91381 0.9193 0.72546 0.0
O168 O 0.8869 0.91056 0.4996 0.0
Mg169 Mg 0.89187 0.13277 0.36643 0.0
C170 C 0.85472 0.13293 0.32962 0.0
O171 O 0.8619 0.13198 0.22796 0.0
C172 C 0.91958 0.14435 0.53866 0.0
O173 O 0.91434 0.15976 0.50798 0.0
C174 C 0.88875 0.16996 0.31674 0.0
O175 O 0.87935 0.16753 0.40894 0.0
O176 O 0.89612 0.15692 0.27167 0.0
O177 O 0.86461 0.13347 0.41665 0.0
O178 O 0.89387 0.10814 0.27557 0.0
C179 C 0.90714 0.09858 0.28716 0.0
O180 O 0.92084 0.10488 0.33857 0.0
O181 O 0.91157 0.13121 0.5009 0.0
Mg182 Mg 0.13405 0.12876 0.63149 0.0
C183 C 0.14159 0.16592 0.64825 0.0
O184 O 0.14744 0.15937 0.74428 0.0
C185 C 0.1409 0.09444 0.5326 0.0
O186 O 0.14742 0.09351 0.636 0.0
C187 C 0.17145 0.12555 0.66408 0.0
O188 O 0.16919 0.12754 0.55355 0.0
O189 O 0.15812 0.12517 0.72822 0.0
O190 O 0.13507 0.15571 0.57463 0.0
O191 O 0.10905 0.12543 0.71765 0.0
C192 C 0.10052 0.13833 0.75444 0.0
O193 O 0.10805 0.15348 0.75664 0.0
O194 O 0.13411 0.10858 0.50006 0.0
Mg195 Mg 0.12959 0.88222 0.37054 0.0
C196 C 0.1665 0.87832 0.33212 0.0
O197 O 0.1592 0.87864 0.23075 0.0
C198 C 0.09565 0.8758 0.48803 0.0
O199 O 0.09413 0.86623 0.39617 0.0
C200 C 0.12582 0.84517 0.33119 0.0
O201 O 0.12877 0.84677 0.44125 0.0
O202 O 0.12493 0.85881 0.27062 0.0
O203 O 0.15677 0.87937 0.41984 0.0
O204 O 0.12834 0.90742 0.28549 0.0
C205 C 0.13794 0.91857 0.33402 0.0
O206 O 0.14732 0.9137 0.42182 0.0
O207 O 0.10982 0.88377 0.50529 0.0
C208 C 0.39731 0.94547 0.46681 0.0
C209 C 0.38216 0.93765 0.42535 0.0
C210 C 0.39801 0.96342 0.48201 0.0
C211 C 0.37036 1.00273 0.50008 0.0
H212 H 0.40822 0.02566 0.34472 0.0
C213 C 0.36311 0.06862 0.28669 0.0
C214 C 0.37701 0.08025 0.28403 0.0
C215 C 0.36493 0.05238 0.33666 0.0
C216 C 0.39774 0.01953 0.39079 0.0
H217 H 0.35565 0.9423 0.37393 0.0
H218 H 0.35678 0.97326 0.40162 0.0
H219 H 0.40939 0.99456 0.3761 0.0
H220 H 0.40362 0.08419 0.3356 0.0
H221 H 0.40689 0.05558 0.42281 0.0
H222 H 0.35835 0.02753 0.5104 0.0
C223 C 0.36815 0.96572 0.42238 0.0
C224 C 0.39841 1.00168 0.40884 0.0
C225 C 0.36753 0.94794 0.40575 0.0
C226 C 0.39264 0.07554 0.33698 0.0
C227 C 0.39455 0.05912 0.386 0.0
C228 C 0.36968 0.02053 0.48209 0.0
C229 C 0.38349 0.97378 0.45802 0.0
C230 C 0.38443 0.99298 0.4599 0.0
C231 C 0.38078 0.04723 0.38457 0.0
C232 C 0.38307 0.02906 0.42344 0.0
H233 H 0.40882 0.93786 0.48194 0.0
H234 H 0.41001 0.96924 0.51011 0.0
H235 H 0.35952 0.99648 0.5417 0.0
H236 H 0.3509 0.07185 0.24669 0.0
H237 H 0.35412 0.04354 0.33257 0.0
C238 C 0.07694 0.65675 0.57715 0.0
C239 C 0.08534 0.64257 0.62719 0.0
C240 C 0.05983 0.65543 0.53955 0.0
C241 C 0.02387 0.62447 0.47898 0.0
H242 H 0.99535 0.66369 0.5594 0.0
C243 C 0.94858 0.62258 0.50474 0.0
C244 C 0.93947 0.63758 0.47406 0.0
C245 C 0.96673 0.62239 0.50453 0.0
C246 C 1.00312 0.65271 0.53444 0.0
H247 H 0.08251 0.61558 0.67156 0.0
H248 H 0.05256 0.61335 0.60794 0.0
H249 H 0.02627 0.66483 0.59249 0.0
H250 H 0.94236 0.66373 0.41132 0.0
H251 H 0.97383 0.6633 0.40938 0.0
H252 H 1.00042 0.61223 0.42377 0.0
C253 C 0.05926 0.62548 0.59633 0.0
C254 C 0.02094 0.65337 0.55334 0.0
C255 C 0.07647 0.62676 0.63317 0.0
C256 C 0.94892 0.652 0.4366 0.0
C257 C 0.967 0.6518 0.43625 0.0
C258 C 1.00595 0.62379 0.46039 0.0
C259 C 0.05055 0.63994 0.55193 0.0
C260 C 0.03161 0.63927 0.5262 0.0
C261 C 0.97616 0.63719 0.47357 0.0
C262 C 0.99534 0.63791 0.48813 0.0
H263 H 0.08343 0.66908 0.5701 0.0
H264 H 0.05373 0.66673 0.50309 0.0
H265 H 0.03166 0.61342 0.45594 0.0
H266 H 0.94174 0.61124 0.53421 0.0
H267 H 0.97333 0.61093 0.53417 0.0
C268 C 0.61226 0.94831 0.23953 0.0
C269 C 0.62521 0.93628 0.26629 0.0
C270 C 0.61196 0.96446 0.29135 0.0
C271 C 0.64085 0.99641 0.41929 0.0
H272 H 0.59748 0.02051 0.46591 0.0
C273 C 0.63635 0.0708 0.4895 0.0
C274 C 0.62595 0.07837 0.40479 0.0
C275 C 0.63596 0.05288 0.50692 0.0
C276 C 0.60971 0.01393 0.45455 0.0
H277 H 0.64769 0.93155 0.37206 0.0
H278 H 0.64722 0.96007 0.46341 0.0
H279 H 0.5974 0.98939 0.43767 0.0
H280 H 0.60641 0.07345 0.27643 0.0
H281 H 0.6053 0.04249 0.30921 0.0
H282 H 0.65303 0.02119 0.43257 0.0
C283 C 0.63732 0.9569 0.40157 0.0
C284 C 0.60968 0.9961 0.43783 0.0
C285 C 0.63752 0.94055 0.34998 0.0
C286 C 0.61457 0.06793 0.34226 0.0
C287 C 0.61388 0.05021 0.36142 0.0
C288 C 0.64088 0.01428 0.43708 0.0
C289 C 0.62465 0.96915 0.37148 0.0
C290 C 0.62516 0.98722 0.41479 0.0
C291 C 0.62481 0.04241 0.44207 0.0
C292 C 0.62523 0.0233 0.45009 0.0
H293 H 0.60254 0.94544 0.1757 0.0
H294 H 0.60218 0.97357 0.26436 0.0
H295 H 0.653 0.99003 0.40134 0.0
H296 H 0.64534 0.07859 0.53804 0.0
H297 H 0.64454 0.04717 0.56954 0.0
C298 C 0.07138 0.41962 0.50617 0.0
C299 C 0.0811 0.40433 0.50455 0.0
C300 C 0.05329 0.4191 0.50419 0.0
C301 C 0.01506 0.39012 0.46003 0.0
H302 H 0.99315 0.42226 0.668 0.0
C303 C 0.94493 0.38244 0.63655 0.0
C304 C 0.93519 0.39754 0.65381 0.0
C305 C 0.96215 0.38339 0.59915 0.0
C306 C 0.99898 0.41335 0.60813 0.0
H307 H 0.07937 0.37649 0.49387 0.0
H308 H 0.04788 0.37555 0.49297 0.0
H309 H 0.02412 0.42382 0.63685 0.0
H310 H 0.93565 0.42539 0.63804 0.0
H311 H 0.96548 0.42699 0.57232 0.0
H312 H 0.98977 0.37935 0.43481 0.0
C313 C 0.05418 0.388 0.49405 0.0
C314 C 0.01682 0.41427 0.58989 0.0
C315 C 0.0723 0.38854 0.49486 0.0
C316 C 0.94277 0.4135 0.62673 0.0
C317 C 0.95995 0.41444 0.58968 0.0
C318 C 0.99716 0.38914 0.47896 0.0
C319 C 0.0444 0.40326 0.50191 0.0
C320 C 0.02517 0.40266 0.51585 0.0
C321 C 0.97001 0.39945 0.57846 0.0
C322 C 0.98891 0.40073 0.55352 0.0
H323 H 0.07773 0.43202 0.51256 0.0
H324 H 0.04626 0.43116 0.50719 0.0
H325 H 0.02095 0.38108 0.40143 0.0
H326 H 0.93951 0.36993 0.65659 0.0
H327 H 0.96953 0.37159 0.59183 0.0
C328 C 0.39241 0.44283 0.90384 0.0
C329 C 0.38077 0.44045 0.9949 0.0
C330 C 0.39469 0.45922 0.85496 0.0
C331 C 0.40575 0.49707 0.83449 0.0
H332 H 0.36786 0.52971 0.8204 0.0
C333 C 0.41622 0.57015 0.8726 0.0
C334 C 0.40453 0.58173 0.82177 0.0
C335 C 0.41372 0.55237 0.86444 0.0
C336 C 0.37861 0.52078 0.82153 0.0
H337 H 0.36182 0.45324 0.10204 0.0
H338 H 0.36582 0.48151 0.01839 0.0
H339 H 0.36186 0.49941 0.85483 0.0
H340 H 0.38155 0.58355 0.71644 0.0
H341 H 0.3774 0.55243 0.69972 0.0
H342 H 0.42252 0.51845 0.80124 0.0
C343 C 0.37315 0.47086 0.98347 0.0
C344 C 0.37517 0.50337 0.84288 0.0
C345 C 0.37095 0.4546 0.03236 0.0
C346 C 0.39077 0.57502 0.75709 0.0
C347 C 0.38831 0.55715 0.74836 0.0
C348 C 0.4092 0.51448 0.81245 0.0
C349 C 0.38525 0.47351 0.89551 0.0
C350 C 0.38872 0.49137 0.85349 0.0
C351 C 0.39951 0.54558 0.80444 0.0
C352 C 0.39572 0.52669 0.80933 0.0
H353 H 0.40019 0.43219 0.87313 0.0
H354 H 0.40401 0.46076 0.78663 0.0
H355 H 0.41654 0.48825 0.84229 0.0
H356 H 0.42696 0.57481 0.92326 0.0
H357 H 0.42251 0.54399 0.91028 0.0
C358 C 0.4457 0.63084 0.12743 0.0
C359 C 0.43784 0.6471 0.11619 0.0
C360 C 0.46282 0.62941 0.16582 0.0
C361 C 0.5027 0.65597 0.18336 0.0
H362 H 0.52119 0.61648 0.34567 0.0
C363 C 0.57428 0.6534 0.3093 0.0
C364 C 0.58322 0.63829 0.27926 0.0
C365 C 0.55621 0.65387 0.30838 0.0
C366 C 0.5162 0.62756 0.30001 0.0
H367 H 0.44135 0.67444 0.14511 0.0
H368 H 0.47079 0.67193 0.21618 0.0
H369 H 0.49001 0.61868 0.31268 0.0
H370 H 0.58004 0.61148 0.23165 0.0
H371 H 0.5484 0.61232 0.23047 0.0
H372 H 0.5288 0.66485 0.17037 0.0
C373 C 0.46406 0.6603 0.19122 0.0
C374 C 0.49833 0.62882 0.28078 0.0
C375 C 0.44707 0.66174 0.15147 0.0
C376 C 0.57359 0.62334 0.25517 0.0
C377 C 0.55544 0.62381 0.25466 0.0
C378 C 0.52047 0.65478 0.20342 0.0
C379 C 0.47242 0.64418 0.19512 0.0
C380 C 0.49132 0.64303 0.22165 0.0
C381 C 0.54656 0.63924 0.27779 0.0
C382 C 0.52748 0.64055 0.26154 0.0
H383 H 0.43899 0.61929 0.10067 0.0
H384 H 0.46876 0.61678 0.16691 0.0
H385 H 0.49799 0.66688 0.13482 0.0
H386 H 0.58123 0.66513 0.32935 0.0
H387 H 0.54977 0.66588 0.32882 0.0
C388 C 0.65284 0.44595 0.8528 0.0
C389 C 0.63873 0.43572 0.81971 0.0
C390 C 0.65263 0.46374 0.83633 0.0
C391 C 0.62263 0.49996 0.82057 0.0
H392 H 0.66496 0.52531 0.76246 0.0
C393 C 0.62863 0.57383 0.90068 0.0
C394 C 0.6425 0.57763 0.97406 0.0
C395 C 0.62745 0.55756 0.8485 0.0
C396 C 0.65299 0.51845 0.77803 0.0
H397 H 0.61351 0.43608 0.73946 0.0
H398 H 0.61303 0.4675 0.71123 0.0
H399 H 0.66404 0.49435 0.72773 0.0
H400 H 0.66642 0.56785 0.04529 0.0
H401 H 0.6646 0.53987 0.95296 0.0
H402 H 0.61183 0.52406 0.87525 0.0
C403 C 0.62429 0.46162 0.74999 0.0
C404 C 0.65246 0.5007 0.75835 0.0
C405 C 0.62461 0.44364 0.76531 0.0
C406 C 0.65557 0.56528 0.98927 0.0
C407 C 0.65457 0.54927 0.93578 0.0
C408 C 0.62314 0.51779 0.83988 0.0
C409 C 0.63822 0.4719 0.78698 0.0
C410 C 0.63751 0.4911 0.78391 0.0
C411 C 0.64032 0.54503 0.86685 0.0
C412 C 0.63855 0.5271 0.82318 0.0
H413 H 0.66395 0.44025 0.89471 0.0
H414 H 0.66348 0.4712 0.86747 0.0
H415 H 0.61093 0.49298 0.84172 0.0
H416 H 0.61831 0.58307 0.8882 0.0
H417 H 0.61634 0.55467 0.79563 0.0
C418 C 0.45042 0.41373 0.25405 0.0
C419 C 0.43931 0.3994 0.2531 0.0
C420 C 0.46839 0.41155 0.25802 0.0
C421 C 0.50346 0.37877 0.30239 0.0
H422 H 0.52915 0.40891 0.09953 0.0
C423 C 0.5702 0.36166 0.10899 0.0
C424 C 0.58241 0.37487 0.09276 0.0
C425 C 0.5537 0.36532 0.15185 0.0
C426 C 0.52226 0.40055 0.15815 0.0
H427 H 0.43843 0.3715 0.26101 0.0
H428 H 0.46965 0.36766 0.26517 0.0
H429 H 0.49855 0.41406 0.13171 0.0
H430 H 0.58708 0.40222 0.11432 0.0
H431 H 0.55823 0.40862 0.18892 0.0
H432 H 0.5272 0.36485 0.32447 0.0
C433 C 0.46456 0.38065 0.26484 0.0
C434 C 0.50464 0.40352 0.17696 0.0
C435 C 0.44658 0.38285 0.26209 0.0
C436 C 0.578 0.39173 0.12576 0.0
C437 C 0.56142 0.39542 0.16766 0.0
C438 C 0.52108 0.37572 0.28276 0.0
C439 C 0.47576 0.39496 0.25982 0.0
C440 C 0.4949 0.39255 0.24819 0.0
C441 C 0.54894 0.38232 0.17875 0.0
C442 C 0.53066 0.38645 0.2092 0.0
H443 H 0.44526 0.42668 0.2482 0.0
H444 H 0.47651 0.42291 0.25703 0.0
H445 H 0.49653 0.37021 0.35939 0.0
H446 H 0.57316 0.34853 0.08473 0.0
H447 H 0.5444 0.35493 0.15848 0.0
C448 C 0.89682 0.4446 0.99107 0.0
C449 C 0.88146 0.43665 0.95432 0.0
C450 C 0.89775 0.46263 0.00114 0.0
C451 C 0.87021 0.50237 0.00775 0.0
H452 H 0.90957 0.52437 0.86314 0.0
C453 C 0.86615 0.56756 0.78025 0.0
C454 C 0.87983 0.57939 0.78872 0.0
C455 C 0.86725 0.55136 0.83161 0.0
C456 C 0.89864 0.51848 0.90594 0.0
H457 H 0.85484 0.44133 0.90505 0.0
H458 H 0.85644 0.47237 0.9221 0.0
H459 H 0.91001 0.49332 0.89778 0.0
H460 H 0.90528 0.58369 0.86021 0.0
H461 H 0.90741 0.55498 0.94882 0.0
H462 H 0.85848 0.52738 0.01011 0.0
C463 C 0.86778 0.46489 0.94408 0.0
C464 C 0.89889 0.50065 0.92597 0.0
C465 C 0.86689 0.447 0.93341 0.0
C466 C 0.89447 0.57488 0.85327 0.0
C467 C 0.89574 0.55843 0.90307 0.0
C468 C 0.86992 0.52012 0.98698 0.0
C469 C 0.8833 0.47303 0.97583 0.0
C470 C 0.88442 0.49227 0.97359 0.0
C471 C 0.88221 0.5464 0.89132 0.0
C472 C 0.8839 0.5283 0.93253 0.0
H473 H 0.90829 0.43699 0.00727 0.0
H474 H 0.90987 0.46845 0.02671 0.0
H475 H 0.859 0.49646 0.04713 0.0
H476 H 0.85471 0.57066 0.73087 0.0
H477 H 0.85668 0.54238 0.81976 0.0
C478 C 0.57565 0.1375 0.11951 0.0
C479 C 0.58053 0.12499 0.20016 0.0
C480 C 0.55942 0.13652 0.06578 0.0
C481 C 0.52327 0.10681 0.00091 0.0
H482 H 0.4934 0.14638 0.04364 0.0
C483 C 0.44949 0.1004 0.02826 0.0
C484 C 0.43872 0.11415 -0.00403 0.0
C485 C 0.46747 0.10194 0.02255 0.0
C486 C 0.50159 0.13531 0.02821 0.0
H487 H 0.57281 0.10123 0.28317 0.0
H488 H 0.54492 0.09929 0.18781 0.0
H489 H 0.52418 0.14874 0.08628 0.0
H490 H 0.43852 0.14001 0.92556 0.0
H491 H 0.46997 0.14259 0.91326 0.0
H492 H 0.50076 0.09324 0.94479 0.0
C493 C 0.55342 0.10992 0.16648 0.0
C494 C 0.51927 0.13669 0.05291 0.0
C495 C 0.56936 0.11109 0.22164 0.0
C496 C 0.44641 0.12917 0.95155 0.0
C497 C 0.46447 0.1307 0.94548 0.0
C498 C 0.50566 0.10548 0.97505 0.0
C499 C 0.54807 0.12279 0.08982 0.0
C500 C 0.53018 0.12229 0.04318 0.0
C501 C 0.47526 0.11726 0.98369 0.0
C502 C 0.49444 0.11952 0.99222 0.0
H503 H 0.58399 0.1484 0.10203 0.0
H504 H 0.55563 0.14661 0.0069 0.0
H505 H 0.53141 0.09556 0.99112 0.0
H506 H 0.44406 0.08863 0.06289 0.0
H507 H 0.47524 0.09137 0.05424 0.0
C508 C 0.15337 0.5691 0.92919 0.0
C509 C 0.13869 0.57952 0.94399 0.0
C510 C 0.15245 0.55131 0.94522 0.0
C511 C 0.12188 0.51574 0.9206 0.0
H512 H 0.1608 0.48922 0.03323 0.0
C513 C 0.12687 0.44186 0.84982 0.0
C514 C 0.1428 0.4368 0.80249 0.0
C515 C 0.12492 0.45832 0.89789 0.0
C516 C 0.14979 0.49641 0.00169 0.0
H517 H 0.11162 0.57951 0.99174 0.0
H518 H 0.10993 0.54814 0.01905 0.0
H519 H 0.15986 0.52025 0.06503 0.0
H520 H 0.16937 0.44463 0.7742 0.0
H521 H 0.16605 0.47303 0.85815 0.0
H522 H 0.11218 0.49197 0.85298 0.0
C523 C 0.12218 0.55386 0.99505 0.0
C524 C 0.14924 0.5142 0.02001 0.0
C525 C 0.12318 0.57181 0.9804 0.0
C526 C 0.15692 0.44813 0.80976 0.0
C527 C 0.15503 0.46442 0.85868 0.0
C528 C 0.12243 0.4979 0.90224 0.0
C529 C 0.13677 0.54338 0.97549 0.0
C530 C 0.13559 0.52419 0.97612 0.0
C531 C 0.13893 0.46991 0.90101 0.0
C532 C 0.13671 0.48812 0.93901 0.0
H533 H 0.16552 0.57465 0.90127 0.0
H534 H 0.16389 0.54369 0.92797 0.0
H535 H 0.11124 0.52304 0.88489 0.0
H536 H 0.11572 0.43345 0.84494 0.0
H537 H 0.11238 0.46211 0.93046 0.0
C538 C 0.44494 0.85872 0.07968 0.0
C539 C 0.43636 0.87331 0.12265 0.0
C540 C 0.46217 0.85974 0.04412 0.0
C541 C 0.49829 0.88972 0.97227 0.0
H542 H 0.52641 0.85197 0.08413 0.0
C543 C 0.5737 0.89147 -0.00261 0.0
C544 C 0.58263 0.87585 0.98187 0.0
C545 C 0.55555 0.89186 -0.00361 0.0
C546 C 0.51878 0.86249 0.05024 0.0
H547 H 0.43896 0.90068 0.15558 0.0
H548 H 0.46914 0.90241 0.09454 0.0
H549 H 0.49539 0.8514 0.11366 0.0
H550 H 0.57949 0.84868 0.94442 0.0
H551 H 0.54807 0.84945 0.93963 0.0
H552 H 0.52193 0.90091 0.91053 0.0
C553 C 0.46248 0.89018 0.08763 0.0
C554 C 0.50091 0.86217 0.0673 0.0
C555 C 0.44516 0.88918 0.12288 0.0
C556 C 0.57304 0.8609 0.958 0.0
C557 C 0.55498 0.86132 0.95617 0.0
C558 C 0.51627 0.89004 0.955 0.0
C559 C 0.47136 0.87535 0.0511 0.0
C560 C 0.49038 0.87574 0.02858 0.0
C561 C 0.54596 0.87666 0.97928 0.0
C562 C 0.52675 0.8764 0.99372 0.0
H563 H 0.43852 0.84632 0.07707 0.0
H564 H 0.46845 0.84813 0.01382 0.0
H565 H 0.49058 0.90035 0.94073 0.0
H566 H 0.58069 0.90321 0.01646 0.0
H567 H 0.54907 0.90391 0.01485 0.0
C568 C 0.88495 0.94281 0.382 0.0
C569 C 0.90061 0.93421 0.40382 0.0
C570 C 0.88488 0.96 0.3451 0.0
C571 C 0.91346 0.99533 0.23339 0.0
H572 H 0.87911 0.02488 0.37389 0.0
C573 C 0.92093 0.06936 0.27422 0.0
C574 C 0.90611 0.07976 0.26385 0.0
C575 C 0.91965 0.05137 0.27011 0.0
C576 C 0.88863 0.0168 0.33232 0.0
H577 H 0.92852 0.93687 0.39974 0.0
H578 H 0.92843 0.96677 0.33803 0.0
H579 H 0.87792 0.99394 0.40583 0.0
H580 H 0.8784 0.07931 0.23567 0.0
H581 H 0.87618 0.04792 0.22862 0.0
H582 H 0.9245 0.01841 0.16349 0.0
C583 C 0.91614 0.96023 0.34734 0.0
C584 C 0.88795 0.99898 0.35046 0.0
C585 C 0.9162 0.94302 0.38339 0.0
C586 C 0.89009 0.07172 0.24394 0.0
C587 C 0.88879 0.05371 0.24086 0.0
C588 C 0.91422 0.01318 0.21599 0.0
C589 C 0.90048 0.96911 0.32981 0.0
C590 C 0.90047 0.98797 0.30248 0.0
C591 C 0.9035 0.0433 0.25639 0.0
C592 C 0.90193 0.02418 0.26633 0.0
H593 H 0.87268 0.9364 0.39621 0.0
H594 H 0.87256 0.96623 0.33027 0.0
H595 H 0.92315 0.9873 0.19313 0.0
H596 H 0.93348 0.07508 0.28961 0.0
H597 H 0.93124 0.04378 0.28313 0.0
C598 C 0.94518 0.12649 0.59851 0.0
C599 C 0.93638 0.14235 0.59892 0.0
C600 C 0.96221 0.12534 0.63875 0.0
C601 C 1.00048 0.15328 0.68245 0.0
H602 H 0.02025 0.11251 0.82254 0.0
C603 C 0.07216 0.15168 0.80812 0.0
C604 C 0.08153 0.13709 0.77293 0.0
C605 C 0.05407 0.15164 0.80701 0.0
C606 C 0.01493 0.12397 0.7831 0.0
H607 H 0.93816 0.16914 0.64959 0.0
H608 H 0.96755 0.16704 0.72276 0.0
H609 H 0.98913 0.11381 0.78593 0.0
H610 H 0.07913 0.11063 0.71566 0.0
H611 H 0.04754 0.1106 0.71338 0.0
H612 H 0.02618 0.16339 0.67817 0.0
C613 C 0.96156 0.15558 0.68798 0.0
C614 C 0.99708 0.12471 0.7619 0.0
C615 C 0.94462 0.15677 0.64685 0.0
C616 C 0.07234 0.1221 0.74331 0.0
C617 C 0.0542 0.12207 0.74221 0.0
C618 C 0.01823 0.15257 0.70407 0.0
C619 C 0.97081 0.13999 0.68121 0.0
C620 C 0.98962 0.13936 0.71057 0.0
C621 C 0.04485 0.13702 0.77066 0.0
C622 C 0.02573 0.13789 0.75405 0.0
H623 H 0.93925 0.11513 0.5619 0.0
H624 H 0.96889 0.11313 0.63132 0.0
H625 H 0.99538 0.16462 0.64028 0.0
H626 H 0.07878 0.16341 0.83249 0.0
H627 H 0.0473 0.16326 0.83185 0.0
C628 C 0.15221 0.94727 0.33244 0.0
C629 C 0.13807 0.93699 0.30053 0.0
C630 C 0.15186 0.96507 0.31678 0.0
C631 C 0.12153 1.00112 0.3047 0.0
H632 H 0.16364 0.02683 0.24655 0.0
C633 C 0.12706 0.07496 0.38666 0.0
C634 C 0.14084 0.07876 0.46076 0.0
C635 C 0.12599 0.05874 0.33385 0.0
C636 C 0.15173 0.01987 0.26209 0.0
H637 H 0.11265 0.9373 0.22298 0.0
H638 H 0.11195 0.96873 0.19591 0.0
H639 H 0.16292 0.99591 0.21027 0.0
H640 H 0.16473 0.06903 0.53268 0.0
H641 H 0.16313 0.04113 0.43907 0.0
H642 H 0.11059 0.02508 0.36061 0.0
C643 C 0.12333 0.96287 0.23331 0.0
C644 C 0.15131 1.00213 0.24159 0.0
C645 C 0.12377 0.94489 0.24795 0.0
C646 C 0.15395 0.06646 0.47608 0.0
C647 C 0.15308 0.05049 0.4219 0.0
C648 C 0.12192 0.01893 0.32469 0.0
C649 C 0.1373 0.97319 0.26929 0.0
C650 C 0.13645 0.9924 0.2672 0.0
C651 C 0.13891 0.04625 0.35226 0.0
C652 C 0.13725 0.02836 0.30793 0.0
H653 H 0.16345 0.94159 0.37291 0.0
H654 H 0.16275 0.97255 0.34715 0.0
H655 H 0.1099 0.99403 0.32596 0.0
H656 H 0.1167 0.08416 0.37412 0.0
H657 H 0.11494 0.05583 0.28046 0.0
C658 C 0.94686 0.88538 0.75906 0.0
C659 C 0.93922 0.90181 0.76433 0.0
C660 C 0.96483 0.88349 0.76114 0.0
C661 C 1.00471 0.90821 0.69645 0.0
H662 H 0.02684 0.86635 0.80293 0.0
C663 C 0.07747 0.89443 0.61666 0.0
C664 C 0.0802 0.87866 0.5606 0.0
C665 C 0.06147 0.89802 0.66809 0.0
C666 C 0.02086 0.87816 0.77329 0.0
H667 H 0.94461 0.92906 0.78336 0.0
H668 H 0.97598 0.92573 0.79053 0.0
H669 H 0.99649 0.87158 0.84818 0.0
H670 H 0.06875 0.85392 0.52048 0.0
H671 H 0.04112 0.85998 0.61234 0.0
H672 H 0.02913 0.91464 0.62074 0.0
C673 C 0.96806 0.91431 0.78144 0.0
C674 C 1.00341 0.88113 0.79855 0.0
C675 C 0.95003 0.91622 0.77842 0.0
C676 C 0.06702 0.8662 0.56292 0.0
C677 C 0.05121 0.86964 0.616 0.0
C678 C 0.02222 0.90533 0.67246 0.0
C679 C 0.97575 0.89795 0.76971 0.0
C680 C 0.99492 0.89596 0.75754 0.0
C681 C 0.04806 0.88575 0.66647 0.0
C682 C 0.03036 0.89004 0.70783 0.0
H683 H 0.93898 0.87397 0.74796 0.0
H684 H 0.97013 0.87069 0.75033 0.0
H685 H 0.99868 0.91967 0.66192 0.0
H686 H 0.08735 0.90433 0.61553 0.0
H687 H 0.05943 0.91052 0.70682 0.0
C688 C 0.3801 0.32185 0.24108 0.0
C689 C 0.38245 0.33262 0.14549 0.0
C690 C 0.38019 0.30396 0.22976 0.0
C691 C 0.39519 0.26892 0.04124 0.0
H692 H 0.36353 0.24125 0.22187 0.0
C693 C 0.38841 0.19548 0.97863 0.0
C694 C 0.3865 0.18501 0.0761 0.0
C695 C 0.38794 0.21341 0.98722 0.0
C696 C 0.37261 0.24877 0.17193 0.0
H697 H 0.38657 0.3329 0.96234 0.0
H698 H 0.38659 0.30146 0.9421 0.0
H699 H 0.36203 0.27258 0.2318 0.0
H700 H 0.38266 0.18529 0.25953 0.0
H701 H 0.38192 0.21676 0.27486 0.0
H702 H 0.40576 0.24508 0.98139 0.0
C703 C 0.38486 0.30698 0.02629 0.0
C704 C 0.37173 0.26675 0.17734 0.0
C705 C 0.38474 0.32499 0.03766 0.0
C706 C 0.38417 0.19297 0.18282 0.0
C707 C 0.38364 0.211 0.1914 0.0
C708 C 0.39606 0.25092 0.03574 0.0
C709 C 0.3826 0.29624 0.12244 0.0
C710 C 0.38306 0.27708 0.11245 0.0
C711 C 0.38552 0.22143 0.09353 0.0
C712 C 0.3848 0.24061 0.10118 0.0
H713 H 0.37833 0.32722 0.32567 0.0
H714 H 0.3787 0.29616 0.30595 0.0
H715 H 0.4043 0.27643 0.99155 0.0
H716 H 0.3902 0.18983 0.89484 0.0
H717 H 0.38918 0.22099 0.90987 0.0
C718 C 0.19678 0.64071 0.98478 0.0
C719 C 0.18693 0.63859 0.88473 0.0
C720 C 0.21483 0.64082 0.98073 0.0
C721 C 0.25186 0.62689 0.80371 0.0
H722 H 0.27771 0.65785 -0.00026 0.0
C723 C 0.32581 0.63465 0.76612 0.0
C724 C 0.33561 0.63613 0.86693 0.0
C725 C 0.30777 0.635 0.76934 0.0
C726 C 0.2707 0.64897 0.94554 0.0
H727 H 0.18844 0.6351 0.70134 0.0
H728 H 0.22012 0.63546 0.69385 0.0
H729 H 0.24619 0.65896 -0.00113 0.0
H730 H 0.33398 0.63919 0.05065 0.0
H731 H 0.30228 0.63972 0.05655 0.0
H732 H 0.27637 0.61691 0.75031 0.0
C733 C 0.21379 0.63685 0.77589 0.0
C734 C 0.2526 0.64962 0.94477 0.0
C735 C 0.19563 0.63674 0.77995 0.0
C736 C 0.32684 0.63801 0.97148 0.0
C737 C 0.30868 0.63841 0.97467 0.0
C738 C 0.26995 0.62625 0.80438 0.0
C739 C 0.22361 0.63885 0.87647 0.0
C740 C 0.24293 0.63856 0.87402 0.0
C741 C 0.29893 0.63686 0.87347 0.0
C742 C 0.27962 0.63728 0.87527 0.0
H743 H 0.19057 0.64212 0.06722 0.0
H744 H 0.22189 0.64211 0.06012 0.0
H745 H 0.24487 0.61797 0.74968 0.0
H746 H 0.33207 0.63325 0.68382 0.0
H747 H 0.30074 0.63406 0.68957 0.0
C748 C 0.64468 0.8233 0.19205 0.0
C749 C 0.6454 0.83142 0.08482 0.0
C750 C 0.6449 0.80526 0.20014 0.0
C751 C 0.65482 0.76563 0.02929 0.0
H752 H 0.62754 0.74304 0.26352 0.0
C753 C 0.64189 0.69158 0.04078 0.0
C754 C 0.64445 0.68372 0.14773 0.0
C755 C 0.6421 0.70961 0.03056 0.0
C756 C 0.63528 0.74918 0.19786 0.0
H757 H 0.64674 0.82691 0.90197 0.0
H758 H 0.64654 0.7958 0.91572 0.0
H759 H 0.62797 0.7744 0.2532 0.0
H760 H 0.64922 0.68869 0.32766 0.0
H761 H 0.64937 0.71986 0.30968 0.0
H762 H 0.66178 0.74026 0.97288 0.0
C763 C 0.64634 0.80318 0.99413 0.0
C764 C 0.63563 0.76718 0.19236 0.0
C765 C 0.64634 0.82113 0.98622 0.0
C766 C 0.64721 0.69425 0.24379 0.0
C767 C 0.64719 0.71217 0.23385 0.0
C768 C 0.65428 0.74761 0.03398 0.0
C769 C 0.64565 0.79494 0.10107 0.0
C770 C 0.64546 0.7757 0.10821 0.0
C771 C 0.64461 0.72007 0.12739 0.0
C772 C 0.64458 0.73919 0.1187 0.0
H773 H 0.64399 0.83087 0.26962 0.0
H774 H 0.64461 0.79943 0.2842 0.0
H775 H 0.66281 0.77163 0.96451 0.0
H776 H 0.63973 0.68383 0.96522 0.0
H777 H 0.64002 0.71538 0.94738 0.0
C778 C 0.69702 0.37869 0.76145 0.0
C779 C 0.68681 0.37745 0.86069 0.0
C780 C 0.71504 0.37785 0.76748 0.0
C781 C 0.75182 0.38304 0.96698 0.0
H782 H 0.77727 0.35947 0.72782 0.0
C783 C 0.82531 0.37153 -0.00241 0.0
C784 C 0.83538 0.37431 0.89904 0.0
C785 C 0.80728 0.3714 0.9919 0.0
C786 C 0.77038 0.36626 0.7946 0.0
H787 H 0.68765 0.37427 0.04456 0.0
H788 H 0.71924 0.37257 0.05526 0.0
H789 H 0.74574 0.35983 0.7232 0.0
H790 H 0.83426 0.37884 0.71643 0.0
H791 H 0.8026 0.37861 0.70632 0.0
H792 H 0.77648 0.3894 0.03854 0.0
C793 C 0.71324 0.37442 0.97259 0.0
C794 C 0.75227 0.36647 0.79211 0.0
C795 C 0.69512 0.37531 0.96654 0.0
C796 C 0.82691 0.37663 0.79388 0.0
C797 C 0.80877 0.37645 0.78812 0.0
C798 C 0.76992 0.38277 0.96966 0.0
C799 C 0.72343 0.37567 0.87293 0.0
C800 C 0.74273 0.37492 0.87803 0.0
C801 C 0.79873 0.37402 0.88747 0.0
C802 C 0.77944 0.3744 0.88345 0.0
H803 H 0.69113 0.38045 0.67833 0.0
H804 H 0.72239 0.3792 0.68919 0.0
H805 H 0.74498 0.38993 0.0335 0.0
H806 H 0.83134 0.36959 0.08009 0.0
H807 H 0.80001 0.36917 0.0697 0.0
C808 C 0.87297 0.6962 0.52028 0.0
C809 C 0.87952 0.68582 0.60896 0.0
C810 C 0.87365 0.71414 0.52695 0.0
C811 C 0.89655 0.74982 0.67312 0.0
H812 H 0.85927 0.7774 0.54756 0.0
C813 C 0.89238 0.8234 0.73822 0.0
C814 C 0.88711 0.83377 0.6458 0.0
C815 C 0.89166 0.80546 0.73155 0.0
C816 C 0.86989 0.76989 0.58168 0.0
H817 H 0.89168 0.68634 0.77564 0.0
H818 H 0.8926 0.71783 0.78854 0.0
H819 H 0.85702 0.74607 0.54693 0.0
H820 H 0.87705 0.83326 0.47313 0.0
H821 H 0.87574 0.80171 0.46136 0.0
H822 H 0.90932 0.7737 0.70893 0.0
C823 C 0.88718 0.71199 0.71265 0.0
C824 C 0.8686 0.75189 0.58155 0.0
C825 C 0.88653 0.69393 0.70579 0.0
C826 C 0.8812 0.82567 0.54579 0.0
C827 C 0.88036 0.80761 0.5394 0.0
C828 C 0.89779 0.76782 0.67375 0.0
C829 C 0.88082 0.72234 0.62283 0.0
C830 C 0.88194 0.74158 0.627 0.0
C831 C 0.88558 0.79729 0.63243 0.0
C832 C 0.88448 0.7781 0.62801 0.0
H833 H 0.86752 0.69047 0.44405 0.0
H834 H 0.86889 0.72158 0.45522 0.0
H835 H 0.90722 0.74236 0.70693 0.0
H836 H 0.89701 0.82915 0.81675 0.0
H837 H 0.89557 0.79798 0.80534 0.0
C838 C 0.82722 0.13547 0.44529 0.0
C839 C 0.83556 0.13354 0.33932 0.0
C840 C 0.8091 0.1362 0.45142 0.0
C841 C 0.77018 0.14461 0.27228 0.0
H842 H 0.74586 0.12094 0.51581 0.0
C843 C 0.69539 0.13582 0.27546 0.0
C844 C 0.68706 0.13771 0.38152 0.0
C845 C 0.71353 0.1356 0.26888 0.0
C846 C 0.75245 0.12778 0.44778 0.0
H847 H 0.83132 0.1307 0.15687 0.0
H848 H 0.80002 0.13174 0.16787 0.0
H849 H 0.77736 0.12024 0.5101 0.0
H850 H 0.69134 0.14123 0.56343 0.0
H851 H 0.72264 0.14102 0.55163 0.0
H852 H 0.74524 0.15209 0.20979 0.0
C853 C 0.80737 0.133 0.24616 0.0
C854 C 0.77054 0.1274 0.4447 0.0
C855 C 0.82538 0.13229 0.24007 0.0
C856 C 0.69726 0.13962 0.48022 0.0
C857 C 0.71528 0.13939 0.47369 0.0
C858 C 0.75208 0.14497 0.27529 0.0
C859 C 0.79894 0.13503 0.3517 0.0
C860 C 0.77966 0.13579 0.35684 0.0
C861 C 0.72369 0.13723 0.36826 0.0
C862 C 0.74297 0.13659 0.36319 0.0
H863 H 0.83467 0.13651 0.5233 0.0
H864 H 0.80306 0.13792 0.53413 0.0
H865 H 0.77676 0.15144 0.20423 0.0
H866 H 0.68793 0.1343 0.19786 0.0
H867 H 0.71958 0.1338 0.18628 0.0
C868 C 0.13741 0.32442 0.69145 0.0
C869 C 0.13056 0.33247 0.59387 0.0
C870 C 0.13851 0.30639 0.69748 0.0
C871 C 0.13863 0.26751 0.51088 0.0
H872 H 0.13004 0.24313 0.79437 0.0
C873 C 0.13324 0.19278 0.53922 0.0
C874 C 0.1412 0.18493 0.63389 0.0
C875 C 0.13205 0.2108 0.53208 0.0
C876 C 0.13263 0.24975 0.71466 0.0
H877 H 0.11898 0.32784 0.4278 0.0
H878 H 0.12054 0.29668 0.43939 0.0
H879 H 0.12765 0.27443 0.78932 0.0
H880 H 0.15455 0.18996 0.79364 0.0
H881 H 0.15255 0.2211 0.78066 0.0
H882 H 0.14349 0.24277 0.43621 0.0
C883 C 0.1255 0.30418 0.51015 0.0
C884 C 0.1313 0.26773 0.71188 0.0
C885 C 0.12449 0.32211 0.50393 0.0
C886 C 0.14823 0.1955 0.71972 0.0
C887 C 0.14698 0.21341 0.71281 0.0
C888 C 0.13989 0.24953 0.51359 0.0
C889 C 0.13272 0.29604 0.60623 0.0
C890 C 0.13429 0.27687 0.60995 0.0
C891 C 0.13871 0.22131 0.61972 0.0
C892 C 0.13697 0.24042 0.6156 0.0
H893 H 0.14226 0.33204 0.76199 0.0
H894 H 0.14428 0.30059 0.77252 0.0
H895 H 0.14133 0.2741 0.43122 0.0
H896 H 0.12766 0.18502 0.47181 0.0
H897 H 0.12553 0.21648 0.45937 0.0
C898 C 0.19565 0.87658 0.24028 0.0
C899 C 0.18566 0.87746 0.34065 0.0
C900 C 0.21369 0.8763 0.24522 0.0
C901 C 0.2505 0.88747 0.43267 0.0
H902 H 0.27655 0.8593 0.21969 0.0
C903 C 0.32423 0.87863 0.47155 0.0
C904 C 0.33425 0.87897 0.37114 0.0
C905 C 0.30621 0.87823 0.46648 0.0
C906 C 0.26948 0.86739 0.27883 0.0
H907 H 0.1869 0.87855 0.52546 0.0
H908 H 0.21855 0.87784 0.53444 0.0
H909 H 0.24501 0.85844 0.21742 0.0
H910 H 0.33306 0.879 0.18615 0.0
H911 H 0.30138 0.87831 0.17708 0.0
H912 H 0.27497 0.89637 0.4943 0.0
C913 C 0.21234 0.87759 0.45154 0.0
C914 C 0.25137 0.86689 0.27775 0.0
C915 C 0.1942 0.87789 0.44656 0.0
C916 C 0.32574 0.87873 0.26506 0.0
C917 C 0.30759 0.87827 0.25996 0.0
C918 C 0.2686 0.88793 0.43393 0.0
C919 C 0.22232 0.87684 0.35073 0.0
C920 C 0.24163 0.87695 0.35452 0.0
C921 C 0.29761 0.87813 0.36083 0.0
C922 C 0.27833 0.87789 0.3571 0.0
H923 H 0.18956 0.87629 0.157 0.0
H924 H 0.22087 0.87602 0.16576 0.0
H925 H 0.24348 0.89563 0.49158 0.0
H926 H 0.3303 0.87872 0.55495 0.0
H927 H 0.29899 0.87783 0.5458 0.0
C928 C 0.20327 0.12198 0.6347 0.0
C929 C 0.18929 0.12421 0.71025 0.0
C930 C 0.22026 0.1216 0.67498 0.0
C931 C 0.2473 0.1364 0.91344 0.0
H932 H 0.28094 0.10441 0.78924 0.0
C933 C 0.31643 0.13199 0.09443 0.0
C934 C 0.33027 0.12933 0.01842 0.0
C935 C 0.29932 0.13078 0.05729 0.0
C936 C 0.27179 0.11359 0.82378 0.0
H937 H 0.18224 0.12754 0.8881 0.0
H938 H 0.21208 0.12694 0.95892 0.0
H939 H 0.25085 0.10286 0.72737 0.0
H940 H 0.3369 0.12325 0.84314 0.0
H941 H 0.3069 0.12145 0.77718 0.0
H942 H 0.26819 0.14736 0.00829 0.0
C943 C 0.20981 0.12555 0.86808 0.0
C944 C 0.2545 0.11265 0.78865 0.0
C945 C 0.19272 0.12579 0.82771 0.0
C946 C 0.32654 0.12535 0.90391 0.0
C947 C 0.30933 0.12422 0.86638 0.0
C948 C 0.26459 0.13741 0.94808 0.0
C949 C 0.22379 0.12356 0.79195 0.0
C950 C 0.24204 0.12405 0.83296 0.0
C951 C 0.29548 0.12699 0.94267 0.0
C952 C 0.27709 0.12601 0.90388 0.0
H953 H 0.20113 0.12069 0.54365 0.0
H954 H 0.23069 0.12024 0.61379 0.0
H955 H 0.23813 0.14558 0.94774 0.0
H956 H 0.31876 0.13493 0.18355 0.0
H957 H 0.28908 0.13263 0.11923 0.0
C958 C 0.12552 0.82483 0.16325 0.0
C959 C 0.12391 0.8277 0.28131 0.0
C960 C 0.12501 0.80801 0.11937 0.0
C961 C 0.11122 0.76336 0.18631 0.0
H962 H 0.14747 0.75032 0.97472 0.0
C963 C 0.12414 0.69196 0.05886 0.0
C964 C 0.12965 0.68882 0.94634 0.0
C965 C 0.12252 0.70892 0.0993 0.0
C966 C 0.13706 0.75374 0.03231 0.0
H967 H 0.11985 0.81522 0.44523 0.0
H968 H 0.11881 0.7861 0.36878 0.0
H969 H 0.14556 0.77997 0.04059 0.0
H970 H 0.13712 0.70107 0.78692 0.0
H971 H 0.13383 0.73029 0.85554 0.0
H972 H 0.1026 0.73715 0.17745 0.0
C973 C 0.1205 0.79676 0.30999 0.0
C974 C 0.136 0.77079 0.07012 0.0
C975 C 0.12121 0.81348 0.35383 0.0
C976 C 0.13308 0.70297 0.87466 0.0
C977 C 0.13129 0.71981 0.91439 0.0
C978 C 0.11217 0.7463 0.14763 0.0
C979 C 0.12263 0.79378 0.1925 0.0
C980 C 0.12311 0.77581 0.14789 0.0
C981 C 0.12623 0.72309 0.02769 0.0
C982 C 0.12513 0.74123 0.07014 0.0
H983 H 0.12763 0.8355 0.10519 0.0
H984 H 0.12656 0.80614 0.02823 0.0
H985 H 0.10105 0.76685 0.24568 0.0
H986 H 0.12142 0.68134 0.11622 0.0
H987 H 0.11872 0.7109 0.18738 0.0
C988 C 0.70497 0.89475 0.09756 0.0
C989 C 0.69086 0.89485 0.02168 0.0
C990 C 0.72193 0.89598 0.05719 0.0
C991 C 0.74851 0.88889 0.79893 0.0
H992 H 0.78304 0.91447 0.96904 0.0
C993 C 0.81774 0.89817 0.62709 0.0
C994 C 0.83159 0.89649 0.70426 0.0
C995 C 0.80068 0.89884 0.66591 0.0
C996 C 0.7736 0.90712 0.92118 0.0
H997 H 0.6836 0.89662 0.84327 0.0
H998 H 0.71333 0.89897 0.77229 0.0
H999 H 0.753 0.91457 0.03307 0.0
H1000 H 0.83827 0.89451 0.88359 0.0
H1001 H 0.80831 0.89558 0.95187 0.0
H1002 H 0.7691 0.88138 0.68735 0.0
C1003 C 0.71121 0.89771 0.8634 0.0
C1004 C 0.75635 0.90719 0.95776 0.0
C1005 C 0.69416 0.89648 0.90402 0.0
C1006 C 0.82792 0.89583 0.82188 0.0
C1007 C 0.81075 0.8965 0.86093 0.0
C1008 C 0.76574 0.88884 0.76231 0.0
C1009 C 0.72533 0.89739 0.93959 0.0
C1010 C 0.74357 0.89801 0.89743 0.0
C1011 C 0.7969 0.89783 0.78317 0.0
C1012 C 0.77854 0.89792 0.82303 0.0
H1013 H 0.70298 0.89347 0.1888 0.0
H1014 H 0.73241 0.8954 0.1184 0.0
H1015 H 0.73913 0.88142 0.75144 0.0
H1016 H 0.82004 0.89886 0.53588 0.0
H1017 H 0.79041 0.90022 0.60365 0.0
C1018 C 0.90109 0.19126 0.17422 0.0
C1019 C 0.89128 0.1878 0.27285 0.0
C1020 C 0.90352 0.20829 0.1366 0.0
C1021 C 0.90182 0.25363 0.23869 0.0
H1022 H 0.89723 0.26498 0.91774 0.0
C1023 C 0.89576 0.32421 0.07571 0.0
C1024 C 0.90314 0.32827 0.96922 0.0
C1025 C 0.89557 0.30713 0.11538 0.0
C1026 C 0.89883 0.26206 0.0076 0.0
H1027 H 0.87627 0.19964 0.40864 0.0
H1028 H 0.88043 0.22901 0.34324 0.0
H1029 H 0.89483 0.23507 0.9791 0.0
H1030 H 0.91685 0.31764 0.82365 0.0
H1031 H 0.91691 0.28816 0.8936 0.0
H1032 H 0.90581 0.28059 0.26744 0.0
C1033 C 0.88644 0.21867 0.29544 0.0
C1034 C 0.89743 0.24485 0.04272 0.0
C1035 C 0.88395 0.20174 0.33245 0.0
C1036 C 0.9109 0.31498 0.9056 0.0
C1037 C 0.91081 0.29799 0.94538 0.0
C1038 C 0.90329 0.27083 0.20356 0.0
C1039 C 0.8963 0.22223 0.19734 0.0
C1040 C 0.89875 0.24042 0.15885 0.0
C1041 C 0.90284 0.29372 0.04971 0.0
C1042 C 0.90171 0.27533 0.08754 0.0
H1043 H 0.90695 0.18084 0.12641 0.0
H1044 H 0.91126 0.21058 0.06094 0.0
H1045 H 0.90317 0.25067 0.3287 0.0
H1046 H 0.8896 0.33412 0.12654 0.0
H1047 H 0.8892 0.30436 0.19574 0.0
C1048 C 0.20297 0.38358 0.59833 0.0
C1049 C 0.18898 0.38733 0.52554 0.0
C1050 C 0.22001 0.38494 0.55975 0.0
C1051 C 0.24669 0.38465 0.29931 0.0
H1052 H 0.28159 0.40461 0.49695 0.0
C1053 C 0.31647 0.39557 0.14172 0.0
C1054 C 0.33018 0.39237 0.21777 0.0
C1055 C 0.29935 0.39576 0.17991 0.0
C1056 C 0.27208 0.3988 0.44116 0.0
H1057 H 0.18205 0.39545 0.35439 0.0
H1058 H 0.21198 0.39775 0.28631 0.0
H1059 H 0.25151 0.40363 0.55972 0.0
H1060 H 0.33659 0.38709 0.39452 0.0
H1061 H 0.30658 0.3871 0.46144 0.0
H1062 H 0.26721 0.37952 0.18156 0.0
C1063 C 0.20965 0.39369 0.37356 0.0
C1064 C 0.2548 0.39829 0.47703 0.0
C1065 C 0.19251 0.39245 0.4126 0.0
C1066 C 0.32634 0.38965 0.3338 0.0
C1067 C 0.30912 0.38972 0.37211 0.0
C1068 C 0.26398 0.38507 0.2637 0.0
C1069 C 0.22361 0.39001 0.44698 0.0
C1070 C 0.24189 0.39116 0.40669 0.0
C1071 C 0.29537 0.39261 0.29529 0.0
C1072 C 0.27694 0.39215 0.33407 0.0
H1073 H 0.2008 0.37958 0.68588 0.0
H1074 H 0.2304 0.38175 0.6181 0.0
H1075 H 0.23714 0.37883 0.24378 0.0
H1076 H 0.31892 0.3979 0.05188 0.0
H1077 H 0.28923 0.39844 0.11856 0.0
C1078 C 0.39073 0.81422 0.3684 0.0
C1079 C 0.39137 0.82841 0.44269 0.0
C1080 C 0.39219 0.79743 0.41003 0.0
C1081 C 0.40448 0.77163 0.66765 0.0
H1082 H 0.37708 0.73653 0.51656 0.0
C1083 C 0.38959 0.70488 0.86495 0.0
C1084 C 0.39121 0.69031 0.79432 0.0
C1085 C 0.39115 0.72148 0.81998 0.0
C1086 C 0.38497 0.74613 0.55876 0.0
H1087 H 0.39434 0.83612 0.61923 0.0
H1088 H 0.39623 0.80667 0.69351 0.0
H1089 H 0.37643 0.76601 0.44597 0.0
H1090 H 0.39588 0.68179 0.62083 0.0
H1091 H 0.39821 0.711 0.54114 0.0
H1092 H 0.41236 0.75166 0.78344 0.0
C1093 C 0.39501 0.80852 0.60218 0.0
C1094 C 0.38467 0.76309 0.51819 0.0
C1095 C 0.39385 0.82543 0.55992 0.0
C1096 C 0.39457 0.69275 0.67736 0.0
C1097 C 0.39584 0.70945 0.63181 0.0
C1098 C 0.40456 0.75469 0.70922 0.0
C1099 C 0.39401 0.79425 0.52777 0.0
C1100 C 0.39443 0.77612 0.57182 0.0
C1101 C 0.39413 0.72399 0.70283 0.0
C1102 C 0.3948 0.74176 0.65525 0.0
H1103 H 0.38911 0.81607 0.27724 0.0
H1104 H 0.39189 0.78693 0.34925 0.0
H1105 H 0.4124 0.78114 0.71029 0.0
H1106 H 0.38709 0.70348 0.95559 0.0
H1107 H 0.38961 0.7324 0.87664 0.0
C1108 C 0.70501 0.62272 0.15015 0.0
C1109 C 0.69087 0.62332 0.22584 0.0
C1110 C 0.72194 0.62197 0.19111 0.0
C1111 C 0.74841 0.63243 0.443 0.0
H1112 H 0.78287 0.60416 0.2917 0.0
C1113 C 0.81761 0.62596 0.62012 0.0
C1114 C 0.83149 0.62578 0.54237 0.0
C1115 C 0.80054 0.62486 0.58202 0.0
C1116 C 0.77347 0.61228 0.33411 0.0
H1117 H 0.68352 0.62334 0.40454 0.0
H1118 H 0.71326 0.62201 0.47664 0.0
H1119 H 0.75285 0.60322 0.22779 0.0
H1120 H 0.83824 0.62411 0.36302 0.0
H1121 H 0.80829 0.62242 0.29577 0.0
H1122 H 0.769 0.64167 0.54833 0.0
C1123 C 0.71115 0.62225 0.38517 0.0
C1124 C 0.75623 0.61171 0.2977 0.0
C1125 C 0.69411 0.62291 0.34398 0.0
C1126 C 0.82786 0.62425 0.42515 0.0
C1127 C 0.81068 0.6232 0.38677 0.0
C1128 C 0.76565 0.63304 0.47918 0.0
C1129 C 0.72528 0.62185 0.30906 0.0
C1130 C 0.74348 0.62182 0.35143 0.0
C1131 C 0.79679 0.62363 0.46485 0.0
C1132 C 0.77843 0.62299 0.42521 0.0
H1133 H 0.70304 0.623 0.05854 0.0
H1134 H 0.73247 0.62192 0.12997 0.0
H1135 H 0.73903 0.64061 0.48503 0.0
H1136 H 0.81988 0.62696 0.71118 0.0
H1137 H 0.79026 0.62486 0.64492 0.0
C1138 C 0.62625 0.19125 0.56589 0.0
C1139 C 0.62072 0.18776 0.45389 0.0
C1140 C 0.62607 0.20816 0.6082 0.0
C1141 C 0.62579 0.25362 0.50758 0.0
H1142 H 0.61453 0.26371 0.82316 0.0
C1143 C 0.62149 0.32367 0.6831 0.0
C1144 C 0.62908 0.32643 0.79066 0.0
C1145 C 0.61944 0.30687 0.64068 0.0
C1146 C 0.61782 0.26111 0.73489 0.0
H1147 H 0.61002 0.19926 0.3003 0.0
H1148 H 0.6094 0.22847 0.37439 0.0
H1149 H 0.6128 0.23412 0.75434 0.0
H1150 H 0.64048 0.31364 0.93762 0.0
H1151 H 0.637 0.28467 0.86386 0.0
H1152 H 0.63088 0.28061 0.4884 0.0
C1153 C 0.61428 0.21829 0.4289 0.0
C1154 C 0.61687 0.24411 0.6955 0.0
C1155 C 0.61453 0.20147 0.38666 0.0
C1156 C 0.63453 0.31206 0.85454 0.0
C1157 C 0.63242 0.29536 0.81259 0.0
C1158 C 0.6267 0.27063 0.54693 0.0
C1159 C 0.6203 0.22194 0.53954 0.0
C1160 C 0.62094 0.24011 0.58145 0.0
C1161 C 0.62483 0.2925 0.7053 0.0
C1162 C 0.62288 0.27457 0.66136 0.0
H1163 H 0.63116 0.181 0.61975 0.0
H1164 H 0.63093 0.21048 0.69353 0.0
H1165 H 0.62929 0.25103 0.41966 0.0
H1166 H 0.61714 0.33444 0.6318 0.0
H1167 H 0.61344 0.30511 0.55791 0.0
loop_
_geom_bond_atom_site_label_1
_geom_bond_atom_site_label_2
_geom_bond_distance
_geom_bond_site_symmetry_2
_ccdc_geom_bond_type
Mg0 O7 2.141 . S
Mg0 O8 2.048 . S
Mg0 O9 2.048 . S
Mg0 O12 2.141 . S
C1 O2 1.313 . S
C1 O8 1.195 . S
O2 C1 1.313 . S
C3 O4 1.245 . S
C3 O12 1.289 . S
O4 C3 1.245 . S
C5 O6 1.245 1_554 S
C5 O7 1.289 . S
O6 C5 1.245 1_556 S
O7 Mg0 2.141 . S
O7 C5 1.289 . S
O8 Mg0 2.048 . S
O8 C1 1.195 . S
O9 Mg0 2.048 . S
O9 C10 1.195 . S
C10 O9 1.195 . S
C10 O11 1.313 . S
O11 C10 1.313 . S
O12 Mg0 2.141 . S
O12 C3 1.289 . S
Mg13 O20 2.141 . S
Mg13 O21 2.048 . S
Mg13 O22 2.048 . S
Mg13 O25 2.141 . S
C14 O15 1.313 . S
C14 O21 1.195 . S
O15 C14 1.313 . S
C16 O17 1.245 . S
C16 O25 1.289 . S
O17 C16 1.245 . S
C18 O19 1.245 . S
C18 O20 1.289 . S
O19 C18 1.245 . S
O20 Mg13 2.141 . S
O20 C18 1.289 . S
O21 Mg13 2.048 . S
O21 C14 1.195 . S
O22 Mg13 2.048 . S
O22 C23 1.195 . S
C23 O22 1.195 . S
C23 O24 1.313 . S
O24 C23 1.313 . S
O25 Mg13 2.141 . S
O25 C16 1.289 . S
Mg26 O33 2.141 . S
Mg26 O34 2.048 . S
Mg26 O35 2.048 . S
Mg26 O38 2.141 . S
C27 O28 1.313 . S
C27 O34 1.195 . S
O28 C27 1.313 . S
C29 O30 1.245 . S
C29 O38 1.289 . S
O30 C29 1.245 . S
C31 O32 1.245 1_554 S
C31 O33 1.289 . S
O32 C31 1.245 1_556 S
O33 Mg26 2.141 . S
O33 C31 1.289 . S
O34 Mg26 2.048 . S
O34 C27 1.195 . S
O35 Mg26 2.048 . S
O35 C36 1.195 . S
C36 O35 1.195 . S
C36 O37 1.313 . S
O37 C36 1.313 . S
O38 Mg26 2.141 . S
O38 C29 1.289 . S
Mg39 O46 2.141 . S
Mg39 O47 2.048 . S
Mg39 O48 2.048 . S
Mg39 O51 2.141 . S
C40 O41 1.313 . S
C40 O47 1.195 . S
O41 C40 1.313 . S
C42 O43 1.245 . S
C42 O51 1.289 . S
O43 C42 1.245 . S
C44 O45 1.245 . S
C44 O46 1.289 . S
O45 C44 1.245 . S
O46 Mg39 2.141 . S
O46 C44 1.289 . S
O47 Mg39 2.048 . S
O47 C40 1.195 . S
O48 Mg39 2.048 . S
O48 C49 1.195 . S
C49 O48 1.195 . S
C49 O50 1.313 . S
O50 C49 1.313 . S
O51 Mg39 2.141 . S
O51 C42 1.289 . S
Mg52 O59 2.141 . S
Mg52 O60 2.048 . S
Mg52 O61 2.048 . S
Mg52 O64 2.141 . S
C53 O54 1.313 . S
C53 O60 1.195 . S
O54 C53 1.313 . S
C55 O56 1.245 . S
C55 O64 1.289 . S
O56 C55 1.245 . S
C57 O58 1.245 . S
C57 O59 1.289 . S
O58 C57 1.245 . S
O59 Mg52 2.141 . S
O59 C57 1.289 . S
O60 Mg52 2.048 . S
O60 C53 1.195 . S
O61 Mg52 2.048 . S
O61 C62 1.195 . S
C62 O61 1.195 . S
C62 O63 1.313 . S
O63 C62 1.313 . S
O64 Mg52 2.141 . S
O64 C55 1.289 . S
Mg65 O72 2.141 . S
Mg65 O73 2.048 . S
Mg65 O74 2.048 . S
Mg65 O77 2.141 . S
C66 O67 1.313 . S
C66 O73 1.195 . S
O67 C66 1.313 . S
C68 O69 1.245 1_556 S
C68 O77 1.289 . S
O69 C68 1.245 1_554 S
C70 O71 1.245 . S
C70 O72 1.289 . S
O71 C70 1.245 . S
O72 Mg65 2.141 . S
O72 C70 1.289 . S
O73 Mg65 2.048 . S
O73 C66 1.195 . S
O74 Mg65 2.048 . S
O74 C75 1.195 . S
C75 O74 1.195 . S
C75 O76 1.313 1_556 S
O76 C75 1.313 1_554 S
O77 Mg65 2.141 . S
O77 C68 1.289 . S
Mg78 O85 2.141 . S
Mg78 O86 2.048 . S
Mg78 O87 2.048 . S
Mg78 O90 2.141 . S
C79 O80 1.313 . S
C79 O86 1.195 . S
O80 C79 1.313 . S
C81 O82 1.245 . S
C81 O90 1.289 . S
O82 C81 1.245 . S
C83 O84 1.245 . S
C83 O85 1.289 . S
O84 C83 1.245 . S
O85 Mg78 2.141 . S
O85 C83 1.289 . S
O86 Mg78 2.048 . S
O86 C79 1.195 . S
O87 Mg78 2.048 . S
O87 C88 1.195 . S
C88 O87 1.195 . S
C88 O89 1.313 . S
O89 C88 1.313 . S
O90 Mg78 2.141 . S
O90 C81 1.289 . S
Mg91 O98 2.141 . S
Mg91 O99 2.048 . S
Mg91 O100 2.048 . S
Mg91 O103 2.141 . S
C92 O93 1.313 . S
C92 O99 1.195 . S
O93 C92 1.313 . S
C94 O95 1.245 1_556 S
C94 O103 1.289 . S
O95 C94 1.245 1_554 S
C96 O97 1.245 . S
C96 O98 1.289 . S
O97 C96 1.245 . S
O98 Mg91 2.141 . S
O98 C96 1.289 . S
O99 Mg91 2.048 . S
O99 C92 1.195 . S
O100 Mg91 2.048 . S
O100 C101 1.195 . S
C101 O100 1.195 . S
C101 O102 1.313 1_556 S
O102 C101 1.313 1_554 S
O103 Mg91 2.141 . S
O103 C94 1.289 . S
Mg104 O111 2.141 . S
Mg104 O112 2.048 . S
Mg104 O113 2.048 . S
Mg104 O116 2.141 . S
C105 O106 1.313 . S
C105 O112 1.195 . S
O106 C105 1.313 . S
C107 O108 1.245 . S
C107 O116 1.289 . S
O108 C107 1.245 . S
C109 O110 1.245 . S
C109 O111 1.289 . S
O110 C109 1.245 . S
O111 Mg104 2.141 . S
O111 C109 1.289 . S
O112 Mg104 2.048 . S
O112 C105 1.195 . S
O113 Mg104 2.048 . S
O113 C114 1.195 . S
C114 O113 1.195 . S
C114 O115 1.313 . S
O115 C114 1.313 . S
O116 Mg104 2.141 . S
O116 C107 1.289 . S
Mg117 O124 2.141 . S
Mg117 O125 2.048 . S
Mg117 O126 2.048 . S
Mg117 O129 2.141 . S
C118 O119 1.313 . S
C118 O125 1.195 . S
O119 C118 1.313 . S
C120 O121 1.245 . S
C120 O129 1.289 . S
O121 C120 1.245 . S
C122 O123 1.245 . S
C122 O124 1.289 . S
O123 C122 1.245 . S
O124 Mg117 2.141 . S
O124 C122 1.289 . S
O125 Mg117 2.048 . S
O125 C118 1.195 . S
O126 Mg117 2.048 . S
O126 C127 1.195 . S
C127 O126 1.195 . S
C127 O128 1.313 . S
O128 C127 1.313 . S
O129 Mg117 2.141 . S
O129 C120 1.289 . S
Mg130 O137 2.141 . S
Mg130 O138 2.048 . S
Mg130 O139 2.048 . S
Mg130 O142 2.141 . S
C131 O132 1.313 . S
C131 O138 1.195 . S
O132 C131 1.313 . S
C133 O134 1.245 . S
C133 O142 1.289 . S
O134 C133 1.245 . S
C135 O136 1.245 . S
C135 O137 1.289 . S
O136 C135 1.245 . S
O137 Mg130 2.141 . S
O137 C135 1.289 . S
O138 Mg130 2.048 . S
O138 C131 1.195 . S
O139 Mg130 2.048 . S
O139 C140 1.195 . S
C140 O139 1.195 . S
C140 O141 1.313 . S
O141 C140 1.313 . S
O142 Mg130 2.141 . S
O142 C133 1.289 . S
Mg143 O150 2.141 . S
Mg143 O151 2.048 . S
Mg143 O152 2.048 . S
Mg143 O155 2.141 . S
C144 O145 1.313 . S
C144 O151 1.195 . S
O145 C144 1.313 . S
C146 O147 1.245 . S
C146 O155 1.289 . S
O147 C146 1.245 . S
C148 O149 1.245 . S
C148 O150 1.289 . S
O149 C148 1.245 . S
O150 Mg143 2.141 . S
O150 C148 1.289 . S
O151 Mg143 2.048 . S
O151 C144 1.195 . S
O152 Mg143 2.048 . S
O152 C153 1.195 . S
C153 O152 1.195 . S
C153 O154 1.313 . S
O154 C153 1.313 . S
O155 Mg143 2.141 . S
O155 C146 1.289 . S
Mg156 O163 2.141 . S
Mg156 O164 2.048 . S
Mg156 O165 2.048 . S
Mg156 O168 2.141 . S
C157 O158 1.313 . S
C157 O164 1.195 . S
O158 C157 1.313 . S
C159 O160 1.245 . S
C159 O168 1.289 . S
O160 C159 1.245 . S
C161 O162 1.245 . S
C161 O163 1.289 . S
O162 C161 1.245 . S
O163 Mg156 2.141 . S
O163 C161 1.289 . S
O164 Mg156 2.048 . S
O164 C157 1.195 . S
O165 Mg156 2.048 . S
O165 C166 1.195 . S
C166 O165 1.195 . S
C166 O167 1.313 . S
O167 C166 1.313 . S
O168 Mg156 2.141 . S
O168 C159 1.289 . S
Mg169 O176 2.141 . S
Mg169 O177 2.048 . S
Mg169 O178 2.048 . S
Mg169 O181 2.141 . S
C170 O171 1.313 . S
C170 O177 1.195 . S
O171 C170 1.313 . S
C172 O173 1.245 . S
C172 O181 1.289 . S
O173 C172 1.245 . S
C174 O175 1.245 . S
C174 O176 1.289 . S
O175 C174 1.245 . S
O176 Mg169 2.141 . S
O176 C174 1.289 . S
O177 Mg169 2.048 . S
O177 C170 1.195 . S
O178 Mg169 2.048 . S
O178 C179 1.195 . S
C179 O178 1.195 . S
C179 O180 1.313 . S
O180 C179 1.313 . S
O181 Mg169 2.141 . S
O181 C172 1.289 . S
Mg182 O189 2.141 . S
Mg182 O190 2.048 . S
Mg182 O191 2.048 . S
Mg182 O194 2.141 . S
C183 O184 1.313 . S
C183 O190 1.195 . S
O184 C183 1.313 . S
C185 O186 1.245 . S
C185 O194 1.289 . S
O186 C185 1.245 . S
C187 O188 1.245 . S
C187 O189 1.289 . S
O188 C187 1.245 . S
O189 Mg182 2.141 . S
O189 C187 1.289 . S
O190 Mg182 2.048 . S
O190 C183 1.195 . S
O191 Mg182 2.048 . S
O191 C192 1.195 . S
C192 O191 1.195 . S
C192 O193 1.313 . S
O193 C192 1.313 . S
O194 Mg182 2.141 . S
O194 C185 1.289 . S
Mg195 O202 2.141 . S
Mg195 O203 2.048 . S
Mg195 O204 2.048 . S
Mg195 O207 2.141 . S
C196 O197 1.313 . S
C196 O203 1.195 . S
O197 C196 1.313 . S
C198 O199 1.245 . S
C198 O207 1.289 . S
O199 C198 1.245 . S
C200 O201 1.245 . S
C200 O202 1.289 . S
O201 C200 1.245 . S
O202 Mg195 2.141 . S
O202 C200 1.289 . S
O203 Mg195 2.048 . S
O203 C196 1.195 . S
O204 Mg195 2.048 . S
O204 C205 1.195 . S
C205 O204 1.195 . S
C205 O206 1.313 . S
O206 C205 1.313 . S
O207 Mg195 2.141 . S
O207 C198 1.289 . S
C208 C209 1.349 . S
C208 C210 1.327 . S
C208 H233 0.950 . S
C209 C208 1.349 . S
C209 C225 1.349 . S
C210 C208 1.327 . S
C210 C229 1.429 . S
C210 H234 0.950 . S
C211 C228 1.574 1_565 S
C211 C230 1.368 . S
C211 H235 0.949 . S
H212 C216 0.949 . S
C213 C214 1.349 . S
C213 C215 1.327 . S
C213 H236 0.950 . S
C214 C213 1.349 . S
C214 C226 1.349 . S
C215 C213 1.327 . S
C215 C231 1.429 . S
C215 H237 0.950 . S
C216 H212 0.949 . S
C216 C224 1.574 1_545 S
C216 C232 1.368 . S
H217 C225 0.950 . S
H218 C223 0.950 . S
H219 C224 0.949 . S
H220 C226 0.950 . S
H221 C227 0.950 . S
H222 C228 0.949 . S
C223 H218 0.950 . S
C223 C225 1.327 . S
C223 C229 1.429 . S
C224 C216 1.574 1_565 S
C224 H219 0.949 . S
C224 C230 1.368 . S
C225 C209 1.349 . S
C225 H217 0.950 . S
C225 C223 1.327 . S
C226 C214 1.349 . S
C226 H220 0.950 . S
C226 C227 1.327 . S
C227 H221 0.950 . S
C227 C226 1.327 . S
C227 C231 1.429 . S
C228 C211 1.574 1_545 S
C228 H222 0.949 . S
C228 C232 1.368 . S
C229 C210 1.429 . S
C229 C223 1.429 . S
C229 C230 1.523 . S
C230 C211 1.368 . S
C230 C224 1.368 . S
C230 C229 1.523 . S
C231 C215 1.429 . S
C231 C227 1.429 . S
C231 C232 1.523 . S
C232 C216 1.368 . S
C232 C228 1.368 . S
C232 C231 1.523 . S
H233 C208 0.950 . S
H234 C210 0.950 . S
H235 C211 0.949 . S
H236 C213 0.950 . S
H237 C215 0.950 . S
C238 C239 1.349 . S
C238 C240 1.327 . S
C238 H263 0.950 . S
C239 C238 1.349 . S
C239 C255 1.349 . S
C240 C238 1.327 . S
C240 C259 1.429 . S
C240 H264 0.950 . S
C241 C258 1.574 1_455 S
C241 C260 1.368 . S
C241 H265 0.949 . S
H242 C246 0.949 . S
C243 C244 1.349 . S
C243 C245 1.327 . S
C243 H266 0.950 . S
C244 C243 1.349 . S
C244 C256 1.349 . S
C245 C243 1.327 . S
C245 C261 1.429 . S
C245 H267 0.950 . S
C246 H242 0.949 . S
C246 C254 1.574 1_655 S
C246 C262 1.368 . S
H247 C255 0.950 . S
H248 C253 0.950 . S
H249 C254 0.949 . S
H250 C256 0.950 . S
H251 C257 0.950 . S
H252 C258 0.949 . S
C253 H248 0.950 . S
C253 C255 1.327 . S
C253 C259 1.429 . S
C254 C246 1.574 1_455 S
C254 H249 0.949 . S
C254 C260 1.368 . S
C255 C239 1.349 . S
C255 H247 0.950 . S
C255 C253 1.327 . S
C256 C244 1.349 . S
C256 H250 0.950 . S
C256 C257 1.327 . S
C257 H251 0.950 . S
C257 C256 1.327 . S
C257 C261 1.429 . S
C258 C241 1.574 1_655 S
C258 H252 0.949 . S
C258 C262 1.368 . S
C259 C240 1.429 . S
C259 C253 1.429 . S
C259 C260 1.523 . S
C260 C241 1.368 . S
C260 C254 1.368 . S
C260 C259 1.523 . S
C261 C245 1.429 . S
C261 C257 1.429 . S
C261 C262 1.523 . S
C262 C246 1.368 . S
C262 C258 1.368 . S
C262 C261 1.523 . S
H263 C238 0.950 . S
H264 C240 0.950 . S
H265 C241 0.949 . S
H266 C243 0.950 . S
H267 C245 0.950 . S
C268 C269 1.349 . S
C268 C270 1.327 . S
C268 H293 0.950 . S
C269 C268 1.349 . S
C269 C285 1.349 . S
C270 C268 1.327 . S
C270 C289 1.429 . S
C270 H294 0.950 . S
C271 C288 1.574 1_565 S
C271 C290 1.368 . S
C271 H295 0.949 . S
H272 C276 0.949 . S
C273 C274 1.349 . S
C273 C275 1.327 . S
C273 H296 0.950 . S
C274 C273 1.349 . S
C274 C286 1.349 . S
C275 C273 1.327 . S
C275 C291 1.429 . S
C275 H297 0.950 . S
C276 H272 0.949 . S
C276 C284 1.574 1_545 S
C276 C292 1.368 . S
H277 C285 0.950 . S
H278 C283 0.950 . S
H279 C284 0.949 . S
H280 C286 0.950 . S
H281 C287 0.950 . S
H282 C288 0.949 . S
C283 H278 0.950 . S
C283 C285 1.327 . S
C283 C289 1.429 . S
C284 C276 1.574 1_565 S
C284 H279 0.949 . S
C284 C290 1.368 . S
C285 C269 1.349 . S
C285 H277 0.950 . S
C285 C283 1.327 . S
C286 C274 1.349 . S
C286 H280 0.950 . S
C286 C287 1.327 . S
C287 H281 0.950 . S
C287 C286 1.327 . S
C287 C291 1.429 . S
C288 C271 1.574 1_545 S
C288 H282 0.949 . S
C288 C292 1.368 . S
C289 C270 1.429 . S
C289 C283 1.429 . S
C289 C290 1.523 . S
C290 C271 1.368 . S
C290 C284 1.368 . S
C290 C289 1.523 . S
C291 C275 1.429 . S
C291 C287 1.429 . S
C291 C292 1.523 . S
C292 C276 1.368 . S
C292 C288 1.368 . S
C292 C291 1.523 . S
H293 C268 0.950 . S
H294 C270 0.950 . S
H295 C271 0.949 . S
H296 C273 0.950 . S
H297 C275 0.950 . S
C298 C299 1.349 . S
C298 C300 1.327 . S
C298 H323 0.950 . S
C299 C298 1.349 . S
C299 C315 1.349 . S
C300 C298 1.327 . S
C300 C319 1.429 . S
C300 H324 0.950 . S
C301 C318 1.574 1_455 S
C301 C320 1.368 . S
C301 H325 0.949 . S
H302 C306 0.949 . S
C303 C304 1.349 . S
C303 C305 1.327 . S
C303 H326 0.950 . S
C304 C303 1.349 . S
C304 C316 1.349 . S
C305 C303 1.327 . S
C305 C321 1.429 . S
C305 H327 0.950 . S
C306 H302 0.949 . S
C306 C314 1.574 1_655 S
C306 C322 1.368 . S
H307 C315 0.950 . S
H308 C313 0.950 . S
H309 C314 0.949 . S
H310 C316 0.950 . S
H311 C317 0.950 . S
H312 C318 0.949 . S
C313 H308 0.950 . S
C313 C315 1.327 . S
C313 C319 1.429 . S
C314 C306 1.574 1_455 S
C314 H309 0.949 . S
C314 C320 1.368 . S
C315 C299 1.349 . S
C315 H307 0.950 . S
C315 C313 1.327 . S
C316 C304 1.349 . S
C316 H310 0.950 . S
C316 C317 1.327 . S
C317 H311 0.950 . S
C317 C316 1.327 . S
C317 C321 1.429 . S
C318 C301 1.574 1_655 S
C318 H312 0.949 . S
C318 C322 1.368 . S
C319 C300 1.429 . S
C319 C313 1.429 . S
C319 C320 1.523 . S
C320 C301 1.368 . S
C320 C314 1.368 . S
C320 C319 1.523 . S
C321 C305 1.429 . S
C321 C317 1.429 . S
C321 C322 1.523 . S
C322 C306 1.368 . S
C322 C318 1.368 . S
C322 C321 1.523 . S
H323 C298 0.950 . S
H324 C300 0.950 . S
H325 C301 0.949 . S
H326 C303 0.950 . S
H327 C305 0.950 . S
C328 C329 1.349 1_556 S
C328 C330 1.327 . S
C328 H353 0.950 . S
C329 C328 1.349 1_554 S
C329 C345 1.349 . S
C330 C328 1.327 . S
C330 C349 1.429 1_556 S
C330 H354 0.950 . S
C331 C348 1.574 . S
C331 C350 1.368 . S
C331 H355 0.949 . S
H332 C336 0.949 . S
C333 C334 1.349 1_554 S
C333 C335 1.327 . S
C333 H356 0.950 . S
C334 C333 1.349 1_556 S
C334 C346 1.349 . S
C335 C333 1.327 . S
C335 C351 1.429 1_554 S
C335 H357 0.950 . S
C336 H332 0.949 . S
C336 C344 1.574 . S
C336 C352 1.368 1_556 S
H337 C345 0.950 . S
H338 C343 0.950 . S
H339 C344 0.949 . S
H340 C346 0.950 . S
H341 C347 0.950 . S
H342 C348 0.949 . S
C343 H338 0.950 . S
C343 C345 1.327 . S
C343 C349 1.429 . S
C344 C336 1.574 . S
C344 H339 0.949 . S
C344 C350 1.368 1_556 S
C345 C329 1.349 . S
C345 H337 0.950 . S
C345 C343 1.327 . S
C346 C334 1.349 . S
C346 H340 0.950 . S
C346 C347 1.327 . S
C347 H341 0.950 . S
C347 C346 1.327 . S
C347 C351 1.429 . S
C348 C331 1.574 . S
C348 H342 0.949 . S
C348 C352 1.368 . S
C349 C330 1.429 1_554 S
C349 C343 1.429 . S
C349 C350 1.523 . S
C350 C331 1.368 . S
C350 C344 1.368 1_554 S
C350 C349 1.523 . S
C351 C335 1.429 1_556 S
C351 C347 1.429 . S
C351 C352 1.523 1_556 S
C352 C336 1.368 1_554 S
C352 C348 1.368 . S
C352 C351 1.523 1_554 S
H353 C328 0.950 . S
H354 C330 0.950 . S
H355 C331 0.949 . S
H356 C333 0.950 . S
H357 C335 0.950 . S
C358 C359 1.349 . S
C358 C360 1.327 . S
C358 H383 0.950 . S
C359 C358 1.349 . S
C359 C375 1.349 1_556 S
C360 C358 1.327 . S
C360 C379 1.429 . S
C360 H384 0.950 . S
C361 C378 1.574 . S
C361 C380 1.368 1_554 S
C361 H385 0.949 . S
H362 C366 0.949 . S
C363 C364 1.349 . S
C363 C365 1.327 . S
C363 H386 0.950 . S
C364 C363 1.349 . S
C364 C376 1.349 1_554 S
C365 C363 1.327 . S
C365 C381 1.429 . S
C365 H387 0.950 . S
C366 H362 0.949 . S
C366 C374 1.574 . S
C366 C382 1.368 . S
H367 C375 0.950 . S
H368 C373 0.950 . S
H369 C374 0.949 . S
H370 C376 0.950 . S
H371 C377 0.950 . S
H372 C378 0.949 . S
C373 H368 0.950 . S
C373 C375 1.327 . S
C373 C379 1.429 1_554 S
C374 C366 1.574 . S
C374 H369 0.949 . S
C374 C380 1.368 . S
C375 C359 1.349 1_554 S
C375 H367 0.950 . S
C375 C373 1.327 . S
C376 C364 1.349 1_556 S
C376 H370 0.950 . S
C376 C377 1.327 . S
C377 H371 0.950 . S
C377 C376 1.327 . S
C377 C381 1.429 1_556 S
C378 C361 1.574 . S
C378 H372 0.949 . S
C378 C382 1.368 1_554 S
C379 C360 1.429 . S
C379 C373 1.429 1_556 S
C379 C380 1.523 . S
C380 C361 1.368 1_556 S
C380 C374 1.368 . S
C380 C379 1.523 . S
C381 C365 1.429 . S
C381 C377 1.429 1_554 S
C381 C382 1.523 1_554 S
C382 C366 1.368 . S
C382 C378 1.368 1_556 S
C382 C381 1.523 1_556 S
H383 C358 0.950 . S
H384 C360 0.950 . S
H385 C361 0.949 . S
H386 C363 0.950 . S
H387 C365 0.950 . S
C388 C389 1.349 1_554 S
C388 C390 1.327 . S
C388 H413 0.950 . S
C389 C388 1.349 1_556 S
C389 C405 1.349 . S
C390 C388 1.327 . S
C390 C409 1.429 1_554 S
C390 H414 0.950 . S
C391 C408 1.574 . S
C391 C410 1.368 1_556 S
C391 H415 0.949 . S
H392 C396 0.949 . S
C393 C394 1.349 1_556 S
C393 C395 1.327 . S
C393 H416 0.950 . S
C394 C393 1.349 1_554 S
C394 C406 1.349 . S
C395 C393 1.327 . S
C395 C411 1.429 1_556 S
C395 H417 0.950 . S
C396 H392 0.949 . S
C396 C404 1.574 . S
C396 C412 1.368 . S
H397 C405 0.950 . S
H398 C403 0.950 . S
H399 C404 0.949 . S
H400 C406 0.950 . S
H401 C407 0.950 . S
H402 C408 0.949 . S
C403 H398 0.950 . S
C403 C405 1.327 . S
C403 C409 1.429 . S
C404 C396 1.574 . S
C404 H399 0.949 . S
C404 C410 1.368 . S
C405 C389 1.349 . S
C405 H397 0.950 . S
C405 C403 1.327 . S
C406 C394 1.349 . S
C406 H400 0.950 . S
C406 C407 1.327 . S
C407 H401 0.950 . S
C407 C406 1.327 . S
C407 C411 1.429 . S
C408 C391 1.574 . S
C408 H402 0.949 . S
C408 C412 1.368 1_556 S
C409 C390 1.429 1_556 S
C409 C403 1.429 . S
C409 C410 1.523 1_556 S
C410 C391 1.368 1_554 S
C410 C404 1.368 . S
C410 C409 1.523 1_554 S
C411 C395 1.429 1_554 S
C411 C407 1.429 . S
C411 C412 1.523 . S
C412 C396 1.368 . S
C412 C408 1.368 1_554 S
C412 C411 1.523 . S
H413 C388 0.950 . S
H414 C390 0.950 . S
H415 C391 0.949 . S
H416 C393 0.950 . S
H417 C395 0.950 . S
C418 C419 1.349 . S
C418 C420 1.327 . S
C418 H443 0.950 . S
C419 C418 1.349 . S
C419 C435 1.349 1_554 S
C420 C418 1.327 . S
C420 C439 1.429 . S
C420 H444 0.950 . S
C421 C438 1.574 . S
C421 C440 1.368 . S
C421 H445 0.949 . S
H422 C426 0.949 . S
C423 C424 1.349 . S
C423 C425 1.327 . S
C423 H446 0.950 . S
C424 C423 1.349 . S
C424 C436 1.349 . S
C425 C423 1.327 . S
C425 C441 1.429 . S
C425 H447 0.950 . S
C426 H422 0.949 . S
C426 C434 1.574 . S
C426 C442 1.368 1_554 S
H427 C435 0.950 . S
H428 C433 0.950 . S
H429 C434 0.949 . S
H430 C436 0.950 1_554 S
H431 C437 0.950 1_554 S
H432 C438 0.949 . S
C433 H428 0.950 . S
C433 C435 1.327 . S
C433 C439 1.429 1_556 S
C434 C426 1.574 . S
C434 H429 0.949 . S
C434 C440 1.368 1_554 S
C435 C419 1.349 1_556 S
C435 H427 0.950 . S
C435 C433 1.327 . S
C436 C424 1.349 . S
C436 H430 0.950 1_556 S
C436 C437 1.327 . S
C437 H431 0.950 1_556 S
C437 C436 1.327 . S
C437 C441 1.429 . S
C438 C421 1.574 . S
C438 H432 0.949 . S
C438 C442 1.368 . S
C439 C420 1.429 . S
C439 C433 1.429 1_554 S
C439 C440 1.523 1_554 S
C440 C421 1.368 . S
C440 C434 1.368 1_556 S
C440 C439 1.523 1_556 S
C441 C425 1.429 . S
C441 C437 1.429 . S
C441 C442 1.523 . S
C442 C426 1.368 1_556 S
C442 C438 1.368 . S
C442 C441 1.523 . S
H443 C418 0.950 . S
H444 C420 0.950 . S
H445 C421 0.949 . S
H446 C423 0.950 . S
H447 C425 0.950 . S
C448 C449 1.349 . S
C448 C450 1.327 . S
C448 H473 0.950 . S
C449 C448 1.349 . S
C449 C465 1.349 . S
C450 C448 1.327 . S
C450 C469 1.429 . S
C450 H474 0.950 . S
C451 C468 1.574 . S
C451 C470 1.368 . S
C451 H475 0.949 . S
H452 C456 0.949 . S
C453 C454 1.349 . S
C453 C455 1.327 . S
C453 H476 0.950 . S
C454 C453 1.349 . S
C454 C466 1.349 . S
C455 C453 1.327 . S
C455 C471 1.429 . S
C455 H477 0.950 . S
C456 H452 0.949 . S
C456 C464 1.574 . S
C456 C472 1.368 . S
H457 C465 0.950 . S
H458 C463 0.950 . S
H459 C464 0.949 . S
H460 C466 0.950 . S
H461 C467 0.950 . S
H462 C468 0.949 . S
C463 H458 0.950 . S
C463 C465 1.327 . S
C463 C469 1.429 . S
C464 C456 1.574 . S
C464 H459 0.949 . S
C464 C470 1.368 . S
C465 C449 1.349 . S
C465 H457 0.950 . S
C465 C463 1.327 . S
C466 C454 1.349 . S
C466 H460 0.950 . S
C466 C467 1.327 . S
C467 H461 0.950 . S
C467 C466 1.327 . S
C467 C471 1.429 . S
C468 C451 1.574 . S
C468 H462 0.949 . S
C468 C472 1.368 . S
C469 C450 1.429 . S
C469 C463 1.429 . S
C469 C470 1.523 . S
C470 C451 1.368 . S
C470 C464 1.368 . S
C470 C469 1.523 . S
C471 C455 1.429 . S
C471 C467 1.429 . S
C471 C472 1.523 . S
C472 C456 1.368 . S
C472 C468 1.368 . S
C472 C471 1.523 . S
H473 C448 0.950 . S
H474 C450 0.950 . S
H475 C451 0.949 . S
H476 C453 0.950 . S
H477 C455 0.950 . S
C478 C479 1.349 . S
C478 C480 1.327 . S
C478 H503 0.950 . S
C479 C478 1.349 . S
C479 C495 1.349 . S
C480 C478 1.327 . S
C480 C499 1.429 . S
C480 H504 0.950 . S
C481 C498 1.574 . S
C481 C500 1.368 . S
C481 H505 0.949 . S
H482 C486 0.949 . S
C483 C484 1.349 . S
C483 C485 1.327 . S
C483 H506 0.950 . S
C484 C483 1.349 . S
C484 C496 1.349 . S
C485 C483 1.327 . S
C485 C501 1.429 . S
C485 H507 0.950 . S
C486 H482 0.949 . S
C486 C494 1.574 . S
C486 C502 1.368 . S
H487 C495 0.950 . S
H488 C493 0.950 . S
H489 C494 0.949 . S
H490 C496 0.950 . S
H491 C497 0.950 . S
H492 C498 0.949 . S
C493 H488 0.950 . S
C493 C495 1.327 . S
C493 C499 1.429 . S
C494 C486 1.574 . S
C494 H489 0.949 . S
C494 C500 1.368 . S
C495 C479 1.349 . S
C495 H487 0.950 . S
C495 C493 1.327 . S
C496 C484 1.349 . S
C496 H490 0.950 . S
C496 C497 1.327 . S
C497 H491 0.950 . S
C497 C496 1.327 . S
C497 C501 1.429 . S
C498 C481 1.574 . S
C498 H492 0.949 . S
C498 C502 1.368 . S
C499 C480 1.429 . S
C499 C493 1.429 . S
C499 C500 1.523 . S
C500 C481 1.368 . S
C500 C494 1.368 . S
C500 C499 1.523 . S
C501 C485 1.429 . S
C501 C497 1.429 . S
C501 C502 1.523 . S
C502 C486 1.368 . S
C502 C498 1.368 . S
C502 C501 1.523 . S
H503 C478 0.950 . S
H504 C480 0.950 . S
H505 C481 0.949 . S
H506 C483 0.950 . S
H507 C485 0.950 . S
C508 C509 1.349 . S
C508 C510 1.327 . S
C508 H533 0.950 . S
C509 C508 1.349 . S
C509 C525 1.349 . S
C510 C508 1.327 . S
C510 C529 1.429 . S
C510 H534 0.950 . S
C511 C528 1.574 . S
C511 C530 1.368 . S
C511 H535 0.949 . S
H512 C516 0.949 . S
C513 C514 1.349 . S
C513 C515 1.327 . S
C513 H536 0.950 . S
C514 C513 1.349 . S
C514 C526 1.349 . S
C515 C513 1.327 . S
C515 C531 1.429 . S
C515 H537 0.950 . S
C516 H512 0.949 . S
C516 C524 1.574 . S
C516 C532 1.368 . S
H517 C525 0.950 . S
H518 C523 0.950 . S
H519 C524 0.949 . S
H520 C526 0.950 . S
H521 C527 0.950 . S
H522 C528 0.949 . S
C523 H518 0.950 . S
C523 C525 1.327 . S
C523 C529 1.429 . S
C524 C516 1.574 . S
C524 H519 0.949 . S
C524 C530 1.368 . S
C525 C509 1.349 . S
C525 H517 0.950 . S
C525 C523 1.327 . S
C526 C514 1.349 . S
C526 H520 0.950 . S
C526 C527 1.327 . S
C527 H521 0.950 . S
C527 C526 1.327 . S
C527 C531 1.429 . S
C528 C511 1.574 . S
C528 H522 0.949 . S
C528 C532 1.368 . S
C529 C510 1.429 . S
C529 C523 1.429 . S
C529 C530 1.523 . S
C530 C511 1.368 . S
C530 C524 1.368 . S
C530 C529 1.523 . S
C531 C515 1.429 . S
C531 C527 1.429 . S
C531 C532 1.523 . S
C532 C516 1.368 . S
C532 C528 1.368 . S
C532 C531 1.523 . S
H533 C508 0.950 . S
H534 C510 0.950 . S
H535 C511 0.949 . S
H536 C513 0.950 . S
H537 C515 0.950 . S
C538 C539 1.349 . S
C538 C540 1.327 . S
C538 H563 0.950 . S
C539 C538 1.349 . S
C539 C555 1.349 . S
C540 C538 1.327 . S
C540 C559 1.429 . S
C540 H564 0.950 . S
C541 C558 1.574 . S
C541 C560 1.368 . S
C541 H565 0.949 . S
H542 C546 0.949 . S
C543 C544 1.349 . S
C543 C545 1.327 . S
C543 H566 0.950 . S
C544 C543 1.349 . S
C544 C556 1.349 . S
C545 C543 1.327 . S
C545 C561 1.429 . S
C545 H567 0.950 . S
C546 H542 0.949 . S
C546 C554 1.574 . S
C546 C562 1.368 . S
H547 C555 0.950 . S
H548 C553 0.950 . S
H549 C554 0.949 . S
H550 C556 0.950 . S
H551 C557 0.950 . S
H552 C558 0.949 . S
C553 H548 0.950 . S
C553 C555 1.327 . S
C553 C559 1.429 . S
C554 C546 1.574 . S
C554 H549 0.949 . S
C554 C560 1.368 . S
C555 C539 1.349 . S
C555 H547 0.950 . S
C555 C553 1.327 . S
C556 C544 1.349 . S
C556 H550 0.950 . S
C556 C557 1.327 . S
C557 H551 0.950 . S
C557 C556 1.327 . S
C557 C561 1.429 . S
C558 C541 1.574 . S
C558 H552 0.949 . S
C558 C562 1.368 . S
C559 C540 1.429 . S
C559 C553 1.429 . S
C559 C560 1.523 . S
C560 C541 1.368 . S
C560 C554 1.368 . S
C560 C559 1.523 . S
C561 C545 1.429 . S
C561 C557 1.429 . S
C561 C562 1.523 . S
C562 C546 1.368 . S
C562 C558 1.368 . S
C562 C561 1.523 . S
H563 C538 0.950 . S
H564 C540 0.950 . S
H565 C541 0.949 . S
H566 C543 0.950 . S
H567 C545 0.950 . S
C568 C569 1.349 . S
C568 C570 1.327 . S
C568 H593 0.950 . S
C569 C568 1.349 . S
C569 C585 1.349 . S
C570 C568 1.327 . S
C570 C589 1.429 . S
C570 H594 0.950 . S
C571 C588 1.574 1_565 S
C571 C590 1.368 . S
C571 H595 0.949 . S
H572 C576 0.949 . S
C573 C574 1.349 . S
C573 C575 1.327 . S
C573 H596 0.950 . S
C574 C573 1.349 . S
C574 C586 1.349 . S
C575 C573 1.327 . S
C575 C591 1.429 . S
C575 H597 0.950 . S
C576 H572 0.949 . S
C576 C584 1.574 1_545 S
C576 C592 1.368 . S
H577 C585 0.950 . S
H578 C583 0.950 . S
H579 C584 0.949 . S
H580 C586 0.950 . S
H581 C587 0.950 . S
H582 C588 0.949 . S
C583 H578 0.950 . S
C583 C585 1.327 . S
C583 C589 1.429 . S
C584 C576 1.574 1_565 S
C584 H579 0.949 . S
C584 C590 1.368 . S
C585 C569 1.349 . S
C585 H577 0.950 . S
C585 C583 1.327 . S
C586 C574 1.349 . S
C586 H580 0.950 . S
C586 C587 1.327 . S
C587 H581 0.950 . S
C587 C586 1.327 . S
C587 C591 1.429 . S
C588 C571 1.574 1_545 S
C588 H582 0.949 . S
C588 C592 1.368 . S
C589 C570 1.429 . S
C589 C583 1.429 . S
C589 C590 1.523 . S
C590 C571 1.368 . S
C590 C584 1.368 . S
C590 C589 1.523 . S
C591 C575 1.429 . S
C591 C587 1.429 . S
C591 C592 1.523 . S
C592 C576 1.368 . S
C592 C588 1.368 . S
C592 C591 1.523 . S
H593 C568 0.950 . S
H594 C570 0.950 . S
H595 C571 0.949 . S
H596 C573 0.950 . S
H597 C575 0.950 . S
C598 C599 1.349 . S
C598 C600 1.327 . S
C598 H623 0.950 . S
C599 C598 1.349 . S
C599 C615 1.349 . S
C600 C598 1.327 . S
C600 C619 1.429 . S
C600 H624 0.950 . S
C601 C618 1.574 1_655 S
C601 C620 1.368 . S
C601 H625 0.949 . S
H602 C606 0.949 . S
C603 C604 1.349 . S
C603 C605 1.327 . S
C603 H626 0.950 . S
C604 C603 1.349 . S
C604 C616 1.349 . S
C605 C603 1.327 . S
C605 C621 1.429 . S
C605 H627 0.950 . S
C606 H602 0.949 . S
C606 C614 1.574 1_455 S
C606 C622 1.368 . S
H607 C615 0.950 . S
H608 C613 0.950 . S
H609 C614 0.949 . S
H610 C616 0.950 . S
H611 C617 0.950 . S
H612 C618 0.949 . S
C613 H608 0.950 . S
C613 C615 1.327 . S
C613 C619 1.429 . S
C614 C606 1.574 1_655 S
C614 H609 0.949 . S
C614 C620 1.368 . S
C615 C599 1.349 . S
C615 H607 0.950 . S
C615 C613 1.327 . S
C616 C604 1.349 . S
C616 H610 0.950 . S
C616 C617 1.327 . S
C617 H611 0.950 . S
C617 C616 1.327 . S
C617 C621 1.429 . S
C618 C601 1.574 1_455 S
C618 H612 0.949 . S
C618 C622 1.368 . S
C619 C600 1.429 . S
C619 C613 1.429 . S
C619 C620 1.523 . S
C620 C601 1.368 . S
C620 C614 1.368 . S
C620 C619 1.523 . S
C621 C605 1.429 . S
C621 C617 1.429 . S
C621 C622 1.523 . S
C622 C606 1.368 . S
C622 C618 1.368 . S
C622 C621 1.523 . S
H623 C598 0.950 . S
H624 C600 0.950 . S
H625 C601 0.949 . S
H626 C603 0.950 . S
H627 C605 0.950 . S
C628 C629 1.349 . S
C628 C630 1.327 . S
C628 H653 0.950 . S
C629 C628 1.349 . S
C629 C645 1.349 . S
C630 C628 1.327 . S
C630 C649 1.429 . S
C630 H654 0.950 . S
C631 C648 1.574 1_565 S
C631 C650 1.368 . S
C631 H655 0.949 . S
H632 C636 0.949 . S
C633 C634 1.349 . S
C633 C635 1.327 . S
C633 H656 0.950 . S
C634 C633 1.349 . S
C634 C646 1.349 . S
C635 C633 1.327 . S
C635 C651 1.429 . S
C635 H657 0.950 . S
C636 H632 0.949 . S
C636 C644 1.574 1_545 S
C636 C652 1.368 . S
H637 C645 0.950 . S
H638 C643 0.950 . S
H639 C644 0.949 . S
H640 C646 0.950 . S
H641 C647 0.950 . S
H642 C648 0.949 . S
C643 H638 0.950 . S
C643 C645 1.327 . S
C643 C649 1.429 . S
C644 C636 1.574 1_565 S
C644 H639 0.949 . S
C644 C650 1.368 . S
C645 C629 1.349 . S
C645 H637 0.950 . S
C645 C643 1.327 . S
C646 C634 1.349 . S
C646 H640 0.950 . S
C646 C647 1.327 . S
C647 H641 0.950 . S
C647 C646 1.327 . S
C647 C651 1.429 . S
C648 C631 1.574 1_545 S
C648 H642 0.949 . S
C648 C652 1.368 . S
C649 C630 1.429 . S
C649 C643 1.429 . S
C649 C650 1.523 . S
C650 C631 1.368 . S
C650 C644 1.368 . S
C650 C649 1.523 . S
C651 C635 1.429 . S
C651 C647 1.429 . S
C651 C652 1.523 . S
C652 C636 1.368 . S
C652 C648 1.368 . S
C652 C651 1.523 . S
H653 C628 0.950 . S
H654 C630 0.950 . S
H655 C631 0.949 . S
H656 C633 0.950 . S
H657 C635 0.950 . S
C658 C659 1.349 . S
C658 C660 1.327 . S
C658 H683 0.950 . S
C659 C658 1.349 . S
C659 C675 1.349 . S
C660 C658 1.327 . S
C660 C679 1.429 . S
C660 H684 0.950 . S
C661 C678 1.574 1_655 S
C661 C680 1.368 . S
C661 H685 0.949 . S
H662 C666 0.949 . S
C663 C664 1.349 . S
C663 C665 1.327 . S
C663 H686 0.950 . S
C664 C663 1.349 . S
C664 C676 1.349 . S
C665 C663 1.327 . S
C665 C681 1.429 . S
C665 H687 0.950 . S
C666 H662 0.949 . S
C666 C674 1.574 1_455 S
C666 C682 1.368 . S
H667 C675 0.950 . S
H668 C673 0.950 . S
H669 C674 0.949 . S
H670 C676 0.950 . S
H671 C677 0.950 . S
H672 C678 0.949 . S
C673 H668 0.950 . S
C673 C675 1.327 . S
C673 C679 1.429 . S
C674 C666 1.574 1_655 S
C674 H669 0.949 . S
C674 C680 1.368 . S
C675 C659 1.349 . S
C675 H667 0.950 . S
C675 C673 1.327 . S
C676 C664 1.349 . S
C676 H670 0.950 . S
C676 C677 1.327 . S
C677 H671 0.950 . S
C677 C676 1.327 . S
C677 C681 1.429 . S
C678 C661 1.574 1_455 S
C678 H672 0.949 . S
C678 C682 1.368 . S
C679 C660 1.429 . S
C679 C673 1.429 . S
C679 C680 1.523 . S
C680 C661 1.368 . S
C680 C674 1.368 . S
C680 C679 1.523 . S
C681 C665 1.429 . S
C681 C677 1.429 . S
C681 C682 1.523 . S
C682 C666 1.368 . S
C682 C678 1.368 . S
C682 C681 1.523 . S
H683 C658 0.950 . S
H684 C660 0.950 . S
H685 C661 0.949 . S
H686 C663 0.950 . S
H687 C665 0.950 . S
C688 C689 1.349 . S
C688 C690 1.327 . S
C688 H713 0.950 . S
C689 C688 1.349 . S
C689 C705 1.349 . S
C690 C688 1.327 . S
C690 C709 1.429 . S
C690 H714 0.950 . S
C691 C708 1.574 . S
C691 C710 1.368 . S
C691 H715 0.949 1_554 S
H692 C696 0.949 . S
C693 C694 1.349 . S
C693 C695 1.327 . S
C693 H716 0.950 1_554 S
C694 C693 1.349 . S
C694 C706 1.349 . S
C695 C693 1.327 . S
C695 C711 1.429 . S
C695 H717 0.950 1_554 S
C696 H692 0.949 . S
C696 C704 1.574 . S
C696 C712 1.368 . S
H697 C705 0.950 1_556 S
H698 C703 0.950 1_556 S
H699 C704 0.949 . S
H700 C706 0.950 . S
H701 C707 0.950 . S
H702 C708 0.949 1_556 S
C703 H698 0.950 1_554 S
C703 C705 1.327 . S
C703 C709 1.429 . S
C704 C696 1.574 . S
C704 H699 0.949 . S
C704 C710 1.368 . S
C705 C689 1.349 . S
C705 H697 0.950 1_554 S
C705 C703 1.327 . S
C706 C694 1.349 . S
C706 H700 0.950 . S
C706 C707 1.327 . S
C707 H701 0.950 . S
C707 C706 1.327 . S
C707 C711 1.429 . S
C708 C691 1.574 . S
C708 H702 0.949 1_554 S
C708 C712 1.368 . S
C709 C690 1.429 . S
C709 C703 1.429 . S
C709 C710 1.523 . S
C710 C691 1.368 . S
C710 C704 1.368 . S
C710 C709 1.523 . S
C711 C695 1.429 . S
C711 C707 1.429 . S
C711 C712 1.523 . S
C712 C696 1.368 . S
C712 C708 1.368 . S
C712 C711 1.523 . S
H713 C688 0.950 . S
H714 C690 0.950 . S
H715 C691 0.949 1_556 S
H716 C693 0.950 1_556 S
H717 C695 0.950 1_556 S
C718 C719 1.349 . S
C718 C720 1.327 . S
C718 H743 0.950 . S
C719 C718 1.349 . S
C719 C735 1.349 . S
C720 C718 1.327 . S
C720 C739 1.429 . S
C720 H744 0.950 . S
C721 C738 1.574 . S
C721 C740 1.368 . S
C721 H745 0.949 . S
H722 C726 0.949 . S
C723 C724 1.349 . S
C723 C725 1.327 . S
C723 H746 0.950 . S
C724 C723 1.349 . S
C724 C736 1.349 . S
C725 C723 1.327 . S
C725 C741 1.429 . S
C725 H747 0.950 . S
C726 H722 0.949 . S
C726 C734 1.574 . S
C726 C742 1.368 . S
H727 C735 0.950 . S
H728 C733 0.950 . S
H729 C734 0.949 . S
H730 C736 0.950 . S
H731 C737 0.950 . S
H732 C738 0.949 . S
C733 H728 0.950 . S
C733 C735 1.327 . S
C733 C739 1.429 . S
C734 C726 1.574 . S
C734 H729 0.949 . S
C734 C740 1.368 . S
C735 C719 1.349 . S
C735 H727 0.950 . S
C735 C733 1.327 . S
C736 C724 1.349 . S
C736 H730 0.950 . S
C736 C737 1.327 . S
C737 H731 0.950 . S
C737 C736 1.327 . S
C737 C741 1.429 . S
C738 C721 1.574 . S
C738 H732 0.949 . S
C738 C742 1.368 . S
C739 C720 1.429 . S
C739 C733 1.429 . S
C739 C740 1.523 . S
C740 C721 1.368 . S
C740 C734 1.368 . S
C740 C739 1.523 . S
C741 C725 1.429 . S
C741 C737 1.429 . S
C741 C742 1.523 . S
C742 C726 1.368 . S
C742 C738 1.368 . S
C742 C741 1.523 . S
H743 C718 0.950 . S
H744 C720 0.950 . S
H745 C721 0.949 . S
H746 C723 0.950 . S
H747 C725 0.950 . S
C748 C749 1.349 . S
C748 C750 1.327 . S
C748 H773 0.950 . S
C749 C748 1.349 . S
C749 C765 1.349 . S
C750 C748 1.327 . S
C750 C769 1.429 . S
C750 H774 0.950 . S
C751 C768 1.574 . S
C751 C770 1.368 . S
C751 H775 0.949 1_554 S
H752 C756 0.949 . S
C753 C754 1.349 . S
C753 C755 1.327 . S
C753 H776 0.950 1_554 S
C754 C753 1.349 . S
C754 C766 1.349 . S
C755 C753 1.327 . S
C755 C771 1.429 . S
C755 H777 0.950 1_554 S
C756 H752 0.949 . S
C756 C764 1.574 . S
C756 C772 1.368 . S
H757 C765 0.950 1_556 S
H758 C763 0.950 1_556 S
H759 C764 0.949 . S
H760 C766 0.950 . S
H761 C767 0.950 . S
H762 C768 0.949 1_556 S
C763 H758 0.950 1_554 S
C763 C765 1.327 . S
C763 C769 1.429 . S
C764 C756 1.574 . S
C764 H759 0.949 . S
C764 C770 1.368 . S
C765 C749 1.349 . S
C765 H757 0.950 1_554 S
C765 C763 1.327 . S
C766 C754 1.349 . S
C766 H760 0.950 . S
C766 C767 1.327 . S
C767 H761 0.950 . S
C767 C766 1.327 . S
C767 C771 1.429 . S
C768 C751 1.574 . S
C768 H762 0.949 1_554 S
C768 C772 1.368 . S
C769 C750 1.429 . S
C769 C763 1.429 . S
C769 C770 1.523 . S
C770 C751 1.368 . S
C770 C764 1.368 . S
C770 C769 1.523 . S
C771 C755 1.429 . S
C771 C767 1.429 . S
C771 C772 1.523 . S
C772 C756 1.368 . S
C772 C768 1.368 . S
C772 C771 1.523 . S
H773 C748 0.950 . S
H774 C750 0.950 . S
H775 C751 0.949 1_556 S
H776 C753 0.950 1_556 S
H777 C755 0.950 1_556 S
C778 C779 1.349 . S
C778 C780 1.327 . S
C778 H803 0.950 . S
C779 C778 1.349 . S
C779 C795 1.349 . S
C780 C778 1.327 . S
C780 C799 1.429 . S
C780 H804 0.950 . S
C781 C798 1.574 . S
C781 C800 1.368 . S
C781 H805 0.949 . S
H782 C786 0.949 . S
C783 C784 1.349 . S
C783 C785 1.327 . S
C783 H806 0.950 . S
C784 C783 1.349 . S
C784 C796 1.349 . S
C785 C783 1.327 . S
C785 C801 1.429 . S
C785 H807 0.950 . S
C786 H782 0.949 . S
C786 C794 1.574 . S
C786 C802 1.368 . S
H787 C795 0.950 . S
H788 C793 0.950 . S
H789 C794 0.949 . S
H790 C796 0.950 . S
H791 C797 0.950 . S
H792 C798 0.949 . S
C793 H788 0.950 . S
C793 C795 1.327 . S
C793 C799 1.429 . S
C794 C786 1.574 . S
C794 H789 0.949 . S
C794 C800 1.368 . S
C795 C779 1.349 . S
C795 H787 0.950 . S
C795 C793 1.327 . S
C796 C784 1.349 . S
C796 H790 0.950 . S
C796 C797 1.327 . S
C797 H791 0.950 . S
C797 C796 1.327 . S
C797 C801 1.429 . S
C798 C781 1.574 . S
C798 H792 0.949 . S
C798 C802 1.368 . S
C799 C780 1.429 . S
C799 C793 1.429 . S
C799 C800 1.523 . S
C800 C781 1.368 . S
C800 C794 1.368 . S
C800 C799 1.523 . S
C801 C785 1.429 . S
C801 C797 1.429 . S
C801 C802 1.523 . S
C802 C786 1.368 . S
C802 C798 1.368 . S
C802 C801 1.523 . S
H803 C778 0.950 . S
H804 C780 0.950 . S
H805 C781 0.949 . S
H806 C783 0.950 . S
H807 C785 0.950 . S
C808 C809 1.349 . S
C808 C810 1.327 . S
C808 H833 0.950 . S
C809 C808 1.349 . S
C809 C825 1.349 . S
C810 C808 1.327 . S
C810 C829 1.429 . S
C810 H834 0.950 . S
C811 C828 1.574 . S
C811 C830 1.368 . S
C811 H835 0.949 . S
H812 C816 0.949 . S
C813 C814 1.349 . S
C813 C815 1.327 . S
C813 H836 0.950 . S
C814 C813 1.349 . S
C814 C826 1.349 . S
C815 C813 1.327 . S
C815 C831 1.429 . S
C815 H837 0.950 . S
C816 H812 0.949 . S
C816 C824 1.574 . S
C816 C832 1.368 . S
H817 C825 0.950 . S
H818 C823 0.950 . S
H819 C824 0.949 . S
H820 C826 0.950 . S
H821 C827 0.950 . S
H822 C828 0.949 . S
C823 H818 0.950 . S
C823 C825 1.327 . S
C823 C829 1.429 . S
C824 C816 1.574 . S
C824 H819 0.949 . S
C824 C830 1.368 . S
C825 C809 1.349 . S
C825 H817 0.950 . S
C825 C823 1.327 . S
C826 C814 1.349 . S
C826 H820 0.950 . S
C826 C827 1.327 . S
C827 H821 0.950 . S
C827 C826 1.327 . S
C827 C831 1.429 . S
C828 C811 1.574 . S
C828 H822 0.949 . S
C828 C832 1.368 . S
C829 C810 1.429 . S
C829 C823 1.429 . S
C829 C830 1.523 . S
C830 C811 1.368 . S
C830 C824 1.368 . S
C830 C829 1.523 . S
C831 C815 1.429 . S
C831 C827 1.429 . S
C831 C832 1.523 . S
C832 C816 1.368 . S
C832 C828 1.368 . S
C832 C831 1.523 . S
H833 C808 0.950 . S
H834 C810 0.950 . S
H835 C811 0.949 . S
H836 C813 0.950 . S
H837 C815 0.950 . S
C838 C839 1.349 . S
C838 C840 1.327 . S
C838 H863 0.950 . S
C839 C838 1.349 . S
C839 C855 1.349 . S
C840 C838 1.327 . S
C840 C859 1.429 . S
C840 H864 0.950 . S
C841 C858 1.574 . S
C841 C860 1.368 . S
C841 H865 0.949 . S
H842 C846 0.949 . S
C843 C844 1.349 . S
C843 C845 1.327 . S
C843 H866 0.950 . S
C844 C843 1.349 . S
C844 C856 1.349 . S
C845 C843 1.327 . S
C845 C861 1.429 . S
C845 H867 0.950 . S
C846 H842 0.949 . S
C846 C854 1.574 . S
C846 C862 1.368 . S
H847 C855 0.950 . S
H848 C853 0.950 . S
H849 C854 0.949 . S
H850 C856 0.950 . S
H851 C857 0.950 . S
H852 C858 0.949 . S
C853 H848 0.950 . S
C853 C855 1.327 . S
C853 C859 1.429 . S
C854 C846 1.574 . S
C854 H849 0.949 . S
C854 C860 1.368 . S
C855 C839 1.349 . S
C855 H847 0.950 . S
C855 C853 1.327 . S
C856 C844 1.349 . S
C856 H850 0.950 . S
C856 C857 1.327 . S
C857 H851 0.950 . S
C857 C856 1.327 . S
C857 C861 1.429 . S
C858 C841 1.574 . S
C858 H852 0.949 . S
C858 C862 1.368 . S
C859 C840 1.429 . S
C859 C853 1.429 . S
C859 C860 1.523 . S
C860 C841 1.368 . S
C860 C854 1.368 . S
C860 C859 1.523 . S
C861 C845 1.429 . S
C861 C857 1.429 . S
C861 C862 1.523 . S
C862 C846 1.368 . S
C862 C858 1.368 . S
C862 C861 1.523 . S
H863 C838 0.950 . S
H864 C840 0.950 . S
H865 C841 0.949 . S
H866 C843 0.950 . S
H867 C845 0.950 . S
C868 C869 1.349 . S
C868 C870 1.327 . S
C868 H893 0.950 . S
C869 C868 1.349 . S
C869 C885 1.349 . S
C870 C868 1.327 . S
C870 C889 1.429 . S
C870 H894 0.950 . S
C871 C888 1.574 . S
C871 C890 1.368 . S
C871 H895 0.949 . S
H872 C876 0.949 . S
C873 C874 1.349 . S
C873 C875 1.327 . S
C873 H896 0.950 . S
C874 C873 1.349 . S
C874 C886 1.349 . S
C875 C873 1.327 . S
C875 C891 1.429 . S
C875 H897 0.950 . S
C876 H872 0.949 . S
C876 C884 1.574 . S
C876 C892 1.368 . S
H877 C885 0.950 . S
H878 C883 0.950 . S
H879 C884 0.949 . S
H880 C886 0.950 . S
H881 C887 0.950 . S
H882 C888 0.949 . S
C883 H878 0.950 . S
C883 C885 1.327 . S
C883 C889 1.429 . S
C884 C876 1.574 . S
C884 H879 0.949 . S
C884 C890 1.368 . S
C885 C869 1.349 . S
C885 H877 0.950 . S
C885 C883 1.327 . S
C886 C874 1.349 . S
C886 H880 0.950 . S
C886 C887 1.327 . S
C887 H881 0.950 . S
C887 C886 1.327 . S
C887 C891 1.429 . S
C888 C871 1.574 . S
C888 H882 0.949 . S
C888 C892 1.368 . S
C889 C870 1.429 . S
C889 C883 1.429 . S
C889 C890 1.523 . S
C890 C871 1.368 . S
C890 C884 1.368 . S
C890 C889 1.523 . S
C891 C875 1.429 . S
C891 C887 1.429 . S
C891 C892 1.523 . S
C892 C876 1.368 . S
C892 C888 1.368 . S
C892 C891 1.523 . S
H893 C868 0.950 . S
H894 C870 0.950 . S
H895 C871 0.949 . S
H896 C873 0.950 . S
H897 C875 0.950 . S
C898 C899 1.349 . S
C898 C900 1.327 . S
C898 H923 0.950 . S
C899 C898 1.349 . S
C899 C915 1.349 . S
C900 C898 1.327 . S
C900 C919 1.429 . S
C900 H924 0.950 . S
C901 C918 1.574 . S
C901 C920 1.368 . S
C901 H925 0.949 . S
H902 C906 0.949 . S
C903 C904 1.349 . S
C903 C905 1.327 . S
C903 H926 0.950 . S
C904 C903 1.349 . S
C904 C916 1.349 . S
C905 C903 1.327 . S
C905 C921 1.429 . S
C905 H927 0.950 . S
C906 H902 0.949 . S
C906 C914 1.574 . S
C906 C922 1.368 . S
H907 C915 0.950 . S
H908 C913 0.950 . S
H909 C914 0.949 . S
H910 C916 0.950 . S
H911 C917 0.950 . S
H912 C918 0.949 . S
C913 H908 0.950 . S
C913 C915 1.327 . S
C913 C919 1.429 . S
C914 C906 1.574 . S
C914 H909 0.949 . S
C914 C920 1.368 . S
C915 C899 1.349 . S
C915 H907 0.950 . S
C915 C913 1.327 . S
C916 C904 1.349 . S
C916 H910 0.950 . S
C916 C917 1.327 . S
C917 H911 0.950 . S
C917 C916 1.327 . S
C917 C921 1.429 . S
C918 C901 1.574 . S
C918 H912 0.949 . S
C918 C922 1.368 . S
C919 C900 1.429 . S
C919 C913 1.429 . S
C919 C920 1.523 . S
C920 C901 1.368 . S
C920 C914 1.368 . S
C920 C919 1.523 . S
C921 C905 1.429 . S
C921 C917 1.429 . S
C921 C922 1.523 . S
C922 C906 1.368 . S
C922 C918 1.368 . S
C922 C921 1.523 . S
H923 C898 0.950 . S
H924 C900 0.950 . S
H925 C901 0.949 . S
H926 C903 0.950 . S
H927 C905 0.950 . S
C928 C929 1.349 . S
C928 C930 1.327 . S
C928 H953 0.950 . S
C929 C928 1.349 . S
C929 C945 1.349 . S
C930 C928 1.327 . S
C930 C949 1.429 . S
C930 H954 0.950 . S
C931 C948 1.574 . S
C931 C950 1.368 . S
C931 H955 0.949 . S
H932 C936 0.949 1_554 S
C933 C934 1.349 1_556 S
C933 C935 1.327 . S
C933 H956 0.950 . S
C934 C933 1.349 1_554 S
C934 C946 1.349 . S
C935 C933 1.327 . S
C935 C951 1.429 . S
C935 H957 0.950 . S
C936 H932 0.949 1_556 S
C936 C944 1.574 . S
C936 C952 1.368 . S
H937 C945 0.950 . S
H938 C943 0.950 . S
H939 C944 0.949 . S
H940 C946 0.950 . S
H941 C947 0.950 . S
H942 C948 0.949 . S
C943 H938 0.950 . S
C943 C945 1.327 . S
C943 C949 1.429 . S
C944 C936 1.574 . S
C944 H939 0.949 . S
C944 C950 1.368 . S
C945 C929 1.349 . S
C945 H937 0.950 . S
C945 C943 1.327 . S
C946 C934 1.349 . S
C946 H940 0.950 . S
C946 C947 1.327 . S
C947 H941 0.950 . S
C947 C946 1.327 . S
C947 C951 1.429 1_554 S
C948 C931 1.574 . S
C948 H942 0.949 . S
C948 C952 1.368 . S
C949 C930 1.429 . S
C949 C943 1.429 . S
C949 C950 1.523 . S
C950 C931 1.368 . S
C950 C944 1.368 . S
C950 C949 1.523 . S
C951 C935 1.429 . S
C951 C947 1.429 1_556 S
C951 C952 1.523 . S
C952 C936 1.368 . S
C952 C948 1.368 . S
C952 C951 1.523 . S
H953 C928 0.950 . S
H954 C930 0.950 . S
H955 C931 0.949 . S
H956 C933 0.950 . S
H957 C935 0.950 . S
C958 C959 1.349 . S
C958 C960 1.327 . S
C958 H983 0.950 . S
C959 C958 1.349 . S
C959 C975 1.349 . S
C960 C958 1.327 . S
C960 C979 1.429 . S
C960 H984 0.950 . S
C961 C978 1.574 . S
C961 C980 1.368 . S
C961 H985 0.949 . S
H962 C966 0.949 1_556 S
C963 C964 1.349 1_554 S
C963 C965 1.327 . S
C963 H986 0.950 . S
C964 C963 1.349 1_556 S
C964 C976 1.349 . S
C965 C963 1.327 . S
C965 C981 1.429 . S
C965 H987 0.950 . S
C966 H962 0.949 1_554 S
C966 C974 1.574 . S
C966 C982 1.368 . S
H967 C975 0.950 . S
H968 C973 0.950 . S
H969 C974 0.949 . S
H970 C976 0.950 . S
H971 C977 0.950 . S
H972 C978 0.949 . S
C973 H968 0.950 . S
C973 C975 1.327 . S
C973 C979 1.429 . S
C974 C966 1.574 . S
C974 H969 0.949 . S
C974 C980 1.368 . S
C975 C959 1.349 . S
C975 H967 0.950 . S
C975 C973 1.327 . S
C976 C964 1.349 . S
C976 H970 0.950 . S
C976 C977 1.327 . S
C977 H971 0.950 . S
C977 C976 1.327 . S
C977 C981 1.429 1_556 S
C978 C961 1.574 . S
C978 H972 0.949 . S
C978 C982 1.368 . S
C979 C960 1.429 . S
C979 C973 1.429 . S
C979 C980 1.523 . S
C980 C961 1.368 . S
C980 C974 1.368 . S
C980 C979 1.523 . S
C981 C965 1.429 . S
C981 C977 1.429 1_554 S
C981 C982 1.523 . S
C982 C966 1.368 . S
C982 C978 1.368 . S
C982 C981 1.523 . S
H983 C958 0.950 . S
H984 C960 0.950 . S
H985 C961 0.949 . S
H986 C963 0.950 . S
H987 C965 0.950 . S
C988 C989 1.349 1_556 S
C988 C990 1.327 . S
C988 H1013 0.950 . S
C989 C988 1.349 1_554 S
C989 C1005 1.349 . S
C990 C988 1.327 . S
C990 C1009 1.429 . S
C990 H1014 0.950 . S
C991 C1008 1.574 . S
C991 C1010 1.368 . S
C991 H1015 0.949 1_556 S
H992 C996 0.949 . S
C993 C994 1.349 . S
C993 C995 1.327 . S
C993 H1016 0.950 . S
C994 C993 1.349 . S
C994 C1006 1.349 . S
C995 C993 1.327 . S
C995 C1011 1.429 . S
C995 H1017 0.950 . S
C996 H992 0.949 . S
C996 C1004 1.574 . S
C996 C1012 1.368 . S
H997 C1005 0.950 . S
H998 C1003 0.950 . S
H999 C1004 0.949 . S
H1000 C1006 0.950 . S
H1001 C1007 0.950 . S
H1002 C1008 0.949 . S
C1003 H998 0.950 . S
C1003 C1005 1.327 . S
C1003 C1009 1.429 1_554 S
C1004 C996 1.574 . S
C1004 H999 0.949 . S
C1004 C1010 1.368 . S
C1005 C989 1.349 . S
C1005 H997 0.950 . S
C1005 C1003 1.327 . S
C1006 C994 1.349 . S
C1006 H1000 0.950 . S
C1006 C1007 1.327 . S
C1007 H1001 0.950 . S
C1007 C1006 1.327 . S
C1007 C1011 1.429 . S
C1008 C991 1.574 . S
C1008 H1002 0.949 . S
C1008 C1012 1.368 . S
C1009 C990 1.429 . S
C1009 C1003 1.429 1_556 S
C1009 C1010 1.523 . S
C1010 C991 1.368 . S
C1010 C1004 1.368 . S
C1010 C1009 1.523 . S
C1011 C995 1.429 . S
C1011 C1007 1.429 . S
C1011 C1012 1.523 . S
C1012 C996 1.368 . S
C1012 C1008 1.368 . S
C1012 C1011 1.523 . S
H1013 C988 0.950 . S
H1014 C990 0.950 . S
H1015 C991 0.949 1_554 S
H1016 C993 0.950 . S
H1017 C995 0.950 . S
C1018 C1019 1.349 . S
C1018 C1020 1.327 . S
C1018 H1043 0.950 . S
C1019 C1018 1.349 . S
C1019 C1035 1.349 . S
C1020 C1018 1.327 . S
C1020 C1039 1.429 . S
C1020 H1044 0.950 . S
C1021 C1038 1.574 . S
C1021 C1040 1.368 . S
C1021 H1045 0.949 . S
H1022 C1026 0.949 1_556 S
C1023 C1024 1.349 1_554 S
C1023 C1025 1.327 . S
C1023 H1046 0.950 . S
C1024 C1023 1.349 1_556 S
C1024 C1036 1.349 . S
C1025 C1023 1.327 . S
C1025 C1041 1.429 . S
C1025 H1047 0.950 . S
C1026 H1022 0.949 1_554 S
C1026 C1034 1.574 . S
C1026 C1042 1.368 . S
H1027 C1035 0.950 . S
H1028 C1033 0.950 . S
H1029 C1034 0.949 . S
H1030 C1036 0.950 . S
H1031 C1037 0.950 . S
H1032 C1038 0.949 . S
C1033 H1028 0.950 . S
C1033 C1035 1.327 . S
C1033 C1039 1.429 . S
C1034 C1026 1.574 . S
C1034 H1029 0.949 . S
C1034 C1040 1.368 . S
C1035 C1019 1.349 . S
C1035 H1027 0.950 . S
C1035 C1033 1.327 . S
C1036 C1024 1.349 . S
C1036 H1030 0.950 . S
C1036 C1037 1.327 . S
C1037 H1031 0.950 . S
C1037 C1036 1.327 . S
C1037 C1041 1.429 1_556 S
C1038 C1021 1.574 . S
C1038 H1032 0.949 . S
C1038 C1042 1.368 . S
C1039 C1020 1.429 . S
C1039 C1033 1.429 . S
C1039 C1040 1.523 . S
C1040 C1021 1.368 . S
C1040 C1034 1.368 . S
C1040 C1039 1.523 . S
C1041 C1025 1.429 . S
C1041 C1037 1.429 1_554 S
C1041 C1042 1.523 . S
C1042 C1026 1.368 . S
C1042 C1038 1.368 . S
C1042 C1041 1.523 . S
H1043 C1018 0.950 . S
H1044 C1020 0.950 . S
H1045 C1021 0.949 . S
H1046 C1023 0.950 . S
H1047 C1025 0.950 . S
C1048 C1049 1.349 . S
C1048 C1050 1.327 . S
C1048 H1073 0.950 . S
C1049 C1048 1.349 . S
C1049 C1065 1.349 . S
C1050 C1048 1.327 . S
C1050 C1069 1.429 . S
C1050 H1074 0.950 . S
C1051 C1068 1.574 . S
C1051 C1070 1.368 . S
C1051 H1075 0.949 . S
H1052 C1056 0.949 . S
C1053 C1054 1.349 . S
C1053 C1055 1.327 . S
C1053 H1076 0.950 . S
C1054 C1053 1.349 . S
C1054 C1066 1.349 . S
C1055 C1053 1.327 . S
C1055 C1071 1.429 . S
C1055 H1077 0.950 . S
C1056 H1052 0.949 . S
C1056 C1064 1.574 . S
C1056 C1072 1.368 . S
H1057 C1065 0.950 . S
H1058 C1063 0.950 . S
H1059 C1064 0.949 . S
H1060 C1066 0.950 . S
H1061 C1067 0.950 . S
H1062 C1068 0.949 . S
C1063 H1058 0.950 . S
C1063 C1065 1.327 . S
C1063 C1069 1.429 . S
C1064 C1056 1.574 . S
C1064 H1059 0.949 . S
C1064 C1070 1.368 . S
C1065 C1049 1.349 . S
C1065 H1057 0.950 . S
C1065 C1063 1.327 . S
C1066 C1054 1.349 . S
C1066 H1060 0.950 . S
C1066 C1067 1.327 . S
C1067 H1061 0.950 . S
C1067 C1066 1.327 . S
C1067 C1071 1.429 . S
C1068 C1051 1.574 . S
C1068 H1062 0.949 . S
C1068 C1072 1.368 . S
C1069 C1050 1.429 . S
C1069 C1063 1.429 . S
C1069 C1070 1.523 . S
C1070 C1051 1.368 . S
C1070 C1064 1.368 . S
C1070 C1069 1.523 . S
C1071 C1055 1.429 . S
C1071 C1067 1.429 . S
C1071 C1072 1.523 . S
C1072 C1056 1.368 . S
C1072 C1068 1.368 . S
C1072 C1071 1.523 . S
H1073 C1048 0.950 . S
H1074 C1050 0.950 . S
H1075 C1051 0.949 . S
H1076 C1053 0.950 . S
H1077 C1055 0.950 . S
C1078 C1079 1.349 . S
C1078 C1080 1.327 . S
C1078 H1103 0.950 . S
C1079 C1078 1.349 . S
C1079 C1095 1.349 . S
C1080 C1078 1.327 . S
C1080 C1099 1.429 . S
C1080 H1104 0.950 . S
C1081 C1098 1.574 . S
C1081 C1100 1.368 . S
C1081 H1105 0.949 . S
H1082 C1086 0.949 . S
C1083 C1084 1.349 . S
C1083 C1085 1.327 . S
C1083 H1106 0.950 . S
C1084 C1083 1.349 . S
C1084 C1096 1.349 . S
C1085 C1083 1.327 . S
C1085 C1101 1.429 . S
C1085 H1107 0.950 . S
C1086 H1082 0.949 . S
C1086 C1094 1.574 . S
C1086 C1102 1.368 . S
H1087 C1095 0.950 . S
H1088 C1093 0.950 . S
H1089 C1094 0.949 . S
H1090 C1096 0.950 . S
H1091 C1097 0.950 . S
H1092 C1098 0.949 . S
C1093 H1088 0.950 . S
C1093 C1095 1.327 . S
C1093 C1099 1.429 . S
C1094 C1086 1.574 . S
C1094 H1089 0.949 . S
C1094 C1100 1.368 . S
C1095 C1079 1.349 . S
C1095 H1087 0.950 . S
C1095 C1093 1.327 . S
C1096 C1084 1.349 . S
C1096 H1090 0.950 . S
C1096 C1097 1.327 . S
C1097 H1091 0.950 . S
C1097 C1096 1.327 . S
C1097 C1101 1.429 . S
C1098 C1081 1.574 . S
C1098 H1092 0.949 . S
C1098 C1102 1.368 . S
C1099 C1080 1.429 . S
C1099 C1093 1.429 . S
C1099 C1100 1.523 . S
C1100 C1081 1.368 . S
C1100 C1094 1.368 . S
C1100 C1099 1.523 . S
C1101 C1085 1.429 . S
C1101 C1097 1.429 . S
C1101 C1102 1.523 . S
C1102 C1086 1.368 . S
C1102 C1098 1.368 . S
C1102 C1101 1.523 . S
H1103 C1078 0.950 . S
H1104 C1080 0.950 . S
H1105 C1081 0.949 . S
H1106 C1083 0.950 . S
H1107 C1085 0.950 . S
C1108 C1109 1.349 . S
C1108 C1110 1.327 . S
C1108 H1133 0.950 . S
C1109 C1108 1.349 . S
C1109 C1125 1.349 . S
C1110 C1108 1.327 . S
C1110 C1129 1.429 . S
C1110 H1134 0.950 . S
C1111 C1128 1.574 . S
C1111 C1130 1.368 . S
C1111 H1135 0.949 . S
H1112 C1116 0.949 . S
C1113 C1114 1.349 . S
C1113 C1115 1.327 . S
C1113 H1136 0.950 . S
C1114 C1113 1.349 . S
C1114 C1126 1.349 . S
C1115 C1113 1.327 . S
C1115 C1131 1.429 . S
C1115 H1137 0.950 . S
C1116 H1112 0.949 . S
C1116 C1124 1.574 . S
C1116 C1132 1.368 . S
H1117 C1125 0.950 . S
H1118 C1123 0.950 . S
H1119 C1124 0.949 . S
H1120 C1126 0.950 . S
H1121 C1127 0.950 . S
H1122 C1128 0.949 . S
C1123 H1118 0.950 . S
C1123 C1125 1.327 . S
C1123 C1129 1.429 . S
C1124 C1116 1.574 . S
C1124 H1119 0.949 . S
C1124 C1130 1.368 . S
C1125 C1109 1.349 . S
C1125 H1117 0.950 . S
C1125 C1123 1.327 . S
C1126 C1114 1.349 . S
C1126 H1120 0.950 . S
C1126 C1127 1.327 . S
C1127 H1121 0.950 . S
C1127 C1126 1.327 . S
C1127 C1131 1.429 . S
C1128 C1111 1.574 . S
C1128 H1122 0.949 . S
C1128 C1132 1.368 . S
C1129 C1110 1.429 . S
C1129 C1123 1.429 . S
C1129 C1130 1.523 . S
C1130 C1111 1.368 . S
C1130 C1124 1.368 . S
C1130 C1129 1.523 . S
C1131 C1115 1.429 . S
C1131 C1127 1.429 . S
C1131 C1132 1.523 . S
C1132 C1116 1.368 . S
C1132 C1128 1.368 . S
C1132 C1131 1.523 . S
H1133 C1108 0.950 . S
H1134 C1110 0.950 . S
H1135 C1111 0.949 . S
H1136 C1113 0.950 . S
H1137 C1115 0.950 . S
C1138 C1139 1.349 . S
C1138 C1140 1.327 . S
C1138 H1163 0.950 . S
C1139 C1138 1.349 . S
C1139 C1155 1.349 . S
C1140 C1138 1.327 . S
C1140 C1159 1.429 . S
C1140 H1164 0.950 . S
C1141 C1158 1.574 . S
C1141 C1160 1.368 . S
C1141 H1165 0.949 . S
H1142 C1146 0.949 . S
C1143 C1144 1.349 . S
C1143 C1145 1.327 . S
C1143 H1166 0.950 . S
C1144 C1143 1.349 . S
C1144 C1156 1.349 . S
C1145 C1143 1.327 . S
C1145 C1161 1.429 . S
C1145 H1167 0.950 . S
C1146 H1142 0.949 . S
C1146 C1154 1.574 . S
C1146 C1162 1.368 . S
H1147 C1155 0.950 . S
H1148 C1153 0.950 . S
H1149 C1154 0.949 . S
H1150 C1156 0.950 . S
H1151 C1157 0.950 . S
H1152 C1158 0.949 . S
C1153 H1148 0.950 . S
C1153 C1155 1.327 . S
C1153 C1159 1.429 . S
C1154 C1146 1.574 . S
C1154 H1149 0.949 . S
C1154 C1160 1.368 . S
C1155 C1139 1.349 . S
C1155 H1147 0.950 . S
C1155 C1153 1.327 . S
C1156 C1144 1.349 . S
C1156 H1150 0.950 . S
C1156 C1157 1.327 . S
C1157 H1151 0.950 . S
C1157 C1156 1.327 . S
C1157 C1161 1.429 . S
C1158 C1141 1.574 . S
C1158 H1152 0.949 . S
C1158 C1162 1.368 . S
C1159 C1140 1.429 . S
C1159 C1153 1.429 . S
C1159 C1160 1.523 . S
C1160 C1141 1.368 . S
C1160 C1154 1.368 . S
C1160 C1159 1.523 . S
C1161 C1145 1.429 . S
C1161 C1157 1.429 . S
C1161 C1162 1.523 . S
C1162 C1146 1.368 . S
C1162 C1158 1.368 . S
C1162 C1161 1.523 . S
H1163 C1138 0.950 . S
H1164 C1140 0.950 . S
H1165 C1141 0.949 . S
H1166 C1143 0.950 . S
H1167 C1145 0.950 . S
C209 C153 1.526 . S
C214 C3 1.520 . S
C239 C16 1.513 . S
C244 C114 1.512 . S
C269 C29 1.520 . S
C274 C127 1.526 . S
C299 C140 1.512 . S
C304 C42 1.513 . S
C329 C55 1.520 . S
C334 C75 1.526 . S
C359 C68 1.513 . S
C364 C88 1.512 . S
C389 C101 1.526 . S
C394 C81 1.520 . S
C419 C62 1.512 . S
C424 C94 1.513 . S
C449 C49 1.526 . S
C454 C107 1.520 . S
C479 C120 1.513 . S
C484 C10 1.512 . S
C509 C23 1.526 . S
C514 C133 1.520 . S
C539 C146 1.513 . S
C544 C36 1.512 . S
C569 C159 1.520 . S
C574 C179 1.526 . S
C599 C172 1.513 . S
C604 C192 1.512 . S
C629 C205 1.526 . S
C634 C185 1.520 . S
C659 C166 1.512 . S
C664 C198 1.513 . S
C689 C53 1.512 . S
C694 C1 1.512 . S
C719 C14 1.502 . S
C724 C66 1.502 . S
C749 C27 1.513 . S
C754 C79 1.513 . S
C779 C92 1.502 . S
C784 C40 1.502 . S
C809 C105 1.512 . S
C814 C157 1.512 . S
C839 C170 1.502 . S
C844 C118 1.502 . S
C869 C131 1.513 . S
C874 C183 1.513 . S
C899 C196 1.502 . S
C904 C144 1.502 . S
C929 C187 1.524 . S
C934 C5 1.524 . S
C959 C200 1.550 . S
C964 C18 1.550 . S
C989 C31 1.524 . S
C994 C161 1.524 . S
C1019 C174 1.550 . S
C1024 C44 1.550 . S
C1049 C135 1.524 . S
C1054 C57 1.524 . S
C1079 C148 1.550 . S
C1084 C70 1.550 . S
C1109 C83 1.524 . S
C1114 C109 1.524 . S
C1139 C122 1.550 . S
C1144 C96 1.550 . S
