# Generated by pormake.
# Topology pcu-h, (3)-cn, num edge types: 1
# Building blocks:
#     Node 0, Type 0, BuildingBlock: WUSLED_clean_sbu_0, # of connection points: 3
#     Node 1, Type 0, BuildingBlock: WUSLED_clean_sbu_0, # of connection points: 3
#     Node 2, Type 0, BuildingBlock: WUSLED_clean_sbu_0, # of connection points: 3
#     Node 3, Type 0, BuildingBlock: WUSLED_clean_sbu_0, # of connection points: 3
#     Node 4, Type 0, BuildingBlock: WUSLED_clean_sbu_0, # of connection points: 3
#     Node 5, Type 0, BuildingBlock: WUSLED_clean_sbu_0, # of connection points: 3
#     Node 6, Type 0, BuildingBlock: WUSLED_clean_sbu_0, # of connection points: 3
#     Node 7, Type 0, BuildingBlock: WUSLED_clean_sbu_0, # of connection points: 3
#     Node 8, Type 0, BuildingBlock: WUSLED_clean_sbu_0, # of connection points: 3
#     Node 9, Type 0, BuildingBlock: WUSLED_clean_sbu_0, # of connection points: 3
#     Node 10, Type 0, BuildingBlock: WUSLED_clean_sbu_0, # of connection points: 3
#     Node 11, Type 0, BuildingBlock: WUSLED_clean_sbu_0, # of connection points: 3
#     Node 12, Type 0, BuildingBlock: WUSLED_clean_sbu_0, # of connection points: 3
#     Node 13, Type 0, BuildingBlock: WUSLED_clean_sbu_0, # of connection points: 3
#     Node 14, Type 0, BuildingBlock: WUSLED_clean_sbu_0, # of connection points: 3
#     Node 15, Type 0, BuildingBlock: WUSLED_clean_sbu_0, # of connection points: 3
#     Node 16, Type 0, BuildingBlock: WUSLED_clean_sbu_0, # of connection points: 3
#     Node 17, Type 0, BuildingBlock: WUSLED_clean_sbu_0, # of connection points: 3
#     Edge 18, Type (0, 0), BuildingBlock: MIFKUJ_clean_linker_0, # of connection points: 2
#     Edge 19, Type (0, 0), BuildingBlock: MIFKUJ_clean_linker_0, # of connection points: 2
#     Edge 20, Type (0, 0), BuildingBlock: MIFKUJ_clean_linker_0, # of connection points: 2
#     Edge 21, Type (0, 0), BuildingBlock: MIFKUJ_clean_linker_0, # of connection points: 2
#     Edge 22, Type (0, 0), BuildingBlock: MIFKUJ_clean_linker_0, # of connection points: 2
#     Edge 23, Type (0, 0), BuildingBlock: MIFKUJ_clean_linker_0, # of connection points: 2
#     Edge 24, Type (0, 0), BuildingBlock: MIFKUJ_clean_linker_0, # of connection points: 2
#     Edge 25, Type (0, 0), BuildingBlock: MIFKUJ_clean_linker_0, # of connection points: 2
#     Edge 26, Type (0, 0), BuildingBlock: MIFKUJ_clean_linker_0, # of connection points: 2
#     Edge 27, Type (0, 0), BuildingBlock: MIFKUJ_clean_linker_0, # of connection points: 2
#     Edge 28, Type (0, 0), BuildingBlock: MIFKUJ_clean_linker_0, # of connection points: 2
#     Edge 29, Type (0, 0), BuildingBlock: MIFKUJ_clean_linker_0, # of connection points: 2
#     Edge 30, Type (0, 0), BuildingBlock: MIFKUJ_clean_linker_0, # of connection points: 2
#     Edge 31, Type (0, 0), BuildingBlock: MIFKUJ_clean_linker_0, # of connection points: 2
#     Edge 32, Type (0, 0), BuildingBlock: MIFKUJ_clean_linker_0, # of connection points: 2
#     Edge 33, Type (0, 0), BuildingBlock: MIFKUJ_clean_linker_0, # of connection points: 2
#     Edge 34, Type (0, 0), BuildingBlock: MIFKUJ_clean_linker_0, # of connection points: 2
#     Edge 35, Type (0, 0), BuildingBlock: MIFKUJ_clean_linker_0, # of connection points: 2
#     Edge 36, Type (0, 0), BuildingBlock: MIFKUJ_clean_linker_0, # of connection points: 2
#     Edge 37, Type (0, 0), BuildingBlock: MIFKUJ_clean_linker_0, # of connection points: 2
#     Edge 38, Type (0, 0), BuildingBlock: MIFKUJ_clean_linker_0, # of connection points: 2
#     Edge 39, Type (0, 0), BuildingBlock: MIFKUJ_clean_linker_0, # of connection points: 2
#     Edge 40, Type (0, 0), BuildingBlock: MIFKUJ_clean_linker_0, # of connection points: 2
#     Edge 41, Type (0, 0), BuildingBlock: MIFKUJ_clean_linker_0, # of connection points: 2
#     Edge 42, Type (0, 0), BuildingBlock: MIFKUJ_clean_linker_0, # of connection points: 2
#     Edge 43, Type (0, 0), BuildingBlock: MIFKUJ_clean_linker_0, # of connection points: 2
#     Edge 44, Type (0, 0), BuildingBlock: MIFKUJ_clean_linker_0, # of connection points: 2
# Relax obj value: 0.000
# Max RMSD: 0.008
# Mean RMSD: 0.007
data_MOF--net-pcu-h--node1-WUSLED_clean_sbu_0--edge1-MIFKUJ_clean_linker_0
_symmetry_space_group_name_H-M    P1
_symmetry_Int_Tables_number       1
_symmetry_cell_setting            triclinic
loop_
_symmetry_equiv_pos_as_xyz
'x, y, z'
_cell_length_a     141.05082
_cell_length_b     140.33268
_cell_length_c     35.845907
_cell_angle_alpha  90.089541
_cell_angle_beta   89.842383
_cell_angle_gamma 120.08152
loop_
_atom_site_label
_atom_site_type_symbol
_atom_site_fract_x
_atom_site_fract_y
_atom_site_fract_z
_atom_type_partial_charge
C0 C 0.23807 0.14895 0.04546 0.0
C1 C 0.22837 0.14287 0.02498 0.0
C2 C 0.22419 0.15776 0.03132 0.0
C3 C 0.22148 0.14723 0.01801 0.0
C4 C 0.23385 0.16369 0.05231 0.0
C5 C 0.2407 0.15934 0.05923 0.0
U6 U 0.24623 0.12633 0.05019 0.0
O7 O 0.26168 0.12737 0.03239 0.0
O8 O 0.25679 0.12445 0.09125 0.0
C9 C 0.26437 0.12619 0.06644 0.0
C10 C 0.24578 0.14487 0.05212 0.0
C11 C 0.27587 0.13366 0.07758 0.0
C12 C 0.29143 0.15191 0.09038 0.0
C13 C 0.28037 0.14512 0.08041 0.0
C14 C 0.29352 0.13585 0.09498 0.0
C15 C 0.29819 0.14736 0.09751 0.0
C16 C 0.28253 0.12912 0.08513 0.0
C17 C 0.22466 0.09596 0.02618 0.0
C18 C 0.22469 0.07907 0.04187 0.0
C19 C 0.21196 0.07865 -0.0041 0.0
C20 C 0.21619 0.08997 0.00072 0.0
C21 C 0.21611 0.073 0.01648 0.0
C22 C 0.22895 0.09044 0.04662 0.0
C23 C 0.22849 0.10782 0.03156 0.0
O24 O 0.24379 0.13851 0.08139 0.0
O25 O 0.24882 0.14147 0.02267 0.0
O26 O 0.2356 0.11463 0.00706 0.0
O27 O 0.2307 0.11159 0.06592 0.0
H28 H 0.22618 0.13482 0.01406 0.0
H29 H 0.21417 0.14245 0.00154 0.0
H30 H 0.23613 0.17171 0.06367 0.0
H31 H 0.24812 0.16415 0.07523 0.0
H32 H 0.29474 0.16072 0.09183 0.0
H33 H 0.27537 0.1488 0.07467 0.0
H34 H 0.29836 0.13201 0.10094 0.0
H35 H 0.27921 0.1203 0.08329 0.0
H36 H 0.22817 0.07504 0.05793 0.0
H37 H 0.20525 0.07427 0.97658 0.0
H38 H 0.21271 0.09403 0.98481 0.0
H39 H 0.23552 0.0949 0.0664 0.0
C40 C 0.88706 0.09425 0.04933 0.0
C41 C 0.89258 0.09088 0.02465 0.0
C42 C 0.87866 0.07155 0.0343 0.0
C43 C 0.8884 0.07964 0.01715 0.0
C44 C 0.87327 0.07502 0.0593 0.0
C45 C 0.87743 0.08622 0.06667 0.0
U46 U 0.9091 0.12526 0.05508 0.0
O47 O 0.90759 0.13963 0.03974 0.0
O48 O 0.91098 0.13743 0.0978 0.0
C49 C 0.90878 0.14323 0.07427 0.0
C50 C 0.8909 0.106 0.05679 0.0
C51 C 0.90108 0.1468 0.08746 0.0
C52 C 0.88311 0.14537 0.0887 0.0
C53 C 0.88999 0.14136 0.077 0.0
C54 C 0.89828 0.16019 0.12181 0.0
C55 C 0.88718 0.15488 0.11121 0.0
C56 C 0.90512 0.1562 0.11008 0.0
C57 C 0.93943 0.1346 0.02924 0.0
C58 C 0.95686 0.14985 0.05088 0.0
C59 C 0.95622 0.14028 0.99393 0.0
C60 C 0.9449 0.13342 -0.00163 0.0
C61 C 0.96241 0.1485 0.02038 0.0
C62 C 0.9455 0.14297 0.0553 0.0
C63 C 0.92763 0.12648 0.03459 0.0
O64 O 0.8973 0.11036 0.08589 0.0
O65 O 0.89405 0.11261 0.02772 0.0
O66 O 0.92076 0.1269 0.01085 0.0
O67 O 0.92391 0.12454 0.06904 0.0
H68 H 0.90006 0.09694 0.01102 0.0
H69 H 0.89285 0.0773 -0.00192 0.0
H70 H 0.86568 0.06909 0.07261 0.0
H71 H 0.87301 0.08862 0.08568 0.0
H72 H 0.8746 0.141 0.0803 0.0
H73 H 0.88666 0.13407 0.05961 0.0
H74 H 0.90179 0.16761 0.13854 0.0
H75 H 0.91366 0.16057 0.1183 0.0
H76 H 0.96134 0.15602 0.07197 0.0
H77 H 0.96013 0.1391 0.96971 0.0
H78 H 0.94042 0.12703 0.9779 0.0
H79 H 0.9415 0.14406 0.07945 0.0
C80 C 0.8853 0.79559 0.03345 0.0
C81 C 0.89215 0.80708 0.03455 0.0
C82 C 0.87675 0.80967 0.01805 0.0
C83 C 0.88791 0.81405 0.02701 0.0
C84 C 0.87 0.79814 0.01668 0.0
C85 C 0.87423 0.79121 0.02429 0.0
U86 U 0.90788 0.78767 0.04411 0.0
O87 O 0.90945 0.77738 0.08725 0.0
O88 O 0.90718 0.77211 0.02876 0.0
C89 C 0.90801 0.76963 0.06346 0.0
C90 C 0.88934 0.78796 0.04246 0.0
C91 C 0.90048 0.75812 0.07504 0.0
C92 C 0.88271 0.74331 0.09617 0.0
C93 C 0.88953 0.75433 0.08513 0.0
C94 C 0.89771 0.73983 0.08705 0.0
C95 C 0.88671 0.73589 0.09713 0.0
C96 C 0.90448 0.75078 0.07614 0.0
C97 C 0.93817 0.80937 0.02095 0.0
C98 C 0.9548 0.80904 0.03708 0.0
C99 C 0.95565 0.82236 0.99244 0.0
C100 C 0.94437 0.81814 -0.00346 0.0
C101 C 0.96106 0.81791 0.01269 0.0
C102 C 0.94346 0.80479 0.04111 0.0
C103 C 0.92634 0.80545 0.02526 0.0
O104 O 0.89297 0.78468 0.01426 0.0
O105 O 0.89545 0.79022 0.07246 0.0
O106 O 0.92238 0.80346 0.05942 0.0
O107 O 0.91976 0.79808 0.00102 0.0
H108 H 0.90075 0.81066 0.04141 0.0
H109 H 0.8934 0.82287 0.02792 0.0
H110 H 0.86135 0.79443 0.01047 0.0
H111 H 0.86879 0.78237 0.02341 0.0
H112 H 0.87427 0.74057 0.10345 0.0
H113 H 0.88627 0.75986 0.08442 0.0
H114 H 0.90117 0.73447 0.08807 0.0
H115 H 0.91292 0.75355 0.06866 0.0
H116 H 0.95864 0.80532 0.05284 0.0
H117 H 0.96017 0.82929 0.97388 0.0
H118 H 0.94048 0.82184 0.98084 0.0
H119 H 0.93884 0.79799 0.06006 0.0
C120 C 0.10249 0.22918 0.94914 0.0
C121 C 0.09866 0.21864 0.96426 0.0
C122 C 0.07989 0.21538 0.96519 0.0
C123 C 0.08745 0.21179 0.97216 0.0
C124 C 0.08384 0.22593 0.94977 0.0
C125 C 0.09499 0.23273 0.94189 0.0
U126 U 0.13318 0.23733 0.94115 0.0
O127 O 0.14508 0.24741 0.8975 0.0
O128 O 0.14772 0.25318 0.95548 0.0
C129 C 0.15099 0.25554 0.9206 0.0
C130 C 0.11421 0.23673 0.94083 0.0
C131 C 0.1544 0.26684 0.90729 0.0
C132 C 0.15593 0.28485 0.91519 0.0
C133 C 0.15183 0.27393 0.92702 0.0
C134 C 0.16504 0.28172 0.86333 0.0
C135 C 0.16267 0.28892 0.88332 0.0
C136 C 0.16098 0.27084 0.87523 0.0
C137 C 0.1422 0.21603 0.96677 0.0
C138 C 0.15861 0.2155 0.94865 0.0
C139 C 0.14691 0.20351 -0.00232 0.0
C140 C 0.13998 0.20789 0.99355 0.0
C141 C 0.15626 0.20714 0.97502 0.0
C142 C 0.15164 0.21989 0.94452 0.0
C143 C 0.13422 0.21986 0.96178 0.0
O144 O 0.12091 0.24013 0.96947 0.0
O145 O 0.11824 0.23431 0.9116 0.0
O146 O 0.13224 0.22158 0.92737 0.0
O147 O 0.13488 0.22735 0.98536 0.0
H148 H 0.10432 0.21575 0.9701 0.0
H149 H 0.08474 0.20376 0.98426 0.0
H150 H 0.07829 0.22892 0.94333 0.0
H151 H 0.09777 0.24081 0.93007 0.0
H152 H 0.15382 0.2901 0.93104 0.0
H153 H 0.14676 0.27111 0.95184 0.0
H154 H 0.1703 0.28456 0.83899 0.0
H155 H 0.16317 0.2656 0.85969 0.0
H156 H 0.16569 0.21846 0.93053 0.0
H157 H 0.14492 0.19726 0.01876 0.0
H158 H 0.13276 0.20481 0.01109 0.0
H159 H 0.15354 0.22616 0.92362 0.0
C160 C 0.8065 0.93204 0.93742 0.0
C161 C 0.81329 0.93537 0.96907 0.0
C162 C 0.8207 0.95475 0.95267 0.0
C163 C 0.82029 0.9466 0.97665 0.0
C164 C 0.81401 0.95135 0.92072 0.0
C165 C 0.807 0.94015 0.91328 0.0
U166 U 0.79745 0.90104 0.92979 0.0
O167 O 0.78168 0.88653 0.94505 0.0
O168 O 0.78719 0.88902 0.88675 0.0
C169 C 0.77924 0.8831 0.91036 0.0
C170 C 0.79849 0.9203 0.92966 0.0
C171 C 0.76792 0.87947 0.89762 0.0
C172 C 0.75055 0.87927 0.90231 0.0
C173 C 0.76152 0.88358 0.91322 0.0
C174 C 0.75232 0.8669 0.85954 0.0
C175 C 0.74575 0.87074 0.87568 0.0
C176 C 0.76323 0.87119 0.87043 0.0
C177 C 0.81901 0.89222 0.95313 0.0
C178 C 0.81624 0.87363 0.95555 0.0
C179 C 0.83435 0.88933 0.96535 0.0
C180 C 0.83016 0.89641 0.96037 0.0
C181 C 0.82746 0.87783 0.96327 0.0
C182 C 0.81205 0.88077 0.95059 0.0
C183 C 0.815 0.90007 0.94874 0.0
O184 O 0.80038 0.91602 0.89991 0.0
O185 O 0.79499 0.91354 0.95832 0.0
O186 O 0.8076 0.89929 0.97286 0.0
O187 O 0.81303 0.90193 0.91451 0.0
H188 H 0.81312 0.92931 0.98815 0.0
H189 H 0.82541 0.9489 0.00126 0.0
H190 H 0.81397 0.95735 0.90187 0.0
H191 H 0.80181 0.93781 0.88882 0.0
H192 H 0.74575 0.88241 0.91553 0.0
H193 H 0.76493 0.88997 0.93428 0.0
H194 H 0.74902 0.86051 0.83844 0.0
H195 H 0.76799 0.86789 0.85792 0.0
H196 H 0.81067 0.86483 0.954 0.0
H197 H 0.84303 0.8929 0.9705 0.0
H198 H 0.83569 0.90522 0.96225 0.0
H199 H 0.8034 0.87736 0.94501 0.0
C200 C 0.10166 0.87875 0.9532 0.0
C201 C 0.09594 0.88338 0.93597 0.0
C202 C 0.07892 0.87 0.96685 0.0
C203 C 0.08471 0.87904 0.94268 0.0
C204 C 0.08474 0.86558 0.98468 0.0
C205 C 0.09595 0.86989 0.97784 0.0
U206 U 0.13256 0.90048 0.94046 0.0
O207 O 0.147 0.89906 0.95439 0.0
O208 O 0.1439 0.90142 0.89613 0.0
C209 C 0.15 0.89957 0.91933 0.0
C210 C 0.11326 0.88239 0.944 0.0
C211 C 0.15344 0.89166 0.90683 0.0
C212 C 0.15457 0.87498 0.91497 0.0
C213 C 0.15027 0.88171 0.92567 0.0
C214 C 0.16499 0.88788 0.86595 0.0
C215 C 0.16214 0.87807 0.88532 0.0
C216 C 0.16071 0.89457 0.87663 0.0
C217 C 0.14274 0.93155 0.95917 0.0
C218 C 0.15924 0.94702 0.98557 0.0
C219 C 0.1479 0.95045 0.94355 0.0
C220 C 0.14078 0.9391 0.93994 0.0
C221 C 0.15718 0.9546 0.96671 0.0
C222 C 0.15212 0.93562 0.98183 0.0
C223 C 0.13442 0.91962 0.95729 0.0
O224 O 0.1173 0.88818 0.91331 0.0
O225 O 0.12025 0.88596 0.97185 0.0
O226 O 0.13506 0.91308 0.98212 0.0
O227 O 0.13179 0.91521 0.92385 0.0
H228 H 0.10009 0.89023 0.91684 0.0
H229 H 0.08054 0.88275 0.92884 0.0
H230 H 0.08057 0.85856 0.0031 0.0
H231 H 0.10011 0.8661 0.99123 0.0
H232 H 0.15222 0.86754 0.9307 0.0
H233 H 0.14468 0.87925 0.94913 0.0
H234 H 0.17062 0.89044 0.84257 0.0
H235 H 0.16328 0.90218 0.86163 0.0
H236 H 0.16637 0.94989 0.0033 0.0
H237 H 0.14593 0.95599 0.92902 0.0
H238 H 0.13356 0.9362 0.92266 0.0
H239 H 0.15387 0.93004 -0.00288 0.0
C240 C 0.90378 0.48183 0.37806 0.0
C241 C 0.89438 0.47603 0.3559 0.0
C242 C 0.88998 0.49073 0.36373 0.0
C243 C 0.88754 0.48043 0.34884 0.0
C244 C 0.89934 0.49638 0.38636 0.0
C245 C 0.90614 0.49198 0.39337 0.0
U246 U 0.91197 0.45921 0.38326 0.0
O247 O 0.92758 0.46037 0.36701 0.0
O248 O 0.92222 0.45721 0.42544 0.0
C249 C 0.93008 0.45926 0.40144 0.0
C250 C 0.91145 0.47772 0.38503 0.0
C251 C 0.94145 0.46689 0.41395 0.0
C252 C 0.95891 0.4841 0.4093 0.0
C253 C 0.94789 0.47748 0.39874 0.0
C254 C 0.95713 0.46975 0.45101 0.0
C255 C 0.96373 0.48025 0.43522 0.0
C256 C 0.94616 0.46317 0.44046 0.0
C257 C 0.89028 0.42889 0.35855 0.0
C258 C 0.89262 0.41282 0.36104 0.0
C259 C 0.87541 0.41084 0.34022 0.0
C260 C 0.87958 0.42212 0.34554 0.0
C261 C 0.88186 0.406 0.34773 0.0
C262 C 0.8968 0.42417 0.36634 0.0
C263 C 0.89428 0.44076 0.36375 0.0
O264 O 0.90934 0.4713 0.41421 0.0
O265 O 0.91463 0.47439 0.35575 0.0
O266 O 0.90163 0.44751 0.33973 0.0
O267 O 0.89633 0.44446 0.39819 0.0
H268 H 0.8924 0.46817 0.34378 0.0
H269 H 0.88046 0.47587 0.33109 0.0
H270 H 0.90139 0.5042 0.39895 0.0
H271 H 0.91332 0.49658 0.41068 0.0
H272 H 0.96373 0.49209 0.39634 0.0
H273 H 0.94447 0.48057 0.37822 0.0
H274 H 0.96045 0.46657 0.47156 0.0
H275 H 0.94137 0.45505 0.45265 0.0
H276 H 0.89786 0.40942 0.36686 0.0
H277 H 0.86704 0.40587 0.33066 0.0
H278 H 0.87439 0.42558 0.33956 0.0
H279 H 0.90509 0.42926 0.37642 0.0
C280 C 0.55305 0.42739 0.3778 0.0
C281 C 0.55996 0.4235 0.36551 0.0
C282 C 0.54442 0.40465 0.36315 0.0
C283 C 0.55568 0.41223 0.35816 0.0
C284 C 0.53758 0.40868 0.37521 0.0
C285 C 0.54185 0.41989 0.38245 0.0
U286 U 0.57577 0.45805 0.38862 0.0
O287 O 0.57501 0.47291 0.37443 0.0
O288 O 0.57734 0.46976 0.43266 0.0
C289 C 0.57571 0.47603 0.40941 0.0
C290 C 0.5572 0.43913 0.38634 0.0
C291 C 0.56805 0.47973 0.42196 0.0
C292 C 0.55077 0.47972 0.41792 0.0
C293 C 0.55748 0.47544 0.40696 0.0
C294 C 0.56499 0.49243 0.45952 0.0
C295 C 0.5545 0.48839 0.44402 0.0
C296 C 0.57166 0.48817 0.44857 0.0
C297 C 0.60628 0.46687 0.36867 0.0
C298 C 0.62183 0.48444 0.34916 0.0
C299 C 0.62495 0.47039 0.37553 0.0
C300 C 0.61364 0.46346 0.37989 0.0
C301 C 0.62923 0.48093 0.35965 0.0
C302 C 0.61048 0.47748 0.35359 0.0
C303 C 0.59435 0.45892 0.37121 0.0
O304 O 0.56321 0.44298 0.41655 0.0
O305 O 0.56103 0.44601 0.35809 0.0
O306 O 0.58799 0.4599 0.34658 0.0
O307 O 0.59008 0.4566 0.40489 0.0
H308 H 0.56865 0.42916 0.36181 0.0
H309 H 0.56122 0.40943 0.3492 0.0
H310 H 0.52886 0.40317 0.37874 0.0
H311 H 0.53636 0.42273 0.39176 0.0
H312 H 0.54277 0.47643 0.40521 0.0
H313 H 0.55447 0.46891 0.38638 0.0
H314 H 0.56809 0.49893 0.48021 0.0
H315 H 0.57976 0.49159 0.46064 0.0
H316 H 0.62479 0.49246 0.3366 0.0
H317 H 0.63035 0.46745 0.38463 0.0
H318 H 0.61061 0.45533 0.39164 0.0
H319 H 0.60499 0.48033 0.34466 0.0
C320 C 0.55306 0.13061 0.37342 0.0
C321 C 0.55895 0.13998 0.35093 0.0
C322 C 0.54425 0.14438 0.35654 0.0
C323 C 0.5546 0.14681 0.34261 0.0
C324 C 0.53851 0.13506 0.37949 0.0
C325 C 0.54286 0.12827 0.38776 0.0
U326 U 0.57536 0.12214 0.38358 0.0
O327 O 0.57666 0.11187 0.42757 0.0
O328 O 0.57409 0.10626 0.36939 0.0
C329 C 0.57473 0.10383 0.40438 0.0
C330 C 0.55709 0.12294 0.38179 0.0
C331 C 0.56689 0.09247 0.41724 0.0
C332 C 0.55072 0.07432 0.40842 0.0
C333 C 0.55736 0.08533 0.39716 0.0
C334 C 0.56284 0.07749 0.46043 0.0
C335 C 0.55347 0.0702 0.43991 0.0
C336 C 0.56946 0.08845 0.44918 0.0
C337 C 0.6061 0.1432 0.36332 0.0
C338 C 0.62139 0.14212 0.33579 0.0
C339 C 0.62498 0.15694 0.37835 0.0
C340 C 0.61369 0.15272 0.38254 0.0
C341 C 0.62901 0.15178 0.3546 0.0
C342 C 0.61008 0.13787 0.34011 0.0
C343 C 0.59424 0.13958 0.36591 0.0
O344 O 0.56071 0.1197 0.35345 0.0
O345 O 0.56313 0.12506 0.41187 0.0
O346 O 0.58998 0.1378 0.39961 0.0
O347 O 0.58764 0.13233 0.34131 0.0
H348 H 0.56685 0.14195 0.33955 0.0
H349 H 0.55923 0.15387 0.32466 0.0
H350 H 0.53065 0.13302 0.39137 0.0
H351 H 0.53819 0.12111 0.4053 0.0
H352 H 0.54363 0.06896 0.39173 0.0
H353 H 0.55516 0.08817 0.37234 0.0
H354 H 0.56513 0.07472 0.4852 0.0
H355 H 0.57674 0.09376 0.46516 0.0
H356 H 0.62418 0.13784 0.31763 0.0
H357 H 0.63055 0.16446 0.39292 0.0
H358 H 0.61087 0.15707 0.40028 0.0
H359 H 0.60447 0.13052 0.32484 0.0
C360 C 0.7689 0.5628 0.28125 0.0
C361 C 0.76513 0.55246 0.29796 0.0
C362 C 0.74628 0.54894 0.29684 0.0
C363 C 0.75392 0.54559 0.30564 0.0
C364 C 0.75016 0.55928 0.27978 0.0
C365 C 0.76133 0.5661 0.27213 0.0
U366 U 0.79949 0.57071 0.27444 0.0
O367 O 0.81164 0.58072 0.23145 0.0
O368 O 0.81409 0.58644 0.28945 0.0
C369 C 0.81766 0.5887 0.25487 0.0
C370 C 0.78064 0.57038 0.27334 0.0
C371 C 0.82151 0.60005 0.24175 0.0
C372 C 0.81904 0.61586 0.23174 0.0
C373 C 0.81496 0.60497 0.24396 0.0
C374 C 0.8362 0.61699 0.21492 0.0
C375 C 0.82973 0.62202 0.21695 0.0
C376 C 0.83213 0.60615 0.22713 0.0
C377 C 0.80806 0.54912 0.30002 0.0
C378 C 0.8248 0.54903 0.28348 0.0
C379 C 0.81239 0.5361 0.32923 0.0
C380 C 0.80547 0.5405 0.32514 0.0
C381 C 0.82211 0.54021 0.30819 0.0
C382 C 0.81784 0.55343 0.2794 0.0
C383 C 0.80015 0.55303 0.29499 0.0
O384 O 0.78725 0.57368 0.30222 0.0
O385 O 0.78474 0.568 0.24419 0.0
O386 O 0.7983 0.55486 0.26055 0.0
O387 O 0.80085 0.56052 0.31864 0.0
H388 H 0.77085 0.54975 0.30525 0.0
H389 H 0.75126 0.53774 0.31904 0.0
H390 H 0.74455 0.56208 0.27192 0.0
H391 H 0.76405 0.57403 0.25908 0.0
H392 H 0.81379 0.61942 0.23348 0.0
H393 H 0.80672 0.6004 0.25513 0.0
H394 H 0.84452 0.62148 0.20443 0.0
H395 H 0.83735 0.60255 0.22537 0.0
H396 H 0.83216 0.55236 0.26662 0.0
H397 H 0.81012 0.52948 0.34904 0.0
H398 H 0.79799 0.53706 0.34141 0.0
H399 H 0.82002 0.56009 0.2598 0.0
C400 C 0.47166 0.26485 0.27477 0.0
C401 C 0.48303 0.26969 0.26959 0.0
C402 C 0.4858 0.28749 0.29086 0.0
C403 C 0.49003 0.28091 0.27745 0.0
C404 C 0.47441 0.28253 0.29625 0.0
C405 C 0.46744 0.27136 0.28829 0.0
U406 U 0.46343 0.23413 0.26428 0.0
O407 O 0.44779 0.21937 0.27915 0.0
O408 O 0.45331 0.22222 0.22091 0.0
C409 C 0.44546 0.21599 0.24441 0.0
C410 C 0.46395 0.25316 0.26554 0.0
C411 C 0.4341 0.21216 0.2321 0.0
C412 C 0.41906 0.21528 0.2165 0.0
C413 C 0.42992 0.21932 0.22831 0.0
C414 C 0.4165 0.19693 0.21233 0.0
C415 C 0.41221 0.20402 0.20815 0.0
C416 C 0.42729 0.20095 0.2241 0.0
C417 C 0.48501 0.22545 0.28846 0.0
C418 C 0.48566 0.20901 0.27047 0.0
C419 C 0.49787 0.22109 0.31828 0.0
C420 C 0.49334 0.22791 0.31447 0.0
C421 C 0.4942 0.2116 0.29607 0.0
C422 C 0.48112 0.21588 0.26665 0.0
C423 C 0.481 0.23332 0.28386 0.0
O424 O 0.4662 0.2492 0.23567 0.0
O425 O 0.46048 0.24623 0.2937 0.0
O426 O 0.47357 0.23251 0.30782 0.0
O427 O 0.47914 0.23529 0.2496 0.0
H428 H 0.4865 0.26482 0.25933 0.0
H429 H 0.49876 0.28441 0.27333 0.0
H430 H 0.47081 0.28733 0.30597 0.0
H431 H 0.4587 0.26782 0.29234 0.0
H432 H 0.41608 0.22101 0.2134 0.0
H433 H 0.43505 0.22802 0.23437 0.0
H434 H 0.41146 0.18819 0.20696 0.0
H435 H 0.43033 0.19527 0.22706 0.0
H436 H 0.48267 0.20183 0.25274 0.0
H437 H 0.50425 0.22326 0.33879 0.0
H438 H 0.49645 0.23523 0.33167 0.0
H439 H 0.4747 0.21381 0.24635 0.0
C440 C 0.76882 0.21181 0.27619 0.0
C441 C 0.76523 0.21712 0.30098 0.0
C442 C 0.74609 0.20324 0.28901 0.0
C443 C 0.75397 0.21286 0.30739 0.0
C444 C 0.74978 0.19806 0.26392 0.0
C445 C 0.76099 0.2023 0.25764 0.0
U446 U 0.79969 0.23406 0.26901 0.0
O447 O 0.81407 0.23309 0.28784 0.0
O448 O 0.81188 0.23506 0.22835 0.0
C449 C 0.8177 0.23352 0.2537 0.0
C450 C 0.78059 0.21568 0.26996 0.0
C451 C 0.8214 0.2256 0.24441 0.0
C452 C 0.81897 0.20894 0.21411 0.0
C453 C 0.81487 0.21589 0.22414 0.0
C454 C 0.83607 0.22123 0.24495 0.0
C455 C 0.82966 0.21154 0.22428 0.0
C456 C 0.83199 0.22815 0.25485 0.0
C457 C 0.80873 0.26493 0.28561 0.0
C458 C 0.82682 0.28036 0.30061 0.0
C459 C 0.81232 0.28378 0.28193 0.0
C460 C 0.80518 0.27244 0.27811 0.0
C461 C 0.82324 0.28793 0.29338 0.0
C462 C 0.81964 0.26897 0.29669 0.0
C463 C 0.8007 0.25299 0.28301 0.0
O464 O 0.78499 0.22146 0.23953 0.0
O465 O 0.78707 0.21953 0.29914 0.0
O466 O 0.80113 0.24663 0.30906 0.0
O467 O 0.79893 0.24858 0.24956 0.0
H468 H 0.7711 0.2245 0.31557 0.0
H469 H 0.75145 0.21715 0.32657 0.0
H470 H 0.74402 0.19056 0.24967 0.0
H471 H 0.76357 0.19803 0.23855 0.0
H472 H 0.81374 0.2015 0.19854 0.0
H473 H 0.80666 0.21373 0.21579 0.0
H474 H 0.84438 0.22364 0.25278 0.0
H475 H 0.8372 0.23563 0.27025 0.0
H476 H 0.83518 0.28323 0.30908 0.0
H477 H 0.80918 0.28928 0.27669 0.0
H478 H 0.79679 0.26951 0.26976 0.0
H479 H 0.82259 0.26333 0.30258 0.0
C480 C 0.57121 0.81506 0.70609 0.0
C481 C 0.55986 0.80869 0.71243 0.0
C482 C 0.55738 0.82397 0.69249 0.0
C483 C 0.55302 0.8131 0.70568 0.0
C484 C 0.56872 0.83019 0.68549 0.0
C485 C 0.57553 0.82579 0.69226 0.0
U486 U 0.57954 0.79259 0.71543 0.0
O487 O 0.59531 0.79383 0.70125 0.0
O488 O 0.58953 0.79082 0.75924 0.0
C489 C 0.59757 0.79284 0.73611 0.0
C490 C 0.57883 0.811 0.71503 0.0
C491 C 0.60885 0.80054 0.74929 0.0
C492 C 0.62638 0.81767 0.74451 0.0
C493 C 0.61541 0.81104 0.73349 0.0
C494 C 0.62431 0.80357 0.78792 0.0
C495 C 0.63104 0.81395 0.77148 0.0
C496 C 0.61339 0.79697 0.77691 0.0
C497 C 0.5584 0.76216 0.68948 0.0
C498 C 0.55788 0.74512 0.70716 0.0
C499 C 0.54614 0.74495 0.65776 0.0
C500 C 0.55041 0.75628 0.66239 0.0
C501 C 0.54975 0.73917 0.68016 0.0
C502 C 0.56217 0.75651 0.71174 0.0
C503 C 0.5622 0.77402 0.69463 0.0
O504 O 0.57648 0.80463 0.7445 0.0
O505 O 0.58242 0.80773 0.68671 0.0
O506 O 0.56968 0.78086 0.67114 0.0
O507 O 0.56386 0.77774 0.72907 0.0
H508 H 0.55632 0.80037 0.72309 0.0
H509 H 0.54435 0.80808 0.71167 0.0
H510 H 0.57237 0.8385 0.67466 0.0
H511 H 0.58424 0.83085 0.68704 0.0
H512 H 0.63131 0.82557 0.73104 0.0
H513 H 0.61213 0.81401 0.71209 0.0
H514 H 0.6275 0.80049 0.80926 0.0
H515 H 0.60851 0.78892 0.78957 0.0
H516 H 0.56096 0.74099 0.72465 0.0
H517 H 0.53979 0.74068 0.63714 0.0
H518 H 0.54732 0.76045 0.64507 0.0
H519 H 0.56836 0.76087 0.73282 0.0
C520 C 0.22008 0.76073 0.70677 0.0
C521 C 0.22492 0.7549 0.72156 0.0
C522 C 0.21092 0.73789 0.69207 0.0
C523 C 0.22039 0.7436 0.71423 0.0
C524 C 0.20632 0.74387 0.67657 0.0
C525 C 0.21083 0.75512 0.68391 0.0
U526 U 0.24213 0.79161 0.72098 0.0
O527 O 0.24117 0.80629 0.70488 0.0
O528 O 0.24271 0.80315 0.76387 0.0
C529 C 0.24123 0.80931 0.73964 0.0
C530 C 0.22396 0.77241 0.71628 0.0
C531 C 0.23322 0.81284 0.74953 0.0
C532 C 0.21837 0.8117 0.788 0.0
C533 C 0.22511 0.80746 0.77701 0.0
C534 C 0.22755 0.82656 0.7436 0.0
C535 C 0.21962 0.82143 0.77185 0.0
C536 C 0.23426 0.82234 0.7327 0.0
C537 C 0.27304 0.8016 0.70418 0.0
C538 C 0.28847 0.81771 0.6756 0.0
C539 C 0.29184 0.80708 0.72125 0.0
C540 C 0.28052 0.79998 0.72514 0.0
C541 C 0.29598 0.81596 0.69603 0.0
C542 C 0.27714 0.81063 0.67964 0.0
C543 C 0.26118 0.79324 0.70609 0.0
O544 O 0.22955 0.77626 0.74736 0.0
O545 O 0.22785 0.7795 0.68861 0.0
O546 O 0.25478 0.79371 0.68046 0.0
O547 O 0.25665 0.79083 0.73941 0.0
H548 H 0.23206 0.759 0.73933 0.0
H549 H 0.22412 0.73927 0.72682 0.0
H550 H 0.19918 0.73985 0.65878 0.0
H551 H 0.20695 0.75942 0.67213 0.0
H552 H 0.21242 0.80755 0.80998 0.0
H553 H 0.22411 0.80012 0.79057 0.0
H554 H 0.22863 0.83393 0.72997 0.0
H555 H 0.24044 0.82665 0.71148 0.0
H556 H 0.29135 0.82454 0.6563 0.0
H557 H 0.29734 0.80537 0.73711 0.0
H558 H 0.27761 0.79303 0.74394 0.0
H559 H 0.27162 0.81213 0.66301 0.0
C560 C 0.21938 0.46338 0.70311 0.0
C561 C 0.22617 0.47399 0.68867 0.0
C562 C 0.21069 0.47729 0.68699 0.0
C563 C 0.22187 0.4809 0.68075 0.0
C564 C 0.204 0.46667 0.70181 0.0
C565 C 0.2083 0.45982 0.70973 0.0
U566 U 0.24183 0.45511 0.71143 0.0
O567 O 0.24322 0.44448 0.75362 0.0
O568 O 0.24066 0.43939 0.69491 0.0
C569 C 0.24125 0.43663 0.72949 0.0
C570 C 0.22347 0.45574 0.71103 0.0
C571 C 0.23326 0.42513 0.74057 0.0
C572 C 0.21927 0.41169 0.78246 0.0
C573 C 0.2261 0.42265 0.77109 0.0
C574 C 0.22646 0.40548 0.73265 0.0
C575 C 0.21941 0.40295 0.76353 0.0
C576 C 0.2333 0.41641 0.72142 0.0
C577 C 0.27232 0.47649 0.68846 0.0
C578 C 0.28954 0.47833 0.71036 0.0
C579 C 0.28934 0.4879 0.65454 0.0
C580 C 0.27802 0.48345 0.65845 0.0
C581 C 0.29531 0.48553 0.68068 0.0
C582 C 0.27817 0.47386 0.71424 0.0
C583 C 0.2605 0.4727 0.69304 0.0
O584 O 0.22703 0.45261 0.68226 0.0
O585 O 0.22965 0.45787 0.74076 0.0
O586 O 0.25653 0.47067 0.72718 0.0
O587 O 0.25381 0.46552 0.66851 0.0
H588 H 0.23476 0.4769 0.6833 0.0
H589 H 0.22726 0.48897 0.66912 0.0
H590 H 0.19542 0.46366 0.70768 0.0
H591 H 0.20292 0.45168 0.72099 0.0
H592 H 0.21387 0.41007 0.80608 0.0
H593 H 0.22586 0.42917 0.78647 0.0
H594 H 0.22694 0.39902 0.71769 0.0
H595 H 0.23881 0.41808 0.69806 0.0
H596 H 0.29384 0.47637 0.7312 0.0
H597 H 0.29342 0.49321 0.63093 0.0
H598 H 0.27371 0.48559 0.63819 0.0
H599 H 0.27399 0.46852 0.73771 0.0
C600 C 0.43567 0.89507 0.61458 0.0
C601 C 0.43214 0.88664 0.64129 0.0
C602 C 0.41298 0.88092 0.62845 0.0
C603 C 0.42091 0.87965 0.64822 0.0
C604 C 0.4166 0.8893 0.60141 0.0
C605 C 0.4278 0.89628 0.59462 0.0
U606 U 0.46645 0.90372 0.60814 0.0
O607 O 0.47875 0.91456 0.567 0.0
O608 O 0.48087 0.91931 0.62606 0.0
C609 C 0.48447 0.92225 0.59175 0.0
C610 C 0.44742 0.903 0.60784 0.0
C611 C 0.48811 0.93382 0.58122 0.0
C612 C 0.48757 0.94749 0.54055 0.0
C613 C 0.48326 0.93649 0.55184 0.0
C614 C 0.50144 0.95334 0.58841 0.0
C615 C 0.49684 0.95606 0.55833 0.0
C616 C 0.49715 0.94238 0.5996 0.0
C617 C 0.47495 0.88175 0.62902 0.0
C618 C 0.4932 0.884 0.62415 0.0
C619 C 0.47799 0.86666 0.64527 0.0
C620 C 0.47097 0.87095 0.64158 0.0
C621 C 0.4892 0.87308 0.63643 0.0
C622 C 0.48613 0.88829 0.6204 0.0
C623 C 0.46714 0.88581 0.62493 0.0
O624 O 0.45393 0.906 0.63701 0.0
O625 O 0.45179 0.90131 0.57792 0.0
O626 O 0.46559 0.88824 0.59092 0.0
O627 O 0.46772 0.89292 0.64999 0.0
H628 H 0.43805 0.88551 0.65699 0.0
H629 H 0.41844 0.87322 0.66893 0.0
H630 H 0.41079 0.89066 0.58601 0.0
H631 H 0.43032 0.90276 0.57404 0.0
H632 H 0.48384 0.94922 0.51712 0.0
H633 H 0.47628 0.93008 0.53706 0.0
H634 H 0.50843 0.95969 0.60332 0.0
H635 H 0.50104 0.94056 0.62232 0.0
H636 H 0.50175 0.88916 0.61683 0.0
H637 H 0.47462 0.85832 0.65547 0.0
H638 H 0.46238 0.86578 0.64853 0.0
H639 H 0.48936 0.89665 0.61062 0.0
C640 C 0.13792 0.59781 0.60526 0.0
C641 C 0.14756 0.60143 0.62606 0.0
C642 C 0.15168 0.62053 0.62095 0.0
C643 C 0.15439 0.6127 0.63379 0.0
C644 C 0.14211 0.61681 0.59951 0.0
C645 C 0.13533 0.6056 0.59183 0.0
U646 U 0.12979 0.56703 0.59604 0.0
O647 O 0.11441 0.55231 0.61377 0.0
O648 O 0.11894 0.55491 0.55452 0.0
C649 C 0.11142 0.54889 0.57935 0.0
C650 C 0.13021 0.58601 0.59798 0.0
C651 C 0.09987 0.54516 0.56954 0.0
C652 C 0.086 0.54694 0.53457 0.0
C653 C 0.09696 0.55119 0.54549 0.0
C654 C 0.08068 0.53074 0.57227 0.0
C655 C 0.07772 0.53656 0.54739 0.0
C656 C 0.0916 0.53498 0.5831 0.0
C657 C 0.15185 0.55851 0.61316 0.0
C658 C 0.14982 0.5408 0.63086 0.0
C659 C 0.16732 0.55539 0.60845 0.0
C660 C 0.16283 0.56223 0.60394 0.0
C661 C 0.16093 0.54462 0.62244 0.0
C662 C 0.14533 0.54769 0.62632 0.0
C663 C 0.14773 0.56635 0.6106 0.0
O664 O 0.13191 0.58189 0.56742 0.0
O665 O 0.12749 0.57933 0.62673 0.0
O666 O 0.14076 0.56563 0.63639 0.0
O667 O 0.14525 0.56821 0.57711 0.0
H668 H 0.14973 0.59555 0.63669 0.0
H669 H 0.16165 0.61524 0.65053 0.0
H670 H 0.13986 0.62257 0.58847 0.0
H671 H 0.12796 0.60299 0.57558 0.0
H672 H 0.08407 0.55164 0.51522 0.0
H673 H 0.10317 0.55908 0.5346 0.0
H674 H 0.07455 0.52285 0.58338 0.0
H675 H 0.09362 0.53019 0.60173 0.0
H676 H 0.14467 0.5326 0.64191 0.0
H677 H 0.17582 0.55857 0.60096 0.0
H678 H 0.16802 0.57054 0.59368 0.0
H679 H 0.13683 0.54461 0.63367 0.0
C680 C 0.43538 0.54421 0.61263 0.0
C681 C 0.43165 0.55091 0.62837 0.0
C682 C 0.41277 0.53547 0.62812 0.0
C683 C 0.42045 0.54659 0.63601 0.0
C684 C 0.41662 0.52887 0.61205 0.0
C685 C 0.42777 0.53319 0.60446 0.0
U686 U 0.46614 0.56676 0.60322 0.0
O687 O 0.48066 0.56557 0.61791 0.0
O688 O 0.47786 0.56819 0.55959 0.0
C689 C 0.4839 0.56633 0.58305 0.0
C690 C 0.44709 0.54833 0.60454 0.0
C691 C 0.48753 0.55859 0.57054 0.0
C692 C 0.48795 0.54147 0.5762 0.0
C693 C 0.4836 0.54815 0.5868 0.0
C694 C 0.50001 0.55542 0.53237 0.0
C695 C 0.49636 0.5451 0.54922 0.0
C696 C 0.49567 0.56207 0.54294 0.0
C697 C 0.47586 0.59762 0.62347 0.0
C698 C 0.4918 0.61308 0.65268 0.0
C699 C 0.4815 0.61655 0.60622 0.0
C700 C 0.4744 0.60519 0.60226 0.0
C701 C 0.49024 0.62067 0.63173 0.0
C702 C 0.4847 0.60169 0.64859 0.0
C703 C 0.46759 0.58569 0.62084 0.0
O704 O 0.45112 0.55447 0.57461 0.0
O705 O 0.45382 0.55197 0.6331 0.0
O706 O 0.46812 0.57904 0.64551 0.0
O707 O 0.46518 0.58143 0.58713 0.0
H708 H 0.4374 0.55945 0.63491 0.0
H709 H 0.41782 0.5519 0.64862 0.0
H710 H 0.41099 0.52036 0.6049 0.0
H711 H 0.43046 0.52789 0.59213 0.0
H712 H 0.48497 0.53361 0.58995 0.0
H713 H 0.47732 0.54525 0.60818 0.0
H714 H 0.5063 0.55843 0.511 0.0
H715 H 0.49882 0.57006 0.52993 0.0
H716 H 0.4985 0.61593 0.6723 0.0
H717 H 0.47991 0.62211 0.59001 0.0
H718 H 0.46759 0.60232 0.58306 0.0
H719 H 0.48607 0.5961 0.6655 0.0
H720 H 0.2095 0.06096 0.95167 0.0
H721 H 0.20041 0.041 0.9443 0.0
H722 H 0.20272 0.03733 0.06276 0.0
H723 H 0.21177 0.05736 0.07046 0.0
H724 H 0.20716 0.02334 0.02395 0.0
H725 H 0.17876 0.03259 0.02426 0.0
H726 H 0.16941 0.04258 0.00423 0.0
H727 H 0.16676 0.03018 0.89286 0.0
H728 H 0.17624 0.02023 0.91212 0.0
H729 H 0.16676 0.96594 0.03133 0.0
H730 H 0.1777 0.98588 0.04021 0.0
H731 H 0.17487 0.99084 0.923 0.0
H732 H 0.16396 0.97093 0.9139 0.0
H733 H 0.17075 1.0042 0.9628 0.0
H734 H 0.19914 0.99485 0.96257 0.0
H735 H 0.20853 0.98491 0.98273 0.0
H736 H 0.21117 0.99738 0.09399 0.0
H737 H 0.20166 1.00728 0.07461 0.0
C738 C 0.20805 0.05593 0.97626 0.0
C739 C 0.21129 0.06083 0.01175 0.0
C740 C 0.20286 0.04449 0.97196 0.0
C741 C 0.2007 0.0376 0.00303 0.0
C742 C 0.20427 0.04245 0.03834 0.0
C743 C 0.20948 0.05393 0.04268 0.0
C744 C 0.19445 0.02535 -0.00133 0.0
C745 C 0.19914 0.01913 0.01102 0.0
C746 C 0.18405 0.01983 0.98119 0.0
C747 C 0.1783 0.02575 0.96956 0.0
C748 C 0.17626 0.03206 -0.00456 0.0
C749 C 0.17092 0.0377 0.98423 0.0
C750 C 0.16752 0.03704 0.94727 0.0
C751 C 0.16941 0.0307 0.92147 0.0
C752 C 0.17476 0.02505 0.93252 0.0
C753 C 0.16861 0.97125 0.00728 0.0
C754 C 0.16443 0.96677 0.97187 0.0
C755 C 0.17487 0.98269 0.01243 0.0
C756 C 0.17721 0.98993 0.98225 0.0
C757 C 0.17317 0.98547 0.94681 0.0
C758 C 0.16689 0.97405 0.94166 0.0
C759 C 0.1835 1.00215 0.98771 0.0
C760 C 0.17879 1.00837 0.97568 0.0
C761 C 0.19386 1.00765 0.0055 0.0
C762 C 0.19959 1.00171 0.01722 0.0
C763 C 0.20165 0.9954 0.99141 0.0
C764 C 0.207 0.98979 0.00268 0.0
C765 C 0.21042 0.99049 0.03964 0.0
C766 C 0.20851 0.99683 0.06538 0.0
C767 C 0.20314 1.00245 0.05426 0.0
H768 H 0.21457 0.98614 0.04831 0.0
H769 H 0.16339 0.04141 0.93865 0.0
H770 H 0.97569 0.17061 0.03536 0.0
H771 H 0.9956 0.18179 0.02839 0.0
H772 H 0.99671 0.15335 0.98859 0.0
H773 H 0.9769 0.14205 -0.00325 0.0
H774 H 1.01311 0.16467 0.03562 0.0
H775 H 0.99868 0.17361 0.92856 0.0
H776 H 0.98742 0.17976 0.89525 0.0
H777 H 1.00424 0.21096 0.95138 0.0
H778 H 1.01551 0.20494 0.98543 0.0
H779 H 0.06678 0.193 0.95489 0.0
H780 H 0.04707 0.18162 0.96652 0.0
H781 H 0.04617 0.21017 0.00625 0.0
H782 H 0.06582 0.22156 -0.0051 0.0
H783 H 0.02968 0.19882 0.95983 0.0
H784 H 0.04433 0.18998 0.06624 0.0
H785 H 0.0556 0.18383 0.09941 0.0
H786 H 0.03843 0.15246 0.04445 0.0
H787 H 0.02715 0.15848 0.01053 0.0
C788 C 0.98017 0.1667 0.02545 0.0
C789 C 0.97461 0.15541 0.01638 0.0
C790 C 0.99157 0.17314 0.02112 0.0
C791 C 0.9977 0.16848 0.00744 0.0
C792 C 0.9922 0.15718 -0.00098 0.0
C793 C 0.98082 0.15074 0.00335 0.0
C794 C 1.00982 0.17534 0.00175 0.0
C795 C 1.01671 0.17206 0.01866 0.0
C796 C 1.01461 0.18514 0.98028 0.0
C797 C 1.00786 0.18878 0.95982 0.0
C798 C 0.99992 0.18175 0.93402 0.0
C799 C 0.99354 0.18522 0.91497 0.0
C800 C 0.99509 0.19573 0.92127 0.0
C801 C 1.00303 0.20281 0.94658 0.0
C802 C 1.00942 0.19938 0.96573 0.0
C803 C 0.06242 0.19684 0.96658 0.0
C804 C 0.06794 0.20824 0.9738 0.0
C805 C 0.05113 0.19031 0.97319 0.0
C806 C 0.04508 0.19499 0.9875 0.0
C807 C 0.05059 0.20634 -0.00497 0.0
C808 C 0.06186 0.21287 0.9884 0.0
C809 C 0.03298 0.18817 0.99373 0.0
C810 C 0.02609 0.19144 0.97686 0.0
C811 C 0.0282 0.17837 0.01521 0.0
C812 C 0.03497 0.17473 0.03556 0.0
C813 C 0.04302 0.1818 0.06099 0.0
C814 C 0.0494 0.17833 0.07997 0.0
C815 C 0.04776 0.16777 0.07396 0.0
C816 C 0.03971 0.16065 0.04903 0.0
C817 C 0.03331 0.16408 0.02994 0.0
H818 H 0.0527 0.1651 0.0887 0.0
H819 H 0.99015 0.1984 0.90649 0.0
H820 H 0.86153 0.80717 0.96539 0.0
H821 H 0.85315 0.81856 0.9558 0.0
H822 H 0.87307 0.84033 0.04381 0.0
H823 H 0.88124 0.82876 0.05442 0.0
H824 H 0.85244 0.83588 0.05092 0.0
H825 H 0.87843 0.84761 0.95064 0.0
H826 H 0.88755 0.84535 0.89534 0.0
H827 H 0.8572 0.83086 0.8351 0.0
H828 H 0.84786 0.8329 0.89023 0.0
H829 H 0.84284 0.87997 0.0145 0.0
H830 H 0.851 0.86836 0.02262 0.0
H831 H 0.83056 0.84693 0.93483 0.0
H832 H 0.82258 0.85876 0.92564 0.0
H833 H 0.85118 0.85096 0.92715 0.0
H834 H 0.82524 0.83941 0.02744 0.0
H835 H 0.81619 0.84179 0.08273 0.0
H836 H 0.84654 0.85603 0.14298 0.0
H837 H 0.8558 0.85386 0.08786 0.0
C838 C 0.86411 0.81435 0.98287 0.0
C839 C 0.87208 0.817 0.01077 0.0
C840 C 0.85938 0.82094 0.97707 0.0
C841 C 0.86252 0.8304 -0.00119 0.0
C842 C 0.8705 0.8331 0.02657 0.0
C843 C 0.87525 0.82652 0.03238 0.0
C844 C 0.8573 0.8373 0.99327 0.0
C845 C 0.85231 0.8393 0.02394 0.0
C846 C 0.85683 0.84155 0.95789 0.0
C847 C 0.86242 0.8403 0.9247 0.0
C848 C 0.87368 0.84386 0.92571 0.0
C849 C 0.8789 0.84263 0.89437 0.0
C850 C 0.87295 0.83793 0.86176 0.0
C851 C 0.86179 0.83448 0.86039 0.0
C852 C 0.85653 0.83568 0.89167 0.0
C853 C 0.8401 0.87283 -0.00332 0.0
C854 C 0.83204 0.87036 0.96929 0.0
C855 C 0.84471 0.86612 0.00165 0.0
C856 C 0.84134 0.85667 0.97963 0.0
C857 C 0.83329 0.85414 0.95227 0.0
C858 C 0.82866 0.86087 0.94727 0.0
C859 C 0.84636 0.84956 0.98484 0.0
C860 C 0.8513 0.84752 0.95411 0.0
C861 C 0.84679 0.84528 0.02017 0.0
C862 C 0.84124 0.84656 0.0534 0.0
C863 C 0.83 0.84312 0.05238 0.0
C864 C 0.82483 0.84442 0.08371 0.0
C865 C 0.83079 0.84908 0.11632 0.0
C866 C 0.84193 0.85243 0.11769 0.0
C867 C 0.84715 0.85116 0.08643 0.0
H868 H 0.82677 0.85008 0.14054 0.0
H869 H 0.87701 0.83699 0.83752 0.0
H870 H 0.86887 0.05402 0.08264 0.0
H871 H 0.86014 0.03441 0.06811 0.0
H872 H 0.86918 0.04215 0.95245 0.0
H873 H 0.87762 0.06181 0.96657 0.0
H874 H 0.84846 0.02616 0.95784 0.0
H875 H 0.8823 0.03268 0.01056 0.0
H876 H 0.89697 0.03914 0.05759 0.0
H877 H 0.87399 0.01695 0.13833 0.0
H878 H 0.85914 1.01046 0.09191 0.0
H879 H 0.83314 0.97162 0.90407 0.0
H880 H 0.84393 0.99133 0.91746 0.0
H881 H 0.83525 0.98487 0.03383 0.0
H882 H 0.82444 0.96513 0.02064 0.0
H883 H 0.85635 1.00029 0.02675 0.0
H884 H 0.82243 0.99437 0.97459 0.0
H885 H 0.80779 0.98788 0.92745 0.0
H886 H 0.83107 1.00907 0.84551 0.0
H887 H 0.84589 0.01557 0.89206 0.0
C888 C 0.86898 0.05158 0.05405 0.0
C889 C 0.87395 0.05956 0.02579 0.0
C890 C 0.86408 0.04032 0.04583 0.0
C891 C 0.86407 0.03674 0.0092 0.0
C892 C 0.86909 0.04468 0.98096 0.0
C893 C 0.87401 0.05595 0.98915 0.0
C894 C 0.85847 0.02472 0.00018 0.0
C895 C 0.85034 0.02055 0.97252 0.0
C896 C 0.86068 0.01728 0.01985 0.0
C897 C 0.86959 0.02116 0.04784 0.0
C898 C 0.88036 0.02924 0.03842 0.0
C899 C 0.88871 0.03289 0.06496 0.0
C900 C 0.88641 0.02848 0.10095 0.0
C901 C 0.87576 0.02038 0.11045 0.0
C902 C 0.86737 0.0167 0.08403 0.0
C903 C 0.83348 0.97438 0.93252 0.0
C904 C 0.82782 0.96675 0.9612 0.0
C905 C 0.83968 0.98568 0.94016 0.0
C906 C 0.84029 0.98966 0.9766 0.0
C907 C 0.83492 0.98204 0.00548 0.0
C908 C 0.82875 0.97073 -0.00211 0.0
C909 C 0.84634 1.00176 0.98449 0.0
C910 C 0.85453 1.00593 0.01197 0.0
C911 C 0.8442 1.00921 0.96466 0.0
C912 C 0.83529 1.00537 0.93671 0.0
C913 C 0.82444 0.99758 0.94645 0.0
C914 C 0.81611 0.99391 0.91985 0.0
C915 C 0.8185 0.99804 0.88348 0.0
C916 C 0.82923 1.00587 0.87367 0.0
C917 C 0.8376 1.00955 0.90016 0.0
H918 H 0.81204 0.99519 0.86292 0.0
H919 H 0.89289 0.03132 0.12145 0.0
H920 H 0.06318 0.86614 0.91463 0.0
H921 H 0.04338 0.85738 0.92361 0.0
H922 H 0.04733 0.85356 0.0409 0.0
H923 H 0.06717 0.86228 0.03206 0.0
H924 H 0.03069 0.83522 0.01472 0.0
H925 H 0.04153 0.87341 0.00746 0.0
H926 H 0.0505 0.89204 0.98015 0.0
H927 H 0.03047 0.8794 0.88231 0.0
H928 H 0.02148 0.86066 0.90883 0.0
H929 H 0.97624 0.82156 0.06721 0.0
H930 H 0.99613 0.83015 0.06049 0.0
H931 H 0.99331 0.83378 0.94228 0.0
H932 H 0.97344 0.82515 0.94872 0.0
H933 H 1.00943 0.8524 0.97059 0.0
H934 H 0.99876 0.81411 0.97806 0.0
H935 H 0.98982 0.79555 0.00586 0.0
H936 H 1.00954 0.80851 0.10422 0.0
H937 H 1.0185 0.82719 0.07719 0.0
C938 C 0.05987 0.86358 0.94246 0.0
C939 C 0.06683 0.86498 0.97263 0.0
C940 C 0.04851 0.85854 0.94757 0.0
C941 C 0.0438 0.85489 0.98306 0.0
C942 C 0.05072 0.85626 0.01322 0.0
C943 C 0.06208 0.86125 0.0081 0.0
C944 C 0.03166 0.84949 0.98857 0.0
C945 C 0.02608 0.83906 0.00556 0.0
C946 C 0.02553 0.85435 0.97599 0.0
C947 C 0.03091 0.86562 0.96 0.0
C948 C 0.0391 0.87459 0.98 0.0
C949 C 0.04417 0.88517 0.96469 0.0
C950 C 0.04108 0.8869 0.92948 0.0
C951 C 0.03287 0.87805 0.90956 0.0
C952 C 0.02778 0.86745 0.92473 0.0
C953 C 0.97982 0.82403 0.03968 0.0
C954 C 0.97318 0.82266 0.00854 0.0
C955 C 0.99123 0.82898 0.03587 0.0
C956 C 0.99628 0.83259 0.00081 0.0
C957 C 0.98966 0.83114 0.96968 0.0
C958 C 0.97827 0.82621 0.97345 0.0
C959 C 1.00846 0.83811 -0.00345 0.0
C960 C 1.01405 0.84857 0.97982 0.0
C961 C 1.01459 0.83329 0.00947 0.0
C962 C 1.00921 0.82207 0.02576 0.0
C963 C 1.00112 0.81302 0.00574 0.0
C964 C 0.99607 0.80247 0.02134 0.0
C965 C 0.99909 0.80085 0.05683 0.0
C966 C 1.00719 0.80978 0.07676 0.0
C967 C 1.01227 0.82035 0.0613 0.0
H968 H 0.99516 0.79268 0.06885 0.0
H969 H 0.04502 0.8951 0.91767 0.0
H970 H 0.23062 0.17919 0.0136 0.0
H971 H 0.21915 0.18738 0.00282 0.0
H972 H 0.19017 0.15572 0.01934 0.0
H973 H 0.20163 0.14745 0.03041 0.0
H974 H 0.18753 0.16625 0.96116 0.0
H975 H 0.19952 0.17553 0.08771 0.0
H976 H 0.21298 0.18301 0.13883 0.0
H977 H 0.22829 0.21501 0.08797 0.0
H978 H 0.21501 0.20768 0.03625 0.0
H979 H 0.14989 0.1854 0.98665 0.0
H980 H 0.16142 0.17716 -0.00537 0.0
H981 H 0.1903 0.20894 0.97873 0.0
H982 H 0.17879 0.21734 0.9719 0.0
H983 H 0.19305 0.19838 0.03615 0.0
H984 H 0.1808 0.18906 0.90984 0.0
H985 H 0.16725 0.18149 0.85901 0.0
H986 H 0.15229 0.14948 0.90974 0.0
H987 H 0.16567 0.1569 0.96118 0.0
C988 C 0.22181 0.17396 0.0153 0.0
C989 C 0.21709 0.16265 0.0233 0.0
C990 C 0.21524 0.17867 0.00903 0.0
C991 C 0.20377 0.17223 0.01081 0.0
C992 C 0.199 0.16089 0.01785 0.0
C993 C 0.20558 0.15615 0.02409 0.0
C994 C 0.19678 0.17737 0.00556 0.0
C995 C 0.18864 0.17318 0.97791 0.0
C996 C 0.19836 0.18659 0.02678 0.0
C997 C 0.20633 0.19103 0.05792 0.0
C998 C 0.20581 0.18414 0.08728 0.0
C999 C 0.2134 0.18836 0.11639 0.0
C1000 C 0.22151 0.19947 0.1166 0.0
C1001 C 0.22202 0.2064 0.08774 0.0
C1002 C 0.21445 0.20222 0.05854 0.0
C1003 C 0.1587 0.19069 0.98511 0.0
C1004 C 0.16338 0.20208 0.97871 0.0
C1005 C 0.1653 0.18592 0.98928 0.0
C1006 C 0.17676 0.19237 0.98689 0.0
C1007 C 0.18148 0.20375 0.98058 0.0
C1008 C 0.17488 0.20854 0.97637 0.0
C1009 C 0.1838 0.18728 0.99169 0.0
C1010 C 0.19195 0.19147 0.01932 0.0
C1011 C 0.18221 0.17805 0.9705 0.0
C1012 C 0.17418 0.17356 0.93955 0.0
C1013 C 0.17457 0.18043 0.91031 0.0
C1014 C 0.16693 0.17616 0.88136 0.0
C1015 C 0.1589 0.16502 0.8812 0.0
C1016 C 0.15851 0.15812 0.90993 0.0
C1017 C 0.16612 0.16234 0.93897 0.0
H1018 H 0.15299 0.16173 0.85876 0.0
H1019 H 0.22738 0.20272 0.13916 0.0
H1020 H 0.82484 0.30472 0.24953 0.0
H1021 H 0.83612 0.32452 0.25951 0.0
H1022 H 0.85012 0.31868 0.35757 0.0
H1023 H 0.83852 0.29878 0.3485 0.0
H1024 H 0.84496 0.33412 0.37163 0.0
H1025 H 0.86486 0.32826 0.27518 0.0
H1026 H 0.86757 0.32151 0.21478 0.0
H1027 H 0.85716 0.34146 0.15701 0.0
H1028 H 0.85424 0.34822 0.2171 0.0
H1029 H 0.88455 0.39129 0.39102 0.0
H1030 H 0.87628 0.37138 0.38211 0.0
H1031 H 0.86023 0.3733 0.28256 0.0
H1032 H 0.86876 0.39319 0.29049 0.0
H1033 H 0.86785 0.35972 0.27132 0.0
H1034 H 0.84667 0.36442 0.36811 0.0
H1035 H 0.84391 0.37109 0.4286 0.0
H1036 H 0.85686 0.35324 0.48576 0.0
H1037 H 0.85984 0.34658 0.42554 0.0
C1038 C 0.83027 0.30761 0.27335 0.0
C1039 C 0.83071 0.30008 0.29824 0.0
C1040 C 0.83684 0.31899 0.2788 0.0
C1041 C 0.84411 0.32318 0.30909 0.0
C1042 C 0.84462 0.3157 0.3339 0.0
C1043 C 0.83804 0.30429 0.32847 0.0
C1044 C 0.85087 0.33534 0.31538 0.0
C1045 C 0.85012 0.33969 0.34988 0.0
C1046 C 0.85748 0.34269 0.2869 0.0
C1047 C 0.85925 0.33867 0.25068 0.0
C1048 C 0.86307 0.33115 0.24961 0.0
C1049 C 0.86466 0.32733 0.21543 0.0
C1050 C 0.86251 0.33104 0.18208 0.0
C1051 C 0.8588 0.33859 0.18286 0.0
C1052 C 0.8572 0.34242 0.21698 0.0
C1053 C 0.87938 0.3875 0.36695 0.0
C1054 C 0.87727 0.3939 0.34169 0.0
C1055 C 0.87456 0.37607 0.36208 0.0
C1056 C 0.86746 0.37074 0.33195 0.0
C1057 C 0.86561 0.37715 0.30615 0.0
C1058 C 0.87042 0.38855 0.31095 0.0
C1059 C 0.86181 0.3585 0.32735 0.0
C1060 C 0.86277 0.35413 0.29317 0.0
C1061 C 0.8554 0.35113 0.35612 0.0
C1062 C 0.85359 0.3551 0.39231 0.0
C1063 C 0.84901 0.36199 0.39356 0.0
C1064 C 0.84739 0.36575 0.4278 0.0
C1065 C 0.85024 0.36261 0.46099 0.0
C1066 C 0.85468 0.35568 0.46002 0.0
C1067 C 0.85633 0.3519 0.42585 0.0
H1068 H 0.84898 0.36554 0.48747 0.0
H1069 H 0.86374 0.32808 0.15564 0.0
H1070 H 0.64388 0.47469 0.33619 0.0
H1071 H 0.66362 0.48619 0.3271 0.0
H1072 H 0.66187 0.5149 0.35916 0.0
H1073 H 0.64207 0.50341 0.36861 0.0
H1074 H 0.67483 0.51927 0.29928 0.0
H1075 H 0.67194 0.50293 0.41902 0.0
H1076 H 0.66573 0.48777 0.46441 0.0
H1077 H 0.68169 0.47382 0.40102 0.0
H1078 H 0.68787 0.48883 0.35494 0.0
H1079 H 0.73191 0.5552 0.32322 0.0
H1080 H 0.71226 0.54371 0.33434 0.0
H1081 H 0.71375 0.51492 0.3014 0.0
H1082 H 0.73346 0.5264 0.28993 0.0
H1083 H 0.70094 0.51065 0.36217 0.0
H1084 H 0.7037 0.52694 0.2422 0.0
H1085 H 0.70994 0.54216 0.19698 0.0
H1086 H 0.69422 0.55623 0.26108 0.0
H1087 H 0.68802 0.54117 0.307 0.0
C1088 C 0.64768 0.48343 0.34177 0.0
C1089 C 0.64132 0.48807 0.3535 0.0
C1090 C 0.659 0.49002 0.33646 0.0
C1091 C 0.66432 0.50143 0.34293 0.0
C1092 C 0.65799 0.50613 0.35401 0.0
C1093 C 0.64664 0.49954 0.3593 0.0
C1094 C 0.67645 0.50842 0.33784 0.0
C1095 C 0.68054 0.51747 0.31349 0.0
C1096 C 0.68394 0.50597 0.35561 0.0
C1097 C 0.68027 0.49695 0.38334 0.0
C1098 C 0.67405 0.49659 0.4146 0.0
C1099 C 0.67055 0.48803 0.44048 0.0
C1100 C 0.67329 0.47982 0.43556 0.0
C1101 C 0.67957 0.48017 0.40478 0.0
C1102 C 0.68307 0.48871 0.37879 0.0
C1103 C 0.72808 0.54643 0.31801 0.0
C1104 C 0.73432 0.54178 0.30527 0.0
C1105 C 0.7168 0.53985 0.32448 0.0
C1106 C 0.71143 0.52844 0.31818 0.0
C1107 C 0.71767 0.5237 0.30642 0.0
C1108 C 0.72897 0.53029 0.29997 0.0
C1109 C 0.69932 0.52149 0.32361 0.0
C1110 C 0.69523 0.51245 0.348 0.0
C1111 C 0.69182 0.52396 0.30589 0.0
C1112 C 0.69549 0.53299 0.27822 0.0
C1113 C 0.70165 0.53333 0.2468 0.0
C1114 C 0.70516 0.54191 0.22102 0.0
C1115 C 0.7025 0.55017 0.2262 0.0
C1116 C 0.69629 0.54983 0.25713 0.0
C1117 C 0.69276 0.54127 0.28303 0.0
H1118 H 0.70523 0.55681 0.20621 0.0
H1119 H 0.67058 0.4732 0.45563 0.0
H1120 H 0.55462 0.167 0.35128 0.0
H1121 H 0.54641 0.17842 0.33818 0.0
H1122 H 0.51461 0.14923 0.32873 0.0
H1123 H 0.5228 0.13777 0.3405 0.0
H1124 H 0.51711 0.16352 0.27551 0.0
H1125 H 0.52248 0.16538 0.40827 0.0
H1126 H 0.53306 0.1688 0.46631 0.0
H1127 H 0.55405 0.20254 0.43442 0.0
H1128 H 0.54367 0.19928 0.37592 0.0
H1129 H 0.48431 0.18896 0.29461 0.0
H1130 H 0.49294 0.17768 0.30211 0.0
H1131 H 0.52453 0.20708 0.31284 0.0
H1132 H 0.51599 0.21838 0.30529 0.0
H1133 H 0.52231 0.19279 0.36473 0.0
H1134 H 0.51675 0.19108 0.23247 0.0
H1135 H 0.5062 0.18767 0.17437 0.0
H1136 H 0.48562 0.15375 0.20502 0.0
H1137 H 0.49596 0.15699 0.26358 0.0
C1138 C 0.5459 0.16299 0.34598 0.0
C1139 C 0.53938 0.15144 0.3473 0.0
C1140 C 0.54119 0.16955 0.33884 0.0
C1141 C 0.52984 0.16472 0.33301 0.0
C1142 C 0.52337 0.15319 0.33332 0.0
C1143 C 0.52807 0.14664 0.34044 0.0
C1144 C 0.52465 0.17165 0.32708 0.0
C1145 C 0.51815 0.16983 0.29526 0.0
C1146 C 0.52615 0.18007 0.35235 0.0
C1147 C 0.53237 0.18205 0.38755 0.0
C1148 C 0.52941 0.17351 0.4135 0.0
C1149 C 0.53536 0.17542 0.4465 0.0
C1150 C 0.54424 0.18587 0.454 0.0
C1151 C 0.54717 0.19444 0.42855 0.0
C1152 C 0.54126 0.19257 0.39548 0.0
C1153 C 0.49311 0.19304 0.29813 0.0
C1154 C 0.49942 0.20461 0.29946 0.0
C1155 C 0.49805 0.18656 0.30245 0.0
C1156 C 0.50943 0.1915 0.30782 0.0
C1157 C 0.51574 0.20304 0.30894 0.0
C1158 C 0.51082 0.20951 0.30472 0.0
C1159 C 0.51477 0.18468 0.31313 0.0
C1160 C 0.52128 0.1865 0.34489 0.0
C1161 C 0.51328 0.17628 0.28779 0.0
C1162 C 0.50706 0.1743 0.25259 0.0
C1163 C 0.50992 0.18291 0.22697 0.0
C1164 C 0.50399 0.18101 0.19392 0.0
C1165 C 0.49523 0.17051 0.18605 0.0
C1166 C 0.4924 0.16189 0.21118 0.0
C1167 C 0.4983 0.16375 0.24429 0.0
H1168 H 0.49065 0.16905 0.16045 0.0
H1169 H 0.54884 0.18734 0.47956 0.0
H1170 H 0.5288 0.3873 0.40384 0.0
H1171 H 0.52042 0.36766 0.39072 0.0
H1172 H 0.54112 0.37482 0.2939 0.0
H1173 H 0.54934 0.39459 0.30622 0.0
H1174 H 0.52055 0.35954 0.27755 0.0
H1175 H 0.54571 0.3642 0.37401 0.0
H1176 H 0.55484 0.37022 0.43505 0.0
H1177 H 0.52425 0.34963 0.49081 0.0
H1178 H 0.5149 0.3436 0.43009 0.0
H1179 H 0.50361 0.30274 0.25048 0.0
H1180 H 0.51504 0.32251 0.26236 0.0
H1181 H 0.49589 0.31931 0.36044 0.0
H1182 H 0.48466 0.29952 0.34939 0.0
H1183 H 0.51723 0.33273 0.37408 0.0
H1184 H 0.492 0.32921 0.27713 0.0
H1185 H 0.48297 0.32325 0.21589 0.0
H1186 H 0.51408 0.34177 0.16085 0.0
H1187 H 0.52331 0.34772 0.22183 0.0
C1188 C 0.53156 0.38474 0.37961 0.0
C1189 C 0.53975 0.39259 0.35603 0.0
C1190 C 0.52683 0.37345 0.37236 0.0
C1191 C 0.53019 0.36969 0.34152 0.0
C1192 C 0.53839 0.37749 0.31796 0.0
C1193 C 0.54315 0.38881 0.32522 0.0
C1194 C 0.5249 0.35763 0.33347 0.0
C1195 C 0.52001 0.3537 0.29847 0.0
C1196 C 0.52399 0.34993 0.36086 0.0
C1197 C 0.52958 0.35352 0.39747 0.0
C1198 C 0.54091 0.36102 0.39928 0.0
C1199 C 0.54613 0.36442 0.43383 0.0
C1200 C 0.54012 0.36033 0.46679 0.0
C1201 C 0.52889 0.3528 0.46526 0.0
C1202 C 0.52363 0.34938 0.43078 0.0
C1203 C 0.50191 0.3062 0.27486 0.0
C1204 C 0.49314 0.29949 0.29882 0.0
C1205 C 0.5084 0.31756 0.28143 0.0
C1206 C 0.50626 0.32248 0.31204 0.0
C1207 C 0.4977 0.31575 0.33654 0.0
C1208 C 0.49121 0.30442 0.32997 0.0
C1209 C 0.51276 0.33464 0.31839 0.0
C1210 C 0.51787 0.33858 0.35308 0.0
C1211 C 0.5139 0.34235 0.29068 0.0
C1212 C 0.50836 0.33881 0.25403 0.0
C1213 C 0.49692 0.33194 0.25197 0.0
C1214 C 0.49177 0.32858 0.21731 0.0
C1215 C 0.49795 0.3321 0.1845 0.0
C1216 C 0.5093 0.33903 0.18629 0.0
C1217 C 0.5145 0.34241 0.22089 0.0
H1218 H 0.49395 0.32949 0.15769 0.0
H1219 H 0.54418 0.36297 0.49351 0.0
H1220 H 0.63998 0.15358 0.28913 0.0
H1221 H 0.65973 0.16216 0.27917 0.0
H1222 H 0.66527 0.1698 0.39645 0.0
H1223 H 0.64551 0.16124 0.40661 0.0
H1224 H 0.67928 0.18707 0.35696 0.0
H1225 H 0.66799 0.14871 0.35592 0.0
H1226 H 0.65711 0.1293 0.33618 0.0
H1227 H 0.66874 0.13848 0.2238 0.0
H1228 H 0.67958 0.15796 0.24278 0.0
H1229 H 0.73568 0.20154 0.35584 0.0
H1230 H 0.71599 0.19299 0.36771 0.0
H1231 H 0.70953 0.1854 0.25069 0.0
H1232 H 0.72918 0.19396 0.2386 0.0
H1233 H 0.69605 0.16799 0.29139 0.0
H1234 H 0.7072 0.20645 0.29277 0.0
H1235 H 0.71811 0.2258 0.31301 0.0
H1236 H 0.70679 0.21633 0.42552 0.0
H1237 H 0.69592 0.19689 0.40604 0.0
C1238 C 0.64537 0.15694 0.31295 0.0
C1239 C 0.64109 0.15666 0.34873 0.0
C1240 C 0.6567 0.16188 0.30718 0.0
C1241 C 0.66406 0.16656 0.3371 0.0
C1242 C 0.65981 0.16628 0.37285 0.0
C1243 C 0.64848 0.16139 0.37861 0.0
C1244 C 0.67617 0.17192 0.33099 0.0
C1245 C 0.68295 0.18282 0.3431 0.0
C1246 C 0.68102 0.16652 0.3122 0.0
C1247 C 0.67451 0.15481 0.30071 0.0
C1248 C 0.66816 0.1466 0.32694 0.0
C1249 C 0.66201 0.13558 0.31589 0.0
C1250 C 0.66221 0.13266 0.27874 0.0
C1251 C 0.66858 0.14075 0.25256 0.0
C1252 C 0.67474 0.15178 0.26345 0.0
C1253 C 0.73009 0.19819 0.33251 0.0
C1254 C 0.73408 0.19846 0.29622 0.0
C1255 C 0.7188 0.19327 0.33937 0.0
C1256 C 0.71121 0.18858 0.31008 0.0
C1257 C 0.71517 0.1889 0.27384 0.0
C1258 C 0.72644 0.19379 0.26697 0.0
C1259 C 0.69915 0.18315 0.31719 0.0
C1260 C 0.69238 0.17222 0.30529 0.0
C1261 C 0.69432 0.18852 0.33624 0.0
C1262 C 0.70084 0.2002 0.34801 0.0
C1263 C 0.70711 0.20848 0.32188 0.0
C1264 C 0.71327 0.21947 0.33321 0.0
C1265 C 0.71317 0.22229 0.37055 0.0
C1266 C 0.70688 0.21413 0.39662 0.0
C1267 C 0.7007 0.20313 0.38545 0.0
H1268 H 0.71795 0.2308 0.37926 0.0
H1269 H 0.65745 0.12413 0.27024 0.0
H1270 H 0.89648 0.51238 0.34957 0.0
H1271 H 0.88504 0.52062 0.33891 0.0
H1272 H 0.85603 0.48864 0.34832 0.0
H1273 H 0.86745 0.48031 0.35929 0.0
H1274 H 0.85412 0.50006 0.29136 0.0
H1275 H 0.86427 0.50727 0.42019 0.0
H1276 H 0.87699 0.51398 0.47353 0.0
H1277 H 0.89273 0.54677 0.42875 0.0
H1278 H 0.88019 0.54022 0.37485 0.0
H1279 H 0.81577 0.51833 0.31581 0.0
H1280 H 0.82731 0.5101 0.32368 0.0
H1281 H 0.8562 0.54222 0.31561 0.0
H1282 H 0.84466 0.55059 0.30895 0.0
H1283 H 0.85825 0.53078 0.37143 0.0
H1284 H 0.8479 0.52356 0.24284 0.0
H1285 H 0.83513 0.5168 0.18964 0.0
H1286 H 0.8197 0.48398 0.23405 0.0
H1287 H 0.83228 0.49058 0.28782 0.0
C1288 C 0.88767 0.50708 0.34973 0.0
C1289 C 0.88292 0.49566 0.35572 0.0
C1290 C 0.88112 0.51182 0.34352 0.0
C1291 C 0.86964 0.5053 0.34335 0.0
C1292 C 0.86486 0.49386 0.34837 0.0
C1293 C 0.87142 0.4891 0.35455 0.0
C1294 C 0.86265 0.51044 0.33819 0.0
C1295 C 0.85493 0.50667 0.30921 0.0
C1296 C 0.86384 0.51926 0.36085 0.0
C1297 C 0.87136 0.52323 0.3933 0.0
C1298 C 0.87049 0.5159 0.42157 0.0
C1299 C 0.87766 0.51967 0.45193 0.0
C1300 C 0.88568 0.53079 0.45447 0.0
C1301 C 0.88653 0.53816 0.42671 0.0
C1302 C 0.87939 0.53442 0.39627 0.0
C1303 C 0.82457 0.52369 0.31598 0.0
C1304 C 0.82925 0.53517 0.31182 0.0
C1305 C 0.83119 0.51894 0.32008 0.0
C1306 C 0.84266 0.5255 0.31984 0.0
C1307 C 0.84737 0.53696 0.31577 0.0
C1308 C 0.84076 0.54173 0.31164 0.0
C1309 C 0.84972 0.52041 0.32456 0.0
C1310 C 0.85745 0.52418 0.35352 0.0
C1311 C 0.84853 0.51159 0.3019 0.0
C1312 C 0.84097 0.50759 0.26954 0.0
C1313 C 0.84173 0.51492 0.24142 0.0
C1314 C 0.83453 0.51111 0.21113 0.0
C1315 C 0.82659 0.49997 0.20852 0.0
C1316 C 0.82585 0.49261 0.23614 0.0
C1317 C 0.83302 0.49638 0.26651 0.0
H1318 H 0.82103 0.49704 0.18505 0.0
H1319 H 0.89122 0.5337 0.478 0.0
H1320 H 0.54427 0.72344 0.73479 0.0
H1321 H 0.53522 0.70344 0.72723 0.0
H1322 H 0.53486 0.70716 0.60795 0.0
H1323 H 0.54399 0.72713 0.61522 0.0
H1324 H 0.51526 0.69159 0.63188 0.0
H1325 H 0.55236 0.70002 0.65045 0.0
H1326 H 0.57008 0.70791 0.6831 0.0
H1327 H 0.55408 0.68782 0.77888 0.0
H1328 H 0.53623 0.67992 0.74698 0.0
H1329 H 0.49843 0.63689 0.57829 0.0
H1330 H 0.50927 0.65681 0.58731 0.0
H1331 H 0.5093 0.65206 0.70611 0.0
H1332 H 0.49845 0.6321 0.69729 0.0
H1333 H 0.52906 0.66808 0.68371 0.0
H1334 H 0.49205 0.6598 0.66595 0.0
H1335 H 0.47423 0.65187 0.63393 0.0
H1336 H 0.48996 0.67179 0.53756 0.0
H1337 H 0.5079 0.67973 0.56884 0.0
C1338 C 0.54244 0.72003 0.70688 0.0
C1339 C 0.54485 0.72697 0.67565 0.0
C1340 C 0.53722 0.70856 0.70259 0.0
C1341 C 0.53436 0.70373 0.66697 0.0
C1342 C 0.53691 0.71064 0.63575 0.0
C1343 C 0.54211 0.72209 0.64 0.0
C1344 C 0.52837 0.69149 0.66215 0.0
C1345 C 0.51838 0.68649 0.64278 0.0
C1346 C 0.53223 0.68472 0.67723 0.0
C1347 C 0.54295 0.68946 0.69646 0.0
C1348 C 0.55261 0.69735 0.67859 0.0
C1349 C 0.56268 0.70181 0.69694 0.0
C1350 C 0.5632 0.69839 0.73308 0.0
C1351 C 0.55366 0.69048 0.75091 0.0
C1352 C 0.54357 0.686 0.7327 0.0
C1353 C 0.5007 0.64006 0.60639 0.0
C1354 C 0.49746 0.63283 0.63707 0.0
C1355 C 0.50693 0.65149 0.61152 0.0
C1356 C 0.50999 0.65601 0.64749 0.0
C1357 C 0.50705 0.64882 0.67808 0.0
C1358 C 0.50086 0.63737 0.67296 0.0
C1359 C 0.51601 0.66822 0.65316 0.0
C1360 C 0.52597 0.6732 0.67278 0.0
C1361 C 0.51211 0.67499 0.63842 0.0
C1362 C 0.50133 0.67028 0.61961 0.0
C1363 C 0.49172 0.66243 0.63783 0.0
C1364 C 0.4816 0.65794 0.61983 0.0
C1365 C 0.48097 0.6613 0.5837 0.0
C1366 C 0.49046 0.66918 0.56553 0.0
C1367 C 0.50061 0.67368 0.58339 0.0
H1368 H 0.47312 0.65782 0.56981 0.0
H1369 H 0.57101 0.70185 0.74724 0.0
H1370 H 0.39602 0.87194 0.57826 0.0
H1371 H 0.37639 0.86107 0.59114 0.0
H1372 H 0.38302 0.86261 0.70902 0.0
H1373 H 0.40272 0.87354 0.69634 0.0
H1374 H 0.36711 0.84232 0.68987 0.0
H1375 H 0.37419 0.87905 0.66919 0.0
H1376 H 0.38123 0.89655 0.63498 0.0
H1377 H 0.36008 0.87939 0.54282 0.0
H1378 H 0.35302 0.86176 0.57629 0.0
H1379 H 0.31235 0.82403 0.74865 0.0
H1380 H 0.33214 0.83502 0.73853 0.0
H1381 H 0.32686 0.83496 0.62006 0.0
H1382 H 0.30707 0.82401 0.63002 0.0
H1383 H 0.34222 0.85478 0.64126 0.0
H1384 H 0.3354 0.818 0.66146 0.0
H1385 H 0.32841 0.80049 0.69559 0.0
H1386 H 0.34909 0.81773 0.78863 0.0
H1387 H 0.35609 0.83537 0.75524 0.0
C1388 C 0.39333 0.87004 0.60698 0.0
C1389 C 0.401 0.87373 0.63626 0.0
C1390 C 0.38207 0.86379 0.61431 0.0
C1391 C 0.37817 0.86115 0.65113 0.0
C1392 C 0.3858 0.86455 0.68037 0.0
C1393 C 0.39708 0.87078 0.67305 0.0
C1394 C 0.36613 0.85495 0.65904 0.0
C1395 C 0.3617 0.84513 0.67968 0.0
C1396 C 0.35898 0.85847 0.6452 0.0
C1397 C 0.36315 0.86907 0.62512 0.0
C1398 C 0.3711 0.879 0.64152 0.0
C1399 C 0.37508 0.88894 0.62228 0.0
C1400 C 0.37113 0.88908 0.58671 0.0
C1401 C 0.36315 0.87927 0.57036 0.0
C1402 C 0.35914 0.8693 0.58946 0.0
C1403 C 0.31539 0.82631 0.72041 0.0
C1404 C 0.30807 0.82307 0.69016 0.0
C1405 C 0.32674 0.8326 0.71464 0.0
C1406 C 0.33107 0.83571 0.67843 0.0
C1407 C 0.32377 0.83268 0.64827 0.0
C1408 C 0.31242 0.82644 0.65404 0.0
C1409 C 0.34317 0.84209 0.67187 0.0
C1410 C 0.34763 0.85196 0.65151 0.0
C1411 C 0.35034 0.83862 0.68597 0.0
C1412 C 0.34619 0.82802 0.706 0.0
C1413 C 0.3384 0.81807 0.68931 0.0
C1414 C 0.33444 0.80812 0.7085 0.0
C1415 C 0.33828 0.808 0.74429 0.0
C1416 C 0.34611 0.81784 0.76093 0.0
C1417 C 0.35008 0.82781 0.74187 0.0
H1418 H 0.3352 0.80029 0.75911 0.0
H1419 H 0.37423 0.89679 0.57185 0.0
H1420 H 0.18133 0.55081 0.65029 0.0
H1421 H 0.18975 0.53947 0.65962 0.0
H1422 H 0.16046 0.51103 0.6191 0.0
H1423 H 0.15196 0.52237 0.60951 0.0
H1424 H 0.16792 0.50579 0.6795 0.0
H1425 H 0.18379 0.52451 0.5647 0.0
H1426 H 0.19347 0.54054 0.52301 0.0
H1427 H 0.22182 0.55374 0.59358 0.0
H1428 H 0.21226 0.53785 0.636 0.0
H1429 H 0.19073 0.47123 0.65554 0.0
H1430 H 0.1825 0.48265 0.64399 0.0
H1431 H 0.21151 0.51104 0.68623 0.0
H1432 H 0.21982 0.49963 0.6981 0.0
H1433 H 0.20418 0.51626 0.62451 0.0
H1434 H 0.18819 0.49756 0.7395 0.0
H1435 H 0.17849 0.48146 0.78092 0.0
H1436 H 0.15032 0.46819 0.70949 0.0
H1437 H 0.15991 0.48414 0.66735 0.0
C1438 C 0.17669 0.54217 0.64293 0.0
C1439 C 0.16597 0.53756 0.62878 0.0
C1440 C 0.18153 0.53567 0.64836 0.0
C1441 C 0.17583 0.5244 0.63955 0.0
C1442 C 0.16506 0.51971 0.62606 0.0
C1443 C 0.16018 0.52621 0.62068 0.0
C1444 C 0.18109 0.51751 0.64476 0.0
C1445 C 0.17578 0.50801 0.66699 0.0
C1446 C 0.19148 0.52049 0.62924 0.0
C1447 C 0.19727 0.53004 0.60372 0.0
C1448 C 0.19206 0.53087 0.57149 0.0
C1449 C 0.19753 0.53993 0.5477 0.0
C1450 C 0.20825 0.54817 0.55569 0.0
C1451 C 0.21352 0.54735 0.58745 0.0
C1452 C 0.20808 0.53832 0.61136 0.0
C1453 C 0.19536 0.47989 0.66268 0.0
C1454 C 0.20592 0.48445 0.67818 0.0
C1455 C 0.19063 0.48642 0.65597 0.0
C1456 C 0.19628 0.4977 0.66479 0.0
C1457 C 0.20695 0.50237 0.67925 0.0
C1458 C 0.21171 0.49582 0.68593 0.0
C1459 C 0.19101 0.50455 0.65923 0.0
C1460 C 0.19633 0.51405 0.63697 0.0
C1461 C 0.18062 0.50156 0.67468 0.0
C1462 C 0.17481 0.492 0.70009 0.0
C1463 C 0.17995 0.49117 0.73249 0.0
C1464 C 0.17447 0.48208 0.75611 0.0
C1465 C 0.16381 0.47379 0.74779 0.0
C1466 C 0.15859 0.4746 0.71588 0.0
C1467 C 0.16404 0.48367 0.69213 0.0
H1468 H 0.15958 0.46676 0.76612 0.0
H1469 H 0.21247 0.55517 0.53724 0.0
H1470 H 0.14487 0.63504 0.64033 0.0
H1471 H 0.156 0.65475 0.6521 0.0
H1472 H 0.18539 0.65306 0.63498 0.0
H1473 H 0.17424 0.63322 0.62285 0.0
H1474 H 0.18764 0.66637 0.69393 0.0
H1475 H 0.17635 0.66318 0.56701 0.0
H1476 H 0.16331 0.65658 0.51456 0.0
H1477 H 0.1462 0.6717 0.56296 0.0
H1478 H 0.15905 0.67826 0.616 0.0
H1479 H 0.22078 0.72545 0.67915 0.0
H1480 H 0.21187 0.70559 0.66762 0.0
H1481 H 0.1802 0.70293 0.67924 0.0
H1482 H 0.18899 0.72267 0.69096 0.0
H1483 H 0.1805 0.69189 0.61951 0.0
H1484 H 0.19144 0.69427 0.74821 0.0
H1485 H 0.20456 0.70079 0.80042 0.0
H1486 H 0.22264 0.6873 0.74781 0.0
H1487 H 0.20969 0.68083 0.69501 0.0
C1488 C 0.15369 0.63883 0.63874 0.0
C1489 C 0.15862 0.63251 0.63008 0.0
C1490 C 0.16007 0.65014 0.64561 0.0
C1491 C 0.17156 0.65548 0.64382 0.0
C1492 C 0.17655 0.64916 0.63642 0.0
C1493 C 0.17015 0.6378 0.62956 0.0
C1494 C 0.17824 0.66767 0.64901 0.0
C1495 C 0.1862 0.67197 0.67726 0.0
C1496 C 0.17632 0.67501 0.62762 0.0
C1497 C 0.16861 0.67114 0.59564 0.0
C1498 C 0.16976 0.66503 0.56661 0.0
C1499 C 0.16241 0.66131 0.53675 0.0
C1500 C 0.15392 0.6637 0.53547 0.0
C1501 C 0.15278 0.66985 0.564 0.0
C1502 C 0.1601 0.67358 0.59396 0.0
C1503 C 0.21191 0.72062 0.67964 0.0
C1504 C 0.20562 0.72573 0.6858 0.0
C1505 C 0.20682 0.70924 0.673 0.0
C1506 C 0.19533 0.70269 0.67269 0.0
C1507 C 0.18906 0.70777 0.67907 0.0
C1508 C 0.19412 0.71911 0.68564 0.0
C1509 C 0.18974 0.6906 0.665 0.0
C1510 C 0.18199 0.68631 0.6361 0.0
C1511 C 0.1919 0.68331 0.68572 0.0
C1512 C 0.19967 0.68717 0.71747 0.0
C1513 C 0.19826 0.69277 0.74763 0.0
C1514 C 0.20566 0.69644 0.77735 0.0
C1515 C 0.21444 0.69449 0.77738 0.0
C1516 C 0.21584 0.68883 0.74772 0.0
C1517 C 0.20847 0.68515 0.7179 0.0
H1518 H 0.22016 0.69734 0.80042 0.0
H1519 H 0.14824 0.6608 0.51233 0.0
H1520 H 0.39999 0.54505 0.61904 0.0
H1521 H 0.38029 0.53681 0.63025 0.0
H1522 H 0.3787 0.50678 0.66682 0.0
H1523 H 0.39835 0.51496 0.65593 0.0
H1524 H 0.36236 0.50215 0.62028 0.0
H1525 H 0.37712 0.52486 0.72886 0.0
H1526 H 0.38859 0.54206 0.76359 0.0
H1527 H 0.37205 0.55708 0.71075 0.0
H1528 H 0.36058 0.54001 0.67531 0.0
H1529 H 0.30821 0.47629 0.69437 0.0
H1530 H 0.32811 0.48488 0.6879 0.0
H1531 H 0.32997 0.51506 0.65167 0.0
H1532 H 0.31018 0.50668 0.65937 0.0
H1533 H 0.34619 0.51957 0.69863 0.0
H1534 H 0.33165 0.49702 0.58939 0.0
H1535 H 0.3202 0.47986 0.55443 0.0
H1536 H 0.33637 0.46462 0.60831 0.0
H1537 H 0.34783 0.48165 0.64398 0.0
C1538 C 0.39549 0.53674 0.62995 0.0
C1539 C 0.40082 0.53068 0.63643 0.0
C1540 C 0.38419 0.53202 0.63631 0.0
C1541 C 0.37795 0.52116 0.64962 0.0
C1542 C 0.38327 0.51514 0.65638 0.0
C1543 C 0.39454 0.51984 0.65001 0.0
C1544 C 0.36586 0.51595 0.65566 0.0
C1545 C 0.35885 0.5059 0.63787 0.0
C1546 C 0.36119 0.52092 0.67787 0.0
C1547 C 0.36807 0.53119 0.69915 0.0
C1548 C 0.37599 0.53186 0.72442 0.0
C1549 C 0.38248 0.54158 0.74427 0.0
C1550 C 0.38107 0.55067 0.7393 0.0
C1551 C 0.37315 0.55004 0.71453 0.0
C1552 C 0.36664 0.54034 0.69457 0.0
C1553 C 0.31285 0.48479 0.68538 0.0
C1554 C 0.30751 0.49074 0.67715 0.0
C1555 C 0.32425 0.48967 0.68132 0.0
C1556 C 0.33059 0.5006 0.66875 0.0
C1557 C 0.3253 0.50661 0.66123 0.0
C1558 C 0.31393 0.50175 0.6653 0.0
C1559 C 0.3427 0.50578 0.66328 0.0
C1560 C 0.34971 0.51582 0.68112 0.0
C1561 C 0.34738 0.50082 0.64108 0.0
C1562 C 0.34052 0.49057 0.61963 0.0
C1563 C 0.33271 0.48998 0.594 0.0
C1564 C 0.32623 0.48028 0.57402 0.0
C1565 C 0.32754 0.47114 0.57922 0.0
C1566 C 0.33536 0.4717 0.60435 0.0
C1567 C 0.34185 0.48137 0.62444 0.0
H1568 H 0.32252 0.46364 0.56372 0.0
H1569 H 0.3861 0.55819 0.75471 0.0
H1570 H 0.48477 0.85224 0.61825 0.0
H1571 H 0.49635 0.84408 0.62722 0.0
H1572 H 0.52198 0.87484 0.67149 0.0
H1573 H 0.51038 0.88308 0.66276 0.0
H1574 H 0.53035 0.86579 0.62504 0.0
H1575 H 0.50562 0.85321 0.72919 0.0
H1576 H 0.48759 0.84453 0.7603 0.0
H1577 H 0.47825 0.81409 0.70376 0.0
H1578 H 0.49618 0.82264 0.67189 0.0
H1579 H 0.56205 0.84507 0.70795 0.0
H1580 H 0.55064 0.85332 0.69713 0.0
H1581 H 0.525 0.82247 0.6535 0.0
H1582 H 0.53642 0.81414 0.66398 0.0
H1583 H 0.51662 0.83155 0.69932 0.0
H1584 H 0.54134 0.84405 0.59539 0.0
H1585 H 0.55934 0.8527 0.56405 0.0
H1586 H 0.56867 0.88324 0.61989 0.0
H1587 H 0.55077 0.87472 0.65199 0.0
C1588 C 0.49284 0.85728 0.63016 0.0
C1589 C 0.49657 0.86831 0.64014 0.0
C1590 C 0.49947 0.85259 0.63523 0.0
C1591 C 0.51 0.85877 0.65064 0.0
C1592 C 0.51389 0.86988 0.65964 0.0
C1593 C 0.50725 0.87459 0.65452 0.0
C1594 C 0.51688 0.8536 0.65758 0.0
C1595 C 0.5274 0.85839 0.64172 0.0
C1596 C 0.51297 0.84378 0.6786 0.0
C1597 C 0.50221 0.8386 0.69788 0.0
C1598 C 0.49969 0.84469 0.72318 0.0
C1599 C 0.4895 0.83979 0.74098 0.0
C1600 C 0.48177 0.82878 0.73394 0.0
C1601 C 0.48424 0.82263 0.70915 0.0
C1602 C 0.49442 0.82749 0.69123 0.0
C1603 C 0.55403 0.84003 0.69564 0.0
C1604 C 0.55023 0.82892 0.68655 0.0
C1605 C 0.54749 0.84479 0.68954 0.0
C1606 C 0.53699 0.83859 0.67397 0.0
C1607 C 0.53307 0.82745 0.66549 0.0
C1608 C 0.53961 0.82267 0.67162 0.0
C1609 C 0.5301 0.84374 0.66678 0.0
C1610 C 0.51958 0.83894 0.68261 0.0
C1611 C 0.534 0.85356 0.64572 0.0
C1612 C 0.54476 0.85871 0.62637 0.0
C1613 C 0.54726 0.85259 0.60121 0.0
C1614 C 0.55744 0.85747 0.58327 0.0
C1615 C 0.56515 0.86851 0.59004 0.0
C1616 C 0.56269 0.87469 0.6147 0.0
C1617 C 0.55253 0.86984 0.63276 0.0
H1618 H 0.57303 0.87227 0.57612 0.0
H1619 H 0.47388 0.825 0.74775 0.0
H1620 H 0.30779 0.16554 0.14368 0.0
H1621 H 0.32707 0.17634 0.16223 0.0
H1622 H 0.3347 0.15601 0.09248 0.0
H1623 H 0.31554 0.14526 0.07377 0.0
H1624 H 0.34367 0.15833 0.15897 0.0
H1625 H 0.34206 0.18287 0.06884 0.0
H1626 H 0.33506 0.19423 0.04132 0.0
H1627 H 0.34332 0.21364 0.14134 0.0
H1628 H 0.35024 0.20228 0.16966 0.0
H1629 H 0.40119 0.18843 0.1543 0.0
H1630 H 0.38199 0.18005 0.13635 0.0
H1631 H 0.37764 0.20107 0.21388 0.0
H1632 H 0.39693 0.20947 0.2324 0.0
H1633 H 0.36678 0.19892 0.14778 0.0
H1634 H 0.36887 0.17479 0.23711 0.0
H1635 H 0.37599 0.16353 0.26463 0.0
H1636 H 0.36668 0.14333 0.16633 0.0
H1637 H 0.35965 0.15458 0.13798 0.0
C1638 C 0.3136 0.16346 0.13188 0.0
C1639 C 0.31004 0.15445 0.10739 0.0
C1640 C 0.32464 0.16965 0.14256 0.0
C1641 C 0.33241 0.16704 0.12874 0.0
C1642 C 0.3289 0.15817 0.10381 0.0
C1643 C 0.31789 0.15199 0.0932 0.0
C1644 C 0.34412 0.1732 0.14106 0.0
C1645 C 0.34873 0.1672 0.15605 0.0
C1646 C 0.35071 0.18482 0.13848 0.0
C1647 C 0.34655 0.19165 0.12152 0.0
C1648 C 0.3423 0.1895 0.08509 0.0
C1649 C 0.33836 0.19595 0.06932 0.0
C1650 C 0.33871 0.20463 0.08961 0.0
C1651 C 0.34303 0.2069 0.12568 0.0
C1652 C 0.34697 0.20046 0.14159 0.0
C1653 C 0.39617 0.19126 0.16778 0.0
C1654 C 0.40063 0.19954 0.19527 0.0
C1655 C 0.38517 0.18647 0.15734 0.0
C1656 C 0.37827 0.18978 0.17417 0.0
C1657 C 0.38277 0.19835 0.20054 0.0
C1658 C 0.39382 0.20316 0.21105 0.0
C1659 C 0.36633 0.184 0.16493 0.0
C1660 C 0.36168 0.19006 0.15074 0.0
C1661 C 0.35967 0.17242 0.16825 0.0
C1662 C 0.36382 0.16559 0.1853 0.0
C1663 C 0.36841 0.16799 0.22125 0.0
C1664 C 0.37242 0.16161 0.23702 0.0
C1665 C 0.37181 0.15273 0.21721 0.0
C1666 C 0.36716 0.15021 0.18162 0.0
C1667 C 0.36315 0.15659 0.16571 0.0
H1668 H 0.37492 0.14779 0.22946 0.0
H1669 H 0.33567 0.20962 0.07735 0.0
H1670 H 0.84266 0.20607 0.26528 0.0
H1671 H 0.85136 0.19563 0.2453 0.0
H1672 H 0.83585 0.19019 0.13781 0.0
H1673 H 0.82715 0.20075 0.15751 0.0
H1674 H 0.83559 0.17166 0.16247 0.0
H1675 H 0.86245 0.20977 0.14816 0.0
H1676 H 0.87375 0.22912 0.16791 0.0
H1677 H 0.88845 0.21945 0.25353 0.0
H1678 H 0.87712 0.2 0.23463 0.0
H1679 H 0.87142 0.15639 0.07059 0.0
H1680 H 0.86062 0.16486 0.08931 0.0
H1681 H 0.87602 0.17229 0.19744 0.0
H1682 H 0.88677 0.16379 0.17906 0.0
H1683 H 0.87609 0.18986 0.17005 0.0
H1684 H 0.84908 0.15163 0.18436 0.0
H1685 H 0.83771 0.1323 0.16447 0.0
H1686 H 0.82333 0.14217 0.07831 0.0
H1687 H 0.83473 0.16159 0.09736 0.0
C1688 C 0.84111 0.20271 0.2373 0.0
C1689 C 0.83428 0.2044 0.21291 0.0
C1690 C 0.84609 0.19669 0.22593 0.0
C1691 C 0.84443 0.19225 0.18979 0.0
C1692 C 0.83729 0.19355 0.1658 0.0
C1693 C 0.83229 0.19957 0.17718 0.0
C1694 C 0.85042 0.18657 0.17686 0.0
C1695 C 0.84445 0.17569 0.16365 0.0
C1696 C 0.86199 0.19172 0.17889 0.0
C1697 C 0.86886 0.20342 0.1902 0.0
C1698 C 0.86804 0.21176 0.17138 0.0
C1699 C 0.87445 0.22275 0.18239 0.0
C1700 C 0.88179 0.22551 0.21201 0.0
C1701 C 0.88275 0.21729 0.23062 0.0
C1702 C 0.87634 0.20628 0.21975 0.0
C1703 C 0.87239 0.15966 0.09857 0.0
C1704 C 0.88004 0.15942 0.1232 0.0
C1705 C 0.8662 0.16453 0.10925 0.0
C1706 C 0.86744 0.16921 0.14491 0.0
C1707 C 0.87493 0.16882 0.1697 0.0
C1708 C 0.88112 0.16397 0.15907 0.0
C1709 C 0.86127 0.17487 0.15608 0.0
C1710 C 0.86722 0.1858 0.16885 0.0
C1711 C 0.8497 0.16975 0.15355 0.0
C1712 C 0.84285 0.15808 0.14204 0.0
C1713 C 0.84356 0.14969 0.16096 0.0
C1714 C 0.8371 0.13872 0.14988 0.0
C1715 C 0.82983 0.13601 0.12007 0.0
C1716 C 0.82898 0.14428 0.10135 0.0
C1717 C 0.83543 0.15527 0.1123 0.0
H1718 H 0.82483 0.12751 0.11154 0.0
H1719 H 0.88676 0.23402 0.2205 0.0
H1720 H 0.84254 0.63193 0.15545 0.0
H1721 H 0.8511 0.65119 0.13653 0.0
H1722 H 0.83574 0.65787 0.22912 0.0
H1723 H 0.82718 0.63855 0.24856 0.0
H1724 H 0.83531 0.66865 0.16578 0.0
H1725 H 0.86228 0.66502 0.23462 0.0
H1726 H 0.87364 0.65686 0.25133 0.0
H1727 H 0.88826 0.66443 0.14226 0.0
H1728 H 0.87686 0.67249 0.12471 0.0
H1729 H 0.87132 0.72746 0.15357 0.0
H1730 H 0.86055 0.70827 0.17428 0.0
H1731 H 0.87522 0.69848 0.08777 0.0
H1732 H 0.88591 0.71755 0.06683 0.0
H1733 H 0.87577 0.68957 0.15234 0.0
H1734 H 0.84833 0.69282 0.08314 0.0
H1735 H 0.8369 0.70092 0.06687 0.0
H1736 H 0.82322 0.69425 0.17734 0.0
H1737 H 0.83469 0.68624 0.19444 0.0
C1738 C 0.841 0.63747 0.172 0.0
C1739 C 0.83426 0.63365 0.2039 0.0
C1740 C 0.84589 0.64851 0.16103 0.0
C1741 C 0.84423 0.65607 0.1817 0.0
C1742 C 0.83717 0.65223 0.21272 0.0
C1743 C 0.83226 0.64115 0.22376 0.0
C1744 C 0.85017 0.668 0.17142 0.0
C1745 C 0.84417 0.67327 0.16336 0.0
C1746 C 0.86173 0.67405 0.16774 0.0
C1747 C 0.86865 0.66927 0.17825 0.0
C1748 C 0.86786 0.66487 0.21411 0.0
C1749 C 0.87431 0.66027 0.22374 0.0
C1750 C 0.88165 0.6601 0.19784 0.0
C1751 C 0.88256 0.66455 0.16228 0.0
C1752 C 0.87612 0.66915 0.15248 0.0
C1753 C 0.87213 0.7212 0.13859 0.0
C1754 C 0.87957 0.72412 0.10862 0.0
C1755 C 0.86597 0.71021 0.15052 0.0
C1756 C 0.86702 0.70186 0.13259 0.0
C1757 C 0.87429 0.70474 0.1023 0.0
C1758 C 0.88044 0.71569 0.09041 0.0
C1759 C 0.86091 0.69019 0.14595 0.0
C1760 C 0.86691 0.68497 0.15479 0.0
C1761 C 0.84936 0.68424 0.15042 0.0
C1762 C 0.84246 0.68904 0.14019 0.0
C1763 C 0.84296 0.69317 0.10406 0.0
C1764 C 0.83646 0.69773 0.09467 0.0
C1765 C 0.82936 0.69813 0.12108 0.0
C1766 C 0.82873 0.69395 0.15693 0.0
C1767 C 0.83523 0.68939 0.16648 0.0
H1768 H 0.82433 0.70166 0.11375 0.0
H1769 H 0.88664 0.65654 0.20536 0.0
H1770 H 0.17122 0.30746 0.92735 0.0
H1771 H 0.17987 0.3267 0.90756 0.0
H1772 H 0.17379 0.31636 0.79252 0.0
H1773 H 0.16515 0.29711 0.81212 0.0
H1774 H 0.19403 0.33269 0.79971 0.0
H1775 H 0.15891 0.32647 0.83982 0.0
H1776 H 0.14344 0.32089 0.88335 0.0
H1777 H 0.16476 0.34552 0.96152 0.0
H1778 H 0.1804 0.35115 0.91865 0.0
H1779 H 0.20803 0.38434 0.72072 0.0
H1780 H 0.1977 0.36519 0.74146 0.0
H1781 H 0.20472 0.37582 0.85601 0.0
H1782 H 0.21509 0.39502 0.83545 0.0
H1783 H 0.1839 0.35942 0.84937 0.0
H1784 H 0.21901 0.36541 0.80966 0.0
H1785 H 0.23447 0.37104 0.76605 0.0
H1786 H 0.21306 0.34676 0.68712 0.0
H1787 H 0.19743 0.34108 0.73008 0.0
C1788 C 0.17157 0.30925 0.89785 0.0
C1789 C 0.16746 0.30068 0.87138 0.0
C1790 C 0.17654 0.3203 0.88653 0.0
C1791 C 0.17743 0.32305 0.84847 0.0
C1792 C 0.17326 0.3145 0.82203 0.0
C1793 C 0.16832 0.30347 0.83331 0.0
C1794 C 0.18305 0.33483 0.83608 0.0
C1795 C 0.19168 0.33848 0.8102 0.0
C1796 C 0.18024 0.34252 0.85036 0.0
C1797 C 0.17085 0.33916 0.87617 0.0
C1798 C 0.16032 0.33064 0.86641 0.0
C1799 C 0.15152 0.32748 0.89095 0.0
C1800 C 0.15312 0.33283 0.92522 0.0
C1801 C 0.16353 0.34137 0.93498 0.0
C1802 C 0.17236 0.34456 0.91057 0.0
C1803 C 0.20743 0.38262 0.75035 0.0
C1804 C 0.21251 0.39127 0.77634 0.0
C1805 C 0.20149 0.37164 0.7622 0.0
C1806 C 0.20055 0.36899 0.80034 0.0
C1807 C 0.20532 0.37761 0.82644 0.0
C1808 C 0.21123 0.38862 0.8146 0.0
C1809 C 0.19482 0.35724 0.8129 0.0
C1810 C 0.18621 0.35361 0.83885 0.0
C1811 C 0.19764 0.34954 0.79871 0.0
C1812 C 0.20703 0.35289 0.77294 0.0
C1813 C 0.21758 0.36132 0.7829 0.0
C1814 C 0.22638 0.36452 0.75831 0.0
C1815 C 0.22474 0.35928 0.7238 0.0
C1816 C 0.21431 0.35082 0.71384 0.0
C1817 C 0.20548 0.3476 0.73831 0.0
H1818 H 0.23156 0.36177 0.7048 0.0
H1819 H 0.1463 0.33037 0.94417 0.0
H1820 H 0.73353 0.88091 0.86484 0.0
H1821 H 0.71423 0.8724 0.8467 0.0
H1822 H 0.7118 0.84053 0.84482 0.0
H1823 H 0.73099 0.84893 0.86302 0.0
H1824 H 0.70241 0.843 0.78464 0.0
H1825 H 0.70087 0.84887 0.91665 0.0
H1826 H 0.70564 0.85988 0.97442 0.0
H1827 H 0.69357 0.87988 0.92745 0.0
H1828 H 0.68885 0.86908 0.86917 0.0
H1829 H 0.64544 0.80658 0.7846 0.0
H1830 H 0.66474 0.81727 0.80156 0.0
H1831 H 0.6632 0.84716 0.79733 0.0
H1832 H 0.64368 0.83644 0.78138 0.0
H1833 H 0.67476 0.84716 0.85756 0.0
H1834 H 0.67535 0.84075 0.7271 0.0
H1835 H 0.67049 0.82981 0.66921 0.0
H1836 H 0.68443 0.81105 0.71261 0.0
H1837 H 0.68924 0.82179 0.77102 0.0
C1838 C 0.72887 0.87208 0.86093 0.0
C1839 C 0.7339 0.86564 0.86529 0.0
C1840 C 0.71781 0.86721 0.8505 0.0
C1841 C 0.71148 0.85578 0.84452 0.0
C1842 C 0.71648 0.84936 0.849 0.0
C1843 C 0.72751 0.85421 0.85932 0.0
C1844 C 0.69971 0.85044 0.83306 0.0
C1845 C 0.69636 0.84383 0.80087 0.0
C1846 C 0.69181 0.85176 0.85339 0.0
C1847 C 0.69462 0.85825 0.88841 0.0
C1848 C 0.69931 0.85568 0.91853 0.0
C1849 C 0.70199 0.86187 0.95138 0.0
C1850 C 0.69994 0.87059 0.95456 0.0
C1851 C 0.69517 0.87313 0.92492 0.0
C1852 C 0.69249 0.86698 0.89198 0.0
C1853 C 0.64913 0.81542 0.78763 0.0
C1854 C 0.64292 0.82061 0.78164 0.0
C1855 C 0.66024 0.82155 0.79698 0.0
C1856 C 0.66552 0.83307 0.80032 0.0
C1857 C 0.65935 0.8383 0.79479 0.0
C1858 C 0.6482 0.83215 0.78536 0.0
C1859 C 0.67745 0.83955 0.80959 0.0
C1860 C 0.68083 0.84639 0.84124 0.0
C1861 C 0.68541 0.83847 0.78872 0.0
C1862 C 0.68258 0.83202 0.75357 0.0
C1863 C 0.67731 0.83424 0.72442 0.0
C1864 C 0.67457 0.82808 0.69149 0.0
C1865 C 0.67713 0.81972 0.68727 0.0
C1866 C 0.68245 0.81752 0.71594 0.0
C1867 C 0.6852 0.82365 0.74895 0.0
H1868 H 0.675 0.81496 0.66175 0.0
H1869 H 0.70201 0.87537 0.98003 0.0
H1870 H 0.19778 0.81098 0.79193 0.0
H1871 H 0.18717 0.8194 0.81371 0.0
H1872 H 0.21578 0.85163 0.80283 0.0
H1873 H 0.22649 0.8433 0.78235 0.0
H1874 H 0.20557 0.85028 0.86642 0.0
H1875 H 0.19457 0.84111 0.73791 0.0
H1876 H 0.18708 0.8287 0.68369 0.0
H1877 H 0.15671 0.80917 0.74208 0.0
H1878 H 0.16408 0.82139 0.79687 0.0
H1879 H 0.18353 0.88552 0.86581 0.0
H1880 H 0.19214 0.87479 0.84878 0.0
H1881 H 0.16149 0.84472 0.86605 0.0
H1882 H 0.15267 0.85546 0.88215 0.0
H1883 H 0.1715 0.84349 0.80309 0.0
H1884 H 0.18197 0.85327 0.92995 0.0
H1885 H 0.18935 0.86564 0.98428 0.0
H1886 H 0.22057 0.88381 0.92971 0.0
H1887 H 0.21333 0.87164 0.8748 0.0
C1888 C 0.20184 0.81986 0.79443 0.0
C1889 C 0.213 0.82644 0.78506 0.0
C1890 C 0.19572 0.82468 0.80658 0.0
C1891 C 0.20061 0.83619 0.80955 0.0
C1892 C 0.21178 0.84274 0.80068 0.0
C1893 C 0.21788 0.83795 0.78857 0.0
C1894 C 0.19422 0.84149 0.8221 0.0
C1895 C 0.19818 0.84887 0.85228 0.0
C1896 C 0.18437 0.83942 0.80456 0.0
C1897 C 0.17992 0.83209 0.77163 0.0
C1898 C 0.18633 0.83412 0.7393 0.0
C1899 C 0.1821 0.82713 0.70844 0.0
C1900 C 0.17144 0.81814 0.70948 0.0
C1901 C 0.16497 0.81613 0.74134 0.0
C1902 C 0.16917 0.82309 0.77229 0.0
C1903 C 0.17855 0.87662 0.86567 0.0
C1904 C 0.16736 0.87138 0.87531 0.0
C1905 C 0.18354 0.87048 0.85627 0.0
C1906 C 0.17752 0.85891 0.85652 0.0
C1907 C 0.16633 0.85362 0.86578 0.0
C1908 C 0.16132 0.85978 0.87527 0.0
C1909 C 0.18298 0.85244 0.84692 0.0
C1910 C 0.17884 0.84484 0.81738 0.0
C1911 C 0.19267 0.85427 0.8651 0.0
C1912 C 0.19707 0.86159 0.89813 0.0
C1913 C 0.19038 0.85995 0.92942 0.0
C1914 C 0.19455 0.86692 0.96034 0.0
C1915 C 0.20542 0.87552 0.96042 0.0
C1916 C 0.21215 0.87715 0.9296 0.0
C1917 C 0.20803 0.87022 0.89858 0.0
H1918 H 0.20862 0.88091 0.98438 0.0
H1919 H 0.16817 0.81274 0.68556 0.0
H1920 H 0.06573 0.5469 0.535 0.0
H1921 H 0.04674 0.53863 0.51358 0.0
H1922 H 0.04433 0.50678 0.50933 0.0
H1923 H 0.06335 0.51501 0.52939 0.0
H1924 H 0.03526 0.50972 0.4491 0.0
H1925 H 0.033 0.51461 0.58167 0.0
H1926 H 0.0375 0.52526 0.64019 0.0
H1927 H 0.02572 0.5456 0.59398 0.0
H1928 H 1.02128 0.53516 0.53498 0.0
H1929 H 0.97833 0.47302 0.44615 0.0
H1930 H 0.99762 0.48373 0.4632 0.0
H1931 H 0.99573 0.51345 0.4626 0.0
H1932 H 0.97622 0.50269 0.44666 0.0
H1933 H 1.0072 0.5132 0.52199 0.0
H1934 H 1.0083 0.50772 0.39123 0.0
H1935 H 1.00377 0.49725 0.33235 0.0
H1936 H 1.01784 0.47842 0.37404 0.0
H1937 H 0.02232 0.48868 0.43341 0.0
C1938 C 0.0612 0.53815 0.52923 0.0
C1939 C 0.06611 0.53164 0.53427 0.0
C1940 C 0.05028 0.5334 0.5173 0.0
C1941 C 0.04399 0.52203 0.51023 0.0
C1942 C 0.04894 0.51556 0.5147 0.0
C1943 C 0.05983 0.52028 0.52659 0.0
C1944 C 0.0323 0.51678 0.49801 0.0
C1945 C 0.02912 0.5104 0.46529 0.0
C1946 C 0.02428 0.51792 0.51832 0.0
C1947 C 0.02692 0.52418 0.55379 0.0
C1948 C 0.03145 0.52141 0.58389 0.0
C1949 C 0.03397 0.5274 0.61716 0.0
C1950 C 0.03193 0.53612 0.62076 0.0
C1951 C 0.02732 0.53886 0.59113 0.0
C1952 C 0.02479 0.5329 0.55778 0.0
C1953 C 0.98195 0.48182 0.44996 0.0
C1954 C 0.97564 0.48695 0.44507 0.0
C1955 C 0.99306 0.48797 0.45934 0.0
C1956 C 0.99823 0.49945 0.46378 0.0
C1957 C 0.99197 0.50462 0.45921 0.0
C1958 C 0.98082 0.49846 0.44978 0.0
C1959 C 1.01014 0.50596 0.47351 0.0
C1960 C 1.01336 0.51258 0.50566 0.0
C1961 C 1.01821 0.50508 0.45261 0.0
C1962 C 1.01556 0.49891 0.4169 0.0
C1963 C 1.01036 0.50129 0.38796 0.0
C1964 C 1.00781 0.4954 0.35448 0.0
C1965 C 1.01049 0.48716 0.34949 0.0
C1966 C 1.01575 0.4848 0.37796 0.0
C1967 C 1.01831 0.49066 0.41152 0.0
H1968 H 1.00851 0.48261 0.32355 0.0
H1969 H 0.03389 0.54075 0.64654 0.0
H1970 H 0.56131 0.51021 0.45539 0.0
H1971 H 0.55044 0.51848 0.47461 0.0
H1972 H 0.52129 0.48645 0.47531 0.0
H1973 H 0.53217 0.47805 0.45619 0.0
H1974 H 0.51716 0.50153 0.44449 0.0
H1975 H 0.53365 0.49897 0.557 0.0
H1976 H 0.54864 0.50127 0.59809 0.0
H1977 H 0.56447 0.53638 0.58554 0.0
H1978 H 0.54964 0.53429 0.54391 0.0
H1979 H 0.48653 0.52258 0.53996 0.0
H1980 H 0.4953 0.51182 0.52368 0.0
H1981 H 0.52672 0.54166 0.51927 0.0
H1982 H 0.51811 0.55238 0.53657 0.0
H1983 H 0.52842 0.52603 0.5552 0.0
H1984 H 0.51219 0.52824 0.43934 0.0
H1985 H 0.49704 0.52568 0.39857 0.0
H1986 H 0.48036 0.49084 0.41873 0.0
H1987 H 0.49536 0.4932 0.46003 0.0
C1988 C 0.5526 0.50487 0.45997 0.0
C1989 C 0.54767 0.49341 0.45463 0.0
C1990 C 0.54638 0.50963 0.47092 0.0
C1991 C 0.53505 0.50309 0.47709 0.0
C1992 C 0.53002 0.49168 0.47087 0.0
C1993 C 0.53626 0.48689 0.45983 0.0
C1994 C 0.52855 0.50824 0.49012 0.0
C1995 C 0.51951 0.50674 0.46906 0.0
C1996 C 0.53165 0.51516 0.52194 0.0
C1997 C 0.54058 0.51646 0.54707 0.0
C1998 C 0.54037 0.50718 0.56277 0.0
C1999 C 0.54883 0.50844 0.5862 0.0
C2000 C 0.55751 0.51896 0.59436 0.0
C2001 C 0.55774 0.52823 0.57917 0.0
C2002 C 0.5493 0.52702 0.55568 0.0
C2003 C 0.49532 0.52685 0.53579 0.0
C2004 C 0.50158 0.53839 0.53936 0.0
C2005 C 0.50032 0.52069 0.52613 0.0
C2006 C 0.51169 0.52592 0.51976 0.0
C2007 C 0.51795 0.53741 0.52385 0.0
C2008 C 0.51297 0.54355 0.53343 0.0
C2009 C 0.51717 0.51953 0.50914 0.0
C2010 C 0.52601 0.52077 0.53075 0.0
C2011 C 0.51384 0.51234 0.47796 0.0
C2012 C 0.50484 0.51091 0.45309 0.0
C2013 C 0.50525 0.52004 0.43532 0.0
C2014 C 0.4967 0.51863 0.41207 0.0
C2015 C 0.48773 0.50811 0.40615 0.0
C2016 C 0.48731 0.49898 0.42339 0.0
C2017 C 0.49584 0.50035 0.4467 0.0
H2018 H 0.48111 0.50703 0.38814 0.0
H2019 H 0.56406 0.51992 0.61251 0.0
H2020 H 0.56096 0.05675 0.4654 0.0
H2021 H 0.55037 0.03744 0.48349 0.0
H2022 H 0.52043 0.03704 0.45601 0.0
H2023 H 0.53101 0.05657 0.43892 0.0
H2024 H 0.51814 0.0262 0.52058 0.0
H2025 H 0.53082 0.02516 0.39799 0.0
H2026 H 0.54433 0.03017 0.34724 0.0
H2027 H 0.56175 0.01806 0.4114 0.0
H2028 H 0.54842 0.01312 0.46278 0.0
H2029 H 0.48662 0.96721 0.53292 0.0
H2030 H 0.49516 0.98623 0.5105 0.0
H2031 H 0.52713 0.99048 0.53177 0.0
H2032 H 0.5187 0.97143 0.5528 0.0
H2033 H 0.52709 0.9991 0.4664 0.0
H2034 H 0.51482 1.00114 0.59047 0.0
H2035 H 0.50123 0.9962 0.64094 0.0
H2036 H 0.4828 1.00633 0.57309 0.0
H2037 H 0.49622 1.01119 0.52201 0.0
C2038 C 0.55212 0.05263 0.46354 0.0
C2039 C 0.54687 0.0583 0.45071 0.0
C2040 C 0.54606 0.04151 0.47354 0.0
C2041 C 0.53458 0.03568 0.47071 0.0
C2042 C 0.52927 0.04131 0.45832 0.0
C2043 C 0.53535 0.05248 0.44825 0.0
C2044 C 0.52819 0.02374 0.48084 0.0
C2045 C 0.51998 0.02024 0.50826 0.0
C2046 C 0.53065 0.01593 0.46527 0.0
C2047 C 0.53867 0.01885 0.43437 0.0
C2048 C 0.53757 0.02364 0.4014 0.0
C2049 C 0.54519 0.02646 0.3725 0.0
C2050 C 0.55391 0.02446 0.37613 0.0
C2051 C 0.555 0.01962 0.40864 0.0
C2052 C 0.54741 0.01679 0.43764 0.0
C2053 C 0.49547 0.97216 0.53258 0.0
C2054 C 0.50194 0.96773 0.54497 0.0
C2055 C 0.50036 0.9831 0.52008 0.0
C2056 C 0.51182 0.9899 0.5198 0.0
C2057 C 0.51828 0.98546 0.53178 0.0
C2058 C 0.51342 0.97455 0.54422 0.0
C2059 C 0.51718 1.00158 0.50669 0.0
C2060 C 0.5252 1.00504 0.47859 0.0
C2061 C 0.51451 1.00932 0.52158 0.0
C2062 C 0.50646 1.00641 0.55228 0.0
C2063 C 0.50783 1.00223 0.5862 0.0
C2064 C 0.50016 0.99946 0.61494 0.0
C2065 C 0.49114 1.00092 0.61019 0.0
C2066 C 0.48978 1.00518 0.57671 0.0
C2067 C 0.49742 1.00795 0.54787 0.0
H2068 H 0.48522 0.99877 0.63247 0.0
H2069 H 0.5598 0.02664 0.35372 0.0
loop_
_geom_bond_atom_site_label_1
_geom_bond_atom_site_label_2
_geom_bond_distance
_geom_bond_site_symmetry_2
_ccdc_geom_bond_type
C0 C1 1.264 . S
C0 C5 1.479 . S
C0 C10 1.465 . S
C1 C0 1.264 . S
C1 C3 1.339 . S
C1 H28 0.931 . S
C2 C3 1.395 . S
C2 C4 1.320 . S
C3 C1 1.339 . S
C3 C2 1.395 . S
C3 H29 0.929 . S
C4 C2 1.320 . S
C4 C5 1.405 . S
C4 H30 0.930 . S
C5 C0 1.479 . S
C5 C4 1.405 . S
C5 H31 0.931 . S
U6 O7 2.454 . S
U6 O8 2.458 . S
U6 C9 2.984 . S
U6 C10 2.847 . S
U6 C23 2.882 . S
U6 O24 2.441 . S
U6 O25 2.420 . S
U6 O26 2.455 . S
U6 O27 2.449 . S
O7 U6 2.454 . S
O7 C9 1.353 . S
O8 U6 2.458 . S
O8 C9 1.286 . S
C9 U6 2.984 . S
C9 O7 1.353 . S
C9 O8 1.286 . S
C9 C11 1.363 . S
C10 C0 1.465 . S
C10 U6 2.847 . S
C10 O24 1.249 . S
C10 O25 1.202 . S
C11 C9 1.363 . S
C11 C13 1.408 . S
C11 C16 1.342 . S
C12 C13 1.310 . S
C12 C15 1.461 . S
C12 H32 0.932 . S
C13 C11 1.408 . S
C13 C12 1.310 . S
C13 H33 0.930 . S
C14 C15 1.474 . S
C14 C16 1.285 . S
C14 H34 0.929 . S
C15 C12 1.461 . S
C15 C14 1.474 . S
C16 C11 1.342 . S
C16 C14 1.285 . S
C16 H35 0.930 . S
C17 C20 1.424 . S
C17 C22 1.245 . S
C17 C23 1.428 . S
C18 C21 1.260 . S
C18 C22 1.477 . S
C18 H36 0.932 . S
C19 C20 1.384 . S
C19 C21 1.479 . S
C19 H37 0.929 . S
C20 C17 1.424 . S
C20 C19 1.384 . S
C20 H38 0.928 . S
C21 C18 1.260 . S
C21 C19 1.479 . S
C22 C17 1.245 . S
C22 C18 1.477 . S
C22 H39 0.932 . S
C23 U6 2.882 . S
C23 C17 1.428 . S
C23 O26 1.301 . S
C23 O27 1.282 . S
O24 U6 2.441 . S
O24 C10 1.249 . S
O25 U6 2.420 . S
O25 C10 1.202 . S
O26 U6 2.455 . S
O26 C23 1.301 . S
O27 U6 2.449 . S
O27 C23 1.282 . S
H28 C1 0.931 . S
H29 C3 0.929 . S
H30 C4 0.930 . S
H31 C5 0.931 . S
H32 C12 0.932 . S
H33 C13 0.930 . S
H34 C14 0.929 . S
H35 C16 0.930 . S
H36 C18 0.932 . S
H37 C19 0.929 . S
H38 C20 0.928 . S
H39 C22 0.932 . S
C40 C41 1.264 . S
C40 C45 1.479 . S
C40 C50 1.465 . S
C41 C40 1.264 . S
C41 C43 1.339 . S
C41 H68 0.931 . S
C42 C43 1.395 . S
C42 C44 1.320 . S
C43 C41 1.339 . S
C43 C42 1.395 . S
C43 H69 0.929 . S
C44 C42 1.320 . S
C44 C45 1.405 . S
C44 H70 0.930 . S
C45 C40 1.479 . S
C45 C44 1.405 . S
C45 H71 0.931 . S
U46 O47 2.454 . S
U46 O48 2.458 . S
U46 C49 2.984 . S
U46 C50 2.847 . S
U46 C63 2.882 . S
U46 O64 2.441 . S
U46 O65 2.420 . S
U46 O66 2.455 . S
U46 O67 2.449 . S
O47 U46 2.454 . S
O47 C49 1.353 . S
O48 U46 2.458 . S
O48 C49 1.286 . S
C49 U46 2.984 . S
C49 O47 1.353 . S
C49 O48 1.286 . S
C49 C51 1.363 . S
C50 C40 1.465 . S
C50 U46 2.847 . S
C50 O64 1.249 . S
C50 O65 1.202 . S
C51 C49 1.363 . S
C51 C53 1.408 . S
C51 C56 1.342 . S
C52 C53 1.310 . S
C52 C55 1.461 . S
C52 H72 0.932 . S
C53 C51 1.408 . S
C53 C52 1.310 . S
C53 H73 0.930 . S
C54 C55 1.474 . S
C54 C56 1.285 . S
C54 H74 0.929 . S
C55 C52 1.461 . S
C55 C54 1.474 . S
C56 C51 1.342 . S
C56 C54 1.285 . S
C56 H75 0.930 . S
C57 C60 1.424 . S
C57 C62 1.245 . S
C57 C63 1.428 . S
C58 C61 1.260 . S
C58 C62 1.477 . S
C58 H76 0.932 . S
C59 C60 1.384 . S
C59 C61 1.479 . S
C59 H77 0.929 . S
C60 C57 1.424 . S
C60 C59 1.384 . S
C60 H78 0.928 . S
C61 C58 1.260 . S
C61 C59 1.479 . S
C62 C57 1.245 . S
C62 C58 1.477 . S
C62 H79 0.932 . S
C63 U46 2.882 . S
C63 C57 1.428 . S
C63 O66 1.301 . S
C63 O67 1.282 . S
O64 U46 2.441 . S
O64 C50 1.249 . S
O65 U46 2.420 . S
O65 C50 1.202 . S
O66 U46 2.455 . S
O66 C63 1.301 . S
O67 U46 2.449 . S
O67 C63 1.282 . S
H68 C41 0.931 . S
H69 C43 0.929 . S
H70 C44 0.930 . S
H71 C45 0.931 . S
H72 C52 0.932 . S
H73 C53 0.930 . S
H74 C54 0.929 . S
H75 C56 0.930 . S
H76 C58 0.932 . S
H77 C59 0.929 . S
H78 C60 0.928 . S
H79 C62 0.932 . S
C80 C81 1.264 . S
C80 C85 1.479 . S
C80 C90 1.465 . S
C81 C80 1.264 . S
C81 C83 1.339 1_554 S
C81 H108 0.931 . S
C82 C83 1.395 . S
C82 C84 1.320 1_556 S
C83 C81 1.339 1_556 S
C83 C82 1.395 . S
C83 H109 0.929 . S
C84 C82 1.320 1_554 S
C84 C85 1.405 . S
C84 H110 0.930 . S
C85 C80 1.479 . S
C85 C84 1.405 . S
C85 H111 0.931 . S
U86 O87 2.454 . S
U86 O88 2.458 . S
U86 C89 2.984 . S
U86 C90 2.847 . S
U86 C103 2.882 . S
U86 O104 2.441 . S
U86 O105 2.420 . S
U86 O106 2.455 . S
U86 O107 2.449 . S
O87 U86 2.454 . S
O87 C89 1.353 . S
O88 U86 2.458 . S
O88 C89 1.286 . S
C89 U86 2.984 . S
C89 O87 1.353 . S
C89 O88 1.286 . S
C89 C91 1.363 . S
C90 C80 1.465 . S
C90 U86 2.847 . S
C90 O104 1.249 . S
C90 O105 1.202 . S
C91 C89 1.363 . S
C91 C93 1.408 . S
C91 C96 1.342 . S
C92 C93 1.310 . S
C92 C95 1.461 . S
C92 H112 0.932 . S
C93 C91 1.408 . S
C93 C92 1.310 . S
C93 H113 0.930 . S
C94 C95 1.474 . S
C94 C96 1.285 . S
C94 H114 0.929 . S
C95 C92 1.461 . S
C95 C94 1.474 . S
C96 C91 1.342 . S
C96 C94 1.285 . S
C96 H115 0.930 . S
C97 C100 1.424 . S
C97 C102 1.245 . S
C97 C103 1.428 . S
C98 C101 1.260 . S
C98 C102 1.477 . S
C98 H116 0.932 . S
C99 C100 1.384 . S
C99 C101 1.479 . S
C99 H117 0.929 1_554 S
C100 C97 1.424 . S
C100 C99 1.384 . S
C100 H118 0.928 . S
C101 C98 1.260 . S
C101 C99 1.479 . S
C102 C97 1.245 . S
C102 C98 1.477 . S
C102 H119 0.932 . S
C103 U86 2.882 . S
C103 C97 1.428 . S
C103 O106 1.301 . S
C103 O107 1.282 . S
O104 U86 2.441 . S
O104 C90 1.249 . S
O105 U86 2.420 . S
O105 C90 1.202 . S
O106 U86 2.455 . S
O106 C103 1.301 . S
O107 U86 2.449 . S
O107 C103 1.282 . S
H108 C81 0.931 . S
H109 C83 0.929 . S
H110 C84 0.930 . S
H111 C85 0.931 . S
H112 C92 0.932 . S
H113 C93 0.930 . S
H114 C94 0.929 . S
H115 C96 0.930 . S
H116 C98 0.932 . S
H117 C99 0.929 1_556 S
H118 C100 0.928 . S
H119 C102 0.932 . S
C120 C121 1.264 . S
C120 C125 1.479 . S
C120 C130 1.465 . S
C121 C120 1.264 . S
C121 C123 1.339 . S
C121 H148 0.931 . S
C122 C123 1.395 1_554 S
C122 C124 1.320 1_554 S
C123 C121 1.339 . S
C123 C122 1.395 1_556 S
C123 H149 0.929 1_556 S
C124 C122 1.320 1_556 S
C124 C125 1.405 . S
C124 H150 0.930 . S
C125 C120 1.479 . S
C125 C124 1.405 . S
C125 H151 0.931 . S
U126 O127 2.454 . S
U126 O128 2.458 . S
U126 C129 2.984 . S
U126 C130 2.847 . S
U126 C143 2.882 . S
U126 O144 2.441 . S
U126 O145 2.420 . S
U126 O146 2.455 . S
U126 O147 2.449 . S
O127 U126 2.454 . S
O127 C129 1.353 . S
O128 U126 2.458 . S
O128 C129 1.286 . S
C129 U126 2.984 . S
C129 O127 1.353 . S
C129 O128 1.286 . S
C129 C131 1.363 . S
C130 C120 1.465 . S
C130 U126 2.847 . S
C130 O144 1.249 . S
C130 O145 1.202 . S
C131 C129 1.363 . S
C131 C133 1.408 . S
C131 C136 1.342 . S
C132 C133 1.310 . S
C132 C135 1.461 . S
C132 H152 0.932 . S
C133 C131 1.408 . S
C133 C132 1.310 . S
C133 H153 0.930 . S
C134 C135 1.474 . S
C134 C136 1.285 . S
C134 H154 0.929 . S
C135 C132 1.461 . S
C135 C134 1.474 . S
C136 C131 1.342 . S
C136 C134 1.285 . S
C136 H155 0.930 . S
C137 C140 1.424 . S
C137 C142 1.245 . S
C137 C143 1.428 . S
C138 C141 1.260 . S
C138 C142 1.477 . S
C138 H156 0.932 . S
C139 C140 1.384 . S
C139 C141 1.479 . S
C139 H157 0.929 1_556 S
C140 C137 1.424 . S
C140 C139 1.384 . S
C140 H158 0.928 . S
C141 C138 1.260 . S
C141 C139 1.479 . S
C142 C137 1.245 . S
C142 C138 1.477 . S
C142 H159 0.932 . S
C143 U126 2.882 . S
C143 C137 1.428 . S
C143 O146 1.301 . S
C143 O147 1.282 . S
O144 U126 2.441 . S
O144 C130 1.249 . S
O145 U126 2.420 . S
O145 C130 1.202 . S
O146 U126 2.455 . S
O146 C143 1.301 . S
O147 U126 2.449 . S
O147 C143 1.282 . S
H148 C121 0.931 . S
H149 C123 0.929 1_554 S
H150 C124 0.930 . S
H151 C125 0.931 . S
H152 C132 0.932 . S
H153 C133 0.930 . S
H154 C134 0.929 . S
H155 C136 0.930 . S
H156 C138 0.932 . S
H157 C139 0.929 1_554 S
H158 C140 0.928 . S
H159 C142 0.932 . S
C160 C161 1.264 . S
C160 C165 1.479 . S
C160 C170 1.465 . S
C161 C160 1.264 . S
C161 C163 1.339 . S
C161 H188 0.931 . S
C162 C163 1.395 . S
C162 C164 1.320 . S
C163 C161 1.339 . S
C163 C162 1.395 . S
C163 H189 0.929 . S
C164 C162 1.320 . S
C164 C165 1.405 . S
C164 H190 0.930 . S
C165 C160 1.479 . S
C165 C164 1.405 . S
C165 H191 0.931 . S
U166 O167 2.454 . S
U166 O168 2.458 . S
U166 C169 2.984 . S
U166 C170 2.847 . S
U166 C183 2.882 . S
U166 O184 2.441 . S
U166 O185 2.420 . S
U166 O186 2.455 . S
U166 O187 2.449 . S
O167 U166 2.454 . S
O167 C169 1.353 . S
O168 U166 2.458 . S
O168 C169 1.286 . S
C169 U166 2.984 . S
C169 O167 1.353 . S
C169 O168 1.286 . S
C169 C171 1.363 . S
C170 C160 1.465 . S
C170 U166 2.847 . S
C170 O184 1.249 . S
C170 O185 1.202 . S
C171 C169 1.363 . S
C171 C173 1.408 . S
C171 C176 1.342 . S
C172 C173 1.310 . S
C172 C175 1.461 . S
C172 H192 0.932 . S
C173 C171 1.408 . S
C173 C172 1.310 . S
C173 H193 0.930 . S
C174 C175 1.474 . S
C174 C176 1.285 . S
C174 H194 0.929 . S
C175 C172 1.461 . S
C175 C174 1.474 . S
C176 C171 1.342 . S
C176 C174 1.285 . S
C176 H195 0.930 . S
C177 C180 1.424 . S
C177 C182 1.245 . S
C177 C183 1.428 . S
C178 C181 1.260 . S
C178 C182 1.477 . S
C178 H196 0.932 . S
C179 C180 1.384 . S
C179 C181 1.479 . S
C179 H197 0.929 . S
C180 C177 1.424 . S
C180 C179 1.384 . S
C180 H198 0.928 . S
C181 C178 1.260 . S
C181 C179 1.479 . S
C182 C177 1.245 . S
C182 C178 1.477 . S
C182 H199 0.932 . S
C183 U166 2.882 . S
C183 C177 1.428 . S
C183 O186 1.301 . S
C183 O187 1.282 . S
O184 U166 2.441 . S
O184 C170 1.249 . S
O185 U166 2.420 . S
O185 C170 1.202 . S
O186 U166 2.455 . S
O186 C183 1.301 . S
O187 U166 2.449 . S
O187 C183 1.282 . S
H188 C161 0.931 . S
H189 C163 0.929 . S
H190 C164 0.930 . S
H191 C165 0.931 . S
H192 C172 0.932 . S
H193 C173 0.930 . S
H194 C174 0.929 . S
H195 C176 0.930 . S
H196 C178 0.932 . S
H197 C179 0.929 . S
H198 C180 0.928 . S
H199 C182 0.932 . S
C200 C201 1.264 . S
C200 C205 1.479 . S
C200 C210 1.465 . S
C201 C200 1.264 . S
C201 C203 1.339 . S
C201 H228 0.931 1_556 S
C202 C203 1.395 . S
C202 C204 1.320 . S
C203 C201 1.339 . S
C203 C202 1.395 . S
C203 H229 0.929 1_556 S
C204 C202 1.320 . S
C204 C205 1.405 . S
C204 H230 0.930 . S
C205 C200 1.479 . S
C205 C204 1.405 . S
C205 H231 0.931 . S
U206 O207 2.454 . S
U206 O208 2.458 . S
U206 C209 2.984 . S
U206 C210 2.847 . S
U206 C223 2.882 . S
U206 O224 2.441 . S
U206 O225 2.420 . S
U206 O226 2.455 . S
U206 O227 2.449 . S
O207 U206 2.454 . S
O207 C209 1.353 . S
O208 U206 2.458 . S
O208 C209 1.286 . S
C209 U206 2.984 . S
C209 O207 1.353 . S
C209 O208 1.286 . S
C209 C211 1.363 . S
C210 C200 1.465 . S
C210 U206 2.847 . S
C210 O224 1.249 . S
C210 O225 1.202 . S
C211 C209 1.363 . S
C211 C213 1.408 . S
C211 C216 1.342 . S
C212 C213 1.310 . S
C212 C215 1.461 . S
C212 H232 0.932 . S
C213 C211 1.408 . S
C213 C212 1.310 . S
C213 H233 0.930 . S
C214 C215 1.474 . S
C214 C216 1.285 . S
C214 H234 0.929 . S
C215 C212 1.461 . S
C215 C214 1.474 . S
C216 C211 1.342 . S
C216 C214 1.285 . S
C216 H235 0.930 . S
C217 C220 1.424 . S
C217 C222 1.245 . S
C217 C223 1.428 . S
C218 C221 1.260 . S
C218 C222 1.477 . S
C218 H236 0.932 . S
C219 C220 1.384 . S
C219 C221 1.479 . S
C219 H237 0.929 1_556 S
C220 C217 1.424 . S
C220 C219 1.384 . S
C220 H238 0.928 . S
C221 C218 1.260 . S
C221 C219 1.479 . S
C222 C217 1.245 . S
C222 C218 1.477 . S
C222 H239 0.932 . S
C223 U206 2.882 . S
C223 C217 1.428 . S
C223 O226 1.301 . S
C223 O227 1.282 . S
O224 U206 2.441 . S
O224 C210 1.249 . S
O225 U206 2.420 . S
O225 C210 1.202 . S
O226 U206 2.455 . S
O226 C223 1.301 . S
O227 U206 2.449 . S
O227 C223 1.282 . S
H228 C201 0.931 1_554 S
H229 C203 0.929 1_554 S
H230 C204 0.930 . S
H231 C205 0.931 . S
H232 C212 0.932 . S
H233 C213 0.930 . S
H234 C214 0.929 . S
H235 C216 0.930 . S
H236 C218 0.932 . S
H237 C219 0.929 1_554 S
H238 C220 0.928 . S
H239 C222 0.932 . S
C240 C241 1.264 . S
C240 C245 1.479 . S
C240 C250 1.465 . S
C241 C240 1.264 . S
C241 C243 1.339 . S
C241 H268 0.931 . S
C242 C243 1.395 . S
C242 C244 1.320 . S
C243 C241 1.339 . S
C243 C242 1.395 . S
C243 H269 0.929 . S
C244 C242 1.320 . S
C244 C245 1.405 . S
C244 H270 0.930 . S
C245 C240 1.479 . S
C245 C244 1.405 . S
C245 H271 0.931 . S
U246 O247 2.454 . S
U246 O248 2.458 . S
U246 C249 2.984 . S
U246 C250 2.847 . S
U246 C263 2.882 . S
U246 O264 2.441 . S
U246 O265 2.420 . S
U246 O266 2.455 . S
U246 O267 2.449 . S
O247 U246 2.454 . S
O247 C249 1.353 . S
O248 U246 2.458 . S
O248 C249 1.286 . S
C249 U246 2.984 . S
C249 O247 1.353 . S
C249 O248 1.286 . S
C249 C251 1.363 . S
C250 C240 1.465 . S
C250 U246 2.847 . S
C250 O264 1.249 . S
C250 O265 1.202 . S
C251 C249 1.363 . S
C251 C253 1.408 . S
C251 C256 1.342 . S
C252 C253 1.310 . S
C252 C255 1.461 . S
C252 H272 0.932 . S
C253 C251 1.408 . S
C253 C252 1.310 . S
C253 H273 0.930 . S
C254 C255 1.474 . S
C254 C256 1.285 . S
C254 H274 0.929 . S
C255 C252 1.461 . S
C255 C254 1.474 . S
C256 C251 1.342 . S
C256 C254 1.285 . S
C256 H275 0.930 . S
C257 C260 1.424 . S
C257 C262 1.245 . S
C257 C263 1.428 . S
C258 C261 1.260 . S
C258 C262 1.477 . S
C258 H276 0.932 . S
C259 C260 1.384 . S
C259 C261 1.479 . S
C259 H277 0.929 . S
C260 C257 1.424 . S
C260 C259 1.384 . S
C260 H278 0.928 . S
C261 C258 1.260 . S
C261 C259 1.479 . S
C262 C257 1.245 . S
C262 C258 1.477 . S
C262 H279 0.932 . S
C263 U246 2.882 . S
C263 C257 1.428 . S
C263 O266 1.301 . S
C263 O267 1.282 . S
O264 U246 2.441 . S
O264 C250 1.249 . S
O265 U246 2.420 . S
O265 C250 1.202 . S
O266 U246 2.455 . S
O266 C263 1.301 . S
O267 U246 2.449 . S
O267 C263 1.282 . S
H268 C241 0.931 . S
H269 C243 0.929 . S
H270 C244 0.930 . S
H271 C245 0.931 . S
H272 C252 0.932 . S
H273 C253 0.930 . S
H274 C254 0.929 . S
H275 C256 0.930 . S
H276 C258 0.932 . S
H277 C259 0.929 . S
H278 C260 0.928 . S
H279 C262 0.932 . S
C280 C281 1.264 . S
C280 C285 1.479 . S
C280 C290 1.465 . S
C281 C280 1.264 . S
C281 C283 1.339 . S
C281 H308 0.931 . S
C282 C283 1.395 . S
C282 C284 1.320 . S
C283 C281 1.339 . S
C283 C282 1.395 . S
C283 H309 0.929 . S
C284 C282 1.320 . S
C284 C285 1.405 . S
C284 H310 0.930 . S
C285 C280 1.479 . S
C285 C284 1.405 . S
C285 H311 0.931 . S
U286 O287 2.454 . S
U286 O288 2.458 . S
U286 C289 2.984 . S
U286 C290 2.847 . S
U286 C303 2.882 . S
U286 O304 2.441 . S
U286 O305 2.420 . S
U286 O306 2.455 . S
U286 O307 2.449 . S
O287 U286 2.454 . S
O287 C289 1.353 . S
O288 U286 2.458 . S
O288 C289 1.286 . S
C289 U286 2.984 . S
C289 O287 1.353 . S
C289 O288 1.286 . S
C289 C291 1.363 . S
C290 C280 1.465 . S
C290 U286 2.847 . S
C290 O304 1.249 . S
C290 O305 1.202 . S
C291 C289 1.363 . S
C291 C293 1.408 . S
C291 C296 1.342 . S
C292 C293 1.310 . S
C292 C295 1.461 . S
C292 H312 0.932 . S
C293 C291 1.408 . S
C293 C292 1.310 . S
C293 H313 0.930 . S
C294 C295 1.474 . S
C294 C296 1.285 . S
C294 H314 0.929 . S
C295 C292 1.461 . S
C295 C294 1.474 . S
C296 C291 1.342 . S
C296 C294 1.285 . S
C296 H315 0.930 . S
C297 C300 1.424 . S
C297 C302 1.245 . S
C297 C303 1.428 . S
C298 C301 1.260 . S
C298 C302 1.477 . S
C298 H316 0.932 . S
C299 C300 1.384 . S
C299 C301 1.479 . S
C299 H317 0.929 . S
C300 C297 1.424 . S
C300 C299 1.384 . S
C300 H318 0.928 . S
C301 C298 1.260 . S
C301 C299 1.479 . S
C302 C297 1.245 . S
C302 C298 1.477 . S
C302 H319 0.932 . S
C303 U286 2.882 . S
C303 C297 1.428 . S
C303 O306 1.301 . S
C303 O307 1.282 . S
O304 U286 2.441 . S
O304 C290 1.249 . S
O305 U286 2.420 . S
O305 C290 1.202 . S
O306 U286 2.455 . S
O306 C303 1.301 . S
O307 U286 2.449 . S
O307 C303 1.282 . S
H308 C281 0.931 . S
H309 C283 0.929 . S
H310 C284 0.930 . S
H311 C285 0.931 . S
H312 C292 0.932 . S
H313 C293 0.930 . S
H314 C294 0.929 . S
H315 C296 0.930 . S
H316 C298 0.932 . S
H317 C299 0.929 . S
H318 C300 0.928 . S
H319 C302 0.932 . S
C320 C321 1.264 . S
C320 C325 1.479 . S
C320 C330 1.465 . S
C321 C320 1.264 . S
C321 C323 1.339 . S
C321 H348 0.931 . S
C322 C323 1.395 . S
C322 C324 1.320 . S
C323 C321 1.339 . S
C323 C322 1.395 . S
C323 H349 0.929 . S
C324 C322 1.320 . S
C324 C325 1.405 . S
C324 H350 0.930 . S
C325 C320 1.479 . S
C325 C324 1.405 . S
C325 H351 0.931 . S
U326 O327 2.454 . S
U326 O328 2.458 . S
U326 C329 2.984 . S
U326 C330 2.847 . S
U326 C343 2.882 . S
U326 O344 2.441 . S
U326 O345 2.420 . S
U326 O346 2.455 . S
U326 O347 2.449 . S
O327 U326 2.454 . S
O327 C329 1.353 . S
O328 U326 2.458 . S
O328 C329 1.286 . S
C329 U326 2.984 . S
C329 O327 1.353 . S
C329 O328 1.286 . S
C329 C331 1.363 . S
C330 C320 1.465 . S
C330 U326 2.847 . S
C330 O344 1.249 . S
C330 O345 1.202 . S
C331 C329 1.363 . S
C331 C333 1.408 . S
C331 C336 1.342 . S
C332 C333 1.310 . S
C332 C335 1.461 . S
C332 H352 0.932 . S
C333 C331 1.408 . S
C333 C332 1.310 . S
C333 H353 0.930 . S
C334 C335 1.474 . S
C334 C336 1.285 . S
C334 H354 0.929 . S
C335 C332 1.461 . S
C335 C334 1.474 . S
C336 C331 1.342 . S
C336 C334 1.285 . S
C336 H355 0.930 . S
C337 C340 1.424 . S
C337 C342 1.245 . S
C337 C343 1.428 . S
C338 C341 1.260 . S
C338 C342 1.477 . S
C338 H356 0.932 . S
C339 C340 1.384 . S
C339 C341 1.479 . S
C339 H357 0.929 . S
C340 C337 1.424 . S
C340 C339 1.384 . S
C340 H358 0.928 . S
C341 C338 1.260 . S
C341 C339 1.479 . S
C342 C337 1.245 . S
C342 C338 1.477 . S
C342 H359 0.932 . S
C343 U326 2.882 . S
C343 C337 1.428 . S
C343 O346 1.301 . S
C343 O347 1.282 . S
O344 U326 2.441 . S
O344 C330 1.249 . S
O345 U326 2.420 . S
O345 C330 1.202 . S
O346 U326 2.455 . S
O346 C343 1.301 . S
O347 U326 2.449 . S
O347 C343 1.282 . S
H348 C321 0.931 . S
H349 C323 0.929 . S
H350 C324 0.930 . S
H351 C325 0.931 . S
H352 C332 0.932 . S
H353 C333 0.930 . S
H354 C334 0.929 . S
H355 C336 0.930 . S
H356 C338 0.932 . S
H357 C339 0.929 . S
H358 C340 0.928 . S
H359 C342 0.932 . S
C360 C361 1.264 . S
C360 C365 1.479 . S
C360 C370 1.465 . S
C361 C360 1.264 . S
C361 C363 1.339 . S
C361 H388 0.931 . S
C362 C363 1.395 . S
C362 C364 1.320 . S
C363 C361 1.339 . S
C363 C362 1.395 . S
C363 H389 0.929 . S
C364 C362 1.320 . S
C364 C365 1.405 . S
C364 H390 0.930 . S
C365 C360 1.479 . S
C365 C364 1.405 . S
C365 H391 0.931 . S
U366 O367 2.454 . S
U366 O368 2.458 . S
U366 C369 2.984 . S
U366 C370 2.847 . S
U366 C383 2.882 . S
U366 O384 2.441 . S
U366 O385 2.420 . S
U366 O386 2.455 . S
U366 O387 2.449 . S
O367 U366 2.454 . S
O367 C369 1.353 . S
O368 U366 2.458 . S
O368 C369 1.286 . S
C369 U366 2.984 . S
C369 O367 1.353 . S
C369 O368 1.286 . S
C369 C371 1.363 . S
C370 C360 1.465 . S
C370 U366 2.847 . S
C370 O384 1.249 . S
C370 O385 1.202 . S
C371 C369 1.363 . S
C371 C373 1.408 . S
C371 C376 1.342 . S
C372 C373 1.310 . S
C372 C375 1.461 . S
C372 H392 0.932 . S
C373 C371 1.408 . S
C373 C372 1.310 . S
C373 H393 0.930 . S
C374 C375 1.474 . S
C374 C376 1.285 . S
C374 H394 0.929 . S
C375 C372 1.461 . S
C375 C374 1.474 . S
C376 C371 1.342 . S
C376 C374 1.285 . S
C376 H395 0.930 . S
C377 C380 1.424 . S
C377 C382 1.245 . S
C377 C383 1.428 . S
C378 C381 1.260 . S
C378 C382 1.477 . S
C378 H396 0.932 . S
C379 C380 1.384 . S
C379 C381 1.479 . S
C379 H397 0.929 . S
C380 C377 1.424 . S
C380 C379 1.384 . S
C380 H398 0.928 . S
C381 C378 1.260 . S
C381 C379 1.479 . S
C382 C377 1.245 . S
C382 C378 1.477 . S
C382 H399 0.932 . S
C383 U366 2.882 . S
C383 C377 1.428 . S
C383 O386 1.301 . S
C383 O387 1.282 . S
O384 U366 2.441 . S
O384 C370 1.249 . S
O385 U366 2.420 . S
O385 C370 1.202 . S
O386 U366 2.455 . S
O386 C383 1.301 . S
O387 U366 2.449 . S
O387 C383 1.282 . S
H388 C361 0.931 . S
H389 C363 0.929 . S
H390 C364 0.930 . S
H391 C365 0.931 . S
H392 C372 0.932 . S
H393 C373 0.930 . S
H394 C374 0.929 . S
H395 C376 0.930 . S
H396 C378 0.932 . S
H397 C379 0.929 . S
H398 C380 0.928 . S
H399 C382 0.932 . S
C400 C401 1.264 . S
C400 C405 1.479 . S
C400 C410 1.465 . S
C401 C400 1.264 . S
C401 C403 1.339 . S
C401 H428 0.931 . S
C402 C403 1.395 . S
C402 C404 1.320 . S
C403 C401 1.339 . S
C403 C402 1.395 . S
C403 H429 0.929 . S
C404 C402 1.320 . S
C404 C405 1.405 . S
C404 H430 0.930 . S
C405 C400 1.479 . S
C405 C404 1.405 . S
C405 H431 0.931 . S
U406 O407 2.454 . S
U406 O408 2.458 . S
U406 C409 2.984 . S
U406 C410 2.847 . S
U406 C423 2.882 . S
U406 O424 2.441 . S
U406 O425 2.420 . S
U406 O426 2.455 . S
U406 O427 2.449 . S
O407 U406 2.454 . S
O407 C409 1.353 . S
O408 U406 2.458 . S
O408 C409 1.286 . S
C409 U406 2.984 . S
C409 O407 1.353 . S
C409 O408 1.286 . S
C409 C411 1.363 . S
C410 C400 1.465 . S
C410 U406 2.847 . S
C410 O424 1.249 . S
C410 O425 1.202 . S
C411 C409 1.363 . S
C411 C413 1.408 . S
C411 C416 1.342 . S
C412 C413 1.310 . S
C412 C415 1.461 . S
C412 H432 0.932 . S
C413 C411 1.408 . S
C413 C412 1.310 . S
C413 H433 0.930 . S
C414 C415 1.474 . S
C414 C416 1.285 . S
C414 H434 0.929 . S
C415 C412 1.461 . S
C415 C414 1.474 . S
C416 C411 1.342 . S
C416 C414 1.285 . S
C416 H435 0.930 . S
C417 C420 1.424 . S
C417 C422 1.245 . S
C417 C423 1.428 . S
C418 C421 1.260 . S
C418 C422 1.477 . S
C418 H436 0.932 . S
C419 C420 1.384 . S
C419 C421 1.479 . S
C419 H437 0.929 . S
C420 C417 1.424 . S
C420 C419 1.384 . S
C420 H438 0.928 . S
C421 C418 1.260 . S
C421 C419 1.479 . S
C422 C417 1.245 . S
C422 C418 1.477 . S
C422 H439 0.932 . S
C423 U406 2.882 . S
C423 C417 1.428 . S
C423 O426 1.301 . S
C423 O427 1.282 . S
O424 U406 2.441 . S
O424 C410 1.249 . S
O425 U406 2.420 . S
O425 C410 1.202 . S
O426 U406 2.455 . S
O426 C423 1.301 . S
O427 U406 2.449 . S
O427 C423 1.282 . S
H428 C401 0.931 . S
H429 C403 0.929 . S
H430 C404 0.930 . S
H431 C405 0.931 . S
H432 C412 0.932 . S
H433 C413 0.930 . S
H434 C414 0.929 . S
H435 C416 0.930 . S
H436 C418 0.932 . S
H437 C419 0.929 . S
H438 C420 0.928 . S
H439 C422 0.932 . S
C440 C441 1.264 . S
C440 C445 1.479 . S
C440 C450 1.465 . S
C441 C440 1.264 . S
C441 C443 1.339 . S
C441 H468 0.931 . S
C442 C443 1.395 . S
C442 C444 1.320 . S
C443 C441 1.339 . S
C443 C442 1.395 . S
C443 H469 0.929 . S
C444 C442 1.320 . S
C444 C445 1.405 . S
C444 H470 0.930 . S
C445 C440 1.479 . S
C445 C444 1.405 . S
C445 H471 0.931 . S
U446 O447 2.454 . S
U446 O448 2.458 . S
U446 C449 2.984 . S
U446 C450 2.847 . S
U446 C463 2.882 . S
U446 O464 2.441 . S
U446 O465 2.420 . S
U446 O466 2.455 . S
U446 O467 2.449 . S
O447 U446 2.454 . S
O447 C449 1.353 . S
O448 U446 2.458 . S
O448 C449 1.286 . S
C449 U446 2.984 . S
C449 O447 1.353 . S
C449 O448 1.286 . S
C449 C451 1.363 . S
C450 C440 1.465 . S
C450 U446 2.847 . S
C450 O464 1.249 . S
C450 O465 1.202 . S
C451 C449 1.363 . S
C451 C453 1.408 . S
C451 C456 1.342 . S
C452 C453 1.310 . S
C452 C455 1.461 . S
C452 H472 0.932 . S
C453 C451 1.408 . S
C453 C452 1.310 . S
C453 H473 0.930 . S
C454 C455 1.474 . S
C454 C456 1.285 . S
C454 H474 0.929 . S
C455 C452 1.461 . S
C455 C454 1.474 . S
C456 C451 1.342 . S
C456 C454 1.285 . S
C456 H475 0.930 . S
C457 C460 1.424 . S
C457 C462 1.245 . S
C457 C463 1.428 . S
C458 C461 1.260 . S
C458 C462 1.477 . S
C458 H476 0.932 . S
C459 C460 1.384 . S
C459 C461 1.479 . S
C459 H477 0.929 . S
C460 C457 1.424 . S
C460 C459 1.384 . S
C460 H478 0.928 . S
C461 C458 1.260 . S
C461 C459 1.479 . S
C462 C457 1.245 . S
C462 C458 1.477 . S
C462 H479 0.932 . S
C463 U446 2.882 . S
C463 C457 1.428 . S
C463 O466 1.301 . S
C463 O467 1.282 . S
O464 U446 2.441 . S
O464 C450 1.249 . S
O465 U446 2.420 . S
O465 C450 1.202 . S
O466 U446 2.455 . S
O466 C463 1.301 . S
O467 U446 2.449 . S
O467 C463 1.282 . S
H468 C441 0.931 . S
H469 C443 0.929 . S
H470 C444 0.930 . S
H471 C445 0.931 . S
H472 C452 0.932 . S
H473 C453 0.930 . S
H474 C454 0.929 . S
H475 C456 0.930 . S
H476 C458 0.932 . S
H477 C459 0.929 . S
H478 C460 0.928 . S
H479 C462 0.932 . S
C480 C481 1.264 . S
C480 C485 1.479 . S
C480 C490 1.465 . S
C481 C480 1.264 . S
C481 C483 1.339 . S
C481 H508 0.931 . S
C482 C483 1.395 . S
C482 C484 1.320 . S
C483 C481 1.339 . S
C483 C482 1.395 . S
C483 H509 0.929 . S
C484 C482 1.320 . S
C484 C485 1.405 . S
C484 H510 0.930 . S
C485 C480 1.479 . S
C485 C484 1.405 . S
C485 H511 0.931 . S
U486 O487 2.454 . S
U486 O488 2.458 . S
U486 C489 2.984 . S
U486 C490 2.847 . S
U486 C503 2.882 . S
U486 O504 2.441 . S
U486 O505 2.420 . S
U486 O506 2.455 . S
U486 O507 2.449 . S
O487 U486 2.454 . S
O487 C489 1.353 . S
O488 U486 2.458 . S
O488 C489 1.286 . S
C489 U486 2.984 . S
C489 O487 1.353 . S
C489 O488 1.286 . S
C489 C491 1.363 . S
C490 C480 1.465 . S
C490 U486 2.847 . S
C490 O504 1.249 . S
C490 O505 1.202 . S
C491 C489 1.363 . S
C491 C493 1.408 . S
C491 C496 1.342 . S
C492 C493 1.310 . S
C492 C495 1.461 . S
C492 H512 0.932 . S
C493 C491 1.408 . S
C493 C492 1.310 . S
C493 H513 0.930 . S
C494 C495 1.474 . S
C494 C496 1.285 . S
C494 H514 0.929 . S
C495 C492 1.461 . S
C495 C494 1.474 . S
C496 C491 1.342 . S
C496 C494 1.285 . S
C496 H515 0.930 . S
C497 C500 1.424 . S
C497 C502 1.245 . S
C497 C503 1.428 . S
C498 C501 1.260 . S
C498 C502 1.477 . S
C498 H516 0.932 . S
C499 C500 1.384 . S
C499 C501 1.479 . S
C499 H517 0.929 . S
C500 C497 1.424 . S
C500 C499 1.384 . S
C500 H518 0.928 . S
C501 C498 1.260 . S
C501 C499 1.479 . S
C502 C497 1.245 . S
C502 C498 1.477 . S
C502 H519 0.932 . S
C503 U486 2.882 . S
C503 C497 1.428 . S
C503 O506 1.301 . S
C503 O507 1.282 . S
O504 U486 2.441 . S
O504 C490 1.249 . S
O505 U486 2.420 . S
O505 C490 1.202 . S
O506 U486 2.455 . S
O506 C503 1.301 . S
O507 U486 2.449 . S
O507 C503 1.282 . S
H508 C481 0.931 . S
H509 C483 0.929 . S
H510 C484 0.930 . S
H511 C485 0.931 . S
H512 C492 0.932 . S
H513 C493 0.930 . S
H514 C494 0.929 . S
H515 C496 0.930 . S
H516 C498 0.932 . S
H517 C499 0.929 . S
H518 C500 0.928 . S
H519 C502 0.932 . S
C520 C521 1.264 . S
C520 C525 1.479 . S
C520 C530 1.465 . S
C521 C520 1.264 . S
C521 C523 1.339 . S
C521 H548 0.931 . S
C522 C523 1.395 . S
C522 C524 1.320 . S
C523 C521 1.339 . S
C523 C522 1.395 . S
C523 H549 0.929 . S
C524 C522 1.320 . S
C524 C525 1.405 . S
C524 H550 0.930 . S
C525 C520 1.479 . S
C525 C524 1.405 . S
C525 H551 0.931 . S
U526 O527 2.454 . S
U526 O528 2.458 . S
U526 C529 2.984 . S
U526 C530 2.847 . S
U526 C543 2.882 . S
U526 O544 2.441 . S
U526 O545 2.420 . S
U526 O546 2.455 . S
U526 O547 2.449 . S
O527 U526 2.454 . S
O527 C529 1.353 . S
O528 U526 2.458 . S
O528 C529 1.286 . S
C529 U526 2.984 . S
C529 O527 1.353 . S
C529 O528 1.286 . S
C529 C531 1.363 . S
C530 C520 1.465 . S
C530 U526 2.847 . S
C530 O544 1.249 . S
C530 O545 1.202 . S
C531 C529 1.363 . S
C531 C533 1.408 . S
C531 C536 1.342 . S
C532 C533 1.310 . S
C532 C535 1.461 . S
C532 H552 0.932 . S
C533 C531 1.408 . S
C533 C532 1.310 . S
C533 H553 0.930 . S
C534 C535 1.474 . S
C534 C536 1.285 . S
C534 H554 0.929 . S
C535 C532 1.461 . S
C535 C534 1.474 . S
C536 C531 1.342 . S
C536 C534 1.285 . S
C536 H555 0.930 . S
C537 C540 1.424 . S
C537 C542 1.245 . S
C537 C543 1.428 . S
C538 C541 1.260 . S
C538 C542 1.477 . S
C538 H556 0.932 . S
C539 C540 1.384 . S
C539 C541 1.479 . S
C539 H557 0.929 . S
C540 C537 1.424 . S
C540 C539 1.384 . S
C540 H558 0.928 . S
C541 C538 1.260 . S
C541 C539 1.479 . S
C542 C537 1.245 . S
C542 C538 1.477 . S
C542 H559 0.932 . S
C543 U526 2.882 . S
C543 C537 1.428 . S
C543 O546 1.301 . S
C543 O547 1.282 . S
O544 U526 2.441 . S
O544 C530 1.249 . S
O545 U526 2.420 . S
O545 C530 1.202 . S
O546 U526 2.455 . S
O546 C543 1.301 . S
O547 U526 2.449 . S
O547 C543 1.282 . S
H548 C521 0.931 . S
H549 C523 0.929 . S
H550 C524 0.930 . S
H551 C525 0.931 . S
H552 C532 0.932 . S
H553 C533 0.930 . S
H554 C534 0.929 . S
H555 C536 0.930 . S
H556 C538 0.932 . S
H557 C539 0.929 . S
H558 C540 0.928 . S
H559 C542 0.932 . S
C560 C561 1.264 . S
C560 C565 1.479 . S
C560 C570 1.465 . S
C561 C560 1.264 . S
C561 C563 1.339 . S
C561 H588 0.931 . S
C562 C563 1.395 . S
C562 C564 1.320 . S
C563 C561 1.339 . S
C563 C562 1.395 . S
C563 H589 0.929 . S
C564 C562 1.320 . S
C564 C565 1.405 . S
C564 H590 0.930 . S
C565 C560 1.479 . S
C565 C564 1.405 . S
C565 H591 0.931 . S
U566 O567 2.454 . S
U566 O568 2.458 . S
U566 C569 2.984 . S
U566 C570 2.847 . S
U566 C583 2.882 . S
U566 O584 2.441 . S
U566 O585 2.420 . S
U566 O586 2.455 . S
U566 O587 2.449 . S
O567 U566 2.454 . S
O567 C569 1.353 . S
O568 U566 2.458 . S
O568 C569 1.286 . S
C569 U566 2.984 . S
C569 O567 1.353 . S
C569 O568 1.286 . S
C569 C571 1.363 . S
C570 C560 1.465 . S
C570 U566 2.847 . S
C570 O584 1.249 . S
C570 O585 1.202 . S
C571 C569 1.363 . S
C571 C573 1.408 . S
C571 C576 1.342 . S
C572 C573 1.310 . S
C572 C575 1.461 . S
C572 H592 0.932 . S
C573 C571 1.408 . S
C573 C572 1.310 . S
C573 H593 0.930 . S
C574 C575 1.474 . S
C574 C576 1.285 . S
C574 H594 0.929 . S
C575 C572 1.461 . S
C575 C574 1.474 . S
C576 C571 1.342 . S
C576 C574 1.285 . S
C576 H595 0.930 . S
C577 C580 1.424 . S
C577 C582 1.245 . S
C577 C583 1.428 . S
C578 C581 1.260 . S
C578 C582 1.477 . S
C578 H596 0.932 . S
C579 C580 1.384 . S
C579 C581 1.479 . S
C579 H597 0.929 . S
C580 C577 1.424 . S
C580 C579 1.384 . S
C580 H598 0.928 . S
C581 C578 1.260 . S
C581 C579 1.479 . S
C582 C577 1.245 . S
C582 C578 1.477 . S
C582 H599 0.932 . S
C583 U566 2.882 . S
C583 C577 1.428 . S
C583 O586 1.301 . S
C583 O587 1.282 . S
O584 U566 2.441 . S
O584 C570 1.249 . S
O585 U566 2.420 . S
O585 C570 1.202 . S
O586 U566 2.455 . S
O586 C583 1.301 . S
O587 U566 2.449 . S
O587 C583 1.282 . S
H588 C561 0.931 . S
H589 C563 0.929 . S
H590 C564 0.930 . S
H591 C565 0.931 . S
H592 C572 0.932 . S
H593 C573 0.930 . S
H594 C574 0.929 . S
H595 C576 0.930 . S
H596 C578 0.932 . S
H597 C579 0.929 . S
H598 C580 0.928 . S
H599 C582 0.932 . S
C600 C601 1.264 . S
C600 C605 1.479 . S
C600 C610 1.465 . S
C601 C600 1.264 . S
C601 C603 1.339 . S
C601 H628 0.931 . S
C602 C603 1.395 . S
C602 C604 1.320 . S
C603 C601 1.339 . S
C603 C602 1.395 . S
C603 H629 0.929 . S
C604 C602 1.320 . S
C604 C605 1.405 . S
C604 H630 0.930 . S
C605 C600 1.479 . S
C605 C604 1.405 . S
C605 H631 0.931 . S
U606 O607 2.454 . S
U606 O608 2.458 . S
U606 C609 2.984 . S
U606 C610 2.847 . S
U606 C623 2.882 . S
U606 O624 2.441 . S
U606 O625 2.420 . S
U606 O626 2.455 . S
U606 O627 2.449 . S
O607 U606 2.454 . S
O607 C609 1.353 . S
O608 U606 2.458 . S
O608 C609 1.286 . S
C609 U606 2.984 . S
C609 O607 1.353 . S
C609 O608 1.286 . S
C609 C611 1.363 . S
C610 C600 1.465 . S
C610 U606 2.847 . S
C610 O624 1.249 . S
C610 O625 1.202 . S
C611 C609 1.363 . S
C611 C613 1.408 . S
C611 C616 1.342 . S
C612 C613 1.310 . S
C612 C615 1.461 . S
C612 H632 0.932 . S
C613 C611 1.408 . S
C613 C612 1.310 . S
C613 H633 0.930 . S
C614 C615 1.474 . S
C614 C616 1.285 . S
C614 H634 0.929 . S
C615 C612 1.461 . S
C615 C614 1.474 . S
C616 C611 1.342 . S
C616 C614 1.285 . S
C616 H635 0.930 . S
C617 C620 1.424 . S
C617 C622 1.245 . S
C617 C623 1.428 . S
C618 C621 1.260 . S
C618 C622 1.477 . S
C618 H636 0.932 . S
C619 C620 1.384 . S
C619 C621 1.479 . S
C619 H637 0.929 . S
C620 C617 1.424 . S
C620 C619 1.384 . S
C620 H638 0.928 . S
C621 C618 1.260 . S
C621 C619 1.479 . S
C622 C617 1.245 . S
C622 C618 1.477 . S
C622 H639 0.932 . S
C623 U606 2.882 . S
C623 C617 1.428 . S
C623 O626 1.301 . S
C623 O627 1.282 . S
O624 U606 2.441 . S
O624 C610 1.249 . S
O625 U606 2.420 . S
O625 C610 1.202 . S
O626 U606 2.455 . S
O626 C623 1.301 . S
O627 U606 2.449 . S
O627 C623 1.282 . S
H628 C601 0.931 . S
H629 C603 0.929 . S
H630 C604 0.930 . S
H631 C605 0.931 . S
H632 C612 0.932 . S
H633 C613 0.930 . S
H634 C614 0.929 . S
H635 C616 0.930 . S
H636 C618 0.932 . S
H637 C619 0.929 . S
H638 C620 0.928 . S
H639 C622 0.932 . S
C640 C641 1.264 . S
C640 C645 1.479 . S
C640 C650 1.465 . S
C641 C640 1.264 . S
C641 C643 1.339 . S
C641 H668 0.931 . S
C642 C643 1.395 . S
C642 C644 1.320 . S
C643 C641 1.339 . S
C643 C642 1.395 . S
C643 H669 0.929 . S
C644 C642 1.320 . S
C644 C645 1.405 . S
C644 H670 0.930 . S
C645 C640 1.479 . S
C645 C644 1.405 . S
C645 H671 0.931 . S
U646 O647 2.454 . S
U646 O648 2.458 . S
U646 C649 2.984 . S
U646 C650 2.847 . S
U646 C663 2.882 . S
U646 O664 2.441 . S
U646 O665 2.420 . S
U646 O666 2.455 . S
U646 O667 2.449 . S
O647 U646 2.454 . S
O647 C649 1.353 . S
O648 U646 2.458 . S
O648 C649 1.286 . S
C649 U646 2.984 . S
C649 O647 1.353 . S
C649 O648 1.286 . S
C649 C651 1.363 . S
C650 C640 1.465 . S
C650 U646 2.847 . S
C650 O664 1.249 . S
C650 O665 1.202 . S
C651 C649 1.363 . S
C651 C653 1.408 . S
C651 C656 1.342 . S
C652 C653 1.310 . S
C652 C655 1.461 . S
C652 H672 0.932 . S
C653 C651 1.408 . S
C653 C652 1.310 . S
C653 H673 0.930 . S
C654 C655 1.474 . S
C654 C656 1.285 . S
C654 H674 0.929 . S
C655 C652 1.461 . S
C655 C654 1.474 . S
C656 C651 1.342 . S
C656 C654 1.285 . S
C656 H675 0.930 . S
C657 C660 1.424 . S
C657 C662 1.245 . S
C657 C663 1.428 . S
C658 C661 1.260 . S
C658 C662 1.477 . S
C658 H676 0.932 . S
C659 C660 1.384 . S
C659 C661 1.479 . S
C659 H677 0.929 . S
C660 C657 1.424 . S
C660 C659 1.384 . S
C660 H678 0.928 . S
C661 C658 1.260 . S
C661 C659 1.479 . S
C662 C657 1.245 . S
C662 C658 1.477 . S
C662 H679 0.932 . S
C663 U646 2.882 . S
C663 C657 1.428 . S
C663 O666 1.301 . S
C663 O667 1.282 . S
O664 U646 2.441 . S
O664 C650 1.249 . S
O665 U646 2.420 . S
O665 C650 1.202 . S
O666 U646 2.455 . S
O666 C663 1.301 . S
O667 U646 2.449 . S
O667 C663 1.282 . S
H668 C641 0.931 . S
H669 C643 0.929 . S
H670 C644 0.930 . S
H671 C645 0.931 . S
H672 C652 0.932 . S
H673 C653 0.930 . S
H674 C654 0.929 . S
H675 C656 0.930 . S
H676 C658 0.932 . S
H677 C659 0.929 . S
H678 C660 0.928 . S
H679 C662 0.932 . S
C680 C681 1.264 . S
C680 C685 1.479 . S
C680 C690 1.465 . S
C681 C680 1.264 . S
C681 C683 1.339 . S
C681 H708 0.931 . S
C682 C683 1.395 . S
C682 C684 1.320 . S
C683 C681 1.339 . S
C683 C682 1.395 . S
C683 H709 0.929 . S
C684 C682 1.320 . S
C684 C685 1.405 . S
C684 H710 0.930 . S
C685 C680 1.479 . S
C685 C684 1.405 . S
C685 H711 0.931 . S
U686 O687 2.454 . S
U686 O688 2.458 . S
U686 C689 2.984 . S
U686 C690 2.847 . S
U686 C703 2.882 . S
U686 O704 2.441 . S
U686 O705 2.420 . S
U686 O706 2.455 . S
U686 O707 2.449 . S
O687 U686 2.454 . S
O687 C689 1.353 . S
O688 U686 2.458 . S
O688 C689 1.286 . S
C689 U686 2.984 . S
C689 O687 1.353 . S
C689 O688 1.286 . S
C689 C691 1.363 . S
C690 C680 1.465 . S
C690 U686 2.847 . S
C690 O704 1.249 . S
C690 O705 1.202 . S
C691 C689 1.363 . S
C691 C693 1.408 . S
C691 C696 1.342 . S
C692 C693 1.310 . S
C692 C695 1.461 . S
C692 H712 0.932 . S
C693 C691 1.408 . S
C693 C692 1.310 . S
C693 H713 0.930 . S
C694 C695 1.474 . S
C694 C696 1.285 . S
C694 H714 0.929 . S
C695 C692 1.461 . S
C695 C694 1.474 . S
C696 C691 1.342 . S
C696 C694 1.285 . S
C696 H715 0.930 . S
C697 C700 1.424 . S
C697 C702 1.245 . S
C697 C703 1.428 . S
C698 C701 1.260 . S
C698 C702 1.477 . S
C698 H716 0.932 . S
C699 C700 1.384 . S
C699 C701 1.479 . S
C699 H717 0.929 . S
C700 C697 1.424 . S
C700 C699 1.384 . S
C700 H718 0.928 . S
C701 C698 1.260 . S
C701 C699 1.479 . S
C702 C697 1.245 . S
C702 C698 1.477 . S
C702 H719 0.932 . S
C703 U686 2.882 . S
C703 C697 1.428 . S
C703 O706 1.301 . S
C703 O707 1.282 . S
O704 U686 2.441 . S
O704 C690 1.249 . S
O705 U686 2.420 . S
O705 C690 1.202 . S
O706 U686 2.455 . S
O706 C703 1.301 . S
O707 U686 2.449 . S
O707 C703 1.282 . S
H708 C681 0.931 . S
H709 C683 0.929 . S
H710 C684 0.930 . S
H711 C685 0.931 . S
H712 C692 0.932 . S
H713 C693 0.930 . S
H714 C694 0.929 . S
H715 C696 0.930 . S
H716 C698 0.932 . S
H717 C699 0.929 . S
H718 C700 0.928 . S
H719 C702 0.932 . S
H720 C738 0.951 . S
H721 C740 0.951 . S
H722 C742 0.950 . S
H723 C743 0.950 . S
H724 C745 0.950 . S
H725 C748 0.950 . S
H726 C749 0.950 . S
H727 C751 0.950 . S
H728 C752 0.950 . S
H729 C753 0.951 . S
H730 C755 0.951 . S
H731 C757 0.950 . S
H732 C758 0.950 . S
H733 C760 0.950 . S
H734 C763 0.950 . S
H735 C764 0.950 . S
H736 C766 0.950 . S
H737 C767 0.950 . S
C738 H720 0.951 . S
C738 C739 1.366 1_556 S
C738 C740 1.388 . S
C739 C738 1.366 1_554 S
C739 C743 1.385 . S
C740 H721 0.951 . S
C740 C738 1.388 . S
C740 C741 1.366 1_556 S
C741 C740 1.366 1_554 S
C741 C742 1.414 . S
C741 C744 1.499 . S
C742 H722 0.950 . S
C742 C741 1.414 . S
C742 C743 1.374 . S
C743 H723 0.950 . S
C743 C739 1.385 . S
C743 C742 1.374 . S
C744 C741 1.499 . S
C744 C745 1.373 . S
C744 C746 1.389 . S
C745 H724 0.950 . S
C745 C744 1.373 . S
C745 C761 1.377 1_545 S
C746 C744 1.389 . S
C746 C747 1.524 . S
C746 C760 1.377 1_544 S
C747 C746 1.524 . S
C747 C748 1.397 . S
C747 C752 1.363 1_554 S
C748 H725 0.950 . S
C748 C747 1.397 . S
C748 C749 1.334 . S
C749 H726 0.950 . S
C749 C748 1.334 . S
C749 C750 1.287 . S
C750 C749 1.287 . S
C750 C751 1.524 1_554 S
C750 H769 0.913 . S
C751 H727 0.950 . S
C751 C750 1.524 1_556 S
C751 C752 1.415 . S
C752 H728 0.950 . S
C752 C747 1.363 1_556 S
C752 C751 1.415 . S
C753 H729 0.951 . S
C753 C754 1.366 1_554 S
C753 C755 1.388 . S
C754 C753 1.366 1_556 S
C754 C758 1.385 . S
C755 H730 0.951 . S
C755 C753 1.388 . S
C755 C756 1.366 1_554 S
C756 C755 1.366 1_556 S
C756 C757 1.414 . S
C756 C759 1.499 . S
C757 H731 0.950 . S
C757 C756 1.414 . S
C757 C758 1.374 . S
C758 H732 0.950 . S
C758 C754 1.385 . S
C758 C757 1.374 . S
C759 C756 1.499 . S
C759 C760 1.373 . S
C759 C761 1.389 1_556 S
C760 H733 0.950 . S
C760 C746 1.377 1_566 S
C760 C759 1.373 . S
C761 C745 1.377 1_565 S
C761 C759 1.389 1_554 S
C761 C762 1.524 . S
C762 C761 1.524 . S
C762 C763 1.397 1_554 S
C762 C767 1.363 . S
C763 H734 0.950 . S
C763 C762 1.397 1_556 S
C763 C764 1.334 . S
C764 H735 0.950 . S
C764 C763 1.334 . S
C764 C765 1.287 . S
C765 C764 1.287 . S
C765 C766 1.524 1_556 S
C765 H768 0.999 . S
C766 H736 0.950 . S
C766 C765 1.524 1_554 S
C766 C767 1.415 . S
C767 H737 0.950 . S
C767 C762 1.363 . S
C767 C766 1.415 . S
H768 C765 0.999 . S
H769 C750 0.913 . S
H770 C788 0.951 . S
H771 C790 0.951 . S
H772 C792 0.950 . S
H773 C793 0.950 . S
H774 C795 0.950 . S
H775 C798 0.950 . S
H776 C799 0.950 . S
H777 C801 0.950 . S
H778 C802 0.950 1_554 S
H779 C803 0.951 . S
H780 C805 0.951 . S
H781 C807 0.950 . S
H782 C808 0.950 . S
H783 C810 0.949 . S
H784 C813 0.950 . S
H785 C814 0.950 . S
H786 C816 0.950 . S
H787 C817 0.950 . S
C788 H770 0.951 . S
C788 C789 1.366 . S
C788 C790 1.388 . S
C789 C788 1.366 . S
C789 C793 1.385 . S
C790 H771 0.951 . S
C790 C788 1.388 . S
C790 C791 1.366 . S
C791 C790 1.366 . S
C791 C792 1.414 . S
C791 C794 1.499 . S
C792 H772 0.950 . S
C792 C791 1.414 . S
C792 C793 1.374 . S
C793 H773 0.950 . S
C793 C789 1.385 . S
C793 C792 1.374 . S
C794 C791 1.499 . S
C794 C795 1.373 . S
C794 C796 1.389 . S
C795 H774 0.950 . S
C795 C794 1.373 . S
C795 C811 1.377 1_655 S
C796 C794 1.389 . S
C796 C797 1.524 1_554 S
C796 C810 1.377 1_655 S
C797 C796 1.524 1_556 S
C797 C798 1.397 . S
C797 C802 1.363 . S
C798 H775 0.950 . S
C798 C797 1.397 . S
C798 C799 1.334 . S
C799 H776 0.950 . S
C799 C798 1.334 . S
C799 C800 1.287 . S
C800 C799 1.287 . S
C800 C801 1.524 . S
C800 H819 0.913 . S
C801 H777 0.950 . S
C801 C800 1.524 . S
C801 C802 1.415 . S
C802 H778 0.950 1_556 S
C802 C797 1.363 . S
C802 C801 1.415 . S
C803 H779 0.951 . S
C803 C804 1.366 . S
C803 C805 1.388 . S
C804 C803 1.366 . S
C804 C808 1.385 . S
C805 H780 0.951 . S
C805 C803 1.388 . S
C805 C806 1.366 . S
C806 C805 1.366 . S
C806 C807 1.414 . S
C806 C809 1.499 . S
C807 H781 0.950 . S
C807 C806 1.414 . S
C807 C808 1.374 . S
C808 H782 0.950 . S
C808 C804 1.385 . S
C808 C807 1.374 . S
C809 C806 1.499 . S
C809 C810 1.373 . S
C809 C811 1.389 . S
C810 H783 0.949 . S
C810 C796 1.377 1_455 S
C810 C809 1.373 . S
C811 C795 1.377 1_455 S
C811 C809 1.389 . S
C811 C812 1.524 . S
C812 C811 1.524 . S
C812 C813 1.397 . S
C812 C817 1.363 . S
C813 H784 0.950 . S
C813 C812 1.397 . S
C813 C814 1.334 . S
C814 H785 0.950 . S
C814 C813 1.334 . S
C814 C815 1.287 . S
C815 C814 1.287 . S
C815 C816 1.524 . S
C815 H818 0.999 . S
C816 H786 0.950 . S
C816 C815 1.524 . S
C816 C817 1.415 . S
C817 H787 0.950 . S
C817 C812 1.363 . S
C817 C816 1.415 . S
H818 C815 0.999 . S
H819 C800 0.913 . S
H820 C838 0.951 . S
H821 C840 0.951 . S
H822 C842 0.950 1_554 S
H823 C843 0.965 . S
H824 C845 0.950 1_554 S
H825 C848 0.950 . S
H826 C849 0.950 . S
H827 C851 0.950 . S
H828 C852 0.950 . S
H829 C853 0.951 . S
H830 C855 0.951 . S
H831 C857 0.950 . S
H832 C858 0.950 . S
H833 C860 0.950 . S
H834 C863 0.950 . S
H835 C864 0.950 . S
H836 C866 0.950 . S
H837 C867 0.950 . S
C838 H820 0.951 . S
C838 C839 1.366 . S
C838 C840 1.388 . S
C839 C838 1.366 . S
C839 C843 1.373 1_556 S
C840 H821 0.951 . S
C840 C838 1.388 . S
C840 C841 1.366 . S
C841 C840 1.366 . S
C841 C842 1.414 . S
C841 C844 1.499 . S
C842 H822 0.950 1_556 S
C842 C841 1.414 . S
C842 C843 1.370 1_556 S
C843 H823 0.965 . S
C843 C839 1.373 1_554 S
C843 C842 1.370 1_554 S
C844 C841 1.499 . S
C844 C845 1.373 . S
C844 C846 1.389 . S
C845 H824 0.950 1_556 S
C845 C844 1.373 . S
C845 C861 1.377 . S
C846 C844 1.389 . S
C846 C847 1.524 . S
C846 C860 1.377 . S
C847 C846 1.524 . S
C847 C848 1.397 . S
C847 C852 1.363 . S
C848 H825 0.950 . S
C848 C847 1.397 . S
C848 C849 1.334 . S
C849 H826 0.950 . S
C849 C848 1.334 . S
C849 C850 1.287 . S
C850 C849 1.287 . S
C850 C851 1.524 . S
C850 H869 0.913 . S
C851 H827 0.950 . S
C851 C850 1.524 . S
C851 C852 1.415 . S
C852 H828 0.950 . S
C852 C847 1.363 . S
C852 C851 1.415 . S
C853 H829 0.951 . S
C853 C854 1.366 . S
C853 C855 1.388 . S
C854 C853 1.366 . S
C854 C858 1.385 . S
C855 H830 0.951 . S
C855 C853 1.388 . S
C855 C856 1.366 . S
C856 C855 1.366 . S
C856 C857 1.414 . S
C856 C859 1.499 . S
C857 H831 0.950 . S
C857 C856 1.414 . S
C857 C858 1.374 . S
C858 H832 0.950 . S
C858 C854 1.385 . S
C858 C857 1.374 . S
C859 C856 1.499 . S
C859 C860 1.373 . S
C859 C861 1.389 . S
C860 H833 0.950 . S
C860 C846 1.377 . S
C860 C859 1.373 . S
C861 C845 1.377 . S
C861 C859 1.389 . S
C861 C862 1.524 1_556 S
C862 C861 1.524 1_554 S
C862 C863 1.397 . S
C862 C867 1.363 . S
C863 H834 0.950 . S
C863 C862 1.397 . S
C863 C864 1.334 . S
C864 H835 0.950 . S
C864 C863 1.334 . S
C864 C865 1.287 . S
C865 C864 1.287 . S
C865 C866 1.524 . S
C865 H868 0.999 . S
C866 H836 0.950 . S
C866 C865 1.524 . S
C866 C867 1.415 . S
C867 H837 0.950 . S
C867 C862 1.363 . S
C867 C866 1.415 . S
H868 C865 0.999 . S
H869 C850 0.913 . S
H870 C888 0.951 . S
H871 C890 0.951 . S
H872 C892 0.950 . S
H873 C893 0.950 . S
H874 C895 0.950 . S
H875 C898 0.950 . S
H876 C899 0.950 . S
H877 C901 0.926 1_565 S
H878 C902 0.939 1_565 S
H879 C903 0.951 . S
H880 C905 0.951 . S
H881 C907 0.950 1_554 S
H882 C908 0.950 1_554 S
H883 C910 0.950 . S
H884 C913 0.950 . S
H885 C914 0.950 . S
H886 C916 0.950 1_545 S
H887 C917 0.954 1_545 S
C888 H870 0.951 . S
C888 C889 1.366 . S
C888 C890 1.388 . S
C889 C888 1.366 . S
C889 C893 1.385 1_554 S
C890 H871 0.951 . S
C890 C888 1.388 . S
C890 C891 1.366 . S
C891 C890 1.366 . S
C891 C892 1.414 1_554 S
C891 C894 1.499 . S
C892 H872 0.950 . S
C892 C891 1.414 1_556 S
C892 C893 1.374 . S
C893 H873 0.950 . S
C893 C889 1.385 1_556 S
C893 C892 1.374 . S
C894 C891 1.499 . S
C894 C895 1.373 1_554 S
C894 C896 1.389 . S
C895 H874 0.950 . S
C895 C894 1.373 1_556 S
C895 C911 1.377 1_545 S
C896 C894 1.389 . S
C896 C897 1.524 . S
C896 C910 1.377 1_545 S
C897 C896 1.524 . S
C897 C898 1.397 . S
C897 C902 1.385 . S
C898 H875 0.950 . S
C898 C897 1.397 . S
C898 C899 1.334 . S
C899 H876 0.950 . S
C899 C898 1.334 . S
C899 C900 1.287 . S
C900 C899 1.287 . S
C900 C901 1.524 . S
C900 H919 0.913 . S
C901 H877 0.926 1_545 S
C901 C900 1.524 . S
C901 C902 1.407 . S
C902 H878 0.939 1_545 S
C902 C897 1.385 . S
C902 C901 1.407 . S
C903 H879 0.951 . S
C903 C904 1.366 . S
C903 C905 1.388 . S
C904 C903 1.366 . S
C904 C908 1.385 . S
C905 H880 0.951 . S
C905 C903 1.388 . S
C905 C906 1.366 . S
C906 C905 1.366 . S
C906 C907 1.414 . S
C906 C909 1.499 . S
C907 H881 0.950 1_556 S
C907 C906 1.414 . S
C907 C908 1.374 . S
C908 H882 0.950 1_556 S
C908 C904 1.385 . S
C908 C907 1.374 . S
C909 C906 1.499 . S
C909 C910 1.373 1_556 S
C909 C911 1.389 . S
C910 H883 0.950 . S
C910 C896 1.377 1_565 S
C910 C909 1.373 1_554 S
C911 C895 1.377 1_565 S
C911 C909 1.389 . S
C911 C912 1.524 . S
C912 C911 1.524 . S
C912 C913 1.397 . S
C912 C917 1.357 . S
C913 H884 0.950 . S
C913 C912 1.397 . S
C913 C914 1.334 . S
C914 H885 0.950 . S
C914 C913 1.334 . S
C914 C915 1.287 . S
C915 C914 1.287 . S
C915 C916 1.524 . S
C915 H918 0.999 . S
C916 H886 0.950 1_565 S
C916 C915 1.524 . S
C916 C917 1.417 . S
C917 H887 0.954 1_565 S
C917 C912 1.357 . S
C917 C916 1.417 . S
H918 C915 0.999 . S
H919 C900 0.913 . S
H920 C938 0.951 . S
H921 C940 0.951 . S
H922 C942 0.950 . S
H923 C943 0.950 . S
H924 C945 0.947 1_554 S
H925 C948 0.950 . S
H926 C949 0.950 1_554 S
H927 C951 0.950 . S
H928 C952 0.941 1_655 S
H929 C953 0.951 . S
H930 C955 0.951 . S
H931 C957 0.950 . S
H932 C958 0.950 . S
H933 C960 0.950 . S
H934 C963 0.950 . S
H935 C964 0.950 . S
H936 C966 0.950 . S
H937 C967 0.950 . S
C938 H920 0.951 . S
C938 C939 1.366 . S
C938 C940 1.388 . S
C939 C938 1.366 . S
C939 C943 1.385 1_556 S
C940 H921 0.951 . S
C940 C938 1.388 . S
C940 C941 1.366 . S
C941 C940 1.366 . S
C941 C942 1.414 1_556 S
C941 C944 1.499 . S
C942 H922 0.950 . S
C942 C941 1.414 1_554 S
C942 C943 1.374 . S
C943 H923 0.950 . S
C943 C939 1.385 1_554 S
C943 C942 1.374 . S
C944 C941 1.499 . S
C944 C945 1.376 . S
C944 C946 1.389 . S
C945 H924 0.947 1_556 S
C945 C944 1.376 . S
C945 C961 1.376 1_455 S
C946 C944 1.389 . S
C946 C947 1.524 . S
C946 C960 1.377 1_455 S
C947 C946 1.524 . S
C947 C948 1.397 1_556 S
C947 C952 1.363 . S
C948 H925 0.950 . S
C948 C947 1.397 1_554 S
C948 C949 1.334 1_554 S
C949 H926 0.950 1_556 S
C949 C948 1.334 1_556 S
C949 C950 1.287 . S
C950 C949 1.287 . S
C950 C951 1.524 . S
C950 H969 0.913 . S
C951 H927 0.950 . S
C951 C950 1.524 . S
C951 C952 1.415 . S
C952 H928 0.941 1_455 S
C952 C947 1.363 . S
C952 C951 1.415 . S
C953 H929 0.951 . S
C953 C954 1.366 1_554 S
C953 C955 1.388 . S
C954 C953 1.366 1_556 S
C954 C958 1.385 . S
C955 H930 0.951 . S
C955 C953 1.388 . S
C955 C956 1.366 1_554 S
C956 C955 1.366 1_556 S
C956 C957 1.414 . S
C956 C959 1.499 . S
C957 H931 0.950 . S
C957 C956 1.414 . S
C957 C958 1.374 . S
C958 H932 0.950 . S
C958 C954 1.385 . S
C958 C957 1.374 . S
C959 C956 1.499 . S
C959 C960 1.373 . S
C959 C961 1.394 . S
C960 H933 0.950 . S
C960 C946 1.377 1_655 S
C960 C959 1.373 . S
C961 C945 1.376 1_655 S
C961 C959 1.394 . S
C961 C962 1.521 1_556 S
C962 C961 1.521 1_554 S
C962 C963 1.397 1_554 S
C962 C967 1.363 . S
C963 H934 0.950 . S
C963 C962 1.397 1_556 S
C963 C964 1.334 . S
C964 H935 0.950 . S
C964 C963 1.334 . S
C964 C965 1.287 1_556 S
C965 C964 1.287 1_554 S
C965 C966 1.524 . S
C965 H968 0.999 . S
C966 H936 0.950 . S
C966 C965 1.524 . S
C966 C967 1.415 . S
C967 H937 0.950 . S
C967 C962 1.363 . S
C967 C966 1.415 . S
H968 C965 0.999 . S
H969 C950 0.913 . S
H970 C988 0.951 . S
H971 C990 0.951 . S
H972 C992 0.950 . S
H973 C993 0.950 . S
H974 C995 0.950 . S
H975 C998 0.950 . S
H976 C999 0.950 . S
H977 C1001 0.950 . S
H978 C1002 0.950 . S
H979 C1003 0.951 . S
H980 C1005 0.951 . S
H981 C1007 0.950 . S
H982 C1008 0.949 1_556 S
H983 C1010 0.950 . S
H984 C1013 0.950 . S
H985 C1014 0.950 . S
H986 C1016 0.950 . S
H987 C1017 0.950 . S
C988 H970 0.951 . S
C988 C989 1.366 . S
C988 C990 1.388 . S
C989 C988 1.366 . S
C989 C993 1.385 . S
C990 H971 0.951 . S
C990 C988 1.388 . S
C990 C991 1.366 . S
C991 C990 1.366 . S
C991 C992 1.414 . S
C991 C994 1.499 . S
C992 H972 0.950 . S
C992 C991 1.414 . S
C992 C993 1.374 . S
C993 H973 0.950 . S
C993 C989 1.385 . S
C993 C992 1.374 . S
C994 C991 1.499 . S
C994 C995 1.373 1_554 S
C994 C996 1.389 . S
C995 H974 0.950 . S
C995 C994 1.373 1_556 S
C995 C1011 1.377 . S
C996 C994 1.389 . S
C996 C997 1.524 . S
C996 C1010 1.377 . S
C997 C996 1.524 . S
C997 C998 1.397 . S
C997 C1002 1.363 . S
C998 H975 0.950 . S
C998 C997 1.397 . S
C998 C999 1.334 . S
C999 H976 0.950 . S
C999 C998 1.334 . S
C999 C1000 1.287 . S
C1000 C999 1.287 . S
C1000 C1001 1.524 . S
C1000 H1019 0.913 . S
C1001 H977 0.950 . S
C1001 C1000 1.524 . S
C1001 C1002 1.415 . S
C1002 H978 0.950 . S
C1002 C997 1.363 . S
C1002 C1001 1.415 . S
C1003 H979 0.951 . S
C1003 C1004 1.366 . S
C1003 C1005 1.388 . S
C1004 C1003 1.366 . S
C1004 C1008 1.385 . S
C1005 H980 0.951 . S
C1005 C1003 1.388 . S
C1005 C1006 1.366 . S
C1006 C1005 1.366 . S
C1006 C1007 1.414 . S
C1006 C1009 1.499 . S
C1007 H981 0.950 . S
C1007 C1006 1.414 . S
C1007 C1008 1.374 . S
C1008 H982 0.949 1_554 S
C1008 C1004 1.385 . S
C1008 C1007 1.374 . S
C1009 C1006 1.499 . S
C1009 C1010 1.373 . S
C1009 C1011 1.389 1_554 S
C1010 H983 0.950 . S
C1010 C996 1.377 . S
C1010 C1009 1.373 . S
C1011 C995 1.377 . S
C1011 C1009 1.389 1_556 S
C1011 C1012 1.524 . S
C1012 C1011 1.524 . S
C1012 C1013 1.397 . S
C1012 C1017 1.363 . S
C1013 H984 0.950 . S
C1013 C1012 1.397 . S
C1013 C1014 1.334 . S
C1014 H985 0.950 . S
C1014 C1013 1.334 . S
C1014 C1015 1.287 . S
C1015 C1014 1.287 . S
C1015 C1016 1.524 . S
C1015 H1018 0.999 . S
C1016 H986 0.950 . S
C1016 C1015 1.524 . S
C1016 C1017 1.415 . S
C1017 H987 0.950 . S
C1017 C1012 1.363 . S
C1017 C1016 1.415 . S
H1018 C1015 0.999 . S
H1019 C1000 0.913 . S
H1020 C1038 0.951 . S
H1021 C1040 0.951 . S
H1022 C1042 0.950 . S
H1023 C1043 0.950 . S
H1024 C1045 0.950 . S
H1025 C1048 0.950 . S
H1026 C1049 0.950 . S
H1027 C1051 0.950 . S
H1028 C1052 0.950 . S
H1029 C1053 0.951 . S
H1030 C1055 0.951 . S
H1031 C1057 0.950 . S
H1032 C1058 0.950 . S
H1033 C1060 0.950 . S
H1034 C1063 0.950 . S
H1035 C1064 0.950 . S
H1036 C1066 0.950 . S
H1037 C1067 0.950 . S
C1038 H1020 0.951 . S
C1038 C1039 1.366 . S
C1038 C1040 1.388 . S
C1039 C1038 1.366 . S
C1039 C1043 1.385 . S
C1040 H1021 0.951 . S
C1040 C1038 1.388 . S
C1040 C1041 1.366 . S
C1041 C1040 1.366 . S
C1041 C1042 1.414 . S
C1041 C1044 1.499 . S
C1042 H1022 0.950 . S
C1042 C1041 1.414 . S
C1042 C1043 1.374 . S
C1043 H1023 0.950 . S
C1043 C1039 1.385 . S
C1043 C1042 1.374 . S
C1044 C1041 1.499 . S
C1044 C1045 1.373 . S
C1044 C1046 1.389 . S
C1045 H1024 0.950 . S
C1045 C1044 1.373 . S
C1045 C1061 1.377 . S
C1046 C1044 1.389 . S
C1046 C1047 1.524 . S
C1046 C1060 1.377 . S
C1047 C1046 1.524 . S
C1047 C1048 1.397 . S
C1047 C1052 1.363 . S
C1048 H1025 0.950 . S
C1048 C1047 1.397 . S
C1048 C1049 1.334 . S
C1049 H1026 0.950 . S
C1049 C1048 1.334 . S
C1049 C1050 1.287 . S
C1050 C1049 1.287 . S
C1050 C1051 1.524 . S
C1050 H1069 0.913 . S
C1051 H1027 0.950 . S
C1051 C1050 1.524 . S
C1051 C1052 1.415 . S
C1052 H1028 0.950 . S
C1052 C1047 1.363 . S
C1052 C1051 1.415 . S
C1053 H1029 0.951 . S
C1053 C1054 1.366 . S
C1053 C1055 1.388 . S
C1054 C1053 1.366 . S
C1054 C1058 1.385 . S
C1055 H1030 0.951 . S
C1055 C1053 1.388 . S
C1055 C1056 1.366 . S
C1056 C1055 1.366 . S
C1056 C1057 1.414 . S
C1056 C1059 1.499 . S
C1057 H1031 0.950 . S
C1057 C1056 1.414 . S
C1057 C1058 1.374 . S
C1058 H1032 0.950 . S
C1058 C1054 1.385 . S
C1058 C1057 1.374 . S
C1059 C1056 1.499 . S
C1059 C1060 1.373 . S
C1059 C1061 1.389 . S
C1060 H1033 0.950 . S
C1060 C1046 1.377 . S
C1060 C1059 1.373 . S
C1061 C1045 1.377 . S
C1061 C1059 1.389 . S
C1061 C1062 1.524 . S
C1062 C1061 1.524 . S
C1062 C1063 1.397 . S
C1062 C1067 1.363 . S
C1063 H1034 0.950 . S
C1063 C1062 1.397 . S
C1063 C1064 1.334 . S
C1064 H1035 0.950 . S
C1064 C1063 1.334 . S
C1064 C1065 1.287 . S
C1065 C1064 1.287 . S
C1065 C1066 1.524 . S
C1065 H1068 0.999 . S
C1066 H1036 0.950 . S
C1066 C1065 1.524 . S
C1066 C1067 1.415 . S
C1067 H1037 0.950 . S
C1067 C1062 1.363 . S
C1067 C1066 1.415 . S
H1068 C1065 0.999 . S
H1069 C1050 0.913 . S
H1070 C1088 0.951 . S
H1071 C1090 0.951 . S
H1072 C1092 0.950 . S
H1073 C1093 0.950 . S
H1074 C1095 0.950 . S
H1075 C1098 0.950 . S
H1076 C1099 0.950 . S
H1077 C1101 0.950 . S
H1078 C1102 0.950 . S
H1079 C1103 0.951 . S
H1080 C1105 0.951 . S
H1081 C1107 0.950 . S
H1082 C1108 0.950 . S
H1083 C1110 0.950 . S
H1084 C1113 0.950 . S
H1085 C1114 0.950 . S
H1086 C1116 0.950 . S
H1087 C1117 0.950 . S
C1088 H1070 0.951 . S
C1088 C1089 1.366 . S
C1088 C1090 1.388 . S
C1089 C1088 1.366 . S
C1089 C1093 1.385 . S
C1090 H1071 0.951 . S
C1090 C1088 1.388 . S
C1090 C1091 1.366 . S
C1091 C1090 1.366 . S
C1091 C1092 1.414 . S
C1091 C1094 1.499 . S
C1092 H1072 0.950 . S
C1092 C1091 1.414 . S
C1092 C1093 1.374 . S
C1093 H1073 0.950 . S
C1093 C1089 1.385 . S
C1093 C1092 1.374 . S
C1094 C1091 1.499 . S
C1094 C1095 1.373 . S
C1094 C1096 1.389 . S
C1095 H1074 0.950 . S
C1095 C1094 1.373 . S
C1095 C1111 1.377 . S
C1096 C1094 1.389 . S
C1096 C1097 1.524 . S
C1096 C1110 1.377 . S
C1097 C1096 1.524 . S
C1097 C1098 1.397 . S
C1097 C1102 1.363 . S
C1098 H1075 0.950 . S
C1098 C1097 1.397 . S
C1098 C1099 1.334 . S
C1099 H1076 0.950 . S
C1099 C1098 1.334 . S
C1099 C1100 1.287 . S
C1100 C1099 1.287 . S
C1100 C1101 1.524 . S
C1100 H1119 0.913 . S
C1101 H1077 0.950 . S
C1101 C1100 1.524 . S
C1101 C1102 1.415 . S
C1102 H1078 0.950 . S
C1102 C1097 1.363 . S
C1102 C1101 1.415 . S
C1103 H1079 0.951 . S
C1103 C1104 1.366 . S
C1103 C1105 1.388 . S
C1104 C1103 1.366 . S
C1104 C1108 1.385 . S
C1105 H1080 0.951 . S
C1105 C1103 1.388 . S
C1105 C1106 1.366 . S
C1106 C1105 1.366 . S
C1106 C1107 1.414 . S
C1106 C1109 1.499 . S
C1107 H1081 0.950 . S
C1107 C1106 1.414 . S
C1107 C1108 1.374 . S
C1108 H1082 0.950 . S
C1108 C1104 1.385 . S
C1108 C1107 1.374 . S
C1109 C1106 1.499 . S
C1109 C1110 1.373 . S
C1109 C1111 1.389 . S
C1110 H1083 0.950 . S
C1110 C1096 1.377 . S
C1110 C1109 1.373 . S
C1111 C1095 1.377 . S
C1111 C1109 1.389 . S
C1111 C1112 1.524 . S
C1112 C1111 1.524 . S
C1112 C1113 1.397 . S
C1112 C1117 1.363 . S
C1113 H1084 0.950 . S
C1113 C1112 1.397 . S
C1113 C1114 1.334 . S
C1114 H1085 0.950 . S
C1114 C1113 1.334 . S
C1114 C1115 1.287 . S
C1115 C1114 1.287 . S
C1115 C1116 1.524 . S
C1115 H1118 0.999 . S
C1116 H1086 0.950 . S
C1116 C1115 1.524 . S
C1116 C1117 1.415 . S
C1117 H1087 0.950 . S
C1117 C1112 1.363 . S
C1117 C1116 1.415 . S
H1118 C1115 0.999 . S
H1119 C1100 0.913 . S
H1120 C1138 0.951 . S
H1121 C1140 0.951 . S
H1122 C1142 0.950 . S
H1123 C1143 0.950 . S
H1124 C1145 0.950 . S
H1125 C1148 0.950 . S
H1126 C1149 0.950 . S
H1127 C1151 0.950 . S
H1128 C1152 0.950 . S
H1129 C1153 0.951 . S
H1130 C1155 0.951 . S
H1131 C1157 0.950 . S
H1132 C1158 0.950 . S
H1133 C1160 0.950 . S
H1134 C1163 0.950 . S
H1135 C1164 0.950 . S
H1136 C1166 0.950 . S
H1137 C1167 0.950 . S
C1138 H1120 0.951 . S
C1138 C1139 1.366 . S
C1138 C1140 1.388 . S
C1139 C1138 1.366 . S
C1139 C1143 1.385 . S
C1140 H1121 0.951 . S
C1140 C1138 1.388 . S
C1140 C1141 1.366 . S
C1141 C1140 1.366 . S
C1141 C1142 1.414 . S
C1141 C1144 1.499 . S
C1142 H1122 0.950 . S
C1142 C1141 1.414 . S
C1142 C1143 1.374 . S
C1143 H1123 0.950 . S
C1143 C1139 1.385 . S
C1143 C1142 1.374 . S
C1144 C1141 1.499 . S
C1144 C1145 1.373 . S
C1144 C1146 1.389 . S
C1145 H1124 0.950 . S
C1145 C1144 1.373 . S
C1145 C1161 1.377 . S
C1146 C1144 1.389 . S
C1146 C1147 1.524 . S
C1146 C1160 1.377 . S
C1147 C1146 1.524 . S
C1147 C1148 1.397 . S
C1147 C1152 1.363 . S
C1148 H1125 0.950 . S
C1148 C1147 1.397 . S
C1148 C1149 1.334 . S
C1149 H1126 0.950 . S
C1149 C1148 1.334 . S
C1149 C1150 1.287 . S
C1150 C1149 1.287 . S
C1150 C1151 1.524 . S
C1150 H1169 0.913 . S
C1151 H1127 0.950 . S
C1151 C1150 1.524 . S
C1151 C1152 1.415 . S
C1152 H1128 0.950 . S
C1152 C1147 1.363 . S
C1152 C1151 1.415 . S
C1153 H1129 0.951 . S
C1153 C1154 1.366 . S
C1153 C1155 1.388 . S
C1154 C1153 1.366 . S
C1154 C1158 1.385 . S
C1155 H1130 0.951 . S
C1155 C1153 1.388 . S
C1155 C1156 1.366 . S
C1156 C1155 1.366 . S
C1156 C1157 1.414 . S
C1156 C1159 1.499 . S
C1157 H1131 0.950 . S
C1157 C1156 1.414 . S
C1157 C1158 1.374 . S
C1158 H1132 0.950 . S
C1158 C1154 1.385 . S
C1158 C1157 1.374 . S
C1159 C1156 1.499 . S
C1159 C1160 1.373 . S
C1159 C1161 1.389 . S
C1160 H1133 0.950 . S
C1160 C1146 1.377 . S
C1160 C1159 1.373 . S
C1161 C1145 1.377 . S
C1161 C1159 1.389 . S
C1161 C1162 1.524 . S
C1162 C1161 1.524 . S
C1162 C1163 1.397 . S
C1162 C1167 1.363 . S
C1163 H1134 0.950 . S
C1163 C1162 1.397 . S
C1163 C1164 1.334 . S
C1164 H1135 0.950 . S
C1164 C1163 1.334 . S
C1164 C1165 1.287 . S
C1165 C1164 1.287 . S
C1165 C1166 1.524 . S
C1165 H1168 0.999 . S
C1166 H1136 0.950 . S
C1166 C1165 1.524 . S
C1166 C1167 1.415 . S
C1167 H1137 0.950 . S
C1167 C1162 1.363 . S
C1167 C1166 1.415 . S
H1168 C1165 0.999 . S
H1169 C1150 0.913 . S
H1170 C1188 0.951 . S
H1171 C1190 0.951 . S
H1172 C1192 0.950 . S
H1173 C1193 0.950 . S
H1174 C1195 0.950 . S
H1175 C1198 0.950 . S
H1176 C1199 0.950 . S
H1177 C1201 0.950 . S
H1178 C1202 0.950 . S
H1179 C1203 0.951 . S
H1180 C1205 0.951 . S
H1181 C1207 0.950 . S
H1182 C1208 0.950 . S
H1183 C1210 0.950 . S
H1184 C1213 0.950 . S
H1185 C1214 0.950 . S
H1186 C1216 0.950 . S
H1187 C1217 0.950 . S
C1188 H1170 0.951 . S
C1188 C1189 1.366 . S
C1188 C1190 1.388 . S
C1189 C1188 1.366 . S
C1189 C1193 1.385 . S
C1190 H1171 0.951 . S
C1190 C1188 1.388 . S
C1190 C1191 1.366 . S
C1191 C1190 1.366 . S
C1191 C1192 1.414 . S
C1191 C1194 1.499 . S
C1192 H1172 0.950 . S
C1192 C1191 1.414 . S
C1192 C1193 1.374 . S
C1193 H1173 0.950 . S
C1193 C1189 1.385 . S
C1193 C1192 1.374 . S
C1194 C1191 1.499 . S
C1194 C1195 1.373 . S
C1194 C1196 1.389 . S
C1195 H1174 0.950 . S
C1195 C1194 1.373 . S
C1195 C1211 1.377 . S
C1196 C1194 1.389 . S
C1196 C1197 1.524 . S
C1196 C1210 1.377 . S
C1197 C1196 1.524 . S
C1197 C1198 1.397 . S
C1197 C1202 1.363 . S
C1198 H1175 0.950 . S
C1198 C1197 1.397 . S
C1198 C1199 1.334 . S
C1199 H1176 0.950 . S
C1199 C1198 1.334 . S
C1199 C1200 1.287 . S
C1200 C1199 1.287 . S
C1200 C1201 1.524 . S
C1200 H1219 0.913 . S
C1201 H1177 0.950 . S
C1201 C1200 1.524 . S
C1201 C1202 1.415 . S
C1202 H1178 0.950 . S
C1202 C1197 1.363 . S
C1202 C1201 1.415 . S
C1203 H1179 0.951 . S
C1203 C1204 1.366 . S
C1203 C1205 1.388 . S
C1204 C1203 1.366 . S
C1204 C1208 1.385 . S
C1205 H1180 0.951 . S
C1205 C1203 1.388 . S
C1205 C1206 1.366 . S
C1206 C1205 1.366 . S
C1206 C1207 1.414 . S
C1206 C1209 1.499 . S
C1207 H1181 0.950 . S
C1207 C1206 1.414 . S
C1207 C1208 1.374 . S
C1208 H1182 0.950 . S
C1208 C1204 1.385 . S
C1208 C1207 1.374 . S
C1209 C1206 1.499 . S
C1209 C1210 1.373 . S
C1209 C1211 1.389 . S
C1210 H1183 0.950 . S
C1210 C1196 1.377 . S
C1210 C1209 1.373 . S
C1211 C1195 1.377 . S
C1211 C1209 1.389 . S
C1211 C1212 1.524 . S
C1212 C1211 1.524 . S
C1212 C1213 1.397 . S
C1212 C1217 1.363 . S
C1213 H1184 0.950 . S
C1213 C1212 1.397 . S
C1213 C1214 1.334 . S
C1214 H1185 0.950 . S
C1214 C1213 1.334 . S
C1214 C1215 1.287 . S
C1215 C1214 1.287 . S
C1215 C1216 1.524 . S
C1215 H1218 0.999 . S
C1216 H1186 0.950 . S
C1216 C1215 1.524 . S
C1216 C1217 1.415 . S
C1217 H1187 0.950 . S
C1217 C1212 1.363 . S
C1217 C1216 1.415 . S
H1218 C1215 0.999 . S
H1219 C1200 0.913 . S
H1220 C1238 0.951 . S
H1221 C1240 0.951 . S
H1222 C1242 0.950 . S
H1223 C1243 0.950 . S
H1224 C1245 0.950 . S
H1225 C1248 0.950 . S
H1226 C1249 0.950 . S
H1227 C1251 0.950 . S
H1228 C1252 0.950 . S
H1229 C1253 0.951 . S
H1230 C1255 0.951 . S
H1231 C1257 0.950 . S
H1232 C1258 0.950 . S
H1233 C1260 0.950 . S
H1234 C1263 0.950 . S
H1235 C1264 0.950 . S
H1236 C1266 0.950 . S
H1237 C1267 0.950 . S
C1238 H1220 0.951 . S
C1238 C1239 1.366 . S
C1238 C1240 1.388 . S
C1239 C1238 1.366 . S
C1239 C1243 1.385 . S
C1240 H1221 0.951 . S
C1240 C1238 1.388 . S
C1240 C1241 1.366 . S
C1241 C1240 1.366 . S
C1241 C1242 1.414 . S
C1241 C1244 1.499 . S
C1242 H1222 0.950 . S
C1242 C1241 1.414 . S
C1242 C1243 1.374 . S
C1243 H1223 0.950 . S
C1243 C1239 1.385 . S
C1243 C1242 1.374 . S
C1244 C1241 1.499 . S
C1244 C1245 1.373 . S
C1244 C1246 1.389 . S
C1245 H1224 0.950 . S
C1245 C1244 1.373 . S
C1245 C1261 1.377 . S
C1246 C1244 1.389 . S
C1246 C1247 1.524 . S
C1246 C1260 1.377 . S
C1247 C1246 1.524 . S
C1247 C1248 1.397 . S
C1247 C1252 1.363 . S
C1248 H1225 0.950 . S
C1248 C1247 1.397 . S
C1248 C1249 1.334 . S
C1249 H1226 0.950 . S
C1249 C1248 1.334 . S
C1249 C1250 1.287 . S
C1250 C1249 1.287 . S
C1250 C1251 1.524 . S
C1250 H1269 0.913 . S
C1251 H1227 0.950 . S
C1251 C1250 1.524 . S
C1251 C1252 1.415 . S
C1252 H1228 0.950 . S
C1252 C1247 1.363 . S
C1252 C1251 1.415 . S
C1253 H1229 0.951 . S
C1253 C1254 1.366 . S
C1253 C1255 1.388 . S
C1254 C1253 1.366 . S
C1254 C1258 1.385 . S
C1255 H1230 0.951 . S
C1255 C1253 1.388 . S
C1255 C1256 1.366 . S
C1256 C1255 1.366 . S
C1256 C1257 1.414 . S
C1256 C1259 1.499 . S
C1257 H1231 0.950 . S
C1257 C1256 1.414 . S
C1257 C1258 1.374 . S
C1258 H1232 0.950 . S
C1258 C1254 1.385 . S
C1258 C1257 1.374 . S
C1259 C1256 1.499 . S
C1259 C1260 1.373 . S
C1259 C1261 1.389 . S
C1260 H1233 0.950 . S
C1260 C1246 1.377 . S
C1260 C1259 1.373 . S
C1261 C1245 1.377 . S
C1261 C1259 1.389 . S
C1261 C1262 1.524 . S
C1262 C1261 1.524 . S
C1262 C1263 1.397 . S
C1262 C1267 1.363 . S
C1263 H1234 0.950 . S
C1263 C1262 1.397 . S
C1263 C1264 1.334 . S
C1264 H1235 0.950 . S
C1264 C1263 1.334 . S
C1264 C1265 1.287 . S
C1265 C1264 1.287 . S
C1265 C1266 1.524 . S
C1265 H1268 0.999 . S
C1266 H1236 0.950 . S
C1266 C1265 1.524 . S
C1266 C1267 1.415 . S
C1267 H1237 0.950 . S
C1267 C1262 1.363 . S
C1267 C1266 1.415 . S
H1268 C1265 0.999 . S
H1269 C1250 0.913 . S
H1270 C1288 0.951 . S
H1271 C1290 0.951 . S
H1272 C1292 0.950 . S
H1273 C1293 0.950 . S
H1274 C1295 0.950 . S
H1275 C1298 0.950 . S
H1276 C1299 0.950 . S
H1277 C1301 0.950 . S
H1278 C1302 0.950 . S
H1279 C1303 0.951 . S
H1280 C1305 0.951 . S
H1281 C1307 0.950 . S
H1282 C1308 0.950 . S
H1283 C1310 0.950 . S
H1284 C1313 0.950 . S
H1285 C1314 0.950 . S
H1286 C1316 0.950 . S
H1287 C1317 0.950 . S
C1288 H1270 0.951 . S
C1288 C1289 1.366 . S
C1288 C1290 1.388 . S
C1289 C1288 1.366 . S
C1289 C1293 1.385 . S
C1290 H1271 0.951 . S
C1290 C1288 1.388 . S
C1290 C1291 1.366 . S
C1291 C1290 1.366 . S
C1291 C1292 1.414 . S
C1291 C1294 1.499 . S
C1292 H1272 0.950 . S
C1292 C1291 1.414 . S
C1292 C1293 1.374 . S
C1293 H1273 0.950 . S
C1293 C1289 1.385 . S
C1293 C1292 1.374 . S
C1294 C1291 1.499 . S
C1294 C1295 1.373 . S
C1294 C1296 1.389 . S
C1295 H1274 0.950 . S
C1295 C1294 1.373 . S
C1295 C1311 1.377 . S
C1296 C1294 1.389 . S
C1296 C1297 1.524 . S
C1296 C1310 1.377 . S
C1297 C1296 1.524 . S
C1297 C1298 1.397 . S
C1297 C1302 1.363 . S
C1298 H1275 0.950 . S
C1298 C1297 1.397 . S
C1298 C1299 1.334 . S
C1299 H1276 0.950 . S
C1299 C1298 1.334 . S
C1299 C1300 1.287 . S
C1300 C1299 1.287 . S
C1300 C1301 1.524 . S
C1300 H1319 0.913 . S
C1301 H1277 0.950 . S
C1301 C1300 1.524 . S
C1301 C1302 1.415 . S
C1302 H1278 0.950 . S
C1302 C1297 1.363 . S
C1302 C1301 1.415 . S
C1303 H1279 0.951 . S
C1303 C1304 1.366 . S
C1303 C1305 1.388 . S
C1304 C1303 1.366 . S
C1304 C1308 1.385 . S
C1305 H1280 0.951 . S
C1305 C1303 1.388 . S
C1305 C1306 1.366 . S
C1306 C1305 1.366 . S
C1306 C1307 1.414 . S
C1306 C1309 1.499 . S
C1307 H1281 0.950 . S
C1307 C1306 1.414 . S
C1307 C1308 1.374 . S
C1308 H1282 0.950 . S
C1308 C1304 1.385 . S
C1308 C1307 1.374 . S
C1309 C1306 1.499 . S
C1309 C1310 1.373 . S
C1309 C1311 1.389 . S
C1310 H1283 0.950 . S
C1310 C1296 1.377 . S
C1310 C1309 1.373 . S
C1311 C1295 1.377 . S
C1311 C1309 1.389 . S
C1311 C1312 1.524 . S
C1312 C1311 1.524 . S
C1312 C1313 1.397 . S
C1312 C1317 1.363 . S
C1313 H1284 0.950 . S
C1313 C1312 1.397 . S
C1313 C1314 1.334 . S
C1314 H1285 0.950 . S
C1314 C1313 1.334 . S
C1314 C1315 1.287 . S
C1315 C1314 1.287 . S
C1315 C1316 1.524 . S
C1315 H1318 0.999 . S
C1316 H1286 0.950 . S
C1316 C1315 1.524 . S
C1316 C1317 1.415 . S
C1317 H1287 0.950 . S
C1317 C1312 1.363 . S
C1317 C1316 1.415 . S
H1318 C1315 0.999 . S
H1319 C1300 0.913 . S
H1320 C1338 0.951 . S
H1321 C1340 0.951 . S
H1322 C1342 0.950 . S
H1323 C1343 0.950 . S
H1324 C1345 0.950 . S
H1325 C1348 0.950 . S
H1326 C1349 0.950 . S
H1327 C1351 0.950 . S
H1328 C1352 0.950 . S
H1329 C1353 0.951 . S
H1330 C1355 0.951 . S
H1331 C1357 0.950 . S
H1332 C1358 0.950 . S
H1333 C1360 0.950 . S
H1334 C1363 0.950 . S
H1335 C1364 0.950 . S
H1336 C1366 0.950 . S
H1337 C1367 0.950 . S
C1338 H1320 0.951 . S
C1338 C1339 1.366 . S
C1338 C1340 1.388 . S
C1339 C1338 1.366 . S
C1339 C1343 1.385 . S
C1340 H1321 0.951 . S
C1340 C1338 1.388 . S
C1340 C1341 1.366 . S
C1341 C1340 1.366 . S
C1341 C1342 1.414 . S
C1341 C1344 1.499 . S
C1342 H1322 0.950 . S
C1342 C1341 1.414 . S
C1342 C1343 1.374 . S
C1343 H1323 0.950 . S
C1343 C1339 1.385 . S
C1343 C1342 1.374 . S
C1344 C1341 1.499 . S
C1344 C1345 1.373 . S
C1344 C1346 1.389 . S
C1345 H1324 0.950 . S
C1345 C1344 1.373 . S
C1345 C1361 1.377 . S
C1346 C1344 1.389 . S
C1346 C1347 1.524 . S
C1346 C1360 1.377 . S
C1347 C1346 1.524 . S
C1347 C1348 1.397 . S
C1347 C1352 1.363 . S
C1348 H1325 0.950 . S
C1348 C1347 1.397 . S
C1348 C1349 1.334 . S
C1349 H1326 0.950 . S
C1349 C1348 1.334 . S
C1349 C1350 1.287 . S
C1350 C1349 1.287 . S
C1350 C1351 1.524 . S
C1350 H1369 0.913 . S
C1351 H1327 0.950 . S
C1351 C1350 1.524 . S
C1351 C1352 1.415 . S
C1352 H1328 0.950 . S
C1352 C1347 1.363 . S
C1352 C1351 1.415 . S
C1353 H1329 0.951 . S
C1353 C1354 1.366 . S
C1353 C1355 1.388 . S
C1354 C1353 1.366 . S
C1354 C1358 1.385 . S
C1355 H1330 0.951 . S
C1355 C1353 1.388 . S
C1355 C1356 1.366 . S
C1356 C1355 1.366 . S
C1356 C1357 1.414 . S
C1356 C1359 1.499 . S
C1357 H1331 0.950 . S
C1357 C1356 1.414 . S
C1357 C1358 1.374 . S
C1358 H1332 0.950 . S
C1358 C1354 1.385 . S
C1358 C1357 1.374 . S
C1359 C1356 1.499 . S
C1359 C1360 1.373 . S
C1359 C1361 1.389 . S
C1360 H1333 0.950 . S
C1360 C1346 1.377 . S
C1360 C1359 1.373 . S
C1361 C1345 1.377 . S
C1361 C1359 1.389 . S
C1361 C1362 1.524 . S
C1362 C1361 1.524 . S
C1362 C1363 1.397 . S
C1362 C1367 1.363 . S
C1363 H1334 0.950 . S
C1363 C1362 1.397 . S
C1363 C1364 1.334 . S
C1364 H1335 0.950 . S
C1364 C1363 1.334 . S
C1364 C1365 1.287 . S
C1365 C1364 1.287 . S
C1365 C1366 1.524 . S
C1365 H1368 0.999 . S
C1366 H1336 0.950 . S
C1366 C1365 1.524 . S
C1366 C1367 1.415 . S
C1367 H1337 0.950 . S
C1367 C1362 1.363 . S
C1367 C1366 1.415 . S
H1368 C1365 0.999 . S
H1369 C1350 0.913 . S
H1370 C1388 0.951 . S
H1371 C1390 0.951 . S
H1372 C1392 0.950 . S
H1373 C1393 0.950 . S
H1374 C1395 0.950 . S
H1375 C1398 0.950 . S
H1376 C1399 0.950 . S
H1377 C1401 0.950 . S
H1378 C1402 0.950 . S
H1379 C1403 0.951 . S
H1380 C1405 0.951 . S
H1381 C1407 0.950 . S
H1382 C1408 0.950 . S
H1383 C1410 0.950 . S
H1384 C1413 0.950 . S
H1385 C1414 0.950 . S
H1386 C1416 0.950 . S
H1387 C1417 0.950 . S
C1388 H1370 0.951 . S
C1388 C1389 1.366 . S
C1388 C1390 1.388 . S
C1389 C1388 1.366 . S
C1389 C1393 1.385 . S
C1390 H1371 0.951 . S
C1390 C1388 1.388 . S
C1390 C1391 1.366 . S
C1391 C1390 1.366 . S
C1391 C1392 1.414 . S
C1391 C1394 1.499 . S
C1392 H1372 0.950 . S
C1392 C1391 1.414 . S
C1392 C1393 1.374 . S
C1393 H1373 0.950 . S
C1393 C1389 1.385 . S
C1393 C1392 1.374 . S
C1394 C1391 1.499 . S
C1394 C1395 1.373 . S
C1394 C1396 1.389 . S
C1395 H1374 0.950 . S
C1395 C1394 1.373 . S
C1395 C1411 1.377 . S
C1396 C1394 1.389 . S
C1396 C1397 1.524 . S
C1396 C1410 1.377 . S
C1397 C1396 1.524 . S
C1397 C1398 1.397 . S
C1397 C1402 1.363 . S
C1398 H1375 0.950 . S
C1398 C1397 1.397 . S
C1398 C1399 1.334 . S
C1399 H1376 0.950 . S
C1399 C1398 1.334 . S
C1399 C1400 1.287 . S
C1400 C1399 1.287 . S
C1400 C1401 1.524 . S
C1400 H1419 0.913 . S
C1401 H1377 0.950 . S
C1401 C1400 1.524 . S
C1401 C1402 1.415 . S
C1402 H1378 0.950 . S
C1402 C1397 1.363 . S
C1402 C1401 1.415 . S
C1403 H1379 0.951 . S
C1403 C1404 1.366 . S
C1403 C1405 1.388 . S
C1404 C1403 1.366 . S
C1404 C1408 1.385 . S
C1405 H1380 0.951 . S
C1405 C1403 1.388 . S
C1405 C1406 1.366 . S
C1406 C1405 1.366 . S
C1406 C1407 1.414 . S
C1406 C1409 1.499 . S
C1407 H1381 0.950 . S
C1407 C1406 1.414 . S
C1407 C1408 1.374 . S
C1408 H1382 0.950 . S
C1408 C1404 1.385 . S
C1408 C1407 1.374 . S
C1409 C1406 1.499 . S
C1409 C1410 1.373 . S
C1409 C1411 1.389 . S
C1410 H1383 0.950 . S
C1410 C1396 1.377 . S
C1410 C1409 1.373 . S
C1411 C1395 1.377 . S
C1411 C1409 1.389 . S
C1411 C1412 1.524 . S
C1412 C1411 1.524 . S
C1412 C1413 1.397 . S
C1412 C1417 1.363 . S
C1413 H1384 0.950 . S
C1413 C1412 1.397 . S
C1413 C1414 1.334 . S
C1414 H1385 0.950 . S
C1414 C1413 1.334 . S
C1414 C1415 1.287 . S
C1415 C1414 1.287 . S
C1415 C1416 1.524 . S
C1415 H1418 0.999 . S
C1416 H1386 0.950 . S
C1416 C1415 1.524 . S
C1416 C1417 1.415 . S
C1417 H1387 0.950 . S
C1417 C1412 1.363 . S
C1417 C1416 1.415 . S
H1418 C1415 0.999 . S
H1419 C1400 0.913 . S
H1420 C1438 0.951 . S
H1421 C1440 0.951 . S
H1422 C1442 0.950 . S
H1423 C1443 0.950 . S
H1424 C1445 0.950 . S
H1425 C1448 0.950 . S
H1426 C1449 0.950 . S
H1427 C1451 0.950 . S
H1428 C1452 0.950 . S
H1429 C1453 0.951 . S
H1430 C1455 0.951 . S
H1431 C1457 0.950 . S
H1432 C1458 0.950 . S
H1433 C1460 0.950 . S
H1434 C1463 0.950 . S
H1435 C1464 0.950 . S
H1436 C1466 0.950 . S
H1437 C1467 0.950 . S
C1438 H1420 0.951 . S
C1438 C1439 1.366 . S
C1438 C1440 1.388 . S
C1439 C1438 1.366 . S
C1439 C1443 1.385 . S
C1440 H1421 0.951 . S
C1440 C1438 1.388 . S
C1440 C1441 1.366 . S
C1441 C1440 1.366 . S
C1441 C1442 1.414 . S
C1441 C1444 1.499 . S
C1442 H1422 0.950 . S
C1442 C1441 1.414 . S
C1442 C1443 1.374 . S
C1443 H1423 0.950 . S
C1443 C1439 1.385 . S
C1443 C1442 1.374 . S
C1444 C1441 1.499 . S
C1444 C1445 1.373 . S
C1444 C1446 1.389 . S
C1445 H1424 0.950 . S
C1445 C1444 1.373 . S
C1445 C1461 1.377 . S
C1446 C1444 1.389 . S
C1446 C1447 1.524 . S
C1446 C1460 1.377 . S
C1447 C1446 1.524 . S
C1447 C1448 1.397 . S
C1447 C1452 1.363 . S
C1448 H1425 0.950 . S
C1448 C1447 1.397 . S
C1448 C1449 1.334 . S
C1449 H1426 0.950 . S
C1449 C1448 1.334 . S
C1449 C1450 1.287 . S
C1450 C1449 1.287 . S
C1450 C1451 1.524 . S
C1450 H1469 0.913 . S
C1451 H1427 0.950 . S
C1451 C1450 1.524 . S
C1451 C1452 1.415 . S
C1452 H1428 0.950 . S
C1452 C1447 1.363 . S
C1452 C1451 1.415 . S
C1453 H1429 0.951 . S
C1453 C1454 1.366 . S
C1453 C1455 1.388 . S
C1454 C1453 1.366 . S
C1454 C1458 1.385 . S
C1455 H1430 0.951 . S
C1455 C1453 1.388 . S
C1455 C1456 1.366 . S
C1456 C1455 1.366 . S
C1456 C1457 1.414 . S
C1456 C1459 1.499 . S
C1457 H1431 0.950 . S
C1457 C1456 1.414 . S
C1457 C1458 1.374 . S
C1458 H1432 0.950 . S
C1458 C1454 1.385 . S
C1458 C1457 1.374 . S
C1459 C1456 1.499 . S
C1459 C1460 1.373 . S
C1459 C1461 1.389 . S
C1460 H1433 0.950 . S
C1460 C1446 1.377 . S
C1460 C1459 1.373 . S
C1461 C1445 1.377 . S
C1461 C1459 1.389 . S
C1461 C1462 1.524 . S
C1462 C1461 1.524 . S
C1462 C1463 1.397 . S
C1462 C1467 1.363 . S
C1463 H1434 0.950 . S
C1463 C1462 1.397 . S
C1463 C1464 1.334 . S
C1464 H1435 0.950 . S
C1464 C1463 1.334 . S
C1464 C1465 1.287 . S
C1465 C1464 1.287 . S
C1465 C1466 1.524 . S
C1465 H1468 0.999 . S
C1466 H1436 0.950 . S
C1466 C1465 1.524 . S
C1466 C1467 1.415 . S
C1467 H1437 0.950 . S
C1467 C1462 1.363 . S
C1467 C1466 1.415 . S
H1468 C1465 0.999 . S
H1469 C1450 0.913 . S
H1470 C1488 0.951 . S
H1471 C1490 0.951 . S
H1472 C1492 0.950 . S
H1473 C1493 0.950 . S
H1474 C1495 0.950 . S
H1475 C1498 0.950 . S
H1476 C1499 0.950 . S
H1477 C1501 0.950 . S
H1478 C1502 0.950 . S
H1479 C1503 0.951 . S
H1480 C1505 0.951 . S
H1481 C1507 0.950 . S
H1482 C1508 0.950 . S
H1483 C1510 0.950 . S
H1484 C1513 0.950 . S
H1485 C1514 0.950 . S
H1486 C1516 0.950 . S
H1487 C1517 0.950 . S
C1488 H1470 0.951 . S
C1488 C1489 1.366 . S
C1488 C1490 1.388 . S
C1489 C1488 1.366 . S
C1489 C1493 1.385 . S
C1490 H1471 0.951 . S
C1490 C1488 1.388 . S
C1490 C1491 1.366 . S
C1491 C1490 1.366 . S
C1491 C1492 1.414 . S
C1491 C1494 1.499 . S
C1492 H1472 0.950 . S
C1492 C1491 1.414 . S
C1492 C1493 1.374 . S
C1493 H1473 0.950 . S
C1493 C1489 1.385 . S
C1493 C1492 1.374 . S
C1494 C1491 1.499 . S
C1494 C1495 1.373 . S
C1494 C1496 1.389 . S
C1495 H1474 0.950 . S
C1495 C1494 1.373 . S
C1495 C1511 1.377 . S
C1496 C1494 1.389 . S
C1496 C1497 1.524 . S
C1496 C1510 1.377 . S
C1497 C1496 1.524 . S
C1497 C1498 1.397 . S
C1497 C1502 1.363 . S
C1498 H1475 0.950 . S
C1498 C1497 1.397 . S
C1498 C1499 1.334 . S
C1499 H1476 0.950 . S
C1499 C1498 1.334 . S
C1499 C1500 1.287 . S
C1500 C1499 1.287 . S
C1500 C1501 1.524 . S
C1500 H1519 0.913 . S
C1501 H1477 0.950 . S
C1501 C1500 1.524 . S
C1501 C1502 1.415 . S
C1502 H1478 0.950 . S
C1502 C1497 1.363 . S
C1502 C1501 1.415 . S
C1503 H1479 0.951 . S
C1503 C1504 1.366 . S
C1503 C1505 1.388 . S
C1504 C1503 1.366 . S
C1504 C1508 1.385 . S
C1505 H1480 0.951 . S
C1505 C1503 1.388 . S
C1505 C1506 1.366 . S
C1506 C1505 1.366 . S
C1506 C1507 1.414 . S
C1506 C1509 1.499 . S
C1507 H1481 0.950 . S
C1507 C1506 1.414 . S
C1507 C1508 1.374 . S
C1508 H1482 0.950 . S
C1508 C1504 1.385 . S
C1508 C1507 1.374 . S
C1509 C1506 1.499 . S
C1509 C1510 1.373 . S
C1509 C1511 1.389 . S
C1510 H1483 0.950 . S
C1510 C1496 1.377 . S
C1510 C1509 1.373 . S
C1511 C1495 1.377 . S
C1511 C1509 1.389 . S
C1511 C1512 1.524 . S
C1512 C1511 1.524 . S
C1512 C1513 1.397 . S
C1512 C1517 1.363 . S
C1513 H1484 0.950 . S
C1513 C1512 1.397 . S
C1513 C1514 1.334 . S
C1514 H1485 0.950 . S
C1514 C1513 1.334 . S
C1514 C1515 1.287 . S
C1515 C1514 1.287 . S
C1515 C1516 1.524 . S
C1515 H1518 0.999 . S
C1516 H1486 0.950 . S
C1516 C1515 1.524 . S
C1516 C1517 1.415 . S
C1517 H1487 0.950 . S
C1517 C1512 1.363 . S
C1517 C1516 1.415 . S
H1518 C1515 0.999 . S
H1519 C1500 0.913 . S
H1520 C1538 0.951 . S
H1521 C1540 0.951 . S
H1522 C1542 0.950 . S
H1523 C1543 0.950 . S
H1524 C1545 0.950 . S
H1525 C1548 0.950 . S
H1526 C1549 0.950 . S
H1527 C1551 0.950 . S
H1528 C1552 0.950 . S
H1529 C1553 0.951 . S
H1530 C1555 0.951 . S
H1531 C1557 0.950 . S
H1532 C1558 0.950 . S
H1533 C1560 0.950 . S
H1534 C1563 0.950 . S
H1535 C1564 0.950 . S
H1536 C1566 0.950 . S
H1537 C1567 0.950 . S
C1538 H1520 0.951 . S
C1538 C1539 1.366 . S
C1538 C1540 1.388 . S
C1539 C1538 1.366 . S
C1539 C1543 1.385 . S
C1540 H1521 0.951 . S
C1540 C1538 1.388 . S
C1540 C1541 1.366 . S
C1541 C1540 1.366 . S
C1541 C1542 1.414 . S
C1541 C1544 1.499 . S
C1542 H1522 0.950 . S
C1542 C1541 1.414 . S
C1542 C1543 1.374 . S
C1543 H1523 0.950 . S
C1543 C1539 1.385 . S
C1543 C1542 1.374 . S
C1544 C1541 1.499 . S
C1544 C1545 1.373 . S
C1544 C1546 1.389 . S
C1545 H1524 0.950 . S
C1545 C1544 1.373 . S
C1545 C1561 1.377 . S
C1546 C1544 1.389 . S
C1546 C1547 1.524 . S
C1546 C1560 1.377 . S
C1547 C1546 1.524 . S
C1547 C1548 1.397 . S
C1547 C1552 1.363 . S
C1548 H1525 0.950 . S
C1548 C1547 1.397 . S
C1548 C1549 1.334 . S
C1549 H1526 0.950 . S
C1549 C1548 1.334 . S
C1549 C1550 1.287 . S
C1550 C1549 1.287 . S
C1550 C1551 1.524 . S
C1550 H1569 0.913 . S
C1551 H1527 0.950 . S
C1551 C1550 1.524 . S
C1551 C1552 1.415 . S
C1552 H1528 0.950 . S
C1552 C1547 1.363 . S
C1552 C1551 1.415 . S
C1553 H1529 0.951 . S
C1553 C1554 1.366 . S
C1553 C1555 1.388 . S
C1554 C1553 1.366 . S
C1554 C1558 1.385 . S
C1555 H1530 0.951 . S
C1555 C1553 1.388 . S
C1555 C1556 1.366 . S
C1556 C1555 1.366 . S
C1556 C1557 1.414 . S
C1556 C1559 1.499 . S
C1557 H1531 0.950 . S
C1557 C1556 1.414 . S
C1557 C1558 1.374 . S
C1558 H1532 0.950 . S
C1558 C1554 1.385 . S
C1558 C1557 1.374 . S
C1559 C1556 1.499 . S
C1559 C1560 1.373 . S
C1559 C1561 1.389 . S
C1560 H1533 0.950 . S
C1560 C1546 1.377 . S
C1560 C1559 1.373 . S
C1561 C1545 1.377 . S
C1561 C1559 1.389 . S
C1561 C1562 1.524 . S
C1562 C1561 1.524 . S
C1562 C1563 1.397 . S
C1562 C1567 1.363 . S
C1563 H1534 0.950 . S
C1563 C1562 1.397 . S
C1563 C1564 1.334 . S
C1564 H1535 0.950 . S
C1564 C1563 1.334 . S
C1564 C1565 1.287 . S
C1565 C1564 1.287 . S
C1565 C1566 1.524 . S
C1565 H1568 0.999 . S
C1566 H1536 0.950 . S
C1566 C1565 1.524 . S
C1566 C1567 1.415 . S
C1567 H1537 0.950 . S
C1567 C1562 1.363 . S
C1567 C1566 1.415 . S
H1568 C1565 0.999 . S
H1569 C1550 0.913 . S
H1570 C1588 0.951 . S
H1571 C1590 0.951 . S
H1572 C1592 0.950 . S
H1573 C1593 0.950 . S
H1574 C1595 0.950 . S
H1575 C1598 0.950 . S
H1576 C1599 0.950 . S
H1577 C1601 0.950 . S
H1578 C1602 0.950 . S
H1579 C1603 0.951 . S
H1580 C1605 0.951 . S
H1581 C1607 0.950 . S
H1582 C1608 0.950 . S
H1583 C1610 0.950 . S
H1584 C1613 0.950 . S
H1585 C1614 0.950 . S
H1586 C1616 0.950 . S
H1587 C1617 0.950 . S
C1588 H1570 0.951 . S
C1588 C1589 1.366 . S
C1588 C1590 1.388 . S
C1589 C1588 1.366 . S
C1589 C1593 1.385 . S
C1590 H1571 0.951 . S
C1590 C1588 1.388 . S
C1590 C1591 1.366 . S
C1591 C1590 1.366 . S
C1591 C1592 1.414 . S
C1591 C1594 1.499 . S
C1592 H1572 0.950 . S
C1592 C1591 1.414 . S
C1592 C1593 1.374 . S
C1593 H1573 0.950 . S
C1593 C1589 1.385 . S
C1593 C1592 1.374 . S
C1594 C1591 1.499 . S
C1594 C1595 1.373 . S
C1594 C1596 1.389 . S
C1595 H1574 0.950 . S
C1595 C1594 1.373 . S
C1595 C1611 1.377 . S
C1596 C1594 1.389 . S
C1596 C1597 1.524 . S
C1596 C1610 1.377 . S
C1597 C1596 1.524 . S
C1597 C1598 1.397 . S
C1597 C1602 1.363 . S
C1598 H1575 0.950 . S
C1598 C1597 1.397 . S
C1598 C1599 1.334 . S
C1599 H1576 0.950 . S
C1599 C1598 1.334 . S
C1599 C1600 1.287 . S
C1600 C1599 1.287 . S
C1600 C1601 1.524 . S
C1600 H1619 0.913 . S
C1601 H1577 0.950 . S
C1601 C1600 1.524 . S
C1601 C1602 1.415 . S
C1602 H1578 0.950 . S
C1602 C1597 1.363 . S
C1602 C1601 1.415 . S
C1603 H1579 0.951 . S
C1603 C1604 1.366 . S
C1603 C1605 1.388 . S
C1604 C1603 1.366 . S
C1604 C1608 1.385 . S
C1605 H1580 0.951 . S
C1605 C1603 1.388 . S
C1605 C1606 1.366 . S
C1606 C1605 1.366 . S
C1606 C1607 1.414 . S
C1606 C1609 1.499 . S
C1607 H1581 0.950 . S
C1607 C1606 1.414 . S
C1607 C1608 1.374 . S
C1608 H1582 0.950 . S
C1608 C1604 1.385 . S
C1608 C1607 1.374 . S
C1609 C1606 1.499 . S
C1609 C1610 1.373 . S
C1609 C1611 1.389 . S
C1610 H1583 0.950 . S
C1610 C1596 1.377 . S
C1610 C1609 1.373 . S
C1611 C1595 1.377 . S
C1611 C1609 1.389 . S
C1611 C1612 1.524 . S
C1612 C1611 1.524 . S
C1612 C1613 1.397 . S
C1612 C1617 1.363 . S
C1613 H1584 0.950 . S
C1613 C1612 1.397 . S
C1613 C1614 1.334 . S
C1614 H1585 0.950 . S
C1614 C1613 1.334 . S
C1614 C1615 1.287 . S
C1615 C1614 1.287 . S
C1615 C1616 1.524 . S
C1615 H1618 0.999 . S
C1616 H1586 0.950 . S
C1616 C1615 1.524 . S
C1616 C1617 1.415 . S
C1617 H1587 0.950 . S
C1617 C1612 1.363 . S
C1617 C1616 1.415 . S
H1618 C1615 0.999 . S
H1619 C1600 0.913 . S
H1620 C1638 0.951 . S
H1621 C1640 0.951 . S
H1622 C1642 0.950 . S
H1623 C1643 0.950 . S
H1624 C1645 0.950 . S
H1625 C1648 0.950 . S
H1626 C1649 0.950 . S
H1627 C1651 0.950 . S
H1628 C1652 0.950 . S
H1629 C1653 0.951 . S
H1630 C1655 0.951 . S
H1631 C1657 0.950 . S
H1632 C1658 0.950 . S
H1633 C1660 0.950 . S
H1634 C1663 0.950 . S
H1635 C1664 0.950 . S
H1636 C1666 0.950 . S
H1637 C1667 0.950 . S
C1638 H1620 0.951 . S
C1638 C1639 1.366 . S
C1638 C1640 1.388 . S
C1639 C1638 1.366 . S
C1639 C1643 1.385 . S
C1640 H1621 0.951 . S
C1640 C1638 1.388 . S
C1640 C1641 1.366 . S
C1641 C1640 1.366 . S
C1641 C1642 1.414 . S
C1641 C1644 1.499 . S
C1642 H1622 0.950 . S
C1642 C1641 1.414 . S
C1642 C1643 1.374 . S
C1643 H1623 0.950 . S
C1643 C1639 1.385 . S
C1643 C1642 1.374 . S
C1644 C1641 1.499 . S
C1644 C1645 1.373 . S
C1644 C1646 1.389 . S
C1645 H1624 0.950 . S
C1645 C1644 1.373 . S
C1645 C1661 1.377 . S
C1646 C1644 1.389 . S
C1646 C1647 1.524 . S
C1646 C1660 1.377 . S
C1647 C1646 1.524 . S
C1647 C1648 1.397 . S
C1647 C1652 1.363 . S
C1648 H1625 0.950 . S
C1648 C1647 1.397 . S
C1648 C1649 1.334 . S
C1649 H1626 0.950 . S
C1649 C1648 1.334 . S
C1649 C1650 1.287 . S
C1650 C1649 1.287 . S
C1650 C1651 1.524 . S
C1650 H1669 0.913 . S
C1651 H1627 0.950 . S
C1651 C1650 1.524 . S
C1651 C1652 1.415 . S
C1652 H1628 0.950 . S
C1652 C1647 1.363 . S
C1652 C1651 1.415 . S
C1653 H1629 0.951 . S
C1653 C1654 1.366 . S
C1653 C1655 1.388 . S
C1654 C1653 1.366 . S
C1654 C1658 1.385 . S
C1655 H1630 0.951 . S
C1655 C1653 1.388 . S
C1655 C1656 1.366 . S
C1656 C1655 1.366 . S
C1656 C1657 1.414 . S
C1656 C1659 1.499 . S
C1657 H1631 0.950 . S
C1657 C1656 1.414 . S
C1657 C1658 1.374 . S
C1658 H1632 0.950 . S
C1658 C1654 1.385 . S
C1658 C1657 1.374 . S
C1659 C1656 1.499 . S
C1659 C1660 1.373 . S
C1659 C1661 1.389 . S
C1660 H1633 0.950 . S
C1660 C1646 1.377 . S
C1660 C1659 1.373 . S
C1661 C1645 1.377 . S
C1661 C1659 1.389 . S
C1661 C1662 1.524 . S
C1662 C1661 1.524 . S
C1662 C1663 1.397 . S
C1662 C1667 1.363 . S
C1663 H1634 0.950 . S
C1663 C1662 1.397 . S
C1663 C1664 1.334 . S
C1664 H1635 0.950 . S
C1664 C1663 1.334 . S
C1664 C1665 1.287 . S
C1665 C1664 1.287 . S
C1665 C1666 1.524 . S
C1665 H1668 0.999 . S
C1666 H1636 0.950 . S
C1666 C1665 1.524 . S
C1666 C1667 1.415 . S
C1667 H1637 0.950 . S
C1667 C1662 1.363 . S
C1667 C1666 1.415 . S
H1668 C1665 0.999 . S
H1669 C1650 0.913 . S
H1670 C1688 0.951 . S
H1671 C1690 0.951 . S
H1672 C1692 0.950 . S
H1673 C1693 0.950 . S
H1674 C1695 0.950 . S
H1675 C1698 0.950 . S
H1676 C1699 0.950 . S
H1677 C1701 0.950 . S
H1678 C1702 0.950 . S
H1679 C1703 0.951 . S
H1680 C1705 0.951 . S
H1681 C1707 0.950 . S
H1682 C1708 0.950 . S
H1683 C1710 0.950 . S
H1684 C1713 0.950 . S
H1685 C1714 0.950 . S
H1686 C1716 0.950 . S
H1687 C1717 0.950 . S
C1688 H1670 0.951 . S
C1688 C1689 1.366 . S
C1688 C1690 1.388 . S
C1689 C1688 1.366 . S
C1689 C1693 1.385 . S
C1690 H1671 0.951 . S
C1690 C1688 1.388 . S
C1690 C1691 1.366 . S
C1691 C1690 1.366 . S
C1691 C1692 1.414 . S
C1691 C1694 1.499 . S
C1692 H1672 0.950 . S
C1692 C1691 1.414 . S
C1692 C1693 1.374 . S
C1693 H1673 0.950 . S
C1693 C1689 1.385 . S
C1693 C1692 1.374 . S
C1694 C1691 1.499 . S
C1694 C1695 1.373 . S
C1694 C1696 1.389 . S
C1695 H1674 0.950 . S
C1695 C1694 1.373 . S
C1695 C1711 1.377 . S
C1696 C1694 1.389 . S
C1696 C1697 1.524 . S
C1696 C1710 1.377 . S
C1697 C1696 1.524 . S
C1697 C1698 1.397 . S
C1697 C1702 1.363 . S
C1698 H1675 0.950 . S
C1698 C1697 1.397 . S
C1698 C1699 1.334 . S
C1699 H1676 0.950 . S
C1699 C1698 1.334 . S
C1699 C1700 1.287 . S
C1700 C1699 1.287 . S
C1700 C1701 1.524 . S
C1700 H1719 0.913 . S
C1701 H1677 0.950 . S
C1701 C1700 1.524 . S
C1701 C1702 1.415 . S
C1702 H1678 0.950 . S
C1702 C1697 1.363 . S
C1702 C1701 1.415 . S
C1703 H1679 0.951 . S
C1703 C1704 1.366 . S
C1703 C1705 1.388 . S
C1704 C1703 1.366 . S
C1704 C1708 1.385 . S
C1705 H1680 0.951 . S
C1705 C1703 1.388 . S
C1705 C1706 1.366 . S
C1706 C1705 1.366 . S
C1706 C1707 1.414 . S
C1706 C1709 1.499 . S
C1707 H1681 0.950 . S
C1707 C1706 1.414 . S
C1707 C1708 1.374 . S
C1708 H1682 0.950 . S
C1708 C1704 1.385 . S
C1708 C1707 1.374 . S
C1709 C1706 1.499 . S
C1709 C1710 1.373 . S
C1709 C1711 1.389 . S
C1710 H1683 0.950 . S
C1710 C1696 1.377 . S
C1710 C1709 1.373 . S
C1711 C1695 1.377 . S
C1711 C1709 1.389 . S
C1711 C1712 1.524 . S
C1712 C1711 1.524 . S
C1712 C1713 1.397 . S
C1712 C1717 1.363 . S
C1713 H1684 0.950 . S
C1713 C1712 1.397 . S
C1713 C1714 1.334 . S
C1714 H1685 0.950 . S
C1714 C1713 1.334 . S
C1714 C1715 1.287 . S
C1715 C1714 1.287 . S
C1715 C1716 1.524 . S
C1715 H1718 0.999 . S
C1716 H1686 0.950 . S
C1716 C1715 1.524 . S
C1716 C1717 1.415 . S
C1717 H1687 0.950 . S
C1717 C1712 1.363 . S
C1717 C1716 1.415 . S
H1718 C1715 0.999 . S
H1719 C1700 0.913 . S
H1720 C1738 0.951 . S
H1721 C1740 0.951 . S
H1722 C1742 0.950 . S
H1723 C1743 0.950 . S
H1724 C1745 0.950 . S
H1725 C1748 0.950 . S
H1726 C1749 0.950 . S
H1727 C1751 0.950 . S
H1728 C1752 0.950 . S
H1729 C1753 0.951 . S
H1730 C1755 0.951 . S
H1731 C1757 0.950 . S
H1732 C1758 0.950 . S
H1733 C1760 0.950 . S
H1734 C1763 0.950 . S
H1735 C1764 0.950 . S
H1736 C1766 0.950 . S
H1737 C1767 0.950 . S
C1738 H1720 0.951 . S
C1738 C1739 1.366 . S
C1738 C1740 1.388 . S
C1739 C1738 1.366 . S
C1739 C1743 1.385 . S
C1740 H1721 0.951 . S
C1740 C1738 1.388 . S
C1740 C1741 1.366 . S
C1741 C1740 1.366 . S
C1741 C1742 1.414 . S
C1741 C1744 1.499 . S
C1742 H1722 0.950 . S
C1742 C1741 1.414 . S
C1742 C1743 1.374 . S
C1743 H1723 0.950 . S
C1743 C1739 1.385 . S
C1743 C1742 1.374 . S
C1744 C1741 1.499 . S
C1744 C1745 1.373 . S
C1744 C1746 1.389 . S
C1745 H1724 0.950 . S
C1745 C1744 1.373 . S
C1745 C1761 1.377 . S
C1746 C1744 1.389 . S
C1746 C1747 1.524 . S
C1746 C1760 1.377 . S
C1747 C1746 1.524 . S
C1747 C1748 1.397 . S
C1747 C1752 1.363 . S
C1748 H1725 0.950 . S
C1748 C1747 1.397 . S
C1748 C1749 1.334 . S
C1749 H1726 0.950 . S
C1749 C1748 1.334 . S
C1749 C1750 1.287 . S
C1750 C1749 1.287 . S
C1750 C1751 1.524 . S
C1750 H1769 0.913 . S
C1751 H1727 0.950 . S
C1751 C1750 1.524 . S
C1751 C1752 1.415 . S
C1752 H1728 0.950 . S
C1752 C1747 1.363 . S
C1752 C1751 1.415 . S
C1753 H1729 0.951 . S
C1753 C1754 1.366 . S
C1753 C1755 1.388 . S
C1754 C1753 1.366 . S
C1754 C1758 1.385 . S
C1755 H1730 0.951 . S
C1755 C1753 1.388 . S
C1755 C1756 1.366 . S
C1756 C1755 1.366 . S
C1756 C1757 1.414 . S
C1756 C1759 1.499 . S
C1757 H1731 0.950 . S
C1757 C1756 1.414 . S
C1757 C1758 1.374 . S
C1758 H1732 0.950 . S
C1758 C1754 1.385 . S
C1758 C1757 1.374 . S
C1759 C1756 1.499 . S
C1759 C1760 1.373 . S
C1759 C1761 1.389 . S
C1760 H1733 0.950 . S
C1760 C1746 1.377 . S
C1760 C1759 1.373 . S
C1761 C1745 1.377 . S
C1761 C1759 1.389 . S
C1761 C1762 1.524 . S
C1762 C1761 1.524 . S
C1762 C1763 1.397 . S
C1762 C1767 1.363 . S
C1763 H1734 0.950 . S
C1763 C1762 1.397 . S
C1763 C1764 1.334 . S
C1764 H1735 0.950 . S
C1764 C1763 1.334 . S
C1764 C1765 1.287 . S
C1765 C1764 1.287 . S
C1765 C1766 1.524 . S
C1765 H1768 0.999 . S
C1766 H1736 0.950 . S
C1766 C1765 1.524 . S
C1766 C1767 1.415 . S
C1767 H1737 0.950 . S
C1767 C1762 1.363 . S
C1767 C1766 1.415 . S
H1768 C1765 0.999 . S
H1769 C1750 0.913 . S
H1770 C1788 0.951 . S
H1771 C1790 0.951 . S
H1772 C1792 0.950 . S
H1773 C1793 0.950 . S
H1774 C1795 0.950 . S
H1775 C1798 0.950 . S
H1776 C1799 0.950 . S
H1777 C1801 0.950 . S
H1778 C1802 0.950 . S
H1779 C1803 0.951 . S
H1780 C1805 0.951 . S
H1781 C1807 0.950 . S
H1782 C1808 0.950 . S
H1783 C1810 0.950 . S
H1784 C1813 0.950 . S
H1785 C1814 0.950 . S
H1786 C1816 0.950 . S
H1787 C1817 0.950 . S
C1788 H1770 0.951 . S
C1788 C1789 1.366 . S
C1788 C1790 1.388 . S
C1789 C1788 1.366 . S
C1789 C1793 1.385 . S
C1790 H1771 0.951 . S
C1790 C1788 1.388 . S
C1790 C1791 1.366 . S
C1791 C1790 1.366 . S
C1791 C1792 1.414 . S
C1791 C1794 1.499 . S
C1792 H1772 0.950 . S
C1792 C1791 1.414 . S
C1792 C1793 1.374 . S
C1793 H1773 0.950 . S
C1793 C1789 1.385 . S
C1793 C1792 1.374 . S
C1794 C1791 1.499 . S
C1794 C1795 1.373 . S
C1794 C1796 1.389 . S
C1795 H1774 0.950 . S
C1795 C1794 1.373 . S
C1795 C1811 1.377 . S
C1796 C1794 1.389 . S
C1796 C1797 1.524 . S
C1796 C1810 1.377 . S
C1797 C1796 1.524 . S
C1797 C1798 1.397 . S
C1797 C1802 1.363 . S
C1798 H1775 0.950 . S
C1798 C1797 1.397 . S
C1798 C1799 1.334 . S
C1799 H1776 0.950 . S
C1799 C1798 1.334 . S
C1799 C1800 1.287 . S
C1800 C1799 1.287 . S
C1800 C1801 1.524 . S
C1800 H1819 0.913 . S
C1801 H1777 0.950 . S
C1801 C1800 1.524 . S
C1801 C1802 1.415 . S
C1802 H1778 0.950 . S
C1802 C1797 1.363 . S
C1802 C1801 1.415 . S
C1803 H1779 0.951 . S
C1803 C1804 1.366 . S
C1803 C1805 1.388 . S
C1804 C1803 1.366 . S
C1804 C1808 1.385 . S
C1805 H1780 0.951 . S
C1805 C1803 1.388 . S
C1805 C1806 1.366 . S
C1806 C1805 1.366 . S
C1806 C1807 1.414 . S
C1806 C1809 1.499 . S
C1807 H1781 0.950 . S
C1807 C1806 1.414 . S
C1807 C1808 1.374 . S
C1808 H1782 0.950 . S
C1808 C1804 1.385 . S
C1808 C1807 1.374 . S
C1809 C1806 1.499 . S
C1809 C1810 1.373 . S
C1809 C1811 1.389 . S
C1810 H1783 0.950 . S
C1810 C1796 1.377 . S
C1810 C1809 1.373 . S
C1811 C1795 1.377 . S
C1811 C1809 1.389 . S
C1811 C1812 1.524 . S
C1812 C1811 1.524 . S
C1812 C1813 1.397 . S
C1812 C1817 1.363 . S
C1813 H1784 0.950 . S
C1813 C1812 1.397 . S
C1813 C1814 1.334 . S
C1814 H1785 0.950 . S
C1814 C1813 1.334 . S
C1814 C1815 1.287 . S
C1815 C1814 1.287 . S
C1815 C1816 1.524 . S
C1815 H1818 0.999 . S
C1816 H1786 0.950 . S
C1816 C1815 1.524 . S
C1816 C1817 1.415 . S
C1817 H1787 0.950 . S
C1817 C1812 1.363 . S
C1817 C1816 1.415 . S
H1818 C1815 0.999 . S
H1819 C1800 0.913 . S
H1820 C1838 0.951 . S
H1821 C1840 0.951 . S
H1822 C1842 0.950 . S
H1823 C1843 0.950 . S
H1824 C1845 0.950 . S
H1825 C1848 0.950 . S
H1826 C1849 0.950 . S
H1827 C1851 0.950 . S
H1828 C1852 0.950 . S
H1829 C1853 0.951 . S
H1830 C1855 0.951 . S
H1831 C1857 0.950 . S
H1832 C1858 0.950 . S
H1833 C1860 0.950 . S
H1834 C1863 0.950 . S
H1835 C1864 0.950 . S
H1836 C1866 0.950 . S
H1837 C1867 0.950 . S
C1838 H1820 0.951 . S
C1838 C1839 1.366 . S
C1838 C1840 1.388 . S
C1839 C1838 1.366 . S
C1839 C1843 1.385 . S
C1840 H1821 0.951 . S
C1840 C1838 1.388 . S
C1840 C1841 1.366 . S
C1841 C1840 1.366 . S
C1841 C1842 1.414 . S
C1841 C1844 1.499 . S
C1842 H1822 0.950 . S
C1842 C1841 1.414 . S
C1842 C1843 1.374 . S
C1843 H1823 0.950 . S
C1843 C1839 1.385 . S
C1843 C1842 1.374 . S
C1844 C1841 1.499 . S
C1844 C1845 1.373 . S
C1844 C1846 1.389 . S
C1845 H1824 0.950 . S
C1845 C1844 1.373 . S
C1845 C1861 1.377 . S
C1846 C1844 1.389 . S
C1846 C1847 1.524 . S
C1846 C1860 1.377 . S
C1847 C1846 1.524 . S
C1847 C1848 1.397 . S
C1847 C1852 1.363 . S
C1848 H1825 0.950 . S
C1848 C1847 1.397 . S
C1848 C1849 1.334 . S
C1849 H1826 0.950 . S
C1849 C1848 1.334 . S
C1849 C1850 1.287 . S
C1850 C1849 1.287 . S
C1850 C1851 1.524 . S
C1850 H1869 0.913 . S
C1851 H1827 0.950 . S
C1851 C1850 1.524 . S
C1851 C1852 1.415 . S
C1852 H1828 0.950 . S
C1852 C1847 1.363 . S
C1852 C1851 1.415 . S
C1853 H1829 0.951 . S
C1853 C1854 1.366 . S
C1853 C1855 1.388 . S
C1854 C1853 1.366 . S
C1854 C1858 1.385 . S
C1855 H1830 0.951 . S
C1855 C1853 1.388 . S
C1855 C1856 1.366 . S
C1856 C1855 1.366 . S
C1856 C1857 1.414 . S
C1856 C1859 1.499 . S
C1857 H1831 0.950 . S
C1857 C1856 1.414 . S
C1857 C1858 1.374 . S
C1858 H1832 0.950 . S
C1858 C1854 1.385 . S
C1858 C1857 1.374 . S
C1859 C1856 1.499 . S
C1859 C1860 1.373 . S
C1859 C1861 1.389 . S
C1860 H1833 0.950 . S
C1860 C1846 1.377 . S
C1860 C1859 1.373 . S
C1861 C1845 1.377 . S
C1861 C1859 1.389 . S
C1861 C1862 1.524 . S
C1862 C1861 1.524 . S
C1862 C1863 1.397 . S
C1862 C1867 1.363 . S
C1863 H1834 0.950 . S
C1863 C1862 1.397 . S
C1863 C1864 1.334 . S
C1864 H1835 0.950 . S
C1864 C1863 1.334 . S
C1864 C1865 1.287 . S
C1865 C1864 1.287 . S
C1865 C1866 1.524 . S
C1865 H1868 0.999 . S
C1866 H1836 0.950 . S
C1866 C1865 1.524 . S
C1866 C1867 1.415 . S
C1867 H1837 0.950 . S
C1867 C1862 1.363 . S
C1867 C1866 1.415 . S
H1868 C1865 0.999 . S
H1869 C1850 0.913 . S
H1870 C1888 0.951 . S
H1871 C1890 0.951 . S
H1872 C1892 0.950 . S
H1873 C1893 0.950 . S
H1874 C1895 0.950 . S
H1875 C1898 0.950 . S
H1876 C1899 0.950 . S
H1877 C1901 0.950 . S
H1878 C1902 0.950 . S
H1879 C1903 0.951 . S
H1880 C1905 0.951 . S
H1881 C1907 0.950 . S
H1882 C1908 0.950 . S
H1883 C1910 0.950 . S
H1884 C1913 0.950 . S
H1885 C1914 0.950 1_554 S
H1886 C1916 0.950 . S
H1887 C1917 0.950 . S
C1888 H1870 0.951 . S
C1888 C1889 1.366 . S
C1888 C1890 1.388 . S
C1889 C1888 1.366 . S
C1889 C1893 1.385 . S
C1890 H1871 0.951 . S
C1890 C1888 1.388 . S
C1890 C1891 1.366 . S
C1891 C1890 1.366 . S
C1891 C1892 1.414 . S
C1891 C1894 1.499 . S
C1892 H1872 0.950 . S
C1892 C1891 1.414 . S
C1892 C1893 1.374 . S
C1893 H1873 0.950 . S
C1893 C1889 1.385 . S
C1893 C1892 1.374 . S
C1894 C1891 1.499 . S
C1894 C1895 1.373 . S
C1894 C1896 1.389 . S
C1895 H1874 0.950 . S
C1895 C1894 1.373 . S
C1895 C1911 1.377 . S
C1896 C1894 1.389 . S
C1896 C1897 1.524 . S
C1896 C1910 1.377 . S
C1897 C1896 1.524 . S
C1897 C1898 1.397 . S
C1897 C1902 1.363 . S
C1898 H1875 0.950 . S
C1898 C1897 1.397 . S
C1898 C1899 1.334 . S
C1899 H1876 0.950 . S
C1899 C1898 1.334 . S
C1899 C1900 1.287 . S
C1900 C1899 1.287 . S
C1900 C1901 1.524 . S
C1900 H1919 0.913 . S
C1901 H1877 0.950 . S
C1901 C1900 1.524 . S
C1901 C1902 1.415 . S
C1902 H1878 0.950 . S
C1902 C1897 1.363 . S
C1902 C1901 1.415 . S
C1903 H1879 0.951 . S
C1903 C1904 1.366 . S
C1903 C1905 1.388 . S
C1904 C1903 1.366 . S
C1904 C1908 1.385 . S
C1905 H1880 0.951 . S
C1905 C1903 1.388 . S
C1905 C1906 1.366 . S
C1906 C1905 1.366 . S
C1906 C1907 1.414 . S
C1906 C1909 1.499 . S
C1907 H1881 0.950 . S
C1907 C1906 1.414 . S
C1907 C1908 1.374 . S
C1908 H1882 0.950 . S
C1908 C1904 1.385 . S
C1908 C1907 1.374 . S
C1909 C1906 1.499 . S
C1909 C1910 1.373 . S
C1909 C1911 1.389 . S
C1910 H1883 0.950 . S
C1910 C1896 1.377 . S
C1910 C1909 1.373 . S
C1911 C1895 1.377 . S
C1911 C1909 1.389 . S
C1911 C1912 1.524 . S
C1912 C1911 1.524 . S
C1912 C1913 1.397 . S
C1912 C1917 1.363 . S
C1913 H1884 0.950 . S
C1913 C1912 1.397 . S
C1913 C1914 1.334 . S
C1914 H1885 0.950 1_556 S
C1914 C1913 1.334 . S
C1914 C1915 1.287 1_556 S
C1915 C1914 1.287 1_554 S
C1915 C1916 1.524 1_554 S
C1915 H1918 0.999 . S
C1916 H1886 0.950 . S
C1916 C1915 1.524 1_556 S
C1916 C1917 1.415 . S
C1917 H1887 0.950 . S
C1917 C1912 1.363 . S
C1917 C1916 1.415 . S
H1918 C1915 0.999 . S
H1919 C1900 0.913 . S
H1920 C1938 0.951 . S
H1921 C1940 0.951 . S
H1922 C1942 0.950 . S
H1923 C1943 0.950 . S
H1924 C1945 0.950 . S
H1925 C1948 0.950 . S
H1926 C1949 0.950 . S
H1927 C1951 0.950 . S
H1928 C1952 0.918 1_655 S
H1929 C1953 0.951 . S
H1930 C1955 0.951 . S
H1931 C1957 0.950 . S
H1932 C1958 0.950 . S
H1933 C1960 0.950 . S
H1934 C1963 0.950 . S
H1935 C1964 0.950 . S
H1936 C1966 0.950 . S
H1937 C1967 0.950 1_455 S
C1938 H1920 0.951 . S
C1938 C1939 1.366 . S
C1938 C1940 1.388 . S
C1939 C1938 1.366 . S
C1939 C1943 1.385 . S
C1940 H1921 0.951 . S
C1940 C1938 1.388 . S
C1940 C1941 1.366 . S
C1941 C1940 1.366 . S
C1941 C1942 1.414 . S
C1941 C1944 1.499 . S
C1942 H1922 0.950 . S
C1942 C1941 1.414 . S
C1942 C1943 1.374 . S
C1943 H1923 0.950 . S
C1943 C1939 1.385 . S
C1943 C1942 1.374 . S
C1944 C1941 1.499 . S
C1944 C1945 1.373 . S
C1944 C1946 1.389 . S
C1945 H1924 0.950 . S
C1945 C1944 1.373 . S
C1945 C1961 1.377 1_455 S
C1946 C1944 1.389 . S
C1946 C1947 1.524 . S
C1946 C1960 1.377 1_455 S
C1947 C1946 1.524 . S
C1947 C1948 1.397 . S
C1947 C1952 1.363 . S
C1948 H1925 0.950 . S
C1948 C1947 1.397 . S
C1948 C1949 1.334 . S
C1949 H1926 0.950 . S
C1949 C1948 1.334 . S
C1949 C1950 1.287 . S
C1950 C1949 1.287 . S
C1950 C1951 1.524 . S
C1950 H1969 0.913 . S
C1951 H1927 0.950 . S
C1951 C1950 1.524 . S
C1951 C1952 1.415 . S
C1952 H1928 0.918 1_455 S
C1952 C1947 1.363 . S
C1952 C1951 1.415 . S
C1953 H1929 0.951 . S
C1953 C1954 1.366 . S
C1953 C1955 1.388 . S
C1954 C1953 1.366 . S
C1954 C1958 1.385 . S
C1955 H1930 0.951 . S
C1955 C1953 1.388 . S
C1955 C1956 1.366 . S
C1956 C1955 1.366 . S
C1956 C1957 1.414 . S
C1956 C1959 1.499 . S
C1957 H1931 0.950 . S
C1957 C1956 1.414 . S
C1957 C1958 1.374 . S
C1958 H1932 0.950 . S
C1958 C1954 1.385 . S
C1958 C1957 1.374 . S
C1959 C1956 1.499 . S
C1959 C1960 1.373 . S
C1959 C1961 1.389 . S
C1960 H1933 0.950 . S
C1960 C1946 1.377 1_655 S
C1960 C1959 1.373 . S
C1961 C1945 1.377 1_655 S
C1961 C1959 1.389 . S
C1961 C1962 1.524 . S
C1962 C1961 1.524 . S
C1962 C1963 1.397 . S
C1962 C1967 1.363 . S
C1963 H1934 0.950 . S
C1963 C1962 1.397 . S
C1963 C1964 1.334 . S
C1964 H1935 0.950 . S
C1964 C1963 1.334 . S
C1964 C1965 1.287 . S
C1965 C1964 1.287 . S
C1965 C1966 1.524 . S
C1965 H1968 0.999 . S
C1966 H1936 0.950 . S
C1966 C1965 1.524 . S
C1966 C1967 1.415 . S
C1967 H1937 0.950 1_655 S
C1967 C1962 1.363 . S
C1967 C1966 1.415 . S
H1968 C1965 0.999 . S
H1969 C1950 0.913 . S
H1970 C1988 0.951 . S
H1971 C1990 0.951 . S
H1972 C1992 0.950 . S
H1973 C1993 0.950 . S
H1974 C1995 0.950 . S
H1975 C1998 0.950 . S
H1976 C1999 0.950 . S
H1977 C2001 0.950 . S
H1978 C2002 0.950 . S
H1979 C2003 0.951 . S
H1980 C2005 0.951 . S
H1981 C2007 0.950 . S
H1982 C2008 0.950 . S
H1983 C2010 0.950 . S
H1984 C2013 0.950 . S
H1985 C2014 0.950 . S
H1986 C2016 0.950 . S
H1987 C2017 0.950 . S
C1988 H1970 0.951 . S
C1988 C1989 1.366 . S
C1988 C1990 1.388 . S
C1989 C1988 1.366 . S
C1989 C1993 1.385 . S
C1990 H1971 0.951 . S
C1990 C1988 1.388 . S
C1990 C1991 1.366 . S
C1991 C1990 1.366 . S
C1991 C1992 1.414 . S
C1991 C1994 1.499 . S
C1992 H1972 0.950 . S
C1992 C1991 1.414 . S
C1992 C1993 1.374 . S
C1993 H1973 0.950 . S
C1993 C1989 1.385 . S
C1993 C1992 1.374 . S
C1994 C1991 1.499 . S
C1994 C1995 1.373 . S
C1994 C1996 1.389 . S
C1995 H1974 0.950 . S
C1995 C1994 1.373 . S
C1995 C2011 1.377 . S
C1996 C1994 1.389 . S
C1996 C1997 1.524 . S
C1996 C2010 1.377 . S
C1997 C1996 1.524 . S
C1997 C1998 1.397 . S
C1997 C2002 1.363 . S
C1998 H1975 0.950 . S
C1998 C1997 1.397 . S
C1998 C1999 1.334 . S
C1999 H1976 0.950 . S
C1999 C1998 1.334 . S
C1999 C2000 1.287 . S
C2000 C1999 1.287 . S
C2000 C2001 1.524 . S
C2000 H2019 0.913 . S
C2001 H1977 0.950 . S
C2001 C2000 1.524 . S
C2001 C2002 1.415 . S
C2002 H1978 0.950 . S
C2002 C1997 1.363 . S
C2002 C2001 1.415 . S
C2003 H1979 0.951 . S
C2003 C2004 1.366 . S
C2003 C2005 1.388 . S
C2004 C2003 1.366 . S
C2004 C2008 1.385 . S
C2005 H1980 0.951 . S
C2005 C2003 1.388 . S
C2005 C2006 1.366 . S
C2006 C2005 1.366 . S
C2006 C2007 1.414 . S
C2006 C2009 1.499 . S
C2007 H1981 0.950 . S
C2007 C2006 1.414 . S
C2007 C2008 1.374 . S
C2008 H1982 0.950 . S
C2008 C2004 1.385 . S
C2008 C2007 1.374 . S
C2009 C2006 1.499 . S
C2009 C2010 1.373 . S
C2009 C2011 1.389 . S
C2010 H1983 0.950 . S
C2010 C1996 1.377 . S
C2010 C2009 1.373 . S
C2011 C1995 1.377 . S
C2011 C2009 1.389 . S
C2011 C2012 1.524 . S
C2012 C2011 1.524 . S
C2012 C2013 1.397 . S
C2012 C2017 1.363 . S
C2013 H1984 0.950 . S
C2013 C2012 1.397 . S
C2013 C2014 1.334 . S
C2014 H1985 0.950 . S
C2014 C2013 1.334 . S
C2014 C2015 1.287 . S
C2015 C2014 1.287 . S
C2015 C2016 1.524 . S
C2015 H2018 0.999 . S
C2016 H1986 0.950 . S
C2016 C2015 1.524 . S
C2016 C2017 1.415 . S
C2017 H1987 0.950 . S
C2017 C2012 1.363 . S
C2017 C2016 1.415 . S
H2018 C2015 0.999 . S
H2019 C2000 0.913 . S
H2020 C2038 0.951 . S
H2021 C2040 0.951 . S
H2022 C2042 0.950 . S
H2023 C2043 0.950 . S
H2024 C2045 0.950 . S
H2025 C2048 0.950 . S
H2026 C2049 0.950 . S
H2027 C2051 0.987 . S
H2028 C2052 1.011 . S
H2029 C2053 0.951 . S
H2030 C2055 0.951 . S
H2031 C2057 0.950 . S
H2032 C2058 0.950 . S
H2033 C2060 0.950 . S
H2034 C2063 0.950 . S
H2035 C2064 0.950 . S
H2036 C2066 0.999 . S
H2037 C2067 1.022 . S
C2038 H2020 0.951 . S
C2038 C2039 1.366 . S
C2038 C2040 1.388 . S
C2039 C2038 1.366 . S
C2039 C2043 1.385 . S
C2040 H2021 0.951 . S
C2040 C2038 1.388 . S
C2040 C2041 1.366 . S
C2041 C2040 1.366 . S
C2041 C2042 1.414 . S
C2041 C2044 1.499 . S
C2042 H2022 0.950 . S
C2042 C2041 1.414 . S
C2042 C2043 1.374 . S
C2043 H2023 0.950 . S
C2043 C2039 1.385 . S
C2043 C2042 1.374 . S
C2044 C2041 1.499 . S
C2044 C2045 1.373 . S
C2044 C2046 1.389 . S
C2045 H2024 0.950 . S
C2045 C2044 1.373 . S
C2045 C2061 1.377 1_545 S
C2046 C2044 1.389 . S
C2046 C2047 1.524 . S
C2046 C2060 1.377 1_545 S
C2047 C2046 1.524 . S
C2047 C2048 1.397 . S
C2047 C2052 1.288 1_545 S
C2048 H2025 0.950 . S
C2048 C2047 1.397 . S
C2048 C2049 1.334 . S
C2049 H2026 0.950 . S
C2049 C2048 1.334 . S
C2049 C2050 1.287 . S
C2050 C2049 1.287 . S
C2050 C2051 1.493 1_545 S
C2050 H2069 0.913 . S
C2051 H2027 0.987 . S
C2051 C2050 1.493 1_565 S
C2051 C2052 1.426 . S
C2052 H2028 1.011 . S
C2052 C2047 1.288 1_565 S
C2052 C2051 1.426 . S
C2053 H2029 0.951 . S
C2053 C2054 1.366 . S
C2053 C2055 1.388 . S
C2054 C2053 1.366 . S
C2054 C2058 1.385 . S
C2055 H2030 0.951 . S
C2055 C2053 1.388 . S
C2055 C2056 1.366 . S
C2056 C2055 1.366 . S
C2056 C2057 1.414 . S
C2056 C2059 1.499 . S
C2057 H2031 0.950 . S
C2057 C2056 1.414 . S
C2057 C2058 1.374 . S
C2058 H2032 0.950 . S
C2058 C2054 1.385 . S
C2058 C2057 1.374 . S
C2059 C2056 1.499 . S
C2059 C2060 1.373 . S
C2059 C2061 1.389 . S
C2060 H2033 0.950 . S
C2060 C2046 1.377 1_565 S
C2060 C2059 1.373 . S
C2061 C2045 1.377 1_565 S
C2061 C2059 1.389 . S
C2061 C2062 1.524 . S
C2062 C2061 1.524 . S
C2062 C2063 1.397 . S
C2062 C2067 1.276 1_565 S
C2063 H2034 0.950 . S
C2063 C2062 1.397 . S
C2063 C2064 1.334 . S
C2064 H2035 0.950 . S
C2064 C2063 1.334 . S
C2064 C2065 1.287 . S
C2065 C2064 1.287 . S
C2065 C2066 1.484 1_565 S
C2065 H2068 0.999 . S
C2066 H2036 0.999 . S
C2066 C2065 1.484 1_545 S
C2066 C2067 1.426 . S
C2067 H2037 1.022 . S
C2067 C2062 1.276 1_545 S
C2067 C2066 1.426 . S
H2068 C2065 0.999 . S
H2069 C2050 0.913 . S
C739 C21 1.516 . S
C754 C221 1.517 . S
C789 C61 1.468 . S
C804 C122 1.465 . S
C839 C82 1.469 . S
C854 C181 1.469 . S
C889 C42 1.476 . S
C904 C162 1.475 . S
C939 C202 1.530 . S
C954 C101 1.522 1_556 S
C989 C2 1.526 . S
C1004 C141 1.519 1_554 S
C1039 C461 1.516 . S
C1054 C261 1.515 . S
C1089 C301 1.467 . S
C1104 C362 1.465 . S
C1139 C322 1.472 . S
C1154 C421 1.471 . S
C1189 C282 1.475 . S
C1204 C402 1.474 . S
C1239 C341 1.520 . S
C1254 C442 1.529 . S
C1289 C242 1.525 . S
C1304 C381 1.518 . S
C1339 C501 1.516 . S
C1354 C701 1.517 . S
C1389 C602 1.467 . S
C1404 C541 1.469 . S
C1439 C661 1.469 . S
C1454 C562 1.470 . S
C1489 C642 1.474 . S
C1504 C522 1.476 . S
C1539 C682 1.529 . S
C1554 C581 1.520 . S
C1589 C621 1.518 . S
C1604 C482 1.526 . S
C1639 C15 1.511 . S
C1654 C415 1.510 . S
C1689 C455 1.509 . S
C1704 C55 1.508 . S
C1739 C375 1.519 . S
C1754 C95 1.519 . S
C1789 C135 1.519 . S
C1804 C575 1.519 . S
C1839 C175 1.511 . S
C1854 C495 1.512 . S
C1889 C535 1.506 . S
C1904 C215 1.507 . S
C1939 C655 1.510 . S
C1954 C255 1.511 . S
C1989 C295 1.508 . S
C2004 C695 1.509 . S
C2039 C335 1.520 . S
C2054 C615 1.520 . S
