# Generated by pormake.
# Topology upd, (4)-cn, num edge types: 1
# Building blocks:
#     Node 0, Type 0, BuildingBlock: ESEHIV_clean_sbu_0, # of connection points: 4
#     Node 1, Type 0, BuildingBlock: ESEHIV_clean_sbu_0, # of connection points: 4
#     Node 2, Type 0, BuildingBlock: ESEHIV_clean_sbu_0, # of connection points: 4
#     Node 3, Type 0, BuildingBlock: ESEHIV_clean_sbu_0, # of connection points: 4
#     Node 4, Type 0, BuildingBlock: ESEHIV_clean_sbu_0, # of connection points: 4
#     Node 5, Type 0, BuildingBlock: ESEHIV_clean_sbu_0, # of connection points: 4
#     Node 6, Type 0, BuildingBlock: ESEHIV_clean_sbu_0, # of connection points: 4
#     Node 7, Type 0, BuildingBlock: ESEHIV_clean_sbu_0, # of connection points: 4
#     Node 8, Type 0, BuildingBlock: ESEHIV_clean_sbu_0, # of connection points: 4
#     Node 9, Type 0, BuildingBlock: ESEHIV_clean_sbu_0, # of connection points: 4
#     Node 10, Type 0, BuildingBlock: ESEHIV_clean_sbu_0, # of connection points: 4
#     Node 11, Type 0, BuildingBlock: ESEHIV_clean_sbu_0, # of connection points: 4
#     Node 12, Type 0, BuildingBlock: ESEHIV_clean_sbu_0, # of connection points: 4
#     Node 13, Type 0, BuildingBlock: ESEHIV_clean_sbu_0, # of connection points: 4
#     Node 14, Type 0, BuildingBlock: ESEHIV_clean_sbu_0, # of connection points: 4
#     Node 15, Type 0, BuildingBlock: ESEHIV_clean_sbu_0, # of connection points: 4
#     Node 16, Type 0, BuildingBlock: ESEHIV_clean_sbu_0, # of connection points: 4
#     Node 17, Type 0, BuildingBlock: ESEHIV_clean_sbu_0, # of connection points: 4
#     Node 18, Type 0, BuildingBlock: ESEHIV_clean_sbu_0, # of connection points: 4
#     Node 19, Type 0, BuildingBlock: ESEHIV_clean_sbu_0, # of connection points: 4
#     Node 20, Type 0, BuildingBlock: ESEHIV_clean_sbu_0, # of connection points: 4
#     Node 21, Type 0, BuildingBlock: ESEHIV_clean_sbu_0, # of connection points: 4
#     Node 22, Type 0, BuildingBlock: ESEHIV_clean_sbu_0, # of connection points: 4
#     Node 23, Type 0, BuildingBlock: ESEHIV_clean_sbu_0, # of connection points: 4
#     Node 24, Type 0, BuildingBlock: ESEHIV_clean_sbu_0, # of connection points: 4
#     Node 25, Type 0, BuildingBlock: ESEHIV_clean_sbu_0, # of connection points: 4
#     Node 26, Type 0, BuildingBlock: ESEHIV_clean_sbu_0, # of connection points: 4
#     Node 27, Type 0, BuildingBlock: ESEHIV_clean_sbu_0, # of connection points: 4
#     Node 28, Type 0, BuildingBlock: ESEHIV_clean_sbu_0, # of connection points: 4
#     Node 29, Type 0, BuildingBlock: ESEHIV_clean_sbu_0, # of connection points: 4
#     Node 30, Type 0, BuildingBlock: ESEHIV_clean_sbu_0, # of connection points: 4
#     Node 31, Type 0, BuildingBlock: ESEHIV_clean_sbu_0, # of connection points: 4
#     Edge 32, Type (0, 0), None
#     Edge 33, Type (0, 0), None
#     Edge 34, Type (0, 0), None
#     Edge 35, Type (0, 0), None
#     Edge 36, Type (0, 0), None
#     Edge 37, Type (0, 0), None
#     Edge 38, Type (0, 0), None
#     Edge 39, Type (0, 0), None
#     Edge 40, Type (0, 0), None
#     Edge 41, Type (0, 0), None
#     Edge 42, Type (0, 0), None
#     Edge 43, Type (0, 0), None
#     Edge 44, Type (0, 0), None
#     Edge 45, Type (0, 0), None
#     Edge 46, Type (0, 0), None
#     Edge 47, Type (0, 0), None
#     Edge 48, Type (0, 0), None
#     Edge 49, Type (0, 0), None
#     Edge 50, Type (0, 0), None
#     Edge 51, Type (0, 0), None
#     Edge 52, Type (0, 0), None
#     Edge 53, Type (0, 0), None
#     Edge 54, Type (0, 0), None
#     Edge 55, Type (0, 0), None
#     Edge 56, Type (0, 0), None
#     Edge 57, Type (0, 0), None
#     Edge 58, Type (0, 0), None
#     Edge 59, Type (0, 0), None
#     Edge 60, Type (0, 0), None
#     Edge 61, Type (0, 0), None
#     Edge 62, Type (0, 0), None
#     Edge 63, Type (0, 0), None
#     Edge 64, Type (0, 0), None
#     Edge 65, Type (0, 0), None
#     Edge 66, Type (0, 0), None
#     Edge 67, Type (0, 0), None
#     Edge 68, Type (0, 0), None
#     Edge 69, Type (0, 0), None
#     Edge 70, Type (0, 0), None
#     Edge 71, Type (0, 0), None
#     Edge 72, Type (0, 0), None
#     Edge 73, Type (0, 0), None
#     Edge 74, Type (0, 0), None
#     Edge 75, Type (0, 0), None
#     Edge 76, Type (0, 0), None
#     Edge 77, Type (0, 0), None
#     Edge 78, Type (0, 0), None
#     Edge 79, Type (0, 0), None
#     Edge 80, Type (0, 0), None
#     Edge 81, Type (0, 0), None
#     Edge 82, Type (0, 0), None
#     Edge 83, Type (0, 0), None
#     Edge 84, Type (0, 0), None
#     Edge 85, Type (0, 0), None
#     Edge 86, Type (0, 0), None
#     Edge 87, Type (0, 0), None
#     Edge 88, Type (0, 0), None
#     Edge 89, Type (0, 0), None
#     Edge 90, Type (0, 0), None
#     Edge 91, Type (0, 0), None
#     Edge 92, Type (0, 0), None
#     Edge 93, Type (0, 0), None
#     Edge 94, Type (0, 0), None
#     Edge 95, Type (0, 0), None
# Relax obj value: 0.092
# Max RMSD: 0.079
# Mean RMSD: 0.078
data_MOF--net-upd--node1-ESEHIV_clean_sbu_0--edge1-none
_symmetry_space_group_name_H-M    P1
_symmetry_Int_Tables_number       1
_symmetry_cell_setting            triclinic
loop_
_symmetry_equiv_pos_as_xyz
'x, y, z'
_cell_length_a     19.50481
_cell_length_b     19.504769
_cell_length_c     39.046347
_cell_angle_alpha  90.000143
_cell_angle_beta   90.000144
_cell_angle_gamma 90.000001
loop_
_atom_site_label
_atom_site_type_symbol
_atom_site_fract_x
_atom_site_fract_y
_atom_site_fract_z
_atom_type_partial_charge
Cu0 Cu 0.11616 0.12323 0.40716 0.0
N1 N 0.15257 0.18989 0.37827 0.0
N2 N 0.23359 0.25357 0.35368 0.0
C3 C 0.21994 0.20498 0.37717 0.0
C4 C 0.17263 0.27089 0.33978 0.0
C5 C 0.12241 0.23149 0.35522 0.0
O6 O 0.14675 0.03092 0.39455 0.0
C7 C 0.14817 0.12766 0.48171 0.0
O8 O 0.13053 0.06323 0.48611 0.0
H9 H 0.25804 0.17953 0.39278 0.0
H10 H 0.06821 0.23223 0.34963 0.0
N11 N 0.02021 0.12519 0.41113 0.0
N12 N 0.92032 0.12752 0.43943 0.0
C13 C 0.98875 0.11966 0.44164 0.0
C14 C 0.96932 0.13556 0.38832 0.0
C15 C 0.90727 0.13722 0.40582 0.0
C16 C 0.1578 0.99936 0.36626 0.0
O17 O 0.1783 0.93581 0.3683 0.0
H18 H 1.0158 0.11319 0.46549 0.0
H19 H 0.97678 0.14347 0.36116 0.0
O20 O 0.14973 0.15341 0.45168 0.0
H21 H 0.16485 0.30858 0.31983 0.0
H22 H 0.85728 0.14761 0.39492 0.0
Cu23 Cu 0.15968 0.86617 0.65716 0.0
N24 N 0.09302 0.90259 0.62828 0.0
N25 N 0.02935 0.98361 0.60369 0.0
C26 C 0.07796 0.96996 0.62716 0.0
C27 C 1.01197 0.92265 0.5898 0.0
C28 C 0.05137 0.87243 0.60525 0.0
O29 O 0.252 0.89673 0.64455 0.0
C30 C 0.15527 0.89818 0.73171 0.0
O31 O 0.2197 0.88053 0.73611 0.0
H32 H 0.10345 1.00807 0.64275 0.0
H33 H 0.05059 0.81822 0.59968 0.0
N34 N 0.15771 0.77022 0.66114 0.0
N35 N 0.1554 0.67032 0.68943 0.0
C36 C 0.16328 0.73875 0.69163 0.0
C37 C 0.1473 0.71933 0.63833 0.0
C38 C 0.14565 0.65728 0.65582 0.0
C39 C 0.28356 0.90776 0.61626 0.0
O40 O 0.34713 0.92821 0.6183 0.0
H41 H 0.16979 0.7658 0.71548 0.0
H42 H 0.13936 0.7268 0.61117 0.0
O43 O 0.12951 0.89974 0.70168 0.0
H44 H 0.97425 0.91487 0.56988 0.0
H45 H 0.13524 0.6073 0.64492 0.0
Cu46 Cu 0.41677 0.90969 0.90716 0.0
N47 N 0.38035 0.84303 0.87827 0.0
N48 N 0.29934 0.77936 0.85368 0.0
C49 C 0.31299 0.82795 0.87717 0.0
C50 C 0.36029 0.76203 0.83978 0.0
C51 C 0.41051 0.80143 0.85523 0.0
O52 O 0.38618 1.00201 0.89455 0.0
C53 C 0.38476 0.90527 0.98171 0.0
O54 O 0.4024 0.9697 0.98611 0.0
H55 H 0.27489 0.8534 0.89277 0.0
H56 H 0.46472 0.80069 0.84963 0.0
N57 N 0.51272 0.90774 0.91113 0.0
N58 N 0.61261 0.9054 0.93943 0.0
C59 C 0.54418 0.91326 0.94164 0.0
C60 C 0.56361 0.89736 0.88832 0.0
C61 C 0.62566 0.89571 0.90582 0.0
C62 C 0.37513 0.03357 0.86626 0.0
O63 O 0.35463 0.09712 0.8683 0.0
H64 H 0.51712 0.91974 0.96549 0.0
H65 H 0.55614 0.88946 0.86116 0.0
O66 O 0.3832 0.87952 0.95168 0.0
H67 H 0.36807 0.72434 0.81984 0.0
H68 H 0.67565 0.88532 0.89492 0.0
Cu69 Cu 0.37324 0.16676 0.15716 0.0
N70 N 0.43991 0.13033 0.12828 0.0
N71 N 0.50358 0.04931 0.10369 0.0
C72 C 0.45496 0.06296 0.12716 0.0
C73 C 0.52095 0.11028 1.0898 0.0
C74 C 0.48155 0.1605 0.10525 0.0
O75 O 0.28092 0.13619 0.14455 0.0
C76 C 0.37765 0.13474 0.23171 0.0
O77 O 0.31322 0.1524 0.23611 0.0
H78 H 0.42948 0.02486 0.14275 0.0
H79 H 0.48233 0.21471 0.09967 0.0
N80 N 0.37521 0.26271 0.16114 0.0
N81 N 0.37752 0.36261 0.18943 0.0
C82 C 0.36965 0.29417 0.19163 0.0
C83 C 0.38563 0.31359 0.13833 0.0
C84 C 0.38727 0.37565 0.15582 0.0
C85 C 0.24936 0.12516 0.11626 0.0
O86 O 0.18579 0.1047 0.1183 0.0
H87 H 0.36314 0.26712 0.21548 0.0
H88 H 0.39356 0.30612 0.11117 0.0
O89 O 0.40341 0.13318 0.20168 0.0
H90 H 0.55867 0.11806 1.06988 0.0
H91 H 0.39768 0.42563 0.14492 0.0
Cu92 Cu 0.11615 0.90969 0.2914 0.0
N93 N 0.15257 0.84304 0.32028 0.0
N94 N 0.23359 0.77936 0.34487 0.0
C95 C 0.21993 0.82794 0.32138 0.0
C96 C 0.17264 0.76204 0.35878 0.0
C97 C 0.12241 0.80145 0.34333 0.0
O98 O 0.14674 1.00201 0.304 0.0
C99 C 0.14816 0.90527 0.21685 0.0
O100 O 0.13052 0.9697 0.21245 0.0
H101 H 0.25803 0.85338 0.30577 0.0
H102 H 0.06821 0.80071 0.34893 0.0
N103 N 0.0202 0.90773 0.28742 0.0
N104 N 0.92031 0.9054 0.25912 0.0
C105 C 0.98875 0.91326 0.25691 0.0
C106 C 0.96931 0.89735 0.31023 0.0
C107 C 0.90726 0.8957 0.29272 0.0
C108 C 0.15781 0.03356 0.33229 0.0
O109 O 0.17826 0.09714 0.33025 0.0
H110 H 1.0158 0.91974 0.23306 0.0
H111 H 0.97678 0.88945 0.33739 0.0
O112 O 0.14972 0.87952 0.24687 0.0
H113 H 0.16486 0.72436 0.37873 0.0
H114 H 0.85727 0.88531 0.30363 0.0
Cu115 Cu 0.37325 0.86616 0.54139 0.0
N116 N 0.4399 0.90259 0.57027 0.0
N117 N 0.50358 0.98361 0.59486 0.0
C118 C 0.45497 0.96996 0.57139 0.0
C119 C 0.52094 0.92265 0.60875 0.0
C120 C 0.48154 0.87243 0.59331 0.0
O121 O 0.28093 0.89672 0.554 0.0
C122 C 0.37765 0.89818 0.46684 0.0
O123 O 0.31322 0.88052 0.46245 0.0
H124 H 0.42949 1.00806 0.55579 0.0
H125 H 0.48232 0.81822 0.59889 0.0
N126 N 0.37522 0.77021 0.53741 0.0
N127 N 0.37753 0.67032 0.50912 0.0
C128 C 0.36965 0.73875 0.50692 0.0
C129 C 0.38564 0.71933 0.56022 0.0
C130 C 0.38728 0.65727 0.54272 0.0
C131 C 0.24937 0.90777 0.58229 0.0
O132 O 0.18578 0.92817 0.58025 0.0
H133 H 0.36314 0.7658 0.48307 0.0
H134 H 0.39358 0.7268 0.58738 0.0
O135 O 0.40341 0.89974 0.49687 0.0
H136 H 0.55866 0.91487 0.62868 0.0
H137 H 0.3977 0.60729 0.55362 0.0
Cu138 Cu 0.41677 0.12324 0.7914 0.0
N139 N 0.38035 0.18989 0.82028 0.0
N140 N 0.29934 0.25357 0.84487 0.0
C141 C 0.31299 0.20498 0.82138 0.0
C142 C 0.36029 0.27089 0.85878 0.0
C143 C 0.41051 0.23148 0.84333 0.0
O144 O 0.38619 0.03092 0.804 0.0
C145 C 0.38476 0.12766 0.71685 0.0
O146 O 0.40241 0.06323 0.71245 0.0
H147 H 0.2749 0.17954 0.80577 0.0
H148 H 0.46472 0.23222 0.84893 0.0
N149 N 0.51272 0.1252 0.78742 0.0
N150 N 0.61261 0.12753 0.75912 0.0
C151 C 0.54418 0.11967 0.75691 0.0
C152 C 0.56361 0.13558 0.81023 0.0
C153 C 0.62567 0.13723 0.79272 0.0
C154 C 0.37512 0.99937 0.83229 0.0
O155 O 0.35468 0.93579 0.83025 0.0
H156 H 0.51713 0.11319 0.73306 0.0
H157 H 0.55615 0.14349 0.83739 0.0
O158 O 0.3832 0.15341 0.74687 0.0
H159 H 0.36807 0.30857 0.87873 0.0
H160 H 0.67565 0.14763 0.80362 0.0
Cu161 Cu 0.15968 0.16676 1.04139 0.0
N162 N 0.09302 0.13033 1.07027 0.0
N163 N 0.02935 0.04932 1.09486 0.0
C164 C 0.07796 0.06297 1.07139 0.0
C165 C 1.01199 0.11027 0.10875 0.0
C166 C 0.05139 0.1605 1.09331 0.0
O167 O 0.252 0.1362 1.054 0.0
C168 C 0.15528 0.13475 0.96684 0.0
O169 O 0.2197 0.15241 0.96245 0.0
H170 H 0.10343 0.02487 1.05579 0.0
H171 H 0.05061 0.21471 1.09889 0.0
N172 N 0.15771 0.26271 1.03741 0.0
N173 N 0.1554 0.36261 1.00912 0.0
C174 C 0.16327 0.29418 1.00692 0.0
C175 C 0.14729 0.3136 1.06022 0.0
C176 C 0.14565 0.37565 1.04272 0.0
C177 C 0.28356 0.12516 1.08229 0.0
O178 O 0.34715 0.10475 1.08025 0.0
H179 H 0.16979 0.26713 0.98307 0.0
H180 H 0.13935 0.30613 1.08738 0.0
O181 O 0.12951 0.13319 0.99687 0.0
H182 H 0.97427 0.11805 0.12868 0.0
H183 H 0.13523 0.42564 1.05362 0.0
Cu184 Cu 0.91644 0.90962 0.7913 0.0
N185 N 0.87996 0.84297 0.82017 0.0
N186 N 0.79893 0.77934 0.84477 0.0
C187 C 0.81257 0.82803 0.82134 0.0
C188 C 0.85992 0.76181 0.85858 0.0
C189 C 0.91015 0.80118 0.84312 0.0
O190 O 0.88617 1.002 0.80399 0.0
C191 C 0.8844 0.90549 0.71677 0.0
O192 O 0.90246 0.96983 0.71242 0.0
H193 H 0.77445 0.85363 0.80581 0.0
H194 H 0.96439 0.80026 0.84863 0.0
N195 N 1.01238 0.9074 0.78728 0.0
N196 N 0.11228 0.90492 0.75901 0.0
C197 C 0.04383 0.91253 0.75676 0.0
C198 C 0.06328 0.89752 0.81014 0.0
C199 C 0.12536 0.89579 0.79266 0.0
C200 C 0.87531 0.03357 0.83229 0.0
O201 O 0.85514 0.09724 0.83028 0.0
H202 H 0.01679 0.91863 0.73289 0.0
H203 H 0.05583 0.89011 0.83734 0.0
O204 O 0.88263 0.87968 0.74678 0.0
H205 H 0.86772 0.72396 0.87845 0.0
H206 H 0.17539 0.88585 0.80361 0.0
Cu207 Cu 0.87333 0.16643 0.5413 0.0
N208 N 0.93998 0.12994 0.57016 0.0
N209 N 1.00356 0.0489 0.59479 0.0
C210 C 0.95486 0.06254 0.57135 0.0
C211 C 0.02116 0.10989 0.60856 0.0
C212 C 0.98182 0.16013 0.59309 0.0
O213 O 0.78094 0.1362 0.55399 0.0
C214 C 0.87743 0.13439 0.46677 0.0
O215 O 0.81311 0.1525 0.46242 0.0
H216 H 0.92922 0.02441 0.55584 0.0
H217 H 0.9828 0.21438 0.59857 0.0
N218 N 0.87556 0.26237 0.53728 0.0
N219 N 0.87793 0.3623 0.50902 0.0
C220 C 0.87032 0.29384 0.50677 0.0
C221 C 0.88555 0.31327 0.56013 0.0
C222 C 0.88724 0.37534 0.54265 0.0
C223 C 0.74936 0.12537 0.58229 0.0
O224 O 0.68568 0.10526 0.58028 0.0
H225 H 0.86413 0.26681 0.48289 0.0
H226 H 0.89309 0.3058 0.58732 0.0
O227 O 0.90325 0.1326 0.49677 0.0
H228 H 0.05905 0.1177 0.62841 0.0
H229 H 0.89729 0.42536 0.5536 0.0
Cu230 Cu 0.61649 0.12331 0.2913 0.0
N231 N 0.65296 0.18996 0.32017 0.0
N232 N 0.73399 0.25359 0.34477 0.0
C233 C 0.72036 0.20489 0.32134 0.0
C234 C 0.67301 0.27112 0.35858 0.0
C235 C 0.62277 0.23175 0.34312 0.0
O236 O 0.64675 0.03093 0.30399 0.0
C237 C 0.64852 0.12743 0.21677 0.0
O238 O 0.63047 0.0631 0.21242 0.0
H239 H 0.75847 0.17929 0.30581 0.0
H240 H 0.56853 0.23267 0.34863 0.0
N241 N 0.52055 0.12553 0.28728 0.0
N242 N 0.42064 0.12801 0.25901 0.0
C243 C 0.48909 0.1204 0.25676 0.0
C244 C 0.46964 0.13541 0.31014 0.0
C245 C 0.40757 0.13714 0.29266 0.0
C246 C 0.65761 0.99935 0.33229 0.0
O247 O 0.67778 0.93569 0.33028 0.0
H248 H 0.51613 0.11429 0.23289 0.0
H249 H 0.4771 0.14282 0.33734 0.0
O250 O 0.6503 0.15324 0.24678 0.0
H251 H 0.6652 0.30897 0.37844 0.0
H252 H 0.35754 0.14708 0.30361 0.0
Cu253 Cu 0.65959 0.8665 1.0413 0.0
N254 N 0.59295 0.90299 1.07016 0.0
N255 N 0.52936 0.98403 1.09479 0.0
C256 C 0.57806 0.97039 1.07135 0.0
C257 C 0.51176 0.92304 0.10856 0.0
C258 C 0.55111 0.8728 1.09309 0.0
O259 O 0.75199 0.89673 1.05399 0.0
C260 C 0.6555 0.89854 0.96677 0.0
O261 O 0.71982 0.88043 0.96242 0.0
H262 H 0.6037 1.00851 1.05584 0.0
H263 H 0.55013 0.81855 1.09858 0.0
N264 N 0.65737 0.77056 1.03728 0.0
N265 N 0.655 0.67063 1.00902 0.0
C266 C 0.66261 0.73909 1.00677 0.0
C267 C 0.64738 0.71966 1.06013 0.0
C268 C 0.64569 0.65759 1.04265 0.0
C269 C 0.78357 0.90756 1.08229 0.0
O270 O 0.84725 0.92768 1.08028 0.0
H271 H 0.6688 0.76612 0.98289 0.0
H272 H 0.63984 0.72713 1.08732 0.0
O273 O 0.62968 0.90033 0.99677 0.0
H274 H 0.47388 0.91523 0.12841 0.0
H275 H 0.63564 0.60757 1.0536 0.0
Cu276 Cu 0.91644 0.12331 0.90725 0.0
N277 N 0.87996 0.18996 0.87838 0.0
N278 N 0.79893 0.25358 0.85377 0.0
C279 C 0.81257 0.2049 0.87721 0.0
C280 C 0.85992 0.27111 0.83996 0.0
C281 C 0.91015 0.23174 0.85542 0.0
O282 O 0.88619 0.03092 0.89457 0.0
C283 C 0.88441 0.12743 0.98178 0.0
O284 O 0.90246 0.0631 0.98613 0.0
H285 H 0.77446 0.17931 0.89275 0.0
H286 H 0.96439 0.23265 0.84991 0.0
N287 N 1.01238 0.12554 0.91127 0.0
N288 N 0.11229 0.12801 0.93954 0.0
C289 C 0.04383 0.12041 0.94179 0.0
C290 C 0.06329 0.13542 0.88841 0.0
C291 C 0.12536 0.13715 0.9059 0.0
C292 C 0.8753 0.99936 0.86626 0.0
O293 O 0.85518 0.93568 0.86827 0.0
H294 H 0.01679 0.11429 0.96566 0.0
H295 H 0.05584 0.14283 0.86122 0.0
O296 O 0.88263 0.15325 0.95177 0.0
H297 H 0.86772 0.30895 0.82009 0.0
H298 H 0.17539 0.14709 0.89494 0.0
Cu299 Cu 0.65959 0.16644 0.65725 0.0
N300 N 0.59295 0.12994 0.62838 0.0
N301 N 0.52937 0.0489 0.60376 0.0
C302 C 0.57806 0.06254 0.6272 0.0
C303 C 0.51177 0.10989 0.58998 0.0
C304 C 0.55112 0.16013 0.60545 0.0
O305 O 0.75199 0.13622 0.64457 0.0
C306 C 0.6555 0.13439 0.73178 0.0
O307 O 0.71982 0.15251 0.73613 0.0
H308 H 0.60369 0.02442 0.64271 0.0
H309 H 0.55014 0.21438 0.59996 0.0
N310 N 0.65736 0.26238 0.66127 0.0
N311 N 0.65499 0.3623 0.68953 0.0
C312 C 0.66261 0.29385 0.69178 0.0
C313 C 0.64736 0.31327 0.63842 0.0
C314 C 0.64568 0.37535 0.6559 0.0
C315 C 0.78356 0.12536 0.61626 0.0
O316 O 0.84726 0.1053 0.61827 0.0
H317 H 0.6688 0.26681 0.71565 0.0
H318 H 0.63982 0.3058 0.61123 0.0
O319 O 0.62968 0.1326 0.70177 0.0
H320 H 0.47389 0.11769 0.57013 0.0
H321 H 0.63563 0.42536 0.64496 0.0
Cu322 Cu 0.61648 0.90962 0.40725 0.0
N323 N 0.65296 0.84297 0.37838 0.0
N324 N 0.73399 0.77934 0.35377 0.0
C325 C 0.72035 0.82803 0.37721 0.0
C326 C 0.67301 0.76182 0.33996 0.0
C327 C 0.62278 0.80119 0.35542 0.0
O328 O 0.64673 1.002 0.39457 0.0
C329 C 0.64852 0.9055 0.48178 0.0
O330 O 0.63046 0.96983 0.48613 0.0
H331 H 0.75847 0.85362 0.39275 0.0
H332 H 0.56854 0.80027 0.34991 0.0
N333 N 0.52054 0.90739 0.41127 0.0
N334 N 0.42064 0.90491 0.43954 0.0
C335 C 0.48909 0.91252 0.44179 0.0
C336 C 0.46963 0.89751 0.38841 0.0
C337 C 0.40756 0.89578 0.4059 0.0
C338 C 0.65762 0.03357 0.36626 0.0
O339 O 0.67774 0.09725 0.36827 0.0
H340 H 0.51613 0.91863 0.46566 0.0
H341 H 0.47709 0.89009 0.36122 0.0
O342 O 0.65029 0.87968 0.45177 0.0
H343 H 0.66521 0.72397 0.3201 0.0
H344 H 0.35753 0.88583 0.39494 0.0
Cu345 Cu 0.87333 0.86649 0.15725 0.0
N346 N 0.93997 0.90299 0.12838 0.0
N347 N 1.00356 0.98403 0.10376 0.0
C348 C 0.95487 0.97039 0.1272 0.0
C349 C 0.02115 0.92304 1.08998 0.0
C350 C 0.9818 0.8728 0.10545 0.0
O351 O 0.78094 0.89671 0.14457 0.0
C352 C 0.87742 0.89854 0.23178 0.0
O353 O 0.81311 0.88043 0.23613 0.0
H354 H 0.92924 1.00851 0.14271 0.0
H355 H 0.98277 0.81855 0.09996 0.0
N356 N 0.87557 0.77055 0.16127 0.0
N357 N 0.87793 0.67063 0.18953 0.0
C358 C 0.87032 0.73908 0.19178 0.0
C359 C 0.88556 0.71966 0.13842 0.0
C360 C 0.88724 0.65758 0.1559 0.0
C361 C 0.74936 0.90757 0.11626 0.0
O362 O 0.68567 0.92763 0.11827 0.0
H363 H 0.86413 0.76612 0.21565 0.0
H364 H 0.8931 0.72713 0.11123 0.0
O365 O 0.90325 0.90033 0.20177 0.0
H366 H 0.05903 0.91524 1.07013 0.0
H367 H 0.8973 0.60757 0.14496 0.0
Cu368 Cu 0.61619 0.62327 0.90716 0.0
N369 N 0.65263 0.68992 0.87828 0.0
N370 N 0.73365 0.75355 0.85367 0.0
C371 C 0.72 0.70495 0.87716 0.0
C372 C 0.67269 0.77094 0.8398 0.0
C373 C 0.62246 0.73156 0.85525 0.0
O374 O 0.64672 0.53094 0.89455 0.0
C375 C 0.6482 0.62765 0.98171 0.0
O376 O 0.63046 0.56325 0.98611 0.0
H377 H 0.7581 0.67947 0.89274 0.0
H378 H 0.56825 0.73236 0.84968 0.0
N379 N 0.52024 0.62526 0.91115 0.0
N380 N 0.42034 0.62756 0.93943 0.0
C381 C 0.48878 0.61971 0.94165 0.0
C382 C 0.46936 0.63564 0.88833 0.0
C383 C 0.4073 0.63728 0.90583 0.0
C384 C 0.65773 0.49937 0.86626 0.0
O385 O 0.67816 0.43579 0.8683 0.0
H386 H 0.51582 0.61323 0.9655 0.0
H387 H 0.47683 0.64355 0.86118 0.0
O388 O 0.64981 0.65341 0.95169 0.0
H389 H 0.6649 0.80866 0.81987 0.0
H390 H 0.35731 0.64766 0.89493 0.0
Cu391 Cu 0.65968 0.36618 0.15716 0.0
N392 N 0.59303 0.4026 0.12827 0.0
N393 N 0.52935 0.48361 0.10369 0.0
C394 C 0.57794 0.46996 0.12717 0.0
C395 C 0.51203 0.42266 1.08978 0.0
C396 C 0.55143 0.37244 0.10522 0.0
O397 O 0.752 0.39675 0.14455 0.0
C398 C 0.65526 0.39818 0.23171 0.0
O399 O 0.71968 0.3805 0.23611 0.0
H400 H 0.60339 0.50806 0.14278 0.0
H401 H 0.55069 0.31823 0.09963 0.0
N402 N 0.6577 0.27023 0.16114 0.0
N403 N 0.65529 0.17035 0.18944 0.0
C404 C 0.66313 0.23878 0.19165 0.0
C405 C 0.64743 0.21933 0.13832 0.0
C406 C 0.64574 0.15728 0.15582 0.0
C407 C 0.78356 0.40779 0.11626 0.0
O408 O 0.84712 0.42828 0.1183 0.0
H409 H 0.66955 0.26583 0.2155 0.0
H410 H 0.63964 0.22679 0.11115 0.0
O411 O 0.62951 0.39977 0.20168 0.0
H412 H 0.47435 0.41488 1.06983 0.0
H413 H 0.63546 0.10728 0.14491 0.0
Cu414 Cu 0.91673 0.40966 0.40716 0.0
N415 N 0.8803 0.34301 0.37828 0.0
N416 N 0.79927 0.27938 0.35367 0.0
C417 C 0.81293 0.32798 0.37716 0.0
C418 C 0.86024 0.26199 0.3398 0.0
C419 C 0.91047 0.30136 0.35526 0.0
O420 O 0.8862 0.50199 0.39455 0.0
C421 C 0.88473 0.40527 0.48171 0.0
O422 O 0.90247 0.46968 0.48611 0.0
H423 H 0.77482 0.35346 0.39274 0.0
H424 H 0.96468 0.30056 0.34969 0.0
N425 N 1.01269 0.40767 0.41115 0.0
N426 N 0.11259 0.40537 0.43943 0.0
C427 C 0.04415 0.41321 0.44165 0.0
C428 C 0.06357 0.39729 0.38833 0.0
C429 C 0.12563 0.39565 0.40583 0.0
C430 C 0.8752 0.53356 0.36626 0.0
O431 O 0.85477 0.59714 0.3683 0.0
H432 H 0.01711 0.4197 0.4655 0.0
H433 H 0.0561 0.38938 0.36118 0.0
O434 O 0.88312 0.37951 0.45169 0.0
H435 H 0.86802 0.22426 0.31987 0.0
H436 H 0.17561 0.38527 0.39493 0.0
Cu437 Cu 0.87324 0.66675 0.65716 0.0
N438 N 0.93989 0.63033 0.62827 0.0
N439 N 1.00357 0.54931 0.60369 0.0
C440 C 0.95498 0.56296 0.62717 0.0
C441 C 0.02089 0.61027 0.58977 0.0
C442 C 0.98149 0.66049 0.60522 0.0
O443 O 0.78092 0.63617 0.64455 0.0
C444 C 0.87766 0.63475 0.73171 0.0
O445 O 0.81324 0.65242 0.73611 0.0
H446 H 0.92954 0.52487 0.64278 0.0
H447 H 0.98223 0.71469 0.59963 0.0
N448 N 0.87522 0.7627 0.66114 0.0
N449 N 0.87764 0.86258 0.68944 0.0
C450 C 0.86979 0.79415 0.69165 0.0
C451 C 0.88549 0.81359 0.63832 0.0
C452 C 0.88718 0.87565 0.65582 0.0
C453 C 0.74936 0.62513 0.61626 0.0
O454 O 0.6858 0.60464 0.6183 0.0
H455 H 0.86338 0.76709 0.7155 0.0
H456 H 0.89328 0.80614 0.61115 0.0
O457 O 0.90341 0.63316 0.70168 0.0
H458 H 0.05857 0.61804 0.56983 0.0
H459 H 0.89746 0.92565 0.64491 0.0
Cu460 Cu 0.61619 0.40966 0.79139 0.0
N461 N 0.65262 0.34302 0.82027 0.0
N462 N 0.73365 0.27938 0.84488 0.0
C463 C 0.72 0.32797 0.82139 0.0
C464 C 0.67269 0.262 0.85876 0.0
C465 C 0.62246 0.30138 0.8433 0.0
O466 O 0.64671 0.50199 0.804 0.0
C467 C 0.6482 0.40528 0.71684 0.0
O468 O 0.63045 0.46968 0.71244 0.0
H469 H 0.7581 0.35345 0.8058 0.0
H470 H 0.56825 0.30058 0.84888 0.0
N471 N 0.52024 0.40766 0.7874 0.0
N472 N 0.42034 0.40536 0.75911 0.0
C473 C 0.48877 0.41321 0.7569 0.0
C474 C 0.46935 0.39728 0.81022 0.0
C475 C 0.40729 0.39564 0.79272 0.0
C476 C 0.65774 0.53356 0.83229 0.0
O477 O 0.67812 0.59715 0.83025 0.0
H478 H 0.51582 0.4197 0.73305 0.0
H479 H 0.47682 0.38937 0.83737 0.0
O480 O 0.6498 0.37951 0.74686 0.0
H481 H 0.66491 0.22428 0.87869 0.0
H482 H 0.35731 0.38526 0.80362 0.0
Cu483 Cu 0.87324 0.36618 1.04139 0.0
N484 N 0.93989 0.4026 1.07028 0.0
N485 N 1.00357 0.48361 1.09487 0.0
C486 C 0.95499 0.46996 1.07138 0.0
C487 C 0.02088 0.42266 0.10878 0.0
C488 C 0.98148 0.37244 1.09334 0.0
O489 O 0.78092 0.39674 1.054 0.0
C490 C 0.87766 0.39817 0.96685 0.0
O491 O 0.81324 0.3805 0.96245 0.0
H492 H 0.92955 0.50805 1.05577 0.0
H493 H 0.98221 0.31824 1.09894 0.0
N494 N 0.87523 0.27023 1.03741 0.0
N495 N 0.87764 0.17034 1.00911 0.0
C496 C 0.86979 0.23878 1.0069 0.0
C497 C 0.88551 0.21933 1.06023 0.0
C498 C 0.88719 0.15727 1.04273 0.0
C499 C 0.74937 0.4078 1.08229 0.0
O500 O 0.68579 0.42823 1.08025 0.0
H501 H 0.86338 0.26583 0.98305 0.0
H502 H 0.8933 0.22678 1.0874 0.0
O503 O 0.90341 0.39976 0.99687 0.0
H504 H 0.05856 0.41489 0.12873 0.0
H505 H 0.89748 0.10727 1.05364 0.0
Cu506 Cu 0.91674 0.62327 0.29139 0.0
N507 N 0.8803 0.68991 0.32027 0.0
N508 N 0.79928 0.75355 0.34488 0.0
C509 C 0.81293 0.70496 0.32139 0.0
C510 C 0.86024 0.77093 0.35876 0.0
C511 C 0.91047 0.73155 0.3433 0.0
O512 O 0.88622 0.53094 0.304 0.0
C513 C 0.88473 0.62765 0.21684 0.0
O514 O 0.90247 0.56325 0.21244 0.0
H515 H 0.77483 0.67948 0.3058 0.0
H516 H 0.96468 0.73235 0.34888 0.0
N517 N 1.01269 0.62527 0.2874 0.0
N518 N 0.11259 0.62757 0.25911 0.0
C519 C 0.04415 0.61972 0.2569 0.0
C520 C 0.06358 0.63565 0.31022 0.0
C521 C 0.12563 0.63729 0.29272 0.0
C522 C 0.87519 0.49937 0.33228 0.0
O523 O 0.85482 0.43578 0.33025 0.0
H524 H 0.01711 0.61323 0.23305 0.0
H525 H 0.05611 0.64356 0.33737 0.0
O526 O 0.88312 0.65342 0.24686 0.0
H527 H 0.86802 0.80865 0.37869 0.0
H528 H 0.17562 0.64767 0.30362 0.0
Cu529 Cu 0.65968 0.66675 0.54139 0.0
N530 N 0.59303 0.63033 0.57028 0.0
N531 N 0.52936 0.54931 0.59487 0.0
C532 C 0.57794 0.56297 0.57138 0.0
C533 C 0.51205 0.61026 0.60878 0.0
C534 C 0.55145 0.66049 0.59334 0.0
O535 O 0.752 0.63619 0.554 0.0
C536 C 0.65526 0.63475 0.46685 0.0
O537 O 0.71968 0.65243 0.46245 0.0
H538 H 0.60337 0.52487 0.55576 0.0
H539 H 0.55072 0.71469 0.59894 0.0
N540 N 0.65769 0.7627 0.53741 0.0
N541 N 0.65528 0.86258 0.50911 0.0
C542 C 0.66313 0.79415 0.5069 0.0
C543 C 0.64742 0.8136 0.56023 0.0
C544 C 0.64574 0.87565 0.54273 0.0
C545 C 0.78356 0.62513 0.58229 0.0
O546 O 0.84714 0.60469 0.58025 0.0
H547 H 0.66955 0.76709 0.48305 0.0
H548 H 0.63963 0.80615 0.5874 0.0
O549 O 0.62951 0.63316 0.49687 0.0
H550 H 0.47437 0.61804 0.62873 0.0
H551 H 0.63545 0.92565 0.55364 0.0
Cu552 Cu 0.4164 0.40959 0.29129 0.0
N553 N 0.37991 0.34295 0.32016 0.0
N554 N 0.29887 0.27936 0.34478 0.0
C555 C 0.31251 0.32806 0.32135 0.0
C556 C 0.35986 0.26177 0.35856 0.0
C557 C 0.4101 0.30111 0.34309 0.0
O558 O 0.3862 0.50198 0.30398 0.0
C559 C 0.38437 0.4055 0.21676 0.0
O560 O 0.40252 0.4698 0.21242 0.0
H561 H 0.27439 0.3537 0.30584 0.0
H562 H 0.46435 0.30014 0.34857 0.0
N563 N 0.51234 0.40733 0.28727 0.0
N564 N 0.61226 0.40489 0.25901 0.0
C565 C 0.54381 0.41248 0.25675 0.0
C566 C 0.56325 0.39745 0.31013 0.0
C567 C 0.62532 0.39574 0.29265 0.0
C568 C 0.37537 0.53357 0.33229 0.0
O569 O 0.35527 0.59725 0.33028 0.0
H570 H 0.51677 0.41859 0.23288 0.0
H571 H 0.55578 0.39004 0.33732 0.0
O572 O 0.38255 0.37968 0.24677 0.0
H573 H 0.36767 0.22388 0.37841 0.0
H574 H 0.67535 0.38581 0.30361 0.0
Cu575 Cu 0.37333 0.66642 1.0413 0.0
N576 N 0.43997 0.62993 1.07017 0.0
N577 N 0.50355 0.5489 1.09479 0.0
C578 C 0.45488 0.56254 1.07134 0.0
C579 C 0.52111 0.60988 0.10859 0.0
C580 C 0.48176 0.66012 1.09312 0.0
O581 O 0.28094 0.63619 1.05399 0.0
C582 C 0.37744 0.63439 0.96677 0.0
O583 O 0.31313 0.65253 0.96242 0.0
H584 H 0.42928 0.52442 1.05581 0.0
H585 H 0.48269 0.71436 1.09862 0.0
N586 N 0.37557 0.76236 1.03727 0.0
N587 N 0.37804 0.86227 1.00901 0.0
C588 C 0.37046 0.79382 1.00676 0.0
C589 C 0.38542 0.81327 1.06013 0.0
C590 C 0.38714 0.87534 1.04265 0.0
C591 C 0.24936 0.62534 1.08229 0.0
O592 O 0.18569 0.6052 1.08028 0.0
H593 H 0.36437 0.76678 0.98288 0.0
H594 H 0.39281 0.80581 1.08733 0.0
O595 O 0.40325 0.63258 0.99678 0.0
H596 H 0.55895 0.61768 0.12845 0.0
H597 H 0.39706 0.92538 1.05361 0.0
Cu598 Cu 0.11652 0.62334 0.79129 0.0
N599 N 0.15302 0.68998 0.82016 0.0
N600 N 0.23406 0.75356 0.84478 0.0
C601 C 0.22042 0.70487 0.82135 0.0
C602 C 0.17306 0.77116 0.85856 0.0
C603 C 0.12282 0.73182 0.84309 0.0
O604 O 0.14672 0.53094 0.80399 0.0
C605 C 0.14855 0.62743 0.71676 0.0
O606 O 0.1304 0.56312 0.71242 0.0
H607 H 0.25854 0.67923 0.80584 0.0
H608 H 0.06857 0.73279 0.84857 0.0
N609 N 0.02058 0.6256 0.78727 0.0
N610 N 0.92066 0.62804 0.75901 0.0
C611 C 0.98912 0.62045 0.75675 0.0
C612 C 0.96968 0.63548 0.81013 0.0
C613 C 0.9076 0.63719 0.79265 0.0
C614 C 0.15755 0.49936 0.83229 0.0
O615 O 0.17765 0.43568 0.83028 0.0
H616 H 1.01615 0.61434 0.73288 0.0
H617 H 0.97714 0.64289 0.83732 0.0
O618 O 0.15037 0.65325 0.74677 0.0
H619 H 0.16525 0.80905 0.87841 0.0
H620 H 0.85757 0.64712 0.80361 0.0
Cu621 Cu 0.1596 0.36651 0.5413 0.0
N622 N 0.09296 0.40299 0.57017 0.0
N623 N 0.02937 0.48403 0.59479 0.0
C624 C 0.07804 0.47039 0.57134 0.0
C625 C 1.01182 0.42304 0.60859 0.0
C626 C 0.05117 0.37281 0.59312 0.0
O627 O 0.25199 0.39674 0.55399 0.0
C628 C 0.15549 0.39854 0.46677 0.0
O629 O 0.2198 0.3804 0.46242 0.0
H630 H 0.10364 0.50851 0.55581 0.0
H631 H 0.05024 0.31857 0.59862 0.0
N632 N 0.15735 0.27057 0.53727 0.0
N633 N 0.15489 0.17066 0.50901 0.0
C634 C 0.16247 0.23911 0.50676 0.0
C635 C 0.14751 0.21966 0.56013 0.0
C636 C 0.14579 0.15759 0.54265 0.0
C637 C 0.28357 0.40759 0.58229 0.0
O638 O 0.34724 0.42774 0.58028 0.0
H639 H 0.16855 0.26615 0.48288 0.0
H640 H 0.14012 0.22712 0.58733 0.0
O641 O 0.12968 0.40035 0.49678 0.0
H642 H 0.97398 0.41524 0.62846 0.0
H643 H 0.13587 0.10755 0.55361 0.0
Cu644 Cu 0.41641 0.62334 0.40726 0.0
N645 N 0.37991 0.68998 0.37839 0.0
N646 N 0.29887 0.75356 0.35376 0.0
C647 C 0.31251 0.70487 0.3772 0.0
C648 C 0.35986 0.77115 0.33998 0.0
C649 C 0.4101 0.7318 0.35545 0.0
O650 O 0.38621 0.53094 0.39457 0.0
C651 C 0.38437 0.62743 0.48178 0.0
O652 O 0.40253 0.56312 0.48613 0.0
H653 H 0.27439 0.67924 0.39272 0.0
H654 H 0.46435 0.73277 0.34996 0.0
N655 N 0.51235 0.62561 0.41128 0.0
N656 N 0.61226 0.62805 0.43954 0.0
C657 C 0.54381 0.62046 0.4418 0.0
C658 C 0.56325 0.63549 0.38842 0.0
C659 C 0.62533 0.6372 0.4059 0.0
C660 C 0.37537 0.49936 0.36626 0.0
O661 O 0.35532 0.43566 0.36827 0.0
H662 H 0.51677 0.61434 0.46567 0.0
H663 H 0.55579 0.6429 0.36123 0.0
O664 O 0.38255 0.65325 0.45178 0.0
H665 H 0.36767 0.80903 0.32013 0.0
H666 H 0.67536 0.64713 0.39495 0.0
Cu667 Cu 0.1596 0.66643 0.15725 0.0
N668 N 0.09296 0.62994 0.12838 0.0
N669 N 0.02937 0.5489 0.10376 0.0
C670 C 0.07804 0.56254 0.12721 0.0
C671 C 1.01183 0.60988 1.08995 0.0
C672 C 0.05118 0.66012 0.10542 0.0
O673 O 0.25199 0.6362 0.14457 0.0
C674 C 0.15549 0.6344 0.23178 0.0
O675 O 0.2198 0.65253 0.23613 0.0
H676 H 0.10364 0.52443 0.14274 0.0
H677 H 0.05025 0.71436 0.09991 0.0
N678 N 0.15734 0.76236 0.16128 0.0
N679 N 0.15488 0.86228 0.18954 0.0
C680 C 0.16246 0.79382 0.19179 0.0
C681 C 0.14749 0.81327 0.13842 0.0
C682 C 0.14577 0.87535 0.1559 0.0
C683 C 0.28356 0.62533 0.11626 0.0
O684 O 0.34725 0.60524 0.11827 0.0
H685 H 0.16855 0.76678 0.21567 0.0
H686 H 0.14011 0.80582 0.11122 0.0
O687 O 0.12968 0.63258 0.20177 0.0
H688 H 0.97399 0.61768 1.07009 0.0
H689 H 0.13586 0.92538 0.14494 0.0
Cu690 Cu 0.11652 0.40958 0.90726 0.0
N691 N 0.15301 0.34295 0.87839 0.0
N692 N 0.23406 0.27937 0.85376 0.0
C693 C 0.22041 0.32806 0.8772 0.0
C694 C 0.17306 0.26178 0.83998 0.0
C695 C 0.12282 0.30112 0.85545 0.0
O696 O 0.14671 0.50198 0.89457 0.0
C697 C 0.14855 0.4055 0.98178 0.0
O698 O 0.1304 0.4698 0.98613 0.0
H699 H 0.25853 0.35369 0.89272 0.0
H700 H 0.06858 0.30015 0.84996 0.0
N701 N 0.02058 0.40732 0.91128 0.0
N702 N 0.92066 0.40488 0.93954 0.0
C703 C 0.98912 0.41247 0.9418 0.0
C704 C 0.96967 0.39744 0.88842 0.0
C705 C 0.9076 0.39573 0.9059 0.0
C706 C 0.15755 0.53356 0.86626 0.0
O707 O 0.1776 0.59727 0.86827 0.0
H708 H 1.01615 0.41859 0.96567 0.0
H709 H 0.97713 0.39002 0.86123 0.0
O710 O 0.15037 0.37968 0.95178 0.0
H711 H 0.16526 0.2239 0.82013 0.0
H712 H 0.85756 0.38579 0.89495 0.0
Cu713 Cu 0.37333 0.3665 0.65725 0.0
N714 N 0.43996 0.40299 0.62838 0.0
N715 N 0.50355 0.48403 0.60376 0.0
C716 C 0.45489 0.47039 0.62721 0.0
C717 C 0.52109 0.42305 0.58995 0.0
C718 C 0.48174 0.37281 0.60542 0.0
O719 O 0.28094 0.39673 0.64457 0.0
C720 C 0.37744 0.39853 0.73178 0.0
O721 O 0.31313 0.3804 0.73613 0.0
H722 H 0.42929 0.5085 0.64274 0.0
H723 H 0.48267 0.31857 0.59991 0.0
N724 N 0.37558 0.27057 0.66128 0.0
N725 N 0.37804 0.17065 0.68954 0.0
C726 C 0.37046 0.23911 0.69179 0.0
C727 C 0.38543 0.21966 0.63842 0.0
C728 C 0.38715 0.15758 0.6559 0.0
C729 C 0.24936 0.4076 0.61626 0.0
O730 O 0.18568 0.42769 0.61827 0.0
H731 H 0.36437 0.26615 0.71567 0.0
H732 H 0.39282 0.22711 0.61122 0.0
O733 O 0.40325 0.40035 0.70177 0.0
H734 H 0.55893 0.41525 0.57008 0.0
H735 H 0.39707 0.10755 0.64494 0.0
loop_
_geom_bond_atom_site_label_1
_geom_bond_atom_site_label_2
_geom_bond_distance
_geom_bond_site_symmetry_2
_ccdc_geom_bond_type
Cu0 N1 1.999 . S
Cu0 O6 1.974 . S
Cu0 N11 1.985 . S
Cu0 O20 1.959 . S
N1 Cu0 1.999 . S
N1 C3 1.263 . S
N1 C5 1.389 . S
N2 C3 1.358 . S
N2 C4 1.400 . S
C3 N1 1.263 . S
C3 N2 1.358 . S
C3 H9 0.930 . S
C4 N2 1.400 . S
C4 C5 1.351 . S
C4 H21 0.930 . S
C5 N1 1.389 . S
C5 C4 1.351 . S
C5 H10 0.930 . S
O6 Cu0 1.974 . S
O6 C16 1.282 . S
C7 O8 1.261 . S
C7 O20 1.251 . S
O8 C7 1.261 . S
H9 C3 0.930 . S
H10 C5 0.930 . S
N11 Cu0 1.985 . S
N11 C13 1.335 . S
N11 C14 1.390 1_545 S
N12 C13 1.345 . S
N12 C15 1.336 1_545 S
C13 N11 1.335 . S
C13 N12 1.345 . S
C13 H18 0.930 . S
C14 N11 1.390 1_565 S
C14 C15 1.346 . S
C14 H19 0.930 . S
C15 N12 1.336 1_565 S
C15 C14 1.346 . S
C15 H22 0.929 . S
C16 O6 1.282 . S
C16 O17 1.216 1_545 S
O17 C16 1.216 1_565 S
H18 C13 0.930 . S
H19 C14 0.930 . S
O20 Cu0 1.959 . S
O20 C7 1.251 . S
H21 C4 0.930 . S
H22 C15 0.929 . S
Cu23 N24 1.999 . S
Cu23 O29 1.974 . S
Cu23 N34 1.985 . S
Cu23 O43 1.959 . S
N24 Cu23 1.999 . S
N24 C26 1.263 . S
N24 C28 1.371 1_455 S
N25 C26 1.358 1_545 S
N25 C27 1.400 1_445 S
C26 N24 1.263 . S
C26 N25 1.358 1_565 S
C26 H32 0.930 . S
C27 N25 1.400 1_665 S
C27 C28 1.356 . S
C27 H44 0.930 . S
C28 N24 1.371 1_655 S
C28 C27 1.356 . S
C28 H33 0.941 . S
O29 Cu23 1.974 . S
O29 C39 1.282 . S
C30 O31 1.261 . S
C30 O43 1.251 . S
O31 C30 1.261 . S
H32 C26 0.930 . S
H33 C28 0.941 . S
N34 Cu23 1.985 . S
N34 C36 1.335 . S
N34 C37 1.390 . S
N35 C36 1.345 . S
N35 C38 1.336 . S
C36 N34 1.335 . S
C36 N35 1.345 . S
C36 H41 0.930 . S
C37 N34 1.390 . S
C37 C38 1.346 . S
C37 H42 0.930 . S
C38 N35 1.336 . S
C38 C37 1.346 . S
C38 H45 0.929 . S
C39 O29 1.282 . S
C39 O40 1.216 . S
O40 C39 1.216 . S
H41 C36 0.930 . S
H42 C37 0.930 . S
O43 Cu23 1.959 . S
O43 C30 1.251 . S
H44 C27 0.930 . S
H45 C38 0.929 . S
Cu46 N47 1.999 . S
Cu46 O52 1.974 . S
Cu46 N57 1.985 . S
Cu46 O66 1.959 . S
N47 Cu46 1.999 . S
N47 C49 1.263 . S
N47 C51 1.389 . S
N48 C49 1.358 . S
N48 C50 1.400 . S
C49 N47 1.263 . S
C49 N48 1.358 . S
C49 H55 0.930 . S
C50 N48 1.400 . S
C50 C51 1.351 . S
C50 H67 0.930 . S
C51 N47 1.389 . S
C51 C50 1.351 . S
C51 H56 0.930 . S
O52 Cu46 1.974 . S
O52 C62 1.282 . S
C53 O54 1.261 . S
C53 O66 1.251 . S
O54 C53 1.261 . S
H55 C49 0.930 . S
H56 C51 0.930 . S
N57 Cu46 1.985 . S
N57 C59 1.335 . S
N57 C60 1.390 1_565 S
N58 C59 1.345 . S
N58 C61 1.336 1_565 S
C59 N57 1.335 . S
C59 N58 1.345 . S
C59 H64 0.930 . S
C60 N57 1.390 1_545 S
C60 C61 1.346 . S
C60 H65 0.930 . S
C61 N58 1.336 1_545 S
C61 C60 1.346 . S
C61 H68 0.929 . S
C62 O52 1.282 . S
C62 O63 1.216 1_565 S
O63 C62 1.216 1_545 S
H64 C59 0.930 . S
H65 C60 0.930 . S
O66 Cu46 1.959 . S
O66 C53 1.251 . S
H67 C50 0.930 . S
H68 C61 0.929 . S
Cu69 N70 1.999 . S
Cu69 O75 1.974 . S
Cu69 N80 1.985 . S
Cu69 O89 1.959 . S
N70 Cu69 1.999 . S
N70 C72 1.263 . S
N70 C74 1.389 . S
N71 C72 1.358 1_565 S
N71 C73 1.400 1_565 S
C72 N70 1.263 . S
C72 N71 1.358 1_545 S
C72 H78 0.930 . S
C73 N71 1.400 1_545 S
C73 C74 1.351 . S
C73 H90 0.930 . S
C74 N70 1.389 . S
C74 C73 1.351 . S
C74 H79 0.930 . S
O75 Cu69 1.974 . S
O75 C85 1.282 . S
C76 O77 1.261 . S
C76 O89 1.251 . S
O77 C76 1.261 . S
H78 C72 0.930 . S
H79 C74 0.930 . S
N80 Cu69 1.985 . S
N80 C82 1.335 . S
N80 C83 1.390 . S
N81 C82 1.345 . S
N81 C84 1.336 . S
C82 N80 1.335 . S
C82 N81 1.345 . S
C82 H87 0.930 . S
C83 N80 1.390 . S
C83 C84 1.346 . S
C83 H88 0.930 . S
C84 N81 1.336 . S
C84 C83 1.346 . S
C84 H91 0.929 . S
C85 O75 1.282 . S
C85 O86 1.216 . S
O86 C85 1.216 . S
H87 C82 0.930 . S
H88 C83 0.930 . S
O89 Cu69 1.959 . S
O89 C76 1.251 . S
H90 C73 0.930 . S
H91 C84 0.929 . S
Cu92 N93 1.999 . S
Cu92 O98 1.974 . S
Cu92 N103 1.985 . S
Cu92 O112 1.959 . S
N93 Cu92 1.999 . S
N93 C95 1.263 . S
N93 C97 1.389 . S
N94 C95 1.358 . S
N94 C96 1.400 . S
C95 N93 1.263 . S
C95 N94 1.358 . S
C95 H101 0.930 . S
C96 N94 1.400 . S
C96 C97 1.351 . S
C96 H113 0.930 . S
C97 N93 1.389 . S
C97 C96 1.351 . S
C97 H102 0.930 . S
O98 Cu92 1.974 . S
O98 C108 1.282 . S
C99 O100 1.261 . S
C99 O112 1.251 . S
O100 C99 1.261 . S
H101 C95 0.930 . S
H102 C97 0.930 . S
N103 Cu92 1.985 . S
N103 C105 1.335 . S
N103 C106 1.390 1_565 S
N104 C105 1.345 . S
N104 C107 1.336 1_565 S
C105 N103 1.335 . S
C105 N104 1.345 . S
C105 H110 0.930 . S
C106 N103 1.390 1_545 S
C106 C107 1.346 . S
C106 H111 0.930 . S
C107 N104 1.336 1_545 S
C107 C106 1.346 . S
C107 H114 0.929 . S
C108 O98 1.282 . S
C108 O109 1.216 1_565 S
O109 C108 1.216 1_545 S
H110 C105 0.930 . S
H111 C106 0.930 . S
O112 Cu92 1.959 . S
O112 C99 1.251 . S
H113 C96 0.930 . S
H114 C107 0.929 . S
Cu115 N116 1.999 . S
Cu115 O121 1.974 . S
Cu115 N126 1.985 . S
Cu115 O135 1.959 . S
N116 Cu115 1.999 . S
N116 C118 1.263 . S
N116 C120 1.389 . S
N117 C118 1.358 1_545 S
N117 C119 1.400 1_545 S
C118 N116 1.263 . S
C118 N117 1.358 1_565 S
C118 H124 0.930 . S
C119 N117 1.400 1_565 S
C119 C120 1.351 . S
C119 H136 0.930 . S
C120 N116 1.389 . S
C120 C119 1.351 . S
C120 H125 0.930 . S
O121 Cu115 1.974 . S
O121 C131 1.282 . S
C122 O123 1.261 . S
C122 O135 1.251 . S
O123 C122 1.261 . S
H124 C118 0.930 . S
H125 C120 0.930 . S
N126 Cu115 1.985 . S
N126 C128 1.335 . S
N126 C129 1.390 . S
N127 C128 1.345 . S
N127 C130 1.336 . S
C128 N126 1.335 . S
C128 N127 1.345 . S
C128 H133 0.930 . S
C129 N126 1.390 . S
C129 C130 1.346 . S
C129 H134 0.930 . S
C130 N127 1.336 . S
C130 C129 1.346 . S
C130 H137 0.929 . S
C131 O121 1.282 . S
C131 O132 1.216 . S
O132 C131 1.216 . S
H133 C128 0.930 . S
H134 C129 0.930 . S
O135 Cu115 1.959 . S
O135 C122 1.251 . S
H136 C119 0.930 . S
H137 C130 0.929 . S
Cu138 N139 1.999 . S
Cu138 O144 1.974 . S
Cu138 N149 1.985 . S
Cu138 O158 1.959 . S
N139 Cu138 1.999 . S
N139 C141 1.263 . S
N139 C143 1.389 . S
N140 C141 1.358 . S
N140 C142 1.400 . S
C141 N139 1.263 . S
C141 N140 1.358 . S
C141 H147 0.930 . S
C142 N140 1.400 . S
C142 C143 1.351 . S
C142 H159 0.930 . S
C143 N139 1.389 . S
C143 C142 1.351 . S
C143 H148 0.930 . S
O144 Cu138 1.974 . S
O144 C154 1.282 . S
C145 O146 1.261 . S
C145 O158 1.251 . S
O146 C145 1.261 . S
H147 C141 0.930 . S
H148 C143 0.930 . S
N149 Cu138 1.985 . S
N149 C151 1.335 . S
N149 C152 1.390 1_545 S
N150 C151 1.345 . S
N150 C153 1.336 1_545 S
C151 N149 1.335 . S
C151 N150 1.345 . S
C151 H156 0.930 . S
C152 N149 1.390 1_565 S
C152 C153 1.346 . S
C152 H157 0.930 . S
C153 N150 1.336 1_565 S
C153 C152 1.346 . S
C153 H160 0.929 . S
C154 O144 1.282 . S
C154 O155 1.216 1_545 S
O155 C154 1.216 1_565 S
H156 C151 0.930 . S
H157 C152 0.930 . S
O158 Cu138 1.959 . S
O158 C145 1.251 . S
H159 C142 0.930 . S
H160 C153 0.929 . S
Cu161 N162 1.999 . S
Cu161 O167 1.974 . S
Cu161 N172 1.985 . S
Cu161 O181 1.959 . S
N162 Cu161 1.999 . S
N162 C164 1.263 . S
N162 C166 1.371 1_455 S
N163 C164 1.358 1_565 S
N163 C165 1.400 1_465 S
C164 N162 1.263 . S
C164 N163 1.358 1_545 S
C164 H170 0.930 . S
C165 N163 1.400 1_645 S
C165 C166 1.356 . S
C165 H182 0.930 . S
C166 N162 1.371 1_655 S
C166 C165 1.356 . S
C166 H171 0.941 . S
O167 Cu161 1.974 . S
O167 C177 1.282 . S
C168 O169 1.261 . S
C168 O181 1.251 . S
O169 C168 1.261 . S
H170 C164 0.930 . S
H171 C166 0.941 . S
N172 Cu161 1.985 . S
N172 C174 1.335 . S
N172 C175 1.390 . S
N173 C174 1.345 . S
N173 C176 1.336 . S
C174 N172 1.335 . S
C174 N173 1.345 . S
C174 H179 0.930 . S
C175 N172 1.390 . S
C175 C176 1.346 . S
C175 H180 0.930 . S
C176 N173 1.336 . S
C176 C175 1.346 . S
C176 H183 0.929 . S
C177 O167 1.282 . S
C177 O178 1.216 . S
O178 C177 1.216 . S
H179 C174 0.930 . S
H180 C175 0.930 . S
O181 Cu161 1.959 . S
O181 C168 1.251 . S
H182 C165 0.930 . S
H183 C176 0.929 . S
Cu184 N185 1.999 . S
Cu184 O190 1.974 . S
Cu184 N195 1.985 . S
Cu184 O204 1.959 . S
N185 Cu184 1.999 . S
N185 C187 1.263 . S
N185 C189 1.389 . S
N186 C187 1.358 . S
N186 C188 1.400 . S
C187 N185 1.263 . S
C187 N186 1.358 . S
C187 H193 0.930 . S
C188 N186 1.400 . S
C188 C189 1.351 . S
C188 H205 0.930 . S
C189 N185 1.389 . S
C189 C188 1.351 . S
C189 H194 0.930 . S
O190 Cu184 1.974 . S
O190 C200 1.282 . S
C191 O192 1.261 . S
C191 O204 1.251 . S
O192 C191 1.261 . S
H193 C187 0.930 . S
H194 C189 0.930 . S
N195 Cu184 1.985 . S
N195 C197 1.335 . S
N195 C198 1.390 1_565 S
N196 C197 1.345 . S
N196 C199 1.336 1_565 S
C197 N195 1.335 . S
C197 N196 1.345 . S
C197 H202 0.930 . S
C198 N195 1.390 1_545 S
C198 C199 1.346 . S
C198 H203 0.930 . S
C199 N196 1.336 1_545 S
C199 C198 1.346 . S
C199 H206 0.929 . S
C200 O190 1.282 . S
C200 O201 1.216 1_565 S
O201 C200 1.216 1_545 S
H202 C197 0.930 . S
H203 C198 0.930 . S
O204 Cu184 1.959 . S
O204 C191 1.251 . S
H205 C188 0.930 . S
H206 C199 0.929 . S
Cu207 N208 1.999 . S
Cu207 O213 1.974 . S
Cu207 N218 1.985 . S
Cu207 O227 1.959 . S
N208 Cu207 1.999 . S
N208 C210 1.263 . S
N208 C212 1.371 1_655 S
N209 C210 1.358 1_565 S
N209 C211 1.400 1_665 S
C210 N208 1.263 . S
C210 N209 1.358 1_545 S
C210 H216 0.930 . S
C211 N209 1.400 1_445 S
C211 C212 1.356 . S
C211 H228 0.930 . S
C212 N208 1.371 1_455 S
C212 C211 1.356 . S
C212 H217 0.941 . S
O213 Cu207 1.974 . S
O213 C223 1.282 . S
C214 O215 1.261 . S
C214 O227 1.251 . S
O215 C214 1.261 . S
H216 C210 0.930 . S
H217 C212 0.941 . S
N218 Cu207 1.985 . S
N218 C220 1.335 . S
N218 C221 1.390 . S
N219 C220 1.345 . S
N219 C222 1.336 . S
C220 N218 1.335 . S
C220 N219 1.345 . S
C220 H225 0.930 . S
C221 N218 1.390 . S
C221 C222 1.346 . S
C221 H226 0.930 . S
C222 N219 1.336 . S
C222 C221 1.346 . S
C222 H229 0.929 . S
C223 O213 1.282 . S
C223 O224 1.216 . S
O224 C223 1.216 . S
H225 C220 0.930 . S
H226 C221 0.930 . S
O227 Cu207 1.959 . S
O227 C214 1.251 . S
H228 C211 0.930 . S
H229 C222 0.929 . S
Cu230 N231 1.999 . S
Cu230 O236 1.974 . S
Cu230 N241 1.985 . S
Cu230 O250 1.959 . S
N231 Cu230 1.999 . S
N231 C233 1.263 . S
N231 C235 1.389 . S
N232 C233 1.358 . S
N232 C234 1.400 . S
C233 N231 1.263 . S
C233 N232 1.358 . S
C233 H239 0.930 . S
C234 N232 1.400 . S
C234 C235 1.351 . S
C234 H251 0.930 . S
C235 N231 1.389 . S
C235 C234 1.351 . S
C235 H240 0.930 . S
O236 Cu230 1.974 . S
O236 C246 1.282 . S
C237 O238 1.261 . S
C237 O250 1.251 . S
O238 C237 1.261 . S
H239 C233 0.930 . S
H240 C235 0.930 . S
N241 Cu230 1.985 . S
N241 C243 1.335 . S
N241 C244 1.390 1_545 S
N242 C243 1.345 . S
N242 C245 1.336 1_545 S
C243 N241 1.335 . S
C243 N242 1.345 . S
C243 H248 0.930 . S
C244 N241 1.390 1_565 S
C244 C245 1.346 . S
C244 H249 0.930 . S
C245 N242 1.336 1_565 S
C245 C244 1.346 . S
C245 H252 0.929 . S
C246 O236 1.282 . S
C246 O247 1.216 1_545 S
O247 C246 1.216 1_565 S
H248 C243 0.930 . S
H249 C244 0.930 . S
O250 Cu230 1.959 . S
O250 C237 1.251 . S
H251 C234 0.930 . S
H252 C245 0.929 . S
Cu253 N254 1.999 . S
Cu253 O259 1.974 . S
Cu253 N264 1.985 . S
Cu253 O273 1.959 . S
N254 Cu253 1.999 . S
N254 C256 1.263 . S
N254 C258 1.389 . S
N255 C256 1.358 1_545 S
N255 C257 1.400 1_545 S
C256 N254 1.263 . S
C256 N255 1.358 1_565 S
C256 H262 0.930 . S
C257 N255 1.400 1_565 S
C257 C258 1.351 . S
C257 H274 0.930 . S
C258 N254 1.389 . S
C258 C257 1.351 . S
C258 H263 0.930 . S
O259 Cu253 1.974 . S
O259 C269 1.282 . S
C260 O261 1.261 . S
C260 O273 1.251 . S
O261 C260 1.261 . S
H262 C256 0.930 . S
H263 C258 0.930 . S
N264 Cu253 1.985 . S
N264 C266 1.335 . S
N264 C267 1.390 . S
N265 C266 1.345 . S
N265 C268 1.336 . S
C266 N264 1.335 . S
C266 N265 1.345 . S
C266 H271 0.930 . S
C267 N264 1.390 . S
C267 C268 1.346 . S
C267 H272 0.930 . S
C268 N265 1.336 . S
C268 C267 1.346 . S
C268 H275 0.929 . S
C269 O259 1.282 . S
C269 O270 1.216 . S
O270 C269 1.216 . S
H271 C266 0.930 . S
H272 C267 0.930 . S
O273 Cu253 1.959 . S
O273 C260 1.251 . S
H274 C257 0.930 . S
H275 C268 0.929 . S
Cu276 N277 1.999 . S
Cu276 O282 1.974 . S
Cu276 N287 1.985 . S
Cu276 O296 1.959 . S
N277 Cu276 1.999 . S
N277 C279 1.263 . S
N277 C281 1.389 . S
N278 C279 1.358 . S
N278 C280 1.400 . S
C279 N277 1.263 . S
C279 N278 1.358 . S
C279 H285 0.930 . S
C280 N278 1.400 . S
C280 C281 1.351 . S
C280 H297 0.930 . S
C281 N277 1.389 . S
C281 C280 1.351 . S
C281 H286 0.930 . S
O282 Cu276 1.974 . S
O282 C292 1.282 . S
C283 O284 1.261 . S
C283 O296 1.251 . S
O284 C283 1.261 . S
H285 C279 0.930 . S
H286 C281 0.930 . S
N287 Cu276 1.985 . S
N287 C289 1.335 . S
N287 C290 1.390 1_545 S
N288 C289 1.345 . S
N288 C291 1.336 1_545 S
C289 N287 1.335 . S
C289 N288 1.345 . S
C289 H294 0.930 . S
C290 N287 1.390 1_565 S
C290 C291 1.346 . S
C290 H295 0.930 . S
C291 N288 1.336 1_565 S
C291 C290 1.346 . S
C291 H298 0.929 . S
C292 O282 1.282 . S
C292 O293 1.216 1_545 S
O293 C292 1.216 1_565 S
H294 C289 0.930 . S
H295 C290 0.930 . S
O296 Cu276 1.959 . S
O296 C283 1.251 . S
H297 C280 0.930 . S
H298 C291 0.929 . S
Cu299 N300 1.999 . S
Cu299 O305 1.974 . S
Cu299 N310 1.985 . S
Cu299 O319 1.959 . S
N300 Cu299 1.999 . S
N300 C302 1.263 . S
N300 C304 1.389 . S
N301 C302 1.358 1_565 S
N301 C303 1.400 1_565 S
C302 N300 1.263 . S
C302 N301 1.358 1_545 S
C302 H308 0.930 . S
C303 N301 1.400 1_545 S
C303 C304 1.351 . S
C303 H320 0.930 . S
C304 N300 1.389 . S
C304 C303 1.351 . S
C304 H309 0.930 . S
O305 Cu299 1.974 . S
O305 C315 1.282 . S
C306 O307 1.261 . S
C306 O319 1.251 . S
O307 C306 1.261 . S
H308 C302 0.930 . S
H309 C304 0.930 . S
N310 Cu299 1.985 . S
N310 C312 1.335 . S
N310 C313 1.390 . S
N311 C312 1.345 . S
N311 C314 1.336 . S
C312 N310 1.335 . S
C312 N311 1.345 . S
C312 H317 0.930 . S
C313 N310 1.390 . S
C313 C314 1.346 . S
C313 H318 0.930 . S
C314 N311 1.336 . S
C314 C313 1.346 . S
C314 H321 0.929 . S
C315 O305 1.282 . S
C315 O316 1.216 . S
O316 C315 1.216 . S
H317 C312 0.930 . S
H318 C313 0.930 . S
O319 Cu299 1.959 . S
O319 C306 1.251 . S
H320 C303 0.930 . S
H321 C314 0.929 . S
Cu322 N323 1.999 . S
Cu322 O328 1.974 . S
Cu322 N333 1.985 . S
Cu322 O342 1.959 . S
N323 Cu322 1.999 . S
N323 C325 1.263 . S
N323 C327 1.389 . S
N324 C325 1.358 . S
N324 C326 1.400 . S
C325 N323 1.263 . S
C325 N324 1.358 . S
C325 H331 0.930 . S
C326 N324 1.400 . S
C326 C327 1.351 . S
C326 H343 0.930 . S
C327 N323 1.389 . S
C327 C326 1.351 . S
C327 H332 0.930 . S
O328 Cu322 1.974 . S
O328 C338 1.282 . S
C329 O330 1.261 . S
C329 O342 1.251 . S
O330 C329 1.261 . S
H331 C325 0.930 . S
H332 C327 0.930 . S
N333 Cu322 1.985 . S
N333 C335 1.335 . S
N333 C336 1.390 1_565 S
N334 C335 1.345 . S
N334 C337 1.336 1_565 S
C335 N333 1.335 . S
C335 N334 1.345 . S
C335 H340 0.930 . S
C336 N333 1.390 1_545 S
C336 C337 1.346 . S
C336 H341 0.930 . S
C337 N334 1.336 1_545 S
C337 C336 1.346 . S
C337 H344 0.929 . S
C338 O328 1.282 . S
C338 O339 1.216 1_565 S
O339 C338 1.216 1_545 S
H340 C335 0.930 . S
H341 C336 0.930 . S
O342 Cu322 1.959 . S
O342 C329 1.251 . S
H343 C326 0.930 . S
H344 C337 0.929 . S
Cu345 N346 1.999 . S
Cu345 O351 1.974 . S
Cu345 N356 1.985 . S
Cu345 O365 1.959 . S
N346 Cu345 1.999 . S
N346 C348 1.263 . S
N346 C350 1.371 1_655 S
N347 C348 1.358 1_545 S
N347 C349 1.400 1_645 S
C348 N346 1.263 . S
C348 N347 1.358 1_565 S
C348 H354 0.930 . S
C349 N347 1.400 1_465 S
C349 C350 1.356 . S
C349 H366 0.930 . S
C350 N346 1.371 1_455 S
C350 C349 1.356 . S
C350 H355 0.941 . S
O351 Cu345 1.974 . S
O351 C361 1.282 . S
C352 O353 1.261 . S
C352 O365 1.251 . S
O353 C352 1.261 . S
H354 C348 0.930 . S
H355 C350 0.941 . S
N356 Cu345 1.985 . S
N356 C358 1.335 . S
N356 C359 1.390 . S
N357 C358 1.345 . S
N357 C360 1.336 . S
C358 N356 1.335 . S
C358 N357 1.345 . S
C358 H363 0.930 . S
C359 N356 1.390 . S
C359 C360 1.346 . S
C359 H364 0.930 . S
C360 N357 1.336 . S
C360 C359 1.346 . S
C360 H367 0.929 . S
C361 O351 1.282 . S
C361 O362 1.216 . S
O362 C361 1.216 . S
H363 C358 0.930 . S
H364 C359 0.930 . S
O365 Cu345 1.959 . S
O365 C352 1.251 . S
H366 C349 0.930 . S
H367 C360 0.929 . S
Cu368 N369 1.999 . S
Cu368 O374 1.974 . S
Cu368 N379 1.985 . S
Cu368 O388 1.959 . S
N369 Cu368 1.999 . S
N369 C371 1.263 . S
N369 C373 1.389 . S
N370 C371 1.358 . S
N370 C372 1.400 . S
C371 N369 1.263 . S
C371 N370 1.358 . S
C371 H377 0.930 . S
C372 N370 1.400 . S
C372 C373 1.351 . S
C372 H389 0.930 . S
C373 N369 1.389 . S
C373 C372 1.351 . S
C373 H378 0.930 . S
O374 Cu368 1.974 . S
O374 C384 1.282 . S
C375 O376 1.261 . S
C375 O388 1.251 . S
O376 C375 1.261 . S
H377 C371 0.930 . S
H378 C373 0.930 . S
N379 Cu368 1.985 . S
N379 C381 1.335 . S
N379 C382 1.390 . S
N380 C381 1.345 . S
N380 C383 1.336 . S
C381 N379 1.335 . S
C381 N380 1.345 . S
C381 H386 0.930 . S
C382 N379 1.390 . S
C382 C383 1.346 . S
C382 H387 0.930 . S
C383 N380 1.336 . S
C383 C382 1.346 . S
C383 H390 0.929 . S
C384 O374 1.282 . S
C384 O385 1.216 . S
O385 C384 1.216 . S
H386 C381 0.930 . S
H387 C382 0.930 . S
O388 Cu368 1.959 . S
O388 C375 1.251 . S
H389 C372 0.930 . S
H390 C383 0.929 . S
Cu391 N392 1.999 . S
Cu391 O397 1.974 . S
Cu391 N402 1.985 . S
Cu391 O411 1.959 . S
N392 Cu391 1.999 . S
N392 C394 1.263 . S
N392 C396 1.389 . S
N393 C394 1.358 . S
N393 C395 1.400 . S
C394 N392 1.263 . S
C394 N393 1.358 . S
C394 H400 0.930 . S
C395 N393 1.400 . S
C395 C396 1.351 . S
C395 H412 0.930 . S
C396 N392 1.389 . S
C396 C395 1.351 . S
C396 H401 0.930 . S
O397 Cu391 1.974 . S
O397 C407 1.282 . S
C398 O399 1.261 . S
C398 O411 1.251 . S
O399 C398 1.261 . S
H400 C394 0.930 . S
H401 C396 0.930 . S
N402 Cu391 1.985 . S
N402 C404 1.335 . S
N402 C405 1.390 . S
N403 C404 1.345 . S
N403 C406 1.336 . S
C404 N402 1.335 . S
C404 N403 1.345 . S
C404 H409 0.930 . S
C405 N402 1.390 . S
C405 C406 1.346 . S
C405 H410 0.930 . S
C406 N403 1.336 . S
C406 C405 1.346 . S
C406 H413 0.929 . S
C407 O397 1.282 . S
C407 O408 1.216 . S
O408 C407 1.216 . S
H409 C404 0.930 . S
H410 C405 0.930 . S
O411 Cu391 1.959 . S
O411 C398 1.251 . S
H412 C395 0.930 . S
H413 C406 0.929 . S
Cu414 N415 1.999 . S
Cu414 O420 1.974 . S
Cu414 N425 1.985 . S
Cu414 O434 1.959 . S
N415 Cu414 1.999 . S
N415 C417 1.263 . S
N415 C419 1.389 . S
N416 C417 1.358 . S
N416 C418 1.400 . S
C417 N415 1.263 . S
C417 N416 1.358 . S
C417 H423 0.930 . S
C418 N416 1.400 . S
C418 C419 1.351 . S
C418 H435 0.930 . S
C419 N415 1.389 . S
C419 C418 1.351 . S
C419 H424 0.930 . S
O420 Cu414 1.974 . S
O420 C430 1.282 . S
C421 O422 1.261 . S
C421 O434 1.251 . S
O422 C421 1.261 . S
H423 C417 0.930 . S
H424 C419 0.930 . S
N425 Cu414 1.985 . S
N425 C427 1.335 . S
N425 C428 1.390 . S
N426 C427 1.345 . S
N426 C429 1.336 . S
C427 N425 1.335 . S
C427 N426 1.345 . S
C427 H432 0.930 . S
C428 N425 1.390 . S
C428 C429 1.346 . S
C428 H433 0.930 . S
C429 N426 1.336 . S
C429 C428 1.346 . S
C429 H436 0.929 . S
C430 O420 1.282 . S
C430 O431 1.216 . S
O431 C430 1.216 . S
H432 C427 0.930 . S
H433 C428 0.930 . S
O434 Cu414 1.959 . S
O434 C421 1.251 . S
H435 C418 0.930 . S
H436 C429 0.929 . S
Cu437 N438 1.999 . S
Cu437 O443 1.974 . S
Cu437 N448 1.985 . S
Cu437 O457 1.959 . S
N438 Cu437 1.999 . S
N438 C440 1.263 . S
N438 C442 1.371 1_655 S
N439 C440 1.358 . S
N439 C441 1.400 1_655 S
C440 N438 1.263 . S
C440 N439 1.358 . S
C440 H446 0.930 . S
C441 N439 1.400 1_455 S
C441 C442 1.356 . S
C441 H458 0.930 . S
C442 N438 1.371 1_455 S
C442 C441 1.356 . S
C442 H447 0.941 . S
O443 Cu437 1.974 . S
O443 C453 1.282 . S
C444 O445 1.261 . S
C444 O457 1.251 . S
O445 C444 1.261 . S
H446 C440 0.930 . S
H447 C442 0.941 . S
N448 Cu437 1.985 . S
N448 C450 1.335 . S
N448 C451 1.390 . S
N449 C450 1.345 . S
N449 C452 1.336 . S
C450 N448 1.335 . S
C450 N449 1.345 . S
C450 H455 0.930 . S
C451 N448 1.390 . S
C451 C452 1.346 . S
C451 H456 0.930 . S
C452 N449 1.336 . S
C452 C451 1.346 . S
C452 H459 0.929 . S
C453 O443 1.282 . S
C453 O454 1.216 . S
O454 C453 1.216 . S
H455 C450 0.930 . S
H456 C451 0.930 . S
O457 Cu437 1.959 . S
O457 C444 1.251 . S
H458 C441 0.930 . S
H459 C452 0.929 . S
Cu460 N461 1.999 . S
Cu460 O466 1.974 . S
Cu460 N471 1.985 . S
Cu460 O480 1.959 . S
N461 Cu460 1.999 . S
N461 C463 1.263 . S
N461 C465 1.389 . S
N462 C463 1.358 . S
N462 C464 1.400 . S
C463 N461 1.263 . S
C463 N462 1.358 . S
C463 H469 0.930 . S
C464 N462 1.400 . S
C464 C465 1.351 . S
C464 H481 0.930 . S
C465 N461 1.389 . S
C465 C464 1.351 . S
C465 H470 0.930 . S
O466 Cu460 1.974 . S
O466 C476 1.282 . S
C467 O468 1.261 . S
C467 O480 1.251 . S
O468 C467 1.261 . S
H469 C463 0.930 . S
H470 C465 0.930 . S
N471 Cu460 1.985 . S
N471 C473 1.335 . S
N471 C474 1.390 . S
N472 C473 1.345 . S
N472 C475 1.336 . S
C473 N471 1.335 . S
C473 N472 1.345 . S
C473 H478 0.930 . S
C474 N471 1.390 . S
C474 C475 1.346 . S
C474 H479 0.930 . S
C475 N472 1.336 . S
C475 C474 1.346 . S
C475 H482 0.929 . S
C476 O466 1.282 . S
C476 O477 1.216 . S
O477 C476 1.216 . S
H478 C473 0.930 . S
H479 C474 0.930 . S
O480 Cu460 1.959 . S
O480 C467 1.251 . S
H481 C464 0.930 . S
H482 C475 0.929 . S
Cu483 N484 1.999 . S
Cu483 O489 1.974 . S
Cu483 N494 1.985 . S
Cu483 O503 1.959 . S
N484 Cu483 1.999 . S
N484 C486 1.263 . S
N484 C488 1.371 1_655 S
N485 C486 1.358 . S
N485 C487 1.400 1_655 S
C486 N484 1.263 . S
C486 N485 1.358 . S
C486 H492 0.930 . S
C487 N485 1.400 1_455 S
C487 C488 1.356 . S
C487 H504 0.930 . S
C488 N484 1.371 1_455 S
C488 C487 1.356 . S
C488 H493 0.941 . S
O489 Cu483 1.974 . S
O489 C499 1.282 . S
C490 O491 1.261 . S
C490 O503 1.251 . S
O491 C490 1.261 . S
H492 C486 0.930 . S
H493 C488 0.941 . S
N494 Cu483 1.985 . S
N494 C496 1.335 . S
N494 C497 1.390 . S
N495 C496 1.345 . S
N495 C498 1.336 . S
C496 N494 1.335 . S
C496 N495 1.345 . S
C496 H501 0.930 . S
C497 N494 1.390 . S
C497 C498 1.346 . S
C497 H502 0.930 . S
C498 N495 1.336 . S
C498 C497 1.346 . S
C498 H505 0.929 . S
C499 O489 1.282 . S
C499 O500 1.216 . S
O500 C499 1.216 . S
H501 C496 0.930 . S
H502 C497 0.930 . S
O503 Cu483 1.959 . S
O503 C490 1.251 . S
H504 C487 0.930 . S
H505 C498 0.929 . S
Cu506 N507 1.999 . S
Cu506 O512 1.974 . S
Cu506 N517 1.985 . S
Cu506 O526 1.959 . S
N507 Cu506 1.999 . S
N507 C509 1.263 . S
N507 C511 1.389 . S
N508 C509 1.358 . S
N508 C510 1.400 . S
C509 N507 1.263 . S
C509 N508 1.358 . S
C509 H515 0.930 . S
C510 N508 1.400 . S
C510 C511 1.351 . S
C510 H527 0.930 . S
C511 N507 1.389 . S
C511 C510 1.351 . S
C511 H516 0.930 . S
O512 Cu506 1.974 . S
O512 C522 1.282 . S
C513 O514 1.261 . S
C513 O526 1.251 . S
O514 C513 1.261 . S
H515 C509 0.930 . S
H516 C511 0.930 . S
N517 Cu506 1.985 . S
N517 C519 1.335 . S
N517 C520 1.390 . S
N518 C519 1.345 . S
N518 C521 1.336 . S
C519 N517 1.335 . S
C519 N518 1.345 . S
C519 H524 0.930 . S
C520 N517 1.390 . S
C520 C521 1.346 . S
C520 H525 0.930 . S
C521 N518 1.336 . S
C521 C520 1.346 . S
C521 H528 0.929 . S
C522 O512 1.282 . S
C522 O523 1.216 . S
O523 C522 1.216 . S
H524 C519 0.930 . S
H525 C520 0.930 . S
O526 Cu506 1.959 . S
O526 C513 1.251 . S
H527 C510 0.930 . S
H528 C521 0.929 . S
Cu529 N530 1.999 . S
Cu529 O535 1.974 . S
Cu529 N540 1.985 . S
Cu529 O549 1.959 . S
N530 Cu529 1.999 . S
N530 C532 1.263 . S
N530 C534 1.389 . S
N531 C532 1.358 . S
N531 C533 1.400 . S
C532 N530 1.263 . S
C532 N531 1.358 . S
C532 H538 0.930 . S
C533 N531 1.400 . S
C533 C534 1.351 . S
C533 H550 0.930 . S
C534 N530 1.389 . S
C534 C533 1.351 . S
C534 H539 0.930 . S
O535 Cu529 1.974 . S
O535 C545 1.282 . S
C536 O537 1.261 . S
C536 O549 1.251 . S
O537 C536 1.261 . S
H538 C532 0.930 . S
H539 C534 0.930 . S
N540 Cu529 1.985 . S
N540 C542 1.335 . S
N540 C543 1.390 . S
N541 C542 1.345 . S
N541 C544 1.336 . S
C542 N540 1.335 . S
C542 N541 1.345 . S
C542 H547 0.930 . S
C543 N540 1.390 . S
C543 C544 1.346 . S
C543 H548 0.930 . S
C544 N541 1.336 . S
C544 C543 1.346 . S
C544 H551 0.929 . S
C545 O535 1.282 . S
C545 O546 1.216 . S
O546 C545 1.216 . S
H547 C542 0.930 . S
H548 C543 0.930 . S
O549 Cu529 1.959 . S
O549 C536 1.251 . S
H550 C533 0.930 . S
H551 C544 0.929 . S
Cu552 N553 1.999 . S
Cu552 O558 1.974 . S
Cu552 N563 1.985 . S
Cu552 O572 1.959 . S
N553 Cu552 1.999 . S
N553 C555 1.263 . S
N553 C557 1.389 . S
N554 C555 1.358 . S
N554 C556 1.400 . S
C555 N553 1.263 . S
C555 N554 1.358 . S
C555 H561 0.930 . S
C556 N554 1.400 . S
C556 C557 1.351 . S
C556 H573 0.930 . S
C557 N553 1.389 . S
C557 C556 1.351 . S
C557 H562 0.930 . S
O558 Cu552 1.974 . S
O558 C568 1.282 . S
C559 O560 1.261 . S
C559 O572 1.251 . S
O560 C559 1.261 . S
H561 C555 0.930 . S
H562 C557 0.930 . S
N563 Cu552 1.985 . S
N563 C565 1.335 . S
N563 C566 1.390 . S
N564 C565 1.345 . S
N564 C567 1.336 . S
C565 N563 1.335 . S
C565 N564 1.345 . S
C565 H570 0.930 . S
C566 N563 1.390 . S
C566 C567 1.346 . S
C566 H571 0.930 . S
C567 N564 1.336 . S
C567 C566 1.346 . S
C567 H574 0.929 . S
C568 O558 1.282 . S
C568 O569 1.216 . S
O569 C568 1.216 . S
H570 C565 0.930 . S
H571 C566 0.930 . S
O572 Cu552 1.959 . S
O572 C559 1.251 . S
H573 C556 0.930 . S
H574 C567 0.929 . S
Cu575 N576 1.999 . S
Cu575 O581 1.974 . S
Cu575 N586 1.985 . S
Cu575 O595 1.959 . S
N576 Cu575 1.999 . S
N576 C578 1.263 . S
N576 C580 1.389 . S
N577 C578 1.358 . S
N577 C579 1.400 . S
C578 N576 1.263 . S
C578 N577 1.358 . S
C578 H584 0.930 . S
C579 N577 1.400 . S
C579 C580 1.351 . S
C579 H596 0.930 . S
C580 N576 1.389 . S
C580 C579 1.351 . S
C580 H585 0.930 . S
O581 Cu575 1.974 . S
O581 C591 1.282 . S
C582 O583 1.261 . S
C582 O595 1.251 . S
O583 C582 1.261 . S
H584 C578 0.930 . S
H585 C580 0.930 . S
N586 Cu575 1.985 . S
N586 C588 1.335 . S
N586 C589 1.390 . S
N587 C588 1.345 . S
N587 C590 1.336 . S
C588 N586 1.335 . S
C588 N587 1.345 . S
C588 H593 0.930 . S
C589 N586 1.390 . S
C589 C590 1.346 . S
C589 H594 0.930 . S
C590 N587 1.336 . S
C590 C589 1.346 . S
C590 H597 0.929 . S
C591 O581 1.282 . S
C591 O592 1.216 . S
O592 C591 1.216 . S
H593 C588 0.930 . S
H594 C589 0.930 . S
O595 Cu575 1.959 . S
O595 C582 1.251 . S
H596 C579 0.930 . S
H597 C590 0.929 . S
Cu598 N599 1.999 . S
Cu598 O604 1.974 . S
Cu598 N609 1.985 . S
Cu598 O618 1.959 . S
N599 Cu598 1.999 . S
N599 C601 1.263 . S
N599 C603 1.389 . S
N600 C601 1.358 . S
N600 C602 1.400 . S
C601 N599 1.263 . S
C601 N600 1.358 . S
C601 H607 0.930 . S
C602 N600 1.400 . S
C602 C603 1.351 . S
C602 H619 0.930 . S
C603 N599 1.389 . S
C603 C602 1.351 . S
C603 H608 0.930 . S
O604 Cu598 1.974 . S
O604 C614 1.282 . S
C605 O606 1.261 . S
C605 O618 1.251 . S
O606 C605 1.261 . S
H607 C601 0.930 . S
H608 C603 0.930 . S
N609 Cu598 1.985 . S
N609 C611 1.335 . S
N609 C612 1.390 . S
N610 C611 1.345 . S
N610 C613 1.336 . S
C611 N609 1.335 . S
C611 N610 1.345 . S
C611 H616 0.930 . S
C612 N609 1.390 . S
C612 C613 1.346 . S
C612 H617 0.930 . S
C613 N610 1.336 . S
C613 C612 1.346 . S
C613 H620 0.929 . S
C614 O604 1.282 . S
C614 O615 1.216 . S
O615 C614 1.216 . S
H616 C611 0.930 . S
H617 C612 0.930 . S
O618 Cu598 1.959 . S
O618 C605 1.251 . S
H619 C602 0.930 . S
H620 C613 0.929 . S
Cu621 N622 1.999 . S
Cu621 O627 1.974 . S
Cu621 N632 1.985 . S
Cu621 O641 1.959 . S
N622 Cu621 1.999 . S
N622 C624 1.263 . S
N622 C626 1.371 1_455 S
N623 C624 1.358 . S
N623 C625 1.400 1_455 S
C624 N622 1.263 . S
C624 N623 1.358 . S
C624 H630 0.930 . S
C625 N623 1.400 1_655 S
C625 C626 1.356 . S
C625 H642 0.930 . S
C626 N622 1.371 1_655 S
C626 C625 1.356 . S
C626 H631 0.941 . S
O627 Cu621 1.974 . S
O627 C637 1.282 . S
C628 O629 1.261 . S
C628 O641 1.251 . S
O629 C628 1.261 . S
H630 C624 0.930 . S
H631 C626 0.941 . S
N632 Cu621 1.985 . S
N632 C634 1.335 . S
N632 C635 1.390 . S
N633 C634 1.345 . S
N633 C636 1.336 . S
C634 N632 1.335 . S
C634 N633 1.345 . S
C634 H639 0.930 . S
C635 N632 1.390 . S
C635 C636 1.346 . S
C635 H640 0.930 . S
C636 N633 1.336 . S
C636 C635 1.346 . S
C636 H643 0.929 . S
C637 O627 1.282 . S
C637 O638 1.216 . S
O638 C637 1.216 . S
H639 C634 0.930 . S
H640 C635 0.930 . S
O641 Cu621 1.959 . S
O641 C628 1.251 . S
H642 C625 0.930 . S
H643 C636 0.929 . S
Cu644 N645 1.999 . S
Cu644 O650 1.974 . S
Cu644 N655 1.985 . S
Cu644 O664 1.959 . S
N645 Cu644 1.999 . S
N645 C647 1.263 . S
N645 C649 1.389 . S
N646 C647 1.358 . S
N646 C648 1.400 . S
C647 N645 1.263 . S
C647 N646 1.358 . S
C647 H653 0.930 . S
C648 N646 1.400 . S
C648 C649 1.351 . S
C648 H665 0.930 . S
C649 N645 1.389 . S
C649 C648 1.351 . S
C649 H654 0.930 . S
O650 Cu644 1.974 . S
O650 C660 1.282 . S
C651 O652 1.261 . S
C651 O664 1.251 . S
O652 C651 1.261 . S
H653 C647 0.930 . S
H654 C649 0.930 . S
N655 Cu644 1.985 . S
N655 C657 1.335 . S
N655 C658 1.390 . S
N656 C657 1.345 . S
N656 C659 1.336 . S
C657 N655 1.335 . S
C657 N656 1.345 . S
C657 H662 0.930 . S
C658 N655 1.390 . S
C658 C659 1.346 . S
C658 H663 0.930 . S
C659 N656 1.336 . S
C659 C658 1.346 . S
C659 H666 0.929 . S
C660 O650 1.282 . S
C660 O661 1.216 . S
O661 C660 1.216 . S
H662 C657 0.930 . S
H663 C658 0.930 . S
O664 Cu644 1.959 . S
O664 C651 1.251 . S
H665 C648 0.930 . S
H666 C659 0.929 . S
Cu667 N668 1.999 . S
Cu667 O673 1.974 . S
Cu667 N678 1.985 . S
Cu667 O687 1.959 . S
N668 Cu667 1.999 . S
N668 C670 1.263 . S
N668 C672 1.371 1_455 S
N669 C670 1.358 . S
N669 C671 1.400 1_455 S
C670 N668 1.263 . S
C670 N669 1.358 . S
C670 H676 0.930 . S
C671 N669 1.400 1_655 S
C671 C672 1.356 . S
C671 H688 0.930 . S
C672 N668 1.371 1_655 S
C672 C671 1.356 . S
C672 H677 0.941 . S
O673 Cu667 1.974 . S
O673 C683 1.282 . S
C674 O675 1.261 . S
C674 O687 1.251 . S
O675 C674 1.261 . S
H676 C670 0.930 . S
H677 C672 0.941 . S
N678 Cu667 1.985 . S
N678 C680 1.335 . S
N678 C681 1.390 . S
N679 C680 1.345 . S
N679 C682 1.336 . S
C680 N678 1.335 . S
C680 N679 1.345 . S
C680 H685 0.930 . S
C681 N678 1.390 . S
C681 C682 1.346 . S
C681 H686 0.930 . S
C682 N679 1.336 . S
C682 C681 1.346 . S
C682 H689 0.929 . S
C683 O673 1.282 . S
C683 O684 1.216 . S
O684 C683 1.216 . S
H685 C680 0.930 . S
H686 C681 0.930 . S
O687 Cu667 1.959 . S
O687 C674 1.251 . S
H688 C671 0.930 . S
H689 C682 0.929 . S
Cu690 N691 1.999 . S
Cu690 O696 1.974 . S
Cu690 N701 1.985 . S
Cu690 O710 1.959 . S
N691 Cu690 1.999 . S
N691 C693 1.263 . S
N691 C695 1.389 . S
N692 C693 1.358 . S
N692 C694 1.400 . S
C693 N691 1.263 . S
C693 N692 1.358 . S
C693 H699 0.930 . S
C694 N692 1.400 . S
C694 C695 1.351 . S
C694 H711 0.930 . S
C695 N691 1.389 . S
C695 C694 1.351 . S
C695 H700 0.930 . S
O696 Cu690 1.974 . S
O696 C706 1.282 . S
C697 O698 1.261 . S
C697 O710 1.251 . S
O698 C697 1.261 . S
H699 C693 0.930 . S
H700 C695 0.930 . S
N701 Cu690 1.985 . S
N701 C703 1.335 . S
N701 C704 1.390 . S
N702 C703 1.345 . S
N702 C705 1.336 . S
C703 N701 1.335 . S
C703 N702 1.345 . S
C703 H708 0.930 . S
C704 N701 1.390 . S
C704 C705 1.346 . S
C704 H709 0.930 . S
C705 N702 1.336 . S
C705 C704 1.346 . S
C705 H712 0.929 . S
C706 O696 1.282 . S
C706 O707 1.216 . S
O707 C706 1.216 . S
H708 C703 0.930 . S
H709 C704 0.930 . S
O710 Cu690 1.959 . S
O710 C697 1.251 . S
H711 C694 0.930 . S
H712 C705 0.929 . S
Cu713 N714 1.999 . S
Cu713 O719 1.974 . S
Cu713 N724 1.985 . S
Cu713 O733 1.959 . S
N714 Cu713 1.999 . S
N714 C716 1.263 . S
N714 C718 1.389 . S
N715 C716 1.358 . S
N715 C717 1.400 . S
C716 N714 1.263 . S
C716 N715 1.358 . S
C716 H722 0.930 . S
C717 N715 1.400 . S
C717 C718 1.351 . S
C717 H734 0.930 . S
C718 N714 1.389 . S
C718 C717 1.351 . S
C718 H723 0.930 . S
O719 Cu713 1.974 . S
O719 C729 1.282 . S
C720 O721 1.261 . S
C720 O733 1.251 . S
O721 C720 1.261 . S
H722 C716 0.930 . S
H723 C718 0.930 . S
N724 Cu713 1.985 . S
N724 C726 1.335 . S
N724 C727 1.390 . S
N725 C726 1.345 . S
N725 C728 1.336 . S
C726 N724 1.335 . S
C726 N725 1.345 . S
C726 H731 0.930 . S
C727 N724 1.390 . S
C727 C728 1.346 . S
C727 H732 0.930 . S
C728 N725 1.336 . S
C728 C727 1.346 . S
C728 H735 0.929 . S
C729 O719 1.282 . S
C729 O730 1.216 . S
O730 C729 1.216 . S
H731 C726 0.930 . S
H732 C727 0.930 . S
O733 Cu713 1.959 . S
O733 C720 1.251 . S
H734 C717 0.930 . S
H735 C728 0.929 . S
N633 C7 1.904 . S
C30 N196 1.905 1_455 S
N587 C53 1.904 . S
C76 N242 1.904 . S
C99 N679 1.904 . S
C122 N334 1.904 . S
C145 N725 1.905 . S
C168 N288 1.904 1_455 S
N449 C191 1.904 . S
N12 C214 1.905 1_455 S
N403 C237 1.904 . S
C260 N58 1.904 . S
N495 C283 1.904 . S
N150 C306 1.904 . S
C329 N541 1.905 . S
N104 C352 1.904 1_455 S
C375 N265 1.904 . S
C398 N564 1.905 . S
N219 C421 1.904 . S
N610 C444 1.904 1_455 S
N311 C467 1.904 . S
N702 C490 1.904 1_455 S
N357 C513 1.905 . S
C536 N656 1.904 . S
N81 C559 1.904 . S
C582 N380 1.905 . S
C605 N35 1.904 . S
C628 N426 1.904 1_455 S
C651 N127 1.904 . S
C674 N518 1.904 1_455 S
C697 N173 1.905 . S
C720 N472 1.904 . S
N554 N2 1.540 . S
N25 N209 1.540 1_445 S
N600 N48 1.540 . S
N71 N255 1.540 1_564 S
N646 N94 1.540 . S
N117 N301 1.540 1_545 S
N692 N140 1.540 . S
N163 N347 1.540 1_466 S
N186 N370 1.540 . S
N232 N416 1.540 . S
N278 N462 1.540 . S
N324 N508 1.540 . S
N393 N577 1.540 1_554 S
N623 N439 1.540 1_455 S
N669 N485 1.540 1_454 S
N531 N715 1.540 . S
C16 C108 2.741 1_545 S
C39 C131 2.741 . S
C154 C62 2.741 1_545 S
C85 C177 2.741 1_554 S
C292 C200 2.741 1_545 S
C315 C223 2.741 . S
C246 C338 2.741 1_545 S
C269 C361 2.741 1_556 S
C476 C384 2.741 . S
C499 C407 2.741 1_556 S
C430 C522 2.741 . S
C545 C453 2.741 . S
C660 C568 2.741 . S
C591 C683 2.741 1_556 S
C706 C614 2.741 . S
C637 C729 2.741 . S
