# Generated by pormake.
# Topology tzs, (4)-cn, num edge types: 1
# Building blocks:
#     Node 0, Type 0, BuildingBlock: TATPOV_clean_sbu_0, # of connection points: 4
#     Node 1, Type 0, BuildingBlock: TATPOV_clean_sbu_0, # of connection points: 4
#     Node 2, Type 0, BuildingBlock: TATPOV_clean_sbu_0, # of connection points: 4
#     Node 3, Type 0, BuildingBlock: TATPOV_clean_sbu_0, # of connection points: 4
#     Node 4, Type 0, BuildingBlock: TATPOV_clean_sbu_0, # of connection points: 4
#     Node 5, Type 0, BuildingBlock: TATPOV_clean_sbu_0, # of connection points: 4
#     Node 6, Type 0, BuildingBlock: TATPOV_clean_sbu_0, # of connection points: 4
#     Node 7, Type 0, BuildingBlock: TATPOV_clean_sbu_0, # of connection points: 4
#     Node 8, Type 0, BuildingBlock: TATPOV_clean_sbu_0, # of connection points: 4
#     Node 9, Type 0, BuildingBlock: TATPOV_clean_sbu_0, # of connection points: 4
#     Node 10, Type 0, BuildingBlock: TATPOV_clean_sbu_0, # of connection points: 4
#     Node 11, Type 0, BuildingBlock: TATPOV_clean_sbu_0, # of connection points: 4
#     Node 12, Type 0, BuildingBlock: TATPOV_clean_sbu_0, # of connection points: 4
#     Node 13, Type 0, BuildingBlock: TATPOV_clean_sbu_0, # of connection points: 4
#     Node 14, Type 0, BuildingBlock: TATPOV_clean_sbu_0, # of connection points: 4
#     Node 15, Type 0, BuildingBlock: TATPOV_clean_sbu_0, # of connection points: 4
#     Edge 16, Type (0, 0), BuildingBlock: AJUNOK_clean_linker_0, # of connection points: 2
#     Edge 17, Type (0, 0), BuildingBlock: AJUNOK_clean_linker_0, # of connection points: 2
#     Edge 18, Type (0, 0), BuildingBlock: AJUNOK_clean_linker_0, # of connection points: 2
#     Edge 19, Type (0, 0), BuildingBlock: AJUNOK_clean_linker_0, # of connection points: 2
#     Edge 20, Type (0, 0), BuildingBlock: AJUNOK_clean_linker_0, # of connection points: 2
#     Edge 21, Type (0, 0), BuildingBlock: AJUNOK_clean_linker_0, # of connection points: 2
#     Edge 22, Type (0, 0), BuildingBlock: AJUNOK_clean_linker_0, # of connection points: 2
#     Edge 23, Type (0, 0), BuildingBlock: AJUNOK_clean_linker_0, # of connection points: 2
#     Edge 24, Type (0, 0), BuildingBlock: AJUNOK_clean_linker_0, # of connection points: 2
#     Edge 25, Type (0, 0), BuildingBlock: AJUNOK_clean_linker_0, # of connection points: 2
#     Edge 26, Type (0, 0), BuildingBlock: AJUNOK_clean_linker_0, # of connection points: 2
#     Edge 27, Type (0, 0), BuildingBlock: AJUNOK_clean_linker_0, # of connection points: 2
#     Edge 28, Type (0, 0), BuildingBlock: AJUNOK_clean_linker_0, # of connection points: 2
#     Edge 29, Type (0, 0), BuildingBlock: AJUNOK_clean_linker_0, # of connection points: 2
#     Edge 30, Type (0, 0), BuildingBlock: AJUNOK_clean_linker_0, # of connection points: 2
#     Edge 31, Type (0, 0), BuildingBlock: AJUNOK_clean_linker_0, # of connection points: 2
#     Edge 32, Type (0, 0), BuildingBlock: AJUNOK_clean_linker_0, # of connection points: 2
#     Edge 33, Type (0, 0), BuildingBlock: AJUNOK_clean_linker_0, # of connection points: 2
#     Edge 34, Type (0, 0), BuildingBlock: AJUNOK_clean_linker_0, # of connection points: 2
#     Edge 35, Type (0, 0), BuildingBlock: AJUNOK_clean_linker_0, # of connection points: 2
#     Edge 36, Type (0, 0), BuildingBlock: AJUNOK_clean_linker_0, # of connection points: 2
#     Edge 37, Type (0, 0), BuildingBlock: AJUNOK_clean_linker_0, # of connection points: 2
#     Edge 38, Type (0, 0), BuildingBlock: AJUNOK_clean_linker_0, # of connection points: 2
#     Edge 39, Type (0, 0), BuildingBlock: AJUNOK_clean_linker_0, # of connection points: 2
#     Edge 40, Type (0, 0), BuildingBlock: AJUNOK_clean_linker_0, # of connection points: 2
#     Edge 41, Type (0, 0), BuildingBlock: AJUNOK_clean_linker_0, # of connection points: 2
#     Edge 42, Type (0, 0), BuildingBlock: AJUNOK_clean_linker_0, # of connection points: 2
#     Edge 43, Type (0, 0), BuildingBlock: AJUNOK_clean_linker_0, # of connection points: 2
#     Edge 44, Type (0, 0), BuildingBlock: AJUNOK_clean_linker_0, # of connection points: 2
#     Edge 45, Type (0, 0), BuildingBlock: AJUNOK_clean_linker_0, # of connection points: 2
#     Edge 46, Type (0, 0), BuildingBlock: AJUNOK_clean_linker_0, # of connection points: 2
#     Edge 47, Type (0, 0), BuildingBlock: AJUNOK_clean_linker_0, # of connection points: 2
# Relax obj value: 0.050
# Max RMSD: 0.079
# Mean RMSD: 0.079
data_MOF--net-tzs--node1-TATPOV_clean_sbu_0--edge1-AJUNOK_clean_linker_0
_symmetry_space_group_name_H-M    P1
_symmetry_Int_Tables_number       1
_symmetry_cell_setting            triclinic
loop_
_symmetry_equiv_pos_as_xyz
'x, y, z'
_cell_length_a     35.709784
_cell_length_b     35.487178
_cell_length_c     31.39102
_cell_angle_alpha  89.779843
_cell_angle_beta   89.672026
_cell_angle_gamma 89.900759
loop_
_atom_site_label
_atom_site_type_symbol
_atom_site_fract_x
_atom_site_fract_y
_atom_site_fract_z
_atom_type_partial_charge
Zn0 Zn 0.07209 0.38596 0.16999 0.0
Zn1 Zn 0.12367 0.34694 0.19786 0.0
O2 O 0.07411 0.32504 0.22189 0.0
O3 O 0.03242 0.34666 0.17711 0.0
O4 O 0.16229 0.31059 0.21893 0.0
O5 O 0.09733 0.39464 0.11435 0.0
O6 O 0.13329 0.34707 0.13264 0.0
C7 C 0.04052 0.32572 0.20836 0.0
C8 C 0.11258 0.42339 0.23457 0.0
O9 O 0.13623 0.39733 0.22693 0.0
O10 O 0.08064 0.42274 0.21737 0.0
C11 C 0.19555 0.3118 0.20443 0.0
O12 O 0.20444 0.33818 0.17672 0.0
C13 C 0.12259 0.37109 0.10507 0.0
Zn14 Zn 0.61677 0.07986 0.10924 0.0
Zn15 Zn 0.66333 0.13029 0.14231 0.0
O16 O 0.67886 0.08082 0.17219 0.0
O17 O 0.64063 0.03902 0.14448 0.0
O18 O 0.69896 0.16832 0.16502 0.0
O19 O 0.63643 0.09067 0.05088 0.0
O20 O 0.67061 0.13639 0.07758 0.0
C21 C 0.66687 0.04709 0.16978 0.0
C22 C 0.5796 0.13896 0.15692 0.0
O23 O 0.61301 0.14935 0.16414 0.0
O24 O 0.57342 0.11069 0.13343 0.0
C25 C 0.69696 0.17778 0.2039 0.0
O26 O 0.67222 0.16111 0.22867 0.0
C27 C 0.65891 0.11779 0.0458 0.0
Zn28 Zn 0.89174 0.58479 0.1207 0.0
Zn29 Zn 0.84693 0.63564 0.15865 0.0
O30 O 0.89861 0.65199 0.17852 0.0
O31 O 0.93654 0.61247 0.14606 0.0
O32 O 0.81242 0.67207 0.18724 0.0
O33 O 0.87108 0.60134 0.06423 0.0
O34 O 0.83747 0.64578 0.09516 0.0
C35 C 0.93163 0.64046 0.17048 0.0
C36 C 0.84068 0.55086 0.18 0.0
O37 O 0.83047 0.58501 0.18477 0.0
O38 O 0.86638 0.54274 0.15362 0.0
C39 C 0.82051 0.70676 0.19026 0.0
O40 O 0.85237 0.71892 0.17426 0.0
C41 C 0.84868 0.62891 0.06179 0.0
Zn42 Zn 0.40847 0.89069 0.13698 0.0
Zn43 Zn 0.35705 0.85539 0.18165 0.0
O44 O 0.34793 0.9091 0.20228 0.0
O45 O 0.38714 0.9396 0.16008 0.0
O46 O 0.31735 0.82462 0.21087 0.0
O47 O 0.39102 0.87077 0.08181 0.0
O48 O 0.3433 0.8477 0.11807 0.0
C49 C 0.3621 0.93985 0.18886 0.0
C50 C 0.44114 0.84203 0.19777 0.0
O51 O 0.40687 0.83526 0.2065 0.0
O52 O 0.44963 0.8645 0.16792 0.0
C53 C 0.31225 0.79074 0.19926 0.0
O54 O 0.33427 0.77652 0.16974 0.0
C55 C 0.35996 0.85389 0.08278 0.0
Zn56 Zn 0.08437 0.63308 0.34993 0.0
Zn57 Zn 0.13893 0.64991 0.29975 0.0
O58 O 0.09018 0.66722 0.26899 0.0
O59 O 0.04473 0.65715 0.31514 0.0
O60 O 0.18049 0.67317 0.26534 0.0
O61 O 0.10393 0.65949 0.40066 0.0
O62 O 0.15423 0.66557 0.3608 0.0
C63 C 0.05547 0.66848 0.27891 0.0
C64 C 0.12427 0.56839 0.31197 0.0
O65 O 0.14393 0.59333 0.29313 0.0
O66 O 0.09851 0.57831 0.33767 0.0
C67 C 0.18563 0.7082 0.27115 0.0
O68 O 0.16267 0.72632 0.29679 0.0
C69 C 0.13775 0.66917 0.3966 0.0
Zn70 Zn 0.41761 0.12406 0.32967 0.0
Zn71 Zn 0.37085 0.16424 0.28338 0.0
O72 O 0.35578 0.1119 0.26417 0.0
O73 O 0.39131 0.07756 0.30645 0.0
O74 O 0.33621 0.19932 0.25288 0.0
O75 O 0.40102 0.14748 0.38409 0.0
O76 O 0.35724 0.17533 0.34627 0.0
C77 C 0.36682 0.07987 0.27745 0.0
C78 C 0.45591 0.16637 0.26666 0.0
O79 O 0.42265 0.17676 0.25791 0.0
O80 O 0.46188 0.14456 0.29786 0.0
C81 C 0.30171 0.19831 0.26276 0.0
O82 O 0.29023 0.17309 0.29066 0.0
C83 C 0.37217 0.168 0.38205 0.0
Zn84 Zn 0.87485 0.39476 0.36118 0.0
Zn85 Zn 0.82911 0.34685 0.32413 0.0
O86 O 0.87914 0.32677 0.30271 0.0
O87 O 0.91803 0.3639 0.33673 0.0
O88 O 0.79222 0.31033 0.30089 0.0
O89 O 0.85468 0.38302 0.41888 0.0
O90 O 0.82102 0.33878 0.38862 0.0
C91 C 0.91239 0.33662 0.3116 0.0
C92 C 0.82833 0.4311 0.30014 0.0
O93 O 0.81619 0.39765 0.29499 0.0
O94 O 0.85323 0.43772 0.3276 0.0
C95 C 0.79374 0.29842 0.2629 0.0
O96 O 0.8194 0.31202 0.23694 0.0
C97 C 0.83203 0.35583 0.4218 0.0
Zn98 Zn 0.61579 0.89609 0.353 0.0
Zn99 Zn 0.65465 0.84446 0.31047 0.0
O100 O 0.67257 0.89538 0.28577 0.0
O101 O 0.6415 0.93849 0.32167 0.0
O102 O 0.68694 0.80718 0.28004 0.0
O103 O 0.63644 0.87725 0.40815 0.0
O104 O 0.66327 0.83051 0.37349 0.0
C105 C 0.66505 0.92988 0.29305 0.0
C106 C 0.57049 0.8454 0.30149 0.0
O107 O 0.60213 0.83203 0.29035 0.0
O108 O 0.5687 0.87202 0.32828 0.0
C109 C 0.72201 0.81251 0.27724 0.0
O110 O 0.73646 0.84297 0.29417 0.0
C111 C 0.65524 0.84704 0.40825 0.0
Zn112 Zn 0.91371 0.60809 0.8339 0.0
Zn113 Zn 0.86553 0.64881 0.7906 0.0
O114 O 0.85176 0.59631 0.76905 0.0
O115 O 0.88903 0.5618 0.80924 0.0
O116 O 0.83031 0.68448 0.76094 0.0
O117 O 0.89703 0.62791 0.88957 0.0
O118 O 0.85243 0.65747 0.85455 0.0
C119 C 0.86396 0.56423 0.78095 0.0
C120 C 0.95089 0.6545 0.77439 0.0
O121 O 0.91728 0.66405 0.76597 0.0
O122 O 0.95748 0.63123 0.804 0.0
C123 C 0.79623 0.68752 0.7723 0.0
O124 O 0.78349 0.66567 0.803 0.0
C125 C 0.86806 0.64831 0.88947 0.0
Zn126 Zn 0.37648 0.91766 0.84968 0.0
Zn127 Zn 0.33065 0.86774 0.81418 0.0
O128 O 0.38097 0.84997 0.79043 0.0
O129 O 0.41987 0.8879 0.82343 0.0
O130 O 0.29336 0.83124 0.79148 0.0
O131 O 0.35754 0.90421 0.90779 0.0
O132 O 0.32442 0.85891 0.87864 0.0
C133 C 0.41422 0.86047 0.7985 0.0
C134 C 0.32502 0.95216 0.79194 0.0
O135 O 0.3141 0.91824 0.7875 0.0
O136 O 0.35149 0.95973 0.81713 0.0
C137 C 0.30095 0.79639 0.78858 0.0
O138 O 0.33456 0.78431 0.79863 0.0
C139 C 0.3358 0.87631 0.91142 0.0
Zn140 Zn 0.09911 0.40845 0.85591 0.0
Zn141 Zn 0.14736 0.35546 0.83325 0.0
O142 O 0.16538 0.40191 0.79883 0.0
O143 O 0.1251 0.44585 0.81819 0.0
O144 O 0.18449 0.31574 0.81651 0.0
O145 O 0.11531 0.40483 0.91586 0.0
O146 O 0.15273 0.3577 0.89895 0.0
C147 C 0.1535 0.43573 0.79686 0.0
C148 C 0.06383 0.34582 0.81495 0.0
O149 O 0.09752 0.33443 0.81116 0.0
O150 O 0.05674 0.37629 0.83426 0.0
C151 C 0.18853 0.30819 0.77726 0.0
O152 O 0.16803 0.32653 0.74935 0.0
C153 C 0.13879 0.37995 0.92661 0.0
Zn154 Zn 0.58325 0.10078 0.81892 0.0
Zn155 Zn 0.6324 0.14095 0.77556 0.0
O156 O 0.58116 0.15962 0.75336 0.0
O157 O 0.54024 0.1276 0.79164 0.0
O158 O 0.66951 0.1766 0.74951 0.0
O159 O 0.60201 0.1173 0.87503 0.0
O160 O 0.64673 0.14605 0.83903 0.0
C161 C 0.54733 0.15159 0.76284 0.0
C162 C 0.63134 0.05723 0.76196 0.0
O163 O 0.6445 0.08914 0.75087 0.0
O164 O 0.60636 0.05492 0.79071 0.0
C165 C 0.66462 0.21155 0.75634 0.0
O166 O 0.63469 0.2225 0.77746 0.0
C167 C 0.63182 0.13632 0.87427 0.0
Zn168 Zn 0.90861 0.37247 0.64431 0.0
Zn169 Zn 0.85705 0.33855 0.6904 0.0
O170 O 0.84743 0.39264 0.70916 0.0
O171 O 0.88694 0.42195 0.66626 0.0
O172 O 0.81713 0.30757 0.71862 0.0
O173 O 0.89094 0.35119 0.58973 0.0
O174 O 0.84352 0.32937 0.62735 0.0
C175 C 0.86164 0.42302 0.69475 0.0
C176 C 0.9411 0.32516 0.70692 0.0
O177 O 0.90679 0.31924 0.71626 0.0
O178 O 0.94964 0.34657 0.67609 0.0
C179 C 0.78322 0.31688 0.71228 0.0
O180 O 0.77602 0.34771 0.6905 0.0
C181 C 0.8598 0.33451 0.59168 0.0
Zn182 Zn 0.57943 0.86975 0.62656 0.0
Zn183 Zn 0.62589 0.83224 0.6749 0.0
O184 O 0.57349 0.82117 0.70108 0.0
O185 O 0.53473 0.85189 0.65909 0.0
O186 O 0.66107 0.79836 0.70727 0.0
O187 O 0.59477 0.84385 0.57343 0.0
O188 O 0.63953 0.81891 0.61227 0.0
C189 C 0.5403 0.83148 0.69152 0.0
C190 C 0.6304 0.91692 0.67471 0.0
O191 O 0.64101 0.88568 0.69072 0.0
O192 O 0.60587 0.91751 0.64566 0.0
C193 C 0.69544 0.79841 0.69646 0.0
O194 O 0.70649 0.8218 0.66641 0.0
C195 C 0.62409 0.82412 0.57628 0.0
Zn196 Zn 0.12181 0.59158 0.61546 0.0
Zn197 Zn 0.16445 0.63894 0.66008 0.0
O198 O 0.17824 0.58639 0.68291 0.0
O199 O 0.14323 0.54697 0.64686 0.0
O200 O 0.19969 0.67271 0.69142 0.0
O201 O 0.14581 0.60977 0.56141 0.0
O202 O 0.17529 0.65345 0.59778 0.0
C203 C 0.16729 0.55291 0.6755 0.0
C204 C 0.07972 0.64419 0.66812 0.0
O205 O 0.11221 0.65436 0.6798 0.0
O206 O 0.0761 0.61884 0.64008 0.0
C207 C 0.19033 0.69244 0.72342 0.0
O208 O 0.15595 0.69052 0.73829 0.0
C209 C 0.16699 0.63825 0.56249 0.0
Zn210 Zn 0.37185 0.10188 0.60995 0.0
Zn211 Zn 0.33309 0.15457 0.6489 0.0
O212 O 0.38493 0.16698 0.67169 0.0
O213 O 0.4185 0.12649 0.63453 0.0
O214 O 0.29912 0.19317 0.67483 0.0
O215 O 0.35335 0.1173 0.55284 0.0
O216 O 0.32787 0.16633 0.58455 0.0
C217 C 0.41657 0.15321 0.66118 0.0
C218 C 0.32207 0.06995 0.67006 0.0
O219 O 0.31395 0.10463 0.67533 0.0
O220 O 0.34612 0.06052 0.64234 0.0
C221 C 0.29566 0.19696 0.71486 0.0
O222 O 0.3155 0.17526 0.74016 0.0
C223 C 0.33596 0.14826 0.55078 0.0
C224 C 0.23807 0.22745 0.26097 0.0
C225 C 0.27521 0.2268 0.24582 0.0
C226 C 0.21272 0.25501 0.24738 0.0
C227 C 0.22334 0.28312 0.21799 0.0
H228 H 0.22842 0.20674 0.28395 0.0
H229 H 0.18453 0.25422 0.2603 0.0
S230 S 0.3171 0.29337 0.16738 0.0
N231 N 0.32123 0.2563 0.19891 0.0
N232 N 0.27353 0.30811 0.17334 0.0
C233 C 0.2603 0.2826 0.20209 0.0
C234 C 0.28621 0.25446 0.21598 0.0
C235 C 0.77036 0.25489 0.20668 0.0
C236 C 0.76821 0.2681 0.24879 0.0
C237 C 0.74737 0.22561 0.19267 0.0
C238 C 0.72127 0.20824 0.22019 0.0
H239 H 0.79004 0.26713 0.18421 0.0
H240 H 0.75019 0.21659 0.15988 0.0
S241 S 0.70446 0.23225 0.33376 0.0
N242 N 0.73771 0.26149 0.31808 0.0
N243 N 0.6946 0.20645 0.29169 0.0
C244 C 0.71876 0.22114 0.26243 0.0
C245 C 0.74216 0.25105 0.27673 0.0
C246 C 0.807 0.76936 0.22315 0.0
C247 C 0.79464 0.73309 0.21214 0.0
C248 C 0.78337 0.79472 0.24434 0.0
C249 C 0.74631 0.78495 0.25501 0.0
H250 H 0.8353 0.77826 0.21569 0.0
H251 H 0.79427 0.8223 0.25215 0.0
S252 S 0.70008 0.6934 0.23315 0.0
N253 N 0.74275 0.68864 0.21345 0.0
N254 N 0.69833 0.73634 0.25307 0.0
C255 C 0.73349 0.7488 0.24406 0.0
C256 C 0.75765 0.72286 0.22272 0.0
C257 C 0.25489 0.78597 0.24495 0.0
C258 C 0.28064 0.76854 0.21721 0.0
C259 C 0.22422 0.76628 0.2617 0.0
C260 C 0.21795 0.7282 0.25161 0.0
H261 H 0.25822 0.81525 0.25377 0.0
H262 H 0.20538 0.78118 0.28295 0.0
S263 S 0.27715 0.66914 0.18062 0.0
N264 N 0.29787 0.71069 0.18043 0.0
N265 N 0.24022 0.67365 0.21204 0.0
C266 C 0.24347 0.71028 0.22394 0.0
C267 C 0.27477 0.73043 0.20675 0.0
C268 C 0.70943 0.74544 0.747 0.0
C269 C 0.72207 0.77109 0.71578 0.0
C270 C 0.73355 0.71857 0.76487 0.0
C271 C 0.77138 0.71612 0.75229 0.0
H272 H 0.68054 0.74591 0.75771 0.0
H273 H 0.72228 0.69954 0.78873 0.0
S274 S 0.81884 0.777 0.67202 0.0
N275 N 0.77526 0.79252 0.67331 0.0
N276 N 0.82048 0.74207 0.7068 0.0
C277 C 0.78451 0.7417 0.72121 0.0
C278 C 0.75993 0.76914 0.70304 0.0
C279 C 0.25636 0.71175 0.73654 0.0
C280 C 0.21781 0.71844 0.74232 0.0
C281 C 0.28311 0.73675 0.75239 0.0
C282 C 0.27225 0.76973 0.77379 0.0
H283 H 0.26601 0.687 0.71958 0.0
H284 H 0.31248 0.73062 0.74695 0.0
S285 S 0.17495 0.79975 0.7985 0.0
N286 N 0.17015 0.75985 0.77223 0.0
N287 N 0.22048 0.80723 0.80133 0.0
C288 C 0.23384 0.77659 0.78025 0.0
C289 C 0.2066 0.7508 0.76475 0.0
C290 C 0.22074 0.27284 0.71898 0.0
C291 C 0.2161 0.27956 0.76281 0.0
C292 C 0.24656 0.24626 0.70401 0.0
C293 C 0.26888 0.22511 0.7322 0.0
H294 H 0.20433 0.28824 0.69578 0.0
H295 H 0.24886 0.24228 0.6699 0.0
S296 S 0.26772 0.23183 0.85025 0.0
N297 N 0.23613 0.26281 0.83448 0.0
N298 N 0.28465 0.21276 0.80629 0.0
C299 C 0.26459 0.23147 0.7762 0.0
C300 C 0.23824 0.25868 0.7915 0.0
C301 C 0.73128 0.22685 0.7395 0.0
C302 C 0.69401 0.23904 0.74447 0.0
C303 C 0.76004 0.25241 0.73021 0.0
C304 C 0.75256 0.29106 0.72477 0.0
H305 H 0.73847 0.19737 0.74342 0.0
H306 H 0.78826 0.24161 0.72653 0.0
S307 S 0.65964 0.33738 0.73409 0.0
N308 N 0.65114 0.29237 0.7434 0.0
N309 N 0.70515 0.34035 0.72512 0.0
C310 C 0.7154 0.30364 0.72943 0.0
C311 C 0.68615 0.27765 0.73952 0.0
C312 C 0.14386 0.3409 -0.00741 0.0
C313 C 0.14717 0.37609 0.97215 0.0
C314 C 0.13944 0.33872 0.03707 0.0
C315 C 0.13817 0.37171 0.06172 0.0
H316 H 0.14125 0.31541 0.97397 0.0
H317 H 0.13373 0.3116 0.05163 0.0
S318 S 0.15431 0.4694 0.02399 0.0
N319 N 0.15551 0.44359 0.98034 0.0
N320 N 0.14706 0.43951 0.06362 0.0
C321 C 0.14563 0.40642 0.04199 0.0
C322 C 0.15022 0.40861 -0.00286 0.0
C323 C 0.63886 0.1673 0.9441 0.0
C324 C 0.65179 0.14079 0.91438 0.0
C325 C 0.64628 0.16261 -0.0124 0.0
C326 C 0.66593 0.1308 0.00224 0.0
H327 H 0.62005 0.18963 0.9342 0.0
H328 H 0.63292 0.18149 0.01011 0.0
S329 S 0.70964 0.0564 0.93633 0.0
N330 N 0.68905 0.08466 0.90165 0.0
N331 N 0.70175 0.07505 0.9837 0.0
C332 C 0.68193 0.10622 0.97245 0.0
C333 C 0.67511 0.11144 0.92824 0.0
C334 C 0.868 0.67879 0.95987 0.0
C335 C 0.84999 0.65521 0.93063 0.0
C336 C 0.86302 0.67353 0.00381 0.0
C337 C 0.84056 0.64403 0.0194 0.0
H338 H 0.88893 0.69871 0.94888 0.0
H339 H 0.88012 0.68973 0.02547 0.0
S340 S 0.78365 0.57818 0.9558 0.0
N341 N 0.8052 0.60481 0.92004 0.0
N342 N 0.79691 0.59402 0.00279 0.0
C343 C 0.81961 0.62283 -0.00944 0.0
C344 C 0.82403 0.62873 0.94593 0.0
C345 C 0.31728 0.87797 0.02827 0.0
C346 C 0.34086 0.84875 0.04218 0.0
C347 C 0.31181 0.88446 0.98473 0.0
C348 C 0.32897 0.86126 0.95421 0.0
H349 H 0.30668 0.89853 0.05079 0.0
H350 H 0.29697 0.90966 0.97487 0.0
S351 S 0.38815 0.77754 0.97493 0.0
N352 N 0.37796 0.7941 0.02276 0.0
N353 N 0.36628 0.80527 0.94071 0.0
C354 C 0.34884 0.82936 0.96793 0.0
C355 C 0.35517 0.82333 0.01218 0.0
C356 C 0.15159 0.68816 0.51133 0.0
C357 C 0.17465 0.65753 0.52212 0.0
C358 C 0.14362 0.69616 0.46862 0.0
C359 C 0.15927 0.67429 0.43581 0.0
H360 H 0.13577 0.7027 0.53585 0.0
H361 H 0.12191 0.71659 0.46151 0.0
S362 S 0.22824 0.59699 0.44797 0.0
N363 N 0.21775 0.60948 0.49726 0.0
N364 N 0.20425 0.62564 0.4167 0.0
C365 C 0.18686 0.64759 0.44621 0.0
C366 C 0.19413 0.63878 0.48968 0.0
C367 C 0.36172 0.19128 0.4969 0.0
C368 C 0.33317 0.1661 0.50883 0.0
C369 C 0.37167 0.19593 0.45398 0.0
C370 C 0.35257 0.17638 0.422 0.0
H371 H 0.37941 0.20377 0.52096 0.0
H372 H 0.39662 0.21192 0.44616 0.0
S373 S 0.27152 0.11267 0.43667 0.0
N374 N 0.2831 0.12515 0.48551 0.0
N375 N 0.30058 0.13537 0.40448 0.0
C376 C 0.32095 0.15505 0.43325 0.0
C377 C 0.31152 0.14948 0.47697 0.0
C378 C 0.84843 0.31032 0.47758 0.0
C379 C 0.82525 0.34006 0.46419 0.0
C380 C 0.85613 0.30497 0.52086 0.0
C381 C 0.83996 0.32856 0.55168 0.0
H382 H 0.86421 0.29415 0.45437 0.0
H383 H 0.87758 0.28486 0.52985 0.0
S384 S 0.77228 0.40587 0.533 0.0
N385 N 0.78275 0.3902 0.48487 0.0
N386 N 0.79583 0.37898 0.56661 0.0
C387 C 0.81307 0.35511 0.53897 0.0
C388 C 0.80604 0.36122 0.4949 0.0
C389 C 0.67322 0.83957 0.52429 0.0
C390 C 0.64387 0.81544 0.53654 0.0
C391 C 0.68093 0.84628 0.4811 0.0
C392 C 0.66029 0.82808 0.44933 0.0
H393 H 0.68682 0.85706 0.54781 0.0
H394 H 0.70026 0.86863 0.47261 0.0
S395 S 0.5861 0.75669 0.46551 0.0
N396 N 0.59791 0.7695 0.51416 0.0
N397 N 0.61373 0.78065 0.43288 0.0
C398 C 0.63469 0.80002 0.46139 0.0
C399 C 0.6261 0.79401 0.50523 0.0
C400 C 0.09749 0.50375 0.30976 0.0
C401 C 0.1272 0.52825 0.29944 0.0
C402 C 0.09458 0.46836 0.29081 0.0
C403 C 0.12169 0.45569 0.26168 0.0
H404 H 0.07479 0.51283 0.33036 0.0
H405 H 0.06987 0.45155 0.29733 0.0
S406 S 0.20812 0.50582 0.22909 0.0
N407 N 0.1867 0.53525 0.26185 0.0
N408 N 0.18131 0.46798 0.22688 0.0
C409 C 0.15332 0.47813 0.25401 0.0
C410 C 0.15606 0.51464 0.27277 0.0
C411 C 0.55396 0.16767 0.22316 0.0
C412 C 0.54829 0.15618 0.18084 0.0
C413 C 0.52352 0.17487 0.25028 0.0
C414 C 0.48653 0.17188 0.23562 0.0
H415 H 0.58187 0.16794 0.23651 0.0
H416 H 0.52888 0.18023 0.28365 0.0
S417 S 0.45716 0.14954 0.12543 0.0
N418 N 0.50334 0.14689 0.12403 0.0
N419 N 0.44608 0.16157 0.17469 0.0
C420 C 0.48069 0.16447 0.19219 0.0
C421 C 0.51163 0.15624 0.16485 0.0
C422 C 0.82696 0.48325 0.19601 0.0
C423 C 0.82676 0.52113 0.20923 0.0
C424 C 0.82287 0.45373 0.22551 0.0
C425 C 0.81937 0.46116 0.26929 0.0
H426 H 0.83251 0.47632 0.16298 0.0
H427 H 0.82594 0.42501 0.21439 0.0
S428 S 0.81186 0.55513 0.31968 0.0
N429 N 0.81781 0.56432 0.26847 0.0
N430 N 0.81155 0.50873 0.32397 0.0
C431 C 0.81605 0.49878 0.28249 0.0
C432 C 0.81934 0.52884 0.25239 0.0
C433 C 0.53895 0.82396 0.23538 0.0
C434 C 0.53631 0.83396 0.27861 0.0
C435 C 0.50701 0.82264 0.20978 0.0
C436 C 0.47131 0.83028 0.22678 0.0
H437 H 0.56608 0.82035 0.22029 0.0
H438 H 0.51056 0.81829 0.17584 0.0
S439 S 0.44871 0.85047 0.33981 0.0
N440 N 0.49479 0.8464 0.33861 0.0
N441 N 0.43457 0.84295 0.29056 0.0
C442 C 0.46787 0.83609 0.27087 0.0
C443 C 0.50048 0.83825 0.2968 0.0
C444 C 0.84993 0.49565 0.7809 0.0
C445 C 0.85337 0.5297 0.75818 0.0
C446 C 0.8491 0.46103 0.75966 0.0
C447 C 0.85282 0.45936 0.7151 0.0
H448 H 0.84985 0.49569 0.81542 0.0
H449 H 0.84851 0.43537 0.77848 0.0
S450 S 0.85844 0.54065 0.64082 0.0
N451 N 0.85662 0.55989 0.68863 0.0
N452 N 0.85635 0.49464 0.6487 0.0
C453 C 0.85378 0.49328 0.69189 0.0
C454 C 0.85368 0.52857 0.71347 0.0
C455 C 0.47226 0.82419 0.7065 0.0
C456 C 0.50902 0.827 0.72204 0.0
C457 C 0.44132 0.83195 0.7327 0.0
C458 C 0.44617 0.84375 0.77503 0.0
H459 H 0.46749 0.81839 0.67311 0.0
H460 H 0.41367 0.8316 0.71867 0.0
S461 S 0.53627 0.85006 0.83272 0.0
N462 N 0.54827 0.83761 0.78386 0.0
N463 N 0.49011 0.85314 0.83287 0.0
C464 C 0.48255 0.84363 0.79192 0.0
C465 C 0.51402 0.83491 0.76547 0.0
C466 C 0.16836 0.45507 0.72269 0.0
C467 C 0.16961 0.46286 0.76645 0.0
C468 C 0.1714 0.48425 0.69261 0.0
C469 C 0.17639 0.52192 0.70543 0.0
H470 H 0.16149 0.42699 0.7118 0.0
H471 H 0.16707 0.47764 0.65933 0.0
S472 S 0.18862 0.55511 0.81649 0.0
N473 N 0.18104 0.50939 0.82119 0.0
N474 N 0.18808 0.56418 0.76486 0.0
C475 C 0.182 0.52914 0.749 0.0
C476 C 0.17812 0.49957 0.77953 0.0
C477 C 0.44828 0.17 0.72879 0.0
C478 C 0.4506 0.16389 0.68463 0.0
C479 C 0.48055 0.16965 0.75397 0.0
C480 C 0.51618 0.16421 0.73565 0.0
H481 H 0.42125 0.17171 0.74453 0.0
H482 H 0.47738 0.17107 0.78828 0.0
S483 S 0.53757 0.15396 0.62057 0.0
N484 N 0.49145 0.15712 0.62295 0.0
N485 N 0.55226 0.15762 0.67018 0.0
C486 C 0.51913 0.16222 0.69107 0.0
C487 C 0.48623 0.16169 0.66554 0.0
C488 C 0.64436 0.9885 0.76102 0.0
C489 C 0.6415 0.02276 0.73865 0.0
C490 C 0.64471 0.95404 0.73949 0.0
C491 C 0.64113 0.95274 0.69493 0.0
H492 H 0.64424 0.98827 0.79555 0.0
H493 H 0.64458 0.9283 0.75817 0.0
S494 S 0.6377 0.03472 0.62145 0.0
N495 N 0.63946 0.05356 0.66944 0.0
N496 N 0.6389 0.98862 0.62886 0.0
C497 C 0.64112 0.98686 0.67202 0.0
C498 C 0.64164 0.02199 0.69395 0.0
C499 C 0.01814 0.6685 0.7619 0.0
C500 C 0.98196 0.66418 0.74526 0.0
C501 C 0.04984 0.66564 0.73565 0.0
C502 C 0.04642 0.65734 0.69205 0.0
H503 H 0.02207 0.67153 0.79592 0.0
H504 H 0.07716 0.66671 0.75042 0.0
S505 S 0.95773 0.6494 0.63187 0.0
N506 N 0.94429 0.65636 0.68166 0.0
N507 N 0.00398 0.64996 0.63237 0.0
C508 C 0.01034 0.65629 0.67438 0.0
C509 C 0.97803 0.66004 0.70101 0.0
C510 C 0.30815 0.00313 0.68877 0.0
C511 C 0.3098 0.04115 0.70126 0.0
C512 C 0.30871 0.97398 0.71903 0.0
C513 C 0.31186 0.98195 0.76268 0.0
H514 H 0.30922 0.99581 0.6553 0.0
H515 H 0.31034 0.94516 0.70787 0.0
S516 S 0.31025 0.07654 0.8123 0.0
N517 N 0.30877 0.08507 0.76058 0.0
N518 N 0.3111 0.0302 0.81733 0.0
C519 C 0.30981 0.01971 0.77577 0.0
C520 C 0.30836 0.04939 0.74503 0.0
C521 C -0.00373 0.33029 0.80712 0.0
C522 C 0.0332 0.32729 0.79159 0.0
C523 C 0.96559 0.32395 0.78047 0.0
C524 C 0.97098 0.31535 0.73721 0.0
H525 H 0.99104 0.34044 0.83913 0.0
H526 H 0.93778 0.33 0.79265 0.0
S527 S 0.0617 0.29689 0.68328 0.0
N528 N 0.07324 0.30874 0.73231 0.0
N529 N 0.01548 0.29816 0.68181 0.0
C530 C 0.00755 0.30813 0.72264 0.0
C531 C 0.03878 0.31377 0.75001 0.0
C532 C 0.35408 0.01086 0.27711 0.0
C533 C 0.35595 0.04528 0.25484 0.0
C534 C 0.35243 0.97653 0.2553 0.0
C535 C 0.35366 0.97559 0.21056 0.0
H536 H 0.3558 0.01038 0.31156 0.0
H537 H 0.35318 0.95058 0.27358 0.0
S538 S 0.35447 0.05785 0.1375 0.0
N539 N 0.35505 0.0764 0.18565 0.0
N540 N 0.35325 0.01174 0.14472 0.0
C541 C 0.35303 0.0098 0.18798 0.0
C542 C 0.3538 0.04475 0.21014 0.0
C543 C 0.98059 0.32277 0.30576 0.0
C544 C 0.94457 0.32048 0.2881 0.0
C545 C 0.01261 0.31861 0.28026 0.0
C546 C 0.00954 0.31294 0.23609 0.0
H547 H 0.9841 0.3307 0.33879 0.0
H548 H 0.03962 0.32417 0.29447 0.0
S549 S 0.92203 0.29615 0.1763 0.0
N550 N 0.90789 0.30487 0.22547 0.0
N551 N 0.96822 0.29829 0.1773 0.0
C552 C 0.97392 0.30594 0.21916 0.0
C553 C 0.94131 0.30945 0.24527 0.0
C554 C 0.67906 0.95115 0.21914 0.0
C555 C 0.67756 0.95943 0.2629 0.0
C556 C 0.67907 0.98007 0.18862 0.0
C557 C 0.67866 0.01815 0.20084 0.0
H558 H 0.67664 0.92232 0.20826 0.0
H559 H 0.67686 0.97258 0.1553 0.0
S560 S 0.68223 0.05442 0.31134 0.0
N561 N 0.68085 0.00814 0.31695 0.0
N562 N 0.68215 0.06253 0.25949 0.0
C563 C 0.68151 0.0267 0.24437 0.0
C564 C 0.68061 0.99727 0.27548 0.0
C565 C 0.0316 0.65557 0.20635 0.0
C566 C 0.02666 0.67349 0.24584 0.0
C567 C 0.00082 0.64722 0.18053 0.0
C568 C 0.96412 0.65699 0.19304 0.0
H569 H 0.05884 0.64469 0.19717 0.0
H570 H 0.00566 0.63099 0.15187 0.0
S571 S 0.93779 0.71179 0.28931 0.0
N572 N 0.98352 0.70593 0.29319 0.0
N573 N 0.92567 0.69128 0.24434 0.0
C574 C 0.9595 0.67881 0.23013 0.0
C575 C 0.99081 0.68681 0.25662 0.0
loop_
_geom_bond_atom_site_label_1
_geom_bond_atom_site_label_2
_geom_bond_distance
_geom_bond_site_symmetry_2
_ccdc_geom_bond_type
Zn0 O3 2.031 . S
Zn0 O5 2.049 . S
Zn0 O10 2.067 . S
Zn1 O2 1.962 . S
Zn1 O4 1.986 . S
Zn1 O6 1.996 . S
Zn1 O9 1.943 . S
O2 Zn1 1.962 . S
O2 C7 1.254 . S
O3 Zn0 2.031 . S
O3 C7 1.269 . S
O4 Zn1 1.986 . S
O4 C11 1.262 . S
O5 Zn0 2.049 . S
O5 C13 1.260 . S
O6 Zn1 1.996 . S
O6 C13 1.257 . S
C7 O2 1.254 . S
C7 O3 1.269 . S
C8 O9 1.249 . S
C8 O10 1.270 . S
O9 Zn1 1.943 . S
O9 C8 1.249 . S
O10 Zn0 2.067 . S
O10 C8 1.270 . S
C11 O4 1.262 . S
C11 O12 1.232 . S
O12 C11 1.232 . S
C13 O5 1.260 . S
C13 O6 1.257 . S
Zn14 O17 2.031 . S
Zn14 O19 2.049 . S
Zn14 O24 2.067 . S
Zn15 O16 1.962 . S
Zn15 O18 1.986 . S
Zn15 O20 1.996 . S
Zn15 O23 1.943 . S
O16 Zn15 1.962 . S
O16 C21 1.254 . S
O17 Zn14 2.031 . S
O17 C21 1.269 . S
O18 Zn15 1.986 . S
O18 C25 1.262 . S
O19 Zn14 2.049 . S
O19 C27 1.260 . S
O20 Zn15 1.996 . S
O20 C27 1.257 . S
C21 O16 1.254 . S
C21 O17 1.269 . S
C22 O23 1.249 . S
C22 O24 1.270 . S
O23 Zn15 1.943 . S
O23 C22 1.249 . S
O24 Zn14 2.067 . S
O24 C22 1.270 . S
C25 O18 1.262 . S
C25 O26 1.232 . S
O26 C25 1.232 . S
C27 O19 1.260 . S
C27 O20 1.257 . S
Zn28 O31 2.031 . S
Zn28 O33 2.049 . S
Zn28 O38 2.067 . S
Zn29 O30 1.962 . S
Zn29 O32 1.986 . S
Zn29 O34 1.996 . S
Zn29 O37 1.943 . S
O30 Zn29 1.962 . S
O30 C35 1.254 . S
O31 Zn28 2.031 . S
O31 C35 1.269 . S
O32 Zn29 1.986 . S
O32 C39 1.262 . S
O33 Zn28 2.049 . S
O33 C41 1.260 . S
O34 Zn29 1.996 . S
O34 C41 1.257 . S
C35 O30 1.254 . S
C35 O31 1.269 . S
C36 O37 1.249 . S
C36 O38 1.270 . S
O37 Zn29 1.943 . S
O37 C36 1.249 . S
O38 Zn28 2.067 . S
O38 C36 1.270 . S
C39 O32 1.262 . S
C39 O40 1.232 . S
O40 C39 1.232 . S
C41 O33 1.260 . S
C41 O34 1.257 . S
Zn42 O45 2.031 . S
Zn42 O47 2.049 . S
Zn42 O52 2.067 . S
Zn43 O44 1.962 . S
Zn43 O46 1.986 . S
Zn43 O48 1.996 . S
Zn43 O51 1.943 . S
O44 Zn43 1.962 . S
O44 C49 1.254 . S
O45 Zn42 2.031 . S
O45 C49 1.269 . S
O46 Zn43 1.986 . S
O46 C53 1.262 . S
O47 Zn42 2.049 . S
O47 C55 1.260 . S
O48 Zn43 1.996 . S
O48 C55 1.257 . S
C49 O44 1.254 . S
C49 O45 1.269 . S
C50 O51 1.249 . S
C50 O52 1.270 . S
O51 Zn43 1.943 . S
O51 C50 1.249 . S
O52 Zn42 2.067 . S
O52 C50 1.270 . S
C53 O46 1.262 . S
C53 O54 1.232 . S
O54 C53 1.232 . S
C55 O47 1.260 . S
C55 O48 1.257 . S
Zn56 O59 2.031 . S
Zn56 O61 2.049 . S
Zn56 O66 2.067 . S
Zn57 O58 1.962 . S
Zn57 O60 1.986 . S
Zn57 O62 1.996 . S
Zn57 O65 1.943 . S
O58 Zn57 1.962 . S
O58 C63 1.254 . S
O59 Zn56 2.031 . S
O59 C63 1.269 . S
O60 Zn57 1.986 . S
O60 C67 1.262 . S
O61 Zn56 2.049 . S
O61 C69 1.260 . S
O62 Zn57 1.996 . S
O62 C69 1.257 . S
C63 O58 1.254 . S
C63 O59 1.269 . S
C64 O65 1.249 . S
C64 O66 1.270 . S
O65 Zn57 1.943 . S
O65 C64 1.249 . S
O66 Zn56 2.067 . S
O66 C64 1.270 . S
C67 O60 1.262 . S
C67 O68 1.232 . S
O68 C67 1.232 . S
C69 O61 1.260 . S
C69 O62 1.257 . S
Zn70 O73 2.031 . S
Zn70 O75 2.049 . S
Zn70 O80 2.067 . S
Zn71 O72 1.962 . S
Zn71 O74 1.986 . S
Zn71 O76 1.996 . S
Zn71 O79 1.943 . S
O72 Zn71 1.962 . S
O72 C77 1.254 . S
O73 Zn70 2.031 . S
O73 C77 1.269 . S
O74 Zn71 1.986 . S
O74 C81 1.262 . S
O75 Zn70 2.049 . S
O75 C83 1.260 . S
O76 Zn71 1.996 . S
O76 C83 1.257 . S
C77 O72 1.254 . S
C77 O73 1.269 . S
C78 O79 1.249 . S
C78 O80 1.270 . S
O79 Zn71 1.943 . S
O79 C78 1.249 . S
O80 Zn70 2.067 . S
O80 C78 1.270 . S
C81 O74 1.262 . S
C81 O82 1.232 . S
O82 C81 1.232 . S
C83 O75 1.260 . S
C83 O76 1.257 . S
Zn84 O87 2.031 . S
Zn84 O89 2.049 . S
Zn84 O94 2.067 . S
Zn85 O86 1.962 . S
Zn85 O88 1.986 . S
Zn85 O90 1.996 . S
Zn85 O93 1.943 . S
O86 Zn85 1.962 . S
O86 C91 1.254 . S
O87 Zn84 2.031 . S
O87 C91 1.269 . S
O88 Zn85 1.986 . S
O88 C95 1.262 . S
O89 Zn84 2.049 . S
O89 C97 1.260 . S
O90 Zn85 1.996 . S
O90 C97 1.257 . S
C91 O86 1.254 . S
C91 O87 1.269 . S
C92 O93 1.249 . S
C92 O94 1.270 . S
O93 Zn85 1.943 . S
O93 C92 1.249 . S
O94 Zn84 2.067 . S
O94 C92 1.270 . S
C95 O88 1.262 . S
C95 O96 1.232 . S
O96 C95 1.232 . S
C97 O89 1.260 . S
C97 O90 1.257 . S
Zn98 O101 2.031 . S
Zn98 O103 2.049 . S
Zn98 O108 2.067 . S
Zn99 O100 1.962 . S
Zn99 O102 1.986 . S
Zn99 O104 1.996 . S
Zn99 O107 1.943 . S
O100 Zn99 1.962 . S
O100 C105 1.254 . S
O101 Zn98 2.031 . S
O101 C105 1.269 . S
O102 Zn99 1.986 . S
O102 C109 1.262 . S
O103 Zn98 2.049 . S
O103 C111 1.260 . S
O104 Zn99 1.996 . S
O104 C111 1.257 . S
C105 O100 1.254 . S
C105 O101 1.269 . S
C106 O107 1.249 . S
C106 O108 1.270 . S
O107 Zn99 1.943 . S
O107 C106 1.249 . S
O108 Zn98 2.067 . S
O108 C106 1.270 . S
C109 O102 1.262 . S
C109 O110 1.232 . S
O110 C109 1.232 . S
C111 O103 1.260 . S
C111 O104 1.257 . S
Zn112 O115 2.031 . S
Zn112 O117 2.049 . S
Zn112 O122 2.067 . S
Zn113 O114 1.962 . S
Zn113 O116 1.986 . S
Zn113 O118 1.996 . S
Zn113 O121 1.943 . S
O114 Zn113 1.962 . S
O114 C119 1.254 . S
O115 Zn112 2.031 . S
O115 C119 1.269 . S
O116 Zn113 1.986 . S
O116 C123 1.262 . S
O117 Zn112 2.049 . S
O117 C125 1.260 . S
O118 Zn113 1.996 . S
O118 C125 1.257 . S
C119 O114 1.254 . S
C119 O115 1.269 . S
C120 O121 1.249 . S
C120 O122 1.270 . S
O121 Zn113 1.943 . S
O121 C120 1.249 . S
O122 Zn112 2.067 . S
O122 C120 1.270 . S
C123 O116 1.262 . S
C123 O124 1.232 . S
O124 C123 1.232 . S
C125 O117 1.260 . S
C125 O118 1.257 . S
Zn126 O129 2.031 . S
Zn126 O131 2.049 . S
Zn126 O136 2.067 . S
Zn127 O128 1.962 . S
Zn127 O130 1.986 . S
Zn127 O132 1.996 . S
Zn127 O135 1.943 . S
O128 Zn127 1.962 . S
O128 C133 1.254 . S
O129 Zn126 2.031 . S
O129 C133 1.269 . S
O130 Zn127 1.986 . S
O130 C137 1.262 . S
O131 Zn126 2.049 . S
O131 C139 1.260 . S
O132 Zn127 1.996 . S
O132 C139 1.257 . S
C133 O128 1.254 . S
C133 O129 1.269 . S
C134 O135 1.249 . S
C134 O136 1.270 . S
O135 Zn127 1.943 . S
O135 C134 1.249 . S
O136 Zn126 2.067 . S
O136 C134 1.270 . S
C137 O130 1.262 . S
C137 O138 1.232 . S
O138 C137 1.232 . S
C139 O131 1.260 . S
C139 O132 1.257 . S
Zn140 O143 2.031 . S
Zn140 O145 2.049 . S
Zn140 O150 2.067 . S
Zn141 O142 1.962 . S
Zn141 O144 1.986 . S
Zn141 O146 1.996 . S
Zn141 O149 1.943 . S
O142 Zn141 1.962 . S
O142 C147 1.254 . S
O143 Zn140 2.031 . S
O143 C147 1.269 . S
O144 Zn141 1.986 . S
O144 C151 1.262 . S
O145 Zn140 2.049 . S
O145 C153 1.260 . S
O146 Zn141 1.996 . S
O146 C153 1.257 . S
C147 O142 1.254 . S
C147 O143 1.269 . S
C148 O149 1.249 . S
C148 O150 1.270 . S
O149 Zn141 1.943 . S
O149 C148 1.249 . S
O150 Zn140 2.067 . S
O150 C148 1.270 . S
C151 O144 1.262 . S
C151 O152 1.232 . S
O152 C151 1.232 . S
C153 O145 1.260 . S
C153 O146 1.257 . S
Zn154 O157 2.031 . S
Zn154 O159 2.049 . S
Zn154 O164 2.067 . S
Zn155 O156 1.962 . S
Zn155 O158 1.986 . S
Zn155 O160 1.996 . S
Zn155 O163 1.943 . S
O156 Zn155 1.962 . S
O156 C161 1.254 . S
O157 Zn154 2.031 . S
O157 C161 1.269 . S
O158 Zn155 1.986 . S
O158 C165 1.262 . S
O159 Zn154 2.049 . S
O159 C167 1.260 . S
O160 Zn155 1.996 . S
O160 C167 1.257 . S
C161 O156 1.254 . S
C161 O157 1.269 . S
C162 O163 1.249 . S
C162 O164 1.270 . S
O163 Zn155 1.943 . S
O163 C162 1.249 . S
O164 Zn154 2.067 . S
O164 C162 1.270 . S
C165 O158 1.262 . S
C165 O166 1.232 . S
O166 C165 1.232 . S
C167 O159 1.260 . S
C167 O160 1.257 . S
Zn168 O171 2.031 . S
Zn168 O173 2.049 . S
Zn168 O178 2.067 . S
Zn169 O170 1.962 . S
Zn169 O172 1.986 . S
Zn169 O174 1.996 . S
Zn169 O177 1.943 . S
O170 Zn169 1.962 . S
O170 C175 1.254 . S
O171 Zn168 2.031 . S
O171 C175 1.269 . S
O172 Zn169 1.986 . S
O172 C179 1.262 . S
O173 Zn168 2.049 . S
O173 C181 1.260 . S
O174 Zn169 1.996 . S
O174 C181 1.257 . S
C175 O170 1.254 . S
C175 O171 1.269 . S
C176 O177 1.249 . S
C176 O178 1.270 . S
O177 Zn169 1.943 . S
O177 C176 1.249 . S
O178 Zn168 2.067 . S
O178 C176 1.270 . S
C179 O172 1.262 . S
C179 O180 1.232 . S
O180 C179 1.232 . S
C181 O173 1.260 . S
C181 O174 1.257 . S
Zn182 O185 2.031 . S
Zn182 O187 2.049 . S
Zn182 O192 2.067 . S
Zn183 O184 1.962 . S
Zn183 O186 1.986 . S
Zn183 O188 1.996 . S
Zn183 O191 1.943 . S
O184 Zn183 1.962 . S
O184 C189 1.254 . S
O185 Zn182 2.031 . S
O185 C189 1.269 . S
O186 Zn183 1.986 . S
O186 C193 1.262 . S
O187 Zn182 2.049 . S
O187 C195 1.260 . S
O188 Zn183 1.996 . S
O188 C195 1.257 . S
C189 O184 1.254 . S
C189 O185 1.269 . S
C190 O191 1.249 . S
C190 O192 1.270 . S
O191 Zn183 1.943 . S
O191 C190 1.249 . S
O192 Zn182 2.067 . S
O192 C190 1.270 . S
C193 O186 1.262 . S
C193 O194 1.232 . S
O194 C193 1.232 . S
C195 O187 1.260 . S
C195 O188 1.257 . S
Zn196 O199 2.031 . S
Zn196 O201 2.049 . S
Zn196 O206 2.067 . S
Zn197 O198 1.962 . S
Zn197 O200 1.986 . S
Zn197 O202 1.996 . S
Zn197 O205 1.943 . S
O198 Zn197 1.962 . S
O198 C203 1.254 . S
O199 Zn196 2.031 . S
O199 C203 1.269 . S
O200 Zn197 1.986 . S
O200 C207 1.262 . S
O201 Zn196 2.049 . S
O201 C209 1.260 . S
O202 Zn197 1.996 . S
O202 C209 1.257 . S
C203 O198 1.254 . S
C203 O199 1.269 . S
C204 O205 1.249 . S
C204 O206 1.270 . S
O205 Zn197 1.943 . S
O205 C204 1.249 . S
O206 Zn196 2.067 . S
O206 C204 1.270 . S
C207 O200 1.262 . S
C207 O208 1.232 . S
O208 C207 1.232 . S
C209 O201 1.260 . S
C209 O202 1.257 . S
Zn210 O213 2.031 . S
Zn210 O215 2.049 . S
Zn210 O220 2.067 . S
Zn211 O212 1.962 . S
Zn211 O214 1.986 . S
Zn211 O216 1.996 . S
Zn211 O219 1.943 . S
O212 Zn211 1.962 . S
O212 C217 1.254 . S
O213 Zn210 2.031 . S
O213 C217 1.269 . S
O214 Zn211 1.986 . S
O214 C221 1.262 . S
O215 Zn210 2.049 . S
O215 C223 1.260 . S
O216 Zn211 1.996 . S
O216 C223 1.257 . S
C217 O212 1.254 . S
C217 O213 1.269 . S
C218 O219 1.249 . S
C218 O220 1.270 . S
O219 Zn211 1.943 . S
O219 C218 1.249 . S
O220 Zn210 2.067 . S
O220 C218 1.270 . S
C221 O214 1.262 . S
C221 O222 1.232 . S
O222 C221 1.232 . S
C223 O215 1.260 . S
C223 O216 1.257 . S
C224 C225 1.369 . S
C224 C226 1.419 . S
C224 H228 0.930 . S
C225 C224 1.369 . S
C225 C234 1.429 . S
C226 C224 1.419 . S
C226 C227 1.363 . S
C226 H229 0.929 . S
C227 C226 1.363 . S
C227 C233 1.428 . S
H228 C224 0.930 . S
H229 C226 0.929 . S
S230 N231 1.613 . S
S230 N232 1.610 . S
N231 S230 1.613 . S
N231 C234 1.350 . S
N232 S230 1.610 . S
N232 C233 1.351 . S
C233 C227 1.428 . S
C233 N232 1.351 . S
C233 C234 1.434 . S
C234 C225 1.429 . S
C234 N231 1.350 . S
C234 C233 1.434 . S
C235 C236 1.369 . S
C235 C237 1.419 . S
C235 H239 0.930 . S
C236 C235 1.369 . S
C236 C245 1.429 . S
C237 C235 1.419 . S
C237 C238 1.363 . S
C237 H240 0.929 . S
C238 C237 1.363 . S
C238 C244 1.428 . S
H239 C235 0.930 . S
H240 C237 0.929 . S
S241 N242 1.613 . S
S241 N243 1.610 . S
N242 S241 1.613 . S
N242 C245 1.350 . S
N243 S241 1.610 . S
N243 C244 1.351 . S
C244 C238 1.428 . S
C244 N243 1.351 . S
C244 C245 1.434 . S
C245 C236 1.429 . S
C245 N242 1.350 . S
C245 C244 1.434 . S
C246 C247 1.369 . S
C246 C248 1.419 . S
C246 H250 0.930 . S
C247 C246 1.369 . S
C247 C256 1.429 . S
C248 C246 1.419 . S
C248 C249 1.363 . S
C248 H251 0.929 . S
C249 C248 1.363 . S
C249 C255 1.428 . S
H250 C246 0.930 . S
H251 C248 0.929 . S
S252 N253 1.613 . S
S252 N254 1.610 . S
N253 S252 1.613 . S
N253 C256 1.350 . S
N254 S252 1.610 . S
N254 C255 1.351 . S
C255 C249 1.428 . S
C255 N254 1.351 . S
C255 C256 1.434 . S
C256 C247 1.429 . S
C256 N253 1.350 . S
C256 C255 1.434 . S
C257 C258 1.369 . S
C257 C259 1.419 . S
C257 H261 0.930 . S
C258 C257 1.369 . S
C258 C267 1.429 . S
C259 C257 1.419 . S
C259 C260 1.363 . S
C259 H262 0.929 . S
C260 C259 1.363 . S
C260 C266 1.428 . S
H261 C257 0.930 . S
H262 C259 0.929 . S
S263 N264 1.613 . S
S263 N265 1.610 . S
N264 S263 1.613 . S
N264 C267 1.350 . S
N265 S263 1.610 . S
N265 C266 1.351 . S
C266 C260 1.428 . S
C266 N265 1.351 . S
C266 C267 1.434 . S
C267 C258 1.429 . S
C267 N264 1.350 . S
C267 C266 1.434 . S
C268 C269 1.369 . S
C268 C270 1.419 . S
C268 H272 0.930 . S
C269 C268 1.369 . S
C269 C278 1.429 . S
C270 C268 1.419 . S
C270 C271 1.363 . S
C270 H273 0.929 . S
C271 C270 1.363 . S
C271 C277 1.428 . S
H272 C268 0.930 . S
H273 C270 0.929 . S
S274 N275 1.613 . S
S274 N276 1.610 . S
N275 S274 1.613 . S
N275 C278 1.350 . S
N276 S274 1.610 . S
N276 C277 1.351 . S
C277 C271 1.428 . S
C277 N276 1.351 . S
C277 C278 1.434 . S
C278 C269 1.429 . S
C278 N275 1.350 . S
C278 C277 1.434 . S
C279 C280 1.369 . S
C279 C281 1.419 . S
C279 H283 0.930 . S
C280 C279 1.369 . S
C280 C289 1.429 . S
C281 C279 1.419 . S
C281 C282 1.363 . S
C281 H284 0.929 . S
C282 C281 1.363 . S
C282 C288 1.428 . S
H283 C279 0.930 . S
H284 C281 0.929 . S
S285 N286 1.613 . S
S285 N287 1.610 . S
N286 S285 1.613 . S
N286 C289 1.350 . S
N287 S285 1.610 . S
N287 C288 1.351 . S
C288 C282 1.428 . S
C288 N287 1.351 . S
C288 C289 1.434 . S
C289 C280 1.429 . S
C289 N286 1.350 . S
C289 C288 1.434 . S
C290 C291 1.369 . S
C290 C292 1.419 . S
C290 H294 0.930 . S
C291 C290 1.369 . S
C291 C300 1.429 . S
C292 C290 1.419 . S
C292 C293 1.363 . S
C292 H295 0.929 . S
C293 C292 1.363 . S
C293 C299 1.428 . S
H294 C290 0.930 . S
H295 C292 0.929 . S
S296 N297 1.613 . S
S296 N298 1.610 . S
N297 S296 1.613 . S
N297 C300 1.350 . S
N298 S296 1.610 . S
N298 C299 1.351 . S
C299 C293 1.428 . S
C299 N298 1.351 . S
C299 C300 1.434 . S
C300 C291 1.429 . S
C300 N297 1.350 . S
C300 C299 1.434 . S
C301 C302 1.369 . S
C301 C303 1.419 . S
C301 H305 0.930 . S
C302 C301 1.369 . S
C302 C311 1.429 . S
C303 C301 1.419 . S
C303 C304 1.363 . S
C303 H306 0.929 . S
C304 C303 1.363 . S
C304 C310 1.428 . S
H305 C301 0.930 . S
H306 C303 0.929 . S
S307 N308 1.613 . S
S307 N309 1.610 . S
N308 S307 1.613 . S
N308 C311 1.350 . S
N309 S307 1.610 . S
N309 C310 1.351 . S
C310 C304 1.428 . S
C310 N309 1.351 . S
C310 C311 1.434 . S
C311 C302 1.429 . S
C311 N308 1.350 . S
C311 C310 1.434 . S
C312 C313 1.369 . S
C312 C314 1.419 1_556 S
C312 H316 0.930 . S
C313 C312 1.369 . S
C313 C322 1.429 . S
C314 C312 1.419 1_554 S
C314 C315 1.363 . S
C314 H317 0.929 . S
C315 C314 1.363 . S
C315 C321 1.428 . S
H316 C312 0.930 . S
H317 C314 0.929 . S
S318 N319 1.634 . S
S318 N320 1.589 1_556 S
N319 S318 1.634 . S
N319 C322 1.350 . S
N320 S318 1.589 1_554 S
N320 C321 1.351 . S
C321 C315 1.428 . S
C321 N320 1.351 . S
C321 C322 1.434 1_554 S
C322 C313 1.429 . S
C322 N319 1.350 . S
C322 C321 1.434 1_556 S
C323 C324 1.369 . S
C323 C325 1.419 1_556 S
C323 H327 0.930 . S
C324 C323 1.369 . S
C324 C333 1.429 . S
C325 C323 1.419 1_554 S
C325 C326 1.363 . S
C325 H328 0.929 . S
C326 C325 1.363 . S
C326 C332 1.428 . S
H327 C323 0.930 . S
H328 C325 0.929 . S
S329 N330 1.613 1_554 S
S329 N331 1.610 . S
N330 S329 1.613 1_556 S
N330 C333 1.350 . S
N331 S329 1.610 . S
N331 C332 1.351 . S
C332 C326 1.428 . S
C332 N331 1.351 . S
C332 C333 1.434 1_554 S
C333 C324 1.429 . S
C333 N330 1.350 . S
C333 C332 1.434 1_556 S
C334 C335 1.369 . S
C334 C336 1.419 1_556 S
C334 H338 0.930 . S
C335 C334 1.369 . S
C335 C344 1.429 . S
C336 C334 1.419 1_554 S
C336 C337 1.363 . S
C336 H339 0.929 . S
C337 C336 1.363 . S
C337 C343 1.428 . S
H338 C334 0.930 . S
H339 C336 0.929 . S
S340 N341 1.613 . S
S340 N342 1.610 1_556 S
N341 S340 1.613 . S
N341 C344 1.350 . S
N342 S340 1.610 1_554 S
N342 C343 1.351 . S
C343 C337 1.428 . S
C343 N342 1.351 . S
C343 C344 1.434 1_554 S
C344 C335 1.429 . S
C344 N341 1.350 . S
C344 C343 1.434 1_556 S
C345 C346 1.369 . S
C345 C347 1.419 1_554 S
C345 H349 0.930 . S
C346 C345 1.369 . S
C346 C355 1.429 . S
C347 C345 1.419 1_556 S
C347 C348 1.363 . S
C347 H350 0.929 . S
C348 C347 1.363 . S
C348 C354 1.428 . S
H349 C345 0.930 . S
H350 C347 0.929 . S
S351 N352 1.613 1_556 S
S351 N353 1.610 . S
N352 S351 1.613 1_554 S
N352 C355 1.350 . S
N353 S351 1.610 . S
N353 C354 1.351 . S
C354 C348 1.428 . S
C354 N353 1.351 . S
C354 C355 1.434 1_556 S
C355 C346 1.429 . S
C355 N352 1.350 . S
C355 C354 1.434 1_554 S
C356 C357 1.369 . S
C356 C358 1.419 . S
C356 H360 0.930 . S
C357 C356 1.369 . S
C357 C366 1.429 . S
C358 C356 1.419 . S
C358 C359 1.363 . S
C358 H361 0.929 . S
C359 C358 1.363 . S
C359 C365 1.428 . S
H360 C356 0.930 . S
H361 C358 0.929 . S
S362 N363 1.613 . S
S362 N364 1.610 . S
N363 S362 1.613 . S
N363 C366 1.350 . S
N364 S362 1.610 . S
N364 C365 1.351 . S
C365 C359 1.428 . S
C365 N364 1.351 . S
C365 C366 1.434 . S
C366 C357 1.429 . S
C366 N363 1.350 . S
C366 C365 1.434 . S
C367 C368 1.369 . S
C367 C369 1.419 . S
C367 H371 0.930 . S
C368 C367 1.369 . S
C368 C377 1.429 . S
C369 C367 1.419 . S
C369 C370 1.363 . S
C369 H372 0.929 . S
C370 C369 1.363 . S
C370 C376 1.428 . S
H371 C367 0.930 . S
H372 C369 0.929 . S
S373 N374 1.613 . S
S373 N375 1.610 . S
N374 S373 1.613 . S
N374 C377 1.350 . S
N375 S373 1.610 . S
N375 C376 1.351 . S
C376 C370 1.428 . S
C376 N375 1.351 . S
C376 C377 1.434 . S
C377 C368 1.429 . S
C377 N374 1.350 . S
C377 C376 1.434 . S
C378 C379 1.369 . S
C378 C380 1.419 . S
C378 H382 0.930 . S
C379 C378 1.369 . S
C379 C388 1.429 . S
C380 C378 1.419 . S
C380 C381 1.363 . S
C380 H383 0.929 . S
C381 C380 1.363 . S
C381 C387 1.428 . S
H382 C378 0.930 . S
H383 C380 0.929 . S
S384 N385 1.613 . S
S384 N386 1.610 . S
N385 S384 1.613 . S
N385 C388 1.350 . S
N386 S384 1.610 . S
N386 C387 1.351 . S
C387 C381 1.428 . S
C387 N386 1.351 . S
C387 C388 1.434 . S
C388 C379 1.429 . S
C388 N385 1.350 . S
C388 C387 1.434 . S
C389 C390 1.369 . S
C389 C391 1.419 . S
C389 H393 0.930 . S
C390 C389 1.369 . S
C390 C399 1.429 . S
C391 C389 1.419 . S
C391 C392 1.363 . S
C391 H394 0.929 . S
C392 C391 1.363 . S
C392 C398 1.428 . S
H393 C389 0.930 . S
H394 C391 0.929 . S
S395 N396 1.613 . S
S395 N397 1.610 . S
N396 S395 1.613 . S
N396 C399 1.350 . S
N397 S395 1.610 . S
N397 C398 1.351 . S
C398 C392 1.428 . S
C398 N397 1.351 . S
C398 C399 1.434 . S
C399 C390 1.429 . S
C399 N396 1.350 . S
C399 C398 1.434 . S
C400 C401 1.369 . S
C400 C402 1.419 . S
C400 H404 0.930 . S
C401 C400 1.369 . S
C401 C410 1.429 . S
C402 C400 1.419 . S
C402 C403 1.363 . S
C402 H405 0.929 . S
C403 C402 1.363 . S
C403 C409 1.428 . S
H404 C400 0.930 . S
H405 C402 0.929 . S
S406 N407 1.613 . S
S406 N408 1.610 . S
N407 S406 1.613 . S
N407 C410 1.350 . S
N408 S406 1.610 . S
N408 C409 1.351 . S
C409 C403 1.428 . S
C409 N408 1.351 . S
C409 C410 1.434 . S
C410 C401 1.429 . S
C410 N407 1.350 . S
C410 C409 1.434 . S
C411 C412 1.369 . S
C411 C413 1.419 . S
C411 H415 0.930 . S
C412 C411 1.369 . S
C412 C421 1.429 . S
C413 C411 1.419 . S
C413 C414 1.363 . S
C413 H416 0.929 . S
C414 C413 1.363 . S
C414 C420 1.428 . S
H415 C411 0.930 . S
H416 C413 0.929 . S
S417 N418 1.613 . S
S417 N419 1.610 . S
N418 S417 1.613 . S
N418 C421 1.350 . S
N419 S417 1.610 . S
N419 C420 1.351 . S
C420 C414 1.428 . S
C420 N419 1.351 . S
C420 C421 1.434 . S
C421 C412 1.429 . S
C421 N418 1.350 . S
C421 C420 1.434 . S
C422 C423 1.369 . S
C422 C424 1.419 . S
C422 H426 0.930 . S
C423 C422 1.369 . S
C423 C432 1.429 . S
C424 C422 1.419 . S
C424 C425 1.363 . S
C424 H427 0.929 . S
C425 C424 1.363 . S
C425 C431 1.428 . S
H426 C422 0.930 . S
H427 C424 0.929 . S
S428 N429 1.613 . S
S428 N430 1.610 . S
N429 S428 1.613 . S
N429 C432 1.350 . S
N430 S428 1.610 . S
N430 C431 1.351 . S
C431 C425 1.428 . S
C431 N430 1.351 . S
C431 C432 1.434 . S
C432 C423 1.429 . S
C432 N429 1.350 . S
C432 C431 1.434 . S
C433 C434 1.369 . S
C433 C435 1.419 . S
C433 H437 0.930 . S
C434 C433 1.369 . S
C434 C443 1.429 . S
C435 C433 1.419 . S
C435 C436 1.363 . S
C435 H438 0.929 . S
C436 C435 1.363 . S
C436 C442 1.428 . S
H437 C433 0.930 . S
H438 C435 0.929 . S
S439 N440 1.613 . S
S439 N441 1.610 . S
N440 S439 1.613 . S
N440 C443 1.350 . S
N441 S439 1.610 . S
N441 C442 1.351 . S
C442 C436 1.428 . S
C442 N441 1.351 . S
C442 C443 1.434 . S
C443 C434 1.429 . S
C443 N440 1.350 . S
C443 C442 1.434 . S
C444 C445 1.369 . S
C444 C446 1.419 . S
C444 H448 0.930 . S
C445 C444 1.369 . S
C445 C454 1.429 . S
C446 C444 1.419 . S
C446 C447 1.363 . S
C446 H449 0.929 . S
C447 C446 1.363 . S
C447 C453 1.428 . S
H448 C444 0.930 . S
H449 C446 0.929 . S
S450 N451 1.613 . S
S450 N452 1.610 . S
N451 S450 1.613 . S
N451 C454 1.350 . S
N452 S450 1.610 . S
N452 C453 1.351 . S
C453 C447 1.428 . S
C453 N452 1.351 . S
C453 C454 1.434 . S
C454 C445 1.429 . S
C454 N451 1.350 . S
C454 C453 1.434 . S
C455 C456 1.369 . S
C455 C457 1.419 . S
C455 H459 0.930 . S
C456 C455 1.369 . S
C456 C465 1.429 . S
C457 C455 1.419 . S
C457 C458 1.363 . S
C457 H460 0.929 . S
C458 C457 1.363 . S
C458 C464 1.428 . S
H459 C455 0.930 . S
H460 C457 0.929 . S
S461 N462 1.613 . S
S461 N463 1.610 . S
N462 S461 1.613 . S
N462 C465 1.350 . S
N463 S461 1.610 . S
N463 C464 1.351 . S
C464 C458 1.428 . S
C464 N463 1.351 . S
C464 C465 1.434 . S
C465 C456 1.429 . S
C465 N462 1.350 . S
C465 C464 1.434 . S
C466 C467 1.369 . S
C466 C468 1.419 . S
C466 H470 0.930 . S
C467 C466 1.369 . S
C467 C476 1.429 . S
C468 C466 1.419 . S
C468 C469 1.363 . S
C468 H471 0.929 . S
C469 C468 1.363 . S
C469 C475 1.428 . S
H470 C466 0.930 . S
H471 C468 0.929 . S
S472 N473 1.613 . S
S472 N474 1.610 . S
N473 S472 1.613 . S
N473 C476 1.350 . S
N474 S472 1.610 . S
N474 C475 1.351 . S
C475 C469 1.428 . S
C475 N474 1.351 . S
C475 C476 1.434 . S
C476 C467 1.429 . S
C476 N473 1.350 . S
C476 C475 1.434 . S
C477 C478 1.369 . S
C477 C479 1.419 . S
C477 H481 0.930 . S
C478 C477 1.369 . S
C478 C487 1.429 . S
C479 C477 1.419 . S
C479 C480 1.363 . S
C479 H482 0.929 . S
C480 C479 1.363 . S
C480 C486 1.428 . S
H481 C477 0.930 . S
H482 C479 0.929 . S
S483 N484 1.613 . S
S483 N485 1.610 . S
N484 S483 1.613 . S
N484 C487 1.350 . S
N485 S483 1.610 . S
N485 C486 1.351 . S
C486 C480 1.428 . S
C486 N485 1.351 . S
C486 C487 1.434 . S
C487 C478 1.429 . S
C487 N484 1.350 . S
C487 C486 1.434 . S
C488 C489 1.369 . S
C488 C490 1.419 1_545 S
C488 H492 0.930 . S
C489 C488 1.369 . S
C489 C498 1.429 . S
C490 C488 1.419 1_565 S
C490 C491 1.363 . S
C490 H493 0.929 . S
C491 C490 1.363 . S
C491 C497 1.428 . S
H492 C488 0.930 . S
H493 C490 0.929 . S
S494 N495 1.613 . S
S494 N496 1.610 1_545 S
N495 S494 1.613 . S
N495 C498 1.350 . S
N496 S494 1.610 1_565 S
N496 C497 1.351 . S
C497 C491 1.428 . S
C497 N496 1.351 . S
C497 C498 1.434 1_565 S
C498 C489 1.429 . S
C498 N495 1.350 . S
C498 C497 1.434 1_545 S
C499 C500 1.369 . S
C499 C501 1.419 1_655 S
C499 H503 0.930 . S
C500 C499 1.369 . S
C500 C509 1.429 . S
C501 C499 1.419 1_455 S
C501 C502 1.363 . S
C501 H504 0.929 . S
C502 C501 1.363 . S
C502 C508 1.428 . S
H503 C499 0.930 . S
H504 C501 0.929 . S
S505 N506 1.613 . S
S505 N507 1.610 1_655 S
N506 S505 1.613 . S
N506 C509 1.350 . S
N507 S505 1.610 1_455 S
N507 C508 1.351 . S
C508 C502 1.428 . S
C508 N507 1.351 . S
C508 C509 1.434 1_455 S
C509 C500 1.429 . S
C509 N506 1.350 . S
C509 C508 1.434 1_655 S
C510 C511 1.369 . S
C510 C512 1.419 1_545 S
C510 H514 0.930 . S
C511 C510 1.369 . S
C511 C520 1.429 . S
C512 C510 1.419 1_565 S
C512 C513 1.363 . S
C512 H515 0.929 . S
C513 C512 1.363 . S
C513 C519 1.428 . S
H514 C510 0.930 . S
H515 C512 0.929 . S
S516 N517 1.613 . S
S516 N518 1.610 1_545 S
N517 S516 1.613 . S
N517 C520 1.350 . S
N518 S516 1.610 1_565 S
N518 C519 1.351 . S
C519 C513 1.428 . S
C519 N518 1.351 . S
C519 C520 1.434 1_565 S
C520 C511 1.429 . S
C520 N517 1.350 . S
C520 C519 1.434 1_545 S
C521 C522 1.369 . S
C521 C523 1.419 1_455 S
C521 H525 0.930 . S
C522 C521 1.369 . S
C522 C531 1.429 . S
C523 C521 1.419 1_655 S
C523 C524 1.363 . S
C523 H526 0.929 . S
C524 C523 1.363 . S
C524 C530 1.428 . S
H525 C521 0.930 . S
H526 C523 0.929 . S
S527 N528 1.613 . S
S527 N529 1.610 1_455 S
N528 S527 1.613 . S
N528 C531 1.350 . S
N529 S527 1.610 1_655 S
N529 C530 1.351 . S
C530 C524 1.428 . S
C530 N529 1.351 . S
C530 C531 1.434 1_655 S
C531 C522 1.429 . S
C531 N528 1.350 . S
C531 C530 1.434 1_455 S
C532 C533 1.369 . S
C532 C534 1.419 1_545 S
C532 H536 0.930 . S
C533 C532 1.369 . S
C533 C542 1.429 . S
C534 C532 1.419 1_565 S
C534 C535 1.363 . S
C534 H537 0.929 . S
C535 C534 1.363 . S
C535 C541 1.428 . S
H536 C532 0.930 . S
H537 C534 0.929 . S
S538 N539 1.613 . S
S538 N540 1.610 1_545 S
N539 S538 1.613 . S
N539 C542 1.350 . S
N540 S538 1.610 1_565 S
N540 C541 1.351 . S
C541 C535 1.428 . S
C541 N540 1.351 . S
C541 C542 1.434 1_565 S
C542 C533 1.429 . S
C542 N539 1.350 . S
C542 C541 1.434 1_545 S
C543 C544 1.369 . S
C543 C545 1.419 1_655 S
C543 H547 0.930 . S
C544 C543 1.369 . S
C544 C553 1.429 . S
C545 C543 1.419 1_455 S
C545 C546 1.363 . S
C545 H548 0.929 . S
C546 C545 1.363 . S
C546 C552 1.428 . S
H547 C543 0.930 . S
H548 C545 0.929 . S
S549 N550 1.613 . S
S549 N551 1.610 1_655 S
N550 S549 1.613 . S
N550 C553 1.350 . S
N551 S549 1.610 1_455 S
N551 C552 1.351 . S
C552 C546 1.428 . S
C552 N551 1.351 . S
C552 C553 1.434 1_455 S
C553 C544 1.429 . S
C553 N550 1.350 . S
C553 C552 1.434 1_655 S
C554 C555 1.369 . S
C554 C556 1.419 1_565 S
C554 H558 0.930 . S
C555 C554 1.369 . S
C555 C564 1.429 . S
C556 C554 1.419 1_545 S
C556 C557 1.363 . S
C556 H559 0.929 . S
C557 C556 1.363 . S
C557 C563 1.428 . S
H558 C554 0.930 . S
H559 C556 0.929 . S
S560 N561 1.613 1_545 S
S560 N562 1.610 . S
N561 S560 1.613 1_565 S
N561 C564 1.350 . S
N562 S560 1.610 . S
N562 C563 1.351 . S
C563 C557 1.428 . S
C563 N562 1.351 . S
C563 C564 1.434 1_545 S
C564 C555 1.429 . S
C564 N561 1.350 . S
C564 C563 1.434 1_565 S
C565 C566 1.369 . S
C565 C567 1.419 1_455 S
C565 H569 0.930 . S
C566 C565 1.369 . S
C566 C575 1.429 . S
C567 C565 1.419 1_655 S
C567 C568 1.363 . S
C567 H570 0.929 . S
C568 C567 1.363 . S
C568 C574 1.428 . S
H569 C565 0.930 . S
H570 C567 0.929 . S
S571 N572 1.613 1_655 S
S571 N573 1.610 . S
N572 S571 1.613 1_455 S
N572 C575 1.350 . S
N573 S571 1.610 . S
N573 C574 1.351 . S
C574 C568 1.428 . S
C574 N573 1.351 . S
C574 C575 1.434 1_655 S
C575 C566 1.429 . S
C575 N572 1.350 . S
C575 C574 1.434 1_455 S
C225 C81 1.367 . S
C227 C11 1.366 . S
C236 C95 1.366 . S
C238 C25 1.365 . S
C247 C39 1.367 . S
C249 C109 1.366 . S
C258 C53 1.366 . S
C260 C67 1.367 . S
C269 C193 1.365 . S
C271 C123 1.366 . S
C280 C207 1.365 . S
C282 C137 1.366 . S
C291 C151 1.366 . S
C293 C221 1.365 . S
C302 C165 1.364 . S
C304 C179 1.365 . S
C313 C153 1.388 . S
C315 C13 1.391 . S
C324 C167 1.397 . S
C326 C27 1.393 . S
C335 C125 1.388 . S
C337 C41 1.391 . S
C346 C55 1.402 . S
C348 C139 1.398 . S
C357 C209 1.390 . S
C359 C69 1.394 . S
C368 C223 1.389 . S
C370 C83 1.390 . S
C379 C97 1.389 . S
C381 C181 1.390 . S
C390 C195 1.392 . S
C392 C111 1.396 . S
C401 C64 1.584 . S
C403 C8 1.580 . S
C412 C22 1.578 . S
C414 C78 1.582 . S
C423 C36 1.584 . S
C425 C92 1.580 . S
C434 C106 1.578 . S
C436 C50 1.581 . S
C445 C119 1.281 . S
C447 C175 1.278 . S
C456 C189 1.282 . S
C458 C133 1.278 . S
C467 C147 1.281 . S
C469 C203 1.283 . S
C478 C217 1.277 . S
C480 C161 1.281 . S
C489 C162 1.584 . S
C491 C190 1.581 . S
C500 C120 1.584 . S
C502 C204 1.581 . S
C511 C218 1.582 . S
C513 C134 1.579 . S
C522 C148 1.582 . S
C524 C176 1.579 . S
C533 C77 1.284 . S
C535 C49 1.279 . S
C544 C91 1.284 . S
C546 C7 1.280 . S
C555 C105 1.277 . S
C557 C21 1.282 . S
C566 C63 1.277 . S
C568 C35 1.280 . S
