# Generated by pormake.
# Topology sod, (4)-cn, num edge types: 1
# Building blocks:
#     Node 0, Type 0, BuildingBlock: CEKHIL_clean_sbu_0, # of connection points: 4
#     Node 1, Type 0, BuildingBlock: CEKHIL_clean_sbu_0, # of connection points: 4
#     Node 2, Type 0, BuildingBlock: CEKHIL_clean_sbu_0, # of connection points: 4
#     Node 3, Type 0, BuildingBlock: CEKHIL_clean_sbu_0, # of connection points: 4
#     Node 4, Type 0, BuildingBlock: CEKHIL_clean_sbu_0, # of connection points: 4
#     Node 5, Type 0, BuildingBlock: CEKHIL_clean_sbu_0, # of connection points: 4
#     Node 6, Type 0, BuildingBlock: CEKHIL_clean_sbu_0, # of connection points: 4
#     Node 7, Type 0, BuildingBlock: CEKHIL_clean_sbu_0, # of connection points: 4
#     Node 8, Type 0, BuildingBlock: CEKHIL_clean_sbu_0, # of connection points: 4
#     Node 9, Type 0, BuildingBlock: CEKHIL_clean_sbu_0, # of connection points: 4
#     Node 10, Type 0, BuildingBlock: CEKHIL_clean_sbu_0, # of connection points: 4
#     Node 11, Type 0, BuildingBlock: CEKHIL_clean_sbu_0, # of connection points: 4
#     Edge 12, Type (0, 0), BuildingBlock: UVAHIK_clean_linker_0, # of connection points: 2
#     Edge 13, Type (0, 0), BuildingBlock: UVAHIK_clean_linker_0, # of connection points: 2
#     Edge 14, Type (0, 0), BuildingBlock: UVAHIK_clean_linker_0, # of connection points: 2
#     Edge 15, Type (0, 0), BuildingBlock: UVAHIK_clean_linker_0, # of connection points: 2
#     Edge 16, Type (0, 0), BuildingBlock: UVAHIK_clean_linker_0, # of connection points: 2
#     Edge 17, Type (0, 0), BuildingBlock: UVAHIK_clean_linker_0, # of connection points: 2
#     Edge 18, Type (0, 0), BuildingBlock: UVAHIK_clean_linker_0, # of connection points: 2
#     Edge 19, Type (0, 0), BuildingBlock: UVAHIK_clean_linker_0, # of connection points: 2
#     Edge 20, Type (0, 0), BuildingBlock: UVAHIK_clean_linker_0, # of connection points: 2
#     Edge 21, Type (0, 0), BuildingBlock: UVAHIK_clean_linker_0, # of connection points: 2
#     Edge 22, Type (0, 0), BuildingBlock: UVAHIK_clean_linker_0, # of connection points: 2
#     Edge 23, Type (0, 0), BuildingBlock: UVAHIK_clean_linker_0, # of connection points: 2
#     Edge 24, Type (0, 0), BuildingBlock: UVAHIK_clean_linker_0, # of connection points: 2
#     Edge 25, Type (0, 0), BuildingBlock: UVAHIK_clean_linker_0, # of connection points: 2
#     Edge 26, Type (0, 0), BuildingBlock: UVAHIK_clean_linker_0, # of connection points: 2
#     Edge 27, Type (0, 0), BuildingBlock: UVAHIK_clean_linker_0, # of connection points: 2
#     Edge 28, Type (0, 0), BuildingBlock: UVAHIK_clean_linker_0, # of connection points: 2
#     Edge 29, Type (0, 0), BuildingBlock: UVAHIK_clean_linker_0, # of connection points: 2
#     Edge 30, Type (0, 0), BuildingBlock: UVAHIK_clean_linker_0, # of connection points: 2
#     Edge 31, Type (0, 0), BuildingBlock: UVAHIK_clean_linker_0, # of connection points: 2
#     Edge 32, Type (0, 0), BuildingBlock: UVAHIK_clean_linker_0, # of connection points: 2
#     Edge 33, Type (0, 0), BuildingBlock: UVAHIK_clean_linker_0, # of connection points: 2
#     Edge 34, Type (0, 0), BuildingBlock: UVAHIK_clean_linker_0, # of connection points: 2
#     Edge 35, Type (0, 0), BuildingBlock: UVAHIK_clean_linker_0, # of connection points: 2
# Relax obj value: 0.139
# Max RMSD: 0.179
# Mean RMSD: 0.169
data_MOF--net-sod--node1-CEKHIL_clean_sbu_0--edge1-UVAHIK_clean_linker_0
_symmetry_space_group_name_H-M    P1
_symmetry_Int_Tables_number       1
_symmetry_cell_setting            triclinic
loop_
_symmetry_equiv_pos_as_xyz
'x, y, z'
_cell_length_a     54.408157
_cell_length_b     54.613489
_cell_length_c     54.491568
_cell_angle_alpha  91.830527
_cell_angle_beta   90.038801
_cell_angle_gamma 90.921924
loop_
_atom_site_label
_atom_site_type_symbol
_atom_site_fract_x
_atom_site_fract_y
_atom_site_fract_z
_atom_type_partial_charge
Co0 Co 0.00158 0.26097 0.50479 0.0
O1 O 0.98184 0.28545 0.48965 0.0
O2 O 0.01942 0.27508 0.47812 0.0
C3 C 0.97237 0.23152 0.50739 0.0
O4 O 0.02737 0.23628 0.51439 0.0
Co5 Co 0.99074 0.24152 0.55675 0.0
O6 O 0.01574 0.21674 0.54827 0.0
C7 C 0.01104 0.29144 0.55147 0.0
C8 C 0.00039 0.28869 0.47499 0.0
C9 C 0.03011 0.21937 0.53007 0.0
O10 O 0.01498 0.28713 0.52846 0.0
O11 O 0.00019 0.27625 0.56539 0.0
O12 O 0.98387 0.23461 0.48676 0.0
O13 O 0.97712 0.24762 0.52465 0.0
Co14 Co 0.75592 0.00721 0.50595 0.0
O15 O 0.78414 0.99331 0.48929 0.0
O16 O 0.77087 0.9836 0.52625 0.0
C17 C 0.72963 0.00537 0.47401 0.0
O18 O 0.72759 0.01525 0.52895 0.0
Co19 Co 0.73078 0.05553 0.49221 0.0
O20 O 0.70453 0.04566 0.51524 0.0
C21 C 0.77943 0.05712 0.51632 0.0
C22 C 0.78684 0.98046 0.50881 0.0
C23 C 0.70834 0.02856 0.53004 0.0
O24 O 0.77773 0.03413 0.52074 0.0
O25 O 0.76351 0.0684 0.50381 0.0
O26 O 0.73358 0.98585 0.48645 0.0
O27 O 0.74309 0.0243 0.47987 0.0
Co28 Co 0.99622 0.76444 0.5225 0.0
O29 O 0.97818 0.73765 0.53691 0.0
O30 O 0.01714 0.74764 0.54453 0.0
C31 C 0.96703 0.793 0.52709 0.0
O32 O 0.02105 0.79099 0.51352 0.0
Co33 Co 0.98031 0.79095 0.47573 0.0
O34 O 0.00563 0.81584 0.48556 0.0
C35 C -0.00153 0.74024 0.47188 0.0
C36 C -0.00155 0.73328 0.54858 0.0
C37 C 0.02196 0.81073 0.50124 0.0
O38 O 0.00616 0.74178 0.49425 0.0
O39 O 0.98628 0.75718 0.46195 0.0
O40 O 0.98099 0.78788 0.54559 0.0
O41 O 0.96981 0.77948 0.50749 0.0
Co42 Co 0.25712 0.01913 0.50569 0.0
O43 O 0.23037 0.0324 0.48719 0.0
O44 O 0.23934 0.04221 0.52598 0.0
C45 C 0.28608 0.0225 0.47639 0.0
O46 O 0.28347 0.01125 0.53073 0.0
Co47 Co 0.28414 0.97154 0.49011 0.0
O48 O 0.30713 0.98025 0.5173 0.0
C49 C 0.23364 0.96862 0.5096 0.0
C50 C 0.22533 0.0452 0.50704 0.0
C51 C 0.3021 0.99725 0.53294 0.0
O52 O 0.23483 0.99143 0.5164 0.0
O53 O 0.25058 0.95801 0.49715 0.0
O54 O 0.2804 0.04152 0.4901 0.0
O55 O 0.27287 0.00303 0.47947 0.0
Co56 Co 0.51401 0.02275 0.2609 0.0
O57 O 0.53348 0.03683 0.23506 0.0
O58 O 0.49481 0.04589 0.24374 0.0
C59 C 0.54266 0.02561 0.29068 0.0
O60 O 0.48814 0.01413 0.28634 0.0
Co61 Co 0.527 0.97466 0.2865 0.0
O62 O 0.5007 0.9838 0.30999 0.0
C63 C 0.50814 0.97265 0.23571 0.0
C64 C 0.51403 0.04934 0.23011 0.0
C65 C 0.48557 0.00049 0.30501 0.0
O66 O 0.50276 0.99552 0.23731 0.0
O67 O 0.51933 0.96153 0.25263 0.0
O68 O 0.52994 0.04473 0.28536 0.0
O69 O 0.53921 0.00644 0.27658 0.0
Co70 Co 0.01119 0.50288 0.26469 0.0
O71 O 0.02947 0.4885 0.29093 0.0
O72 O 0.99146 0.47806 0.27978 0.0
C73 C 0.04122 0.50212 0.23624 0.0
O74 O 0.98641 0.51168 0.23837 0.0
Co75 Co 0.02523 0.55243 0.2416 0.0
O76 O -0.0007 0.54406 0.21713 0.0
C77 C 0.00388 0.55184 0.29135 0.0
C78 C 0.01007 0.47474 0.29415 0.0
C79 C 0.98418 0.52648 0.2206 0.0
O80 O -0.00121 0.52879 0.28878 0.0
O81 O 0.01572 0.56401 0.27539 0.0
O82 O 0.02828 0.48242 0.24025 0.0
O83 O 0.03711 0.52068 0.25084 0.0
Co84 Co 0.51438 0.00505 0.7627 0.0
O85 O 0.53333 0.9894 0.78762 0.0
O86 O 0.49378 0.98246 0.78009 0.0
C87 C 0.5421 0.00108 0.73211 0.0
O88 O 0.48864 0.01569 0.73807 0.0
Co89 Co 0.5313 0.05264 0.7373 0.0
O90 O 0.50313 0.04611 0.71498 0.0
C91 C 0.51413 0.055 0.78871 0.0
C92 C 0.51315 0.9776 0.79287 0.0
C93 C 0.4867 0.0302 0.72001 0.0
O94 O 0.5063 0.03259 0.78709 0.0
O95 O 0.52612 0.06534 0.77159 0.0
O96 O 0.52779 0.98266 0.73734 0.0
O97 O 0.54058 0.0201 0.74662 0.0
Co98 Co 0.01599 0.52097 0.7601 0.0
O99 O 0.03527 0.53622 0.73476 0.0
O100 O 0.99696 0.54547 0.7447 0.0
C101 C 0.04521 0.52139 0.7894 0.0
O102 O 0.99031 0.51146 0.78542 0.0
Co103 Co 0.02821 0.4713 0.78311 0.0
O104 O 0.00269 0.47997 0.80761 0.0
C105 C 0.00985 0.47258 0.73211 0.0
C106 C 0.01595 0.5493 0.73085 0.0
C107 C 0.98783 0.49717 0.8036 0.0
O108 O 0.00404 0.49525 0.73515 0.0
O109 O 0.02114 0.46062 0.74837 0.0
O110 O 0.0328 0.54111 0.78559 0.0
O111 O 0.041 0.5032 0.77426 0.0
Co112 Co 0.25287 0.50798 0.00793 0.0
O113 O 0.27795 0.49129 0.98895 0.0
O114 O 0.27116 0.48723 0.02873 0.0
C115 C 0.22169 0.50215 0.98116 0.0
O116 O 0.22854 0.51977 0.03381 0.0
Co117 Co 0.22627 0.55452 0.99149 0.0
O118 O 0.20419 0.54909 0.01985 0.0
C119 C 0.27915 0.55576 0.0024 0.0
C120 C 0.28388 0.48118 0.0094 0.0
C121 C 0.20986 0.53378 0.03599 0.0
O122 O 0.27664 0.53621 0.01479 0.0
O123 O 0.2618 0.56444 0.98961 0.0
O124 O 0.22782 0.48454 0.9954 0.0
O125 O 0.23577 0.52136 0.98207 0.0
Co126 Co 0.49452 0.26515 0.02305 0.0
O127 O 0.47716 0.23773 0.03698 0.0
O128 O 0.51522 0.24977 0.04636 0.0
C129 C 0.46378 0.29219 0.02576 0.0
O130 O 0.51841 0.29268 0.01461 0.0
Co131 Co 0.47937 0.28967 0.97494 0.0
O132 O 0.50334 0.31583 0.98501 0.0
C133 C 0.5016 0.24067 0.97288 0.0
C134 C 0.49709 0.23447 0.0496 0.0
C135 C 0.51919 0.31192 0.00158 0.0
O136 O 0.50705 0.24269 0.99585 0.0
O137 O 0.4893 0.25666 0.96163 0.0
O138 O 0.47716 0.28808 0.04496 0.0
O139 O 0.46804 0.2785 0.00655 0.0
Co140 Co 0.75837 0.51719 0.00351 0.0
O141 O 0.73249 0.53212 0.98512 0.0
O142 O 0.74121 0.54039 0.02426 0.0
C143 C 0.78794 0.52033 0.97478 0.0
O144 O 0.78403 0.50748 0.02856 0.0
Co145 Co 0.78362 0.46896 0.98669 0.0
O146 O 0.80674 0.47616 0.01416 0.0
C147 C 0.73288 0.46741 0.00568 0.0
C148 C 0.72769 0.54456 0.00525 0.0
C149 C 0.80218 0.49281 0.03034 0.0
O150 O 0.73484 0.49001 0.01308 0.0
O151 O 0.74953 0.4565 0.9931 0.0
O152 O 0.78277 0.53915 0.98896 0.0
O153 O 0.77388 0.50129 0.97702 0.0
Co154 Co 0.50394 0.76083 0.00172 0.0
O155 O 0.48454 0.78545 0.98632 0.0
O156 O 0.52411 0.77919 0.9796 0.0
C157 C 0.47666 0.72958 0.99691 0.0
O158 O 0.53006 0.73681 0.01214 0.0
Co159 Co 0.48779 0.73429 0.04883 0.0
O160 O 0.51572 0.7125 0.0416 0.0
C161 C 0.50417 0.78613 0.05204 0.0
C162 C 0.50455 0.79149 0.97479 0.0
C163 C 0.53208 0.71831 0.02603 0.0
O164 O 0.51197 0.78492 0.02972 0.0
O165 O 0.49251 0.76856 0.06209 0.0
O166 O 0.49076 0.73563 0.97872 0.0
O167 O 0.47805 0.74372 0.01628 0.0
C168 C 0.01752 0.30657 0.43687 0.0
C169 C 0.00033 0.30749 0.45609 0.0
C170 C 0.01808 0.32468 0.41933 0.0
C171 C 0.00395 0.38857 0.41004 0.0
H172 H 0.00428 0.37038 0.34063 0.0
C173 C 0.02611 0.45627 0.33246 0.0
C174 C 0.00905 0.45596 0.31307 0.0
C175 C 0.02481 0.43846 0.35036 0.0
C176 C 0.00418 0.3757 0.35995 0.0
H177 H 0.97035 0.32816 0.47216 0.0
H178 H 0.97169 0.36019 0.44166 0.0
H179 H 0.00203 0.33844 0.37108 0.0
H180 H 0.97742 0.43671 0.2971 0.0
H181 H 0.97556 0.40536 0.32801 0.0
H182 H 0.00647 0.42586 0.39885 0.0
C183 C 0.98457 0.3453 0.44015 0.0
C184 C 0.00301 0.35746 0.37734 0.0
C185 C 0.98371 0.32692 0.45747 0.0
C186 C 0.9908 0.43745 0.31184 0.0
C187 C 0.98978 0.41945 0.32945 0.0
C188 C 0.00556 0.40682 0.39264 0.0
C189 C 0.00175 0.34431 0.42091 0.0
C190 C 0.00279 0.36372 0.40253 0.0
C191 C 0.00673 0.41979 0.3489 0.0
C192 C 0.00557 0.40054 0.36743 0.0
H193 H 0.03055 0.29181 0.43534 0.0
H194 H 0.03159 0.32357 0.40476 0.0
H195 H 0.00398 0.39385 0.42937 0.0
H196 H 0.04031 0.47037 0.33391 0.0
H197 H 0.03816 0.43904 0.36513 0.0
C198 C 0.70361 0.03035 0.44721 0.0
C199 C 0.70901 0.00738 0.45658 0.0
C200 C 0.68406 0.03297 0.43107 0.0
C201 C 0.62707 0.00222 0.40756 0.0
H202 H 0.63584 0.04724 0.35447 0.0
C203 C 0.56658 0.0022 0.32072 0.0
C204 C 0.55888 0.0249 0.31232 0.0
C205 C 0.58284 0.0011 0.34041 0.0
C206 C 0.63301 0.03489 0.36941 0.0
H207 H 0.69819 0.96904 0.4563 0.0
H208 H 0.66433 0.97338 0.42721 0.0
H209 H 0.66892 0.04224 0.38387 0.0
H210 H 0.56179 0.06427 0.31817 0.0
H211 H 0.59095 0.06234 0.35244 0.0
H212 H 0.59141 0.99423 0.39223 0.0
C213 C 0.67493 0.98953 0.43288 0.0
C214 C 0.65194 0.03199 0.3863 0.0
C215 C 0.69443 0.98697 0.44938 0.0
C216 C 0.56745 0.04654 0.32429 0.0
C217 C 0.58412 0.04544 0.34379 0.0
C218 C 0.60824 0.00491 0.39044 0.0
C219 C 0.66957 0.0126 0.42348 0.0
C220 C 0.64926 0.01558 0.40558 0.0
C221 C 0.59207 0.02268 0.35189 0.0
C222 C 0.61109 0.02121 0.37117 0.0
H223 H 0.71439 0.04652 0.45245 0.0
H224 H 0.68023 0.05109 0.42469 0.0
H225 H 0.62418 0.98976 0.42239 0.0
H226 H 0.56028 0.98519 0.31194 0.0
H227 H 0.58886 0.98334 0.34611 0.0
C228 C -0.00058 0.55502 0.33717 0.0
C229 C 0.9967 0.56532 0.31403 0.0
C230 C 0.99685 0.56964 0.35864 0.0
C231 C 0.97209 0.62854 0.3819 0.0
H232 H 0.02936 0.63304 0.42441 0.0
C233 C -0.00216 0.71741 0.43159 0.0
C234 C 0.00193 0.71733 0.45706 0.0
C235 C 0.99661 0.69556 0.41778 0.0
C236 C 0.01306 0.63166 0.41299 0.0
H237 H 0.98781 0.59829 0.29507 0.0
H238 H 0.9827 0.62348 0.33223 0.0
H239 H 0.02546 0.59922 0.39377 0.0
H240 H 0.00965 0.69421 0.4877 0.0
H241 H 0.00783 0.65565 0.46312 0.0
H242 H 0.96024 0.66151 0.40011 0.0
C243 C 0.98697 0.6043 0.33399 0.0
C244 C 0.01077 0.61231 0.39555 0.0
C245 C 0.98998 0.58992 0.31269 0.0
C246 C 0.00646 0.69488 0.46811 0.0
C247 C 0.00532 0.67284 0.45412 0.0
C248 C 0.9744 0.64779 0.39919 0.0
C249 C 0.99095 0.59453 0.35717 0.0
C250 C 0.99072 0.61119 0.37919 0.0
C251 C -0.00048 0.67302 0.42899 0.0
C252 C 0.99537 0.65011 0.41419 0.0
H253 H 0.00485 0.53612 0.33863 0.0
H254 H -2e-05 0.56168 0.3763 0.0
H255 H 0.95627 0.6279 0.3698 0.0
H256 H 0.99468 0.73435 0.42236 0.0
H257 H 0.99277 0.69626 0.3983 0.0
C258 C 0.3156 6e-05 0.44947 0.0
C259 C 0.30679 0.02246 0.45889 0.0
C260 C 0.33447 -0.0005 0.43222 0.0
C261 C 0.3842 0.03719 0.4049 0.0
H262 H 0.38227 0.98448 0.35544 0.0
C263 C 0.45269 0.02725 0.32293 0.0
C264 C 0.46425 0.00439 0.3214 0.0
C265 C 0.43295 0.03109 0.33897 0.0
C266 C 0.38302 -0.00073 0.36917 0.0
H267 H 0.31091 0.06192 0.45778 0.0
H268 H 0.34354 0.06104 0.42684 0.0
H269 H 0.34849 0.98878 0.38444 0.0
H270 H 0.46399 0.96758 0.33522 0.0
H271 H 0.42908 0.97413 0.36269 0.0
H272 H 0.41868 0.04783 0.38894 0.0
C273 C 0.33618 0.04384 0.43322 0.0
C274 C 0.36377 0.00169 0.38592 0.0
C275 C 0.31744 0.04438 0.45087 0.0
C276 C 0.4555 0.9854 0.33601 0.0
C277 C 0.43549 0.98909 0.35165 0.0
C278 C 0.4033 0.03499 0.38781 0.0
C279 C 0.34478 0.02134 0.42351 0.0
C280 C 0.36436 0.02031 0.40441 0.0
C281 C 0.42412 0.01198 0.35335 0.0
C282 C 0.40308 0.0157 0.37014 0.0
H283 H 0.30796 0.98283 0.45545 0.0
H284 H 0.34103 0.98181 0.42579 0.0
H285 H 0.38541 0.05163 0.41895 0.0
H286 H 0.45912 0.04229 0.31201 0.0
H287 H 0.4244 0.04887 0.33994 0.0
C288 C 0.03652 0.57469 0.69895 0.0
C289 C 0.01507 0.56728 0.71118 0.0
C290 C 0.03536 0.59186 0.68045 0.0
C291 C 0.99326 0.61764 0.63574 0.0
H292 H 0.03748 0.67401 0.63816 0.0
C293 C 0.97942 0.70073 0.57427 0.0
C294 C 0.00045 0.71299 0.56574 0.0
C295 C 0.98155 0.68217 0.59124 0.0
C296 C 0.02524 0.6582 0.63691 0.0
H297 H 0.97556 0.57174 0.71342 0.0
H298 H 0.97355 0.60138 0.68102 0.0
H299 H 0.04116 0.64268 0.66874 0.0
H300 H 0.04025 0.71497 0.56767 0.0
H301 H 0.04405 0.68222 0.59653 0.0
H302 H 0.9775 0.63284 0.60376 0.0
C303 C 0.99124 0.59399 0.68572 0.0
C304 C 0.02734 0.64029 0.65451 0.0
C305 C 0.99244 0.57714 0.70439 0.0
C306 C 0.02366 0.70602 0.5741 0.0
C307 C 0.02582 0.68732 0.5908 0.0
C308 C 0.99132 0.63541 0.61796 0.0
C309 C 0.01267 0.60159 0.67362 0.0
C310 C 0.01125 0.61994 0.65422 0.0
C311 C 0.0048 0.67531 0.59983 0.0
C312 C 0.00717 0.65603 0.6184 0.0
H313 H 0.05421 0.56739 0.70379 0.0
H314 H 0.05214 0.59733 0.67131 0.0
H315 H 0.98077 0.60199 0.63495 0.0
H316 H 0.96128 0.70578 0.56821 0.0
H317 H 0.96492 0.67359 0.59801 0.0
C318 C 0.45666 0.04828 0.69122 0.0
C319 C 0.46483 0.02797 0.70391 0.0
C320 C 0.43698 0.04592 0.67478 0.0
C321 C 0.38633 0.0028 0.65362 0.0
H322 H 0.38936 0.04188 0.59547 0.0
C323 C 0.33224 0.98176 0.56328 0.0
C324 C 0.31853 0.0012 0.55439 0.0
C325 C 0.34828 0.98561 0.58313 0.0
C326 C 0.38821 0.03102 0.61173 0.0
H327 H 0.45874 0.98926 0.70949 0.0
H328 H 0.42524 0.98474 0.67998 0.0
H329 H 0.42095 0.04729 0.6269 0.0
H330 H 0.31091 0.03991 0.55925 0.0
H331 H 0.33968 0.04676 0.5935 0.0
H332 H 0.35418 0.98566 0.63741 0.0
C333 C 0.43335 0.00277 0.68324 0.0
C334 C 0.40622 0.03419 0.6299 0.0
C335 C 0.45269 0.00529 0.70012 0.0
C336 C 0.32114 0.02456 0.56579 0.0
C337 C 0.33763 0.02851 0.58528 0.0
C338 C 0.36863 -0.00072 0.63516 0.0
C339 C 0.42534 0.02301 0.67014 0.0
C340 C 0.4056 0.0201 0.65113 0.0
C341 C 0.35132 0.00907 0.59409 0.0
C342 C 0.36945 0.01335 0.61408 0.0
H343 H 0.46551 0.06607 0.69399 0.0
H344 H 0.43103 0.06211 0.66566 0.0
H345 H 0.38482 0.99194 0.66984 0.0
H346 H 0.33054 0.96354 0.55493 0.0
H347 H 0.35878 0.97038 0.58954 0.0
C348 C 0.01359 0.33722 0.55029 0.0
C349 C 0.01801 0.31549 0.5626 0.0
C350 C 0.01554 0.35995 0.56291 0.0
C351 C 0.04004 0.39022 0.6197 0.0
H352 H 0.97874 0.42562 0.62247 0.0
C353 C 0.0054 0.43404 0.70694 0.0
C354 C 0.00544 0.45978 0.70815 0.0
C355 C 0.00686 0.42146 0.68442 0.0
C356 C 0.99616 0.41631 0.62141 0.0
H357 H 0.02943 0.30039 0.59697 0.0
H358 H 0.03349 0.33981 0.6187 0.0
H359 H 0.98505 0.39403 0.59007 0.0
H360 H 0.00505 0.49247 0.68655 0.0
H361 H 0.00731 0.47003 0.64668 0.0
H362 H 0.05037 0.41111 0.65207 0.0
C363 C 0.02838 0.33949 0.59947 0.0
C364 C -0.00018 0.39832 0.60291 0.0
C365 C 0.02597 0.31689 0.58708 0.0
C366 C 0.00493 0.47263 0.68616 0.0
C367 C 0.00633 0.45988 0.66342 0.0
C368 C 0.03635 0.40806 0.63811 0.0
C369 C 0.02251 0.3612 0.58777 0.0
C370 C 0.02135 0.38435 0.60263 0.0
C371 C 0.00824 0.43427 0.6626 0.0
C372 C 0.01401 0.42047 0.6397 0.0
H373 H 0.00718 0.33654 0.53145 0.0
H374 H 0.01092 0.37644 0.5535 0.0
H375 H 0.05689 0.37992 0.61974 0.0
H376 H 0.00549 0.42359 0.72351 0.0
H377 H 0.00799 0.40165 0.68409 0.0
C378 C 0.56693 0.02413 0.70209 0.0
C379 C 0.55781 0.00155 0.71004 0.0
C380 C 0.58256 0.02522 0.68195 0.0
C381 C 0.60599 0.98969 0.62788 0.0
H382 H 0.65656 0.04065 0.63103 0.0
C383 C 0.68811 0.00054 0.55964 0.0
C384 C 0.69012 0.02386 0.54949 0.0
C385 C 0.67128 0.99616 0.57843 0.0
C386 C 0.64246 0.02641 0.6299 0.0
H387 H 0.55767 0.96231 0.70294 0.0
H388 H 0.58599 0.96405 0.668 0.0
H389 H 0.62935 0.03525 0.66588 0.0
H390 H 0.67598 0.06077 0.55088 0.0
H391 H 0.64711 0.05326 0.58433 0.0
H392 H 0.62008 0.98052 0.59196 0.0
C393 C 0.58054 0.98102 0.6771 0.0
C394 C 0.62674 0.02336 0.64978 0.0
C395 C 0.56442 0.97997 0.69716 0.0
C396 C 0.67482 0.04263 0.55833 0.0
C397 C 0.65838 0.03838 0.57746 0.0
C398 C 0.62212 0.99249 0.6081 0.0
C399 C 0.59004 0.0037 0.66947 0.0
C400 C 0.60791 0.00534 0.64886 0.0
C401 C 0.65657 0.01515 0.58771 0.0
C402 C 0.64015 0.01118 0.60883 0.0
H403 H 0.56204 0.04115 0.71141 0.0
H404 H 0.58877 0.04308 0.67621 0.0
H405 H 0.59166 0.97574 0.62643 0.0
H406 H 0.69953 0.98566 0.55304 0.0
H407 H 0.67022 0.97814 0.58616 0.0
C408 C 0.43986 0.3262 0.04607 0.0
C409 C 0.44625 0.31252 0.02484 0.0
C410 C 0.4229 0.34515 0.04477 0.0
C411 C 0.37364 0.36787 0.0044 0.0
H412 H 0.38181 0.42799 0.04354 0.0
C413 C 0.31437 0.45289 0.98955 0.0
C414 C 0.30398 0.46342 0.01089 0.0
C415 C 0.33256 0.4352 0.99126 0.0
C416 C 0.37928 0.41123 0.03258 0.0
H417 H 0.44031 0.30827 0.98554 0.0
H418 H 0.41157 0.34152 0.98314 0.0
H419 H 0.41187 0.3955 0.04692 0.0
H420 H 0.30492 0.46424 0.05072 0.0
H421 H 0.3368 0.4336 0.05365 0.0
H422 H 0.34125 0.38378 0.98984 0.0
C423 C 0.41898 0.33733 0.00094 0.0
C424 C 0.3964 0.39257 0.0346 0.0
C425 C 0.43566 0.31833 0.0023 0.0
C426 C 0.31253 0.45639 0.03393 0.0
C427 C 0.33088 0.43896 0.03564 0.0
C428 C 0.3567 0.3866 0.00221 0.0
C429 C 0.41217 0.35086 0.02216 0.0
C430 C 0.39381 0.37065 0.0205 0.0
C431 C 0.34089 0.42798 0.01434 0.0
C432 C 0.35933 0.40846 0.01627 0.0
H433 H 0.44772 0.32208 0.06371 0.0
H434 H 0.4179 0.35502 0.06152 0.0
H435 H 0.37071 0.35105 0.99365 0.0
H436 H 0.30816 0.45797 0.97155 0.0
H437 H 0.34013 0.42715 0.97454 0.0
C438 C 0.31775 0.57266 0.02237 0.0
C439 C 0.30322 0.5684 0.00136 0.0
C440 C 0.33926 0.58707 0.02108 0.0
C441 C 0.36749 0.63405 0.98136 0.0
H442 H 0.42439 0.62638 0.02309 0.0
C443 C 0.45407 0.69566 0.97394 0.0
C444 C 0.46073 0.70745 0.99629 0.0
C445 C 0.4373 0.67594 0.9736 0.0
C446 C 0.40861 0.62861 0.01127 0.0
H447 H 0.30053 0.57392 0.96227 0.0
H448 H 0.33841 0.5977 0.95968 0.0
H449 H 0.39046 0.5965 0.02437 0.0
H450 H 0.45597 0.70721 0.03583 0.0
H451 H 0.42717 0.67262 0.03519 0.0
H452 H 0.38574 0.66604 0.96819 0.0
C453 C 0.33284 0.59122 0.97743 0.0
C454 C 0.3891 0.61164 0.01212 0.0
C455 C 0.3112 0.57742 0.97886 0.0
C456 C 0.45115 0.69856 0.0183 0.0
C457 C 0.43477 0.67864 0.01798 0.0
C458 C 0.38711 0.65072 0.98025 0.0
C459 C 0.34678 0.59696 -0.00137 0.0
C460 C 0.36817 0.61426 0.9973 0.0
C461 C 0.42732 0.66744 0.99563 0.0
C462 C 0.40773 0.64832 0.99535 0.0
H463 H 0.31192 0.56583 0.03992 0.0
H464 H 0.34942 0.59119 0.03784 0.0
H465 H 0.35149 0.63717 0.97013 0.0
H466 H 0.46118 0.70215 0.95672 0.0
H467 H 0.43185 0.66753 0.95612 0.0
C468 C 0.54426 0.3485 0.98913 0.0
C469 C 0.53943 0.33004 0.00596 0.0
C470 C 0.56374 0.36518 0.99306 0.0
C471 C 0.62263 0.37182 0.02667 0.0
H472 H 0.61987 0.43861 0.00484 0.0
C473 C 0.70943 0.42772 0.0061 0.0
C474 C 0.71023 0.45312 0.01122 0.0
C475 C 0.68787 0.41415 0.0094 0.0
C476 C 0.62085 0.42015 0.01141 0.0
H477 H 0.55077 0.31529 0.04063 0.0
H478 H 0.58433 0.34462 0.04771 0.0
H479 H 0.58285 0.41278 0.00341 0.0
H480 H 0.68893 0.48406 0.02449 0.0
H481 H 0.65105 0.46013 0.03047 0.0
H482 H 0.6605 0.37917 0.03483 0.0
C483 C 0.57348 0.34586 0.03114 0.0
C484 C 0.59971 0.40521 0.01026 0.0
C485 C 0.55416 0.32905 0.0271 0.0
C486 C 0.68896 0.46453 0.02038 0.0
C487 C 0.66723 0.45085 0.02365 0.0
C488 C 0.64367 0.38676 0.02794 0.0
C489 C 0.57873 0.36396 0.01403 0.0
C490 C 0.60047 0.38068 0.01738 0.0
C491 C 0.66642 0.42552 0.01799 0.0
C492 C 0.64322 0.4109 0.01975 0.0
H493 H 0.5333 0.34978 0.97264 0.0
H494 H 0.56744 0.3786 0.97928 0.0
H495 H 0.62404 0.35301 0.03215 0.0
H496 H 0.72541 0.41823 -0.00092 0.0
H497 H 0.68786 0.39478 0.00446 0.0
C498 C 0.69925 0.57148 0.0294 0.0
C499 C 0.70794 0.56283 0.00653 0.0
C500 C 0.6809 0.58906 0.03079 0.0
C501 C 0.63279 0.61848 0.99342 0.0
H502 H 0.63381 0.66603 0.04785 0.0
C503 C 0.56709 0.70118 0.00135 0.0
C504 C 0.554 0.70273 0.02357 0.0
C505 C 0.58675 0.68512 -0.00142 0.0
C506 C 0.63331 0.65283 0.03257 0.0
H507 H 0.70439 0.5659 0.96715 0.0
H508 H 0.67301 0.59728 0.9695 0.0
H509 H 0.6665 0.63618 0.04395 0.0
H510 H 0.55172 0.68922 0.06052 0.0
H511 H 0.58648 0.66171 0.05585 0.0
H512 H 0.59978 0.63576 0.98186 0.0
C513 C 0.67981 0.59003 0.98643 0.0
C514 C 0.65193 0.63557 0.0304 0.0
C515 C 0.69792 0.57212 0.98504 0.0
C516 C 0.5614 0.68839 0.04315 0.0
C517 C 0.58134 0.67273 0.04053 0.0
C518 C 0.61439 0.63603 0.9954 0.0
C519 C 0.67106 0.59879 0.00934 0.0
C520 C 0.65176 0.6179 0.01098 0.0
C521 C 0.594 0.67072 0.01814 0.0
C522 C 0.61433 0.65316 0.01516 0.0
H523 H 0.70647 0.56449 0.04628 0.0
H524 H 0.67429 0.59482 0.04876 0.0
H525 H 0.63174 0.60501 0.97843 0.0
H526 H 0.56172 0.71189 0.98589 0.0
H527 H 0.59632 0.68395 0.98116 0.0
C528 C 0.52763 0.81929 0.94704 0.0
C529 C 0.50514 0.81128 0.95684 0.0
C530 C 0.52833 0.83765 0.92976 0.0
C531 C 0.49131 0.88754 0.90423 0.0
H532 H 0.53845 0.88262 0.851 0.0
C533 C 0.48955 0.94944 0.8199 0.0
C534 C 0.51222 0.95927 0.81229 0.0
C535 C 0.48859 0.9318 0.83794 0.0
C536 C 0.52534 0.88436 0.86589 0.0
H537 H 0.4657 0.81623 0.95621 0.0
H538 H 0.46682 0.84789 0.9256 0.0
H539 H 0.53661 0.85087 0.88139 0.0
H540 H 0.55168 0.95833 0.81763 0.0
H541 H 0.55002 0.92732 0.849 0.0
H542 H 0.47977 0.92085 0.88829 0.0
C543 C 0.48401 0.84035 0.93161 0.0
C544 C 0.5243 0.86619 0.88337 0.0
C545 C 0.48334 0.82209 0.94907 0.0
C546 C 0.53393 0.95112 0.82312 0.0
C547 C 0.53299 0.93328 0.84098 0.0
C548 C 0.49221 0.9056 0.88659 0.0
C549 C 0.50653 0.84833 0.92167 0.0
C550 C 0.50735 0.86758 0.90286 0.0
C551 C 0.51031 0.92342 0.84856 0.0
C552 C 0.5093 0.90425 0.86729 0.0
H553 H 0.54478 0.81144 0.95277 0.0
H554 H 0.54605 0.84361 0.92292 0.0
H555 H 0.47828 0.88945 0.91915 0.0
H556 H 0.47249 0.95534 0.81191 0.0
H557 H 0.47086 0.92439 0.84325 0.0
C558 C 0.18886 0.52345 0.95893 0.0
C559 C 0.19939 0.50137 0.96578 0.0
C560 C 0.16911 0.5234 0.94269 0.0
C561 C 0.14447 0.48925 0.89058 0.0
H562 H 0.08827 0.53153 0.89906 0.0
C563 C 0.07081 0.49532 0.81557 0.0
C564 C 0.06101 0.51842 0.81112 0.0
C565 C 0.08565 0.49187 0.83596 0.0
C566 C 0.10398 0.51984 0.8963 0.0
H567 H 0.19717 0.46183 0.96152 0.0
H568 H 0.16274 0.46175 0.93222 0.0
H569 H 0.11697 0.52688 0.93304 0.0
H570 H 0.05912 0.55609 0.82456 0.0
H571 H 0.08584 0.5503 0.86 0.0
H572 H 0.13235 0.483 0.85361 0.0
C573 C 0.16976 0.47906 0.9398 0.0
C574 C 0.12026 0.51701 0.91583 0.0
C575 C 0.18932 0.4791 0.95656 0.0
C576 C 0.06639 0.53808 0.82756 0.0
C577 C 0.08153 0.53468 0.84795 0.0
C578 C 0.12838 0.49227 0.87099 0.0
C579 C 0.15968 0.50128 0.93255 0.0
C580 C 0.14079 0.50189 0.91305 0.0
C581 C 0.0914 0.51151 0.85233 0.0
C582 C 0.10804 0.50779 0.87351 0.0
H583 H 0.19612 0.54091 0.96578 0.0
H584 H 0.16189 0.54079 0.93723 0.0
H585 H 0.16041 0.47784 0.88782 0.0
H586 H 0.06696 0.47972 0.80332 0.0
H587 H 0.09249 0.47369 0.83894 0.0
C588 C 0.51106 0.09555 0.81021 0.0
C589 C 0.5103 0.0699 0.81149 0.0
C590 C 0.51191 0.11027 0.83148 0.0
C591 C 0.4995 0.11555 0.89663 0.0
H592 H 0.54971 0.16668 0.89355 0.0
C593 C 0.50995 0.19558 0.9697 0.0
C594 C 0.50882 0.21847 0.95865 0.0
C595 C 0.51346 0.17418 0.95529 0.0
C596 C 0.53576 0.15239 0.8948 0.0
H597 H 0.50814 0.03957 0.83616 0.0
H598 H 0.5094 0.06574 0.87386 0.0
H599 H 0.54765 0.13451 0.86156 0.0
H600 H 0.51162 0.23709 0.92421 0.0
H601 H 0.51827 0.20008 0.89929 0.0
H602 H 0.487 0.13427 0.92946 0.0
C603 C 0.50955 0.07421 0.85615 0.0
C604 C 0.53454 0.13402 0.8765 0.0
C605 C 0.50872 0.0593 0.83465 0.0
C606 C 0.51238 0.21972 0.93322 0.0
C607 C 0.51631 0.19852 0.91897 0.0
C608 C 0.50074 0.13404 0.91508 0.0
C609 C 0.51203 0.0998 0.85464 0.0
C610 C 0.51579 0.11603 0.87666 0.0
C611 C 0.51645 0.1755 0.92974 0.0
C612 C 0.51829 0.15316 0.91372 0.0
H613 H 0.51184 0.10434 0.79267 0.0
H614 H 0.5131 0.12998 0.82978 0.0
H615 H 0.48492 0.10183 0.89717 0.0
H616 H 0.50707 0.19409 0.98927 0.0
H617 H 0.51354 0.15664 0.96401 0.0
C618 C 0.95818 0.48176 0.83486 0.0
C619 C 0.96699 0.50101 0.82063 0.0
C620 C 0.93857 0.48541 0.85103 0.0
C621 C 0.90744 0.53094 0.88883 0.0
H622 H 0.8515 0.4862 0.88396 0.0
C623 C 0.82078 0.54163 0.95061 0.0
C624 C 0.80912 0.51991 0.95785 0.0
C625 C 0.83998 0.5408 0.93347 0.0
C626 C 0.8671 0.49866 0.88589 0.0
H627 H 0.96253 0.53935 0.81257 0.0
H628 H 0.92852 0.54581 0.84138 0.0
H629 H 0.88538 0.48171 0.85514 0.0
H630 H 0.809 0.48029 0.95362 0.0
H631 H 0.84286 0.47873 0.92488 0.0
H632 H 0.88969 0.54734 0.92019 0.0
C633 C 0.93668 0.52787 0.83971 0.0
C634 C 0.88642 0.49614 0.86924 0.0
C635 C 0.956 0.5241 0.82315 0.0
C636 C 0.81741 0.49739 0.94822 0.0
C637 C 0.83675 0.49652 0.93149 0.0
C638 C 0.88825 0.53323 0.90583 0.0
C639 C 0.92771 0.50849 0.85364 0.0
C640 C 0.90685 0.51209 0.87069 0.0
C641 C 0.84805 0.51819 0.92351 0.0
C642 C 0.86796 0.51689 0.90476 0.0
H643 H 0.96626 0.46377 0.83333 0.0
H644 H 0.93203 0.47023 0.8617 0.0
H645 H 0.92309 0.54341 0.89033 0.0
H646 H 0.81469 0.55926 0.95772 0.0
H647 H 0.8481 0.55789 0.92764 0.0
C648 C 0.53529 0.0747 0.19869 0.0
C649 C 0.51348 0.06661 0.20983 0.0
C650 C 0.5345 0.09168 0.18001 0.0
C651 C 0.49407 0.11633 0.13317 0.0
H652 H 0.53516 0.17483 0.13954 0.0
C653 C 0.47873 0.20045 0.07376 0.0
C654 C 0.49943 0.21412 0.06662 0.0
C655 C 0.48112 0.18151 0.09025 0.0
C656 C 0.52385 0.15844 0.13718 0.0
H657 H 0.47374 0.06943 0.20979 0.0
H658 H 0.4724 0.09874 0.17702 0.0
H659 H 0.53875 0.14288 0.16947 0.0
H660 H 0.53895 0.2183 0.07056 0.0
H661 H 0.54326 0.18491 0.09862 0.0
H662 H 0.47932 0.13162 0.10077 0.0
C663 C 0.49007 0.09205 0.18276 0.0
C664 C 0.5259 0.14016 0.1544 0.0
C665 C 0.49088 0.0754 0.20162 0.0
C666 C 0.5226 0.20825 0.07593 0.0
C667 C 0.52504 0.18917 0.09215 0.0
C668 C 0.49221 0.13446 0.11578 0.0
C669 C 0.51186 0.10051 0.1719 0.0
C670 C 0.51085 0.11907 0.15271 0.0
C671 C 0.50432 0.17567 0.09971 0.0
C672 C 0.50689 0.15589 0.11769 0.0
H673 H 0.55296 0.06822 0.20466 0.0
H674 H 0.55156 0.09785 0.17184 0.0
H675 H 0.48243 0.1001 0.13132 0.0
H676 H 0.46062 0.20462 0.06692 0.0
H677 H 0.46469 0.17178 0.09591 0.0
C678 C 0.9528 0.49933 0.19917 0.0
C679 C 0.96342 0.52275 0.20325 0.0
C680 C 0.93411 0.49559 0.18175 0.0
C681 C 0.8848 0.52522 0.14969 0.0
H682 H 0.89594 0.47746 0.09689 0.0
C683 C 0.82196 0.51841 0.06407 0.0
C684 C 0.81871 0.49556 0.05186 0.0
C685 C 0.83865 0.5213 0.08353 0.0
C686 C 0.89216 0.49051 0.11171 0.0
H687 H 0.96225 0.56073 0.19287 0.0
H688 H 0.92903 0.55424 0.16294 0.0
H689 H 0.92615 0.48289 0.12966 0.0
H690 H 0.82962 0.45756 0.05108 0.0
H691 H 0.8577 0.46218 0.08571 0.0
H692 H 0.85053 0.53244 0.13239 0.0
C693 C 0.93544 0.5388 0.17304 0.0
C694 C 0.90962 0.4937 0.13041 0.0
C695 C 0.9545 0.54246 0.19005 0.0
C696 C 0.83195 0.47548 0.05995 0.0
C697 C 0.84823 0.47822 0.07974 0.0
C698 C 0.86706 0.5217 0.13126 0.0
C699 C 0.92531 0.51529 0.16852 0.0
C700 C 0.9062 0.51122 0.14942 0.0
C701 C 0.85213 0.50125 0.0916 0.0
C702 C 0.87057 0.50444 0.11185 0.0
H703 H 0.95937 0.48378 0.20899 0.0
H704 H 0.92651 0.4773 0.1786 0.0
H705 H 0.88171 0.53874 0.1643 0.0
H706 H 0.81216 0.53428 0.0581 0.0
H707 H 0.84137 0.53942 0.09178 0.0
C708 C 0.50536 0.80826 0.09259 0.0
C709 C 0.50737 0.8091 0.06692 0.0
C710 C 0.50401 0.82973 0.10689 0.0
C711 C 0.51675 0.89489 0.11188 0.0
H712 H 0.4634 0.89248 0.15905 0.0
C713 C 0.50258 0.96901 0.18995 0.0
C714 C 0.50202 0.95828 0.21307 0.0
C715 C 0.50014 0.95435 0.16845 0.0
C716 C 0.47823 0.89355 0.14585 0.0
H717 H 0.51124 0.83325 0.03627 0.0
H718 H 0.5091 0.87124 0.0617 0.0
H719 H 0.46711 0.85991 0.12774 0.0
H720 H 0.49733 0.92417 0.23192 0.0
H721 H 0.4926 0.89884 0.19473 0.0
H722 H 0.52848 0.92808 0.13094 0.0
C723 C 0.50837 0.85373 0.07049 0.0
C724 C 0.48039 0.87492 0.12798 0.0
C725 C 0.50969 0.83204 0.05601 0.0
C726 C 0.49786 0.93294 0.21437 0.0
C727 C 0.49503 0.91845 0.19305 0.0
C728 C 0.5146 0.91365 0.12989 0.0
C729 C 0.50465 0.85264 0.09596 0.0
C730 C 0.50022 0.87486 0.1115 0.0
C731 C 0.49657 0.92888 0.16987 0.0
C732 C 0.49586 0.91256 0.14763 0.0
H733 H 0.50398 0.79092 0.10165 0.0
H734 H 0.50182 0.8284 0.12657 0.0
H735 H 0.53216 0.89525 0.09931 0.0
H736 H 0.50596 0.98851 0.18846 0.0
H737 H 0.50137 0.9628 0.15077 0.0
C738 C 0.19301 0.50854 0.06972 0.0
C739 C 0.19353 0.53078 0.05743 0.0
C740 C 0.1764 0.50477 0.0888 0.0
C741 C 0.11865 0.52963 0.11587 0.0
H742 H 0.1361 0.4892 0.17029 0.0
C743 C 0.0655 0.52735 0.20731 0.0
C744 C 0.05805 0.50412 0.21514 0.0
C745 C 0.08139 0.5296 0.18741 0.0
C746 C 0.13097 0.50033 0.15506 0.0
H747 H 0.17755 0.56678 0.05599 0.0
H748 H 0.14938 0.56074 0.09008 0.0
H749 H 0.16591 0.49616 0.13772 0.0
H750 H 0.06157 0.465 0.20848 0.0
H751 H 0.0902 0.46899 0.17393 0.0
H752 H 0.08407 0.53459 0.13405 0.0
C753 C 0.16116 0.5458 0.08445 0.0
C754 C 0.14797 0.5043 0.13632 0.0
C755 C 0.17748 0.5494 0.06502 0.0
C756 C 0.06697 0.48312 0.20277 0.0
C757 C 0.08335 0.48538 0.18312 0.0
C758 C 0.10187 0.52603 0.13485 0.0
C759 C 0.16016 0.52331 0.09641 0.0
C760 C 0.14207 0.51905 0.11646 0.0
C761 C 0.09056 0.50867 0.17524 0.0
C762 C 0.1079 0.51139 0.1546 0.0
H763 H 0.20492 0.49369 0.06409 0.0
H764 H 0.17594 0.48705 0.09714 0.0
H765 H 0.11313 0.54058 0.10067 0.0
H766 H 0.05898 0.54389 0.21645 0.0
H767 H 0.08686 0.54773 0.18176 0.0
C768 C 0.81293 0.95468 0.53491 0.0
C769 C 0.80727 0.96329 0.5116 0.0
C770 C 0.83187 0.93811 0.53789 0.0
C771 C 0.88638 0.91136 0.50634 0.0
H772 H 0.87679 0.86 0.55315 0.0
C773 C 0.94107 0.82218 0.50485 0.0
C774 C 0.95068 0.81433 0.52717 0.0
C775 C 0.92538 0.84206 0.50439 0.0
C776 C 0.87985 0.87445 0.54028 0.0
H777 H 0.81704 0.9614 0.47307 0.0
H778 H 0.84961 0.9317 0.47802 0.0
H779 H 0.8455 0.891 0.54888 0.0
H780 H 0.95133 0.82112 0.56656 0.0
H781 H 0.92309 0.85578 0.5658 0.0
H782 H 0.92029 0.89393 0.49706 0.0
C783 C 0.83984 0.93823 0.49418 0.0
C784 C 0.86196 0.89228 0.53781 0.0
C785 C 0.82107 0.95513 0.49127 0.0
C786 C 0.94423 0.82682 0.5491 0.0
C787 C 0.92808 0.84655 0.54867 0.0
C788 C 0.9041 0.89332 0.50859 0.0
C789 C 0.84542 0.92942 0.51754 0.0
C790 C 0.86489 0.91089 0.52068 0.0
C791 C 0.91859 0.85434 0.52626 0.0
C792 C 0.9009 0.8746 0.52544 0.0
H793 H 0.80279 0.96086 0.55099 0.0
H794 H 0.83593 0.93222 0.55621 0.0
H795 H 0.88956 0.92565 0.49334 0.0
H796 H 0.9456 0.81294 0.48761 0.0
H797 H 0.91808 0.84748 0.48691 0.0
C798 C 0.94823 0.19448 0.49236 0.0
C799 C 0.95648 0.20994 0.51182 0.0
C800 C 0.93222 0.17479 0.49681 0.0
C801 C 0.88688 0.15497 0.54285 0.0
H802 H 0.88578 0.09482 0.50309 0.0
C803 C 0.79999 0.09689 0.52751 0.0
C804 C 0.80143 0.07133 0.52447 0.0
C805 C 0.82119 0.11122 0.53088 0.0
C806 C 0.8861 0.1113 0.51469 0.0
H807 H 0.95538 0.21627 0.55132 0.0
H808 H 0.92826 0.1817 0.55913 0.0
H809 H 0.9196 0.12426 0.49863 0.0
H810 H 0.82611 0.04055 0.52386 0.0
H811 H 0.86348 0.06579 0.52982 0.0
H812 H 0.8534 0.14212 0.55883 0.0
C813 C 0.93347 0.18507 0.54035 0.0
C814 C 0.90529 0.12835 0.51186 0.0
C815 C 0.94914 0.20486 0.53586 0.0
C816 C 0.82446 0.06022 0.52626 0.0
C817 C 0.84583 0.07466 0.52943 0.0
C818 C 0.86783 0.13792 0.54574 0.0
C819 C 0.92438 0.17006 0.52086 0.0
C820 C 0.90557 0.15067 0.52549 0.0
C821 C 0.84441 0.10036 0.5312 0.0
C822 C 0.86683 0.11622 0.53121 0.0
H823 H 0.95361 0.19797 0.47364 0.0
H824 H 0.92536 0.16382 0.4813 0.0
H825 H 0.88629 0.17201 0.55353 0.0
H826 H 0.78249 0.10597 0.52632 0.0
H827 H 0.81941 0.13095 0.53191 0.0
C828 C 0.05723 0.82674 0.52702 0.0
C829 C 0.04264 0.82828 0.50583 0.0
C830 C 0.07646 0.84352 0.53166 0.0
C831 C 0.10211 0.90379 0.51256 0.0
H832 H 0.16272 0.87855 0.53838 0.0
C833 C 0.18982 0.96475 0.52429 0.0
C834 C 0.21146 0.95379 0.51549 0.0
C835 C 0.1684 0.95059 0.52749 0.0
C836 C 0.14594 0.88592 0.53114 0.0
H837 H 0.03685 0.84874 0.47291 0.0
H838 H 0.0709 0.87744 0.48052 0.0
H839 H 0.12685 0.85172 0.53431 0.0
H840 H 0.2277 0.91916 0.50413 0.0
H841 H 0.19067 0.89486 0.50929 0.0
H842 H 0.12177 0.93762 0.50808 0.0
C843 C 0.06711 0.86368 0.49394 0.0
C844 C 0.12522 0.87058 0.52907 0.0
C845 C 0.04769 0.84706 0.48944 0.0
C846 C 0.2114 0.92831 0.51084 0.0
C847 C 0.19013 0.91426 0.51403 0.0
C848 C 0.12293 0.91909 0.51445 0.0
C849 C 0.08179 0.86211 0.51509 0.0
C850 C 0.10315 0.87915 0.51929 0.0
C851 C 0.16825 0.92521 0.52207 0.0
C852 C 0.14526 0.91016 0.52323 0.0
H853 H 0.05364 0.81271 0.54022 0.0
H854 H 0.08706 0.84197 0.54834 0.0
H855 H 0.08529 0.91117 0.50542 0.0
H856 H 0.18922 0.98432 0.52807 0.0
H857 H 0.1519 0.95955 0.53394 0.0
C858 C 0.06195 0.19852 0.50384 0.0
C859 C 0.05061 0.20207 0.52682 0.0
C860 C 0.08051 0.18126 0.50064 0.0
C861 C 0.10679 0.12682 0.53014 0.0
H862 H 0.16181 0.13889 0.48671 0.0
C863 C 0.19598 0.07124 0.531 0.0
C864 C 0.20468 0.06244 0.50816 0.0
C865 C 0.17661 0.0877 0.53226 0.0
C866 C 0.14642 0.13522 0.49872 0.0
H867 H 0.05042 0.19085 0.56465 0.0
H868 H 0.08326 0.16158 0.55937 0.0
H869 H 0.12955 0.16929 0.49118 0.0
H870 H 0.20008 0.06406 0.46873 0.0
H871 H 0.16643 0.09337 0.47097 0.0
H872 H 0.12423 0.09313 0.53827 0.0
C873 C 0.07734 0.17142 0.54353 0.0
C874 C 0.12787 0.15257 0.50125 0.0
C875 C 0.05859 0.18838 0.54663 0.0
C876 C 0.19369 0.0705 0.48658 0.0
C877 C 0.17456 0.08733 0.48784 0.0
C878 C 0.1255 0.10969 0.52788 0.0
C879 C 0.08837 0.16738 0.52044 0.0
C880 C 0.10787 0.14868 0.51712 0.0
C881 C 0.1658 0.096 0.51071 0.0
C882 C 0.14554 0.11377 0.51226 0.0
H883 H 0.05609 0.20865 0.48816 0.0
H884 H 0.0883 0.17847 0.48252 0.0
H885 H 0.09142 0.12283 0.54205 0.0
H886 H 0.20406 0.06533 0.54795 0.0
H887 H 0.17032 0.09425 0.55011 0.0
loop_
_geom_bond_atom_site_label_1
_geom_bond_atom_site_label_2
_geom_bond_distance
_geom_bond_site_symmetry_2
_ccdc_geom_bond_type
Co0 O1 2.216 1_455 S
Co0 O2 2.091 . S
Co0 O4 2.004 . S
Co0 O10 2.021 . S
Co0 O12 2.137 1_455 S
Co0 O13 2.244 1_455 S
O1 Co0 2.216 1_655 S
O1 C8 1.247 . S
O2 Co0 2.091 . S
O2 C8 1.261 1_455 S
C3 O12 1.247 . S
C3 O13 1.272 . S
O4 Co0 2.004 . S
O4 C9 1.259 . S
Co5 O6 2.061 1_655 S
Co5 O11 2.054 . S
Co5 O13 2.135 . S
O6 Co5 2.061 1_455 S
O6 C9 1.235 . S
C7 O10 1.238 . S
C7 O11 1.235 1_455 S
C8 O1 1.247 . S
C8 O2 1.261 1_655 S
C9 O4 1.259 . S
C9 O6 1.235 . S
O10 Co0 2.021 . S
O10 C7 1.238 . S
O11 Co5 2.054 . S
O11 C7 1.235 1_655 S
O12 Co0 2.137 1_655 S
O12 C3 1.247 . S
O13 Co0 2.244 1_655 S
O13 C3 1.272 . S
O13 Co5 2.135 . S
Co14 O15 2.216 1_545 S
Co14 O16 2.091 1_545 S
Co14 O18 2.004 . S
Co14 O24 2.021 . S
Co14 O26 2.137 1_545 S
Co14 O27 2.244 . S
O15 Co14 2.216 1_565 S
O15 C22 1.247 . S
O16 Co14 2.091 1_565 S
O16 C22 1.261 . S
C17 O26 1.247 1_545 S
C17 O27 1.272 . S
O18 Co14 2.004 . S
O18 C23 1.259 . S
Co19 O20 2.061 . S
Co19 O25 2.052 . S
Co19 O27 2.135 . S
O20 Co19 2.061 . S
O20 C23 1.235 . S
C21 O24 1.238 . S
C21 O25 1.241 . S
C22 O15 1.247 . S
C22 O16 1.261 . S
C23 O18 1.259 . S
C23 O20 1.235 . S
O24 Co14 2.021 . S
O24 C21 1.238 . S
O25 Co19 2.052 . S
O25 C21 1.241 . S
O26 Co14 2.137 1_565 S
O26 C17 1.247 1_565 S
O27 Co14 2.244 . S
O27 C17 1.272 . S
O27 Co19 2.135 . S
Co28 O29 2.216 1_455 S
Co28 O30 2.091 . S
Co28 O32 2.004 . S
Co28 O38 2.021 . S
Co28 O40 2.137 1_455 S
Co28 O41 2.244 1_455 S
O29 Co28 2.216 1_655 S
O29 C36 1.247 1_655 S
O30 Co28 2.091 . S
O30 C36 1.261 . S
C31 O40 1.247 . S
C31 O41 1.272 . S
O32 Co28 2.004 . S
O32 C37 1.259 . S
Co33 O34 2.061 . S
Co33 O39 2.052 . S
Co33 O41 2.135 1_455 S
O34 Co33 2.061 . S
O34 C37 1.235 . S
C35 O38 1.238 . S
C35 O39 1.241 . S
C36 O29 1.247 1_455 S
C36 O30 1.261 . S
C37 O32 1.259 . S
C37 O34 1.235 . S
O38 Co28 2.021 . S
O38 C35 1.238 . S
O39 Co33 2.052 . S
O39 C35 1.241 . S
O40 Co28 2.137 1_655 S
O40 C31 1.247 . S
O41 Co28 2.244 1_655 S
O41 C31 1.272 . S
O41 Co33 2.135 1_655 S
Co42 O43 2.216 . S
Co42 O44 2.091 . S
Co42 O46 2.004 . S
Co42 O52 2.051 . S
Co42 O54 2.137 . S
Co42 O55 2.244 . S
O43 Co42 2.216 . S
O43 C50 1.247 . S
O44 Co42 2.091 . S
O44 C50 1.261 . S
C45 O54 1.247 . S
C45 O55 1.272 . S
O46 Co42 2.004 . S
O46 C51 1.259 . S
Co47 O48 2.061 . S
Co47 O53 2.052 . S
Co47 O55 2.135 1_565 S
O48 Co47 2.061 . S
O48 C51 1.235 1_565 S
C49 O52 1.198 1_565 S
C49 O53 1.241 . S
C50 O43 1.247 . S
C50 O44 1.261 . S
C51 O46 1.259 . S
C51 O48 1.235 1_545 S
O52 Co42 2.051 . S
O52 C49 1.198 1_545 S
O53 Co47 2.052 . S
O53 C49 1.241 . S
O54 Co42 2.137 . S
O54 C45 1.247 . S
O55 Co42 2.244 . S
O55 C45 1.272 . S
O55 Co47 2.135 1_545 S
Co56 O57 2.216 . S
Co56 O58 2.091 . S
Co56 O60 2.004 . S
Co56 O66 2.021 1_545 S
Co56 O68 2.137 . S
Co56 O69 2.244 . S
O57 Co56 2.216 . S
O57 C64 1.247 . S
O58 Co56 2.091 . S
O58 C64 1.261 . S
C59 O68 1.247 . S
C59 O69 1.272 . S
O60 Co56 2.004 . S
O60 C65 1.259 . S
Co61 O62 2.061 . S
Co61 O67 2.052 . S
Co61 O69 2.135 1_565 S
O62 Co61 2.061 . S
O62 C65 1.235 1_565 S
C63 O66 1.238 . S
C63 O67 1.241 . S
C64 O57 1.247 . S
C64 O58 1.261 . S
C65 O60 1.259 . S
C65 O62 1.235 1_545 S
O66 Co56 2.021 1_565 S
O66 C63 1.238 . S
O67 Co61 2.052 . S
O67 C63 1.241 . S
O68 Co56 2.137 . S
O68 C59 1.247 . S
O69 Co56 2.244 . S
O69 C59 1.272 . S
O69 Co61 2.135 1_545 S
Co70 O71 2.216 . S
Co70 O72 2.091 1_455 S
Co70 O74 2.004 1_455 S
Co70 O80 2.021 1_455 S
Co70 O82 2.137 . S
Co70 O83 2.244 . S
O71 Co70 2.216 . S
O71 C78 1.247 . S
O72 Co70 2.091 1_655 S
O72 C78 1.261 1_655 S
C73 O82 1.247 . S
C73 O83 1.272 . S
O74 Co70 2.004 1_655 S
O74 C79 1.259 . S
Co75 O76 2.061 1_455 S
Co75 O81 2.052 . S
Co75 O83 2.135 . S
O76 Co75 2.061 1_655 S
O76 C79 1.235 . S
C77 O80 1.238 1_455 S
C77 O81 1.241 . S
C78 O71 1.247 . S
C78 O72 1.261 1_455 S
C79 O74 1.259 . S
C79 O76 1.235 . S
O80 Co70 2.021 1_655 S
O80 C77 1.238 1_655 S
O81 Co75 2.052 . S
O81 C77 1.241 . S
O82 Co70 2.137 . S
O82 C73 1.247 . S
O83 Co70 2.244 . S
O83 C73 1.272 . S
O83 Co75 2.135 . S
Co84 O85 2.216 1_545 S
Co84 O86 2.091 1_545 S
Co84 O88 2.004 . S
Co84 O94 2.021 . S
Co84 O96 2.137 1_545 S
Co84 O97 2.244 . S
O85 Co84 2.216 1_565 S
O85 C92 1.247 . S
O86 Co84 2.091 1_565 S
O86 C92 1.261 . S
C87 O96 1.247 1_545 S
C87 O97 1.272 . S
O88 Co84 2.004 . S
O88 C93 1.259 . S
Co89 O90 2.061 . S
Co89 O95 2.052 . S
Co89 O97 2.135 . S
O90 Co89 2.061 . S
O90 C93 1.235 . S
C91 O94 1.238 . S
C91 O95 1.241 . S
C92 O85 1.247 . S
C92 O86 1.261 . S
C93 O88 1.259 . S
C93 O90 1.235 . S
O94 Co84 2.021 . S
O94 C91 1.238 . S
O95 Co89 2.052 . S
O95 C91 1.241 . S
O96 Co84 2.137 1_565 S
O96 C87 1.247 1_565 S
O97 Co84 2.244 . S
O97 C87 1.272 . S
O97 Co89 2.135 . S
Co98 O99 2.216 . S
Co98 O100 2.091 1_455 S
Co98 O102 2.004 1_455 S
Co98 O108 2.021 1_455 S
Co98 O110 2.137 . S
Co98 O111 2.244 . S
O99 Co98 2.216 . S
O99 C106 1.247 . S
O100 Co98 2.091 1_655 S
O100 C106 1.261 1_655 S
C101 O110 1.247 . S
C101 O111 1.272 . S
O102 Co98 2.004 1_655 S
O102 C107 1.259 . S
Co103 O104 2.061 1_455 S
Co103 O109 2.052 . S
Co103 O111 2.135 . S
O104 Co103 2.061 1_655 S
O104 C107 1.235 . S
C105 O108 1.238 1_455 S
C105 O109 1.241 . S
C106 O99 1.247 . S
C106 O100 1.261 1_455 S
C107 O102 1.259 . S
C107 O104 1.235 . S
O108 Co98 2.021 1_655 S
O108 C105 1.238 1_655 S
O109 Co103 2.052 . S
O109 C105 1.241 . S
O110 Co98 2.137 . S
O110 C101 1.247 . S
O111 Co98 2.244 . S
O111 C101 1.272 . S
O111 Co103 2.135 . S
Co112 O113 2.216 1_554 S
Co112 O114 2.091 . S
Co112 O116 2.004 . S
Co112 O122 2.021 . S
Co112 O124 2.137 1_554 S
Co112 O125 2.244 1_554 S
O113 Co112 2.216 1_556 S
O113 C120 1.247 1_556 S
O114 Co112 2.091 . S
O114 C120 1.261 . S
C115 O124 1.247 . S
C115 O125 1.272 . S
O116 Co112 2.004 . S
O116 C121 1.259 . S
Co117 O118 2.061 . S
Co117 O123 2.052 . S
Co117 O125 2.135 1_554 S
O118 Co117 2.061 . S
O118 C121 1.235 . S
C119 O122 1.238 . S
C119 O123 1.241 . S
C120 O113 1.247 1_554 S
C120 O114 1.261 . S
C121 O116 1.259 . S
C121 O118 1.235 . S
O122 Co112 2.021 . S
O122 C119 1.238 . S
O123 Co117 2.052 . S
O123 C119 1.241 . S
O124 Co112 2.137 1_556 S
O124 C115 1.247 . S
O125 Co112 2.244 1_556 S
O125 C115 1.272 . S
O125 Co117 2.135 1_556 S
Co126 O127 2.216 . S
Co126 O128 2.091 . S
Co126 O130 2.004 . S
Co126 O136 2.021 1_554 S
Co126 O138 2.137 . S
Co126 O139 2.256 . S
O127 Co126 2.216 . S
O127 C134 1.247 . S
O128 Co126 2.091 . S
O128 C134 1.261 . S
C129 O138 1.247 . S
C129 O139 1.290 . S
O130 Co126 2.004 . S
O130 C135 1.259 . S
Co131 O132 2.061 . S
Co131 O137 2.052 . S
Co131 O139 2.116 1_556 S
O132 Co131 2.061 . S
O132 C135 1.235 1_556 S
C133 O136 1.238 . S
C133 O137 1.241 . S
C134 O127 1.247 . S
C134 O128 1.261 . S
C135 O130 1.259 . S
C135 O132 1.235 1_554 S
O136 Co126 2.021 1_556 S
O136 C133 1.238 . S
O137 Co131 2.052 . S
O137 C133 1.241 . S
O138 Co126 2.137 . S
O138 C129 1.247 . S
O139 Co126 2.256 . S
O139 C129 1.290 . S
O139 Co131 2.116 1_554 S
Co140 O141 2.216 1_554 S
Co140 O142 2.091 . S
Co140 O144 2.004 . S
Co140 O150 2.021 . S
Co140 O152 2.137 1_554 S
Co140 O153 2.244 1_554 S
O141 Co140 2.216 1_556 S
O141 C148 1.247 1_556 S
O142 Co140 2.091 . S
O142 C148 1.261 . S
C143 O152 1.247 . S
C143 O153 1.272 . S
O144 Co140 2.004 . S
O144 C149 1.259 . S
Co145 O146 2.061 . S
Co145 O151 2.052 . S
Co145 O153 2.135 1_554 S
O146 Co145 2.061 . S
O146 C149 1.235 . S
C147 O150 1.238 . S
C147 O151 1.241 . S
C148 O141 1.247 1_554 S
C148 O142 1.261 . S
C149 O144 1.259 . S
C149 O146 1.235 . S
O150 Co140 2.021 . S
O150 C147 1.238 . S
O151 Co145 2.052 . S
O151 C147 1.241 . S
O152 Co140 2.137 1_556 S
O152 C143 1.247 . S
O153 Co140 2.244 1_556 S
O153 C143 1.272 . S
O153 Co145 2.135 1_556 S
Co154 O155 2.216 1_554 S
Co154 O156 2.091 1_554 S
Co154 O158 2.004 . S
Co154 O164 2.021 . S
Co154 O166 2.137 1_554 S
Co154 O167 2.244 . S
O155 Co154 2.216 1_556 S
O155 C162 1.247 . S
O156 Co154 2.091 1_556 S
O156 C162 1.261 . S
C157 O166 1.247 1_554 S
C157 O167 1.272 . S
O158 Co154 2.004 . S
O158 C163 1.259 . S
Co159 O160 2.061 . S
Co159 O165 2.052 . S
Co159 O167 2.135 . S
O160 Co159 2.061 . S
O160 C163 1.235 . S
C161 O164 1.238 . S
C161 O165 1.241 . S
C162 O155 1.247 . S
C162 O156 1.261 . S
C163 O158 1.259 . S
C163 O160 1.235 . S
O164 Co154 2.021 . S
O164 C161 1.238 . S
O165 Co159 2.052 . S
O165 C161 1.241 . S
O166 Co154 2.137 1_556 S
O166 C157 1.247 1_556 S
O167 Co154 2.244 . S
O167 C157 1.272 . S
O167 Co159 2.135 . S
C168 C169 1.349 . S
C168 C170 1.327 . S
C168 H193 0.950 . S
C169 C168 1.349 . S
C169 C185 1.352 . S
C170 C168 1.327 . S
C170 C189 1.429 1_655 S
C170 H194 0.950 . S
C171 C188 1.574 . S
C171 C190 1.368 . S
C171 H195 0.949 . S
H172 C176 0.949 . S
C173 C174 1.349 . S
C173 C175 1.327 . S
C173 H196 0.950 . S
C174 C173 1.349 . S
C174 C186 1.349 . S
C175 C173 1.327 . S
C175 C191 1.429 . S
C175 H197 0.950 . S
C176 H172 0.949 . S
C176 C184 1.574 . S
C176 C192 1.368 . S
H177 C185 0.949 1_455 S
H178 C183 0.950 . S
H179 C184 0.948 1_655 S
H180 C186 0.950 . S
H181 C187 0.950 . S
H182 C188 0.949 . S
C183 H178 0.950 . S
C183 C185 1.325 1_455 S
C183 C189 1.429 . S
C184 C176 1.574 . S
C184 H179 0.948 1_455 S
C184 C190 1.368 . S
C185 C169 1.352 . S
C185 H177 0.949 1_655 S
C185 C183 1.325 1_655 S
C186 C174 1.349 . S
C186 H180 0.950 . S
C186 C187 1.327 . S
C187 H181 0.950 . S
C187 C186 1.327 . S
C187 C191 1.429 . S
C188 C171 1.574 . S
C188 H182 0.949 . S
C188 C192 1.368 . S
C189 C170 1.429 1_455 S
C189 C183 1.429 . S
C189 C190 1.523 . S
C190 C171 1.368 . S
C190 C184 1.368 . S
C190 C189 1.523 . S
C191 C175 1.429 . S
C191 C187 1.429 . S
C191 C192 1.523 . S
C192 C176 1.368 . S
C192 C188 1.368 . S
C192 C191 1.523 . S
H193 C168 0.950 . S
H194 C170 0.950 . S
H195 C171 0.949 . S
H196 C173 0.950 . S
H197 C175 0.950 . S
C198 C199 1.349 . S
C198 C200 1.327 . S
C198 H223 0.950 . S
C199 C198 1.349 . S
C199 C215 1.349 1_545 S
C200 C198 1.327 . S
C200 C219 1.429 . S
C200 H224 0.950 . S
C201 C218 1.574 . S
C201 C220 1.368 1_565 S
C201 H225 0.949 . S
H202 C206 0.949 . S
C203 C204 1.349 . S
C203 C205 1.327 . S
C203 H226 0.950 1_545 S
C204 C203 1.349 . S
C204 C216 1.349 . S
C205 C203 1.327 . S
C205 C221 1.429 . S
C205 H227 0.950 1_545 S
C206 H202 0.949 . S
C206 C214 1.574 . S
C206 C222 1.368 . S
H207 C215 0.950 . S
H208 C213 0.950 . S
H209 C214 0.949 . S
H210 C216 0.950 . S
H211 C217 0.950 . S
H212 C218 0.949 . S
C213 H208 0.950 . S
C213 C215 1.327 . S
C213 C219 1.429 1_565 S
C214 C206 1.574 . S
C214 H209 0.949 . S
C214 C220 1.368 . S
C215 C199 1.349 1_565 S
C215 H207 0.950 . S
C215 C213 1.327 . S
C216 C204 1.349 . S
C216 H210 0.950 . S
C216 C217 1.327 . S
C217 H211 0.950 . S
C217 C216 1.327 . S
C217 C221 1.429 . S
C218 C201 1.574 . S
C218 H212 0.949 . S
C218 C222 1.368 1_565 S
C219 C200 1.429 . S
C219 C213 1.429 1_545 S
C219 C220 1.523 . S
C220 C201 1.368 1_545 S
C220 C214 1.368 . S
C220 C219 1.523 . S
C221 C205 1.429 . S
C221 C217 1.429 . S
C221 C222 1.523 . S
C222 C206 1.368 . S
C222 C218 1.368 1_545 S
C222 C221 1.523 . S
H223 C198 0.950 . S
H224 C200 0.950 . S
H225 C201 0.949 . S
H226 C203 0.950 1_565 S
H227 C205 0.950 1_565 S
C228 C229 1.349 . S
C228 C230 1.327 . S
C228 H253 0.950 . S
C229 C228 1.349 . S
C229 C245 1.349 1_455 S
C230 C228 1.327 . S
C230 C249 1.429 . S
C230 H254 0.950 . S
C231 C248 1.571 1_655 S
C231 C250 1.368 1_655 S
C231 H255 0.949 . S
H232 C236 0.949 . S
C233 C234 1.349 . S
C233 C235 1.327 . S
C233 H256 0.950 . S
C234 C233 1.349 . S
C234 C246 1.349 . S
C235 C233 1.327 . S
C235 C251 1.429 . S
C235 H257 0.950 1_455 S
C236 H232 0.949 . S
C236 C244 1.574 . S
C236 C252 1.368 . S
H237 C245 0.950 . S
H238 C243 0.950 . S
H239 C244 0.949 . S
H240 C246 0.950 . S
H241 C247 0.950 . S
H242 C248 0.931 1_655 S
C243 H238 0.950 . S
C243 C245 1.327 . S
C243 C249 1.429 1_655 S
C244 C236 1.574 . S
C244 H239 0.949 . S
C244 C250 1.368 . S
C245 C229 1.349 1_655 S
C245 H237 0.950 . S
C245 C243 1.327 . S
C246 C234 1.349 . S
C246 H240 0.950 . S
C246 C247 1.327 . S
C247 H241 0.950 . S
C247 C246 1.327 . S
C247 C251 1.429 . S
C248 C231 1.571 1_455 S
C248 H242 0.931 1_455 S
C248 C252 1.393 . S
C249 C230 1.429 . S
C249 C243 1.429 1_455 S
C249 C250 1.523 . S
C250 C231 1.368 1_455 S
C250 C244 1.368 . S
C250 C249 1.523 . S
C251 C235 1.429 . S
C251 C247 1.429 . S
C251 C252 1.523 . S
C252 C236 1.368 . S
C252 C248 1.393 . S
C252 C251 1.523 . S
H253 C228 0.950 . S
H254 C230 0.950 . S
H255 C231 0.949 . S
H256 C233 0.950 . S
H257 C235 0.950 1_655 S
C258 C259 1.349 . S
C258 C260 1.327 . S
C258 H283 0.950 1_545 S
C259 C258 1.349 . S
C259 C275 1.349 . S
C260 C258 1.327 . S
C260 C279 1.429 . S
C260 H284 0.950 1_545 S
C261 C278 1.574 . S
C261 C280 1.368 . S
C261 H285 0.949 . S
H262 C266 0.949 . S
C263 C264 1.349 . S
C263 C265 1.327 . S
C263 H286 0.950 . S
C264 C263 1.349 . S
C264 C276 1.349 1_545 S
C265 C263 1.327 . S
C265 C281 1.429 . S
C265 H287 0.950 . S
C266 H262 0.949 . S
C266 C274 1.574 . S
C266 C282 1.368 1_565 S
H267 C275 0.950 . S
H268 C273 0.950 . S
H269 C274 0.949 . S
H270 C276 0.950 . S
H271 C277 0.950 . S
H272 C278 0.949 . S
C273 H268 0.950 . S
C273 C275 1.327 . S
C273 C279 1.429 . S
C274 C266 1.574 . S
C274 H269 0.949 . S
C274 C280 1.368 1_565 S
C275 C259 1.349 . S
C275 H267 0.950 . S
C275 C273 1.327 . S
C276 C264 1.349 1_565 S
C276 H270 0.950 . S
C276 C277 1.327 . S
C277 H271 0.950 . S
C277 C276 1.327 . S
C277 C281 1.429 1_565 S
C278 C261 1.574 . S
C278 H272 0.949 . S
C278 C282 1.368 . S
C279 C260 1.429 . S
C279 C273 1.429 . S
C279 C280 1.523 . S
C280 C261 1.368 . S
C280 C274 1.368 1_545 S
C280 C279 1.523 . S
C281 C265 1.429 . S
C281 C277 1.429 1_545 S
C281 C282 1.523 . S
C282 C266 1.368 1_545 S
C282 C278 1.368 . S
C282 C281 1.523 . S
H283 C258 0.950 1_565 S
H284 C260 0.950 1_565 S
H285 C261 0.949 . S
H286 C263 0.950 . S
H287 C265 0.950 . S
C288 C289 1.349 . S
C288 C290 1.327 . S
C288 H313 0.950 . S
C289 C288 1.349 . S
C289 C305 1.349 . S
C290 C288 1.327 . S
C290 C309 1.429 . S
C290 H314 0.950 . S
C291 C308 1.574 . S
C291 C310 1.368 1_655 S
C291 H315 0.949 . S
H292 C296 0.949 . S
C293 C294 1.349 1_655 S
C293 C295 1.327 . S
C293 H316 0.950 . S
C294 C293 1.349 1_455 S
C294 C306 1.349 . S
C295 C293 1.327 . S
C295 C311 1.429 1_655 S
C295 H317 0.950 . S
C296 H292 0.949 . S
C296 C304 1.574 . S
C296 C312 1.368 . S
H297 C305 0.950 1_655 S
H298 C303 0.950 1_655 S
H299 C304 0.949 . S
H300 C306 0.950 . S
H301 C307 0.950 . S
H302 C308 0.949 . S
C303 H298 0.950 1_455 S
C303 C305 1.327 . S
C303 C309 1.429 . S
C304 C296 1.574 . S
C304 H299 0.949 . S
C304 C310 1.368 . S
C305 C289 1.349 . S
C305 H297 0.950 1_455 S
C305 C303 1.327 . S
C306 C294 1.349 . S
C306 H300 0.950 . S
C306 C307 1.327 . S
C307 H301 0.950 . S
C307 C306 1.327 . S
C307 C311 1.429 . S
C308 C291 1.574 . S
C308 H302 0.949 . S
C308 C312 1.368 1_655 S
C309 C290 1.429 . S
C309 C303 1.429 . S
C309 C310 1.523 . S
C310 C291 1.368 1_455 S
C310 C304 1.368 . S
C310 C309 1.523 . S
C311 C295 1.429 1_455 S
C311 C307 1.429 . S
C311 C312 1.523 . S
C312 C296 1.368 . S
C312 C308 1.368 1_455 S
C312 C311 1.523 . S
H313 C288 0.950 . S
H314 C290 0.950 . S
H315 C291 0.949 . S
H316 C293 0.950 . S
H317 C295 0.950 . S
C318 C319 1.349 . S
C318 C320 1.327 . S
C318 H343 0.950 . S
C319 C318 1.349 . S
C319 C335 1.349 . S
C320 C318 1.327 . S
C320 C339 1.429 . S
C320 H344 0.950 . S
C321 C338 1.575 . S
C321 C340 1.368 . S
C321 H345 0.949 1_545 S
H322 C326 0.949 . S
C323 C324 1.349 1_565 S
C323 C325 1.327 . S
C323 H346 0.950 . S
C324 C323 1.349 1_545 S
C324 C336 1.349 . S
C325 C323 1.327 . S
C325 C341 1.429 1_565 S
C325 H347 0.950 . S
C326 H322 0.949 . S
C326 C334 1.574 . S
C326 C342 1.368 . S
H327 C335 0.950 . S
H328 C333 0.950 1_565 S
H329 C334 0.949 . S
H330 C336 0.950 . S
H331 C337 0.950 . S
H332 C338 0.935 1_565 S
C333 H328 0.950 1_545 S
C333 C335 1.327 . S
C333 C339 1.429 . S
C334 C326 1.574 . S
C334 H329 0.949 . S
C334 C340 1.368 . S
C335 C319 1.349 . S
C335 H327 0.950 . S
C335 C333 1.327 . S
C336 C324 1.349 . S
C336 H330 0.950 . S
C336 C337 1.327 . S
C337 H331 0.950 . S
C337 C336 1.327 . S
C337 C341 1.429 . S
C338 C321 1.575 . S
C338 H332 0.935 1_545 S
C338 C342 1.383 . S
C339 C320 1.429 . S
C339 C333 1.429 . S
C339 C340 1.523 . S
C340 C321 1.368 . S
C340 C334 1.368 . S
C340 C339 1.523 . S
C341 C325 1.429 1_545 S
C341 C337 1.429 . S
C341 C342 1.523 . S
C342 C326 1.368 . S
C342 C338 1.383 . S
C342 C341 1.523 . S
H343 C318 0.950 . S
H344 C320 0.950 . S
H345 C321 0.949 1_565 S
H346 C323 0.950 . S
H347 C325 0.950 . S
C348 C349 1.349 . S
C348 C350 1.327 . S
C348 H373 0.950 1_455 S
C349 C348 1.349 . S
C349 C365 1.349 . S
C350 C348 1.327 . S
C350 C369 1.429 . S
C350 H374 0.950 1_455 S
C351 C368 1.574 . S
C351 C370 1.368 . S
C351 H375 0.949 . S
H352 C356 0.949 . S
C353 C354 1.350 . S
C353 C355 1.327 . S
C353 H376 0.950 . S
C354 C353 1.350 . S
C354 C366 1.348 1_455 S
C355 C353 1.327 . S
C355 C371 1.429 . S
C355 H377 0.950 . S
C356 H352 0.949 . S
C356 C364 1.574 . S
C356 C372 1.368 1_655 S
H357 C365 0.950 . S
H358 C363 0.950 . S
H359 C364 0.949 . S
H360 C366 0.950 . S
H361 C367 0.950 . S
H362 C368 0.949 . S
C363 H358 0.950 . S
C363 C365 1.327 . S
C363 C369 1.429 . S
C364 C356 1.574 . S
C364 H359 0.949 . S
C364 C370 1.368 1_655 S
C365 C349 1.349 . S
C365 H357 0.950 . S
C365 C363 1.327 . S
C366 C354 1.348 1_655 S
C366 H360 0.950 . S
C366 C367 1.327 . S
C367 H361 0.950 . S
C367 C366 1.327 . S
C367 C371 1.429 1_655 S
C368 C351 1.574 . S
C368 H362 0.949 . S
C368 C372 1.368 . S
C369 C350 1.429 . S
C369 C363 1.429 . S
C369 C370 1.523 . S
C370 C351 1.368 . S
C370 C364 1.368 1_455 S
C370 C369 1.523 . S
C371 C355 1.429 . S
C371 C367 1.429 1_455 S
C371 C372 1.523 . S
C372 C356 1.368 1_455 S
C372 C368 1.368 . S
C372 C371 1.523 . S
H373 C348 0.950 1_655 S
H374 C350 0.950 1_655 S
H375 C351 0.949 . S
H376 C353 0.950 . S
H377 C355 0.950 . S
C378 C379 1.349 . S
C378 C380 1.327 . S
C378 H403 0.950 . S
C379 C378 1.349 . S
C379 C395 1.349 1_545 S
C380 C378 1.327 . S
C380 C399 1.429 . S
C380 H404 0.950 . S
C381 C398 1.574 . S
C381 C400 1.368 1_565 S
C381 H405 0.949 . S
H382 C386 0.949 . S
C383 C384 1.349 . S
C383 C385 1.327 . S
C383 H406 0.950 1_545 S
C384 C383 1.349 . S
C384 C396 1.349 . S
C385 C383 1.327 . S
C385 C401 1.429 . S
C385 H407 0.950 1_545 S
C386 H382 0.949 . S
C386 C394 1.574 . S
C386 C402 1.368 . S
H387 C395 0.950 . S
H388 C393 0.950 . S
H389 C394 0.949 . S
H390 C396 0.950 . S
H391 C397 0.950 . S
H392 C398 0.949 . S
C393 H388 0.950 . S
C393 C395 1.327 . S
C393 C399 1.429 1_565 S
C394 C386 1.574 . S
C394 H389 0.949 . S
C394 C400 1.368 . S
C395 C379 1.349 1_565 S
C395 H387 0.950 . S
C395 C393 1.327 . S
C396 C384 1.349 . S
C396 H390 0.950 . S
C396 C397 1.327 . S
C397 H391 0.950 . S
C397 C396 1.327 . S
C397 C401 1.429 . S
C398 C381 1.574 . S
C398 H392 0.949 . S
C398 C402 1.368 1_565 S
C399 C380 1.429 . S
C399 C393 1.429 1_545 S
C399 C400 1.523 . S
C400 C381 1.368 1_545 S
C400 C394 1.368 . S
C400 C399 1.523 . S
C401 C385 1.429 . S
C401 C397 1.429 . S
C401 C402 1.523 . S
C402 C386 1.368 . S
C402 C398 1.368 1_545 S
C402 C401 1.523 . S
H403 C378 0.950 . S
H404 C380 0.950 . S
H405 C381 0.949 . S
H406 C383 0.950 1_565 S
H407 C385 0.950 1_565 S
C408 C409 1.349 . S
C408 C410 1.327 . S
C408 H433 0.950 . S
C409 C408 1.349 . S
C409 C425 1.349 . S
C410 C408 1.327 . S
C410 C429 1.429 . S
C410 H434 0.950 . S
C411 C428 1.574 . S
C411 C430 1.368 1_556 S
C411 H435 0.949 . S
H412 C416 0.949 . S
C413 C414 1.349 1_556 S
C413 C415 1.327 . S
C413 H436 0.950 . S
C414 C413 1.349 1_554 S
C414 C426 1.349 . S
C415 C413 1.327 . S
C415 C431 1.429 1_556 S
C415 H437 0.950 . S
C416 H412 0.949 . S
C416 C424 1.574 . S
C416 C432 1.368 . S
H417 C425 0.950 1_556 S
H418 C423 0.965 . S
H419 C424 0.949 . S
H420 C426 0.950 . S
H421 C427 0.950 . S
H422 C428 0.949 . S
C423 H418 0.965 . S
C423 C425 1.325 1_556 S
C423 C429 1.417 1_556 S
C424 C416 1.574 . S
C424 H419 0.949 . S
C424 C430 1.368 . S
C425 C409 1.349 . S
C425 H417 0.950 1_554 S
C425 C423 1.325 1_554 S
C426 C414 1.349 . S
C426 H420 0.950 . S
C426 C427 1.327 . S
C427 H421 0.950 . S
C427 C426 1.327 . S
C427 C431 1.429 . S
C428 C411 1.574 . S
C428 H422 0.949 . S
C428 C432 1.368 1_556 S
C429 C410 1.429 . S
C429 C423 1.417 1_554 S
C429 C430 1.523 . S
C430 C411 1.368 1_554 S
C430 C424 1.368 . S
C430 C429 1.523 . S
C431 C415 1.429 1_554 S
C431 C427 1.429 . S
C431 C432 1.523 . S
C432 C416 1.368 . S
C432 C428 1.368 1_554 S
C432 C431 1.523 . S
H433 C408 0.950 . S
H434 C410 0.950 . S
H435 C411 0.949 . S
H436 C413 0.950 . S
H437 C415 0.950 . S
C438 C439 1.349 . S
C438 C440 1.327 . S
C438 H463 0.950 . S
C439 C438 1.349 . S
C439 C455 1.349 . S
C440 C438 1.327 . S
C440 C459 1.429 . S
C440 H464 0.950 . S
C441 C458 1.574 . S
C441 C460 1.368 1_556 S
C441 H465 0.949 . S
H442 C446 0.949 . S
C443 C444 1.349 1_556 S
C443 C445 1.327 . S
C443 H466 0.950 . S
C444 C443 1.349 1_554 S
C444 C456 1.349 . S
C445 C443 1.327 . S
C445 C461 1.429 1_556 S
C445 H467 0.950 . S
C446 H442 0.949 . S
C446 C454 1.574 . S
C446 C462 1.368 . S
H447 C455 0.950 1_556 S
H448 C453 0.951 . S
H449 C454 0.949 . S
H450 C456 0.950 . S
H451 C457 0.950 . S
H452 C458 0.949 . S
C453 H448 0.951 . S
C453 C455 1.327 1_556 S
C453 C459 1.428 1_556 S
C454 C446 1.574 . S
C454 H449 0.949 . S
C454 C460 1.368 . S
C455 C439 1.349 . S
C455 H447 0.950 1_554 S
C455 C453 1.327 1_554 S
C456 C444 1.349 . S
C456 H450 0.950 . S
C456 C457 1.327 . S
C457 H451 0.950 . S
C457 C456 1.327 . S
C457 C461 1.429 . S
C458 C441 1.574 . S
C458 H452 0.949 . S
C458 C462 1.368 1_556 S
C459 C440 1.429 . S
C459 C453 1.428 1_554 S
C459 C460 1.523 . S
C460 C441 1.368 1_554 S
C460 C454 1.368 . S
C460 C459 1.523 . S
C461 C445 1.429 1_554 S
C461 C457 1.429 . S
C461 C462 1.523 . S
C462 C446 1.368 . S
C462 C458 1.368 1_554 S
C462 C461 1.523 . S
H463 C438 0.950 . S
H464 C440 0.950 . S
H465 C441 0.949 . S
H466 C443 0.950 . S
H467 C445 0.950 . S
C468 C469 1.349 1_556 S
C468 C470 1.327 . S
C468 H493 0.950 . S
C469 C468 1.349 1_554 S
C469 C485 1.349 . S
C470 C468 1.327 . S
C470 C489 1.429 1_556 S
C470 H494 0.950 . S
C471 C488 1.574 . S
C471 C490 1.368 . S
C471 H495 0.949 . S
H472 C476 0.949 . S
C473 C474 1.349 . S
C473 C475 1.327 . S
C473 H496 0.950 . S
C474 C473 1.349 . S
C474 C486 1.349 . S
C475 C473 1.327 . S
C475 C491 1.429 . S
C475 H497 0.950 . S
C476 H472 0.949 . S
C476 C484 1.574 . S
C476 C492 1.368 1_556 S
H477 C485 0.950 . S
H478 C483 0.950 . S
H479 C484 0.949 . S
H480 C486 0.950 1_556 S
H481 C487 0.974 . S
H482 C488 0.949 . S
C483 H478 0.950 . S
C483 C485 1.327 . S
C483 C489 1.429 . S
C484 C476 1.574 . S
C484 H479 0.949 . S
C484 C490 1.368 1_556 S
C485 C469 1.349 . S
C485 H477 0.950 . S
C485 C483 1.327 . S
C486 C474 1.349 . S
C486 H480 0.950 1_554 S
C486 C487 1.325 1_554 S
C487 H481 0.974 . S
C487 C486 1.325 1_556 S
C487 C491 1.407 1_556 S
C488 C471 1.574 . S
C488 H482 0.949 . S
C488 C492 1.368 . S
C489 C470 1.429 1_554 S
C489 C483 1.429 . S
C489 C490 1.523 . S
C490 C471 1.368 . S
C490 C484 1.368 1_554 S
C490 C489 1.523 . S
C491 C475 1.429 . S
C491 C487 1.407 1_554 S
C491 C492 1.523 . S
C492 C476 1.368 1_554 S
C492 C488 1.368 . S
C492 C491 1.523 . S
H493 C468 0.950 . S
H494 C470 0.950 . S
H495 C471 0.949 . S
H496 C473 0.950 . S
H497 C475 0.950 . S
C498 C499 1.349 . S
C498 C500 1.327 . S
C498 H523 0.950 . S
C499 C498 1.349 . S
C499 C515 1.349 1_554 S
C500 C498 1.327 . S
C500 C519 1.429 . S
C500 H524 0.950 . S
C501 C518 1.574 . S
C501 C520 1.368 1_556 S
C501 H525 0.949 . S
H502 C506 0.949 . S
C503 C504 1.349 . S
C503 C505 1.327 . S
C503 H526 0.950 1_554 S
C504 C503 1.349 . S
C504 C516 1.349 . S
C505 C503 1.327 . S
C505 C521 1.429 . S
C505 H527 0.950 1_554 S
C506 H502 0.949 . S
C506 C514 1.574 . S
C506 C522 1.368 . S
H507 C515 0.950 . S
H508 C513 0.950 . S
H509 C514 0.949 . S
H510 C516 0.950 . S
H511 C517 0.950 . S
H512 C518 0.949 . S
C513 H508 0.950 . S
C513 C515 1.327 . S
C513 C519 1.429 1_556 S
C514 C506 1.574 . S
C514 H509 0.949 . S
C514 C520 1.368 . S
C515 C499 1.349 1_556 S
C515 H507 0.950 . S
C515 C513 1.327 . S
C516 C504 1.349 . S
C516 H510 0.950 . S
C516 C517 1.327 . S
C517 H511 0.950 . S
C517 C516 1.327 . S
C517 C521 1.429 . S
C518 C501 1.574 . S
C518 H512 0.949 . S
C518 C522 1.368 1_556 S
C519 C500 1.429 . S
C519 C513 1.429 1_554 S
C519 C520 1.523 . S
C520 C501 1.368 1_554 S
C520 C514 1.368 . S
C520 C519 1.523 . S
C521 C505 1.429 . S
C521 C517 1.429 . S
C521 C522 1.523 . S
C522 C506 1.368 . S
C522 C518 1.368 1_554 S
C522 C521 1.523 . S
H523 C498 0.950 . S
H524 C500 0.950 . S
H525 C501 0.949 . S
H526 C503 0.950 1_556 S
H527 C505 0.950 1_556 S
C528 C529 1.349 . S
C528 C530 1.327 . S
C528 H553 0.950 . S
C529 C528 1.349 . S
C529 C545 1.349 . S
C530 C528 1.327 . S
C530 C549 1.429 . S
C530 H554 0.950 . S
C531 C548 1.574 . S
C531 C550 1.368 . S
C531 H555 0.949 . S
H532 C536 0.949 . S
C533 C534 1.349 . S
C533 C535 1.327 . S
C533 H556 0.950 . S
C534 C533 1.349 . S
C534 C546 1.349 . S
C535 C533 1.327 . S
C535 C551 1.429 . S
C535 H557 0.950 . S
C536 H532 0.949 . S
C536 C544 1.574 . S
C536 C552 1.368 . S
H537 C545 0.950 . S
H538 C543 0.950 . S
H539 C544 0.949 . S
H540 C546 0.950 . S
H541 C547 0.950 . S
H542 C548 0.949 . S
C543 H538 0.950 . S
C543 C545 1.327 . S
C543 C549 1.429 . S
C544 C536 1.574 . S
C544 H539 0.949 . S
C544 C550 1.368 . S
C545 C529 1.349 . S
C545 H537 0.950 . S
C545 C543 1.327 . S
C546 C534 1.349 . S
C546 H540 0.950 . S
C546 C547 1.327 . S
C547 H541 0.950 . S
C547 C546 1.327 . S
C547 C551 1.429 . S
C548 C531 1.574 . S
C548 H542 0.949 . S
C548 C552 1.368 . S
C549 C530 1.429 . S
C549 C543 1.429 . S
C549 C550 1.523 . S
C550 C531 1.368 . S
C550 C544 1.368 . S
C550 C549 1.523 . S
C551 C535 1.429 . S
C551 C547 1.429 . S
C551 C552 1.523 . S
C552 C536 1.368 . S
C552 C548 1.368 . S
C552 C551 1.523 . S
H553 C528 0.950 . S
H554 C530 0.950 . S
H555 C531 0.949 . S
H556 C533 0.950 . S
H557 C535 0.950 . S
C558 C559 1.349 . S
C558 C560 1.327 . S
C558 H583 0.950 . S
C559 C558 1.349 . S
C559 C575 1.349 . S
C560 C558 1.327 . S
C560 C579 1.429 . S
C560 H584 0.950 . S
C561 C578 1.574 . S
C561 C580 1.368 . S
C561 H585 0.949 . S
H562 C566 0.949 . S
C563 C564 1.349 . S
C563 C565 1.327 . S
C563 H586 0.950 . S
C564 C563 1.349 . S
C564 C576 1.349 . S
C565 C563 1.327 . S
C565 C581 1.429 . S
C565 H587 0.950 . S
C566 H562 0.949 . S
C566 C574 1.574 . S
C566 C582 1.368 . S
H567 C575 0.950 . S
H568 C573 0.950 . S
H569 C574 0.949 . S
H570 C576 0.950 . S
H571 C577 0.950 . S
H572 C578 0.949 . S
C573 H568 0.950 . S
C573 C575 1.327 . S
C573 C579 1.429 . S
C574 C566 1.574 . S
C574 H569 0.949 . S
C574 C580 1.368 . S
C575 C559 1.349 . S
C575 H567 0.950 . S
C575 C573 1.327 . S
C576 C564 1.349 . S
C576 H570 0.950 . S
C576 C577 1.327 . S
C577 H571 0.950 . S
C577 C576 1.327 . S
C577 C581 1.429 . S
C578 C561 1.574 . S
C578 H572 0.949 . S
C578 C582 1.368 . S
C579 C560 1.429 . S
C579 C573 1.429 . S
C579 C580 1.523 . S
C580 C561 1.368 . S
C580 C574 1.368 . S
C580 C579 1.523 . S
C581 C565 1.429 . S
C581 C577 1.429 . S
C581 C582 1.523 . S
C582 C566 1.368 . S
C582 C578 1.368 . S
C582 C581 1.523 . S
H583 C558 0.950 . S
H584 C560 0.950 . S
H585 C561 0.949 . S
H586 C563 0.950 . S
H587 C565 0.950 . S
C588 C589 1.349 . S
C588 C590 1.327 . S
C588 H613 0.950 . S
C589 C588 1.349 . S
C589 C605 1.349 . S
C590 C588 1.327 . S
C590 C609 1.429 . S
C590 H614 0.950 . S
C591 C608 1.574 . S
C591 C610 1.368 . S
C591 H615 0.949 . S
H592 C596 0.949 . S
C593 C594 1.349 . S
C593 C595 1.327 . S
C593 H616 0.950 . S
C594 C593 1.349 . S
C594 C606 1.349 . S
C595 C593 1.327 . S
C595 C611 1.429 . S
C595 H617 0.950 . S
C596 H592 0.949 . S
C596 C604 1.574 . S
C596 C612 1.368 . S
H597 C605 0.950 . S
H598 C603 0.950 . S
H599 C604 0.949 . S
H600 C606 0.950 . S
H601 C607 0.950 . S
H602 C608 0.949 . S
C603 H598 0.950 . S
C603 C605 1.327 . S
C603 C609 1.429 . S
C604 C596 1.574 . S
C604 H599 0.949 . S
C604 C610 1.368 . S
C605 C589 1.349 . S
C605 H597 0.950 . S
C605 C603 1.327 . S
C606 C594 1.349 . S
C606 H600 0.950 . S
C606 C607 1.327 . S
C607 H601 0.950 . S
C607 C606 1.327 . S
C607 C611 1.429 . S
C608 C591 1.574 . S
C608 H602 0.949 . S
C608 C612 1.368 . S
C609 C590 1.429 . S
C609 C603 1.429 . S
C609 C610 1.523 . S
C610 C591 1.368 . S
C610 C604 1.368 . S
C610 C609 1.523 . S
C611 C595 1.429 . S
C611 C607 1.429 . S
C611 C612 1.523 . S
C612 C596 1.368 . S
C612 C608 1.368 . S
C612 C611 1.523 . S
H613 C588 0.950 . S
H614 C590 0.950 . S
H615 C591 0.949 . S
H616 C593 0.950 . S
H617 C595 0.950 . S
C618 C619 1.349 . S
C618 C620 1.327 . S
C618 H643 0.950 . S
C619 C618 1.349 . S
C619 C635 1.349 . S
C620 C618 1.327 . S
C620 C639 1.429 . S
C620 H644 0.950 . S
C621 C638 1.574 . S
C621 C640 1.368 . S
C621 H645 0.949 . S
H622 C626 0.949 . S
C623 C624 1.349 . S
C623 C625 1.327 . S
C623 H646 0.950 . S
C624 C623 1.349 . S
C624 C636 1.349 . S
C625 C623 1.327 . S
C625 C641 1.429 . S
C625 H647 0.950 . S
C626 H622 0.949 . S
C626 C634 1.574 . S
C626 C642 1.368 . S
H627 C635 0.950 . S
H628 C633 0.950 . S
H629 C634 0.949 . S
H630 C636 0.950 . S
H631 C637 0.950 . S
H632 C638 0.949 . S
C633 H628 0.950 . S
C633 C635 1.327 . S
C633 C639 1.429 . S
C634 C626 1.574 . S
C634 H629 0.949 . S
C634 C640 1.368 . S
C635 C619 1.349 . S
C635 H627 0.950 . S
C635 C633 1.327 . S
C636 C624 1.349 . S
C636 H630 0.950 . S
C636 C637 1.327 . S
C637 H631 0.950 . S
C637 C636 1.327 . S
C637 C641 1.429 . S
C638 C621 1.574 . S
C638 H632 0.949 . S
C638 C642 1.368 . S
C639 C620 1.429 . S
C639 C633 1.429 . S
C639 C640 1.523 . S
C640 C621 1.368 . S
C640 C634 1.368 . S
C640 C639 1.523 . S
C641 C625 1.429 . S
C641 C637 1.429 . S
C641 C642 1.523 . S
C642 C626 1.368 . S
C642 C638 1.368 . S
C642 C641 1.523 . S
H643 C618 0.950 . S
H644 C620 0.950 . S
H645 C621 0.949 . S
H646 C623 0.950 . S
H647 C625 0.950 . S
C648 C649 1.349 . S
C648 C650 1.327 . S
C648 H673 0.950 . S
C649 C648 1.349 . S
C649 C665 1.349 . S
C650 C648 1.327 . S
C650 C669 1.429 . S
C650 H674 0.950 . S
C651 C668 1.574 . S
C651 C670 1.368 . S
C651 H675 0.949 . S
H652 C656 0.949 . S
C653 C654 1.349 . S
C653 C655 1.327 . S
C653 H676 0.950 . S
C654 C653 1.349 . S
C654 C666 1.349 . S
C655 C653 1.327 . S
C655 C671 1.429 . S
C655 H677 0.950 . S
C656 H652 0.949 . S
C656 C664 1.574 . S
C656 C672 1.368 . S
H657 C665 0.950 . S
H658 C663 0.950 . S
H659 C664 0.949 . S
H660 C666 0.950 . S
H661 C667 0.950 . S
H662 C668 0.949 . S
C663 H658 0.950 . S
C663 C665 1.327 . S
C663 C669 1.429 . S
C664 C656 1.574 . S
C664 H659 0.949 . S
C664 C670 1.368 . S
C665 C649 1.349 . S
C665 H657 0.950 . S
C665 C663 1.327 . S
C666 C654 1.349 . S
C666 H660 0.950 . S
C666 C667 1.327 . S
C667 H661 0.950 . S
C667 C666 1.327 . S
C667 C671 1.429 . S
C668 C651 1.574 . S
C668 H662 0.949 . S
C668 C672 1.368 . S
C669 C650 1.429 . S
C669 C663 1.429 . S
C669 C670 1.523 . S
C670 C651 1.368 . S
C670 C664 1.368 . S
C670 C669 1.523 . S
C671 C655 1.429 . S
C671 C667 1.429 . S
C671 C672 1.523 . S
C672 C656 1.368 . S
C672 C668 1.368 . S
C672 C671 1.523 . S
H673 C648 0.950 . S
H674 C650 0.950 . S
H675 C651 0.949 . S
H676 C653 0.950 . S
H677 C655 0.950 . S
C678 C679 1.349 . S
C678 C680 1.327 . S
C678 H703 0.950 . S
C679 C678 1.349 . S
C679 C695 1.349 . S
C680 C678 1.327 . S
C680 C699 1.429 . S
C680 H704 0.950 . S
C681 C698 1.574 . S
C681 C700 1.368 . S
C681 H705 0.949 . S
H682 C686 0.949 . S
C683 C684 1.349 . S
C683 C685 1.327 . S
C683 H706 0.950 . S
C684 C683 1.349 . S
C684 C696 1.349 . S
C685 C683 1.327 . S
C685 C701 1.429 . S
C685 H707 0.950 . S
C686 H682 0.949 . S
C686 C694 1.574 . S
C686 C702 1.368 . S
H687 C695 0.950 . S
H688 C693 0.950 . S
H689 C694 0.949 . S
H690 C696 0.950 . S
H691 C697 0.950 . S
H692 C698 0.949 . S
C693 H688 0.950 . S
C693 C695 1.327 . S
C693 C699 1.429 . S
C694 C686 1.574 . S
C694 H689 0.949 . S
C694 C700 1.368 . S
C695 C679 1.349 . S
C695 H687 0.950 . S
C695 C693 1.327 . S
C696 C684 1.349 . S
C696 H690 0.950 . S
C696 C697 1.327 . S
C697 H691 0.950 . S
C697 C696 1.327 . S
C697 C701 1.429 . S
C698 C681 1.574 . S
C698 H692 0.949 . S
C698 C702 1.368 . S
C699 C680 1.429 . S
C699 C693 1.429 . S
C699 C700 1.523 . S
C700 C681 1.368 . S
C700 C694 1.368 . S
C700 C699 1.523 . S
C701 C685 1.429 . S
C701 C697 1.429 . S
C701 C702 1.523 . S
C702 C686 1.368 . S
C702 C698 1.368 . S
C702 C701 1.523 . S
H703 C678 0.950 . S
H704 C680 0.950 . S
H705 C681 0.949 . S
H706 C683 0.950 . S
H707 C685 0.950 . S
C708 C709 1.349 . S
C708 C710 1.327 . S
C708 H733 0.950 . S
C709 C708 1.349 . S
C709 C725 1.349 . S
C710 C708 1.327 . S
C710 C729 1.429 . S
C710 H734 0.950 . S
C711 C728 1.574 . S
C711 C730 1.368 . S
C711 H735 0.949 . S
H712 C716 0.949 . S
C713 C714 1.349 . S
C713 C715 1.327 . S
C713 H736 0.950 . S
C714 C713 1.349 . S
C714 C726 1.349 . S
C715 C713 1.327 . S
C715 C731 1.429 . S
C715 H737 0.950 . S
C716 H712 0.949 . S
C716 C724 1.574 . S
C716 C732 1.368 . S
H717 C725 0.950 . S
H718 C723 0.950 . S
H719 C724 0.949 . S
H720 C726 0.950 . S
H721 C727 0.950 . S
H722 C728 0.949 . S
C723 H718 0.950 . S
C723 C725 1.327 . S
C723 C729 1.429 . S
C724 C716 1.574 . S
C724 H719 0.949 . S
C724 C730 1.368 . S
C725 C709 1.349 . S
C725 H717 0.950 . S
C725 C723 1.327 . S
C726 C714 1.349 . S
C726 H720 0.950 . S
C726 C727 1.327 . S
C727 H721 0.950 . S
C727 C726 1.327 . S
C727 C731 1.429 . S
C728 C711 1.574 . S
C728 H722 0.949 . S
C728 C732 1.368 . S
C729 C710 1.429 . S
C729 C723 1.429 . S
C729 C730 1.523 . S
C730 C711 1.368 . S
C730 C724 1.368 . S
C730 C729 1.523 . S
C731 C715 1.429 . S
C731 C727 1.429 . S
C731 C732 1.523 . S
C732 C716 1.368 . S
C732 C728 1.368 . S
C732 C731 1.523 . S
H733 C708 0.950 . S
H734 C710 0.950 . S
H735 C711 0.949 . S
H736 C713 0.950 . S
H737 C715 0.950 . S
C738 C739 1.349 . S
C738 C740 1.327 . S
C738 H763 0.950 . S
C739 C738 1.349 . S
C739 C755 1.349 . S
C740 C738 1.327 . S
C740 C759 1.429 . S
C740 H764 0.950 . S
C741 C758 1.574 . S
C741 C760 1.368 . S
C741 H765 0.949 . S
H742 C746 0.949 . S
C743 C744 1.349 . S
C743 C745 1.327 . S
C743 H766 0.950 . S
C744 C743 1.349 . S
C744 C756 1.349 . S
C745 C743 1.327 . S
C745 C761 1.429 . S
C745 H767 0.950 . S
C746 H742 0.949 . S
C746 C754 1.574 . S
C746 C762 1.368 . S
H747 C755 0.950 . S
H748 C753 0.950 . S
H749 C754 0.949 . S
H750 C756 0.950 . S
H751 C757 0.950 . S
H752 C758 0.949 . S
C753 H748 0.950 . S
C753 C755 1.327 . S
C753 C759 1.429 . S
C754 C746 1.574 . S
C754 H749 0.949 . S
C754 C760 1.368 . S
C755 C739 1.349 . S
C755 H747 0.950 . S
C755 C753 1.327 . S
C756 C744 1.349 . S
C756 H750 0.950 . S
C756 C757 1.327 . S
C757 H751 0.950 . S
C757 C756 1.327 . S
C757 C761 1.429 . S
C758 C741 1.574 . S
C758 H752 0.949 . S
C758 C762 1.368 . S
C759 C740 1.429 . S
C759 C753 1.429 . S
C759 C760 1.523 . S
C760 C741 1.368 . S
C760 C754 1.368 . S
C760 C759 1.523 . S
C761 C745 1.429 . S
C761 C757 1.429 . S
C761 C762 1.523 . S
C762 C746 1.368 . S
C762 C758 1.368 . S
C762 C761 1.523 . S
H763 C738 0.950 . S
H764 C740 0.950 . S
H765 C741 0.949 . S
H766 C743 0.950 . S
H767 C745 0.950 . S
C768 C769 1.349 . S
C768 C770 1.327 . S
C768 H793 0.950 . S
C769 C768 1.349 . S
C769 C785 1.349 . S
C770 C768 1.327 . S
C770 C789 1.429 . S
C770 H794 0.950 . S
C771 C788 1.574 . S
C771 C790 1.368 . S
C771 H795 0.949 . S
H772 C776 0.949 . S
C773 C774 1.349 . S
C773 C775 1.327 . S
C773 H796 0.950 . S
C774 C773 1.349 . S
C774 C786 1.349 . S
C775 C773 1.327 . S
C775 C791 1.429 . S
C775 H797 0.950 . S
C776 H772 0.949 . S
C776 C784 1.574 . S
C776 C792 1.368 . S
H777 C785 0.950 . S
H778 C783 0.950 . S
H779 C784 0.949 . S
H780 C786 0.950 . S
H781 C787 0.950 . S
H782 C788 0.949 . S
C783 H778 0.950 . S
C783 C785 1.327 . S
C783 C789 1.429 . S
C784 C776 1.574 . S
C784 H779 0.949 . S
C784 C790 1.368 . S
C785 C769 1.349 . S
C785 H777 0.950 . S
C785 C783 1.327 . S
C786 C774 1.349 . S
C786 H780 0.950 . S
C786 C787 1.327 . S
C787 H781 0.950 . S
C787 C786 1.327 . S
C787 C791 1.429 . S
C788 C771 1.574 . S
C788 H782 0.949 . S
C788 C792 1.368 . S
C789 C770 1.429 . S
C789 C783 1.429 . S
C789 C790 1.523 . S
C790 C771 1.368 . S
C790 C784 1.368 . S
C790 C789 1.523 . S
C791 C775 1.429 . S
C791 C787 1.429 . S
C791 C792 1.523 . S
C792 C776 1.368 . S
C792 C788 1.368 . S
C792 C791 1.523 . S
H793 C768 0.950 . S
H794 C770 0.950 . S
H795 C771 0.949 . S
H796 C773 0.950 . S
H797 C775 0.950 . S
C798 C799 1.349 . S
C798 C800 1.327 . S
C798 H823 0.950 . S
C799 C798 1.349 . S
C799 C815 1.349 . S
C800 C798 1.327 . S
C800 C819 1.429 . S
C800 H824 0.950 . S
C801 C818 1.574 . S
C801 C820 1.368 . S
C801 H825 0.949 . S
H802 C806 0.949 . S
C803 C804 1.349 . S
C803 C805 1.327 . S
C803 H826 0.950 . S
C804 C803 1.349 . S
C804 C816 1.349 . S
C805 C803 1.327 . S
C805 C821 1.429 . S
C805 H827 0.950 . S
C806 H802 0.949 . S
C806 C814 1.574 . S
C806 C822 1.368 . S
H807 C815 0.950 . S
H808 C813 0.950 . S
H809 C814 0.949 . S
H810 C816 0.950 . S
H811 C817 0.950 . S
H812 C818 0.949 . S
C813 H808 0.950 . S
C813 C815 1.327 . S
C813 C819 1.429 . S
C814 C806 1.574 . S
C814 H809 0.949 . S
C814 C820 1.368 . S
C815 C799 1.349 . S
C815 H807 0.950 . S
C815 C813 1.327 . S
C816 C804 1.349 . S
C816 H810 0.950 . S
C816 C817 1.327 . S
C817 H811 0.950 . S
C817 C816 1.327 . S
C817 C821 1.429 . S
C818 C801 1.574 . S
C818 H812 0.949 . S
C818 C822 1.368 . S
C819 C800 1.429 . S
C819 C813 1.429 . S
C819 C820 1.523 . S
C820 C801 1.368 . S
C820 C814 1.368 . S
C820 C819 1.523 . S
C821 C805 1.429 . S
C821 C817 1.429 . S
C821 C822 1.523 . S
C822 C806 1.368 . S
C822 C818 1.368 . S
C822 C821 1.523 . S
H823 C798 0.950 . S
H824 C800 0.950 . S
H825 C801 0.949 . S
H826 C803 0.950 . S
H827 C805 0.950 . S
C828 C829 1.349 . S
C828 C830 1.327 . S
C828 H853 0.950 . S
C829 C828 1.349 . S
C829 C845 1.349 . S
C830 C828 1.327 . S
C830 C849 1.429 . S
C830 H854 0.950 . S
C831 C848 1.574 . S
C831 C850 1.368 . S
C831 H855 0.949 . S
H832 C836 0.949 . S
C833 C834 1.349 . S
C833 C835 1.327 . S
C833 H856 0.950 . S
C834 C833 1.349 . S
C834 C846 1.349 . S
C835 C833 1.327 . S
C835 C851 1.429 . S
C835 H857 0.950 . S
C836 H832 0.949 . S
C836 C844 1.574 . S
C836 C852 1.368 . S
H837 C845 0.950 . S
H838 C843 0.950 . S
H839 C844 0.949 . S
H840 C846 0.950 . S
H841 C847 0.950 . S
H842 C848 0.949 . S
C843 H838 0.950 . S
C843 C845 1.327 . S
C843 C849 1.429 . S
C844 C836 1.574 . S
C844 H839 0.949 . S
C844 C850 1.368 . S
C845 C829 1.349 . S
C845 H837 0.950 . S
C845 C843 1.327 . S
C846 C834 1.349 . S
C846 H840 0.950 . S
C846 C847 1.327 . S
C847 H841 0.950 . S
C847 C846 1.327 . S
C847 C851 1.429 . S
C848 C831 1.574 . S
C848 H842 0.949 . S
C848 C852 1.368 . S
C849 C830 1.429 . S
C849 C843 1.429 . S
C849 C850 1.523 . S
C850 C831 1.368 . S
C850 C844 1.368 . S
C850 C849 1.523 . S
C851 C835 1.429 . S
C851 C847 1.429 . S
C851 C852 1.523 . S
C852 C836 1.368 . S
C852 C848 1.368 . S
C852 C851 1.523 . S
H853 C828 0.950 . S
H854 C830 0.950 . S
H855 C831 0.949 . S
H856 C833 0.950 . S
H857 C835 0.950 . S
C858 C859 1.349 . S
C858 C860 1.327 . S
C858 H883 0.950 . S
C859 C858 1.349 . S
C859 C875 1.349 . S
C860 C858 1.327 . S
C860 C879 1.429 . S
C860 H884 0.950 . S
C861 C878 1.574 . S
C861 C880 1.368 . S
C861 H885 0.949 . S
H862 C866 0.949 . S
C863 C864 1.349 . S
C863 C865 1.327 . S
C863 H886 0.950 . S
C864 C863 1.349 . S
C864 C876 1.349 . S
C865 C863 1.327 . S
C865 C881 1.429 . S
C865 H887 0.950 . S
C866 H862 0.949 . S
C866 C874 1.574 . S
C866 C882 1.368 . S
H867 C875 0.950 . S
H868 C873 0.950 . S
H869 C874 0.949 . S
H870 C876 0.950 . S
H871 C877 0.950 . S
H872 C878 0.949 . S
C873 H868 0.950 . S
C873 C875 1.327 . S
C873 C879 1.429 . S
C874 C866 1.574 . S
C874 H869 0.949 . S
C874 C880 1.368 . S
C875 C859 1.349 . S
C875 H867 0.950 . S
C875 C873 1.327 . S
C876 C864 1.349 . S
C876 H870 0.950 . S
C876 C877 1.327 . S
C877 H871 0.950 . S
C877 C876 1.327 . S
C877 C881 1.429 . S
C878 C861 1.574 . S
C878 H872 0.949 . S
C878 C882 1.368 . S
C879 C860 1.429 . S
C879 C873 1.429 . S
C879 C880 1.523 . S
C880 C861 1.368 . S
C880 C874 1.368 . S
C880 C879 1.523 . S
C881 C865 1.429 . S
C881 C877 1.429 . S
C881 C882 1.523 . S
C882 C866 1.368 . S
C882 C878 1.368 . S
C882 C881 1.523 . S
H883 C858 0.950 . S
H884 C860 0.950 . S
H885 C861 0.949 . S
H886 C863 0.950 . S
H887 C865 0.950 . S
C169 C8 1.435 . S
C174 C78 1.437 . S
C199 C17 1.505 . S
C204 C59 1.506 . S
C229 C77 1.332 . S
C234 C35 1.331 . S
C259 C45 1.404 . S
C264 C65 1.398 . S
C289 C106 1.475 . S
C294 C36 1.476 . S
C319 C93 1.331 . S
C324 C51 1.332 . S
C349 C7 1.371 . S
C354 C105 1.370 . S
C379 C87 1.443 . S
C384 C23 1.437 . S
C409 C129 1.498 . S
C414 C120 1.487 . S
C439 C119 1.422 . S
C444 C157 1.449 . S
C469 C135 1.340 . S
C474 C147 1.324 . S
C499 C148 1.383 . S
C504 C163 1.386 . S
C529 C162 1.435 . S
C534 C92 1.437 . S
C559 C115 1.505 . S
C564 C101 1.505 . S
C589 C91 1.332 . S
C594 C133 1.331 . S
C619 C107 1.398 . S
C624 C143 1.404 . S
C649 C64 1.475 . S
C654 C134 1.476 . S
C679 C79 1.331 . S
C684 C149 1.332 . S
C709 C161 1.371 . S
C714 C63 1.370 . S
C739 C121 1.437 . S
C744 C73 1.443 . S
C769 C22 1.487 . S
C774 C31 1.497 . S
C799 C3 1.449 . S
C804 C21 1.422 . S
C829 C37 1.340 . S
C834 C49 1.324 . S
C859 C9 1.386 . S
C864 C50 1.383 . S
