# Generated by pormake.
# Topology lta, (4)-cn, num edge types: 1
# Building blocks:
#     Node 0, Type 0, BuildingBlock: TATPOV_clean_sbu_0, # of connection points: 4
#     Node 1, Type 0, BuildingBlock: TATPOV_clean_sbu_0, # of connection points: 4
#     Node 2, Type 0, BuildingBlock: TATPOV_clean_sbu_0, # of connection points: 4
#     Node 3, Type 0, BuildingBlock: TATPOV_clean_sbu_0, # of connection points: 4
#     Node 4, Type 0, BuildingBlock: TATPOV_clean_sbu_0, # of connection points: 4
#     Node 5, Type 0, BuildingBlock: TATPOV_clean_sbu_0, # of connection points: 4
#     Node 6, Type 0, BuildingBlock: TATPOV_clean_sbu_0, # of connection points: 4
#     Node 7, Type 0, BuildingBlock: TATPOV_clean_sbu_0, # of connection points: 4
#     Node 8, Type 0, BuildingBlock: TATPOV_clean_sbu_0, # of connection points: 4
#     Node 9, Type 0, BuildingBlock: TATPOV_clean_sbu_0, # of connection points: 4
#     Node 10, Type 0, BuildingBlock: TATPOV_clean_sbu_0, # of connection points: 4
#     Node 11, Type 0, BuildingBlock: TATPOV_clean_sbu_0, # of connection points: 4
#     Node 12, Type 0, BuildingBlock: TATPOV_clean_sbu_0, # of connection points: 4
#     Node 13, Type 0, BuildingBlock: TATPOV_clean_sbu_0, # of connection points: 4
#     Node 14, Type 0, BuildingBlock: TATPOV_clean_sbu_0, # of connection points: 4
#     Node 15, Type 0, BuildingBlock: TATPOV_clean_sbu_0, # of connection points: 4
#     Node 16, Type 0, BuildingBlock: TATPOV_clean_sbu_0, # of connection points: 4
#     Node 17, Type 0, BuildingBlock: TATPOV_clean_sbu_0, # of connection points: 4
#     Node 18, Type 0, BuildingBlock: TATPOV_clean_sbu_0, # of connection points: 4
#     Node 19, Type 0, BuildingBlock: TATPOV_clean_sbu_0, # of connection points: 4
#     Node 20, Type 0, BuildingBlock: TATPOV_clean_sbu_0, # of connection points: 4
#     Node 21, Type 0, BuildingBlock: TATPOV_clean_sbu_0, # of connection points: 4
#     Node 22, Type 0, BuildingBlock: TATPOV_clean_sbu_0, # of connection points: 4
#     Node 23, Type 0, BuildingBlock: TATPOV_clean_sbu_0, # of connection points: 4
#     Edge 24, Type (0, 0), BuildingBlock: CIFDUS_clean_linker_0, # of connection points: 2
#     Edge 25, Type (0, 0), BuildingBlock: CIFDUS_clean_linker_0, # of connection points: 2
#     Edge 26, Type (0, 0), BuildingBlock: CIFDUS_clean_linker_0, # of connection points: 2
#     Edge 27, Type (0, 0), BuildingBlock: CIFDUS_clean_linker_0, # of connection points: 2
#     Edge 28, Type (0, 0), BuildingBlock: CIFDUS_clean_linker_0, # of connection points: 2
#     Edge 29, Type (0, 0), BuildingBlock: CIFDUS_clean_linker_0, # of connection points: 2
#     Edge 30, Type (0, 0), BuildingBlock: CIFDUS_clean_linker_0, # of connection points: 2
#     Edge 31, Type (0, 0), BuildingBlock: CIFDUS_clean_linker_0, # of connection points: 2
#     Edge 32, Type (0, 0), BuildingBlock: CIFDUS_clean_linker_0, # of connection points: 2
#     Edge 33, Type (0, 0), BuildingBlock: CIFDUS_clean_linker_0, # of connection points: 2
#     Edge 34, Type (0, 0), BuildingBlock: CIFDUS_clean_linker_0, # of connection points: 2
#     Edge 35, Type (0, 0), BuildingBlock: CIFDUS_clean_linker_0, # of connection points: 2
#     Edge 36, Type (0, 0), BuildingBlock: CIFDUS_clean_linker_0, # of connection points: 2
#     Edge 37, Type (0, 0), BuildingBlock: CIFDUS_clean_linker_0, # of connection points: 2
#     Edge 38, Type (0, 0), BuildingBlock: CIFDUS_clean_linker_0, # of connection points: 2
#     Edge 39, Type (0, 0), BuildingBlock: CIFDUS_clean_linker_0, # of connection points: 2
#     Edge 40, Type (0, 0), BuildingBlock: CIFDUS_clean_linker_0, # of connection points: 2
#     Edge 41, Type (0, 0), BuildingBlock: CIFDUS_clean_linker_0, # of connection points: 2
#     Edge 42, Type (0, 0), BuildingBlock: CIFDUS_clean_linker_0, # of connection points: 2
#     Edge 43, Type (0, 0), BuildingBlock: CIFDUS_clean_linker_0, # of connection points: 2
#     Edge 44, Type (0, 0), BuildingBlock: CIFDUS_clean_linker_0, # of connection points: 2
#     Edge 45, Type (0, 0), BuildingBlock: CIFDUS_clean_linker_0, # of connection points: 2
#     Edge 46, Type (0, 0), BuildingBlock: CIFDUS_clean_linker_0, # of connection points: 2
#     Edge 47, Type (0, 0), BuildingBlock: CIFDUS_clean_linker_0, # of connection points: 2
#     Edge 48, Type (0, 0), BuildingBlock: CIFDUS_clean_linker_0, # of connection points: 2
#     Edge 49, Type (0, 0), BuildingBlock: CIFDUS_clean_linker_0, # of connection points: 2
#     Edge 50, Type (0, 0), BuildingBlock: CIFDUS_clean_linker_0, # of connection points: 2
#     Edge 51, Type (0, 0), BuildingBlock: CIFDUS_clean_linker_0, # of connection points: 2
#     Edge 52, Type (0, 0), BuildingBlock: CIFDUS_clean_linker_0, # of connection points: 2
#     Edge 53, Type (0, 0), BuildingBlock: CIFDUS_clean_linker_0, # of connection points: 2
#     Edge 54, Type (0, 0), BuildingBlock: CIFDUS_clean_linker_0, # of connection points: 2
#     Edge 55, Type (0, 0), BuildingBlock: CIFDUS_clean_linker_0, # of connection points: 2
#     Edge 56, Type (0, 0), BuildingBlock: CIFDUS_clean_linker_0, # of connection points: 2
#     Edge 57, Type (0, 0), BuildingBlock: CIFDUS_clean_linker_0, # of connection points: 2
#     Edge 58, Type (0, 0), BuildingBlock: CIFDUS_clean_linker_0, # of connection points: 2
#     Edge 59, Type (0, 0), BuildingBlock: CIFDUS_clean_linker_0, # of connection points: 2
#     Edge 60, Type (0, 0), BuildingBlock: CIFDUS_clean_linker_0, # of connection points: 2
#     Edge 61, Type (0, 0), BuildingBlock: CIFDUS_clean_linker_0, # of connection points: 2
#     Edge 62, Type (0, 0), BuildingBlock: CIFDUS_clean_linker_0, # of connection points: 2
#     Edge 63, Type (0, 0), BuildingBlock: CIFDUS_clean_linker_0, # of connection points: 2
#     Edge 64, Type (0, 0), BuildingBlock: CIFDUS_clean_linker_0, # of connection points: 2
#     Edge 65, Type (0, 0), BuildingBlock: CIFDUS_clean_linker_0, # of connection points: 2
#     Edge 66, Type (0, 0), BuildingBlock: CIFDUS_clean_linker_0, # of connection points: 2
#     Edge 67, Type (0, 0), BuildingBlock: CIFDUS_clean_linker_0, # of connection points: 2
#     Edge 68, Type (0, 0), BuildingBlock: CIFDUS_clean_linker_0, # of connection points: 2
#     Edge 69, Type (0, 0), BuildingBlock: CIFDUS_clean_linker_0, # of connection points: 2
#     Edge 70, Type (0, 0), BuildingBlock: CIFDUS_clean_linker_0, # of connection points: 2
#     Edge 71, Type (0, 0), BuildingBlock: CIFDUS_clean_linker_0, # of connection points: 2
# Relax obj value: 0.189
# Max RMSD: 0.077
# Mean RMSD: 0.077
data_MOF--net-lta--node1-TATPOV_clean_sbu_0--edge1-CIFDUS_clean_linker_0
_symmetry_space_group_name_H-M    P1
_symmetry_Int_Tables_number       1
_symmetry_cell_setting            triclinic
loop_
_symmetry_equiv_pos_as_xyz
'x, y, z'
_cell_length_a     49.259822
_cell_length_b     49.266743
_cell_length_c     49.357282
_cell_angle_alpha  90.000039
_cell_angle_beta   90.026879
_cell_angle_gamma 89.92155
loop_
_atom_site_label
_atom_site_type_symbol
_atom_site_fract_x
_atom_site_fract_y
_atom_site_fract_z
_atom_type_partial_charge
Zn0 Zn 0.13533 0.39272 0.49144 0.0
Zn1 Zn 0.13433 0.34148 0.49971 0.0
O2 O 0.15024 0.34848 0.46094 0.0
O3 O 0.15459 0.39252 0.45606 0.0
O4 O 0.14395 0.30187 0.50457 0.0
O5 O 0.15583 0.40239 0.52477 0.0
O6 O 0.14882 0.35964 0.53525 0.0
C7 C 0.15754 0.36885 0.44673 0.0
C8 C 0.08038 0.36783 0.49659 0.0
O9 O 0.09288 0.3453 0.49927 0.0
O10 O 0.09381 0.38957 0.49315 0.0
C11 C 0.13668 0.28461 0.48685 0.0
O12 O 0.12052 0.2925 0.46716 0.0
C13 C 0.157 0.38333 0.54183 0.0
Zn14 Zn 0.67699 0.07954 0.47701 0.0
Zn15 Zn 0.7115 0.11721 0.4867 0.0
O16 O 0.68954 0.13091 0.45274 0.0
O17 O 0.66023 0.09807 0.44523 0.0
O18 O 0.7408 0.14558 0.49153 0.0
O19 O 0.66217 0.08608 0.51501 0.0
O20 O 0.68796 0.12216 0.52045 0.0
C21 C 0.6698 0.12104 0.43913 0.0
C22 C 0.72739 0.05573 0.47986 0.0
O23 O 0.73285 0.07984 0.48778 0.0
O24 O 0.70399 0.05029 0.47096 0.0
C25 C 0.75283 0.14799 0.51421 0.0
O26 O 0.74654 0.13126 0.53397 0.0
C27 C 0.66948 0.10637 0.52901 0.0
Zn28 Zn 0.95035 0.64978 0.52612 0.0
Zn29 Zn 0.90527 0.66996 0.52132 0.0
O30 O 0.90646 0.6502 0.48422 0.0
O31 O 0.95 0.64073 0.4862 0.0
O32 O 0.87059 0.69181 0.52209 0.0
O33 O 0.94047 0.62129 0.55211 0.0
O34 O 0.90141 0.64262 0.55428 0.0
C35 C 0.92792 0.641 0.47301 0.0
C36 C 0.95783 0.70356 0.53113 0.0
O37 O 0.93387 0.70141 0.52159 0.0
O38 O 0.96969 0.68254 0.53974 0.0
C39 C 0.86427 0.70714 0.50231 0.0
O40 O 0.87938 0.70675 0.48038 0.0
C41 C 0.91722 0.6237 0.56256 0.0
Zn42 Zn 0.31433 0.89682 0.5572 0.0
Zn43 Zn 0.29683 0.86057 0.52578 0.0
O44 O 0.33184 0.8634 0.50462 0.0
O45 O 0.34873 0.89274 0.5338 0.0
O46 O 0.27537 0.82933 0.51008 0.0
O47 O 0.31351 0.87746 0.59279 0.0
O48 O 0.30773 0.84458 0.56357 0.0
C49 C 0.35144 0.87809 0.51275 0.0
C50 C 0.27319 0.92009 0.52776 0.0
O51 O 0.27463 0.89624 0.51759 0.0
O52 O 0.2876 0.92593 0.54812 0.0
C53 C 0.26022 0.82964 0.48924 0.0
O54 O 0.25784 0.85214 0.47514 0.0
C55 C 0.31314 0.85234 0.58765 0.0
Zn56 Zn 0.07553 0.6541 0.45812 0.0
Zn57 Zn 0.12037 0.67251 0.46311 0.0
O58 O 0.11789 0.65301 0.50044 0.0
O59 O 0.07369 0.64786 0.49852 0.0
O60 O 0.15489 0.69484 0.46358 0.0
O61 O 0.08533 0.62356 0.43472 0.0
O62 O 0.12419 0.64477 0.43025 0.0
C63 C 0.09562 0.64646 0.51188 0.0
C64 C 0.06845 0.70678 0.45139 0.0
O65 O 0.09172 0.70409 0.46243 0.0
O66 O 0.0573 0.68611 0.44125 0.0
C67 C 0.17343 0.69314 0.48144 0.0
O68 O 0.17195 0.674 0.49991 0.0
C69 C 0.10822 0.62543 0.42342 0.0
Zn70 Zn 0.31015 0.09547 0.44569 0.0
Zn71 Zn 0.28583 0.12698 0.47786 0.0
O72 O 0.31858 0.1266 0.50247 0.0
O73 O 0.3415 0.10259 0.47247 0.0
O74 O 0.25896 0.15391 0.49332 0.0
O75 O 0.31077 0.11764 0.41152 0.0
O76 O 0.29983 0.1468 0.44313 0.0
C77 C 0.34065 0.11564 0.4947 0.0
C78 C 0.26973 0.06554 0.46967 0.0
O79 O 0.26749 0.08871 0.48113 0.0
O80 O 0.2866 0.06257 0.45059 0.0
C81 C 0.23661 0.15758 0.48092 0.0
O82 O 0.23125 0.14262 0.45954 0.0
C83 C 0.30849 0.14202 0.41921 0.0
Zn84 Zn 0.86789 0.38963 0.50562 0.0
Zn85 Zn 0.8608 0.33768 0.50395 0.0
O86 O 0.84196 0.35065 0.53991 0.0
O87 O 0.84629 0.39506 0.53899 0.0
O88 O 0.84809 0.29892 0.49969 0.0
O89 O 0.85032 0.39762 0.47034 0.0
O90 O 0.84974 0.35325 0.46622 0.0
C91 C 0.83749 0.37392 0.55044 0.0
C92 C 0.91834 0.35736 0.50735 0.0
O93 O 0.90251 0.33688 0.507 0.0
O94 O 0.90845 0.38117 0.50697 0.0
C95 C 0.84301 0.28255 0.51895 0.0
O96 O 0.84786 0.29009 0.54402 0.0
C97 C 0.84574 0.37678 0.4562 0.0
Zn98 Zn 0.68721 0.89724 0.55221 0.0
Zn99 Zn 0.71704 0.86154 0.53158 0.0
O100 O 0.6931 0.84338 0.56174 0.0
O101 O 0.66974 0.8757 0.58151 0.0
O102 O 0.74561 0.83288 0.5242 0.0
O103 O 0.67021 0.89816 0.51404 0.0
O104 O 0.69348 0.86339 0.49808 0.0
C105 C 0.67588 0.85091 0.57955 0.0
C106 C 0.73581 0.92108 0.54683 0.0
O107 O 0.73837 0.89882 0.5337 0.0
O108 O 0.71523 0.92456 0.56165 0.0
C109 C 0.75592 0.8205 0.54437 0.0
O110 O 0.74845 0.82762 0.56892 0.0
C111 C 0.67541 0.88157 0.49501 0.0
Zn112 Zn 0.48508 0.16894 0.38012 0.0
Zn113 Zn 0.49636 0.17562 0.33183 0.0
O114 O 0.45597 0.18628 0.34138 0.0
O115 O 0.45276 0.19298 0.38508 0.0
O116 O 0.50332 0.19551 0.29672 0.0
O117 O 0.52058 0.1782 0.3972 0.0
O118 O 0.53222 0.18146 0.35442 0.0
C119 C 0.44178 0.19317 0.36195 0.0
C120 C 0.48328 0.1205 0.34244 0.0
O121 O 0.49385 0.13549 0.32433 0.0
O122 O 0.47774 0.1302 0.36569 0.0
C123 C 0.49595 0.18683 0.2736 0.0
O124 O 0.48385 0.16315 0.27185 0.0
C125 C 0.53867 0.18196 0.37949 0.0
Zn126 Zn 0.92135 0.49545 0.32753 0.0
Zn127 Zn 0.88097 0.51401 0.29867 0.0
O128 O 0.86425 0.48174 0.31947 0.0
O129 O 0.89962 0.4629 0.33917 0.0
O130 O 0.85019 0.52593 0.27447 0.0
O131 O 0.92091 0.52976 0.34949 0.0
O132 O 0.88739 0.54637 0.32495 0.0
C133 C 0.8745 0.46285 0.33381 0.0
C134 C 0.93626 0.49756 0.27297 0.0
O135 O 0.91161 0.50513 0.27039 0.0
O136 O 0.946 0.49265 0.29611 0.0
C137 C 0.83601 0.50787 0.2627 0.0
O138 O 0.84175 0.48215 0.26683 0.0
C139 C 0.90433 0.54874 0.34439 0.0
Zn140 Zn 0.50883 0.93987 0.39746 0.0
Zn141 Zn 0.51039 0.9076 0.36182 0.0
O142 O 0.54869 0.90374 0.37989 0.0
O143 O 0.54886 0.94302 0.40078 0.0
O144 O 0.50981 0.88036 0.33117 0.0
O145 O 0.48864 0.91716 0.42354 0.0
O146 O 0.47807 0.89492 0.38657 0.0
C147 C 0.56136 0.92191 0.39332 0.0
C148 C 0.49308 0.96588 0.35146 0.0
O149 O 0.50465 0.94476 0.34193 0.0
O150 O 0.48845 0.96742 0.37655 0.0
C151 C 0.53058 0.87441 0.31707 0.0
O152 O 0.5539 0.88606 0.32268 0.0
C153 C 0.47416 0.89965 0.41173 0.0
Zn154 Zn 0.09952 0.44804 0.2927 0.0
Zn155 Zn 0.13503 0.47463 0.27138 0.0
O156 O 0.13241 0.50461 0.29924 0.0
O157 O 0.09945 0.48141 0.31845 0.0
O158 O 0.16383 0.48352 0.24385 0.0
O159 O 0.11835 0.41458 0.30453 0.0
O160 O 0.15162 0.44156 0.29292 0.0
C161 C 0.11465 0.50231 0.31783 0.0
C162 C 0.07626 0.46453 0.24739 0.0
O163 O 0.0987 0.47739 0.249 0.0
O164 O 0.0718 0.44535 0.26371 0.0
C165 C 0.16923 0.50713 0.23502 0.0
O166 O 0.15613 0.52817 0.24486 0.0
C167 C 0.14342 0.41974 0.3043 0.0
Zn168 Zn 0.48917 0.81477 0.62209 0.0
Zn169 Zn 0.48786 0.81753 0.67311 0.0
O170 O 0.45183 0.80021 0.6588 0.0
O171 O 0.45807 0.78942 0.61621 0.0
O172 O 0.48814 0.80825 0.71269 0.0
O173 O 0.52771 0.80264 0.61732 0.0
O174 O 0.52758 0.80884 0.6613 0.0
C175 C 0.4429 0.78981 0.63685 0.0
C176 C 0.47917 0.86947 0.64714 0.0
O177 O 0.48275 0.85803 0.66996 0.0
O178 O 0.48052 0.85563 0.62542 0.0
C179 C 0.46901 0.81463 0.72872 0.0
O180 O 0.44829 0.82865 0.7194 0.0
C181 C 0.54047 0.80353 0.63951 0.0
Zn182 Zn 0.07244 0.51042 0.66368 0.0
Zn183 Zn 0.11526 0.51985 0.69245 0.0
O184 O 0.12301 0.48244 0.67468 0.0
O185 O 0.08415 0.47218 0.65532 0.0
O186 O 0.148 0.52415 0.71686 0.0
O187 O 0.08201 0.54107 0.63897 0.0
O188 O 0.11785 0.55108 0.66379 0.0
C189 C 0.10826 0.46582 0.66145 0.0
C190 C 0.05698 0.52176 0.71685 0.0
O191 O 0.0827 0.52198 0.72017 0.0
O192 O 0.04697 0.51783 0.69365 0.0
C193 C 0.15137 0.50611 0.73503 0.0
O194 O 0.13342 0.48652 0.7371 0.0
C195 C 0.10246 0.55593 0.6435 0.0
Zn196 Zn 0.5022 0.06748 0.60549 0.0
Zn197 Zn 0.49475 0.08942 0.64887 0.0
O198 O 0.5354 0.09849 0.63956 0.0
O199 O 0.54201 0.07013 0.6058 0.0
O200 O 0.48865 0.11101 0.68318 0.0
O201 O 0.48044 0.09259 0.58315 0.0
O202 O 0.46454 0.10454 0.62286 0.0
C203 C 0.55125 0.08702 0.6226 0.0
C204 C 0.48341 0.02926 0.64285 0.0
O205 O 0.48846 0.0487 0.65922 0.0
O206 O 0.48541 0.03315 0.61763 0.0
C207 C 0.46513 0.1149 0.69308 0.0
O208 O 0.44409 0.10341 0.68143 0.0
C209 C 0.46292 0.10509 0.59704 0.0
Zn210 Zn 0.91223 0.45023 0.69775 0.0
Zn211 Zn 0.87393 0.47755 0.71565 0.0
O212 O 0.88139 0.5044 0.68509 0.0
O213 O 0.91661 0.48127 0.67032 0.0
O214 O 0.84151 0.49204 0.73619 0.0
O215 O 0.89349 0.41657 0.68736 0.0
O216 O 0.85829 0.44136 0.69874 0.0
C217 C 0.90111 0.50186 0.66863 0.0
C218 C 0.92885 0.46739 0.74687 0.0
O219 O 0.90669 0.48045 0.74328 0.0
O220 O 0.93536 0.44901 0.73033 0.0
C221 C 0.84259 0.51122 0.7534 0.0
O222 O 0.86591 0.5233 0.75796 0.0
C223 C 0.8681 0.41939 0.689 0.0
Zn224 Zn 0.39495 0.52285 0.11628 0.0
Zn225 Zn 0.34239 0.5215 0.11733 0.0
O226 O 0.35629 0.48668 0.13711 0.0
O227 O 0.40053 0.49094 0.14032 0.0
O228 O 0.30266 0.52048 0.12696 0.0
O229 O 0.39773 0.55949 0.13265 0.0
O230 O 0.35309 0.56022 0.1311 0.0
C231 C 0.37916 0.47776 0.14538 0.0
C232 C 0.36848 0.51577 0.0628 0.0
O233 O 0.34616 0.51727 0.07584 0.0
O234 O 0.39086 0.51764 0.07546 0.0
C235 C 0.28976 0.49817 0.12781 0.0
O236 O 0.30161 0.47604 0.11878 0.0
C237 C 0.37558 0.57172 0.13673 0.0
Zn238 Zn 0.38564 0.49396 0.85156 0.0
Zn239 Zn 0.33402 0.49544 0.845 0.0
O240 O 0.34944 0.53308 0.83326 0.0
O241 O 0.39375 0.52856 0.83256 0.0
O242 O 0.29543 0.49855 0.83143 0.0
O243 O 0.3916 0.45959 0.83175 0.0
O244 O 0.34714 0.4586 0.82766 0.0
C245 C 0.3729 0.54291 0.82849 0.0
C246 C 0.35374 0.49455 0.90232 0.0
O247 O 0.33304 0.49416 0.88677 0.0
O248 O 0.37741 0.49446 0.89212 0.0
C249 C 0.27805 0.47958 0.83288 0.0
O250 O 0.28456 0.45696 0.84542 0.0
C251 C 0.37039 0.44785 0.82356 0.0
Zn252 Zn 0.48422 0.31442 0.8684 0.0
Zn253 Zn 0.48462 0.27647 0.84041 0.0
O254 O 0.45098 0.2991 0.82715 0.0
O255 O 0.4439 0.31934 0.86599 0.0
O256 O 0.48733 0.24451 0.81488 0.0
O257 O 0.50885 0.33688 0.84499 0.0
O258 O 0.52215 0.29565 0.83534 0.0
C259 C 0.43566 0.31322 0.84255 0.0
C260 C 0.491 0.26966 0.90027 0.0
O261 O 0.47983 0.25986 0.87911 0.0
O262 O 0.50008 0.29362 0.89961 0.0
C263 C 0.46737 0.23002 0.80734 0.0
O264 O 0.44301 0.23549 0.81673 0.0
C265 C 0.52669 0.32113 0.83548 0.0
Zn266 Zn 0.64507 0.45539 0.90934 0.0
Zn267 Zn 0.66465 0.48294 0.8694 0.0
O268 O 0.64675 0.44802 0.8533 0.0
O269 O 0.63511 0.42261 0.88796 0.0
O270 O 0.68693 0.49609 0.83762 0.0
O271 O 0.61865 0.48757 0.91265 0.0
O272 O 0.63553 0.51118 0.87869 0.0
C273 C 0.63686 0.42601 0.86267 0.0
C274 C 0.69673 0.4707 0.92319 0.0
O275 O 0.69336 0.48247 0.90042 0.0
O276 O 0.67864 0.45478 0.93188 0.0
C277 C 0.70669 0.51249 0.8402 0.0
O278 O 0.71087 0.5241 0.86379 0.0
C279 C 0.61842 0.50876 0.89793 0.0
Zn280 Zn 0.46938 0.65675 0.94103 0.0
Zn281 Zn 0.48909 0.6891 0.90321 0.0
O282 O 0.51809 0.65901 0.90239 0.0
O283 O 0.50127 0.63137 0.93311 0.0
O284 O 0.49961 0.71471 0.87333 0.0
O285 O 0.43411 0.65154 0.92152 0.0
O286 O 0.45235 0.67497 0.88832 0.0
C287 C 0.51934 0.63681 0.91562 0.0
C288 C 0.48153 0.70903 0.96208 0.0
O289 O 0.4897 0.71327 0.93793 0.0
O290 O 0.47176 0.68627 0.96867 0.0
C291 C 0.48282 0.73344 0.86749 0.0
O292 O 0.46081 0.7361 0.8823 0.0
C293 C 0.4327 0.66112 0.89781 0.0
Zn294 Zn 0.65337 0.54535 0.07504 0.0
Zn295 Zn 0.67525 0.52072 0.11597 0.0
O296 O 0.66386 0.55938 0.12941 0.0
O297 O 0.64961 0.58118 0.09324 0.0
O298 O 0.69817 0.50747 0.14712 0.0
O299 O 0.62373 0.51629 0.07784 0.0
O300 O 0.64262 0.49506 0.11231 0.0
C301 C 0.65508 0.58102 0.11822 0.0
C302 C 0.70296 0.52359 0.05923 0.0
O303 O 0.70141 0.51464 0.08342 0.0
O304 O 0.68486 0.53949 0.0504 0.0
C305 C 0.71682 0.52379 0.15435 0.0
O306 O 0.7192 0.54705 0.14155 0.0
C307 C 0.62362 0.49694 0.09485 0.0
Zn308 Zn 0.51084 0.691 0.13322 0.0
Zn309 Zn 0.5133 0.7269 0.1624 0.0
O310 O 0.47811 0.70544 0.17269 0.0
O311 O 0.47006 0.69113 0.13161 0.0
O312 O 0.51559 0.75767 0.18948 0.0
O313 O 0.52997 0.66562 0.15882 0.0
O314 O 0.54871 0.70446 0.16906 0.0
C315 C 0.46191 0.69471 0.1556 0.0
C316 C 0.5242 0.73461 0.10339 0.0
O317 O 0.51177 0.74459 0.12378 0.0
O318 O 0.53224 0.7103 0.1045 0.0
C319 C 0.49444 0.76851 0.19957 0.0
O320 O 0.47045 0.76025 0.19137 0.0
C321 C 0.54935 0.67858 0.16941 0.0
Zn322 Zn 0.47292 0.34778 0.06676 0.0
Zn323 Zn 0.49184 0.31851 0.10628 0.0
O324 O 0.52087 0.34872 0.10647 0.0
O325 O 0.50359 0.37446 0.07434 0.0
O326 O 0.50137 0.29312 0.13694 0.0
O327 O 0.43671 0.35323 0.0837 0.0
O328 O 0.45458 0.3337 0.11954 0.0
C329 C 0.52165 0.3703 0.0922 0.0
C330 C 0.48686 0.2962 0.04754 0.0
O331 O 0.49411 0.29321 0.07219 0.0
O332 O 0.47677 0.31838 0.03961 0.0
C333 C 0.5076 0.30191 0.16034 0.0
O334 O 0.50951 0.32823 0.16421 0.0
C335 C 0.43485 0.34605 0.10818 0.0
H336 H 0.13659 0.36878 0.32434 0.0
H337 H 0.1887 0.43887 0.32969 0.0
H338 H 0.20316 0.42505 0.37484 0.0
H339 H 0.19075 0.40053 0.41651 0.0
H340 H 0.13786 0.33105 0.41163 0.0
H341 H 0.13438 0.33677 0.36259 0.0
C342 C 0.152 0.38039 0.33493 0.0
C343 C 0.16085 0.40528 0.32405 0.0
C344 C 0.15956 0.37278 0.36131 0.0
C345 C 0.18125 0.41982 0.3377 0.0
C346 C 0.18927 0.41211 0.36375 0.0
C347 C 0.17933 0.38603 0.40453 0.0
C348 C 0.16401 0.36586 0.41765 0.0
C349 C 0.177 0.38978 0.37642 0.0
C350 C 0.14966 0.34688 0.40199 0.0
C351 C 0.14745 0.35032 0.37394 0.0
H352 H 0.64333 0.16776 0.44902 0.0
H353 H 0.65981 0.10927 0.38637 0.0
H354 H 0.62291 0.12792 0.35877 0.0
H355 H 0.58056 0.15449 0.35688 0.0
H356 H 0.56037 0.20799 0.42292 0.0
H357 H 0.60401 0.19829 0.44455 0.0
C358 C 0.63951 0.15996 0.42881 0.0
C359 C 0.65446 0.13754 0.41945 0.0
C360 C 0.61711 0.16964 0.41392 0.0
C361 C 0.64879 0.12684 0.3937 0.0
C362 C 0.62749 0.13731 0.37809 0.0
C363 C 0.58622 0.16476 0.37549 0.0
C364 C 0.5674 0.18203 0.38826 0.0
C365 C 0.61069 0.15782 0.38857 0.0
C366 C 0.57462 0.1947 0.41271 0.0
C367 C 0.59949 0.18901 0.42516 0.0
H368 H 0.88392 0.63032 0.44013 0.0
H369 H 0.97138 0.62415 0.44379 0.0
H370 H 0.97177 0.59804 0.40217 0.0
H371 H 0.94739 0.57217 0.36794 0.0
H372 H 0.86025 0.57743 0.36283 0.0
H373 H 0.85964 0.60906 0.40131 0.0
C374 C 0.90305 0.62362 0.43157 0.0
C375 C 0.92751 0.62876 0.44551 0.0
C376 C 0.90323 0.60833 0.40738 0.0
C377 C 0.95217 0.62015 0.4339 0.0
C378 C 0.95248 0.60519 0.40999 0.0
C379 C 0.9283 0.58069 0.37491 0.0
C380 C 0.90391 0.57235 0.36284 0.0
C381 C 0.92814 0.59844 0.39708 0.0
C382 C 0.87932 0.58369 0.3718 0.0
C383 C 0.87897 0.60154 0.39396 0.0
H384 H 0.3613 0.86388 0.45996 0.0
H385 H 0.40022 0.89367 0.53253 0.0
H386 H 0.44267 0.89918 0.50809 0.0
H387 H 0.46744 0.89984 0.46576 0.0
H388 H 0.42913 0.87303 0.39186 0.0
H389 H 0.38795 0.86134 0.41729 0.0
C390 C 0.37919 0.87125 0.47042 0.0
C391 C 0.3775 0.8787 0.49794 0.0
C392 C 0.40361 0.87491 0.45604 0.0
C393 C 0.40084 0.88819 0.51128 0.0
C394 C 0.42517 0.89127 0.49735 0.0
C395 C 0.45023 0.89115 0.45515 0.0
C396 C 0.45122 0.88765 0.4269 0.0
C397 C 0.42657 0.88536 0.46965 0.0
C398 C 0.42887 0.87597 0.4136 0.0
C399 C 0.40526 0.8695 0.42811 0.0
H400 H 0.06561 0.58863 0.6208 0.0
H401 H 0.15144 0.57208 0.62214 0.0
H402 H 0.15786 0.60143 0.58233 0.0
H403 H 0.13752 0.62687 0.54354 0.0
H404 H 0.05109 0.64202 0.54357 0.0
H405 H 0.04653 0.6184 0.58643 0.0
C406 C 0.08583 0.59191 0.6127 0.0
C407 C 0.10798 0.57812 0.62413 0.0
C408 C 0.08917 0.60831 0.58978 0.0
C409 C 0.1341 0.58265 0.6137 0.0
C410 C 0.13769 0.5992 0.59078 0.0
C411 C 0.11781 0.62538 0.55321 0.0
C412 C 0.09461 0.63575 0.53998 0.0
C413 C 0.11518 0.6114 0.57806 0.0
C414 C 0.06923 0.63382 0.55292 0.0
C415 C 0.06655 0.62033 0.57753 0.0
H416 H 0.34613 0.12395 0.54939 0.0
H417 H 0.39183 0.11435 0.47535 0.0
H418 H 0.43413 0.11549 0.50066 0.0
H419 H 0.45785 0.11402 0.54355 0.0
H420 H 0.41333 0.11946 0.6186 0.0
H421 H 0.37101 0.12614 0.59322 0.0
C422 C 0.3654 0.12242 0.53888 0.0
C423 C 0.36585 0.11862 0.5106 0.0
C424 C 0.38985 0.12244 0.5537 0.0
C425 C 0.39092 0.11675 0.49715 0.0
C426 C 0.41515 0.11755 0.51158 0.0
C427 C 0.43897 0.11709 0.55447 0.0
C428 C 0.43869 0.11585 0.5829 0.0
C429 C 0.4148 0.11962 0.53985 0.0
C430 C 0.41411 0.12029 0.59668 0.0
C431 C 0.38987 0.12381 0.58216 0.0
H432 H 0.82414 0.43141 0.65846 0.0
H433 H 0.87565 0.36504 0.68285 0.0
H434 H 0.86317 0.33975 0.64222 0.0
H435 H 0.84936 0.34334 0.59444 0.0
H436 H 0.80263 0.41251 0.56833 0.0
H437 H 0.80068 0.42945 0.61473 0.0
C438 C 0.8315 0.41085 0.65555 0.0
C439 C 0.85122 0.40033 0.67323 0.0
C440 C 0.82558 0.39719 0.63125 0.0
C441 C 0.86067 0.37367 0.66926 0.0
C442 C 0.85378 0.35933 0.64583 0.0
C443 C 0.83762 0.36137 0.59921 0.0
C444 C 0.82656 0.37694 0.57808 0.0
C445 C 0.83801 0.37184 0.62573 0.0
C446 C 0.81153 0.40038 0.58435 0.0
C447 C 0.81065 0.41021 0.61086 0.0
H448 H 0.57494 0.78071 0.60279 0.0
H449 H 0.57324 0.83112 0.67424 0.0
H450 H 0.619 0.84713 0.66447 0.0
H451 H 0.65456 0.85443 0.63011 0.0
H452 H 0.65702 0.80327 0.55932 0.0
H453 H 0.61633 0.77949 0.57462 0.0
C454 C 0.58499 0.79446 0.61672 0.0
C455 C 0.57048 0.80518 0.63884 0.0
C456 C 0.61131 0.80378 0.61087 0.0
C457 C 0.58386 0.82266 0.65697 0.0
C458 C 0.60998 0.83207 0.65125 0.0
C459 C 0.64675 0.83738 0.6186 0.0
C460 C 0.65843 0.8309 0.59343 0.0
C461 C 0.62322 0.82393 0.62744 0.0
C462 C 0.64836 0.80864 0.57877 0.0
C463 C 0.62488 0.79523 0.58736 0.0
H464 H 0.32913 0.14029 0.36772 0.0
H465 H 0.32389 0.19169 0.43836 0.0
H466 H 0.36331 0.21717 0.42319 0.0
H467 H 0.40544 0.21688 0.39624 0.0
H468 H 0.41061 0.16585 0.32543 0.0
H469 H 0.36496 0.14886 0.3339 0.0
C470 C 0.33595 0.15772 0.37928 0.0
C471 C 0.32403 0.16339 0.40462 0.0
C472 C 0.35907 0.17213 0.37066 0.0
C473 C 0.33284 0.18645 0.41901 0.0
C474 C 0.35565 0.20097 0.41047 0.0
C475 C 0.39612 0.2029 0.38204 0.0
C476 C 0.41169 0.19221 0.36063 0.0
C477 C 0.36993 0.19281 0.38729 0.0
C478 C 0.39922 0.17436 0.34219 0.0
C479 C 0.37314 0.16433 0.34721 0.0
H480 H 0.81434 0.41394 0.4308 0.0
H481 H 0.87144 0.34925 0.41622 0.0
H482 H 0.88214 0.36826 0.37181 0.0
H483 H 0.88389 0.40963 0.34372 0.0
H484 H 0.82644 0.4741 0.35804 0.0
H485 H 0.8067 0.44861 0.39562 0.0
C486 C 0.82815 0.40336 0.4173 0.0
C487 C 0.84252 0.38063 0.42682 0.0
C488 C 0.83456 0.41472 0.39205 0.0
C489 C 0.86019 0.36683 0.40926 0.0
C490 C 0.86661 0.37793 0.38402 0.0
C491 C 0.86634 0.41753 0.35442 0.0
C492 C 0.85696 0.44384 0.34868 0.0
C493 C 0.85528 0.40285 0.37612 0.0
C494 C 0.83403 0.45389 0.36228 0.0
C495 C 0.82292 0.43943 0.38394 0.0
H496 H 0.58668 0.87373 0.40456 0.0
H497 H 0.59768 0.9606 0.40686 0.0
H498 H 0.63683 0.95532 0.43645 0.0
H499 H 0.66253 0.92686 0.46785 0.0
H500 H 0.65257 0.84006 0.46632 0.0
H501 H 0.6186 0.84431 0.43013 0.0
C502 C 0.59822 0.89138 0.41083 0.0
C503 C 0.58901 0.91754 0.404 0.0
C504 C 0.62052 0.88824 0.42843 0.0
C505 C 0.60415 0.94027 0.41222 0.0
C506 C 0.62646 0.9373 0.42926 0.0
C507 C 0.65328 0.90888 0.45914 0.0
C508 C 0.65951 0.88328 0.46985 0.0
C509 C 0.63394 0.91153 0.43854 0.0
C510 C 0.64788 0.85999 0.45831 0.0
C511 C 0.6284 0.86245 0.43776 0.0
H512 H 0.08112 0.57935 0.41338 0.0
H513 H 0.15089 0.62486 0.38658 0.0
H514 H 0.15937 0.59069 0.35114 0.0
H515 H 0.14579 0.54798 0.32731 0.0
H516 H 0.07537 0.5043 0.35606 0.0
H517 H 0.0683 0.53795 0.39108 0.0
C518 C 0.09826 0.58204 0.39985 0.0
C519 C 0.11523 0.60482 0.40257 0.0
C520 C 0.10281 0.56262 0.37974 0.0
C521 C 0.13748 0.60754 0.38495 0.0
C522 C 0.14225 0.58804 0.36465 0.0
C523 C 0.12892 0.5459 0.34124 0.0
C524 C 0.11113 0.52353 0.3389 0.0
C525 C 0.12487 0.56553 0.36173 0.0
C526 C 0.08943 0.52114 0.35724 0.0
C527 C 0.08532 0.54042 0.37737 0.0
H528 H 0.33523 0.80295 0.57656 0.0
H529 H 0.32267 0.85993 0.64174 0.0
H530 H 0.35937 0.83887 0.66747 0.0
H531 H 0.40204 0.81323 0.66546 0.0
H532 H 0.41733 0.75999 0.59778 0.0
H533 H 0.37235 0.7699 0.57954 0.0
C534 C 0.33976 0.81011 0.59684 0.0
C535 C 0.32669 0.83349 0.60687 0.0
C536 C 0.3619 0.79881 0.61092 0.0
C537 C 0.33271 0.84227 0.63332 0.0
C538 C 0.3539 0.83035 0.64798 0.0
C539 C 0.39511 0.80286 0.64735 0.0
C540 C 0.41329 0.78638 0.63266 0.0
C541 C 0.36981 0.80991 0.63613 0.0
C542 C 0.40389 0.77306 0.60928 0.0
C543 C 0.37823 0.77895 0.59868 0.0
H544 H 0.15825 0.46018 0.63951 0.0
H545 H 0.08384 0.4169 0.6547 0.0
H546 H 0.09752 0.38138 0.62295 0.0
H547 H 0.12495 0.36912 0.58343 0.0
H548 H 0.19538 0.41669 0.56329 0.0
H549 H 0.18974 0.44337 0.6047 0.0
C550 C 0.14558 0.44242 0.6366 0.0
C551 C 0.12003 0.44115 0.6492 0.0
C552 C 0.15285 0.42296 0.61705 0.0
C553 C 0.10354 0.4183 0.64504 0.0
C554 C 0.1113 0.39808 0.62679 0.0
C555 C 0.13978 0.38447 0.58883 0.0
C556 C 0.16055 0.39098 0.57046 0.0
C557 C 0.13514 0.40103 0.61154 0.0
C558 C 0.17933 0.4113 0.57728 0.0
C559 C 0.17586 0.42678 0.60076 0.0
H560 H 0.57347 0.13366 0.60437 0.0
H561 H 0.59286 0.05363 0.63362 0.0
H562 H 0.63632 0.05482 0.61 0.0
H563 H 0.66196 0.07345 0.5717 0.0
H564 H 0.64239 0.15284 0.54091 0.0
H565 H 0.60602 0.15744 0.57449 0.0
C566 C 0.58796 0.11722 0.60674 0.0
C567 C 0.58018 0.09357 0.62056 0.0
C568 C 0.61242 0.11762 0.59205 0.0
C569 C 0.5987 0.07207 0.62319 0.0
C570 C 0.62333 0.07258 0.60932 0.0
C571 C 0.65034 0.09213 0.57312 0.0
C572 C 0.65434 0.11261 0.55385 0.0
C573 C 0.62942 0.09442 0.59221 0.0
C574 C 0.63947 0.13684 0.55569 0.0
C575 C 0.61858 0.13937 0.57473 0.0
H576 H 0.87074 0.54697 0.65511 0.0
H577 H 0.94467 0.50396 0.63521 0.0
H578 H 0.95561 0.53779 0.60131 0.0
H579 H 0.9449 0.57905 0.57737 0.0
H580 H 0.8713 0.62321 0.59507 0.0
H581 H 0.85953 0.58937 0.62976 0.0
C582 C 0.88921 0.54504 0.64332 0.0
C583 C 0.90682 0.52283 0.64781 0.0
C584 C 0.89548 0.56471 0.62349 0.0
C585 C 0.93065 0.52066 0.63227 0.0
C586 C 0.93701 0.54006 0.61283 0.0
C587 C 0.92624 0.58151 0.58877 0.0
C588 C 0.90909 0.6038 0.58366 0.0
C589 C 0.91964 0.5621 0.60833 0.0
C590 C 0.88491 0.60629 0.59859 0.0
C591 C 0.87821 0.58694 0.61843 0.0
H592 H 0.35181 0.43388 0.1276 0.0
H593 H 0.4147 0.45859 0.18299 0.0
H594 H 0.43337 0.41268 0.18305 0.0
H595 H 0.44001 0.37146 0.15611 0.0
H596 H 0.38144 0.35015 0.09494 0.0
H597 H 0.35238 0.38783 0.10887 0.0
C598 C 0.36876 0.42881 0.14071 0.0
C599 C 0.38224 0.44955 0.15484 0.0
C600 C 0.38055 0.40289 0.13903 0.0
C601 C 0.40425 0.4429 0.1717 0.0
C602 C 0.41508 0.4167 0.1715 0.0
C603 C 0.4202 0.37425 0.14686 0.0
C604 C 0.41298 0.35847 0.1243 0.0
C605 C 0.40471 0.39724 0.15355 0.0
C606 C 0.38741 0.36228 0.11226 0.0
C607 C 0.37098 0.38405 0.11999 0.0
H608 H 0.43772 0.64583 0.84559 0.0
H609 H 0.37976 0.65233 0.91062 0.0
H610 H 0.34972 0.62033 0.88766 0.0
H611 H 0.34708 0.58152 0.85689 0.0
H612 H 0.40935 0.56966 0.79682 0.0
H613 H 0.42997 0.61305 0.80903 0.0
C614 C 0.41796 0.64114 0.85407 0.0
C615 C 0.41104 0.65102 0.87987 0.0
C616 C 0.40175 0.62125 0.84169 0.0
C617 C 0.38553 0.6447 0.89086 0.0
C618 C 0.36847 0.62624 0.87782 0.0
C619 C 0.36433 0.58916 0.84555 0.0
C620 C 0.37691 0.57243 0.82623 0.0
C621 C 0.37732 0.61295 0.85429 0.0
C622 C 0.39943 0.58227 0.81184 0.0
C623 C 0.41143 0.60689 0.81911 0.0
H624 H 0.43276 0.34402 0.79755 0.0
H625 H 0.38624 0.31707 0.86625 0.0
H626 H 0.35498 0.35521 0.86073 0.0
H627 H 0.34935 0.40211 0.84467 0.0
H628 H 0.4005 0.43191 0.78061 0.0
H629 H 0.42088 0.38699 0.77526 0.0
C630 C 0.41496 0.34581 0.81037 0.0
C631 C 0.41174 0.32793 0.83227 0.0
C632 C 0.39821 0.36886 0.80819 0.0
C633 C 0.38898 0.33064 0.8492 0.0
C634 C 0.37131 0.35265 0.84623 0.0
C635 C 0.36394 0.39829 0.82865 0.0
C636 C 0.37345 0.42008 0.81301 0.0
C637 C 0.37687 0.37286 0.82702 0.0
C638 C 0.39283 0.41525 0.79273 0.0
C639 C 0.40472 0.38965 0.78991 0.0
H640 H 0.63672 0.37116 0.86603 0.0
H641 H 0.60354 0.43818 0.82066 0.0
H642 H 0.56764 0.4089 0.80299 0.0
H643 H 0.54034 0.36744 0.80945 0.0
H644 H 0.57409 0.30007 0.85385 0.0
H645 H 0.61554 0.32594 0.86235 0.0
C646 C 0.62223 0.379 0.85142 0.0
C647 C 0.6224 0.40678 0.84495 0.0
C648 C 0.60157 0.36207 0.84151 0.0
C649 C 0.60376 0.41682 0.82589 0.0
C650 C 0.58305 0.40015 0.81603 0.0
C651 C 0.55728 0.35809 0.81999 0.0
C652 C 0.55416 0.33213 0.83136 0.0
C653 C 0.58091 0.37319 0.82498 0.0
C654 C 0.57614 0.32003 0.84488 0.0
C655 C 0.5997 0.33496 0.85003 0.0
H656 H 0.61392 0.55936 0.87474 0.0
H657 H 0.57759 0.50714 0.93495 0.0
H658 H 0.54479 0.54223 0.94611 0.0
H659 H 0.52588 0.58732 0.93887 0.0
H660 H 0.56114 0.64028 0.87881 0.0
H661 H 0.59487 0.60545 0.86775 0.0
C662 C 0.59879 0.55565 0.89024 0.0
C663 C 0.59832 0.53051 0.90389 0.0
C664 C 0.57979 0.5761 0.89674 0.0
C665 C 0.57857 0.52619 0.92404 0.0
C666 C 0.55973 0.54629 0.93051 0.0
C667 C 0.54099 0.59141 0.92342 0.0
C668 C 0.54089 0.61647 0.90974 0.0
C669 C 0.56013 0.57129 0.91703 0.0
C670 C 0.5607 0.62122 0.88975 0.0
C671 C 0.57997 0.60126 0.88334 0.0
H672 H 0.62652 0.58119 0.16483 0.0
H673 H 0.66452 0.6339 0.10653 0.0
H674 H 0.63918 0.67269 0.12428 0.0
H675 H 0.59839 0.68842 0.14799 0.0
H676 H 0.55537 0.63365 0.20057 0.0
H677 H 0.59065 0.59923 0.19441 0.0
C678 C 0.63001 0.60141 0.15686 0.0
C679 C 0.64716 0.60483 0.13442 0.0
C680 C 0.61403 0.62322 0.16601 0.0
C681 C 0.65129 0.63094 0.12381 0.0
C682 C 0.63667 0.65305 0.13384 0.0
C683 C 0.59754 0.66943 0.1591 0.0
C684 C 0.57453 0.66347 0.17474 0.0
C685 C 0.6168 0.64908 0.15377 0.0
C686 C 0.5731 0.63861 0.18856 0.0
C687 C 0.59309 0.61883 0.18475 0.0
H688 H 0.39823 0.59231 0.1819 0.0
H689 H 0.35791 0.61489 0.10782 0.0
H690 H 0.37721 0.66054 0.11079 0.0
H691 H 0.41492 0.68852 0.12798 0.0
H692 H 0.45555 0.66561 0.20188 0.0
H693 H 0.42607 0.62604 0.20619 0.0
C694 C 0.39266 0.60772 0.16719 0.0
C695 C 0.37699 0.60043 0.14456 0.0
C696 C 0.40425 0.63368 0.16882 0.0
C697 C 0.36985 0.62027 0.12547 0.0
C698 C 0.38117 0.64623 0.12701 0.0
C699 C 0.41641 0.67551 0.14566 0.0
C700 C 0.43767 0.67952 0.16426 0.0
C701 C 0.3998 0.65247 0.14763 0.0
C702 C 0.43937 0.66284 0.18726 0.0
C703 C 0.42275 0.63998 0.18953 0.0
H704 H 0.62005 0.4481 0.12167 0.0
H705 H 0.578 0.49896 0.06392 0.0
H706 H 0.54328 0.46447 0.05824 0.0
H707 H 0.52516 0.41976 0.06849 0.0
H708 H 0.5661 0.368 0.12606 0.0
H709 H 0.60086 0.40291 0.13288 0.0
C710 C 0.60318 0.4517 0.10801 0.0
C711 C 0.6018 0.47617 0.09322 0.0
C712 C 0.58313 0.43155 0.10462 0.0
C713 C 0.57978 0.48038 0.07553 0.0
C714 C 0.55984 0.46061 0.0722 0.0
C715 C 0.54167 0.41596 0.08254 0.0
C716 C 0.54303 0.39114 0.0966 0.0
C717 C 0.56143 0.43607 0.08642 0.0
C718 C 0.56455 0.38685 0.11486 0.0
C719 C 0.58443 0.40683 0.1188 0.0
H720 H 0.0435 0.32627 0.50308 0.0
H721 H 0.04932 0.41331 0.49377 0.0
H722 H 0.00038 0.41742 0.49709 0.0
H723 H 0.95595 0.39697 0.50234 0.0
H724 H 0.94835 0.31014 0.51083 0.0
H725 H 0.99786 0.3054 0.50827 0.0
C726 C 0.03404 0.34611 0.50174 0.0
C727 C 0.05027 0.36941 0.49814 0.0
C728 C 0.00553 0.34846 0.50361 0.0
C729 C 0.03754 0.39496 0.49647 0.0
C730 C 0.00945 0.39741 0.49842 0.0
C731 C 0.96499 0.37693 0.50377 0.0
C732 C 0.94834 0.35396 0.50687 0.0
C733 C 0.99328 0.37436 0.50199 0.0
C734 C 0.96062 0.32821 0.5085 0.0
C735 C 0.98895 0.32549 0.50698 0.0
H736 H 0.74918 0.04285 0.52836 0.0
H737 H 0.74272 0.01537 0.44583 0.0
H738 H 0.75365 0.96908 0.45983 0.0
H739 H 0.75188 0.93555 0.49653 0.0
H740 H 0.75177 0.96264 0.5795 0.0
H741 H 0.7575 0.00958 0.56466 0.0
C742 C 0.75162 0.02695 0.51334 0.0
C743 C 0.7452 0.03243 0.48612 0.0
C744 C 0.75611 1e-05 0.52186 0.0
C745 C 0.74775 0.01159 0.46687 0.0
C746 C 0.75364 0.98503 0.47495 0.0
C747 C 0.75452 0.95158 0.51137 0.0
C748 C 0.75118 0.94568 0.53905 0.0
C749 C 0.75598 0.97873 0.50258 0.0
C750 C 0.75423 0.96671 0.55806 0.0
C751 C 0.75716 0.99363 0.54954 0.0
H752 H 0.95771 0.73132 0.48413 0.0
H753 H 0.99826 0.72633 0.56125 0.0
H754 H 0.04091 0.7399 0.5403 0.0
H755 H 0.06766 0.73347 0.49908 0.0
H756 H 0.02736 0.72938 0.42178 0.0
H757 H 0.98414 0.74044 0.44314 0.0
C758 C 0.97552 0.73486 0.49659 0.0
C759 C 0.97525 0.72678 0.52391 0.0
C760 C 0.00047 0.74019 0.4839 0.0
C761 C 0.99823 0.73186 0.54 0.0
C762 C 0.02277 0.73918 0.52789 0.0
C763 C 0.04971 0.73663 0.48671 0.0
C764 C 0.05031 0.72936 0.45917 0.0
C765 C 0.02456 0.74044 0.49955 0.0
C766 C 0.02716 0.73417 0.44321 0.0
C767 C 0.00231 0.74002 0.45554 0.0
H768 H 0.2622 0.0156 0.44686 0.0
H769 H 0.25137 0.05986 0.52152 0.0
H770 H 0.24607 0.01731 0.5462 0.0
H771 H 0.2543 0.96799 0.54779 0.0
H772 H 0.26484 0.9236 0.47322 0.0
H773 H 0.25975 0.96555 0.44733 0.0
C774 C 0.25783 0.01596 0.46839 0.0
C775 C 0.2578 0.04092 0.48237 0.0
C776 C 0.2551 0.99131 0.48259 0.0
C777 C 0.25169 0.04102 0.51021 0.0
C778 C 0.24889 0.01662 0.52443 0.0
C779 C 0.25453 0.96736 0.52582 0.0
C780 C 0.26046 0.94276 0.51251 0.0
C781 C 0.25201 0.99167 0.51105 0.0
C782 C 0.26038 0.94222 0.48402 0.0
C783 C 0.25778 0.96631 0.46918 0.0
H784 H 0.45087 0.99965 0.3548 0.0
H785 H 0.52709 0.98819 0.3137 0.0
H786 H 0.52854 0.03668 0.30246 0.0
H787 H 0.51303 0.08338 0.31386 0.0
H788 H 0.43897 0.09365 0.35935 0.0
H789 H 0.43154 0.0448 0.35919 0.0
C790 C 0.46727 0.00766 0.34248 0.0
C791 C 0.48898 0.99068 0.33537 0.0
C792 C 0.46865 0.03555 0.33754 0.0
C793 C 0.51009 0.00099 0.31929 0.0
C794 C 0.51113 0.02879 0.31329 0.0
C795 C 0.49498 0.07484 0.32307 0.0
C796 C 0.47684 0.09185 0.3371 0.0
C797 C 0.49133 0.04649 0.32378 0.0
C798 C 0.45345 0.08076 0.34894 0.0
C799 C 0.44915 0.05288 0.34881 0.0
H800 H 0.97407 0.53079 0.25187 0.0
H801 H 0.93943 0.45101 0.24459 0.0
H802 H 0.98217 0.43356 0.22658 0.0
H803 H 0.03179 0.43858 0.22789 0.0
H804 H 0.06686 0.5181 0.2375 0.0
H805 H 0.0217 0.53833 0.23836 0.0
C806 C 0.97547 0.51001 0.2447 0.0
C807 C 0.95388 0.4921 0.24965 0.0
C808 C 0.00052 0.49994 0.23544 0.0
C809 C 0.95582 0.46514 0.24073 0.0
C810 C 0.98044 0.45507 0.23086 0.0
C811 C 0.02954 0.46047 0.22876 0.0
C812 C 0.05251 0.47671 0.23362 0.0
C813 C 0.00342 0.47185 0.2303 0.0
C814 C 0.04947 0.50508 0.23415 0.0
C815 C 0.02356 0.51666 0.23505 0.0
H816 H 0.49035 0.90897 0.68462 0.0
H817 H 0.45502 0.89588 0.60557 0.0
H818 H 0.44911 0.9445 0.5997 0.0
H819 H 0.45836 0.9904 0.61442 0.0
H820 H 0.49665 0.00519 0.69159 0.0
H821 H 0.49621 0.95626 0.70125 0.0
C822 C 0.48106 0.91682 0.6663 0.0
C823 C 0.47351 0.89887 0.64538 0.0
C824 C 0.47822 0.94504 0.66275 0.0
C825 C 0.46143 0.90926 0.62177 0.0
C826 C 0.45793 0.93707 0.61842 0.0
C827 C 0.4663 0.98301 0.63357 0.0
C828 C 0.47788 0.00129 0.6521 0.0
C829 C 0.46693 0.95509 0.6384 0.0
C830 C 0.48762 0.99148 0.677 0.0
C831 C 0.48763 0.9635 0.68237 0.0
H832 H 0.942 0.52015 0.75335 0.0
H833 H 0.96681 0.43937 0.77567 0.0
H834 H 0.01416 0.45366 0.77684 0.0
H835 H 0.04738 0.48385 0.75494 0.0
H836 H 0.0219 0.56258 0.72703 0.0
H837 H 0.97647 0.55499 0.74512 0.0
C838 C 0.95761 0.50613 0.76011 0.0
C839 C 0.9511 0.47857 0.76354 0.0
C840 C 0.985 0.51407 0.75874 0.0
C841 C 0.97145 0.46063 0.7725 0.0
C842 C 0.99864 0.46871 0.77267 0.0
C843 C 0.03231 0.49993 0.75442 0.0
C844 C 0.03774 0.52359 0.73954 0.0
C845 C 0.0057 0.49463 0.76333 0.0
C846 C 0.01806 0.54422 0.7385 0.0
C847 C 0.99193 0.53968 0.74848 0.0
H848 H 0.39425 0.49718 0.93918 0.0
H849 H 0.30688 0.49731 0.93298 0.0
H850 H 0.30335 0.50372 0.98217 0.0
H851 H 0.32555 0.51043 0.02707 0.0
H852 H 0.41322 0.51084 0.03116 0.0
H853 H 0.41596 0.50323 0.98276 0.0
C854 C 0.37433 0.49846 0.94845 0.0
C855 C 0.35088 0.49674 0.93227 0.0
C856 C 0.37248 0.50244 0.97651 0.0
C857 C 0.32531 0.4985 0.94488 0.0
C858 C 0.32329 0.50226 0.97303 0.0
C859 C 0.34522 0.50887 0.01735 0.0
C860 C 0.36912 0.51133 0.03297 0.0
C861 C 0.34679 0.50448 0.98908 0.0
C862 C 0.39443 0.50916 0.01989 0.0
C863 C 0.39609 0.50474 0.99209 0.0
H864 H 0.5301 0.26236 0.93782 0.0
H865 H 0.44467 0.25115 0.92318 0.0
H866 H 0.43587 0.25176 0.97191 0.0
H867 H 0.45132 0.26887 0.01633 0.0
H868 H 0.53667 0.2806 0.03084 0.0
H869 H 0.54697 0.26564 0.98473 0.0
C870 C 0.50979 0.2586 0.94545 0.0
C871 C 0.48799 0.25709 0.92713 0.0
C872 C 0.50489 0.25964 0.97346 0.0
C873 C 0.46173 0.25225 0.937 0.0
C874 C 0.45667 0.25303 0.96487 0.0
C875 C 0.47223 0.26669 0.00977 0.0
C876 C 0.49324 0.27594 0.02666 0.0
C877 C 0.47786 0.25865 0.98305 0.0
C878 C 0.52027 0.27335 0.01814 0.0
C879 C 0.5261 0.26517 0.99164 0.0
H880 H 0.71695 0.44523 0.9677 0.0
H881 H 0.72061 0.52061 0.92345 0.0
H882 H 0.73218 0.54482 0.96485 0.0
H883 H 0.72505 0.54591 0.01419 0.0
H884 H 0.71917 0.47081 0.05853 0.0
H885 H 0.72566 0.44515 0.01681 0.0
C886 C 0.72158 0.46674 0.96692 0.0
C887 C 0.71671 0.48131 0.94287 0.0
C888 C 0.72719 0.48073 0.99106 0.0
C889 C 0.72358 0.50898 0.94185 0.0
C890 C 0.72989 0.52296 0.96565 0.0
C891 C 0.72661 0.52395 0.01485 0.0
C892 C 0.72062 0.51022 0.0391 0.0
C893 C 0.72929 0.50934 0.9906 0.0
C894 C 0.72329 0.48184 0.04 0.0
C895 C 0.72662 0.46711 0.01602 0.0
H896 H 0.52903 0.72857 0.98079 0.0
H897 H 0.4426 0.73208 0.99296 0.0
H898 H 0.44923 0.7502 0.03856 0.0
H899 H 0.47928 0.75222 0.07808 0.0
H900 H 0.56535 0.74148 0.06761 0.0
H901 H 0.55966 0.74016 0.01845 0.0
C902 C 0.51176 0.73461 0.99303 0.0
C903 C 0.48541 0.72913 0.98374 0.0
C904 C 0.51582 0.74335 0.01987 0.0
C905 C 0.46305 0.73634 -0.00017 0.0
C906 C 0.46687 0.74643 0.02598 0.0
C907 C 0.49687 0.75112 0.0649 0.0
C908 C 0.52266 0.74692 0.07628 0.0
C909 C 0.49313 0.74826 0.0368 0.0
C910 C 0.54533 0.74489 0.05915 0.0
C911 C 0.542 0.7437 0.03106 0.0
H912 H 0.17815 0.26537 0.51819 0.0
H913 H 0.12448 0.2427 0.45283 0.0
H914 H 0.14944 0.20035 0.44673 0.0
H915 H 0.18876 0.17164 0.45721 0.0
H916 H 0.24332 0.19476 0.52165 0.0
H917 H 0.21563 0.23487 0.53093 0.0
C918 C 0.17165 0.25101 0.50286 0.0
C919 C 0.14956 0.25738 0.48585 0.0
C920 C 0.18641 0.22683 0.49912 0.0
C921 C 0.14148 0.23846 0.46611 0.0
C922 C 0.1558 0.21422 0.46255 0.0
C923 C 0.19449 0.18528 0.47348 0.0
C924 C 0.21827 0.18027 0.48852 0.0
C925 C 0.17867 0.2085 0.47849 0.0
C926 C 0.22522 0.19814 0.50963 0.0
C927 C 0.20941 0.22114 0.51493 0.0
H928 H 0.77319 0.18364 0.4772 0.0
H929 H 0.77615 0.16295 0.56214 0.0
H930 H 0.80554 0.2018 0.57089 0.0
H931 H 0.82837 0.24315 0.55492 0.0
H932 H 0.82554 0.26366 0.4699 0.0
H933 H 0.79841 0.22334 0.46077 0.0
C934 C 0.78038 0.18753 0.49761 0.0
C935 C 0.77225 0.17049 0.51899 0.0
C936 C 0.7973 0.20995 0.50254 0.0
C937 C 0.78198 0.17574 0.54527 0.0
C938 C 0.79878 0.19801 0.55033 0.0
C939 C 0.82203 0.2387 0.53435 0.0
C940 C 0.82886 0.2566 0.51321 0.0
C941 C 0.80627 0.21548 0.52919 0.0
C942 C 0.82055 0.25035 0.48664 0.0
C943 C 0.80494 0.2273 0.48137 0.0
H944 H 0.83845 0.72244 0.54852 0.0
H945 H 0.84105 0.738 0.46252 0.0
H946 H 0.80737 0.77411 0.46773 0.0
H947 H 0.77835 0.80241 0.49702 0.0
H948 H 0.77724 0.78749 0.58323 0.0
H949 H 0.80919 0.75015 0.57757 0.0
C950 C 0.83147 0.73352 0.53085 0.0
C951 C 0.84224 0.72746 0.50516 0.0
C952 C 0.8125 0.75459 0.53405 0.0
C953 C 0.83311 0.74224 0.48254 0.0
C954 C 0.81389 0.76295 0.48551 0.0
C955 C 0.78507 0.79097 0.51456 0.0
C956 C 0.77542 0.79787 0.54051 0.0
C957 C 0.80367 0.76953 0.51122 0.0
C958 C 0.78437 0.78278 0.56301 0.0
C959 C 0.80263 0.76133 0.55981 0.0
H960 H 0.1777 0.73928 0.45115 0.0
H961 H 0.21582 0.69593 0.51705 0.0
H962 H 0.24693 0.73375 0.52423 0.0
H963 H 0.26133 0.78022 0.51388 0.0
H964 H 0.22273 0.82407 0.44862 0.0
H965 H 0.19391 0.78489 0.4391 0.0
C966 C 0.19301 0.73793 0.4669 0.0
C967 C 0.19426 0.71478 0.48364 0.0
C968 C 0.21064 0.75994 0.47119 0.0
C969 C 0.21427 0.71348 0.50392 0.0
C970 C 0.23206 0.73515 0.5081 0.0
C971 C 0.24674 0.78121 0.49745 0.0
C972 C 0.24409 0.80521 0.48214 0.0
C973 C 0.23009 0.75868 0.4922 0.0
C974 C 0.22517 0.80596 0.46082 0.0
C975 C 0.20863 0.78354 0.45537 0.0
H976 H 0.51464 0.23879 0.27136 0.0
H977 H 0.48456 0.17378 0.22098 0.0
H978 H 0.48724 0.20313 0.18121 0.0
H979 H 0.49579 0.24791 0.16114 0.0
H980 H 0.52445 0.31331 0.21182 0.0
H981 H 0.52483 0.28304 0.25098 0.0
C982 C 0.50885 0.23093 0.25166 0.0
C983 C 0.49929 0.20412 0.24923 0.0
C984 C 0.51011 0.24802 0.2289 0.0
C985 C 0.49188 0.19435 0.22351 0.0
C986 C 0.4934 0.21113 0.20072 0.0
C987 C 0.50237 0.25551 0.18069 0.0
C988 C 0.50999 0.2829 0.18351 0.0
C989 C 0.50214 0.2381 0.20324 0.0
C990 C 0.51838 0.29237 0.20905 0.0
C991 C 0.51858 0.27507 0.23149 0.0
H992 H 0.79767 0.47488 0.24078 0.0
H993 H 0.82477 0.55818 0.24226 0.0
H994 H 0.78976 0.57044 0.20942 0.0
H995 H 0.75258 0.55726 0.17921 0.0
H996 H 0.72481 0.47421 0.17814 0.0
H997 H 0.75895 0.46212 0.21208 0.0
C998 C 0.7959 0.49573 0.23397 0.0
C999 C 0.81395 0.51554 0.24382 0.0
C1000 C 0.77565 0.50267 0.21517 0.0
C1001 C 0.81118 0.54252 0.23499 0.0
C1002 C 0.79119 0.54955 0.21617 0.0
C1003 C 0.75393 0.53651 0.18643 0.0
C1004 C 0.73631 0.51662 0.17601 0.0
C1005 C 0.7735 0.52975 0.20595 0.0
C1006 C 0.73814 0.4899 0.18581 0.0
C1007 C 0.75769 0.48296 0.20516 0.0
H1008 H 0.54057 0.79141 0.21987 0.0
H1009 H 0.45333 0.79188 0.22844 0.0
H1010 H 0.45684 0.82443 0.26549 0.0
H1011 H 0.48459 0.85234 0.29592 0.0
H1012 H 0.57177 0.85251 0.28705 0.0
H1013 H 0.56831 0.82014 0.24974 0.0
C1014 C 0.5223 0.79868 0.22978 0.0
C1015 C 0.49673 0.78912 0.22135 0.0
C1016 C 0.52444 0.81747 0.25111 0.0
C1017 C 0.47329 0.79886 0.23443 0.0
C1018 C 0.47527 0.81746 0.25569 0.0
C1019 C 0.50286 0.84529 0.28587 0.0
C1020 C 0.52841 0.8548 0.29438 0.0
C1021 C 0.50073 0.82681 0.26429 0.0
C1022 C 0.55183 0.84555 0.28096 0.0
C1023 C 0.54988 0.82701 0.2596 0.0
H1024 H 0.1912 0.46805 0.20303 0.0
H1025 H 0.19398 0.55414 0.21897 0.0
H1026 H 0.23002 0.55939 0.18533 0.0
H1027 H 0.26261 0.53903 0.15351 0.0
H1028 H 0.25952 0.45286 0.13771 0.0
H1029 H 0.2214 0.44829 0.16887 0.0
C1030 C 0.19963 0.488 0.19913 0.0
C1031 C 0.19014 0.51062 0.21375 0.0
C1032 C 0.22023 0.49088 0.17971 0.0
C1033 C 0.20101 0.53637 0.20812 0.0
C1034 C 0.22162 0.53939 0.18887 0.0
C1035 C 0.25339 0.51929 0.15658 0.0
C1036 C 0.26413 0.49629 0.14342 0.0
C1037 C 0.23163 0.51672 0.17481 0.0
C1038 C 0.25179 0.47091 0.14761 0.0
C1039 C 0.23005 0.46823 0.16555 0.0
H1040 H 0.44788 0.77084 0.84682 0.0
H1041 H 0.52532 0.73248 0.83188 0.0
H1042 H 0.52862 0.75575 0.78835 0.0
H1043 H 0.50809 0.78431 0.75323 0.0
H1044 H 0.43011 0.82178 0.76761 0.0
H1045 H 0.42859 0.80159 0.81277 0.0
C1046 C 0.46563 0.76776 0.83419 0.0
C1047 C 0.48622 0.74977 0.84254 0.0
C1048 C 0.46724 0.7809 0.80901 0.0
C1049 C 0.50911 0.74611 0.82592 0.0
C1050 C 0.51099 0.75936 0.80098 0.0
C1051 C 0.49083 0.78827 0.76628 0.0
C1052 C 0.46913 0.80436 0.75691 0.0
C1053 C 0.48994 0.77637 0.7921 0.0
C1054 C 0.44703 0.80937 0.77421 0.0
C1055 C 0.44612 0.7978 0.80005 0.0
H1056 H 0.26193 0.51991 0.79861 0.0
H1057 H 0.23515 0.4445 0.83419 0.0
H1058 H 0.19325 0.4467 0.80785 0.0
H1059 H 0.16512 0.46891 0.77334 0.0
H1060 H 0.19227 0.54372 0.73683 0.0
H1061 H 0.2331 0.54286 0.76497 0.0
C1062 C 0.24685 0.50405 0.8008 0.0
C1063 C 0.25177 0.48202 0.81836 0.0
C1064 C 0.22292 0.50525 0.78531 0.0
C1065 C 0.23198 0.46164 0.82082 0.0
C1066 C 0.208 0.46286 0.80571 0.0
C1067 C 0.17987 0.48513 0.77159 0.0
C1068 C 0.17562 0.50631 0.75288 0.0
C1069 C 0.20341 0.48439 0.78767 0.0
C1070 C 0.19501 0.52713 0.75097 0.0
C1071 C 0.21839 0.52665 0.76707 0.0
H1072 H 0.5038 0.14442 0.71926 0.0
H1073 H 0.41768 0.12834 0.71857 0.0
H1074 H 0.41085 0.1618 0.75443 0.0
H1075 H 0.42908 0.19698 0.78477 0.0
H1076 H 0.51519 0.21333 0.78482 0.0
H1077 H 0.52218 0.1784 0.75053 0.0
C1078 C 0.48354 0.14807 0.72704 0.0
C1079 C 0.46129 0.1339 0.71611 0.0
C1080 C 0.4797 0.16752 0.74752 0.0
C1081 C 0.43519 0.13895 0.72652 0.0
C1082 C 0.43125 0.15814 0.74703 0.0
C1083 C 0.4494 0.19284 0.77738 0.0
C1084 C 0.47153 0.20791 0.78733 0.0
C1085 C 0.45331 0.17276 0.75749 0.0
C1086 C 0.49773 0.20217 0.77751 0.0
C1087 C 0.50178 0.18217 0.75786 0.0
H1088 H 0.75458 0.54013 0.84154 0.0
H1089 H 0.70593 0.48837 0.79032 0.0
H1090 H 0.74315 0.48508 0.75792 0.0
H1091 H 0.79086 0.49322 0.74629 0.0
H1092 H 0.83981 0.54446 0.7977 0.0
H1093 H 0.80107 0.55171 0.8277 0.0
C1094 C 0.75193 0.52846 0.8231 0.0
C1095 C 0.72754 0.51428 0.81859 0.0
C1096 C 0.7736 0.5263 0.80468 0.0
C1097 C 0.7245 0.49937 0.79446 0.0
C1098 C 0.74584 0.49737 0.77593 0.0
C1099 C 0.79303 0.50618 0.76393 0.0
C1100 C 0.81835 0.51798 0.76989 0.0
C1101 C 0.77071 0.51014 0.7812 0.0
C1102 C 0.82064 0.53497 0.79267 0.0
C1103 C 0.79849 0.5391 0.8099 0.0
loop_
_geom_bond_atom_site_label_1
_geom_bond_atom_site_label_2
_geom_bond_distance
_geom_bond_site_symmetry_2
_ccdc_geom_bond_type
Zn0 O3 2.031 . S
Zn0 O5 2.049 . S
Zn0 O10 2.067 . S
Zn1 O2 1.962 . S
Zn1 O4 1.986 . S
Zn1 O6 1.996 . S
Zn1 O9 1.943 . S
O2 Zn1 1.962 . S
O2 C7 1.254 . S
O3 Zn0 2.031 . S
O3 C7 1.269 . S
O4 Zn1 1.986 . S
O4 C11 1.262 . S
O5 Zn0 2.049 . S
O5 C13 1.260 . S
O6 Zn1 1.996 . S
O6 C13 1.257 . S
C7 O2 1.254 . S
C7 O3 1.269 . S
C8 O9 1.249 . S
C8 O10 1.270 . S
O9 Zn1 1.943 . S
O9 C8 1.249 . S
O10 Zn0 2.067 . S
O10 C8 1.270 . S
C11 O4 1.262 . S
C11 O12 1.232 . S
O12 C11 1.232 . S
C13 O5 1.260 . S
C13 O6 1.257 . S
Zn14 O17 2.031 . S
Zn14 O19 2.049 . S
Zn14 O24 2.067 . S
Zn15 O16 1.962 . S
Zn15 O18 1.986 . S
Zn15 O20 1.996 . S
Zn15 O23 1.943 . S
O16 Zn15 1.962 . S
O16 C21 1.254 . S
O17 Zn14 2.031 . S
O17 C21 1.269 . S
O18 Zn15 1.986 . S
O18 C25 1.262 . S
O19 Zn14 2.049 . S
O19 C27 1.260 . S
O20 Zn15 1.996 . S
O20 C27 1.257 . S
C21 O16 1.254 . S
C21 O17 1.269 . S
C22 O23 1.249 . S
C22 O24 1.270 . S
O23 Zn15 1.943 . S
O23 C22 1.249 . S
O24 Zn14 2.067 . S
O24 C22 1.270 . S
C25 O18 1.262 . S
C25 O26 1.232 . S
O26 C25 1.232 . S
C27 O19 1.260 . S
C27 O20 1.257 . S
Zn28 O31 2.031 . S
Zn28 O33 2.049 . S
Zn28 O38 2.067 . S
Zn29 O30 1.962 . S
Zn29 O32 1.986 . S
Zn29 O34 1.996 . S
Zn29 O37 1.943 . S
O30 Zn29 1.962 . S
O30 C35 1.254 . S
O31 Zn28 2.031 . S
O31 C35 1.269 . S
O32 Zn29 1.986 . S
O32 C39 1.262 . S
O33 Zn28 2.049 . S
O33 C41 1.260 . S
O34 Zn29 1.996 . S
O34 C41 1.257 . S
C35 O30 1.254 . S
C35 O31 1.269 . S
C36 O37 1.249 . S
C36 O38 1.270 . S
O37 Zn29 1.943 . S
O37 C36 1.249 . S
O38 Zn28 2.067 . S
O38 C36 1.270 . S
C39 O32 1.262 . S
C39 O40 1.232 . S
O40 C39 1.232 . S
C41 O33 1.260 . S
C41 O34 1.257 . S
Zn42 O45 2.031 . S
Zn42 O47 2.049 . S
Zn42 O52 2.067 . S
Zn43 O44 1.962 . S
Zn43 O46 1.986 . S
Zn43 O48 1.996 . S
Zn43 O51 1.943 . S
O44 Zn43 1.962 . S
O44 C49 1.254 . S
O45 Zn42 2.031 . S
O45 C49 1.269 . S
O46 Zn43 1.986 . S
O46 C53 1.262 . S
O47 Zn42 2.049 . S
O47 C55 1.260 . S
O48 Zn43 1.996 . S
O48 C55 1.257 . S
C49 O44 1.254 . S
C49 O45 1.269 . S
C50 O51 1.249 . S
C50 O52 1.270 . S
O51 Zn43 1.943 . S
O51 C50 1.249 . S
O52 Zn42 2.067 . S
O52 C50 1.270 . S
C53 O46 1.262 . S
C53 O54 1.232 . S
O54 C53 1.232 . S
C55 O47 1.260 . S
C55 O48 1.257 . S
Zn56 O59 2.031 . S
Zn56 O61 2.049 . S
Zn56 O66 2.067 . S
Zn57 O58 1.962 . S
Zn57 O60 1.986 . S
Zn57 O62 1.996 . S
Zn57 O65 1.943 . S
O58 Zn57 1.962 . S
O58 C63 1.254 . S
O59 Zn56 2.031 . S
O59 C63 1.269 . S
O60 Zn57 1.986 . S
O60 C67 1.262 . S
O61 Zn56 2.049 . S
O61 C69 1.260 . S
O62 Zn57 1.996 . S
O62 C69 1.257 . S
C63 O58 1.254 . S
C63 O59 1.269 . S
C64 O65 1.249 . S
C64 O66 1.270 . S
O65 Zn57 1.943 . S
O65 C64 1.249 . S
O66 Zn56 2.067 . S
O66 C64 1.270 . S
C67 O60 1.262 . S
C67 O68 1.232 . S
O68 C67 1.232 . S
C69 O61 1.260 . S
C69 O62 1.257 . S
Zn70 O73 2.031 . S
Zn70 O75 2.049 . S
Zn70 O80 2.067 . S
Zn71 O72 1.962 . S
Zn71 O74 1.986 . S
Zn71 O76 1.996 . S
Zn71 O79 1.943 . S
O72 Zn71 1.962 . S
O72 C77 1.254 . S
O73 Zn70 2.031 . S
O73 C77 1.269 . S
O74 Zn71 1.986 . S
O74 C81 1.262 . S
O75 Zn70 2.049 . S
O75 C83 1.260 . S
O76 Zn71 1.996 . S
O76 C83 1.257 . S
C77 O72 1.254 . S
C77 O73 1.269 . S
C78 O79 1.249 . S
C78 O80 1.270 . S
O79 Zn71 1.943 . S
O79 C78 1.249 . S
O80 Zn70 2.067 . S
O80 C78 1.270 . S
C81 O74 1.262 . S
C81 O82 1.232 . S
O82 C81 1.232 . S
C83 O75 1.260 . S
C83 O76 1.257 . S
Zn84 O87 2.031 . S
Zn84 O89 2.049 . S
Zn84 O94 2.067 . S
Zn85 O86 1.962 . S
Zn85 O88 1.986 . S
Zn85 O90 1.996 . S
Zn85 O93 1.943 . S
O86 Zn85 1.962 . S
O86 C91 1.254 . S
O87 Zn84 2.031 . S
O87 C91 1.269 . S
O88 Zn85 1.986 . S
O88 C95 1.262 . S
O89 Zn84 2.049 . S
O89 C97 1.260 . S
O90 Zn85 1.996 . S
O90 C97 1.257 . S
C91 O86 1.254 . S
C91 O87 1.269 . S
C92 O93 1.249 . S
C92 O94 1.270 . S
O93 Zn85 1.943 . S
O93 C92 1.249 . S
O94 Zn84 2.067 . S
O94 C92 1.270 . S
C95 O88 1.262 . S
C95 O96 1.232 . S
O96 C95 1.232 . S
C97 O89 1.260 . S
C97 O90 1.257 . S
Zn98 O101 2.031 . S
Zn98 O103 2.049 . S
Zn98 O108 2.067 . S
Zn99 O100 1.962 . S
Zn99 O102 1.986 . S
Zn99 O104 1.996 . S
Zn99 O107 1.943 . S
O100 Zn99 1.962 . S
O100 C105 1.254 . S
O101 Zn98 2.031 . S
O101 C105 1.269 . S
O102 Zn99 1.986 . S
O102 C109 1.262 . S
O103 Zn98 2.049 . S
O103 C111 1.260 . S
O104 Zn99 1.996 . S
O104 C111 1.257 . S
C105 O100 1.254 . S
C105 O101 1.269 . S
C106 O107 1.249 . S
C106 O108 1.270 . S
O107 Zn99 1.943 . S
O107 C106 1.249 . S
O108 Zn98 2.067 . S
O108 C106 1.270 . S
C109 O102 1.262 . S
C109 O110 1.232 . S
O110 C109 1.232 . S
C111 O103 1.260 . S
C111 O104 1.257 . S
Zn112 O115 2.031 . S
Zn112 O117 2.049 . S
Zn112 O122 2.067 . S
Zn113 O114 1.962 . S
Zn113 O116 1.986 . S
Zn113 O118 1.996 . S
Zn113 O121 1.943 . S
O114 Zn113 1.962 . S
O114 C119 1.254 . S
O115 Zn112 2.031 . S
O115 C119 1.269 . S
O116 Zn113 1.986 . S
O116 C123 1.262 . S
O117 Zn112 2.049 . S
O117 C125 1.260 . S
O118 Zn113 1.996 . S
O118 C125 1.257 . S
C119 O114 1.254 . S
C119 O115 1.269 . S
C120 O121 1.249 . S
C120 O122 1.270 . S
O121 Zn113 1.943 . S
O121 C120 1.249 . S
O122 Zn112 2.067 . S
O122 C120 1.270 . S
C123 O116 1.262 . S
C123 O124 1.232 . S
O124 C123 1.232 . S
C125 O117 1.260 . S
C125 O118 1.257 . S
Zn126 O129 2.031 . S
Zn126 O131 2.049 . S
Zn126 O136 2.067 . S
Zn127 O128 1.962 . S
Zn127 O130 1.986 . S
Zn127 O132 1.996 . S
Zn127 O135 1.943 . S
O128 Zn127 1.962 . S
O128 C133 1.254 . S
O129 Zn126 2.031 . S
O129 C133 1.269 . S
O130 Zn127 1.986 . S
O130 C137 1.262 . S
O131 Zn126 2.049 . S
O131 C139 1.260 . S
O132 Zn127 1.996 . S
O132 C139 1.257 . S
C133 O128 1.254 . S
C133 O129 1.269 . S
C134 O135 1.249 . S
C134 O136 1.270 . S
O135 Zn127 1.943 . S
O135 C134 1.249 . S
O136 Zn126 2.067 . S
O136 C134 1.270 . S
C137 O130 1.262 . S
C137 O138 1.232 . S
O138 C137 1.232 . S
C139 O131 1.260 . S
C139 O132 1.257 . S
Zn140 O143 2.031 . S
Zn140 O145 2.049 . S
Zn140 O150 2.067 . S
Zn141 O142 1.962 . S
Zn141 O144 1.986 . S
Zn141 O146 1.996 . S
Zn141 O149 1.943 . S
O142 Zn141 1.962 . S
O142 C147 1.254 . S
O143 Zn140 2.031 . S
O143 C147 1.269 . S
O144 Zn141 1.986 . S
O144 C151 1.262 . S
O145 Zn140 2.049 . S
O145 C153 1.260 . S
O146 Zn141 1.996 . S
O146 C153 1.257 . S
C147 O142 1.254 . S
C147 O143 1.269 . S
C148 O149 1.249 . S
C148 O150 1.270 . S
O149 Zn141 1.943 . S
O149 C148 1.249 . S
O150 Zn140 2.067 . S
O150 C148 1.270 . S
C151 O144 1.262 . S
C151 O152 1.232 . S
O152 C151 1.232 . S
C153 O145 1.260 . S
C153 O146 1.257 . S
Zn154 O157 2.031 . S
Zn154 O159 2.049 . S
Zn154 O164 2.067 . S
Zn155 O156 1.962 . S
Zn155 O158 1.986 . S
Zn155 O160 1.996 . S
Zn155 O163 1.943 . S
O156 Zn155 1.962 . S
O156 C161 1.254 . S
O157 Zn154 2.031 . S
O157 C161 1.269 . S
O158 Zn155 1.986 . S
O158 C165 1.262 . S
O159 Zn154 2.049 . S
O159 C167 1.260 . S
O160 Zn155 1.996 . S
O160 C167 1.257 . S
C161 O156 1.254 . S
C161 O157 1.269 . S
C162 O163 1.249 . S
C162 O164 1.270 . S
O163 Zn155 1.943 . S
O163 C162 1.249 . S
O164 Zn154 2.067 . S
O164 C162 1.270 . S
C165 O158 1.262 . S
C165 O166 1.232 . S
O166 C165 1.232 . S
C167 O159 1.260 . S
C167 O160 1.257 . S
Zn168 O171 2.031 . S
Zn168 O173 2.049 . S
Zn168 O178 2.067 . S
Zn169 O170 1.962 . S
Zn169 O172 1.986 . S
Zn169 O174 1.996 . S
Zn169 O177 1.943 . S
O170 Zn169 1.962 . S
O170 C175 1.254 . S
O171 Zn168 2.031 . S
O171 C175 1.269 . S
O172 Zn169 1.986 . S
O172 C179 1.262 . S
O173 Zn168 2.049 . S
O173 C181 1.260 . S
O174 Zn169 1.996 . S
O174 C181 1.257 . S
C175 O170 1.254 . S
C175 O171 1.269 . S
C176 O177 1.249 . S
C176 O178 1.270 . S
O177 Zn169 1.943 . S
O177 C176 1.249 . S
O178 Zn168 2.067 . S
O178 C176 1.270 . S
C179 O172 1.262 . S
C179 O180 1.232 . S
O180 C179 1.232 . S
C181 O173 1.260 . S
C181 O174 1.257 . S
Zn182 O185 2.031 . S
Zn182 O187 2.049 . S
Zn182 O192 2.067 . S
Zn183 O184 1.962 . S
Zn183 O186 1.986 . S
Zn183 O188 1.996 . S
Zn183 O191 1.943 . S
O184 Zn183 1.962 . S
O184 C189 1.254 . S
O185 Zn182 2.031 . S
O185 C189 1.269 . S
O186 Zn183 1.986 . S
O186 C193 1.262 . S
O187 Zn182 2.049 . S
O187 C195 1.260 . S
O188 Zn183 1.996 . S
O188 C195 1.257 . S
C189 O184 1.254 . S
C189 O185 1.269 . S
C190 O191 1.249 . S
C190 O192 1.270 . S
O191 Zn183 1.943 . S
O191 C190 1.249 . S
O192 Zn182 2.067 . S
O192 C190 1.270 . S
C193 O186 1.262 . S
C193 O194 1.232 . S
O194 C193 1.232 . S
C195 O187 1.260 . S
C195 O188 1.257 . S
Zn196 O199 2.031 . S
Zn196 O201 2.049 . S
Zn196 O206 2.067 . S
Zn197 O198 1.962 . S
Zn197 O200 1.986 . S
Zn197 O202 1.996 . S
Zn197 O205 1.943 . S
O198 Zn197 1.962 . S
O198 C203 1.254 . S
O199 Zn196 2.031 . S
O199 C203 1.269 . S
O200 Zn197 1.986 . S
O200 C207 1.262 . S
O201 Zn196 2.049 . S
O201 C209 1.260 . S
O202 Zn197 1.996 . S
O202 C209 1.257 . S
C203 O198 1.254 . S
C203 O199 1.269 . S
C204 O205 1.249 . S
C204 O206 1.270 . S
O205 Zn197 1.943 . S
O205 C204 1.249 . S
O206 Zn196 2.067 . S
O206 C204 1.270 . S
C207 O200 1.262 . S
C207 O208 1.232 . S
O208 C207 1.232 . S
C209 O201 1.260 . S
C209 O202 1.257 . S
Zn210 O213 2.031 . S
Zn210 O215 2.049 . S
Zn210 O220 2.067 . S
Zn211 O212 1.962 . S
Zn211 O214 1.986 . S
Zn211 O216 1.996 . S
Zn211 O219 1.943 . S
O212 Zn211 1.962 . S
O212 C217 1.254 . S
O213 Zn210 2.031 . S
O213 C217 1.269 . S
O214 Zn211 1.986 . S
O214 C221 1.262 . S
O215 Zn210 2.049 . S
O215 C223 1.260 . S
O216 Zn211 1.996 . S
O216 C223 1.257 . S
C217 O212 1.254 . S
C217 O213 1.269 . S
C218 O219 1.249 . S
C218 O220 1.270 . S
O219 Zn211 1.943 . S
O219 C218 1.249 . S
O220 Zn210 2.067 . S
O220 C218 1.270 . S
C221 O214 1.262 . S
C221 O222 1.232 . S
O222 C221 1.232 . S
C223 O215 1.260 . S
C223 O216 1.257 . S
Zn224 O227 2.031 . S
Zn224 O229 2.049 . S
Zn224 O234 2.067 . S
Zn225 O226 1.962 . S
Zn225 O228 1.986 . S
Zn225 O230 1.996 . S
Zn225 O233 1.943 . S
O226 Zn225 1.962 . S
O226 C231 1.254 . S
O227 Zn224 2.031 . S
O227 C231 1.269 . S
O228 Zn225 1.986 . S
O228 C235 1.262 . S
O229 Zn224 2.049 . S
O229 C237 1.260 . S
O230 Zn225 1.996 . S
O230 C237 1.257 . S
C231 O226 1.254 . S
C231 O227 1.269 . S
C232 O233 1.249 . S
C232 O234 1.270 . S
O233 Zn225 1.943 . S
O233 C232 1.249 . S
O234 Zn224 2.067 . S
O234 C232 1.270 . S
C235 O228 1.262 . S
C235 O236 1.232 . S
O236 C235 1.232 . S
C237 O229 1.260 . S
C237 O230 1.257 . S
Zn238 O241 2.031 . S
Zn238 O243 2.049 . S
Zn238 O248 2.067 . S
Zn239 O240 1.962 . S
Zn239 O242 1.986 . S
Zn239 O244 1.996 . S
Zn239 O247 1.943 . S
O240 Zn239 1.962 . S
O240 C245 1.254 . S
O241 Zn238 2.031 . S
O241 C245 1.269 . S
O242 Zn239 1.986 . S
O242 C249 1.262 . S
O243 Zn238 2.049 . S
O243 C251 1.260 . S
O244 Zn239 1.996 . S
O244 C251 1.257 . S
C245 O240 1.254 . S
C245 O241 1.269 . S
C246 O247 1.249 . S
C246 O248 1.270 . S
O247 Zn239 1.943 . S
O247 C246 1.249 . S
O248 Zn238 2.067 . S
O248 C246 1.270 . S
C249 O242 1.262 . S
C249 O250 1.232 . S
O250 C249 1.232 . S
C251 O243 1.260 . S
C251 O244 1.257 . S
Zn252 O255 2.031 . S
Zn252 O257 2.049 . S
Zn252 O262 2.067 . S
Zn253 O254 1.962 . S
Zn253 O256 1.986 . S
Zn253 O258 1.996 . S
Zn253 O261 1.943 . S
O254 Zn253 1.962 . S
O254 C259 1.254 . S
O255 Zn252 2.031 . S
O255 C259 1.269 . S
O256 Zn253 1.986 . S
O256 C263 1.262 . S
O257 Zn252 2.049 . S
O257 C265 1.260 . S
O258 Zn253 1.996 . S
O258 C265 1.257 . S
C259 O254 1.254 . S
C259 O255 1.269 . S
C260 O261 1.249 . S
C260 O262 1.270 . S
O261 Zn253 1.943 . S
O261 C260 1.249 . S
O262 Zn252 2.067 . S
O262 C260 1.270 . S
C263 O256 1.262 . S
C263 O264 1.232 . S
O264 C263 1.232 . S
C265 O257 1.260 . S
C265 O258 1.257 . S
Zn266 O269 2.031 . S
Zn266 O271 2.049 . S
Zn266 O276 2.067 . S
Zn267 O268 1.962 . S
Zn267 O270 1.986 . S
Zn267 O272 1.996 . S
Zn267 O275 1.943 . S
O268 Zn267 1.962 . S
O268 C273 1.254 . S
O269 Zn266 2.031 . S
O269 C273 1.269 . S
O270 Zn267 1.986 . S
O270 C277 1.262 . S
O271 Zn266 2.049 . S
O271 C279 1.260 . S
O272 Zn267 1.996 . S
O272 C279 1.257 . S
C273 O268 1.254 . S
C273 O269 1.269 . S
C274 O275 1.249 . S
C274 O276 1.270 . S
O275 Zn267 1.943 . S
O275 C274 1.249 . S
O276 Zn266 2.067 . S
O276 C274 1.270 . S
C277 O270 1.262 . S
C277 O278 1.232 . S
O278 C277 1.232 . S
C279 O271 1.260 . S
C279 O272 1.257 . S
Zn280 O283 2.031 . S
Zn280 O285 2.049 . S
Zn280 O290 2.067 . S
Zn281 O282 1.962 . S
Zn281 O284 1.986 . S
Zn281 O286 1.996 . S
Zn281 O289 1.943 . S
O282 Zn281 1.962 . S
O282 C287 1.254 . S
O283 Zn280 2.031 . S
O283 C287 1.269 . S
O284 Zn281 1.986 . S
O284 C291 1.262 . S
O285 Zn280 2.049 . S
O285 C293 1.260 . S
O286 Zn281 1.996 . S
O286 C293 1.257 . S
C287 O282 1.254 . S
C287 O283 1.269 . S
C288 O289 1.249 . S
C288 O290 1.270 . S
O289 Zn281 1.943 . S
O289 C288 1.249 . S
O290 Zn280 2.067 . S
O290 C288 1.270 . S
C291 O284 1.262 . S
C291 O292 1.232 . S
O292 C291 1.232 . S
C293 O285 1.260 . S
C293 O286 1.257 . S
Zn294 O297 2.031 . S
Zn294 O299 2.049 . S
Zn294 O304 2.067 . S
Zn295 O296 1.962 . S
Zn295 O298 1.986 . S
Zn295 O300 1.996 . S
Zn295 O303 1.943 . S
O296 Zn295 1.962 . S
O296 C301 1.254 . S
O297 Zn294 2.031 . S
O297 C301 1.269 . S
O298 Zn295 1.986 . S
O298 C305 1.262 . S
O299 Zn294 2.049 . S
O299 C307 1.260 . S
O300 Zn295 1.996 . S
O300 C307 1.257 . S
C301 O296 1.254 . S
C301 O297 1.269 . S
C302 O303 1.249 . S
C302 O304 1.270 . S
O303 Zn295 1.943 . S
O303 C302 1.249 . S
O304 Zn294 2.067 . S
O304 C302 1.270 . S
C305 O298 1.262 . S
C305 O306 1.232 . S
O306 C305 1.232 . S
C307 O299 1.260 . S
C307 O300 1.257 . S
Zn308 O311 2.031 . S
Zn308 O313 2.049 . S
Zn308 O318 2.067 . S
Zn309 O310 1.962 . S
Zn309 O312 1.986 . S
Zn309 O314 1.996 . S
Zn309 O317 1.943 . S
O310 Zn309 1.962 . S
O310 C315 1.254 . S
O311 Zn308 2.031 . S
O311 C315 1.269 . S
O312 Zn309 1.986 . S
O312 C319 1.262 . S
O313 Zn308 2.049 . S
O313 C321 1.260 . S
O314 Zn309 1.996 . S
O314 C321 1.257 . S
C315 O310 1.254 . S
C315 O311 1.269 . S
C316 O317 1.249 . S
C316 O318 1.270 . S
O317 Zn309 1.943 . S
O317 C316 1.249 . S
O318 Zn308 2.067 . S
O318 C316 1.270 . S
C319 O312 1.262 . S
C319 O320 1.232 . S
O320 C319 1.232 . S
C321 O313 1.260 . S
C321 O314 1.257 . S
Zn322 O325 2.031 . S
Zn322 O327 2.049 . S
Zn322 O332 2.067 . S
Zn323 O324 1.962 . S
Zn323 O326 1.986 . S
Zn323 O328 1.996 . S
Zn323 O331 1.943 . S
O324 Zn323 1.962 . S
O324 C329 1.254 . S
O325 Zn322 2.031 . S
O325 C329 1.269 . S
O326 Zn323 1.986 . S
O326 C333 1.262 . S
O327 Zn322 2.049 . S
O327 C335 1.260 . S
O328 Zn323 1.996 . S
O328 C335 1.257 . S
C329 O324 1.254 . S
C329 O325 1.269 . S
C330 O331 1.249 . S
C330 O332 1.270 . S
O331 Zn323 1.943 . S
O331 C330 1.249 . S
O332 Zn322 2.067 . S
O332 C330 1.270 . S
C333 O326 1.262 . S
C333 O334 1.232 . S
O334 C333 1.232 . S
C335 O327 1.260 . S
C335 O328 1.257 . S
H336 C342 0.930 . S
H337 C345 0.930 . S
H338 C346 0.930 . S
H339 C347 0.930 . S
H340 C350 0.930 . S
H341 C351 0.930 . S
C342 H336 0.930 . S
C342 C343 1.355 . S
C342 C344 1.415 . S
C343 C342 1.355 . S
C343 C345 1.419 . S
C344 C342 1.415 . S
C344 C349 1.425 . S
C344 C351 1.409 . S
C345 H337 0.930 . S
C345 C343 1.419 . S
C345 C346 1.362 . S
C346 H338 0.930 . S
C346 C345 1.362 . S
C346 C349 1.409 . S
C347 H339 0.930 . S
C347 C348 1.355 . S
C347 C349 1.415 . S
C348 C347 1.355 . S
C348 C350 1.419 . S
C349 C344 1.425 . S
C349 C346 1.409 . S
C349 C347 1.415 . S
C350 H340 0.930 . S
C350 C348 1.419 . S
C350 C351 1.362 . S
C351 H341 0.930 . S
C351 C344 1.409 . S
C351 C350 1.362 . S
H352 C358 0.930 . S
H353 C361 0.930 . S
H354 C362 0.930 . S
H355 C363 0.930 . S
H356 C366 0.930 . S
H357 C367 0.930 . S
C358 H352 0.930 . S
C358 C359 1.355 . S
C358 C360 1.415 . S
C359 C358 1.355 . S
C359 C361 1.419 . S
C360 C358 1.415 . S
C360 C365 1.425 . S
C360 C367 1.409 . S
C361 H353 0.930 . S
C361 C359 1.419 . S
C361 C362 1.362 . S
C362 H354 0.930 . S
C362 C361 1.362 . S
C362 C365 1.409 . S
C363 H355 0.930 . S
C363 C364 1.355 . S
C363 C365 1.415 . S
C364 C363 1.355 . S
C364 C366 1.419 . S
C365 C360 1.425 . S
C365 C362 1.409 . S
C365 C363 1.415 . S
C366 H356 0.930 . S
C366 C364 1.419 . S
C366 C367 1.362 . S
C367 H357 0.930 . S
C367 C360 1.409 . S
C367 C366 1.362 . S
H368 C374 0.930 . S
H369 C377 0.930 . S
H370 C378 0.930 . S
H371 C379 0.930 . S
H372 C382 0.930 . S
H373 C383 0.930 . S
C374 H368 0.930 . S
C374 C375 1.355 . S
C374 C376 1.415 . S
C375 C374 1.355 . S
C375 C377 1.419 . S
C376 C374 1.415 . S
C376 C381 1.425 . S
C376 C383 1.409 . S
C377 H369 0.930 . S
C377 C375 1.419 . S
C377 C378 1.362 . S
C378 H370 0.930 . S
C378 C377 1.362 . S
C378 C381 1.409 . S
C379 H371 0.930 . S
C379 C380 1.355 . S
C379 C381 1.415 . S
C380 C379 1.355 . S
C380 C382 1.419 . S
C381 C376 1.425 . S
C381 C378 1.409 . S
C381 C379 1.415 . S
C382 H372 0.930 . S
C382 C380 1.419 . S
C382 C383 1.362 . S
C383 H373 0.930 . S
C383 C376 1.409 . S
C383 C382 1.362 . S
H384 C390 0.930 . S
H385 C393 0.930 . S
H386 C394 0.930 . S
H387 C395 0.930 . S
H388 C398 0.930 . S
H389 C399 0.930 . S
C390 H384 0.930 . S
C390 C391 1.355 . S
C390 C392 1.415 . S
C391 C390 1.355 . S
C391 C393 1.419 . S
C392 C390 1.415 . S
C392 C397 1.425 . S
C392 C399 1.409 . S
C393 H385 0.930 . S
C393 C391 1.419 . S
C393 C394 1.362 . S
C394 H386 0.930 . S
C394 C393 1.362 . S
C394 C397 1.409 . S
C395 H387 0.930 . S
C395 C396 1.355 . S
C395 C397 1.415 . S
C396 C395 1.355 . S
C396 C398 1.419 . S
C397 C392 1.425 . S
C397 C394 1.409 . S
C397 C395 1.415 . S
C398 H388 0.930 . S
C398 C396 1.419 . S
C398 C399 1.362 . S
C399 H389 0.930 . S
C399 C392 1.409 . S
C399 C398 1.362 . S
H400 C406 0.930 . S
H401 C409 0.930 . S
H402 C410 0.930 . S
H403 C411 0.930 . S
H404 C414 0.930 . S
H405 C415 0.930 . S
C406 H400 0.930 . S
C406 C407 1.355 . S
C406 C408 1.415 . S
C407 C406 1.355 . S
C407 C409 1.419 . S
C408 C406 1.415 . S
C408 C413 1.425 . S
C408 C415 1.409 . S
C409 H401 0.930 . S
C409 C407 1.419 . S
C409 C410 1.362 . S
C410 H402 0.930 . S
C410 C409 1.362 . S
C410 C413 1.409 . S
C411 H403 0.930 . S
C411 C412 1.355 . S
C411 C413 1.415 . S
C412 C411 1.355 . S
C412 C414 1.419 . S
C413 C408 1.425 . S
C413 C410 1.409 . S
C413 C411 1.415 . S
C414 H404 0.930 . S
C414 C412 1.419 . S
C414 C415 1.362 . S
C415 H405 0.930 . S
C415 C408 1.409 . S
C415 C414 1.362 . S
H416 C422 0.930 . S
H417 C425 0.930 . S
H418 C426 0.930 . S
H419 C427 0.930 . S
H420 C430 0.930 . S
H421 C431 0.930 . S
C422 H416 0.930 . S
C422 C423 1.355 . S
C422 C424 1.415 . S
C423 C422 1.355 . S
C423 C425 1.419 . S
C424 C422 1.415 . S
C424 C429 1.425 . S
C424 C431 1.409 . S
C425 H417 0.930 . S
C425 C423 1.419 . S
C425 C426 1.362 . S
C426 H418 0.930 . S
C426 C425 1.362 . S
C426 C429 1.409 . S
C427 H419 0.930 . S
C427 C428 1.355 . S
C427 C429 1.415 . S
C428 C427 1.355 . S
C428 C430 1.419 . S
C429 C424 1.425 . S
C429 C426 1.409 . S
C429 C427 1.415 . S
C430 H420 0.930 . S
C430 C428 1.419 . S
C430 C431 1.362 . S
C431 H421 0.930 . S
C431 C424 1.409 . S
C431 C430 1.362 . S
H432 C438 0.930 . S
H433 C441 0.930 . S
H434 C442 0.930 . S
H435 C443 0.930 . S
H436 C446 0.930 . S
H437 C447 0.930 . S
C438 H432 0.930 . S
C438 C439 1.355 . S
C438 C440 1.415 . S
C439 C438 1.355 . S
C439 C441 1.419 . S
C440 C438 1.415 . S
C440 C445 1.425 . S
C440 C447 1.409 . S
C441 H433 0.930 . S
C441 C439 1.419 . S
C441 C442 1.362 . S
C442 H434 0.930 . S
C442 C441 1.362 . S
C442 C445 1.409 . S
C443 H435 0.930 . S
C443 C444 1.355 . S
C443 C445 1.415 . S
C444 C443 1.355 . S
C444 C446 1.419 . S
C445 C440 1.425 . S
C445 C442 1.409 . S
C445 C443 1.415 . S
C446 H436 0.930 . S
C446 C444 1.419 . S
C446 C447 1.362 . S
C447 H437 0.930 . S
C447 C440 1.409 . S
C447 C446 1.362 . S
H448 C454 0.930 . S
H449 C457 0.930 . S
H450 C458 0.930 . S
H451 C459 0.930 . S
H452 C462 0.930 . S
H453 C463 0.930 . S
C454 H448 0.930 . S
C454 C455 1.355 . S
C454 C456 1.415 . S
C455 C454 1.355 . S
C455 C457 1.419 . S
C456 C454 1.415 . S
C456 C461 1.425 . S
C456 C463 1.409 . S
C457 H449 0.930 . S
C457 C455 1.419 . S
C457 C458 1.362 . S
C458 H450 0.930 . S
C458 C457 1.362 . S
C458 C461 1.409 . S
C459 H451 0.930 . S
C459 C460 1.355 . S
C459 C461 1.415 . S
C460 C459 1.355 . S
C460 C462 1.419 . S
C461 C456 1.425 . S
C461 C458 1.409 . S
C461 C459 1.415 . S
C462 H452 0.930 . S
C462 C460 1.419 . S
C462 C463 1.362 . S
C463 H453 0.930 . S
C463 C456 1.409 . S
C463 C462 1.362 . S
H464 C470 0.930 . S
H465 C473 0.930 . S
H466 C474 0.930 . S
H467 C475 0.930 . S
H468 C478 0.930 . S
H469 C479 0.930 . S
C470 H464 0.930 . S
C470 C471 1.355 . S
C470 C472 1.415 . S
C471 C470 1.355 . S
C471 C473 1.419 . S
C472 C470 1.415 . S
C472 C477 1.425 . S
C472 C479 1.409 . S
C473 H465 0.930 . S
C473 C471 1.419 . S
C473 C474 1.362 . S
C474 H466 0.930 . S
C474 C473 1.362 . S
C474 C477 1.409 . S
C475 H467 0.930 . S
C475 C476 1.355 . S
C475 C477 1.415 . S
C476 C475 1.355 . S
C476 C478 1.419 . S
C477 C472 1.425 . S
C477 C474 1.409 . S
C477 C475 1.415 . S
C478 H468 0.930 . S
C478 C476 1.419 . S
C478 C479 1.362 . S
C479 H469 0.930 . S
C479 C472 1.409 . S
C479 C478 1.362 . S
H480 C486 0.930 . S
H481 C489 0.930 . S
H482 C490 0.930 . S
H483 C491 0.930 . S
H484 C494 0.930 . S
H485 C495 0.930 . S
C486 H480 0.930 . S
C486 C487 1.355 . S
C486 C488 1.415 . S
C487 C486 1.355 . S
C487 C489 1.419 . S
C488 C486 1.415 . S
C488 C493 1.425 . S
C488 C495 1.409 . S
C489 H481 0.930 . S
C489 C487 1.419 . S
C489 C490 1.362 . S
C490 H482 0.930 . S
C490 C489 1.362 . S
C490 C493 1.409 . S
C491 H483 0.930 . S
C491 C492 1.355 . S
C491 C493 1.415 . S
C492 C491 1.355 . S
C492 C494 1.419 . S
C493 C488 1.425 . S
C493 C490 1.409 . S
C493 C491 1.415 . S
C494 H484 0.930 . S
C494 C492 1.419 . S
C494 C495 1.362 . S
C495 H485 0.930 . S
C495 C488 1.409 . S
C495 C494 1.362 . S
H496 C502 0.930 . S
H497 C505 0.930 . S
H498 C506 0.930 . S
H499 C507 0.930 . S
H500 C510 0.930 . S
H501 C511 0.930 . S
C502 H496 0.930 . S
C502 C503 1.355 . S
C502 C504 1.415 . S
C503 C502 1.355 . S
C503 C505 1.419 . S
C504 C502 1.415 . S
C504 C509 1.425 . S
C504 C511 1.409 . S
C505 H497 0.930 . S
C505 C503 1.419 . S
C505 C506 1.362 . S
C506 H498 0.930 . S
C506 C505 1.362 . S
C506 C509 1.409 . S
C507 H499 0.930 . S
C507 C508 1.355 . S
C507 C509 1.415 . S
C508 C507 1.355 . S
C508 C510 1.419 . S
C509 C504 1.425 . S
C509 C506 1.409 . S
C509 C507 1.415 . S
C510 H500 0.930 . S
C510 C508 1.419 . S
C510 C511 1.362 . S
C511 H501 0.930 . S
C511 C504 1.409 . S
C511 C510 1.362 . S
H512 C518 0.930 . S
H513 C521 0.930 . S
H514 C522 0.930 . S
H515 C523 0.930 . S
H516 C526 0.930 . S
H517 C527 0.930 . S
C518 H512 0.930 . S
C518 C519 1.355 . S
C518 C520 1.415 . S
C519 C518 1.355 . S
C519 C521 1.419 . S
C520 C518 1.415 . S
C520 C525 1.425 . S
C520 C527 1.409 . S
C521 H513 0.930 . S
C521 C519 1.419 . S
C521 C522 1.362 . S
C522 H514 0.930 . S
C522 C521 1.362 . S
C522 C525 1.409 . S
C523 H515 0.930 . S
C523 C524 1.355 . S
C523 C525 1.415 . S
C524 C523 1.355 . S
C524 C526 1.419 . S
C525 C520 1.425 . S
C525 C522 1.409 . S
C525 C523 1.415 . S
C526 H516 0.930 . S
C526 C524 1.419 . S
C526 C527 1.362 . S
C527 H517 0.930 . S
C527 C520 1.409 . S
C527 C526 1.362 . S
H528 C534 0.930 . S
H529 C537 0.930 . S
H530 C538 0.930 . S
H531 C539 0.930 . S
H532 C542 0.930 . S
H533 C543 0.930 . S
C534 H528 0.930 . S
C534 C535 1.355 . S
C534 C536 1.415 . S
C535 C534 1.355 . S
C535 C537 1.419 . S
C536 C534 1.415 . S
C536 C541 1.425 . S
C536 C543 1.409 . S
C537 H529 0.930 . S
C537 C535 1.419 . S
C537 C538 1.362 . S
C538 H530 0.930 . S
C538 C537 1.362 . S
C538 C541 1.409 . S
C539 H531 0.930 . S
C539 C540 1.355 . S
C539 C541 1.415 . S
C540 C539 1.355 . S
C540 C542 1.419 . S
C541 C536 1.425 . S
C541 C538 1.409 . S
C541 C539 1.415 . S
C542 H532 0.930 . S
C542 C540 1.419 . S
C542 C543 1.362 . S
C543 H533 0.930 . S
C543 C536 1.409 . S
C543 C542 1.362 . S
H544 C550 0.930 . S
H545 C553 0.930 . S
H546 C554 0.930 . S
H547 C555 0.930 . S
H548 C558 0.930 . S
H549 C559 0.930 . S
C550 H544 0.930 . S
C550 C551 1.355 . S
C550 C552 1.415 . S
C551 C550 1.355 . S
C551 C553 1.419 . S
C552 C550 1.415 . S
C552 C557 1.425 . S
C552 C559 1.409 . S
C553 H545 0.930 . S
C553 C551 1.419 . S
C553 C554 1.362 . S
C554 H546 0.930 . S
C554 C553 1.362 . S
C554 C557 1.409 . S
C555 H547 0.930 . S
C555 C556 1.355 . S
C555 C557 1.415 . S
C556 C555 1.355 . S
C556 C558 1.419 . S
C557 C552 1.425 . S
C557 C554 1.409 . S
C557 C555 1.415 . S
C558 H548 0.930 . S
C558 C556 1.419 . S
C558 C559 1.362 . S
C559 H549 0.930 . S
C559 C552 1.409 . S
C559 C558 1.362 . S
H560 C566 0.930 . S
H561 C569 0.930 . S
H562 C570 0.930 . S
H563 C571 0.930 . S
H564 C574 0.930 . S
H565 C575 0.930 . S
C566 H560 0.930 . S
C566 C567 1.355 . S
C566 C568 1.415 . S
C567 C566 1.355 . S
C567 C569 1.419 . S
C568 C566 1.415 . S
C568 C573 1.425 . S
C568 C575 1.409 . S
C569 H561 0.930 . S
C569 C567 1.419 . S
C569 C570 1.362 . S
C570 H562 0.930 . S
C570 C569 1.362 . S
C570 C573 1.409 . S
C571 H563 0.930 . S
C571 C572 1.355 . S
C571 C573 1.415 . S
C572 C571 1.355 . S
C572 C574 1.419 . S
C573 C568 1.425 . S
C573 C570 1.409 . S
C573 C571 1.415 . S
C574 H564 0.930 . S
C574 C572 1.419 . S
C574 C575 1.362 . S
C575 H565 0.930 . S
C575 C568 1.409 . S
C575 C574 1.362 . S
H576 C582 0.930 . S
H577 C585 0.930 . S
H578 C586 0.930 . S
H579 C587 0.930 . S
H580 C590 0.930 . S
H581 C591 0.930 . S
C582 H576 0.930 . S
C582 C583 1.355 . S
C582 C584 1.415 . S
C583 C582 1.355 . S
C583 C585 1.419 . S
C584 C582 1.415 . S
C584 C589 1.425 . S
C584 C591 1.409 . S
C585 H577 0.930 . S
C585 C583 1.419 . S
C585 C586 1.362 . S
C586 H578 0.930 . S
C586 C585 1.362 . S
C586 C589 1.409 . S
C587 H579 0.930 . S
C587 C588 1.355 . S
C587 C589 1.415 . S
C588 C587 1.355 . S
C588 C590 1.419 . S
C589 C584 1.425 . S
C589 C586 1.409 . S
C589 C587 1.415 . S
C590 H580 0.930 . S
C590 C588 1.419 . S
C590 C591 1.362 . S
C591 H581 0.930 . S
C591 C584 1.409 . S
C591 C590 1.362 . S
H592 C598 0.930 . S
H593 C601 0.930 . S
H594 C602 0.930 . S
H595 C603 0.930 . S
H596 C606 0.930 . S
H597 C607 0.930 . S
C598 H592 0.930 . S
C598 C599 1.355 . S
C598 C600 1.415 . S
C599 C598 1.355 . S
C599 C601 1.419 . S
C600 C598 1.415 . S
C600 C605 1.425 . S
C600 C607 1.409 . S
C601 H593 0.930 . S
C601 C599 1.419 . S
C601 C602 1.362 . S
C602 H594 0.930 . S
C602 C601 1.362 . S
C602 C605 1.409 . S
C603 H595 0.930 . S
C603 C604 1.355 . S
C603 C605 1.415 . S
C604 C603 1.355 . S
C604 C606 1.419 . S
C605 C600 1.425 . S
C605 C602 1.409 . S
C605 C603 1.415 . S
C606 H596 0.930 . S
C606 C604 1.419 . S
C606 C607 1.362 . S
C607 H597 0.930 . S
C607 C600 1.409 . S
C607 C606 1.362 . S
H608 C614 0.930 . S
H609 C617 0.930 . S
H610 C618 0.930 . S
H611 C619 0.930 . S
H612 C622 0.930 . S
H613 C623 0.930 . S
C614 H608 0.930 . S
C614 C615 1.355 . S
C614 C616 1.415 . S
C615 C614 1.355 . S
C615 C617 1.419 . S
C616 C614 1.415 . S
C616 C621 1.425 . S
C616 C623 1.409 . S
C617 H609 0.930 . S
C617 C615 1.419 . S
C617 C618 1.362 . S
C618 H610 0.930 . S
C618 C617 1.362 . S
C618 C621 1.409 . S
C619 H611 0.930 . S
C619 C620 1.355 . S
C619 C621 1.415 . S
C620 C619 1.355 . S
C620 C622 1.419 . S
C621 C616 1.425 . S
C621 C618 1.409 . S
C621 C619 1.415 . S
C622 H612 0.930 . S
C622 C620 1.419 . S
C622 C623 1.362 . S
C623 H613 0.930 . S
C623 C616 1.409 . S
C623 C622 1.362 . S
H624 C630 0.930 . S
H625 C633 0.930 . S
H626 C634 0.930 . S
H627 C635 0.930 . S
H628 C638 0.930 . S
H629 C639 0.930 . S
C630 H624 0.930 . S
C630 C631 1.355 . S
C630 C632 1.415 . S
C631 C630 1.355 . S
C631 C633 1.419 . S
C632 C630 1.415 . S
C632 C637 1.425 . S
C632 C639 1.409 . S
C633 H625 0.930 . S
C633 C631 1.419 . S
C633 C634 1.362 . S
C634 H626 0.930 . S
C634 C633 1.362 . S
C634 C637 1.409 . S
C635 H627 0.930 . S
C635 C636 1.355 . S
C635 C637 1.415 . S
C636 C635 1.355 . S
C636 C638 1.419 . S
C637 C632 1.425 . S
C637 C634 1.409 . S
C637 C635 1.415 . S
C638 H628 0.930 . S
C638 C636 1.419 . S
C638 C639 1.362 . S
C639 H629 0.930 . S
C639 C632 1.409 . S
C639 C638 1.362 . S
H640 C646 0.930 . S
H641 C649 0.930 . S
H642 C650 0.930 . S
H643 C651 0.930 . S
H644 C654 0.930 . S
H645 C655 0.930 . S
C646 H640 0.930 . S
C646 C647 1.355 . S
C646 C648 1.415 . S
C647 C646 1.355 . S
C647 C649 1.419 . S
C648 C646 1.415 . S
C648 C653 1.425 . S
C648 C655 1.409 . S
C649 H641 0.930 . S
C649 C647 1.419 . S
C649 C650 1.362 . S
C650 H642 0.930 . S
C650 C649 1.362 . S
C650 C653 1.409 . S
C651 H643 0.930 . S
C651 C652 1.355 . S
C651 C653 1.415 . S
C652 C651 1.355 . S
C652 C654 1.419 . S
C653 C648 1.425 . S
C653 C650 1.409 . S
C653 C651 1.415 . S
C654 H644 0.930 . S
C654 C652 1.419 . S
C654 C655 1.362 . S
C655 H645 0.930 . S
C655 C648 1.409 . S
C655 C654 1.362 . S
H656 C662 0.930 . S
H657 C665 0.930 . S
H658 C666 0.930 . S
H659 C667 0.930 . S
H660 C670 0.930 . S
H661 C671 0.930 . S
C662 H656 0.930 . S
C662 C663 1.355 . S
C662 C664 1.415 . S
C663 C662 1.355 . S
C663 C665 1.419 . S
C664 C662 1.415 . S
C664 C669 1.425 . S
C664 C671 1.409 . S
C665 H657 0.930 . S
C665 C663 1.419 . S
C665 C666 1.362 . S
C666 H658 0.930 . S
C666 C665 1.362 . S
C666 C669 1.409 . S
C667 H659 0.930 . S
C667 C668 1.355 . S
C667 C669 1.415 . S
C668 C667 1.355 . S
C668 C670 1.419 . S
C669 C664 1.425 . S
C669 C666 1.409 . S
C669 C667 1.415 . S
C670 H660 0.930 . S
C670 C668 1.419 . S
C670 C671 1.362 . S
C671 H661 0.930 . S
C671 C664 1.409 . S
C671 C670 1.362 . S
H672 C678 0.930 . S
H673 C681 0.930 . S
H674 C682 0.930 . S
H675 C683 0.930 . S
H676 C686 0.930 . S
H677 C687 0.930 . S
C678 H672 0.930 . S
C678 C679 1.355 . S
C678 C680 1.415 . S
C679 C678 1.355 . S
C679 C681 1.419 . S
C680 C678 1.415 . S
C680 C685 1.425 . S
C680 C687 1.409 . S
C681 H673 0.930 . S
C681 C679 1.419 . S
C681 C682 1.362 . S
C682 H674 0.930 . S
C682 C681 1.362 . S
C682 C685 1.409 . S
C683 H675 0.930 . S
C683 C684 1.355 . S
C683 C685 1.415 . S
C684 C683 1.355 . S
C684 C686 1.419 . S
C685 C680 1.425 . S
C685 C682 1.409 . S
C685 C683 1.415 . S
C686 H676 0.930 . S
C686 C684 1.419 . S
C686 C687 1.362 . S
C687 H677 0.930 . S
C687 C680 1.409 . S
C687 C686 1.362 . S
H688 C694 0.930 . S
H689 C697 0.930 . S
H690 C698 0.930 . S
H691 C699 0.930 . S
H692 C702 0.930 . S
H693 C703 0.930 . S
C694 H688 0.930 . S
C694 C695 1.355 . S
C694 C696 1.415 . S
C695 C694 1.355 . S
C695 C697 1.419 . S
C696 C694 1.415 . S
C696 C701 1.425 . S
C696 C703 1.409 . S
C697 H689 0.930 . S
C697 C695 1.419 . S
C697 C698 1.362 . S
C698 H690 0.930 . S
C698 C697 1.362 . S
C698 C701 1.409 . S
C699 H691 0.930 . S
C699 C700 1.355 . S
C699 C701 1.415 . S
C700 C699 1.355 . S
C700 C702 1.419 . S
C701 C696 1.425 . S
C701 C698 1.409 . S
C701 C699 1.415 . S
C702 H692 0.930 . S
C702 C700 1.419 . S
C702 C703 1.362 . S
C703 H693 0.930 . S
C703 C696 1.409 . S
C703 C702 1.362 . S
H704 C710 0.930 . S
H705 C713 0.930 . S
H706 C714 0.930 . S
H707 C715 0.930 . S
H708 C718 0.930 . S
H709 C719 0.930 . S
C710 H704 0.930 . S
C710 C711 1.355 . S
C710 C712 1.415 . S
C711 C710 1.355 . S
C711 C713 1.419 . S
C712 C710 1.415 . S
C712 C717 1.425 . S
C712 C719 1.409 . S
C713 H705 0.930 . S
C713 C711 1.419 . S
C713 C714 1.362 . S
C714 H706 0.930 . S
C714 C713 1.362 . S
C714 C717 1.409 . S
C715 H707 0.930 . S
C715 C716 1.355 . S
C715 C717 1.415 . S
C716 C715 1.355 . S
C716 C718 1.419 . S
C717 C712 1.425 . S
C717 C714 1.409 . S
C717 C715 1.415 . S
C718 H708 0.930 . S
C718 C716 1.419 . S
C718 C719 1.362 . S
C719 H709 0.930 . S
C719 C712 1.409 . S
C719 C718 1.362 . S
H720 C726 0.930 . S
H721 C729 0.930 . S
H722 C730 0.930 . S
H723 C731 0.930 . S
H724 C734 0.930 . S
H725 C735 0.930 . S
C726 H720 0.930 . S
C726 C727 1.355 . S
C726 C728 1.415 . S
C727 C726 1.355 . S
C727 C729 1.419 . S
C728 C726 1.415 . S
C728 C733 1.425 1_455 S
C728 C735 1.409 1_455 S
C729 H721 0.930 . S
C729 C727 1.419 . S
C729 C730 1.362 . S
C730 H722 0.930 . S
C730 C729 1.362 . S
C730 C733 1.409 1_455 S
C731 H723 0.930 . S
C731 C732 1.355 . S
C731 C733 1.415 . S
C732 C731 1.355 . S
C732 C734 1.419 . S
C733 C728 1.425 1_655 S
C733 C730 1.409 1_655 S
C733 C731 1.415 . S
C734 H724 0.930 . S
C734 C732 1.419 . S
C734 C735 1.362 . S
C735 H725 0.930 . S
C735 C728 1.409 1_655 S
C735 C734 1.362 . S
H736 C742 0.930 . S
H737 C745 0.930 . S
H738 C746 0.930 . S
H739 C747 0.930 . S
H740 C750 0.930 . S
H741 C751 0.930 . S
C742 H736 0.930 . S
C742 C743 1.355 . S
C742 C744 1.415 . S
C743 C742 1.355 . S
C743 C745 1.419 . S
C744 C742 1.415 . S
C744 C749 1.425 1_545 S
C744 C751 1.409 1_545 S
C745 H737 0.930 . S
C745 C743 1.419 . S
C745 C746 1.362 . S
C746 H738 0.930 . S
C746 C745 1.362 . S
C746 C749 1.409 1_545 S
C747 H739 0.930 . S
C747 C748 1.355 . S
C747 C749 1.415 . S
C748 C747 1.355 . S
C748 C750 1.419 . S
C749 C744 1.425 1_565 S
C749 C746 1.409 1_565 S
C749 C747 1.415 . S
C750 H740 0.930 . S
C750 C748 1.419 . S
C750 C751 1.362 . S
C751 H741 0.930 . S
C751 C744 1.409 1_565 S
C751 C750 1.362 . S
H752 C758 0.930 . S
H753 C761 0.930 . S
H754 C762 0.930 . S
H755 C763 0.930 . S
H756 C766 0.930 . S
H757 C767 0.930 . S
C758 H752 0.930 . S
C758 C759 1.355 . S
C758 C760 1.415 . S
C759 C758 1.355 . S
C759 C761 1.419 . S
C760 C758 1.415 . S
C760 C765 1.425 1_655 S
C760 C767 1.409 1_655 S
C761 H753 0.930 . S
C761 C759 1.419 . S
C761 C762 1.362 . S
C762 H754 0.930 . S
C762 C761 1.362 . S
C762 C765 1.409 1_655 S
C763 H755 0.930 . S
C763 C764 1.355 . S
C763 C765 1.415 . S
C764 C763 1.355 . S
C764 C766 1.419 . S
C765 C760 1.425 1_455 S
C765 C762 1.409 1_455 S
C765 C763 1.415 . S
C766 H756 0.930 . S
C766 C764 1.419 . S
C766 C767 1.362 . S
C767 H757 0.930 . S
C767 C760 1.409 1_455 S
C767 C766 1.362 . S
H768 C774 0.930 . S
H769 C777 0.930 . S
H770 C778 0.930 . S
H771 C779 0.930 . S
H772 C782 0.930 . S
H773 C783 0.930 . S
C774 H768 0.930 . S
C774 C775 1.355 . S
C774 C776 1.415 . S
C775 C774 1.355 . S
C775 C777 1.419 . S
C776 C774 1.415 . S
C776 C781 1.425 1_545 S
C776 C783 1.409 1_545 S
C777 H769 0.930 . S
C777 C775 1.419 . S
C777 C778 1.362 . S
C778 H770 0.930 . S
C778 C777 1.362 . S
C778 C781 1.409 1_545 S
C779 H771 0.930 . S
C779 C780 1.355 . S
C779 C781 1.415 . S
C780 C779 1.355 . S
C780 C782 1.419 . S
C781 C776 1.425 1_565 S
C781 C778 1.409 1_565 S
C781 C779 1.415 . S
C782 H772 0.930 . S
C782 C780 1.419 . S
C782 C783 1.362 . S
C783 H773 0.930 . S
C783 C776 1.409 1_565 S
C783 C782 1.362 . S
H784 C790 0.930 . S
H785 C793 0.930 . S
H786 C794 0.930 . S
H787 C795 0.930 . S
H788 C798 0.930 . S
H789 C799 0.930 . S
C790 H784 0.930 . S
C790 C791 1.355 . S
C790 C792 1.415 . S
C791 C790 1.355 . S
C791 C793 1.419 . S
C792 C790 1.415 . S
C792 C797 1.425 1_565 S
C792 C799 1.409 1_565 S
C793 H785 0.930 . S
C793 C791 1.419 . S
C793 C794 1.362 . S
C794 H786 0.930 . S
C794 C793 1.362 . S
C794 C797 1.409 1_565 S
C795 H787 0.930 . S
C795 C796 1.355 . S
C795 C797 1.415 . S
C796 C795 1.355 . S
C796 C798 1.419 . S
C797 C792 1.425 1_545 S
C797 C794 1.409 1_545 S
C797 C795 1.415 . S
C798 H788 0.930 . S
C798 C796 1.419 . S
C798 C799 1.362 . S
C799 H789 0.930 . S
C799 C792 1.409 1_545 S
C799 C798 1.362 . S
H800 C806 0.930 . S
H801 C809 0.930 . S
H802 C810 0.930 . S
H803 C811 0.930 . S
H804 C814 0.930 . S
H805 C815 0.930 . S
C806 H800 0.930 . S
C806 C807 1.355 . S
C806 C808 1.415 . S
C807 C806 1.355 . S
C807 C809 1.419 . S
C808 C806 1.415 . S
C808 C813 1.425 1_655 S
C808 C815 1.409 1_655 S
C809 H801 0.930 . S
C809 C807 1.419 . S
C809 C810 1.362 . S
C810 H802 0.930 . S
C810 C809 1.362 . S
C810 C813 1.409 1_655 S
C811 H803 0.930 . S
C811 C812 1.355 . S
C811 C813 1.415 . S
C812 C811 1.355 . S
C812 C814 1.419 . S
C813 C808 1.425 1_455 S
C813 C810 1.409 1_455 S
C813 C811 1.415 . S
C814 H804 0.930 . S
C814 C812 1.419 . S
C814 C815 1.362 . S
C815 H805 0.930 . S
C815 C808 1.409 1_455 S
C815 C814 1.362 . S
H816 C822 0.930 . S
H817 C825 0.930 . S
H818 C826 0.930 . S
H819 C827 0.930 . S
H820 C830 0.930 . S
H821 C831 0.930 . S
C822 H816 0.930 . S
C822 C823 1.355 . S
C822 C824 1.415 . S
C823 C822 1.355 . S
C823 C825 1.419 . S
C824 C822 1.415 . S
C824 C829 1.425 1_565 S
C824 C831 1.409 1_565 S
C825 H817 0.930 . S
C825 C823 1.419 . S
C825 C826 1.362 . S
C826 H818 0.930 . S
C826 C825 1.362 . S
C826 C829 1.409 1_565 S
C827 H819 0.930 . S
C827 C828 1.355 . S
C827 C829 1.415 . S
C828 C827 1.355 . S
C828 C830 1.419 . S
C829 C824 1.425 1_545 S
C829 C826 1.409 1_545 S
C829 C827 1.415 . S
C830 H820 0.930 . S
C830 C828 1.419 . S
C830 C831 1.362 . S
C831 H821 0.930 . S
C831 C824 1.409 1_545 S
C831 C830 1.362 . S
H832 C838 0.930 . S
H833 C841 0.930 . S
H834 C842 0.930 . S
H835 C843 0.930 . S
H836 C846 0.930 . S
H837 C847 0.930 . S
C838 H832 0.930 . S
C838 C839 1.355 . S
C838 C840 1.415 . S
C839 C838 1.355 . S
C839 C841 1.419 . S
C840 C838 1.415 . S
C840 C845 1.425 1_655 S
C840 C847 1.409 1_655 S
C841 H833 0.930 . S
C841 C839 1.419 . S
C841 C842 1.362 . S
C842 H834 0.930 . S
C842 C841 1.362 . S
C842 C845 1.409 1_655 S
C843 H835 0.930 . S
C843 C844 1.355 . S
C843 C845 1.415 . S
C844 C843 1.355 . S
C844 C846 1.419 . S
C845 C840 1.425 1_455 S
C845 C842 1.409 1_455 S
C845 C843 1.415 . S
C846 H836 0.930 . S
C846 C844 1.419 . S
C846 C847 1.362 . S
C847 H837 0.930 . S
C847 C840 1.409 1_455 S
C847 C846 1.362 . S
H848 C854 0.930 . S
H849 C857 0.930 . S
H850 C858 0.930 . S
H851 C859 0.930 . S
H852 C862 0.930 . S
H853 C863 0.930 . S
C854 H848 0.930 . S
C854 C855 1.355 . S
C854 C856 1.415 . S
C855 C854 1.355 . S
C855 C857 1.419 . S
C856 C854 1.415 . S
C856 C861 1.425 1_556 S
C856 C863 1.409 1_556 S
C857 H849 0.930 . S
C857 C855 1.419 . S
C857 C858 1.362 . S
C858 H850 0.930 . S
C858 C857 1.362 . S
C858 C861 1.409 1_556 S
C859 H851 0.930 . S
C859 C860 1.355 . S
C859 C861 1.415 . S
C860 C859 1.355 . S
C860 C862 1.419 . S
C861 C856 1.425 1_554 S
C861 C858 1.409 1_554 S
C861 C859 1.415 . S
C862 H852 0.930 . S
C862 C860 1.419 . S
C862 C863 1.362 . S
C863 H853 0.930 . S
C863 C856 1.409 1_554 S
C863 C862 1.362 . S
H864 C870 0.930 . S
H865 C873 0.930 . S
H866 C874 0.930 . S
H867 C875 0.930 . S
H868 C878 0.930 . S
H869 C879 0.930 . S
C870 H864 0.930 . S
C870 C871 1.355 . S
C870 C872 1.415 . S
C871 C870 1.355 . S
C871 C873 1.419 . S
C872 C870 1.415 . S
C872 C877 1.425 1_556 S
C872 C879 1.409 1_556 S
C873 H865 0.930 . S
C873 C871 1.419 . S
C873 C874 1.362 . S
C874 H866 0.930 . S
C874 C873 1.362 . S
C874 C877 1.409 1_556 S
C875 H867 0.930 . S
C875 C876 1.355 . S
C875 C877 1.415 . S
C876 C875 1.355 . S
C876 C878 1.419 . S
C877 C872 1.425 1_554 S
C877 C874 1.409 1_554 S
C877 C875 1.415 . S
C878 H868 0.930 . S
C878 C876 1.419 . S
C878 C879 1.362 . S
C879 H869 0.930 . S
C879 C872 1.409 1_554 S
C879 C878 1.362 . S
H880 C886 0.930 . S
H881 C889 0.930 . S
H882 C890 0.930 . S
H883 C891 0.930 . S
H884 C894 0.930 . S
H885 C895 0.930 . S
C886 H880 0.930 . S
C886 C887 1.355 . S
C886 C888 1.415 . S
C887 C886 1.355 . S
C887 C889 1.419 . S
C888 C886 1.415 . S
C888 C893 1.425 1_556 S
C888 C895 1.409 1_556 S
C889 H881 0.930 . S
C889 C887 1.419 . S
C889 C890 1.362 . S
C890 H882 0.930 . S
C890 C889 1.362 . S
C890 C893 1.409 1_556 S
C891 H883 0.930 . S
C891 C892 1.355 . S
C891 C893 1.415 . S
C892 C891 1.355 . S
C892 C894 1.419 . S
C893 C888 1.425 1_554 S
C893 C890 1.409 1_554 S
C893 C891 1.415 . S
C894 H884 0.930 . S
C894 C892 1.419 . S
C894 C895 1.362 . S
C895 H885 0.930 . S
C895 C888 1.409 1_554 S
C895 C894 1.362 . S
H896 C902 0.930 . S
H897 C905 0.930 . S
H898 C906 0.930 . S
H899 C907 0.930 . S
H900 C910 0.930 . S
H901 C911 0.930 . S
C902 H896 0.930 . S
C902 C903 1.355 . S
C902 C904 1.415 . S
C903 C902 1.355 . S
C903 C905 1.419 . S
C904 C902 1.415 . S
C904 C909 1.425 1_556 S
C904 C911 1.409 1_556 S
C905 H897 0.930 . S
C905 C903 1.419 . S
C905 C906 1.362 . S
C906 H898 0.930 . S
C906 C905 1.362 . S
C906 C909 1.409 1_556 S
C907 H899 0.930 . S
C907 C908 1.355 . S
C907 C909 1.415 . S
C908 C907 1.355 . S
C908 C910 1.419 . S
C909 C904 1.425 1_554 S
C909 C906 1.409 1_554 S
C909 C907 1.415 . S
C910 H900 0.930 . S
C910 C908 1.419 . S
C910 C911 1.362 . S
C911 H901 0.930 . S
C911 C904 1.409 1_554 S
C911 C910 1.362 . S
H912 C918 0.930 . S
H913 C921 0.930 . S
H914 C922 0.930 . S
H915 C923 0.930 . S
H916 C926 0.930 . S
H917 C927 0.930 . S
C918 H912 0.930 . S
C918 C919 1.355 . S
C918 C920 1.415 . S
C919 C918 1.355 . S
C919 C921 1.419 . S
C920 C918 1.415 . S
C920 C925 1.425 . S
C920 C927 1.409 . S
C921 H913 0.930 . S
C921 C919 1.419 . S
C921 C922 1.362 . S
C922 H914 0.930 . S
C922 C921 1.362 . S
C922 C925 1.409 . S
C923 H915 0.930 . S
C923 C924 1.355 . S
C923 C925 1.415 . S
C924 C923 1.355 . S
C924 C926 1.419 . S
C925 C920 1.425 . S
C925 C922 1.409 . S
C925 C923 1.415 . S
C926 H916 0.930 . S
C926 C924 1.419 . S
C926 C927 1.362 . S
C927 H917 0.930 . S
C927 C920 1.409 . S
C927 C926 1.362 . S
H928 C934 0.930 . S
H929 C937 0.930 . S
H930 C938 0.930 . S
H931 C939 0.930 . S
H932 C942 0.930 . S
H933 C943 0.930 . S
C934 H928 0.930 . S
C934 C935 1.355 . S
C934 C936 1.415 . S
C935 C934 1.355 . S
C935 C937 1.419 . S
C936 C934 1.415 . S
C936 C941 1.425 . S
C936 C943 1.409 . S
C937 H929 0.930 . S
C937 C935 1.419 . S
C937 C938 1.362 . S
C938 H930 0.930 . S
C938 C937 1.362 . S
C938 C941 1.409 . S
C939 H931 0.930 . S
C939 C940 1.355 . S
C939 C941 1.415 . S
C940 C939 1.355 . S
C940 C942 1.419 . S
C941 C936 1.425 . S
C941 C938 1.409 . S
C941 C939 1.415 . S
C942 H932 0.930 . S
C942 C940 1.419 . S
C942 C943 1.362 . S
C943 H933 0.930 . S
C943 C936 1.409 . S
C943 C942 1.362 . S
H944 C950 0.930 . S
H945 C953 0.930 . S
H946 C954 0.930 . S
H947 C955 0.930 . S
H948 C958 0.930 . S
H949 C959 0.930 . S
C950 H944 0.930 . S
C950 C951 1.355 . S
C950 C952 1.415 . S
C951 C950 1.355 . S
C951 C953 1.419 . S
C952 C950 1.415 . S
C952 C957 1.425 . S
C952 C959 1.409 . S
C953 H945 0.930 . S
C953 C951 1.419 . S
C953 C954 1.362 . S
C954 H946 0.930 . S
C954 C953 1.362 . S
C954 C957 1.409 . S
C955 H947 0.930 . S
C955 C956 1.355 . S
C955 C957 1.415 . S
C956 C955 1.355 . S
C956 C958 1.419 . S
C957 C952 1.425 . S
C957 C954 1.409 . S
C957 C955 1.415 . S
C958 H948 0.930 . S
C958 C956 1.419 . S
C958 C959 1.362 . S
C959 H949 0.930 . S
C959 C952 1.409 . S
C959 C958 1.362 . S
H960 C966 0.930 . S
H961 C969 0.930 . S
H962 C970 0.930 . S
H963 C971 0.930 . S
H964 C974 0.930 . S
H965 C975 0.930 . S
C966 H960 0.930 . S
C966 C967 1.355 . S
C966 C968 1.415 . S
C967 C966 1.355 . S
C967 C969 1.419 . S
C968 C966 1.415 . S
C968 C973 1.425 . S
C968 C975 1.409 . S
C969 H961 0.930 . S
C969 C967 1.419 . S
C969 C970 1.362 . S
C970 H962 0.930 . S
C970 C969 1.362 . S
C970 C973 1.409 . S
C971 H963 0.930 . S
C971 C972 1.355 . S
C971 C973 1.415 . S
C972 C971 1.355 . S
C972 C974 1.419 . S
C973 C968 1.425 . S
C973 C970 1.409 . S
C973 C971 1.415 . S
C974 H964 0.930 . S
C974 C972 1.419 . S
C974 C975 1.362 . S
C975 H965 0.930 . S
C975 C968 1.409 . S
C975 C974 1.362 . S
H976 C982 0.930 . S
H977 C985 0.930 . S
H978 C986 0.930 . S
H979 C987 0.930 . S
H980 C990 0.930 . S
H981 C991 0.930 . S
C982 H976 0.930 . S
C982 C983 1.355 . S
C982 C984 1.415 . S
C983 C982 1.355 . S
C983 C985 1.419 . S
C984 C982 1.415 . S
C984 C989 1.425 . S
C984 C991 1.409 . S
C985 H977 0.930 . S
C985 C983 1.419 . S
C985 C986 1.362 . S
C986 H978 0.930 . S
C986 C985 1.362 . S
C986 C989 1.409 . S
C987 H979 0.930 . S
C987 C988 1.355 . S
C987 C989 1.415 . S
C988 C987 1.355 . S
C988 C990 1.419 . S
C989 C984 1.425 . S
C989 C986 1.409 . S
C989 C987 1.415 . S
C990 H980 0.930 . S
C990 C988 1.419 . S
C990 C991 1.362 . S
C991 H981 0.930 . S
C991 C984 1.409 . S
C991 C990 1.362 . S
H992 C998 0.930 . S
H993 C1001 0.930 . S
H994 C1002 0.930 . S
H995 C1003 0.930 . S
H996 C1006 0.930 . S
H997 C1007 0.930 . S
C998 H992 0.930 . S
C998 C999 1.355 . S
C998 C1000 1.415 . S
C999 C998 1.355 . S
C999 C1001 1.419 . S
C1000 C998 1.415 . S
C1000 C1005 1.425 . S
C1000 C1007 1.409 . S
C1001 H993 0.930 . S
C1001 C999 1.419 . S
C1001 C1002 1.362 . S
C1002 H994 0.930 . S
C1002 C1001 1.362 . S
C1002 C1005 1.409 . S
C1003 H995 0.930 . S
C1003 C1004 1.355 . S
C1003 C1005 1.415 . S
C1004 C1003 1.355 . S
C1004 C1006 1.419 . S
C1005 C1000 1.425 . S
C1005 C1002 1.409 . S
C1005 C1003 1.415 . S
C1006 H996 0.930 . S
C1006 C1004 1.419 . S
C1006 C1007 1.362 . S
C1007 H997 0.930 . S
C1007 C1000 1.409 . S
C1007 C1006 1.362 . S
H1008 C1014 0.930 . S
H1009 C1017 0.930 . S
H1010 C1018 0.930 . S
H1011 C1019 0.930 . S
H1012 C1022 0.930 . S
H1013 C1023 0.930 . S
C1014 H1008 0.930 . S
C1014 C1015 1.355 . S
C1014 C1016 1.415 . S
C1015 C1014 1.355 . S
C1015 C1017 1.419 . S
C1016 C1014 1.415 . S
C1016 C1021 1.425 . S
C1016 C1023 1.409 . S
C1017 H1009 0.930 . S
C1017 C1015 1.419 . S
C1017 C1018 1.362 . S
C1018 H1010 0.930 . S
C1018 C1017 1.362 . S
C1018 C1021 1.409 . S
C1019 H1011 0.930 . S
C1019 C1020 1.355 . S
C1019 C1021 1.415 . S
C1020 C1019 1.355 . S
C1020 C1022 1.419 . S
C1021 C1016 1.425 . S
C1021 C1018 1.409 . S
C1021 C1019 1.415 . S
C1022 H1012 0.930 . S
C1022 C1020 1.419 . S
C1022 C1023 1.362 . S
C1023 H1013 0.930 . S
C1023 C1016 1.409 . S
C1023 C1022 1.362 . S
H1024 C1030 0.930 . S
H1025 C1033 0.930 . S
H1026 C1034 0.930 . S
H1027 C1035 0.930 . S
H1028 C1038 0.930 . S
H1029 C1039 0.930 . S
C1030 H1024 0.930 . S
C1030 C1031 1.355 . S
C1030 C1032 1.415 . S
C1031 C1030 1.355 . S
C1031 C1033 1.419 . S
C1032 C1030 1.415 . S
C1032 C1037 1.425 . S
C1032 C1039 1.409 . S
C1033 H1025 0.930 . S
C1033 C1031 1.419 . S
C1033 C1034 1.362 . S
C1034 H1026 0.930 . S
C1034 C1033 1.362 . S
C1034 C1037 1.409 . S
C1035 H1027 0.930 . S
C1035 C1036 1.355 . S
C1035 C1037 1.415 . S
C1036 C1035 1.355 . S
C1036 C1038 1.419 . S
C1037 C1032 1.425 . S
C1037 C1034 1.409 . S
C1037 C1035 1.415 . S
C1038 H1028 0.930 . S
C1038 C1036 1.419 . S
C1038 C1039 1.362 . S
C1039 H1029 0.930 . S
C1039 C1032 1.409 . S
C1039 C1038 1.362 . S
H1040 C1046 0.930 . S
H1041 C1049 0.930 . S
H1042 C1050 0.930 . S
H1043 C1051 0.930 . S
H1044 C1054 0.930 . S
H1045 C1055 0.930 . S
C1046 H1040 0.930 . S
C1046 C1047 1.355 . S
C1046 C1048 1.415 . S
C1047 C1046 1.355 . S
C1047 C1049 1.419 . S
C1048 C1046 1.415 . S
C1048 C1053 1.425 . S
C1048 C1055 1.409 . S
C1049 H1041 0.930 . S
C1049 C1047 1.419 . S
C1049 C1050 1.362 . S
C1050 H1042 0.930 . S
C1050 C1049 1.362 . S
C1050 C1053 1.409 . S
C1051 H1043 0.930 . S
C1051 C1052 1.355 . S
C1051 C1053 1.415 . S
C1052 C1051 1.355 . S
C1052 C1054 1.419 . S
C1053 C1048 1.425 . S
C1053 C1050 1.409 . S
C1053 C1051 1.415 . S
C1054 H1044 0.930 . S
C1054 C1052 1.419 . S
C1054 C1055 1.362 . S
C1055 H1045 0.930 . S
C1055 C1048 1.409 . S
C1055 C1054 1.362 . S
H1056 C1062 0.930 . S
H1057 C1065 0.930 . S
H1058 C1066 0.930 . S
H1059 C1067 0.930 . S
H1060 C1070 0.930 . S
H1061 C1071 0.930 . S
C1062 H1056 0.930 . S
C1062 C1063 1.355 . S
C1062 C1064 1.415 . S
C1063 C1062 1.355 . S
C1063 C1065 1.419 . S
C1064 C1062 1.415 . S
C1064 C1069 1.425 . S
C1064 C1071 1.409 . S
C1065 H1057 0.930 . S
C1065 C1063 1.419 . S
C1065 C1066 1.362 . S
C1066 H1058 0.930 . S
C1066 C1065 1.362 . S
C1066 C1069 1.409 . S
C1067 H1059 0.930 . S
C1067 C1068 1.355 . S
C1067 C1069 1.415 . S
C1068 C1067 1.355 . S
C1068 C1070 1.419 . S
C1069 C1064 1.425 . S
C1069 C1066 1.409 . S
C1069 C1067 1.415 . S
C1070 H1060 0.930 . S
C1070 C1068 1.419 . S
C1070 C1071 1.362 . S
C1071 H1061 0.930 . S
C1071 C1064 1.409 . S
C1071 C1070 1.362 . S
H1072 C1078 0.930 . S
H1073 C1081 0.930 . S
H1074 C1082 0.930 . S
H1075 C1083 0.930 . S
H1076 C1086 0.930 . S
H1077 C1087 0.930 . S
C1078 H1072 0.930 . S
C1078 C1079 1.355 . S
C1078 C1080 1.415 . S
C1079 C1078 1.355 . S
C1079 C1081 1.419 . S
C1080 C1078 1.415 . S
C1080 C1085 1.425 . S
C1080 C1087 1.409 . S
C1081 H1073 0.930 . S
C1081 C1079 1.419 . S
C1081 C1082 1.362 . S
C1082 H1074 0.930 . S
C1082 C1081 1.362 . S
C1082 C1085 1.409 . S
C1083 H1075 0.930 . S
C1083 C1084 1.355 . S
C1083 C1085 1.415 . S
C1084 C1083 1.355 . S
C1084 C1086 1.419 . S
C1085 C1080 1.425 . S
C1085 C1082 1.409 . S
C1085 C1083 1.415 . S
C1086 H1076 0.930 . S
C1086 C1084 1.419 . S
C1086 C1087 1.362 . S
C1087 H1077 0.930 . S
C1087 C1080 1.409 . S
C1087 C1086 1.362 . S
H1088 C1094 0.930 . S
H1089 C1097 0.930 . S
H1090 C1098 0.930 . S
H1091 C1099 0.930 . S
H1092 C1102 0.930 . S
H1093 C1103 0.930 . S
C1094 H1088 0.930 . S
C1094 C1095 1.355 . S
C1094 C1096 1.415 . S
C1095 C1094 1.355 . S
C1095 C1097 1.419 . S
C1096 C1094 1.415 . S
C1096 C1101 1.425 . S
C1096 C1103 1.409 . S
C1097 H1089 0.930 . S
C1097 C1095 1.419 . S
C1097 C1098 1.362 . S
C1098 H1090 0.930 . S
C1098 C1097 1.362 . S
C1098 C1101 1.409 . S
C1099 H1091 0.930 . S
C1099 C1100 1.355 . S
C1099 C1101 1.415 . S
C1100 C1099 1.355 . S
C1100 C1102 1.419 . S
C1101 C1096 1.425 . S
C1101 C1098 1.409 . S
C1101 C1099 1.415 . S
C1102 H1092 0.930 . S
C1102 C1100 1.419 . S
C1102 C1103 1.362 . S
C1103 H1093 0.930 . S
C1103 C1096 1.409 . S
C1103 C1102 1.362 . S
C343 C167 1.259 . S
C348 C7 1.494 . S
C359 C21 1.486 . S
C364 C125 1.285 . S
C375 C35 1.474 . S
C380 C139 1.317 . S
C391 C49 1.439 . S
C396 C153 1.360 . S
C407 C195 1.268 . S
C412 C63 1.492 . S
C423 C77 1.448 . S
C428 C209 1.368 . S
C439 C223 1.362 . S
C444 C91 1.438 . S
C455 C181 1.339 . S
C460 C105 1.446 . S
C471 C83 1.248 . S
C476 C119 1.494 . S
C487 C97 1.343 . S
C492 C133 1.444 . S
C503 C147 1.474 . S
C508 C111 1.317 . S
C519 C69 1.372 . S
C524 C161 1.445 . S
C535 C55 1.365 . S
C540 C175 1.437 . S
C551 C189 1.452 . S
C556 C13 1.362 . S
C567 C203 1.495 . S
C572 C27 1.252 . S
C583 C217 1.445 . S
C588 C41 1.371 . S
C599 C231 1.439 . S
C604 C335 1.357 . S
C615 C293 1.365 . S
C620 C245 1.437 . S
C631 C259 1.440 . S
C636 C251 1.377 . S
C647 C273 1.438 . S
C652 C265 1.362 . S
C663 C279 1.247 . S
C668 C287 1.492 . S
C679 C301 1.493 . S
C684 C321 1.263 . S
C695 C237 1.325 . S
C700 C315 1.451 . S
C711 C307 1.372 . S
C716 C329 1.436 . S
C727 C8 1.218 . S
C732 C92 1.296 . S
C743 C22 1.216 . S
C748 C106 1.296 . S
C759 C36 1.192 . S
C764 C64 1.268 . S
C775 C78 1.287 . S
C780 C50 1.252 . S
C791 C148 1.294 . S
C796 C120 1.209 . S
C807 C134 1.279 . S
C812 C162 1.264 . S
C823 C176 1.290 . S
C828 C204 1.247 . S
C839 C218 1.195 . S
C844 C190 1.253 . S
C855 C246 1.276 . S
C860 C232 1.193 . S
C871 C260 1.285 . S
C876 C330 1.256 . S
C887 C274 1.193 . S
C892 C302 1.260 . S
C903 C288 1.237 . S
C908 C316 1.202 . S
C919 C11 1.097 . S
C924 C81 1.072 . S
C935 C25 1.101 . S
C940 C95 1.075 . S
C951 C39 1.086 . S
C956 C109 1.066 . S
C967 C67 1.073 . S
C972 C53 1.099 . S
C983 C123 1.066 . S
C988 C333 1.080 . S
C999 C137 1.106 . S
C1004 C305 1.111 . S
C1015 C319 1.067 . S
C1020 C151 1.075 . S
C1031 C165 1.073 . S
C1036 C235 1.067 . S
C1047 C291 1.083 . S
C1052 C179 1.108 . S
C1063 C249 1.104 . S
C1068 C193 1.078 . S
C1079 C207 1.110 . S
C1084 C263 1.087 . S
C1095 C277 1.085 . S
C1100 C221 1.109 . S
