# Generated by pormake.
# Topology wln, (5)-cn, num edge types: 1
# Building blocks:
#     Node 0, Type 0, BuildingBlock: BEQFEK_clean_sbu_0, # of connection points: 5
#     Node 1, Type 0, BuildingBlock: BEQFEK_clean_sbu_0, # of connection points: 5
#     Node 2, Type 0, BuildingBlock: BEQFEK_clean_sbu_0, # of connection points: 5
#     Node 3, Type 0, BuildingBlock: BEQFEK_clean_sbu_0, # of connection points: 5
#     Node 4, Type 0, BuildingBlock: BEQFEK_clean_sbu_0, # of connection points: 5
#     Node 5, Type 0, BuildingBlock: BEQFEK_clean_sbu_0, # of connection points: 5
#     Node 6, Type 0, BuildingBlock: BEQFEK_clean_sbu_0, # of connection points: 5
#     Node 7, Type 0, BuildingBlock: BEQFEK_clean_sbu_0, # of connection points: 5
#     Node 8, Type 0, BuildingBlock: BEQFEK_clean_sbu_0, # of connection points: 5
#     Node 9, Type 0, BuildingBlock: BEQFEK_clean_sbu_0, # of connection points: 5
#     Node 10, Type 0, BuildingBlock: BEQFEK_clean_sbu_0, # of connection points: 5
#     Node 11, Type 0, BuildingBlock: BEQFEK_clean_sbu_0, # of connection points: 5
#     Node 12, Type 0, BuildingBlock: BEQFEK_clean_sbu_0, # of connection points: 5
#     Node 13, Type 0, BuildingBlock: BEQFEK_clean_sbu_0, # of connection points: 5
#     Node 14, Type 0, BuildingBlock: BEQFEK_clean_sbu_0, # of connection points: 5
#     Node 15, Type 0, BuildingBlock: BEQFEK_clean_sbu_0, # of connection points: 5
#     Node 16, Type 0, BuildingBlock: BEQFEK_clean_sbu_0, # of connection points: 5
#     Node 17, Type 0, BuildingBlock: BEQFEK_clean_sbu_0, # of connection points: 5
#     Node 18, Type 0, BuildingBlock: BEQFEK_clean_sbu_0, # of connection points: 5
#     Node 19, Type 0, BuildingBlock: BEQFEK_clean_sbu_0, # of connection points: 5
#     Node 20, Type 0, BuildingBlock: BEQFEK_clean_sbu_0, # of connection points: 5
#     Node 21, Type 0, BuildingBlock: BEQFEK_clean_sbu_0, # of connection points: 5
#     Node 22, Type 0, BuildingBlock: BEQFEK_clean_sbu_0, # of connection points: 5
#     Node 23, Type 0, BuildingBlock: BEQFEK_clean_sbu_0, # of connection points: 5
#     Node 24, Type 0, BuildingBlock: BEQFEK_clean_sbu_0, # of connection points: 5
#     Node 25, Type 0, BuildingBlock: BEQFEK_clean_sbu_0, # of connection points: 5
#     Node 26, Type 0, BuildingBlock: BEQFEK_clean_sbu_0, # of connection points: 5
#     Node 27, Type 0, BuildingBlock: BEQFEK_clean_sbu_0, # of connection points: 5
#     Node 28, Type 0, BuildingBlock: BEQFEK_clean_sbu_0, # of connection points: 5
#     Node 29, Type 0, BuildingBlock: BEQFEK_clean_sbu_0, # of connection points: 5
#     Node 30, Type 0, BuildingBlock: BEQFEK_clean_sbu_0, # of connection points: 5
#     Node 31, Type 0, BuildingBlock: BEQFEK_clean_sbu_0, # of connection points: 5
#     Node 32, Type 0, BuildingBlock: BEQFEK_clean_sbu_0, # of connection points: 5
#     Node 33, Type 0, BuildingBlock: BEQFEK_clean_sbu_0, # of connection points: 5
#     Node 34, Type 0, BuildingBlock: BEQFEK_clean_sbu_0, # of connection points: 5
#     Node 35, Type 0, BuildingBlock: BEQFEK_clean_sbu_0, # of connection points: 5
#     Edge 36, Type (0, 0), BuildingBlock: UVAHIK_clean_linker_0, # of connection points: 2
#     Edge 37, Type (0, 0), BuildingBlock: UVAHIK_clean_linker_0, # of connection points: 2
#     Edge 38, Type (0, 0), BuildingBlock: UVAHIK_clean_linker_0, # of connection points: 2
#     Edge 39, Type (0, 0), BuildingBlock: UVAHIK_clean_linker_0, # of connection points: 2
#     Edge 40, Type (0, 0), BuildingBlock: UVAHIK_clean_linker_0, # of connection points: 2
#     Edge 41, Type (0, 0), BuildingBlock: UVAHIK_clean_linker_0, # of connection points: 2
#     Edge 42, Type (0, 0), BuildingBlock: UVAHIK_clean_linker_0, # of connection points: 2
#     Edge 43, Type (0, 0), BuildingBlock: UVAHIK_clean_linker_0, # of connection points: 2
#     Edge 44, Type (0, 0), BuildingBlock: UVAHIK_clean_linker_0, # of connection points: 2
#     Edge 45, Type (0, 0), BuildingBlock: UVAHIK_clean_linker_0, # of connection points: 2
#     Edge 46, Type (0, 0), BuildingBlock: UVAHIK_clean_linker_0, # of connection points: 2
#     Edge 47, Type (0, 0), BuildingBlock: UVAHIK_clean_linker_0, # of connection points: 2
#     Edge 48, Type (0, 0), BuildingBlock: UVAHIK_clean_linker_0, # of connection points: 2
#     Edge 49, Type (0, 0), BuildingBlock: UVAHIK_clean_linker_0, # of connection points: 2
#     Edge 50, Type (0, 0), BuildingBlock: UVAHIK_clean_linker_0, # of connection points: 2
#     Edge 51, Type (0, 0), BuildingBlock: UVAHIK_clean_linker_0, # of connection points: 2
#     Edge 52, Type (0, 0), BuildingBlock: UVAHIK_clean_linker_0, # of connection points: 2
#     Edge 53, Type (0, 0), BuildingBlock: UVAHIK_clean_linker_0, # of connection points: 2
#     Edge 54, Type (0, 0), BuildingBlock: UVAHIK_clean_linker_0, # of connection points: 2
#     Edge 55, Type (0, 0), BuildingBlock: UVAHIK_clean_linker_0, # of connection points: 2
#     Edge 56, Type (0, 0), BuildingBlock: UVAHIK_clean_linker_0, # of connection points: 2
#     Edge 57, Type (0, 0), BuildingBlock: UVAHIK_clean_linker_0, # of connection points: 2
#     Edge 58, Type (0, 0), BuildingBlock: UVAHIK_clean_linker_0, # of connection points: 2
#     Edge 59, Type (0, 0), BuildingBlock: UVAHIK_clean_linker_0, # of connection points: 2
#     Edge 60, Type (0, 0), BuildingBlock: UVAHIK_clean_linker_0, # of connection points: 2
#     Edge 61, Type (0, 0), BuildingBlock: UVAHIK_clean_linker_0, # of connection points: 2
#     Edge 62, Type (0, 0), BuildingBlock: UVAHIK_clean_linker_0, # of connection points: 2
#     Edge 63, Type (0, 0), BuildingBlock: UVAHIK_clean_linker_0, # of connection points: 2
#     Edge 64, Type (0, 0), BuildingBlock: UVAHIK_clean_linker_0, # of connection points: 2
#     Edge 65, Type (0, 0), BuildingBlock: UVAHIK_clean_linker_0, # of connection points: 2
#     Edge 66, Type (0, 0), BuildingBlock: UVAHIK_clean_linker_0, # of connection points: 2
#     Edge 67, Type (0, 0), BuildingBlock: UVAHIK_clean_linker_0, # of connection points: 2
#     Edge 68, Type (0, 0), BuildingBlock: UVAHIK_clean_linker_0, # of connection points: 2
#     Edge 69, Type (0, 0), BuildingBlock: UVAHIK_clean_linker_0, # of connection points: 2
#     Edge 70, Type (0, 0), BuildingBlock: UVAHIK_clean_linker_0, # of connection points: 2
#     Edge 71, Type (0, 0), BuildingBlock: UVAHIK_clean_linker_0, # of connection points: 2
#     Edge 72, Type (0, 0), BuildingBlock: UVAHIK_clean_linker_0, # of connection points: 2
#     Edge 73, Type (0, 0), BuildingBlock: UVAHIK_clean_linker_0, # of connection points: 2
#     Edge 74, Type (0, 0), BuildingBlock: UVAHIK_clean_linker_0, # of connection points: 2
#     Edge 75, Type (0, 0), BuildingBlock: UVAHIK_clean_linker_0, # of connection points: 2
#     Edge 76, Type (0, 0), BuildingBlock: UVAHIK_clean_linker_0, # of connection points: 2
#     Edge 77, Type (0, 0), BuildingBlock: UVAHIK_clean_linker_0, # of connection points: 2
#     Edge 78, Type (0, 0), BuildingBlock: UVAHIK_clean_linker_0, # of connection points: 2
#     Edge 79, Type (0, 0), BuildingBlock: UVAHIK_clean_linker_0, # of connection points: 2
#     Edge 80, Type (0, 0), BuildingBlock: UVAHIK_clean_linker_0, # of connection points: 2
#     Edge 81, Type (0, 0), BuildingBlock: UVAHIK_clean_linker_0, # of connection points: 2
#     Edge 82, Type (0, 0), BuildingBlock: UVAHIK_clean_linker_0, # of connection points: 2
#     Edge 83, Type (0, 0), BuildingBlock: UVAHIK_clean_linker_0, # of connection points: 2
#     Edge 84, Type (0, 0), BuildingBlock: UVAHIK_clean_linker_0, # of connection points: 2
#     Edge 85, Type (0, 0), BuildingBlock: UVAHIK_clean_linker_0, # of connection points: 2
#     Edge 86, Type (0, 0), BuildingBlock: UVAHIK_clean_linker_0, # of connection points: 2
#     Edge 87, Type (0, 0), BuildingBlock: UVAHIK_clean_linker_0, # of connection points: 2
#     Edge 88, Type (0, 0), BuildingBlock: UVAHIK_clean_linker_0, # of connection points: 2
#     Edge 89, Type (0, 0), BuildingBlock: UVAHIK_clean_linker_0, # of connection points: 2
#     Edge 90, Type (0, 0), BuildingBlock: UVAHIK_clean_linker_0, # of connection points: 2
#     Edge 91, Type (0, 0), BuildingBlock: UVAHIK_clean_linker_0, # of connection points: 2
#     Edge 92, Type (0, 0), BuildingBlock: UVAHIK_clean_linker_0, # of connection points: 2
#     Edge 93, Type (0, 0), BuildingBlock: UVAHIK_clean_linker_0, # of connection points: 2
#     Edge 94, Type (0, 0), BuildingBlock: UVAHIK_clean_linker_0, # of connection points: 2
#     Edge 95, Type (0, 0), BuildingBlock: UVAHIK_clean_linker_0, # of connection points: 2
#     Edge 96, Type (0, 0), BuildingBlock: UVAHIK_clean_linker_0, # of connection points: 2
#     Edge 97, Type (0, 0), BuildingBlock: UVAHIK_clean_linker_0, # of connection points: 2
#     Edge 98, Type (0, 0), BuildingBlock: UVAHIK_clean_linker_0, # of connection points: 2
#     Edge 99, Type (0, 0), BuildingBlock: UVAHIK_clean_linker_0, # of connection points: 2
#     Edge 100, Type (0, 0), BuildingBlock: UVAHIK_clean_linker_0, # of connection points: 2
#     Edge 101, Type (0, 0), BuildingBlock: UVAHIK_clean_linker_0, # of connection points: 2
#     Edge 102, Type (0, 0), BuildingBlock: UVAHIK_clean_linker_0, # of connection points: 2
#     Edge 103, Type (0, 0), BuildingBlock: UVAHIK_clean_linker_0, # of connection points: 2
#     Edge 104, Type (0, 0), BuildingBlock: UVAHIK_clean_linker_0, # of connection points: 2
#     Edge 105, Type (0, 0), BuildingBlock: UVAHIK_clean_linker_0, # of connection points: 2
#     Edge 106, Type (0, 0), BuildingBlock: UVAHIK_clean_linker_0, # of connection points: 2
#     Edge 107, Type (0, 0), BuildingBlock: UVAHIK_clean_linker_0, # of connection points: 2
#     Edge 108, Type (0, 0), BuildingBlock: UVAHIK_clean_linker_0, # of connection points: 2
#     Edge 109, Type (0, 0), BuildingBlock: UVAHIK_clean_linker_0, # of connection points: 2
#     Edge 110, Type (0, 0), BuildingBlock: UVAHIK_clean_linker_0, # of connection points: 2
#     Edge 111, Type (0, 0), BuildingBlock: UVAHIK_clean_linker_0, # of connection points: 2
#     Edge 112, Type (0, 0), BuildingBlock: UVAHIK_clean_linker_0, # of connection points: 2
#     Edge 113, Type (0, 0), BuildingBlock: UVAHIK_clean_linker_0, # of connection points: 2
#     Edge 114, Type (0, 0), BuildingBlock: UVAHIK_clean_linker_0, # of connection points: 2
#     Edge 115, Type (0, 0), BuildingBlock: UVAHIK_clean_linker_0, # of connection points: 2
#     Edge 116, Type (0, 0), BuildingBlock: UVAHIK_clean_linker_0, # of connection points: 2
#     Edge 117, Type (0, 0), BuildingBlock: UVAHIK_clean_linker_0, # of connection points: 2
#     Edge 118, Type (0, 0), BuildingBlock: UVAHIK_clean_linker_0, # of connection points: 2
#     Edge 119, Type (0, 0), BuildingBlock: UVAHIK_clean_linker_0, # of connection points: 2
#     Edge 120, Type (0, 0), BuildingBlock: UVAHIK_clean_linker_0, # of connection points: 2
#     Edge 121, Type (0, 0), BuildingBlock: UVAHIK_clean_linker_0, # of connection points: 2
#     Edge 122, Type (0, 0), BuildingBlock: UVAHIK_clean_linker_0, # of connection points: 2
#     Edge 123, Type (0, 0), BuildingBlock: UVAHIK_clean_linker_0, # of connection points: 2
#     Edge 124, Type (0, 0), BuildingBlock: UVAHIK_clean_linker_0, # of connection points: 2
#     Edge 125, Type (0, 0), BuildingBlock: UVAHIK_clean_linker_0, # of connection points: 2
# Relax obj value: 0.190
# Max RMSD: 0.175
# Mean RMSD: 0.175
data_MOF--net-wln--node1-BEQFEK_clean_sbu_0--edge1-UVAHIK_clean_linker_0
_symmetry_space_group_name_H-M    P1
_symmetry_Int_Tables_number       1
_symmetry_cell_setting            triclinic
loop_
_symmetry_equiv_pos_as_xyz
'x, y, z'
_cell_length_a     159.59273
_cell_length_b     159.61692
_cell_length_c     22.714182
_cell_angle_alpha  90.002867
_cell_angle_beta   89.996248
_cell_angle_gamma 119.99742
loop_
_atom_site_label
_atom_site_type_symbol
_atom_site_fract_x
_atom_site_fract_y
_atom_site_fract_z
_atom_type_partial_charge
Co0 Co 0.13824 0.40064 0.95128 0.0
Co1 Co 0.13366 0.39075 0.07463 0.0
C2 C 0.15353 0.39974 0.01929 0.0
O3 O 0.15097 0.40253 0.9738 0.0
O4 O 0.14753 0.39508 0.06016 0.0
C5 C 0.14732 0.41283 0.85065 0.0
O6 O 0.15545 0.41559 0.87924 0.0
C7 C 0.13691 0.39268 0.19953 0.0
C8 C 0.12417 0.37978 0.23622 0.0
C9 C 0.1325 0.38825 0.25201 0.0
N10 N 0.13145 0.38712 0.15497 0.0
N11 N 0.12391 0.37934 0.17694 0.0
C12 C 0.14551 0.40256 0.19116 0.0
H13 H 0.14542 0.40541 0.14678 0.0
H14 H 0.14566 0.40764 0.22512 0.0
H15 H 0.15221 0.40212 0.1953 0.0
C16 C 0.13152 0.41274 0.01025 0.0
N17 N 0.13344 0.40543 0.0099 0.0
N18 N 0.13095 0.40093 0.06085 0.0
C19 C 0.12708 0.40505 0.09476 0.0
C20 C 0.12744 0.41276 0.0642 0.0
C21 C 0.13395 0.41974 0.9606 0.0
H22 H 0.14112 0.42166 0.94215 0.0
H23 H 0.13406 0.42643 0.9752 0.0
H24 H 0.12848 0.41626 0.9252 0.0
O25 O 0.12914 0.38666 0.93715 0.0
O26 O 0.1255 0.37946 0.02446 0.0
H27 H 0.11664 0.40312 0.16177 0.0
H28 H 0.12775 0.40421 0.18847 0.0
C29 C 0.12227 0.40114 0.1529 0.0
H30 H 0.11882 0.39316 0.15347 0.0
H31 H 0.11841 0.37394 0.15158 0.0
O32 O 0.13933 0.40697 0.87496 0.0
C33 C 0.1246 0.37909 0.96868 0.0
Co34 Co 0.59696 0.73817 0.96319 0.0
Co35 Co 0.60749 0.74309 0.08441 0.0
C36 C 0.59704 0.75321 0.03941 0.0
O37 O 0.59425 0.7482 0.99247 0.0
O38 O 0.60222 0.75198 0.07712 0.0
C39 C 0.5863 0.73671 0.85783 0.0
O40 O 0.58587 0.74412 0.87933 0.0
C41 C 0.60704 0.74422 0.21071 0.0
C42 C 0.61994 0.74354 0.23902 0.0
C43 C 0.61191 0.74381 0.26001 0.0
N44 N 0.61192 0.74417 0.16282 0.0
N45 N 0.61972 0.74394 0.17981 0.0
C46 C 0.59724 0.74333 0.20845 0.0
H47 H 0.59367 0.74022 0.16574 0.0
H48 H 0.59259 0.7387 0.24485 0.0
H49 H 0.59807 0.75062 0.21311 0.0
C50 C 0.58656 0.71866 0.0161 0.0
N51 N 0.59318 0.72814 0.01853 0.0
N52 N 0.59782 0.73007 0.069 0.0
C53 C 0.59441 0.72179 0.1 0.0
C54 C 0.58714 0.71432 0.06759 0.0
C55 C 0.58023 0.71384 0.96396 0.0
H56 H 0.58483 0.7147 0.92526 0.0
H57 H 0.57602 0.71747 0.9535 0.0
H58 H 0.57521 0.70603 0.97179 0.0
O59 O 0.61094 0.74401 0.94441 0.0
O60 O 0.61854 0.74722 0.03031 0.0
H61 H 0.60593 0.72491 0.16035 0.0
H62 H 0.5951 0.71347 0.17375 0.0
C63 C 0.59792 0.72107 0.15992 0.0
H64 H 0.59543 0.72451 0.19249 0.0
H65 H 0.62465 0.74361 0.15103 0.0
O66 O 0.59024 0.73292 0.88799 0.0
C67 C 0.6187 0.74719 0.97429 0.0
Co68 Co 0.25817 0.85829 0.96616 0.0
Co69 Co 0.25265 0.86205 0.09098 0.0
C70 C 0.24236 0.84238 0.03498 0.0
O71 O 0.24769 0.84527 0.98937 0.0
O72 O 0.24352 0.84818 0.0767 0.0
C73 C 0.26174 0.84939 0.86583 0.0
O74 O 0.25609 0.84112 0.89216 0.0
C75 C 0.25047 0.85911 0.21694 0.0
C76 C 0.25287 0.87317 0.24975 0.0
C77 C 0.25162 0.86433 0.26792 0.0
N78 N 0.25133 0.86471 0.17072 0.0
N79 N 0.25253 0.87303 0.19047 0.0
C80 C 0.24879 0.84903 0.21142 0.0
H81 H 0.24179 0.84449 0.18887 0.0
H82 H 0.25453 0.84905 0.18368 0.0
H83 H 0.24845 0.84568 0.25474 0.0
C84 C 0.27761 0.86752 0.01966 0.0
N85 N 0.26798 0.86388 0.02328 0.0
N86 N 0.26571 0.86524 0.07667 0.0
C87 C 0.27384 0.86958 0.10946 0.0
C88 C 0.28167 0.87125 0.07429 0.0
C89 C 0.2828 0.86831 0.96319 0.0
H90 H 0.27994 0.87099 0.92789 0.0
H91 H 0.28142 0.86102 0.9502 0.0
H92 H 0.2907 0.8733 0.96698 0.0
O93 O 0.25273 0.8668 0.95159 0.0
O94 O 0.24905 0.8699 0.04014 0.0
H95 H 0.27174 0.87718 0.18039 0.0
H96 H 0.2813 0.87444 0.19353 0.0
C97 C 0.27406 0.87176 0.17376 0.0
H98 H 0.26901 0.86506 0.19733 0.0
H99 H 0.25362 0.87878 0.16352 0.0
O100 O 0.26359 0.85726 0.89076 0.0
C101 C 0.24945 0.87096 0.98442 0.0
Co102 Co 0.3997 0.13929 0.03718 0.0
Co103 Co 0.38979 0.13451 0.91424 0.0
C104 C 0.39949 0.15466 0.96566 0.0
O105 O 0.40209 0.1521 0.01202 0.0
O106 O 0.39466 0.14857 0.92551 0.0
C107 C 0.4113 0.14821 0.14066 0.0
O108 O 0.41299 0.15644 0.11735 0.0
C109 C 0.39111 0.13658 0.78828 0.0
C110 C 0.37801 0.12347 0.75697 0.0
C111 C 0.38642 0.13156 0.73789 0.0
N112 N 0.38577 0.13168 0.83495 0.0
N113 N 0.37785 0.12394 0.81614 0.0
C114 C 0.40108 0.1452 0.79294 0.0
H115 H 0.40415 0.1456 0.83736 0.0
H116 H 0.40593 0.14488 0.75913 0.0
H117 H 0.40068 0.15186 0.78557 0.0
C118 C 0.41121 0.13167 0.98089 0.0
N119 N 0.40414 0.13393 0.97991 0.0
N120 N 0.39965 0.13139 0.92893 0.0
C121 C 0.40354 0.12713 0.89634 0.0
C122 C 0.41107 0.12728 0.92785 0.0
C123 C 0.41817 0.13409 0.03077 0.0
H124 H 0.42038 0.14142 0.04767 0.0
H125 H 0.42472 0.13385 0.01698 0.0
H126 H 0.41454 0.12884 0.06707 0.0
O127 O 0.38566 0.1306 0.05312 0.0
O128 O 0.37856 0.12691 0.96559 0.0
H129 H 0.40141 0.11644 0.83066 0.0
H130 H 0.40272 0.12756 0.8025 0.0
C131 C 0.39957 0.12219 0.83861 0.0
H132 H 0.3916 0.11888 0.83798 0.0
H133 H 0.37258 0.11875 0.84372 0.0
O134 O 0.40619 0.14037 0.1127 0.0
C135 C 0.37809 0.12617 0.02141 0.0
Co136 Co 0.8578 0.25957 0.04225 0.0
Co137 Co 0.86204 0.25387 0.91933 0.0
C138 C 0.84193 0.24447 0.97066 0.0
O139 O 0.84475 0.24964 0.01692 0.0
O140 O 0.84789 0.24535 0.93054 0.0
C141 C 0.84922 0.26288 0.14517 0.0
O142 O 0.84087 0.25672 0.12132 0.0
C143 C 0.85989 0.25267 0.79313 0.0
C144 C 0.87296 0.25248 0.76294 0.0
C145 C 0.8649 0.25279 0.74308 0.0
N146 N 0.86478 0.25238 0.84029 0.0
N147 N 0.87249 0.25207 0.82215 0.0
C148 C 0.85133 0.25413 0.7969 0.0
H149 H 0.85108 0.25715 0.84043 0.0
H150 H 0.85158 0.25906 0.76163 0.0
H151 H 0.84461 0.24704 0.79141 0.0
C152 C 0.86696 0.27887 0.98684 0.0
N153 N 0.86378 0.26931 0.98506 0.0
N154 N 0.86597 0.26708 0.9338 0.0
C155 C 0.87086 0.27524 0.90168 0.0
C156 C 0.87156 0.28293 0.93413 0.0
C157 C 0.86604 0.284 0.0394 0.0
H158 H 0.86995 0.28309 0.07705 0.0
H159 H 0.8583 0.28066 0.0519 0.0
H160 H 0.86905 0.29183 0.03091 0.0
O161 O 0.86581 0.25349 0.05876 0.0
O162 O 0.86911 0.24963 0.97138 0.0
H163 H 0.87839 0.27135 0.83912 0.0
H164 H 0.87986 0.28319 0.8271 0.0
C165 C 0.87472 0.27567 0.84097 0.0
H166 H 0.86863 0.27261 0.80928 0.0
H167 H 0.87767 0.25206 0.85016 0.0
O168 O 0.857 0.2652 0.11757 0.0
C169 C 0.86986 0.24993 0.02722 0.0
Co170 Co 0.73701 0.59795 0.03921 0.0
Co171 Co 0.74154 0.60754 0.91535 0.0
C172 C 0.75289 0.59885 0.96872 0.0
O173 O 0.74777 0.59603 0.01515 0.0
O174 O 0.75124 0.6034 0.92855 0.0
C175 C 0.73418 0.58605 0.14153 0.0
O176 O 0.74051 0.5841 0.11757 0.0
C177 C 0.74155 0.60535 0.78932 0.0
C178 C 0.74159 0.61837 0.75572 0.0
C179 C 0.74087 0.60971 0.73825 0.0
N180 N 0.74232 0.61101 0.83503 0.0
N181 N 0.74251 0.61887 0.81478 0.0
C182 C 0.74149 0.59596 0.79517 0.0
H183 H 0.747 0.59671 0.82751 0.0
H184 H 0.73433 0.59029 0.81164 0.0
H185 H 0.74306 0.59363 0.75258 0.0
C186 C 0.71775 0.58603 0.98573 0.0
N187 N 0.7271 0.59303 0.98268 0.0
N188 N 0.72875 0.59742 0.9315 0.0
C189 C 0.72038 0.59356 0.90105 0.0
C190 C 0.71322 0.58615 0.93412 0.0
C191 C 0.71315 0.5798 0.03856 0.0
H192 H 0.71317 0.58438 0.07538 0.0
H193 H 0.71745 0.57643 0.05244 0.0
H194 H 0.70559 0.57407 0.02943 0.0
O195 O 0.74187 0.61195 0.0533 0.0
O196 O 0.74476 0.61885 0.96514 0.0
H197 H 0.72347 0.60521 0.84157 0.0
H198 H 0.71134 0.59503 0.83562 0.0
C199 C 0.71904 0.59722 0.84316 0.0
H200 H 0.72132 0.59413 0.80714 0.0
H201 H 0.74288 0.62438 0.84136 0.0
O202 O 0.73178 0.59151 0.11477 0.0
C203 C 0.7446 0.61941 0.021 0.0
Co204 Co 0.85766 0.59775 0.03028 0.0
Co205 Co 0.86221 0.60757 0.90685 0.0
C206 C 0.84236 0.59861 0.96206 0.0
O207 O 0.84488 0.59588 0.00799 0.0
O208 O 0.84838 0.60316 0.92116 0.0
C209 C 0.84876 0.58566 0.13213 0.0
O210 O 0.84046 0.58358 0.10797 0.0
C211 C 0.85969 0.6057 0.78089 0.0
C212 C 0.87269 0.61867 0.74716 0.0
C213 C 0.86465 0.6101 0.72967 0.0
N214 N 0.86472 0.61125 0.82665 0.0
N215 N 0.87239 0.6191 0.80633 0.0
C216 C 0.85033 0.59635 0.78696 0.0
H217 H 0.84545 0.59732 0.81724 0.0
H218 H 0.85173 0.59078 0.80635 0.0
H219 H 0.84659 0.59377 0.74409 0.0
C220 C 0.86531 0.5863 0.97423 0.0
N221 N 0.86261 0.59305 0.97215 0.0
N222 N 0.86514 0.59755 0.92118 0.0
C223 C 0.86982 0.59397 0.88969 0.0
C224 C 0.86997 0.58668 0.92206 0.0
C225 C 0.86423 0.58031 0.02736 0.0
H226 H 0.86866 0.58512 0.06376 0.0
H227 H 0.85657 0.57649 0.04184 0.0
H228 H 0.86657 0.57495 0.0185 0.0
O229 O 0.86691 0.61167 0.045 0.0
O230 O 0.87016 0.61886 0.9575 0.0
H231 H 0.87813 0.6057 0.83024 0.0
H232 H 0.87965 0.59533 0.81941 0.0
C233 C 0.8744 0.59769 0.83076 0.0
H234 H 0.86871 0.59485 0.79646 0.0
H235 H 0.87763 0.62451 0.8329 0.0
O236 O 0.8566 0.59121 0.10536 0.0
C237 C 0.87127 0.61923 0.01313 0.0
Co238 Co 0.3998 0.25952 0.03373 0.0
Co239 Co 0.3897 0.25405 0.91119 0.0
C240 C 0.39969 0.24392 0.96244 0.0
O241 O 0.40235 0.2492 0.00832 0.0
O242 O 0.39471 0.245 0.92254 0.0
C243 C 0.41139 0.26226 0.13724 0.0
O244 O 0.41304 0.25568 0.11409 0.0
C245 C 0.39061 0.25288 0.78507 0.0
C246 C 0.37753 0.25307 0.75496 0.0
C247 C 0.38581 0.25318 0.73507 0.0
N248 N 0.38546 0.25267 0.83225 0.0
N249 N 0.37755 0.25259 0.81416 0.0
C250 C 0.40052 0.25408 0.7888 0.0
H251 H 0.40378 0.25691 0.83261 0.0
H252 H 0.4053 0.25904 0.75398 0.0
H253 H 0.39996 0.24692 0.78247 0.0
C254 C 0.41062 0.2787 0.97763 0.0
N255 N 0.40389 0.26925 0.9763 0.0
N256 N 0.39955 0.2671 0.92473 0.0
C257 C 0.40337 0.2752 0.89164 0.0
C258 C 0.41054 0.28275 0.92392 0.0
C259 C 0.41706 0.28364 0.02917 0.0
H260 H 0.42039 0.27936 0.04436 0.0
H261 H 0.42284 0.29108 0.01799 0.0
H262 H 0.41264 0.28395 0.06591 0.0
O263 O 0.38583 0.254 0.05061 0.0
O264 O 0.37851 0.25037 0.96374 0.0
H265 H 0.40194 0.28357 0.82155 0.0
H266 H 0.40291 0.27333 0.79831 0.0
C267 C 0.39977 0.27597 0.83215 0.0
H268 H 0.39179 0.27152 0.8305 0.0
H269 H 0.37243 0.2527 0.84222 0.0
O270 O 0.40636 0.26505 0.10895 0.0
C271 C 0.37819 0.25073 0.01963 0.0
Co272 Co 0.73787 0.13895 0.02776 0.0
Co273 Co 0.74395 0.13561 0.90375 0.0
C274 C 0.75356 0.15522 0.96256 0.0
O275 O 0.74811 0.15214 0.00756 0.0
O276 O 0.75273 0.14953 0.92082 0.0
C277 C 0.73329 0.14688 0.12856 0.0
O278 O 0.73861 0.15531 0.10305 0.0
C279 C 0.74486 0.13869 0.77826 0.0
C280 C 0.74587 0.12634 0.74284 0.0
C281 C 0.74478 0.1341 0.72638 0.0
N282 N 0.74564 0.1337 0.82334 0.0
N283 N 0.74644 0.12643 0.80203 0.0
C284 C 0.74422 0.14769 0.7856 0.0
H285 H 0.74989 0.15268 0.81653 0.0
H286 H 0.73711 0.14582 0.80487 0.0
H287 H 0.74524 0.15153 0.74322 0.0
C288 C 0.71891 0.13095 0.96908 0.0
N289 N 0.72839 0.13378 0.96861 0.0
N290 N 0.73077 0.13195 0.91673 0.0
C291 C 0.72276 0.12767 0.88277 0.0
C292 C 0.71505 0.12703 0.91458 0.0
C293 C 0.71378 0.13223 0.02043 0.0
H294 H 0.71805 0.13974 0.03725 0.0
H295 H 0.70643 0.13075 0.00838 0.0
H296 H 0.71322 0.12725 0.05628 0.0
O297 O 0.74358 0.13053 0.04109 0.0
O298 O 0.74764 0.12775 0.95282 0.0
H299 H 0.71472 0.11746 0.81376 0.0
H300 H 0.72424 0.12901 0.7892 0.0
C301 C 0.72219 0.12336 0.82334 0.0
H302 H 0.72715 0.1204 0.82101 0.0
H303 H 0.74692 0.12129 0.82791 0.0
O304 O 0.73195 0.13924 0.10297 0.0
C305 C 0.74709 0.12656 0.0084 0.0
Co306 Co 0.59612 0.85646 0.95981 0.0
Co307 Co 0.60662 0.86227 0.08105 0.0
C308 C 0.59632 0.84165 0.03677 0.0
O309 O 0.59349 0.84377 0.98961 0.0
O310 O 0.60146 0.84813 0.07424 0.0
C311 C 0.58556 0.84717 0.85431 0.0
O312 O 0.58528 0.83939 0.87564 0.0
C313 C 0.60603 0.86075 0.20729 0.0
C314 C 0.61888 0.87432 0.23598 0.0
C315 C 0.61084 0.86603 0.25672 0.0
N316 N 0.61096 0.86568 0.15955 0.0
N317 N 0.61874 0.87371 0.17677 0.0
C318 C 0.59623 0.85185 0.20471 0.0
H319 H 0.5927 0.85139 0.16183 0.0
H320 H 0.59154 0.85182 0.24088 0.0
H321 H 0.59705 0.84538 0.20954 0.0
C322 C 0.58566 0.8656 0.0116 0.0
N323 N 0.59226 0.86271 0.01463 0.0
N324 N 0.59691 0.86553 0.06501 0.0
C325 C 0.59354 0.8705 0.09529 0.0
C326 C 0.58628 0.87065 0.06254 0.0
C327 C 0.57934 0.86402 0.9593 0.0
H328 H 0.58395 0.86786 0.92079 0.0
H329 H 0.57525 0.85619 0.94855 0.0
H330 H 0.57422 0.8667 0.96714 0.0
O331 O 0.6101 0.86468 0.94117 0.0
O332 O 0.61768 0.86922 0.02711 0.0
H333 H 0.60516 0.87912 0.15453 0.0
H334 H 0.59435 0.8798 0.16757 0.0
C335 C 0.59715 0.87496 0.15459 0.0
H336 H 0.59471 0.86916 0.18803 0.0
H337 H 0.62371 0.87896 0.14813 0.0
O338 O 0.5894 0.85489 0.88455 0.0
C339 C 0.61785 0.86935 0.97108 0.0
Co340 Co 0.1374 0.73697 0.95212 0.0
Co341 Co 0.13273 0.74244 0.07455 0.0
C342 C 0.15277 0.75288 0.02039 0.0
O343 O 0.15032 0.74753 0.97492 0.0
O344 O 0.14663 0.75163 0.06014 0.0
C345 C 0.14605 0.73355 0.84999 0.0
O346 O 0.1544 0.73966 0.87408 0.0
C347 C 0.1354 0.74345 0.20043 0.0
C348 C 0.12245 0.74352 0.23417 0.0
C349 C 0.13051 0.74302 0.25171 0.0
N350 N 0.13031 0.74384 0.15463 0.0
N351 N 0.12267 0.74408 0.17494 0.0
C352 C 0.14475 0.74344 0.19427 0.0
H353 H 0.14343 0.73667 0.17239 0.0
H354 H 0.14835 0.74423 0.23731 0.0
H355 H 0.14976 0.74956 0.16596 0.0
C356 C 0.12946 0.7179 0.00954 0.0
N357 N 0.13209 0.72733 0.01038 0.0
N358 N 0.12958 0.72942 0.06102 0.0
C359 C 0.12498 0.72128 0.09349 0.0
C360 C 0.12486 0.71376 0.06213 0.0
C361 C 0.13077 0.71289 0.95768 0.0
H362 H 0.12646 0.71317 0.92017 0.0
H363 H 0.13849 0.71676 0.94423 0.0
H364 H 0.12844 0.70522 0.9675 0.0
O365 O 0.1287 0.74229 0.93651 0.0
O366 O 0.12492 0.74588 0.02335 0.0
H367 H 0.11701 0.72496 0.15403 0.0
H368 H 0.11548 0.7131 0.1658 0.0
C369 C 0.1207 0.72065 0.15315 0.0
H370 H 0.12656 0.72358 0.18638 0.0
H371 H 0.11739 0.74419 0.14836 0.0
O372 O 0.13826 0.73133 0.8771 0.0
C373 C 0.12422 0.74547 0.96745 0.0
Co374 Co 0.25902 0.39994 0.95471 0.0
Co375 Co 0.25341 0.38992 0.07731 0.0
C376 C 0.24271 0.39904 0.02017 0.0
O377 O 0.24823 0.40198 0.97544 0.0
O378 O 0.24392 0.39426 0.06087 0.0
C379 C 0.2626 0.41201 0.85266 0.0
O380 O 0.25651 0.41428 0.87666 0.0
C381 C 0.25293 0.39213 0.203 0.0
C382 C 0.25188 0.37871 0.23785 0.0
C383 C 0.2531 0.3876 0.25465 0.0
N384 N 0.25198 0.38632 0.1577 0.0
N385 N 0.25118 0.37823 0.17869 0.0
C386 C 0.2537 0.40183 0.19624 0.0
H387 H 0.24892 0.40163 0.16035 0.0
H388 H 0.26122 0.40731 0.18436 0.0
H389 H 0.25165 0.40408 0.2375 0.0
C390 C 0.27773 0.41186 0.015 0.0
N391 N 0.26846 0.40465 0.0142 0.0
N392 N 0.26636 0.39999 0.06458 0.0
C393 C 0.27439 0.40383 0.09826 0.0
C394 C 0.2818 0.4116 0.06846 0.0
C395 C 0.28239 0.41901 0.96611 0.0
H396 H 0.27716 0.42096 0.94758 0.0
H397 H 0.28891 0.42567 0.98158 0.0
H398 H 0.2845 0.41565 0.93055 0.0
O399 O 0.25404 0.3859 0.94017 0.0
O400 O 0.25042 0.37869 0.02748 0.0
H401 H 0.28289 0.40092 0.16011 0.0
H402 H 0.27358 0.40262 0.19224 0.0
C403 C 0.27537 0.39943 0.15428 0.0
H404 H 0.27043 0.3915 0.15397 0.0
H405 H 0.25057 0.37257 0.15258 0.0
O406 O 0.26476 0.40639 0.87974 0.0
C407 C 0.25097 0.37832 0.97172 0.0
Co408 Co 0.8055 0.73345 0.29136 0.0
Co409 Co 0.80067 0.72339 0.41401 0.0
C410 C 0.82068 0.73256 0.35975 0.0
O411 O 0.81829 0.73549 0.31418 0.0
O412 O 0.81454 0.7278 0.39973 0.0
C413 C 0.81434 0.74541 0.18901 0.0
O414 O 0.82264 0.74742 0.21277 0.0
C415 C 0.80314 0.72521 0.54003 0.0
C416 C 0.79023 0.71212 0.5735 0.0
C417 C 0.7982 0.72074 0.59117 0.0
N418 N 0.79816 0.71965 0.49415 0.0
N419 N 0.79055 0.71174 0.51432 0.0
C420 C 0.81243 0.73464 0.53419 0.0
H421 H 0.81729 0.73384 0.50292 0.0
H422 H 0.81092 0.74021 0.51621 0.0
H423 H 0.81623 0.73712 0.57696 0.0
C424 C 0.79764 0.74472 0.34755 0.0
N425 N 0.80036 0.73799 0.34936 0.0
N426 N 0.79775 0.7334 0.40003 0.0
C427 C 0.79299 0.73689 0.4315 0.0
C428 C 0.79287 0.74423 0.3995 0.0
C429 C 0.79884 0.75086 0.29493 0.0
H430 H 0.79442 0.74615 0.25813 0.0
H431 H 0.80652 0.75464 0.28076 0.0
H432 H 0.79656 0.75625 0.30425 0.0
O433 O 0.79649 0.71948 0.27607 0.0
O434 O 0.79265 0.71217 0.36308 0.0
H435 H 0.78468 0.72504 0.49017 0.0
H436 H 0.78296 0.73527 0.50111 0.0
C437 C 0.78831 0.73304 0.49005 0.0
H438 H 0.79392 0.7359 0.52481 0.0
H439 H 0.78535 0.7063 0.48764 0.0
O440 O 0.80651 0.73998 0.21629 0.0
C441 C 0.79188 0.71187 0.30721 0.0
Co442 Co 0.26363 0.07094 0.29065 0.0
Co443 Co 0.27374 0.07692 0.4129 0.0
C444 C 0.26399 0.08701 0.35572 0.0
O445 O 0.26117 0.08147 0.3111 0.0
O446 O 0.26894 0.08604 0.3963 0.0
C447 C 0.25148 0.06696 0.1885 0.0
O448 O 0.24897 0.07287 0.21238 0.0
C449 C 0.27153 0.0774 0.5386 0.0
C450 C 0.28515 0.07893 0.5734 0.0
C451 C 0.27615 0.07743 0.59024 0.0
N452 N 0.27738 0.07851 0.49326 0.0
N453 N 0.28559 0.0796 0.51422 0.0
C454 C 0.26168 0.0763 0.53188 0.0
H455 H 0.25638 0.06873 0.5198 0.0
H456 H 0.2593 0.0782 0.5732 0.0
H457 H 0.26171 0.08102 0.49613 0.0
C458 C 0.25217 0.05223 0.35174 0.0
N459 N 0.25921 0.06157 0.35047 0.0
N460 N 0.26395 0.06383 0.40062 0.0
C461 C 0.26033 0.05585 0.43461 0.0
C462 C 0.25263 0.04828 0.40527 0.0
C463 C 0.24497 0.04739 0.3033 0.0
H464 H 0.2429 0.0525 0.28439 0.0
H465 H 0.23838 0.04085 0.31937 0.0
H466 H 0.24834 0.04527 0.26788 0.0
O467 O 0.27771 0.07626 0.27597 0.0
O468 O 0.28504 0.08023 0.36288 0.0
H469 H 0.26362 0.04764 0.4966 0.0
H470 H 0.26163 0.05678 0.52854 0.0
C471 C 0.26488 0.05509 0.49056 0.0
H472 H 0.27278 0.0602 0.48995 0.0
H473 H 0.29132 0.08039 0.48808 0.0
O474 O 0.25725 0.06501 0.21577 0.0
C475 C 0.28536 0.07959 0.30715 0.0
Co476 Co 0.92476 0.19059 0.30173 0.0
Co477 Co 0.92013 0.19597 0.42443 0.0
C478 C 0.90951 0.17557 0.37544 0.0
O479 O 0.91453 0.17781 0.32861 0.0
O480 O 0.91093 0.18192 0.41409 0.0
C481 C 0.92718 0.18163 0.19729 0.0
O482 O 0.92038 0.1734 0.2192 0.0
C483 C 0.9201 0.19423 0.5507 0.0
C484 C 0.92025 0.20741 0.58224 0.0
C485 C 0.9209 0.19949 0.60098 0.0
N486 N 0.91935 0.19899 0.50419 0.0
N487 N 0.91926 0.20677 0.52322 0.0
C488 C 0.92005 0.18484 0.54612 0.0
H489 H 0.91375 0.17966 0.51966 0.0
H490 H 0.92667 0.18601 0.523 0.0
H491 H 0.91953 0.18152 0.5898 0.0
C492 C 0.94425 0.19906 0.35371 0.0
N493 N 0.93481 0.19635 0.35712 0.0
N494 N 0.93307 0.19915 0.40784 0.0
C495 C 0.94147 0.20403 0.43776 0.0
C496 C 0.94877 0.20403 0.40464 0.0
C497 C 0.9489 0.1975 0.30088 0.0
H498 H 0.94842 0.20167 0.26329 0.0
H499 H 0.94491 0.18973 0.28861 0.0
H500 H 0.95662 0.19982 0.30896 0.0
O501 O 0.9192 0.19907 0.28585 0.0
O502 O 0.91622 0.20337 0.37284 0.0
H503 H 0.93825 0.21244 0.49753 0.0
H504 H 0.9502 0.21406 0.50653 0.0
C505 C 0.94255 0.20874 0.49645 0.0
H506 H 0.93988 0.20314 0.53125 0.0
H507 H 0.91893 0.21184 0.49579 0.0
O508 O 0.93003 0.1894 0.22618 0.0
C509 C 0.91621 0.20371 0.31683 0.0
Co510 Co 0.06531 0.47227 0.37102 0.0
Co511 Co 0.05567 0.46651 0.24729 0.0
C512 C 0.06506 0.487 0.29437 0.0
O513 O 0.06771 0.48491 0.34227 0.0
O514 O 0.06032 0.48055 0.25584 0.0
C515 C 0.0773 0.48191 0.47199 0.0
O516 O 0.07989 0.48999 0.44325 0.0
C517 C 0.05785 0.46911 0.12236 0.0
C518 C 0.04518 0.45613 0.08582 0.0
C519 C 0.05354 0.46456 0.07001 0.0
N520 N 0.0523 0.46367 0.16698 0.0
N521 N 0.04467 0.45595 0.14511 0.0
C522 C 0.06761 0.47789 0.13064 0.0
H523 H 0.07062 0.47775 0.17442 0.0
H524 H 0.0727 0.47834 0.09581 0.0
H525 H 0.06691 0.48445 0.12812 0.0
C526 C 0.07704 0.46439 0.32135 0.0
N527 N 0.06995 0.4666 0.31733 0.0
N528 N 0.06558 0.46366 0.26618 0.0
C529 C 0.06959 0.45922 0.23657 0.0
C530 C 0.07701 0.45964 0.27036 0.0
C531 C 0.08346 0.46653 0.37379 0.0
H532 H 0.07901 0.46241 0.4122 0.0
H533 H 0.08691 0.47434 0.3846 0.0
H534 H 0.08913 0.46457 0.3659 0.0
O535 O 0.05126 0.46362 0.3852 0.0
O536 O 0.04419 0.45905 0.29772 0.0
H537 H 0.0584 0.4507 0.1745 0.0
H538 H 0.06908 0.44955 0.16806 0.0
C539 C 0.0664 0.45463 0.17722 0.0
H540 H 0.06934 0.46034 0.14299 0.0
H541 H 0.03928 0.45046 0.17058 0.0
O542 O 0.07154 0.47386 0.44806 0.0
C543 C 0.04372 0.45883 0.35372 0.0
Co544 Co 0.52358 0.59154 0.36184 0.0
Co545 Co 0.52902 0.58713 0.2387 0.0
C546 C 0.50863 0.5763 0.28749 0.0
O547 O 0.51084 0.58127 0.33457 0.0
O548 O 0.51499 0.57782 0.24873 0.0
C549 C 0.51447 0.59382 0.46607 0.0
O550 O 0.50627 0.58702 0.44386 0.0
C551 C 0.52725 0.58708 0.11247 0.0
C552 C 0.54058 0.58756 0.08085 0.0
C553 C 0.53255 0.588 0.06216 0.0
N554 N 0.53209 0.58645 0.15893 0.0
N555 N 0.53997 0.58655 0.13986 0.0
C556 C 0.51774 0.58679 0.11715 0.0
H557 H 0.51872 0.59325 0.14153 0.0
H558 H 0.51447 0.58641 0.07347 0.0
H559 H 0.5126 0.58032 0.1425 0.0
C560 C 0.53202 0.61111 0.31091 0.0
N561 N 0.5293 0.60167 0.30689 0.0
N562 N 0.53207 0.60001 0.25581 0.0
C563 C 0.53689 0.60844 0.22619 0.0
C564 C 0.53693 0.6157 0.25996 0.0
C565 C 0.53054 0.61569 0.36439 0.0
H566 H 0.53468 0.61505 0.40166 0.0
H567 H 0.52277 0.61176 0.37666 0.0
H568 H 0.53296 0.62345 0.35711 0.0
O569 O 0.53217 0.58608 0.37748 0.0
O570 O 0.5365 0.58329 0.29003 0.0
H571 H 0.54541 0.60547 0.16577 0.0
H572 H 0.54663 0.61727 0.15644 0.0
C573 C 0.54151 0.60959 0.16711 0.0
H574 H 0.53583 0.60672 0.13281 0.0
H575 H 0.54511 0.58636 0.16726 0.0
O576 O 0.52227 0.59669 0.43752 0.0
C577 C 0.53686 0.5832 0.34602 0.0
Co578 Co 0.40495 0.93244 0.36477 0.0
Co579 Co 0.41114 0.9411 0.23854 0.0
C580 C 0.42063 0.9314 0.29887 0.0
O581 O 0.41532 0.92957 0.34419 0.0
O582 O 0.41979 0.93588 0.25509 0.0
C583 C 0.40055 0.91954 0.46296 0.0
O584 O 0.40473 0.91575 0.43145 0.0
C585 C 0.41352 0.93974 0.113 0.0
C586 C 0.41266 0.95218 0.07774 0.0
C587 C 0.4133 0.94417 0.06093 0.0
N588 N 0.41291 0.94483 0.15817 0.0
N589 N 0.41261 0.95238 0.13698 0.0
C590 C 0.41293 0.93012 0.12018 0.0
H591 H 0.40975 0.92689 0.1635 0.0
H592 H 0.40847 0.92505 0.08482 0.0
H593 H 0.42033 0.93113 0.11775 0.0
C594 C 0.38572 0.92229 0.30879 0.0
N595 N 0.39537 0.92814 0.30622 0.0
N596 N 0.39788 0.93163 0.2526 0.0
C597 C 0.38985 0.92793 0.21879 0.0
C598 C 0.38187 0.92192 0.25338 0.0
C599 C 0.38031 0.91798 0.36479 0.0
H600 H 0.38326 0.92347 0.40034 0.0
H601 H 0.38136 0.91187 0.37794 0.0
H602 H 0.37247 0.91535 0.36009 0.0
O603 O 0.41036 0.94644 0.37661 0.0
O604 O 0.41511 0.95285 0.28752 0.0
H605 H 0.39293 0.93773 0.14684 0.0
H606 H 0.38263 0.92582 0.1341 0.0
C607 C 0.3899 0.92987 0.15422 0.0
H608 H 0.39452 0.92757 0.13132 0.0
H609 H 0.41189 0.95739 0.16283 0.0
O610 O 0.39955 0.92633 0.44139 0.0
C611 C 0.41418 0.95374 0.34252 0.0
Co612 Co 0.5245 0.93001 0.37939 0.0
Co613 Co 0.52834 0.93957 0.25525 0.0
C614 C 0.50851 0.92951 0.31089 0.0
O615 O 0.51144 0.92717 0.3567 0.0
O616 O 0.51432 0.93433 0.26961 0.0
C617 C 0.51594 0.91743 0.47926 0.0
O618 O 0.50779 0.91402 0.44987 0.0
C619 C 0.52506 0.9377 0.13014 0.0
C620 C 0.53764 0.9508 0.09403 0.0
C621 C 0.52943 0.94226 0.07784 0.0
N622 N 0.53045 0.94325 0.17495 0.0
N623 N 0.53788 0.95116 0.15331 0.0
C624 C 0.51662 0.9277 0.13809 0.0
H625 H 0.51689 0.92479 0.18196 0.0
H626 H 0.51654 0.92276 0.10336 0.0
H627 H 0.50982 0.92796 0.13505 0.0
C628 C 0.53302 0.91932 0.32293 0.0
N629 N 0.52996 0.92579 0.32138 0.0
N630 N 0.53201 0.93009 0.26971 0.0
C631 C 0.53668 0.92663 0.23707 0.0
C632 C 0.53738 0.91965 0.26959 0.0
C633 C 0.53232 0.91345 0.37601 0.0
H634 H 0.53631 0.91839 0.41301 0.0
H635 H 0.52462 0.90905 0.3894 0.0
H636 H 0.53534 0.90864 0.3676 0.0
O637 O 0.53289 0.94409 0.39314 0.0
O638 O 0.53597 0.95108 0.30523 0.0
H639 H 0.54409 0.93795 0.17371 0.0
H640 H 0.54553 0.92755 0.16193 0.0
C641 C 0.54042 0.92996 0.17603 0.0
H642 H 0.53427 0.92688 0.14479 0.0
H643 H 0.54331 0.95659 0.1789 0.0
O644 O 0.52377 0.92384 0.45577 0.0
C645 C 0.53698 0.95163 0.36096 0.0
Co646 Co 0.06636 0.59142 0.36411 0.0
Co647 Co 0.05651 0.58724 0.24105 0.0
C648 C 0.06618 0.57642 0.28689 0.0
O649 O 0.0688 0.58123 0.33462 0.0
O650 O 0.06135 0.578 0.24827 0.0
C651 C 0.07736 0.5929 0.46852 0.0
O652 O 0.07816 0.58576 0.446 0.0
C653 C 0.05751 0.58662 0.11489 0.0
C654 C 0.04498 0.58784 0.08509 0.0
C655 C 0.05296 0.5874 0.06509 0.0
N656 N 0.05248 0.58662 0.16214 0.0
N657 N 0.0449 0.58718 0.14425 0.0
C658 C 0.06716 0.5872 0.11845 0.0
H659 H 0.0706 0.59012 0.16178 0.0
H660 H 0.07204 0.59186 0.0829 0.0
H661 H 0.06614 0.57983 0.11336 0.0
C662 C 0.07741 0.61112 0.31453 0.0
N663 N 0.07069 0.60169 0.31007 0.0
N664 N 0.06634 0.60008 0.25875 0.0
C665 C 0.07004 0.60852 0.22921 0.0
C666 C 0.07719 0.61575 0.26349 0.0
C667 C 0.0834 0.61563 0.36833 0.0
H668 H 0.07856 0.61473 0.40583 0.0
H669 H 0.08741 0.61184 0.3797 0.0
H670 H 0.08859 0.62345 0.36194 0.0
O671 O 0.05233 0.58589 0.38074 0.0
O672 O 0.04526 0.58319 0.29325 0.0
H673 H 0.06989 0.61735 0.15684 0.0
H674 H 0.06922 0.60621 0.13631 0.0
C675 C 0.0668 0.60966 0.16932 0.0
H676 H 0.0588 0.60603 0.16803 0.0
H677 H 0.03993 0.58754 0.17245 0.0
O678 O 0.07293 0.59635 0.43989 0.0
C679 C 0.04478 0.58301 0.34921 0.0
Co680 Co 0.40377 0.47362 0.37269 0.0
Co681 Co 0.40785 0.46724 0.25161 0.0
C682 C 0.41896 0.48794 0.29468 0.0
O683 O 0.41411 0.48607 0.3421 0.0
O684 O 0.4173 0.48131 0.2575 0.0
C685 C 0.40314 0.48321 0.47847 0.0
O686 O 0.41092 0.49076 0.45742 0.0
C687 C 0.40851 0.46857 0.12545 0.0
C688 C 0.4073 0.45478 0.09671 0.0
C689 C 0.40781 0.4632 0.07603 0.0
N690 N 0.40842 0.46359 0.17315 0.0
N691 N 0.40785 0.45541 0.15591 0.0
C692 C 0.40801 0.47769 0.12813 0.0
H693 H 0.40501 0.47827 0.17104 0.0
H694 H 0.40345 0.47792 0.09196 0.0
H695 H 0.41541 0.48399 0.12343 0.0
C696 C 0.38422 0.46539 0.32165 0.0
N697 N 0.39355 0.46769 0.31849 0.0
N698 N 0.39508 0.46455 0.26834 0.0
C699 C 0.38665 0.4599 0.23854 0.0
C700 C 0.37956 0.46037 0.27117 0.0
C701 C 0.37983 0.46758 0.3733 0.0
H702 H 0.38002 0.46344 0.41206 0.0
H703 H 0.38419 0.47539 0.38415 0.0
H704 H 0.37223 0.46564 0.36454 0.0
O705 O 0.40907 0.465 0.39133 0.0
O706 O 0.41165 0.46004 0.30553 0.0
H707 H 0.3891 0.45078 0.18029 0.0
H708 H 0.3776 0.4502 0.16959 0.0
C709 C 0.38536 0.45504 0.18019 0.0
H710 H 0.38857 0.46061 0.14528 0.0
H711 H 0.40743 0.4501 0.18453 0.0
O712 O 0.3989 0.47553 0.44801 0.0
C713 C 0.41181 0.46003 0.36156 0.0
Co714 Co 0.26386 0.19178 0.28799 0.0
Co715 Co 0.27343 0.19582 0.4119 0.0
C716 C 0.26355 0.17593 0.35634 0.0
O717 O 0.26107 0.17874 0.31062 0.0
O718 O 0.26839 0.18183 0.39725 0.0
C719 C 0.25149 0.18339 0.18672 0.0
O720 O 0.24871 0.17499 0.21185 0.0
C721 C 0.27154 0.19307 0.53767 0.0
C722 C 0.28458 0.20594 0.57192 0.0
C723 C 0.27596 0.19792 0.58911 0.0
N724 N 0.27711 0.19815 0.49212 0.0
N725 N 0.285 0.20574 0.51273 0.0
C726 C 0.26216 0.18375 0.53107 0.0
H727 H 0.26333 0.17868 0.50381 0.0
H728 H 0.25684 0.1851 0.50778 0.0
H729 H 0.25918 0.18023 0.57406 0.0
C730 C 0.25306 0.2002 0.34344 0.0
N731 N 0.25956 0.19719 0.34565 0.0
N732 N 0.26387 0.19937 0.39728 0.0
C733 C 0.26039 0.2041 0.42918 0.0
C734 C 0.25338 0.20468 0.39626 0.0
C735 C 0.24721 0.19942 0.29008 0.0
H736 H 0.25216 0.20356 0.25347 0.0
H737 H 0.24299 0.19173 0.27622 0.0
H738 H 0.24222 0.20224 0.29833 0.0
O739 O 0.27796 0.20024 0.27386 0.0
O740 O 0.28489 0.20351 0.362 0.0
H741 H 0.27181 0.21181 0.49154 0.0
H742 H 0.26143 0.21331 0.50243 0.0
C743 C 0.26381 0.20814 0.48956 0.0
H744 H 0.26077 0.20215 0.5219 0.0
H745 H 0.29044 0.211 0.48636 0.0
O746 O 0.25756 0.19112 0.2126 0.0
C747 C 0.28548 0.20443 0.30624 0.0
Co748 Co 0.80613 0.07147 0.28704 0.0
Co749 Co 0.79998 0.07577 0.40831 0.0
C750 C 0.82068 0.08647 0.36514 0.0
O751 O 0.8187 0.0816 0.31773 0.0
O752 O 0.8141 0.08497 0.40232 0.0
C753 C 0.81563 0.07061 0.18138 0.0
O754 O 0.82327 0.07827 0.20262 0.0
C755 C 0.80139 0.07654 0.53452 0.0
C756 C 0.78766 0.07548 0.56324 0.0
C757 C 0.79605 0.07591 0.58394 0.0
N758 N 0.79642 0.07647 0.4868 0.0
N759 N 0.78828 0.076 0.50403 0.0
C760 C 0.81043 0.07588 0.5319 0.0
H761 H 0.81094 0.07283 0.48909 0.0
H762 H 0.8106 0.07131 0.56818 0.0
H763 H 0.8168 0.08325 0.53646 0.0
C764 C 0.79719 0.0518 0.33727 0.0
N765 N 0.79993 0.06124 0.34107 0.0
N766 N 0.79698 0.0629 0.39152 0.0
C767 C 0.79207 0.05448 0.42109 0.0
C768 C 0.7921 0.04721 0.38778 0.0
C769 C 0.79889 0.04724 0.28447 0.0
H770 H 0.79506 0.04806 0.24609 0.0
H771 H 0.80673 0.05107 0.27403 0.0
H772 H 0.79629 0.03944 0.29151 0.0
O773 O 0.79776 0.07707 0.26849 0.0
O774 O 0.79296 0.07981 0.3544 0.0
H775 H 0.78276 0.04572 0.49256 0.0
H776 H 0.79319 0.05685 0.51395 0.0
C777 C 0.78746 0.0534 0.48012 0.0
H778 H 0.78313 0.05708 0.47994 0.0
H779 H 0.78299 0.07562 0.47541 0.0
O780 O 0.80792 0.06652 0.21166 0.0
C781 C 0.79294 0.07997 0.29837 0.0
Co782 Co 0.92566 0.7319 0.2946 0.0
Co783 Co 0.92037 0.72253 0.41948 0.0
C784 C 0.90972 0.7316 0.3635 0.0
O785 O 0.91485 0.73396 0.31705 0.0
O786 O 0.91116 0.72717 0.40535 0.0
C787 C 0.92912 0.74442 0.19517 0.0
O788 O 0.92416 0.74753 0.22502 0.0
C789 C 0.91898 0.72449 0.54446 0.0
C790 C 0.91916 0.71178 0.58137 0.0
C791 C 0.91908 0.72015 0.59703 0.0
N792 N 0.91904 0.719 0.5 0.0
N793 N 0.91898 0.71131 0.52211 0.0
C794 C 0.92008 0.7343 0.53591 0.0
H795 H 0.92315 0.73722 0.49186 0.0
H796 H 0.92483 0.73941 0.57031 0.0
H797 H 0.91286 0.7337 0.53904 0.0
C798 C 0.94482 0.74341 0.35041 0.0
N799 N 0.93538 0.73665 0.35242 0.0
N800 N 0.93335 0.7324 0.40423 0.0
C801 C 0.94152 0.7362 0.43656 0.0
C802 C 0.94902 0.74333 0.40364 0.0
C803 C 0.94979 0.74927 0.29691 0.0
H804 H 0.94898 0.74433 0.2602 0.0
H805 H 0.94624 0.75342 0.28334 0.0
H806 H 0.95759 0.75432 0.30489 0.0
O807 O 0.92084 0.71793 0.28156 0.0
O808 O 0.91675 0.71103 0.36988 0.0
H809 H 0.93816 0.72504 0.50029 0.0
H810 H 0.94974 0.7358 0.51176 0.0
C811 C 0.94216 0.73304 0.49771 0.0
H812 H 0.93886 0.7359 0.52887 0.0
H813 H 0.91922 0.70598 0.49686 0.0
O814 O 0.93084 0.73818 0.21813 0.0
C815 C 0.91751 0.71047 0.31439 0.0
Co816 Co 0.47253 0.0671 0.62388 0.0
Co817 Co 0.46786 0.05712 0.74683 0.0
C818 C 0.48788 0.06656 0.69289 0.0
O819 O 0.48537 0.06926 0.64682 0.0
O820 O 0.4818 0.06184 0.73326 0.0
C821 C 0.48126 0.0791 0.52156 0.0
O822 O 0.4896 0.08117 0.54511 0.0
C823 C 0.4701 0.05904 0.87293 0.0
C824 C 0.45737 0.04575 0.90608 0.0
C825 C 0.46515 0.0545 0.92391 0.0
N826 N 0.4653 0.05339 0.82696 0.0
N827 N 0.45779 0.04537 0.84694 0.0
C828 C 0.47925 0.0686 0.86736 0.0
H829 H 0.4842 0.068 0.83584 0.0
H830 H 0.47756 0.07408 0.8499 0.0
H831 H 0.48304 0.07109 0.91018 0.0
C832 C 0.46489 0.07849 0.68059 0.0
N833 N 0.46738 0.07159 0.68187 0.0
N834 N 0.46472 0.06697 0.73243 0.0
C835 C 0.46011 0.0706 0.76421 0.0
C836 C 0.46023 0.07808 0.73271 0.0
C837 C 0.46646 0.08495 0.62905 0.0
H838 H 0.46189 0.08053 0.59179 0.0
H839 H 0.47413 0.08841 0.61489 0.0
H840 H 0.4646 0.09061 0.63979 0.0
O841 O 0.46358 0.05312 0.60854 0.0
O842 O 0.4602 0.04581 0.69568 0.0
H843 H 0.45191 0.05873 0.82311 0.0
H844 H 0.44951 0.06861 0.83024 0.0
C845 C 0.45521 0.0667 0.82209 0.0
H846 H 0.46059 0.06989 0.858 0.0
H847 H 0.45274 0.03984 0.82014 0.0
O848 O 0.47347 0.07361 0.54892 0.0
C849 C 0.45928 0.0455 0.63992 0.0
Co850 Co 0.92942 0.4046 0.62605 0.0
Co851 Co 0.93924 0.41029 0.74925 0.0
C852 C 0.92891 0.41996 0.69514 0.0
O853 O 0.92639 0.41467 0.64941 0.0
O854 O 0.93393 0.41903 0.73536 0.0
C855 C 0.91718 0.40067 0.52411 0.0
O856 O 0.91451 0.40643 0.54845 0.0
C857 C 0.93746 0.41109 0.87511 0.0
C858 C 0.95067 0.41153 0.90873 0.0
C859 C 0.94199 0.41075 0.92632 0.0
N860 N 0.94304 0.41171 0.8293 0.0
N861 N 0.95102 0.41217 0.84953 0.0
C862 C 0.92797 0.41082 0.86897 0.0
H863 H 0.929 0.41705 0.84207 0.0
H864 H 0.92274 0.40413 0.8455 0.0
H865 H 0.92496 0.41124 0.91212 0.0
C866 C 0.91899 0.38537 0.68181 0.0
N867 N 0.92539 0.39492 0.68369 0.0
N868 N 0.92982 0.39712 0.73492 0.0
C869 C 0.92655 0.38894 0.76682 0.0
C870 C 0.91953 0.38128 0.73437 0.0
C871 C 0.91302 0.38024 0.62897 0.0
H872 H 0.91789 0.38099 0.59198 0.0
H873 H 0.90877 0.38369 0.61538 0.0
H874 H 0.90805 0.37244 0.63774 0.0
O875 O 0.94353 0.41048 0.61098 0.0
O876 O 0.95065 0.41424 0.69855 0.0
H877 H 0.93814 0.39288 0.82821 0.0
H878 H 0.92796 0.38088 0.83943 0.0
C879 C 0.93015 0.3884 0.82681 0.0
H880 H 0.92705 0.39122 0.85964 0.0
H881 H 0.9565 0.41248 0.8229 0.0
O882 O 0.9231 0.39888 0.55081 0.0
C883 C 0.95112 0.4139 0.64271 0.0
Co884 Co 0.59227 0.52458 0.62249 0.0
Co885 Co 0.58615 0.52861 0.74459 0.0
C886 C 0.57639 0.50872 0.68787 0.0
O887 O 0.58193 0.51152 0.64323 0.0
O888 O 0.57725 0.51462 0.72829 0.0
C889 C 0.59642 0.51657 0.52019 0.0
O890 O 0.59058 0.50811 0.5439 0.0
C891 C 0.5858 0.52602 0.87034 0.0
C892 C 0.58391 0.5379 0.905 0.0
C893 C 0.58566 0.53057 0.92193 0.0
N894 N 0.58452 0.53064 0.82495 0.0
N895 N 0.58322 0.53764 0.84582 0.0
C896 C 0.58715 0.51742 0.86372 0.0
H897 H 0.58253 0.51268 0.82782 0.0
H898 H 0.59478 0.51988 0.85196 0.0
H899 H 0.58531 0.51315 0.90502 0.0
C900 C 0.61106 0.53231 0.68311 0.0
N901 N 0.60165 0.52976 0.68213 0.0
N902 N 0.59932 0.53218 0.73224 0.0
C903 C 0.60733 0.53676 0.76596 0.0
C904 C 0.61498 0.53683 0.7364 0.0
C905 C 0.61601 0.53012 0.63457 0.0
H906 H 0.61104 0.52287 0.61597 0.0
H907 H 0.62268 0.53031 0.65042 0.0
H908 H 0.61794 0.53554 0.59897 0.0
O909 O 0.58667 0.53308 0.60758 0.0
O910 O 0.58259 0.53639 0.69426 0.0
H911 H 0.61536 0.54835 0.82765 0.0
H912 H 0.60644 0.53714 0.8599 0.0
C913 C 0.60798 0.54204 0.82183 0.0
H914 H 0.60272 0.54464 0.82132 0.0
H915 H 0.58228 0.54247 0.81964 0.0
O916 O 0.59826 0.52424 0.54762 0.0
C917 C 0.5832 0.5373 0.63849 0.0
Co918 Co 0.73279 0.80604 0.70252 0.0
Co919 Co 0.72332 0.80245 0.57849 0.0
C920 C 0.7336 0.82223 0.6353 0.0
O921 O 0.73591 0.81922 0.68086 0.0
O922 O 0.7287 0.81647 0.59398 0.0
C923 C 0.74532 0.81408 0.80339 0.0
O924 O 0.74846 0.82251 0.77784 0.0
C925 C 0.72527 0.8054 0.45284 0.0
C926 C 0.7121 0.79272 0.41811 0.0
C927 C 0.72079 0.80067 0.4012 0.0
N928 N 0.71964 0.80032 0.49821 0.0
N929 N 0.71168 0.79285 0.47733 0.0
C930 C 0.73474 0.81461 0.45978 0.0
H931 H 0.73366 0.81975 0.48696 0.0
H932 H 0.73995 0.81312 0.48335 0.0
H933 H 0.73782 0.81812 0.41691 0.0
C934 C 0.74332 0.79741 0.64595 0.0
N935 N 0.73692 0.80056 0.64431 0.0
N936 N 0.73265 0.79857 0.5926 0.0
C937 C 0.73603 0.79382 0.56004 0.0
C938 C 0.74296 0.79303 0.59264 0.0
C939 C 0.74914 0.79801 0.69911 0.0
H940 H 0.74416 0.79395 0.7358 0.0
H941 H 0.75354 0.80568 0.713 0.0
H942 H 0.75396 0.795 0.6906 0.0
O943 O 0.71865 0.79781 0.71631 0.0
O944 O 0.71178 0.7949 0.62809 0.0
H945 H 0.72468 0.78651 0.4967 0.0
H946 H 0.73493 0.78479 0.48553 0.0
C947 C 0.73267 0.79004 0.49914 0.0
H948 H 0.73588 0.79614 0.46761 0.0
H949 H 0.70618 0.78762 0.5035 0.0
O950 O 0.739 0.80644 0.77786 0.0
C951 C 0.71114 0.79385 0.68377 0.0
Co952 Co 0.19041 0.92614 0.70832 0.0
Co953 Co 0.19671 0.92221 0.58655 0.0
C954 C 0.17599 0.91122 0.62946 0.0
O955 O 0.17791 0.91597 0.67731 0.0
O956 O 0.1826 0.91288 0.59213 0.0
C957 C 0.18079 0.92695 0.81376 0.0
O958 O 0.17312 0.91934 0.79232 0.0
C959 C 0.19536 0.92176 0.46045 0.0
C960 C 0.20909 0.92287 0.43121 0.0
C961 C 0.20071 0.92247 0.41087 0.0
N962 N 0.20033 0.92173 0.50794 0.0
N963 N 0.20847 0.92225 0.4904 0.0
C964 C 0.1863 0.92236 0.46353 0.0
H965 H 0.18578 0.92534 0.5066 0.0
H966 H 0.1861 0.92696 0.42758 0.0
H967 H 0.17995 0.91498 0.45875 0.0
C968 C 0.19887 0.94582 0.6588 0.0
N969 N 0.19646 0.93646 0.65484 0.0
N970 N 0.19955 0.93499 0.60436 0.0
C971 C 0.20428 0.94346 0.57514 0.0
C972 C 0.20391 0.95054 0.60851 0.0
C973 C 0.19674 0.95017 0.71093 0.0
H974 H 0.20082 0.94983 0.74955 0.0
H975 H 0.18892 0.94588 0.72155 0.0
H976 H 0.1988 0.95782 0.70283 0.0
O977 O 0.1989 0.92065 0.72623 0.0
O978 O 0.20379 0.91818 0.63981 0.0
H979 H 0.2133 0.941 0.51606 0.0
H980 H 0.21398 0.95257 0.50637 0.0
C981 C 0.20909 0.94481 0.51658 0.0
H982 H 0.20349 0.94169 0.48176 0.0
H983 H 0.21376 0.92256 0.51882 0.0
O984 O 0.18855 0.93097 0.78388 0.0
C985 C 0.20379 0.91789 0.69581 0.0
Co986 Co 0.07065 0.26453 0.709 0.0
Co987 Co 0.07608 0.27377 0.58398 0.0
C988 C 0.08621 0.26414 0.64029 0.0
O989 O 0.081 0.26184 0.68633 0.0
O990 O 0.08508 0.26881 0.59864 0.0
C991 C 0.0667 0.25188 0.80835 0.0
O992 O 0.07129 0.24839 0.77814 0.0
C993 C 0.07742 0.27169 0.45904 0.0
C994 C 0.07762 0.28458 0.42197 0.0
C995 C 0.07746 0.27609 0.40641 0.0
N996 N 0.0775 0.27727 0.50343 0.0
N997 N 0.07779 0.28506 0.48122 0.0
C998 C 0.07608 0.26178 0.46775 0.0
H999 H 0.07297 0.25892 0.51183 0.0
H1000 H 0.07126 0.25673 0.43339 0.0
H1001 H 0.08322 0.2622 0.46473 0.0
C1002 C 0.05136 0.25349 0.6537 0.0
N1003 N 0.06087 0.26003 0.65146 0.0
N1004 N 0.06301 0.26417 0.59931 0.0
C1005 C 0.05484 0.26054 0.56701 0.0
C1006 C 0.04724 0.25361 0.60029 0.0
C1007 C 0.0463 0.24776 0.7074 0.0
H1008 H 0.04736 0.25279 0.74407 0.0
H1009 H 0.04958 0.24335 0.72084 0.0
H1010 H 0.03844 0.24296 0.6997 0.0
O1011 O 0.07614 0.27863 0.72171 0.0
O1012 O 0.07979 0.28533 0.63292 0.0
H1013 H 0.05848 0.27164 0.50247 0.0
H1014 H 0.04677 0.26103 0.49131 0.0
C1015 C 0.05431 0.26364 0.50555 0.0
H1016 H 0.0575 0.26061 0.47484 0.0
H1017 H 0.0777 0.29048 0.5064 0.0
O1018 O 0.06538 0.2584 0.78569 0.0
C1019 C 0.07941 0.28605 0.68858 0.0
Co1020 Co 0.19126 0.26421 0.70001 0.0
Co1021 Co 0.19502 0.27414 0.57719 0.0
C1022 C 0.17526 0.26409 0.63459 0.0
O1023 O 0.17817 0.26148 0.6793 0.0
O1024 O 0.18106 0.26904 0.59358 0.0
C1025 C 0.18311 0.25179 0.80114 0.0
O1026 O 0.17469 0.24893 0.77604 0.0
C1027 C 0.19197 0.27234 0.45158 0.0
C1028 C 0.2046 0.28555 0.4169 0.0
C1029 C 0.19665 0.27687 0.39991 0.0
N1030 N 0.19708 0.27793 0.49702 0.0
N1031 N 0.20452 0.28592 0.47616 0.0
C1032 C 0.1828 0.26284 0.45845 0.0
H1033 H 0.17776 0.26376 0.48761 0.0
H1034 H 0.1844 0.25754 0.47972 0.0
H1035 H 0.17912 0.25995 0.41572 0.0
C1036 C 0.19954 0.25356 0.64101 0.0
N1037 N 0.19652 0.26006 0.64061 0.0
N1038 N 0.19864 0.26456 0.5896 0.0
C1039 C 0.20337 0.26124 0.55636 0.0
C1040 C 0.20399 0.2541 0.58768 0.0
C1041 C 0.19881 0.24752 0.69324 0.0
H1042 H 0.20309 0.25233 0.73004 0.0
H1043 H 0.19116 0.24333 0.70777 0.0
H1044 H 0.20153 0.24249 0.68332 0.0
O1045 O 0.19978 0.27827 0.71472 0.0
O1046 O 0.20286 0.28552 0.6276 0.0
H1047 H 0.21088 0.27292 0.49533 0.0
H1048 H 0.21274 0.2628 0.48285 0.0
C1049 C 0.2074 0.26493 0.49631 0.0
H1050 H 0.20144 0.26185 0.46379 0.0
H1051 H 0.20978 0.2914 0.50234 0.0
O1052 O 0.19081 0.25785 0.77492 0.0
C1053 C 0.20392 0.2859 0.68329 0.0
Co1054 Co 0.73198 0.92604 0.69889 0.0
Co1055 Co 0.72244 0.91981 0.57516 0.0
C1056 C 0.73296 0.91064 0.63289 0.0
O1057 O 0.73525 0.91604 0.67807 0.0
O1058 O 0.728 0.91136 0.59144 0.0
C1059 C 0.74459 0.93082 0.79946 0.0
O1060 O 0.74789 0.92568 0.77361 0.0
C1061 C 0.72436 0.91856 0.44969 0.0
C1062 C 0.7111 0.91784 0.41458 0.0
C1063 C 0.71983 0.91865 0.39788 0.0
N1064 N 0.71872 0.91805 0.49493 0.0
N1065 N 0.7107 0.91741 0.47383 0.0
C1066 C 0.73389 0.91896 0.45693 0.0
H1067 H 0.73901 0.92567 0.48068 0.0
H1068 H 0.73703 0.91857 0.41418 0.0
H1069 H 0.73286 0.91275 0.4841 0.0
C1070 C 0.74237 0.94508 0.64059 0.0
N1071 N 0.73598 0.93553 0.63995 0.0
N1072 N 0.73166 0.93309 0.5884 0.0
C1073 C 0.73498 0.94113 0.55501 0.0
C1074 C 0.74193 0.94894 0.58684 0.0
C1075 C 0.74832 0.95044 0.69302 0.0
H1076 H 0.74344 0.94963 0.73006 0.0
H1077 H 0.75275 0.94719 0.70691 0.0
H1078 H 0.75312 0.95824 0.68361 0.0
O1079 O 0.71782 0.91998 0.71286 0.0
O1080 O 0.71091 0.91578 0.62484 0.0
H1081 H 0.72363 0.93679 0.49135 0.0
H1082 H 0.73374 0.9488 0.47956 0.0
C1083 C 0.73161 0.94136 0.49384 0.0
H1084 H 0.73491 0.93849 0.46286 0.0
H1085 H 0.70519 0.91714 0.49984 0.0
O1086 O 0.73817 0.93199 0.77406 0.0
C1087 C 0.71029 0.91629 0.68047 0.0
Co1088 Co 0.07196 0.80705 0.69369 0.0
Co1089 Co 0.07627 0.80165 0.57017 0.0
C1090 C 0.08734 0.82196 0.61979 0.0
O1091 O 0.08238 0.81975 0.66692 0.0
O1092 O 0.08573 0.81562 0.58065 0.0
C1093 C 0.06968 0.81622 0.79765 0.0
O1094 O 0.07643 0.82442 0.77518 0.0
C1095 C 0.07626 0.80346 0.44394 0.0
C1096 C 0.07571 0.79011 0.41206 0.0
C1097 C 0.07529 0.79817 0.39355 0.0
N1098 N 0.07689 0.7986 0.49029 0.0
N1099 N 0.07674 0.79072 0.47105 0.0
C1100 C 0.07659 0.81299 0.44876 0.0
H1101 H 0.08295 0.81805 0.47527 0.0
H1102 H 0.07003 0.81199 0.47194 0.0
H1103 H 0.07719 0.81636 0.40515 0.0
C1104 C 0.05243 0.79896 0.64271 0.0
N1105 N 0.06184 0.80156 0.63858 0.0
N1106 N 0.06344 0.79878 0.58738 0.0
C1107 C 0.055 0.79404 0.55782 0.0
C1108 C 0.0478 0.7941 0.59173 0.0
C1109 C 0.0479 0.80044 0.69638 0.0
H1110 H 0.04843 0.79619 0.73334 0.0
H1111 H 0.05193 0.80819 0.70913 0.0
H1112 H 0.04018 0.79816 0.68905 0.0
O1113 O 0.07717 0.79823 0.70882 0.0
O1114 O 0.07992 0.79397 0.62105 0.0
H1115 H 0.05785 0.78542 0.49758 0.0
H1116 H 0.04606 0.78422 0.4888 0.0
C1117 C 0.05376 0.78933 0.49895 0.0
H1118 H 0.05658 0.79497 0.46433 0.0
H1119 H 0.07693 0.78555 0.49833 0.0
O1120 O 0.06686 0.8084 0.76942 0.0
C1121 C 0.07994 0.79349 0.67699 0.0
Co1122 Co 0.93033 0.5249 0.62321 0.0
Co1123 Co 0.94042 0.52922 0.74567 0.0
C1124 C 0.92955 0.50906 0.69511 0.0
O1125 O 0.92714 0.51186 0.64899 0.0
O1126 O 0.93472 0.51504 0.73487 0.0
C1127 C 0.91859 0.51632 0.51981 0.0
O1128 O 0.91659 0.50799 0.54321 0.0
C1129 C 0.93962 0.52713 0.8719 0.0
C1130 C 0.95288 0.54024 0.90158 0.0
C1131 C 0.94455 0.53218 0.92177 0.0
N1132 N 0.94475 0.53202 0.82454 0.0
N1133 N 0.95277 0.53975 0.84237 0.0
C1134 C 0.92961 0.51855 0.86853 0.0
H1135 H 0.92628 0.5183 0.82524 0.0
H1136 H 0.92497 0.51878 0.90415 0.0
H1137 H 0.93002 0.51185 0.87371 0.0
C1138 C 0.92027 0.53411 0.67889 0.0
N1139 N 0.92667 0.53096 0.68039 0.0
N1140 N 0.93114 0.53318 0.7315 0.0
C1141 C 0.92787 0.53804 0.76382 0.0
C1142 C 0.92083 0.53872 0.73166 0.0
C1143 C 0.91416 0.53314 0.62655 0.0
H1144 H 0.91892 0.53697 0.58858 0.0
H1145 H 0.90971 0.52539 0.61454 0.0
H1146 H 0.90937 0.5362 0.63502 0.0
O1147 O 0.94438 0.53282 0.6062 0.0
O1148 O 0.95169 0.5362 0.6931 0.0
H1149 H 0.93929 0.54556 0.82641 0.0
H1150 H 0.92888 0.54696 0.83882 0.0
C1151 C 0.93129 0.54186 0.82462 0.0
H1152 H 0.92829 0.53574 0.8561 0.0
H1153 H 0.95791 0.54492 0.81415 0.0
O1154 O 0.92386 0.52409 0.54795 0.0
C1155 C 0.95205 0.53689 0.63722 0.0
Co1156 Co 0.47096 0.40476 0.61987 0.0
Co1157 Co 0.46758 0.41 0.74642 0.0
C1158 C 0.4872 0.41998 0.68945 0.0
O1159 O 0.48409 0.41487 0.64307 0.0
O1160 O 0.48153 0.41888 0.73181 0.0
C1161 C 0.47963 0.40061 0.5214 0.0
O1162 O 0.48757 0.40472 0.55311 0.0
C1163 C 0.47115 0.41153 0.87151 0.0
C1164 C 0.45811 0.41104 0.90861 0.0
C1165 C 0.46666 0.41132 0.92416 0.0
N1166 N 0.46549 0.4113 0.82714 0.0
N1167 N 0.45779 0.41119 0.84938 0.0
C1168 C 0.47999 0.41065 0.8628 0.0
H1169 H 0.47982 0.40749 0.81903 0.0
H1170 H 0.48053 0.40605 0.89749 0.0
H1171 H 0.48651 0.41795 0.86513 0.0
C1172 C 0.46213 0.38523 0.67218 0.0
N1173 N 0.46545 0.39479 0.67617 0.0
N1174 N 0.46392 0.39689 0.72965 0.0
C1175 C 0.45952 0.38867 0.76161 0.0
C1176 C 0.45825 0.38102 0.72621 0.0
C1177 C 0.46206 0.38022 0.61632 0.0
H1178 H 0.45893 0.3825 0.58036 0.0
H1179 H 0.46961 0.38242 0.60399 0.0
H1180 H 0.45778 0.37223 0.62066 0.0
O1181 O 0.46259 0.41051 0.60858 0.0
O1182 O 0.45985 0.41406 0.69846 0.0
H1183 H 0.45247 0.39178 0.83158 0.0
H1184 H 0.45284 0.38076 0.84242 0.0
C1185 C 0.45687 0.38824 0.82528 0.0
H1186 H 0.46355 0.39216 0.85168 0.0
H1187 H 0.45214 0.41081 0.82423 0.0
O1188 O 0.47184 0.39967 0.54264 0.0
C1189 C 0.45865 0.41384 0.64292 0.0
Co1190 Co 0.59263 0.06666 0.615 0.0
Co1191 Co 0.58825 0.05767 0.74069 0.0
C1192 C 0.57736 0.06679 0.68828 0.0
O1193 O 0.58226 0.06915 0.64095 0.0
O1194 O 0.57893 0.06228 0.72897 0.0
C1195 C 0.5957 0.07911 0.51564 0.0
O1196 O 0.59088 0.08229 0.54633 0.0
C1197 C 0.5871 0.05966 0.86578 0.0
C1198 C 0.58789 0.04725 0.90248 0.0
C1199 C 0.58742 0.05541 0.91824 0.0
N1200 N 0.58738 0.05429 0.82123 0.0
N1201 N 0.5877 0.04679 0.84322 0.0
C1202 C 0.5878 0.0693 0.85743 0.0
H1203 H 0.59093 0.07236 0.81373 0.0
H1204 H 0.59233 0.07445 0.89231 0.0
H1205 H 0.58044 0.06838 0.85983 0.0
C1206 C 0.61234 0.07785 0.66472 0.0
N1207 N 0.60285 0.07135 0.66974 0.0
N1208 N 0.60111 0.06745 0.72254 0.0
C1209 C 0.60949 0.07131 0.75284 0.0
C1210 C 0.61687 0.07804 0.7172 0.0
C1211 C 0.617 0.08317 0.60908 0.0
H1212 H 0.6152 0.07789 0.57275 0.0
H1213 H 0.61402 0.08792 0.59736 0.0
H1214 H 0.62498 0.08759 0.61328 0.0
O1215 O 0.58723 0.05259 0.60241 0.0
O1216 O 0.58439 0.04606 0.69166 0.0
H1217 H 0.60693 0.06074 0.81914 0.0
H1218 H 0.61798 0.07212 0.82993 0.0
C1219 C 0.61037 0.0687 0.81501 0.0
H1220 H 0.60657 0.07122 0.84461 0.0
H1221 H 0.58814 0.04158 0.81785 0.0
O1222 O 0.59738 0.07279 0.53778 0.0
C1223 C 0.58433 0.04525 0.63585 0.0
C1224 C 0.12635 0.42323 0.14182 0.0
C1225 C 0.12403 0.41931 0.08487 0.0
C1226 C 0.12246 0.42872 0.16366 0.0
C1227 C 0.11098 0.44283 0.12129 0.0
H1228 H 0.09821 0.43478 0.273 0.0
C1229 C 0.07981 0.44581 0.2567 0.0
C1230 C 0.08338 0.4558 0.25517 0.0
C1231 C 0.08569 0.44208 0.23931 0.0
C1232 C 0.10178 0.43712 0.23071 0.0
H1233 H 0.11605 0.41824 0.0054 0.0
H1234 H 0.10937 0.42804 0.04317 0.0
H1235 H 0.1071 0.4272 0.23425 0.0
H1236 H 0.09571 0.4698 0.23528 0.0
H1237 H 0.10605 0.46327 0.20387 0.0
H1238 H 0.1055 0.45264 0.11743 0.0
C1239 C 0.11422 0.42687 0.07083 0.0
C1240 C 0.10692 0.43285 0.20876 0.0
C1241 C 0.11804 0.42129 0.04921 0.0
C1242 C 0.09289 0.46206 0.23672 0.0
C1243 C 0.09875 0.45833 0.21862 0.0
C1244 C 0.10593 0.44719 0.1436 0.0
C1245 C 0.11626 0.43048 0.12865 0.0
C1246 C 0.11145 0.43556 0.1535 0.0
C1247 C 0.09517 0.44831 0.21952 0.0
C1248 C 0.10116 0.44426 0.19809 0.0
H1249 H 0.13108 0.42192 0.16979 0.0
H1250 H 0.12423 0.43153 0.20812 0.0
H1251 H 0.11446 0.44508 0.07871 0.0
H1252 H 0.07245 0.4409 0.27066 0.0
H1253 H 0.08273 0.43432 0.23983 0.0
C1254 C 0.53622 0.63064 0.23835 0.0
C1255 C 0.54171 0.62608 0.2462 0.0
C1256 C 0.54074 0.64037 0.22183 0.0
C1257 C 0.56455 0.66275 0.21735 0.0
H1258 H 0.55326 0.67005 0.09014 0.0
C1259 C 0.58617 0.69881 0.09564 0.0
C1260 C 0.58147 0.70406 0.08424 0.0
C1261 C 0.58094 0.68931 0.11592 0.0
C1262 C 0.55644 0.66814 0.12616 0.0
H1263 H 0.5561 0.62797 0.24527 0.0
H1264 H 0.56404 0.64497 0.21591 0.0
H1265 H 0.54474 0.6535 0.12784 0.0
H1266 H 0.56769 0.70359 0.08289 0.0
H1267 H 0.55844 0.68688 0.11855 0.0
H1268 H 0.57628 0.67734 0.21538 0.0
C1269 C 0.55629 0.64111 0.2227 0.0
C1270 C 0.55156 0.65868 0.14782 0.0
C1271 C 0.55177 0.63139 0.23904 0.0
C1272 C 0.57142 0.69961 0.09143 0.0
C1273 C 0.56616 0.69008 0.1117 0.0
C1274 C 0.56942 0.67219 0.19572 0.0
C1275 C 0.55082 0.64568 0.21335 0.0
C1276 C 0.55563 0.65586 0.19314 0.0
C1277 C 0.5709 0.68489 0.12503 0.0
C1278 C 0.56548 0.67496 0.14939 0.0
H1279 H 0.52844 0.62662 0.24392 0.0
H1280 H 0.53636 0.64373 0.2156 0.0
H1281 H 0.56778 0.66084 0.25301 0.0
H1282 H 0.59392 0.70212 0.08961 0.0
H1283 H 0.58476 0.68542 0.12463 0.0
C1284 C 0.29812 0.8729 0.07477 0.0
C1285 C 0.29204 0.87654 0.09026 0.0
C1286 C 0.30789 0.87789 0.09052 0.0
C1287 C 0.32708 0.90179 0.15101 0.0
H1288 H 0.34036 0.88738 0.17659 0.0
C1289 C 0.36774 0.92155 0.20353 0.0
C1290 C 0.37156 0.91677 0.23602 0.0
C1291 C 0.35814 0.9166 0.18477 0.0
C1292 C 0.33675 0.89154 0.1709 0.0
H1293 H 0.29142 0.88835 0.13288 0.0
H1294 H 0.30808 0.89653 0.16556 0.0
H1295 H 0.32353 0.87887 0.14828 0.0
H1296 H 0.36828 0.90322 0.27692 0.0
H1297 H 0.35129 0.89479 0.24925 0.0
H1298 H 0.33998 0.91431 0.17883 0.0
C1299 C 0.30556 0.89007 0.13911 0.0
C1300 C 0.32708 0.88665 0.15309 0.0
C1301 C 0.2959 0.88526 0.12149 0.0
C1302 C 0.3655 0.90706 0.25171 0.0
C1303 C 0.35578 0.90219 0.23482 0.0
C1304 C 0.33662 0.90662 0.17083 0.0
C1305 C 0.31174 0.8865 0.1237 0.0
C1306 C 0.3221 0.8917 0.14253 0.0
C1307 C 0.35197 0.90685 0.20032 0.0
C1308 C 0.34166 0.9016 0.1806 0.0
H1309 H 0.29531 0.86617 0.05066 0.0
H1310 H 0.3124 0.87498 0.07632 0.0
H1311 H 0.32366 0.90605 0.1422 0.0
H1312 H 0.3722 0.92911 0.19211 0.0
H1313 H 0.35565 0.92047 0.15742 0.0
C1314 C 0.46165 0.09326 0.77194 0.0
C1315 C 0.45585 0.0839 0.74967 0.0
C1316 C 0.45743 0.09867 0.79023 0.0
C1317 C 0.44529 0.10506 0.86125 0.0
H1318 H 0.42578 0.10604 0.76433 0.0
C1319 C 0.41905 0.11745 0.94617 0.0
C1320 C 0.41737 0.12346 0.90888 0.0
C1321 C 0.42455 0.1134 0.92665 0.0
C1322 C 0.43127 0.10589 0.79162 0.0
H1323 H 0.44129 0.07278 0.72798 0.0
H1324 H 0.43384 0.08226 0.75947 0.0
H1325 H 0.43386 0.09745 0.72876 0.0
H1326 H 0.42034 0.13027 0.82304 0.0
H1327 H 0.42983 0.12305 0.78842 0.0
H1328 H 0.4426 0.11342 0.92443 0.0
C1329 C 0.44162 0.08545 0.76273 0.0
C1330 C 0.43583 0.10092 0.77151 0.0
C1331 C 0.44583 0.08002 0.74497 0.0
C1332 C 0.42143 0.12553 0.85226 0.0
C1333 C 0.42685 0.12142 0.83254 0.0
C1334 C 0.44066 0.10996 0.88165 0.0
C1335 C 0.44737 0.0948 0.78587 0.0
C1336 C 0.44284 0.10041 0.80626 0.0
C1337 C 0.42838 0.11524 0.86934 0.0
C1338 C 0.43358 0.11039 0.8471 0.0
H1339 H 0.4694 0.09632 0.77574 0.0
H1340 H 0.46203 0.10589 0.80748 0.0
H1341 H 0.45062 0.10472 0.88906 0.0
H1342 H 0.41589 0.11566 0.98977 0.0
H1343 H 0.42553 0.10858 0.95568 0.0
C1344 C 0.90417 0.36622 0.75861 0.0
C1345 C 0.91422 0.371 0.75095 0.0
C1346 C 0.8992 0.35658 0.77694 0.0
C1347 C 0.9012 0.33461 0.78485 0.0
H1348 H 0.88246 0.32724 0.91119 0.0
C1349 C 0.88623 0.29821 0.90423 0.0
C1350 C 0.8763 0.29315 0.91652 0.0
C1351 C 0.89065 0.30774 0.88415 0.0
C1352 C 0.88759 0.32915 0.8754 0.0
H1353 H 0.92701 0.3696 0.75433 0.0
H1354 H 0.91836 0.35272 0.78664 0.0
H1355 H 0.89043 0.34376 0.87326 0.0
H1356 H 0.86318 0.29395 0.91926 0.0
H1357 H 0.87086 0.31065 0.88352 0.0
H1358 H 0.89839 0.32004 0.78681 0.0
C1359 C 0.91428 0.35636 0.77844 0.0
C1360 C 0.89214 0.3386 0.85368 0.0
C1361 C 0.91924 0.36601 0.76039 0.0
C1362 C 0.87087 0.29779 0.91001 0.0
C1363 C 0.87527 0.30732 0.88978 0.0
C1364 C 0.89664 0.32516 0.8064 0.0
C1365 C 0.90422 0.35157 0.78735 0.0
C1366 C 0.89905 0.34144 0.80853 0.0
C1367 C 0.8852 0.31236 0.87598 0.0
C1368 C 0.88984 0.32235 0.85228 0.0
H1369 H 0.9002 0.37 0.75127 0.0
H1370 H 0.89143 0.35303 0.78282 0.0
H1371 H 0.90639 0.33655 0.74938 0.0
H1372 H 0.89055 0.29476 0.90971 0.0
H1373 H 0.89834 0.31149 0.87507 0.0
C1374 C 0.69923 0.57079 0.89882 0.0
C1375 C 0.70293 0.58026 0.91935 0.0
C1376 C 0.68955 0.56538 0.8815 0.0
C1377 C 0.67112 0.55904 0.80997 0.0
H1378 H 0.65071 0.55879 0.90403 0.0
C1379 C 0.63285 0.54689 0.72056 0.0
C1380 C 0.62504 0.54095 0.75735 0.0
C1381 C 0.64233 0.55102 0.74139 0.0
C1382 C 0.65633 0.55874 0.87754 0.0
H1383 H 0.69969 0.59157 0.93937 0.0
H1384 H 0.68268 0.5821 0.90955 0.0
H1385 H 0.66733 0.56718 0.9406 0.0
H1386 H 0.62094 0.53448 0.844 0.0
H1387 H 0.63752 0.54185 0.88086 0.0
H1388 H 0.66012 0.55069 0.74662 0.0
C1389 C 0.68719 0.57882 0.90692 0.0
C1390 C 0.66583 0.56359 0.89824 0.0
C1391 C 0.69688 0.58424 0.92371 0.0
C1392 C 0.62685 0.53915 0.81508 0.0
C1393 C 0.63632 0.54334 0.83608 0.0
C1394 C 0.66163 0.55426 0.78901 0.0
C1395 C 0.68346 0.56937 0.88509 0.0
C1396 C 0.67333 0.56384 0.86449 0.0
C1397 C 0.64414 0.54935 0.79952 0.0
C1398 C 0.65415 0.55411 0.82249 0.0
H1399 H 0.70386 0.56765 0.89529 0.0
H1400 H 0.68683 0.55808 0.86529 0.0
H1401 H 0.67678 0.55919 0.78288 0.0
H1402 H 0.63162 0.54851 0.67617 0.0
H1403 H 0.64823 0.55573 0.71253 0.0
C1404 C 0.86952 0.57123 0.89824 0.0
C1405 C 0.87488 0.58126 0.90695 0.0
C1406 C 0.87418 0.56616 0.88156 0.0
C1407 C 0.89807 0.56783 0.87989 0.0
H1408 H 0.88732 0.54943 0.75142 0.0
C1409 C 0.92004 0.55324 0.76296 0.0
C1410 C 0.91526 0.54335 0.74968 0.0
C1411 C 0.91483 0.55756 0.78289 0.0
C1412 C 0.89035 0.55445 0.78782 0.0
H1413 H 0.88919 0.59389 0.90728 0.0
H1414 H 0.89739 0.58508 0.87771 0.0
H1415 H 0.87865 0.5574 0.78733 0.0
H1416 H 0.90139 0.53019 0.74515 0.0
H1417 H 0.89218 0.53771 0.78042 0.0
H1418 H 0.90978 0.56493 0.88032 0.0
C1419 C 0.88962 0.58109 0.88385 0.0
C1420 C 0.88538 0.55901 0.80841 0.0
C1421 C 0.88495 0.58614 0.90029 0.0
C1422 C 0.90518 0.53785 0.75517 0.0
C1423 C 0.89994 0.54216 0.77515 0.0
C1424 C 0.90302 0.56327 0.85941 0.0
C1425 C 0.88428 0.57106 0.87387 0.0
C1426 C 0.88925 0.56581 0.85425 0.0
C1427 C 0.90473 0.55204 0.7898 0.0
C1428 C 0.89927 0.55661 0.81274 0.0
H1429 H 0.86173 0.56736 0.90353 0.0
H1430 H 0.8699 0.55842 0.87483 0.0
H1431 H 0.90114 0.57292 0.91593 0.0
H1432 H 0.92783 0.55761 0.75822 0.0
H1433 H 0.91871 0.56523 0.79267 0.0
C1434 C 0.44445 0.36602 0.76834 0.0
C1435 C 0.45365 0.3707 0.74225 0.0
C1436 C 0.44037 0.35646 0.78723 0.0
C1437 C 0.43786 0.33366 0.76129 0.0
H1438 H 0.43514 0.32903 0.92971 0.0
C1439 C 0.42237 0.29522 0.85554 0.0
C1440 C 0.41646 0.29289 0.9054 0.0
C1441 C 0.42766 0.30478 0.83617 0.0
C1442 C 0.4357 0.33015 0.88254 0.0
H1443 H 0.46563 0.36902 0.71269 0.0
H1444 H 0.45824 0.35202 0.74372 0.0
H1445 H 0.4426 0.34555 0.89239 0.0
H1446 H 0.41126 0.29848 0.97419 0.0
H1447 H 0.42011 0.31516 0.93927 0.0
H1448 H 0.43053 0.31832 0.75062 0.0
C1449 C 0.45434 0.35588 0.75057 0.0
C1450 C 0.44005 0.33962 0.86139 0.0
C1451 C 0.45853 0.36553 0.73278 0.0
C1452 C 0.41589 0.3002 0.93593 0.0
C1453 C 0.42102 0.30974 0.91601 0.0
C1454 C 0.43333 0.32417 0.78232 0.0
C1455 C 0.44532 0.35136 0.77878 0.0
C1456 C 0.44111 0.34141 0.80072 0.0
C1457 C 0.42695 0.31216 0.86569 0.0
C1458 C 0.43214 0.32228 0.84328 0.0
H1459 H 0.44047 0.36981 0.77476 0.0
H1460 H 0.43335 0.35302 0.80843 0.0
H1461 H 0.43858 0.33494 0.71423 0.0
H1462 H 0.4229 0.28962 0.83161 0.0
H1463 H 0.43228 0.30637 0.79805 0.0
C1464 C 0.70295 0.12625 0.8424 0.0
C1465 C 0.70498 0.12291 0.89452 0.0
C1466 C 0.69346 0.12214 0.82199 0.0
C1467 C 0.66788 0.10668 0.86899 0.0
H1468 H 0.66319 0.10222 0.70116 0.0
C1469 C 0.63224 0.07908 0.75031 0.0
C1470 C 0.62726 0.08375 0.73131 0.0
C1471 C 0.64189 0.08448 0.76775 0.0
C1472 C 0.66446 0.10351 0.748 0.0
H1473 H 0.69886 0.11267 0.96617 0.0
H1474 H 0.68225 0.10526 0.93 0.0
H1475 H 0.67981 0.11049 0.73817 0.0
H1476 H 0.6284 0.0976 0.71313 0.0
H1477 H 0.6455 0.10712 0.74287 0.0
H1478 H 0.65244 0.09931 0.87838 0.0
C1479 C 0.68791 0.11123 0.90553 0.0
C1480 C 0.67394 0.10828 0.76928 0.0
C1481 C 0.6974 0.11543 0.9262 0.0
C1482 C 0.63215 0.09388 0.72774 0.0
C1483 C 0.64185 0.09929 0.74475 0.0
C1484 C 0.65842 0.10185 0.84766 0.0
C1485 C 0.68582 0.11452 0.85304 0.0
C1486 C 0.67576 0.10985 0.83012 0.0
C1487 C 0.6467 0.0946 0.76555 0.0
C1488 C 0.65667 0.10021 0.78719 0.0
H1489 H 0.70873 0.13207 0.81755 0.0
H1490 H 0.6921 0.12496 0.78199 0.0
H1491 H 0.66902 0.1079 0.91592 0.0
H1492 H 0.62862 0.07126 0.75251 0.0
H1493 H 0.64559 0.08077 0.78355 0.0
C1494 C 0.55208 0.91912 0.23957 0.0
C1495 C 0.54217 0.9142 0.25215 0.0
C1496 C 0.55657 0.91403 0.22012 0.0
C1497 C 0.55145 0.89148 0.14694 0.0
H1498 H 0.5769 0.89816 0.20505 0.0
C1499 C 0.57077 0.87 0.0875 0.0
C1500 C 0.58077 0.87546 0.07805 0.0
C1501 C 0.56571 0.8745 0.10761 0.0
C1502 C 0.56984 0.89628 0.18787 0.0
H1503 H 0.52912 0.90022 0.25605 0.0
H1504 H 0.53697 0.89122 0.22221 0.0
H1505 H 0.5687 0.9063 0.24515 0.0
H1506 H 0.59334 0.88981 0.07895 0.0
H1507 H 0.58452 0.89774 0.11331 0.0
H1508 H 0.55264 0.8815 0.0893 0.0
C1509 C 0.54126 0.89901 0.22665 0.0
C1510 C 0.56514 0.90093 0.21097 0.0
C1511 C 0.53679 0.90411 0.24633 0.0
C1512 C 0.58562 0.88549 0.08667 0.0
C1513 C 0.58059 0.88999 0.10664 0.0
C1514 C 0.55617 0.88683 0.12371 0.0
C1515 C 0.55119 0.90394 0.213 0.0
C1516 C 0.55594 0.89864 0.19042 0.0
C1517 C 0.57061 0.88452 0.1184 0.0
C1518 C 0.56545 0.88925 0.14358 0.0
H1519 H 0.55634 0.92691 0.24415 0.0
H1520 H 0.5642 0.91804 0.20942 0.0
H1521 H 0.54441 0.88964 0.12979 0.0
H1522 H 0.56693 0.86223 0.08111 0.0
H1523 H 0.55804 0.87009 0.11657 0.0
C1524 C 0.1105 0.69817 0.09109 0.0
C1525 C 0.12046 0.70358 0.08025 0.0
C1526 C 0.1064 0.68877 0.11297 0.0
C1527 C 0.11028 0.66803 0.12871 0.0
H1528 H 0.09137 0.66087 0.25389 0.0
C1529 C 0.09291 0.63073 0.24373 0.0
C1530 C 0.08283 0.62614 0.24992 0.0
C1531 C 0.09815 0.64045 0.22705 0.0
C1532 C 0.0966 0.66275 0.21876 0.0
H1533 H 0.13397 0.70349 0.08124 0.0
H1534 H 0.12681 0.68695 0.11966 0.0
H1535 H 0.09925 0.67725 0.21438 0.0
H1536 H 0.07029 0.62795 0.24588 0.0
H1537 H 0.0794 0.64493 0.21635 0.0
H1538 H 0.10752 0.65346 0.1327 0.0
C1539 C 0.12215 0.68996 0.11127 0.0
C1540 C 0.1011 0.67211 0.19605 0.0
C1541 C 0.12625 0.69938 0.08944 0.0
C1542 C 0.07808 0.6314 0.24101 0.0
C1543 C 0.0833 0.64111 0.22456 0.0
C1544 C 0.10577 0.65864 0.15146 0.0
C1545 C 0.11221 0.68462 0.12418 0.0
C1546 C 0.10787 0.67481 0.15017 0.0
C1547 C 0.09338 0.64571 0.2168 0.0
C1548 C 0.09878 0.65587 0.1961 0.0
H1549 H 0.10591 0.70127 0.08346 0.0
H1550 H 0.09869 0.68476 0.12127 0.0
H1551 H 0.11543 0.66989 0.09311 0.0
H1552 H 0.09667 0.62674 0.2506 0.0
H1553 H 0.10592 0.64385 0.222 0.0
C1554 C 0.3656 0.4621 0.23927 0.0
C1555 C 0.36929 0.45613 0.25616 0.0
C1556 C 0.35596 0.45801 0.22144 0.0
C1557 C 0.3377 0.44646 0.14649 0.0
H1558 H 0.31712 0.42567 0.23619 0.0
C1559 C 0.29973 0.42015 0.05286 0.0
C1560 C 0.2918 0.41795 0.08937 0.0
C1561 C 0.30915 0.4257 0.07421 0.0
C1562 C 0.32279 0.43152 0.21097 0.0
H1563 H 0.36603 0.44139 0.26933 0.0
H1564 H 0.34908 0.43418 0.23897 0.0
H1565 H 0.33367 0.43369 0.27399 0.0
H1566 H 0.28743 0.42007 0.17586 0.0
H1567 H 0.30392 0.42961 0.21367 0.0
H1568 H 0.32682 0.44414 0.08288 0.0
C1569 C 0.35359 0.44198 0.23938 0.0
C1570 C 0.33225 0.43605 0.23236 0.0
C1571 C 0.36324 0.44607 0.25648 0.0
C1572 C 0.29344 0.42155 0.14716 0.0
C1573 C 0.30285 0.42701 0.1687 0.0
C1574 C 0.32825 0.44184 0.12473 0.0
C1575 C 0.34989 0.44791 0.22112 0.0
C1576 C 0.33979 0.44351 0.20012 0.0
C1577 C 0.31079 0.42906 0.1326 0.0
C1578 C 0.32072 0.43429 0.15663 0.0
H1579 H 0.37022 0.46989 0.2388 0.0
H1580 H 0.35325 0.46273 0.20791 0.0
H1581 H 0.34342 0.45215 0.12062 0.0
H1582 H 0.29864 0.41734 0.00841 0.0
H1583 H 0.31516 0.42709 0.0457 0.0
C1584 C 0.79338 0.75963 0.42554 0.0
C1585 C 0.78798 0.74965 0.41519 0.0
C1586 C 0.78876 0.76463 0.44438 0.0
C1587 C 0.76649 0.76047 0.51866 0.0
H1588 H 0.77346 0.78587 0.4585 0.0
C1589 C 0.7435 0.77832 0.56272 0.0
C1590 C 0.74841 0.78824 0.57534 0.0
C1591 C 0.74862 0.77381 0.54455 0.0
C1592 C 0.77153 0.77883 0.47622 0.0
H1593 H 0.77364 0.73707 0.41331 0.0
H1594 H 0.7655 0.7458 0.44566 0.0
H1595 H 0.78185 0.77765 0.42187 0.0
H1596 H 0.7624 0.80125 0.58043 0.0
H1597 H 0.77145 0.79335 0.54895 0.0
H1598 H 0.75614 0.76161 0.57271 0.0
C1599 C 0.77329 0.74975 0.44065 0.0
C1600 C 0.77632 0.77412 0.45522 0.0
C1601 C 0.77791 0.74477 0.4219 0.0
C1602 C 0.75851 0.79358 0.57061 0.0
C1603 C 0.76365 0.78908 0.55228 0.0
C1604 C 0.7617 0.76516 0.53956 0.0
C1605 C 0.77868 0.75971 0.45295 0.0
C1606 C 0.77379 0.76486 0.47589 0.0
C1607 C 0.75874 0.77915 0.53884 0.0
C1608 C 0.76412 0.77436 0.51826 0.0
H1609 H 0.80117 0.76348 0.42046 0.0
H1610 H 0.79311 0.77229 0.45382 0.0
H1611 H 0.76452 0.75342 0.53636 0.0
H1612 H 0.73569 0.77408 0.56657 0.0
H1613 H 0.74463 0.76617 0.53396 0.0
C1614 C 0.24294 0.03668 0.48473 0.0
C1615 C 0.24645 0.0383 0.42676 0.0
C1616 C 0.23756 0.02728 0.50658 0.0
C1617 C 0.22269 0.0019 0.46302 0.0
H1618 H 0.23089 0.99645 0.61202 0.0
C1619 C 0.21828 0.96682 0.59431 0.0
C1620 C 0.20821 0.96083 0.5941 0.0
C1621 C 0.22243 0.97649 0.57746 0.0
C1622 C 0.22852 0.99788 0.57046 0.0
H1623 H 0.24706 0.03143 0.34587 0.0
H1624 H 0.23744 0.01493 0.38369 0.0
H1625 H 0.23897 0.01299 0.57401 0.0
H1626 H 0.19449 0.96003 0.57729 0.0
H1627 H 0.20175 0.97702 0.54684 0.0
H1628 H 0.21231 0.98675 0.4592 0.0
C1629 C 0.23883 0.02094 0.4121 0.0
C1630 C 0.23308 0.00734 0.54895 0.0
C1631 C 0.2443 0.03036 0.39045 0.0
C1632 C 0.20229 0.9646 0.57768 0.0
C1633 C 0.20644 0.97425 0.5601 0.0
C1634 C 0.21804 0.99245 0.4849 0.0
C1635 C 0.23552 0.01933 0.47059 0.0
C1636 C 0.23029 0.0094 0.49471 0.0
C1637 C 0.21654 0.98026 0.55954 0.0
C1638 C 0.221 0.99035 0.53845 0.0
H1639 H 0.24438 0.04269 0.51328 0.0
H1640 H 0.235 0.02622 0.55163 0.0
H1641 H 0.22037 0.00333 0.42126 0.0
H1642 H 0.22293 0.96397 0.60679 0.0
H1643 H 0.23024 0.98095 0.57687 0.0
C1644 C 0.03232 0.23794 0.57874 0.0
C1645 C 0.03698 0.24804 0.58331 0.0
C1646 C 0.0228 0.23274 0.55828 0.0
C1647 C 0.00527 0.23601 0.46997 0.0
H1648 H 0.98619 0.21186 0.54157 0.0
C1649 C 0.96453 0.2188 0.42521 0.0
C1650 C 0.95912 0.20873 0.41919 0.0
C1651 C 0.97422 0.22326 0.44207 0.0
C1652 C 0.99148 0.21852 0.5206 0.0
H1653 H 0.03542 0.26066 0.57324 0.0
H1654 H 0.01874 0.25161 0.53804 0.0
H1655 H 0.00271 0.22029 0.57964 0.0
H1656 H 0.95943 0.19536 0.42417 0.0
H1657 H 0.9765 0.20317 0.45357 0.0
H1658 H 0.99403 0.23431 0.41142 0.0
C1659 C 0.02245 0.2477 0.5488 0.0
C1660 C 0.00093 0.22336 0.54244 0.0
C1661 C 0.03195 0.25287 0.5692 0.0
C1662 C 0.96354 0.20316 0.42884 0.0
C1663 C 0.97324 0.20761 0.44595 0.0
C1664 C 0.99583 0.23119 0.44823 0.0
C1665 C 0.01782 0.23759 0.54224 0.0
C1666 C 0.00789 0.23221 0.5178 0.0
C1667 C 0.97865 0.21771 0.45316 0.0
C1668 C 0.98881 0.22246 0.47375 0.0
H1669 H 0.03614 0.23412 0.5895 0.0
H1670 H 0.01944 0.22497 0.55345 0.0
H1671 H 0.01052 0.24271 0.44921 0.0
H1672 H 0.96121 0.2232 0.41762 0.0
H1673 H 0.97818 0.23104 0.44784 0.0
C1674 C 0.21878 0.25365 0.55873 0.0
C1675 C 0.2088 0.24872 0.56949 0.0
C1676 C 0.2233 0.24862 0.53907 0.0
C1677 C 0.22039 0.22422 0.53034 0.0
H1678 H 0.23987 0.23594 0.40814 0.0
C1679 C 0.23786 0.20418 0.41828 0.0
C1680 C 0.24794 0.20953 0.41242 0.0
C1681 C 0.23273 0.20875 0.43549 0.0
C1682 C 0.23449 0.23261 0.44256 0.0
H1683 H 0.19569 0.23478 0.56987 0.0
H1684 H 0.20357 0.2259 0.5348 0.0
H1685 H 0.23156 0.2443 0.44325 0.0
H1686 H 0.26063 0.22376 0.41798 0.0
H1687 H 0.25171 0.2318 0.44844 0.0
H1688 H 0.22335 0.21254 0.52951 0.0
C1689 C 0.20793 0.23363 0.5419 0.0
C1690 C 0.22975 0.2374 0.46276 0.0
C1691 C 0.20341 0.23868 0.5617 0.0
C1692 C 0.25284 0.21952 0.42271 0.0
C1693 C 0.24773 0.2241 0.43966 0.0
C1694 C 0.22512 0.21942 0.50997 0.0
C1695 C 0.21791 0.23857 0.52985 0.0
C1696 C 0.22271 0.2333 0.50727 0.0
C1697 C 0.23763 0.21875 0.44658 0.0
C1698 C 0.23228 0.22361 0.46625 0.0
H1699 H 0.22305 0.2614 0.56531 0.0
H1700 H 0.23103 0.2526 0.53135 0.0
H1701 H 0.21508 0.22093 0.56511 0.0
H1702 H 0.23398 0.19645 0.41023 0.0
H1703 H 0.22494 0.20447 0.43986 0.0
C1704 C 0.7427 0.96415 0.55353 0.0
C1705 C 0.7475 0.95909 0.56775 0.0
C1706 C 0.7479 0.97359 0.53216 0.0
C1707 C 0.77237 0.99492 0.52394 0.0
H1708 H 0.76128 0.00205 0.39477 0.0
C1709 C 0.79275 0.03226 0.41 0.0
C1710 C 0.7873 0.03683 0.40178 0.0
C1711 C 0.78821 0.02254 0.42685 0.0
C1712 C 0.76444 0.00017 0.43104 0.0
H1713 H 0.76137 0.9598 0.57268 0.0
H1714 H 0.77054 0.97637 0.53485 0.0
H1715 H 0.75277 0.98556 0.43271 0.0
H1716 H 0.77292 0.035 0.40251 0.0
H1717 H 0.76492 0.01801 0.43218 0.0
H1718 H 0.78403 0.00958 0.52237 0.0
C1719 C 0.76279 0.9731 0.54044 0.0
C1720 C 0.75956 0.99075 0.45288 0.0
C1721 C 0.75757 0.96364 0.56189 0.0
C1722 C 0.77724 0.03156 0.40894 0.0
C1723 C 0.77268 0.02185 0.42549 0.0
C1724 C 0.77727 0.00436 0.50198 0.0
C1725 C 0.75798 0.97813 0.5247 0.0
C1726 C 0.76341 0.98805 0.50006 0.0
C1727 C 0.77813 0.01727 0.43521 0.0
C1728 C 0.77329 0.0071 0.45578 0.0
H1729 H 0.73493 0.96076 0.55855 0.0
H1730 H 0.74401 0.97735 0.52161 0.0
H1731 H 0.77548 0.99308 0.56068 0.0
H1732 H 0.80054 0.03625 0.40453 0.0
H1733 H 0.79257 0.01916 0.43345 0.0
C1734 C 0.96451 0.74445 0.43393 0.0
C1735 C 0.95926 0.74909 0.42057 0.0
C1736 C 0.97401 0.74979 0.45408 0.0
C1737 C 0.99518 0.77432 0.46024 0.0
H1738 H 0.00261 0.76358 0.5899 0.0
C1739 C 0.0329 0.79485 0.56986 0.0
C1740 C 0.03741 0.78934 0.57842 0.0
C1741 C 0.02314 0.79034 0.554 0.0
C1742 C 0.00065 0.76664 0.55348 0.0
H1743 H 0.95973 0.76285 0.41543 0.0
H1744 H 0.97644 0.77229 0.451 0.0
H1745 H 0.98604 0.75497 0.55339 0.0
H1746 H 0.03543 0.77492 0.57939 0.0
H1747 H 0.01837 0.76696 0.55133 0.0
H1748 H 0.00986 0.78596 0.4601 0.0
C1749 C 0.97324 0.76454 0.44583 0.0
C1750 C 0.99118 0.76171 0.53249 0.0
C1751 C 0.96371 0.75917 0.42564 0.0
C1752 C 0.03204 0.77927 0.57261 0.0
C1753 C 0.02229 0.77474 0.55701 0.0
C1754 C 0.00468 0.77927 0.48131 0.0
C1755 C 0.97843 0.75987 0.4611 0.0
C1756 C 0.98838 0.76542 0.48508 0.0
C1757 C 0.01776 0.78024 0.54699 0.0
C1758 C 0.00753 0.7754 0.5276 0.0
H1759 H 0.9612 0.73668 0.42944 0.0
H1760 H 0.97789 0.74602 0.46425 0.0
H1761 H 0.99325 0.77732 0.42337 0.0
H1762 H 0.03697 0.80265 0.57442 0.0
H1763 H 0.0198 0.79473 0.54717 0.0
C1764 C 0.16646 0.39815 0.07209 0.0
C1765 C 0.16357 0.4016 0.02371 0.0
C1766 C 0.17573 0.39932 0.07418 0.0
C1767 C 0.19534 0.40256 0.97567 0.0
H1768 H 0.21008 0.40789 0.12027 0.0
C1769 C 0.23293 0.40597 0.97889 0.0
C1770 C 0.23456 0.40095 0.0241 0.0
C1771 C 0.22491 0.40728 0.98085 0.0
C1772 C 0.20602 0.40635 0.07963 0.0
H1773 H 0.16831 0.40936 0.94081 0.0
H1774 H 0.1845 0.41148 0.94487 0.0
H1775 H 0.19486 0.40807 0.12026 0.0
H1776 H 0.22922 0.39362 0.10784 0.0
H1777 H 0.21517 0.39579 0.11077 0.0
H1778 H 0.20637 0.40067 0.9352 0.0
C1779 C 0.17953 0.40772 0.98065 0.0
C1780 C 0.19731 0.40645 0.07963 0.0
C1781 C 0.17027 0.40654 0.97849 0.0
C1782 C 0.22816 0.3975 0.07217 0.0
C1783 C 0.22014 0.39881 0.07409 0.0
C1784 C 0.20403 0.40246 0.97567 0.0
C1785 C 0.18231 0.40398 0.02802 0.0
C1786 C 0.19184 0.40447 0.02772 0.0
C1787 C 0.21835 0.40358 0.02804 0.0
C1788 C 0.20942 0.40427 0.02773 0.0
H1789 H 0.16149 0.39434 0.10778 0.0
H1790 H 0.17762 0.39628 0.11102 0.0
H1791 H 0.19122 0.40083 0.93519 0.0
H1792 H 0.23775 0.40879 0.94142 0.0
H1793 H 0.22381 0.41112 0.94514 0.0
C1794 C 0.59736 0.76632 0.10166 0.0
C1795 C 0.59461 0.76092 0.04919 0.0
C1796 C 0.59583 0.77414 0.10888 0.0
C1797 C 0.58289 0.78608 0.04748 0.0
H1798 H 0.6052 0.8094 0.10571 0.0
C1799 C 0.58944 0.82448 0.00327 0.0
C1800 C 0.59401 0.83156 0.0471 0.0
C1801 C 0.58808 0.8152 0.01097 0.0
C1802 C 0.59882 0.80292 0.09042 0.0
H1803 H 0.58773 0.75926 0.96421 0.0
H1804 H 0.58522 0.773 0.97648 0.0
H1805 H 0.60534 0.79426 0.10616 0.0
H1806 H 0.60025 0.83428 0.13478 0.0
H1807 H 0.59778 0.81806 0.14833 0.0
H1808 H 0.5765 0.79487 0.03029 0.0
C1809 C 0.58845 0.77112 0.01231 0.0
C1810 C 0.5989 0.79423 0.09068 0.0
C1811 C 0.58995 0.76328 0.00512 0.0
C1812 C 0.5968 0.82903 0.09984 0.0
C1813 C 0.59542 0.81975 0.10757 0.0
C1814 C 0.58281 0.7948 0.04721 0.0
C1815 C 0.59156 0.77676 0.06378 0.0
C1816 C 0.591 0.78574 0.06843 0.0
C1817 C 0.59123 0.8128 0.06271 0.0
C1818 C 0.59084 0.80334 0.06789 0.0
H1819 H 0.60087 0.76464 0.13677 0.0
H1820 H 0.59816 0.77825 0.14944 0.0
H1821 H 0.57664 0.77962 0.03076 0.0
H1822 H 0.58718 0.82618 0.96216 0.0
H1823 H 0.58492 0.81004 0.97532 0.0
C1824 C 0.228 0.82918 0.08691 0.0
C1825 C 0.23428 0.83228 0.03821 0.0
C1826 C 0.21987 0.81996 0.088 0.0
C1827 C 0.20821 0.79578 0.01834 0.0
H1828 H 0.1847 0.79506 0.07025 0.0
C1829 C 0.16958 0.76321 0.98069 0.0
C1830 C 0.16282 0.76099 0.02626 0.0
C1831 C 0.17881 0.77137 0.98458 0.0
C1832 C 0.19122 0.7951 0.05644 0.0
H1833 H 0.23708 0.82793 0.95327 0.0
H1834 H 0.22275 0.81184 0.95485 0.0
H1835 H 0.19993 0.81024 0.07277 0.0
H1836 H 0.16063 0.76536 0.11281 0.0
H1837 H 0.17671 0.77945 0.11975 0.0
H1838 H 0.19936 0.78059 0.00127 0.0
C1839 C 0.22421 0.81655 0.99247 0.0
C1840 C 0.19996 0.80381 0.05789 0.0
C1841 C 0.2324 0.82579 0.99146 0.0
C1842 C 0.16561 0.76689 0.07667 0.0
C1843 C 0.17482 0.775 0.08056 0.0
C1844 C 0.19942 0.78704 0.01685 0.0
C1845 C 0.21776 0.81362 0.04025 0.0
C1846 C 0.20856 0.80425 0.03907 0.0
C1847 C 0.18145 0.77745 0.03408 0.0
C1848 C 0.19085 0.78661 0.03608 0.0
H1849 H 0.2292 0.83395 0.1237 0.0
H1850 H 0.21513 0.81785 0.12593 0.0
H1851 H 0.21473 0.7959 0.0039 0.0
H1852 H 0.16767 0.75881 0.94129 0.0
H1853 H 0.18375 0.7731 0.94789 0.0
C1854 C 0.39853 0.22965 0.90886 0.0
C1855 C 0.40205 0.2361 0.95671 0.0
C1856 C 0.40004 0.22176 0.9062 0.0
C1857 C 0.40425 0.20603 0.00443 0.0
H1858 H 0.40871 0.19609 0.85916 0.0
C1859 C 0.4072 0.17167 0.00308 0.0
C1860 C 0.40179 0.16482 0.9595 0.0
C1861 C 0.40875 0.18107 -0.0003 0.0
C1862 C 0.40743 0.19877 0.90001 0.0
H1863 H 0.41037 0.23959 0.03766 0.0
H1864 H 0.41308 0.22589 0.03258 0.0
H1865 H 0.40881 0.21145 0.85851 0.0
H1866 H 0.39413 0.1626 0.87686 0.0
H1867 H 0.3967 0.17897 0.87157 0.0
H1868 H 0.40265 0.1933 0.04578 0.0
C1869 C 0.40899 0.22684 -0.00226 0.0
C1870 C 0.40749 0.20755 0.89964 0.0
C1871 C 0.40747 0.23471 0.0005 0.0
C1872 C 0.39829 0.16769 0.91132 0.0
C1873 C 0.39982 0.17709 0.90804 0.0
C1874 C 0.4042 0.19727 0.00479 0.0
C1875 C 0.40512 0.22016 0.95123 0.0
C1876 C 0.4058 0.21123 0.95178 0.0
C1877 C 0.40492 0.18383 0.95278 0.0
C1878 C 0.40568 0.19348 0.95252 0.0
H1879 H 0.39436 0.23052 0.87424 0.0
H1880 H 0.39689 0.2167 0.87003 0.0
H1881 H 0.40275 0.20856 0.04514 0.0
H1882 H 0.41009 0.16974 0.04049 0.0
H1883 H 0.41285 0.18615 0.03434 0.0
C1884 C 0.76761 0.16897 0.91138 0.0
C1885 C 0.7612 0.16551 0.95944 0.0
C1886 C 0.77522 0.17852 0.91025 0.0
C1887 C 0.79056 0.19821 0.01088 0.0
H1888 H 0.79974 0.21325 0.86722 0.0
C1889 C 0.82499 0.23551 0.00982 0.0
C1890 C 0.83163 0.23692 0.96488 0.0
C1891 C 0.8155 0.2278 0.00701 0.0
C1892 C 0.79727 0.20912 0.90765 0.0
H1893 H 0.75754 0.16953 0.04284 0.0
H1894 H 0.77079 0.18621 0.04054 0.0
H1895 H 0.78458 0.1978 0.86633 0.0
H1896 H 0.83336 0.23163 0.88027 0.0
H1897 H 0.81684 0.21812 0.87589 0.0
H1898 H 0.80333 0.20935 0.05191 0.0
C1899 C 0.77 0.18148 0.00419 0.0
C1900 C 0.7886 0.20028 0.90714 0.0
C1901 C 0.76239 0.17192 0.00537 0.0
C1902 C 0.82845 0.23072 0.91581 0.0
C1903 C 0.81895 0.22301 0.91306 0.0
C1904 C 0.79921 0.20703 0.01139 0.0
C1905 C 0.77659 0.18483 0.95708 0.0
C1906 C 0.78524 0.19465 0.95855 0.0
C1907 C 0.81243 0.22135 0.95923 0.0
C1908 C 0.80275 0.21251 0.95958 0.0
H1909 H 0.7669 0.16424 0.87518 0.0
H1910 H 0.78024 0.18084 0.87364 0.0
H1911 H 0.78826 0.19398 0.05102 0.0
H1912 H 0.82718 0.2402 0.04799 0.0
H1913 H 0.8106 0.2268 0.04281 0.0
C1914 C 0.76368 0.59293 0.00804 0.0
C1915 C 0.76113 0.59713 0.96209 0.0
C1916 C 0.77185 0.5919 0.00321 0.0
C1917 C 0.79516 0.60259 0.92621 0.0
H1918 H 0.79607 0.58037 0.98729 0.0
C1919 C 0.82944 0.59969 0.90583 0.0
C1920 C 0.83236 0.59685 0.95687 0.0
C1921 C 0.82026 0.59869 0.90235 0.0
C1922 C 0.79593 0.58664 0.97037 0.0
H1923 H 0.76495 0.60317 0.87403 0.0
H1924 H 0.77911 0.60128 0.8655 0.0
H1925 H 0.78079 0.58044 0.98824 0.0
H1926 H 0.82777 0.59043 0.04355 0.0
H1927 H 0.81177 0.5888 0.03766 0.0
H1928 H 0.81028 0.60887 0.9092 0.0
C1929 C 0.7749 0.59894 0.90566 0.0
C1930 C 0.78719 0.58668 0.9709 0.0
C1931 C 0.76675 0.59999 0.91049 0.0
C1932 C 0.82576 0.5927 0.00361 0.0
C1933 C 0.81657 0.59171 0.00012 0.0
C1934 C 0.80387 0.60255 0.92567 0.0
C1935 C 0.77762 0.59503 0.95232 0.0
C1936 C 0.78673 0.59469 0.94916 0.0
C1937 C 0.81378 0.59485 0.94982 0.0
C1938 C 0.80438 0.5946 0.94806 0.0
H1939 H 0.75951 0.59064 0.04839 0.0
H1940 H 0.77381 0.58894 0.04017 0.0
H1941 H 0.79509 0.60894 0.91017 0.0
H1942 H 0.83431 0.60284 0.86879 0.0
H1943 H 0.81826 0.60102 0.86261 0.0
C1944 C 0.83359 0.73165 0.41714 0.0
C1945 C 0.83068 0.73435 0.36552 0.0
C1946 C 0.84278 0.73268 0.42119 0.0
C1947 C 0.8671 0.74442 0.35239 0.0
H1948 H 0.86791 0.72242 0.41828 0.0
C1949 C 0.89916 0.73753 0.32045 0.0
C1950 C 0.90167 0.73364 0.36828 0.0
C1951 C 0.89108 0.73874 0.32373 0.0
C1952 C 0.86785 0.72869 0.40058 0.0
H1953 H 0.83528 0.74055 0.27833 0.0
H1954 H 0.85127 0.74218 0.28509 0.0
H1955 H 0.85274 0.72253 0.41764 0.0
H1956 H 0.89794 0.7284 0.4581 0.0
H1957 H 0.88392 0.73057 0.4638 0.0
H1958 H 0.88222 0.75046 0.3343 0.0
C1959 C 0.84648 0.73938 0.32271 0.0
C1960 C 0.85915 0.72876 0.40025 0.0
C1961 C 0.83729 0.73839 0.31873 0.0
C1962 C 0.89615 0.73132 0.42018 0.0
C1963 C 0.88809 0.73253 0.42343 0.0
C1964 C 0.87582 0.74434 0.35262 0.0
C1965 C 0.84926 0.73638 0.37362 0.0
C1966 C 0.85866 0.7366 0.37597 0.0
C1967 C 0.88536 0.73607 0.37489 0.0
C1968 C 0.87627 0.73645 0.37655 0.0
H1969 H 0.82872 0.7286 0.45424 0.0
H1970 H 0.84477 0.73047 0.46143 0.0
H1971 H 0.86697 0.75061 0.33394 0.0
H1972 H 0.90327 0.73941 0.27987 0.0
H1973 H 0.88911 0.74142 0.28544 0.0
C1974 C 0.25592 0.15909 0.31593 0.0
C1975 C 0.26116 0.16573 0.36085 0.0
C1976 C 0.25433 0.14967 0.3179 0.0
C1977 C 0.25525 0.13155 0.41576 0.0
H1978 H 0.26082 0.12246 0.27071 0.0
C1979 C 0.26501 0.10134 0.40771 0.0
C1980 C 0.26171 0.09491 0.35975 0.0
C1981 C 0.26336 0.10914 0.40974 0.0
C1982 C 0.25907 0.12479 0.31134 0.0
H1983 H 0.26853 0.16753 0.44425 0.0
H1984 H 0.26587 0.15114 0.4472 0.0
H1985 H 0.26063 0.13759 0.27107 0.0
H1986 H 0.25374 0.09142 0.27744 0.0
H1987 H 0.25081 0.105 0.28132 0.0
H1988 H 0.25392 0.11882 0.45625 0.0
C1989 C 0.26289 0.15319 0.41077 0.0
C1990 C 0.25895 0.13347 0.31155 0.0
C1991 C 0.26447 0.16262 0.40885 0.0
C1992 C 0.25645 0.09628 0.3148 0.0
C1993 C 0.2548 0.10408 0.31687 0.0
C1994 C 0.25536 0.12285 0.41556 0.0
C1995 C 0.25796 0.14667 0.3648 0.0
C1996 C 0.25719 0.13702 0.36391 0.0
C1997 C 0.25837 0.11068 0.3639 0.0
C1998 C 0.25741 0.11945 0.36349 0.0
H1999 H 0.25319 0.16122 0.27855 0.0
H2000 H 0.25038 0.14476 0.28226 0.0
H2001 H 0.25373 0.13403 0.45662 0.0
H2002 H 0.26905 0.10048 0.44319 0.0
H2003 H 0.2663 0.11415 0.44626 0.0
C2004 C 0.89933 0.1585 0.34009 0.0
C2005 C 0.90158 0.1655 0.3841 0.0
C2006 C 0.89136 0.14921 0.34631 0.0
C2007 C 0.86788 0.13666 0.42095 0.0
H2008 H 0.8674 0.11354 0.36358 0.0
C2009 C 0.83305 0.09972 0.42857 0.0
C2010 C 0.8307 0.09433 0.37611 0.0
C2011 C 0.84229 0.10766 0.43685 0.0
C2012 C 0.86743 0.11994 0.37963 0.0
H2013 H 0.89745 0.16808 0.47041 0.0
H2014 H 0.88364 0.15185 0.48142 0.0
H2015 H 0.88267 0.12889 0.36518 0.0
H2016 H 0.83636 0.09283 0.29228 0.0
H2017 H 0.85242 0.10678 0.30643 0.0
H2018 H 0.85265 0.12782 0.43406 0.0
C2019 C 0.88795 0.1536 0.44167 0.0
C2020 C 0.87616 0.12873 0.38053 0.0
C2021 C 0.8959 0.16289 0.43543 0.0
C2022 C 0.83791 0.09684 0.33315 0.0
C2023 C 0.84715 0.1048 0.34142 0.0
C2024 C 0.85917 0.1279 0.42007 0.0
C2025 C 0.88548 0.14671 0.3967 0.0
C2026 C 0.87645 0.13721 0.40043 0.0
C2027 C 0.84938 0.11041 0.39286 0.0
C2028 C 0.85882 0.11947 0.39863 0.0
H2029 H 0.90356 0.16025 0.30002 0.0
H2030 H 0.88959 0.1441 0.31057 0.0
H2031 H 0.86782 0.14309 0.4356 0.0
H2032 H 0.8277 0.09793 0.46284 0.0
H2033 H 0.84384 0.11176 0.47737 0.0
C2034 C 0.07177 0.50415 0.32767 0.0
C2035 C 0.06723 0.49704 0.28394 0.0
C2036 C 0.07322 0.51345 0.31935 0.0
C2037 C 0.063 0.52603 0.23768 0.0
H2038 H 0.08551 0.5491 0.29681 0.0
C2039 C 0.06555 0.56315 0.22475 0.0
C2040 C 0.06834 0.56853 0.2773 0.0
C2041 C 0.06681 0.55516 0.21779 0.0
C2042 C 0.07917 0.54272 0.28021 0.0
H2043 H 0.06106 0.49427 0.19606 0.0
H2044 H 0.06367 0.51052 0.18149 0.0
H2045 H 0.0852 0.53365 0.29855 0.0
H2046 H 0.07504 0.56997 0.3627 0.0
H2047 H 0.07711 0.55596 0.35082 0.0
H2048 H 0.05685 0.53499 0.22079 0.0
C2049 C 0.06596 0.50884 0.22257 0.0
C2050 C 0.079 0.53388 0.28122 0.0
C2051 C 0.06449 0.49954 0.23089 0.0
C2052 C 0.07279 0.56598 0.32171 0.0
C2053 C 0.07404 0.55798 0.31475 0.0
C2054 C 0.06318 0.53485 0.23667 0.0
C2055 C 0.07018 0.51585 0.2671 0.0
C2056 C 0.07084 0.52541 0.26087 0.0
C2057 C 0.07089 0.55237 0.2632 0.0
C2058 C 0.07119 0.54326 0.25882 0.0
H2059 H 0.07399 0.50248 0.36902 0.0
H2060 H 0.0764 0.51865 0.35479 0.0
H2061 H 0.05655 0.51962 0.22252 0.0
H2062 H 0.06219 0.56498 0.18939 0.0
H2063 H 0.06445 0.55107 0.17719 0.0
C2064 C 0.49603 0.56266 0.22728 0.0
C2065 C 0.49857 0.56836 0.27852 0.0
C2066 C 0.48673 0.55474 0.22061 0.0
C2067 C 0.46175 0.54316 0.27969 0.0
H2068 H 0.46067 0.51951 0.22745 0.0
C2069 C 0.42951 0.50515 0.32643 0.0
C2070 C 0.42697 0.49789 0.28374 0.0
C2071 C 0.43756 0.51432 0.31827 0.0
C2072 C 0.4608 0.52608 0.24105 0.0
H2073 H 0.4932 0.57038 0.36203 0.0
H2074 H 0.47703 0.55647 0.35073 0.0
H2075 H 0.47604 0.53459 0.22667 0.0
H2076 H 0.43063 0.49474 0.19762 0.0
H2077 H 0.44464 0.51078 0.18329 0.0
H2078 H 0.44651 0.53454 0.29546 0.0
C2079 C 0.4822 0.5582 0.31539 0.0
C2080 C 0.46962 0.53474 0.24062 0.0
C2081 C 0.4915 0.56614 0.32205 0.0
C2082 C 0.43244 0.50013 0.23166 0.0
C2083 C 0.44049 0.50931 0.2235 0.0
C2084 C 0.45291 0.53449 0.28012 0.0
C2085 C 0.47977 0.55232 0.26504 0.0
C2086 C 0.47022 0.54335 0.26075 0.0
C2087 C 0.44324 0.51645 0.26721 0.0
C2088 C 0.45238 0.52583 0.26163 0.0
H2089 H 0.50127 0.56419 0.19269 0.0
H2090 H 0.48503 0.55043 0.18092 0.0
H2091 H 0.46196 0.54971 0.29467 0.0
H2092 H 0.42544 0.50368 0.367 0.0
H2093 H 0.43955 0.51962 0.35306 0.0
C2094 C 0.4295 0.9239 0.34627 0.0
C2095 C 0.42816 0.92857 0.29773 0.0
C2096 C 0.43704 0.92184 0.34663 0.0
C2097 C 0.45505 0.92023 0.25103 0.0
H2098 H 0.47051 0.92753 0.39345 0.0
C2099 C 0.49487 0.92956 0.25671 0.0
C2100 C 0.49825 0.92695 0.30665 0.0
C2101 C 0.4854 0.92786 0.25473 0.0
C2102 C 0.46618 0.92527 0.3537 0.0
H2103 H 0.43346 0.9344 0.21054 0.0
H2104 H 0.44667 0.93095 0.21166 0.0
H2105 H 0.45548 0.92791 0.39174 0.0
H2106 H 0.49418 0.92009 0.39254 0.0
H2107 H 0.47764 0.91709 0.38879 0.0
H2108 H 0.46596 0.91788 0.21254 0.0
C2109 C 0.44184 0.92877 0.24917 0.0
C2110 C 0.45756 0.92549 0.35272 0.0
C2111 C 0.43431 0.93083 0.24876 0.0
C2112 C 0.49184 0.92226 0.35358 0.0
C2113 C 0.48237 0.92057 0.35158 0.0
C2114 C 0.4637 0.92002 0.25199 0.0
C2115 C 0.44339 0.9244 0.29848 0.0
C2116 C 0.45198 0.92314 0.30106 0.0
C2117 C 0.47911 0.92351 0.3026 0.0
C2118 C 0.46944 0.92271 0.30304 0.0
H2119 H 0.42485 0.922 0.38453 0.0
H2120 H 0.43797 0.91834 0.38494 0.0
H2121 H 0.45084 0.91823 0.21085 0.0
H2122 H 0.4996 0.93314 0.21967 0.0
H2123 H 0.48313 0.9303 0.2166 0.0
C2124 C 0.50097 0.06603 0.75063 0.0
C2125 C 0.49796 0.06858 0.69882 0.0
C2126 C 0.51024 0.06727 0.75481 0.0
C2127 C 0.53455 0.07937 0.68586 0.0
H2128 H 0.5358 0.05753 0.75056 0.0
C2129 C 0.56671 0.07287 0.64863 0.0
C2130 C 0.56937 0.06888 0.69526 0.0
C2131 C 0.55864 0.07405 0.65371 0.0
C2132 C 0.53563 0.06377 0.73327 0.0
H2133 H 0.50247 0.07474 0.6115 0.0
H2134 H 0.5186 0.07675 0.61852 0.0
H2135 H 0.52053 0.05742 0.7512 0.0
H2136 H 0.56592 0.06347 0.78489 0.0
H2137 H 0.55193 0.06564 0.79378 0.0
H2138 H 0.54966 0.0856 0.66681 0.0
C2139 C 0.51382 0.07391 0.65616 0.0
C2140 C 0.52686 0.0637 0.73365 0.0
C2141 C 0.50455 0.07269 0.65202 0.0
C2142 C 0.56402 0.06648 0.74788 0.0
C2143 C 0.55597 0.06768 0.75294 0.0
C2144 C 0.54334 0.07942 0.68542 0.0
C2145 C 0.51671 0.07105 0.70723 0.0
C2146 C 0.5262 0.07146 0.70959 0.0
C2147 C 0.55308 0.07129 0.70551 0.0
C2148 C 0.54395 0.07159 0.70877 0.0
H2149 H 0.49611 0.06292 0.78776 0.0
H2150 H 0.51231 0.06516 0.79514 0.0
H2151 H 0.5343 0.0855 0.66761 0.0
H2152 H 0.57068 0.07481 0.60753 0.0
H2153 H 0.55654 0.07678 0.61621 0.0
C2154 C 0.9211 0.49203 0.65744 0.0
C2155 C 0.92671 0.49874 0.70116 0.0
C2156 C 0.91916 0.48249 0.6603 0.0
C2157 C 0.92 0.46432 0.75837 0.0
H2158 H 0.92472 0.45473 0.61251 0.0
C2159 C 0.92967 0.43407 0.74841 0.0
C2160 C 0.9263 0.42762 0.70056 0.0
C2161 C 0.92788 0.44177 0.75115 0.0
C2162 C 0.92318 0.4572 0.6534 0.0
H2163 H 0.93428 0.50056 0.78375 0.0
H2164 H 0.93104 0.48396 0.78815 0.0
H2165 H 0.92479 0.46998 0.61282 0.0
H2166 H 0.91799 0.42394 0.61953 0.0
H2167 H 0.9148 0.43733 0.62467 0.0
H2168 H 0.91867 0.45161 0.79915 0.0
C2169 C 0.92806 0.48605 0.75194 0.0
C2170 C 0.92322 0.46595 0.65358 0.0
C2171 C 0.92997 0.49559 0.74916 0.0
C2172 C 0.92077 0.42882 0.65672 0.0
C2173 C 0.91897 0.43652 0.65953 0.0
C2174 C 0.91996 0.45554 0.75819 0.0
C2175 C 0.9228 0.47945 0.70688 0.0
C2176 C 0.92178 0.46969 0.70621 0.0
C2177 C 0.92266 0.44319 0.70618 0.0
C2178 C 0.92171 0.45197 0.70584 0.0
H2179 H 0.91837 0.49418 0.62017 0.0
H2180 H 0.91496 0.47753 0.62543 0.0
H2181 H 0.91873 0.46695 0.79946 0.0
H2182 H 0.93394 0.43336 0.78301 0.0
H2183 H 0.93091 0.44684 0.78735 0.0
C2184 C 0.50389 0.42906 0.64674 0.0
C2185 C 0.49749 0.42761 0.69322 0.0
C2186 C 0.5134 0.43675 0.64832 0.0
C2187 C 0.5321 0.45526 0.74656 0.0
H2188 H 0.54088 0.47038 0.60301 0.0
C2189 C 0.5623 0.49524 0.74048 0.0
C2190 C 0.5686 0.4985 0.69192 0.0
C2191 C 0.55454 0.48577 0.74234 0.0
C2192 C 0.53863 0.46616 0.64317 0.0
H2193 H 0.49618 0.43287 0.77896 0.0
H2194 H 0.5127 0.44636 0.78114 0.0
H2195 H 0.52564 0.45516 0.60325 0.0
H2196 H 0.57194 0.4942 0.6084 0.0
H2197 H 0.55842 0.47767 0.61192 0.0
H2198 H 0.545 0.46646 0.7868 0.0
C2199 C 0.51041 0.4415 0.74378 0.0
C2200 C 0.52989 0.45742 0.64331 0.0
C2201 C 0.50091 0.43379 0.74229 0.0
C2202 C 0.56718 0.49196 0.64625 0.0
C2203 C 0.55941 0.48249 0.64813 0.0
C2204 C 0.54085 0.46402 0.74644 0.0
C2205 C 0.51671 0.44317 0.69633 0.0
C2206 C 0.52645 0.45195 0.69521 0.0
C2207 C 0.55292 0.47935 0.69571 0.0
C2208 C 0.54413 0.46963 0.69494 0.0
H2209 H 0.50152 0.42438 0.60851 0.0
H2210 H 0.51813 0.43776 0.6115 0.0
H2211 H 0.52971 0.45113 0.78702 0.0
H2212 H 0.56321 0.50007 0.77654 0.0
H2213 H 0.54961 0.48359 0.77934 0.0
C2214 C 0.73286 0.89671 0.58144 0.0
C2215 C 0.73578 0.90312 0.62948 0.0
C2216 C 0.73487 0.88916 0.58023 0.0
C2217 C 0.73922 0.87383 0.68065 0.0
H2218 H 0.74501 0.86466 0.53668 0.0
C2219 C 0.74151 0.83901 0.67696 0.0
C2220 C 0.73629 0.83253 0.63133 0.0
C2221 C 0.7434 0.84855 0.67526 0.0
C2222 C 0.74338 0.86713 0.5772 0.0
H2223 H 0.74348 0.90684 0.71278 0.0
H2224 H 0.74703 0.89366 0.7104 0.0
H2225 H 0.7449 0.87991 0.53631 0.0
H2226 H 0.72928 0.8311 0.54704 0.0
H2227 H 0.73247 0.84767 0.54451 0.0
H2228 H 0.73741 0.86095 0.7212 0.0
C2229 C 0.74307 0.89442 0.67408 0.0
C2230 C 0.74332 0.87585 0.57699 0.0
C2231 C 0.74106 0.90199 0.67531 0.0
C2232 C 0.73331 0.83589 0.58297 0.0
C2233 C 0.7352 0.84542 0.58129 0.0
C2234 C 0.73928 0.86512 0.68086 0.0
C2235 C 0.73985 0.88783 0.627 0.0
C2236 C 0.74104 0.87919 0.62845 0.0
C2237 C 0.74012 0.85181 0.62789 0.0
C2238 C 0.74117 0.86158 0.62888 0.0
H2239 H 0.72878 0.89736 0.54538 0.0
H2240 H 0.73218 0.88413 0.54368 0.0
H2241 H 0.7373 0.87612 0.72083 0.0
H2242 H 0.74398 0.83669 0.71466 0.0
H2243 H 0.74732 0.85334 0.71144 0.0
C2244 C 0.16371 0.89798 0.56554 0.0
C2245 C 0.166 0.90332 0.61816 0.0
C2246 C 0.15449 0.89 0.55699 0.0
C2247 C 0.12933 0.87759 0.61393 0.0
H2248 H 0.12907 0.8545 0.55814 0.0
C2249 C 0.09764 0.83902 0.65505 0.0
C2250 C 0.09533 0.832 0.61109 0.0
C2251 C 0.1056 0.84831 0.64849 0.0
C2252 C 0.12897 0.86091 0.57274 0.0
H2253 H 0.16027 0.90471 0.70196 0.0
H2254 H 0.14426 0.89073 0.68734 0.0
H2255 H 0.14419 0.86982 0.55928 0.0
H2256 H 0.09936 0.82937 0.52462 0.0
H2257 H 0.11317 0.84559 0.51305 0.0
H2258 H 0.11412 0.86857 0.62878 0.0
C2259 C 0.14955 0.89276 0.65243 0.0
C2260 C 0.13765 0.8697 0.57338 0.0
C2261 C 0.15876 0.90074 0.66099 0.0
C2262 C 0.10096 0.83457 0.55956 0.0
C2263 C 0.10891 0.84386 0.55299 0.0
C2264 C 0.12063 0.86878 0.61328 0.0
C2265 C 0.14737 0.88719 0.60084 0.0
C2266 C 0.13796 0.87811 0.59485 0.0
C2267 C 0.11141 0.85078 0.5978 0.0
C2268 C 0.1204 0.86031 0.59354 0.0
H2269 H 0.16909 0.89982 0.53138 0.0
H2270 H 0.15299 0.88594 0.51638 0.0
H2271 H 0.12932 0.88397 0.62996 0.0
H2272 H 0.09345 0.83729 0.69526 0.0
H2273 H 0.1074 0.85344 0.68412 0.0
C2274 C 0.09552 0.25669 0.68188 0.0
C2275 C 0.09398 0.26168 0.63598 0.0
C2276 C 0.10328 0.25498 0.67967 0.0
C2277 C 0.12175 0.25506 0.57996 0.0
H2278 H 0.137 0.26116 0.72285 0.0
C2279 C 0.16171 0.26477 0.58336 0.0
C2280 C 0.16502 0.26165 0.63128 0.0
C2281 C 0.15225 0.26308 0.58226 0.0
C2282 C 0.13274 0.25925 0.68285 0.0
H2283 H 0.09918 0.26844 0.55065 0.0
H2284 H 0.11279 0.26561 0.54735 0.0
H2285 H 0.12178 0.26118 0.72391 0.0
H2286 H 0.16083 0.25392 0.71449 0.0
H2287 H 0.1443 0.25094 0.7123 0.0
H2288 H 0.1329 0.25341 0.53859 0.0
C2289 C 0.10794 0.26292 0.58475 0.0
C2290 C 0.12401 0.25926 0.68346 0.0
C2291 C 0.10017 0.26461 0.58689 0.0
C2292 C 0.15855 0.2565 0.6771 0.0
C2293 C 0.14908 0.25481 0.676 0.0
C2294 C 0.13051 0.25507 0.57933 0.0
C2295 C 0.10968 0.25823 0.63157 0.0
C2296 C 0.11848 0.25731 0.63183 0.0
C2297 C 0.14588 0.25823 0.62905 0.0
C2298 C 0.13617 0.25731 0.63058 0.0
H2299 H 0.09084 0.25426 0.72013 0.0
H2300 H 0.10435 0.25122 0.71601 0.0
H2301 H 0.11758 0.25339 0.53968 0.0
H2302 H 0.1665 0.26875 0.54726 0.0
H2303 H 0.15003 0.26589 0.54577 0.0
C2304 C 0.08298 0.29666 0.77722 0.0
C2305 C 0.08295 0.29569 0.71566 0.0
C2306 C 0.08659 0.30576 0.80305 0.0
C2307 C 0.10314 0.33158 0.77347 0.0
H2308 H 0.09111 0.33531 0.91173 0.0
C2309 C 0.11754 0.36914 0.8777 0.0
C2310 C 0.11853 0.36965 0.93933 0.0
C2311 C 0.11239 0.36021 0.8494 0.0
C2312 C 0.09458 0.33436 0.87337 0.0
H2313 H 0.0865 0.30354 0.63295 0.0
H2314 H 0.09273 0.31942 0.67812 0.0
H2315 H 0.08356 0.31953 0.86347 0.0
H2316 H 0.11461 0.36114 0.01964 0.0
H2317 H 0.10568 0.34555 0.97006 0.0
H2318 H 0.11421 0.34635 0.78365 0.0
C2319 C 0.09008 0.31313 0.70639 0.0
C2320 C 0.09026 0.32533 0.84573 0.0
C2321 C 0.08647 0.30403 0.68051 0.0
C2322 C 0.114 0.36102 0.97211 0.0
C2323 C 0.10884 0.35208 0.94373 0.0
C2324 C 0.10744 0.3406 0.80102 0.0
C2325 C 0.09025 0.31411 0.76798 0.0
C2326 C 0.09454 0.32382 0.79573 0.0
C2327 C 0.1081 0.35158 0.882 0.0
C2328 C 0.10325 0.34208 0.85151 0.0
H2329 H 0.08033 0.29039 0.80569 0.0
H2330 H 0.08674 0.30626 0.85063 0.0
H2331 H 0.10671 0.33062 0.73566 0.0
H2332 H 0.12087 0.37564 0.85104 0.0
H2333 H 0.11181 0.36007 0.80185 0.0
C2334 C 0.63678 0.75482 0.97464 0.0
C2335 C 0.62806 0.75107 0.94306 0.0
C2336 C 0.64562 0.75872 0.945 0.0
C2337 C 0.65699 0.76946 0.80274 0.0
H2338 H 0.67742 0.76502 0.85824 0.0
C2339 C 0.69305 0.78378 0.6772 0.0
C2340 C 0.70151 0.78808 0.71157 0.0
C2341 C 0.68396 0.77862 0.70384 0.0
C2342 C 0.67181 0.76638 0.84248 0.0
H2343 H 0.62181 0.74833 0.85538 0.0
H2344 H 0.63721 0.75506 0.80389 0.0
H2345 H 0.66177 0.75718 0.90799 0.0
H2346 H 0.70703 0.79018 0.80097 0.0
H2347 H 0.6912 0.78129 0.84723 0.0
H2348 H 0.66704 0.77873 0.73765 0.0
C2349 C 0.63722 0.7551 0.85157 0.0
C2350 C 0.66285 0.7619 0.87099 0.0
C2351 C 0.62838 0.7512 0.88116 0.0
C2352 C 0.70067 0.78697 0.77309 0.0
C2353 C 0.69159 0.78181 0.79966 0.0
C2354 C 0.66594 0.77394 0.77425 0.0
C2355 C 0.64594 0.75896 0.88314 0.0
C2356 C 0.65536 0.76344 0.85168 0.0
C2357 C 0.68313 0.77763 0.7654 0.0
C2358 C 0.67348 0.77251 0.79405 0.0
H2359 H 0.6368 0.75484 0.02233 0.0
H2360 H 0.65222 0.76174 0.97061 0.0
H2361 H 0.65141 0.77091 0.7873 0.0
H2362 H 0.69343 0.78445 0.62969 0.0
H2363 H 0.67758 0.77539 0.67618 0.0
C2364 C 0.24111 0.88077 0.99007 0.0
C2365 C 0.24577 0.87688 0.95656 0.0
C2366 C 0.23718 0.88588 0.96269 0.0
C2367 C 0.22812 0.8884 0.81839 0.0
H2368 H 0.22989 0.91151 0.88641 0.0
C2369 C 0.21479 0.9109 0.69377 0.0
C2370 C 0.20938 0.91406 0.72621 0.0
C2371 C 0.21973 0.90691 0.72234 0.0
C2372 C 0.22927 0.90502 0.86715 0.0
H2373 H 0.25023 0.87562 0.8682 0.0
H2374 H 0.24349 0.88459 0.82091 0.0
H2375 H 0.23763 0.90356 0.93606 0.0
H2376 H 0.20511 0.91567 0.81436 0.0
H2377 H 0.21365 0.90862 0.86399 0.0
H2378 H 0.21973 0.88978 0.74978 0.0
C2379 C 0.24271 0.88354 0.86813 0.0
C2380 C 0.2337 0.90047 0.89559 0.0
C2381 C 0.24662 0.87844 0.89538 0.0
C2382 C 0.2092 0.91331 0.78796 0.0
C2383 C 0.21414 0.90932 0.81651 0.0
C2384 C 0.22371 0.89294 0.79002 0.0
C2385 C 0.23782 0.8872 0.9013 0.0
C2386 C 0.23318 0.89211 0.87144 0.0
C2387 C 0.21939 0.90599 0.78398 0.0
C2388 C 0.22424 0.9013 0.81401 0.0
H2389 H 0.24033 0.87971 0.03729 0.0
H2390 H 0.2334 0.88856 0.98941 0.0
H2391 H 0.22743 0.88187 0.79921 0.0
H2392 H 0.21514 0.91142 0.6462 0.0
H2393 H 0.22383 0.90455 0.69609 0.0
C2394 C 0.30345 0.08734 0.31032 0.0
C2395 C 0.29481 0.08309 0.27763 0.0
C2396 C 0.31239 0.09111 0.28195 0.0
C2397 C 0.32387 0.10072 0.13836 0.0
H2398 H 0.34492 0.09807 0.20288 0.0
C2399 C 0.36011 0.11522 0.01603 0.0
C2400 C 0.36856 0.12024 0.05008 0.0
C2401 C 0.35108 0.10997 0.04306 0.0
C2402 C 0.33913 0.09894 0.18458 0.0
H2403 H 0.2888 0.07922 0.1895 0.0
H2404 H 0.30438 0.08572 0.14028 0.0
H2405 H 0.32917 0.09012 0.25163 0.0
H2406 H 0.37412 0.1235 0.13941 0.0
H2407 H 0.35835 0.11443 0.18643 0.0
H2408 H 0.33382 0.10962 0.07179 0.0
C2409 C 0.30424 0.08627 0.18776 0.0
C2410 C 0.33011 0.09438 0.21249 0.0
C2411 C 0.29531 0.0825 0.21607 0.0
C2412 C 0.36777 0.11972 0.11181 0.0
C2413 C 0.35873 0.11447 0.13882 0.0
C2414 C 0.33287 0.10527 0.11051 0.0
C2415 C 0.31289 0.09073 0.22029 0.0
C2416 C 0.32239 0.09526 0.18981 0.0
C2417 C 0.35027 0.10961 0.10475 0.0
C2418 C 0.34062 0.10447 0.13343 0.0
H2419 H 0.30334 0.08792 0.35779 0.0
H2420 H 0.31893 0.09458 0.30823 0.0
H2421 H 0.31812 0.10169 0.12033 0.0
H2422 H 0.36045 0.11541 0.96839 0.0
H2423 H 0.34471 0.10619 0.01558 0.0
C2424 C 0.87994 0.24191 0.02256 0.0
C2425 C 0.87543 0.24594 0.05619 0.0
C2426 C 0.88497 0.23792 0.05004 0.0
C2427 C 0.89655 0.23763 0.19046 0.0
H2428 H 0.89263 0.21307 0.13237 0.0
C2429 C 0.90853 0.21412 0.31939 0.0
C2430 C 0.91241 0.20937 0.28683 0.0
C2431 C 0.90457 0.21909 0.29072 0.0
C2432 C 0.89391 0.21999 0.14867 0.0
H2433 H 0.8728 0.24903 0.14521 0.0
H2434 H 0.88148 0.24198 0.19299 0.0
H2435 H 0.88475 0.22083 0.08305 0.0
H2436 H 0.9154 0.20634 0.19849 0.0
H2437 H 0.90858 0.21507 0.14875 0.0
H2438 H 0.90566 0.23673 0.25642 0.0
C2439 C 0.88121 0.24201 0.14535 0.0
C2440 C 0.88939 0.22444 0.12038 0.0
C2441 C 0.87618 0.246 0.1179 0.0
C2442 C 0.91241 0.20986 0.22501 0.0
C2443 C 0.90846 0.21483 0.19642 0.0
C2444 C 0.90108 0.23317 0.21879 0.0
C2445 C 0.88561 0.23786 0.11175 0.0
C2446 C 0.89064 0.23329 0.14105 0.0
C2447 C 0.9044 0.21942 0.2289 0.0
C2448 C 0.89978 0.22429 0.19829 0.0
H2449 H 0.87955 0.24179 0.97493 0.0
H2450 H 0.88839 0.2349 0.0229 0.0
H2451 H 0.89776 0.24451 0.20697 0.0
H2452 H 0.9084 0.21389 0.36706 0.0
H2453 H 0.90141 0.22248 0.31701 0.0
C2454 C 0.74826 0.62978 0.11088 0.0
C2455 C 0.74799 0.62894 0.04918 0.0
C2456 C 0.752 0.63884 0.13757 0.0
C2457 C 0.76878 0.66458 0.10854 0.0
H2458 H 0.75771 0.6685 0.25064 0.0
C2459 C 0.7846 0.70209 0.21591 0.0
C2460 C 0.78572 0.70249 0.27744 0.0
C2461 C 0.7792 0.69323 0.18728 0.0
C2462 C 0.76092 0.66749 0.21121 0.0
H2463 H 0.75114 0.63695 0.96719 0.0
H2464 H 0.7576 0.65274 0.01387 0.0
H2465 H 0.74957 0.65279 0.20149 0.0
H2466 H 0.78183 0.69386 0.35723 0.0
H2467 H 0.7725 0.67838 0.30706 0.0
H2468 H 0.7802 0.6792 0.11857 0.0
C2469 C 0.75505 0.64639 0.04155 0.0
C2470 C 0.75626 0.6585 0.18305 0.0
C2471 C 0.7513 0.63734 0.01482 0.0
C2472 C 0.78112 0.69382 0.30979 0.0
C2473 C 0.77572 0.68495 0.28108 0.0
C2474 C 0.77344 0.67355 0.13665 0.0
C2475 C 0.75556 0.64726 0.10321 0.0
C2476 C 0.76018 0.65693 0.13162 0.0
C2477 C 0.7748 0.68455 0.21943 0.0
C2478 C 0.7696 0.6751 0.18851 0.0
H2479 H 0.74576 0.62347 0.13874 0.0
H2480 H 0.75239 0.63927 0.18517 0.0
H2481 H 0.77209 0.66355 0.0696 0.0
H2482 H 0.78798 0.70863 0.1896 0.0
H2483 H 0.7785 0.69318 0.13983 0.0
C2484 C 0.91843 0.70025 0.23437 0.0
C2485 C 0.91417 0.70096 0.2868 0.0
C2486 C 0.91493 0.69134 0.20621 0.0
C2487 C 0.89814 0.66471 0.22659 0.0
H2488 H 0.89877 0.66493 0.05606 0.0
C2489 C 0.88206 0.62911 0.09546 0.0
C2490 C 0.87746 0.62863 0.04191 0.0
C2491 C 0.88754 0.63795 0.1243 0.0
C2492 C 0.8984 0.6647 0.10365 0.0
H2493 H 0.90298 0.69294 0.35125 0.0
H2494 H 0.89648 0.6775 0.30071 0.0
H2495 H 0.906 0.68009 0.10915 0.0
H2496 H 0.87497 0.63699 0.97633 0.0
H2497 H 0.88403 0.65231 0.02789 0.0
H2498 H 0.88987 0.64933 0.22097 0.0
C2499 C 0.90276 0.6837 0.28214 0.0
C2500 C 0.90275 0.67345 0.13438 0.0
C2501 C 0.90644 0.69257 0.31107 0.0
C2502 C 0.87851 0.63717 0.01736 0.0
C2503 C 0.88379 0.64598 0.04689 0.0
C2504 C 0.89359 0.65597 0.19583 0.0
C2505 C 0.9069 0.68296 0.22897 0.0
C2506 C 0.90264 0.67359 0.19634 0.0
C2507 C 0.88834 0.6465 0.10102 0.0
C2508 C 0.8936 0.65582 0.13386 0.0
H2509 H 0.92449 0.7066 0.2151 0.0
H2510 H 0.91851 0.69106 0.1664 0.0
H2511 H 0.89805 0.66447 0.27421 0.0
H2512 H 0.88145 0.62263 0.11503 0.0
H2513 H 0.89113 0.63804 0.16496 0.0
C2514 C 0.36009 0.24302 0.0171 0.0
C2515 C 0.36874 0.24707 0.04957 0.0
C2516 C 0.35117 0.23921 0.04583 0.0
C2517 C 0.33968 0.2292 0.18889 0.0
H2518 H 0.31898 0.23276 0.12792 0.0
C2519 C 0.30352 0.21496 0.31249 0.0
C2520 C 0.29507 0.21029 0.27816 0.0
C2521 C 0.3126 0.22014 0.2857 0.0
C2522 C 0.32467 0.23164 0.14522 0.0
H2523 H 0.3748 0.2505 0.13775 0.0
H2524 H 0.35928 0.24393 0.18756 0.0
H2525 H 0.33468 0.24054 0.07866 0.0
H2526 H 0.28955 0.20757 0.18866 0.0
H2527 H 0.30536 0.2165 0.14215 0.0
H2528 H 0.32967 0.22021 0.25497 0.0
C2529 C 0.35938 0.24357 0.13996 0.0
C2530 C 0.33366 0.2361 0.117 0.0
C2531 C 0.36828 0.24738 0.11131 0.0
C2532 C 0.2959 0.21107 0.2165 0.0
C2533 C 0.30497 0.21626 0.18977 0.0
C2534 C 0.33071 0.22474 0.21705 0.0
C2535 C 0.35072 0.23936 0.10762 0.0
C2536 C 0.34125 0.23488 0.13837 0.0
C2537 C 0.31342 0.22078 0.22403 0.0
C2538 C 0.32308 0.22587 0.19538 0.0
H2539 H 0.36017 0.24266 0.9695 0.0
H2540 H 0.34462 0.23593 0.01968 0.0
H2541 H 0.34533 0.22799 0.20591 0.0
H2542 H 0.30316 0.21454 0.3601 0.0
H2543 H 0.31897 0.22366 0.31335 0.0
C2544 C 0.78728 0.08399 0.20522 0.0
C2545 C 0.78737 0.08374 0.26711 0.0
C2546 C 0.7823 0.08783 0.17561 0.0
C2547 C 0.7632 0.09429 0.19448 0.0
H2548 H 0.77598 0.11143 0.06257 0.0
C2549 C 0.7504 0.11938 0.09738 0.0
C2550 C 0.75082 0.12066 0.03597 0.0
C2551 C 0.75428 0.11417 0.1238 0.0
C2552 C 0.77225 0.10655 0.09875 0.0
H2553 H 0.78213 0.08723 0.34635 0.0
H2554 H 0.77351 0.09402 0.2946 0.0
H2555 H 0.78382 0.10365 0.1122 0.0
H2556 H 0.75548 0.11724 0.95408 0.0
H2557 H 0.76218 0.10808 0.0003 0.0
H2558 H 0.75167 0.09729 0.18136 0.0
C2559 C 0.77722 0.09114 0.269 0.0
C2560 C 0.77674 0.10209 0.12723 0.0
C2561 C 0.78222 0.0873 0.29866 0.0
C2562 C 0.75507 0.11645 0.00151 0.0
C2563 C 0.75895 0.11124 0.028 0.0
C2564 C 0.7587 0.09875 0.16597 0.0
C2565 C 0.77727 0.09151 0.20714 0.0
C2566 C 0.7723 0.09596 0.17567 0.0
C2567 C 0.75867 0.11011 0.08949 0.0
C2568 C 0.76321 0.10499 0.11805 0.0
H2569 H 0.79113 0.08127 0.17946 0.0
H2570 H 0.78236 0.08789 0.12793 0.0
H2571 H 0.75953 0.08949 0.23109 0.0
H2572 H 0.7472 0.12253 0.12532 0.0
H2573 H 0.75405 0.11354 0.17133 0.0
C2574 C 0.69983 0.91263 0.7699 0.0
C2575 C 0.70066 0.91232 0.7084 0.0
C2576 C 0.69074 0.90858 0.79658 0.0
C2577 C 0.6652 0.89041 0.77151 0.0
H2578 H 0.66071 0.90283 0.90491 0.0
C2579 C 0.62755 0.87506 0.87802 0.0
C2580 C 0.62721 0.8749 0.93991 0.0
C2581 C 0.63638 0.88008 0.84851 0.0
C2582 C 0.66188 0.89924 0.86801 0.0
H2583 H 0.69255 0.90768 0.62663 0.0
H2584 H 0.6767 0.90068 0.67329 0.0
H2585 H 0.67636 0.91087 0.85517 0.0
H2586 H 0.63592 0.88002 0.01926 0.0
H2587 H 0.65133 0.88871 0.96768 0.0
H2588 H 0.65077 0.87874 0.78463 0.0
C2589 C 0.68309 0.90395 0.70087 0.0
C2590 C 0.67084 0.90384 0.8395 0.0
C2591 C 0.69218 0.90801 0.67413 0.0
C2592 C 0.63591 0.87999 0.97157 0.0
C2593 C 0.64475 0.88503 0.94201 0.0
C2594 C 0.65625 0.88581 0.79998 0.0
C2595 C 0.68227 0.90413 0.76243 0.0
C2596 C 0.67262 0.89945 0.79117 0.0
C2597 C 0.64509 0.88508 0.88016 0.0
C2598 C 0.6545 0.89014 0.84879 0.0
H2599 H 0.70619 0.91589 0.79769 0.0
H2600 H 0.69036 0.90873 0.84414 0.0
H2601 H 0.66639 0.88676 0.735 0.0
H2602 H 0.62099 0.87126 0.85219 0.0
H2603 H 0.63639 0.88009 0.80083 0.0
C2604 C 0.08667 0.78227 0.67201 0.0
C2605 C 0.08343 0.78747 0.70581 0.0
C2606 C 0.09027 0.77687 0.69934 0.0
C2607 C 0.09077 0.76574 0.84134 0.0
H2608 H 0.11434 0.76785 0.77853 0.0
C2609 C 0.11406 0.75343 0.96954 0.0
C2610 C 0.11839 0.74907 0.93739 0.0
C2611 C 0.10908 0.75735 0.94056 0.0
C2612 C 0.10768 0.76706 0.79616 0.0
H2613 H 0.08129 0.79094 0.79501 0.0
H2614 H 0.08766 0.78161 0.84247 0.0
H2615 H 0.10694 0.77604 0.72896 0.0
H2616 H 0.12057 0.7451 0.84961 0.0
H2617 H 0.11179 0.75182 0.79937 0.0
H2618 H 0.09159 0.75683 0.90898 0.0
C2619 C 0.08731 0.78162 0.79485 0.0
C2620 C 0.10343 0.77176 0.76772 0.0
C2621 C 0.08372 0.78702 0.76756 0.0
C2622 C 0.11739 0.74848 0.87578 0.0
C2623 C 0.1124 0.75238 0.84688 0.0
C2624 C 0.09502 0.76102 0.86982 0.0
C2625 C 0.0907 0.77655 0.76106 0.0
C2626 C 0.09496 0.7712 0.79014 0.0
C2627 C 0.1083 0.75697 0.87884 0.0
C2628 C 0.10355 0.76167 0.8477 0.0
H2629 H 0.0865 0.78241 0.62436 0.0
H2630 H 0.09271 0.77294 0.67208 0.0
H2631 H 0.08417 0.76506 0.85926 0.0
H2632 H 0.11469 0.75402 0.01704 0.0
H2633 H 0.10608 0.76092 0.96644 0.0
C2634 C 0.21115 0.29585 0.77403 0.0
C2635 C 0.20989 0.29536 0.7126 0.0
C2636 C 0.21643 0.30476 0.80229 0.0
C2637 C 0.23434 0.33053 0.77751 0.0
H2638 H 0.22333 0.33431 0.92033 0.0
C2639 C 0.24734 0.36814 0.88092 0.0
C2640 C 0.24758 0.36885 0.94269 0.0
C2641 C 0.24353 0.35914 0.85344 0.0
C2642 C 0.22659 0.33334 0.88103 0.0
H2643 H 0.21339 0.3039 0.63258 0.0
H2644 H 0.22254 0.31948 0.68215 0.0
H2645 H 0.21521 0.3187 0.87098 0.0
H2646 H 0.2443 0.36065 0.02397 0.0
H2647 H 0.23776 0.34496 0.97596 0.0
H2648 H 0.24569 0.34523 0.78742 0.0
C2649 C 0.2195 0.31294 0.70831 0.0
C2650 C 0.22193 0.32439 0.85269 0.0
C2651 C 0.21421 0.30401 0.67996 0.0
C2652 C 0.24417 0.36037 0.97631 0.0
C2653 C 0.24037 0.35136 0.94881 0.0
C2654 C 0.23903 0.3395 0.80595 0.0
C2655 C 0.22057 0.31341 0.76986 0.0
C2656 C 0.22572 0.32289 0.80049 0.0
C2657 C 0.23987 0.35063 0.88707 0.0
C2658 C 0.23517 0.34101 0.85792 0.0
H2659 H 0.20798 0.28934 0.80058 0.0
H2660 H 0.21725 0.30487 0.84966 0.0
H2661 H 0.23751 0.32956 0.73777 0.0
H2662 H 0.2499 0.37453 0.85362 0.0
H2663 H 0.24316 0.35882 0.80582 0.0
C2664 C 0.0256 0.44847 0.35047 0.0
C2665 C 0.03422 0.45316 0.38328 0.0
C2666 C 0.01664 0.44358 0.37893 0.0
C2667 C 0.00512 0.44296 0.5207 0.0
H2668 H 0.98421 0.41854 0.4631 0.0
C2669 C 0.9692 0.42161 0.64739 0.0
C2670 C 0.96066 0.41768 0.61381 0.0
C2671 C 0.97821 0.42543 0.61985 0.0
C2672 C 0.98996 0.4254 0.47942 0.0
H2673 H 0.04016 0.45613 0.47182 0.0
H2674 H 0.02458 0.44754 0.52111 0.0
H2675 H -0.00012 0.42609 0.41346 0.0
H2676 H 0.95492 0.41457 0.52482 0.0
H2677 H 0.97062 0.42132 0.47697 0.0
H2678 H 0.99521 0.44233 0.58629 0.0
C2679 C 0.02473 0.44778 0.47345 0.0
C2680 C -0.00107 0.42972 0.45097 0.0
C2681 C 0.03367 0.45266 0.44509 0.0
C2682 C 0.96134 0.41753 0.55211 0.0
C2683 C 0.97035 0.42135 0.52461 0.0
C2684 C 0.99616 0.43864 0.5491 0.0
C2685 C 0.01611 0.44328 0.44077 0.0
C2686 C 0.0066 0.43856 0.47126 0.0
C2687 C 0.97888 0.4254 0.55813 0.0
C2688 C 0.98847 0.42983 0.52872 0.0
H2689 H 0.02576 0.44871 0.30281 0.0
H2690 H 0.01012 0.44025 0.3525 0.0
H2691 H 0.01082 0.44986 0.53681 0.0
H2692 H 0.96895 0.42179 0.695 0.0
H2693 H 0.98465 0.42839 0.64694 0.0
C2694 C 0.57509 0.54732 0.64065 0.0
C2695 C 0.57956 0.5431 0.60851 0.0
C2696 C 0.57124 0.55238 0.61174 0.0
C2697 C 0.562 0.5543 0.46679 0.0
H2698 H 0.56422 0.57782 0.53125 0.0
C2699 C 0.54782 0.57616 0.34197 0.0
C2700 C 0.54265 0.5795 0.37532 0.0
C2701 C 0.55297 0.57232 0.36975 0.0
C2702 C 0.56348 0.57122 0.51295 0.0
H2703 H 0.58373 0.54112 0.52082 0.0
H2704 H 0.57711 0.55 0.47073 0.0
H2705 H 0.57207 0.57005 0.58136 0.0
H2706 H 0.539 0.58155 0.46422 0.0
H2707 H 0.54789 0.57477 0.51244 0.0
H2708 H 0.55334 0.5554 0.39878 0.0
C2709 C 0.57644 0.54927 0.51816 0.0
C2710 C 0.56797 0.56676 0.54165 0.0
C2711 C 0.58028 0.54422 0.54698 0.0
C2712 C 0.5429 0.57906 0.43711 0.0
C2713 C 0.54805 0.57522 0.46484 0.0
C2714 C 0.55751 0.55875 0.43813 0.0
C2715 C 0.57178 0.55332 0.55011 0.0
C2716 C 0.56725 0.55823 0.519 0.0
C2717 C 0.55308 0.57173 0.43149 0.0
C2718 C 0.55816 0.56723 0.46099 0.0
H2719 H 0.57441 0.54659 0.68807 0.0
H2720 H 0.56762 0.55532 0.63758 0.0
H2721 H 0.56117 0.54764 0.44872 0.0
H2722 H 0.54784 0.57643 0.29432 0.0
H2723 H 0.55689 0.56982 0.34283 0.0
C2724 C 0.41313 0.96448 0.41813 0.0
C2725 C 0.41769 0.96341 0.36819 0.0
C2726 C 0.41673 0.97348 0.44512 0.0
C2727 C 0.43445 -0.00013 0.42534 0.0
H2728 H 0.43225 -0.00014 0.59525 0.0
C2729 C 0.44933 0.03557 0.55483 0.0
C2730 C 0.45341 0.03608 0.6104 0.0
C2731 C 0.44421 0.02673 0.52546 0.0
C2732 C 0.43306 4e-05 0.54788 0.0
H2733 H 0.42952 0.97091 0.30673 0.0
H2734 H 0.43618 0.98656 0.35553 0.0
H2735 H 0.42522 0.98464 0.54296 0.0
H2736 H 0.45535 0.02775 0.67888 0.0
H2737 H 0.44686 0.01243 0.62673 0.0
H2738 H 0.4429 0.01525 0.43078 0.0
C2739 C 0.42961 0.98054 0.37293 0.0
C2740 C 0.42883 0.99126 0.51754 0.0
C2741 C 0.42584 0.97156 0.34503 0.0
C2742 C 0.4522 0.02756 0.63631 0.0
C2743 C 0.44726 0.01875 0.60639 0.0
C2744 C 0.43886 0.00865 0.45583 0.0
C2745 C 0.42516 0.98161 0.42381 0.0
C2746 C 0.42947 0.99103 0.4558 0.0
C2747 C 0.44323 0.01821 0.55037 0.0
C2748 C 0.43826 0.00886 0.5176 0.0
H2749 H 0.40674 0.95833 0.4364 0.0
H2750 H 0.41291 0.97403 0.48298 0.0
H2751 H 0.43498 4e-05 0.3778 0.0
H2752 H 0.45008 0.04202 0.53406 0.0
H2753 H 0.44102 0.02661 0.48317 0.0
C2754 C 0.54402 0.96186 0.45094 0.0
C2755 C 0.54284 0.96119 0.38943 0.0
C2756 C 0.54922 0.97085 0.47834 0.0
C2757 C 0.56715 0.99653 0.45107 0.0
H2758 H 0.5561 0.00083 0.59204 0.0
C2759 C 0.58016 0.03452 0.54734 0.0
C2760 C 0.58058 0.03557 0.60894 0.0
C2761 C 0.57622 0.02537 0.52168 0.0
C2762 C 0.55937 -0.00029 0.55326 0.0
H2763 H 0.54638 0.96949 0.30843 0.0
H2764 H 0.55541 0.98521 0.35647 0.0
H2765 H 0.54799 0.98503 0.54476 0.0
H2766 H 0.57739 0.0278 0.69183 0.0
H2767 H 0.5706 0.01183 0.64692 0.0
H2768 H 0.57848 0.01126 0.45935 0.0
C2769 C 0.55237 0.97875 0.38337 0.0
C2770 C 0.55471 0.99065 0.5261 0.0
C2771 C 0.54715 0.96974 0.35588 0.0
C2772 C 0.57714 0.02726 0.64426 0.0
C2773 C 0.5732 0.0181 0.61854 0.0
C2774 C 0.57182 0.0056 0.47829 0.0
C2775 C 0.55338 0.97941 0.44496 0.0
C2776 C 0.55852 0.98897 0.47453 0.0
C2777 C 0.57261 0.01705 0.55696 0.0
C2778 C 0.56794 0.00731 0.52949 0.0
H2779 H 0.54085 0.95543 0.47819 0.0
H2780 H 0.55 0.97111 0.52578 0.0
H2781 H 0.57034 0.99542 0.41186 0.0
H2782 H 0.58274 0.04076 0.51873 0.0
H2783 H 0.57577 0.02481 0.47414 0.0
C2784 C 0.02675 0.57572 0.3446 0.0
C2785 C 0.03524 0.57915 0.37827 0.0
C2786 C 0.01772 0.57174 0.37203 0.0
C2787 C 0.00589 0.57046 0.51439 0.0
H2788 H 0.9849 0.54673 0.44971 0.0
C2789 C 0.97019 0.54661 0.64018 0.0
C2790 C 0.96155 0.54238 0.60749 0.0
C2791 C 0.97915 0.55156 0.61178 0.0
C2792 C 0.99064 0.55343 0.46791 0.0
H2793 H 0.04088 0.58124 0.46734 0.0
H2794 H 0.02513 0.57422 0.51501 0.0
H2795 H 0.00056 0.55462 0.4007 0.0
H2796 H 0.95557 0.54022 0.51926 0.0
H2797 H 0.97117 0.54892 0.47 0.0
H2798 H 0.99596 0.56921 0.58188 0.0
C2799 C 0.02547 0.5747 0.46741 0.0
C2800 C -0.00038 0.55795 0.43979 0.0
C2801 C 0.0345 0.57867 0.44002 0.0
C2802 C 0.96208 0.54333 0.54585 0.0
C2803 C 0.97103 0.54828 0.51751 0.0
C2804 C 0.99689 0.56593 0.54252 0.0
C2805 C 0.01698 0.57111 0.43372 0.0
C2806 C 0.00736 0.5665 0.46281 0.0
C2807 C 0.97967 0.55239 0.5501 0.0
C2808 C 0.98918 0.55735 0.5197 0.0
H2809 H 0.02705 0.57602 0.29696 0.0
H2810 H 0.01132 0.56917 0.34488 0.0
H2811 H 0.01167 0.57711 0.53277 0.0
H2812 H 0.97006 0.54601 0.68771 0.0
H2813 H 0.98567 0.55456 0.63811 0.0
C2814 C 0.41884 0.44906 0.36132 0.0
C2815 C 0.41544 0.45434 0.39287 0.0
C2816 C 0.4226 0.44399 0.39095 0.0
C2817 C 0.4337 0.44352 0.53202 0.0
H2818 H 0.42866 0.41839 0.47752 0.0
C2819 C 0.4486 0.42186 0.65323 0.0
C2820 C 0.45269 0.41767 0.61728 0.0
C2821 C 0.44327 0.42575 0.62838 0.0
C2822 C 0.43018 0.42543 0.49304 0.0
H2823 H 0.41315 0.45826 0.48051 0.0
H2824 H 0.41963 0.44936 0.53203 0.0
H2825 H 0.42075 0.42624 0.42916 0.0
H2826 H 0.45425 0.41416 0.52702 0.0
H2827 H 0.44505 0.42099 0.48394 0.0
H2828 H 0.44323 0.44277 0.59537 0.0
C2829 C 0.41951 0.44925 0.48435 0.0
C2830 C 0.42566 0.42993 0.46531 0.0
C2831 C 0.41575 0.45431 0.45476 0.0
C2832 C 0.4512 0.41732 0.5561 0.0
C2833 C 0.44587 0.42119 0.53135 0.0
C2834 C 0.43822 0.43902 0.55975 0.0
C2835 C 0.42304 0.44409 0.45279 0.0
C2836 C 0.42745 0.43907 0.4841 0.0
C2837 C 0.44189 0.4255 0.56712 0.0
C2838 C 0.4366 0.42998 0.54015 0.0
H2839 H 0.41872 0.44893 0.31364 0.0
H2840 H 0.42537 0.44018 0.36532 0.0
H2841 H 0.43534 0.45062 0.54705 0.0
H2842 H 0.44958 0.42222 0.70053 0.0
H2843 H 0.4402 0.42893 0.65715 0.0
C2844 C 0.12794 0.39142 0.35094 0.0
C2845 C 0.13515 0.39232 0.31186 0.0
C2846 C 0.13043 0.39582 0.4062 0.0
C2847 C 0.1496 0.40488 0.51749 0.0
H2848 H 0.13595 0.41732 0.58042 0.0
C2849 C 0.15607 0.41858 0.75468 0.0
C2850 C 0.14744 0.41487 0.78717 0.0
C2851 C 0.15582 0.41849 0.69317 0.0
C2852 C 0.13984 0.4139 0.56335 0.0
H2853 H 0.15056 0.39804 0.30089 0.0
H2854 H 0.15494 0.40583 0.39725 0.0
H2855 H 0.13293 0.41133 0.47926 0.0
H2856 H 0.13194 0.40907 0.78102 0.0
H2857 H 0.1315 0.40883 0.6742 0.0
H2858 H 0.15625 0.40711 0.60198 0.0
C2859 C 0.14737 0.40181 0.38499 0.0
C2860 C 0.13808 0.41044 0.5056 0.0
C2861 C 0.14488 0.39743 0.32966 0.0
C2862 C 0.1387 0.41188 0.75719 0.0
C2863 C 0.13845 0.41181 0.69585 0.0
C2864 C 0.15134 0.40832 0.57522 0.0
C2865 C 0.14018 0.40113 0.4236 0.0
C2866 C 0.14277 0.40568 0.4826 0.0
C2867 C 0.14695 0.41473 0.66321 0.0
C2868 C 0.14631 0.41266 0.59925 0.0
H2869 H 0.12039 0.38749 0.33829 0.0
H2870 H 0.12471 0.395 0.4355 0.0
H2871 H 0.15326 0.40118 0.50118 0.0
H2872 H 0.16294 0.42101 0.77653 0.0
H2873 H 0.16251 0.42095 0.66909 0.0
C2874 C 0.6044 0.74753 0.34496 0.0
C2875 C 0.60845 0.74224 0.32124 0.0
C2876 C 0.60041 0.74548 0.40138 0.0
C2877 C 0.60072 0.73378 0.54065 0.0
H2878 H 0.57753 0.73507 0.57356 0.0
C2879 C 0.58523 0.7265 0.7719 0.0
C2880 C 0.58439 0.73422 0.79482 0.0
C2881 C 0.58588 0.72556 0.71131 0.0
C2882 C 0.58398 0.73465 0.56484 0.0
H2883 H 0.61168 0.73079 0.33753 0.0
H2884 H 0.60462 0.72709 0.43597 0.0
H2885 H 0.58381 0.73757 0.47303 0.0
H2886 H 0.58247 0.74636 0.77215 0.0
H2887 H 0.58366 0.74474 0.66627 0.0
H2888 H 0.60099 0.731 0.63232 0.0
C2889 C 0.6046 0.7329 0.41145 0.0
C2890 C 0.58762 0.73615 0.50749 0.0
C2891 C 0.60866 0.73502 0.3552 0.0
C2892 C 0.58319 0.74038 0.75584 0.0
C2893 C 0.58385 0.73944 0.69513 0.0
C2894 C 0.59705 0.73222 0.59773 0.0
C2895 C 0.60037 0.73807 0.43504 0.0
C2896 C 0.59612 0.73588 0.49498 0.0
C2897 C 0.58568 0.73231 0.67258 0.0
C2898 C 0.58873 0.73278 0.61059 0.0
H2899 H 0.60432 0.75326 0.31985 0.0
H2900 H 0.59744 0.74976 0.41878 0.0
H2901 H 0.60736 0.73367 0.53281 0.0
H2902 H 0.586 0.72153 0.80083 0.0
H2903 H 0.58708 0.71987 0.69492 0.0
C2904 C 0.25998 0.85869 0.33636 0.0
C2905 C 0.25352 0.86214 0.32769 0.0
C2906 C 0.26214 0.857 0.393 0.0
C2907 C 0.26251 0.86424 0.54614 0.0
H2908 H 0.26274 0.84063 0.58376 0.0
C2909 C 0.27135 0.8584 0.77824 0.0
C2910 C 0.26419 0.84968 0.80315 0.0
C2911 C 0.27205 0.85957 0.71735 0.0
C2912 C 0.26274 0.84727 0.57374 0.0
H2913 H 0.24455 0.86691 0.37082 0.0
H2914 H 0.24828 0.8639 0.47052 0.0
H2915 H 0.2592 0.84339 0.48313 0.0
H2916 H 0.25286 0.83502 0.78426 0.0
H2917 H 0.25395 0.83712 0.67775 0.0
H2918 H 0.2657 0.868 0.63668 0.0
C2919 C 0.25162 0.86244 0.4334 0.0
C2920 C 0.26077 0.84887 0.51623 0.0
C2921 C 0.24944 0.86412 0.37659 0.0
C2922 C 0.25842 0.84183 0.76618 0.0
C2923 C 0.25906 0.84304 0.70513 0.0
C2924 C 0.26451 0.86266 0.60339 0.0
C2925 C 0.258 0.85887 0.44207 0.0
C2926 C 0.26049 0.85731 0.5022 0.0
C2927 C 0.26554 0.85208 0.68038 0.0
C2928 C 0.26454 0.85411 0.618 0.0
H2929 H 0.26356 0.85751 0.29942 0.0
H2930 H 0.26724 0.85445 0.39845 0.0
H2931 H 0.26248 0.87086 0.53635 0.0
H2932 H 0.27602 0.86452 0.80586 0.0
H2933 H 0.27729 0.86654 0.69934 0.0
C2934 C 0.41534 0.15529 0.2418 0.0
C2935 C 0.41346 0.14768 0.20318 0.0
C2936 C 0.41494 0.15385 0.30263 0.0
C2937 C 0.40125 0.13383 0.40175 0.0
H2938 H 0.41558 0.15234 0.5249 0.0
C2939 C 0.38973 0.12572 0.64408 0.0
C2940 C 0.39031 0.13337 0.6776 0.0
C2941 C 0.39392 0.12746 0.58827 0.0
C2942 C 0.41147 0.14713 0.49089 0.0
H2943 H 0.41093 0.13302 0.19745 0.0
H2944 H 0.41034 0.13055 0.30352 0.0
H2945 H 0.42159 0.15569 0.42363 0.0
H2946 H 0.39534 0.14873 0.6789 0.0
H2947 H 0.40244 0.15177 0.58059 0.0
H2948 H 0.39092 0.12546 0.46769 0.0
C2949 C 0.41186 0.13753 0.2869 0.0
C2950 C 0.41496 0.14903 0.43311 0.0
C2951 C 0.41222 0.13896 0.22624 0.0
C2952 C 0.39495 0.14275 0.65412 0.0
C2953 C 0.39907 0.14448 0.59805 0.0
C2954 C 0.39775 0.13197 0.45919 0.0
C2955 C 0.4127 0.14478 0.32555 0.0
C2956 C 0.40982 0.14243 0.38792 0.0
C2957 C 0.39863 0.13686 0.56458 0.0
C2958 C 0.40275 0.13864 0.50433 0.0
H2959 H 0.41638 0.16211 0.22526 0.0
H2960 H 0.41562 0.15957 0.33141 0.0
H2961 H 0.39701 0.12871 0.36764 0.0
H2962 H 0.38626 0.11844 0.66163 0.0
H2963 H 0.39355 0.12145 0.56399 0.0
C2964 C 0.87095 0.26168 0.64862 0.0
C2965 C 0.86319 0.2548 0.68236 0.0
C2966 C 0.86934 0.26415 0.59258 0.0
C2967 C 0.85003 0.26285 0.49557 0.0
H2968 H 0.86823 0.26626 0.37208 0.0
C2969 C 0.84206 0.25984 0.24612 0.0
C2970 C 0.84983 0.26542 0.20804 0.0
C2971 C 0.84347 0.26058 0.30703 0.0
C2972 C 0.86318 0.26554 0.40627 0.0
H2973 H 0.84775 0.24481 0.68358 0.0
H2974 H 0.84492 0.24895 0.5849 0.0
H2975 H 0.87121 0.26297 0.47176 0.0
H2976 H 0.86478 0.27699 0.20355 0.0
H2977 H 0.86718 0.27835 0.30977 0.0
H2978 H 0.84182 0.26507 0.42884 0.0
C2979 C 0.85221 0.25267 0.6024 0.0
C2980 C 0.86488 0.26362 0.46347 0.0
C2981 C 0.85382 0.25026 0.65869 0.0
C2982 C 0.85871 0.27247 0.23188 0.0
C2983 C 0.8601 0.27323 0.29263 0.0
C2984 C 0.8483 0.26472 0.43804 0.0
C2985 C 0.85995 0.25969 0.56886 0.0
C2986 C 0.85829 0.26217 0.5087 0.0
C2987 C 0.85265 0.26693 0.33059 0.0
C2988 C 0.85483 0.266 0.39278 0.0
H2989 H 0.87824 0.26534 0.66623 0.0
H2990 H 0.87544 0.26966 0.56821 0.0
H2991 H 0.84489 0.26191 0.52968 0.0
H2992 H 0.83512 0.25438 0.229 0.0
H2993 H 0.8376 0.25563 0.33525 0.0
C2994 C 0.72356 0.58455 0.22564 0.0
C2995 C 0.73128 0.58362 0.20348 0.0
C2996 C 0.72224 0.58472 0.28614 0.0
C2997 C 0.73047 0.58172 0.43314 0.0
H2998 H 0.72993 0.60525 0.46821 0.0
C2999 C 0.73178 0.5958 0.66963 0.0
C3000 C 0.73858 0.60562 0.67841 0.0
C3001 C 0.72964 0.59193 0.61299 0.0
C3002 C 0.73007 0.59866 0.45906 0.0
H3003 H 0.74298 0.58105 0.22669 0.0
H3004 H 0.74076 0.58148 0.33265 0.0
H3005 H 0.72756 0.59934 0.36745 0.0
H3006 H 0.74812 0.61921 0.6352 0.0
H3007 H 0.74433 0.61246 0.53566 0.0
H3008 H 0.73332 0.58129 0.52496 0.0
C3009 C 0.73572 0.58205 0.30332 0.0
C3010 C 0.72858 0.59519 0.40157 0.0
C3011 C 0.73701 0.58183 0.24263 0.0
C3012 C 0.74293 0.6116 0.6295 0.0
C3013 C 0.74074 0.60774 0.57274 0.0
C3014 C 0.73189 0.58517 0.49093 0.0
C3015 C 0.72864 0.584 0.32547 0.0
C3016 C 0.72892 0.58678 0.38782 0.0
C3017 C 0.73412 0.59786 0.56408 0.0
C3018 C 0.7319 0.59378 0.50405 0.0
H3019 H 0.71891 0.58576 0.19631 0.0
H3020 H 0.71659 0.586 0.30214 0.0
H3021 H 0.73076 0.57522 0.42369 0.0
H3022 H 0.72797 0.59111 0.7064 0.0
H3023 H 0.72436 0.58433 0.60736 0.0
C3024 C 0.86436 0.61196 0.62091 0.0
C3025 C 0.86282 0.60601 0.66982 0.0
C3026 C 0.86279 0.60812 0.56412 0.0
C3027 C 0.84963 0.58544 0.48196 0.0
H3028 H 0.86816 0.59996 0.35927 0.0
C3029 C 0.8416 0.58142 0.23294 0.0
C3030 C 0.84927 0.58343 0.19448 0.0
C3031 C 0.84303 0.58183 0.29379 0.0
C3032 C 0.86299 0.59572 0.39318 0.0
H3033 H 0.85916 0.59156 0.69781 0.0
H3034 H 0.85618 0.58481 0.59876 0.0
H3035 H 0.87136 0.60595 0.45992 0.0
H3036 H 0.864 0.58618 0.18891 0.0
H3037 H 0.86644 0.58677 0.29502 0.0
H3038 H 0.84117 0.57529 0.41464 0.0
C3039 C 0.85834 0.59237 0.60437 0.0
C3040 C 0.86477 0.59923 0.45061 0.0
C3041 C 0.85997 0.59622 0.66103 0.0
C3042 C 0.85802 0.58479 0.21764 0.0
C3043 C 0.85943 0.58516 0.27831 0.0
C3044 C 0.84781 0.58194 0.42424 0.0
C3045 C 0.85972 0.59827 0.55542 0.0
C3046 C 0.85805 0.59421 0.49534 0.0
C3047 C 0.85213 0.5842 0.31683 0.0
C3048 C 0.85443 0.58711 0.3792 0.0
H3049 H 0.86668 0.61955 0.62664 0.0
H3050 H 0.86387 0.61282 0.52703 0.0
H3051 H 0.84432 0.58144 0.51575 0.0
H3052 H 0.83475 0.58029 0.21628 0.0
H3053 H 0.83726 0.58106 0.32246 0.0
C3054 C 0.41524 0.25904 0.23848 0.0
C3055 C 0.41336 0.26481 0.20009 0.0
C3056 C 0.41463 0.25989 0.29934 0.0
C3057 C 0.4005 0.26571 0.39831 0.0
H3058 H 0.41474 0.26149 0.52177 0.0
C3059 C 0.38891 0.26217 0.64077 0.0
C3060 C 0.38954 0.25514 0.67438 0.0
C3061 C 0.39302 0.26457 0.58475 0.0
C3062 C 0.41066 0.2626 0.48765 0.0
H3063 H 0.4106 0.27679 0.19505 0.0
H3064 H 0.40964 0.27832 0.30119 0.0
H3065 H 0.42093 0.26439 0.42087 0.0
H3066 H 0.39454 0.24478 0.67542 0.0
H3067 H 0.40154 0.24879 0.57681 0.0
H3068 H 0.39004 0.26356 0.46387 0.0
C3069 C 0.41132 0.27298 0.28431 0.0
C3070 C 0.41424 0.26432 0.43008 0.0
C3071 C 0.4119 0.27212 0.2236 0.0
C3072 C 0.39412 0.25036 0.65063 0.0
C3073 C 0.39817 0.2527 0.59438 0.0
C3074 C 0.3969 0.26394 0.45556 0.0
C3075 C 0.41217 0.26654 0.32257 0.0
C3076 C 0.40913 0.2658 0.38479 0.0
C3077 C 0.39772 0.25987 0.56095 0.0
C3078 C 0.40188 0.26226 0.5008 0.0
H3079 H 0.41645 0.25338 0.22165 0.0
H3080 H 0.41533 0.25482 0.3278 0.0
H3081 H 0.39628 0.26661 0.3641 0.0
H3082 H 0.38547 0.26601 0.65846 0.0
H3083 H 0.39264 0.27021 0.56046 0.0
C3084 C 0.73561 0.15426 0.22834 0.0
C3085 C 0.73052 0.14628 0.19088 0.0
C3086 C 0.73478 0.15301 0.28934 0.0
C3087 C 0.73079 0.13389 0.39116 0.0
H3088 H 0.73391 0.15251 0.51116 0.0
C3089 C 0.74699 0.13467 0.61765 0.0
C3090 C 0.74236 0.13584 0.66675 0.0
C3091 C 0.74441 0.1359 0.56096 0.0
C3092 C 0.73296 0.14721 0.47812 0.0
H3093 H 0.71965 0.13106 0.1871 0.0
H3094 H 0.71808 0.12893 0.29351 0.0
H3095 H 0.73008 0.15474 0.41001 0.0
H3096 H 0.73098 0.13861 0.69516 0.0
H3097 H 0.72664 0.14099 0.59628 0.0
H3098 H 0.7338 0.12645 0.45869 0.0
C3099 C 0.72292 0.13607 0.27594 0.0
C3100 C 0.73081 0.14851 0.42035 0.0
C3101 C 0.7238 0.1373 0.2151 0.0
C3102 C 0.73498 0.13809 0.65825 0.0
C3103 C 0.73243 0.13937 0.60166 0.0
C3104 C 0.73298 0.13264 0.44864 0.0
C3105 C 0.7288 0.14379 0.31355 0.0
C3106 C 0.72983 0.14192 0.37618 0.0
C3107 C 0.7371 0.13825 0.5525 0.0
C3108 C 0.73424 0.13936 0.49242 0.0
H3109 H 0.74081 0.16128 0.21081 0.0
H3110 H 0.73941 0.1591 0.31723 0.0
H3111 H 0.73025 0.12877 0.35797 0.0
H3112 H 0.75262 0.13283 0.62315 0.0
H3113 H 0.74817 0.13506 0.52373 0.0
C3114 C 0.60745 0.87148 0.35185 0.0
C3115 C 0.60732 0.86409 0.31783 0.0
C3116 C 0.60337 0.86949 0.40804 0.0
C3117 C 0.58653 0.84914 0.50401 0.0
H3118 H 0.59978 0.86767 0.62893 0.0
C3119 C 0.58247 0.84042 0.75224 0.0
C3120 C 0.58356 0.84771 0.79142 0.0
C3121 C 0.58303 0.84202 0.69155 0.0
C3122 C 0.59587 0.8625 0.59432 0.0
H3123 H 0.60331 0.84898 0.31621 0.0
H3124 H 0.5964 0.84551 0.41504 0.0
H3125 H 0.60609 0.87147 0.52933 0.0
H3126 H 0.58488 0.86189 0.79787 0.0
H3127 H 0.58581 0.86465 0.69201 0.0
H3128 H 0.57655 0.84001 0.57019 0.0
C3129 C 0.59932 0.85277 0.39774 0.0
C3130 C 0.59951 0.86468 0.53717 0.0
C3131 C 0.60333 0.85475 0.34138 0.0
C3132 C 0.5842 0.8562 0.76877 0.0
C3133 C 0.58476 0.8578 0.70821 0.0
C3134 C 0.58293 0.84694 0.56143 0.0
C3135 C 0.5992 0.86009 0.4315 0.0
C3136 C 0.59496 0.85797 0.49147 0.0
C3137 C 0.58467 0.85093 0.66924 0.0
C3138 C 0.58764 0.85356 0.60721 0.0
H3139 H 0.61043 0.87873 0.33428 0.0
H3140 H 0.60331 0.87528 0.43261 0.0
H3141 H 0.58276 0.84389 0.46954 0.0
H3142 H 0.5819 0.83376 0.76834 0.0
H3143 H 0.58294 0.83659 0.6625 0.0
C3144 C 0.13503 0.73376 0.32081 0.0
C3145 C 0.13236 0.74082 0.31167 0.0
C3146 C 0.13665 0.73156 0.37756 0.0
C3147 C 0.1304 0.73235 0.53128 0.0
H3148 H 0.15353 0.7311 0.56703 0.0
C3149 C 0.15323 0.73651 0.74917 0.0
C3150 C 0.14547 0.73094 0.78732 0.0
C3151 C 0.15181 0.73569 0.68827 0.0
C3152 C 0.14702 0.73137 0.5575 0.0
H3153 H 0.12883 0.75078 0.35434 0.0
H3154 H 0.13162 0.74691 0.45416 0.0
H3155 H 0.15056 0.73433 0.46604 0.0
H3156 H 0.13056 0.7193 0.79208 0.0
H3157 H 0.12815 0.7178 0.68588 0.0
H3158 H 0.12696 0.7297 0.6226 0.0
C3159 C 0.13256 0.74316 0.41726 0.0
C3160 C 0.1453 0.73318 0.49984 0.0
C3161 C 0.13101 0.74541 0.36035 0.0
C3162 C 0.13661 0.72382 0.76365 0.0
C3163 C 0.13522 0.72298 0.70292 0.0
C3164 C 0.13207 0.73049 0.58866 0.0
C3165 C 0.13544 0.73624 0.4263 0.0
C3166 C 0.13705 0.73384 0.48651 0.0
C3167 C 0.14265 0.72926 0.66483 0.0
C3168 C 0.14046 0.7301 0.60255 0.0
H3169 H 0.1357 0.72979 0.28422 0.0
H3170 H 0.13865 0.72605 0.38342 0.0
H3171 H 0.12392 0.73271 0.52203 0.0
H3172 H 0.16015 0.74202 0.76618 0.0
H3173 H 0.15767 0.74063 0.65994 0.0
C3174 C 0.2599 0.41649 0.752 0.0
C3175 C 0.26535 0.41417 0.79026 0.0
C3176 C 0.26086 0.41605 0.69112 0.0
C3177 C 0.26536 0.41581 0.56057 0.0
H3178 H 0.26391 0.39136 0.52398 0.0
C3179 C 0.26259 0.40142 0.32335 0.0
C3180 C 0.25544 0.39171 0.31449 0.0
C3181 C 0.26492 0.40525 0.38004 0.0
C3182 C 0.26431 0.3982 0.53355 0.0
H3183 H 0.27695 0.41084 0.79542 0.0
H3184 H 0.27871 0.41021 0.68924 0.0
H3185 H 0.26694 0.3973 0.62474 0.0
H3186 H 0.24544 0.37828 0.35769 0.0
H3187 H 0.24954 0.38497 0.45728 0.0
H3188 H 0.26239 0.41648 0.46923 0.0
C3189 C 0.2735 0.41208 0.70614 0.0
C3190 C 0.26619 0.40168 0.59104 0.0
C3191 C 0.27251 0.41247 0.76686 0.0
C3192 C 0.25089 0.38581 0.36341 0.0
C3193 C 0.25326 0.38963 0.42021 0.0
C3194 C 0.26354 0.41234 0.5028 0.0
C3195 C 0.26732 0.41335 0.66782 0.0
C3196 C 0.26659 0.41045 0.60535 0.0
C3197 C 0.26028 0.39939 0.42896 0.0
C3198 C 0.26282 0.40341 0.4891 0.0
H3199 H 0.25436 0.41788 0.76883 0.0
H3200 H 0.25599 0.41706 0.66262 0.0
H3201 H 0.26565 0.42259 0.57043 0.0
H3202 H 0.26655 0.40603 0.2867 0.0
H3203 H 0.27049 0.41274 0.38569 0.0
C3204 C 0.80498 0.7461 0.10341 0.0
C3205 C 0.81377 0.74755 0.12653 0.0
C3206 C 0.80353 0.74564 0.04276 0.0
C3207 C 0.81508 0.74882 0.89672 0.0
H3208 H 0.79159 0.72471 0.8616 0.0
C3209 C 0.80278 0.73455 0.66019 0.0
C3210 C 0.79999 0.72479 0.65113 0.0
C3211 C 0.80442 0.73838 0.71691 0.0
C3212 C 0.79817 0.73145 0.87076 0.0
H3213 H 0.8283 0.75072 0.10456 0.0
H3214 H 0.82571 0.7498 -0.00158 0.0
H3215 H 0.79485 0.73073 0.96223 0.0
H3216 H 0.79626 0.71125 0.69395 0.0
H3217 H 0.79908 0.71793 0.79371 0.0
H3218 H 0.8185 0.74933 0.8051 0.0
C3219 C 0.81995 0.74903 0.02714 0.0
C3220 C 0.79997 0.73498 0.92817 0.0
C3221 C 0.82143 0.74954 0.08796 0.0
C3222 C 0.79852 0.71883 0.69988 0.0
C3223 C 0.8001 0.72264 0.75675 0.0
C3224 C 0.81323 0.74531 0.83903 0.0
C3225 C 0.81083 0.74659 0.00421 0.0
C3226 C 0.80851 0.74363 0.94192 0.0
C3227 C 0.80312 0.73247 0.76569 0.0
C3228 C 0.80484 0.73651 0.82584 0.0
H3229 H 0.79901 0.74473 0.13219 0.0
H3230 H 0.7965 0.74397 0.02612 0.0
H3231 H 0.8217 0.7555 0.90616 0.0
H3232 H 0.80353 0.73922 0.62355 0.0
H3233 H 0.80654 0.74592 0.72271 0.0
C3234 C 0.24686 0.06947 0.08779 0.0
C3235 C 0.24944 0.06422 0.126 0.0
C3236 C 0.2474 0.06861 0.02691 0.0
C3237 C 0.2479 0.06429 0.89628 0.0
H3238 H 0.27281 0.06679 0.85973 0.0
C3239 C 0.26245 0.06761 0.65905 0.0
C3240 C 0.27206 0.07499 0.65011 0.0
C3241 C 0.25865 0.06519 0.71576 0.0
C3242 C 0.26584 0.0661 0.86928 0.0
H3243 H 0.25338 0.05304 0.13095 0.0
H3244 H 0.25418 0.05145 0.02475 0.0
H3245 H 0.26686 0.06355 0.96046 0.0
H3246 H 0.28537 0.08533 0.69321 0.0
H3247 H 0.27873 0.08106 0.79285 0.0
H3248 H 0.24709 0.06718 0.80496 0.0
C3249 C 0.25202 0.05643 0.04173 0.0
C3250 C 0.26236 0.0641 0.92676 0.0
C3251 C 0.25153 0.05733 0.10247 0.0
C3252 C 0.2779 0.07969 0.69899 0.0
C3253 C 0.27412 0.07723 0.75582 0.0
C3254 C 0.25137 0.06623 0.83852 0.0
C3255 C 0.25047 0.06243 0.00351 0.0
C3256 C 0.25342 0.06331 0.94106 0.0
C3257 C 0.26444 0.06997 0.76465 0.0
C3258 C 0.26046 0.06733 0.82482 0.0
H3259 H 0.24517 0.0748 0.10471 0.0
H3260 H 0.24615 0.07333 -0.00151 0.0
H3261 H 0.24098 0.0637 0.90612 0.0
H3262 H 0.2579 0.06354 0.62243 0.0
H3263 H 0.25123 0.05943 0.72146 0.0
C3264 C 0.93035 0.19518 0.66991 0.0
C3265 C 0.92334 0.19793 0.66098 0.0
C3266 C 0.93253 0.19352 0.72659 0.0
C3267 C 0.93169 0.19937 0.88103 0.0
H3268 H 0.93108 0.17521 0.91429 0.0
C3269 C 0.93788 0.19104 0.11394 0.0
C3270 C 0.93011 0.18234 0.13516 0.0
C3271 C 0.93925 0.19274 0.05361 0.0
C3272 C 0.93135 0.18201 0.90543 0.0
H3273 H 0.91357 0.2017 0.70389 0.0
H3274 H 0.91745 0.19888 0.80362 0.0
H3275 H 0.92876 0.179 0.8132 0.0
H3276 H 0.91838 0.16818 0.11019 0.0
H3277 H 0.92072 0.1712 0.00458 0.0
H3278 H 0.93396 0.20228 0.97309 0.0
C3279 C 0.92114 0.19787 0.7666 0.0
C3280 C 0.93006 0.1842 0.84775 0.0
C3281 C 0.9189 0.19946 0.70977 0.0
C3282 C 0.92438 0.17498 0.09507 0.0
C3283 C 0.92574 0.1767 0.03457 0.0
C3284 C 0.93305 0.19723 0.93844 0.0
C3285 C 0.9279 0.19479 0.77539 0.0
C3286 C 0.93003 0.19281 0.83536 0.0
C3287 C 0.93288 0.18577 0.01349 0.0
C3288 C 0.93273 0.18846 0.95139 0.0
H3289 H 0.93421 0.19439 0.63314 0.0
H3290 H 0.93791 0.19134 0.73234 0.0
H3291 H 0.93179 0.2061 0.87245 0.0
H3292 H 0.94253 0.19678 0.1439 0.0
H3293 H 0.94494 0.19972 0.0384 0.0
C3294 C 0.07715 0.47341 0.56421 0.0
C3295 C 0.07952 0.48209 0.53516 0.0
C3296 C 0.07722 0.47305 0.62547 0.0
C3297 C 0.07275 0.48486 0.748 0.0
H3298 H 0.07724 0.46711 0.84097 0.0
C3299 C 0.06208 0.47723 0.99314 0.0
C3300 C 0.0575 0.46747 0.01014 0.0
C3301 C 0.0664 0.48006 0.93784 0.0
C3302 C 0.07593 0.47207 0.81546 0.0
H3303 H 0.08473 0.4974 0.54713 0.0
H3304 H 0.08491 0.49677 0.65455 0.0
H3305 H 0.08323 0.47079 0.73991 0.0
H3306 H 0.0535 0.45297 0.98238 0.0
H3307 H 0.0609 0.45787 0.88499 0.0
H3308 H 0.06519 0.48592 0.82273 0.0
C3309 C 0.08283 0.49022 0.62981 0.0
C3310 C 0.07939 0.47421 0.7578 0.0
C3311 C 0.08279 0.49059 0.56834 0.0
C3312 C 0.05703 0.46054 0.97029 0.0
C3313 C 0.06137 0.46337 0.91498 0.0
C3314 C 0.0693 0.48274 0.80564 0.0
C3315 C 0.07967 0.48136 0.65895 0.0
C3316 C 0.07762 0.48043 0.72297 0.0
C3317 C 0.06616 0.47317 0.89839 0.0
C3318 C 0.07065 0.47613 0.83942 0.0
H3319 H 0.07471 0.46676 0.53976 0.0
H3320 H 0.0747 0.4661 0.64646 0.0
H3321 H 0.07111 0.48956 0.72206 0.0
H3322 H 0.06234 0.48269 0.02257 0.0
H3323 H 0.07002 0.48766 0.92623 0.0
C3324 C 0.50777 0.59096 0.56816 0.0
C3325 C 0.5151 0.59676 0.52811 0.0
C3326 C 0.50945 0.59236 0.62867 0.0
C3327 C 0.51469 0.59804 0.75782 0.0
H3328 H 0.539 0.59893 0.7909 0.0
C3329 C 0.52803 0.59729 0.99335 0.0
C3330 C 0.53091 0.59039 0.00221 0.0
C3331 C 0.5263 0.59942 0.9367 0.0
C3332 C 0.53221 0.59871 0.7823 0.0
H3333 H 0.52944 0.60933 0.51936 0.0
H3334 H 0.53232 0.61182 0.62487 0.0
H3335 H 0.53511 0.60101 0.69025 0.0
H3336 H 0.53486 0.58076 0.95923 0.0
H3337 H 0.53193 0.58455 0.85955 0.0
H3338 H 0.5117 0.59541 0.85005 0.0
C3339 C 0.52539 0.60604 0.60964 0.0
C3340 C 0.53003 0.60002 0.72488 0.0
C3341 C 0.52373 0.60463 0.54932 0.0
C3342 C 0.53251 0.586 0.95339 0.0
C3343 C 0.53086 0.5882 0.89659 0.0
C3344 C 0.51692 0.59681 0.81551 0.0
C3345 C 0.51847 0.59962 0.64977 0.0
C3346 C 0.52118 0.59953 0.71189 0.0
C3347 C 0.52764 0.59485 0.88787 0.0
C3348 C 0.52561 0.59693 0.82792 0.0
H3349 H 0.50103 0.58487 0.55302 0.0
H3350 H 0.50399 0.5873 0.65866 0.0
H3351 H 0.50783 0.59764 0.74893 0.0
H3352 H 0.52718 0.60111 0.03015 0.0
H3353 H 0.52402 0.60473 0.93099 0.0
C3354 C 0.41655 0.93527 0.98123 0.0
C3355 C 0.41182 0.94018 0.00075 0.0
C3356 C 0.41442 0.93082 0.926 0.0
C3357 C 0.39563 0.92178 0.8098 0.0
H3358 H 0.41645 0.9249 0.70758 0.0
C3359 C 0.39365 0.92086 0.55854 0.0
C3360 C 0.39888 0.91747 0.5265 0.0
C3361 C 0.39378 0.92086 0.61989 0.0
C3362 C 0.41052 0.92375 0.73603 0.0
H3363 H 0.40147 0.94464 0.97712 0.0
H3364 H 0.39794 0.93711 0.88025 0.0
H3365 H 0.42006 0.93093 0.80819 0.0
H3366 H 0.40766 0.91064 0.53341 0.0
H3367 H 0.40792 0.91068 0.64097 0.0
H3368 H 0.38616 0.91497 0.73665 0.0
C3369 C 0.40308 0.93644 0.90816 0.0
C3370 C 0.4126 0.92724 0.79365 0.0
C3371 C 0.4052 0.94087 0.96327 0.0
C3372 C 0.4036 0.91335 0.55693 0.0
C3373 C 0.4038 0.91342 0.61845 0.0
C3374 C 0.39356 0.91832 0.75214 0.0
C3375 C 0.40756 0.93124 0.88922 0.0
C3376 C 0.40522 0.92653 0.83059 0.0
C3377 C 0.3992 0.91752 0.65041 0.0
C3378 C 0.40102 0.91951 0.71419 0.0
H3379 H 0.42186 0.93483 0.0087 0.0
H3380 H 0.41803 0.92691 0.91253 0.0
H3381 H 0.38975 0.92093 0.83772 0.0
H3382 H 0.38987 0.92401 0.53623 0.0
H3383 H 0.3902 0.92412 0.64323 0.0
C3384 C 0.50718 0.91137 0.57492 0.0
C3385 C 0.51587 0.91546 0.54279 0.0
C3386 C 0.50737 0.91151 0.63644 0.0
C3387 C 0.52335 0.91689 0.76698 0.0
H3388 H 0.50895 0.92869 0.82761 0.0
C3389 C 0.53429 0.93942 0.97898 0.0
C3390 C 0.52693 0.93823 0.01781 0.0
C3391 C 0.53198 0.93503 0.92369 0.0
C3392 C 0.51289 0.92524 0.81173 0.0
H3393 H 0.53146 0.92201 0.54956 0.0
H3394 H 0.53179 0.92232 0.65643 0.0
H3395 H 0.50627 0.92269 0.72694 0.0
H3396 H 0.51144 0.93201 0.02819 0.0
H3397 H 0.50739 0.92422 0.93174 0.0
H3398 H 0.53022 0.91977 0.85134 0.0
C3399 C 0.52483 0.91901 0.63449 0.0
C3400 C 0.51132 0.92176 0.75409 0.0
C3401 C 0.52465 0.91889 0.57314 0.0
C3402 C 0.51724 0.93285 -0.00037 0.0
C3403 C 0.51493 0.92847 0.94425 0.0
C3404 C 0.52493 0.92038 0.82464 0.0
C3405 C 0.51624 0.91569 0.66674 0.0
C3406 C 0.51671 0.91777 0.73062 0.0
C3407 C 0.52227 0.92942 0.90597 0.0
C3408 C 0.51989 0.92482 0.84708 0.0
H3409 H 0.50029 0.90861 0.55275 0.0
H3410 H 0.50062 0.90876 0.66025 0.0
H3411 H 0.52752 0.91374 0.75032 0.0
H3412 H 0.54182 0.94357 0.99188 0.0
H3413 H 0.53781 0.93608 0.89463 0.0
C3414 C 0.06052 0.58362 0.98075 0.0
C3415 C 0.05668 0.58909 0.00444 0.0
C3416 C 0.06464 0.58568 0.92468 0.0
C3417 C 0.06474 0.59764 0.78593 0.0
H3418 H 0.08727 0.59523 0.75173 0.0
C3419 C 0.07929 0.60362 0.55325 0.0
C3420 C 0.07965 0.59559 0.53095 0.0
C3421 C 0.07905 0.60488 0.61378 0.0
C3422 C 0.08101 0.59597 0.76083 0.0
H3423 H 0.05398 0.60092 0.98867 0.0
H3424 H 0.06128 0.60464 0.89084 0.0
H3425 H 0.08122 0.59312 0.85273 0.0
H3426 H 0.08113 0.58322 0.55427 0.0
H3427 H 0.08058 0.58537 0.66018 0.0
H3428 H 0.06439 0.60031 0.69422 0.0
C3429 C 0.06103 0.59868 0.91508 0.0
C3430 C 0.0775 0.59471 0.81844 0.0
C3431 C 0.05684 0.59655 0.97096 0.0
C3432 C 0.08078 0.58943 0.57021 0.0
C3433 C 0.0805 0.59068 0.6309 0.0
C3434 C 0.06827 0.59897 0.72861 0.0
C3435 C 0.06501 0.59328 0.89138 0.0
C3436 C 0.06922 0.59536 0.83137 0.0
C3437 C 0.07913 0.59814 0.65305 0.0
C3438 C 0.07634 0.59799 0.71527 0.0
H3439 H 0.06032 0.57772 0.00552 0.0
H3440 H 0.06741 0.58124 0.90716 0.0
H3441 H 0.05826 0.59804 0.79409 0.0
H3442 H 0.07861 0.6086 0.52396 0.0
H3443 H 0.07821 0.61082 0.6298 0.0
C3444 C 0.39902 0.45809 0.98057 0.0
C3445 C 0.40641 0.46528 0.0149 0.0
C3446 C 0.39714 0.46026 0.92431 0.0
C3447 C 0.40167 0.481 0.8287 0.0
H3448 H 0.39574 0.46238 0.70332 0.0
C3449 C 0.40701 0.48987 0.58073 0.0
C3450 C 0.4006 0.48277 0.5413 0.0
C3451 C 0.40585 0.48824 0.64136 0.0
C3452 C 0.39719 0.46759 0.73807 0.0
H3453 H 0.41797 0.48021 0.017 0.0
H3454 H 0.41489 0.48398 0.91808 0.0
H3455 H 0.39786 0.45828 0.80298 0.0
H3456 H 0.38729 0.46896 0.53433 0.0
H3457 H 0.38527 0.46615 0.64009 0.0
H3458 H 0.4014 0.49045 0.76259 0.0
C3459 C 0.41029 0.47676 0.93517 0.0
C3460 C 0.39842 0.46524 0.79524 0.0
C3461 C 0.41211 0.4746 0.99159 0.0
C3462 C 0.39246 0.47448 0.56362 0.0
C3463 C 0.3913 0.47286 0.62413 0.0
C3464 C 0.40051 0.48338 0.77125 0.0
C3465 C 0.40272 0.46964 0.90111 0.0
C3466 C 0.40081 0.47196 0.8411 0.0
C3467 C 0.39825 0.4795 0.66334 0.0
C3468 C 0.39836 0.47673 0.72533 0.0
H3469 H 0.3945 0.45086 -0.00205 0.0
H3470 H 0.3912 0.45463 0.89948 0.0
H3471 H 0.40333 0.48627 0.86328 0.0
H3472 H 0.41332 0.49636 0.56486 0.0
H3473 H 0.41131 0.49348 0.67064 0.0
C3474 C 0.25116 0.19285 0.10076 0.0
C3475 C 0.2493 0.18395 0.1244 0.0
C3476 C 0.25154 0.19418 0.04002 0.0
C3477 C 0.26188 0.19703 0.9251 0.0
H3478 H 0.24695 0.17846 0.8035 0.0
C3479 C 0.27772 0.19741 0.69778 0.0
C3480 C 0.27184 0.19611 0.64885 0.0
C3481 C 0.27389 0.19598 0.75453 0.0
C3482 C 0.25113 0.18375 0.83701 0.0
H3483 H 0.2453 0.16916 0.1035 0.0
H3484 H 0.24611 0.17153 -0.00282 0.0
H3485 H 0.24081 0.17574 0.90463 0.0
H3486 H 0.25757 0.19296 0.62069 0.0
H3487 H 0.25082 0.19023 0.71972 0.0
H3488 H 0.27226 0.20495 0.85807 0.0
C3489 C 0.24725 0.17747 0.0255 0.0
C3490 C 0.24764 0.18217 0.89475 0.0
C3491 C 0.24681 0.17611 0.08642 0.0
C3492 C 0.26215 0.19359 0.65754 0.0
C3493 C 0.2583 0.1921 0.71418 0.0
C3494 C 0.26538 0.19857 0.86766 0.0
C3495 C 0.25012 0.18665 0.00192 0.0
C3496 C 0.25305 0.18875 0.93945 0.0
C3497 C 0.26414 0.19329 0.76318 0.0
C3498 C 0.26012 0.19187 0.82328 0.0
H3499 H 0.25293 0.19897 0.12917 0.0
H3500 H 0.25353 0.20128 0.02292 0.0
H3501 H 0.2663 0.20216 0.95874 0.0
H3502 H 0.28525 0.19947 0.69208 0.0
H3503 H 0.27854 0.1969 0.79165 0.0
C3504 C 0.82234 0.0744 0.07923 0.0
C3505 C 0.81517 0.06807 0.11856 0.0
C3506 C 0.82073 0.07327 0.01857 0.0
C3507 C 0.80013 0.06494 0.92164 0.0
H3508 H 0.81881 0.0709 0.79662 0.0
C3509 C 0.79081 0.06708 0.67921 0.0
C3510 C 0.79808 0.07445 0.64506 0.0
C3511 C 0.79293 0.06512 0.73541 0.0
C3512 C 0.81354 0.0693 0.83116 0.0
H3513 H 0.80122 0.0549 0.12533 0.0
H3514 H 0.79846 0.05293 0.01952 0.0
H3515 H 0.82289 0.06883 0.89729 0.0
H3516 H 0.81307 0.08585 0.64319 0.0
H3517 H 0.81674 0.08263 0.74203 0.0
H3518 H 0.79094 0.06581 0.85671 0.0
C3519 C 0.80521 0.05889 0.03558 0.0
C3520 C 0.81586 0.06805 0.88859 0.0
C3521 C 0.80681 0.06002 0.09611 0.0
C3522 C 0.8074 0.08002 0.66848 0.0
C3523 C 0.80951 0.07812 0.72484 0.0
C3524 C 0.79784 0.06626 0.86449 0.0
C3525 C 0.81193 0.06578 -0.00354 0.0
C3526 C 0.80921 0.06597 0.93445 0.0
C3527 C 0.80232 0.07058 0.75873 0.0
C3528 C 0.80456 0.06858 0.8187 0.0
H3529 H 0.82888 0.08064 0.09519 0.0
H3530 H 0.82604 0.07869 0.98938 0.0
H3531 H 0.79493 0.06355 0.95633 0.0
H3532 H 0.78358 0.06264 0.66173 0.0
H3533 H 0.78725 0.0592 0.7601 0.0
C3534 C 0.92617 0.75042 0.10003 0.0
C3535 C 0.93102 0.74657 0.13181 0.0
C3536 C 0.92631 0.75044 0.0385 0.0
C3537 C 0.93757 0.74601 0.90755 0.0
H3538 H 0.91138 0.73324 0.84625 0.0
C3539 C 0.92691 0.72347 0.69566 0.0
C3540 C 0.92051 0.72426 0.6568 0.0
C3541 C 0.92885 0.72792 0.75075 0.0
C3542 C 0.91876 0.73696 0.8623 0.0
H3543 H 0.94061 0.74066 0.12451 0.0
H3544 H 0.9408 0.74064 0.01763 0.0
H3545 H 0.91439 0.73915 0.94712 0.0
H3546 H 0.91068 0.72981 0.64609 0.0
H3547 H 0.91415 0.73771 0.74218 0.0
H3548 H 0.94187 0.74349 0.82317 0.0
C3549 C 0.93688 0.74363 0.03984 0.0
C3550 C 0.9205 0.74039 0.92007 0.0
C3551 C 0.93671 0.74357 0.10119 0.0
C3552 C 0.91583 0.72929 0.67469 0.0
C3553 C 0.91775 0.73374 0.72986 0.0
C3554 C 0.93583 0.74258 0.84975 0.0
C3555 C 0.93135 0.74668 0.00786 0.0
C3556 C 0.92988 0.74472 0.94381 0.0
C3557 C 0.92436 0.73318 0.76822 0.0
C3558 C 0.92637 0.73778 0.82709 0.0
H3559 H 0.92178 0.75286 0.12243 0.0
H3560 H 0.92211 0.75299 0.01492 0.0
H3561 H 0.9449 0.74943 0.92443 0.0
H3562 H 0.9306 0.7196 0.68297 0.0
H3563 H 0.93382 0.72718 0.77988 0.0
C3564 C 0.47181 0.07974 0.43637 0.0
C3565 C 0.48064 0.08124 0.45918 0.0
C3566 C 0.47031 0.07928 0.37577 0.0
C3567 C 0.48176 0.08257 0.22937 0.0
H3568 H 0.45841 0.05831 0.1947 0.0
C3569 C 0.46943 0.06823 0.99304 0.0
C3570 C 0.46682 0.05852 0.98392 0.0
C3571 C 0.47102 0.07205 0.04979 0.0
C3572 C 0.46495 0.0651 0.20374 0.0
H3573 H 0.49518 0.08453 0.43675 0.0
H3574 H 0.49252 0.08361 0.33068 0.0
H3575 H 0.46169 0.06433 0.29533 0.0
H3576 H 0.46332 0.04503 0.02666 0.0
H3577 H 0.46605 0.05169 0.12645 0.0
H3578 H 0.48512 0.08312 0.13762 0.0
C3579 C 0.48677 0.08279 0.3596 0.0
C3580 C 0.46677 0.06862 0.26115 0.0
C3581 C 0.48828 0.0833 0.42037 0.0
C3582 C 0.46545 0.05258 0.03264 0.0
C3583 C 0.46698 0.05637 0.08953 0.0
C3584 C 0.4799 0.07906 0.17168 0.0
C3585 C 0.47761 0.08029 0.33697 0.0
C3586 C 0.47525 0.07732 0.27472 0.0
C3587 C 0.46984 0.06616 0.09852 0.0
C3588 C 0.47156 0.07021 0.15866 0.0
H3589 H 0.46585 0.07831 0.46534 0.0
H3590 H 0.46326 0.07756 0.35935 0.0
H3591 H 0.48835 0.08929 0.23869 0.0
H3592 H 0.4701 0.07287 0.95645 0.0
H3593 H 0.47302 0.07956 0.05564 0.0
C3594 C 0.91262 0.40325 0.42337 0.0
C3595 C 0.91511 0.39793 0.46165 0.0
C3596 C 0.91317 0.40237 0.36249 0.0
C3597 C 0.9137 0.39802 0.2319 0.0
H3598 H 0.93851 0.40022 0.19613 0.0
C3599 C 0.92828 0.40106 0.99508 0.0
C3600 C 0.93792 0.40838 0.98618 0.0
C3601 C 0.92446 0.39869 0.05176 0.0
C3602 C 0.93157 0.39961 0.20546 0.0
H3603 H 0.91889 0.38664 0.46683 0.0
H3604 H 0.9197 0.38502 0.36067 0.0
H3605 H 0.93251 0.39706 0.29675 0.0
H3606 H 0.95127 0.41863 0.02916 0.0
H3607 H 0.9446 0.41446 0.12885 0.0
H3608 H 0.91298 0.4009 0.14046 0.0
C3609 C 0.91761 0.39006 0.37754 0.0
C3610 C 0.92806 0.39767 0.26288 0.0
C3611 C 0.91711 0.39097 0.43824 0.0
C3612 C 0.94378 0.41306 0.035 0.0
C3613 C 0.93998 0.41064 0.09183 0.0
C3614 C 0.91721 0.39991 0.1742 0.0
C3615 C 0.91616 0.39612 0.33924 0.0
C3616 C 0.91915 0.39698 0.27688 0.0
C3617 C 0.93027 0.40346 0.10064 0.0
C3618 C 0.92626 0.4009 0.16078 0.0
H3619 H 0.91101 0.40863 0.44022 0.0
H3620 H 0.91201 0.40714 0.33399 0.0
H3621 H 0.90682 0.39751 0.24152 0.0
H3622 H 0.92373 0.39703 0.95832 0.0
H3623 H 0.91702 0.39299 0.05745 0.0
C3624 C 0.59569 0.52699 0.99084 0.0
C3625 C 0.58817 0.52902 0.98184 0.0
C3626 C 0.59815 0.52566 0.04757 0.0
C3627 C 0.59701 0.53177 0.20119 0.0
H3628 H 0.59992 0.5096 0.23767 0.0
C3629 C 0.60596 0.52638 0.43427 0.0
C3630 C 0.59918 0.51734 0.45768 0.0
C3631 C 0.60684 0.52779 0.37356 0.0
C3632 C 0.59919 0.51585 0.22793 0.0
H3633 H 0.57762 0.53168 0.02486 0.0
H3634 H 0.58196 0.52941 0.12453 0.0
H3635 H 0.5964 0.51218 0.13652 0.0
H3636 H 0.58878 0.50243 0.43617 0.0
H3637 H 0.59024 0.50494 0.32998 0.0
H3638 H 0.59948 0.53531 0.29245 0.0
C3639 C 0.58587 0.52875 0.08753 0.0
C3640 C 0.59722 0.51735 0.17018 0.0
C3641 C 0.58336 0.53001 0.03068 0.0
C3642 C 0.59403 0.50949 0.41935 0.0
C3643 C 0.59488 0.51093 0.35849 0.0
C3644 C 0.59904 0.53031 0.25866 0.0
C3645 C 0.59327 0.52653 0.09642 0.0
C3646 C 0.59594 0.52523 0.1566 0.0
C3647 C 0.60093 0.52021 0.33523 0.0
C3648 C 0.60002 0.52227 0.27282 0.0
H3649 H 0.59983 0.52662 0.95426 0.0
H3650 H 0.60402 0.52417 0.05331 0.0
H3651 H 0.59618 0.53797 0.19173 0.0
H3652 H 0.61016 0.53252 0.46285 0.0
H3653 H 0.61173 0.53497 0.35668 0.0
C3654 C 0.73457 0.80473 0.3329 0.0
C3655 C 0.72493 0.80244 0.34152 0.0
C3656 C 0.7384 0.80608 0.27627 0.0
C3657 C 0.73117 0.79954 0.12301 0.0
H3658 H 0.75613 0.82178 0.08525 0.0
C3659 C 0.74523 0.80449 0.88982 0.0
C3660 C 0.74746 0.81347 0.86576 0.0
C3661 C 0.74482 0.80322 0.95063 0.0
C3662 C 0.74918 0.81551 0.09534 0.0
H3663 H 0.71163 0.79939 0.29816 0.0
H3664 H 0.71832 0.80175 0.19864 0.0
H3665 H 0.75002 0.8194 0.18635 0.0
H3666 H 0.75205 0.82843 0.88597 0.0
H3667 H 0.75117 0.82617 0.99238 0.0
H3668 H 0.73011 0.79579 0.03215 0.0
C3669 C 0.72293 0.80258 0.23579 0.0
C3670 C 0.74571 0.81413 0.15308 0.0
C3671 C 0.71911 0.80127 0.29253 0.0
C3672 C 0.75026 0.82141 0.90338 0.0
C3673 C 0.74978 0.82012 0.96436 0.0
C3674 C 0.73465 0.80088 0.06556 0.0
C3675 C 0.73261 0.805 0.22721 0.0
C3676 C 0.73659 0.80622 0.16709 0.0
C3677 C 0.74657 0.81089 0.98837 0.0
C3678 C 0.74362 0.80895 0.05091 0.0
H3679 H 0.7391 0.80525 0.36979 0.0
H3680 H 0.74582 0.80775 0.2708 0.0
H3681 H 0.72418 0.79331 0.13281 0.0
H3682 H 0.74322 0.79828 0.86169 0.0
H3683 H 0.74256 0.79608 0.96805 0.0
C3684 C 0.20582 0.93132 0.31563 0.0
C3685 C 0.19861 0.92393 0.3499 0.0
C3686 C 0.20365 0.93324 0.25949 0.0
C3687 C 0.18293 0.92879 0.16384 0.0
H3688 H 0.20153 0.93458 0.03854 0.0
C3689 C 0.17408 0.92322 0.91591 0.0
C3690 C 0.18121 0.92957 0.87639 0.0
C3691 C 0.17569 0.92446 0.97654 0.0
C3692 C 0.19633 0.93317 0.07325 0.0
H3693 H 0.18366 0.91244 0.35206 0.0
H3694 H 0.17989 0.91558 0.25332 0.0
H3695 H 0.20562 0.9325 0.13828 0.0
H3696 H 0.19503 0.94285 0.86912 0.0
H3697 H 0.19779 0.94502 0.97486 0.0
H3698 H 0.17348 0.92904 0.09759 0.0
C3699 C 0.18712 0.92015 0.27038 0.0
C3700 C 0.19868 0.93196 0.13048 0.0
C3701 C 0.18928 0.91829 0.32669 0.0
C3702 C 0.18949 0.93773 0.89853 0.0
C3703 C 0.19109 0.93897 0.95901 0.0
C3704 C 0.18055 0.92992 0.10632 0.0
C3705 C 0.19426 0.92771 0.23634 0.0
C3706 C 0.19196 0.92962 0.17632 0.0
C3707 C 0.18443 0.93208 -0.00161 0.0
C3708 C 0.1872 0.93202 0.06043 0.0
H3709 H 0.21306 0.9358 0.33296 0.0
H3710 H 0.20929 0.93918 0.23467 0.0
H3711 H 0.17766 0.92717 0.1984 0.0
H3712 H 0.16759 0.9169 0.90016 0.0
H3713 H 0.17043 0.91904 0.00596 0.0
C3714 C 0.06965 0.27296 0.30781 0.0
C3715 C 0.07592 0.27195 0.34669 0.0
C3716 C 0.06759 0.26849 0.25275 0.0
C3717 C 0.07717 0.25893 0.14122 0.0
H3718 H 0.05106 0.24723 0.07916 0.0
C3719 C 0.06935 0.24559 0.90326 0.0
C3720 C 0.06477 0.24975 0.8717 0.0
C3721 C 0.06922 0.24555 0.96479 0.0
C3722 C 0.05837 0.25043 0.09603 0.0
H3723 H 0.08539 0.26597 0.35742 0.0
H3724 H 0.08169 0.25804 0.26137 0.0
H3725 H 0.05425 0.25312 0.1805 0.0
H3726 H 0.05565 0.25621 0.87933 0.0
H3727 H 0.05547 0.25617 0.98622 0.0
H3728 H 0.08137 0.25658 0.05628 0.0
C3729 C 0.0783 0.2622 0.27367 0.0
C3730 C 0.06021 0.25384 0.15386 0.0
C3731 C 0.08034 0.26666 0.32882 0.0
C3732 C 0.05934 0.25305 0.9025 0.0
C3733 C 0.05918 0.25296 0.96384 0.0
C3734 C 0.07533 0.25553 0.0834 0.0
C3735 C 0.07182 0.26299 0.23532 0.0
C3736 C 0.06967 0.25837 0.17648 0.0
C3737 C 0.06445 0.24958 0.99563 0.0
C3738 C 0.06596 0.25148 0.0597 0.0
H3739 H 0.06616 0.27702 0.32047 0.0
H3740 H 0.06274 0.26942 0.22362 0.0
H3741 H 0.08454 0.26245 0.15724 0.0
H3742 H 0.07354 0.24293 0.88071 0.0
H3743 H 0.07323 0.24276 0.98824 0.0
C3744 C 0.196 0.27865 0.29129 0.0
C3745 C 0.19482 0.27278 0.34005 0.0
C3746 C 0.19463 0.27487 0.2344 0.0
C3747 C 0.18294 0.2521 0.15123 0.0
H3748 H 0.20127 0.26764 0.03011 0.0
C3749 C 0.17575 0.24715 0.90127 0.0
C3750 C 0.1837 0.24983 0.86392 0.0
C3751 C 0.17701 0.24781 0.96229 0.0
C3752 C 0.19617 0.26313 0.06358 0.0
H3753 H 0.19193 0.25856 0.36768 0.0
H3754 H 0.18933 0.25191 0.26852 0.0
H3755 H 0.20376 0.27362 0.13069 0.0
H3756 H 0.1989 0.25407 0.86068 0.0
H3757 H 0.20106 0.25506 0.96711 0.0
H3758 H 0.17529 0.24164 0.08359 0.0
C3759 C 0.19105 0.25934 0.27427 0.0
C3760 C 0.19752 0.26663 0.12097 0.0
C3761 C 0.19246 0.26313 0.33102 0.0
C3762 C 0.19268 0.25214 0.88851 0.0
C3763 C 0.19393 0.25275 0.94937 0.0
C3764 C 0.18155 0.2486 0.09356 0.0
C3765 C 0.19214 0.26517 0.22543 0.0
C3766 C 0.19086 0.26122 0.16517 0.0
C3767 C 0.18623 0.25109 0.98667 0.0
C3768 C 0.18812 0.25413 0.04908 0.0
H3769 H 0.19794 0.28614 0.29721 0.0
H3770 H 0.19547 0.27951 0.19744 0.0
H3771 H 0.17768 0.24779 0.18456 0.0
H3772 H 0.16873 0.2453 0.88352 0.0
H3773 H 0.17094 0.24648 0.98996 0.0
C3774 C 0.71816 0.91621 0.2893 0.0
C3775 C 0.72396 0.92098 0.33816 0.0
C3776 C 0.72195 0.91872 0.23249 0.0
C3777 C 0.74472 0.93041 0.1493 0.0
H3778 H 0.72881 0.93278 0.02892 0.0
C3779 C 0.74409 0.93994 0.88683 0.0
C3780 C 0.74662 0.93344 0.86207 0.0
C3781 C 0.74358 0.94061 0.94773 0.0
C3782 C 0.73343 0.93232 0.06218 0.0
H3783 H 0.73805 0.93252 0.3661 0.0
H3784 H 0.74472 0.93676 0.26703 0.0
H3785 H 0.72289 0.92908 0.12951 0.0
H3786 H 0.75161 0.92335 0.88123 0.0
H3787 H 0.75056 0.9244 0.98776 0.0
H3788 H 0.75522 0.93354 0.0814 0.0
C3789 C 0.73734 0.93091 0.27264 0.0
C3790 C 0.72996 0.93005 0.11958 0.0
C3791 C 0.73354 0.92843 0.32933 0.0
C3792 C 0.7496 0.92839 0.89917 0.0
C3793 C 0.74901 0.92901 0.96023 0.0
C3794 C 0.74818 0.93264 0.0916 0.0
C3795 C 0.73157 0.92611 0.22369 0.0
C3796 C 0.7355 0.92893 0.16349 0.0
C3797 C 0.74551 0.93475 0.98487 0.0
C3798 C 0.74252 0.93352 0.04737 0.0
H3799 H 0.71072 0.91053 0.29508 0.0
H3800 H 0.71735 0.91487 0.19543 0.0
H3801 H 0.74913 0.92957 0.18242 0.0
H3802 H 0.74193 0.94406 0.85915 0.0
H3803 H 0.7411 0.94528 0.96566 0.0
C3804 C 0.07251 0.82295 0.89962 0.0
C3805 C 0.0667 0.81563 0.85958 0.0
C3806 C 0.07106 0.82129 0.96013 0.0
C3807 C 0.06318 0.8007 0.05653 0.0
H3808 H 0.06801 0.81914 0.1814 0.0
C3809 C 0.07721 0.79815 0.28475 0.0
C3810 C 0.07291 0.79984 0.33367 0.0
C3811 C 0.075 0.7998 0.228 0.0
C3812 C 0.06655 0.81389 0.14695 0.0
H3813 H 0.05407 0.80134 0.85074 0.0
H3814 H 0.05149 0.79849 0.95623 0.0
H3815 H 0.06582 0.823 0.08023 0.0
H3816 H 0.06233 0.80376 0.36185 0.0
H3817 H 0.05871 0.80694 0.26275 0.0
H3818 H 0.06417 0.7917 0.12267 0.0
C3819 C 0.05731 0.8054 0.94103 0.0
C3820 C 0.06534 0.81611 0.08923 0.0
C3821 C 0.05878 0.80704 0.88072 0.0
C3822 C 0.06609 0.80284 0.32496 0.0
C3823 C 0.06395 0.80457 0.26835 0.0
C3824 C 0.06447 0.79852 0.11397 0.0
C3825 C 0.06374 0.8123 0.98121 0.0
C3826 C 0.06377 0.80959 0.04339 0.0
C3827 C 0.06843 0.80312 0.21942 0.0
C3828 C 0.06633 0.80515 0.15949 0.0
H3829 H 0.07864 0.82966 0.88452 0.0
H3830 H 0.07613 0.82674 0.99015 0.0
H3831 H 0.06214 0.79558 0.02199 0.0
H3832 H 0.08239 0.7957 0.29046 0.0
H3833 H 0.07858 0.79866 0.19088 0.0
C3834 C 0.94176 0.53824 0.01637 0.0
C3835 C 0.9409 0.53048 0.98264 0.0
C3836 C 0.9377 0.53662 0.07248 0.0
C3837 C 0.91971 0.51728 0.16938 0.0
H3838 H 0.9344 0.53549 0.29306 0.0
C3839 C 0.91462 0.50923 0.41866 0.0
C3840 C 0.91674 0.51696 0.45684 0.0
C3841 C 0.91536 0.51067 0.35778 0.0
C3842 C 0.9301 0.53043 0.25882 0.0
H3843 H 0.93553 0.51506 0.98154 0.0
H3844 H 0.92859 0.51222 0.08031 0.0
H3845 H 0.94071 0.5385 0.19345 0.0
H3846 H 0.92004 0.53189 0.46145 0.0
H3847 H 0.9212 0.53435 0.35527 0.0
H3848 H 0.90927 0.50903 0.23594 0.0
C3849 C 0.93212 0.5195 0.06276 0.0
C3850 C 0.93374 0.53215 0.20166 0.0
C3851 C 0.93613 0.52112 0.00642 0.0
C3852 C 0.91856 0.52584 0.43307 0.0
C3853 C 0.91926 0.52727 0.37233 0.0
C3854 C 0.91609 0.51553 0.22685 0.0
C3855 C 0.9328 0.52723 0.09626 0.0
C3856 C 0.92864 0.52555 0.15637 0.0
C3857 C 0.91816 0.51985 0.33432 0.0
C3858 C 0.9213 0.52206 0.27219 0.0
H3859 H 0.94534 0.54552 -0.00131 0.0
H3860 H 0.93826 0.54271 0.09683 0.0
H3861 H 0.91554 0.51214 0.13522 0.0
H3862 H 0.91314 0.50228 0.4357 0.0
H3863 H 0.91447 0.50481 0.32952 0.0
C3864 C 0.47904 0.4145 0.00195 0.0
C3865 C 0.46933 0.40983 0.98381 0.0
C3866 C 0.48153 0.41246 0.05688 0.0
C3867 C 0.47209 0.39412 0.17561 0.0
H3868 H 0.49006 0.41533 0.2745 0.0
C3869 C 0.47135 0.3933 0.42666 0.0
C3870 C 0.47999 0.39869 0.45825 0.0
C3871 C 0.47144 0.39312 0.36535 0.0
C3872 C 0.48521 0.40929 0.24699 0.0
H3873 H 0.45457 0.39967 0.00942 0.0
H3874 H 0.45887 0.39628 0.10592 0.0
H3875 H 0.48743 0.41854 0.17347 0.0
H3876 H 0.4956 0.40741 0.45084 0.0
H3877 H 0.49576 0.40711 0.34327 0.0
H3878 H 0.46957 0.38495 0.25017 0.0
C3879 C 0.4646 0.4013 0.07712 0.0
C3880 C 0.48367 0.41114 0.18913 0.0
C3881 C 0.46212 0.40334 0.02227 0.0
C3882 C 0.48882 0.40324 0.42761 0.0
C3883 C 0.48891 0.40312 0.36609 0.0
C3884 C 0.47361 0.39228 0.23352 0.0
C3885 C 0.47434 0.40576 0.09477 0.0
C3886 C 0.47688 0.40362 0.15343 0.0
C3887 C 0.48019 0.39836 0.33442 0.0
C3888 C 0.47997 0.39989 0.2703 0.0
H3889 H 0.48471 0.41972 0.97369 0.0
H3890 H 0.48909 0.41604 0.06936 0.0
H3891 H 0.46697 0.38814 0.14864 0.0
H3892 H 0.46444 0.38964 0.44919 0.0
H3893 H 0.4646 0.38943 0.34225 0.0
C3894 C 0.6036 0.07876 0.42195 0.0
C3895 C 0.59762 0.0814 0.45251 0.0
C3896 C 0.60388 0.07896 0.36065 0.0
C3897 C 0.58744 0.07514 0.24067 0.0
H3898 H 0.60929 0.07937 0.14444 0.0
C3899 C 0.58344 0.06402 0.99563 0.0
C3900 C 0.58858 0.05943 0.97803 0.0
C3901 C 0.58511 0.06845 0.05072 0.0
C3902 C 0.60312 0.07814 0.17084 0.0
H3903 H 0.58793 0.08717 0.44327 0.0
H3904 H 0.58842 0.08751 0.33572 0.0
H3905 H 0.61199 0.0853 0.2457 0.0
H3906 H 0.5992 0.05552 0.00463 0.0
H3907 H 0.602 0.06307 0.10151 0.0
H3908 H 0.57853 0.06766 0.16675 0.0
C3909 C 0.59279 0.08518 0.35934 0.0
C3910 C 0.60467 0.08157 0.2286 0.0
C3911 C 0.59256 0.08503 0.42085 0.0
C3912 C 0.59518 0.05905 0.01713 0.0
C3913 C 0.59686 0.06348 0.07218 0.0
C3914 C 0.58589 0.07171 0.18294 0.0
C3915 C 0.59816 0.08178 0.32869 0.0
C3916 C 0.59682 0.07987 0.26461 0.0
C3917 C 0.59192 0.06832 0.0893 0.0
C3918 C 0.59369 0.07293 0.14802 0.0
H3919 H 0.60767 0.07603 0.44527 0.0
H3920 H 0.60805 0.07625 0.3384 0.0
H3921 H 0.58122 0.07358 0.26757 0.0
H3922 H 0.57813 0.06421 0.96681 0.0
H3923 H 0.58117 0.07209 0.06278 0.0
loop_
_geom_bond_atom_site_label_1
_geom_bond_atom_site_label_2
_geom_bond_distance
_geom_bond_site_symmetry_2
_ccdc_geom_bond_type
Co0 O3 1.970 . S
Co0 N17 1.989 1_556 S
Co0 O25 1.967 . S
Co0 O32 1.920 . S
Co1 O4 1.966 . S
Co1 N10 2.022 . S
Co1 N18 1.993 . S
Co1 O26 1.941 . S
C2 O3 1.258 1_554 S
C2 O4 1.263 . S
O3 Co0 1.970 . S
O3 C2 1.258 1_556 S
O4 Co1 1.966 . S
O4 C2 1.263 . S
C5 O6 1.235 . S
C5 O32 1.289 . S
O6 C5 1.235 . S
C7 C9 1.400 . S
C7 N10 1.351 . S
C7 C12 1.501 . S
C8 C9 1.387 . S
C8 N11 1.341 . S
C9 C7 1.400 . S
C9 C8 1.387 . S
N10 Co1 2.022 . S
N10 C7 1.351 . S
N10 N11 1.365 . S
N11 C8 1.341 . S
N11 N10 1.365 . S
N11 H31 0.862 . S
C12 C7 1.501 . S
C12 H13 0.961 . S
C12 H14 0.961 . S
C12 H15 0.960 . S
H13 C12 0.961 . S
H14 C12 0.961 . S
H15 C12 0.960 . S
C16 N17 1.342 1_556 S
C16 C20 1.401 1_556 S
C16 C21 1.499 . S
N17 Co0 1.989 1_554 S
N17 C16 1.342 1_554 S
N17 N18 1.388 . S
N18 Co1 1.993 . S
N18 N17 1.388 . S
N18 C19 1.346 . S
C19 N18 1.346 . S
C19 C20 1.396 . S
C19 C29 1.510 . S
C20 C16 1.401 1_554 S
C20 C19 1.396 . S
C21 C16 1.499 . S
C21 H22 0.959 . S
C21 H23 0.960 . S
C21 H24 0.961 . S
H22 C21 0.959 . S
H23 C21 0.960 . S
H24 C21 0.961 . S
O25 Co0 1.967 . S
O25 C33 1.258 1_556 S
O26 Co1 1.941 . S
O26 C33 1.266 . S
H27 C29 0.959 . S
H28 C29 0.961 . S
C29 C19 1.510 . S
C29 H27 0.959 . S
C29 H28 0.961 . S
C29 H30 0.960 . S
H30 C29 0.960 . S
H31 N11 0.862 . S
O32 Co0 1.920 . S
O32 C5 1.289 . S
C33 O25 1.258 1_554 S
C33 O26 1.266 . S
Co34 O37 1.970 . S
Co34 N51 1.989 1_556 S
Co34 O59 1.967 . S
Co34 O66 1.920 . S
Co35 O38 1.966 . S
Co35 N44 2.022 . S
Co35 N52 1.993 . S
Co35 O60 1.941 . S
C36 O37 1.258 1_554 S
C36 O38 1.263 . S
O37 Co34 1.970 . S
O37 C36 1.258 1_556 S
O38 Co35 1.966 . S
O38 C36 1.263 . S
C39 O40 1.235 . S
C39 O66 1.289 . S
O40 C39 1.235 . S
C41 C43 1.400 . S
C41 N44 1.351 . S
C41 C46 1.501 . S
C42 C43 1.387 . S
C42 N45 1.341 . S
C43 C41 1.400 . S
C43 C42 1.387 . S
N44 Co35 2.022 . S
N44 C41 1.351 . S
N44 N45 1.365 . S
N45 C42 1.341 . S
N45 N44 1.365 . S
N45 H65 0.862 . S
C46 C41 1.501 . S
C46 H47 0.961 . S
C46 H48 0.961 . S
C46 H49 0.960 . S
H47 C46 0.961 . S
H48 C46 0.961 . S
H49 C46 0.960 . S
C50 N51 1.342 1_556 S
C50 C54 1.401 1_556 S
C50 C55 1.499 . S
N51 Co34 1.989 1_554 S
N51 C50 1.342 1_554 S
N51 N52 1.388 . S
N52 Co35 1.993 . S
N52 N51 1.388 . S
N52 C53 1.346 . S
C53 N52 1.346 . S
C53 C54 1.396 . S
C53 C63 1.510 . S
C54 C50 1.401 1_554 S
C54 C53 1.396 . S
C55 C50 1.499 . S
C55 H56 0.959 . S
C55 H57 0.960 . S
C55 H58 0.961 . S
H56 C55 0.959 . S
H57 C55 0.960 . S
H58 C55 0.961 . S
O59 Co34 1.967 . S
O59 C67 1.258 1_556 S
O60 Co35 1.941 . S
O60 C67 1.266 . S
H61 C63 0.959 . S
H62 C63 0.961 . S
C63 C53 1.510 . S
C63 H61 0.959 . S
C63 H62 0.961 . S
C63 H64 0.960 . S
H64 C63 0.960 . S
H65 N45 0.862 . S
O66 Co34 1.920 . S
O66 C39 1.289 . S
C67 O59 1.258 1_554 S
C67 O60 1.266 . S
Co68 O71 1.970 . S
Co68 N85 1.989 1_556 S
Co68 O93 1.967 . S
Co68 O100 1.920 . S
Co69 O72 1.966 . S
Co69 N78 2.022 . S
Co69 N86 1.993 . S
Co69 O94 1.941 . S
C70 O71 1.258 1_554 S
C70 O72 1.263 . S
O71 Co68 1.970 . S
O71 C70 1.258 1_556 S
O72 Co69 1.966 . S
O72 C70 1.263 . S
C73 O74 1.235 . S
C73 O100 1.289 . S
O74 C73 1.235 . S
C75 C77 1.400 . S
C75 N78 1.351 . S
C75 C80 1.501 . S
C76 C77 1.387 . S
C76 N79 1.341 . S
C77 C75 1.400 . S
C77 C76 1.387 . S
N78 Co69 2.022 . S
N78 C75 1.351 . S
N78 N79 1.365 . S
N79 C76 1.341 . S
N79 N78 1.365 . S
N79 H99 0.862 . S
C80 C75 1.501 . S
C80 H81 0.961 . S
C80 H82 0.961 . S
C80 H83 0.960 . S
H81 C80 0.961 . S
H82 C80 0.961 . S
H83 C80 0.960 . S
C84 N85 1.342 1_556 S
C84 C88 1.401 1_556 S
C84 C89 1.499 . S
N85 Co68 1.989 1_554 S
N85 C84 1.342 1_554 S
N85 N86 1.388 . S
N86 Co69 1.993 . S
N86 N85 1.388 . S
N86 C87 1.346 . S
C87 N86 1.346 . S
C87 C88 1.396 . S
C87 C97 1.510 . S
C88 C84 1.401 1_554 S
C88 C87 1.396 . S
C89 C84 1.499 . S
C89 H90 0.959 . S
C89 H91 0.960 . S
C89 H92 0.961 . S
H90 C89 0.959 . S
H91 C89 0.960 . S
H92 C89 0.961 . S
O93 Co68 1.967 . S
O93 C101 1.258 1_556 S
O94 Co69 1.941 . S
O94 C101 1.266 . S
H95 C97 0.959 . S
H96 C97 0.961 . S
C97 C87 1.510 . S
C97 H95 0.959 . S
C97 H96 0.961 . S
C97 H98 0.960 . S
H98 C97 0.960 . S
H99 N79 0.862 . S
O100 Co68 1.920 . S
O100 C73 1.289 . S
C101 O93 1.258 1_554 S
C101 O94 1.266 . S
Co102 O105 1.970 . S
Co102 N119 1.989 1_554 S
Co102 O127 1.967 . S
Co102 O134 1.920 . S
Co103 O106 1.966 . S
Co103 N112 2.022 . S
Co103 N120 1.993 . S
Co103 O128 1.941 . S
C104 O105 1.258 1_556 S
C104 O106 1.263 . S
O105 Co102 1.970 . S
O105 C104 1.258 1_554 S
O106 Co103 1.966 . S
O106 C104 1.263 . S
C107 O108 1.235 . S
C107 O134 1.289 . S
O108 C107 1.235 . S
C109 C111 1.400 . S
C109 N112 1.351 . S
C109 C114 1.501 . S
C110 C111 1.387 . S
C110 N113 1.341 . S
C111 C109 1.400 . S
C111 C110 1.387 . S
N112 Co103 2.022 . S
N112 C109 1.351 . S
N112 N113 1.365 . S
N113 C110 1.341 . S
N113 N112 1.365 . S
N113 H133 0.862 . S
C114 C109 1.501 . S
C114 H115 0.961 . S
C114 H116 0.961 . S
C114 H117 0.960 . S
H115 C114 0.961 . S
H116 C114 0.961 . S
H117 C114 0.960 . S
C118 N119 1.342 1_554 S
C118 C122 1.401 1_554 S
C118 C123 1.499 . S
N119 Co102 1.989 1_556 S
N119 C118 1.342 1_556 S
N119 N120 1.388 . S
N120 Co103 1.993 . S
N120 N119 1.388 . S
N120 C121 1.346 . S
C121 N120 1.346 . S
C121 C122 1.396 . S
C121 C131 1.510 . S
C122 C118 1.401 1_556 S
C122 C121 1.396 . S
C123 C118 1.499 . S
C123 H124 0.959 . S
C123 H125 0.960 . S
C123 H126 0.961 . S
H124 C123 0.959 . S
H125 C123 0.960 . S
H126 C123 0.961 . S
O127 Co102 1.967 . S
O127 C135 1.258 1_554 S
O128 Co103 1.941 . S
O128 C135 1.266 . S
H129 C131 0.959 . S
H130 C131 0.961 . S
C131 C121 1.510 . S
C131 H129 0.959 . S
C131 H130 0.961 . S
C131 H132 0.960 . S
H132 C131 0.960 . S
H133 N113 0.862 . S
O134 Co102 1.920 . S
O134 C107 1.289 . S
C135 O127 1.258 1_556 S
C135 O128 1.266 . S
Co136 O139 1.970 . S
Co136 N153 1.989 1_554 S
Co136 O161 1.967 . S
Co136 O168 1.920 . S
Co137 O140 1.966 . S
Co137 N146 2.022 . S
Co137 N154 1.993 . S
Co137 O162 1.941 . S
C138 O139 1.258 1_556 S
C138 O140 1.263 . S
O139 Co136 1.970 . S
O139 C138 1.258 1_554 S
O140 Co137 1.966 . S
O140 C138 1.263 . S
C141 O142 1.235 . S
C141 O168 1.289 . S
O142 C141 1.235 . S
C143 C145 1.400 . S
C143 N146 1.351 . S
C143 C148 1.501 . S
C144 C145 1.387 . S
C144 N147 1.341 . S
C145 C143 1.400 . S
C145 C144 1.387 . S
N146 Co137 2.022 . S
N146 C143 1.351 . S
N146 N147 1.365 . S
N147 C144 1.341 . S
N147 N146 1.365 . S
N147 H167 0.862 . S
C148 C143 1.501 . S
C148 H149 0.961 . S
C148 H150 0.961 . S
C148 H151 0.960 . S
H149 C148 0.961 . S
H150 C148 0.961 . S
H151 C148 0.960 . S
C152 N153 1.342 1_554 S
C152 C156 1.401 1_554 S
C152 C157 1.499 . S
N153 Co136 1.989 1_556 S
N153 C152 1.342 1_556 S
N153 N154 1.388 . S
N154 Co137 1.993 . S
N154 N153 1.388 . S
N154 C155 1.346 . S
C155 N154 1.346 . S
C155 C156 1.396 . S
C155 C165 1.510 . S
C156 C152 1.401 1_556 S
C156 C155 1.396 . S
C157 C152 1.499 . S
C157 H158 0.959 . S
C157 H159 0.960 . S
C157 H160 0.961 . S
H158 C157 0.959 . S
H159 C157 0.960 . S
H160 C157 0.961 . S
O161 Co136 1.967 . S
O161 C169 1.258 1_554 S
O162 Co137 1.941 . S
O162 C169 1.266 . S
H163 C165 0.959 . S
H164 C165 0.961 . S
C165 C155 1.510 . S
C165 H163 0.959 . S
C165 H164 0.961 . S
C165 H166 0.960 . S
H166 C165 0.960 . S
H167 N147 0.862 . S
O168 Co136 1.920 . S
O168 C141 1.289 . S
C169 O161 1.258 1_556 S
C169 O162 1.266 . S
Co170 O173 1.970 . S
Co170 N187 1.989 1_554 S
Co170 O195 1.967 . S
Co170 O202 1.920 . S
Co171 O174 1.966 . S
Co171 N180 2.022 . S
Co171 N188 1.993 . S
Co171 O196 1.941 . S
C172 O173 1.258 1_556 S
C172 O174 1.263 . S
O173 Co170 1.970 . S
O173 C172 1.258 1_554 S
O174 Co171 1.966 . S
O174 C172 1.263 . S
C175 O176 1.235 . S
C175 O202 1.289 . S
O176 C175 1.235 . S
C177 C179 1.400 . S
C177 N180 1.351 . S
C177 C182 1.501 . S
C178 C179 1.387 . S
C178 N181 1.341 . S
C179 C177 1.400 . S
C179 C178 1.387 . S
N180 Co171 2.022 . S
N180 C177 1.351 . S
N180 N181 1.365 . S
N181 C178 1.341 . S
N181 N180 1.365 . S
N181 H201 0.862 . S
C182 C177 1.501 . S
C182 H183 0.961 . S
C182 H184 0.961 . S
C182 H185 0.960 . S
H183 C182 0.961 . S
H184 C182 0.961 . S
H185 C182 0.960 . S
C186 N187 1.342 1_554 S
C186 C190 1.401 1_554 S
C186 C191 1.499 . S
N187 Co170 1.989 1_556 S
N187 C186 1.342 1_556 S
N187 N188 1.388 . S
N188 Co171 1.993 . S
N188 N187 1.388 . S
N188 C189 1.346 . S
C189 N188 1.346 . S
C189 C190 1.396 . S
C189 C199 1.510 . S
C190 C186 1.401 1_556 S
C190 C189 1.396 . S
C191 C186 1.499 . S
C191 H192 0.959 . S
C191 H193 0.960 . S
C191 H194 0.961 . S
H192 C191 0.959 . S
H193 C191 0.960 . S
H194 C191 0.961 . S
O195 Co170 1.967 . S
O195 C203 1.258 1_554 S
O196 Co171 1.941 . S
O196 C203 1.266 . S
H197 C199 0.959 . S
H198 C199 0.961 . S
C199 C189 1.510 . S
C199 H197 0.959 . S
C199 H198 0.961 . S
C199 H200 0.960 . S
H200 C199 0.960 . S
H201 N181 0.862 . S
O202 Co170 1.920 . S
O202 C175 1.289 . S
C203 O195 1.258 1_556 S
C203 O196 1.266 . S
Co204 O207 1.970 . S
Co204 N221 1.989 1_554 S
Co204 O229 1.967 . S
Co204 O236 1.920 . S
Co205 O208 1.966 . S
Co205 N214 2.022 . S
Co205 N222 1.993 . S
Co205 O230 1.941 . S
C206 O207 1.258 1_556 S
C206 O208 1.263 . S
O207 Co204 1.970 . S
O207 C206 1.258 1_554 S
O208 Co205 1.966 . S
O208 C206 1.263 . S
C209 O210 1.235 . S
C209 O236 1.289 . S
O210 C209 1.235 . S
C211 C213 1.400 . S
C211 N214 1.351 . S
C211 C216 1.501 . S
C212 C213 1.387 . S
C212 N215 1.341 . S
C213 C211 1.400 . S
C213 C212 1.387 . S
N214 Co205 2.022 . S
N214 C211 1.351 . S
N214 N215 1.365 . S
N215 C212 1.341 . S
N215 N214 1.365 . S
N215 H235 0.862 . S
C216 C211 1.501 . S
C216 H217 0.961 . S
C216 H218 0.961 . S
C216 H219 0.960 . S
H217 C216 0.961 . S
H218 C216 0.961 . S
H219 C216 0.960 . S
C220 N221 1.342 1_554 S
C220 C224 1.401 1_554 S
C220 C225 1.499 . S
N221 Co204 1.989 1_556 S
N221 C220 1.342 1_556 S
N221 N222 1.388 . S
N222 Co205 1.993 . S
N222 N221 1.388 . S
N222 C223 1.346 . S
C223 N222 1.346 . S
C223 C224 1.396 . S
C223 C233 1.510 . S
C224 C220 1.401 1_556 S
C224 C223 1.396 . S
C225 C220 1.499 . S
C225 H226 0.959 . S
C225 H227 0.960 . S
C225 H228 0.961 . S
H226 C225 0.959 . S
H227 C225 0.960 . S
H228 C225 0.961 . S
O229 Co204 1.967 . S
O229 C237 1.258 1_554 S
O230 Co205 1.941 . S
O230 C237 1.266 . S
H231 C233 0.959 . S
H232 C233 0.961 . S
C233 C223 1.510 . S
C233 H231 0.959 . S
C233 H232 0.961 . S
C233 H234 0.960 . S
H234 C233 0.960 . S
H235 N215 0.862 . S
O236 Co204 1.920 . S
O236 C209 1.289 . S
C237 O229 1.258 1_556 S
C237 O230 1.266 . S
Co238 O241 1.970 . S
Co238 N255 1.989 1_554 S
Co238 O263 1.967 . S
Co238 O270 1.920 . S
Co239 O242 1.966 . S
Co239 N248 2.022 . S
Co239 N256 1.993 . S
Co239 O264 1.941 . S
C240 O241 1.258 1_556 S
C240 O242 1.263 . S
O241 Co238 1.970 . S
O241 C240 1.258 1_554 S
O242 Co239 1.966 . S
O242 C240 1.263 . S
C243 O244 1.235 . S
C243 O270 1.289 . S
O244 C243 1.235 . S
C245 C247 1.400 . S
C245 N248 1.351 . S
C245 C250 1.501 . S
C246 C247 1.387 . S
C246 N249 1.341 . S
C247 C245 1.400 . S
C247 C246 1.387 . S
N248 Co239 2.022 . S
N248 C245 1.351 . S
N248 N249 1.365 . S
N249 C246 1.341 . S
N249 N248 1.365 . S
N249 H269 0.862 . S
C250 C245 1.501 . S
C250 H251 0.961 . S
C250 H252 0.961 . S
C250 H253 0.960 . S
H251 C250 0.961 . S
H252 C250 0.961 . S
H253 C250 0.960 . S
C254 N255 1.342 1_554 S
C254 C258 1.401 1_554 S
C254 C259 1.499 . S
N255 Co238 1.989 1_556 S
N255 C254 1.342 1_556 S
N255 N256 1.388 . S
N256 Co239 1.993 . S
N256 N255 1.388 . S
N256 C257 1.346 . S
C257 N256 1.346 . S
C257 C258 1.396 . S
C257 C267 1.510 . S
C258 C254 1.401 1_556 S
C258 C257 1.396 . S
C259 C254 1.499 . S
C259 H260 0.959 . S
C259 H261 0.960 . S
C259 H262 0.961 . S
H260 C259 0.959 . S
H261 C259 0.960 . S
H262 C259 0.961 . S
O263 Co238 1.967 . S
O263 C271 1.258 1_554 S
O264 Co239 1.941 . S
O264 C271 1.266 . S
H265 C267 0.959 . S
H266 C267 0.961 . S
C267 C257 1.510 . S
C267 H265 0.959 . S
C267 H266 0.961 . S
C267 H268 0.960 . S
H268 C267 0.960 . S
H269 N249 0.862 . S
O270 Co238 1.920 . S
O270 C243 1.289 . S
C271 O263 1.258 1_556 S
C271 O264 1.266 . S
Co272 O275 1.970 . S
Co272 N289 1.989 1_554 S
Co272 O297 1.967 . S
Co272 O304 1.920 . S
Co273 O276 1.966 . S
Co273 N282 2.022 . S
Co273 N290 1.993 . S
Co273 O298 1.941 . S
C274 O275 1.258 1_556 S
C274 O276 1.263 . S
O275 Co272 1.970 . S
O275 C274 1.258 1_554 S
O276 Co273 1.966 . S
O276 C274 1.263 . S
C277 O278 1.235 . S
C277 O304 1.289 . S
O278 C277 1.235 . S
C279 C281 1.400 . S
C279 N282 1.351 . S
C279 C284 1.501 . S
C280 C281 1.387 . S
C280 N283 1.341 . S
C281 C279 1.400 . S
C281 C280 1.387 . S
N282 Co273 2.022 . S
N282 C279 1.351 . S
N282 N283 1.365 . S
N283 C280 1.341 . S
N283 N282 1.365 . S
N283 H303 0.862 . S
C284 C279 1.501 . S
C284 H285 0.961 . S
C284 H286 0.961 . S
C284 H287 0.960 . S
H285 C284 0.961 . S
H286 C284 0.961 . S
H287 C284 0.960 . S
C288 N289 1.342 1_554 S
C288 C292 1.401 1_554 S
C288 C293 1.499 . S
N289 Co272 1.989 1_556 S
N289 C288 1.342 1_556 S
N289 N290 1.388 . S
N290 Co273 1.993 . S
N290 N289 1.388 . S
N290 C291 1.346 . S
C291 N290 1.346 . S
C291 C292 1.396 . S
C291 C301 1.510 . S
C292 C288 1.401 1_556 S
C292 C291 1.396 . S
C293 C288 1.499 . S
C293 H294 0.959 . S
C293 H295 0.960 . S
C293 H296 0.961 . S
H294 C293 0.959 . S
H295 C293 0.960 . S
H296 C293 0.961 . S
O297 Co272 1.967 . S
O297 C305 1.258 1_554 S
O298 Co273 1.941 . S
O298 C305 1.266 . S
H299 C301 0.959 . S
H300 C301 0.961 . S
C301 C291 1.510 . S
C301 H299 0.959 . S
C301 H300 0.961 . S
C301 H302 0.960 . S
H302 C301 0.960 . S
H303 N283 0.862 . S
O304 Co272 1.920 . S
O304 C277 1.289 . S
C305 O297 1.258 1_556 S
C305 O298 1.266 . S
Co306 O309 1.970 . S
Co306 N323 1.989 1_556 S
Co306 O331 1.967 . S
Co306 O338 1.920 . S
Co307 O310 1.966 . S
Co307 N316 2.022 . S
Co307 N324 1.993 . S
Co307 O332 1.941 . S
C308 O309 1.258 1_554 S
C308 O310 1.263 . S
O309 Co306 1.970 . S
O309 C308 1.258 1_556 S
O310 Co307 1.966 . S
O310 C308 1.263 . S
C311 O312 1.235 . S
C311 O338 1.289 . S
O312 C311 1.235 . S
C313 C315 1.400 . S
C313 N316 1.351 . S
C313 C318 1.501 . S
C314 C315 1.387 . S
C314 N317 1.341 . S
C315 C313 1.400 . S
C315 C314 1.387 . S
N316 Co307 2.022 . S
N316 C313 1.351 . S
N316 N317 1.365 . S
N317 C314 1.341 . S
N317 N316 1.365 . S
N317 H337 0.862 . S
C318 C313 1.501 . S
C318 H319 0.961 . S
C318 H320 0.961 . S
C318 H321 0.960 . S
H319 C318 0.961 . S
H320 C318 0.961 . S
H321 C318 0.960 . S
C322 N323 1.342 1_556 S
C322 C326 1.401 1_556 S
C322 C327 1.499 . S
N323 Co306 1.989 1_554 S
N323 C322 1.342 1_554 S
N323 N324 1.388 . S
N324 Co307 1.993 . S
N324 N323 1.388 . S
N324 C325 1.346 . S
C325 N324 1.346 . S
C325 C326 1.396 . S
C325 C335 1.510 . S
C326 C322 1.401 1_554 S
C326 C325 1.396 . S
C327 C322 1.499 . S
C327 H328 0.959 . S
C327 H329 0.960 . S
C327 H330 0.961 . S
H328 C327 0.959 . S
H329 C327 0.960 . S
H330 C327 0.961 . S
O331 Co306 1.967 . S
O331 C339 1.258 1_556 S
O332 Co307 1.941 . S
O332 C339 1.266 . S
H333 C335 0.959 . S
H334 C335 0.961 . S
C335 C325 1.510 . S
C335 H333 0.959 . S
C335 H334 0.961 . S
C335 H336 0.960 . S
H336 C335 0.960 . S
H337 N317 0.862 . S
O338 Co306 1.920 . S
O338 C311 1.289 . S
C339 O331 1.258 1_554 S
C339 O332 1.266 . S
Co340 O343 1.970 . S
Co340 N357 1.989 1_556 S
Co340 O365 1.967 . S
Co340 O372 1.920 . S
Co341 O344 1.966 . S
Co341 N350 2.022 . S
Co341 N358 1.993 . S
Co341 O366 1.941 . S
C342 O343 1.258 1_554 S
C342 O344 1.263 . S
O343 Co340 1.970 . S
O343 C342 1.258 1_556 S
O344 Co341 1.966 . S
O344 C342 1.263 . S
C345 O346 1.235 . S
C345 O372 1.289 . S
O346 C345 1.235 . S
C347 C349 1.400 . S
C347 N350 1.351 . S
C347 C352 1.501 . S
C348 C349 1.387 . S
C348 N351 1.341 . S
C349 C347 1.400 . S
C349 C348 1.387 . S
N350 Co341 2.022 . S
N350 C347 1.351 . S
N350 N351 1.365 . S
N351 C348 1.341 . S
N351 N350 1.365 . S
N351 H371 0.862 . S
C352 C347 1.501 . S
C352 H353 0.961 . S
C352 H354 0.961 . S
C352 H355 0.960 . S
H353 C352 0.961 . S
H354 C352 0.961 . S
H355 C352 0.960 . S
C356 N357 1.342 1_556 S
C356 C360 1.401 1_556 S
C356 C361 1.499 . S
N357 Co340 1.989 1_554 S
N357 C356 1.342 1_554 S
N357 N358 1.388 . S
N358 Co341 1.993 . S
N358 N357 1.388 . S
N358 C359 1.346 . S
C359 N358 1.346 . S
C359 C360 1.396 . S
C359 C369 1.510 . S
C360 C356 1.401 1_554 S
C360 C359 1.396 . S
C361 C356 1.499 . S
C361 H362 0.959 . S
C361 H363 0.960 . S
C361 H364 0.961 . S
H362 C361 0.959 . S
H363 C361 0.960 . S
H364 C361 0.961 . S
O365 Co340 1.967 . S
O365 C373 1.258 1_556 S
O366 Co341 1.941 . S
O366 C373 1.266 . S
H367 C369 0.959 . S
H368 C369 0.961 . S
C369 C359 1.510 . S
C369 H367 0.959 . S
C369 H368 0.961 . S
C369 H370 0.960 . S
H370 C369 0.960 . S
H371 N351 0.862 . S
O372 Co340 1.920 . S
O372 C345 1.289 . S
C373 O365 1.258 1_554 S
C373 O366 1.266 . S
Co374 O377 1.970 . S
Co374 N391 1.989 1_556 S
Co374 O399 1.967 . S
Co374 O406 1.920 . S
Co375 O378 1.966 . S
Co375 N384 2.022 . S
Co375 N392 1.993 . S
Co375 O400 1.941 . S
C376 O377 1.258 1_554 S
C376 O378 1.263 . S
O377 Co374 1.970 . S
O377 C376 1.258 1_556 S
O378 Co375 1.966 . S
O378 C376 1.263 . S
C379 O380 1.235 . S
C379 O406 1.289 . S
O380 C379 1.235 . S
C381 C383 1.400 . S
C381 N384 1.351 . S
C381 C386 1.501 . S
C382 C383 1.387 . S
C382 N385 1.341 . S
C383 C381 1.400 . S
C383 C382 1.387 . S
N384 Co375 2.022 . S
N384 C381 1.351 . S
N384 N385 1.365 . S
N385 C382 1.341 . S
N385 N384 1.365 . S
N385 H405 0.862 . S
C386 C381 1.501 . S
C386 H387 0.961 . S
C386 H388 0.961 . S
C386 H389 0.960 . S
H387 C386 0.961 . S
H388 C386 0.961 . S
H389 C386 0.960 . S
C390 N391 1.342 1_556 S
C390 C394 1.401 1_556 S
C390 C395 1.499 . S
N391 Co374 1.989 1_554 S
N391 C390 1.342 1_554 S
N391 N392 1.388 . S
N392 Co375 1.993 . S
N392 N391 1.388 . S
N392 C393 1.346 . S
C393 N392 1.346 . S
C393 C394 1.396 . S
C393 C403 1.510 . S
C394 C390 1.401 1_554 S
C394 C393 1.396 . S
C395 C390 1.499 . S
C395 H396 0.959 . S
C395 H397 0.960 . S
C395 H398 0.961 . S
H396 C395 0.959 . S
H397 C395 0.960 . S
H398 C395 0.961 . S
O399 Co374 1.967 . S
O399 C407 1.258 1_556 S
O400 Co375 1.941 . S
O400 C407 1.266 . S
H401 C403 0.959 . S
H402 C403 0.961 . S
C403 C393 1.510 . S
C403 H401 0.959 . S
C403 H402 0.961 . S
C403 H404 0.960 . S
H404 C403 0.960 . S
H405 N385 0.862 . S
O406 Co374 1.920 . S
O406 C379 1.289 . S
C407 O399 1.258 1_554 S
C407 O400 1.266 . S
Co408 O411 1.970 . S
Co408 N425 1.989 . S
Co408 O433 1.967 . S
Co408 O440 1.920 . S
Co409 O412 1.966 . S
Co409 N418 2.022 . S
Co409 N426 1.993 . S
Co409 O434 1.941 . S
C410 O411 1.258 . S
C410 O412 1.263 . S
O411 Co408 1.970 . S
O411 C410 1.258 . S
O412 Co409 1.966 . S
O412 C410 1.263 . S
C413 O414 1.235 . S
C413 O440 1.289 . S
O414 C413 1.235 . S
C415 C417 1.400 . S
C415 N418 1.351 . S
C415 C420 1.501 . S
C416 C417 1.387 . S
C416 N419 1.341 . S
C417 C415 1.400 . S
C417 C416 1.387 . S
N418 Co409 2.022 . S
N418 C415 1.351 . S
N418 N419 1.365 . S
N419 C416 1.341 . S
N419 N418 1.365 . S
N419 H439 0.862 . S
C420 C415 1.501 . S
C420 H421 0.961 . S
C420 H422 0.961 . S
C420 H423 0.960 . S
H421 C420 0.961 . S
H422 C420 0.961 . S
H423 C420 0.960 . S
C424 N425 1.342 . S
C424 C428 1.401 . S
C424 C429 1.499 . S
N425 Co408 1.989 . S
N425 C424 1.342 . S
N425 N426 1.388 . S
N426 Co409 1.993 . S
N426 N425 1.388 . S
N426 C427 1.346 . S
C427 N426 1.346 . S
C427 C428 1.396 . S
C427 C437 1.510 . S
C428 C424 1.401 . S
C428 C427 1.396 . S
C429 C424 1.499 . S
C429 H430 0.959 . S
C429 H431 0.960 . S
C429 H432 0.961 . S
H430 C429 0.959 . S
H431 C429 0.960 . S
H432 C429 0.961 . S
O433 Co408 1.967 . S
O433 C441 1.258 . S
O434 Co409 1.941 . S
O434 C441 1.266 . S
H435 C437 0.959 . S
H436 C437 0.961 . S
C437 C427 1.510 . S
C437 H435 0.959 . S
C437 H436 0.961 . S
C437 H438 0.960 . S
H438 C437 0.960 . S
H439 N419 0.862 . S
O440 Co408 1.920 . S
O440 C413 1.289 . S
C441 O433 1.258 . S
C441 O434 1.266 . S
Co442 O445 1.970 . S
Co442 N459 1.989 . S
Co442 O467 1.967 . S
Co442 O474 1.920 . S
Co443 O446 1.966 . S
Co443 N452 2.022 . S
Co443 N460 1.993 . S
Co443 O468 1.941 . S
C444 O445 1.258 . S
C444 O446 1.263 . S
O445 Co442 1.970 . S
O445 C444 1.258 . S
O446 Co443 1.966 . S
O446 C444 1.263 . S
C447 O448 1.235 . S
C447 O474 1.289 . S
O448 C447 1.235 . S
C449 C451 1.400 . S
C449 N452 1.351 . S
C449 C454 1.501 . S
C450 C451 1.387 . S
C450 N453 1.341 . S
C451 C449 1.400 . S
C451 C450 1.387 . S
N452 Co443 2.022 . S
N452 C449 1.351 . S
N452 N453 1.365 . S
N453 C450 1.341 . S
N453 N452 1.365 . S
N453 H473 0.862 . S
C454 C449 1.501 . S
C454 H455 0.961 . S
C454 H456 0.961 . S
C454 H457 0.960 . S
H455 C454 0.961 . S
H456 C454 0.961 . S
H457 C454 0.960 . S
C458 N459 1.342 . S
C458 C462 1.401 . S
C458 C463 1.499 . S
N459 Co442 1.989 . S
N459 C458 1.342 . S
N459 N460 1.388 . S
N460 Co443 1.993 . S
N460 N459 1.388 . S
N460 C461 1.346 . S
C461 N460 1.346 . S
C461 C462 1.396 . S
C461 C471 1.510 . S
C462 C458 1.401 . S
C462 C461 1.396 . S
C463 C458 1.499 . S
C463 H464 0.959 . S
C463 H465 0.960 . S
C463 H466 0.961 . S
H464 C463 0.959 . S
H465 C463 0.960 . S
H466 C463 0.961 . S
O467 Co442 1.967 . S
O467 C475 1.258 . S
O468 Co443 1.941 . S
O468 C475 1.266 . S
H469 C471 0.959 . S
H470 C471 0.961 . S
C471 C461 1.510 . S
C471 H469 0.959 . S
C471 H470 0.961 . S
C471 H472 0.960 . S
H472 C471 0.960 . S
H473 N453 0.862 . S
O474 Co442 1.920 . S
O474 C447 1.289 . S
C475 O467 1.258 . S
C475 O468 1.266 . S
Co476 O479 1.970 . S
Co476 N493 1.989 . S
Co476 O501 1.967 . S
Co476 O508 1.920 . S
Co477 O480 1.966 . S
Co477 N486 2.022 . S
Co477 N494 1.993 . S
Co477 O502 1.941 . S
C478 O479 1.258 . S
C478 O480 1.263 . S
O479 Co476 1.970 . S
O479 C478 1.258 . S
O480 Co477 1.966 . S
O480 C478 1.263 . S
C481 O482 1.235 . S
C481 O508 1.289 . S
O482 C481 1.235 . S
C483 C485 1.400 . S
C483 N486 1.351 . S
C483 C488 1.501 . S
C484 C485 1.387 . S
C484 N487 1.341 . S
C485 C483 1.400 . S
C485 C484 1.387 . S
N486 Co477 2.022 . S
N486 C483 1.351 . S
N486 N487 1.365 . S
N487 C484 1.341 . S
N487 N486 1.365 . S
N487 H507 0.862 . S
C488 C483 1.501 . S
C488 H489 0.961 . S
C488 H490 0.961 . S
C488 H491 0.960 . S
H489 C488 0.961 . S
H490 C488 0.961 . S
H491 C488 0.960 . S
C492 N493 1.342 . S
C492 C496 1.401 . S
C492 C497 1.499 . S
N493 Co476 1.989 . S
N493 C492 1.342 . S
N493 N494 1.388 . S
N494 Co477 1.993 . S
N494 N493 1.388 . S
N494 C495 1.346 . S
C495 N494 1.346 . S
C495 C496 1.396 . S
C495 C505 1.510 . S
C496 C492 1.401 . S
C496 C495 1.396 . S
C497 C492 1.499 . S
C497 H498 0.959 . S
C497 H499 0.960 . S
C497 H500 0.961 . S
H498 C497 0.959 . S
H499 C497 0.960 . S
H500 C497 0.961 . S
O501 Co476 1.967 . S
O501 C509 1.258 . S
O502 Co477 1.941 . S
O502 C509 1.266 . S
H503 C505 0.959 . S
H504 C505 0.961 . S
C505 C495 1.510 . S
C505 H503 0.959 . S
C505 H504 0.961 . S
C505 H506 0.960 . S
H506 C505 0.960 . S
H507 N487 0.862 . S
O508 Co476 1.920 . S
O508 C481 1.289 . S
C509 O501 1.258 . S
C509 O502 1.266 . S
Co510 O513 1.970 . S
Co510 N527 1.989 . S
Co510 O535 1.967 . S
Co510 O542 1.920 . S
Co511 O514 1.966 . S
Co511 N520 2.022 . S
Co511 N528 1.993 . S
Co511 O536 1.941 . S
C512 O513 1.258 . S
C512 O514 1.263 . S
O513 Co510 1.970 . S
O513 C512 1.258 . S
O514 Co511 1.966 . S
O514 C512 1.263 . S
C515 O516 1.235 . S
C515 O542 1.289 . S
O516 C515 1.235 . S
C517 C519 1.400 . S
C517 N520 1.351 . S
C517 C522 1.501 . S
C518 C519 1.387 . S
C518 N521 1.341 . S
C519 C517 1.400 . S
C519 C518 1.387 . S
N520 Co511 2.022 . S
N520 C517 1.351 . S
N520 N521 1.365 . S
N521 C518 1.341 . S
N521 N520 1.365 . S
N521 H541 0.862 . S
C522 C517 1.501 . S
C522 H523 0.961 . S
C522 H524 0.961 . S
C522 H525 0.960 . S
H523 C522 0.961 . S
H524 C522 0.961 . S
H525 C522 0.960 . S
C526 N527 1.342 . S
C526 C530 1.401 . S
C526 C531 1.499 . S
N527 Co510 1.989 . S
N527 C526 1.342 . S
N527 N528 1.388 . S
N528 Co511 1.993 . S
N528 N527 1.388 . S
N528 C529 1.346 . S
C529 N528 1.346 . S
C529 C530 1.396 . S
C529 C539 1.510 . S
C530 C526 1.401 . S
C530 C529 1.396 . S
C531 C526 1.499 . S
C531 H532 0.959 . S
C531 H533 0.960 . S
C531 H534 0.961 . S
H532 C531 0.959 . S
H533 C531 0.960 . S
H534 C531 0.961 . S
O535 Co510 1.967 . S
O535 C543 1.258 . S
O536 Co511 1.941 . S
O536 C543 1.266 . S
H537 C539 0.959 . S
H538 C539 0.961 . S
C539 C529 1.510 . S
C539 H537 0.959 . S
C539 H538 0.961 . S
C539 H540 0.960 . S
H540 C539 0.960 . S
H541 N521 0.862 . S
O542 Co510 1.920 . S
O542 C515 1.289 . S
C543 O535 1.258 . S
C543 O536 1.266 . S
Co544 O547 1.970 . S
Co544 N561 1.989 . S
Co544 O569 1.967 . S
Co544 O576 1.920 . S
Co545 O548 1.966 . S
Co545 N554 2.022 . S
Co545 N562 1.993 . S
Co545 O570 1.941 . S
C546 O547 1.258 . S
C546 O548 1.263 . S
O547 Co544 1.970 . S
O547 C546 1.258 . S
O548 Co545 1.966 . S
O548 C546 1.263 . S
C549 O550 1.235 . S
C549 O576 1.289 . S
O550 C549 1.235 . S
C551 C553 1.400 . S
C551 N554 1.351 . S
C551 C556 1.501 . S
C552 C553 1.387 . S
C552 N555 1.341 . S
C553 C551 1.400 . S
C553 C552 1.387 . S
N554 Co545 2.022 . S
N554 C551 1.351 . S
N554 N555 1.365 . S
N555 C552 1.341 . S
N555 N554 1.365 . S
N555 H575 0.862 . S
C556 C551 1.501 . S
C556 H557 0.961 . S
C556 H558 0.961 . S
C556 H559 0.960 . S
H557 C556 0.961 . S
H558 C556 0.961 . S
H559 C556 0.960 . S
C560 N561 1.342 . S
C560 C564 1.401 . S
C560 C565 1.499 . S
N561 Co544 1.989 . S
N561 C560 1.342 . S
N561 N562 1.388 . S
N562 Co545 1.993 . S
N562 N561 1.388 . S
N562 C563 1.346 . S
C563 N562 1.346 . S
C563 C564 1.396 . S
C563 C573 1.510 . S
C564 C560 1.401 . S
C564 C563 1.396 . S
C565 C560 1.499 . S
C565 H566 0.959 . S
C565 H567 0.960 . S
C565 H568 0.961 . S
H566 C565 0.959 . S
H567 C565 0.960 . S
H568 C565 0.961 . S
O569 Co544 1.967 . S
O569 C577 1.258 . S
O570 Co545 1.941 . S
O570 C577 1.266 . S
H571 C573 0.959 . S
H572 C573 0.961 . S
C573 C563 1.510 . S
C573 H571 0.959 . S
C573 H572 0.961 . S
C573 H574 0.960 . S
H574 C573 0.960 . S
H575 N555 0.862 . S
O576 Co544 1.920 . S
O576 C549 1.289 . S
C577 O569 1.258 . S
C577 O570 1.266 . S
Co578 O581 1.970 . S
Co578 N595 1.989 . S
Co578 O603 1.967 . S
Co578 O610 1.920 . S
Co579 O582 1.966 . S
Co579 N588 2.022 . S
Co579 N596 1.993 . S
Co579 O604 1.941 . S
C580 O581 1.258 . S
C580 O582 1.263 . S
O581 Co578 1.970 . S
O581 C580 1.258 . S
O582 Co579 1.966 . S
O582 C580 1.263 . S
C583 O584 1.235 . S
C583 O610 1.289 . S
O584 C583 1.235 . S
C585 C587 1.400 . S
C585 N588 1.351 . S
C585 C590 1.501 . S
C586 C587 1.387 . S
C586 N589 1.341 . S
C587 C585 1.400 . S
C587 C586 1.387 . S
N588 Co579 2.022 . S
N588 C585 1.351 . S
N588 N589 1.365 . S
N589 C586 1.341 . S
N589 N588 1.365 . S
N589 H609 0.862 . S
C590 C585 1.501 . S
C590 H591 0.961 . S
C590 H592 0.961 . S
C590 H593 0.960 . S
H591 C590 0.961 . S
H592 C590 0.961 . S
H593 C590 0.960 . S
C594 N595 1.342 . S
C594 C598 1.401 . S
C594 C599 1.499 . S
N595 Co578 1.989 . S
N595 C594 1.342 . S
N595 N596 1.388 . S
N596 Co579 1.993 . S
N596 N595 1.388 . S
N596 C597 1.346 . S
C597 N596 1.346 . S
C597 C598 1.396 . S
C597 C607 1.510 . S
C598 C594 1.401 . S
C598 C597 1.396 . S
C599 C594 1.499 . S
C599 H600 0.959 . S
C599 H601 0.960 . S
C599 H602 0.961 . S
H600 C599 0.959 . S
H601 C599 0.960 . S
H602 C599 0.961 . S
O603 Co578 1.967 . S
O603 C611 1.258 . S
O604 Co579 1.941 . S
O604 C611 1.266 . S
H605 C607 0.959 . S
H606 C607 0.961 . S
C607 C597 1.510 . S
C607 H605 0.959 . S
C607 H606 0.961 . S
C607 H608 0.960 . S
H608 C607 0.960 . S
H609 N589 0.862 . S
O610 Co578 1.920 . S
O610 C583 1.289 . S
C611 O603 1.258 . S
C611 O604 1.266 . S
Co612 O615 1.970 . S
Co612 N629 1.989 . S
Co612 O637 1.967 . S
Co612 O644 1.920 . S
Co613 O616 1.966 . S
Co613 N622 2.022 . S
Co613 N630 1.993 . S
Co613 O638 1.941 . S
C614 O615 1.258 . S
C614 O616 1.263 . S
O615 Co612 1.970 . S
O615 C614 1.258 . S
O616 Co613 1.966 . S
O616 C614 1.263 . S
C617 O618 1.235 . S
C617 O644 1.289 . S
O618 C617 1.235 . S
C619 C621 1.400 . S
C619 N622 1.351 . S
C619 C624 1.501 . S
C620 C621 1.387 . S
C620 N623 1.341 . S
C621 C619 1.400 . S
C621 C620 1.387 . S
N622 Co613 2.022 . S
N622 C619 1.351 . S
N622 N623 1.365 . S
N623 C620 1.341 . S
N623 N622 1.365 . S
N623 H643 0.862 . S
C624 C619 1.501 . S
C624 H625 0.961 . S
C624 H626 0.961 . S
C624 H627 0.960 . S
H625 C624 0.961 . S
H626 C624 0.961 . S
H627 C624 0.960 . S
C628 N629 1.342 . S
C628 C632 1.401 . S
C628 C633 1.499 . S
N629 Co612 1.989 . S
N629 C628 1.342 . S
N629 N630 1.388 . S
N630 Co613 1.993 . S
N630 N629 1.388 . S
N630 C631 1.346 . S
C631 N630 1.346 . S
C631 C632 1.396 . S
C631 C641 1.510 . S
C632 C628 1.401 . S
C632 C631 1.396 . S
C633 C628 1.499 . S
C633 H634 0.959 . S
C633 H635 0.960 . S
C633 H636 0.961 . S
H634 C633 0.959 . S
H635 C633 0.960 . S
H636 C633 0.961 . S
O637 Co612 1.967 . S
O637 C645 1.258 . S
O638 Co613 1.941 . S
O638 C645 1.266 . S
H639 C641 0.959 . S
H640 C641 0.961 . S
C641 C631 1.510 . S
C641 H639 0.959 . S
C641 H640 0.961 . S
C641 H642 0.960 . S
H642 C641 0.960 . S
H643 N623 0.862 . S
O644 Co612 1.920 . S
O644 C617 1.289 . S
C645 O637 1.258 . S
C645 O638 1.266 . S
Co646 O649 1.970 . S
Co646 N663 1.989 . S
Co646 O671 1.967 . S
Co646 O678 1.920 . S
Co647 O650 1.966 . S
Co647 N656 2.022 . S
Co647 N664 1.993 . S
Co647 O672 1.941 . S
C648 O649 1.258 . S
C648 O650 1.263 . S
O649 Co646 1.970 . S
O649 C648 1.258 . S
O650 Co647 1.966 . S
O650 C648 1.263 . S
C651 O652 1.235 . S
C651 O678 1.289 . S
O652 C651 1.235 . S
C653 C655 1.400 . S
C653 N656 1.351 . S
C653 C658 1.501 . S
C654 C655 1.387 . S
C654 N657 1.341 . S
C655 C653 1.400 . S
C655 C654 1.387 . S
N656 Co647 2.022 . S
N656 C653 1.351 . S
N656 N657 1.365 . S
N657 C654 1.341 . S
N657 N656 1.365 . S
N657 H677 0.862 . S
C658 C653 1.501 . S
C658 H659 0.961 . S
C658 H660 0.961 . S
C658 H661 0.960 . S
H659 C658 0.961 . S
H660 C658 0.961 . S
H661 C658 0.960 . S
C662 N663 1.342 . S
C662 C666 1.401 . S
C662 C667 1.499 . S
N663 Co646 1.989 . S
N663 C662 1.342 . S
N663 N664 1.388 . S
N664 Co647 1.993 . S
N664 N663 1.388 . S
N664 C665 1.346 . S
C665 N664 1.346 . S
C665 C666 1.396 . S
C665 C675 1.510 . S
C666 C662 1.401 . S
C666 C665 1.396 . S
C667 C662 1.499 . S
C667 H668 0.959 . S
C667 H669 0.960 . S
C667 H670 0.961 . S
H668 C667 0.959 . S
H669 C667 0.960 . S
H670 C667 0.961 . S
O671 Co646 1.967 . S
O671 C679 1.258 . S
O672 Co647 1.941 . S
O672 C679 1.266 . S
H673 C675 0.959 . S
H674 C675 0.961 . S
C675 C665 1.510 . S
C675 H673 0.959 . S
C675 H674 0.961 . S
C675 H676 0.960 . S
H676 C675 0.960 . S
H677 N657 0.862 . S
O678 Co646 1.920 . S
O678 C651 1.289 . S
C679 O671 1.258 . S
C679 O672 1.266 . S
Co680 O683 1.970 . S
Co680 N697 1.989 . S
Co680 O705 1.967 . S
Co680 O712 1.920 . S
Co681 O684 1.966 . S
Co681 N690 2.022 . S
Co681 N698 1.993 . S
Co681 O706 1.941 . S
C682 O683 1.258 . S
C682 O684 1.263 . S
O683 Co680 1.970 . S
O683 C682 1.258 . S
O684 Co681 1.966 . S
O684 C682 1.263 . S
C685 O686 1.235 . S
C685 O712 1.289 . S
O686 C685 1.235 . S
C687 C689 1.400 . S
C687 N690 1.351 . S
C687 C692 1.501 . S
C688 C689 1.387 . S
C688 N691 1.341 . S
C689 C687 1.400 . S
C689 C688 1.387 . S
N690 Co681 2.022 . S
N690 C687 1.351 . S
N690 N691 1.365 . S
N691 C688 1.341 . S
N691 N690 1.365 . S
N691 H711 0.862 . S
C692 C687 1.501 . S
C692 H693 0.961 . S
C692 H694 0.961 . S
C692 H695 0.960 . S
H693 C692 0.961 . S
H694 C692 0.961 . S
H695 C692 0.960 . S
C696 N697 1.342 . S
C696 C700 1.401 . S
C696 C701 1.499 . S
N697 Co680 1.989 . S
N697 C696 1.342 . S
N697 N698 1.388 . S
N698 Co681 1.993 . S
N698 N697 1.388 . S
N698 C699 1.346 . S
C699 N698 1.346 . S
C699 C700 1.396 . S
C699 C709 1.510 . S
C700 C696 1.401 . S
C700 C699 1.396 . S
C701 C696 1.499 . S
C701 H702 0.959 . S
C701 H703 0.960 . S
C701 H704 0.961 . S
H702 C701 0.959 . S
H703 C701 0.960 . S
H704 C701 0.961 . S
O705 Co680 1.967 . S
O705 C713 1.258 . S
O706 Co681 1.941 . S
O706 C713 1.266 . S
H707 C709 0.959 . S
H708 C709 0.961 . S
C709 C699 1.510 . S
C709 H707 0.959 . S
C709 H708 0.961 . S
C709 H710 0.960 . S
H710 C709 0.960 . S
H711 N691 0.862 . S
O712 Co680 1.920 . S
O712 C685 1.289 . S
C713 O705 1.258 . S
C713 O706 1.266 . S
Co714 O717 1.970 . S
Co714 N731 1.989 . S
Co714 O739 1.967 . S
Co714 O746 1.920 . S
Co715 O718 1.966 . S
Co715 N724 2.022 . S
Co715 N732 1.993 . S
Co715 O740 1.941 . S
C716 O717 1.258 . S
C716 O718 1.263 . S
O717 Co714 1.970 . S
O717 C716 1.258 . S
O718 Co715 1.966 . S
O718 C716 1.263 . S
C719 O720 1.235 . S
C719 O746 1.289 . S
O720 C719 1.235 . S
C721 C723 1.400 . S
C721 N724 1.351 . S
C721 C726 1.501 . S
C722 C723 1.387 . S
C722 N725 1.341 . S
C723 C721 1.400 . S
C723 C722 1.387 . S
N724 Co715 2.022 . S
N724 C721 1.351 . S
N724 N725 1.365 . S
N725 C722 1.341 . S
N725 N724 1.365 . S
N725 H745 0.862 . S
C726 C721 1.501 . S
C726 H727 0.961 . S
C726 H728 0.961 . S
C726 H729 0.960 . S
H727 C726 0.961 . S
H728 C726 0.961 . S
H729 C726 0.960 . S
C730 N731 1.342 . S
C730 C734 1.401 . S
C730 C735 1.499 . S
N731 Co714 1.989 . S
N731 C730 1.342 . S
N731 N732 1.388 . S
N732 Co715 1.993 . S
N732 N731 1.388 . S
N732 C733 1.346 . S
C733 N732 1.346 . S
C733 C734 1.396 . S
C733 C743 1.510 . S
C734 C730 1.401 . S
C734 C733 1.396 . S
C735 C730 1.499 . S
C735 H736 0.959 . S
C735 H737 0.960 . S
C735 H738 0.961 . S
H736 C735 0.959 . S
H737 C735 0.960 . S
H738 C735 0.961 . S
O739 Co714 1.967 . S
O739 C747 1.258 . S
O740 Co715 1.941 . S
O740 C747 1.266 . S
H741 C743 0.959 . S
H742 C743 0.961 . S
C743 C733 1.510 . S
C743 H741 0.959 . S
C743 H742 0.961 . S
C743 H744 0.960 . S
H744 C743 0.960 . S
H745 N725 0.862 . S
O746 Co714 1.920 . S
O746 C719 1.289 . S
C747 O739 1.258 . S
C747 O740 1.266 . S
Co748 O751 1.970 . S
Co748 N765 1.989 . S
Co748 O773 1.967 . S
Co748 O780 1.920 . S
Co749 O752 1.966 . S
Co749 N758 2.022 . S
Co749 N766 1.993 . S
Co749 O774 1.941 . S
C750 O751 1.258 . S
C750 O752 1.263 . S
O751 Co748 1.970 . S
O751 C750 1.258 . S
O752 Co749 1.966 . S
O752 C750 1.263 . S
C753 O754 1.235 . S
C753 O780 1.289 . S
O754 C753 1.235 . S
C755 C757 1.400 . S
C755 N758 1.351 . S
C755 C760 1.501 . S
C756 C757 1.387 . S
C756 N759 1.341 . S
C757 C755 1.400 . S
C757 C756 1.387 . S
N758 Co749 2.022 . S
N758 C755 1.351 . S
N758 N759 1.365 . S
N759 C756 1.341 . S
N759 N758 1.365 . S
N759 H779 0.862 . S
C760 C755 1.501 . S
C760 H761 0.961 . S
C760 H762 0.961 . S
C760 H763 0.960 . S
H761 C760 0.961 . S
H762 C760 0.961 . S
H763 C760 0.960 . S
C764 N765 1.342 . S
C764 C768 1.401 . S
C764 C769 1.499 . S
N765 Co748 1.989 . S
N765 C764 1.342 . S
N765 N766 1.388 . S
N766 Co749 1.993 . S
N766 N765 1.388 . S
N766 C767 1.346 . S
C767 N766 1.346 . S
C767 C768 1.396 . S
C767 C777 1.510 . S
C768 C764 1.401 . S
C768 C767 1.396 . S
C769 C764 1.499 . S
C769 H770 0.959 . S
C769 H771 0.960 . S
C769 H772 0.961 . S
H770 C769 0.959 . S
H771 C769 0.960 . S
H772 C769 0.961 . S
O773 Co748 1.967 . S
O773 C781 1.258 . S
O774 Co749 1.941 . S
O774 C781 1.266 . S
H775 C777 0.959 . S
H776 C777 0.961 . S
C777 C767 1.510 . S
C777 H775 0.959 . S
C777 H776 0.961 . S
C777 H778 0.960 . S
H778 C777 0.960 . S
H779 N759 0.862 . S
O780 Co748 1.920 . S
O780 C753 1.289 . S
C781 O773 1.258 . S
C781 O774 1.266 . S
Co782 O785 1.970 . S
Co782 N799 1.989 . S
Co782 O807 1.967 . S
Co782 O814 1.920 . S
Co783 O786 1.966 . S
Co783 N792 2.022 . S
Co783 N800 1.993 . S
Co783 O808 1.941 . S
C784 O785 1.258 . S
C784 O786 1.263 . S
O785 Co782 1.970 . S
O785 C784 1.258 . S
O786 Co783 1.966 . S
O786 C784 1.263 . S
C787 O788 1.235 . S
C787 O814 1.289 . S
O788 C787 1.235 . S
C789 C791 1.400 . S
C789 N792 1.351 . S
C789 C794 1.501 . S
C790 C791 1.387 . S
C790 N793 1.341 . S
C791 C789 1.400 . S
C791 C790 1.387 . S
N792 Co783 2.022 . S
N792 C789 1.351 . S
N792 N793 1.365 . S
N793 C790 1.341 . S
N793 N792 1.365 . S
N793 H813 0.862 . S
C794 C789 1.501 . S
C794 H795 0.961 . S
C794 H796 0.961 . S
C794 H797 0.960 . S
H795 C794 0.961 . S
H796 C794 0.961 . S
H797 C794 0.960 . S
C798 N799 1.342 . S
C798 C802 1.401 . S
C798 C803 1.499 . S
N799 Co782 1.989 . S
N799 C798 1.342 . S
N799 N800 1.388 . S
N800 Co783 1.993 . S
N800 N799 1.388 . S
N800 C801 1.346 . S
C801 N800 1.346 . S
C801 C802 1.396 . S
C801 C811 1.510 . S
C802 C798 1.401 . S
C802 C801 1.396 . S
C803 C798 1.499 . S
C803 H804 0.959 . S
C803 H805 0.960 . S
C803 H806 0.961 . S
H804 C803 0.959 . S
H805 C803 0.960 . S
H806 C803 0.961 . S
O807 Co782 1.967 . S
O807 C815 1.258 . S
O808 Co783 1.941 . S
O808 C815 1.266 . S
H809 C811 0.959 . S
H810 C811 0.961 . S
C811 C801 1.510 . S
C811 H809 0.959 . S
C811 H810 0.961 . S
C811 H812 0.960 . S
H812 C811 0.960 . S
H813 N793 0.862 . S
O814 Co782 1.920 . S
O814 C787 1.289 . S
C815 O807 1.258 . S
C815 O808 1.266 . S
Co816 O819 1.970 . S
Co816 N833 1.989 . S
Co816 O841 1.967 . S
Co816 O848 1.920 . S
Co817 O820 1.966 . S
Co817 N826 2.022 . S
Co817 N834 1.993 . S
Co817 O842 1.941 . S
C818 O819 1.258 . S
C818 O820 1.263 . S
O819 Co816 1.970 . S
O819 C818 1.258 . S
O820 Co817 1.966 . S
O820 C818 1.263 . S
C821 O822 1.235 . S
C821 O848 1.289 . S
O822 C821 1.235 . S
C823 C825 1.400 . S
C823 N826 1.351 . S
C823 C828 1.501 . S
C824 C825 1.387 . S
C824 N827 1.341 . S
C825 C823 1.400 . S
C825 C824 1.387 . S
N826 Co817 2.022 . S
N826 C823 1.351 . S
N826 N827 1.365 . S
N827 C824 1.341 . S
N827 N826 1.365 . S
N827 H847 0.862 . S
C828 C823 1.501 . S
C828 H829 0.961 . S
C828 H830 0.961 . S
C828 H831 0.960 . S
H829 C828 0.961 . S
H830 C828 0.961 . S
H831 C828 0.960 . S
C832 N833 1.342 . S
C832 C836 1.401 . S
C832 C837 1.499 . S
N833 Co816 1.989 . S
N833 C832 1.342 . S
N833 N834 1.388 . S
N834 Co817 1.993 . S
N834 N833 1.388 . S
N834 C835 1.346 . S
C835 N834 1.346 . S
C835 C836 1.396 . S
C835 C845 1.510 . S
C836 C832 1.401 . S
C836 C835 1.396 . S
C837 C832 1.499 . S
C837 H838 0.959 . S
C837 H839 0.960 . S
C837 H840 0.961 . S
H838 C837 0.959 . S
H839 C837 0.960 . S
H840 C837 0.961 . S
O841 Co816 1.967 . S
O841 C849 1.258 . S
O842 Co817 1.941 . S
O842 C849 1.266 . S
H843 C845 0.959 . S
H844 C845 0.961 . S
C845 C835 1.510 . S
C845 H843 0.959 . S
C845 H844 0.961 . S
C845 H846 0.960 . S
H846 C845 0.960 . S
H847 N827 0.862 . S
O848 Co816 1.920 . S
O848 C821 1.289 . S
C849 O841 1.258 . S
C849 O842 1.266 . S
Co850 O853 1.970 . S
Co850 N867 1.989 . S
Co850 O875 1.967 . S
Co850 O882 1.920 . S
Co851 O854 1.966 . S
Co851 N860 2.022 . S
Co851 N868 1.993 . S
Co851 O876 1.941 . S
C852 O853 1.258 . S
C852 O854 1.263 . S
O853 Co850 1.970 . S
O853 C852 1.258 . S
O854 Co851 1.966 . S
O854 C852 1.263 . S
C855 O856 1.235 . S
C855 O882 1.289 . S
O856 C855 1.235 . S
C857 C859 1.400 . S
C857 N860 1.351 . S
C857 C862 1.501 . S
C858 C859 1.387 . S
C858 N861 1.341 . S
C859 C857 1.400 . S
C859 C858 1.387 . S
N860 Co851 2.022 . S
N860 C857 1.351 . S
N860 N861 1.365 . S
N861 C858 1.341 . S
N861 N860 1.365 . S
N861 H881 0.862 . S
C862 C857 1.501 . S
C862 H863 0.961 . S
C862 H864 0.961 . S
C862 H865 0.960 . S
H863 C862 0.961 . S
H864 C862 0.961 . S
H865 C862 0.960 . S
C866 N867 1.342 . S
C866 C870 1.401 . S
C866 C871 1.499 . S
N867 Co850 1.989 . S
N867 C866 1.342 . S
N867 N868 1.388 . S
N868 Co851 1.993 . S
N868 N867 1.388 . S
N868 C869 1.346 . S
C869 N868 1.346 . S
C869 C870 1.396 . S
C869 C879 1.510 . S
C870 C866 1.401 . S
C870 C869 1.396 . S
C871 C866 1.499 . S
C871 H872 0.959 . S
C871 H873 0.960 . S
C871 H874 0.961 . S
H872 C871 0.959 . S
H873 C871 0.960 . S
H874 C871 0.961 . S
O875 Co850 1.967 . S
O875 C883 1.258 . S
O876 Co851 1.941 . S
O876 C883 1.266 . S
H877 C879 0.959 . S
H878 C879 0.961 . S
C879 C869 1.510 . S
C879 H877 0.959 . S
C879 H878 0.961 . S
C879 H880 0.960 . S
H880 C879 0.960 . S
H881 N861 0.862 . S
O882 Co850 1.920 . S
O882 C855 1.289 . S
C883 O875 1.258 . S
C883 O876 1.266 . S
Co884 O887 1.970 . S
Co884 N901 1.989 . S
Co884 O909 1.967 . S
Co884 O916 1.920 . S
Co885 O888 1.966 . S
Co885 N894 2.022 . S
Co885 N902 1.993 . S
Co885 O910 1.941 . S
C886 O887 1.258 . S
C886 O888 1.263 . S
O887 Co884 1.970 . S
O887 C886 1.258 . S
O888 Co885 1.966 . S
O888 C886 1.263 . S
C889 O890 1.235 . S
C889 O916 1.289 . S
O890 C889 1.235 . S
C891 C893 1.400 . S
C891 N894 1.351 . S
C891 C896 1.501 . S
C892 C893 1.387 . S
C892 N895 1.341 . S
C893 C891 1.400 . S
C893 C892 1.387 . S
N894 Co885 2.022 . S
N894 C891 1.351 . S
N894 N895 1.365 . S
N895 C892 1.341 . S
N895 N894 1.365 . S
N895 H915 0.862 . S
C896 C891 1.501 . S
C896 H897 0.961 . S
C896 H898 0.961 . S
C896 H899 0.960 . S
H897 C896 0.961 . S
H898 C896 0.961 . S
H899 C896 0.960 . S
C900 N901 1.342 . S
C900 C904 1.401 . S
C900 C905 1.499 . S
N901 Co884 1.989 . S
N901 C900 1.342 . S
N901 N902 1.388 . S
N902 Co885 1.993 . S
N902 N901 1.388 . S
N902 C903 1.346 . S
C903 N902 1.346 . S
C903 C904 1.396 . S
C903 C913 1.510 . S
C904 C900 1.401 . S
C904 C903 1.396 . S
C905 C900 1.499 . S
C905 H906 0.959 . S
C905 H907 0.960 . S
C905 H908 0.961 . S
H906 C905 0.959 . S
H907 C905 0.960 . S
H908 C905 0.961 . S
O909 Co884 1.967 . S
O909 C917 1.258 . S
O910 Co885 1.941 . S
O910 C917 1.266 . S
H911 C913 0.959 . S
H912 C913 0.961 . S
C913 C903 1.510 . S
C913 H911 0.959 . S
C913 H912 0.961 . S
C913 H914 0.960 . S
H914 C913 0.960 . S
H915 N895 0.862 . S
O916 Co884 1.920 . S
O916 C889 1.289 . S
C917 O909 1.258 . S
C917 O910 1.266 . S
Co918 O921 1.970 . S
Co918 N935 1.989 . S
Co918 O943 1.967 . S
Co918 O950 1.920 . S
Co919 O922 1.966 . S
Co919 N928 2.022 . S
Co919 N936 1.993 . S
Co919 O944 1.941 . S
C920 O921 1.258 . S
C920 O922 1.263 . S
O921 Co918 1.970 . S
O921 C920 1.258 . S
O922 Co919 1.966 . S
O922 C920 1.263 . S
C923 O924 1.235 . S
C923 O950 1.289 . S
O924 C923 1.235 . S
C925 C927 1.400 . S
C925 N928 1.351 . S
C925 C930 1.501 . S
C926 C927 1.387 . S
C926 N929 1.341 . S
C927 C925 1.400 . S
C927 C926 1.387 . S
N928 Co919 2.022 . S
N928 C925 1.351 . S
N928 N929 1.365 . S
N929 C926 1.341 . S
N929 N928 1.365 . S
N929 H949 0.862 . S
C930 C925 1.501 . S
C930 H931 0.961 . S
C930 H932 0.961 . S
C930 H933 0.960 . S
H931 C930 0.961 . S
H932 C930 0.961 . S
H933 C930 0.960 . S
C934 N935 1.342 . S
C934 C938 1.401 . S
C934 C939 1.499 . S
N935 Co918 1.989 . S
N935 C934 1.342 . S
N935 N936 1.388 . S
N936 Co919 1.993 . S
N936 N935 1.388 . S
N936 C937 1.346 . S
C937 N936 1.346 . S
C937 C938 1.396 . S
C937 C947 1.510 . S
C938 C934 1.401 . S
C938 C937 1.396 . S
C939 C934 1.499 . S
C939 H940 0.959 . S
C939 H941 0.960 . S
C939 H942 0.961 . S
H940 C939 0.959 . S
H941 C939 0.960 . S
H942 C939 0.961 . S
O943 Co918 1.967 . S
O943 C951 1.258 . S
O944 Co919 1.941 . S
O944 C951 1.266 . S
H945 C947 0.959 . S
H946 C947 0.961 . S
C947 C937 1.510 . S
C947 H945 0.959 . S
C947 H946 0.961 . S
C947 H948 0.960 . S
H948 C947 0.960 . S
H949 N929 0.862 . S
O950 Co918 1.920 . S
O950 C923 1.289 . S
C951 O943 1.258 . S
C951 O944 1.266 . S
Co952 O955 1.970 . S
Co952 N969 1.989 . S
Co952 O977 1.967 . S
Co952 O984 1.920 . S
Co953 O956 1.966 . S
Co953 N962 2.022 . S
Co953 N970 1.993 . S
Co953 O978 1.941 . S
C954 O955 1.258 . S
C954 O956 1.263 . S
O955 Co952 1.970 . S
O955 C954 1.258 . S
O956 Co953 1.966 . S
O956 C954 1.263 . S
C957 O958 1.235 . S
C957 O984 1.289 . S
O958 C957 1.235 . S
C959 C961 1.400 . S
C959 N962 1.351 . S
C959 C964 1.501 . S
C960 C961 1.387 . S
C960 N963 1.341 . S
C961 C959 1.400 . S
C961 C960 1.387 . S
N962 Co953 2.022 . S
N962 C959 1.351 . S
N962 N963 1.365 . S
N963 C960 1.341 . S
N963 N962 1.365 . S
N963 H983 0.862 . S
C964 C959 1.501 . S
C964 H965 0.961 . S
C964 H966 0.961 . S
C964 H967 0.960 . S
H965 C964 0.961 . S
H966 C964 0.961 . S
H967 C964 0.960 . S
C968 N969 1.342 . S
C968 C972 1.401 . S
C968 C973 1.499 . S
N969 Co952 1.989 . S
N969 C968 1.342 . S
N969 N970 1.388 . S
N970 Co953 1.993 . S
N970 N969 1.388 . S
N970 C971 1.346 . S
C971 N970 1.346 . S
C971 C972 1.396 . S
C971 C981 1.510 . S
C972 C968 1.401 . S
C972 C971 1.396 . S
C973 C968 1.499 . S
C973 H974 0.959 . S
C973 H975 0.960 . S
C973 H976 0.961 . S
H974 C973 0.959 . S
H975 C973 0.960 . S
H976 C973 0.961 . S
O977 Co952 1.967 . S
O977 C985 1.258 . S
O978 Co953 1.941 . S
O978 C985 1.266 . S
H979 C981 0.959 . S
H980 C981 0.961 . S
C981 C971 1.510 . S
C981 H979 0.959 . S
C981 H980 0.961 . S
C981 H982 0.960 . S
H982 C981 0.960 . S
H983 N963 0.862 . S
O984 Co952 1.920 . S
O984 C957 1.289 . S
C985 O977 1.258 . S
C985 O978 1.266 . S
Co986 O989 1.970 . S
Co986 N1003 1.989 . S
Co986 O1011 1.967 . S
Co986 O1018 1.920 . S
Co987 O990 1.966 . S
Co987 N996 2.022 . S
Co987 N1004 1.993 . S
Co987 O1012 1.941 . S
C988 O989 1.258 . S
C988 O990 1.263 . S
O989 Co986 1.970 . S
O989 C988 1.258 . S
O990 Co987 1.966 . S
O990 C988 1.263 . S
C991 O992 1.235 . S
C991 O1018 1.289 . S
O992 C991 1.235 . S
C993 C995 1.400 . S
C993 N996 1.351 . S
C993 C998 1.501 . S
C994 C995 1.387 . S
C994 N997 1.341 . S
C995 C993 1.400 . S
C995 C994 1.387 . S
N996 Co987 2.022 . S
N996 C993 1.351 . S
N996 N997 1.365 . S
N997 C994 1.341 . S
N997 N996 1.365 . S
N997 H1017 0.862 . S
C998 C993 1.501 . S
C998 H999 0.961 . S
C998 H1000 0.961 . S
C998 H1001 0.960 . S
H999 C998 0.961 . S
H1000 C998 0.961 . S
H1001 C998 0.960 . S
C1002 N1003 1.342 . S
C1002 C1006 1.401 . S
C1002 C1007 1.499 . S
N1003 Co986 1.989 . S
N1003 C1002 1.342 . S
N1003 N1004 1.388 . S
N1004 Co987 1.993 . S
N1004 N1003 1.388 . S
N1004 C1005 1.346 . S
C1005 N1004 1.346 . S
C1005 C1006 1.396 . S
C1005 C1015 1.510 . S
C1006 C1002 1.401 . S
C1006 C1005 1.396 . S
C1007 C1002 1.499 . S
C1007 H1008 0.959 . S
C1007 H1009 0.960 . S
C1007 H1010 0.961 . S
H1008 C1007 0.959 . S
H1009 C1007 0.960 . S
H1010 C1007 0.961 . S
O1011 Co986 1.967 . S
O1011 C1019 1.258 . S
O1012 Co987 1.941 . S
O1012 C1019 1.266 . S
H1013 C1015 0.959 . S
H1014 C1015 0.961 . S
C1015 C1005 1.510 . S
C1015 H1013 0.959 . S
C1015 H1014 0.961 . S
C1015 H1016 0.960 . S
H1016 C1015 0.960 . S
H1017 N997 0.862 . S
O1018 Co986 1.920 . S
O1018 C991 1.289 . S
C1019 O1011 1.258 . S
C1019 O1012 1.266 . S
Co1020 O1023 1.970 . S
Co1020 N1037 1.989 . S
Co1020 O1045 1.967 . S
Co1020 O1052 1.920 . S
Co1021 O1024 1.966 . S
Co1021 N1030 2.022 . S
Co1021 N1038 1.993 . S
Co1021 O1046 1.941 . S
C1022 O1023 1.258 . S
C1022 O1024 1.263 . S
O1023 Co1020 1.970 . S
O1023 C1022 1.258 . S
O1024 Co1021 1.966 . S
O1024 C1022 1.263 . S
C1025 O1026 1.235 . S
C1025 O1052 1.289 . S
O1026 C1025 1.235 . S
C1027 C1029 1.400 . S
C1027 N1030 1.351 . S
C1027 C1032 1.501 . S
C1028 C1029 1.387 . S
C1028 N1031 1.341 . S
C1029 C1027 1.400 . S
C1029 C1028 1.387 . S
N1030 Co1021 2.022 . S
N1030 C1027 1.351 . S
N1030 N1031 1.365 . S
N1031 C1028 1.341 . S
N1031 N1030 1.365 . S
N1031 H1051 0.862 . S
C1032 C1027 1.501 . S
C1032 H1033 0.961 . S
C1032 H1034 0.961 . S
C1032 H1035 0.960 . S
H1033 C1032 0.961 . S
H1034 C1032 0.961 . S
H1035 C1032 0.960 . S
C1036 N1037 1.342 . S
C1036 C1040 1.401 . S
C1036 C1041 1.499 . S
N1037 Co1020 1.989 . S
N1037 C1036 1.342 . S
N1037 N1038 1.388 . S
N1038 Co1021 1.993 . S
N1038 N1037 1.388 . S
N1038 C1039 1.346 . S
C1039 N1038 1.346 . S
C1039 C1040 1.396 . S
C1039 C1049 1.510 . S
C1040 C1036 1.401 . S
C1040 C1039 1.396 . S
C1041 C1036 1.499 . S
C1041 H1042 0.959 . S
C1041 H1043 0.960 . S
C1041 H1044 0.961 . S
H1042 C1041 0.959 . S
H1043 C1041 0.960 . S
H1044 C1041 0.961 . S
O1045 Co1020 1.967 . S
O1045 C1053 1.258 . S
O1046 Co1021 1.941 . S
O1046 C1053 1.266 . S
H1047 C1049 0.959 . S
H1048 C1049 0.961 . S
C1049 C1039 1.510 . S
C1049 H1047 0.959 . S
C1049 H1048 0.961 . S
C1049 H1050 0.960 . S
H1050 C1049 0.960 . S
H1051 N1031 0.862 . S
O1052 Co1020 1.920 . S
O1052 C1025 1.289 . S
C1053 O1045 1.258 . S
C1053 O1046 1.266 . S
Co1054 O1057 1.970 . S
Co1054 N1071 1.989 . S
Co1054 O1079 1.967 . S
Co1054 O1086 1.920 . S
Co1055 O1058 1.966 . S
Co1055 N1064 2.022 . S
Co1055 N1072 1.993 . S
Co1055 O1080 1.941 . S
C1056 O1057 1.258 . S
C1056 O1058 1.263 . S
O1057 Co1054 1.970 . S
O1057 C1056 1.258 . S
O1058 Co1055 1.966 . S
O1058 C1056 1.263 . S
C1059 O1060 1.235 . S
C1059 O1086 1.289 . S
O1060 C1059 1.235 . S
C1061 C1063 1.400 . S
C1061 N1064 1.351 . S
C1061 C1066 1.501 . S
C1062 C1063 1.387 . S
C1062 N1065 1.341 . S
C1063 C1061 1.400 . S
C1063 C1062 1.387 . S
N1064 Co1055 2.022 . S
N1064 C1061 1.351 . S
N1064 N1065 1.365 . S
N1065 C1062 1.341 . S
N1065 N1064 1.365 . S
N1065 H1085 0.862 . S
C1066 C1061 1.501 . S
C1066 H1067 0.961 . S
C1066 H1068 0.961 . S
C1066 H1069 0.960 . S
H1067 C1066 0.961 . S
H1068 C1066 0.961 . S
H1069 C1066 0.960 . S
C1070 N1071 1.342 . S
C1070 C1074 1.401 . S
C1070 C1075 1.499 . S
N1071 Co1054 1.989 . S
N1071 C1070 1.342 . S
N1071 N1072 1.388 . S
N1072 Co1055 1.993 . S
N1072 N1071 1.388 . S
N1072 C1073 1.346 . S
C1073 N1072 1.346 . S
C1073 C1074 1.396 . S
C1073 C1083 1.510 . S
C1074 C1070 1.401 . S
C1074 C1073 1.396 . S
C1075 C1070 1.499 . S
C1075 H1076 0.959 . S
C1075 H1077 0.960 . S
C1075 H1078 0.961 . S
H1076 C1075 0.959 . S
H1077 C1075 0.960 . S
H1078 C1075 0.961 . S
O1079 Co1054 1.967 . S
O1079 C1087 1.258 . S
O1080 Co1055 1.941 . S
O1080 C1087 1.266 . S
H1081 C1083 0.959 . S
H1082 C1083 0.961 . S
C1083 C1073 1.510 . S
C1083 H1081 0.959 . S
C1083 H1082 0.961 . S
C1083 H1084 0.960 . S
H1084 C1083 0.960 . S
H1085 N1065 0.862 . S
O1086 Co1054 1.920 . S
O1086 C1059 1.289 . S
C1087 O1079 1.258 . S
C1087 O1080 1.266 . S
Co1088 O1091 1.970 . S
Co1088 N1105 1.989 . S
Co1088 O1113 1.967 . S
Co1088 O1120 1.920 . S
Co1089 O1092 1.966 . S
Co1089 N1098 2.022 . S
Co1089 N1106 1.993 . S
Co1089 O1114 1.941 . S
C1090 O1091 1.258 . S
C1090 O1092 1.263 . S
O1091 Co1088 1.970 . S
O1091 C1090 1.258 . S
O1092 Co1089 1.966 . S
O1092 C1090 1.263 . S
C1093 O1094 1.235 . S
C1093 O1120 1.289 . S
O1094 C1093 1.235 . S
C1095 C1097 1.400 . S
C1095 N1098 1.351 . S
C1095 C1100 1.501 . S
C1096 C1097 1.387 . S
C1096 N1099 1.341 . S
C1097 C1095 1.400 . S
C1097 C1096 1.387 . S
N1098 Co1089 2.022 . S
N1098 C1095 1.351 . S
N1098 N1099 1.365 . S
N1099 C1096 1.341 . S
N1099 N1098 1.365 . S
N1099 H1119 0.862 . S
C1100 C1095 1.501 . S
C1100 H1101 0.961 . S
C1100 H1102 0.961 . S
C1100 H1103 0.960 . S
H1101 C1100 0.961 . S
H1102 C1100 0.961 . S
H1103 C1100 0.960 . S
C1104 N1105 1.342 . S
C1104 C1108 1.401 . S
C1104 C1109 1.499 . S
N1105 Co1088 1.989 . S
N1105 C1104 1.342 . S
N1105 N1106 1.388 . S
N1106 Co1089 1.993 . S
N1106 N1105 1.388 . S
N1106 C1107 1.346 . S
C1107 N1106 1.346 . S
C1107 C1108 1.396 . S
C1107 C1117 1.510 . S
C1108 C1104 1.401 . S
C1108 C1107 1.396 . S
C1109 C1104 1.499 . S
C1109 H1110 0.959 . S
C1109 H1111 0.960 . S
C1109 H1112 0.961 . S
H1110 C1109 0.959 . S
H1111 C1109 0.960 . S
H1112 C1109 0.961 . S
O1113 Co1088 1.967 . S
O1113 C1121 1.258 . S
O1114 Co1089 1.941 . S
O1114 C1121 1.266 . S
H1115 C1117 0.959 . S
H1116 C1117 0.961 . S
C1117 C1107 1.510 . S
C1117 H1115 0.959 . S
C1117 H1116 0.961 . S
C1117 H1118 0.960 . S
H1118 C1117 0.960 . S
H1119 N1099 0.862 . S
O1120 Co1088 1.920 . S
O1120 C1093 1.289 . S
C1121 O1113 1.258 . S
C1121 O1114 1.266 . S
Co1122 O1125 1.970 . S
Co1122 N1139 1.989 . S
Co1122 O1147 1.967 . S
Co1122 O1154 1.920 . S
Co1123 O1126 1.966 . S
Co1123 N1132 2.022 . S
Co1123 N1140 1.993 . S
Co1123 O1148 1.941 . S
C1124 O1125 1.258 . S
C1124 O1126 1.263 . S
O1125 Co1122 1.970 . S
O1125 C1124 1.258 . S
O1126 Co1123 1.966 . S
O1126 C1124 1.263 . S
C1127 O1128 1.235 . S
C1127 O1154 1.289 . S
O1128 C1127 1.235 . S
C1129 C1131 1.400 . S
C1129 N1132 1.351 . S
C1129 C1134 1.501 . S
C1130 C1131 1.387 . S
C1130 N1133 1.341 . S
C1131 C1129 1.400 . S
C1131 C1130 1.387 . S
N1132 Co1123 2.022 . S
N1132 C1129 1.351 . S
N1132 N1133 1.365 . S
N1133 C1130 1.341 . S
N1133 N1132 1.365 . S
N1133 H1153 0.862 . S
C1134 C1129 1.501 . S
C1134 H1135 0.961 . S
C1134 H1136 0.961 . S
C1134 H1137 0.960 . S
H1135 C1134 0.961 . S
H1136 C1134 0.961 . S
H1137 C1134 0.960 . S
C1138 N1139 1.342 . S
C1138 C1142 1.401 . S
C1138 C1143 1.499 . S
N1139 Co1122 1.989 . S
N1139 C1138 1.342 . S
N1139 N1140 1.388 . S
N1140 Co1123 1.993 . S
N1140 N1139 1.388 . S
N1140 C1141 1.346 . S
C1141 N1140 1.346 . S
C1141 C1142 1.396 . S
C1141 C1151 1.510 . S
C1142 C1138 1.401 . S
C1142 C1141 1.396 . S
C1143 C1138 1.499 . S
C1143 H1144 0.959 . S
C1143 H1145 0.960 . S
C1143 H1146 0.961 . S
H1144 C1143 0.959 . S
H1145 C1143 0.960 . S
H1146 C1143 0.961 . S
O1147 Co1122 1.967 . S
O1147 C1155 1.258 . S
O1148 Co1123 1.941 . S
O1148 C1155 1.266 . S
H1149 C1151 0.959 . S
H1150 C1151 0.961 . S
C1151 C1141 1.510 . S
C1151 H1149 0.959 . S
C1151 H1150 0.961 . S
C1151 H1152 0.960 . S
H1152 C1151 0.960 . S
H1153 N1133 0.862 . S
O1154 Co1122 1.920 . S
O1154 C1127 1.289 . S
C1155 O1147 1.258 . S
C1155 O1148 1.266 . S
Co1156 O1159 1.970 . S
Co1156 N1173 1.989 . S
Co1156 O1181 1.967 . S
Co1156 O1188 1.920 . S
Co1157 O1160 1.966 . S
Co1157 N1166 2.022 . S
Co1157 N1174 1.993 . S
Co1157 O1182 1.941 . S
C1158 O1159 1.258 . S
C1158 O1160 1.263 . S
O1159 Co1156 1.970 . S
O1159 C1158 1.258 . S
O1160 Co1157 1.966 . S
O1160 C1158 1.263 . S
C1161 O1162 1.235 . S
C1161 O1188 1.289 . S
O1162 C1161 1.235 . S
C1163 C1165 1.400 . S
C1163 N1166 1.351 . S
C1163 C1168 1.501 . S
C1164 C1165 1.387 . S
C1164 N1167 1.341 . S
C1165 C1163 1.400 . S
C1165 C1164 1.387 . S
N1166 Co1157 2.022 . S
N1166 C1163 1.351 . S
N1166 N1167 1.365 . S
N1167 C1164 1.341 . S
N1167 N1166 1.365 . S
N1167 H1187 0.862 . S
C1168 C1163 1.501 . S
C1168 H1169 0.961 . S
C1168 H1170 0.961 . S
C1168 H1171 0.960 . S
H1169 C1168 0.961 . S
H1170 C1168 0.961 . S
H1171 C1168 0.960 . S
C1172 N1173 1.342 . S
C1172 C1176 1.401 . S
C1172 C1177 1.499 . S
N1173 Co1156 1.989 . S
N1173 C1172 1.342 . S
N1173 N1174 1.388 . S
N1174 Co1157 1.993 . S
N1174 N1173 1.388 . S
N1174 C1175 1.346 . S
C1175 N1174 1.346 . S
C1175 C1176 1.396 . S
C1175 C1185 1.510 . S
C1176 C1172 1.401 . S
C1176 C1175 1.396 . S
C1177 C1172 1.499 . S
C1177 H1178 0.959 . S
C1177 H1179 0.960 . S
C1177 H1180 0.961 . S
H1178 C1177 0.959 . S
H1179 C1177 0.960 . S
H1180 C1177 0.961 . S
O1181 Co1156 1.967 . S
O1181 C1189 1.258 . S
O1182 Co1157 1.941 . S
O1182 C1189 1.266 . S
H1183 C1185 0.959 . S
H1184 C1185 0.961 . S
C1185 C1175 1.510 . S
C1185 H1183 0.959 . S
C1185 H1184 0.961 . S
C1185 H1186 0.960 . S
H1186 C1185 0.960 . S
H1187 N1167 0.862 . S
O1188 Co1156 1.920 . S
O1188 C1161 1.289 . S
C1189 O1181 1.258 . S
C1189 O1182 1.266 . S
Co1190 O1193 1.970 . S
Co1190 N1207 1.989 . S
Co1190 O1215 1.967 . S
Co1190 O1222 1.920 . S
Co1191 O1194 1.966 . S
Co1191 N1200 2.022 . S
Co1191 N1208 1.993 . S
Co1191 O1216 1.941 . S
C1192 O1193 1.258 . S
C1192 O1194 1.263 . S
O1193 Co1190 1.970 . S
O1193 C1192 1.258 . S
O1194 Co1191 1.966 . S
O1194 C1192 1.263 . S
C1195 O1196 1.235 . S
C1195 O1222 1.289 . S
O1196 C1195 1.235 . S
C1197 C1199 1.400 . S
C1197 N1200 1.351 . S
C1197 C1202 1.501 . S
C1198 C1199 1.387 . S
C1198 N1201 1.341 . S
C1199 C1197 1.400 . S
C1199 C1198 1.387 . S
N1200 Co1191 2.022 . S
N1200 C1197 1.351 . S
N1200 N1201 1.365 . S
N1201 C1198 1.341 . S
N1201 N1200 1.365 . S
N1201 H1221 0.862 . S
C1202 C1197 1.501 . S
C1202 H1203 0.961 . S
C1202 H1204 0.961 . S
C1202 H1205 0.960 . S
H1203 C1202 0.961 . S
H1204 C1202 0.961 . S
H1205 C1202 0.960 . S
C1206 N1207 1.342 . S
C1206 C1210 1.401 . S
C1206 C1211 1.499 . S
N1207 Co1190 1.989 . S
N1207 C1206 1.342 . S
N1207 N1208 1.388 . S
N1208 Co1191 1.993 . S
N1208 N1207 1.388 . S
N1208 C1209 1.346 . S
C1209 N1208 1.346 . S
C1209 C1210 1.396 . S
C1209 C1219 1.510 . S
C1210 C1206 1.401 . S
C1210 C1209 1.396 . S
C1211 C1206 1.499 . S
C1211 H1212 0.959 . S
C1211 H1213 0.960 . S
C1211 H1214 0.961 . S
H1212 C1211 0.959 . S
H1213 C1211 0.960 . S
H1214 C1211 0.961 . S
O1215 Co1190 1.967 . S
O1215 C1223 1.258 . S
O1216 Co1191 1.941 . S
O1216 C1223 1.266 . S
H1217 C1219 0.959 . S
H1218 C1219 0.961 . S
C1219 C1209 1.510 . S
C1219 H1217 0.959 . S
C1219 H1218 0.961 . S
C1219 H1220 0.960 . S
H1220 C1219 0.960 . S
H1221 N1201 0.862 . S
O1222 Co1190 1.920 . S
O1222 C1195 1.289 . S
C1223 O1215 1.258 . S
C1223 O1216 1.266 . S
C1224 C1225 1.349 . S
C1224 C1226 1.327 . S
C1224 H1249 0.950 . S
C1225 C1224 1.349 . S
C1225 C1241 1.349 . S
C1226 C1224 1.327 . S
C1226 C1245 1.429 . S
C1226 H1250 0.950 . S
C1227 C1244 1.574 . S
C1227 C1246 1.368 . S
C1227 H1251 0.949 . S
H1228 C1232 0.949 . S
C1229 C1230 1.349 . S
C1229 C1231 1.327 . S
C1229 H1252 0.950 . S
C1230 C1229 1.349 . S
C1230 C1242 1.349 . S
C1231 C1229 1.327 . S
C1231 C1247 1.429 . S
C1231 H1253 0.950 . S
C1232 H1228 0.949 . S
C1232 C1240 1.574 . S
C1232 C1248 1.368 . S
H1233 C1241 0.950 1_556 S
H1234 C1239 0.950 . S
H1235 C1240 0.949 . S
H1236 C1242 0.950 . S
H1237 C1243 0.950 . S
H1238 C1244 0.949 . S
C1239 H1234 0.950 . S
C1239 C1241 1.327 . S
C1239 C1245 1.429 . S
C1240 C1232 1.574 . S
C1240 H1235 0.949 . S
C1240 C1246 1.368 . S
C1241 C1225 1.349 . S
C1241 H1233 0.950 1_554 S
C1241 C1239 1.327 . S
C1242 C1230 1.349 . S
C1242 H1236 0.950 . S
C1242 C1243 1.327 . S
C1243 H1237 0.950 . S
C1243 C1242 1.327 . S
C1243 C1247 1.429 . S
C1244 C1227 1.574 . S
C1244 H1238 0.949 . S
C1244 C1248 1.368 . S
C1245 C1226 1.429 . S
C1245 C1239 1.429 . S
C1245 C1246 1.523 . S
C1246 C1227 1.368 . S
C1246 C1240 1.368 . S
C1246 C1245 1.523 . S
C1247 C1231 1.429 . S
C1247 C1243 1.429 . S
C1247 C1248 1.523 . S
C1248 C1232 1.368 . S
C1248 C1244 1.368 . S
C1248 C1247 1.523 . S
H1249 C1224 0.950 . S
H1250 C1226 0.950 . S
H1251 C1227 0.949 . S
H1252 C1229 0.950 . S
H1253 C1231 0.950 . S
C1254 C1255 1.349 . S
C1254 C1256 1.327 . S
C1254 H1279 0.950 . S
C1255 C1254 1.349 . S
C1255 C1271 1.349 . S
C1256 C1254 1.327 . S
C1256 C1275 1.429 . S
C1256 H1280 0.950 . S
C1257 C1274 1.574 . S
C1257 C1276 1.368 . S
C1257 H1281 0.949 . S
H1258 C1262 0.949 . S
C1259 C1260 1.349 . S
C1259 C1261 1.327 . S
C1259 H1282 0.950 . S
C1260 C1259 1.349 . S
C1260 C1272 1.349 . S
C1261 C1259 1.327 . S
C1261 C1277 1.429 . S
C1261 H1283 0.950 . S
C1262 H1258 0.949 . S
C1262 C1270 1.574 . S
C1262 C1278 1.368 . S
H1263 C1271 0.950 . S
H1264 C1269 0.950 . S
H1265 C1270 0.949 . S
H1266 C1272 0.950 . S
H1267 C1273 0.950 . S
H1268 C1274 0.949 . S
C1269 H1264 0.950 . S
C1269 C1271 1.327 . S
C1269 C1275 1.429 . S
C1270 C1262 1.574 . S
C1270 H1265 0.949 . S
C1270 C1276 1.368 . S
C1271 C1255 1.349 . S
C1271 H1263 0.950 . S
C1271 C1269 1.327 . S
C1272 C1260 1.349 . S
C1272 H1266 0.950 . S
C1272 C1273 1.327 . S
C1273 H1267 0.950 . S
C1273 C1272 1.327 . S
C1273 C1277 1.429 . S
C1274 C1257 1.574 . S
C1274 H1268 0.949 . S
C1274 C1278 1.368 . S
C1275 C1256 1.429 . S
C1275 C1269 1.429 . S
C1275 C1276 1.523 . S
C1276 C1257 1.368 . S
C1276 C1270 1.368 . S
C1276 C1275 1.523 . S
C1277 C1261 1.429 . S
C1277 C1273 1.429 . S
C1277 C1278 1.523 . S
C1278 C1262 1.368 . S
C1278 C1274 1.368 . S
C1278 C1277 1.523 . S
H1279 C1254 0.950 . S
H1280 C1256 0.950 . S
H1281 C1257 0.949 . S
H1282 C1259 0.950 . S
H1283 C1261 0.950 . S
C1284 C1285 1.349 . S
C1284 C1286 1.327 . S
C1284 H1309 0.950 . S
C1285 C1284 1.349 . S
C1285 C1301 1.349 . S
C1286 C1284 1.327 . S
C1286 C1305 1.429 . S
C1286 H1310 0.950 . S
C1287 C1304 1.574 . S
C1287 C1306 1.368 . S
C1287 H1311 0.949 . S
H1288 C1292 0.949 . S
C1289 C1290 1.349 . S
C1289 C1291 1.327 . S
C1289 H1312 0.950 . S
C1290 C1289 1.349 . S
C1290 C1302 1.349 . S
C1291 C1289 1.327 . S
C1291 C1307 1.429 . S
C1291 H1313 0.950 . S
C1292 H1288 0.949 . S
C1292 C1300 1.574 . S
C1292 C1308 1.368 . S
H1293 C1301 0.950 . S
H1294 C1299 0.950 . S
H1295 C1300 0.949 . S
H1296 C1302 0.950 . S
H1297 C1303 0.950 . S
H1298 C1304 0.949 . S
C1299 H1294 0.950 . S
C1299 C1301 1.327 . S
C1299 C1305 1.429 . S
C1300 C1292 1.574 . S
C1300 H1295 0.949 . S
C1300 C1306 1.368 . S
C1301 C1285 1.349 . S
C1301 H1293 0.950 . S
C1301 C1299 1.327 . S
C1302 C1290 1.349 . S
C1302 H1296 0.950 . S
C1302 C1303 1.327 . S
C1303 H1297 0.950 . S
C1303 C1302 1.327 . S
C1303 C1307 1.429 . S
C1304 C1287 1.574 . S
C1304 H1298 0.949 . S
C1304 C1308 1.368 . S
C1305 C1286 1.429 . S
C1305 C1299 1.429 . S
C1305 C1306 1.523 . S
C1306 C1287 1.368 . S
C1306 C1300 1.368 . S
C1306 C1305 1.523 . S
C1307 C1291 1.429 . S
C1307 C1303 1.429 . S
C1307 C1308 1.523 . S
C1308 C1292 1.368 . S
C1308 C1304 1.368 . S
C1308 C1307 1.523 . S
H1309 C1284 0.950 . S
H1310 C1286 0.950 . S
H1311 C1287 0.949 . S
H1312 C1289 0.950 . S
H1313 C1291 0.950 . S
C1314 C1315 1.349 . S
C1314 C1316 1.327 . S
C1314 H1339 0.950 . S
C1315 C1314 1.349 . S
C1315 C1331 1.349 . S
C1316 C1314 1.327 . S
C1316 C1335 1.429 . S
C1316 H1340 0.950 . S
C1317 C1334 1.574 . S
C1317 C1336 1.368 . S
C1317 H1341 0.949 . S
H1318 C1322 0.949 . S
C1319 C1320 1.349 . S
C1319 C1321 1.327 . S
C1319 H1342 0.950 1_556 S
C1320 C1319 1.349 . S
C1320 C1332 1.349 . S
C1321 C1319 1.327 . S
C1321 C1337 1.429 . S
C1321 H1343 0.950 . S
C1322 H1318 0.949 . S
C1322 C1330 1.574 . S
C1322 C1338 1.368 . S
H1323 C1331 0.950 . S
H1324 C1329 0.950 . S
H1325 C1330 0.949 . S
H1326 C1332 0.950 . S
H1327 C1333 0.950 . S
H1328 C1334 0.949 . S
C1329 H1324 0.950 . S
C1329 C1331 1.327 . S
C1329 C1335 1.429 . S
C1330 C1322 1.574 . S
C1330 H1325 0.949 . S
C1330 C1336 1.368 . S
C1331 C1315 1.349 . S
C1331 H1323 0.950 . S
C1331 C1329 1.327 . S
C1332 C1320 1.349 . S
C1332 H1326 0.950 . S
C1332 C1333 1.327 . S
C1333 H1327 0.950 . S
C1333 C1332 1.327 . S
C1333 C1337 1.429 . S
C1334 C1317 1.574 . S
C1334 H1328 0.949 . S
C1334 C1338 1.368 . S
C1335 C1316 1.429 . S
C1335 C1329 1.429 . S
C1335 C1336 1.523 . S
C1336 C1317 1.368 . S
C1336 C1330 1.368 . S
C1336 C1335 1.523 . S
C1337 C1321 1.429 . S
C1337 C1333 1.429 . S
C1337 C1338 1.523 . S
C1338 C1322 1.368 . S
C1338 C1334 1.368 . S
C1338 C1337 1.523 . S
H1339 C1314 0.950 . S
H1340 C1316 0.950 . S
H1341 C1317 0.949 . S
H1342 C1319 0.950 1_554 S
H1343 C1321 0.950 . S
C1344 C1345 1.349 . S
C1344 C1346 1.327 . S
C1344 H1369 0.950 . S
C1345 C1344 1.349 . S
C1345 C1361 1.349 . S
C1346 C1344 1.327 . S
C1346 C1365 1.429 . S
C1346 H1370 0.950 . S
C1347 C1364 1.574 . S
C1347 C1366 1.368 . S
C1347 H1371 0.949 . S
H1348 C1352 0.949 . S
C1349 C1350 1.349 . S
C1349 C1351 1.327 . S
C1349 H1372 0.950 . S
C1350 C1349 1.349 . S
C1350 C1362 1.349 . S
C1351 C1349 1.327 . S
C1351 C1367 1.429 . S
C1351 H1373 0.950 . S
C1352 H1348 0.949 . S
C1352 C1360 1.574 . S
C1352 C1368 1.368 . S
H1353 C1361 0.950 . S
H1354 C1359 0.950 . S
H1355 C1360 0.949 . S
H1356 C1362 0.950 . S
H1357 C1363 0.950 . S
H1358 C1364 0.949 . S
C1359 H1354 0.950 . S
C1359 C1361 1.327 . S
C1359 C1365 1.429 . S
C1360 C1352 1.574 . S
C1360 H1355 0.949 . S
C1360 C1366 1.368 . S
C1361 C1345 1.349 . S
C1361 H1353 0.950 . S
C1361 C1359 1.327 . S
C1362 C1350 1.349 . S
C1362 H1356 0.950 . S
C1362 C1363 1.327 . S
C1363 H1357 0.950 . S
C1363 C1362 1.327 . S
C1363 C1367 1.429 . S
C1364 C1347 1.574 . S
C1364 H1358 0.949 . S
C1364 C1368 1.368 . S
C1365 C1346 1.429 . S
C1365 C1359 1.429 . S
C1365 C1366 1.523 . S
C1366 C1347 1.368 . S
C1366 C1360 1.368 . S
C1366 C1365 1.523 . S
C1367 C1351 1.429 . S
C1367 C1363 1.429 . S
C1367 C1368 1.523 . S
C1368 C1352 1.368 . S
C1368 C1364 1.368 . S
C1368 C1367 1.523 . S
H1369 C1344 0.950 . S
H1370 C1346 0.950 . S
H1371 C1347 0.949 . S
H1372 C1349 0.950 . S
H1373 C1351 0.950 . S
C1374 C1375 1.349 . S
C1374 C1376 1.327 . S
C1374 H1399 0.950 1_556 S
C1375 C1374 1.349 . S
C1375 C1391 1.349 . S
C1376 C1374 1.327 . S
C1376 C1395 1.429 . S
C1376 H1400 0.950 . S
C1377 C1394 1.574 . S
C1377 C1396 1.368 . S
C1377 H1401 0.949 . S
H1378 C1382 0.949 . S
C1379 C1380 1.349 . S
C1379 C1381 1.327 . S
C1379 H1402 0.950 . S
C1380 C1379 1.349 . S
C1380 C1392 1.349 . S
C1381 C1379 1.327 . S
C1381 C1397 1.429 . S
C1381 H1403 0.950 . S
C1382 H1378 0.949 . S
C1382 C1390 1.574 . S
C1382 C1398 1.368 . S
H1383 C1391 0.950 . S
H1384 C1389 0.950 . S
H1385 C1390 0.949 . S
H1386 C1392 0.950 . S
H1387 C1393 0.950 . S
H1388 C1394 0.949 . S
C1389 H1384 0.950 . S
C1389 C1391 1.327 . S
C1389 C1395 1.429 . S
C1390 C1382 1.574 . S
C1390 H1385 0.949 . S
C1390 C1396 1.368 . S
C1391 C1375 1.349 . S
C1391 H1383 0.950 . S
C1391 C1389 1.327 . S
C1392 C1380 1.349 . S
C1392 H1386 0.950 . S
C1392 C1393 1.327 . S
C1393 H1387 0.950 . S
C1393 C1392 1.327 . S
C1393 C1397 1.429 . S
C1394 C1377 1.574 . S
C1394 H1388 0.949 . S
C1394 C1398 1.368 . S
C1395 C1376 1.429 . S
C1395 C1389 1.429 . S
C1395 C1396 1.523 . S
C1396 C1377 1.368 . S
C1396 C1390 1.368 . S
C1396 C1395 1.523 . S
C1397 C1381 1.429 . S
C1397 C1393 1.429 . S
C1397 C1398 1.523 . S
C1398 C1382 1.368 . S
C1398 C1394 1.368 . S
C1398 C1397 1.523 . S
H1399 C1374 0.950 1_554 S
H1400 C1376 0.950 . S
H1401 C1377 0.949 . S
H1402 C1379 0.950 . S
H1403 C1381 0.950 . S
C1404 C1405 1.349 . S
C1404 C1406 1.327 . S
C1404 H1429 0.950 . S
C1405 C1404 1.349 . S
C1405 C1421 1.349 . S
C1406 C1404 1.327 . S
C1406 C1425 1.429 . S
C1406 H1430 0.950 . S
C1407 C1424 1.574 . S
C1407 C1426 1.368 . S
C1407 H1431 0.949 . S
H1408 C1412 0.949 . S
C1409 C1410 1.349 . S
C1409 C1411 1.327 . S
C1409 H1432 0.950 . S
C1410 C1409 1.349 . S
C1410 C1422 1.349 . S
C1411 C1409 1.327 . S
C1411 C1427 1.429 . S
C1411 H1433 0.950 . S
C1412 H1408 0.949 . S
C1412 C1420 1.574 . S
C1412 C1428 1.368 . S
H1413 C1421 0.950 . S
H1414 C1419 0.950 . S
H1415 C1420 0.949 . S
H1416 C1422 0.950 . S
H1417 C1423 0.950 . S
H1418 C1424 0.949 . S
C1419 H1414 0.950 . S
C1419 C1421 1.327 . S
C1419 C1425 1.429 . S
C1420 C1412 1.574 . S
C1420 H1415 0.949 . S
C1420 C1426 1.368 . S
C1421 C1405 1.349 . S
C1421 H1413 0.950 . S
C1421 C1419 1.327 . S
C1422 C1410 1.349 . S
C1422 H1416 0.950 . S
C1422 C1423 1.327 . S
C1423 H1417 0.950 . S
C1423 C1422 1.327 . S
C1423 C1427 1.429 . S
C1424 C1407 1.574 . S
C1424 H1418 0.949 . S
C1424 C1428 1.368 . S
C1425 C1406 1.429 . S
C1425 C1419 1.429 . S
C1425 C1426 1.523 . S
C1426 C1407 1.368 . S
C1426 C1420 1.368 . S
C1426 C1425 1.523 . S
C1427 C1411 1.429 . S
C1427 C1423 1.429 . S
C1427 C1428 1.523 . S
C1428 C1412 1.368 . S
C1428 C1424 1.368 . S
C1428 C1427 1.523 . S
H1429 C1404 0.950 . S
H1430 C1406 0.950 . S
H1431 C1407 0.949 . S
H1432 C1409 0.950 . S
H1433 C1411 0.950 . S
C1434 C1435 1.349 . S
C1434 C1436 1.327 . S
C1434 H1459 0.950 . S
C1435 C1434 1.349 . S
C1435 C1451 1.349 . S
C1436 C1434 1.327 . S
C1436 C1455 1.429 . S
C1436 H1460 0.950 . S
C1437 C1454 1.574 . S
C1437 C1456 1.368 . S
C1437 H1461 0.949 . S
H1438 C1442 0.949 . S
C1439 C1440 1.349 . S
C1439 C1441 1.327 . S
C1439 H1462 0.950 . S
C1440 C1439 1.349 . S
C1440 C1452 1.349 . S
C1441 C1439 1.327 . S
C1441 C1457 1.429 . S
C1441 H1463 0.950 . S
C1442 H1438 0.949 . S
C1442 C1450 1.574 . S
C1442 C1458 1.368 . S
H1443 C1451 0.950 . S
H1444 C1449 0.950 . S
H1445 C1450 0.949 . S
H1446 C1452 0.950 1_554 S
H1447 C1453 0.950 . S
H1448 C1454 0.949 . S
C1449 H1444 0.950 . S
C1449 C1451 1.327 . S
C1449 C1455 1.429 . S
C1450 C1442 1.574 . S
C1450 H1445 0.949 . S
C1450 C1456 1.368 . S
C1451 C1435 1.349 . S
C1451 H1443 0.950 . S
C1451 C1449 1.327 . S
C1452 C1440 1.349 . S
C1452 H1446 0.950 1_556 S
C1452 C1453 1.327 . S
C1453 H1447 0.950 . S
C1453 C1452 1.327 . S
C1453 C1457 1.429 . S
C1454 C1437 1.574 . S
C1454 H1448 0.949 . S
C1454 C1458 1.368 . S
C1455 C1436 1.429 . S
C1455 C1449 1.429 . S
C1455 C1456 1.523 . S
C1456 C1437 1.368 . S
C1456 C1450 1.368 . S
C1456 C1455 1.523 . S
C1457 C1441 1.429 . S
C1457 C1453 1.429 . S
C1457 C1458 1.523 . S
C1458 C1442 1.368 . S
C1458 C1454 1.368 . S
C1458 C1457 1.523 . S
H1459 C1434 0.950 . S
H1460 C1436 0.950 . S
H1461 C1437 0.949 . S
H1462 C1439 0.950 . S
H1463 C1441 0.950 . S
C1464 C1465 1.349 . S
C1464 C1466 1.327 . S
C1464 H1489 0.950 . S
C1465 C1464 1.349 . S
C1465 C1481 1.349 . S
C1466 C1464 1.327 . S
C1466 C1485 1.429 . S
C1466 H1490 0.950 . S
C1467 C1484 1.574 . S
C1467 C1486 1.368 . S
C1467 H1491 0.949 . S
H1468 C1472 0.949 . S
C1469 C1470 1.349 . S
C1469 C1471 1.327 . S
C1469 H1492 0.950 . S
C1470 C1469 1.349 . S
C1470 C1482 1.349 . S
C1471 C1469 1.327 . S
C1471 C1487 1.429 . S
C1471 H1493 0.950 . S
C1472 H1468 0.949 . S
C1472 C1480 1.574 . S
C1472 C1488 1.368 . S
H1473 C1481 0.950 1_554 S
H1474 C1479 0.950 . S
H1475 C1480 0.949 . S
H1476 C1482 0.950 . S
H1477 C1483 0.950 . S
H1478 C1484 0.949 . S
C1479 H1474 0.950 . S
C1479 C1481 1.327 . S
C1479 C1485 1.429 . S
C1480 C1472 1.574 . S
C1480 H1475 0.949 . S
C1480 C1486 1.368 . S
C1481 C1465 1.349 . S
C1481 H1473 0.950 1_556 S
C1481 C1479 1.327 . S
C1482 C1470 1.349 . S
C1482 H1476 0.950 . S
C1482 C1483 1.327 . S
C1483 H1477 0.950 . S
C1483 C1482 1.327 . S
C1483 C1487 1.429 . S
C1484 C1467 1.574 . S
C1484 H1478 0.949 . S
C1484 C1488 1.368 . S
C1485 C1466 1.429 . S
C1485 C1479 1.429 . S
C1485 C1486 1.523 . S
C1486 C1467 1.368 . S
C1486 C1480 1.368 . S
C1486 C1485 1.523 . S
C1487 C1471 1.429 . S
C1487 C1483 1.429 . S
C1487 C1488 1.523 . S
C1488 C1472 1.368 . S
C1488 C1484 1.368 . S
C1488 C1487 1.523 . S
H1489 C1464 0.950 . S
H1490 C1466 0.950 . S
H1491 C1467 0.949 . S
H1492 C1469 0.950 . S
H1493 C1471 0.950 . S
C1494 C1495 1.349 . S
C1494 C1496 1.327 . S
C1494 H1519 0.950 . S
C1495 C1494 1.349 . S
C1495 C1511 1.349 . S
C1496 C1494 1.327 . S
C1496 C1515 1.429 . S
C1496 H1520 0.950 . S
C1497 C1514 1.574 . S
C1497 C1516 1.368 . S
C1497 H1521 0.949 . S
H1498 C1502 0.949 . S
C1499 C1500 1.349 . S
C1499 C1501 1.327 . S
C1499 H1522 0.950 . S
C1500 C1499 1.349 . S
C1500 C1512 1.349 . S
C1501 C1499 1.327 . S
C1501 C1517 1.429 . S
C1501 H1523 0.950 . S
C1502 H1498 0.949 . S
C1502 C1510 1.574 . S
C1502 C1518 1.368 . S
H1503 C1511 0.950 . S
H1504 C1509 0.950 . S
H1505 C1510 0.949 . S
H1506 C1512 0.950 . S
H1507 C1513 0.950 . S
H1508 C1514 0.949 . S
C1509 H1504 0.950 . S
C1509 C1511 1.327 . S
C1509 C1515 1.429 . S
C1510 C1502 1.574 . S
C1510 H1505 0.949 . S
C1510 C1516 1.368 . S
C1511 C1495 1.349 . S
C1511 H1503 0.950 . S
C1511 C1509 1.327 . S
C1512 C1500 1.349 . S
C1512 H1506 0.950 . S
C1512 C1513 1.327 . S
C1513 H1507 0.950 . S
C1513 C1512 1.327 . S
C1513 C1517 1.429 . S
C1514 C1497 1.574 . S
C1514 H1508 0.949 . S
C1514 C1518 1.368 . S
C1515 C1496 1.429 . S
C1515 C1509 1.429 . S
C1515 C1516 1.523 . S
C1516 C1497 1.368 . S
C1516 C1510 1.368 . S
C1516 C1515 1.523 . S
C1517 C1501 1.429 . S
C1517 C1513 1.429 . S
C1517 C1518 1.523 . S
C1518 C1502 1.368 . S
C1518 C1514 1.368 . S
C1518 C1517 1.523 . S
H1519 C1494 0.950 . S
H1520 C1496 0.950 . S
H1521 C1497 0.949 . S
H1522 C1499 0.950 . S
H1523 C1501 0.950 . S
C1524 C1525 1.349 . S
C1524 C1526 1.327 . S
C1524 H1549 0.950 . S
C1525 C1524 1.349 . S
C1525 C1541 1.349 . S
C1526 C1524 1.327 . S
C1526 C1545 1.429 . S
C1526 H1550 0.950 . S
C1527 C1544 1.574 . S
C1527 C1546 1.368 . S
C1527 H1551 0.949 . S
H1528 C1532 0.949 . S
C1529 C1530 1.349 . S
C1529 C1531 1.327 . S
C1529 H1552 0.950 . S
C1530 C1529 1.349 . S
C1530 C1542 1.349 . S
C1531 C1529 1.327 . S
C1531 C1547 1.429 . S
C1531 H1553 0.950 . S
C1532 H1528 0.949 . S
C1532 C1540 1.574 . S
C1532 C1548 1.368 . S
H1533 C1541 0.950 . S
H1534 C1539 0.950 . S
H1535 C1540 0.949 . S
H1536 C1542 0.950 . S
H1537 C1543 0.950 . S
H1538 C1544 0.949 . S
C1539 H1534 0.950 . S
C1539 C1541 1.327 . S
C1539 C1545 1.429 . S
C1540 C1532 1.574 . S
C1540 H1535 0.949 . S
C1540 C1546 1.368 . S
C1541 C1525 1.349 . S
C1541 H1533 0.950 . S
C1541 C1539 1.327 . S
C1542 C1530 1.349 . S
C1542 H1536 0.950 . S
C1542 C1543 1.327 . S
C1543 H1537 0.950 . S
C1543 C1542 1.327 . S
C1543 C1547 1.429 . S
C1544 C1527 1.574 . S
C1544 H1538 0.949 . S
C1544 C1548 1.368 . S
C1545 C1526 1.429 . S
C1545 C1539 1.429 . S
C1545 C1546 1.523 . S
C1546 C1527 1.368 . S
C1546 C1540 1.368 . S
C1546 C1545 1.523 . S
C1547 C1531 1.429 . S
C1547 C1543 1.429 . S
C1547 C1548 1.523 . S
C1548 C1532 1.368 . S
C1548 C1544 1.368 . S
C1548 C1547 1.523 . S
H1549 C1524 0.950 . S
H1550 C1526 0.950 . S
H1551 C1527 0.949 . S
H1552 C1529 0.950 . S
H1553 C1531 0.950 . S
C1554 C1555 1.349 . S
C1554 C1556 1.327 . S
C1554 H1579 0.950 . S
C1555 C1554 1.349 . S
C1555 C1571 1.349 . S
C1556 C1554 1.327 . S
C1556 C1575 1.429 . S
C1556 H1580 0.950 . S
C1557 C1574 1.574 . S
C1557 C1576 1.368 . S
C1557 H1581 0.949 . S
H1558 C1562 0.949 . S
C1559 C1560 1.349 . S
C1559 C1561 1.327 . S
C1559 H1582 0.950 1_554 S
C1560 C1559 1.349 . S
C1560 C1572 1.349 . S
C1561 C1559 1.327 . S
C1561 C1577 1.429 . S
C1561 H1583 0.950 . S
C1562 H1558 0.949 . S
C1562 C1570 1.574 . S
C1562 C1578 1.368 . S
H1563 C1571 0.950 . S
H1564 C1569 0.950 . S
H1565 C1570 0.949 . S
H1566 C1572 0.950 . S
H1567 C1573 0.950 . S
H1568 C1574 0.949 . S
C1569 H1564 0.950 . S
C1569 C1571 1.327 . S
C1569 C1575 1.429 . S
C1570 C1562 1.574 . S
C1570 H1565 0.949 . S
C1570 C1576 1.368 . S
C1571 C1555 1.349 . S
C1571 H1563 0.950 . S
C1571 C1569 1.327 . S
C1572 C1560 1.349 . S
C1572 H1566 0.950 . S
C1572 C1573 1.327 . S
C1573 H1567 0.950 . S
C1573 C1572 1.327 . S
C1573 C1577 1.429 . S
C1574 C1557 1.574 . S
C1574 H1568 0.949 . S
C1574 C1578 1.368 . S
C1575 C1556 1.429 . S
C1575 C1569 1.429 . S
C1575 C1576 1.523 . S
C1576 C1557 1.368 . S
C1576 C1570 1.368 . S
C1576 C1575 1.523 . S
C1577 C1561 1.429 . S
C1577 C1573 1.429 . S
C1577 C1578 1.523 . S
C1578 C1562 1.368 . S
C1578 C1574 1.368 . S
C1578 C1577 1.523 . S
H1579 C1554 0.950 . S
H1580 C1556 0.950 . S
H1581 C1557 0.949 . S
H1582 C1559 0.950 1_556 S
H1583 C1561 0.950 . S
C1584 C1585 1.349 . S
C1584 C1586 1.327 . S
C1584 H1609 0.950 . S
C1585 C1584 1.349 . S
C1585 C1601 1.349 . S
C1586 C1584 1.327 . S
C1586 C1605 1.429 . S
C1586 H1610 0.950 . S
C1587 C1604 1.574 . S
C1587 C1606 1.368 . S
C1587 H1611 0.949 . S
H1588 C1592 0.949 . S
C1589 C1590 1.349 . S
C1589 C1591 1.327 . S
C1589 H1612 0.950 . S
C1590 C1589 1.349 . S
C1590 C1602 1.349 . S
C1591 C1589 1.327 . S
C1591 C1607 1.429 . S
C1591 H1613 0.950 . S
C1592 H1588 0.949 . S
C1592 C1600 1.574 . S
C1592 C1608 1.368 . S
H1593 C1601 0.950 . S
H1594 C1599 0.950 . S
H1595 C1600 0.949 . S
H1596 C1602 0.950 . S
H1597 C1603 0.950 . S
H1598 C1604 0.949 . S
C1599 H1594 0.950 . S
C1599 C1601 1.327 . S
C1599 C1605 1.429 . S
C1600 C1592 1.574 . S
C1600 H1595 0.949 . S
C1600 C1606 1.368 . S
C1601 C1585 1.349 . S
C1601 H1593 0.950 . S
C1601 C1599 1.327 . S
C1602 C1590 1.349 . S
C1602 H1596 0.950 . S
C1602 C1603 1.327 . S
C1603 H1597 0.950 . S
C1603 C1602 1.327 . S
C1603 C1607 1.429 . S
C1604 C1587 1.574 . S
C1604 H1598 0.949 . S
C1604 C1608 1.368 . S
C1605 C1586 1.429 . S
C1605 C1599 1.429 . S
C1605 C1606 1.523 . S
C1606 C1587 1.368 . S
C1606 C1600 1.368 . S
C1606 C1605 1.523 . S
C1607 C1591 1.429 . S
C1607 C1603 1.429 . S
C1607 C1608 1.523 . S
C1608 C1592 1.368 . S
C1608 C1604 1.368 . S
C1608 C1607 1.523 . S
H1609 C1584 0.950 . S
H1610 C1586 0.950 . S
H1611 C1587 0.949 . S
H1612 C1589 0.950 . S
H1613 C1591 0.950 . S
C1614 C1615 1.349 . S
C1614 C1616 1.327 . S
C1614 H1639 0.950 . S
C1615 C1614 1.349 . S
C1615 C1631 1.349 . S
C1616 C1614 1.327 . S
C1616 C1635 1.429 . S
C1616 H1640 0.950 . S
C1617 C1634 1.574 1_545 S
C1617 C1636 1.368 . S
C1617 H1641 0.949 . S
H1618 C1622 0.949 . S
C1619 C1620 1.349 . S
C1619 C1621 1.327 . S
C1619 H1642 0.950 . S
C1620 C1619 1.349 . S
C1620 C1632 1.349 . S
C1621 C1619 1.327 . S
C1621 C1637 1.429 . S
C1621 H1643 0.950 . S
C1622 H1618 0.949 . S
C1622 C1630 1.574 1_565 S
C1622 C1638 1.368 . S
H1623 C1631 0.950 . S
H1624 C1629 0.950 . S
H1625 C1630 0.949 . S
H1626 C1632 0.950 . S
H1627 C1633 0.950 . S
H1628 C1634 0.949 . S
C1629 H1624 0.950 . S
C1629 C1631 1.327 . S
C1629 C1635 1.429 . S
C1630 C1622 1.574 1_545 S
C1630 H1625 0.949 . S
C1630 C1636 1.368 . S
C1631 C1615 1.349 . S
C1631 H1623 0.950 . S
C1631 C1629 1.327 . S
C1632 C1620 1.349 . S
C1632 H1626 0.950 . S
C1632 C1633 1.327 . S
C1633 H1627 0.950 . S
C1633 C1632 1.327 . S
C1633 C1637 1.429 . S
C1634 C1617 1.574 1_565 S
C1634 H1628 0.949 . S
C1634 C1638 1.368 . S
C1635 C1616 1.429 . S
C1635 C1629 1.429 . S
C1635 C1636 1.523 . S
C1636 C1617 1.368 . S
C1636 C1630 1.368 . S
C1636 C1635 1.523 . S
C1637 C1621 1.429 . S
C1637 C1633 1.429 . S
C1637 C1638 1.523 . S
C1638 C1622 1.368 . S
C1638 C1634 1.368 . S
C1638 C1637 1.523 . S
H1639 C1614 0.950 . S
H1640 C1616 0.950 . S
H1641 C1617 0.949 . S
H1642 C1619 0.950 . S
H1643 C1621 0.950 . S
C1644 C1645 1.349 . S
C1644 C1646 1.327 . S
C1644 H1669 0.950 . S
C1645 C1644 1.349 . S
C1645 C1661 1.349 . S
C1646 C1644 1.327 . S
C1646 C1665 1.429 . S
C1646 H1670 0.950 . S
C1647 C1664 1.574 1_455 S
C1647 C1666 1.368 . S
C1647 H1671 0.949 . S
H1648 C1652 0.949 . S
C1649 C1650 1.349 . S
C1649 C1651 1.327 . S
C1649 H1672 0.950 . S
C1650 C1649 1.349 . S
C1650 C1662 1.349 . S
C1651 C1649 1.327 . S
C1651 C1667 1.429 . S
C1651 H1673 0.950 . S
C1652 H1648 0.949 . S
C1652 C1660 1.574 1_655 S
C1652 C1668 1.368 . S
H1653 C1661 0.950 . S
H1654 C1659 0.950 . S
H1655 C1660 0.949 . S
H1656 C1662 0.950 . S
H1657 C1663 0.950 . S
H1658 C1664 0.949 . S
C1659 H1654 0.950 . S
C1659 C1661 1.327 . S
C1659 C1665 1.429 . S
C1660 C1652 1.574 1_455 S
C1660 H1655 0.949 . S
C1660 C1666 1.368 . S
C1661 C1645 1.349 . S
C1661 H1653 0.950 . S
C1661 C1659 1.327 . S
C1662 C1650 1.349 . S
C1662 H1656 0.950 . S
C1662 C1663 1.327 . S
C1663 H1657 0.950 . S
C1663 C1662 1.327 . S
C1663 C1667 1.429 . S
C1664 C1647 1.574 1_655 S
C1664 H1658 0.949 . S
C1664 C1668 1.368 . S
C1665 C1646 1.429 . S
C1665 C1659 1.429 . S
C1665 C1666 1.523 . S
C1666 C1647 1.368 . S
C1666 C1660 1.368 . S
C1666 C1665 1.523 . S
C1667 C1651 1.429 . S
C1667 C1663 1.429 . S
C1667 C1668 1.523 . S
C1668 C1652 1.368 . S
C1668 C1664 1.368 . S
C1668 C1667 1.523 . S
H1669 C1644 0.950 . S
H1670 C1646 0.950 . S
H1671 C1647 0.949 . S
H1672 C1649 0.950 . S
H1673 C1651 0.950 . S
C1674 C1675 1.349 . S
C1674 C1676 1.327 . S
C1674 H1699 0.950 . S
C1675 C1674 1.349 . S
C1675 C1691 1.349 . S
C1676 C1674 1.327 . S
C1676 C1695 1.429 . S
C1676 H1700 0.950 . S
C1677 C1694 1.574 . S
C1677 C1696 1.368 . S
C1677 H1701 0.949 . S
H1678 C1682 0.949 . S
C1679 C1680 1.349 . S
C1679 C1681 1.327 . S
C1679 H1702 0.950 . S
C1680 C1679 1.349 . S
C1680 C1692 1.349 . S
C1681 C1679 1.327 . S
C1681 C1697 1.429 . S
C1681 H1703 0.950 . S
C1682 H1678 0.949 . S
C1682 C1690 1.574 . S
C1682 C1698 1.368 . S
H1683 C1691 0.950 . S
H1684 C1689 0.950 . S
H1685 C1690 0.949 . S
H1686 C1692 0.950 . S
H1687 C1693 0.950 . S
H1688 C1694 0.949 . S
C1689 H1684 0.950 . S
C1689 C1691 1.327 . S
C1689 C1695 1.429 . S
C1690 C1682 1.574 . S
C1690 H1685 0.949 . S
C1690 C1696 1.368 . S
C1691 C1675 1.349 . S
C1691 H1683 0.950 . S
C1691 C1689 1.327 . S
C1692 C1680 1.349 . S
C1692 H1686 0.950 . S
C1692 C1693 1.327 . S
C1693 H1687 0.950 . S
C1693 C1692 1.327 . S
C1693 C1697 1.429 . S
C1694 C1677 1.574 . S
C1694 H1688 0.949 . S
C1694 C1698 1.368 . S
C1695 C1676 1.429 . S
C1695 C1689 1.429 . S
C1695 C1696 1.523 . S
C1696 C1677 1.368 . S
C1696 C1690 1.368 . S
C1696 C1695 1.523 . S
C1697 C1681 1.429 . S
C1697 C1693 1.429 . S
C1697 C1698 1.523 . S
C1698 C1682 1.368 . S
C1698 C1694 1.368 . S
C1698 C1697 1.523 . S
H1699 C1674 0.950 . S
H1700 C1676 0.950 . S
H1701 C1677 0.949 . S
H1702 C1679 0.950 . S
H1703 C1681 0.950 . S
C1704 C1705 1.349 . S
C1704 C1706 1.327 . S
C1704 H1729 0.950 . S
C1705 C1704 1.349 . S
C1705 C1721 1.349 . S
C1706 C1704 1.327 . S
C1706 C1725 1.429 . S
C1706 H1730 0.950 . S
C1707 C1724 1.574 1_565 S
C1707 C1726 1.368 . S
C1707 H1731 0.949 . S
H1708 C1712 0.949 . S
C1709 C1710 1.349 . S
C1709 C1711 1.327 . S
C1709 H1732 0.950 . S
C1710 C1709 1.349 . S
C1710 C1722 1.349 . S
C1711 C1709 1.327 . S
C1711 C1727 1.429 . S
C1711 H1733 0.950 . S
C1712 H1708 0.949 . S
C1712 C1720 1.574 1_545 S
C1712 C1728 1.368 . S
H1713 C1721 0.950 . S
H1714 C1719 0.950 . S
H1715 C1720 0.949 . S
H1716 C1722 0.950 . S
H1717 C1723 0.950 . S
H1718 C1724 0.949 . S
C1719 H1714 0.950 . S
C1719 C1721 1.327 . S
C1719 C1725 1.429 . S
C1720 C1712 1.574 1_565 S
C1720 H1715 0.949 . S
C1720 C1726 1.368 . S
C1721 C1705 1.349 . S
C1721 H1713 0.950 . S
C1721 C1719 1.327 . S
C1722 C1710 1.349 . S
C1722 H1716 0.950 . S
C1722 C1723 1.327 . S
C1723 H1717 0.950 . S
C1723 C1722 1.327 . S
C1723 C1727 1.429 . S
C1724 C1707 1.574 1_545 S
C1724 H1718 0.949 . S
C1724 C1728 1.368 . S
C1725 C1706 1.429 . S
C1725 C1719 1.429 . S
C1725 C1726 1.523 . S
C1726 C1707 1.368 . S
C1726 C1720 1.368 . S
C1726 C1725 1.523 . S
C1727 C1711 1.429 . S
C1727 C1723 1.429 . S
C1727 C1728 1.523 . S
C1728 C1712 1.368 . S
C1728 C1724 1.368 . S
C1728 C1727 1.523 . S
H1729 C1704 0.950 . S
H1730 C1706 0.950 . S
H1731 C1707 0.949 . S
H1732 C1709 0.950 . S
H1733 C1711 0.950 . S
C1734 C1735 1.349 . S
C1734 C1736 1.327 . S
C1734 H1759 0.950 . S
C1735 C1734 1.349 . S
C1735 C1751 1.349 . S
C1736 C1734 1.327 . S
C1736 C1755 1.429 . S
C1736 H1760 0.950 . S
C1737 C1754 1.574 1_655 S
C1737 C1756 1.368 . S
C1737 H1761 0.949 . S
H1738 C1742 0.949 . S
C1739 C1740 1.349 . S
C1739 C1741 1.327 . S
C1739 H1762 0.950 . S
C1740 C1739 1.349 . S
C1740 C1752 1.349 . S
C1741 C1739 1.327 . S
C1741 C1757 1.429 . S
C1741 H1763 0.950 . S
C1742 H1738 0.949 . S
C1742 C1750 1.574 1_455 S
C1742 C1758 1.368 . S
H1743 C1751 0.950 . S
H1744 C1749 0.950 . S
H1745 C1750 0.949 . S
H1746 C1752 0.950 . S
H1747 C1753 0.950 . S
H1748 C1754 0.949 . S
C1749 H1744 0.950 . S
C1749 C1751 1.327 . S
C1749 C1755 1.429 . S
C1750 C1742 1.574 1_655 S
C1750 H1745 0.949 . S
C1750 C1756 1.368 . S
C1751 C1735 1.349 . S
C1751 H1743 0.950 . S
C1751 C1749 1.327 . S
C1752 C1740 1.349 . S
C1752 H1746 0.950 . S
C1752 C1753 1.327 . S
C1753 H1747 0.950 . S
C1753 C1752 1.327 . S
C1753 C1757 1.429 . S
C1754 C1737 1.574 1_455 S
C1754 H1748 0.949 . S
C1754 C1758 1.368 . S
C1755 C1736 1.429 . S
C1755 C1749 1.429 . S
C1755 C1756 1.523 . S
C1756 C1737 1.368 . S
C1756 C1750 1.368 . S
C1756 C1755 1.523 . S
C1757 C1741 1.429 . S
C1757 C1753 1.429 . S
C1757 C1758 1.523 . S
C1758 C1742 1.368 . S
C1758 C1754 1.368 . S
C1758 C1757 1.523 . S
H1759 C1734 0.950 . S
H1760 C1736 0.950 . S
H1761 C1737 0.949 . S
H1762 C1739 0.950 . S
H1763 C1741 0.950 . S
C1764 C1765 1.349 . S
C1764 C1766 1.327 . S
C1764 H1789 0.950 . S
C1765 C1764 1.349 . S
C1765 C1781 1.349 1_554 S
C1766 C1764 1.327 . S
C1766 C1785 1.429 . S
C1766 H1790 0.950 . S
C1767 C1784 1.574 . S
C1767 C1786 1.368 1_556 S
C1767 H1791 0.949 . S
H1768 C1772 0.949 . S
C1769 C1770 1.349 1_556 S
C1769 C1771 1.327 . S
C1769 H1792 0.950 . S
C1770 C1769 1.349 1_554 S
C1770 C1782 1.349 . S
C1771 C1769 1.327 . S
C1771 C1787 1.429 1_556 S
C1771 H1793 0.950 . S
C1772 H1768 0.949 . S
C1772 C1780 1.574 . S
C1772 C1788 1.368 . S
H1773 C1781 0.950 . S
H1774 C1779 0.950 . S
H1775 C1780 0.949 . S
H1776 C1782 0.950 . S
H1777 C1783 0.950 . S
H1778 C1784 0.949 . S
C1779 H1774 0.950 . S
C1779 C1781 1.327 . S
C1779 C1785 1.429 1_556 S
C1780 C1772 1.574 . S
C1780 H1775 0.949 . S
C1780 C1786 1.368 . S
C1781 C1765 1.349 1_556 S
C1781 H1773 0.950 . S
C1781 C1779 1.327 . S
C1782 C1770 1.349 . S
C1782 H1776 0.950 . S
C1782 C1783 1.327 . S
C1783 H1777 0.950 . S
C1783 C1782 1.327 . S
C1783 C1787 1.429 . S
C1784 C1767 1.574 . S
C1784 H1778 0.949 . S
C1784 C1788 1.368 1_556 S
C1785 C1766 1.429 . S
C1785 C1779 1.429 1_554 S
C1785 C1786 1.523 . S
C1786 C1767 1.368 1_554 S
C1786 C1780 1.368 . S
C1786 C1785 1.523 . S
C1787 C1771 1.429 1_554 S
C1787 C1783 1.429 . S
C1787 C1788 1.523 . S
C1788 C1772 1.368 . S
C1788 C1784 1.368 1_554 S
C1788 C1787 1.523 . S
H1789 C1764 0.950 . S
H1790 C1766 0.950 . S
H1791 C1767 0.949 . S
H1792 C1769 0.950 . S
H1793 C1771 0.950 . S
C1794 C1795 1.349 . S
C1794 C1796 1.327 . S
C1794 H1819 0.950 . S
C1795 C1794 1.349 . S
C1795 C1811 1.349 1_554 S
C1796 C1794 1.327 . S
C1796 C1815 1.429 . S
C1796 H1820 0.950 . S
C1797 C1814 1.574 . S
C1797 C1816 1.368 1_556 S
C1797 H1821 0.949 . S
H1798 C1802 0.949 . S
C1799 C1800 1.349 1_556 S
C1799 C1801 1.327 . S
C1799 H1822 0.950 . S
C1800 C1799 1.349 1_554 S
C1800 C1812 1.349 . S
C1801 C1799 1.327 . S
C1801 C1817 1.429 1_556 S
C1801 H1823 0.950 . S
C1802 H1798 0.949 . S
C1802 C1810 1.574 . S
C1802 C1818 1.368 . S
H1803 C1811 0.950 . S
H1804 C1809 0.950 . S
H1805 C1810 0.949 . S
H1806 C1812 0.950 . S
H1807 C1813 0.950 . S
H1808 C1814 0.949 . S
C1809 H1804 0.950 . S
C1809 C1811 1.327 . S
C1809 C1815 1.429 1_556 S
C1810 C1802 1.574 . S
C1810 H1805 0.949 . S
C1810 C1816 1.368 . S
C1811 C1795 1.349 1_556 S
C1811 H1803 0.950 . S
C1811 C1809 1.327 . S
C1812 C1800 1.349 . S
C1812 H1806 0.950 . S
C1812 C1813 1.327 . S
C1813 H1807 0.950 . S
C1813 C1812 1.327 . S
C1813 C1817 1.429 . S
C1814 C1797 1.574 . S
C1814 H1808 0.949 . S
C1814 C1818 1.368 1_556 S
C1815 C1796 1.429 . S
C1815 C1809 1.429 1_554 S
C1815 C1816 1.523 . S
C1816 C1797 1.368 1_554 S
C1816 C1810 1.368 . S
C1816 C1815 1.523 . S
C1817 C1801 1.429 1_554 S
C1817 C1813 1.429 . S
C1817 C1818 1.523 . S
C1818 C1802 1.368 . S
C1818 C1814 1.368 1_554 S
C1818 C1817 1.523 . S
H1819 C1794 0.950 . S
H1820 C1796 0.950 . S
H1821 C1797 0.949 . S
H1822 C1799 0.950 . S
H1823 C1801 0.950 . S
C1824 C1825 1.349 . S
C1824 C1826 1.327 . S
C1824 H1849 0.950 . S
C1825 C1824 1.349 . S
C1825 C1841 1.349 1_554 S
C1826 C1824 1.327 . S
C1826 C1845 1.429 . S
C1826 H1850 0.950 . S
C1827 C1844 1.574 . S
C1827 C1846 1.368 1_556 S
C1827 H1851 0.949 . S
H1828 C1832 0.949 . S
C1829 C1830 1.349 1_556 S
C1829 C1831 1.327 . S
C1829 H1852 0.950 . S
C1830 C1829 1.349 1_554 S
C1830 C1842 1.349 . S
C1831 C1829 1.327 . S
C1831 C1847 1.429 1_556 S
C1831 H1853 0.950 . S
C1832 H1828 0.949 . S
C1832 C1840 1.574 . S
C1832 C1848 1.368 . S
H1833 C1841 0.950 . S
H1834 C1839 0.950 . S
H1835 C1840 0.949 . S
H1836 C1842 0.950 . S
H1837 C1843 0.950 . S
H1838 C1844 0.949 . S
C1839 H1834 0.950 . S
C1839 C1841 1.327 . S
C1839 C1845 1.429 1_556 S
C1840 C1832 1.574 . S
C1840 H1835 0.949 . S
C1840 C1846 1.368 . S
C1841 C1825 1.349 1_556 S
C1841 H1833 0.950 . S
C1841 C1839 1.327 . S
C1842 C1830 1.349 . S
C1842 H1836 0.950 . S
C1842 C1843 1.327 . S
C1843 H1837 0.950 . S
C1843 C1842 1.327 . S
C1843 C1847 1.429 . S
C1844 C1827 1.574 . S
C1844 H1838 0.949 . S
C1844 C1848 1.368 1_556 S
C1845 C1826 1.429 . S
C1845 C1839 1.429 1_554 S
C1845 C1846 1.523 . S
C1846 C1827 1.368 1_554 S
C1846 C1840 1.368 . S
C1846 C1845 1.523 . S
C1847 C1831 1.429 1_554 S
C1847 C1843 1.429 . S
C1847 C1848 1.523 . S
C1848 C1832 1.368 . S
C1848 C1844 1.368 1_554 S
C1848 C1847 1.523 . S
H1849 C1824 0.950 . S
H1850 C1826 0.950 . S
H1851 C1827 0.949 . S
H1852 C1829 0.950 . S
H1853 C1831 0.950 . S
C1854 C1855 1.349 . S
C1854 C1856 1.327 . S
C1854 H1879 0.950 . S
C1855 C1854 1.349 . S
C1855 C1871 1.349 1_556 S
C1856 C1854 1.327 . S
C1856 C1875 1.429 . S
C1856 H1880 0.950 . S
C1857 C1874 1.574 . S
C1857 C1876 1.368 1_554 S
C1857 H1881 0.949 . S
H1858 C1862 0.949 . S
C1859 C1860 1.349 1_554 S
C1859 C1861 1.327 . S
C1859 H1882 0.950 . S
C1860 C1859 1.349 1_556 S
C1860 C1872 1.349 . S
C1861 C1859 1.327 . S
C1861 C1877 1.429 1_554 S
C1861 H1883 0.950 . S
C1862 H1858 0.949 . S
C1862 C1870 1.574 . S
C1862 C1878 1.368 . S
H1863 C1871 0.950 . S
H1864 C1869 0.950 . S
H1865 C1870 0.949 . S
H1866 C1872 0.950 . S
H1867 C1873 0.950 . S
H1868 C1874 0.949 . S
C1869 H1864 0.950 . S
C1869 C1871 1.327 . S
C1869 C1875 1.429 1_554 S
C1870 C1862 1.574 . S
C1870 H1865 0.949 . S
C1870 C1876 1.368 . S
C1871 C1855 1.349 1_554 S
C1871 H1863 0.950 . S
C1871 C1869 1.327 . S
C1872 C1860 1.349 . S
C1872 H1866 0.950 . S
C1872 C1873 1.327 . S
C1873 H1867 0.950 . S
C1873 C1872 1.327 . S
C1873 C1877 1.429 . S
C1874 C1857 1.574 . S
C1874 H1868 0.949 . S
C1874 C1878 1.368 1_554 S
C1875 C1856 1.429 . S
C1875 C1869 1.429 1_556 S
C1875 C1876 1.523 . S
C1876 C1857 1.368 1_556 S
C1876 C1870 1.368 . S
C1876 C1875 1.523 . S
C1877 C1861 1.429 1_556 S
C1877 C1873 1.429 . S
C1877 C1878 1.523 . S
C1878 C1862 1.368 . S
C1878 C1874 1.368 1_556 S
C1878 C1877 1.523 . S
H1879 C1854 0.950 . S
H1880 C1856 0.950 . S
H1881 C1857 0.949 . S
H1882 C1859 0.950 . S
H1883 C1861 0.950 . S
C1884 C1885 1.349 . S
C1884 C1886 1.327 . S
C1884 H1909 0.950 . S
C1885 C1884 1.349 . S
C1885 C1901 1.349 1_556 S
C1886 C1884 1.327 . S
C1886 C1905 1.429 . S
C1886 H1910 0.950 . S
C1887 C1904 1.574 . S
C1887 C1906 1.368 1_554 S
C1887 H1911 0.949 . S
H1888 C1892 0.949 . S
C1889 C1890 1.349 1_554 S
C1889 C1891 1.327 . S
C1889 H1912 0.950 . S
C1890 C1889 1.349 1_556 S
C1890 C1902 1.349 . S
C1891 C1889 1.327 . S
C1891 C1907 1.429 1_554 S
C1891 H1913 0.950 . S
C1892 H1888 0.949 . S
C1892 C1900 1.574 . S
C1892 C1908 1.368 . S
H1893 C1901 0.950 . S
H1894 C1899 0.950 . S
H1895 C1900 0.949 . S
H1896 C1902 0.950 . S
H1897 C1903 0.950 . S
H1898 C1904 0.949 . S
C1899 H1894 0.950 . S
C1899 C1901 1.327 . S
C1899 C1905 1.429 1_554 S
C1900 C1892 1.574 . S
C1900 H1895 0.949 . S
C1900 C1906 1.368 . S
C1901 C1885 1.349 1_554 S
C1901 H1893 0.950 . S
C1901 C1899 1.327 . S
C1902 C1890 1.349 . S
C1902 H1896 0.950 . S
C1902 C1903 1.327 . S
C1903 H1897 0.950 . S
C1903 C1902 1.327 . S
C1903 C1907 1.429 . S
C1904 C1887 1.574 . S
C1904 H1898 0.949 . S
C1904 C1908 1.368 1_554 S
C1905 C1886 1.429 . S
C1905 C1899 1.429 1_556 S
C1905 C1906 1.523 . S
C1906 C1887 1.368 1_556 S
C1906 C1900 1.368 . S
C1906 C1905 1.523 . S
C1907 C1891 1.429 1_556 S
C1907 C1903 1.429 . S
C1907 C1908 1.523 . S
C1908 C1892 1.368 . S
C1908 C1904 1.368 1_556 S
C1908 C1907 1.523 . S
H1909 C1884 0.950 . S
H1910 C1886 0.950 . S
H1911 C1887 0.949 . S
H1912 C1889 0.950 . S
H1913 C1891 0.950 . S
C1914 C1915 1.349 . S
C1914 C1916 1.327 . S
C1914 H1939 0.950 . S
C1915 C1914 1.349 . S
C1915 C1931 1.349 . S
C1916 C1914 1.327 . S
C1916 C1935 1.429 . S
C1916 H1940 0.950 . S
C1917 C1934 1.574 . S
C1917 C1936 1.368 . S
C1917 H1941 0.949 1_556 S
H1918 C1922 0.949 . S
C1919 C1920 1.349 . S
C1919 C1921 1.327 . S
C1919 H1942 0.950 1_556 S
C1920 C1919 1.349 . S
C1920 C1932 1.349 . S
C1921 C1919 1.327 . S
C1921 C1937 1.429 . S
C1921 H1943 0.950 1_556 S
C1922 H1918 0.949 . S
C1922 C1930 1.574 . S
C1922 C1938 1.368 . S
H1923 C1931 0.950 1_554 S
H1924 C1929 0.950 1_554 S
H1925 C1930 0.949 . S
H1926 C1932 0.950 . S
H1927 C1933 0.950 . S
H1928 C1934 0.949 1_554 S
C1929 H1924 0.950 1_556 S
C1929 C1931 1.327 . S
C1929 C1935 1.429 . S
C1930 C1922 1.574 . S
C1930 H1925 0.949 . S
C1930 C1936 1.368 . S
C1931 C1915 1.349 . S
C1931 H1923 0.950 1_556 S
C1931 C1929 1.327 . S
C1932 C1920 1.349 . S
C1932 H1926 0.950 . S
C1932 C1933 1.327 . S
C1933 H1927 0.950 . S
C1933 C1932 1.327 . S
C1933 C1937 1.429 . S
C1934 C1917 1.574 . S
C1934 H1928 0.949 1_556 S
C1934 C1938 1.368 . S
C1935 C1916 1.429 . S
C1935 C1929 1.429 . S
C1935 C1936 1.523 . S
C1936 C1917 1.368 . S
C1936 C1930 1.368 . S
C1936 C1935 1.523 . S
C1937 C1921 1.429 . S
C1937 C1933 1.429 . S
C1937 C1938 1.523 . S
C1938 C1922 1.368 . S
C1938 C1934 1.368 . S
C1938 C1937 1.523 . S
H1939 C1914 0.950 . S
H1940 C1916 0.950 . S
H1941 C1917 0.949 1_554 S
H1942 C1919 0.950 1_554 S
H1943 C1921 0.950 1_554 S
C1944 C1945 1.349 . S
C1944 C1946 1.327 . S
C1944 H1969 0.950 . S
C1945 C1944 1.349 . S
C1945 C1961 1.349 . S
C1946 C1944 1.327 . S
C1946 C1965 1.429 . S
C1946 H1970 0.950 . S
C1947 C1964 1.574 . S
C1947 C1966 1.368 . S
C1947 H1971 0.949 . S
H1948 C1952 0.949 . S
C1949 C1950 1.349 . S
C1949 C1951 1.327 . S
C1949 H1972 0.950 . S
C1950 C1949 1.349 . S
C1950 C1962 1.349 . S
C1951 C1949 1.327 . S
C1951 C1967 1.429 . S
C1951 H1973 0.950 . S
C1952 H1948 0.949 . S
C1952 C1960 1.574 . S
C1952 C1968 1.368 . S
H1953 C1961 0.950 . S
H1954 C1959 0.950 . S
H1955 C1960 0.949 . S
H1956 C1962 0.950 . S
H1957 C1963 0.950 . S
H1958 C1964 0.949 . S
C1959 H1954 0.950 . S
C1959 C1961 1.327 . S
C1959 C1965 1.429 . S
C1960 C1952 1.574 . S
C1960 H1955 0.949 . S
C1960 C1966 1.368 . S
C1961 C1945 1.349 . S
C1961 H1953 0.950 . S
C1961 C1959 1.327 . S
C1962 C1950 1.349 . S
C1962 H1956 0.950 . S
C1962 C1963 1.327 . S
C1963 H1957 0.950 . S
C1963 C1962 1.327 . S
C1963 C1967 1.429 . S
C1964 C1947 1.574 . S
C1964 H1958 0.949 . S
C1964 C1968 1.368 . S
C1965 C1946 1.429 . S
C1965 C1959 1.429 . S
C1965 C1966 1.523 . S
C1966 C1947 1.368 . S
C1966 C1960 1.368 . S
C1966 C1965 1.523 . S
C1967 C1951 1.429 . S
C1967 C1963 1.429 . S
C1967 C1968 1.523 . S
C1968 C1952 1.368 . S
C1968 C1964 1.368 . S
C1968 C1967 1.523 . S
H1969 C1944 0.950 . S
H1970 C1946 0.950 . S
H1971 C1947 0.949 . S
H1972 C1949 0.950 . S
H1973 C1951 0.950 . S
C1974 C1975 1.349 . S
C1974 C1976 1.327 . S
C1974 H1999 0.950 . S
C1975 C1974 1.349 . S
C1975 C1991 1.349 . S
C1976 C1974 1.327 . S
C1976 C1995 1.429 . S
C1976 H2000 0.950 . S
C1977 C1994 1.574 . S
C1977 C1996 1.368 . S
C1977 H2001 0.949 . S
H1978 C1982 0.949 . S
C1979 C1980 1.349 . S
C1979 C1981 1.327 . S
C1979 H2002 0.950 . S
C1980 C1979 1.349 . S
C1980 C1992 1.349 . S
C1981 C1979 1.327 . S
C1981 C1997 1.429 . S
C1981 H2003 0.950 . S
C1982 H1978 0.949 . S
C1982 C1990 1.574 . S
C1982 C1998 1.368 . S
H1983 C1991 0.950 . S
H1984 C1989 0.950 . S
H1985 C1990 0.949 . S
H1986 C1992 0.950 . S
H1987 C1993 0.950 . S
H1988 C1994 0.949 . S
C1989 H1984 0.950 . S
C1989 C1991 1.327 . S
C1989 C1995 1.429 . S
C1990 C1982 1.574 . S
C1990 H1985 0.949 . S
C1990 C1996 1.368 . S
C1991 C1975 1.349 . S
C1991 H1983 0.950 . S
C1991 C1989 1.327 . S
C1992 C1980 1.349 . S
C1992 H1986 0.950 . S
C1992 C1993 1.327 . S
C1993 H1987 0.950 . S
C1993 C1992 1.327 . S
C1993 C1997 1.429 . S
C1994 C1977 1.574 . S
C1994 H1988 0.949 . S
C1994 C1998 1.368 . S
C1995 C1976 1.429 . S
C1995 C1989 1.429 . S
C1995 C1996 1.523 . S
C1996 C1977 1.368 . S
C1996 C1990 1.368 . S
C1996 C1995 1.523 . S
C1997 C1981 1.429 . S
C1997 C1993 1.429 . S
C1997 C1998 1.523 . S
C1998 C1982 1.368 . S
C1998 C1994 1.368 . S
C1998 C1997 1.523 . S
H1999 C1974 0.950 . S
H2000 C1976 0.950 . S
H2001 C1977 0.949 . S
H2002 C1979 0.950 . S
H2003 C1981 0.950 . S
C2004 C2005 1.349 . S
C2004 C2006 1.327 . S
C2004 H2029 0.950 . S
C2005 C2004 1.349 . S
C2005 C2021 1.349 . S
C2006 C2004 1.327 . S
C2006 C2025 1.429 . S
C2006 H2030 0.950 . S
C2007 C2024 1.574 . S
C2007 C2026 1.368 . S
C2007 H2031 0.949 . S
H2008 C2012 0.949 . S
C2009 C2010 1.349 . S
C2009 C2011 1.327 . S
C2009 H2032 0.950 . S
C2010 C2009 1.349 . S
C2010 C2022 1.349 . S
C2011 C2009 1.327 . S
C2011 C2027 1.429 . S
C2011 H2033 0.950 . S
C2012 H2008 0.949 . S
C2012 C2020 1.574 . S
C2012 C2028 1.368 . S
H2013 C2021 0.950 . S
H2014 C2019 0.950 . S
H2015 C2020 0.949 . S
H2016 C2022 0.950 . S
H2017 C2023 0.950 . S
H2018 C2024 0.949 . S
C2019 H2014 0.950 . S
C2019 C2021 1.327 . S
C2019 C2025 1.429 . S
C2020 C2012 1.574 . S
C2020 H2015 0.949 . S
C2020 C2026 1.368 . S
C2021 C2005 1.349 . S
C2021 H2013 0.950 . S
C2021 C2019 1.327 . S
C2022 C2010 1.349 . S
C2022 H2016 0.950 . S
C2022 C2023 1.327 . S
C2023 H2017 0.950 . S
C2023 C2022 1.327 . S
C2023 C2027 1.429 . S
C2024 C2007 1.574 . S
C2024 H2018 0.949 . S
C2024 C2028 1.368 . S
C2025 C2006 1.429 . S
C2025 C2019 1.429 . S
C2025 C2026 1.523 . S
C2026 C2007 1.368 . S
C2026 C2020 1.368 . S
C2026 C2025 1.523 . S
C2027 C2011 1.429 . S
C2027 C2023 1.429 . S
C2027 C2028 1.523 . S
C2028 C2012 1.368 . S
C2028 C2024 1.368 . S
C2028 C2027 1.523 . S
H2029 C2004 0.950 . S
H2030 C2006 0.950 . S
H2031 C2007 0.949 . S
H2032 C2009 0.950 . S
H2033 C2011 0.950 . S
C2034 C2035 1.349 . S
C2034 C2036 1.327 . S
C2034 H2059 0.950 . S
C2035 C2034 1.349 . S
C2035 C2051 1.349 . S
C2036 C2034 1.327 . S
C2036 C2055 1.429 . S
C2036 H2060 0.950 . S
C2037 C2054 1.574 . S
C2037 C2056 1.368 . S
C2037 H2061 0.949 . S
H2038 C2042 0.949 . S
C2039 C2040 1.349 . S
C2039 C2041 1.327 . S
C2039 H2062 0.950 . S
C2040 C2039 1.349 . S
C2040 C2052 1.349 . S
C2041 C2039 1.327 . S
C2041 C2057 1.429 . S
C2041 H2063 0.950 . S
C2042 H2038 0.949 . S
C2042 C2050 1.574 . S
C2042 C2058 1.368 . S
H2043 C2051 0.950 . S
H2044 C2049 0.950 . S
H2045 C2050 0.949 . S
H2046 C2052 0.950 . S
H2047 C2053 0.950 . S
H2048 C2054 0.949 . S
C2049 H2044 0.950 . S
C2049 C2051 1.327 . S
C2049 C2055 1.429 . S
C2050 C2042 1.574 . S
C2050 H2045 0.949 . S
C2050 C2056 1.368 . S
C2051 C2035 1.349 . S
C2051 H2043 0.950 . S
C2051 C2049 1.327 . S
C2052 C2040 1.349 . S
C2052 H2046 0.950 . S
C2052 C2053 1.327 . S
C2053 H2047 0.950 . S
C2053 C2052 1.327 . S
C2053 C2057 1.429 . S
C2054 C2037 1.574 . S
C2054 H2048 0.949 . S
C2054 C2058 1.368 . S
C2055 C2036 1.429 . S
C2055 C2049 1.429 . S
C2055 C2056 1.523 . S
C2056 C2037 1.368 . S
C2056 C2050 1.368 . S
C2056 C2055 1.523 . S
C2057 C2041 1.429 . S
C2057 C2053 1.429 . S
C2057 C2058 1.523 . S
C2058 C2042 1.368 . S
C2058 C2054 1.368 . S
C2058 C2057 1.523 . S
H2059 C2034 0.950 . S
H2060 C2036 0.950 . S
H2061 C2037 0.949 . S
H2062 C2039 0.950 . S
H2063 C2041 0.950 . S
C2064 C2065 1.349 . S
C2064 C2066 1.327 . S
C2064 H2089 0.950 . S
C2065 C2064 1.349 . S
C2065 C2081 1.349 . S
C2066 C2064 1.327 . S
C2066 C2085 1.429 . S
C2066 H2090 0.950 . S
C2067 C2084 1.574 . S
C2067 C2086 1.368 . S
C2067 H2091 0.949 . S
H2068 C2072 0.949 . S
C2069 C2070 1.349 . S
C2069 C2071 1.327 . S
C2069 H2092 0.950 . S
C2070 C2069 1.349 . S
C2070 C2082 1.349 . S
C2071 C2069 1.327 . S
C2071 C2087 1.429 . S
C2071 H2093 0.950 . S
C2072 H2068 0.949 . S
C2072 C2080 1.574 . S
C2072 C2088 1.368 . S
H2073 C2081 0.950 . S
H2074 C2079 0.950 . S
H2075 C2080 0.949 . S
H2076 C2082 0.950 . S
H2077 C2083 0.950 . S
H2078 C2084 0.949 . S
C2079 H2074 0.950 . S
C2079 C2081 1.327 . S
C2079 C2085 1.429 . S
C2080 C2072 1.574 . S
C2080 H2075 0.949 . S
C2080 C2086 1.368 . S
C2081 C2065 1.349 . S
C2081 H2073 0.950 . S
C2081 C2079 1.327 . S
C2082 C2070 1.349 . S
C2082 H2076 0.950 . S
C2082 C2083 1.327 . S
C2083 H2077 0.950 . S
C2083 C2082 1.327 . S
C2083 C2087 1.429 . S
C2084 C2067 1.574 . S
C2084 H2078 0.949 . S
C2084 C2088 1.368 . S
C2085 C2066 1.429 . S
C2085 C2079 1.429 . S
C2085 C2086 1.523 . S
C2086 C2067 1.368 . S
C2086 C2080 1.368 . S
C2086 C2085 1.523 . S
C2087 C2071 1.429 . S
C2087 C2083 1.429 . S
C2087 C2088 1.523 . S
C2088 C2072 1.368 . S
C2088 C2084 1.368 . S
C2088 C2087 1.523 . S
H2089 C2064 0.950 . S
H2090 C2066 0.950 . S
H2091 C2067 0.949 . S
H2092 C2069 0.950 . S
H2093 C2071 0.950 . S
C2094 C2095 1.349 . S
C2094 C2096 1.327 . S
C2094 H2119 0.950 . S
C2095 C2094 1.349 . S
C2095 C2111 1.349 . S
C2096 C2094 1.327 . S
C2096 C2115 1.429 . S
C2096 H2120 0.950 . S
C2097 C2114 1.574 . S
C2097 C2116 1.368 . S
C2097 H2121 0.949 . S
H2098 C2102 0.949 . S
C2099 C2100 1.349 . S
C2099 C2101 1.327 . S
C2099 H2122 0.950 . S
C2100 C2099 1.349 . S
C2100 C2112 1.349 . S
C2101 C2099 1.327 . S
C2101 C2117 1.429 . S
C2101 H2123 0.950 . S
C2102 H2098 0.949 . S
C2102 C2110 1.574 . S
C2102 C2118 1.368 . S
H2103 C2111 0.950 . S
H2104 C2109 0.950 . S
H2105 C2110 0.949 . S
H2106 C2112 0.950 . S
H2107 C2113 0.950 . S
H2108 C2114 0.949 . S
C2109 H2104 0.950 . S
C2109 C2111 1.327 . S
C2109 C2115 1.429 . S
C2110 C2102 1.574 . S
C2110 H2105 0.949 . S
C2110 C2116 1.368 . S
C2111 C2095 1.349 . S
C2111 H2103 0.950 . S
C2111 C2109 1.327 . S
C2112 C2100 1.349 . S
C2112 H2106 0.950 . S
C2112 C2113 1.327 . S
C2113 H2107 0.950 . S
C2113 C2112 1.327 . S
C2113 C2117 1.429 . S
C2114 C2097 1.574 . S
C2114 H2108 0.949 . S
C2114 C2118 1.368 . S
C2115 C2096 1.429 . S
C2115 C2109 1.429 . S
C2115 C2116 1.523 . S
C2116 C2097 1.368 . S
C2116 C2110 1.368 . S
C2116 C2115 1.523 . S
C2117 C2101 1.429 . S
C2117 C2113 1.429 . S
C2117 C2118 1.523 . S
C2118 C2102 1.368 . S
C2118 C2114 1.368 . S
C2118 C2117 1.523 . S
H2119 C2094 0.950 . S
H2120 C2096 0.950 . S
H2121 C2097 0.949 . S
H2122 C2099 0.950 . S
H2123 C2101 0.950 . S
C2124 C2125 1.349 . S
C2124 C2126 1.327 . S
C2124 H2149 0.950 . S
C2125 C2124 1.349 . S
C2125 C2141 1.349 . S
C2126 C2124 1.327 . S
C2126 C2145 1.429 . S
C2126 H2150 0.950 . S
C2127 C2144 1.574 . S
C2127 C2146 1.368 . S
C2127 H2151 0.949 . S
H2128 C2132 0.949 . S
C2129 C2130 1.349 . S
C2129 C2131 1.327 . S
C2129 H2152 0.950 . S
C2130 C2129 1.349 . S
C2130 C2142 1.349 . S
C2131 C2129 1.327 . S
C2131 C2147 1.429 . S
C2131 H2153 0.950 . S
C2132 H2128 0.949 . S
C2132 C2140 1.574 . S
C2132 C2148 1.368 . S
H2133 C2141 0.950 . S
H2134 C2139 0.950 . S
H2135 C2140 0.949 . S
H2136 C2142 0.950 . S
H2137 C2143 0.950 . S
H2138 C2144 0.949 . S
C2139 H2134 0.950 . S
C2139 C2141 1.327 . S
C2139 C2145 1.429 . S
C2140 C2132 1.574 . S
C2140 H2135 0.949 . S
C2140 C2146 1.368 . S
C2141 C2125 1.349 . S
C2141 H2133 0.950 . S
C2141 C2139 1.327 . S
C2142 C2130 1.349 . S
C2142 H2136 0.950 . S
C2142 C2143 1.327 . S
C2143 H2137 0.950 . S
C2143 C2142 1.327 . S
C2143 C2147 1.429 . S
C2144 C2127 1.574 . S
C2144 H2138 0.949 . S
C2144 C2148 1.368 . S
C2145 C2126 1.429 . S
C2145 C2139 1.429 . S
C2145 C2146 1.523 . S
C2146 C2127 1.368 . S
C2146 C2140 1.368 . S
C2146 C2145 1.523 . S
C2147 C2131 1.429 . S
C2147 C2143 1.429 . S
C2147 C2148 1.523 . S
C2148 C2132 1.368 . S
C2148 C2144 1.368 . S
C2148 C2147 1.523 . S
H2149 C2124 0.950 . S
H2150 C2126 0.950 . S
H2151 C2127 0.949 . S
H2152 C2129 0.950 . S
H2153 C2131 0.950 . S
C2154 C2155 1.349 . S
C2154 C2156 1.327 . S
C2154 H2179 0.950 . S
C2155 C2154 1.349 . S
C2155 C2171 1.349 . S
C2156 C2154 1.327 . S
C2156 C2175 1.429 . S
C2156 H2180 0.950 . S
C2157 C2174 1.574 . S
C2157 C2176 1.368 . S
C2157 H2181 0.949 . S
H2158 C2162 0.949 . S
C2159 C2160 1.349 . S
C2159 C2161 1.327 . S
C2159 H2182 0.950 . S
C2160 C2159 1.349 . S
C2160 C2172 1.349 . S
C2161 C2159 1.327 . S
C2161 C2177 1.429 . S
C2161 H2183 0.950 . S
C2162 H2158 0.949 . S
C2162 C2170 1.574 . S
C2162 C2178 1.368 . S
H2163 C2171 0.950 . S
H2164 C2169 0.950 . S
H2165 C2170 0.949 . S
H2166 C2172 0.950 . S
H2167 C2173 0.950 . S
H2168 C2174 0.949 . S
C2169 H2164 0.950 . S
C2169 C2171 1.327 . S
C2169 C2175 1.429 . S
C2170 C2162 1.574 . S
C2170 H2165 0.949 . S
C2170 C2176 1.368 . S
C2171 C2155 1.349 . S
C2171 H2163 0.950 . S
C2171 C2169 1.327 . S
C2172 C2160 1.349 . S
C2172 H2166 0.950 . S
C2172 C2173 1.327 . S
C2173 H2167 0.950 . S
C2173 C2172 1.327 . S
C2173 C2177 1.429 . S
C2174 C2157 1.574 . S
C2174 H2168 0.949 . S
C2174 C2178 1.368 . S
C2175 C2156 1.429 . S
C2175 C2169 1.429 . S
C2175 C2176 1.523 . S
C2176 C2157 1.368 . S
C2176 C2170 1.368 . S
C2176 C2175 1.523 . S
C2177 C2161 1.429 . S
C2177 C2173 1.429 . S
C2177 C2178 1.523 . S
C2178 C2162 1.368 . S
C2178 C2174 1.368 . S
C2178 C2177 1.523 . S
H2179 C2154 0.950 . S
H2180 C2156 0.950 . S
H2181 C2157 0.949 . S
H2182 C2159 0.950 . S
H2183 C2161 0.950 . S
C2184 C2185 1.349 . S
C2184 C2186 1.327 . S
C2184 H2209 0.950 . S
C2185 C2184 1.349 . S
C2185 C2201 1.349 . S
C2186 C2184 1.327 . S
C2186 C2205 1.429 . S
C2186 H2210 0.950 . S
C2187 C2204 1.574 . S
C2187 C2206 1.368 . S
C2187 H2211 0.949 . S
H2188 C2192 0.949 . S
C2189 C2190 1.349 . S
C2189 C2191 1.327 . S
C2189 H2212 0.950 . S
C2190 C2189 1.349 . S
C2190 C2202 1.349 . S
C2191 C2189 1.327 . S
C2191 C2207 1.429 . S
C2191 H2213 0.950 . S
C2192 H2188 0.949 . S
C2192 C2200 1.574 . S
C2192 C2208 1.368 . S
H2193 C2201 0.950 . S
H2194 C2199 0.950 . S
H2195 C2200 0.949 . S
H2196 C2202 0.950 . S
H2197 C2203 0.950 . S
H2198 C2204 0.949 . S
C2199 H2194 0.950 . S
C2199 C2201 1.327 . S
C2199 C2205 1.429 . S
C2200 C2192 1.574 . S
C2200 H2195 0.949 . S
C2200 C2206 1.368 . S
C2201 C2185 1.349 . S
C2201 H2193 0.950 . S
C2201 C2199 1.327 . S
C2202 C2190 1.349 . S
C2202 H2196 0.950 . S
C2202 C2203 1.327 . S
C2203 H2197 0.950 . S
C2203 C2202 1.327 . S
C2203 C2207 1.429 . S
C2204 C2187 1.574 . S
C2204 H2198 0.949 . S
C2204 C2208 1.368 . S
C2205 C2186 1.429 . S
C2205 C2199 1.429 . S
C2205 C2206 1.523 . S
C2206 C2187 1.368 . S
C2206 C2200 1.368 . S
C2206 C2205 1.523 . S
C2207 C2191 1.429 . S
C2207 C2203 1.429 . S
C2207 C2208 1.523 . S
C2208 C2192 1.368 . S
C2208 C2204 1.368 . S
C2208 C2207 1.523 . S
H2209 C2184 0.950 . S
H2210 C2186 0.950 . S
H2211 C2187 0.949 . S
H2212 C2189 0.950 . S
H2213 C2191 0.950 . S
C2214 C2215 1.349 . S
C2214 C2216 1.327 . S
C2214 H2239 0.950 . S
C2215 C2214 1.349 . S
C2215 C2231 1.349 . S
C2216 C2214 1.327 . S
C2216 C2235 1.429 . S
C2216 H2240 0.950 . S
C2217 C2234 1.574 . S
C2217 C2236 1.368 . S
C2217 H2241 0.949 . S
H2218 C2222 0.949 . S
C2219 C2220 1.349 . S
C2219 C2221 1.327 . S
C2219 H2242 0.950 . S
C2220 C2219 1.349 . S
C2220 C2232 1.349 . S
C2221 C2219 1.327 . S
C2221 C2237 1.429 . S
C2221 H2243 0.950 . S
C2222 H2218 0.949 . S
C2222 C2230 1.574 . S
C2222 C2238 1.368 . S
H2223 C2231 0.950 . S
H2224 C2229 0.950 . S
H2225 C2230 0.949 . S
H2226 C2232 0.950 . S
H2227 C2233 0.950 . S
H2228 C2234 0.949 . S
C2229 H2224 0.950 . S
C2229 C2231 1.327 . S
C2229 C2235 1.429 . S
C2230 C2222 1.574 . S
C2230 H2225 0.949 . S
C2230 C2236 1.368 . S
C2231 C2215 1.349 . S
C2231 H2223 0.950 . S
C2231 C2229 1.327 . S
C2232 C2220 1.349 . S
C2232 H2226 0.950 . S
C2232 C2233 1.327 . S
C2233 H2227 0.950 . S
C2233 C2232 1.327 . S
C2233 C2237 1.429 . S
C2234 C2217 1.574 . S
C2234 H2228 0.949 . S
C2234 C2238 1.368 . S
C2235 C2216 1.429 . S
C2235 C2229 1.429 . S
C2235 C2236 1.523 . S
C2236 C2217 1.368 . S
C2236 C2230 1.368 . S
C2236 C2235 1.523 . S
C2237 C2221 1.429 . S
C2237 C2233 1.429 . S
C2237 C2238 1.523 . S
C2238 C2222 1.368 . S
C2238 C2234 1.368 . S
C2238 C2237 1.523 . S
H2239 C2214 0.950 . S
H2240 C2216 0.950 . S
H2241 C2217 0.949 . S
H2242 C2219 0.950 . S
H2243 C2221 0.950 . S
C2244 C2245 1.349 . S
C2244 C2246 1.327 . S
C2244 H2269 0.950 . S
C2245 C2244 1.349 . S
C2245 C2261 1.349 . S
C2246 C2244 1.327 . S
C2246 C2265 1.429 . S
C2246 H2270 0.950 . S
C2247 C2264 1.574 . S
C2247 C2266 1.368 . S
C2247 H2271 0.949 . S
H2248 C2252 0.949 . S
C2249 C2250 1.349 . S
C2249 C2251 1.327 . S
C2249 H2272 0.950 . S
C2250 C2249 1.349 . S
C2250 C2262 1.349 . S
C2251 C2249 1.327 . S
C2251 C2267 1.429 . S
C2251 H2273 0.950 . S
C2252 H2248 0.949 . S
C2252 C2260 1.574 . S
C2252 C2268 1.368 . S
H2253 C2261 0.950 . S
H2254 C2259 0.950 . S
H2255 C2260 0.949 . S
H2256 C2262 0.950 . S
H2257 C2263 0.950 . S
H2258 C2264 0.949 . S
C2259 H2254 0.950 . S
C2259 C2261 1.327 . S
C2259 C2265 1.429 . S
C2260 C2252 1.574 . S
C2260 H2255 0.949 . S
C2260 C2266 1.368 . S
C2261 C2245 1.349 . S
C2261 H2253 0.950 . S
C2261 C2259 1.327 . S
C2262 C2250 1.349 . S
C2262 H2256 0.950 . S
C2262 C2263 1.327 . S
C2263 H2257 0.950 . S
C2263 C2262 1.327 . S
C2263 C2267 1.429 . S
C2264 C2247 1.574 . S
C2264 H2258 0.949 . S
C2264 C2268 1.368 . S
C2265 C2246 1.429 . S
C2265 C2259 1.429 . S
C2265 C2266 1.523 . S
C2266 C2247 1.368 . S
C2266 C2260 1.368 . S
C2266 C2265 1.523 . S
C2267 C2251 1.429 . S
C2267 C2263 1.429 . S
C2267 C2268 1.523 . S
C2268 C2252 1.368 . S
C2268 C2264 1.368 . S
C2268 C2267 1.523 . S
H2269 C2244 0.950 . S
H2270 C2246 0.950 . S
H2271 C2247 0.949 . S
H2272 C2249 0.950 . S
H2273 C2251 0.950 . S
C2274 C2275 1.349 . S
C2274 C2276 1.327 . S
C2274 H2299 0.950 . S
C2275 C2274 1.349 . S
C2275 C2291 1.349 . S
C2276 C2274 1.327 . S
C2276 C2295 1.429 . S
C2276 H2300 0.950 . S
C2277 C2294 1.574 . S
C2277 C2296 1.368 . S
C2277 H2301 0.949 . S
H2278 C2282 0.949 . S
C2279 C2280 1.349 . S
C2279 C2281 1.327 . S
C2279 H2302 0.950 . S
C2280 C2279 1.349 . S
C2280 C2292 1.349 . S
C2281 C2279 1.327 . S
C2281 C2297 1.429 . S
C2281 H2303 0.950 . S
C2282 H2278 0.949 . S
C2282 C2290 1.574 . S
C2282 C2298 1.368 . S
H2283 C2291 0.950 . S
H2284 C2289 0.950 . S
H2285 C2290 0.949 . S
H2286 C2292 0.950 . S
H2287 C2293 0.950 . S
H2288 C2294 0.949 . S
C2289 H2284 0.950 . S
C2289 C2291 1.327 . S
C2289 C2295 1.429 . S
C2290 C2282 1.574 . S
C2290 H2285 0.949 . S
C2290 C2296 1.368 . S
C2291 C2275 1.349 . S
C2291 H2283 0.950 . S
C2291 C2289 1.327 . S
C2292 C2280 1.349 . S
C2292 H2286 0.950 . S
C2292 C2293 1.327 . S
C2293 H2287 0.950 . S
C2293 C2292 1.327 . S
C2293 C2297 1.429 . S
C2294 C2277 1.574 . S
C2294 H2288 0.949 . S
C2294 C2298 1.368 . S
C2295 C2276 1.429 . S
C2295 C2289 1.429 . S
C2295 C2296 1.523 . S
C2296 C2277 1.368 . S
C2296 C2290 1.368 . S
C2296 C2295 1.523 . S
C2297 C2281 1.429 . S
C2297 C2293 1.429 . S
C2297 C2298 1.523 . S
C2298 C2282 1.368 . S
C2298 C2294 1.368 . S
C2298 C2297 1.523 . S
H2299 C2274 0.950 . S
H2300 C2276 0.950 . S
H2301 C2277 0.949 . S
H2302 C2279 0.950 . S
H2303 C2281 0.950 . S
C2304 C2305 1.349 . S
C2304 C2306 1.327 . S
C2304 H2329 0.950 . S
C2305 C2304 1.349 . S
C2305 C2321 1.349 . S
C2306 C2304 1.327 . S
C2306 C2325 1.429 . S
C2306 H2330 0.950 . S
C2307 C2324 1.574 . S
C2307 C2326 1.368 . S
C2307 H2331 0.949 . S
H2308 C2312 0.949 . S
C2309 C2310 1.349 . S
C2309 C2311 1.327 . S
C2309 H2332 0.950 . S
C2310 C2309 1.349 . S
C2310 C2322 1.349 . S
C2311 C2309 1.327 . S
C2311 C2327 1.429 . S
C2311 H2333 0.950 . S
C2312 H2308 0.949 . S
C2312 C2320 1.574 . S
C2312 C2328 1.368 . S
H2313 C2321 0.950 . S
H2314 C2319 0.950 . S
H2315 C2320 0.949 . S
H2316 C2322 0.950 1_554 S
H2317 C2323 0.950 . S
H2318 C2324 0.949 . S
C2319 H2314 0.950 . S
C2319 C2321 1.327 . S
C2319 C2325 1.429 . S
C2320 C2312 1.574 . S
C2320 H2315 0.949 . S
C2320 C2326 1.368 . S
C2321 C2305 1.349 . S
C2321 H2313 0.950 . S
C2321 C2319 1.327 . S
C2322 C2310 1.349 . S
C2322 H2316 0.950 1_556 S
C2322 C2323 1.327 . S
C2323 H2317 0.950 . S
C2323 C2322 1.327 . S
C2323 C2327 1.429 . S
C2324 C2307 1.574 . S
C2324 H2318 0.949 . S
C2324 C2328 1.368 . S
C2325 C2306 1.429 . S
C2325 C2319 1.429 . S
C2325 C2326 1.523 . S
C2326 C2307 1.368 . S
C2326 C2320 1.368 . S
C2326 C2325 1.523 . S
C2327 C2311 1.429 . S
C2327 C2323 1.429 . S
C2327 C2328 1.523 . S
C2328 C2312 1.368 . S
C2328 C2324 1.368 . S
C2328 C2327 1.523 . S
H2329 C2304 0.950 . S
H2330 C2306 0.950 . S
H2331 C2307 0.949 . S
H2332 C2309 0.950 . S
H2333 C2311 0.950 . S
C2334 C2335 1.349 . S
C2334 C2336 1.327 . S
C2334 H2359 0.950 1_556 S
C2335 C2334 1.349 . S
C2335 C2351 1.349 . S
C2336 C2334 1.327 . S
C2336 C2355 1.429 . S
C2336 H2360 0.950 . S
C2337 C2354 1.574 . S
C2337 C2356 1.368 . S
C2337 H2361 0.949 . S
H2338 C2342 0.949 . S
C2339 C2340 1.349 . S
C2339 C2341 1.327 . S
C2339 H2362 0.950 . S
C2340 C2339 1.349 . S
C2340 C2352 1.349 . S
C2341 C2339 1.327 . S
C2341 C2357 1.429 . S
C2341 H2363 0.950 . S
C2342 H2338 0.949 . S
C2342 C2350 1.574 . S
C2342 C2358 1.368 . S
H2343 C2351 0.950 . S
H2344 C2349 0.950 . S
H2345 C2350 0.949 . S
H2346 C2352 0.950 . S
H2347 C2353 0.950 . S
H2348 C2354 0.949 . S
C2349 H2344 0.950 . S
C2349 C2351 1.327 . S
C2349 C2355 1.429 . S
C2350 C2342 1.574 . S
C2350 H2345 0.949 . S
C2350 C2356 1.368 . S
C2351 C2335 1.349 . S
C2351 H2343 0.950 . S
C2351 C2349 1.327 . S
C2352 C2340 1.349 . S
C2352 H2346 0.950 . S
C2352 C2353 1.327 . S
C2353 H2347 0.950 . S
C2353 C2352 1.327 . S
C2353 C2357 1.429 . S
C2354 C2337 1.574 . S
C2354 H2348 0.949 . S
C2354 C2358 1.368 . S
C2355 C2336 1.429 . S
C2355 C2349 1.429 . S
C2355 C2356 1.523 . S
C2356 C2337 1.368 . S
C2356 C2350 1.368 . S
C2356 C2355 1.523 . S
C2357 C2341 1.429 . S
C2357 C2353 1.429 . S
C2357 C2358 1.523 . S
C2358 C2342 1.368 . S
C2358 C2354 1.368 . S
C2358 C2357 1.523 . S
H2359 C2334 0.950 1_554 S
H2360 C2336 0.950 . S
H2361 C2337 0.949 . S
H2362 C2339 0.950 . S
H2363 C2341 0.950 . S
C2364 C2365 1.349 . S
C2364 C2366 1.327 . S
C2364 H2389 0.950 1_556 S
C2365 C2364 1.349 . S
C2365 C2381 1.349 . S
C2366 C2364 1.327 . S
C2366 C2385 1.429 . S
C2366 H2390 0.950 . S
C2367 C2384 1.574 . S
C2367 C2386 1.368 . S
C2367 H2391 0.949 . S
H2368 C2372 0.949 . S
C2369 C2370 1.349 . S
C2369 C2371 1.327 . S
C2369 H2392 0.950 . S
C2370 C2369 1.349 . S
C2370 C2382 1.349 . S
C2371 C2369 1.327 . S
C2371 C2387 1.429 . S
C2371 H2393 0.950 . S
C2372 H2368 0.949 . S
C2372 C2380 1.574 . S
C2372 C2388 1.368 . S
H2373 C2381 0.950 . S
H2374 C2379 0.950 . S
H2375 C2380 0.949 . S
H2376 C2382 0.950 . S
H2377 C2383 0.950 . S
H2378 C2384 0.949 . S
C2379 H2374 0.950 . S
C2379 C2381 1.327 . S
C2379 C2385 1.429 . S
C2380 C2372 1.574 . S
C2380 H2375 0.949 . S
C2380 C2386 1.368 . S
C2381 C2365 1.349 . S
C2381 H2373 0.950 . S
C2381 C2379 1.327 . S
C2382 C2370 1.349 . S
C2382 H2376 0.950 . S
C2382 C2383 1.327 . S
C2383 H2377 0.950 . S
C2383 C2382 1.327 . S
C2383 C2387 1.429 . S
C2384 C2367 1.574 . S
C2384 H2378 0.949 . S
C2384 C2388 1.368 . S
C2385 C2366 1.429 . S
C2385 C2379 1.429 . S
C2385 C2386 1.523 . S
C2386 C2367 1.368 . S
C2386 C2380 1.368 . S
C2386 C2385 1.523 . S
C2387 C2371 1.429 . S
C2387 C2383 1.429 . S
C2387 C2388 1.523 . S
C2388 C2372 1.368 . S
C2388 C2384 1.368 . S
C2388 C2387 1.523 . S
H2389 C2364 0.950 1_554 S
H2390 C2366 0.950 . S
H2391 C2367 0.949 . S
H2392 C2369 0.950 . S
H2393 C2371 0.950 . S
C2394 C2395 1.349 . S
C2394 C2396 1.327 . S
C2394 H2419 0.950 . S
C2395 C2394 1.349 . S
C2395 C2411 1.349 . S
C2396 C2394 1.327 . S
C2396 C2415 1.429 . S
C2396 H2420 0.950 . S
C2397 C2414 1.574 . S
C2397 C2416 1.368 . S
C2397 H2421 0.949 . S
H2398 C2402 0.949 . S
C2399 C2400 1.349 . S
C2399 C2401 1.327 . S
C2399 H2422 0.950 1_554 S
C2400 C2399 1.349 . S
C2400 C2412 1.349 . S
C2401 C2399 1.327 . S
C2401 C2417 1.429 . S
C2401 H2423 0.950 . S
C2402 H2398 0.949 . S
C2402 C2410 1.574 . S
C2402 C2418 1.368 . S
H2403 C2411 0.950 . S
H2404 C2409 0.950 . S
H2405 C2410 0.949 . S
H2406 C2412 0.950 . S
H2407 C2413 0.950 . S
H2408 C2414 0.949 . S
C2409 H2404 0.950 . S
C2409 C2411 1.327 . S
C2409 C2415 1.429 . S
C2410 C2402 1.574 . S
C2410 H2405 0.949 . S
C2410 C2416 1.368 . S
C2411 C2395 1.349 . S
C2411 H2403 0.950 . S
C2411 C2409 1.327 . S
C2412 C2400 1.349 . S
C2412 H2406 0.950 . S
C2412 C2413 1.327 . S
C2413 H2407 0.950 . S
C2413 C2412 1.327 . S
C2413 C2417 1.429 . S
C2414 C2397 1.574 . S
C2414 H2408 0.949 . S
C2414 C2418 1.368 . S
C2415 C2396 1.429 . S
C2415 C2409 1.429 . S
C2415 C2416 1.523 . S
C2416 C2397 1.368 . S
C2416 C2410 1.368 . S
C2416 C2415 1.523 . S
C2417 C2401 1.429 . S
C2417 C2413 1.429 . S
C2417 C2418 1.523 . S
C2418 C2402 1.368 . S
C2418 C2414 1.368 . S
C2418 C2417 1.523 . S
H2419 C2394 0.950 . S
H2420 C2396 0.950 . S
H2421 C2397 0.949 . S
H2422 C2399 0.950 1_556 S
H2423 C2401 0.950 . S
C2424 C2425 1.349 . S
C2424 C2426 1.327 . S
C2424 H2449 0.950 1_554 S
C2425 C2424 1.349 . S
C2425 C2441 1.349 . S
C2426 C2424 1.327 . S
C2426 C2445 1.429 . S
C2426 H2450 0.950 . S
C2427 C2444 1.574 . S
C2427 C2446 1.368 . S
C2427 H2451 0.949 . S
H2428 C2432 0.949 . S
C2429 C2430 1.349 . S
C2429 C2431 1.327 . S
C2429 H2452 0.950 . S
C2430 C2429 1.349 . S
C2430 C2442 1.349 . S
C2431 C2429 1.327 . S
C2431 C2447 1.429 . S
C2431 H2453 0.950 . S
C2432 H2428 0.949 . S
C2432 C2440 1.574 . S
C2432 C2448 1.368 . S
H2433 C2441 0.950 . S
H2434 C2439 0.950 . S
H2435 C2440 0.949 . S
H2436 C2442 0.950 . S
H2437 C2443 0.950 . S
H2438 C2444 0.949 . S
C2439 H2434 0.950 . S
C2439 C2441 1.327 . S
C2439 C2445 1.429 . S
C2440 C2432 1.574 . S
C2440 H2435 0.949 . S
C2440 C2446 1.368 . S
C2441 C2425 1.349 . S
C2441 H2433 0.950 . S
C2441 C2439 1.327 . S
C2442 C2430 1.349 . S
C2442 H2436 0.950 . S
C2442 C2443 1.327 . S
C2443 H2437 0.950 . S
C2443 C2442 1.327 . S
C2443 C2447 1.429 . S
C2444 C2427 1.574 . S
C2444 H2438 0.949 . S
C2444 C2448 1.368 . S
C2445 C2426 1.429 . S
C2445 C2439 1.429 . S
C2445 C2446 1.523 . S
C2446 C2427 1.368 . S
C2446 C2440 1.368 . S
C2446 C2445 1.523 . S
C2447 C2431 1.429 . S
C2447 C2443 1.429 . S
C2447 C2448 1.523 . S
C2448 C2432 1.368 . S
C2448 C2444 1.368 . S
C2448 C2447 1.523 . S
H2449 C2424 0.950 1_556 S
H2450 C2426 0.950 . S
H2451 C2427 0.949 . S
H2452 C2429 0.950 . S
H2453 C2431 0.950 . S
C2454 C2455 1.349 . S
C2454 C2456 1.327 . S
C2454 H2479 0.950 . S
C2455 C2454 1.349 . S
C2455 C2471 1.349 . S
C2456 C2454 1.327 . S
C2456 C2475 1.429 . S
C2456 H2480 0.950 . S
C2457 C2474 1.574 . S
C2457 C2476 1.368 . S
C2457 H2481 0.949 . S
H2458 C2462 0.949 . S
C2459 C2460 1.349 . S
C2459 C2461 1.327 . S
C2459 H2482 0.950 . S
C2460 C2459 1.349 . S
C2460 C2472 1.349 . S
C2461 C2459 1.327 . S
C2461 C2477 1.429 . S
C2461 H2483 0.950 . S
C2462 H2458 0.949 . S
C2462 C2470 1.574 . S
C2462 C2478 1.368 . S
H2463 C2471 0.950 1_556 S
H2464 C2469 0.950 . S
H2465 C2470 0.949 . S
H2466 C2472 0.950 . S
H2467 C2473 0.950 . S
H2468 C2474 0.949 . S
C2469 H2464 0.950 . S
C2469 C2471 1.327 . S
C2469 C2475 1.429 . S
C2470 C2462 1.574 . S
C2470 H2465 0.949 . S
C2470 C2476 1.368 . S
C2471 C2455 1.349 . S
C2471 H2463 0.950 1_554 S
C2471 C2469 1.327 . S
C2472 C2460 1.349 . S
C2472 H2466 0.950 . S
C2472 C2473 1.327 . S
C2473 H2467 0.950 . S
C2473 C2472 1.327 . S
C2473 C2477 1.429 . S
C2474 C2457 1.574 . S
C2474 H2468 0.949 . S
C2474 C2478 1.368 . S
C2475 C2456 1.429 . S
C2475 C2469 1.429 . S
C2475 C2476 1.523 . S
C2476 C2457 1.368 . S
C2476 C2470 1.368 . S
C2476 C2475 1.523 . S
C2477 C2461 1.429 . S
C2477 C2473 1.429 . S
C2477 C2478 1.523 . S
C2478 C2462 1.368 . S
C2478 C2474 1.368 . S
C2478 C2477 1.523 . S
H2479 C2454 0.950 . S
H2480 C2456 0.950 . S
H2481 C2457 0.949 . S
H2482 C2459 0.950 . S
H2483 C2461 0.950 . S
C2484 C2485 1.349 . S
C2484 C2486 1.327 . S
C2484 H2509 0.950 . S
C2485 C2484 1.349 . S
C2485 C2501 1.349 . S
C2486 C2484 1.327 . S
C2486 C2505 1.429 . S
C2486 H2510 0.950 . S
C2487 C2504 1.574 . S
C2487 C2506 1.368 . S
C2487 H2511 0.949 . S
H2488 C2492 0.949 . S
C2489 C2490 1.349 . S
C2489 C2491 1.327 . S
C2489 H2512 0.950 . S
C2490 C2489 1.349 . S
C2490 C2502 1.349 . S
C2491 C2489 1.327 . S
C2491 C2507 1.429 . S
C2491 H2513 0.950 . S
C2492 H2488 0.949 . S
C2492 C2500 1.574 . S
C2492 C2508 1.368 . S
H2493 C2501 0.950 . S
H2494 C2499 0.950 . S
H2495 C2500 0.949 . S
H2496 C2502 0.950 1_556 S
H2497 C2503 0.950 . S
H2498 C2504 0.949 . S
C2499 H2494 0.950 . S
C2499 C2501 1.327 . S
C2499 C2505 1.429 . S
C2500 C2492 1.574 . S
C2500 H2495 0.949 . S
C2500 C2506 1.368 . S
C2501 C2485 1.349 . S
C2501 H2493 0.950 . S
C2501 C2499 1.327 . S
C2502 C2490 1.349 . S
C2502 H2496 0.950 1_554 S
C2502 C2503 1.327 . S
C2503 H2497 0.950 . S
C2503 C2502 1.327 . S
C2503 C2507 1.429 . S
C2504 C2487 1.574 . S
C2504 H2498 0.949 . S
C2504 C2508 1.368 . S
C2505 C2486 1.429 . S
C2505 C2499 1.429 . S
C2505 C2506 1.523 . S
C2506 C2487 1.368 . S
C2506 C2500 1.368 . S
C2506 C2505 1.523 . S
C2507 C2491 1.429 . S
C2507 C2503 1.429 . S
C2507 C2508 1.523 . S
C2508 C2492 1.368 . S
C2508 C2504 1.368 . S
C2508 C2507 1.523 . S
H2509 C2484 0.950 . S
H2510 C2486 0.950 . S
H2511 C2487 0.949 . S
H2512 C2489 0.950 . S
H2513 C2491 0.950 . S
C2514 C2515 1.349 . S
C2514 C2516 1.327 . S
C2514 H2539 0.950 1_554 S
C2515 C2514 1.349 . S
C2515 C2531 1.349 . S
C2516 C2514 1.327 . S
C2516 C2535 1.429 . S
C2516 H2540 0.950 . S
C2517 C2534 1.574 . S
C2517 C2536 1.368 . S
C2517 H2541 0.949 . S
H2518 C2522 0.949 . S
C2519 C2520 1.349 . S
C2519 C2521 1.327 . S
C2519 H2542 0.950 . S
C2520 C2519 1.349 . S
C2520 C2532 1.349 . S
C2521 C2519 1.327 . S
C2521 C2537 1.429 . S
C2521 H2543 0.950 . S
C2522 H2518 0.949 . S
C2522 C2530 1.574 . S
C2522 C2538 1.368 . S
H2523 C2531 0.950 . S
H2524 C2529 0.950 . S
H2525 C2530 0.949 . S
H2526 C2532 0.950 . S
H2527 C2533 0.950 . S
H2528 C2534 0.949 . S
C2529 H2524 0.950 . S
C2529 C2531 1.327 . S
C2529 C2535 1.429 . S
C2530 C2522 1.574 . S
C2530 H2525 0.949 . S
C2530 C2536 1.368 . S
C2531 C2515 1.349 . S
C2531 H2523 0.950 . S
C2531 C2529 1.327 . S
C2532 C2520 1.349 . S
C2532 H2526 0.950 . S
C2532 C2533 1.327 . S
C2533 H2527 0.950 . S
C2533 C2532 1.327 . S
C2533 C2537 1.429 . S
C2534 C2517 1.574 . S
C2534 H2528 0.949 . S
C2534 C2538 1.368 . S
C2535 C2516 1.429 . S
C2535 C2529 1.429 . S
C2535 C2536 1.523 . S
C2536 C2517 1.368 . S
C2536 C2530 1.368 . S
C2536 C2535 1.523 . S
C2537 C2521 1.429 . S
C2537 C2533 1.429 . S
C2537 C2538 1.523 . S
C2538 C2522 1.368 . S
C2538 C2534 1.368 . S
C2538 C2537 1.523 . S
H2539 C2514 0.950 1_556 S
H2540 C2516 0.950 . S
H2541 C2517 0.949 . S
H2542 C2519 0.950 . S
H2543 C2521 0.950 . S
C2544 C2545 1.349 . S
C2544 C2546 1.327 . S
C2544 H2569 0.950 . S
C2545 C2544 1.349 . S
C2545 C2561 1.349 . S
C2546 C2544 1.327 . S
C2546 C2565 1.429 . S
C2546 H2570 0.950 . S
C2547 C2564 1.574 . S
C2547 C2566 1.368 . S
C2547 H2571 0.949 . S
H2548 C2552 0.949 . S
C2549 C2550 1.349 . S
C2549 C2551 1.327 . S
C2549 H2572 0.950 . S
C2550 C2549 1.349 . S
C2550 C2562 1.349 . S
C2551 C2549 1.327 . S
C2551 C2567 1.429 . S
C2551 H2573 0.950 . S
C2552 H2548 0.949 . S
C2552 C2560 1.574 . S
C2552 C2568 1.368 . S
H2553 C2561 0.950 . S
H2554 C2559 0.950 . S
H2555 C2560 0.949 . S
H2556 C2562 0.950 . S
H2557 C2563 0.950 . S
H2558 C2564 0.949 . S
C2559 H2554 0.950 . S
C2559 C2561 1.327 . S
C2559 C2565 1.429 . S
C2560 C2552 1.574 . S
C2560 H2555 0.949 . S
C2560 C2566 1.368 . S
C2561 C2545 1.349 . S
C2561 H2553 0.950 . S
C2561 C2559 1.327 . S
C2562 C2550 1.349 . S
C2562 H2556 0.950 . S
C2562 C2563 1.327 . S
C2563 H2557 0.950 . S
C2563 C2562 1.327 . S
C2563 C2567 1.429 . S
C2564 C2547 1.574 . S
C2564 H2558 0.949 . S
C2564 C2568 1.368 . S
C2565 C2546 1.429 . S
C2565 C2559 1.429 . S
C2565 C2566 1.523 . S
C2566 C2547 1.368 . S
C2566 C2560 1.368 . S
C2566 C2565 1.523 . S
C2567 C2551 1.429 . S
C2567 C2563 1.429 . S
C2567 C2568 1.523 . S
C2568 C2552 1.368 . S
C2568 C2564 1.368 . S
C2568 C2567 1.523 . S
H2569 C2544 0.950 . S
H2570 C2546 0.950 . S
H2571 C2547 0.949 . S
H2572 C2549 0.950 . S
H2573 C2551 0.950 . S
C2574 C2575 1.349 . S
C2574 C2576 1.327 . S
C2574 H2599 0.950 . S
C2575 C2574 1.349 . S
C2575 C2591 1.349 . S
C2576 C2574 1.327 . S
C2576 C2595 1.429 . S
C2576 H2600 0.950 . S
C2577 C2594 1.574 . S
C2577 C2596 1.368 . S
C2577 H2601 0.949 . S
H2578 C2582 0.949 . S
C2579 C2580 1.349 . S
C2579 C2581 1.327 . S
C2579 H2602 0.950 . S
C2580 C2579 1.349 . S
C2580 C2592 1.349 . S
C2581 C2579 1.327 . S
C2581 C2597 1.429 . S
C2581 H2603 0.950 . S
C2582 H2578 0.949 . S
C2582 C2590 1.574 . S
C2582 C2598 1.368 . S
H2583 C2591 0.950 . S
H2584 C2589 0.950 . S
H2585 C2590 0.949 . S
H2586 C2592 0.950 1_554 S
H2587 C2593 0.950 . S
H2588 C2594 0.949 . S
C2589 H2584 0.950 . S
C2589 C2591 1.327 . S
C2589 C2595 1.429 . S
C2590 C2582 1.574 . S
C2590 H2585 0.949 . S
C2590 C2596 1.368 . S
C2591 C2575 1.349 . S
C2591 H2583 0.950 . S
C2591 C2589 1.327 . S
C2592 C2580 1.349 . S
C2592 H2586 0.950 1_556 S
C2592 C2593 1.327 . S
C2593 H2587 0.950 . S
C2593 C2592 1.327 . S
C2593 C2597 1.429 . S
C2594 C2577 1.574 . S
C2594 H2588 0.949 . S
C2594 C2598 1.368 . S
C2595 C2576 1.429 . S
C2595 C2589 1.429 . S
C2595 C2596 1.523 . S
C2596 C2577 1.368 . S
C2596 C2590 1.368 . S
C2596 C2595 1.523 . S
C2597 C2581 1.429 . S
C2597 C2593 1.429 . S
C2597 C2598 1.523 . S
C2598 C2582 1.368 . S
C2598 C2594 1.368 . S
C2598 C2597 1.523 . S
H2599 C2574 0.950 . S
H2600 C2576 0.950 . S
H2601 C2577 0.949 . S
H2602 C2579 0.950 . S
H2603 C2581 0.950 . S
C2604 C2605 1.349 . S
C2604 C2606 1.327 . S
C2604 H2629 0.950 . S
C2605 C2604 1.349 . S
C2605 C2621 1.349 . S
C2606 C2604 1.327 . S
C2606 C2625 1.429 . S
C2606 H2630 0.950 . S
C2607 C2624 1.574 . S
C2607 C2626 1.368 . S
C2607 H2631 0.949 . S
H2608 C2612 0.949 . S
C2609 C2610 1.349 . S
C2609 C2611 1.327 . S
C2609 H2632 0.950 1_556 S
C2610 C2609 1.349 . S
C2610 C2622 1.349 . S
C2611 C2609 1.327 . S
C2611 C2627 1.429 . S
C2611 H2633 0.950 . S
C2612 H2608 0.949 . S
C2612 C2620 1.574 . S
C2612 C2628 1.368 . S
H2613 C2621 0.950 . S
H2614 C2619 0.950 . S
H2615 C2620 0.949 . S
H2616 C2622 0.950 . S
H2617 C2623 0.950 . S
H2618 C2624 0.949 . S
C2619 H2614 0.950 . S
C2619 C2621 1.327 . S
C2619 C2625 1.429 . S
C2620 C2612 1.574 . S
C2620 H2615 0.949 . S
C2620 C2626 1.368 . S
C2621 C2605 1.349 . S
C2621 H2613 0.950 . S
C2621 C2619 1.327 . S
C2622 C2610 1.349 . S
C2622 H2616 0.950 . S
C2622 C2623 1.327 . S
C2623 H2617 0.950 . S
C2623 C2622 1.327 . S
C2623 C2627 1.429 . S
C2624 C2607 1.574 . S
C2624 H2618 0.949 . S
C2624 C2628 1.368 . S
C2625 C2606 1.429 . S
C2625 C2619 1.429 . S
C2625 C2626 1.523 . S
C2626 C2607 1.368 . S
C2626 C2620 1.368 . S
C2626 C2625 1.523 . S
C2627 C2611 1.429 . S
C2627 C2623 1.429 . S
C2627 C2628 1.523 . S
C2628 C2612 1.368 . S
C2628 C2624 1.368 . S
C2628 C2627 1.523 . S
H2629 C2604 0.950 . S
H2630 C2606 0.950 . S
H2631 C2607 0.949 . S
H2632 C2609 0.950 1_554 S
H2633 C2611 0.950 . S
C2634 C2635 1.349 . S
C2634 C2636 1.327 . S
C2634 H2659 0.950 . S
C2635 C2634 1.349 . S
C2635 C2651 1.349 . S
C2636 C2634 1.327 . S
C2636 C2655 1.429 . S
C2636 H2660 0.950 . S
C2637 C2654 1.574 . S
C2637 C2656 1.368 . S
C2637 H2661 0.949 . S
H2638 C2642 0.949 . S
C2639 C2640 1.349 . S
C2639 C2641 1.327 . S
C2639 H2662 0.950 . S
C2640 C2639 1.349 . S
C2640 C2652 1.349 . S
C2641 C2639 1.327 . S
C2641 C2657 1.429 . S
C2641 H2663 0.950 . S
C2642 H2638 0.949 . S
C2642 C2650 1.574 . S
C2642 C2658 1.368 . S
H2643 C2651 0.950 . S
H2644 C2649 0.950 . S
H2645 C2650 0.949 . S
H2646 C2652 0.950 1_554 S
H2647 C2653 0.950 . S
H2648 C2654 0.949 . S
C2649 H2644 0.950 . S
C2649 C2651 1.327 . S
C2649 C2655 1.429 . S
C2650 C2642 1.574 . S
C2650 H2645 0.949 . S
C2650 C2656 1.368 . S
C2651 C2635 1.349 . S
C2651 H2643 0.950 . S
C2651 C2649 1.327 . S
C2652 C2640 1.349 . S
C2652 H2646 0.950 1_556 S
C2652 C2653 1.327 . S
C2653 H2647 0.950 . S
C2653 C2652 1.327 . S
C2653 C2657 1.429 . S
C2654 C2637 1.574 . S
C2654 H2648 0.949 . S
C2654 C2658 1.368 . S
C2655 C2636 1.429 . S
C2655 C2649 1.429 . S
C2655 C2656 1.523 . S
C2656 C2637 1.368 . S
C2656 C2650 1.368 . S
C2656 C2655 1.523 . S
C2657 C2641 1.429 . S
C2657 C2653 1.429 . S
C2657 C2658 1.523 . S
C2658 C2642 1.368 . S
C2658 C2654 1.368 . S
C2658 C2657 1.523 . S
H2659 C2634 0.950 . S
H2660 C2636 0.950 . S
H2661 C2637 0.949 . S
H2662 C2639 0.950 . S
H2663 C2641 0.950 . S
C2664 C2665 1.349 . S
C2664 C2666 1.327 . S
C2664 H2689 0.950 . S
C2665 C2664 1.349 . S
C2665 C2681 1.349 . S
C2666 C2664 1.327 . S
C2666 C2685 1.429 . S
C2666 H2690 0.950 . S
C2667 C2684 1.574 1_455 S
C2667 C2686 1.368 . S
C2667 H2691 0.949 . S
H2668 C2672 0.949 . S
C2669 C2670 1.349 . S
C2669 C2671 1.327 . S
C2669 H2692 0.950 . S
C2670 C2669 1.349 . S
C2670 C2682 1.349 . S
C2671 C2669 1.327 . S
C2671 C2687 1.429 . S
C2671 H2693 0.950 . S
C2672 H2668 0.949 . S
C2672 C2680 1.574 1_655 S
C2672 C2688 1.368 . S
H2673 C2681 0.950 . S
H2674 C2679 0.950 . S
H2675 C2680 0.949 . S
H2676 C2682 0.950 . S
H2677 C2683 0.950 . S
H2678 C2684 0.949 . S
C2679 H2674 0.950 . S
C2679 C2681 1.327 . S
C2679 C2685 1.429 . S
C2680 C2672 1.574 1_455 S
C2680 H2675 0.949 . S
C2680 C2686 1.368 . S
C2681 C2665 1.349 . S
C2681 H2673 0.950 . S
C2681 C2679 1.327 . S
C2682 C2670 1.349 . S
C2682 H2676 0.950 . S
C2682 C2683 1.327 . S
C2683 H2677 0.950 . S
C2683 C2682 1.327 . S
C2683 C2687 1.429 . S
C2684 C2667 1.574 1_655 S
C2684 H2678 0.949 . S
C2684 C2688 1.368 . S
C2685 C2666 1.429 . S
C2685 C2679 1.429 . S
C2685 C2686 1.523 . S
C2686 C2667 1.368 . S
C2686 C2680 1.368 . S
C2686 C2685 1.523 . S
C2687 C2671 1.429 . S
C2687 C2683 1.429 . S
C2687 C2688 1.523 . S
C2688 C2672 1.368 . S
C2688 C2684 1.368 . S
C2688 C2687 1.523 . S
H2689 C2664 0.950 . S
H2690 C2666 0.950 . S
H2691 C2667 0.949 . S
H2692 C2669 0.950 . S
H2693 C2671 0.950 . S
C2694 C2695 1.349 . S
C2694 C2696 1.327 . S
C2694 H2719 0.950 . S
C2695 C2694 1.349 . S
C2695 C2711 1.349 . S
C2696 C2694 1.327 . S
C2696 C2715 1.429 . S
C2696 H2720 0.950 . S
C2697 C2714 1.574 . S
C2697 C2716 1.368 . S
C2697 H2721 0.949 . S
H2698 C2702 0.949 . S
C2699 C2700 1.349 . S
C2699 C2701 1.327 . S
C2699 H2722 0.950 . S
C2700 C2699 1.349 . S
C2700 C2712 1.349 . S
C2701 C2699 1.327 . S
C2701 C2717 1.429 . S
C2701 H2723 0.950 . S
C2702 H2698 0.949 . S
C2702 C2710 1.574 . S
C2702 C2718 1.368 . S
H2703 C2711 0.950 . S
H2704 C2709 0.950 . S
H2705 C2710 0.949 . S
H2706 C2712 0.950 . S
H2707 C2713 0.950 . S
H2708 C2714 0.949 . S
C2709 H2704 0.950 . S
C2709 C2711 1.327 . S
C2709 C2715 1.429 . S
C2710 C2702 1.574 . S
C2710 H2705 0.949 . S
C2710 C2716 1.368 . S
C2711 C2695 1.349 . S
C2711 H2703 0.950 . S
C2711 C2709 1.327 . S
C2712 C2700 1.349 . S
C2712 H2706 0.950 . S
C2712 C2713 1.327 . S
C2713 H2707 0.950 . S
C2713 C2712 1.327 . S
C2713 C2717 1.429 . S
C2714 C2697 1.574 . S
C2714 H2708 0.949 . S
C2714 C2718 1.368 . S
C2715 C2696 1.429 . S
C2715 C2709 1.429 . S
C2715 C2716 1.523 . S
C2716 C2697 1.368 . S
C2716 C2710 1.368 . S
C2716 C2715 1.523 . S
C2717 C2701 1.429 . S
C2717 C2713 1.429 . S
C2717 C2718 1.523 . S
C2718 C2702 1.368 . S
C2718 C2714 1.368 . S
C2718 C2717 1.523 . S
H2719 C2694 0.950 . S
H2720 C2696 0.950 . S
H2721 C2697 0.949 . S
H2722 C2699 0.950 . S
H2723 C2701 0.950 . S
C2724 C2725 1.349 . S
C2724 C2726 1.327 . S
C2724 H2749 0.950 . S
C2725 C2724 1.349 . S
C2725 C2741 1.349 . S
C2726 C2724 1.327 . S
C2726 C2745 1.429 . S
C2726 H2750 0.950 . S
C2727 C2744 1.597 . S
C2727 C2746 1.347 1_545 S
C2727 H2751 0.949 . S
H2728 C2732 0.949 . S
C2729 C2730 1.349 . S
C2729 C2731 1.327 . S
C2729 H2752 0.950 . S
C2730 C2729 1.349 . S
C2730 C2742 1.349 . S
C2731 C2729 1.327 . S
C2731 C2747 1.429 . S
C2731 H2753 0.950 . S
C2732 H2728 0.949 . S
C2732 C2740 1.597 . S
C2732 C2748 1.348 1_565 S
H2733 C2741 0.950 . S
H2734 C2739 0.950 . S
H2735 C2740 0.949 . S
H2736 C2742 0.950 . S
H2737 C2743 0.950 . S
H2738 C2744 0.949 . S
C2739 H2734 0.950 . S
C2739 C2741 1.327 . S
C2739 C2745 1.429 . S
C2740 C2732 1.597 . S
C2740 H2735 0.949 . S
C2740 C2746 1.368 . S
C2741 C2725 1.349 . S
C2741 H2733 0.950 . S
C2741 C2739 1.327 . S
C2742 C2730 1.349 . S
C2742 H2736 0.950 . S
C2742 C2743 1.327 . S
C2743 H2737 0.950 . S
C2743 C2742 1.327 . S
C2743 C2747 1.429 . S
C2744 C2727 1.597 . S
C2744 H2738 0.949 . S
C2744 C2748 1.368 . S
C2745 C2726 1.429 . S
C2745 C2739 1.429 . S
C2745 C2746 1.523 . S
C2746 C2727 1.347 1_565 S
C2746 C2740 1.368 . S
C2746 C2745 1.523 . S
C2747 C2731 1.429 . S
C2747 C2743 1.429 . S
C2747 C2748 1.523 . S
C2748 C2732 1.348 1_545 S
C2748 C2744 1.368 . S
C2748 C2747 1.523 . S
H2749 C2724 0.950 . S
H2750 C2726 0.950 . S
H2751 C2727 0.949 . S
H2752 C2729 0.950 . S
H2753 C2731 0.950 . S
C2754 C2755 1.349 . S
C2754 C2756 1.327 . S
C2754 H2779 0.950 . S
C2755 C2754 1.349 . S
C2755 C2771 1.349 . S
C2756 C2754 1.327 . S
C2756 C2775 1.429 . S
C2756 H2780 0.950 . S
C2757 C2774 1.577 . S
C2757 C2776 1.364 1_545 S
C2757 H2781 0.951 . S
H2758 C2762 0.951 . S
C2759 C2760 1.349 . S
C2759 C2761 1.327 . S
C2759 H2782 0.950 . S
C2760 C2759 1.349 . S
C2760 C2772 1.349 . S
C2761 C2759 1.327 . S
C2761 C2777 1.429 . S
C2761 H2783 0.950 . S
C2762 H2758 0.951 . S
C2762 C2770 1.578 . S
C2762 C2778 1.364 1_565 S
H2763 C2771 0.950 . S
H2764 C2769 0.950 . S
H2765 C2770 0.949 . S
H2766 C2772 0.950 . S
H2767 C2773 0.950 . S
H2768 C2774 0.949 . S
C2769 H2764 0.950 . S
C2769 C2771 1.327 . S
C2769 C2775 1.429 . S
C2770 C2762 1.578 . S
C2770 H2765 0.949 . S
C2770 C2776 1.368 . S
C2771 C2755 1.349 . S
C2771 H2763 0.950 . S
C2771 C2769 1.327 . S
C2772 C2760 1.349 . S
C2772 H2766 0.950 . S
C2772 C2773 1.327 . S
C2773 H2767 0.950 . S
C2773 C2772 1.327 . S
C2773 C2777 1.429 . S
C2774 C2757 1.577 . S
C2774 H2768 0.949 . S
C2774 C2778 1.368 . S
C2775 C2756 1.429 . S
C2775 C2769 1.429 . S
C2775 C2776 1.523 . S
C2776 C2757 1.364 1_565 S
C2776 C2770 1.368 . S
C2776 C2775 1.523 . S
C2777 C2761 1.429 . S
C2777 C2773 1.429 . S
C2777 C2778 1.523 . S
C2778 C2762 1.364 1_545 S
C2778 C2774 1.368 . S
C2778 C2777 1.523 . S
H2779 C2754 0.950 . S
H2780 C2756 0.950 . S
H2781 C2757 0.951 . S
H2782 C2759 0.950 . S
H2783 C2761 0.950 . S
C2784 C2785 1.349 . S
C2784 C2786 1.327 . S
C2784 H2809 0.950 . S
C2785 C2784 1.349 . S
C2785 C2801 1.349 . S
C2786 C2784 1.327 . S
C2786 C2805 1.429 . S
C2786 H2810 0.950 . S
C2787 C2804 1.601 . S
C2787 C2806 1.368 . S
C2787 H2811 0.949 . S
H2788 C2792 0.949 . S
C2789 C2790 1.349 . S
C2789 C2791 1.327 . S
C2789 H2812 0.950 . S
C2790 C2789 1.349 . S
C2790 C2802 1.349 . S
C2791 C2789 1.327 . S
C2791 C2807 1.429 . S
C2791 H2813 0.950 . S
C2792 H2788 0.949 . S
C2792 C2800 1.601 . S
C2792 C2808 1.368 . S
H2793 C2801 0.950 . S
H2794 C2799 0.950 . S
H2795 C2800 0.949 . S
H2796 C2802 0.950 . S
H2797 C2803 0.950 . S
H2798 C2804 0.949 . S
C2799 H2794 0.950 . S
C2799 C2801 1.327 . S
C2799 C2805 1.429 . S
C2800 C2792 1.601 . S
C2800 H2795 0.949 . S
C2800 C2806 1.340 1_655 S
C2801 C2785 1.349 . S
C2801 H2793 0.950 . S
C2801 C2799 1.327 . S
C2802 C2790 1.349 . S
C2802 H2796 0.950 . S
C2802 C2803 1.327 . S
C2803 H2797 0.950 . S
C2803 C2802 1.327 . S
C2803 C2807 1.429 . S
C2804 C2787 1.601 . S
C2804 H2798 0.949 . S
C2804 C2808 1.340 1_455 S
C2805 C2786 1.429 . S
C2805 C2799 1.429 . S
C2805 C2806 1.523 . S
C2806 C2787 1.368 . S
C2806 C2800 1.340 1_455 S
C2806 C2805 1.523 . S
C2807 C2791 1.429 . S
C2807 C2803 1.429 . S
C2807 C2808 1.523 . S
C2808 C2792 1.368 . S
C2808 C2804 1.340 1_655 S
C2808 C2807 1.523 . S
H2809 C2784 0.950 . S
H2810 C2786 0.950 . S
H2811 C2787 0.949 . S
H2812 C2789 0.950 . S
H2813 C2791 0.950 . S
C2814 C2815 1.349 . S
C2814 C2816 1.327 . S
C2814 H2839 0.950 . S
C2815 C2814 1.349 . S
C2815 C2831 1.349 . S
C2816 C2814 1.327 . S
C2816 C2835 1.429 . S
C2816 H2840 0.950 . S
C2817 C2834 1.574 . S
C2817 C2836 1.368 . S
C2817 H2841 0.949 . S
H2818 C2822 0.949 . S
C2819 C2820 1.349 . S
C2819 C2821 1.327 . S
C2819 H2842 0.950 . S
C2820 C2819 1.349 . S
C2820 C2832 1.349 . S
C2821 C2819 1.327 . S
C2821 C2837 1.429 . S
C2821 H2843 0.950 . S
C2822 H2818 0.949 . S
C2822 C2830 1.574 . S
C2822 C2838 1.368 . S
H2823 C2831 0.950 . S
H2824 C2829 0.950 . S
H2825 C2830 0.949 . S
H2826 C2832 0.950 . S
H2827 C2833 0.950 . S
H2828 C2834 0.949 . S
C2829 H2824 0.950 . S
C2829 C2831 1.327 . S
C2829 C2835 1.429 . S
C2830 C2822 1.574 . S
C2830 H2825 0.949 . S
C2830 C2836 1.368 . S
C2831 C2815 1.349 . S
C2831 H2823 0.950 . S
C2831 C2829 1.327 . S
C2832 C2820 1.349 . S
C2832 H2826 0.950 . S
C2832 C2833 1.327 . S
C2833 H2827 0.950 . S
C2833 C2832 1.327 . S
C2833 C2837 1.429 . S
C2834 C2817 1.574 . S
C2834 H2828 0.949 . S
C2834 C2838 1.368 . S
C2835 C2816 1.429 . S
C2835 C2829 1.429 . S
C2835 C2836 1.523 . S
C2836 C2817 1.368 . S
C2836 C2830 1.368 . S
C2836 C2835 1.523 . S
C2837 C2821 1.429 . S
C2837 C2833 1.429 . S
C2837 C2838 1.523 . S
C2838 C2822 1.368 . S
C2838 C2834 1.368 . S
C2838 C2837 1.523 . S
H2839 C2814 0.950 . S
H2840 C2816 0.950 . S
H2841 C2817 0.949 . S
H2842 C2819 0.950 . S
H2843 C2821 0.950 . S
C2844 C2845 1.349 . S
C2844 C2846 1.327 . S
C2844 H2869 0.950 . S
C2845 C2844 1.349 . S
C2845 C2861 1.349 . S
C2846 C2844 1.327 . S
C2846 C2865 1.429 . S
C2846 H2870 0.950 . S
C2847 C2864 1.574 . S
C2847 C2866 1.368 . S
C2847 H2871 0.949 . S
H2848 C2852 0.949 . S
C2849 C2850 1.349 . S
C2849 C2851 1.327 . S
C2849 H2872 0.950 . S
C2850 C2849 1.349 . S
C2850 C2862 1.349 . S
C2851 C2849 1.327 . S
C2851 C2867 1.429 . S
C2851 H2873 0.950 . S
C2852 H2848 0.949 . S
C2852 C2860 1.574 . S
C2852 C2868 1.368 . S
H2853 C2861 0.950 . S
H2854 C2859 0.950 . S
H2855 C2860 0.949 . S
H2856 C2862 0.950 . S
H2857 C2863 0.950 . S
H2858 C2864 0.949 . S
C2859 H2854 0.950 . S
C2859 C2861 1.327 . S
C2859 C2865 1.429 . S
C2860 C2852 1.574 . S
C2860 H2855 0.949 . S
C2860 C2866 1.368 . S
C2861 C2845 1.349 . S
C2861 H2853 0.950 . S
C2861 C2859 1.327 . S
C2862 C2850 1.349 . S
C2862 H2856 0.950 . S
C2862 C2863 1.327 . S
C2863 H2857 0.950 . S
C2863 C2862 1.327 . S
C2863 C2867 1.429 . S
C2864 C2847 1.574 . S
C2864 H2858 0.949 . S
C2864 C2868 1.368 . S
C2865 C2846 1.429 . S
C2865 C2859 1.429 . S
C2865 C2866 1.523 . S
C2866 C2847 1.368 . S
C2866 C2860 1.368 . S
C2866 C2865 1.523 . S
C2867 C2851 1.429 . S
C2867 C2863 1.429 . S
C2867 C2868 1.523 . S
C2868 C2852 1.368 . S
C2868 C2864 1.368 . S
C2868 C2867 1.523 . S
H2869 C2844 0.950 . S
H2870 C2846 0.950 . S
H2871 C2847 0.949 . S
H2872 C2849 0.950 . S
H2873 C2851 0.950 . S
C2874 C2875 1.349 . S
C2874 C2876 1.327 . S
C2874 H2899 0.950 . S
C2875 C2874 1.349 . S
C2875 C2891 1.349 . S
C2876 C2874 1.327 . S
C2876 C2895 1.429 . S
C2876 H2900 0.950 . S
C2877 C2894 1.574 . S
C2877 C2896 1.368 . S
C2877 H2901 0.949 . S
H2878 C2882 0.949 . S
C2879 C2880 1.349 . S
C2879 C2881 1.327 . S
C2879 H2902 0.950 . S
C2880 C2879 1.349 . S
C2880 C2892 1.349 . S
C2881 C2879 1.327 . S
C2881 C2897 1.429 . S
C2881 H2903 0.950 . S
C2882 H2878 0.949 . S
C2882 C2890 1.574 . S
C2882 C2898 1.368 . S
H2883 C2891 0.950 . S
H2884 C2889 0.950 . S
H2885 C2890 0.949 . S
H2886 C2892 0.950 . S
H2887 C2893 0.950 . S
H2888 C2894 0.949 . S
C2889 H2884 0.950 . S
C2889 C2891 1.327 . S
C2889 C2895 1.429 . S
C2890 C2882 1.574 . S
C2890 H2885 0.949 . S
C2890 C2896 1.368 . S
C2891 C2875 1.349 . S
C2891 H2883 0.950 . S
C2891 C2889 1.327 . S
C2892 C2880 1.349 . S
C2892 H2886 0.950 . S
C2892 C2893 1.327 . S
C2893 H2887 0.950 . S
C2893 C2892 1.327 . S
C2893 C2897 1.429 . S
C2894 C2877 1.574 . S
C2894 H2888 0.949 . S
C2894 C2898 1.368 . S
C2895 C2876 1.429 . S
C2895 C2889 1.429 . S
C2895 C2896 1.523 . S
C2896 C2877 1.368 . S
C2896 C2890 1.368 . S
C2896 C2895 1.523 . S
C2897 C2881 1.429 . S
C2897 C2893 1.429 . S
C2897 C2898 1.523 . S
C2898 C2882 1.368 . S
C2898 C2894 1.368 . S
C2898 C2897 1.523 . S
H2899 C2874 0.950 . S
H2900 C2876 0.950 . S
H2901 C2877 0.949 . S
H2902 C2879 0.950 . S
H2903 C2881 0.950 . S
C2904 C2905 1.349 . S
C2904 C2906 1.327 . S
C2904 H2929 0.950 . S
C2905 C2904 1.349 . S
C2905 C2921 1.349 . S
C2906 C2904 1.327 . S
C2906 C2925 1.429 . S
C2906 H2930 0.950 . S
C2907 C2924 1.574 . S
C2907 C2926 1.368 . S
C2907 H2931 0.949 . S
H2908 C2912 0.949 . S
C2909 C2910 1.349 . S
C2909 C2911 1.327 . S
C2909 H2932 0.950 . S
C2910 C2909 1.349 . S
C2910 C2922 1.349 . S
C2911 C2909 1.327 . S
C2911 C2927 1.429 . S
C2911 H2933 0.950 . S
C2912 H2908 0.949 . S
C2912 C2920 1.574 . S
C2912 C2928 1.368 . S
H2913 C2921 0.950 . S
H2914 C2919 0.950 . S
H2915 C2920 0.949 . S
H2916 C2922 0.950 . S
H2917 C2923 0.950 . S
H2918 C2924 0.949 . S
C2919 H2914 0.950 . S
C2919 C2921 1.327 . S
C2919 C2925 1.429 . S
C2920 C2912 1.574 . S
C2920 H2915 0.949 . S
C2920 C2926 1.368 . S
C2921 C2905 1.349 . S
C2921 H2913 0.950 . S
C2921 C2919 1.327 . S
C2922 C2910 1.349 . S
C2922 H2916 0.950 . S
C2922 C2923 1.327 . S
C2923 H2917 0.950 . S
C2923 C2922 1.327 . S
C2923 C2927 1.429 . S
C2924 C2907 1.574 . S
C2924 H2918 0.949 . S
C2924 C2928 1.368 . S
C2925 C2906 1.429 . S
C2925 C2919 1.429 . S
C2925 C2926 1.523 . S
C2926 C2907 1.368 . S
C2926 C2920 1.368 . S
C2926 C2925 1.523 . S
C2927 C2911 1.429 . S
C2927 C2923 1.429 . S
C2927 C2928 1.523 . S
C2928 C2912 1.368 . S
C2928 C2924 1.368 . S
C2928 C2927 1.523 . S
H2929 C2904 0.950 . S
H2930 C2906 0.950 . S
H2931 C2907 0.949 . S
H2932 C2909 0.950 . S
H2933 C2911 0.950 . S
C2934 C2935 1.349 . S
C2934 C2936 1.327 . S
C2934 H2959 0.950 . S
C2935 C2934 1.349 . S
C2935 C2951 1.349 . S
C2936 C2934 1.327 . S
C2936 C2955 1.429 . S
C2936 H2960 0.950 . S
C2937 C2954 1.574 . S
C2937 C2956 1.368 . S
C2937 H2961 0.949 . S
H2938 C2942 0.949 . S
C2939 C2940 1.349 . S
C2939 C2941 1.327 . S
C2939 H2962 0.950 . S
C2940 C2939 1.349 . S
C2940 C2952 1.349 . S
C2941 C2939 1.327 . S
C2941 C2957 1.429 . S
C2941 H2963 0.950 . S
C2942 H2938 0.949 . S
C2942 C2950 1.574 . S
C2942 C2958 1.368 . S
H2943 C2951 0.950 . S
H2944 C2949 0.950 . S
H2945 C2950 0.949 . S
H2946 C2952 0.950 . S
H2947 C2953 0.950 . S
H2948 C2954 0.949 . S
C2949 H2944 0.950 . S
C2949 C2951 1.327 . S
C2949 C2955 1.429 . S
C2950 C2942 1.574 . S
C2950 H2945 0.949 . S
C2950 C2956 1.368 . S
C2951 C2935 1.349 . S
C2951 H2943 0.950 . S
C2951 C2949 1.327 . S
C2952 C2940 1.349 . S
C2952 H2946 0.950 . S
C2952 C2953 1.327 . S
C2953 H2947 0.950 . S
C2953 C2952 1.327 . S
C2953 C2957 1.429 . S
C2954 C2937 1.574 . S
C2954 H2948 0.949 . S
C2954 C2958 1.368 . S
C2955 C2936 1.429 . S
C2955 C2949 1.429 . S
C2955 C2956 1.523 . S
C2956 C2937 1.368 . S
C2956 C2950 1.368 . S
C2956 C2955 1.523 . S
C2957 C2941 1.429 . S
C2957 C2953 1.429 . S
C2957 C2958 1.523 . S
C2958 C2942 1.368 . S
C2958 C2954 1.368 . S
C2958 C2957 1.523 . S
H2959 C2934 0.950 . S
H2960 C2936 0.950 . S
H2961 C2937 0.949 . S
H2962 C2939 0.950 . S
H2963 C2941 0.950 . S
C2964 C2965 1.349 . S
C2964 C2966 1.327 . S
C2964 H2989 0.950 . S
C2965 C2964 1.349 . S
C2965 C2981 1.349 . S
C2966 C2964 1.327 . S
C2966 C2985 1.429 . S
C2966 H2990 0.950 . S
C2967 C2984 1.574 . S
C2967 C2986 1.368 . S
C2967 H2991 0.949 . S
H2968 C2972 0.949 . S
C2969 C2970 1.349 . S
C2969 C2971 1.327 . S
C2969 H2992 0.950 . S
C2970 C2969 1.349 . S
C2970 C2982 1.349 . S
C2971 C2969 1.327 . S
C2971 C2987 1.429 . S
C2971 H2993 0.950 . S
C2972 H2968 0.949 . S
C2972 C2980 1.574 . S
C2972 C2988 1.368 . S
H2973 C2981 0.950 . S
H2974 C2979 0.950 . S
H2975 C2980 0.949 . S
H2976 C2982 0.950 . S
H2977 C2983 0.950 . S
H2978 C2984 0.949 . S
C2979 H2974 0.950 . S
C2979 C2981 1.327 . S
C2979 C2985 1.429 . S
C2980 C2972 1.574 . S
C2980 H2975 0.949 . S
C2980 C2986 1.368 . S
C2981 C2965 1.349 . S
C2981 H2973 0.950 . S
C2981 C2979 1.327 . S
C2982 C2970 1.349 . S
C2982 H2976 0.950 . S
C2982 C2983 1.327 . S
C2983 H2977 0.950 . S
C2983 C2982 1.327 . S
C2983 C2987 1.429 . S
C2984 C2967 1.574 . S
C2984 H2978 0.949 . S
C2984 C2988 1.368 . S
C2985 C2966 1.429 . S
C2985 C2979 1.429 . S
C2985 C2986 1.523 . S
C2986 C2967 1.368 . S
C2986 C2980 1.368 . S
C2986 C2985 1.523 . S
C2987 C2971 1.429 . S
C2987 C2983 1.429 . S
C2987 C2988 1.523 . S
C2988 C2972 1.368 . S
C2988 C2984 1.368 . S
C2988 C2987 1.523 . S
H2989 C2964 0.950 . S
H2990 C2966 0.950 . S
H2991 C2967 0.949 . S
H2992 C2969 0.950 . S
H2993 C2971 0.950 . S
C2994 C2995 1.349 . S
C2994 C2996 1.327 . S
C2994 H3019 0.950 . S
C2995 C2994 1.349 . S
C2995 C3011 1.349 . S
C2996 C2994 1.327 . S
C2996 C3015 1.429 . S
C2996 H3020 0.950 . S
C2997 C3014 1.574 . S
C2997 C3016 1.368 . S
C2997 H3021 0.949 . S
H2998 C3002 0.949 . S
C2999 C3000 1.349 . S
C2999 C3001 1.327 . S
C2999 H3022 0.950 . S
C3000 C2999 1.349 . S
C3000 C3012 1.349 . S
C3001 C2999 1.327 . S
C3001 C3017 1.429 . S
C3001 H3023 0.950 . S
C3002 H2998 0.949 . S
C3002 C3010 1.574 . S
C3002 C3018 1.368 . S
H3003 C3011 0.950 . S
H3004 C3009 0.950 . S
H3005 C3010 0.949 . S
H3006 C3012 0.950 . S
H3007 C3013 0.950 . S
H3008 C3014 0.949 . S
C3009 H3004 0.950 . S
C3009 C3011 1.327 . S
C3009 C3015 1.429 . S
C3010 C3002 1.574 . S
C3010 H3005 0.949 . S
C3010 C3016 1.368 . S
C3011 C2995 1.349 . S
C3011 H3003 0.950 . S
C3011 C3009 1.327 . S
C3012 C3000 1.349 . S
C3012 H3006 0.950 . S
C3012 C3013 1.327 . S
C3013 H3007 0.950 . S
C3013 C3012 1.327 . S
C3013 C3017 1.429 . S
C3014 C2997 1.574 . S
C3014 H3008 0.949 . S
C3014 C3018 1.368 . S
C3015 C2996 1.429 . S
C3015 C3009 1.429 . S
C3015 C3016 1.523 . S
C3016 C2997 1.368 . S
C3016 C3010 1.368 . S
C3016 C3015 1.523 . S
C3017 C3001 1.429 . S
C3017 C3013 1.429 . S
C3017 C3018 1.523 . S
C3018 C3002 1.368 . S
C3018 C3014 1.368 . S
C3018 C3017 1.523 . S
H3019 C2994 0.950 . S
H3020 C2996 0.950 . S
H3021 C2997 0.949 . S
H3022 C2999 0.950 . S
H3023 C3001 0.950 . S
C3024 C3025 1.349 . S
C3024 C3026 1.327 . S
C3024 H3049 0.950 . S
C3025 C3024 1.349 . S
C3025 C3041 1.349 . S
C3026 C3024 1.327 . S
C3026 C3045 1.429 . S
C3026 H3050 0.950 . S
C3027 C3044 1.574 . S
C3027 C3046 1.368 . S
C3027 H3051 0.949 . S
H3028 C3032 0.949 . S
C3029 C3030 1.349 . S
C3029 C3031 1.327 . S
C3029 H3052 0.950 . S
C3030 C3029 1.349 . S
C3030 C3042 1.349 . S
C3031 C3029 1.327 . S
C3031 C3047 1.429 . S
C3031 H3053 0.950 . S
C3032 H3028 0.949 . S
C3032 C3040 1.574 . S
C3032 C3048 1.368 . S
H3033 C3041 0.950 . S
H3034 C3039 0.950 . S
H3035 C3040 0.949 . S
H3036 C3042 0.950 . S
H3037 C3043 0.950 . S
H3038 C3044 0.949 . S
C3039 H3034 0.950 . S
C3039 C3041 1.327 . S
C3039 C3045 1.429 . S
C3040 C3032 1.574 . S
C3040 H3035 0.949 . S
C3040 C3046 1.368 . S
C3041 C3025 1.349 . S
C3041 H3033 0.950 . S
C3041 C3039 1.327 . S
C3042 C3030 1.349 . S
C3042 H3036 0.950 . S
C3042 C3043 1.327 . S
C3043 H3037 0.950 . S
C3043 C3042 1.327 . S
C3043 C3047 1.429 . S
C3044 C3027 1.574 . S
C3044 H3038 0.949 . S
C3044 C3048 1.368 . S
C3045 C3026 1.429 . S
C3045 C3039 1.429 . S
C3045 C3046 1.523 . S
C3046 C3027 1.368 . S
C3046 C3040 1.368 . S
C3046 C3045 1.523 . S
C3047 C3031 1.429 . S
C3047 C3043 1.429 . S
C3047 C3048 1.523 . S
C3048 C3032 1.368 . S
C3048 C3044 1.368 . S
C3048 C3047 1.523 . S
H3049 C3024 0.950 . S
H3050 C3026 0.950 . S
H3051 C3027 0.949 . S
H3052 C3029 0.950 . S
H3053 C3031 0.950 . S
C3054 C3055 1.349 . S
C3054 C3056 1.327 . S
C3054 H3079 0.950 . S
C3055 C3054 1.349 . S
C3055 C3071 1.349 . S
C3056 C3054 1.327 . S
C3056 C3075 1.429 . S
C3056 H3080 0.950 . S
C3057 C3074 1.574 . S
C3057 C3076 1.368 . S
C3057 H3081 0.949 . S
H3058 C3062 0.949 . S
C3059 C3060 1.349 . S
C3059 C3061 1.327 . S
C3059 H3082 0.950 . S
C3060 C3059 1.349 . S
C3060 C3072 1.349 . S
C3061 C3059 1.327 . S
C3061 C3077 1.429 . S
C3061 H3083 0.950 . S
C3062 H3058 0.949 . S
C3062 C3070 1.574 . S
C3062 C3078 1.368 . S
H3063 C3071 0.950 . S
H3064 C3069 0.950 . S
H3065 C3070 0.949 . S
H3066 C3072 0.950 . S
H3067 C3073 0.950 . S
H3068 C3074 0.949 . S
C3069 H3064 0.950 . S
C3069 C3071 1.327 . S
C3069 C3075 1.429 . S
C3070 C3062 1.574 . S
C3070 H3065 0.949 . S
C3070 C3076 1.368 . S
C3071 C3055 1.349 . S
C3071 H3063 0.950 . S
C3071 C3069 1.327 . S
C3072 C3060 1.349 . S
C3072 H3066 0.950 . S
C3072 C3073 1.327 . S
C3073 H3067 0.950 . S
C3073 C3072 1.327 . S
C3073 C3077 1.429 . S
C3074 C3057 1.574 . S
C3074 H3068 0.949 . S
C3074 C3078 1.368 . S
C3075 C3056 1.429 . S
C3075 C3069 1.429 . S
C3075 C3076 1.523 . S
C3076 C3057 1.368 . S
C3076 C3070 1.368 . S
C3076 C3075 1.523 . S
C3077 C3061 1.429 . S
C3077 C3073 1.429 . S
C3077 C3078 1.523 . S
C3078 C3062 1.368 . S
C3078 C3074 1.368 . S
C3078 C3077 1.523 . S
H3079 C3054 0.950 . S
H3080 C3056 0.950 . S
H3081 C3057 0.949 . S
H3082 C3059 0.950 . S
H3083 C3061 0.950 . S
C3084 C3085 1.349 . S
C3084 C3086 1.327 . S
C3084 H3109 0.950 . S
C3085 C3084 1.349 . S
C3085 C3101 1.349 . S
C3086 C3084 1.327 . S
C3086 C3105 1.429 . S
C3086 H3110 0.950 . S
C3087 C3104 1.574 . S
C3087 C3106 1.368 . S
C3087 H3111 0.949 . S
H3088 C3092 0.949 . S
C3089 C3090 1.349 . S
C3089 C3091 1.327 . S
C3089 H3112 0.950 . S
C3090 C3089 1.349 . S
C3090 C3102 1.349 . S
C3091 C3089 1.327 . S
C3091 C3107 1.429 . S
C3091 H3113 0.950 . S
C3092 H3088 0.949 . S
C3092 C3100 1.574 . S
C3092 C3108 1.368 . S
H3093 C3101 0.950 . S
H3094 C3099 0.950 . S
H3095 C3100 0.949 . S
H3096 C3102 0.950 . S
H3097 C3103 0.950 . S
H3098 C3104 0.949 . S
C3099 H3094 0.950 . S
C3099 C3101 1.327 . S
C3099 C3105 1.429 . S
C3100 C3092 1.574 . S
C3100 H3095 0.949 . S
C3100 C3106 1.368 . S
C3101 C3085 1.349 . S
C3101 H3093 0.950 . S
C3101 C3099 1.327 . S
C3102 C3090 1.349 . S
C3102 H3096 0.950 . S
C3102 C3103 1.327 . S
C3103 H3097 0.950 . S
C3103 C3102 1.327 . S
C3103 C3107 1.429 . S
C3104 C3087 1.574 . S
C3104 H3098 0.949 . S
C3104 C3108 1.368 . S
C3105 C3086 1.429 . S
C3105 C3099 1.429 . S
C3105 C3106 1.523 . S
C3106 C3087 1.368 . S
C3106 C3100 1.368 . S
C3106 C3105 1.523 . S
C3107 C3091 1.429 . S
C3107 C3103 1.429 . S
C3107 C3108 1.523 . S
C3108 C3092 1.368 . S
C3108 C3104 1.368 . S
C3108 C3107 1.523 . S
H3109 C3084 0.950 . S
H3110 C3086 0.950 . S
H3111 C3087 0.949 . S
H3112 C3089 0.950 . S
H3113 C3091 0.950 . S
C3114 C3115 1.349 . S
C3114 C3116 1.327 . S
C3114 H3139 0.950 . S
C3115 C3114 1.349 . S
C3115 C3131 1.349 . S
C3116 C3114 1.327 . S
C3116 C3135 1.429 . S
C3116 H3140 0.950 . S
C3117 C3134 1.574 . S
C3117 C3136 1.368 . S
C3117 H3141 0.949 . S
H3118 C3122 0.949 . S
C3119 C3120 1.349 . S
C3119 C3121 1.327 . S
C3119 H3142 0.950 . S
C3120 C3119 1.349 . S
C3120 C3132 1.349 . S
C3121 C3119 1.327 . S
C3121 C3137 1.429 . S
C3121 H3143 0.950 . S
C3122 H3118 0.949 . S
C3122 C3130 1.574 . S
C3122 C3138 1.368 . S
H3123 C3131 0.950 . S
H3124 C3129 0.950 . S
H3125 C3130 0.949 . S
H3126 C3132 0.950 . S
H3127 C3133 0.950 . S
H3128 C3134 0.949 . S
C3129 H3124 0.950 . S
C3129 C3131 1.327 . S
C3129 C3135 1.429 . S
C3130 C3122 1.574 . S
C3130 H3125 0.949 . S
C3130 C3136 1.368 . S
C3131 C3115 1.349 . S
C3131 H3123 0.950 . S
C3131 C3129 1.327 . S
C3132 C3120 1.349 . S
C3132 H3126 0.950 . S
C3132 C3133 1.327 . S
C3133 H3127 0.950 . S
C3133 C3132 1.327 . S
C3133 C3137 1.429 . S
C3134 C3117 1.574 . S
C3134 H3128 0.949 . S
C3134 C3138 1.368 . S
C3135 C3116 1.429 . S
C3135 C3129 1.429 . S
C3135 C3136 1.523 . S
C3136 C3117 1.368 . S
C3136 C3130 1.368 . S
C3136 C3135 1.523 . S
C3137 C3121 1.429 . S
C3137 C3133 1.429 . S
C3137 C3138 1.523 . S
C3138 C3122 1.368 . S
C3138 C3134 1.368 . S
C3138 C3137 1.523 . S
H3139 C3114 0.950 . S
H3140 C3116 0.950 . S
H3141 C3117 0.949 . S
H3142 C3119 0.950 . S
H3143 C3121 0.950 . S
C3144 C3145 1.349 . S
C3144 C3146 1.327 . S
C3144 H3169 0.950 . S
C3145 C3144 1.349 . S
C3145 C3161 1.349 . S
C3146 C3144 1.327 . S
C3146 C3165 1.429 . S
C3146 H3170 0.950 . S
C3147 C3164 1.574 . S
C3147 C3166 1.368 . S
C3147 H3171 0.949 . S
H3148 C3152 0.949 . S
C3149 C3150 1.349 . S
C3149 C3151 1.327 . S
C3149 H3172 0.950 . S
C3150 C3149 1.349 . S
C3150 C3162 1.349 . S
C3151 C3149 1.327 . S
C3151 C3167 1.429 . S
C3151 H3173 0.950 . S
C3152 H3148 0.949 . S
C3152 C3160 1.574 . S
C3152 C3168 1.368 . S
H3153 C3161 0.950 . S
H3154 C3159 0.950 . S
H3155 C3160 0.949 . S
H3156 C3162 0.950 . S
H3157 C3163 0.950 . S
H3158 C3164 0.949 . S
C3159 H3154 0.950 . S
C3159 C3161 1.327 . S
C3159 C3165 1.429 . S
C3160 C3152 1.574 . S
C3160 H3155 0.949 . S
C3160 C3166 1.368 . S
C3161 C3145 1.349 . S
C3161 H3153 0.950 . S
C3161 C3159 1.327 . S
C3162 C3150 1.349 . S
C3162 H3156 0.950 . S
C3162 C3163 1.327 . S
C3163 H3157 0.950 . S
C3163 C3162 1.327 . S
C3163 C3167 1.429 . S
C3164 C3147 1.574 . S
C3164 H3158 0.949 . S
C3164 C3168 1.368 . S
C3165 C3146 1.429 . S
C3165 C3159 1.429 . S
C3165 C3166 1.523 . S
C3166 C3147 1.368 . S
C3166 C3160 1.368 . S
C3166 C3165 1.523 . S
C3167 C3151 1.429 . S
C3167 C3163 1.429 . S
C3167 C3168 1.523 . S
C3168 C3152 1.368 . S
C3168 C3164 1.368 . S
C3168 C3167 1.523 . S
H3169 C3144 0.950 . S
H3170 C3146 0.950 . S
H3171 C3147 0.949 . S
H3172 C3149 0.950 . S
H3173 C3151 0.950 . S
C3174 C3175 1.349 . S
C3174 C3176 1.327 . S
C3174 H3199 0.950 . S
C3175 C3174 1.349 . S
C3175 C3191 1.349 . S
C3176 C3174 1.327 . S
C3176 C3195 1.429 . S
C3176 H3200 0.950 . S
C3177 C3194 1.574 . S
C3177 C3196 1.368 . S
C3177 H3201 0.949 . S
H3178 C3182 0.949 . S
C3179 C3180 1.349 . S
C3179 C3181 1.327 . S
C3179 H3202 0.950 . S
C3180 C3179 1.349 . S
C3180 C3192 1.349 . S
C3181 C3179 1.327 . S
C3181 C3197 1.429 . S
C3181 H3203 0.950 . S
C3182 H3178 0.949 . S
C3182 C3190 1.574 . S
C3182 C3198 1.368 . S
H3183 C3191 0.950 . S
H3184 C3189 0.950 . S
H3185 C3190 0.949 . S
H3186 C3192 0.950 . S
H3187 C3193 0.950 . S
H3188 C3194 0.949 . S
C3189 H3184 0.950 . S
C3189 C3191 1.327 . S
C3189 C3195 1.429 . S
C3190 C3182 1.574 . S
C3190 H3185 0.949 . S
C3190 C3196 1.368 . S
C3191 C3175 1.349 . S
C3191 H3183 0.950 . S
C3191 C3189 1.327 . S
C3192 C3180 1.349 . S
C3192 H3186 0.950 . S
C3192 C3193 1.327 . S
C3193 H3187 0.950 . S
C3193 C3192 1.327 . S
C3193 C3197 1.429 . S
C3194 C3177 1.574 . S
C3194 H3188 0.949 . S
C3194 C3198 1.368 . S
C3195 C3176 1.429 . S
C3195 C3189 1.429 . S
C3195 C3196 1.523 . S
C3196 C3177 1.368 . S
C3196 C3190 1.368 . S
C3196 C3195 1.523 . S
C3197 C3181 1.429 . S
C3197 C3193 1.429 . S
C3197 C3198 1.523 . S
C3198 C3182 1.368 . S
C3198 C3194 1.368 . S
C3198 C3197 1.523 . S
H3199 C3174 0.950 . S
H3200 C3176 0.950 . S
H3201 C3177 0.949 . S
H3202 C3179 0.950 . S
H3203 C3181 0.950 . S
C3204 C3205 1.349 . S
C3204 C3206 1.327 . S
C3204 H3229 0.950 . S
C3205 C3204 1.349 . S
C3205 C3221 1.349 . S
C3206 C3204 1.327 . S
C3206 C3225 1.429 . S
C3206 H3230 0.950 . S
C3207 C3224 1.574 . S
C3207 C3226 1.368 . S
C3207 H3231 0.949 . S
H3208 C3212 0.949 . S
C3209 C3210 1.349 . S
C3209 C3211 1.327 . S
C3209 H3232 0.950 . S
C3210 C3209 1.349 . S
C3210 C3222 1.349 . S
C3211 C3209 1.327 . S
C3211 C3227 1.429 . S
C3211 H3233 0.950 . S
C3212 H3208 0.949 . S
C3212 C3220 1.574 . S
C3212 C3228 1.368 . S
H3213 C3221 0.950 . S
H3214 C3219 0.950 . S
H3215 C3220 0.949 . S
H3216 C3222 0.950 . S
H3217 C3223 0.950 . S
H3218 C3224 0.949 . S
C3219 H3214 0.950 . S
C3219 C3221 1.327 . S
C3219 C3225 1.429 . S
C3220 C3212 1.574 . S
C3220 H3215 0.949 . S
C3220 C3226 1.368 . S
C3221 C3205 1.349 . S
C3221 H3213 0.950 . S
C3221 C3219 1.327 . S
C3222 C3210 1.349 . S
C3222 H3216 0.950 . S
C3222 C3223 1.327 . S
C3223 H3217 0.950 . S
C3223 C3222 1.327 . S
C3223 C3227 1.429 . S
C3224 C3207 1.574 . S
C3224 H3218 0.949 . S
C3224 C3228 1.368 . S
C3225 C3206 1.429 . S
C3225 C3219 1.429 . S
C3225 C3226 1.523 1_554 S
C3226 C3207 1.368 . S
C3226 C3220 1.368 . S
C3226 C3225 1.523 1_556 S
C3227 C3211 1.429 . S
C3227 C3223 1.429 . S
C3227 C3228 1.523 . S
C3228 C3212 1.368 . S
C3228 C3224 1.368 . S
C3228 C3227 1.523 . S
H3229 C3204 0.950 . S
H3230 C3206 0.950 . S
H3231 C3207 0.949 . S
H3232 C3209 0.950 . S
H3233 C3211 0.950 . S
C3234 C3235 1.349 . S
C3234 C3236 1.327 . S
C3234 H3259 0.950 . S
C3235 C3234 1.349 . S
C3235 C3251 1.349 . S
C3236 C3234 1.327 . S
C3236 C3255 1.429 . S
C3236 H3260 0.950 . S
C3237 C3254 1.574 . S
C3237 C3256 1.368 . S
C3237 H3261 0.949 . S
H3238 C3242 0.949 . S
C3239 C3240 1.349 . S
C3239 C3241 1.327 . S
C3239 H3262 0.950 . S
C3240 C3239 1.349 . S
C3240 C3252 1.349 . S
C3241 C3239 1.327 . S
C3241 C3257 1.429 . S
C3241 H3263 0.950 . S
C3242 H3238 0.949 . S
C3242 C3250 1.574 . S
C3242 C3258 1.368 . S
H3243 C3251 0.950 . S
H3244 C3249 0.950 . S
H3245 C3250 0.949 . S
H3246 C3252 0.950 . S
H3247 C3253 0.950 . S
H3248 C3254 0.949 . S
C3249 H3244 0.950 . S
C3249 C3251 1.327 . S
C3249 C3255 1.429 . S
C3250 C3242 1.574 . S
C3250 H3245 0.949 . S
C3250 C3256 1.368 . S
C3251 C3235 1.349 . S
C3251 H3243 0.950 . S
C3251 C3249 1.327 . S
C3252 C3240 1.349 . S
C3252 H3246 0.950 . S
C3252 C3253 1.327 . S
C3253 H3247 0.950 . S
C3253 C3252 1.327 . S
C3253 C3257 1.429 . S
C3254 C3237 1.574 . S
C3254 H3248 0.949 . S
C3254 C3258 1.368 . S
C3255 C3236 1.429 . S
C3255 C3249 1.429 . S
C3255 C3256 1.523 1_554 S
C3256 C3237 1.368 . S
C3256 C3250 1.368 . S
C3256 C3255 1.523 1_556 S
C3257 C3241 1.429 . S
C3257 C3253 1.429 . S
C3257 C3258 1.523 . S
C3258 C3242 1.368 . S
C3258 C3254 1.368 . S
C3258 C3257 1.523 . S
H3259 C3234 0.950 . S
H3260 C3236 0.950 . S
H3261 C3237 0.949 . S
H3262 C3239 0.950 . S
H3263 C3241 0.950 . S
C3264 C3265 1.349 . S
C3264 C3266 1.327 . S
C3264 H3289 0.950 . S
C3265 C3264 1.349 . S
C3265 C3281 1.349 . S
C3266 C3264 1.327 . S
C3266 C3285 1.429 . S
C3266 H3290 0.950 . S
C3267 C3284 1.574 . S
C3267 C3286 1.368 . S
C3267 H3291 0.949 . S
H3268 C3272 0.949 . S
C3269 C3270 1.349 . S
C3269 C3271 1.327 . S
C3269 H3292 0.950 . S
C3270 C3269 1.349 . S
C3270 C3282 1.349 . S
C3271 C3269 1.327 . S
C3271 C3287 1.429 . S
C3271 H3293 0.950 . S
C3272 H3268 0.949 . S
C3272 C3280 1.574 . S
C3272 C3288 1.368 . S
H3273 C3281 0.950 . S
H3274 C3279 0.950 . S
H3275 C3280 0.949 . S
H3276 C3282 0.950 . S
H3277 C3283 0.950 . S
H3278 C3284 0.949 . S
C3279 H3274 0.950 . S
C3279 C3281 1.327 . S
C3279 C3285 1.429 . S
C3280 C3272 1.574 . S
C3280 H3275 0.949 . S
C3280 C3286 1.368 . S
C3281 C3265 1.349 . S
C3281 H3273 0.950 . S
C3281 C3279 1.327 . S
C3282 C3270 1.349 . S
C3282 H3276 0.950 . S
C3282 C3283 1.327 . S
C3283 H3277 0.950 . S
C3283 C3282 1.327 . S
C3283 C3287 1.429 . S
C3284 C3267 1.574 . S
C3284 H3278 0.949 . S
C3284 C3288 1.368 . S
C3285 C3266 1.429 . S
C3285 C3279 1.429 . S
C3285 C3286 1.523 . S
C3286 C3267 1.368 . S
C3286 C3280 1.368 . S
C3286 C3285 1.523 . S
C3287 C3271 1.429 . S
C3287 C3283 1.429 . S
C3287 C3288 1.523 1_554 S
C3288 C3272 1.368 . S
C3288 C3284 1.368 . S
C3288 C3287 1.523 1_556 S
H3289 C3264 0.950 . S
H3290 C3266 0.950 . S
H3291 C3267 0.949 . S
H3292 C3269 0.950 . S
H3293 C3271 0.950 . S
C3294 C3295 1.349 . S
C3294 C3296 1.327 . S
C3294 H3319 0.950 . S
C3295 C3294 1.349 . S
C3295 C3311 1.349 . S
C3296 C3294 1.327 . S
C3296 C3315 1.429 . S
C3296 H3320 0.950 . S
C3297 C3314 1.574 . S
C3297 C3316 1.368 . S
C3297 H3321 0.949 . S
H3298 C3302 0.949 . S
C3299 C3300 1.349 1_556 S
C3299 C3301 1.327 . S
C3299 H3322 0.950 1_556 S
C3300 C3299 1.349 1_554 S
C3300 C3312 1.349 1_554 S
C3301 C3299 1.327 . S
C3301 C3317 1.429 . S
C3301 H3323 0.950 . S
C3302 H3298 0.949 . S
C3302 C3310 1.574 . S
C3302 C3318 1.368 . S
H3303 C3311 0.950 . S
H3304 C3309 0.950 . S
H3305 C3310 0.949 . S
H3306 C3312 0.950 1_554 S
H3307 C3313 0.950 . S
H3308 C3314 0.949 . S
C3309 H3304 0.950 . S
C3309 C3311 1.327 . S
C3309 C3315 1.429 . S
C3310 C3302 1.574 . S
C3310 H3305 0.949 . S
C3310 C3316 1.368 . S
C3311 C3295 1.349 . S
C3311 H3303 0.950 . S
C3311 C3309 1.327 . S
C3312 C3300 1.349 1_556 S
C3312 H3306 0.950 1_556 S
C3312 C3313 1.327 . S
C3313 H3307 0.950 . S
C3313 C3312 1.327 . S
C3313 C3317 1.429 . S
C3314 C3297 1.574 . S
C3314 H3308 0.949 . S
C3314 C3318 1.368 . S
C3315 C3296 1.429 . S
C3315 C3309 1.429 . S
C3315 C3316 1.523 . S
C3316 C3297 1.368 . S
C3316 C3310 1.368 . S
C3316 C3315 1.523 . S
C3317 C3301 1.429 . S
C3317 C3313 1.429 . S
C3317 C3318 1.523 . S
C3318 C3302 1.368 . S
C3318 C3314 1.368 . S
C3318 C3317 1.523 . S
H3319 C3294 0.950 . S
H3320 C3296 0.950 . S
H3321 C3297 0.949 . S
H3322 C3299 0.950 1_554 S
H3323 C3301 0.950 . S
C3324 C3325 1.349 . S
C3324 C3326 1.327 . S
C3324 H3349 0.950 . S
C3325 C3324 1.349 . S
C3325 C3341 1.349 . S
C3326 C3324 1.327 . S
C3326 C3345 1.429 . S
C3326 H3350 0.950 . S
C3327 C3344 1.574 . S
C3327 C3346 1.368 . S
C3327 H3351 0.949 . S
H3328 C3332 0.949 . S
C3329 C3330 1.349 1_556 S
C3329 C3331 1.327 . S
C3329 H3352 0.950 1_556 S
C3330 C3329 1.349 1_554 S
C3330 C3342 1.349 1_554 S
C3331 C3329 1.327 . S
C3331 C3347 1.429 . S
C3331 H3353 0.950 . S
C3332 H3328 0.949 . S
C3332 C3340 1.574 . S
C3332 C3348 1.368 . S
H3333 C3341 0.950 . S
H3334 C3339 0.950 . S
H3335 C3340 0.949 . S
H3336 C3342 0.950 . S
H3337 C3343 0.950 . S
H3338 C3344 0.949 . S
C3339 H3334 0.950 . S
C3339 C3341 1.327 . S
C3339 C3345 1.429 . S
C3340 C3332 1.574 . S
C3340 H3335 0.949 . S
C3340 C3346 1.368 . S
C3341 C3325 1.349 . S
C3341 H3333 0.950 . S
C3341 C3339 1.327 . S
C3342 C3330 1.349 1_556 S
C3342 H3336 0.950 . S
C3342 C3343 1.327 . S
C3343 H3337 0.950 . S
C3343 C3342 1.327 . S
C3343 C3347 1.429 . S
C3344 C3327 1.574 . S
C3344 H3338 0.949 . S
C3344 C3348 1.368 . S
C3345 C3326 1.429 . S
C3345 C3339 1.429 . S
C3345 C3346 1.523 . S
C3346 C3327 1.368 . S
C3346 C3340 1.368 . S
C3346 C3345 1.523 . S
C3347 C3331 1.429 . S
C3347 C3343 1.429 . S
C3347 C3348 1.523 . S
C3348 C3332 1.368 . S
C3348 C3344 1.368 . S
C3348 C3347 1.523 . S
H3349 C3324 0.950 . S
H3350 C3326 0.950 . S
H3351 C3327 0.949 . S
H3352 C3329 0.950 1_554 S
H3353 C3331 0.950 . S
C3354 C3355 1.349 1_556 S
C3354 C3356 1.327 . S
C3354 H3379 0.950 1_556 S
C3355 C3354 1.349 1_554 S
C3355 C3371 1.349 1_554 S
C3356 C3354 1.327 . S
C3356 C3375 1.429 . S
C3356 H3380 0.950 . S
C3357 C3374 1.574 . S
C3357 C3376 1.368 . S
C3357 H3381 0.949 . S
H3358 C3362 0.949 . S
C3359 C3360 1.349 . S
C3359 C3361 1.327 . S
C3359 H3382 0.950 . S
C3360 C3359 1.349 . S
C3360 C3372 1.349 . S
C3361 C3359 1.327 . S
C3361 C3377 1.429 . S
C3361 H3383 0.950 . S
C3362 H3358 0.949 . S
C3362 C3370 1.574 . S
C3362 C3378 1.368 . S
H3363 C3371 0.950 1_554 S
H3364 C3369 0.950 . S
H3365 C3370 0.949 . S
H3366 C3372 0.950 . S
H3367 C3373 0.950 . S
H3368 C3374 0.949 . S
C3369 H3364 0.950 . S
C3369 C3371 1.327 . S
C3369 C3375 1.429 . S
C3370 C3362 1.574 . S
C3370 H3365 0.949 . S
C3370 C3376 1.368 . S
C3371 C3355 1.349 1_556 S
C3371 H3363 0.950 1_556 S
C3371 C3369 1.327 . S
C3372 C3360 1.349 . S
C3372 H3366 0.950 . S
C3372 C3373 1.327 . S
C3373 H3367 0.950 . S
C3373 C3372 1.327 . S
C3373 C3377 1.429 . S
C3374 C3357 1.574 . S
C3374 H3368 0.949 . S
C3374 C3378 1.368 . S
C3375 C3356 1.429 . S
C3375 C3369 1.429 . S
C3375 C3376 1.523 . S
C3376 C3357 1.368 . S
C3376 C3370 1.368 . S
C3376 C3375 1.523 . S
C3377 C3361 1.429 . S
C3377 C3373 1.429 . S
C3377 C3378 1.523 . S
C3378 C3362 1.368 . S
C3378 C3374 1.368 . S
C3378 C3377 1.523 . S
H3379 C3354 0.950 1_554 S
H3380 C3356 0.950 . S
H3381 C3357 0.949 . S
H3382 C3359 0.950 . S
H3383 C3361 0.950 . S
C3384 C3385 1.349 . S
C3384 C3386 1.327 . S
C3384 H3409 0.950 . S
C3385 C3384 1.349 . S
C3385 C3401 1.349 . S
C3386 C3384 1.327 . S
C3386 C3405 1.429 . S
C3386 H3410 0.950 . S
C3387 C3404 1.574 . S
C3387 C3406 1.368 . S
C3387 H3411 0.949 . S
H3388 C3392 0.949 . S
C3389 C3390 1.349 1_556 S
C3389 C3391 1.327 . S
C3389 H3412 0.950 1_556 S
C3390 C3389 1.349 1_554 S
C3390 C3402 1.349 1_554 S
C3391 C3389 1.327 . S
C3391 C3407 1.429 . S
C3391 H3413 0.950 . S
C3392 H3388 0.949 . S
C3392 C3400 1.574 . S
C3392 C3408 1.368 . S
H3393 C3401 0.950 . S
H3394 C3399 0.950 . S
H3395 C3400 0.949 . S
H3396 C3402 0.942 1_554 S
H3397 C3403 0.950 . S
H3398 C3404 0.949 . S
C3399 H3394 0.950 . S
C3399 C3401 1.327 . S
C3399 C3405 1.429 . S
C3400 C3392 1.574 . S
C3400 H3395 0.949 . S
C3400 C3406 1.368 . S
C3401 C3385 1.349 . S
C3401 H3393 0.950 . S
C3401 C3399 1.327 . S
C3402 C3390 1.349 1_556 S
C3402 H3396 0.942 1_556 S
C3402 C3403 1.327 . S
C3403 H3397 0.950 . S
C3403 C3402 1.327 . S
C3403 C3407 1.429 . S
C3404 C3387 1.574 . S
C3404 H3398 0.949 . S
C3404 C3408 1.368 . S
C3405 C3386 1.429 . S
C3405 C3399 1.429 . S
C3405 C3406 1.523 . S
C3406 C3387 1.368 . S
C3406 C3400 1.368 . S
C3406 C3405 1.523 . S
C3407 C3391 1.429 . S
C3407 C3403 1.429 . S
C3407 C3408 1.523 . S
C3408 C3392 1.368 . S
C3408 C3404 1.368 . S
C3408 C3407 1.523 . S
H3409 C3384 0.950 . S
H3410 C3386 0.950 . S
H3411 C3387 0.949 . S
H3412 C3389 0.950 1_554 S
H3413 C3391 0.950 . S
C3414 C3415 1.349 1_556 S
C3414 C3416 1.327 . S
C3414 H3439 0.950 1_556 S
C3415 C3414 1.349 1_554 S
C3415 C3431 1.349 1_554 S
C3416 C3414 1.327 . S
C3416 C3435 1.429 . S
C3416 H3440 0.950 . S
C3417 C3434 1.574 . S
C3417 C3436 1.368 . S
C3417 H3441 0.949 . S
H3418 C3422 0.949 . S
C3419 C3420 1.349 . S
C3419 C3421 1.327 . S
C3419 H3442 0.950 . S
C3420 C3419 1.349 . S
C3420 C3432 1.349 . S
C3421 C3419 1.327 . S
C3421 C3437 1.429 . S
C3421 H3443 0.950 . S
C3422 H3418 0.949 . S
C3422 C3430 1.574 . S
C3422 C3438 1.368 . S
H3423 C3431 0.950 1_554 S
H3424 C3429 0.950 . S
H3425 C3430 0.949 . S
H3426 C3432 0.950 . S
H3427 C3433 0.950 . S
H3428 C3434 0.949 . S
C3429 H3424 0.950 . S
C3429 C3431 1.327 . S
C3429 C3435 1.429 . S
C3430 C3422 1.574 . S
C3430 H3425 0.949 . S
C3430 C3436 1.368 . S
C3431 C3415 1.349 1_556 S
C3431 H3423 0.950 1_556 S
C3431 C3429 1.327 . S
C3432 C3420 1.349 . S
C3432 H3426 0.950 . S
C3432 C3433 1.327 . S
C3433 H3427 0.950 . S
C3433 C3432 1.327 . S
C3433 C3437 1.429 . S
C3434 C3417 1.574 . S
C3434 H3428 0.949 . S
C3434 C3438 1.368 . S
C3435 C3416 1.429 . S
C3435 C3429 1.429 . S
C3435 C3436 1.523 . S
C3436 C3417 1.368 . S
C3436 C3430 1.368 . S
C3436 C3435 1.523 . S
C3437 C3421 1.429 . S
C3437 C3433 1.429 . S
C3437 C3438 1.523 . S
C3438 C3422 1.368 . S
C3438 C3434 1.368 . S
C3438 C3437 1.523 . S
H3439 C3414 0.950 1_554 S
H3440 C3416 0.950 . S
H3441 C3417 0.949 . S
H3442 C3419 0.950 . S
H3443 C3421 0.950 . S
C3444 C3445 1.349 1_556 S
C3444 C3446 1.327 . S
C3444 H3469 0.950 1_556 S
C3445 C3444 1.349 1_554 S
C3445 C3461 1.349 1_554 S
C3446 C3444 1.327 . S
C3446 C3465 1.429 . S
C3446 H3470 0.950 . S
C3447 C3464 1.574 . S
C3447 C3466 1.368 . S
C3447 H3471 0.949 . S
H3448 C3452 0.949 . S
C3449 C3450 1.349 . S
C3449 C3451 1.327 . S
C3449 H3472 0.950 . S
C3450 C3449 1.349 . S
C3450 C3462 1.349 . S
C3451 C3449 1.327 . S
C3451 C3467 1.429 . S
C3451 H3473 0.950 . S
C3452 H3448 0.949 . S
C3452 C3460 1.574 . S
C3452 C3468 1.368 . S
H3453 C3461 0.950 1_554 S
H3454 C3459 0.950 . S
H3455 C3460 0.949 . S
H3456 C3462 0.950 . S
H3457 C3463 0.950 . S
H3458 C3464 0.949 . S
C3459 H3454 0.950 . S
C3459 C3461 1.327 . S
C3459 C3465 1.429 . S
C3460 C3452 1.574 . S
C3460 H3455 0.949 . S
C3460 C3466 1.368 . S
C3461 C3445 1.349 1_556 S
C3461 H3453 0.950 1_556 S
C3461 C3459 1.327 . S
C3462 C3450 1.349 . S
C3462 H3456 0.950 . S
C3462 C3463 1.327 . S
C3463 H3457 0.950 . S
C3463 C3462 1.327 . S
C3463 C3467 1.429 . S
C3464 C3447 1.574 . S
C3464 H3458 0.949 . S
C3464 C3468 1.368 . S
C3465 C3446 1.429 . S
C3465 C3459 1.429 . S
C3465 C3466 1.523 . S
C3466 C3447 1.368 . S
C3466 C3460 1.368 . S
C3466 C3465 1.523 . S
C3467 C3451 1.429 . S
C3467 C3463 1.429 . S
C3467 C3468 1.523 . S
C3468 C3452 1.368 . S
C3468 C3464 1.368 . S
C3468 C3467 1.523 . S
H3469 C3444 0.950 1_554 S
H3470 C3446 0.950 . S
H3471 C3447 0.949 . S
H3472 C3449 0.950 . S
H3473 C3451 0.950 . S
C3474 C3475 1.349 . S
C3474 C3476 1.327 . S
C3474 H3499 0.950 . S
C3475 C3474 1.349 . S
C3475 C3491 1.349 . S
C3476 C3474 1.327 . S
C3476 C3495 1.429 . S
C3476 H3500 0.950 . S
C3477 C3494 1.574 . S
C3477 C3496 1.368 . S
C3477 H3501 0.949 . S
H3478 C3482 0.949 . S
C3479 C3480 1.349 . S
C3479 C3481 1.327 . S
C3479 H3502 0.950 . S
C3480 C3479 1.349 . S
C3480 C3492 1.349 . S
C3481 C3479 1.327 . S
C3481 C3497 1.429 . S
C3481 H3503 0.950 . S
C3482 H3478 0.949 . S
C3482 C3490 1.574 . S
C3482 C3498 1.368 . S
H3483 C3491 0.950 . S
H3484 C3489 0.950 . S
H3485 C3490 0.949 . S
H3486 C3492 0.950 . S
H3487 C3493 0.950 . S
H3488 C3494 0.949 . S
C3489 H3484 0.950 . S
C3489 C3491 1.327 . S
C3489 C3495 1.429 . S
C3490 C3482 1.574 . S
C3490 H3485 0.949 . S
C3490 C3496 1.368 . S
C3491 C3475 1.349 . S
C3491 H3483 0.950 . S
C3491 C3489 1.327 . S
C3492 C3480 1.349 . S
C3492 H3486 0.950 . S
C3492 C3493 1.327 . S
C3493 H3487 0.950 . S
C3493 C3492 1.327 . S
C3493 C3497 1.429 . S
C3494 C3477 1.574 . S
C3494 H3488 0.949 . S
C3494 C3498 1.368 . S
C3495 C3476 1.429 . S
C3495 C3489 1.429 . S
C3495 C3496 1.523 1_554 S
C3496 C3477 1.368 . S
C3496 C3490 1.368 . S
C3496 C3495 1.523 1_556 S
C3497 C3481 1.429 . S
C3497 C3493 1.429 . S
C3497 C3498 1.523 . S
C3498 C3482 1.368 . S
C3498 C3494 1.368 . S
C3498 C3497 1.523 . S
H3499 C3474 0.950 . S
H3500 C3476 0.950 . S
H3501 C3477 0.949 . S
H3502 C3479 0.950 . S
H3503 C3481 0.950 . S
C3504 C3505 1.349 . S
C3504 C3506 1.327 . S
C3504 H3529 0.950 . S
C3505 C3504 1.349 . S
C3505 C3521 1.349 . S
C3506 C3504 1.327 . S
C3506 C3525 1.429 . S
C3506 H3530 0.950 . S
C3507 C3524 1.574 . S
C3507 C3526 1.368 . S
C3507 H3531 0.949 . S
H3508 C3512 0.949 . S
C3509 C3510 1.349 . S
C3509 C3511 1.327 . S
C3509 H3532 0.950 . S
C3510 C3509 1.349 . S
C3510 C3522 1.349 . S
C3511 C3509 1.327 . S
C3511 C3527 1.429 . S
C3511 H3533 0.950 . S
C3512 H3508 0.949 . S
C3512 C3520 1.574 . S
C3512 C3528 1.368 . S
H3513 C3521 0.950 . S
H3514 C3519 0.950 . S
H3515 C3520 0.949 . S
H3516 C3522 0.950 . S
H3517 C3523 0.950 . S
H3518 C3524 0.949 . S
C3519 H3514 0.950 . S
C3519 C3521 1.327 . S
C3519 C3525 1.429 . S
C3520 C3512 1.574 . S
C3520 H3515 0.949 . S
C3520 C3526 1.368 . S
C3521 C3505 1.349 . S
C3521 H3513 0.950 . S
C3521 C3519 1.327 . S
C3522 C3510 1.349 . S
C3522 H3516 0.950 . S
C3522 C3523 1.327 . S
C3523 H3517 0.950 . S
C3523 C3522 1.327 . S
C3523 C3527 1.429 . S
C3524 C3507 1.574 . S
C3524 H3518 0.949 . S
C3524 C3528 1.368 . S
C3525 C3506 1.429 . S
C3525 C3519 1.429 . S
C3525 C3526 1.523 1_554 S
C3526 C3507 1.368 . S
C3526 C3520 1.368 . S
C3526 C3525 1.523 1_556 S
C3527 C3511 1.429 . S
C3527 C3523 1.429 . S
C3527 C3528 1.523 . S
C3528 C3512 1.368 . S
C3528 C3524 1.368 . S
C3528 C3527 1.523 . S
H3529 C3504 0.950 . S
H3530 C3506 0.950 . S
H3531 C3507 0.949 . S
H3532 C3509 0.950 . S
H3533 C3511 0.950 . S
C3534 C3535 1.349 . S
C3534 C3536 1.327 . S
C3534 H3559 0.950 . S
C3535 C3534 1.349 . S
C3535 C3551 1.349 . S
C3536 C3534 1.327 . S
C3536 C3555 1.429 . S
C3536 H3560 0.950 . S
C3537 C3554 1.574 . S
C3537 C3556 1.368 . S
C3537 H3561 0.949 . S
H3538 C3542 0.949 . S
C3539 C3540 1.349 . S
C3539 C3541 1.327 . S
C3539 H3562 0.950 . S
C3540 C3539 1.349 . S
C3540 C3552 1.349 . S
C3541 C3539 1.327 . S
C3541 C3557 1.429 . S
C3541 H3563 0.950 . S
C3542 H3538 0.949 . S
C3542 C3550 1.574 . S
C3542 C3558 1.368 . S
H3543 C3551 0.950 . S
H3544 C3549 0.950 . S
H3545 C3550 0.949 . S
H3546 C3552 0.950 . S
H3547 C3553 0.950 . S
H3548 C3554 0.949 . S
C3549 H3544 0.950 . S
C3549 C3551 1.327 . S
C3549 C3555 1.429 . S
C3550 C3542 1.574 . S
C3550 H3545 0.949 . S
C3550 C3556 1.368 . S
C3551 C3535 1.349 . S
C3551 H3543 0.950 . S
C3551 C3549 1.327 . S
C3552 C3540 1.349 . S
C3552 H3546 0.950 . S
C3552 C3553 1.327 . S
C3553 H3547 0.950 . S
C3553 C3552 1.327 . S
C3553 C3557 1.429 . S
C3554 C3537 1.574 . S
C3554 H3548 0.949 . S
C3554 C3558 1.368 . S
C3555 C3536 1.429 . S
C3555 C3549 1.429 . S
C3555 C3556 1.523 1_554 S
C3556 C3537 1.368 . S
C3556 C3550 1.368 . S
C3556 C3555 1.523 1_556 S
C3557 C3541 1.429 . S
C3557 C3553 1.429 . S
C3557 C3558 1.523 . S
C3558 C3542 1.368 . S
C3558 C3554 1.368 . S
C3558 C3557 1.523 . S
H3559 C3534 0.950 . S
H3560 C3536 0.950 . S
H3561 C3537 0.949 . S
H3562 C3539 0.950 . S
H3563 C3541 0.950 . S
C3564 C3565 1.349 . S
C3564 C3566 1.327 . S
C3564 H3589 0.950 . S
C3565 C3564 1.349 . S
C3565 C3581 1.349 . S
C3566 C3564 1.327 . S
C3566 C3585 1.429 . S
C3566 H3590 0.950 . S
C3567 C3584 1.574 . S
C3567 C3586 1.368 . S
C3567 H3591 0.949 . S
H3568 C3572 0.949 . S
C3569 C3570 1.349 1_554 S
C3569 C3571 1.327 . S
C3569 H3592 0.950 1_554 S
C3570 C3569 1.349 1_556 S
C3570 C3582 1.349 1_556 S
C3571 C3569 1.327 . S
C3571 C3587 1.429 . S
C3571 H3593 0.950 . S
C3572 H3568 0.949 . S
C3572 C3580 1.574 . S
C3572 C3588 1.368 . S
H3573 C3581 0.950 . S
H3574 C3579 0.950 . S
H3575 C3580 0.949 . S
H3576 C3582 0.950 1_556 S
H3577 C3583 0.950 . S
H3578 C3584 0.949 . S
C3579 H3574 0.950 . S
C3579 C3581 1.327 . S
C3579 C3585 1.429 . S
C3580 C3572 1.574 . S
C3580 H3575 0.949 . S
C3580 C3586 1.368 . S
C3581 C3565 1.349 . S
C3581 H3573 0.950 . S
C3581 C3579 1.327 . S
C3582 C3570 1.349 1_554 S
C3582 H3576 0.950 1_554 S
C3582 C3583 1.327 . S
C3583 H3577 0.950 . S
C3583 C3582 1.327 . S
C3583 C3587 1.429 . S
C3584 C3567 1.574 . S
C3584 H3578 0.949 . S
C3584 C3588 1.368 . S
C3585 C3566 1.429 . S
C3585 C3579 1.429 . S
C3585 C3586 1.523 . S
C3586 C3567 1.368 . S
C3586 C3580 1.368 . S
C3586 C3585 1.523 . S
C3587 C3571 1.429 . S
C3587 C3583 1.429 . S
C3587 C3588 1.523 . S
C3588 C3572 1.368 . S
C3588 C3584 1.368 . S
C3588 C3587 1.523 . S
H3589 C3564 0.950 . S
H3590 C3566 0.950 . S
H3591 C3567 0.949 . S
H3592 C3569 0.950 1_556 S
H3593 C3571 0.950 . S
C3594 C3595 1.349 . S
C3594 C3596 1.327 . S
C3594 H3619 0.950 . S
C3595 C3594 1.349 . S
C3595 C3611 1.349 . S
C3596 C3594 1.327 . S
C3596 C3615 1.429 . S
C3596 H3620 0.950 . S
C3597 C3614 1.574 . S
C3597 C3616 1.368 . S
C3597 H3621 0.949 . S
H3598 C3602 0.949 . S
C3599 C3600 1.349 1_554 S
C3599 C3601 1.327 . S
C3599 H3622 0.950 1_554 S
C3600 C3599 1.349 1_556 S
C3600 C3612 1.349 1_556 S
C3601 C3599 1.327 . S
C3601 C3617 1.429 . S
C3601 H3623 0.950 . S
C3602 H3598 0.949 . S
C3602 C3610 1.574 . S
C3602 C3618 1.368 . S
H3603 C3611 0.950 . S
H3604 C3609 0.950 . S
H3605 C3610 0.949 . S
H3606 C3612 0.949 1_556 S
H3607 C3613 0.950 . S
H3608 C3614 0.949 . S
C3609 H3604 0.950 . S
C3609 C3611 1.327 . S
C3609 C3615 1.429 . S
C3610 C3602 1.574 . S
C3610 H3605 0.949 . S
C3610 C3616 1.368 . S
C3611 C3595 1.349 . S
C3611 H3603 0.950 . S
C3611 C3609 1.327 . S
C3612 C3600 1.349 1_554 S
C3612 H3606 0.949 1_554 S
C3612 C3613 1.327 . S
C3613 H3607 0.950 . S
C3613 C3612 1.327 . S
C3613 C3617 1.429 . S
C3614 C3597 1.574 . S
C3614 H3608 0.949 . S
C3614 C3618 1.368 . S
C3615 C3596 1.429 . S
C3615 C3609 1.429 . S
C3615 C3616 1.523 . S
C3616 C3597 1.368 . S
C3616 C3610 1.368 . S
C3616 C3615 1.523 . S
C3617 C3601 1.429 . S
C3617 C3613 1.429 . S
C3617 C3618 1.523 . S
C3618 C3602 1.368 . S
C3618 C3614 1.368 . S
C3618 C3617 1.523 . S
H3619 C3594 0.950 . S
H3620 C3596 0.950 . S
H3621 C3597 0.949 . S
H3622 C3599 0.950 1_556 S
H3623 C3601 0.950 . S
C3624 C3625 1.349 1_554 S
C3624 C3626 1.327 . S
C3624 H3649 0.950 1_554 S
C3625 C3624 1.349 1_556 S
C3625 C3641 1.349 1_556 S
C3626 C3624 1.327 . S
C3626 C3645 1.429 . S
C3626 H3650 0.950 . S
C3627 C3644 1.574 . S
C3627 C3646 1.368 . S
C3627 H3651 0.949 . S
H3628 C3632 0.949 . S
C3629 C3630 1.349 . S
C3629 C3631 1.327 . S
C3629 H3652 0.950 . S
C3630 C3629 1.349 . S
C3630 C3642 1.349 . S
C3631 C3629 1.327 . S
C3631 C3647 1.429 . S
C3631 H3653 0.950 . S
C3632 H3628 0.949 . S
C3632 C3640 1.574 . S
C3632 C3648 1.368 . S
H3633 C3641 0.950 1_556 S
H3634 C3639 0.950 . S
H3635 C3640 0.949 . S
H3636 C3642 0.950 . S
H3637 C3643 0.950 . S
H3638 C3644 0.949 . S
C3639 H3634 0.950 . S
C3639 C3641 1.327 . S
C3639 C3645 1.429 . S
C3640 C3632 1.574 . S
C3640 H3635 0.949 . S
C3640 C3646 1.368 . S
C3641 C3625 1.349 1_554 S
C3641 H3633 0.950 1_554 S
C3641 C3639 1.327 . S
C3642 C3630 1.349 . S
C3642 H3636 0.950 . S
C3642 C3643 1.327 . S
C3643 H3637 0.950 . S
C3643 C3642 1.327 . S
C3643 C3647 1.429 . S
C3644 C3627 1.574 . S
C3644 H3638 0.949 . S
C3644 C3648 1.368 . S
C3645 C3626 1.429 . S
C3645 C3639 1.429 . S
C3645 C3646 1.523 . S
C3646 C3627 1.368 . S
C3646 C3640 1.368 . S
C3646 C3645 1.523 . S
C3647 C3631 1.429 . S
C3647 C3643 1.429 . S
C3647 C3648 1.523 . S
C3648 C3632 1.368 . S
C3648 C3644 1.368 . S
C3648 C3647 1.523 . S
H3649 C3624 0.950 1_556 S
H3650 C3626 0.950 . S
H3651 C3627 0.949 . S
H3652 C3629 0.950 . S
H3653 C3631 0.950 . S
C3654 C3655 1.349 . S
C3654 C3656 1.327 . S
C3654 H3679 0.950 . S
C3655 C3654 1.349 . S
C3655 C3671 1.349 . S
C3656 C3654 1.327 . S
C3656 C3675 1.429 . S
C3656 H3680 0.950 . S
C3657 C3674 1.574 . S
C3657 C3676 1.368 . S
C3657 H3681 0.949 . S
H3658 C3662 0.949 . S
C3659 C3660 1.349 . S
C3659 C3661 1.327 . S
C3659 H3682 0.950 . S
C3660 C3659 1.349 . S
C3660 C3672 1.349 . S
C3661 C3659 1.327 . S
C3661 C3677 1.429 . S
C3661 H3683 0.950 . S
C3662 H3658 0.949 . S
C3662 C3670 1.574 . S
C3662 C3678 1.368 . S
H3663 C3671 0.950 . S
H3664 C3669 0.950 . S
H3665 C3670 0.949 . S
H3666 C3672 0.950 . S
H3667 C3673 0.950 . S
H3668 C3674 0.949 . S
C3669 H3664 0.950 . S
C3669 C3671 1.327 . S
C3669 C3675 1.429 . S
C3670 C3662 1.574 . S
C3670 H3665 0.949 . S
C3670 C3676 1.368 . S
C3671 C3655 1.349 . S
C3671 H3663 0.950 . S
C3671 C3669 1.327 . S
C3672 C3660 1.349 . S
C3672 H3666 0.950 . S
C3672 C3673 1.327 . S
C3673 H3667 0.950 . S
C3673 C3672 1.327 . S
C3673 C3677 1.429 . S
C3674 C3657 1.574 . S
C3674 H3668 0.949 . S
C3674 C3678 1.368 . S
C3675 C3656 1.429 . S
C3675 C3669 1.429 . S
C3675 C3676 1.523 . S
C3676 C3657 1.368 . S
C3676 C3670 1.368 . S
C3676 C3675 1.523 . S
C3677 C3661 1.429 . S
C3677 C3673 1.429 . S
C3677 C3678 1.523 1_556 S
C3678 C3662 1.368 . S
C3678 C3674 1.368 . S
C3678 C3677 1.523 1_554 S
H3679 C3654 0.950 . S
H3680 C3656 0.950 . S
H3681 C3657 0.949 . S
H3682 C3659 0.950 . S
H3683 C3661 0.950 . S
C3684 C3685 1.349 . S
C3684 C3686 1.327 . S
C3684 H3709 0.950 . S
C3685 C3684 1.349 . S
C3685 C3701 1.349 . S
C3686 C3684 1.327 . S
C3686 C3705 1.429 . S
C3686 H3710 0.950 . S
C3687 C3704 1.574 . S
C3687 C3706 1.368 . S
C3687 H3711 0.949 . S
H3688 C3692 0.949 . S
C3689 C3690 1.349 . S
C3689 C3691 1.327 . S
C3689 H3712 0.950 . S
C3690 C3689 1.349 . S
C3690 C3702 1.349 . S
C3691 C3689 1.327 . S
C3691 C3707 1.429 . S
C3691 H3713 0.950 . S
C3692 H3688 0.949 . S
C3692 C3700 1.574 . S
C3692 C3708 1.368 . S
H3693 C3701 0.950 . S
H3694 C3699 0.950 . S
H3695 C3700 0.949 . S
H3696 C3702 0.950 . S
H3697 C3703 0.950 . S
H3698 C3704 0.949 . S
C3699 H3694 0.950 . S
C3699 C3701 1.327 . S
C3699 C3705 1.429 . S
C3700 C3692 1.574 . S
C3700 H3695 0.949 . S
C3700 C3706 1.368 . S
C3701 C3685 1.349 . S
C3701 H3693 0.950 . S
C3701 C3699 1.327 . S
C3702 C3690 1.349 . S
C3702 H3696 0.950 . S
C3702 C3703 1.327 . S
C3703 H3697 0.950 . S
C3703 C3702 1.327 . S
C3703 C3707 1.429 . S
C3704 C3687 1.574 . S
C3704 H3698 0.949 . S
C3704 C3708 1.368 . S
C3705 C3686 1.429 . S
C3705 C3699 1.429 . S
C3705 C3706 1.523 . S
C3706 C3687 1.368 . S
C3706 C3700 1.368 . S
C3706 C3705 1.523 . S
C3707 C3691 1.429 . S
C3707 C3703 1.429 . S
C3707 C3708 1.523 1_556 S
C3708 C3692 1.368 . S
C3708 C3704 1.368 . S
C3708 C3707 1.523 1_554 S
H3709 C3684 0.950 . S
H3710 C3686 0.950 . S
H3711 C3687 0.949 . S
H3712 C3689 0.950 . S
H3713 C3691 0.950 . S
C3714 C3715 1.349 . S
C3714 C3716 1.327 . S
C3714 H3739 0.950 . S
C3715 C3714 1.349 . S
C3715 C3731 1.349 . S
C3716 C3714 1.327 . S
C3716 C3735 1.429 . S
C3716 H3740 0.950 . S
C3717 C3734 1.574 . S
C3717 C3736 1.368 . S
C3717 H3741 0.949 . S
H3718 C3722 0.949 . S
C3719 C3720 1.349 . S
C3719 C3721 1.327 . S
C3719 H3742 0.950 . S
C3720 C3719 1.349 . S
C3720 C3732 1.349 . S
C3721 C3719 1.327 . S
C3721 C3737 1.429 . S
C3721 H3743 0.950 . S
C3722 H3718 0.949 . S
C3722 C3730 1.574 . S
C3722 C3738 1.368 . S
H3723 C3731 0.950 . S
H3724 C3729 0.950 . S
H3725 C3730 0.949 . S
H3726 C3732 0.950 . S
H3727 C3733 0.950 . S
H3728 C3734 0.949 . S
C3729 H3724 0.950 . S
C3729 C3731 1.327 . S
C3729 C3735 1.429 . S
C3730 C3722 1.574 . S
C3730 H3725 0.949 . S
C3730 C3736 1.368 . S
C3731 C3715 1.349 . S
C3731 H3723 0.950 . S
C3731 C3729 1.327 . S
C3732 C3720 1.349 . S
C3732 H3726 0.950 . S
C3732 C3733 1.327 . S
C3733 H3727 0.950 . S
C3733 C3732 1.327 . S
C3733 C3737 1.429 . S
C3734 C3717 1.574 . S
C3734 H3728 0.949 . S
C3734 C3738 1.368 . S
C3735 C3716 1.429 . S
C3735 C3729 1.429 . S
C3735 C3736 1.523 . S
C3736 C3717 1.368 . S
C3736 C3730 1.368 . S
C3736 C3735 1.523 . S
C3737 C3721 1.429 . S
C3737 C3733 1.429 . S
C3737 C3738 1.523 1_556 S
C3738 C3722 1.368 . S
C3738 C3734 1.368 . S
C3738 C3737 1.523 1_554 S
H3739 C3714 0.950 . S
H3740 C3716 0.950 . S
H3741 C3717 0.949 . S
H3742 C3719 0.950 . S
H3743 C3721 0.950 . S
C3744 C3745 1.349 . S
C3744 C3746 1.327 . S
C3744 H3769 0.950 . S
C3745 C3744 1.349 . S
C3745 C3761 1.349 . S
C3746 C3744 1.327 . S
C3746 C3765 1.429 . S
C3746 H3770 0.950 . S
C3747 C3764 1.574 . S
C3747 C3766 1.368 . S
C3747 H3771 0.949 . S
H3748 C3752 0.949 . S
C3749 C3750 1.349 . S
C3749 C3751 1.327 . S
C3749 H3772 0.950 . S
C3750 C3749 1.349 . S
C3750 C3762 1.349 . S
C3751 C3749 1.327 . S
C3751 C3767 1.429 . S
C3751 H3773 0.950 . S
C3752 H3748 0.949 . S
C3752 C3760 1.574 . S
C3752 C3768 1.368 . S
H3753 C3761 0.950 . S
H3754 C3759 0.950 . S
H3755 C3760 0.949 . S
H3756 C3762 0.950 . S
H3757 C3763 0.950 . S
H3758 C3764 0.949 . S
C3759 H3754 0.950 . S
C3759 C3761 1.327 . S
C3759 C3765 1.429 . S
C3760 C3752 1.574 . S
C3760 H3755 0.949 . S
C3760 C3766 1.368 . S
C3761 C3745 1.349 . S
C3761 H3753 0.950 . S
C3761 C3759 1.327 . S
C3762 C3750 1.349 . S
C3762 H3756 0.950 . S
C3762 C3763 1.327 . S
C3763 H3757 0.950 . S
C3763 C3762 1.327 . S
C3763 C3767 1.429 . S
C3764 C3747 1.574 . S
C3764 H3758 0.949 . S
C3764 C3768 1.368 . S
C3765 C3746 1.429 . S
C3765 C3759 1.429 . S
C3765 C3766 1.523 . S
C3766 C3747 1.368 . S
C3766 C3760 1.368 . S
C3766 C3765 1.523 . S
C3767 C3751 1.429 . S
C3767 C3763 1.429 . S
C3767 C3768 1.523 1_556 S
C3768 C3752 1.368 . S
C3768 C3764 1.368 . S
C3768 C3767 1.523 1_554 S
H3769 C3744 0.950 . S
H3770 C3746 0.950 . S
H3771 C3747 0.949 . S
H3772 C3749 0.950 . S
H3773 C3751 0.950 . S
C3774 C3775 1.349 . S
C3774 C3776 1.327 . S
C3774 H3799 0.950 . S
C3775 C3774 1.349 . S
C3775 C3791 1.349 . S
C3776 C3774 1.327 . S
C3776 C3795 1.429 . S
C3776 H3800 0.950 . S
C3777 C3794 1.574 . S
C3777 C3796 1.368 . S
C3777 H3801 0.949 . S
H3778 C3782 0.949 . S
C3779 C3780 1.349 . S
C3779 C3781 1.327 . S
C3779 H3802 0.950 . S
C3780 C3779 1.349 . S
C3780 C3792 1.349 . S
C3781 C3779 1.327 . S
C3781 C3797 1.429 . S
C3781 H3803 0.950 . S
C3782 H3778 0.949 . S
C3782 C3790 1.574 . S
C3782 C3798 1.368 . S
H3783 C3791 0.950 . S
H3784 C3789 0.950 . S
H3785 C3790 0.949 . S
H3786 C3792 0.950 . S
H3787 C3793 0.950 . S
H3788 C3794 0.949 . S
C3789 H3784 0.950 . S
C3789 C3791 1.327 . S
C3789 C3795 1.429 . S
C3790 C3782 1.574 . S
C3790 H3785 0.949 . S
C3790 C3796 1.368 . S
C3791 C3775 1.349 . S
C3791 H3783 0.950 . S
C3791 C3789 1.327 . S
C3792 C3780 1.349 . S
C3792 H3786 0.950 . S
C3792 C3793 1.327 . S
C3793 H3787 0.950 . S
C3793 C3792 1.327 . S
C3793 C3797 1.429 . S
C3794 C3777 1.574 . S
C3794 H3788 0.949 . S
C3794 C3798 1.368 . S
C3795 C3776 1.429 . S
C3795 C3789 1.429 . S
C3795 C3796 1.523 . S
C3796 C3777 1.368 . S
C3796 C3790 1.368 . S
C3796 C3795 1.523 . S
C3797 C3781 1.429 . S
C3797 C3793 1.429 . S
C3797 C3798 1.523 1_556 S
C3798 C3782 1.368 . S
C3798 C3794 1.368 . S
C3798 C3797 1.523 1_554 S
H3799 C3774 0.950 . S
H3800 C3776 0.950 . S
H3801 C3777 0.949 . S
H3802 C3779 0.950 . S
H3803 C3781 0.950 . S
C3804 C3805 1.349 . S
C3804 C3806 1.327 . S
C3804 H3829 0.950 . S
C3805 C3804 1.349 . S
C3805 C3821 1.349 . S
C3806 C3804 1.327 . S
C3806 C3825 1.429 . S
C3806 H3830 0.950 . S
C3807 C3824 1.574 . S
C3807 C3826 1.368 . S
C3807 H3831 0.949 . S
H3808 C3812 0.949 . S
C3809 C3810 1.349 . S
C3809 C3811 1.327 . S
C3809 H3832 0.950 . S
C3810 C3809 1.349 . S
C3810 C3822 1.349 . S
C3811 C3809 1.327 . S
C3811 C3827 1.429 . S
C3811 H3833 0.950 . S
C3812 H3808 0.949 . S
C3812 C3820 1.574 . S
C3812 C3828 1.368 . S
H3813 C3821 0.950 . S
H3814 C3819 0.950 . S
H3815 C3820 0.949 . S
H3816 C3822 0.950 . S
H3817 C3823 0.950 . S
H3818 C3824 0.949 . S
C3819 H3814 0.950 . S
C3819 C3821 1.327 . S
C3819 C3825 1.429 . S
C3820 C3812 1.574 . S
C3820 H3815 0.949 . S
C3820 C3826 1.368 . S
C3821 C3805 1.349 . S
C3821 H3813 0.950 . S
C3821 C3819 1.327 . S
C3822 C3810 1.349 . S
C3822 H3816 0.950 . S
C3822 C3823 1.327 . S
C3823 H3817 0.950 . S
C3823 C3822 1.327 . S
C3823 C3827 1.429 . S
C3824 C3807 1.574 . S
C3824 H3818 0.949 . S
C3824 C3828 1.368 . S
C3825 C3806 1.429 . S
C3825 C3819 1.429 . S
C3825 C3826 1.523 1_556 S
C3826 C3807 1.368 . S
C3826 C3820 1.368 . S
C3826 C3825 1.523 1_554 S
C3827 C3811 1.429 . S
C3827 C3823 1.429 . S
C3827 C3828 1.523 . S
C3828 C3812 1.368 . S
C3828 C3824 1.368 . S
C3828 C3827 1.523 . S
H3829 C3804 0.950 . S
H3830 C3806 0.950 . S
H3831 C3807 0.949 . S
H3832 C3809 0.950 . S
H3833 C3811 0.950 . S
C3834 C3835 1.349 1_554 S
C3834 C3836 1.327 . S
C3834 H3859 0.950 1_554 S
C3835 C3834 1.349 1_556 S
C3835 C3851 1.349 1_556 S
C3836 C3834 1.327 . S
C3836 C3855 1.429 . S
C3836 H3860 0.950 . S
C3837 C3854 1.574 . S
C3837 C3856 1.368 . S
C3837 H3861 0.949 . S
H3838 C3842 0.949 . S
C3839 C3840 1.349 . S
C3839 C3841 1.327 . S
C3839 H3862 0.950 . S
C3840 C3839 1.349 . S
C3840 C3852 1.349 . S
C3841 C3839 1.327 . S
C3841 C3857 1.429 . S
C3841 H3863 0.950 . S
C3842 H3838 0.949 . S
C3842 C3850 1.574 . S
C3842 C3858 1.368 . S
H3843 C3851 0.950 1_556 S
H3844 C3849 0.950 . S
H3845 C3850 0.949 . S
H3846 C3852 0.950 . S
H3847 C3853 0.950 . S
H3848 C3854 0.949 . S
C3849 H3844 0.950 . S
C3849 C3851 1.327 . S
C3849 C3855 1.429 . S
C3850 C3842 1.574 . S
C3850 H3845 0.949 . S
C3850 C3856 1.368 . S
C3851 C3835 1.349 1_554 S
C3851 H3843 0.950 1_554 S
C3851 C3849 1.327 . S
C3852 C3840 1.349 . S
C3852 H3846 0.950 . S
C3852 C3853 1.327 . S
C3853 H3847 0.950 . S
C3853 C3852 1.327 . S
C3853 C3857 1.429 . S
C3854 C3837 1.574 . S
C3854 H3848 0.949 . S
C3854 C3858 1.368 . S
C3855 C3836 1.429 . S
C3855 C3849 1.429 . S
C3855 C3856 1.523 . S
C3856 C3837 1.368 . S
C3856 C3850 1.368 . S
C3856 C3855 1.523 . S
C3857 C3841 1.429 . S
C3857 C3853 1.429 . S
C3857 C3858 1.523 . S
C3858 C3842 1.368 . S
C3858 C3854 1.368 . S
C3858 C3857 1.523 . S
H3859 C3834 0.950 1_556 S
H3860 C3836 0.950 . S
H3861 C3837 0.949 . S
H3862 C3839 0.950 . S
H3863 C3841 0.950 . S
C3864 C3865 1.349 1_554 S
C3864 C3866 1.327 . S
C3864 H3889 0.943 1_554 S
C3865 C3864 1.349 1_556 S
C3865 C3881 1.349 1_556 S
C3866 C3864 1.327 . S
C3866 C3885 1.429 . S
C3866 H3890 0.950 . S
C3867 C3884 1.574 . S
C3867 C3886 1.368 . S
C3867 H3891 0.949 . S
H3868 C3872 0.949 . S
C3869 C3870 1.349 . S
C3869 C3871 1.327 . S
C3869 H3892 0.950 . S
C3870 C3869 1.349 . S
C3870 C3882 1.349 . S
C3871 C3869 1.327 . S
C3871 C3887 1.429 . S
C3871 H3893 0.950 . S
C3872 H3868 0.949 . S
C3872 C3880 1.574 . S
C3872 C3888 1.368 . S
H3873 C3881 0.950 1_556 S
H3874 C3879 0.950 . S
H3875 C3880 0.949 . S
H3876 C3882 0.950 . S
H3877 C3883 0.950 . S
H3878 C3884 0.949 . S
C3879 H3874 0.950 . S
C3879 C3881 1.327 . S
C3879 C3885 1.429 . S
C3880 C3872 1.574 . S
C3880 H3875 0.949 . S
C3880 C3886 1.368 . S
C3881 C3865 1.349 1_554 S
C3881 H3873 0.950 1_554 S
C3881 C3879 1.327 . S
C3882 C3870 1.349 . S
C3882 H3876 0.950 . S
C3882 C3883 1.327 . S
C3883 H3877 0.950 . S
C3883 C3882 1.327 . S
C3883 C3887 1.429 . S
C3884 C3867 1.574 . S
C3884 H3878 0.949 . S
C3884 C3888 1.368 . S
C3885 C3866 1.429 . S
C3885 C3879 1.429 . S
C3885 C3886 1.523 . S
C3886 C3867 1.368 . S
C3886 C3880 1.368 . S
C3886 C3885 1.523 . S
C3887 C3871 1.429 . S
C3887 C3883 1.429 . S
C3887 C3888 1.523 . S
C3888 C3872 1.368 . S
C3888 C3884 1.368 . S
C3888 C3887 1.523 . S
H3889 C3864 0.943 1_556 S
H3890 C3866 0.950 . S
H3891 C3867 0.949 . S
H3892 C3869 0.950 . S
H3893 C3871 0.950 . S
C3894 C3895 1.349 . S
C3894 C3896 1.327 . S
C3894 H3919 0.950 . S
C3895 C3894 1.349 . S
C3895 C3911 1.349 . S
C3896 C3894 1.327 . S
C3896 C3915 1.429 . S
C3896 H3920 0.950 . S
C3897 C3914 1.574 . S
C3897 C3916 1.368 . S
C3897 H3921 0.949 . S
H3898 C3902 0.949 . S
C3899 C3900 1.349 1_554 S
C3899 C3901 1.327 . S
C3899 H3922 0.950 1_554 S
C3900 C3899 1.349 1_556 S
C3900 C3912 1.349 1_556 S
C3901 C3899 1.327 . S
C3901 C3917 1.429 . S
C3901 H3923 0.950 . S
C3902 H3898 0.949 . S
C3902 C3910 1.574 . S
C3902 C3918 1.368 . S
H3903 C3911 0.950 . S
H3904 C3909 0.950 . S
H3905 C3910 0.949 . S
H3906 C3912 0.950 1_556 S
H3907 C3913 0.950 . S
H3908 C3914 0.949 . S
C3909 H3904 0.950 . S
C3909 C3911 1.327 . S
C3909 C3915 1.429 . S
C3910 C3902 1.574 . S
C3910 H3905 0.949 . S
C3910 C3916 1.368 . S
C3911 C3895 1.349 . S
C3911 H3903 0.950 . S
C3911 C3909 1.327 . S
C3912 C3900 1.349 1_554 S
C3912 H3906 0.950 1_554 S
C3912 C3913 1.327 . S
C3913 H3907 0.950 . S
C3913 C3912 1.327 . S
C3913 C3917 1.429 . S
C3914 C3897 1.574 . S
C3914 H3908 0.949 . S
C3914 C3918 1.368 . S
C3915 C3896 1.429 . S
C3915 C3909 1.429 . S
C3915 C3916 1.523 . S
C3916 C3897 1.368 . S
C3916 C3910 1.368 . S
C3916 C3915 1.523 . S
C3917 C3901 1.429 . S
C3917 C3913 1.429 . S
C3917 C3918 1.523 . S
C3918 C3902 1.368 . S
C3918 C3914 1.368 . S
C3918 C3917 1.523 . S
H3919 C3894 0.950 . S
H3920 C3896 0.950 . S
H3921 C3897 0.949 . S
H3922 C3899 0.950 1_556 S
H3923 C3901 0.950 . S
C1225 C20 1.567 . S
C1230 C530 1.567 . S
C1255 C564 1.567 . S
C1260 C54 1.567 . S
C1285 C88 1.566 . S
C1290 C598 1.566 . S
C1315 C836 1.567 . S
C1320 C122 1.567 . S
C1345 C870 1.566 . S
C1350 C156 1.566 . S
C1375 C190 1.567 . S
C1380 C904 1.567 . S
C1405 C224 1.567 . S
C1410 C1142 1.567 . S
C1435 C1176 1.567 . S
C1440 C258 1.567 . S
C1465 C292 1.566 . S
C1470 C1210 1.566 . S
C1495 C632 1.567 . S
C1500 C326 1.567 . S
C1525 C360 1.566 . S
C1530 C666 1.566 . S
C1555 C700 1.567 . S
C1560 C394 1.567 . S
C1585 C428 1.567 . S
C1590 C938 1.567 . S
C1615 C462 1.567 . S
C1620 C972 1.567 . S
C1645 C1006 1.567 . S
C1650 C496 1.567 . S
C1675 C1040 1.567 . S
C1680 C734 1.567 . S
C1705 C1074 1.567 . S
C1710 C768 1.567 . S
C1735 C802 1.567 . S
C1740 C1108 1.567 . S
C1765 C2 1.541 . S
C1770 C376 1.541 . S
C1795 C36 1.541 . S
C1800 C308 1.541 . S
C1825 C70 1.541 . S
C1830 C342 1.541 . S
C1855 C240 1.541 . S
C1860 C104 1.541 . S
C1885 C274 1.541 . S
C1890 C138 1.541 . S
C1915 C172 1.541 . S
C1920 C206 1.541 . S
C1945 C410 1.541 . S
C1950 C784 1.541 . S
C1975 C716 1.541 . S
C1980 C444 1.541 . S
C2005 C478 1.541 . S
C2010 C750 1.541 . S
C2035 C512 1.541 . S
C2040 C648 1.541 . S
C2065 C546 1.541 . S
C2070 C682 1.541 . S
C2095 C580 1.541 . S
C2100 C614 1.541 . S
C2125 C818 1.541 . S
C2130 C1192 1.541 . S
C2155 C1124 1.541 . S
C2160 C852 1.541 . S
C2185 C1158 1.541 . S
C2190 C886 1.541 . S
C2215 C1056 1.541 . S
C2220 C920 1.541 . S
C2245 C954 1.541 . S
C2250 C1090 1.541 . S
C2275 C988 1.541 . S
C2280 C1022 1.541 . S
C2305 C1019 1.494 . S
C2310 C33 1.494 1_556 S
C2335 C67 1.494 1_556 S
C2340 C951 1.494 . S
C2365 C101 1.493 1_556 S
C2370 C985 1.493 . S
C2395 C475 1.494 . S
C2400 C135 1.494 1_554 S
C2425 C169 1.493 1_554 S
C2430 C509 1.493 . S
C2455 C203 1.494 1_554 S
C2460 C441 1.494 . S
C2485 C815 1.494 . S
C2490 C237 1.494 1_554 S
C2515 C271 1.494 1_554 S
C2520 C747 1.494 . S
C2545 C781 1.493 . S
C2550 C305 1.493 1_554 S
C2575 C1087 1.494 . S
C2580 C339 1.494 1_556 S
C2605 C1121 1.493 . S
C2610 C373 1.493 1_556 S
C2635 C1053 1.494 . S
C2640 C407 1.494 1_556 S
C2665 C543 1.493 . S
C2670 C883 1.493 . S
C2695 C917 1.493 . S
C2700 C577 1.493 . S
C2725 C611 1.493 . S
C2730 C849 1.493 . S
C2755 C645 1.493 . S
C2760 C1223 1.493 . S
C2785 C679 1.493 . S
C2790 C1155 1.493 . S
C2815 C713 1.493 . S
C2820 C1189 1.493 . S
C2845 C9 0.915 . S
C2850 C5 0.928 . S
C2875 C43 0.915 . S
C2880 C39 0.928 . S
C2905 C77 0.915 . S
C2910 C73 0.928 . S
C2935 C107 0.928 . S
C2940 C111 0.915 . S
C2965 C145 0.915 . S
C2970 C141 0.928 . S
C2995 C175 0.928 . S
C3000 C179 0.915 . S
C3025 C213 0.915 . S
C3030 C209 0.928 . S
C3055 C243 0.928 . S
C3060 C247 0.915 . S
C3085 C277 0.928 . S
C3090 C281 0.915 . S
C3115 C315 0.915 . S
C3120 C311 0.928 . S
C3145 C349 0.915 . S
C3150 C345 0.928 . S
C3175 C379 0.928 . S
C3180 C383 0.915 . S
C3205 C413 0.928 . S
C3210 C417 0.915 . S
C3235 C447 0.928 . S
C3240 C451 0.915 . S
C3265 C485 0.915 . S
C3270 C481 0.928 . S
C3295 C515 0.928 . S
C3300 C519 0.915 . S
C3325 C549 0.928 . S
C3330 C553 0.915 . S
C3355 C587 0.915 . S
C3360 C583 0.928 . S
C3385 C617 0.928 . S
C3390 C621 0.915 . S
C3415 C655 0.915 . S
C3420 C651 0.928 . S
C3445 C689 0.915 . S
C3450 C685 0.928 . S
C3475 C719 0.928 . S
C3480 C723 0.915 . S
C3505 C753 0.928 . S
C3510 C757 0.915 . S
C3535 C787 0.928 . S
C3540 C791 0.915 . S
C3565 C821 0.928 . S
C3570 C825 0.915 . S
C3595 C855 0.928 . S
C3600 C859 0.915 . S
C3625 C893 0.915 . S
C3630 C889 0.928 . S
C3655 C927 0.915 . S
C3660 C923 0.928 . S
C3685 C961 0.915 . S
C3690 C957 0.928 . S
C3715 C995 0.915 . S
C3720 C991 0.928 . S
C3745 C1029 0.915 . S
C3750 C1025 0.928 . S
C3775 C1063 0.915 . S
C3780 C1059 0.928 . S
C3805 C1093 0.928 . S
C3810 C1097 0.915 . S
C3835 C1131 0.915 . S
C3840 C1127 0.928 . S
C3865 C1165 0.915 . S
C3870 C1161 0.928 . S
C3895 C1195 0.928 . S
C3900 C1199 0.915 . S
