# Generated by pormake.
# Topology sml, (6)-cn, num edge types: 1
# Building blocks:
#     Node 0, Type 0, BuildingBlock: MIDCAF_clean_sbu_0, # of connection points: 6
#     Node 1, Type 0, BuildingBlock: MIDCAF_clean_sbu_0, # of connection points: 6
#     Node 2, Type 0, BuildingBlock: MIDCAF_clean_sbu_0, # of connection points: 6
#     Node 3, Type 0, BuildingBlock: MIDCAF_clean_sbu_0, # of connection points: 6
#     Node 4, Type 0, BuildingBlock: MIDCAF_clean_sbu_0, # of connection points: 6
#     Node 5, Type 0, BuildingBlock: MIDCAF_clean_sbu_0, # of connection points: 6
#     Edge 6, Type (0, 0), BuildingBlock: CIFDUS_clean_linker_0, # of connection points: 2
#     Edge 7, Type (0, 0), BuildingBlock: CIFDUS_clean_linker_0, # of connection points: 2
#     Edge 8, Type (0, 0), BuildingBlock: CIFDUS_clean_linker_0, # of connection points: 2
#     Edge 9, Type (0, 0), BuildingBlock: CIFDUS_clean_linker_0, # of connection points: 2
#     Edge 10, Type (0, 0), BuildingBlock: CIFDUS_clean_linker_0, # of connection points: 2
#     Edge 11, Type (0, 0), BuildingBlock: CIFDUS_clean_linker_0, # of connection points: 2
#     Edge 12, Type (0, 0), BuildingBlock: CIFDUS_clean_linker_0, # of connection points: 2
#     Edge 13, Type (0, 0), BuildingBlock: CIFDUS_clean_linker_0, # of connection points: 2
#     Edge 14, Type (0, 0), BuildingBlock: CIFDUS_clean_linker_0, # of connection points: 2
#     Edge 15, Type (0, 0), BuildingBlock: CIFDUS_clean_linker_0, # of connection points: 2
#     Edge 16, Type (0, 0), BuildingBlock: CIFDUS_clean_linker_0, # of connection points: 2
#     Edge 17, Type (0, 0), BuildingBlock: CIFDUS_clean_linker_0, # of connection points: 2
#     Edge 18, Type (0, 0), BuildingBlock: CIFDUS_clean_linker_0, # of connection points: 2
#     Edge 19, Type (0, 0), BuildingBlock: CIFDUS_clean_linker_0, # of connection points: 2
#     Edge 20, Type (0, 0), BuildingBlock: CIFDUS_clean_linker_0, # of connection points: 2
#     Edge 21, Type (0, 0), BuildingBlock: CIFDUS_clean_linker_0, # of connection points: 2
#     Edge 22, Type (0, 0), BuildingBlock: CIFDUS_clean_linker_0, # of connection points: 2
#     Edge 23, Type (0, 0), BuildingBlock: CIFDUS_clean_linker_0, # of connection points: 2
# Relax obj value: 0.361
# Max RMSD: 0.205
# Mean RMSD: 0.205
data_MOF--net-sml--node1-MIDCAF_clean_sbu_0--edge1-CIFDUS_clean_linker_0
_symmetry_space_group_name_H-M    P1
_symmetry_Int_Tables_number       1
_symmetry_cell_setting            triclinic
loop_
_symmetry_equiv_pos_as_xyz
'x, y, z'
_cell_length_a     34.354084
_cell_length_b     34.884319
_cell_length_c     12.093355
_cell_angle_alpha  90.509852
_cell_angle_beta   88.617274
_cell_angle_gamma 119.96222
loop_
_atom_site_label
_atom_site_type_symbol
_atom_site_fract_x
_atom_site_fract_y
_atom_site_fract_z
_atom_type_partial_charge
Zn0 Zn 0.23784 0.43956 0.77369 0.0
Zn1 Zn 0.16007 0.43403 0.0772 0.0
Zn2 Zn 0.19831 0.433 0.92389 0.0
C3 C 0.09562 0.39692 0.96228 0.0
C4 C 0.19116 0.37927 0.11935 0.0
O5 O 0.23165 0.50249 0.86332 0.0
O6 O 0.23242 0.48564 0.68898 0.0
C7 C 0.16002 0.36674 0.74189 0.0
O8 O 0.12383 0.38686 0.91895 0.0
O9 O 0.11134 0.4364 -0.00621 0.0
O10 O 0.15211 0.37345 0.11182 0.0
O11 O 0.22125 0.40652 0.05113 0.0
O12 O 0.1991 0.37291 0.75185 0.0
O13 O 0.14957 0.39102 0.80122 0.0
O14 O 0.24837 0.40939 0.94232 0.0
O15 O 0.29859 0.45974 0.83105 0.0
C16 C 0.28738 0.42694 0.8935 0.0
O17 O 0.21711 0.5021 0.97242 0.0
O18 O 0.20491 0.49013 0.15152 0.0
C19 C 0.23926 0.51455 0.76102 0.0
C20 C 0.22041 0.51719 0.07165 0.0
Zn21 Zn 0.74931 0.15486 0.55733 0.0
Zn22 Zn 0.83531 0.27832 0.41058 0.0
Zn23 Zn 0.79096 0.19737 0.39936 0.0
C24 C 0.90324 0.27136 0.41054 0.0
C25 C 0.83952 0.2476 0.1897 0.0
O26 O 0.73695 0.21026 0.45714 0.0
O27 O 0.72787 0.19202 0.63332 0.0
C28 C 0.83597 0.18689 0.60206 0.0
O29 O 0.86876 0.23402 0.38322 0.0
O30 O 0.89669 0.29884 0.46606 0.0
O31 O 0.84674 0.28219 0.24091 0.0
O32 O 0.82066 0.21066 0.24052 0.0
O33 O 0.80078 0.14987 0.61585 0.0
O34 O 0.83613 0.21338 0.53032 0.0
O35 O 0.75854 0.12539 0.36551 0.0
O36 O 0.70179 0.10267 0.48224 0.0
C37 C 0.72118 0.09401 0.40445 0.0
O38 O 0.76156 0.24163 0.34498 0.0
O39 O 0.79932 0.3075 0.42656 0.0
C40 C 0.71909 0.20904 0.5529 0.0
C41 C 0.76991 0.28223 0.35846 0.0
Zn42 Zn 0.53371 0.65595 0.60513 0.0
Zn43 Zn 0.64151 0.82199 0.33845 0.0
Zn44 Zn 0.57711 0.75262 0.63907 0.0
C45 C 0.63761 0.84624 0.56358 0.0
C46 C 0.62271 0.74145 0.4447 0.0
O47 O 0.50959 0.72317 0.70322 0.0
O48 O 0.4825 0.67034 0.57901 0.0
C49 C 0.53644 0.68585 0.83787 0.0
O50 O 0.6059 0.823 0.63243 0.0
O51 O 0.65362 0.82619 0.50677 0.0
O52 O 0.64586 0.78285 0.46187 0.0
O53 O 0.59354 0.71834 0.51808 0.0
O54 O 0.53895 0.65671 0.77814 0.0
O55 O 0.54107 0.72136 0.79325 0.0
O56 O 0.63107 0.74263 0.68731 0.0
O57 O 0.58978 0.67011 0.70647 0.0
C58 C 0.6267 0.7061 0.72127 0.0
O59 O 0.5613 0.77314 0.48391 0.0
O60 O 0.57396 0.80336 0.31752 0.0
C61 C 0.47625 0.69423 0.64872 0.0
C62 C 0.54676 0.78318 0.39848 0.0
Zn63 Zn 0.87361 0.53117 0.00914 0.0
Zn64 Zn 0.8285 0.62307 0.91626 0.0
Zn65 Zn 0.81885 0.5749 0.06539 0.0
C66 C 0.78828 0.64945 0.04888 0.0
C67 C 0.87627 0.59213 0.85191 0.0
O68 O 0.78402 0.51132 0.13532 0.0
O69 O 0.80484 0.48205 0.00145 0.0
C70 C 0.85878 0.53503 0.24382 0.0
O71 O 0.77825 0.61027 0.08056 0.0
O72 O 0.8246 0.67186 -0.00538 0.0
O73 O 0.88896 0.63262 0.86355 0.0
O74 O 0.84283 0.56403 0.90969 0.0
O75 O 0.88713 0.53496 0.17421 0.0
O76 O 0.82907 0.54501 0.21437 0.0
O77 O 0.87773 0.62675 0.1345 0.0
O78 O 0.91584 0.59293 0.08882 0.0
C79 C 0.91446 0.62578 0.13225 0.0
O80 O 0.75215 0.56048 0.04188 0.0
O81 O 0.76675 0.56605 0.86442 0.0
C82 C 0.77736 0.47731 0.07975 0.0
C83 C 0.73848 0.54751 0.94375 0.0
Zn84 Zn 0.30535 0.83555 0.48375 0.0
Zn85 Zn 0.16032 0.78838 0.16231 0.0
Zn86 Zn 0.25078 0.81616 0.36739 0.0
C87 C 0.1523 0.78452 0.39287 0.0
C88 C 0.23704 0.87087 0.20651 0.0
O89 O 0.29004 0.78312 0.31984 0.0
O90 O 0.35239 0.83885 0.38069 0.0
C91 C 0.2375 0.78394 0.60484 0.0
O92 O 0.18234 0.77976 0.44088 0.0
O93 O 0.16644 0.81465 0.32014 0.0
O94 O 0.19778 0.84719 0.24685 0.0
O95 O 0.26857 0.87492 0.26799 0.0
O96 O 0.27162 0.7812 0.57662 0.0
O97 O 0.22145 0.7991 0.53363 0.0
O98 O 0.29174 0.89025 0.36943 0.0
O99 O 0.31106 0.89168 0.5418 0.0
C100 C 0.30792 0.91186 0.45958 0.0
O101 O 0.24677 0.7657 0.25544 0.0
O102 O 0.189 0.74723 0.14147 0.0
C103 C 0.33306 0.80303 0.32782 0.0
C104 C 0.22063 0.74165 0.17775 0.0
Zn105 Zn 0.40476 0.27767 0.84309 0.0
Zn106 Zn 0.52131 0.26257 0.32049 0.0
Zn107 Zn 0.45378 0.26149 0.57126 0.0
C108 C 0.44661 0.17597 0.44904 0.0
C109 C 0.45955 0.28892 0.34196 0.0
O110 O 0.49967 0.31464 0.68095 0.0
O111 O 0.47245 0.32876 0.8383 0.0
C112 C 0.40114 0.19847 0.74148 0.0
O113 O 0.43767 0.19403 0.53245 0.0
O114 O 0.47522 0.19866 0.3725 0.0
O115 O 0.49907 0.30444 0.37613 0.0
O116 O 0.42843 0.27297 0.41616 0.0
O117 O 0.38701 0.2255 0.73005 0.0
O118 O 0.42494 0.19775 0.65989 0.0
O119 O 0.41298 0.29226 0.5263 0.0
O120 O 0.38726 0.26009 0.68244 0.0
C121 C 0.38989 0.28836 0.61371 0.0
O122 O 0.52567 0.29636 0.61052 0.0
O123 O 0.53547 0.3103 0.43729 0.0
C124 C 0.50476 0.33797 0.76873 0.0
C125 C 0.55168 0.3059 0.52605 0.0
H126 H 0.33473 0.27853 0.78596 0.0
H127 H 0.41641 0.37189 0.53091 0.0
H128 H 0.39697 0.42579 0.60805 0.0
H129 H 0.35469 0.44466 0.74334 0.0
H130 H 0.27039 0.34934 -0.00729 0.0
H131 H 0.29523 0.29847 0.92549 0.0
C132 C 0.34864 0.3108 0.74719 0.0
C133 C 0.37708 0.32118 0.65244 0.0
C134 C 0.33762 0.34142 0.7925 0.0
C135 C 0.39423 0.36291 0.60298 0.0
C136 C 0.38341 0.39379 0.64784 0.0
C137 C 0.34226 0.41312 0.78492 0.0
C138 C 0.31052 0.40096 0.87364 0.0
C139 C 0.35505 0.38328 0.74242 0.0
C140 C 0.29492 0.35979 0.92526 0.0
C141 C 0.30869 0.33047 0.88575 0.0
H142 H 0.08488 0.40167 0.18128 0.0
H143 H 0.0241 0.31515 0.90393 0.0
H144 H 0.96243 0.26244 0.02676 0.0
H145 H 0.92236 0.24569 0.21076 0.0
H146 H 0.98428 0.33592 0.48114 0.0
H147 H 0.05044 0.38118 0.36481 0.0
C148 C 0.05805 0.37137 0.14693 0.0
C149 C 0.05826 0.36304 0.03257 0.0
C150 C 0.02337 0.34155 0.21768 0.0
C151 C 0.02416 0.32279 -0.00906 0.0
C152 C 0.98904 0.29268 0.0614 0.0
C153 C 0.95059 0.27487 0.24442 0.0
C154 C 0.94774 0.28797 0.35394 0.0
C155 C 0.98776 0.30225 0.17465 0.0
C156 C 0.98528 0.32524 0.39722 0.0
C157 C 0.02289 0.3515 0.33016 0.0
H158 H 0.6407 0.02425 0.46215 0.0
H159 H 0.7687 0.05682 0.31144 0.0
H160 H 0.75182 0.98042 0.33938 0.0
H161 H 0.7057 0.90793 0.43351 0.0
H162 H 0.58156 0.87974 0.60011 0.0
H163 H 0.59242 0.95113 0.54134 0.0
C164 C 0.66463 0.01453 0.43303 0.0
C165 C 0.70619 0.0465 0.38589 0.0
C166 C 0.65592 0.97157 0.45554 0.0
C167 C 0.73643 0.03302 0.34759 0.0
C168 C 0.72705 0.98945 0.36527 0.0
C169 C 0.68089 0.91734 0.4561 0.0
C170 C 0.64322 0.88876 0.52272 0.0
C171 C 0.68781 0.95905 0.42375 0.0
C172 C 0.61123 0.9013 0.55077 0.0
C173 C 0.61726 0.94205 0.51652 0.0
H174 H 0.61607 0.64249 0.8676 0.0
H175 H 0.71575 0.76907 0.73335 0.0
H176 H 0.77357 0.76662 0.84253 0.0
H177 H 0.79695 0.72497 0.95997 0.0
H178 H 0.69738 0.59765 0.09153 0.0
H179 H 0.6382 0.60494 0.00334 0.0
C180 C 0.65049 0.66954 0.86188 0.0
C181 C 0.66178 0.70542 0.7898 0.0
C182 C 0.68346 0.66808 0.92578 0.0
C183 C 0.70625 0.74078 0.78652 0.0
C184 C 0.73928 0.73946 0.84941 0.0
C185 C 0.76221 0.69919 0.97197 0.0
C186 C 0.75202 0.66035 0.03101 0.0
C187 C 0.72844 0.70285 0.91751 0.0
C188 C 0.70658 0.62777 0.04635 0.0
C189 C 0.67265 0.63166 -0.00549 0.0
H190 H 0.07733 0.78873 0.36321 0.0
H191 H 0.12583 0.69631 0.37526 0.0
H192 H 0.05586 0.63896 0.29445 0.0
H193 H 0.98476 0.61791 0.20283 0.0
H194 H 0.93461 0.70929 0.19704 0.0
H195 H 1.00191 0.76471 0.2914 0.0
C196 C 0.07193 0.75557 0.3512 0.0
C197 C 0.10652 0.74663 0.37617 0.0
C198 C 0.03198 0.72312 0.30302 0.0
C199 C 0.09945 0.70379 0.35901 0.0
C200 C 0.05972 0.67125 0.31102 0.0
C201 C 0.98837 0.64992 0.2223 0.0
C202 C 0.95477 0.65959 0.19129 0.0
C203 C 0.02645 0.68103 0.2795 0.0
C204 C 0.9599 0.701 0.21914 0.0
C205 C 0.99832 0.73262 0.27349 0.0
H206 H 0.39257 0.11161 0.59998 0.0
H207 H 0.44178 0.13023 0.26136 0.0
H208 H 0.39953 0.05092 0.23073 0.0
H209 H 0.35098 0.97522 0.30128 0.0
H210 H 0.30509 0.95604 0.64181 0.0
H211 H 0.3426 0.036 0.66938 0.0
C212 C 0.39405 0.09839 0.51953 0.0
C213 C 0.42086 0.12716 0.43391 0.0
C214 C 0.36981 0.05233 0.50211 0.0
C215 C 0.42209 0.10911 0.32989 0.0
C216 C 0.39763 0.06358 0.31165 0.0
C217 C 0.34861 0.98869 0.38074 0.0
C218 C 0.32525 0.95992 0.46911 0.0
C219 C 0.37161 0.03478 0.39724 0.0
C220 C 0.32298 0.97767 0.57241 0.0
C221 C 0.34458 0.02338 0.58847 0.0
H222 H 0.17853 0.42525 0.58724 0.0
H223 H 0.11245 0.28497 0.6416 0.0
H224 H 0.12245 0.27387 0.44315 0.0
H225 H 0.15634 0.3074 0.25697 0.0
H226 H 0.24863 0.44811 0.23913 0.0
H227 H 0.22835 0.45661 0.42762 0.0
C228 C 0.16641 0.39227 0.55611 0.0
C229 C 0.14444 0.35621 0.62833 0.0
C230 C 0.18056 0.38688 0.45135 0.0
C231 C 0.12821 0.3133 0.58654 0.0
C232 C 0.13553 0.30716 0.47454 0.0
C233 C 0.17399 0.33945 0.29677 0.0
C234 C 0.20297 0.37732 0.23343 0.0
C235 C 0.16344 0.34402 0.40734 0.0
C236 C 0.22606 0.41855 0.28591 0.0
C237 C 0.21335 0.42369 0.39244 0.0
H238 H 0.85683 0.189 0.08564 0.0
H239 H 0.8625 0.31432 0.04133 0.0
H240 H 0.88108 0.31421 0.84503 0.0
H241 H 0.87615 0.2694 0.68409 0.0
H242 H 0.86357 0.14123 0.72886 0.0
H243 H 0.87121 0.15317 0.92804 0.0
C244 C 0.86264 0.21652 0.03317 0.0
C245 C 0.85653 0.25069 0.07593 0.0
C246 C 0.87305 0.2161 0.92115 0.0
C247 C 0.86593 0.28708 0.00887 0.0
C248 C 0.87683 0.28718 0.89705 0.0
C249 C 0.8775 0.2451 0.7368 0.0
C250 C 0.86723 0.20369 0.6937 0.0
C251 C 0.87796 0.25065 0.85143 0.0
C252 C 0.87028 0.17292 0.76163 0.0
C253 C 0.87361 0.17933 0.87556 0.0
H254 H 0.54418 0.67925 0.35462 0.0
H255 H 0.68379 0.77146 0.27723 0.0
H256 H 0.66861 0.76103 0.07994 0.0
H257 H 0.61431 0.73374 0.93311 0.0
H258 H 0.4753 0.63941 0.00365 0.0
H259 H 0.49098 0.64384 0.20269 0.0
C260 C 0.57145 0.69608 0.29447 0.0
C261 C 0.61501 0.72642 0.3296 0.0
C262 C 0.56224 0.69071 0.18138 0.0
C263 C 0.65003 0.74819 0.25131 0.0
C264 C 0.64132 0.74259 0.13897 0.0
C265 C 0.58772 0.71347 -0.00797 0.0
C266 C 0.54392 0.68643 0.95586 0.0
C267 C 0.59734 0.71529 0.10368 0.0
C268 C 0.50925 0.6606 0.03153 0.0
C269 C 0.51831 0.66303 0.14442 0.0
H270 H 0.82984 0.5142 0.74903 0.0
H271 H 0.95461 0.63848 0.73222 0.0
H272 H 0.96534 0.62485 0.53818 0.0
H273 H 0.92944 0.587 0.36685 0.0
H274 H 0.79852 0.47091 0.38067 0.0
H275 H 0.79943 0.47113 0.5824 0.0
C276 C 0.86014 0.5376 0.70401 0.0
C277 C 0.89086 0.57774 0.75305 0.0
C278 C 0.86414 0.53126 0.59125 0.0
C279 C 0.93018 0.60767 0.6947 0.0
C280 C 0.9361 0.60006 0.58385 0.0
C281 C 0.90185 0.56127 0.4145 0.0
C282 C 0.86357 0.52941 0.36081 0.0
C283 C 0.90177 0.56349 0.52984 0.0
C284 C 0.82773 0.49602 0.4217 0.0
C285 C 0.82843 0.49621 0.53665 0.0
H286 H 0.19907 0.82759 0.70476 0.0
H287 H 0.2645 0.75229 0.77293 0.0
H288 H 0.27961 0.78144 0.96016 0.0
H289 H 0.27681 0.83027 0.10256 0.0
H290 H 0.2026 0.89738 0.04563 0.0
H291 H 0.19054 0.87164 0.85359 0.0
C292 C 0.21521 0.81631 0.76166 0.0
C293 C 0.23091 0.78806 0.72441 0.0
C294 C 0.22393 0.83326 0.8696 0.0
C295 C 0.25207 0.77406 0.79938 0.0
C296 C 0.26141 0.79126 0.90599 0.0
C297 C 0.25853 0.83966 0.04748 0.0
C298 C 0.24111 0.86604 0.08689 0.0
C299 C 0.24847 0.82167 0.94101 0.0
C300 C 0.21707 0.87776 0.0156 0.0
C301 C 0.20937 0.86229 0.9069 0.0
H302 H 0.38824 0.21431 0.24795 0.0
H303 H 0.51778 0.32864 0.17421 0.0
H304 H 0.51792 0.30111 -0.01033 0.0
H305 H 0.47892 0.24919 0.84169 0.0
H306 H 0.34438 0.14201 0.89887 0.0
H307 H 0.34913 0.1602 0.09628 0.0
C308 C 0.41589 0.23357 0.19052 0.0
C309 C 0.45271 0.27379 0.22511 0.0
C310 C 0.41543 0.21807 0.0816 0.0
C311 C 0.48875 0.29781 0.14984 0.0
C312 C 0.48918 0.28192 0.04426 0.0
C313 C 0.4514 0.22882 0.89844 0.0
C314 C 0.41173 0.194 0.85624 0.0
C315 C 0.45264 0.24238 0.00868 0.0
C316 C 0.37579 0.16836 0.93003 0.0
C317 C 0.37803 0.1796 0.04238 0.0
H318 H 0.20526 0.57195 0.94521 0.0
H319 H 0.26581 0.56679 0.24861 0.0
H320 H 0.27651 0.6392 0.30217 0.0
H321 H 0.25958 0.69889 0.27389 0.0
H322 H 0.19182 0.70009 0.9791 0.0
H323 H 0.19301 0.63459 0.9111 0.0
C324 C 0.22181 0.58727 0.02167 0.0
C325 C 0.23495 0.56426 0.09265 0.0
C326 C 0.22582 0.62791 0.05435 0.0
C327 C 0.25556 0.58401 0.19255 0.0
C328 C 0.26141 0.62526 0.22346 0.0
C329 C 0.2459 0.68548 0.19372 0.0
C330 C 0.22577 0.70468 0.13171 0.0
C331 C 0.24528 0.64681 0.15677 0.0
C332 C 0.20746 0.68607 0.02885 0.0
C333 C 0.20809 0.64852 -0.01019 0.0
H334 H 0.67847 0.23065 0.3952 0.0
H335 H 0.68639 0.22374 0.74884 0.0
H336 H 0.63441 0.25215 0.77444 0.0
H337 H 0.58693 0.28002 0.6939 0.0
H338 H 0.59691 0.3034 0.34135 0.0
H339 H 0.64213 0.26856 0.31776 0.0
C340 C 0.67059 0.23709 0.47802 0.0
C341 C 0.68781 0.22655 0.56945 0.0
C342 C 0.64327 0.2561 0.49224 0.0
C343 C 0.67423 0.23216 0.67641 0.0
C344 C 0.64461 0.24859 0.69126 0.0
C345 C 0.59952 0.27796 0.61227 0.0
C346 C 0.58606 0.29195 0.51892 0.0
C347 C 0.62911 0.26105 0.59951 0.0
C348 C 0.60419 0.29055 0.41426 0.0
C349 C 0.63073 0.2711 0.40045 0.0
H350 H 0.29524 0.58293 0.89237 0.0
H351 H 0.25116 0.55102 0.55601 0.0
H352 H 0.32157 0.61354 0.48879 0.0
H353 H 0.4021 0.66198 0.52404 0.0
H354 H 0.44657 0.69307 0.85998 0.0
H355 H 0.3695 0.64683 0.92905 0.0
C356 C 0.29996 0.59092 0.80491 0.0
C357 C 0.26869 0.56146 0.72909 0.0
C358 C 0.34132 0.626 0.76646 0.0
C359 C 0.27523 0.57264 0.61597 0.0
C360 C 0.31576 0.60813 0.57725 0.0
C361 C 0.39454 0.65976 0.61219 0.0
C362 C 0.42984 0.67965 0.68694 0.0
C363 C 0.35025 0.63266 0.65128 0.0
C364 C 0.41988 0.67756 0.80086 0.0
C365 C 0.37582 0.65085 0.84048 0.0
H366 H 0.73602 0.33489 0.42025 0.0
H367 H 0.76018 0.27288 0.13773 0.0
H368 H 0.75368 0.3243 0.01396 0.0
H369 H 0.76068 0.39778 -0.00507 0.0
H370 H 0.72951 0.45562 0.27578 0.0
H371 H 0.71562 0.39271 0.39043 0.0
C372 C 0.73778 0.33142 0.3313 0.0
C373 C 0.74929 0.3009 0.28774 0.0
C374 C 0.73292 0.36032 0.26063 0.0
C375 C 0.75125 0.29624 0.17268 0.0
C376 C 0.74788 0.32585 0.10197 0.0
C377 C 0.74932 0.39596 0.0802 0.0
C378 C 0.74936 0.43273 0.12915 0.0
C379 C 0.74163 0.35978 0.14595 0.0
C380 C 0.73192 0.42866 0.23751 0.0
C381 C 0.72426 0.39281 0.30358 0.0
H382 H 0.36025 0.77126 0.48627 0.0
H383 H 0.36819 0.78967 0.13358 0.0
H384 H 0.43407 0.77934 0.1225 0.0
H385 H 0.49672 0.77812 0.21933 0.0
H386 H 0.49362 0.77464 0.57586 0.0
H387 H 0.41884 0.7657 0.58028 0.0
C388 C 0.37545 0.77124 0.40646 0.0
C389 C 0.35927 0.78051 0.31073 0.0
C390 C 0.41495 0.76887 0.40243 0.0
C391 C 0.37963 0.78164 0.20796 0.0
C392 C 0.41776 0.77659 0.20221 0.0
C393 C 0.47928 0.77474 0.29773 0.0
C394 C 0.50013 0.77526 0.39744 0.0
C395 C 0.43702 0.77239 0.29973 0.0
C396 C 0.47749 0.77181 0.4982 0.0
C397 C 0.43494 0.76751 0.50075 0.0
H398 H 0.69985 0.50651 0.7503 0.0
H399 H 0.67181 0.50648 0.10002 0.0
H400 H 0.59724 0.44224 0.07798 0.0
H401 H 0.54048 0.38378 0.96039 0.0
H402 H 0.56829 0.38561 0.61005 0.0
H403 H 0.64192 0.45046 0.63177 0.0
C404 C 0.67724 0.4928 0.82144 0.0
C405 C 0.69158 0.51149 0.92646 0.0
C406 C 0.63433 0.45543 0.80856 0.0
C407 C 0.66179 0.49296 0.0179 0.0
C408 C 0.61906 0.456 0.0056 0.0
C409 C 0.56267 0.39832 0.88889 0.0
C410 C 0.54921 0.37851 0.78438 0.0
C411 C 0.60509 0.43655 0.9015 0.0
C412 C 0.57828 0.39854 0.69243 0.0
C413 C 0.62035 0.43626 0.70437 0.0
loop_
_geom_bond_atom_site_label_1
_geom_bond_atom_site_label_2
_geom_bond_distance
_geom_bond_site_symmetry_2
_ccdc_geom_bond_type
Zn0 O6 1.920 . S
Zn0 O12 1.898 . S
Zn0 O15 1.905 . S
Zn1 O9 1.905 . S
Zn1 O10 1.898 . S
Zn1 O18 1.920 . S
Zn2 O5 2.080 1_554 S
Zn2 O8 2.114 . S
Zn2 O11 2.120 . S
Zn2 O13 2.120 1_554 S
Zn2 O14 2.114 1_554 S
Zn2 O17 2.080 . S
C3 O8 1.166 . S
C3 O9 1.182 . S
C4 O10 1.167 . S
C4 O11 1.299 . S
O5 Zn2 2.080 1_556 S
O5 C19 1.305 . S
O6 Zn0 1.920 . S
O6 C19 1.234 . S
C7 O12 1.167 . S
C7 O13 1.299 . S
O8 Zn2 2.114 . S
O8 C3 1.166 . S
O9 Zn1 1.905 . S
O9 C3 1.182 . S
O10 Zn1 1.898 . S
O10 C4 1.167 . S
O11 Zn2 2.120 . S
O11 C4 1.299 . S
O12 Zn0 1.898 . S
O12 C7 1.167 . S
O13 Zn2 2.120 1_556 S
O13 C7 1.299 . S
O14 Zn2 2.114 1_556 S
O14 C16 1.166 . S
O15 Zn0 1.905 . S
O15 C16 1.182 . S
C16 O14 1.166 . S
C16 O15 1.182 . S
O17 Zn2 2.080 . S
O17 C20 1.305 . S
O18 Zn1 1.920 . S
O18 C20 1.234 . S
C19 O5 1.305 . S
C19 O6 1.234 . S
C20 O17 1.305 . S
C20 O18 1.234 . S
Zn21 O27 1.920 . S
Zn21 O33 1.898 . S
Zn21 O36 1.905 . S
Zn22 O30 1.905 . S
Zn22 O31 1.898 . S
Zn22 O39 1.920 . S
Zn23 O26 2.080 . S
Zn23 O29 2.114 . S
Zn23 O32 2.120 . S
Zn23 O34 2.120 . S
Zn23 O35 2.114 . S
Zn23 O38 2.080 . S
C24 O29 1.166 . S
C24 O30 1.182 . S
C25 O31 1.167 . S
C25 O32 1.299 . S
O26 Zn23 2.080 . S
O26 C40 1.305 . S
O27 Zn21 1.920 . S
O27 C40 1.234 . S
C28 O33 1.167 . S
C28 O34 1.299 . S
O29 Zn23 2.114 . S
O29 C24 1.166 . S
O30 Zn22 1.905 . S
O30 C24 1.182 . S
O31 Zn22 1.898 . S
O31 C25 1.167 . S
O32 Zn23 2.120 . S
O32 C25 1.299 . S
O33 Zn21 1.898 . S
O33 C28 1.167 . S
O34 Zn23 2.120 . S
O34 C28 1.299 . S
O35 Zn23 2.114 . S
O35 C37 1.166 . S
O36 Zn21 1.905 . S
O36 C37 1.182 . S
C37 O35 1.166 . S
C37 O36 1.182 . S
O38 Zn23 2.080 . S
O38 C41 1.305 . S
O39 Zn22 1.920 . S
O39 C41 1.234 . S
C40 O26 1.305 . S
C40 O27 1.234 . S
C41 O38 1.305 . S
C41 O39 1.234 . S
Zn42 O48 1.920 . S
Zn42 O54 1.898 . S
Zn42 O57 1.905 . S
Zn43 O51 1.905 . S
Zn43 O52 1.898 . S
Zn43 O60 1.920 . S
Zn44 O47 2.080 . S
Zn44 O50 2.114 . S
Zn44 O53 2.120 . S
Zn44 O55 2.120 . S
Zn44 O56 2.114 . S
Zn44 O59 2.080 . S
C45 O50 1.166 . S
C45 O51 1.182 . S
C46 O52 1.167 . S
C46 O53 1.299 . S
O47 Zn44 2.080 . S
O47 C61 1.305 . S
O48 Zn42 1.920 . S
O48 C61 1.234 . S
C49 O54 1.167 . S
C49 O55 1.299 . S
O50 Zn44 2.114 . S
O50 C45 1.166 . S
O51 Zn43 1.905 . S
O51 C45 1.182 . S
O52 Zn43 1.898 . S
O52 C46 1.167 . S
O53 Zn44 2.120 . S
O53 C46 1.299 . S
O54 Zn42 1.898 . S
O54 C49 1.167 . S
O55 Zn44 2.120 . S
O55 C49 1.299 . S
O56 Zn44 2.114 . S
O56 C58 1.166 . S
O57 Zn42 1.905 . S
O57 C58 1.182 . S
C58 O56 1.166 . S
C58 O57 1.182 . S
O59 Zn44 2.080 . S
O59 C62 1.305 . S
O60 Zn43 1.920 . S
O60 C62 1.234 . S
C61 O47 1.305 . S
C61 O48 1.234 . S
C62 O59 1.305 . S
C62 O60 1.234 . S
Zn63 O69 1.920 . S
Zn63 O75 1.898 . S
Zn63 O78 1.905 . S
Zn64 O72 1.905 . S
Zn64 O73 1.898 . S
Zn64 O81 1.920 . S
Zn65 O68 2.080 . S
Zn65 O71 2.114 1_554 S
Zn65 O74 2.120 1_554 S
Zn65 O76 2.120 . S
Zn65 O77 2.114 . S
Zn65 O80 2.080 1_554 S
C66 O71 1.166 . S
C66 O72 1.182 . S
C67 O73 1.167 . S
C67 O74 1.299 . S
O68 Zn65 2.080 . S
O68 C82 1.305 . S
O69 Zn63 1.920 . S
O69 C82 1.234 . S
C70 O75 1.167 . S
C70 O76 1.299 . S
O71 Zn65 2.114 1_556 S
O71 C66 1.166 . S
O72 Zn64 1.905 . S
O72 C66 1.182 . S
O73 Zn64 1.898 . S
O73 C67 1.167 . S
O74 Zn65 2.120 1_556 S
O74 C67 1.299 . S
O75 Zn63 1.898 . S
O75 C70 1.167 . S
O76 Zn65 2.120 . S
O76 C70 1.299 . S
O77 Zn65 2.114 . S
O77 C79 1.166 . S
O78 Zn63 1.905 . S
O78 C79 1.182 . S
C79 O77 1.166 . S
C79 O78 1.182 . S
O80 Zn65 2.080 1_556 S
O80 C83 1.305 . S
O81 Zn64 1.920 . S
O81 C83 1.234 . S
C82 O68 1.305 . S
C82 O69 1.234 . S
C83 O80 1.305 . S
C83 O81 1.234 . S
Zn84 O90 1.920 . S
Zn84 O96 1.898 . S
Zn84 O99 1.905 . S
Zn85 O93 1.905 . S
Zn85 O94 1.898 . S
Zn85 O102 1.920 . S
Zn86 O89 2.080 . S
Zn86 O92 2.114 . S
Zn86 O95 2.120 . S
Zn86 O97 2.120 . S
Zn86 O98 2.114 . S
Zn86 O101 2.080 . S
C87 O92 1.166 . S
C87 O93 1.182 . S
C88 O94 1.167 . S
C88 O95 1.299 . S
O89 Zn86 2.080 . S
O89 C103 1.305 . S
O90 Zn84 1.920 . S
O90 C103 1.234 . S
C91 O96 1.167 . S
C91 O97 1.299 . S
O92 Zn86 2.114 . S
O92 C87 1.166 . S
O93 Zn85 1.905 . S
O93 C87 1.182 . S
O94 Zn85 1.898 . S
O94 C88 1.167 . S
O95 Zn86 2.120 . S
O95 C88 1.299 . S
O96 Zn84 1.898 . S
O96 C91 1.167 . S
O97 Zn86 2.120 . S
O97 C91 1.299 . S
O98 Zn86 2.114 . S
O98 C100 1.166 . S
O99 Zn84 1.905 . S
O99 C100 1.182 . S
C100 O98 1.166 . S
C100 O99 1.182 . S
O101 Zn86 2.080 . S
O101 C104 1.305 . S
O102 Zn85 1.920 . S
O102 C104 1.234 . S
C103 O89 1.305 . S
C103 O90 1.234 . S
C104 O101 1.305 . S
C104 O102 1.234 . S
Zn105 O111 1.920 . S
Zn105 O117 1.898 . S
Zn105 O120 1.905 . S
Zn106 O114 1.905 . S
Zn106 O115 1.898 . S
Zn106 O123 1.920 . S
Zn107 O110 2.080 . S
Zn107 O113 2.114 . S
Zn107 O116 2.120 . S
Zn107 O118 2.120 . S
Zn107 O119 2.114 . S
Zn107 O122 2.080 . S
C108 O113 1.166 . S
C108 O114 1.182 . S
C109 O115 1.167 . S
C109 O116 1.299 . S
O110 Zn107 2.080 . S
O110 C124 1.305 . S
O111 Zn105 1.920 . S
O111 C124 1.234 . S
C112 O117 1.167 . S
C112 O118 1.299 . S
O113 Zn107 2.114 . S
O113 C108 1.166 . S
O114 Zn106 1.905 . S
O114 C108 1.182 . S
O115 Zn106 1.898 . S
O115 C109 1.167 . S
O116 Zn107 2.120 . S
O116 C109 1.299 . S
O117 Zn105 1.898 . S
O117 C112 1.167 . S
O118 Zn107 2.120 . S
O118 C112 1.299 . S
O119 Zn107 2.114 . S
O119 C121 1.166 . S
O120 Zn105 1.905 . S
O120 C121 1.182 . S
C121 O119 1.166 . S
C121 O120 1.182 . S
O122 Zn107 2.080 . S
O122 C125 1.305 . S
O123 Zn106 1.920 . S
O123 C125 1.234 . S
C124 O110 1.305 . S
C124 O111 1.234 . S
C125 O122 1.305 . S
C125 O123 1.234 . S
H126 C132 0.930 . S
H127 C135 0.930 . S
H128 C136 0.930 . S
H129 C137 0.930 . S
H130 C140 0.930 . S
H131 C141 0.930 . S
C132 H126 0.930 . S
C132 C133 1.355 . S
C132 C134 1.415 . S
C133 C132 1.355 . S
C133 C135 1.419 . S
C134 C132 1.415 . S
C134 C139 1.425 . S
C134 C141 1.409 . S
C135 H127 0.930 . S
C135 C133 1.419 . S
C135 C136 1.362 . S
C136 H128 0.930 . S
C136 C135 1.362 . S
C136 C139 1.409 . S
C137 H129 0.930 . S
C137 C138 1.355 . S
C137 C139 1.415 . S
C138 C137 1.355 . S
C138 C140 1.419 . S
C139 C134 1.425 . S
C139 C136 1.409 . S
C139 C137 1.415 . S
C140 H130 0.930 . S
C140 C138 1.419 . S
C140 C141 1.362 . S
C141 H131 0.930 . S
C141 C134 1.409 . S
C141 C140 1.362 . S
H142 C148 0.930 1_556 S
H143 C151 0.930 . S
H144 C152 0.930 . S
H145 C153 0.930 . S
H146 C156 0.930 . S
H147 C157 0.930 . S
C148 H142 0.930 1_554 S
C148 C149 1.355 . S
C148 C150 1.415 1_455 S
C149 C148 1.355 . S
C149 C151 1.419 . S
C150 C148 1.415 1_655 S
C150 C155 1.425 1_655 S
C150 C157 1.409 . S
C151 H143 0.930 . S
C151 C149 1.419 . S
C151 C152 1.362 . S
C152 H144 0.930 . S
C152 C151 1.362 . S
C152 C155 1.409 . S
C153 H145 0.930 . S
C153 C154 1.355 . S
C153 C155 1.415 1_655 S
C154 C153 1.355 . S
C154 C156 1.419 . S
C155 C150 1.425 1_455 S
C155 C152 1.409 . S
C155 C153 1.415 1_455 S
C156 H146 0.930 . S
C156 C154 1.419 . S
C156 C157 1.362 . S
C157 H147 0.930 . S
C157 C150 1.409 . S
C157 C156 1.362 . S
H158 C164 0.930 . S
H159 C167 0.930 . S
H160 C168 0.930 . S
H161 C169 0.930 . S
H162 C172 0.930 . S
H163 C173 0.930 . S
C164 H158 0.930 . S
C164 C165 1.355 . S
C164 C166 1.415 1_545 S
C165 C164 1.355 . S
C165 C167 1.419 . S
C166 C164 1.415 1_565 S
C166 C171 1.425 1_565 S
C166 C173 1.409 . S
C167 H159 0.930 . S
C167 C165 1.419 . S
C167 C168 1.362 . S
C168 H160 0.930 . S
C168 C167 1.362 . S
C168 C171 1.409 . S
C169 H161 0.930 . S
C169 C170 1.355 . S
C169 C171 1.415 1_565 S
C170 C169 1.355 . S
C170 C172 1.419 . S
C171 C166 1.425 1_545 S
C171 C168 1.409 . S
C171 C169 1.415 1_545 S
C172 H162 0.930 . S
C172 C170 1.419 . S
C172 C173 1.362 . S
C173 H163 0.930 . S
C173 C166 1.409 . S
C173 C172 1.362 . S
H174 C180 0.930 . S
H175 C183 0.930 . S
H176 C184 0.930 . S
H177 C185 0.930 . S
H178 C188 0.930 . S
H179 C189 0.930 1_554 S
C180 H174 0.930 . S
C180 C181 1.355 . S
C180 C182 1.415 . S
C181 C180 1.355 . S
C181 C183 1.419 . S
C182 C180 1.415 . S
C182 C187 1.425 . S
C182 C189 1.409 . S
C183 H175 0.930 . S
C183 C181 1.419 . S
C183 C184 1.362 . S
C184 H176 0.930 . S
C184 C183 1.362 . S
C184 C187 1.409 . S
C185 H177 0.930 . S
C185 C186 1.355 . S
C185 C187 1.415 . S
C186 C185 1.355 . S
C186 C188 1.419 1_556 S
C187 C182 1.425 . S
C187 C184 1.409 . S
C187 C185 1.415 . S
C188 H178 0.930 . S
C188 C186 1.419 1_554 S
C188 C189 1.362 1_554 S
C189 H179 0.930 1_556 S
C189 C182 1.409 . S
C189 C188 1.362 1_556 S
H190 C196 0.930 . S
H191 C199 0.930 . S
H192 C200 0.930 . S
H193 C201 0.930 1_556 S
H194 C204 0.930 . S
H195 C205 0.930 . S
C196 H190 0.930 . S
C196 C197 1.355 . S
C196 C198 1.401 1_455 S
C197 C196 1.355 . S
C197 C199 1.419 . S
C198 C196 1.401 1_655 S
C198 C203 1.408 1_655 S
C198 C205 1.431 . S
C199 H191 0.930 . S
C199 C197 1.419 . S
C199 C200 1.362 . S
C200 H192 0.930 . S
C200 C199 1.362 . S
C200 C203 1.431 . S
C201 H193 0.930 1_554 S
C201 C202 1.355 . S
C201 C203 1.402 1_655 S
C202 C201 1.355 . S
C202 C204 1.419 . S
C203 C198 1.408 1_455 S
C203 C200 1.431 . S
C203 C201 1.402 1_455 S
C204 H194 0.930 . S
C204 C202 1.419 . S
C204 C205 1.362 . S
C205 H195 0.930 . S
C205 C198 1.431 . S
C205 C204 1.362 . S
H206 C212 0.930 . S
H207 C215 0.930 . S
H208 C216 0.930 . S
H209 C217 0.930 . S
H210 C220 0.930 . S
H211 C221 0.930 . S
C212 H206 0.930 . S
C212 C213 1.355 . S
C212 C214 1.415 1_545 S
C213 C212 1.355 . S
C213 C215 1.419 . S
C214 C212 1.415 1_565 S
C214 C219 1.425 1_565 S
C214 C221 1.409 . S
C215 H207 0.930 . S
C215 C213 1.419 . S
C215 C216 1.362 . S
C216 H208 0.930 . S
C216 C215 1.362 . S
C216 C219 1.409 . S
C217 H209 0.930 . S
C217 C218 1.355 . S
C217 C219 1.415 1_565 S
C218 C217 1.355 . S
C218 C220 1.419 . S
C219 C214 1.425 1_545 S
C219 C216 1.409 . S
C219 C217 1.415 1_545 S
C220 H210 0.930 . S
C220 C218 1.419 . S
C220 C221 1.362 . S
C221 H211 0.930 . S
C221 C214 1.409 . S
C221 C220 1.362 . S
H222 C228 0.930 . S
H223 C231 0.930 . S
H224 C232 0.930 . S
H225 C233 0.930 . S
H226 C236 0.930 . S
H227 C237 0.930 . S
C228 H222 0.930 . S
C228 C229 1.355 . S
C228 C230 1.415 . S
C229 C228 1.355 . S
C229 C231 1.419 . S
C230 C228 1.415 . S
C230 C235 1.425 . S
C230 C237 1.409 . S
C231 H223 0.930 . S
C231 C229 1.419 . S
C231 C232 1.362 . S
C232 H224 0.930 . S
C232 C231 1.362 . S
C232 C235 1.409 . S
C233 H225 0.930 . S
C233 C234 1.355 . S
C233 C235 1.415 . S
C234 C233 1.355 . S
C234 C236 1.419 . S
C235 C230 1.425 . S
C235 C232 1.409 . S
C235 C233 1.415 . S
C236 H226 0.930 . S
C236 C234 1.419 . S
C236 C237 1.362 . S
C237 H227 0.930 . S
C237 C230 1.409 . S
C237 C236 1.362 . S
H238 C244 0.930 . S
H239 C247 0.930 . S
H240 C248 0.930 . S
H241 C249 0.930 . S
H242 C252 0.930 . S
H243 C253 0.930 . S
C244 H238 0.930 . S
C244 C245 1.355 1_556 S
C244 C246 1.415 . S
C245 C244 1.355 1_554 S
C245 C247 1.419 . S
C246 C244 1.415 . S
C246 C251 1.425 . S
C246 C253 1.409 . S
C247 H239 0.930 . S
C247 C245 1.419 . S
C247 C248 1.362 1_554 S
C248 H240 0.930 . S
C248 C247 1.362 1_556 S
C248 C251 1.409 . S
C249 H241 0.930 . S
C249 C250 1.355 . S
C249 C251 1.415 . S
C250 C249 1.355 . S
C250 C252 1.419 . S
C251 C246 1.425 . S
C251 C248 1.409 . S
C251 C249 1.415 . S
C252 H242 0.930 . S
C252 C250 1.419 . S
C252 C253 1.362 . S
C253 H243 0.930 . S
C253 C246 1.409 . S
C253 C252 1.362 . S
H254 C260 0.930 . S
H255 C263 0.930 . S
H256 C264 0.930 . S
H257 C265 0.930 . S
H258 C268 0.930 1_556 S
H259 C269 0.930 . S
C260 H254 0.930 . S
C260 C261 1.355 . S
C260 C262 1.415 . S
C261 C260 1.355 . S
C261 C263 1.419 . S
C262 C260 1.415 . S
C262 C267 1.425 . S
C262 C269 1.409 . S
C263 H255 0.930 . S
C263 C261 1.419 . S
C263 C264 1.362 . S
C264 H256 0.930 . S
C264 C263 1.362 . S
C264 C267 1.409 . S
C265 H257 0.930 . S
C265 C266 1.355 1_554 S
C265 C267 1.415 . S
C266 C265 1.355 1_556 S
C266 C268 1.419 1_556 S
C267 C262 1.425 . S
C267 C264 1.409 . S
C267 C265 1.415 . S
C268 H258 0.930 1_554 S
C268 C266 1.419 1_554 S
C268 C269 1.362 . S
C269 H259 0.930 . S
C269 C262 1.409 . S
C269 C268 1.362 . S
H270 C276 0.930 . S
H271 C279 0.930 . S
H272 C280 0.930 . S
H273 C281 0.930 . S
H274 C284 0.930 . S
H275 C285 0.930 . S
C276 H270 0.930 . S
C276 C277 1.355 . S
C276 C278 1.415 . S
C277 C276 1.355 . S
C277 C279 1.419 . S
C278 C276 1.415 . S
C278 C283 1.425 . S
C278 C285 1.409 . S
C279 H271 0.930 . S
C279 C277 1.419 . S
C279 C280 1.362 . S
C280 H272 0.930 . S
C280 C279 1.362 . S
C280 C283 1.409 . S
C281 H273 0.930 . S
C281 C282 1.355 . S
C281 C283 1.415 . S
C282 C281 1.355 . S
C282 C284 1.419 . S
C283 C278 1.425 . S
C283 C280 1.409 . S
C283 C281 1.415 . S
C284 H274 0.930 . S
C284 C282 1.419 . S
C284 C285 1.362 . S
C285 H275 0.930 . S
C285 C278 1.409 . S
C285 C284 1.362 . S
H286 C292 0.930 . S
H287 C295 0.930 . S
H288 C296 0.930 . S
H289 C297 0.930 . S
H290 C300 0.930 . S
H291 C301 0.930 . S
C292 H286 0.930 . S
C292 C293 1.355 . S
C292 C294 1.415 . S
C293 C292 1.355 . S
C293 C295 1.419 . S
C294 C292 1.415 . S
C294 C299 1.425 . S
C294 C301 1.409 . S
C295 H287 0.930 . S
C295 C293 1.419 . S
C295 C296 1.362 . S
C296 H288 0.930 . S
C296 C295 1.362 . S
C296 C299 1.409 . S
C297 H289 0.930 . S
C297 C298 1.355 1_556 S
C297 C299 1.415 . S
C298 C297 1.355 1_554 S
C298 C300 1.419 . S
C299 C294 1.425 . S
C299 C296 1.409 . S
C299 C297 1.415 . S
C300 H290 0.930 . S
C300 C298 1.419 . S
C300 C301 1.362 1_554 S
C301 H291 0.930 . S
C301 C294 1.409 . S
C301 C300 1.362 1_556 S
H302 C308 0.930 . S
H303 C311 0.930 . S
H304 C312 0.930 . S
H305 C313 0.930 1_556 S
H306 C316 0.930 1_556 S
H307 C317 0.930 . S
C308 H302 0.930 . S
C308 C309 1.355 . S
C308 C310 1.415 . S
C309 C308 1.355 . S
C309 C311 1.419 . S
C310 C308 1.415 . S
C310 C315 1.425 . S
C310 C317 1.409 . S
C311 H303 0.930 . S
C311 C309 1.419 . S
C311 C312 1.362 . S
C312 H304 0.930 . S
C312 C311 1.362 . S
C312 C315 1.409 . S
C313 H305 0.930 1_554 S
C313 C314 1.355 1_554 S
C313 C315 1.415 . S
C314 C313 1.355 1_556 S
C314 C316 1.419 1_556 S
C315 C310 1.425 . S
C315 C312 1.409 . S
C315 C313 1.415 . S
C316 H306 0.930 1_554 S
C316 C314 1.419 1_554 S
C316 C317 1.362 . S
C317 H307 0.930 . S
C317 C310 1.409 . S
C317 C316 1.362 . S
H318 C324 0.930 . S
H319 C327 0.930 . S
H320 C328 0.930 . S
H321 C329 0.930 . S
H322 C332 0.930 . S
H323 C333 0.930 . S
C324 H318 0.930 . S
C324 C325 1.355 . S
C324 C326 1.415 . S
C325 C324 1.355 . S
C325 C327 1.419 . S
C326 C324 1.415 . S
C326 C331 1.425 . S
C326 C333 1.409 . S
C327 H319 0.930 . S
C327 C325 1.419 . S
C327 C328 1.362 . S
C328 H320 0.930 . S
C328 C327 1.362 . S
C328 C331 1.409 . S
C329 H321 0.930 . S
C329 C330 1.355 . S
C329 C331 1.415 . S
C330 C329 1.355 . S
C330 C332 1.419 . S
C331 C326 1.425 . S
C331 C328 1.409 . S
C331 C329 1.415 . S
C332 H322 0.930 . S
C332 C330 1.419 . S
C332 C333 1.362 . S
C333 H323 0.930 . S
C333 C326 1.409 . S
C333 C332 1.362 . S
H334 C340 0.930 . S
H335 C343 0.930 . S
H336 C344 0.930 . S
H337 C345 0.930 . S
H338 C348 0.930 . S
H339 C349 0.930 . S
C340 H334 0.930 . S
C340 C341 1.355 . S
C340 C342 1.415 . S
C341 C340 1.355 . S
C341 C343 1.419 . S
C342 C340 1.415 . S
C342 C347 1.425 . S
C342 C349 1.409 . S
C343 H335 0.930 . S
C343 C341 1.419 . S
C343 C344 1.362 . S
C344 H336 0.930 . S
C344 C343 1.362 . S
C344 C347 1.409 . S
C345 H337 0.930 . S
C345 C346 1.355 . S
C345 C347 1.415 . S
C346 C345 1.355 . S
C346 C348 1.419 . S
C347 C342 1.425 . S
C347 C344 1.409 . S
C347 C345 1.415 . S
C348 H338 0.930 . S
C348 C346 1.419 . S
C348 C349 1.362 . S
C349 H339 0.930 . S
C349 C342 1.409 . S
C349 C348 1.362 . S
H350 C356 0.930 . S
H351 C359 0.930 . S
H352 C360 0.930 . S
H353 C361 0.930 . S
H354 C364 0.930 . S
H355 C365 0.930 . S
C356 H350 0.930 . S
C356 C357 1.355 . S
C356 C358 1.415 . S
C357 C356 1.355 . S
C357 C359 1.419 . S
C358 C356 1.415 . S
C358 C363 1.425 . S
C358 C365 1.409 . S
C359 H351 0.930 . S
C359 C357 1.419 . S
C359 C360 1.362 . S
C360 H352 0.930 . S
C360 C359 1.362 . S
C360 C363 1.409 . S
C361 H353 0.930 . S
C361 C362 1.355 . S
C361 C363 1.415 . S
C362 C361 1.355 . S
C362 C364 1.419 . S
C363 C358 1.425 . S
C363 C360 1.409 . S
C363 C361 1.415 . S
C364 H354 0.930 . S
C364 C362 1.419 . S
C364 C365 1.362 . S
C365 H355 0.930 . S
C365 C358 1.409 . S
C365 C364 1.362 . S
H366 C372 0.930 . S
H367 C375 0.930 . S
H368 C376 0.930 1_556 S
H369 C377 0.930 1_556 S
H370 C380 0.930 . S
H371 C381 0.930 . S
C372 H366 0.930 . S
C372 C373 1.355 . S
C372 C374 1.415 . S
C373 C372 1.355 . S
C373 C375 1.419 . S
C374 C372 1.415 . S
C374 C379 1.425 . S
C374 C381 1.409 . S
C375 H367 0.930 . S
C375 C373 1.419 . S
C375 C376 1.362 . S
C376 H368 0.930 1_554 S
C376 C375 1.362 . S
C376 C379 1.409 . S
C377 H369 0.930 1_554 S
C377 C378 1.355 . S
C377 C379 1.415 . S
C378 C377 1.355 . S
C378 C380 1.419 . S
C379 C374 1.425 . S
C379 C376 1.409 . S
C379 C377 1.415 . S
C380 H370 0.930 . S
C380 C378 1.419 . S
C380 C381 1.362 . S
C381 H371 0.930 . S
C381 C374 1.409 . S
C381 C380 1.362 . S
H382 C388 0.930 . S
H383 C391 0.930 . S
H384 C392 0.930 . S
H385 C393 0.930 . S
H386 C396 0.930 . S
H387 C397 0.930 . S
C388 H382 0.930 . S
C388 C389 1.355 . S
C388 C390 1.415 . S
C389 C388 1.355 . S
C389 C391 1.419 . S
C390 C388 1.415 . S
C390 C395 1.425 . S
C390 C397 1.409 . S
C391 H383 0.930 . S
C391 C389 1.419 . S
C391 C392 1.362 . S
C392 H384 0.930 . S
C392 C391 1.362 . S
C392 C395 1.409 . S
C393 H385 0.930 . S
C393 C394 1.355 . S
C393 C395 1.415 . S
C394 C393 1.355 . S
C394 C396 1.419 . S
C395 C390 1.425 . S
C395 C392 1.409 . S
C395 C393 1.415 . S
C396 H386 0.930 . S
C396 C394 1.419 . S
C396 C397 1.362 . S
C397 H387 0.930 . S
C397 C390 1.409 . S
C397 C396 1.362 . S
H398 C404 0.930 . S
H399 C407 0.930 . S
H400 C408 0.930 . S
H401 C409 0.930 . S
H402 C412 0.930 . S
H403 C413 0.930 . S
C404 H398 0.930 . S
C404 C405 1.355 . S
C404 C406 1.415 . S
C405 C404 1.355 . S
C405 C407 1.419 . S
C406 C404 1.415 . S
C406 C411 1.425 . S
C406 C413 1.409 . S
C407 H399 0.930 . S
C407 C405 1.419 . S
C407 C408 1.362 . S
C408 H400 0.930 . S
C408 C407 1.362 . S
C408 C411 1.409 . S
C409 H401 0.930 . S
C409 C410 1.355 . S
C409 C411 1.415 . S
C410 C409 1.355 . S
C410 C412 1.419 . S
C411 C406 1.425 . S
C411 C408 1.409 . S
C411 C409 1.415 . S
C412 H402 0.930 . S
C412 C410 1.419 . S
C412 C413 1.362 . S
C413 H403 0.930 . S
C413 C406 1.409 . S
C413 C412 1.362 . S
C133 C121 1.271 . S
C138 C16 1.330 . S
C149 C3 1.207 . S
C154 C24 1.215 . S
C165 C37 1.237 . S
C170 C45 1.204 . S
C181 C58 1.355 . S
C186 C66 1.316 . S
C197 C87 1.231 . S
C202 C79 1.291 . S
C213 C108 1.209 . S
C218 C100 1.213 . S
C229 C7 0.802 . S
C234 C4 0.725 . S
C245 C25 0.654 . S
C250 C28 0.721 . S
C261 C46 0.867 . S
C266 C49 0.809 . S
C277 C67 0.635 . S
C282 C70 0.688 . S
C293 C91 0.659 . S
C298 C88 0.729 . S
C309 C109 0.788 . S
C314 C112 0.853 . S
C325 C20 1.436 . S
C330 C104 1.377 . S
C341 C40 1.401 . S
C346 C125 1.338 . S
C357 C19 1.331 . S
C362 C61 1.362 . S
C373 C41 1.344 . S
C378 C82 1.341 . S
C389 C103 1.423 . S
C394 C62 1.433 . S
C405 C83 1.357 . S
C410 C124 1.424 . S
