# Generated by pormake.
# Topology umy, (4)-cn, num edge types: 1
# Building blocks:
#     Node 0, Type 0, BuildingBlock: TATPOV_clean_sbu_0, # of connection points: 4
#     Node 1, Type 0, BuildingBlock: TATPOV_clean_sbu_0, # of connection points: 4
#     Node 2, Type 0, BuildingBlock: TATPOV_clean_sbu_0, # of connection points: 4
#     Node 3, Type 0, BuildingBlock: TATPOV_clean_sbu_0, # of connection points: 4
#     Node 4, Type 0, BuildingBlock: TATPOV_clean_sbu_0, # of connection points: 4
#     Node 5, Type 0, BuildingBlock: TATPOV_clean_sbu_0, # of connection points: 4
#     Node 6, Type 0, BuildingBlock: TATPOV_clean_sbu_0, # of connection points: 4
#     Node 7, Type 0, BuildingBlock: TATPOV_clean_sbu_0, # of connection points: 4
#     Node 8, Type 0, BuildingBlock: TATPOV_clean_sbu_0, # of connection points: 4
#     Node 9, Type 0, BuildingBlock: TATPOV_clean_sbu_0, # of connection points: 4
#     Node 10, Type 0, BuildingBlock: TATPOV_clean_sbu_0, # of connection points: 4
#     Node 11, Type 0, BuildingBlock: TATPOV_clean_sbu_0, # of connection points: 4
#     Edge 12, Type (0, 0), BuildingBlock: EZIPEK_clean_linker_0, # of connection points: 2
#     Edge 13, Type (0, 0), BuildingBlock: EZIPEK_clean_linker_0, # of connection points: 2
#     Edge 14, Type (0, 0), BuildingBlock: EZIPEK_clean_linker_0, # of connection points: 2
#     Edge 15, Type (0, 0), BuildingBlock: EZIPEK_clean_linker_0, # of connection points: 2
#     Edge 16, Type (0, 0), BuildingBlock: EZIPEK_clean_linker_0, # of connection points: 2
#     Edge 17, Type (0, 0), BuildingBlock: EZIPEK_clean_linker_0, # of connection points: 2
#     Edge 18, Type (0, 0), BuildingBlock: EZIPEK_clean_linker_0, # of connection points: 2
#     Edge 19, Type (0, 0), BuildingBlock: EZIPEK_clean_linker_0, # of connection points: 2
#     Edge 20, Type (0, 0), BuildingBlock: EZIPEK_clean_linker_0, # of connection points: 2
#     Edge 21, Type (0, 0), BuildingBlock: EZIPEK_clean_linker_0, # of connection points: 2
#     Edge 22, Type (0, 0), BuildingBlock: EZIPEK_clean_linker_0, # of connection points: 2
#     Edge 23, Type (0, 0), BuildingBlock: EZIPEK_clean_linker_0, # of connection points: 2
#     Edge 24, Type (0, 0), BuildingBlock: EZIPEK_clean_linker_0, # of connection points: 2
#     Edge 25, Type (0, 0), BuildingBlock: EZIPEK_clean_linker_0, # of connection points: 2
#     Edge 26, Type (0, 0), BuildingBlock: EZIPEK_clean_linker_0, # of connection points: 2
#     Edge 27, Type (0, 0), BuildingBlock: EZIPEK_clean_linker_0, # of connection points: 2
#     Edge 28, Type (0, 0), BuildingBlock: EZIPEK_clean_linker_0, # of connection points: 2
#     Edge 29, Type (0, 0), BuildingBlock: EZIPEK_clean_linker_0, # of connection points: 2
#     Edge 30, Type (0, 0), BuildingBlock: EZIPEK_clean_linker_0, # of connection points: 2
#     Edge 31, Type (0, 0), BuildingBlock: EZIPEK_clean_linker_0, # of connection points: 2
#     Edge 32, Type (0, 0), BuildingBlock: EZIPEK_clean_linker_0, # of connection points: 2
#     Edge 33, Type (0, 0), BuildingBlock: EZIPEK_clean_linker_0, # of connection points: 2
#     Edge 34, Type (0, 0), BuildingBlock: EZIPEK_clean_linker_0, # of connection points: 2
#     Edge 35, Type (0, 0), BuildingBlock: EZIPEK_clean_linker_0, # of connection points: 2
# Relax obj value: 0.088
# Max RMSD: 0.117
# Mean RMSD: 0.117
data_MOF--net-umy--node1-TATPOV_clean_sbu_0--edge1-EZIPEK_clean_linker_0
_symmetry_space_group_name_H-M    P1
_symmetry_Int_Tables_number       1
_symmetry_cell_setting            triclinic
loop_
_symmetry_equiv_pos_as_xyz
'x, y, z'
_cell_length_a     28.970825
_cell_length_b     28.991969
_cell_length_c     35.563532
_cell_angle_alpha  89.981645
_cell_angle_beta   89.982722
_cell_angle_gamma 120.12002
loop_
_atom_site_label
_atom_site_type_symbol
_atom_site_fract_x
_atom_site_fract_y
_atom_site_fract_z
_atom_type_partial_charge
Zn0 Zn 0.07314 0.25646 0.12286 0.0
Zn1 Zn 0.08132 0.34564 0.10589 0.0
O2 O -0.00042 0.29498 0.10689 0.0
O3 O 0.99348 0.21754 0.1169 0.0
O4 O 0.08923 0.41561 0.0895 0.0
O5 O 0.11911 0.25726 0.08189 0.0
O6 O 0.12252 0.33116 0.06322 0.0
C7 C 0.97094 0.24469 0.11125 0.0
C8 C 0.11521 0.32876 0.18394 0.0
O9 O 0.11024 0.35975 0.16091 0.0
O10 O 0.10355 0.28237 0.17371 0.0
C11 C 0.0584 0.43098 0.10259 0.0
O12 O 0.02285 0.40199 0.12816 0.0
C13 C 0.13455 0.29482 0.0584 0.0
Zn14 Zn 0.82958 0.09647 0.28032 0.0
Zn15 Zn 0.74301 0.09972 0.28053 0.0
O16 O 0.71242 0.01917 0.28547 0.0
O17 O 0.78715 0.01889 0.29611 0.0
O18 O 0.67754 0.1065 0.27514 0.0
O19 O 0.84795 0.11833 0.22686 0.0
O20 O 0.78227 0.13542 0.23056 0.0
C21 C 0.73666 0.99465 0.29525 0.0
C22 C 0.82616 0.15414 0.3426 0.0
O23 O 0.77791 0.13406 0.33167 0.0
O24 O 0.86001 0.1522 0.32114 0.0
C25 C 0.63365 0.07603 0.2916 0.0
O26 O 0.63061 0.04064 0.31601 0.0
C27 C 0.82152 0.13779 0.21264 0.0
Zn28 Zn 0.7294 0.80626 0.45324 0.0
Zn29 Zn 0.63525 0.72059 0.43932 0.0
O30 O 0.68658 0.69069 0.44216 0.0
O31 O 0.76489 0.76225 0.45059 0.0
O32 O 0.56468 0.65608 0.42728 0.0
O33 O 0.72369 0.84289 0.40753 0.0
O34 O 0.64511 0.77241 0.3958 0.0
C35 C 0.73688 0.71223 0.44645 0.0
C36 C 0.65325 0.78122 0.51297 0.0
O37 O 0.62243 0.74292 0.49145 0.0
O38 O 0.70056 0.81421 0.50305 0.0
C39 C 0.55618 0.63417 0.39517 0.0
O40 O 0.59402 0.65338 0.3696 0.0
C41 C 0.68242 0.81911 0.3873 0.0
Zn42 Zn 0.90373 0.73107 0.60854 0.0
Zn43 Zn 0.90901 0.64644 0.60554 0.0
O44 O 0.9888 0.70237 0.60653 0.0
O45 O 0.98211 0.77213 0.622 0.0
O46 O 0.91026 0.57867 0.59796 0.0
O47 O 0.87656 0.72531 0.55615 0.0
O48 O 0.86475 0.64434 0.55904 0.0
C49 C 0.0102 0.75022 0.61821 0.0
C50 C 0.85482 0.66696 0.67173 0.0
O51 O 0.87771 0.64253 0.65873 0.0
O52 O 0.85187 0.70147 0.65166 0.0
C53 C 0.92286 0.55552 0.62278 0.0
O54 O 0.93387 0.57446 0.65718 0.0
C55 C 0.85774 0.6792 0.54233 0.0
Zn56 Zn 0.18551 0.94199 0.77748 0.0
Zn57 Zn 0.27039 0.92934 0.76915 0.0
O58 O 0.30202 0.01004 0.77353 0.0
O59 O 0.23351 0.02233 0.77662 0.0
O60 O 0.33609 0.92495 0.75984 0.0
O61 O 0.1538 0.90063 0.72973 0.0
O62 O 0.22405 0.8909 0.72296 0.0
C63 C 0.2836 0.04159 0.77559 0.0
C64 C 0.20115 0.88454 0.83892 0.0
O65 O 0.24101 0.891 0.81959 0.0
O66 O 0.17155 0.90211 0.82722 0.0
C67 C 0.33578 0.88116 0.7571 0.0
O68 O 0.29096 0.83583 0.76159 0.0
C69 C 0.17873 0.88235 0.71163 0.0
Zn70 Zn 0.29591 0.17934 0.94863 0.0
Zn71 Zn 0.37518 0.27034 0.94616 0.0
O72 O 0.31368 0.28073 0.96536 0.0
O73 O 0.24594 0.20871 0.94258 0.0
O74 O 0.43621 0.34403 0.93733 0.0
O75 O 0.31256 0.1505 0.90348 0.0
O76 O 0.36905 0.23559 0.89356 0.0
C77 C 0.26366 0.2526 0.95957 0.0
C78 C 0.36832 0.20321 0.01096 0.0
O79 O 0.39949 0.24254 0.99032 0.0
O80 O 0.32081 0.17169 1.00055 0.0
C81 C 0.43286 0.37213 0.91127 0.0
O82 O 0.3884 0.35389 0.89199 0.0
C83 C 0.34492 0.18741 0.88217 0.0
Zn84 Zn 0.72994 0.90521 0.71948 0.0
Zn85 Zn 0.63466 0.89623 0.73202 0.0
O86 O 0.68255 0.9769 0.72377 0.0
O87 O 0.7612 0.98469 0.71469 0.0
O88 O 0.56322 0.88778 0.74362 0.0
O89 O 0.72728 0.87197 0.76959 0.0
O90 O 0.64914 0.86534 0.7798 0.0
C91 C 0.73217 0.00581 0.71691 0.0
C92 C 0.65249 0.84455 0.66263 0.0
O93 O 0.62196 0.85422 0.68277 0.0
O94 O 0.70004 0.86042 0.67272 0.0
C95 C 0.53727 0.89735 0.71913 0.0
O96 O 0.55723 0.91297 0.68528 0.0
C97 C 0.68701 0.85812 0.7904 0.0
Zn98 Zn 0.82624 0.73717 0.89574 0.0
Zn99 Zn 0.73549 0.64724 0.89776 0.0
O100 O 0.7117 0.70282 0.89698 0.0
O101 O 0.78715 0.77843 0.89336 0.0
O102 O 0.66578 0.57915 0.90264 0.0
O103 O 0.85017 0.72379 0.9448 0.0
O104 O 0.77663 0.64526 0.9451 0.0
C105 C 0.73662 0.75343 0.89462 0.0
C106 C 0.80868 0.67327 0.82979 0.0
O107 O 0.7636 0.64318 0.84521 0.0
O108 O 0.84427 0.71347 0.84734 0.0
C109 C 0.62805 0.5675 0.87959 0.0
O110 O 0.63495 0.59959 0.85137 0.0
C111 C 0.8209 0.67898 0.96005 0.0
Zn112 Zn 0.07819 0.81843 0.05229 0.0
Zn113 Zn 0.08906 0.73226 0.05607 0.0
O114 O 0.00753 0.70093 0.0547 0.0
O115 O -0.00181 0.77142 0.05508 0.0
O116 O 0.09609 0.6675 0.06414 0.0
O117 O 0.12082 0.84829 0.09948 0.0
O118 O 0.12906 0.77686 0.10272 0.0
C119 C 0.97737 0.72116 0.05515 0.0
C120 C 0.13085 0.80468 0.98731 0.0
O121 O 0.12447 0.76348 0.00483 0.0
O122 O 0.11523 0.83453 0.00158 0.0
C123 C 0.06455 0.6227 0.04925 0.0
O124 O 0.02892 0.61889 0.02474 0.0
C125 C 0.13853 0.82162 0.11585 0.0
Zn126 Zn 0.26486 0.08323 0.21131 0.0
Zn127 Zn 0.35429 0.08817 0.23543 0.0
O128 O 0.30433 0.00779 0.22646 0.0
O129 O 0.23065 0.00381 0.20628 0.0
O130 O 0.4202 0.09136 0.25623 0.0
O131 O 0.25903 0.11813 0.25832 0.0
O132 O 0.33478 0.12509 0.27714 0.0
C133 C 0.25709 0.98095 0.21356 0.0
C134 C 0.35372 0.14016 0.16095 0.0
O135 O 0.37883 0.12851 0.18503 0.0
O136 O 0.30554 0.12728 0.16638 0.0
C137 C 0.44763 0.07831 0.23568 0.0
O138 O 0.43294 0.06332 0.20078 0.0
C139 C 0.29609 0.13349 0.28227 0.0
Zn140 Zn 0.16052 0.27639 0.39933 0.0
Zn141 Zn 0.25141 0.35764 0.39974 0.0
O142 O 0.27394 0.30173 0.39418 0.0
O143 O 0.19529 0.23672 0.37644 0.0
O144 O 0.32181 0.42609 0.40091 0.0
O145 O 0.14856 0.27675 0.45437 0.0
O146 O 0.21716 0.35824 0.45131 0.0
C147 C 0.24521 0.25595 0.37952 0.0
C148 C 0.1666 0.34035 0.34114 0.0
O149 O 0.21556 0.35943 0.34962 0.0
O150 O 0.13138 0.31118 0.36477 0.0
C151 C 0.34852 0.44907 0.37155 0.0
O152 O 0.32962 0.42906 0.33822 0.0
C153 C 0.17788 0.32161 0.46951 0.0
Zn154 Zn 0.92753 0.18198 0.56669 0.0
Zn155 Zn 0.92055 0.26808 0.57198 0.0
O156 O 0.00186 0.29741 0.57422 0.0
O157 O 0.00778 0.22516 0.56995 0.0
O158 O 0.91313 0.33184 0.58339 0.0
O159 O 0.88344 0.14706 0.61211 0.0
O160 O 0.87212 0.21665 0.61401 0.0
C161 C 0.03047 0.27544 0.57269 0.0
C162 C 0.88496 0.20481 0.49963 0.0
O163 O 0.89452 0.24691 0.51734 0.0
O164 O 0.89234 0.16995 0.51567 0.0
C165 C 0.94504 0.37852 0.57149 0.0
O166 O 0.98437 0.38679 0.54894 0.0
C167 C 0.8622 0.17152 0.6268 0.0
C168 C 0.06643 0.53835 0.03653 0.0
C169 C 0.06408 0.57406 0.06266 0.0
C170 C 0.06607 0.51972 0.11471 0.0
C171 C 0.0617 0.48073 0.08865 0.0
N172 N 0.04628 0.44798 0.02469 0.0
N173 N 0.04834 0.59135 0.1266 0.0
C174 C 0.05884 0.48864 0.04947 0.0
C175 C 0.06029 0.56282 0.1018 0.0
N176 N 0.0776 0.55249 0.99956 0.0
N177 N 0.07759 0.51676 0.15159 0.0
H178 H 0.04082 0.62147 0.11835 0.0
H179 H 0.03998 0.5811 0.15489 0.0
H180 H 0.08398 0.4868 0.16202 0.0
H181 H 0.08643 0.54714 0.17089 0.0
H182 H 0.08513 0.53021 0.9801 0.0
H183 H 0.08463 0.58908 0.9891 0.0
H184 H 0.03833 0.45005 0.99637 0.0
H185 H 0.03831 0.41019 0.03299 0.0
C186 C 0.54268 0.02951 0.26236 0.0
C187 C 0.58481 0.0759 0.27933 0.0
C188 C 0.53842 0.12511 0.26555 0.0
C189 C 0.49441 0.07749 0.25151 0.0
N190 N 0.44963 0.98187 0.24423 0.0
N191 N 0.619 0.16499 0.30328 0.0
C192 C 0.49505 0.02891 0.25214 0.0
C193 C 0.58159 0.12294 0.28274 0.0
N194 N 0.54904 0.98694 0.25416 0.0
N195 N 0.54011 0.17277 0.26098 0.0
H196 H 0.65095 0.1646 0.3165 0.0
H197 H 0.61576 0.1982 0.31006 0.0
H198 H 0.50961 0.17616 0.2481 0.0
H199 H 0.5737 0.20946 0.26692 0.0
H200 H 0.52192 0.95463 0.23804 0.0
H201 H 0.58374 0.98595 0.26023 0.0
H202 H 0.44632 0.94471 0.24817 0.0
H203 H 0.41354 0.97954 0.2373 0.0
C204 C 0.49175 0.5368 0.40367 0.0
C205 C 0.50419 0.58623 0.3871 0.0
C206 C 0.41425 0.54591 0.36019 0.0
C207 C 0.40269 0.49593 0.37534 0.0
N208 N 0.43342 0.44087 0.40419 0.0
N209 N 0.48138 0.637 0.34502 0.0
C210 C 0.44227 0.49054 0.39512 0.0
C211 C 0.46675 0.59043 0.36373 0.0
N212 N 0.52709 0.53416 0.42782 0.0
N213 N 0.37439 0.55145 0.34415 0.0
H214 H 0.51863 0.67122 0.34828 0.0
H215 H 0.45813 0.64078 0.32429 0.0
H216 H 0.33539 0.51986 0.34119 0.0
H217 H 0.37867 0.588 0.33637 0.0
H218 H 0.51768 0.50096 0.4444 0.0
H219 H 0.56504 0.56642 0.43314 0.0
H220 H 0.46268 0.43383 0.41508 0.0
H221 H 0.39818 0.40588 0.39754 0.0
C222 C 0.88359 0.46392 0.59543 0.0
C223 C 0.9279 0.50905 0.61179 0.0
C224 C 0.98158 0.46583 0.60535 0.0
C225 C 0.93937 0.42371 0.58497 0.0
N226 N 0.85315 0.38665 0.55518 0.0
N227 N 0.02222 0.55752 0.62593 0.0
C228 C 0.89106 0.42374 0.57856 0.0
C229 C 0.9778 0.51129 0.61513 0.0
N230 N 0.83401 0.45865 0.59707 0.0
N231 N 0.02433 0.46156 0.61677 0.0
H232 H 0.02164 0.59221 0.6327 0.0
H233 H 0.0606 0.56301 0.62477 0.0
H234 H 0.02796 0.42825 0.61113 0.0
H235 H 0.05346 0.48856 0.63506 0.0
H236 H 0.79932 0.42409 0.58906 0.0
H237 H 0.8268 0.48681 0.60987 0.0
H238 H 0.81969 0.38819 0.54631 0.0
H239 H 0.85752 0.35709 0.54174 0.0
C240 C 0.43881 0.85677 0.70853 0.0
C241 C 0.48524 0.89197 0.72916 0.0
C242 C 0.43125 0.91188 0.77187 0.0
C243 C 0.38615 0.882 0.74852 0.0
N244 N 0.34898 0.83332 0.69081 0.0
N245 N 0.52755 0.96077 0.77626 0.0
C246 C 0.3903 0.85618 0.71585 0.0
C247 C 0.48203 0.9216 0.75978 0.0
N248 N 0.44051 0.82257 0.68285 0.0
N249 N 0.42531 0.92957 0.80618 0.0
H250 H 0.56572 0.97032 0.76758 0.0
H251 H 0.52762 0.98734 0.79601 0.0
H252 H 0.38844 0.92204 0.81649 0.0
H253 H 0.45587 0.94687 0.82596 0.0
H254 H 0.40657 0.79215 0.66995 0.0
H255 H 0.47509 0.82119 0.67706 0.0
H256 H 0.35212 0.81918 0.66457 0.0
H257 H 0.31305 0.83281 0.69463 0.0
C258 C 0.50839 0.42817 0.86761 0.0
C259 C 0.48013 0.42372 0.90134 0.0
C260 C 0.54474 0.51643 0.9174 0.0
C261 C 0.57578 0.51905 0.88574 0.0
N262 N 0.59089 0.47722 0.83232 0.0
N263 N 0.47161 0.46138 0.95957 0.0
C264 C 0.55834 0.47508 0.86098 0.0
C265 C 0.49837 0.46728 0.92659 0.0
N266 N 0.48767 0.38737 0.84208 0.0
N267 N 0.55874 0.56152 0.93786 0.0
H268 H 0.43557 0.42719 0.96616 0.0
H269 H 0.4863 0.48908 0.98134 0.0
H270 H 0.59242 0.59824 0.93186 0.0
H271 H 0.53498 0.56392 0.95884 0.0
H272 H 0.50287 0.3905 0.81509 0.0
H273 H 0.45299 0.35101 0.84686 0.0
H274 H 0.58365 0.44455 0.8159 0.0
H275 H 0.62755 0.51104 0.82641 0.0
C276 C 0.21252 0.33253 0.01235 0.0
C277 C 0.16153 0.29121 0.02398 0.0
C278 C 0.17542 0.22553 0.99163 0.0
C279 C 0.22589 0.26649 0.97804 0.0
N280 N 0.28242 0.36082 0.9655 0.0
N281 N 0.08677 0.20461 0.0098 0.0
C282 C 0.24129 0.32077 0.98509 0.0
C283 C 0.14023 0.24014 0.00777 0.0
N284 N 0.23473 0.38187 0.02835 0.0
N285 N 0.16274 0.17335 0.99365 0.0
H286 H 0.05999 0.21483 0.02141 0.0
H287 H 0.06913 0.16775 0.99621 0.0
H288 H 0.18984 0.16033 0.9893 0.0
H289 H 0.12733 0.14389 0.00577 0.0
H290 H 0.27426 0.41137 0.02374 0.0
H291 H 0.21475 0.39219 0.04796 0.0
H292 H 0.29259 0.40065 0.96786 0.0
H293 H 0.30198 0.35349 0.9437 0.0
C294 C 0.86034 0.22 0.17194 0.0
C295 C 0.83827 0.164 0.17544 0.0
C296 C 0.88192 0.16241 0.117 0.0
C297 C 0.9125 0.21868 0.11875 0.0
N298 N 0.90744 0.29732 0.13128 0.0
N299 N 0.8118 0.08028 0.14518 0.0
C300 C 0.89359 0.24639 0.1406 0.0
C301 C 0.8431 0.13454 0.14539 0.0
N302 N 0.85312 0.24837 0.19963 0.0
N303 N 0.89267 0.13656 0.08932 0.0
H304 H 0.78268 0.06003 0.1657 0.0
H305 H 0.8121 0.05578 0.12396 0.0
H306 H 0.91965 0.15773 0.06778 0.0
H307 H 0.87522 0.09537 0.08733 0.0
H308 H 0.87384 0.2899 0.20052 0.0
H309 H 0.82811 0.23046 0.22261 0.0
H310 H 0.89247 0.31878 0.14503 0.0
H311 H 0.92832 0.31499 0.10656 0.0
C312 C 0.7032 0.85541 0.32195 0.0
C313 C 0.67643 0.84961 0.35642 0.0
C314 C 0.67818 0.93356 0.3464 0.0
C315 C 0.70691 0.9409 0.31232 0.0
N316 N 0.73415 0.90326 0.26272 0.0
N317 N 0.62222 0.8718 0.39481 0.0
C318 C 0.71492 0.89962 0.29833 0.0
C319 C 0.65767 0.88454 0.36592 0.0
N320 N 0.71953 0.82006 0.31291 0.0
N321 N 0.67536 0.97497 0.3624 0.0
H322 H 0.60745 0.8362 0.40983 0.0
H323 H 0.60353 0.89359 0.40112 0.0
H324 H 0.69301 0.01306 0.35088 0.0
H325 H 0.66002 0.97313 0.38921 0.0
H326 H 0.74461 0.82515 0.29038 0.0
H327 H 0.70905 0.78615 0.32912 0.0
H328 H 0.73735 0.87282 0.24972 0.0
H329 H 0.74254 0.93525 0.245 0.0
C330 C 0.738 0.63714 0.47996 0.0
C331 C 0.76278 0.67999 0.45431 0.0
C332 C 0.85034 0.69653 0.47476 0.0
C333 C 0.82566 0.66643 0.50757 0.0
N334 N 0.74568 0.60204 0.53996 0.0
N335 N 0.83985 0.7365 0.41736 0.0
C336 C 0.76931 0.63349 0.50926 0.0
C337 C 0.81836 0.70421 0.44797 0.0
N338 N 0.68511 0.60056 0.47625 0.0
N339 N 0.90424 0.7189 0.4704 0.0
H340 H 0.81557 0.74002 0.39719 0.0
H341 H 0.88046 0.7588 0.41158 0.0
H342 H 0.92748 0.71246 0.4898 0.0
H343 H 0.92547 0.74105 0.4471 0.0
H344 H 0.66534 0.56658 0.49296 0.0
H345 H 0.66306 0.60079 0.45315 0.0
H346 H 0.7047 0.58246 0.54481 0.0
H347 H 0.76736 0.59736 0.56151 0.0
C348 C 0.08195 0.75743 0.66237 0.0
C349 C 0.06596 0.77911 0.63244 0.0
C350 C 0.13915 0.86874 0.64734 0.0
C351 C 0.15196 0.84755 0.6789 0.0
N352 N 0.14985 0.77159 0.70817 0.0
N353 N 0.08971 0.8509 0.58882 0.0
C354 C 0.1286 0.79175 0.68324 0.0
C355 C 0.09849 0.83344 0.62227 0.0
N356 N 0.05038 0.7056 0.67347 0.0
N357 N 0.16448 0.92272 0.64237 0.0
H358 H 0.06051 0.82507 0.56997 0.0
H359 H 0.11418 0.88915 0.57827 0.0
H360 H 0.19644 0.949 0.65924 0.0
H361 H 0.15289 0.94138 0.62257 0.0
H362 H 0.05624 0.69042 0.69841 0.0
H363 H 0.01627 0.67796 0.65935 0.0
H364 H 0.13774 0.73121 0.70983 0.0
H365 H 0.18336 0.79565 0.72443 0.0
C366 C 0.29745 0.13299 0.78637 0.0
C367 C 0.31931 0.09901 0.78538 0.0
C368 C 0.38118 0.14974 0.83569 0.0
C369 C 0.34974 0.17346 0.84311 0.0
N370 N 0.28698 0.19898 0.82183 0.0
N371 N 0.40106 0.09737 0.7922 0.0
C372 C 0.31178 0.16999 0.81646 0.0
C373 C 0.36789 0.11487 0.80444 0.0
N374 N 0.26293 0.12882 0.75872 0.0
N375 N 0.42116 0.15799 0.8599 0.0
H376 H 0.39372 0.07589 0.76723 0.0
H377 H 0.43842 0.10959 0.80384 0.0
H378 H 0.43253 0.18517 0.88207 0.0
H379 H 0.44163 0.13704 0.85867 0.0
H380 H 0.24642 0.15335 0.75648 0.0
H381 H 0.25452 0.1029 0.73603 0.0
H382 H 0.25525 0.19494 0.80566 0.0
H383 H 0.29847 0.22735 0.84319 0.0
C384 C 0.73689 0.83877 0.88344 0.0
C385 C 0.70784 0.78243 0.88461 0.0
C386 C 0.64917 0.77988 0.83454 0.0
C387 C 0.68563 0.83467 0.82758 0.0
N388 N 0.75635 0.91949 0.84949 0.0
N389 N 0.6199 0.70618 0.87842 0.0
C390 C 0.72649 0.86544 0.85394 0.0
C391 C 0.65826 0.75499 0.86579 0.0
N392 N 0.77386 0.86577 0.91076 0.0
N393 N 0.6085 0.75084 0.80998 0.0
H394 H 0.6245 0.69017 0.90346 0.0
H395 H 0.58156 0.68539 0.8672 0.0
H396 H 0.60006 0.76779 0.78707 0.0
H397 H 0.58491 0.70947 0.81124 0.0
H398 H 0.79618 0.90708 0.91283 0.0
H399 H 0.7789 0.84572 0.93339 0.0
H400 H 0.78971 0.9443 0.86555 0.0
H401 H 0.74738 0.93977 0.82914 0.0
C402 C 0.84634 0.70146 0.02693 0.0
C403 C 0.83929 0.66794 0.99585 0.0
C404 C 0.8994 0.64228 0.02491 0.0
C405 C 0.91881 0.6879 0.04803 0.0
N406 N 0.89608 0.74314 0.08433 0.0
N407 N 0.85177 0.59938 0.96764 0.0
C408 C 0.88661 0.71118 0.05375 0.0
C409 C 0.8623 0.63482 0.99614 0.0
N410 N 0.81656 0.7259 0.0291 0.0
N411 N 0.91561 0.60618 0.03109 0.0
H412 H 0.82348 0.5921 0.94688 0.0
H413 H 0.87234 0.57882 0.96394 0.0
H414 H 0.93859 0.60907 0.05452 0.0
H415 H 0.90072 0.57049 0.01634 0.0
H416 H 0.82129 0.75352 0.04957 0.0
H417 H 0.78586 0.71739 0.01004 0.0
H418 H 0.87455 0.76188 0.09098 0.0
H419 H 0.92443 0.74805 0.1045 0.0
C420 C 0.17932 0.88982 0.20966 0.0
C421 C 0.23393 0.9245 0.20162 0.0
C422 C 0.2273 0.86904 0.14754 0.0
C423 C 0.17107 0.84427 0.15011 0.0
N424 N 0.09253 0.82246 0.18614 0.0
N425 N 0.31333 0.94121 0.16799 0.0
C426 C 0.14679 0.85112 0.18254 0.0
C427 C 0.25936 0.91122 0.17283 0.0
N428 N 0.15904 0.89568 0.24281 0.0
N429 N 0.24965 0.85305 0.12039 0.0
H430 H 0.3386 0.96817 0.18801 0.0
H431 H 0.33343 0.93939 0.1443 0.0
H432 H 0.22682 0.82275 0.10133 0.0
H433 H 0.29027 0.86637 0.11851 0.0
H434 H 0.12015 0.8703 0.25188 0.0
H435 H 0.18333 0.92403 0.26271 0.0
H436 H 0.07134 0.82912 0.20698 0.0
H437 H 0.06847 0.79212 0.16736 0.0
C438 C 0.26011 0.14118 0.34449 0.0
C439 C 0.29603 0.16592 0.31424 0.0
C440 C 0.30699 0.25247 0.33126 0.0
C441 C 0.27004 0.22772 0.36128 0.0
N442 N 0.22299 0.15253 0.40269 0.0
N443 N 0.36573 0.24601 0.28567 0.0
C444 C 0.25046 0.17323 0.36998 0.0
C445 C 0.32399 0.22202 0.3103 0.0
N446 N 0.23396 0.08693 0.34796 0.0
N447 N 0.3221 0.30335 0.32027 0.0
H448 H 0.37831 0.22458 0.26923 0.0
H449 H 0.39106 0.28716 0.28429 0.0
H450 H 0.30945 0.32708 0.33345 0.0
H451 H 0.34357 0.32069 0.29577 0.0
H452 H 0.20257 0.06569 0.36662 0.0
H453 H 0.24246 0.06291 0.33081 0.0
H454 H 0.21126 0.11426 0.41227 0.0
H455 H 0.2163 0.17562 0.42205 0.0
C456 C 0.15733 0.293 0.5362 0.0
C457 C 0.16362 0.33018 0.50786 0.0
C458 C 0.10912 0.35596 0.54485 0.0
C459 C 0.08902 0.30752 0.5648 0.0
N460 N 0.10961 0.24498 0.59281 0.0
N461 N 0.15267 0.40384 0.48791 0.0
C462 C 0.11921 0.28146 0.56524 0.0
C463 C 0.14319 0.36507 0.51359 0.0
N464 N 0.18598 0.2674 0.53379 0.0
N465 N 0.09605 0.39285 0.55617 0.0
H466 H 0.17878 0.41283 0.46536 0.0
H467 H 0.13315 0.42576 0.48831 0.0
H468 H 0.07469 0.38773 0.58094 0.0
H469 H 0.1119 0.43053 0.54407 0.0
H470 H 0.18252 0.23819 0.55241 0.0
H471 H 0.21502 0.27713 0.51308 0.0
H472 H 0.12882 0.22295 0.59509 0.0
H473 H 0.08319 0.23889 0.6148 0.0
C474 C 0.76872 0.11665 0.65053 0.0
C475 C 0.82424 0.14554 0.65805 0.0
C476 C 0.81023 0.09799 0.71748 0.0
C477 C 0.75663 0.06313 0.70659 0.0
N478 N 0.67995 0.05544 0.67424 0.0
N479 N 0.89591 0.17638 0.70259 0.0
C480 C 0.73402 0.07802 0.677 0.0
C481 C 0.84423 0.14078 0.69326 0.0
N482 N 0.7498 0.12361 0.61709 0.0
N483 N 0.82838 0.08806 0.7502 0.0
H484 H 0.92069 0.20818 0.68503 0.0
H485 H 0.91336 0.17676 0.72822 0.0
H486 H 0.80258 0.05844 0.76887 0.0
H487 H 0.86792 0.10859 0.75903 0.0
H488 H 0.71086 0.09894 0.60779 0.0
H489 H 0.774 0.15293 0.59775 0.0
H490 H 0.66128 0.067 0.65442 0.0
H491 H 0.65403 0.03022 0.69486 0.0
C492 C 0.18031 0.38895 0.27885 0.0
C493 C 0.15054 0.34271 0.3016 0.0
C494 C 0.08828 0.30091 0.24959 0.0
C495 C 0.12421 0.34083 0.22473 0.0
N496 N 0.20705 0.42306 0.21533 0.0
N497 N 0.08472 0.24773 0.30208 0.0
C498 C 0.17087 0.38543 0.23921 0.0
C499 C 0.10634 0.29682 0.28548 0.0
N500 N 0.21648 0.4362 0.29498 0.0
N501 N 0.03724 0.2658 0.23854 0.0
H502 H 0.10154 0.23955 0.32515 0.0
H503 H 0.0548 0.21323 0.28931 0.0
H504 H 0.02221 0.26865 0.21249 0.0
H505 H 0.00867 0.2382 0.25696 0.0
H506 H 0.23616 0.4719 0.28005 0.0
H507 H 0.22247 0.44082 0.32397 0.0
H508 H 0.24445 0.45329 0.22406 0.0
H509 H 0.20097 0.42185 0.18637 0.0
C510 C 0.83254 0.20756 0.44257 0.0
C511 C 0.87222 0.19842 0.45869 0.0
C512 C 0.87525 0.15507 0.40091 0.0
C513 C 0.84124 0.17021 0.38261 0.0
N514 N 0.7963 0.22139 0.38489 0.0
N515 N 0.94521 0.18235 0.44659 0.0
C516 C 0.82238 0.19968 0.40306 0.0
C517 C 0.89812 0.17839 0.43572 0.0
N518 N 0.80297 0.22134 0.46482 0.0
N519 N 0.88302 0.11562 0.38681 0.0
H520 H 0.96575 0.20288 0.47071 0.0
H521 H 0.96686 0.17121 0.42907 0.0
H522 H 0.86169 0.09179 0.36405 0.0
H523 H 0.9049 0.10156 0.40118 0.0
H524 H 0.77016 0.22328 0.45485 0.0
H525 H 0.80801 0.22602 0.49384 0.0
H526 H 0.78596 0.2471 0.39798 0.0
H527 H 0.78998 0.21823 0.35591 0.0
C528 C 0.63071 0.84897 0.59497 0.0
C529 C 0.63522 0.81941 0.62521 0.0
C530 C 0.63704 0.75562 0.58097 0.0
C531 C 0.6356 0.78688 0.5508 0.0
N532 N 0.61557 0.85291 0.52811 0.0
N533 N 0.62762 0.73795 0.6482 0.0
C534 C 0.62695 0.83003 0.5576 0.0
C535 C 0.63314 0.77026 0.61851 0.0
N536 N 0.63391 0.89694 0.60167 0.0
N537 N 0.64527 0.71398 0.57378 0.0
H538 H 0.62437 0.74802 0.67588 0.0
H539 H 0.62142 0.69952 0.64532 0.0
H540 H 0.64662 0.70121 0.54659 0.0
H541 H 0.65322 0.6936 0.59453 0.0
H542 H 0.63763 0.92343 0.58051 0.0
H543 H 0.63592 0.91201 0.62859 0.0
H544 H 0.60413 0.88148 0.53128 0.0
H545 H 0.61271 0.83948 0.5005 0.0
C546 C 0.86159 0.71472 0.73147 0.0
C547 C 0.84297 0.66544 0.71256 0.0
C548 C 0.80514 0.61882 0.7723 0.0
C549 C 0.8172 0.66819 0.78908 0.0
N550 N 0.83989 0.75986 0.7787 0.0
N551 N 0.79009 0.56936 0.71404 0.0
C552 C 0.84024 0.71516 0.76689 0.0
C553 C 0.81275 0.61691 0.73269 0.0
N554 N 0.90165 0.76119 0.71666 0.0
N555 N 0.78844 0.57446 0.79409 0.0
H556 H 0.79431 0.56667 0.68514 0.0
H557 H 0.76345 0.53317 0.72669 0.0
H558 H 0.7836 0.57468 0.82312 0.0
H559 H 0.78401 0.5388 0.78384 0.0
H560 H 0.91878 0.7972 0.73131 0.0
H561 H 0.92247 0.76256 0.69236 0.0
H562 H 0.85295 0.79348 0.76169 0.0
H563 H 0.82033 0.76089 0.80304 0.0
C564 C 0.14321 0.8076 0.88078 0.0
C565 C 0.18971 0.85819 0.87618 0.0
C566 C 0.20544 0.86377 0.94424 0.0
C567 C 0.15467 0.81765 0.94919 0.0
N568 N 0.07388 0.74549 0.92293 0.0
N569 N 0.26512 0.93591 0.90294 0.0
C570 C 0.12351 0.7889 0.91763 0.0
C571 C 0.22143 0.88634 0.90771 0.0
N572 N 0.1183 0.77742 0.84978 0.0
N573 N 0.2383 0.88564 0.97459 0.0
H574 H 0.27873 0.95329 0.87659 0.0
H575 H 0.28616 0.96126 0.92509 0.0
H576 H 0.22744 0.86965 0.00161 0.0
H577 H 0.27777 0.91635 0.97263 0.0
H578 H 0.08711 0.73812 0.85109 0.0
H579 H 0.13206 0.79023 0.82249 0.0
H580 H 0.04648 0.7267 0.90134 0.0
H581 H 0.0587 0.72981 0.94944 0.0
C582 C 0.38835 0.21629 0.11641 0.0
C583 C 0.37795 0.16416 0.12433 0.0
C584 C 0.38555 0.14931 0.05737 0.0
C585 C 0.38449 0.19653 0.0491 0.0
N586 N 0.3865 0.27673 0.07017 0.0
N587 N 0.36924 0.08103 0.10349 0.0
C588 C 0.38786 0.23137 0.07844 0.0
C589 C 0.37869 0.13109 0.0952 0.0
N590 N 0.39787 0.25078 0.14545 0.0
N591 N 0.39261 0.12194 0.0288 0.0
H592 H 0.36574 0.06711 0.13099 0.0
H593 H 0.36262 0.05243 0.08326 0.0
H594 H 0.3979 0.13506 0.00095 0.0
H595 H 0.39802 0.08942 0.03294 0.0
H596 H 0.41013 0.29094 0.14179 0.0
H597 H 0.3983 0.24004 0.17343 0.0
H598 H 0.38203 0.3002 0.09034 0.0
H599 H 0.38713 0.28978 0.04277 0.0
loop_
_geom_bond_atom_site_label_1
_geom_bond_atom_site_label_2
_geom_bond_distance
_geom_bond_site_symmetry_2
_ccdc_geom_bond_type
Zn0 O3 2.031 . S
Zn0 O5 2.049 . S
Zn0 O10 2.067 . S
Zn1 O2 1.949 1_455 S
Zn1 O4 1.986 . S
Zn1 O6 1.996 . S
Zn1 O9 1.943 . S
O2 Zn1 1.949 1_655 S
O2 C7 1.251 . S
O3 Zn0 2.031 . S
O3 C7 1.269 1_455 S
O4 Zn1 1.986 . S
O4 C11 1.262 . S
O5 Zn0 2.049 . S
O5 C13 1.260 . S
O6 Zn1 1.996 . S
O6 C13 1.257 . S
C7 O2 1.251 . S
C7 O3 1.269 1_655 S
C8 O9 1.249 . S
C8 O10 1.270 . S
O9 Zn1 1.943 . S
O9 C8 1.249 . S
O10 Zn0 2.067 . S
O10 C8 1.270 . S
C11 O4 1.262 . S
C11 O12 1.232 . S
O12 C11 1.232 . S
C13 O5 1.260 . S
C13 O6 1.257 . S
Zn14 O17 2.031 . S
Zn14 O19 2.049 . S
Zn14 O24 2.067 . S
Zn15 O16 1.945 1_545 S
Zn15 O18 1.986 . S
Zn15 O20 1.996 . S
Zn15 O23 1.943 . S
O16 Zn15 1.945 1_565 S
O16 C21 1.263 . S
O17 Zn14 2.031 . S
O17 C21 1.269 1_545 S
O18 Zn15 1.986 . S
O18 C25 1.262 . S
O19 Zn14 2.049 . S
O19 C27 1.260 . S
O20 Zn15 1.996 . S
O20 C27 1.257 . S
C21 O16 1.263 . S
C21 O17 1.269 1_565 S
C22 O23 1.249 . S
C22 O24 1.270 . S
O23 Zn15 1.943 . S
O23 C22 1.249 . S
O24 Zn14 2.067 . S
O24 C22 1.270 . S
C25 O18 1.262 . S
C25 O26 1.232 . S
O26 C25 1.232 . S
C27 O19 1.260 . S
C27 O20 1.257 . S
Zn28 O31 2.031 . S
Zn28 O33 2.049 . S
Zn28 O38 2.067 . S
Zn29 O30 1.962 . S
Zn29 O32 1.986 . S
Zn29 O34 1.996 . S
Zn29 O37 1.943 . S
O30 Zn29 1.962 . S
O30 C35 1.254 . S
O31 Zn28 2.031 . S
O31 C35 1.269 . S
O32 Zn29 1.986 . S
O32 C39 1.262 . S
O33 Zn28 2.049 . S
O33 C41 1.260 . S
O34 Zn29 1.996 . S
O34 C41 1.257 . S
C35 O30 1.254 . S
C35 O31 1.269 . S
C36 O37 1.249 . S
C36 O38 1.270 . S
O37 Zn29 1.943 . S
O37 C36 1.249 . S
O38 Zn28 2.067 . S
O38 C36 1.270 . S
C39 O32 1.262 . S
C39 O40 1.232 . S
O40 C39 1.232 . S
C41 O33 1.260 . S
C41 O34 1.257 . S
Zn42 O45 2.031 . S
Zn42 O47 2.049 . S
Zn42 O52 2.067 . S
Zn43 O44 1.949 1_655 S
Zn43 O46 1.986 . S
Zn43 O48 1.996 . S
Zn43 O51 1.943 . S
O44 Zn43 1.949 1_455 S
O44 C49 1.251 . S
O45 Zn42 2.031 . S
O45 C49 1.269 1_655 S
O46 Zn43 1.986 . S
O46 C53 1.262 . S
O47 Zn42 2.049 . S
O47 C55 1.260 . S
O48 Zn43 1.996 . S
O48 C55 1.257 . S
C49 O44 1.251 . S
C49 O45 1.269 1_455 S
C50 O51 1.249 . S
C50 O52 1.270 . S
O51 Zn43 1.943 . S
O51 C50 1.249 . S
O52 Zn42 2.067 . S
O52 C50 1.270 . S
C53 O46 1.262 . S
C53 O54 1.232 . S
O54 C53 1.232 . S
C55 O47 1.260 . S
C55 O48 1.257 . S
Zn56 O59 2.031 . S
Zn56 O61 2.049 . S
Zn56 O66 2.067 . S
Zn57 O58 1.945 1_565 S
Zn57 O60 1.986 . S
Zn57 O62 1.996 . S
Zn57 O65 1.943 . S
O58 Zn57 1.945 1_545 S
O58 C63 1.263 . S
O59 Zn56 2.031 . S
O59 C63 1.269 1_565 S
O60 Zn57 1.986 . S
O60 C67 1.262 . S
O61 Zn56 2.049 . S
O61 C69 1.260 . S
O62 Zn57 1.996 . S
O62 C69 1.257 . S
C63 O58 1.263 . S
C63 O59 1.269 1_545 S
C64 O65 1.249 . S
C64 O66 1.270 . S
O65 Zn57 1.943 . S
O65 C64 1.249 . S
O66 Zn56 2.067 . S
O66 C64 1.270 . S
C67 O60 1.262 . S
C67 O68 1.232 . S
O68 C67 1.232 . S
C69 O61 1.260 . S
C69 O62 1.257 . S
Zn70 O73 2.037 . S
Zn70 O75 2.049 . S
Zn70 O80 2.067 1_556 S
Zn71 O72 1.962 . S
Zn71 O74 1.986 . S
Zn71 O76 1.996 . S
Zn71 O79 1.943 . S
O72 Zn71 1.962 . S
O72 C77 1.254 . S
O73 Zn70 2.037 . S
O73 C77 1.275 . S
O74 Zn71 1.986 . S
O74 C81 1.262 . S
O75 Zn70 2.049 . S
O75 C83 1.260 . S
O76 Zn71 1.996 . S
O76 C83 1.257 . S
C77 O72 1.254 . S
C77 O73 1.275 . S
C78 O79 1.249 1_554 S
C78 O80 1.270 . S
O79 Zn71 1.943 . S
O79 C78 1.249 1_556 S
O80 Zn70 2.067 1_554 S
O80 C78 1.270 . S
C81 O74 1.262 . S
C81 O82 1.232 . S
O82 C81 1.232 . S
C83 O75 1.260 . S
C83 O76 1.257 . S
Zn84 O87 2.031 . S
Zn84 O89 2.049 . S
Zn84 O94 2.067 . S
Zn85 O86 1.949 1_565 S
Zn85 O88 1.986 . S
Zn85 O90 1.996 . S
Zn85 O93 1.943 . S
O86 Zn85 1.949 1_545 S
O86 C91 1.251 . S
O87 Zn84 2.031 . S
O87 C91 1.269 1_565 S
O88 Zn85 1.986 . S
O88 C95 1.262 . S
O89 Zn84 2.049 . S
O89 C97 1.260 . S
O90 Zn85 1.996 . S
O90 C97 1.257 . S
C91 O86 1.251 . S
C91 O87 1.269 1_545 S
C92 O93 1.249 . S
C92 O94 1.270 . S
O93 Zn85 1.943 . S
O93 C92 1.249 . S
O94 Zn84 2.067 . S
O94 C92 1.270 . S
C95 O88 1.262 . S
C95 O96 1.232 . S
O96 C95 1.232 . S
C97 O89 1.260 . S
C97 O90 1.257 . S
Zn98 O101 2.031 . S
Zn98 O103 2.049 . S
Zn98 O108 2.067 . S
Zn99 O100 1.962 . S
Zn99 O102 1.986 . S
Zn99 O104 1.996 . S
Zn99 O107 1.943 . S
O100 Zn99 1.962 . S
O100 C105 1.254 . S
O101 Zn98 2.031 . S
O101 C105 1.269 . S
O102 Zn99 1.986 . S
O102 C109 1.262 . S
O103 Zn98 2.049 . S
O103 C111 1.260 . S
O104 Zn99 1.996 . S
O104 C111 1.257 . S
C105 O100 1.254 . S
C105 O101 1.269 . S
C106 O107 1.249 . S
C106 O108 1.270 . S
O107 Zn99 1.943 . S
O107 C106 1.249 . S
O108 Zn98 2.067 . S
O108 C106 1.270 . S
C109 O102 1.262 . S
C109 O110 1.232 . S
O110 C109 1.232 . S
C111 O103 1.260 . S
C111 O104 1.257 . S
Zn112 O115 2.037 . S
Zn112 O117 2.049 . S
Zn112 O122 2.067 1_554 S
Zn113 O114 1.945 1_455 S
Zn113 O116 1.986 . S
Zn113 O118 1.996 . S
Zn113 O121 1.943 . S
O114 Zn113 1.945 1_655 S
O114 C119 1.263 . S
O115 Zn112 2.037 . S
O115 C119 1.275 1_455 S
O116 Zn113 1.986 . S
O116 C123 1.262 . S
O117 Zn112 2.049 . S
O117 C125 1.260 . S
O118 Zn113 1.996 . S
O118 C125 1.257 . S
C119 O114 1.263 . S
C119 O115 1.275 1_655 S
C120 O121 1.249 1_556 S
C120 O122 1.270 . S
O121 Zn113 1.943 . S
O121 C120 1.249 1_554 S
O122 Zn112 2.067 1_556 S
O122 C120 1.270 . S
C123 O116 1.262 . S
C123 O124 1.232 . S
O124 C123 1.232 . S
C125 O117 1.260 . S
C125 O118 1.257 . S
Zn126 O129 2.031 . S
Zn126 O131 2.049 . S
Zn126 O136 2.067 . S
Zn127 O128 1.949 1_545 S
Zn127 O130 1.986 . S
Zn127 O132 1.996 . S
Zn127 O135 1.943 . S
O128 Zn127 1.949 1_565 S
O128 C133 1.251 . S
O129 Zn126 2.031 . S
O129 C133 1.269 1_545 S
O130 Zn127 1.986 . S
O130 C137 1.262 . S
O131 Zn126 2.049 . S
O131 C139 1.260 . S
O132 Zn127 1.996 . S
O132 C139 1.257 . S
C133 O128 1.251 . S
C133 O129 1.269 1_565 S
C134 O135 1.249 . S
C134 O136 1.270 . S
O135 Zn127 1.943 . S
O135 C134 1.249 . S
O136 Zn126 2.067 . S
O136 C134 1.270 . S
C137 O130 1.262 . S
C137 O138 1.232 . S
O138 C137 1.232 . S
C139 O131 1.260 . S
C139 O132 1.257 . S
Zn140 O143 2.031 . S
Zn140 O145 2.049 . S
Zn140 O150 2.067 . S
Zn141 O142 1.962 . S
Zn141 O144 1.986 . S
Zn141 O146 1.996 . S
Zn141 O149 1.943 . S
O142 Zn141 1.962 . S
O142 C147 1.254 . S
O143 Zn140 2.031 . S
O143 C147 1.269 . S
O144 Zn141 1.986 . S
O144 C151 1.262 . S
O145 Zn140 2.049 . S
O145 C153 1.260 . S
O146 Zn141 1.996 . S
O146 C153 1.257 . S
C147 O142 1.254 . S
C147 O143 1.269 . S
C148 O149 1.249 . S
C148 O150 1.270 . S
O149 Zn141 1.943 . S
O149 C148 1.249 . S
O150 Zn140 2.067 . S
O150 C148 1.270 . S
C151 O144 1.262 . S
C151 O152 1.232 . S
O152 C151 1.232 . S
C153 O145 1.260 . S
C153 O146 1.257 . S
Zn154 O157 2.031 . S
Zn154 O159 2.049 . S
Zn154 O164 2.067 . S
Zn155 O156 1.945 1_655 S
Zn155 O158 1.986 . S
Zn155 O160 1.996 . S
Zn155 O163 1.943 . S
O156 Zn155 1.945 1_455 S
O156 C161 1.263 . S
O157 Zn154 2.031 . S
O157 C161 1.269 1_655 S
O158 Zn155 1.986 . S
O158 C165 1.262 . S
O159 Zn154 2.049 . S
O159 C167 1.260 . S
O160 Zn155 1.996 . S
O160 C167 1.257 . S
C161 O156 1.263 . S
C161 O157 1.269 1_455 S
C162 O163 1.249 . S
C162 O164 1.270 . S
O163 Zn155 1.943 . S
O163 C162 1.249 . S
O164 Zn154 2.067 . S
O164 C162 1.270 . S
C165 O158 1.262 . S
C165 O166 1.232 . S
O166 C165 1.232 . S
C167 O159 1.260 . S
C167 O160 1.257 . S
C168 C169 1.363 . S
C168 C174 1.379 . S
C168 N176 1.356 . S
C169 C168 1.363 . S
C169 C175 1.363 . S
C170 C171 1.363 . S
C170 C175 1.379 . S
C170 N177 1.356 . S
C171 C170 1.363 . S
C171 C174 1.363 . S
N172 C174 1.356 . S
N172 H184 0.984 . S
N172 H185 0.985 . S
N173 C175 1.356 . S
N173 H178 0.984 . S
N173 H179 0.985 . S
C174 C168 1.379 . S
C174 C171 1.363 . S
C174 N172 1.356 . S
C175 C169 1.363 . S
C175 C170 1.379 . S
C175 N173 1.356 . S
N176 C168 1.356 . S
N176 H182 0.984 . S
N176 H183 0.984 . S
N177 C170 1.356 . S
N177 H180 0.984 . S
N177 H181 0.985 . S
H178 N173 0.984 . S
H179 N173 0.985 . S
H180 N177 0.984 . S
H181 N177 0.985 . S
H182 N176 0.984 . S
H183 N176 0.984 . S
H184 N172 0.984 . S
H185 N172 0.985 . S
C186 C187 1.363 . S
C186 C192 1.379 . S
C186 N194 1.356 . S
C187 C186 1.363 . S
C187 C193 1.363 . S
C188 C189 1.363 . S
C188 C193 1.379 . S
C188 N195 1.356 . S
C189 C188 1.363 . S
C189 C192 1.363 . S
N190 C192 1.356 . S
N190 H202 0.984 1_545 S
N190 H203 0.985 . S
N191 C193 1.356 . S
N191 H196 0.984 . S
N191 H197 0.985 . S
C192 C186 1.379 . S
C192 C189 1.363 . S
C192 N190 1.356 . S
C193 C187 1.363 . S
C193 C188 1.379 . S
C193 N191 1.356 . S
N194 C186 1.356 . S
N194 H200 0.984 1_545 S
N194 H201 0.984 . S
N195 C188 1.356 . S
N195 H198 0.984 . S
N195 H199 0.985 . S
H196 N191 0.984 . S
H197 N191 0.985 . S
H198 N195 0.984 . S
H199 N195 0.985 . S
H200 N194 0.984 1_565 S
H201 N194 0.984 . S
H202 N190 0.984 1_565 S
H203 N190 0.985 . S
C204 C205 1.363 . S
C204 C210 1.379 . S
C204 N212 1.356 . S
C205 C204 1.363 . S
C205 C211 1.363 . S
C206 C207 1.363 . S
C206 C211 1.379 . S
C206 N213 1.356 . S
C207 C206 1.363 . S
C207 C210 1.363 . S
N208 C210 1.356 . S
N208 H220 0.984 . S
N208 H221 0.985 . S
N209 C211 1.356 . S
N209 H214 0.984 . S
N209 H215 0.985 . S
C210 C204 1.379 . S
C210 C207 1.363 . S
C210 N208 1.356 . S
C211 C205 1.363 . S
C211 C206 1.379 . S
C211 N209 1.356 . S
N212 C204 1.356 . S
N212 H218 0.984 . S
N212 H219 0.984 . S
N213 C206 1.356 . S
N213 H216 0.984 . S
N213 H217 0.985 . S
H214 N209 0.984 . S
H215 N209 0.985 . S
H216 N213 0.984 . S
H217 N213 0.985 . S
H218 N212 0.984 . S
H219 N212 0.984 . S
H220 N208 0.984 . S
H221 N208 0.985 . S
C222 C223 1.363 . S
C222 C228 1.379 . S
C222 N230 1.356 . S
C223 C222 1.363 . S
C223 C229 1.363 . S
C224 C225 1.363 . S
C224 C229 1.379 . S
C224 N231 1.356 . S
C225 C224 1.363 . S
C225 C228 1.363 . S
N226 C228 1.356 . S
N226 H238 0.984 . S
N226 H239 0.985 . S
N227 C229 1.356 . S
N227 H232 0.984 . S
N227 H233 0.985 1_655 S
C228 C222 1.379 . S
C228 C225 1.363 . S
C228 N226 1.356 . S
C229 C223 1.363 . S
C229 C224 1.379 . S
C229 N227 1.356 . S
N230 C222 1.356 . S
N230 H236 0.984 . S
N230 H237 0.984 . S
N231 C224 1.356 . S
N231 H234 0.984 . S
N231 H235 0.985 1_655 S
H232 N227 0.984 . S
H233 N227 0.985 1_455 S
H234 N231 0.984 . S
H235 N231 0.985 1_455 S
H236 N230 0.984 . S
H237 N230 0.984 . S
H238 N226 0.984 . S
H239 N226 0.985 . S
C240 C241 1.363 . S
C240 C246 1.379 . S
C240 N248 1.356 . S
C241 C240 1.363 . S
C241 C247 1.363 . S
C242 C243 1.363 . S
C242 C247 1.379 . S
C242 N249 1.356 . S
C243 C242 1.363 . S
C243 C246 1.363 . S
N244 C246 1.356 . S
N244 H256 0.984 . S
N244 H257 0.985 . S
N245 C247 1.356 . S
N245 H250 0.984 . S
N245 H251 0.985 1_565 S
C246 C240 1.379 . S
C246 C243 1.363 . S
C246 N244 1.356 . S
C247 C241 1.363 . S
C247 C242 1.379 . S
C247 N245 1.356 . S
N248 C240 1.356 . S
N248 H254 0.984 . S
N248 H255 0.984 . S
N249 C242 1.356 . S
N249 H252 0.984 . S
N249 H253 0.985 1_565 S
H250 N245 0.984 . S
H251 N245 0.985 1_545 S
H252 N249 0.984 . S
H253 N249 0.985 1_545 S
H254 N248 0.984 . S
H255 N248 0.984 . S
H256 N244 0.984 . S
H257 N244 0.985 . S
C258 C259 1.363 . S
C258 C264 1.379 . S
C258 N266 1.356 . S
C259 C258 1.363 . S
C259 C265 1.363 . S
C260 C261 1.363 . S
C260 C265 1.379 . S
C260 N267 1.356 . S
C261 C260 1.363 . S
C261 C264 1.363 . S
N262 C264 1.356 . S
N262 H274 0.984 . S
N262 H275 0.985 . S
N263 C265 1.356 . S
N263 H268 0.984 . S
N263 H269 0.985 1_556 S
C264 C258 1.379 . S
C264 C261 1.363 . S
C264 N262 1.356 . S
C265 C259 1.363 . S
C265 C260 1.379 . S
C265 N263 1.356 . S
N266 C258 1.356 . S
N266 H272 0.984 . S
N266 H273 0.984 . S
N267 C260 1.356 . S
N267 H270 0.984 . S
N267 H271 0.985 . S
H268 N263 0.984 . S
H269 N263 0.985 1_554 S
H270 N267 0.984 . S
H271 N267 0.985 . S
H272 N266 0.984 . S
H273 N266 0.984 . S
H274 N262 0.984 . S
H275 N262 0.985 . S
C276 C277 1.363 . S
C276 C282 1.379 1_554 S
C276 N284 1.356 . S
C277 C276 1.363 . S
C277 C283 1.363 . S
C278 C279 1.363 . S
C278 C283 1.379 . S
C278 N285 1.356 . S
C279 C278 1.363 . S
C279 C282 1.363 1_554 S
N280 C282 1.356 . S
N280 H292 0.984 . S
N280 H293 0.985 . S
N281 C283 1.356 . S
N281 H286 0.984 . S
N281 H287 0.985 . S
C282 C276 1.379 1_556 S
C282 C279 1.363 1_556 S
C282 N280 1.356 . S
C283 C277 1.363 . S
C283 C278 1.379 . S
C283 N281 1.356 . S
N284 C276 1.356 . S
N284 H290 0.984 1_554 S
N284 H291 0.984 . S
N285 C278 1.356 . S
N285 H288 0.984 . S
N285 H289 0.985 . S
H286 N281 0.984 . S
H287 N281 0.985 . S
H288 N285 0.984 . S
H289 N285 0.985 . S
H290 N284 0.984 1_556 S
H291 N284 0.984 . S
H292 N280 0.984 . S
H293 N280 0.985 . S
C294 C295 1.363 . S
C294 C300 1.379 . S
C294 N302 1.356 . S
C295 C294 1.363 . S
C295 C301 1.363 . S
C296 C297 1.363 . S
C296 C301 1.379 . S
C296 N303 1.356 . S
C297 C296 1.363 . S
C297 C300 1.363 . S
N298 C300 1.356 . S
N298 H310 0.984 . S
N298 H311 0.985 1_655 S
N299 C301 1.356 . S
N299 H304 0.984 . S
N299 H305 0.985 . S
C300 C294 1.379 . S
C300 C297 1.363 . S
C300 N298 1.356 . S
C301 C295 1.363 . S
C301 C296 1.379 . S
C301 N299 1.356 . S
N302 C294 1.356 . S
N302 H308 0.984 . S
N302 H309 0.984 . S
N303 C296 1.356 . S
N303 H306 0.984 . S
N303 H307 0.985 . S
H304 N299 0.984 . S
H305 N299 0.985 . S
H306 N303 0.984 . S
H307 N303 0.985 . S
H308 N302 0.984 . S
H309 N302 0.984 . S
H310 N298 0.984 . S
H311 N298 0.985 1_455 S
C312 C313 1.363 . S
C312 C318 1.379 . S
C312 N320 1.356 . S
C313 C312 1.363 . S
C313 C319 1.363 . S
C314 C315 1.363 . S
C314 C319 1.379 . S
C314 N321 1.356 1_565 S
C315 C314 1.363 . S
C315 C318 1.363 . S
N316 C318 1.356 . S
N316 H328 0.984 . S
N316 H329 0.985 . S
N317 C319 1.356 . S
N317 H322 0.984 . S
N317 H323 0.985 . S
C318 C312 1.379 . S
C318 C315 1.363 . S
C318 N316 1.356 . S
C319 C313 1.363 . S
C319 C314 1.379 . S
C319 N317 1.356 . S
N320 C312 1.356 . S
N320 H326 0.984 . S
N320 H327 0.984 . S
N321 C314 1.356 1_545 S
N321 H324 0.984 . S
N321 H325 0.985 . S
H322 N317 0.984 . S
H323 N317 0.985 . S
H324 N321 0.984 . S
H325 N321 0.985 . S
H326 N320 0.984 . S
H327 N320 0.984 . S
H328 N316 0.984 . S
H329 N316 0.985 . S
C330 C331 1.363 . S
C330 C336 1.379 . S
C330 N338 1.356 . S
C331 C330 1.363 . S
C331 C337 1.363 . S
C332 C333 1.363 . S
C332 C337 1.379 . S
C332 N339 1.356 . S
C333 C332 1.363 . S
C333 C336 1.363 . S
N334 C336 1.356 . S
N334 H346 0.984 . S
N334 H347 0.985 . S
N335 C337 1.356 . S
N335 H340 0.984 . S
N335 H341 0.985 . S
C336 C330 1.379 . S
C336 C333 1.363 . S
C336 N334 1.356 . S
C337 C331 1.363 . S
C337 C332 1.379 . S
C337 N335 1.356 . S
N338 C330 1.356 . S
N338 H344 0.984 . S
N338 H345 0.984 . S
N339 C332 1.356 . S
N339 H342 0.984 . S
N339 H343 0.985 . S
H340 N335 0.984 . S
H341 N335 0.985 . S
H342 N339 0.984 . S
H343 N339 0.985 . S
H344 N338 0.984 . S
H345 N338 0.984 . S
H346 N334 0.984 . S
H347 N334 0.985 . S
C348 C349 1.363 . S
C348 C354 1.379 . S
C348 N356 1.356 . S
C349 C348 1.363 . S
C349 C355 1.363 . S
C350 C351 1.363 . S
C350 C355 1.379 . S
C350 N357 1.356 . S
C351 C350 1.363 . S
C351 C354 1.363 . S
N352 C354 1.356 . S
N352 H364 0.984 . S
N352 H365 0.985 . S
N353 C355 1.356 . S
N353 H358 0.984 . S
N353 H359 0.985 . S
C354 C348 1.379 . S
C354 C351 1.363 . S
C354 N352 1.356 . S
C355 C349 1.363 . S
C355 C350 1.379 . S
C355 N353 1.356 . S
N356 C348 1.356 . S
N356 H362 0.985 1_455 S
N356 H363 0.985 1_455 S
N357 C350 1.356 . S
N357 H360 0.984 . S
N357 H361 0.985 . S
H358 N353 0.984 . S
H359 N353 0.985 . S
H360 N357 0.984 . S
H361 N357 0.985 . S
H362 N356 0.985 1_655 S
H363 N356 0.985 1_655 S
H364 N352 0.984 . S
H365 N352 0.985 . S
C366 C367 1.363 . S
C366 C372 1.379 . S
C366 N374 1.347 1_545 S
C367 C366 1.363 . S
C367 C373 1.363 . S
C368 C369 1.363 . S
C368 C373 1.379 . S
C368 N375 1.356 . S
C369 C368 1.363 . S
C369 C372 1.363 . S
N370 C372 1.356 . S
N370 H382 0.984 . S
N370 H383 0.985 . S
N371 C373 1.356 . S
N371 H376 0.984 . S
N371 H377 0.985 . S
C372 C366 1.379 . S
C372 C369 1.363 . S
C372 N370 1.356 . S
C373 C367 1.363 . S
C373 C368 1.379 . S
C373 N371 1.356 . S
N374 C366 1.347 1_565 S
N374 H380 0.985 . S
N374 H381 0.994 . S
N375 C368 1.356 . S
N375 H378 0.984 . S
N375 H379 0.985 . S
H376 N371 0.984 . S
H377 N371 0.985 . S
H378 N375 0.984 . S
H379 N375 0.985 . S
H380 N374 0.985 . S
H381 N374 0.994 . S
H382 N370 0.984 . S
H383 N370 0.985 . S
C384 C385 1.363 . S
C384 C390 1.379 . S
C384 N392 1.356 . S
C385 C384 1.363 . S
C385 C391 1.363 . S
C386 C387 1.363 . S
C386 C391 1.379 . S
C386 N393 1.356 . S
C387 C386 1.363 . S
C387 C390 1.363 . S
N388 C390 1.356 . S
N388 H400 0.984 . S
N388 H401 0.985 . S
N389 C391 1.356 . S
N389 H394 0.984 . S
N389 H395 0.985 . S
C390 C384 1.379 . S
C390 C387 1.363 . S
C390 N388 1.356 . S
C391 C385 1.363 . S
C391 C386 1.379 . S
C391 N389 1.356 . S
N392 C384 1.356 . S
N392 H398 0.984 . S
N392 H399 0.984 . S
N393 C386 1.356 . S
N393 H396 0.984 . S
N393 H397 0.985 . S
H394 N389 0.984 . S
H395 N389 0.985 . S
H396 N393 0.984 . S
H397 N393 0.985 . S
H398 N392 0.984 . S
H399 N392 0.984 . S
H400 N388 0.984 . S
H401 N388 0.985 . S
C402 C403 1.363 . S
C402 C408 1.379 . S
C402 N410 1.356 . S
C403 C402 1.363 . S
C403 C409 1.363 . S
C404 C405 1.363 1_554 S
C404 C409 1.379 1_554 S
C404 N411 1.356 . S
C405 C404 1.363 1_556 S
C405 C408 1.363 . S
N406 C408 1.356 1_455 S
N406 H418 0.984 . S
N406 H419 0.985 . S
N407 C409 1.356 . S
N407 H412 0.984 . S
N407 H413 1.001 . S
C408 C402 1.379 . S
C408 C405 1.363 . S
C408 N406 1.356 1_655 S
C409 C403 1.363 . S
C409 C404 1.379 1_556 S
C409 N407 1.356 . S
N410 C402 1.356 . S
N410 H416 0.984 . S
N410 H417 0.984 . S
N411 C404 1.356 . S
N411 H414 0.984 . S
N411 H415 0.985 . S
H412 N407 0.984 . S
H413 N407 1.001 . S
H414 N411 0.984 . S
H415 N411 0.985 . S
H416 N410 0.984 . S
H417 N410 0.984 . S
H418 N406 0.984 . S
H419 N406 0.985 . S
C420 C421 1.363 . S
C420 C426 1.379 . S
C420 N428 1.356 . S
C421 C420 1.363 . S
C421 C427 1.363 . S
C422 C423 1.363 . S
C422 C427 1.379 . S
C422 N429 1.356 . S
C423 C422 1.363 . S
C423 C426 1.363 . S
N424 C426 1.356 . S
N424 H436 0.984 . S
N424 H437 0.985 . S
N425 C427 1.356 1_545 S
N425 H430 0.984 . S
N425 H431 0.985 . S
C426 C420 1.379 . S
C426 C423 1.363 . S
C426 N424 1.356 . S
C427 C421 1.363 . S
C427 C422 1.379 . S
C427 N425 1.356 1_565 S
N428 C420 1.356 . S
N428 H434 0.984 . S
N428 H435 0.984 . S
N429 C422 1.356 . S
N429 H432 0.984 . S
N429 H433 0.985 . S
H430 N425 0.984 . S
H431 N425 0.985 . S
H432 N429 0.984 . S
H433 N429 0.985 . S
H434 N428 0.984 . S
H435 N428 0.984 . S
H436 N424 0.984 . S
H437 N424 0.985 . S
C438 C439 1.363 . S
C438 C444 1.379 . S
C438 N446 1.356 . S
C439 C438 1.363 . S
C439 C445 1.363 . S
C440 C441 1.363 . S
C440 C445 1.379 . S
C440 N447 1.356 . S
C441 C440 1.363 . S
C441 C444 1.363 . S
N442 C444 1.356 . S
N442 H454 0.984 . S
N442 H455 0.985 . S
N443 C445 1.356 . S
N443 H448 0.984 . S
N443 H449 0.985 . S
C444 C438 1.379 . S
C444 C441 1.363 . S
C444 N442 1.356 . S
C445 C439 1.363 . S
C445 C440 1.379 . S
C445 N443 1.356 . S
N446 C438 1.356 . S
N446 H452 0.984 . S
N446 H453 0.984 . S
N447 C440 1.356 . S
N447 H450 0.984 . S
N447 H451 0.985 . S
H448 N443 0.984 . S
H449 N443 0.985 . S
H450 N447 0.984 . S
H451 N447 0.985 . S
H452 N446 0.984 . S
H453 N446 0.984 . S
H454 N442 0.984 . S
H455 N442 0.985 . S
C456 C457 1.363 . S
C456 C462 1.379 . S
C456 N464 1.356 . S
C457 C456 1.363 . S
C457 C463 1.363 . S
C458 C459 1.363 . S
C458 C463 1.379 . S
C458 N465 1.356 . S
C459 C458 1.363 . S
C459 C462 1.363 . S
N460 C462 1.356 . S
N460 H472 0.984 1_455 S
N460 H473 0.985 1_455 S
N461 C463 1.356 . S
N461 H466 0.984 . S
N461 H467 0.985 . S
C462 C456 1.379 . S
C462 C459 1.363 . S
C462 N460 1.356 . S
C463 C457 1.363 . S
C463 C458 1.379 . S
C463 N461 1.356 . S
N464 C456 1.356 . S
N464 H470 0.984 . S
N464 H471 0.984 . S
N465 C458 1.356 . S
N465 H468 0.984 . S
N465 H469 0.985 . S
H466 N461 0.984 . S
H467 N461 0.985 . S
H468 N465 0.984 . S
H469 N465 0.985 . S
H470 N464 0.984 . S
H471 N464 0.984 . S
H472 N460 0.984 1_655 S
H473 N460 0.985 1_655 S
C474 C475 1.363 . S
C474 C480 1.379 . S
C474 N482 1.356 . S
C475 C474 1.363 . S
C475 C481 1.363 . S
C476 C477 1.363 . S
C476 C481 1.379 . S
C476 N483 1.356 . S
C477 C476 1.363 . S
C477 C480 1.363 . S
N478 C480 1.356 1_565 S
N478 H490 0.984 . S
N478 H491 0.985 . S
N479 C481 1.356 . S
N479 H484 0.984 . S
N479 H485 0.985 . S
C480 C474 1.379 . S
C480 C477 1.363 . S
C480 N478 1.356 1_545 S
C481 C475 1.363 . S
C481 C476 1.379 . S
C481 N479 1.356 . S
N482 C474 1.356 . S
N482 H488 0.984 . S
N482 H489 0.984 . S
N483 C476 1.356 . S
N483 H486 0.984 . S
N483 H487 0.985 . S
H484 N479 0.984 . S
H485 N479 0.985 . S
H486 N483 0.984 . S
H487 N483 0.985 . S
H488 N482 0.984 . S
H489 N482 0.984 . S
H490 N478 0.984 . S
H491 N478 0.985 . S
C492 C493 1.363 . S
C492 C498 1.379 . S
C492 N500 1.356 . S
C493 C492 1.363 . S
C493 C499 1.363 . S
C494 C495 1.363 . S
C494 C499 1.379 . S
C494 N501 1.356 . S
C495 C494 1.363 . S
C495 C498 1.363 . S
N496 C498 1.356 . S
N496 H508 0.984 . S
N496 H509 0.985 . S
N497 C499 1.356 . S
N497 H502 0.984 . S
N497 H503 0.985 . S
C498 C492 1.379 . S
C498 C495 1.363 . S
C498 N496 1.356 . S
C499 C493 1.363 . S
C499 C494 1.379 . S
C499 N497 1.356 . S
N500 C492 1.356 . S
N500 H506 0.984 . S
N500 H507 0.984 . S
N501 C494 1.356 . S
N501 H504 0.984 . S
N501 H505 0.985 . S
H502 N497 0.984 . S
H503 N497 0.985 . S
H504 N501 0.984 . S
H505 N501 0.985 . S
H506 N500 0.984 . S
H507 N500 0.984 . S
H508 N496 0.984 . S
H509 N496 0.985 . S
C510 C511 1.363 . S
C510 C516 1.379 . S
C510 N518 1.356 . S
C511 C510 1.363 . S
C511 C517 1.363 . S
C512 C513 1.363 . S
C512 C517 1.379 . S
C512 N519 1.356 . S
C513 C512 1.363 . S
C513 C516 1.363 . S
N514 C516 1.356 . S
N514 H526 0.984 . S
N514 H527 0.985 . S
N515 C517 1.356 . S
N515 H520 0.984 . S
N515 H521 0.985 . S
C516 C510 1.379 . S
C516 C513 1.363 . S
C516 N514 1.356 . S
C517 C511 1.363 . S
C517 C512 1.379 . S
C517 N515 1.356 . S
N518 C510 1.356 . S
N518 H524 0.984 . S
N518 H525 0.984 . S
N519 C512 1.356 . S
N519 H522 0.984 . S
N519 H523 0.985 . S
H520 N515 0.984 . S
H521 N515 0.985 . S
H522 N519 0.984 . S
H523 N519 0.985 . S
H524 N518 0.984 . S
H525 N518 0.984 . S
H526 N514 0.984 . S
H527 N514 0.985 . S
C528 C529 1.363 . S
C528 C534 1.379 . S
C528 N536 1.356 . S
C529 C528 1.363 . S
C529 C535 1.363 . S
C530 C531 1.363 . S
C530 C535 1.379 . S
C530 N537 1.356 . S
C531 C530 1.363 . S
C531 C534 1.363 . S
N532 C534 1.356 . S
N532 H544 0.984 . S
N532 H545 0.985 . S
N533 C535 1.356 . S
N533 H538 0.984 . S
N533 H539 0.985 . S
C534 C528 1.379 . S
C534 C531 1.363 . S
C534 N532 1.356 . S
C535 C529 1.363 . S
C535 C530 1.379 . S
C535 N533 1.356 . S
N536 C528 1.356 . S
N536 H542 0.984 . S
N536 H543 0.984 . S
N537 C530 1.356 . S
N537 H540 0.984 . S
N537 H541 0.985 . S
H538 N533 0.984 . S
H539 N533 0.985 . S
H540 N537 0.984 . S
H541 N537 0.985 . S
H542 N536 0.984 . S
H543 N536 0.984 . S
H544 N532 0.984 . S
H545 N532 0.985 . S
C546 C547 1.363 . S
C546 C552 1.379 . S
C546 N554 1.356 . S
C547 C546 1.363 . S
C547 C553 1.363 . S
C548 C549 1.363 . S
C548 C553 1.379 . S
C548 N555 1.356 . S
C549 C548 1.363 . S
C549 C552 1.363 . S
N550 C552 1.356 . S
N550 H562 0.984 . S
N550 H563 0.985 . S
N551 C553 1.356 . S
N551 H556 0.984 . S
N551 H557 0.985 . S
C552 C546 1.379 . S
C552 C549 1.363 . S
C552 N550 1.356 . S
C553 C547 1.363 . S
C553 C548 1.379 . S
C553 N551 1.356 . S
N554 C546 1.356 . S
N554 H560 0.984 . S
N554 H561 0.984 . S
N555 C548 1.356 . S
N555 H558 0.984 . S
N555 H559 0.985 . S
H556 N551 0.984 . S
H557 N551 0.985 . S
H558 N555 0.984 . S
H559 N555 0.985 . S
H560 N554 0.984 . S
H561 N554 0.984 . S
H562 N550 0.984 . S
H563 N550 0.985 . S
C564 C565 1.363 . S
C564 C570 1.379 . S
C564 N572 1.356 . S
C565 C564 1.363 . S
C565 C571 1.363 . S
C566 C567 1.363 . S
C566 C571 1.379 . S
C566 N573 1.356 . S
C567 C566 1.363 . S
C567 C570 1.363 . S
N568 C570 1.356 . S
N568 H580 0.984 . S
N568 H581 0.985 . S
N569 C571 1.356 . S
N569 H574 0.984 . S
N569 H575 0.985 . S
C570 C564 1.379 . S
C570 C567 1.363 . S
C570 N568 1.356 . S
C571 C565 1.363 . S
C571 C566 1.379 . S
C571 N569 1.356 . S
N572 C564 1.356 . S
N572 H578 0.984 . S
N572 H579 0.984 . S
N573 C566 1.356 . S
N573 H576 0.984 1_556 S
N573 H577 0.985 . S
H574 N569 0.984 . S
H575 N569 0.985 . S
H576 N573 0.984 1_554 S
H577 N573 0.985 . S
H578 N572 0.984 . S
H579 N572 0.984 . S
H580 N568 0.984 . S
H581 N568 0.985 . S
C582 C583 1.363 . S
C582 C588 1.379 . S
C582 N590 1.356 . S
C583 C582 1.363 . S
C583 C589 1.363 . S
C584 C585 1.363 . S
C584 C589 1.379 . S
C584 N591 1.356 . S
C585 C584 1.363 . S
C585 C588 1.363 . S
N586 C588 1.356 . S
N586 H598 0.984 . S
N586 H599 0.985 . S
N587 C589 1.356 . S
N587 H592 0.984 . S
N587 H593 0.985 . S
C588 C582 1.379 . S
C588 C585 1.363 . S
C588 N586 1.356 . S
C589 C583 1.363 . S
C589 C584 1.379 . S
C589 N587 1.356 . S
N590 C582 1.356 . S
N590 H596 0.984 . S
N590 H597 0.984 . S
N591 C584 1.356 . S
N591 H594 0.984 1_554 S
N591 H595 0.985 . S
H592 N587 0.984 . S
H593 N587 0.985 . S
H594 N591 0.984 1_556 S
H595 N591 0.985 . S
H596 N590 0.984 . S
H597 N590 0.984 . S
H598 N586 0.984 . S
H599 N586 0.985 . S
C169 C123 1.442 . S
C171 C11 1.442 . S
C187 C25 1.442 . S
C189 C137 1.442 . S
C205 C39 1.442 . S
C207 C151 1.442 . S
C223 C53 1.442 . S
C225 C165 1.442 . S
C241 C95 1.442 . S
C243 C67 1.442 . S
C259 C81 1.442 . S
C261 C109 1.442 . S
C277 C13 1.367 . S
C279 C77 1.424 1_554 S
C295 C27 1.367 . S
C297 C7 1.424 . S
C313 C41 1.367 . S
C315 C21 1.424 . S
C331 C35 1.424 . S
C333 C55 1.367 . S
C349 C49 1.424 . S
C351 C69 1.367 . S
C367 C63 1.424 . S
C369 C83 1.367 . S
C385 C105 1.424 . S
C387 C97 1.367 . S
C403 C111 1.367 . S
C405 C119 1.424 1_556 S
C421 C133 1.424 . S
C423 C125 1.367 . S
C439 C139 1.367 . S
C441 C147 1.424 . S
C457 C153 1.367 . S
C459 C161 1.424 . S
C475 C167 1.367 . S
C477 C91 1.424 . S
C493 C148 1.309 . S
C495 C8 1.309 . S
C511 C162 1.309 . S
C513 C22 1.309 . S
C529 C92 1.309 . S
C531 C36 1.309 . S
C547 C50 1.309 . S
C549 C106 1.309 . S
C565 C64 1.309 . S
C567 C120 1.309 . S
C583 C134 1.309 . S
C585 C78 1.309 . S
