# Generated by pormake.
# Topology sxc, (6)-cn, num edge types: 1
# Building blocks:
#     Node 0, Type 0, BuildingBlock: BETFAJ_clean_sbu_0, # of connection points: 6
#     Node 1, Type 0, BuildingBlock: BETFAJ_clean_sbu_0, # of connection points: 6
#     Node 2, Type 0, BuildingBlock: BETFAJ_clean_sbu_0, # of connection points: 6
#     Edge 3, Type (0, 0), BuildingBlock: KIFKEQ_clean_linker_1, # of connection points: 2
#     Edge 4, Type (0, 0), BuildingBlock: KIFKEQ_clean_linker_1, # of connection points: 2
#     Edge 5, Type (0, 0), BuildingBlock: KIFKEQ_clean_linker_1, # of connection points: 2
#     Edge 6, Type (0, 0), BuildingBlock: KIFKEQ_clean_linker_1, # of connection points: 2
#     Edge 7, Type (0, 0), BuildingBlock: KIFKEQ_clean_linker_1, # of connection points: 2
#     Edge 8, Type (0, 0), BuildingBlock: KIFKEQ_clean_linker_1, # of connection points: 2
#     Edge 9, Type (0, 0), BuildingBlock: KIFKEQ_clean_linker_1, # of connection points: 2
#     Edge 10, Type (0, 0), BuildingBlock: KIFKEQ_clean_linker_1, # of connection points: 2
#     Edge 11, Type (0, 0), BuildingBlock: KIFKEQ_clean_linker_1, # of connection points: 2
# Relax obj value: 0.313
# Max RMSD: 0.162
# Mean RMSD: 0.088
data_MOF--net-sxc--node1-BETFAJ_clean_sbu_0--edge1-KIFKEQ_clean_linker_1
_symmetry_space_group_name_H-M    P1
_symmetry_Int_Tables_number       1
_symmetry_cell_setting            triclinic
loop_
_symmetry_equiv_pos_as_xyz
'x, y, z'
_cell_length_a     15.955551
_cell_length_b     16.605887
_cell_length_c     44.982193
_cell_angle_alpha  95.077627
_cell_angle_beta   89.988011
_cell_angle_gamma 87.735839
loop_
_atom_site_label
_atom_site_type_symbol
_atom_site_fract_x
_atom_site_fract_y
_atom_site_fract_z
_atom_type_partial_charge
Sm0 Sm 0.19585 0.16749 0.98633 0.0
Sm1 Sm 1.01944 0.18184 0.99726 0.0
C2 C 0.34989 0.18458 0.96678 0.0
C3 C 0.39688 0.25731 0.96265 0.0
C4 C 0.36063 0.32065 0.94762 0.0
C5 C 0.39866 0.39498 0.94843 0.0
C6 C 0.47319 0.40772 0.96449 0.0
C7 C 0.51173 0.34286 0.97813 0.0
C8 C 0.47388 0.26824 0.97716 0.0
C9 C 0.15781 0.16836 0.04623 0.0
C10 C 0.10546 0.3564 0.99424 0.0
C11 C 0.86453 0.16628 0.0163 0.0
C12 C 0.80562 1.09982 0.01266 0.0
C13 C 0.78559 1.05786 0.0373 0.0
C14 C 0.7397 0.98783 0.03346 0.0
C15 C 0.71238 0.959 0.00493 0.0
C16 C 0.72858 1.00338 0.98054 0.0
C17 C 0.77491 1.07302 0.98433 0.0
C18 C 1.05678 0.18295 0.93744 0.0
C19 C 0.11065 0.99197 0.9896 0.0
O20 O 0.28639 0.17043 0.94896 0.0
O21 O 0.33283 0.17355 0.99448 0.0
O22 O 0.12419 0.21558 0.02867 0.0
O23 O 0.21369 1.11987 0.03246 0.0
O24 O 0.16918 0.30894 0.98305 0.0
O25 O 1.04062 0.32136 0.00542 0.0
O26 O 0.93079 1.15288 0.03253 0.0
O27 O 0.88205 0.20202 0.99244 0.0
O28 O 0.09057 1.13472 0.95465 0.0
O29 O 1.00083 0.23041 0.95155 0.0
O30 O 1.04317 1.03886 0.99759 0.0
O31 O 0.17934 1.02714 0.98157 0.0
H32 H 0.30107 0.31413 0.93629 0.0
H33 H 0.36832 0.44328 0.93721 0.0
H34 H 0.56885 0.35084 0.99087 0.0
H35 H 0.50262 0.22034 0.98903 0.0
H36 H 0.80807 1.07758 0.05938 0.0
H37 H 0.72706 0.95528 0.0527 0.0
H38 H 0.70884 0.98222 0.95827 0.0
H39 H 0.78918 1.10393 0.96484 0.0
Sm40 Sm 0.09147 0.25993 0.331 0.0
Sm41 Sm 0.09986 1.09387 0.32478 0.0
C42 C 1.05315 0.41634 0.33732 0.0
C43 C 1.02381 0.46109 0.36519 0.0
C44 C 1.02665 0.5453 0.36903 0.0
C45 C 1.01558 0.58548 0.39747 0.0
C46 C 1.00278 0.54173 0.42249 0.0
C47 C 0.99446 0.4578 0.41814 0.0
C48 C 1.00423 0.41788 0.38964 0.0
C49 C 0.10919 0.19905 0.3866 0.0
C50 C 0.91373 0.16821 0.32474 0.0
C51 C 0.1463 0.94318 0.33323 0.0
C52 C 0.18907 0.91494 0.35946 0.0
C53 C 0.21156 0.97149 0.38291 0.0
C54 C 0.23886 0.94581 0.41013 0.0
C55 C 0.24376 0.86301 0.41437 0.0
C56 C 0.22686 0.80648 0.38997 0.0
C57 C 0.19948 0.83234 0.36276 0.0
C58 C 0.08074 1.1513 0.26893 0.0
C59 C 0.27343 0.18841 0.32637 0.0
O60 O 1.00193 0.3635 0.32534 0.0
O61 O 0.13016 0.3872 0.33827 0.0
O62 O 1.06059 0.17301 0.3662 0.0
O63 O 0.15047 0.25783 0.37789 0.0
O64 O 0.95384 0.23255 0.31862 0.0
O65 O 0.95693 1.1036 0.33178 0.0
O66 O 1.07025 0.97283 0.33837 0.0
O67 O 0.18995 0.98831 0.31726 0.0
O68 O 0.12892 0.18014 0.28913 0.0
O69 O 1.04285 1.08989 0.27763 0.0
O70 O 0.23382 1.13206 0.33888 0.0
O71 O 0.22798 0.24487 0.31449 0.0
H72 H 1.04236 0.57939 0.35049 0.0
H73 H 1.02408 0.65013 0.40018 0.0
H74 H 0.98521 0.42268 0.43698 0.0
H75 H 1.00163 0.35257 0.38699 0.0
H76 H 0.20345 1.03571 0.38079 0.0
H77 H 0.25118 0.99081 0.42837 0.0
H78 H 0.2281 0.7422 0.39253 0.0
H79 H 0.18198 0.788 0.34495 0.0
Sm80 Sm 0.11105 1.05731 0.66513 0.0
Sm81 Sm 0.1038 0.25329 0.65476 0.0
C82 C 0.0956 0.91971 0.68896 0.0
C83 C 1.03164 0.85867 0.68435 0.0
C84 C 0.99001 0.8339 0.70923 0.0
C85 C 0.91479 0.79406 0.70561 0.0
C86 C 0.88065 0.77787 0.67703 0.0
C87 C 0.92578 0.79701 0.65197 0.0
C88 C 1.00045 0.83768 0.65561 0.0
C89 C 0.09373 1.08586 0.60507 0.0
C90 C 0.92695 0.15649 0.65848 0.0
C91 C 0.11497 0.39292 0.63178 0.0
C92 C 0.17145 0.45882 0.63941 0.0
C93 C 0.18483 0.51726 0.61949 0.0
C94 C 0.24973 0.57101 0.62462 0.0
C95 C 0.30221 0.56635 0.64964 0.0
C96 C 0.28554 0.50991 0.67019 0.0
C97 C 0.22086 0.45667 0.66509 0.0
C98 C 0.12011 0.22706 0.71499 0.0
C99 C 0.28774 1.15239 0.66023 0.0
O100 O 1.06661 0.98929 0.70169 0.0
O101 O 0.14701 0.92711 0.66662 0.0
O102 O 0.09619 1.13551 0.62776 0.0
O103 O 0.10094 1.01363 0.61412 0.0
O104 O 0.96907 1.09163 0.66677 0.0
O105 O 0.96415 0.22155 0.65047 0.0
O106 O 0.15316 0.32601 0.62028 0.0
O107 O 1.05922 0.38078 0.65221 0.0
O108 O 0.11736 0.17559 0.69273 0.0
O109 O 0.11451 0.29839 0.70521 0.0
O110 O 0.24538 0.21654 0.65139 0.0
O111 O 0.25067 1.08851 0.6693 0.0
H112 H 1.01266 0.85025 0.73158 0.0
H113 H 0.88137 0.7791 0.72523 0.0
H114 H 0.90044 0.78563 0.62972 0.0
H115 H 1.03064 0.85721 0.63605 0.0
H116 H 0.14752 0.5191 0.59942 0.0
H117 H 0.26056 0.61436 0.60854 0.0
H118 H 0.32552 0.5034 0.68935 0.0
H119 H 0.21226 0.41091 0.68044 0.0
H120 H 0.99086 0.47677 0.01843 0.0
H121 H 0.22237 0.45178 0.96893 0.0
H122 H 0.99223 0.62348 0.01778 0.0
H123 H 0.22309 0.5981 0.96717 0.0
H124 H 0.2418 0.87535 0.98087 0.0
H125 H 0.24155 0.72903 0.9826 0.0
H126 H 0.97512 0.74612 1.00012 0.0
H127 H 0.97693 0.89286 0.99947 0.0
C128 C 1.04235 0.5021 0.00719 0.0
C129 C 0.1066 0.44964 0.99383 0.0
C130 C 1.04299 0.58797 0.00656 0.0
C131 C 0.10773 0.62713 0.99233 0.0
C132 C 0.17198 0.574 0.97893 0.0
C133 C 0.17149 0.4882 0.97974 0.0
C134 C 0.18281 0.84833 0.98511 0.0
C135 C 0.10946 0.89873 0.98999 0.0
C136 C 0.18234 0.76254 0.98594 0.0
C137 C 0.10823 0.72124 0.99149 0.0
C138 C 1.0347 0.77221 0.99623 0.0
C139 C 1.03541 0.85811 0.99563 0.0
H140 H 0.37772 0.27999 0.29552 0.0
H141 H 0.38179 1.09309 0.35637 0.0
H142 H 0.53084 0.27339 0.29389 0.0
H143 H 0.53435 1.08847 0.35578 0.0
H144 H 0.80793 1.04243 0.32867 0.0
H145 H 0.65488 1.04718 0.32808 0.0
H146 H 0.65388 0.30462 0.31998 0.0
H147 H 0.80641 0.29893 0.3194 0.0
C148 C 0.41127 0.23804 0.3088 0.0
C149 C 0.36709 0.18713 0.32605 0.0
C150 C 0.49947 0.23441 0.30801 0.0
C151 C 0.54621 0.1802 0.32467 0.0
C152 C 0.50149 1.1299 0.34213 0.0
C153 C 0.41349 1.13305 0.34269 0.0
C154 C 0.77502 1.09996 0.32663 0.0
C155 C 0.81997 0.17016 0.324 0.0
C156 C 0.68682 1.10295 0.32651 0.0
C157 C 0.64076 0.17644 0.32407 0.0
C158 C 0.68618 0.24653 0.32138 0.0
C159 C 0.77421 0.24336 0.32123 0.0
H160 H 0.74128 0.83884 0.70697 0.0
H161 H 0.82563 0.65513 0.63843 0.0
H162 H 0.59703 0.79902 0.69921 0.0
H163 H 0.68157 0.61316 0.63118 0.0
H164 H 0.41177 0.59795 0.60582 0.0
H165 H 0.54895 0.65598 0.61206 0.0
H166 H 0.50783 0.69194 0.7074 0.0
H167 H 0.36866 0.63862 0.70092 0.0
C168 C 0.72889 0.7889 0.6906 0.0
C169 C 0.79441 0.74941 0.67348 0.0
C170 C 0.64631 0.76621 0.68609 0.0
C171 C 0.6276 0.70303 0.66453 0.0
C172 C 0.69351 0.66315 0.64756 0.0
C173 C 0.77606 0.6865 0.65186 0.0
C174 C 0.43091 0.62049 0.62801 0.0
C175 C 0.37947 0.61311 0.65291 0.0
C176 C 0.51024 0.65244 0.63165 0.0
C177 C 0.54008 0.6772 0.66028 0.0
C178 C 0.48686 0.6737 0.685 0.0
C179 C 0.4073 0.64241 0.68133 0.0
H180 H 0.81407 0.28528 0.65683 0.0
H181 H 0.82717 1.02591 0.65974 0.0
H182 H 0.6616 0.2844 0.65795 0.0
H183 H 0.67483 1.0242 0.65942 0.0
H184 H 0.39987 1.05136 0.68683 0.0
H185 H 0.55238 1.05318 0.68679 0.0
H186 H 0.54086 0.25341 0.63149 0.0
H187 H 0.38856 0.25376 0.63278 0.0
C188 C 0.78446 0.22785 0.65736 0.0
C189 C 0.83337 0.15576 0.65824 0.0
C190 C 0.69652 0.22716 0.65782 0.0
C191 C 0.65458 1.15418 0.65874 0.0
C192 C 0.7039 1.08197 0.65931 0.0
C193 C 0.7918 1.08283 0.65927 0.0
C194 C 0.42986 1.09587 0.67469 0.0
C195 C 0.38139 1.1525 0.65988 0.0
C196 C 0.51783 1.09663 0.67447 0.0
C197 C 0.56024 1.15344 0.65911 0.0
C198 C 0.51139 0.20965 0.64411 0.0
C199 C 0.42349 0.20951 0.64466 0.0
H200 H 0.76175 0.81794 0.02746 0.0
H201 H 0.57464 0.92138 0.97108 0.0
H202 H 0.70231 0.68535 0.01721 0.0
H203 H 0.5163 0.78809 0.96022 0.0
H204 H 0.38542 0.5517 0.97586 0.0
H205 H 0.44089 0.68595 0.98572 0.0
H206 H 0.69308 0.58361 0.97381 0.0
H207 H 0.63762 0.44913 0.96358 0.0
C208 C 0.70733 0.81242 0.01313 0.0
C209 C 0.67256 0.87994 1.00014 0.0
C210 C 0.67404 0.73637 0.00695 0.0
C211 C 0.60511 0.72633 0.98774 0.0
C212 C 0.56922 0.79415 0.97522 0.0
C213 C 0.60284 0.87022 0.98128 0.0
C214 C 0.45265 0.55794 0.9748 0.0
C215 C 0.50719 0.48974 0.96884 0.0
C216 C 0.48436 0.63484 0.98057 0.0
C217 C 0.57127 0.64514 0.98068 0.0
C218 C 0.62581 0.57722 0.97435 0.0
C219 C 0.59409 0.50031 0.96846 0.0
H220 H 0.10507 0.49003 0.46631 0.0
H221 H 0.93244 0.685 0.44731 0.0
H222 H 0.18258 0.58286 0.49964 0.0
H223 H 1.00982 0.77781 0.47982 0.0
H224 H 0.32885 0.72993 0.43345 0.0
H225 H 0.27109 0.65114 0.47035 0.0
H226 H 0.11189 0.85588 0.50337 0.0
H227 H 0.16726 0.9336 0.46507 0.0
C228 C 0.08089 0.55189 0.47045 0.0
C229 C 1.01637 0.58202 0.45271 0.0
C230 C 0.12565 0.60544 0.4896 0.0
C231 C 0.10832 0.6893 0.48977 0.0
C232 C 1.02952 0.71452 0.47874 0.0
C233 C 0.98457 0.66122 0.45975 0.0
C234 C 0.2839 0.75926 0.44936 0.0
C235 C 0.24757 0.83549 0.44489 0.0
C236 C 0.25074 0.7142 0.47099 0.0
C237 C 0.17944 0.74469 0.4876 0.0
C238 C 0.16209 0.82871 0.48918 0.0
C239 C 0.19419 0.87361 0.4672 0.0
H240 H 0.96897 1.11444 0.22442 0.0
H241 H 0.20972 0.21899 0.24083 0.0
H242 H 0.98524 1.12728 0.17083 0.0
H243 H 0.22698 0.22966 0.18712 0.0
H244 H 0.26204 1.11002 0.08784 0.0
H245 H 0.24155 1.11566 0.14186 0.0
H246 H 1.00304 0.24289 0.13332 0.0
H247 H 1.02485 0.23963 0.07905 0.0
C248 C 1.02506 1.14072 0.21658 0.0
C249 C 0.08809 0.16556 0.23685 0.0
C250 C 1.03421 1.14833 0.18593 0.0
C251 C 0.10748 0.17925 0.17473 0.0
C252 C 0.16996 0.20532 0.19507 0.0
C253 C 0.15993 0.19949 0.22582 0.0
C254 C 0.20546 1.13981 0.09746 0.0
C255 C 0.14505 0.17439 0.07914 0.0
C256 C 0.19396 1.14332 0.12844 0.0
C257 C 0.12079 0.17983 0.14188 0.0
C258 C 1.06002 0.21425 0.12358 0.0
C259 C 1.07255 0.21253 0.09257 0.0
H260 H 0.1841 0.27796 0.43456 0.0
H261 H 1.02279 1.0802 0.41069 0.0
H262 H 0.17538 0.25185 0.48691 0.0
H263 H 1.01281 1.05436 0.46334 0.0
H264 H 0.093 0.97784 0.55596 0.0
H265 H 0.09087 1.00482 0.50363 0.0
H266 H 0.08252 0.26151 0.52943 0.0
H267 H 0.08164 0.234 0.58198 0.0
C268 C 0.14649 0.22887 0.44052 0.0
C269 C 0.10397 0.18127 0.41841 0.0
C270 C 0.14085 0.21431 0.47067 0.0
C271 C 0.09283 1.15133 0.47966 0.0
C272 C 1.05083 1.10312 0.4574 0.0
C273 C 1.05614 1.11808 0.42718 0.0
C274 C 0.09059 1.04013 0.55049 0.0
C275 C 0.08955 1.10394 0.57324 0.0
C276 C 0.08936 1.05559 0.52036 0.0
C277 C 0.08848 1.13527 0.51198 0.0
C278 C 0.08542 0.19922 0.53485 0.0
C279 C 0.08518 0.18366 0.56507 0.0
H280 H 0.11391 0.34181 0.76134 0.0
H281 H 0.13022 1.0827 0.74214 0.0
H282 H 0.10547 0.32604 0.8143 0.0
H283 H 0.11857 1.06623 0.79583 0.0
H284 H 0.97916 0.27993 0.8999 0.0
H285 H 0.99926 0.28387 0.84667 0.0
H286 H 0.18644 1.08877 0.84652 0.0
H287 H 0.16483 1.08397 0.9006 0.0
C288 C 0.11537 0.28108 0.76842 0.0
C289 C 0.12069 0.21341 0.74731 0.0
C290 C 0.10999 0.27201 0.79893 0.0
C291 C 0.10938 0.19483 0.80952 0.0
C292 C 0.11841 1.12665 0.78854 0.0
C293 C 0.1241 1.13592 0.75772 0.0
C294 C 1.02463 0.23755 0.88866 0.0
C295 C 1.07059 0.18184 0.90463 0.0
C296 C 1.03659 0.24016 0.85801 0.0
C297 C 0.09532 0.18739 0.84214 0.0
C298 C 0.1405 1.13022 0.85794 0.0
C299 C 0.12848 1.12768 0.88893 0.0
loop_
_geom_bond_atom_site_label_1
_geom_bond_atom_site_label_2
_geom_bond_distance
_geom_bond_site_symmetry_2
_ccdc_geom_bond_type
Sm0 C2 2.846 . S
Sm0 O20 2.543 1_554 S
Sm0 O21 2.450 . S
Sm0 O22 2.681 1_455 S
Sm0 O23 2.464 . S
Sm0 O24 2.396 . S
Sm0 O28 2.386 1_554 S
Sm0 O31 2.408 1_545 S
Sm1 C11 2.841 1_556 S
Sm1 O22 2.386 1_566 S
Sm1 O25 2.408 1_566 S
Sm1 O26 2.543 1_556 S
Sm1 O27 2.450 . S
Sm1 O28 2.681 1_665 S
Sm1 O29 2.464 . S
Sm1 O30 2.396 . S
C2 Sm0 2.846 . S
C2 C3 1.506 . S
C2 O20 1.261 1_554 S
C2 O21 1.242 . S
C3 C2 1.506 . S
C3 C4 1.358 1_554 S
C3 C8 1.382 . S
C4 C3 1.358 1_556 S
C4 C5 1.385 . S
C4 H32 0.930 . S
C5 C4 1.385 . S
C5 C6 1.370 1_556 S
C5 H33 0.929 . S
C6 C5 1.370 1_554 S
C6 C7 1.364 . S
C7 C6 1.364 . S
C7 C8 1.398 . S
C7 H34 0.930 . S
C8 C3 1.382 . S
C8 C7 1.398 . S
C8 H35 0.929 . S
C9 O22 1.271 1_455 S
C9 O23 1.251 . S
C10 O24 1.252 1_655 S
C10 O25 1.274 . S
C11 Sm1 2.841 1_554 S
C11 C12 1.510 . S
C11 O26 1.288 . S
C11 O27 1.212 1_554 S
C12 C11 1.510 . S
C12 C13 1.358 . S
C12 C17 1.382 1_554 S
C13 C12 1.358 . S
C13 C14 1.385 . S
C13 H36 0.930 . S
C14 C13 1.385 . S
C14 C15 1.395 . S
C14 H37 0.929 . S
C15 C14 1.395 . S
C15 C16 1.335 1_554 S
C16 C15 1.335 1_556 S
C16 C17 1.398 . S
C16 H38 0.930 . S
C17 C12 1.382 1_556 S
C17 C16 1.398 . S
C17 H39 0.929 . S
C18 O28 1.271 1_655 S
C18 O29 1.251 1_545 S
C19 O30 1.252 1_455 S
C19 O31 1.272 1_556 S
O20 Sm0 2.543 1_556 S
O20 C2 1.261 1_556 S
O21 Sm0 2.450 . S
O21 C2 1.242 . S
O22 Sm0 2.681 1_655 S
O22 Sm1 2.386 1_544 S
O22 C9 1.271 1_655 S
O23 Sm0 2.464 . S
O23 C9 1.251 . S
O24 Sm0 2.396 . S
O24 C10 1.252 1_455 S
O25 Sm1 2.408 1_544 S
O25 C10 1.274 . S
O26 Sm1 2.543 1_554 S
O26 C11 1.288 . S
O27 Sm1 2.450 . S
O27 C11 1.212 1_556 S
O28 Sm0 2.386 1_556 S
O28 Sm1 2.681 1_445 S
O28 C18 1.271 1_455 S
O29 Sm1 2.464 . S
O29 C18 1.251 1_565 S
O30 Sm1 2.396 . S
O30 C19 1.252 1_655 S
O31 Sm0 2.408 1_565 S
O31 C19 1.272 1_554 S
H32 C4 0.930 . S
H33 C5 0.929 . S
H34 C7 0.930 . S
H35 C8 0.929 . S
H36 C13 0.930 . S
H37 C14 0.929 . S
H38 C16 0.930 . S
H39 C17 0.929 . S
Sm40 C42 2.846 . S
Sm40 O60 2.543 . S
Sm40 O61 2.450 . S
Sm40 O62 2.681 . S
Sm40 O63 2.464 . S
Sm40 O64 2.396 1_455 S
Sm40 O68 2.386 . S
Sm40 O71 2.408 . S
Sm41 C51 2.846 1_655 S
Sm41 O62 2.386 1_665 S
Sm41 O65 2.408 . S
Sm41 O66 2.543 1_655 S
Sm41 O67 2.450 1_655 S
Sm41 O68 2.681 1_665 S
Sm41 O69 2.463 1_655 S
Sm41 O70 2.396 1_655 S
C42 Sm40 2.846 . S
C42 C43 1.506 1_455 S
C42 O60 1.261 . S
C42 O61 1.242 . S
C43 C42 1.506 1_655 S
C43 C44 1.358 . S
C43 C48 1.382 1_655 S
C44 C43 1.358 . S
C44 C45 1.385 . S
C44 H72 0.930 . S
C45 C44 1.385 . S
C45 C46 1.395 . S
C45 H73 0.929 . S
C46 C45 1.395 . S
C46 C47 1.335 . S
C47 C46 1.335 . S
C47 C48 1.392 1_655 S
C47 H74 0.930 . S
C48 C43 1.382 1_455 S
C48 C47 1.392 1_455 S
C48 H75 0.935 . S
C49 O62 1.271 . S
C49 O63 1.251 . S
C50 O64 1.252 . S
C50 O65 1.272 1_545 S
C51 Sm41 2.846 1_455 S
C51 C52 1.506 . S
C51 O66 1.261 . S
C51 O67 1.242 . S
C52 C51 1.506 . S
C52 C53 1.358 . S
C52 C57 1.382 . S
C53 C52 1.358 . S
C53 C54 1.385 . S
C53 H76 0.930 . S
C54 C53 1.385 . S
C54 C55 1.395 . S
C54 H77 0.929 . S
C55 C54 1.395 . S
C55 C56 1.335 . S
C56 C55 1.335 . S
C56 C57 1.398 . S
C56 H78 0.930 . S
C57 C52 1.382 . S
C57 C56 1.398 . S
C57 H79 0.929 . S
C58 O68 1.271 . S
C58 O69 1.251 1_545 S
C59 O70 1.252 1_545 S
C59 O71 1.272 . S
O60 Sm40 2.543 . S
O60 C42 1.261 . S
O61 Sm40 2.450 . S
O61 C42 1.242 . S
O62 Sm40 2.681 . S
O62 Sm41 2.386 1_445 S
O62 C49 1.271 . S
O63 Sm40 2.464 . S
O63 C49 1.251 . S
O64 Sm40 2.396 1_655 S
O64 C50 1.252 . S
O65 Sm41 2.408 . S
O65 C50 1.272 1_565 S
O66 Sm41 2.543 1_455 S
O66 C51 1.261 . S
O67 Sm41 2.450 1_455 S
O67 C51 1.242 . S
O68 Sm40 2.386 . S
O68 Sm41 2.681 1_445 S
O68 C58 1.271 . S
O69 Sm41 2.463 1_455 S
O69 C58 1.251 1_565 S
O70 Sm41 2.396 1_455 S
O70 C59 1.252 1_565 S
O71 Sm40 2.408 . S
O71 C59 1.272 . S
H72 C44 0.930 . S
H73 C45 0.929 . S
H74 C47 0.930 . S
H75 C48 0.935 . S
H76 C53 0.930 . S
H77 C54 0.929 . S
H78 C56 0.930 . S
H79 C57 0.929 . S
Sm80 C82 2.846 1_455 S
Sm80 O100 2.543 1_455 S
Sm80 O101 2.450 1_455 S
Sm80 O102 2.681 1_565 S
Sm80 O103 2.464 . S
Sm80 O104 2.396 1_455 S
Sm80 O108 2.386 . S
Sm80 O111 2.408 . S
Sm81 C91 2.846 . S
Sm81 O102 2.386 . S
Sm81 O105 2.408 1_455 S
Sm81 O106 2.543 . S
Sm81 O107 2.450 . S
Sm81 O108 2.681 1_545 S
Sm81 O109 2.464 . S
Sm81 O110 2.396 . S
C82 Sm80 2.846 1_655 S
C82 C83 1.506 . S
C82 O100 1.261 . S
C82 O101 1.242 . S
C83 C82 1.506 . S
C83 C84 1.358 . S
C83 C88 1.382 . S
C84 C83 1.358 . S
C84 C85 1.385 . S
C84 H112 0.930 . S
C85 C84 1.385 . S
C85 C86 1.395 . S
C85 H113 0.929 . S
C86 C85 1.395 . S
C86 C87 1.335 . S
C87 C86 1.335 . S
C87 C88 1.398 . S
C87 H114 0.930 . S
C88 C83 1.382 . S
C88 C87 1.398 . S
C88 H115 0.929 . S
C89 O102 1.271 1_565 S
C89 O103 1.251 . S
C90 O104 1.252 1_545 S
C90 O105 1.272 . S
C91 Sm81 2.846 . S
C91 C92 1.506 . S
C91 O106 1.261 . S
C91 O107 1.242 . S
C92 C91 1.506 . S
C92 C93 1.358 . S
C92 C97 1.382 . S
C93 C92 1.358 . S
C93 C94 1.385 . S
C93 H116 0.930 . S
C94 C93 1.385 . S
C94 C95 1.395 . S
C94 H117 0.929 . S
C95 C94 1.395 . S
C95 C96 1.335 . S
C96 C95 1.335 . S
C96 C97 1.398 . S
C96 H118 0.930 . S
C97 C92 1.382 . S
C97 C96 1.398 . S
C97 H119 0.929 . S
C98 O108 1.271 1_545 S
C98 O109 1.251 . S
C99 O110 1.252 . S
C99 O111 1.272 1_545 S
O100 Sm80 2.543 1_655 S
O100 C82 1.261 . S
O101 Sm80 2.450 1_655 S
O101 C82 1.242 . S
O102 Sm80 2.681 1_545 S
O102 Sm81 2.386 . S
O102 C89 1.271 1_545 S
O103 Sm80 2.464 . S
O103 C89 1.251 . S
O104 Sm80 2.396 1_655 S
O104 C90 1.252 1_565 S
O105 Sm81 2.408 1_655 S
O105 C90 1.272 . S
O106 Sm81 2.543 . S
O106 C91 1.261 . S
O107 Sm81 2.450 . S
O107 C91 1.242 . S
O108 Sm80 2.386 . S
O108 Sm81 2.681 1_565 S
O108 C98 1.271 1_565 S
O109 Sm81 2.464 . S
O109 C98 1.251 . S
O110 Sm81 2.396 . S
O110 C99 1.252 . S
O111 Sm80 2.408 . S
O111 C99 1.272 1_565 S
H112 C84 0.930 . S
H113 C85 0.929 . S
H114 C87 0.930 . S
H115 C88 0.929 . S
H116 C93 0.930 . S
H117 C94 0.929 . S
H118 C96 0.930 . S
H119 C97 0.929 . S
H120 C128 0.950 . S
H121 C133 0.950 . S
H122 C130 0.950 . S
H123 C132 0.950 . S
H124 C134 0.950 . S
H125 C136 0.950 . S
H126 C138 0.950 . S
H127 C139 0.950 . S
C128 H120 0.950 . S
C128 C129 1.386 1_556 S
C128 C130 1.391 . S
C129 C128 1.386 1_554 S
C129 C133 1.393 1_655 S
C130 H122 0.950 . S
C130 C128 1.391 . S
C130 C131 1.400 1_656 S
C131 C130 1.400 1_454 S
C131 C132 1.398 . S
C131 C137 1.491 . S
C132 H123 0.950 . S
C132 C131 1.398 . S
C132 C133 1.391 . S
C133 H121 0.950 . S
C133 C129 1.393 1_455 S
C133 C132 1.391 . S
C134 H124 0.950 . S
C134 C135 1.408 . S
C134 C136 1.391 . S
C135 C134 1.408 . S
C135 C139 1.373 1_454 S
C136 H125 0.950 . S
C136 C134 1.391 . S
C136 C137 1.400 . S
C137 C131 1.491 . S
C137 C136 1.400 . S
C137 C138 1.398 1_454 S
C138 H126 0.950 . S
C138 C137 1.398 1_656 S
C138 C139 1.391 . S
C139 H127 0.950 . S
C139 C135 1.373 1_656 S
C139 C138 1.391 . S
H140 C148 0.950 . S
H141 C153 0.950 . S
H142 C150 0.950 . S
H143 C152 0.950 . S
H144 C154 0.950 . S
H145 C156 0.950 . S
H146 C158 0.950 . S
H147 C159 0.950 . S
C148 H140 0.950 . S
C148 C149 1.386 . S
C148 C150 1.391 . S
C149 C148 1.386 . S
C149 C153 1.393 1_545 S
C150 H142 0.950 . S
C150 C148 1.391 . S
C150 C151 1.400 . S
C151 C150 1.400 . S
C151 C152 1.398 1_545 S
C151 C157 1.491 . S
C152 H143 0.950 . S
C152 C151 1.398 1_565 S
C152 C153 1.391 . S
C153 H141 0.950 . S
C153 C149 1.393 1_565 S
C153 C152 1.391 . S
C154 H144 0.950 . S
C154 C155 1.386 1_565 S
C154 C156 1.391 . S
C155 C154 1.386 1_545 S
C155 C159 1.393 . S
C156 H145 0.950 . S
C156 C154 1.391 . S
C156 C157 1.400 1_565 S
C157 C151 1.491 . S
C157 C156 1.400 1_545 S
C157 C158 1.398 . S
C158 H146 0.950 . S
C158 C157 1.398 . S
C158 C159 1.391 . S
C159 H147 0.950 . S
C159 C155 1.393 . S
C159 C158 1.391 . S
H160 C168 0.950 . S
H161 C173 0.950 . S
H162 C170 0.950 . S
H163 C172 0.950 . S
H164 C174 0.950 . S
H165 C176 0.950 . S
H166 C178 0.950 . S
H167 C179 0.950 . S
C168 H160 0.950 . S
C168 C169 1.386 . S
C168 C170 1.391 . S
C169 C168 1.386 . S
C169 C173 1.393 . S
C170 H162 0.950 . S
C170 C168 1.391 . S
C170 C171 1.400 . S
C171 C170 1.400 . S
C171 C172 1.398 . S
C171 C177 1.491 . S
C172 H163 0.950 . S
C172 C171 1.398 . S
C172 C173 1.391 . S
C173 H161 0.950 . S
C173 C169 1.393 . S
C173 C172 1.391 . S
C174 H164 0.950 . S
C174 C175 1.386 . S
C174 C176 1.391 . S
C175 C174 1.386 . S
C175 C179 1.393 . S
C176 H165 0.950 . S
C176 C174 1.391 . S
C176 C177 1.400 . S
C177 C171 1.491 . S
C177 C176 1.400 . S
C177 C178 1.398 . S
C178 H166 0.950 . S
C178 C177 1.398 . S
C178 C179 1.391 . S
C179 H167 0.950 . S
C179 C175 1.393 . S
C179 C178 1.391 . S
H180 C188 0.950 . S
H181 C193 0.950 . S
H182 C190 0.950 . S
H183 C192 0.950 . S
H184 C194 0.950 . S
H185 C196 0.950 . S
H186 C198 0.950 . S
H187 C199 0.950 . S
C188 H180 0.950 . S
C188 C189 1.386 . S
C188 C190 1.391 . S
C189 C188 1.386 . S
C189 C193 1.393 1_545 S
C190 H182 0.950 . S
C190 C188 1.391 . S
C190 C191 1.400 . S
C191 C190 1.400 . S
C191 C192 1.398 1_545 S
C191 C197 1.491 . S
C192 H183 0.950 . S
C192 C191 1.398 1_565 S
C192 C193 1.391 . S
C193 H181 0.950 . S
C193 C189 1.393 1_565 S
C193 C192 1.391 . S
C194 H184 0.950 . S
C194 C195 1.386 1_565 S
C194 C196 1.391 . S
C195 C194 1.386 1_545 S
C195 C199 1.393 . S
C196 H185 0.950 . S
C196 C194 1.391 . S
C196 C197 1.400 1_565 S
C197 C191 1.491 . S
C197 C196 1.400 1_545 S
C197 C198 1.398 . S
C198 H186 0.950 . S
C198 C197 1.398 . S
C198 C199 1.391 . S
C199 H187 0.950 . S
C199 C195 1.393 . S
C199 C198 1.391 . S
H200 C208 0.950 . S
H201 C213 0.950 . S
H202 C210 0.950 . S
H203 C212 0.950 . S
H204 C214 0.950 . S
H205 C216 0.950 . S
H206 C218 0.950 . S
H207 C219 0.950 . S
C208 H200 0.950 . S
C208 C209 1.386 . S
C208 C210 1.391 . S
C209 C208 1.386 . S
C209 C213 1.393 1_554 S
C210 H202 0.950 . S
C210 C208 1.391 . S
C210 C211 1.400 . S
C211 C210 1.400 . S
C211 C212 1.398 1_554 S
C211 C217 1.489 . S
C212 H203 0.950 . S
C212 C211 1.398 1_556 S
C212 C213 1.391 . S
C213 H201 0.950 . S
C213 C209 1.393 1_556 S
C213 C212 1.391 . S
C214 H204 0.950 . S
C214 C215 1.400 . S
C214 C216 1.391 . S
C215 C214 1.400 . S
C215 C219 1.381 1_556 S
C216 H205 0.950 . S
C216 C214 1.391 . S
C216 C217 1.385 1_556 S
C217 C211 1.489 . S
C217 C216 1.385 1_554 S
C217 C218 1.416 . S
C218 H206 0.950 . S
C218 C217 1.416 . S
C218 C219 1.391 . S
C219 H207 0.950 . S
C219 C215 1.381 1_554 S
C219 C218 1.391 . S
H220 C228 0.950 . S
H221 C233 0.950 . S
H222 C230 0.950 . S
H223 C232 0.950 1_455 S
H224 C234 0.950 . S
H225 C236 0.950 . S
H226 C238 0.950 . S
H227 C239 0.950 . S
C228 H220 0.950 . S
C228 C229 1.386 . S
C228 C230 1.391 . S
C229 C228 1.386 . S
C229 C233 1.393 . S
C230 H222 0.950 . S
C230 C228 1.391 . S
C230 C231 1.400 1_655 S
C231 C230 1.400 1_455 S
C231 C232 1.398 1_455 S
C231 C237 1.491 . S
C232 H223 0.950 1_655 S
C232 C231 1.398 1_655 S
C232 C233 1.391 . S
C233 H221 0.950 . S
C233 C229 1.393 . S
C233 C232 1.391 . S
C234 H224 0.950 . S
C234 C235 1.386 . S
C234 C236 1.391 . S
C235 C234 1.386 . S
C235 C239 1.393 . S
C236 H225 0.950 . S
C236 C234 1.391 . S
C236 C237 1.400 . S
C237 C231 1.491 . S
C237 C236 1.400 . S
C237 C238 1.398 . S
C238 H226 0.950 . S
C238 C237 1.398 . S
C238 C239 1.391 . S
C239 H227 0.950 . S
C239 C235 1.393 . S
C239 C238 1.391 . S
H240 C248 0.950 1_565 S
H241 C253 0.950 . S
H242 C250 0.952 . S
H243 C252 0.950 . S
H244 C254 0.950 . S
H245 C256 0.950 . S
H246 C258 0.950 . S
H247 C259 0.950 . S
C248 H240 0.950 1_545 S
C248 C249 1.385 1_655 S
C248 C250 1.392 1_545 S
C249 C248 1.385 1_455 S
C249 C253 1.393 . S
C250 H242 0.952 . S
C250 C248 1.392 1_565 S
C250 C251 1.397 1_665 S
C251 C250 1.397 1_445 S
C251 C252 1.398 . S
C251 C257 1.491 . S
C252 H243 0.950 . S
C252 C251 1.398 . S
C252 C253 1.391 . S
C253 H241 0.950 . S
C253 C249 1.393 . S
C253 C252 1.391 . S
C254 H244 0.950 . S
C254 C255 1.386 . S
C254 C256 1.391 . S
C255 C254 1.386 . S
C255 C259 1.393 1_445 S
C256 H245 0.950 . S
C256 C254 1.391 . S
C256 C257 1.400 . S
C257 C251 1.491 . S
C257 C256 1.400 . S
C257 C258 1.398 1_445 S
C258 H246 0.950 . S
C258 C257 1.398 1_665 S
C258 C259 1.391 . S
C259 H247 0.950 . S
C259 C255 1.393 1_665 S
C259 C258 1.391 . S
H260 C268 0.950 . S
H261 C273 0.950 . S
H262 C270 0.950 . S
H263 C272 0.950 . S
H264 C274 0.950 . S
H265 C276 0.950 . S
H266 C278 0.950 . S
H267 C279 0.950 . S
C268 H260 0.950 . S
C268 C269 1.386 . S
C268 C270 1.391 . S
C269 C268 1.386 . S
C269 C273 1.393 1_545 S
C270 H262 0.950 . S
C270 C268 1.391 . S
C270 C271 1.400 . S
C271 C270 1.400 . S
C271 C272 1.398 1_545 S
C271 C277 1.491 . S
C272 H263 0.950 . S
C272 C271 1.398 1_565 S
C272 C273 1.391 . S
C273 H261 0.950 . S
C273 C269 1.393 1_565 S
C273 C272 1.391 . S
C274 H264 0.950 . S
C274 C275 1.386 1_565 S
C274 C276 1.391 . S
C275 C274 1.386 1_545 S
C275 C279 1.393 . S
C276 H265 0.950 . S
C276 C274 1.391 . S
C276 C277 1.400 1_565 S
C277 C271 1.491 . S
C277 C276 1.400 1_545 S
C277 C278 1.398 . S
C278 H266 0.950 . S
C278 C277 1.398 . S
C278 C279 1.391 . S
C279 H267 0.950 . S
C279 C275 1.393 . S
C279 C278 1.391 . S
H280 C288 0.950 . S
H281 C293 0.950 1_565 S
H282 C290 0.950 . S
H283 C292 0.950 . S
H284 C294 0.949 1_565 S
H285 C296 0.950 1_565 S
H286 C298 0.950 . S
H287 C299 0.950 . S
C288 H280 0.950 . S
C288 C289 1.386 . S
C288 C290 1.391 . S
C289 C288 1.386 . S
C289 C293 1.393 1_455 S
C290 H282 0.950 . S
C290 C288 1.391 . S
C290 C291 1.400 . S
C291 C290 1.400 . S
C291 C292 1.398 1_455 S
C291 C297 1.491 . S
C292 H283 0.950 . S
C292 C291 1.398 1_655 S
C292 C293 1.391 . S
C293 H281 0.950 1_545 S
C293 C289 1.393 1_655 S
C293 C292 1.391 . S
C294 H284 0.949 1_545 S
C294 C295 1.386 1_655 S
C294 C296 1.391 . S
C295 C294 1.386 1_455 S
C295 C299 1.393 . S
C296 H285 0.950 1_545 S
C296 C294 1.391 . S
C296 C297 1.400 1_655 S
C297 C291 1.491 . S
C297 C296 1.400 1_455 S
C297 C298 1.398 . S
C298 H286 0.950 . S
C298 C297 1.398 . S
C298 C299 1.391 . S
C299 H287 0.950 . S
C299 C295 1.393 . S
C299 C298 1.391 . S
C129 C10 4.873 . S
C135 C19 4.870 1_554 S
C149 C59 3.051 . S
C155 C50 3.051 . S
C169 C86 0.586 . S
C175 C95 0.586 . S
C189 C90 2.985 . S
C195 C99 2.985 . S
C209 C15 0.663 . S
C215 C6 0.653 1_556 S
C229 C46 0.768 . S
C235 C55 0.768 . S
C249 C58 1.466 . S
C255 C9 1.445 . S
C269 C49 1.471 . S
C275 C89 1.471 1_545 S
C289 C98 1.442 . S
C295 C18 1.467 1_455 S
