# Generated by pormake.
# Topology uob, (4)-cn, num edge types: 1
# Building blocks:
#     Node 0, Type 0, BuildingBlock: KUFVIS_clean_sbu_0, # of connection points: 4
#     Node 1, Type 0, BuildingBlock: KUFVIS_clean_sbu_0, # of connection points: 4
#     Node 2, Type 0, BuildingBlock: KUFVIS_clean_sbu_0, # of connection points: 4
#     Node 3, Type 0, BuildingBlock: KUFVIS_clean_sbu_0, # of connection points: 4
#     Node 4, Type 0, BuildingBlock: KUFVIS_clean_sbu_0, # of connection points: 4
#     Node 5, Type 0, BuildingBlock: KUFVIS_clean_sbu_0, # of connection points: 4
#     Node 6, Type 0, BuildingBlock: KUFVIS_clean_sbu_0, # of connection points: 4
#     Node 7, Type 0, BuildingBlock: KUFVIS_clean_sbu_0, # of connection points: 4
#     Node 8, Type 0, BuildingBlock: KUFVIS_clean_sbu_0, # of connection points: 4
#     Node 9, Type 0, BuildingBlock: KUFVIS_clean_sbu_0, # of connection points: 4
#     Node 10, Type 0, BuildingBlock: KUFVIS_clean_sbu_0, # of connection points: 4
#     Node 11, Type 0, BuildingBlock: KUFVIS_clean_sbu_0, # of connection points: 4
#     Node 12, Type 0, BuildingBlock: KUFVIS_clean_sbu_0, # of connection points: 4
#     Node 13, Type 0, BuildingBlock: KUFVIS_clean_sbu_0, # of connection points: 4
#     Node 14, Type 0, BuildingBlock: KUFVIS_clean_sbu_0, # of connection points: 4
#     Node 15, Type 0, BuildingBlock: KUFVIS_clean_sbu_0, # of connection points: 4
#     Edge 16, Type (0, 0), BuildingBlock: UVAHIK_clean_linker_0, # of connection points: 2
#     Edge 17, Type (0, 0), BuildingBlock: UVAHIK_clean_linker_0, # of connection points: 2
#     Edge 18, Type (0, 0), BuildingBlock: UVAHIK_clean_linker_0, # of connection points: 2
#     Edge 19, Type (0, 0), BuildingBlock: UVAHIK_clean_linker_0, # of connection points: 2
#     Edge 20, Type (0, 0), BuildingBlock: UVAHIK_clean_linker_0, # of connection points: 2
#     Edge 21, Type (0, 0), BuildingBlock: UVAHIK_clean_linker_0, # of connection points: 2
#     Edge 22, Type (0, 0), BuildingBlock: UVAHIK_clean_linker_0, # of connection points: 2
#     Edge 23, Type (0, 0), BuildingBlock: UVAHIK_clean_linker_0, # of connection points: 2
#     Edge 24, Type (0, 0), BuildingBlock: UVAHIK_clean_linker_0, # of connection points: 2
#     Edge 25, Type (0, 0), BuildingBlock: UVAHIK_clean_linker_0, # of connection points: 2
#     Edge 26, Type (0, 0), BuildingBlock: UVAHIK_clean_linker_0, # of connection points: 2
#     Edge 27, Type (0, 0), BuildingBlock: UVAHIK_clean_linker_0, # of connection points: 2
#     Edge 28, Type (0, 0), BuildingBlock: UVAHIK_clean_linker_0, # of connection points: 2
#     Edge 29, Type (0, 0), BuildingBlock: UVAHIK_clean_linker_0, # of connection points: 2
#     Edge 30, Type (0, 0), BuildingBlock: UVAHIK_clean_linker_0, # of connection points: 2
#     Edge 31, Type (0, 0), BuildingBlock: UVAHIK_clean_linker_0, # of connection points: 2
#     Edge 32, Type (0, 0), BuildingBlock: UVAHIK_clean_linker_0, # of connection points: 2
#     Edge 33, Type (0, 0), BuildingBlock: UVAHIK_clean_linker_0, # of connection points: 2
#     Edge 34, Type (0, 0), BuildingBlock: UVAHIK_clean_linker_0, # of connection points: 2
#     Edge 35, Type (0, 0), BuildingBlock: UVAHIK_clean_linker_0, # of connection points: 2
#     Edge 36, Type (0, 0), BuildingBlock: UVAHIK_clean_linker_0, # of connection points: 2
#     Edge 37, Type (0, 0), BuildingBlock: UVAHIK_clean_linker_0, # of connection points: 2
#     Edge 38, Type (0, 0), BuildingBlock: UVAHIK_clean_linker_0, # of connection points: 2
#     Edge 39, Type (0, 0), BuildingBlock: UVAHIK_clean_linker_0, # of connection points: 2
#     Edge 40, Type (0, 0), BuildingBlock: UVAHIK_clean_linker_0, # of connection points: 2
#     Edge 41, Type (0, 0), BuildingBlock: UVAHIK_clean_linker_0, # of connection points: 2
#     Edge 42, Type (0, 0), BuildingBlock: UVAHIK_clean_linker_0, # of connection points: 2
#     Edge 43, Type (0, 0), BuildingBlock: UVAHIK_clean_linker_0, # of connection points: 2
#     Edge 44, Type (0, 0), BuildingBlock: UVAHIK_clean_linker_0, # of connection points: 2
#     Edge 45, Type (0, 0), BuildingBlock: UVAHIK_clean_linker_0, # of connection points: 2
#     Edge 46, Type (0, 0), BuildingBlock: UVAHIK_clean_linker_0, # of connection points: 2
#     Edge 47, Type (0, 0), BuildingBlock: UVAHIK_clean_linker_0, # of connection points: 2
# Relax obj value: 0.195
# Max RMSD: 0.230
# Mean RMSD: 0.230
data_MOF--net-uob--node1-KUFVIS_clean_sbu_0--edge1-UVAHIK_clean_linker_0
_symmetry_space_group_name_H-M    P1
_symmetry_Int_Tables_number       1
_symmetry_cell_setting            triclinic
loop_
_symmetry_equiv_pos_as_xyz
'x, y, z'
_cell_length_a     69.085624
_cell_length_b     69.044143
_cell_length_c     33.977923
_cell_angle_alpha  90.100769
_cell_angle_beta   89.996774
_cell_angle_gamma 89.934011
loop_
_atom_site_label
_atom_site_type_symbol
_atom_site_fract_x
_atom_site_fract_y
_atom_site_fract_z
_atom_type_partial_charge
Mn0 Mn 0.1331 0.0424 0.29454 0.0
Mn1 Mn 0.10151 0.07913 0.28005 0.0
C2 C 0.1254 0.06337 0.34503 0.0
C3 C 0.16523 0.03153 0.29819 0.0
C4 C 0.08895 0.03737 0.29 0.0
O5 O 0.13239 0.04427 0.2344 0.0
O6 O 0.11144 0.06938 0.22929 0.0
C7 C 0.12905 0.10798 0.24847 0.0
N8 N 0.11549 0.10287 0.27561 0.0
C9 C 0.11733 0.13411 0.30686 0.0
C10 C 0.13125 0.13975 0.27912 0.0
C11 C 0.13718 0.12661 0.24988 0.0
C12 C 0.10977 0.11536 0.30399 0.0
H13 H 0.13362 0.09792 0.22592 0.0
C14 C 0.12245 0.0564 0.21434 0.0
O15 O 0.15098 0.01931 0.29517 0.0
O16 O 0.16083 0.04969 0.29575 0.0
N17 N 0.0908 0.08998 0.3271 0.0
C18 C 0.07791 0.08194 0.35263 0.0
C19 C 0.07084 0.09303 0.38419 0.0
C20 C 0.07689 0.11232 0.38886 0.0
C21 C 0.09005 0.12032 0.362 0.0
C22 C 0.09657 0.10858 0.3311 0.0
H23 H 0.07313 0.06716 0.34898 0.0
O24 O 0.132 0.04623 0.35265 0.0
O25 O 0.12324 0.06768 0.30818 0.0
O26 O 0.10579 0.02995 0.2948 0.0
O27 O 0.08595 0.05544 0.28473 0.0
C28 C 0.0971 0.13942 0.36486 0.0
C29 C 0.11081 0.14627 0.33746 0.0
H30 H 0.13757 0.1541 0.28014 0.0
H31 H 0.14796 0.13083 0.22846 0.0
H32 H 0.0607 0.08676 0.40482 0.0
H33 H 0.07139 0.12081 0.41325 0.0
H34 H 0.09221 0.14893 0.38822 0.0
H35 H 0.11633 0.16088 0.34032 0.0
Mn36 Mn 0.95924 0.63128 0.52688 0.0
Mn37 Mn 0.92921 0.59532 0.55418 0.0
C38 C 0.95542 0.62339 0.59236 0.0
C39 C 0.96355 0.66478 0.51919 0.0
C40 C 0.96876 0.58822 0.51785 0.0
O41 O 0.9426 0.62742 0.47744 0.0
O42 O 0.9223 0.60454 0.50103 0.0
C43 C 0.89297 0.61802 0.56028 0.0
N44 N 0.90648 0.60632 0.57721 0.0
C45 C 0.88916 0.60622 0.63864 0.0
C46 C 0.875 0.61819 0.62182 0.0
C47 C 0.87695 0.62417 0.58252 0.0
C48 C 0.90484 0.60065 0.61512 0.0
H49 H 0.89441 0.6226 0.53006 0.0
C50 C 0.92814 0.61592 0.47375 0.0
O51 O 0.97579 0.65258 0.50379 0.0
O52 O 0.94833 0.65744 0.53526 0.0
N53 N 0.93447 0.58529 0.60556 0.0
C54 C 0.94972 0.57429 0.6177 0.0
C55 C 0.95021 0.56746 0.65661 0.0
C56 C 0.93495 0.57186 0.68246 0.0
C57 C 0.91931 0.58304 0.66915 0.0
C58 C 0.91961 0.58942 0.63007 0.0
H59 H 0.96144 0.57079 0.59788 0.0
O60 O 0.97077 0.63247 0.58091 0.0
O61 O 0.94309 0.61905 0.56513 0.0
O62 O 0.97419 0.60592 0.51493 0.0
O63 O 0.95235 0.58295 0.53151 0.0
C64 C 0.90349 0.58819 0.69318 0.0
C65 C 0.88841 0.59974 0.6779 0.0
H66 H 0.86262 0.62296 0.63887 0.0
H67 H 0.86612 0.63347 0.56937 0.0
H68 H 0.96232 0.55883 0.66664 0.0
H69 H 0.93541 0.56664 0.71249 0.0
H70 H 0.90287 0.58349 0.72356 0.0
H71 H 0.87641 0.60374 0.69676 0.0
Mn72 Mn 0.36441 0.46028 0.78285 0.0
Mn73 Mn 0.39241 0.4212 0.76404 0.0
C74 C 0.37458 0.44069 0.83374 0.0
C75 C 0.33348 0.47348 0.79186 0.0
C76 C 0.40753 0.4626 0.76387 0.0
O77 O 0.36195 0.45689 0.72304 0.0
O78 O 0.37746 0.42818 0.7166 0.0
C79 C 0.36147 0.39205 0.75316 0.0
N80 N 0.37784 0.39802 0.77189 0.0
C81 C 0.37868 0.36911 0.81128 0.0
C82 C 0.36191 0.36257 0.7922 0.0
C83 C 0.35323 0.37413 0.76312 0.0
C84 C 0.38617 0.38713 0.80023 0.0
H85 H 0.35474 0.40093 0.73088 0.0
C86 C 0.36743 0.44221 0.70281 0.0
O87 O 0.34828 0.48447 0.78422 0.0
O88 O 0.33641 0.45496 0.79102 0.0
N89 N 0.40778 0.41271 0.80757 0.0
C90 C 0.42381 0.4212 0.82335 0.0
C91 C 0.43436 0.41142 0.85252 0.0
C92 C 0.42845 0.39296 0.86486 0.0
C93 C 0.41198 0.38446 0.84807 0.0
C94 C 0.4022 0.39478 0.81873 0.0
H95 H 0.4286 0.43527 0.81364 0.0
O96 O 0.36858 0.45811 0.84081 0.0
O97 O 0.37408 0.43508 0.79733 0.0
O98 O 0.39202 0.47087 0.77583 0.0
O99 O 0.40872 0.44446 0.75648 0.0
C100 C 0.40487 0.36616 0.85927 0.0
C101 C 0.38816 0.35854 0.84107 0.0
H102 H 0.35552 0.34875 0.79979 0.0
H103 H 0.34023 0.36923 0.74841 0.0
H104 H 0.44708 0.41806 0.86529 0.0
H105 H 0.43676 0.38541 0.88707 0.0
H106 H 0.41206 0.35789 0.88207 0.0
H107 H 0.38272 0.34455 0.85023 0.0
Mn108 Mn 0.55535 0.87581 0.03104 0.0
Mn109 Mn 0.59005 0.90505 0.06747 0.0
C110 C 0.55966 0.87886 0.09788 0.0
C111 C 0.54549 0.84449 0.01418 0.0
C112 C 0.55191 0.92014 0.03543 0.0
O113 O 0.57254 0.8801 0.98292 0.0
O114 O 0.59509 0.89922 0.01136 0.0
C115 C 0.62276 0.8774 0.06319 0.0
N116 N 0.61131 0.8895 0.08469 0.0
C117 C 0.62955 0.88309 0.14356 0.0
C118 C 0.6416 0.87062 0.12203 0.0
C119 C 0.63814 0.8677 0.0817 0.0
C120 C 0.61436 0.89223 0.12359 0.0
H121 H 0.62018 0.87519 0.03216 0.0
C122 C 0.58801 0.89028 0.98161 0.0
O123 O 0.53568 0.85952 0.0025 0.0
O124 O 0.56168 0.84785 0.03189 0.0
N125 N 0.58697 0.91183 0.12173 0.0
C126 C 0.57372 0.92395 0.13844 0.0
C127 C 0.57492 0.92811 0.17885 0.0
C128 C 0.5899 0.92003 0.20148 0.0
C129 C 0.60357 0.90789 0.18345 0.0
C130 C 0.60157 0.90418 0.14314 0.0
H131 H 0.56228 0.93033 0.12109 0.0
O132 O 0.54322 0.8731 0.08396 0.0
O133 O 0.57303 0.88281 0.07236 0.0
O134 O 0.54459 0.90371 0.02598 0.0
O135 O 0.56859 0.92197 0.05124 0.0
C136 C 0.61907 0.89929 0.20391 0.0
C137 C 0.63196 0.88678 0.18407 0.0
H138 H 0.65352 0.86316 0.13617 0.0
H139 H 0.64734 0.85806 0.0649 0.0
H140 H 0.56434 0.93754 0.1925 0.0
H141 H 0.59076 0.92323 0.23265 0.0
H142 H 0.62108 0.90203 0.23505 0.0
H143 H 0.64365 0.88001 0.20028 0.0
Mn144 Mn 0.13244 0.46671 0.01205 0.0
Mn145 Mn 0.10055 0.43035 -0.00232 0.0
C146 C 0.12441 0.45688 0.94943 0.0
C147 C 0.16472 0.4768 0.01641 0.0
C148 C 0.08839 0.47106 0.02044 0.0
O149 O 0.13154 0.45396 0.06641 0.0
O150 O 0.11057 0.42979 0.05205 0.0
C151 C 0.12806 0.39763 0.00395 0.0
N152 N 0.11446 0.40753 0.98306 0.0
C153 C 0.11642 0.38479 0.92947 0.0
C154 C 0.13038 0.37427 0.95049 0.0
C155 C 0.13627 0.38077 0.98783 0.0
C156 C 0.10882 0.40151 0.94698 0.0
H157 H 0.13261 0.40258 0.03266 0.0
C158 C 0.12157 0.43905 0.07582 0.0
O159 O 0.15071 0.48794 0.02846 0.0
O160 O 0.16005 0.45952 0.00533 0.0
N161 N 0.08966 0.42924 0.94596 0.0
C162 C 0.07647 0.44135 0.92913 0.0
C163 C 0.06932 0.43712 0.89139 0.0
C164 C 0.07561 0.42037 0.87161 0.0
C165 C 0.08894 0.40796 0.88983 0.0
C166 C 0.09555 0.41292 0.92747 0.0
H167 H 0.07151 0.45418 0.94432 0.0
O168 O 0.1314 0.474 0.95533 0.0
O169 O 0.12225 0.44606 0.98024 0.0
O170 O 0.10529 0.47871 0.02122 0.0
O171 O 0.08521 0.45332 0.01193 0.0
C172 C 0.09604 0.39094 0.87204 0.0
C173 C 0.10986 0.37942 0.89173 0.0
H174 H 0.13673 0.36126 0.93817 0.0
H175 H 0.14708 0.37277 0.00417 0.0
H176 H 0.05899 0.44674 0.87757 0.0
H177 H 0.07014 0.4172 0.84242 0.0
H178 H 0.09116 0.3867 0.84298 0.0
H179 H 0.11543 0.36652 0.87747 0.0
Mn180 Mn 0.5553 0.64776 0.24674 0.0
Mn181 Mn 0.59499 0.62179 0.27259 0.0
C182 C 0.57732 0.63829 0.19967 0.0
C183 C 0.54061 0.67766 0.23397 0.0
C184 C 0.55536 0.6037 0.26179 0.0
O185 O 0.55562 0.65117 0.30644 0.0
O186 O 0.58252 0.63368 0.31903 0.0
C187 C 0.61856 0.6554 0.29771 0.0
N188 N 0.61636 0.63931 0.2749 0.0
C189 C 0.6477 0.6439 0.24547 0.0
C190 C 0.65034 0.66045 0.26882 0.0
C191 C 0.63568 0.66625 0.29497 0.0
C192 C 0.63028 0.63373 0.24932 0.0
H193 H 0.60731 0.65993 0.31779 0.0
C194 C 0.56819 0.64409 0.32989 0.0
O195 O 0.53029 0.66224 0.24038 0.0
O196 O 0.55915 0.67596 0.23809 0.0
N197 N 0.609 0.60917 0.23126 0.0
C198 C 0.60454 0.59237 0.21219 0.0
C199 C 0.61786 0.58436 0.18548 0.0
C200 C 0.63578 0.59345 0.17931 0.0
C201 C 0.64032 0.61034 0.2003 0.0
C202 C 0.62652 0.61757 0.22674 0.0
H203 H 0.59088 0.5852 0.21713 0.0
O204 O 0.55991 0.64319 0.18989 0.0
O205 O 0.58175 0.63956 0.23678 0.0
O206 O 0.54628 0.61938 0.25342 0.0
O207 O 0.57351 0.60306 0.26934 0.0
C208 C 0.658 0.62027 0.19608 0.0
C209 C 0.66164 0.6371 0.21849 0.0
H210 H 0.66355 0.66884 0.26685 0.0
H211 H 0.63758 0.67905 0.31299 0.0
H212 H 0.61433 0.57121 0.16968 0.0
H213 H 0.64598 0.58728 0.15858 0.0
H214 H 0.66888 0.61511 0.17562 0.0
H215 H 0.67526 0.64466 0.21487 0.0
Mn216 Mn 0.37002 0.0504 0.53165 0.0
Mn217 Mn 0.40235 0.08665 0.54307 0.0
C218 C 0.38519 0.06365 0.47757 0.0
C219 C 0.33768 0.04163 0.51977 0.0
C220 C 0.41149 0.04432 0.56018 0.0
O221 O 0.36528 0.05947 0.58836 0.0
O222 O 0.38463 0.08586 0.58867 0.0
C223 C 0.37542 0.11991 0.53731 0.0
N224 N 0.39159 0.11048 0.52465 0.0
C225 C 0.39818 0.1353 0.47688 0.0
C226 C 0.38175 0.14542 0.4898 0.0
C227 C 0.37028 0.13765 0.52002 0.0
C228 C 0.4026 0.11771 0.49527 0.0
H229 H 0.36648 0.11388 0.56025 0.0
C230 C 0.3719 0.07488 0.60442 0.0
O231 O 0.34991 0.02922 0.5344 0.0
O232 O 0.34394 0.0591 0.51518 0.0
N233 N 0.42042 0.08921 0.50065 0.0
C234 C 0.4353 0.07724 0.49044 0.0
C235 C 0.44794 0.08271 0.46008 0.0
C236 C 0.44528 0.10048 0.44079 0.0
C237 C 0.42999 0.11265 0.45207 0.0
C238 C 0.41797 0.10653 0.4828 0.0
H239 H 0.43753 0.06362 0.5053 0.0
O240 O 0.3771 0.0468 0.47501 0.0
O241 O 0.38384 0.07235 0.51124 0.0
O242 O 0.39544 0.03701 0.54846 0.0
O243 O 0.41481 0.06254 0.56144 0.0
C244 C 0.42606 0.13051 0.43367 0.0
C245 C 0.41012 0.14179 0.44597 0.0
H246 H 0.37768 0.15907 0.47643 0.0
H247 H 0.35747 0.14528 0.5299 0.0
H248 H 0.45972 0.07324 0.45157 0.0
H249 H 0.45503 0.10461 0.41731 0.0
H250 H 0.43504 0.13556 0.40966 0.0
H251 H 0.40706 0.15534 0.43119 0.0
Mn252 Mn 0.95455 0.87072 0.74316 0.0
Mn253 Mn 0.91805 0.90215 0.76128 0.0
C254 C 0.93293 0.87912 0.69434 0.0
C255 C 0.96563 0.83876 0.73621 0.0
C256 C 0.95948 0.915 0.74834 0.0
O257 O 0.95341 0.87046 0.80339 0.0
O258 O 0.92898 0.89202 0.81087 0.0
C259 C 0.8902 0.87404 0.79458 0.0
N260 N 0.89458 0.88785 0.76746 0.0
C261 C 0.86292 0.88549 0.73833 0.0
C262 C 0.85803 0.8713 0.76607 0.0
C263 C 0.87175 0.86552 0.79425 0.0
C264 C 0.88153 0.89344 0.74008 0.0
H265 H 0.90071 0.86955 0.81625 0.0
C266 C 0.94191 0.8806 0.82462 0.0
O267 O 0.97774 0.85306 0.73991 0.0
O268 O 0.94748 0.84292 0.74015 0.0
N269 N 0.90607 0.91312 0.71572 0.0
C270 C 0.91325 0.92665 0.69052 0.0
C271 C 0.90139 0.93396 0.66046 0.0
C272 C 0.88222 0.92743 0.65688 0.0
C273 C 0.8751 0.9136 0.68336 0.0
C274 C 0.88755 0.90698 0.71295 0.0
H275 H 0.92794 0.93181 0.69327 0.0
O276 O 0.95 0.87275 0.68536 0.0
O277 O 0.92904 0.88067 0.73151 0.0
O278 O 0.96689 0.89809 0.74416 0.0
O279 O 0.94146 0.91789 0.75432 0.0
C280 C 0.85619 0.90603 0.68143 0.0
C281 C 0.85014 0.89192 0.70877 0.0
H282 H 0.84382 0.86468 0.7659 0.0
H283 H 0.8681 0.85453 0.81567 0.0
H284 H 0.90698 0.94463 0.64014 0.0
H285 H 0.87312 0.93316 0.63372 0.0
H286 H 0.84623 0.91084 0.65884 0.0
H287 H 0.83564 0.88605 0.70671 0.0
Mn288 Mn 0.63556 0.56419 0.77499 0.0
Mn289 Mn 0.60656 0.60265 0.79152 0.0
C290 C 0.63094 0.57543 0.83807 0.0
C291 C 0.66695 0.55236 0.7657 0.0
C292 C 0.59145 0.56222 0.77283 0.0
O293 O 0.6323 0.57581 0.72003 0.0
O294 O 0.61575 0.60299 0.73625 0.0
C295 C 0.6354 0.63405 0.78348 0.0
N296 N 0.62173 0.62477 0.80525 0.0
C297 C 0.62565 0.64727 0.85882 0.0
C298 C 0.63965 0.65719 0.83682 0.0
C299 C 0.64459 0.6505 0.79904 0.0
C300 C 0.61696 0.63099 0.84174 0.0
H301 H 0.63929 0.6289 0.75452 0.0
C302 C 0.6244 0.59203 0.71134 0.0
O303 O 0.65195 0.54177 0.75709 0.0
O304 O 0.66361 0.57013 0.77558 0.0
N305 N 0.59682 0.60403 0.84419 0.0
C306 C 0.58385 0.59219 0.86239 0.0
C307 C 0.57788 0.59645 0.90096 0.0
C308 C 0.58513 0.61293 0.92023 0.0
C309 C 0.59827 0.62503 0.90071 0.0
C310 C 0.60369 0.62006 0.86228 0.0
H311 H 0.57819 0.57953 0.84769 0.0
O312 O 0.63699 0.55794 0.83206 0.0
O313 O 0.62787 0.58589 0.80701 0.0
O314 O 0.60777 0.55342 0.77232 0.0
O315 O 0.58969 0.58046 0.77846 0.0
C316 C 0.60642 0.64167 0.91807 0.0
C317 C 0.62018 0.65272 0.89723 0.0
H318 H 0.64682 0.66984 0.84877 0.0
H319 H 0.65548 0.65801 0.78199 0.0
H320 H 0.56773 0.58704 0.91583 0.0
H321 H 0.58059 0.6161 0.95007 0.0
H322 H 0.60242 0.64593 0.94767 0.0
H323 H 0.6266 0.66529 0.91118 0.0
Mn324 Mn 0.44948 0.1457 0.04325 0.0
Mn325 Mn 0.41146 0.11592 0.05857 0.0
C326 C 0.44156 0.13637 0.10618 0.0
C327 C 0.46097 0.17752 0.03982 0.0
C328 C 0.45077 0.10183 0.0298 0.0
O329 O 0.43547 0.1463 -0.00977 0.0
O330 O 0.40941 0.12833 0.00634 0.0
C331 C 0.38083 0.14586 0.06246 0.0
N332 N 0.39029 0.13061 0.07906 0.0
C333 C 0.36913 0.13107 0.13527 0.0
C334 C 0.35906 0.1467 0.11867 0.0
C335 C 0.36501 0.15419 0.0822 0.0
C336 C 0.38489 0.1235 0.11441 0.0
H337 H 0.38534 0.1516 0.03437 0.0
C338 C 0.41907 0.1387 0.98215 0.0
O339 O 0.47104 0.16321 0.0255 0.0
O340 O 0.44388 0.17348 0.05281 0.0
N341 N 0.41126 0.10272 0.10803 0.0
C342 C 0.42259 0.08769 0.12012 0.0
C343 C 0.4187 0.07868 0.1563 0.0
C344 C 0.40296 0.08492 0.17924 0.0
C345 C 0.3912 0.10006 0.16569 0.0
C346 C 0.39584 0.10855 0.12951 0.0
H347 H 0.43455 0.08265 0.10237 0.0
O348 O 0.45856 0.14319 0.09854 0.0
O349 O 0.4294 0.1357 0.07706 0.0
O350 O 0.4596 0.11816 0.03081 0.0
O351 O 0.43287 0.09977 0.03855 0.0
C352 C 0.37505 0.10708 0.18666 0.0
C353 C 0.36414 0.1227 0.17168 0.0
H354 H 0.3468 0.15311 0.13373 0.0
H355 H 0.35737 0.1663 0.06927 0.0
H356 H 0.42778 0.06692 0.16642 0.0
H357 H 0.40004 0.07797 0.20717 0.0
H358 H 0.37099 0.10067 0.21453 0.0
H359 H 0.35193 0.12815 0.18837 0.0
Mn360 Mn 0.86251 0.93407 0.28107 0.0
Mn361 Mn 0.88981 0.89386 0.293 0.0
C362 C 0.86491 0.91988 0.34207 0.0
C363 C 0.83213 0.94814 0.2708 0.0
C364 C 0.90682 0.93434 0.28701 0.0
O365 O 0.86688 0.9252 0.22435 0.0
O366 O 0.8834 0.89763 0.2367 0.0
C367 C 0.86032 0.86486 0.27029 0.0
N368 N 0.87335 0.87175 0.29692 0.0
C369 C 0.86689 0.84539 0.34118 0.0
C370 C 0.85353 0.8379 0.31408 0.0
C371 C 0.85017 0.84774 0.27856 0.0
C372 C 0.87654 0.86253 0.33136 0.0
H373 H 0.85771 0.87239 0.24297 0.0
C374 C 0.87544 0.90971 0.21314 0.0
O375 O 0.84793 0.9581 0.26595 0.0
O376 O 0.83417 0.9298 0.27728 0.0
N377 N 0.89713 0.88819 0.34604 0.0
C378 C 0.90978 0.89784 0.36978 0.0
C379 C 0.91426 0.89024 0.40701 0.0
C380 C 0.906 0.87265 0.41911 0.0
C381 C 0.89327 0.86283 0.3939 0.0
C382 C 0.88929 0.87113 0.35722 0.0
H383 H 0.91629 0.91128 0.36047 0.0
O384 O 0.85964 0.93777 0.33857 0.0
O385 O 0.86841 0.91051 0.30959 0.0
O386 O 0.8908 0.94359 0.28402 0.0
O387 O 0.9079 0.91591 0.28999 0.0
C388 C 0.88417 0.84525 0.40391 0.0
C389 C 0.87089 0.83661 0.3777 0.0
H390 H 0.84567 0.82469 0.32035 0.0
H391 H 0.8398 0.84211 0.25758 0.0
H392 H 0.92411 0.8979 0.42629 0.0
H393 H 0.90946 0.86687 0.44789 0.0
H394 H 0.88711 0.83836 0.43188 0.0
H395 H 0.86376 0.82327 0.38601 0.0
Mn396 Mn 0.06815 0.36286 0.52527 0.0
Mn397 Mn 0.108 0.3909 0.51483 0.0
C398 C 0.08303 0.37561 0.58004 0.0
C399 C 0.05521 0.33187 0.53416 0.0
C400 C 0.067 0.40569 0.50159 0.0
O401 O 0.07575 0.35831 0.46786 0.0
O402 O 0.10379 0.37497 0.46732 0.0
C403 C 0.13679 0.35911 0.51438 0.0
N404 N 0.13023 0.37614 0.52969 0.0
C405 C 0.15674 0.37753 0.5755 0.0
C406 C 0.16389 0.3601 0.55998 0.0
C407 C 0.15381 0.35082 0.52939 0.0
C408 C 0.13964 0.38504 0.5595 0.0
H409 H 0.12904 0.3519 0.49098 0.0
C410 C 0.0913 0.36392 0.45104 0.0
O411 O 0.0445 0.34605 0.52142 0.0
O412 O 0.07344 0.33542 0.53888 0.0
N413 N 0.11438 0.40738 0.55826 0.0
C414 C 0.10574 0.42426 0.5695 0.0
C415 C 0.11412 0.43547 0.59952 0.0
C416 C 0.13148 0.42941 0.61715 0.0
C417 C 0.14038 0.41226 0.6044 0.0
C418 C 0.13144 0.40178 0.57413 0.0
H419 H 0.09253 0.42915 0.55572 0.0
O420 O 0.06553 0.36907 0.58212 0.0
O421 O 0.09177 0.37376 0.54638 0.0
O422 O 0.05801 0.39013 0.51109 0.0
O423 O 0.08548 0.40709 0.50042 0.0
C424 C 0.15773 0.4051 0.62066 0.0
C425 C 0.16584 0.38769 0.60639 0.0
H426 H 0.17703 0.35367 0.57145 0.0
H427 H 0.15917 0.3373 0.51741 0.0
H428 H 0.10723 0.44876 0.60902 0.0
H429 H 0.13788 0.43805 0.64035 0.0
H430 H 0.16488 0.41281 0.64432 0.0
H431 H 0.17909 0.38225 0.61934 0.0
Mn432 Mn 0.63489 0.94076 0.51444 0.0
Mn433 Mn 0.60703 0.90218 0.53784 0.0
C434 C 0.61988 0.92309 0.46566 0.0
C435 C 0.66554 0.95271 0.49772 0.0
C436 C 0.59358 0.94398 0.5465 0.0
O437 O 0.64215 0.93558 0.57187 0.0
O438 O 0.6254 0.90789 0.58075 0.0
C439 C 0.63766 0.87217 0.53727 0.0
N440 N 0.62025 0.87879 0.52419 0.0
C441 C 0.61577 0.85052 0.48369 0.0
C442 C 0.63357 0.8433 0.49704 0.0
C443 C 0.6446 0.85421 0.52383 0.0
C444 C 0.60962 0.86851 0.49812 0.0
H445 H 0.64622 0.88056 0.55767 0.0
C446 C 0.63743 0.92078 0.5923 0.0
O447 O 0.65202 0.96422 0.51059 0.0
O448 O 0.66157 0.93441 0.4968 0.0
N449 N 0.58848 0.89478 0.49878 0.0
C450 C 0.57184 0.90401 0.4881 0.0
C451 C 0.55925 0.89513 0.4611 0.0
C452 C 0.56377 0.87677 0.44577 0.0
C453 C 0.58077 0.86739 0.45777 0.0
C454 C 0.59267 0.87687 0.48504 0.0
H455 H 0.5682 0.91806 0.49997 0.0
O456 O 0.62604 0.94044 0.45856 0.0
O457 O 0.6231 0.91637 0.50062 0.0
O458 O 0.60857 0.95215 0.53178 0.0
O459 O 0.59216 0.92568 0.5516 0.0
C460 C 0.58651 0.84912 0.44338 0.0
C461 C 0.60404 0.84073 0.4562 0.0
H462 H 0.639 0.82947 0.48668 0.0
H463 H 0.65841 0.84879 0.53406 0.0
H464 H 0.54612 0.90243 0.45209 0.0
H465 H 0.55409 0.87003 0.42475 0.0
H466 H 0.57767 0.8415 0.42207 0.0
H467 H 0.60842 0.82678 0.44454 0.0
Mn468 Mn 0.07013 0.13729 0.75782 0.0
Mn469 Mn 0.11032 0.10962 0.74933 0.0
C470 C 0.08501 0.13375 0.69766 0.0
C471 C 0.0559 0.16779 0.76515 0.0
C472 C 0.06973 0.09283 0.75423 0.0
O473 O 0.07834 0.13404 0.81513 0.0
O474 O 0.10568 0.11679 0.80501 0.0
C475 C 0.139 0.13938 0.77229 0.0
N476 N 0.13253 0.12597 0.74598 0.0
C477 C 0.15962 0.13175 0.7031 0.0
C478 C 0.16669 0.14548 0.72993 0.0
C479 C 0.15628 0.14937 0.76459 0.0
C480 C 0.1423 0.12227 0.71234 0.0
H481 H 0.13102 0.14242 0.79891 0.0
C482 C 0.09352 0.12538 0.82752 0.0
O483 O 0.04593 0.15207 0.77082 0.0
O484 O 0.0743 0.1657 0.75959 0.0
N485 N 0.11684 0.10154 0.69709 0.0
C486 C 0.1076 0.08851 0.67352 0.0
C487 C 0.11584 0.0834 0.63716 0.0
C488 C 0.13363 0.09145 0.62576 0.0
C489 C 0.14301 0.10461 0.65079 0.0
C490 C 0.1341 0.10917 0.68664 0.0
H491 H 0.09401 0.08214 0.68231 0.0
O492 O 0.06709 0.13902 0.69999 0.0
O493 O 0.09401 0.13085 0.73075 0.0
O494 O 0.06062 0.10895 0.75676 0.0
O495 O 0.08816 0.09165 0.75165 0.0
C496 C 0.16073 0.11358 0.64137 0.0
C497 C 0.16896 0.12722 0.66738 0.0
H498 H 0.18001 0.15322 0.72408 0.0
H499 H 0.16158 0.16004 0.78532 0.0
H500 H 0.10852 0.07323 0.61802 0.0
H501 H 0.13992 0.08749 0.59768 0.0
H502 H 0.16806 0.11024 0.614 0.0
H503 H 0.18244 0.13423 0.65954 0.0
Mn504 Mn 0.86174 0.57019 0.012 0.0
Mn505 Mn 0.89028 0.60932 0.02804 0.0
C506 C 0.87582 0.58591 0.95973 0.0
C507 C 0.8309 0.55761 -0.00062 0.0
C508 C 0.9042 0.56787 0.03831 0.0
O509 O 0.85601 0.57686 0.06953 0.0
O510 O 0.87368 0.60416 0.07402 0.0
C511 C 0.85892 0.63856 0.02973 0.0
N512 N 0.87602 0.63211 0.01467 0.0
C513 C 0.87833 0.65965 0.97167 0.0
C514 C 0.86082 0.66668 0.98694 0.0
C515 C 0.85104 0.65604 0.01599 0.0
C516 C 0.88542 0.64208 0.98634 0.0
H517 H 0.85133 0.63039 0.05198 0.0
C518 C 0.86188 0.59179 0.08831 0.0
O519 O 0.84474 0.54662 0.01262 0.0
O520 O 0.83462 0.57591 -0.0037 0.0
N521 N 0.90744 0.61655 0.98636 0.0
C522 C 0.92441 0.608 0.97538 0.0
C523 C 0.93609 0.61692 0.94685 0.0
C524 C 0.93042 0.63471 0.93051 0.0
C525 C 0.91321 0.64353 0.94315 0.0
C526 C 0.90225 0.63403 0.97189 0.0
H527 H 0.92898 0.59444 0.98816 0.0
O528 O 0.86911 0.56854 0.95563 0.0
O529 O 0.87336 0.59408 -0.00616 0.0
O530 O 0.88855 0.55939 0.02755 0.0
O531 O 0.90598 0.58628 0.04099 0.0
C532 C 0.90647 0.66133 0.92823 0.0
C533 C 0.88899 0.66933 0.94231 0.0
H534 H 0.85471 0.68017 0.97647 0.0
H535 H 0.83746 0.66132 0.02779 0.0
H536 H 0.94943 0.6101 0.93749 0.0
H537 H 0.93941 0.6415 0.90838 0.0
H538 H 0.91457 0.66893 0.90576 0.0
H539 H 0.88388 0.68295 0.93041 0.0
Mn540 Mn 0.45173 0.37645 0.25432 0.0
Mn541 Mn 0.41223 0.40516 0.24687 0.0
C542 C 0.43694 0.38097 0.1944 0.0
C543 C 0.46529 0.34552 0.25961 0.0
C544 C 0.45307 0.42103 0.25155 0.0
O545 O 0.4435 0.379 0.3118 0.0
O546 O 0.41751 0.39838 0.30249 0.0
C547 C 0.38333 0.37612 0.27223 0.0
N548 N 0.38976 0.38908 0.24503 0.0
C549 C 0.36245 0.38278 0.20302 0.0
C550 C 0.35546 0.36946 0.23069 0.0
C551 C 0.36599 0.36608 0.26539 0.0
C552 C 0.37983 0.39233 0.21143 0.0
H553 H 0.39138 0.37348 0.29892 0.0
C554 C 0.42913 0.38886 0.3245 0.0
O555 O 0.47563 0.36093 0.26623 0.0
O556 O 0.44695 0.34812 0.25422 0.0
N557 N 0.40514 0.41297 0.19482 0.0
C558 C 0.4141 0.42593 0.17072 0.0
C559 C 0.40563 0.43064 0.1344 0.0
C560 C 0.38788 0.42228 0.12356 0.0
C561 C 0.37872 0.40932 0.14924 0.0
C562 C 0.38785 0.40517 0.18504 0.0
H563 H 0.42769 0.43248 0.17901 0.0
O564 O 0.4548 0.37547 0.19641 0.0
O565 O 0.42796 0.38362 0.22762 0.0
O566 O 0.46176 0.40471 0.25518 0.0
O567 O 0.43473 0.42263 0.24767 0.0
C568 C 0.361 0.40018 0.14053 0.0
C569 C 0.35292 0.38684 0.1673 0.0
H570 H 0.34209 0.36168 0.22552 0.0
H571 H 0.36074 0.35576 0.28682 0.0
H572 H 0.41276 0.4407 0.11479 0.0
H573 H 0.38145 0.42587 0.09542 0.0
H574 H 0.35354 0.40317 0.11317 0.0
H575 H 0.33941 0.37974 0.16005 0.0
C576 C 0.30702 0.0505 0.48553 0.0
C577 C 0.3186 0.03606 0.50291 0.0
C578 C 0.29099 0.0456 0.46264 0.0
C579 C 0.25297 0.01245 0.44102 0.0
H580 H 0.25753 0.03152 0.33408 0.0
C581 C 0.18836 0.00854 0.33156 0.0
C582 C 0.185 0.02587 0.31094 0.0
C583 C 0.20591 0.00559 0.35165 0.0
C584 C 0.25591 0.02614 0.36381 0.0
H585 H 0.32154 0.00511 0.51173 0.0
H586 H 0.29281 0.99656 0.4723 0.0
H587 H 0.28474 0.03468 0.37926 0.0
H588 H 0.19787 0.05309 0.29322 0.0
H589 H 0.22808 0.04811 0.3278 0.0
H590 H 0.2237 0.00502 0.42645 0.0
C591 C 0.29655 0.01167 0.47625 0.0
C592 C 0.27158 0.02785 0.38959 0.0
C593 C 0.3129 0.01657 0.4989 0.0
C594 C 0.19999 0.03954 0.30869 0.0
C595 C 0.21744 0.03662 0.32855 0.0
C596 C 0.2371 0.01097 0.4153 0.0
C597 C 0.28586 0.02617 0.45692 0.0
C598 C 0.27012 0.02148 0.42868 0.0
C599 C 0.2205 0.01987 0.35129 0.0
C600 C 0.23818 0.01834 0.37664 0.0
H601 H 0.31084 0.06566 0.48803 0.0
H602 H 0.28286 0.05706 0.44843 0.0
H603 H 0.25149 0.0075 0.4711 0.0
H604 H 0.17703 0.99778 0.33414 0.0
H605 H 0.20783 0.9924 0.36838 0.0
C606 C 0.98886 0.81661 0.70058 0.0
C607 C 0.97134 0.81939 0.72095 0.0
C608 C 0.99206 0.79959 0.67868 0.0
C609 C 0.97218 0.74971 0.66148 0.0
H610 H 0.99301 0.75576 0.55614 0.0
C611 C 0.95278 0.69785 0.53801 0.0
C612 C 0.96803 0.68546 0.527 0.0
C613 C 0.95645 0.71506 0.55826 0.0
C614 C 0.98739 0.75386 0.58564 0.0
H615 H 0.94396 0.80603 0.73601 0.0
H616 H 0.94938 0.77677 0.69826 0.0
H617 H 0.99387 0.78313 0.60239 0.0
H618 H 0.99924 0.68236 0.52555 0.0
H619 H 0.00568 0.71302 0.56034 0.0
H620 H 0.96474 0.72083 0.64393 0.0
C621 C 0.96083 0.78745 0.69915 0.0
C622 C 0.98795 0.76947 0.61228 0.0
C623 C 0.95766 0.80436 0.72084 0.0
C624 C 0.98719 0.69169 0.53319 0.0
C625 C 0.99088 0.70913 0.55337 0.0
C626 C 0.9714 0.7343 0.63481 0.0
C627 C 0.97785 0.78497 0.67689 0.0
C628 C 0.97989 0.76774 0.6503 0.0
C629 C 0.97546 0.72046 0.56761 0.0
C630 C 0.97861 0.73633 0.59643 0.0
H631 H 0.99963 0.82798 0.69977 0.0
H632 H 0.00545 0.79811 0.66239 0.0
H633 H 0.96628 0.74758 0.69068 0.0
H634 H 0.93786 0.69351 0.53368 0.0
H635 H 0.94433 0.72363 0.56869 0.0
C636 C 0.31537 0.49757 0.83296 0.0
C637 C 0.31516 0.48122 0.80824 0.0
C638 C 0.29923 0.50212 0.8563 0.0
C639 C 0.26976 0.49321 0.92353 0.0
H640 H 0.21701 0.49686 0.88514 0.0
C641 C 0.2002 0.47162 0.00856 0.0
C642 C 0.1842 0.48416 0.00641 0.0
C643 C 0.21733 0.47588 0.98835 0.0
C644 C 0.23169 0.49613 0.89628 0.0
H645 H 0.29751 0.45756 0.78671 0.0
H646 H 0.26902 0.46608 0.82594 0.0
H647 H 0.24397 0.49577 0.83819 0.0
H648 H 0.17383 0.51134 0.98268 0.0
H649 H 0.20368 0.51854 0.9464 0.0
H650 H 0.25738 0.49224 0.98153 0.0
C651 C 0.28175 0.47518 0.82775 0.0
C652 C 0.24707 0.49541 0.86943 0.0
C653 C 0.29804 0.47033 0.80524 0.0
C654 C 0.18607 0.50162 0.98556 0.0
C655 C 0.20304 0.50563 0.96441 0.0
C656 C 0.25434 0.49345 0.95036 0.0
C657 C 0.28241 0.49071 0.8545 0.0
C658 C 0.26625 0.49372 0.88277 0.0
C659 C 0.21861 0.49249 0.96468 0.0
C660 C 0.23513 0.49471 0.93697 0.0
H661 H 0.32845 0.50606 0.83635 0.0
H662 H 0.30008 0.51418 0.87665 0.0
H663 H 0.28439 0.4917 0.93459 0.0
H664 H 0.19904 0.45793 0.02389 0.0
H665 H 0.22905 0.46544 0.98888 0.0
C666 C 0.54909 0.8087 0.017 0.0
C667 C 0.53691 0.825 0.01806 0.0
C668 C 0.54344 0.79132 0.03475 0.0
C669 C 0.5181 0.77717 0.12186 0.0
H670 H 0.52685 0.72446 0.08642 0.0
C671 C 0.51774 0.69379 0.18718 0.0
C672 C 0.53251 0.6953 0.21551 0.0
C673 C 0.51347 0.70945 0.16239 0.0
C674 C 0.52407 0.73908 0.0966 0.0
H675 H 0.50877 0.83554 0.03631 0.0
H676 H 0.49903 0.80524 0.06806 0.0
H677 H 0.52793 0.75115 0.03887 0.0
H678 H 0.55348 0.71468 0.24177 0.0
H679 H 0.54535 0.7423 0.19987 0.0
H680 H 0.5156 0.76526 0.17998 0.0
C681 C 0.51283 0.80585 0.05299 0.0
C682 C 0.52476 0.75433 0.06944 0.0
C683 C 0.5183 0.82311 0.03433 0.0
C684 C 0.54192 0.71317 0.22045 0.0
C685 C 0.5373 0.72895 0.19641 0.0
C686 C 0.51785 0.76198 0.14912 0.0
C687 C 0.52568 0.79006 0.05475 0.0
C688 C 0.52206 0.77356 0.08189 0.0
C689 C 0.52352 0.72705 0.16623 0.0
C690 C 0.52113 0.74282 0.13687 0.0
H691 H 0.56361 0.80986 0.00521 0.0
H692 H 0.55369 0.77944 0.0358 0.0
H693 H 0.51623 0.79187 0.13241 0.0
H694 H 0.51047 0.6801 0.18228 0.0
H695 H 0.50277 0.70763 0.13938 0.0
C696 C 0.70271 0.55557 0.77173 0.0
C697 C 0.68609 0.54398 0.77517 0.0
C698 C 0.71953 0.55106 0.7928 0.0
C699 C 0.75529 0.53379 0.83589 0.0
H700 H 0.74255 0.53497 0.94714 0.0
C701 C 0.81343 0.53243 0.95998 0.0
C702 C 0.81293 0.5497 0.98194 0.0
C703 C 0.79784 0.52734 0.93559 0.0
C704 C 0.74631 0.53432 0.9162 0.0
H705 H 0.67441 0.51797 0.80156 0.0
H706 H 0.70371 0.51032 0.83913 0.0
H707 H 0.7166 0.53292 0.89811 0.0
H708 H 0.79536 0.57457 -0.00258 0.0
H709 H 0.76776 0.56515 0.95648 0.0
H710 H 0.78502 0.53557 0.85409 0.0
C711 C 0.70378 0.52271 0.81962 0.0
C712 C 0.7315 0.53306 0.88817 0.0
C713 C 0.68711 0.52696 0.79771 0.0
C714 C 0.79606 0.56109 0.9811 0.0
C715 C 0.7803 0.55573 0.95761 0.0
C716 C 0.77014 0.53459 0.86398 0.0
C717 C 0.71989 0.53513 0.81849 0.0
C718 C 0.73581 0.53325 0.84771 0.0
C719 C 0.78129 0.53916 0.93364 0.0
C720 C 0.76576 0.53535 0.90438 0.0
H721 H 0.70223 0.56892 0.75505 0.0
H722 H 0.73168 0.56094 0.79151 0.0
H723 H 0.759 0.53407 0.80492 0.0
H724 H 0.82636 0.52355 0.95956 0.0
H725 H 0.79893 0.51449 0.91738 0.0
C726 C 0.4903 0.32662 0.22301 0.0
C727 C 0.47399 0.32679 0.24776 0.0
C728 C 0.49476 0.31013 0.20057 0.0
C729 C 0.48667 0.25792 0.18733 0.0
H730 H 0.48178 0.26901 0.07581 0.0
C731 C 0.45772 0.21314 0.04934 0.0
C732 C 0.4695 0.19654 0.04978 0.0
C733 C 0.46328 0.22989 0.06963 0.0
C734 C 0.48349 0.26573 0.10678 0.0
H735 H 0.45054 0.30942 0.27083 0.0
H736 H 0.45897 0.28032 0.23337 0.0
H737 H 0.48324 0.29574 0.12336 0.0
H738 H 0.49664 0.18467 0.07058 0.0
H739 H 0.50614 0.21387 0.10707 0.0
H740 H 0.48652 0.2279 0.17078 0.0
C741 C 0.4681 0.29299 0.2308 0.0
C742 C 0.4844 0.281 0.13397 0.0
C743 C 0.46334 0.30962 0.25241 0.0
C744 C 0.48749 0.19739 0.06902 0.0
C745 C 0.49281 0.214 0.09029 0.0
C746 C 0.48623 0.24267 0.16006 0.0
C747 C 0.48331 0.29337 0.20334 0.0
C748 C 0.48551 0.27724 0.17459 0.0
C749 C 0.48047 0.2302 0.09172 0.0
C750 C 0.48414 0.24641 0.1196 0.0
H751 H 0.49855 0.33974 0.21822 0.0
H752 H 0.50658 0.31077 0.17968 0.0
H753 H 0.48744 0.25463 0.21845 0.0
H754 H 0.44365 0.21276 0.03528 0.0
H755 H 0.45343 0.24212 0.07043 0.0
C756 C 0.81279 0.97461 0.3019 0.0
C757 C 0.81329 0.95737 0.27981 0.0
C758 C 0.796 0.97991 0.32251 0.0
C759 C 0.76662 0.97242 0.38921 0.0
H760 H 0.71361 0.97063 0.35178 0.0
C761 C 0.70041 0.94828 0.48094 0.0
C762 C 0.68366 0.95982 0.47961 0.0
C763 C 0.7165 0.95277 0.45771 0.0
C764 C 0.72835 0.97143 0.36259 0.0
H765 H 0.79615 0.93319 0.25906 0.0
H766 H 0.76662 0.94294 0.29346 0.0
H767 H 0.74042 0.97031 0.30432 0.0
H768 H 0.67074 0.98534 0.45349 0.0
H769 H 0.69879 0.99286 0.41171 0.0
H770 H 0.7546 0.97221 0.44749 0.0
C771 C 0.77924 0.95219 0.29537 0.0
C772 C 0.74365 0.97117 0.33547 0.0
C773 C 0.79613 0.94664 0.27553 0.0
C774 C 0.68357 0.97637 0.45556 0.0
C775 C 0.69952 0.98057 0.43142 0.0
C776 C 0.75134 0.97224 0.4163 0.0
C777 C 0.77929 0.96834 0.32059 0.0
C778 C 0.76296 0.97139 0.34853 0.0
C779 C 0.71601 0.9686 0.43182 0.0
C780 C 0.73206 0.97146 0.40328 0.0
H781 H 0.82584 0.98301 0.30628 0.0
H782 H 0.7964 0.99249 0.34159 0.0
H783 H 0.78134 0.97234 0.40017 0.0
H784 H 0.7008 0.93535 0.49894 0.0
H785 H 0.72896 0.94323 0.45841 0.0
C786 C 0.03002 0.31395 0.57239 0.0
C787 C 0.04704 0.31363 0.5497 0.0
C788 C 0.0251 0.29804 0.59602 0.0
C789 C 0.03294 0.26993 0.66604 0.0
H790 H 0.03306 0.21641 0.63126 0.0
C791 C 0.05728 0.20371 0.75793 0.0
C792 C 0.0467 0.18642 0.75436 0.0
C793 C 0.05185 0.22022 0.73676 0.0
C794 C 0.03269 0.23128 0.64141 0.0
H795 H 0.07152 0.29609 0.5319 0.0
H796 H 0.0624 0.26799 0.57149 0.0
H797 H 0.03365 0.24252 0.58254 0.0
H798 H 0.02147 0.17323 0.72763 0.0
H799 H 0.01222 0.20201 0.68995 0.0
H800 H 0.03334 0.25867 0.72495 0.0
C801 C 0.05303 0.28058 0.57151 0.0
C802 C 0.03312 0.2462 0.61353 0.0
C803 C 0.05822 0.29663 0.54878 0.0
C804 C 0.02974 0.18641 0.73149 0.0
C805 C 0.02457 0.20281 0.70954 0.0
C806 C 0.03294 0.255 0.69395 0.0
C807 C 0.03683 0.28139 0.59648 0.0
C808 C 0.03355 0.26566 0.62556 0.0
C809 C 0.03599 0.21964 0.71089 0.0
C810 C 0.03311 0.23552 0.68192 0.0
H811 H 0.02133 0.32699 0.57419 0.0
H812 H 0.01254 0.29901 0.61499 0.0
H813 H 0.03348 0.28481 0.67612 0.0
H814 H 0.07052 0.20407 0.77499 0.0
H815 H 0.06098 0.23295 0.73825 0.0
C816 C 0.06933 0.00915 0.31506 0.0
C817 C 0.07159 0.02482 0.2892 0.0
C818 C 0.05171 0.999 0.31649 0.0
C819 C 0.01567 0.97423 0.30205 0.0
H820 H 0.96902 1.00345 0.27941 0.0
C821 C 0.9426 0.93594 0.27623 0.0
C822 C 0.92534 0.94522 0.28755 0.0
C823 C 0.96032 0.94564 0.27801 0.0
C824 C 0.98179 0.99503 0.28639 0.0
H825 H 0.05774 0.04142 0.24302 0.0
H826 H 0.02772 0.02333 0.24399 0.0
H827 H 0.99994 0.01988 0.28123 0.0
H828 H 0.91322 0.97199 0.30995 0.0
H829 H 0.94423 0.98879 0.31444 0.0
H830 H 0.99735 0.94955 0.3091 0.0
C831 C 0.03897 0.01929 0.26459 0.0
C832 C 0.99971 1.00444 0.28672 0.0
C833 C 0.05632 0.02957 0.2637 0.0
C834 C 0.92623 0.96451 0.30064 0.0
C835 C 0.94406 0.97414 0.30308 0.0
C836 C 0.99769 0.96485 0.30231 0.0
C837 C 0.03616 1.00415 0.29163 0.0
C838 C 0.01698 0.99414 0.2938 0.0
C839 C 0.9614 0.96483 0.29183 0.0
C840 C 0.98049 0.97505 0.29385 0.0
H841 H 0.08084 0.00527 0.33521 0.0
H842 H 0.05013 0.98752 0.3379 0.0
H843 H 0.02856 0.96572 0.3075 0.0
H844 H 0.94243 0.92114 0.26563 0.0
H845 H 0.97315 0.93806 0.26805 0.0
C846 C 0.9744 0.55809 0.47991 0.0
C847 C 0.98168 0.57239 0.50523 0.0
C848 C 0.98448 0.54079 0.47401 0.0
C849 C 0.99963 0.50073 0.48995 0.0
H850 H 0.05542 0.49584 0.49413 0.0
C851 C 0.03761 0.42663 0.51192 0.0
C852 C 0.05584 0.42374 0.49454 0.0
C853 C 0.0285 0.44476 0.50998 0.0
C854 C 0.03981 0.49689 0.49235 0.0
H855 H 0.0054 0.58019 0.54359 0.0
H856 H 0.02297 0.54969 0.53424 0.0
H857 H 0.04074 0.52788 0.49439 0.0
H858 H 0.0783 0.43736 0.45966 0.0
H859 H 0.06217 0.46858 0.45493 0.0
H860 H 0.99867 0.46981 0.48675 0.0
C861 C 0.00969 0.55196 0.51798 0.0
C862 C 0.03137 0.51534 0.49309 0.0
C863 C 0.99969 0.56949 0.52333 0.0
C864 C 0.06432 0.43913 0.47366 0.0
C865 C 0.05514 0.45713 0.4713 0.0
C866 C 0.00807 0.48231 0.48883 0.0
C867 C 1.0019 0.53713 0.49413 0.0
C868 C 0.01113 0.51754 0.49202 0.0
C869 C 0.03731 0.46038 0.49019 0.0
C870 C 0.02828 0.48009 0.49022 0.0
H871 H 0.96048 0.56002 0.46573 0.0
H872 H 0.97827 0.53005 0.45452 0.0
H873 H 0.98399 0.5017 0.48988 0.0
H874 H 0.03078 0.41516 0.52861 0.0
H875 H 0.0149 0.44668 0.52529 0.0
C876 C 0.42853 0.49063 0.78398 0.0
C877 C 0.42558 0.47412 0.76053 0.0
C878 C 0.44644 0.50014 0.78391 0.0
C879 C 0.48272 0.52334 0.7669 0.0
H880 H 0.52919 0.49274 0.75139 0.0
C881 C 0.55694 0.56018 0.75141 0.0
C882 C 0.57332 0.55104 0.76743 0.0
C883 C 0.53927 0.55047 0.74887 0.0
C884 C 0.51643 0.50153 0.75624 0.0
H885 H 0.43885 0.45515 0.71734 0.0
H886 H 0.46961 0.47217 0.71572 0.0
H887 H 0.49783 0.47692 0.7516 0.0
H888 H 0.58405 0.52441 0.79297 0.0
H889 H 0.55298 0.50757 0.78995 0.0
H890 H 0.50133 0.54777 0.77372 0.0
C891 C 0.45846 0.47743 0.73541 0.0
C892 C 0.4983 0.49247 0.75567 0.0
C893 C 0.4407 0.46775 0.736 0.0
C894 C 0.57172 0.53178 0.78019 0.0
C895 C 0.55387 0.52213 0.77832 0.0
C896 C 0.50084 0.53234 0.76805 0.0
C897 C 0.46176 0.49357 0.75989 0.0
C898 C 0.48114 0.50325 0.76075 0.0
C899 C 0.53731 0.53143 0.76303 0.0
C900 C 0.51799 0.52162 0.76243 0.0
H901 H 0.41726 0.49576 0.80357 0.0
H902 H 0.4484 0.5123 0.80364 0.0
H903 H 0.46994 0.53225 0.77049 0.0
H904 H 0.55776 0.57496 0.74085 0.0
H905 H 0.52712 0.558 0.73579 0.0
C906 C 0.5214 0.93814 0.01617 0.0
C907 C 0.54089 0.93832 0.02809 0.0
C908 C 0.51128 0.95559 0.01071 0.0
C909 C 0.51879 0.00844 -0.00452 0.0
H910 H 0.46758 0.01346 0.04082 0.0
C911 C 0.48184 0.08276 0.02447 0.0
C912 C 0.46163 0.08385 0.02024 0.0
C913 C 0.49146 0.06495 0.02037 0.0
C914 C 0.48175 0.01227 0.0274 0.0
H915 H 0.56505 0.95717 0.04288 0.0
H916 H 0.54752 0.98715 0.03364 0.0
H917 H 0.48393 0.9822 0.04218 0.0
H918 H 0.43588 0.06725 0.00591 0.0
H919 H 0.4526 0.03657 -0.00196 0.0
H920 H 0.51672 0.03859 0.98116 0.0
C921 C 0.54003 0.97364 0.02811 0.0
C922 C 0.49111 0.9943 0.02817 0.0
C923 C 0.55005 0.95633 0.03376 0.0
C924 C 0.45143 0.06694 0.00993 0.0
C925 C 0.46101 0.04926 0.00564 0.0
C926 C 0.50941 0.02642 -0.00536 0.0
C927 C 0.52051 0.97355 0.01671 0.0
C928 C 0.50985 0.99221 0.01269 0.0
C929 C 0.48107 0.0479 0.01175 0.0
C930 C 0.49084 0.02862 0.01093 0.0
H931 H 0.51389 0.92457 0.0115 0.0
H932 H 0.49626 0.95503 0.00168 0.0
H933 H 0.53313 0.00727 0.98278 0.0
H934 H 0.49012 0.09546 0.03259 0.0
H935 H 0.50692 0.06443 0.02552 0.0
C936 C 0.05605 0.47437 0.05161 0.0
C937 C 0.07113 0.48284 0.02995 0.0
C938 C 0.03845 0.48398 0.05657 0.0
C939 C 0.99881 0.49985 0.04011 0.0
H940 H 0.994 0.55562 0.04723 0.0
C941 C 0.92492 0.53881 0.02389 0.0
C942 C 0.92199 0.55623 0.04447 0.0
C943 C 0.943 0.5296 0.02459 0.0
C944 C 0.99502 0.53998 0.04584 0.0
H945 H 0.07987 0.50825 -0.00263 0.0
H946 H 0.04876 0.52497 0.00484 0.0
H947 H 0.026 0.54093 0.04551 0.0
H948 H 0.93541 0.57705 0.08371 0.0
H949 H 0.96654 0.56062 0.08642 0.0
H950 H 0.9679 0.4988 0.04188 0.0
C951 C 0.05067 0.51103 0.01885 0.0
C952 C 0.01346 0.53156 0.0442 0.0
C953 C 0.06852 0.50149 0.0145 0.0
C954 C 0.93723 0.5637 0.06731 0.0
C955 C 0.95519 0.55437 0.06847 0.0
C956 C 0.98041 0.50824 0.04221 0.0
C957 C 0.03523 0.50218 0.03924 0.0
C958 C 0.01563 0.51136 0.0413 0.0
C959 C 0.95852 0.53746 0.04633 0.0
C960 C 0.97821 0.52844 0.045 0.0
H961 H 0.05777 0.46007 0.06423 0.0
H962 H 0.02724 0.47692 0.07356 0.0
H963 H 0.99977 0.48427 0.03707 0.0
H964 H 0.91356 0.53282 0.00558 0.0
H965 H 0.94498 0.51674 0.00677 0.0
C966 C 0.48437 0.43952 0.2605 0.0
C967 C 0.46445 0.43933 0.25194 0.0
C968 C 0.49459 0.45708 0.26187 0.0
C969 C 0.4867 0.51002 0.27367 0.0
H970 H 0.53823 0.51447 0.22962 0.0
C971 C 0.52479 0.58411 0.25306 0.0
C972 C 0.54467 0.58498 0.26188 0.0
C973 C 0.51511 0.56628 0.25222 0.0
C974 C 0.52392 0.51343 0.24244 0.0
H975 H 0.43986 0.4576 0.23707 0.0
H976 H 0.45759 0.48779 0.23901 0.0
H977 H 0.5216 0.48331 0.22783 0.0
H978 H 0.56982 0.56757 0.27708 0.0
H979 H 0.55294 0.53678 0.27595 0.0
H980 H 0.48897 0.54013 0.28818 0.0
C981 C 0.4653 0.4745 0.24552 0.0
C982 C 0.5144 0.49554 0.24145 0.0
C983 C 0.45513 0.45707 0.24419 0.0
C984 C 0.55453 0.56757 0.27005 0.0
C985 C 0.54488 0.54981 0.26914 0.0
C986 C 0.4962 0.5279 0.27462 0.0
C987 C 0.48511 0.4748 0.25472 0.0
C988 C 0.49562 0.49363 0.25688 0.0
C989 C 0.52507 0.5489 0.26008 0.0
C990 C 0.51491 0.52986 0.25892 0.0
H991 H 0.49203 0.42617 0.26664 0.0
H992 H 0.50983 0.45679 0.26927 0.0
H993 H 0.47238 0.50902 0.28648 0.0
H994 H 0.51672 0.59716 0.24648 0.0
H995 H 0.49987 0.56608 0.24476 0.0
C996 C 0.44345 0.03833 0.59236 0.0
C997 C 0.42821 0.03148 0.56872 0.0
C998 C 0.46098 0.02828 0.59447 0.0
C999 C 0.50029 0.01321 0.57044 0.0
H1000 H 0.5045 0.95731 0.56626 0.0
C1001 C 0.57277 0.97363 0.53708 0.0
C1002 C 0.57609 0.95573 0.55553 0.0
C1003 C 0.55494 0.98315 0.54145 0.0
C1004 C 0.50364 0.97295 0.56789 0.0
H1005 H 0.41917 0.0082 0.53009 0.0
H1006 H 0.44988 0.9907 0.53334 0.0
H1007 H 0.47268 0.97233 0.57085 0.0
H1008 H 0.56361 0.93437 0.59485 0.0
H1009 H 0.53298 0.95114 0.60331 0.0
H1010 H 0.53126 0.01384 0.5683 0.0
C1011 C 0.44821 1.00375 0.55072 0.0
C1012 C 0.48532 0.98158 0.57 0.0
C1013 C 0.43054 0.01375 0.54891 0.0
C1014 C 0.56152 0.94805 0.57986 0.0
C1015 C 0.54382 0.95759 0.58444 0.0
C1016 C 0.51861 1.00459 0.56849 0.0
C1017 C 0.46386 0.0112 0.57265 0.0
C1018 C 0.48337 1.00184 0.57129 0.0
C1019 C 0.54008 0.97504 0.56459 0.0
C1020 C 0.52056 0.98433 0.56715 0.0
H1021 H 0.44208 0.05188 0.60826 0.0
H1022 H 0.47245 0.03419 0.61256 0.0
H1023 H 0.49942 0.02887 0.57066 0.0
H1024 H 0.5836 0.97988 0.51787 0.0
H1025 H 0.55257 0.99649 0.52545 0.0
C1026 C 0.03829 0.07419 0.75413 0.0
C1027 C 0.05864 0.07435 0.75345 0.0
C1028 C 0.02811 0.05665 0.75243 0.0
C1029 C 0.03372 1.00379 0.76889 0.0
H1030 H 0.98769 1.00023 0.70413 0.0
C1031 C 0.99229 0.93128 0.74427 0.0
C1032 C 0.97199 0.93253 0.7463 0.0
C1033 C 1.00363 0.94816 0.74341 0.0
C1034 C 1.00044 1.001 0.72261 0.0
H1035 H 0.08418 0.05595 0.75053 0.0
H1036 H 0.06648 0.02565 0.74742 0.0
H1037 H 0.00549 0.03064 0.70731 0.0
H1038 H 0.9478 0.95273 0.74858 0.0
H1039 H 0.96739 0.98167 0.74747 0.0
H1040 H 0.02854 0.97416 0.78443 0.0
C1041 C 0.05836 0.03903 0.7497 0.0
C1042 C 0.01062 0.01847 0.7245 0.0
C1043 C 0.06851 0.0565 0.75128 0.0
C1044 C 0.96337 0.95104 0.74702 0.0
C1045 C 0.97463 0.96777 0.74605 0.0
C1046 C 0.02351 0.98629 0.76704 0.0
C1047 C 0.03804 0.03885 0.75014 0.0
C1048 C 0.02731 0.02015 0.7479 0.0
C1049 C 0.99489 0.96661 0.74429 0.0
C1050 C 0.00662 0.98474 0.74418 0.0
H1051 H 0.03018 0.0876 0.7558 0.0
H1052 H 0.01245 0.05702 0.75329 0.0
H1053 H 0.04641 0.00461 0.78752 0.0
H1054 H 0.99943 0.91731 0.74365 0.0
H1055 H 0.01923 0.94676 0.74178 0.0
C1056 C 0.11152 0.14393 0.65234 0.0
C1057 C 0.09434 0.13362 0.65912 0.0
C1058 C 0.11948 0.14458 0.61449 0.0
C1059 C 0.13568 0.12448 0.53788 0.0
H1060 H 0.10073 0.13298 0.45039 0.0
C1061 C 0.11643 0.07392 0.41214 0.0
C1062 C 0.12527 0.07801 0.37609 0.0
C1063 C 0.11717 0.08741 0.44254 0.0
C1064 C 0.11096 0.13117 0.47415 0.0
H1065 H 0.07108 0.11736 0.63223 0.0
H1066 H 0.08477 0.11857 0.56623 0.0
H1067 H 0.09313 0.1468 0.51466 0.0
H1068 H 0.14315 0.09837 0.34399 0.0
H1069 H 0.14404 0.12243 0.39758 0.0
H1070 H 0.15229 0.10691 0.4982 0.0
C1071 C 0.0923 0.12589 0.58995 0.0
C1072 C 0.10663 0.13901 0.51086 0.0
C1073 C 0.08459 0.12499 0.62761 0.0
C1074 C 0.1356 0.09537 0.37126 0.0
C1075 C 0.13632 0.10894 0.40176 0.0
C1076 C 0.13995 0.1165 0.50112 0.0
C1077 C 0.10981 0.1356 0.58309 0.0
C1078 C 0.11826 0.13456 0.54348 0.0
C1079 C 0.12705 0.10497 0.43742 0.0
C1080 C 0.12698 0.11893 0.4698 0.0
H1081 H 0.11873 0.15143 0.67621 0.0
H1082 H 0.13305 0.15205 0.60971 0.0
H1083 H 0.14482 0.12093 0.56265 0.0
H1084 H 0.10881 0.06039 0.41658 0.0
H1085 H 0.10998 0.08421 0.47012 0.0
C1086 C 0.95974 0.61676 0.66368 0.0
C1087 C 0.94926 0.6253 0.63316 0.0
C1088 C 0.95305 0.61828 0.70231 0.0
C1089 C 0.90727 0.62846 0.75547 0.0
H1090 H 0.94018 0.61887 0.84568 0.0
C1091 C 0.8772 0.61232 0.91051 0.0
C1092 C 0.88501 0.59531 0.92637 0.0
C1093 C 0.88569 0.62071 0.87741 0.0
C1094 C 0.93086 0.62173 0.82071 0.0
H1095 H 0.92524 0.64405 0.6183 0.0
H1096 H 0.91418 0.64785 0.68573 0.0
H1097 H 0.95484 0.62669 0.78248 0.0
H1098 H 0.90656 0.57281 0.91956 0.0
H1099 H 0.92165 0.58755 0.86188 0.0
H1100 H 0.88333 0.62318 0.79379 0.0
C1101 C 0.92675 0.63888 0.68025 0.0
C1102 C 0.93922 0.62603 0.78444 0.0
C1103 C 0.93307 0.63678 0.64165 0.0
C1104 C 0.90077 0.58627 0.90814 0.0
C1105 C 0.90941 0.59474 0.8755 0.0
C1106 C 0.89894 0.62436 0.79178 0.0
C1107 C 0.93622 0.62909 0.71098 0.0
C1108 C 0.92754 0.62851 0.75093 0.0
C1109 C 0.90202 0.61208 0.86006 0.0
C1110 C 0.91069 0.6202 0.82422 0.0
H1111 H 0.97254 0.6082 0.65744 0.0
H1112 H 0.96062 0.61027 0.7249 0.0
H1113 H 0.89768 0.63034 0.73064 0.0
H1114 H 0.86459 0.61906 0.9237 0.0
H1115 H 0.87964 0.63395 0.8656 0.0
C1116 C 0.4369 0.39034 0.12463 0.0
C1117 C 0.42749 0.38126 0.15599 0.0
C1118 C 0.42896 0.38967 0.08711 0.0
C1119 C 0.41495 0.37791 0.00745 0.0
H1120 H 0.36328 0.39915 -0.00445 0.0
C1121 C 0.36776 0.41107 0.87267 0.0
C1122 C 0.37896 0.42774 0.8664 0.0
C1123 C 0.37133 0.3993 0.90531 0.0
C1124 C 0.3775 0.39266 -0.00159 0.0
H1125 H 0.4035 0.36293 0.17293 0.0
H1126 H 0.38902 0.36225 0.10673 0.0
H1127 H 0.37437 0.38851 0.06053 0.0
H1128 H 0.40174 0.44597 0.8894 0.0
H1129 H 0.40849 0.42504 0.94588 0.0
H1130 H 0.41866 0.38364 0.94621 0.0
C1131 C 0.40238 0.37012 0.11147 0.0
C1132 C 0.38384 0.38661 0.03545 0.0
C1133 C 0.41047 0.37071 0.14918 0.0
C1134 C 0.39331 0.43289 0.89343 0.0
C1135 C 0.39715 0.42098 0.92546 0.0
C1136 C 0.40866 0.38403 0.97065 0.0
C1137 C 0.41163 0.3796 0.08016 0.0
C1138 C 0.40301 0.38028 0.04053 0.0
C1139 C 0.38622 0.40413 0.93153 0.0
C1140 C 0.39029 0.39233 0.96637 0.0
H1141 H 0.45029 0.39817 0.12929 0.0
H1142 H 0.43621 0.39738 0.06363 0.0
H1143 H 0.42968 0.37274 0.01059 0.0
H1144 H 0.35622 0.40727 0.8525 0.0
H1145 H 0.36266 0.38644 0.90992 0.0
C1146 C 0.59653 0.9178 0.41179 0.0
C1147 C 0.61234 0.91125 0.43371 0.0
C1148 C 0.58946 0.90665 0.38084 0.0
C1149 C 0.60521 0.87319 0.30661 0.0
H1150 H 0.55011 0.86994 0.28608 0.0
C1151 C 0.57903 0.86288 0.14959 0.0
C1152 C 0.56401 0.87552 0.13926 0.0
C1153 C 0.58308 0.8593 0.18907 0.0
C1154 C 0.56555 0.8707 0.2913 0.0
H1155 H 0.63434 0.88909 0.43939 0.0
H1156 H 0.6221 0.86949 0.38447 0.0
H1157 H 0.56144 0.87943 0.35119 0.0
H1158 H 0.54037 0.89308 0.16072 0.0
H1159 H 0.54825 0.88828 0.22975 0.0
H1160 H 0.60955 0.86557 0.24672 0.0
C1161 C 0.61477 0.88287 0.39203 0.0
C1162 C 0.572 0.876 0.32864 0.0
C1163 C 0.6217 0.89396 0.42332 0.0
C1164 C 0.55232 0.88364 0.16846 0.0
C1165 C 0.55667 0.88053 0.20797 0.0
C1166 C 0.59877 0.86796 0.26927 0.0
C1167 C 0.59847 0.88905 0.37082 0.0
C1168 C 0.59185 0.87839 0.33579 0.0
C1169 C 0.57235 0.86858 0.21883 0.0
C1170 C 0.57887 0.86803 0.26044 0.0
H1171 H 0.58951 0.9314 0.41898 0.0
H1172 H 0.57725 0.91203 0.36412 0.0
H1173 H 0.62062 0.87479 0.31149 0.0
H1174 H 0.5877 0.85588 0.12709 0.0
H1175 H 0.59492 0.84963 0.19615 0.0
C1176 C 0.0826 0.39955 0.63361 0.0
C1177 C 0.09185 0.38403 0.61493 0.0
C1178 C 0.09049 0.40752 0.66757 0.0
C1179 C 0.11944 0.39645 0.75263 0.0
H1180 H 0.12247 0.45237 0.76172 0.0
C1181 C 0.13576 0.4327 0.90102 0.0
C1182 C 0.12434 0.44893 0.90969 0.0
C1183 C 0.13628 0.42529 0.86288 0.0
C1184 C 0.12161 0.43674 0.75979 0.0
H1185 H 0.11525 0.36323 0.61819 0.0
H1186 H 0.12917 0.37717 0.67854 0.0
H1187 H 0.11434 0.43774 0.6987 0.0
H1188 H 0.10561 0.47109 0.88598 0.0
H1189 H 0.10537 0.45757 0.81968 0.0
H1190 H 0.12573 0.39532 0.81392 0.0
C1191 C 0.1162 0.38352 0.66616 0.0
C1192 C 0.11712 0.42839 0.72363 0.0
C1193 C 0.10839 0.3757 0.63173 0.0
C1194 C 0.11418 0.45829 0.87971 0.0
C1195 C 0.11433 0.45068 0.84173 0.0
C1196 C 0.12375 0.4048 0.78894 0.0
C1197 C 0.10746 0.39971 0.68387 0.0
C1198 C 0.11538 0.40823 0.72013 0.0
C1199 C 0.12527 0.43399 0.8329 0.0
C1200 C 0.1241 0.42508 0.79327 0.0
H1201 H 0.06947 0.40573 0.62146 0.0
H1202 H 0.08322 0.41968 0.68135 0.0
H1203 H 0.11815 0.38084 0.75057 0.0
H1204 H 0.14426 0.42575 0.92379 0.0
H1205 H 0.14519 0.41271 0.85703 0.0
C1206 C 0.60773 0.64312 0.16171 0.0
C1207 C 0.59084 0.63244 0.16898 0.0
C1208 C 0.61974 0.6381 0.13015 0.0
C1209 C 0.63179 0.59773 0.0654 0.0
H1210 H 0.63401 0.63445 0.97938 0.0
C1211 C 0.62297 0.57348 0.90864 0.0
C1212 C 0.63187 0.58341 0.87778 0.0
C1213 C 0.62488 0.58016 0.94707 0.0
C1214 C 0.63395 0.62411 0.00326 0.0
H1215 H 0.5724 0.60921 0.14863 0.0
H1216 H 0.59355 0.60007 0.09415 0.0
H1217 H 0.62485 0.64558 0.04498 0.0
H1218 H 0.6511 0.60692 0.86228 0.0
H1219 H 0.65439 0.6189 0.92997 0.0
H1220 H 0.63975 0.57606 0.02355 0.0
C1221 C 0.5978 0.61196 0.11312 0.0
C1222 C 0.62882 0.63053 0.04083 0.0
C1223 C 0.58569 0.6172 0.14397 0.0
C1224 C 0.6435 0.59957 0.88581 0.0
C1225 C 0.64553 0.60626 0.92441 0.0
C1226 C 0.63699 0.59135 0.02802 0.0
C1227 C 0.61493 0.6223 0.10606 0.0
C1228 C 0.62655 0.61713 0.07143 0.0
C1229 C 0.63618 0.59662 0.95542 0.0
C1230 C 0.63675 0.60425 -0.00392 0.0
H1231 H 0.61147 0.65538 0.18013 0.0
H1232 H 0.63273 0.64644 0.12463 0.0
H1233 H 0.63032 0.58723 0.08885 0.0
H1234 H 0.61428 0.56073 0.9029 0.0
H1235 H 0.61711 0.57265 0.97012 0.0
C1236 C 0.38247 0.09103 0.43137 0.0
C1237 C 0.39143 0.07362 0.44205 0.0
C1238 C 0.38826 0.10071 0.39745 0.0
C1239 C 0.42905 0.10512 0.32944 0.0
H1240 H 0.39041 0.12328 0.25559 0.0
C1241 C 0.44757 0.11933 0.16866 0.0
C1242 C 0.43633 0.13226 0.14681 0.0
C1243 C 0.44286 0.11545 0.20766 0.0
C1244 C 0.40144 0.11856 0.27598 0.0
H1245 H 0.41219 0.05167 0.42517 0.0
H1246 H 0.42258 0.0687 0.36554 0.0
H1247 H 0.3802 0.10924 0.31756 0.0
H1248 H 0.41295 0.15309 0.1487 0.0
H1249 H 0.40497 0.14693 0.21763 0.0
H1250 H 0.45032 0.11433 0.28801 0.0
C1251 C 0.41147 0.07515 0.38388 0.0
C1252 C 0.39555 0.11052 0.31156 0.0
C1253 C 0.40552 0.06538 0.41764 0.0
C1254 C 0.42126 0.14246 0.16497 0.0
C1255 C 0.41677 0.13893 0.20433 0.0
C1256 C 0.43496 0.11327 0.29396 0.0
C1257 C 0.40301 0.09298 0.37376 0.0
C1258 C 0.4093 0.10324 0.33804 0.0
C1259 C 0.42726 0.12504 0.22591 0.0
C1260 C 0.42119 0.11943 0.26615 0.0
H1261 H 0.37113 0.09723 0.4495 0.0
H1262 H 0.38148 0.1144 0.39019 0.0
H1263 H 0.43993 0.1 0.34988 0.0
H1264 H 0.45956 0.11169 0.15508 0.0
H1265 H 0.45108 0.10442 0.22293 0.0
C1266 C 0.92138 0.88992 0.62914 0.0
C1267 C 0.91795 0.87984 0.66408 0.0
C1268 C 0.90747 0.88996 0.59955 0.0
C1269 C 0.878 0.86639 0.54136 0.0
H1270 H 0.85014 0.91453 0.52551 0.0
C1271 C 0.8538 0.89402 0.38803 0.0
C1272 C 0.86436 0.91103 0.38104 0.0
C1273 C 0.85241 0.8866 0.42623 0.0
C1274 C 0.85728 0.90072 0.52991 0.0
H1275 H 0.89833 0.86066 0.69492 0.0
H1276 H 0.87371 0.86075 0.64241 0.0
H1277 H 0.86319 0.90687 0.59038 0.0
H1278 H 0.88028 0.93457 0.40782 0.0
H1279 H 0.87786 0.92179 0.47437 0.0
H1280 H 0.8737 0.86113 0.47995 0.0
C1281 C 0.88693 0.86897 0.63867 0.0
C1282 C 0.86469 0.89636 0.56695 0.0
C1283 C 0.90084 0.86906 0.66851 0.0
C1284 C 0.87249 0.92116 0.41263 0.0
C1285 C 0.87087 0.91399 0.45061 0.0
C1286 C 0.87046 0.87069 0.50429 0.0
C1287 C 0.89021 0.87953 0.60423 0.0
C1288 C 0.87614 0.87983 0.57209 0.0
C1289 C 0.86091 0.89663 0.45775 0.0
C1290 C 0.86136 0.88857 0.49778 0.0
H1291 H 0.9347 0.89794 0.625 0.0
H1292 H 0.9102 0.89805 0.57282 0.0
H1293 H 0.88696 0.85362 0.54489 0.0
H1294 H 0.84667 0.88654 0.36405 0.0
H1295 H 0.84476 0.87314 0.43118 0.0
C1296 C 0.08138 0.11877 0.89543 0.0
C1297 C 0.09681 0.12312 0.87012 0.0
C1298 C 0.08504 0.11176 0.93335 0.0
C1299 C 0.12397 0.08638 0.98821 0.0
H1300 H 0.08999 0.0948 0.07731 0.0
C1301 C 0.13886 0.06274 0.1505 0.0
C1302 C 0.1227 0.05593 0.17124 0.0
C1303 C 0.13678 0.0691 0.11155 0.0
C1304 C 0.09951 0.09218 0.05251 0.0
H1305 H 0.12803 0.12522 0.8655 0.0
H1306 H 0.13438 0.11398 0.93206 0.0
H1307 H 0.08414 0.11225 0.01623 0.0
H1308 H 0.09222 0.04902 0.16748 0.0
H1309 H 0.08866 0.05968 0.09946 0.0
H1310 H 0.13953 0.06656 0.02518 0.0
C1311 C 0.1195 0.11514 0.92235 0.0
C1312 C 0.09615 0.10218 0.0175 0.0
C1313 C 0.11586 0.12184 0.88438 0.0
C1314 C 0.10491 0.05401 0.15174 0.0
C1315 C 0.10283 0.06036 0.11309 0.0
C1316 C 0.12745 0.07654 0.02345 0.0
C1317 C 0.10419 0.10923 0.94675 0.0
C1318 C 0.10826 0.09933 0.98477 0.0
C1319 C 0.11849 0.06883 0.0933 0.0
C1320 C 0.11512 0.07919 0.05577 0.0
H1321 H 0.06658 0.1194 0.88497 0.0
H1322 H 0.07287 0.10728 0.9512 0.0
H1323 H 0.13339 0.0835 0.96342 0.0
H1324 H 0.15258 0.06476 0.16538 0.0
H1325 H 0.14908 0.07559 0.09689 0.0
C1326 C 0.90672 0.59771 0.42795 0.0
C1327 C 0.91768 0.61447 0.4358 0.0
C1328 C 0.89677 0.59564 0.39264 0.0
C1329 C 0.87449 0.62127 0.31139 0.0
H1330 H 0.88466 0.57413 0.25264 0.0
C1331 C 0.85871 0.61296 0.147 0.0
C1332 C 0.85716 0.59437 0.13038 0.0
C1333 C 0.86081 0.61531 0.18747 0.0
C1334 C 0.88116 0.58714 0.269 0.0
H1335 H 0.92653 0.64232 0.41268 0.0
H1336 H 0.90871 0.63871 0.35034 0.0
H1337 H 0.90021 0.57918 0.31589 0.0
H1338 H 0.85396 0.56386 0.14344 0.0
H1339 H 0.85683 0.56797 0.21469 0.0
H1340 H 0.85526 0.6292 0.26474 0.0
C1341 C 0.90799 0.62724 0.37201 0.0
C1342 C 0.89031 0.59013 0.30508 0.0
C1343 C 0.91827 0.62925 0.40743 0.0
C1344 C 0.85526 0.57835 0.15541 0.0
C1345 C 0.85722 0.58071 0.19619 0.0
C1346 C 0.86506 0.61817 0.27547 0.0
C1347 C 0.89732 0.6103 0.36429 0.0
C1348 C 0.8873 0.60732 0.3263 0.0
C1349 C 0.8612 0.59911 0.21241 0.0
C1350 C 0.86856 0.6012 0.25342 0.0
H1351 H 0.90598 0.58594 0.44893 0.0
H1352 H 0.88858 0.5825 0.38751 0.0
H1353 H 0.8717 0.63451 0.3276 0.0
H1354 H 0.85994 0.62564 0.12841 0.0
H1355 H 0.8638 0.6297 0.19855 0.0
C1356 C 0.35844 0.42458 0.6422 0.0
C1357 C 0.36481 0.44182 0.65992 0.0
C1358 C 0.363 0.42051 0.60302 0.0
C1359 C 0.40333 0.42931 0.53788 0.0
H1360 H 0.37274 0.40186 0.46021 0.0
C1361 C 0.4333 0.408 0.3851 0.0
C1362 C 0.4261 0.39128 0.36688 0.0
C1363 C 0.42597 0.41404 0.42142 0.0
C1364 C 0.38158 0.40922 0.48187 0.0
H1365 H 0.37959 0.46898 0.65009 0.0
H1366 H 0.38757 0.46193 0.58126 0.0
H1367 H 0.35709 0.41488 0.519 0.0
H1368 H 0.40611 0.36737 0.37221 0.0
H1369 H 0.39388 0.37728 0.43683 0.0
H1370 H 0.42792 0.42315 0.50178 0.0
C1371 C 0.37904 0.45157 0.5977 0.0
C1372 C 0.37254 0.41688 0.5153 0.0
C1373 C 0.3742 0.45576 0.63683 0.0
C1374 C 0.41217 0.38008 0.3863 0.0
C1375 C 0.40493 0.38601 0.42287 0.0
C1376 C 0.41241 0.42148 0.50471 0.0
C1377 C 0.37431 0.4335 0.58109 0.0
C1378 C 0.38332 0.427 0.54367 0.0
C1379 C 0.41124 0.40345 0.44023 0.0
C1380 C 0.40168 0.41128 0.47627 0.0
H1381 H 0.35144 0.4135 0.65966 0.0
H1382 H 0.3592 0.40646 0.59113 0.0
H1383 H 0.41212 0.43664 0.5597 0.0
H1384 H 0.44362 0.41714 0.36992 0.0
H1385 H 0.43104 0.42765 0.43345 0.0
C1386 C 0.64456 0.9001 0.65001 0.0
C1387 C 0.64441 0.91865 0.6331 0.0
C1388 C 0.64526 0.89787 0.69064 0.0
C1389 C 0.62954 0.92552 0.7771 0.0
H1390 H 0.64258 0.87754 0.83023 0.0
C1391 C 0.60957 0.90979 0.93847 0.0
C1392 C 0.5981 0.89314 0.94371 0.0
C1393 C 0.61891 0.91322 0.90288 0.0
C1394 C 0.63891 0.891 0.81566 0.0
H1395 H 0.64742 0.94932 0.64504 0.0
H1396 H 0.64937 0.94543 0.71651 0.0
H1397 H 0.65609 0.8842 0.76518 0.0
H1398 H 0.58778 0.86684 0.91589 0.0
H1399 H 0.60462 0.87274 0.85328 0.0
H1400 H 0.61254 0.9323 0.828 0.0
C1401 C 0.6482 0.9326 0.69829 0.0
C1402 C 0.64661 0.89486 0.77845 0.0
C1403 C 0.64736 0.93485 0.65734 0.0
C1404 C 0.59646 0.87979 0.91264 0.0
C1405 C 0.60617 0.88309 0.87707 0.0
C1406 C 0.6222 0.92183 0.81459 0.0
C1407 C 0.64602 0.91414 0.71547 0.0
C1408 C 0.64148 0.91188 0.75807 0.0
C1409 C 0.61728 0.89994 0.87189 0.0
C1410 C 0.62638 0.90431 0.83364 0.0
H1411 H 0.64259 0.8873 0.63198 0.0
H1412 H 0.64349 0.88341 0.70237 0.0
H1413 H 0.62492 0.93861 0.76232 0.0
H1414 H 0.61105 0.92045 0.9617 0.0
H1415 H 0.6274 0.9263 0.8995 0.0
C1416 C 0.11344 0.35815 0.39493 0.0
C1417 C 0.0944 0.36024 0.40884 0.0
C1418 C 0.11782 0.3619 0.35563 0.0
C1419 C 0.09701 0.37413 0.25785 0.0
H1420 H 0.1391 0.41134 0.25505 0.0
C1421 C 0.10287 0.42907 0.13388 0.0
C1422 C 0.12105 0.43225 0.1167 0.0
C1423 C 0.10125 0.41872 0.16879 0.0
C1424 C 0.12753 0.40077 0.25513 0.0
H1425 H 0.06472 0.36586 0.39202 0.0
H1426 H 0.07231 0.37251 0.32321 0.0
H1427 H 0.13298 0.393 0.31494 0.0
H1428 H 0.1519 0.4279 0.12292 0.0
H1429 H 0.14915 0.40962 0.18483 0.0
H1430 H 0.09125 0.38232 0.19834 0.0
C1431 C 0.08388 0.36788 0.34252 0.0
C1432 C 0.12404 0.39016 0.28939 0.0
C1433 C 0.07947 0.36395 0.38192 0.0
C1434 C 0.13777 0.42582 0.13608 0.0
C1435 C 0.13615 0.41527 0.17121 0.0
C1436 C 0.10051 0.38472 0.2236 0.0
C1437 C 0.10326 0.36798 0.32959 0.0
C1438 C 0.10849 0.37702 0.29141 0.0
C1439 C 0.11778 0.4111 0.18716 0.0
C1440 C 0.1155 0.39851 0.22221 0.0
H1441 H 0.1252 0.3552 0.41516 0.0
H1442 H 0.13281 0.36135 0.3463 0.0
H1443 H 0.08509 0.36396 0.2583 0.0
H1444 H 0.08978 0.43396 0.11936 0.0
H1445 H 0.08696 0.41628 0.1809 0.0
C1446 C 0.61606 0.58494 0.64148 0.0
C1447 C 0.62292 0.59802 0.66989 0.0
C1448 C 0.60961 0.59172 0.60496 0.0
C1449 C 0.6117 0.63111 0.53415 0.0
H1450 H 0.55797 0.6189 0.51231 0.0
C1451 C 0.57663 0.65955 0.39329 0.0
C1452 C 0.56576 0.64581 0.37252 0.0
C1453 C 0.58106 0.65655 0.43302 0.0
C1454 C 0.57304 0.62232 0.51763 0.0
H1455 H 0.62968 0.6281 0.68177 0.0
H1456 H 0.61928 0.63979 0.61722 0.0
H1457 H 0.5734 0.60609 0.57137 0.0
H1458 H 0.55012 0.61881 0.37671 0.0
H1459 H 0.55797 0.61328 0.44534 0.0
H1460 H 0.61185 0.64653 0.4798 0.0
C1461 C 0.61859 0.62442 0.6234 0.0
C1462 C 0.58184 0.61495 0.55148 0.0
C1463 C 0.62459 0.61772 0.66019 0.0
C1464 C 0.55809 0.62987 0.39259 0.0
C1465 C 0.56273 0.62668 0.43201 0.0
C1466 C 0.60304 0.63817 0.49987 0.0
C1467 C 0.61037 0.61158 0.59609 0.0
C1468 C 0.60128 0.61916 0.55984 0.0
C1469 C 0.57511 0.63948 0.45224 0.0
C1470 C 0.5836 0.63376 0.49092 0.0
H1471 H 0.61434 0.56974 0.64854 0.0
H1472 H 0.60343 0.58156 0.58415 0.0
H1473 H 0.62671 0.63458 0.54011 0.0
H1474 H 0.58304 0.67173 0.37805 0.0
H1475 H 0.59017 0.66701 0.44786 0.0
C1476 C 0.36984 0.06719 0.67579 0.0
C1477 C 0.36635 0.08013 0.64482 0.0
C1478 C 0.37141 0.07412 0.71443 0.0
C1479 C 0.36512 0.1175 0.7787 0.0
H1480 H 0.41346 0.10004 0.82466 0.0
C1481 C 0.39142 0.13729 0.93537 0.0
C1482 C 0.41144 0.1394 0.94159 0.0
C1483 C 0.38427 0.13239 0.89828 0.0
C1484 C 0.40003 0.10522 0.812 0.0
H1485 H 0.35986 0.10991 0.62998 0.0
H1486 H 0.36221 0.12193 0.69708 0.0
H1487 H 0.4015 0.08474 0.76485 0.0
H1488 H 0.43951 0.13961 0.91322 0.0
H1489 H 0.42696 0.13123 0.84801 0.0
H1490 H 0.3639 0.13824 0.82567 0.0
C1491 C 0.36383 0.10652 0.69194 0.0
C1492 C 0.39296 0.09618 0.77816 0.0
C1493 C 0.36247 0.09964 0.65344 0.0
C1494 C 0.42402 0.13817 0.90925 0.0
C1495 C 0.41686 0.1331 0.87209 0.0
C1496 C 0.37215 0.12649 0.81275 0.0
C1497 C 0.36934 0.09404 0.72253 0.0
C1498 C 0.37549 0.10227 0.76096 0.0
C1499 C 0.39699 0.12939 0.86665 0.0
C1500 C 0.38978 0.12055 0.82957 0.0
H1501 H 0.37313 0.05213 0.66976 0.0
H1502 H 0.37539 0.06411 0.73758 0.0
H1503 H 0.35162 0.12253 0.7661 0.0
H1504 H 0.38137 0.13821 0.95979 0.0
H1505 H 0.36891 0.12964 0.89513 0.0
C1506 C 0.88017 0.88675 0.15739 0.0
C1507 C 0.87842 0.90596 0.17079 0.0
C1508 C 0.88733 0.88279 0.11983 0.0
C1509 C 0.92087 0.90307 0.04886 0.0
H1510 H 0.89985 0.86516 0.97628 0.0
C1511 C 0.94458 0.89769 0.88787 0.0
C1512 C 0.94307 0.88001 0.86772 0.0
C1513 C 0.93942 0.89904 0.92739 0.0
C1514 C 0.90618 0.87546 -0.00342 0.0
H1515 H 0.88187 0.9361 0.15474 0.0
H1516 H 0.89455 0.92916 0.08881 0.0
H1517 H 0.88295 0.872 0.03784 0.0
H1518 H 0.93618 0.84961 0.87322 0.0
H1519 H 0.92761 0.85173 0.94324 0.0
H1520 H 0.94422 0.90642 0.00817 0.0
C1521 C 0.89037 0.9172 0.10757 0.0
C1522 C 0.89636 0.87953 0.03163 0.0
C1523 C 0.88289 0.92118 0.14503 0.0
C1524 C 0.93777 0.86331 0.88846 0.0
C1525 C 0.93254 0.86465 0.92827 0.0
C1526 C 0.93082 0.89884 0.0141 0.0
C1527 C 0.89317 0.89795 0.0951 0.0
C1528 C 0.90344 0.89361 0.05779 0.0
C1529 C 0.93254 0.88272 0.9477 0.0
C1530 C 0.92344 0.88523 0.98714 0.0
H1531 H 0.87685 0.87473 0.17669 0.0
H1532 H 0.88935 0.86783 0.11103 0.0
H1533 H 0.92692 0.91364 0.06898 0.0
H1534 H 0.94835 0.91081 0.87217 0.0
H1535 H 0.93943 0.91323 0.941 0.0
loop_
_geom_bond_atom_site_label_1
_geom_bond_atom_site_label_2
_geom_bond_distance
_geom_bond_site_symmetry_2
_ccdc_geom_bond_type
Mn0 O5 2.095 . S
Mn0 O15 2.162 . S
Mn0 O16 2.297 . S
Mn0 O24 2.385 . S
Mn0 O25 2.209 . S
Mn0 O26 2.094 . S
Mn1 O6 2.121 . S
Mn1 N8 2.257 . S
Mn1 N17 2.282 . S
Mn1 O25 2.215 . S
Mn1 O27 2.117 . S
C2 O24 1.234 . S
C2 O25 1.283 . S
C3 O15 1.281 . S
C3 O16 1.236 . S
C4 O26 1.240 . S
C4 O27 1.264 . S
O5 Mn0 2.095 . S
O5 C14 1.250 . S
O6 Mn1 2.121 . S
O6 C14 1.258 . S
C7 N8 1.326 . S
C7 C11 1.460 . S
C7 H13 0.929 . S
N8 Mn1 2.257 . S
N8 C7 1.326 . S
N8 C12 1.362 . S
C9 C10 1.258 . S
C9 C12 1.431 . S
C9 C29 1.449 . S
C10 C9 1.258 . S
C10 C11 1.477 . S
C10 H30 0.931 . S
C11 C7 1.460 . S
C11 C10 1.477 . S
C11 H31 0.930 . S
C12 N8 1.362 . S
C12 C9 1.431 . S
C12 C22 1.476 . S
H13 C7 0.929 . S
C14 O5 1.250 . S
C14 O6 1.258 . S
O15 Mn0 2.162 . S
O15 C3 1.281 . S
O16 Mn0 2.297 . S
O16 C3 1.236 . S
N17 Mn1 2.282 . S
N17 C18 1.328 . S
N17 C22 1.318 . S
C18 N17 1.328 . S
C18 C19 1.457 . S
C18 H23 0.929 . S
C19 C18 1.457 . S
C19 C20 1.291 . S
C19 H32 0.931 . S
C20 C19 1.291 . S
C20 C21 1.373 . S
C20 H33 0.929 . S
C21 C20 1.373 . S
C21 C22 1.396 . S
C21 C28 1.403 . S
C22 C12 1.476 . S
C22 N17 1.318 . S
C22 C21 1.396 . S
H23 C18 0.929 . S
O24 Mn0 2.385 . S
O24 C2 1.234 . S
O25 Mn0 2.209 . S
O25 Mn1 2.215 . S
O25 C2 1.283 . S
O26 Mn0 2.094 . S
O26 C4 1.240 . S
O27 Mn1 2.117 . S
O27 C4 1.264 . S
C28 C21 1.403 . S
C28 C29 1.399 . S
C28 H34 0.929 . S
C29 C9 1.449 . S
C29 C28 1.399 . S
C29 H35 0.930 . S
H30 C10 0.931 . S
H31 C11 0.930 . S
H32 C19 0.931 . S
H33 C20 0.929 . S
H34 C28 0.929 . S
H35 C29 0.930 . S
Mn36 O41 2.095 . S
Mn36 O51 2.162 . S
Mn36 O52 2.297 . S
Mn36 O60 2.385 . S
Mn36 O61 2.209 . S
Mn36 O62 2.094 . S
Mn37 O42 2.121 . S
Mn37 N44 2.257 . S
Mn37 N53 2.282 . S
Mn37 O61 2.215 . S
Mn37 O63 2.117 . S
C38 O60 1.234 . S
C38 O61 1.283 . S
C39 O51 1.281 . S
C39 O52 1.236 . S
C40 O62 1.240 . S
C40 O63 1.264 . S
O41 Mn36 2.095 . S
O41 C50 1.250 . S
O42 Mn37 2.121 . S
O42 C50 1.258 . S
C43 N44 1.326 . S
C43 C47 1.460 . S
C43 H49 0.929 . S
N44 Mn37 2.257 . S
N44 C43 1.326 . S
N44 C48 1.362 . S
C45 C46 1.258 . S
C45 C48 1.431 . S
C45 C65 1.449 . S
C46 C45 1.258 . S
C46 C47 1.477 . S
C46 H66 0.931 . S
C47 C43 1.460 . S
C47 C46 1.477 . S
C47 H67 0.930 . S
C48 N44 1.362 . S
C48 C45 1.431 . S
C48 C58 1.476 . S
H49 C43 0.929 . S
C50 O41 1.250 . S
C50 O42 1.258 . S
O51 Mn36 2.162 . S
O51 C39 1.281 . S
O52 Mn36 2.297 . S
O52 C39 1.236 . S
N53 Mn37 2.282 . S
N53 C54 1.328 . S
N53 C58 1.318 . S
C54 N53 1.328 . S
C54 C55 1.457 . S
C54 H59 0.929 . S
C55 C54 1.457 . S
C55 C56 1.291 . S
C55 H68 0.931 . S
C56 C55 1.291 . S
C56 C57 1.373 . S
C56 H69 0.929 . S
C57 C56 1.373 . S
C57 C58 1.396 . S
C57 C64 1.403 . S
C58 C48 1.476 . S
C58 N53 1.318 . S
C58 C57 1.396 . S
H59 C54 0.929 . S
O60 Mn36 2.385 . S
O60 C38 1.234 . S
O61 Mn36 2.209 . S
O61 Mn37 2.215 . S
O61 C38 1.283 . S
O62 Mn36 2.094 . S
O62 C40 1.240 . S
O63 Mn37 2.117 . S
O63 C40 1.264 . S
C64 C57 1.403 . S
C64 C65 1.399 . S
C64 H70 0.929 . S
C65 C45 1.449 . S
C65 C64 1.399 . S
C65 H71 0.930 . S
H66 C46 0.931 . S
H67 C47 0.930 . S
H68 C55 0.931 . S
H69 C56 0.929 . S
H70 C64 0.929 . S
H71 C65 0.930 . S
Mn72 O77 2.095 . S
Mn72 O87 2.162 . S
Mn72 O88 2.297 . S
Mn72 O96 2.385 . S
Mn72 O97 2.209 . S
Mn72 O98 2.094 . S
Mn73 O78 2.121 . S
Mn73 N80 2.257 . S
Mn73 N89 2.282 . S
Mn73 O97 2.215 . S
Mn73 O99 2.117 . S
C74 O96 1.234 . S
C74 O97 1.283 . S
C75 O87 1.281 . S
C75 O88 1.236 . S
C76 O98 1.240 . S
C76 O99 1.264 . S
O77 Mn72 2.095 . S
O77 C86 1.250 . S
O78 Mn73 2.121 . S
O78 C86 1.258 . S
C79 N80 1.326 . S
C79 C83 1.460 . S
C79 H85 0.929 . S
N80 Mn73 2.257 . S
N80 C79 1.326 . S
N80 C84 1.362 . S
C81 C82 1.258 . S
C81 C84 1.431 . S
C81 C101 1.449 . S
C82 C81 1.258 . S
C82 C83 1.477 . S
C82 H102 0.931 . S
C83 C79 1.460 . S
C83 C82 1.477 . S
C83 H103 0.930 . S
C84 N80 1.362 . S
C84 C81 1.431 . S
C84 C94 1.476 . S
H85 C79 0.929 . S
C86 O77 1.250 . S
C86 O78 1.258 . S
O87 Mn72 2.162 . S
O87 C75 1.281 . S
O88 Mn72 2.297 . S
O88 C75 1.236 . S
N89 Mn73 2.282 . S
N89 C90 1.328 . S
N89 C94 1.318 . S
C90 N89 1.328 . S
C90 C91 1.457 . S
C90 H95 0.929 . S
C91 C90 1.457 . S
C91 C92 1.291 . S
C91 H104 0.931 . S
C92 C91 1.291 . S
C92 C93 1.373 . S
C92 H105 0.929 . S
C93 C92 1.373 . S
C93 C94 1.396 . S
C93 C100 1.403 . S
C94 C84 1.476 . S
C94 N89 1.318 . S
C94 C93 1.396 . S
H95 C90 0.929 . S
O96 Mn72 2.385 . S
O96 C74 1.234 . S
O97 Mn72 2.209 . S
O97 Mn73 2.215 . S
O97 C74 1.283 . S
O98 Mn72 2.094 . S
O98 C76 1.240 . S
O99 Mn73 2.117 . S
O99 C76 1.264 . S
C100 C93 1.403 . S
C100 C101 1.399 . S
C100 H106 0.929 . S
C101 C81 1.449 . S
C101 C100 1.399 . S
C101 H107 0.930 . S
H102 C82 0.931 . S
H103 C83 0.930 . S
H104 C91 0.931 . S
H105 C92 0.929 . S
H106 C100 0.929 . S
H107 C101 0.930 . S
Mn108 O113 2.095 . S
Mn108 O123 2.162 . S
Mn108 O124 2.297 . S
Mn108 O132 2.385 . S
Mn108 O133 2.209 . S
Mn108 O134 2.094 . S
Mn109 O114 2.121 . S
Mn109 N116 2.257 . S
Mn109 N125 2.282 . S
Mn109 O133 2.215 . S
Mn109 O135 2.117 . S
C110 O132 1.234 . S
C110 O133 1.283 . S
C111 O123 1.281 . S
C111 O124 1.236 . S
C112 O134 1.240 . S
C112 O135 1.264 . S
O113 Mn108 2.095 . S
O113 C122 1.250 1_554 S
O114 Mn109 2.121 . S
O114 C122 1.258 1_554 S
C115 N116 1.326 . S
C115 C119 1.460 . S
C115 H121 0.929 . S
N116 Mn109 2.257 . S
N116 C115 1.326 . S
N116 C120 1.362 . S
C117 C118 1.258 . S
C117 C120 1.431 . S
C117 C137 1.449 . S
C118 C117 1.258 . S
C118 C119 1.477 . S
C118 H138 0.931 . S
C119 C115 1.460 . S
C119 C118 1.477 . S
C119 H139 0.930 . S
C120 N116 1.362 . S
C120 C117 1.431 . S
C120 C130 1.476 . S
H121 C115 0.929 . S
C122 O113 1.250 1_556 S
C122 O114 1.258 1_556 S
O123 Mn108 2.162 . S
O123 C111 1.281 . S
O124 Mn108 2.297 . S
O124 C111 1.236 . S
N125 Mn109 2.282 . S
N125 C126 1.328 . S
N125 C130 1.318 . S
C126 N125 1.328 . S
C126 C127 1.457 . S
C126 H131 0.929 . S
C127 C126 1.457 . S
C127 C128 1.291 . S
C127 H140 0.931 . S
C128 C127 1.291 . S
C128 C129 1.373 . S
C128 H141 0.929 . S
C129 C128 1.373 . S
C129 C130 1.396 . S
C129 C136 1.403 . S
C130 C120 1.476 . S
C130 N125 1.318 . S
C130 C129 1.396 . S
H131 C126 0.929 . S
O132 Mn108 2.385 . S
O132 C110 1.234 . S
O133 Mn108 2.209 . S
O133 Mn109 2.215 . S
O133 C110 1.283 . S
O134 Mn108 2.094 . S
O134 C112 1.240 . S
O135 Mn109 2.117 . S
O135 C112 1.264 . S
C136 C129 1.403 . S
C136 C137 1.399 . S
C136 H142 0.929 . S
C137 C117 1.449 . S
C137 C136 1.399 . S
C137 H143 0.930 . S
H138 C118 0.931 . S
H139 C119 0.930 . S
H140 C127 0.931 . S
H141 C128 0.929 . S
H142 C136 0.929 . S
H143 C137 0.930 . S
Mn144 O149 2.095 . S
Mn144 O159 2.162 1_554 S
Mn144 O160 2.297 1_554 S
Mn144 O168 2.385 1_554 S
Mn144 O169 2.209 1_554 S
Mn144 O170 2.094 . S
Mn145 O150 2.121 . S
Mn145 N152 2.257 . S
Mn145 N161 2.282 1_554 S
Mn145 O169 2.215 1_554 S
Mn145 O171 2.117 . S
C146 O168 1.234 . S
C146 O169 1.283 . S
C147 O159 1.281 . S
C147 O160 1.236 . S
C148 O170 1.240 . S
C148 O171 1.264 . S
O149 Mn144 2.095 . S
O149 C158 1.250 . S
O150 Mn145 2.121 . S
O150 C158 1.258 . S
C151 N152 1.326 . S
C151 C155 1.460 . S
C151 H157 0.929 . S
N152 Mn145 2.257 . S
N152 C151 1.326 . S
N152 C156 1.362 1_554 S
C153 C154 1.258 . S
C153 C156 1.431 . S
C153 C173 1.449 . S
C154 C153 1.258 . S
C154 C155 1.477 1_556 S
C154 H174 0.931 . S
C155 C151 1.460 . S
C155 C154 1.477 1_554 S
C155 H175 0.930 . S
C156 N152 1.362 1_556 S
C156 C153 1.431 . S
C156 C166 1.476 . S
H157 C151 0.929 . S
C158 O149 1.250 . S
C158 O150 1.258 . S
O159 Mn144 2.162 1_556 S
O159 C147 1.281 . S
O160 Mn144 2.297 1_556 S
O160 C147 1.236 . S
N161 Mn145 2.282 1_556 S
N161 C162 1.328 . S
N161 C166 1.318 . S
C162 N161 1.328 . S
C162 C163 1.457 . S
C162 H167 0.929 . S
C163 C162 1.457 . S
C163 C164 1.291 . S
C163 H176 0.931 . S
C164 C163 1.291 . S
C164 C165 1.373 . S
C164 H177 0.929 . S
C165 C164 1.373 . S
C165 C166 1.396 . S
C165 C172 1.403 . S
C166 C156 1.476 . S
C166 N161 1.318 . S
C166 C165 1.396 . S
H167 C162 0.929 . S
O168 Mn144 2.385 1_556 S
O168 C146 1.234 . S
O169 Mn144 2.209 1_556 S
O169 Mn145 2.215 1_556 S
O169 C146 1.283 . S
O170 Mn144 2.094 . S
O170 C148 1.240 . S
O171 Mn145 2.117 . S
O171 C148 1.264 . S
C172 C165 1.403 . S
C172 C173 1.399 . S
C172 H178 0.929 . S
C173 C153 1.449 . S
C173 C172 1.399 . S
C173 H179 0.930 . S
H174 C154 0.931 . S
H175 C155 0.930 . S
H176 C163 0.931 . S
H177 C164 0.929 . S
H178 C172 0.929 . S
H179 C173 0.930 . S
Mn180 O185 2.095 . S
Mn180 O195 2.162 . S
Mn180 O196 2.297 . S
Mn180 O204 2.385 . S
Mn180 O205 2.209 . S
Mn180 O206 2.094 . S
Mn181 O186 2.121 . S
Mn181 N188 2.257 . S
Mn181 N197 2.282 . S
Mn181 O205 2.215 . S
Mn181 O207 2.117 . S
C182 O204 1.234 . S
C182 O205 1.283 . S
C183 O195 1.281 . S
C183 O196 1.236 . S
C184 O206 1.240 . S
C184 O207 1.264 . S
O185 Mn180 2.095 . S
O185 C194 1.250 . S
O186 Mn181 2.121 . S
O186 C194 1.258 . S
C187 N188 1.326 . S
C187 C191 1.460 . S
C187 H193 0.929 . S
N188 Mn181 2.257 . S
N188 C187 1.326 . S
N188 C192 1.362 . S
C189 C190 1.258 . S
C189 C192 1.431 . S
C189 C209 1.449 . S
C190 C189 1.258 . S
C190 C191 1.477 . S
C190 H210 0.931 . S
C191 C187 1.460 . S
C191 C190 1.477 . S
C191 H211 0.930 . S
C192 N188 1.362 . S
C192 C189 1.431 . S
C192 C202 1.476 . S
H193 C187 0.929 . S
C194 O185 1.250 . S
C194 O186 1.258 . S
O195 Mn180 2.162 . S
O195 C183 1.281 . S
O196 Mn180 2.297 . S
O196 C183 1.236 . S
N197 Mn181 2.282 . S
N197 C198 1.328 . S
N197 C202 1.318 . S
C198 N197 1.328 . S
C198 C199 1.457 . S
C198 H203 0.929 . S
C199 C198 1.457 . S
C199 C200 1.291 . S
C199 H212 0.931 . S
C200 C199 1.291 . S
C200 C201 1.373 . S
C200 H213 0.929 . S
C201 C200 1.373 . S
C201 C202 1.396 . S
C201 C208 1.403 . S
C202 C192 1.476 . S
C202 N197 1.318 . S
C202 C201 1.396 . S
H203 C198 0.929 . S
O204 Mn180 2.385 . S
O204 C182 1.234 . S
O205 Mn180 2.209 . S
O205 Mn181 2.215 . S
O205 C182 1.283 . S
O206 Mn180 2.094 . S
O206 C184 1.240 . S
O207 Mn181 2.117 . S
O207 C184 1.264 . S
C208 C201 1.403 . S
C208 C209 1.399 . S
C208 H214 0.929 . S
C209 C189 1.449 . S
C209 C208 1.399 . S
C209 H215 0.930 . S
H210 C190 0.931 . S
H211 C191 0.930 . S
H212 C199 0.931 . S
H213 C200 0.929 . S
H214 C208 0.929 . S
H215 C209 0.930 . S
Mn216 O221 2.095 . S
Mn216 O231 2.162 . S
Mn216 O232 2.297 . S
Mn216 O240 2.385 . S
Mn216 O241 2.209 . S
Mn216 O242 2.094 . S
Mn217 O222 2.121 . S
Mn217 N224 2.257 . S
Mn217 N233 2.282 . S
Mn217 O241 2.215 . S
Mn217 O243 2.117 . S
C218 O240 1.234 . S
C218 O241 1.283 . S
C219 O231 1.281 . S
C219 O232 1.236 . S
C220 O242 1.240 . S
C220 O243 1.264 . S
O221 Mn216 2.095 . S
O221 C230 1.250 . S
O222 Mn217 2.121 . S
O222 C230 1.258 . S
C223 N224 1.326 . S
C223 C227 1.460 . S
C223 H229 0.929 . S
N224 Mn217 2.257 . S
N224 C223 1.326 . S
N224 C228 1.362 . S
C225 C226 1.258 . S
C225 C228 1.431 . S
C225 C245 1.449 . S
C226 C225 1.258 . S
C226 C227 1.477 . S
C226 H246 0.931 . S
C227 C223 1.460 . S
C227 C226 1.477 . S
C227 H247 0.930 . S
C228 N224 1.362 . S
C228 C225 1.431 . S
C228 C238 1.476 . S
H229 C223 0.929 . S
C230 O221 1.250 . S
C230 O222 1.258 . S
O231 Mn216 2.162 . S
O231 C219 1.281 . S
O232 Mn216 2.297 . S
O232 C219 1.236 . S
N233 Mn217 2.282 . S
N233 C234 1.328 . S
N233 C238 1.318 . S
C234 N233 1.328 . S
C234 C235 1.457 . S
C234 H239 0.929 . S
C235 C234 1.457 . S
C235 C236 1.291 . S
C235 H248 0.931 . S
C236 C235 1.291 . S
C236 C237 1.373 . S
C236 H249 0.929 . S
C237 C236 1.373 . S
C237 C238 1.396 . S
C237 C244 1.403 . S
C238 C228 1.476 . S
C238 N233 1.318 . S
C238 C237 1.396 . S
H239 C234 0.929 . S
O240 Mn216 2.385 . S
O240 C218 1.234 . S
O241 Mn216 2.209 . S
O241 Mn217 2.215 . S
O241 C218 1.283 . S
O242 Mn216 2.094 . S
O242 C220 1.240 . S
O243 Mn217 2.117 . S
O243 C220 1.264 . S
C244 C237 1.403 . S
C244 C245 1.399 . S
C244 H250 0.929 . S
C245 C225 1.449 . S
C245 C244 1.399 . S
C245 H251 0.930 . S
H246 C226 0.931 . S
H247 C227 0.930 . S
H248 C235 0.931 . S
H249 C236 0.929 . S
H250 C244 0.929 . S
H251 C245 0.930 . S
Mn252 O257 2.095 . S
Mn252 O267 2.162 . S
Mn252 O268 2.297 . S
Mn252 O276 2.385 . S
Mn252 O277 2.209 . S
Mn252 O278 2.094 . S
Mn253 O258 2.121 . S
Mn253 N260 2.257 . S
Mn253 N269 2.282 . S
Mn253 O277 2.215 . S
Mn253 O279 2.117 . S
C254 O276 1.234 . S
C254 O277 1.283 . S
C255 O267 1.281 . S
C255 O268 1.236 . S
C256 O278 1.240 . S
C256 O279 1.264 . S
O257 Mn252 2.095 . S
O257 C266 1.250 . S
O258 Mn253 2.121 . S
O258 C266 1.258 . S
C259 N260 1.326 . S
C259 C263 1.460 . S
C259 H265 0.929 . S
N260 Mn253 2.257 . S
N260 C259 1.326 . S
N260 C264 1.362 . S
C261 C262 1.258 . S
C261 C264 1.431 . S
C261 C281 1.449 . S
C262 C261 1.258 . S
C262 C263 1.477 . S
C262 H282 0.931 . S
C263 C259 1.460 . S
C263 C262 1.477 . S
C263 H283 0.930 . S
C264 N260 1.362 . S
C264 C261 1.431 . S
C264 C274 1.476 . S
H265 C259 0.929 . S
C266 O257 1.250 . S
C266 O258 1.258 . S
O267 Mn252 2.162 . S
O267 C255 1.281 . S
O268 Mn252 2.297 . S
O268 C255 1.236 . S
N269 Mn253 2.282 . S
N269 C270 1.328 . S
N269 C274 1.318 . S
C270 N269 1.328 . S
C270 C271 1.457 . S
C270 H275 0.929 . S
C271 C270 1.457 . S
C271 C272 1.291 . S
C271 H284 0.931 . S
C272 C271 1.291 . S
C272 C273 1.373 . S
C272 H285 0.929 . S
C273 C272 1.373 . S
C273 C274 1.396 . S
C273 C280 1.403 . S
C274 C264 1.476 . S
C274 N269 1.318 . S
C274 C273 1.396 . S
H275 C270 0.929 . S
O276 Mn252 2.385 . S
O276 C254 1.234 . S
O277 Mn252 2.209 . S
O277 Mn253 2.215 . S
O277 C254 1.283 . S
O278 Mn252 2.094 . S
O278 C256 1.240 . S
O279 Mn253 2.117 . S
O279 C256 1.264 . S
C280 C273 1.403 . S
C280 C281 1.399 . S
C280 H286 0.929 . S
C281 C261 1.449 . S
C281 C280 1.399 . S
C281 H287 0.930 . S
H282 C262 0.931 . S
H283 C263 0.930 . S
H284 C271 0.931 . S
H285 C272 0.929 . S
H286 C280 0.929 . S
H287 C281 0.930 . S
Mn288 O293 2.095 . S
Mn288 O303 2.162 . S
Mn288 O304 2.297 . S
Mn288 O312 2.385 . S
Mn288 O313 2.209 . S
Mn288 O314 2.094 . S
Mn289 O294 2.121 . S
Mn289 N296 2.257 . S
Mn289 N305 2.282 . S
Mn289 O313 2.215 . S
Mn289 O315 2.117 . S
C290 O312 1.234 . S
C290 O313 1.283 . S
C291 O303 1.281 . S
C291 O304 1.236 . S
C292 O314 1.240 . S
C292 O315 1.264 . S
O293 Mn288 2.095 . S
O293 C302 1.250 . S
O294 Mn289 2.121 . S
O294 C302 1.258 . S
C295 N296 1.326 . S
C295 C299 1.460 . S
C295 H301 0.929 . S
N296 Mn289 2.257 . S
N296 C295 1.326 . S
N296 C300 1.362 . S
C297 C298 1.258 . S
C297 C300 1.431 . S
C297 C317 1.449 . S
C298 C297 1.258 . S
C298 C299 1.477 . S
C298 H318 0.931 . S
C299 C295 1.460 . S
C299 C298 1.477 . S
C299 H319 0.930 . S
C300 N296 1.362 . S
C300 C297 1.431 . S
C300 C310 1.476 . S
H301 C295 0.929 . S
C302 O293 1.250 . S
C302 O294 1.258 . S
O303 Mn288 2.162 . S
O303 C291 1.281 . S
O304 Mn288 2.297 . S
O304 C291 1.236 . S
N305 Mn289 2.282 . S
N305 C306 1.328 . S
N305 C310 1.318 . S
C306 N305 1.328 . S
C306 C307 1.457 . S
C306 H311 0.929 . S
C307 C306 1.457 . S
C307 C308 1.291 . S
C307 H320 0.931 . S
C308 C307 1.291 . S
C308 C309 1.373 . S
C308 H321 0.929 . S
C309 C308 1.373 . S
C309 C310 1.396 . S
C309 C316 1.403 . S
C310 C300 1.476 . S
C310 N305 1.318 . S
C310 C309 1.396 . S
H311 C306 0.929 . S
O312 Mn288 2.385 . S
O312 C290 1.234 . S
O313 Mn288 2.209 . S
O313 Mn289 2.215 . S
O313 C290 1.283 . S
O314 Mn288 2.094 . S
O314 C292 1.240 . S
O315 Mn289 2.117 . S
O315 C292 1.264 . S
C316 C309 1.403 . S
C316 C317 1.399 . S
C316 H322 0.929 . S
C317 C297 1.449 . S
C317 C316 1.399 . S
C317 H323 0.930 . S
H318 C298 0.931 . S
H319 C299 0.930 . S
H320 C307 0.931 . S
H321 C308 0.929 . S
H322 C316 0.929 . S
H323 C317 0.930 . S
Mn324 O329 2.095 . S
Mn324 O339 2.162 . S
Mn324 O340 2.297 . S
Mn324 O348 2.385 . S
Mn324 O349 2.209 . S
Mn324 O350 2.094 . S
Mn325 O330 2.121 . S
Mn325 N332 2.257 . S
Mn325 N341 2.282 . S
Mn325 O349 2.215 . S
Mn325 O351 2.117 . S
C326 O348 1.234 . S
C326 O349 1.283 . S
C327 O339 1.281 . S
C327 O340 1.236 . S
C328 O350 1.240 . S
C328 O351 1.264 . S
O329 Mn324 2.095 . S
O329 C338 1.250 1_554 S
O330 Mn325 2.121 . S
O330 C338 1.258 1_554 S
C331 N332 1.326 . S
C331 C335 1.460 . S
C331 H337 0.929 . S
N332 Mn325 2.257 . S
N332 C331 1.326 . S
N332 C336 1.362 . S
C333 C334 1.258 . S
C333 C336 1.431 . S
C333 C353 1.449 . S
C334 C333 1.258 . S
C334 C335 1.477 . S
C334 H354 0.931 . S
C335 C331 1.460 . S
C335 C334 1.477 . S
C335 H355 0.930 . S
C336 N332 1.362 . S
C336 C333 1.431 . S
C336 C346 1.476 . S
H337 C331 0.929 . S
C338 O329 1.250 1_556 S
C338 O330 1.258 1_556 S
O339 Mn324 2.162 . S
O339 C327 1.281 . S
O340 Mn324 2.297 . S
O340 C327 1.236 . S
N341 Mn325 2.282 . S
N341 C342 1.328 . S
N341 C346 1.318 . S
C342 N341 1.328 . S
C342 C343 1.457 . S
C342 H347 0.929 . S
C343 C342 1.457 . S
C343 C344 1.291 . S
C343 H356 0.931 . S
C344 C343 1.291 . S
C344 C345 1.373 . S
C344 H357 0.929 . S
C345 C344 1.373 . S
C345 C346 1.396 . S
C345 C352 1.403 . S
C346 C336 1.476 . S
C346 N341 1.318 . S
C346 C345 1.396 . S
H347 C342 0.929 . S
O348 Mn324 2.385 . S
O348 C326 1.234 . S
O349 Mn324 2.209 . S
O349 Mn325 2.215 . S
O349 C326 1.283 . S
O350 Mn324 2.094 . S
O350 C328 1.240 . S
O351 Mn325 2.117 . S
O351 C328 1.264 . S
C352 C345 1.403 . S
C352 C353 1.399 . S
C352 H358 0.929 . S
C353 C333 1.449 . S
C353 C352 1.399 . S
C353 H359 0.930 . S
H354 C334 0.931 . S
H355 C335 0.930 . S
H356 C343 0.931 . S
H357 C344 0.929 . S
H358 C352 0.929 . S
H359 C353 0.930 . S
Mn360 O365 2.095 . S
Mn360 O375 2.162 . S
Mn360 O376 2.297 . S
Mn360 O384 2.385 . S
Mn360 O385 2.209 . S
Mn360 O386 2.094 . S
Mn361 O366 2.121 . S
Mn361 N368 2.257 . S
Mn361 N377 2.282 . S
Mn361 O385 2.215 . S
Mn361 O387 2.117 . S
C362 O384 1.234 . S
C362 O385 1.283 . S
C363 O375 1.281 . S
C363 O376 1.236 . S
C364 O386 1.240 . S
C364 O387 1.264 . S
O365 Mn360 2.095 . S
O365 C374 1.250 . S
O366 Mn361 2.121 . S
O366 C374 1.258 . S
C367 N368 1.326 . S
C367 C371 1.460 . S
C367 H373 0.929 . S
N368 Mn361 2.257 . S
N368 C367 1.326 . S
N368 C372 1.362 . S
C369 C370 1.258 . S
C369 C372 1.431 . S
C369 C389 1.449 . S
C370 C369 1.258 . S
C370 C371 1.477 . S
C370 H390 0.931 . S
C371 C367 1.460 . S
C371 C370 1.477 . S
C371 H391 0.930 . S
C372 N368 1.362 . S
C372 C369 1.431 . S
C372 C382 1.476 . S
H373 C367 0.929 . S
C374 O365 1.250 . S
C374 O366 1.258 . S
O375 Mn360 2.162 . S
O375 C363 1.281 . S
O376 Mn360 2.297 . S
O376 C363 1.236 . S
N377 Mn361 2.282 . S
N377 C378 1.328 . S
N377 C382 1.318 . S
C378 N377 1.328 . S
C378 C379 1.457 . S
C378 H383 0.929 . S
C379 C378 1.457 . S
C379 C380 1.291 . S
C379 H392 0.931 . S
C380 C379 1.291 . S
C380 C381 1.373 . S
C380 H393 0.929 . S
C381 C380 1.373 . S
C381 C382 1.396 . S
C381 C388 1.403 . S
C382 C372 1.476 . S
C382 N377 1.318 . S
C382 C381 1.396 . S
H383 C378 0.929 . S
O384 Mn360 2.385 . S
O384 C362 1.234 . S
O385 Mn360 2.209 . S
O385 Mn361 2.215 . S
O385 C362 1.283 . S
O386 Mn360 2.094 . S
O386 C364 1.240 . S
O387 Mn361 2.117 . S
O387 C364 1.264 . S
C388 C381 1.403 . S
C388 C389 1.399 . S
C388 H394 0.929 . S
C389 C369 1.449 . S
C389 C388 1.399 . S
C389 H395 0.930 . S
H390 C370 0.931 . S
H391 C371 0.930 . S
H392 C379 0.931 . S
H393 C380 0.929 . S
H394 C388 0.929 . S
H395 C389 0.930 . S
Mn396 O401 2.095 . S
Mn396 O411 2.162 . S
Mn396 O412 2.297 . S
Mn396 O420 2.385 . S
Mn396 O421 2.209 . S
Mn396 O422 2.094 . S
Mn397 O402 2.121 . S
Mn397 N404 2.257 . S
Mn397 N413 2.282 . S
Mn397 O421 2.215 . S
Mn397 O423 2.117 . S
C398 O420 1.234 . S
C398 O421 1.283 . S
C399 O411 1.281 . S
C399 O412 1.236 . S
C400 O422 1.240 . S
C400 O423 1.264 . S
O401 Mn396 2.095 . S
O401 C410 1.250 . S
O402 Mn397 2.121 . S
O402 C410 1.258 . S
C403 N404 1.326 . S
C403 C407 1.460 . S
C403 H409 0.929 . S
N404 Mn397 2.257 . S
N404 C403 1.326 . S
N404 C408 1.362 . S
C405 C406 1.258 . S
C405 C408 1.431 . S
C405 C425 1.449 . S
C406 C405 1.258 . S
C406 C407 1.477 . S
C406 H426 0.931 . S
C407 C403 1.460 . S
C407 C406 1.477 . S
C407 H427 0.930 . S
C408 N404 1.362 . S
C408 C405 1.431 . S
C408 C418 1.476 . S
H409 C403 0.929 . S
C410 O401 1.250 . S
C410 O402 1.258 . S
O411 Mn396 2.162 . S
O411 C399 1.281 . S
O412 Mn396 2.297 . S
O412 C399 1.236 . S
N413 Mn397 2.282 . S
N413 C414 1.328 . S
N413 C418 1.318 . S
C414 N413 1.328 . S
C414 C415 1.457 . S
C414 H419 0.929 . S
C415 C414 1.457 . S
C415 C416 1.291 . S
C415 H428 0.931 . S
C416 C415 1.291 . S
C416 C417 1.373 . S
C416 H429 0.929 . S
C417 C416 1.373 . S
C417 C418 1.396 . S
C417 C424 1.403 . S
C418 C408 1.476 . S
C418 N413 1.318 . S
C418 C417 1.396 . S
H419 C414 0.929 . S
O420 Mn396 2.385 . S
O420 C398 1.234 . S
O421 Mn396 2.209 . S
O421 Mn397 2.215 . S
O421 C398 1.283 . S
O422 Mn396 2.094 . S
O422 C400 1.240 . S
O423 Mn397 2.117 . S
O423 C400 1.264 . S
C424 C417 1.403 . S
C424 C425 1.399 . S
C424 H430 0.929 . S
C425 C405 1.449 . S
C425 C424 1.399 . S
C425 H431 0.930 . S
H426 C406 0.931 . S
H427 C407 0.930 . S
H428 C415 0.931 . S
H429 C416 0.929 . S
H430 C424 0.929 . S
H431 C425 0.930 . S
Mn432 O437 2.095 . S
Mn432 O447 2.162 . S
Mn432 O448 2.297 . S
Mn432 O456 2.385 . S
Mn432 O457 2.209 . S
Mn432 O458 2.094 . S
Mn433 O438 2.121 . S
Mn433 N440 2.257 . S
Mn433 N449 2.282 . S
Mn433 O457 2.215 . S
Mn433 O459 2.117 . S
C434 O456 1.234 . S
C434 O457 1.283 . S
C435 O447 1.281 . S
C435 O448 1.236 . S
C436 O458 1.240 . S
C436 O459 1.264 . S
O437 Mn432 2.095 . S
O437 C446 1.250 . S
O438 Mn433 2.121 . S
O438 C446 1.258 . S
C439 N440 1.326 . S
C439 C443 1.460 . S
C439 H445 0.929 . S
N440 Mn433 2.257 . S
N440 C439 1.326 . S
N440 C444 1.362 . S
C441 C442 1.258 . S
C441 C444 1.431 . S
C441 C461 1.449 . S
C442 C441 1.258 . S
C442 C443 1.477 . S
C442 H462 0.931 . S
C443 C439 1.460 . S
C443 C442 1.477 . S
C443 H463 0.930 . S
C444 N440 1.362 . S
C444 C441 1.431 . S
C444 C454 1.476 . S
H445 C439 0.929 . S
C446 O437 1.250 . S
C446 O438 1.258 . S
O447 Mn432 2.162 . S
O447 C435 1.281 . S
O448 Mn432 2.297 . S
O448 C435 1.236 . S
N449 Mn433 2.282 . S
N449 C450 1.328 . S
N449 C454 1.318 . S
C450 N449 1.328 . S
C450 C451 1.457 . S
C450 H455 0.929 . S
C451 C450 1.457 . S
C451 C452 1.291 . S
C451 H464 0.931 . S
C452 C451 1.291 . S
C452 C453 1.373 . S
C452 H465 0.929 . S
C453 C452 1.373 . S
C453 C454 1.396 . S
C453 C460 1.403 . S
C454 C444 1.476 . S
C454 N449 1.318 . S
C454 C453 1.396 . S
H455 C450 0.929 . S
O456 Mn432 2.385 . S
O456 C434 1.234 . S
O457 Mn432 2.209 . S
O457 Mn433 2.215 . S
O457 C434 1.283 . S
O458 Mn432 2.094 . S
O458 C436 1.240 . S
O459 Mn433 2.117 . S
O459 C436 1.264 . S
C460 C453 1.403 . S
C460 C461 1.399 . S
C460 H466 0.929 . S
C461 C441 1.449 . S
C461 C460 1.399 . S
C461 H467 0.930 . S
H462 C442 0.931 . S
H463 C443 0.930 . S
H464 C451 0.931 . S
H465 C452 0.929 . S
H466 C460 0.929 . S
H467 C461 0.930 . S
Mn468 O473 2.095 . S
Mn468 O483 2.162 . S
Mn468 O484 2.297 . S
Mn468 O492 2.385 . S
Mn468 O493 2.209 . S
Mn468 O494 2.094 . S
Mn469 O474 2.121 . S
Mn469 N476 2.257 . S
Mn469 N485 2.282 . S
Mn469 O493 2.215 . S
Mn469 O495 2.117 . S
C470 O492 1.234 . S
C470 O493 1.283 . S
C471 O483 1.281 . S
C471 O484 1.236 . S
C472 O494 1.240 . S
C472 O495 1.264 . S
O473 Mn468 2.095 . S
O473 C482 1.250 . S
O474 Mn469 2.121 . S
O474 C482 1.258 . S
C475 N476 1.326 . S
C475 C479 1.460 . S
C475 H481 0.929 . S
N476 Mn469 2.257 . S
N476 C475 1.326 . S
N476 C480 1.362 . S
C477 C478 1.258 . S
C477 C480 1.431 . S
C477 C497 1.449 . S
C478 C477 1.258 . S
C478 C479 1.477 . S
C478 H498 0.931 . S
C479 C475 1.460 . S
C479 C478 1.477 . S
C479 H499 0.930 . S
C480 N476 1.362 . S
C480 C477 1.431 . S
C480 C490 1.476 . S
H481 C475 0.929 . S
C482 O473 1.250 . S
C482 O474 1.258 . S
O483 Mn468 2.162 . S
O483 C471 1.281 . S
O484 Mn468 2.297 . S
O484 C471 1.236 . S
N485 Mn469 2.282 . S
N485 C486 1.328 . S
N485 C490 1.318 . S
C486 N485 1.328 . S
C486 C487 1.457 . S
C486 H491 0.929 . S
C487 C486 1.457 . S
C487 C488 1.291 . S
C487 H500 0.931 . S
C488 C487 1.291 . S
C488 C489 1.373 . S
C488 H501 0.929 . S
C489 C488 1.373 . S
C489 C490 1.396 . S
C489 C496 1.403 . S
C490 C480 1.476 . S
C490 N485 1.318 . S
C490 C489 1.396 . S
H491 C486 0.929 . S
O492 Mn468 2.385 . S
O492 C470 1.234 . S
O493 Mn468 2.209 . S
O493 Mn469 2.215 . S
O493 C470 1.283 . S
O494 Mn468 2.094 . S
O494 C472 1.240 . S
O495 Mn469 2.117 . S
O495 C472 1.264 . S
C496 C489 1.403 . S
C496 C497 1.399 . S
C496 H502 0.929 . S
C497 C477 1.449 . S
C497 C496 1.399 . S
C497 H503 0.930 . S
H498 C478 0.931 . S
H499 C479 0.930 . S
H500 C487 0.931 . S
H501 C488 0.929 . S
H502 C496 0.929 . S
H503 C497 0.930 . S
Mn504 O509 2.095 . S
Mn504 O519 2.162 1_554 S
Mn504 O520 2.297 1_554 S
Mn504 O528 2.385 1_554 S
Mn504 O529 2.209 1_554 S
Mn504 O530 2.094 . S
Mn505 O510 2.121 . S
Mn505 N512 2.257 . S
Mn505 N521 2.282 1_554 S
Mn505 O529 2.215 1_554 S
Mn505 O531 2.117 . S
C506 O528 1.234 . S
C506 O529 1.283 . S
C507 O519 1.281 . S
C507 O520 1.236 . S
C508 O530 1.240 . S
C508 O531 1.264 . S
O509 Mn504 2.095 . S
O509 C518 1.250 . S
O510 Mn505 2.121 . S
O510 C518 1.258 . S
C511 N512 1.326 . S
C511 C515 1.460 . S
C511 H517 0.929 . S
N512 Mn505 2.257 . S
N512 C511 1.326 . S
N512 C516 1.362 1_554 S
C513 C514 1.258 . S
C513 C516 1.431 . S
C513 C533 1.449 . S
C514 C513 1.258 . S
C514 C515 1.477 1_556 S
C514 H534 0.931 . S
C515 C511 1.460 . S
C515 C514 1.477 1_554 S
C515 H535 0.930 . S
C516 N512 1.362 1_556 S
C516 C513 1.431 . S
C516 C526 1.476 . S
H517 C511 0.929 . S
C518 O509 1.250 . S
C518 O510 1.258 . S
O519 Mn504 2.162 1_556 S
O519 C507 1.281 . S
O520 Mn504 2.297 1_556 S
O520 C507 1.236 . S
N521 Mn505 2.282 1_556 S
N521 C522 1.328 . S
N521 C526 1.318 . S
C522 N521 1.328 . S
C522 C523 1.457 . S
C522 H527 0.929 . S
C523 C522 1.457 . S
C523 C524 1.291 . S
C523 H536 0.931 . S
C524 C523 1.291 . S
C524 C525 1.373 . S
C524 H537 0.929 . S
C525 C524 1.373 . S
C525 C526 1.396 . S
C525 C532 1.403 . S
C526 C516 1.476 . S
C526 N521 1.318 . S
C526 C525 1.396 . S
H527 C522 0.929 . S
O528 Mn504 2.385 1_556 S
O528 C506 1.234 . S
O529 Mn504 2.209 1_556 S
O529 Mn505 2.215 1_556 S
O529 C506 1.283 . S
O530 Mn504 2.094 . S
O530 C508 1.240 . S
O531 Mn505 2.117 . S
O531 C508 1.264 . S
C532 C525 1.403 . S
C532 C533 1.399 . S
C532 H538 0.929 . S
C533 C513 1.449 . S
C533 C532 1.399 . S
C533 H539 0.930 . S
H534 C514 0.931 . S
H535 C515 0.930 . S
H536 C523 0.931 . S
H537 C524 0.929 . S
H538 C532 0.929 . S
H539 C533 0.930 . S
Mn540 O545 2.095 . S
Mn540 O555 2.162 . S
Mn540 O556 2.297 . S
Mn540 O564 2.385 . S
Mn540 O565 2.209 . S
Mn540 O566 2.094 . S
Mn541 O546 2.121 . S
Mn541 N548 2.257 . S
Mn541 N557 2.282 . S
Mn541 O565 2.215 . S
Mn541 O567 2.117 . S
C542 O564 1.234 . S
C542 O565 1.283 . S
C543 O555 1.281 . S
C543 O556 1.236 . S
C544 O566 1.240 . S
C544 O567 1.264 . S
O545 Mn540 2.095 . S
O545 C554 1.250 . S
O546 Mn541 2.121 . S
O546 C554 1.258 . S
C547 N548 1.326 . S
C547 C551 1.460 . S
C547 H553 0.929 . S
N548 Mn541 2.257 . S
N548 C547 1.326 . S
N548 C552 1.362 . S
C549 C550 1.258 . S
C549 C552 1.431 . S
C549 C569 1.449 . S
C550 C549 1.258 . S
C550 C551 1.477 . S
C550 H570 0.931 . S
C551 C547 1.460 . S
C551 C550 1.477 . S
C551 H571 0.930 . S
C552 N548 1.362 . S
C552 C549 1.431 . S
C552 C562 1.476 . S
H553 C547 0.929 . S
C554 O545 1.250 . S
C554 O546 1.258 . S
O555 Mn540 2.162 . S
O555 C543 1.281 . S
O556 Mn540 2.297 . S
O556 C543 1.236 . S
N557 Mn541 2.282 . S
N557 C558 1.328 . S
N557 C562 1.318 . S
C558 N557 1.328 . S
C558 C559 1.457 . S
C558 H563 0.929 . S
C559 C558 1.457 . S
C559 C560 1.291 . S
C559 H572 0.931 . S
C560 C559 1.291 . S
C560 C561 1.373 . S
C560 H573 0.929 . S
C561 C560 1.373 . S
C561 C562 1.396 . S
C561 C568 1.403 . S
C562 C552 1.476 . S
C562 N557 1.318 . S
C562 C561 1.396 . S
H563 C558 0.929 . S
O564 Mn540 2.385 . S
O564 C542 1.234 . S
O565 Mn540 2.209 . S
O565 Mn541 2.215 . S
O565 C542 1.283 . S
O566 Mn540 2.094 . S
O566 C544 1.240 . S
O567 Mn541 2.117 . S
O567 C544 1.264 . S
C568 C561 1.403 . S
C568 C569 1.399 . S
C568 H574 0.929 . S
C569 C549 1.449 . S
C569 C568 1.399 . S
C569 H575 0.930 . S
H570 C550 0.931 . S
H571 C551 0.930 . S
H572 C559 0.931 . S
H573 C560 0.929 . S
H574 C568 0.929 . S
H575 C569 0.930 . S
C576 C577 1.349 . S
C576 C578 1.327 . S
C576 H601 0.950 . S
C577 C576 1.349 . S
C577 C593 1.349 . S
C578 C576 1.327 . S
C578 C597 1.429 . S
C578 H602 0.950 . S
C579 C596 1.574 . S
C579 C598 1.368 . S
C579 H603 0.949 . S
H580 C584 0.949 . S
C581 C582 1.349 . S
C581 C583 1.327 . S
C581 H604 0.950 . S
C582 C581 1.349 . S
C582 C594 1.349 . S
C583 C581 1.327 . S
C583 C599 1.429 . S
C583 H605 0.950 . S
C584 H580 0.949 . S
C584 C592 1.574 . S
C584 C600 1.368 . S
H585 C593 0.950 . S
H586 C591 0.950 . S
H587 C592 0.949 . S
H588 C594 0.950 . S
H589 C595 0.950 . S
H590 C596 0.949 . S
C591 H586 0.950 . S
C591 C593 1.327 . S
C591 C597 1.429 . S
C592 C584 1.574 . S
C592 H587 0.949 . S
C592 C598 1.368 . S
C593 C577 1.349 . S
C593 H585 0.950 . S
C593 C591 1.327 . S
C594 C582 1.349 . S
C594 H588 0.950 . S
C594 C595 1.327 . S
C595 H589 0.950 . S
C595 C594 1.327 . S
C595 C599 1.429 . S
C596 C579 1.574 . S
C596 H590 0.949 . S
C596 C600 1.368 . S
C597 C578 1.429 . S
C597 C591 1.429 . S
C597 C598 1.523 . S
C598 C579 1.368 . S
C598 C592 1.368 . S
C598 C597 1.523 . S
C599 C583 1.429 . S
C599 C595 1.429 . S
C599 C600 1.523 . S
C600 C584 1.368 . S
C600 C596 1.368 . S
C600 C599 1.523 . S
H601 C576 0.950 . S
H602 C578 0.950 . S
H603 C579 0.949 . S
H604 C581 0.950 . S
H605 C583 0.950 . S
C606 C607 1.349 . S
C606 C608 1.327 . S
C606 H631 0.950 . S
C607 C606 1.349 . S
C607 C623 1.349 . S
C608 C606 1.327 . S
C608 C627 1.429 . S
C608 H632 0.950 . S
C609 C626 1.574 . S
C609 C628 1.368 . S
C609 H633 0.949 . S
H610 C614 0.949 . S
C611 C612 1.349 . S
C611 C613 1.327 . S
C611 H634 0.950 . S
C612 C611 1.349 . S
C612 C624 1.349 . S
C613 C611 1.327 . S
C613 C629 1.429 . S
C613 H635 0.950 . S
C614 H610 0.949 . S
C614 C622 1.574 . S
C614 C630 1.368 . S
H615 C623 0.950 . S
H616 C621 0.950 . S
H617 C622 0.949 . S
H618 C624 0.950 . S
H619 C625 0.950 . S
H620 C626 0.949 . S
C621 H616 0.950 . S
C621 C623 1.327 . S
C621 C627 1.429 . S
C622 C614 1.574 . S
C622 H617 0.949 . S
C622 C628 1.368 . S
C623 C607 1.349 . S
C623 H615 0.950 . S
C623 C621 1.327 . S
C624 C612 1.349 . S
C624 H618 0.950 . S
C624 C625 1.327 . S
C625 H619 0.950 . S
C625 C624 1.327 . S
C625 C629 1.429 . S
C626 C609 1.574 . S
C626 H620 0.949 . S
C626 C630 1.368 . S
C627 C608 1.429 . S
C627 C621 1.429 . S
C627 C628 1.523 . S
C628 C609 1.368 . S
C628 C622 1.368 . S
C628 C627 1.523 . S
C629 C613 1.429 . S
C629 C625 1.429 . S
C629 C630 1.523 . S
C630 C614 1.368 . S
C630 C626 1.368 . S
C630 C629 1.523 . S
H631 C606 0.950 . S
H632 C608 0.950 . S
H633 C609 0.949 . S
H634 C611 0.950 . S
H635 C613 0.950 . S
C636 C637 1.349 . S
C636 C638 1.327 . S
C636 H661 0.950 . S
C637 C636 1.349 . S
C637 C653 1.349 . S
C638 C636 1.327 . S
C638 C657 1.429 . S
C638 H662 0.950 . S
C639 C656 1.574 . S
C639 C658 1.368 . S
C639 H663 0.949 . S
H640 C644 0.949 . S
C641 C642 1.349 . S
C641 C643 1.327 . S
C641 H664 0.950 1_556 S
C642 C641 1.349 . S
C642 C654 1.349 . S
C643 C641 1.327 . S
C643 C659 1.429 . S
C643 H665 0.950 . S
C644 H640 0.949 . S
C644 C652 1.574 . S
C644 C660 1.368 . S
H645 C653 0.950 . S
H646 C651 0.950 . S
H647 C652 0.949 . S
H648 C654 0.950 . S
H649 C655 0.950 . S
H650 C656 0.949 . S
C651 H646 0.950 . S
C651 C653 1.327 . S
C651 C657 1.429 . S
C652 C644 1.574 . S
C652 H647 0.949 . S
C652 C658 1.368 . S
C653 C637 1.349 . S
C653 H645 0.950 . S
C653 C651 1.327 . S
C654 C642 1.349 . S
C654 H648 0.950 . S
C654 C655 1.327 . S
C655 H649 0.950 . S
C655 C654 1.327 . S
C655 C659 1.429 . S
C656 C639 1.574 . S
C656 H650 0.949 . S
C656 C660 1.368 . S
C657 C638 1.429 . S
C657 C651 1.429 . S
C657 C658 1.523 . S
C658 C639 1.368 . S
C658 C652 1.368 . S
C658 C657 1.523 . S
C659 C643 1.429 . S
C659 C655 1.429 . S
C659 C660 1.523 . S
C660 C644 1.368 . S
C660 C656 1.368 . S
C660 C659 1.523 . S
H661 C636 0.950 . S
H662 C638 0.950 . S
H663 C639 0.949 . S
H664 C641 0.950 1_554 S
H665 C643 0.950 . S
C666 C667 1.349 . S
C666 C668 1.327 . S
C666 H691 0.950 . S
C667 C666 1.349 . S
C667 C683 1.349 . S
C668 C666 1.327 . S
C668 C687 1.429 . S
C668 H692 0.950 . S
C669 C686 1.574 . S
C669 C688 1.368 . S
C669 H693 0.949 . S
H670 C674 0.949 . S
C671 C672 1.349 . S
C671 C673 1.327 . S
C671 H694 0.950 . S
C672 C671 1.349 . S
C672 C684 1.349 . S
C673 C671 1.327 . S
C673 C689 1.429 . S
C673 H695 0.950 . S
C674 H670 0.949 . S
C674 C682 1.574 . S
C674 C690 1.368 . S
H675 C683 0.950 . S
H676 C681 0.950 . S
H677 C682 0.949 . S
H678 C684 0.950 . S
H679 C685 0.950 . S
H680 C686 0.949 . S
C681 H676 0.950 . S
C681 C683 1.327 . S
C681 C687 1.429 . S
C682 C674 1.574 . S
C682 H677 0.949 . S
C682 C688 1.368 . S
C683 C667 1.349 . S
C683 H675 0.950 . S
C683 C681 1.327 . S
C684 C672 1.349 . S
C684 H678 0.950 . S
C684 C685 1.327 . S
C685 H679 0.950 . S
C685 C684 1.327 . S
C685 C689 1.429 . S
C686 C669 1.574 . S
C686 H680 0.949 . S
C686 C690 1.368 . S
C687 C668 1.429 . S
C687 C681 1.429 . S
C687 C688 1.523 . S
C688 C669 1.368 . S
C688 C682 1.368 . S
C688 C687 1.523 . S
C689 C673 1.429 . S
C689 C685 1.429 . S
C689 C690 1.523 . S
C690 C674 1.368 . S
C690 C686 1.368 . S
C690 C689 1.523 . S
H691 C666 0.950 . S
H692 C668 0.950 . S
H693 C669 0.949 . S
H694 C671 0.950 . S
H695 C673 0.950 . S
C696 C697 1.349 . S
C696 C698 1.327 . S
C696 H721 0.950 . S
C697 C696 1.349 . S
C697 C713 1.349 . S
C698 C696 1.327 . S
C698 C717 1.429 . S
C698 H722 0.950 . S
C699 C716 1.574 . S
C699 C718 1.368 . S
C699 H723 0.949 . S
H700 C704 0.949 . S
C701 C702 1.349 . S
C701 C703 1.327 . S
C701 H724 0.950 . S
C702 C701 1.349 . S
C702 C714 1.349 . S
C703 C701 1.327 . S
C703 C719 1.429 . S
C703 H725 0.950 . S
C704 H700 0.949 . S
C704 C712 1.574 . S
C704 C720 1.368 . S
H705 C713 0.950 . S
H706 C711 0.950 . S
H707 C712 0.949 . S
H708 C714 0.950 1_554 S
H709 C715 0.950 . S
H710 C716 0.949 . S
C711 H706 0.950 . S
C711 C713 1.327 . S
C711 C717 1.429 . S
C712 C704 1.574 . S
C712 H707 0.949 . S
C712 C718 1.368 . S
C713 C697 1.349 . S
C713 H705 0.950 . S
C713 C711 1.327 . S
C714 C702 1.349 . S
C714 H708 0.950 1_556 S
C714 C715 1.327 . S
C715 H709 0.950 . S
C715 C714 1.327 . S
C715 C719 1.429 . S
C716 C699 1.574 . S
C716 H710 0.949 . S
C716 C720 1.368 . S
C717 C698 1.429 . S
C717 C711 1.429 . S
C717 C718 1.523 . S
C718 C699 1.368 . S
C718 C712 1.368 . S
C718 C717 1.523 . S
C719 C703 1.429 . S
C719 C715 1.429 . S
C719 C720 1.523 . S
C720 C704 1.368 . S
C720 C716 1.368 . S
C720 C719 1.523 . S
H721 C696 0.950 . S
H722 C698 0.950 . S
H723 C699 0.949 . S
H724 C701 0.950 . S
H725 C703 0.950 . S
C726 C727 1.349 . S
C726 C728 1.327 . S
C726 H751 0.950 . S
C727 C726 1.349 . S
C727 C743 1.349 . S
C728 C726 1.327 . S
C728 C747 1.429 . S
C728 H752 0.950 . S
C729 C746 1.574 . S
C729 C748 1.368 . S
C729 H753 0.949 . S
H730 C734 0.949 . S
C731 C732 1.349 . S
C731 C733 1.327 . S
C731 H754 0.950 . S
C732 C731 1.349 . S
C732 C744 1.349 . S
C733 C731 1.327 . S
C733 C749 1.429 . S
C733 H755 0.950 . S
C734 H730 0.949 . S
C734 C742 1.574 . S
C734 C750 1.368 . S
H735 C743 0.950 . S
H736 C741 0.950 . S
H737 C742 0.949 . S
H738 C744 0.950 . S
H739 C745 0.950 . S
H740 C746 0.949 . S
C741 H736 0.950 . S
C741 C743 1.327 . S
C741 C747 1.429 . S
C742 C734 1.574 . S
C742 H737 0.949 . S
C742 C748 1.368 . S
C743 C727 1.349 . S
C743 H735 0.950 . S
C743 C741 1.327 . S
C744 C732 1.349 . S
C744 H738 0.950 . S
C744 C745 1.327 . S
C745 H739 0.950 . S
C745 C744 1.327 . S
C745 C749 1.429 . S
C746 C729 1.574 . S
C746 H740 0.949 . S
C746 C750 1.368 . S
C747 C728 1.429 . S
C747 C741 1.429 . S
C747 C748 1.523 . S
C748 C729 1.368 . S
C748 C742 1.368 . S
C748 C747 1.523 . S
C749 C733 1.429 . S
C749 C745 1.429 . S
C749 C750 1.523 . S
C750 C734 1.368 . S
C750 C746 1.368 . S
C750 C749 1.523 . S
H751 C726 0.950 . S
H752 C728 0.950 . S
H753 C729 0.949 . S
H754 C731 0.950 . S
H755 C733 0.950 . S
C756 C757 1.349 . S
C756 C758 1.327 . S
C756 H781 0.950 . S
C757 C756 1.349 . S
C757 C773 1.349 . S
C758 C756 1.327 . S
C758 C777 1.429 . S
C758 H782 0.950 . S
C759 C776 1.574 . S
C759 C778 1.368 . S
C759 H783 0.949 . S
H760 C764 0.949 . S
C761 C762 1.349 . S
C761 C763 1.327 . S
C761 H784 0.950 . S
C762 C761 1.349 . S
C762 C774 1.349 . S
C763 C761 1.327 . S
C763 C779 1.429 . S
C763 H785 0.950 . S
C764 H760 0.949 . S
C764 C772 1.574 . S
C764 C780 1.368 . S
H765 C773 0.950 . S
H766 C771 0.950 . S
H767 C772 0.949 . S
H768 C774 0.950 . S
H769 C775 0.950 . S
H770 C776 0.949 . S
C771 H766 0.950 . S
C771 C773 1.327 . S
C771 C777 1.429 . S
C772 C764 1.574 . S
C772 H767 0.949 . S
C772 C778 1.368 . S
C773 C757 1.349 . S
C773 H765 0.950 . S
C773 C771 1.327 . S
C774 C762 1.349 . S
C774 H768 0.950 . S
C774 C775 1.327 . S
C775 H769 0.950 . S
C775 C774 1.327 . S
C775 C779 1.429 . S
C776 C759 1.574 . S
C776 H770 0.949 . S
C776 C780 1.368 . S
C777 C758 1.429 . S
C777 C771 1.429 . S
C777 C778 1.523 . S
C778 C759 1.368 . S
C778 C772 1.368 . S
C778 C777 1.523 . S
C779 C763 1.429 . S
C779 C775 1.429 . S
C779 C780 1.523 . S
C780 C764 1.368 . S
C780 C776 1.368 . S
C780 C779 1.523 . S
H781 C756 0.950 . S
H782 C758 0.950 . S
H783 C759 0.949 . S
H784 C761 0.950 . S
H785 C763 0.950 . S
C786 C787 1.349 . S
C786 C788 1.327 . S
C786 H811 0.950 . S
C787 C786 1.349 . S
C787 C803 1.349 . S
C788 C786 1.327 . S
C788 C807 1.429 . S
C788 H812 0.950 . S
C789 C806 1.574 . S
C789 C808 1.368 . S
C789 H813 0.949 . S
H790 C794 0.949 . S
C791 C792 1.349 . S
C791 C793 1.327 . S
C791 H814 0.950 . S
C792 C791 1.349 . S
C792 C804 1.349 . S
C793 C791 1.327 . S
C793 C809 1.429 . S
C793 H815 0.950 . S
C794 H790 0.949 . S
C794 C802 1.574 . S
C794 C810 1.368 . S
H795 C803 0.950 . S
H796 C801 0.950 . S
H797 C802 0.949 . S
H798 C804 0.950 . S
H799 C805 0.950 . S
H800 C806 0.949 . S
C801 H796 0.950 . S
C801 C803 1.327 . S
C801 C807 1.429 . S
C802 C794 1.574 . S
C802 H797 0.949 . S
C802 C808 1.368 . S
C803 C787 1.349 . S
C803 H795 0.950 . S
C803 C801 1.327 . S
C804 C792 1.349 . S
C804 H798 0.950 . S
C804 C805 1.327 . S
C805 H799 0.950 . S
C805 C804 1.327 . S
C805 C809 1.429 . S
C806 C789 1.574 . S
C806 H800 0.949 . S
C806 C810 1.368 . S
C807 C788 1.429 . S
C807 C801 1.429 . S
C807 C808 1.523 . S
C808 C789 1.368 . S
C808 C802 1.368 . S
C808 C807 1.523 . S
C809 C793 1.429 . S
C809 C805 1.429 . S
C809 C810 1.523 . S
C810 C794 1.368 . S
C810 C806 1.368 . S
C810 C809 1.523 . S
H811 C786 0.950 . S
H812 C788 0.950 . S
H813 C789 0.949 . S
H814 C791 0.950 . S
H815 C793 0.950 . S
C816 C817 1.349 . S
C816 C818 1.327 . S
C816 H841 0.950 . S
C817 C816 1.349 . S
C817 C833 1.349 . S
C818 C816 1.327 . S
C818 C837 1.429 . S
C818 H842 0.950 . S
C819 C836 1.574 1_455 S
C819 C838 1.368 1_565 S
C819 H843 0.949 . S
H820 C824 0.949 . S
C821 C822 1.349 . S
C821 C823 1.327 . S
C821 H844 0.950 . S
C822 C821 1.349 . S
C822 C834 1.349 . S
C823 C821 1.327 . S
C823 C839 1.429 . S
C823 H845 0.950 . S
C824 H820 0.949 . S
C824 C832 1.574 1_655 S
C824 C840 1.368 1_545 S
H825 C833 0.950 . S
H826 C831 0.950 . S
H827 C832 0.949 . S
H828 C834 0.950 . S
H829 C835 0.950 . S
H830 C836 0.949 . S
C831 H826 0.950 . S
C831 C833 1.327 . S
C831 C837 1.429 . S
C832 C824 1.574 1_455 S
C832 H827 0.949 . S
C832 C838 1.368 . S
C833 C817 1.349 . S
C833 H825 0.950 . S
C833 C831 1.327 . S
C834 C822 1.349 . S
C834 H828 0.950 . S
C834 C835 1.327 . S
C835 H829 0.950 . S
C835 C834 1.327 . S
C835 C839 1.429 . S
C836 C819 1.574 1_655 S
C836 H830 0.949 . S
C836 C840 1.368 . S
C837 C818 1.429 . S
C837 C831 1.429 . S
C837 C838 1.523 . S
C838 C819 1.368 1_545 S
C838 C832 1.368 . S
C838 C837 1.523 . S
C839 C823 1.429 . S
C839 C835 1.429 . S
C839 C840 1.523 . S
C840 C824 1.368 1_565 S
C840 C836 1.368 . S
C840 C839 1.523 . S
H841 C816 0.950 . S
H842 C818 0.950 . S
H843 C819 0.949 . S
H844 C821 0.950 . S
H845 C823 0.950 . S
C846 C847 1.349 . S
C846 C848 1.327 . S
C846 H871 0.950 . S
C847 C846 1.349 . S
C847 C863 1.349 . S
C848 C846 1.327 . S
C848 C867 1.429 . S
C848 H872 0.950 . S
C849 C866 1.574 . S
C849 C868 1.368 . S
C849 H873 0.949 . S
H850 C854 0.949 . S
C851 C852 1.349 . S
C851 C853 1.327 . S
C851 H874 0.950 . S
C852 C851 1.349 . S
C852 C864 1.349 . S
C853 C851 1.327 . S
C853 C869 1.429 . S
C853 H875 0.950 . S
C854 H850 0.949 . S
C854 C862 1.574 . S
C854 C870 1.368 . S
H855 C863 0.950 . S
H856 C861 0.950 . S
H857 C862 0.949 . S
H858 C864 0.950 . S
H859 C865 0.950 . S
H860 C866 0.949 . S
C861 H856 0.950 . S
C861 C863 1.327 . S
C861 C867 1.429 . S
C862 C854 1.574 . S
C862 H857 0.949 . S
C862 C868 1.368 1_455 S
C863 C847 1.349 . S
C863 H855 0.950 . S
C863 C861 1.327 . S
C864 C852 1.349 . S
C864 H858 0.950 . S
C864 C865 1.327 . S
C865 H859 0.950 . S
C865 C864 1.327 . S
C865 C869 1.429 . S
C866 C849 1.574 . S
C866 H860 0.949 . S
C866 C870 1.368 1_655 S
C867 C848 1.429 . S
C867 C861 1.429 . S
C867 C868 1.523 . S
C868 C849 1.368 . S
C868 C862 1.368 1_655 S
C868 C867 1.523 . S
C869 C853 1.429 . S
C869 C865 1.429 . S
C869 C870 1.523 . S
C870 C854 1.368 . S
C870 C866 1.368 1_455 S
C870 C869 1.523 . S
H871 C846 0.950 . S
H872 C848 0.950 . S
H873 C849 0.949 . S
H874 C851 0.950 . S
H875 C853 0.950 . S
C876 C877 1.349 . S
C876 C878 1.327 . S
C876 H901 0.950 . S
C877 C876 1.349 . S
C877 C893 1.349 . S
C878 C876 1.327 . S
C878 C897 1.429 . S
C878 H902 0.950 . S
C879 C896 1.574 . S
C879 C898 1.368 . S
C879 H903 0.949 . S
H880 C884 0.949 . S
C881 C882 1.349 . S
C881 C883 1.327 . S
C881 H904 0.950 . S
C882 C881 1.349 . S
C882 C894 1.349 . S
C883 C881 1.327 . S
C883 C899 1.429 . S
C883 H905 0.950 . S
C884 H880 0.949 . S
C884 C892 1.574 . S
C884 C900 1.368 . S
H885 C893 0.950 . S
H886 C891 0.950 . S
H887 C892 0.949 . S
H888 C894 0.950 . S
H889 C895 0.950 . S
H890 C896 0.949 . S
C891 H886 0.950 . S
C891 C893 1.327 . S
C891 C897 1.429 . S
C892 C884 1.574 . S
C892 H887 0.949 . S
C892 C898 1.368 . S
C893 C877 1.349 . S
C893 H885 0.950 . S
C893 C891 1.327 . S
C894 C882 1.349 . S
C894 H888 0.950 . S
C894 C895 1.327 . S
C895 H889 0.950 . S
C895 C894 1.327 . S
C895 C899 1.429 . S
C896 C879 1.574 . S
C896 H890 0.949 . S
C896 C900 1.368 . S
C897 C878 1.429 . S
C897 C891 1.429 . S
C897 C898 1.523 . S
C898 C879 1.368 . S
C898 C892 1.368 . S
C898 C897 1.523 . S
C899 C883 1.429 . S
C899 C895 1.429 . S
C899 C900 1.523 . S
C900 C884 1.368 . S
C900 C896 1.368 . S
C900 C899 1.523 . S
H901 C876 0.950 . S
H902 C878 0.950 . S
H903 C879 0.949 . S
H904 C881 0.950 . S
H905 C883 0.950 . S
C906 C907 1.349 . S
C906 C908 1.327 . S
C906 H931 0.950 . S
C907 C906 1.349 . S
C907 C923 1.349 . S
C908 C906 1.327 . S
C908 C927 1.429 . S
C908 H932 0.950 . S
C909 C926 1.574 1_565 S
C909 C928 1.368 . S
C909 H933 0.949 . S
H910 C914 0.949 . S
C911 C912 1.349 . S
C911 C913 1.327 . S
C911 H934 0.950 . S
C912 C911 1.349 . S
C912 C924 1.349 . S
C913 C911 1.327 . S
C913 C929 1.429 . S
C913 H935 0.950 . S
C914 H910 0.949 . S
C914 C922 1.574 1_545 S
C914 C930 1.368 . S
H915 C923 0.950 . S
H916 C921 0.950 . S
H917 C922 0.949 . S
H918 C924 0.950 . S
H919 C925 0.950 . S
H920 C926 0.949 . S
C921 H916 0.950 . S
C921 C923 1.327 . S
C921 C927 1.429 . S
C922 C914 1.574 1_565 S
C922 H917 0.949 . S
C922 C928 1.368 . S
C923 C907 1.349 . S
C923 H915 0.950 . S
C923 C921 1.327 . S
C924 C912 1.349 . S
C924 H918 0.950 . S
C924 C925 1.327 . S
C925 H919 0.950 . S
C925 C924 1.327 . S
C925 C929 1.429 . S
C926 C909 1.574 1_545 S
C926 H920 0.949 . S
C926 C930 1.368 . S
C927 C908 1.429 . S
C927 C921 1.429 . S
C927 C928 1.523 . S
C928 C909 1.368 . S
C928 C922 1.368 . S
C928 C927 1.523 . S
C929 C913 1.429 . S
C929 C925 1.429 . S
C929 C930 1.523 . S
C930 C914 1.368 . S
C930 C926 1.368 . S
C930 C929 1.523 . S
H931 C906 0.950 . S
H932 C908 0.950 . S
H933 C909 0.949 . S
H934 C911 0.950 . S
H935 C913 0.950 . S
C936 C937 1.349 . S
C936 C938 1.327 . S
C936 H961 0.950 . S
C937 C936 1.349 . S
C937 C953 1.349 1_554 S
C938 C936 1.327 . S
C938 C957 1.429 . S
C938 H962 0.950 . S
C939 C956 1.574 1_455 S
C939 C958 1.368 1_556 S
C939 H963 0.949 . S
H940 C944 0.949 . S
C941 C942 1.349 1_556 S
C941 C943 1.327 . S
C941 H964 0.950 . S
C942 C941 1.349 1_554 S
C942 C954 1.349 . S
C943 C941 1.327 . S
C943 C959 1.429 1_556 S
C943 H965 0.950 . S
C944 H940 0.949 . S
C944 C952 1.574 1_655 S
C944 C960 1.368 . S
H945 C953 0.950 . S
H946 C951 0.950 . S
H947 C952 0.949 . S
H948 C954 0.950 . S
H949 C955 0.950 . S
H950 C956 0.949 . S
C951 H946 0.950 . S
C951 C953 1.327 . S
C951 C957 1.429 1_556 S
C952 C944 1.574 1_455 S
C952 H947 0.949 . S
C952 C958 1.368 . S
C953 C937 1.349 1_556 S
C953 H945 0.950 . S
C953 C951 1.327 . S
C954 C942 1.349 . S
C954 H948 0.950 . S
C954 C955 1.327 . S
C955 H949 0.950 . S
C955 C954 1.327 . S
C955 C959 1.429 . S
C956 C939 1.574 1_655 S
C956 H950 0.949 . S
C956 C960 1.368 1_556 S
C957 C938 1.429 . S
C957 C951 1.429 1_554 S
C957 C958 1.523 . S
C958 C939 1.368 1_554 S
C958 C952 1.368 . S
C958 C957 1.523 . S
C959 C943 1.429 1_554 S
C959 C955 1.429 . S
C959 C960 1.523 . S
C960 C944 1.368 . S
C960 C956 1.368 1_554 S
C960 C959 1.523 . S
H961 C936 0.950 . S
H962 C938 0.950 . S
H963 C939 0.949 . S
H964 C941 0.950 . S
H965 C943 0.950 . S
C966 C967 1.349 . S
C966 C968 1.327 . S
C966 H991 0.950 . S
C967 C966 1.349 . S
C967 C983 1.349 . S
C968 C966 1.327 . S
C968 C987 1.429 . S
C968 H992 0.950 . S
C969 C986 1.574 . S
C969 C988 1.368 . S
C969 H993 0.949 . S
H970 C974 0.949 . S
C971 C972 1.349 . S
C971 C973 1.327 . S
C971 H994 0.950 . S
C972 C971 1.349 . S
C972 C984 1.349 . S
C973 C971 1.327 . S
C973 C989 1.429 . S
C973 H995 0.950 . S
C974 H970 0.949 . S
C974 C982 1.574 . S
C974 C990 1.368 . S
H975 C983 0.950 . S
H976 C981 0.950 . S
H977 C982 0.949 . S
H978 C984 0.950 . S
H979 C985 0.950 . S
H980 C986 0.949 . S
C981 H976 0.950 . S
C981 C983 1.327 . S
C981 C987 1.429 . S
C982 C974 1.574 . S
C982 H977 0.949 . S
C982 C988 1.368 . S
C983 C967 1.349 . S
C983 H975 0.950 . S
C983 C981 1.327 . S
C984 C972 1.349 . S
C984 H978 0.950 . S
C984 C985 1.327 . S
C985 H979 0.950 . S
C985 C984 1.327 . S
C985 C989 1.429 . S
C986 C969 1.574 . S
C986 H980 0.949 . S
C986 C990 1.368 . S
C987 C968 1.429 . S
C987 C981 1.429 . S
C987 C988 1.523 . S
C988 C969 1.368 . S
C988 C982 1.368 . S
C988 C987 1.523 . S
C989 C973 1.429 . S
C989 C985 1.429 . S
C989 C990 1.523 . S
C990 C974 1.368 . S
C990 C986 1.368 . S
C990 C989 1.523 . S
H991 C966 0.950 . S
H992 C968 0.950 . S
H993 C969 0.949 . S
H994 C971 0.950 . S
H995 C973 0.950 . S
C996 C997 1.349 . S
C996 C998 1.327 . S
C996 H1021 0.950 . S
C997 C996 1.349 . S
C997 C1013 1.349 . S
C998 C996 1.327 . S
C998 C1017 1.429 . S
C998 H1022 0.950 . S
C999 C1016 1.574 . S
C999 C1018 1.368 . S
C999 H1023 0.949 . S
H1000 C1004 0.949 . S
C1001 C1002 1.349 . S
C1001 C1003 1.327 . S
C1001 H1024 0.950 . S
C1002 C1001 1.349 . S
C1002 C1014 1.349 . S
C1003 C1001 1.327 . S
C1003 C1019 1.429 . S
C1003 H1025 0.950 . S
C1004 H1000 0.949 . S
C1004 C1012 1.574 . S
C1004 C1020 1.368 . S
H1005 C1013 0.950 . S
H1006 C1011 0.950 . S
H1007 C1012 0.949 . S
H1008 C1014 0.950 . S
H1009 C1015 0.950 . S
H1010 C1016 0.949 . S
C1011 H1006 0.950 . S
C1011 C1013 1.327 . S
C1011 C1017 1.429 . S
C1012 C1004 1.574 . S
C1012 H1007 0.949 . S
C1012 C1018 1.368 1_565 S
C1013 C997 1.349 . S
C1013 H1005 0.950 . S
C1013 C1011 1.327 . S
C1014 C1002 1.349 . S
C1014 H1008 0.950 . S
C1014 C1015 1.327 . S
C1015 H1009 0.950 . S
C1015 C1014 1.327 . S
C1015 C1019 1.429 . S
C1016 C999 1.574 . S
C1016 H1010 0.949 . S
C1016 C1020 1.368 1_545 S
C1017 C998 1.429 . S
C1017 C1011 1.429 . S
C1017 C1018 1.523 . S
C1018 C999 1.368 . S
C1018 C1012 1.368 1_545 S
C1018 C1017 1.523 . S
C1019 C1003 1.429 . S
C1019 C1015 1.429 . S
C1019 C1020 1.523 . S
C1020 C1004 1.368 . S
C1020 C1016 1.368 1_565 S
C1020 C1019 1.523 . S
H1021 C996 0.950 . S
H1022 C998 0.950 . S
H1023 C999 0.949 . S
H1024 C1001 0.950 . S
H1025 C1003 0.950 . S
C1026 C1027 1.349 . S
C1026 C1028 1.327 . S
C1026 H1051 0.950 . S
C1027 C1026 1.349 . S
C1027 C1043 1.349 . S
C1028 C1026 1.327 . S
C1028 C1047 1.429 . S
C1028 H1052 0.950 . S
C1029 C1046 1.574 1_545 S
C1029 C1048 1.368 1_655 S
C1029 H1053 0.949 . S
H1030 C1034 0.949 . S
C1031 C1032 1.349 . S
C1031 C1033 1.327 . S
C1031 H1054 0.950 . S
C1032 C1031 1.349 . S
C1032 C1044 1.349 . S
C1033 C1031 1.327 . S
C1033 C1049 1.429 . S
C1033 H1055 0.950 . S
C1034 H1030 0.949 . S
C1034 C1042 1.574 1_565 S
C1034 C1050 1.368 1_455 S
H1035 C1043 0.950 . S
H1036 C1041 0.950 . S
H1037 C1042 0.949 . S
H1038 C1044 0.950 . S
H1039 C1045 0.950 . S
H1040 C1046 0.949 . S
C1041 H1036 0.950 . S
C1041 C1043 1.327 . S
C1041 C1047 1.429 . S
C1042 C1034 1.574 1_545 S
C1042 H1037 0.949 . S
C1042 C1048 1.368 . S
C1043 C1027 1.349 . S
C1043 H1035 0.950 . S
C1043 C1041 1.327 . S
C1044 C1032 1.349 . S
C1044 H1038 0.950 . S
C1044 C1045 1.327 . S
C1045 H1039 0.950 . S
C1045 C1044 1.327 . S
C1045 C1049 1.429 . S
C1046 C1029 1.574 1_565 S
C1046 H1040 0.949 . S
C1046 C1050 1.368 . S
C1047 C1028 1.429 . S
C1047 C1041 1.429 . S
C1047 C1048 1.523 . S
C1048 C1029 1.368 1_455 S
C1048 C1042 1.368 . S
C1048 C1047 1.523 . S
C1049 C1033 1.429 . S
C1049 C1045 1.429 . S
C1049 C1050 1.523 . S
C1050 C1034 1.368 1_655 S
C1050 C1046 1.368 . S
C1050 C1049 1.523 . S
H1051 C1026 0.950 . S
H1052 C1028 0.950 . S
H1053 C1029 0.949 . S
H1054 C1031 0.950 . S
H1055 C1033 0.950 . S
C1056 C1057 1.349 . S
C1056 C1058 1.327 . S
C1056 H1081 0.950 . S
C1057 C1056 1.349 . S
C1057 C1073 1.349 . S
C1058 C1056 1.327 . S
C1058 C1077 1.429 . S
C1058 H1082 0.950 . S
C1059 C1076 1.574 . S
C1059 C1078 1.368 . S
C1059 H1083 0.949 . S
H1060 C1064 0.949 . S
C1061 C1062 1.349 . S
C1061 C1063 1.327 . S
C1061 H1084 0.950 . S
C1062 C1061 1.349 . S
C1062 C1074 1.349 . S
C1063 C1061 1.327 . S
C1063 C1079 1.429 . S
C1063 H1085 0.950 . S
C1064 H1060 0.949 . S
C1064 C1072 1.574 . S
C1064 C1080 1.368 . S
H1065 C1073 0.950 . S
H1066 C1071 0.950 . S
H1067 C1072 0.949 . S
H1068 C1074 0.950 . S
H1069 C1075 0.950 . S
H1070 C1076 0.949 . S
C1071 H1066 0.950 . S
C1071 C1073 1.327 . S
C1071 C1077 1.429 . S
C1072 C1064 1.574 . S
C1072 H1067 0.949 . S
C1072 C1078 1.368 . S
C1073 C1057 1.349 . S
C1073 H1065 0.950 . S
C1073 C1071 1.327 . S
C1074 C1062 1.349 . S
C1074 H1068 0.950 . S
C1074 C1075 1.327 . S
C1075 H1069 0.950 . S
C1075 C1074 1.327 . S
C1075 C1079 1.429 . S
C1076 C1059 1.574 . S
C1076 H1070 0.949 . S
C1076 C1080 1.368 . S
C1077 C1058 1.429 . S
C1077 C1071 1.429 . S
C1077 C1078 1.523 . S
C1078 C1059 1.368 . S
C1078 C1072 1.368 . S
C1078 C1077 1.523 . S
C1079 C1063 1.429 . S
C1079 C1075 1.429 . S
C1079 C1080 1.523 . S
C1080 C1064 1.368 . S
C1080 C1076 1.368 . S
C1080 C1079 1.523 . S
H1081 C1056 0.950 . S
H1082 C1058 0.950 . S
H1083 C1059 0.949 . S
H1084 C1061 0.950 . S
H1085 C1063 0.950 . S
C1086 C1087 1.349 . S
C1086 C1088 1.327 . S
C1086 H1111 0.950 . S
C1087 C1086 1.349 . S
C1087 C1103 1.349 . S
C1088 C1086 1.327 . S
C1088 C1107 1.429 . S
C1088 H1112 0.950 . S
C1089 C1106 1.574 . S
C1089 C1108 1.368 . S
C1089 H1113 0.949 . S
H1090 C1094 0.949 . S
C1091 C1092 1.349 . S
C1091 C1093 1.327 . S
C1091 H1114 0.950 . S
C1092 C1091 1.349 . S
C1092 C1104 1.349 . S
C1093 C1091 1.327 . S
C1093 C1109 1.429 . S
C1093 H1115 0.950 . S
C1094 H1090 0.949 . S
C1094 C1102 1.574 . S
C1094 C1110 1.368 . S
H1095 C1103 0.950 . S
H1096 C1101 0.950 . S
H1097 C1102 0.949 . S
H1098 C1104 0.950 . S
H1099 C1105 0.950 . S
H1100 C1106 0.949 . S
C1101 H1096 0.950 . S
C1101 C1103 1.327 . S
C1101 C1107 1.429 . S
C1102 C1094 1.574 . S
C1102 H1097 0.949 . S
C1102 C1108 1.368 . S
C1103 C1087 1.349 . S
C1103 H1095 0.950 . S
C1103 C1101 1.327 . S
C1104 C1092 1.349 . S
C1104 H1098 0.950 . S
C1104 C1105 1.327 . S
C1105 H1099 0.950 . S
C1105 C1104 1.327 . S
C1105 C1109 1.429 . S
C1106 C1089 1.574 . S
C1106 H1100 0.949 . S
C1106 C1110 1.368 . S
C1107 C1088 1.429 . S
C1107 C1101 1.429 . S
C1107 C1108 1.523 . S
C1108 C1089 1.368 . S
C1108 C1102 1.368 . S
C1108 C1107 1.523 . S
C1109 C1093 1.429 . S
C1109 C1105 1.429 . S
C1109 C1110 1.523 . S
C1110 C1094 1.368 . S
C1110 C1106 1.368 . S
C1110 C1109 1.523 . S
H1111 C1086 0.950 . S
H1112 C1088 0.950 . S
H1113 C1089 0.949 . S
H1114 C1091 0.950 . S
H1115 C1093 0.950 . S
C1116 C1117 1.349 . S
C1116 C1118 1.327 . S
C1116 H1141 0.950 . S
C1117 C1116 1.349 . S
C1117 C1133 1.349 . S
C1118 C1116 1.327 . S
C1118 C1137 1.429 . S
C1118 H1142 0.950 . S
C1119 C1136 1.574 . S
C1119 C1138 1.368 . S
C1119 H1143 0.949 . S
H1120 C1124 0.949 1_556 S
C1121 C1122 1.349 . S
C1121 C1123 1.327 . S
C1121 H1144 0.950 . S
C1122 C1121 1.349 . S
C1122 C1134 1.349 . S
C1123 C1121 1.327 . S
C1123 C1139 1.429 . S
C1123 H1145 0.950 . S
C1124 H1120 0.949 1_554 S
C1124 C1132 1.574 . S
C1124 C1140 1.368 1_554 S
H1125 C1133 0.950 . S
H1126 C1131 0.950 . S
H1127 C1132 0.949 . S
H1128 C1134 0.950 . S
H1129 C1135 0.950 . S
H1130 C1136 0.950 . S
C1131 H1126 0.950 . S
C1131 C1133 1.327 . S
C1131 C1137 1.429 . S
C1132 C1124 1.574 . S
C1132 H1127 0.949 . S
C1132 C1138 1.368 . S
C1133 C1117 1.349 . S
C1133 H1125 0.950 . S
C1133 C1131 1.327 . S
C1134 C1122 1.349 . S
C1134 H1128 0.950 . S
C1134 C1135 1.327 . S
C1135 H1129 0.950 . S
C1135 C1134 1.327 . S
C1135 C1139 1.429 . S
C1136 C1119 1.574 . S
C1136 H1130 0.950 . S
C1136 C1140 1.368 1_554 S
C1137 C1118 1.429 . S
C1137 C1131 1.429 . S
C1137 C1138 1.523 . S
C1138 C1119 1.368 . S
C1138 C1132 1.368 . S
C1138 C1137 1.523 . S
C1139 C1123 1.429 . S
C1139 C1135 1.429 . S
C1139 C1140 1.523 . S
C1140 C1124 1.368 1_556 S
C1140 C1136 1.368 1_556 S
C1140 C1139 1.523 . S
H1141 C1116 0.950 . S
H1142 C1118 0.950 . S
H1143 C1119 0.949 . S
H1144 C1121 0.950 . S
H1145 C1123 0.950 . S
C1146 C1147 1.349 . S
C1146 C1148 1.327 . S
C1146 H1171 0.950 . S
C1147 C1146 1.349 . S
C1147 C1163 1.349 . S
C1148 C1146 1.327 . S
C1148 C1167 1.429 . S
C1148 H1172 0.950 . S
C1149 C1166 1.574 . S
C1149 C1168 1.368 . S
C1149 H1173 0.949 . S
H1150 C1154 0.949 . S
C1151 C1152 1.349 . S
C1151 C1153 1.327 . S
C1151 H1174 0.950 . S
C1152 C1151 1.349 . S
C1152 C1164 1.349 . S
C1153 C1151 1.327 . S
C1153 C1169 1.429 . S
C1153 H1175 0.950 . S
C1154 H1150 0.949 . S
C1154 C1162 1.574 . S
C1154 C1170 1.368 . S
H1155 C1163 0.950 . S
H1156 C1161 0.950 . S
H1157 C1162 0.949 . S
H1158 C1164 0.950 . S
H1159 C1165 0.950 . S
H1160 C1166 0.949 . S
C1161 H1156 0.950 . S
C1161 C1163 1.327 . S
C1161 C1167 1.429 . S
C1162 C1154 1.574 . S
C1162 H1157 0.949 . S
C1162 C1168 1.368 . S
C1163 C1147 1.349 . S
C1163 H1155 0.950 . S
C1163 C1161 1.327 . S
C1164 C1152 1.349 . S
C1164 H1158 0.950 . S
C1164 C1165 1.327 . S
C1165 H1159 0.950 . S
C1165 C1164 1.327 . S
C1165 C1169 1.429 . S
C1166 C1149 1.574 . S
C1166 H1160 0.949 . S
C1166 C1170 1.368 . S
C1167 C1148 1.429 . S
C1167 C1161 1.429 . S
C1167 C1168 1.523 . S
C1168 C1149 1.368 . S
C1168 C1162 1.368 . S
C1168 C1167 1.523 . S
C1169 C1153 1.429 . S
C1169 C1165 1.429 . S
C1169 C1170 1.523 . S
C1170 C1154 1.368 . S
C1170 C1166 1.368 . S
C1170 C1169 1.523 . S
H1171 C1146 0.950 . S
H1172 C1148 0.950 . S
H1173 C1149 0.949 . S
H1174 C1151 0.950 . S
H1175 C1153 0.950 . S
C1176 C1177 1.349 . S
C1176 C1178 1.327 . S
C1176 H1201 0.950 . S
C1177 C1176 1.349 . S
C1177 C1193 1.349 . S
C1178 C1176 1.327 . S
C1178 C1197 1.429 . S
C1178 H1202 0.950 . S
C1179 C1196 1.574 . S
C1179 C1198 1.368 . S
C1179 H1203 0.949 . S
H1180 C1184 0.949 . S
C1181 C1182 1.349 . S
C1181 C1183 1.327 . S
C1181 H1204 0.950 . S
C1182 C1181 1.349 . S
C1182 C1194 1.349 . S
C1183 C1181 1.327 . S
C1183 C1199 1.429 . S
C1183 H1205 0.950 . S
C1184 H1180 0.949 . S
C1184 C1192 1.574 . S
C1184 C1200 1.368 . S
H1185 C1193 0.950 . S
H1186 C1191 0.950 . S
H1187 C1192 0.949 . S
H1188 C1194 0.950 . S
H1189 C1195 0.950 . S
H1190 C1196 0.949 . S
C1191 H1186 0.950 . S
C1191 C1193 1.327 . S
C1191 C1197 1.429 . S
C1192 C1184 1.574 . S
C1192 H1187 0.949 . S
C1192 C1198 1.368 . S
C1193 C1177 1.349 . S
C1193 H1185 0.950 . S
C1193 C1191 1.327 . S
C1194 C1182 1.349 . S
C1194 H1188 0.950 . S
C1194 C1195 1.327 . S
C1195 H1189 0.950 . S
C1195 C1194 1.327 . S
C1195 C1199 1.429 . S
C1196 C1179 1.574 . S
C1196 H1190 0.949 . S
C1196 C1200 1.368 . S
C1197 C1178 1.429 . S
C1197 C1191 1.429 . S
C1197 C1198 1.523 . S
C1198 C1179 1.368 . S
C1198 C1192 1.368 . S
C1198 C1197 1.523 . S
C1199 C1183 1.429 . S
C1199 C1195 1.429 . S
C1199 C1200 1.523 . S
C1200 C1184 1.368 . S
C1200 C1196 1.368 . S
C1200 C1199 1.523 . S
H1201 C1176 0.950 . S
H1202 C1178 0.950 . S
H1203 C1179 0.949 . S
H1204 C1181 0.950 . S
H1205 C1183 0.950 . S
C1206 C1207 1.349 . S
C1206 C1208 1.327 . S
C1206 H1231 0.950 . S
C1207 C1206 1.349 . S
C1207 C1223 1.349 . S
C1208 C1206 1.327 . S
C1208 C1227 1.429 . S
C1208 H1232 0.950 . S
C1209 C1226 1.574 . S
C1209 C1228 1.368 . S
C1209 H1233 0.949 . S
H1210 C1214 0.949 1_556 S
C1211 C1212 1.349 . S
C1211 C1213 1.327 . S
C1211 H1234 0.950 . S
C1212 C1211 1.349 . S
C1212 C1224 1.349 . S
C1213 C1211 1.327 . S
C1213 C1229 1.429 . S
C1213 H1235 0.950 . S
C1214 H1210 0.949 1_554 S
C1214 C1222 1.574 . S
C1214 C1230 1.368 1_554 S
H1215 C1223 0.950 . S
H1216 C1221 0.950 . S
H1217 C1222 0.949 . S
H1218 C1224 0.950 . S
H1219 C1225 0.950 . S
H1220 C1226 0.949 1_556 S
C1221 H1216 0.950 . S
C1221 C1223 1.327 . S
C1221 C1227 1.429 . S
C1222 C1214 1.574 . S
C1222 H1217 0.949 . S
C1222 C1228 1.368 . S
C1223 C1207 1.349 . S
C1223 H1215 0.950 . S
C1223 C1221 1.327 . S
C1224 C1212 1.349 . S
C1224 H1218 0.950 . S
C1224 C1225 1.327 . S
C1225 H1219 0.950 . S
C1225 C1224 1.327 . S
C1225 C1229 1.429 . S
C1226 C1209 1.574 . S
C1226 H1220 0.949 1_554 S
C1226 C1230 1.368 1_554 S
C1227 C1208 1.429 . S
C1227 C1221 1.429 . S
C1227 C1228 1.523 . S
C1228 C1209 1.368 . S
C1228 C1222 1.368 . S
C1228 C1227 1.523 . S
C1229 C1213 1.429 . S
C1229 C1225 1.429 . S
C1229 C1230 1.523 . S
C1230 C1214 1.368 1_556 S
C1230 C1226 1.368 1_556 S
C1230 C1229 1.523 . S
H1231 C1206 0.950 . S
H1232 C1208 0.950 . S
H1233 C1209 0.949 . S
H1234 C1211 0.950 . S
H1235 C1213 0.950 . S
C1236 C1237 1.349 . S
C1236 C1238 1.327 . S
C1236 H1261 0.950 . S
C1237 C1236 1.349 . S
C1237 C1253 1.349 . S
C1238 C1236 1.327 . S
C1238 C1257 1.429 . S
C1238 H1262 0.950 . S
C1239 C1256 1.574 . S
C1239 C1258 1.368 . S
C1239 H1263 0.949 . S
H1240 C1244 0.949 . S
C1241 C1242 1.349 . S
C1241 C1243 1.327 . S
C1241 H1264 0.950 . S
C1242 C1241 1.349 . S
C1242 C1254 1.349 . S
C1243 C1241 1.327 . S
C1243 C1259 1.429 . S
C1243 H1265 0.950 . S
C1244 H1240 0.949 . S
C1244 C1252 1.574 . S
C1244 C1260 1.368 . S
H1245 C1253 0.950 . S
H1246 C1251 0.950 . S
H1247 C1252 0.949 . S
H1248 C1254 0.950 . S
H1249 C1255 0.950 . S
H1250 C1256 0.949 . S
C1251 H1246 0.950 . S
C1251 C1253 1.327 . S
C1251 C1257 1.429 . S
C1252 C1244 1.574 . S
C1252 H1247 0.949 . S
C1252 C1258 1.368 . S
C1253 C1237 1.349 . S
C1253 H1245 0.950 . S
C1253 C1251 1.327 . S
C1254 C1242 1.349 . S
C1254 H1248 0.950 . S
C1254 C1255 1.327 . S
C1255 H1249 0.950 . S
C1255 C1254 1.327 . S
C1255 C1259 1.429 . S
C1256 C1239 1.574 . S
C1256 H1250 0.949 . S
C1256 C1260 1.368 . S
C1257 C1238 1.429 . S
C1257 C1251 1.429 . S
C1257 C1258 1.523 . S
C1258 C1239 1.368 . S
C1258 C1252 1.368 . S
C1258 C1257 1.523 . S
C1259 C1243 1.429 . S
C1259 C1255 1.429 . S
C1259 C1260 1.523 . S
C1260 C1244 1.368 . S
C1260 C1256 1.368 . S
C1260 C1259 1.523 . S
H1261 C1236 0.950 . S
H1262 C1238 0.950 . S
H1263 C1239 0.949 . S
H1264 C1241 0.950 . S
H1265 C1243 0.950 . S
C1266 C1267 1.349 . S
C1266 C1268 1.327 . S
C1266 H1291 0.950 . S
C1267 C1266 1.349 . S
C1267 C1283 1.349 . S
C1268 C1266 1.327 . S
C1268 C1287 1.429 . S
C1268 H1292 0.950 . S
C1269 C1286 1.574 . S
C1269 C1288 1.368 . S
C1269 H1293 0.949 . S
H1270 C1274 0.949 . S
C1271 C1272 1.349 . S
C1271 C1273 1.327 . S
C1271 H1294 0.950 . S
C1272 C1271 1.349 . S
C1272 C1284 1.349 . S
C1273 C1271 1.327 . S
C1273 C1289 1.429 . S
C1273 H1295 0.950 . S
C1274 H1270 0.949 . S
C1274 C1282 1.574 . S
C1274 C1290 1.368 . S
H1275 C1283 0.950 . S
H1276 C1281 0.950 . S
H1277 C1282 0.949 . S
H1278 C1284 0.950 . S
H1279 C1285 0.950 . S
H1280 C1286 0.949 . S
C1281 H1276 0.950 . S
C1281 C1283 1.327 . S
C1281 C1287 1.429 . S
C1282 C1274 1.574 . S
C1282 H1277 0.949 . S
C1282 C1288 1.368 . S
C1283 C1267 1.349 . S
C1283 H1275 0.950 . S
C1283 C1281 1.327 . S
C1284 C1272 1.349 . S
C1284 H1278 0.950 . S
C1284 C1285 1.327 . S
C1285 H1279 0.950 . S
C1285 C1284 1.327 . S
C1285 C1289 1.429 . S
C1286 C1269 1.574 . S
C1286 H1280 0.949 . S
C1286 C1290 1.368 . S
C1287 C1268 1.429 . S
C1287 C1281 1.429 . S
C1287 C1288 1.523 . S
C1288 C1269 1.368 . S
C1288 C1282 1.368 . S
C1288 C1287 1.523 . S
C1289 C1273 1.429 . S
C1289 C1285 1.429 . S
C1289 C1290 1.523 . S
C1290 C1274 1.368 . S
C1290 C1286 1.368 . S
C1290 C1289 1.523 . S
H1291 C1266 0.950 . S
H1292 C1268 0.950 . S
H1293 C1269 0.949 . S
H1294 C1271 0.950 . S
H1295 C1273 0.950 . S
C1296 C1297 1.349 . S
C1296 C1298 1.327 . S
C1296 H1321 0.950 . S
C1297 C1296 1.349 . S
C1297 C1313 1.349 . S
C1298 C1296 1.327 . S
C1298 C1317 1.429 . S
C1298 H1322 0.950 . S
C1299 C1316 1.574 . S
C1299 C1318 1.368 1_554 S
C1299 H1323 0.949 1_554 S
H1300 C1304 0.949 . S
C1301 C1302 1.349 . S
C1301 C1303 1.327 . S
C1301 H1324 0.950 . S
C1302 C1301 1.349 . S
C1302 C1314 1.349 . S
C1303 C1301 1.327 . S
C1303 C1319 1.429 . S
C1303 H1325 0.950 . S
C1304 H1300 0.949 . S
C1304 C1312 1.574 . S
C1304 C1320 1.368 . S
H1305 C1313 0.950 . S
H1306 C1311 0.950 . S
H1307 C1312 0.949 . S
H1308 C1314 0.950 . S
H1309 C1315 0.950 . S
H1310 C1316 0.949 . S
C1311 H1306 0.950 . S
C1311 C1313 1.327 . S
C1311 C1317 1.429 . S
C1312 C1304 1.574 . S
C1312 H1307 0.949 . S
C1312 C1318 1.368 1_554 S
C1313 C1297 1.349 . S
C1313 H1305 0.950 . S
C1313 C1311 1.327 . S
C1314 C1302 1.349 . S
C1314 H1308 0.950 . S
C1314 C1315 1.327 . S
C1315 H1309 0.950 . S
C1315 C1314 1.327 . S
C1315 C1319 1.429 . S
C1316 C1299 1.574 . S
C1316 H1310 0.949 . S
C1316 C1320 1.368 . S
C1317 C1298 1.429 . S
C1317 C1311 1.429 . S
C1317 C1318 1.523 . S
C1318 C1299 1.368 1_556 S
C1318 C1312 1.368 1_556 S
C1318 C1317 1.523 . S
C1319 C1303 1.429 . S
C1319 C1315 1.429 . S
C1319 C1320 1.523 . S
C1320 C1304 1.368 . S
C1320 C1316 1.368 . S
C1320 C1319 1.523 . S
H1321 C1296 0.950 . S
H1322 C1298 0.950 . S
H1323 C1299 0.949 1_556 S
H1324 C1301 0.950 . S
H1325 C1303 0.950 . S
C1326 C1327 1.349 . S
C1326 C1328 1.327 . S
C1326 H1351 0.950 . S
C1327 C1326 1.349 . S
C1327 C1343 1.349 . S
C1328 C1326 1.327 . S
C1328 C1347 1.429 . S
C1328 H1352 0.950 . S
C1329 C1346 1.574 . S
C1329 C1348 1.368 . S
C1329 H1353 0.949 . S
H1330 C1334 0.949 . S
C1331 C1332 1.349 . S
C1331 C1333 1.327 . S
C1331 H1354 0.950 . S
C1332 C1331 1.349 . S
C1332 C1344 1.349 . S
C1333 C1331 1.327 . S
C1333 C1349 1.429 . S
C1333 H1355 0.950 . S
C1334 H1330 0.949 . S
C1334 C1342 1.574 . S
C1334 C1350 1.368 . S
H1335 C1343 0.950 . S
H1336 C1341 0.950 . S
H1337 C1342 0.949 . S
H1338 C1344 0.950 . S
H1339 C1345 0.950 . S
H1340 C1346 0.949 . S
C1341 H1336 0.950 . S
C1341 C1343 1.327 . S
C1341 C1347 1.429 . S
C1342 C1334 1.574 . S
C1342 H1337 0.949 . S
C1342 C1348 1.368 . S
C1343 C1327 1.349 . S
C1343 H1335 0.950 . S
C1343 C1341 1.327 . S
C1344 C1332 1.349 . S
C1344 H1338 0.950 . S
C1344 C1345 1.327 . S
C1345 H1339 0.950 . S
C1345 C1344 1.327 . S
C1345 C1349 1.429 . S
C1346 C1329 1.574 . S
C1346 H1340 0.949 . S
C1346 C1350 1.368 . S
C1347 C1328 1.429 . S
C1347 C1341 1.429 . S
C1347 C1348 1.523 . S
C1348 C1329 1.368 . S
C1348 C1342 1.368 . S
C1348 C1347 1.523 . S
C1349 C1333 1.429 . S
C1349 C1345 1.429 . S
C1349 C1350 1.523 . S
C1350 C1334 1.368 . S
C1350 C1346 1.368 . S
C1350 C1349 1.523 . S
H1351 C1326 0.950 . S
H1352 C1328 0.950 . S
H1353 C1329 0.949 . S
H1354 C1331 0.950 . S
H1355 C1333 0.950 . S
C1356 C1357 1.349 . S
C1356 C1358 1.327 . S
C1356 H1381 0.950 . S
C1357 C1356 1.349 . S
C1357 C1373 1.349 . S
C1358 C1356 1.327 . S
C1358 C1377 1.429 . S
C1358 H1382 0.950 . S
C1359 C1376 1.574 . S
C1359 C1378 1.368 . S
C1359 H1383 0.949 . S
H1360 C1364 0.949 . S
C1361 C1362 1.349 . S
C1361 C1363 1.327 . S
C1361 H1384 0.950 . S
C1362 C1361 1.349 . S
C1362 C1374 1.349 . S
C1363 C1361 1.327 . S
C1363 C1379 1.429 . S
C1363 H1385 0.950 . S
C1364 H1360 0.949 . S
C1364 C1372 1.574 . S
C1364 C1380 1.368 . S
H1365 C1373 0.950 . S
H1366 C1371 0.950 . S
H1367 C1372 0.949 . S
H1368 C1374 0.950 . S
H1369 C1375 0.950 . S
H1370 C1376 0.949 . S
C1371 H1366 0.950 . S
C1371 C1373 1.327 . S
C1371 C1377 1.429 . S
C1372 C1364 1.574 . S
C1372 H1367 0.949 . S
C1372 C1378 1.368 . S
C1373 C1357 1.349 . S
C1373 H1365 0.950 . S
C1373 C1371 1.327 . S
C1374 C1362 1.349 . S
C1374 H1368 0.950 . S
C1374 C1375 1.327 . S
C1375 H1369 0.950 . S
C1375 C1374 1.327 . S
C1375 C1379 1.429 . S
C1376 C1359 1.574 . S
C1376 H1370 0.949 . S
C1376 C1380 1.368 . S
C1377 C1358 1.429 . S
C1377 C1371 1.429 . S
C1377 C1378 1.523 . S
C1378 C1359 1.368 . S
C1378 C1372 1.368 . S
C1378 C1377 1.523 . S
C1379 C1363 1.429 . S
C1379 C1375 1.429 . S
C1379 C1380 1.523 . S
C1380 C1364 1.368 . S
C1380 C1376 1.368 . S
C1380 C1379 1.523 . S
H1381 C1356 0.950 . S
H1382 C1358 0.950 . S
H1383 C1359 0.949 . S
H1384 C1361 0.950 . S
H1385 C1363 0.950 . S
C1386 C1387 1.349 . S
C1386 C1388 1.327 . S
C1386 H1411 0.950 . S
C1387 C1386 1.349 . S
C1387 C1403 1.349 . S
C1388 C1386 1.327 . S
C1388 C1407 1.429 . S
C1388 H1412 0.950 . S
C1389 C1406 1.574 . S
C1389 C1408 1.368 . S
C1389 H1413 0.949 . S
H1390 C1394 0.949 . S
C1391 C1392 1.349 . S
C1391 C1393 1.327 . S
C1391 H1414 0.950 . S
C1392 C1391 1.349 . S
C1392 C1404 1.349 . S
C1393 C1391 1.327 . S
C1393 C1409 1.429 . S
C1393 H1415 0.950 . S
C1394 H1390 0.949 . S
C1394 C1402 1.574 . S
C1394 C1410 1.368 . S
H1395 C1403 0.950 . S
H1396 C1401 0.950 . S
H1397 C1402 0.949 . S
H1398 C1404 0.950 . S
H1399 C1405 0.950 . S
H1400 C1406 0.949 . S
C1401 H1396 0.950 . S
C1401 C1403 1.327 . S
C1401 C1407 1.429 . S
C1402 C1394 1.574 . S
C1402 H1397 0.949 . S
C1402 C1408 1.368 . S
C1403 C1387 1.349 . S
C1403 H1395 0.950 . S
C1403 C1401 1.327 . S
C1404 C1392 1.349 . S
C1404 H1398 0.950 . S
C1404 C1405 1.327 . S
C1405 H1399 0.950 . S
C1405 C1404 1.327 . S
C1405 C1409 1.429 . S
C1406 C1389 1.574 . S
C1406 H1400 0.949 . S
C1406 C1410 1.368 . S
C1407 C1388 1.429 . S
C1407 C1401 1.429 . S
C1407 C1408 1.523 . S
C1408 C1389 1.368 . S
C1408 C1402 1.368 . S
C1408 C1407 1.523 . S
C1409 C1393 1.429 . S
C1409 C1405 1.429 . S
C1409 C1410 1.523 . S
C1410 C1394 1.368 . S
C1410 C1406 1.368 . S
C1410 C1409 1.523 . S
H1411 C1386 0.950 . S
H1412 C1388 0.950 . S
H1413 C1389 0.949 . S
H1414 C1391 0.950 . S
H1415 C1393 0.950 . S
C1416 C1417 1.349 . S
C1416 C1418 1.327 . S
C1416 H1441 0.950 . S
C1417 C1416 1.349 . S
C1417 C1433 1.349 . S
C1418 C1416 1.327 . S
C1418 C1437 1.429 . S
C1418 H1442 0.950 . S
C1419 C1436 1.574 . S
C1419 C1438 1.368 . S
C1419 H1443 0.949 . S
H1420 C1424 0.949 . S
C1421 C1422 1.349 . S
C1421 C1423 1.327 . S
C1421 H1444 0.950 . S
C1422 C1421 1.349 . S
C1422 C1434 1.349 . S
C1423 C1421 1.327 . S
C1423 C1439 1.429 . S
C1423 H1445 0.950 . S
C1424 H1420 0.949 . S
C1424 C1432 1.574 . S
C1424 C1440 1.368 . S
H1425 C1433 0.950 . S
H1426 C1431 0.950 . S
H1427 C1432 0.949 . S
H1428 C1434 0.950 . S
H1429 C1435 0.950 . S
H1430 C1436 0.949 . S
C1431 H1426 0.950 . S
C1431 C1433 1.327 . S
C1431 C1437 1.429 . S
C1432 C1424 1.574 . S
C1432 H1427 0.949 . S
C1432 C1438 1.368 . S
C1433 C1417 1.349 . S
C1433 H1425 0.950 . S
C1433 C1431 1.327 . S
C1434 C1422 1.349 . S
C1434 H1428 0.950 . S
C1434 C1435 1.327 . S
C1435 H1429 0.950 . S
C1435 C1434 1.327 . S
C1435 C1439 1.429 . S
C1436 C1419 1.574 . S
C1436 H1430 0.949 . S
C1436 C1440 1.368 . S
C1437 C1418 1.429 . S
C1437 C1431 1.429 . S
C1437 C1438 1.523 . S
C1438 C1419 1.368 . S
C1438 C1432 1.368 . S
C1438 C1437 1.523 . S
C1439 C1423 1.429 . S
C1439 C1435 1.429 . S
C1439 C1440 1.523 . S
C1440 C1424 1.368 . S
C1440 C1436 1.368 . S
C1440 C1439 1.523 . S
H1441 C1416 0.950 . S
H1442 C1418 0.950 . S
H1443 C1419 0.949 . S
H1444 C1421 0.950 . S
H1445 C1423 0.950 . S
C1446 C1447 1.349 . S
C1446 C1448 1.327 . S
C1446 H1471 0.950 . S
C1447 C1446 1.349 . S
C1447 C1463 1.349 . S
C1448 C1446 1.327 . S
C1448 C1467 1.429 . S
C1448 H1472 0.950 . S
C1449 C1466 1.574 . S
C1449 C1468 1.368 . S
C1449 H1473 0.949 . S
H1450 C1454 0.949 . S
C1451 C1452 1.349 . S
C1451 C1453 1.327 . S
C1451 H1474 0.950 . S
C1452 C1451 1.349 . S
C1452 C1464 1.349 . S
C1453 C1451 1.327 . S
C1453 C1469 1.429 . S
C1453 H1475 0.950 . S
C1454 H1450 0.949 . S
C1454 C1462 1.574 . S
C1454 C1470 1.368 . S
H1455 C1463 0.950 . S
H1456 C1461 0.950 . S
H1457 C1462 0.949 . S
H1458 C1464 0.950 . S
H1459 C1465 0.950 . S
H1460 C1466 0.949 . S
C1461 H1456 0.950 . S
C1461 C1463 1.327 . S
C1461 C1467 1.429 . S
C1462 C1454 1.574 . S
C1462 H1457 0.949 . S
C1462 C1468 1.368 . S
C1463 C1447 1.349 . S
C1463 H1455 0.950 . S
C1463 C1461 1.327 . S
C1464 C1452 1.349 . S
C1464 H1458 0.950 . S
C1464 C1465 1.327 . S
C1465 H1459 0.950 . S
C1465 C1464 1.327 . S
C1465 C1469 1.429 . S
C1466 C1449 1.574 . S
C1466 H1460 0.949 . S
C1466 C1470 1.368 . S
C1467 C1448 1.429 . S
C1467 C1461 1.429 . S
C1467 C1468 1.523 . S
C1468 C1449 1.368 . S
C1468 C1462 1.368 . S
C1468 C1467 1.523 . S
C1469 C1453 1.429 . S
C1469 C1465 1.429 . S
C1469 C1470 1.523 . S
C1470 C1454 1.368 . S
C1470 C1466 1.368 . S
C1470 C1469 1.523 . S
H1471 C1446 0.950 . S
H1472 C1448 0.950 . S
H1473 C1449 0.949 . S
H1474 C1451 0.950 . S
H1475 C1453 0.950 . S
C1476 C1477 1.349 . S
C1476 C1478 1.327 . S
C1476 H1501 0.950 . S
C1477 C1476 1.349 . S
C1477 C1493 1.349 . S
C1478 C1476 1.327 . S
C1478 C1497 1.429 . S
C1478 H1502 0.950 . S
C1479 C1496 1.574 . S
C1479 C1498 1.368 . S
C1479 H1503 0.949 . S
H1480 C1484 0.949 . S
C1481 C1482 1.349 . S
C1481 C1483 1.327 . S
C1481 H1504 0.950 . S
C1482 C1481 1.349 . S
C1482 C1494 1.349 . S
C1483 C1481 1.327 . S
C1483 C1499 1.429 . S
C1483 H1505 0.950 . S
C1484 H1480 0.949 . S
C1484 C1492 1.574 . S
C1484 C1500 1.368 . S
H1485 C1493 0.950 . S
H1486 C1491 0.950 . S
H1487 C1492 0.949 . S
H1488 C1494 0.950 . S
H1489 C1495 0.950 . S
H1490 C1496 0.949 . S
C1491 H1486 0.950 . S
C1491 C1493 1.327 . S
C1491 C1497 1.429 . S
C1492 C1484 1.574 . S
C1492 H1487 0.949 . S
C1492 C1498 1.368 . S
C1493 C1477 1.349 . S
C1493 H1485 0.950 . S
C1493 C1491 1.327 . S
C1494 C1482 1.349 . S
C1494 H1488 0.950 . S
C1494 C1495 1.327 . S
C1495 H1489 0.950 . S
C1495 C1494 1.327 . S
C1495 C1499 1.429 . S
C1496 C1479 1.574 . S
C1496 H1490 0.949 . S
C1496 C1500 1.368 . S
C1497 C1478 1.429 . S
C1497 C1491 1.429 . S
C1497 C1498 1.523 . S
C1498 C1479 1.368 . S
C1498 C1492 1.368 . S
C1498 C1497 1.523 . S
C1499 C1483 1.429 . S
C1499 C1495 1.429 . S
C1499 C1500 1.523 . S
C1500 C1484 1.368 . S
C1500 C1496 1.368 . S
C1500 C1499 1.523 . S
H1501 C1476 0.950 . S
H1502 C1478 0.950 . S
H1503 C1479 0.949 . S
H1504 C1481 0.950 . S
H1505 C1483 0.950 . S
C1506 C1507 1.349 . S
C1506 C1508 1.327 . S
C1506 H1531 0.950 . S
C1507 C1506 1.349 . S
C1507 C1523 1.349 . S
C1508 C1506 1.327 . S
C1508 C1527 1.429 . S
C1508 H1532 0.950 . S
C1509 C1526 1.574 . S
C1509 C1528 1.368 . S
C1509 H1533 0.949 . S
H1510 C1514 0.949 1_556 S
C1511 C1512 1.349 . S
C1511 C1513 1.327 . S
C1511 H1534 0.950 . S
C1512 C1511 1.349 . S
C1512 C1524 1.349 . S
C1513 C1511 1.327 . S
C1513 C1529 1.429 . S
C1513 H1535 0.950 . S
C1514 H1510 0.949 1_554 S
C1514 C1522 1.574 . S
C1514 C1530 1.368 1_554 S
H1515 C1523 0.950 . S
H1516 C1521 0.950 . S
H1517 C1522 0.949 . S
H1518 C1524 0.950 . S
H1519 C1525 0.950 . S
H1520 C1526 0.949 1_556 S
C1521 H1516 0.950 . S
C1521 C1523 1.327 . S
C1521 C1527 1.429 . S
C1522 C1514 1.574 . S
C1522 H1517 0.949 . S
C1522 C1528 1.368 . S
C1523 C1507 1.349 . S
C1523 H1515 0.950 . S
C1523 C1521 1.327 . S
C1524 C1512 1.349 . S
C1524 H1518 0.950 . S
C1524 C1525 1.327 . S
C1525 H1519 0.950 . S
C1525 C1524 1.327 . S
C1525 C1529 1.429 . S
C1526 C1509 1.574 . S
C1526 H1520 0.949 1_554 S
C1526 C1530 1.368 1_554 S
C1527 C1508 1.429 . S
C1527 C1521 1.429 . S
C1527 C1528 1.523 . S
C1528 C1509 1.368 . S
C1528 C1522 1.368 . S
C1528 C1527 1.523 . S
C1529 C1513 1.429 . S
C1529 C1525 1.429 . S
C1529 C1530 1.523 . S
C1530 C1514 1.368 1_556 S
C1530 C1526 1.368 1_556 S
C1530 C1529 1.523 . S
H1531 C1506 0.950 . S
H1532 C1508 0.950 . S
H1533 C1509 0.949 . S
H1534 C1511 0.950 . S
H1535 C1513 0.950 . S
C577 C219 1.388 . S
C582 C3 1.388 . S
C607 C255 1.387 . S
C612 C39 1.387 . S
C637 C75 1.388 . S
C642 C147 1.388 . S
C667 C111 1.387 . S
C672 C183 1.387 . S
C697 C291 1.388 . S
C702 C507 1.388 . S
C727 C543 1.387 . S
C732 C327 1.387 . S
C757 C363 1.388 . S
C762 C435 1.388 . S
C787 C399 1.387 . S
C792 C471 1.387 . S
C817 C4 1.353 . S
C822 C364 1.353 . S
C847 C40 1.353 . S
C852 C400 1.353 . S
C877 C76 1.353 . S
C882 C292 1.353 . S
C907 C112 1.353 . S
C912 C328 1.353 . S
C937 C148 1.353 . S
C942 C508 1.353 . S
C967 C544 1.353 . S
C972 C184 1.353 . S
C997 C220 1.353 . S
C1002 C436 1.353 . S
C1027 C472 1.353 . S
C1032 C256 1.353 . S
C1057 C470 0.585 . S
C1062 C2 0.585 . S
C1087 C38 0.585 . S
C1092 C506 0.585 . S
C1117 C542 0.585 . S
C1122 C74 0.585 . S
C1147 C434 0.585 . S
C1152 C110 0.585 . S
C1177 C398 0.585 . S
C1182 C146 0.585 . S
C1207 C182 0.585 . S
C1212 C290 0.585 . S
C1237 C218 0.585 . S
C1242 C326 0.585 . S
C1267 C254 0.585 . S
C1272 C362 0.585 . S
C1297 C482 1.357 . S
C1302 C14 1.357 . S
C1327 C50 1.357 . S
C1332 C518 1.357 . S
C1357 C86 1.357 . S
C1362 C554 1.357 . S
C1387 C446 1.357 . S
C1392 C122 1.357 . S
C1417 C410 1.357 . S
C1422 C158 1.357 . S
C1447 C302 1.357 . S
C1452 C194 1.357 . S
C1477 C230 1.357 . S
C1482 C338 1.357 . S
C1507 C374 1.357 . S
C1512 C266 1.357 . S
