# Generated by pormake.
# Topology gsi, (4)-cn, num edge types: 1
# Building blocks:
#     Node 0, Type 0, BuildingBlock: KUFVIS_clean_sbu_0, # of connection points: 4
#     Node 1, Type 0, BuildingBlock: KUFVIS_clean_sbu_0, # of connection points: 4
#     Node 2, Type 0, BuildingBlock: KUFVIS_clean_sbu_0, # of connection points: 4
#     Node 3, Type 0, BuildingBlock: KUFVIS_clean_sbu_0, # of connection points: 4
#     Node 4, Type 0, BuildingBlock: KUFVIS_clean_sbu_0, # of connection points: 4
#     Node 5, Type 0, BuildingBlock: KUFVIS_clean_sbu_0, # of connection points: 4
#     Node 6, Type 0, BuildingBlock: KUFVIS_clean_sbu_0, # of connection points: 4
#     Node 7, Type 0, BuildingBlock: KUFVIS_clean_sbu_0, # of connection points: 4
#     Node 8, Type 0, BuildingBlock: KUFVIS_clean_sbu_0, # of connection points: 4
#     Node 9, Type 0, BuildingBlock: KUFVIS_clean_sbu_0, # of connection points: 4
#     Node 10, Type 0, BuildingBlock: KUFVIS_clean_sbu_0, # of connection points: 4
#     Node 11, Type 0, BuildingBlock: KUFVIS_clean_sbu_0, # of connection points: 4
#     Node 12, Type 0, BuildingBlock: KUFVIS_clean_sbu_0, # of connection points: 4
#     Node 13, Type 0, BuildingBlock: KUFVIS_clean_sbu_0, # of connection points: 4
#     Node 14, Type 0, BuildingBlock: KUFVIS_clean_sbu_0, # of connection points: 4
#     Node 15, Type 0, BuildingBlock: KUFVIS_clean_sbu_0, # of connection points: 4
#     Edge 16, Type (0, 0), BuildingBlock: OJICUG_clean_linker_0, # of connection points: 2
#     Edge 17, Type (0, 0), BuildingBlock: OJICUG_clean_linker_0, # of connection points: 2
#     Edge 18, Type (0, 0), BuildingBlock: OJICUG_clean_linker_0, # of connection points: 2
#     Edge 19, Type (0, 0), BuildingBlock: OJICUG_clean_linker_0, # of connection points: 2
#     Edge 20, Type (0, 0), BuildingBlock: OJICUG_clean_linker_0, # of connection points: 2
#     Edge 21, Type (0, 0), BuildingBlock: OJICUG_clean_linker_0, # of connection points: 2
#     Edge 22, Type (0, 0), BuildingBlock: OJICUG_clean_linker_0, # of connection points: 2
#     Edge 23, Type (0, 0), BuildingBlock: OJICUG_clean_linker_0, # of connection points: 2
#     Edge 24, Type (0, 0), BuildingBlock: OJICUG_clean_linker_0, # of connection points: 2
#     Edge 25, Type (0, 0), BuildingBlock: OJICUG_clean_linker_0, # of connection points: 2
#     Edge 26, Type (0, 0), BuildingBlock: OJICUG_clean_linker_0, # of connection points: 2
#     Edge 27, Type (0, 0), BuildingBlock: OJICUG_clean_linker_0, # of connection points: 2
#     Edge 28, Type (0, 0), BuildingBlock: OJICUG_clean_linker_0, # of connection points: 2
#     Edge 29, Type (0, 0), BuildingBlock: OJICUG_clean_linker_0, # of connection points: 2
#     Edge 30, Type (0, 0), BuildingBlock: OJICUG_clean_linker_0, # of connection points: 2
#     Edge 31, Type (0, 0), BuildingBlock: OJICUG_clean_linker_0, # of connection points: 2
#     Edge 32, Type (0, 0), BuildingBlock: OJICUG_clean_linker_0, # of connection points: 2
#     Edge 33, Type (0, 0), BuildingBlock: OJICUG_clean_linker_0, # of connection points: 2
#     Edge 34, Type (0, 0), BuildingBlock: OJICUG_clean_linker_0, # of connection points: 2
#     Edge 35, Type (0, 0), BuildingBlock: OJICUG_clean_linker_0, # of connection points: 2
#     Edge 36, Type (0, 0), BuildingBlock: OJICUG_clean_linker_0, # of connection points: 2
#     Edge 37, Type (0, 0), BuildingBlock: OJICUG_clean_linker_0, # of connection points: 2
#     Edge 38, Type (0, 0), BuildingBlock: OJICUG_clean_linker_0, # of connection points: 2
#     Edge 39, Type (0, 0), BuildingBlock: OJICUG_clean_linker_0, # of connection points: 2
#     Edge 40, Type (0, 0), BuildingBlock: OJICUG_clean_linker_0, # of connection points: 2
#     Edge 41, Type (0, 0), BuildingBlock: OJICUG_clean_linker_0, # of connection points: 2
#     Edge 42, Type (0, 0), BuildingBlock: OJICUG_clean_linker_0, # of connection points: 2
#     Edge 43, Type (0, 0), BuildingBlock: OJICUG_clean_linker_0, # of connection points: 2
#     Edge 44, Type (0, 0), BuildingBlock: OJICUG_clean_linker_0, # of connection points: 2
#     Edge 45, Type (0, 0), BuildingBlock: OJICUG_clean_linker_0, # of connection points: 2
#     Edge 46, Type (0, 0), BuildingBlock: OJICUG_clean_linker_0, # of connection points: 2
#     Edge 47, Type (0, 0), BuildingBlock: OJICUG_clean_linker_0, # of connection points: 2
# Relax obj value: 0.108
# Max RMSD: 0.171
# Mean RMSD: 0.121
data_MOF--net-gsi--node1-KUFVIS_clean_sbu_0--edge1-OJICUG_clean_linker_0
_symmetry_space_group_name_H-M    P1
_symmetry_Int_Tables_number       1
_symmetry_cell_setting            triclinic
loop_
_symmetry_equiv_pos_as_xyz
'x, y, z'
_cell_length_a     31.65725
_cell_length_b     29.142608
_cell_length_c     29.134882
_cell_angle_alpha  92.292649
_cell_angle_beta   91.4972
_cell_angle_gamma 97.88337
loop_
_atom_site_label
_atom_site_type_symbol
_atom_site_fract_x
_atom_site_fract_y
_atom_site_fract_z
_atom_type_partial_charge
Mn0 Mn 0.14931 0.17356 0.14999 0.0
Mn1 Mn 0.10674 0.19408 0.25294 0.0
C2 C 0.1818 0.23798 0.19539 0.0
C3 C 0.19297 0.14173 0.09625 0.0
C4 C 0.06336 0.20809 0.16275 0.0
O5 O 0.11983 0.10882 0.16819 0.0
O6 O 0.10002 0.12658 0.23996 0.0
C7 C 0.14688 0.13989 0.32783 0.0
N8 N 0.1432 0.18777 0.3046 0.0
C9 C 0.20521 0.25295 0.35669 0.0
C10 C 0.21628 0.17466 0.39658 0.0
C11 C 0.18144 0.1302 0.37128 0.0
C12 C 0.16503 0.2383 0.3143 0.0
H13 H 0.12598 0.10951 0.31512 0.0
C14 C 0.10626 0.09714 0.20794 0.0
O15 O 0.15582 0.15222 0.08535 0.0
O16 O 0.2045 0.14728 0.13959 0.0
N17 N 0.11327 0.25985 0.26736 0.0
C18 C 0.08755 0.29078 0.25329 0.0
C19 C 0.09697 0.33759 0.26757 0.0
C20 C 0.13204 0.35212 0.29746 0.0
C21 C 0.15696 0.31963 0.31399 0.0
C22 C 0.14595 0.27313 0.29749 0.0
H23 H 0.05929 0.27972 0.23228 0.0
O24 O 0.18266 0.23699 0.15079 0.0
O25 O 0.15851 0.20201 0.21234 0.0
O26 O 0.09432 0.20205 0.13768 0.0
O27 O 0.06358 0.20054 0.20513 0.0
C28 C 0.19225 0.33397 0.34491 0.0
C29 C 0.21761 0.30386 0.3655 0.0
H30 H 0.23733 0.16703 0.42482 0.0
H31 H 0.18091 0.09553 0.38337 0.0
H32 H 0.07691 0.36234 0.25599 0.0
H33 H 0.13903 0.38843 0.30833 0.0
H34 H 0.20084 0.37061 0.3536 0.0
H35 H 0.2125 0.26994 0.36322 0.0
Mn36 Mn 0.85371 0.36452 0.17071 0.0
Mn37 Mn 0.90077 0.34085 0.27167 0.0
C38 C 0.82099 0.30273 0.21155 0.0
C39 C 0.80692 0.39837 0.1226 0.0
C40 C 0.93604 0.32082 0.17839 0.0
O41 O 0.88723 0.42691 0.19306 0.0
O42 O 0.91529 0.40821 0.2609 0.0
C43 C 0.87324 0.40669 0.34767 0.0
N44 N 0.8695 0.35582 0.32445 0.0
C45 C 0.80496 0.30394 0.37419 0.0
C46 C 0.80517 0.38786 0.41474 0.0
C47 C 0.84312 0.42543 0.39023 0.0
C48 C 0.8423 0.30877 0.33405 0.0
H49 H 0.897 0.43316 0.33566 0.0
C50 C 0.90607 0.43791 0.23228 0.0
O51 O 0.84236 0.38649 0.10834 0.0
O52 O 0.79956 0.3934 0.16592 0.0
N53 N 0.88658 0.27644 0.28479 0.0
C54 C 0.90582 0.24019 0.26868 0.0
C55 C 0.89148 0.19519 0.28193 0.0
C56 C 0.858 0.18785 0.31243 0.0
C57 C 0.83962 0.22569 0.33023 0.0
C58 C 0.85532 0.26985 0.31539 0.0
H59 H 0.93261 0.24557 0.2466 0.0
O60 O 0.81797 0.30265 0.16696 0.0
O61 O 0.84739 0.33725 0.23089 0.0
O62 O 0.90656 0.33428 0.15437 0.0
O63 O 0.93745 0.32399 0.22194 0.0
C64 C 0.80578 0.21953 0.36089 0.0
C65 C 0.78718 0.25651 0.3806 0.0
H66 H 0.78669 0.4007 0.44249 0.0
H67 H 0.8486 0.46138 0.40231 0.0
H68 H 0.90641 0.16626 0.2689 0.0
H69 H 0.84693 0.15293 0.32239 0.0
H70 H 0.79296 0.18469 0.36973 0.0
H71 H 0.76118 0.24633 0.403 0.0
Mn72 Mn 0.16114 0.89657 0.3706 0.0
Mn73 Mn 0.15261 0.79281 0.42202 0.0
C74 C 0.20998 0.84555 0.35505 0.0
C75 C 0.14119 0.94455 0.31239 0.0
C76 C 0.18928 0.88375 0.47093 0.0
O77 O 0.09988 0.88752 0.39242 0.0
O78 O 0.09812 0.81702 0.42153 0.0
C79 C 0.09315 0.73718 0.35408 0.0
N80 N 0.1303 0.74309 0.37963 0.0
C81 C 0.14619 0.66791 0.3544 0.0
C82 C 0.108 0.6609 0.32796 0.0
C83 C 0.08148 0.69581 0.32763 0.0
C84 C 0.15623 0.70998 0.3798 0.0
H85 H 0.07258 0.76376 0.35394 0.0
C86 C 0.08031 0.85164 0.41023 0.0
O87 O 0.15515 0.96107 0.35276 0.0
O88 O 0.13909 0.90003 0.30515 0.0
N89 N 0.2027 0.76334 0.42505 0.0
C90 C 0.23878 0.77613 0.45151 0.0
C91 C 0.26784 0.74446 0.45717 0.0
C92 C 0.25985 0.70026 0.43501 0.0
C93 C 0.223 0.6882 0.4072 0.0
C94 C 0.19436 0.72051 0.40435 0.0
H95 H 0.2446 0.80959 0.46954 0.0
O96 O 0.21902 0.88952 0.34785 0.0
O97 O 0.17234 0.83229 0.3707 0.0
O98 O 0.18668 0.90964 0.43684 0.0
O99 O 0.17597 0.84044 0.46908 0.0
C100 C 0.21312 0.64504 0.38298 0.0
C101 C 0.17495 0.63511 0.35615 0.0
H102 H 0.09887 0.62901 0.30757 0.0
H103 H 0.05202 0.69076 0.30721 0.0
H104 H 0.29558 0.75381 0.47969 0.0
H105 H 0.28149 0.67528 0.44047 0.0
H106 H 0.23484 0.61942 0.38441 0.0
H107 H 0.16801 0.60215 0.33705 0.0
Mn108 Mn 0.84628 0.67878 0.38776 0.0
Mn109 Mn 0.86998 0.70483 0.27801 0.0
C110 C 0.81662 0.73738 0.35198 0.0
C111 C 0.80578 0.64155 0.44552 0.0
C112 C 0.92792 0.73835 0.3597 0.0
O113 O 0.87022 0.62016 0.36283 0.0
O114 O 0.88247 0.64152 0.29011 0.0
C115 C 0.80328 0.63696 0.23042 0.0
N116 N 0.82309 0.68125 0.23732 0.0
C117 C 0.77635 0.70876 0.18159 0.0
C118 C 0.75566 0.66334 0.17355 0.0
C119 C 0.76915 0.62726 0.1982 0.0
C120 C 0.81024 0.71625 0.214 0.0
H121 H 0.81332 0.60943 0.24953 0.0
C122 C 0.8823 0.61237 0.3218 0.0
O123 O 0.84543 0.65889 0.4525 0.0
O124 O 0.79059 0.64206 0.40364 0.0
N125 N 0.85951 0.76486 0.26055 0.0
C126 C 0.88006 0.80734 0.27522 0.0
C127 C 0.87029 0.84719 0.25413 0.0
C128 C 0.83935 0.84299 0.21834 0.0
C129 C 0.81848 0.79896 0.20416 0.0
C130 C 0.83016 0.76043 0.2257 0.0
H131 H 0.90315 0.81104 0.30332 0.0
O132 O 0.81935 0.73698 0.39645 0.0
O133 O 0.83081 0.7035 0.3296 0.0
O134 O 0.90483 0.71812 0.38997 0.0
O135 O 0.91928 0.7328 0.31675 0.0
C136 C 0.78543 0.79207 0.17064 0.0
C137 C 0.76388 0.7471 0.15971 0.0
H138 H 0.72911 0.65586 0.14895 0.0
H139 H 0.75319 0.59213 0.19252 0.0
H140 H 0.88619 0.88106 0.2658 0.0
H141 H 0.83125 0.87384 0.20263 0.0
H142 H 0.77591 0.8217 0.15445 0.0
H143 H 0.73721 0.74221 0.13522 0.0
Mn144 Mn 0.35399 0.86491 0.66999 0.0
Mn145 Mn 0.40105 0.84134 0.77098 0.0
C146 C 0.32127 0.80314 0.71088 0.0
C147 C 0.30721 0.89874 0.62184 0.0
C148 C 0.43637 0.82132 0.67775 0.0
O149 O 0.38751 0.92732 0.6923 0.0
O150 O 0.4155 0.90869 0.7602 0.0
C151 C 0.37347 0.90712 0.84698 0.0
N152 N 0.36977 0.85625 0.82375 0.0
C153 C 0.30531 0.8043 0.87353 0.0
C154 C 0.30546 0.8882 0.9141 0.0
C155 C 0.34336 0.92581 0.88957 0.0
C156 C 0.34262 0.80918 0.83337 0.0
H157 H 0.39719 0.93362 0.83496 0.0
C158 C 0.40633 0.93836 0.73153 0.0
O159 O 0.34264 0.88683 0.60759 0.0
O160 O 0.29984 0.89379 0.66516 0.0
N161 N 0.38693 0.77691 0.78409 0.0
C162 C 0.40619 0.7407 0.76795 0.0
C163 C 0.39189 0.69568 0.78119 0.0
C164 C 0.35843 0.6883 0.81171 0.0
C165 C 0.34003 0.72611 0.82953 0.0
C166 C 0.35568 0.77028 0.8147 0.0
H167 H 0.43296 0.7461 0.74585 0.0
O168 O 0.31824 0.80304 0.66629 0.0
O169 O 0.34767 0.83769 0.7302 0.0
O170 O 0.40685 0.83465 0.65369 0.0
O171 O 0.43778 0.82457 0.72129 0.0
C172 C 0.3062 0.71991 0.86021 0.0
C173 C 0.28757 0.75685 0.87994 0.0
H174 H 0.28698 0.90101 0.94188 0.0
H175 H 0.34881 0.96177 0.90166 0.0
H176 H 0.40685 0.66678 0.76814 0.0
H177 H 0.3474 0.65337 0.82167 0.0
H178 H 0.29341 0.68505 0.86904 0.0
H179 H 0.26159 0.74665 0.90234 0.0
Mn180 Mn 0.85552 0.87466 0.86901 0.0
Mn181 Mn 0.82904 0.76403 0.90172 0.0
C182 C 0.82957 0.81643 0.81267 0.0
C183 C 0.85195 0.95201 0.84805 0.0
C184 C 0.91905 0.81171 0.90305 0.0
O185 O 0.8381 0.88347 0.93718 0.0
O186 O 0.81898 0.80789 0.95222 0.0
C187 C 0.73636 0.75034 0.93477 0.0
N188 N 0.76959 0.74154 0.89641 0.0
C189 C 0.71672 0.68857 0.82499 0.0
C190 C 0.65781 0.70363 0.88523 0.0
C191 C 0.68235 0.7344 0.93203 0.0
C192 C 0.76572 0.71472 0.84912 0.0
H193 H 0.74815 0.76875 0.96603 0.0
C194 C 0.82173 0.8513 0.96327 0.0
O195 O 0.88556 0.93879 0.86593 0.0
O196 O 0.81794 0.92111 0.84566 0.0
N197 N 0.83835 0.72086 0.85226 0.0
C198 C 0.87629 0.70834 0.83885 0.0
C199 C 0.87706 0.67586 0.80227 0.0
C200 C 0.83885 0.65616 0.77978 0.0
C201 C 0.79982 0.66874 0.794 0.0
C202 C 0.80146 0.70198 0.83095 0.0
H203 H 0.90602 0.72264 0.85605 0.0
O204 O 0.85743 0.85159 0.80327 0.0
O205 O 0.82116 0.81358 0.85635 0.0
O206 O 0.91029 0.84834 0.88548 0.0
O207 O 0.89054 0.77929 0.9126 0.0
C208 C 0.76102 0.64969 0.77051 0.0
C209 C 0.72018 0.65894 0.78271 0.0
H210 H 0.62323 0.69347 0.88526 0.0
H211 H 0.66347 0.74337 0.96058 0.0
H212 H 0.90711 0.66595 0.79144 0.0
H213 H 0.8399 0.63122 0.75137 0.0
H214 H 0.76234 0.62664 0.74064 0.0
H215 H 0.71348 0.67706 0.80992 0.0
Mn216 Mn 0.1522 0.70109 0.8805 0.0
Mn217 Mn 0.18522 0.81433 0.91213 0.0
C218 C 0.17582 0.75284 0.82385 0.0
C219 C 0.15808 0.62324 0.86023 0.0
C220 C 0.0927 0.77121 0.90897 0.0
O221 O 0.17128 0.69781 0.94826 0.0
O222 O 0.19164 0.77425 0.96475 0.0
C223 C 0.27837 0.81815 0.94913 0.0
N224 N 0.24613 0.82922 0.90954 0.0
C225 C 0.30036 0.86933 0.84165 0.0
C226 C 0.35874 0.85066 0.90345 0.0
C227 C 0.33267 0.82631 0.94882 0.0
C228 C 0.25211 0.8523 0.86241 0.0
H229 H 0.2654 0.80351 0.9799 0.0
C230 C 0.1878 0.73165 0.97551 0.0
O231 O 0.12348 0.63574 0.87613 0.0
O232 O 0.19088 0.65537 0.85965 0.0
N233 N 0.18025 0.85552 0.86304 0.0
C234 C 0.14572 0.87677 0.85251 0.0
C235 C 0.14716 0.90705 0.81631 0.0
C236 C 0.18498 0.91718 0.79271 0.0
C237 C 0.22145 0.89837 0.80673 0.0
C238 C 0.21755 0.86754 0.84274 0.0
H239 H 0.11791 0.87237 0.87303 0.0
O240 O 0.14667 0.71748 0.81487 0.0
O241 O 0.18697 0.75998 0.86746 0.0
O242 O 0.09906 0.73054 0.89688 0.0
O243 O 0.12268 0.80452 0.91612 0.0
C244 C 0.26052 0.90962 0.78517 0.0
C245 C 0.29839 0.89403 0.8 0.0
H246 H 0.39364 0.85598 0.90429 0.0
H247 H 0.35078 0.81654 0.97796 0.0
H248 H 0.11952 0.92333 0.80735 0.0
H249 H 0.18608 0.94084 0.76487 0.0
H250 H 0.26182 0.93133 0.75574 0.0
H251 H 0.32574 0.90494 0.77985 0.0
Mn252 Mn 0.84097 0.19763 0.69765 0.0
Mn253 Mn 0.90701 0.23141 0.79012 0.0
C254 C 0.8124 0.22247 0.76581 0.0
C255 C 0.80084 0.20868 0.63073 0.0
C256 C 0.87793 0.13031 0.7607 0.0
O257 O 0.89937 0.21435 0.66774 0.0
O258 O 0.93836 0.23893 0.73214 0.0
C259 C 0.92967 0.33173 0.77455 0.0
N260 N 0.91531 0.29708 0.80253 0.0
C261 C 0.91508 0.3514 0.86697 0.0
C262 C 0.93012 0.3876 0.8388 0.0
C263 C 0.93714 0.37773 0.79227 0.0
C264 C 0.90758 0.30634 0.84712 0.0
H265 H 0.93533 0.32426 0.7391 0.0
C266 C 0.9341 0.23303 0.68843 0.0
O267 O 0.81269 0.169 0.63921 0.0
O268 O 0.81498 0.24303 0.6594 0.0
N269 N 0.88222 0.22761 0.84935 0.0
C270 C 0.86912 0.18864 0.87242 0.0
C271 C 0.86448 0.19194 0.92011 0.0
C272 C 0.8719 0.23538 0.94359 0.0
C273 C 0.88427 0.27517 0.91919 0.0
C274 C 0.89054 0.26947 0.87202 0.0
H275 H 0.86389 0.15491 0.85507 0.0
O276 O 0.79042 0.19342 0.73636 0.0
O277 O 0.8522 0.23495 0.75594 0.0
O278 O 0.85553 0.13789 0.7257 0.0
O279 O 0.90111 0.16284 0.78382 0.0
C280 C 0.8924 0.32003 0.94021 0.0
C281 C 0.90719 0.35824 0.91394 0.0
H282 H 0.93624 0.42309 0.85247 0.0
H283 H 0.94862 0.40546 0.7702 0.0
H284 H 0.85548 0.16094 0.93881 0.0
H285 H 0.86843 0.23768 0.98047 0.0
H286 H 0.8875 0.32549 0.97658 0.0
H287 H 0.91295 0.39264 0.93034 0.0
Mn288 Mn 0.18143 0.38184 0.6899 0.0
Mn289 Mn 0.13179 0.33976 0.78478 0.0
C290 C 0.21969 0.3557 0.75113 0.0
C291 C 0.21144 0.3742 0.61687 0.0
C292 C 0.14787 0.44234 0.76538 0.0
O293 O 0.1185 0.36304 0.66661 0.0
O294 O 0.09152 0.32959 0.73065 0.0
C295 C 0.11408 0.23884 0.76105 0.0
N296 N 0.13293 0.27448 0.78937 0.0
C297 C 0.15966 0.22122 0.84033 0.0
C298 C 0.14081 0.18409 0.81135 0.0
C299 C 0.11789 0.19297 0.77155 0.0
C300 C 0.15462 0.26626 0.82814 0.0
H301 H 0.09615 0.24537 0.73086 0.0
C302 C 0.08861 0.33899 0.68807 0.0
O303 O 0.20082 0.41328 0.63202 0.0
O304 O 0.20134 0.33903 0.64241 0.0
N305 N 0.16891 0.34653 0.83854 0.0
C306 C 0.18769 0.38615 0.8614 0.0
C307 C 0.2128 0.38321 0.90133 0.0
C308 C 0.21833 0.33964 0.91751 0.0
C309 C 0.19867 0.29934 0.89358 0.0
C310 C 0.1737 0.3044 0.85415 0.0
H311 H 0.18379 0.41983 0.84927 0.0
O312 O 0.23861 0.38509 0.72341 0.0
O313 O 0.17939 0.34332 0.74278 0.0
O314 O 0.16836 0.43814 0.72875 0.0
O315 O 0.12963 0.40757 0.78608 0.0
C316 C 0.20362 0.25436 0.90682 0.0
C317 C 0.18413 0.21533 0.88022 0.0
H318 H 0.14393 0.14866 0.81919 0.0
H319 H 0.10312 0.1645 0.74902 0.0
H320 H 0.228 0.4145 0.91951 0.0
H321 H 0.23805 0.33752 0.94809 0.0
H322 H 0.22287 0.24939 0.93704 0.0
H323 H 0.18869 0.18095 0.89037 0.0
Mn324 Mn 0.65192 0.20078 0.38115 0.0
Mn325 Mn 0.68486 0.31407 0.41266 0.0
C326 C 0.67551 0.25248 0.32445 0.0
C327 C 0.65786 0.12293 0.36097 0.0
C328 C 0.59235 0.27089 0.4094 0.0
O329 O 0.67097 0.19757 0.44892 0.0
O330 O 0.69121 0.27404 0.46534 0.0
C331 C 0.77799 0.31784 0.44976 0.0
N332 N 0.74579 0.32894 0.41014 0.0
C333 C 0.8001 0.36898 0.34229 0.0
C334 C 0.85841 0.35025 0.40413 0.0
C335 C 0.83229 0.32593 0.4495 0.0
C336 C 0.75182 0.352 0.36301 0.0
H337 H 0.76499 0.30322 0.48053 0.0
C338 C 0.68742 0.23146 0.47615 0.0
O339 O 0.62324 0.13542 0.37683 0.0
O340 O 0.69065 0.15508 0.36038 0.0
N341 N 0.67996 0.35523 0.36354 0.0
C342 C 0.64547 0.37653 0.35299 0.0
C343 C 0.64696 0.40681 0.31679 0.0
C344 C 0.6848 0.41691 0.29322 0.0
C345 C 0.72124 0.39807 0.30727 0.0
C346 C 0.71729 0.36724 0.34328 0.0
H347 H 0.61765 0.37218 0.37351 0.0
O348 O 0.64639 0.21709 0.31549 0.0
O349 O 0.68666 0.25968 0.36805 0.0
O350 O 0.59876 0.2302 0.39745 0.0
O351 O 0.62229 0.30424 0.41652 0.0
C352 C 0.76033 0.4093 0.28576 0.0
C353 C 0.79819 0.3937 0.30064 0.0
H354 H 0.89331 0.35554 0.405 0.0
H355 H 0.85037 0.31615 0.47865 0.0
H356 H 0.61934 0.42312 0.30781 0.0
H357 H 0.68594 0.44057 0.26538 0.0
H358 H 0.76168 0.43102 0.25634 0.0
H359 H 0.82556 0.40461 0.28052 0.0
Mn360 Mn 0.64992 0.67425 0.65086 0.0
Mn361 Mn 0.60725 0.69531 0.75366 0.0
C362 C 0.68243 0.73881 0.69607 0.0
C363 C 0.69356 0.64215 0.59731 0.0
C364 C 0.56403 0.70905 0.66328 0.0
O365 O 0.62032 0.60965 0.66924 0.0
O366 O 0.60031 0.62776 0.74084 0.0
C367 C 0.64713 0.64109 0.82873 0.0
N368 N 0.6436 0.68896 0.80542 0.0
C369 C 0.70574 0.75404 0.85746 0.0
C370 C 0.71657 0.67574 0.89747 0.0
C371 C 0.68163 0.63134 0.87222 0.0
C372 C 0.66556 0.73945 0.81506 0.0
H373 H 0.62616 0.61076 0.81606 0.0
C374 C 0.60658 0.59816 0.70898 0.0
O375 O 0.65644 0.65265 0.58632 0.0
O376 O 0.70508 0.64786 0.64064 0.0
N377 N 0.614 0.76112 0.76793 0.0
C378 C 0.58849 0.79216 0.75365 0.0
C379 C 0.59804 0.83898 0.76786 0.0
C380 C 0.63304 0.85342 0.79786 0.0
C381 C 0.65779 0.82084 0.81454 0.0
C382 C 0.64664 0.77433 0.79814 0.0
H383 H 0.56029 0.78119 0.73252 0.0
O384 O 0.68333 0.73765 0.65147 0.0
O385 O 0.65907 0.70294 0.71312 0.0
O386 O 0.59496 0.70272 0.63829 0.0
O387 O 0.56423 0.70188 0.70574 0.0
C388 C 0.69306 0.83511 0.84552 0.0
C389 C 0.71829 0.80494 0.8662 0.0
H390 H 0.73757 0.66808 0.92573 0.0
H391 H 0.68099 0.59668 0.88436 0.0
H392 H 0.57813 0.86382 0.75612 0.0
H393 H 0.64014 0.88974 0.80865 0.0
H394 H 0.70175 0.87174 0.85415 0.0
H395 H 0.71308 0.77102 0.86397 0.0
Mn396 Mn 0.66098 0.39697 0.87132 0.0
Mn397 Mn 0.65251 0.29284 0.92205 0.0
C398 C 0.70989 0.34612 0.85549 0.0
C399 C 0.64107 0.44528 0.81341 0.0
C400 C 0.68913 0.3835 0.97153 0.0
O401 O 0.5997 0.3877 0.89303 0.0
O402 O 0.59803 0.3171 0.92192 0.0
C403 C 0.59293 0.23778 0.85383 0.0
N404 N 0.63011 0.24346 0.87933 0.0
C405 C 0.64599 0.16853 0.85324 0.0
C406 C 0.60777 0.16177 0.82687 0.0
C407 C 0.58123 0.19667 0.827 0.0
C408 C 0.65604 0.21034 0.87907 0.0
H409 H 0.57236 0.26437 0.85402 0.0
C410 C 0.58017 0.35174 0.91075 0.0
O411 O 0.65494 0.46158 0.85389 0.0
O412 O 0.63905 0.40081 0.8059 0.0
N413 N 0.70258 0.26329 0.92469 0.0
C414 C 0.73873 0.27585 0.95109 0.0
C415 C 0.76787 0.24419 0.95618 0.0
C416 C 0.7599 0.20023 0.93353 0.0
C417 C 0.72292 0.18836 0.90588 0.0
C418 C 0.69421 0.22065 0.90358 0.0
H419 H 0.74456 0.30913 0.96946 0.0
O420 O 0.71893 0.39016 0.84859 0.0
O421 O 0.67223 0.33271 0.87102 0.0
O422 O 0.68641 0.40963 0.93766 0.0
O423 O 0.67597 0.34014 0.96939 0.0
C424 C 0.71304 0.14546 0.88121 0.0
C425 C 0.6748 0.13575 0.85448 0.0
H426 H 0.59863 0.13008 0.80616 0.0
H427 H 0.55174 0.19181 0.80663 0.0
H428 H 0.79568 0.25334 0.97864 0.0
H429 H 0.78166 0.17527 0.93846 0.0
H430 H 0.73481 0.11987 0.88221 0.0
H431 H 0.66785 0.10299 0.83503 0.0
Mn432 Mn 0.34616 0.17887 0.88701 0.0
Mn433 Mn 0.37032 0.20516 0.77742 0.0
C434 C 0.31666 0.23752 0.85118 0.0
C435 C 0.30545 0.14159 0.94459 0.0
C436 C 0.42786 0.23869 0.85941 0.0
O437 O 0.37012 0.12028 0.86213 0.0
O438 O 0.38309 0.14197 0.78966 0.0
C439 C 0.30419 0.13687 0.72947 0.0
N440 N 0.32367 0.18128 0.73652 0.0
C441 C 0.27693 0.20843 0.68055 0.0
C442 C 0.25656 0.1629 0.6724 0.0
C443 C 0.27022 0.12694 0.69709 0.0
C444 C 0.31067 0.21616 0.71313 0.0
H445 H 0.31438 0.10942 0.74858 0.0
C446 C 0.38264 0.1127 0.82125 0.0
O447 O 0.34509 0.15889 0.95172 0.0
O448 O 0.29037 0.14218 0.90267 0.0
N449 N 0.35961 0.26507 0.7598 0.0
C450 C 0.37998 0.30765 0.77441 0.0
C451 C 0.37007 0.34738 0.75322 0.0
C452 C 0.33919 0.34297 0.71736 0.0
C453 C 0.31853 0.29884 0.7032 0.0
C454 C 0.33035 0.26043 0.72486 0.0
H455 H 0.40303 0.3115 0.80256 0.0
O456 O 0.31926 0.23708 0.89566 0.0
O457 O 0.3309 0.20366 0.82881 0.0
O458 O 0.40476 0.21815 0.88949 0.0
O459 O 0.41932 0.23343 0.81642 0.0
C460 C 0.28558 0.29173 0.66955 0.0
C461 C 0.26431 0.24665 0.65857 0.0
H462 H 0.23014 0.15523 0.64766 0.0
H463 H 0.25452 0.09171 0.6913 0.0
H464 H 0.38582 0.38132 0.76485 0.0
H465 H 0.33099 0.37373 0.70156 0.0
H466 H 0.27595 0.32125 0.65328 0.0
H467 H 0.23777 0.24156 0.63393 0.0
Mn468 Mn 0.35506 0.37379 0.36817 0.0
Mn469 Mn 0.32855 0.26322 0.40096 0.0
C470 C 0.32904 0.31555 0.31188 0.0
C471 C 0.3516 0.45115 0.34714 0.0
C472 C 0.41856 0.31092 0.40239 0.0
O473 O 0.33765 0.38265 0.43632 0.0
O474 O 0.31838 0.3071 0.45142 0.0
C475 C 0.23588 0.24925 0.43397 0.0
N476 N 0.26913 0.24063 0.39559 0.0
C477 C 0.21636 0.1876 0.32412 0.0
C478 C 0.15741 0.20236 0.38442 0.0
C479 C 0.18189 0.23313 0.43124 0.0
C480 C 0.26532 0.21387 0.34826 0.0
H481 H 0.24764 0.26765 0.46526 0.0
C482 C 0.3212 0.35053 0.46243 0.0
O483 O 0.38517 0.43788 0.36505 0.0
O484 O 0.31755 0.4203 0.34476 0.0
N485 N 0.33795 0.22008 0.35151 0.0
C486 C 0.37593 0.20763 0.33813 0.0
C487 C 0.37677 0.17522 0.3015 0.0
C488 C 0.33861 0.1555 0.27894 0.0
C489 C 0.29954 0.168 0.29315 0.0
C490 C 0.3011 0.2012 0.33012 0.0
H491 H 0.40563 0.22195 0.35538 0.0
O492 O 0.35694 0.35066 0.30244 0.0
O493 O 0.32066 0.31274 0.35557 0.0
O494 O 0.40982 0.34748 0.38468 0.0
O495 O 0.39003 0.27853 0.41197 0.0
C496 C 0.26077 0.14891 0.2696 0.0
C497 C 0.21989 0.15804 0.2818 0.0
H498 H 0.12285 0.19208 0.38445 0.0
H499 H 0.16299 0.24199 0.45982 0.0
H500 H 0.40685 0.16537 0.29069 0.0
H501 H 0.33971 0.13061 0.25051 0.0
H502 H 0.26214 0.12592 0.2397 0.0
H503 H 0.21315 0.1761 0.30905 0.0
Mn504 Mn 0.34095 0.6971 0.19711 0.0
Mn505 Mn 0.4068 0.73046 0.28982 0.0
C506 C 0.31228 0.72178 0.26529 0.0
C507 C 0.30105 0.70844 0.13013 0.0
C508 C 0.3778 0.6295 0.2599 0.0
O509 O 0.3995 0.71385 0.16747 0.0
O510 O 0.4383 0.73849 0.232 0.0
C511 C 0.42948 0.83095 0.2751 0.0
N512 N 0.41492 0.79605 0.30272 0.0
C513 C 0.41406 0.84989 0.36747 0.0
C514 C 0.42923 0.88635 0.33965 0.0
C515 C 0.43669 0.87684 0.29316 0.0
C516 C 0.40682 0.80496 0.34728 0.0
H517 H 0.4355 0.82377 0.23969 0.0
C518 C 0.43415 0.73266 0.18828 0.0
O519 O 0.3128 0.6687 0.13853 0.0
O520 O 0.31517 0.74269 0.15892 0.0
N521 N 0.38174 0.72611 0.34888 0.0
C522 C 0.36861 0.68693 0.3716 0.0
C523 C 0.36367 0.68985 0.41924 0.0
C524 C 0.37082 0.73313 0.44305 0.0
C525 C 0.38318 0.77316 0.41899 0.0
C526 C 0.38975 0.76784 0.37184 0.0
H527 H 0.36358 0.65332 0.35402 0.0
O528 O 0.29027 0.69292 0.2357 0.0
O529 O 0.35212 0.73415 0.25552 0.0
O530 O 0.35529 0.63722 0.22504 0.0
O531 O 0.4011 0.66193 0.28302 0.0
C532 C 0.391 0.81788 0.44032 0.0
C533 C 0.40583 0.85635 0.4144 0.0
H534 H 0.43516 0.92174 0.35359 0.0
H535 H 0.4483 0.90477 0.27138 0.0
H536 H 0.35464 0.65867 0.43767 0.0
H537 H 0.36715 0.73513 0.4799 0.0
H538 H 0.38585 0.82306 0.47667 0.0
H539 H 0.41137 0.89064 0.43105 0.0
Mn540 Mn 0.68144 0.88171 0.19054 0.0
Mn541 Mn 0.6316 0.83948 0.28527 0.0
C542 C 0.71958 0.85546 0.25182 0.0
C543 C 0.71162 0.87429 0.11756 0.0
C544 C 0.64776 0.94209 0.26604 0.0
O545 O 0.61855 0.86292 0.1671 0.0
O546 O 0.59143 0.82943 0.23105 0.0
C547 C 0.61388 0.73861 0.26136 0.0
N548 N 0.63267 0.77419 0.28978 0.0
C549 C 0.65921 0.72081 0.34075 0.0
C550 C 0.6404 0.68374 0.31168 0.0
C551 C 0.61761 0.6927 0.27182 0.0
C552 C 0.65425 0.76588 0.3286 0.0
H553 H 0.59606 0.7452 0.23111 0.0
C554 C 0.5886 0.83887 0.18849 0.0
O555 O 0.70093 0.91332 0.13278 0.0
O556 O 0.70147 0.83904 0.14298 0.0
N557 N 0.66861 0.84614 0.33911 0.0
C558 C 0.68741 0.88572 0.36203 0.0
C559 C 0.71244 0.88269 0.40201 0.0
C560 C 0.71787 0.83908 0.41816 0.0
C561 C 0.6982 0.79882 0.39417 0.0
C562 C 0.67332 0.80397 0.35469 0.0
H563 H 0.6836 0.91942 0.34993 0.0
O564 O 0.73856 0.88491 0.22419 0.0
O565 O 0.6793 0.84308 0.24337 0.0
O566 O 0.6683 0.93794 0.22944 0.0
O567 O 0.62949 0.9073 0.28668 0.0
C568 C 0.70306 0.75381 0.40737 0.0
C569 C 0.68358 0.71483 0.38069 0.0
H570 H 0.64346 0.64829 0.31948 0.0
H571 H 0.60288 0.66428 0.24921 0.0
H572 H 0.72765 0.91394 0.42024 0.0
H573 H 0.73752 0.8369 0.44878 0.0
H574 H 0.72224 0.74878 0.43763 0.0
H575 H 0.68808 0.68043 0.39082 0.0
C576 C 0.25947 0.24126 0.21957 0.0
C577 C 0.22159 0.26165 0.2204 0.0
H578 H 0.32454 0.24407 0.24522 0.0
C579 C 0.22447 0.30634 0.24098 0.0
H580 H 0.26057 0.20976 0.19891 0.0
C581 C 0.26008 0.32444 0.26959 0.0
C582 C 0.29464 0.29935 0.27594 0.0
H583 H 0.19867 0.32658 0.23611 0.0
H584 H 0.26023 0.35769 0.28756 0.0
C585 C 0.29599 0.26057 0.24626 0.0
C586 C 0.77383 0.24214 0.25413 0.0
C587 C 0.78058 0.28548 0.2346 0.0
H588 H 0.7357 0.19839 0.29935 0.0
C589 C 0.74627 0.31162 0.2342 0.0
H590 H 0.79652 0.21798 0.24923 0.0
C591 C 0.71008 0.29916 0.26042 0.0
C592 C 0.70854 0.2616 0.28899 0.0
H593 H 0.74782 0.34242 0.21454 0.0
H594 H 0.68432 0.32 0.26 0.0
C595 C 0.73864 0.23076 0.2821 0.0
C596 C 0.30605 0.79592 0.31068 0.0
C597 C 0.28825 0.75111 0.29483 0.0
H598 H 0.29626 0.85971 0.34555 0.0
C599 C 0.24402 0.73844 0.29836 0.0
H600 H 0.33789 0.80967 0.30238 0.0
C601 C 0.2188 0.76992 0.31651 0.0
C602 C 0.23736 0.81247 0.33682 0.0
H603 H 0.22826 0.70548 0.28393 0.0
H604 H 0.18455 0.76161 0.31309 0.0
C605 C 0.28139 0.82555 0.33333 0.0
C606 C 0.75861 0.7497 0.29755 0.0
C607 C 0.79103 0.76872 0.32904 0.0
H608 H 0.71187 0.76277 0.24742 0.0
C609 C 0.7986 0.81701 0.33753 0.0
H610 H 0.75152 0.71249 0.29137 0.0
C611 C 0.7757 0.84606 0.31227 0.0
C612 C 0.74401 0.82674 0.27983 0.0
H613 H 0.8232 0.83222 0.36226 0.0
H614 H 0.78254 0.8833 0.31814 0.0
C615 C 0.73578 0.77843 0.27272 0.0
C616 C 0.24654 0.812 0.73355 0.0
C617 C 0.28087 0.78588 0.73395 0.0
H618 H 0.18459 0.82034 0.75937 0.0
C619 C 0.27415 0.74255 0.75351 0.0
H620 H 0.24807 0.84278 0.71388 0.0
C621 C 0.23897 0.73116 0.7815 0.0
C622 C 0.20885 0.76197 0.78839 0.0
H623 H 0.29685 0.7184 0.74861 0.0
H624 H 0.23605 0.6988 0.79876 0.0
C625 C 0.21036 0.79952 0.75979 0.0
C626 C 0.72513 0.80724 0.74152 0.0
C627 C 0.72222 0.76249 0.72107 0.0
H628 H 0.7609 0.85866 0.78804 0.0
C629 C 0.76007 0.74203 0.72038 0.0
H630 H 0.69938 0.82751 0.73654 0.0
C631 C 0.79656 0.76134 0.74711 0.0
C632 C 0.79522 0.80021 0.77668 0.0
H633 H 0.76115 0.71048 0.6998 0.0
H634 H 0.82509 0.7448 0.74617 0.0
C635 C 0.76072 0.82535 0.77016 0.0
C636 C 0.71872 0.27082 0.81638 0.0
C637 C 0.73729 0.31317 0.83709 0.0
H638 H 0.72817 0.20652 0.78356 0.0
C639 C 0.78137 0.32614 0.83398 0.0
H640 H 0.68448 0.26263 0.81273 0.0
C641 C 0.8061 0.29652 0.81139 0.0
C642 C 0.78826 0.25185 0.79518 0.0
H643 H 0.79627 0.36018 0.84654 0.0
H644 H 0.83804 0.31019 0.80345 0.0
C645 C 0.74396 0.23934 0.79827 0.0
C646 C 0.27579 0.34624 0.81156 0.0
C647 C 0.24415 0.32696 0.77904 0.0
H648 H 0.3232 0.33234 0.86161 0.0
C649 C 0.23597 0.27866 0.77181 0.0
H650 H 0.28258 0.38347 0.81752 0.0
C651 C 0.2588 0.24989 0.7966 0.0
C652 C 0.29113 0.26888 0.8282 0.0
H653 H 0.21209 0.26303 0.74645 0.0
H654 H 0.25175 0.21269 0.79034 0.0
C655 C 0.29866 0.31716 0.8368 0.0
C656 C 0.14819 0.986 0.23775 0.0
C657 C 0.12586 0.97535 0.27797 0.0
H658 H 0.15885 0.03292 0.18261 0.0
C659 C 0.09128 0.99885 0.28827 0.0
H660 H 0.17517 0.96848 0.22915 0.0
C661 C 0.08099 0.03445 0.26093 0.0
C662 C 0.10591 0.0487 0.22329 0.0
H663 H 0.07344 0.99125 0.31894 0.0
H664 H 0.05584 0.05377 0.27188 0.0
C665 C 0.13844 1.02254 0.21072 0.0
C666 C 0.93716 0.51188 0.27725 0.0
C667 C 0.90295 0.48476 0.25281 0.0
H668 H 0.95778 0.57478 0.31825 0.0
C669 C 0.86201 0.49782 0.25621 0.0
H670 H 0.96882 0.50179 0.27656 0.0
C671 C 0.85517 0.53657 0.2833 0.0
C672 C 0.88936 0.56519 0.30573 0.0
H673 H 0.83473 0.47691 0.23914 0.0
H674 H 0.82299 0.54485 0.28563 0.0
C675 C 0.93064 0.55272 0.30221 0.0
C676 C 0.23279 0.1211 0.97675 0.0
C677 C 0.27722 0.13034 0.98394 0.0
H678 H 0.17147 0.11667 1.00672 0.0
C679 C 0.29377 0.13597 1.02957 0.0
H680 H 0.21886 0.11656 0.94224 0.0
C681 C 0.26646 0.13603 0.06685 0.0
C682 C 0.22202 0.13061 0.05924 0.0
H683 H 0.32788 0.14313 0.03644 0.0
H684 H 0.28019 0.1434 0.10124 0.0
C685 C 0.20558 0.1213 1.01389 0.0
C686 C 0.73091 0.39 0.09429 0.0
C687 C 0.77383 0.40812 0.08877 0.0
H688 H 0.66991 0.36785 0.06075 0.0
C689 C 0.7859 0.4267 0.04645 0.0
H690 H 0.72078 0.37488 0.12626 0.0
C691 C 0.75644 0.42389 1.0093 0.0
C692 C 0.71469 0.40127 1.01344 0.0
H693 H 0.81885 0.4406 0.04114 0.0
H694 H 0.76752 0.43525 0.97619 0.0
C695 C 0.70178 0.38594 0.05676 0.0
C696 C 0.28622 0.92687 0.54558 0.0
C697 C 0.27413 0.90852 0.58799 0.0
H698 H 0.26782 0.9352 0.47529 0.0
C699 C 0.23116 0.89068 0.59364 0.0
H700 H 0.31921 0.94056 0.54018 0.0
C701 C 0.20198 0.88663 0.55615 0.0
C702 C 0.21491 0.90169 0.51274 0.0
H703 H 0.221 0.87576 0.62569 0.0
H704 H 0.17006 0.86874 0.56025 0.0
C705 C 0.25673 0.92406 0.50846 0.0
C706 C 0.76704 0.63643 0.56788 0.0
C707 C 0.72259 0.63085 0.56035 0.0
H708 H 0.8284 0.64358 0.53736 0.0
C709 C 0.70609 0.62123 0.51505 0.0
H710 H 0.78081 0.64403 0.60223 0.0
C711 C 0.73324 0.62094 0.47788 0.0
C712 C 0.77767 0.63037 0.48497 0.0
H713 H 0.67197 0.61647 0.50794 0.0
H714 H 0.71925 0.61619 0.4434 0.0
C715 C 0.79429 0.63626 0.53056 0.0
C716 C 0.00755 0.31104 0.14735 0.0
C717 C 0.96561 0.29214 0.15655 0.0
H718 H 0.07188 0.29752 0.13849 0.0
C719 C 0.95481 0.2437 0.15526 0.0
H720 H 0.01674 0.34828 0.14881 0.0
C721 C 0.98648 0.21478 0.15115 0.0
C722 C 0.02921 0.23378 0.14625 0.0
H723 H 0.92263 0.22836 0.1624 0.0
H724 H 0.9782 0.17802 0.15605 0.0
C725 C 0.03898 0.28189 0.14111 0.0
C726 C 0.98447 0.80409 0.34343 0.0
C727 C 0.96391 0.77404 0.37512 0.0
H728 H 0.03602 0.85717 0.33157 0.0
C729 C 0.97637 0.78057 0.42185 0.0
H730 H 0.97553 0.80062 0.30722 0.0
C731 C 0.01132 0.81324 0.43573 0.0
C732 C 0.03409 0.84023 0.40321 0.0
H733 H 0.96063 0.75886 0.44739 0.0
H734 H 0.02327 0.81402 0.47099 0.0
C735 C 0.0185 0.83765 0.35758 0.0
C736 C 0.53965 0.78273 0.64136 0.0
C737 C 0.52992 0.73462 0.64647 0.0
H738 H 0.51722 0.84903 0.64878 0.0
C739 C 0.48717 0.7155 0.65093 0.0
H740 H 0.57256 0.79843 0.63906 0.0
C741 C 0.45538 0.74431 0.65465 0.0
C742 C 0.46608 0.79277 0.656 0.0
H743 H 0.47893 0.67873 0.6558 0.0
H744 H 0.42316 0.72889 0.66152 0.0
C745 C 0.50809 0.81178 0.64723 0.0
C746 C 0.83595 0.05016 0.76835 0.0
C747 C 0.87216 0.083 0.7801 0.0
H748 H 0.80016 0.9836 0.78117 0.0
C749 C 0.89986 0.07264 0.81554 0.0
H750 H 0.81334 0.05716 0.74188 0.0
C751 C 0.89189 0.0311 0.83834 0.0
C752 C 0.85581 0.99828 0.82685 0.0
H753 H 0.9277 0.09701 0.82621 0.0
H754 H 0.91447 1.02458 0.86507 0.0
C755 C 0.82781 1.00835 0.79151 0.0
C756 C 0.1244 0.54052 0.84687 0.0
C757 C 0.15748 0.57623 0.8381 0.0
H758 H 0.09518 0.47071 0.83085 0.0
C759 C 0.18673 0.56793 0.8043 0.0
H760 H 0.10109 0.54587 0.87241 0.0
C761 C 0.18262 0.52513 0.77948 0.0
C762 C 0.14953 0.48931 0.78833 0.0
H763 H 0.21219 0.59489 0.79621 0.0
H764 H 0.2059 0.51985 0.7539 0.0
C765 C 0.12073 0.49753 0.82268 0.0
C766 C 0.75348 0.82848 0.0662 0.0
C767 C 0.73938 0.87088 0.07703 0.0
H768 H 0.79516 0.79131 1.02873 0.0
C769 C 0.75545 0.90949 0.05166 0.0
H770 H 0.74093 0.79765 0.08325 0.0
C771 C 0.78412 0.90482 1.01572 0.0
C772 C 0.79877 0.86198 1.00606 0.0
H773 H 0.74544 0.943 0.05908 0.0
H774 H 0.79395 0.93423 0.99503 0.0
C775 C 0.78443 0.82483 0.03381 0.0
C776 C 0.22227 0.75856 0.05232 0.0
C777 C 0.21053 0.7223 1.01897 0.0
H778 H 0.26049 0.78317 0.11242 0.0
C779 C 0.22749 0.68054 1.02387 0.0
H780 H 0.20996 0.7913 0.04977 0.0
C781 C 0.25682 0.67603 0.05991 0.0
C782 C 0.27006 0.71321 0.09181 0.0
H783 H 0.21974 0.65211 0.99864 0.0
H784 H 0.26983 0.64368 0.06216 0.0
C785 C 0.25175 0.75418 0.08802 0.0
C786 C 0.72719 0.18049 0.52457 0.0
C787 C 0.71014 0.22219 0.51964 0.0
H788 H 0.76967 0.14378 0.56287 0.0
C789 C 0.72181 0.25848 0.55297 0.0
H790 H 0.7195 0.15203 0.49936 0.0
C791 C 0.75134 0.2542 0.58866 0.0
C792 C 0.76976 0.2133 0.59246 0.0
H793 H 0.70943 0.29117 0.5504 0.0
H794 H 0.76004 0.28323 0.61303 0.0
C795 C 0.75657 0.17608 0.5606 0.0
C796 C 0.25283 0.32807 0.56533 0.0
C797 C 0.23904 0.37061 0.57625 0.0
H798 H 0.29426 0.29061 0.52782 0.0
C799 C 0.25528 0.40915 0.55087 0.0
H800 H 0.24013 0.2973 0.5824 0.0
C801 C 0.28387 0.4043 0.51489 0.0
C802 C 0.29825 0.36131 0.50518 0.0
H803 H 0.2455 0.44276 0.55836 0.0
H804 H 0.29386 0.43368 0.49423 0.0
C805 C 0.2837 0.32421 0.5329 0.0
C806 C 0.01819 0.75955 0.93822 0.0
C807 C 0.04848 0.78196 0.90939 0.0
H808 H 0.95327 0.75203 0.9595 0.0
C809 C 0.03604 0.81451 0.87936 0.0
H810 H 0.02689 0.73383 0.96121 0.0
C811 C 0.99466 0.82587 0.87912 0.0
C812 C 0.96415 0.80369 0.90786 0.0
H813 H 0.05768 0.82983 0.85446 0.0
H814 H 0.98608 0.8505 0.85483 0.0
C815 C 0.97628 0.77024 0.93738 0.0
C816 C 0.04716 0.26554 0.6568 0.0
C817 C 0.0501 0.31411 0.66306 0.0
H818 H 0.00697 0.20017 0.66096 0.0
C819 C 0.01221 0.33398 0.66125 0.0
H820 H 0.07588 0.24922 0.65664 0.0
C821 C 0.97243 0.30557 0.65932 0.0
C822 C 0.96993 0.25713 0.66269 0.0
H823 H 0.01318 0.37116 0.66617 0.0
H824 H 0.9438 0.32193 0.66162 0.0
C825 C 0.00759 0.23723 0.65834 0.0
C826 C 0.51766 0.259 0.43817 0.0
C827 C 0.5481 0.28158 0.40961 0.0
H828 H 0.45259 0.2512 0.45895 0.0
C829 C 0.53576 0.31415 0.37954 0.0
H830 H 0.52628 0.23324 0.46116 0.0
C831 C 0.49432 0.32535 0.37899 0.0
C832 C 0.46367 0.303 0.40746 0.0
H833 H 0.55752 0.32959 0.35481 0.0
H834 H 0.48582 0.35 0.35468 0.0
C835 C 0.4757 0.26953 0.43703 0.0
C836 C 0.63826 0.52322 0.71169 0.0
C837 C 0.60607 0.54976 0.72451 0.0
H838 H 0.6746 0.46876 0.72984 0.0
C839 C 0.58135 0.53582 0.76239 0.0
H840 H 0.65849 0.53333 0.68337 0.0
C841 C 0.59156 0.50018 0.78971 0.0
C842 C 0.62582 0.47627 0.77913 0.0
H843 H 0.55643 0.55539 0.77351 0.0
H844 H 0.5739 0.49281 0.82055 0.0
C845 C 0.64789 0.4866 0.73868 0.0
C846 C 0.43106 0.05331 0.80114 0.0
C847 C 0.38975 0.06556 0.8051 0.0
H848 H 0.46924 1.00254 0.77512 0.0
C849 C 0.35546 0.03678 0.78301 0.0
H850 H 0.45825 0.0755 0.8169 0.0
C851 C 0.36224 0.99809 0.75581 0.0
C852 C 0.40322 0.98521 0.75202 0.0
H853 H 0.32326 0.04495 0.78564 0.0
H854 H 0.3349 0.97708 0.73897 0.0
C855 C 0.43754 1.01248 0.77612 0.0
C856 C 0.48429 0.30475 0.84372 0.0
C857 C 0.46378 0.27433 0.87512 0.0
H858 H 0.53581 0.35801 0.83228 0.0
C859 C 0.47627 0.28041 0.92187 0.0
H860 H 0.47535 0.30163 0.8075 0.0
C861 C 0.51121 0.31297 0.936 0.0
C862 C 0.53395 0.34032 0.90372 0.0
H863 H 0.46056 0.2584 0.94721 0.0
H864 H 0.52319 0.3134 0.97122 0.0
C865 C 0.51831 0.3382 0.85812 0.0
C866 C 0.33567 0.54942 0.26754 0.0
C867 C 0.37201 0.58213 0.27918 0.0
H868 H 0.29973 0.48296 0.28045 0.0
C869 C 0.39979 0.57163 0.31448 0.0
H870 H 0.313 0.55654 0.24119 0.0
C871 C 0.39176 0.5301 0.33728 0.0
C872 C 0.35554 0.49741 0.32591 0.0
H873 H 0.42772 0.5959 0.32506 0.0
H874 H 0.4144 0.52348 0.36391 0.0
C875 C 0.32749 0.5076 0.29069 0.0
C876 C 0.62423 0.04021 0.34758 0.0
C877 C 0.6573 0.07593 0.33884 0.0
H878 H 0.59503 0.9704 0.33151 0.0
C879 C 0.68658 0.06766 0.30507 0.0
H880 H 0.6009 0.04554 0.3731 0.0
C881 C 0.6825 1.02487 0.28023 0.0
C882 C 0.64941 0.98904 0.28903 0.0
H883 H 0.71204 0.09463 0.297 0.0
H884 H 0.7058 1.01962 0.25466 0.0
C885 C 0.62058 0.99723 0.32337 0.0
C886 C 0.51221 0.83386 0.16167 0.0
C887 C 0.55013 0.81402 0.16338 0.0
H888 H 0.44382 0.82175 0.16204 0.0
C889 C 0.54724 0.76548 0.15691 0.0
H890 H 0.51316 0.87102 0.16678 0.0
C891 C 0.50767 0.73711 0.15827 0.0
C892 C 0.46998 0.75695 0.16269 0.0
H893 H 0.57597 0.74919 0.15673 0.0
H894 H 0.50707 0.70004 0.1607 0.0
C895 C 0.47246 0.80542 0.15961 0.0
loop_
_geom_bond_atom_site_label_1
_geom_bond_atom_site_label_2
_geom_bond_distance
_geom_bond_site_symmetry_2
_ccdc_geom_bond_type
Mn0 O5 2.095 . S
Mn0 O15 2.162 . S
Mn0 O16 2.297 . S
Mn0 O24 2.385 . S
Mn0 O25 2.209 . S
Mn0 O26 2.094 . S
Mn1 O6 2.121 . S
Mn1 N8 2.257 . S
Mn1 N17 2.282 . S
Mn1 O25 2.215 . S
Mn1 O27 2.117 . S
C2 O24 1.234 . S
C2 O25 1.283 . S
C3 O15 1.281 . S
C3 O16 1.236 . S
C4 O26 1.240 . S
C4 O27 1.264 . S
O5 Mn0 2.095 . S
O5 C14 1.250 . S
O6 Mn1 2.121 . S
O6 C14 1.258 . S
C7 N8 1.326 . S
C7 C11 1.460 . S
C7 H13 0.929 . S
N8 Mn1 2.257 . S
N8 C7 1.326 . S
N8 C12 1.362 . S
C9 C10 1.258 . S
C9 C12 1.431 . S
C9 C29 1.449 . S
C10 C9 1.258 . S
C10 C11 1.477 . S
C10 H30 0.931 . S
C11 C7 1.460 . S
C11 C10 1.477 . S
C11 H31 0.930 . S
C12 N8 1.362 . S
C12 C9 1.431 . S
C12 C22 1.476 . S
H13 C7 0.929 . S
C14 O5 1.250 . S
C14 O6 1.258 . S
O15 Mn0 2.162 . S
O15 C3 1.281 . S
O16 Mn0 2.297 . S
O16 C3 1.236 . S
N17 Mn1 2.282 . S
N17 C18 1.328 . S
N17 C22 1.318 . S
C18 N17 1.328 . S
C18 C19 1.457 . S
C18 H23 0.929 . S
C19 C18 1.457 . S
C19 C20 1.291 . S
C19 H32 0.931 . S
C20 C19 1.291 . S
C20 C21 1.373 . S
C20 H33 0.929 . S
C21 C20 1.373 . S
C21 C22 1.396 . S
C21 C28 1.403 . S
C22 C12 1.476 . S
C22 N17 1.318 . S
C22 C21 1.396 . S
H23 C18 0.929 . S
O24 Mn0 2.385 . S
O24 C2 1.234 . S
O25 Mn0 2.209 . S
O25 Mn1 2.215 . S
O25 C2 1.283 . S
O26 Mn0 2.094 . S
O26 C4 1.240 . S
O27 Mn1 2.117 . S
O27 C4 1.264 . S
C28 C21 1.403 . S
C28 C29 1.399 . S
C28 H34 0.929 . S
C29 C9 1.449 . S
C29 C28 1.399 . S
C29 H35 0.930 . S
H30 C10 0.931 . S
H31 C11 0.930 . S
H32 C19 0.931 . S
H33 C20 0.929 . S
H34 C28 0.929 . S
H35 C29 0.930 . S
Mn36 O41 2.095 . S
Mn36 O51 2.162 . S
Mn36 O52 2.297 . S
Mn36 O60 2.385 . S
Mn36 O61 2.209 . S
Mn36 O62 2.094 . S
Mn37 O42 2.121 . S
Mn37 N44 2.257 . S
Mn37 N53 2.282 . S
Mn37 O61 2.215 . S
Mn37 O63 2.117 . S
C38 O60 1.234 . S
C38 O61 1.283 . S
C39 O51 1.281 . S
C39 O52 1.236 . S
C40 O62 1.240 . S
C40 O63 1.264 . S
O41 Mn36 2.095 . S
O41 C50 1.250 . S
O42 Mn37 2.121 . S
O42 C50 1.258 . S
C43 N44 1.326 . S
C43 C47 1.460 . S
C43 H49 0.929 . S
N44 Mn37 2.257 . S
N44 C43 1.326 . S
N44 C48 1.362 . S
C45 C46 1.258 . S
C45 C48 1.431 . S
C45 C65 1.449 . S
C46 C45 1.258 . S
C46 C47 1.477 . S
C46 H66 0.931 . S
C47 C43 1.460 . S
C47 C46 1.477 . S
C47 H67 0.930 . S
C48 N44 1.362 . S
C48 C45 1.431 . S
C48 C58 1.476 . S
H49 C43 0.929 . S
C50 O41 1.250 . S
C50 O42 1.258 . S
O51 Mn36 2.162 . S
O51 C39 1.281 . S
O52 Mn36 2.297 . S
O52 C39 1.236 . S
N53 Mn37 2.282 . S
N53 C54 1.328 . S
N53 C58 1.318 . S
C54 N53 1.328 . S
C54 C55 1.457 . S
C54 H59 0.929 . S
C55 C54 1.457 . S
C55 C56 1.291 . S
C55 H68 0.931 . S
C56 C55 1.291 . S
C56 C57 1.373 . S
C56 H69 0.929 . S
C57 C56 1.373 . S
C57 C58 1.396 . S
C57 C64 1.403 . S
C58 C48 1.476 . S
C58 N53 1.318 . S
C58 C57 1.396 . S
H59 C54 0.929 . S
O60 Mn36 2.385 . S
O60 C38 1.234 . S
O61 Mn36 2.209 . S
O61 Mn37 2.215 . S
O61 C38 1.283 . S
O62 Mn36 2.094 . S
O62 C40 1.240 . S
O63 Mn37 2.117 . S
O63 C40 1.264 . S
C64 C57 1.403 . S
C64 C65 1.399 . S
C64 H70 0.929 . S
C65 C45 1.449 . S
C65 C64 1.399 . S
C65 H71 0.930 . S
H66 C46 0.931 . S
H67 C47 0.930 . S
H68 C55 0.931 . S
H69 C56 0.929 . S
H70 C64 0.929 . S
H71 C65 0.930 . S
Mn72 O77 2.095 . S
Mn72 O87 2.162 . S
Mn72 O88 2.297 . S
Mn72 O96 2.385 . S
Mn72 O97 2.209 . S
Mn72 O98 2.094 . S
Mn73 O78 2.121 . S
Mn73 N80 2.257 . S
Mn73 N89 2.282 . S
Mn73 O97 2.215 . S
Mn73 O99 2.117 . S
C74 O96 1.234 . S
C74 O97 1.283 . S
C75 O87 1.281 . S
C75 O88 1.236 . S
C76 O98 1.240 . S
C76 O99 1.264 . S
O77 Mn72 2.095 . S
O77 C86 1.250 . S
O78 Mn73 2.121 . S
O78 C86 1.258 . S
C79 N80 1.326 . S
C79 C83 1.460 . S
C79 H85 0.929 . S
N80 Mn73 2.257 . S
N80 C79 1.326 . S
N80 C84 1.362 . S
C81 C82 1.258 . S
C81 C84 1.431 . S
C81 C101 1.449 . S
C82 C81 1.258 . S
C82 C83 1.477 . S
C82 H102 0.931 . S
C83 C79 1.460 . S
C83 C82 1.477 . S
C83 H103 0.930 . S
C84 N80 1.362 . S
C84 C81 1.431 . S
C84 C94 1.476 . S
H85 C79 0.929 . S
C86 O77 1.250 . S
C86 O78 1.258 . S
O87 Mn72 2.162 . S
O87 C75 1.281 . S
O88 Mn72 2.297 . S
O88 C75 1.236 . S
N89 Mn73 2.282 . S
N89 C90 1.328 . S
N89 C94 1.318 . S
C90 N89 1.328 . S
C90 C91 1.457 . S
C90 H95 0.929 . S
C91 C90 1.457 . S
C91 C92 1.291 . S
C91 H104 0.931 . S
C92 C91 1.291 . S
C92 C93 1.373 . S
C92 H105 0.929 . S
C93 C92 1.373 . S
C93 C94 1.396 . S
C93 C100 1.403 . S
C94 C84 1.476 . S
C94 N89 1.318 . S
C94 C93 1.396 . S
H95 C90 0.929 . S
O96 Mn72 2.385 . S
O96 C74 1.234 . S
O97 Mn72 2.209 . S
O97 Mn73 2.215 . S
O97 C74 1.283 . S
O98 Mn72 2.094 . S
O98 C76 1.240 . S
O99 Mn73 2.117 . S
O99 C76 1.264 . S
C100 C93 1.403 . S
C100 C101 1.399 . S
C100 H106 0.929 . S
C101 C81 1.449 . S
C101 C100 1.399 . S
C101 H107 0.930 . S
H102 C82 0.931 . S
H103 C83 0.930 . S
H104 C91 0.931 . S
H105 C92 0.929 . S
H106 C100 0.929 . S
H107 C101 0.930 . S
Mn108 O113 2.095 . S
Mn108 O123 2.162 . S
Mn108 O124 2.297 . S
Mn108 O132 2.385 . S
Mn108 O133 2.209 . S
Mn108 O134 2.094 . S
Mn109 O114 2.121 . S
Mn109 N116 2.257 . S
Mn109 N125 2.282 . S
Mn109 O133 2.215 . S
Mn109 O135 2.117 . S
C110 O132 1.234 . S
C110 O133 1.283 . S
C111 O123 1.281 . S
C111 O124 1.236 . S
C112 O134 1.240 . S
C112 O135 1.264 . S
O113 Mn108 2.095 . S
O113 C122 1.250 . S
O114 Mn109 2.121 . S
O114 C122 1.258 . S
C115 N116 1.326 . S
C115 C119 1.460 . S
C115 H121 0.929 . S
N116 Mn109 2.257 . S
N116 C115 1.326 . S
N116 C120 1.362 . S
C117 C118 1.258 . S
C117 C120 1.431 . S
C117 C137 1.449 . S
C118 C117 1.258 . S
C118 C119 1.477 . S
C118 H138 0.931 . S
C119 C115 1.460 . S
C119 C118 1.477 . S
C119 H139 0.930 . S
C120 N116 1.362 . S
C120 C117 1.431 . S
C120 C130 1.476 . S
H121 C115 0.929 . S
C122 O113 1.250 . S
C122 O114 1.258 . S
O123 Mn108 2.162 . S
O123 C111 1.281 . S
O124 Mn108 2.297 . S
O124 C111 1.236 . S
N125 Mn109 2.282 . S
N125 C126 1.328 . S
N125 C130 1.318 . S
C126 N125 1.328 . S
C126 C127 1.457 . S
C126 H131 0.929 . S
C127 C126 1.457 . S
C127 C128 1.291 . S
C127 H140 0.931 . S
C128 C127 1.291 . S
C128 C129 1.373 . S
C128 H141 0.929 . S
C129 C128 1.373 . S
C129 C130 1.396 . S
C129 C136 1.403 . S
C130 C120 1.476 . S
C130 N125 1.318 . S
C130 C129 1.396 . S
H131 C126 0.929 . S
O132 Mn108 2.385 . S
O132 C110 1.234 . S
O133 Mn108 2.209 . S
O133 Mn109 2.215 . S
O133 C110 1.283 . S
O134 Mn108 2.094 . S
O134 C112 1.240 . S
O135 Mn109 2.117 . S
O135 C112 1.264 . S
C136 C129 1.403 . S
C136 C137 1.399 . S
C136 H142 0.929 . S
C137 C117 1.449 . S
C137 C136 1.399 . S
C137 H143 0.930 . S
H138 C118 0.931 . S
H139 C119 0.930 . S
H140 C127 0.931 . S
H141 C128 0.929 . S
H142 C136 0.929 . S
H143 C137 0.930 . S
Mn144 O149 2.095 . S
Mn144 O159 2.162 . S
Mn144 O160 2.297 . S
Mn144 O168 2.385 . S
Mn144 O169 2.209 . S
Mn144 O170 2.094 . S
Mn145 O150 2.121 . S
Mn145 N152 2.257 . S
Mn145 N161 2.282 . S
Mn145 O169 2.215 . S
Mn145 O171 2.117 . S
C146 O168 1.234 . S
C146 O169 1.283 . S
C147 O159 1.281 . S
C147 O160 1.236 . S
C148 O170 1.240 . S
C148 O171 1.264 . S
O149 Mn144 2.095 . S
O149 C158 1.250 . S
O150 Mn145 2.121 . S
O150 C158 1.258 . S
C151 N152 1.326 . S
C151 C155 1.460 . S
C151 H157 0.929 . S
N152 Mn145 2.257 . S
N152 C151 1.326 . S
N152 C156 1.362 . S
C153 C154 1.258 . S
C153 C156 1.431 . S
C153 C173 1.449 . S
C154 C153 1.258 . S
C154 C155 1.477 . S
C154 H174 0.931 . S
C155 C151 1.460 . S
C155 C154 1.477 . S
C155 H175 0.930 . S
C156 N152 1.362 . S
C156 C153 1.431 . S
C156 C166 1.476 . S
H157 C151 0.929 . S
C158 O149 1.250 . S
C158 O150 1.258 . S
O159 Mn144 2.162 . S
O159 C147 1.281 . S
O160 Mn144 2.297 . S
O160 C147 1.236 . S
N161 Mn145 2.282 . S
N161 C162 1.328 . S
N161 C166 1.318 . S
C162 N161 1.328 . S
C162 C163 1.457 . S
C162 H167 0.929 . S
C163 C162 1.457 . S
C163 C164 1.291 . S
C163 H176 0.931 . S
C164 C163 1.291 . S
C164 C165 1.373 . S
C164 H177 0.929 . S
C165 C164 1.373 . S
C165 C166 1.396 . S
C165 C172 1.403 . S
C166 C156 1.476 . S
C166 N161 1.318 . S
C166 C165 1.396 . S
H167 C162 0.929 . S
O168 Mn144 2.385 . S
O168 C146 1.234 . S
O169 Mn144 2.209 . S
O169 Mn145 2.215 . S
O169 C146 1.283 . S
O170 Mn144 2.094 . S
O170 C148 1.240 . S
O171 Mn145 2.117 . S
O171 C148 1.264 . S
C172 C165 1.403 . S
C172 C173 1.399 . S
C172 H178 0.929 . S
C173 C153 1.449 . S
C173 C172 1.399 . S
C173 H179 0.930 . S
H174 C154 0.931 . S
H175 C155 0.930 . S
H176 C163 0.931 . S
H177 C164 0.929 . S
H178 C172 0.929 . S
H179 C173 0.930 . S
Mn180 O185 2.095 . S
Mn180 O195 2.162 . S
Mn180 O196 2.297 . S
Mn180 O204 2.385 . S
Mn180 O205 2.209 . S
Mn180 O206 2.094 . S
Mn181 O186 2.121 . S
Mn181 N188 2.257 . S
Mn181 N197 2.282 . S
Mn181 O205 2.215 . S
Mn181 O207 2.117 . S
C182 O204 1.234 . S
C182 O205 1.283 . S
C183 O195 1.281 . S
C183 O196 1.236 . S
C184 O206 1.240 . S
C184 O207 1.264 . S
O185 Mn180 2.095 . S
O185 C194 1.250 . S
O186 Mn181 2.121 . S
O186 C194 1.258 . S
C187 N188 1.326 . S
C187 C191 1.460 . S
C187 H193 0.929 . S
N188 Mn181 2.257 . S
N188 C187 1.326 . S
N188 C192 1.362 . S
C189 C190 1.258 . S
C189 C192 1.431 . S
C189 C209 1.449 . S
C190 C189 1.258 . S
C190 C191 1.477 . S
C190 H210 0.931 . S
C191 C187 1.460 . S
C191 C190 1.477 . S
C191 H211 0.930 . S
C192 N188 1.362 . S
C192 C189 1.431 . S
C192 C202 1.476 . S
H193 C187 0.929 . S
C194 O185 1.250 . S
C194 O186 1.258 . S
O195 Mn180 2.162 . S
O195 C183 1.281 . S
O196 Mn180 2.297 . S
O196 C183 1.236 . S
N197 Mn181 2.282 . S
N197 C198 1.328 . S
N197 C202 1.318 . S
C198 N197 1.328 . S
C198 C199 1.457 . S
C198 H203 0.929 . S
C199 C198 1.457 . S
C199 C200 1.291 . S
C199 H212 0.931 . S
C200 C199 1.291 . S
C200 C201 1.373 . S
C200 H213 0.929 . S
C201 C200 1.373 . S
C201 C202 1.396 . S
C201 C208 1.403 . S
C202 C192 1.476 . S
C202 N197 1.318 . S
C202 C201 1.396 . S
H203 C198 0.929 . S
O204 Mn180 2.385 . S
O204 C182 1.234 . S
O205 Mn180 2.209 . S
O205 Mn181 2.215 . S
O205 C182 1.283 . S
O206 Mn180 2.094 . S
O206 C184 1.240 . S
O207 Mn181 2.117 . S
O207 C184 1.264 . S
C208 C201 1.403 . S
C208 C209 1.399 . S
C208 H214 0.929 . S
C209 C189 1.449 . S
C209 C208 1.399 . S
C209 H215 0.930 . S
H210 C190 0.931 . S
H211 C191 0.930 . S
H212 C199 0.931 . S
H213 C200 0.929 . S
H214 C208 0.929 . S
H215 C209 0.930 . S
Mn216 O221 2.095 . S
Mn216 O231 2.162 . S
Mn216 O232 2.297 . S
Mn216 O240 2.385 . S
Mn216 O241 2.209 . S
Mn216 O242 2.094 . S
Mn217 O222 2.121 . S
Mn217 N224 2.257 . S
Mn217 N233 2.282 . S
Mn217 O241 2.215 . S
Mn217 O243 2.117 . S
C218 O240 1.234 . S
C218 O241 1.283 . S
C219 O231 1.281 . S
C219 O232 1.236 . S
C220 O242 1.240 . S
C220 O243 1.264 . S
O221 Mn216 2.095 . S
O221 C230 1.250 . S
O222 Mn217 2.121 . S
O222 C230 1.258 . S
C223 N224 1.326 . S
C223 C227 1.460 . S
C223 H229 0.929 . S
N224 Mn217 2.257 . S
N224 C223 1.326 . S
N224 C228 1.362 . S
C225 C226 1.258 . S
C225 C228 1.431 . S
C225 C245 1.449 . S
C226 C225 1.258 . S
C226 C227 1.477 . S
C226 H246 0.931 . S
C227 C223 1.460 . S
C227 C226 1.477 . S
C227 H247 0.930 . S
C228 N224 1.362 . S
C228 C225 1.431 . S
C228 C238 1.476 . S
H229 C223 0.929 . S
C230 O221 1.250 . S
C230 O222 1.258 . S
O231 Mn216 2.162 . S
O231 C219 1.281 . S
O232 Mn216 2.297 . S
O232 C219 1.236 . S
N233 Mn217 2.282 . S
N233 C234 1.328 . S
N233 C238 1.318 . S
C234 N233 1.328 . S
C234 C235 1.457 . S
C234 H239 0.929 . S
C235 C234 1.457 . S
C235 C236 1.291 . S
C235 H248 0.931 . S
C236 C235 1.291 . S
C236 C237 1.373 . S
C236 H249 0.929 . S
C237 C236 1.373 . S
C237 C238 1.396 . S
C237 C244 1.403 . S
C238 C228 1.476 . S
C238 N233 1.318 . S
C238 C237 1.396 . S
H239 C234 0.929 . S
O240 Mn216 2.385 . S
O240 C218 1.234 . S
O241 Mn216 2.209 . S
O241 Mn217 2.215 . S
O241 C218 1.283 . S
O242 Mn216 2.094 . S
O242 C220 1.240 . S
O243 Mn217 2.117 . S
O243 C220 1.264 . S
C244 C237 1.403 . S
C244 C245 1.399 . S
C244 H250 0.929 . S
C245 C225 1.449 . S
C245 C244 1.399 . S
C245 H251 0.930 . S
H246 C226 0.931 . S
H247 C227 0.930 . S
H248 C235 0.931 . S
H249 C236 0.929 . S
H250 C244 0.929 . S
H251 C245 0.930 . S
Mn252 O257 2.095 . S
Mn252 O267 2.162 . S
Mn252 O268 2.297 . S
Mn252 O276 2.385 . S
Mn252 O277 2.209 . S
Mn252 O278 2.094 . S
Mn253 O258 2.121 . S
Mn253 N260 2.257 . S
Mn253 N269 2.282 . S
Mn253 O277 2.215 . S
Mn253 O279 2.117 . S
C254 O276 1.234 . S
C254 O277 1.283 . S
C255 O267 1.281 . S
C255 O268 1.236 . S
C256 O278 1.240 . S
C256 O279 1.264 . S
O257 Mn252 2.095 . S
O257 C266 1.250 . S
O258 Mn253 2.121 . S
O258 C266 1.258 . S
C259 N260 1.326 . S
C259 C263 1.460 . S
C259 H265 0.929 . S
N260 Mn253 2.257 . S
N260 C259 1.326 . S
N260 C264 1.362 . S
C261 C262 1.258 . S
C261 C264 1.431 . S
C261 C281 1.449 . S
C262 C261 1.258 . S
C262 C263 1.477 . S
C262 H282 0.931 . S
C263 C259 1.460 . S
C263 C262 1.477 . S
C263 H283 0.930 . S
C264 N260 1.362 . S
C264 C261 1.431 . S
C264 C274 1.476 . S
H265 C259 0.929 . S
C266 O257 1.250 . S
C266 O258 1.258 . S
O267 Mn252 2.162 . S
O267 C255 1.281 . S
O268 Mn252 2.297 . S
O268 C255 1.236 . S
N269 Mn253 2.282 . S
N269 C270 1.328 . S
N269 C274 1.318 . S
C270 N269 1.328 . S
C270 C271 1.457 . S
C270 H275 0.929 . S
C271 C270 1.457 . S
C271 C272 1.291 . S
C271 H284 0.931 . S
C272 C271 1.291 . S
C272 C273 1.373 . S
C272 H285 0.929 . S
C273 C272 1.373 . S
C273 C274 1.396 . S
C273 C280 1.403 . S
C274 C264 1.476 . S
C274 N269 1.318 . S
C274 C273 1.396 . S
H275 C270 0.929 . S
O276 Mn252 2.385 . S
O276 C254 1.234 . S
O277 Mn252 2.209 . S
O277 Mn253 2.215 . S
O277 C254 1.283 . S
O278 Mn252 2.094 . S
O278 C256 1.240 . S
O279 Mn253 2.117 . S
O279 C256 1.264 . S
C280 C273 1.403 . S
C280 C281 1.399 . S
C280 H286 0.929 . S
C281 C261 1.449 . S
C281 C280 1.399 . S
C281 H287 0.930 . S
H282 C262 0.931 . S
H283 C263 0.930 . S
H284 C271 0.931 . S
H285 C272 0.929 . S
H286 C280 0.929 . S
H287 C281 0.930 . S
Mn288 O293 2.095 . S
Mn288 O303 2.162 . S
Mn288 O304 2.297 . S
Mn288 O312 2.385 . S
Mn288 O313 2.209 . S
Mn288 O314 2.094 . S
Mn289 O294 2.121 . S
Mn289 N296 2.257 . S
Mn289 N305 2.282 . S
Mn289 O313 2.215 . S
Mn289 O315 2.117 . S
C290 O312 1.234 . S
C290 O313 1.283 . S
C291 O303 1.281 . S
C291 O304 1.236 . S
C292 O314 1.240 . S
C292 O315 1.264 . S
O293 Mn288 2.095 . S
O293 C302 1.250 . S
O294 Mn289 2.121 . S
O294 C302 1.258 . S
C295 N296 1.326 . S
C295 C299 1.460 . S
C295 H301 0.929 . S
N296 Mn289 2.257 . S
N296 C295 1.326 . S
N296 C300 1.362 . S
C297 C298 1.258 . S
C297 C300 1.431 . S
C297 C317 1.449 . S
C298 C297 1.258 . S
C298 C299 1.477 . S
C298 H318 0.931 . S
C299 C295 1.460 . S
C299 C298 1.477 . S
C299 H319 0.930 . S
C300 N296 1.362 . S
C300 C297 1.431 . S
C300 C310 1.476 . S
H301 C295 0.929 . S
C302 O293 1.250 . S
C302 O294 1.258 . S
O303 Mn288 2.162 . S
O303 C291 1.281 . S
O304 Mn288 2.297 . S
O304 C291 1.236 . S
N305 Mn289 2.282 . S
N305 C306 1.328 . S
N305 C310 1.318 . S
C306 N305 1.328 . S
C306 C307 1.457 . S
C306 H311 0.929 . S
C307 C306 1.457 . S
C307 C308 1.291 . S
C307 H320 0.931 . S
C308 C307 1.291 . S
C308 C309 1.373 . S
C308 H321 0.929 . S
C309 C308 1.373 . S
C309 C310 1.396 . S
C309 C316 1.403 . S
C310 C300 1.476 . S
C310 N305 1.318 . S
C310 C309 1.396 . S
H311 C306 0.929 . S
O312 Mn288 2.385 . S
O312 C290 1.234 . S
O313 Mn288 2.209 . S
O313 Mn289 2.215 . S
O313 C290 1.283 . S
O314 Mn288 2.094 . S
O314 C292 1.240 . S
O315 Mn289 2.117 . S
O315 C292 1.264 . S
C316 C309 1.403 . S
C316 C317 1.399 . S
C316 H322 0.929 . S
C317 C297 1.449 . S
C317 C316 1.399 . S
C317 H323 0.930 . S
H318 C298 0.931 . S
H319 C299 0.930 . S
H320 C307 0.931 . S
H321 C308 0.929 . S
H322 C316 0.929 . S
H323 C317 0.930 . S
Mn324 O329 2.095 . S
Mn324 O339 2.162 . S
Mn324 O340 2.297 . S
Mn324 O348 2.385 . S
Mn324 O349 2.209 . S
Mn324 O350 2.094 . S
Mn325 O330 2.121 . S
Mn325 N332 2.257 . S
Mn325 N341 2.282 . S
Mn325 O349 2.215 . S
Mn325 O351 2.117 . S
C326 O348 1.234 . S
C326 O349 1.283 . S
C327 O339 1.281 . S
C327 O340 1.236 . S
C328 O350 1.240 . S
C328 O351 1.264 . S
O329 Mn324 2.095 . S
O329 C338 1.250 . S
O330 Mn325 2.121 . S
O330 C338 1.258 . S
C331 N332 1.326 . S
C331 C335 1.460 . S
C331 H337 0.929 . S
N332 Mn325 2.257 . S
N332 C331 1.326 . S
N332 C336 1.362 . S
C333 C334 1.258 . S
C333 C336 1.431 . S
C333 C353 1.449 . S
C334 C333 1.258 . S
C334 C335 1.477 . S
C334 H354 0.931 . S
C335 C331 1.460 . S
C335 C334 1.477 . S
C335 H355 0.930 . S
C336 N332 1.362 . S
C336 C333 1.431 . S
C336 C346 1.476 . S
H337 C331 0.929 . S
C338 O329 1.250 . S
C338 O330 1.258 . S
O339 Mn324 2.162 . S
O339 C327 1.281 . S
O340 Mn324 2.297 . S
O340 C327 1.236 . S
N341 Mn325 2.282 . S
N341 C342 1.328 . S
N341 C346 1.318 . S
C342 N341 1.328 . S
C342 C343 1.457 . S
C342 H347 0.929 . S
C343 C342 1.457 . S
C343 C344 1.291 . S
C343 H356 0.931 . S
C344 C343 1.291 . S
C344 C345 1.373 . S
C344 H357 0.929 . S
C345 C344 1.373 . S
C345 C346 1.396 . S
C345 C352 1.403 . S
C346 C336 1.476 . S
C346 N341 1.318 . S
C346 C345 1.396 . S
H347 C342 0.929 . S
O348 Mn324 2.385 . S
O348 C326 1.234 . S
O349 Mn324 2.209 . S
O349 Mn325 2.215 . S
O349 C326 1.283 . S
O350 Mn324 2.094 . S
O350 C328 1.240 . S
O351 Mn325 2.117 . S
O351 C328 1.264 . S
C352 C345 1.403 . S
C352 C353 1.399 . S
C352 H358 0.929 . S
C353 C333 1.449 . S
C353 C352 1.399 . S
C353 H359 0.930 . S
H354 C334 0.931 . S
H355 C335 0.930 . S
H356 C343 0.931 . S
H357 C344 0.929 . S
H358 C352 0.929 . S
H359 C353 0.930 . S
Mn360 O365 2.095 . S
Mn360 O375 2.162 . S
Mn360 O376 2.297 . S
Mn360 O384 2.385 . S
Mn360 O385 2.209 . S
Mn360 O386 2.094 . S
Mn361 O366 2.121 . S
Mn361 N368 2.257 . S
Mn361 N377 2.282 . S
Mn361 O385 2.215 . S
Mn361 O387 2.117 . S
C362 O384 1.234 . S
C362 O385 1.283 . S
C363 O375 1.281 . S
C363 O376 1.236 . S
C364 O386 1.240 . S
C364 O387 1.264 . S
O365 Mn360 2.095 . S
O365 C374 1.250 . S
O366 Mn361 2.121 . S
O366 C374 1.258 . S
C367 N368 1.326 . S
C367 C371 1.460 . S
C367 H373 0.929 . S
N368 Mn361 2.257 . S
N368 C367 1.326 . S
N368 C372 1.362 . S
C369 C370 1.258 . S
C369 C372 1.431 . S
C369 C389 1.449 . S
C370 C369 1.258 . S
C370 C371 1.477 . S
C370 H390 0.931 . S
C371 C367 1.460 . S
C371 C370 1.477 . S
C371 H391 0.930 . S
C372 N368 1.362 . S
C372 C369 1.431 . S
C372 C382 1.476 . S
H373 C367 0.929 . S
C374 O365 1.250 . S
C374 O366 1.258 . S
O375 Mn360 2.162 . S
O375 C363 1.281 . S
O376 Mn360 2.297 . S
O376 C363 1.236 . S
N377 Mn361 2.282 . S
N377 C378 1.328 . S
N377 C382 1.318 . S
C378 N377 1.328 . S
C378 C379 1.457 . S
C378 H383 0.929 . S
C379 C378 1.457 . S
C379 C380 1.291 . S
C379 H392 0.931 . S
C380 C379 1.291 . S
C380 C381 1.373 . S
C380 H393 0.929 . S
C381 C380 1.373 . S
C381 C382 1.396 . S
C381 C388 1.403 . S
C382 C372 1.476 . S
C382 N377 1.318 . S
C382 C381 1.396 . S
H383 C378 0.929 . S
O384 Mn360 2.385 . S
O384 C362 1.234 . S
O385 Mn360 2.209 . S
O385 Mn361 2.215 . S
O385 C362 1.283 . S
O386 Mn360 2.094 . S
O386 C364 1.240 . S
O387 Mn361 2.117 . S
O387 C364 1.264 . S
C388 C381 1.403 . S
C388 C389 1.399 . S
C388 H394 0.929 . S
C389 C369 1.449 . S
C389 C388 1.399 . S
C389 H395 0.930 . S
H390 C370 0.931 . S
H391 C371 0.930 . S
H392 C379 0.931 . S
H393 C380 0.929 . S
H394 C388 0.929 . S
H395 C389 0.930 . S
Mn396 O401 2.095 . S
Mn396 O411 2.162 . S
Mn396 O412 2.297 . S
Mn396 O420 2.385 . S
Mn396 O421 2.209 . S
Mn396 O422 2.094 . S
Mn397 O402 2.121 . S
Mn397 N404 2.257 . S
Mn397 N413 2.282 . S
Mn397 O421 2.215 . S
Mn397 O423 2.117 . S
C398 O420 1.234 . S
C398 O421 1.283 . S
C399 O411 1.281 . S
C399 O412 1.236 . S
C400 O422 1.240 . S
C400 O423 1.264 . S
O401 Mn396 2.095 . S
O401 C410 1.250 . S
O402 Mn397 2.121 . S
O402 C410 1.258 . S
C403 N404 1.326 . S
C403 C407 1.460 . S
C403 H409 0.929 . S
N404 Mn397 2.257 . S
N404 C403 1.326 . S
N404 C408 1.362 . S
C405 C406 1.258 . S
C405 C408 1.431 . S
C405 C425 1.449 . S
C406 C405 1.258 . S
C406 C407 1.477 . S
C406 H426 0.931 . S
C407 C403 1.460 . S
C407 C406 1.477 . S
C407 H427 0.930 . S
C408 N404 1.362 . S
C408 C405 1.431 . S
C408 C418 1.476 . S
H409 C403 0.929 . S
C410 O401 1.250 . S
C410 O402 1.258 . S
O411 Mn396 2.162 . S
O411 C399 1.281 . S
O412 Mn396 2.297 . S
O412 C399 1.236 . S
N413 Mn397 2.282 . S
N413 C414 1.328 . S
N413 C418 1.318 . S
C414 N413 1.328 . S
C414 C415 1.457 . S
C414 H419 0.929 . S
C415 C414 1.457 . S
C415 C416 1.291 . S
C415 H428 0.931 . S
C416 C415 1.291 . S
C416 C417 1.373 . S
C416 H429 0.929 . S
C417 C416 1.373 . S
C417 C418 1.396 . S
C417 C424 1.403 . S
C418 C408 1.476 . S
C418 N413 1.318 . S
C418 C417 1.396 . S
H419 C414 0.929 . S
O420 Mn396 2.385 . S
O420 C398 1.234 . S
O421 Mn396 2.209 . S
O421 Mn397 2.215 . S
O421 C398 1.283 . S
O422 Mn396 2.094 . S
O422 C400 1.240 . S
O423 Mn397 2.117 . S
O423 C400 1.264 . S
C424 C417 1.403 . S
C424 C425 1.399 . S
C424 H430 0.929 . S
C425 C405 1.449 . S
C425 C424 1.399 . S
C425 H431 0.930 . S
H426 C406 0.931 . S
H427 C407 0.930 . S
H428 C415 0.931 . S
H429 C416 0.929 . S
H430 C424 0.929 . S
H431 C425 0.930 . S
Mn432 O437 2.095 . S
Mn432 O447 2.162 . S
Mn432 O448 2.297 . S
Mn432 O456 2.385 . S
Mn432 O457 2.209 . S
Mn432 O458 2.094 . S
Mn433 O438 2.121 . S
Mn433 N440 2.257 . S
Mn433 N449 2.282 . S
Mn433 O457 2.215 . S
Mn433 O459 2.117 . S
C434 O456 1.234 . S
C434 O457 1.283 . S
C435 O447 1.281 . S
C435 O448 1.236 . S
C436 O458 1.240 . S
C436 O459 1.264 . S
O437 Mn432 2.095 . S
O437 C446 1.250 . S
O438 Mn433 2.121 . S
O438 C446 1.258 . S
C439 N440 1.326 . S
C439 C443 1.460 . S
C439 H445 0.929 . S
N440 Mn433 2.257 . S
N440 C439 1.326 . S
N440 C444 1.362 . S
C441 C442 1.258 . S
C441 C444 1.431 . S
C441 C461 1.449 . S
C442 C441 1.258 . S
C442 C443 1.477 . S
C442 H462 0.931 . S
C443 C439 1.460 . S
C443 C442 1.477 . S
C443 H463 0.930 . S
C444 N440 1.362 . S
C444 C441 1.431 . S
C444 C454 1.476 . S
H445 C439 0.929 . S
C446 O437 1.250 . S
C446 O438 1.258 . S
O447 Mn432 2.162 . S
O447 C435 1.281 . S
O448 Mn432 2.297 . S
O448 C435 1.236 . S
N449 Mn433 2.282 . S
N449 C450 1.328 . S
N449 C454 1.318 . S
C450 N449 1.328 . S
C450 C451 1.457 . S
C450 H455 0.929 . S
C451 C450 1.457 . S
C451 C452 1.291 . S
C451 H464 0.931 . S
C452 C451 1.291 . S
C452 C453 1.373 . S
C452 H465 0.929 . S
C453 C452 1.373 . S
C453 C454 1.396 . S
C453 C460 1.403 . S
C454 C444 1.476 . S
C454 N449 1.318 . S
C454 C453 1.396 . S
H455 C450 0.929 . S
O456 Mn432 2.385 . S
O456 C434 1.234 . S
O457 Mn432 2.209 . S
O457 Mn433 2.215 . S
O457 C434 1.283 . S
O458 Mn432 2.094 . S
O458 C436 1.240 . S
O459 Mn433 2.117 . S
O459 C436 1.264 . S
C460 C453 1.403 . S
C460 C461 1.399 . S
C460 H466 0.929 . S
C461 C441 1.449 . S
C461 C460 1.399 . S
C461 H467 0.930 . S
H462 C442 0.931 . S
H463 C443 0.930 . S
H464 C451 0.931 . S
H465 C452 0.929 . S
H466 C460 0.929 . S
H467 C461 0.930 . S
Mn468 O473 2.095 . S
Mn468 O483 2.162 . S
Mn468 O484 2.297 . S
Mn468 O492 2.385 . S
Mn468 O493 2.209 . S
Mn468 O494 2.094 . S
Mn469 O474 2.121 . S
Mn469 N476 2.257 . S
Mn469 N485 2.282 . S
Mn469 O493 2.215 . S
Mn469 O495 2.117 . S
C470 O492 1.234 . S
C470 O493 1.283 . S
C471 O483 1.281 . S
C471 O484 1.236 . S
C472 O494 1.240 . S
C472 O495 1.264 . S
O473 Mn468 2.095 . S
O473 C482 1.250 . S
O474 Mn469 2.121 . S
O474 C482 1.258 . S
C475 N476 1.326 . S
C475 C479 1.460 . S
C475 H481 0.929 . S
N476 Mn469 2.257 . S
N476 C475 1.326 . S
N476 C480 1.362 . S
C477 C478 1.258 . S
C477 C480 1.431 . S
C477 C497 1.449 . S
C478 C477 1.258 . S
C478 C479 1.477 . S
C478 H498 0.931 . S
C479 C475 1.460 . S
C479 C478 1.477 . S
C479 H499 0.930 . S
C480 N476 1.362 . S
C480 C477 1.431 . S
C480 C490 1.476 . S
H481 C475 0.929 . S
C482 O473 1.250 . S
C482 O474 1.258 . S
O483 Mn468 2.162 . S
O483 C471 1.281 . S
O484 Mn468 2.297 . S
O484 C471 1.236 . S
N485 Mn469 2.282 . S
N485 C486 1.328 . S
N485 C490 1.318 . S
C486 N485 1.328 . S
C486 C487 1.457 . S
C486 H491 0.929 . S
C487 C486 1.457 . S
C487 C488 1.291 . S
C487 H500 0.931 . S
C488 C487 1.291 . S
C488 C489 1.373 . S
C488 H501 0.929 . S
C489 C488 1.373 . S
C489 C490 1.396 . S
C489 C496 1.403 . S
C490 C480 1.476 . S
C490 N485 1.318 . S
C490 C489 1.396 . S
H491 C486 0.929 . S
O492 Mn468 2.385 . S
O492 C470 1.234 . S
O493 Mn468 2.209 . S
O493 Mn469 2.215 . S
O493 C470 1.283 . S
O494 Mn468 2.094 . S
O494 C472 1.240 . S
O495 Mn469 2.117 . S
O495 C472 1.264 . S
C496 C489 1.403 . S
C496 C497 1.399 . S
C496 H502 0.929 . S
C497 C477 1.449 . S
C497 C496 1.399 . S
C497 H503 0.930 . S
H498 C478 0.931 . S
H499 C479 0.930 . S
H500 C487 0.931 . S
H501 C488 0.929 . S
H502 C496 0.929 . S
H503 C497 0.930 . S
Mn504 O509 2.095 . S
Mn504 O519 2.162 . S
Mn504 O520 2.297 . S
Mn504 O528 2.385 . S
Mn504 O529 2.209 . S
Mn504 O530 2.094 . S
Mn505 O510 2.121 . S
Mn505 N512 2.257 . S
Mn505 N521 2.282 . S
Mn505 O529 2.215 . S
Mn505 O531 2.117 . S
C506 O528 1.234 . S
C506 O529 1.283 . S
C507 O519 1.281 . S
C507 O520 1.236 . S
C508 O530 1.240 . S
C508 O531 1.264 . S
O509 Mn504 2.095 . S
O509 C518 1.250 . S
O510 Mn505 2.121 . S
O510 C518 1.258 . S
C511 N512 1.326 . S
C511 C515 1.460 . S
C511 H517 0.929 . S
N512 Mn505 2.257 . S
N512 C511 1.326 . S
N512 C516 1.362 . S
C513 C514 1.258 . S
C513 C516 1.431 . S
C513 C533 1.449 . S
C514 C513 1.258 . S
C514 C515 1.477 . S
C514 H534 0.931 . S
C515 C511 1.460 . S
C515 C514 1.477 . S
C515 H535 0.930 . S
C516 N512 1.362 . S
C516 C513 1.431 . S
C516 C526 1.476 . S
H517 C511 0.929 . S
C518 O509 1.250 . S
C518 O510 1.258 . S
O519 Mn504 2.162 . S
O519 C507 1.281 . S
O520 Mn504 2.297 . S
O520 C507 1.236 . S
N521 Mn505 2.282 . S
N521 C522 1.328 . S
N521 C526 1.318 . S
C522 N521 1.328 . S
C522 C523 1.457 . S
C522 H527 0.929 . S
C523 C522 1.457 . S
C523 C524 1.291 . S
C523 H536 0.931 . S
C524 C523 1.291 . S
C524 C525 1.373 . S
C524 H537 0.929 . S
C525 C524 1.373 . S
C525 C526 1.396 . S
C525 C532 1.403 . S
C526 C516 1.476 . S
C526 N521 1.318 . S
C526 C525 1.396 . S
H527 C522 0.929 . S
O528 Mn504 2.385 . S
O528 C506 1.234 . S
O529 Mn504 2.209 . S
O529 Mn505 2.215 . S
O529 C506 1.283 . S
O530 Mn504 2.094 . S
O530 C508 1.240 . S
O531 Mn505 2.117 . S
O531 C508 1.264 . S
C532 C525 1.403 . S
C532 C533 1.399 . S
C532 H538 0.929 . S
C533 C513 1.449 . S
C533 C532 1.399 . S
C533 H539 0.930 . S
H534 C514 0.931 . S
H535 C515 0.930 . S
H536 C523 0.931 . S
H537 C524 0.929 . S
H538 C532 0.929 . S
H539 C533 0.930 . S
Mn540 O545 2.095 . S
Mn540 O555 2.162 . S
Mn540 O556 2.297 . S
Mn540 O564 2.385 . S
Mn540 O565 2.209 . S
Mn540 O566 2.094 . S
Mn541 O546 2.121 . S
Mn541 N548 2.257 . S
Mn541 N557 2.282 . S
Mn541 O565 2.215 . S
Mn541 O567 2.117 . S
C542 O564 1.234 . S
C542 O565 1.283 . S
C543 O555 1.281 . S
C543 O556 1.236 . S
C544 O566 1.240 . S
C544 O567 1.264 . S
O545 Mn540 2.095 . S
O545 C554 1.250 . S
O546 Mn541 2.121 . S
O546 C554 1.258 . S
C547 N548 1.326 . S
C547 C551 1.460 . S
C547 H553 0.929 . S
N548 Mn541 2.257 . S
N548 C547 1.326 . S
N548 C552 1.362 . S
C549 C550 1.258 . S
C549 C552 1.431 . S
C549 C569 1.449 . S
C550 C549 1.258 . S
C550 C551 1.477 . S
C550 H570 0.931 . S
C551 C547 1.460 . S
C551 C550 1.477 . S
C551 H571 0.930 . S
C552 N548 1.362 . S
C552 C549 1.431 . S
C552 C562 1.476 . S
H553 C547 0.929 . S
C554 O545 1.250 . S
C554 O546 1.258 . S
O555 Mn540 2.162 . S
O555 C543 1.281 . S
O556 Mn540 2.297 . S
O556 C543 1.236 . S
N557 Mn541 2.282 . S
N557 C558 1.328 . S
N557 C562 1.318 . S
C558 N557 1.328 . S
C558 C559 1.457 . S
C558 H563 0.929 . S
C559 C558 1.457 . S
C559 C560 1.291 . S
C559 H572 0.931 . S
C560 C559 1.291 . S
C560 C561 1.373 . S
C560 H573 0.929 . S
C561 C560 1.373 . S
C561 C562 1.396 . S
C561 C568 1.403 . S
C562 C552 1.476 . S
C562 N557 1.318 . S
C562 C561 1.396 . S
H563 C558 0.929 . S
O564 Mn540 2.385 . S
O564 C542 1.234 . S
O565 Mn540 2.209 . S
O565 Mn541 2.215 . S
O565 C542 1.283 . S
O566 Mn540 2.094 . S
O566 C544 1.240 . S
O567 Mn541 2.117 . S
O567 C544 1.264 . S
C568 C561 1.403 . S
C568 C569 1.399 . S
C568 H574 0.929 . S
C569 C549 1.449 . S
C569 C568 1.399 . S
C569 H575 0.930 . S
H570 C550 0.931 . S
H571 C551 0.930 . S
H572 C559 0.931 . S
H573 C560 0.929 . S
H574 C568 0.929 . S
H575 C569 0.930 . S
C576 C577 1.387 . S
C576 H580 0.950 . S
C576 C585 1.390 . S
C577 C576 1.387 . S
C577 C579 1.387 . S
H578 C585 0.950 . S
C579 C577 1.387 . S
C579 C581 1.390 . S
C579 H583 0.950 . S
H580 C576 0.950 . S
C581 C579 1.390 . S
C581 C582 1.387 . S
C581 H584 0.950 . S
C582 C581 1.387 . S
C582 C585 1.387 . S
H583 C579 0.950 . S
H584 C581 0.950 . S
C585 C576 1.390 . S
C585 H578 0.950 . S
C585 C582 1.387 . S
C586 C587 1.387 . S
C586 H590 0.950 . S
C586 C595 1.390 . S
C587 C586 1.387 . S
C587 C589 1.387 . S
H588 C595 0.950 . S
C589 C587 1.387 . S
C589 C591 1.390 . S
C589 H593 0.950 . S
H590 C586 0.950 . S
C591 C589 1.390 . S
C591 C592 1.387 . S
C591 H594 0.950 . S
C592 C591 1.387 . S
C592 C595 1.387 . S
H593 C589 0.950 . S
H594 C591 0.950 . S
C595 C586 1.390 . S
C595 H588 0.950 . S
C595 C592 1.387 . S
C596 C597 1.387 . S
C596 H600 0.950 . S
C596 C605 1.390 . S
C597 C596 1.387 . S
C597 C599 1.387 . S
H598 C605 0.950 . S
C599 C597 1.387 . S
C599 C601 1.390 . S
C599 H603 0.950 . S
H600 C596 0.950 . S
C601 C599 1.390 . S
C601 C602 1.387 . S
C601 H604 0.950 . S
C602 C601 1.387 . S
C602 C605 1.387 . S
H603 C599 0.950 . S
H604 C601 0.950 . S
C605 C596 1.390 . S
C605 H598 0.950 . S
C605 C602 1.387 . S
C606 C607 1.387 . S
C606 H610 0.950 . S
C606 C615 1.390 . S
C607 C606 1.387 . S
C607 C609 1.387 . S
H608 C615 0.950 . S
C609 C607 1.387 . S
C609 C611 1.390 . S
C609 H613 0.950 . S
H610 C606 0.950 . S
C611 C609 1.390 . S
C611 C612 1.387 . S
C611 H614 0.950 . S
C612 C611 1.387 . S
C612 C615 1.387 . S
H613 C609 0.950 . S
H614 C611 0.950 . S
C615 C606 1.390 . S
C615 H608 0.950 . S
C615 C612 1.387 . S
C616 C617 1.387 . S
C616 H620 0.950 . S
C616 C625 1.390 . S
C617 C616 1.387 . S
C617 C619 1.387 . S
H618 C625 0.950 . S
C619 C617 1.387 . S
C619 C621 1.390 . S
C619 H623 0.950 . S
H620 C616 0.950 . S
C621 C619 1.390 . S
C621 C622 1.387 . S
C621 H624 0.950 . S
C622 C621 1.387 . S
C622 C625 1.387 . S
H623 C619 0.950 . S
H624 C621 0.950 . S
C625 C616 1.390 . S
C625 H618 0.950 . S
C625 C622 1.387 . S
C626 C627 1.387 . S
C626 H630 0.950 . S
C626 C635 1.390 . S
C627 C626 1.387 . S
C627 C629 1.387 . S
H628 C635 0.950 . S
C629 C627 1.387 . S
C629 C631 1.390 . S
C629 H633 0.950 . S
H630 C626 0.950 . S
C631 C629 1.390 . S
C631 C632 1.387 . S
C631 H634 0.950 . S
C632 C631 1.387 . S
C632 C635 1.387 . S
H633 C629 0.950 . S
H634 C631 0.950 . S
C635 C626 1.390 . S
C635 H628 0.950 . S
C635 C632 1.387 . S
C636 C637 1.387 . S
C636 H640 0.950 . S
C636 C645 1.390 . S
C637 C636 1.387 . S
C637 C639 1.387 . S
H638 C645 0.950 . S
C639 C637 1.387 . S
C639 C641 1.390 . S
C639 H643 0.950 . S
H640 C636 0.950 . S
C641 C639 1.390 . S
C641 C642 1.387 . S
C641 H644 0.950 . S
C642 C641 1.387 . S
C642 C645 1.387 . S
H643 C639 0.950 . S
H644 C641 0.950 . S
C645 C636 1.390 . S
C645 H638 0.950 . S
C645 C642 1.387 . S
C646 C647 1.387 . S
C646 H650 0.950 . S
C646 C655 1.390 . S
C647 C646 1.387 . S
C647 C649 1.387 . S
H648 C655 0.950 . S
C649 C647 1.387 . S
C649 C651 1.390 . S
C649 H653 0.950 . S
H650 C646 0.950 . S
C651 C649 1.390 . S
C651 C652 1.387 . S
C651 H654 0.950 . S
C652 C651 1.387 . S
C652 C655 1.387 . S
H653 C649 0.950 . S
H654 C651 0.950 . S
C655 C646 1.390 . S
C655 H648 0.950 . S
C655 C652 1.387 . S
C656 C657 1.387 . S
C656 H660 0.950 . S
C656 C665 1.390 1_565 S
C657 C656 1.387 . S
C657 C659 1.387 . S
H658 C665 0.950 . S
C659 C657 1.387 . S
C659 C661 1.395 . S
C659 H663 0.950 . S
H660 C656 0.950 . S
C661 C659 1.395 . S
C661 C662 1.384 1_565 S
C661 H664 0.948 1_565 S
C662 C661 1.384 1_545 S
C662 C665 1.387 . S
H663 C659 0.950 . S
H664 C661 0.948 1_545 S
C665 C656 1.390 1_545 S
C665 H658 0.950 . S
C665 C662 1.387 . S
C666 C667 1.387 . S
C666 H670 0.950 . S
C666 C675 1.390 . S
C667 C666 1.387 . S
C667 C669 1.387 . S
H668 C675 0.950 . S
C669 C667 1.387 . S
C669 C671 1.390 . S
C669 H673 0.950 . S
H670 C666 0.950 . S
C671 C669 1.390 . S
C671 C672 1.387 . S
C671 H674 0.950 . S
C672 C671 1.387 . S
C672 C675 1.387 . S
H673 C669 0.950 . S
H674 C671 0.950 . S
C675 C666 1.390 . S
C675 H668 0.950 . S
C675 C672 1.387 . S
C676 C677 1.387 . S
C676 H680 0.950 . S
C676 C685 1.390 1_556 S
C677 C676 1.387 . S
C677 C679 1.387 . S
H678 C685 0.950 . S
C679 C677 1.387 . S
C679 C681 1.390 1_556 S
C679 H683 0.950 . S
H680 C676 0.950 . S
C681 C679 1.390 1_554 S
C681 C682 1.387 . S
C681 H684 0.950 . S
C682 C681 1.387 . S
C682 C685 1.387 . S
H683 C679 0.950 . S
H684 C681 0.950 . S
C685 C676 1.390 1_554 S
C685 H678 0.950 . S
C685 C682 1.387 . S
C686 C687 1.387 . S
C686 H690 0.950 . S
C686 C695 1.390 1_554 S
C687 C686 1.387 . S
C687 C689 1.387 . S
H688 C695 0.950 . S
C689 C687 1.387 . S
C689 C691 1.390 1_554 S
C689 H693 0.950 . S
H690 C686 0.950 . S
C691 C689 1.390 1_556 S
C691 C692 1.387 . S
C691 H694 0.950 . S
C692 C691 1.387 . S
C692 C695 1.387 . S
H693 C689 0.950 . S
H694 C691 0.950 . S
C695 C686 1.390 1_556 S
C695 H688 0.950 . S
C695 C692 1.387 . S
C696 C697 1.387 . S
C696 H700 0.950 . S
C696 C705 1.390 . S
C697 C696 1.387 . S
C697 C699 1.387 . S
H698 C705 0.950 . S
C699 C697 1.387 . S
C699 C701 1.390 . S
C699 H703 0.950 . S
H700 C696 0.950 . S
C701 C699 1.390 . S
C701 C702 1.387 . S
C701 H704 0.950 . S
C702 C701 1.387 . S
C702 C705 1.387 . S
H703 C699 0.950 . S
H704 C701 0.950 . S
C705 C696 1.390 . S
C705 H698 0.950 . S
C705 C702 1.387 . S
C706 C707 1.387 . S
C706 H710 0.950 . S
C706 C715 1.390 . S
C707 C706 1.387 . S
C707 C709 1.387 . S
H708 C715 0.950 . S
C709 C707 1.387 . S
C709 C711 1.390 . S
C709 H713 0.950 . S
H710 C706 0.950 . S
C711 C709 1.390 . S
C711 C712 1.387 . S
C711 H714 0.950 . S
C712 C711 1.387 . S
C712 C715 1.387 . S
H713 C709 0.950 . S
H714 C711 0.950 . S
C715 C706 1.390 . S
C715 H708 0.950 . S
C715 C712 1.387 . S
C716 C717 1.387 . S
C716 H720 0.950 . S
C716 C725 1.390 1_655 S
C717 C716 1.387 . S
C717 C719 1.387 . S
H718 C725 0.950 . S
C719 C717 1.387 . S
C719 C721 1.390 1_655 S
C719 H723 0.950 . S
H720 C716 0.950 . S
C721 C719 1.390 1_455 S
C721 C722 1.387 . S
C721 H724 0.950 . S
C722 C721 1.387 . S
C722 C725 1.387 . S
H723 C719 0.950 . S
H724 C721 0.950 . S
C725 C716 1.390 1_455 S
C725 H718 0.950 . S
C725 C722 1.387 . S
C726 C727 1.387 . S
C726 H730 0.950 . S
C726 C735 1.390 1_655 S
C727 C726 1.387 . S
C727 C729 1.387 . S
H728 C735 0.950 . S
C729 C727 1.387 . S
C729 C731 1.390 1_655 S
C729 H733 0.950 . S
H730 C726 0.950 . S
C731 C729 1.390 1_455 S
C731 C732 1.387 . S
C731 H734 0.950 . S
C732 C731 1.387 . S
C732 C735 1.387 . S
H733 C729 0.950 . S
H734 C731 0.950 . S
C735 C726 1.390 1_455 S
C735 H728 0.950 . S
C735 C732 1.387 . S
C736 C737 1.387 . S
C736 H740 0.950 . S
C736 C745 1.390 . S
C737 C736 1.387 . S
C737 C739 1.387 . S
H738 C745 0.950 . S
C739 C737 1.387 . S
C739 C741 1.390 . S
C739 H743 0.950 . S
H740 C736 0.950 . S
C741 C739 1.390 . S
C741 C742 1.387 . S
C741 H744 0.950 . S
C742 C741 1.387 . S
C742 C745 1.387 . S
H743 C739 0.950 . S
H744 C741 0.950 . S
C745 C736 1.390 . S
C745 H738 0.950 . S
C745 C742 1.387 . S
C746 C747 1.387 . S
C746 H750 0.950 . S
C746 C755 1.390 . S
C747 C746 1.387 . S
C747 C749 1.387 . S
H748 C755 0.950 . S
C749 C747 1.387 . S
C749 C751 1.390 1_545 S
C749 H753 0.950 . S
H750 C746 0.950 . S
C751 C749 1.390 1_565 S
C751 C752 1.387 . S
C751 H754 0.950 . S
C752 C751 1.387 . S
C752 C755 1.387 1_565 S
H753 C749 0.950 . S
H754 C751 0.950 . S
C755 C746 1.390 . S
C755 H748 0.950 . S
C755 C752 1.387 1_545 S
C756 C757 1.387 . S
C756 H760 0.950 . S
C756 C765 1.390 . S
C757 C756 1.387 . S
C757 C759 1.387 . S
H758 C765 0.950 . S
C759 C757 1.387 . S
C759 C761 1.390 . S
C759 H763 0.950 . S
H760 C756 0.950 . S
C761 C759 1.390 . S
C761 C762 1.387 . S
C761 H764 0.950 . S
C762 C761 1.387 . S
C762 C765 1.387 . S
H763 C759 0.950 . S
H764 C761 0.950 . S
C765 C756 1.390 . S
C765 H758 0.950 . S
C765 C762 1.387 . S
C766 C767 1.403 . S
C766 H770 0.951 1_554 S
C766 C775 1.374 1_554 S
C767 C766 1.403 . S
C767 C769 1.387 . S
H768 C775 0.950 . S
C769 C767 1.387 . S
C769 C771 1.390 . S
C769 H773 0.950 . S
H770 C766 0.951 1_556 S
C771 C769 1.390 . S
C771 C772 1.387 1_554 S
C771 H774 0.950 . S
C772 C771 1.387 1_556 S
C772 C775 1.387 . S
H773 C769 0.950 . S
H774 C771 0.950 . S
C775 C766 1.374 1_556 S
C775 H768 0.950 . S
C775 C772 1.387 . S
C776 C777 1.387 1_554 S
C776 H780 0.950 . S
C776 C785 1.390 . S
C777 C776 1.387 1_556 S
C777 C779 1.387 . S
H778 C785 0.950 . S
C779 C777 1.387 . S
C779 C781 1.397 . S
C779 H783 0.950 . S
H780 C776 0.950 . S
C781 C779 1.397 . S
C781 C782 1.380 1_556 S
C781 H784 0.950 . S
C782 C781 1.380 1_554 S
C782 C785 1.387 . S
H783 C779 0.950 . S
H784 C781 0.950 . S
C785 C776 1.390 . S
C785 H778 0.950 . S
C785 C782 1.387 . S
C786 C787 1.387 . S
C786 H790 0.950 . S
C786 C795 1.390 . S
C787 C786 1.387 . S
C787 C789 1.387 . S
H788 C795 0.950 . S
C789 C787 1.387 . S
C789 C791 1.390 . S
C789 H793 0.950 . S
H790 C786 0.950 . S
C791 C789 1.390 . S
C791 C792 1.387 . S
C791 H794 0.950 . S
C792 C791 1.387 . S
C792 C795 1.387 . S
H793 C789 0.950 . S
H794 C791 0.950 . S
C795 C786 1.390 . S
C795 H788 0.950 . S
C795 C792 1.387 . S
C796 C797 1.387 . S
C796 H800 0.950 . S
C796 C805 1.390 . S
C797 C796 1.387 . S
C797 C799 1.387 . S
H798 C805 0.950 . S
C799 C797 1.387 . S
C799 C801 1.390 . S
C799 H803 0.950 . S
H800 C796 0.950 . S
C801 C799 1.390 . S
C801 C802 1.387 . S
C801 H804 0.950 . S
C802 C801 1.387 . S
C802 C805 1.387 . S
H803 C799 0.950 . S
H804 C801 0.950 . S
C805 C796 1.390 . S
C805 H798 0.950 . S
C805 C802 1.387 . S
C806 C807 1.387 . S
C806 H810 0.950 . S
C806 C815 1.390 1_455 S
C807 C806 1.387 . S
C807 C809 1.387 . S
H808 C815 0.950 . S
C809 C807 1.387 . S
C809 C811 1.390 1_455 S
C809 H813 0.950 . S
H810 C806 0.950 . S
C811 C809 1.390 1_655 S
C811 C812 1.387 . S
C811 H814 0.950 . S
C812 C811 1.387 . S
C812 C815 1.387 . S
H813 C809 0.950 . S
H814 C811 0.950 . S
C815 C806 1.390 1_655 S
C815 H808 0.950 . S
C815 C812 1.387 . S
C816 C817 1.387 . S
C816 H820 0.950 . S
C816 C825 1.390 1_455 S
C817 C816 1.387 . S
C817 C819 1.387 . S
H818 C825 0.950 . S
C819 C817 1.387 . S
C819 C821 1.390 1_455 S
C819 H823 0.950 . S
H820 C816 0.950 . S
C821 C819 1.390 1_655 S
C821 C822 1.387 . S
C821 H824 0.950 . S
C822 C821 1.387 . S
C822 C825 1.387 . S
H823 C819 0.950 . S
H824 C821 0.950 . S
C825 C816 1.390 1_655 S
C825 H818 0.950 . S
C825 C822 1.387 . S
C826 C827 1.387 . S
C826 H830 0.950 . S
C826 C835 1.390 . S
C827 C826 1.387 . S
C827 C829 1.387 . S
H828 C835 0.950 . S
C829 C827 1.387 . S
C829 C831 1.390 . S
C829 H833 0.950 . S
H830 C826 0.950 . S
C831 C829 1.390 . S
C831 C832 1.387 . S
C831 H834 0.950 . S
C832 C831 1.387 . S
C832 C835 1.387 . S
H833 C829 0.950 . S
H834 C831 0.950 . S
C835 C826 1.390 . S
C835 H828 0.950 . S
C835 C832 1.387 . S
C836 C837 1.387 . S
C836 H840 0.950 . S
C836 C845 1.390 . S
C837 C836 1.387 . S
C837 C839 1.387 . S
H838 C845 0.950 . S
C839 C837 1.387 . S
C839 C841 1.390 . S
C839 H843 0.950 . S
H840 C836 0.950 . S
C841 C839 1.390 . S
C841 C842 1.387 . S
C841 H844 0.950 . S
C842 C841 1.387 . S
C842 C845 1.387 . S
H843 C839 0.950 . S
H844 C841 0.950 . S
C845 C836 1.390 . S
C845 H838 0.950 . S
C845 C842 1.387 . S
C846 C847 1.387 . S
C846 H850 0.950 . S
C846 C855 1.390 1_545 S
C847 C846 1.387 . S
C847 C849 1.387 . S
H848 C855 0.950 . S
C849 C847 1.387 . S
C849 C851 1.390 1_545 S
C849 H853 0.950 . S
H850 C846 0.950 . S
C851 C849 1.390 1_565 S
C851 C852 1.387 . S
C851 H854 0.950 . S
C852 C851 1.387 . S
C852 C855 1.387 . S
H853 C849 0.950 . S
H854 C851 0.950 . S
C855 C846 1.390 1_565 S
C855 H848 0.950 . S
C855 C852 1.387 . S
C856 C857 1.387 . S
C856 H860 0.950 . S
C856 C865 1.390 . S
C857 C856 1.387 . S
C857 C859 1.387 . S
H858 C865 0.950 . S
C859 C857 1.387 . S
C859 C861 1.390 . S
C859 H863 0.950 . S
H860 C856 0.950 . S
C861 C859 1.390 . S
C861 C862 1.387 . S
C861 H864 0.950 . S
C862 C861 1.387 . S
C862 C865 1.387 . S
H863 C859 0.950 . S
H864 C861 0.950 . S
C865 C856 1.390 . S
C865 H858 0.950 . S
C865 C862 1.387 . S
C866 C867 1.387 . S
C866 H870 0.950 . S
C866 C875 1.390 . S
C867 C866 1.387 . S
C867 C869 1.387 . S
H868 C875 0.950 . S
C869 C867 1.387 . S
C869 C871 1.390 . S
C869 H873 0.950 . S
H870 C866 0.950 . S
C871 C869 1.390 . S
C871 C872 1.387 . S
C871 H874 0.950 . S
C872 C871 1.387 . S
C872 C875 1.387 . S
H873 C869 0.950 . S
H874 C871 0.950 . S
C875 C866 1.390 . S
C875 H868 0.950 . S
C875 C872 1.387 . S
C876 C877 1.387 . S
C876 H880 0.950 . S
C876 C885 1.390 1_545 S
C877 C876 1.387 . S
C877 C879 1.387 . S
H878 C885 0.950 . S
C879 C877 1.387 . S
C879 C881 1.390 1_545 S
C879 H883 0.950 . S
H880 C876 0.950 . S
C881 C879 1.390 1_565 S
C881 C882 1.387 . S
C881 H884 0.950 . S
C882 C881 1.387 . S
C882 C885 1.387 . S
H883 C879 0.950 . S
H884 C881 0.950 . S
C885 C876 1.390 1_565 S
C885 H878 0.950 . S
C885 C882 1.387 . S
C886 C887 1.387 . S
C886 H890 0.950 . S
C886 C895 1.390 . S
C887 C886 1.387 . S
C887 C889 1.387 . S
H888 C895 0.950 . S
C889 C887 1.387 . S
C889 C891 1.390 . S
C889 H893 0.950 . S
H890 C886 0.950 . S
C891 C889 1.390 . S
C891 C892 1.387 . S
C891 H894 0.950 . S
C892 C891 1.387 . S
C892 C895 1.387 . S
H893 C889 0.950 . S
H894 C891 0.950 . S
C895 C886 1.390 . S
C895 H888 0.950 . S
C895 C892 1.387 . S
C577 C2 1.340 . S
C582 C470 1.339 . S
C587 C38 1.168 . S
C592 C326 1.164 . S
C597 C506 1.194 . S
C602 C74 1.192 . S
C607 C110 1.337 . S
C612 C542 1.340 . S
C617 C146 1.169 . S
C622 C218 1.164 . S
C627 C362 1.339 . S
C632 C182 1.339 . S
C637 C398 1.191 . S
C642 C254 1.193 . S
C647 C290 1.340 . S
C652 C434 1.336 . S
C657 C75 1.619 . S
C662 C14 1.502 . S
C667 C50 1.617 . S
C672 C122 1.607 . S
C677 C435 1.607 . S
C682 C3 1.608 . S
C687 C39 1.664 . S
C692 C400 1.663 . S
C697 C147 1.665 . S
C702 C76 1.663 . S
C707 C363 1.608 . S
C712 C111 1.608 . S
C717 C40 1.717 . S
C722 C4 1.701 . S
C727 C112 1.179 . S
C732 C86 1.095 . S
C737 C364 1.701 . S
C742 C148 1.717 . S
C747 C256 1.624 . S
C752 C183 1.627 . S
C757 C219 1.334 . S
C762 C292 1.332 . S
C767 C543 1.686 . S
C772 C194 1.553 . S
C777 C230 1.429 . S
C782 C507 1.535 . S
C787 C338 1.432 . S
C792 C255 1.537 . S
C797 C291 1.685 . S
C802 C482 1.550 . S
C807 C220 1.626 . S
C812 C184 1.629 . S
C817 C302 1.648 . S
C822 C266 1.682 . S
C827 C328 1.626 . S
C832 C472 1.629 . S
C837 C374 1.500 . S
C842 C399 1.619 . S
C847 C446 1.607 . S
C852 C158 1.617 . S
C857 C436 1.179 . S
C862 C410 1.095 . S
C867 C508 1.623 . S
C872 C471 1.627 . S
C877 C327 1.334 . S
C882 C544 1.332 . S
C887 C554 1.647 . S
C892 C518 1.682 . S
