# Generated by pormake.
# Topology zfp, (5)-cn, num edge types: 1
# Building blocks:
#     Node 0, Type 0, BuildingBlock: BEQFEK_clean_sbu_0, # of connection points: 5
#     Node 1, Type 0, BuildingBlock: BEQFEK_clean_sbu_0, # of connection points: 5
#     Node 2, Type 0, BuildingBlock: BEQFEK_clean_sbu_0, # of connection points: 5
#     Node 3, Type 0, BuildingBlock: BEQFEK_clean_sbu_0, # of connection points: 5
#     Node 4, Type 0, BuildingBlock: BEQFEK_clean_sbu_0, # of connection points: 5
#     Node 5, Type 0, BuildingBlock: BEQFEK_clean_sbu_0, # of connection points: 5
#     Node 6, Type 0, BuildingBlock: BEQFEK_clean_sbu_0, # of connection points: 5
#     Node 7, Type 0, BuildingBlock: BEQFEK_clean_sbu_0, # of connection points: 5
#     Node 8, Type 0, BuildingBlock: BEQFEK_clean_sbu_0, # of connection points: 5
#     Node 9, Type 0, BuildingBlock: BEQFEK_clean_sbu_0, # of connection points: 5
#     Node 10, Type 0, BuildingBlock: BEQFEK_clean_sbu_0, # of connection points: 5
#     Node 11, Type 0, BuildingBlock: BEQFEK_clean_sbu_0, # of connection points: 5
#     Node 12, Type 0, BuildingBlock: BEQFEK_clean_sbu_0, # of connection points: 5
#     Node 13, Type 0, BuildingBlock: BEQFEK_clean_sbu_0, # of connection points: 5
#     Node 14, Type 0, BuildingBlock: BEQFEK_clean_sbu_0, # of connection points: 5
#     Node 15, Type 0, BuildingBlock: BEQFEK_clean_sbu_0, # of connection points: 5
#     Edge 16, Type (0, 0), BuildingBlock: XUDNAN_clean_linker_2, # of connection points: 2
#     Edge 17, Type (0, 0), BuildingBlock: XUDNAN_clean_linker_2, # of connection points: 2
#     Edge 18, Type (0, 0), BuildingBlock: XUDNAN_clean_linker_2, # of connection points: 2
#     Edge 19, Type (0, 0), BuildingBlock: XUDNAN_clean_linker_2, # of connection points: 2
#     Edge 20, Type (0, 0), BuildingBlock: XUDNAN_clean_linker_2, # of connection points: 2
#     Edge 21, Type (0, 0), BuildingBlock: XUDNAN_clean_linker_2, # of connection points: 2
#     Edge 22, Type (0, 0), BuildingBlock: XUDNAN_clean_linker_2, # of connection points: 2
#     Edge 23, Type (0, 0), BuildingBlock: XUDNAN_clean_linker_2, # of connection points: 2
#     Edge 24, Type (0, 0), BuildingBlock: XUDNAN_clean_linker_2, # of connection points: 2
#     Edge 25, Type (0, 0), BuildingBlock: XUDNAN_clean_linker_2, # of connection points: 2
#     Edge 26, Type (0, 0), BuildingBlock: XUDNAN_clean_linker_2, # of connection points: 2
#     Edge 27, Type (0, 0), BuildingBlock: XUDNAN_clean_linker_2, # of connection points: 2
#     Edge 28, Type (0, 0), BuildingBlock: XUDNAN_clean_linker_2, # of connection points: 2
#     Edge 29, Type (0, 0), BuildingBlock: XUDNAN_clean_linker_2, # of connection points: 2
#     Edge 30, Type (0, 0), BuildingBlock: XUDNAN_clean_linker_2, # of connection points: 2
#     Edge 31, Type (0, 0), BuildingBlock: XUDNAN_clean_linker_2, # of connection points: 2
#     Edge 32, Type (0, 0), BuildingBlock: XUDNAN_clean_linker_2, # of connection points: 2
#     Edge 33, Type (0, 0), BuildingBlock: XUDNAN_clean_linker_2, # of connection points: 2
#     Edge 34, Type (0, 0), BuildingBlock: XUDNAN_clean_linker_2, # of connection points: 2
#     Edge 35, Type (0, 0), BuildingBlock: XUDNAN_clean_linker_2, # of connection points: 2
#     Edge 36, Type (0, 0), BuildingBlock: XUDNAN_clean_linker_2, # of connection points: 2
#     Edge 37, Type (0, 0), BuildingBlock: XUDNAN_clean_linker_2, # of connection points: 2
#     Edge 38, Type (0, 0), BuildingBlock: XUDNAN_clean_linker_2, # of connection points: 2
#     Edge 39, Type (0, 0), BuildingBlock: XUDNAN_clean_linker_2, # of connection points: 2
#     Edge 40, Type (0, 0), BuildingBlock: XUDNAN_clean_linker_2, # of connection points: 2
#     Edge 41, Type (0, 0), BuildingBlock: XUDNAN_clean_linker_2, # of connection points: 2
#     Edge 42, Type (0, 0), BuildingBlock: XUDNAN_clean_linker_2, # of connection points: 2
#     Edge 43, Type (0, 0), BuildingBlock: XUDNAN_clean_linker_2, # of connection points: 2
#     Edge 44, Type (0, 0), BuildingBlock: XUDNAN_clean_linker_2, # of connection points: 2
#     Edge 45, Type (0, 0), BuildingBlock: XUDNAN_clean_linker_2, # of connection points: 2
#     Edge 46, Type (0, 0), BuildingBlock: XUDNAN_clean_linker_2, # of connection points: 2
#     Edge 47, Type (0, 0), BuildingBlock: XUDNAN_clean_linker_2, # of connection points: 2
#     Edge 48, Type (0, 0), BuildingBlock: XUDNAN_clean_linker_2, # of connection points: 2
#     Edge 49, Type (0, 0), BuildingBlock: XUDNAN_clean_linker_2, # of connection points: 2
#     Edge 50, Type (0, 0), BuildingBlock: XUDNAN_clean_linker_2, # of connection points: 2
#     Edge 51, Type (0, 0), BuildingBlock: XUDNAN_clean_linker_2, # of connection points: 2
#     Edge 52, Type (0, 0), BuildingBlock: XUDNAN_clean_linker_2, # of connection points: 2
#     Edge 53, Type (0, 0), BuildingBlock: XUDNAN_clean_linker_2, # of connection points: 2
#     Edge 54, Type (0, 0), BuildingBlock: XUDNAN_clean_linker_2, # of connection points: 2
#     Edge 55, Type (0, 0), BuildingBlock: XUDNAN_clean_linker_2, # of connection points: 2
# Relax obj value: 0.110
# Max RMSD: 0.152
# Mean RMSD: 0.152
data_MOF--net-zfp--node1-BEQFEK_clean_sbu_0--edge1-XUDNAN_clean_linker_2
_symmetry_space_group_name_H-M    P1
_symmetry_Int_Tables_number       1
_symmetry_cell_setting            triclinic
loop_
_symmetry_equiv_pos_as_xyz
'x, y, z'
_cell_length_a     30.537156
_cell_length_b     30.57355
_cell_length_c     77.817697
_cell_angle_alpha  89.989003
_cell_angle_beta   89.983911
_cell_angle_gamma 89.987724
loop_
_atom_site_label
_atom_site_type_symbol
_atom_site_fract_x
_atom_site_fract_y
_atom_site_fract_z
_atom_type_partial_charge
Co0 Co 0.14816 0.32152 0.15058 0.0
Co1 Co 0.14246 0.29864 0.11121 0.0
C2 C 0.08137 0.25748 0.1355 0.0
O3 O 0.10004 0.27967 0.14724 0.0
O4 O 0.09551 0.25836 0.12006 0.0
C5 C 0.15822 0.29275 0.1849 0.0
O6 O 0.15298 0.25459 0.17742 0.0
C7 C 0.14272 0.2613 0.07571 0.0
C8 C 0.16887 0.31832 0.06158 0.0
C9 C 0.15453 0.27572 0.05938 0.0
N10 N 0.15018 0.29399 0.08695 0.0
N11 N 0.16547 0.32796 0.07835 0.0
C12 C 0.12659 0.21698 0.08076 0.0
H13 H 0.09029 0.21666 0.0801 0.0
H14 H 0.13643 0.20949 0.09417 0.0
H15 H 0.13951 0.19159 0.07191 0.0
C16 C 0.24182 0.30382 0.14433 0.0
N17 N 0.19981 0.30414 0.13908 0.0
N18 N 0.19801 0.29387 0.12268 0.0
C19 C 0.23924 0.28686 0.11693 0.0
C20 C 0.26851 0.29333 0.13045 0.0
C21 C 0.25566 0.31315 0.16243 0.0
H22 H 0.24052 0.28868 0.17107 0.0
H23 H 0.2916 0.31121 0.16417 0.0
H24 H 0.2437 0.34597 0.1663 0.0
O25 O 0.1256 0.37755 0.14167 0.0
O26 O 0.11814 0.35821 0.11434 0.0
H27 H 0.24528 0.30998 0.09118 0.0
H28 H 0.28502 0.26919 0.09668 0.0
C29 C 0.25048 0.27923 0.09844 0.0
H30 H 0.22863 0.25378 0.09302 0.0
H31 H 0.17389 0.35775 0.08399 0.0
O32 O 0.158 0.32713 0.17572 0.0
C33 C 0.11311 0.38589 0.1264 0.0
Co34 Co 0.68595 0.16411 0.65392 0.0
Co35 Co 0.67703 0.15284 0.61391 0.0
C36 C 0.73384 0.09313 0.63522 0.0
O37 O 0.72563 0.11383 0.6491 0.0
O38 O 0.71788 0.10535 0.62085 0.0
C39 C 0.67801 0.15736 0.69044 0.0
O40 O 0.66394 0.11791 0.68665 0.0
C41 C 0.70055 0.15486 0.57701 0.0
C42 C 0.63473 0.16044 0.56538 0.0
C43 C 0.6789 0.15935 0.56142 0.0
N44 N 0.67037 0.15385 0.58959 0.0
N45 N 0.63114 0.15659 0.58251 0.0
C46 C 0.74885 0.15495 0.5801 0.0
H47 H 0.75607 0.16504 0.59351 0.0
H48 H 0.7655 0.17715 0.57089 0.0
H49 H 0.76173 0.12139 0.57811 0.0
C50 C 0.70858 0.2552 0.64251 0.0
N51 N 0.69816 0.21307 0.63923 0.0
N52 N 0.69204 0.20846 0.62261 0.0
C53 C 0.69578 0.24768 0.6149 0.0
C54 C 0.70734 0.27881 0.62715 0.0
C55 C 0.72072 0.27182 0.65995 0.0
H56 H 0.73817 0.24602 0.66726 0.0
H57 H 0.74202 0.30113 0.65903 0.0
H58 H 0.69047 0.28051 0.66708 0.0
O59 O 0.62439 0.14191 0.65094 0.0
O60 O 0.61999 0.13725 0.62255 0.0
H61 H 0.67359 0.29086 0.59451 0.0
H62 H 0.70893 0.2465 0.58788 0.0
C63 C 0.68205 0.25605 0.5967 0.0
H64 H 0.6527 0.23637 0.59362 0.0
H65 H 0.60186 0.15712 0.58942 0.0
O66 O 0.69064 0.18239 0.67837 0.0
C67 C 0.60296 0.13334 0.63731 0.0
Co68 Co 0.86536 0.68871 0.1515 0.0
Co69 Co 0.8511 0.70096 0.11186 0.0
C70 C 0.91738 0.75371 0.12996 0.0
O71 O 0.90708 0.73588 0.14423 0.0
O72 O 0.89737 0.74446 0.11608 0.0
C73 C 0.85667 0.72217 0.18538 0.0
O74 O 0.85064 0.75887 0.17691 0.0
C75 C 0.84735 0.72417 0.07498 0.0
C76 C 0.7996 0.67514 0.06575 0.0
C77 C 0.82686 0.70853 0.06028 0.0
N78 N 0.83241 0.70117 0.08851 0.0
N79 N 0.80381 0.6721 0.08289 0.0
C80 C 0.88422 0.75629 0.07602 0.0
H81 H 0.91264 0.74064 0.08244 0.0
H82 H 0.87397 0.7845 0.08404 0.0
H83 H 0.89451 0.76804 0.06317 0.0
C84 C 0.76839 0.69287 0.15068 0.0
N85 N 0.80767 0.69631 0.14295 0.0
N86 N 0.80197 0.70698 0.12678 0.0
C87 C 0.75889 0.71392 0.12395 0.0
C88 C 0.73557 0.70459 0.139 0.0
C89 C 0.76279 0.67321 0.16819 0.0
H90 H 0.7901 0.65039 0.17099 0.0
H91 H 0.76314 0.69957 0.17798 0.0
H92 H 0.73149 0.65495 0.16914 0.0
O93 O 0.89075 0.63388 0.14303 0.0
O94 O 0.88087 0.64351 0.11502 0.0
H95 H 0.73004 0.70526 0.09913 0.0
H96 H 0.71302 0.75427 0.11011 0.0
C97 C 0.74122 0.73232 0.10753 0.0
H98 H 0.767 0.75101 0.10067 0.0
H99 H 0.78829 0.64911 0.09071 0.0
O100 O 0.86413 0.68728 0.177 0.0
C101 C 0.89552 0.62109 0.12758 0.0
Co102 Co 0.32032 0.86181 0.65419 0.0
Co103 Co 0.29718 0.87048 0.61525 0.0
C104 C 0.25095 0.92565 0.63885 0.0
O105 O 0.27517 0.908 0.65031 0.0
O106 O 0.25122 0.91164 0.62338 0.0
C107 C 0.29984 0.83286 0.68931 0.0
O108 O 0.26296 0.81653 0.68346 0.0
C109 C 0.27869 0.87543 0.57727 0.0
C110 C 0.33931 0.84295 0.56833 0.0
C111 C 0.30153 0.86309 0.56255 0.0
N112 N 0.30227 0.86292 0.59106 0.0
N113 N 0.33827 0.84352 0.58554 0.0
C114 C 0.23715 0.90118 0.57826 0.0
H115 H 0.23608 0.92052 0.5903 0.0
H116 H 0.20901 0.87822 0.57827 0.0
H117 H 0.23397 0.92329 0.56701 0.0
C118 C 0.31303 0.76717 0.6456 0.0
N119 N 0.30906 0.81002 0.64178 0.0
N120 N 0.29581 0.81411 0.6258 0.0
C121 C 0.28951 0.77393 0.61909 0.0
C122 C 0.30071 0.74266 0.63134 0.0
C123 C 0.33285 0.75026 0.66189 0.0
H124 H 0.35491 0.77511 0.66761 0.0
H125 H 0.30635 0.74279 0.67119 0.0
H126 H 0.35154 0.71973 0.65948 0.0
O127 O 0.37521 0.88948 0.64701 0.0
O128 O 0.3516 0.90271 0.62069 0.0
H129 H 0.2995 0.7634 0.59221 0.0
H130 H 0.25329 0.73459 0.60103 0.0
C131 C 0.2719 0.76575 0.60143 0.0
H132 H 0.25026 0.79307 0.59743 0.0
H133 H 0.36258 0.83116 0.59362 0.0
O134 O 0.32629 0.8515 0.67907 0.0
C135 C 0.37962 0.90826 0.63257 0.0
Co136 Co 0.63471 0.17116 0.84743 0.0
Co137 Co 0.65512 0.17527 0.88708 0.0
C138 C 0.57823 0.22184 0.87249 0.0
O139 O 0.58724 0.20996 0.85715 0.0
O140 O 0.60324 0.21225 0.885 0.0
C141 C 0.63887 0.21063 0.81421 0.0
O142 O 0.64414 0.24626 0.82342 0.0
C143 C 0.66299 0.19963 0.92362 0.0
C144 C 0.70575 0.1469 0.93334 0.0
C145 C 0.68142 0.1828 0.93858 0.0
N146 N 0.67531 0.17433 0.91032 0.0
N147 N 0.70119 0.14313 0.91622 0.0
C148 C 0.63554 0.23987 0.9217 0.0
H149 H 0.60042 0.23053 0.92175 0.0
H150 H 0.64287 0.25606 0.90927 0.0
H151 H 0.64175 0.26325 0.93233 0.0
C152 C 0.73105 0.1878 0.8466 0.0
N153 N 0.69272 0.18455 0.85512 0.0
N154 N 0.69999 0.19067 0.87158 0.0
C155 C 0.74249 0.20075 0.874 0.0
C156 C 0.76411 0.19879 0.85822 0.0
C157 C 0.73676 0.1744 0.82822 0.0
H158 H 0.71211 0.14937 0.82468 0.0
H159 H 0.73235 0.20335 0.8198 0.0
H160 H 0.7699 0.16065 0.82598 0.0
O161 O 0.61812 0.11152 0.85457 0.0
O162 O 0.63298 0.11548 0.88247 0.0
H163 H 0.77247 0.18412 0.89795 0.0
H164 H 0.78918 0.23646 0.8894 0.0
C165 C 0.76113 0.21377 0.89104 0.0
H166 H 0.73568 0.23006 0.89894 0.0
H167 H 0.71468 0.11848 0.9086 0.0
O168 O 0.6329 0.17441 0.8219 0.0
C169 C 0.61845 0.09451 0.86952 0.0
Co170 Co 0.82263 0.65945 0.34552 0.0
Co171 Co 0.80746 0.64095 0.38493 0.0
C172 C 0.75923 0.59019 0.35895 0.0
O173 O 0.77973 0.61125 0.3473 0.0
O174 O 0.76296 0.60048 0.3748 0.0
C175 C 0.83331 0.65578 0.30875 0.0
O176 O 0.84005 0.61388 0.31144 0.0
C177 C 0.78034 0.63894 0.42209 0.0
C178 C 0.84596 0.63157 0.43373 0.0
C179 C 0.80202 0.63513 0.43777 0.0
N180 N 0.81049 0.63749 0.40944 0.0
N181 N 0.84949 0.63314 0.41659 0.0
C182 C 0.73215 0.64265 0.41909 0.0
H183 H 0.72378 0.63168 0.4059 0.0
H184 H 0.72212 0.67734 0.42046 0.0
H185 H 0.7139 0.62308 0.42875 0.0
C186 C 0.8025 0.75014 0.35754 0.0
N187 N 0.80799 0.70696 0.36046 0.0
N188 N 0.80493 0.69956 0.37705 0.0
C189 C 0.80087 0.73801 0.38535 0.0
C190 C 0.79818 0.77169 0.37328 0.0
C191 C 0.79809 0.76939 0.33993 0.0
H192 H 0.7818 0.74573 0.33125 0.0
H193 H 0.77837 0.79985 0.34014 0.0
H194 H 0.83114 0.77665 0.33473 0.0
O195 O 0.88034 0.63082 0.35099 0.0
O196 O 0.86237 0.61541 0.3778 0.0
H197 H 0.81625 0.7759 0.40814 0.0
H198 H 0.77369 0.73523 0.41069 0.0
C199 C 0.80549 0.74257 0.40445 0.0
H200 H 0.83028 0.71924 0.40928 0.0
H201 H 0.87886 0.63221 0.40978 0.0
O202 O 0.82522 0.68059 0.32145 0.0
C203 C 0.88872 0.61232 0.36529 0.0
Co204 Co 0.35658 0.80049 0.84897 0.0
Co205 Co 0.35175 0.78709 0.88884 0.0
C206 C 0.41286 0.73425 0.86774 0.0
O207 O 0.39894 0.75251 0.85407 0.0
O208 O 0.39656 0.74312 0.88242 0.0
C209 C 0.33792 0.78028 0.8129 0.0
O210 O 0.32099 0.74305 0.81808 0.0
C211 C 0.34621 0.7576 0.92528 0.0
C212 C 0.31831 0.81739 0.93689 0.0
C213 C 0.33325 0.77582 0.94089 0.0
N214 N 0.33922 0.78731 0.9128 0.0
N215 N 0.32256 0.82286 0.91987 0.0
C216 C 0.36323 0.71253 0.92199 0.0
H217 H 0.39948 0.71281 0.92301 0.0
H218 H 0.35439 0.70189 0.9088 0.0
H219 H 0.34986 0.68902 0.93151 0.0
C220 C 0.25907 0.79725 0.85322 0.0
N221 N 0.30039 0.79292 0.85923 0.0
N222 N 0.29883 0.78451 0.8758 0.0
C223 C 0.25655 0.78193 0.88073 0.0
C224 C 0.22982 0.79036 0.86665 0.0
C225 C 0.24786 0.813 0.83555 0.0
H226 H 0.27404 0.8347 0.83059 0.0
H227 H 0.24459 0.78443 0.82686 0.0
H228 H 0.21631 0.83101 0.83554 0.0
O229 O 0.38565 0.85417 0.85729 0.0
O230 O 0.38246 0.8431 0.88537 0.0
H231 H 0.24176 0.80171 0.90642 0.0
H232 H 0.20831 0.75747 0.8986 0.0
C233 C 0.24189 0.77137 0.89861 0.0
H234 H 0.26465 0.74755 0.90458 0.0
H235 H 0.31446 0.85111 0.91304 0.0
O236 O 0.35301 0.80719 0.82383 0.0
C237 C 0.39486 0.86573 0.87256 0.0
Co238 Co 0.19238 0.35545 0.34482 0.0
Co239 Co 0.19785 0.36611 0.3852 0.0
C240 C 0.246 0.42672 0.36234 0.0
O241 O 0.23077 0.40562 0.34954 0.0
O242 O 0.23895 0.414 0.37776 0.0
C243 C 0.18773 0.3636 0.3076 0.0
O244 O 0.1769 0.40456 0.31042 0.0
C245 C 0.21892 0.36684 0.42289 0.0
C246 C 0.15407 0.34787 0.43307 0.0
C247 C 0.19639 0.35785 0.43807 0.0
N248 N 0.19098 0.36197 0.40962 0.0
N249 N 0.15228 0.35104 0.41589 0.0
C250 C 0.26649 0.37702 0.42083 0.0
H251 H 0.27777 0.36778 0.40776 0.0
H252 H 0.28611 0.35962 0.43071 0.0
H253 H 0.27147 0.41271 0.4225 0.0
C254 C 0.2075 0.2638 0.35425 0.0
N255 N 0.20608 0.30633 0.35861 0.0
N256 N 0.20853 0.30994 0.37542 0.0
C257 C 0.21063 0.2694 0.38233 0.0
C258 C 0.20952 0.23873 0.3691 0.0
C259 C 0.20589 0.24766 0.3361 0.0
H260 H 0.23059 0.26547 0.32834 0.0
H261 H 0.21295 0.21215 0.33522 0.0
H262 H 0.17305 0.25449 0.3306 0.0
O263 O 0.13228 0.37711 0.34927 0.0
O264 O 0.14011 0.38594 0.3774 0.0
H265 H 0.17368 0.26919 0.4056 0.0
H266 H 0.21277 0.22549 0.40428 0.0
C267 C 0.20704 0.26036 0.40119 0.0
H268 H 0.23098 0.28079 0.40827 0.0
H269 H 0.1247 0.34487 0.40836 0.0
O270 O 0.19613 0.33874 0.32026 0.0
C271 C 0.11735 0.38915 0.36378 0.0
Co272 Co 0.85755 0.68319 0.84299 0.0
Co273 Co 0.85269 0.69942 0.88283 0.0
C274 C 0.91452 0.75039 0.86112 0.0
O275 O 0.90247 0.72969 0.84764 0.0
O276 O 0.89567 0.74446 0.87559 0.0
C277 C 0.84882 0.69662 0.80525 0.0
O278 O 0.85506 0.73879 0.80734 0.0
C279 C 0.85172 0.72396 0.92029 0.0
C280 C 0.81879 0.66468 0.93019 0.0
C281 C 0.83782 0.70358 0.93536 0.0
N282 N 0.84088 0.69809 0.90691 0.0
N283 N 0.82138 0.6628 0.91302 0.0
C284 C 0.87842 0.76478 0.91873 0.0
H285 H 0.89946 0.76344 0.90716 0.0
H286 H 0.85607 0.79322 0.9175 0.0
H287 H 0.89926 0.76953 0.93026 0.0
C288 C 0.76071 0.69275 0.847 0.0
N289 N 0.80178 0.69402 0.85341 0.0
N290 N 0.7997 0.70151 0.87003 0.0
C291 C 0.7573 0.70575 0.87471 0.0
C292 C 0.73096 0.69985 0.86028 0.0
C293 C 0.75038 0.68535 0.82843 0.0
H294 H 0.7675 0.71037 0.82061 0.0
H295 H 0.7148 0.68772 0.82577 0.0
H296 H 0.76263 0.6527 0.82447 0.0
O297 O 0.88468 0.62892 0.85169 0.0
O298 O 0.88343 0.64372 0.87947 0.0
H299 H 0.74246 0.67849 0.89927 0.0
H300 H 0.70881 0.72417 0.89391 0.0
C301 C 0.7424 0.71097 0.89295 0.0
H302 H 0.76495 0.73304 0.89996 0.0
H303 H 0.81075 0.63678 0.90541 0.0
O304 O 0.84941 0.67135 0.8182 0.0
C305 C 0.89447 0.61911 0.86708 0.0
Co306 Co 0.30694 0.86999 0.34577 0.0
Co307 Co 0.31906 0.86493 0.38572 0.0
C308 C 0.25433 0.92594 0.36918 0.0
O309 O 0.26125 0.91119 0.35411 0.0
O310 O 0.27448 0.91078 0.38219 0.0
C311 C 0.26723 0.85507 0.31241 0.0
O312 O 0.2302 0.85093 0.32085 0.0
C313 C 0.30022 0.86682 0.42289 0.0
C314 C 0.35474 0.827 0.43312 0.0
C315 C 0.31814 0.85071 0.43801 0.0
N316 N 0.32496 0.85282 0.40967 0.0
N317 N 0.3574 0.829 0.41588 0.0
C318 C 0.26301 0.89836 0.42102 0.0
H319 H 0.27493 0.92836 0.41452 0.0
H320 H 0.23727 0.88355 0.41281 0.0
H321 H 0.2488 0.90791 0.43357 0.0
C322 C 0.30201 0.77456 0.34983 0.0
N323 N 0.30534 0.81485 0.35657 0.0
N324 N 0.30547 0.81224 0.37341 0.0
C325 C 0.29862 0.77004 0.37796 0.0
C326 C 0.29616 0.74446 0.36309 0.0
C327 C 0.31025 0.76489 0.33122 0.0
H328 H 0.33425 0.78847 0.32589 0.0
H329 H 0.27921 0.76795 0.32393 0.0
H330 H 0.32345 0.73138 0.32946 0.0
O331 O 0.36299 0.8978 0.34988 0.0
O332 O 0.3754 0.89275 0.3779 0.0
H333 H 0.32343 0.74568 0.40176 0.0
H334 H 0.26907 0.7268 0.39655 0.0
C335 C 0.29153 0.75529 0.39608 0.0
H336 H 0.27736 0.78217 0.40386 0.0
H337 H 0.38165 0.8145 0.40834 0.0
O338 O 0.30215 0.86359 0.32061 0.0
C339 C 0.3869 0.9052 0.3629 0.0
Co340 Co 0.15142 0.31712 0.84759 0.0
Co341 Co 0.13291 0.30072 0.8869 0.0
C342 C 0.07815 0.25864 0.85946 0.0
O343 O 0.10081 0.27692 0.84769 0.0
O344 O 0.08793 0.263 0.87534 0.0
C345 C 0.15822 0.31201 0.81022 0.0
O346 O 0.1233 0.28698 0.81088 0.0
C347 C 0.13073 0.26107 0.92209 0.0
C348 C 0.13417 0.32167 0.93753 0.0
C349 C 0.13314 0.27662 0.93883 0.0
N350 N 0.1307 0.2957 0.91137 0.0
N351 N 0.13215 0.33169 0.92077 0.0
C352 C 0.13178 0.21445 0.9164 0.0
H353 H 0.10034 0.19854 0.91989 0.0
H354 H 0.13666 0.21231 0.90229 0.0
H355 H 0.15839 0.19676 0.9232 0.0
C356 C 0.23972 0.28707 0.85835 0.0
N357 N 0.19746 0.29626 0.86184 0.0
N358 N 0.19077 0.29265 0.87846 0.0
C359 C 0.22921 0.28396 0.88625 0.0
C360 C 0.26176 0.27937 0.87375 0.0
C361 C 0.25738 0.28286 0.84047 0.0
H362 H 0.23172 0.26977 0.83181 0.0
H363 H 0.286 0.26054 0.84005 0.0
H364 H 0.26728 0.31562 0.83572 0.0
O365 O 0.1279 0.37488 0.85523 0.0
O366 O 0.11451 0.36069 0.88263 0.0
H367 H 0.21459 0.31165 0.91091 0.0
H368 H 0.26976 0.29269 0.90888 0.0
C369 C 0.23533 0.28557 0.90535 0.0
H370 H 0.22541 0.2538 0.91103 0.0
H371 H 0.13328 0.36327 0.91571 0.0
O372 O 0.17433 0.32702 0.82406 0.0
C373 C 0.11364 0.38656 0.8699 0.0
Co374 Co 0.7087 0.14429 0.34713 0.0
Co375 Co 0.68999 0.1603 0.38618 0.0
C376 C 0.74929 0.08782 0.37397 0.0
O377 O 0.74663 0.09869 0.35818 0.0
O378 O 0.72991 0.1099 0.38556 0.0
C379 C 0.70677 0.11226 0.31324 0.0
O380 O 0.69296 0.07703 0.32126 0.0
C381 C 0.70945 0.17137 0.4227 0.0
C382 C 0.64671 0.19675 0.43268 0.0
C383 C 0.6882 0.18351 0.43779 0.0
N384 N 0.68155 0.17667 0.40951 0.0
N385 N 0.64422 0.19214 0.41553 0.0
C386 C 0.75603 0.15731 0.42044 0.0
H387 H 0.76787 0.16648 0.40744 0.0
H388 H 0.77736 0.17262 0.43029 0.0
H389 H 0.75809 0.1212 0.42166 0.0
C390 C 0.71803 0.2402 0.34799 0.0
N391 N 0.71399 0.20156 0.35609 0.0
N392 N 0.71008 0.20831 0.37268 0.0
C393 C 0.71503 0.25146 0.37586 0.0
C394 C 0.71991 0.2736 0.36023 0.0
C395 C 0.71234 0.24492 0.32894 0.0
H396 H 0.68825 0.22061 0.32423 0.0
H397 H 0.7441 0.23872 0.32244 0.0
H398 H 0.70011 0.27784 0.32538 0.0
O399 O 0.64866 0.12447 0.35027 0.0
O400 O 0.63275 0.13652 0.37769 0.0
H401 H 0.68271 0.27822 0.39785 0.0
H402 H 0.73674 0.30048 0.39394 0.0
C403 C 0.71649 0.27038 0.39358 0.0
H404 H 0.7307 0.24638 0.40266 0.0
H405 H 0.61677 0.19866 0.40796 0.0
O406 O 0.71852 0.14515 0.32204 0.0
C407 C 0.62214 0.12253 0.36282 0.0
Co408 Co 0.34649 0.7878 0.15575 0.0
Co409 Co 0.36191 0.79494 0.11603 0.0
C410 C 0.41662 0.73579 0.13863 0.0
O411 O 0.39357 0.74544 0.15175 0.0
O412 O 0.40712 0.75084 0.12376 0.0
C413 C 0.34841 0.79931 0.19234 0.0
O414 O 0.3879 0.81473 0.18946 0.0
C415 C 0.3623 0.76871 0.07949 0.0
C416 C 0.35355 0.83303 0.06698 0.0
C417 C 0.35719 0.78872 0.06362 0.0
N418 N 0.36137 0.7999 0.09168 0.0
N419 N 0.35671 0.83827 0.08407 0.0
C420 C 0.36462 0.7208 0.08318 0.0
H421 H 0.39907 0.70977 0.08183 0.0
H422 H 0.35366 0.71404 0.09653 0.0
H423 H 0.34428 0.7022 0.07389 0.0
C424 C 0.2554 0.77994 0.14476 0.0
N425 N 0.29834 0.78082 0.14098 0.0
N426 N 0.30348 0.78568 0.12433 0.0
C427 C 0.2634 0.78917 0.11699 0.0
C428 C 0.23155 0.78611 0.12979 0.0
C429 C 0.23767 0.77496 0.1626 0.0
H430 H 0.25575 0.74866 0.16938 0.0
H431 H 0.20232 0.76657 0.16249 0.0
H432 H 0.24244 0.806 0.16974 0.0
O433 O 0.37423 0.84563 0.15269 0.0
O434 O 0.38482 0.85124 0.12457 0.0
H435 H 0.2726 0.83299 0.09593 0.0
H436 H 0.2209 0.80456 0.09547 0.0
C437 C 0.25616 0.80138 0.09859 0.0
H438 H 0.27107 0.77618 0.09018 0.0
H439 H 0.35444 0.86797 0.09062 0.0
O440 O 0.3261 0.78471 0.17983 0.0
C441 C 0.38873 0.86644 0.13971 0.0
Co442 Co 0.19509 0.36917 0.65551 0.0
Co443 Co 0.18963 0.3632 0.61524 0.0
C444 C 0.2479 0.42829 0.63219 0.0
O445 O 0.2359 0.41521 0.64702 0.0
O446 O 0.23424 0.40968 0.61856 0.0
C447 C 0.23057 0.37918 0.69017 0.0
O448 O 0.26143 0.40322 0.68317 0.0
C449 C 0.2115 0.358 0.57821 0.0
C450 C 0.15036 0.33039 0.56765 0.0
C451 C 0.19128 0.3459 0.56287 0.0
N452 N 0.18351 0.35045 0.59126 0.0
N453 N 0.14715 0.33374 0.58484 0.0
C454 C 0.25738 0.37387 0.58072 0.0
H455 H 0.26981 0.36341 0.59347 0.0
H456 H 0.2793 0.36104 0.57052 0.0
H457 H 0.25768 0.41014 0.58027 0.0
C458 C 0.20327 0.27423 0.65186 0.0
N459 N 0.2014 0.31427 0.64481 0.0
N460 N 0.20286 0.311 0.628 0.0
C461 C 0.20899 0.26844 0.62382 0.0
C462 C 0.20944 0.2433 0.63889 0.0
C463 C 0.19244 0.26598 0.67039 0.0
H464 H 0.1671 0.28946 0.67475 0.0
H465 H 0.22221 0.27089 0.67834 0.0
H466 H 0.17957 0.23248 0.67243 0.0
O467 O 0.1368 0.39107 0.6513 0.0
O468 O 0.13225 0.39044 0.62281 0.0
H469 H 0.18375 0.2444 0.60004 0.0
H470 H 0.23726 0.22345 0.60557 0.0
C471 C 0.21589 0.25279 0.60581 0.0
H472 H 0.23124 0.27887 0.59796 0.0
H473 H 0.11992 0.3251 0.5922 0.0
O474 O 0.20092 0.36273 0.68073 0.0
C475 C 0.11605 0.39933 0.63755 0.0
Co476 Co 0.64089 0.17657 0.15546 0.0
Co477 Co 0.64655 0.16823 0.11528 0.0
C478 C 0.58159 0.22802 0.13278 0.0
O479 O 0.59712 0.22095 0.14776 0.0
O480 O 0.59736 0.20961 0.11942 0.0
C481 C 0.65425 0.19765 0.1933 0.0
O482 O 0.66108 0.23953 0.19064 0.0
C483 C 0.64977 0.19004 0.07817 0.0
C484 C 0.68916 0.13478 0.06835 0.0
C485 C 0.66751 0.17241 0.06323 0.0
N486 N 0.66034 0.16378 0.09141 0.0
N487 N 0.68387 0.13087 0.08543 0.0
C488 C 0.62585 0.23244 0.08015 0.0
H489 H 0.59008 0.22604 0.08006 0.0
H490 H 0.63438 0.24777 0.09263 0.0
H491 H 0.63397 0.25532 0.06954 0.0
C492 C 0.73632 0.18657 0.15152 0.0
N493 N 0.69601 0.1823 0.14481 0.0
N494 N 0.69841 0.1836 0.12797 0.0
C495 C 0.74031 0.19235 0.12344 0.0
C496 C 0.76609 0.19442 0.13827 0.0
C497 C 0.7465 0.17717 0.17 0.0
H498 H 0.72455 0.15113 0.17489 0.0
H499 H 0.74124 0.20716 0.17774 0.0
H500 H 0.78078 0.16594 0.17165 0.0
O501 O 0.6165 0.12005 0.15001 0.0
O502 O 0.62242 0.10951 0.12198 0.0
H503 H 0.76435 0.17045 0.09913 0.0
H504 H 0.7826 0.22449 0.10513 0.0
C505 C 0.75448 0.20154 0.10538 0.0
H506 H 0.72714 0.21612 0.09798 0.0
H507 H 0.69642 0.10574 0.09306 0.0
O508 O 0.6461 0.17247 0.18073 0.0
C509 C 0.61085 0.09639 0.13684 0.0
Co510 Co 0.797 0.65238 0.65041 0.0
Co511 Co 0.82471 0.66131 0.61183 0.0
C512 C 0.75764 0.59452 0.62487 0.0
O513 O 0.75669 0.60834 0.64032 0.0
O514 O 0.78168 0.613 0.61362 0.0
C515 C 0.78958 0.62346 0.68459 0.0
O516 O 0.79338 0.58532 0.67694 0.0
C517 C 0.80296 0.6736 0.57559 0.0
C518 C 0.86853 0.67604 0.56364 0.0
C519 C 0.82418 0.6755 0.55986 0.0
N520 N 0.83343 0.67287 0.58806 0.0
N521 N 0.87253 0.67504 0.58085 0.0
C522 C 0.75512 0.66689 0.57872 0.0
H523 H 0.74714 0.67224 0.59248 0.0
H524 H 0.73552 0.68959 0.57072 0.0
H525 H 0.74613 0.63296 0.57508 0.0
C526 C 0.78647 0.74812 0.64644 0.0
N527 N 0.79441 0.70819 0.63984 0.0
N528 N 0.80745 0.7124 0.62383 0.0
C529 C 0.80874 0.75526 0.61975 0.0
C530 C 0.79559 0.77953 0.634 0.0
C531 C 0.77089 0.75572 0.66443 0.0
H532 H 0.74669 0.73027 0.66804 0.0
H533 H 0.75565 0.78849 0.66581 0.0
H534 H 0.79911 0.7532 0.67336 0.0
O535 O 0.85603 0.62642 0.64801 0.0
O536 O 0.87923 0.63609 0.62127 0.0
H537 H 0.85659 0.75386 0.59963 0.0
H538 H 0.83485 0.80766 0.60398 0.0
C539 C 0.82669 0.77238 0.60316 0.0
H540 H 0.80207 0.76735 0.59286 0.0
H541 H 0.90197 0.67376 0.58764 0.0
O542 O 0.78807 0.65784 0.67546 0.0
C543 C 0.88504 0.62145 0.63641 0.0
H544 H 0.15697 0.36592 0.20547 0.0
H545 H 0.17658 0.22527 0.20672 0.0
H546 H 0.18891 0.22883 0.23801 0.0
H547 H 0.23783 0.39378 0.2378 0.0
H548 H 0.20498 0.43664 0.24713 0.0
H549 H 0.19932 0.42347 0.22467 0.0
H550 H 0.11612 0.41088 0.22896 0.0
H551 H 0.12151 0.42405 0.25141 0.0
H552 H 0.09775 0.37259 0.24504 0.0
H553 H 0.19829 0.24715 0.26902 0.0
H554 H 0.20128 0.27856 0.29811 0.0
H555 H 0.17395 0.40735 0.27709 0.0
C556 C 0.16414 0.33591 0.21231 0.0
C557 C 0.16595 0.2953 0.20364 0.0
C558 C 0.17498 0.25673 0.21308 0.0
C559 C 0.18216 0.25843 0.23085 0.0
C560 C 0.18002 0.2989 0.23901 0.0
C561 C 0.17104 0.33695 0.2301 0.0
C562 C 0.16912 0.37596 0.2421 0.0
C563 C 0.20496 0.40943 0.23766 0.0
C564 C 0.1234 0.3971 0.24186 0.0
C565 C 0.17822 0.35382 0.25916 0.0
C566 C 0.18472 0.30942 0.25703 0.0
C567 C 0.19332 0.28189 0.27086 0.0
C568 C 0.195 0.30011 0.28736 0.0
C569 C 0.18786 0.34547 0.28994 0.0
C570 C 0.1796 0.3726 0.27558 0.0
H571 H 0.63101 0.14259 0.79131 0.0
H572 H 0.66106 0.28119 0.79436 0.0
H573 H 0.67541 0.28243 0.76314 0.0
H574 H 0.71287 0.11496 0.76034 0.0
H575 H 0.67909 0.07592 0.74915 0.0
H576 H 0.67037 0.08597 0.77169 0.0
H577 H 0.58908 0.10499 0.76573 0.0
H578 H 0.59745 0.09469 0.74318 0.0
H579 H 0.57598 0.14666 0.75016 0.0
H580 H 0.68848 0.26814 0.73168 0.0
H581 H 0.69541 0.24025 0.70202 0.0
H582 H 0.65591 0.11121 0.71947 0.0
C583 C 0.64032 0.1733 0.78541 0.0
C584 C 0.64485 0.21183 0.79531 0.0
C585 C 0.65722 0.25127 0.78707 0.0
C586 C 0.66559 0.25229 0.76934 0.0
C587 C 0.66129 0.21364 0.76001 0.0
C588 C 0.64865 0.17495 0.76773 0.0
C589 C 0.64633 0.13802 0.75478 0.0
C590 C 0.67912 0.10157 0.75926 0.0
C591 C 0.59942 0.12005 0.75338 0.0
C592 C 0.6597 0.16198 0.73856 0.0
C593 C 0.6684 0.20552 0.74187 0.0
C594 C 0.68163 0.23413 0.72893 0.0
C595 C 0.68559 0.21793 0.71212 0.0
C596 C 0.67616 0.17354 0.70838 0.0
C597 C 0.66331 0.1453 0.72187 0.0
H598 H 0.84888 0.612 0.27848 0.0
H599 H 0.82266 0.74132 0.29919 0.0
H600 H 0.82655 0.77232 0.26997 0.0
H601 H 0.92586 0.64603 0.2461 0.0
H602 H 0.90701 0.60706 0.23037 0.0
H603 H 0.90222 0.59489 0.25294 0.0
H604 H 0.81885 0.58212 0.24925 0.0
H605 H 0.8234 0.59419 0.22667 0.0
H606 H 0.78551 0.62451 0.23985 0.0
H607 H 0.83308 0.78938 0.23851 0.0
H608 H 0.84115 0.79114 0.20696 0.0
H609 H 0.86309 0.65078 0.20672 0.0
C610 C 0.84397 0.64684 0.27689 0.0
C611 C 0.83548 0.6742 0.29116 0.0
C612 C 0.8292 0.71964 0.28848 0.0
C613 C 0.83137 0.73761 0.27192 0.0
C614 C 0.83985 0.70975 0.25816 0.0
C615 C 0.846 0.66535 0.26045 0.0
C616 C 0.85442 0.64261 0.24347 0.0
C617 C 0.90009 0.62141 0.24321 0.0
C618 C 0.81839 0.60887 0.23959 0.0
C619 C 0.852 0.68117 0.23128 0.0
C620 C 0.84361 0.71959 0.24002 0.0
C621 C 0.8397 0.75951 0.23152 0.0
C622 C 0.84436 0.76016 0.21359 0.0
C623 C 0.85284 0.72115 0.20435 0.0
C624 C 0.85677 0.68122 0.21339 0.0
H625 H 0.28749 0.74722 0.78656 0.0
H626 H 0.39103 0.84027 0.79783 0.0
H627 H 0.39269 0.8625 0.76745 0.0
H628 H 0.32652 0.71506 0.74423 0.0
H629 H 0.27243 0.71176 0.73506 0.0
H630 H 0.28034 0.70146 0.75764 0.0
H631 H 0.22317 0.76125 0.76497 0.0
H632 H 0.21519 0.77184 0.74241 0.0
H633 H 0.23039 0.81581 0.75664 0.0
H634 H 0.38368 0.87509 0.73638 0.0
H635 H 0.36294 0.87917 0.7059 0.0
H636 H 0.26308 0.78017 0.71426 0.0
C637 C 0.31075 0.77194 0.78256 0.0
C638 C 0.33926 0.79191 0.79451 0.0
C639 C 0.36883 0.8246 0.78889 0.0
C640 C 0.37012 0.8374 0.77165 0.0
C641 C 0.34141 0.81744 0.76022 0.0
C642 C 0.31214 0.78556 0.76537 0.0
C643 C 0.28392 0.77063 0.75043 0.0
C644 C 0.29126 0.72183 0.74662 0.0
C645 C 0.23529 0.78048 0.75382 0.0
C646 C 0.302 0.79918 0.73616 0.0
C647 C 0.33533 0.82565 0.74214 0.0
C648 C 0.3576 0.8546 0.7315 0.0
C649 C 0.34557 0.8566 0.71419 0.0
C650 C 0.31132 0.83005 0.7077 0.0
C651 C 0.28918 0.80106 0.71888 0.0
H652 H 0.83894 0.74018 0.77438 0.0
H653 H 0.8339 0.61089 0.79751 0.0
H654 H 0.81445 0.57912 0.76951 0.0
H655 H 0.74774 0.72446 0.74512 0.0
H656 H 0.77277 0.75479 0.72785 0.0
H657 H 0.78552 0.76813 0.74984 0.0
H658 H 0.8682 0.7574 0.7436 0.0
H659 H 0.8557 0.74433 0.72158 0.0
H660 H 0.88687 0.7065 0.73447 0.0
H661 H 0.79754 0.56058 0.7391 0.0
H662 H 0.78601 0.55645 0.70777 0.0
H663 H 0.80082 0.69745 0.70415 0.0
C664 C 0.83373 0.70521 0.77355 0.0
C665 C 0.838 0.67811 0.78818 0.0
C666 C 0.83087 0.63245 0.78652 0.0
C667 C 0.81967 0.61401 0.77067 0.0
C668 C 0.81554 0.64158 0.75655 0.0
C669 C 0.82239 0.68616 0.75778 0.0
C670 C 0.81667 0.70815 0.74046 0.0
C671 C 0.77839 0.74081 0.74085 0.0
C672 C 0.85941 0.73039 0.73469 0.0
C673 C 0.80604 0.66886 0.72934 0.0
C674 C 0.80538 0.63084 0.73891 0.0
C675 C 0.79771 0.59014 0.73145 0.0
C676 C 0.79117 0.58814 0.71365 0.0
C677 C 0.79232 0.62659 0.70352 0.0
C678 C 0.79927 0.66751 0.71156 0.0
H679 H 0.33893 0.86232 0.29156 0.0
H680 H 0.2016 0.82548 0.29125 0.0
H681 H 0.20774 0.80564 0.26052 0.0
H682 H 0.34132 0.9098 0.24927 0.0
H683 H 0.39566 0.89 0.24463 0.0
H684 H 0.37998 0.90149 0.26647 0.0
H685 H 0.40138 0.82252 0.27523 0.0
H686 H 0.41682 0.81066 0.25338 0.0
H687 H 0.37699 0.77684 0.26414 0.0
H688 H 0.22968 0.78829 0.22999 0.0
H689 H 0.26435 0.77855 0.20162 0.0
H690 H 0.38712 0.82762 0.22213 0.0
C691 C 0.31 0.8503 0.28505 0.0
C692 C 0.26974 0.84546 0.29381 0.0
C693 C 0.23275 0.82958 0.28479 0.0
C694 C 0.23596 0.81809 0.26736 0.0
C695 C 0.27634 0.82281 0.25919 0.0
C696 C 0.3126 0.83881 0.26772 0.0
C697 C 0.35217 0.84097 0.25605 0.0
C698 C 0.3682 0.88838 0.25398 0.0
C699 C 0.389 0.81095 0.26259 0.0
C700 C 0.33253 0.82376 0.23955 0.0
C701 C 0.28883 0.81322 0.24164 0.0
C702 C 0.26384 0.79654 0.2282 0.0
C703 C 0.2839 0.79104 0.21213 0.0
C704 C 0.32847 0.8024 0.20962 0.0
C705 C 0.35302 0.81864 0.22361 0.0
H706 H 0.17284 0.32819 0.70815 0.0
H707 H 0.28495 0.41392 0.71473 0.0
H708 H 0.28056 0.40351 0.74619 0.0
H709 H 0.11288 0.36522 0.74419 0.0
H710 H 0.09181 0.31198 0.74973 0.0
H711 H 0.10533 0.32436 0.72775 0.0
H712 H 0.1573 0.25737 0.72673 0.0
H713 H 0.14387 0.24471 0.74872 0.0
H714 H 0.20022 0.25231 0.74251 0.0
H715 H 0.262 0.38591 0.77697 0.0
H716 H 0.23068 0.3629 0.80476 0.0
H717 H 0.13049 0.28889 0.77788 0.0
C718 C 0.1967 0.34462 0.71617 0.0
C719 C 0.22927 0.37191 0.70897 0.0
C720 C 0.25978 0.39279 0.71994 0.0
C721 C 0.25756 0.38705 0.73782 0.0
C722 C 0.22479 0.36019 0.74448 0.0
C723 C 0.19499 0.33923 0.73398 0.0
C724 C 0.16223 0.31304 0.74435 0.0
C725 C 0.11529 0.32967 0.74132 0.0
C726 C 0.16616 0.26394 0.74034 0.0
C727 C 0.17774 0.32315 0.76238 0.0
C728 C 0.21406 0.35014 0.76218 0.0
C729 C 0.23371 0.36462 0.77728 0.0
C730 C 0.2156 0.35139 0.79301 0.0
C731 C 0.17806 0.32411 0.79352 0.0
C732 C 0.15923 0.30964 0.77795 0.0
H733 H 0.7165 0.18575 0.29321 0.0
H734 H 0.68574 0.04718 0.29068 0.0
H735 H 0.67014 0.05447 0.25974 0.0
H736 H 0.63262 0.22125 0.26538 0.0
H737 H 0.66448 0.26353 0.25516 0.0
H738 H 0.67675 0.24726 0.27688 0.0
H739 H 0.75694 0.23061 0.26823 0.0
H740 H 0.7451 0.24731 0.24651 0.0
H741 H 0.7677 0.19384 0.25061 0.0
H742 H 0.65352 0.07704 0.22987 0.0
H743 H 0.64051 0.11251 0.20205 0.0
H744 H 0.68166 0.2372 0.22347 0.0
C745 C 0.70725 0.15676 0.28609 0.0
C746 C 0.70245 0.1158 0.29437 0.0
C747 C 0.68972 0.07883 0.28463 0.0
C748 C 0.68073 0.08265 0.26705 0.0
C749 C 0.68469 0.12364 0.2594 0.0
C750 C 0.69799 0.16001 0.26852 0.0
C751 C 0.6982 0.20051 0.25724 0.0
C752 C 0.6661 0.23517 0.26407 0.0
C753 C 0.74476 0.21915 0.25554 0.0
C754 C 0.68242 0.18123 0.24039 0.0
C755 C 0.67493 0.13683 0.242 0.0
C756 C 0.65957 0.11172 0.2284 0.0
C757 C 0.65217 0.13233 0.21263 0.0
C758 C 0.66012 0.17775 0.21051 0.0
C759 C 0.67522 0.20251 0.22467 0.0
H760 H 0.21152 0.28443 0.03317 0.0
H761 H 0.08983 0.22087 0.04704 0.0
H762 H 0.07935 0.1985 0.01677 0.0
H763 H 0.17395 0.3335 0.99815 0.0
H764 H 0.22295 0.3289 0.98534 0.0
H765 H 0.22679 0.32875 0.00832 0.0
H766 H 0.26766 0.25443 0.00736 0.0
H767 H 0.26401 0.25442 0.98423 0.0
H768 H 0.24326 0.20865 0.99636 0.0
H769 H 0.07486 0.19686 0.9842 0.0
H770 H 0.07574 0.21869 0.95347 0.0
H771 H 0.19915 0.28502 0.96133 0.0
C772 C 0.18351 0.26431 0.02994 0.0
C773 C 0.15193 0.25371 0.04248 0.0
C774 C 0.11516 0.22824 0.03776 0.0
C775 C 0.10889 0.21554 0.02054 0.0
C776 C 0.13992 0.2282 0.00831 0.0
C777 C 0.17683 0.25168 0.01292 0.0
C778 C 0.20194 0.26731 0.99734 0.0
C779 C 0.20661 0.31755 0.99729 0.0
C780 C 0.24688 0.24484 0.99626 0.0
C781 C 0.17196 0.25163 0.9832 0.0
C782 C 0.13701 0.22792 0.98963 0.0
C783 C 0.1027 0.21431 0.979 0.0
C784 C 0.10346 0.22662 0.96157 0.0
C785 C 0.13788 0.25283 0.95516 0.0
C786 C 0.17306 0.26409 0.96596 0.0
H787 H 0.6588 0.23163 0.46473 0.0
H788 H 0.74727 0.12517 0.45231 0.0
H789 H 0.76434 0.11611 0.48294 0.0
H790 H 0.71761 0.27416 0.50328 0.0
H791 H 0.66689 0.28394 0.51449 0.0
H792 H 0.66898 0.28844 0.4914 0.0
H793 H 0.60568 0.2323 0.48883 0.0
H794 H 0.60346 0.22758 0.51182 0.0
H795 H 0.61131 0.17939 0.49884 0.0
H796 H 0.76481 0.11242 0.51536 0.0
H797 H 0.74423 0.11135 0.54617 0.0
H798 H 0.65187 0.21645 0.53714 0.0
C799 C 0.68275 0.20721 0.46838 0.0
C800 C 0.70292 0.18037 0.45593 0.0
C801 C 0.73301 0.14784 0.46135 0.0
C802 C 0.74264 0.14209 0.47884 0.0
C803 C 0.72166 0.16881 0.49079 0.0
C804 C 0.69219 0.20066 0.48575 0.0
C805 C 0.66954 0.22114 0.50103 0.0
C806 C 0.68149 0.26981 0.50264 0.0
C807 C 0.61956 0.21468 0.50007 0.0
C808 C 0.68955 0.19468 0.51543 0.0
C809 C 0.72038 0.16539 0.50937 0.0
C810 C 0.74127 0.13573 0.52028 0.0
C811 C 0.72959 0.13545 0.53775 0.0
C812 C 0.69684 0.1641 0.54395 0.0
C813 C 0.67729 0.19447 0.53269 0.0
H814 H 0.84981 0.6487 0.96213 0.0
H815 H 0.83659 0.78646 0.94988 0.0
H816 H 0.83982 0.8043 0.98091 0.0
H817 H 0.77928 0.64955 0.99698 0.0
H818 H 0.80968 0.60999 0.00934 0.0
H819 H 0.81264 0.60924 0.98627 0.0
H820 H 0.89725 0.61571 0.98773 0.0
H821 H 0.89458 0.61628 0.01086 0.0
H822 H 0.9217 0.66009 0.99958 0.0
H823 H 0.83803 0.80553 0.0139 0.0
H824 H 0.82978 0.78974 0.04507 0.0
H825 H 0.84139 0.65107 0.0346 0.0
C826 C 0.84832 0.68277 0.9659 0.0
C827 C 0.84384 0.71625 0.95356 0.0
C828 C 0.84145 0.76034 0.95906 0.0
C829 C 0.84292 0.77073 0.97668 0.0
C830 C 0.84675 0.73662 0.98853 0.0
C831 C 0.8495 0.69353 0.98328 0.0
C832 C 0.84994 0.66236 0.99832 0.0
C833 C 0.81054 0.63096 0.99768 0.0
C834 C 0.89346 0.63714 0.99917 0.0
C835 C 0.84594 0.69443 0.01295 0.0
C836 C 0.84475 0.73721 0.00718 0.0
C837 C 0.83951 0.77219 0.01854 0.0
C838 C 0.83503 0.76301 0.03617 0.0
C839 C 0.83547 0.71928 0.04212 0.0
C840 C 0.84122 0.68482 0.03035 0.0
H841 H 0.37016 0.87144 0.46494 0.0
H842 H 0.23519 0.8445 0.45149 0.0
H843 H 0.21364 0.85334 0.48201 0.0
H844 H 0.37142 0.8115 0.50292 0.0
H845 H 0.40665 0.84875 0.51437 0.0
H846 H 0.40981 0.84527 0.49135 0.0
H847 H 0.39568 0.92874 0.48905 0.0
H848 H 0.39232 0.93243 0.51212 0.0
H849 H 0.34774 0.95197 0.49903 0.0
H850 H 0.20871 0.85868 0.51469 0.0
H851 H 0.22147 0.85751 0.54615 0.0
H852 H 0.35962 0.88152 0.53744 0.0
C853 C 0.33596 0.86811 0.46841 0.0
C854 C 0.30413 0.85833 0.4559 0.0
C855 C 0.25981 0.85337 0.46087 0.0
C856 C 0.24735 0.85815 0.47816 0.0
C857 C 0.27967 0.86796 0.49023 0.0
C858 C 0.32307 0.87295 0.4855 0.0
C859 C 0.35211 0.88049 0.50091 0.0
C860 C 0.38703 0.84434 0.50247 0.0
C861 C 0.3732 0.92613 0.50023 0.0
C862 C 0.31861 0.87756 0.51514 0.0
C863 C 0.27686 0.87092 0.50881 0.0
C864 C 0.24115 0.86467 0.51976 0.0
C865 C 0.24859 0.86438 0.53761 0.0
C866 C 0.2914 0.87005 0.5442 0.0
C867 C 0.32646 0.87746 0.53276 0.0
H868 H 0.72947 0.16621 0.03829 0.0
H869 H 0.59614 0.20937 0.04723 0.0
H870 H 0.58815 0.22598 0.01633 0.0
H871 H 0.75584 0.24517 0.00329 0.0
H872 H 0.78739 0.20497 0.99171 0.0
H873 H 0.7846 0.20289 0.01484 0.0
H874 H 0.75686 0.12288 0.01321 0.0
H875 H 0.75938 0.12475 0.99015 0.0
H876 H 0.70876 0.11057 0.00068 0.0
H877 H 0.59142 0.22766 0.98401 0.0
H878 H 0.60591 0.21572 0.95327 0.0
H879 H 0.73793 0.17328 0.96535 0.0
C880 C 0.69895 0.18019 0.0338 0.0
C881 C 0.66379 0.18752 0.04522 0.0
C882 C 0.62404 0.20495 0.03884 0.0
C883 C 0.61911 0.21418 0.02126 0.0
C884 C 0.65431 0.20599 0.0103 0.0
C885 C 0.6936 0.18971 0.01636 0.0
C886 C 0.72517 0.18041 0.00181 0.0
C887 C 0.76564 0.21015 0.00299 0.0
C888 C 0.73828 0.13177 0.00145 0.0
C889 C 0.69695 0.19237 0.98655 0.0
C890 C 0.65637 0.20756 0.99169 0.0
C891 C 0.62355 0.21714 0.97983 0.0
C892 C 0.6323 0.21071 0.9623 0.0
C893 C 0.67368 0.19511 0.95677 0.0
C894 C 0.70634 0.18621 0.96913 0.0
H895 H 0.85014 0.61676 0.53607 0.0
H896 H 0.75802 0.7223 0.54446 0.0
H897 H 0.73209 0.71516 0.51439 0.0
H898 H 0.88328 0.64795 0.49588 0.0
H899 H 0.88892 0.59338 0.48739 0.0
H900 H 0.89451 0.60268 0.51006 0.0
H901 H 0.83351 0.5456 0.51602 0.0
H902 H 0.82756 0.53634 0.49326 0.0
H903 H 0.7807 0.55186 0.50597 0.0
H904 H 0.72452 0.70302 0.48211 0.0
H905 H 0.73758 0.6886 0.45123 0.0
H906 H 0.83292 0.58942 0.46474 0.0
C907 C 0.82385 0.63772 0.53164 0.0
C908 C 0.80551 0.66957 0.54254 0.0
C909 C 0.77161 0.69691 0.53637 0.0
C910 C 0.75681 0.69312 0.51932 0.0
C911 C 0.77595 0.66147 0.50878 0.0
C912 C 0.80854 0.63403 0.51482 0.0
C913 C 0.8267 0.60535 0.50073 0.0
C914 C 0.87625 0.61283 0.49838 0.0
C915 C 0.81649 0.55692 0.50421 0.0
C916 C 0.80085 0.6223 0.48558 0.0
C917 C 0.77114 0.65412 0.49042 0.0
C918 C 0.74682 0.67733 0.47824 0.0
C919 C 0.75414 0.66868 0.46071 0.0
C920 C 0.78569 0.63733 0.45562 0.0
C921 C 0.80809 0.61307 0.46828 0.0
H922 H 0.2964 0.80749 0.0396 0.0
H923 H 0.41106 0.72754 0.04879 0.0
H924 H 0.41112 0.70498 0.01815 0.0
H925 H 0.24483 0.73367 0.00639 0.0
H926 H 0.22493 0.78013 0.99445 0.0
H927 H 0.22984 0.78318 0.01751 0.0
H928 H 0.27853 0.85221 0.01445 0.0
H929 H 0.27402 0.84927 0.99149 0.0
H930 H 0.32732 0.84959 0.00143 0.0
H931 H 0.40641 0.70344 0.98555 0.0
H932 H 0.39556 0.71999 0.95482 0.0
H933 H 0.28075 0.79691 0.96759 0.0
C934 C 0.32069 0.78417 0.03523 0.0
C935 C 0.35351 0.7689 0.04643 0.0
C936 C 0.3852 0.73891 0.04037 0.0
C937 C 0.38548 0.72605 0.02302 0.0
C938 C 0.35325 0.7428 0.01211 0.0
C939 C 0.32092 0.77057 0.01812 0.0
C940 C 0.29222 0.78717 0.00372 0.0
C941 C 0.24517 0.76999 0.00563 0.0
C942 C 0.29313 0.83751 0.00272 0.0
C943 C 0.31489 0.76654 0.9885 0.0
C944 C 0.34967 0.74056 0.99351 0.0
C945 C 0.37833 0.7224 0.98149 0.0
C946 C 0.37167 0.7317 0.96398 0.0
C947 C 0.33654 0.75883 0.95869 0.0
C948 C 0.30741 0.7754 0.97117 0.0
H949 H 0.16801 0.29471 0.53583 0.0
H950 H 0.24613 0.40855 0.54868 0.0
H951 H 0.2648 0.41808 0.51809 0.0
H952 H 0.23503 0.25504 0.49935 0.0
H953 H 0.18721 0.23951 0.48722 0.0
H954 H 0.18612 0.23756 0.51037 0.0
H955 H 0.11781 0.28793 0.51056 0.0
H956 H 0.11871 0.29005 0.48749 0.0
H957 H 0.12018 0.34004 0.49975 0.0
H958 H 0.26827 0.41975 0.48536 0.0
H959 H 0.25323 0.41502 0.45414 0.0
H960 H 0.17101 0.30172 0.46307 0.0
C961 C 0.18991 0.32107 0.53229 0.0
C962 C 0.20672 0.34994 0.54482 0.0
C963 C 0.23435 0.3847 0.53954 0.0
C964 C 0.24484 0.39067 0.52209 0.0
C965 C 0.22731 0.36174 0.51006 0.0
C966 C 0.2004 0.32761 0.51499 0.0
C967 C 0.18214 0.30361 0.49959 0.0
C968 C 0.19863 0.25611 0.49911 0.0
C969 C 0.13174 0.30556 0.49934 0.0
C970 C 0.20184 0.33034 0.48518 0.0
C971 C 0.22843 0.3633 0.49139 0.0
C972 C 0.24812 0.39356 0.48037 0.0
C973 C 0.23968 0.39047 0.46262 0.0
C974 C 0.21147 0.35763 0.45616 0.0
C975 C 0.19305 0.32693 0.46763 0.0
H976 H 0.07565 0.44134 0.14995 0.0
H977 H 0.08798 0.41799 0.09509 0.0
H978 H 0.03237 0.47469 0.08948 0.0
H979 H 0.962 0.45463 0.15052 0.0
H980 H 0.96132 0.49756 0.16639 0.0
H981 H 0.00516 0.45819 0.16627 0.0
H982 H 0.06253 0.52041 0.16393 0.0
H983 H 0.0189 0.56004 0.16449 0.0
H984 H 0.05759 0.56033 0.14699 0.0
H985 H 0.97151 0.52971 0.08991 0.0
H986 H 0.91525 0.58535 0.0962 0.0
H987 H 0.94216 0.57201 0.15078 0.0
C988 C 0.06755 0.44889 0.13673 0.0
C989 C 0.08629 0.42523 0.12296 0.0
C990 C 0.07415 0.4357 0.10586 0.0
C991 C 0.04245 0.46773 0.10253 0.0
C992 C 0.0233 0.48908 0.11643 0.0
C993 C 0.03584 0.48064 0.13317 0.0
C994 C 0.00925 0.50733 0.1458 0.0
C995 C 0.98288 0.47764 0.15796 0.0
C996 C 0.03883 0.53891 0.15589 0.0
C997 C 0.97947 0.53171 0.13355 0.0
C998 C 0.98806 0.52068 0.11668 0.0
C999 C 0.96466 0.53885 0.10308 0.0
C1000 C 0.93254 0.57022 0.1068 0.0
C1001 C 0.92414 0.5831 0.12399 0.0
C1002 C 0.94748 0.56279 0.13751 0.0
H1003 H 0.44828 0.93015 0.65412 0.0
H1004 H 0.38287 0.96833 0.6068 0.0
H1005 H 0.42629 0.03571 0.60589 0.0
H1006 H 0.45847 0.03748 0.67257 0.0
H1007 H 0.51283 0.02884 0.68094 0.0
H1008 H 0.47594 0.98323 0.67854 0.0
H1009 H 0.53263 0.94256 0.65955 0.0
H1010 H 0.57008 0.98744 0.66236 0.0
H1011 H 0.55529 0.96984 0.64103 0.0
H1012 H 0.4739 0.09922 0.61008 0.0
H1013 H 0.5361 0.14845 0.61552 0.0
H1014 H 0.57414 0.06974 0.65944 0.0
C1015 C 0.44349 0.95246 0.64347 0.0
C1016 C 0.41186 0.94396 0.63061 0.0
C1017 C 0.40683 0.97389 0.61682 0.0
C1018 C 0.43095 0.01264 0.61628 0.0
C1019 C 0.46043 0.02086 0.62949 0.0
C1020 C 0.46789 0.99121 0.64255 0.0
C1021 C 0.50407 0.00701 0.65438 0.0
C1022 C 0.48677 0.01459 0.67269 0.0
C1023 C 0.54281 0.97481 0.65432 0.0
C1024 C 0.51591 0.04994 0.64576 0.0
C1025 C 0.48943 0.05756 0.63167 0.0
C1026 C 0.49484 0.0938 0.62109 0.0
C1027 C 0.53 0.12173 0.62436 0.0
C1028 C 0.55945 0.11299 0.63797 0.0
C1029 C 0.55133 0.07773 0.64925 0.0
H1030 H 0.4341 0.91881 0.84844 0.0
H1031 H 0.42889 0.89261 0.9033 0.0
H1032 H 0.49044 0.94319 0.9079 0.0
H1033 H 0.5504 0.92582 0.84497 0.0
H1034 H 0.55004 0.97016 0.82969 0.0
H1035 H 0.5049 0.93226 0.83043 0.0
H1036 H 0.45025 0.99612 0.83501 0.0
H1037 H 0.49504 0.03426 0.83382 0.0
H1038 H 0.4594 0.0343 0.85229 0.0
H1039 H 0.55418 0.99393 0.90657 0.0
H1040 H 0.60818 0.05133 0.90006 0.0
H1041 H 0.57142 0.04599 0.84615 0.0
C1042 C 0.44543 0.92415 0.86146 0.0
C1043 C 0.42659 0.90156 0.87549 0.0
C1044 C 0.4426 0.9095 0.89232 0.0
C1045 C 0.47786 0.9379 0.89507 0.0
C1046 C 0.49664 0.95834 0.88089 0.0
C1047 C 0.4805 0.95259 0.86447 0.0
C1048 C 0.50592 0.97963 0.85156 0.0
C1049 C 0.52919 0.9502 0.83838 0.0
C1050 C 0.47586 0.01307 0.84265 0.0
C1051 C 0.53856 0.00179 0.86335 0.0
C1052 C 0.53306 0.98843 0.88017 0.0
C1053 C 0.55875 0.0048 0.89346 0.0
C1054 C 0.58956 0.03726 0.88959 0.0
C1055 C 0.59405 0.0534 0.87259 0.0
C1056 C 0.56911 0.03425 0.85925 0.0
H1057 H 0.07574 0.43919 0.33909 0.0
H1058 H 0.0658 0.39394 0.39188 0.0
H1059 H 0.00766 0.44748 0.39735 0.0
H1060 H 0.06245 0.54963 0.34714 0.0
H1061 H 0.02824 0.56251 0.32896 0.0
H1062 H 0.06572 0.5171 0.32786 0.0
H1063 H 0.00227 0.46436 0.32031 0.0
H1064 H 0.96471 0.50983 0.32086 0.0
H1065 H 0.95464 0.46229 0.33398 0.0
H1066 H 0.96235 0.5119 0.39894 0.0
H1067 H 0.9143 0.57452 0.39509 0.0
H1068 H 0.94573 0.57801 0.34055 0.0
C1069 C 0.06005 0.43951 0.35157 0.0
C1070 C 0.07537 0.4126 0.36512 0.0
C1071 C 0.05472 0.41441 0.38138 0.0
C1072 C 0.02181 0.44484 0.38464 0.0
C1073 C 0.00941 0.47276 0.37142 0.0
C1074 C 0.02651 0.46967 0.35504 0.0
C1075 C 0.00718 0.50482 0.34344 0.0
C1076 C 0.04305 0.53531 0.33644 0.0
C1077 C 0.98061 0.48408 0.32878 0.0
C1078 C 0.97764 0.52863 0.35608 0.0
C1079 C 0.98033 0.50957 0.37214 0.0
C1080 C 0.95887 0.52648 0.38634 0.0
C1081 C 0.93182 0.56254 0.38397 0.0
C1082 C 0.92544 0.58111 0.36743 0.0
C1083 C 0.94969 0.56456 0.35332 0.0
H1084 H 0.93669 0.56578 0.84375 0.0
H1085 H 0.92236 0.59077 0.89847 0.0
H1086 H 0.98201 0.53906 0.9045 0.0
H1087 H 0.95953 0.44942 0.848 0.0
H1088 H 0.99835 0.44908 0.83055 0.0
H1089 H 0.954 0.48789 0.83057 0.0
H1090 H 0.01023 0.55095 0.82759 0.0
H1091 H 0.05483 0.51236 0.82801 0.0
H1092 H 0.05317 0.55655 0.84333 0.0
H1093 H 0.04441 0.48786 0.90483 0.0
H1094 H 0.09848 0.42963 0.89984 0.0
H1095 H 0.0724 0.43559 0.84502 0.0
C1096 C 0.94561 0.55987 0.85701 0.0
C1097 C 0.92489 0.58258 0.87061 0.0
C1098 C 0.93771 0.57394 0.8878 0.0
C1099 C 0.97183 0.54486 0.89138 0.0
C1100 C 0.99266 0.52443 0.87767 0.0
C1101 C 0.97957 0.53071 0.86086 0.0
C1102 C 0.00686 0.50338 0.84861 0.0
C1103 C 0.97796 0.47048 0.83886 0.0
C1104 C 0.0328 0.53257 0.83615 0.0
C1105 C 0.03704 0.48059 0.86123 0.0
C1106 C 0.02859 0.49388 0.87788 0.0
C1107 C 0.0513 0.47702 0.89187 0.0
C1108 C 0.08209 0.44408 0.88888 0.0
C1109 C 0.08963 0.42807 0.87205 0.0
C1110 C 0.06783 0.44763 0.85799 0.0
H1111 H 0.56931 0.08353 0.38731 0.0
H1112 H 0.58389 0.10324 0.33228 0.0
H1113 H 0.52712 0.04816 0.32689 0.0
H1114 H 0.55525 0.97045 0.38631 0.0
H1115 H 0.51361 0.96729 0.40268 0.0
H1116 H 0.55251 0.01156 0.40288 0.0
H1117 H 0.48953 0.06834 0.4024 0.0
H1118 H 0.45039 0.02423 0.4027 0.0
H1119 H 0.44812 0.06487 0.38594 0.0
H1120 H 0.47723 0.98569 0.32695 0.0
H1121 H 0.42365 0.92771 0.33239 0.0
H1122 H 0.43642 0.94884 0.38742 0.0
C1123 C 0.55951 0.07724 0.37416 0.0
C1124 C 0.58123 0.09759 0.36021 0.0
C1125 C 0.56792 0.08799 0.34318 0.0
C1126 C 0.53582 0.05657 0.33995 0.0
C1127 C 0.51683 0.03541 0.35389 0.0
C1128 C 0.52705 0.04599 0.37067 0.0
C1129 C 0.50159 0.01747 0.38317 0.0
C1130 C 0.5326 0.99008 0.39442 0.0
C1131 C 0.47056 0.0454 0.3942 0.0
C1132 C 0.47632 0.98877 0.37071 0.0
C1133 C 0.48618 0.99965 0.35392 0.0
C1134 C 0.4685 0.97732 0.34003 0.0
C1135 C 0.43824 0.94419 0.3433 0.0
C1136 C 0.42538 0.93389 0.36034 0.0
C1137 C 0.4456 0.95582 0.37426 0.0
H1138 H 0.42321 0.92281 0.11556 0.0
H1139 H 0.4218 0.89461 0.17032 0.0
H1140 H 0.4821 0.9466 0.17466 0.0
H1141 H 0.5372 0.93247 0.11054 0.0
H1142 H 0.53572 0.9781 0.09588 0.0
H1143 H 0.49047 0.94037 0.09672 0.0
H1144 H 0.43656 0.00392 0.10295 0.0
H1145 H 0.48146 0.04198 0.10162 0.0
H1146 H 0.44753 0.04063 0.12056 0.0
H1147 H 0.54632 0.99497 0.17295 0.0
H1148 H 0.6017 0.05077 0.16646 0.0
H1149 H 0.56055 0.05192 0.11301 0.0
C1150 C 0.43496 0.92825 0.12851 0.0
C1151 C 0.41786 0.90434 0.14258 0.0
C1152 C 0.43417 0.91248 0.15933 0.0
C1153 C 0.46876 0.94167 0.16192 0.0
C1154 C 0.48622 0.963 0.1477 0.0
C1155 C 0.46918 0.95783 0.1314 0.0
C1156 C 0.49364 0.98584 0.11846 0.0
C1157 C 0.51555 0.95748 0.10458 0.0
C1158 C 0.46298 0.02014 0.11043 0.0
C1159 C 0.52746 0.00699 0.13005 0.0
C1160 C 0.52276 0.99269 0.1468 0.0
C1161 C 0.55002 0.00692 0.15994 0.0
C1162 C 0.58156 0.03844 0.15607 0.0
C1163 C 0.58529 0.05588 0.13924 0.0
C1164 C 0.55878 0.03889 0.12594 0.0
H1165 H 0.07655 0.45239 0.61331 0.0
H1166 H 0.06468 0.40609 0.6659 0.0
H1167 H 0.00705 0.46039 0.67135 0.0
H1168 H 0.06325 0.56413 0.62212 0.0
H1169 H 0.03045 0.5767 0.6035 0.0
H1170 H 0.06873 0.5319 0.60283 0.0
H1171 H 0.0067 0.47837 0.59428 0.0
H1172 H 0.96844 0.52323 0.59446 0.0
H1173 H 0.95799 0.47533 0.60733 0.0
H1174 H 0.95693 0.52347 0.67228 0.0
H1175 H 0.90583 0.58413 0.66719 0.0
H1176 H 0.94695 0.58948 0.61372 0.0
C1177 C 0.06089 0.45285 0.6258 0.0
C1178 C 0.07526 0.42505 0.63919 0.0
C1179 C 0.05439 0.42714 0.65545 0.0
C1180 C 0.02174 0.45803 0.65872 0.0
C1181 C 0.00993 0.48641 0.64557 0.0
C1182 C 0.0279 0.48355 0.6293 0.0
C1183 C 0.00905 0.51849 0.61758 0.0
C1184 C 0.04503 0.54964 0.61113 0.0
C1185 C 0.98405 0.49761 0.60252 0.0
C1186 C 0.97819 0.54154 0.6299 0.0
C1187 C 0.97972 0.52264 0.64601 0.0
C1188 C 0.95493 0.53828 0.65968 0.0
C1189 C 0.9262 0.57304 0.65666 0.0
C1190 C 0.9221 0.59158 0.64003 0.0
C1191 C 0.94938 0.57623 0.6266 0.0
H1192 H 0.50891 0.19635 0.11754 0.0
H1193 H 0.55781 0.30796 0.14591 0.0
H1194 H 0.48326 0.34056 0.14577 0.0
H1195 H 0.42389 0.25176 0.09194 0.0
H1196 H 0.3857 0.20726 0.09443 0.0
H1197 H 0.44375 0.19655 0.09432 0.0
H1198 H 0.43702 0.15774 0.1238 0.0
H1199 H 0.37909 0.16838 0.12404 0.0
H1200 H 0.41284 0.18657 0.14164 0.0
H1201 H 0.40263 0.35935 0.14311 0.0
H1202 H 0.32176 0.35933 0.14138 0.0
H1203 H 0.32485 0.23031 0.11834 0.0
C1204 C 0.50408 0.22832 0.12324 0.0
C1205 C 0.53908 0.2505 0.13128 0.0
C1206 C 0.53141 0.29113 0.13939 0.0
C1207 C 0.48928 0.30976 0.13934 0.0
C1208 C 0.45521 0.28671 0.13148 0.0
C1209 C 0.46211 0.24656 0.12379 0.0
C1210 C 0.41937 0.22582 0.11817 0.0
C1211 C 0.41812 0.22002 0.09855 0.0
C1212 C 0.41164 0.18205 0.12747 0.0
C1213 C 0.38714 0.26038 0.124 0.0
C1214 C 0.40853 0.29569 0.13128 0.0
C1215 C 0.38562 0.33173 0.13755 0.0
C1216 C 0.33974 0.33132 0.1366 0.0
C1217 C 0.31712 0.29464 0.1299 0.0
C1218 C 0.34128 0.25896 0.12337 0.0
H1219 H 0.68548 0.35026 0.64765 0.0
H1220 H 0.74992 0.3149 0.59988 0.0
H1221 H 0.75674 0.39268 0.59238 0.0
H1222 H 0.63056 0.44884 0.63411 0.0
H1223 H 0.64372 0.47941 0.65323 0.0
H1224 H 0.63818 0.42076 0.65426 0.0
H1225 H 0.7162 0.41393 0.66709 0.0
H1226 H 0.72145 0.47256 0.66648 0.0
H1227 H 0.76168 0.4387 0.65597 0.0
H1228 H 0.75428 0.47314 0.58935 0.0
H1229 H 0.76342 0.5518 0.59421 0.0
H1230 H 0.71283 0.53692 0.64612 0.0
C1231 C 0.70144 0.35878 0.6357 0.0
C1232 C 0.7156 0.32617 0.62402 0.0
C1233 C 0.73682 0.33908 0.60864 0.0
C1234 C 0.74097 0.38324 0.60427 0.0
C1235 C 0.72532 0.41444 0.61573 0.0
C1236 C 0.70763 0.40301 0.63143 0.0
C1237 C 0.69903 0.44339 0.64231 0.0
C1238 C 0.64994 0.44838 0.6462 0.0
C1239 C 0.72622 0.44207 0.65894 0.0
C1240 C 0.71487 0.47911 0.63022 0.0
C1241 C 0.72839 0.4615 0.61477 0.0
C1242 C 0.74431 0.48737 0.60147 0.0
C1243 C 0.74912 0.53223 0.60436 0.0
C1244 C 0.73941 0.55077 0.62065 0.0
C1245 C 0.72043 0.52396 0.63352 0.0
H1246 H 0.47966 0.70923 0.11493 0.0
H1247 H 0.45493 0.72167 0.16975 0.0
H1248 H 0.53308 0.71226 0.17555 0.0
H1249 H 0.56989 0.6239 0.12074 0.0
H1250 H 0.60036 0.64525 0.10275 0.0
H1251 H 0.54139 0.64814 0.10282 0.0
H1252 H 0.54621 0.73173 0.0979 0.0
H1253 H 0.6051 0.72938 0.09831 0.0
H1254 H 0.57638 0.76503 0.11291 0.0
H1255 H 0.61376 0.72119 0.17493 0.0
H1256 H 0.69242 0.72503 0.16891 0.0
H1257 H 0.66737 0.68947 0.11576 0.0
C1258 C 0.49044 0.70826 0.12818 0.0
C1259 C 0.46078 0.71672 0.14182 0.0
C1260 C 0.47653 0.71542 0.15898 0.0
C1261 C 0.52114 0.71036 0.16248 0.0
C1262 C 0.54972 0.70485 0.14876 0.0
C1263 C 0.53502 0.70163 0.13201 0.0
C1264 C 0.57337 0.69549 0.11977 0.0
C1265 C 0.57112 0.65051 0.111 0.0
C1266 C 0.57535 0.73262 0.10644 0.0
C1267 C 0.61165 0.69802 0.13222 0.0
C1268 C 0.59707 0.70427 0.14881 0.0
C1269 C 0.62577 0.7138 0.16217 0.0
C1270 C 0.6707 0.71545 0.15863 0.0
C1271 C 0.68712 0.70565 0.14202 0.0
C1272 C 0.65673 0.69701 0.12864 0.0
H1273 H 0.24851 0.49496 0.65549 0.0
H1274 H 0.29607 0.45881 0.60491 0.0
H1275 H 0.32116 0.53482 0.60025 0.0
H1276 H 0.20293 0.59248 0.64296 0.0
H1277 H 0.21569 0.62239 0.66228 0.0
H1278 H 0.2091 0.56398 0.6631 0.0
H1279 H 0.28639 0.55567 0.67642 0.0
H1280 H 0.29307 0.61424 0.67588 0.0
H1281 H 0.33295 0.57943 0.66565 0.0
H1282 H 0.33385 0.61637 0.59995 0.0
H1283 H 0.33341 0.6965 0.60402 0.0
H1284 H 0.2725 0.6798 0.65393 0.0
C1285 C 0.26576 0.50255 0.64369 0.0
C1286 C 0.27104 0.47072 0.63067 0.0
C1287 C 0.2922 0.48251 0.61515 0.0
C1288 C 0.30651 0.52562 0.61239 0.0
C1289 C 0.29918 0.5566 0.62524 0.0
C1290 C 0.27948 0.54553 0.64063 0.0
C1291 C 0.27102 0.58566 0.65159 0.0
C1292 C 0.22177 0.59144 0.65518 0.0
C1293 C 0.29744 0.58362 0.66838 0.0
C1294 C 0.28811 0.62118 0.63981 0.0
C1295 C 0.30479 0.60373 0.62479 0.0
C1296 C 0.32104 0.63031 0.61171 0.0
C1297 C 0.32016 0.67583 0.61404 0.0
C1298 C 0.30255 0.6944 0.62922 0.0
C1299 C 0.28666 0.66654 0.64228 0.0
H1300 H 0.0197 0.21267 0.87983 0.0
H1301 H 0.03778 0.26424 0.82827 0.0
H1302 H 0.96043 0.25008 0.82188 0.0
H1303 H 0.93831 0.12545 0.86649 0.0
H1304 H 0.90764 0.13168 0.88614 0.0
H1305 H 0.96597 0.14079 0.88605 0.0
H1306 H 0.95337 0.21792 0.89887 0.0
H1307 H 0.89505 0.20956 0.89862 0.0
H1308 H 0.91841 0.25603 0.88771 0.0
H1309 H 0.8792 0.24585 0.82313 0.0
H1310 H 0.80101 0.23691 0.82985 0.0
H1311 H 0.83539 0.17666 0.87855 0.0
C1312 C 0.00777 0.21959 0.86701 0.0
C1313 C 0.03505 0.2398 0.85462 0.0
C1314 C 0.01789 0.24866 0.83803 0.0
C1315 C 0.97377 0.24093 0.83425 0.0
C1316 C 0.94732 0.22312 0.847 0.0
C1317 C 0.96384 0.21107 0.86285 0.0
C1318 C 0.92772 0.19352 0.87435 0.0
C1319 C 0.93537 0.14497 0.87849 0.0
C1320 C 0.92341 0.2209 0.89086 0.0
C1321 C 0.88826 0.19957 0.86274 0.0
C1322 C 0.90034 0.21708 0.8471 0.0
C1323 C 0.8694 0.23039 0.83504 0.0
C1324 C 0.82494 0.22491 0.83894 0.0
C1325 C 0.81162 0.20514 0.85456 0.0
C1326 C 0.84403 0.19211 0.86653 0.0
H1327 H 0.83011 0.84362 0.35515 0.0
H1328 H 0.7481 0.80827 0.39861 0.0
H1329 H 0.74022 0.88583 0.40603 0.0
H1330 H 0.87908 0.94353 0.37114 0.0
H1331 H 0.87185 0.97334 0.35136 0.0
H1332 H 0.87878 0.91479 0.35091 0.0
H1333 H 0.80591 0.90624 0.33419 0.0
H1334 H 0.79929 0.96475 0.33429 0.0
H1335 H 0.75661 0.93022 0.34279 0.0
H1336 H 0.74212 0.96619 0.40926 0.0
H1337 H 0.73373 0.04458 0.40387 0.0
H1338 H 0.79961 0.02994 0.35465 0.0
C1339 C 0.81016 0.85198 0.36614 0.0
C1340 C 0.79131 0.81924 0.37673 0.0
C1341 C 0.76516 0.83223 0.39088 0.0
C1342 C 0.76017 0.87638 0.39515 0.0
C1343 C 0.77982 0.90759 0.38468 0.0
C1344 C 0.8027 0.89619 0.37006 0.0
C1345 C 0.81406 0.93652 0.35953 0.0
C1346 C 0.86391 0.94238 0.35816 0.0
C1347 C 0.79268 0.9343 0.34164 0.0
C1348 C 0.79366 0.97219 0.37053 0.0
C1349 C 0.77577 0.9546 0.3853 0.0
C1350 C 0.75553 0.98039 0.39766 0.0
C1351 C 0.75122 0.02514 0.39447 0.0
C1352 C 0.76562 0.04367 0.37872 0.0
C1353 C 0.78833 0.0169 0.36681 0.0
H1354 H 0.98401 0.73662 0.83962 0.0
H1355 H 0.94245 0.81395 0.88341 0.0
H1356 H 0.01864 0.8389 0.88763 0.0
H1357 H 0.07675 0.69683 0.85825 0.0
H1358 H 0.11067 0.69707 0.83929 0.0
H1359 H 0.05221 0.6924 0.83725 0.0
H1360 H 0.05036 0.76031 0.81737 0.0
H1361 H 0.10907 0.76483 0.81909 0.0
H1362 H 0.0748 0.81081 0.82451 0.0
H1363 H 0.10027 0.84685 0.88969 0.0
H1364 H 0.18082 0.83945 0.88877 0.0
H1365 H 0.16999 0.75469 0.84434 0.0
C1366 C 0.99053 0.7604 0.84961 0.0
C1367 C 0.95701 0.77399 0.861 0.0
C1368 C 0.9674 0.80363 0.87438 0.0
C1369 C 0.01064 0.81788 0.87689 0.0
C1370 C 0.04324 0.80218 0.86595 0.0
C1371 C 0.03365 0.77443 0.85244 0.0
C1372 C 0.07519 0.75839 0.84375 0.0
C1373 C 0.0789 0.70821 0.84471 0.0
C1374 C 0.07748 0.77456 0.82507 0.0
C1375 C 0.10966 0.78038 0.85478 0.0
C1376 C 0.09051 0.8059 0.86739 0.0
C1377 C 0.11556 0.82739 0.87975 0.0
C1378 C 0.16126 0.82265 0.87923 0.0
C1379 C 0.18152 0.79632 0.86655 0.0
C1380 C 0.15532 0.77539 0.85406 0.0
H1381 H 0.25878 0.17874 0.38683 0.0
H1382 H 0.14504 0.19093 0.35389 0.0
H1383 H 0.13791 0.11049 0.35297 0.0
H1384 H 0.30518 0.08863 0.36771 0.0
H1385 H 0.32318 0.06249 0.38723 0.0
H1386 H 0.31656 0.12087 0.38659 0.0
H1387 H 0.26352 0.11693 0.41257 0.0
H1388 H 0.26998 0.05833 0.41326 0.0
H1389 H 0.21608 0.08196 0.4115 0.0
H1390 H 0.15124 0.02937 0.35165 0.0
H1391 H 0.1805 0.95369 0.35221 0.0
H1392 H 0.27904 0.99395 0.389 0.0
C1393 C 0.23162 0.16442 0.37988 0.0
C1394 C 0.20266 0.19085 0.37033 0.0
C1395 C 0.16798 0.17107 0.36109 0.0
C1396 C 0.16344 0.12547 0.36061 0.0
C1397 C 0.19311 0.10016 0.36986 0.0
C1398 C 0.22599 0.11895 0.37962 0.0
C1399 C 0.25474 0.08436 0.38775 0.0
C1400 C 0.30272 0.08939 0.38196 0.0
C1401 C 0.25083 0.08547 0.40744 0.0
C1402 C 0.23412 0.04336 0.38042 0.0
C1403 C 0.19858 0.05307 0.37012 0.0
C1404 C 0.17802 0.02109 0.36015 0.0
C1405 C 0.19474 0.97826 0.36053 0.0
C1406 C 0.23099 0.96785 0.37105 0.0
C1407 C 0.25006 0.00064 0.38141 0.0
H1408 H 0.4851 0.77133 0.88046 0.0
H1409 H 0.44049 0.65812 0.85204 0.0
H1410 H 0.51791 0.63491 0.84777 0.0
H1411 H 0.57169 0.79533 0.85223 0.0
H1412 H 0.60799 0.8155 0.86867 0.0
H1413 H 0.54964 0.81931 0.87154 0.0
H1414 H 0.55546 0.77695 0.90029 0.0
H1415 H 0.61395 0.77334 0.89762 0.0
H1416 H 0.58212 0.72433 0.90072 0.0
H1417 H 0.60145 0.62565 0.84652 0.0
H1418 H 0.68228 0.63298 0.84683 0.0
H1419 H 0.67014 0.75833 0.87236 0.0
C1420 C 0.49171 0.74084 0.87383 0.0
C1421 C 0.45717 0.7154 0.86714 0.0
C1422 C 0.46672 0.67711 0.8577 0.0
C1423 C 0.51049 0.66395 0.85516 0.0
C1424 C 0.544 0.69028 0.86174 0.0
C1425 C 0.53494 0.72819 0.87074 0.0
C1426 C 0.57629 0.75324 0.87501 0.0
C1427 C 0.57639 0.79851 0.86634 0.0
C1428 C 0.5823 0.75717 0.89457 0.0
C1429 C 0.61036 0.72338 0.86718 0.0
C1430 C 0.59128 0.68692 0.85979 0.0
C1431 C 0.61657 0.65424 0.85218 0.0
C1432 C 0.6624 0.65881 0.85229 0.0
C1433 C 0.68244 0.69613 0.85968 0.0
C1434 C 0.65584 0.72902 0.86694 0.0
H1435 H 0.28887 0.48552 0.38432 0.0
H1436 H 0.23697 0.47146 0.33251 0.0
H1437 H 0.24399 0.54996 0.32801 0.0
H1438 H 0.24175 0.58554 0.39482 0.0
H1439 H 0.28858 0.60998 0.40513 0.0
H1440 H 0.28265 0.55137 0.40477 0.0
H1441 H 0.35863 0.5432 0.39037 0.0
H1442 H 0.3653 0.60176 0.39107 0.0
H1443 H 0.37033 0.57309 0.37093 0.0
H1444 H 0.23895 0.62911 0.33132 0.0
H1445 H 0.24705 0.70675 0.338 0.0
H1446 H 0.31965 0.67371 0.38424 0.0
C1447 C 0.28028 0.49884 0.37187 0.0
C1448 C 0.26178 0.47191 0.3589 0.0
C1449 C 0.25104 0.49082 0.34277 0.0
C1450 C 0.25456 0.53571 0.34005 0.0
C1451 C 0.27058 0.56146 0.35329 0.0
C1452 C 0.28539 0.54392 0.36857 0.0
C1453 C 0.30289 0.58003 0.3802 0.0
C1454 C 0.27744 0.58181 0.39724 0.0
C1455 C 0.35223 0.57417 0.38332 0.0
C1456 C 0.29371 0.62029 0.36923 0.0
C1457 C 0.27393 0.60837 0.354 0.0
C1458 C 0.25681 0.639 0.34268 0.0
C1459 C 0.26204 0.68321 0.34653 0.0
C1460 C 0.28646 0.69687 0.36106 0.0
C1461 C 0.30165 0.66474 0.37281 0.0
H1462 H 0.52001 0.27236 0.85331 0.0
H1463 H 0.53347 0.19986 0.90104 0.0
H1464 H 0.45483 0.20771 0.90646 0.0
H1465 H 0.43641 0.3504 0.87149 0.0
H1466 H 0.40724 0.35412 0.85141 0.0
H1467 H 0.46552 0.34475 0.85146 0.0
H1468 H 0.45388 0.27532 0.83295 0.0
H1469 H 0.39554 0.28394 0.83316 0.0
H1470 H 0.41793 0.2328 0.84061 0.0
H1471 H 0.37423 0.20994 0.90389 0.0
H1472 H 0.29662 0.22383 0.89765 0.0
H1473 H 0.33421 0.30889 0.85542 0.0
C1474 C 0.50647 0.25925 0.86509 0.0
C1475 C 0.53302 0.23555 0.87674 0.0
C1476 C 0.51408 0.2186 0.892 0.0
C1477 C 0.46926 0.2225 0.89516 0.0
C1478 C 0.44378 0.24472 0.88324 0.0
C1479 C 0.46168 0.2644 0.86887 0.0
C1480 C 0.42636 0.28753 0.85853 0.0
C1481 C 0.43436 0.33715 0.85821 0.0
C1482 C 0.42327 0.26876 0.84023 0.0
C1483 C 0.38597 0.27614 0.86904 0.0
C1484 C 0.3969 0.25061 0.883 0.0
C1485 C 0.36525 0.23163 0.89348 0.0
C1486 C 0.32115 0.24005 0.88991 0.0
C1487 C 0.30892 0.26878 0.87646 0.0
C1488 C 0.34206 0.28687 0.86585 0.0
H1489 H 0.68654 0.34457 0.37886 0.0
H1490 H 0.76706 0.31242 0.33457 0.0
H1491 H 0.7701 0.39003 0.32679 0.0
H1492 H 0.63195 0.44213 0.36367 0.0
H1493 H 0.64008 0.4725 0.38326 0.0
H1494 H 0.63566 0.41372 0.38392 0.0
H1495 H 0.71061 0.40829 0.39938 0.0
H1496 H 0.71463 0.46702 0.39914 0.0
H1497 H 0.75784 0.43431 0.38996 0.0
H1498 H 0.76274 0.46993 0.3231 0.0
H1499 H 0.7695 0.54842 0.32836 0.0
H1500 H 0.71099 0.53177 0.37891 0.0
C1501 C 0.70531 0.35354 0.36763 0.0
C1502 C 0.72478 0.32151 0.35687 0.0
C1503 C 0.7493 0.33559 0.34243 0.0
C1504 C 0.75153 0.37981 0.33794 0.0
C1505 C 0.73104 0.41019 0.34852 0.0
C1506 C 0.71032 0.398 0.36353 0.0
C1507 C 0.69842 0.43797 0.37419 0.0
C1508 C 0.64855 0.44179 0.37638 0.0
C1509 C 0.72178 0.43683 0.3917 0.0
C1510 C 0.71607 0.47435 0.3628 0.0
C1511 C 0.73278 0.45732 0.34773 0.0
C1512 C 0.75039 0.48372 0.33496 0.0
C1513 C 0.75378 0.52856 0.33809 0.0
C1514 C 0.74141 0.54657 0.3542 0.0
C1515 C 0.72072 0.51919 0.36647 0.0
H1516 H 0.98276 0.73525 0.10786 0.0
H1517 H 0.949 0.81879 0.15078 0.0
H1518 H 0.02571 0.84524 0.15203 0.0
H1519 H 0.07755 0.6982 0.12595 0.0
H1520 H 0.10843 0.69328 0.1063 0.0
H1521 H 0.04972 0.68931 0.10582 0.0
H1522 H 0.04603 0.75219 0.08355 0.0
H1523 H 0.10495 0.75616 0.08383 0.0
H1524 H 0.072 0.80376 0.08826 0.0
H1525 H 0.10695 0.85637 0.15054 0.0
H1526 H 0.187 0.84634 0.14865 0.0
H1527 H 0.16918 0.7486 0.10894 0.0
C1528 C 0.99119 0.76068 0.11697 0.0
C1529 C 0.95985 0.77639 0.12883 0.0
C1530 C 0.97239 0.80749 0.14131 0.0
C1531 C 0.01582 0.82259 0.14207 0.0
C1532 C 0.04634 0.80545 0.1305 0.0
C1533 C 0.03462 0.77487 0.11826 0.0
C1534 C 0.07458 0.75611 0.1093 0.0
C1535 C 0.07774 0.7063 0.11202 0.0
C1536 C 0.07437 0.76776 0.09009 0.0
C1537 C 0.11079 0.78002 0.1187 0.0
C1538 C 0.0937 0.8092 0.13054 0.0
C1539 C 0.12061 0.83378 0.14127 0.0
C1540 C 0.166 0.82765 0.14018 0.0
C1541 C 0.18411 0.7964 0.12877 0.0
C1542 C 0.15616 0.77303 0.11763 0.0
H1543 H 0.18478 0.17348 0.61742 0.0
H1544 H 0.25173 0.20278 0.66531 0.0
H1545 H 0.25405 0.12476 0.67222 0.0
H1546 H 0.12695 0.07513 0.62922 0.0
H1547 H 0.14055 0.04542 0.60994 0.0
H1548 H 0.13659 0.10425 0.60943 0.0
H1549 H 0.21554 0.10982 0.59743 0.0
H1550 H 0.21921 0.05103 0.59749 0.0
H1551 H 0.25963 0.08311 0.60872 0.0
H1552 H 0.24529 0.04505 0.6751 0.0
H1553 H 0.25244 0.96654 0.66988 0.0
H1554 H 0.20884 0.98517 0.61717 0.0
C1555 C 0.20034 0.1637 0.62928 0.0
C1556 C 0.21565 0.1951 0.64132 0.0
C1557 C 0.23671 0.18008 0.65644 0.0
C1558 C 0.23856 0.13559 0.66046 0.0
C1559 C 0.22147 0.10583 0.64877 0.0
C1560 C 0.20495 0.11887 0.63308 0.0
C1561 C 0.19603 0.07926 0.62173 0.0
C1562 C 0.14711 0.07583 0.61732 0.0
C1563 C 0.22429 0.0809 0.60538 0.0
C1564 C 0.21017 0.04223 0.6336 0.0
C1565 C 0.22282 0.05866 0.64936 0.0
C1566 C 0.23633 0.03171 0.66271 0.0
C1567 C 0.24001 0.98689 0.65958 0.0
C1568 C 0.23208 0.96935 0.64298 0.0
C1569 C 0.21515 0.99731 0.63 0.0
H1570 H 0.83633 0.17421 0.11639 0.0
H1571 H 0.80424 0.2413 0.16399 0.0
H1572 H 0.88221 0.25121 0.16996 0.0
H1573 H 0.93991 0.1259 0.12786 0.0
H1574 H 0.96734 0.1403 0.10814 0.0
H1575 H 0.90896 0.13149 0.10826 0.0
H1576 H 0.89626 0.20857 0.09538 0.0
H1577 H 0.9546 0.21717 0.09488 0.0
H1578 H 0.91971 0.25558 0.1059 0.0
H1579 H 0.9622 0.24982 0.17204 0.0
H1580 H 0.03988 0.26138 0.16632 0.0
H1581 H 0.02275 0.21231 0.11426 0.0
C1582 C 0.84552 0.19136 0.12799 0.0
C1583 C 0.81367 0.20467 0.14023 0.0
C1584 C 0.82765 0.22787 0.155 0.0
C1585 C 0.87205 0.23408 0.15847 0.0
C1586 C 0.90245 0.21908 0.14657 0.0
C1587 C 0.88999 0.20022 0.13123 0.0
C1588 C 0.92962 0.19368 0.11961 0.0
C1589 C 0.93687 0.14493 0.11574 0.0
C1590 C 0.92476 0.22034 0.10296 0.0
C1591 C 0.966 0.21176 0.13095 0.0
C1592 C 0.94932 0.22445 0.14667 0.0
C1593 C 0.97569 0.24088 0.15967 0.0
C1594 C 0.02005 0.24712 0.15624 0.0
C1595 C 0.03771 0.23863 0.13968 0.0
C1596 C 0.01043 0.21927 0.12701 0.0
H1597 H 0.72895 0.02546 0.61232 0.0
H1598 H 0.78758 0.06303 0.66092 0.0
H1599 H 0.81512 0.98758 0.6647 0.0
H1600 H 0.68932 0.92575 0.62639 0.0
H1601 H 0.69861 0.89662 0.60658 0.0
H1602 H 0.68963 0.95476 0.60621 0.0
H1603 H 0.76307 0.96609 0.59014 0.0
H1604 H 0.77211 0.90782 0.59027 0.0
H1605 H 0.81284 0.94407 0.59911 0.0
H1606 H 0.83037 0.9066 0.66444 0.0
H1607 H 0.8322 0.8265 0.66016 0.0
H1608 H 0.75991 0.84117 0.61258 0.0
C1609 C 0.74883 0.01827 0.6235 0.0
C1610 C 0.75667 0.05039 0.63622 0.0
C1611 C 0.78156 0.03912 0.65093 0.0
C1612 C 0.79731 0.99634 0.65318 0.0
C1613 C 0.78773 0.96514 0.64066 0.0
C1614 C 0.7642 0.97563 0.62606 0.0
C1615 C 0.75476 0.93531 0.61534 0.0
C1616 C 0.70514 0.92768 0.61354 0.0
C1617 C 0.77703 0.93853 0.59767 0.0
C1618 C 0.7759 0.90034 0.62634 0.0
C1619 C 0.79521 0.91828 0.64078 0.0
C1620 C 0.81555 0.89228 0.65314 0.0
C1621 C 0.81608 0.84681 0.65068 0.0
C1622 C 0.79595 0.82775 0.63611 0.0
C1623 C 0.77591 0.85498 0.62375 0.0
loop_
_geom_bond_atom_site_label_1
_geom_bond_atom_site_label_2
_geom_bond_distance
_geom_bond_site_symmetry_2
_ccdc_geom_bond_type
Co0 O3 1.970 . S
Co0 N17 1.989 . S
Co0 O25 1.967 . S
Co0 O32 1.920 . S
Co1 O4 1.966 . S
Co1 N10 2.022 . S
Co1 N18 1.993 . S
Co1 O26 1.941 . S
C2 O3 1.258 . S
C2 O4 1.263 . S
O3 Co0 1.970 . S
O3 C2 1.258 . S
O4 Co1 1.966 . S
O4 C2 1.263 . S
C5 O6 1.235 . S
C5 O32 1.289 . S
O6 C5 1.235 . S
C7 C9 1.400 . S
C7 N10 1.351 . S
C7 C12 1.501 . S
C8 C9 1.387 . S
C8 N11 1.341 . S
C9 C7 1.400 . S
C9 C8 1.387 . S
N10 Co1 2.022 . S
N10 C7 1.351 . S
N10 N11 1.365 . S
N11 C8 1.341 . S
N11 N10 1.365 . S
N11 H31 0.862 . S
C12 C7 1.501 . S
C12 H13 0.961 . S
C12 H14 0.961 . S
C12 H15 0.960 . S
H13 C12 0.961 . S
H14 C12 0.961 . S
H15 C12 0.960 . S
C16 N17 1.342 . S
C16 C20 1.401 . S
C16 C21 1.499 . S
N17 Co0 1.989 . S
N17 C16 1.342 . S
N17 N18 1.388 . S
N18 Co1 1.993 . S
N18 N17 1.388 . S
N18 C19 1.346 . S
C19 N18 1.346 . S
C19 C20 1.396 . S
C19 C29 1.510 . S
C20 C16 1.401 . S
C20 C19 1.396 . S
C21 C16 1.499 . S
C21 H22 0.959 . S
C21 H23 0.960 . S
C21 H24 0.961 . S
H22 C21 0.959 . S
H23 C21 0.960 . S
H24 C21 0.961 . S
O25 Co0 1.967 . S
O25 C33 1.258 . S
O26 Co1 1.941 . S
O26 C33 1.266 . S
H27 C29 0.959 . S
H28 C29 0.961 . S
C29 C19 1.510 . S
C29 H27 0.959 . S
C29 H28 0.961 . S
C29 H30 0.960 . S
H30 C29 0.960 . S
H31 N11 0.862 . S
O32 Co0 1.920 . S
O32 C5 1.289 . S
C33 O25 1.258 . S
C33 O26 1.266 . S
Co34 O37 1.970 . S
Co34 N51 1.989 . S
Co34 O59 1.967 . S
Co34 O66 1.920 . S
Co35 O38 1.966 . S
Co35 N44 2.022 . S
Co35 N52 1.993 . S
Co35 O60 1.941 . S
C36 O37 1.258 . S
C36 O38 1.263 . S
O37 Co34 1.970 . S
O37 C36 1.258 . S
O38 Co35 1.966 . S
O38 C36 1.263 . S
C39 O40 1.235 . S
C39 O66 1.289 . S
O40 C39 1.235 . S
C41 C43 1.400 . S
C41 N44 1.351 . S
C41 C46 1.501 . S
C42 C43 1.387 . S
C42 N45 1.341 . S
C43 C41 1.400 . S
C43 C42 1.387 . S
N44 Co35 2.022 . S
N44 C41 1.351 . S
N44 N45 1.365 . S
N45 C42 1.341 . S
N45 N44 1.365 . S
N45 H65 0.862 . S
C46 C41 1.501 . S
C46 H47 0.961 . S
C46 H48 0.961 . S
C46 H49 0.960 . S
H47 C46 0.961 . S
H48 C46 0.961 . S
H49 C46 0.960 . S
C50 N51 1.342 . S
C50 C54 1.401 . S
C50 C55 1.499 . S
N51 Co34 1.989 . S
N51 C50 1.342 . S
N51 N52 1.388 . S
N52 Co35 1.993 . S
N52 N51 1.388 . S
N52 C53 1.346 . S
C53 N52 1.346 . S
C53 C54 1.396 . S
C53 C63 1.510 . S
C54 C50 1.401 . S
C54 C53 1.396 . S
C55 C50 1.499 . S
C55 H56 0.959 . S
C55 H57 0.960 . S
C55 H58 0.961 . S
H56 C55 0.959 . S
H57 C55 0.960 . S
H58 C55 0.961 . S
O59 Co34 1.967 . S
O59 C67 1.258 . S
O60 Co35 1.941 . S
O60 C67 1.266 . S
H61 C63 0.959 . S
H62 C63 0.961 . S
C63 C53 1.510 . S
C63 H61 0.959 . S
C63 H62 0.961 . S
C63 H64 0.960 . S
H64 C63 0.960 . S
H65 N45 0.862 . S
O66 Co34 1.920 . S
O66 C39 1.289 . S
C67 O59 1.258 . S
C67 O60 1.266 . S
Co68 O71 1.970 . S
Co68 N85 1.989 . S
Co68 O93 1.967 . S
Co68 O100 1.920 . S
Co69 O72 1.966 . S
Co69 N78 2.022 . S
Co69 N86 1.993 . S
Co69 O94 1.941 . S
C70 O71 1.258 . S
C70 O72 1.263 . S
O71 Co68 1.970 . S
O71 C70 1.258 . S
O72 Co69 1.966 . S
O72 C70 1.263 . S
C73 O74 1.235 . S
C73 O100 1.289 . S
O74 C73 1.235 . S
C75 C77 1.400 . S
C75 N78 1.351 . S
C75 C80 1.501 . S
C76 C77 1.387 . S
C76 N79 1.341 . S
C77 C75 1.400 . S
C77 C76 1.387 . S
N78 Co69 2.022 . S
N78 C75 1.351 . S
N78 N79 1.365 . S
N79 C76 1.341 . S
N79 N78 1.365 . S
N79 H99 0.862 . S
C80 C75 1.501 . S
C80 H81 0.961 . S
C80 H82 0.961 . S
C80 H83 0.960 . S
H81 C80 0.961 . S
H82 C80 0.961 . S
H83 C80 0.960 . S
C84 N85 1.342 . S
C84 C88 1.401 . S
C84 C89 1.499 . S
N85 Co68 1.989 . S
N85 C84 1.342 . S
N85 N86 1.388 . S
N86 Co69 1.993 . S
N86 N85 1.388 . S
N86 C87 1.346 . S
C87 N86 1.346 . S
C87 C88 1.396 . S
C87 C97 1.510 . S
C88 C84 1.401 . S
C88 C87 1.396 . S
C89 C84 1.499 . S
C89 H90 0.959 . S
C89 H91 0.960 . S
C89 H92 0.961 . S
H90 C89 0.959 . S
H91 C89 0.960 . S
H92 C89 0.961 . S
O93 Co68 1.967 . S
O93 C101 1.258 . S
O94 Co69 1.941 . S
O94 C101 1.266 . S
H95 C97 0.959 . S
H96 C97 0.961 . S
C97 C87 1.510 . S
C97 H95 0.959 . S
C97 H96 0.961 . S
C97 H98 0.960 . S
H98 C97 0.960 . S
H99 N79 0.862 . S
O100 Co68 1.920 . S
O100 C73 1.289 . S
C101 O93 1.258 . S
C101 O94 1.266 . S
Co102 O105 1.970 . S
Co102 N119 1.989 . S
Co102 O127 1.967 . S
Co102 O134 1.920 . S
Co103 O106 1.966 . S
Co103 N112 2.022 . S
Co103 N120 1.993 . S
Co103 O128 1.941 . S
C104 O105 1.258 . S
C104 O106 1.263 . S
O105 Co102 1.970 . S
O105 C104 1.258 . S
O106 Co103 1.966 . S
O106 C104 1.263 . S
C107 O108 1.235 . S
C107 O134 1.289 . S
O108 C107 1.235 . S
C109 C111 1.400 . S
C109 N112 1.351 . S
C109 C114 1.501 . S
C110 C111 1.387 . S
C110 N113 1.341 . S
C111 C109 1.400 . S
C111 C110 1.387 . S
N112 Co103 2.022 . S
N112 C109 1.351 . S
N112 N113 1.365 . S
N113 C110 1.341 . S
N113 N112 1.365 . S
N113 H133 0.862 . S
C114 C109 1.501 . S
C114 H115 0.961 . S
C114 H116 0.961 . S
C114 H117 0.960 . S
H115 C114 0.961 . S
H116 C114 0.961 . S
H117 C114 0.960 . S
C118 N119 1.342 . S
C118 C122 1.401 . S
C118 C123 1.499 . S
N119 Co102 1.989 . S
N119 C118 1.342 . S
N119 N120 1.388 . S
N120 Co103 1.993 . S
N120 N119 1.388 . S
N120 C121 1.346 . S
C121 N120 1.346 . S
C121 C122 1.396 . S
C121 C131 1.510 . S
C122 C118 1.401 . S
C122 C121 1.396 . S
C123 C118 1.499 . S
C123 H124 0.959 . S
C123 H125 0.960 . S
C123 H126 0.961 . S
H124 C123 0.959 . S
H125 C123 0.960 . S
H126 C123 0.961 . S
O127 Co102 1.967 . S
O127 C135 1.258 . S
O128 Co103 1.941 . S
O128 C135 1.266 . S
H129 C131 0.959 . S
H130 C131 0.961 . S
C131 C121 1.510 . S
C131 H129 0.959 . S
C131 H130 0.961 . S
C131 H132 0.960 . S
H132 C131 0.960 . S
H133 N113 0.862 . S
O134 Co102 1.920 . S
O134 C107 1.289 . S
C135 O127 1.258 . S
C135 O128 1.266 . S
Co136 O139 1.970 . S
Co136 N153 1.989 . S
Co136 O161 1.967 . S
Co136 O168 1.920 . S
Co137 O140 1.966 . S
Co137 N146 2.022 . S
Co137 N154 1.993 . S
Co137 O162 1.941 . S
C138 O139 1.258 . S
C138 O140 1.263 . S
O139 Co136 1.970 . S
O139 C138 1.258 . S
O140 Co137 1.966 . S
O140 C138 1.263 . S
C141 O142 1.235 . S
C141 O168 1.289 . S
O142 C141 1.235 . S
C143 C145 1.400 . S
C143 N146 1.351 . S
C143 C148 1.501 . S
C144 C145 1.387 . S
C144 N147 1.341 . S
C145 C143 1.400 . S
C145 C144 1.387 . S
N146 Co137 2.022 . S
N146 C143 1.351 . S
N146 N147 1.365 . S
N147 C144 1.341 . S
N147 N146 1.365 . S
N147 H167 0.862 . S
C148 C143 1.501 . S
C148 H149 0.961 . S
C148 H150 0.961 . S
C148 H151 0.960 . S
H149 C148 0.961 . S
H150 C148 0.961 . S
H151 C148 0.960 . S
C152 N153 1.342 . S
C152 C156 1.401 . S
C152 C157 1.499 . S
N153 Co136 1.989 . S
N153 C152 1.342 . S
N153 N154 1.388 . S
N154 Co137 1.993 . S
N154 N153 1.388 . S
N154 C155 1.346 . S
C155 N154 1.346 . S
C155 C156 1.396 . S
C155 C165 1.510 . S
C156 C152 1.401 . S
C156 C155 1.396 . S
C157 C152 1.499 . S
C157 H158 0.959 . S
C157 H159 0.960 . S
C157 H160 0.961 . S
H158 C157 0.959 . S
H159 C157 0.960 . S
H160 C157 0.961 . S
O161 Co136 1.967 . S
O161 C169 1.258 . S
O162 Co137 1.941 . S
O162 C169 1.266 . S
H163 C165 0.959 . S
H164 C165 0.961 . S
C165 C155 1.510 . S
C165 H163 0.959 . S
C165 H164 0.961 . S
C165 H166 0.960 . S
H166 C165 0.960 . S
H167 N147 0.862 . S
O168 Co136 1.920 . S
O168 C141 1.289 . S
C169 O161 1.258 . S
C169 O162 1.266 . S
Co170 O173 1.970 . S
Co170 N187 1.989 . S
Co170 O195 1.967 . S
Co170 O202 1.920 . S
Co171 O174 1.966 . S
Co171 N180 2.022 . S
Co171 N188 1.993 . S
Co171 O196 1.941 . S
C172 O173 1.258 . S
C172 O174 1.263 . S
O173 Co170 1.970 . S
O173 C172 1.258 . S
O174 Co171 1.966 . S
O174 C172 1.263 . S
C175 O176 1.235 . S
C175 O202 1.289 . S
O176 C175 1.235 . S
C177 C179 1.400 . S
C177 N180 1.351 . S
C177 C182 1.501 . S
C178 C179 1.387 . S
C178 N181 1.341 . S
C179 C177 1.400 . S
C179 C178 1.387 . S
N180 Co171 2.022 . S
N180 C177 1.351 . S
N180 N181 1.365 . S
N181 C178 1.341 . S
N181 N180 1.365 . S
N181 H201 0.862 . S
C182 C177 1.501 . S
C182 H183 0.961 . S
C182 H184 0.961 . S
C182 H185 0.960 . S
H183 C182 0.961 . S
H184 C182 0.961 . S
H185 C182 0.960 . S
C186 N187 1.342 . S
C186 C190 1.401 . S
C186 C191 1.499 . S
N187 Co170 1.989 . S
N187 C186 1.342 . S
N187 N188 1.388 . S
N188 Co171 1.993 . S
N188 N187 1.388 . S
N188 C189 1.346 . S
C189 N188 1.346 . S
C189 C190 1.396 . S
C189 C199 1.510 . S
C190 C186 1.401 . S
C190 C189 1.396 . S
C191 C186 1.499 . S
C191 H192 0.959 . S
C191 H193 0.960 . S
C191 H194 0.961 . S
H192 C191 0.959 . S
H193 C191 0.960 . S
H194 C191 0.961 . S
O195 Co170 1.967 . S
O195 C203 1.258 . S
O196 Co171 1.941 . S
O196 C203 1.266 . S
H197 C199 0.959 . S
H198 C199 0.961 . S
C199 C189 1.510 . S
C199 H197 0.959 . S
C199 H198 0.961 . S
C199 H200 0.960 . S
H200 C199 0.960 . S
H201 N181 0.862 . S
O202 Co170 1.920 . S
O202 C175 1.289 . S
C203 O195 1.258 . S
C203 O196 1.266 . S
Co204 O207 1.970 . S
Co204 N221 1.989 . S
Co204 O229 1.967 . S
Co204 O236 1.920 . S
Co205 O208 1.966 . S
Co205 N214 2.022 . S
Co205 N222 1.993 . S
Co205 O230 1.941 . S
C206 O207 1.258 . S
C206 O208 1.263 . S
O207 Co204 1.970 . S
O207 C206 1.258 . S
O208 Co205 1.966 . S
O208 C206 1.263 . S
C209 O210 1.235 . S
C209 O236 1.289 . S
O210 C209 1.235 . S
C211 C213 1.400 . S
C211 N214 1.351 . S
C211 C216 1.501 . S
C212 C213 1.387 . S
C212 N215 1.341 . S
C213 C211 1.400 . S
C213 C212 1.387 . S
N214 Co205 2.022 . S
N214 C211 1.351 . S
N214 N215 1.365 . S
N215 C212 1.341 . S
N215 N214 1.365 . S
N215 H235 0.862 . S
C216 C211 1.501 . S
C216 H217 0.961 . S
C216 H218 0.961 . S
C216 H219 0.960 . S
H217 C216 0.961 . S
H218 C216 0.961 . S
H219 C216 0.960 . S
C220 N221 1.342 . S
C220 C224 1.401 . S
C220 C225 1.499 . S
N221 Co204 1.989 . S
N221 C220 1.342 . S
N221 N222 1.388 . S
N222 Co205 1.993 . S
N222 N221 1.388 . S
N222 C223 1.346 . S
C223 N222 1.346 . S
C223 C224 1.396 . S
C223 C233 1.510 . S
C224 C220 1.401 . S
C224 C223 1.396 . S
C225 C220 1.499 . S
C225 H226 0.959 . S
C225 H227 0.960 . S
C225 H228 0.961 . S
H226 C225 0.959 . S
H227 C225 0.960 . S
H228 C225 0.961 . S
O229 Co204 1.967 . S
O229 C237 1.258 . S
O230 Co205 1.941 . S
O230 C237 1.266 . S
H231 C233 0.959 . S
H232 C233 0.961 . S
C233 C223 1.510 . S
C233 H231 0.959 . S
C233 H232 0.961 . S
C233 H234 0.960 . S
H234 C233 0.960 . S
H235 N215 0.862 . S
O236 Co204 1.920 . S
O236 C209 1.289 . S
C237 O229 1.258 . S
C237 O230 1.266 . S
Co238 O241 1.970 . S
Co238 N255 1.989 . S
Co238 O263 1.967 . S
Co238 O270 1.920 . S
Co239 O242 1.966 . S
Co239 N248 2.022 . S
Co239 N256 1.993 . S
Co239 O264 1.941 . S
C240 O241 1.258 . S
C240 O242 1.263 . S
O241 Co238 1.970 . S
O241 C240 1.258 . S
O242 Co239 1.966 . S
O242 C240 1.263 . S
C243 O244 1.235 . S
C243 O270 1.289 . S
O244 C243 1.235 . S
C245 C247 1.400 . S
C245 N248 1.351 . S
C245 C250 1.501 . S
C246 C247 1.387 . S
C246 N249 1.341 . S
C247 C245 1.400 . S
C247 C246 1.387 . S
N248 Co239 2.022 . S
N248 C245 1.351 . S
N248 N249 1.365 . S
N249 C246 1.341 . S
N249 N248 1.365 . S
N249 H269 0.862 . S
C250 C245 1.501 . S
C250 H251 0.961 . S
C250 H252 0.961 . S
C250 H253 0.960 . S
H251 C250 0.961 . S
H252 C250 0.961 . S
H253 C250 0.960 . S
C254 N255 1.342 . S
C254 C258 1.401 . S
C254 C259 1.499 . S
N255 Co238 1.989 . S
N255 C254 1.342 . S
N255 N256 1.388 . S
N256 Co239 1.993 . S
N256 N255 1.388 . S
N256 C257 1.346 . S
C257 N256 1.346 . S
C257 C258 1.396 . S
C257 C267 1.510 . S
C258 C254 1.401 . S
C258 C257 1.396 . S
C259 C254 1.499 . S
C259 H260 0.959 . S
C259 H261 0.960 . S
C259 H262 0.961 . S
H260 C259 0.959 . S
H261 C259 0.960 . S
H262 C259 0.961 . S
O263 Co238 1.967 . S
O263 C271 1.258 . S
O264 Co239 1.941 . S
O264 C271 1.266 . S
H265 C267 0.959 . S
H266 C267 0.961 . S
C267 C257 1.510 . S
C267 H265 0.959 . S
C267 H266 0.961 . S
C267 H268 0.960 . S
H268 C267 0.960 . S
H269 N249 0.862 . S
O270 Co238 1.920 . S
O270 C243 1.289 . S
C271 O263 1.258 . S
C271 O264 1.266 . S
Co272 O275 1.970 . S
Co272 N289 1.989 . S
Co272 O297 1.967 . S
Co272 O304 1.920 . S
Co273 O276 1.966 . S
Co273 N282 2.022 . S
Co273 N290 1.993 . S
Co273 O298 1.941 . S
C274 O275 1.258 . S
C274 O276 1.263 . S
O275 Co272 1.970 . S
O275 C274 1.258 . S
O276 Co273 1.966 . S
O276 C274 1.263 . S
C277 O278 1.235 . S
C277 O304 1.289 . S
O278 C277 1.235 . S
C279 C281 1.400 . S
C279 N282 1.351 . S
C279 C284 1.501 . S
C280 C281 1.387 . S
C280 N283 1.341 . S
C281 C279 1.400 . S
C281 C280 1.387 . S
N282 Co273 2.022 . S
N282 C279 1.351 . S
N282 N283 1.365 . S
N283 C280 1.341 . S
N283 N282 1.365 . S
N283 H303 0.862 . S
C284 C279 1.501 . S
C284 H285 0.961 . S
C284 H286 0.961 . S
C284 H287 0.960 . S
H285 C284 0.961 . S
H286 C284 0.961 . S
H287 C284 0.960 . S
C288 N289 1.342 . S
C288 C292 1.401 . S
C288 C293 1.499 . S
N289 Co272 1.989 . S
N289 C288 1.342 . S
N289 N290 1.388 . S
N290 Co273 1.993 . S
N290 N289 1.388 . S
N290 C291 1.346 . S
C291 N290 1.346 . S
C291 C292 1.396 . S
C291 C301 1.510 . S
C292 C288 1.401 . S
C292 C291 1.396 . S
C293 C288 1.499 . S
C293 H294 0.959 . S
C293 H295 0.960 . S
C293 H296 0.961 . S
H294 C293 0.959 . S
H295 C293 0.960 . S
H296 C293 0.961 . S
O297 Co272 1.967 . S
O297 C305 1.258 . S
O298 Co273 1.941 . S
O298 C305 1.266 . S
H299 C301 0.959 . S
H300 C301 0.961 . S
C301 C291 1.510 . S
C301 H299 0.959 . S
C301 H300 0.961 . S
C301 H302 0.960 . S
H302 C301 0.960 . S
H303 N283 0.862 . S
O304 Co272 1.920 . S
O304 C277 1.289 . S
C305 O297 1.258 . S
C305 O298 1.266 . S
Co306 O309 1.970 . S
Co306 N323 1.989 . S
Co306 O331 1.967 . S
Co306 O338 1.920 . S
Co307 O310 1.966 . S
Co307 N316 2.022 . S
Co307 N324 1.993 . S
Co307 O332 1.941 . S
C308 O309 1.258 . S
C308 O310 1.263 . S
O309 Co306 1.970 . S
O309 C308 1.258 . S
O310 Co307 1.966 . S
O310 C308 1.263 . S
C311 O312 1.235 . S
C311 O338 1.289 . S
O312 C311 1.235 . S
C313 C315 1.400 . S
C313 N316 1.351 . S
C313 C318 1.501 . S
C314 C315 1.387 . S
C314 N317 1.341 . S
C315 C313 1.400 . S
C315 C314 1.387 . S
N316 Co307 2.022 . S
N316 C313 1.351 . S
N316 N317 1.365 . S
N317 C314 1.341 . S
N317 N316 1.365 . S
N317 H337 0.862 . S
C318 C313 1.501 . S
C318 H319 0.961 . S
C318 H320 0.961 . S
C318 H321 0.960 . S
H319 C318 0.961 . S
H320 C318 0.961 . S
H321 C318 0.960 . S
C322 N323 1.342 . S
C322 C326 1.401 . S
C322 C327 1.499 . S
N323 Co306 1.989 . S
N323 C322 1.342 . S
N323 N324 1.388 . S
N324 Co307 1.993 . S
N324 N323 1.388 . S
N324 C325 1.346 . S
C325 N324 1.346 . S
C325 C326 1.396 . S
C325 C335 1.510 . S
C326 C322 1.401 . S
C326 C325 1.396 . S
C327 C322 1.499 . S
C327 H328 0.959 . S
C327 H329 0.960 . S
C327 H330 0.961 . S
H328 C327 0.959 . S
H329 C327 0.960 . S
H330 C327 0.961 . S
O331 Co306 1.967 . S
O331 C339 1.258 . S
O332 Co307 1.941 . S
O332 C339 1.266 . S
H333 C335 0.959 . S
H334 C335 0.961 . S
C335 C325 1.510 . S
C335 H333 0.959 . S
C335 H334 0.961 . S
C335 H336 0.960 . S
H336 C335 0.960 . S
H337 N317 0.862 . S
O338 Co306 1.920 . S
O338 C311 1.289 . S
C339 O331 1.258 . S
C339 O332 1.266 . S
Co340 O343 1.970 . S
Co340 N357 1.989 . S
Co340 O365 1.967 . S
Co340 O372 1.920 . S
Co341 O344 1.966 . S
Co341 N350 2.022 . S
Co341 N358 1.993 . S
Co341 O366 1.941 . S
C342 O343 1.258 . S
C342 O344 1.263 . S
O343 Co340 1.970 . S
O343 C342 1.258 . S
O344 Co341 1.966 . S
O344 C342 1.263 . S
C345 O346 1.235 . S
C345 O372 1.289 . S
O346 C345 1.235 . S
C347 C349 1.400 . S
C347 N350 1.351 . S
C347 C352 1.501 . S
C348 C349 1.387 . S
C348 N351 1.341 . S
C349 C347 1.400 . S
C349 C348 1.387 . S
N350 Co341 2.022 . S
N350 C347 1.351 . S
N350 N351 1.365 . S
N351 C348 1.341 . S
N351 N350 1.365 . S
N351 H371 0.862 . S
C352 C347 1.501 . S
C352 H353 0.961 . S
C352 H354 0.961 . S
C352 H355 0.960 . S
H353 C352 0.961 . S
H354 C352 0.961 . S
H355 C352 0.960 . S
C356 N357 1.342 . S
C356 C360 1.401 . S
C356 C361 1.499 . S
N357 Co340 1.989 . S
N357 C356 1.342 . S
N357 N358 1.388 . S
N358 Co341 1.993 . S
N358 N357 1.388 . S
N358 C359 1.346 . S
C359 N358 1.346 . S
C359 C360 1.396 . S
C359 C369 1.510 . S
C360 C356 1.401 . S
C360 C359 1.396 . S
C361 C356 1.499 . S
C361 H362 0.959 . S
C361 H363 0.960 . S
C361 H364 0.961 . S
H362 C361 0.959 . S
H363 C361 0.960 . S
H364 C361 0.961 . S
O365 Co340 1.967 . S
O365 C373 1.258 . S
O366 Co341 1.941 . S
O366 C373 1.266 . S
H367 C369 0.959 . S
H368 C369 0.961 . S
C369 C359 1.510 . S
C369 H367 0.959 . S
C369 H368 0.961 . S
C369 H370 0.960 . S
H370 C369 0.960 . S
H371 N351 0.862 . S
O372 Co340 1.920 . S
O372 C345 1.289 . S
C373 O365 1.258 . S
C373 O366 1.266 . S
Co374 O377 1.970 . S
Co374 N391 1.989 . S
Co374 O399 1.967 . S
Co374 O406 1.920 . S
Co375 O378 1.966 . S
Co375 N384 2.022 . S
Co375 N392 1.993 . S
Co375 O400 1.941 . S
C376 O377 1.258 . S
C376 O378 1.263 . S
O377 Co374 1.970 . S
O377 C376 1.258 . S
O378 Co375 1.966 . S
O378 C376 1.263 . S
C379 O380 1.235 . S
C379 O406 1.289 . S
O380 C379 1.235 . S
C381 C383 1.400 . S
C381 N384 1.351 . S
C381 C386 1.501 . S
C382 C383 1.387 . S
C382 N385 1.341 . S
C383 C381 1.400 . S
C383 C382 1.387 . S
N384 Co375 2.022 . S
N384 C381 1.351 . S
N384 N385 1.365 . S
N385 C382 1.341 . S
N385 N384 1.365 . S
N385 H405 0.862 . S
C386 C381 1.501 . S
C386 H387 0.961 . S
C386 H388 0.961 . S
C386 H389 0.960 . S
H387 C386 0.961 . S
H388 C386 0.961 . S
H389 C386 0.960 . S
C390 N391 1.342 . S
C390 C394 1.401 . S
C390 C395 1.499 . S
N391 Co374 1.989 . S
N391 C390 1.342 . S
N391 N392 1.388 . S
N392 Co375 1.993 . S
N392 N391 1.388 . S
N392 C393 1.346 . S
C393 N392 1.346 . S
C393 C394 1.396 . S
C393 C403 1.510 . S
C394 C390 1.401 . S
C394 C393 1.396 . S
C395 C390 1.499 . S
C395 H396 0.959 . S
C395 H397 0.960 . S
C395 H398 0.961 . S
H396 C395 0.959 . S
H397 C395 0.960 . S
H398 C395 0.961 . S
O399 Co374 1.967 . S
O399 C407 1.258 . S
O400 Co375 1.941 . S
O400 C407 1.266 . S
H401 C403 0.959 . S
H402 C403 0.961 . S
C403 C393 1.510 . S
C403 H401 0.959 . S
C403 H402 0.961 . S
C403 H404 0.960 . S
H404 C403 0.960 . S
H405 N385 0.862 . S
O406 Co374 1.920 . S
O406 C379 1.289 . S
C407 O399 1.258 . S
C407 O400 1.266 . S
Co408 O411 1.970 . S
Co408 N425 1.989 . S
Co408 O433 1.967 . S
Co408 O440 1.920 . S
Co409 O412 1.966 . S
Co409 N418 2.022 . S
Co409 N426 1.993 . S
Co409 O434 1.941 . S
C410 O411 1.258 . S
C410 O412 1.263 . S
O411 Co408 1.970 . S
O411 C410 1.258 . S
O412 Co409 1.966 . S
O412 C410 1.263 . S
C413 O414 1.235 . S
C413 O440 1.289 . S
O414 C413 1.235 . S
C415 C417 1.400 . S
C415 N418 1.351 . S
C415 C420 1.501 . S
C416 C417 1.387 . S
C416 N419 1.341 . S
C417 C415 1.400 . S
C417 C416 1.387 . S
N418 Co409 2.022 . S
N418 C415 1.351 . S
N418 N419 1.365 . S
N419 C416 1.341 . S
N419 N418 1.365 . S
N419 H439 0.862 . S
C420 C415 1.501 . S
C420 H421 0.961 . S
C420 H422 0.961 . S
C420 H423 0.960 . S
H421 C420 0.961 . S
H422 C420 0.961 . S
H423 C420 0.960 . S
C424 N425 1.342 . S
C424 C428 1.401 . S
C424 C429 1.499 . S
N425 Co408 1.989 . S
N425 C424 1.342 . S
N425 N426 1.388 . S
N426 Co409 1.993 . S
N426 N425 1.388 . S
N426 C427 1.346 . S
C427 N426 1.346 . S
C427 C428 1.396 . S
C427 C437 1.510 . S
C428 C424 1.401 . S
C428 C427 1.396 . S
C429 C424 1.499 . S
C429 H430 0.959 . S
C429 H431 0.960 . S
C429 H432 0.961 . S
H430 C429 0.959 . S
H431 C429 0.960 . S
H432 C429 0.961 . S
O433 Co408 1.967 . S
O433 C441 1.258 . S
O434 Co409 1.941 . S
O434 C441 1.266 . S
H435 C437 0.959 . S
H436 C437 0.961 . S
C437 C427 1.510 . S
C437 H435 0.959 . S
C437 H436 0.961 . S
C437 H438 0.960 . S
H438 C437 0.960 . S
H439 N419 0.862 . S
O440 Co408 1.920 . S
O440 C413 1.289 . S
C441 O433 1.258 . S
C441 O434 1.266 . S
Co442 O445 1.970 . S
Co442 N459 1.989 . S
Co442 O467 1.967 . S
Co442 O474 1.920 . S
Co443 O446 1.966 . S
Co443 N452 2.022 . S
Co443 N460 1.993 . S
Co443 O468 1.941 . S
C444 O445 1.258 . S
C444 O446 1.263 . S
O445 Co442 1.970 . S
O445 C444 1.258 . S
O446 Co443 1.966 . S
O446 C444 1.263 . S
C447 O448 1.235 . S
C447 O474 1.289 . S
O448 C447 1.235 . S
C449 C451 1.400 . S
C449 N452 1.351 . S
C449 C454 1.501 . S
C450 C451 1.387 . S
C450 N453 1.341 . S
C451 C449 1.400 . S
C451 C450 1.387 . S
N452 Co443 2.022 . S
N452 C449 1.351 . S
N452 N453 1.365 . S
N453 C450 1.341 . S
N453 N452 1.365 . S
N453 H473 0.862 . S
C454 C449 1.501 . S
C454 H455 0.961 . S
C454 H456 0.961 . S
C454 H457 0.960 . S
H455 C454 0.961 . S
H456 C454 0.961 . S
H457 C454 0.960 . S
C458 N459 1.342 . S
C458 C462 1.401 . S
C458 C463 1.499 . S
N459 Co442 1.989 . S
N459 C458 1.342 . S
N459 N460 1.388 . S
N460 Co443 1.993 . S
N460 N459 1.388 . S
N460 C461 1.346 . S
C461 N460 1.346 . S
C461 C462 1.396 . S
C461 C471 1.510 . S
C462 C458 1.401 . S
C462 C461 1.396 . S
C463 C458 1.499 . S
C463 H464 0.959 . S
C463 H465 0.960 . S
C463 H466 0.961 . S
H464 C463 0.959 . S
H465 C463 0.960 . S
H466 C463 0.961 . S
O467 Co442 1.967 . S
O467 C475 1.258 . S
O468 Co443 1.941 . S
O468 C475 1.266 . S
H469 C471 0.959 . S
H470 C471 0.961 . S
C471 C461 1.510 . S
C471 H469 0.959 . S
C471 H470 0.961 . S
C471 H472 0.960 . S
H472 C471 0.960 . S
H473 N453 0.862 . S
O474 Co442 1.920 . S
O474 C447 1.289 . S
C475 O467 1.258 . S
C475 O468 1.266 . S
Co476 O479 1.970 . S
Co476 N493 1.989 . S
Co476 O501 1.967 . S
Co476 O508 1.920 . S
Co477 O480 1.966 . S
Co477 N486 2.022 . S
Co477 N494 1.993 . S
Co477 O502 1.941 . S
C478 O479 1.258 . S
C478 O480 1.263 . S
O479 Co476 1.970 . S
O479 C478 1.258 . S
O480 Co477 1.966 . S
O480 C478 1.263 . S
C481 O482 1.235 . S
C481 O508 1.289 . S
O482 C481 1.235 . S
C483 C485 1.400 . S
C483 N486 1.351 . S
C483 C488 1.501 . S
C484 C485 1.387 . S
C484 N487 1.341 . S
C485 C483 1.400 . S
C485 C484 1.387 . S
N486 Co477 2.022 . S
N486 C483 1.351 . S
N486 N487 1.365 . S
N487 C484 1.341 . S
N487 N486 1.365 . S
N487 H507 0.862 . S
C488 C483 1.501 . S
C488 H489 0.961 . S
C488 H490 0.961 . S
C488 H491 0.960 . S
H489 C488 0.961 . S
H490 C488 0.961 . S
H491 C488 0.960 . S
C492 N493 1.342 . S
C492 C496 1.401 . S
C492 C497 1.499 . S
N493 Co476 1.989 . S
N493 C492 1.342 . S
N493 N494 1.388 . S
N494 Co477 1.993 . S
N494 N493 1.388 . S
N494 C495 1.346 . S
C495 N494 1.346 . S
C495 C496 1.396 . S
C495 C505 1.510 . S
C496 C492 1.401 . S
C496 C495 1.396 . S
C497 C492 1.499 . S
C497 H498 0.959 . S
C497 H499 0.960 . S
C497 H500 0.961 . S
H498 C497 0.959 . S
H499 C497 0.960 . S
H500 C497 0.961 . S
O501 Co476 1.967 . S
O501 C509 1.258 . S
O502 Co477 1.941 . S
O502 C509 1.266 . S
H503 C505 0.959 . S
H504 C505 0.961 . S
C505 C495 1.510 . S
C505 H503 0.959 . S
C505 H504 0.961 . S
C505 H506 0.960 . S
H506 C505 0.960 . S
H507 N487 0.862 . S
O508 Co476 1.920 . S
O508 C481 1.289 . S
C509 O501 1.258 . S
C509 O502 1.266 . S
Co510 O513 1.970 . S
Co510 N527 1.989 . S
Co510 O535 1.967 . S
Co510 O542 1.920 . S
Co511 O514 1.966 . S
Co511 N520 2.022 . S
Co511 N528 1.993 . S
Co511 O536 1.941 . S
C512 O513 1.258 . S
C512 O514 1.263 . S
O513 Co510 1.970 . S
O513 C512 1.258 . S
O514 Co511 1.966 . S
O514 C512 1.263 . S
C515 O516 1.235 . S
C515 O542 1.289 . S
O516 C515 1.235 . S
C517 C519 1.400 . S
C517 N520 1.351 . S
C517 C522 1.501 . S
C518 C519 1.387 . S
C518 N521 1.341 . S
C519 C517 1.400 . S
C519 C518 1.387 . S
N520 Co511 2.022 . S
N520 C517 1.351 . S
N520 N521 1.365 . S
N521 C518 1.341 . S
N521 N520 1.365 . S
N521 H541 0.862 . S
C522 C517 1.501 . S
C522 H523 0.961 . S
C522 H524 0.961 . S
C522 H525 0.960 . S
H523 C522 0.961 . S
H524 C522 0.961 . S
H525 C522 0.960 . S
C526 N527 1.342 . S
C526 C530 1.401 . S
C526 C531 1.499 . S
N527 Co510 1.989 . S
N527 C526 1.342 . S
N527 N528 1.388 . S
N528 Co511 1.993 . S
N528 N527 1.388 . S
N528 C529 1.346 . S
C529 N528 1.346 . S
C529 C530 1.396 . S
C529 C539 1.510 . S
C530 C526 1.401 . S
C530 C529 1.396 . S
C531 C526 1.499 . S
C531 H532 0.959 . S
C531 H533 0.960 . S
C531 H534 0.961 . S
H532 C531 0.959 . S
H533 C531 0.960 . S
H534 C531 0.961 . S
O535 Co510 1.967 . S
O535 C543 1.258 . S
O536 Co511 1.941 . S
O536 C543 1.266 . S
H537 C539 0.959 . S
H538 C539 0.961 . S
C539 C529 1.510 . S
C539 H537 0.959 . S
C539 H538 0.961 . S
C539 H540 0.960 . S
H540 C539 0.960 . S
H541 N521 0.862 . S
O542 Co510 1.920 . S
O542 C515 1.289 . S
C543 O535 1.258 . S
C543 O536 1.266 . S
H544 C556 0.930 . S
H545 C558 0.930 . S
H546 C559 0.930 . S
H547 C563 0.959 . S
H548 C563 0.959 . S
H549 C563 0.961 . S
H550 C564 0.960 . S
H551 C564 0.961 . S
H552 C564 0.959 . S
H553 C567 0.929 . S
H554 C568 0.931 . S
H555 C570 0.930 . S
C556 H544 0.930 . S
C556 C557 1.399 . S
C556 C561 1.399 . S
C557 C556 1.399 . S
C557 C558 1.376 . S
C558 H545 0.930 . S
C558 C557 1.376 . S
C558 C559 1.388 . S
C559 H546 0.930 . S
C559 C558 1.388 . S
C559 C560 1.390 . S
C560 C559 1.390 . S
C560 C561 1.394 . S
C560 C566 1.465 . S
C561 C556 1.399 . S
C561 C560 1.394 . S
C561 C562 1.516 . S
C562 C561 1.516 . S
C562 C563 1.502 . S
C562 C564 1.561 . S
C562 C565 1.526 . S
C563 H547 0.959 . S
C563 H548 0.959 . S
C563 H549 0.961 . S
C563 C562 1.502 . S
C564 H550 0.960 . S
C564 H551 0.961 . S
C564 H552 0.959 . S
C564 C562 1.561 . S
C565 C562 1.526 . S
C565 C566 1.396 . S
C565 C570 1.390 . S
C566 C560 1.465 . S
C566 C565 1.396 . S
C566 C567 1.399 . S
C567 H553 0.929 . S
C567 C566 1.399 . S
C567 C568 1.385 . S
C568 H554 0.931 . S
C568 C567 1.385 . S
C568 C569 1.389 . S
C569 C568 1.389 . S
C569 C570 1.387 . S
C570 H555 0.930 . S
C570 C565 1.390 . S
C570 C569 1.387 . S
H571 C583 0.930 . S
H572 C585 0.930 . S
H573 C586 0.930 . S
H574 C590 0.959 . S
H575 C590 0.959 . S
H576 C590 0.961 . S
H577 C591 0.960 . S
H578 C591 0.961 . S
H579 C591 0.959 . S
H580 C594 0.929 . S
H581 C595 0.931 . S
H582 C597 0.930 . S
C583 H571 0.930 . S
C583 C584 1.399 . S
C583 C588 1.399 . S
C584 C583 1.399 . S
C584 C585 1.376 . S
C585 H572 0.930 . S
C585 C584 1.376 . S
C585 C586 1.388 . S
C586 H573 0.930 . S
C586 C585 1.388 . S
C586 C587 1.390 . S
C587 C586 1.390 . S
C587 C588 1.394 . S
C587 C593 1.465 . S
C588 C583 1.399 . S
C588 C587 1.394 . S
C588 C589 1.516 . S
C589 C588 1.516 . S
C589 C590 1.502 . S
C589 C591 1.561 . S
C589 C592 1.526 . S
C590 H574 0.959 . S
C590 H575 0.959 . S
C590 H576 0.961 . S
C590 C589 1.502 . S
C591 H577 0.960 . S
C591 H578 0.961 . S
C591 H579 0.959 . S
C591 C589 1.561 . S
C592 C589 1.526 . S
C592 C593 1.396 . S
C592 C597 1.390 . S
C593 C587 1.465 . S
C593 C592 1.396 . S
C593 C594 1.399 . S
C594 H580 0.929 . S
C594 C593 1.399 . S
C594 C595 1.385 . S
C595 H581 0.931 . S
C595 C594 1.385 . S
C595 C596 1.389 . S
C596 C595 1.389 . S
C596 C597 1.387 . S
C597 H582 0.930 . S
C597 C592 1.390 . S
C597 C596 1.387 . S
H598 C610 0.930 . S
H599 C612 0.930 . S
H600 C613 0.930 . S
H601 C617 0.959 . S
H602 C617 0.959 . S
H603 C617 0.961 . S
H604 C618 0.960 . S
H605 C618 0.961 . S
H606 C618 0.959 . S
H607 C621 0.929 . S
H608 C622 0.931 . S
H609 C624 0.930 . S
C610 H598 0.930 . S
C610 C611 1.399 . S
C610 C615 1.399 . S
C611 C610 1.399 . S
C611 C612 1.376 . S
C612 H599 0.930 . S
C612 C611 1.376 . S
C612 C613 1.388 . S
C613 H600 0.930 . S
C613 C612 1.388 . S
C613 C614 1.390 . S
C614 C613 1.390 . S
C614 C615 1.394 . S
C614 C620 1.465 . S
C615 C610 1.399 . S
C615 C614 1.394 . S
C615 C616 1.516 . S
C616 C615 1.516 . S
C616 C617 1.502 . S
C616 C618 1.561 . S
C616 C619 1.526 . S
C617 H601 0.959 . S
C617 H602 0.959 . S
C617 H603 0.961 . S
C617 C616 1.502 . S
C618 H604 0.960 . S
C618 H605 0.961 . S
C618 H606 0.959 . S
C618 C616 1.561 . S
C619 C616 1.526 . S
C619 C620 1.396 . S
C619 C624 1.390 . S
C620 C614 1.465 . S
C620 C619 1.396 . S
C620 C621 1.399 . S
C621 H607 0.929 . S
C621 C620 1.399 . S
C621 C622 1.385 . S
C622 H608 0.931 . S
C622 C621 1.385 . S
C622 C623 1.389 . S
C623 C622 1.389 . S
C623 C624 1.387 . S
C624 H609 0.930 . S
C624 C619 1.390 . S
C624 C623 1.387 . S
H625 C637 0.930 . S
H626 C639 0.930 . S
H627 C640 0.930 . S
H628 C644 0.959 . S
H629 C644 0.959 . S
H630 C644 0.961 . S
H631 C645 0.960 . S
H632 C645 0.961 . S
H633 C645 0.959 . S
H634 C648 0.929 . S
H635 C649 0.931 . S
H636 C651 0.930 . S
C637 H625 0.930 . S
C637 C638 1.399 . S
C637 C642 1.399 . S
C638 C637 1.399 . S
C638 C639 1.376 . S
C639 H626 0.930 . S
C639 C638 1.376 . S
C639 C640 1.388 . S
C640 H627 0.930 . S
C640 C639 1.388 . S
C640 C641 1.390 . S
C641 C640 1.390 . S
C641 C642 1.394 . S
C641 C647 1.465 . S
C642 C637 1.399 . S
C642 C641 1.394 . S
C642 C643 1.516 . S
C643 C642 1.516 . S
C643 C644 1.502 . S
C643 C645 1.561 . S
C643 C646 1.526 . S
C644 H628 0.959 . S
C644 H629 0.959 . S
C644 H630 0.961 . S
C644 C643 1.502 . S
C645 H631 0.960 . S
C645 H632 0.961 . S
C645 H633 0.959 . S
C645 C643 1.561 . S
C646 C643 1.526 . S
C646 C647 1.396 . S
C646 C651 1.390 . S
C647 C641 1.465 . S
C647 C646 1.396 . S
C647 C648 1.399 . S
C648 H634 0.929 . S
C648 C647 1.399 . S
C648 C649 1.385 . S
C649 H635 0.931 . S
C649 C648 1.385 . S
C649 C650 1.389 . S
C650 C649 1.389 . S
C650 C651 1.387 . S
C651 H636 0.930 . S
C651 C646 1.390 . S
C651 C650 1.387 . S
H652 C664 0.930 . S
H653 C666 0.930 . S
H654 C667 0.930 . S
H655 C671 0.959 . S
H656 C671 0.959 . S
H657 C671 0.961 . S
H658 C672 0.960 . S
H659 C672 0.961 . S
H660 C672 0.959 . S
H661 C675 0.929 . S
H662 C676 0.931 . S
H663 C678 0.930 . S
C664 H652 0.930 . S
C664 C665 1.399 . S
C664 C669 1.399 . S
C665 C664 1.399 . S
C665 C666 1.376 . S
C666 H653 0.930 . S
C666 C665 1.376 . S
C666 C667 1.388 . S
C667 H654 0.930 . S
C667 C666 1.388 . S
C667 C668 1.390 . S
C668 C667 1.390 . S
C668 C669 1.394 . S
C668 C674 1.465 . S
C669 C664 1.399 . S
C669 C668 1.394 . S
C669 C670 1.516 . S
C670 C669 1.516 . S
C670 C671 1.502 . S
C670 C672 1.561 . S
C670 C673 1.526 . S
C671 H655 0.959 . S
C671 H656 0.959 . S
C671 H657 0.961 . S
C671 C670 1.502 . S
C672 H658 0.960 . S
C672 H659 0.961 . S
C672 H660 0.959 . S
C672 C670 1.561 . S
C673 C670 1.526 . S
C673 C674 1.396 . S
C673 C678 1.390 . S
C674 C668 1.465 . S
C674 C673 1.396 . S
C674 C675 1.399 . S
C675 H661 0.929 . S
C675 C674 1.399 . S
C675 C676 1.385 . S
C676 H662 0.931 . S
C676 C675 1.385 . S
C676 C677 1.389 . S
C677 C676 1.389 . S
C677 C678 1.387 . S
C678 H663 0.930 . S
C678 C673 1.390 . S
C678 C677 1.387 . S
H679 C691 0.930 . S
H680 C693 0.930 . S
H681 C694 0.930 . S
H682 C698 0.959 . S
H683 C698 0.959 . S
H684 C698 0.961 . S
H685 C699 0.960 . S
H686 C699 0.961 . S
H687 C699 0.959 . S
H688 C702 0.929 . S
H689 C703 0.931 . S
H690 C705 0.930 . S
C691 H679 0.930 . S
C691 C692 1.399 . S
C691 C696 1.399 . S
C692 C691 1.399 . S
C692 C693 1.376 . S
C693 H680 0.930 . S
C693 C692 1.376 . S
C693 C694 1.388 . S
C694 H681 0.930 . S
C694 C693 1.388 . S
C694 C695 1.390 . S
C695 C694 1.390 . S
C695 C696 1.394 . S
C695 C701 1.465 . S
C696 C691 1.399 . S
C696 C695 1.394 . S
C696 C697 1.516 . S
C697 C696 1.516 . S
C697 C698 1.502 . S
C697 C699 1.561 . S
C697 C700 1.526 . S
C698 H682 0.959 . S
C698 H683 0.959 . S
C698 H684 0.961 . S
C698 C697 1.502 . S
C699 H685 0.960 . S
C699 H686 0.961 . S
C699 H687 0.959 . S
C699 C697 1.561 . S
C700 C697 1.526 . S
C700 C701 1.396 . S
C700 C705 1.390 . S
C701 C695 1.465 . S
C701 C700 1.396 . S
C701 C702 1.399 . S
C702 H688 0.929 . S
C702 C701 1.399 . S
C702 C703 1.385 . S
C703 H689 0.931 . S
C703 C702 1.385 . S
C703 C704 1.389 . S
C704 C703 1.389 . S
C704 C705 1.387 . S
C705 H690 0.930 . S
C705 C700 1.390 . S
C705 C704 1.387 . S
H706 C718 0.930 . S
H707 C720 0.930 . S
H708 C721 0.930 . S
H709 C725 0.959 . S
H710 C725 0.959 . S
H711 C725 0.961 . S
H712 C726 0.960 . S
H713 C726 0.961 . S
H714 C726 0.959 . S
H715 C729 0.929 . S
H716 C730 0.931 . S
H717 C732 0.930 . S
C718 H706 0.930 . S
C718 C719 1.399 . S
C718 C723 1.399 . S
C719 C718 1.399 . S
C719 C720 1.376 . S
C720 H707 0.930 . S
C720 C719 1.376 . S
C720 C721 1.388 . S
C721 H708 0.930 . S
C721 C720 1.388 . S
C721 C722 1.390 . S
C722 C721 1.390 . S
C722 C723 1.394 . S
C722 C728 1.465 . S
C723 C718 1.399 . S
C723 C722 1.394 . S
C723 C724 1.516 . S
C724 C723 1.516 . S
C724 C725 1.502 . S
C724 C726 1.561 . S
C724 C727 1.526 . S
C725 H709 0.959 . S
C725 H710 0.959 . S
C725 H711 0.961 . S
C725 C724 1.502 . S
C726 H712 0.960 . S
C726 H713 0.961 . S
C726 H714 0.959 . S
C726 C724 1.561 . S
C727 C724 1.526 . S
C727 C728 1.396 . S
C727 C732 1.390 . S
C728 C722 1.465 . S
C728 C727 1.396 . S
C728 C729 1.399 . S
C729 H715 0.929 . S
C729 C728 1.399 . S
C729 C730 1.385 . S
C730 H716 0.931 . S
C730 C729 1.385 . S
C730 C731 1.389 . S
C731 C730 1.389 . S
C731 C732 1.387 . S
C732 H717 0.930 . S
C732 C727 1.390 . S
C732 C731 1.387 . S
H733 C745 0.930 . S
H734 C747 0.930 . S
H735 C748 0.930 . S
H736 C752 0.959 . S
H737 C752 0.959 . S
H738 C752 0.961 . S
H739 C753 0.960 . S
H740 C753 0.961 . S
H741 C753 0.959 . S
H742 C756 0.929 . S
H743 C757 0.931 . S
H744 C759 0.930 . S
C745 H733 0.930 . S
C745 C746 1.399 . S
C745 C750 1.399 . S
C746 C745 1.399 . S
C746 C747 1.376 . S
C747 H734 0.930 . S
C747 C746 1.376 . S
C747 C748 1.388 . S
C748 H735 0.930 . S
C748 C747 1.388 . S
C748 C749 1.390 . S
C749 C748 1.390 . S
C749 C750 1.394 . S
C749 C755 1.465 . S
C750 C745 1.399 . S
C750 C749 1.394 . S
C750 C751 1.516 . S
C751 C750 1.516 . S
C751 C752 1.502 . S
C751 C753 1.561 . S
C751 C754 1.526 . S
C752 H736 0.959 . S
C752 H737 0.959 . S
C752 H738 0.961 . S
C752 C751 1.502 . S
C753 H739 0.960 . S
C753 H740 0.961 . S
C753 H741 0.959 . S
C753 C751 1.561 . S
C754 C751 1.526 . S
C754 C755 1.396 . S
C754 C759 1.390 . S
C755 C749 1.465 . S
C755 C754 1.396 . S
C755 C756 1.399 . S
C756 H742 0.929 . S
C756 C755 1.399 . S
C756 C757 1.385 . S
C757 H743 0.931 . S
C757 C756 1.385 . S
C757 C758 1.389 . S
C758 C757 1.389 . S
C758 C759 1.387 . S
C759 H744 0.930 . S
C759 C754 1.390 . S
C759 C758 1.387 . S
H760 C772 0.930 . S
H761 C774 0.930 . S
H762 C775 0.930 . S
H763 C779 0.962 . S
H764 C779 0.977 . S
H765 C779 0.941 1_554 S
H766 C780 0.959 1_554 S
H767 C780 0.961 . S
H768 C780 0.959 . S
H769 C783 0.929 . S
H770 C784 0.931 . S
H771 C786 0.930 . S
C772 H760 0.930 . S
C772 C773 1.399 . S
C772 C777 1.399 . S
C773 C772 1.399 . S
C773 C774 1.376 . S
C774 H761 0.930 . S
C774 C773 1.376 . S
C774 C775 1.388 . S
C775 H762 0.930 . S
C775 C774 1.388 . S
C775 C776 1.390 . S
C776 C775 1.390 . S
C776 C777 1.394 . S
C776 C782 1.465 1_554 S
C777 C772 1.399 . S
C777 C776 1.394 . S
C777 C778 1.519 1_554 S
C778 C777 1.519 1_556 S
C778 C779 1.502 . S
C778 C780 1.561 . S
C778 C781 1.523 . S
C779 H763 0.962 . S
C779 H764 0.977 . S
C779 H765 0.941 1_556 S
C779 C778 1.502 . S
C780 H766 0.959 1_556 S
C780 H767 0.961 . S
C780 H768 0.959 . S
C780 C778 1.561 . S
C781 C778 1.523 . S
C781 C782 1.396 . S
C781 C786 1.390 . S
C782 C776 1.465 1_556 S
C782 C781 1.396 . S
C782 C783 1.399 . S
C783 H769 0.929 . S
C783 C782 1.399 . S
C783 C784 1.385 . S
C784 H770 0.931 . S
C784 C783 1.385 . S
C784 C785 1.389 . S
C785 C784 1.389 . S
C785 C786 1.387 . S
C786 H771 0.930 . S
C786 C781 1.390 . S
C786 C785 1.387 . S
H787 C799 0.930 . S
H788 C801 0.930 . S
H789 C802 0.930 . S
H790 C806 0.959 . S
H791 C806 0.959 . S
H792 C806 0.961 . S
H793 C807 0.960 . S
H794 C807 0.961 . S
H795 C807 0.959 . S
H796 C810 0.929 . S
H797 C811 0.931 . S
H798 C813 0.930 . S
C799 H787 0.930 . S
C799 C800 1.399 . S
C799 C804 1.399 . S
C800 C799 1.399 . S
C800 C801 1.376 . S
C801 H788 0.930 . S
C801 C800 1.376 . S
C801 C802 1.388 . S
C802 H789 0.930 . S
C802 C801 1.388 . S
C802 C803 1.390 . S
C803 C802 1.390 . S
C803 C804 1.394 . S
C803 C809 1.465 . S
C804 C799 1.399 . S
C804 C803 1.394 . S
C804 C805 1.516 . S
C805 C804 1.516 . S
C805 C806 1.502 . S
C805 C807 1.561 . S
C805 C808 1.526 . S
C806 H790 0.959 . S
C806 H791 0.959 . S
C806 H792 0.961 . S
C806 C805 1.502 . S
C807 H793 0.960 . S
C807 H794 0.961 . S
C807 H795 0.959 . S
C807 C805 1.561 . S
C808 C805 1.526 . S
C808 C809 1.396 . S
C808 C813 1.390 . S
C809 C803 1.465 . S
C809 C808 1.396 . S
C809 C810 1.399 . S
C810 H796 0.929 . S
C810 C809 1.399 . S
C810 C811 1.385 . S
C811 H797 0.931 . S
C811 C810 1.385 . S
C811 C812 1.389 . S
C812 C811 1.389 . S
C812 C813 1.387 . S
C813 H798 0.930 . S
C813 C808 1.390 . S
C813 C812 1.387 . S
H814 C826 0.930 . S
H815 C828 0.930 . S
H816 C829 0.930 . S
H817 C833 0.962 . S
H818 C833 0.977 . S
H819 C833 0.941 1_556 S
H820 C834 0.959 1_556 S
H821 C834 0.962 . S
H822 C834 0.959 . S
H823 C837 0.929 . S
H824 C838 0.931 . S
H825 C840 0.930 . S
C826 H814 0.930 . S
C826 C827 1.399 . S
C826 C831 1.399 . S
C827 C826 1.399 . S
C827 C828 1.376 . S
C828 H815 0.930 . S
C828 C827 1.376 . S
C828 C829 1.388 . S
C829 H816 0.930 . S
C829 C828 1.388 . S
C829 C830 1.390 . S
C830 C829 1.390 . S
C830 C831 1.394 . S
C830 C836 1.465 1_556 S
C831 C826 1.399 . S
C831 C830 1.394 . S
C831 C832 1.519 1_556 S
C832 C831 1.519 1_554 S
C832 C833 1.502 . S
C832 C834 1.561 . S
C832 C835 1.523 . S
C833 H817 0.962 . S
C833 H818 0.977 . S
C833 H819 0.941 1_554 S
C833 C832 1.502 . S
C834 H820 0.959 1_554 S
C834 H821 0.962 . S
C834 H822 0.959 . S
C834 C832 1.561 . S
C835 C832 1.523 . S
C835 C836 1.396 . S
C835 C840 1.390 . S
C836 C830 1.465 1_554 S
C836 C835 1.396 . S
C836 C837 1.399 . S
C837 H823 0.929 . S
C837 C836 1.399 . S
C837 C838 1.385 . S
C838 H824 0.931 . S
C838 C837 1.385 . S
C838 C839 1.389 . S
C839 C838 1.389 . S
C839 C840 1.387 . S
C840 H825 0.930 . S
C840 C835 1.390 . S
C840 C839 1.387 . S
H841 C853 0.930 . S
H842 C855 0.930 . S
H843 C856 0.930 . S
H844 C860 0.959 . S
H845 C860 0.959 . S
H846 C860 0.961 . S
H847 C861 0.960 . S
H848 C861 0.961 . S
H849 C861 0.959 . S
H850 C864 0.929 . S
H851 C865 0.931 . S
H852 C867 0.930 . S
C853 H841 0.930 . S
C853 C854 1.399 . S
C853 C858 1.399 . S
C854 C853 1.399 . S
C854 C855 1.376 . S
C855 H842 0.930 . S
C855 C854 1.376 . S
C855 C856 1.388 . S
C856 H843 0.930 . S
C856 C855 1.388 . S
C856 C857 1.390 . S
C857 C856 1.390 . S
C857 C858 1.394 . S
C857 C863 1.465 . S
C858 C853 1.399 . S
C858 C857 1.394 . S
C858 C859 1.516 . S
C859 C858 1.516 . S
C859 C860 1.502 . S
C859 C861 1.561 . S
C859 C862 1.526 . S
C860 H844 0.959 . S
C860 H845 0.959 . S
C860 H846 0.961 . S
C860 C859 1.502 . S
C861 H847 0.960 . S
C861 H848 0.961 . S
C861 H849 0.959 . S
C861 C859 1.561 . S
C862 C859 1.526 . S
C862 C863 1.396 . S
C862 C867 1.390 . S
C863 C857 1.465 . S
C863 C862 1.396 . S
C863 C864 1.399 . S
C864 H850 0.929 . S
C864 C863 1.399 . S
C864 C865 1.385 . S
C865 H851 0.931 . S
C865 C864 1.385 . S
C865 C866 1.389 . S
C866 C865 1.389 . S
C866 C867 1.387 . S
C867 H852 0.930 . S
C867 C862 1.390 . S
C867 C866 1.387 . S
H868 C880 0.930 . S
H869 C882 0.930 . S
H870 C883 0.930 . S
H871 C887 0.962 . S
H872 C887 0.977 . S
H873 C887 0.941 1_554 S
H874 C888 0.959 1_554 S
H875 C888 0.961 . S
H876 C888 0.959 . S
H877 C891 0.929 . S
H878 C892 0.931 . S
H879 C894 0.930 . S
C880 H868 0.930 . S
C880 C881 1.399 . S
C880 C885 1.399 . S
C881 C880 1.399 . S
C881 C882 1.376 . S
C882 H869 0.930 . S
C882 C881 1.376 . S
C882 C883 1.388 . S
C883 H870 0.930 . S
C883 C882 1.388 . S
C883 C884 1.390 . S
C884 C883 1.390 . S
C884 C885 1.394 . S
C884 C890 1.465 1_554 S
C885 C880 1.399 . S
C885 C884 1.394 . S
C885 C886 1.519 1_554 S
C886 C885 1.519 1_556 S
C886 C887 1.502 . S
C886 C888 1.561 . S
C886 C889 1.523 . S
C887 H871 0.962 . S
C887 H872 0.977 . S
C887 H873 0.941 1_556 S
C887 C886 1.502 . S
C888 H874 0.959 1_556 S
C888 H875 0.961 . S
C888 H876 0.959 . S
C888 C886 1.561 . S
C889 C886 1.523 . S
C889 C890 1.396 . S
C889 C894 1.390 . S
C890 C884 1.465 1_556 S
C890 C889 1.396 . S
C890 C891 1.399 . S
C891 H877 0.929 . S
C891 C890 1.399 . S
C891 C892 1.385 . S
C892 H878 0.931 . S
C892 C891 1.385 . S
C892 C893 1.389 . S
C893 C892 1.389 . S
C893 C894 1.387 . S
C894 H879 0.930 . S
C894 C889 1.390 . S
C894 C893 1.387 . S
H895 C907 0.930 . S
H896 C909 0.930 . S
H897 C910 0.930 . S
H898 C914 0.959 . S
H899 C914 0.959 . S
H900 C914 0.961 . S
H901 C915 0.960 . S
H902 C915 0.961 . S
H903 C915 0.959 . S
H904 C918 0.929 . S
H905 C919 0.931 . S
H906 C921 0.930 . S
C907 H895 0.930 . S
C907 C908 1.399 . S
C907 C912 1.399 . S
C908 C907 1.399 . S
C908 C909 1.376 . S
C909 H896 0.930 . S
C909 C908 1.376 . S
C909 C910 1.388 . S
C910 H897 0.930 . S
C910 C909 1.388 . S
C910 C911 1.390 . S
C911 C910 1.390 . S
C911 C912 1.394 . S
C911 C917 1.465 . S
C912 C907 1.399 . S
C912 C911 1.394 . S
C912 C913 1.516 . S
C913 C912 1.516 . S
C913 C914 1.502 . S
C913 C915 1.561 . S
C913 C916 1.526 . S
C914 H898 0.959 . S
C914 H899 0.959 . S
C914 H900 0.961 . S
C914 C913 1.502 . S
C915 H901 0.960 . S
C915 H902 0.961 . S
C915 H903 0.959 . S
C915 C913 1.561 . S
C916 C913 1.526 . S
C916 C917 1.396 . S
C916 C921 1.390 . S
C917 C911 1.465 . S
C917 C916 1.396 . S
C917 C918 1.399 . S
C918 H904 0.929 . S
C918 C917 1.399 . S
C918 C919 1.385 . S
C919 H905 0.931 . S
C919 C918 1.385 . S
C919 C920 1.389 . S
C920 C919 1.389 . S
C920 C921 1.387 . S
C921 H906 0.930 . S
C921 C916 1.390 . S
C921 C920 1.387 . S
H922 C934 0.930 . S
H923 C936 0.930 . S
H924 C937 0.930 . S
H925 C941 0.962 . S
H926 C941 0.977 . S
H927 C941 0.941 1_554 S
H928 C942 0.959 1_554 S
H929 C942 0.961 . S
H930 C942 0.959 . S
H931 C945 0.929 . S
H932 C946 0.931 . S
H933 C948 0.930 . S
C934 H922 0.930 . S
C934 C935 1.399 . S
C934 C939 1.399 . S
C935 C934 1.399 . S
C935 C936 1.376 . S
C936 H923 0.930 . S
C936 C935 1.376 . S
C936 C937 1.388 . S
C937 H924 0.930 . S
C937 C936 1.388 . S
C937 C938 1.390 . S
C938 C937 1.390 . S
C938 C939 1.394 . S
C938 C944 1.465 1_554 S
C939 C934 1.399 . S
C939 C938 1.394 . S
C939 C940 1.519 1_554 S
C940 C939 1.519 1_556 S
C940 C941 1.502 . S
C940 C942 1.561 . S
C940 C943 1.523 . S
C941 H925 0.962 . S
C941 H926 0.977 . S
C941 H927 0.941 1_556 S
C941 C940 1.502 . S
C942 H928 0.959 1_556 S
C942 H929 0.961 . S
C942 H930 0.959 . S
C942 C940 1.561 . S
C943 C940 1.523 . S
C943 C944 1.396 . S
C943 C948 1.390 . S
C944 C938 1.465 1_556 S
C944 C943 1.396 . S
C944 C945 1.399 . S
C945 H931 0.929 . S
C945 C944 1.399 . S
C945 C946 1.385 . S
C946 H932 0.931 . S
C946 C945 1.385 . S
C946 C947 1.389 . S
C947 C946 1.389 . S
C947 C948 1.387 . S
C948 H933 0.930 . S
C948 C943 1.390 . S
C948 C947 1.387 . S
H949 C961 0.930 . S
H950 C963 0.930 . S
H951 C964 0.930 . S
H952 C968 0.959 . S
H953 C968 0.959 . S
H954 C968 0.961 . S
H955 C969 0.960 . S
H956 C969 0.961 . S
H957 C969 0.959 . S
H958 C972 0.929 . S
H959 C973 0.931 . S
H960 C975 0.930 . S
C961 H949 0.930 . S
C961 C962 1.399 . S
C961 C966 1.399 . S
C962 C961 1.399 . S
C962 C963 1.376 . S
C963 H950 0.930 . S
C963 C962 1.376 . S
C963 C964 1.388 . S
C964 H951 0.930 . S
C964 C963 1.388 . S
C964 C965 1.390 . S
C965 C964 1.390 . S
C965 C966 1.394 . S
C965 C971 1.465 . S
C966 C961 1.399 . S
C966 C965 1.394 . S
C966 C967 1.516 . S
C967 C966 1.516 . S
C967 C968 1.502 . S
C967 C969 1.561 . S
C967 C970 1.526 . S
C968 H952 0.959 . S
C968 H953 0.959 . S
C968 H954 0.961 . S
C968 C967 1.502 . S
C969 H955 0.960 . S
C969 H956 0.961 . S
C969 H957 0.959 . S
C969 C967 1.561 . S
C970 C967 1.526 . S
C970 C971 1.396 . S
C970 C975 1.390 . S
C971 C965 1.465 . S
C971 C970 1.396 . S
C971 C972 1.399 . S
C972 H958 0.929 . S
C972 C971 1.399 . S
C972 C973 1.385 . S
C973 H959 0.931 . S
C973 C972 1.385 . S
C973 C974 1.389 . S
C974 C973 1.389 . S
C974 C975 1.387 . S
C975 H960 0.930 . S
C975 C970 1.390 . S
C975 C974 1.387 . S
H976 C988 0.930 . S
H977 C990 0.930 . S
H978 C991 0.930 . S
H979 C995 0.959 . S
H980 C995 0.959 . S
H981 C995 0.961 . S
H982 C996 0.960 . S
H983 C996 0.961 . S
H984 C996 0.959 . S
H985 C999 0.929 . S
H986 C1000 0.931 . S
H987 C1002 0.930 . S
C988 H976 0.930 . S
C988 C989 1.399 . S
C988 C993 1.399 . S
C989 C988 1.399 . S
C989 C990 1.376 . S
C990 H977 0.930 . S
C990 C989 1.376 . S
C990 C991 1.388 . S
C991 H978 0.930 . S
C991 C990 1.388 . S
C991 C992 1.390 . S
C992 C991 1.390 . S
C992 C993 1.394 . S
C992 C998 1.465 1_455 S
C993 C988 1.399 . S
C993 C992 1.394 . S
C993 C994 1.516 1_455 S
C994 C993 1.516 1_655 S
C994 C995 1.502 . S
C994 C996 1.561 1_655 S
C994 C997 1.526 . S
C995 H979 0.959 . S
C995 H980 0.959 . S
C995 H981 0.961 . S
C995 C994 1.502 . S
C996 H982 0.960 . S
C996 H983 0.961 . S
C996 H984 0.959 . S
C996 C994 1.561 1_455 S
C997 C994 1.526 . S
C997 C998 1.396 . S
C997 C1002 1.390 . S
C998 C992 1.465 1_655 S
C998 C997 1.396 . S
C998 C999 1.399 . S
C999 H985 0.929 . S
C999 C998 1.399 . S
C999 C1000 1.385 . S
C1000 H986 0.931 . S
C1000 C999 1.385 . S
C1000 C1001 1.389 . S
C1001 C1000 1.389 . S
C1001 C1002 1.387 . S
C1002 H987 0.930 . S
C1002 C997 1.390 . S
C1002 C1001 1.387 . S
H1003 C1015 0.930 . S
H1004 C1017 0.930 . S
H1005 C1018 0.930 . S
H1006 C1022 0.959 . S
H1007 C1022 0.959 . S
H1008 C1022 0.961 1_565 S
H1009 C1023 0.960 . S
H1010 C1023 0.961 . S
H1011 C1023 0.959 . S
H1012 C1026 0.929 . S
H1013 C1027 0.931 . S
H1014 C1029 0.930 . S
C1015 H1003 0.930 . S
C1015 C1016 1.399 . S
C1015 C1020 1.399 . S
C1016 C1015 1.399 . S
C1016 C1017 1.376 . S
C1017 H1004 0.930 . S
C1017 C1016 1.376 . S
C1017 C1018 1.388 . S
C1018 H1005 0.930 . S
C1018 C1017 1.388 . S
C1018 C1019 1.390 . S
C1019 C1018 1.390 . S
C1019 C1020 1.394 . S
C1019 C1025 1.465 1_565 S
C1020 C1015 1.399 . S
C1020 C1019 1.394 . S
C1020 C1021 1.516 . S
C1021 C1020 1.516 . S
C1021 C1022 1.502 1_565 S
C1021 C1023 1.561 . S
C1021 C1024 1.526 1_565 S
C1022 H1006 0.959 . S
C1022 H1007 0.959 . S
C1022 H1008 0.961 1_545 S
C1022 C1021 1.502 1_545 S
C1023 H1009 0.960 . S
C1023 H1010 0.961 . S
C1023 H1011 0.959 . S
C1023 C1021 1.561 . S
C1024 C1021 1.526 1_545 S
C1024 C1025 1.396 . S
C1024 C1029 1.390 . S
C1025 C1019 1.465 1_545 S
C1025 C1024 1.396 . S
C1025 C1026 1.399 . S
C1026 H1012 0.929 . S
C1026 C1025 1.399 . S
C1026 C1027 1.385 . S
C1027 H1013 0.931 . S
C1027 C1026 1.385 . S
C1027 C1028 1.389 . S
C1028 C1027 1.389 . S
C1028 C1029 1.387 . S
C1029 H1014 0.930 . S
C1029 C1024 1.390 . S
C1029 C1028 1.387 . S
H1030 C1042 0.930 . S
H1031 C1044 0.930 . S
H1032 C1045 0.930 1_545 S
H1033 C1049 0.959 . S
H1034 C1049 0.959 . S
H1035 C1049 0.961 . S
H1036 C1050 0.960 . S
H1037 C1050 0.961 . S
H1038 C1050 0.959 . S
H1039 C1053 0.929 . S
H1040 C1054 0.931 . S
H1041 C1056 0.930 . S
C1042 H1030 0.930 . S
C1042 C1043 1.399 . S
C1042 C1047 1.399 . S
C1043 C1042 1.399 . S
C1043 C1044 1.376 . S
C1044 H1031 0.930 . S
C1044 C1043 1.376 . S
C1044 C1045 1.388 . S
C1045 H1032 0.930 1_565 S
C1045 C1044 1.388 . S
C1045 C1046 1.390 . S
C1046 C1045 1.390 . S
C1046 C1047 1.394 . S
C1046 C1052 1.465 1_565 S
C1047 C1042 1.399 . S
C1047 C1046 1.394 . S
C1047 C1048 1.516 . S
C1048 C1047 1.516 . S
C1048 C1049 1.502 . S
C1048 C1050 1.561 . S
C1048 C1051 1.526 1_565 S
C1049 H1033 0.959 . S
C1049 H1034 0.959 . S
C1049 H1035 0.961 . S
C1049 C1048 1.502 . S
C1050 H1036 0.960 . S
C1050 H1037 0.961 . S
C1050 H1038 0.959 . S
C1050 C1048 1.561 . S
C1051 C1048 1.526 1_545 S
C1051 C1052 1.396 . S
C1051 C1056 1.390 . S
C1052 C1046 1.465 1_545 S
C1052 C1051 1.396 . S
C1052 C1053 1.399 . S
C1053 H1039 0.929 . S
C1053 C1052 1.399 . S
C1053 C1054 1.385 . S
C1054 H1040 0.931 . S
C1054 C1053 1.385 . S
C1054 C1055 1.389 . S
C1055 C1054 1.389 . S
C1055 C1056 1.387 . S
C1056 H1041 0.930 . S
C1056 C1051 1.390 . S
C1056 C1055 1.387 . S
H1057 C1069 0.930 . S
H1058 C1071 0.930 . S
H1059 C1072 0.930 1_655 S
H1060 C1076 0.959 . S
H1061 C1076 0.959 . S
H1062 C1076 0.961 . S
H1063 C1077 0.960 . S
H1064 C1077 0.961 . S
H1065 C1077 0.959 . S
H1066 C1080 0.929 . S
H1067 C1081 0.931 . S
H1068 C1083 0.930 . S
C1069 H1057 0.930 . S
C1069 C1070 1.399 . S
C1069 C1074 1.399 . S
C1070 C1069 1.399 . S
C1070 C1071 1.376 . S
C1071 H1058 0.930 . S
C1071 C1070 1.376 . S
C1071 C1072 1.388 . S
C1072 H1059 0.930 1_455 S
C1072 C1071 1.388 . S
C1072 C1073 1.390 . S
C1073 C1072 1.390 . S
C1073 C1074 1.394 . S
C1073 C1079 1.465 1_455 S
C1074 C1069 1.399 . S
C1074 C1073 1.394 . S
C1074 C1075 1.516 . S
C1075 C1074 1.516 . S
C1075 C1076 1.502 . S
C1075 C1077 1.561 . S
C1075 C1078 1.526 1_455 S
C1076 H1060 0.959 . S
C1076 H1061 0.959 . S
C1076 H1062 0.961 . S
C1076 C1075 1.502 . S
C1077 H1063 0.960 . S
C1077 H1064 0.961 . S
C1077 H1065 0.959 . S
C1077 C1075 1.561 . S
C1078 C1075 1.526 1_655 S
C1078 C1079 1.396 . S
C1078 C1083 1.390 . S
C1079 C1073 1.465 1_655 S
C1079 C1078 1.396 . S
C1079 C1080 1.399 . S
C1080 H1066 0.929 . S
C1080 C1079 1.399 . S
C1080 C1081 1.385 . S
C1081 H1067 0.931 . S
C1081 C1080 1.385 . S
C1081 C1082 1.389 . S
C1082 C1081 1.389 . S
C1082 C1083 1.387 . S
C1083 H1068 0.930 . S
C1083 C1078 1.390 . S
C1083 C1082 1.387 . S
H1084 C1096 0.930 . S
H1085 C1098 0.930 . S
H1086 C1099 0.930 1_455 S
H1087 C1103 0.959 . S
H1088 C1103 0.959 . S
H1089 C1103 0.961 . S
H1090 C1104 0.960 1_655 S
H1091 C1104 0.961 . S
H1092 C1104 0.959 . S
H1093 C1107 0.929 . S
H1094 C1108 0.931 . S
H1095 C1110 0.930 . S
C1096 H1084 0.930 . S
C1096 C1097 1.399 . S
C1096 C1101 1.399 . S
C1097 C1096 1.399 . S
C1097 C1098 1.376 . S
C1098 H1085 0.930 . S
C1098 C1097 1.376 . S
C1098 C1099 1.388 . S
C1099 H1086 0.930 1_655 S
C1099 C1098 1.388 . S
C1099 C1100 1.390 . S
C1100 C1099 1.390 . S
C1100 C1101 1.394 . S
C1100 C1106 1.465 1_655 S
C1101 C1096 1.399 . S
C1101 C1100 1.394 . S
C1101 C1102 1.516 . S
C1102 C1101 1.516 . S
C1102 C1103 1.502 . S
C1102 C1104 1.561 1_655 S
C1102 C1105 1.526 1_655 S
C1103 H1087 0.959 . S
C1103 H1088 0.959 . S
C1103 H1089 0.961 . S
C1103 C1102 1.502 . S
C1104 H1090 0.960 1_455 S
C1104 H1091 0.961 . S
C1104 H1092 0.959 . S
C1104 C1102 1.561 1_455 S
C1105 C1102 1.526 1_455 S
C1105 C1106 1.396 . S
C1105 C1110 1.390 . S
C1106 C1100 1.465 1_455 S
C1106 C1105 1.396 . S
C1106 C1107 1.399 . S
C1107 H1093 0.929 . S
C1107 C1106 1.399 . S
C1107 C1108 1.385 . S
C1108 H1094 0.931 . S
C1108 C1107 1.385 . S
C1108 C1109 1.389 . S
C1109 C1108 1.389 . S
C1109 C1110 1.387 . S
C1110 H1095 0.930 . S
C1110 C1105 1.390 . S
C1110 C1109 1.387 . S
H1111 C1123 0.930 . S
H1112 C1125 0.930 . S
H1113 C1126 0.930 . S
H1114 C1130 0.959 . S
H1115 C1130 0.959 . S
H1116 C1130 0.961 . S
H1117 C1131 0.960 . S
H1118 C1131 0.961 . S
H1119 C1131 0.959 . S
H1120 C1134 0.929 . S
H1121 C1135 0.931 . S
H1122 C1137 0.930 . S
C1123 H1111 0.930 . S
C1123 C1124 1.399 . S
C1123 C1128 1.399 . S
C1124 C1123 1.399 . S
C1124 C1125 1.376 . S
C1125 H1112 0.930 . S
C1125 C1124 1.376 . S
C1125 C1126 1.388 . S
C1126 H1113 0.930 . S
C1126 C1125 1.388 . S
C1126 C1127 1.390 . S
C1127 C1126 1.390 . S
C1127 C1128 1.394 . S
C1127 C1133 1.465 1_545 S
C1128 C1123 1.399 . S
C1128 C1127 1.394 . S
C1128 C1129 1.516 1_545 S
C1129 C1128 1.516 1_565 S
C1129 C1130 1.502 . S
C1129 C1131 1.561 1_565 S
C1129 C1132 1.526 . S
C1130 H1114 0.959 . S
C1130 H1115 0.959 . S
C1130 H1116 0.961 . S
C1130 C1129 1.502 . S
C1131 H1117 0.960 . S
C1131 H1118 0.961 . S
C1131 H1119 0.959 . S
C1131 C1129 1.561 1_545 S
C1132 C1129 1.526 . S
C1132 C1133 1.396 . S
C1132 C1137 1.390 . S
C1133 C1127 1.465 1_565 S
C1133 C1132 1.396 . S
C1133 C1134 1.399 . S
C1134 H1120 0.929 . S
C1134 C1133 1.399 . S
C1134 C1135 1.385 . S
C1135 H1121 0.931 . S
C1135 C1134 1.385 . S
C1135 C1136 1.389 . S
C1136 C1135 1.389 . S
C1136 C1137 1.387 . S
C1137 H1122 0.930 . S
C1137 C1132 1.390 . S
C1137 C1136 1.387 . S
H1138 C1150 0.930 . S
H1139 C1152 0.930 . S
H1140 C1153 0.930 . S
H1141 C1157 0.959 . S
H1142 C1157 0.959 . S
H1143 C1157 0.961 . S
H1144 C1158 0.960 1_565 S
H1145 C1158 0.961 . S
H1146 C1158 0.959 . S
H1147 C1161 0.929 . S
H1148 C1162 0.931 . S
H1149 C1164 0.930 . S
C1150 H1138 0.930 . S
C1150 C1151 1.399 . S
C1150 C1155 1.399 . S
C1151 C1150 1.399 . S
C1151 C1152 1.376 . S
C1152 H1139 0.930 . S
C1152 C1151 1.376 . S
C1152 C1153 1.388 . S
C1153 H1140 0.930 . S
C1153 C1152 1.388 . S
C1153 C1154 1.390 . S
C1154 C1153 1.390 . S
C1154 C1155 1.394 . S
C1154 C1160 1.465 1_565 S
C1155 C1150 1.399 . S
C1155 C1154 1.394 . S
C1155 C1156 1.516 . S
C1156 C1155 1.516 . S
C1156 C1157 1.502 . S
C1156 C1158 1.561 1_565 S
C1156 C1159 1.526 1_565 S
C1157 H1141 0.959 . S
C1157 H1142 0.959 . S
C1157 H1143 0.961 . S
C1157 C1156 1.502 . S
C1158 H1144 0.960 1_545 S
C1158 H1145 0.961 . S
C1158 H1146 0.959 . S
C1158 C1156 1.561 1_545 S
C1159 C1156 1.526 1_545 S
C1159 C1160 1.396 . S
C1159 C1164 1.390 . S
C1160 C1154 1.465 1_545 S
C1160 C1159 1.396 . S
C1160 C1161 1.399 . S
C1161 H1147 0.929 . S
C1161 C1160 1.399 . S
C1161 C1162 1.385 . S
C1162 H1148 0.931 . S
C1162 C1161 1.385 . S
C1162 C1163 1.389 . S
C1163 C1162 1.389 . S
C1163 C1164 1.387 . S
C1164 H1149 0.930 . S
C1164 C1159 1.390 . S
C1164 C1163 1.387 . S
H1165 C1177 0.930 . S
H1166 C1179 0.930 . S
H1167 C1180 0.930 . S
H1168 C1184 0.959 . S
H1169 C1184 0.959 . S
H1170 C1184 0.961 . S
H1171 C1185 0.960 . S
H1172 C1185 0.961 . S
H1173 C1185 0.959 . S
H1174 C1188 0.929 . S
H1175 C1189 0.931 . S
H1176 C1191 0.930 . S
C1177 H1165 0.930 . S
C1177 C1178 1.399 . S
C1177 C1182 1.399 . S
C1178 C1177 1.399 . S
C1178 C1179 1.376 . S
C1179 H1166 0.930 . S
C1179 C1178 1.376 . S
C1179 C1180 1.388 . S
C1180 H1167 0.930 . S
C1180 C1179 1.388 . S
C1180 C1181 1.390 . S
C1181 C1180 1.390 . S
C1181 C1182 1.394 . S
C1181 C1187 1.465 1_455 S
C1182 C1177 1.399 . S
C1182 C1181 1.394 . S
C1182 C1183 1.516 . S
C1183 C1182 1.516 . S
C1183 C1184 1.502 . S
C1183 C1185 1.561 1_455 S
C1183 C1186 1.526 1_455 S
C1184 H1168 0.959 . S
C1184 H1169 0.959 . S
C1184 H1170 0.961 . S
C1184 C1183 1.502 . S
C1185 H1171 0.960 . S
C1185 H1172 0.961 . S
C1185 H1173 0.959 . S
C1185 C1183 1.561 1_655 S
C1186 C1183 1.526 1_655 S
C1186 C1187 1.396 . S
C1186 C1191 1.390 . S
C1187 C1181 1.465 1_655 S
C1187 C1186 1.396 . S
C1187 C1188 1.399 . S
C1188 H1174 0.929 . S
C1188 C1187 1.399 . S
C1188 C1189 1.385 . S
C1189 H1175 0.931 . S
C1189 C1188 1.385 . S
C1189 C1190 1.389 . S
C1190 C1189 1.389 . S
C1190 C1191 1.387 . S
C1191 H1176 0.930 . S
C1191 C1186 1.390 . S
C1191 C1190 1.387 . S
H1192 C1204 0.930 . S
H1193 C1206 0.930 . S
H1194 C1207 0.930 . S
H1195 C1211 0.959 . S
H1196 C1211 0.959 . S
H1197 C1211 0.961 . S
H1198 C1212 0.960 . S
H1199 C1212 0.961 . S
H1200 C1212 0.959 . S
H1201 C1215 0.929 . S
H1202 C1216 0.931 . S
H1203 C1218 0.930 . S
C1204 H1192 0.930 . S
C1204 C1205 1.399 . S
C1204 C1209 1.399 . S
C1205 C1204 1.399 . S
C1205 C1206 1.376 . S
C1206 H1193 0.930 . S
C1206 C1205 1.376 . S
C1206 C1207 1.388 . S
C1207 H1194 0.930 . S
C1207 C1206 1.388 . S
C1207 C1208 1.390 . S
C1208 C1207 1.390 . S
C1208 C1209 1.394 . S
C1208 C1214 1.465 . S
C1209 C1204 1.399 . S
C1209 C1208 1.394 . S
C1209 C1210 1.516 . S
C1210 C1209 1.516 . S
C1210 C1211 1.502 . S
C1210 C1212 1.561 . S
C1210 C1213 1.526 . S
C1211 H1195 0.959 . S
C1211 H1196 0.959 . S
C1211 H1197 0.961 . S
C1211 C1210 1.502 . S
C1212 H1198 0.960 . S
C1212 H1199 0.961 . S
C1212 H1200 0.959 . S
C1212 C1210 1.561 . S
C1213 C1210 1.526 . S
C1213 C1214 1.396 . S
C1213 C1218 1.390 . S
C1214 C1208 1.465 . S
C1214 C1213 1.396 . S
C1214 C1215 1.399 . S
C1215 H1201 0.929 . S
C1215 C1214 1.399 . S
C1215 C1216 1.385 . S
C1216 H1202 0.931 . S
C1216 C1215 1.385 . S
C1216 C1217 1.389 . S
C1217 C1216 1.389 . S
C1217 C1218 1.387 . S
C1218 H1203 0.930 . S
C1218 C1213 1.390 . S
C1218 C1217 1.387 . S
H1219 C1231 0.930 . S
H1220 C1233 0.930 . S
H1221 C1234 0.930 . S
H1222 C1238 0.959 . S
H1223 C1238 0.959 . S
H1224 C1238 0.961 . S
H1225 C1239 0.960 . S
H1226 C1239 0.961 . S
H1227 C1239 0.959 . S
H1228 C1242 0.929 . S
H1229 C1243 0.931 . S
H1230 C1245 0.930 . S
C1231 H1219 0.930 . S
C1231 C1232 1.399 . S
C1231 C1236 1.399 . S
C1232 C1231 1.399 . S
C1232 C1233 1.376 . S
C1233 H1220 0.930 . S
C1233 C1232 1.376 . S
C1233 C1234 1.388 . S
C1234 H1221 0.930 . S
C1234 C1233 1.388 . S
C1234 C1235 1.390 . S
C1235 C1234 1.390 . S
C1235 C1236 1.394 . S
C1235 C1241 1.465 . S
C1236 C1231 1.399 . S
C1236 C1235 1.394 . S
C1236 C1237 1.516 . S
C1237 C1236 1.516 . S
C1237 C1238 1.502 . S
C1237 C1239 1.561 . S
C1237 C1240 1.526 . S
C1238 H1222 0.959 . S
C1238 H1223 0.959 . S
C1238 H1224 0.961 . S
C1238 C1237 1.502 . S
C1239 H1225 0.960 . S
C1239 H1226 0.961 . S
C1239 H1227 0.959 . S
C1239 C1237 1.561 . S
C1240 C1237 1.526 . S
C1240 C1241 1.396 . S
C1240 C1245 1.390 . S
C1241 C1235 1.465 . S
C1241 C1240 1.396 . S
C1241 C1242 1.399 . S
C1242 H1228 0.929 . S
C1242 C1241 1.399 . S
C1242 C1243 1.385 . S
C1243 H1229 0.931 . S
C1243 C1242 1.385 . S
C1243 C1244 1.389 . S
C1244 C1243 1.389 . S
C1244 C1245 1.387 . S
C1245 H1230 0.930 . S
C1245 C1240 1.390 . S
C1245 C1244 1.387 . S
H1246 C1258 0.930 . S
H1247 C1260 0.930 . S
H1248 C1261 0.930 . S
H1249 C1265 0.959 . S
H1250 C1265 0.959 . S
H1251 C1265 0.961 . S
H1252 C1266 0.960 . S
H1253 C1266 0.961 . S
H1254 C1266 0.959 . S
H1255 C1269 0.929 . S
H1256 C1270 0.931 . S
H1257 C1272 0.930 . S
C1258 H1246 0.930 . S
C1258 C1259 1.399 . S
C1258 C1263 1.399 . S
C1259 C1258 1.399 . S
C1259 C1260 1.376 . S
C1260 H1247 0.930 . S
C1260 C1259 1.376 . S
C1260 C1261 1.388 . S
C1261 H1248 0.930 . S
C1261 C1260 1.388 . S
C1261 C1262 1.390 . S
C1262 C1261 1.390 . S
C1262 C1263 1.394 . S
C1262 C1268 1.465 . S
C1263 C1258 1.399 . S
C1263 C1262 1.394 . S
C1263 C1264 1.516 . S
C1264 C1263 1.516 . S
C1264 C1265 1.502 . S
C1264 C1266 1.561 . S
C1264 C1267 1.526 . S
C1265 H1249 0.959 . S
C1265 H1250 0.959 . S
C1265 H1251 0.961 . S
C1265 C1264 1.502 . S
C1266 H1252 0.960 . S
C1266 H1253 0.961 . S
C1266 H1254 0.959 . S
C1266 C1264 1.561 . S
C1267 C1264 1.526 . S
C1267 C1268 1.396 . S
C1267 C1272 1.390 . S
C1268 C1262 1.465 . S
C1268 C1267 1.396 . S
C1268 C1269 1.399 . S
C1269 H1255 0.929 . S
C1269 C1268 1.399 . S
C1269 C1270 1.385 . S
C1270 H1256 0.931 . S
C1270 C1269 1.385 . S
C1270 C1271 1.389 . S
C1271 C1270 1.389 . S
C1271 C1272 1.387 . S
C1272 H1257 0.930 . S
C1272 C1267 1.390 . S
C1272 C1271 1.387 . S
H1273 C1285 0.930 . S
H1274 C1287 0.930 . S
H1275 C1288 0.930 . S
H1276 C1292 0.959 . S
H1277 C1292 0.959 . S
H1278 C1292 0.961 . S
H1279 C1293 0.960 . S
H1280 C1293 0.961 . S
H1281 C1293 0.959 . S
H1282 C1296 0.929 . S
H1283 C1297 0.931 . S
H1284 C1299 0.930 . S
C1285 H1273 0.930 . S
C1285 C1286 1.399 . S
C1285 C1290 1.399 . S
C1286 C1285 1.399 . S
C1286 C1287 1.376 . S
C1287 H1274 0.930 . S
C1287 C1286 1.376 . S
C1287 C1288 1.388 . S
C1288 H1275 0.930 . S
C1288 C1287 1.388 . S
C1288 C1289 1.390 . S
C1289 C1288 1.390 . S
C1289 C1290 1.394 . S
C1289 C1295 1.465 . S
C1290 C1285 1.399 . S
C1290 C1289 1.394 . S
C1290 C1291 1.516 . S
C1291 C1290 1.516 . S
C1291 C1292 1.502 . S
C1291 C1293 1.561 . S
C1291 C1294 1.526 . S
C1292 H1276 0.959 . S
C1292 H1277 0.959 . S
C1292 H1278 0.961 . S
C1292 C1291 1.502 . S
C1293 H1279 0.960 . S
C1293 H1280 0.961 . S
C1293 H1281 0.959 . S
C1293 C1291 1.561 . S
C1294 C1291 1.526 . S
C1294 C1295 1.396 . S
C1294 C1299 1.390 . S
C1295 C1289 1.465 . S
C1295 C1294 1.396 . S
C1295 C1296 1.399 . S
C1296 H1282 0.929 . S
C1296 C1295 1.399 . S
C1296 C1297 1.385 . S
C1297 H1283 0.931 . S
C1297 C1296 1.385 . S
C1297 C1298 1.389 . S
C1298 C1297 1.389 . S
C1298 C1299 1.387 . S
C1299 H1284 0.930 . S
C1299 C1294 1.390 . S
C1299 C1298 1.387 . S
H1300 C1312 0.930 . S
H1301 C1314 0.930 . S
H1302 C1315 0.930 . S
H1303 C1319 0.959 . S
H1304 C1319 0.959 . S
H1305 C1319 0.961 . S
H1306 C1320 0.960 . S
H1307 C1320 0.961 . S
H1308 C1320 0.959 . S
H1309 C1323 0.929 . S
H1310 C1324 0.931 . S
H1311 C1326 0.930 . S
C1312 H1300 0.930 . S
C1312 C1313 1.399 . S
C1312 C1317 1.399 . S
C1313 C1312 1.399 . S
C1313 C1314 1.376 . S
C1314 H1301 0.930 . S
C1314 C1313 1.376 . S
C1314 C1315 1.388 . S
C1315 H1302 0.930 . S
C1315 C1314 1.388 . S
C1315 C1316 1.390 . S
C1316 C1315 1.390 . S
C1316 C1317 1.394 . S
C1316 C1322 1.465 . S
C1317 C1312 1.399 . S
C1317 C1316 1.394 . S
C1317 C1318 1.516 . S
C1318 C1317 1.516 . S
C1318 C1319 1.502 . S
C1318 C1320 1.561 . S
C1318 C1321 1.526 . S
C1319 H1303 0.959 . S
C1319 H1304 0.959 . S
C1319 H1305 0.961 . S
C1319 C1318 1.502 . S
C1320 H1306 0.960 . S
C1320 H1307 0.961 . S
C1320 H1308 0.959 . S
C1320 C1318 1.561 . S
C1321 C1318 1.526 . S
C1321 C1322 1.396 . S
C1321 C1326 1.390 . S
C1322 C1316 1.465 . S
C1322 C1321 1.396 . S
C1322 C1323 1.399 . S
C1323 H1309 0.929 . S
C1323 C1322 1.399 . S
C1323 C1324 1.385 . S
C1324 H1310 0.931 . S
C1324 C1323 1.385 . S
C1324 C1325 1.389 . S
C1325 C1324 1.389 . S
C1325 C1326 1.387 . S
C1326 H1311 0.930 . S
C1326 C1321 1.390 . S
C1326 C1325 1.387 . S
H1327 C1339 0.930 . S
H1328 C1341 0.930 . S
H1329 C1342 0.930 . S
H1330 C1346 0.959 . S
H1331 C1346 0.959 . S
H1332 C1346 0.961 . S
H1333 C1347 0.960 . S
H1334 C1347 0.961 . S
H1335 C1347 0.959 . S
H1336 C1350 0.929 . S
H1337 C1351 0.931 . S
H1338 C1353 0.930 . S
C1339 H1327 0.930 . S
C1339 C1340 1.399 . S
C1339 C1344 1.399 . S
C1340 C1339 1.399 . S
C1340 C1341 1.376 . S
C1341 H1328 0.930 . S
C1341 C1340 1.376 . S
C1341 C1342 1.388 . S
C1342 H1329 0.930 . S
C1342 C1341 1.388 . S
C1342 C1343 1.390 . S
C1343 C1342 1.390 . S
C1343 C1344 1.394 . S
C1343 C1349 1.465 . S
C1344 C1339 1.399 . S
C1344 C1343 1.394 . S
C1344 C1345 1.516 . S
C1345 C1344 1.516 . S
C1345 C1346 1.502 . S
C1345 C1347 1.561 . S
C1345 C1348 1.526 . S
C1346 H1330 0.959 . S
C1346 H1331 0.959 . S
C1346 H1332 0.961 . S
C1346 C1345 1.502 . S
C1347 H1333 0.960 . S
C1347 H1334 0.961 . S
C1347 H1335 0.959 . S
C1347 C1345 1.561 . S
C1348 C1345 1.526 . S
C1348 C1349 1.396 . S
C1348 C1353 1.390 . S
C1349 C1343 1.465 . S
C1349 C1348 1.396 . S
C1349 C1350 1.399 . S
C1350 H1336 0.929 . S
C1350 C1349 1.399 . S
C1350 C1351 1.385 . S
C1351 H1337 0.931 . S
C1351 C1350 1.385 . S
C1351 C1352 1.389 . S
C1352 C1351 1.389 . S
C1352 C1353 1.387 . S
C1353 H1338 0.930 . S
C1353 C1348 1.390 . S
C1353 C1352 1.387 . S
H1354 C1366 0.930 . S
H1355 C1368 0.930 1_655 S
H1356 C1369 0.930 . S
H1357 C1373 0.959 . S
H1358 C1373 0.959 . S
H1359 C1373 0.961 . S
H1360 C1374 0.960 . S
H1361 C1374 0.961 . S
H1362 C1374 0.959 . S
H1363 C1377 0.929 . S
H1364 C1378 0.931 . S
H1365 C1380 0.930 . S
C1366 H1354 0.930 . S
C1366 C1367 1.399 . S
C1366 C1371 1.399 . S
C1367 C1366 1.399 . S
C1367 C1368 1.376 . S
C1368 H1355 0.930 1_455 S
C1368 C1367 1.376 . S
C1368 C1369 1.388 . S
C1369 H1356 0.930 . S
C1369 C1368 1.388 . S
C1369 C1370 1.390 . S
C1370 C1369 1.390 . S
C1370 C1371 1.394 . S
C1370 C1376 1.465 . S
C1371 C1366 1.399 . S
C1371 C1370 1.394 . S
C1371 C1372 1.516 . S
C1372 C1371 1.516 . S
C1372 C1373 1.502 . S
C1372 C1374 1.561 . S
C1372 C1375 1.526 . S
C1373 H1357 0.959 . S
C1373 H1358 0.959 . S
C1373 H1359 0.961 . S
C1373 C1372 1.502 . S
C1374 H1360 0.960 . S
C1374 H1361 0.961 . S
C1374 H1362 0.959 . S
C1374 C1372 1.561 . S
C1375 C1372 1.526 . S
C1375 C1376 1.396 . S
C1375 C1380 1.390 . S
C1376 C1370 1.465 . S
C1376 C1375 1.396 . S
C1376 C1377 1.399 . S
C1377 H1363 0.929 . S
C1377 C1376 1.399 . S
C1377 C1378 1.385 . S
C1378 H1364 0.931 . S
C1378 C1377 1.385 . S
C1378 C1379 1.389 . S
C1379 C1378 1.389 . S
C1379 C1380 1.387 . S
C1380 H1365 0.930 . S
C1380 C1375 1.390 . S
C1380 C1379 1.387 . S
H1381 C1393 0.930 . S
H1382 C1395 0.930 . S
H1383 C1396 0.930 . S
H1384 C1400 0.959 . S
H1385 C1400 0.959 . S
H1386 C1400 0.961 . S
H1387 C1401 0.960 . S
H1388 C1401 0.961 . S
H1389 C1401 0.959 . S
H1390 C1404 0.929 . S
H1391 C1405 0.931 1_565 S
H1392 C1407 0.930 . S
C1393 H1381 0.930 . S
C1393 C1394 1.399 . S
C1393 C1398 1.399 . S
C1394 C1393 1.399 . S
C1394 C1395 1.376 . S
C1395 H1382 0.930 . S
C1395 C1394 1.376 . S
C1395 C1396 1.388 . S
C1396 H1383 0.930 . S
C1396 C1395 1.388 . S
C1396 C1397 1.390 . S
C1397 C1396 1.390 . S
C1397 C1398 1.394 . S
C1397 C1403 1.465 . S
C1398 C1393 1.399 . S
C1398 C1397 1.394 . S
C1398 C1399 1.516 . S
C1399 C1398 1.516 . S
C1399 C1400 1.502 . S
C1399 C1401 1.561 . S
C1399 C1402 1.526 . S
C1400 H1384 0.959 . S
C1400 H1385 0.959 . S
C1400 H1386 0.961 . S
C1400 C1399 1.502 . S
C1401 H1387 0.960 . S
C1401 H1388 0.961 . S
C1401 H1389 0.959 . S
C1401 C1399 1.561 . S
C1402 C1399 1.526 . S
C1402 C1403 1.396 . S
C1402 C1407 1.390 . S
C1403 C1397 1.465 . S
C1403 C1402 1.396 . S
C1403 C1404 1.399 . S
C1404 H1390 0.929 . S
C1404 C1403 1.399 . S
C1404 C1405 1.385 . S
C1405 H1391 0.931 1_545 S
C1405 C1404 1.385 . S
C1405 C1406 1.389 . S
C1406 C1405 1.389 . S
C1406 C1407 1.387 . S
C1407 H1392 0.930 . S
C1407 C1402 1.390 . S
C1407 C1406 1.387 . S
H1408 C1420 0.930 . S
H1409 C1422 0.930 . S
H1410 C1423 0.930 . S
H1411 C1427 0.959 . S
H1412 C1427 0.959 . S
H1413 C1427 0.961 . S
H1414 C1428 0.960 . S
H1415 C1428 0.961 . S
H1416 C1428 0.959 . S
H1417 C1431 0.929 . S
H1418 C1432 0.931 . S
H1419 C1434 0.930 . S
C1420 H1408 0.930 . S
C1420 C1421 1.399 . S
C1420 C1425 1.399 . S
C1421 C1420 1.399 . S
C1421 C1422 1.376 . S
C1422 H1409 0.930 . S
C1422 C1421 1.376 . S
C1422 C1423 1.388 . S
C1423 H1410 0.930 . S
C1423 C1422 1.388 . S
C1423 C1424 1.390 . S
C1424 C1423 1.390 . S
C1424 C1425 1.394 . S
C1424 C1430 1.465 . S
C1425 C1420 1.399 . S
C1425 C1424 1.394 . S
C1425 C1426 1.516 . S
C1426 C1425 1.516 . S
C1426 C1427 1.502 . S
C1426 C1428 1.561 . S
C1426 C1429 1.526 . S
C1427 H1411 0.959 . S
C1427 H1412 0.959 . S
C1427 H1413 0.961 . S
C1427 C1426 1.502 . S
C1428 H1414 0.960 . S
C1428 H1415 0.961 . S
C1428 H1416 0.959 . S
C1428 C1426 1.561 . S
C1429 C1426 1.526 . S
C1429 C1430 1.396 . S
C1429 C1434 1.390 . S
C1430 C1424 1.465 . S
C1430 C1429 1.396 . S
C1430 C1431 1.399 . S
C1431 H1417 0.929 . S
C1431 C1430 1.399 . S
C1431 C1432 1.385 . S
C1432 H1418 0.931 . S
C1432 C1431 1.385 . S
C1432 C1433 1.389 . S
C1433 C1432 1.389 . S
C1433 C1434 1.387 . S
C1434 H1419 0.930 . S
C1434 C1429 1.390 . S
C1434 C1433 1.387 . S
H1435 C1447 0.930 . S
H1436 C1449 0.930 . S
H1437 C1450 0.930 . S
H1438 C1454 0.959 . S
H1439 C1454 0.959 . S
H1440 C1454 0.961 . S
H1441 C1455 0.960 . S
H1442 C1455 0.961 . S
H1443 C1455 0.959 . S
H1444 C1458 0.929 . S
H1445 C1459 0.931 . S
H1446 C1461 0.930 . S
C1447 H1435 0.930 . S
C1447 C1448 1.399 . S
C1447 C1452 1.399 . S
C1448 C1447 1.399 . S
C1448 C1449 1.376 . S
C1449 H1436 0.930 . S
C1449 C1448 1.376 . S
C1449 C1450 1.388 . S
C1450 H1437 0.930 . S
C1450 C1449 1.388 . S
C1450 C1451 1.390 . S
C1451 C1450 1.390 . S
C1451 C1452 1.394 . S
C1451 C1457 1.465 . S
C1452 C1447 1.399 . S
C1452 C1451 1.394 . S
C1452 C1453 1.516 . S
C1453 C1452 1.516 . S
C1453 C1454 1.502 . S
C1453 C1455 1.561 . S
C1453 C1456 1.526 . S
C1454 H1438 0.959 . S
C1454 H1439 0.959 . S
C1454 H1440 0.961 . S
C1454 C1453 1.502 . S
C1455 H1441 0.960 . S
C1455 H1442 0.961 . S
C1455 H1443 0.959 . S
C1455 C1453 1.561 . S
C1456 C1453 1.526 . S
C1456 C1457 1.396 . S
C1456 C1461 1.390 . S
C1457 C1451 1.465 . S
C1457 C1456 1.396 . S
C1457 C1458 1.399 . S
C1458 H1444 0.929 . S
C1458 C1457 1.399 . S
C1458 C1459 1.385 . S
C1459 H1445 0.931 . S
C1459 C1458 1.385 . S
C1459 C1460 1.389 . S
C1460 C1459 1.389 . S
C1460 C1461 1.387 . S
C1461 H1446 0.930 . S
C1461 C1456 1.390 . S
C1461 C1460 1.387 . S
H1462 C1474 0.930 . S
H1463 C1476 0.930 . S
H1464 C1477 0.930 . S
H1465 C1481 0.959 . S
H1466 C1481 0.959 . S
H1467 C1481 0.961 . S
H1468 C1482 0.960 . S
H1469 C1482 0.961 . S
H1470 C1482 0.959 . S
H1471 C1485 0.929 . S
H1472 C1486 0.931 . S
H1473 C1488 0.930 . S
C1474 H1462 0.930 . S
C1474 C1475 1.399 . S
C1474 C1479 1.399 . S
C1475 C1474 1.399 . S
C1475 C1476 1.376 . S
C1476 H1463 0.930 . S
C1476 C1475 1.376 . S
C1476 C1477 1.388 . S
C1477 H1464 0.930 . S
C1477 C1476 1.388 . S
C1477 C1478 1.390 . S
C1478 C1477 1.390 . S
C1478 C1479 1.394 . S
C1478 C1484 1.465 . S
C1479 C1474 1.399 . S
C1479 C1478 1.394 . S
C1479 C1480 1.516 . S
C1480 C1479 1.516 . S
C1480 C1481 1.502 . S
C1480 C1482 1.561 . S
C1480 C1483 1.526 . S
C1481 H1465 0.959 . S
C1481 H1466 0.959 . S
C1481 H1467 0.961 . S
C1481 C1480 1.502 . S
C1482 H1468 0.960 . S
C1482 H1469 0.961 . S
C1482 H1470 0.959 . S
C1482 C1480 1.561 . S
C1483 C1480 1.526 . S
C1483 C1484 1.396 . S
C1483 C1488 1.390 . S
C1484 C1478 1.465 . S
C1484 C1483 1.396 . S
C1484 C1485 1.399 . S
C1485 H1471 0.929 . S
C1485 C1484 1.399 . S
C1485 C1486 1.385 . S
C1486 H1472 0.931 . S
C1486 C1485 1.385 . S
C1486 C1487 1.389 . S
C1487 C1486 1.389 . S
C1487 C1488 1.387 . S
C1488 H1473 0.930 . S
C1488 C1483 1.390 . S
C1488 C1487 1.387 . S
H1489 C1501 0.930 . S
H1490 C1503 0.930 . S
H1491 C1504 0.930 . S
H1492 C1508 0.959 . S
H1493 C1508 0.959 . S
H1494 C1508 0.961 . S
H1495 C1509 0.960 . S
H1496 C1509 0.961 . S
H1497 C1509 0.959 . S
H1498 C1512 0.929 . S
H1499 C1513 0.931 . S
H1500 C1515 0.930 . S
C1501 H1489 0.930 . S
C1501 C1502 1.399 . S
C1501 C1506 1.399 . S
C1502 C1501 1.399 . S
C1502 C1503 1.376 . S
C1503 H1490 0.930 . S
C1503 C1502 1.376 . S
C1503 C1504 1.388 . S
C1504 H1491 0.930 . S
C1504 C1503 1.388 . S
C1504 C1505 1.390 . S
C1505 C1504 1.390 . S
C1505 C1506 1.394 . S
C1505 C1511 1.465 . S
C1506 C1501 1.399 . S
C1506 C1505 1.394 . S
C1506 C1507 1.516 . S
C1507 C1506 1.516 . S
C1507 C1508 1.502 . S
C1507 C1509 1.561 . S
C1507 C1510 1.526 . S
C1508 H1492 0.959 . S
C1508 H1493 0.959 . S
C1508 H1494 0.961 . S
C1508 C1507 1.502 . S
C1509 H1495 0.960 . S
C1509 H1496 0.961 . S
C1509 H1497 0.959 . S
C1509 C1507 1.561 . S
C1510 C1507 1.526 . S
C1510 C1511 1.396 . S
C1510 C1515 1.390 . S
C1511 C1505 1.465 . S
C1511 C1510 1.396 . S
C1511 C1512 1.399 . S
C1512 H1498 0.929 . S
C1512 C1511 1.399 . S
C1512 C1513 1.385 . S
C1513 H1499 0.931 . S
C1513 C1512 1.385 . S
C1513 C1514 1.389 . S
C1514 C1513 1.389 . S
C1514 C1515 1.387 . S
C1515 H1500 0.930 . S
C1515 C1510 1.390 . S
C1515 C1514 1.387 . S
H1516 C1528 0.930 . S
H1517 C1530 0.930 1_655 S
H1518 C1531 0.930 . S
H1519 C1535 0.959 . S
H1520 C1535 0.959 . S
H1521 C1535 0.961 . S
H1522 C1536 0.960 . S
H1523 C1536 0.961 . S
H1524 C1536 0.959 . S
H1525 C1539 0.929 . S
H1526 C1540 0.931 . S
H1527 C1542 0.930 . S
C1528 H1516 0.930 . S
C1528 C1529 1.399 . S
C1528 C1533 1.399 . S
C1529 C1528 1.399 . S
C1529 C1530 1.376 . S
C1530 H1517 0.930 1_455 S
C1530 C1529 1.376 . S
C1530 C1531 1.388 . S
C1531 H1518 0.930 . S
C1531 C1530 1.388 . S
C1531 C1532 1.390 . S
C1532 C1531 1.390 . S
C1532 C1533 1.394 . S
C1532 C1538 1.465 . S
C1533 C1528 1.399 . S
C1533 C1532 1.394 . S
C1533 C1534 1.516 . S
C1534 C1533 1.516 . S
C1534 C1535 1.502 . S
C1534 C1536 1.561 . S
C1534 C1537 1.526 . S
C1535 H1519 0.959 . S
C1535 H1520 0.959 . S
C1535 H1521 0.961 . S
C1535 C1534 1.502 . S
C1536 H1522 0.960 . S
C1536 H1523 0.961 . S
C1536 H1524 0.959 . S
C1536 C1534 1.561 . S
C1537 C1534 1.526 . S
C1537 C1538 1.396 . S
C1537 C1542 1.390 . S
C1538 C1532 1.465 . S
C1538 C1537 1.396 . S
C1538 C1539 1.399 . S
C1539 H1525 0.929 . S
C1539 C1538 1.399 . S
C1539 C1540 1.385 . S
C1540 H1526 0.931 . S
C1540 C1539 1.385 . S
C1540 C1541 1.389 . S
C1541 C1540 1.389 . S
C1541 C1542 1.387 . S
C1542 H1527 0.930 . S
C1542 C1537 1.390 . S
C1542 C1541 1.387 . S
H1543 C1555 0.930 . S
H1544 C1557 0.930 . S
H1545 C1558 0.930 . S
H1546 C1562 0.959 . S
H1547 C1562 0.959 . S
H1548 C1562 0.961 . S
H1549 C1563 0.960 . S
H1550 C1563 0.961 . S
H1551 C1563 0.959 . S
H1552 C1566 0.929 . S
H1553 C1567 0.931 . S
H1554 C1569 0.930 . S
C1555 H1543 0.930 . S
C1555 C1556 1.399 . S
C1555 C1560 1.399 . S
C1556 C1555 1.399 . S
C1556 C1557 1.376 . S
C1557 H1544 0.930 . S
C1557 C1556 1.376 . S
C1557 C1558 1.388 . S
C1558 H1545 0.930 . S
C1558 C1557 1.388 . S
C1558 C1559 1.390 . S
C1559 C1558 1.390 . S
C1559 C1560 1.394 . S
C1559 C1565 1.465 . S
C1560 C1555 1.399 . S
C1560 C1559 1.394 . S
C1560 C1561 1.516 . S
C1561 C1560 1.516 . S
C1561 C1562 1.502 . S
C1561 C1563 1.561 . S
C1561 C1564 1.526 . S
C1562 H1546 0.959 . S
C1562 H1547 0.959 . S
C1562 H1548 0.961 . S
C1562 C1561 1.502 . S
C1563 H1549 0.960 . S
C1563 H1550 0.961 . S
C1563 H1551 0.959 . S
C1563 C1561 1.561 . S
C1564 C1561 1.526 . S
C1564 C1565 1.396 . S
C1564 C1569 1.390 . S
C1565 C1559 1.465 . S
C1565 C1564 1.396 . S
C1565 C1566 1.399 . S
C1566 H1552 0.929 . S
C1566 C1565 1.399 . S
C1566 C1567 1.385 . S
C1567 H1553 0.931 . S
C1567 C1566 1.385 . S
C1567 C1568 1.389 . S
C1568 C1567 1.389 . S
C1568 C1569 1.387 . S
C1569 H1554 0.930 . S
C1569 C1564 1.390 . S
C1569 C1568 1.387 . S
H1570 C1582 0.930 . S
H1571 C1584 0.930 . S
H1572 C1585 0.930 . S
H1573 C1589 0.959 . S
H1574 C1589 0.959 . S
H1575 C1589 0.961 . S
H1576 C1590 0.960 . S
H1577 C1590 0.961 . S
H1578 C1590 0.959 . S
H1579 C1593 0.929 . S
H1580 C1594 0.931 . S
H1581 C1596 0.930 . S
C1582 H1570 0.930 . S
C1582 C1583 1.399 . S
C1582 C1587 1.399 . S
C1583 C1582 1.399 . S
C1583 C1584 1.376 . S
C1584 H1571 0.930 . S
C1584 C1583 1.376 . S
C1584 C1585 1.388 . S
C1585 H1572 0.930 . S
C1585 C1584 1.388 . S
C1585 C1586 1.390 . S
C1586 C1585 1.390 . S
C1586 C1587 1.394 . S
C1586 C1592 1.465 . S
C1587 C1582 1.399 . S
C1587 C1586 1.394 . S
C1587 C1588 1.516 . S
C1588 C1587 1.516 . S
C1588 C1589 1.502 . S
C1588 C1590 1.561 . S
C1588 C1591 1.526 . S
C1589 H1573 0.959 . S
C1589 H1574 0.959 . S
C1589 H1575 0.961 . S
C1589 C1588 1.502 . S
C1590 H1576 0.960 . S
C1590 H1577 0.961 . S
C1590 H1578 0.959 . S
C1590 C1588 1.561 . S
C1591 C1588 1.526 . S
C1591 C1592 1.396 . S
C1591 C1596 1.390 . S
C1592 C1586 1.465 . S
C1592 C1591 1.396 . S
C1592 C1593 1.399 . S
C1593 H1579 0.929 . S
C1593 C1592 1.399 . S
C1593 C1594 1.385 . S
C1594 H1580 0.931 . S
C1594 C1593 1.385 . S
C1594 C1595 1.389 . S
C1595 C1594 1.389 . S
C1595 C1596 1.387 . S
C1596 H1581 0.930 . S
C1596 C1591 1.390 . S
C1596 C1595 1.387 . S
H1597 C1609 0.930 . S
H1598 C1611 0.930 1_545 S
H1599 C1612 0.930 . S
H1600 C1616 0.959 . S
H1601 C1616 0.959 . S
H1602 C1616 0.961 . S
H1603 C1617 0.960 . S
H1604 C1617 0.961 . S
H1605 C1617 0.959 . S
H1606 C1620 0.929 . S
H1607 C1621 0.931 . S
H1608 C1623 0.930 . S
C1609 H1597 0.930 . S
C1609 C1610 1.399 . S
C1609 C1614 1.399 . S
C1610 C1609 1.399 . S
C1610 C1611 1.376 . S
C1611 H1598 0.930 1_565 S
C1611 C1610 1.376 . S
C1611 C1612 1.388 . S
C1612 H1599 0.930 . S
C1612 C1611 1.388 . S
C1612 C1613 1.390 . S
C1613 C1612 1.390 . S
C1613 C1614 1.394 . S
C1613 C1619 1.465 . S
C1614 C1609 1.399 . S
C1614 C1613 1.394 . S
C1614 C1615 1.516 . S
C1615 C1614 1.516 . S
C1615 C1616 1.502 . S
C1615 C1617 1.561 . S
C1615 C1618 1.526 . S
C1616 H1600 0.959 . S
C1616 H1601 0.959 . S
C1616 H1602 0.961 . S
C1616 C1615 1.502 . S
C1617 H1603 0.960 . S
C1617 H1604 0.961 . S
C1617 H1605 0.959 . S
C1617 C1615 1.561 . S
C1618 C1615 1.526 . S
C1618 C1619 1.396 . S
C1618 C1623 1.390 . S
C1619 C1613 1.465 . S
C1619 C1618 1.396 . S
C1619 C1620 1.399 . S
C1620 H1606 0.929 . S
C1620 C1619 1.399 . S
C1620 C1621 1.385 . S
C1621 H1607 0.931 . S
C1621 C1620 1.385 . S
C1621 C1622 1.389 . S
C1622 C1621 1.389 . S
C1622 C1623 1.387 . S
C1623 H1608 0.930 . S
C1623 C1618 1.390 . S
C1623 C1622 1.387 . S
C557 C5 1.723 . S
C569 C243 1.691 . S
C584 C141 1.724 . S
C596 C39 1.691 . S
C611 C175 1.704 . S
C623 C73 1.704 . S
C638 C209 1.718 . S
C650 C107 1.708 . S
C665 C277 1.711 . S
C677 C515 1.723 . S
C692 C311 1.724 . S
C704 C413 1.696 . S
C719 C447 1.725 . S
C731 C345 1.697 . S
C746 C379 1.725 . S
C758 C481 1.697 . S
C773 C9 1.458 . S
C785 C349 1.446 . S
C800 C383 1.452 . S
C812 C43 1.466 . S
C827 C281 1.518 . S
C839 C77 1.526 . S
C854 C315 1.514 . S
C866 C111 1.501 . S
C881 C485 1.443 . S
C893 C145 1.436 . S
C908 C519 1.512 . S
C920 C179 1.498 . S
C935 C417 1.442 . S
C947 C213 1.435 . S
C962 C451 1.449 . S
C974 C247 1.463 . S
C989 C33 0.751 . S
C1001 C101 0.682 . S
C1016 C135 0.726 . S
C1028 C67 0.706 . S
C1043 C237 0.782 . S
C1055 C169 0.663 . S
C1070 C271 0.786 . S
C1082 C203 0.652 . S
C1097 C305 0.658 . S
C1109 C373 0.744 . S
C1124 C407 0.774 . S
C1136 C339 0.713 . S
C1151 C441 0.779 . S
C1163 C509 0.704 . S
C1178 C475 0.773 . S
C1190 C543 0.715 . S
C1205 C478 1.379 . S
C1217 C20 1.385 . S
C1232 C54 1.392 . S
C1244 C512 1.364 . S
C1259 C410 1.363 . S
C1271 C88 1.383 . S
C1286 C444 1.394 . S
C1298 C122 1.401 . S
C1313 C342 1.362 1_655 S
C1325 C156 1.383 . S
C1340 C190 1.395 . S
C1352 C376 1.370 1_565 S
C1367 C274 1.394 1_455 S
C1379 C224 1.401 . S
C1394 C258 1.389 . S
C1406 C308 1.392 1_545 S
C1421 C206 1.396 . S
C1433 C292 1.386 . S
C1448 C240 1.387 . S
C1460 C326 1.384 . S
C1475 C138 1.357 . S
C1487 C360 1.392 . S
C1502 C394 1.382 . S
C1514 C172 1.371 . S
C1529 C70 1.398 1_455 S
C1541 C428 1.387 . S
C1556 C462 1.382 . S
C1568 C104 1.371 1_545 S
C1583 C496 1.383 . S
C1595 C2 1.368 1_655 S
C1610 C36 1.400 1_565 S
C1622 C530 1.389 . S
