# Generated by pormake.
# Topology wfa, (4)-cn, num edge types: 1
# Building blocks:
#     Node 0, Type 0, BuildingBlock: ESEHIV_clean_sbu_0, # of connection points: 4
#     Node 1, Type 0, BuildingBlock: ESEHIV_clean_sbu_0, # of connection points: 4
#     Node 2, Type 0, BuildingBlock: ESEHIV_clean_sbu_0, # of connection points: 4
#     Node 3, Type 0, BuildingBlock: ESEHIV_clean_sbu_0, # of connection points: 4
#     Node 4, Type 0, BuildingBlock: ESEHIV_clean_sbu_0, # of connection points: 4
#     Node 5, Type 0, BuildingBlock: ESEHIV_clean_sbu_0, # of connection points: 4
#     Node 6, Type 0, BuildingBlock: ESEHIV_clean_sbu_0, # of connection points: 4
#     Node 7, Type 0, BuildingBlock: ESEHIV_clean_sbu_0, # of connection points: 4
#     Node 8, Type 0, BuildingBlock: ESEHIV_clean_sbu_0, # of connection points: 4
#     Node 9, Type 0, BuildingBlock: ESEHIV_clean_sbu_0, # of connection points: 4
#     Node 10, Type 0, BuildingBlock: ESEHIV_clean_sbu_0, # of connection points: 4
#     Node 11, Type 0, BuildingBlock: ESEHIV_clean_sbu_0, # of connection points: 4
#     Node 12, Type 0, BuildingBlock: ESEHIV_clean_sbu_0, # of connection points: 4
#     Node 13, Type 0, BuildingBlock: ESEHIV_clean_sbu_0, # of connection points: 4
#     Node 14, Type 0, BuildingBlock: ESEHIV_clean_sbu_0, # of connection points: 4
#     Node 15, Type 0, BuildingBlock: ESEHIV_clean_sbu_0, # of connection points: 4
#     Edge 16, Type (0, 0), None
#     Edge 17, Type (0, 0), None
#     Edge 18, Type (0, 0), None
#     Edge 19, Type (0, 0), None
#     Edge 20, Type (0, 0), None
#     Edge 21, Type (0, 0), None
#     Edge 22, Type (0, 0), None
#     Edge 23, Type (0, 0), None
#     Edge 24, Type (0, 0), None
#     Edge 25, Type (0, 0), None
#     Edge 26, Type (0, 0), None
#     Edge 27, Type (0, 0), None
#     Edge 28, Type (0, 0), None
#     Edge 29, Type (0, 0), None
#     Edge 30, Type (0, 0), None
#     Edge 31, Type (0, 0), None
#     Edge 32, Type (0, 0), None
#     Edge 33, Type (0, 0), None
#     Edge 34, Type (0, 0), None
#     Edge 35, Type (0, 0), None
#     Edge 36, Type (0, 0), None
#     Edge 37, Type (0, 0), None
#     Edge 38, Type (0, 0), None
#     Edge 39, Type (0, 0), None
#     Edge 40, Type (0, 0), None
#     Edge 41, Type (0, 0), None
#     Edge 42, Type (0, 0), None
#     Edge 43, Type (0, 0), None
#     Edge 44, Type (0, 0), None
#     Edge 45, Type (0, 0), None
#     Edge 46, Type (0, 0), None
#     Edge 47, Type (0, 0), None
# Relax obj value: 0.208
# Max RMSD: 0.174
# Mean RMSD: 0.156
data_MOF--net-wfa--node1-ESEHIV_clean_sbu_0--edge1-none
_symmetry_space_group_name_H-M    P1
_symmetry_Int_Tables_number       1
_symmetry_cell_setting            triclinic
loop_
_symmetry_equiv_pos_as_xyz
'x, y, z'
_cell_length_a     22.334496
_cell_length_b     22.336184
_cell_length_c     11.832001
_cell_angle_alpha  90.495311
_cell_angle_beta   90.435692
_cell_angle_gamma 89.192193
loop_
_atom_site_label
_atom_site_type_symbol
_atom_site_fract_x
_atom_site_fract_y
_atom_site_fract_z
_atom_type_partial_charge
Cu0 Cu 0.71234 0.15738 0.02758 0.0
N1 N 0.65354 0.21695 0.04974 0.0
N2 N 0.55697 0.2197 0.10057 0.0
C3 C 0.61465 0.21393 0.13615 0.0
C4 C 0.55936 0.22957 -0.01043 0.0
C5 C 0.61881 0.2298 0.9588 0.0
O6 O 0.65977 0.09636 0.96698 0.0
C7 C 0.78348 1.08161 0.1757 0.0
O8 O 0.77074 1.04118 0.09808 0.0
H9 H 0.62768 0.19705 0.21827 0.0
H10 H 0.63414 0.22559 0.87254 0.0
N11 N 0.7627 0.18048 0.9098 0.0
N12 N 0.80987 0.18047 0.74271 0.0
C13 C 0.76299 0.15963 0.80228 0.0
C14 C 0.81005 0.2167 0.91811 0.0
C15 C 0.83926 0.21659 0.81583 0.0
C16 C 0.61172 0.08602 0.02034 0.0
O17 O 0.61223 0.08713 0.13118 0.0
H18 H 0.73207 0.12625 0.7712 0.0
H19 H 0.82442 0.23873 -0.00477 0.0
O20 O 0.76076 0.13435 0.16485 0.0
H21 H 0.52126 0.22605 0.93338 0.0
H22 H 0.88174 0.23694 0.80124 0.0
Cu23 Cu 0.61712 0.72918 0.05558 0.0
N24 N 0.6515 0.69196 0.18824 0.0
N25 N 0.57932 0.63162 0.25067 0.0
C26 C 0.63424 0.63452 0.20501 0.0
C27 C 0.56739 0.68699 0.28786 0.0
C28 C 0.61696 0.71985 0.26687 0.0
O29 O 0.56405 0.6622 0.01003 0.0
C30 C 0.6525 0.83657 0.14012 0.0
O31 O 0.69852 0.8193 0.07919 0.0
H32 H 0.65843 0.59565 0.1734 0.0
H33 H 0.62393 0.76404 0.30025 0.0
N34 N 0.65439 0.75032 0.91717 0.0
N35 N 0.66512 0.79467 0.74749 0.0
C36 C 0.62764 0.78363 0.83431 0.0
C37 C 0.7111 0.74201 0.88306 0.0
C38 C 0.71775 0.7689 0.77929 0.0
C39 C 0.59526 0.61476 0.9858 0.0
O40 O 0.65338 0.62047 0.97868 0.0
H41 H 0.5818 0.79987 0.83844 0.0
H42 H 0.74535 0.71859 0.93067 0.0
O43 O 0.60226 0.80981 0.12435 0.0
H44 H 0.52741 0.7012 0.33236 0.0
H45 H 0.75901 0.77051 0.73206 0.0
Cu46 Cu 0.93804 0.63688 0.0481 0.0
N47 N 0.97333 0.69449 0.14347 0.0
N48 N 0.96469 0.6616 0.32015 0.0
C49 C 0.99625 0.65866 0.22429 0.0
C50 C 0.93036 0.71116 0.30996 0.0
C51 C 0.93779 0.73288 0.20195 0.0
O52 O 1.00501 0.57991 0.0214 0.0
C53 C 0.82731 0.65747 0.15211 0.0
O54 O 0.82805 0.70058 0.07736 0.0
H55 H 1.02342 0.62001 0.20461 0.0
H56 H 0.90923 0.76642 0.16294 0.0
N57 N 0.91366 0.66246 0.9044 0.0
N58 N 0.873 0.66406 0.73053 0.0
C59 C 0.88395 0.63083 0.82375 0.0
C60 C 0.92336 0.71638 0.85967 0.0
C61 C 0.8983 0.71762 0.75321 0.0
C62 C 1.05514 0.60229 -0.00885 0.0
O63 O 1.05781 0.65971 0.9691 0.0
H64 H 0.86813 0.58574 0.83565 0.0
H65 H 0.94595 0.7526 0.90278 0.0
O66 O 0.86705 0.6155 0.14274 0.0
H67 H 0.89525 0.72445 0.3679 0.0
H68 H 0.89674 0.75611 0.69815 0.0
Cu69 Cu 0.09971 0.93091 0.03927 0.0
N70 N 1.04894 0.94789 0.16656 0.0
N71 N 0.1049 1.01812 0.25307 0.0
C72 C 1.05603 1.00688 0.18968 0.0
C73 C 0.11739 0.96461 0.29935 0.0
C74 C 1.07687 0.92393 0.25717 0.0
O75 O 0.12063 1.01313 -0.00975 0.0
C76 C 0.15662 0.83142 0.14155 0.0
O77 O 0.11167 0.8029 0.09438 0.0
H78 H 1.02698 1.04175 0.15728 0.0
H79 H 1.07639 0.8769 0.27713 0.0
N80 N 1.06946 0.88421 0.91579 0.0
N81 N 1.06559 0.82266 0.76285 0.0
C82 C 0.10041 0.84567 0.84695 0.0
C83 C 1.01347 0.88542 0.87323 0.0
C84 C 1.011 0.84801 0.77967 0.0
C85 C 1.07872 1.052 0.97266 0.0
O86 O 1.02433 1.03282 0.95236 0.0
H87 H 0.14772 0.83573 0.85709 0.0
H88 H 0.97713 0.91259 0.90664 0.0
O89 O 0.16673 0.88509 0.10975 0.0
H90 H 0.15555 0.95469 0.35301 0.0
H91 H 0.97187 0.84075 0.72701 0.0
Cu92 Cu 0.23605 1.06682 0.4394 0.0
N93 N 0.21895 0.1174 0.31197 0.0
N94 N 0.1485 1.06135 0.22652 0.0
C95 C 0.15989 0.1104 0.28935 0.0
C96 C 0.20187 1.04858 0.17982 0.0
C97 C 0.24268 0.08916 0.22134 0.0
O98 O 0.15386 1.04591 0.48877 0.0
C99 C 0.33561 1.01004 0.33703 0.0
O100 O 0.36398 1.05511 0.38412 0.0
H101 H 0.12513 0.13956 0.32194 0.0
H102 H 0.28966 0.08958 0.20085 0.0
N103 N 0.28275 0.09719 0.56279 0.0
N104 N 0.34426 0.10116 0.7157 0.0
C105 C 0.32132 1.06631 0.63156 0.0
C106 C 0.28144 0.15317 0.60545 0.0
C107 C 0.31882 0.15571 0.69898 0.0
C108 C 0.11505 0.08788 0.5066 0.0
O109 O 0.13433 0.14224 0.5268 0.0
H110 H 0.33132 1.01901 0.62135 0.0
H111 H 0.25423 0.18947 0.57215 0.0
O112 O 0.28197 0.9998 0.36896 0.0
H113 H 0.21161 1.01026 0.12637 0.0
H114 H 0.32601 0.19485 0.75171 0.0
Cu115 Cu 0.52991 0.22876 0.43131 0.0
N116 N 0.47227 0.19341 0.33608 0.0
N117 N 0.50537 0.20228 0.15962 0.0
C118 C 0.50819 0.17056 0.2552 0.0
C119 C 0.45574 0.23653 0.16975 0.0
C120 C 0.4339 0.22897 0.27769 0.0
O121 O 0.58696 0.16184 0.45774 0.0
C122 C 0.50927 0.33952 0.32751 0.0
O123 O 0.46611 0.33873 0.40227 0.0
H124 H 0.54679 0.14333 0.27476 0.0
H125 H 0.40028 0.25744 0.31677 0.0
N126 N 0.50435 0.25309 0.57516 0.0
N127 N 0.50278 0.29367 0.74918 0.0
C128 C 0.53598 0.2828 0.6558 0.0
C129 C 0.45047 0.24328 0.62007 0.0
C130 C 0.44925 0.2683 0.72663 0.0
C131 C 0.56467 0.11168 0.48797 0.0
O132 O 0.50726 0.10892 0.51019 0.0
H133 H 0.58104 0.2987 0.64378 0.0
H134 H 0.41426 0.22067 0.57702 0.0
O135 O 0.55124 0.29978 0.33673 0.0
H136 H 0.4425 0.27169 0.11196 0.0
H137 H 0.41078 0.26978 0.78184 0.0
Cu138 Cu 0.43766 0.55026 0.42291 0.0
N139 N 0.47498 0.51607 0.29005 0.0
N140 N 0.53561 0.58823 0.22877 0.0
C141 C 0.53251 0.53317 0.27365 0.0
C142 C 0.48035 0.60046 0.19145 0.0
C143 C 0.44727 0.55095 0.21182 0.0
O144 O 0.50462 0.60324 0.46888 0.0
C145 C 0.33044 0.51469 0.33817 0.0
O146 O 0.34777 0.46869 0.39893 0.0
H147 H 0.57126 0.50878 0.30515 0.0
H148 H 0.40308 0.54422 0.17827 0.0
N149 N 0.41646 0.51293 0.56115 0.0
N150 N 0.37218 0.50223 0.73095 0.0
C151 C 0.38319 0.5397 0.64417 0.0
C152 C 0.42473 0.45622 0.5951 0.0
C153 C 0.39788 0.44957 0.69895 0.0
C154 C 0.55198 0.57193 0.49312 0.0
O155 O 0.54616 0.51382 0.49994 0.0
H156 H 0.36702 0.58555 0.64023 0.0
H157 H 0.44815 0.42198 0.54737 0.0
O158 O 0.35704 0.565 0.35419 0.0
H159 H 0.46636 0.64059 0.1473 0.0
H160 H 0.39633 0.40833 0.74616 0.0
Cu161 Cu 1.00937 0.45474 0.45223 0.0
N162 N 0.94979 0.51352 0.43014 0.0
N163 N 0.9473 0.61004 0.3793 0.0
C164 C 0.95289 0.55234 0.3437 0.0
C165 C 0.93733 0.60776 0.4903 0.0
C166 C 0.93698 0.54833 0.52108 0.0
O167 O 1.07039 0.50735 0.51259 0.0
C168 C 0.08522 0.38371 0.30393 0.0
O169 O 0.12564 0.39656 0.38145 0.0
H170 H 0.96974 0.53922 0.26154 0.0
H171 H 0.94112 0.53305 0.60734 0.0
N172 N 0.98635 0.40436 0.56998 0.0
N173 N 0.98654 0.35707 0.73687 0.0
C174 C 1.00718 0.4041 0.67749 0.0
C175 C 0.95038 0.35683 0.56149 0.0
C176 C 0.95061 0.32755 0.66364 0.0
C177 C 1.08081 0.55526 0.45893 0.0
O178 O 1.07971 0.55451 0.34809 0.0
H179 H 1.04041 0.43514 0.70867 0.0
H180 H 0.92851 0.34236 0.48429 0.0
O181 O 1.03244 0.40632 0.31491 0.0
H182 H 0.94084 0.64589 0.54646 0.0
H183 H 0.93054 0.28491 0.67801 0.0
Cu184 Cu 0.45362 1.0105 0.95145 0.0
N185 N 0.5124 0.9509 0.92933 0.0
N186 N 0.60897 0.94815 0.87848 0.0
C187 C 0.55129 0.95391 0.84291 0.0
C188 C 0.60658 0.93829 0.9895 0.0
C189 C 0.54713 0.93806 0.02027 0.0
O190 O 0.50621 1.0715 0.01204 0.0
C191 C 0.38249 0.08627 0.80334 0.0
O192 O 0.39522 0.1267 0.88097 0.0
H193 H 0.53826 0.97079 0.76079 0.0
H194 H 0.5318 0.94228 0.10652 0.0
N195 N 0.40323 0.98744 0.0692 0.0
N196 N 0.35596 0.98756 0.23617 0.0
C197 C 0.40289 1.00835 0.17668 0.0
C198 C 0.35589 0.95121 0.06088 0.0
C199 C 0.32663 0.95137 0.16311 0.0
C200 C 0.55426 1.08183 0.95868 0.0
O201 O 0.55376 1.08073 0.84784 0.0
H202 H 0.43381 1.04173 0.20778 0.0
H203 H 0.34157 0.92912 0.98378 0.0
O204 O 0.40522 1.03354 0.81417 0.0
H205 H 0.64468 0.94181 0.04569 0.0
H206 H 0.28416 0.93099 0.17769 0.0
Cu207 Cu 0.54892 0.4386 0.92343 0.0
N208 N 0.51454 0.47581 0.79075 0.0
N209 N 0.5867 0.53617 0.72832 0.0
C210 C 0.53178 0.53326 0.77402 0.0
C211 C 0.59862 0.48081 0.69105 0.0
C212 C 0.54907 0.44793 0.71207 0.0
O213 O 0.60201 0.50555 0.96896 0.0
C214 C 0.51347 0.33127 0.83885 0.0
O215 O 0.46743 0.34862 0.89965 0.0
H216 H 0.5076 0.57211 0.80568 0.0
H217 H 0.5421 0.40374 0.67869 0.0
N218 N 0.51163 0.41747 0.06184 0.0
N219 N 0.5009 0.37315 0.23155 0.0
C220 C 0.53838 0.38415 0.1447 0.0
C221 C 0.45494 0.42584 0.09601 0.0
C222 C 0.44829 0.39899 0.19981 0.0
C223 C 0.5708 0.55299 -0.00679 0.0
O224 O 0.51268 0.54728 0.00038 0.0
H225 H 0.58421 0.36788 0.14055 0.0
H226 H 0.42071 0.4493 0.04843 0.0
O227 O 0.56374 0.35797 0.85467 0.0
H228 H 0.63859 0.46662 0.64648 0.0
H229 H 0.40706 0.39745 0.24711 0.0
Cu230 Cu 0.22786 0.53119 0.93093 0.0
N231 N 0.19259 0.4736 0.83549 0.0
N232 N 0.20123 0.50655 0.65885 0.0
C233 C 0.16967 0.50944 0.7547 0.0
C234 C 0.23559 0.45699 0.669 0.0
C235 C 0.22816 0.43524 0.77698 0.0
O236 O 0.16088 0.58815 0.95764 0.0
C237 C 0.3386 0.51063 0.82703 0.0
O238 O 0.33789 0.46752 0.90181 0.0
H239 H 0.14247 0.54807 0.77442 0.0
H240 H 0.25674 0.40171 0.81597 0.0
N241 N 0.25223 0.50558 0.07461 0.0
N242 N 0.29296 0.50395 0.2484 0.0
C243 C 0.28198 0.5372 0.15523 0.0
C244 C 0.24251 0.45167 0.11935 0.0
C245 C 0.2676 0.45041 0.22579 0.0
C246 C 0.11075 0.56576 0.98787 0.0
O247 O 0.10808 0.50834 0.0099 0.0
H248 H 0.2978 0.58229 0.14334 0.0
H249 H 0.21988 0.41547 0.07627 0.0
O250 O 0.29886 0.55259 0.83636 0.0
H251 H 0.27071 0.44374 0.61106 0.0
H252 H 0.26912 0.41194 0.28089 0.0
Cu253 Cu 1.06595 0.23721 0.93989 0.0
N254 N 0.1167 0.22015 0.81263 0.0
N255 N 1.06079 0.14983 0.72623 0.0
C256 C 0.10964 0.16113 0.78963 0.0
C257 C 1.04827 0.20331 0.67984 0.0
C258 C 0.08875 0.24403 0.72196 0.0
O259 O 1.04496 0.15502 0.98901 0.0
C260 C 1.00912 0.33672 0.83758 0.0
O261 O 1.05409 0.36523 0.8847 0.0
H262 H 0.13869 0.1263 0.82219 0.0
H263 H 0.0892 0.29106 0.70193 0.0
N264 N 0.09624 0.28391 0.06333 0.0
N265 N 0.10015 0.34546 0.21626 0.0
C266 C 1.06531 0.32244 0.13221 0.0
C267 C 0.15224 0.28271 0.1058 0.0
C268 C 0.15475 0.32012 0.19935 0.0
C269 C 0.08685 0.11615 0.00673 0.0
O270 O 0.14124 0.1353 0.02714 0.0
H271 H 1.01799 0.33238 0.12212 0.0
H272 H 0.18858 0.25556 0.07234 0.0
O273 O 0.99898 0.28306 0.86936 0.0
H274 H 1.01011 0.21318 0.62616 0.0
H275 H 0.1939 0.32741 0.25195 0.0
Cu276 Cu 0.92983 0.10103 0.53979 0.0
N277 N 0.94683 1.05048 0.6673 0.0
N278 N 1.01721 0.10658 0.75282 0.0
C279 C 1.00587 1.0575 0.69005 0.0
C280 C 0.96381 0.11935 0.7994 0.0
C281 C 0.92304 1.07874 0.75785 0.0
O282 O 1.01207 0.12185 0.49053 0.0
C283 C 0.83027 0.1579 0.64194 0.0
O284 O 0.80187 0.11282 0.59491 0.0
H285 H 1.04066 1.02832 0.65764 0.0
H286 H 0.87604 1.07831 0.77825 0.0
N287 N 0.88316 1.07067 0.41634 0.0
N288 N 0.82171 1.06672 0.26335 0.0
C289 C 0.84462 0.10156 0.34753 0.0
C290 C 0.88447 1.01469 0.37367 0.0
C291 C 0.84712 1.01216 0.28009 0.0
C292 C 1.05085 1.07984 0.47285 0.0
O293 O 1.03157 1.02547 0.45278 0.0
H294 H 0.83462 0.14886 0.35774 0.0
H295 H 0.91167 0.97838 0.407 0.0
O296 O 0.88392 0.16811 0.61008 0.0
H297 H 0.95404 0.15768 0.85281 0.0
H298 H 0.83994 0.97302 0.22736 0.0
Cu299 Cu 0.63606 0.93906 0.54774 0.0
N300 N 0.69368 0.97445 0.64298 0.0
N301 N 0.66057 0.96558 0.81943 0.0
C302 C 0.65774 0.99728 0.72383 0.0
C303 C 0.71021 0.93136 0.80934 0.0
C304 C 0.73206 0.93892 0.70141 0.0
O305 O 0.57899 1.00596 0.52126 0.0
C306 C 0.65678 0.82835 0.65158 0.0
O307 O 0.69996 0.82918 0.57688 0.0
H308 H 0.61913 1.02449 0.70424 0.0
H309 H 0.76573 0.91048 0.66237 0.0
N310 N 0.66163 0.91471 0.40389 0.0
N311 N 0.66323 0.87407 0.22993 0.0
C312 C 0.63001 0.88496 0.32328 0.0
C313 C 0.7155 0.92454 0.35896 0.0
C314 C 0.71673 0.89951 0.25241 0.0
C315 C 0.60128 1.05612 0.49102 0.0
O316 O 0.65869 1.05888 0.46879 0.0
H317 H 0.58495 0.86907 0.33529 0.0
H318 H 0.75168 0.94721 0.40197 0.0
O319 O 0.61476 0.86803 0.64233 0.0
H320 H 0.72348 0.89622 0.86716 0.0
H321 H 0.75518 0.89808 0.19716 0.0
Cu322 Cu 0.72821 0.61778 0.55617 0.0
N323 N 0.69095 0.65184 0.68921 0.0
N324 N 0.6304 0.57955 0.75027 0.0
C325 C 0.63344 0.63468 0.70565 0.0
C326 C 0.68568 0.56732 0.78749 0.0
C327 C 0.71871 0.61689 0.76727 0.0
O328 O 0.66117 0.56493 0.51007 0.0
C329 C 0.83543 0.65335 0.64088 0.0
O330 O 0.81805 0.69939 0.58025 0.0
H331 H 0.59466 0.65909 0.67437 0.0
H332 H 0.7629 0.62365 0.80085 0.0
N333 N 0.74944 0.65516 0.41797 0.0
N334 N 0.79378 0.66589 0.24824 0.0
C335 C 0.78272 0.62839 0.33497 0.0
C336 C 0.74118 0.71187 0.38404 0.0
C337 C 0.76805 0.71853 0.28023 0.0
C338 C 0.61381 0.5963 0.48605 0.0
O339 O 0.61962 0.65442 0.47946 0.0
H340 H 0.79888 0.58253 0.33888 0.0
H341 H 0.71772 0.74609 0.43174 0.0
O342 O 0.80886 0.60303 0.62478 0.0
H343 H 0.69971 0.52717 0.8315 0.0
H344 H 0.7696 0.75977 0.23301 0.0
Cu345 Cu 0.15643 0.7134 0.52693 0.0
N346 N 0.21606 0.65466 0.54898 0.0
N347 N 0.2186 0.55812 0.59974 0.0
C348 C 0.21298 0.61582 0.6354 0.0
C349 C 0.22857 0.56044 0.48875 0.0
C350 C 0.22889 0.61988 0.45802 0.0
O351 O 0.09545 0.66074 0.46658 0.0
C352 C 1.08056 0.78443 0.67517 0.0
O353 O 1.04016 0.77161 0.59758 0.0
H354 H 0.19612 0.6289 0.71756 0.0
H355 H 0.22474 0.63518 0.37177 0.0
N356 N 0.17941 0.7638 0.40918 0.0
N357 N 0.17913 0.81113 0.24235 0.0
C358 C 0.15853 0.76408 0.30171 0.0
C359 C 0.21542 0.8113 0.41762 0.0
C360 C 0.21516 0.8406 0.31548 0.0
C361 C 0.08505 0.61284 0.52025 0.0
O362 O 0.08615 0.61358 0.63109 0.0
H363 H 0.12529 0.73304 0.27055 0.0
H364 H 0.23736 0.82574 0.49477 0.0
O365 O 0.13333 0.7618 0.66426 0.0
H366 H 0.22507 0.52232 0.43254 0.0
H367 H 0.23527 0.88321 0.30106 0.0
loop_
_geom_bond_atom_site_label_1
_geom_bond_atom_site_label_2
_geom_bond_distance
_geom_bond_site_symmetry_2
_ccdc_geom_bond_type
Cu0 N1 1.999 1_556 S
Cu0 O6 1.974 . S
Cu0 N11 1.985 1_545 S
Cu0 O20 1.959 1_556 S
N1 Cu0 1.999 1_554 S
N1 C3 1.263 . S
N1 C5 1.389 . S
N2 C3 1.358 . S
N2 C4 1.400 . S
C3 N1 1.263 . S
C3 N2 1.358 . S
C3 H9 0.930 . S
C4 N2 1.400 . S
C4 C5 1.351 . S
C4 H21 0.930 . S
C5 N1 1.389 . S
C5 C4 1.351 . S
C5 H10 0.930 . S
O6 Cu0 1.974 . S
O6 C16 1.282 1_545 S
C7 O8 1.261 . S
C7 O20 1.251 1_565 S
O8 C7 1.261 . S
H9 C3 0.930 . S
H10 C5 0.930 . S
N11 Cu0 1.985 1_565 S
N11 C13 1.335 . S
N11 C14 1.390 . S
N12 C13 1.345 . S
N12 C15 1.336 . S
C13 N11 1.335 . S
C13 N12 1.345 . S
C13 H18 0.930 1_565 S
C14 N11 1.390 . S
C14 C15 1.346 . S
C14 H19 0.930 . S
C15 N12 1.336 . S
C15 C14 1.346 . S
C15 H22 0.929 . S
C16 O6 1.282 1_565 S
C16 O17 1.216 . S
O17 C16 1.216 . S
H18 C13 0.930 1_545 S
H19 C14 0.930 . S
O20 Cu0 1.959 1_554 S
O20 C7 1.251 1_545 S
H21 C4 0.930 . S
H22 C15 0.929 . S
Cu23 N24 1.999 . S
Cu23 O29 1.974 1_554 S
Cu23 N34 1.985 1_554 S
Cu23 O43 1.959 . S
N24 Cu23 1.999 . S
N24 C26 1.263 . S
N24 C28 1.389 . S
N25 C26 1.358 . S
N25 C27 1.400 . S
C26 N24 1.263 . S
C26 N25 1.358 . S
C26 H32 0.930 . S
C27 N25 1.400 . S
C27 C28 1.351 . S
C27 H44 0.930 . S
C28 N24 1.389 . S
C28 C27 1.351 . S
C28 H33 0.930 . S
O29 Cu23 1.974 1_556 S
O29 C39 1.282 . S
C30 O31 1.261 . S
C30 O43 1.251 . S
O31 C30 1.261 . S
H32 C26 0.930 . S
H33 C28 0.930 . S
N34 Cu23 1.985 1_556 S
N34 C36 1.335 . S
N34 C37 1.390 . S
N35 C36 1.345 . S
N35 C38 1.336 . S
C36 N34 1.335 . S
C36 N35 1.345 . S
C36 H41 0.930 . S
C37 N34 1.390 . S
C37 C38 1.346 . S
C37 H42 0.930 . S
C38 N35 1.336 . S
C38 C37 1.346 . S
C38 H45 0.929 . S
C39 O29 1.282 . S
C39 O40 1.216 . S
O40 C39 1.216 . S
H41 C36 0.930 . S
H42 C37 0.930 . S
O43 Cu23 1.959 . S
O43 C30 1.251 . S
H44 C27 0.930 . S
H45 C38 0.929 . S
Cu46 N47 1.999 . S
Cu46 O52 1.974 1_554 S
Cu46 N57 1.985 1_554 S
Cu46 O66 1.959 . S
N47 Cu46 1.999 . S
N47 C49 1.263 . S
N47 C51 1.389 . S
N48 C49 1.358 . S
N48 C50 1.400 . S
C49 N47 1.263 . S
C49 N48 1.358 . S
C49 H55 0.930 . S
C50 N48 1.400 . S
C50 C51 1.351 . S
C50 H67 0.930 . S
C51 N47 1.389 . S
C51 C50 1.351 . S
C51 H56 0.930 . S
O52 Cu46 1.974 1_556 S
O52 C62 1.282 . S
C53 O54 1.261 . S
C53 O66 1.251 . S
O54 C53 1.261 . S
H55 C49 0.930 . S
H56 C51 0.930 . S
N57 Cu46 1.985 1_556 S
N57 C59 1.335 . S
N57 C60 1.390 . S
N58 C59 1.345 . S
N58 C61 1.336 . S
C59 N57 1.335 . S
C59 N58 1.345 . S
C59 H64 0.930 . S
C60 N57 1.390 . S
C60 C61 1.346 . S
C60 H65 0.930 . S
C61 N58 1.336 . S
C61 C60 1.346 . S
C61 H68 0.929 . S
C62 O52 1.282 . S
C62 O63 1.216 . S
O63 C62 1.216 . S
H64 C59 0.930 . S
H65 C60 0.930 . S
O66 Cu46 1.959 . S
O66 C53 1.251 . S
H67 C50 0.930 . S
H68 C61 0.929 . S
Cu69 N70 1.999 1_556 S
Cu69 O75 1.974 . S
Cu69 N80 1.985 1_455 S
Cu69 O89 1.959 1_556 S
N70 Cu69 1.999 1_554 S
N70 C72 1.263 . S
N70 C74 1.389 . S
N71 C72 1.358 . S
N71 C73 1.400 . S
C72 N70 1.263 . S
C72 N71 1.358 . S
C72 H78 0.930 . S
C73 N71 1.400 . S
C73 C74 1.351 . S
C73 H90 0.930 . S
C74 N70 1.389 . S
C74 C73 1.351 . S
C74 H79 0.930 . S
O75 Cu69 1.974 . S
O75 C85 1.282 1_455 S
C76 O77 1.261 . S
C76 O89 1.251 1_655 S
O77 C76 1.261 . S
H78 C72 0.930 . S
H79 C74 0.930 . S
N80 Cu69 1.985 1_655 S
N80 C82 1.335 . S
N80 C83 1.390 . S
N81 C82 1.345 . S
N81 C84 1.336 . S
C82 N80 1.335 . S
C82 N81 1.345 . S
C82 H87 0.930 1_655 S
C83 N80 1.390 . S
C83 C84 1.346 . S
C83 H88 0.930 . S
C84 N81 1.336 . S
C84 C83 1.346 . S
C84 H91 0.929 . S
C85 O75 1.282 1_655 S
C85 O86 1.216 . S
O86 C85 1.216 . S
H87 C82 0.930 1_455 S
H88 C83 0.930 . S
O89 Cu69 1.959 1_554 S
O89 C76 1.251 1_455 S
H90 C73 0.930 . S
H91 C84 0.929 . S
Cu92 N93 1.999 . S
Cu92 O98 1.974 . S
Cu92 N103 1.985 1_565 S
Cu92 O112 1.959 . S
N93 Cu92 1.999 . S
N93 C95 1.263 . S
N93 C97 1.389 . S
N94 C95 1.358 . S
N94 C96 1.400 . S
C95 N93 1.263 . S
C95 N94 1.358 . S
C95 H101 0.930 . S
C96 N94 1.400 . S
C96 C97 1.351 . S
C96 H113 0.930 . S
C97 N93 1.389 . S
C97 C96 1.351 . S
C97 H102 0.930 . S
O98 Cu92 1.974 . S
O98 C108 1.282 1_565 S
C99 O100 1.261 . S
C99 O112 1.251 1_545 S
O100 C99 1.261 . S
H101 C95 0.930 . S
H102 C97 0.930 . S
N103 Cu92 1.985 1_545 S
N103 C105 1.335 . S
N103 C106 1.390 . S
N104 C105 1.345 . S
N104 C107 1.336 . S
C105 N103 1.335 . S
C105 N104 1.345 . S
C105 H110 0.930 1_545 S
C106 N103 1.390 . S
C106 C107 1.346 . S
C106 H111 0.930 . S
C107 N104 1.336 . S
C107 C106 1.346 . S
C107 H114 0.929 . S
C108 O98 1.282 1_545 S
C108 O109 1.216 . S
O109 C108 1.216 . S
H110 C105 0.930 1_565 S
H111 C106 0.930 . S
O112 Cu92 1.959 . S
O112 C99 1.251 1_565 S
H113 C96 0.930 . S
H114 C107 0.929 . S
Cu115 N116 1.999 . S
Cu115 O121 1.974 . S
Cu115 N126 1.985 . S
Cu115 O135 1.959 . S
N116 Cu115 1.999 . S
N116 C118 1.263 . S
N116 C120 1.389 . S
N117 C118 1.358 . S
N117 C119 1.400 . S
C118 N116 1.263 . S
C118 N117 1.358 . S
C118 H124 0.930 . S
C119 N117 1.400 . S
C119 C120 1.351 . S
C119 H136 0.930 . S
C120 N116 1.389 . S
C120 C119 1.351 . S
C120 H125 0.930 . S
O121 Cu115 1.974 . S
O121 C131 1.282 . S
C122 O123 1.261 . S
C122 O135 1.251 . S
O123 C122 1.261 . S
H124 C118 0.930 . S
H125 C120 0.930 . S
N126 Cu115 1.985 . S
N126 C128 1.335 . S
N126 C129 1.390 . S
N127 C128 1.345 . S
N127 C130 1.336 . S
C128 N126 1.335 . S
C128 N127 1.345 . S
C128 H133 0.930 . S
C129 N126 1.390 . S
C129 C130 1.346 . S
C129 H134 0.930 . S
C130 N127 1.336 . S
C130 C129 1.346 . S
C130 H137 0.929 . S
C131 O121 1.282 . S
C131 O132 1.216 . S
O132 C131 1.216 . S
H133 C128 0.930 . S
H134 C129 0.930 . S
O135 Cu115 1.959 . S
O135 C122 1.251 . S
H136 C119 0.930 . S
H137 C130 0.929 . S
Cu138 N139 1.999 . S
Cu138 O144 1.974 . S
Cu138 N149 1.985 . S
Cu138 O158 1.959 . S
N139 Cu138 1.999 . S
N139 C141 1.263 . S
N139 C143 1.389 . S
N140 C141 1.358 . S
N140 C142 1.400 . S
C141 N139 1.263 . S
C141 N140 1.358 . S
C141 H147 0.930 . S
C142 N140 1.400 . S
C142 C143 1.351 . S
C142 H159 0.930 . S
C143 N139 1.389 . S
C143 C142 1.351 . S
C143 H148 0.930 . S
O144 Cu138 1.974 . S
O144 C154 1.282 . S
C145 O146 1.261 . S
C145 O158 1.251 . S
O146 C145 1.261 . S
H147 C141 0.930 . S
H148 C143 0.930 . S
N149 Cu138 1.985 . S
N149 C151 1.335 . S
N149 C152 1.390 . S
N150 C151 1.345 . S
N150 C153 1.336 . S
C151 N149 1.335 . S
C151 N150 1.345 . S
C151 H156 0.930 . S
C152 N149 1.390 . S
C152 C153 1.346 . S
C152 H157 0.930 . S
C153 N150 1.336 . S
C153 C152 1.346 . S
C153 H160 0.929 . S
C154 O144 1.282 . S
C154 O155 1.216 . S
O155 C154 1.216 . S
H156 C151 0.930 . S
H157 C152 0.930 . S
O158 Cu138 1.959 . S
O158 C145 1.251 . S
H159 C142 0.930 . S
H160 C153 0.929 . S
Cu161 N162 1.999 . S
Cu161 O167 1.974 . S
Cu161 N172 1.985 1_655 S
Cu161 O181 1.959 . S
N162 Cu161 1.999 . S
N162 C164 1.263 . S
N162 C166 1.389 . S
N163 C164 1.358 . S
N163 C165 1.400 . S
C164 N162 1.263 . S
C164 N163 1.358 . S
C164 H170 0.930 . S
C165 N163 1.400 . S
C165 C166 1.351 . S
C165 H182 0.930 . S
C166 N162 1.389 . S
C166 C165 1.351 . S
C166 H171 0.930 . S
O167 Cu161 1.974 . S
O167 C177 1.282 1_655 S
C168 O169 1.261 . S
C168 O181 1.251 1_455 S
O169 C168 1.261 . S
H170 C164 0.930 . S
H171 C166 0.930 . S
N172 Cu161 1.985 1_455 S
N172 C174 1.335 . S
N172 C175 1.390 . S
N173 C174 1.345 . S
N173 C176 1.336 . S
C174 N172 1.335 . S
C174 N173 1.345 . S
C174 H179 0.930 1_455 S
C175 N172 1.390 . S
C175 C176 1.346 . S
C175 H180 0.930 . S
C176 N173 1.336 . S
C176 C175 1.346 . S
C176 H183 0.929 . S
C177 O167 1.282 1_455 S
C177 O178 1.216 . S
O178 C177 1.216 . S
H179 C174 0.930 1_655 S
H180 C175 0.930 . S
O181 Cu161 1.959 . S
O181 C168 1.251 1_655 S
H182 C165 0.930 . S
H183 C176 0.929 . S
Cu184 N185 1.999 1_554 S
Cu184 O190 1.974 . S
Cu184 N195 1.985 1_565 S
Cu184 O204 1.959 1_554 S
N185 Cu184 1.999 1_556 S
N185 C187 1.263 . S
N185 C189 1.389 . S
N186 C187 1.358 . S
N186 C188 1.400 . S
C187 N185 1.263 . S
C187 N186 1.358 . S
C187 H193 0.930 . S
C188 N186 1.400 . S
C188 C189 1.351 . S
C188 H205 0.930 . S
C189 N185 1.389 . S
C189 C188 1.351 . S
C189 H194 0.930 . S
O190 Cu184 1.974 . S
O190 C200 1.282 1_565 S
C191 O192 1.261 . S
C191 O204 1.251 1_545 S
O192 C191 1.261 . S
H193 C187 0.930 . S
H194 C189 0.930 . S
N195 Cu184 1.985 1_545 S
N195 C197 1.335 . S
N195 C198 1.390 . S
N196 C197 1.345 . S
N196 C199 1.336 . S
C197 N195 1.335 . S
C197 N196 1.345 . S
C197 H202 0.930 1_545 S
C198 N195 1.390 . S
C198 C199 1.346 . S
C198 H203 0.930 . S
C199 N196 1.336 . S
C199 C198 1.346 . S
C199 H206 0.929 . S
C200 O190 1.282 1_545 S
C200 O201 1.216 . S
O201 C200 1.216 . S
H202 C197 0.930 1_565 S
H203 C198 0.930 . S
O204 Cu184 1.959 1_556 S
O204 C191 1.251 1_565 S
H205 C188 0.930 . S
H206 C199 0.929 . S
Cu207 N208 1.999 . S
Cu207 O213 1.974 1_556 S
Cu207 N218 1.985 1_556 S
Cu207 O227 1.959 . S
N208 Cu207 1.999 . S
N208 C210 1.263 . S
N208 C212 1.389 . S
N209 C210 1.358 . S
N209 C211 1.400 . S
C210 N208 1.263 . S
C210 N209 1.358 . S
C210 H216 0.930 . S
C211 N209 1.400 . S
C211 C212 1.351 . S
C211 H228 0.930 . S
C212 N208 1.389 . S
C212 C211 1.351 . S
C212 H217 0.930 . S
O213 Cu207 1.974 1_554 S
O213 C223 1.282 . S
C214 O215 1.261 . S
C214 O227 1.251 . S
O215 C214 1.261 . S
H216 C210 0.930 . S
H217 C212 0.930 . S
N218 Cu207 1.985 1_554 S
N218 C220 1.335 . S
N218 C221 1.390 . S
N219 C220 1.345 . S
N219 C222 1.336 . S
C220 N218 1.335 . S
C220 N219 1.345 . S
C220 H225 0.930 . S
C221 N218 1.390 . S
C221 C222 1.346 . S
C221 H226 0.930 . S
C222 N219 1.336 . S
C222 C221 1.346 . S
C222 H229 0.929 . S
C223 O213 1.282 . S
C223 O224 1.216 . S
O224 C223 1.216 . S
H225 C220 0.930 . S
H226 C221 0.930 . S
O227 Cu207 1.959 . S
O227 C214 1.251 . S
H228 C211 0.930 . S
H229 C222 0.929 . S
Cu230 N231 1.999 . S
Cu230 O236 1.974 1_556 S
Cu230 N241 1.985 1_556 S
Cu230 O250 1.959 . S
N231 Cu230 1.999 . S
N231 C233 1.263 . S
N231 C235 1.389 . S
N232 C233 1.358 . S
N232 C234 1.400 . S
C233 N231 1.263 . S
C233 N232 1.358 . S
C233 H239 0.930 . S
C234 N232 1.400 . S
C234 C235 1.351 . S
C234 H251 0.930 . S
C235 N231 1.389 . S
C235 C234 1.351 . S
C235 H240 0.930 . S
O236 Cu230 1.974 1_554 S
O236 C246 1.282 . S
C237 O238 1.261 . S
C237 O250 1.251 . S
O238 C237 1.261 . S
H239 C233 0.930 . S
H240 C235 0.930 . S
N241 Cu230 1.985 1_554 S
N241 C243 1.335 . S
N241 C244 1.390 . S
N242 C243 1.345 . S
N242 C245 1.336 . S
C243 N241 1.335 . S
C243 N242 1.345 . S
C243 H248 0.930 . S
C244 N241 1.390 . S
C244 C245 1.346 . S
C244 H249 0.930 . S
C245 N242 1.336 . S
C245 C244 1.346 . S
C245 H252 0.929 . S
C246 O236 1.282 . S
C246 O247 1.216 . S
O247 C246 1.216 . S
H248 C243 0.930 . S
H249 C244 0.930 . S
O250 Cu230 1.959 . S
O250 C237 1.251 . S
H251 C234 0.930 . S
H252 C245 0.929 . S
Cu253 N254 1.999 1_554 S
Cu253 O259 1.974 . S
Cu253 N264 1.985 1_655 S
Cu253 O273 1.959 1_554 S
N254 Cu253 1.999 1_556 S
N254 C256 1.263 . S
N254 C258 1.389 . S
N255 C256 1.358 . S
N255 C257 1.400 . S
C256 N254 1.263 . S
C256 N255 1.358 . S
C256 H262 0.930 . S
C257 N255 1.400 . S
C257 C258 1.351 . S
C257 H274 0.930 . S
C258 N254 1.389 . S
C258 C257 1.351 . S
C258 H263 0.930 . S
O259 Cu253 1.974 . S
O259 C269 1.282 1_655 S
C260 O261 1.261 . S
C260 O273 1.251 1_455 S
O261 C260 1.261 . S
H262 C256 0.930 . S
H263 C258 0.930 . S
N264 Cu253 1.985 1_455 S
N264 C266 1.335 . S
N264 C267 1.390 . S
N265 C266 1.345 . S
N265 C268 1.336 . S
C266 N264 1.335 . S
C266 N265 1.345 . S
C266 H271 0.930 1_455 S
C267 N264 1.390 . S
C267 C268 1.346 . S
C267 H272 0.930 . S
C268 N265 1.336 . S
C268 C267 1.346 . S
C268 H275 0.929 . S
C269 O259 1.282 1_455 S
C269 O270 1.216 . S
O270 C269 1.216 . S
H271 C266 0.930 1_655 S
H272 C267 0.930 . S
O273 Cu253 1.959 1_556 S
O273 C260 1.251 1_655 S
H274 C257 0.930 . S
H275 C268 0.929 . S
Cu276 N277 1.999 . S
Cu276 O282 1.974 . S
Cu276 N287 1.985 1_545 S
Cu276 O296 1.959 . S
N277 Cu276 1.999 . S
N277 C279 1.263 . S
N277 C281 1.389 . S
N278 C279 1.358 . S
N278 C280 1.400 . S
C279 N277 1.263 . S
C279 N278 1.358 . S
C279 H285 0.930 . S
C280 N278 1.400 . S
C280 C281 1.351 . S
C280 H297 0.930 . S
C281 N277 1.389 . S
C281 C280 1.351 . S
C281 H286 0.930 . S
O282 Cu276 1.974 . S
O282 C292 1.282 1_545 S
C283 O284 1.261 . S
C283 O296 1.251 1_565 S
O284 C283 1.261 . S
H285 C279 0.930 . S
H286 C281 0.930 . S
N287 Cu276 1.985 1_565 S
N287 C289 1.335 . S
N287 C290 1.390 . S
N288 C289 1.345 . S
N288 C291 1.336 . S
C289 N287 1.335 . S
C289 N288 1.345 . S
C289 H294 0.930 1_565 S
C290 N287 1.390 . S
C290 C291 1.346 . S
C290 H295 0.930 . S
C291 N288 1.336 . S
C291 C290 1.346 . S
C291 H298 0.929 . S
C292 O282 1.282 1_565 S
C292 O293 1.216 . S
O293 C292 1.216 . S
H294 C289 0.930 1_545 S
H295 C290 0.930 . S
O296 Cu276 1.959 . S
O296 C283 1.251 1_545 S
H297 C280 0.930 . S
H298 C291 0.929 . S
Cu299 N300 1.999 . S
Cu299 O305 1.974 . S
Cu299 N310 1.985 . S
Cu299 O319 1.959 . S
N300 Cu299 1.999 . S
N300 C302 1.263 . S
N300 C304 1.389 . S
N301 C302 1.358 . S
N301 C303 1.400 . S
C302 N300 1.263 . S
C302 N301 1.358 . S
C302 H308 0.930 . S
C303 N301 1.400 . S
C303 C304 1.351 . S
C303 H320 0.930 . S
C304 N300 1.389 . S
C304 C303 1.351 . S
C304 H309 0.930 . S
O305 Cu299 1.974 . S
O305 C315 1.282 . S
C306 O307 1.261 . S
C306 O319 1.251 . S
O307 C306 1.261 . S
H308 C302 0.930 . S
H309 C304 0.930 . S
N310 Cu299 1.985 . S
N310 C312 1.335 . S
N310 C313 1.390 . S
N311 C312 1.345 . S
N311 C314 1.336 . S
C312 N310 1.335 . S
C312 N311 1.345 . S
C312 H317 0.930 . S
C313 N310 1.390 . S
C313 C314 1.346 . S
C313 H318 0.930 . S
C314 N311 1.336 . S
C314 C313 1.346 . S
C314 H321 0.929 . S
C315 O305 1.282 . S
C315 O316 1.216 . S
O316 C315 1.216 . S
H317 C312 0.930 . S
H318 C313 0.930 . S
O319 Cu299 1.959 . S
O319 C306 1.251 . S
H320 C303 0.930 . S
H321 C314 0.929 . S
Cu322 N323 1.999 . S
Cu322 O328 1.974 . S
Cu322 N333 1.985 . S
Cu322 O342 1.959 . S
N323 Cu322 1.999 . S
N323 C325 1.263 . S
N323 C327 1.389 . S
N324 C325 1.358 . S
N324 C326 1.400 . S
C325 N323 1.263 . S
C325 N324 1.358 . S
C325 H331 0.930 . S
C326 N324 1.400 . S
C326 C327 1.351 . S
C326 H343 0.930 . S
C327 N323 1.389 . S
C327 C326 1.351 . S
C327 H332 0.930 . S
O328 Cu322 1.974 . S
O328 C338 1.282 . S
C329 O330 1.261 . S
C329 O342 1.251 . S
O330 C329 1.261 . S
H331 C325 0.930 . S
H332 C327 0.930 . S
N333 Cu322 1.985 . S
N333 C335 1.335 . S
N333 C336 1.390 . S
N334 C335 1.345 . S
N334 C337 1.336 . S
C335 N333 1.335 . S
C335 N334 1.345 . S
C335 H340 0.930 . S
C336 N333 1.390 . S
C336 C337 1.346 . S
C336 H341 0.930 . S
C337 N334 1.336 . S
C337 C336 1.346 . S
C337 H344 0.929 . S
C338 O328 1.282 . S
C338 O339 1.216 . S
O339 C338 1.216 . S
H340 C335 0.930 . S
H341 C336 0.930 . S
O342 Cu322 1.959 . S
O342 C329 1.251 . S
H343 C326 0.930 . S
H344 C337 0.929 . S
Cu345 N346 1.999 . S
Cu345 O351 1.974 . S
Cu345 N356 1.985 1_455 S
Cu345 O365 1.959 . S
N346 Cu345 1.999 . S
N346 C348 1.263 . S
N346 C350 1.389 . S
N347 C348 1.358 . S
N347 C349 1.400 . S
C348 N346 1.263 . S
C348 N347 1.358 . S
C348 H354 0.930 . S
C349 N347 1.400 . S
C349 C350 1.351 . S
C349 H366 0.930 . S
C350 N346 1.389 . S
C350 C349 1.351 . S
C350 H355 0.930 . S
O351 Cu345 1.974 . S
O351 C361 1.282 1_455 S
C352 O353 1.261 . S
C352 O365 1.251 1_655 S
O353 C352 1.261 . S
H354 C348 0.930 . S
H355 C350 0.930 . S
N356 Cu345 1.985 1_655 S
N356 C358 1.335 . S
N356 C359 1.390 . S
N357 C358 1.345 . S
N357 C360 1.336 . S
C358 N356 1.335 . S
C358 N357 1.345 . S
C358 H363 0.930 1_655 S
C359 N356 1.390 . S
C359 C360 1.346 . S
C359 H364 0.930 . S
C360 N357 1.336 . S
C360 C359 1.346 . S
C360 H367 0.929 . S
C361 O351 1.282 1_655 S
C361 O362 1.216 . S
O362 C361 1.216 . S
H363 C358 0.930 1_455 S
H364 C359 0.930 . S
O365 Cu345 1.959 . S
O365 C352 1.251 1_455 S
H366 C349 0.930 . S
H367 C360 0.929 . S
N117 N2 1.077 . S
N140 N25 1.709 . S
N48 N163 1.077 . S
N71 N94 0.474 . S
N186 N301 1.077 . S
N324 N209 1.709 . S
N347 N232 1.077 . S
N255 N278 0.474 . S
N12 C283 1.834 . S
C306 N35 2.273 . S
N58 C329 2.726 . S
N81 C352 2.128 . S
N104 C191 2.128 . S
N127 C214 2.726 . S
N150 C237 2.273 . S
N173 C260 1.834 . S
C99 N196 1.834 . S
C122 N219 2.273 . S
C145 N242 2.726 . S
N265 C168 2.128 . S
C7 N288 2.128 . S
N311 C30 2.726 . S
N334 C53 2.273 . S
C76 N357 1.834 . S
C200 C16 2.948 1_544 S
C223 C39 4.305 1_554 S
C62 C246 4.369 1_656 S
C269 C85 3.158 1_444 S
C108 C292 3.158 1_445 S
C315 C131 4.370 1_565 S
C338 C154 4.305 . S
C361 C177 2.947 1_655 S
