# Generated by pormake.
# Topology whv, (6)-cn, num edge types: 1
# Building blocks:
#     Node 0, Type 0, BuildingBlock: IZENUY_clean_sbu_0, # of connection points: 6
#     Node 1, Type 0, BuildingBlock: IZENUY_clean_sbu_0, # of connection points: 6
#     Node 2, Type 0, BuildingBlock: IZENUY_clean_sbu_0, # of connection points: 6
#     Node 3, Type 0, BuildingBlock: IZENUY_clean_sbu_0, # of connection points: 6
#     Node 4, Type 0, BuildingBlock: IZENUY_clean_sbu_0, # of connection points: 6
#     Node 5, Type 0, BuildingBlock: IZENUY_clean_sbu_0, # of connection points: 6
#     Node 6, Type 0, BuildingBlock: IZENUY_clean_sbu_0, # of connection points: 6
#     Node 7, Type 0, BuildingBlock: IZENUY_clean_sbu_0, # of connection points: 6
#     Node 8, Type 0, BuildingBlock: IZENUY_clean_sbu_0, # of connection points: 6
#     Node 9, Type 0, BuildingBlock: IZENUY_clean_sbu_0, # of connection points: 6
#     Node 10, Type 0, BuildingBlock: IZENUY_clean_sbu_0, # of connection points: 6
#     Node 11, Type 0, BuildingBlock: IZENUY_clean_sbu_0, # of connection points: 6
#     Node 12, Type 0, BuildingBlock: IZENUY_clean_sbu_0, # of connection points: 6
#     Node 13, Type 0, BuildingBlock: IZENUY_clean_sbu_0, # of connection points: 6
#     Node 14, Type 0, BuildingBlock: IZENUY_clean_sbu_0, # of connection points: 6
#     Node 15, Type 0, BuildingBlock: IZENUY_clean_sbu_0, # of connection points: 6
#     Edge 16, Type (0, 0), BuildingBlock: KIFKEQ_clean_linker_1, # of connection points: 2
#     Edge 17, Type (0, 0), BuildingBlock: KIFKEQ_clean_linker_1, # of connection points: 2
#     Edge 18, Type (0, 0), BuildingBlock: KIFKEQ_clean_linker_1, # of connection points: 2
#     Edge 19, Type (0, 0), BuildingBlock: KIFKEQ_clean_linker_1, # of connection points: 2
#     Edge 20, Type (0, 0), BuildingBlock: KIFKEQ_clean_linker_1, # of connection points: 2
#     Edge 21, Type (0, 0), BuildingBlock: KIFKEQ_clean_linker_1, # of connection points: 2
#     Edge 22, Type (0, 0), BuildingBlock: KIFKEQ_clean_linker_1, # of connection points: 2
#     Edge 23, Type (0, 0), BuildingBlock: KIFKEQ_clean_linker_1, # of connection points: 2
#     Edge 24, Type (0, 0), BuildingBlock: KIFKEQ_clean_linker_1, # of connection points: 2
#     Edge 25, Type (0, 0), BuildingBlock: KIFKEQ_clean_linker_1, # of connection points: 2
#     Edge 26, Type (0, 0), BuildingBlock: KIFKEQ_clean_linker_1, # of connection points: 2
#     Edge 27, Type (0, 0), BuildingBlock: KIFKEQ_clean_linker_1, # of connection points: 2
#     Edge 28, Type (0, 0), BuildingBlock: KIFKEQ_clean_linker_1, # of connection points: 2
#     Edge 29, Type (0, 0), BuildingBlock: KIFKEQ_clean_linker_1, # of connection points: 2
#     Edge 30, Type (0, 0), BuildingBlock: KIFKEQ_clean_linker_1, # of connection points: 2
#     Edge 31, Type (0, 0), BuildingBlock: KIFKEQ_clean_linker_1, # of connection points: 2
#     Edge 32, Type (0, 0), BuildingBlock: KIFKEQ_clean_linker_1, # of connection points: 2
#     Edge 33, Type (0, 0), BuildingBlock: KIFKEQ_clean_linker_1, # of connection points: 2
#     Edge 34, Type (0, 0), BuildingBlock: KIFKEQ_clean_linker_1, # of connection points: 2
#     Edge 35, Type (0, 0), BuildingBlock: KIFKEQ_clean_linker_1, # of connection points: 2
#     Edge 36, Type (0, 0), BuildingBlock: KIFKEQ_clean_linker_1, # of connection points: 2
#     Edge 37, Type (0, 0), BuildingBlock: KIFKEQ_clean_linker_1, # of connection points: 2
#     Edge 38, Type (0, 0), BuildingBlock: KIFKEQ_clean_linker_1, # of connection points: 2
#     Edge 39, Type (0, 0), BuildingBlock: KIFKEQ_clean_linker_1, # of connection points: 2
#     Edge 40, Type (0, 0), BuildingBlock: KIFKEQ_clean_linker_1, # of connection points: 2
#     Edge 41, Type (0, 0), BuildingBlock: KIFKEQ_clean_linker_1, # of connection points: 2
#     Edge 42, Type (0, 0), BuildingBlock: KIFKEQ_clean_linker_1, # of connection points: 2
#     Edge 43, Type (0, 0), BuildingBlock: KIFKEQ_clean_linker_1, # of connection points: 2
#     Edge 44, Type (0, 0), BuildingBlock: KIFKEQ_clean_linker_1, # of connection points: 2
#     Edge 45, Type (0, 0), BuildingBlock: KIFKEQ_clean_linker_1, # of connection points: 2
#     Edge 46, Type (0, 0), BuildingBlock: KIFKEQ_clean_linker_1, # of connection points: 2
#     Edge 47, Type (0, 0), BuildingBlock: KIFKEQ_clean_linker_1, # of connection points: 2
#     Edge 48, Type (0, 0), BuildingBlock: KIFKEQ_clean_linker_1, # of connection points: 2
#     Edge 49, Type (0, 0), BuildingBlock: KIFKEQ_clean_linker_1, # of connection points: 2
#     Edge 50, Type (0, 0), BuildingBlock: KIFKEQ_clean_linker_1, # of connection points: 2
#     Edge 51, Type (0, 0), BuildingBlock: KIFKEQ_clean_linker_1, # of connection points: 2
#     Edge 52, Type (0, 0), BuildingBlock: KIFKEQ_clean_linker_1, # of connection points: 2
#     Edge 53, Type (0, 0), BuildingBlock: KIFKEQ_clean_linker_1, # of connection points: 2
#     Edge 54, Type (0, 0), BuildingBlock: KIFKEQ_clean_linker_1, # of connection points: 2
#     Edge 55, Type (0, 0), BuildingBlock: KIFKEQ_clean_linker_1, # of connection points: 2
#     Edge 56, Type (0, 0), BuildingBlock: KIFKEQ_clean_linker_1, # of connection points: 2
#     Edge 57, Type (0, 0), BuildingBlock: KIFKEQ_clean_linker_1, # of connection points: 2
#     Edge 58, Type (0, 0), BuildingBlock: KIFKEQ_clean_linker_1, # of connection points: 2
#     Edge 59, Type (0, 0), BuildingBlock: KIFKEQ_clean_linker_1, # of connection points: 2
#     Edge 60, Type (0, 0), BuildingBlock: KIFKEQ_clean_linker_1, # of connection points: 2
#     Edge 61, Type (0, 0), BuildingBlock: KIFKEQ_clean_linker_1, # of connection points: 2
#     Edge 62, Type (0, 0), BuildingBlock: KIFKEQ_clean_linker_1, # of connection points: 2
#     Edge 63, Type (0, 0), BuildingBlock: KIFKEQ_clean_linker_1, # of connection points: 2
# Relax obj value: 0.237
# Max RMSD: 0.246
# Mean RMSD: 0.246
data_MOF--net-whv--node1-IZENUY_clean_sbu_0--edge1-KIFKEQ_clean_linker_1
_symmetry_space_group_name_H-M    P1
_symmetry_Int_Tables_number       1
_symmetry_cell_setting            triclinic
loop_
_symmetry_equiv_pos_as_xyz
'x, y, z'
_cell_length_a     51.320327
_cell_length_b     51.213807
_cell_length_c     26.091178
_cell_angle_alpha  90.017663
_cell_angle_beta   89.948699
_cell_angle_gamma 89.98459
loop_
_atom_site_label
_atom_site_type_symbol
_atom_site_fract_x
_atom_site_fract_y
_atom_site_fract_z
_atom_type_partial_charge
Fe0 Fe 0.29955 0.22903 0.04139 0.0
Fe1 Fe 0.32178 0.17662 1.00823 0.0
O2 O 0.32381 0.20483 0.04656 0.0
Fe3 Fe 0.35021 0.20929 0.08918 0.0
O4 O 0.36037 0.23831 0.05569 0.0
O5 O 0.32175 0.25659 0.05535 0.0
O6 O 0.30775 0.23454 0.97589 0.0
C7 C 0.30676 0.21761 0.94134 0.0
C8 C 0.30591 0.22858 0.14414 0.0
O9 O 0.30616 0.19344 0.95265 0.0
C10 C 0.34125 0.15784 0.10452 0.0
O11 O 0.27292 0.20597 0.02444 0.0
O12 O 0.29098 0.16776 0.03616 0.0
O13 O 0.33053 0.22807 0.13698 0.0
O14 O 0.29052 0.22478 0.10739 0.0
C15 C 0.37366 0.18525 1.00136 0.0
O16 O 0.3373 0.15503 0.05663 0.0
O17 O 0.3418 0.18025 0.12439 0.0
C18 C 0.27087 0.1814 0.03027 0.0
O19 O 0.3523 0.18389 0.97814 0.0
O20 O 0.37427 0.19117 0.04881 0.0
C21 C 0.3461 0.25774 0.04684 0.0
Fe22 Fe 0.55043 0.55183 0.287 0.0
Fe23 Fe 0.6012 0.57575 0.2497 0.0
O24 O 0.57445 0.57618 0.29191 0.0
Fe25 Fe 0.57136 0.60131 0.33798 0.0
O26 O 0.54141 0.61232 0.30928 0.0
O27 O 0.52326 0.5736 0.30557 0.0
O28 O 0.54305 0.56137 0.22288 0.0
C29 C 0.55886 0.56087 0.18641 0.0
C30 C 0.55306 0.55561 0.39018 0.0
O31 O 0.58322 0.56071 0.19507 0.0
C32 C 0.62306 0.59274 0.34503 0.0
O33 O 0.57345 0.52582 0.26588 0.0
O34 O 0.61166 0.54458 0.27353 0.0
O35 O 0.55413 0.58041 0.38586 0.0
O36 O 0.55626 0.54128 0.35154 0.0
C37 C 0.59177 0.6275 0.2497 0.0
O38 O 0.62392 0.59084 0.29639 0.0
O39 O 0.60153 0.5918 0.36826 0.0
C40 C 0.59818 0.52423 0.26881 0.0
O41 O 0.59199 0.60682 0.22379 0.0
O42 O 0.58804 0.62658 0.298 0.0
C43 C 0.52195 0.59821 0.29981 0.0
Fe44 Fe 0.22666 0.79905 0.54248 0.0
Fe45 Fe 0.20454 0.85136 0.50853 0.0
O46 O 0.20233 0.82321 0.54695 0.0
Fe47 Fe 0.1757 0.81877 0.58909 0.0
O48 O 0.16577 0.78974 0.55544 0.0
O49 O 0.2044 0.77149 0.55609 0.0
O50 O 0.21895 0.79339 0.47681 0.0
C51 C 0.22025 0.81025 0.44215 0.0
C52 C 0.2196 0.7996 0.64504 0.0
O53 O 0.22053 0.83445 0.45329 0.0
C54 C 0.18452 0.87024 0.60445 0.0
O55 O 0.25336 0.82211 0.52594 0.0
O56 O 0.23516 0.8603 0.537 0.0
O57 O 0.19504 0.80002 0.63728 0.0
O58 O 0.23524 0.80346 0.60867 0.0
C59 C 0.15272 0.84273 0.50085 0.0
O60 O 0.18873 0.873 0.55661 0.0
O61 O 0.1839 0.84784 0.62437 0.0
C62 C 0.25533 0.8467 0.5315 0.0
O63 O 0.17419 0.84402 0.4779 0.0
O64 O 0.15189 0.83686 0.54829 0.0
C65 C 0.18012 0.77031 0.54701 0.0
Fe66 Fe 0.97573 0.47713 0.78976 0.0
Fe67 Fe 0.92315 0.45733 0.75283 0.0
O68 O 0.95021 0.45428 0.79372 0.0
Fe69 Fe 0.95229 0.42815 0.83763 0.0
O70 O 0.9812 0.41605 0.80628 0.0
O71 O 1.00154 0.45353 0.80719 0.0
O72 O 0.98221 0.46791 0.72506 0.0
C73 C 0.96623 0.47018 0.68909 0.0
C74 C 0.9727 0.47194 0.89253 0.0
O75 O 0.94193 0.47188 0.69847 0.0
C76 C 0.90119 0.43957 0.84783 0.0
O77 O 0.95454 0.50473 0.76983 0.0
O78 O 0.91519 0.48887 0.77931 0.0
O79 O 0.97109 0.44726 0.88617 0.0
O80 O 0.97048 0.48715 0.85494 0.0
C81 C 0.92943 0.40493 0.74872 0.0
O82 O 0.89991 0.44297 0.79952 0.0
O83 O 0.92297 0.43862 0.8701 0.0
C84 C 0.9301 0.50819 0.77444 0.0
O85 O 0.92964 0.42609 0.7243 0.0
O86 O 0.93392 0.40468 0.79674 0.0
C87 C 1.00139 0.42922 0.79763 0.0
Fe88 Fe 0.70731 0.85787 0.0867 0.0
Fe89 Fe 0.67648 0.82247 0.01414 0.0
O90 O 0.70361 0.82798 0.05422 0.0
Fe91 Fe 0.72699 0.8032 0.06298 0.0
O92 O 0.71932 0.80134 0.12994 0.0
O93 O 0.72377 0.8433 0.14363 0.0
O94 O 0.67719 0.85328 0.12037 0.0
C95 C 0.65534 0.85073 0.09916 0.0
C96 C 0.7575 0.85008 0.06346 0.0
O97 O 0.6537 0.84281 0.05295 0.0
C98 C 0.7195 0.79967 0.96059 0.0
O99 O 0.6913 0.87754 0.03605 0.0
O100 O 0.68497 0.84954 0.9734 0.0
O101 O 0.75459 0.82603 0.07431 0.0
O102 O 0.73779 0.86396 0.05463 0.0
C103 C 0.67965 0.77616 0.06504 0.0
O104 O 0.69496 0.80118 0.96852 0.0
O105 O 0.7354 0.80397 0.99627 0.0
C106 C 0.68615 0.87272 0.9893 0.0
O107 O 0.66603 0.7956 0.05337 0.0
O108 O 0.70379 0.77586 0.0546 0.0
C109 C 0.72273 0.81999 0.16031 0.0
Fe110 Fe 0.45693 0.42516 0.76076 0.0
Fe111 Fe 0.47798 0.47473 0.8109 0.0
O112 O 0.45273 0.45184 0.80295 0.0
Fe113 Fe 0.42369 0.45553 0.83836 0.0
O114 O 0.42875 0.42467 0.86989 0.0
O115 O 0.437 0.40215 0.79982 0.0
O116 O 0.48467 0.41355 0.79655 0.0
C117 C 0.50448 0.4269 0.80729 0.0
C118 C 0.40641 0.43627 0.74105 0.0
O119 O 0.50461 0.4513 0.79931 0.0
C120 C 0.43191 0.50615 0.81612 0.0
O121 O 0.4775 0.44389 0.71453 0.0
O122 O 0.47609 0.48405 0.74466 0.0
O123 O 0.40273 0.44053 0.78857 0.0
O124 O 0.42915 0.43485 0.72309 0.0
C125 C 0.4632 0.4697 0.90936 0.0
O126 O 0.45598 0.5025 0.82518 0.0
O127 O 0.41716 0.48684 0.80892 0.0
C128 C 0.47947 0.46851 0.70787 0.0
O129 O 0.48107 0.46616 0.87733 0.0
O130 O 0.43962 0.47108 0.89468 0.0
C131 C 0.43073 0.40312 0.84704 0.0
Fe132 Fe 0.79925 0.22559 0.56409 0.0
Fe133 Fe 0.81935 0.17125 0.58876 0.0
O134 O 0.82276 0.20092 0.55537 0.0
Fe135 Fe 0.84972 0.2063 0.51467 0.0
O136 O 0.86012 0.23375 0.55261 0.0
O137 O 0.82213 0.25303 0.55477 0.0
O138 O 0.80716 0.22784 0.63088 0.0
C139 C 0.80367 0.2094 0.66166 0.0
C140 C 0.80635 0.2293 0.46171 0.0
O141 O 0.80274 0.18601 0.64542 0.0
C142 C 0.84043 0.15573 0.49167 0.0
O143 O 0.77183 0.20258 0.57601 0.0
O144 O 0.78891 0.16464 0.55708 0.0
O145 O 0.83092 0.22697 0.46844 0.0
O146 O 0.79067 0.22464 0.49767 0.0
C147 C 0.87126 0.1789 0.60047 0.0
O148 O 0.8355 0.15129 0.53864 0.0
O149 O 0.84135 0.17877 0.47501 0.0
C150 C 0.76909 0.17845 0.56544 0.0
O151 O 0.84946 0.17643 0.622 0.0
O152 O 0.87277 0.18651 0.55401 0.0
C153 C 0.84638 0.2532 0.56388 0.0
Fe154 Fe 0.04942 0.55311 0.31344 0.0
Fe155 Fe 0.104 0.57175 0.33949 0.0
O156 O 0.07501 0.57547 0.30412 0.0
Fe157 Fe 0.07114 0.60177 0.26105 0.0
O158 O 0.04366 0.61406 0.29707 0.0
O159 O 0.02313 0.57676 0.3008 0.0
O160 O 0.04663 0.56253 0.37952 0.0
C161 C 0.06449 0.55887 0.41145 0.0
C162 C 0.04731 0.55806 0.21038 0.0
O163 O 0.08796 0.55681 0.39641 0.0
C164 C 0.12154 0.59006 0.24159 0.0
O165 O 0.0711 0.52518 0.32843 0.0
O166 O 0.11007 0.54019 0.31079 0.0
O167 O 0.05035 0.58273 0.21535 0.0
O168 O 0.05092 0.54304 0.24784 0.0
C169 C 0.09737 0.62426 0.34666 0.0
O170 O 0.1251 0.58614 0.28924 0.0
O171 O 0.09883 0.59149 0.22352 0.0
C172 C 0.09504 0.52113 0.31849 0.0
O173 O 0.09927 0.60288 0.37012 0.0
O174 O 0.0913 0.62491 0.29934 0.0
C175 C 0.02374 0.60112 0.30882 0.0
Fe176 Fe 0.80151 0.73017 0.5373 0.0
Fe177 Fe 0.82122 0.67739 0.50102 0.0
O178 O 0.824 0.70439 0.54232 0.0
Fe179 Fe 0.84954 0.70612 0.58748 0.0
O180 O 0.86218 0.73516 0.55742 0.0
O181 O 0.82493 0.75576 0.55622 0.0
O182 O 0.81163 0.73663 0.47303 0.0
C183 C 0.80945 0.72065 0.43698 0.0
C184 C 0.80515 0.72696 0.6404 0.0
O185 O 0.80725 0.69635 0.44637 0.0
C186 C 0.83788 0.65496 0.59621 0.0
O187 O 0.77406 0.70914 0.51618 0.0
O188 O 0.78947 0.66956 0.52638 0.0
O189 O 0.82985 0.72469 0.63575 0.0
O190 O 0.79064 0.72503 0.60177 0.0
C191 C 0.87356 0.6838 0.49867 0.0
O192 O 0.83509 0.65387 0.54776 0.0
O193 O 0.83856 0.67669 0.61881 0.0
C194 C 0.77036 0.68471 0.52113 0.0
O195 O 0.85261 0.68391 0.47372 0.0
O196 O 0.87341 0.68788 0.5469 0.0
C197 C 0.84928 0.75543 0.54796 0.0
Fe198 Fe 0.05074 0.05169 0.78617 0.0
Fe199 Fe 0.1034 0.07442 0.75646 0.0
O200 O 0.07482 0.07586 0.79371 0.0
Fe201 Fe 0.06983 0.10178 0.83725 0.0
O202 O 0.04142 0.11235 0.80262 0.0
O203 O 0.02308 0.07382 0.79969 0.0
O204 O 0.04625 0.06055 0.72023 0.0
C205 C 0.06377 0.05843 0.68708 0.0
C206 C 0.04984 0.05694 0.88933 0.0
O207 O 0.0876 0.05843 0.70034 0.0
C208 C 0.12096 0.09326 0.85407 0.0
O209 O 0.07419 0.02522 0.77006 0.0
O210 O 0.11221 0.0434 0.78403 0.0
O211 O 0.05055 0.08167 0.88334 0.0
O212 O 0.05389 0.04192 0.85201 0.0
C213 C 0.0935 0.12634 0.75106 0.0
O214 O 0.12419 0.09006 0.80604 0.0
O215 O 0.09843 0.09296 0.87327 0.0
C216 C 0.09866 0.02321 0.77713 0.0
O217 O 0.09595 0.10527 0.72671 0.0
O218 O 0.08823 0.1262 0.79874 0.0
C219 C 0.02222 0.09824 0.79158 0.0
Fe220 Fe 0.72476 0.29835 0.03701 0.0
Fe221 Fe 0.70319 0.35096 1.00319 0.0
O222 O 0.70146 0.32337 0.04325 0.0
Fe223 Fe 0.67607 0.3202 0.08853 0.0
O224 O 0.66419 0.29141 0.05662 0.0
O225 O 0.70201 0.27182 0.05457 0.0
O226 O 0.71486 0.29231 0.97253 0.0
C227 C 0.71599 0.30875 0.93708 0.0
C228 C 0.72086 0.30015 0.1402 0.0
O229 O 0.71728 0.33303 0.94725 0.0
C230 C 0.68635 0.37141 0.10034 0.0
O231 O 0.75153 0.32041 0.01655 0.0
O232 O 0.73494 0.35946 0.02778 0.0
O233 O 0.69615 0.30127 0.13508 0.0
O234 O 0.73553 0.30306 0.10195 0.0
C235 C 0.65098 0.34268 1.00201 0.0
O236 O 0.68916 0.37347 0.05193 0.0
O237 O 0.68633 0.34929 0.12149 0.0
C238 C 0.75447 0.34493 0.02169 0.0
O239 O 0.67166 0.3439 0.97626 0.0
O240 O 0.65171 0.33857 0.05005 0.0
C241 C 0.67765 0.27163 0.04616 0.0
Fe242 Fe 0.47474 0.97643 0.28509 0.0
Fe243 Fe 0.4222 0.95354 0.25515 0.0
O244 O 0.45078 0.95213 0.29233 0.0
Fe245 Fe 0.45586 0.92613 0.33557 0.0
O246 O 0.48435 0.91579 0.30084 0.0
O247 O 0.50249 0.95443 0.29847 0.0
O248 O 0.47935 0.96776 0.21907 0.0
C249 C 0.46185 0.9698 0.18593 0.0
C250 C 0.47558 0.97095 0.38815 0.0
O251 O 0.438 0.9697 0.19916 0.0
C252 C 0.4047 0.93444 0.35263 0.0
O253 O 0.4512 1.00282 0.26919 0.0
O254 O 0.41325 0.98447 0.28303 0.0
O255 O 0.47502 0.94623 0.38188 0.0
O256 O 0.47143 0.98603 0.35101 0.0
C257 C 0.4323 0.90167 0.24913 0.0
O258 O 0.40144 0.93771 0.30464 0.0
O259 O 0.42724 0.93475 0.37171 0.0
C260 C 0.42673 1.00472 0.27636 0.0
O261 O 0.42977 0.9228 0.22506 0.0
O262 O 0.43759 0.9017 0.2968 0.0
C263 C 0.50352 0.93003 0.29017 0.0
Fe264 Fe 0.20311 0.35585 0.59618 0.0
Fe265 Fe 0.17463 0.3229 0.51591 0.0
O266 O 0.20079 0.32723 0.55904 0.0
Fe267 Fe 0.22457 0.30278 0.56633 0.0
O268 O 0.21601 0.29863 0.63251 0.0
O269 O 0.21964 0.33997 0.65146 0.0
O270 O 0.17278 0.34868 0.62724 0.0
C271 C 0.15133 0.34705 0.60416 0.0
C272 C 0.25374 0.35038 0.57259 0.0
O273 O 0.15066 0.34123 0.55652 0.0
C274 C 0.219 0.30166 0.4631 0.0
O275 O 0.18696 0.37695 0.54819 0.0
O276 O 0.18362 0.35183 0.48035 0.0
O277 O 0.25145 0.32598 0.58104 0.0
O278 O 0.23371 0.36424 0.56669 0.0
C279 C 0.17769 0.27456 0.56 0.0
O280 O 0.19433 0.30379 0.46847 0.0
O281 O 0.23397 0.30544 0.50049 0.0
C282 C 0.18381 0.37424 0.50019 0.0
O283 O 0.16381 0.29402 0.54924 0.0
O284 O 0.20219 0.27535 0.5538 0.0
C285 C 0.21898 0.31622 0.66526 0.0
Fe286 Fe 0.97794 0.97603 0.31289 0.0
Fe287 Fe 0.92443 0.95564 0.34262 0.0
O288 O 0.95307 0.95265 0.30597 0.0
Fe289 Fe 0.95725 0.92613 0.2635 0.0
O290 O 0.9852 0.91499 0.29868 0.0
O291 O 1.00487 0.95284 0.30015 0.0
O292 O 0.98205 0.9675 0.37859 0.0
C293 C 0.9647 0.96969 0.41204 0.0
C294 C 0.97912 0.97 0.21017 0.0
O295 O 0.94082 0.97115 0.39906 0.0
C296 C 0.90653 0.93633 0.24551 0.0
O297 O 0.95546 1.0035 0.32837 0.0
O298 O 0.91704 0.98657 0.31357 0.0
O299 O 0.97714 0.9453 0.2164 0.0
O300 O 0.97515 0.98529 0.24705 0.0
C301 C 0.9319 0.90348 0.35064 0.0
O302 O 0.90314 0.94038 0.29325 0.0
O303 O 0.92914 0.93553 0.22691 0.0
C304 C 0.93117 1.00632 0.32012 0.0
O305 O 0.9304 0.92502 0.37345 0.0
O306 O 0.93804 0.90258 0.30327 0.0
C307 C 1.00484 0.92851 0.30943 0.0
Fe308 Fe 0.30266 0.72489 0.06499 0.0
Fe309 Fe 0.32601 0.67284 0.09663 0.0
O310 O 0.32687 0.70088 0.05758 0.0
Fe311 Fe 0.35222 0.70512 0.01247 0.0
O312 O 0.36306 0.73454 0.04399 0.0
O313 O 0.3244 0.75256 0.05017 0.0
O314 O 0.31187 0.73015 0.13053 0.0
C315 C 0.30981 0.713 0.16438 0.0
C316 C 0.3069 0.72503 0.96144 0.0
O317 O 0.30986 0.68904 0.152 0.0
C318 C 0.34387 0.65346 1.00009 0.0
O319 O 0.27654 0.70122 0.08205 0.0
O320 O 0.29516 0.66309 0.06996 0.0
O321 O 0.33162 0.72345 0.96571 0.0
O322 O 0.29245 0.72126 0.99967 0.0
C323 C 0.37757 0.6834 0.10005 0.0
O324 O 0.3419 0.65145 0.04854 0.0
O325 O 0.34304 0.67558 0.97899 0.0
C326 C 0.27484 0.67661 0.07541 0.0
O327 O 0.35672 0.68147 0.12519 0.0
O328 O 0.37707 0.6876 0.05187 0.0
C329 C 0.34895 0.75379 0.0553 0.0
Fe330 Fe 0.54786 0.0517 0.81137 0.0
Fe331 Fe 0.60149 0.07181 0.8407 0.0
O332 O 0.57284 0.07497 0.8043 0.0
Fe333 Fe 0.56873 0.10153 0.76195 0.0
O334 O 0.54088 0.11279 0.79749 0.0
O335 O 0.52104 0.07503 0.79895 0.0
O336 O 0.54388 0.0602 0.87714 0.0
C337 C 0.56126 0.05791 0.91043 0.0
C338 C 0.54658 0.05779 0.70869 0.0
O339 O 0.58511 0.05634 0.89722 0.0
C340 C 0.61939 0.09112 0.74354 0.0
O341 O 0.57025 0.02411 0.82655 0.0
O342 O 0.60869 0.04091 0.81141 0.0
O343 O 0.54866 0.08247 0.71497 0.0
O344 O 0.55053 0.04246 0.74549 0.0
C345 C 0.59445 0.12398 0.84884 0.0
O346 O 0.62278 0.087 0.79124 0.0
O347 O 0.59677 0.09202 0.72505 0.0
C348 C 0.5945 0.02121 0.81793 0.0
O349 O 0.59569 0.10244 0.87167 0.0
O350 O 0.58815 0.12494 0.80157 0.0
C351 C 0.52122 0.09934 0.80846 0.0
H352 H 0.22325 0.20254 1.00466 0.0
H353 H 0.26351 0.1288 0.0212 0.0
H354 H 0.18617 0.17955 0.96622 0.0
H355 H 0.22693 0.10634 0.98173 0.0
H356 H 0.17356 0.08991 0.83611 0.0
H357 H 0.20861 0.11055 0.88549 0.0
H358 H 0.15207 0.14148 0.99181 0.0
H359 H 0.11716 0.12049 0.94368 0.0
C360 C 0.22406 0.18149 1.00099 0.0
C361 C 0.24648 0.16762 0.0158 0.0
C362 C 0.2029 0.16837 0.97884 0.0
C363 C 0.20397 0.14126 0.97041 0.0
C364 C 0.22581 0.12728 0.98721 0.0
C365 C 0.24668 0.14024 1.01014 0.0
C366 C 0.16867 0.10079 0.8704 0.0
C367 C 0.1426 0.10342 0.886 0.0
C368 C 0.18867 0.11259 0.8986 0.0
C369 C 0.18292 0.12768 0.94223 0.0
C370 C 0.15696 0.13008 0.95816 0.0
C371 C 0.13704 0.11786 0.93071 0.0
H372 H 0.68864 0.42361 0.07656 0.0
H373 H 0.66079 0.36985 0.19203 0.0
H374 H 0.66787 0.45973 0.12296 0.0
H375 H 0.63968 0.40576 0.23711 0.0
H376 H 0.57749 0.47581 0.24694 0.0
H377 H 0.60053 0.43831 0.20971 0.0
H378 H 0.67295 0.48084 0.21691 0.0
H379 H 0.6505 0.51782 0.2551 0.0
C380 C 0.67837 0.41953 0.11194 0.0
C381 C 0.67652 0.39387 0.13059 0.0
C382 C 0.66646 0.44014 0.13839 0.0
C383 C 0.65205 0.43537 0.18331 0.0
C384 C 0.6505 0.40986 0.20236 0.0
C385 C 0.66283 0.38938 0.17664 0.0
C386 C 0.59839 0.47696 0.24155 0.0
C387 C 0.61203 0.49993 0.25382 0.0
C388 C 0.61153 0.45557 0.22013 0.0
C389 C 0.63842 0.45696 0.20989 0.0
C390 C 0.65217 0.47946 0.22381 0.0
C391 C 0.63922 0.50056 0.24601 0.0
H392 H 0.40867 0.90758 0.44256 0.0
H393 H 0.35206 0.93748 0.33488 0.0
H394 H 0.37389 0.88675 0.49135 0.0
H395 H 0.31713 0.91698 0.38496 0.0
H396 H 0.26257 0.89929 0.52183 0.0
H397 H 0.299 0.92166 0.48151 0.0
H398 H 0.33989 0.84847 0.46666 0.0
H399 H 0.30297 0.82557 0.50594 0.0
C400 C 0.38877 0.91009 0.42967 0.0
C401 C 0.38312 0.92429 0.38475 0.0
C402 C 0.36893 0.89796 0.45752 0.0
C403 C 0.34295 0.90022 0.44178 0.0
C404 C 0.33709 0.91506 0.39791 0.0
C405 C 0.35702 0.92677 0.36931 0.0
C406 C 0.27941 0.88784 0.51075 0.0
C407 C 0.27968 0.86048 0.51682 0.0
C408 C 0.30018 0.90074 0.48732 0.0
C409 C 0.32199 0.88673 0.47044 0.0
C410 C 0.32317 0.85967 0.47933 0.0
C411 C 0.3021 0.84661 0.50197 0.0
H412 H 0.83636 0.64655 0.69954 0.0
H413 H 0.86254 0.61195 0.55749 0.0
H414 H 0.85934 0.61263 0.74765 0.0
H415 H 0.88564 0.57825 0.60569 0.0
H416 H 0.9496 0.54409 0.70729 0.0
H417 H 0.9255 0.57937 0.66563 0.0
H418 H 0.85865 0.56291 0.76079 0.0
H419 H 0.88265 0.52744 0.80219 0.0
C420 C 0.84663 0.63144 0.6786 0.0
C421 C 0.84757 0.6319 0.62469 0.0
C422 C 0.85985 0.61211 0.70616 0.0
C423 C 0.87461 0.5931 0.68041 0.0
C424 C 0.87475 0.59296 0.62652 0.0
C425 C 0.86121 0.61203 0.59893 0.0
C426 C 0.93003 0.54848 0.72035 0.0
C427 C 0.91803 0.53307 0.75816 0.0
C428 C 0.91611 0.5684 0.69595 0.0
C429 C 0.89008 0.57358 0.70946 0.0
C430 C 0.87866 0.55931 0.74956 0.0
C431 C 0.89243 0.5391 0.77337 0.0
H432 H 0.76536 0.90272 0.0713 0.0
H433 H 0.80445 0.8286 0.09174 0.0
H434 H 0.80151 0.92492 0.11301 0.0
H435 H 0.84108 0.8513 0.13226 0.0
H436 H 0.9104 0.90975 0.15532 0.0
H437 H 0.87564 0.88944 0.10603 0.0
H438 H 0.81875 0.9201 0.21187 0.0
H439 H 0.85373 0.9401 0.2627 0.0
C440 C 0.78189 0.89115 0.08355 0.0
C441 C 0.78188 0.86374 0.07833 0.0
C442 C 0.80246 0.90395 0.10785 0.0
C443 C 0.8238 0.88976 0.12635 0.0
C444 C 0.82472 0.86263 0.11835 0.0
C445 C 0.80385 0.84968 0.09492 0.0
C446 C 0.8905 0.91249 0.16807 0.0
C447 C 0.88485 0.92664 0.21312 0.0
C448 C 0.87066 0.90066 0.13987 0.0
C449 C 0.84466 0.90315 0.15532 0.0
C450 C 0.83875 0.918 0.19921 0.0
C451 C 0.85871 0.92942 0.22822 0.0
H452 H 0.45391 0.54655 0.8693 0.0
H453 H 0.38189 0.52244 0.79769 0.0
H454 H 0.43106 0.58243 0.9113 0.0
H455 H 0.35926 0.55892 0.83895 0.0
H456 H 0.339 0.64532 0.89691 0.0
H457 H 0.36043 0.61147 0.84531 0.0
H458 H 0.39389 0.57859 0.98252 0.0
H459 H 0.37217 0.61191 0.03418 0.0
C460 C 0.43338 0.54927 0.86134 0.0
C461 C 0.41967 0.53136 0.83062 0.0
C462 C 0.42028 0.56971 0.88579 0.0
C463 C 0.39335 0.5731 0.87899 0.0
C464 C 0.38001 0.55661 0.84497 0.0
C465 C 0.39301 0.5358 0.82129 0.0
C466 C 0.3506 0.63059 0.91606 0.0
C467 C 0.35379 0.63119 0.96961 0.0
C468 C 0.36288 0.61132 0.88654 0.0
C469 C 0.37905 0.59271 0.90995 0.0
C470 C 0.38176 0.59294 0.96353 0.0
C471 C 0.36907 0.61182 0.99311 0.0
H472 H 0.61569 0.11823 0.65393 0.0
H473 H 0.67212 0.08702 0.7606 0.0
H474 H 0.65059 0.13886 0.60536 0.0
H475 H 0.70722 0.10732 0.71054 0.0
H476 H 0.7612 0.12578 0.57174 0.0
H477 H 0.72481 0.10328 0.61208 0.0
H478 H 0.68511 0.17675 0.63275 0.0
H479 H 0.72198 0.19975 0.59359 0.0
C480 C 0.63557 0.11537 0.66664 0.0
C481 C 0.64111 0.1009 0.7113 0.0
C482 C 0.65549 0.12738 0.63887 0.0
C483 C 0.68146 0.12474 0.65437 0.0
C484 C 0.68725 0.10955 0.69783 0.0
C485 C 0.66722 0.09795 0.7264 0.0
C486 C 0.7446 0.13727 0.58403 0.0
C487 C 0.74465 0.16471 0.57963 0.0
C488 C 0.72388 0.12429 0.60751 0.0
C489 C 0.70243 0.13834 0.62601 0.0
C490 C 0.70155 0.16553 0.6188 0.0
C491 C 0.72257 0.17865 0.59617 0.0
H492 H 0.15781 0.41724 0.53443 0.0
H493 H 0.18629 0.3805 0.39617 0.0
H494 H 0.13562 0.45024 0.48289 0.0
H495 H 0.16444 0.41408 0.34465 0.0
H496 H 0.14432 0.50391 0.29641 0.0
H497 H 0.1671 0.46727 0.33662 0.0
H498 H 0.09629 0.44524 0.41453 0.0
H499 H 0.07322 0.48126 0.37348 0.0
C500 C 0.15979 0.41651 0.49311 0.0
C501 C 0.17384 0.3963 0.46933 0.0
C502 C 0.14684 0.43522 0.46366 0.0
C503 C 0.1481 0.43441 0.40991 0.0
C504 C 0.16311 0.41499 0.38605 0.0
C505 C 0.17563 0.39589 0.41551 0.0
C506 C 0.13342 0.49083 0.321 0.0
C507 C 0.10703 0.49575 0.33227 0.0
C508 C 0.1465 0.46993 0.34404 0.0
C509 C 0.13352 0.45385 0.37931 0.0
C510 C 0.10678 0.45765 0.38796 0.0
C511 C 0.09356 0.47818 0.36413 0.0
H512 H 0.63175 0.59126 0.44831 0.0
H513 H 0.66519 0.61862 0.30606 0.0
H514 H 0.66559 0.61443 0.49613 0.0
H515 H 0.69882 0.64183 0.35397 0.0
H516 H 0.73413 0.70487 0.45557 0.0
H517 H 0.69834 0.68124 0.41476 0.0
H518 H 0.71514 0.61363 0.50783 0.0
H519 H 0.75106 0.63717 0.54846 0.0
C520 C 0.64654 0.60189 0.42725 0.0
C521 C 0.64581 0.60306 0.37339 0.0
C522 C 0.66584 0.61519 0.45465 0.0
C523 C 0.68454 0.63025 0.42877 0.0
C524 C 0.68435 0.63073 0.3749 0.0
C525 C 0.6653 0.61713 0.34747 0.0
C526 C 0.72973 0.68523 0.46835 0.0
C527 C 0.74537 0.67286 0.50527 0.0
C528 C 0.7095 0.67159 0.44447 0.0
C529 C 0.70426 0.64549 0.45762 0.0
C530 C 0.71877 0.63371 0.49692 0.0
C531 C 0.73926 0.6472 0.52024 0.0
H532 H 0.18854 0.92271 0.58381 0.0
H533 H 0.15779 0.86813 0.69483 0.0
H534 H 0.16874 0.9588 0.63191 0.0
H535 H 0.13773 0.90404 0.74172 0.0
H536 H 0.07765 0.97512 0.75487 0.0
H537 H 0.10021 0.93762 0.71691 0.0
H538 H 0.17318 0.97916 0.72542 0.0
H539 H 0.15108 0.01628 0.76428 0.0
C540 C 0.1778 0.91843 0.61856 0.0
C541 C 0.17485 0.89254 0.63543 0.0
C542 C 0.1665 0.93904 0.64607 0.0
C543 C 0.15161 0.9341 0.69033 0.0
C544 C 0.14895 0.90833 0.70756 0.0
C545 C 0.16064 0.88782 0.68076 0.0
C546 C 0.09858 0.97605 0.74973 0.0
C547 C 0.11246 0.9988 0.76257 0.0
C548 C 0.11146 0.95463 0.72786 0.0
C549 C 0.13836 0.95572 0.7177 0.0
C550 C 0.15238 0.97798 0.73228 0.0
C551 C 0.13966 0.99915 0.75493 0.0
H552 H 0.89289 0.43962 0.95139 0.0
H553 H 0.85819 0.41555 0.80815 0.0
H554 H 0.85878 0.41625 0.9984 0.0
H555 H 0.82442 0.392 0.85521 0.0
H556 H 0.79078 0.32635 0.95441 0.0
H557 H 0.82602 0.35107 0.91409 0.0
H558 H 0.80834 0.41734 1.01024 0.0
H559 H 0.77281 0.39276 0.0502 0.0
C560 C 0.87775 0.42971 0.92998 0.0
C561 C 0.87821 0.42951 0.87604 0.0
C562 C 0.85831 0.41629 0.95689 0.0
C563 C 0.83924 0.402 0.93041 0.0
C564 C 0.83915 0.40254 0.87655 0.0
C565 C 0.85829 0.41633 0.84964 0.0
C566 C 0.79483 0.34594 0.96791 0.0
C567 C 0.77908 0.3576 1.0056 0.0
C568 C 0.81476 0.3602 0.94433 0.0
C569 C 0.81964 0.38623 0.95859 0.0
C570 C 0.80497 0.39733 0.99848 0.0
C571 C 0.78472 0.38324 0.02142 0.0
H572 H 0.44762 0.05295 0.25498 0.0
H573 H 0.3743 1.01155 0.26361 0.0
H574 H 0.42503 0.09051 0.21753 0.0
H575 H 0.35216 0.04875 0.22526 0.0
H576 H 0.33719 0.10539 0.08382 0.0
H577 H 0.35678 0.06928 0.13201 0.0
H578 H 0.3874 0.12397 0.24235 0.0
H579 H 0.36753 0.15992 0.19533 0.0
C580 C 0.42671 0.05198 0.24979 0.0
C581 C 0.41287 0.02915 0.26222 0.0
C582 C 0.41381 0.07344 0.22822 0.0
C583 C 0.38693 0.07231 0.21798 0.0
C584 C 0.37294 0.04997 0.23221 0.0
C585 C 0.38568 0.02875 0.25456 0.0
C586 C 0.34778 0.10966 0.11871 0.0
C587 C 0.35071 0.13553 0.13567 0.0
C588 C 0.35896 0.08903 0.14628 0.0
C589 C 0.37369 0.09395 0.1907 0.0
C590 C 0.37629 0.1197 0.20807 0.0
C591 C 0.36472 0.14023 0.1812 0.0
H592 H 0.40952 0.40817 0.65234 0.0
H593 H 0.35398 0.44261 0.75714 0.0
H594 H 0.37395 0.38808 0.60461 0.0
H595 H 0.31833 0.42283 0.70826 0.0
H596 H 0.26222 0.403 0.5767 0.0
H597 H 0.29972 0.42547 0.6128 0.0
H598 H 0.33908 0.35175 0.63253 0.0
H599 H 0.30118 0.32884 0.59742 0.0
C600 C 0.38971 0.41188 0.66471 0.0
C601 C 0.38457 0.42705 0.70866 0.0
C602 C 0.36941 0.40019 0.63748 0.0
C603 C 0.34351 0.40385 0.6529 0.0
C604 C 0.3382 0.41982 0.69552 0.0
C605 C 0.35856 0.43112 0.72346 0.0
C606 C 0.27896 0.39146 0.5879 0.0
C607 C 0.27854 0.36399 0.58454 0.0
C608 C 0.30036 0.40442 0.60886 0.0
C609 C 0.32206 0.39031 0.62592 0.0
C610 C 0.3225 0.36305 0.61957 0.0
C611 C 0.30085 0.34996 0.59937 0.0
H612 H 0.87144 0.161 0.40729 0.0
H613 H 0.83443 0.10285 0.50284 0.0
H614 H 0.89347 0.12657 0.35921 0.0
H615 H 0.85611 0.06837 0.45344 0.0
H616 H 0.87896 0.01617 0.31674 0.0
H617 H 0.85589 0.05303 0.35406 0.0
H618 H 0.92913 0.09008 0.3895 0.0
H619 H 0.95266 0.05264 0.35338 0.0
C620 C 0.8676 0.14086 0.41749 0.0
C621 C 0.85108 0.13463 0.45891 0.0
C622 C 0.88041 0.12123 0.39013 0.0
C623 C 0.87651 0.09494 0.40279 0.0
C624 C 0.85933 0.08857 0.44291 0.0
C625 C 0.84693 0.10825 0.47109 0.0
C626 C 0.89032 0.03226 0.33175 0.0
C627 C 0.91778 0.03124 0.33255 0.0
C628 C 0.877 0.0533 0.35333 0.0
C629 C 0.89075 0.07411 0.37517 0.0
C630 C 0.91813 0.07414 0.37289 0.0
C631 C 0.93157 0.05278 0.35205 0.0
H632 H 0.17385 0.58385 0.25878 0.0
H633 H 0.11897 0.61758 0.15203 0.0
H634 H 0.20977 0.60366 0.21075 0.0
H635 H 0.15484 0.6377 0.10501 0.0
H636 H 0.22677 0.69752 0.09788 0.0
H637 H 0.18884 0.6743 0.13217 0.0
H638 H 0.22982 0.60113 0.11762 0.0
H639 H 0.2674 0.62391 0.08247 0.0
C640 C 0.16947 0.59517 0.2248 0.0
C641 C 0.14355 0.59906 0.20928 0.0
C642 C 0.19 0.60649 0.19733 0.0
C643 C 0.18498 0.62231 0.1544 0.0
C644 C 0.15918 0.62573 0.13816 0.0
C645 C 0.1387 0.61401 0.16496 0.0
C646 C 0.22748 0.67643 0.10087 0.0
C647 C 0.25024 0.66267 0.08768 0.0
C648 C 0.2058 0.66317 0.12056 0.0
C649 C 0.20661 0.63598 0.12804 0.0
C650 C 0.22884 0.62212 0.11278 0.0
C651 C 0.2503 0.63525 0.09237 0.0
H652 H 0.65458 0.86686 0.90603 0.0
H653 H 0.6925 0.92566 0.99855 0.0
H654 H 0.63225 0.90096 0.8577 0.0
H655 H 0.67052 0.9598 0.94887 0.0
H656 H 0.64654 1.01092 0.8115 0.0
H657 H 0.66988 0.97418 0.84854 0.0
H658 H 0.59691 0.93788 0.88903 0.0
H659 H 0.57313 0.97521 0.85324 0.0
C660 C 0.65857 0.88706 0.91547 0.0
C661 C 0.67542 0.89358 0.95614 0.0
C662 C 0.64559 0.90651 0.88798 0.0
C663 C 0.64964 0.93287 0.89976 0.0
C664 C 0.66718 0.93952 0.93905 0.0
C665 C 0.67975 0.92004 0.96738 0.0
C666 C 0.63528 0.99501 0.82756 0.0
C667 C 0.60786 0.99623 0.82993 0.0
C668 C 0.64876 0.97404 0.84896 0.0
C669 C 0.63518 0.95351 0.87216 0.0
C670 C 0.60778 0.95362 0.87135 0.0
C671 C 0.5942 0.97491 0.85069 0.0
H672 H 0.42412 0.17872 0.03687 0.0
H673 H 0.37563 0.1678 0.90299 0.0
H674 H 0.46039 0.15737 0.99145 0.0
H675 H 0.41124 0.1463 0.85918 0.0
H676 H 0.47121 0.08137 0.82357 0.0
H677 H 0.43645 0.10267 0.8729 0.0
H678 H 0.48809 0.16667 0.90808 0.0
H679 H 0.52255 0.14585 0.85852 0.0
C680 C 0.42121 0.17201 0.99793 0.0
C681 C 0.39688 0.17494 0.97388 0.0
C682 C 0.44188 0.15972 0.97205 0.0
C683 C 0.43838 0.14981 0.92215 0.0
C684 C 0.41432 0.15327 0.89793 0.0
C685 C 0.39396 0.16583 0.92318 0.0
C686 C 0.47505 0.10003 0.84156 0.0
C687 C 0.49949 0.11207 0.83638 0.0
C688 C 0.45524 0.11218 0.86989 0.0
C689 C 0.45969 0.13628 0.8944 0.0
C690 C 0.48422 0.14803 0.88998 0.0
C691 C 0.50382 0.13618 0.861 0.0
H692 H 0.6032 0.6757 0.29201 0.0
H693 H 0.6041 0.633 0.14888 0.0
H694 H 0.62534 0.71233 0.24931 0.0
H695 H 0.6266 0.6689 0.10767 0.0
H696 H 0.69539 0.72493 0.07318 0.0
H697 H 0.67344 0.68987 0.12085 0.0
H698 H 0.6144 0.74424 0.17072 0.0
H699 H 0.63578 0.77899 0.12269 0.0
C700 C 0.60783 0.67418 0.25161 0.0
C701 C 0.60194 0.65132 0.22412 0.0
C702 C 0.62062 0.69503 0.22732 0.0
C703 C 0.62809 0.6931 0.17552 0.0
C704 C 0.62154 0.67064 0.14787 0.0
C705 C 0.60843 0.65015 0.17163 0.0
C706 C 0.67773 0.72932 0.09427 0.0
C707 C 0.66711 0.75456 0.09351 0.0
C708 C 0.66522 0.70935 0.12154 0.0
C709 C 0.64228 0.71448 0.14945 0.0
C710 C 0.63212 0.73985 0.14983 0.0
C711 C 0.64426 0.75961 0.12183 0.0
H712 H 1.00408 0.88155 0.35778 0.0
H713 H 0.05465 0.94694 0.32488 0.0
H714 H 0.03873 0.86077 0.40663 0.0
H715 H 0.08962 0.92569 0.37358 0.0
H716 H 0.15127 0.8613 0.40322 0.0
H717 H 0.11564 0.88275 0.35944 0.0
H718 H 0.0658 0.8697 0.49017 0.0
H719 H 0.10202 0.84837 0.53549 0.0
C720 C 0.02269 0.89143 0.36055 0.0
C721 C 0.02673 0.9158 0.33674 0.0
C722 C 0.0424 0.8796 0.38912 0.0
C723 C 0.06677 0.89164 0.39398 0.0
C724 C 0.07096 0.91597 0.3702 0.0
C725 C 0.05102 0.92809 0.34225 0.0
C726 C 0.13278 0.86282 0.42304 0.0
C727 C 0.12962 0.85313 0.47327 0.0
C728 C 0.11241 0.87536 0.39783 0.0
C729 C 0.08814 0.87822 0.42164 0.0
C730 C 0.08446 0.8678 0.47108 0.0
C731 C 0.10511 0.85553 0.4969 0.0
H732 H 0.8938 0.25407 0.61036 0.0
H733 H 0.82692 0.30268 0.57813 0.0
H734 H 0.91404 0.28991 0.65714 0.0
H735 H 0.84752 0.33874 0.62472 0.0
H736 H 0.90933 0.4029 0.65228 0.0
H737 H 0.88893 0.36626 0.60937 0.0
H738 H 0.90501 0.31716 0.73994 0.0
H739 H 0.92537 0.35429 0.78412 0.0
C740 C 0.88348 0.27248 0.61287 0.0
C741 C 0.85883 0.27563 0.58999 0.0
C742 C 0.895 0.29288 0.64019 0.0
C743 C 0.88232 0.31701 0.64463 0.0
C744 C 0.85774 0.3203 0.62163 0.0
C745 C 0.84598 0.29972 0.59493 0.0
C746 C 0.90871 0.38434 0.67215 0.0
C747 C 0.91902 0.3816 0.72192 0.0
C748 C 0.89679 0.3634 0.6475 0.0
C749 C 0.89515 0.33901 0.67151 0.0
C750 C 0.90603 0.33586 0.72064 0.0
C751 C 0.91769 0.35705 0.74586 0.0
H752 H 0.60354 0.84971 0.07056 0.0
H753 H 0.65511 0.87542 0.19153 0.0
H754 H 0.56659 0.86913 0.11682 0.0
H755 H 0.61861 0.8947 0.23663 0.0
H756 H 0.55132 0.95207 0.27011 0.0
H757 H 0.58745 0.93253 0.22216 0.0
H758 H 0.54285 0.86181 0.20235 0.0
H759 H 0.50694 0.88103 0.25024 0.0
C760 C 0.60701 0.85935 0.10687 0.0
C761 C 0.63232 0.86099 0.12712 0.0
C762 C 0.58591 0.87045 0.13332 0.0
C763 C 0.58985 0.88364 0.18005 0.0
C764 C 0.61506 0.88504 0.20035 0.0
C765 C 0.63596 0.87375 0.17446 0.0
C766 C 0.54934 0.93229 0.25593 0.0
C767 C 0.52636 0.91806 0.26455 0.0
C768 C 0.56996 0.92113 0.22841 0.0
C769 C 0.56785 0.89569 0.20834 0.0
C770 C 0.54489 0.88153 0.21686 0.0
C771 C 0.52447 0.8925 0.24487 0.0
H772 H 0.39636 0.27411 0.05473 0.0
H773 H 0.32321 0.2929 0.98188 0.0
H774 H 0.418 0.30813 1.0049 0.0
H775 H 0.34508 0.32681 0.93123 0.0
H776 H 0.40232 0.36196 0.80944 0.0
H777 H 0.38112 0.32733 0.85971 0.0
H778 H 0.41615 0.35786 0.99762 0.0
H779 H 0.43689 0.39243 0.94782 0.0
C780 C 0.38483 0.28578 0.02858 0.0
C781 C 0.35802 0.281 0.0226 0.0
C782 C 0.39725 0.30518 0.99992 0.0
C783 C 0.38328 0.31994 0.96385 0.0
C784 C 0.35637 0.31552 0.95839 0.0
C785 C 0.34379 0.2964 0.98789 0.0
C786 C 0.40584 0.36088 0.85032 0.0
C787 C 0.42135 0.37975 0.87474 0.0
C788 C 0.39346 0.34134 0.87913 0.0
C789 C 0.39683 0.34006 0.93263 0.0
C790 C 0.41322 0.35832 0.95651 0.0
C791 C 0.42513 0.37806 0.92799 0.0
H792 H 0.92298 0.17874 0.57061 0.0
H793 H 0.87165 0.15541 0.694 0.0
H794 H 0.9598 0.15897 0.61664 0.0
H795 H 0.90799 0.13574 0.73873 0.0
H796 H 0.97401 0.07694 0.77219 0.0
H797 H 0.93818 0.09687 0.72406 0.0
H798 H 0.98416 0.16652 0.70191 0.0
H799 H 0.01975 0.14693 0.75006 0.0
C800 C 0.91954 0.16957 0.6074 0.0
C801 C 0.89431 0.16867 0.62836 0.0
C802 C 0.94056 0.15825 0.63369 0.0
C803 C 0.93662 0.14556 0.68096 0.0
C804 C 0.91153 0.14498 0.70202 0.0
C805 C 0.89072 0.15649 0.67632 0.0
C806 C 0.97636 0.09657 0.75744 0.0
C807 C 0.99961 0.11041 0.76556 0.0
C808 C 0.95592 0.10795 0.7298 0.0
C809 C 0.95849 0.13321 0.70908 0.0
C810 C 0.98175 0.14695 0.71696 0.0
C811 C 1.00199 0.13577 0.74513 0.0
H812 H 0.12646 0.66499 0.30919 0.0
H813 H 0.0898 0.63577 0.44662 0.0
H814 H 0.14717 0.69988 0.35955 0.0
H815 H 0.11008 0.67056 0.4965 0.0
H816 H 0.1297 0.75424 0.55297 0.0
H817 H 0.1085 0.72016 0.50271 0.0
H818 H 0.18221 0.70074 0.43257 0.0
H819 H 0.20364 0.73476 0.48362 0.0
C820 C 0.12238 0.6664 0.34984 0.0
C821 C 0.10644 0.64782 0.37403 0.0
C822 C 0.13448 0.68608 0.37873 0.0
C823 C 0.13038 0.68776 0.432 0.0
C824 C 0.11356 0.66979 0.45556 0.0
C825 C 0.10192 0.64993 0.427 0.0
C826 C 0.14149 0.7424 0.5275 0.0
C827 C 0.16839 0.74702 0.52261 0.0
C828 C 0.12932 0.72297 0.49859 0.0
C829 C 0.14365 0.70798 0.46338 0.0
C830 C 0.17065 0.71222 0.45903 0.0
C831 C 0.18296 0.7314 0.48877 0.0
H832 H 0.87678 0.6681 0.3993 0.0
H833 H 0.92371 0.67737 0.5358 0.0
H834 H 0.91335 0.64845 0.35521 0.0
H835 H 0.96093 0.65784 0.49016 0.0
H836 H 0.02473 0.648 0.35833 0.0
H837 H 0.98964 0.66874 0.40696 0.0
H838 H 0.93849 0.60472 0.36924 0.0
H839 H 0.97366 0.58365 0.32113 0.0
C840 C 0.89497 0.66617 0.42001 0.0
C841 C 0.89717 0.67422 0.47151 0.0
C842 C 0.91589 0.65473 0.39456 0.0
C843 C 0.9398 0.65135 0.41943 0.0
C844 C 0.94258 0.66022 0.47022 0.0
C845 C 0.92134 0.67139 0.49626 0.0
C846 C 1.00594 0.63841 0.36004 0.0
C847 C 1.00185 0.61431 0.33528 0.0
C848 C 0.986 0.65017 0.38842 0.0
C849 C 0.96145 0.6383 0.39189 0.0
C850 C 0.95727 0.61431 0.36695 0.0
C851 C 0.97734 0.6023 0.33932 0.0
H852 H 0.12708 0.25909 0.55091 0.0
H853 H 0.19964 0.23882 0.62467 0.0
H854 H 0.10488 0.22462 0.59874 0.0
H855 H 0.17726 0.2045 0.67303 0.0
H856 H 0.12065 0.16753 0.79137 0.0
H857 H 0.14107 0.20338 0.7435 0.0
H858 H 0.10663 0.17458 0.60358 0.0
H859 H 0.08661 0.13871 0.65108 0.0
C860 C 0.13834 0.24705 0.57687 0.0
C861 C 0.16516 0.25149 0.58366 0.0
C862 C 0.12561 0.2274 0.60434 0.0
C863 C 0.1393 0.21209 0.63993 0.0
C864 C 0.16619 0.21624 0.64625 0.0
C865 C 0.17905 0.23561 0.61805 0.0
C866 C 0.11703 0.16924 0.75061 0.0
C867 C 0.102 0.15045 0.7249 0.0
C868 C 0.12896 0.18951 0.72315 0.0
C869 C 0.1256 0.19158 0.66978 0.0
C870 C 0.10952 0.17349 0.64465 0.0
C871 C 0.09804 0.15302 0.67184 0.0
H872 H 0.61128 0.37221 0.04163 0.0
H873 H 0.63693 0.3332 0.90383 0.0
H874 H 0.57543 0.3924 0.99354 0.0
H875 H 0.60111 0.35302 0.85615 0.0
H876 H 0.51761 0.37533 0.80381 0.0
H877 H 0.55131 0.35304 0.85335 0.0
H878 H 0.57458 0.42661 0.91979 0.0
H879 H 0.541 0.44905 0.8698 0.0
C880 C 0.60885 0.36746 1.00145 0.0
C881 C 0.62677 0.35111 0.97641 0.0
C882 C 0.58859 0.37923 0.97384 0.0
C883 C 0.58568 0.37442 0.92104 0.0
C884 C 0.60285 0.35702 0.89677 0.0
C885 C 0.6233 0.34567 0.92406 0.0
C886 C 0.53014 0.3868 0.82848 0.0
C887 C 0.52684 0.41398 0.83251 0.0
C888 C 0.54936 0.37402 0.85692 0.0
C889 C 0.56537 0.38807 0.89072 0.0
C890 C 0.56228 0.41528 0.89445 0.0
C891 C 0.54333 0.42815 0.86531 0.0
H892 H 0.39936 0.76995 0.04569 0.0
H893 H 0.32681 0.78903 0.12092 0.0
H894 H 0.42136 0.80428 0.0942 0.0
H895 H 0.34898 0.82323 0.16991 0.0
H896 H 0.40523 0.86017 0.28862 0.0
H897 H 0.38499 0.82446 0.23999 0.0
H898 H 0.41958 0.85402 0.10075 0.0
H899 H 0.43943 0.8897 0.149 0.0
C900 C 0.38804 0.78172 0.07208 0.0
C901 C 0.36129 0.77696 0.07907 0.0
C902 C 0.40067 0.80129 0.09996 0.0
C903 C 0.38694 0.81623 0.13619 0.0
C904 C 0.3601 0.81179 0.14267 0.0
C905 C 0.34735 0.79249 0.11408 0.0
C906 C 0.40893 0.85864 0.24784 0.0
C907 C 0.42396 0.8776 0.22256 0.0
C908 C 0.3971 0.83846 0.21994 0.0
C909 C 0.40054 0.83664 0.16653 0.0
C910 C 0.41663 0.85489 0.14183 0.0
C911 C 0.42801 0.87527 0.16946 0.0
H912 H 0.1495 0.36515 0.70216 0.0
H913 H 0.10034 0.3517 0.57016 0.0
H914 H 0.11338 0.38515 0.74705 0.0
H915 H 0.06359 0.3716 0.61663 0.0
H916 H 1.0015 0.38201 0.74946 0.0
H917 H 0.03655 0.3619 0.70024 0.0
H918 H 0.08648 0.42734 0.73471 0.0
H919 H 0.05118 0.44788 0.78363 0.0
C920 C 0.13093 0.36626 0.68258 0.0
C921 C 0.12797 0.35684 0.63209 0.0
C922 C 0.11025 0.37795 0.70849 0.0
C923 C 0.08581 0.38025 0.68518 0.0
C924 C 0.08234 0.37011 0.63543 0.0
C925 C 0.10331 0.35868 0.6089 0.0
C926 C 0.02 0.39211 0.74701 0.0
C927 C 0.02364 0.41646 0.77119 0.0
C928 C 0.03995 0.38066 0.71821 0.0
C929 C 0.06417 0.39307 0.71351 0.0
C930 C 0.06797 0.4173 0.73791 0.0
C931 C 0.04784 0.42901 0.76606 0.0
H932 H 0.83102 0.80524 0.53223 0.0
H933 H 0.89659 0.75473 0.50053 0.0
H934 H 0.85175 0.83993 0.48204 0.0
H935 H 0.91691 0.78922 0.44998 0.0
H936 H 0.92678 0.85227 0.31729 0.0
H937 H 0.9069 0.81579 0.36478 0.0
H938 H 0.89444 0.86638 0.49472 0.0
H939 H 0.9144 0.90219 0.44893 0.0
C940 C 0.84987 0.8016 0.51495 0.0
C941 C 0.86229 0.77737 0.52113 0.0
C942 C 0.86167 0.82137 0.48605 0.0
C943 C 0.88587 0.81714 0.46196 0.0
C944 C 0.89817 0.79289 0.46772 0.0
C945 C 0.88662 0.77331 0.49729 0.0
C946 C 0.92003 0.85547 0.35613 0.0
C947 C 0.9221 0.88026 0.37893 0.0
C948 C 0.90863 0.83466 0.38322 0.0
C949 C 0.89879 0.83847 0.43311 0.0
C950 C 0.9014 0.86302 0.45605 0.0
C951 C 0.91304 0.88352 0.42961 0.0
H952 H 0.39149 0.69415 0.19762 0.0
H953 H 0.41659 0.65205 0.06305 0.0
H954 H 0.42584 0.67342 0.24778 0.0
H955 H 0.45112 0.63103 0.11355 0.0
H956 H 0.48497 0.57553 0.23847 0.0
H957 H 0.45172 0.59792 0.1874 0.0
H958 H 0.47434 0.67151 0.25474 0.0
H959 H 0.50752 0.6493 0.30531 0.0
C960 C 0.4048 0.68087 0.17856 0.0
C961 C 0.40158 0.67489 0.12638 0.0
C962 C 0.42439 0.66893 0.20731 0.0
C963 C 0.441 0.6504 0.18476 0.0
C964 C 0.43838 0.64503 0.13206 0.0
C965 C 0.41894 0.65734 0.10298 0.0
C966 C 0.48246 0.5964 0.24311 0.0
C967 C 0.49878 0.6106 0.2762 0.0
C968 C 0.46372 0.60927 0.21328 0.0
C969 C 0.46063 0.63652 0.21665 0.0
C970 C 0.47623 0.65051 0.25131 0.0
C971 C 0.49517 0.63775 0.28044 0.0
H972 H 0.59895 0.1753 0.81604 0.0
H973 H 0.61415 0.12473 0.94547 0.0
H974 H 0.61953 0.21163 0.86274 0.0
H975 H 0.63475 0.16041 0.99049 0.0
H976 H 0.69701 0.22241 0.02779 0.0
H977 H 0.67662 0.18771 0.97699 0.0
H978 H 0.61034 0.23743 0.94834 0.0
H979 H 0.6303 0.27187 0.99934 0.0
C980 C 0.6065 0.17192 0.85422 0.0
C981 C 0.60492 0.14703 0.87669 0.0
C982 C 0.61831 0.19264 0.88085 0.0
C983 C 0.62906 0.18863 0.9299 0.0
C984 C 0.62709 0.16393 0.95243 0.0
C985 C 0.61504 0.14351 0.92647 0.0
C986 C 0.67801 0.22582 0.01105 0.0
C987 C 0.66514 0.24972 0.01841 0.0
C988 C 0.66641 0.20606 0.98181 0.0
C989 C 0.64196 0.21001 0.95859 0.0
C990 C 0.62927 0.23398 0.96537 0.0
C991 C 0.64062 0.25353 0.99522 0.0
H992 H 0.25689 0.21934 0.17919 0.0
H993 H 0.32821 0.25909 0.21903 0.0
H994 H 0.23565 0.23734 0.25465 0.0
H995 H 0.3067 0.27805 0.29382 0.0
H996 H 0.26942 0.28671 0.44988 0.0
H997 H 0.29014 0.26866 0.37497 0.0
H998 H 0.21797 0.27587 0.29087 0.0
H999 H 0.19659 0.2932 0.36778 0.0
C1000 C 0.26807 0.23196 0.20422 0.0
C1001 C 0.29432 0.23771 0.19316 0.0
C1002 C 0.25575 0.24255 0.24728 0.0
C1003 C 0.26923 0.25944 0.2804 0.0
C1004 C 0.29567 0.26488 0.26971 0.0
C1005 C 0.30811 0.25399 0.22681 0.0
C1006 C 0.25777 0.2846 0.41553 0.0
C1007 C 0.23116 0.2915 0.41515 0.0
C1008 C 0.26987 0.27434 0.37213 0.0
C1009 C 0.25595 0.27085 0.32639 0.0
C1010 C 0.22932 0.27793 0.32559 0.0
C1011 C 0.21703 0.28805 0.36956 0.0
H1012 H 0.5106 0.4456 0.63458 0.0
H1013 H 0.47073 0.51736 0.67175 0.0
H1014 H 0.53034 0.46676 0.56008 0.0
H1015 H 0.48935 0.53818 0.59659 0.0
H1016 H 0.54475 0.57748 0.48568 0.0
H1017 H 0.5278 0.55577 0.56227 0.0
H1018 H 0.52263 0.48318 0.47826 0.0
H1019 H 0.54053 0.50434 0.40345 0.0
C1020 C 0.50567 0.46572 0.62625 0.0
C1021 C 0.48916 0.47979 0.65909 0.0
C1022 C 0.51698 0.47795 0.58353 0.0
C1023 C 0.51172 0.50441 0.57226 0.0
C1024 C 0.49452 0.51809 0.6045 0.0
C1025 C 0.48356 0.50601 0.64738 0.0
C1026 C 0.54022 0.55685 0.48387 0.0
C1027 C 0.54403 0.54279 0.43825 0.0
C1028 C 0.53027 0.54437 0.52766 0.0
C1029 C 0.52363 0.5176 0.52669 0.0
C1030 C 0.52784 0.50361 0.48115 0.0
C1031 C 0.53801 0.51593 0.43784 0.0
H1032 H 0.26788 0.80987 0.6824 0.0
H1033 H 0.19726 0.76779 0.71776 0.0
H1034 H 0.28889 0.79135 0.75748 0.0
H1035 H 0.2186 0.74827 0.79214 0.0
H1036 H 0.25576 0.73765 0.94853 0.0
H1037 H 0.23459 0.75616 0.8744 0.0
H1038 H 0.30722 0.75266 0.79064 0.0
H1039 H 0.32894 0.73498 0.8666 0.0
C1040 C 0.2568 0.79664 0.70641 0.0
C1041 C 0.23085 0.79035 0.69417 0.0
C1042 C 0.269 0.78574 0.74922 0.0
C1043 C 0.2557 0.76797 0.78085 0.0
C1044 C 0.22948 0.76209 0.76916 0.0
C1045 C 0.21715 0.77329 0.72651 0.0
C1046 C 0.26738 0.74068 0.91437 0.0
C1047 C 0.29423 0.73483 0.91382 0.0
C1048 C 0.25505 0.75121 0.87145 0.0
C1049 C 0.26903 0.75599 0.82615 0.0
C1050 C 0.29583 0.74969 0.82509 0.0
C1051 C 0.30831 0.73934 0.8685 0.0
H1052 H 0.02859 0.50871 0.19959 0.0
H1053 H 0.04058 0.58 0.11414 0.0
H1054 H 1.00983 0.48822 0.12511 0.0
H1055 H 0.02245 0.5588 0.03778 0.0
H1056 H 0.96538 0.52179 0.92519 0.0
H1057 H 0.98333 0.54291 1.00079 0.0
H1058 H 0.01951 0.4701 0.04513 0.0
H1059 H 1.00061 0.44877 0.97013 0.0
C1060 C 0.0275 0.52005 0.16462 0.0
C1061 C 0.03623 0.54615 0.16307 0.0
C1062 C 0.01682 0.50808 0.12151 0.0
C1063 C 0.01471 0.52162 0.07497 0.0
C1064 C 0.02345 0.54778 0.07312 0.0
C1065 C 0.03399 0.55995 0.11677 0.0
C1066 C 0.97697 0.51021 0.9514 0.0
C1067 C 0.98151 0.48354 0.9417 0.0
C1068 C 0.98753 0.52244 0.99454 0.0
C1069 C 1.00316 0.50842 0.02911 0.0
C1070 C 1.00731 0.48156 0.01984 0.0
C1071 C 0.99647 0.46923 0.97684 0.0
H1072 H 0.76767 0.80911 0.92239 0.0
H1073 H 0.69665 0.76736 0.88898 0.0
H1074 H 0.78823 0.79036 0.84712 0.0
H1075 H 0.71758 0.74758 0.81412 0.0
H1076 H 0.75393 0.73856 0.65575 0.0
H1077 H 0.7331 0.75584 0.73142 0.0
H1078 H 0.80629 0.75181 0.8129 0.0
H1079 H 0.82767 0.73538 0.7354 0.0
C1080 C 0.75642 0.79583 0.89885 0.0
C1081 C 0.73047 0.78974 0.91167 0.0
C1082 C 0.76836 0.7848 0.85588 0.0
C1083 C 0.75483 0.76709 0.82457 0.0
C1084 C 0.72864 0.76132 0.83691 0.0
C1085 C 0.71654 0.77266 0.8798 0.0
C1086 C 0.76576 0.74121 0.68972 0.0
C1087 C 0.79269 0.73568 0.68911 0.0
C1088 C 0.75361 0.751 0.73355 0.0
C1089 C 0.76785 0.75535 0.77863 0.0
C1090 C 0.79469 0.74918 0.77864 0.0
C1091 C 0.80699 0.73955 0.73433 0.0
H1092 H 0.77163 0.30556 0.16875 0.0
H1093 H 0.69803 0.27467 0.22131 0.0
H1094 H 0.79294 0.28897 0.24534 0.0
H1095 H 0.7195 0.25716 0.29726 0.0
H1096 H 0.75868 0.25152 0.45092 0.0
H1097 H 0.73867 0.26937 0.37499 0.0
H1098 H 0.80761 0.2504 0.28726 0.0
H1099 H 0.82831 0.23314 0.36497 0.0
C1100 C 0.75996 0.29517 0.19672 0.0
C1101 C 0.73305 0.29151 0.18893 0.0
C1102 C 0.77229 0.28541 0.2405 0.0
C1103 C 0.7581 0.27153 0.27764 0.0
C1104 C 0.73109 0.26808 0.27 0.0
C1105 C 0.71869 0.2781 0.22638 0.0
C1106 C 0.76973 0.25105 0.41553 0.0
C1107 C 0.79515 0.24067 0.41411 0.0
C1108 C 0.75806 0.2612 0.37165 0.0
C1109 C 0.77124 0.26109 0.32452 0.0
C1110 C 0.79687 0.25103 0.32297 0.0
C1111 C 0.80876 0.24103 0.3674 0.0
H1112 H 0.05731 1.00687 0.9209 0.0
H1113 H 0.02115 0.07931 0.96691 0.0
H1114 H 0.04005 0.98543 0.99678 0.0
H1115 H 1.00294 0.05763 0.04217 0.0
H1116 H 0.99682 0.01956 0.19754 0.0
H1117 H 0.01411 0.04007 0.12172 0.0
H1118 H 1.00181 0.96882 0.03628 0.0
H1119 H 0.98516 0.94762 0.11403 0.0
C1120 C 0.0456 0.01825 0.94729 0.0
C1121 C 0.04068 0.04488 0.93789 0.0
C1122 C 0.03545 1.00582 0.99064 0.0
C1123 C 0.01988 0.0196 0.02575 0.0
C1124 C 0.01514 0.04637 0.01651 0.0
C1125 C 0.02557 0.05889 0.97332 0.0
C1126 C 0.99766 1.00807 0.16271 0.0
C1127 C 0.98945 0.9818 0.16209 0.0
C1128 C 1.00748 0.02005 0.11882 0.0
C1129 C 1.00921 1.00634 0.07239 0.0
C1130 C 1.00104 0.97999 0.07147 0.0
C1131 C 0.99137 0.96781 0.11593 0.0
H1132 H 0.52893 1.00821 0.69602 0.0
H1133 H 0.54034 0.08023 0.61267 0.0
H1134 H 0.51157 0.98772 0.62031 0.0
H1135 H 0.52359 0.05905 0.53501 0.0
H1136 H 0.46789 0.02092 0.42018 0.0
H1137 H 0.48523 0.04235 0.49596 0.0
H1138 H 0.52274 0.97026 0.54052 0.0
H1139 H 0.50447 0.94858 0.46534 0.0
C1140 C 0.52802 0.01972 0.66125 0.0
C1141 C 0.53619 0.04601 0.66065 0.0
C1142 C 0.51816 1.00775 0.61742 0.0
C1143 C 0.51633 0.02149 0.57106 0.0
C1144 C 0.52444 0.04786 0.57016 0.0
C1145 C 0.53417 0.06003 0.61457 0.0
C1146 C 0.47971 1.00956 0.44637 0.0
C1147 C 0.48472 0.98296 0.43675 0.0
C1148 C 0.48991 0.02198 0.48965 0.0
C1149 C 0.50561 1.00823 0.52449 0.0
C1150 C 0.51043 0.98149 0.51506 0.0
C1151 C 0.49997 0.96897 0.47192 0.0
H1152 H 0.26827 0.32547 0.69505 0.0
H1153 H 0.19804 0.2847 0.73726 0.0
H1154 H 0.29328 0.29826 0.75321 0.0
H1155 H 0.22241 0.25867 0.79903 0.0
H1156 H 0.27146 0.19825 0.87197 0.0
H1157 H 0.25091 0.2238 0.80387 0.0
H1158 H 0.30461 0.28719 0.83396 0.0
H1159 H 0.32605 0.26089 0.89791 0.0
C1160 C 0.25801 0.31161 0.71911 0.0
C1161 C 0.23122 0.30753 0.71285 0.0
C1162 C 0.27236 0.2957 0.75214 0.0
C1163 C 0.26005 0.27577 0.78053 0.0
C1164 C 0.2328 0.27313 0.77673 0.0
C1165 C 0.21862 0.28856 0.74259 0.0
C1166 C 0.27953 0.21712 0.86197 0.0
C1167 C 0.30018 0.2277 0.89023 0.0
C1168 C 0.26736 0.23214 0.82399 0.0
C1169 C 0.27543 0.25807 0.81439 0.0
C1170 C 0.29768 0.26746 0.83973 0.0
C1171 C 0.31006 0.25232 0.87662 0.0
H1172 H 0.49889 0.45049 0.97532 0.0
H1173 H 0.44844 0.51631 0.94826 0.0
H1174 H 0.52324 0.47568 0.03827 0.0
H1175 H 0.47397 0.54253 1.00726 0.0
H1176 H 0.51198 0.5755 0.15075 0.0
H1177 H 0.48638 0.55276 0.08757 0.0
H1178 H 0.5544 0.50794 0.04361 0.0
H1179 H 0.57949 0.52947 0.11108 0.0
C1180 C 0.49267 0.47023 0.98403 0.0
C1181 C 0.47163 0.48142 0.95777 0.0
C1182 C 0.50707 0.48498 0.01891 0.0
C1183 C 0.50123 0.51153 0.02703 0.0
C1184 C 0.47913 0.52218 1.00263 0.0
C1185 C 0.46426 0.50713 0.96896 0.0
C1186 C 0.52161 0.56112 0.12686 0.0
C1187 C 0.54758 0.55389 0.13641 0.0
C1188 C 0.50688 0.54804 0.09029 0.0
C1189 C 0.51796 0.52783 0.0611 0.0
C1190 C 0.54486 0.52264 0.06677 0.0
C1191 C 0.55952 0.53543 0.10447 0.0
H1192 H 0.25511 0.8304 0.37242 0.0
H1193 H 0.2027 0.76602 0.39948 0.0
H1194 H 0.27625 0.80544 0.30404 0.0
H1195 H 0.22482 0.74033 0.33554 0.0
H1196 H 0.26117 0.70257 0.19663 0.0
H1197 H 0.23588 0.72929 0.25519 0.0
H1198 H 0.30577 0.77181 0.29643 0.0
H1199 H 0.3303 0.74628 0.23397 0.0
C1200 C 0.24767 0.81123 0.36272 0.0
C1201 C 0.22743 0.80005 0.39131 0.0
C1202 C 0.2602 0.79656 0.32454 0.0
C1203 C 0.25292 0.77037 0.31506 0.0
C1204 C 0.23114 0.76028 0.34103 0.0
C1205 C 0.21838 0.77507 0.37802 0.0
C1206 C 0.27119 0.71701 0.21973 0.0
C1207 C 0.29774 0.72198 0.21203 0.0
C1208 C 0.25667 0.73263 0.25307 0.0
C1209 C 0.26856 0.75317 0.28048 0.0
C1210 C 0.29563 0.75684 0.27503 0.0
C1211 C 0.30995 0.7417 0.24047 0.0
H1212 H 0.07757 0.51178 0.45009 0.0
H1213 H 0.03003 0.57962 0.47844 0.0
H1214 H 0.05128 0.48661 0.5095 0.0
H1215 H 1.00501 0.55544 0.54201 0.0
H1216 H 0.94685 0.50358 0.61578 0.0
H1217 H 0.97257 0.52468 0.54864 0.0
H1218 H 0.03878 0.47654 0.58949 0.0
H1219 H 1.01251 0.45428 0.65225 0.0
C1220 C 0.06226 0.52161 0.47119 0.0
C1221 C 0.05591 0.5476 0.4602 0.0
C1222 C 0.04695 0.50716 0.50516 0.0
C1223 C 0.02544 0.5187 0.53015 0.0
C1224 C 0.02067 0.54548 0.52223 0.0
C1225 C 0.03548 0.55964 0.487 0.0
C1226 C 0.96653 0.49684 0.60854 0.0
C1227 C 0.97775 0.47748 0.63938 0.0
C1228 C 0.98158 0.50937 0.57104 0.0
C1229 C 1.00819 0.50303 0.56447 0.0
C1230 C 0.01851 0.48212 0.59277 0.0
C1231 C 1.00338 0.4693 0.6291 0.0
H1232 H 0.77171 0.8303 0.19166 0.0
H1233 H 0.7011 0.79025 0.23419 0.0
H1234 H 0.79626 0.8038 0.25215 0.0
H1235 H 0.72506 0.76477 0.29744 0.0
H1236 H 0.77439 0.70275 0.36573 0.0
H1237 H 0.7539 0.72939 0.29923 0.0
H1238 H 0.8065 0.79285 0.33507 0.0
H1239 H 0.82777 0.76572 0.39827 0.0
C1240 C 0.76126 0.8168 0.21618 0.0
C1241 C 0.73452 0.81259 0.20921 0.0
C1242 C 0.77534 0.80129 0.25045 0.0
C1243 C 0.76281 0.78159 0.27902 0.0
C1244 C 0.73558 0.77906 0.2749 0.0
C1245 C 0.72165 0.79417 0.23986 0.0
C1246 C 0.78221 0.72196 0.35757 0.0
C1247 C 0.80254 0.73223 0.38717 0.0
C1248 C 0.77009 0.73754 0.32045 0.0
C1249 C 0.77795 0.76368 0.3128 0.0
C1250 C 0.79979 0.77295 0.33957 0.0
C1251 C 0.81206 0.75733 0.3759 0.0
H1252 H 0.82476 0.23937 0.73582 0.0
H1253 H 0.75432 0.19959 0.6915 0.0
H1254 H 0.80038 0.26518 0.79801 0.0
H1255 H 0.72936 0.22646 0.75075 0.0
H1256 H 0.69687 0.26463 0.89616 0.0
H1257 H 0.71823 0.23763 0.8328 0.0
H1258 H 0.77189 0.30065 0.79986 0.0
H1259 H 0.75127 0.32708 0.86665 0.0
C1260 C 0.80413 0.23559 0.74085 0.0
C1261 C 0.79146 0.21711 0.71006 0.0
C1262 C 0.78997 0.25091 0.77526 0.0
C1263 C 0.76268 0.24856 0.77856 0.0
C1264 C 0.75031 0.22885 0.74974 0.0
C1265 C 0.76463 0.21312 0.71617 0.0
C1266 C 0.71278 0.27299 0.87425 0.0
C1267 C 0.72257 0.29785 0.88651 0.0
C1268 C 0.72514 0.25743 0.83785 0.0
C1269 C 0.74734 0.26655 0.81196 0.0
C1270 C 0.75542 0.29258 0.82039 0.0
C1271 C 0.74321 0.30807 0.85764 0.0
H1272 H 0.94608 1.00731 0.47787 0.0
H1273 H 1.00658 0.94963 0.45885 0.0
H1274 H 0.97173 0.02835 0.54524 0.0
H1275 H 0.03306 0.97145 0.52176 0.0
H1276 H 0.07203 1.00878 0.65835 0.0
H1277 H 0.04446 0.98398 0.60076 0.0
H1278 H 1.00707 0.05562 0.55194 0.0
H1279 H 0.03334 0.07983 0.61362 0.0
C1280 C 0.96445 0.99868 0.48929 0.0
C1281 C 0.97438 0.97692 0.46322 0.0
C1282 C 0.97959 1.01113 0.52681 0.0
C1283 C 1.00505 1.00225 0.53812 0.0
C1284 C 0.01371 0.97906 0.51487 0.0
C1285 C 0.99843 0.9664 0.47857 0.0
C1286 C 0.05858 0.01923 0.63376 0.0
C1287 C 0.05521 0.04623 0.63925 0.0
C1288 C 0.04245 1.005 0.60094 0.0
C1289 C 0.023 0.01757 0.57178 0.0
C1290 C 0.0211 0.04499 0.57478 0.0
C1291 C 0.03672 0.05908 0.60885 0.0
H1292 H 0.57966 0.02008 0.9759 0.0
H1293 H 0.51965 0.07832 0.95774 0.0
H1294 H 0.55393 0.9992 0.0434 0.0
H1295 H 0.49307 0.05667 0.0208 0.0
H1296 H 0.454 0.01955 0.15759 0.0
H1297 H 0.4817 0.04417 0.09987 0.0
H1298 H 0.51833 0.97224 0.05024 0.0
H1299 H 0.49193 0.9482 0.11202 0.0
C1300 C 0.56138 0.02886 0.98754 0.0
C1301 C 0.55161 0.05074 0.96168 0.0
C1302 C 0.54619 0.01651 0.02514 0.0
C1303 C 0.52083 0.0256 0.03673 0.0
C1304 C 0.51234 0.0489 0.01369 0.0
C1305 C 0.52768 0.06146 0.97731 0.0
C1306 C 0.4673 1.009 0.13279 0.0
C1307 C 0.47042 0.98197 0.13807 0.0
C1308 C 0.48351 0.02312 0.09991 0.0
C1309 C 0.50279 1.01041 0.07047 0.0
C1310 C 0.50443 0.98297 0.07328 0.0
C1311 C 0.48874 0.96898 0.10741 0.0
loop_
_geom_bond_atom_site_label_1
_geom_bond_atom_site_label_2
_geom_bond_distance
_geom_bond_site_symmetry_2
_ccdc_geom_bond_type
Fe0 O2 1.918 . S
Fe0 O5 1.997 . S
Fe0 O6 2.002 1_554 S
Fe0 O11 1.976 . S
Fe0 O14 1.996 . S
Fe1 O2 1.918 1_556 S
Fe1 O9 1.997 . S
Fe1 O12 1.996 . S
Fe1 O16 1.976 1_556 S
Fe1 O19 2.002 . S
O2 Fe0 1.918 . S
O2 Fe1 1.918 1_554 S
O2 Fe3 1.918 . S
Fe3 O2 1.918 . S
Fe3 O4 2.002 . S
Fe3 O13 1.976 . S
Fe3 O17 1.996 . S
Fe3 O20 1.997 . S
O4 Fe3 2.002 . S
O4 C21 1.295 . S
O5 Fe0 1.997 . S
O5 C21 1.235 . S
O6 Fe0 2.002 1_556 S
O6 C7 1.295 . S
C7 O6 1.295 . S
C7 O9 1.235 . S
C8 O13 1.287 . S
C8 O14 1.255 . S
O9 Fe1 1.997 . S
O9 C7 1.235 . S
C10 O16 1.287 . S
C10 O17 1.255 . S
O11 Fe0 1.976 . S
O11 C18 1.287 . S
O12 Fe1 1.996 . S
O12 C18 1.255 1_556 S
O13 Fe3 1.976 . S
O13 C8 1.287 . S
O14 Fe0 1.996 . S
O14 C8 1.255 . S
C15 O19 1.295 . S
C15 O20 1.235 1_556 S
O16 Fe1 1.976 1_554 S
O16 C10 1.287 . S
O17 Fe3 1.996 . S
O17 C10 1.255 . S
C18 O11 1.287 . S
C18 O12 1.255 1_554 S
O19 Fe1 2.002 . S
O19 C15 1.295 . S
O20 Fe3 1.997 . S
O20 C15 1.235 1_554 S
C21 O4 1.295 . S
C21 O5 1.235 . S
Fe22 O24 1.918 . S
Fe22 O27 1.997 . S
Fe22 O28 2.002 . S
Fe22 O33 1.976 . S
Fe22 O36 1.996 . S
Fe23 O24 1.918 . S
Fe23 O31 1.997 . S
Fe23 O34 1.996 . S
Fe23 O38 1.976 . S
Fe23 O41 2.002 . S
O24 Fe22 1.918 . S
O24 Fe23 1.918 . S
O24 Fe25 1.918 . S
Fe25 O24 1.918 . S
Fe25 O26 2.002 . S
Fe25 O35 1.976 . S
Fe25 O39 1.996 . S
Fe25 O42 1.997 . S
O26 Fe25 2.002 . S
O26 C43 1.295 . S
O27 Fe22 1.997 . S
O27 C43 1.235 . S
O28 Fe22 2.002 . S
O28 C29 1.295 . S
C29 O28 1.295 . S
C29 O31 1.235 . S
C30 O35 1.287 . S
C30 O36 1.255 . S
O31 Fe23 1.997 . S
O31 C29 1.235 . S
C32 O38 1.287 . S
C32 O39 1.255 . S
O33 Fe22 1.976 . S
O33 C40 1.287 . S
O34 Fe23 1.996 . S
O34 C40 1.255 . S
O35 Fe25 1.976 . S
O35 C30 1.287 . S
O36 Fe22 1.996 . S
O36 C30 1.255 . S
C37 O41 1.295 . S
C37 O42 1.235 . S
O38 Fe23 1.976 . S
O38 C32 1.287 . S
O39 Fe25 1.996 . S
O39 C32 1.255 . S
C40 O33 1.287 . S
C40 O34 1.255 . S
O41 Fe23 2.002 . S
O41 C37 1.295 . S
O42 Fe25 1.997 . S
O42 C37 1.235 . S
C43 O26 1.295 . S
C43 O27 1.235 . S
Fe44 O46 1.918 . S
Fe44 O49 1.997 . S
Fe44 O50 2.002 . S
Fe44 O55 1.976 . S
Fe44 O58 1.996 . S
Fe45 O46 1.918 . S
Fe45 O53 1.997 . S
Fe45 O56 1.996 . S
Fe45 O60 1.976 . S
Fe45 O63 2.002 . S
O46 Fe44 1.918 . S
O46 Fe45 1.918 . S
O46 Fe47 1.918 . S
Fe47 O46 1.918 . S
Fe47 O48 2.002 . S
Fe47 O57 1.976 . S
Fe47 O61 1.996 . S
Fe47 O64 1.997 . S
O48 Fe47 2.002 . S
O48 C65 1.295 . S
O49 Fe44 1.997 . S
O49 C65 1.235 . S
O50 Fe44 2.002 . S
O50 C51 1.295 . S
C51 O50 1.295 . S
C51 O53 1.235 . S
C52 O57 1.287 . S
C52 O58 1.255 . S
O53 Fe45 1.997 . S
O53 C51 1.235 . S
C54 O60 1.287 . S
C54 O61 1.255 . S
O55 Fe44 1.976 . S
O55 C62 1.287 . S
O56 Fe45 1.996 . S
O56 C62 1.255 . S
O57 Fe47 1.976 . S
O57 C52 1.287 . S
O58 Fe44 1.996 . S
O58 C52 1.255 . S
C59 O63 1.295 . S
C59 O64 1.235 . S
O60 Fe45 1.976 . S
O60 C54 1.287 . S
O61 Fe47 1.996 . S
O61 C54 1.255 . S
C62 O55 1.287 . S
C62 O56 1.255 . S
O63 Fe45 2.002 . S
O63 C59 1.295 . S
O64 Fe47 1.997 . S
O64 C59 1.235 . S
C65 O48 1.295 . S
C65 O49 1.235 . S
Fe66 O68 1.918 . S
Fe66 O71 1.997 . S
Fe66 O72 2.002 . S
Fe66 O77 1.976 . S
Fe66 O80 1.996 . S
Fe67 O68 1.918 . S
Fe67 O75 1.997 . S
Fe67 O78 1.996 . S
Fe67 O82 1.976 . S
Fe67 O85 2.002 . S
O68 Fe66 1.918 . S
O68 Fe67 1.918 . S
O68 Fe69 1.918 . S
Fe69 O68 1.918 . S
Fe69 O70 2.002 . S
Fe69 O79 1.976 . S
Fe69 O83 1.996 . S
Fe69 O86 1.997 . S
O70 Fe69 2.002 . S
O70 C87 1.295 . S
O71 Fe66 1.997 . S
O71 C87 1.235 . S
O72 Fe66 2.002 . S
O72 C73 1.295 . S
C73 O72 1.295 . S
C73 O75 1.235 . S
C74 O79 1.287 . S
C74 O80 1.255 . S
O75 Fe67 1.997 . S
O75 C73 1.235 . S
C76 O82 1.287 . S
C76 O83 1.255 . S
O77 Fe66 1.976 . S
O77 C84 1.287 . S
O78 Fe67 1.996 . S
O78 C84 1.255 . S
O79 Fe69 1.976 . S
O79 C74 1.287 . S
O80 Fe66 1.996 . S
O80 C74 1.255 . S
C81 O85 1.295 . S
C81 O86 1.235 . S
O82 Fe67 1.976 . S
O82 C76 1.287 . S
O83 Fe69 1.996 . S
O83 C76 1.255 . S
C84 O77 1.287 . S
C84 O78 1.255 . S
O85 Fe67 2.002 . S
O85 C81 1.295 . S
O86 Fe69 1.997 . S
O86 C81 1.235 . S
C87 O70 1.295 . S
C87 O71 1.235 . S
Fe88 O90 1.918 . S
Fe88 O93 1.997 . S
Fe88 O94 2.002 . S
Fe88 O99 1.976 . S
Fe88 O102 1.996 . S
Fe89 O90 1.918 . S
Fe89 O97 1.997 . S
Fe89 O100 1.996 1_554 S
Fe89 O104 1.976 1_554 S
Fe89 O107 2.002 . S
O90 Fe88 1.918 . S
O90 Fe89 1.918 . S
O90 Fe91 1.918 . S
Fe91 O90 1.918 . S
Fe91 O92 2.002 . S
Fe91 O101 1.976 . S
Fe91 O105 1.996 1_554 S
Fe91 O108 1.997 . S
O92 Fe91 2.002 . S
O92 C109 1.295 . S
O93 Fe88 1.997 . S
O93 C109 1.235 . S
O94 Fe88 2.002 . S
O94 C95 1.295 . S
C95 O94 1.295 . S
C95 O97 1.235 . S
C96 O101 1.287 . S
C96 O102 1.255 . S
O97 Fe89 1.997 . S
O97 C95 1.235 . S
C98 O104 1.287 . S
C98 O105 1.255 . S
O99 Fe88 1.976 . S
O99 C106 1.287 . S
O100 Fe89 1.996 1_556 S
O100 C106 1.255 1_556 S
O101 Fe91 1.976 . S
O101 C96 1.287 . S
O102 Fe88 1.996 . S
O102 C96 1.255 . S
C103 O107 1.295 . S
C103 O108 1.235 . S
O104 Fe89 1.976 1_556 S
O104 C98 1.287 . S
O105 Fe91 1.996 1_556 S
O105 C98 1.255 . S
C106 O99 1.287 . S
C106 O100 1.255 1_554 S
O107 Fe89 2.002 . S
O107 C103 1.295 . S
O108 Fe91 1.997 . S
O108 C103 1.235 . S
C109 O92 1.295 . S
C109 O93 1.235 . S
Fe110 O112 1.918 . S
Fe110 O115 1.997 . S
Fe110 O116 2.002 . S
Fe110 O121 1.976 . S
Fe110 O124 1.996 . S
Fe111 O112 1.918 . S
Fe111 O119 1.997 . S
Fe111 O122 1.996 . S
Fe111 O126 1.976 . S
Fe111 O129 2.002 . S
O112 Fe110 1.918 . S
O112 Fe111 1.918 . S
O112 Fe113 1.918 . S
Fe113 O112 1.918 . S
Fe113 O114 2.002 . S
Fe113 O123 1.976 . S
Fe113 O127 1.996 . S
Fe113 O130 1.997 . S
O114 Fe113 2.002 . S
O114 C131 1.295 . S
O115 Fe110 1.997 . S
O115 C131 1.235 . S
O116 Fe110 2.002 . S
O116 C117 1.295 . S
C117 O116 1.295 . S
C117 O119 1.235 . S
C118 O123 1.287 . S
C118 O124 1.255 . S
O119 Fe111 1.997 . S
O119 C117 1.235 . S
C120 O126 1.287 . S
C120 O127 1.255 . S
O121 Fe110 1.976 . S
O121 C128 1.287 . S
O122 Fe111 1.996 . S
O122 C128 1.255 . S
O123 Fe113 1.976 . S
O123 C118 1.287 . S
O124 Fe110 1.996 . S
O124 C118 1.255 . S
C125 O129 1.295 . S
C125 O130 1.235 . S
O126 Fe111 1.976 . S
O126 C120 1.287 . S
O127 Fe113 1.996 . S
O127 C120 1.255 . S
C128 O121 1.287 . S
C128 O122 1.255 . S
O129 Fe111 2.002 . S
O129 C125 1.295 . S
O130 Fe113 1.997 . S
O130 C125 1.235 . S
C131 O114 1.295 . S
C131 O115 1.235 . S
Fe132 O134 1.918 . S
Fe132 O137 1.997 . S
Fe132 O138 2.002 . S
Fe132 O143 1.976 . S
Fe132 O146 1.996 . S
Fe133 O134 1.918 . S
Fe133 O141 1.997 . S
Fe133 O144 1.996 . S
Fe133 O148 1.976 . S
Fe133 O151 2.002 . S
O134 Fe132 1.918 . S
O134 Fe133 1.918 . S
O134 Fe135 1.918 . S
Fe135 O134 1.918 . S
Fe135 O136 2.002 . S
Fe135 O145 1.976 . S
Fe135 O149 1.996 . S
Fe135 O152 1.997 . S
O136 Fe135 2.002 . S
O136 C153 1.295 . S
O137 Fe132 1.997 . S
O137 C153 1.235 . S
O138 Fe132 2.002 . S
O138 C139 1.295 . S
C139 O138 1.295 . S
C139 O141 1.235 . S
C140 O145 1.287 . S
C140 O146 1.255 . S
O141 Fe133 1.997 . S
O141 C139 1.235 . S
C142 O148 1.287 . S
C142 O149 1.255 . S
O143 Fe132 1.976 . S
O143 C150 1.287 . S
O144 Fe133 1.996 . S
O144 C150 1.255 . S
O145 Fe135 1.976 . S
O145 C140 1.287 . S
O146 Fe132 1.996 . S
O146 C140 1.255 . S
C147 O151 1.295 . S
C147 O152 1.235 . S
O148 Fe133 1.976 . S
O148 C142 1.287 . S
O149 Fe135 1.996 . S
O149 C142 1.255 . S
C150 O143 1.287 . S
C150 O144 1.255 . S
O151 Fe133 2.002 . S
O151 C147 1.295 . S
O152 Fe135 1.997 . S
O152 C147 1.235 . S
C153 O136 1.295 . S
C153 O137 1.235 . S
Fe154 O156 1.918 . S
Fe154 O159 1.997 . S
Fe154 O160 2.002 . S
Fe154 O165 1.976 . S
Fe154 O168 1.996 . S
Fe155 O156 1.918 . S
Fe155 O163 1.997 . S
Fe155 O166 1.996 . S
Fe155 O170 1.976 . S
Fe155 O173 2.002 . S
O156 Fe154 1.918 . S
O156 Fe155 1.918 . S
O156 Fe157 1.918 . S
Fe157 O156 1.918 . S
Fe157 O158 2.002 . S
Fe157 O167 1.976 . S
Fe157 O171 1.996 . S
Fe157 O174 1.997 . S
O158 Fe157 2.002 . S
O158 C175 1.295 . S
O159 Fe154 1.997 . S
O159 C175 1.235 . S
O160 Fe154 2.002 . S
O160 C161 1.295 . S
C161 O160 1.295 . S
C161 O163 1.235 . S
C162 O167 1.287 . S
C162 O168 1.255 . S
O163 Fe155 1.997 . S
O163 C161 1.235 . S
C164 O170 1.287 . S
C164 O171 1.255 . S
O165 Fe154 1.976 . S
O165 C172 1.287 . S
O166 Fe155 1.996 . S
O166 C172 1.255 . S
O167 Fe157 1.976 . S
O167 C162 1.287 . S
O168 Fe154 1.996 . S
O168 C162 1.255 . S
C169 O173 1.295 . S
C169 O174 1.235 . S
O170 Fe155 1.976 . S
O170 C164 1.287 . S
O171 Fe157 1.996 . S
O171 C164 1.255 . S
C172 O165 1.287 . S
C172 O166 1.255 . S
O173 Fe155 2.002 . S
O173 C169 1.295 . S
O174 Fe157 1.997 . S
O174 C169 1.235 . S
C175 O158 1.295 . S
C175 O159 1.235 . S
Fe176 O178 1.918 . S
Fe176 O181 1.997 . S
Fe176 O182 2.002 . S
Fe176 O187 1.976 . S
Fe176 O190 1.996 . S
Fe177 O178 1.918 . S
Fe177 O185 1.997 . S
Fe177 O188 1.996 . S
Fe177 O192 1.976 . S
Fe177 O195 2.002 . S
O178 Fe176 1.918 . S
O178 Fe177 1.918 . S
O178 Fe179 1.918 . S
Fe179 O178 1.918 . S
Fe179 O180 2.002 . S
Fe179 O189 1.976 . S
Fe179 O193 1.996 . S
Fe179 O196 1.997 . S
O180 Fe179 2.002 . S
O180 C197 1.295 . S
O181 Fe176 1.997 . S
O181 C197 1.235 . S
O182 Fe176 2.002 . S
O182 C183 1.295 . S
C183 O182 1.295 . S
C183 O185 1.235 . S
C184 O189 1.287 . S
C184 O190 1.255 . S
O185 Fe177 1.997 . S
O185 C183 1.235 . S
C186 O192 1.287 . S
C186 O193 1.255 . S
O187 Fe176 1.976 . S
O187 C194 1.287 . S
O188 Fe177 1.996 . S
O188 C194 1.255 . S
O189 Fe179 1.976 . S
O189 C184 1.287 . S
O190 Fe176 1.996 . S
O190 C184 1.255 . S
C191 O195 1.295 . S
C191 O196 1.235 . S
O192 Fe177 1.976 . S
O192 C186 1.287 . S
O193 Fe179 1.996 . S
O193 C186 1.255 . S
C194 O187 1.287 . S
C194 O188 1.255 . S
O195 Fe177 2.002 . S
O195 C191 1.295 . S
O196 Fe179 1.997 . S
O196 C191 1.235 . S
C197 O180 1.295 . S
C197 O181 1.235 . S
Fe198 O200 1.918 . S
Fe198 O203 1.997 . S
Fe198 O204 2.002 . S
Fe198 O209 1.976 . S
Fe198 O212 1.996 . S
Fe199 O200 1.918 . S
Fe199 O207 1.997 . S
Fe199 O210 1.996 . S
Fe199 O214 1.976 . S
Fe199 O217 2.002 . S
O200 Fe198 1.918 . S
O200 Fe199 1.918 . S
O200 Fe201 1.918 . S
Fe201 O200 1.918 . S
Fe201 O202 2.002 . S
Fe201 O211 1.976 . S
Fe201 O215 1.996 . S
Fe201 O218 1.997 . S
O202 Fe201 2.002 . S
O202 C219 1.295 . S
O203 Fe198 1.997 . S
O203 C219 1.235 . S
O204 Fe198 2.002 . S
O204 C205 1.295 . S
C205 O204 1.295 . S
C205 O207 1.235 . S
C206 O211 1.287 . S
C206 O212 1.255 . S
O207 Fe199 1.997 . S
O207 C205 1.235 . S
C208 O214 1.287 . S
C208 O215 1.255 . S
O209 Fe198 1.976 . S
O209 C216 1.282 1_545 S
O210 Fe199 1.996 . S
O210 C216 1.223 1_545 S
O211 Fe201 1.976 . S
O211 C206 1.287 . S
O212 Fe198 1.996 . S
O212 C206 1.255 . S
C213 O217 1.295 . S
C213 O218 1.235 . S
O214 Fe199 1.976 . S
O214 C208 1.287 . S
O215 Fe201 1.996 . S
O215 C208 1.255 . S
C216 O209 1.282 1_565 S
C216 O210 1.223 1_565 S
O217 Fe199 2.002 . S
O217 C213 1.295 . S
O218 Fe201 1.997 . S
O218 C213 1.235 . S
C219 O202 1.295 . S
C219 O203 1.235 . S
Fe220 O222 1.918 . S
Fe220 O225 1.997 . S
Fe220 O226 2.002 1_554 S
Fe220 O231 1.976 . S
Fe220 O234 1.996 . S
Fe221 O222 1.918 1_556 S
Fe221 O229 1.997 . S
Fe221 O232 1.996 . S
Fe221 O236 1.976 1_556 S
Fe221 O239 2.002 . S
O222 Fe220 1.918 . S
O222 Fe221 1.918 1_554 S
O222 Fe223 1.918 . S
Fe223 O222 1.918 . S
Fe223 O224 2.002 . S
Fe223 O233 1.976 . S
Fe223 O237 1.996 . S
Fe223 O240 1.997 . S
O224 Fe223 2.002 . S
O224 C241 1.295 . S
O225 Fe220 1.997 . S
O225 C241 1.235 . S
O226 Fe220 2.002 1_556 S
O226 C227 1.295 . S
C227 O226 1.295 . S
C227 O229 1.235 . S
C228 O233 1.287 . S
C228 O234 1.255 . S
O229 Fe221 1.997 . S
O229 C227 1.235 . S
C230 O236 1.287 . S
C230 O237 1.255 . S
O231 Fe220 1.976 . S
O231 C238 1.287 . S
O232 Fe221 1.996 . S
O232 C238 1.255 1_556 S
O233 Fe223 1.976 . S
O233 C228 1.287 . S
O234 Fe220 1.996 . S
O234 C228 1.255 . S
C235 O239 1.295 . S
C235 O240 1.235 1_556 S
O236 Fe221 1.976 1_554 S
O236 C230 1.287 . S
O237 Fe223 1.996 . S
O237 C230 1.255 . S
C238 O231 1.287 . S
C238 O232 1.255 1_554 S
O239 Fe221 2.002 . S
O239 C235 1.295 . S
O240 Fe223 1.997 . S
O240 C235 1.235 1_554 S
C241 O224 1.295 . S
C241 O225 1.235 . S
Fe242 O244 1.918 . S
Fe242 O247 1.997 . S
Fe242 O248 2.002 . S
Fe242 O253 1.976 . S
Fe242 O256 1.996 . S
Fe243 O244 1.918 . S
Fe243 O251 1.997 . S
Fe243 O254 1.996 . S
Fe243 O258 1.976 . S
Fe243 O261 2.002 . S
O244 Fe242 1.918 . S
O244 Fe243 1.918 . S
O244 Fe245 1.918 . S
Fe245 O244 1.918 . S
Fe245 O246 2.002 . S
Fe245 O255 1.976 . S
Fe245 O259 1.996 . S
Fe245 O262 1.997 . S
O246 Fe245 2.002 . S
O246 C263 1.295 . S
O247 Fe242 1.997 . S
O247 C263 1.235 . S
O248 Fe242 2.002 . S
O248 C249 1.295 . S
C249 O248 1.295 . S
C249 O251 1.235 . S
C250 O255 1.287 . S
C250 O256 1.255 . S
O251 Fe243 1.997 . S
O251 C249 1.235 . S
C252 O258 1.287 . S
C252 O259 1.255 . S
O253 Fe242 1.976 . S
O253 C260 1.282 1_565 S
O254 Fe243 1.996 . S
O254 C260 1.223 1_565 S
O255 Fe245 1.976 . S
O255 C250 1.287 . S
O256 Fe242 1.996 . S
O256 C250 1.255 . S
C257 O261 1.295 . S
C257 O262 1.235 . S
O258 Fe243 1.976 . S
O258 C252 1.287 . S
O259 Fe245 1.996 . S
O259 C252 1.255 . S
C260 O253 1.282 1_545 S
C260 O254 1.223 1_545 S
O261 Fe243 2.002 . S
O261 C257 1.295 . S
O262 Fe245 1.997 . S
O262 C257 1.235 . S
C263 O246 1.295 . S
C263 O247 1.235 . S
Fe264 O266 1.918 . S
Fe264 O269 1.997 . S
Fe264 O270 2.002 . S
Fe264 O275 1.976 . S
Fe264 O278 1.996 . S
Fe265 O266 1.918 . S
Fe265 O273 1.997 . S
Fe265 O276 1.996 . S
Fe265 O280 1.976 . S
Fe265 O283 2.002 . S
O266 Fe264 1.918 . S
O266 Fe265 1.918 . S
O266 Fe267 1.918 . S
Fe267 O266 1.918 . S
Fe267 O268 2.002 . S
Fe267 O277 1.976 . S
Fe267 O281 1.996 . S
Fe267 O284 1.997 . S
O268 Fe267 2.002 . S
O268 C285 1.295 . S
O269 Fe264 1.997 . S
O269 C285 1.235 . S
O270 Fe264 2.002 . S
O270 C271 1.295 . S
C271 O270 1.295 . S
C271 O273 1.235 . S
C272 O277 1.287 . S
C272 O278 1.255 . S
O273 Fe265 1.997 . S
O273 C271 1.235 . S
C274 O280 1.287 . S
C274 O281 1.255 . S
O275 Fe264 1.976 . S
O275 C282 1.287 . S
O276 Fe265 1.996 . S
O276 C282 1.255 . S
O277 Fe267 1.976 . S
O277 C272 1.287 . S
O278 Fe264 1.996 . S
O278 C272 1.255 . S
C279 O283 1.295 . S
C279 O284 1.235 . S
O280 Fe265 1.976 . S
O280 C274 1.287 . S
O281 Fe267 1.996 . S
O281 C274 1.255 . S
C282 O275 1.287 . S
C282 O276 1.255 . S
O283 Fe265 2.002 . S
O283 C279 1.295 . S
O284 Fe267 1.997 . S
O284 C279 1.235 . S
C285 O268 1.295 . S
C285 O269 1.235 . S
Fe286 O288 1.918 . S
Fe286 O291 1.997 . S
Fe286 O292 2.002 . S
Fe286 O297 1.976 . S
Fe286 O300 1.996 . S
Fe287 O288 1.918 . S
Fe287 O295 1.997 . S
Fe287 O298 1.996 . S
Fe287 O302 1.976 . S
Fe287 O305 2.002 . S
O288 Fe286 1.918 . S
O288 Fe287 1.918 . S
O288 Fe289 1.918 . S
Fe289 O288 1.918 . S
Fe289 O290 2.002 . S
Fe289 O299 1.976 . S
Fe289 O303 1.996 . S
Fe289 O306 1.997 . S
O290 Fe289 2.002 . S
O290 C307 1.295 . S
O291 Fe286 1.997 . S
O291 C307 1.235 . S
O292 Fe286 2.002 . S
O292 C293 1.295 . S
C293 O292 1.295 . S
C293 O295 1.235 . S
C294 O299 1.287 . S
C294 O300 1.255 . S
O295 Fe287 1.997 . S
O295 C293 1.235 . S
C296 O302 1.287 . S
C296 O303 1.255 . S
O297 Fe286 1.976 . S
O297 C304 1.282 1_565 S
O298 Fe287 1.996 . S
O298 C304 1.223 1_565 S
O299 Fe289 1.976 . S
O299 C294 1.287 . S
O300 Fe286 1.996 . S
O300 C294 1.255 . S
C301 O305 1.295 . S
C301 O306 1.235 . S
O302 Fe287 1.976 . S
O302 C296 1.287 . S
O303 Fe289 1.996 . S
O303 C296 1.255 . S
C304 O297 1.282 1_545 S
C304 O298 1.223 1_545 S
O305 Fe287 2.002 . S
O305 C301 1.295 . S
O306 Fe289 1.997 . S
O306 C301 1.235 . S
C307 O290 1.295 . S
C307 O291 1.235 . S
Fe308 O310 1.918 . S
Fe308 O313 1.997 . S
Fe308 O314 2.002 . S
Fe308 O319 1.976 . S
Fe308 O322 1.996 1_554 S
Fe309 O310 1.918 . S
Fe309 O317 1.997 . S
Fe309 O320 1.996 . S
Fe309 O324 1.976 . S
Fe309 O327 2.002 . S
O310 Fe308 1.918 . S
O310 Fe309 1.918 . S
O310 Fe311 1.918 . S
Fe311 O310 1.918 . S
Fe311 O312 2.002 . S
Fe311 O321 1.976 1_554 S
Fe311 O325 1.996 1_554 S
Fe311 O328 1.997 . S
O312 Fe311 2.002 . S
O312 C329 1.295 . S
O313 Fe308 1.997 . S
O313 C329 1.235 . S
O314 Fe308 2.002 . S
O314 C315 1.295 . S
C315 O314 1.295 . S
C315 O317 1.235 . S
C316 O321 1.287 . S
C316 O322 1.255 . S
O317 Fe309 1.997 . S
O317 C315 1.235 . S
C318 O324 1.287 . S
C318 O325 1.255 1_554 S
O319 Fe308 1.976 . S
O319 C326 1.287 . S
O320 Fe309 1.996 . S
O320 C326 1.255 . S
O321 Fe311 1.976 1_556 S
O321 C316 1.287 . S
O322 Fe308 1.996 1_556 S
O322 C316 1.255 . S
C323 O327 1.295 . S
C323 O328 1.235 . S
O324 Fe309 1.976 . S
O324 C318 1.287 . S
O325 Fe311 1.996 1_556 S
O325 C318 1.255 1_556 S
C326 O319 1.287 . S
C326 O320 1.255 . S
O327 Fe309 2.002 . S
O327 C323 1.295 . S
O328 Fe311 1.997 . S
O328 C323 1.235 . S
C329 O312 1.295 . S
C329 O313 1.235 . S
Fe330 O332 1.918 . S
Fe330 O335 1.997 . S
Fe330 O336 2.002 . S
Fe330 O341 1.976 . S
Fe330 O344 1.996 . S
Fe331 O332 1.918 . S
Fe331 O339 1.997 . S
Fe331 O342 1.996 . S
Fe331 O346 1.976 . S
Fe331 O349 2.002 . S
O332 Fe330 1.918 . S
O332 Fe331 1.918 . S
O332 Fe333 1.918 . S
Fe333 O332 1.918 . S
Fe333 O334 2.002 . S
Fe333 O343 1.976 . S
Fe333 O347 1.996 . S
Fe333 O350 1.997 . S
O334 Fe333 2.002 . S
O334 C351 1.295 . S
O335 Fe330 1.997 . S
O335 C351 1.235 . S
O336 Fe330 2.002 . S
O336 C337 1.295 . S
C337 O336 1.295 . S
C337 O339 1.235 . S
C338 O343 1.287 . S
C338 O344 1.255 . S
O339 Fe331 1.997 . S
O339 C337 1.235 . S
C340 O346 1.287 . S
C340 O347 1.255 . S
O341 Fe330 1.976 . S
O341 C348 1.282 1_545 S
O342 Fe331 1.996 . S
O342 C348 1.223 1_545 S
O343 Fe333 1.976 . S
O343 C338 1.287 . S
O344 Fe330 1.996 . S
O344 C338 1.255 . S
C345 O349 1.295 . S
C345 O350 1.235 . S
O346 Fe331 1.976 . S
O346 C340 1.287 . S
O347 Fe333 1.996 . S
O347 C340 1.255 . S
C348 O341 1.282 1_565 S
C348 O342 1.223 1_565 S
O349 Fe331 2.002 . S
O349 C345 1.295 . S
O350 Fe333 1.997 . S
O350 C345 1.235 . S
C351 O334 1.295 . S
C351 O335 1.235 . S
H352 C360 0.950 1_554 S
H353 C365 0.950 . S
H354 C362 0.950 . S
H355 C364 0.950 . S
H356 C366 0.950 . S
H357 C368 0.950 . S
H358 C370 0.950 . S
H359 C371 0.950 . S
C360 H352 0.950 1_556 S
C360 C361 1.386 . S
C360 C362 1.391 . S
C361 C360 1.386 . S
C361 C365 1.393 . S
C362 H354 0.950 . S
C362 C360 1.391 . S
C362 C363 1.400 . S
C363 C362 1.400 . S
C363 C364 1.398 . S
C363 C369 1.491 . S
C364 H355 0.950 . S
C364 C363 1.398 . S
C364 C365 1.391 . S
C365 H353 0.950 . S
C365 C361 1.393 . S
C365 C364 1.391 . S
C366 H356 0.950 . S
C366 C367 1.386 . S
C366 C368 1.391 . S
C367 C366 1.386 . S
C367 C371 1.393 . S
C368 H357 0.950 . S
C368 C366 1.391 . S
C368 C369 1.400 . S
C369 C363 1.491 . S
C369 C368 1.400 . S
C369 C370 1.398 . S
C370 H358 0.950 . S
C370 C369 1.398 . S
C370 C371 1.391 . S
C371 H359 0.950 . S
C371 C367 1.393 . S
C371 C370 1.391 . S
H372 C380 0.950 . S
H373 C385 0.950 . S
H374 C382 0.950 . S
H375 C384 0.950 . S
H376 C386 0.950 . S
H377 C388 0.950 . S
H378 C390 0.950 . S
H379 C391 0.950 . S
C380 H372 0.950 . S
C380 C381 1.386 . S
C380 C382 1.391 . S
C381 C380 1.386 . S
C381 C385 1.393 . S
C382 H374 0.950 . S
C382 C380 1.391 . S
C382 C383 1.400 . S
C383 C382 1.400 . S
C383 C384 1.398 . S
C383 C389 1.491 . S
C384 H375 0.950 . S
C384 C383 1.398 . S
C384 C385 1.391 . S
C385 H373 0.950 . S
C385 C381 1.393 . S
C385 C384 1.391 . S
C386 H376 0.950 . S
C386 C387 1.386 . S
C386 C388 1.391 . S
C387 C386 1.386 . S
C387 C391 1.393 . S
C388 H377 0.950 . S
C388 C386 1.391 . S
C388 C389 1.400 . S
C389 C383 1.491 . S
C389 C388 1.400 . S
C389 C390 1.398 . S
C390 H378 0.950 . S
C390 C389 1.398 . S
C390 C391 1.391 . S
C391 H379 0.950 . S
C391 C387 1.393 . S
C391 C390 1.391 . S
H392 C400 0.950 . S
H393 C405 0.950 . S
H394 C402 0.950 . S
H395 C404 0.950 . S
H396 C406 0.950 . S
H397 C408 0.950 . S
H398 C410 0.950 . S
H399 C411 0.950 . S
C400 H392 0.950 . S
C400 C401 1.386 . S
C400 C402 1.391 . S
C401 C400 1.386 . S
C401 C405 1.393 . S
C402 H394 0.950 . S
C402 C400 1.391 . S
C402 C403 1.400 . S
C403 C402 1.400 . S
C403 C404 1.398 . S
C403 C409 1.491 . S
C404 H395 0.950 . S
C404 C403 1.398 . S
C404 C405 1.391 . S
C405 H393 0.950 . S
C405 C401 1.393 . S
C405 C404 1.391 . S
C406 H396 0.950 . S
C406 C407 1.386 . S
C406 C408 1.391 . S
C407 C406 1.386 . S
C407 C411 1.393 . S
C408 H397 0.950 . S
C408 C406 1.391 . S
C408 C409 1.400 . S
C409 C403 1.491 . S
C409 C408 1.400 . S
C409 C410 1.398 . S
C410 H398 0.950 . S
C410 C409 1.398 . S
C410 C411 1.391 . S
C411 H399 0.950 . S
C411 C407 1.393 . S
C411 C410 1.391 . S
H412 C420 0.950 . S
H413 C425 0.950 . S
H414 C422 0.950 . S
H415 C424 0.950 . S
H416 C426 0.950 . S
H417 C428 0.950 . S
H418 C430 0.950 . S
H419 C431 0.950 . S
C420 H412 0.950 . S
C420 C421 1.386 . S
C420 C422 1.391 . S
C421 C420 1.386 . S
C421 C425 1.393 . S
C422 H414 0.950 . S
C422 C420 1.391 . S
C422 C423 1.400 . S
C423 C422 1.400 . S
C423 C424 1.398 . S
C423 C429 1.491 . S
C424 H415 0.950 . S
C424 C423 1.398 . S
C424 C425 1.391 . S
C425 H413 0.950 . S
C425 C421 1.393 . S
C425 C424 1.391 . S
C426 H416 0.950 . S
C426 C427 1.386 . S
C426 C428 1.391 . S
C427 C426 1.386 . S
C427 C431 1.393 . S
C428 H417 0.950 . S
C428 C426 1.391 . S
C428 C429 1.400 . S
C429 C423 1.491 . S
C429 C428 1.400 . S
C429 C430 1.398 . S
C430 H418 0.950 . S
C430 C429 1.398 . S
C430 C431 1.391 . S
C431 H419 0.950 . S
C431 C427 1.393 . S
C431 C430 1.391 . S
H432 C440 0.950 . S
H433 C445 0.950 . S
H434 C442 0.950 . S
H435 C444 0.950 . S
H436 C446 0.950 . S
H437 C448 0.950 . S
H438 C450 0.950 . S
H439 C451 0.950 . S
C440 H432 0.950 . S
C440 C441 1.386 . S
C440 C442 1.391 . S
C441 C440 1.386 . S
C441 C445 1.393 . S
C442 H434 0.950 . S
C442 C440 1.391 . S
C442 C443 1.400 . S
C443 C442 1.400 . S
C443 C444 1.398 . S
C443 C449 1.491 . S
C444 H435 0.950 . S
C444 C443 1.398 . S
C444 C445 1.391 . S
C445 H433 0.950 . S
C445 C441 1.393 . S
C445 C444 1.391 . S
C446 H436 0.950 . S
C446 C447 1.386 . S
C446 C448 1.391 . S
C447 C446 1.386 . S
C447 C451 1.393 . S
C448 H437 0.950 . S
C448 C446 1.391 . S
C448 C449 1.400 . S
C449 C443 1.491 . S
C449 C448 1.400 . S
C449 C450 1.398 . S
C450 H438 0.950 . S
C450 C449 1.398 . S
C450 C451 1.391 . S
C451 H439 0.950 . S
C451 C447 1.393 . S
C451 C450 1.391 . S
H452 C460 0.950 . S
H453 C465 0.950 . S
H454 C462 0.950 . S
H455 C464 0.950 . S
H456 C466 0.950 . S
H457 C468 0.950 . S
H458 C470 0.950 . S
H459 C471 0.950 1_554 S
C460 H452 0.950 . S
C460 C461 1.386 . S
C460 C462 1.391 . S
C461 C460 1.386 . S
C461 C465 1.393 . S
C462 H454 0.950 . S
C462 C460 1.391 . S
C462 C463 1.400 . S
C463 C462 1.400 . S
C463 C464 1.398 . S
C463 C469 1.491 . S
C464 H455 0.950 . S
C464 C463 1.398 . S
C464 C465 1.391 . S
C465 H453 0.950 . S
C465 C461 1.393 . S
C465 C464 1.391 . S
C466 H456 0.950 . S
C466 C467 1.386 . S
C466 C468 1.391 . S
C467 C466 1.386 . S
C467 C471 1.393 . S
C468 H457 0.950 . S
C468 C466 1.391 . S
C468 C469 1.400 . S
C469 C463 1.491 . S
C469 C468 1.400 . S
C469 C470 1.398 . S
C470 H458 0.950 . S
C470 C469 1.398 . S
C470 C471 1.391 . S
C471 H459 0.950 1_556 S
C471 C467 1.393 . S
C471 C470 1.391 . S
H472 C480 0.950 . S
H473 C485 0.950 . S
H474 C482 0.950 . S
H475 C484 0.950 . S
H476 C486 0.950 . S
H477 C488 0.950 . S
H478 C490 0.950 . S
H479 C491 0.950 . S
C480 H472 0.950 . S
C480 C481 1.386 . S
C480 C482 1.391 . S
C481 C480 1.386 . S
C481 C485 1.393 . S
C482 H474 0.950 . S
C482 C480 1.391 . S
C482 C483 1.400 . S
C483 C482 1.400 . S
C483 C484 1.398 . S
C483 C489 1.491 . S
C484 H475 0.950 . S
C484 C483 1.398 . S
C484 C485 1.391 . S
C485 H473 0.950 . S
C485 C481 1.393 . S
C485 C484 1.391 . S
C486 H476 0.950 . S
C486 C487 1.386 . S
C486 C488 1.391 . S
C487 C486 1.386 . S
C487 C491 1.393 . S
C488 H477 0.950 . S
C488 C486 1.391 . S
C488 C489 1.400 . S
C489 C483 1.491 . S
C489 C488 1.400 . S
C489 C490 1.398 . S
C490 H478 0.950 . S
C490 C489 1.398 . S
C490 C491 1.391 . S
C491 H479 0.950 . S
C491 C487 1.393 . S
C491 C490 1.391 . S
H492 C500 0.950 . S
H493 C505 0.950 . S
H494 C502 0.950 . S
H495 C504 0.950 . S
H496 C506 0.950 . S
H497 C508 0.950 . S
H498 C510 0.950 . S
H499 C511 0.950 . S
C500 H492 0.950 . S
C500 C501 1.386 . S
C500 C502 1.391 . S
C501 C500 1.386 . S
C501 C505 1.393 . S
C502 H494 0.950 . S
C502 C500 1.391 . S
C502 C503 1.400 . S
C503 C502 1.400 . S
C503 C504 1.398 . S
C503 C509 1.491 . S
C504 H495 0.950 . S
C504 C503 1.398 . S
C504 C505 1.391 . S
C505 H493 0.950 . S
C505 C501 1.393 . S
C505 C504 1.391 . S
C506 H496 0.950 . S
C506 C507 1.386 . S
C506 C508 1.391 . S
C507 C506 1.386 . S
C507 C511 1.393 . S
C508 H497 0.950 . S
C508 C506 1.391 . S
C508 C509 1.400 . S
C509 C503 1.491 . S
C509 C508 1.400 . S
C509 C510 1.398 . S
C510 H498 0.950 . S
C510 C509 1.398 . S
C510 C511 1.391 . S
C511 H499 0.950 . S
C511 C507 1.393 . S
C511 C510 1.391 . S
H512 C520 0.950 . S
H513 C525 0.950 . S
H514 C522 0.950 . S
H515 C524 0.950 . S
H516 C526 0.950 . S
H517 C528 0.950 . S
H518 C530 0.950 . S
H519 C531 0.950 . S
C520 H512 0.950 . S
C520 C521 1.386 . S
C520 C522 1.391 . S
C521 C520 1.386 . S
C521 C525 1.393 . S
C522 H514 0.950 . S
C522 C520 1.391 . S
C522 C523 1.400 . S
C523 C522 1.400 . S
C523 C524 1.398 . S
C523 C529 1.491 . S
C524 H515 0.950 . S
C524 C523 1.398 . S
C524 C525 1.391 . S
C525 H513 0.950 . S
C525 C521 1.393 . S
C525 C524 1.391 . S
C526 H516 0.950 . S
C526 C527 1.386 . S
C526 C528 1.391 . S
C527 C526 1.386 . S
C527 C531 1.393 . S
C528 H517 0.950 . S
C528 C526 1.391 . S
C528 C529 1.400 . S
C529 C523 1.491 . S
C529 C528 1.400 . S
C529 C530 1.398 . S
C530 H518 0.950 . S
C530 C529 1.398 . S
C530 C531 1.391 . S
C531 H519 0.950 . S
C531 C527 1.393 . S
C531 C530 1.391 . S
H532 C540 0.950 . S
H533 C545 0.950 . S
H534 C542 0.950 . S
H535 C544 0.950 . S
H536 C546 0.950 . S
H537 C548 0.950 . S
H538 C550 0.950 . S
H539 C551 0.950 . S
C540 H532 0.950 . S
C540 C541 1.386 . S
C540 C542 1.391 . S
C541 C540 1.386 . S
C541 C545 1.393 . S
C542 H534 0.950 . S
C542 C540 1.391 . S
C542 C543 1.400 . S
C543 C542 1.400 . S
C543 C544 1.398 . S
C543 C549 1.491 . S
C544 H535 0.950 . S
C544 C543 1.398 . S
C544 C545 1.391 . S
C545 H533 0.950 . S
C545 C541 1.393 . S
C545 C544 1.391 . S
C546 H536 0.950 . S
C546 C547 1.386 . S
C546 C548 1.391 . S
C547 C546 1.386 . S
C547 C551 1.393 . S
C548 H537 0.950 . S
C548 C546 1.391 . S
C548 C549 1.400 . S
C549 C543 1.491 . S
C549 C548 1.400 . S
C549 C550 1.398 . S
C550 H538 0.950 . S
C550 C549 1.398 . S
C550 C551 1.391 . S
C551 H539 0.950 . S
C551 C547 1.393 . S
C551 C550 1.391 . S
H552 C560 0.950 . S
H553 C565 0.950 . S
H554 C562 0.950 . S
H555 C564 0.950 . S
H556 C566 0.950 . S
H557 C568 0.950 . S
H558 C570 0.950 1_554 S
H559 C571 0.950 . S
C560 H552 0.950 . S
C560 C561 1.386 . S
C560 C562 1.391 . S
C561 C560 1.386 . S
C561 C565 1.393 . S
C562 H554 0.950 . S
C562 C560 1.391 . S
C562 C563 1.400 . S
C563 C562 1.400 . S
C563 C564 1.398 . S
C563 C569 1.491 . S
C564 H555 0.950 . S
C564 C563 1.398 . S
C564 C565 1.391 . S
C565 H553 0.950 . S
C565 C561 1.393 . S
C565 C564 1.391 . S
C566 H556 0.950 . S
C566 C567 1.386 . S
C566 C568 1.391 . S
C567 C566 1.386 . S
C567 C571 1.393 1_556 S
C568 H557 0.950 . S
C568 C566 1.391 . S
C568 C569 1.400 . S
C569 C563 1.491 . S
C569 C568 1.400 . S
C569 C570 1.398 . S
C570 H558 0.950 1_556 S
C570 C569 1.398 . S
C570 C571 1.391 1_556 S
C571 H559 0.950 . S
C571 C567 1.393 1_554 S
C571 C570 1.391 1_554 S
H572 C580 0.950 . S
H573 C585 0.950 . S
H574 C582 0.950 . S
H575 C584 0.950 . S
H576 C586 0.950 . S
H577 C588 0.950 . S
H578 C590 0.950 . S
H579 C591 0.950 . S
C580 H572 0.950 . S
C580 C581 1.386 . S
C580 C582 1.391 . S
C581 C580 1.386 . S
C581 C585 1.393 . S
C582 H574 0.950 . S
C582 C580 1.391 . S
C582 C583 1.400 . S
C583 C582 1.400 . S
C583 C584 1.398 . S
C583 C589 1.491 . S
C584 H575 0.950 . S
C584 C583 1.398 . S
C584 C585 1.391 . S
C585 H573 0.950 . S
C585 C581 1.393 . S
C585 C584 1.391 . S
C586 H576 0.950 . S
C586 C587 1.386 . S
C586 C588 1.391 . S
C587 C586 1.386 . S
C587 C591 1.393 . S
C588 H577 0.950 . S
C588 C586 1.391 . S
C588 C589 1.400 . S
C589 C583 1.491 . S
C589 C588 1.400 . S
C589 C590 1.398 . S
C590 H578 0.950 . S
C590 C589 1.398 . S
C590 C591 1.391 . S
C591 H579 0.950 . S
C591 C587 1.393 . S
C591 C590 1.391 . S
H592 C600 0.950 . S
H593 C605 0.950 . S
H594 C602 0.950 . S
H595 C604 0.950 . S
H596 C606 0.950 . S
H597 C608 0.950 . S
H598 C610 0.950 . S
H599 C611 0.950 . S
C600 H592 0.950 . S
C600 C601 1.386 . S
C600 C602 1.391 . S
C601 C600 1.386 . S
C601 C605 1.393 . S
C602 H594 0.950 . S
C602 C600 1.391 . S
C602 C603 1.400 . S
C603 C602 1.400 . S
C603 C604 1.398 . S
C603 C609 1.491 . S
C604 H595 0.950 . S
C604 C603 1.398 . S
C604 C605 1.391 . S
C605 H593 0.950 . S
C605 C601 1.393 . S
C605 C604 1.391 . S
C606 H596 0.950 . S
C606 C607 1.386 . S
C606 C608 1.391 . S
C607 C606 1.386 . S
C607 C611 1.393 . S
C608 H597 0.950 . S
C608 C606 1.391 . S
C608 C609 1.400 . S
C609 C603 1.491 . S
C609 C608 1.400 . S
C609 C610 1.398 . S
C610 H598 0.950 . S
C610 C609 1.398 . S
C610 C611 1.391 . S
C611 H599 0.950 . S
C611 C607 1.393 . S
C611 C610 1.391 . S
H612 C620 0.950 . S
H613 C625 0.950 . S
H614 C622 0.950 . S
H615 C624 0.950 . S
H616 C626 0.947 1_565 S
H617 C628 0.950 . S
H618 C630 0.950 . S
H619 C631 0.950 . S
C620 H612 0.950 . S
C620 C621 1.386 . S
C620 C622 1.391 . S
C621 C620 1.386 . S
C621 C625 1.393 . S
C622 H614 0.950 . S
C622 C620 1.391 . S
C622 C623 1.400 . S
C623 C622 1.400 . S
C623 C624 1.398 . S
C623 C629 1.491 . S
C624 H615 0.950 . S
C624 C623 1.398 . S
C624 C625 1.391 . S
C625 H613 0.950 . S
C625 C621 1.393 . S
C625 C624 1.391 . S
C626 H616 0.947 1_545 S
C626 C627 1.386 . S
C626 C628 1.391 . S
C627 C626 1.386 . S
C627 C631 1.393 . S
C628 H617 0.950 . S
C628 C626 1.391 . S
C628 C629 1.400 . S
C629 C623 1.491 . S
C629 C628 1.400 . S
C629 C630 1.398 . S
C630 H618 0.950 . S
C630 C629 1.398 . S
C630 C631 1.391 . S
C631 H619 0.950 . S
C631 C627 1.393 . S
C631 C630 1.391 . S
H632 C640 0.950 . S
H633 C645 0.950 . S
H634 C642 0.950 . S
H635 C644 0.950 . S
H636 C646 0.950 . S
H637 C648 0.950 . S
H638 C650 0.950 . S
H639 C651 0.950 . S
C640 H632 0.950 . S
C640 C641 1.386 . S
C640 C642 1.391 . S
C641 C640 1.386 . S
C641 C645 1.393 . S
C642 H634 0.950 . S
C642 C640 1.391 . S
C642 C643 1.400 . S
C643 C642 1.400 . S
C643 C644 1.398 . S
C643 C649 1.491 . S
C644 H635 0.950 . S
C644 C643 1.398 . S
C644 C645 1.391 . S
C645 H633 0.950 . S
C645 C641 1.393 . S
C645 C644 1.391 . S
C646 H636 0.950 . S
C646 C647 1.386 . S
C646 C648 1.391 . S
C647 C646 1.386 . S
C647 C651 1.393 . S
C648 H637 0.950 . S
C648 C646 1.391 . S
C648 C649 1.400 . S
C649 C643 1.491 . S
C649 C648 1.400 . S
C649 C650 1.398 . S
C650 H638 0.950 . S
C650 C649 1.398 . S
C650 C651 1.391 . S
C651 H639 0.950 . S
C651 C647 1.393 . S
C651 C650 1.391 . S
H652 C660 0.950 . S
H653 C665 0.950 . S
H654 C662 0.950 . S
H655 C664 0.950 . S
H656 C666 0.950 . S
H657 C668 0.950 . S
H658 C670 0.950 . S
H659 C671 0.950 . S
C660 H652 0.950 . S
C660 C661 1.386 . S
C660 C662 1.391 . S
C661 C660 1.386 . S
C661 C665 1.393 . S
C662 H654 0.950 . S
C662 C660 1.391 . S
C662 C663 1.400 . S
C663 C662 1.400 . S
C663 C664 1.398 . S
C663 C669 1.491 . S
C664 H655 0.950 . S
C664 C663 1.398 . S
C664 C665 1.391 . S
C665 H653 0.950 . S
C665 C661 1.393 . S
C665 C664 1.391 . S
C666 H656 0.950 . S
C666 C667 1.386 . S
C666 C668 1.391 . S
C667 C666 1.386 . S
C667 C671 1.393 . S
C668 H657 0.950 . S
C668 C666 1.391 . S
C668 C669 1.400 . S
C669 C663 1.491 . S
C669 C668 1.400 . S
C669 C670 1.398 . S
C670 H658 0.950 . S
C670 C669 1.398 . S
C670 C671 1.391 . S
C671 H659 0.950 . S
C671 C667 1.393 . S
C671 C670 1.391 . S
H672 C680 0.950 1_554 S
H673 C685 0.950 . S
H674 C682 0.950 . S
H675 C684 0.950 . S
H676 C686 0.950 . S
H677 C688 0.950 . S
H678 C690 0.950 . S
H679 C691 0.950 . S
C680 H672 0.950 1_556 S
C680 C681 1.386 . S
C680 C682 1.391 . S
C681 C680 1.386 . S
C681 C685 1.393 . S
C682 H674 0.950 . S
C682 C680 1.391 . S
C682 C683 1.400 . S
C683 C682 1.400 . S
C683 C684 1.398 . S
C683 C689 1.491 . S
C684 H675 0.950 . S
C684 C683 1.398 . S
C684 C685 1.391 . S
C685 H673 0.950 . S
C685 C681 1.393 . S
C685 C684 1.391 . S
C686 H676 0.950 . S
C686 C687 1.386 . S
C686 C688 1.391 . S
C687 C686 1.386 . S
C687 C691 1.393 . S
C688 H677 0.950 . S
C688 C686 1.391 . S
C688 C689 1.400 . S
C689 C683 1.491 . S
C689 C688 1.400 . S
C689 C690 1.398 . S
C690 H678 0.950 . S
C690 C689 1.398 . S
C690 C691 1.391 . S
C691 H679 0.950 . S
C691 C687 1.393 . S
C691 C690 1.391 . S
H692 C700 0.950 . S
H693 C705 0.950 . S
H694 C702 0.950 . S
H695 C704 0.950 . S
H696 C706 0.950 . S
H697 C708 0.950 . S
H698 C710 0.950 . S
H699 C711 0.950 . S
C700 H692 0.950 . S
C700 C701 1.386 . S
C700 C702 1.391 . S
C701 C700 1.386 . S
C701 C705 1.393 . S
C702 H694 0.950 . S
C702 C700 1.391 . S
C702 C703 1.400 . S
C703 C702 1.400 . S
C703 C704 1.398 . S
C703 C709 1.491 . S
C704 H695 0.950 . S
C704 C703 1.398 . S
C704 C705 1.391 . S
C705 H693 0.950 . S
C705 C701 1.393 . S
C705 C704 1.391 . S
C706 H696 0.950 . S
C706 C707 1.386 . S
C706 C708 1.391 . S
C707 C706 1.386 . S
C707 C711 1.393 . S
C708 H697 0.950 . S
C708 C706 1.391 . S
C708 C709 1.400 . S
C709 C703 1.491 . S
C709 C708 1.400 . S
C709 C710 1.398 . S
C710 H698 0.950 . S
C710 C709 1.398 . S
C710 C711 1.391 . S
C711 H699 0.950 . S
C711 C707 1.393 . S
C711 C710 1.391 . S
H712 C720 0.950 1_655 S
H713 C725 0.950 . S
H714 C722 0.950 . S
H715 C724 0.950 . S
H716 C726 0.950 . S
H717 C728 0.950 . S
H718 C730 0.950 . S
H719 C731 0.950 . S
C720 H712 0.950 1_455 S
C720 C721 1.386 . S
C720 C722 1.391 . S
C721 C720 1.386 . S
C721 C725 1.393 . S
C722 H714 0.950 . S
C722 C720 1.391 . S
C722 C723 1.400 . S
C723 C722 1.400 . S
C723 C724 1.398 . S
C723 C729 1.491 . S
C724 H715 0.950 . S
C724 C723 1.398 . S
C724 C725 1.391 . S
C725 H713 0.950 . S
C725 C721 1.393 . S
C725 C724 1.391 . S
C726 H716 0.950 . S
C726 C727 1.386 . S
C726 C728 1.391 . S
C727 C726 1.386 . S
C727 C731 1.393 . S
C728 H717 0.950 . S
C728 C726 1.391 . S
C728 C729 1.400 . S
C729 C723 1.491 . S
C729 C728 1.400 . S
C729 C730 1.398 . S
C730 H718 0.950 . S
C730 C729 1.398 . S
C730 C731 1.391 . S
C731 H719 0.950 . S
C731 C727 1.393 . S
C731 C730 1.391 . S
H732 C740 0.950 . S
H733 C745 0.950 . S
H734 C742 0.950 . S
H735 C744 0.950 . S
H736 C746 0.950 . S
H737 C748 0.950 . S
H738 C750 0.950 . S
H739 C751 0.950 . S
C740 H732 0.950 . S
C740 C741 1.386 . S
C740 C742 1.391 . S
C741 C740 1.386 . S
C741 C745 1.393 . S
C742 H734 0.950 . S
C742 C740 1.391 . S
C742 C743 1.400 . S
C743 C742 1.400 . S
C743 C744 1.398 . S
C743 C749 1.491 . S
C744 H735 0.950 . S
C744 C743 1.398 . S
C744 C745 1.391 . S
C745 H733 0.950 . S
C745 C741 1.393 . S
C745 C744 1.391 . S
C746 H736 0.950 . S
C746 C747 1.386 . S
C746 C748 1.391 . S
C747 C746 1.386 . S
C747 C751 1.393 . S
C748 H737 0.950 . S
C748 C746 1.391 . S
C748 C749 1.400 . S
C749 C743 1.491 . S
C749 C748 1.400 . S
C749 C750 1.398 . S
C750 H738 0.950 . S
C750 C749 1.398 . S
C750 C751 1.391 . S
C751 H739 0.950 . S
C751 C747 1.393 . S
C751 C750 1.391 . S
H752 C760 0.950 . S
H753 C765 0.950 . S
H754 C762 0.950 . S
H755 C764 0.950 . S
H756 C766 0.950 . S
H757 C768 0.950 . S
H758 C770 0.950 . S
H759 C771 0.950 . S
C760 H752 0.950 . S
C760 C761 1.386 . S
C760 C762 1.391 . S
C761 C760 1.386 . S
C761 C765 1.393 . S
C762 H754 0.950 . S
C762 C760 1.391 . S
C762 C763 1.400 . S
C763 C762 1.400 . S
C763 C764 1.398 . S
C763 C769 1.491 . S
C764 H755 0.950 . S
C764 C763 1.398 . S
C764 C765 1.391 . S
C765 H753 0.950 . S
C765 C761 1.393 . S
C765 C764 1.391 . S
C766 H756 0.950 . S
C766 C767 1.386 . S
C766 C768 1.391 . S
C767 C766 1.386 . S
C767 C771 1.393 . S
C768 H757 0.950 . S
C768 C766 1.391 . S
C768 C769 1.400 . S
C769 C763 1.491 . S
C769 C768 1.400 . S
C769 C770 1.398 . S
C770 H758 0.950 . S
C770 C769 1.398 . S
C770 C771 1.391 . S
C771 H759 0.950 . S
C771 C767 1.393 . S
C771 C770 1.391 . S
H772 C780 0.950 . S
H773 C785 0.950 . S
H774 C782 0.950 . S
H775 C784 0.950 . S
H776 C786 0.950 . S
H777 C788 0.950 . S
H778 C790 0.950 . S
H779 C791 0.950 . S
C780 H772 0.950 . S
C780 C781 1.386 . S
C780 C782 1.391 . S
C781 C780 1.386 . S
C781 C785 1.393 1_554 S
C782 H774 0.950 . S
C782 C780 1.391 . S
C782 C783 1.400 1_554 S
C783 C782 1.400 1_556 S
C783 C784 1.398 . S
C783 C789 1.491 . S
C784 H775 0.950 . S
C784 C783 1.398 . S
C784 C785 1.391 . S
C785 H773 0.950 . S
C785 C781 1.393 1_556 S
C785 C784 1.391 . S
C786 H776 0.950 . S
C786 C787 1.386 . S
C786 C788 1.391 . S
C787 C786 1.386 . S
C787 C791 1.393 . S
C788 H777 0.950 . S
C788 C786 1.391 . S
C788 C789 1.400 . S
C789 C783 1.491 . S
C789 C788 1.400 . S
C789 C790 1.398 . S
C790 H778 0.950 . S
C790 C789 1.398 . S
C790 C791 1.391 . S
C791 H779 0.950 . S
C791 C787 1.393 . S
C791 C790 1.391 . S
H792 C800 0.950 . S
H793 C805 0.950 . S
H794 C802 0.950 . S
H795 C804 0.950 . S
H796 C806 0.950 . S
H797 C808 0.950 . S
H798 C810 0.950 . S
H799 C811 0.950 . S
C800 H792 0.950 . S
C800 C801 1.386 . S
C800 C802 1.391 . S
C801 C800 1.386 . S
C801 C805 1.393 . S
C802 H794 0.950 . S
C802 C800 1.391 . S
C802 C803 1.400 . S
C803 C802 1.400 . S
C803 C804 1.398 . S
C803 C809 1.491 . S
C804 H795 0.950 . S
C804 C803 1.398 . S
C804 C805 1.391 . S
C805 H793 0.950 . S
C805 C801 1.393 . S
C805 C804 1.391 . S
C806 H796 0.950 . S
C806 C807 1.386 . S
C806 C808 1.391 . S
C807 C806 1.386 . S
C807 C811 1.393 . S
C808 H797 0.950 . S
C808 C806 1.391 . S
C808 C809 1.400 . S
C809 C803 1.491 . S
C809 C808 1.400 . S
C809 C810 1.398 . S
C810 H798 0.950 . S
C810 C809 1.398 . S
C810 C811 1.391 . S
C811 H799 0.950 . S
C811 C807 1.393 . S
C811 C810 1.391 . S
H812 C820 0.950 . S
H813 C825 0.950 . S
H814 C822 0.950 . S
H815 C824 0.950 . S
H816 C826 0.950 . S
H817 C828 0.950 . S
H818 C830 0.950 . S
H819 C831 0.950 . S
C820 H812 0.950 . S
C820 C821 1.386 . S
C820 C822 1.391 . S
C821 C820 1.386 . S
C821 C825 1.393 . S
C822 H814 0.950 . S
C822 C820 1.391 . S
C822 C823 1.400 . S
C823 C822 1.400 . S
C823 C824 1.398 . S
C823 C829 1.491 . S
C824 H815 0.950 . S
C824 C823 1.398 . S
C824 C825 1.391 . S
C825 H813 0.950 . S
C825 C821 1.393 . S
C825 C824 1.391 . S
C826 H816 0.950 . S
C826 C827 1.386 . S
C826 C828 1.391 . S
C827 C826 1.386 . S
C827 C831 1.393 . S
C828 H817 0.950 . S
C828 C826 1.391 . S
C828 C829 1.400 . S
C829 C823 1.491 . S
C829 C828 1.400 . S
C829 C830 1.398 . S
C830 H818 0.950 . S
C830 C829 1.398 . S
C830 C831 1.391 . S
C831 H819 0.950 . S
C831 C827 1.393 . S
C831 C830 1.391 . S
H832 C840 0.950 . S
H833 C845 0.950 . S
H834 C842 0.950 . S
H835 C844 0.950 . S
H836 C846 0.981 . S
H837 C848 0.950 . S
H838 C850 0.950 . S
H839 C851 0.950 . S
C840 H832 0.950 . S
C840 C841 1.386 . S
C840 C842 1.391 . S
C841 C840 1.386 . S
C841 C845 1.393 . S
C842 H834 0.950 . S
C842 C840 1.391 . S
C842 C843 1.400 . S
C843 C842 1.400 . S
C843 C844 1.398 . S
C843 C849 1.491 . S
C844 H835 0.950 . S
C844 C843 1.398 . S
C844 C845 1.391 . S
C845 H833 0.950 . S
C845 C841 1.393 . S
C845 C844 1.391 . S
C846 H836 0.981 . S
C846 C847 1.386 . S
C846 C848 1.391 . S
C847 C846 1.386 . S
C847 C851 1.393 . S
C848 H837 0.950 . S
C848 C846 1.391 . S
C848 C849 1.400 . S
C849 C843 1.491 . S
C849 C848 1.400 . S
C849 C850 1.398 . S
C850 H838 0.950 . S
C850 C849 1.398 . S
C850 C851 1.391 . S
C851 H839 0.950 . S
C851 C847 1.393 . S
C851 C850 1.391 . S
H852 C860 0.950 . S
H853 C865 0.950 . S
H854 C862 0.950 . S
H855 C864 0.950 . S
H856 C866 0.950 . S
H857 C868 0.950 . S
H858 C870 0.950 . S
H859 C871 0.950 . S
C860 H852 0.950 . S
C860 C861 1.386 . S
C860 C862 1.391 . S
C861 C860 1.386 . S
C861 C865 1.393 . S
C862 H854 0.950 . S
C862 C860 1.391 . S
C862 C863 1.400 . S
C863 C862 1.400 . S
C863 C864 1.398 . S
C863 C869 1.491 . S
C864 H855 0.950 . S
C864 C863 1.398 . S
C864 C865 1.391 . S
C865 H853 0.950 . S
C865 C861 1.393 . S
C865 C864 1.391 . S
C866 H856 0.950 . S
C866 C867 1.386 . S
C866 C868 1.391 . S
C867 C866 1.386 . S
C867 C871 1.393 . S
C868 H857 0.950 . S
C868 C866 1.391 . S
C868 C869 1.400 . S
C869 C863 1.491 . S
C869 C868 1.400 . S
C869 C870 1.398 . S
C870 H858 0.950 . S
C870 C869 1.398 . S
C870 C871 1.391 . S
C871 H859 0.950 . S
C871 C867 1.393 . S
C871 C870 1.391 . S
H872 C880 0.950 . S
H873 C885 0.950 . S
H874 C882 0.950 . S
H875 C884 0.950 . S
H876 C886 0.950 . S
H877 C888 0.950 . S
H878 C890 0.950 . S
H879 C891 0.950 . S
C880 H872 0.950 . S
C880 C881 1.386 . S
C880 C882 1.391 . S
C881 C880 1.386 . S
C881 C885 1.393 . S
C882 H874 0.950 . S
C882 C880 1.391 . S
C882 C883 1.400 . S
C883 C882 1.400 . S
C883 C884 1.398 . S
C883 C889 1.491 . S
C884 H875 0.950 . S
C884 C883 1.398 . S
C884 C885 1.391 . S
C885 H873 0.950 . S
C885 C881 1.393 . S
C885 C884 1.391 . S
C886 H876 0.950 . S
C886 C887 1.386 . S
C886 C888 1.391 . S
C887 C886 1.386 . S
C887 C891 1.393 . S
C888 H877 0.950 . S
C888 C886 1.391 . S
C888 C889 1.400 . S
C889 C883 1.491 . S
C889 C888 1.400 . S
C889 C890 1.398 . S
C890 H878 0.950 . S
C890 C889 1.398 . S
C890 C891 1.391 . S
C891 H879 0.950 . S
C891 C887 1.393 . S
C891 C890 1.391 . S
H892 C900 0.950 . S
H893 C905 0.950 . S
H894 C902 0.950 . S
H895 C904 0.950 . S
H896 C906 0.950 . S
H897 C908 0.950 . S
H898 C910 0.950 . S
H899 C911 0.950 . S
C900 H892 0.950 . S
C900 C901 1.386 . S
C900 C902 1.391 . S
C901 C900 1.386 . S
C901 C905 1.393 . S
C902 H894 0.950 . S
C902 C900 1.391 . S
C902 C903 1.400 . S
C903 C902 1.400 . S
C903 C904 1.398 . S
C903 C909 1.491 . S
C904 H895 0.950 . S
C904 C903 1.398 . S
C904 C905 1.391 . S
C905 H893 0.950 . S
C905 C901 1.393 . S
C905 C904 1.391 . S
C906 H896 0.950 . S
C906 C907 1.386 . S
C906 C908 1.391 . S
C907 C906 1.386 . S
C907 C911 1.393 . S
C908 H897 0.950 . S
C908 C906 1.391 . S
C908 C909 1.400 . S
C909 C903 1.491 . S
C909 C908 1.400 . S
C909 C910 1.398 . S
C910 H898 0.950 . S
C910 C909 1.398 . S
C910 C911 1.391 . S
C911 H899 0.950 . S
C911 C907 1.393 . S
C911 C910 1.391 . S
H912 C920 0.950 . S
H913 C925 0.950 . S
H914 C922 0.950 . S
H915 C924 0.950 . S
H916 C926 0.950 . S
H917 C928 0.950 . S
H918 C930 0.950 . S
H919 C931 0.950 . S
C920 H912 0.950 . S
C920 C921 1.386 . S
C920 C922 1.391 . S
C921 C920 1.386 . S
C921 C925 1.393 . S
C922 H914 0.950 . S
C922 C920 1.391 . S
C922 C923 1.400 . S
C923 C922 1.400 . S
C923 C924 1.398 . S
C923 C929 1.491 . S
C924 H915 0.950 . S
C924 C923 1.398 . S
C924 C925 1.391 . S
C925 H913 0.950 . S
C925 C921 1.393 . S
C925 C924 1.391 . S
C926 H916 0.950 . S
C926 C927 1.386 . S
C926 C928 1.391 . S
C927 C926 1.386 . S
C927 C931 1.393 . S
C928 H917 0.950 . S
C928 C926 1.391 . S
C928 C929 1.400 . S
C929 C923 1.491 . S
C929 C928 1.400 . S
C929 C930 1.398 . S
C930 H918 0.950 . S
C930 C929 1.398 . S
C930 C931 1.391 . S
C931 H919 0.950 . S
C931 C927 1.393 . S
C931 C930 1.391 . S
H932 C940 0.950 . S
H933 C945 0.950 . S
H934 C942 0.950 . S
H935 C944 0.950 . S
H936 C946 0.950 . S
H937 C948 0.950 . S
H938 C950 0.950 . S
H939 C951 0.950 . S
C940 H932 0.950 . S
C940 C941 1.386 . S
C940 C942 1.391 . S
C941 C940 1.386 . S
C941 C945 1.393 . S
C942 H934 0.950 . S
C942 C940 1.391 . S
C942 C943 1.400 . S
C943 C942 1.400 . S
C943 C944 1.398 . S
C943 C949 1.491 . S
C944 H935 0.950 . S
C944 C943 1.398 . S
C944 C945 1.391 . S
C945 H933 0.950 . S
C945 C941 1.393 . S
C945 C944 1.391 . S
C946 H936 0.950 . S
C946 C947 1.386 . S
C946 C948 1.391 . S
C947 C946 1.386 . S
C947 C951 1.393 . S
C948 H937 0.950 . S
C948 C946 1.391 . S
C948 C949 1.400 . S
C949 C943 1.491 . S
C949 C948 1.400 . S
C949 C950 1.398 . S
C950 H938 0.950 . S
C950 C949 1.398 . S
C950 C951 1.391 . S
C951 H939 0.950 . S
C951 C947 1.393 . S
C951 C950 1.391 . S
H952 C960 0.950 . S
H953 C965 0.950 . S
H954 C962 0.950 . S
H955 C964 0.950 . S
H956 C966 0.950 . S
H957 C968 0.950 . S
H958 C970 0.950 . S
H959 C971 0.950 . S
C960 H952 0.950 . S
C960 C961 1.386 . S
C960 C962 1.391 . S
C961 C960 1.386 . S
C961 C965 1.393 . S
C962 H954 0.950 . S
C962 C960 1.391 . S
C962 C963 1.400 . S
C963 C962 1.400 . S
C963 C964 1.398 . S
C963 C969 1.491 . S
C964 H955 0.950 . S
C964 C963 1.398 . S
C964 C965 1.391 . S
C965 H953 0.950 . S
C965 C961 1.393 . S
C965 C964 1.391 . S
C966 H956 0.950 . S
C966 C967 1.386 . S
C966 C968 1.391 . S
C967 C966 1.386 . S
C967 C971 1.393 . S
C968 H957 0.950 . S
C968 C966 1.391 . S
C968 C969 1.400 . S
C969 C963 1.491 . S
C969 C968 1.400 . S
C969 C970 1.398 . S
C970 H958 0.950 . S
C970 C969 1.398 . S
C970 C971 1.391 . S
C971 H959 0.950 . S
C971 C967 1.393 . S
C971 C970 1.391 . S
H972 C980 0.950 . S
H973 C985 0.950 . S
H974 C982 0.950 . S
H975 C984 0.950 . S
H976 C986 0.950 . S
H977 C988 0.956 . S
H978 C990 0.950 . S
H979 C991 0.950 . S
C980 H972 0.950 . S
C980 C981 1.386 . S
C980 C982 1.391 . S
C981 C980 1.386 . S
C981 C985 1.393 . S
C982 H974 0.950 . S
C982 C980 1.391 . S
C982 C983 1.400 . S
C983 C982 1.400 . S
C983 C984 1.398 . S
C983 C989 1.491 . S
C984 H975 0.950 . S
C984 C983 1.398 . S
C984 C985 1.391 . S
C985 H973 0.950 . S
C985 C981 1.393 . S
C985 C984 1.391 . S
C986 H976 0.950 . S
C986 C987 1.386 . S
C986 C988 1.398 . S
C987 C986 1.386 . S
C987 C991 1.393 1_554 S
C988 H977 0.956 . S
C988 C986 1.398 . S
C988 C989 1.387 1_554 S
C989 C983 1.491 . S
C989 C988 1.387 1_556 S
C989 C990 1.398 . S
C990 H978 0.950 . S
C990 C989 1.398 . S
C990 C991 1.391 . S
C991 H979 0.950 . S
C991 C987 1.393 1_556 S
C991 C990 1.391 . S
H992 C1000 0.950 . S
H993 C1005 0.950 . S
H994 C1002 0.950 . S
H995 C1004 0.950 . S
H996 C1006 0.950 . S
H997 C1008 0.950 . S
H998 C1010 0.950 . S
H999 C1011 0.950 . S
C1000 H992 0.950 . S
C1000 C1001 1.386 . S
C1000 C1002 1.391 . S
C1001 C1000 1.386 . S
C1001 C1005 1.393 . S
C1002 H994 0.950 . S
C1002 C1000 1.391 . S
C1002 C1003 1.400 . S
C1003 C1002 1.400 . S
C1003 C1004 1.398 . S
C1003 C1009 1.491 . S
C1004 H995 0.950 . S
C1004 C1003 1.398 . S
C1004 C1005 1.391 . S
C1005 H993 0.950 . S
C1005 C1001 1.393 . S
C1005 C1004 1.391 . S
C1006 H996 0.950 . S
C1006 C1007 1.386 . S
C1006 C1008 1.391 . S
C1007 C1006 1.386 . S
C1007 C1011 1.393 . S
C1008 H997 0.950 . S
C1008 C1006 1.391 . S
C1008 C1009 1.400 . S
C1009 C1003 1.491 . S
C1009 C1008 1.400 . S
C1009 C1010 1.398 . S
C1010 H998 0.950 . S
C1010 C1009 1.398 . S
C1010 C1011 1.391 . S
C1011 H999 0.950 . S
C1011 C1007 1.393 . S
C1011 C1010 1.391 . S
H1012 C1020 0.950 . S
H1013 C1025 0.950 . S
H1014 C1022 0.950 . S
H1015 C1024 0.950 . S
H1016 C1026 0.950 . S
H1017 C1028 0.950 . S
H1018 C1030 0.950 . S
H1019 C1031 0.950 . S
C1020 H1012 0.950 . S
C1020 C1021 1.386 . S
C1020 C1022 1.391 . S
C1021 C1020 1.386 . S
C1021 C1025 1.393 . S
C1022 H1014 0.950 . S
C1022 C1020 1.391 . S
C1022 C1023 1.400 . S
C1023 C1022 1.400 . S
C1023 C1024 1.398 . S
C1023 C1029 1.491 . S
C1024 H1015 0.950 . S
C1024 C1023 1.398 . S
C1024 C1025 1.391 . S
C1025 H1013 0.950 . S
C1025 C1021 1.393 . S
C1025 C1024 1.391 . S
C1026 H1016 0.950 . S
C1026 C1027 1.386 . S
C1026 C1028 1.391 . S
C1027 C1026 1.386 . S
C1027 C1031 1.393 . S
C1028 H1017 0.950 . S
C1028 C1026 1.391 . S
C1028 C1029 1.400 . S
C1029 C1023 1.491 . S
C1029 C1028 1.400 . S
C1029 C1030 1.398 . S
C1030 H1018 0.950 . S
C1030 C1029 1.398 . S
C1030 C1031 1.391 . S
C1031 H1019 0.950 . S
C1031 C1027 1.393 . S
C1031 C1030 1.391 . S
H1032 C1040 0.950 . S
H1033 C1045 0.950 . S
H1034 C1042 0.950 . S
H1035 C1044 0.950 . S
H1036 C1046 0.950 . S
H1037 C1048 0.950 . S
H1038 C1050 0.950 . S
H1039 C1051 0.950 . S
C1040 H1032 0.950 . S
C1040 C1041 1.386 . S
C1040 C1042 1.391 . S
C1041 C1040 1.386 . S
C1041 C1045 1.393 . S
C1042 H1034 0.950 . S
C1042 C1040 1.391 . S
C1042 C1043 1.400 . S
C1043 C1042 1.400 . S
C1043 C1044 1.398 . S
C1043 C1049 1.491 . S
C1044 H1035 0.950 . S
C1044 C1043 1.398 . S
C1044 C1045 1.391 . S
C1045 H1033 0.950 . S
C1045 C1041 1.393 . S
C1045 C1044 1.391 . S
C1046 H1036 0.950 . S
C1046 C1047 1.386 . S
C1046 C1048 1.391 . S
C1047 C1046 1.386 . S
C1047 C1051 1.393 . S
C1048 H1037 0.950 . S
C1048 C1046 1.391 . S
C1048 C1049 1.400 . S
C1049 C1043 1.491 . S
C1049 C1048 1.400 . S
C1049 C1050 1.398 . S
C1050 H1038 0.950 . S
C1050 C1049 1.398 . S
C1050 C1051 1.391 . S
C1051 H1039 0.950 . S
C1051 C1047 1.393 . S
C1051 C1050 1.391 . S
H1052 C1060 0.950 . S
H1053 C1065 0.950 1_655 S
H1054 C1062 0.950 . S
H1055 C1064 0.950 . S
H1056 C1066 0.950 . S
H1057 C1068 0.950 1_554 S
H1058 C1070 0.950 1_554 S
H1059 C1071 0.950 1_455 S
C1060 H1052 0.950 . S
C1060 C1061 1.386 . S
C1060 C1062 1.391 . S
C1061 C1060 1.386 . S
C1061 C1065 1.393 . S
C1062 H1054 0.950 . S
C1062 C1060 1.391 . S
C1062 C1063 1.400 . S
C1063 C1062 1.400 . S
C1063 C1064 1.398 1_455 S
C1063 C1069 1.491 1_455 S
C1064 H1055 0.950 . S
C1064 C1063 1.398 1_655 S
C1064 C1065 1.391 1_655 S
C1065 H1053 0.950 1_455 S
C1065 C1061 1.393 . S
C1065 C1064 1.391 1_455 S
C1066 H1056 0.950 . S
C1066 C1067 1.386 . S
C1066 C1068 1.391 . S
C1067 C1066 1.386 . S
C1067 C1071 1.393 . S
C1068 H1057 0.950 1_556 S
C1068 C1066 1.391 . S
C1068 C1069 1.400 1_556 S
C1069 C1063 1.491 1_655 S
C1069 C1068 1.400 1_554 S
C1069 C1070 1.398 1_654 S
C1070 H1058 0.950 1_556 S
C1070 C1069 1.398 1_456 S
C1070 C1071 1.391 1_455 S
C1071 H1059 0.950 1_655 S
C1071 C1067 1.393 . S
C1071 C1070 1.391 1_655 S
H1072 C1080 0.950 . S
H1073 C1085 0.950 . S
H1074 C1082 0.950 . S
H1075 C1084 0.950 . S
H1076 C1086 0.950 . S
H1077 C1088 0.950 . S
H1078 C1090 0.950 . S
H1079 C1091 0.950 . S
C1080 H1072 0.950 . S
C1080 C1081 1.386 . S
C1080 C1082 1.391 . S
C1081 C1080 1.386 . S
C1081 C1085 1.393 . S
C1082 H1074 0.950 . S
C1082 C1080 1.391 . S
C1082 C1083 1.400 . S
C1083 C1082 1.400 . S
C1083 C1084 1.398 . S
C1083 C1089 1.491 . S
C1084 H1075 0.950 . S
C1084 C1083 1.398 . S
C1084 C1085 1.391 . S
C1085 H1073 0.950 . S
C1085 C1081 1.393 . S
C1085 C1084 1.391 . S
C1086 H1076 0.950 . S
C1086 C1087 1.386 . S
C1086 C1088 1.391 . S
C1087 C1086 1.386 . S
C1087 C1091 1.393 . S
C1088 H1077 0.950 . S
C1088 C1086 1.391 . S
C1088 C1089 1.400 . S
C1089 C1083 1.491 . S
C1089 C1088 1.400 . S
C1089 C1090 1.398 . S
C1090 H1078 0.950 . S
C1090 C1089 1.398 . S
C1090 C1091 1.391 . S
C1091 H1079 0.950 . S
C1091 C1087 1.393 . S
C1091 C1090 1.391 . S
H1092 C1100 0.950 . S
H1093 C1105 0.950 . S
H1094 C1102 0.950 . S
H1095 C1104 0.950 . S
H1096 C1106 0.950 . S
H1097 C1108 0.950 . S
H1098 C1110 0.950 . S
H1099 C1111 0.950 . S
C1100 H1092 0.950 . S
C1100 C1101 1.386 . S
C1100 C1102 1.391 . S
C1101 C1100 1.386 . S
C1101 C1105 1.393 . S
C1102 H1094 0.950 . S
C1102 C1100 1.391 . S
C1102 C1103 1.400 . S
C1103 C1102 1.400 . S
C1103 C1104 1.398 . S
C1103 C1109 1.491 . S
C1104 H1095 0.950 . S
C1104 C1103 1.398 . S
C1104 C1105 1.391 . S
C1105 H1093 0.950 . S
C1105 C1101 1.393 . S
C1105 C1104 1.391 . S
C1106 H1096 0.950 . S
C1106 C1107 1.386 . S
C1106 C1108 1.391 . S
C1107 C1106 1.386 . S
C1107 C1111 1.393 . S
C1108 H1097 0.950 . S
C1108 C1106 1.391 . S
C1108 C1109 1.400 . S
C1109 C1103 1.491 . S
C1109 C1108 1.400 . S
C1109 C1110 1.398 . S
C1110 H1098 0.950 . S
C1110 C1109 1.398 . S
C1110 C1111 1.391 . S
C1111 H1099 0.950 . S
C1111 C1107 1.393 . S
C1111 C1110 1.391 . S
H1112 C1120 0.950 . S
H1113 C1125 0.950 . S
H1114 C1122 0.950 . S
H1115 C1124 0.950 . S
H1116 C1126 0.950 . S
H1117 C1128 0.950 . S
H1118 C1130 0.950 . S
H1119 C1131 0.950 . S
C1120 H1112 0.950 . S
C1120 C1121 1.386 . S
C1120 C1122 1.391 1_556 S
C1121 C1120 1.386 . S
C1121 C1125 1.393 1_455 S
C1122 H1114 0.950 . S
C1122 C1120 1.391 1_554 S
C1122 C1123 1.400 . S
C1123 C1122 1.400 . S
C1123 C1124 1.398 1_454 S
C1123 C1129 1.491 1_445 S
C1124 H1115 0.950 . S
C1124 C1123 1.398 1_656 S
C1124 C1125 1.391 . S
C1125 H1113 0.950 . S
C1125 C1121 1.393 1_655 S
C1125 C1124 1.391 . S
C1126 H1116 0.950 . S
C1126 C1127 1.386 . S
C1126 C1128 1.391 . S
C1127 C1126 1.386 . S
C1127 C1131 1.393 1_655 S
C1128 H1117 0.950 . S
C1128 C1126 1.391 . S
C1128 C1129 1.400 . S
C1129 C1123 1.491 1_665 S
C1129 C1128 1.400 . S
C1129 C1130 1.398 1_655 S
C1130 H1118 0.950 . S
C1130 C1129 1.398 1_455 S
C1130 C1131 1.391 . S
C1131 H1119 0.950 . S
C1131 C1127 1.393 1_455 S
C1131 C1130 1.391 . S
H1132 C1140 0.950 . S
H1133 C1145 0.950 . S
H1134 C1142 0.950 1_565 S
H1135 C1144 0.950 . S
H1136 C1146 0.950 . S
H1137 C1148 0.950 1_545 S
H1138 C1150 0.950 . S
H1139 C1151 0.950 . S
C1140 H1132 0.950 . S
C1140 C1141 1.386 . S
C1140 C1142 1.391 . S
C1141 C1140 1.386 . S
C1141 C1145 1.393 . S
C1142 H1134 0.950 1_545 S
C1142 C1140 1.391 . S
C1142 C1143 1.400 . S
C1143 C1142 1.400 . S
C1143 C1144 1.398 . S
C1143 C1149 1.491 1_545 S
C1144 H1135 0.950 . S
C1144 C1143 1.398 . S
C1144 C1145 1.391 . S
C1145 H1133 0.950 . S
C1145 C1141 1.393 . S
C1145 C1144 1.391 . S
C1146 H1136 0.950 . S
C1146 C1147 1.386 . S
C1146 C1148 1.391 . S
C1147 C1146 1.386 . S
C1147 C1151 1.393 . S
C1148 H1137 0.950 1_565 S
C1148 C1146 1.391 . S
C1148 C1149 1.400 . S
C1149 C1143 1.491 1_565 S
C1149 C1148 1.400 . S
C1149 C1150 1.398 . S
C1150 H1138 0.950 . S
C1150 C1149 1.398 . S
C1150 C1151 1.391 . S
C1151 H1139 0.950 . S
C1151 C1147 1.393 . S
C1151 C1150 1.391 . S
H1152 C1160 0.950 . S
H1153 C1165 0.950 . S
H1154 C1162 0.950 . S
H1155 C1164 0.950 . S
H1156 C1166 0.950 . S
H1157 C1168 0.950 . S
H1158 C1170 0.950 . S
H1159 C1171 0.950 . S
C1160 H1152 0.950 . S
C1160 C1161 1.386 . S
C1160 C1162 1.391 . S
C1161 C1160 1.386 . S
C1161 C1165 1.393 . S
C1162 H1154 0.950 . S
C1162 C1160 1.391 . S
C1162 C1163 1.400 . S
C1163 C1162 1.400 . S
C1163 C1164 1.398 . S
C1163 C1169 1.491 . S
C1164 H1155 0.950 . S
C1164 C1163 1.398 . S
C1164 C1165 1.391 . S
C1165 H1153 0.950 . S
C1165 C1161 1.393 . S
C1165 C1164 1.391 . S
C1166 H1156 0.950 . S
C1166 C1167 1.386 . S
C1166 C1168 1.391 . S
C1167 C1166 1.386 . S
C1167 C1171 1.393 . S
C1168 H1157 0.950 . S
C1168 C1166 1.391 . S
C1168 C1169 1.400 . S
C1169 C1163 1.491 . S
C1169 C1168 1.400 . S
C1169 C1170 1.398 . S
C1170 H1158 0.950 . S
C1170 C1169 1.398 . S
C1170 C1171 1.391 . S
C1171 H1159 0.950 . S
C1171 C1167 1.393 . S
C1171 C1170 1.391 . S
H1172 C1180 0.950 . S
H1173 C1185 0.950 . S
H1174 C1182 0.950 . S
H1175 C1184 0.950 . S
H1176 C1186 0.950 . S
H1177 C1188 0.950 . S
H1178 C1190 0.950 . S
H1179 C1191 0.950 . S
C1180 H1172 0.950 . S
C1180 C1181 1.386 . S
C1180 C1182 1.391 . S
C1181 C1180 1.386 . S
C1181 C1185 1.393 1_556 S
C1182 H1174 0.950 . S
C1182 C1180 1.391 . S
C1182 C1183 1.400 1_556 S
C1183 C1182 1.400 1_554 S
C1183 C1184 1.398 . S
C1183 C1189 1.491 . S
C1184 H1175 0.950 . S
C1184 C1183 1.398 . S
C1184 C1185 1.391 . S
C1185 H1173 0.950 . S
C1185 C1181 1.393 1_554 S
C1185 C1184 1.391 . S
C1186 H1176 0.950 . S
C1186 C1187 1.386 . S
C1186 C1188 1.391 . S
C1187 C1186 1.386 . S
C1187 C1191 1.393 . S
C1188 H1177 0.950 . S
C1188 C1186 1.391 . S
C1188 C1189 1.400 . S
C1189 C1183 1.491 . S
C1189 C1188 1.400 . S
C1189 C1190 1.398 . S
C1190 H1178 0.950 . S
C1190 C1189 1.398 . S
C1190 C1191 1.391 . S
C1191 H1179 0.950 . S
C1191 C1187 1.393 . S
C1191 C1190 1.391 . S
H1192 C1200 0.950 . S
H1193 C1205 0.950 . S
H1194 C1202 0.950 . S
H1195 C1204 0.950 . S
H1196 C1206 0.950 . S
H1197 C1208 0.950 . S
H1198 C1210 0.950 . S
H1199 C1211 0.950 . S
C1200 H1192 0.950 . S
C1200 C1201 1.386 . S
C1200 C1202 1.391 . S
C1201 C1200 1.386 . S
C1201 C1205 1.393 . S
C1202 H1194 0.950 . S
C1202 C1200 1.391 . S
C1202 C1203 1.400 . S
C1203 C1202 1.400 . S
C1203 C1204 1.398 . S
C1203 C1209 1.491 . S
C1204 H1195 0.950 . S
C1204 C1203 1.398 . S
C1204 C1205 1.391 . S
C1205 H1193 0.950 . S
C1205 C1201 1.393 . S
C1205 C1204 1.391 . S
C1206 H1196 0.950 . S
C1206 C1207 1.386 . S
C1206 C1208 1.391 . S
C1207 C1206 1.386 . S
C1207 C1211 1.393 . S
C1208 H1197 0.950 . S
C1208 C1206 1.391 . S
C1208 C1209 1.400 . S
C1209 C1203 1.491 . S
C1209 C1208 1.400 . S
C1209 C1210 1.398 . S
C1210 H1198 0.950 . S
C1210 C1209 1.398 . S
C1210 C1211 1.391 . S
C1211 H1199 0.950 . S
C1211 C1207 1.393 . S
C1211 C1210 1.391 . S
H1212 C1220 0.950 . S
H1213 C1225 0.950 . S
H1214 C1222 0.950 1_655 S
H1215 C1224 0.950 . S
H1216 C1226 0.950 . S
H1217 C1228 0.950 1_455 S
H1218 C1230 0.950 . S
H1219 C1231 0.950 . S
C1220 H1212 0.950 . S
C1220 C1221 1.386 . S
C1220 C1222 1.391 . S
C1221 C1220 1.386 . S
C1221 C1225 1.393 . S
C1222 H1214 0.950 1_455 S
C1222 C1220 1.391 . S
C1222 C1223 1.400 . S
C1223 C1222 1.400 . S
C1223 C1224 1.398 . S
C1223 C1229 1.491 1_455 S
C1224 H1215 0.950 . S
C1224 C1223 1.398 . S
C1224 C1225 1.391 . S
C1225 H1213 0.950 . S
C1225 C1221 1.393 . S
C1225 C1224 1.391 . S
C1226 H1216 0.950 . S
C1226 C1227 1.386 . S
C1226 C1228 1.391 . S
C1227 C1226 1.386 . S
C1227 C1231 1.393 . S
C1228 H1217 0.950 1_655 S
C1228 C1226 1.391 . S
C1228 C1229 1.400 . S
C1229 C1223 1.491 1_655 S
C1229 C1228 1.400 . S
C1229 C1230 1.398 . S
C1230 H1218 0.950 . S
C1230 C1229 1.398 . S
C1230 C1231 1.391 . S
C1231 H1219 0.950 . S
C1231 C1227 1.393 . S
C1231 C1230 1.391 . S
H1232 C1240 0.950 . S
H1233 C1245 0.950 . S
H1234 C1242 0.950 . S
H1235 C1244 0.950 . S
H1236 C1246 0.950 . S
H1237 C1248 0.950 . S
H1238 C1250 0.950 . S
H1239 C1251 0.950 . S
C1240 H1232 0.950 . S
C1240 C1241 1.386 . S
C1240 C1242 1.391 . S
C1241 C1240 1.386 . S
C1241 C1245 1.393 . S
C1242 H1234 0.950 . S
C1242 C1240 1.391 . S
C1242 C1243 1.400 . S
C1243 C1242 1.400 . S
C1243 C1244 1.398 . S
C1243 C1249 1.491 . S
C1244 H1235 0.950 . S
C1244 C1243 1.398 . S
C1244 C1245 1.391 . S
C1245 H1233 0.950 . S
C1245 C1241 1.393 . S
C1245 C1244 1.391 . S
C1246 H1236 0.950 . S
C1246 C1247 1.386 . S
C1246 C1248 1.391 . S
C1247 C1246 1.386 . S
C1247 C1251 1.393 . S
C1248 H1237 0.950 . S
C1248 C1246 1.391 . S
C1248 C1249 1.400 . S
C1249 C1243 1.491 . S
C1249 C1248 1.400 . S
C1249 C1250 1.398 . S
C1250 H1238 0.950 . S
C1250 C1249 1.398 . S
C1250 C1251 1.391 . S
C1251 H1239 0.950 . S
C1251 C1247 1.393 . S
C1251 C1250 1.391 . S
H1252 C1260 0.950 . S
H1253 C1265 0.950 . S
H1254 C1262 0.950 . S
H1255 C1264 0.950 . S
H1256 C1266 0.950 . S
H1257 C1268 0.950 . S
H1258 C1270 0.950 . S
H1259 C1271 0.950 . S
C1260 H1252 0.950 . S
C1260 C1261 1.386 . S
C1260 C1262 1.391 . S
C1261 C1260 1.386 . S
C1261 C1265 1.393 . S
C1262 H1254 0.950 . S
C1262 C1260 1.391 . S
C1262 C1263 1.400 . S
C1263 C1262 1.400 . S
C1263 C1264 1.398 . S
C1263 C1269 1.491 . S
C1264 H1255 0.950 . S
C1264 C1263 1.398 . S
C1264 C1265 1.391 . S
C1265 H1253 0.950 . S
C1265 C1261 1.393 . S
C1265 C1264 1.391 . S
C1266 H1256 0.950 . S
C1266 C1267 1.386 . S
C1266 C1268 1.391 . S
C1267 C1266 1.386 . S
C1267 C1271 1.393 . S
C1268 H1257 0.950 . S
C1268 C1266 1.391 . S
C1268 C1269 1.400 . S
C1269 C1263 1.491 . S
C1269 C1268 1.400 . S
C1269 C1270 1.398 . S
C1270 H1258 0.950 . S
C1270 C1269 1.398 . S
C1270 C1271 1.391 . S
C1271 H1259 0.950 . S
C1271 C1267 1.393 . S
C1271 C1270 1.391 . S
H1272 C1280 0.931 1_545 S
H1273 C1285 0.950 . S
H1274 C1282 0.950 . S
H1275 C1284 0.950 1_455 S
H1276 C1286 0.931 1_565 S
H1277 C1288 0.950 . S
H1278 C1290 0.950 1_655 S
H1279 C1291 0.950 . S
C1280 H1272 0.931 1_565 S
C1280 C1281 1.386 . S
C1280 C1282 1.391 1_565 S
C1281 C1280 1.386 . S
C1281 C1285 1.393 . S
C1282 H1274 0.950 . S
C1282 C1280 1.391 1_545 S
C1282 C1283 1.400 1_545 S
C1283 C1282 1.400 1_565 S
C1283 C1284 1.398 . S
C1283 C1289 1.491 1_665 S
C1284 H1275 0.950 1_655 S
C1284 C1283 1.398 . S
C1284 C1285 1.391 . S
C1285 H1273 0.950 . S
C1285 C1281 1.393 . S
C1285 C1284 1.391 . S
C1286 H1276 0.931 1_545 S
C1286 C1287 1.386 . S
C1286 C1288 1.391 1_545 S
C1287 C1286 1.386 . S
C1287 C1291 1.393 . S
C1288 H1277 0.950 . S
C1288 C1286 1.391 1_565 S
C1288 C1289 1.400 1_565 S
C1289 C1283 1.491 1_445 S
C1289 C1288 1.400 1_545 S
C1289 C1290 1.398 . S
C1290 H1278 0.950 1_455 S
C1290 C1289 1.398 . S
C1290 C1291 1.391 . S
C1291 H1279 0.950 . S
C1291 C1287 1.393 . S
C1291 C1290 1.391 . S
H1292 C1300 0.950 1_565 S
H1293 C1305 0.950 . S
H1294 C1302 0.950 . S
H1295 C1304 0.950 . S
H1296 C1306 0.950 1_545 S
H1297 C1308 0.950 . S
H1298 C1310 0.950 . S
H1299 C1311 0.950 . S
C1300 H1292 0.950 1_545 S
C1300 C1301 1.386 . S
C1300 C1302 1.391 1_545 S
C1301 C1300 1.386 . S
C1301 C1305 1.393 . S
C1302 H1294 0.950 . S
C1302 C1300 1.391 1_565 S
C1302 C1303 1.400 1_566 S
C1303 C1302 1.400 1_544 S
C1303 C1304 1.398 . S
C1303 C1309 1.491 1_545 S
C1304 H1295 0.950 . S
C1304 C1303 1.398 . S
C1304 C1305 1.391 1_554 S
C1305 H1293 0.950 . S
C1305 C1301 1.393 . S
C1305 C1304 1.391 1_556 S
C1306 H1296 0.950 1_565 S
C1306 C1307 1.386 . S
C1306 C1308 1.391 1_565 S
C1307 C1306 1.386 . S
C1307 C1311 1.393 . S
C1308 H1297 0.950 . S
C1308 C1306 1.391 1_545 S
C1308 C1309 1.400 1_545 S
C1309 C1303 1.491 1_565 S
C1309 C1308 1.400 1_565 S
C1309 C1310 1.398 . S
C1310 H1298 0.950 . S
C1310 C1309 1.398 . S
C1310 C1311 1.391 . S
C1311 H1299 0.950 . S
C1311 C1307 1.393 . S
C1311 C1310 1.391 . S
C361 C18 1.488 1_556 S
C367 C208 1.540 . S
C381 C230 1.528 . S
C387 C40 1.504 . S
C401 C252 1.545 . S
C407 C62 1.498 . S
C421 C186 1.545 . S
C427 C84 1.501 . S
C441 C96 1.495 . S
C447 C296 1.544 . S
C461 C120 1.511 . S
C467 C318 1.538 1_556 S
C481 C340 1.536 . S
C487 C150 1.511 . S
C501 C282 1.545 . S
C507 C172 1.504 . S
C521 C32 1.546 . S
C527 C194 1.504 . S
C541 C54 1.526 . S
C547 C216 1.533 . S
C561 C76 1.545 . S
C567 C238 1.506 1_556 S
C581 C260 1.521 . S
C587 C10 1.535 . S
C601 C118 1.526 . S
C607 C272 1.499 . S
C621 C142 1.530 . S
C627 C304 1.543 . S
C641 C164 1.542 . S
C647 C326 1.491 . S
C661 C106 1.536 1_556 S
C667 C348 1.549 . S
C681 C15 1.486 . S
C687 C351 1.526 . S
C701 C37 1.486 . S
C707 C103 1.523 . S
C721 C307 1.530 1_455 S
C727 C59 1.489 . S
C741 C153 1.529 . S
C747 C81 1.488 . S
C761 C95 1.502 . S
C767 C263 1.523 . S
C781 C21 1.522 . S
C787 C131 1.487 . S
C801 C147 1.496 . S
C807 C219 1.520 1_655 S
C821 C169 1.507 . S
C827 C65 1.534 . S
C841 C191 1.509 . S
C847 C175 1.529 1_655 S
C861 C279 1.534 . S
C867 C213 1.507 . S
C881 C235 1.495 . S
C887 C117 1.520 . S
C901 C329 1.534 . S
C907 C257 1.505 . S
C921 C271 1.499 . S
C927 C87 1.534 1_455 S
C941 C197 1.528 . S
C947 C301 1.487 . S
C961 C323 1.486 . S
C967 C43 1.524 . S
C981 C345 1.508 . S
C987 C241 1.527 . S
C1001 C8 1.576 . S
C1007 C274 1.576 . S
C1021 C128 1.573 . S
C1027 C30 1.573 . S
C1041 C52 1.581 . S
C1047 C316 1.581 . S
C1061 C162 1.573 . S
C1067 C74 1.573 . S
C1081 C98 1.573 . S
C1087 C184 1.573 . S
C1101 C228 1.574 . S
C1107 C140 1.574 . S
C1121 C206 1.580 . S
C1127 C294 1.580 . S
C1141 C338 1.579 . S
C1147 C250 1.579 . S
C1161 C285 0.994 . S
C1167 C7 0.994 . S
C1181 C125 0.973 . S
C1187 C29 0.973 . S
C1201 C51 0.967 . S
C1207 C315 0.967 . S
C1221 C161 0.980 . S
C1227 C73 0.980 . S
C1241 C109 1.003 . S
C1247 C183 1.003 . S
C1261 C139 0.961 . S
C1267 C227 0.961 . S
C1281 C293 1.002 . S
C1287 C205 1.002 . S
C1301 C337 1.001 . S
C1307 C249 1.001 . S
