# Generated by pormake.
# Topology ukc, (4)-cn, num edge types: 1
# Building blocks:
#     Node 0, Type 0, BuildingBlock: TATPOV_clean_sbu_0, # of connection points: 4
#     Node 1, Type 0, BuildingBlock: TATPOV_clean_sbu_0, # of connection points: 4
#     Node 2, Type 0, BuildingBlock: TATPOV_clean_sbu_0, # of connection points: 4
#     Node 3, Type 0, BuildingBlock: TATPOV_clean_sbu_0, # of connection points: 4
#     Node 4, Type 0, BuildingBlock: TATPOV_clean_sbu_0, # of connection points: 4
#     Node 5, Type 0, BuildingBlock: TATPOV_clean_sbu_0, # of connection points: 4
#     Node 6, Type 0, BuildingBlock: TATPOV_clean_sbu_0, # of connection points: 4
#     Node 7, Type 0, BuildingBlock: TATPOV_clean_sbu_0, # of connection points: 4
#     Node 8, Type 0, BuildingBlock: TATPOV_clean_sbu_0, # of connection points: 4
#     Node 9, Type 0, BuildingBlock: TATPOV_clean_sbu_0, # of connection points: 4
#     Node 10, Type 0, BuildingBlock: TATPOV_clean_sbu_0, # of connection points: 4
#     Node 11, Type 0, BuildingBlock: TATPOV_clean_sbu_0, # of connection points: 4
#     Node 12, Type 0, BuildingBlock: TATPOV_clean_sbu_0, # of connection points: 4
#     Node 13, Type 0, BuildingBlock: TATPOV_clean_sbu_0, # of connection points: 4
#     Node 14, Type 0, BuildingBlock: TATPOV_clean_sbu_0, # of connection points: 4
#     Node 15, Type 0, BuildingBlock: TATPOV_clean_sbu_0, # of connection points: 4
#     Node 16, Type 0, BuildingBlock: TATPOV_clean_sbu_0, # of connection points: 4
#     Node 17, Type 0, BuildingBlock: TATPOV_clean_sbu_0, # of connection points: 4
#     Node 18, Type 0, BuildingBlock: TATPOV_clean_sbu_0, # of connection points: 4
#     Node 19, Type 0, BuildingBlock: TATPOV_clean_sbu_0, # of connection points: 4
#     Node 20, Type 0, BuildingBlock: TATPOV_clean_sbu_0, # of connection points: 4
#     Node 21, Type 0, BuildingBlock: TATPOV_clean_sbu_0, # of connection points: 4
#     Node 22, Type 0, BuildingBlock: TATPOV_clean_sbu_0, # of connection points: 4
#     Node 23, Type 0, BuildingBlock: TATPOV_clean_sbu_0, # of connection points: 4
#     Node 24, Type 0, BuildingBlock: TATPOV_clean_sbu_0, # of connection points: 4
#     Node 25, Type 0, BuildingBlock: TATPOV_clean_sbu_0, # of connection points: 4
#     Node 26, Type 0, BuildingBlock: TATPOV_clean_sbu_0, # of connection points: 4
#     Node 27, Type 0, BuildingBlock: TATPOV_clean_sbu_0, # of connection points: 4
#     Node 28, Type 0, BuildingBlock: TATPOV_clean_sbu_0, # of connection points: 4
#     Node 29, Type 0, BuildingBlock: TATPOV_clean_sbu_0, # of connection points: 4
#     Node 30, Type 0, BuildingBlock: TATPOV_clean_sbu_0, # of connection points: 4
#     Node 31, Type 0, BuildingBlock: TATPOV_clean_sbu_0, # of connection points: 4
#     Edge 32, Type (0, 0), BuildingBlock: ZUJKAS_clean_linker_0, # of connection points: 2
#     Edge 33, Type (0, 0), BuildingBlock: ZUJKAS_clean_linker_0, # of connection points: 2
#     Edge 34, Type (0, 0), BuildingBlock: ZUJKAS_clean_linker_0, # of connection points: 2
#     Edge 35, Type (0, 0), BuildingBlock: ZUJKAS_clean_linker_0, # of connection points: 2
#     Edge 36, Type (0, 0), BuildingBlock: ZUJKAS_clean_linker_0, # of connection points: 2
#     Edge 37, Type (0, 0), BuildingBlock: ZUJKAS_clean_linker_0, # of connection points: 2
#     Edge 38, Type (0, 0), BuildingBlock: ZUJKAS_clean_linker_0, # of connection points: 2
#     Edge 39, Type (0, 0), BuildingBlock: ZUJKAS_clean_linker_0, # of connection points: 2
#     Edge 40, Type (0, 0), BuildingBlock: ZUJKAS_clean_linker_0, # of connection points: 2
#     Edge 41, Type (0, 0), BuildingBlock: ZUJKAS_clean_linker_0, # of connection points: 2
#     Edge 42, Type (0, 0), BuildingBlock: ZUJKAS_clean_linker_0, # of connection points: 2
#     Edge 43, Type (0, 0), BuildingBlock: ZUJKAS_clean_linker_0, # of connection points: 2
#     Edge 44, Type (0, 0), BuildingBlock: ZUJKAS_clean_linker_0, # of connection points: 2
#     Edge 45, Type (0, 0), BuildingBlock: ZUJKAS_clean_linker_0, # of connection points: 2
#     Edge 46, Type (0, 0), BuildingBlock: ZUJKAS_clean_linker_0, # of connection points: 2
#     Edge 47, Type (0, 0), BuildingBlock: ZUJKAS_clean_linker_0, # of connection points: 2
#     Edge 48, Type (0, 0), BuildingBlock: ZUJKAS_clean_linker_0, # of connection points: 2
#     Edge 49, Type (0, 0), BuildingBlock: ZUJKAS_clean_linker_0, # of connection points: 2
#     Edge 50, Type (0, 0), BuildingBlock: ZUJKAS_clean_linker_0, # of connection points: 2
#     Edge 51, Type (0, 0), BuildingBlock: ZUJKAS_clean_linker_0, # of connection points: 2
#     Edge 52, Type (0, 0), BuildingBlock: ZUJKAS_clean_linker_0, # of connection points: 2
#     Edge 53, Type (0, 0), BuildingBlock: ZUJKAS_clean_linker_0, # of connection points: 2
#     Edge 54, Type (0, 0), BuildingBlock: ZUJKAS_clean_linker_0, # of connection points: 2
#     Edge 55, Type (0, 0), BuildingBlock: ZUJKAS_clean_linker_0, # of connection points: 2
#     Edge 56, Type (0, 0), BuildingBlock: ZUJKAS_clean_linker_0, # of connection points: 2
#     Edge 57, Type (0, 0), BuildingBlock: ZUJKAS_clean_linker_0, # of connection points: 2
#     Edge 58, Type (0, 0), BuildingBlock: ZUJKAS_clean_linker_0, # of connection points: 2
#     Edge 59, Type (0, 0), BuildingBlock: ZUJKAS_clean_linker_0, # of connection points: 2
#     Edge 60, Type (0, 0), BuildingBlock: ZUJKAS_clean_linker_0, # of connection points: 2
#     Edge 61, Type (0, 0), BuildingBlock: ZUJKAS_clean_linker_0, # of connection points: 2
#     Edge 62, Type (0, 0), BuildingBlock: ZUJKAS_clean_linker_0, # of connection points: 2
#     Edge 63, Type (0, 0), BuildingBlock: ZUJKAS_clean_linker_0, # of connection points: 2
#     Edge 64, Type (0, 0), BuildingBlock: ZUJKAS_clean_linker_0, # of connection points: 2
#     Edge 65, Type (0, 0), BuildingBlock: ZUJKAS_clean_linker_0, # of connection points: 2
#     Edge 66, Type (0, 0), BuildingBlock: ZUJKAS_clean_linker_0, # of connection points: 2
#     Edge 67, Type (0, 0), BuildingBlock: ZUJKAS_clean_linker_0, # of connection points: 2
#     Edge 68, Type (0, 0), BuildingBlock: ZUJKAS_clean_linker_0, # of connection points: 2
#     Edge 69, Type (0, 0), BuildingBlock: ZUJKAS_clean_linker_0, # of connection points: 2
#     Edge 70, Type (0, 0), BuildingBlock: ZUJKAS_clean_linker_0, # of connection points: 2
#     Edge 71, Type (0, 0), BuildingBlock: ZUJKAS_clean_linker_0, # of connection points: 2
#     Edge 72, Type (0, 0), BuildingBlock: ZUJKAS_clean_linker_0, # of connection points: 2
#     Edge 73, Type (0, 0), BuildingBlock: ZUJKAS_clean_linker_0, # of connection points: 2
#     Edge 74, Type (0, 0), BuildingBlock: ZUJKAS_clean_linker_0, # of connection points: 2
#     Edge 75, Type (0, 0), BuildingBlock: ZUJKAS_clean_linker_0, # of connection points: 2
#     Edge 76, Type (0, 0), BuildingBlock: ZUJKAS_clean_linker_0, # of connection points: 2
#     Edge 77, Type (0, 0), BuildingBlock: ZUJKAS_clean_linker_0, # of connection points: 2
#     Edge 78, Type (0, 0), BuildingBlock: ZUJKAS_clean_linker_0, # of connection points: 2
#     Edge 79, Type (0, 0), BuildingBlock: ZUJKAS_clean_linker_0, # of connection points: 2
#     Edge 80, Type (0, 0), BuildingBlock: ZUJKAS_clean_linker_0, # of connection points: 2
#     Edge 81, Type (0, 0), BuildingBlock: ZUJKAS_clean_linker_0, # of connection points: 2
#     Edge 82, Type (0, 0), BuildingBlock: ZUJKAS_clean_linker_0, # of connection points: 2
#     Edge 83, Type (0, 0), BuildingBlock: ZUJKAS_clean_linker_0, # of connection points: 2
#     Edge 84, Type (0, 0), BuildingBlock: ZUJKAS_clean_linker_0, # of connection points: 2
#     Edge 85, Type (0, 0), BuildingBlock: ZUJKAS_clean_linker_0, # of connection points: 2
#     Edge 86, Type (0, 0), BuildingBlock: ZUJKAS_clean_linker_0, # of connection points: 2
#     Edge 87, Type (0, 0), BuildingBlock: ZUJKAS_clean_linker_0, # of connection points: 2
#     Edge 88, Type (0, 0), BuildingBlock: ZUJKAS_clean_linker_0, # of connection points: 2
#     Edge 89, Type (0, 0), BuildingBlock: ZUJKAS_clean_linker_0, # of connection points: 2
#     Edge 90, Type (0, 0), BuildingBlock: ZUJKAS_clean_linker_0, # of connection points: 2
#     Edge 91, Type (0, 0), BuildingBlock: ZUJKAS_clean_linker_0, # of connection points: 2
#     Edge 92, Type (0, 0), BuildingBlock: ZUJKAS_clean_linker_0, # of connection points: 2
#     Edge 93, Type (0, 0), BuildingBlock: ZUJKAS_clean_linker_0, # of connection points: 2
#     Edge 94, Type (0, 0), BuildingBlock: ZUJKAS_clean_linker_0, # of connection points: 2
#     Edge 95, Type (0, 0), BuildingBlock: ZUJKAS_clean_linker_0, # of connection points: 2
# Relax obj value: 0.025
# Max RMSD: 0.064
# Mean RMSD: 0.064
data_MOF--net-ukc--node1-TATPOV_clean_sbu_0--edge1-ZUJKAS_clean_linker_0
_symmetry_space_group_name_H-M    P1
_symmetry_Int_Tables_number       1
_symmetry_cell_setting            triclinic
loop_
_symmetry_equiv_pos_as_xyz
'x, y, z'
_cell_length_a     58.29667
_cell_length_b     58.293374
_cell_length_c     111.10729
_cell_angle_alpha  89.985067
_cell_angle_beta   89.988594
_cell_angle_gamma 90.000509
loop_
_atom_site_label
_atom_site_type_symbol
_atom_site_fract_x
_atom_site_fract_y
_atom_site_fract_z
_atom_type_partial_charge
Zn0 Zn 0.07276 0.35308 0.04822 0.0
Zn1 Zn 0.10643 0.36417 0.03368 0.0
O2 O 0.12045 0.36336 0.05099 0.0
O3 O 0.09221 0.35233 0.06279 0.0
O4 O 0.13485 0.37006 0.0235 0.0
O5 O 0.05691 0.3824 0.04335 0.0
O6 O 0.08522 0.39198 0.03121 0.0
C7 C 0.11287 0.35831 0.06144 0.0
C8 C 0.07635 0.32077 0.02962 0.0
O9 O 0.09179 0.33474 0.02605 0.0
O10 O 0.0661 0.32413 0.03948 0.0
C11 C 0.1485 0.3534 0.02157 0.0
O12 O 0.1432 0.33305 0.02583 0.0
C13 C 0.0657 0.39629 0.03589 0.0
Zn14 Zn 0.8528 0.80837 0.29518 0.0
Zn15 Zn 0.86113 0.84323 0.28097 0.0
O16 O 0.85092 0.85758 0.2973 0.0
O17 O 0.84194 0.828 0.30864 0.0
O18 O 0.86556 0.87168 0.27062 0.0
O19 O 0.83039 0.79511 0.2837 0.0
O20 O 0.83625 0.82457 0.27171 0.0
C21 C 0.84345 0.84946 0.30723 0.0
C22 C 0.8995 0.80905 0.28725 0.0
O23 O 0.89287 0.82667 0.28135 0.0
O24 O 0.88558 0.79869 0.29411 0.0
C25 C 0.8825 0.8852 0.27199 0.0
O26 O 0.8983 0.88009 0.27998 0.0
C27 C 0.82614 0.80563 0.27401 0.0
Zn28 Zn 0.42709 0.63102 0.54735 0.0
Zn29 Zn 0.393 0.63074 0.53363 0.0
O30 O 0.38073 0.61912 0.55023 0.0
O31 O 0.41278 0.61087 0.5597 0.0
O32 O 0.36415 0.63037 0.52326 0.0
O33 O 0.44705 0.61717 0.53476 0.0
O34 O 0.41539 0.60839 0.525 0.0
C35 C 0.39116 0.61019 0.55918 0.0
C36 C 0.41781 0.6755 0.54033 0.0
O37 O 0.40527 0.66439 0.53293 0.0
O38 O 0.42706 0.66513 0.54906 0.0
C39 C 0.35017 0.64714 0.52295 0.0
O40 O 0.35481 0.66566 0.52923 0.0
C41 C 0.43711 0.60689 0.52622 0.0
Zn42 Zn 0.63601 0.17806 0.80238 0.0
Zn43 Zn 0.63294 0.14526 0.78665 0.0
O44 O 0.64156 0.12917 0.80292 0.0
O45 O 0.64606 0.1578 0.81556 0.0
O46 O 0.63095 0.11807 0.77514 0.0
O47 O 0.65958 0.19422 0.79265 0.0
O48 O 0.65862 0.16596 0.77952 0.0
C49 C 0.64671 0.13654 0.8134 0.0
C50 C 0.59166 0.17678 0.79219 0.0
O51 O 0.60077 0.16115 0.78569 0.0
O52 O 0.60302 0.18606 0.80056 0.0
C53 C 0.61999 0.10013 0.77828 0.0
O54 O 0.60945 0.10001 0.78873 0.0
C55 C 0.66686 0.18511 0.78305 0.0
Zn56 Zn 0.06279 0.59883 0.43243 0.0
Zn57 Zn 0.09636 0.60983 0.44731 0.0
O58 O 0.11183 0.60349 0.43071 0.0
O59 O 0.08379 0.59262 0.41877 0.0
O60 O 0.12419 0.61488 0.45808 0.0
O61 O 0.05239 0.57309 0.44282 0.0
O62 O 0.07961 0.58264 0.4556 0.0
C63 C 0.10487 0.59652 0.42045 0.0
C64 C 0.0583 0.64456 0.4423 0.0
O65 O 0.07668 0.63953 0.44798 0.0
O66 O 0.04961 0.63026 0.43502 0.0
C67 C 0.13426 0.63402 0.45964 0.0
O68 O 0.12592 0.65248 0.45446 0.0
C69 C 0.06261 0.56997 0.45272 0.0
Zn70 Zn 0.64795 0.81153 0.68627 0.0
Zn71 Zn 0.63948 0.84595 0.70092 0.0
O72 O 0.65181 0.86083 0.68505 0.0
O73 O 0.66143 0.83146 0.67366 0.0
O74 O 0.63487 0.87384 0.71176 0.0
O75 O 0.66891 0.79687 0.69798 0.0
O76 O 0.66275 0.82566 0.71041 0.0
C77 C 0.66048 0.85286 0.67537 0.0
C78 C 0.60062 0.81343 0.69325 0.0
O79 O 0.60745 0.83036 0.69962 0.0
O80 O 0.61459 0.80317 0.68639 0.0
C81 C 0.62544 0.89198 0.70771 0.0
O82 O 0.6178 0.89207 0.69658 0.0
C83 C 0.6726 0.80665 0.70794 0.0
Zn84 Zn 0.44831 0.41539 0.9453 0.0
Zn85 Zn 0.41193 0.40256 0.9576 0.0
O86 O 0.39967 0.41371 0.94098 0.0
O87 O 0.43039 0.42344 0.9307 0.0
O88 O 0.38229 0.39626 0.96669 0.0
O89 O 0.45628 0.4396 0.95712 0.0
O90 O 0.4283 0.42647 0.9685 0.0
C91 C 0.40886 0.42128 0.93133 0.0
C92 C 0.45017 0.36801 0.95291 0.0
O93 O 0.43009 0.37194 0.95702 0.0
O94 O 0.46127 0.38379 0.94767 0.0
C95 C 0.37098 0.37763 0.96608 0.0
O96 O 0.37905 0.36064 0.95957 0.0
C97 C 0.44529 0.43995 0.96692 0.0
Zn98 Zn 0.85505 0.18223 0.18835 0.0
Zn99 Zn 0.86417 0.14529 0.20079 0.0
O100 O 0.85407 0.13348 0.18382 0.0
O101 O 0.84686 0.16501 0.17364 0.0
O102 O 0.86822 0.11524 0.20995 0.0
O103 O 0.83023 0.19178 0.19938 0.0
O104 O 0.83896 0.1621 0.21074 0.0
C105 C 0.84756 0.14338 0.17415 0.0
C106 C 0.90109 0.18235 0.1973 0.0
O107 O 0.8955 0.16269 0.20147 0.0
O108 O 0.88674 0.19387 0.19125 0.0
C109 C 0.88691 0.10663 0.21379 0.0
O110 O 0.9062 0.11785 0.21213 0.0
C111 C 0.82707 0.18013 0.20882 0.0
Zn112 Zn 0.9497 0.59195 0.95017 0.0
Zn113 Zn 0.91219 0.60297 0.96249 0.0
O114 O 0.90053 0.59397 0.94543 0.0
O115 O 0.93163 0.58333 0.93565 0.0
O116 O 0.88237 0.60828 0.97154 0.0
O117 O 0.95794 0.56751 0.96183 0.0
O118 O 0.92755 0.57704 0.97251 0.0
C119 C 0.91014 0.58615 0.93595 0.0
C120 C 0.94971 0.63893 0.95861 0.0
O121 O 0.93022 0.63364 0.96307 0.0
O122 O 0.961 0.62419 0.95268 0.0
C123 C 0.87063 0.62667 0.97118 0.0
O124 O 0.87829 0.64416 0.9649 0.0
C125 C 0.94536 0.56465 0.97098 0.0
Zn126 Zn 0.15751 0.18106 0.69816 0.0
Zn127 Zn 0.14765 0.14606 0.71214 0.0
O128 O 0.15338 0.13278 0.69494 0.0
O129 O 0.16433 0.1621 0.68384 0.0
O130 O 0.14251 0.11657 0.72157 0.0
O131 O 0.1834 0.1903 0.70856 0.0
O132 O 0.17546 0.16146 0.72068 0.0
C133 C 0.1605 0.14089 0.68494 0.0
C134 C 0.11249 0.18447 0.7088 0.0
O135 O 0.11811 0.16572 0.71398 0.0
O136 O 0.12607 0.19377 0.70135 0.0
C137 C 0.13009 0.11377 0.73087 0.0
O138 O 0.11896 0.1314 0.73536 0.0
C139 C 0.18765 0.17893 0.71799 0.0
Zn140 Zn 0.56134 0.39927 0.45624 0.0
Zn141 Zn 0.59848 0.3917 0.46787 0.0
O142 O 0.60782 0.39181 0.44977 0.0
O143 O 0.5747 0.39134 0.44033 0.0
O144 O 0.62941 0.38772 0.47607 0.0
O145 O 0.5605 0.43204 0.46115 0.0
O146 O 0.58687 0.42295 0.47451 0.0
C147 C 0.59635 0.39066 0.44 0.0
C148 C 0.55643 0.36169 0.4723 0.0
O149 O 0.57814 0.36406 0.47323 0.0
O150 O 0.54486 0.37579 0.46613 0.0
C151 C 0.63275 0.37888 0.4864 0.0
O152 O 0.61513 0.37114 0.49255 0.0
C153 C 0.57259 0.43732 0.47016 0.0
Zn154 Zn 0.38863 0.8251 0.19364 0.0
Zn155 Zn 0.37609 0.85482 0.2104 0.0
O156 O 0.37567 0.87245 0.19413 0.0
O157 O 0.3891 0.84838 0.18059 0.0
O158 O 0.3695 0.88089 0.222 0.0
O159 O 0.35947 0.80763 0.19749 0.0
O160 O 0.34948 0.83201 0.21173 0.0
C161 C 0.38157 0.868 0.18333 0.0
C162 C 0.42066 0.82585 0.21264 0.0
O163 O 0.40623 0.84005 0.21701 0.0
O164 O 0.41758 0.81747 0.20228 0.0
C165 C 0.3857 0.89519 0.22364 0.0
O166 O 0.40552 0.89145 0.21836 0.0
C167 C 0.34563 0.81381 0.20568 0.0
Zn168 Zn 0.94409 0.39839 0.55534 0.0
Zn169 Zn 0.90589 0.39247 0.54338 0.0
O170 O 0.89534 0.40103 0.56072 0.0
O171 O 0.92767 0.40172 0.57093 0.0
O172 O 0.87562 0.38907 0.53443 0.0
O173 O 0.95212 0.42613 0.54584 0.0
O174 O 0.92273 0.41842 0.53408 0.0
C175 C 0.90605 0.40338 0.57066 0.0
C176 C 0.94231 0.35434 0.54429 0.0
O177 O 0.92196 0.36067 0.54161 0.0
O178 O 0.95557 0.36785 0.54985 0.0
C179 C 0.85914 0.37773 0.53902 0.0
O180 O 0.86223 0.36763 0.54947 0.0
C181 C 0.94046 0.43041 0.53652 0.0
Zn182 Zn 0.35632 0.18838 0.30908 0.0
Zn183 Zn 0.35497 0.15516 0.29382 0.0
O184 O 0.35287 0.13971 0.31061 0.0
O185 O 0.36185 0.16761 0.32308 0.0
O186 O 0.35397 0.12732 0.28286 0.0
O187 O 0.32454 0.1982 0.30475 0.0
O188 O 0.32644 0.17458 0.28934 0.0
C189 C 0.35729 0.14672 0.32122 0.0
C190 C 0.39279 0.19167 0.29245 0.0
O191 O 0.38562 0.17179 0.28944 0.0
O192 O 0.38231 0.20312 0.30038 0.0
C193 C 0.37166 0.11458 0.28224 0.0
O194 O 0.39014 0.12058 0.28823 0.0
C195 C 0.31615 0.19057 0.29505 0.0
Zn196 Zn 0.57813 0.61248 0.05846 0.0
Zn197 Zn 0.61174 0.61554 0.04371 0.0
O198 O 0.62651 0.61485 0.06077 0.0
O199 O 0.59706 0.6204 0.0728 0.0
O200 O 0.63988 0.61652 0.03291 0.0
O201 O 0.57208 0.57973 0.05415 0.0
O202 O 0.59548 0.58534 0.03891 0.0
C203 C 0.61842 0.61825 0.07129 0.0
C204 C 0.57115 0.64853 0.04175 0.0
O205 O 0.59201 0.6442 0.03904 0.0
O206 O 0.56084 0.63647 0.0495 0.0
C207 C 0.65066 0.635 0.03061 0.0
O208 O 0.64281 0.65445 0.03494 0.0
C209 C 0.58077 0.57288 0.04436 0.0
Zn210 Zn 0.14744 0.81279 0.81004 0.0
Zn211 Zn 0.13754 0.84731 0.79547 0.0
O212 O 0.14637 0.86213 0.8119 0.0
O213 O 0.15732 0.83329 0.82334 0.0
O214 O 0.13272 0.87556 0.78498 0.0
O215 O 0.17112 0.80078 0.79893 0.0
O216 O 0.16311 0.82912 0.7865 0.0
C217 C 0.15445 0.85456 0.8218 0.0
C218 C 0.10063 0.81181 0.80141 0.0
O219 O 0.1066 0.82973 0.79557 0.0
O220 O 0.11478 0.80207 0.80839 0.0
C221 C 0.12059 0.89224 0.78876 0.0
O222 O 0.1101 0.89027 0.79918 0.0
C223 C 0.17459 0.81111 0.7891 0.0
Zn224 Zn 0.56966 0.91246 0.55178 0.0
Zn225 Zn 0.60183 0.90107 0.53649 0.0
O226 O 0.61839 0.90721 0.5529 0.0
O227 O 0.59113 0.91889 0.56512 0.0
O228 O 0.62882 0.8949 0.52536 0.0
O229 O 0.55893 0.93812 0.54147 0.0
O230 O 0.58559 0.9287 0.52833 0.0
C231 C 0.61204 0.91459 0.5632 0.0
C232 C 0.56327 0.86715 0.54212 0.0
O233 O 0.58108 0.87204 0.53594 0.0
O234 O 0.55569 0.88128 0.54981 0.0
C235 C 0.64121 0.87697 0.52603 0.0
O236 O 0.6358 0.86096 0.53386 0.0
C237 C 0.5688 0.9414 0.53148 0.0
Zn238 Zn 0.36034 0.33048 0.80862 0.0
Zn239 Zn 0.36595 0.36075 0.79151 0.0
O240 O 0.35968 0.37955 0.80723 0.0
O241 O 0.35147 0.35338 0.82087 0.0
O242 O 0.3687 0.38633 0.77913 0.0
O243 O 0.33552 0.31481 0.7996 0.0
O244 O 0.33909 0.34059 0.78522 0.0
C245 C 0.35328 0.37417 0.81785 0.0
C246 C 0.40454 0.32689 0.79757 0.0
O247 O 0.39657 0.3425 0.79068 0.0
O248 O 0.39285 0.31992 0.80645 0.0
C249 C 0.38458 0.40124 0.77996 0.0
O250 O 0.39994 0.39905 0.78854 0.0
C251 C 0.32933 0.32277 0.78953 0.0
Zn252 Zn 0.92115 0.14042 0.04607 0.0
Zn253 Zn 0.88905 0.12775 0.03104 0.0
O254 O 0.87492 0.12577 0.04831 0.0
O255 O 0.90158 0.13878 0.06054 0.0
O256 O 0.86089 0.12093 0.02078 0.0
O257 O 0.93909 0.11258 0.0408 0.0
O258 O 0.91215 0.1017 0.0281 0.0
C259 C 0.88168 0.13081 0.05891 0.0
C260 C 0.91622 0.17355 0.02813 0.0
O261 O 0.90194 0.15872 0.0242 0.0
O262 O 0.9263 0.17037 0.03805 0.0
C263 C 0.85701 0.12941 0.01042 0.0
O264 O 0.87262 0.14255 0.0054 0.0
C265 C 0.93172 0.09856 0.03299 0.0
Zn266 Zn 0.16502 0.69001 0.29114 0.0
Zn267 Zn 0.14861 0.65352 0.27963 0.0
O268 O 0.15832 0.64178 0.29662 0.0
O269 O 0.17227 0.6721 0.30589 0.0
O270 O 0.13898 0.62427 0.27095 0.0
O271 O 0.1895 0.6944 0.27896 0.0
O272 O 0.17467 0.66584 0.26858 0.0
C273 C 0.16751 0.65095 0.30587 0.0
C274 C 0.11771 0.69524 0.28368 0.0
O275 O 0.12008 0.67479 0.27974 0.0
O276 O 0.13434 0.70523 0.28882 0.0
C277 C 0.1302 0.60716 0.27639 0.0
O278 O 0.12586 0.60877 0.28797 0.0
C279 C 0.18951 0.68178 0.26972 0.0
Zn280 Zn 0.55078 0.10184 0.93563 0.0
Zn281 Zn 0.58787 0.10665 0.9487 0.0
O282 O 0.59957 0.09662 0.93177 0.0
O283 O 0.56843 0.09658 0.92059 0.0
O284 O 0.61755 0.10916 0.95823 0.0
O285 O 0.54045 0.07528 0.94547 0.0
O286 O 0.56916 0.08195 0.95786 0.0
C287 C 0.58988 0.09398 0.92157 0.0
C288 C 0.55313 0.14614 0.9464 0.0
O289 O 0.57276 0.13902 0.94991 0.0
O290 O 0.54025 0.13314 0.94029 0.0
C291 C 0.6345 0.12019 0.9539 0.0
O292 O 0.6321 0.13052 0.94347 0.0
C293 C 0.551 0.07087 0.95514 0.0
Zn294 Zn 0.16051 0.31073 0.19654 0.0
Zn295 Zn 0.14245 0.34809 0.20549 0.0
O296 O 0.15359 0.35696 0.18823 0.0
O297 O 0.1671 0.32484 0.18067 0.0
O298 O 0.13227 0.37894 0.21213 0.0
O299 O 0.1851 0.30952 0.20885 0.0
O300 O 0.16693 0.33771 0.21795 0.0
C301 C 0.16267 0.34594 0.17951 0.0
C302 C 0.11299 0.30514 0.20344 0.0
O303 O 0.11402 0.3266 0.20572 0.0
O304 O 0.13061 0.29461 0.19971 0.0
C305 C 0.12792 0.3823 0.22322 0.0
O306 O 0.12855 0.3648 0.23067 0.0
C307 C 0.18291 0.32276 0.21778 0.0
Zn308 Zn 0.9276 0.89666 0.43263 0.0
Zn309 Zn 0.89321 0.88793 0.44736 0.0
O310 O 0.87828 0.89717 0.43097 0.0
O311 O 0.90727 0.90826 0.41967 0.0
O312 O 0.86503 0.88458 0.45805 0.0
O313 O 0.94139 0.91912 0.44392 0.0
O314 O 0.91235 0.91286 0.45617 0.0
C315 C 0.88596 0.9057 0.42118 0.0
C316 C 0.92733 0.84991 0.44116 0.0
O317 O 0.91026 0.85667 0.44743 0.0
O318 O 0.93676 0.86346 0.43374 0.0
C319 C 0.85523 0.8659 0.46101 0.0
O320 O 0.86397 0.84633 0.45736 0.0
C321 C 0.93109 0.92319 0.4537 0.0
Zn322 Zn 0.34127 0.68575 0.6872 0.0
Zn323 Zn 0.35473 0.65247 0.70167 0.0
O324 O 0.3485 0.63653 0.6852 0.0
O325 O 0.33706 0.66457 0.67337 0.0
O326 O 0.36169 0.62536 0.71263 0.0
O327 O 0.31438 0.69356 0.69728 0.0
O328 O 0.32683 0.6678 0.71021 0.0
C329 C 0.34141 0.64356 0.67497 0.0
C330 C 0.38671 0.693 0.69697 0.0
O331 O 0.38363 0.6734 0.70187 0.0
O332 O 0.37122 0.70167 0.69041 0.0
C333 C 0.37584 0.60963 0.70978 0.0
O334 O 0.38737 0.6115 0.69966 0.0
C335 C 0.31252 0.68343 0.70728 0.0
Zn336 Zn 0.42161 0.12552 0.44745 0.0
Zn337 Zn 0.3892 0.12566 0.46356 0.0
O338 O 0.37273 0.12285 0.44701 0.0
O339 O 0.40004 0.12889 0.43369 0.0
O340 O 0.36196 0.12476 0.47495 0.0
O341 O 0.43226 0.09448 0.45282 0.0
O342 O 0.40868 0.09742 0.46822 0.0
C343 C 0.37915 0.1255 0.43614 0.0
C344 C 0.42578 0.16359 0.46338 0.0
O345 O 0.40663 0.15615 0.4674 0.0
O346 O 0.43587 0.15303 0.45497 0.0
C347 C 0.3488 0.14205 0.4761 0.0
O348 O 0.35392 0.16111 0.47039 0.0
C349 C 0.42473 0.08683 0.46272 0.0
Zn350 Zn 0.61276 0.67062 0.19867 0.0
Zn351 Zn 0.62218 0.63864 0.21482 0.0
O352 O 0.62502 0.62291 0.19803 0.0
O353 O 0.6143 0.64905 0.18488 0.0
O354 O 0.62699 0.61147 0.226 0.0
O355 O 0.64125 0.68732 0.20433 0.0
O356 O 0.64882 0.66085 0.21794 0.0
C357 C 0.62102 0.62894 0.1872 0.0
C358 C 0.5776 0.66788 0.21598 0.0
O359 O 0.59112 0.65299 0.22053 0.0
O360 O 0.58254 0.67752 0.20613 0.0
C361 C 0.61069 0.59706 0.22702 0.0
O362 O 0.59142 0.60098 0.22124 0.0
C363 C 0.65379 0.67976 0.21277 0.0
Zn364 Zn 0.05838 0.90782 0.95018 0.0
Zn365 Zn 0.0946 0.89503 0.9633 0.0
O366 O 0.10745 0.9033 0.94642 0.0
O367 O 0.07753 0.91356 0.93561 0.0
O368 O 0.12369 0.88758 0.97259 0.0
O369 O 0.05217 0.93373 0.96138 0.0
O370 O 0.08034 0.92183 0.97304 0.0
C371 C 0.09891 0.9103 0.9365 0.0
C372 C 0.0549 0.86146 0.95937 0.0
O373 O 0.07476 0.86555 0.96372 0.0
O374 O 0.04452 0.87675 0.95337 0.0
C375 C 0.1395 0.87553 0.96784 0.0
O376 O 0.13616 0.86681 0.95708 0.0
C377 C 0.06391 0.9357 0.97089 0.0
Zn378 Zn 0.86518 0.31357 0.69643 0.0
Zn379 Zn 0.8698 0.34802 0.711 0.0
O380 O 0.86391 0.36267 0.69402 0.0
O381 O 0.86065 0.33281 0.68206 0.0
O382 O 0.87226 0.37619 0.72182 0.0
O383 O 0.8381 0.30162 0.70519 0.0
O384 O 0.84201 0.33003 0.71807 0.0
C385 C 0.86072 0.35429 0.68354 0.0
C386 C 0.90844 0.31217 0.70805 0.0
O387 O 0.90091 0.33034 0.71316 0.0
O388 O 0.89623 0.30193 0.70034 0.0
C389 C 0.88307 0.39399 0.71834 0.0
O390 O 0.8935 0.39355 0.70786 0.0
C391 C 0.83152 0.31199 0.71456 0.0
Zn392 Zn 0.43635 0.88789 0.0517 0.0
Zn393 Zn 0.39907 0.88166 0.03986 0.0
O394 O 0.38893 0.88618 0.05771 0.0
O395 O 0.42147 0.88558 0.06769 0.0
O396 O 0.36826 0.87839 0.03151 0.0
O397 O 0.44158 0.91857 0.0444 0.0
O398 O 0.41349 0.91045 0.03188 0.0
C399 C 0.39982 0.88654 0.06767 0.0
C400 C 0.43856 0.84716 0.03778 0.0
O401 O 0.41743 0.85176 0.03588 0.0
O402 O 0.45073 0.86065 0.04399 0.0
C403 C 0.36499 0.8698 0.02112 0.0
O404 O 0.38263 0.86199 0.01501 0.0
C405 C 0.42985 0.92356 0.0352 0.0
Zn406 Zn 0.84344 0.68271 0.80856 0.0
Zn407 Zn 0.85585 0.64894 0.79416 0.0
O408 O 0.85114 0.63392 0.81101 0.0
O409 O 0.84124 0.66243 0.82289 0.0
O410 O 0.86243 0.62137 0.78337 0.0
O411 O 0.81544 0.68961 0.79916 0.0
O412 O 0.82713 0.66374 0.78611 0.0
C413 C 0.84544 0.64136 0.82139 0.0
C414 C 0.8878 0.68998 0.79758 0.0
O415 O 0.88453 0.67008 0.79308 0.0
O416 O 0.87273 0.69892 0.80432 0.0
C417 C 0.87405 0.60423 0.78705 0.0
O418 O 0.88305 0.60487 0.79788 0.0
C419 C 0.81286 0.67925 0.78927 0.0
Zn420 Zn 0.05238 0.0897 0.55764 0.0
Zn421 Zn 0.08789 0.10033 0.54365 0.0
O422 O 0.10175 0.09393 0.5605 0.0
O423 O 0.07228 0.08544 0.57205 0.0
O424 O 0.11658 0.1057 0.53364 0.0
O425 O 0.04466 0.06266 0.54756 0.0
O426 O 0.07225 0.07278 0.5351 0.0
C427 C 0.09365 0.08818 0.57073 0.0
C428 C 0.04872 0.13469 0.54681 0.0
O429 O 0.06848 0.13008 0.54247 0.0
O430 O 0.03853 0.12027 0.55345 0.0
C431 C 0.12784 0.1244 0.53377 0.0
O432 O 0.12015 0.14166 0.54022 0.0
C433 C 0.05563 0.05953 0.53789 0.0
Zn434 Zn 0.64825 0.29584 0.30686 0.0
Zn435 Zn 0.64429 0.33464 0.295 0.0
O436 O 0.64732 0.34437 0.31295 0.0
O437 O 0.64738 0.31155 0.32271 0.0
O438 O 0.64279 0.36536 0.28633 0.0
O439 O 0.67836 0.28893 0.2993 0.0
O440 O 0.67295 0.31891 0.28758 0.0
C441 C 0.64785 0.33323 0.32283 0.0
C442 C 0.60746 0.29726 0.29261 0.0
O443 O 0.614 0.3178 0.29055 0.0
O444 O 0.61956 0.28415 0.2991 0.0
C445 C 0.62423 0.3767 0.28532 0.0
O446 O 0.60522 0.36808 0.28978 0.0
C447 C 0.68468 0.30131 0.29057 0.0
H448 H 0.97057 0.52655 0.96678 0.0
H449 H 0.98583 0.49958 0.98151 0.0
H450 H 0.95178 0.53634 0.01005 0.0
H451 H 0.936 0.56354 0.99521 0.0
H452 H 0.00458 0.52695 0.0113 0.0
H453 H 0.94935 0.45078 0.00331 0.0
H454 H 0.95879 0.4657 0.99002 0.0
H455 H 0.93985 0.4798 0.00039 0.0
C456 C 0.96605 0.52878 0.97617 0.0
C457 C 0.95216 0.54717 0.97988 0.0
C458 C 0.97473 0.51332 0.98455 0.0
C459 C 0.96985 0.51602 0.9968 0.0
C460 C 0.95558 0.53402 0.00058 0.0
H461 H 0.02378 0.40969 0.04424 0.0
H462 H 0.99992 0.44105 0.03688 0.0
C463 C 0.94655 0.54941 0.99213 0.0
C464 C 0.98112 0.50064 0.00551 0.0
H465 H 0.9854 0.44407 0.01287 0.0
C466 C 1.00015 0.50891 0.0119 0.0
C467 C 0.97521 0.47721 0.00621 0.0
C468 C 0.95457 0.46778 -0.0003 0.0
C469 C 0.01426 0.49395 0.01847 0.0
C470 C 0.00918 0.47025 0.01853 0.0
C471 C 0.98935 0.46226 0.01272 0.0
C472 C 0.02481 0.45315 0.02394 0.0
C473 C 0.03474 0.50351 0.02507 0.0
C474 C 0.04683 0.44972 0.01914 0.0
C475 C 0.06056 0.4317 0.02328 0.0
C476 C 0.05241 0.41678 0.03225 0.0
C477 C 0.0306 0.4208 0.03729 0.0
C478 C 0.01691 0.43873 0.03312 0.0
H479 H 0.03273 0.52214 0.0269 0.0
H480 H 0.0375 0.49438 0.03372 0.0
H481 H 0.05029 0.50119 0.01944 0.0
H482 H 0.05305 0.46045 0.01187 0.0
H483 H 0.07723 0.42906 0.0192 0.0
H484 H 0.68305 0.67098 0.23153 0.0
H485 H 0.71438 0.69528 0.23878 0.0
H486 H 0.70104 0.7438 0.21033 0.0
H487 H 0.66959 0.71985 0.20308 0.0
H488 H 0.75432 0.71162 0.22636 0.0
H489 H 0.69714 0.78268 0.24131 0.0
H490 H 0.68641 0.75436 0.23793 0.0
H491 H 0.69412 0.77353 0.22595 0.0
C492 C 0.68682 0.68676 0.22678 0.0
C493 C 0.67368 0.69355 0.2168 0.0
C494 C 0.70473 0.70061 0.23092 0.0
C495 C 0.70974 0.72146 0.22518 0.0
C496 C 0.69714 0.72796 0.21501 0.0
H497 H 0.80936 0.82341 0.25272 0.0
H498 H 0.78247 0.80469 0.23872 0.0
C499 C 0.67923 0.71418 0.21087 0.0
C500 C 0.72795 0.73652 0.23002 0.0
H501 H 0.73668 0.7872 0.24473 0.0
C502 C 0.75052 0.72825 0.23026 0.0
C503 C 0.72293 0.75831 0.23498 0.0
C504 C 0.69884 0.76778 0.23514 0.0
C505 C 0.76813 0.74088 0.23572 0.0
C506 C 0.7629 0.76211 0.24122 0.0
C507 C 0.74058 0.77094 0.24045 0.0
C508 C 0.77946 0.77362 0.24926 0.0
C509 C 0.7921 0.73113 0.23585 0.0
C510 C 0.78617 0.76248 0.25984 0.0
C511 C 0.80121 0.77305 0.2678 0.0
C512 C 0.80989 0.7951 0.2654 0.0
C513 C 0.80302 0.80641 0.2548 0.0
C514 C 0.78773 0.79576 0.24681 0.0
H515 H 0.79478 0.71886 0.22833 0.0
H516 H 0.80516 0.74495 0.23523 0.0
H517 H 0.79485 0.72172 0.24442 0.0
H518 H 0.77958 0.74559 0.262 0.0
H519 H 0.80604 0.7638 0.27587 0.0
H520 H 0.56609 0.47865 0.45971 0.0
H521 H 0.5478 0.5121 0.46886 0.0
H522 H 0.54654 0.47717 0.50313 0.0
H523 H 0.56605 0.44424 0.49409 0.0
H524 H 0.50637 0.51062 0.47679 0.0
H525 H 0.56121 0.54009 0.51427 0.0
H526 H 0.57151 0.5205 0.50292 0.0
H527 H 0.55513 0.51006 0.51555 0.0
C528 C 0.56275 0.47859 0.46931 0.0
C529 C 0.56754 0.45907 0.47625 0.0
C530 C 0.55217 0.4976 0.47451 0.0
C531 C 0.54576 0.49721 0.48669 0.0
C532 C 0.55177 0.47816 0.49379 0.0
H533 H 0.42604 0.56568 0.51601 0.0
H534 H 0.45233 0.53963 0.50551 0.0
C535 C 0.56291 0.45933 0.48864 0.0
C536 C 0.53023 0.5152 0.49144 0.0
H537 H 0.52155 0.55137 0.5151 0.0
C538 C 0.50988 0.51979 0.48508 0.0
C539 C 0.5348 0.52726 0.50221 0.0
C540 C 0.55698 0.52439 0.50905 0.0
C541 C 0.49384 0.53581 0.48927 0.0
C542 C 0.49782 0.54694 0.50038 0.0
C543 C 0.51835 0.54266 0.50663 0.0
C544 C 0.48111 0.5632 0.50571 0.0
C545 C 0.47302 0.54085 0.48164 0.0
C546 C 0.48853 0.58499 0.50937 0.0
C547 C 0.47375 0.59953 0.51559 0.0
C548 C 0.45115 0.59273 0.51812 0.0
C549 C 0.4433 0.57139 0.51399 0.0
C550 C 0.4583 0.55657 0.50797 0.0
H551 H 0.47628 0.53699 0.472 0.0
H552 H 0.45858 0.52985 0.48465 0.0
H553 H 0.46772 0.55908 0.48243 0.0
H554 H 0.50599 0.59052 0.50769 0.0
H555 H 0.48017 0.61596 0.51867 0.0
H556 H 0.80253 0.2782 0.7074 0.0
H557 H 0.77345 0.2587 0.71925 0.0
H558 H 0.78752 0.30336 0.7493 0.0
H559 H 0.81722 0.32301 0.73745 0.0
H560 H 0.78812 0.25633 0.75493 0.0
H561 H 0.70943 0.27871 0.72953 0.0
H562 H 0.73185 0.26754 0.72015 0.0
H563 H 0.73597 0.29436 0.72786 0.0
C564 C 0.79933 0.28415 0.71648 0.0
C565 C 0.81226 0.30214 0.7215 0.0
C566 C 0.78253 0.27306 0.7232 0.0
C567 C 0.77813 0.27979 0.73507 0.0
C568 C 0.7906 0.29806 0.74009 0.0
H569 H 0.69137 0.22238 0.79013 0.0
H570 H 0.71896 0.24443 0.77848 0.0
C571 C 0.80748 0.30929 0.73332 0.0
C572 C 0.76178 0.2664 0.74242 0.0
H573 H 0.70652 0.24708 0.74316 0.0
C574 C 0.77021 0.25449 0.75246 0.0
C575 C 0.73851 0.26388 0.73905 0.0
C576 C 0.72833 0.27697 0.72862 0.0
C577 C 0.75608 0.2397 0.75909 0.0
C578 C 0.7329 0.237 0.75564 0.0
C579 C 0.7244 0.24902 0.74567 0.0
C580 C 0.71684 0.22281 0.76272 0.0
C581 C 0.76616 0.22671 0.76958 0.0
C582 C 0.70632 0.20343 0.75762 0.0
C583 C 0.6904 0.19067 0.76428 0.0
C584 C 0.68462 0.19735 0.77605 0.0
C585 C 0.69539 0.21672 0.78109 0.0
C586 C 0.71128 0.22932 0.77448 0.0
H587 H 0.78519 0.22612 0.76916 0.0
H588 H 0.76122 0.23538 0.77809 0.0
H589 H 0.75949 0.20887 0.76989 0.0
H590 H 0.71036 0.19828 0.7485 0.0
H591 H 0.68232 0.17591 0.76015 0.0
H592 H 0.97083 0.46448 0.54136 0.0
H593 H 0.99051 0.48911 0.52695 0.0
H594 H 0.95047 0.46006 0.49809 0.0
H595 H 0.93037 0.43541 0.51254 0.0
H596 H 0.01685 0.47133 0.5083 0.0
H597 H 0.9486 0.52918 0.49103 0.0
H598 H 0.94553 0.51302 0.50481 0.0
H599 H 0.94177 0.49914 0.49051 0.0
C600 C 0.96586 0.46362 0.53198 0.0
C601 C 0.94914 0.44791 0.52806 0.0
C602 C 0.97715 0.47769 0.52377 0.0
C603 C 0.97194 0.47639 0.51148 0.0
C604 C 0.9545 0.46153 0.50757 0.0
H605 H 0.03161 0.53635 0.44789 0.0
H606 H 0.01119 0.51233 0.4623 0.0
C607 C 0.94305 0.44746 0.51583 0.0
C608 C 0.98622 0.48913 0.50275 0.0
H609 H 0.98446 0.53026 0.48096 0.0
C610 C 0.00981 0.48429 0.50234 0.0
C611 C 0.97692 0.50594 0.49501 0.0
C612 C 0.95186 0.51233 0.49539 0.0
C613 C 0.02437 0.49566 0.49426 0.0
C614 C 0.01508 0.51248 0.48652 0.0
C615 C 0.99149 0.5173 0.48692 0.0
C616 C 0.02942 0.52523 0.47783 0.0
C617 C 0.04944 0.48926 0.49389 0.0
C618 C 0.04684 0.54006 0.4818 0.0
C619 C 0.0587 0.55379 0.47355 0.0
C620 C 0.05308 0.55304 0.46126 0.0
C621 C 0.03627 0.53745 0.45731 0.0
C622 C 0.02453 0.52373 0.46552 0.0
H623 H 0.05269 0.47242 0.49826 0.0
H624 H 0.05577 0.48854 0.48447 0.0
H625 H 0.05953 0.50246 0.49876 0.0
H626 H 0.05063 0.54167 0.4913 0.0
H627 H 0.07144 0.56574 0.47688 0.0
H628 H 0.70307 0.77265 0.70327 0.0
H629 H 0.72544 0.75042 0.71762 0.0
H630 H 0.69907 0.79159 0.74674 0.0
H631 H 0.67629 0.81413 0.73233 0.0
H632 H 0.75897 0.76619 0.73482 0.0
H633 H 0.68347 0.72329 0.75571 0.0
H634 H 0.6819 0.7376 0.74131 0.0
H635 H 0.68284 0.75412 0.75492 0.0
C636 C 0.70205 0.77713 0.71272 0.0
C637 C 0.68776 0.79505 0.71669 0.0
C638 C 0.71488 0.7644 0.72089 0.0
C639 C 0.7136 0.76917 0.73321 0.0
C640 C 0.69997 0.7875 0.73724 0.0
H641 H 0.77667 0.70672 0.79477 0.0
H642 H 0.75151 0.72667 0.78077 0.0
C643 C 0.68714 0.80043 0.72902 0.0
C644 C 0.72649 0.7546 0.74171 0.0
H645 H 0.71995 0.71368 0.76341 0.0
C646 C 0.7505 0.75471 0.74109 0.0
C647 C 0.71526 0.73961 0.74978 0.0
C648 C 0.68944 0.7384 0.75048 0.0
C649 C 0.7637 0.74041 0.7485 0.0
C650 C 0.75248 0.72521 0.75651 0.0
C651 C 0.72844 0.72517 0.75715 0.0
C652 C 0.76555 0.71046 0.76489 0.0
C653 C 0.78951 0.74213 0.7479 0.0
C654 C 0.78105 0.6939 0.76062 0.0
C655 C 0.79561 0.68243 0.76863 0.0
C656 C 0.79476 0.68739 0.781 0.0
C657 C 0.77797 0.70271 0.78528 0.0
C658 C 0.76351 0.71412 0.7773 0.0
H659 H 0.7952 0.75812 0.74335 0.0
H660 H 0.79713 0.74164 0.75706 0.0
H661 H 0.79636 0.72735 0.74273 0.0
H662 H 0.78248 0.69049 0.75107 0.0
H663 H 0.80827 0.67064 0.76508 0.0
H664 H 0.43802 0.4348 0.99119 0.0
H665 H 0.45999 0.45325 0.0074 0.0
H666 H 0.49559 0.4946 0.9812 0.0
H667 H 0.47392 0.47645 0.96505 0.0
H668 H 0.52347 0.46426 0.99789 0.0
H669 H 0.46086 0.52268 0.02032 0.0
H670 H 0.45229 0.49391 0.01639 0.0
H671 H 0.45758 0.51447 0.00473 0.0
C672 C 0.45007 0.44828 0.98894 0.0
C673 C 0.4544 0.45406 0.97686 0.0
C674 C 0.46265 0.45869 0.99818 0.0
C675 C 0.47947 0.47508 0.99542 0.0
C676 C 0.48275 0.48186 0.98346 0.0
H677 H 0.58595 0.559 0.02101 0.0
H678 H 0.56272 0.53051 0.01049 0.0
C679 C 0.47031 0.4715 0.97426 0.0
C680 C 0.4951 0.48406 0.00471 0.0
H681 H 0.49926 0.52464 0.02664 0.0
C682 C 0.51818 0.47723 0.00432 0.0
C683 C 0.48799 0.50074 0.0131 0.0
C684 C 0.46336 0.50855 0.01374 0.0
C685 C 0.53461 0.48738 0.01183 0.0
C686 C 0.52777 0.50509 0.01973 0.0
C687 C 0.50446 0.51106 0.02054 0.0
C688 C 0.54461 0.51912 0.02643 0.0
C689 C 0.55915 0.4793 0.01109 0.0
C690 C 0.54244 0.52188 0.03891 0.0
C691 C 0.55558 0.53826 0.04492 0.0
C692 C 0.57103 0.55228 0.03854 0.0
C693 C 0.5743 0.5484 0.02619 0.0
C694 C 0.56107 0.53206 0.02016 0.0
H695 H 0.56014 0.46124 0.00793 0.0
H696 H 0.56858 0.4901 0.00452 0.0
H697 H 0.56787 0.48063 0.01995 0.0
H698 H 0.52983 0.51206 0.04389 0.0
H699 H 0.55274 0.54073 0.05447 0.0
H700 H 0.82455 0.16988 0.23293 0.0
H701 H 0.80064 0.18933 0.24804 0.0
H702 H 0.76957 0.23012 0.22005 0.0
H703 H 0.79291 0.2108 0.20503 0.0
H704 H 0.80167 0.23728 0.25221 0.0
H705 H 0.71438 0.20853 0.23956 0.0
H706 H 0.73996 0.19372 0.23469 0.0
H707 H 0.73048 0.21915 0.22697 0.0
C708 C 0.81221 0.1826 0.23001 0.0
C709 C 0.81063 0.18886 0.21782 0.0
C710 C 0.79869 0.19376 0.23863 0.0
C711 C 0.78325 0.211 0.23512 0.0
C712 C 0.78109 0.2166 0.22292 0.0
H713 H 0.6939 0.31179 0.26704 0.0
H714 H 0.72077 0.29157 0.25378 0.0
C715 C 0.79457 0.20561 0.21435 0.0
C716 C 0.77055 0.2246 0.24414 0.0
H717 H 0.71672 0.24236 0.25169 0.0
C718 C 0.78308 0.2382 0.25223 0.0
C719 C 0.74634 0.22584 0.24405 0.0
C720 C 0.73199 0.21086 0.23593 0.0
C721 C 0.772 0.25361 0.26 0.0
C722 C 0.74783 0.25523 0.25967 0.0
C723 C 0.7353 0.24132 0.25175 0.0
C724 C 0.73492 0.27029 0.26791 0.0
C725 C 0.78617 0.26844 0.26827 0.0
C726 C 0.73457 0.26542 0.28025 0.0
C727 C 0.71927 0.27685 0.2878 0.0
C728 C 0.70403 0.2933 0.28312 0.0
C729 C 0.70551 0.29928 0.2709 0.0
C730 C 0.72075 0.28769 0.26332 0.0
H731 H 0.80444 0.26907 0.26545 0.0
H732 H 0.77929 0.2862 0.26857 0.0
H733 H 0.78543 0.26129 0.27752 0.0
H734 H 0.74516 0.25186 0.28393 0.0
H735 H 0.71858 0.27193 0.2972 0.0
H736 H 0.29855 0.29195 0.79818 0.0
H737 H 0.27469 0.26559 0.78662 0.0
H738 H 0.29744 0.29726 0.75363 0.0
H739 H 0.32162 0.32383 0.76518 0.0
H740 H 0.2394 0.2736 0.76889 0.0
H741 H 0.31581 0.22794 0.75088 0.0
H742 H 0.31733 0.2471 0.76363 0.0
H743 H 0.31542 0.25849 0.74865 0.0
C744 C 0.29828 0.29355 0.78846 0.0
C745 C 0.31214 0.3098 0.78256 0.0
C746 C 0.28463 0.27847 0.78189 0.0
C747 C 0.28471 0.27925 0.76931 0.0
C748 C 0.29751 0.29623 0.76336 0.0
H749 H 0.22347 0.20616 0.71201 0.0
H750 H 0.24814 0.22759 0.72562 0.0
C751 C 0.31112 0.3115 0.76996 0.0
C752 C 0.27208 0.26161 0.76247 0.0
H753 H 0.27957 0.21623 0.74349 0.0
C754 C 0.24811 0.26096 0.76337 0.0
C755 C 0.28366 0.24505 0.75544 0.0
C756 C 0.30949 0.24444 0.75463 0.0
C757 C 0.23525 0.24465 0.757 0.0
C758 C 0.2468 0.2283 0.74979 0.0
C759 C 0.27082 0.22867 0.74912 0.0
C760 C 0.23413 0.21249 0.74181 0.0
C761 C 0.2094 0.24565 0.75765 0.0
C762 C 0.21882 0.19606 0.74641 0.0
C763 C 0.20457 0.18368 0.73861 0.0
C764 C 0.20555 0.1877 0.72615 0.0
C765 C 0.22213 0.2029 0.72159 0.0
C766 C 0.2363 0.21514 0.72934 0.0
H767 H 0.20323 0.26185 0.76181 0.0
H768 H 0.20177 0.2441 0.74853 0.0
H769 H 0.20304 0.23113 0.76318 0.0
H770 H 0.21726 0.19348 0.75603 0.0
H771 H 0.19197 0.17204 0.74235 0.0
H772 H 0.23149 0.70067 0.27239 0.0
H773 H 0.25587 0.71667 0.2567 0.0
H774 H 0.20926 0.69176 0.22953 0.0
H775 H 0.18453 0.67549 0.24536 0.0
H776 H 0.27715 0.69745 0.2352 0.0
H777 H 0.21034 0.76386 0.22633 0.0
H778 H 0.20977 0.74639 0.23974 0.0
H779 H 0.20245 0.73403 0.22547 0.0
C780 C 0.22663 0.69817 0.26307 0.0
C781 C 0.20603 0.68707 0.26007 0.0
C782 C 0.2406 0.70727 0.25412 0.0
C783 C 0.23417 0.70563 0.242 0.0
C784 C 0.21435 0.69331 0.23887 0.0
H785 H 0.33167 0.77519 0.19382 0.0
H786 H 0.30238 0.74775 0.20015 0.0
C787 C 0.20037 0.68393 0.24789 0.0
C788 C 0.2474 0.71886 0.23304 0.0
H789 H 0.24708 0.77046 0.21851 0.0
C790 C 0.2705 0.71312 0.23125 0.0
C791 C 0.2386 0.73941 0.22809 0.0
C792 C 0.21397 0.7465 0.22999 0.0
C793 C 0.28542 0.72805 0.2252 0.0
C794 C 0.27686 0.7491 0.22072 0.0
C795 C 0.25349 0.75427 0.22195 0.0
C796 C 0.29242 0.76693 0.21595 0.0
C797 C 0.31053 0.7219 0.22434 0.0
C798 C 0.29578 0.78725 0.22249 0.0
C799 C 0.31245 0.80306 0.2189 0.0
C800 C 0.32601 0.79876 0.20869 0.0
C801 C 0.3217 0.77892 0.20181 0.0
C802 C 0.30501 0.76317 0.2054 0.0
H803 H 0.31493 0.7067 0.22992 0.0
H804 H 0.31488 0.71793 0.21484 0.0
H805 H 0.32137 0.73655 0.22725 0.0
H806 H 0.28613 0.79045 0.23066 0.0
H807 H 0.31526 0.81818 0.22436 0.0
H808 H 0.29871 0.18626 0.27224 0.0
H809 H 0.27155 0.21231 0.26242 0.0
H810 H 0.26209 0.24867 0.29583 0.0
H811 H 0.28907 0.22282 0.30574 0.0
H812 H 0.22339 0.2282 0.26894 0.0
H813 H 0.29162 0.29515 0.27067 0.0
H814 H 0.29793 0.26501 0.27243 0.0
H815 H 0.28446 0.28053 0.28444 0.0
C816 C 0.29042 0.19941 0.27757 0.0
C817 C 0.29632 0.20268 0.28971 0.0
C818 C 0.27495 0.21429 0.27195 0.0
C819 C 0.26522 0.23256 0.27839 0.0
C820 C 0.2697 0.2348 0.29071 0.0
H821 H 0.17055 0.32711 0.2414 0.0
H822 H 0.19002 0.30895 0.25856 0.0
C823 C 0.2851 0.21997 0.29633 0.0
C824 C 0.25222 0.25046 0.27196 0.0
H825 H 0.25768 0.30447 0.26041 0.0
C826 C 0.23063 0.24503 0.26723 0.0
C827 C 0.26191 0.27231 0.26976 0.0
C828 C 0.28531 0.27872 0.27451 0.0
C829 C 0.21872 0.26072 0.25997 0.0
C830 C 0.22874 0.2823 0.25746 0.0
C831 C 0.25 0.28801 0.26252 0.0
C832 C 0.21912 0.29742 0.24809 0.0
C833 C 0.19611 0.2537 0.25449 0.0
C834 C 0.22971 0.29789 0.23678 0.0
C835 C 0.21868 0.30807 0.22704 0.0
C836 C 0.19698 0.31815 0.2285 0.0
C837 C 0.18734 0.31957 0.24007 0.0
C838 C 0.19833 0.30908 0.24984 0.0
H839 H 0.19159 0.23562 0.25658 0.0
H840 H 0.18228 0.26497 0.25798 0.0
H841 H 0.1967 0.25582 0.24456 0.0
H842 H 0.24581 0.28902 0.23531 0.0
H843 H 0.22647 0.30682 0.21821 0.0
H844 H 0.20891 0.78128 0.79419 0.0
H845 H 0.23237 0.75974 0.78002 0.0
H846 H 0.20074 0.79558 0.75039 0.0
H847 H 0.17689 0.81735 0.76462 0.0
H848 H 0.19977 0.74588 0.74919 0.0
H849 H 0.28704 0.7794 0.75875 0.0
H850 H 0.27092 0.77136 0.77187 0.0
H851 H 0.26128 0.79488 0.76272 0.0
C852 C 0.20717 0.78491 0.78467 0.0
C853 C 0.191 0.80096 0.7805 0.0
C854 C 0.22069 0.77264 0.77659 0.0
C855 C 0.21836 0.77619 0.7642 0.0
C856 C 0.2028 0.79273 0.75997 0.0
H857 H 0.27513 0.70947 0.7022 0.0
H858 H 0.25062 0.72963 0.71642 0.0
C859 C 0.18931 0.80521 0.76808 0.0
C860 C 0.23095 0.76124 0.75575 0.0
H861 H 0.28479 0.74506 0.74729 0.0
C862 C 0.21835 0.74579 0.74868 0.0
C863 C 0.25516 0.76101 0.75528 0.0
C864 C 0.26944 0.77767 0.76248 0.0
C865 C 0.22941 0.72982 0.74123 0.0
C866 C 0.25364 0.72964 0.74072 0.0
C867 C 0.26621 0.7451 0.74781 0.0
C868 C 0.26635 0.71479 0.73225 0.0
C869 C 0.21507 0.71304 0.73413 0.0
C870 C 0.28321 0.69954 0.73644 0.0
C871 C 0.2974 0.68796 0.72829 0.0
C872 C 0.29507 0.69178 0.71586 0.0
C873 C 0.2774 0.70621 0.71173 0.0
C874 C 0.26325 0.71765 0.71984 0.0
H875 H 0.19784 0.71068 0.73823 0.0
H876 H 0.21261 0.71974 0.72487 0.0
H877 H 0.22363 0.69607 0.7335 0.0
H878 H 0.2859 0.69721 0.74601 0.0
H879 H 0.31093 0.67706 0.73174 0.0
H880 H 0.57445 0.94484 0.507 0.0
H881 H 0.55282 0.96987 0.49329 0.0
H882 H 0.51893 0.00103 0.52368 0.0
H883 H 0.54046 0.97657 0.53732 0.0
H884 H 0.50491 0.96975 0.49168 0.0
H885 H 0.53635 0.0564 0.50346 0.0
H886 H 0.55185 0.03063 0.50738 0.0
H887 H 0.52825 0.04028 0.51654 0.0
C888 C 0.56283 0.95747 0.51074 0.0
C889 C 0.5591 0.95872 0.52323 0.0
C890 C 0.55042 0.97163 0.50291 0.0
C891 C 0.53444 0.98741 0.50749 0.0
C892 C 0.53148 0.98929 0.51996 0.0
H893 H 0.42299 0.07355 0.48633 0.0
H894 H 0.44912 0.04689 0.49644 0.0
C895 C 0.54372 0.97517 0.52775 0.0
C896 C 0.51917 0.00051 0.4994 0.0
H897 H 0.4992 0.05454 0.49405 0.0
C898 C 0.50389 0.98832 0.49201 0.0
C899 C 0.51788 0.0247 0.4999 0.0
C900 C 0.53463 0.03877 0.50716 0.0
C901 C 0.48662 0.99968 0.48553 0.0
C902 C 0.48475 0.02376 0.48648 0.0
C903 C 0.50051 0.036 0.49353 0.0
C904 C 0.46675 0.03681 0.48015 0.0
C905 C 0.46998 0.9859 0.47807 0.0
C906 C 0.46771 0.03938 0.46763 0.0
C907 C 0.45289 0.05459 0.46184 0.0
C908 C 0.43689 0.06751 0.46849 0.0
C909 C 0.43505 0.06381 0.48095 0.0
C910 C 0.45001 0.04868 0.48675 0.0
H911 H 0.47135 0.96721 0.47989 0.0
H912 H 0.45209 0.99151 0.47986 0.0
H913 H 0.47356 0.98884 0.46839 0.0
H914 H 0.48067 0.03051 0.46242 0.0
H915 H 0.45469 0.05702 0.45222 0.0
H916 H 0.04364 0.97633 0.96595 0.0
H917 H 0.02681 0.00326 0.9802 0.0
H918 H 0.05123 0.96208 0.0098 0.0
H919 H 0.06848 0.9349 0.99545 0.0
H920 H 0.00166 0.9722 0.00906 0.0
H921 H 0.05558 0.05003 0.00433 0.0
H922 H 0.04779 0.03712 0.99023 0.0
H923 H 0.06577 0.02163 0.00056 0.0
C924 C 0.04586 0.97322 0.97549 0.0
C925 C 0.05729 0.95352 0.97962 0.0
C926 C 0.03634 0.98868 0.98362 0.0
C927 C 0.03793 0.98468 0.99602 0.0
C928 C 0.05001 0.96546 0.00023 0.0
H929 H 0.97359 0.08723 0.04215 0.0
H930 H 0.99978 0.05752 0.03513 0.0
C931 C 0.05991 0.95006 0.99206 0.0
C932 C 0.02484 0.99952 0.0043 0.0
H933 H 0.01733 0.05569 0.01181 0.0
C934 C 0.0053 0.99038 0.0099 0.0
C935 C 0.02973 0.02315 0.00538 0.0
C936 C 0.05098 0.03357 -0.0001 0.0
C937 C 0.98974 0.0046 0.016 0.0
C938 C 0.99383 0.02848 0.01636 0.0
C939 C 0.0141 0.03738 0.01138 0.0
C940 C 0.97691 0.04477 0.02136 0.0
C941 C 0.96883 0.99405 0.02177 0.0
C942 C 0.95527 0.04733 0.01597 0.0
C943 C 0.94018 0.06438 0.01994 0.0
C944 C 0.9466 0.07922 0.02932 0.0
C945 C 0.96809 0.07616 0.03488 0.0
C946 C 0.98312 0.05917 0.0309 0.0
H947 H 0.97137 0.97549 0.0236 0.0
H948 H 0.96452 0.00286 0.03034 0.0
H949 H 0.954 0.99584 0.01558 0.0
H950 H 0.95035 0.03662 0.00843 0.0
H951 H 0.92381 0.06632 0.01545 0.0
H952 H 0.51774 0.03958 0.95026 0.0
H953 H 0.49642 0.01621 0.96459 0.0
H954 H 0.53873 0.0415 0.99352 0.0
H955 H 0.56049 0.06498 0.97915 0.0
H956 H 0.52946 0.99342 0.99419 0.0
H957 H 0.45004 0.04472 0.98826 0.0
H958 H 0.46201 0.03413 0.97444 0.0
H959 H 0.47782 0.0546 0.98326 0.0
C960 C 0.52271 0.04006 0.95965 0.0
C961 C 0.54064 0.05434 0.96361 0.0
C962 C 0.51039 0.0268 0.96783 0.0
C963 C 0.51562 0.02768 0.98011 0.0
C964 C 0.5343 0.04088 0.98405 0.0
H965 H 0.45716 0.95905 0.04197 0.0
H966 H 0.47654 0.98634 0.02879 0.0
C967 C 0.54676 0.05416 0.97584 0.0
C968 C 0.5013 0.01493 0.98879 0.0
H969 H 0.44634 0.00964 -0.00091 0.0
C970 C 0.51135 0.99706 0.99536 0.0
C971 C 0.47766 0.0198 0.99024 0.0
C972 C 0.46625 0.03949 0.98376 0.0
C973 C 0.4982 0.98344 0.00314 0.0
C974 C 0.47451 0.98813 0.00446 0.0
C975 C 0.46449 0.00613 0.99799 0.0
C976 C 0.46 0.9743 0.01256 0.0
C977 C 0.5096 0.96378 0.00965 0.0
C978 C 0.4433 0.95949 0.00784 0.0
C979 C 0.43202 0.94391 0.01537 0.0
C980 C 0.43742 0.943 0.02768 0.0
C981 C 0.45286 0.95914 0.03248 0.0
C982 C 0.46401 0.97469 0.02498 0.0
H983 H 0.52658 0.95948 0.0057 0.0
H984 H 0.51228 0.96858 0.01921 0.0
H985 H 0.49861 0.94823 0.00943 0.0
H986 H 0.43991 0.95915 0.99825 0.0
H987 H 0.4202 0.93169 0.01143 0.0
H988 H 0.02638 0.02449 0.54283 0.0
H989 H 0.00692 0.99965 0.52846 0.0
H990 H 0.04561 0.02996 0.49944 0.0
H991 H 0.06539 0.05498 0.51383 0.0
H992 H 0.98016 0.01895 0.50957 0.0
H993 H 0.0477 0.95985 0.49258 0.0
H994 H 0.05044 0.97525 0.50662 0.0
H995 H 0.0549 0.98985 0.49259 0.0
C996 C 0.03112 0.02561 0.53342 0.0
C997 C 0.04728 0.04185 0.52944 0.0
C998 C 0.01997 0.01139 0.52524 0.0
C999 C 0.02483 0.01302 0.51293 0.0
C1000 C 0.04184 0.0283 0.50895 0.0
H1001 H 0.96519 0.95382 0.4493 0.0
H1002 H 0.98665 0.97642 0.4639 0.0
C1003 C 0.0531 0.04257 0.51717 0.0
C1004 C 0.01044 0.00037 0.50425 0.0
H1005 H 0.01169 0.95874 0.48274 0.0
C1006 C 0.98698 0.00571 0.50372 0.0
C1007 C 0.01952 0.98323 0.49666 0.0
C1008 C 0.04448 0.9765 0.49715 0.0
C1009 C 0.97233 0.99455 0.49562 0.0
C1010 C 0.98136 0.97732 0.48804 0.0
C1011 C 0.00484 0.97196 0.48859 0.0
C1012 C 0.96692 0.96494 0.47925 0.0
C1013 C 0.94747 0.0017 0.49504 0.0
C1014 C 0.94842 0.95128 0.48304 0.0
C1015 C 0.93592 0.93843 0.47467 0.0
C1016 C 0.94199 0.93884 0.46244 0.0
C1017 C 0.96015 0.95303 0.45867 0.0
C1018 C 0.97248 0.96593 0.467 0.0
H1019 H 0.94468 0.01885 0.49915 0.0
H1020 H 0.94129 0.00215 0.48559 0.0
H1021 H 0.9369 0.98909 0.50006 0.0
H1022 H 0.94411 0.95002 0.4925 0.0
H1023 H 0.92215 0.92751 0.47784 0.0
H1024 H 0.92545 0.21676 0.03537 0.0
H1025 H 0.95122 0.2435 0.02538 0.0
H1026 H 0.95338 0.19945 0.9942 0.0
H1027 H 0.9272 0.17253 0.00426 0.0
H1028 H 0.99547 0.20574 0.00426 0.0
H1029 H 0.95539 0.29045 -0.00127 0.0
H1030 H 0.94863 0.2794 0.01335 0.0
H1031 H 0.93863 0.26448 0.00013 0.0
C1032 C 0.93049 0.21335 0.02615 0.0
C1033 C 0.92433 0.19267 0.02057 0.0
C1034 C 0.9452 0.22869 0.0204 0.0
C1035 C 0.95418 0.22359 0.00899 0.0
C1036 C 0.9465 0.20384 0.00296 0.0
H1037 H 0.06536 0.32331 0.00578 0.0
H1038 H 0.03881 0.29738 0.99525 0.0
C1039 C 0.93142 0.18856 0.00867 0.0
C1040 C 0.97472 0.23638 0.0048 0.0
H1041 H 0.99615 0.29076 0.00504 0.0
C1042 C 0.99555 0.22434 0.00396 0.0
C1043 C 0.97497 0.26059 0.00414 0.0
C1044 C 0.95311 0.27441 0.004 0.0
C1045 C 0.01665 0.23595 0.00407 0.0
C1046 C 0.01687 0.2601 0.00517 0.0
C1047 C 0.99607 0.27219 0.0044 0.0
C1048 C 0.03732 0.27255 0.00972 0.0
C1049 C 0.03851 0.22214 0.00385 0.0
C1050 C 0.04593 0.26678 0.02112 0.0
C1051 C 0.06082 0.28156 0.02713 0.0
C1052 C 0.06757 0.30232 0.02182 0.0
C1053 C 0.06071 0.30717 0.00997 0.0
C1054 C 0.04543 0.29248 0.00399 0.0
H1055 H 0.03636 0.20637 -0.00165 0.0
H1056 H 0.05306 0.23228 0.0002 0.0
H1057 H 0.04283 0.2167 0.01316 0.0
H1058 H 0.03957 0.25183 0.02586 0.0
H1059 H 0.06567 0.27761 0.03632 0.0
H1060 H 0.11042 0.74086 0.28713 0.0
H1061 H 0.07433 0.76176 0.2861 0.0
H1062 H 0.03896 0.69953 0.27634 0.0
H1063 H 0.07537 0.67832 0.27713 0.0
H1064 H 0.02469 0.73891 0.26311 0.0
H1065 H 0.02553 0.75534 0.31232 0.0
H1066 H 0.05096 0.7648 0.30467 0.0
H1067 H 0.04428 0.7347 0.30527 0.0
C1068 C 0.09502 0.73152 0.28473 0.0
C1069 C 0.09574 0.7078 0.28237 0.0
C1070 C 0.07438 0.74354 0.28416 0.0
C1071 C 0.05392 0.73212 0.28138 0.0
C1072 C 0.05459 0.70862 0.27858 0.0
H1073 H 0.91741 0.77218 0.2989 0.0
H1074 H 0.95506 0.75509 0.29653 0.0
C1075 C 0.07537 0.69653 0.27906 0.0
C1076 C 0.03182 0.74466 0.28187 0.0
H1077 H 0.99695 0.77437 0.301 0.0
C1078 C 0.01856 0.74667 0.27137 0.0
C1079 C 0.02386 0.75465 0.2927 0.0
C1080 C 0.03676 0.75213 0.30441 0.0
C1081 C 0.99749 0.75844 0.27143 0.0
C1082 C 0.98973 0.7687 0.28223 0.0
C1083 C 0.00308 0.76674 0.29269 0.0
C1084 C 0.96683 0.77959 0.28328 0.0
C1085 C 0.98339 0.75922 0.26006 0.0
C1086 C 0.96092 0.79931 0.27667 0.0
C1087 C 0.93912 0.80925 0.27799 0.0
C1088 C 0.92302 0.79965 0.28597 0.0
C1089 C 0.92927 0.7801 0.29265 0.0
C1090 C 0.95086 0.77023 0.29132 0.0
H1091 H 0.98964 0.74678 0.25323 0.0
H1092 H 0.96509 0.75548 0.26203 0.0
H1093 H 0.98439 0.77668 0.25612 0.0
H1094 H 0.97317 0.80705 0.27058 0.0
H1095 H 0.93487 0.82432 0.27273 0.0
H1096 H 0.42335 0.69618 0.5184 0.0
H1097 H 0.44565 0.73119 0.51443 0.0
H1098 H 0.45232 0.74266 0.55259 0.0
H1099 H 0.43044 0.70774 0.55662 0.0
H1100 H 0.44258 0.78425 0.53459 0.0
H1101 H 0.51796 0.72771 0.52575 0.0
H1102 H 0.49048 0.72138 0.51905 0.0
H1103 H 0.49437 0.71789 0.53494 0.0
C1104 C 0.4289 0.70662 0.52592 0.0
C1105 C 0.42525 0.69924 0.53782 0.0
C1106 C 0.44177 0.72646 0.52364 0.0
C1107 C 0.45078 0.73925 0.53323 0.0
C1108 C 0.44554 0.73292 0.54508 0.0
H1109 H 0.53363 0.84654 0.55749 0.0
H1110 H 0.50674 0.81572 0.55314 0.0
C1111 C 0.43299 0.71303 0.54737 0.0
C1112 C 0.46754 0.75787 0.5312 0.0
H1113 H 0.5252 0.76701 0.52856 0.0
C1114 C 0.46058 0.78059 0.53301 0.0
C1115 C 0.49095 0.75297 0.52908 0.0
C1116 C 0.4991 0.7287 0.52709 0.0
C1117 C 0.47664 0.79851 0.53331 0.0
C1118 C 0.5003 0.7934 0.53212 0.0
C1119 C 0.50709 0.77085 0.52955 0.0
C1120 C 0.51815 0.81079 0.53479 0.0
C1121 C 0.46816 0.82269 0.53521 0.0
C1122 C 0.53453 0.81728 0.52615 0.0
C1123 C 0.5503 0.83482 0.52869 0.0
C1124 C 0.54982 0.84604 0.5399 0.0
C1125 C 0.53425 0.83849 0.54871 0.0
C1126 C 0.51871 0.82098 0.54621 0.0
H1127 H 0.45029 0.82476 0.53191 0.0
H1128 H 0.46822 0.82662 0.54498 0.0
H1129 H 0.47929 0.83535 0.53055 0.0
H1130 H 0.5346 0.80934 0.51734 0.0
H1131 H 0.56209 0.8403 0.52172 0.0
H1132 H 0.5714 0.18385 0.77019 0.0
H1133 H 0.53728 0.20772 0.76629 0.0
H1134 H 0.52679 0.21526 0.8045 0.0
H1135 H 0.56068 0.19186 0.80842 0.0
H1136 H 0.48499 0.20668 0.78857 0.0
H1137 H 0.54168 0.27958 0.77533 0.0
H1138 H 0.54588 0.25167 0.76868 0.0
H1139 H 0.55248 0.25605 0.78426 0.0
C1140 C 0.56136 0.19006 0.77772 0.0
C1141 C 0.56864 0.18608 0.7896 0.0
C1142 C 0.54207 0.20383 0.77549 0.0
C1143 C 0.52976 0.21342 0.78513 0.0
C1144 C 0.53612 0.20807 0.79695 0.0
H1145 H 0.43068 0.30135 0.81271 0.0
H1146 H 0.46093 0.2744 0.80731 0.0
C1147 C 0.55544 0.19467 0.79918 0.0
C1148 C 0.5113 0.23046 0.78322 0.0
H1149 H 0.50314 0.28813 0.77962 0.0
C1150 C 0.48881 0.22438 0.78632 0.0
C1151 C 0.51638 0.25353 0.78028 0.0
C1152 C 0.54039 0.26081 0.77696 0.0
C1153 C 0.47148 0.241 0.78717 0.0
C1154 C 0.47696 0.26435 0.78515 0.0
C1155 C 0.49907 0.27024 0.78125 0.0
C1156 C 0.4606 0.28283 0.78835 0.0
C1157 C 0.44761 0.23352 0.79066 0.0
C1158 C 0.45139 0.29754 0.77958 0.0
C1159 C 0.43413 0.31326 0.78268 0.0
C1160 C 0.42593 0.31441 0.79458 0.0
C1161 C 0.43641 0.30073 0.80344 0.0
C1162 C 0.45361 0.28519 0.80036 0.0
H1163 H 0.44453 0.21527 0.78828 0.0
H1164 H 0.44552 0.23529 0.80054 0.0
H1165 H 0.43441 0.24429 0.78618 0.0
H1166 H 0.45681 0.29615 0.77029 0.0
H1167 H 0.42634 0.32353 0.77566 0.0
H1168 H 0.9222 0.82071 0.46047 0.0
H1169 H 0.94458 0.78579 0.46459 0.0
H1170 H 0.97857 0.79294 0.43032 0.0
H1171 H 0.95674 0.82766 0.42623 0.0
H1172 H 0.94938 0.74441 0.45238 0.0
H1173 H 0.03233 0.79013 0.45373 0.0
H1174 H 0.00513 0.80491 0.4544 0.0
H1175 H 0.01695 0.79626 0.44013 0.0
C1176 C 0.93426 0.81464 0.45377 0.0
C1177 C 0.93789 0.82709 0.44309 0.0
C1178 C 0.94712 0.7948 0.45616 0.0
C1179 C 0.96375 0.78722 0.44792 0.0
C1180 C 0.96639 0.79891 0.43698 0.0
H1181 H 0.0229 0.66181 0.42924 0.0
H1182 H 0.00047 0.6961 0.43312 0.0
C1183 C 0.95372 0.81867 0.43462 0.0
C1184 C 0.97839 0.76699 0.45048 0.0
H1185 H 0.03425 0.74936 0.44976 0.0
C1186 C 0.96795 0.74553 0.45204 0.0
C1187 C 0.00264 0.76849 0.45037 0.0
C1188 C 0.01492 0.79124 0.4497 0.0
C1189 C 0.98108 0.72536 0.45253 0.0
C1190 C 0.00521 0.7267 0.45118 0.0
C1191 C 0.01574 0.74829 0.45059 0.0
C1192 C 0.0194 0.70598 0.44904 0.0
C1193 C 0.96892 0.70273 0.45419 0.0
C1194 C 0.03831 0.70065 0.45638 0.0
C1195 C 0.05151 0.68098 0.45409 0.0
C1196 C 0.04601 0.66647 0.4444 0.0
C1197 C 0.0275 0.67238 0.43688 0.0
C1198 C 0.01447 0.69193 0.43914 0.0
H1199 H 0.95261 0.70497 0.45923 0.0
H1200 H 0.96461 0.69551 0.44523 0.0
H1201 H 0.97984 0.6902 0.45907 0.0
H1202 H 0.04263 0.7115 0.46396 0.0
H1203 H 0.06567 0.67692 0.46003 0.0
H1204 H 0.581 0.78019 0.67952 0.0
H1205 H 0.54354 0.76254 0.68192 0.0
H1206 H 0.52868 0.80782 0.7116 0.0
H1207 H 0.56673 0.82558 0.70938 0.0
H1208 H 0.51811 0.76111 0.71619 0.0
H1209 H 0.48149 0.78957 0.67273 0.0
H1210 H 0.50877 0.77573 0.67098 0.0
H1211 H 0.50692 0.80235 0.67912 0.0
C1212 C 0.56979 0.78664 0.68651 0.0
C1213 C 0.5769 0.80441 0.69424 0.0
C1214 C 0.54828 0.77654 0.68784 0.0
C1215 C 0.53321 0.78404 0.69683 0.0
C1216 C 0.54006 0.80186 0.70455 0.0
H1217 H 0.39179 0.73901 0.69489 0.0
H1218 H 0.42677 0.76152 0.69655 0.0
C1219 C 0.56172 0.81207 0.70323 0.0
C1220 C 0.51061 0.77265 0.69821 0.0
H1221 H 0.46262 0.75819 0.6824 0.0
C1222 C 0.50579 0.76068 0.70889 0.0
C1223 C 0.4945 0.77228 0.6887 0.0
C1224 C 0.49805 0.78587 0.67728 0.0
C1225 C 0.48555 0.74773 0.71015 0.0
C1226 C 0.47002 0.7464 0.70038 0.0
C1227 C 0.47461 0.75895 0.68986 0.0
C1228 C 0.44858 0.7326 0.70082 0.0
C1229 C 0.48095 0.73579 0.72195 0.0
C1230 C 0.44902 0.70877 0.70287 0.0
C1231 C 0.42881 0.69577 0.70206 0.0
C1232 C 0.40799 0.70636 0.69895 0.0
C1233 C 0.4076 0.73025 0.69717 0.0
C1234 C 0.4276 0.74319 0.69814 0.0
H1235 H 0.4907 0.74378 0.72945 0.0
H1236 H 0.4624 0.73614 0.72421 0.0
H1237 H 0.48643 0.71761 0.72125 0.0
H1238 H 0.46508 0.70011 0.70469 0.0
H1239 H 0.42964 0.67739 0.70343 0.0
H1240 H 0.57785 0.18479 0.95243 0.0
H1241 H 0.56239 0.22351 0.95615 0.0
H1242 H 0.49365 0.19781 0.95142 0.0
H1243 H 0.50874 0.15956 0.94756 0.0
H1244 H 0.5296 0.24601 0.93761 0.0
H1245 H 0.49412 0.23751 0.98387 0.0
H1246 H 0.51781 0.22027 0.97851 0.0
H1247 H 0.48911 0.214 0.9737 0.0
C1248 C 0.55946 0.18742 0.95233 0.0
C1249 C 0.54453 0.16921 0.94961 0.0
C1250 C 0.55068 0.20946 0.95446 0.0
C1251 C 0.52689 0.21335 0.95417 0.0
C1252 C 0.51202 0.19506 0.95182 0.0
H1253 H 0.42996 0.32604 0.95715 0.0
H1254 H 0.44923 0.28852 0.95798 0.0
C1255 C 0.52073 0.17326 0.94953 0.0
C1256 C 0.51734 0.23674 0.9552 0.0
H1257 H 0.48274 0.27029 0.97267 0.0
C1258 C 0.51964 0.25152 0.94534 0.0
C1259 C 0.50395 0.24352 0.96518 0.0
C1260 C 0.50112 0.22811 0.97598 0.0
C1261 C 0.50838 0.27278 0.94504 0.0
C1262 C 0.49504 0.27971 0.95507 0.0
C1263 C 0.49296 0.26497 0.96501 0.0
C1264 C 0.48337 0.30232 0.95538 0.0
C1265 C 0.51019 0.28717 0.93377 0.0
C1266 C 0.49621 0.32247 0.95401 0.0
C1267 C 0.48529 0.34369 0.95336 0.0
C1268 C 0.46128 0.34533 0.95432 0.0
C1269 C 0.44845 0.32527 0.95631 0.0
C1270 C 0.45944 0.30388 0.9568 0.0
H1271 H 0.51498 0.27663 0.92583 0.0
H1272 H 0.49377 0.29605 0.9318 0.0
H1273 H 0.52373 0.30033 0.93503 0.0
H1274 H 0.51472 0.32177 0.95328 0.0
H1275 H 0.49574 0.35886 0.95206 0.0
H1276 H 0.10885 0.25906 0.20616 0.0
H1277 H 0.07384 0.2364 0.2074 0.0
H1278 H 0.03334 0.29819 0.20537 0.0
H1279 H 0.06861 0.32125 0.20448 0.0
H1280 H 0.01614 0.26719 0.22181 0.0
H1281 H 0.03409 0.22335 0.17849 0.0
H1282 H 0.05662 0.22004 0.18934 0.0
H1283 H 0.05011 0.24806 0.18346 0.0
C1284 C 0.09251 0.26791 0.206 0.0
C1285 C 0.09148 0.29196 0.20504 0.0
C1286 C 0.0725 0.25488 0.20666 0.0
C1287 C 0.05098 0.26552 0.20614 0.0
C1288 C 0.04981 0.28961 0.20567 0.0
H1289 H 0.91271 0.22712 0.19475 0.0
H1290 H 0.94959 0.24522 0.19844 0.0
C1291 C 0.06993 0.30276 0.20516 0.0
C1292 C 0.02979 0.2514 0.20582 0.0
H1293 H 0.00239 0.20964 0.18969 0.0
C1294 C 0.01316 0.25459 0.2148 0.0
C1295 C 0.02592 0.2349 0.19666 0.0
C1296 C 0.04251 0.2315 0.18638 0.0
C1297 C 0.99273 0.24181 0.21483 0.0
C1298 C 0.98888 0.22548 0.20566 0.0
C1299 C 0.00564 0.22194 0.19682 0.0
C1300 C 0.9664 0.21407 0.20419 0.0
C1301 C 0.97521 0.246 0.22457 0.0
C1302 C 0.96372 0.19039 0.20612 0.0
C1303 C 0.94242 0.17984 0.20406 0.0
C1304 C 0.92375 0.19282 0.19982 0.0
C1305 C 0.92671 0.21652 0.19793 0.0
C1306 C 0.94775 0.227 0.20011 0.0
H1307 H 0.98268 0.25534 0.23236 0.0
H1308 H 0.96098 0.25648 0.22085 0.0
H1309 H 0.96784 0.22953 0.22778 0.0
H1310 H 0.97807 0.18013 0.20917 0.0
H1311 H 0.94066 0.16157 0.2056 0.0
H1312 H 0.99155 0.65374 0.95105 0.0
H1313 H 0.00831 0.69169 0.95316 0.0
H1314 H 0.94776 0.71507 0.97178 0.0
H1315 H 0.93071 0.67667 0.96982 0.0
H1316 H 0.98994 0.73197 0.94384 0.0
H1317 H 0.0014 0.73709 0.99346 0.0
H1318 H 0.99661 0.71028 0.98571 0.0
H1319 H 0.97314 0.72958 0.98829 0.0
C1320 C 0.98172 0.66683 0.95567 0.0
C1321 C 0.9597 0.66213 0.96025 0.0
C1322 C 0.9914 0.68855 0.95687 0.0
C1323 C 0.9794 0.70613 0.96271 0.0
C1324 C 0.95747 0.7016 0.96741 0.0
H1325 H 0.011 0.84996 0.95357 0.0
H1326 H 0.99256 0.81263 0.95524 0.0
C1327 C 0.9477 0.67972 0.96621 0.0
C1328 C 0.98961 0.72939 0.96316 0.0
H1329 H 0.01116 0.77016 0.98215 0.0
C1330 C 0.99452 0.74034 0.95222 0.0
C1331 C 0.99582 0.74011 0.97411 0.0
C1332 C 0.99168 0.72866 0.98609 0.0
C1333 C 0.00546 0.76174 0.95189 0.0
C1334 C 0.01132 0.77268 0.96283 0.0
C1335 C 0.00654 0.76173 0.9738 0.0
C1336 C 0.02212 0.79567 0.96291 0.0
C1337 C 0.01102 0.77228 0.93982 0.0
C1338 C 0.04467 0.79868 0.96706 0.0
C1339 C 0.05537 0.82016 0.96616 0.0
C1340 C 0.04361 0.8389 0.9611 0.0
C1341 C 0.02072 0.83587 0.95737 0.0
C1342 C 0.0101 0.81453 0.95831 0.0
H1343 H 0.0106 0.75936 0.93248 0.0
H1344 H 0.99813 0.78571 0.93772 0.0
H1345 H 0.02822 0.78046 0.93995 0.0
H1346 H 0.05419 0.78429 0.97068 0.0
H1347 H 0.07295 0.82195 0.96916 0.0
H1348 H 0.93273 0.28201 0.69467 0.0
H1349 H 0.96701 0.26098 0.70027 0.0
H1350 H 0.96968 0.29713 0.73409 0.0
H1351 H 0.93487 0.31872 0.72846 0.0
H1352 H 0.01293 0.29227 0.72229 0.0
H1353 H 0.96835 0.20894 0.72517 0.0
H1354 H 0.96178 0.22333 0.71132 0.0
H1355 H 0.95322 0.236 0.72541 0.0
C1356 C 0.94053 0.28564 0.70331 0.0
C1357 C 0.93088 0.30186 0.71119 0.0
C1358 C 0.96009 0.27344 0.70653 0.0
C1359 C 0.97045 0.27695 0.71774 0.0
C1360 C 0.96165 0.29392 0.72546 0.0
H1361 H 0.08235 0.17602 0.72745 0.0
H1362 H 0.04831 0.19875 0.73289 0.0
C1363 C 0.94191 0.30631 0.72221 0.0
C1364 C 0.99071 0.26288 0.72098 0.0
H1365 H 0.00903 0.20728 0.72035 0.0
C1366 C 0.01206 0.27369 0.72219 0.0
C1367 C 0.98954 0.23862 0.72116 0.0
C1368 C 0.96693 0.22606 0.72083 0.0
C1369 C 0.03244 0.26084 0.72241 0.0
C1370 C 0.03137 0.23667 0.72112 0.0
C1371 C 0.00992 0.22581 0.72111 0.0
C1372 C 0.05201 0.22285 0.71819 0.0
C1373 C 0.05497 0.27336 0.72356 0.0
C1374 C 0.06483 0.22836 0.70792 0.0
C1375 C 0.08405 0.21549 0.70479 0.0
C1376 C 0.09085 0.19655 0.71179 0.0
C1377 C 0.07757 0.1905 0.72188 0.0
C1378 C 0.05823 0.20354 0.72504 0.0
H1379 H 0.05291 0.28942 0.72884 0.0
H1380 H 0.0682 0.26251 0.72796 0.0
H1381 H 0.06118 0.2782 0.71447 0.0
H1382 H 0.0599 0.24264 0.70223 0.0
H1383 H 0.09367 0.22053 0.69688 0.0
H1384 H 0.51415 0.36193 0.48228 0.0
H1385 H 0.49023 0.32876 0.487 0.0
H1386 H 0.5464 0.28371 0.47796 0.0
H1387 H 0.57073 0.31706 0.47375 0.0
H1388 H 0.47764 0.30034 0.47041 0.0
H1389 H 0.52019 0.24957 0.5059 0.0
H1390 H 0.52819 0.27886 0.50269 0.0
H1391 H 0.53964 0.25564 0.49383 0.0
C1392 C 0.52161 0.34494 0.4817 0.0
C1393 C 0.54424 0.34198 0.47763 0.0
C1394 C 0.50792 0.326 0.48438 0.0
C1395 C 0.51645 0.30367 0.48289 0.0
C1396 C 0.53953 0.30071 0.47948 0.0
H1397 H 0.47034 0.17575 0.46076 0.0
H1398 H 0.48953 0.21 0.46805 0.0
C1399 C 0.55343 0.31977 0.47701 0.0
C1400 C 0.50035 0.28388 0.48306 0.0
H1401 H 0.49404 0.22869 0.49284 0.0
C1402 C 0.48093 0.2849 0.47557 0.0
C1403 C 0.50456 0.26369 0.48979 0.0
C1404 C 0.52416 0.26196 0.4986 0.0
C1405 C 0.46647 0.26589 0.47405 0.0
C1406 C 0.47148 0.24532 0.48022 0.0
C1407 C 0.49022 0.24455 0.48815 0.0
C1408 C 0.45967 0.22367 0.47708 0.0
C1409 C 0.44678 0.26745 0.46527 0.0
C1410 C 0.43647 0.21983 0.47989 0.0
C1411 C 0.42528 0.20005 0.4757 0.0
C1412 C 0.43715 0.18406 0.46856 0.0
C1413 C 0.46054 0.18782 0.4661 0.0
C1414 C 0.47166 0.20732 0.47034 0.0
H1415 H 0.44641 0.28412 0.46043 0.0
H1416 H 0.44794 0.25341 0.45854 0.0
H1417 H 0.43033 0.2654 0.47018 0.0
H1418 H 0.42697 0.2323 0.48512 0.0
H1419 H 0.4073 0.19756 0.47779 0.0
H1420 H 0.41948 0.81321 0.23631 0.0
H1421 H 0.44658 0.78696 0.24622 0.0
H1422 H 0.49046 0.78973 0.21499 0.0
H1423 H 0.46348 0.81548 0.2051 0.0
H1424 H 0.45481 0.74425 0.23551 0.0
H1425 H 0.53689 0.78924 0.24257 0.0
H1426 H 0.50989 0.8043 0.2412 0.0
H1427 H 0.52542 0.79551 0.22796 0.0
C1428 C 0.43542 0.80897 0.23182 0.0
C1429 C 0.43949 0.81636 0.21997 0.0
C1430 C 0.45079 0.79388 0.23745 0.0
C1431 C 0.47064 0.78653 0.23139 0.0
C1432 C 0.47553 0.7955 0.21995 0.0
H1433 H 0.53568 0.677 0.20688 0.0
H1434 H 0.50703 0.70242 0.21565 0.0
C1435 C 0.46006 0.81017 0.21427 0.0
C1436 C 0.48421 0.76669 0.23576 0.0
H1437 H 0.53969 0.74847 0.23725 0.0
C1438 C 0.47332 0.74522 0.23634 0.0
C1439 C 0.5083 0.76789 0.23704 0.0
C1440 C 0.52076 0.79055 0.23729 0.0
C1441 C 0.48613 0.72483 0.23672 0.0
C1442 C 0.51033 0.72601 0.23644 0.0
C1443 C 0.5211 0.74751 0.23732 0.0
C1444 C 0.52452 0.7061 0.23274 0.0
C1445 C 0.47365 0.70218 0.23661 0.0
C1446 C 0.54357 0.69907 0.23956 0.0
C1447 C 0.55989 0.68415 0.23457 0.0
C1448 C 0.55756 0.67661 0.22262 0.0
C1449 C 0.53771 0.68239 0.21616 0.0
C1450 C 0.52129 0.69689 0.22119 0.0
H1451 H 0.45683 0.70359 0.24126 0.0
H1452 H 0.47028 0.69706 0.22715 0.0
H1453 H 0.48393 0.68849 0.24099 0.0
H1454 H 0.54652 0.70619 0.24843 0.0
H1455 H 0.57528 0.68026 0.23964 0.0
H1456 H 0.98661 0.34208 0.5408 0.0
H1457 H 0.00213 0.30362 0.53801 0.0
H1458 H 0.93365 0.27568 0.53825 0.0
H1459 H 0.9178 0.31452 0.54091 0.0
H1460 H 0.9679 0.25767 0.55608 0.0
H1461 H 0.99988 0.25704 0.50896 0.0
H1462 H 0.0063 0.28232 0.51761 0.0
H1463 H 0.97704 0.27576 0.51396 0.0
C1464 C 0.97477 0.32782 0.54006 0.0
C1465 C 0.95098 0.33127 0.54115 0.0
C1466 C 0.98369 0.30588 0.53838 0.0
C1467 C 0.96903 0.28689 0.53782 0.0
C1468 C 0.9452 0.29023 0.53855 0.0
H1469 H 0.003 0.14307 0.54772 0.0
H1470 H 0.98317 0.17931 0.54453 0.0
C1471 C 0.93618 0.31236 0.54005 0.0
C1472 C 0.97901 0.26357 0.53789 0.0
H1473 H 0.01307 0.22711 0.52178 0.0
C1474 C 0.9775 0.25078 0.54853 0.0
C1475 C 0.9919 0.25498 0.52811 0.0
C1476 C 0.99383 0.26811 0.51646 0.0
C1477 C 0.98907 0.22983 0.54981 0.0
C1478 C 0.00193 0.22108 0.54 0.0
C1479 C 0.00322 0.2338 0.52928 0.0
C1480 C 0.01398 0.19871 0.54076 0.0
C1481 C 0.98814 0.21778 0.56183 0.0
C1482 C 0.03785 0.19724 0.53904 0.0
C1483 C 0.04929 0.1763 0.54066 0.0
C1484 C 0.03701 0.15662 0.5441 0.0
C1485 C 0.01304 0.15803 0.54532 0.0
C1486 C 0.00164 0.17877 0.54354 0.0
H1487 H 0.98365 0.2298 0.56922 0.0
H1488 H 0.97475 0.20427 0.56154 0.0
H1489 H 0.00481 0.20955 0.56401 0.0
H1490 H 0.04768 0.21241 0.53679 0.0
H1491 H 0.06775 0.17568 0.53959 0.0
H1492 H 0.43418 0.17127 0.28763 0.0
H1493 H 0.47024 0.19134 0.2829 0.0
H1494 H 0.43331 0.25525 0.28006 0.0
H1495 H 0.39769 0.23553 0.28525 0.0
H1496 H 0.48755 0.22073 0.26476 0.0
H1497 H 0.47636 0.26671 0.30816 0.0
H1498 H 0.45882 0.24255 0.30396 0.0
H1499 H 0.45299 0.27055 0.29786 0.0
C1500 C 0.43379 0.18949 0.28571 0.0
C1501 C 0.41335 0.20198 0.28697 0.0
C1502 C 0.45433 0.20094 0.28303 0.0
C1503 C 0.45448 0.22488 0.28145 0.0
C1504 C 0.43366 0.23689 0.28157 0.0
H1505 H 0.56961 0.3215 0.28508 0.0
H1506 H 0.5319 0.30561 0.27969 0.0
C1507 C 0.41333 0.2256 0.28447 0.0
C1508 C 0.47644 0.23768 0.28096 0.0
H1509 H 0.50807 0.27731 0.29634 0.0
C1510 C 0.49202 0.23318 0.27162 0.0
C1511 C 0.48225 0.25391 0.28995 0.0
C1512 C 0.46685 0.25861 0.30061 0.0
C1513 C 0.51333 0.24443 0.27108 0.0
C1514 C 0.51918 0.26041 0.28016 0.0
C1515 C 0.50338 0.26529 0.28931 0.0
C1516 C 0.54252 0.27016 0.2813 0.0
C1517 C 0.52951 0.23902 0.26088 0.0
C1518 C 0.5609 0.25549 0.28388 0.0
C1519 C 0.58219 0.26446 0.28708 0.0
C1520 C 0.58559 0.28832 0.28776 0.0
C1521 C 0.56749 0.30306 0.28461 0.0
C1522 C 0.546 0.29402 0.28152 0.0
H1523 H 0.52019 0.23209 0.25295 0.0
H1524 H 0.53927 0.2545 0.25809 0.0
H1525 H 0.54198 0.22583 0.2639 0.0
H1526 H 0.55849 0.23707 0.28401 0.0
H1527 H 0.59585 0.25264 0.28938 0.0
H1528 H 0.48362 0.84113 0.03299 0.0
H1529 H 0.50341 0.80554 0.02831 0.0
H1530 H 0.43869 0.76974 0.02733 0.0
H1531 H 0.41852 0.80573 0.0321 0.0
H1532 H 0.47064 0.75166 0.04345 0.0
H1533 H 0.51155 0.76425 -0.00098 0.0
H1534 H 0.51636 0.78792 0.00902 0.0
H1535 H 0.48765 0.78145 0.00412 0.0
C1536 C 0.47348 0.8258 0.03155 0.0
C1537 C 0.44951 0.82615 0.03303 0.0
C1538 C 0.48484 0.80549 0.02873 0.0
C1539 C 0.47254 0.78504 0.02731 0.0
C1540 C 0.44847 0.78544 0.02826 0.0
H1541 H 0.52713 0.64701 0.03449 0.0
H1542 H 0.50273 0.67918 0.0287 0.0
C1543 C 0.43698 0.80595 0.03097 0.0
C1544 C 0.48529 0.76308 0.02672 0.0
H1545 H 0.52876 0.73565 0.0119 0.0
C1546 C 0.483 0.74788 0.03642 0.0
C1547 C 0.50168 0.75843 0.01764 0.0
C1548 C 0.50433 0.77379 0.0068 0.0
C1549 C 0.49735 0.72873 0.0376 0.0
C1550 C 0.51408 0.72429 0.02865 0.0
C1551 C 0.51598 0.73912 0.01876 0.0
C1552 C 0.52984 0.70443 0.02967 0.0
C1553 C 0.49514 0.71402 0.04874 0.0
C1554 C 0.55354 0.70773 0.03131 0.0
C1555 C 0.56771 0.68917 0.03441 0.0
C1556 C 0.55818 0.66727 0.03601 0.0
C1557 C 0.53481 0.66383 0.03348 0.0
C1558 C 0.52084 0.68217 0.0302 0.0
H1559 H 0.48569 0.72298 0.05605 0.0
H1560 H 0.4855 0.69818 0.04648 0.0
H1561 H 0.51227 0.70895 0.05221 0.0
H1562 H 0.56082 0.7248 0.03086 0.0
H1563 H 0.58567 0.69221 0.03632 0.0
H1564 H 0.8931 0.73604 0.79919 0.0
H1565 H 0.9282 0.75827 0.79718 0.0
H1566 H 0.9658 0.69653 0.78886 0.0
H1567 H 0.93026 0.67405 0.79054 0.0
H1568 H 0.96445 0.75351 0.81146 0.0
H1569 H 0.99128 0.74094 0.76403 0.0
H1570 H 0.96286 0.73383 0.76933 0.0
H1571 H 0.98643 0.71461 0.77203 0.0
C1572 C 0.90876 0.72715 0.79677 0.0
C1573 C 0.90896 0.70323 0.79512 0.0
C1574 C 0.92883 0.73994 0.7956 0.0
C1575 C 0.94964 0.72915 0.79281 0.0
C1576 C 0.94986 0.70532 0.79078 0.0
H1577 H 0.08307 0.77516 0.81345 0.0
H1578 H 0.04611 0.75664 0.81065 0.0
C1579 C 0.92959 0.69246 0.79182 0.0
C1580 C 0.97121 0.74269 0.79326 0.0
H1581 H 0.01889 0.75795 0.77723 0.0
C1582 C 0.97623 0.7546 0.80393 0.0
C1583 C 0.98647 0.74437 0.78339 0.0
C1584 C 0.98143 0.73294 0.7715 0.0
C1585 C 0.99625 0.76769 0.8051 0.0
C1586 C 0.01201 0.76854 0.79544 0.0
C1587 C 0.00681 0.75716 0.78464 0.0
C1588 C 0.03458 0.77994 0.79677 0.0
C1589 C 0.00039 0.7805 0.81671 0.0
C1590 C 0.04055 0.79904 0.78973 0.0
C1591 C 0.06188 0.8098 0.79129 0.0
C1592 C 0.07757 0.80145 0.79987 0.0
C1593 C 0.07144 0.78219 0.80681 0.0
C1594 C 0.05025 0.77155 0.80525 0.0
H1595 H 0.98415 0.78348 0.82171 0.0
H1596 H 0.01189 0.77021 0.82255 0.0
H1597 H 0.00873 0.79732 0.81499 0.0
H1598 H 0.02866 0.8057 0.7831 0.0
H1599 H 0.06613 0.82448 0.78575 0.0
H1600 H 0.34601 0.41146 0.97714 0.0
H1601 H 0.30819 0.40809 0.98661 0.0
H1602 H 0.30688 0.33589 0.97831 0.0
H1603 H 0.34462 0.33906 0.96876 0.0
H1604 H 0.26586 0.38976 0.97482 0.0
H1605 H 0.293 0.34129 0.01552 0.0
H1606 H 0.31279 0.35812 0.00665 0.0
H1607 H 0.30328 0.33068 0.0013 0.0
C1608 C 0.33776 0.39481 0.97738 0.0
C1609 C 0.34841 0.3755 0.97221 0.0
C1610 C 0.31612 0.39296 0.98277 0.0
C1611 C 0.30483 0.37172 0.98323 0.0
C1612 C 0.31542 0.35239 0.97815 0.0
H1613 H 0.17822 0.32054 0.01365 0.0
H1614 H 0.21542 0.3259 0.00396 0.0
C1615 C 0.33697 0.35426 0.97267 0.0
C1616 C 0.28177 0.36983 0.98882 0.0
H1617 H 0.25317 0.34615 0.01258 0.0
C1618 C 0.26303 0.38033 0.98311 0.0
C1619 C 0.27819 0.35745 -0.00041 0.0
C1620 C 0.29785 0.34633 0.00622 0.0
C1621 C 0.24066 0.37829 0.98774 0.0
C1622 C 0.23703 0.36592 -0.00144 0.0
C1623 C 0.25589 0.35561 0.0043 0.0
C1624 C 0.21383 0.36299 0.00398 0.0
C1625 C 0.22106 0.38878 0.98078 0.0
C1626 C 0.20042 0.38205 0.00725 0.0
C1627 C 0.17894 0.37902 0.0127 0.0
C1628 C 0.17061 0.35687 0.01518 0.0
C1629 C 0.18408 0.33785 0.01189 0.0
C1630 C 0.20541 0.34088 0.00636 0.0
H1631 H 0.22571 0.39174 0.97121 0.0
H1632 H 0.20561 0.37766 0.9811 0.0
H1633 H 0.21662 0.40562 0.9848 0.0
H1634 H 0.20674 0.3993 0.00579 0.0
H1635 H 0.16912 0.39404 0.01522 0.0
H1636 H 0.85072 0.07718 0.21682 0.0
H1637 H 0.85088 0.03945 0.22649 0.0
H1638 H 0.92307 0.04653 0.23398 0.0
H1639 H 0.92312 0.08432 0.22434 0.0
H1640 H 0.87912 1.00019 0.22017 0.0
H1641 H 0.89373 0.03006 0.26706 0.0
H1642 H 0.88358 0.04891 0.25531 0.0
H1643 H 0.9133 0.04094 0.25593 0.0
C1644 C 0.86664 0.0708 0.22057 0.0
C1645 C 0.8869 0.08387 0.21983 0.0
C1646 C 0.86669 0.04919 0.22607 0.0
C1647 C 0.88692 0.04028 0.23106 0.0
C1648 C 0.90719 0.05322 0.23034 0.0
H1649 H 0.91823 0.91563 0.27105 0.0
H1650 H 0.91971 0.95248 0.26055 0.0
C1651 C 0.90719 0.07479 0.22478 0.0
C1652 C 0.88687 0.01728 0.23684 0.0
H1653 H 0.89393 0.99004 0.26381 0.0
C1654 C 0.88231 0.99793 0.22971 0.0
C1655 C 0.89116 0.01439 0.24927 0.0
C1656 C 0.89556 0.03464 0.2574 0.0
C1657 C 0.88224 0.97571 0.23465 0.0
C1658 C 0.88623 0.9728 0.24714 0.0
C1659 C 0.89087 0.99221 0.25425 0.0
C1660 C 0.88554 0.94986 0.25307 0.0
C1661 C 0.87844 0.95555 0.22637 0.0
C1662 C 0.86582 0.93606 0.25241 0.0
C1663 C 0.865 0.91484 0.25832 0.0
C1664 C 0.88377 0.90712 0.26518 0.0
C1665 C 0.90347 0.921 0.26584 0.0
C1666 C 0.90434 0.94212 0.25986 0.0
H1667 H 0.88272 0.95991 0.2169 0.0
H1668 H 0.88892 0.94055 0.22914 0.0
H1669 H 0.86009 0.95055 0.22666 0.0
H1670 H 0.85085 0.94186 0.24752 0.0
H1671 H 0.84946 0.90472 0.25771 0.0
H1672 H 0.16006 0.59838 0.46836 0.0
H1673 H 0.19656 0.60048 0.47923 0.0
H1674 H 0.19412 0.67431 0.47773 0.0
H1675 H 0.15769 0.67243 0.46679 0.0
H1676 H 0.2386 0.62486 0.4705 0.0
H1677 H 0.20525 0.65709 0.51425 0.0
H1678 H 0.18728 0.64242 0.50347 0.0
H1679 H 0.19551 0.67168 0.50092 0.0
C1680 C 0.16718 0.61509 0.4704 0.0
C1681 C 0.15589 0.63525 0.46671 0.0
C1682 C 0.18808 0.61624 0.47659 0.0
C1683 C 0.19795 0.63754 0.47935 0.0
C1684 C 0.18667 0.6577 0.47579 0.0
H1685 H 0.31953 0.68148 0.51815 0.0
H1686 H 0.28331 0.67882 0.50716 0.0
C1687 C 0.16587 0.65658 0.4695 0.0
C1688 C 0.22037 0.6387 0.48568 0.0
H1689 H 0.24547 0.65477 0.51213 0.0
C1690 C 0.24015 0.63131 0.47962 0.0
C1691 C 0.22231 0.64725 0.49753 0.0
C1692 C 0.20149 0.65495 0.50451 0.0
C1693 C 0.26194 0.63266 0.48502 0.0
C1694 C 0.26391 0.64103 0.49695 0.0
C1695 C 0.24403 0.64834 0.503 0.0
C1696 C 0.28639 0.64256 0.50331 0.0
C1697 C 0.28267 0.62575 0.47773 0.0
C1698 C 0.30024 0.62305 0.50488 0.0
C1699 C 0.32114 0.62458 0.51106 0.0
C1700 C 0.32846 0.64558 0.51598 0.0
C1701 C 0.31447 0.66503 0.51447 0.0
C1702 C 0.2937 0.66353 0.5082 0.0
H1703 H 0.27912 0.62645 0.46791 0.0
H1704 H 0.29757 0.637 0.47971 0.0
H1705 H 0.28742 0.60784 0.48001 0.0
H1706 H 0.29475 0.60653 0.50149 0.0
H1707 H 0.33136 0.6092 0.51216 0.0
H1708 H 0.64085 0.09358 0.75634 0.0
H1709 H 0.64103 0.05863 0.74406 0.0
H1710 H 0.59951 0.02434 0.77067 0.0
H1711 H 0.59896 0.05914 0.78288 0.0
H1712 H 0.65729 0.01524 0.74981 0.0
H1713 H 0.56423 0.01179 0.73971 0.0
H1714 H 0.57792 0.03708 0.74573 0.0
H1715 H 0.5705 0.01361 0.7555 0.0
C1716 C 0.6316 0.07866 0.75954 0.0
C1717 C 0.61978 0.07926 0.77058 0.0
C1718 C 0.63177 0.05867 0.75252 0.0
C1719 C 0.62001 0.03893 0.75635 0.0
C1720 C 0.6083 0.03947 0.76738 0.0
H1721 H 0.64051 0.89856 0.7309 0.0
H1722 H 0.63929 0.93402 0.74272 0.0
C1723 C 0.60811 0.0594 0.7744 0.0
C1724 C 0.62047 0.01757 0.749 0.0
H1725 H 0.58603 0.97855 0.73482 0.0
C1726 C 0.64172 0.00726 0.74649 0.0
C1727 C 0.60017 0.00727 0.74455 0.0
C1728 C 0.57692 0.0181 0.74639 0.0
C1729 C 0.64319 0.98676 0.73985 0.0
C1730 C 0.62283 0.97605 0.73575 0.0
C1731 C 0.60162 0.98659 0.73808 0.0
C1732 C 0.62318 0.95427 0.72875 0.0
C1733 C 0.66657 0.97699 0.73709 0.0
C1734 C 0.6139 0.9536 0.71709 0.0
C1735 C 0.61441 0.93332 0.71036 0.0
C1736 C 0.62412 0.91317 0.71514 0.0
C1737 C 0.63301 0.91376 0.72691 0.0
C1738 C 0.63248 0.93408 0.73365 0.0
H1739 H 0.68029 0.99009 0.7381 0.0
H1740 H 0.67029 0.9628 0.74346 0.0
H1741 H 0.66724 0.97001 0.7278 0.0
H1742 H 0.60653 0.9689 0.71313 0.0
H1743 H 0.60735 0.93354 0.70134 0.0
H1744 H 0.6753 0.59734 0.02344 0.0
H1745 H 0.71252 0.59668 0.01326 0.0
H1746 H 0.71258 0.67061 0.01185 0.0
H1747 H 0.67568 0.67145 0.0223 0.0
H1748 H 0.72629 0.61214 0.99148 0.0
H1749 H 0.77401 0.65838 0.02718 0.0
H1750 H 0.74535 0.64755 0.02943 0.0
H1751 H 0.74986 0.67415 0.02156 0.0
C1752 C 0.68321 0.61348 0.02096 0.0
C1753 C 0.67257 0.63446 0.02379 0.0
C1754 C 0.70452 0.61307 0.01514 0.0
C1755 C 0.71563 0.6336 0.01201 0.0
C1756 C 0.70469 0.65455 0.01448 0.0
H1757 H 0.84297 0.66429 0.97411 0.0
H1758 H 0.80528 0.66598 0.98385 0.0
C1759 C 0.68348 0.65499 0.02038 0.0
C1760 C 0.73856 0.63304 0.0061 0.0
H1761 H 0.79389 0.65192 0.00881 0.0
C1762 C 0.74108 0.62076 0.9953 0.0
C1763 C 0.75792 0.64425 0.0111 0.0
C1764 C 0.75677 0.65664 0.02301 0.0
C1765 C 0.76228 0.61965 0.9893 0.0
C1766 C 0.78152 0.63099 0.99425 0.0
C1767 C 0.77905 0.64333 0.00501 0.0
C1768 C 0.80446 0.62995 0.98847 0.0
C1769 C 0.76391 0.60662 0.9776 0.0
C1770 C 0.81663 0.60921 0.98802 0.0
C1771 C 0.83823 0.6082 0.98254 0.0
C1772 C 0.84807 0.62794 0.97737 0.0
C1773 C 0.83589 0.64876 0.97796 0.0
C1774 C 0.81436 0.64977 0.98353 0.0
H1775 H 0.74673 0.60281 0.97377 0.0
H1776 H 0.774 0.61648 0.97088 0.0
H1777 H 0.77288 0.59011 0.97919 0.0
H1778 H 0.80942 0.59378 0.99192 0.0
H1779 H 0.8471 0.59189 0.98226 0.0
H1780 H 0.1429 0.90368 0.76781 0.0
H1781 H 0.14352 0.94109 0.75773 0.0
H1782 H 0.09695 0.96804 0.78434 0.0
H1783 H 0.09644 0.93092 0.79455 0.0
H1784 H 0.10803 0.96788 0.74789 0.0
H1785 H 0.15062 0.01318 0.78571 0.0
H1786 H 0.14933 0.9823 0.78477 0.0
H1787 H 0.12484 0.99831 0.78988 0.0
C1788 C 0.13271 0.91754 0.7715 0.0
C1789 C 0.11976 0.91431 0.78206 0.0
C1790 C 0.13309 0.93891 0.76572 0.0
C1791 C 0.12064 0.9575 0.77041 0.0
C1792 C 0.10712 0.95411 0.78071 0.0
H1793 H 0.10521 0.10141 0.75082 0.0
H1794 H 0.10228 0.06336 0.76004 0.0
C1795 C 0.10674 0.93279 0.7865 0.0
C1796 C 0.12187 0.98047 0.76459 0.0
H1797 H 0.13706 0.03628 0.76966 0.0
C1798 C 0.11446 0.98283 0.75263 0.0
C1799 C 0.13025 0.99997 0.77078 0.0
C1800 C 0.13942 0.99837 0.78346 0.0
C1801 C 0.1148 0.00423 0.74677 0.0
C1802 C 0.12317 0.02373 0.75297 0.0
C1803 C 0.13058 0.02136 0.76493 0.0
C1804 C 0.12465 0.04672 0.74719 0.0
C1805 C 0.10573 0.00585 0.73408 0.0
C1806 C 0.13842 0.05013 0.73698 0.0
C1807 C 0.14013 0.07185 0.73168 0.0
C1808 C 0.12821 0.09072 0.73653 0.0
C1809 C 0.11457 0.08729 0.74682 0.0
C1810 C 0.11288 0.06554 0.75212 0.0
H1811 H 0.09439 0.99114 0.73184 0.0
H1812 H 0.09601 0.02202 0.73272 0.0
H1813 H 0.12036 0.00569 0.72769 0.0
H1814 H 0.14808 0.03601 0.73317 0.0
H1815 H 0.1509 0.07384 0.7238 0.0
H1816 H 0.82011 0.35675 0.54711 0.0
H1817 H 0.7823 0.3561 0.53761 0.0
H1818 H 0.80848 0.39597 0.50795 0.0
H1819 H 0.84649 0.39659 0.51735 0.0
H1820 H 0.75495 0.39422 0.53161 0.0
H1821 H 0.77574 0.34223 0.49116 0.0
H1822 H 0.79425 0.34337 0.50418 0.0
H1823 H 0.79401 0.36663 0.49356 0.0
C1824 C 0.81793 0.36525 0.53852 0.0
C1825 C 0.8364 0.37668 0.53298 0.0
C1826 C 0.79627 0.36488 0.53311 0.0
C1827 C 0.7926 0.37575 0.522 0.0
C1828 C 0.811 0.3871 0.51641 0.0
H1829 H 0.67252 0.39583 0.47669 0.0
H1830 H 0.71102 0.39514 0.48544 0.0
C1831 C 0.8327 0.38753 0.52183 0.0
C1832 C 0.76931 0.37595 0.51656 0.0
H1833 H 0.73869 0.35891 0.4919 0.0
C1834 C 0.75136 0.38642 0.52294 0.0
C1835 C 0.76468 0.36586 0.50523 0.0
C1836 C 0.78311 0.3537 0.49815 0.0
C1837 C 0.72899 0.38739 0.51825 0.0
C1838 C 0.72429 0.37714 0.50696 0.0
C1839 C 0.74228 0.36673 0.50055 0.0
C1840 C 0.70087 0.37717 0.50163 0.0
C1841 C 0.71073 0.39989 0.52531 0.0
C1842 C 0.68237 0.36696 0.50771 0.0
C1843 C 0.66029 0.36742 0.50276 0.0
C1844 C 0.65627 0.3779 0.49154 0.0
C1845 C 0.67495 0.38767 0.48535 0.0
C1846 C 0.697 0.38727 0.49034 0.0
H1847 H 0.71832 0.41201 0.53192 0.0
H1848 H 0.69913 0.4096 0.51924 0.0
H1849 H 0.7003 0.38722 0.53037 0.0
H1850 H 0.68501 0.35858 0.5163 0.0
H1851 H 0.64638 0.35956 0.50773 0.0
H1852 H 0.40784 0.08667 0.27696 0.0
H1853 H 0.40709 0.04932 0.26705 0.0
H1854 H 0.33369 0.0545 0.26301 0.0
H1855 H 0.33438 0.09228 0.27266 0.0
H1856 H 0.38588 0.01073 0.27438 0.0
H1857 H 0.35243 0.03578 0.22947 0.0
H1858 H 0.36257 0.05657 0.24025 0.0
H1859 H 0.33444 0.04425 0.2418 0.0
C1860 C 0.39154 0.08002 0.27385 0.0
C1861 C 0.37118 0.09252 0.27557 0.0
C1862 C 0.39114 0.0586 0.2682 0.0
C1863 C 0.37038 0.04914 0.26416 0.0
C1864 C 0.34999 0.06163 0.2658 0.0
H1865 H 0.3451 0.91374 0.23164 0.0
H1866 H 0.3397 0.95046 0.24213 0.0
C1867 C 0.3504 0.0832 0.27137 0.0
C1868 C 0.37018 0.02582 0.25871 0.0
H1869 H 0.35684 0.996 0.23314 0.0
C1870 C 0.37949 0.00755 0.26537 0.0
C1871 C 0.36176 0.02158 0.24695 0.0
C1872 C 0.35242 0.04059 0.23914 0.0
C1873 C 0.38084 0.98531 0.26057 0.0
C1874 C 0.37276 0.98119 0.24878 0.0
C1875 C 0.36292 0.99924 0.24221 0.0
C1876 C 0.37586 0.95862 0.24284 0.0
C1877 C 0.391 0.96634 0.26811 0.0
C1878 C 0.39795 0.95112 0.23977 0.0
C1879 C 0.40108 0.93032 0.23375 0.0
C1880 C 0.38217 0.91651 0.2307 0.0
C1881 C 0.36003 0.9239 0.23393 0.0
C1882 C 0.3569 0.94489 0.23987 0.0
H1883 H 0.39158 0.97098 0.27781 0.0
H1884 H 0.381 0.95025 0.26706 0.0
H1885 H 0.40881 0.96294 0.26506 0.0
H1886 H 0.41279 0.96158 0.24187 0.0
H1887 H 0.41836 0.92518 0.23139 0.0
H1888 H 0.82941 0.90332 0.46725 0.0
H1889 H 0.79294 0.90389 0.47817 0.0
H1890 H 0.79518 0.83027 0.48152 0.0
H1891 H 0.83164 0.82946 0.47055 0.0
H1892 H 0.75089 0.87816 0.4712 0.0
H1893 H 0.78427 0.85567 0.51662 0.0
H1894 H 0.80237 0.86744 0.50495 0.0
H1895 H 0.7935 0.838 0.50425 0.0
C1896 C 0.82225 0.88723 0.47036 0.0
C1897 C 0.83352 0.86633 0.46803 0.0
C1898 C 0.80137 0.8876 0.47658 0.0
C1899 C 0.79145 0.86715 0.48073 0.0
C1900 C 0.80267 0.84627 0.4785 0.0
H1901 H 0.66905 0.83941 0.52351 0.0
H1902 H 0.70466 0.83642 0.51195 0.0
C1903 C 0.82348 0.84585 0.4722 0.0
C1904 C 0.76908 0.86766 0.48712 0.0
H1905 H 0.74417 0.85917 0.51458 0.0
C1906 C 0.74937 0.87403 0.48069 0.0
C1907 C 0.76717 0.86209 0.49946 0.0
C1908 C 0.78792 0.85554 0.50681 0.0
C1909 C 0.72771 0.87478 0.48625 0.0
C1910 C 0.72581 0.86967 0.49868 0.0
C1911 C 0.74557 0.86312 0.50507 0.0
C1912 C 0.70361 0.8713 0.50529 0.0
C1913 C 0.70703 0.88054 0.47866 0.0
C1914 C 0.69111 0.89191 0.50545 0.0
C1915 C 0.67061 0.89359 0.51195 0.0
C1916 C 0.66231 0.8748 0.51861 0.0
C1917 C 0.6749 0.8542 0.51847 0.0
C1918 C 0.6953 0.85248 0.51188 0.0
H1919 H 0.71014 0.87678 0.46899 0.0
H1920 H 0.69167 0.87081 0.48164 0.0
H1921 H 0.70329 0.89913 0.47947 0.0
H1922 H 0.69743 0.90688 0.50073 0.0
H1923 H 0.66151 0.90979 0.51196 0.0
H1924 H 0.35043 0.59734 0.72954 0.0
H1925 H 0.35305 0.56193 0.74125 0.0
H1926 H 0.40925 0.53918 0.719 0.0
H1927 H 0.40637 0.57431 0.70706 0.0
H1928 H 0.37837 0.50547 0.72224 0.0
H1929 H 0.39942 0.54398 0.76644 0.0
H1930 H 0.37349 0.55527 0.76009 0.0
H1931 H 0.40044 0.56018 0.75261 0.0
C1932 C 0.36349 0.58491 0.72719 0.0
C1933 C 0.37825 0.58875 0.71737 0.0
C1934 C 0.36505 0.56469 0.73395 0.0
C1935 C 0.38159 0.54798 0.73115 0.0
C1936 C 0.3964 0.55182 0.72138 0.0
H1937 H 0.41801 0.43399 0.77816 0.0
H1938 H 0.41779 0.4687 0.76582 0.0
C1939 C 0.39476 0.57197 0.71457 0.0
C1940 C 0.38295 0.52616 0.73811 0.0
H1941 H 0.38905 0.50445 0.76651 0.0
C1942 C 0.38083 0.50525 0.73191 0.0
C1943 C 0.38647 0.52579 0.75072 0.0
C1944 C 0.39032 0.54749 0.75785 0.0
C1945 C 0.38174 0.48408 0.73797 0.0
C1946 C 0.38432 0.48376 0.75065 0.0
C1947 C 0.38683 0.50465 0.75682 0.0
C1948 C 0.38473 0.46199 0.7577 0.0
C1949 C 0.38038 0.46228 0.73069 0.0
C1950 C 0.36623 0.44656 0.75727 0.0
C1951 C 0.3664 0.42653 0.76425 0.0
C1952 C 0.38494 0.42167 0.77195 0.0
C1953 C 0.40345 0.43714 0.77234 0.0
C1954 C 0.40334 0.45706 0.7653 0.0
H1955 H 0.38533 0.46524 0.72115 0.0
H1956 H 0.39166 0.44876 0.7345 0.0
H1957 H 0.36246 0.45587 0.73078 0.0
H1958 H 0.3514 0.4502 0.75172 0.0
H1959 H 0.35175 0.41512 0.76381 0.0
H1960 H 0.84254 0.14646 0.98875 0.0
H1961 H 0.80444 0.14317 0.9797 0.0
H1962 H 0.78207 0.10151 0.00955 0.0
H1963 H 0.82005 0.10493 0.01876 0.0
H1964 H 0.77944 0.10448 0.97267 0.0
H1965 H 0.73385 0.15255 0.00862 0.0
H1966 H 0.76469 0.15273 0.00718 0.0
H1967 H 0.75039 0.1285 0.01379 0.0
C1968 C 0.82956 0.13653 0.99339 0.0
C1969 C 0.83436 0.12609 0.00453 0.0
C1970 C 0.80777 0.13467 0.9882 0.0
C1971 C 0.79027 0.12244 0.99405 0.0
C1972 C 0.79516 0.11145 0.005 0.0
H1973 H 0.64613 0.09977 0.97535 0.0
H1974 H 0.68381 0.09939 0.98516 0.0
C1975 C 0.81695 0.1133 0.01021 0.0
C1976 C 0.76696 0.12125 0.98864 0.0
H1977 H 0.71092 0.1361 0.99333 0.0
C1978 C 0.76446 0.1114 0.97718 0.0
C1979 C 0.7474 0.13022 0.99455 0.0
C1980 C 0.74913 0.14178 0.00667 0.0
C1981 C 0.74295 0.11018 0.97151 0.0
C1982 C 0.72344 0.11944 0.97735 0.0
C1983 C 0.72588 0.12901 0.98887 0.0
C1984 C 0.7005 0.11991 0.97149 0.0
C1985 C 0.74125 0.0987 0.95937 0.0
C1986 C 0.69724 0.13195 0.96069 0.0
C1987 C 0.67577 0.13222 0.95508 0.0
C1988 C 0.65701 0.12055 0.96018 0.0
C1989 C 0.6602 0.10888 0.97115 0.0
C1990 C 0.68173 0.10864 0.97677 0.0
H1991 H 0.756 0.08706 0.9577 0.0
H1992 H 0.72512 0.08868 0.95858 0.0
H1993 H 0.74127 0.11202 0.95223 0.0
H1994 H 0.71134 0.1412 0.95659 0.0
H1995 H 0.67395 0.1415 0.94669 0.0
H1996 H 0.11654 0.56616 0.28601 0.0
H1997 H 0.11372 0.52904 0.2759 0.0
H1998 H 0.13262 0.56072 0.24226 0.0
H1999 H 0.13601 0.59789 0.25236 0.0
H2000 H 0.08738 0.51353 0.25718 0.0
H2001 H 0.17963 0.50979 0.24492 0.0
H2002 H 0.16837 0.5307 0.25532 0.0
H2003 H 0.16505 0.53476 0.23937 0.0
C2004 C 0.12003 0.5653 0.27645 0.0
C2005 C 0.12672 0.58501 0.27003 0.0
C2006 C 0.11839 0.54403 0.27067 0.0
C2007 C 0.12339 0.54196 0.25836 0.0
C2008 C 0.12923 0.56176 0.25182 0.0
H2009 H 0.13089 0.42286 0.21081 0.0
H2010 H 0.12794 0.46183 0.21889 0.0
C2011 C 0.13101 0.58304 0.2576 0.0
C2012 C 0.12279 0.51903 0.25247 0.0
H2013 H 0.15597 0.48011 0.23741 0.0
C2014 C 0.10238 0.50623 0.25286 0.0
C2015 C 0.14239 0.50945 0.24685 0.0
C2016 C 0.16517 0.52176 0.24666 0.0
C2017 C 0.10099 0.48422 0.24771 0.0
C2018 C 0.1206 0.47465 0.24215 0.0
C2019 C 0.14092 0.48753 0.24164 0.0
C2020 C 0.12071 0.45102 0.23712 0.0
C2021 C 0.07849 0.47148 0.24817 0.0
C2022 C 0.11758 0.43197 0.24468 0.0
C2023 C 0.11932 0.40967 0.2401 0.0
C2024 C 0.12428 0.40593 0.22786 0.0
C2025 C 0.12698 0.42508 0.22027 0.0
C2026 C 0.12534 0.44738 0.22487 0.0
H2027 H 0.06385 0.48322 0.24991 0.0
H2028 H 0.07532 0.46215 0.23962 0.0
H2029 H 0.07909 0.45869 0.25557 0.0
H2030 H 0.11439 0.43435 0.2542 0.0
H2031 H 0.11723 0.39536 0.24622 0.0
H2032 H 0.15368 0.16295 0.52997 0.0
H2033 H 0.19099 0.16573 0.51999 0.0
H2034 H 0.19026 0.09278 0.51355 0.0
H2035 H 0.15267 0.08997 0.52318 0.0
H2036 H 0.2312 0.14689 0.52594 0.0
H2037 H 0.20652 0.11578 0.48065 0.0
H2038 H 0.18557 0.1233 0.49192 0.0
H2039 H 0.19949 0.09573 0.49232 0.0
C2040 C 0.16134 0.14752 0.52632 0.0
C2041 C 0.15008 0.12626 0.52731 0.0
C2042 C 0.18272 0.14914 0.52063 0.0
C2043 C 0.19334 0.12954 0.51583 0.0
C2044 C 0.18219 0.10826 0.51688 0.0
H2045 H 0.32835 0.10325 0.48505 0.0
H2046 H 0.29104 0.10025 0.49513 0.0
C2047 C 0.16071 0.10667 0.52246 0.0
C2048 C 0.21645 0.13126 0.51016 0.0
H2049 H 0.2466 0.11905 0.48453 0.0
C2050 C 0.23449 0.14092 0.51686 0.0
C2051 C 0.22083 0.1235 0.49829 0.0
C2052 C 0.20203 0.11421 0.49033 0.0
C2053 C 0.25676 0.14274 0.51209 0.0
C2054 C 0.26112 0.13471 0.50031 0.0
C2055 C 0.24319 0.12503 0.4936 0.0
C2056 C 0.28412 0.13668 0.49469 0.0
C2057 C 0.27559 0.15296 0.51969 0.0
C2058 C 0.29256 0.15816 0.49113 0.0
C2059 C 0.31378 0.15994 0.4853 0.0
C2060 C 0.32702 0.14025 0.48298 0.0
C2061 C 0.31866 0.11877 0.48676 0.0
C2062 C 0.29732 0.117 0.49248 0.0
H2063 H 0.27037 0.15485 0.52926 0.0
H2064 H 0.29124 0.14214 0.51924 0.0
H2065 H 0.28007 0.17019 0.51613 0.0
H2066 H 0.28253 0.17353 0.49267 0.0
H2067 H 0.31967 0.17674 0.48251 0.0
H2068 H 0.66109 0.40232 0.27784 0.0
H2069 H 0.66063 0.44073 0.2689 0.0
H2070 H 0.58672 0.44116 0.27039 0.0
H2071 H 0.58704 0.40311 0.27959 0.0
H2072 H 0.6423 0.45645 0.24816 0.0
H2073 H 0.60132 0.5013 0.28645 0.0
H2074 H 0.61235 0.47247 0.28769 0.0
H2075 H 0.58452 0.47757 0.28119 0.0
C2076 C 0.64473 0.41061 0.2763 0.0
C2077 C 0.6241 0.39968 0.27953 0.0
C2078 C 0.6445 0.43259 0.27119 0.0
C2079 C 0.62367 0.44409 0.26921 0.0
C2080 C 0.60305 0.43297 0.27215 0.0
H2081 H 0.57763 0.56593 0.233 0.0
H2082 H 0.58237 0.52947 0.24358 0.0
C2083 C 0.60326 0.41109 0.27734 0.0
C2084 C 0.62341 0.46747 0.26379 0.0
H2085 H 0.60273 0.52183 0.26781 0.0
C2086 C 0.63389 0.47081 0.25253 0.0
C2087 C 0.61252 0.48628 0.2695 0.0
C2088 C 0.60225 0.48432 0.28193 0.0
C2089 C 0.63304 0.49217 0.24666 0.0
C2090 C 0.62155 0.51071 0.25222 0.0
C2091 C 0.61146 0.50754 0.26356 0.0
C2092 C 0.61893 0.53325 0.24615 0.0
C2093 C 0.6438 0.49463 0.23437 0.0
C2094 C 0.6379 0.54767 0.24427 0.0
C2095 C 0.63524 0.56867 0.23828 0.0
C2096 C 0.61356 0.57554 0.23402 0.0
C2097 C 0.59458 0.56116 0.23611 0.0
C2098 C 0.59723 0.54031 0.24217 0.0
H2099 H 0.64897 0.47781 0.23053 0.0
H2100 H 0.63169 0.50311 0.22807 0.0
H2101 H 0.6593 0.5056 0.23507 0.0
H2102 H 0.65476 0.54262 0.2474 0.0
H2103 H 0.6502 0.57932 0.23682 0.0
H2104 H 0.15292 0.89235 0.98983 0.0
H2105 H 0.19105 0.88996 -0.00097 0.0
H2106 H 0.21523 0.85032 0.96884 0.0
H2107 H 0.17733 0.85273 0.95953 0.0
H2108 H 0.21804 0.8509 0.00542 0.0
H2109 H 0.26072 0.90434 0.9706 0.0
H2110 H 0.22994 0.90322 0.97229 0.0
H2111 H 0.24488 0.88029 0.96485 0.0
C2112 C 0.16632 0.88303 0.98516 0.0
C2113 C 0.16207 0.87286 0.97389 0.0
C2114 C 0.1881 0.88169 0.99044 0.0
C2115 C 0.20608 0.8703 0.98453 0.0
C2116 C 0.20173 0.85958 0.97345 0.0
H2117 H 0.35152 0.85151 -0.00049 0.0
H2118 H 0.31284 0.85064 0.99095 0.0
C2119 C 0.17998 0.86087 0.96818 0.0
C2120 C 0.22943 0.86978 0.98988 0.0
H2121 H 0.28477 0.88679 0.98507 0.0
C2122 C 0.23263 0.85879 0.001 0.0
C2123 C 0.24845 0.88004 0.98408 0.0
C2124 C 0.2459 0.89282 0.97234 0.0
C2125 C 0.25443 0.85748 0.00638 0.0
C2126 C 0.27345 0.86785 0.00061 0.0
C2127 C 0.27022 0.87879 0.98948 0.0
C2128 C 0.2968 0.86785 0.00601 0.0
C2129 C 0.25695 0.84454 0.01807 0.0
C2130 C 0.30073 0.87801 0.01728 0.0
C2131 C 0.32281 0.87847 0.02222 0.0
C2132 C 0.3415 0.86897 0.01594 0.0
C2133 C 0.33754 0.85894 0.00461 0.0
C2134 C 0.31543 0.85844 -0.00031 0.0
H2135 H 0.24261 0.83228 0.01948 0.0
H2136 H 0.27338 0.83491 0.01835 0.0
H2137 H 0.25682 0.85691 0.02566 0.0
H2138 H 0.28676 0.88588 0.0222 0.0
H2139 H 0.32522 0.88648 0.03092 0.0
H2140 H 0.86347 0.40126 0.74053 0.0
H2141 H 0.86254 0.43703 0.75209 0.0
H2142 H 0.90116 0.47097 0.72418 0.0
H2143 H 0.90254 0.43529 0.71269 0.0
H2144 H 0.91725 0.48152 0.74656 0.0
H2145 H 0.82282 0.49278 0.74504 0.0
H2146 H 0.83174 0.46575 0.75122 0.0
H2147 H 0.83768 0.47226 0.7357 0.0
C2148 C 0.8718 0.41633 0.73685 0.0
C2149 C 0.88299 0.41538 0.72564 0.0
C2150 C 0.87111 0.43683 0.74344 0.0
C2151 C 0.88142 0.45685 0.73891 0.0
C2152 C 0.89297 0.45581 0.72784 0.0
H2153 H 0.85724 0.59653 0.7643 0.0
H2154 H 0.85988 0.56125 0.7524 0.0
C2155 C 0.89372 0.43535 0.72127 0.0
C2156 C 0.88045 0.47884 0.74572 0.0
H2157 H 0.8435 0.51826 0.7577 0.0
C2158 C 0.90112 0.48957 0.74897 0.0
C2159 C 0.85941 0.48958 0.74871 0.0
C2160 C 0.83664 0.47965 0.7449 0.0
C2161 C 0.90134 0.51048 0.75528 0.0
C2162 C 0.8803 0.5208 0.75864 0.0
C2163 C 0.85963 0.51028 0.75522 0.0
C2164 C 0.87933 0.54246 0.76574 0.0
C2165 C 0.92412 0.52153 0.75809 0.0
C2166 C 0.88928 0.54367 0.77723 0.0
C2167 C 0.88789 0.56383 0.78403 0.0
C2168 C 0.87633 0.58323 0.77954 0.0
C2169 C 0.86634 0.58198 0.76802 0.0
C2170 C 0.86779 0.56179 0.76122 0.0
H2171 H 0.9379 0.51517 0.75204 0.0
H2172 H 0.92312 0.54049 0.75726 0.0
H2173 H 0.92907 0.51729 0.76748 0.0
H2174 H 0.89784 0.52886 0.78104 0.0
H2175 H 0.89563 0.56407 0.79289 0.0
H2176 H 0.10903 0.33494 0.08233 0.0
H2177 H 0.12619 0.34467 0.10164 0.0
H2178 H 0.16512 0.39883 0.08485 0.0
H2179 H 0.14807 0.38887 0.06523 0.0
H2180 H 0.18938 0.37276 0.10352 0.0
H2181 H 0.10506 0.40453 0.11873 0.0
H2182 H 0.10268 0.37645 0.11223 0.0
H2183 H 0.11188 0.40018 0.10302 0.0
C2184 C 0.12156 0.34866 0.08268 0.0
C2185 C 0.12704 0.36132 0.07232 0.0
C2186 C 0.13125 0.35428 0.09373 0.0
C2187 C 0.14637 0.37288 0.0947 0.0
C2188 C 0.15324 0.38459 0.08426 0.0
H2189 H 0.15224 0.39003 0.17235 0.0
H2190 H 0.15438 0.40548 0.15183 0.0
C2191 C 0.14363 0.3788 0.07308 0.0
C2192 C 0.15376 0.38024 0.10683 0.0
H2193 H 0.13045 0.39036 0.1344 0.0
C2194 C 0.17669 0.37726 0.11026 0.0
C2195 C 0.1374 0.38702 0.11552 0.0
C2196 C 0.11293 0.3925 0.11216 0.0
C2197 C 0.18309 0.37825 0.12244 0.0
C2198 C 0.16594 0.38158 0.13133 0.0
C2199 C 0.14362 0.38733 0.12769 0.0
C2200 C 0.1694 0.37485 0.1441 0.0
C2201 C 0.20795 0.37472 0.12567 0.0
C2202 C 0.17752 0.35273 0.14666 0.0
C2203 C 0.17645 0.34399 0.1583 0.0
C2204 C 0.1668 0.35697 0.16769 0.0
C2205 C 0.15968 0.37957 0.16531 0.0
C2206 C 0.16095 0.38843 0.15359 0.0
H2207 H 0.21924 0.38306 0.1189 0.0
H2208 H 0.21207 0.38175 0.1347 0.0
H2209 H 0.21192 0.3561 0.12556 0.0
H2210 H 0.18337 0.34152 0.13952 0.0
H2211 H 0.18218 0.32654 0.15978 0.0
H2212 H 0.88926 0.9419 0.40608 0.0
H2213 H 0.87124 0.94562 0.38634 0.0
H2214 H 0.83185 0.88427 0.39315 0.0
H2215 H 0.84916 0.88117 0.41315 0.0
H2216 H 0.88121 0.91378 0.37084 0.0
H2217 H 0.78688 0.91944 0.37299 0.0
H2218 H 0.8049 0.92586 0.38578 0.0
H2219 H 0.79721 0.89664 0.38235 0.0
C2220 C 0.87603 0.92977 0.40353 0.0
C2221 C 0.87067 0.91115 0.41104 0.0
C2222 C 0.86573 0.93192 0.39227 0.0
C2223 C 0.85019 0.91524 0.38822 0.0
C2224 C 0.84339 0.89766 0.39614 0.0
H2225 H 0.82319 0.83734 0.32834 0.0
H2226 H 0.82119 0.85972 0.34676 0.0
C2227 C 0.85339 0.89578 0.40755 0.0
C2228 C 0.84518 0.91338 0.37516 0.0
H2229 H 0.80275 0.9014 0.35495 0.0
C2230 C 0.86399 0.91176 0.3673 0.0
C2231 C 0.82274 0.91064 0.37055 0.0
C2232 C 0.8018 0.91348 0.37836 0.0
C2233 C 0.86117 0.90576 0.3552 0.0
C2234 C 0.83883 0.90165 0.35073 0.0
C2235 C 0.81986 0.90463 0.35839 0.0
C2236 C 0.83541 0.89054 0.33888 0.0
C2237 C 0.88233 0.9021 0.34757 0.0
C2238 C 0.8431 0.90079 0.32817 0.0
C2239 C 0.84457 0.88787 0.31756 0.0
C2240 C 0.83821 0.8646 0.31756 0.0
C2241 C 0.82862 0.85511 0.32806 0.0
C2242 C 0.82726 0.86795 0.33861 0.0
H2243 H 0.89836 0.90261 0.35296 0.0
H2244 H 0.88148 0.88531 0.34287 0.0
H2245 H 0.88338 0.91578 0.34065 0.0
H2246 H 0.84911 0.91837 0.32816 0.0
H2247 H 0.85178 0.89574 0.30958 0.0
H2248 H 0.31521 0.64956 0.65509 0.0
H2249 H 0.31763 0.62866 0.63622 0.0
H2250 H 0.3657 0.58133 0.6522 0.0
H2251 H 0.36347 0.60252 0.67128 0.0
H2252 H 0.38279 0.60377 0.63284 0.0
H2253 H 0.29792 0.56931 0.62058 0.0
H2254 H 0.29561 0.59849 0.62552 0.0
H2255 H 0.30536 0.57679 0.63588 0.0
C2256 C 0.32585 0.63434 0.65471 0.0
C2257 C 0.33942 0.62786 0.6646 0.0
C2258 C 0.32696 0.62218 0.64394 0.0
C2259 C 0.34163 0.60325 0.64282 0.0
C2260 C 0.35407 0.59576 0.65293 0.0
H2261 H 0.4029 0.57355 0.57286 0.0
H2262 H 0.38825 0.5643 0.59291 0.0
C2263 C 0.35282 0.60788 0.6638 0.0
C2264 C 0.34726 0.59476 0.6306 0.0
H2265 H 0.32255 0.58064 0.60373 0.0
C2266 C 0.36979 0.598 0.62654 0.0
C2267 C 0.33021 0.58748 0.62239 0.0
C2268 C 0.30597 0.5826 0.62637 0.0
C2269 C 0.37538 0.59607 0.61433 0.0
C2270 C 0.35803 0.59002 0.60597 0.0
C2271 C 0.33579 0.58533 0.61014 0.0
C2272 C 0.3624 0.59093 0.59284 0.0
C2273 C 0.39942 0.60229 0.6104 0.0
C2274 C 0.35137 0.60762 0.58578 0.0
C2275 C 0.35934 0.61254 0.57418 0.0
C2276 C 0.37861 0.60102 0.56963 0.0
C2277 C 0.38818 0.58286 0.57626 0.0
C2278 C 0.3799 0.57762 0.58772 0.0
H2279 H 0.40917 0.61114 0.61763 0.0
H2280 H 0.4089 0.58644 0.608 0.0
H2281 H 0.39904 0.61364 0.60237 0.0
H2282 H 0.33774 0.618 0.58956 0.0
H2283 H 0.35172 0.62663 0.56923 0.0
H2284 H 0.6593 0.14847 0.83599 0.0
H2285 H 0.66293 0.12423 0.85336 0.0
H2286 H 0.65181 0.06423 0.83133 0.0
H2287 H 0.64685 0.08907 0.81363 0.0
H2288 H 0.62562 0.06092 0.84885 0.0
H2289 H 0.70573 0.08462 0.87023 0.0
H2290 H 0.69314 0.11167 0.8666 0.0
H2291 H 0.70049 0.09183 0.85466 0.0
C2292 C 0.65801 0.1301 0.83469 0.0
C2293 C 0.65244 0.12076 0.82341 0.0
C2294 C 0.6606 0.11608 0.8447 0.0
C2295 C 0.65828 0.09219 0.84373 0.0
C2296 C 0.65394 0.08258 0.83232 0.0
H2297 H 0.6325 0.07363 0.92016 0.0
H2298 H 0.65305 0.06238 0.90171 0.0
C2299 C 0.65104 0.09678 0.82222 0.0
C2300 C 0.65603 0.07857 0.855 0.0
H2301 H 0.67069 0.08536 0.88445 0.0
C2302 C 0.63606 0.06545 0.85657 0.0
C2303 C 0.67008 0.083 0.86514 0.0
C2304 C 0.69369 0.09331 0.86396 0.0
C2305 C 0.62779 0.06051 0.86812 0.0
C2306 C 0.63919 0.0699 0.87824 0.0
C2307 C 0.6612 0.07919 0.87671 0.0
C2308 C 0.62666 0.07471 0.8896 0.0
C2309 C 0.60597 0.04679 0.86931 0.0
C2310 C 0.6054 0.08595 0.88895 0.0
C2311 C 0.5937 0.09213 0.89935 0.0
C2312 C 0.60319 0.0878 0.91073 0.0
C2313 C 0.62479 0.07714 0.91148 0.0
C2314 C 0.63645 0.07059 0.90097 0.0
H2315 H 0.60587 0.03248 0.86271 0.0
H2316 H 0.60387 0.03961 0.8785 0.0
H2317 H 0.59105 0.05791 0.8672 0.0
H2318 H 0.59795 0.09047 0.88034 0.0
H2319 H 0.57728 0.10066 0.89844 0.0
H2320 H 0.19886 0.6596 0.32334 0.0
H2321 H 0.20034 0.64289 0.34346 0.0
H2322 H 0.14541 0.59667 0.33402 0.0
H2323 H 0.14437 0.61288 0.3137 0.0
H2324 H 0.16477 0.64801 0.35783 0.0
H2325 H 0.18429 0.55548 0.35485 0.0
H2326 H 0.19 0.57512 0.34263 0.0
H2327 H 0.16166 0.56348 0.34476 0.0
C2328 C 0.18754 0.64542 0.32545 0.0
C2329 C 0.17131 0.63769 0.31702 0.0
C2330 C 0.18847 0.63584 0.33693 0.0
C2331 C 0.17307 0.61847 0.34026 0.0
C2332 C 0.15782 0.60969 0.3316 0.0
H2333 H 0.0962 0.57648 0.39884 0.0
H2334 H 0.11886 0.5794 0.38053 0.0
C2335 C 0.15711 0.61908 0.32 0.0
C2336 C 0.17021 0.61257 0.35316 0.0
H2337 H 0.16336 0.56778 0.37263 0.0
C2338 C 0.16505 0.63051 0.36114 0.0
C2339 C 0.17053 0.58974 0.35745 0.0
C2340 C 0.17716 0.56989 0.34948 0.0
C2341 C 0.15867 0.62619 0.37308 0.0
C2342 C 0.15783 0.60326 0.37722 0.0
C2343 C 0.16414 0.58535 0.36943 0.0
C2344 C 0.147 0.59757 0.3889 0.0
C2345 C 0.15132 0.6461 0.38087 0.0
C2346 C 0.15579 0.60594 0.39982 0.0
C2347 C 0.1427 0.6045 0.41037 0.0
C2348 C 0.12071 0.59459 0.4101 0.0
C2349 C 0.11291 0.58457 0.39933 0.0
C2350 C 0.12592 0.58604 0.38885 0.0
H2351 H 0.14956 0.66228 0.37566 0.0
H2352 H 0.13465 0.64238 0.3853 0.0
H2353 H 0.1643 0.64895 0.38802 0.0
H2354 H 0.17223 0.61459 0.40006 0.0
H2355 H 0.14927 0.61218 0.41855 0.0
H2356 H 0.69626 0.84594 0.66031 0.0
H2357 H 0.70301 0.86498 0.64107 0.0
H2358 H 0.64747 0.91183 0.64852 0.0
H2359 H 0.64128 0.89329 0.66804 0.0
H2360 H 0.67008 0.86113 0.62513 0.0
H2361 H 0.69008 0.95319 0.6299 0.0
H2362 H 0.69356 0.93306 0.64214 0.0
H2363 H 0.66585 0.94531 0.63894 0.0
C2364 C 0.68608 0.86088 0.65803 0.0
C2365 C 0.66809 0.86805 0.66555 0.0
C2366 C 0.68999 0.87178 0.64705 0.0
C2367 C 0.67577 0.88984 0.64332 0.0
C2368 C 0.659 0.89826 0.65129 0.0
H2369 H 0.60445 0.93533 0.58471 0.0
H2370 H 0.62724 0.93196 0.60289 0.0
C2371 C 0.65535 0.88757 0.66241 0.0
C2372 C 0.67516 0.89632 0.63041 0.0
H2373 H 0.6707 0.942 0.61134 0.0
C2374 C 0.67089 0.87877 0.62205 0.0
C2375 C 0.67616 0.91931 0.62641 0.0
C2376 C 0.6819 0.93875 0.63482 0.0
C2377 C 0.66575 0.88366 0.61001 0.0
C2378 C 0.66534 0.90679 0.60614 0.0
C2379 C 0.67111 0.92427 0.61431 0.0
C2380 C 0.65488 0.91313 0.59445 0.0
C2381 C 0.65892 0.8641 0.60183 0.0
C2382 C 0.66338 0.90465 0.58347 0.0
C2383 C 0.65012 0.90626 0.57298 0.0
C2384 C 0.62831 0.91653 0.57337 0.0
C2385 C 0.62097 0.9269 0.58413 0.0
C2386 C 0.6341 0.92518 0.59455 0.0
H2387 H 0.65678 0.8477 0.6068 0.0
H2388 H 0.64256 0.86804 0.59715 0.0
H2389 H 0.6724 0.86152 0.59491 0.0
H2390 H 0.67964 0.89568 0.58316 0.0
H2391 H 0.65636 0.89836 0.56479 0.0
H2392 H 0.31584 0.37716 0.83196 0.0
H2393 H 0.31325 0.39738 0.85116 0.0
H2394 H 0.37918 0.42857 0.84446 0.0
H2395 H 0.38125 0.40905 0.82496 0.0
H2396 H 0.34378 0.38436 0.86706 0.0
H2397 H 0.3485 0.47867 0.86358 0.0
H2398 H 0.34015 0.46077 0.85105 0.0
H2399 H 0.37002 0.4652 0.85448 0.0
C2400 C 0.32922 0.38923 0.83435 0.0
C2401 C 0.34876 0.3916 0.82708 0.0
C2402 C 0.32775 0.40076 0.84531 0.0
C2403 C 0.34601 0.41447 0.84929 0.0
C2404 C 0.36463 0.41849 0.8415 0.0
H2405 H 0.4238 0.43828 0.90991 0.0
H2406 H 0.40275 0.4405 0.89109 0.0
C2407 C 0.36589 0.40726 0.83038 0.0
C2408 C 0.34805 0.41993 0.86228 0.0
H2409 H 0.36377 0.4619 0.88203 0.0
C2410 C 0.34749 0.40145 0.87039 0.0
C2411 C 0.35303 0.44217 0.86661 0.0
C2412 C 0.35273 0.46285 0.85847 0.0
C2413 C 0.35343 0.40423 0.88251 0.0
C2414 C 0.35966 0.42626 0.88672 0.0
C2415 C 0.35891 0.44504 0.87879 0.0
C2416 C 0.37049 0.4292 0.89868 0.0
C2417 C 0.35471 0.38318 0.89043 0.0
C2418 C 0.3591 0.42298 0.90934 0.0
C2419 C 0.37125 0.42133 0.92018 0.0
C2420 C 0.39489 0.42612 0.9205 0.0
C2421 C 0.4057 0.43412 0.90998 0.0
C2422 C 0.39363 0.4356 0.89919 0.0
H2423 H 0.35303 0.36702 0.8852 0.0
H2424 H 0.37122 0.38269 0.8954 0.0
H2425 H 0.34058 0.38368 0.89712 0.0
H2426 H 0.34111 0.41837 0.90916 0.0
H2427 H 0.36237 0.41541 0.92816 0.0
H2428 H 0.82479 0.15933 0.15466 0.0
H2429 H 0.81955 0.14071 0.13547 0.0
H2430 H 0.84998 0.0787 0.14948 0.0
H2431 H 0.856 0.09783 0.16895 0.0
H2432 H 0.87112 0.09086 0.13025 0.0
H2433 H 0.78041 0.09629 0.11839 0.0
H2434 H 0.7881 0.12399 0.12399 0.0
H2435 H 0.78989 0.09928 0.1338 0.0
C2436 C 0.83001 0.14157 0.15381 0.0
C2437 C 0.84119 0.13018 0.16328 0.0
C2438 C 0.82655 0.13072 0.14282 0.0
C2439 C 0.8339 0.10807 0.14101 0.0
C2440 C 0.84389 0.0961 0.15069 0.0
H2441 H 0.85053 0.09586 0.0619 0.0
H2442 H 0.83485 0.08228 0.08126 0.0
C2443 C 0.84741 0.10705 0.16179 0.0
C2444 C 0.83523 0.09932 0.12848 0.0
H2445 H 0.80795 0.10751 0.10163 0.0
C2446 C 0.857 0.09346 0.12404 0.0
C2447 C 0.81683 0.10204 0.12026 0.0
C2448 C 0.79248 0.10547 0.12444 0.0
C2449 C 0.86155 0.09381 0.11167 0.0
C2450 C 0.84402 0.10054 0.10363 0.0
C2451 C 0.82154 0.10302 0.10787 0.0
C2452 C 0.85001 0.10974 0.09166 0.0
C2453 C 0.88566 0.08921 0.10738 0.0
C2454 C 0.86262 0.13017 0.09112 0.0
C2455 C 0.8715 0.13786 0.08023 0.0
C2456 C 0.86775 0.12537 0.06961 0.0
C2457 C 0.85355 0.10585 0.06996 0.0
C2458 C 0.84474 0.09801 0.08098 0.0
H2459 H 0.8949 0.0776 0.11366 0.0
H2460 H 0.88565 0.08146 0.09825 0.0
H2461 H 0.89525 0.10565 0.10697 0.0
H2462 H 0.86652 0.13964 0.09926 0.0
H2463 H 0.88222 0.15304 0.08021 0.0
H2464 H 0.82688 0.65034 0.84332 0.0
H2465 H 0.83234 0.62885 0.86187 0.0
H2466 H 0.86862 0.57623 0.84233 0.0
H2467 H 0.86352 0.59796 0.82357 0.0
H2468 H 0.82356 0.58343 0.8704 0.0
H2469 H 0.91667 0.60343 0.86557 0.0
H2470 H 0.8952 0.61684 0.85625 0.0
H2471 H 0.90343 0.5876 0.85356 0.0
C2472 C 0.83573 0.63402 0.84289 0.0
C2473 C 0.84521 0.62608 0.83202 0.0
C2474 C 0.83866 0.62167 0.8535 0.0
C2475 C 0.85118 0.60117 0.85349 0.0
C2476 C 0.85915 0.59221 0.84252 0.0
H2477 H 0.92051 0.55572 0.91831 0.0
H2478 H 0.90301 0.55286 0.89843 0.0
C2479 C 0.85619 0.6046 0.83183 0.0
C2480 C 0.85827 0.59125 0.86516 0.0
H2481 H 0.90453 0.58815 0.88382 0.0
C2482 C 0.84132 0.58399 0.8733 0.0
C2483 C 0.88143 0.59216 0.86891 0.0
C2484 C 0.90029 0.60054 0.86069 0.0
C2485 C 0.84686 0.57829 0.88524 0.0
C2486 C 0.86985 0.58035 0.88915 0.0
C2487 C 0.88689 0.58653 0.88082 0.0
C2488 C 0.87671 0.57819 0.90195 0.0
C2489 C 0.82801 0.57046 0.89358 0.0
C2490 C 0.86723 0.59278 0.91072 0.0
C2491 C 0.87707 0.59424 0.92219 0.0
C2492 C 0.89682 0.5815 0.92493 0.0
C2493 C 0.90542 0.56593 0.91639 0.0
C2494 C 0.89539 0.56421 0.90504 0.0
H2495 H 0.81387 0.56211 0.8885 0.0
H2496 H 0.83454 0.55826 0.90045 0.0
H2497 H 0.82072 0.58559 0.89828 0.0
H2498 H 0.85317 0.60415 0.90847 0.0
H2499 H 0.8702 0.60647 0.92858 0.0
H2500 H 0.13811 0.10284 0.5734 0.0
H2501 H 0.16053 0.10337 0.59208 0.0
H2502 H 0.10545 0.06875 0.61059 0.0
H2503 H 0.08315 0.06801 0.5921 0.0
H2504 H 0.14359 0.12686 0.61161 0.0
H2505 H 0.16157 0.03727 0.62486 0.0
H2506 H 0.15431 0.0453 0.60961 0.0
H2507 H 0.13213 0.04139 0.6207 0.0
C2508 C 0.13106 0.09483 0.58138 0.0
C2509 C 0.10876 0.08564 0.58133 0.0
C2510 C 0.1439 0.09507 0.59203 0.0
C2511 C 0.13477 0.08581 0.60268 0.0
C2512 C 0.11307 0.0755 0.60243 0.0
H2513 H 0.13272 0.10585 0.67763 0.0
H2514 H 0.13161 0.08918 0.65735 0.0
C2515 C 0.10021 0.07538 0.59186 0.0
C2516 C 0.14574 0.09041 0.61443 0.0
H2517 H 0.16035 0.06512 0.64108 0.0
C2518 C 0.14786 0.11338 0.61797 0.0
C2519 C 0.15097 0.07276 0.62272 0.0
C2520 C 0.14984 0.04779 0.61924 0.0
C2521 C 0.15359 0.11925 0.6298 0.0
C2522 C 0.15803 0.1016 0.63825 0.0
C2523 C 0.15695 0.07859 0.63458 0.0
C2524 C 0.16196 0.10699 0.6511 0.0
C2525 C 0.15334 0.14431 0.6333 0.0
C2526 C 0.18011 0.12139 0.65446 0.0
C2527 C 0.18045 0.13125 0.66589 0.0
C2528 C 0.16303 0.1263 0.67423 0.0
C2529 C 0.14632 0.10989 0.67134 0.0
C2530 C 0.14569 0.10039 0.65977 0.0
H2531 H 0.14457 0.15511 0.62647 0.0
H2532 H 0.1446 0.1468 0.64208 0.0
H2533 H 0.17124 0.15056 0.63416 0.0
H2534 H 0.19312 0.12625 0.64798 0.0
H2535 H 0.19369 0.14366 0.668 0.0
H2536 H 0.64152 0.3998 0.43456 0.0
H2537 H 0.65918 0.40021 0.41446 0.0
H2538 H 0.59485 0.37887 0.39887 0.0
H2539 H 0.57714 0.37898 0.41864 0.0
H2540 H 0.66558 0.36695 0.39841 0.0
H2541 H 0.61027 0.43187 0.3774 0.0
H2542 H 0.61131 0.42786 0.39352 0.0
H2543 H 0.59244 0.41064 0.38434 0.0
C2544 C 0.6312 0.39525 0.42682 0.0
C2545 C 0.60789 0.38956 0.42817 0.0
C2546 C 0.64126 0.39562 0.41535 0.0
C2547 C 0.62812 0.39034 0.40512 0.0
C2548 C 0.60509 0.38394 0.40656 0.0
H2549 H 0.6438 0.31403 0.34498 0.0
H2550 H 0.64514 0.33278 0.3644 0.0
C2551 C 0.59504 0.38374 0.41792 0.0
C2552 C 0.63839 0.38974 0.39293 0.0
H2553 H 0.62446 0.40159 0.36379 0.0
C2554 C 0.65703 0.37505 0.39085 0.0
C2555 C 0.6279 0.40096 0.38306 0.0
C2556 C 0.60956 0.41892 0.38474 0.0
C2557 C 0.66361 0.36922 0.3791 0.0
C2558 C 0.65072 0.37773 0.36927 0.0
C2559 C 0.63396 0.39454 0.37132 0.0
C2560 C 0.65166 0.36673 0.35725 0.0
C2561 C 0.68362 0.35314 0.3774 0.0
C2562 C 0.65392 0.3797 0.34665 0.0
C2563 C 0.65271 0.36897 0.33537 0.0
C2564 C 0.64913 0.34515 0.33457 0.0
C2565 C 0.64681 0.33236 0.34522 0.0
C2566 C 0.64787 0.34304 0.3564 0.0
H2567 H 0.69687 0.35611 0.38441 0.0
H2568 H 0.67761 0.33517 0.37836 0.0
H2569 H 0.69162 0.35523 0.36839 0.0
H2570 H 0.65646 0.39808 0.3471 0.0
H2571 H 0.65453 0.37929 0.32732 0.0
H2572 H 0.41625 0.8761 0.08975 0.0
H2573 H 0.39953 0.88548 0.10919 0.0
H2574 H 0.33991 0.91371 0.09164 0.0
H2575 H 0.35667 0.9042 0.07186 0.0
H2576 H 0.38259 0.93673 0.11441 0.0
H2577 H 0.32056 0.86509 0.1207 0.0
H2578 H 0.34556 0.8599 0.11153 0.0
H2579 H 0.32402 0.8796 0.10643 0.0
C2580 C 0.39947 0.88409 0.08997 0.0
C2581 C 0.38783 0.88955 0.07928 0.0
C2582 C 0.38997 0.88947 0.10108 0.0
C2583 C 0.36867 0.90047 0.10179 0.0
C2584 C 0.35644 0.90526 0.09121 0.0
H2585 H 0.34255 0.89211 0.17865 0.0
H2586 H 0.33266 0.91006 0.15927 0.0
C2587 C 0.36595 0.89971 0.07997 0.0
C2588 C 0.36034 0.90724 0.11381 0.0
H2589 H 0.33668 0.88159 0.13836 0.0
C2590 C 0.37173 0.92532 0.11962 0.0
C2591 C 0.34601 0.89252 0.1205 0.0
C2592 C 0.33317 0.87319 0.11452 0.0
C2593 C 0.37147 0.9272 0.13219 0.0
C2594 C 0.35973 0.91046 0.13901 0.0
C2595 C 0.3458 0.89435 0.1331 0.0
C2596 C 0.36643 0.90545 0.15157 0.0
C2597 C 0.38548 0.94574 0.13813 0.0
C2598 C 0.38879 0.89748 0.15371 0.0
C2599 C 0.39427 0.88693 0.16458 0.0
C2600 C 0.3776 0.88451 0.17357 0.0
C2601 C 0.35576 0.89417 0.17187 0.0
C2602 C 0.35008 0.90432 0.16083 0.0
H2603 H 0.38624 0.96133 0.13239 0.0
H2604 H 0.37832 0.95041 0.14706 0.0
H2605 H 0.4033 0.9395 0.13941 0.0
H2606 H 0.40153 0.89771 0.14661 0.0
H2607 H 0.41113 0.87938 0.16567 0.0
H2608 H 0.86333 0.34104 0.6603 0.0
H2609 H 0.85882 0.36402 0.64239 0.0
H2610 H 0.84551 0.42393 0.66412 0.0
H2611 H 0.85085 0.40073 0.68246 0.0
H2612 H 0.8226 0.38876 0.6338 0.0
H2613 H 0.89745 0.44589 0.64279 0.0
H2614 H 0.8926 0.4207 0.65186 0.0
H2615 H 0.87401 0.4451 0.65331 0.0
C2616 C 0.85939 0.35908 0.66137 0.0
C2617 C 0.85754 0.36906 0.67284 0.0
C2618 C 0.85666 0.37223 0.65107 0.0
C2619 C 0.85178 0.39572 0.65186 0.0
C2620 C 0.8495 0.40587 0.66329 0.0
H2621 H 0.8627 0.42127 0.57396 0.0
H2622 H 0.84353 0.42888 0.5933 0.0
C2623 C 0.85253 0.39262 0.67374 0.0
C2624 C 0.85076 0.40892 0.64047 0.0
H2625 H 0.88679 0.4403 0.62281 0.0
C2626 C 0.83616 0.40065 0.63139 0.0
C2627 C 0.86812 0.42483 0.63743 0.0
C2628 C 0.88403 0.43472 0.6468 0.0
C2629 C 0.84087 0.40469 0.61918 0.0
C2630 C 0.86016 0.41818 0.61609 0.0
C2631 C 0.8723 0.42958 0.62524 0.0
C2632 C 0.8715 0.41589 0.60418 0.0
C2633 C 0.82686 0.39229 0.60979 0.0
C2634 C 0.8937 0.40662 0.60387 0.0
C2635 C 0.9047 0.40271 0.59297 0.0
C2636 C 0.8937 0.40768 0.58204 0.0
C2637 C 0.87146 0.41705 0.58227 0.0
C2638 C 0.8605 0.42137 0.59329 0.0
H2639 H 0.81379 0.38077 0.61385 0.0
H2640 H 0.81781 0.405 0.60408 0.0
H2641 H 0.83818 0.38187 0.6039 0.0
H2642 H 0.90246 0.40196 0.61212 0.0
H2643 H 0.92178 0.39539 0.59313 0.0
H2644 H 0.38554 0.14463 0.34041 0.0
H2645 H 0.37773 0.12612 0.35969 0.0
H2646 H 0.31528 0.09743 0.34532 0.0
H2647 H 0.3235 0.11548 0.32574 0.0
H2648 H 0.31185 0.12884 0.36644 0.0
H2649 H 0.37438 0.05876 0.37346 0.0
H2650 H 0.38678 0.08346 0.3663 0.0
H2651 H 0.3647 0.06753 0.35868 0.0
C2652 C 0.37059 0.13368 0.34124 0.0
C2653 C 0.35514 0.13138 0.33166 0.0
C2654 C 0.36618 0.12305 0.35222 0.0
C2655 C 0.34602 0.11028 0.35387 0.0
C2656 C 0.33106 0.10697 0.34413 0.0
H2657 H 0.35063 0.08952 0.43168 0.0
H2658 H 0.33263 0.08062 0.41218 0.0
C2659 C 0.3358 0.11721 0.33299 0.0
C2660 C 0.33934 0.10412 0.36627 0.0
H2661 H 0.3634 0.08054 0.3913 0.0
C2662 C 0.32244 0.11755 0.37187 0.0
C2663 C 0.35298 0.08925 0.37329 0.0
C2664 C 0.37059 0.07374 0.36761 0.0
C2665 C 0.32093 0.11869 0.38445 0.0
C2666 C 0.33665 0.10607 0.39149 0.0
C2667 C 0.35144 0.09036 0.38587 0.0
C2668 C 0.34206 0.11291 0.40397 0.0
C2669 C 0.30395 0.1349 0.39013 0.0
C2670 C 0.35282 0.13416 0.40581 0.0
C2671 C 0.36342 0.139 0.41675 0.0
C2672 C 0.36304 0.12287 0.4261 0.0
C2673 C 0.35073 0.10235 0.42463 0.0
C2674 C 0.34055 0.09723 0.41352 0.0
H2675 H 0.28871 0.13736 0.38426 0.0
H2676 H 0.29824 0.12851 0.39906 0.0
H2677 H 0.31221 0.15188 0.39141 0.0
H2678 H 0.35458 0.14629 0.39848 0.0
H2679 H 0.37306 0.1548 0.41768 0.0
H2680 H 0.59449 0.62029 0.16785 0.0
H2681 H 0.60747 0.6054 0.1485 0.0
H2682 H 0.67405 0.59111 0.16369 0.0
H2683 H 0.66076 0.60555 0.18329 0.0
H2684 H 0.673 0.62351 0.14412 0.0
H2685 H 0.62638 0.54426 0.13218 0.0
H2686 H 0.60796 0.56497 0.13922 0.0
H2687 H 0.63145 0.55285 0.1476 0.0
C2688 C 0.61153 0.61297 0.1672 0.0
C2689 C 0.6266 0.61388 0.17701 0.0
C2690 C 0.61894 0.60442 0.15615 0.0
C2691 C 0.64167 0.59699 0.15468 0.0
C2692 C 0.65636 0.59648 0.1647 0.0
H2693 H 0.6517 0.58679 0.07629 0.0
H2694 H 0.66761 0.57855 0.09635 0.0
C2695 C 0.64874 0.60461 0.17587 0.0
C2696 C 0.65062 0.59427 0.14231 0.0
H2697 H 0.63465 0.57061 0.11557 0.0
C2698 C 0.66537 0.61137 0.1379 0.0
C2699 C 0.6409 0.57832 0.13422 0.0
C2700 C 0.62596 0.55891 0.13857 0.0
C2701 C 0.66828 0.61466 0.12549 0.0
C2702 C 0.65616 0.60049 0.11738 0.0
C2703 C 0.6438 0.58162 0.12181 0.0
C2704 C 0.65165 0.60786 0.10487 0.0
C2705 C 0.68278 0.63439 0.12113 0.0
C2706 C 0.63794 0.62732 0.10301 0.0
C2707 C 0.62858 0.63176 0.09172 0.0
C2708 C 0.63308 0.61703 0.08203 0.0
C2709 C 0.64831 0.59858 0.08361 0.0
C2710 C 0.6573 0.59381 0.09504 0.0
H2711 H 0.69651 0.63858 0.12771 0.0
H2712 H 0.69073 0.63047 0.11228 0.0
H2713 H 0.67178 0.64981 0.12008 0.0
H2714 H 0.63302 0.63813 0.11052 0.0
H2715 H 0.61673 0.64596 0.09071 0.0
H2716 H 0.18959 0.8521 0.83766 0.0
H2717 H 0.1915 0.87055 0.8574 0.0
H2718 H 0.12998 0.90862 0.84925 0.0
H2719 H 0.12864 0.89094 0.82921 0.0
H2720 H 0.16045 0.93251 0.8647 0.0
H2721 H 0.14423 0.84314 0.88019 0.0
H2722 H 0.17032 0.84699 0.87186 0.0
H2723 H 0.14311 0.85113 0.86454 0.0
C2724 C 0.17694 0.865 0.83994 0.0
C2725 C 0.15877 0.86991 0.83205 0.0
C2726 C 0.178 0.87545 0.85122 0.0
C2727 C 0.1605 0.89038 0.8549 0.0
C2728 C 0.14358 0.897 0.84659 0.0
H2729 H 0.08742 0.93164 0.91557 0.0
H2730 H 0.10828 0.9308 0.89662 0.0
C2731 C 0.14281 0.88692 0.83516 0.0
C2732 C 0.15776 0.89614 0.86779 0.0
H2733 H 0.14506 0.87167 0.89488 0.0
C2734 C 0.15737 0.91924 0.87135 0.0
C2735 C 0.15367 0.87874 0.87644 0.0
C2736 C 0.15264 0.85363 0.8731 0.0
C2737 C 0.15246 0.92541 0.8833 0.0
C2738 C 0.14763 0.90802 0.89182 0.0
C2739 C 0.14903 0.88495 0.88836 0.0
C2740 C 0.13783 0.913 0.90382 0.0
C2741 C 0.15205 0.95046 0.88666 0.0
C2742 C 0.1476 0.90345 0.91424 0.0
C2743 C 0.13556 0.90372 0.92514 0.0
C2744 C 0.11344 0.91326 0.92571 0.0
C2745 C 0.10435 0.92399 0.91542 0.0
C2746 C 0.11641 0.92381 0.90459 0.0
H2747 H 0.16356 0.96065 0.88074 0.0
H2748 H 0.13437 0.95717 0.88552 0.0
H2749 H 0.15728 0.95307 0.89617 0.0
H2750 H 0.16402 0.8948 0.9138 0.0
H2751 H 0.14302 0.89535 0.93292 0.0
loop_
_geom_bond_atom_site_label_1
_geom_bond_atom_site_label_2
_geom_bond_distance
_geom_bond_site_symmetry_2
_ccdc_geom_bond_type
Zn0 O3 2.031 . S
Zn0 O5 2.049 . S
Zn0 O10 2.067 . S
Zn1 O2 1.962 . S
Zn1 O4 1.986 . S
Zn1 O6 1.996 . S
Zn1 O9 1.943 . S
O2 Zn1 1.962 . S
O2 C7 1.254 . S
O3 Zn0 2.031 . S
O3 C7 1.269 . S
O4 Zn1 1.986 . S
O4 C11 1.262 . S
O5 Zn0 2.049 . S
O5 C13 1.260 . S
O6 Zn1 1.996 . S
O6 C13 1.257 . S
C7 O2 1.254 . S
C7 O3 1.269 . S
C8 O9 1.249 . S
C8 O10 1.270 . S
O9 Zn1 1.943 . S
O9 C8 1.249 . S
O10 Zn0 2.067 . S
O10 C8 1.270 . S
C11 O4 1.262 . S
C11 O12 1.232 . S
O12 C11 1.232 . S
C13 O5 1.260 . S
C13 O6 1.257 . S
Zn14 O17 2.031 . S
Zn14 O19 2.049 . S
Zn14 O24 2.067 . S
Zn15 O16 1.962 . S
Zn15 O18 1.986 . S
Zn15 O20 1.996 . S
Zn15 O23 1.943 . S
O16 Zn15 1.962 . S
O16 C21 1.254 . S
O17 Zn14 2.031 . S
O17 C21 1.269 . S
O18 Zn15 1.986 . S
O18 C25 1.262 . S
O19 Zn14 2.049 . S
O19 C27 1.260 . S
O20 Zn15 1.996 . S
O20 C27 1.257 . S
C21 O16 1.254 . S
C21 O17 1.269 . S
C22 O23 1.249 . S
C22 O24 1.270 . S
O23 Zn15 1.943 . S
O23 C22 1.249 . S
O24 Zn14 2.067 . S
O24 C22 1.270 . S
C25 O18 1.262 . S
C25 O26 1.232 . S
O26 C25 1.232 . S
C27 O19 1.260 . S
C27 O20 1.257 . S
Zn28 O31 2.031 . S
Zn28 O33 2.049 . S
Zn28 O38 2.067 . S
Zn29 O30 1.962 . S
Zn29 O32 1.986 . S
Zn29 O34 1.996 . S
Zn29 O37 1.943 . S
O30 Zn29 1.962 . S
O30 C35 1.254 . S
O31 Zn28 2.031 . S
O31 C35 1.269 . S
O32 Zn29 1.986 . S
O32 C39 1.262 . S
O33 Zn28 2.049 . S
O33 C41 1.260 . S
O34 Zn29 1.996 . S
O34 C41 1.257 . S
C35 O30 1.254 . S
C35 O31 1.269 . S
C36 O37 1.249 . S
C36 O38 1.270 . S
O37 Zn29 1.943 . S
O37 C36 1.249 . S
O38 Zn28 2.067 . S
O38 C36 1.270 . S
C39 O32 1.262 . S
C39 O40 1.232 . S
O40 C39 1.232 . S
C41 O33 1.260 . S
C41 O34 1.257 . S
Zn42 O45 2.031 . S
Zn42 O47 2.049 . S
Zn42 O52 2.067 . S
Zn43 O44 1.962 . S
Zn43 O46 1.986 . S
Zn43 O48 1.996 . S
Zn43 O51 1.943 . S
O44 Zn43 1.962 . S
O44 C49 1.254 . S
O45 Zn42 2.031 . S
O45 C49 1.269 . S
O46 Zn43 1.986 . S
O46 C53 1.262 . S
O47 Zn42 2.049 . S
O47 C55 1.260 . S
O48 Zn43 1.996 . S
O48 C55 1.257 . S
C49 O44 1.254 . S
C49 O45 1.269 . S
C50 O51 1.249 . S
C50 O52 1.270 . S
O51 Zn43 1.943 . S
O51 C50 1.249 . S
O52 Zn42 2.067 . S
O52 C50 1.270 . S
C53 O46 1.262 . S
C53 O54 1.232 . S
O54 C53 1.232 . S
C55 O47 1.260 . S
C55 O48 1.257 . S
Zn56 O59 2.031 . S
Zn56 O61 2.049 . S
Zn56 O66 2.067 . S
Zn57 O58 1.962 . S
Zn57 O60 1.986 . S
Zn57 O62 1.996 . S
Zn57 O65 1.943 . S
O58 Zn57 1.962 . S
O58 C63 1.254 . S
O59 Zn56 2.031 . S
O59 C63 1.269 . S
O60 Zn57 1.986 . S
O60 C67 1.262 . S
O61 Zn56 2.049 . S
O61 C69 1.260 . S
O62 Zn57 1.996 . S
O62 C69 1.257 . S
C63 O58 1.254 . S
C63 O59 1.269 . S
C64 O65 1.249 . S
C64 O66 1.270 . S
O65 Zn57 1.943 . S
O65 C64 1.249 . S
O66 Zn56 2.067 . S
O66 C64 1.270 . S
C67 O60 1.262 . S
C67 O68 1.232 . S
O68 C67 1.232 . S
C69 O61 1.260 . S
C69 O62 1.257 . S
Zn70 O73 2.031 . S
Zn70 O75 2.049 . S
Zn70 O80 2.067 . S
Zn71 O72 1.962 . S
Zn71 O74 1.986 . S
Zn71 O76 1.996 . S
Zn71 O79 1.943 . S
O72 Zn71 1.962 . S
O72 C77 1.254 . S
O73 Zn70 2.031 . S
O73 C77 1.269 . S
O74 Zn71 1.986 . S
O74 C81 1.262 . S
O75 Zn70 2.049 . S
O75 C83 1.260 . S
O76 Zn71 1.996 . S
O76 C83 1.257 . S
C77 O72 1.254 . S
C77 O73 1.269 . S
C78 O79 1.249 . S
C78 O80 1.270 . S
O79 Zn71 1.943 . S
O79 C78 1.249 . S
O80 Zn70 2.067 . S
O80 C78 1.270 . S
C81 O74 1.262 . S
C81 O82 1.232 . S
O82 C81 1.232 . S
C83 O75 1.260 . S
C83 O76 1.257 . S
Zn84 O87 2.031 . S
Zn84 O89 2.049 . S
Zn84 O94 2.067 . S
Zn85 O86 1.962 . S
Zn85 O88 1.986 . S
Zn85 O90 1.996 . S
Zn85 O93 1.943 . S
O86 Zn85 1.962 . S
O86 C91 1.254 . S
O87 Zn84 2.031 . S
O87 C91 1.269 . S
O88 Zn85 1.986 . S
O88 C95 1.262 . S
O89 Zn84 2.049 . S
O89 C97 1.260 . S
O90 Zn85 1.996 . S
O90 C97 1.257 . S
C91 O86 1.254 . S
C91 O87 1.269 . S
C92 O93 1.249 . S
C92 O94 1.270 . S
O93 Zn85 1.943 . S
O93 C92 1.249 . S
O94 Zn84 2.067 . S
O94 C92 1.270 . S
C95 O88 1.262 . S
C95 O96 1.232 . S
O96 C95 1.232 . S
C97 O89 1.260 . S
C97 O90 1.257 . S
Zn98 O101 2.031 . S
Zn98 O103 2.049 . S
Zn98 O108 2.067 . S
Zn99 O100 1.962 . S
Zn99 O102 1.986 . S
Zn99 O104 1.996 . S
Zn99 O107 1.943 . S
O100 Zn99 1.962 . S
O100 C105 1.254 . S
O101 Zn98 2.031 . S
O101 C105 1.269 . S
O102 Zn99 1.986 . S
O102 C109 1.262 . S
O103 Zn98 2.049 . S
O103 C111 1.260 . S
O104 Zn99 1.996 . S
O104 C111 1.257 . S
C105 O100 1.254 . S
C105 O101 1.269 . S
C106 O107 1.249 . S
C106 O108 1.270 . S
O107 Zn99 1.943 . S
O107 C106 1.249 . S
O108 Zn98 2.067 . S
O108 C106 1.270 . S
C109 O102 1.262 . S
C109 O110 1.232 . S
O110 C109 1.232 . S
C111 O103 1.260 . S
C111 O104 1.257 . S
Zn112 O115 2.031 . S
Zn112 O117 2.049 . S
Zn112 O122 2.067 . S
Zn113 O114 1.962 . S
Zn113 O116 1.986 . S
Zn113 O118 1.996 . S
Zn113 O121 1.943 . S
O114 Zn113 1.962 . S
O114 C119 1.254 . S
O115 Zn112 2.031 . S
O115 C119 1.269 . S
O116 Zn113 1.986 . S
O116 C123 1.262 . S
O117 Zn112 2.049 . S
O117 C125 1.260 . S
O118 Zn113 1.996 . S
O118 C125 1.257 . S
C119 O114 1.254 . S
C119 O115 1.269 . S
C120 O121 1.249 . S
C120 O122 1.270 . S
O121 Zn113 1.943 . S
O121 C120 1.249 . S
O122 Zn112 2.067 . S
O122 C120 1.270 . S
C123 O116 1.262 . S
C123 O124 1.232 . S
O124 C123 1.232 . S
C125 O117 1.260 . S
C125 O118 1.257 . S
Zn126 O129 2.031 . S
Zn126 O131 2.049 . S
Zn126 O136 2.067 . S
Zn127 O128 1.962 . S
Zn127 O130 1.986 . S
Zn127 O132 1.996 . S
Zn127 O135 1.943 . S
O128 Zn127 1.962 . S
O128 C133 1.254 . S
O129 Zn126 2.031 . S
O129 C133 1.269 . S
O130 Zn127 1.986 . S
O130 C137 1.262 . S
O131 Zn126 2.049 . S
O131 C139 1.260 . S
O132 Zn127 1.996 . S
O132 C139 1.257 . S
C133 O128 1.254 . S
C133 O129 1.269 . S
C134 O135 1.249 . S
C134 O136 1.270 . S
O135 Zn127 1.943 . S
O135 C134 1.249 . S
O136 Zn126 2.067 . S
O136 C134 1.270 . S
C137 O130 1.262 . S
C137 O138 1.232 . S
O138 C137 1.232 . S
C139 O131 1.260 . S
C139 O132 1.257 . S
Zn140 O143 2.031 . S
Zn140 O145 2.049 . S
Zn140 O150 2.067 . S
Zn141 O142 1.962 . S
Zn141 O144 1.986 . S
Zn141 O146 1.996 . S
Zn141 O149 1.943 . S
O142 Zn141 1.962 . S
O142 C147 1.254 . S
O143 Zn140 2.031 . S
O143 C147 1.269 . S
O144 Zn141 1.986 . S
O144 C151 1.262 . S
O145 Zn140 2.049 . S
O145 C153 1.260 . S
O146 Zn141 1.996 . S
O146 C153 1.257 . S
C147 O142 1.254 . S
C147 O143 1.269 . S
C148 O149 1.249 . S
C148 O150 1.270 . S
O149 Zn141 1.943 . S
O149 C148 1.249 . S
O150 Zn140 2.067 . S
O150 C148 1.270 . S
C151 O144 1.262 . S
C151 O152 1.232 . S
O152 C151 1.232 . S
C153 O145 1.260 . S
C153 O146 1.257 . S
Zn154 O157 2.031 . S
Zn154 O159 2.049 . S
Zn154 O164 2.067 . S
Zn155 O156 1.962 . S
Zn155 O158 1.986 . S
Zn155 O160 1.996 . S
Zn155 O163 1.943 . S
O156 Zn155 1.962 . S
O156 C161 1.254 . S
O157 Zn154 2.031 . S
O157 C161 1.269 . S
O158 Zn155 1.986 . S
O158 C165 1.262 . S
O159 Zn154 2.049 . S
O159 C167 1.260 . S
O160 Zn155 1.996 . S
O160 C167 1.257 . S
C161 O156 1.254 . S
C161 O157 1.269 . S
C162 O163 1.249 . S
C162 O164 1.270 . S
O163 Zn155 1.943 . S
O163 C162 1.249 . S
O164 Zn154 2.067 . S
O164 C162 1.270 . S
C165 O158 1.262 . S
C165 O166 1.232 . S
O166 C165 1.232 . S
C167 O159 1.260 . S
C167 O160 1.257 . S
Zn168 O171 2.031 . S
Zn168 O173 2.049 . S
Zn168 O178 2.067 . S
Zn169 O170 1.962 . S
Zn169 O172 1.986 . S
Zn169 O174 1.996 . S
Zn169 O177 1.943 . S
O170 Zn169 1.962 . S
O170 C175 1.254 . S
O171 Zn168 2.031 . S
O171 C175 1.269 . S
O172 Zn169 1.986 . S
O172 C179 1.262 . S
O173 Zn168 2.049 . S
O173 C181 1.260 . S
O174 Zn169 1.996 . S
O174 C181 1.257 . S
C175 O170 1.254 . S
C175 O171 1.269 . S
C176 O177 1.249 . S
C176 O178 1.270 . S
O177 Zn169 1.943 . S
O177 C176 1.249 . S
O178 Zn168 2.067 . S
O178 C176 1.270 . S
C179 O172 1.262 . S
C179 O180 1.232 . S
O180 C179 1.232 . S
C181 O173 1.260 . S
C181 O174 1.257 . S
Zn182 O185 2.031 . S
Zn182 O187 2.049 . S
Zn182 O192 2.067 . S
Zn183 O184 1.962 . S
Zn183 O186 1.986 . S
Zn183 O188 1.996 . S
Zn183 O191 1.943 . S
O184 Zn183 1.962 . S
O184 C189 1.254 . S
O185 Zn182 2.031 . S
O185 C189 1.269 . S
O186 Zn183 1.986 . S
O186 C193 1.262 . S
O187 Zn182 2.049 . S
O187 C195 1.260 . S
O188 Zn183 1.996 . S
O188 C195 1.257 . S
C189 O184 1.254 . S
C189 O185 1.269 . S
C190 O191 1.249 . S
C190 O192 1.270 . S
O191 Zn183 1.943 . S
O191 C190 1.249 . S
O192 Zn182 2.067 . S
O192 C190 1.270 . S
C193 O186 1.262 . S
C193 O194 1.232 . S
O194 C193 1.232 . S
C195 O187 1.260 . S
C195 O188 1.257 . S
Zn196 O199 2.031 . S
Zn196 O201 2.049 . S
Zn196 O206 2.067 . S
Zn197 O198 1.962 . S
Zn197 O200 1.986 . S
Zn197 O202 1.996 . S
Zn197 O205 1.943 . S
O198 Zn197 1.962 . S
O198 C203 1.254 . S
O199 Zn196 2.031 . S
O199 C203 1.269 . S
O200 Zn197 1.986 . S
O200 C207 1.262 . S
O201 Zn196 2.049 . S
O201 C209 1.260 . S
O202 Zn197 1.996 . S
O202 C209 1.257 . S
C203 O198 1.254 . S
C203 O199 1.269 . S
C204 O205 1.249 . S
C204 O206 1.270 . S
O205 Zn197 1.943 . S
O205 C204 1.249 . S
O206 Zn196 2.067 . S
O206 C204 1.270 . S
C207 O200 1.262 . S
C207 O208 1.232 . S
O208 C207 1.232 . S
C209 O201 1.260 . S
C209 O202 1.257 . S
Zn210 O213 2.031 . S
Zn210 O215 2.049 . S
Zn210 O220 2.067 . S
Zn211 O212 1.962 . S
Zn211 O214 1.986 . S
Zn211 O216 1.996 . S
Zn211 O219 1.943 . S
O212 Zn211 1.962 . S
O212 C217 1.254 . S
O213 Zn210 2.031 . S
O213 C217 1.269 . S
O214 Zn211 1.986 . S
O214 C221 1.262 . S
O215 Zn210 2.049 . S
O215 C223 1.260 . S
O216 Zn211 1.996 . S
O216 C223 1.257 . S
C217 O212 1.254 . S
C217 O213 1.269 . S
C218 O219 1.249 . S
C218 O220 1.270 . S
O219 Zn211 1.943 . S
O219 C218 1.249 . S
O220 Zn210 2.067 . S
O220 C218 1.270 . S
C221 O214 1.262 . S
C221 O222 1.232 . S
O222 C221 1.232 . S
C223 O215 1.260 . S
C223 O216 1.257 . S
Zn224 O227 2.031 . S
Zn224 O229 2.049 . S
Zn224 O234 2.067 . S
Zn225 O226 1.962 . S
Zn225 O228 1.986 . S
Zn225 O230 1.996 . S
Zn225 O233 1.943 . S
O226 Zn225 1.962 . S
O226 C231 1.254 . S
O227 Zn224 2.031 . S
O227 C231 1.269 . S
O228 Zn225 1.986 . S
O228 C235 1.262 . S
O229 Zn224 2.049 . S
O229 C237 1.260 . S
O230 Zn225 1.996 . S
O230 C237 1.257 . S
C231 O226 1.254 . S
C231 O227 1.269 . S
C232 O233 1.249 . S
C232 O234 1.270 . S
O233 Zn225 1.943 . S
O233 C232 1.249 . S
O234 Zn224 2.067 . S
O234 C232 1.270 . S
C235 O228 1.262 . S
C235 O236 1.232 . S
O236 C235 1.232 . S
C237 O229 1.260 . S
C237 O230 1.257 . S
Zn238 O241 2.031 . S
Zn238 O243 2.049 . S
Zn238 O248 2.067 . S
Zn239 O240 1.962 . S
Zn239 O242 1.986 . S
Zn239 O244 1.996 . S
Zn239 O247 1.943 . S
O240 Zn239 1.962 . S
O240 C245 1.254 . S
O241 Zn238 2.031 . S
O241 C245 1.269 . S
O242 Zn239 1.986 . S
O242 C249 1.262 . S
O243 Zn238 2.049 . S
O243 C251 1.260 . S
O244 Zn239 1.996 . S
O244 C251 1.257 . S
C245 O240 1.254 . S
C245 O241 1.269 . S
C246 O247 1.249 . S
C246 O248 1.270 . S
O247 Zn239 1.943 . S
O247 C246 1.249 . S
O248 Zn238 2.067 . S
O248 C246 1.270 . S
C249 O242 1.262 . S
C249 O250 1.232 . S
O250 C249 1.232 . S
C251 O243 1.260 . S
C251 O244 1.257 . S
Zn252 O255 2.031 . S
Zn252 O257 2.049 . S
Zn252 O262 2.067 . S
Zn253 O254 1.962 . S
Zn253 O256 1.986 . S
Zn253 O258 1.996 . S
Zn253 O261 1.943 . S
O254 Zn253 1.962 . S
O254 C259 1.254 . S
O255 Zn252 2.031 . S
O255 C259 1.269 . S
O256 Zn253 1.986 . S
O256 C263 1.262 . S
O257 Zn252 2.049 . S
O257 C265 1.260 . S
O258 Zn253 1.996 . S
O258 C265 1.257 . S
C259 O254 1.254 . S
C259 O255 1.269 . S
C260 O261 1.249 . S
C260 O262 1.270 . S
O261 Zn253 1.943 . S
O261 C260 1.249 . S
O262 Zn252 2.067 . S
O262 C260 1.270 . S
C263 O256 1.262 . S
C263 O264 1.232 . S
O264 C263 1.232 . S
C265 O257 1.260 . S
C265 O258 1.257 . S
Zn266 O269 2.031 . S
Zn266 O271 2.049 . S
Zn266 O276 2.067 . S
Zn267 O268 1.962 . S
Zn267 O270 1.986 . S
Zn267 O272 1.996 . S
Zn267 O275 1.943 . S
O268 Zn267 1.962 . S
O268 C273 1.254 . S
O269 Zn266 2.031 . S
O269 C273 1.269 . S
O270 Zn267 1.986 . S
O270 C277 1.262 . S
O271 Zn266 2.049 . S
O271 C279 1.260 . S
O272 Zn267 1.996 . S
O272 C279 1.257 . S
C273 O268 1.254 . S
C273 O269 1.269 . S
C274 O275 1.249 . S
C274 O276 1.270 . S
O275 Zn267 1.943 . S
O275 C274 1.249 . S
O276 Zn266 2.067 . S
O276 C274 1.270 . S
C277 O270 1.262 . S
C277 O278 1.232 . S
O278 C277 1.232 . S
C279 O271 1.260 . S
C279 O272 1.257 . S
Zn280 O283 2.031 . S
Zn280 O285 2.049 . S
Zn280 O290 2.067 . S
Zn281 O282 1.962 . S
Zn281 O284 1.986 . S
Zn281 O286 1.996 . S
Zn281 O289 1.943 . S
O282 Zn281 1.962 . S
O282 C287 1.254 . S
O283 Zn280 2.031 . S
O283 C287 1.269 . S
O284 Zn281 1.986 . S
O284 C291 1.262 . S
O285 Zn280 2.049 . S
O285 C293 1.260 . S
O286 Zn281 1.996 . S
O286 C293 1.257 . S
C287 O282 1.254 . S
C287 O283 1.269 . S
C288 O289 1.249 . S
C288 O290 1.270 . S
O289 Zn281 1.943 . S
O289 C288 1.249 . S
O290 Zn280 2.067 . S
O290 C288 1.270 . S
C291 O284 1.262 . S
C291 O292 1.232 . S
O292 C291 1.232 . S
C293 O285 1.260 . S
C293 O286 1.257 . S
Zn294 O297 2.031 . S
Zn294 O299 2.049 . S
Zn294 O304 2.067 . S
Zn295 O296 1.962 . S
Zn295 O298 1.986 . S
Zn295 O300 1.996 . S
Zn295 O303 1.943 . S
O296 Zn295 1.962 . S
O296 C301 1.254 . S
O297 Zn294 2.031 . S
O297 C301 1.269 . S
O298 Zn295 1.986 . S
O298 C305 1.262 . S
O299 Zn294 2.049 . S
O299 C307 1.260 . S
O300 Zn295 1.996 . S
O300 C307 1.257 . S
C301 O296 1.254 . S
C301 O297 1.269 . S
C302 O303 1.249 . S
C302 O304 1.270 . S
O303 Zn295 1.943 . S
O303 C302 1.249 . S
O304 Zn294 2.067 . S
O304 C302 1.270 . S
C305 O298 1.262 . S
C305 O306 1.232 . S
O306 C305 1.232 . S
C307 O299 1.260 . S
C307 O300 1.257 . S
Zn308 O311 2.031 . S
Zn308 O313 2.049 . S
Zn308 O318 2.067 . S
Zn309 O310 1.962 . S
Zn309 O312 1.986 . S
Zn309 O314 1.996 . S
Zn309 O317 1.943 . S
O310 Zn309 1.962 . S
O310 C315 1.254 . S
O311 Zn308 2.031 . S
O311 C315 1.269 . S
O312 Zn309 1.986 . S
O312 C319 1.262 . S
O313 Zn308 2.049 . S
O313 C321 1.260 . S
O314 Zn309 1.996 . S
O314 C321 1.257 . S
C315 O310 1.254 . S
C315 O311 1.269 . S
C316 O317 1.249 . S
C316 O318 1.270 . S
O317 Zn309 1.943 . S
O317 C316 1.249 . S
O318 Zn308 2.067 . S
O318 C316 1.270 . S
C319 O312 1.262 . S
C319 O320 1.232 . S
O320 C319 1.232 . S
C321 O313 1.260 . S
C321 O314 1.257 . S
Zn322 O325 2.031 . S
Zn322 O327 2.049 . S
Zn322 O332 2.067 . S
Zn323 O324 1.962 . S
Zn323 O326 1.986 . S
Zn323 O328 1.996 . S
Zn323 O331 1.943 . S
O324 Zn323 1.962 . S
O324 C329 1.254 . S
O325 Zn322 2.031 . S
O325 C329 1.269 . S
O326 Zn323 1.986 . S
O326 C333 1.262 . S
O327 Zn322 2.049 . S
O327 C335 1.260 . S
O328 Zn323 1.996 . S
O328 C335 1.257 . S
C329 O324 1.254 . S
C329 O325 1.269 . S
C330 O331 1.249 . S
C330 O332 1.270 . S
O331 Zn323 1.943 . S
O331 C330 1.249 . S
O332 Zn322 2.067 . S
O332 C330 1.270 . S
C333 O326 1.262 . S
C333 O334 1.232 . S
O334 C333 1.232 . S
C335 O327 1.260 . S
C335 O328 1.257 . S
Zn336 O339 2.031 . S
Zn336 O341 2.049 . S
Zn336 O346 2.067 . S
Zn337 O338 1.962 . S
Zn337 O340 1.986 . S
Zn337 O342 1.996 . S
Zn337 O345 1.943 . S
O338 Zn337 1.962 . S
O338 C343 1.254 . S
O339 Zn336 2.031 . S
O339 C343 1.269 . S
O340 Zn337 1.986 . S
O340 C347 1.262 . S
O341 Zn336 2.049 . S
O341 C349 1.260 . S
O342 Zn337 1.996 . S
O342 C349 1.257 . S
C343 O338 1.254 . S
C343 O339 1.269 . S
C344 O345 1.249 . S
C344 O346 1.270 . S
O345 Zn337 1.943 . S
O345 C344 1.249 . S
O346 Zn336 2.067 . S
O346 C344 1.270 . S
C347 O340 1.262 . S
C347 O348 1.232 . S
O348 C347 1.232 . S
C349 O341 1.260 . S
C349 O342 1.257 . S
Zn350 O353 2.031 . S
Zn350 O355 2.049 . S
Zn350 O360 2.067 . S
Zn351 O352 1.962 . S
Zn351 O354 1.986 . S
Zn351 O356 1.996 . S
Zn351 O359 1.943 . S
O352 Zn351 1.962 . S
O352 C357 1.254 . S
O353 Zn350 2.031 . S
O353 C357 1.269 . S
O354 Zn351 1.986 . S
O354 C361 1.262 . S
O355 Zn350 2.049 . S
O355 C363 1.260 . S
O356 Zn351 1.996 . S
O356 C363 1.257 . S
C357 O352 1.254 . S
C357 O353 1.269 . S
C358 O359 1.249 . S
C358 O360 1.270 . S
O359 Zn351 1.943 . S
O359 C358 1.249 . S
O360 Zn350 2.067 . S
O360 C358 1.270 . S
C361 O354 1.262 . S
C361 O362 1.232 . S
O362 C361 1.232 . S
C363 O355 1.260 . S
C363 O356 1.257 . S
Zn364 O367 2.031 . S
Zn364 O369 2.049 . S
Zn364 O374 2.067 . S
Zn365 O366 1.962 . S
Zn365 O368 1.986 . S
Zn365 O370 1.996 . S
Zn365 O373 1.943 . S
O366 Zn365 1.962 . S
O366 C371 1.254 . S
O367 Zn364 2.031 . S
O367 C371 1.269 . S
O368 Zn365 1.986 . S
O368 C375 1.262 . S
O369 Zn364 2.049 . S
O369 C377 1.260 . S
O370 Zn365 1.996 . S
O370 C377 1.257 . S
C371 O366 1.254 . S
C371 O367 1.269 . S
C372 O373 1.249 . S
C372 O374 1.270 . S
O373 Zn365 1.943 . S
O373 C372 1.249 . S
O374 Zn364 2.067 . S
O374 C372 1.270 . S
C375 O368 1.262 . S
C375 O376 1.232 . S
O376 C375 1.232 . S
C377 O369 1.260 . S
C377 O370 1.257 . S
Zn378 O381 2.031 . S
Zn378 O383 2.049 . S
Zn378 O388 2.067 . S
Zn379 O380 1.962 . S
Zn379 O382 1.986 . S
Zn379 O384 1.996 . S
Zn379 O387 1.943 . S
O380 Zn379 1.962 . S
O380 C385 1.254 . S
O381 Zn378 2.031 . S
O381 C385 1.269 . S
O382 Zn379 1.986 . S
O382 C389 1.262 . S
O383 Zn378 2.049 . S
O383 C391 1.260 . S
O384 Zn379 1.996 . S
O384 C391 1.257 . S
C385 O380 1.254 . S
C385 O381 1.269 . S
C386 O387 1.249 . S
C386 O388 1.270 . S
O387 Zn379 1.943 . S
O387 C386 1.249 . S
O388 Zn378 2.067 . S
O388 C386 1.270 . S
C389 O382 1.262 . S
C389 O390 1.232 . S
O390 C389 1.232 . S
C391 O383 1.260 . S
C391 O384 1.257 . S
Zn392 O395 2.031 . S
Zn392 O397 2.049 . S
Zn392 O402 2.067 . S
Zn393 O394 1.962 . S
Zn393 O396 1.986 . S
Zn393 O398 1.996 . S
Zn393 O401 1.943 . S
O394 Zn393 1.962 . S
O394 C399 1.254 . S
O395 Zn392 2.031 . S
O395 C399 1.269 . S
O396 Zn393 1.986 . S
O396 C403 1.262 . S
O397 Zn392 2.049 . S
O397 C405 1.260 . S
O398 Zn393 1.996 . S
O398 C405 1.257 . S
C399 O394 1.254 . S
C399 O395 1.269 . S
C400 O401 1.249 . S
C400 O402 1.270 . S
O401 Zn393 1.943 . S
O401 C400 1.249 . S
O402 Zn392 2.067 . S
O402 C400 1.270 . S
C403 O396 1.262 . S
C403 O404 1.232 . S
O404 C403 1.232 . S
C405 O397 1.260 . S
C405 O398 1.257 . S
Zn406 O409 2.031 . S
Zn406 O411 2.049 . S
Zn406 O416 2.067 . S
Zn407 O408 1.962 . S
Zn407 O410 1.986 . S
Zn407 O412 1.996 . S
Zn407 O415 1.943 . S
O408 Zn407 1.962 . S
O408 C413 1.254 . S
O409 Zn406 2.031 . S
O409 C413 1.269 . S
O410 Zn407 1.986 . S
O410 C417 1.262 . S
O411 Zn406 2.049 . S
O411 C419 1.260 . S
O412 Zn407 1.996 . S
O412 C419 1.257 . S
C413 O408 1.254 . S
C413 O409 1.269 . S
C414 O415 1.249 . S
C414 O416 1.270 . S
O415 Zn407 1.943 . S
O415 C414 1.249 . S
O416 Zn406 2.067 . S
O416 C414 1.270 . S
C417 O410 1.262 . S
C417 O418 1.232 . S
O418 C417 1.232 . S
C419 O411 1.260 . S
C419 O412 1.257 . S
Zn420 O423 2.031 . S
Zn420 O425 2.049 . S
Zn420 O430 2.067 . S
Zn421 O422 1.962 . S
Zn421 O424 1.986 . S
Zn421 O426 1.996 . S
Zn421 O429 1.943 . S
O422 Zn421 1.962 . S
O422 C427 1.254 . S
O423 Zn420 2.031 . S
O423 C427 1.269 . S
O424 Zn421 1.986 . S
O424 C431 1.262 . S
O425 Zn420 2.049 . S
O425 C433 1.260 . S
O426 Zn421 1.996 . S
O426 C433 1.257 . S
C427 O422 1.254 . S
C427 O423 1.269 . S
C428 O429 1.249 . S
C428 O430 1.270 . S
O429 Zn421 1.943 . S
O429 C428 1.249 . S
O430 Zn420 2.067 . S
O430 C428 1.270 . S
C431 O424 1.262 . S
C431 O432 1.232 . S
O432 C431 1.232 . S
C433 O425 1.260 . S
C433 O426 1.257 . S
Zn434 O437 2.031 . S
Zn434 O439 2.049 . S
Zn434 O444 2.067 . S
Zn435 O436 1.962 . S
Zn435 O438 1.986 . S
Zn435 O440 1.996 . S
Zn435 O443 1.943 . S
O436 Zn435 1.962 . S
O436 C441 1.254 . S
O437 Zn434 2.031 . S
O437 C441 1.269 . S
O438 Zn435 1.986 . S
O438 C445 1.262 . S
O439 Zn434 2.049 . S
O439 C447 1.260 . S
O440 Zn435 1.996 . S
O440 C447 1.257 . S
C441 O436 1.254 . S
C441 O437 1.269 . S
C442 O443 1.249 . S
C442 O444 1.270 . S
O443 Zn435 1.943 . S
O443 C442 1.249 . S
O444 Zn434 2.067 . S
O444 C442 1.270 . S
C445 O438 1.262 . S
C445 O446 1.232 . S
O446 C445 1.232 . S
C447 O439 1.260 . S
C447 O440 1.257 . S
H448 C456 0.929 . S
H449 C458 0.930 . S
H450 C460 0.930 . S
H451 C463 0.929 . S
H452 C466 0.930 . S
H453 C468 0.960 . S
H454 C468 0.960 . S
H455 C468 0.960 . S
C456 H448 0.929 . S
C456 C457 1.377 . S
C456 C458 1.384 . S
C457 C456 1.377 . S
C457 C463 1.390 . S
C458 H449 0.930 . S
C458 C456 1.384 . S
C458 C459 1.372 . S
C459 C458 1.372 . S
C459 C460 1.400 . S
C459 C464 1.490 . S
C460 H450 0.930 . S
C460 C459 1.400 . S
C460 C463 1.386 . S
H461 C477 0.930 . S
H462 C478 0.931 . S
C463 H451 0.929 . S
C463 C457 1.390 . S
C463 C460 1.386 . S
C464 C459 1.490 . S
C464 C466 1.395 1_656 S
C464 C467 1.403 . S
H465 C471 0.936 . S
C466 H452 0.930 . S
C466 C464 1.395 1_454 S
C466 C469 1.403 . S
C467 C464 1.403 . S
C467 C468 1.524 . S
C467 C471 1.424 . S
C468 H453 0.960 . S
C468 H454 0.960 . S
C468 H455 0.960 . S
C468 C467 1.524 . S
C469 C466 1.403 . S
C469 C470 1.392 . S
C469 C473 1.495 . S
C470 C469 1.392 . S
C470 C471 1.357 1_454 S
C470 C472 1.478 . S
C471 H465 0.936 . S
C471 C467 1.424 . S
C471 C470 1.357 1_656 S
C472 C470 1.478 . S
C472 C474 1.381 . S
C472 C478 1.383 . S
C473 C469 1.495 . S
C473 H479 0.959 . S
C473 H480 0.961 . S
C473 H481 0.960 . S
C474 C472 1.381 . S
C474 C475 1.394 . S
C474 H482 0.930 . S
C475 C474 1.394 . S
C475 C476 1.383 . S
C475 H483 0.929 . S
C476 C475 1.383 . S
C476 C477 1.377 . S
C477 H461 0.930 . S
C477 C476 1.377 . S
C477 C478 1.379 . S
C478 H462 0.931 . S
C478 C472 1.383 . S
C478 C477 1.379 . S
H479 C473 0.959 . S
H480 C473 0.961 . S
H481 C473 0.960 . S
H482 C474 0.930 . S
H483 C475 0.929 . S
H484 C492 0.929 . S
H485 C494 0.930 . S
H486 C496 0.930 . S
H487 C499 0.929 . S
H488 C502 0.930 . S
H489 C504 0.960 . S
H490 C504 0.960 . S
H491 C504 0.960 . S
C492 H484 0.929 . S
C492 C493 1.377 . S
C492 C494 1.384 . S
C493 C492 1.377 . S
C493 C499 1.390 . S
C494 H485 0.930 . S
C494 C492 1.384 . S
C494 C495 1.372 . S
C495 C494 1.372 . S
C495 C496 1.400 . S
C495 C500 1.490 . S
C496 H486 0.930 . S
C496 C495 1.400 . S
C496 C499 1.386 . S
H497 C513 0.930 . S
H498 C514 0.931 . S
C499 H487 0.929 . S
C499 C493 1.390 . S
C499 C496 1.386 . S
C500 C495 1.490 . S
C500 C502 1.395 . S
C500 C503 1.403 . S
H501 C507 0.930 . S
C502 H488 0.930 . S
C502 C500 1.395 . S
C502 C505 1.403 . S
C503 C500 1.403 . S
C503 C504 1.524 . S
C503 C507 1.400 . S
C504 H489 0.960 . S
C504 H490 0.960 . S
C504 H491 0.960 . S
C504 C503 1.524 . S
C505 C502 1.403 . S
C505 C506 1.392 . S
C505 C509 1.495 . S
C506 C505 1.392 . S
C506 C507 1.385 . S
C506 C508 1.478 . S
C507 H501 0.930 . S
C507 C503 1.400 . S
C507 C506 1.385 . S
C508 C506 1.478 . S
C508 C510 1.381 . S
C508 C514 1.383 . S
C509 C505 1.495 . S
C509 H515 0.959 . S
C509 H516 0.961 . S
C509 H517 0.960 . S
C510 C508 1.381 . S
C510 C511 1.394 . S
C510 H518 0.930 . S
C511 C510 1.394 . S
C511 C512 1.383 . S
C511 H519 0.929 . S
C512 C511 1.383 . S
C512 C513 1.377 . S
C513 H497 0.930 . S
C513 C512 1.377 . S
C513 C514 1.379 . S
C514 H498 0.931 . S
C514 C508 1.383 . S
C514 C513 1.379 . S
H515 C509 0.959 . S
H516 C509 0.961 . S
H517 C509 0.960 . S
H518 C510 0.930 . S
H519 C511 0.929 . S
H520 C528 0.929 . S
H521 C530 0.930 . S
H522 C532 0.930 . S
H523 C535 0.929 . S
H524 C538 0.930 . S
H525 C540 0.960 . S
H526 C540 0.960 . S
H527 C540 0.960 . S
C528 H520 0.929 . S
C528 C529 1.377 . S
C528 C530 1.384 . S
C529 C528 1.377 . S
C529 C535 1.390 . S
C530 H521 0.930 . S
C530 C528 1.384 . S
C530 C531 1.372 . S
C531 C530 1.372 . S
C531 C532 1.400 . S
C531 C536 1.490 . S
C532 H522 0.930 . S
C532 C531 1.400 . S
C532 C535 1.386 . S
H533 C549 0.930 . S
H534 C550 0.931 . S
C535 H523 0.929 . S
C535 C529 1.390 . S
C535 C532 1.386 . S
C536 C531 1.490 . S
C536 C538 1.395 . S
C536 C539 1.403 . S
H537 C543 0.930 . S
C538 H524 0.930 . S
C538 C536 1.395 . S
C538 C541 1.403 . S
C539 C536 1.403 . S
C539 C540 1.524 . S
C539 C543 1.400 . S
C540 H525 0.960 . S
C540 H526 0.960 . S
C540 H527 0.960 . S
C540 C539 1.524 . S
C541 C538 1.403 . S
C541 C542 1.392 . S
C541 C545 1.495 . S
C542 C541 1.392 . S
C542 C543 1.385 . S
C542 C544 1.478 . S
C543 H537 0.930 . S
C543 C539 1.400 . S
C543 C542 1.385 . S
C544 C542 1.478 . S
C544 C546 1.381 . S
C544 C550 1.383 . S
C545 C541 1.495 . S
C545 H551 0.959 . S
C545 H552 0.961 . S
C545 H553 0.960 . S
C546 C544 1.381 . S
C546 C547 1.394 . S
C546 H554 0.930 . S
C547 C546 1.394 . S
C547 C548 1.383 . S
C547 H555 0.929 . S
C548 C547 1.383 . S
C548 C549 1.377 . S
C549 H533 0.930 . S
C549 C548 1.377 . S
C549 C550 1.379 . S
C550 H534 0.931 . S
C550 C544 1.383 . S
C550 C549 1.379 . S
H551 C545 0.959 . S
H552 C545 0.961 . S
H553 C545 0.960 . S
H554 C546 0.930 . S
H555 C547 0.929 . S
H556 C564 0.929 . S
H557 C566 0.930 . S
H558 C568 0.930 . S
H559 C571 0.929 . S
H560 C574 0.930 . S
H561 C576 0.960 . S
H562 C576 0.960 . S
H563 C576 0.960 . S
C564 H556 0.929 . S
C564 C565 1.377 . S
C564 C566 1.384 . S
C565 C564 1.377 . S
C565 C571 1.390 . S
C566 H557 0.930 . S
C566 C564 1.384 . S
C566 C567 1.372 . S
C567 C566 1.372 . S
C567 C568 1.400 . S
C567 C572 1.490 . S
C568 H558 0.930 . S
C568 C567 1.400 . S
C568 C571 1.386 . S
H569 C585 0.930 . S
H570 C586 0.931 . S
C571 H559 0.929 . S
C571 C565 1.390 . S
C571 C568 1.386 . S
C572 C567 1.490 . S
C572 C574 1.395 . S
C572 C575 1.403 . S
H573 C579 0.930 . S
C574 H560 0.930 . S
C574 C572 1.395 . S
C574 C577 1.403 . S
C575 C572 1.403 . S
C575 C576 1.524 . S
C575 C579 1.400 . S
C576 H561 0.960 . S
C576 H562 0.960 . S
C576 H563 0.960 . S
C576 C575 1.524 . S
C577 C574 1.403 . S
C577 C578 1.392 . S
C577 C581 1.495 . S
C578 C577 1.392 . S
C578 C579 1.385 . S
C578 C580 1.478 . S
C579 H573 0.930 . S
C579 C575 1.400 . S
C579 C578 1.385 . S
C580 C578 1.478 . S
C580 C582 1.381 . S
C580 C586 1.383 . S
C581 C577 1.495 . S
C581 H587 0.959 . S
C581 H588 0.961 . S
C581 H589 0.960 . S
C582 C580 1.381 . S
C582 C583 1.394 . S
C582 H590 0.930 . S
C583 C582 1.394 . S
C583 C584 1.383 . S
C583 H591 0.929 . S
C584 C583 1.383 . S
C584 C585 1.377 . S
C585 H569 0.930 . S
C585 C584 1.377 . S
C585 C586 1.379 . S
C586 H570 0.931 . S
C586 C580 1.383 . S
C586 C585 1.379 . S
H587 C581 0.959 . S
H588 C581 0.961 . S
H589 C581 0.960 . S
H590 C582 0.930 . S
H591 C583 0.929 . S
H592 C600 0.929 . S
H593 C602 0.930 . S
H594 C604 0.930 . S
H595 C607 0.929 . S
H596 C610 0.930 . S
H597 C612 0.960 . S
H598 C612 0.960 . S
H599 C612 0.960 . S
C600 H592 0.929 . S
C600 C601 1.377 . S
C600 C602 1.384 . S
C601 C600 1.377 . S
C601 C607 1.390 . S
C602 H593 0.930 . S
C602 C600 1.384 . S
C602 C603 1.372 . S
C603 C602 1.372 . S
C603 C604 1.400 . S
C603 C608 1.490 . S
C604 H594 0.930 . S
C604 C603 1.400 . S
C604 C607 1.386 . S
H605 C621 0.930 . S
H606 C622 0.931 . S
C607 H595 0.929 . S
C607 C601 1.390 . S
C607 C604 1.386 . S
C608 C603 1.490 . S
C608 C610 1.395 1_655 S
C608 C611 1.403 . S
H609 C615 0.930 . S
C610 H596 0.930 . S
C610 C608 1.395 1_455 S
C610 C613 1.403 . S
C611 C608 1.403 . S
C611 C612 1.524 . S
C611 C615 1.400 . S
C612 H597 0.960 . S
C612 H598 0.960 . S
C612 H599 0.960 . S
C612 C611 1.524 . S
C613 C610 1.403 . S
C613 C614 1.392 . S
C613 C617 1.495 . S
C614 C613 1.392 . S
C614 C615 1.385 1_455 S
C614 C616 1.478 . S
C615 H609 0.930 . S
C615 C611 1.400 . S
C615 C614 1.385 1_655 S
C616 C614 1.478 . S
C616 C618 1.381 . S
C616 C622 1.383 . S
C617 C613 1.495 . S
C617 H623 0.959 . S
C617 H624 0.961 . S
C617 H625 0.960 . S
C618 C616 1.381 . S
C618 C619 1.394 . S
C618 H626 0.930 . S
C619 C618 1.394 . S
C619 C620 1.383 . S
C619 H627 0.929 . S
C620 C619 1.383 . S
C620 C621 1.377 . S
C621 H605 0.930 . S
C621 C620 1.377 . S
C621 C622 1.379 . S
C622 H606 0.931 . S
C622 C616 1.383 . S
C622 C621 1.379 . S
H623 C617 0.959 . S
H624 C617 0.961 . S
H625 C617 0.960 . S
H626 C618 0.930 . S
H627 C619 0.929 . S
H628 C636 0.929 . S
H629 C638 0.930 . S
H630 C640 0.930 . S
H631 C643 0.929 . S
H632 C646 0.930 . S
H633 C648 0.960 . S
H634 C648 0.960 . S
H635 C648 0.960 . S
C636 H628 0.929 . S
C636 C637 1.377 . S
C636 C638 1.384 . S
C637 C636 1.377 . S
C637 C643 1.390 . S
C638 H629 0.930 . S
C638 C636 1.384 . S
C638 C639 1.372 . S
C639 C638 1.372 . S
C639 C640 1.400 . S
C639 C644 1.490 . S
C640 H630 0.930 . S
C640 C639 1.400 . S
C640 C643 1.386 . S
H641 C657 0.930 . S
H642 C658 0.931 . S
C643 H631 0.929 . S
C643 C637 1.390 . S
C643 C640 1.386 . S
C644 C639 1.490 . S
C644 C646 1.395 . S
C644 C647 1.403 . S
H645 C651 0.930 . S
C646 H632 0.930 . S
C646 C644 1.395 . S
C646 C649 1.403 . S
C647 C644 1.403 . S
C647 C648 1.524 . S
C647 C651 1.400 . S
C648 H633 0.960 . S
C648 H634 0.960 . S
C648 H635 0.960 . S
C648 C647 1.524 . S
C649 C646 1.403 . S
C649 C650 1.392 . S
C649 C653 1.495 . S
C650 C649 1.392 . S
C650 C651 1.385 . S
C650 C652 1.478 . S
C651 H645 0.930 . S
C651 C647 1.400 . S
C651 C650 1.385 . S
C652 C650 1.478 . S
C652 C654 1.381 . S
C652 C658 1.383 . S
C653 C649 1.495 . S
C653 H659 0.959 . S
C653 H660 0.961 . S
C653 H661 0.960 . S
C654 C652 1.381 . S
C654 C655 1.394 . S
C654 H662 0.930 . S
C655 C654 1.394 . S
C655 C656 1.383 . S
C655 H663 0.929 . S
C656 C655 1.383 . S
C656 C657 1.377 . S
C657 H641 0.930 . S
C657 C656 1.377 . S
C657 C658 1.379 . S
C658 H642 0.931 . S
C658 C652 1.383 . S
C658 C657 1.379 . S
H659 C653 0.959 . S
H660 C653 0.961 . S
H661 C653 0.960 . S
H662 C654 0.930 . S
H663 C655 0.929 . S
H664 C672 0.929 . S
H665 C674 0.930 1_554 S
H666 C676 0.930 . S
H667 C679 0.929 . S
H668 C682 0.930 . S
H669 C684 0.929 1_554 S
H670 C684 0.913 1_554 S
H671 C684 1.048 . S
C672 H664 0.929 . S
C672 C673 1.377 . S
C672 C674 1.384 . S
C673 C672 1.377 . S
C673 C679 1.390 . S
C674 H665 0.930 1_556 S
C674 C672 1.384 . S
C674 C675 1.372 . S
C675 C674 1.372 . S
C675 C676 1.400 . S
C675 C680 1.490 . S
C676 H666 0.930 . S
C676 C675 1.400 . S
C676 C679 1.386 . S
H677 C693 0.930 . S
H678 C694 0.931 1_556 S
C679 H667 0.929 . S
C679 C673 1.390 . S
C679 C676 1.386 . S
C680 C675 1.490 . S
C680 C682 1.395 . S
C680 C683 1.422 . S
H681 C687 0.930 . S
C682 H668 0.930 . S
C682 C680 1.395 . S
C682 C685 1.403 1_556 S
C683 C680 1.422 . S
C683 C684 1.523 . S
C683 C687 1.379 1_556 S
C684 H669 0.929 1_556 S
C684 H670 0.913 1_556 S
C684 H671 1.048 . S
C684 C683 1.523 . S
C685 C682 1.403 1_554 S
C685 C686 1.392 . S
C685 C689 1.495 . S
C686 C685 1.392 . S
C686 C687 1.385 . S
C686 C688 1.478 . S
C687 H681 0.930 . S
C687 C683 1.379 1_554 S
C687 C686 1.385 . S
C688 C686 1.478 . S
C688 C690 1.381 . S
C688 C694 1.383 . S
C689 C685 1.495 . S
C689 H695 0.930 1_554 S
C689 H696 0.961 1_554 S
C689 H697 0.960 . S
C690 C688 1.381 . S
C690 C691 1.394 . S
C690 H698 0.930 . S
C691 C690 1.394 . S
C691 C692 1.383 . S
C691 H699 0.929 . S
C692 C691 1.383 . S
C692 C693 1.377 . S
C693 H677 0.930 . S
C693 C692 1.377 . S
C693 C694 1.379 . S
C694 H678 0.931 1_554 S
C694 C688 1.383 . S
C694 C693 1.379 . S
H695 C689 0.930 1_556 S
H696 C689 0.961 1_556 S
H697 C689 0.960 . S
H698 C690 0.930 . S
H699 C691 0.929 . S
H700 C708 0.929 . S
H701 C710 0.930 . S
H702 C712 0.930 . S
H703 C715 0.929 . S
H704 C718 0.930 . S
H705 C720 0.960 . S
H706 C720 0.960 . S
H707 C720 0.960 . S
C708 H700 0.929 . S
C708 C709 1.377 . S
C708 C710 1.384 . S
C709 C708 1.377 . S
C709 C715 1.390 . S
C710 H701 0.930 . S
C710 C708 1.384 . S
C710 C711 1.372 . S
C711 C710 1.372 . S
C711 C712 1.400 . S
C711 C716 1.490 . S
C712 H702 0.930 . S
C712 C711 1.400 . S
C712 C715 1.386 . S
H713 C729 0.930 . S
H714 C730 0.931 . S
C715 H703 0.929 . S
C715 C709 1.390 . S
C715 C712 1.386 . S
C716 C711 1.490 . S
C716 C718 1.395 . S
C716 C719 1.403 . S
H717 C723 0.930 . S
C718 H704 0.930 . S
C718 C716 1.395 . S
C718 C721 1.403 . S
C719 C716 1.403 . S
C719 C720 1.524 . S
C719 C723 1.400 . S
C720 H705 0.960 . S
C720 H706 0.960 . S
C720 H707 0.960 . S
C720 C719 1.524 . S
C721 C718 1.403 . S
C721 C722 1.392 . S
C721 C725 1.495 . S
C722 C721 1.392 . S
C722 C723 1.385 . S
C722 C724 1.478 . S
C723 H717 0.930 . S
C723 C719 1.400 . S
C723 C722 1.385 . S
C724 C722 1.478 . S
C724 C726 1.381 . S
C724 C730 1.383 . S
C725 C721 1.495 . S
C725 H731 0.959 . S
C725 H732 0.961 . S
C725 H733 0.960 . S
C726 C724 1.381 . S
C726 C727 1.394 . S
C726 H734 0.930 . S
C727 C726 1.394 . S
C727 C728 1.383 . S
C727 H735 0.929 . S
C728 C727 1.383 . S
C728 C729 1.377 . S
C729 H713 0.930 . S
C729 C728 1.377 . S
C729 C730 1.379 . S
C730 H714 0.931 . S
C730 C724 1.383 . S
C730 C729 1.379 . S
H731 C725 0.959 . S
H732 C725 0.961 . S
H733 C725 0.960 . S
H734 C726 0.930 . S
H735 C727 0.929 . S
H736 C744 0.929 . S
H737 C746 0.930 . S
H738 C748 0.930 . S
H739 C751 0.929 . S
H740 C754 0.930 . S
H741 C756 0.960 . S
H742 C756 0.960 . S
H743 C756 0.960 . S
C744 H736 0.929 . S
C744 C745 1.377 . S
C744 C746 1.384 . S
C745 C744 1.377 . S
C745 C751 1.390 . S
C746 H737 0.930 . S
C746 C744 1.384 . S
C746 C747 1.372 . S
C747 C746 1.372 . S
C747 C748 1.400 . S
C747 C752 1.490 . S
C748 H738 0.930 . S
C748 C747 1.400 . S
C748 C751 1.386 . S
H749 C765 0.930 . S
H750 C766 0.931 . S
C751 H739 0.929 . S
C751 C745 1.390 . S
C751 C748 1.386 . S
C752 C747 1.490 . S
C752 C754 1.395 . S
C752 C755 1.403 . S
H753 C759 0.930 . S
C754 H740 0.930 . S
C754 C752 1.395 . S
C754 C757 1.403 . S
C755 C752 1.403 . S
C755 C756 1.524 . S
C755 C759 1.400 . S
C756 H741 0.960 . S
C756 H742 0.960 . S
C756 H743 0.960 . S
C756 C755 1.524 . S
C757 C754 1.403 . S
C757 C758 1.392 . S
C757 C761 1.495 . S
C758 C757 1.392 . S
C758 C759 1.385 . S
C758 C760 1.478 . S
C759 H753 0.930 . S
C759 C755 1.400 . S
C759 C758 1.385 . S
C760 C758 1.478 . S
C760 C762 1.381 . S
C760 C766 1.383 . S
C761 C757 1.495 . S
C761 H767 0.959 . S
C761 H768 0.961 . S
C761 H769 0.960 . S
C762 C760 1.381 . S
C762 C763 1.394 . S
C762 H770 0.930 . S
C763 C762 1.394 . S
C763 C764 1.383 . S
C763 H771 0.929 . S
C764 C763 1.383 . S
C764 C765 1.377 . S
C765 H749 0.930 . S
C765 C764 1.377 . S
C765 C766 1.379 . S
C766 H750 0.931 . S
C766 C760 1.383 . S
C766 C765 1.379 . S
H767 C761 0.959 . S
H768 C761 0.961 . S
H769 C761 0.960 . S
H770 C762 0.930 . S
H771 C763 0.929 . S
H772 C780 0.929 . S
H773 C782 0.930 . S
H774 C784 0.930 . S
H775 C787 0.929 . S
H776 C790 0.930 . S
H777 C792 0.960 . S
H778 C792 0.960 . S
H779 C792 0.960 . S
C780 H772 0.929 . S
C780 C781 1.377 . S
C780 C782 1.384 . S
C781 C780 1.377 . S
C781 C787 1.390 . S
C782 H773 0.930 . S
C782 C780 1.384 . S
C782 C783 1.372 . S
C783 C782 1.372 . S
C783 C784 1.400 . S
C783 C788 1.490 . S
C784 H774 0.930 . S
C784 C783 1.400 . S
C784 C787 1.386 . S
H785 C801 0.930 . S
H786 C802 0.931 . S
C787 H775 0.929 . S
C787 C781 1.390 . S
C787 C784 1.386 . S
C788 C783 1.490 . S
C788 C790 1.395 . S
C788 C791 1.403 . S
H789 C795 0.930 . S
C790 H776 0.930 . S
C790 C788 1.395 . S
C790 C793 1.403 . S
C791 C788 1.403 . S
C791 C792 1.524 . S
C791 C795 1.400 . S
C792 H777 0.960 . S
C792 H778 0.960 . S
C792 H779 0.960 . S
C792 C791 1.524 . S
C793 C790 1.403 . S
C793 C794 1.392 . S
C793 C797 1.495 . S
C794 C793 1.392 . S
C794 C795 1.385 . S
C794 C796 1.478 . S
C795 H789 0.930 . S
C795 C791 1.400 . S
C795 C794 1.385 . S
C796 C794 1.478 . S
C796 C798 1.381 . S
C796 C802 1.383 . S
C797 C793 1.495 . S
C797 H803 0.959 . S
C797 H804 0.961 . S
C797 H805 0.960 . S
C798 C796 1.381 . S
C798 C799 1.394 . S
C798 H806 0.930 . S
C799 C798 1.394 . S
C799 C800 1.383 . S
C799 H807 0.929 . S
C800 C799 1.383 . S
C800 C801 1.377 . S
C801 H785 0.930 . S
C801 C800 1.377 . S
C801 C802 1.379 . S
C802 H786 0.931 . S
C802 C796 1.383 . S
C802 C801 1.379 . S
H803 C797 0.959 . S
H804 C797 0.961 . S
H805 C797 0.960 . S
H806 C798 0.930 . S
H807 C799 0.929 . S
H808 C816 0.929 . S
H809 C818 0.930 . S
H810 C820 0.930 . S
H811 C823 0.929 . S
H812 C826 0.930 . S
H813 C828 0.960 . S
H814 C828 0.960 . S
H815 C828 0.960 . S
C816 H808 0.929 . S
C816 C817 1.377 . S
C816 C818 1.384 . S
C817 C816 1.377 . S
C817 C823 1.390 . S
C818 H809 0.930 . S
C818 C816 1.384 . S
C818 C819 1.372 . S
C819 C818 1.372 . S
C819 C820 1.400 . S
C819 C824 1.490 . S
C820 H810 0.930 . S
C820 C819 1.400 . S
C820 C823 1.386 . S
H821 C837 0.930 . S
H822 C838 0.931 . S
C823 H811 0.929 . S
C823 C817 1.390 . S
C823 C820 1.386 . S
C824 C819 1.490 . S
C824 C826 1.395 . S
C824 C827 1.403 . S
H825 C831 0.930 . S
C826 H812 0.930 . S
C826 C824 1.395 . S
C826 C829 1.403 . S
C827 C824 1.403 . S
C827 C828 1.524 . S
C827 C831 1.400 . S
C828 H813 0.960 . S
C828 H814 0.960 . S
C828 H815 0.960 . S
C828 C827 1.524 . S
C829 C826 1.403 . S
C829 C830 1.392 . S
C829 C833 1.495 . S
C830 C829 1.392 . S
C830 C831 1.385 . S
C830 C832 1.478 . S
C831 H825 0.930 . S
C831 C827 1.400 . S
C831 C830 1.385 . S
C832 C830 1.478 . S
C832 C834 1.381 . S
C832 C838 1.383 . S
C833 C829 1.495 . S
C833 H839 0.959 . S
C833 H840 0.961 . S
C833 H841 0.960 . S
C834 C832 1.381 . S
C834 C835 1.394 . S
C834 H842 0.930 . S
C835 C834 1.394 . S
C835 C836 1.383 . S
C835 H843 0.929 . S
C836 C835 1.383 . S
C836 C837 1.377 . S
C837 H821 0.930 . S
C837 C836 1.377 . S
C837 C838 1.379 . S
C838 H822 0.931 . S
C838 C832 1.383 . S
C838 C837 1.379 . S
H839 C833 0.959 . S
H840 C833 0.961 . S
H841 C833 0.960 . S
H842 C834 0.930 . S
H843 C835 0.929 . S
H844 C852 0.929 . S
H845 C854 0.930 . S
H846 C856 0.930 . S
H847 C859 0.929 . S
H848 C862 0.930 . S
H849 C864 0.960 . S
H850 C864 0.960 . S
H851 C864 0.960 . S
C852 H844 0.929 . S
C852 C853 1.377 . S
C852 C854 1.384 . S
C853 C852 1.377 . S
C853 C859 1.390 . S
C854 H845 0.930 . S
C854 C852 1.384 . S
C854 C855 1.372 . S
C855 C854 1.372 . S
C855 C856 1.400 . S
C855 C860 1.490 . S
C856 H846 0.930 . S
C856 C855 1.400 . S
C856 C859 1.386 . S
H857 C873 0.930 . S
H858 C874 0.931 . S
C859 H847 0.929 . S
C859 C853 1.390 . S
C859 C856 1.386 . S
C860 C855 1.490 . S
C860 C862 1.395 . S
C860 C863 1.403 . S
H861 C867 0.930 . S
C862 H848 0.930 . S
C862 C860 1.395 . S
C862 C865 1.403 . S
C863 C860 1.403 . S
C863 C864 1.524 . S
C863 C867 1.400 . S
C864 H849 0.960 . S
C864 H850 0.960 . S
C864 H851 0.960 . S
C864 C863 1.524 . S
C865 C862 1.403 . S
C865 C866 1.392 . S
C865 C869 1.495 . S
C866 C865 1.392 . S
C866 C867 1.385 . S
C866 C868 1.478 . S
C867 H861 0.930 . S
C867 C863 1.400 . S
C867 C866 1.385 . S
C868 C866 1.478 . S
C868 C870 1.381 . S
C868 C874 1.383 . S
C869 C865 1.495 . S
C869 H875 0.959 . S
C869 H876 0.961 . S
C869 H877 0.960 . S
C870 C868 1.381 . S
C870 C871 1.394 . S
C870 H878 0.930 . S
C871 C870 1.394 . S
C871 C872 1.383 . S
C871 H879 0.929 . S
C872 C871 1.383 . S
C872 C873 1.377 . S
C873 H857 0.930 . S
C873 C872 1.377 . S
C873 C874 1.379 . S
C874 H858 0.931 . S
C874 C868 1.383 . S
C874 C873 1.379 . S
H875 C869 0.959 . S
H876 C869 0.961 . S
H877 C869 0.960 . S
H878 C870 0.930 . S
H879 C871 0.929 . S
H880 C888 0.929 . S
H881 C890 0.930 . S
H882 C892 0.930 . S
H883 C895 0.929 . S
H884 C898 0.930 . S
H885 C900 0.960 . S
H886 C900 0.960 . S
H887 C900 0.960 . S
C888 H880 0.929 . S
C888 C889 1.377 . S
C888 C890 1.384 . S
C889 C888 1.377 . S
C889 C895 1.390 . S
C890 H881 0.930 . S
C890 C888 1.384 . S
C890 C891 1.372 . S
C891 C890 1.372 . S
C891 C892 1.400 . S
C891 C896 1.490 . S
C892 H882 0.930 . S
C892 C891 1.400 . S
C892 C895 1.386 . S
H893 C909 0.930 . S
H894 C910 0.931 . S
C895 H883 0.929 . S
C895 C889 1.390 . S
C895 C892 1.386 . S
C896 C891 1.490 . S
C896 C898 1.395 . S
C896 C899 1.403 1_565 S
H897 C903 0.930 . S
C898 H884 0.930 . S
C898 C896 1.395 . S
C898 C901 1.403 . S
C899 C896 1.403 1_545 S
C899 C900 1.524 . S
C899 C903 1.400 . S
C900 H885 0.960 . S
C900 H886 0.960 . S
C900 H887 0.960 . S
C900 C899 1.524 . S
C901 C898 1.403 . S
C901 C902 1.392 1_565 S
C901 C905 1.495 . S
C902 C901 1.392 1_545 S
C902 C903 1.385 . S
C902 C904 1.478 . S
C903 H897 0.930 . S
C903 C899 1.400 . S
C903 C902 1.385 . S
C904 C902 1.478 . S
C904 C906 1.381 . S
C904 C910 1.383 . S
C905 C901 1.495 . S
C905 H911 0.959 . S
C905 H912 0.961 . S
C905 H913 0.960 . S
C906 C904 1.381 . S
C906 C907 1.394 . S
C906 H914 0.930 . S
C907 C906 1.394 . S
C907 C908 1.383 . S
C907 H915 0.929 . S
C908 C907 1.383 . S
C908 C909 1.377 . S
C909 H893 0.930 . S
C909 C908 1.377 . S
C909 C910 1.379 . S
C910 H894 0.931 . S
C910 C904 1.383 . S
C910 C909 1.379 . S
H911 C905 0.959 . S
H912 C905 0.961 . S
H913 C905 0.960 . S
H914 C906 0.930 . S
H915 C907 0.929 . S
H916 C924 0.929 . S
H917 C926 0.930 . S
H918 C928 0.930 . S
H919 C931 0.929 . S
H920 C934 0.930 . S
H921 C936 0.960 . S
H922 C936 0.960 . S
H923 C936 0.960 . S
C924 H916 0.929 . S
C924 C925 1.377 . S
C924 C926 1.384 . S
C925 C924 1.377 . S
C925 C931 1.390 . S
C926 H917 0.930 . S
C926 C924 1.384 . S
C926 C927 1.372 . S
C927 C926 1.372 . S
C927 C928 1.400 . S
C927 C932 1.490 . S
C928 H918 0.930 . S
C928 C927 1.400 . S
C928 C931 1.386 . S
H929 C945 0.930 . S
H930 C946 0.931 . S
C931 H919 0.929 . S
C931 C925 1.390 . S
C931 C928 1.386 . S
C932 C927 1.490 . S
C932 C934 1.395 1_456 S
C932 C935 1.403 1_565 S
H933 C939 0.939 . S
C934 H920 0.930 . S
C934 C932 1.395 1_654 S
C934 C937 1.403 . S
C935 C932 1.403 1_545 S
C935 C936 1.524 . S
C935 C939 1.439 . S
C936 H921 0.960 . S
C936 H922 0.960 . S
C936 H923 0.960 . S
C936 C935 1.524 . S
C937 C934 1.403 . S
C937 C938 1.392 1_565 S
C937 C941 1.495 . S
C938 C937 1.392 1_545 S
C938 C939 1.344 1_654 S
C938 C940 1.478 . S
C939 H933 0.939 . S
C939 C935 1.439 . S
C939 C938 1.344 1_456 S
C940 C938 1.478 . S
C940 C942 1.381 . S
C940 C946 1.383 . S
C941 C937 1.495 . S
C941 H947 0.959 . S
C941 H948 0.961 . S
C941 H949 0.960 . S
C942 C940 1.381 . S
C942 C943 1.394 . S
C942 H950 0.930 . S
C943 C942 1.394 . S
C943 C944 1.383 . S
C943 H951 0.929 . S
C944 C943 1.383 . S
C944 C945 1.377 . S
C945 H929 0.930 . S
C945 C944 1.377 . S
C945 C946 1.379 . S
C946 H930 0.931 . S
C946 C940 1.383 . S
C946 C945 1.379 . S
H947 C941 0.959 . S
H948 C941 0.961 . S
H949 C941 0.960 . S
H950 C942 0.930 . S
H951 C943 0.929 . S
H952 C960 0.929 . S
H953 C962 0.930 . S
H954 C964 1.007 . S
H955 C967 0.929 . S
H956 C970 0.935 . S
H957 C972 0.960 . S
H958 C972 0.960 . S
H959 C972 0.960 . S
C960 H952 0.929 . S
C960 C961 1.377 . S
C960 C962 1.384 . S
C961 C960 1.377 . S
C961 C967 1.390 . S
C962 H953 0.930 . S
C962 C960 1.384 . S
C962 C963 1.372 . S
C963 C962 1.372 . S
C963 C964 1.400 . S
C963 C968 1.490 . S
C964 H954 1.007 . S
C964 C963 1.400 . S
C964 C967 1.386 . S
H965 C981 0.930 . S
H966 C982 0.931 . S
C967 H955 0.929 . S
C967 C961 1.390 . S
C967 C964 1.386 . S
C968 C963 1.490 . S
C968 C970 1.419 1_545 S
C968 C971 1.403 . S
H969 C975 0.937 . S
C970 H956 0.935 . S
C970 C968 1.419 1_565 S
C970 C973 1.378 1_556 S
C971 C968 1.403 . S
C971 C972 1.524 . S
C971 C975 1.377 1_546 S
C972 H957 0.960 . S
C972 H958 0.960 . S
C972 H959 0.960 . S
C972 C971 1.524 . S
C973 C970 1.378 1_554 S
C973 C974 1.392 . S
C973 C977 1.495 . S
C974 C973 1.392 . S
C974 C975 1.407 . S
C974 C976 1.478 . S
C975 H969 0.937 . S
C975 C971 1.377 1_564 S
C975 C974 1.407 . S
C976 C974 1.478 . S
C976 C978 1.381 . S
C976 C982 1.383 . S
C977 C973 1.495 . S
C977 H983 0.959 . S
C977 H984 0.961 . S
C977 H985 0.960 . S
C978 C976 1.381 . S
C978 C979 1.394 . S
C978 H986 0.941 . S
C979 C978 1.394 . S
C979 C980 1.383 . S
C979 H987 0.929 . S
C980 C979 1.383 . S
C980 C981 1.377 . S
C981 H965 0.930 . S
C981 C980 1.377 . S
C981 C982 1.379 . S
C982 H966 0.931 . S
C982 C976 1.383 . S
C982 C981 1.379 . S
H983 C977 0.959 . S
H984 C977 0.961 . S
H985 C977 0.960 . S
H986 C978 0.941 . S
H987 C979 0.929 . S
H988 C996 0.929 . S
H989 C998 0.930 . S
H990 C1000 0.930 . S
H991 C1003 0.929 . S
H992 C1006 0.930 . S
H993 C1008 0.960 . S
H994 C1008 0.960 . S
H995 C1008 0.960 . S
C996 H988 0.929 . S
C996 C997 1.377 . S
C996 C998 1.384 . S
C997 C996 1.377 . S
C997 C1003 1.390 . S
C998 H989 0.930 . S
C998 C996 1.384 . S
C998 C999 1.372 . S
C999 C998 1.372 . S
C999 C1000 1.400 . S
C999 C1004 1.490 . S
C1000 H990 0.930 . S
C1000 C999 1.400 . S
C1000 C1003 1.386 . S
H1001 C1017 0.930 . S
H1002 C1018 0.931 . S
C1003 H991 0.929 . S
C1003 C997 1.390 . S
C1003 C1000 1.386 . S
C1004 C999 1.490 . S
C1004 C1006 1.395 1_455 S
C1004 C1007 1.403 1_545 S
H1005 C1011 0.930 . S
C1006 H992 0.930 . S
C1006 C1004 1.395 1_655 S
C1006 C1009 1.403 . S
C1007 C1004 1.403 1_565 S
C1007 C1008 1.524 . S
C1007 C1011 1.400 . S
C1008 H993 0.960 . S
C1008 H994 0.960 . S
C1008 H995 0.960 . S
C1008 C1007 1.524 . S
C1009 C1006 1.403 . S
C1009 C1010 1.392 1_545 S
C1009 C1013 1.495 . S
C1010 C1009 1.392 1_565 S
C1010 C1011 1.385 1_655 S
C1010 C1012 1.478 . S
C1011 H1005 0.930 . S
C1011 C1007 1.400 . S
C1011 C1010 1.385 1_455 S
C1012 C1010 1.478 . S
C1012 C1014 1.381 . S
C1012 C1018 1.383 . S
C1013 C1009 1.495 . S
C1013 H1019 0.959 . S
C1013 H1020 0.961 . S
C1013 H1021 0.960 . S
C1014 C1012 1.381 . S
C1014 C1015 1.394 . S
C1014 H1022 0.930 . S
C1015 C1014 1.394 . S
C1015 C1016 1.383 . S
C1015 H1023 0.929 . S
C1016 C1015 1.383 . S
C1016 C1017 1.377 . S
C1017 H1001 0.930 . S
C1017 C1016 1.377 . S
C1017 C1018 1.379 . S
C1018 H1002 0.931 . S
C1018 C1012 1.383 . S
C1018 C1017 1.379 . S
H1019 C1013 0.959 . S
H1020 C1013 0.961 . S
H1021 C1013 0.960 . S
H1022 C1014 0.930 . S
H1023 C1015 0.929 . S
H1024 C1032 0.929 . S
H1025 C1034 0.930 . S
H1026 C1036 0.930 . S
H1027 C1039 0.929 . S
H1028 C1042 0.930 . S
H1029 C1044 0.960 . S
H1030 C1044 0.960 . S
H1031 C1044 0.960 . S
C1032 H1024 0.929 . S
C1032 C1033 1.377 . S
C1032 C1034 1.384 . S
C1033 C1032 1.377 . S
C1033 C1039 1.390 . S
C1034 H1025 0.930 . S
C1034 C1032 1.384 . S
C1034 C1035 1.372 . S
C1035 C1034 1.372 . S
C1035 C1036 1.400 . S
C1035 C1040 1.490 . S
C1036 H1026 0.930 . S
C1036 C1035 1.400 . S
C1036 C1039 1.386 . S
H1037 C1053 0.930 . S
H1038 C1054 0.931 . S
C1039 H1027 0.929 . S
C1039 C1033 1.390 . S
C1039 C1036 1.386 . S
C1040 C1035 1.490 . S
C1040 C1042 1.395 1_655 S
C1040 C1043 1.403 . S
H1041 C1047 0.930 . S
C1042 H1028 0.930 . S
C1042 C1040 1.395 1_455 S
C1042 C1045 1.403 . S
C1043 C1040 1.403 . S
C1043 C1044 1.524 . S
C1043 C1047 1.400 . S
C1044 H1029 0.960 . S
C1044 H1030 0.960 . S
C1044 H1031 0.960 . S
C1044 C1043 1.524 . S
C1045 C1042 1.403 . S
C1045 C1046 1.392 . S
C1045 C1049 1.495 . S
C1046 C1045 1.392 . S
C1046 C1047 1.385 1_455 S
C1046 C1048 1.478 . S
C1047 H1041 0.930 . S
C1047 C1043 1.400 . S
C1047 C1046 1.385 1_655 S
C1048 C1046 1.478 . S
C1048 C1050 1.381 . S
C1048 C1054 1.383 . S
C1049 C1045 1.495 . S
C1049 H1055 0.959 . S
C1049 H1056 0.961 . S
C1049 H1057 0.960 . S
C1050 C1048 1.381 . S
C1050 C1051 1.394 . S
C1050 H1058 0.930 . S
C1051 C1050 1.394 . S
C1051 C1052 1.383 . S
C1051 H1059 0.929 . S
C1052 C1051 1.383 . S
C1052 C1053 1.377 . S
C1053 H1037 0.930 . S
C1053 C1052 1.377 . S
C1053 C1054 1.379 . S
C1054 H1038 0.931 . S
C1054 C1048 1.383 . S
C1054 C1053 1.379 . S
H1055 C1049 0.959 . S
H1056 C1049 0.961 . S
H1057 C1049 0.960 . S
H1058 C1050 0.930 . S
H1059 C1051 0.929 . S
H1060 C1068 0.929 . S
H1061 C1070 0.930 . S
H1062 C1072 0.930 . S
H1063 C1075 0.929 . S
H1064 C1078 0.930 . S
H1065 C1080 0.960 . S
H1066 C1080 0.960 . S
H1067 C1080 0.960 . S
C1068 H1060 0.929 . S
C1068 C1069 1.377 . S
C1068 C1070 1.384 . S
C1069 C1068 1.377 . S
C1069 C1075 1.390 . S
C1070 H1061 0.930 . S
C1070 C1068 1.384 . S
C1070 C1071 1.372 . S
C1071 C1070 1.372 . S
C1071 C1072 1.400 . S
C1071 C1076 1.490 . S
C1072 H1062 0.930 . S
C1072 C1071 1.400 . S
C1072 C1075 1.386 . S
H1073 C1089 0.930 . S
H1074 C1090 0.931 . S
C1075 H1063 0.929 . S
C1075 C1069 1.390 . S
C1075 C1072 1.386 . S
C1076 C1071 1.490 . S
C1076 C1078 1.395 1_455 S
C1076 C1079 1.403 . S
H1077 C1083 0.930 . S
C1078 H1064 0.930 . S
C1078 C1076 1.395 1_655 S
C1078 C1081 1.403 . S
C1079 C1076 1.403 . S
C1079 C1080 1.524 . S
C1079 C1083 1.400 1_455 S
C1080 H1065 0.960 . S
C1080 H1066 0.960 . S
C1080 H1067 0.960 . S
C1080 C1079 1.524 . S
C1081 C1078 1.403 . S
C1081 C1082 1.392 . S
C1081 C1085 1.495 . S
C1082 C1081 1.392 . S
C1082 C1083 1.385 . S
C1082 C1084 1.478 . S
C1083 H1077 0.930 . S
C1083 C1079 1.400 1_655 S
C1083 C1082 1.385 . S
C1084 C1082 1.478 . S
C1084 C1086 1.381 . S
C1084 C1090 1.383 . S
C1085 C1081 1.495 . S
C1085 H1091 0.959 . S
C1085 H1092 0.961 . S
C1085 H1093 0.960 . S
C1086 C1084 1.381 . S
C1086 C1087 1.394 . S
C1086 H1094 0.930 . S
C1087 C1086 1.394 . S
C1087 C1088 1.383 . S
C1087 H1095 0.929 . S
C1088 C1087 1.383 . S
C1088 C1089 1.377 . S
C1089 H1073 0.930 . S
C1089 C1088 1.377 . S
C1089 C1090 1.379 . S
C1090 H1074 0.931 . S
C1090 C1084 1.383 . S
C1090 C1089 1.379 . S
H1091 C1085 0.959 . S
H1092 C1085 0.961 . S
H1093 C1085 0.960 . S
H1094 C1086 0.930 . S
H1095 C1087 0.929 . S
H1096 C1104 0.929 . S
H1097 C1106 0.930 . S
H1098 C1108 0.930 . S
H1099 C1111 0.929 . S
H1100 C1114 0.930 . S
H1101 C1116 0.960 . S
H1102 C1116 0.960 . S
H1103 C1116 0.960 . S
C1104 H1096 0.929 . S
C1104 C1105 1.377 . S
C1104 C1106 1.384 . S
C1105 C1104 1.377 . S
C1105 C1111 1.390 . S
C1106 H1097 0.930 . S
C1106 C1104 1.384 . S
C1106 C1107 1.372 . S
C1107 C1106 1.372 . S
C1107 C1108 1.400 . S
C1107 C1112 1.490 . S
C1108 H1098 0.930 . S
C1108 C1107 1.400 . S
C1108 C1111 1.386 . S
H1109 C1125 0.930 . S
H1110 C1126 0.931 . S
C1111 H1099 0.929 . S
C1111 C1105 1.390 . S
C1111 C1108 1.386 . S
C1112 C1107 1.490 . S
C1112 C1114 1.395 . S
C1112 C1115 1.403 . S
H1113 C1119 0.930 . S
C1114 H1100 0.930 . S
C1114 C1112 1.395 . S
C1114 C1117 1.403 . S
C1115 C1112 1.403 . S
C1115 C1116 1.524 . S
C1115 C1119 1.400 . S
C1116 H1101 0.960 . S
C1116 H1102 0.960 . S
C1116 H1103 0.960 . S
C1116 C1115 1.524 . S
C1117 C1114 1.403 . S
C1117 C1118 1.392 . S
C1117 C1121 1.495 . S
C1118 C1117 1.392 . S
C1118 C1119 1.385 . S
C1118 C1120 1.478 . S
C1119 H1113 0.930 . S
C1119 C1115 1.400 . S
C1119 C1118 1.385 . S
C1120 C1118 1.478 . S
C1120 C1122 1.381 . S
C1120 C1126 1.383 . S
C1121 C1117 1.495 . S
C1121 H1127 0.959 . S
C1121 H1128 0.961 . S
C1121 H1129 0.960 . S
C1122 C1120 1.381 . S
C1122 C1123 1.394 . S
C1122 H1130 0.930 . S
C1123 C1122 1.394 . S
C1123 C1124 1.383 . S
C1123 H1131 0.929 . S
C1124 C1123 1.383 . S
C1124 C1125 1.377 . S
C1125 H1109 0.930 . S
C1125 C1124 1.377 . S
C1125 C1126 1.379 . S
C1126 H1110 0.931 . S
C1126 C1120 1.383 . S
C1126 C1125 1.379 . S
H1127 C1121 0.959 . S
H1128 C1121 0.961 . S
H1129 C1121 0.960 . S
H1130 C1122 0.930 . S
H1131 C1123 0.929 . S
H1132 C1140 0.929 . S
H1133 C1142 0.930 . S
H1134 C1144 0.930 . S
H1135 C1147 0.929 . S
H1136 C1150 0.930 . S
H1137 C1152 0.960 . S
H1138 C1152 0.960 . S
H1139 C1152 0.960 . S
C1140 H1132 0.929 . S
C1140 C1141 1.377 . S
C1140 C1142 1.384 . S
C1141 C1140 1.377 . S
C1141 C1147 1.390 . S
C1142 H1133 0.930 . S
C1142 C1140 1.384 . S
C1142 C1143 1.372 . S
C1143 C1142 1.372 . S
C1143 C1144 1.400 . S
C1143 C1148 1.490 . S
C1144 H1134 0.930 . S
C1144 C1143 1.400 . S
C1144 C1147 1.386 . S
H1145 C1161 0.930 . S
H1146 C1162 0.931 . S
C1147 H1135 0.929 . S
C1147 C1141 1.390 . S
C1147 C1144 1.386 . S
C1148 C1143 1.490 . S
C1148 C1150 1.395 . S
C1148 C1151 1.403 . S
H1149 C1155 0.930 . S
C1150 H1136 0.930 . S
C1150 C1148 1.395 . S
C1150 C1153 1.403 . S
C1151 C1148 1.403 . S
C1151 C1152 1.524 . S
C1151 C1155 1.400 . S
C1152 H1137 0.960 . S
C1152 H1138 0.960 . S
C1152 H1139 0.960 . S
C1152 C1151 1.524 . S
C1153 C1150 1.403 . S
C1153 C1154 1.392 . S
C1153 C1157 1.495 . S
C1154 C1153 1.392 . S
C1154 C1155 1.385 . S
C1154 C1156 1.478 . S
C1155 H1149 0.930 . S
C1155 C1151 1.400 . S
C1155 C1154 1.385 . S
C1156 C1154 1.478 . S
C1156 C1158 1.381 . S
C1156 C1162 1.383 . S
C1157 C1153 1.495 . S
C1157 H1163 0.959 . S
C1157 H1164 0.961 . S
C1157 H1165 0.960 . S
C1158 C1156 1.381 . S
C1158 C1159 1.394 . S
C1158 H1166 0.930 . S
C1159 C1158 1.394 . S
C1159 C1160 1.383 . S
C1159 H1167 0.929 . S
C1160 C1159 1.383 . S
C1160 C1161 1.377 . S
C1161 H1145 0.930 . S
C1161 C1160 1.377 . S
C1161 C1162 1.379 . S
C1162 H1146 0.931 . S
C1162 C1156 1.383 . S
C1162 C1161 1.379 . S
H1163 C1157 0.959 . S
H1164 C1157 0.961 . S
H1165 C1157 0.960 . S
H1166 C1158 0.930 . S
H1167 C1159 0.929 . S
H1168 C1176 0.929 . S
H1169 C1178 0.930 . S
H1170 C1180 0.930 . S
H1171 C1183 0.929 . S
H1172 C1186 0.930 . S
H1173 C1188 0.960 . S
H1174 C1188 0.960 . S
H1175 C1188 0.960 . S
C1176 H1168 0.929 . S
C1176 C1177 1.377 . S
C1176 C1178 1.384 . S
C1177 C1176 1.377 . S
C1177 C1183 1.390 . S
C1178 H1169 0.930 . S
C1178 C1176 1.384 . S
C1178 C1179 1.372 . S
C1179 C1178 1.372 . S
C1179 C1180 1.400 . S
C1179 C1184 1.490 . S
C1180 H1170 0.930 . S
C1180 C1179 1.400 . S
C1180 C1183 1.386 . S
H1181 C1197 0.930 . S
H1182 C1198 0.931 . S
C1183 H1171 0.929 . S
C1183 C1177 1.390 . S
C1183 C1180 1.386 . S
C1184 C1179 1.490 . S
C1184 C1186 1.395 . S
C1184 C1187 1.403 1_655 S
H1185 C1191 0.930 . S
C1186 H1172 0.930 . S
C1186 C1184 1.395 . S
C1186 C1189 1.403 . S
C1187 C1184 1.403 1_455 S
C1187 C1188 1.524 . S
C1187 C1191 1.400 . S
C1188 H1173 0.960 . S
C1188 H1174 0.960 . S
C1188 H1175 0.960 . S
C1188 C1187 1.524 . S
C1189 C1186 1.403 . S
C1189 C1190 1.392 1_655 S
C1189 C1193 1.495 . S
C1190 C1189 1.392 1_455 S
C1190 C1191 1.385 . S
C1190 C1192 1.478 . S
C1191 H1185 0.930 . S
C1191 C1187 1.400 . S
C1191 C1190 1.385 . S
C1192 C1190 1.478 . S
C1192 C1194 1.381 . S
C1192 C1198 1.383 . S
C1193 C1189 1.495 . S
C1193 H1199 0.959 . S
C1193 H1200 0.961 . S
C1193 H1201 0.960 . S
C1194 C1192 1.381 . S
C1194 C1195 1.394 . S
C1194 H1202 0.930 . S
C1195 C1194 1.394 . S
C1195 C1196 1.383 . S
C1195 H1203 0.929 . S
C1196 C1195 1.383 . S
C1196 C1197 1.377 . S
C1197 H1181 0.930 . S
C1197 C1196 1.377 . S
C1197 C1198 1.379 . S
C1198 H1182 0.931 . S
C1198 C1192 1.383 . S
C1198 C1197 1.379 . S
H1199 C1193 0.959 . S
H1200 C1193 0.961 . S
H1201 C1193 0.960 . S
H1202 C1194 0.930 . S
H1203 C1195 0.929 . S
H1204 C1212 0.929 . S
H1205 C1214 0.930 . S
H1206 C1216 0.930 . S
H1207 C1219 0.929 . S
H1208 C1222 0.930 . S
H1209 C1224 0.960 . S
H1210 C1224 0.960 . S
H1211 C1224 0.960 . S
C1212 H1204 0.929 . S
C1212 C1213 1.377 . S
C1212 C1214 1.384 . S
C1213 C1212 1.377 . S
C1213 C1219 1.390 . S
C1214 H1205 0.930 . S
C1214 C1212 1.384 . S
C1214 C1215 1.372 . S
C1215 C1214 1.372 . S
C1215 C1216 1.400 . S
C1215 C1220 1.490 . S
C1216 H1206 0.930 . S
C1216 C1215 1.400 . S
C1216 C1219 1.386 . S
H1217 C1233 0.930 . S
H1218 C1234 0.931 . S
C1219 H1207 0.929 . S
C1219 C1213 1.390 . S
C1219 C1216 1.386 . S
C1220 C1215 1.490 . S
C1220 C1222 1.395 . S
C1220 C1223 1.403 . S
H1221 C1227 0.930 . S
C1222 H1208 0.930 . S
C1222 C1220 1.395 . S
C1222 C1225 1.403 . S
C1223 C1220 1.403 . S
C1223 C1224 1.524 . S
C1223 C1227 1.400 . S
C1224 H1209 0.960 . S
C1224 H1210 0.960 . S
C1224 H1211 0.960 . S
C1224 C1223 1.524 . S
C1225 C1222 1.403 . S
C1225 C1226 1.392 . S
C1225 C1229 1.495 . S
C1226 C1225 1.392 . S
C1226 C1227 1.385 . S
C1226 C1228 1.478 . S
C1227 H1221 0.930 . S
C1227 C1223 1.400 . S
C1227 C1226 1.385 . S
C1228 C1226 1.478 . S
C1228 C1230 1.381 . S
C1228 C1234 1.383 . S
C1229 C1225 1.495 . S
C1229 H1235 0.959 . S
C1229 H1236 0.961 . S
C1229 H1237 0.960 . S
C1230 C1228 1.381 . S
C1230 C1231 1.394 . S
C1230 H1238 0.930 . S
C1231 C1230 1.394 . S
C1231 C1232 1.383 . S
C1231 H1239 0.929 . S
C1232 C1231 1.383 . S
C1232 C1233 1.377 . S
C1233 H1217 0.930 . S
C1233 C1232 1.377 . S
C1233 C1234 1.379 . S
C1234 H1218 0.931 . S
C1234 C1228 1.383 . S
C1234 C1233 1.379 . S
H1235 C1229 0.959 . S
H1236 C1229 0.961 . S
H1237 C1229 0.960 . S
H1238 C1230 0.930 . S
H1239 C1231 0.929 . S
H1240 C1248 0.929 . S
H1241 C1250 0.930 . S
H1242 C1252 0.930 . S
H1243 C1255 0.929 . S
H1244 C1258 0.930 . S
H1245 C1260 0.960 . S
H1246 C1260 0.960 . S
H1247 C1260 0.960 . S
C1248 H1240 0.929 . S
C1248 C1249 1.377 . S
C1248 C1250 1.384 . S
C1249 C1248 1.377 . S
C1249 C1255 1.390 . S
C1250 H1241 0.930 . S
C1250 C1248 1.384 . S
C1250 C1251 1.372 . S
C1251 C1250 1.372 . S
C1251 C1252 1.400 . S
C1251 C1256 1.490 . S
C1252 H1242 0.930 . S
C1252 C1251 1.400 . S
C1252 C1255 1.386 . S
H1253 C1269 0.930 . S
H1254 C1270 0.931 . S
C1255 H1243 0.929 . S
C1255 C1249 1.390 . S
C1255 C1252 1.386 . S
C1256 C1251 1.490 . S
C1256 C1258 1.395 . S
C1256 C1259 1.403 . S
H1257 C1263 0.930 . S
C1258 H1244 0.930 . S
C1258 C1256 1.395 . S
C1258 C1261 1.403 . S
C1259 C1256 1.403 . S
C1259 C1260 1.524 . S
C1259 C1263 1.400 . S
C1260 H1245 0.960 . S
C1260 H1246 0.960 . S
C1260 H1247 0.960 . S
C1260 C1259 1.524 . S
C1261 C1258 1.403 . S
C1261 C1262 1.392 . S
C1261 C1265 1.495 . S
C1262 C1261 1.392 . S
C1262 C1263 1.385 . S
C1262 C1264 1.478 . S
C1263 H1257 0.930 . S
C1263 C1259 1.400 . S
C1263 C1262 1.385 . S
C1264 C1262 1.478 . S
C1264 C1266 1.381 . S
C1264 C1270 1.383 . S
C1265 C1261 1.495 . S
C1265 H1271 0.959 . S
C1265 H1272 0.961 . S
C1265 H1273 0.960 . S
C1266 C1264 1.381 . S
C1266 C1267 1.394 . S
C1266 H1274 0.930 . S
C1267 C1266 1.394 . S
C1267 C1268 1.383 . S
C1267 H1275 0.929 . S
C1268 C1267 1.383 . S
C1268 C1269 1.377 . S
C1269 H1253 0.930 . S
C1269 C1268 1.377 . S
C1269 C1270 1.379 . S
C1270 H1254 0.931 . S
C1270 C1264 1.383 . S
C1270 C1269 1.379 . S
H1271 C1265 0.959 . S
H1272 C1265 0.961 . S
H1273 C1265 0.960 . S
H1274 C1266 0.930 . S
H1275 C1267 0.929 . S
H1276 C1284 0.929 . S
H1277 C1286 0.930 . S
H1278 C1288 0.930 . S
H1279 C1291 0.929 . S
H1280 C1294 0.930 . S
H1281 C1296 0.960 . S
H1282 C1296 0.960 . S
H1283 C1296 0.960 . S
C1284 H1276 0.929 . S
C1284 C1285 1.377 . S
C1284 C1286 1.384 . S
C1285 C1284 1.377 . S
C1285 C1291 1.390 . S
C1286 H1277 0.930 . S
C1286 C1284 1.384 . S
C1286 C1287 1.372 . S
C1287 C1286 1.372 . S
C1287 C1288 1.400 . S
C1287 C1292 1.490 . S
C1288 H1278 0.930 . S
C1288 C1287 1.400 . S
C1288 C1291 1.386 . S
H1289 C1305 0.930 . S
H1290 C1306 0.931 . S
C1291 H1279 0.929 . S
C1291 C1285 1.390 . S
C1291 C1288 1.386 . S
C1292 C1287 1.490 . S
C1292 C1294 1.395 1_455 S
C1292 C1295 1.403 . S
H1293 C1299 0.930 . S
C1294 H1280 0.930 . S
C1294 C1292 1.395 1_655 S
C1294 C1297 1.403 . S
C1295 C1292 1.403 . S
C1295 C1296 1.524 . S
C1295 C1299 1.362 1_455 S
C1296 H1281 0.960 . S
C1296 H1282 0.960 . S
C1296 H1283 0.960 . S
C1296 C1295 1.524 . S
C1297 C1294 1.403 . S
C1297 C1298 1.392 . S
C1297 C1301 1.495 . S
C1298 C1297 1.392 . S
C1298 C1299 1.425 . S
C1298 C1300 1.478 . S
C1299 H1293 0.930 . S
C1299 C1295 1.362 1_655 S
C1299 C1298 1.425 . S
C1300 C1298 1.478 . S
C1300 C1302 1.381 . S
C1300 C1306 1.383 . S
C1301 C1297 1.495 . S
C1301 H1307 0.959 . S
C1301 H1308 0.961 . S
C1301 H1309 0.960 . S
C1302 C1300 1.381 . S
C1302 C1303 1.394 . S
C1302 H1310 0.930 . S
C1303 C1302 1.394 . S
C1303 C1304 1.383 . S
C1303 H1311 0.929 . S
C1304 C1303 1.383 . S
C1304 C1305 1.377 . S
C1305 H1289 0.930 . S
C1305 C1304 1.377 . S
C1305 C1306 1.379 . S
C1306 H1290 0.931 . S
C1306 C1300 1.383 . S
C1306 C1305 1.379 . S
H1307 C1301 0.959 . S
H1308 C1301 0.961 . S
H1309 C1301 0.960 . S
H1310 C1302 0.930 . S
H1311 C1303 0.929 . S
H1312 C1320 0.929 . S
H1313 C1322 0.930 . S
H1314 C1324 0.930 . S
H1315 C1327 0.929 . S
H1316 C1330 0.930 . S
H1317 C1332 0.960 1_455 S
H1318 C1332 0.960 1_455 S
H1319 C1332 0.960 . S
C1320 H1312 0.929 . S
C1320 C1321 1.377 . S
C1320 C1322 1.384 . S
C1321 C1320 1.377 . S
C1321 C1327 1.390 . S
C1322 H1313 0.930 . S
C1322 C1320 1.384 . S
C1322 C1323 1.372 . S
C1323 C1322 1.372 . S
C1323 C1324 1.400 . S
C1323 C1328 1.490 . S
C1324 H1314 0.930 . S
C1324 C1323 1.400 . S
C1324 C1327 1.386 . S
H1325 C1341 0.930 . S
H1326 C1342 0.931 . S
C1327 H1315 0.929 . S
C1327 C1321 1.390 . S
C1327 C1324 1.386 . S
C1328 C1323 1.490 . S
C1328 C1330 1.395 . S
C1328 C1331 1.403 . S
H1329 C1335 0.930 . S
C1330 H1316 0.930 . S
C1330 C1328 1.395 . S
C1330 C1333 1.403 1_655 S
C1331 C1328 1.403 . S
C1331 C1332 1.524 . S
C1331 C1335 1.400 1_655 S
C1332 H1317 0.960 1_655 S
C1332 H1318 0.960 1_655 S
C1332 H1319 0.960 . S
C1332 C1331 1.524 . S
C1333 C1330 1.403 1_455 S
C1333 C1334 1.392 . S
C1333 C1337 1.495 . S
C1334 C1333 1.392 . S
C1334 C1335 1.385 . S
C1334 C1336 1.478 . S
C1335 H1329 0.930 . S
C1335 C1331 1.400 1_455 S
C1335 C1334 1.385 . S
C1336 C1334 1.478 . S
C1336 C1338 1.381 . S
C1336 C1342 1.383 . S
C1337 C1333 1.495 . S
C1337 H1343 0.959 1_455 S
C1337 H1344 0.961 1_455 S
C1337 H1345 0.960 . S
C1338 C1336 1.381 . S
C1338 C1339 1.394 . S
C1338 H1346 0.930 . S
C1339 C1338 1.394 . S
C1339 C1340 1.383 . S
C1339 H1347 0.929 . S
C1340 C1339 1.383 . S
C1340 C1341 1.377 . S
C1341 H1325 0.930 . S
C1341 C1340 1.377 . S
C1341 C1342 1.379 . S
C1342 H1326 0.931 . S
C1342 C1336 1.383 . S
C1342 C1341 1.379 . S
H1343 C1337 0.959 1_655 S
H1344 C1337 0.961 1_655 S
H1345 C1337 0.960 . S
H1346 C1338 0.930 . S
H1347 C1339 0.929 . S
H1348 C1356 0.929 . S
H1349 C1358 0.930 . S
H1350 C1360 0.930 . S
H1351 C1363 0.929 . S
H1352 C1366 0.930 . S
H1353 C1368 0.960 . S
H1354 C1368 0.960 . S
H1355 C1368 0.960 . S
C1356 H1348 0.929 . S
C1356 C1357 1.377 . S
C1356 C1358 1.384 . S
C1357 C1356 1.377 . S
C1357 C1363 1.390 . S
C1358 H1349 0.930 . S
C1358 C1356 1.384 . S
C1358 C1359 1.372 . S
C1359 C1358 1.372 . S
C1359 C1360 1.400 . S
C1359 C1364 1.490 . S
C1360 H1350 0.930 . S
C1360 C1359 1.400 . S
C1360 C1363 1.386 . S
H1361 C1377 0.930 . S
H1362 C1378 0.931 . S
C1363 H1351 0.929 . S
C1363 C1357 1.390 . S
C1363 C1360 1.386 . S
C1364 C1359 1.490 . S
C1364 C1366 1.395 1_655 S
C1364 C1367 1.403 . S
H1365 C1371 0.928 1_655 S
C1366 H1352 0.930 . S
C1366 C1364 1.395 1_455 S
C1366 C1369 1.403 . S
C1367 C1364 1.403 . S
C1367 C1368 1.524 . S
C1367 C1371 1.392 1_655 S
C1368 H1353 0.960 . S
C1368 H1354 0.960 . S
C1368 H1355 0.960 . S
C1368 C1367 1.524 . S
C1369 C1366 1.403 . S
C1369 C1370 1.392 . S
C1369 C1373 1.495 . S
C1370 C1369 1.392 . S
C1370 C1371 1.394 . S
C1370 C1372 1.478 . S
C1371 H1365 0.928 1_455 S
C1371 C1367 1.392 1_455 S
C1371 C1370 1.394 . S
C1372 C1370 1.478 . S
C1372 C1374 1.381 . S
C1372 C1378 1.383 . S
C1373 C1369 1.495 . S
C1373 H1379 0.959 . S
C1373 H1380 0.961 . S
C1373 H1381 0.960 . S
C1374 C1372 1.381 . S
C1374 C1375 1.394 . S
C1374 H1382 0.930 . S
C1375 C1374 1.394 . S
C1375 C1376 1.383 . S
C1375 H1383 0.929 . S
C1376 C1375 1.383 . S
C1376 C1377 1.377 . S
C1377 H1361 0.930 . S
C1377 C1376 1.377 . S
C1377 C1378 1.379 . S
C1378 H1362 0.931 . S
C1378 C1372 1.383 . S
C1378 C1377 1.379 . S
H1379 C1373 0.959 . S
H1380 C1373 0.961 . S
H1381 C1373 0.960 . S
H1382 C1374 0.930 . S
H1383 C1375 0.929 . S
H1384 C1392 0.929 . S
H1385 C1394 0.930 . S
H1386 C1396 0.930 . S
H1387 C1399 0.929 . S
H1388 C1402 0.930 . S
H1389 C1404 0.960 . S
H1390 C1404 0.960 . S
H1391 C1404 0.960 . S
C1392 H1384 0.929 . S
C1392 C1393 1.377 . S
C1392 C1394 1.384 . S
C1393 C1392 1.377 . S
C1393 C1399 1.390 . S
C1394 H1385 0.930 . S
C1394 C1392 1.384 . S
C1394 C1395 1.372 . S
C1395 C1394 1.372 . S
C1395 C1396 1.400 . S
C1395 C1400 1.490 . S
C1396 H1386 0.930 . S
C1396 C1395 1.400 . S
C1396 C1399 1.386 . S
H1397 C1413 0.930 . S
H1398 C1414 0.931 . S
C1399 H1387 0.929 . S
C1399 C1393 1.390 . S
C1399 C1396 1.386 . S
C1400 C1395 1.490 . S
C1400 C1402 1.395 . S
C1400 C1403 1.403 . S
H1401 C1407 0.930 . S
C1402 H1388 0.930 . S
C1402 C1400 1.395 . S
C1402 C1405 1.403 . S
C1403 C1400 1.403 . S
C1403 C1404 1.524 . S
C1403 C1407 1.400 . S
C1404 H1389 0.960 . S
C1404 H1390 0.960 . S
C1404 H1391 0.960 . S
C1404 C1403 1.524 . S
C1405 C1402 1.403 . S
C1405 C1406 1.392 . S
C1405 C1409 1.495 . S
C1406 C1405 1.392 . S
C1406 C1407 1.385 . S
C1406 C1408 1.478 . S
C1407 H1401 0.930 . S
C1407 C1403 1.400 . S
C1407 C1406 1.385 . S
C1408 C1406 1.478 . S
C1408 C1410 1.381 . S
C1408 C1414 1.383 . S
C1409 C1405 1.495 . S
C1409 H1415 0.959 . S
C1409 H1416 0.961 . S
C1409 H1417 0.960 . S
C1410 C1408 1.381 . S
C1410 C1411 1.394 . S
C1410 H1418 0.930 . S
C1411 C1410 1.394 . S
C1411 C1412 1.383 . S
C1411 H1419 0.929 . S
C1412 C1411 1.383 . S
C1412 C1413 1.377 . S
C1413 H1397 0.930 . S
C1413 C1412 1.377 . S
C1413 C1414 1.379 . S
C1414 H1398 0.931 . S
C1414 C1408 1.383 . S
C1414 C1413 1.379 . S
H1415 C1409 0.959 . S
H1416 C1409 0.961 . S
H1417 C1409 0.960 . S
H1418 C1410 0.930 . S
H1419 C1411 0.929 . S
H1420 C1428 0.929 . S
H1421 C1430 0.930 . S
H1422 C1432 0.930 . S
H1423 C1435 0.929 . S
H1424 C1438 0.930 . S
H1425 C1440 0.960 . S
H1426 C1440 0.960 . S
H1427 C1440 0.960 . S
C1428 H1420 0.929 . S
C1428 C1429 1.377 . S
C1428 C1430 1.384 . S
C1429 C1428 1.377 . S
C1429 C1435 1.390 . S
C1430 H1421 0.930 . S
C1430 C1428 1.384 . S
C1430 C1431 1.372 . S
C1431 C1430 1.372 . S
C1431 C1432 1.400 . S
C1431 C1436 1.490 . S
C1432 H1422 0.930 . S
C1432 C1431 1.400 . S
C1432 C1435 1.386 . S
H1433 C1449 0.930 . S
H1434 C1450 0.931 . S
C1435 H1423 0.929 . S
C1435 C1429 1.390 . S
C1435 C1432 1.386 . S
C1436 C1431 1.490 . S
C1436 C1438 1.395 . S
C1436 C1439 1.403 . S
H1437 C1443 0.930 . S
C1438 H1424 0.930 . S
C1438 C1436 1.395 . S
C1438 C1441 1.403 . S
C1439 C1436 1.403 . S
C1439 C1440 1.524 . S
C1439 C1443 1.400 . S
C1440 H1425 0.960 . S
C1440 H1426 0.960 . S
C1440 H1427 0.960 . S
C1440 C1439 1.524 . S
C1441 C1438 1.403 . S
C1441 C1442 1.392 . S
C1441 C1445 1.495 . S
C1442 C1441 1.392 . S
C1442 C1443 1.385 . S
C1442 C1444 1.478 . S
C1443 H1437 0.930 . S
C1443 C1439 1.400 . S
C1443 C1442 1.385 . S
C1444 C1442 1.478 . S
C1444 C1446 1.381 . S
C1444 C1450 1.383 . S
C1445 C1441 1.495 . S
C1445 H1451 0.959 . S
C1445 H1452 0.961 . S
C1445 H1453 0.960 . S
C1446 C1444 1.381 . S
C1446 C1447 1.394 . S
C1446 H1454 0.930 . S
C1447 C1446 1.394 . S
C1447 C1448 1.383 . S
C1447 H1455 0.929 . S
C1448 C1447 1.383 . S
C1448 C1449 1.377 . S
C1449 H1433 0.930 . S
C1449 C1448 1.377 . S
C1449 C1450 1.379 . S
C1450 H1434 0.931 . S
C1450 C1444 1.383 . S
C1450 C1449 1.379 . S
H1451 C1445 0.959 . S
H1452 C1445 0.961 . S
H1453 C1445 0.960 . S
H1454 C1446 0.930 . S
H1455 C1447 0.929 . S
H1456 C1464 0.929 . S
H1457 C1466 0.930 . S
H1458 C1468 0.930 . S
H1459 C1471 0.929 . S
H1460 C1474 0.930 . S
H1461 C1476 0.960 . S
H1462 C1476 0.960 . S
H1463 C1476 0.960 . S
C1464 H1456 0.929 . S
C1464 C1465 1.377 . S
C1464 C1466 1.384 . S
C1465 C1464 1.377 . S
C1465 C1471 1.390 . S
C1466 H1457 0.930 . S
C1466 C1464 1.384 . S
C1466 C1467 1.372 . S
C1467 C1466 1.372 . S
C1467 C1468 1.400 . S
C1467 C1472 1.490 . S
C1468 H1458 0.930 . S
C1468 C1467 1.400 . S
C1468 C1471 1.386 . S
H1469 C1485 0.930 . S
H1470 C1486 0.931 . S
C1471 H1459 0.929 . S
C1471 C1465 1.390 . S
C1471 C1468 1.386 . S
C1472 C1467 1.490 . S
C1472 C1474 1.395 . S
C1472 C1475 1.403 1_655 S
H1473 C1479 0.930 . S
C1474 H1460 0.930 . S
C1474 C1472 1.395 . S
C1474 C1477 1.403 . S
C1475 C1472 1.403 1_455 S
C1475 C1476 1.524 . S
C1475 C1479 1.400 . S
C1476 H1461 0.960 . S
C1476 H1462 0.960 . S
C1476 H1463 0.960 . S
C1476 C1475 1.524 . S
C1477 C1474 1.403 . S
C1477 C1478 1.392 1_655 S
C1477 C1481 1.495 . S
C1478 C1477 1.392 1_455 S
C1478 C1479 1.385 . S
C1478 C1480 1.478 . S
C1479 H1473 0.930 . S
C1479 C1475 1.400 . S
C1479 C1478 1.385 . S
C1480 C1478 1.478 . S
C1480 C1482 1.381 . S
C1480 C1486 1.383 . S
C1481 C1477 1.495 . S
C1481 H1487 0.959 . S
C1481 H1488 0.961 . S
C1481 H1489 0.960 . S
C1482 C1480 1.381 . S
C1482 C1483 1.394 . S
C1482 H1490 0.930 . S
C1483 C1482 1.394 . S
C1483 C1484 1.383 . S
C1483 H1491 0.929 . S
C1484 C1483 1.383 . S
C1484 C1485 1.377 . S
C1485 H1469 0.930 . S
C1485 C1484 1.377 . S
C1485 C1486 1.379 . S
C1486 H1470 0.931 . S
C1486 C1480 1.383 . S
C1486 C1485 1.379 . S
H1487 C1481 0.959 . S
H1488 C1481 0.961 . S
H1489 C1481 0.960 . S
H1490 C1482 0.930 . S
H1491 C1483 0.929 . S
H1492 C1500 0.929 . S
H1493 C1502 0.930 . S
H1494 C1504 0.930 . S
H1495 C1507 0.929 . S
H1496 C1510 0.930 . S
H1497 C1512 0.960 . S
H1498 C1512 0.960 . S
H1499 C1512 0.960 . S
C1500 H1492 0.929 . S
C1500 C1501 1.377 . S
C1500 C1502 1.384 . S
C1501 C1500 1.377 . S
C1501 C1507 1.390 . S
C1502 H1493 0.930 . S
C1502 C1500 1.384 . S
C1502 C1503 1.372 . S
C1503 C1502 1.372 . S
C1503 C1504 1.400 . S
C1503 C1508 1.490 . S
C1504 H1494 0.930 . S
C1504 C1503 1.400 . S
C1504 C1507 1.386 . S
H1505 C1521 0.930 . S
H1506 C1522 0.931 . S
C1507 H1495 0.929 . S
C1507 C1501 1.390 . S
C1507 C1504 1.386 . S
C1508 C1503 1.490 . S
C1508 C1510 1.395 . S
C1508 C1511 1.403 . S
H1509 C1515 0.930 . S
C1510 H1496 0.930 . S
C1510 C1508 1.395 . S
C1510 C1513 1.403 . S
C1511 C1508 1.403 . S
C1511 C1512 1.524 . S
C1511 C1515 1.400 . S
C1512 H1497 0.960 . S
C1512 H1498 0.960 . S
C1512 H1499 0.960 . S
C1512 C1511 1.524 . S
C1513 C1510 1.403 . S
C1513 C1514 1.392 . S
C1513 C1517 1.495 . S
C1514 C1513 1.392 . S
C1514 C1515 1.385 . S
C1514 C1516 1.478 . S
C1515 H1509 0.930 . S
C1515 C1511 1.400 . S
C1515 C1514 1.385 . S
C1516 C1514 1.478 . S
C1516 C1518 1.381 . S
C1516 C1522 1.383 . S
C1517 C1513 1.495 . S
C1517 H1523 0.959 . S
C1517 H1524 0.961 . S
C1517 H1525 0.960 . S
C1518 C1516 1.381 . S
C1518 C1519 1.394 . S
C1518 H1526 0.930 . S
C1519 C1518 1.394 . S
C1519 C1520 1.383 . S
C1519 H1527 0.929 . S
C1520 C1519 1.383 . S
C1520 C1521 1.377 . S
C1521 H1505 0.930 . S
C1521 C1520 1.377 . S
C1521 C1522 1.379 . S
C1522 H1506 0.931 . S
C1522 C1516 1.383 . S
C1522 C1521 1.379 . S
H1523 C1517 0.959 . S
H1524 C1517 0.961 . S
H1525 C1517 0.960 . S
H1526 C1518 0.930 . S
H1527 C1519 0.929 . S
H1528 C1536 0.929 . S
H1529 C1538 0.930 . S
H1530 C1540 0.930 . S
H1531 C1543 0.929 . S
H1532 C1546 0.930 . S
H1533 C1548 0.960 . S
H1534 C1548 0.960 . S
H1535 C1548 0.960 . S
C1536 H1528 0.929 . S
C1536 C1537 1.377 . S
C1536 C1538 1.384 . S
C1537 C1536 1.377 . S
C1537 C1543 1.390 . S
C1538 H1529 0.930 . S
C1538 C1536 1.384 . S
C1538 C1539 1.372 . S
C1539 C1538 1.372 . S
C1539 C1540 1.400 . S
C1539 C1544 1.490 . S
C1540 H1530 0.930 . S
C1540 C1539 1.400 . S
C1540 C1543 1.386 . S
H1541 C1557 0.930 . S
H1542 C1558 0.931 . S
C1543 H1531 0.929 . S
C1543 C1537 1.390 . S
C1543 C1540 1.386 . S
C1544 C1539 1.490 . S
C1544 C1546 1.395 . S
C1544 C1547 1.403 . S
H1545 C1551 0.930 . S
C1546 H1532 0.930 . S
C1546 C1544 1.395 . S
C1546 C1549 1.403 . S
C1547 C1544 1.403 . S
C1547 C1548 1.524 . S
C1547 C1551 1.400 . S
C1548 H1533 0.960 . S
C1548 H1534 0.960 . S
C1548 H1535 0.960 . S
C1548 C1547 1.524 . S
C1549 C1546 1.403 . S
C1549 C1550 1.392 . S
C1549 C1553 1.495 . S
C1550 C1549 1.392 . S
C1550 C1551 1.385 . S
C1550 C1552 1.478 . S
C1551 H1545 0.930 . S
C1551 C1547 1.400 . S
C1551 C1550 1.385 . S
C1552 C1550 1.478 . S
C1552 C1554 1.381 . S
C1552 C1558 1.383 . S
C1553 C1549 1.495 . S
C1553 H1559 0.959 . S
C1553 H1560 0.961 . S
C1553 H1561 0.960 . S
C1554 C1552 1.381 . S
C1554 C1555 1.394 . S
C1554 H1562 0.930 . S
C1555 C1554 1.394 . S
C1555 C1556 1.383 . S
C1555 H1563 0.929 . S
C1556 C1555 1.383 . S
C1556 C1557 1.377 . S
C1557 H1541 0.930 . S
C1557 C1556 1.377 . S
C1557 C1558 1.379 . S
C1558 H1542 0.931 . S
C1558 C1552 1.383 . S
C1558 C1557 1.379 . S
H1559 C1553 0.959 . S
H1560 C1553 0.961 . S
H1561 C1553 0.960 . S
H1562 C1554 0.930 . S
H1563 C1555 0.929 . S
H1564 C1572 0.929 . S
H1565 C1574 0.930 . S
H1566 C1576 0.930 . S
H1567 C1579 0.929 . S
H1568 C1582 0.930 . S
H1569 C1584 0.960 . S
H1570 C1584 0.960 1_655 S
H1571 C1584 0.960 . S
C1572 H1564 0.929 . S
C1572 C1573 1.377 . S
C1572 C1574 1.384 . S
C1573 C1572 1.377 . S
C1573 C1579 1.390 . S
C1574 H1565 0.930 . S
C1574 C1572 1.384 . S
C1574 C1575 1.372 . S
C1575 C1574 1.372 . S
C1575 C1576 1.400 . S
C1575 C1580 1.490 . S
C1576 H1566 0.930 . S
C1576 C1575 1.400 . S
C1576 C1579 1.386 . S
H1577 C1593 0.930 . S
H1578 C1594 0.931 . S
C1579 H1567 0.929 . S
C1579 C1573 1.390 . S
C1579 C1576 1.386 . S
C1580 C1575 1.490 . S
C1580 C1582 1.395 . S
C1580 C1583 1.403 1_655 S
H1581 C1587 0.930 . S
C1582 H1568 0.930 . S
C1582 C1580 1.395 . S
C1582 C1585 1.403 . S
C1583 C1580 1.403 1_455 S
C1583 C1584 1.524 . S
C1583 C1587 1.400 . S
C1584 H1569 0.960 . S
C1584 H1570 0.960 1_455 S
C1584 H1571 0.960 . S
C1584 C1583 1.524 . S
C1585 C1582 1.403 . S
C1585 C1586 1.392 1_655 S
C1585 C1589 1.495 . S
C1586 C1585 1.392 1_455 S
C1586 C1587 1.385 . S
C1586 C1588 1.478 . S
C1587 H1581 0.930 . S
C1587 C1583 1.400 . S
C1587 C1586 1.385 . S
C1588 C1586 1.478 . S
C1588 C1590 1.381 . S
C1588 C1594 1.383 . S
C1589 C1585 1.495 . S
C1589 H1595 0.959 . S
C1589 H1596 0.958 . S
C1589 H1597 0.960 . S
C1590 C1588 1.381 . S
C1590 C1591 1.394 . S
C1590 H1598 0.930 . S
C1591 C1590 1.394 . S
C1591 C1592 1.383 . S
C1591 H1599 0.929 . S
C1592 C1591 1.383 . S
C1592 C1593 1.377 . S
C1593 H1577 0.930 . S
C1593 C1592 1.377 . S
C1593 C1594 1.379 . S
C1594 H1578 0.931 . S
C1594 C1588 1.383 . S
C1594 C1593 1.379 . S
H1595 C1589 0.959 . S
H1596 C1589 0.958 . S
H1597 C1589 0.960 . S
H1598 C1590 0.930 . S
H1599 C1591 0.929 . S
H1600 C1608 0.929 . S
H1601 C1610 0.930 . S
H1602 C1612 0.930 . S
H1603 C1615 0.929 . S
H1604 C1618 0.930 . S
H1605 C1620 0.960 . S
H1606 C1620 0.960 . S
H1607 C1620 0.960 . S
C1608 H1600 0.929 . S
C1608 C1609 1.377 . S
C1608 C1610 1.384 . S
C1609 C1608 1.377 . S
C1609 C1615 1.390 . S
C1610 H1601 0.930 . S
C1610 C1608 1.384 . S
C1610 C1611 1.372 . S
C1611 C1610 1.372 . S
C1611 C1612 1.400 . S
C1611 C1616 1.490 . S
C1612 H1602 0.930 . S
C1612 C1611 1.400 . S
C1612 C1615 1.386 . S
H1613 C1629 0.930 . S
H1614 C1630 0.931 . S
C1615 H1603 0.929 . S
C1615 C1609 1.390 . S
C1615 C1612 1.386 . S
C1616 C1611 1.490 . S
C1616 C1618 1.395 . S
C1616 C1619 1.403 1_556 S
H1617 C1623 0.930 . S
C1618 H1604 0.930 . S
C1618 C1616 1.395 . S
C1618 C1621 1.403 . S
C1619 C1616 1.403 1_554 S
C1619 C1620 1.524 . S
C1619 C1623 1.400 . S
C1620 H1605 0.960 . S
C1620 H1606 0.960 . S
C1620 H1607 0.960 . S
C1620 C1619 1.524 . S
C1621 C1618 1.403 . S
C1621 C1622 1.392 1_556 S
C1621 C1625 1.495 . S
C1622 C1621 1.392 1_554 S
C1622 C1623 1.385 . S
C1622 C1624 1.478 . S
C1623 H1617 0.930 . S
C1623 C1619 1.400 . S
C1623 C1622 1.385 . S
C1624 C1622 1.478 . S
C1624 C1626 1.381 . S
C1624 C1630 1.383 . S
C1625 C1621 1.495 . S
C1625 H1631 0.959 . S
C1625 H1632 0.961 . S
C1625 H1633 0.960 . S
C1626 C1624 1.381 . S
C1626 C1627 1.394 . S
C1626 H1634 0.930 . S
C1627 C1626 1.394 . S
C1627 C1628 1.383 . S
C1627 H1635 0.929 . S
C1628 C1627 1.383 . S
C1628 C1629 1.377 . S
C1629 H1613 0.930 . S
C1629 C1628 1.377 . S
C1629 C1630 1.379 . S
C1630 H1614 0.931 . S
C1630 C1624 1.383 . S
C1630 C1629 1.379 . S
H1631 C1625 0.959 . S
H1632 C1625 0.961 . S
H1633 C1625 0.960 . S
H1634 C1626 0.930 . S
H1635 C1627 0.929 . S
H1636 C1644 0.929 . S
H1637 C1646 0.930 . S
H1638 C1648 0.930 . S
H1639 C1651 0.929 . S
H1640 C1654 0.930 . S
H1641 C1656 0.960 . S
H1642 C1656 0.960 . S
H1643 C1656 0.960 . S
C1644 H1636 0.929 . S
C1644 C1645 1.377 . S
C1644 C1646 1.384 . S
C1645 C1644 1.377 . S
C1645 C1651 1.390 . S
C1646 H1637 0.930 . S
C1646 C1644 1.384 . S
C1646 C1647 1.372 . S
C1647 C1646 1.372 . S
C1647 C1648 1.400 . S
C1647 C1652 1.490 . S
C1648 H1638 0.930 . S
C1648 C1647 1.400 . S
C1648 C1651 1.386 . S
H1649 C1665 0.930 . S
H1650 C1666 0.931 . S
C1651 H1639 0.929 . S
C1651 C1645 1.390 . S
C1651 C1648 1.386 . S
C1652 C1647 1.490 . S
C1652 C1654 1.395 . S
C1652 C1655 1.403 . S
H1653 C1659 0.930 . S
C1654 H1640 0.930 . S
C1654 C1652 1.395 . S
C1654 C1657 1.403 1_545 S
C1655 C1652 1.403 . S
C1655 C1656 1.524 . S
C1655 C1659 1.400 1_545 S
C1656 H1641 0.960 . S
C1656 H1642 0.960 . S
C1656 H1643 0.960 . S
C1656 C1655 1.524 . S
C1657 C1654 1.403 1_565 S
C1657 C1658 1.392 . S
C1657 C1661 1.495 . S
C1658 C1657 1.392 . S
C1658 C1659 1.385 . S
C1658 C1660 1.478 . S
C1659 H1653 0.930 . S
C1659 C1655 1.400 1_565 S
C1659 C1658 1.385 . S
C1660 C1658 1.478 . S
C1660 C1662 1.381 . S
C1660 C1666 1.383 . S
C1661 C1657 1.495 . S
C1661 H1667 0.959 . S
C1661 H1668 0.961 . S
C1661 H1669 0.960 . S
C1662 C1660 1.381 . S
C1662 C1663 1.394 . S
C1662 H1670 0.930 . S
C1663 C1662 1.394 . S
C1663 C1664 1.383 . S
C1663 H1671 0.929 . S
C1664 C1663 1.383 . S
C1664 C1665 1.377 . S
C1665 H1649 0.930 . S
C1665 C1664 1.377 . S
C1665 C1666 1.379 . S
C1666 H1650 0.931 . S
C1666 C1660 1.383 . S
C1666 C1665 1.379 . S
H1667 C1661 0.959 . S
H1668 C1661 0.961 . S
H1669 C1661 0.960 . S
H1670 C1662 0.930 . S
H1671 C1663 0.929 . S
H1672 C1680 0.929 . S
H1673 C1682 0.930 . S
H1674 C1684 0.930 . S
H1675 C1687 0.929 . S
H1676 C1690 0.930 . S
H1677 C1692 0.960 . S
H1678 C1692 0.960 . S
H1679 C1692 0.960 . S
C1680 H1672 0.929 . S
C1680 C1681 1.377 . S
C1680 C1682 1.384 . S
C1681 C1680 1.377 . S
C1681 C1687 1.390 . S
C1682 H1673 0.930 . S
C1682 C1680 1.384 . S
C1682 C1683 1.372 . S
C1683 C1682 1.372 . S
C1683 C1684 1.400 . S
C1683 C1688 1.490 . S
C1684 H1674 0.930 . S
C1684 C1683 1.400 . S
C1684 C1687 1.386 . S
H1685 C1701 0.930 . S
H1686 C1702 0.931 . S
C1687 H1675 0.929 . S
C1687 C1681 1.390 . S
C1687 C1684 1.386 . S
C1688 C1683 1.490 . S
C1688 C1690 1.395 . S
C1688 C1691 1.403 . S
H1689 C1695 0.930 . S
C1690 H1676 0.930 . S
C1690 C1688 1.395 . S
C1690 C1693 1.403 . S
C1691 C1688 1.403 . S
C1691 C1692 1.524 . S
C1691 C1695 1.400 . S
C1692 H1677 0.960 . S
C1692 H1678 0.960 . S
C1692 H1679 0.960 . S
C1692 C1691 1.524 . S
C1693 C1690 1.403 . S
C1693 C1694 1.392 . S
C1693 C1697 1.495 . S
C1694 C1693 1.392 . S
C1694 C1695 1.385 . S
C1694 C1696 1.478 . S
C1695 H1689 0.930 . S
C1695 C1691 1.400 . S
C1695 C1694 1.385 . S
C1696 C1694 1.478 . S
C1696 C1698 1.381 . S
C1696 C1702 1.383 . S
C1697 C1693 1.495 . S
C1697 H1703 0.959 . S
C1697 H1704 0.961 . S
C1697 H1705 0.960 . S
C1698 C1696 1.381 . S
C1698 C1699 1.394 . S
C1698 H1706 0.930 . S
C1699 C1698 1.394 . S
C1699 C1700 1.383 . S
C1699 H1707 0.929 . S
C1700 C1699 1.383 . S
C1700 C1701 1.377 . S
C1701 H1685 0.930 . S
C1701 C1700 1.377 . S
C1701 C1702 1.379 . S
C1702 H1686 0.931 . S
C1702 C1696 1.383 . S
C1702 C1701 1.379 . S
H1703 C1697 0.959 . S
H1704 C1697 0.961 . S
H1705 C1697 0.960 . S
H1706 C1698 0.930 . S
H1707 C1699 0.929 . S
H1708 C1716 0.929 . S
H1709 C1718 0.930 . S
H1710 C1720 0.930 . S
H1711 C1723 0.929 . S
H1712 C1726 0.930 . S
H1713 C1728 0.952 1_565 S
H1714 C1728 0.960 . S
H1715 C1728 0.960 . S
C1716 H1708 0.929 . S
C1716 C1717 1.377 . S
C1716 C1718 1.384 . S
C1717 C1716 1.377 . S
C1717 C1723 1.390 . S
C1718 H1709 0.930 . S
C1718 C1716 1.384 . S
C1718 C1719 1.372 . S
C1719 C1718 1.372 . S
C1719 C1720 1.400 . S
C1719 C1724 1.490 . S
C1720 H1710 0.930 . S
C1720 C1719 1.400 . S
C1720 C1723 1.386 . S
H1721 C1737 0.930 . S
H1722 C1738 0.931 . S
C1723 H1711 0.929 . S
C1723 C1717 1.390 . S
C1723 C1720 1.386 . S
C1724 C1719 1.490 . S
C1724 C1726 1.395 . S
C1724 C1727 1.403 . S
H1725 C1731 0.930 . S
C1726 H1712 0.930 . S
C1726 C1724 1.395 . S
C1726 C1729 1.403 1_545 S
C1727 C1724 1.403 . S
C1727 C1728 1.524 . S
C1727 C1731 1.400 1_545 S
C1728 H1713 0.952 1_545 S
C1728 H1714 0.960 . S
C1728 H1715 0.960 . S
C1728 C1727 1.524 . S
C1729 C1726 1.403 1_565 S
C1729 C1730 1.392 . S
C1729 C1733 1.495 . S
C1730 C1729 1.392 . S
C1730 C1731 1.385 . S
C1730 C1732 1.478 . S
C1731 H1725 0.930 . S
C1731 C1727 1.400 1_565 S
C1731 C1730 1.385 . S
C1732 C1730 1.478 . S
C1732 C1734 1.381 . S
C1732 C1738 1.383 . S
C1733 C1729 1.495 . S
C1733 H1739 0.959 1_565 S
C1733 H1740 0.961 . S
C1733 H1741 0.960 . S
C1734 C1732 1.381 . S
C1734 C1735 1.394 . S
C1734 H1742 0.930 . S
C1735 C1734 1.394 . S
C1735 C1736 1.383 . S
C1735 H1743 0.929 . S
C1736 C1735 1.383 . S
C1736 C1737 1.377 . S
C1737 H1721 0.930 . S
C1737 C1736 1.377 . S
C1737 C1738 1.379 . S
C1738 H1722 0.931 . S
C1738 C1732 1.383 . S
C1738 C1737 1.379 . S
H1739 C1733 0.959 1_545 S
H1740 C1733 0.961 . S
H1741 C1733 0.960 . S
H1742 C1734 0.930 . S
H1743 C1735 0.929 . S
H1744 C1752 0.929 . S
H1745 C1754 0.930 . S
H1746 C1756 0.930 . S
H1747 C1759 0.929 . S
H1748 C1762 0.930 . S
H1749 C1764 0.960 . S
H1750 C1764 0.960 . S
H1751 C1764 0.960 . S
C1752 H1744 0.929 . S
C1752 C1753 1.377 . S
C1752 C1754 1.384 . S
C1753 C1752 1.377 . S
C1753 C1759 1.390 . S
C1754 H1745 0.930 . S
C1754 C1752 1.384 . S
C1754 C1755 1.372 . S
C1755 C1754 1.372 . S
C1755 C1756 1.400 . S
C1755 C1760 1.490 . S
C1756 H1746 0.930 . S
C1756 C1755 1.400 . S
C1756 C1759 1.386 . S
H1757 C1773 0.930 . S
H1758 C1774 0.931 . S
C1759 H1747 0.929 . S
C1759 C1753 1.390 . S
C1759 C1756 1.386 . S
C1760 C1755 1.490 . S
C1760 C1762 1.395 1_554 S
C1760 C1763 1.403 . S
H1761 C1767 0.930 . S
C1762 H1748 0.930 . S
C1762 C1760 1.395 1_556 S
C1762 C1765 1.403 . S
C1763 C1760 1.403 . S
C1763 C1764 1.524 . S
C1763 C1767 1.400 . S
C1764 H1749 0.960 . S
C1764 H1750 0.960 . S
C1764 H1751 0.960 . S
C1764 C1763 1.524 . S
C1765 C1762 1.403 . S
C1765 C1766 1.392 . S
C1765 C1769 1.495 . S
C1766 C1765 1.392 . S
C1766 C1767 1.385 1_556 S
C1766 C1768 1.478 . S
C1767 H1761 0.930 . S
C1767 C1763 1.400 . S
C1767 C1766 1.385 1_554 S
C1768 C1766 1.478 . S
C1768 C1770 1.381 . S
C1768 C1774 1.383 . S
C1769 C1765 1.495 . S
C1769 H1775 0.959 . S
C1769 H1776 0.961 . S
C1769 H1777 0.960 . S
C1770 C1768 1.381 . S
C1770 C1771 1.394 . S
C1770 H1778 0.930 . S
C1771 C1770 1.394 . S
C1771 C1772 1.383 . S
C1771 H1779 0.929 . S
C1772 C1771 1.383 . S
C1772 C1773 1.377 . S
C1773 H1757 0.930 . S
C1773 C1772 1.377 . S
C1773 C1774 1.379 . S
C1774 H1758 0.931 . S
C1774 C1768 1.383 . S
C1774 C1773 1.379 . S
H1775 C1769 0.959 . S
H1776 C1769 0.961 . S
H1777 C1769 0.960 . S
H1778 C1770 0.930 . S
H1779 C1771 0.929 . S
H1780 C1788 0.929 . S
H1781 C1790 0.930 . S
H1782 C1792 0.930 . S
H1783 C1795 0.929 . S
H1784 C1798 0.930 . S
H1785 C1800 0.960 1_545 S
H1786 C1800 0.960 . S
H1787 C1800 0.960 . S
C1788 H1780 0.929 . S
C1788 C1789 1.377 . S
C1788 C1790 1.384 . S
C1789 C1788 1.377 . S
C1789 C1795 1.390 . S
C1790 H1781 0.930 . S
C1790 C1788 1.384 . S
C1790 C1791 1.372 . S
C1791 C1790 1.372 . S
C1791 C1792 1.400 . S
C1791 C1796 1.490 . S
C1792 H1782 0.930 . S
C1792 C1791 1.400 . S
C1792 C1795 1.386 . S
H1793 C1809 0.930 . S
H1794 C1810 0.931 . S
C1795 H1783 0.929 . S
C1795 C1789 1.390 . S
C1795 C1792 1.386 . S
C1796 C1791 1.490 . S
C1796 C1798 1.395 . S
C1796 C1799 1.403 . S
H1797 C1803 0.930 . S
C1798 H1784 0.930 . S
C1798 C1796 1.395 . S
C1798 C1801 1.403 1_565 S
C1799 C1796 1.403 . S
C1799 C1800 1.524 . S
C1799 C1803 1.400 1_565 S
C1800 H1785 0.960 1_565 S
C1800 H1786 0.960 . S
C1800 H1787 0.960 . S
C1800 C1799 1.524 . S
C1801 C1798 1.403 1_545 S
C1801 C1802 1.392 . S
C1801 C1805 1.495 . S
C1802 C1801 1.392 . S
C1802 C1803 1.385 . S
C1802 C1804 1.478 . S
C1803 H1797 0.930 . S
C1803 C1799 1.400 1_545 S
C1803 C1802 1.385 . S
C1804 C1802 1.478 . S
C1804 C1806 1.381 . S
C1804 C1810 1.383 . S
C1805 C1801 1.495 . S
C1805 H1811 0.959 1_545 S
C1805 H1812 0.961 . S
C1805 H1813 0.960 . S
C1806 C1804 1.381 . S
C1806 C1807 1.394 . S
C1806 H1814 0.930 . S
C1807 C1806 1.394 . S
C1807 C1808 1.383 . S
C1807 H1815 0.929 . S
C1808 C1807 1.383 . S
C1808 C1809 1.377 . S
C1809 H1793 0.930 . S
C1809 C1808 1.377 . S
C1809 C1810 1.379 . S
C1810 H1794 0.931 . S
C1810 C1804 1.383 . S
C1810 C1809 1.379 . S
H1811 C1805 0.959 1_565 S
H1812 C1805 0.961 . S
H1813 C1805 0.960 . S
H1814 C1806 0.930 . S
H1815 C1807 0.929 . S
H1816 C1824 0.929 . S
H1817 C1826 0.930 . S
H1818 C1828 0.930 . S
H1819 C1831 0.929 . S
H1820 C1834 0.930 . S
H1821 C1836 0.960 . S
H1822 C1836 0.960 . S
H1823 C1836 0.960 . S
C1824 H1816 0.929 . S
C1824 C1825 1.377 . S
C1824 C1826 1.384 . S
C1825 C1824 1.377 . S
C1825 C1831 1.390 . S
C1826 H1817 0.930 . S
C1826 C1824 1.384 . S
C1826 C1827 1.372 . S
C1827 C1826 1.372 . S
C1827 C1828 1.400 . S
C1827 C1832 1.490 . S
C1828 H1818 0.930 . S
C1828 C1827 1.400 . S
C1828 C1831 1.386 . S
H1829 C1845 0.930 . S
H1830 C1846 0.931 . S
C1831 H1819 0.929 . S
C1831 C1825 1.390 . S
C1831 C1828 1.386 . S
C1832 C1827 1.490 . S
C1832 C1834 1.395 . S
C1832 C1835 1.403 . S
H1833 C1839 0.930 . S
C1834 H1820 0.930 . S
C1834 C1832 1.395 . S
C1834 C1837 1.403 . S
C1835 C1832 1.403 . S
C1835 C1836 1.524 . S
C1835 C1839 1.400 . S
C1836 H1821 0.960 . S
C1836 H1822 0.960 . S
C1836 H1823 0.960 . S
C1836 C1835 1.524 . S
C1837 C1834 1.403 . S
C1837 C1838 1.392 . S
C1837 C1841 1.495 . S
C1838 C1837 1.392 . S
C1838 C1839 1.385 . S
C1838 C1840 1.478 . S
C1839 H1833 0.930 . S
C1839 C1835 1.400 . S
C1839 C1838 1.385 . S
C1840 C1838 1.478 . S
C1840 C1842 1.381 . S
C1840 C1846 1.383 . S
C1841 C1837 1.495 . S
C1841 H1847 0.959 . S
C1841 H1848 0.961 . S
C1841 H1849 0.960 . S
C1842 C1840 1.381 . S
C1842 C1843 1.394 . S
C1842 H1850 0.930 . S
C1843 C1842 1.394 . S
C1843 C1844 1.383 . S
C1843 H1851 0.929 . S
C1844 C1843 1.383 . S
C1844 C1845 1.377 . S
C1845 H1829 0.930 . S
C1845 C1844 1.377 . S
C1845 C1846 1.379 . S
C1846 H1830 0.931 . S
C1846 C1840 1.383 . S
C1846 C1845 1.379 . S
H1847 C1841 0.959 . S
H1848 C1841 0.961 . S
H1849 C1841 0.960 . S
H1850 C1842 0.930 . S
H1851 C1843 0.929 . S
H1852 C1860 0.929 . S
H1853 C1862 0.930 . S
H1854 C1864 0.930 . S
H1855 C1867 0.929 . S
H1856 C1870 0.930 . S
H1857 C1872 0.960 . S
H1858 C1872 0.960 . S
H1859 C1872 0.960 . S
C1860 H1852 0.929 . S
C1860 C1861 1.377 . S
C1860 C1862 1.384 . S
C1861 C1860 1.377 . S
C1861 C1867 1.390 . S
C1862 H1853 0.930 . S
C1862 C1860 1.384 . S
C1862 C1863 1.372 . S
C1863 C1862 1.372 . S
C1863 C1864 1.400 . S
C1863 C1868 1.490 . S
C1864 H1854 0.930 . S
C1864 C1863 1.400 . S
C1864 C1867 1.386 . S
H1865 C1881 0.930 . S
H1866 C1882 0.931 . S
C1867 H1855 0.929 . S
C1867 C1861 1.390 . S
C1867 C1864 1.386 . S
C1868 C1863 1.490 . S
C1868 C1870 1.395 . S
C1868 C1871 1.403 . S
H1869 C1875 0.930 . S
C1870 H1856 0.930 . S
C1870 C1868 1.395 . S
C1870 C1873 1.403 1_545 S
C1871 C1868 1.403 . S
C1871 C1872 1.524 . S
C1871 C1875 1.400 1_545 S
C1872 H1857 0.960 . S
C1872 H1858 0.960 . S
C1872 H1859 0.960 . S
C1872 C1871 1.524 . S
C1873 C1870 1.403 1_565 S
C1873 C1874 1.392 . S
C1873 C1877 1.495 . S
C1874 C1873 1.392 . S
C1874 C1875 1.385 . S
C1874 C1876 1.478 . S
C1875 H1869 0.930 . S
C1875 C1871 1.400 1_565 S
C1875 C1874 1.385 . S
C1876 C1874 1.478 . S
C1876 C1878 1.381 . S
C1876 C1882 1.383 . S
C1877 C1873 1.495 . S
C1877 H1883 0.959 . S
C1877 H1884 0.961 . S
C1877 H1885 0.960 . S
C1878 C1876 1.381 . S
C1878 C1879 1.394 . S
C1878 H1886 0.930 . S
C1879 C1878 1.394 . S
C1879 C1880 1.383 . S
C1879 H1887 0.929 . S
C1880 C1879 1.383 . S
C1880 C1881 1.377 . S
C1881 H1865 0.930 . S
C1881 C1880 1.377 . S
C1881 C1882 1.379 . S
C1882 H1866 0.931 . S
C1882 C1876 1.383 . S
C1882 C1881 1.379 . S
H1883 C1877 0.959 . S
H1884 C1877 0.961 . S
H1885 C1877 0.960 . S
H1886 C1878 0.930 . S
H1887 C1879 0.929 . S
H1888 C1896 0.929 . S
H1889 C1898 0.930 . S
H1890 C1900 0.930 . S
H1891 C1903 0.929 . S
H1892 C1906 0.930 . S
H1893 C1908 0.960 . S
H1894 C1908 0.960 . S
H1895 C1908 0.960 . S
C1896 H1888 0.929 . S
C1896 C1897 1.377 . S
C1896 C1898 1.384 . S
C1897 C1896 1.377 . S
C1897 C1903 1.390 . S
C1898 H1889 0.930 . S
C1898 C1896 1.384 . S
C1898 C1899 1.372 . S
C1899 C1898 1.372 . S
C1899 C1900 1.400 . S
C1899 C1904 1.490 . S
C1900 H1890 0.930 . S
C1900 C1899 1.400 . S
C1900 C1903 1.386 . S
H1901 C1917 0.930 . S
H1902 C1918 0.931 . S
C1903 H1891 0.929 . S
C1903 C1897 1.390 . S
C1903 C1900 1.386 . S
C1904 C1899 1.490 . S
C1904 C1906 1.395 . S
C1904 C1907 1.403 . S
H1905 C1911 0.930 . S
C1906 H1892 0.930 . S
C1906 C1904 1.395 . S
C1906 C1909 1.403 . S
C1907 C1904 1.403 . S
C1907 C1908 1.524 . S
C1907 C1911 1.400 . S
C1908 H1893 0.960 . S
C1908 H1894 0.960 . S
C1908 H1895 0.960 . S
C1908 C1907 1.524 . S
C1909 C1906 1.403 . S
C1909 C1910 1.392 . S
C1909 C1913 1.495 . S
C1910 C1909 1.392 . S
C1910 C1911 1.385 . S
C1910 C1912 1.478 . S
C1911 H1905 0.930 . S
C1911 C1907 1.400 . S
C1911 C1910 1.385 . S
C1912 C1910 1.478 . S
C1912 C1914 1.381 . S
C1912 C1918 1.383 . S
C1913 C1909 1.495 . S
C1913 H1919 0.959 . S
C1913 H1920 0.961 . S
C1913 H1921 0.960 . S
C1914 C1912 1.381 . S
C1914 C1915 1.394 . S
C1914 H1922 0.930 . S
C1915 C1914 1.394 . S
C1915 C1916 1.383 . S
C1915 H1923 0.929 . S
C1916 C1915 1.383 . S
C1916 C1917 1.377 . S
C1917 H1901 0.930 . S
C1917 C1916 1.377 . S
C1917 C1918 1.379 . S
C1918 H1902 0.931 . S
C1918 C1912 1.383 . S
C1918 C1917 1.379 . S
H1919 C1913 0.959 . S
H1920 C1913 0.961 . S
H1921 C1913 0.960 . S
H1922 C1914 0.930 . S
H1923 C1915 0.929 . S
H1924 C1932 0.929 . S
H1925 C1934 0.930 . S
H1926 C1936 0.930 . S
H1927 C1939 0.929 . S
H1928 C1942 0.930 . S
H1929 C1944 0.960 . S
H1930 C1944 0.960 . S
H1931 C1944 0.960 . S
C1932 H1924 0.929 . S
C1932 C1933 1.377 . S
C1932 C1934 1.384 . S
C1933 C1932 1.377 . S
C1933 C1939 1.390 . S
C1934 H1925 0.930 . S
C1934 C1932 1.384 . S
C1934 C1935 1.372 . S
C1935 C1934 1.372 . S
C1935 C1936 1.400 . S
C1935 C1940 1.490 . S
C1936 H1926 0.930 . S
C1936 C1935 1.400 . S
C1936 C1939 1.386 . S
H1937 C1953 0.930 . S
H1938 C1954 0.931 . S
C1939 H1927 0.929 . S
C1939 C1933 1.390 . S
C1939 C1936 1.386 . S
C1940 C1935 1.490 . S
C1940 C1942 1.395 . S
C1940 C1943 1.403 . S
H1941 C1947 0.930 . S
C1942 H1928 0.930 . S
C1942 C1940 1.395 . S
C1942 C1945 1.403 . S
C1943 C1940 1.403 . S
C1943 C1944 1.524 . S
C1943 C1947 1.400 . S
C1944 H1929 0.960 . S
C1944 H1930 0.960 . S
C1944 H1931 0.960 . S
C1944 C1943 1.524 . S
C1945 C1942 1.403 . S
C1945 C1946 1.392 . S
C1945 C1949 1.495 . S
C1946 C1945 1.392 . S
C1946 C1947 1.385 . S
C1946 C1948 1.478 . S
C1947 H1941 0.930 . S
C1947 C1943 1.400 . S
C1947 C1946 1.385 . S
C1948 C1946 1.478 . S
C1948 C1950 1.381 . S
C1948 C1954 1.383 . S
C1949 C1945 1.495 . S
C1949 H1955 0.959 . S
C1949 H1956 0.961 . S
C1949 H1957 0.960 . S
C1950 C1948 1.381 . S
C1950 C1951 1.394 . S
C1950 H1958 0.930 . S
C1951 C1950 1.394 . S
C1951 C1952 1.383 . S
C1951 H1959 0.929 . S
C1952 C1951 1.383 . S
C1952 C1953 1.377 . S
C1953 H1937 0.930 . S
C1953 C1952 1.377 . S
C1953 C1954 1.379 . S
C1954 H1938 0.931 . S
C1954 C1948 1.383 . S
C1954 C1953 1.379 . S
H1955 C1949 0.959 . S
H1956 C1949 0.961 . S
H1957 C1949 0.960 . S
H1958 C1950 0.930 . S
H1959 C1951 0.929 . S
H1960 C1968 0.929 . S
H1961 C1970 0.930 1_556 S
H1962 C1972 0.930 . S
H1963 C1975 0.929 . S
H1964 C1978 0.930 . S
H1965 C1980 0.960 . S
H1966 C1980 0.960 . S
H1967 C1980 0.960 . S
C1968 H1960 0.929 . S
C1968 C1969 1.377 . S
C1968 C1970 1.384 . S
C1969 C1968 1.377 . S
C1969 C1975 1.390 . S
C1970 H1961 0.930 1_554 S
C1970 C1968 1.384 . S
C1970 C1971 1.372 . S
C1971 C1970 1.372 . S
C1971 C1972 1.400 . S
C1971 C1976 1.490 . S
C1972 H1962 0.930 . S
C1972 C1971 1.400 . S
C1972 C1975 1.386 . S
H1973 C1989 0.930 . S
H1974 C1990 0.925 1_554 S
C1975 H1963 0.929 . S
C1975 C1969 1.390 . S
C1975 C1972 1.386 . S
C1976 C1971 1.490 . S
C1976 C1978 1.395 1_554 S
C1976 C1979 1.403 . S
H1977 C1983 0.930 . S
C1978 H1964 0.930 . S
C1978 C1976 1.395 1_556 S
C1978 C1981 1.403 . S
C1979 C1976 1.403 . S
C1979 C1980 1.524 . S
C1979 C1983 1.400 . S
C1980 H1965 0.960 . S
C1980 H1966 0.960 . S
C1980 H1967 0.960 . S
C1980 C1979 1.524 . S
C1981 C1978 1.403 . S
C1981 C1982 1.392 . S
C1981 C1985 1.495 . S
C1982 C1981 1.392 . S
C1982 C1983 1.385 1_556 S
C1982 C1984 1.478 . S
C1983 H1977 0.930 . S
C1983 C1979 1.400 . S
C1983 C1982 1.385 1_554 S
C1984 C1982 1.478 . S
C1984 C1986 1.381 . S
C1984 C1990 1.383 . S
C1985 C1981 1.495 . S
C1985 H1991 0.959 . S
C1985 H1992 0.961 . S
C1985 H1993 0.960 . S
C1986 C1984 1.381 . S
C1986 C1987 1.394 . S
C1986 H1994 0.930 . S
C1987 C1986 1.394 . S
C1987 C1988 1.383 . S
C1987 H1995 0.929 . S
C1988 C1987 1.383 . S
C1988 C1989 1.377 . S
C1989 H1973 0.930 . S
C1989 C1988 1.377 . S
C1989 C1990 1.379 . S
C1990 H1974 0.925 1_556 S
C1990 C1984 1.383 . S
C1990 C1989 1.379 . S
H1991 C1985 0.959 . S
H1992 C1985 0.961 . S
H1993 C1985 0.960 . S
H1994 C1986 0.930 . S
H1995 C1987 0.929 . S
H1996 C2004 0.929 . S
H1997 C2006 0.930 . S
H1998 C2008 0.930 . S
H1999 C2011 0.929 . S
H2000 C2014 0.930 . S
H2001 C2016 0.960 . S
H2002 C2016 0.960 . S
H2003 C2016 0.960 . S
C2004 H1996 0.929 . S
C2004 C2005 1.377 . S
C2004 C2006 1.384 . S
C2005 C2004 1.377 . S
C2005 C2011 1.390 . S
C2006 H1997 0.930 . S
C2006 C2004 1.384 . S
C2006 C2007 1.372 . S
C2007 C2006 1.372 . S
C2007 C2008 1.400 . S
C2007 C2012 1.490 . S
C2008 H1998 0.930 . S
C2008 C2007 1.400 . S
C2008 C2011 1.386 . S
H2009 C2025 0.930 . S
H2010 C2026 0.931 . S
C2011 H1999 0.929 . S
C2011 C2005 1.390 . S
C2011 C2008 1.386 . S
C2012 C2007 1.490 . S
C2012 C2014 1.395 . S
C2012 C2015 1.403 . S
H2013 C2019 0.930 . S
C2014 H2000 0.930 . S
C2014 C2012 1.395 . S
C2014 C2017 1.403 . S
C2015 C2012 1.403 . S
C2015 C2016 1.524 . S
C2015 C2019 1.400 . S
C2016 H2001 0.960 . S
C2016 H2002 0.960 . S
C2016 H2003 0.960 . S
C2016 C2015 1.524 . S
C2017 C2014 1.403 . S
C2017 C2018 1.392 . S
C2017 C2021 1.495 . S
C2018 C2017 1.392 . S
C2018 C2019 1.385 . S
C2018 C2020 1.478 . S
C2019 H2013 0.930 . S
C2019 C2015 1.400 . S
C2019 C2018 1.385 . S
C2020 C2018 1.478 . S
C2020 C2022 1.381 . S
C2020 C2026 1.383 . S
C2021 C2017 1.495 . S
C2021 H2027 0.959 . S
C2021 H2028 0.961 . S
C2021 H2029 0.960 . S
C2022 C2020 1.381 . S
C2022 C2023 1.394 . S
C2022 H2030 0.930 . S
C2023 C2022 1.394 . S
C2023 C2024 1.383 . S
C2023 H2031 0.929 . S
C2024 C2023 1.383 . S
C2024 C2025 1.377 . S
C2025 H2009 0.930 . S
C2025 C2024 1.377 . S
C2025 C2026 1.379 . S
C2026 H2010 0.931 . S
C2026 C2020 1.383 . S
C2026 C2025 1.379 . S
H2027 C2021 0.959 . S
H2028 C2021 0.961 . S
H2029 C2021 0.960 . S
H2030 C2022 0.930 . S
H2031 C2023 0.929 . S
H2032 C2040 0.929 . S
H2033 C2042 0.930 . S
H2034 C2044 0.930 . S
H2035 C2047 0.929 . S
H2036 C2050 0.930 . S
H2037 C2052 0.960 . S
H2038 C2052 0.960 . S
H2039 C2052 0.960 . S
C2040 H2032 0.929 . S
C2040 C2041 1.377 . S
C2040 C2042 1.384 . S
C2041 C2040 1.377 . S
C2041 C2047 1.390 . S
C2042 H2033 0.930 . S
C2042 C2040 1.384 . S
C2042 C2043 1.372 . S
C2043 C2042 1.372 . S
C2043 C2044 1.400 . S
C2043 C2048 1.490 . S
C2044 H2034 0.930 . S
C2044 C2043 1.400 . S
C2044 C2047 1.386 . S
H2045 C2061 0.930 . S
H2046 C2062 0.931 . S
C2047 H2035 0.929 . S
C2047 C2041 1.390 . S
C2047 C2044 1.386 . S
C2048 C2043 1.490 . S
C2048 C2050 1.395 . S
C2048 C2051 1.403 . S
H2049 C2055 0.930 . S
C2050 H2036 0.930 . S
C2050 C2048 1.395 . S
C2050 C2053 1.403 . S
C2051 C2048 1.403 . S
C2051 C2052 1.524 . S
C2051 C2055 1.400 . S
C2052 H2037 0.960 . S
C2052 H2038 0.960 . S
C2052 H2039 0.960 . S
C2052 C2051 1.524 . S
C2053 C2050 1.403 . S
C2053 C2054 1.392 . S
C2053 C2057 1.495 . S
C2054 C2053 1.392 . S
C2054 C2055 1.385 . S
C2054 C2056 1.478 . S
C2055 H2049 0.930 . S
C2055 C2051 1.400 . S
C2055 C2054 1.385 . S
C2056 C2054 1.478 . S
C2056 C2058 1.381 . S
C2056 C2062 1.383 . S
C2057 C2053 1.495 . S
C2057 H2063 0.959 . S
C2057 H2064 0.961 . S
C2057 H2065 0.960 . S
C2058 C2056 1.381 . S
C2058 C2059 1.394 . S
C2058 H2066 0.930 . S
C2059 C2058 1.394 . S
C2059 C2060 1.383 . S
C2059 H2067 0.929 . S
C2060 C2059 1.383 . S
C2060 C2061 1.377 . S
C2061 H2045 0.930 . S
C2061 C2060 1.377 . S
C2061 C2062 1.379 . S
C2062 H2046 0.931 . S
C2062 C2056 1.383 . S
C2062 C2061 1.379 . S
H2063 C2057 0.959 . S
H2064 C2057 0.961 . S
H2065 C2057 0.960 . S
H2066 C2058 0.930 . S
H2067 C2059 0.929 . S
H2068 C2076 0.929 . S
H2069 C2078 0.930 . S
H2070 C2080 0.930 . S
H2071 C2083 0.929 . S
H2072 C2086 0.930 . S
H2073 C2088 0.960 . S
H2074 C2088 0.960 . S
H2075 C2088 0.960 . S
C2076 H2068 0.929 . S
C2076 C2077 1.377 . S
C2076 C2078 1.384 . S
C2077 C2076 1.377 . S
C2077 C2083 1.390 . S
C2078 H2069 0.930 . S
C2078 C2076 1.384 . S
C2078 C2079 1.372 . S
C2079 C2078 1.372 . S
C2079 C2080 1.400 . S
C2079 C2084 1.490 . S
C2080 H2070 0.930 . S
C2080 C2079 1.400 . S
C2080 C2083 1.386 . S
H2081 C2097 0.930 . S
H2082 C2098 0.931 . S
C2083 H2071 0.929 . S
C2083 C2077 1.390 . S
C2083 C2080 1.386 . S
C2084 C2079 1.490 . S
C2084 C2086 1.395 . S
C2084 C2087 1.403 . S
H2085 C2091 0.930 . S
C2086 H2072 0.930 . S
C2086 C2084 1.395 . S
C2086 C2089 1.403 . S
C2087 C2084 1.403 . S
C2087 C2088 1.524 . S
C2087 C2091 1.400 . S
C2088 H2073 0.960 . S
C2088 H2074 0.960 . S
C2088 H2075 0.960 . S
C2088 C2087 1.524 . S
C2089 C2086 1.403 . S
C2089 C2090 1.392 . S
C2089 C2093 1.495 . S
C2090 C2089 1.392 . S
C2090 C2091 1.385 . S
C2090 C2092 1.478 . S
C2091 H2085 0.930 . S
C2091 C2087 1.400 . S
C2091 C2090 1.385 . S
C2092 C2090 1.478 . S
C2092 C2094 1.381 . S
C2092 C2098 1.383 . S
C2093 C2089 1.495 . S
C2093 H2099 0.959 . S
C2093 H2100 0.961 . S
C2093 H2101 0.960 . S
C2094 C2092 1.381 . S
C2094 C2095 1.394 . S
C2094 H2102 0.930 . S
C2095 C2094 1.394 . S
C2095 C2096 1.383 . S
C2095 H2103 0.929 . S
C2096 C2095 1.383 . S
C2096 C2097 1.377 . S
C2097 H2081 0.930 . S
C2097 C2096 1.377 . S
C2097 C2098 1.379 . S
C2098 H2082 0.931 . S
C2098 C2092 1.383 . S
C2098 C2097 1.379 . S
H2099 C2093 0.959 . S
H2100 C2093 0.961 . S
H2101 C2093 0.960 . S
H2102 C2094 0.930 . S
H2103 C2095 0.929 . S
H2104 C2112 0.929 . S
H2105 C2114 0.930 1_554 S
H2106 C2116 0.930 . S
H2107 C2119 0.929 . S
H2108 C2122 0.930 . S
H2109 C2124 0.960 . S
H2110 C2124 0.960 . S
H2111 C2124 0.960 . S
C2112 H2104 0.929 . S
C2112 C2113 1.377 . S
C2112 C2114 1.384 . S
C2113 C2112 1.377 . S
C2113 C2119 1.390 . S
C2114 H2105 0.930 1_556 S
C2114 C2112 1.384 . S
C2114 C2115 1.372 . S
C2115 C2114 1.372 . S
C2115 C2116 1.400 . S
C2115 C2120 1.490 . S
C2116 H2106 0.930 . S
C2116 C2115 1.400 . S
C2116 C2119 1.386 . S
H2117 C2133 0.930 . S
H2118 C2134 0.931 1_556 S
C2119 H2107 0.929 . S
C2119 C2113 1.390 . S
C2119 C2116 1.386 . S
C2120 C2115 1.490 . S
C2120 C2122 1.395 1_556 S
C2120 C2123 1.403 . S
H2121 C2127 0.930 . S
C2122 H2108 0.930 . S
C2122 C2120 1.395 1_554 S
C2122 C2125 1.403 . S
C2123 C2120 1.403 . S
C2123 C2124 1.524 . S
C2123 C2127 1.400 . S
C2124 H2109 0.960 . S
C2124 H2110 0.960 . S
C2124 H2111 0.960 . S
C2124 C2123 1.524 . S
C2125 C2122 1.403 . S
C2125 C2126 1.392 . S
C2125 C2129 1.495 . S
C2126 C2125 1.392 . S
C2126 C2127 1.385 1_554 S
C2126 C2128 1.478 . S
C2127 H2121 0.930 . S
C2127 C2123 1.400 . S
C2127 C2126 1.385 1_556 S
C2128 C2126 1.478 . S
C2128 C2130 1.381 . S
C2128 C2134 1.383 . S
C2129 C2125 1.495 . S
C2129 H2135 0.959 . S
C2129 H2136 0.961 . S
C2129 H2137 0.960 . S
C2130 C2128 1.381 . S
C2130 C2131 1.394 . S
C2130 H2138 0.930 . S
C2131 C2130 1.394 . S
C2131 C2132 1.383 . S
C2131 H2139 0.929 . S
C2132 C2131 1.383 . S
C2132 C2133 1.377 . S
C2133 H2117 0.930 . S
C2133 C2132 1.377 . S
C2133 C2134 1.379 . S
C2134 H2118 0.931 1_554 S
C2134 C2128 1.383 . S
C2134 C2133 1.379 . S
H2135 C2129 0.959 . S
H2136 C2129 0.961 . S
H2137 C2129 0.960 . S
H2138 C2130 0.930 . S
H2139 C2131 0.929 . S
H2140 C2148 0.929 . S
H2141 C2150 0.930 . S
H2142 C2152 0.930 . S
H2143 C2155 0.929 . S
H2144 C2158 0.930 . S
H2145 C2160 0.960 . S
H2146 C2160 0.960 . S
H2147 C2160 0.960 . S
C2148 H2140 0.929 . S
C2148 C2149 1.377 . S
C2148 C2150 1.384 . S
C2149 C2148 1.377 . S
C2149 C2155 1.390 . S
C2150 H2141 0.930 . S
C2150 C2148 1.384 . S
C2150 C2151 1.372 . S
C2151 C2150 1.372 . S
C2151 C2152 1.400 . S
C2151 C2156 1.490 . S
C2152 H2142 0.930 . S
C2152 C2151 1.400 . S
C2152 C2155 1.386 . S
H2153 C2169 0.930 . S
H2154 C2170 0.931 . S
C2155 H2143 0.929 . S
C2155 C2149 1.390 . S
C2155 C2152 1.386 . S
C2156 C2151 1.490 . S
C2156 C2158 1.395 . S
C2156 C2159 1.403 . S
H2157 C2163 0.930 . S
C2158 H2144 0.930 . S
C2158 C2156 1.395 . S
C2158 C2161 1.403 . S
C2159 C2156 1.403 . S
C2159 C2160 1.524 . S
C2159 C2163 1.400 . S
C2160 H2145 0.960 . S
C2160 H2146 0.960 . S
C2160 H2147 0.960 . S
C2160 C2159 1.524 . S
C2161 C2158 1.403 . S
C2161 C2162 1.392 . S
C2161 C2165 1.495 . S
C2162 C2161 1.392 . S
C2162 C2163 1.385 . S
C2162 C2164 1.478 . S
C2163 H2157 0.930 . S
C2163 C2159 1.400 . S
C2163 C2162 1.385 . S
C2164 C2162 1.478 . S
C2164 C2166 1.381 . S
C2164 C2170 1.383 . S
C2165 C2161 1.495 . S
C2165 H2171 0.959 . S
C2165 H2172 0.961 . S
C2165 H2173 0.960 . S
C2166 C2164 1.381 . S
C2166 C2167 1.394 . S
C2166 H2174 0.930 . S
C2167 C2166 1.394 . S
C2167 C2168 1.383 . S
C2167 H2175 0.929 . S
C2168 C2167 1.383 . S
C2168 C2169 1.377 . S
C2169 H2153 0.930 . S
C2169 C2168 1.377 . S
C2169 C2170 1.379 . S
C2170 H2154 0.931 . S
C2170 C2164 1.383 . S
C2170 C2169 1.379 . S
H2171 C2165 0.959 . S
H2172 C2165 0.961 . S
H2173 C2165 0.960 . S
H2174 C2166 0.930 . S
H2175 C2167 0.929 . S
H2176 C2184 0.929 . S
H2177 C2186 0.930 . S
H2178 C2188 0.930 . S
H2179 C2191 0.929 . S
H2180 C2194 0.930 . S
H2181 C2196 0.960 . S
H2182 C2196 0.960 . S
H2183 C2196 0.960 . S
C2184 H2176 0.929 . S
C2184 C2185 1.377 . S
C2184 C2186 1.384 . S
C2185 C2184 1.377 . S
C2185 C2191 1.390 . S
C2186 H2177 0.930 . S
C2186 C2184 1.384 . S
C2186 C2187 1.372 . S
C2187 C2186 1.372 . S
C2187 C2188 1.400 . S
C2187 C2192 1.490 . S
C2188 H2178 0.930 . S
C2188 C2187 1.400 . S
C2188 C2191 1.386 . S
H2189 C2205 0.930 . S
H2190 C2206 0.931 . S
C2191 H2179 0.929 . S
C2191 C2185 1.390 . S
C2191 C2188 1.386 . S
C2192 C2187 1.490 . S
C2192 C2194 1.395 . S
C2192 C2195 1.403 . S
H2193 C2199 0.930 . S
C2194 H2180 0.930 . S
C2194 C2192 1.395 . S
C2194 C2197 1.403 . S
C2195 C2192 1.403 . S
C2195 C2196 1.524 . S
C2195 C2199 1.400 . S
C2196 H2181 0.960 . S
C2196 H2182 0.960 . S
C2196 H2183 0.960 . S
C2196 C2195 1.524 . S
C2197 C2194 1.403 . S
C2197 C2198 1.392 . S
C2197 C2201 1.495 . S
C2198 C2197 1.392 . S
C2198 C2199 1.385 . S
C2198 C2200 1.478 . S
C2199 H2193 0.930 . S
C2199 C2195 1.400 . S
C2199 C2198 1.385 . S
C2200 C2198 1.478 . S
C2200 C2202 1.381 . S
C2200 C2206 1.383 . S
C2201 C2197 1.495 . S
C2201 H2207 0.959 . S
C2201 H2208 0.961 . S
C2201 H2209 0.960 . S
C2202 C2200 1.381 . S
C2202 C2203 1.394 . S
C2202 H2210 0.930 . S
C2203 C2202 1.394 . S
C2203 C2204 1.383 . S
C2203 H2211 0.929 . S
C2204 C2203 1.383 . S
C2204 C2205 1.377 . S
C2205 H2189 0.930 . S
C2205 C2204 1.377 . S
C2205 C2206 1.379 . S
C2206 H2190 0.931 . S
C2206 C2200 1.383 . S
C2206 C2205 1.379 . S
H2207 C2201 0.959 . S
H2208 C2201 0.961 . S
H2209 C2201 0.960 . S
H2210 C2202 0.930 . S
H2211 C2203 0.929 . S
H2212 C2220 0.929 . S
H2213 C2222 0.930 . S
H2214 C2224 0.930 . S
H2215 C2227 0.929 . S
H2216 C2230 0.930 . S
H2217 C2232 0.960 . S
H2218 C2232 0.960 . S
H2219 C2232 0.960 . S
C2220 H2212 0.929 . S
C2220 C2221 1.377 . S
C2220 C2222 1.384 . S
C2221 C2220 1.377 . S
C2221 C2227 1.390 . S
C2222 H2213 0.930 . S
C2222 C2220 1.384 . S
C2222 C2223 1.372 . S
C2223 C2222 1.372 . S
C2223 C2224 1.400 . S
C2223 C2228 1.490 . S
C2224 H2214 0.930 . S
C2224 C2223 1.400 . S
C2224 C2227 1.386 . S
H2225 C2241 0.930 . S
H2226 C2242 0.931 . S
C2227 H2215 0.929 . S
C2227 C2221 1.390 . S
C2227 C2224 1.386 . S
C2228 C2223 1.490 . S
C2228 C2230 1.395 . S
C2228 C2231 1.403 . S
H2229 C2235 0.930 . S
C2230 H2216 0.930 . S
C2230 C2228 1.395 . S
C2230 C2233 1.403 . S
C2231 C2228 1.403 . S
C2231 C2232 1.524 . S
C2231 C2235 1.400 . S
C2232 H2217 0.960 . S
C2232 H2218 0.960 . S
C2232 H2219 0.960 . S
C2232 C2231 1.524 . S
C2233 C2230 1.403 . S
C2233 C2234 1.392 . S
C2233 C2237 1.495 . S
C2234 C2233 1.392 . S
C2234 C2235 1.385 . S
C2234 C2236 1.478 . S
C2235 H2229 0.930 . S
C2235 C2231 1.400 . S
C2235 C2234 1.385 . S
C2236 C2234 1.478 . S
C2236 C2238 1.381 . S
C2236 C2242 1.383 . S
C2237 C2233 1.495 . S
C2237 H2243 0.959 . S
C2237 H2244 0.961 . S
C2237 H2245 0.960 . S
C2238 C2236 1.381 . S
C2238 C2239 1.394 . S
C2238 H2246 0.930 . S
C2239 C2238 1.394 . S
C2239 C2240 1.383 . S
C2239 H2247 0.929 . S
C2240 C2239 1.383 . S
C2240 C2241 1.377 . S
C2241 H2225 0.930 . S
C2241 C2240 1.377 . S
C2241 C2242 1.379 . S
C2242 H2226 0.931 . S
C2242 C2236 1.383 . S
C2242 C2241 1.379 . S
H2243 C2237 0.959 . S
H2244 C2237 0.961 . S
H2245 C2237 0.960 . S
H2246 C2238 0.930 . S
H2247 C2239 0.929 . S
H2248 C2256 0.929 . S
H2249 C2258 0.930 . S
H2250 C2260 0.930 . S
H2251 C2263 0.929 . S
H2252 C2266 0.930 . S
H2253 C2268 0.960 . S
H2254 C2268 0.960 . S
H2255 C2268 0.960 . S
C2256 H2248 0.929 . S
C2256 C2257 1.377 . S
C2256 C2258 1.384 . S
C2257 C2256 1.377 . S
C2257 C2263 1.390 . S
C2258 H2249 0.930 . S
C2258 C2256 1.384 . S
C2258 C2259 1.372 . S
C2259 C2258 1.372 . S
C2259 C2260 1.400 . S
C2259 C2264 1.490 . S
C2260 H2250 0.930 . S
C2260 C2259 1.400 . S
C2260 C2263 1.386 . S
H2261 C2277 0.930 . S
H2262 C2278 0.931 . S
C2263 H2251 0.929 . S
C2263 C2257 1.390 . S
C2263 C2260 1.386 . S
C2264 C2259 1.490 . S
C2264 C2266 1.395 . S
C2264 C2267 1.403 . S
H2265 C2271 0.930 . S
C2266 H2252 0.930 . S
C2266 C2264 1.395 . S
C2266 C2269 1.403 . S
C2267 C2264 1.403 . S
C2267 C2268 1.524 . S
C2267 C2271 1.400 . S
C2268 H2253 0.960 . S
C2268 H2254 0.960 . S
C2268 H2255 0.960 . S
C2268 C2267 1.524 . S
C2269 C2266 1.403 . S
C2269 C2270 1.392 . S
C2269 C2273 1.495 . S
C2270 C2269 1.392 . S
C2270 C2271 1.385 . S
C2270 C2272 1.478 . S
C2271 H2265 0.930 . S
C2271 C2267 1.400 . S
C2271 C2270 1.385 . S
C2272 C2270 1.478 . S
C2272 C2274 1.381 . S
C2272 C2278 1.383 . S
C2273 C2269 1.495 . S
C2273 H2279 0.959 . S
C2273 H2280 0.961 . S
C2273 H2281 0.960 . S
C2274 C2272 1.381 . S
C2274 C2275 1.394 . S
C2274 H2282 0.930 . S
C2275 C2274 1.394 . S
C2275 C2276 1.383 . S
C2275 H2283 0.929 . S
C2276 C2275 1.383 . S
C2276 C2277 1.377 . S
C2277 H2261 0.930 . S
C2277 C2276 1.377 . S
C2277 C2278 1.379 . S
C2278 H2262 0.931 . S
C2278 C2272 1.383 . S
C2278 C2277 1.379 . S
H2279 C2273 0.959 . S
H2280 C2273 0.961 . S
H2281 C2273 0.960 . S
H2282 C2274 0.930 . S
H2283 C2275 0.929 . S
H2284 C2292 0.929 . S
H2285 C2294 0.930 . S
H2286 C2296 0.930 . S
H2287 C2299 0.929 . S
H2288 C2302 0.930 . S
H2289 C2304 0.960 . S
H2290 C2304 0.960 . S
H2291 C2304 0.960 . S
C2292 H2284 0.929 . S
C2292 C2293 1.377 . S
C2292 C2294 1.384 . S
C2293 C2292 1.377 . S
C2293 C2299 1.390 . S
C2294 H2285 0.930 . S
C2294 C2292 1.384 . S
C2294 C2295 1.372 . S
C2295 C2294 1.372 . S
C2295 C2296 1.400 . S
C2295 C2300 1.490 . S
C2296 H2286 0.930 . S
C2296 C2295 1.400 . S
C2296 C2299 1.386 . S
H2297 C2313 0.930 . S
H2298 C2314 0.931 . S
C2299 H2287 0.929 . S
C2299 C2293 1.390 . S
C2299 C2296 1.386 . S
C2300 C2295 1.490 . S
C2300 C2302 1.395 . S
C2300 C2303 1.403 . S
H2301 C2307 0.930 . S
C2302 H2288 0.930 . S
C2302 C2300 1.395 . S
C2302 C2305 1.403 . S
C2303 C2300 1.403 . S
C2303 C2304 1.524 . S
C2303 C2307 1.400 . S
C2304 H2289 0.960 . S
C2304 H2290 0.960 . S
C2304 H2291 0.960 . S
C2304 C2303 1.524 . S
C2305 C2302 1.403 . S
C2305 C2306 1.392 . S
C2305 C2309 1.495 . S
C2306 C2305 1.392 . S
C2306 C2307 1.385 . S
C2306 C2308 1.478 . S
C2307 H2301 0.930 . S
C2307 C2303 1.400 . S
C2307 C2306 1.385 . S
C2308 C2306 1.478 . S
C2308 C2310 1.381 . S
C2308 C2314 1.383 . S
C2309 C2305 1.495 . S
C2309 H2315 0.959 . S
C2309 H2316 0.961 . S
C2309 H2317 0.960 . S
C2310 C2308 1.381 . S
C2310 C2311 1.394 . S
C2310 H2318 0.930 . S
C2311 C2310 1.394 . S
C2311 C2312 1.383 . S
C2311 H2319 0.929 . S
C2312 C2311 1.383 . S
C2312 C2313 1.377 . S
C2313 H2297 0.930 . S
C2313 C2312 1.377 . S
C2313 C2314 1.379 . S
C2314 H2298 0.931 . S
C2314 C2308 1.383 . S
C2314 C2313 1.379 . S
H2315 C2309 0.959 . S
H2316 C2309 0.961 . S
H2317 C2309 0.960 . S
H2318 C2310 0.930 . S
H2319 C2311 0.929 . S
H2320 C2328 0.929 . S
H2321 C2330 0.930 . S
H2322 C2332 0.930 . S
H2323 C2335 0.929 . S
H2324 C2338 0.930 . S
H2325 C2340 0.960 . S
H2326 C2340 0.960 . S
H2327 C2340 0.960 . S
C2328 H2320 0.929 . S
C2328 C2329 1.377 . S
C2328 C2330 1.384 . S
C2329 C2328 1.377 . S
C2329 C2335 1.390 . S
C2330 H2321 0.930 . S
C2330 C2328 1.384 . S
C2330 C2331 1.372 . S
C2331 C2330 1.372 . S
C2331 C2332 1.400 . S
C2331 C2336 1.490 . S
C2332 H2322 0.930 . S
C2332 C2331 1.400 . S
C2332 C2335 1.386 . S
H2333 C2349 0.930 . S
H2334 C2350 0.931 . S
C2335 H2323 0.929 . S
C2335 C2329 1.390 . S
C2335 C2332 1.386 . S
C2336 C2331 1.490 . S
C2336 C2338 1.395 . S
C2336 C2339 1.403 . S
H2337 C2343 0.930 . S
C2338 H2324 0.930 . S
C2338 C2336 1.395 . S
C2338 C2341 1.403 . S
C2339 C2336 1.403 . S
C2339 C2340 1.524 . S
C2339 C2343 1.400 . S
C2340 H2325 0.960 . S
C2340 H2326 0.960 . S
C2340 H2327 0.960 . S
C2340 C2339 1.524 . S
C2341 C2338 1.403 . S
C2341 C2342 1.392 . S
C2341 C2345 1.495 . S
C2342 C2341 1.392 . S
C2342 C2343 1.385 . S
C2342 C2344 1.478 . S
C2343 H2337 0.930 . S
C2343 C2339 1.400 . S
C2343 C2342 1.385 . S
C2344 C2342 1.478 . S
C2344 C2346 1.381 . S
C2344 C2350 1.383 . S
C2345 C2341 1.495 . S
C2345 H2351 0.959 . S
C2345 H2352 0.961 . S
C2345 H2353 0.960 . S
C2346 C2344 1.381 . S
C2346 C2347 1.394 . S
C2346 H2354 0.930 . S
C2347 C2346 1.394 . S
C2347 C2348 1.383 . S
C2347 H2355 0.929 . S
C2348 C2347 1.383 . S
C2348 C2349 1.377 . S
C2349 H2333 0.930 . S
C2349 C2348 1.377 . S
C2349 C2350 1.379 . S
C2350 H2334 0.931 . S
C2350 C2344 1.383 . S
C2350 C2349 1.379 . S
H2351 C2345 0.959 . S
H2352 C2345 0.961 . S
H2353 C2345 0.960 . S
H2354 C2346 0.930 . S
H2355 C2347 0.929 . S
H2356 C2364 0.929 . S
H2357 C2366 0.930 . S
H2358 C2368 0.930 . S
H2359 C2371 0.929 . S
H2360 C2374 0.930 . S
H2361 C2376 0.960 . S
H2362 C2376 0.960 . S
H2363 C2376 0.960 . S
C2364 H2356 0.929 . S
C2364 C2365 1.377 . S
C2364 C2366 1.384 . S
C2365 C2364 1.377 . S
C2365 C2371 1.390 . S
C2366 H2357 0.930 . S
C2366 C2364 1.384 . S
C2366 C2367 1.372 . S
C2367 C2366 1.372 . S
C2367 C2368 1.400 . S
C2367 C2372 1.490 . S
C2368 H2358 0.930 . S
C2368 C2367 1.400 . S
C2368 C2371 1.386 . S
H2369 C2385 0.930 . S
H2370 C2386 0.931 . S
C2371 H2359 0.929 . S
C2371 C2365 1.390 . S
C2371 C2368 1.386 . S
C2372 C2367 1.490 . S
C2372 C2374 1.395 . S
C2372 C2375 1.403 . S
H2373 C2379 0.930 . S
C2374 H2360 0.930 . S
C2374 C2372 1.395 . S
C2374 C2377 1.403 . S
C2375 C2372 1.403 . S
C2375 C2376 1.524 . S
C2375 C2379 1.400 . S
C2376 H2361 0.960 . S
C2376 H2362 0.960 . S
C2376 H2363 0.960 . S
C2376 C2375 1.524 . S
C2377 C2374 1.403 . S
C2377 C2378 1.392 . S
C2377 C2381 1.495 . S
C2378 C2377 1.392 . S
C2378 C2379 1.385 . S
C2378 C2380 1.478 . S
C2379 H2373 0.930 . S
C2379 C2375 1.400 . S
C2379 C2378 1.385 . S
C2380 C2378 1.478 . S
C2380 C2382 1.381 . S
C2380 C2386 1.383 . S
C2381 C2377 1.495 . S
C2381 H2387 0.959 . S
C2381 H2388 0.961 . S
C2381 H2389 0.960 . S
C2382 C2380 1.381 . S
C2382 C2383 1.394 . S
C2382 H2390 0.930 . S
C2383 C2382 1.394 . S
C2383 C2384 1.383 . S
C2383 H2391 0.929 . S
C2384 C2383 1.383 . S
C2384 C2385 1.377 . S
C2385 H2369 0.930 . S
C2385 C2384 1.377 . S
C2385 C2386 1.379 . S
C2386 H2370 0.931 . S
C2386 C2380 1.383 . S
C2386 C2385 1.379 . S
H2387 C2381 0.959 . S
H2388 C2381 0.961 . S
H2389 C2381 0.960 . S
H2390 C2382 0.930 . S
H2391 C2383 0.929 . S
H2392 C2400 0.929 . S
H2393 C2402 0.930 . S
H2394 C2404 0.930 . S
H2395 C2407 0.929 . S
H2396 C2410 0.930 . S
H2397 C2412 0.960 . S
H2398 C2412 0.960 . S
H2399 C2412 0.960 . S
C2400 H2392 0.929 . S
C2400 C2401 1.377 . S
C2400 C2402 1.384 . S
C2401 C2400 1.377 . S
C2401 C2407 1.390 . S
C2402 H2393 0.930 . S
C2402 C2400 1.384 . S
C2402 C2403 1.372 . S
C2403 C2402 1.372 . S
C2403 C2404 1.400 . S
C2403 C2408 1.490 . S
C2404 H2394 0.930 . S
C2404 C2403 1.400 . S
C2404 C2407 1.386 . S
H2405 C2421 0.930 . S
H2406 C2422 0.931 . S
C2407 H2395 0.929 . S
C2407 C2401 1.390 . S
C2407 C2404 1.386 . S
C2408 C2403 1.490 . S
C2408 C2410 1.395 . S
C2408 C2411 1.403 . S
H2409 C2415 0.930 . S
C2410 H2396 0.930 . S
C2410 C2408 1.395 . S
C2410 C2413 1.403 . S
C2411 C2408 1.403 . S
C2411 C2412 1.524 . S
C2411 C2415 1.400 . S
C2412 H2397 0.960 . S
C2412 H2398 0.960 . S
C2412 H2399 0.960 . S
C2412 C2411 1.524 . S
C2413 C2410 1.403 . S
C2413 C2414 1.392 . S
C2413 C2417 1.495 . S
C2414 C2413 1.392 . S
C2414 C2415 1.385 . S
C2414 C2416 1.478 . S
C2415 H2409 0.930 . S
C2415 C2411 1.400 . S
C2415 C2414 1.385 . S
C2416 C2414 1.478 . S
C2416 C2418 1.381 . S
C2416 C2422 1.383 . S
C2417 C2413 1.495 . S
C2417 H2423 0.959 . S
C2417 H2424 0.961 . S
C2417 H2425 0.960 . S
C2418 C2416 1.381 . S
C2418 C2419 1.394 . S
C2418 H2426 0.930 . S
C2419 C2418 1.394 . S
C2419 C2420 1.383 . S
C2419 H2427 0.929 . S
C2420 C2419 1.383 . S
C2420 C2421 1.377 . S
C2421 H2405 0.930 . S
C2421 C2420 1.377 . S
C2421 C2422 1.379 . S
C2422 H2406 0.931 . S
C2422 C2416 1.383 . S
C2422 C2421 1.379 . S
H2423 C2417 0.959 . S
H2424 C2417 0.961 . S
H2425 C2417 0.960 . S
H2426 C2418 0.930 . S
H2427 C2419 0.929 . S
H2428 C2436 0.929 . S
H2429 C2438 0.930 . S
H2430 C2440 0.930 . S
H2431 C2443 0.929 . S
H2432 C2446 0.930 . S
H2433 C2448 0.960 . S
H2434 C2448 0.960 . S
H2435 C2448 0.960 . S
C2436 H2428 0.929 . S
C2436 C2437 1.377 . S
C2436 C2438 1.384 . S
C2437 C2436 1.377 . S
C2437 C2443 1.390 . S
C2438 H2429 0.930 . S
C2438 C2436 1.384 . S
C2438 C2439 1.372 . S
C2439 C2438 1.372 . S
C2439 C2440 1.400 . S
C2439 C2444 1.490 . S
C2440 H2430 0.930 . S
C2440 C2439 1.400 . S
C2440 C2443 1.386 . S
H2441 C2457 0.930 . S
H2442 C2458 0.931 . S
C2443 H2431 0.929 . S
C2443 C2437 1.390 . S
C2443 C2440 1.386 . S
C2444 C2439 1.490 . S
C2444 C2446 1.395 . S
C2444 C2447 1.403 . S
H2445 C2451 0.930 . S
C2446 H2432 0.930 . S
C2446 C2444 1.395 . S
C2446 C2449 1.403 . S
C2447 C2444 1.403 . S
C2447 C2448 1.524 . S
C2447 C2451 1.400 . S
C2448 H2433 0.960 . S
C2448 H2434 0.960 . S
C2448 H2435 0.960 . S
C2448 C2447 1.524 . S
C2449 C2446 1.403 . S
C2449 C2450 1.392 . S
C2449 C2453 1.495 . S
C2450 C2449 1.392 . S
C2450 C2451 1.385 . S
C2450 C2452 1.478 . S
C2451 H2445 0.930 . S
C2451 C2447 1.400 . S
C2451 C2450 1.385 . S
C2452 C2450 1.478 . S
C2452 C2454 1.381 . S
C2452 C2458 1.383 . S
C2453 C2449 1.495 . S
C2453 H2459 0.959 . S
C2453 H2460 0.961 . S
C2453 H2461 0.960 . S
C2454 C2452 1.381 . S
C2454 C2455 1.394 . S
C2454 H2462 0.930 . S
C2455 C2454 1.394 . S
C2455 C2456 1.383 . S
C2455 H2463 0.929 . S
C2456 C2455 1.383 . S
C2456 C2457 1.377 . S
C2457 H2441 0.930 . S
C2457 C2456 1.377 . S
C2457 C2458 1.379 . S
C2458 H2442 0.931 . S
C2458 C2452 1.383 . S
C2458 C2457 1.379 . S
H2459 C2453 0.959 . S
H2460 C2453 0.961 . S
H2461 C2453 0.960 . S
H2462 C2454 0.930 . S
H2463 C2455 0.929 . S
H2464 C2472 0.929 . S
H2465 C2474 0.930 . S
H2466 C2476 0.930 . S
H2467 C2479 0.929 . S
H2468 C2482 0.930 . S
H2469 C2484 0.960 . S
H2470 C2484 0.960 . S
H2471 C2484 0.960 . S
C2472 H2464 0.929 . S
C2472 C2473 1.377 . S
C2472 C2474 1.384 . S
C2473 C2472 1.377 . S
C2473 C2479 1.390 . S
C2474 H2465 0.930 . S
C2474 C2472 1.384 . S
C2474 C2475 1.372 . S
C2475 C2474 1.372 . S
C2475 C2476 1.400 . S
C2475 C2480 1.490 . S
C2476 H2466 0.930 . S
C2476 C2475 1.400 . S
C2476 C2479 1.386 . S
H2477 C2493 0.930 . S
H2478 C2494 0.931 . S
C2479 H2467 0.929 . S
C2479 C2473 1.390 . S
C2479 C2476 1.386 . S
C2480 C2475 1.490 . S
C2480 C2482 1.395 . S
C2480 C2483 1.403 . S
H2481 C2487 0.930 . S
C2482 H2468 0.930 . S
C2482 C2480 1.395 . S
C2482 C2485 1.403 . S
C2483 C2480 1.403 . S
C2483 C2484 1.524 . S
C2483 C2487 1.400 . S
C2484 H2469 0.960 . S
C2484 H2470 0.960 . S
C2484 H2471 0.960 . S
C2484 C2483 1.524 . S
C2485 C2482 1.403 . S
C2485 C2486 1.392 . S
C2485 C2489 1.495 . S
C2486 C2485 1.392 . S
C2486 C2487 1.385 . S
C2486 C2488 1.478 . S
C2487 H2481 0.930 . S
C2487 C2483 1.400 . S
C2487 C2486 1.385 . S
C2488 C2486 1.478 . S
C2488 C2490 1.381 . S
C2488 C2494 1.383 . S
C2489 C2485 1.495 . S
C2489 H2495 0.959 . S
C2489 H2496 0.961 . S
C2489 H2497 0.960 . S
C2490 C2488 1.381 . S
C2490 C2491 1.394 . S
C2490 H2498 0.930 . S
C2491 C2490 1.394 . S
C2491 C2492 1.383 . S
C2491 H2499 0.929 . S
C2492 C2491 1.383 . S
C2492 C2493 1.377 . S
C2493 H2477 0.930 . S
C2493 C2492 1.377 . S
C2493 C2494 1.379 . S
C2494 H2478 0.931 . S
C2494 C2488 1.383 . S
C2494 C2493 1.379 . S
H2495 C2489 0.959 . S
H2496 C2489 0.961 . S
H2497 C2489 0.960 . S
H2498 C2490 0.930 . S
H2499 C2491 0.929 . S
H2500 C2508 0.929 . S
H2501 C2510 0.930 . S
H2502 C2512 0.930 . S
H2503 C2515 0.929 . S
H2504 C2518 0.930 . S
H2505 C2520 0.960 . S
H2506 C2520 0.960 . S
H2507 C2520 0.960 . S
C2508 H2500 0.929 . S
C2508 C2509 1.377 . S
C2508 C2510 1.384 . S
C2509 C2508 1.377 . S
C2509 C2515 1.390 . S
C2510 H2501 0.930 . S
C2510 C2508 1.384 . S
C2510 C2511 1.372 . S
C2511 C2510 1.372 . S
C2511 C2512 1.400 . S
C2511 C2516 1.490 . S
C2512 H2502 0.930 . S
C2512 C2511 1.400 . S
C2512 C2515 1.386 . S
H2513 C2529 0.930 . S
H2514 C2530 0.931 . S
C2515 H2503 0.929 . S
C2515 C2509 1.390 . S
C2515 C2512 1.386 . S
C2516 C2511 1.490 . S
C2516 C2518 1.395 . S
C2516 C2519 1.403 . S
H2517 C2523 0.930 . S
C2518 H2504 0.930 . S
C2518 C2516 1.395 . S
C2518 C2521 1.403 . S
C2519 C2516 1.403 . S
C2519 C2520 1.524 . S
C2519 C2523 1.400 . S
C2520 H2505 0.960 . S
C2520 H2506 0.960 . S
C2520 H2507 0.960 . S
C2520 C2519 1.524 . S
C2521 C2518 1.403 . S
C2521 C2522 1.392 . S
C2521 C2525 1.495 . S
C2522 C2521 1.392 . S
C2522 C2523 1.385 . S
C2522 C2524 1.478 . S
C2523 H2517 0.930 . S
C2523 C2519 1.400 . S
C2523 C2522 1.385 . S
C2524 C2522 1.478 . S
C2524 C2526 1.381 . S
C2524 C2530 1.383 . S
C2525 C2521 1.495 . S
C2525 H2531 0.959 . S
C2525 H2532 0.961 . S
C2525 H2533 0.960 . S
C2526 C2524 1.381 . S
C2526 C2527 1.394 . S
C2526 H2534 0.930 . S
C2527 C2526 1.394 . S
C2527 C2528 1.383 . S
C2527 H2535 0.929 . S
C2528 C2527 1.383 . S
C2528 C2529 1.377 . S
C2529 H2513 0.930 . S
C2529 C2528 1.377 . S
C2529 C2530 1.379 . S
C2530 H2514 0.931 . S
C2530 C2524 1.383 . S
C2530 C2529 1.379 . S
H2531 C2525 0.959 . S
H2532 C2525 0.961 . S
H2533 C2525 0.960 . S
H2534 C2526 0.930 . S
H2535 C2527 0.929 . S
H2536 C2544 0.929 . S
H2537 C2546 0.930 . S
H2538 C2548 0.930 . S
H2539 C2551 0.929 . S
H2540 C2554 0.930 . S
H2541 C2556 0.960 . S
H2542 C2556 0.960 . S
H2543 C2556 0.960 . S
C2544 H2536 0.929 . S
C2544 C2545 1.377 . S
C2544 C2546 1.384 . S
C2545 C2544 1.377 . S
C2545 C2551 1.390 . S
C2546 H2537 0.930 . S
C2546 C2544 1.384 . S
C2546 C2547 1.372 . S
C2547 C2546 1.372 . S
C2547 C2548 1.400 . S
C2547 C2552 1.490 . S
C2548 H2538 0.930 . S
C2548 C2547 1.400 . S
C2548 C2551 1.386 . S
H2549 C2565 0.930 . S
H2550 C2566 0.931 . S
C2551 H2539 0.929 . S
C2551 C2545 1.390 . S
C2551 C2548 1.386 . S
C2552 C2547 1.490 . S
C2552 C2554 1.395 . S
C2552 C2555 1.403 . S
H2553 C2559 0.930 . S
C2554 H2540 0.930 . S
C2554 C2552 1.395 . S
C2554 C2557 1.403 . S
C2555 C2552 1.403 . S
C2555 C2556 1.524 . S
C2555 C2559 1.400 . S
C2556 H2541 0.960 . S
C2556 H2542 0.960 . S
C2556 H2543 0.960 . S
C2556 C2555 1.524 . S
C2557 C2554 1.403 . S
C2557 C2558 1.392 . S
C2557 C2561 1.495 . S
C2558 C2557 1.392 . S
C2558 C2559 1.385 . S
C2558 C2560 1.478 . S
C2559 H2553 0.930 . S
C2559 C2555 1.400 . S
C2559 C2558 1.385 . S
C2560 C2558 1.478 . S
C2560 C2562 1.381 . S
C2560 C2566 1.383 . S
C2561 C2557 1.495 . S
C2561 H2567 0.959 . S
C2561 H2568 0.961 . S
C2561 H2569 0.960 . S
C2562 C2560 1.381 . S
C2562 C2563 1.394 . S
C2562 H2570 0.930 . S
C2563 C2562 1.394 . S
C2563 C2564 1.383 . S
C2563 H2571 0.929 . S
C2564 C2563 1.383 . S
C2564 C2565 1.377 . S
C2565 H2549 0.930 . S
C2565 C2564 1.377 . S
C2565 C2566 1.379 . S
C2566 H2550 0.931 . S
C2566 C2560 1.383 . S
C2566 C2565 1.379 . S
H2567 C2561 0.959 . S
H2568 C2561 0.961 . S
H2569 C2561 0.960 . S
H2570 C2562 0.930 . S
H2571 C2563 0.929 . S
H2572 C2580 0.929 . S
H2573 C2582 0.930 . S
H2574 C2584 0.930 . S
H2575 C2587 0.929 . S
H2576 C2590 0.930 . S
H2577 C2592 0.960 . S
H2578 C2592 0.960 . S
H2579 C2592 0.960 . S
C2580 H2572 0.929 . S
C2580 C2581 1.377 . S
C2580 C2582 1.384 . S
C2581 C2580 1.377 . S
C2581 C2587 1.390 . S
C2582 H2573 0.930 . S
C2582 C2580 1.384 . S
C2582 C2583 1.372 . S
C2583 C2582 1.372 . S
C2583 C2584 1.400 . S
C2583 C2588 1.490 . S
C2584 H2574 0.930 . S
C2584 C2583 1.400 . S
C2584 C2587 1.386 . S
H2585 C2601 0.930 . S
H2586 C2602 0.931 . S
C2587 H2575 0.929 . S
C2587 C2581 1.390 . S
C2587 C2584 1.386 . S
C2588 C2583 1.490 . S
C2588 C2590 1.395 . S
C2588 C2591 1.403 . S
H2589 C2595 0.930 . S
C2590 H2576 0.930 . S
C2590 C2588 1.395 . S
C2590 C2593 1.403 . S
C2591 C2588 1.403 . S
C2591 C2592 1.524 . S
C2591 C2595 1.400 . S
C2592 H2577 0.960 . S
C2592 H2578 0.960 . S
C2592 H2579 0.960 . S
C2592 C2591 1.524 . S
C2593 C2590 1.403 . S
C2593 C2594 1.392 . S
C2593 C2597 1.495 . S
C2594 C2593 1.392 . S
C2594 C2595 1.385 . S
C2594 C2596 1.478 . S
C2595 H2589 0.930 . S
C2595 C2591 1.400 . S
C2595 C2594 1.385 . S
C2596 C2594 1.478 . S
C2596 C2598 1.381 . S
C2596 C2602 1.383 . S
C2597 C2593 1.495 . S
C2597 H2603 0.959 . S
C2597 H2604 0.961 . S
C2597 H2605 0.960 . S
C2598 C2596 1.381 . S
C2598 C2599 1.394 . S
C2598 H2606 0.930 . S
C2599 C2598 1.394 . S
C2599 C2600 1.383 . S
C2599 H2607 0.929 . S
C2600 C2599 1.383 . S
C2600 C2601 1.377 . S
C2601 H2585 0.930 . S
C2601 C2600 1.377 . S
C2601 C2602 1.379 . S
C2602 H2586 0.931 . S
C2602 C2596 1.383 . S
C2602 C2601 1.379 . S
H2603 C2597 0.959 . S
H2604 C2597 0.961 . S
H2605 C2597 0.960 . S
H2606 C2598 0.930 . S
H2607 C2599 0.929 . S
H2608 C2616 0.929 . S
H2609 C2618 0.930 . S
H2610 C2620 0.930 . S
H2611 C2623 0.929 . S
H2612 C2626 0.930 . S
H2613 C2628 0.960 . S
H2614 C2628 0.960 . S
H2615 C2628 0.960 . S
C2616 H2608 0.929 . S
C2616 C2617 1.377 . S
C2616 C2618 1.384 . S
C2617 C2616 1.377 . S
C2617 C2623 1.390 . S
C2618 H2609 0.930 . S
C2618 C2616 1.384 . S
C2618 C2619 1.372 . S
C2619 C2618 1.372 . S
C2619 C2620 1.400 . S
C2619 C2624 1.490 . S
C2620 H2610 0.930 . S
C2620 C2619 1.400 . S
C2620 C2623 1.386 . S
H2621 C2637 0.930 . S
H2622 C2638 0.931 . S
C2623 H2611 0.929 . S
C2623 C2617 1.390 . S
C2623 C2620 1.386 . S
C2624 C2619 1.490 . S
C2624 C2626 1.395 . S
C2624 C2627 1.403 . S
H2625 C2631 0.930 . S
C2626 H2612 0.930 . S
C2626 C2624 1.395 . S
C2626 C2629 1.403 . S
C2627 C2624 1.403 . S
C2627 C2628 1.524 . S
C2627 C2631 1.400 . S
C2628 H2613 0.960 . S
C2628 H2614 0.960 . S
C2628 H2615 0.960 . S
C2628 C2627 1.524 . S
C2629 C2626 1.403 . S
C2629 C2630 1.392 . S
C2629 C2633 1.495 . S
C2630 C2629 1.392 . S
C2630 C2631 1.385 . S
C2630 C2632 1.478 . S
C2631 H2625 0.930 . S
C2631 C2627 1.400 . S
C2631 C2630 1.385 . S
C2632 C2630 1.478 . S
C2632 C2634 1.381 . S
C2632 C2638 1.383 . S
C2633 C2629 1.495 . S
C2633 H2639 0.959 . S
C2633 H2640 0.961 . S
C2633 H2641 0.960 . S
C2634 C2632 1.381 . S
C2634 C2635 1.394 . S
C2634 H2642 0.930 . S
C2635 C2634 1.394 . S
C2635 C2636 1.383 . S
C2635 H2643 0.929 . S
C2636 C2635 1.383 . S
C2636 C2637 1.377 . S
C2637 H2621 0.930 . S
C2637 C2636 1.377 . S
C2637 C2638 1.379 . S
C2638 H2622 0.931 . S
C2638 C2632 1.383 . S
C2638 C2637 1.379 . S
H2639 C2633 0.959 . S
H2640 C2633 0.961 . S
H2641 C2633 0.960 . S
H2642 C2634 0.930 . S
H2643 C2635 0.929 . S
H2644 C2652 0.929 . S
H2645 C2654 0.930 . S
H2646 C2656 0.930 . S
H2647 C2659 0.929 . S
H2648 C2662 0.930 . S
H2649 C2664 0.960 . S
H2650 C2664 0.960 . S
H2651 C2664 0.960 . S
C2652 H2644 0.929 . S
C2652 C2653 1.377 . S
C2652 C2654 1.384 . S
C2653 C2652 1.377 . S
C2653 C2659 1.390 . S
C2654 H2645 0.930 . S
C2654 C2652 1.384 . S
C2654 C2655 1.372 . S
C2655 C2654 1.372 . S
C2655 C2656 1.400 . S
C2655 C2660 1.490 . S
C2656 H2646 0.930 . S
C2656 C2655 1.400 . S
C2656 C2659 1.386 . S
H2657 C2673 0.930 . S
H2658 C2674 0.931 . S
C2659 H2647 0.929 . S
C2659 C2653 1.390 . S
C2659 C2656 1.386 . S
C2660 C2655 1.490 . S
C2660 C2662 1.395 . S
C2660 C2663 1.403 . S
H2661 C2667 0.930 . S
C2662 H2648 0.930 . S
C2662 C2660 1.395 . S
C2662 C2665 1.403 . S
C2663 C2660 1.403 . S
C2663 C2664 1.524 . S
C2663 C2667 1.400 . S
C2664 H2649 0.960 . S
C2664 H2650 0.960 . S
C2664 H2651 0.960 . S
C2664 C2663 1.524 . S
C2665 C2662 1.403 . S
C2665 C2666 1.392 . S
C2665 C2669 1.495 . S
C2666 C2665 1.392 . S
C2666 C2667 1.385 . S
C2666 C2668 1.478 . S
C2667 H2661 0.930 . S
C2667 C2663 1.400 . S
C2667 C2666 1.385 . S
C2668 C2666 1.478 . S
C2668 C2670 1.381 . S
C2668 C2674 1.383 . S
C2669 C2665 1.495 . S
C2669 H2675 0.959 . S
C2669 H2676 0.961 . S
C2669 H2677 0.960 . S
C2670 C2668 1.381 . S
C2670 C2671 1.394 . S
C2670 H2678 0.930 . S
C2671 C2670 1.394 . S
C2671 C2672 1.383 . S
C2671 H2679 0.929 . S
C2672 C2671 1.383 . S
C2672 C2673 1.377 . S
C2673 H2657 0.930 . S
C2673 C2672 1.377 . S
C2673 C2674 1.379 . S
C2674 H2658 0.931 . S
C2674 C2668 1.383 . S
C2674 C2673 1.379 . S
H2675 C2669 0.959 . S
H2676 C2669 0.961 . S
H2677 C2669 0.960 . S
H2678 C2670 0.930 . S
H2679 C2671 0.929 . S
H2680 C2688 0.929 . S
H2681 C2690 0.930 . S
H2682 C2692 0.930 . S
H2683 C2695 0.929 . S
H2684 C2698 0.930 . S
H2685 C2700 0.960 . S
H2686 C2700 0.960 . S
H2687 C2700 0.960 . S
C2688 H2680 0.929 . S
C2688 C2689 1.377 . S
C2688 C2690 1.384 . S
C2689 C2688 1.377 . S
C2689 C2695 1.390 . S
C2690 H2681 0.930 . S
C2690 C2688 1.384 . S
C2690 C2691 1.372 . S
C2691 C2690 1.372 . S
C2691 C2692 1.400 . S
C2691 C2696 1.490 . S
C2692 H2682 0.930 . S
C2692 C2691 1.400 . S
C2692 C2695 1.386 . S
H2693 C2709 0.930 . S
H2694 C2710 0.931 . S
C2695 H2683 0.929 . S
C2695 C2689 1.390 . S
C2695 C2692 1.386 . S
C2696 C2691 1.490 . S
C2696 C2698 1.395 . S
C2696 C2699 1.403 . S
H2697 C2703 0.930 . S
C2698 H2684 0.930 . S
C2698 C2696 1.395 . S
C2698 C2701 1.403 . S
C2699 C2696 1.403 . S
C2699 C2700 1.524 . S
C2699 C2703 1.400 . S
C2700 H2685 0.960 . S
C2700 H2686 0.960 . S
C2700 H2687 0.960 . S
C2700 C2699 1.524 . S
C2701 C2698 1.403 . S
C2701 C2702 1.392 . S
C2701 C2705 1.495 . S
C2702 C2701 1.392 . S
C2702 C2703 1.385 . S
C2702 C2704 1.478 . S
C2703 H2697 0.930 . S
C2703 C2699 1.400 . S
C2703 C2702 1.385 . S
C2704 C2702 1.478 . S
C2704 C2706 1.381 . S
C2704 C2710 1.383 . S
C2705 C2701 1.495 . S
C2705 H2711 0.959 . S
C2705 H2712 0.961 . S
C2705 H2713 0.960 . S
C2706 C2704 1.381 . S
C2706 C2707 1.394 . S
C2706 H2714 0.930 . S
C2707 C2706 1.394 . S
C2707 C2708 1.383 . S
C2707 H2715 0.929 . S
C2708 C2707 1.383 . S
C2708 C2709 1.377 . S
C2709 H2693 0.930 . S
C2709 C2708 1.377 . S
C2709 C2710 1.379 . S
C2710 H2694 0.931 . S
C2710 C2704 1.383 . S
C2710 C2709 1.379 . S
H2711 C2705 0.959 . S
H2712 C2705 0.961 . S
H2713 C2705 0.960 . S
H2714 C2706 0.930 . S
H2715 C2707 0.929 . S
H2716 C2724 0.929 . S
H2717 C2726 0.930 . S
H2718 C2728 0.930 . S
H2719 C2731 0.929 . S
H2720 C2734 0.930 . S
H2721 C2736 0.960 . S
H2722 C2736 0.960 . S
H2723 C2736 0.960 . S
C2724 H2716 0.929 . S
C2724 C2725 1.377 . S
C2724 C2726 1.384 . S
C2725 C2724 1.377 . S
C2725 C2731 1.390 . S
C2726 H2717 0.930 . S
C2726 C2724 1.384 . S
C2726 C2727 1.372 . S
C2727 C2726 1.372 . S
C2727 C2728 1.400 . S
C2727 C2732 1.490 . S
C2728 H2718 0.930 . S
C2728 C2727 1.400 . S
C2728 C2731 1.386 . S
H2729 C2745 0.930 . S
H2730 C2746 0.931 . S
C2731 H2719 0.929 . S
C2731 C2725 1.390 . S
C2731 C2728 1.386 . S
C2732 C2727 1.490 . S
C2732 C2734 1.395 . S
C2732 C2735 1.403 . S
H2733 C2739 0.930 . S
C2734 H2720 0.930 . S
C2734 C2732 1.395 . S
C2734 C2737 1.403 . S
C2735 C2732 1.403 . S
C2735 C2736 1.524 . S
C2735 C2739 1.400 . S
C2736 H2721 0.960 . S
C2736 H2722 0.960 . S
C2736 H2723 0.960 . S
C2736 C2735 1.524 . S
C2737 C2734 1.403 . S
C2737 C2738 1.392 . S
C2737 C2741 1.495 . S
C2738 C2737 1.392 . S
C2738 C2739 1.385 . S
C2738 C2740 1.478 . S
C2739 H2733 0.930 . S
C2739 C2735 1.400 . S
C2739 C2738 1.385 . S
C2740 C2738 1.478 . S
C2740 C2742 1.381 . S
C2740 C2746 1.383 . S
C2741 C2737 1.495 . S
C2741 H2747 0.959 . S
C2741 H2748 0.961 . S
C2741 H2749 0.960 . S
C2742 C2740 1.381 . S
C2742 C2743 1.394 . S
C2742 H2750 0.930 . S
C2743 C2742 1.394 . S
C2743 C2744 1.383 . S
C2743 H2751 0.929 . S
C2744 C2743 1.383 . S
C2744 C2745 1.377 . S
C2745 H2729 0.930 . S
C2745 C2744 1.377 . S
C2745 C2746 1.379 . S
C2746 H2730 0.931 . S
C2746 C2740 1.383 . S
C2746 C2745 1.379 . S
H2747 C2741 0.959 . S
H2748 C2741 0.961 . S
H2749 C2741 0.960 . S
H2750 C2742 0.930 . S
H2751 C2743 0.929 . S
C457 C125 1.490 . S
C476 C13 1.495 . S
C493 C363 1.490 . S
C512 C27 1.465 . S
C529 C153 1.503 . S
C548 C41 1.517 . S
C565 C391 1.489 . S
C584 C55 1.483 . S
C601 C181 1.496 . S
C620 C69 1.521 . S
C637 C83 1.489 . S
C656 C419 1.474 . S
C673 C97 1.503 . S
C692 C209 1.520 . S
C709 C111 1.502 . S
C728 C447 1.489 . S
C745 C251 1.491 . S
C764 C139 1.501 . S
C781 C279 1.489 . S
C800 C167 1.483 . S
C817 C195 1.491 . S
C836 C307 1.462 . S
C853 C223 1.490 . S
C872 C335 1.496 . S
C889 C237 1.502 . S
C908 C349 1.489 . S
C925 C377 1.491 . S
C944 C265 1.498 . S
C961 C293 1.490 . S
C980 C405 1.464 . S
C997 C433 1.492 . S
C1016 C321 1.506 . S
C1033 C260 1.209 . S
C1052 C8 1.231 . S
C1069 C274 1.201 . S
C1088 C22 1.176 . S
C1105 C36 1.201 . S
C1124 C232 1.175 . S
C1141 C50 1.203 . S
C1160 C246 1.172 . S
C1177 C316 1.200 . S
C1196 C64 1.178 . S
C1213 C78 1.205 . S
C1232 C330 1.232 . S
C1249 C288 1.208 . S
C1268 C92 1.180 . S
C1285 C302 1.201 . S
C1304 C106 1.175 . S
C1321 C120 1.199 . S
C1340 C372 1.189 . S
C1357 C386 1.202 . S
C1376 C134 1.173 . S
C1393 C148 1.208 . S
C1412 C344 1.232 . S
C1429 C162 1.210 . S
C1448 C358 1.233 . S
C1465 C176 1.200 . S
C1484 C428 1.175 . S
C1501 C190 1.202 . S
C1520 C442 1.173 . S
C1537 C400 1.199 . S
C1556 C204 1.176 . S
C1573 C414 1.206 . S
C1592 C218 1.227 . S
C1609 C95 1.311 . S
C1628 C11 1.321 . S
C1645 C109 1.313 . S
C1664 C25 1.318 . S
C1681 C67 1.312 . S
C1700 C39 1.319 . S
C1717 C53 1.312 . S
C1736 C81 1.302 . S
C1753 C207 1.307 . S
C1772 C123 1.295 . S
C1789 C221 1.311 . S
C1808 C137 1.297 . S
C1825 C179 1.309 . S
C1844 C151 1.318 . S
C1861 C193 1.313 . S
C1880 C165 1.308 . S
C1897 C319 1.312 . S
C1916 C235 1.320 . S
C1933 C333 1.312 . S
C1952 C249 1.322 . S
C1969 C263 1.310 . S
C1988 C291 1.294 . S
C2005 C277 1.307 . S
C2024 C305 1.303 . S
C2041 C431 1.312 . S
C2060 C347 1.317 . S
C2077 C445 1.307 . S
C2096 C361 1.296 . S
C2113 C375 1.310 . S
C2132 C403 1.297 . S
C2149 C389 1.311 . S
C2168 C417 1.300 . S
C2185 C7 1.476 . S
C2204 C301 1.468 . S
C2221 C315 1.479 . S
C2240 C21 1.472 . S
C2257 C329 1.478 . S
C2276 C35 1.468 . S
C2293 C49 1.476 . S
C2312 C287 1.467 . S
C2329 C273 1.478 . S
C2348 C63 1.468 . S
C2365 C77 1.479 . S
C2384 C231 1.475 . S
C2401 C245 1.479 . S
C2420 C91 1.472 . S
C2437 C105 1.477 . S
C2456 C259 1.466 . S
C2473 C413 1.476 . S
C2492 C119 1.482 . S
C2509 C427 1.480 . S
C2528 C133 1.466 . S
C2545 C147 1.479 . S
C2564 C441 1.470 . S
C2581 C399 1.477 . S
C2600 C161 1.483 . S
C2617 C385 1.479 . S
C2636 C175 1.472 . S
C2653 C189 1.477 . S
C2672 C343 1.482 . S
C2689 C357 1.477 . S
C2708 C203 1.480 . S
C2725 C217 1.476 . S
C2744 C371 1.480 . S
