# Generated by pormake.
# Topology vmb, (5)-cn, num edge types: 1
# Building blocks:
#     Node 0, Type 0, BuildingBlock: XOMCOT_clean_sbu_0, # of connection points: 5
#     Node 1, Type 0, BuildingBlock: XOMCOT_clean_sbu_0, # of connection points: 5
#     Node 2, Type 0, BuildingBlock: XOMCOT_clean_sbu_0, # of connection points: 5
#     Node 3, Type 0, BuildingBlock: XOMCOT_clean_sbu_0, # of connection points: 5
#     Node 4, Type 0, BuildingBlock: XOMCOT_clean_sbu_0, # of connection points: 5
#     Node 5, Type 0, BuildingBlock: XOMCOT_clean_sbu_0, # of connection points: 5
#     Node 6, Type 0, BuildingBlock: XOMCOT_clean_sbu_0, # of connection points: 5
#     Node 7, Type 0, BuildingBlock: XOMCOT_clean_sbu_0, # of connection points: 5
#     Edge 8, Type (0, 0), BuildingBlock: XUDNAN_clean_linker_2, # of connection points: 2
#     Edge 9, Type (0, 0), BuildingBlock: XUDNAN_clean_linker_2, # of connection points: 2
#     Edge 10, Type (0, 0), BuildingBlock: XUDNAN_clean_linker_2, # of connection points: 2
#     Edge 11, Type (0, 0), BuildingBlock: XUDNAN_clean_linker_2, # of connection points: 2
#     Edge 12, Type (0, 0), BuildingBlock: XUDNAN_clean_linker_2, # of connection points: 2
#     Edge 13, Type (0, 0), BuildingBlock: XUDNAN_clean_linker_2, # of connection points: 2
#     Edge 14, Type (0, 0), BuildingBlock: XUDNAN_clean_linker_2, # of connection points: 2
#     Edge 15, Type (0, 0), BuildingBlock: XUDNAN_clean_linker_2, # of connection points: 2
#     Edge 16, Type (0, 0), BuildingBlock: XUDNAN_clean_linker_2, # of connection points: 2
#     Edge 17, Type (0, 0), BuildingBlock: XUDNAN_clean_linker_2, # of connection points: 2
#     Edge 18, Type (0, 0), BuildingBlock: XUDNAN_clean_linker_2, # of connection points: 2
#     Edge 19, Type (0, 0), BuildingBlock: XUDNAN_clean_linker_2, # of connection points: 2
#     Edge 20, Type (0, 0), BuildingBlock: XUDNAN_clean_linker_2, # of connection points: 2
#     Edge 21, Type (0, 0), BuildingBlock: XUDNAN_clean_linker_2, # of connection points: 2
#     Edge 22, Type (0, 0), BuildingBlock: XUDNAN_clean_linker_2, # of connection points: 2
#     Edge 23, Type (0, 0), BuildingBlock: XUDNAN_clean_linker_2, # of connection points: 2
#     Edge 24, Type (0, 0), BuildingBlock: XUDNAN_clean_linker_2, # of connection points: 2
#     Edge 25, Type (0, 0), BuildingBlock: XUDNAN_clean_linker_2, # of connection points: 2
#     Edge 26, Type (0, 0), BuildingBlock: XUDNAN_clean_linker_2, # of connection points: 2
#     Edge 27, Type (0, 0), BuildingBlock: XUDNAN_clean_linker_2, # of connection points: 2
# Relax obj value: 0.128
# Max RMSD: 0.193
# Mean RMSD: 0.193
data_MOF--net-vmb--node1-XOMCOT_clean_sbu_0--edge1-XUDNAN_clean_linker_2
_symmetry_space_group_name_H-M    P1
_symmetry_Int_Tables_number       1
_symmetry_cell_setting            triclinic
loop_
_symmetry_equiv_pos_as_xyz
'x, y, z'
_cell_length_a     37.007025
_cell_length_b     42.741752
_cell_length_c     30.104691
_cell_angle_alpha  90.326804
_cell_angle_beta   116.11884
_cell_angle_gamma 89.936846
loop_
_atom_site_label
_atom_site_type_symbol
_atom_site_fract_x
_atom_site_fract_y
_atom_site_fract_z
_atom_type_partial_charge
Co0 Co 0.28547 0.08326 0.41024 0.0
C1 C 0.3628 0.05952 0.4156 0.0
C2 C 0.37257 0.09756 0.4662 0.0
C3 C 0.40941 0.08505 0.47437 0.0
N4 N 0.34319 0.08149 0.42927 0.0
N5 N 0.40319 0.06085 0.4428 0.0
H6 H 0.34778 0.04184 0.38782 0.0
H7 H 0.3677 0.11579 0.488 0.0
C8 C 0.28349 0.15241 0.42142 0.0
O9 O 0.26981 0.15498 0.37329 0.0
N10 N 0.22795 0.08377 0.39145 0.0
C11 C 0.20851 0.0607 0.40264 0.0
C12 C 0.16787 0.06434 0.37538 0.0
C13 C 0.19839 0.10102 0.35654 0.0
N14 N 0.16143 0.08952 0.34628 0.0
C15 C 0.31191 0.03498 0.48175 0.0
C16 C 0.28305 0.06101 0.54418 0.0
C17 C 0.29792 0.0303 0.55252 0.0
C18 C 0.31371 0.01772 0.52171 0.0
C19 C 0.28204 0.0776 0.50388 0.0
N20 N 0.29524 0.06409 0.47249 0.0
H21 H 0.32226 0.02434 0.45683 0.0
H22 H 0.26797 0.10036 0.49598 0.0
H23 H 0.2228 0.04101 0.42626 0.0
H24 H 0.20371 0.11976 0.33614 0.0
O25 O 0.27655 0.04603 0.37135 0.0
O26 O 0.27535 0.09414 0.34318 0.0
O27 O 0.29205 0.1256 0.44165 0.0
C28 C 0.27163 0.06409 0.33461 0.0
H29 H 0.43827 0.09201 0.50349 0.0
H30 H 0.14475 0.04857 0.37475 0.0
H31 H 0.27016 0.07148 0.56679 0.0
H32 H 0.32618 0.99433 0.52743 0.0
Co33 Co 0.75968 0.08912 0.0386 0.0
C34 C 0.67508 0.07108 0.01003 0.0
C35 C 0.68603 0.11927 0.03282 0.0
C36 C 0.64627 0.1124 0.01996 0.0
N37 N 0.70396 0.09343 0.02623 0.0
N38 N 0.63946 0.0821 0.00578 0.0
H39 H 0.67991 0.04739 0.00092 0.0
H40 H 0.70079 0.14152 0.04629 0.0
C41 C 0.78258 0.14885 0.00773 0.0
O42 O 0.80155 0.13189 -0.01189 0.0
N43 N 0.81639 0.08456 0.05275 0.0
C44 C 0.83356 0.0648 0.03242 0.0
C45 C 0.87464 0.06739 0.05747 0.0
C46 C 0.84787 0.09887 0.09022 0.0
N47 N 0.88372 0.08867 0.09394 0.0
C48 C 0.74313 0.04998 0.9547 0.0
C49 C 0.7082 0.09506 0.88318 0.0
C50 C 0.71588 0.0654 0.86904 0.0
C51 C 0.73224 0.04239 0.90553 0.0
C52 C 0.72025 0.10171 0.93319 0.0
N53 N 0.74078 0.08003 0.96858 0.0
H54 H 0.75538 0.03176 0.98194 0.0
H55 H 0.71304 0.12434 0.94319 0.0
H56 H 0.81838 0.04875 0.00237 0.0
H57 H 0.84458 0.11549 0.11545 0.0
O58 O 0.75995 0.04724 0.0612 0.0
O59 O 0.77544 0.08973 0.10884 0.0
O60 O 0.76327 0.1355 0.0287 0.0
C61 C 0.771 0.05946 0.1048 0.0
H62 H 0.62417 0.12839 0.0216 0.0
H63 H 0.89628 0.05416 0.04986 0.0
H64 H 0.69353 0.1131 0.85605 0.0
H65 H 0.73845 0.01896 0.89697 0.0
Co66 Co 0.76305 0.93994 0.5449 0.0
C67 C 0.67483 0.94771 0.51264 0.0
C68 C 0.68716 0.90995 0.47425 0.0
C69 C 0.64601 0.91363 0.45527 0.0
N70 N 0.70537 0.93122 0.51056 0.0
N71 N 0.6383 0.93754 0.47933 0.0
H72 H 0.67893 0.96726 0.53718 0.0
H73 H 0.70267 0.89371 0.46097 0.0
C74 C 0.76533 0.87103 0.55675 0.0
O75 O 0.74353 0.87429 0.58107 0.0
N76 N 0.82006 0.9493 0.5781 0.0
C77 C 0.8363 0.97703 0.57561 0.0
C78 C 0.87727 0.97545 0.60292 0.0
C79 C 0.85149 0.93095 0.60654 0.0
N80 N 0.88686 0.94655 0.62231 0.0
C81 C 0.73867 0.96978 0.45208 0.0
C82 C 0.79285 0.93919 0.42644 0.0
C83 C 0.76748 0.962 0.39487 0.0
C84 C 0.73995 0.9773 0.40786 0.0
C85 C 0.79068 0.93247 0.47034 0.0
N86 N 0.76379 0.94766 0.48247 0.0
H87 H 0.71779 0.9819 0.46235 0.0
H88 H 0.8115 0.91571 0.49527 0.0
H89 H 0.81945 0.99701 0.55486 0.0
H90 H 0.84861 0.90696 0.61585 0.0
O91 O 0.75228 0.98164 0.55951 0.0
O92 O 0.76068 0.94038 0.60776 0.0
O93 O 0.77556 0.89494 0.54003 0.0
C94 C 0.75407 0.97032 0.60038 0.0
H95 H 0.62365 0.90053 0.42466 0.0
H96 H 0.89854 0.99401 0.60749 0.0
H97 H 0.81502 0.92733 0.41806 0.0
H98 H 0.71971 0.99494 0.38416 0.0
Co99 Co 0.29459 0.92294 0.91669 0.0
C100 C 0.37275 0.95048 0.93893 0.0
C101 C 0.37658 0.90053 0.93568 0.0
C102 C 0.41303 0.91345 0.94242 0.0
N103 N 0.35151 0.92395 0.93355 0.0
N104 N 0.41027 0.94494 0.9439 0.0
H105 H 0.36036 0.97356 0.93784 0.0
H106 H 0.36851 0.876 0.93069 0.0
C107 C 0.28496 0.87215 0.97886 0.0
O108 O 0.26544 0.89241 -0.00707 0.0
N109 N 0.23638 0.92317 0.89858 0.0
C110 C 0.21788 0.93535 0.92488 0.0
C111 C 0.17707 0.93447 0.89718 0.0
C112 C 0.20542 0.91476 0.85465 0.0
N113 N 0.16916 0.92173 0.85301 0.0
C114 C 0.29268 0.97673 0.97301 0.0
C115 C 0.33321 0.94915 0.0646 0.0
C116 C 0.31201 0.97699 0.06055 0.0
C117 C 0.2942 0.99211 0.01483 0.0
C118 C 0.33128 0.93487 0.02192 0.0
N119 N 0.30701 0.94691 0.97661 0.0
H120 H 0.27596 0.98725 0.93715 0.0
H121 H 0.34679 0.91297 0.02504 0.0
H122 H 0.23229 0.9442 0.96222 0.0
H123 H 0.20906 0.90505 0.82362 0.0
O124 O 0.2869 0.95728 0.87241 0.0
O125 O 0.28382 0.90695 0.85213 0.0
O126 O 0.30063 0.8808 0.95052 0.0
C127 C 0.28243 0.93611 0.83918 0.0
H128 H 0.43877 0.90074 0.94367 0.0
H129 H 0.15475 0.94292 0.90845 0.0
H130 H 0.34864 0.93748 0.09987 0.0
H131 H 0.2782 0.01398 0.01059 0.0
Co132 Co 0.7963 0.5915 0.43049 0.0
C133 C 0.87897 0.568 0.46724 0.0
C134 C 0.87111 0.60971 0.42465 0.0
C135 C 0.90841 0.59706 0.4351 0.0
N136 N 0.85272 0.59136 0.44482 0.0
N137 N 0.91316 0.57094 0.46201 0.0
H138 H 0.87213 0.54798 0.48403 0.0
H139 H 0.85741 0.62972 0.40148 0.0
C140 C 0.78148 0.65089 0.47146 0.0
O141 O 0.76035 0.63426 0.48817 0.0
N142 N 0.73885 0.59081 0.4146 0.0
C143 C 0.72062 0.57787 0.44045 0.0
C144 C 0.67971 0.58026 0.41379 0.0
C145 C 0.70803 0.60139 0.37255 0.0
N146 N 0.67179 0.59491 0.37114 0.0
C147 C 0.80494 0.54754 0.50474 0.0
C148 C 0.84896 0.58477 0.58623 0.0
C149 C 0.84002 0.55391 0.59304 0.0
C150 C 0.81818 0.53515 0.55172 0.0
C151 C 0.8357 0.59616 0.53811 0.0
N152 N 0.81209 0.57808 0.49812 0.0
H153 H 0.78777 0.53261 0.4735 0.0
H154 H 0.84532 0.61917 0.53328 0.0
H155 H 0.73515 0.56788 0.47678 0.0
H156 H 0.71185 0.61264 0.3428 0.0
O157 O 0.79106 0.55096 0.401 0.0
O158 O 0.78261 0.59558 0.36057 0.0
O159 O 0.79935 0.63742 0.44856 0.0
C160 C 0.78359 0.5651 0.35993 0.0
H161 H 0.92986 0.60585 0.42274 0.0
H162 H 0.65734 0.57185 0.42492 0.0
H163 H 0.86666 0.5996 0.61763 0.0
H164 H 0.81066 0.51116 0.55568 0.0
Co165 Co 0.26884 0.58411 0.06429 0.0
C166 C 0.18568 0.56411 0.03865 0.0
C167 C 0.18976 0.61424 0.03821 0.0
C168 C 0.15008 0.60594 0.02357 0.0
N169 N 0.21202 0.58795 0.04733 0.0
N170 N 0.14781 0.5745 0.02441 0.0
H171 H 0.19367 0.53962 0.04053 0.0
H172 H 0.20114 0.63778 0.04069 0.0
C173 C 0.29319 0.6447 0.03272 0.0
O174 O 0.31712 0.62985 0.01797 0.0
N175 N 0.32579 0.57927 0.08187 0.0
C176 C 0.34334 0.55438 0.07153 0.0
C177 C 0.38434 0.55711 0.09736 0.0
C178 C 0.35675 0.59669 0.11457 0.0
N179 N 0.39272 0.58366 0.12423 0.0
C180 C 0.25291 0.53827 -0.01207 0.0
C181 C 0.23428 0.57967 0.91099 0.0
C182 C 0.23733 0.54772 0.90214 0.0
C183 C 0.24518 0.52681 0.94108 0.0
C184 C 0.24126 0.58997 0.9581 0.0
N185 N 0.25373 0.56968 -0.00314 0.0
H186 H 0.25935 0.52174 0.0174 0.0
H187 H 0.23641 0.61433 0.96269 0.0
H188 H 0.32797 0.53442 0.04938 0.0
H189 H 0.35298 0.61745 0.13287 0.0
O190 O 0.26998 0.54458 0.09628 0.0
O191 O 0.28197 0.59127 0.13252 0.0
O192 O 0.27111 0.62958 0.04807 0.0
C193 C 0.27879 0.56126 0.13606 0.0
H194 H 0.1247 0.62171 0.01221 0.0
H195 H 0.4064 0.54024 0.09792 0.0
H196 H 0.22744 0.59694 0.88228 0.0
H197 H 0.24573 0.50178 0.93577 0.0
Co198 Co 0.25373 0.42126 0.55262 0.0
C199 C 0.17116 0.4306 0.54464 0.0
C200 C 0.1714 0.39888 0.48948 0.0
C201 C 0.13197 0.40639 0.47814 0.0
N202 N 0.19618 0.41448 0.53089 0.0
N203 N 0.13213 0.42623 0.51311 0.0
H204 H 0.18069 0.44732 0.57458 0.0
H205 H 0.18136 0.38504 0.46676 0.0
C206 C 0.2699 0.35405 0.57349 0.0
O207 O 0.27548 0.36057 0.61873 0.0
N208 N 0.31057 0.42888 0.573 0.0
C209 C 0.32454 0.45283 0.55613 0.0
C210 C 0.36569 0.45259 0.57931 0.0
C211 C 0.34376 0.41458 0.60727 0.0
N212 N 0.37809 0.4288 0.61195 0.0
C213 C 0.21996 0.45566 0.46363 0.0
C214 C 0.26402 0.42733 0.42038 0.0
C215 C 0.24406 0.45549 0.40126 0.0
C216 C 0.22021 0.46887 0.42168 0.0
C217 C 0.2632 0.41493 0.46275 0.0
N218 N 0.24304 0.43014 0.4851 0.0
H219 H 0.20376 0.46736 0.48128 0.0
H220 H 0.28193 0.39496 0.48014 0.0
H221 H 0.30597 0.4697 0.52905 0.0
H222 H 0.3428 0.395 0.62932 0.0
O223 O 0.24933 0.46315 0.57343 0.0
O224 O 0.26329 0.42151 0.62152 0.0
O225 O 0.26053 0.37576 0.54156 0.0
C226 C 0.25742 0.4516 0.61655 0.0
H227 H 0.10543 0.39908 0.4456 0.0
H228 H 0.3849 0.46898 0.57247 0.0
H229 H 0.28305 0.41667 0.40559 0.0
H230 H 0.20441 0.49066 0.40757 0.0
Co231 Co 0.78815 0.43742 0.91544 0.0
C232 C 0.87253 0.45439 0.93959 0.0
C233 C 0.87189 0.41566 -0.01625 0.0
C234 C 0.9116 0.42359 -0.0039 0.0
N235 N 0.84724 0.43481 0.94751 0.0
N236 N 0.91168 0.44784 0.96767 0.0
H237 H 0.86293 0.47422 0.91521 0.0
H238 H 0.86198 0.39753 0.00078 0.0
C239 C 0.7944 0.36888 0.92179 0.0
O240 O 0.81153 0.37074 0.89184 0.0
N241 N 0.7301 0.44183 0.88401 0.0
C242 C 0.71188 0.46844 0.88725 0.0
C243 C 0.67137 0.46565 0.85848 0.0
C244 C 0.70016 0.42298 0.85276 0.0
N245 N 0.66382 0.43727 0.83646 0.0
C246 C 0.81264 0.47812 0.00045 0.0
C247 C 0.76588 0.44846 0.03838 0.0
C248 C 0.79082 0.47324 0.06505 0.0
C249 C 0.81397 0.4886 0.04532 0.0
C250 C 0.76563 0.43873 -0.00572 0.0
N251 N 0.78925 0.45311 0.97626 0.0
H252 H 0.83061 0.48978 -0.01469 0.0
H253 H 0.74588 0.41972 0.97417 0.0
H254 H 0.72729 0.48885 0.90853 0.0
H255 H 0.70495 0.40005 0.84086 0.0
O256 O 0.79125 0.47598 0.88382 0.0
O257 O 0.7875 0.42816 0.85288 0.0
O258 O 0.78346 0.39372 0.93603 0.0
C259 C 0.79127 0.45803 0.84863 0.0
H260 H 0.93817 0.41234 0.02365 0.0
H261 H 0.64905 0.4834 0.85361 0.0
H262 H 0.74652 0.43663 0.05141 0.0
H263 H 0.83344 0.50798 0.06478 0.0
H264 H 0.32299 0.03441 0.1073 0.0
H265 H 0.27613 0.94076 0.10218 0.0
H266 H 0.25336 0.95571 0.16485 0.0
H267 H 0.36162 0.04359 0.23858 0.0
H268 H 0.34965 0.08461 0.23635 0.0
H269 H 0.35963 0.06733 0.18823 0.0
H270 H 0.29058 0.0872 0.12264 0.0
H271 H 0.28018 0.10415 0.17077 0.0
H272 H 0.24538 0.07656 0.12762 0.0
H273 H 0.23773 0.97913 0.2285 0.0
H274 H 0.23677 0.0084 0.29854 0.0
H275 H 0.29477 0.08726 0.26599 0.0
C276 C 0.3079 0.01723 0.11956 0.0
C277 C 0.30148 0.98641 0.10047 0.0
C278 C 0.28179 0.96434 0.11712 0.0
C279 C 0.26833 0.9727 0.15215 0.0
C280 C 0.27493 1.00321 0.17026 0.0
C281 C 0.29472 0.02509 0.15528 0.0
C282 C 0.30051 0.05551 0.18384 0.0
C283 C 0.34552 0.06319 0.21352 0.0
C284 C 0.2778 0.08245 0.14913 0.0
C285 C 0.28142 0.04701 0.21761 0.0
C286 C 0.2663 0.01686 0.2083 0.0
C287 C 0.24916 1.00284 0.23603 0.0
C288 C 0.24875 0.01963 0.27567 0.0
C289 C 0.26548 0.05003 0.28725 0.0
C290 C 0.28102 0.06429 0.25709 0.0
H291 H 0.77421 0.07814 0.19336 0.0
H292 H 0.77848 0.99614 0.11007 0.0
H293 H 0.78133 0.96216 0.17747 0.0
H294 H 0.84033 0.04817 0.31698 0.0
H295 H 0.81092 0.06596 0.3447 0.0
H296 H 0.81322 0.08391 0.292 0.0
H297 H 0.73531 0.08265 0.24523 0.0
H298 H 0.73277 0.06441 0.29752 0.0
H299 H 0.70922 0.04592 0.23748 0.0
H300 H 0.77952 0.93709 0.25093 0.0
H301 H 0.77338 0.92251 0.32666 0.0
H302 H 0.76929 0.02081 0.36117 0.0
C303 C 0.77656 0.05308 0.18982 0.0
C304 C 0.77635 0.03968 0.14686 0.0
C305 C 0.77866 1.00679 0.1429 0.0
C306 C 0.78037 0.98733 0.18094 0.0
C307 C 0.77966 1.0012 0.22244 0.0
C308 C 0.77793 0.0333 0.22723 0.0
C309 C 0.77508 0.04212 0.27427 0.0
C310 C 0.8121 0.06116 0.30905 0.0
C311 C 0.73575 0.05981 0.26292 0.0
C312 C 0.77489 0.00995 0.29472 0.0
C313 C 0.7779 0.98668 0.2645 0.0
C314 C 0.7775 0.95507 0.27518 0.0
C315 C 0.77405 0.94703 0.31816 0.0
C316 C 0.7708 0.97056 0.34947 0.0
C317 C 0.7713 1.00236 0.33754 0.0
H318 H 0.72689 0.95256 0.66749 0.0
H319 H 0.7609 0.03354 0.60808 0.0
H320 H 0.7448 0.06812 0.66282 0.0
H321 H 0.64282 0.99145 0.68123 0.0
H322 H 0.65283 0.97098 0.73764 0.0
H323 H 0.66405 0.95267 0.69107 0.0
H324 H 0.73805 0.94428 0.75572 0.0
H325 H 0.72693 0.96217 0.80247 0.0
H326 H 0.7672 0.97736 0.7905 0.0
H327 H 0.7329 0.09289 0.73 0.0
H328 H 0.72765 0.10608 0.80647 0.0
H329 H 0.69428 0.00987 0.81683 0.0
C330 C 0.73083 0.97757 0.66605 0.0
C331 C 0.74538 0.99048 0.63408 0.0
C332 C 0.7498 0.02329 0.63255 0.0
C333 C 0.7405 0.0431 0.66319 0.0
C334 C 0.72604 0.02971 0.69425 0.0
C335 C 0.72095 0.99774 0.6957 0.0
C336 C 0.70668 0.98928 0.73405 0.0
C337 C 0.66406 0.97527 0.70952 0.0
C338 C 0.7365 0.96697 0.77298 0.0
C339 C 0.70666 0.02131 0.7557 0.0
C340 C 0.71738 0.04435 0.73177 0.0
C341 C 0.7235 0.07523 0.74839 0.0
C342 C 0.72012 0.08255 0.79178 0.0
C343 C 0.71058 0.05905 0.81799 0.0
C344 C 0.70202 0.02838 0.79817 0.0
H345 H 0.29798 0.99311 0.81155 0.0
H346 H 0.2609 0.89849 0.75774 0.0
H347 H 0.26065 0.91245 0.67799 0.0
H348 H 0.24025 0.03314 0.69596 0.0
H349 H 0.27925 0.06153 0.70663 0.0
H350 H 0.27446 0.04433 0.75828 0.0
H351 H 0.34888 0.02628 0.79482 0.0
H352 H 0.35382 0.04322 0.74314 0.0
H353 H 0.36538 1.00248 0.75763 0.0
H354 H 0.26587 0.93643 0.60539 0.0
H355 H 0.27494 0.96894 0.54369 0.0
H356 H 0.31115 0.04736 0.6466 0.0
C357 C 0.28918 0.97545 0.78271 0.0
C358 C 0.27912 0.9448 0.79042 0.0
C359 C 0.26854 0.92215 0.75229 0.0
C360 C 0.26835 0.92985 0.70701 0.0
C361 C 0.27905 0.96019 0.70086 0.0
C362 C 0.2892 0.98265 0.73761 0.0
C363 C 0.3008 0.01322 0.7223 0.0
C364 C 0.27196 0.03961 0.72069 0.0
C365 C 0.34483 0.02179 0.7565 0.0
C366 C 0.29538 1.00452 0.67101 0.0
C367 C 0.28286 0.97384 0.65939 0.0
C368 C 0.2758 0.96046 0.61407 0.0
C369 C 0.28139 0.97904 0.57948 0.0
C370 C 0.29405 0.01062 0.5905 0.0
C371 C 0.30123 0.02338 0.637 0.0
H372 H 0.78211 0.58674 0.27292 0.0
H373 H 0.77874 0.50207 0.35025 0.0
H374 H 0.78189 0.47015 0.28403 0.0
H375 H 0.72053 0.55596 0.14782 0.0
H376 H 0.74926 0.57596 0.12138 0.0
H377 H 0.74505 0.59254 0.17406 0.0
H378 H 0.82282 0.59448 0.22191 0.0
H379 H 0.82728 0.57743 0.16969 0.0
H380 H 0.85141 0.55907 0.22944 0.0
H381 H 0.79005 0.44728 0.21433 0.0
H382 H 0.7949 0.43387 0.13764 0.0
H383 H 0.79049 0.53254 0.10175 0.0
C384 C 0.78134 0.5615 0.27536 0.0
C385 C 0.78026 0.54686 0.31672 0.0
C386 C 0.77966 0.51379 0.31896 0.0
C387 C 0.78155 0.49541 0.28162 0.0
C388 C 0.78379 0.51045 0.24213 0.0
C389 C 0.78308 0.54265 0.23812 0.0
C390 C 0.78596 0.55253 0.19145 0.0
C391 C 0.74793 0.57029 0.15661 0.0
C392 C 0.82414 0.57203 0.20389 0.0
C393 C 0.78862 0.52079 0.1703 0.0
C394 C 0.7876 0.49697 0.20055 0.0
C395 C 0.79029 0.46564 0.18986 0.0
C396 C 0.79295 0.45829 0.14619 0.0
C397 C 0.79244 0.48214 0.11343 0.0
C398 C 0.79103 0.51385 0.12617 0.0
H399 H 0.25316 0.50346 0.15011 0.0
H400 H 0.31215 0.58877 0.22658 0.0
H401 H 0.31227 0.56923 0.30334 0.0
H402 H 0.18811 0.4965 0.20608 0.0
H403 H 0.19055 0.45447 0.21111 0.0
H404 H 0.19853 0.47334 0.16284 0.0
H405 H 0.26779 0.44606 0.19247 0.0
H406 H 0.25988 0.42681 0.24059 0.0
H407 H 0.30445 0.4501 0.25613 0.0
H408 H 0.3006 0.54372 0.3686 0.0
H409 H 0.2812 0.51132 0.42218 0.0
H410 H 0.23082 0.44144 0.30581 0.0
C411 C 0.26692 0.51762 0.18337 0.0
C412 C 0.28278 0.54755 0.18263 0.0
C413 C 0.29984 0.56577 0.22645 0.0
C414 C 0.30011 0.55488 0.27023 0.0
C415 C 0.28331 0.52569 0.26952 0.0
C416 C 0.26734 0.5071 0.22754 0.0
C417 C 0.24933 0.47734 0.23659 0.0
C418 C 0.20395 0.47531 0.20211 0.0
C419 C 0.27171 0.44836 0.23113 0.0
C420 C 0.25718 0.48247 0.28994 0.0
C421 C 0.27681 0.51057 0.30798 0.0
C422 C 0.28566 0.52149 0.35525 0.0
C423 C 0.27432 0.50311 0.38518 0.0
C424 C 0.25455 0.47415 0.36776 0.0
C425 C 0.24612 0.4635 0.31975 0.0
H426 H 0.27544 0.49747 0.88288 0.0
H427 H 0.19023 0.5722 0.80979 0.0
H428 H 0.18948 0.55699 0.7306 0.0
H429 H 0.33096 0.5007 0.81328 0.0
H430 H 0.33573 0.45892 0.80933 0.0
H431 H 0.33068 0.47579 0.86126 0.0
H432 H 0.26858 0.44074 0.84301 0.0
H433 H 0.2738 0.42339 0.79148 0.0
H434 H 0.2268 0.44112 0.7822 0.0
H435 H 0.20117 0.53624 0.66074 0.0
H436 H 0.21607 0.50599 0.60101 0.0
H437 H 0.28727 0.44075 0.71664 0.0
C438 C 0.25592 0.51038 0.85028 0.0
C439 C 0.23349 0.53653 0.85326 0.0
C440 C 0.20881 0.55278 0.80927 0.0
C441 C 0.2079 0.54417 0.76386 0.0
C442 C 0.23107 0.51883 0.76267 0.0
C443 C 0.25386 0.50167 0.80439 0.0
C444 C 0.27473 0.47463 0.79243 0.0
C445 C 0.32075 0.47771 0.82076 0.0
C446 C 0.26009 0.4431 0.80289 0.0
C447 C 0.26041 0.47955 0.73749 0.0
C448 C 0.23576 0.5055 0.72139 0.0
C449 C 0.22003 0.51566 0.6727 0.0
C450 C 0.22895 0.49844 0.63919 0.0
C451 C 0.25271 0.47099 0.65428 0.0
C452 C 0.26886 0.46155 0.70416 0.0
H453 H 0.78387 0.51722 0.81006 0.0
H454 H 0.83207 0.42472 0.80908 0.0
H455 H 0.86254 0.44385 0.75652 0.0
H456 H 0.75422 0.53154 0.68418 0.0
H457 H 0.76592 0.57274 0.69168 0.0
H458 H 0.75317 0.55295 0.73538 0.0
H459 H 0.82038 0.57202 0.80654 0.0
H460 H 0.83371 0.59124 0.76263 0.0
H461 H 0.86726 0.56283 0.8047 0.0
H462 H 0.8835 0.47066 0.70035 0.0
H463 H 0.88288 0.50113 0.63075 0.0
H464 H 0.81917 0.57606 0.66343 0.0
C465 C 0.801 0.50117 0.7988 0.0
C466 C 0.80553 0.46955 0.8133 0.0
C467 C 0.82779 0.44899 0.79774 0.0
C468 C 0.84585 0.45974 0.76864 0.0
C469 C 0.84114 0.49106 0.75512 0.0
C470 C 0.81861 0.51139 0.76872 0.0
C471 C 0.8139 0.54274 0.74356 0.0
C472 C 0.76916 0.55042 0.7118 0.0
C473 C 0.83508 0.56875 0.78164 0.0
C474 C 0.83565 0.53622 0.71199 0.0
C475 C 0.8524 0.50662 0.7208 0.0
C476 C 0.87109 0.49405 0.6935 0.0
C477 C 0.8707 0.51148 0.65422 0.0
C478 C 0.85128 0.54086 0.64241 0.0
C479 C 0.83513 0.554 0.67285 0.0
H480 H 0.62212 0.997 0.50015 0.0
H481 H 0.56564 0.90818 0.43648 0.0
H482 H 0.49929 0.93053 0.41906 0.0
H483 H 0.55871 0.01508 0.5598 0.0
H484 H 0.55739 0.05642 0.54772 0.0
H485 H 0.60045 0.03355 0.55462 0.0
H486 H 0.59192 0.05226 0.46886 0.0
H487 H 0.54876 0.07512 0.46159 0.0
H488 H 0.54442 0.04646 0.41534 0.0
H489 H 0.43908 0.96231 0.40925 0.0
H490 H 0.38937 1.00068 0.40825 0.0
H491 H 0.48458 0.06936 0.47809 0.0
C492 C 0.596 0.98202 0.48301 0.0
C493 C 0.59943 0.95065 0.46971 0.0
C494 C 0.56401 0.9323 0.44652 0.0
C495 C 0.52612 0.94477 0.43668 0.0
C496 C 0.52393 0.9757 0.45022 0.0
C497 C 0.55791 0.99409 0.47295 0.0
C498 C 0.54723 0.02664 0.48383 0.0
C499 C 0.56712 0.0333 0.53981 0.0
C500 C 0.55877 0.05159 0.45572 0.0
C501 C 0.50188 0.02367 0.46367 0.0
C502 C 0.48914 0.99409 0.44443 0.0
C503 C 0.44871 0.98561 0.42395 0.0
C504 C 0.42053 1.00784 0.42319 0.0
C505 C 0.43264 0.03846 0.44266 0.0
C506 C 0.47409 0.04627 0.4631 0.0
H507 H 0.49253 0.94006 -0.01311 0.0
H508 H 0.39372 1.00282 0.90336 0.0
H509 H 0.44198 0.04377 0.90855 0.0
H510 H 0.5583 0.99761 0.06921 0.0
H511 H 0.60366 0.9815 0.07015 0.0
H512 H 0.56148 0.95632 0.05887 0.0
H513 H 0.5611 0.93743 0.97678 0.0
H514 H 0.60335 0.96254 -0.01214 0.0
H515 H 0.55781 0.96578 0.93104 0.0
H516 H 0.50014 0.07903 0.92587 0.0
H517 H 0.56534 0.10595 0.95203 0.0
H518 H 0.6279 0.02088 0.02214 0.0
C519 C 0.48111 0.9623 0.96929 0.0
C520 C 0.43915 0.96823 0.94534 0.0
C521 C 0.42554 0.9978 0.923 0.0
C522 C 0.45278 0.02122 0.92535 0.0
C523 C 0.49378 0.01484 0.94988 0.0
C524 C 0.50805 0.98609 0.97121 0.0
C525 C 0.55382 0.98576 -0.00402 0.0
C526 C 0.57027 0.97996 0.05187 0.0
C527 C 0.56996 0.96143 0.97144 0.0
C528 C 0.56287 0.01889 -0.01437 0.0
C529 C 0.52768 0.03517 0.95898 0.0
C530 C 0.52793 0.06647 0.94645 0.0
C531 C 0.56509 0.08163 0.96169 0.0
C532 C 0.60168 0.06556 -0.011 0.0
C533 C 0.60044 0.03363 0.00068 0.0
H534 H 0.95178 0.54888 0.40948 0.0
H535 H 0.94764 0.54262 0.55069 0.0
H536 H 1.00278 0.50367 0.57885 0.0
H537 H 0.96874 0.46632 0.3996 0.0
H538 H 1.00155 0.47218 0.37045 0.0
H539 H 0.96291 0.50041 0.36206 0.0
H540 H 1.01647 0.54446 0.39455 0.0
H541 H 0.05522 0.51641 0.40272 0.0
H542 H 0.05914 0.54036 0.45413 0.0
H543 H 0.06062 0.46748 0.59291 0.0
H544 H 0.11414 0.43384 0.58986 0.0
H545 H 0.07702 0.45983 0.43725 0.0
C546 C 0.96288 0.53947 0.44645 0.0
C547 C 0.94595 0.54893 0.4783 0.0
C548 C 0.96043 0.53565 0.526 0.0
C549 C 0.99168 0.51359 0.54221 0.0
C550 C 1.00763 0.50458 0.50989 0.0
C551 C 0.99348 0.51684 0.46281 0.0
C552 C 1.01495 0.50234 0.43486 0.0
C553 C 0.98526 0.48424 0.38903 0.0
C554 C 0.03781 0.52739 0.42075 0.0
C555 C 0.04372 0.48032 0.47377 0.0
C556 C 0.03923 0.48221 0.51694 0.0
C557 C 0.06396 0.46545 0.55906 0.0
C558 C 0.09416 0.44641 0.55707 0.0
C559 C 0.09892 0.4438 0.5131 0.0
C560 C 0.07314 0.4608 0.47083 0.0
H561 H 0.12876 0.53018 0.0752 0.0
H562 H 0.08534 0.57763 0.9345 0.0
H563 H 1.02232 0.54671 0.90309 0.0
H564 H 0.08341 0.45337 0.02853 0.0
H565 H 0.06971 0.4467 0.07822 0.0
H566 H 0.11296 0.47047 0.08866 0.0
H567 H 0.08348 0.51608 0.11911 0.0
H568 H 0.04022 0.49249 0.10902 0.0
H569 H 0.03359 0.53019 0.07994 0.0
H570 H 0.9648 0.51139 0.88697 0.0
H571 H 0.91177 0.47788 0.88876 0.0
H572 H 0.98828 0.45543 0.04253 0.0
C573 C 0.10599 0.53362 0.03766 0.0
C574 C 0.1117 0.55596 0.0068 0.0
C575 C 0.08124 0.56053 0.9583 0.0
C576 C 0.04559 0.54299 0.94023 0.0
C577 C 0.04062 0.52124 0.97146 0.0
C578 C 0.06963 0.51672 0.01937 0.0
C579 C 0.05503 0.49353 0.04615 0.0
C580 C 0.08188 0.46428 0.06127 0.0
C581 C 0.05295 0.50901 0.09122 0.0
C582 C 1.01321 0.48593 0.00583 0.0
C583 C 1.00605 0.50189 0.96293 0.0
C584 C 0.96988 0.49903 0.92048 0.0
C585 C 0.93973 0.48004 0.92208 0.0
C586 C 0.94525 0.46442 0.96612 0.0
C587 C 0.98301 0.46696 0.00831 0.0
H588 H 0.10951 0.05006 0.27868 0.0
H589 H 0.12671 0.14701 0.32532 0.0
H590 H 0.0564 0.15873 0.26382 0.0
H591 H 0.04662 0.06456 0.14694 0.0
H592 H 1.01632 0.03027 0.14028 0.0
H593 H 0.06825 0.03096 0.18552 0.0
H594 H 0.04653 0.01726 0.25407 0.0
H595 H 0.99455 0.0169 0.20922 0.0
H596 H 1.01065 0.04189 0.26299 0.0
H597 H 0.98074 0.15755 0.20136 0.0
H598 H 0.91105 0.14504 0.13904 0.0
H599 H 0.94666 0.04902 0.13407 0.0
C600 C 0.09856 0.07384 0.27537 0.0
C601 C 0.12318 0.09769 0.30653 0.0
C602 C 0.10817 0.12858 0.30129 0.0
C603 C 0.06831 0.1353 0.26677 0.0
C604 C 0.04433 0.11088 0.23744 0.0
C605 C 0.05936 0.08089 0.24096 0.0
C606 C 0.02795 0.0585 0.20617 0.0
C607 C 0.04054 0.04531 0.16742 0.0
C608 C 1.01943 0.03209 0.23484 0.0
C609 C 0.99243 0.08031 0.1829 0.0
C610 C 1.00212 0.11043 0.20132 0.0
C611 C 0.97313 0.13411 0.18635 0.0
C612 C 0.93361 0.1268 0.15127 0.0
C613 C 0.92361 0.09618 0.13131 0.0
C614 C 0.95356 0.0728 0.14778 0.0
H615 H 0.11251 0.96645 0.82331 0.0
H616 H 0.13669 0.87209 0.79113 0.0
H617 H 0.06547 0.86698 0.72759 0.0
H618 H 1.01543 0.9534 0.81338 0.0
H619 H 0.99557 0.99049 0.7848 0.0
H620 H 0.04839 0.98668 0.82538 0.0
H621 H 0.0662 1.00664 0.75624 0.0
H622 H 1.01342 0.01093 0.71563 0.0
H623 H 0.04473 0.98745 0.69668 0.0
H624 H 0.98872 0.872 0.67158 0.0
H625 H 0.91765 0.88858 0.62252 0.0
H626 H 0.94694 0.98003 0.69202 0.0
C627 C 0.10284 0.94481 0.80252 0.0
C628 C 0.12977 0.91957 0.81202 0.0
C629 C 0.11637 0.89169 0.78394 0.0
C630 C 0.07601 0.88859 0.74818 0.0
C631 C 0.04985 0.9138 0.74069 0.0
C632 C 0.06314 0.94155 0.76663 0.0
C633 C 0.02974 0.96537 0.7521 0.0
C634 C 1.02183 0.9745 0.79656 0.0
C635 C 0.03908 0.9943 0.72876 0.0
C636 C 0.99517 0.9467 0.71427 0.0
C637 C 1.00699 0.91691 0.70819 0.0
C638 C 0.9794 0.89538 0.67585 0.0
C639 C 0.93908 0.90485 0.64845 0.0
C640 C 0.92699 0.93563 0.65328 0.0
C641 C 0.95548 0.95651 0.68705 0.0
H642 H 0.44678 0.54753 0.19503 0.0
H643 H 0.42724 0.64078 0.13386 0.0
H644 H 0.49823 0.6547 0.19038 0.0
H645 H 0.51103 0.57108 0.32231 0.0
H646 H 0.54181 0.53652 0.33446 0.0
H647 H 0.48968 0.53506 0.28997 0.0
H648 H 0.51072 0.51454 0.22353 0.0
H649 H 0.56291 0.51631 0.26761 0.0
H650 H 0.54583 0.53687 0.20979 0.0
H651 H 0.57417 0.65603 0.25031 0.0
H652 H 0.64412 0.64699 0.31477 0.0
H653 H 0.61053 0.55372 0.33791 0.0
C654 C 0.45748 0.57096 0.19399 0.0
C655 C 0.43201 0.59314 0.16027 0.0
C656 C 0.44656 0.62366 0.15986 0.0
C657 C 0.48677 0.63159 0.19151 0.0
C658 C 0.51152 0.60882 0.22375 0.0
C659 C 0.49702 0.57931 0.22575 0.0
C660 C 0.52901 0.55907 0.26391 0.0
C661 C 0.51717 0.54991 0.3051 0.0
C662 C 0.53761 0.52999 0.23975 0.0
C663 C 0.56415 0.58151 0.28276 0.0
C664 C 0.55386 0.61003 0.25902 0.0
C665 C 0.5823 0.63389 0.26946 0.0
C666 C 0.62192 0.62856 0.30573 0.0
C667 C 0.63236 0.59982 0.33139 0.0
C668 C 0.60308 0.57607 0.3193 0.0
H669 H 0.60735 0.4727 0.76707 0.0
H670 H 0.63114 0.37876 0.82582 0.0
H671 H 0.55964 0.36438 0.77215 0.0
H672 H 0.51365 0.48114 0.76659 0.0
H673 H 0.49226 0.50382 0.7106 0.0
H674 H 0.54563 0.50484 0.74927 0.0
H675 H 0.55892 0.48769 0.67498 0.0
H676 H 0.50552 0.48693 0.63589 0.0
H677 H 0.53545 0.45263 0.64101 0.0
H678 H 0.4818 0.36286 0.71473 0.0
H679 H 0.40998 0.37336 0.65841 0.0
H680 H 0.44099 0.46936 0.64391 0.0
C681 C 0.5977 0.44896 0.76831 0.0
C682 C 0.62463 0.42685 0.80068 0.0
C683 C 0.61097 0.39594 0.80088 0.0
C684 C 0.5704 0.38771 0.77078 0.0
C685 C 0.54419 0.41065 0.74056 0.0
C686 C 0.55776 0.44056 0.73897 0.0
C687 C 0.52417 0.46168 0.70565 0.0
C688 C 0.51861 0.48949 0.73478 0.0
C689 C 0.53145 0.47287 0.66178 0.0
C690 C 0.48911 0.43929 0.68896 0.0
C691 C 0.50081 0.40987 0.70894 0.0
C692 C 0.4726 0.38582 0.69876 0.0
C693 C 0.43177 0.39205 0.667 0.0
C694 C 0.41953 0.42211 0.64593 0.0
C695 C 0.44893 0.44587 0.65791 0.0
H696 H 0.25352 0.33091 0.481 0.0
H697 H 0.29928 0.30386 0.6351 0.0
H698 H 0.30963 0.25005 0.61295 0.0
H699 H 0.1996 0.25964 0.42976 0.0
H700 H 0.21106 0.25924 0.37743 0.0
H701 H 0.20816 0.29588 0.40551 0.0
H702 H 0.28024 0.30991 0.41849 0.0
H703 H 0.28343 0.27325 0.39058 0.0
H704 H 0.32102 0.28331 0.45176 0.0
H705 H 0.31481 0.19932 0.5745 0.0
H706 H 0.31225 0.15424 0.52198 0.0
H707 H 0.26223 0.21359 0.3921 0.0
C708 C 0.26582 0.3137 0.51014 0.0
C709 C 0.27565 0.32167 0.55988 0.0
C710 C 0.29145 0.29837 0.59677 0.0
C711 C 0.29755 0.26774 0.58458 0.0
C712 C 0.28761 0.2607 0.5353 0.0
C713 C 0.27193 0.28294 0.49859 0.0
C714 C 0.26294 0.26899 0.44833 0.0
C715 C 0.21776 0.27106 0.4132 0.0
C716 C 0.28843 0.28481 0.42599 0.0
C717 C 0.27593 0.23539 0.46253 0.0
C718 C 0.29025 0.23123 0.51294 0.0
C719 C 0.30368 0.20228 0.53498 0.0
C720 C 0.30208 0.17679 0.50471 0.0
C721 C 0.287 0.18026 0.45277 0.0
C722 C 0.27406 0.21012 0.43161 0.0
H723 H 0.81948 0.31136 0.90522 0.0
H724 H 0.75681 0.3568 0.98054 0.0
H725 H 0.74749 0.30559 0.01156 0.0
H726 H 0.75806 0.24235 0.86773 0.0
H727 H 0.79947 0.21658 0.87761 0.0
H728 H 0.80135 0.25686 0.86156 0.0
H729 H 0.86896 0.26409 0.93997 0.0
H730 H 0.86726 0.22383 0.95628 0.0
H731 H 0.87186 0.25456 -0.00028 0.0
H732 H 0.74423 0.24911 0.03358 0.0
H733 H 0.74786 0.19179 0.04525 0.0
H734 H 0.81338 0.18376 0.95634 0.0
C735 C 0.80377 0.3106 0.92821 0.0
C736 C 0.78885 0.33813 0.94037 0.0
C737 C 0.76855 0.33605 0.9707 0.0
C738 C 0.76309 0.30706 -0.01147 0.0
C739 C 0.77819 0.28038 0.97585 0.0
C740 C 0.79817 0.2819 0.94645 0.0
C741 C 0.8115 0.24978 0.93823 0.0
C742 C 0.79138 0.24087 0.88301 0.0
C743 C 0.85763 0.24797 0.95986 0.0
C744 C 0.79578 0.22995 0.96744 0.0
C745 C 0.77663 0.24799 -0.01115 0.0
C746 C 0.75926 0.23475 0.01709 0.0
C747 C 0.76146 0.20217 0.0235 0.0
C748 C 0.78096 0.18325 0.00182 0.0
C749 C 0.7984 0.19751 0.97361 0.0
H750 H 0.74714 0.68575 0.51927 0.0
H751 H 0.82623 0.69306 0.44774 0.0
H752 H 0.83316 0.7499 0.46548 0.0
H753 H 0.69496 0.75716 0.47461 0.0
H754 H 0.69103 0.76631 0.53085 0.0
H755 H 0.69374 0.72615 0.51428 0.0
H756 H 0.75547 0.71744 0.59873 0.0
H757 H 0.75303 0.75764 0.61555 0.0
H758 H 0.79891 0.74245 0.61678 0.0
H759 H 0.8299 0.80599 0.48912 0.0
H760 H 0.8157 0.8575 0.51483 0.0
H761 H 0.73841 0.8135 0.57088 0.0
C762 C 0.76612 0.69919 0.50748 0.0
C763 C 0.78622 0.6849 0.48213 0.0
C764 C 0.81058 0.70346 0.46722 0.0
C765 C 0.81476 0.73574 0.47724 0.0
C766 C 0.79446 0.74902 0.50227 0.0
C767 C 0.77062 0.73133 0.51717 0.0
C768 C 0.75116 0.75137 0.54233 0.0
C769 C 0.70499 0.75018 0.5138 0.0
C770 C 0.76551 0.74164 0.59657 0.0
C771 C 0.76735 0.78327 0.53871 0.0
C772 C 0.79248 0.78134 0.51577 0.0
C773 C 0.81038 0.80776 0.50724 0.0
C774 C 0.80203 0.83695 0.52196 0.0
C775 C 0.77584 0.83962 0.54486 0.0
C776 C 0.75871 0.81227 0.55378 0.0
H777 H 0.31438 0.8198 0.9502 0.0
H778 H 0.26136 0.85023 0.04647 0.0
H779 H 0.2599 0.79597 0.07146 0.0
H780 H 0.25762 0.74966 0.90839 0.0
H781 H 0.29817 0.72635 0.90818 0.0
H782 H 0.29765 0.768 0.8992 0.0
H783 H 0.36846 0.77274 0.97289 0.0
H784 H 0.36932 0.73104 0.9819 0.0
H785 H 0.37701 0.75733 0.03233 0.0
H786 H 0.2591 0.73911 0.08213 0.0
H787 H 0.26309 0.68173 0.08202 0.0
H788 H 0.31843 0.68604 0.98137 0.0
C789 C 0.30301 0.81503 0.97704 0.0
C790 C 0.2879 0.83941 -0.0038 0.0
C791 C 0.273 0.83212 0.031 0.0
C792 C 0.27204 0.80129 0.04558 0.0
C793 C 0.28632 0.77782 0.0254 0.0
C794 C 0.30192 0.78414 -0.0077 0.0
C795 C 0.31444 0.75406 0.97573 0.0
C796 C 0.29054 0.74925 0.91954 0.0
C797 C 0.36002 0.75378 -0.00833 0.0
C798 C 0.30278 0.73001 0.00416 0.0
C799 C 0.28659 0.74442 0.03245 0.0
C800 C 0.27208 0.72749 0.06054 0.0
C801 C 0.27431 0.69485 0.06 0.0
C802 C 0.29113 0.67932 0.03178 0.0
C803 C 0.30572 0.69724 0.00363 0.0
loop_
_geom_bond_atom_site_label_1
_geom_bond_atom_site_label_2
_geom_bond_distance
_geom_bond_site_symmetry_2
_ccdc_geom_bond_type
Co0 N4 2.148 . S
Co0 N10 2.128 . S
Co0 N20 2.194 . S
Co0 O25 2.351 . S
Co0 O26 2.155 . S
Co0 O27 2.096 . S
C1 N4 1.301 . S
C1 N5 1.328 . S
C1 H6 0.930 . S
C2 C3 1.333 . S
C2 N4 1.317 . S
C2 H7 0.930 . S
C3 C2 1.333 . S
C3 N5 1.350 . S
C3 H29 0.931 . S
N4 Co0 2.148 . S
N4 C1 1.301 . S
N4 C2 1.317 . S
N5 C1 1.328 . S
N5 C3 1.350 . S
H6 C1 0.930 . S
H7 C2 0.930 . S
C8 O9 1.224 . S
C8 O27 1.247 . S
O9 C8 1.224 . S
N10 Co0 2.128 . S
N10 C11 1.355 . S
N10 C13 1.311 . S
C11 N10 1.355 . S
C11 C12 1.363 . S
C11 H23 0.929 . S
C12 C11 1.363 . S
C12 N14 1.375 . S
C12 H30 0.931 . S
C13 N10 1.311 . S
C13 N14 1.347 . S
C13 H24 0.929 . S
N14 C12 1.375 . S
N14 C13 1.347 . S
C15 C18 1.365 . S
C15 N20 1.328 . S
C15 H21 0.929 . S
C16 C17 1.362 . S
C16 C19 1.378 . S
C16 H31 0.929 . S
C17 C16 1.362 . S
C17 C18 1.366 . S
C18 C15 1.365 . S
C18 C17 1.366 . S
C18 H32 0.930 1_545 S
C19 C16 1.378 . S
C19 N20 1.315 . S
C19 H22 0.930 . S
N20 Co0 2.194 . S
N20 C15 1.328 . S
N20 C19 1.315 . S
H21 C15 0.929 . S
H22 C19 0.930 . S
H23 C11 0.929 . S
H24 C13 0.929 . S
O25 Co0 2.351 . S
O25 C28 1.244 . S
O26 Co0 2.155 . S
O26 C28 1.240 . S
O27 Co0 2.096 . S
O27 C8 1.247 . S
C28 O25 1.244 . S
C28 O26 1.240 . S
H29 C3 0.931 . S
H30 C12 0.931 . S
H31 C16 0.929 . S
H32 C18 0.930 1_565 S
Co33 N37 2.148 . S
Co33 N43 2.128 . S
Co33 N53 2.194 . S
Co33 O58 2.351 . S
Co33 O59 2.155 . S
Co33 O60 2.096 . S
C34 N37 1.301 . S
C34 N38 1.328 . S
C34 H39 0.930 . S
C35 C36 1.333 . S
C35 N37 1.317 . S
C35 H40 0.930 . S
C36 C35 1.333 . S
C36 N38 1.350 . S
C36 H62 0.931 1_554 S
N37 Co33 2.148 . S
N37 C34 1.301 . S
N37 C35 1.317 . S
N38 C34 1.328 . S
N38 C36 1.350 . S
H39 C34 0.930 . S
H40 C35 0.930 . S
C41 O42 1.224 . S
C41 O60 1.247 . S
O42 C41 1.224 . S
N43 Co33 2.128 . S
N43 C44 1.355 . S
N43 C46 1.311 . S
C44 N43 1.355 . S
C44 C45 1.363 . S
C44 H56 0.929 . S
C45 C44 1.363 . S
C45 N47 1.375 . S
C45 H63 0.931 . S
C46 N43 1.311 . S
C46 N47 1.347 . S
C46 H57 0.929 . S
N47 C45 1.375 . S
N47 C46 1.347 . S
C48 C51 1.365 1_554 S
C48 N53 1.328 . S
C48 H54 0.929 . S
C49 C50 1.362 . S
C49 C52 1.378 . S
C49 H64 0.929 . S
C50 C49 1.362 . S
C50 C51 1.366 . S
C51 C48 1.365 1_556 S
C51 C50 1.366 . S
C51 H65 0.930 1_545 S
C52 C49 1.378 . S
C52 N53 1.315 1_556 S
C52 H55 0.930 . S
N53 Co33 2.194 . S
N53 C48 1.328 . S
N53 C52 1.315 1_554 S
H54 C48 0.929 . S
H55 C52 0.930 . S
H56 C44 0.929 . S
H57 C46 0.929 . S
O58 Co33 2.351 . S
O58 C61 1.244 . S
O59 Co33 2.155 . S
O59 C61 1.240 . S
O60 Co33 2.096 . S
O60 C41 1.247 . S
C61 O58 1.244 . S
C61 O59 1.240 . S
H62 C36 0.931 1_556 S
H63 C45 0.931 . S
H64 C49 0.929 . S
H65 C51 0.930 1_565 S
Co66 N70 2.148 . S
Co66 N76 2.128 . S
Co66 N86 2.194 . S
Co66 O91 2.351 . S
Co66 O92 2.155 . S
Co66 O93 2.096 . S
C67 N70 1.301 . S
C67 N71 1.328 . S
C67 H72 0.930 . S
C68 C69 1.333 . S
C68 N70 1.317 . S
C68 H73 0.930 . S
C69 C68 1.333 . S
C69 N71 1.350 . S
C69 H95 0.931 . S
N70 Co66 2.148 . S
N70 C67 1.301 . S
N70 C68 1.317 . S
N71 C67 1.328 . S
N71 C69 1.350 . S
H72 C67 0.930 . S
H73 C68 0.930 . S
C74 O75 1.224 . S
C74 O93 1.247 . S
O75 C74 1.224 . S
N76 Co66 2.128 . S
N76 C77 1.355 . S
N76 C79 1.311 . S
C77 N76 1.355 . S
C77 C78 1.363 . S
C77 H89 0.929 . S
C78 C77 1.363 . S
C78 N80 1.375 . S
C78 H96 0.931 . S
C79 N76 1.311 . S
C79 N80 1.347 . S
C79 H90 0.929 . S
N80 C78 1.375 . S
N80 C79 1.347 . S
C81 C84 1.365 . S
C81 N86 1.328 . S
C81 H87 0.929 . S
C82 C83 1.362 . S
C82 C85 1.378 . S
C82 H97 0.929 . S
C83 C82 1.362 . S
C83 C84 1.366 . S
C84 C81 1.365 . S
C84 C83 1.366 . S
C84 H98 0.930 1_565 S
C85 C82 1.378 . S
C85 N86 1.315 . S
C85 H88 0.930 . S
N86 Co66 2.194 . S
N86 C81 1.328 . S
N86 C85 1.315 . S
H87 C81 0.929 . S
H88 C85 0.930 . S
H89 C77 0.929 . S
H90 C79 0.929 . S
O91 Co66 2.351 . S
O91 C94 1.244 . S
O92 Co66 2.155 . S
O92 C94 1.240 . S
O93 Co66 2.096 . S
O93 C74 1.247 . S
C94 O91 1.244 . S
C94 O92 1.240 . S
H95 C69 0.931 . S
H96 C78 0.931 . S
H97 C82 0.929 . S
H98 C84 0.930 1_545 S
Co99 N103 2.148 . S
Co99 N109 2.128 . S
Co99 N119 2.194 . S
Co99 O124 2.351 . S
Co99 O125 2.155 . S
Co99 O126 2.096 . S
C100 N103 1.301 . S
C100 N104 1.328 . S
C100 H105 0.930 . S
C101 C102 1.333 . S
C101 N103 1.317 . S
C101 H106 0.930 . S
C102 C101 1.333 . S
C102 N104 1.350 . S
C102 H128 0.931 1_556 S
N103 Co99 2.148 . S
N103 C100 1.301 . S
N103 C101 1.317 . S
N104 C100 1.328 . S
N104 C102 1.350 . S
H105 C100 0.930 . S
H106 C101 0.930 . S
C107 O108 1.224 . S
C107 O126 1.247 . S
O108 C107 1.224 . S
N109 Co99 2.128 . S
N109 C110 1.355 . S
N109 C112 1.311 . S
C110 N109 1.355 . S
C110 C111 1.363 . S
C110 H122 0.929 . S
C111 C110 1.363 . S
C111 N113 1.375 . S
C111 H129 0.931 . S
C112 N109 1.311 . S
C112 N113 1.347 . S
C112 H123 0.929 . S
N113 C111 1.375 . S
N113 C112 1.347 . S
C114 C117 1.365 1_556 S
C114 N119 1.328 . S
C114 H120 0.929 . S
C115 C116 1.362 . S
C115 C118 1.378 . S
C115 H130 0.929 . S
C116 C115 1.362 . S
C116 C117 1.366 . S
C117 C114 1.365 1_554 S
C117 C116 1.366 . S
C117 H131 0.930 1_565 S
C118 C115 1.378 . S
C118 N119 1.315 1_554 S
C118 H121 0.930 . S
N119 Co99 2.194 . S
N119 C114 1.328 . S
N119 C118 1.315 1_556 S
H120 C114 0.929 . S
H121 C118 0.930 . S
H122 C110 0.929 . S
H123 C112 0.929 . S
O124 Co99 2.351 . S
O124 C127 1.244 . S
O125 Co99 2.155 . S
O125 C127 1.240 . S
O126 Co99 2.096 . S
O126 C107 1.247 . S
C127 O124 1.244 . S
C127 O125 1.240 . S
H128 C102 0.931 1_554 S
H129 C111 0.931 . S
H130 C115 0.929 . S
H131 C117 0.930 1_545 S
Co132 N136 2.148 . S
Co132 N142 2.128 . S
Co132 N152 2.194 . S
Co132 O157 2.351 . S
Co132 O158 2.155 . S
Co132 O159 2.096 . S
C133 N136 1.301 . S
C133 N137 1.328 . S
C133 H138 0.930 . S
C134 C135 1.333 . S
C134 N136 1.317 . S
C134 H139 0.930 . S
C135 C134 1.333 . S
C135 N137 1.350 . S
C135 H161 0.931 . S
N136 Co132 2.148 . S
N136 C133 1.301 . S
N136 C134 1.317 . S
N137 C133 1.328 . S
N137 C135 1.350 . S
H138 C133 0.930 . S
H139 C134 0.930 . S
C140 O141 1.224 . S
C140 O159 1.247 . S
O141 C140 1.224 . S
N142 Co132 2.128 . S
N142 C143 1.355 . S
N142 C145 1.311 . S
C143 N142 1.355 . S
C143 C144 1.363 . S
C143 H155 0.929 . S
C144 C143 1.363 . S
C144 N146 1.375 . S
C144 H162 0.931 . S
C145 N142 1.311 . S
C145 N146 1.347 . S
C145 H156 0.929 . S
N146 C144 1.375 . S
N146 C145 1.347 . S
C147 C150 1.365 . S
C147 N152 1.328 . S
C147 H153 0.929 . S
C148 C149 1.362 . S
C148 C151 1.378 . S
C148 H163 0.929 . S
C149 C148 1.362 . S
C149 C150 1.366 . S
C150 C147 1.365 . S
C150 C149 1.366 . S
C150 H164 0.930 . S
C151 C148 1.378 . S
C151 N152 1.315 . S
C151 H154 0.930 . S
N152 Co132 2.194 . S
N152 C147 1.328 . S
N152 C151 1.315 . S
H153 C147 0.929 . S
H154 C151 0.930 . S
H155 C143 0.929 . S
H156 C145 0.929 . S
O157 Co132 2.351 . S
O157 C160 1.244 . S
O158 Co132 2.155 . S
O158 C160 1.240 . S
O159 Co132 2.096 . S
O159 C140 1.247 . S
C160 O157 1.244 . S
C160 O158 1.240 . S
H161 C135 0.931 . S
H162 C144 0.931 . S
H163 C148 0.929 . S
H164 C150 0.930 . S
Co165 N169 2.148 . S
Co165 N175 2.128 . S
Co165 N185 2.194 . S
Co165 O190 2.351 . S
Co165 O191 2.155 . S
Co165 O192 2.096 . S
C166 N169 1.301 . S
C166 N170 1.328 . S
C166 H171 0.930 . S
C167 C168 1.333 . S
C167 N169 1.317 . S
C167 H172 0.930 . S
C168 C167 1.333 . S
C168 N170 1.350 . S
C168 H194 0.931 1_554 S
N169 Co165 2.148 . S
N169 C166 1.301 . S
N169 C167 1.317 . S
N170 C166 1.328 . S
N170 C168 1.350 . S
H171 C166 0.930 . S
H172 C167 0.930 . S
C173 O174 1.224 . S
C173 O192 1.247 . S
O174 C173 1.224 . S
N175 Co165 2.128 . S
N175 C176 1.355 . S
N175 C178 1.311 . S
C176 N175 1.355 . S
C176 C177 1.363 . S
C176 H188 0.929 . S
C177 C176 1.363 . S
C177 N179 1.375 . S
C177 H195 0.931 . S
C178 N175 1.311 . S
C178 N179 1.347 . S
C178 H189 0.929 . S
N179 C177 1.375 . S
N179 C178 1.347 . S
C180 C183 1.365 1_554 S
C180 N185 1.328 . S
C180 H186 0.929 . S
C181 C182 1.362 . S
C181 C184 1.378 . S
C181 H196 0.929 . S
C182 C181 1.362 . S
C182 C183 1.366 . S
C183 C180 1.365 1_556 S
C183 C182 1.366 . S
C183 H197 0.930 . S
C184 C181 1.378 . S
C184 N185 1.315 1_556 S
C184 H187 0.930 . S
N185 Co165 2.194 . S
N185 C180 1.328 . S
N185 C184 1.315 1_554 S
H186 C180 0.929 . S
H187 C184 0.930 . S
H188 C176 0.929 . S
H189 C178 0.929 . S
O190 Co165 2.351 . S
O190 C193 1.244 . S
O191 Co165 2.155 . S
O191 C193 1.240 . S
O192 Co165 2.096 . S
O192 C173 1.247 . S
C193 O190 1.244 . S
C193 O191 1.240 . S
H194 C168 0.931 1_556 S
H195 C177 0.931 . S
H196 C181 0.929 . S
H197 C183 0.930 . S
Co198 N202 2.148 . S
Co198 N208 2.128 . S
Co198 N218 2.194 . S
Co198 O223 2.351 . S
Co198 O224 2.155 . S
Co198 O225 2.096 . S
C199 N202 1.301 . S
C199 N203 1.328 . S
C199 H204 0.930 . S
C200 C201 1.333 . S
C200 N202 1.317 . S
C200 H205 0.930 . S
C201 C200 1.333 . S
C201 N203 1.350 . S
C201 H227 0.931 . S
N202 Co198 2.148 . S
N202 C199 1.301 . S
N202 C200 1.317 . S
N203 C199 1.328 . S
N203 C201 1.350 . S
H204 C199 0.930 . S
H205 C200 0.930 . S
C206 O207 1.224 . S
C206 O225 1.247 . S
O207 C206 1.224 . S
N208 Co198 2.128 . S
N208 C209 1.355 . S
N208 C211 1.311 . S
C209 N208 1.355 . S
C209 C210 1.363 . S
C209 H221 0.929 . S
C210 C209 1.363 . S
C210 N212 1.375 . S
C210 H228 0.931 . S
C211 N208 1.311 . S
C211 N212 1.347 . S
C211 H222 0.929 . S
N212 C210 1.375 . S
N212 C211 1.347 . S
C213 C216 1.365 . S
C213 N218 1.328 . S
C213 H219 0.929 . S
C214 C215 1.362 . S
C214 C217 1.378 . S
C214 H229 0.929 . S
C215 C214 1.362 . S
C215 C216 1.366 . S
C216 C213 1.365 . S
C216 C215 1.366 . S
C216 H230 0.930 . S
C217 C214 1.378 . S
C217 N218 1.315 . S
C217 H220 0.930 . S
N218 Co198 2.194 . S
N218 C213 1.328 . S
N218 C217 1.315 . S
H219 C213 0.929 . S
H220 C217 0.930 . S
H221 C209 0.929 . S
H222 C211 0.929 . S
O223 Co198 2.351 . S
O223 C226 1.244 . S
O224 Co198 2.155 . S
O224 C226 1.240 . S
O225 Co198 2.096 . S
O225 C206 1.247 . S
C226 O223 1.244 . S
C226 O224 1.240 . S
H227 C201 0.931 . S
H228 C210 0.931 . S
H229 C214 0.929 . S
H230 C216 0.930 . S
Co231 N235 2.148 . S
Co231 N241 2.128 . S
Co231 N251 2.194 . S
Co231 O256 2.351 . S
Co231 O257 2.155 . S
Co231 O258 2.096 . S
C232 N235 1.301 . S
C232 N236 1.328 . S
C232 H237 0.930 . S
C233 C234 1.333 . S
C233 N235 1.317 . S
C233 H238 0.930 . S
C234 C233 1.333 . S
C234 N236 1.350 . S
C234 H260 0.931 1_556 S
N235 Co231 2.148 . S
N235 C232 1.301 . S
N235 C233 1.317 . S
N236 C232 1.328 . S
N236 C234 1.350 . S
H237 C232 0.930 . S
H238 C233 0.930 . S
C239 O240 1.224 . S
C239 O258 1.247 . S
O240 C239 1.224 . S
N241 Co231 2.128 . S
N241 C242 1.355 . S
N241 C244 1.311 . S
C242 N241 1.355 . S
C242 C243 1.363 . S
C242 H254 0.929 . S
C243 C242 1.363 . S
C243 N245 1.375 . S
C243 H261 0.931 . S
C244 N241 1.311 . S
C244 N245 1.347 . S
C244 H255 0.929 . S
N245 C243 1.375 . S
N245 C244 1.347 . S
C246 C249 1.365 1_556 S
C246 N251 1.328 . S
C246 H252 0.929 . S
C247 C248 1.362 . S
C247 C250 1.378 . S
C247 H262 0.929 . S
C248 C247 1.362 . S
C248 C249 1.366 . S
C249 C246 1.365 1_554 S
C249 C248 1.366 . S
C249 H263 0.930 . S
C250 C247 1.378 . S
C250 N251 1.315 1_554 S
C250 H253 0.930 . S
N251 Co231 2.194 . S
N251 C246 1.328 . S
N251 C250 1.315 1_556 S
H252 C246 0.929 . S
H253 C250 0.930 . S
H254 C242 0.929 . S
H255 C244 0.929 . S
O256 Co231 2.351 . S
O256 C259 1.244 . S
O257 Co231 2.155 . S
O257 C259 1.240 . S
O258 Co231 2.096 . S
O258 C239 1.247 . S
C259 O256 1.244 . S
C259 O257 1.240 . S
H260 C234 0.931 1_554 S
H261 C243 0.931 . S
H262 C247 0.929 . S
H263 C249 0.930 . S
H264 C276 0.930 . S
H265 C278 0.930 . S
H266 C279 0.930 . S
H267 C283 0.959 . S
H268 C283 0.959 . S
H269 C283 0.961 . S
H270 C284 0.960 . S
H271 C284 0.961 . S
H272 C284 0.959 . S
H273 C287 0.929 . S
H274 C288 0.931 1_565 S
H275 C290 0.930 . S
C276 H264 0.930 . S
C276 C277 1.399 1_545 S
C276 C281 1.399 . S
C277 C276 1.399 1_565 S
C277 C278 1.376 . S
C278 H265 0.930 . S
C278 C277 1.376 . S
C278 C279 1.388 . S
C279 H266 0.930 . S
C279 C278 1.388 . S
C279 C280 1.390 . S
C280 C279 1.390 . S
C280 C281 1.394 1_565 S
C280 C286 1.465 1_565 S
C281 C276 1.399 . S
C281 C280 1.394 1_545 S
C281 C282 1.516 . S
C282 C281 1.516 . S
C282 C283 1.502 . S
C282 C284 1.561 . S
C282 C285 1.526 . S
C283 H267 0.959 . S
C283 H268 0.959 . S
C283 H269 0.961 . S
C283 C282 1.502 . S
C284 H270 0.960 . S
C284 H271 0.961 . S
C284 H272 0.959 . S
C284 C282 1.561 . S
C285 C282 1.526 . S
C285 C286 1.396 . S
C285 C290 1.390 . S
C286 C280 1.465 1_545 S
C286 C285 1.396 . S
C286 C287 1.399 1_545 S
C287 H273 0.929 . S
C287 C286 1.399 1_565 S
C287 C288 1.385 1_565 S
C288 H274 0.931 1_545 S
C288 C287 1.385 1_545 S
C288 C289 1.389 . S
C289 C288 1.389 . S
C289 C290 1.387 . S
C290 H275 0.930 . S
C290 C285 1.390 . S
C290 C289 1.387 . S
H291 C303 0.930 . S
H292 C305 0.930 . S
H293 C306 0.904 1_565 S
H294 C310 0.959 . S
H295 C310 0.959 . S
H296 C310 0.961 . S
H297 C311 0.960 . S
H298 C311 0.961 . S
H299 C311 0.959 . S
H300 C314 0.929 . S
H301 C315 0.931 . S
H302 C317 0.930 . S
C303 H291 0.930 . S
C303 C304 1.399 . S
C303 C308 1.399 . S
C304 C303 1.399 . S
C304 C305 1.376 . S
C305 H292 0.930 . S
C305 C304 1.376 . S
C305 C306 1.404 . S
C306 H293 0.904 1_545 S
C306 C305 1.404 . S
C306 C307 1.401 . S
C307 C306 1.401 . S
C307 C308 1.394 . S
C307 C313 1.459 1_545 S
C308 C303 1.399 . S
C308 C307 1.394 . S
C308 C309 1.516 . S
C309 C308 1.516 . S
C309 C310 1.502 . S
C309 C311 1.561 . S
C309 C312 1.526 . S
C310 H294 0.959 . S
C310 H295 0.959 . S
C310 H296 0.961 . S
C310 C309 1.502 . S
C311 H297 0.960 . S
C311 H298 0.961 . S
C311 H299 0.959 . S
C311 C309 1.561 . S
C312 C309 1.526 . S
C312 C313 1.387 1_545 S
C312 C317 1.390 . S
C313 C307 1.459 1_565 S
C313 C312 1.387 1_565 S
C313 C314 1.412 . S
C314 H300 0.929 . S
C314 C313 1.412 . S
C314 C315 1.385 . S
C315 H301 0.931 . S
C315 C314 1.385 . S
C315 C316 1.389 . S
C316 C315 1.389 . S
C316 C317 1.387 1_565 S
C317 H302 0.930 . S
C317 C312 1.390 . S
C317 C316 1.387 1_545 S
H318 C330 0.930 . S
H319 C332 0.930 1_545 S
H320 C333 0.930 . S
H321 C337 0.959 . S
H322 C337 0.959 . S
H323 C337 0.961 . S
H324 C338 0.960 . S
H325 C338 0.961 . S
H326 C338 0.959 . S
H327 C341 0.929 . S
H328 C342 0.931 . S
H329 C344 0.930 . S
C330 H318 0.930 . S
C330 C331 1.399 . S
C330 C335 1.399 . S
C331 C330 1.399 . S
C331 C332 1.376 . S
C332 H319 0.930 1_565 S
C332 C331 1.376 . S
C332 C333 1.388 1_565 S
C333 H320 0.930 . S
C333 C332 1.388 1_545 S
C333 C334 1.390 1_545 S
C334 C333 1.390 1_565 S
C334 C335 1.394 . S
C334 C340 1.465 1_565 S
C335 C330 1.399 . S
C335 C334 1.394 . S
C335 C336 1.516 . S
C336 C335 1.516 . S
C336 C337 1.502 . S
C336 C338 1.561 . S
C336 C339 1.526 . S
C337 H321 0.959 . S
C337 H322 0.959 . S
C337 H323 0.961 . S
C337 C336 1.502 . S
C338 H324 0.960 . S
C338 H325 0.961 . S
C338 H326 0.959 . S
C338 C336 1.561 . S
C339 C336 1.526 . S
C339 C340 1.396 1_565 S
C339 C344 1.390 . S
C340 C334 1.465 1_545 S
C340 C339 1.396 1_545 S
C340 C341 1.399 . S
C341 H327 0.929 . S
C341 C340 1.399 . S
C341 C342 1.385 . S
C342 H328 0.931 . S
C342 C341 1.385 . S
C342 C343 1.389 . S
C343 C342 1.389 . S
C343 C344 1.387 1_545 S
C344 H329 0.930 . S
C344 C339 1.390 . S
C344 C343 1.387 1_565 S
H345 C357 0.930 1_545 S
H346 C359 0.930 . S
H347 C360 0.930 . S
H348 C364 0.959 . S
H349 C364 0.959 . S
H350 C364 0.961 . S
H351 C365 0.960 . S
H352 C365 0.961 . S
H353 C365 0.959 . S
H354 C368 0.929 . S
H355 C369 0.931 . S
H356 C371 0.930 . S
C357 H345 0.930 1_565 S
C357 C358 1.399 . S
C357 C362 1.399 . S
C358 C357 1.399 . S
C358 C359 1.376 . S
C359 H346 0.930 . S
C359 C358 1.376 . S
C359 C360 1.388 . S
C360 H347 0.930 . S
C360 C359 1.388 . S
C360 C361 1.390 . S
C361 C360 1.390 . S
C361 C362 1.394 . S
C361 C367 1.465 . S
C362 C357 1.399 . S
C362 C361 1.394 . S
C362 C363 1.516 1_565 S
C363 C362 1.516 1_545 S
C363 C364 1.502 . S
C363 C365 1.561 . S
C363 C366 1.526 . S
C364 H348 0.959 . S
C364 H349 0.959 . S
C364 H350 0.961 . S
C364 C363 1.502 . S
C365 H351 0.960 . S
C365 H352 0.961 . S
C365 H353 0.959 . S
C365 C363 1.561 . S
C366 C363 1.526 . S
C366 C367 1.396 1_545 S
C366 C371 1.390 . S
C367 C361 1.465 . S
C367 C366 1.396 1_565 S
C367 C368 1.399 . S
C368 H354 0.929 . S
C368 C367 1.399 . S
C368 C369 1.385 . S
C369 H355 0.931 . S
C369 C368 1.385 . S
C369 C370 1.389 1_565 S
C370 C369 1.389 1_545 S
C370 C371 1.387 . S
C371 H356 0.930 . S
C371 C366 1.390 . S
C371 C370 1.387 . S
H372 C384 0.930 . S
H373 C386 0.930 . S
H374 C387 0.930 . S
H375 C391 0.959 . S
H376 C391 0.959 . S
H377 C391 0.961 . S
H378 C392 0.960 . S
H379 C392 0.961 . S
H380 C392 0.959 . S
H381 C395 0.929 . S
H382 C396 0.931 . S
H383 C398 0.930 . S
C384 H372 0.930 . S
C384 C385 1.399 . S
C384 C389 1.399 . S
C385 C384 1.399 . S
C385 C386 1.376 . S
C386 H373 0.930 . S
C386 C385 1.376 . S
C386 C387 1.388 . S
C387 H374 0.930 . S
C387 C386 1.388 . S
C387 C388 1.390 . S
C388 C387 1.390 . S
C388 C389 1.394 . S
C388 C394 1.465 . S
C389 C384 1.399 . S
C389 C388 1.394 . S
C389 C390 1.516 . S
C390 C389 1.516 . S
C390 C391 1.502 . S
C390 C392 1.561 . S
C390 C393 1.526 . S
C391 H375 0.959 . S
C391 H376 0.959 . S
C391 H377 0.961 . S
C391 C390 1.502 . S
C392 H378 0.960 . S
C392 H379 0.961 . S
C392 H380 0.959 . S
C392 C390 1.561 . S
C393 C390 1.526 . S
C393 C394 1.396 . S
C393 C398 1.390 . S
C394 C388 1.465 . S
C394 C393 1.396 . S
C394 C395 1.399 . S
C395 H381 0.929 . S
C395 C394 1.399 . S
C395 C396 1.385 . S
C396 H382 0.931 . S
C396 C395 1.385 . S
C396 C397 1.389 . S
C397 C396 1.389 . S
C397 C398 1.387 . S
C398 H383 0.930 . S
C398 C393 1.390 . S
C398 C397 1.387 . S
H399 C411 0.930 . S
H400 C413 0.930 . S
H401 C414 0.930 . S
H402 C418 0.959 . S
H403 C418 0.959 . S
H404 C418 0.961 . S
H405 C419 0.960 . S
H406 C419 0.961 . S
H407 C419 0.959 . S
H408 C422 0.929 . S
H409 C423 0.931 . S
H410 C425 0.930 . S
C411 H399 0.930 . S
C411 C412 1.399 . S
C411 C416 1.399 . S
C412 C411 1.399 . S
C412 C413 1.376 . S
C413 H400 0.930 . S
C413 C412 1.376 . S
C413 C414 1.388 . S
C414 H401 0.930 . S
C414 C413 1.388 . S
C414 C415 1.390 . S
C415 C414 1.390 . S
C415 C416 1.394 . S
C415 C421 1.465 . S
C416 C411 1.399 . S
C416 C415 1.394 . S
C416 C417 1.516 . S
C417 C416 1.516 . S
C417 C418 1.502 . S
C417 C419 1.561 . S
C417 C420 1.526 . S
C418 H402 0.959 . S
C418 H403 0.959 . S
C418 H404 0.961 . S
C418 C417 1.502 . S
C419 H405 0.960 . S
C419 H406 0.961 . S
C419 H407 0.959 . S
C419 C417 1.561 . S
C420 C417 1.526 . S
C420 C421 1.396 . S
C420 C425 1.390 . S
C421 C415 1.465 . S
C421 C420 1.396 . S
C421 C422 1.399 . S
C422 H408 0.929 . S
C422 C421 1.399 . S
C422 C423 1.385 . S
C423 H409 0.931 . S
C423 C422 1.385 . S
C423 C424 1.389 . S
C424 C423 1.389 . S
C424 C425 1.387 . S
C425 H410 0.930 . S
C425 C420 1.390 . S
C425 C424 1.387 . S
H426 C438 0.930 . S
H427 C440 0.930 . S
H428 C441 0.930 . S
H429 C445 0.959 . S
H430 C445 0.959 . S
H431 C445 0.961 . S
H432 C446 0.960 . S
H433 C446 0.961 . S
H434 C446 0.959 . S
H435 C449 0.929 . S
H436 C450 0.931 . S
H437 C452 0.930 . S
C438 H426 0.930 . S
C438 C439 1.399 . S
C438 C443 1.399 . S
C439 C438 1.399 . S
C439 C440 1.376 . S
C440 H427 0.930 . S
C440 C439 1.376 . S
C440 C441 1.388 . S
C441 H428 0.930 . S
C441 C440 1.388 . S
C441 C442 1.390 . S
C442 C441 1.390 . S
C442 C443 1.394 . S
C442 C448 1.465 . S
C443 C438 1.399 . S
C443 C442 1.394 . S
C443 C444 1.516 . S
C444 C443 1.516 . S
C444 C445 1.502 . S
C444 C446 1.561 . S
C444 C447 1.526 . S
C445 H429 0.959 . S
C445 H430 0.959 . S
C445 H431 0.961 . S
C445 C444 1.502 . S
C446 H432 0.960 . S
C446 H433 0.961 . S
C446 H434 0.959 . S
C446 C444 1.561 . S
C447 C444 1.526 . S
C447 C448 1.396 . S
C447 C452 1.390 . S
C448 C442 1.465 . S
C448 C447 1.396 . S
C448 C449 1.399 . S
C449 H435 0.929 . S
C449 C448 1.399 . S
C449 C450 1.385 . S
C450 H436 0.931 . S
C450 C449 1.385 . S
C450 C451 1.389 . S
C451 C450 1.389 . S
C451 C452 1.387 . S
C452 H437 0.930 . S
C452 C447 1.390 . S
C452 C451 1.387 . S
H453 C465 0.930 . S
H454 C467 0.930 . S
H455 C468 0.930 . S
H456 C472 0.959 . S
H457 C472 0.959 . S
H458 C472 0.961 . S
H459 C473 0.960 . S
H460 C473 0.961 . S
H461 C473 0.959 . S
H462 C476 0.929 . S
H463 C477 0.931 . S
H464 C479 0.930 . S
C465 H453 0.930 . S
C465 C466 1.399 . S
C465 C470 1.399 . S
C466 C465 1.399 . S
C466 C467 1.376 . S
C467 H454 0.930 . S
C467 C466 1.376 . S
C467 C468 1.388 . S
C468 H455 0.930 . S
C468 C467 1.388 . S
C468 C469 1.390 . S
C469 C468 1.390 . S
C469 C470 1.394 . S
C469 C475 1.465 . S
C470 C465 1.399 . S
C470 C469 1.394 . S
C470 C471 1.516 . S
C471 C470 1.516 . S
C471 C472 1.502 . S
C471 C473 1.561 . S
C471 C474 1.526 . S
C472 H456 0.959 . S
C472 H457 0.959 . S
C472 H458 0.961 . S
C472 C471 1.502 . S
C473 H459 0.960 . S
C473 H460 0.961 . S
C473 H461 0.959 . S
C473 C471 1.561 . S
C474 C471 1.526 . S
C474 C475 1.396 . S
C474 C479 1.390 . S
C475 C469 1.465 . S
C475 C474 1.396 . S
C475 C476 1.399 . S
C476 H462 0.929 . S
C476 C475 1.399 . S
C476 C477 1.385 . S
C477 H463 0.931 . S
C477 C476 1.385 . S
C477 C478 1.389 . S
C478 C477 1.389 . S
C478 C479 1.387 . S
C479 H464 0.930 . S
C479 C474 1.390 . S
C479 C478 1.387 . S
H480 C492 0.930 . S
H481 C494 0.930 . S
H482 C495 0.930 . S
H483 C499 0.959 . S
H484 C499 0.959 . S
H485 C499 0.961 . S
H486 C500 0.960 . S
H487 C500 0.961 . S
H488 C500 0.959 . S
H489 C503 0.929 . S
H490 C504 0.931 . S
H491 C506 0.930 . S
C492 H480 0.930 . S
C492 C493 1.399 . S
C492 C497 1.399 . S
C493 C492 1.399 . S
C493 C494 1.376 . S
C494 H481 0.930 . S
C494 C493 1.376 . S
C494 C495 1.388 . S
C495 H482 0.930 . S
C495 C494 1.388 . S
C495 C496 1.390 . S
C496 C495 1.390 . S
C496 C497 1.394 . S
C496 C502 1.465 . S
C497 C492 1.399 . S
C497 C496 1.394 . S
C497 C498 1.516 1_565 S
C498 C497 1.516 1_545 S
C498 C499 1.502 . S
C498 C500 1.561 . S
C498 C501 1.526 . S
C499 H483 0.959 . S
C499 H484 0.959 . S
C499 H485 0.961 . S
C499 C498 1.502 . S
C500 H486 0.960 . S
C500 H487 0.961 . S
C500 H488 0.959 . S
C500 C498 1.561 . S
C501 C498 1.526 . S
C501 C502 1.396 1_545 S
C501 C506 1.390 . S
C502 C496 1.465 . S
C502 C501 1.396 1_565 S
C502 C503 1.399 . S
C503 H489 0.929 . S
C503 C502 1.399 . S
C503 C504 1.385 1_565 S
C504 H490 0.931 . S
C504 C503 1.385 1_545 S
C504 C505 1.389 . S
C505 C504 1.389 . S
C505 C506 1.387 . S
C506 H491 0.930 . S
C506 C501 1.390 . S
C506 C505 1.387 . S
H507 C519 0.930 . S
H508 C521 0.930 . S
H509 C522 0.930 1_545 S
H510 C526 0.959 . S
H511 C526 0.959 . S
H512 C526 0.961 . S
H513 C527 0.960 . S
H514 C527 0.961 . S
H515 C527 0.959 1_556 S
H516 C530 0.929 . S
H517 C531 0.931 . S
H518 C533 0.930 . S
C519 H507 0.930 . S
C519 C520 1.399 1_554 S
C519 C524 1.399 . S
C520 C519 1.399 1_556 S
C520 C521 1.376 . S
C521 H508 0.930 . S
C521 C520 1.376 . S
C521 C522 1.388 . S
C522 H509 0.930 1_565 S
C522 C521 1.388 . S
C522 C523 1.390 . S
C523 C522 1.390 . S
C523 C524 1.394 1_556 S
C523 C529 1.465 1_565 S
C524 C519 1.399 . S
C524 C523 1.394 1_554 S
C524 C525 1.516 . S
C525 C524 1.516 . S
C525 C526 1.502 . S
C525 C527 1.561 . S
C525 C528 1.526 1_565 S
C526 H510 0.959 . S
C526 H511 0.959 . S
C526 H512 0.961 . S
C526 C525 1.502 . S
C527 H513 0.960 . S
C527 H514 0.961 . S
C527 H515 0.959 1_554 S
C527 C525 1.561 . S
C528 C525 1.526 1_545 S
C528 C529 1.396 1_554 S
C528 C533 1.390 . S
C529 C523 1.465 1_545 S
C529 C528 1.396 1_556 S
C529 C530 1.399 . S
C530 H516 0.929 . S
C530 C529 1.399 . S
C530 C531 1.385 . S
C531 H517 0.931 . S
C531 C530 1.385 . S
C531 C532 1.392 . S
C532 C531 1.392 . S
C532 C533 1.382 1_556 S
C533 H518 0.930 . S
C533 C528 1.390 . S
C533 C532 1.382 1_554 S
H534 C546 0.930 . S
H535 C548 0.930 . S
H536 C549 0.930 1_455 S
H537 C553 0.959 . S
H538 C553 0.959 . S
H539 C553 0.961 . S
H540 C554 0.953 1_655 S
H541 C554 0.970 . S
H542 C554 0.964 . S
H543 C557 0.929 . S
H544 C558 0.931 . S
H545 C560 0.930 . S
C546 H534 0.930 . S
C546 C547 1.399 . S
C546 C551 1.399 . S
C547 C546 1.399 . S
C547 C548 1.376 . S
C548 H535 0.930 . S
C548 C547 1.376 . S
C548 C549 1.388 . S
C549 H536 0.930 1_655 S
C549 C548 1.388 . S
C549 C550 1.390 . S
C550 C549 1.390 . S
C550 C551 1.394 . S
C550 C556 1.465 1_655 S
C551 C546 1.399 . S
C551 C550 1.394 . S
C551 C552 1.516 . S
C552 C551 1.516 . S
C552 C553 1.502 . S
C552 C554 1.554 1_655 S
C552 C555 1.526 1_655 S
C553 H537 0.959 . S
C553 H538 0.959 . S
C553 H539 0.961 . S
C553 C552 1.502 . S
C554 H540 0.953 1_455 S
C554 H541 0.970 . S
C554 H542 0.964 . S
C554 C552 1.554 1_455 S
C555 C552 1.526 1_455 S
C555 C556 1.396 . S
C555 C560 1.390 . S
C556 C550 1.465 1_455 S
C556 C555 1.396 . S
C556 C557 1.399 . S
C557 H543 0.929 . S
C557 C556 1.399 . S
C557 C558 1.385 . S
C558 H544 0.931 . S
C558 C557 1.385 . S
C558 C559 1.389 . S
C559 C558 1.389 . S
C559 C560 1.387 . S
C560 H545 0.930 . S
C560 C555 1.390 . S
C560 C559 1.387 . S
H561 C573 0.930 . S
H562 C575 0.930 . S
H563 C576 0.930 1_655 S
H564 C580 0.959 . S
H565 C580 0.959 . S
H566 C580 0.961 . S
H567 C581 0.960 . S
H568 C581 0.961 1_655 S
H569 C581 0.959 1_655 S
H570 C584 0.929 . S
H571 C585 0.931 . S
H572 C587 0.930 . S
C573 H561 0.930 . S
C573 C574 1.399 1_554 S
C573 C578 1.399 . S
C574 C573 1.399 1_556 S
C574 C575 1.376 . S
C575 H562 0.930 . S
C575 C574 1.376 . S
C575 C576 1.388 . S
C576 H563 0.930 1_455 S
C576 C575 1.388 . S
C576 C577 1.390 . S
C577 C576 1.390 . S
C577 C578 1.394 1_556 S
C577 C583 1.465 1_455 S
C578 C573 1.399 . S
C578 C577 1.394 1_554 S
C578 C579 1.516 . S
C579 C578 1.516 . S
C579 C580 1.502 . S
C579 C581 1.561 . S
C579 C582 1.526 1_455 S
C580 H564 0.959 . S
C580 H565 0.959 . S
C580 H566 0.961 . S
C580 C579 1.502 . S
C581 H567 0.960 . S
C581 H568 0.961 1_455 S
C581 H569 0.959 1_455 S
C581 C579 1.561 . S
C582 C579 1.526 1_655 S
C582 C583 1.396 1_554 S
C582 C587 1.390 . S
C583 C577 1.465 1_655 S
C583 C582 1.396 1_556 S
C583 C584 1.399 . S
C584 H570 0.929 . S
C584 C583 1.399 . S
C584 C585 1.385 . S
C585 H571 0.931 . S
C585 C584 1.385 . S
C585 C586 1.389 . S
C586 C585 1.389 . S
C586 C587 1.387 1_556 S
C587 H572 0.930 . S
C587 C582 1.390 . S
C587 C586 1.387 1_554 S
H588 C600 0.930 . S
H589 C602 0.930 . S
H590 C603 0.930 . S
H591 C607 0.959 . S
H592 C607 0.959 1_655 S
H593 C607 0.961 . S
H594 C608 0.960 1_455 S
H595 C608 0.961 . S
H596 C608 0.959 . S
H597 C611 0.929 . S
H598 C612 0.931 . S
H599 C614 0.930 . S
C600 H588 0.930 . S
C600 C601 1.399 . S
C600 C605 1.399 . S
C601 C600 1.399 . S
C601 C602 1.376 . S
C602 H589 0.930 . S
C602 C601 1.376 . S
C602 C603 1.388 . S
C603 H590 0.930 . S
C603 C602 1.388 . S
C603 C604 1.390 . S
C604 C603 1.390 . S
C604 C605 1.394 . S
C604 C610 1.465 1_455 S
C605 C600 1.399 . S
C605 C604 1.394 . S
C605 C606 1.516 . S
C606 C605 1.516 . S
C606 C607 1.502 . S
C606 C608 1.561 1_455 S
C606 C609 1.526 1_455 S
C607 H591 0.959 . S
C607 H592 0.959 1_455 S
C607 H593 0.961 . S
C607 C606 1.502 . S
C608 H594 0.960 1_655 S
C608 H595 0.961 . S
C608 H596 0.959 . S
C608 C606 1.561 1_655 S
C609 C606 1.526 1_655 S
C609 C610 1.396 . S
C609 C614 1.390 . S
C610 C604 1.465 1_655 S
C610 C609 1.396 . S
C610 C611 1.399 . S
C611 H597 0.929 . S
C611 C610 1.399 . S
C611 C612 1.385 . S
C612 H598 0.931 . S
C612 C611 1.385 . S
C612 C613 1.389 . S
C613 C612 1.389 . S
C613 C614 1.387 . S
C614 H599 0.930 . S
C614 C609 1.390 . S
C614 C613 1.387 . S
H615 C627 0.930 . S
H616 C629 0.930 . S
H617 C630 0.930 . S
H618 C634 0.959 . S
H619 C634 0.959 . S
H620 C634 0.961 1_455 S
H621 C635 0.960 . S
H622 C635 0.961 1_655 S
H623 C635 0.959 . S
H624 C638 0.929 . S
H625 C639 0.931 . S
H626 C641 0.930 . S
C627 H615 0.930 . S
C627 C628 1.399 . S
C627 C632 1.399 . S
C628 C627 1.399 . S
C628 C629 1.376 . S
C629 H616 0.930 . S
C629 C628 1.376 . S
C629 C630 1.388 . S
C630 H617 0.930 . S
C630 C629 1.388 . S
C630 C631 1.390 . S
C631 C630 1.390 . S
C631 C632 1.394 . S
C631 C637 1.465 1_455 S
C632 C627 1.399 . S
C632 C631 1.394 . S
C632 C633 1.516 1_455 S
C633 C632 1.516 1_655 S
C633 C634 1.502 . S
C633 C635 1.561 1_655 S
C633 C636 1.526 . S
C634 H618 0.959 . S
C634 H619 0.959 . S
C634 H620 0.961 1_655 S
C634 C633 1.502 . S
C635 H621 0.960 . S
C635 H622 0.961 1_455 S
C635 H623 0.959 . S
C635 C633 1.561 1_455 S
C636 C633 1.526 . S
C636 C637 1.396 . S
C636 C641 1.390 . S
C637 C631 1.465 1_655 S
C637 C636 1.396 . S
C637 C638 1.399 . S
C638 H624 0.929 . S
C638 C637 1.399 . S
C638 C639 1.385 . S
C639 H625 0.931 . S
C639 C638 1.385 . S
C639 C640 1.389 . S
C640 C639 1.389 . S
C640 C641 1.387 . S
C641 H626 0.930 . S
C641 C636 1.390 . S
C641 C640 1.387 . S
H642 C654 0.930 . S
H643 C656 0.930 . S
H644 C657 0.930 . S
H645 C661 0.959 . S
H646 C661 0.959 . S
H647 C661 0.961 . S
H648 C662 0.960 . S
H649 C662 0.961 . S
H650 C662 0.959 . S
H651 C665 0.929 . S
H652 C666 0.931 . S
H653 C668 0.930 . S
C654 H642 0.930 . S
C654 C655 1.399 . S
C654 C659 1.399 . S
C655 C654 1.399 . S
C655 C656 1.376 . S
C656 H643 0.930 . S
C656 C655 1.376 . S
C656 C657 1.388 . S
C657 H644 0.930 . S
C657 C656 1.388 . S
C657 C658 1.390 . S
C658 C657 1.390 . S
C658 C659 1.394 . S
C658 C664 1.465 . S
C659 C654 1.399 . S
C659 C658 1.394 . S
C659 C660 1.516 . S
C660 C659 1.516 . S
C660 C661 1.502 . S
C660 C662 1.561 . S
C660 C663 1.526 . S
C661 H645 0.959 . S
C661 H646 0.959 . S
C661 H647 0.961 . S
C661 C660 1.502 . S
C662 H648 0.960 . S
C662 H649 0.961 . S
C662 H650 0.959 . S
C662 C660 1.561 . S
C663 C660 1.526 . S
C663 C664 1.396 . S
C663 C668 1.390 . S
C664 C658 1.465 . S
C664 C663 1.396 . S
C664 C665 1.399 . S
C665 H651 0.929 . S
C665 C664 1.399 . S
C665 C666 1.385 . S
C666 H652 0.931 . S
C666 C665 1.385 . S
C666 C667 1.389 . S
C667 C666 1.389 . S
C667 C668 1.387 . S
C668 H653 0.930 . S
C668 C663 1.390 . S
C668 C667 1.387 . S
H669 C681 0.930 . S
H670 C683 0.930 . S
H671 C684 0.930 . S
H672 C688 0.959 . S
H673 C688 0.959 . S
H674 C688 0.961 . S
H675 C689 0.960 . S
H676 C689 0.961 . S
H677 C689 0.959 . S
H678 C692 0.929 . S
H679 C693 0.931 . S
H680 C695 0.930 . S
C681 H669 0.930 . S
C681 C682 1.399 . S
C681 C686 1.399 . S
C682 C681 1.399 . S
C682 C683 1.376 . S
C683 H670 0.930 . S
C683 C682 1.376 . S
C683 C684 1.388 . S
C684 H671 0.930 . S
C684 C683 1.388 . S
C684 C685 1.390 . S
C685 C684 1.390 . S
C685 C686 1.394 . S
C685 C691 1.465 . S
C686 C681 1.399 . S
C686 C685 1.394 . S
C686 C687 1.516 . S
C687 C686 1.516 . S
C687 C688 1.502 . S
C687 C689 1.561 . S
C687 C690 1.526 . S
C688 H672 0.959 . S
C688 H673 0.959 . S
C688 H674 0.961 . S
C688 C687 1.502 . S
C689 H675 0.960 . S
C689 H676 0.961 . S
C689 H677 0.959 . S
C689 C687 1.561 . S
C690 C687 1.526 . S
C690 C691 1.396 . S
C690 C695 1.390 . S
C691 C685 1.465 . S
C691 C690 1.396 . S
C691 C692 1.399 . S
C692 H678 0.929 . S
C692 C691 1.399 . S
C692 C693 1.385 . S
C693 H679 0.931 . S
C693 C692 1.385 . S
C693 C694 1.389 . S
C694 C693 1.389 . S
C694 C695 1.387 . S
C695 H680 0.930 . S
C695 C690 1.390 . S
C695 C694 1.387 . S
H696 C708 0.930 . S
H697 C710 0.930 . S
H698 C711 0.930 . S
H699 C715 0.959 . S
H700 C715 0.959 . S
H701 C715 0.961 . S
H702 C716 0.960 . S
H703 C716 0.961 . S
H704 C716 0.959 . S
H705 C719 0.929 . S
H706 C720 0.931 . S
H707 C722 0.930 . S
C708 H696 0.930 . S
C708 C709 1.399 . S
C708 C713 1.399 . S
C709 C708 1.399 . S
C709 C710 1.376 . S
C710 H697 0.930 . S
C710 C709 1.376 . S
C710 C711 1.388 . S
C711 H698 0.930 . S
C711 C710 1.388 . S
C711 C712 1.390 . S
C712 C711 1.390 . S
C712 C713 1.394 . S
C712 C718 1.465 . S
C713 C708 1.399 . S
C713 C712 1.394 . S
C713 C714 1.516 . S
C714 C713 1.516 . S
C714 C715 1.502 . S
C714 C716 1.561 . S
C714 C717 1.526 . S
C715 H699 0.959 . S
C715 H700 0.959 . S
C715 H701 0.961 . S
C715 C714 1.502 . S
C716 H702 0.960 . S
C716 H703 0.961 . S
C716 H704 0.959 . S
C716 C714 1.561 . S
C717 C714 1.526 . S
C717 C718 1.396 . S
C717 C722 1.390 . S
C718 C712 1.465 . S
C718 C717 1.396 . S
C718 C719 1.399 . S
C719 H705 0.929 . S
C719 C718 1.399 . S
C719 C720 1.385 . S
C720 H706 0.931 . S
C720 C719 1.385 . S
C720 C721 1.389 . S
C721 C720 1.389 . S
C721 C722 1.387 . S
C722 H707 0.930 . S
C722 C717 1.390 . S
C722 C721 1.387 . S
H723 C735 0.930 . S
H724 C737 0.930 . S
H725 C738 0.930 . S
H726 C742 0.959 . S
H727 C742 0.959 . S
H728 C742 0.961 . S
H729 C743 0.960 . S
H730 C743 0.961 . S
H731 C743 0.959 . S
H732 C746 0.929 . S
H733 C747 0.931 . S
H734 C749 0.930 1_556 S
C735 H723 0.930 . S
C735 C736 1.399 . S
C735 C740 1.399 . S
C736 C735 1.399 . S
C736 C737 1.376 1_556 S
C737 H724 0.930 . S
C737 C736 1.376 1_554 S
C737 C738 1.388 . S
C738 H725 0.930 . S
C738 C737 1.388 . S
C738 C739 1.390 . S
C739 C738 1.390 . S
C739 C740 1.394 1_554 S
C739 C745 1.465 . S
C740 C735 1.399 . S
C740 C739 1.394 1_556 S
C740 C741 1.516 . S
C741 C740 1.516 . S
C741 C742 1.502 . S
C741 C743 1.561 . S
C741 C744 1.526 . S
C742 H726 0.959 . S
C742 H727 0.959 . S
C742 H728 0.961 . S
C742 C741 1.502 . S
C743 H729 0.960 . S
C743 H730 0.961 . S
C743 H731 0.959 . S
C743 C741 1.561 . S
C744 C741 1.526 . S
C744 C745 1.396 1_556 S
C744 C749 1.390 1_556 S
C745 C739 1.465 . S
C745 C744 1.396 1_554 S
C745 C746 1.399 . S
C746 H732 0.929 . S
C746 C745 1.399 . S
C746 C747 1.385 . S
C747 H733 0.931 . S
C747 C746 1.385 . S
C747 C748 1.389 . S
C748 C747 1.389 . S
C748 C749 1.387 . S
C749 H734 0.930 1_554 S
C749 C744 1.390 1_554 S
C749 C748 1.387 . S
H750 C762 0.930 . S
H751 C764 0.930 . S
H752 C765 0.930 . S
H753 C769 0.959 . S
H754 C769 0.959 . S
H755 C769 0.961 . S
H756 C770 0.960 . S
H757 C770 0.961 . S
H758 C770 0.959 . S
H759 C773 0.929 . S
H760 C774 0.931 . S
H761 C776 0.930 . S
C762 H750 0.930 . S
C762 C763 1.399 . S
C762 C767 1.399 . S
C763 C762 1.399 . S
C763 C764 1.376 . S
C764 H751 0.930 . S
C764 C763 1.376 . S
C764 C765 1.388 . S
C765 H752 0.930 . S
C765 C764 1.388 . S
C765 C766 1.390 . S
C766 C765 1.390 . S
C766 C767 1.394 . S
C766 C772 1.465 . S
C767 C762 1.399 . S
C767 C766 1.394 . S
C767 C768 1.516 . S
C768 C767 1.516 . S
C768 C769 1.502 . S
C768 C770 1.561 . S
C768 C771 1.526 . S
C769 H753 0.959 . S
C769 H754 0.959 . S
C769 H755 0.961 . S
C769 C768 1.502 . S
C770 H756 0.960 . S
C770 H757 0.961 . S
C770 H758 0.959 . S
C770 C768 1.561 . S
C771 C768 1.526 . S
C771 C772 1.396 . S
C771 C776 1.390 . S
C772 C766 1.465 . S
C772 C771 1.396 . S
C772 C773 1.399 . S
C773 H759 0.929 . S
C773 C772 1.399 . S
C773 C774 1.385 . S
C774 H760 0.931 . S
C774 C773 1.385 . S
C774 C775 1.389 . S
C775 C774 1.389 . S
C775 C776 1.387 . S
C776 H761 0.930 . S
C776 C771 1.390 . S
C776 C775 1.387 . S
H777 C789 0.930 . S
H778 C791 0.930 . S
H779 C792 0.930 . S
H780 C796 0.959 . S
H781 C796 0.959 . S
H782 C796 0.961 . S
H783 C797 0.960 . S
H784 C797 0.961 . S
H785 C797 0.959 . S
H786 C800 0.929 . S
H787 C801 0.931 . S
H788 C803 0.916 1_556 S
C789 H777 0.930 . S
C789 C790 1.399 . S
C789 C794 1.399 . S
C790 C789 1.399 . S
C790 C791 1.376 1_556 S
C791 H778 0.930 . S
C791 C790 1.376 1_554 S
C791 C792 1.388 . S
C792 H779 0.930 . S
C792 C791 1.388 . S
C792 C793 1.390 . S
C793 C792 1.390 . S
C793 C794 1.394 1_554 S
C793 C799 1.465 . S
C794 C789 1.399 . S
C794 C793 1.394 1_556 S
C794 C795 1.516 . S
C795 C794 1.516 . S
C795 C796 1.502 . S
C795 C797 1.561 . S
C795 C798 1.526 . S
C796 H780 0.959 . S
C796 H781 0.959 . S
C796 H782 0.961 . S
C796 C795 1.502 . S
C797 H783 0.960 . S
C797 H784 0.961 . S
C797 H785 0.959 . S
C797 C795 1.561 . S
C798 C795 1.526 . S
C798 C799 1.396 1_556 S
C798 C803 1.384 1_556 S
C799 C793 1.465 . S
C799 C798 1.396 1_554 S
C799 C800 1.399 . S
C800 H786 0.929 . S
C800 C799 1.399 . S
C800 C801 1.385 . S
C801 H787 0.931 . S
C801 C800 1.385 . S
C801 C802 1.389 . S
C802 C801 1.389 . S
C802 C803 1.406 . S
C803 H788 0.916 1_554 S
C803 C798 1.384 1_554 S
C803 C802 1.406 . S
C277 C116 0.933 . S
C289 C28 0.968 . S
C304 C61 0.965 . S
C316 C83 0.922 . S
C331 C94 0.960 . S
C343 C50 0.931 . S
C358 C127 0.927 . S
C370 C17 0.975 . S
C385 C160 0.966 . S
C397 C248 0.922 . S
C412 C193 0.938 . S
C424 C215 0.969 . S
C439 C182 0.922 . S
C451 C226 0.972 . S
C466 C259 0.939 . S
C478 C149 0.964 . S
C493 N71 2.041 . S
C505 N5 2.032 . S
C520 N104 2.022 . S
C532 N38 2.047 1_556 S
C547 N137 2.047 . S
C559 N203 2.023 . S
C574 N170 2.047 1_556 S
C586 N236 2.023 . S
C601 N14 1.792 . S
C613 N47 1.779 . S
C628 N113 1.767 . S
C640 N80 1.793 . S
C655 N179 1.781 . S
C667 N146 1.761 . S
C682 N245 1.758 . S
C694 N212 1.792 . S
C709 C206 1.512 . S
C721 C8 1.511 . S
C736 C239 1.493 . S
C748 C41 1.542 . S
C763 C140 1.539 . S
C775 C74 1.500 . S
C790 C107 1.500 . S
C802 C173 1.538 . S
