# Generated by pormake.
# Topology reo-e, (6)-cn, num edge types: 1
# Building blocks:
#     Node 0, Type 0, BuildingBlock: IZENUY_clean_sbu_0, # of connection points: 6
#     Node 1, Type 0, BuildingBlock: IZENUY_clean_sbu_0, # of connection points: 6
#     Node 2, Type 0, BuildingBlock: IZENUY_clean_sbu_0, # of connection points: 6
#     Node 3, Type 0, BuildingBlock: IZENUY_clean_sbu_0, # of connection points: 6
#     Node 4, Type 0, BuildingBlock: IZENUY_clean_sbu_0, # of connection points: 6
#     Node 5, Type 0, BuildingBlock: IZENUY_clean_sbu_0, # of connection points: 6
#     Node 6, Type 0, BuildingBlock: IZENUY_clean_sbu_0, # of connection points: 6
#     Node 7, Type 0, BuildingBlock: IZENUY_clean_sbu_0, # of connection points: 6
#     Node 8, Type 0, BuildingBlock: IZENUY_clean_sbu_0, # of connection points: 6
#     Node 9, Type 0, BuildingBlock: IZENUY_clean_sbu_0, # of connection points: 6
#     Node 10, Type 0, BuildingBlock: IZENUY_clean_sbu_0, # of connection points: 6
#     Node 11, Type 0, BuildingBlock: IZENUY_clean_sbu_0, # of connection points: 6
#     Edge 12, Type (0, 0), None
#     Edge 13, Type (0, 0), None
#     Edge 14, Type (0, 0), None
#     Edge 15, Type (0, 0), None
#     Edge 16, Type (0, 0), None
#     Edge 17, Type (0, 0), None
#     Edge 18, Type (0, 0), None
#     Edge 19, Type (0, 0), None
#     Edge 20, Type (0, 0), None
#     Edge 21, Type (0, 0), None
#     Edge 22, Type (0, 0), None
#     Edge 23, Type (0, 0), None
#     Edge 24, Type (0, 0), None
#     Edge 25, Type (0, 0), None
#     Edge 26, Type (0, 0), None
#     Edge 27, Type (0, 0), None
#     Edge 28, Type (0, 0), None
#     Edge 29, Type (0, 0), None
#     Edge 30, Type (0, 0), None
#     Edge 31, Type (0, 0), None
#     Edge 32, Type (0, 0), None
#     Edge 33, Type (0, 0), None
#     Edge 34, Type (0, 0), None
#     Edge 35, Type (0, 0), None
#     Edge 36, Type (0, 0), None
#     Edge 37, Type (0, 0), None
#     Edge 38, Type (0, 0), None
#     Edge 39, Type (0, 0), None
#     Edge 40, Type (0, 0), None
#     Edge 41, Type (0, 0), None
#     Edge 42, Type (0, 0), None
#     Edge 43, Type (0, 0), None
#     Edge 44, Type (0, 0), None
#     Edge 45, Type (0, 0), None
#     Edge 46, Type (0, 0), None
#     Edge 47, Type (0, 0), None
# Relax obj value: 0.074
# Max RMSD: 0.097
# Mean RMSD: 0.095
data_MOF--net-reo-e--node1-IZENUY_clean_sbu_0--edge1-none
_symmetry_space_group_name_H-M    P1
_symmetry_Int_Tables_number       1
_symmetry_cell_setting            triclinic
loop_
_symmetry_equiv_pos_as_xyz
'x, y, z'
_cell_length_a     17.884134
_cell_length_b     17.88845
_cell_length_c     17.840319
_cell_angle_alpha  90.00873
_cell_angle_beta   89.993467
_cell_angle_gamma 90.045698
loop_
_atom_site_label
_atom_site_type_symbol
_atom_site_fract_x
_atom_site_fract_y
_atom_site_fract_z
_atom_type_partial_charge
Fe0 Fe 0.19527 0.19787 0.62013 0.0
Fe1 Fe 0.30068 0.30022 0.53213 0.0
O2 O 0.23123 0.23083 0.53213 0.0
Fe3 Fe 0.19825 0.19489 0.44413 0.0
O4 O 0.10302 0.22152 0.46653 0.0
O5 O 0.10031 0.18452 0.58453 0.0
O6 O 0.16648 0.29158 0.65335 0.0
C7 C 0.21156 0.3461 0.65562 0.0
C8 C 0.20796 0.06731 0.53827 0.0
O9 O 0.26992 0.34539 0.61645 0.0
C10 C 0.34652 0.21106 0.40868 0.0
O11 O 0.28417 0.20527 0.6709 0.0
O12 O 0.36448 0.2408 0.58467 0.0
O13 O 0.18485 0.09994 0.47973 0.0
O14 O 0.22186 0.10264 0.59773 0.0
C15 C 0.21349 0.35035 0.41576 0.0
O16 O 0.34583 0.26942 0.44783 0.0
O17 O 0.29195 0.16604 0.41091 0.0
C18 C 0.35077 0.21302 0.6485 0.0
O19 O 0.2413 0.36405 0.47959 0.0
O20 O 0.20569 0.28377 0.39337 0.0
C21 C 0.06769 0.20765 0.52599 0.0
Fe22 Fe 0.75101 0.31046 0.53211 0.0
Fe23 Fe 0.85691 0.20633 0.61891 0.0
O24 O 0.82125 0.24027 0.5321 0.0
Fe25 Fe 0.85524 0.20462 0.44529 0.0
O26 O 0.84649 0.29316 0.39575 0.0
O27 O 0.81028 0.37465 0.48054 0.0
O28 O 0.78241 0.35635 0.61711 0.0
C29 C 0.84359 0.3562 0.65189 0.0
C30 C 0.70537 0.21787 0.41229 0.0
O31 O 0.88615 0.29974 0.64978 0.0
C32 C 0.84964 0.07576 0.53797 0.0
O33 O 0.68683 0.25116 0.58369 0.0
O34 O 0.76836 0.21504 0.66846 0.0
O35 O 0.76185 0.17533 0.41441 0.0
O36 O 0.70515 0.27902 0.44712 0.0
C37 C 0.9858 0.21199 0.52624 0.0
O38 O 0.83072 0.11062 0.59652 0.0
O39 O 0.87038 0.10972 0.47953 0.0
C40 C 0.70162 0.22258 0.64653 0.0
O41 O 0.95183 0.19123 0.58467 0.0
O42 O 0.95095 0.23086 0.46769 0.0
C43 C 0.83888 0.35988 0.41768 0.0
Fe44 Fe 0.86665 0.86336 0.62014 0.0
Fe45 Fe 0.86373 0.86624 0.44414 0.0
O46 O 0.83072 0.83036 0.53215 0.0
Fe47 Fe 0.76126 0.76097 0.53217 0.0
O48 O 0.69745 0.82042 0.58469 0.0
O49 O 0.77775 0.85597 0.67091 0.0
O50 O 0.84006 0.95857 0.59771 0.0
C51 C 0.85397 0.99387 0.53824 0.0
C52 C 0.85039 0.71512 0.65562 0.0
O53 O 0.87713 0.96121 0.47972 0.0
C54 C 0.84847 0.71076 0.41581 0.0
O55 O 0.96162 0.8767 0.58454 0.0
O56 O 0.95895 0.83961 0.46657 0.0
O57 O 0.79201 0.71584 0.61649 0.0
O58 O 0.89545 0.76967 0.65338 0.0
C59 C 0.71548 0.85004 0.40865 0.0
O60 O 0.8563 0.77733 0.3934 0.0
O61 O 0.82065 0.69711 0.47964 0.0
C62 C 0.99427 0.85352 0.52603 0.0
O63 O 0.77005 0.89507 0.4109 0.0
O64 O 0.71613 0.79172 0.44785 0.0
C65 C 0.71116 0.84822 0.64851 0.0
Fe66 Fe 0.20673 0.85653 0.44536 0.0
Fe67 Fe 0.31095 0.75073 0.53218 0.0
O68 O 0.2407 0.82091 0.53217 0.0
Fe69 Fe 0.20502 0.85488 0.61898 0.0
O70 O 0.11011 0.86995 0.58473 0.0
O71 O 0.11102 0.83028 0.46774 0.0
O72 O 0.2155 0.76798 0.39582 0.0
C73 C 0.22309 0.70127 0.41776 0.0
C74 C 0.2123 0.98542 0.53802 0.0
O75 O 0.25169 0.68652 0.4806 0.0
C76 C 0.3603 0.83864 0.6466 0.0
O77 O 0.30013 0.88582 0.41449 0.0
O78 O 0.35683 0.78215 0.44718 0.0
O79 O 0.2312 0.95059 0.59658 0.0
O80 O 0.19157 0.95144 0.47959 0.0
C81 C 0.21835 0.70503 0.65197 0.0
O82 O 0.37511 0.81005 0.58375 0.0
O83 O 0.29356 0.84619 0.66853 0.0
C84 C 0.35661 0.8433 0.41237 0.0
O85 O 0.27954 0.70487 0.61718 0.0
O86 O 0.17578 0.76148 0.64986 0.0
C87 C 0.07615 0.84918 0.5263 0.0
Fe88 Fe 0.61698 0.20014 0.19802 0.0
Fe89 Fe 0.53211 0.2995 0.30905 0.0
O90 O 0.53011 0.23338 0.23583 0.0
Fe91 Fe 0.44159 0.20042 0.20176 0.0
O92 O 0.47361 0.10541 0.18577 0.0
O93 O 0.59233 0.10453 0.22073 0.0
O94 O 0.6689 0.20399 0.28703 0.0
C95 C 0.64754 0.20976 0.35436 0.0
C96 C 0.52234 0.21155 0.0703 0.0
O97 O 0.58354 0.23572 0.36934 0.0
C98 C 0.41724 0.35601 0.22497 0.0
O99 O 0.65105 0.29444 0.17218 0.0
O100 O 0.61694 0.34431 0.27891 0.0
O101 O 0.46411 0.22831 0.10638 0.0
O102 O 0.58116 0.18976 0.10285 0.0
C103 C 0.4063 0.21118 0.35106 0.0
O104 O 0.48045 0.36827 0.25423 0.0
O105 O 0.39481 0.29015 0.21238 0.0
C106 C 0.65453 0.34722 0.21937 0.0
O107 O 0.44761 0.26806 0.35373 0.0
O108 O 0.40746 0.16908 0.2943 0.0
C109 C 0.53176 0.0712 0.20618 0.0
Fe110 Fe 0.85921 0.44646 0.20442 0.0
Fe111 Fe 0.75322 0.53174 0.31084 0.0
O112 O 0.82378 0.53286 0.24073 0.0
Fe113 Fe 0.85887 0.62045 0.20834 0.0
O114 O 0.83408 0.59885 0.11171 0.0
O115 O 0.87241 0.48162 0.10948 0.0
O116 O 0.76638 0.41146 0.17519 0.0
C117 C 0.71148 0.40753 0.21973 0.0
C118 C 0.98964 0.53036 0.21552 0.0
O119 O 0.71006 0.44682 0.27829 0.0
C120 C 0.84282 0.65211 0.35867 0.0
O121 O 0.85181 0.3969 0.29349 0.0
O122 O 0.81285 0.48076 0.37491 0.0
O123 O 0.95537 0.58862 0.19504 0.0
O124 O 0.95499 0.4705 0.23009 0.0
C125 C 0.70225 0.6467 0.2253 0.0
O126 O 0.78239 0.61637 0.35804 0.0
O127 O 0.88615 0.6508 0.30264 0.0
C128 C 0.84114 0.41794 0.36034 0.0
O129 O 0.68784 0.58317 0.25233 0.0
O130 O 0.76909 0.66825 0.21635 0.0
C131 C 0.85033 0.53994 0.07628 0.0
Fe132 Fe 0.62038 0.86071 0.20176 0.0
Fe133 Fe 0.44499 0.861 0.19809 0.0
O134 O 0.53186 0.82776 0.23586 0.0
Fe135 Fe 0.52986 0.76165 0.30907 0.0
O136 O 0.61437 0.79308 0.35373 0.0
O137 O 0.65453 0.89203 0.2943 0.0
O138 O 0.58837 0.95572 0.18581 0.0
C139 C 0.53022 0.98994 0.20621 0.0
C140 C 0.6447 0.70511 0.22493 0.0
O141 O 0.46965 0.95661 0.22079 0.0
C142 C 0.40743 0.71393 0.21942 0.0
O143 O 0.59784 0.83283 0.10637 0.0
O144 O 0.48079 0.87138 0.1029 0.0
O145 O 0.58151 0.69286 0.25423 0.0
O146 O 0.66715 0.77097 0.21234 0.0
C147 C 0.41444 0.8514 0.35443 0.0
O148 O 0.41091 0.7667 0.17225 0.0
O149 O 0.44502 0.71684 0.27895 0.0
C150 C 0.53961 0.84961 0.07032 0.0
O151 O 0.39308 0.85717 0.28711 0.0
O152 O 0.47844 0.82543 0.36939 0.0
C153 C 0.6557 0.84994 0.35106 0.0
Fe154 Fe 0.20274 0.61468 0.20449 0.0
Fe155 Fe 0.30874 0.52939 0.31085 0.0
O156 O 0.23819 0.52828 0.24075 0.0
Fe157 Fe 0.20311 0.44069 0.20832 0.0
O158 O 0.2279 0.46233 0.11169 0.0
O159 O 0.18955 0.57955 0.10953 0.0
O160 O 0.29558 0.64969 0.17525 0.0
C161 C 0.35047 0.65362 0.21978 0.0
C162 C 0.07232 0.53078 0.21554 0.0
O163 O 0.35191 0.61432 0.27832 0.0
C164 C 0.21915 0.40901 0.35864 0.0
O165 O 0.21015 0.66423 0.29357 0.0
O166 O 0.24911 0.58038 0.37496 0.0
O167 O 0.1066 0.47252 0.19504 0.0
O168 O 0.10696 0.59063 0.23015 0.0
C169 C 0.35971 0.41445 0.22526 0.0
O170 O 0.27956 0.44476 0.35803 0.0
O171 O 0.17582 0.41031 0.30261 0.0
C172 C 0.22082 0.64319 0.36042 0.0
O173 O 0.37413 0.47797 0.25233 0.0
O174 O 0.29288 0.3929 0.21629 0.0
C175 C 0.21163 0.52124 0.07629 0.0
Fe176 Fe 0.62086 0.85853 0.85597 0.0
Fe177 Fe 0.44684 0.85888 0.85987 0.0
O178 O 0.53325 0.82347 0.82356 0.0
Fe179 Fe 0.53214 0.75296 0.75343 0.0
O180 O 0.58352 0.68757 0.81193 0.0
O181 O 0.66866 0.76877 0.84793 0.0
O182 O 0.59925 0.83372 0.95259 0.0
C183 C 0.54033 0.84994 0.98801 0.0
C184 C 0.6525 0.84255 0.70564 0.0
O185 O 0.482 0.87205 0.95481 0.0
C186 C 0.41837 0.8409 0.70394 0.0
O187 O 0.58902 0.95501 0.86931 0.0
O188 O 0.47088 0.95464 0.83424 0.0
O189 O 0.61681 0.78212 0.70628 0.0
O190 O 0.65121 0.88586 0.76168 0.0
C191 C 0.40792 0.71118 0.84451 0.0
O192 O 0.39729 0.85149 0.7708 0.0
O193 O 0.4812 0.81264 0.68937 0.0
C194 C 0.53075 0.98929 0.84883 0.0
O195 O 0.41186 0.76604 0.88908 0.0
O196 O 0.44716 0.70982 0.78592 0.0
C197 C 0.64708 0.70195 0.83897 0.0
Fe198 Fe 0.20057 0.61659 0.86622 0.0
Fe199 Fe 0.29999 0.53172 0.75522 0.0
O200 O 0.23382 0.52974 0.82842 0.0
Fe201 Fe 0.20084 0.44124 0.86249 0.0
O202 O 0.10581 0.47326 0.87845 0.0
O203 O 0.10495 0.59194 0.84349 0.0
O204 O 0.20443 0.66851 0.77722 0.0
C205 C 0.21027 0.64718 0.70989 0.0
C206 C 0.21194 0.52197 0.99396 0.0
O207 O 0.23626 0.5832 0.6949 0.0
C208 C 0.35646 0.41683 0.83931 0.0
O209 O 0.29488 0.65068 0.89208 0.0
O210 O 0.34484 0.6165 0.78541 0.0
O211 O 0.22871 0.46375 0.95789 0.0
O212 O 0.19017 0.58078 0.96141 0.0
C213 C 0.21164 0.40592 0.71318 0.0
O214 O 0.36874 0.48002 0.81005 0.0
O215 O 0.29057 0.39444 0.8519 0.0
C216 C 0.34767 0.65415 0.84491 0.0
O217 O 0.26851 0.44726 0.7105 0.0
O218 O 0.16952 0.4071 0.76995 0.0
C219 C 0.0716 0.53138 0.85804 0.0
Fe220 Fe 0.52979 0.30826 0.75341 0.0
Fe221 Fe 0.44106 0.20271 0.85597 0.0
O222 O 0.52867 0.23776 0.82354 0.0
Fe223 Fe 0.61509 0.20235 0.85981 0.0
O224 O 0.65008 0.29519 0.88902 0.0
O225 O 0.61477 0.3514 0.78589 0.0
O226 O 0.47841 0.37367 0.81193 0.0
C227 C 0.41487 0.35929 0.83901 0.0
C228 C 0.64355 0.22031 0.70387 0.0
O229 O 0.39328 0.29248 0.84797 0.0
C230 C 0.53117 0.07194 0.8488 0.0
O231 O 0.44511 0.27912 0.70628 0.0
O232 O 0.41069 0.17539 0.76168 0.0
O233 O 0.66463 0.20972 0.77072 0.0
O234 O 0.58072 0.24858 0.68933 0.0
C235 C 0.52162 0.21127 0.98798 0.0
O236 O 0.47289 0.10623 0.86928 0.0
O237 O 0.59103 0.10658 0.83418 0.0
C238 C 0.4094 0.21869 0.70565 0.0
O239 O 0.46269 0.22751 0.95259 0.0
O240 O 0.57994 0.18919 0.95476 0.0
C241 C 0.65402 0.35005 0.84446 0.0
Fe242 Fe 0.86137 0.44464 0.86616 0.0
Fe243 Fe 0.76194 0.52951 0.7552 0.0
O244 O 0.8281 0.53149 0.8284 0.0
Fe245 Fe 0.86108 0.61999 0.86251 0.0
O246 O 0.95611 0.58798 0.87844 0.0
O247 O 0.95699 0.4693 0.84343 0.0
O248 O 0.85751 0.39273 0.77714 0.0
C249 C 0.85166 0.41405 0.70982 0.0
C250 C 0.84999 0.53923 0.99395 0.0
O251 O 0.82567 0.47803 0.69486 0.0
C252 C 0.70547 0.64438 0.83935 0.0
O253 O 0.76706 0.41054 0.89202 0.0
O254 O 0.71709 0.44473 0.78537 0.0
O255 O 0.83321 0.59746 0.9579 0.0
O256 O 0.87177 0.48043 0.96136 0.0
C257 C 0.85028 0.65533 0.71321 0.0
O258 O 0.69318 0.58121 0.81005 0.0
O259 O 0.77135 0.66679 0.85195 0.0
C260 C 0.71426 0.40708 0.84486 0.0
O261 O 0.79343 0.61398 0.71051 0.0
O262 O 0.89239 0.65415 0.76997 0.0
C263 C 0.99033 0.52986 0.858 0.0
loop_
_geom_bond_atom_site_label_1
_geom_bond_atom_site_label_2
_geom_bond_distance
_geom_bond_site_symmetry_2
_ccdc_geom_bond_type
Fe0 O2 1.918 . S
Fe0 O5 1.997 . S
Fe0 O6 2.002 . S
Fe0 O11 1.976 . S
Fe0 O14 1.996 . S
Fe1 O2 1.918 . S
Fe1 O9 1.997 . S
Fe1 O12 1.996 . S
Fe1 O16 1.976 . S
Fe1 O19 2.002 . S
O2 Fe0 1.918 . S
O2 Fe1 1.918 . S
O2 Fe3 1.918 . S
Fe3 O2 1.918 . S
Fe3 O4 2.002 . S
Fe3 O13 1.976 . S
Fe3 O17 1.996 . S
Fe3 O20 1.997 . S
O4 Fe3 2.002 . S
O4 C21 1.295 . S
O5 Fe0 1.997 . S
O5 C21 1.235 . S
O6 Fe0 2.002 . S
O6 C7 1.295 . S
C7 O6 1.295 . S
C7 O9 1.235 . S
C8 O13 1.287 . S
C8 O14 1.255 . S
O9 Fe1 1.997 . S
O9 C7 1.235 . S
C10 O16 1.287 . S
C10 O17 1.255 . S
O11 Fe0 1.976 . S
O11 C18 1.287 . S
O12 Fe1 1.996 . S
O12 C18 1.255 . S
O13 Fe3 1.976 . S
O13 C8 1.287 . S
O14 Fe0 1.996 . S
O14 C8 1.255 . S
C15 O19 1.295 . S
C15 O20 1.235 . S
O16 Fe1 1.976 . S
O16 C10 1.287 . S
O17 Fe3 1.996 . S
O17 C10 1.255 . S
C18 O11 1.287 . S
C18 O12 1.255 . S
O19 Fe1 2.002 . S
O19 C15 1.295 . S
O20 Fe3 1.997 . S
O20 C15 1.235 . S
C21 O4 1.295 . S
C21 O5 1.235 . S
Fe22 O24 1.918 . S
Fe22 O27 1.997 . S
Fe22 O28 2.002 . S
Fe22 O33 1.976 . S
Fe22 O36 1.996 . S
Fe23 O24 1.918 . S
Fe23 O31 1.997 . S
Fe23 O34 1.996 . S
Fe23 O38 1.976 . S
Fe23 O41 2.002 . S
O24 Fe22 1.918 . S
O24 Fe23 1.918 . S
O24 Fe25 1.918 . S
Fe25 O24 1.918 . S
Fe25 O26 2.002 . S
Fe25 O35 1.976 . S
Fe25 O39 1.996 . S
Fe25 O42 1.997 . S
O26 Fe25 2.002 . S
O26 C43 1.295 . S
O27 Fe22 1.997 . S
O27 C43 1.235 . S
O28 Fe22 2.002 . S
O28 C29 1.295 . S
C29 O28 1.295 . S
C29 O31 1.235 . S
C30 O35 1.287 . S
C30 O36 1.255 . S
O31 Fe23 1.997 . S
O31 C29 1.235 . S
C32 O38 1.287 . S
C32 O39 1.255 . S
O33 Fe22 1.976 . S
O33 C40 1.287 . S
O34 Fe23 1.996 . S
O34 C40 1.255 . S
O35 Fe25 1.976 . S
O35 C30 1.287 . S
O36 Fe22 1.996 . S
O36 C30 1.255 . S
C37 O41 1.295 . S
C37 O42 1.235 . S
O38 Fe23 1.976 . S
O38 C32 1.287 . S
O39 Fe25 1.996 . S
O39 C32 1.255 . S
C40 O33 1.287 . S
C40 O34 1.255 . S
O41 Fe23 2.002 . S
O41 C37 1.295 . S
O42 Fe25 1.997 . S
O42 C37 1.235 . S
C43 O26 1.295 . S
C43 O27 1.235 . S
Fe44 O46 1.918 . S
Fe44 O49 1.997 . S
Fe44 O50 2.002 . S
Fe44 O55 1.976 . S
Fe44 O58 1.996 . S
Fe45 O46 1.918 . S
Fe45 O53 1.997 . S
Fe45 O56 1.996 . S
Fe45 O60 1.976 . S
Fe45 O63 2.002 . S
O46 Fe44 1.918 . S
O46 Fe45 1.918 . S
O46 Fe47 1.918 . S
Fe47 O46 1.918 . S
Fe47 O48 2.002 . S
Fe47 O57 1.976 . S
Fe47 O61 1.996 . S
Fe47 O64 1.997 . S
O48 Fe47 2.002 . S
O48 C65 1.295 . S
O49 Fe44 1.997 . S
O49 C65 1.235 . S
O50 Fe44 2.002 . S
O50 C51 1.295 . S
C51 O50 1.295 . S
C51 O53 1.235 . S
C52 O57 1.287 . S
C52 O58 1.255 . S
O53 Fe45 1.997 . S
O53 C51 1.235 . S
C54 O60 1.287 . S
C54 O61 1.255 . S
O55 Fe44 1.976 . S
O55 C62 1.287 . S
O56 Fe45 1.996 . S
O56 C62 1.255 . S
O57 Fe47 1.976 . S
O57 C52 1.287 . S
O58 Fe44 1.996 . S
O58 C52 1.255 . S
C59 O63 1.295 . S
C59 O64 1.235 . S
O60 Fe45 1.976 . S
O60 C54 1.287 . S
O61 Fe47 1.996 . S
O61 C54 1.255 . S
C62 O55 1.287 . S
C62 O56 1.255 . S
O63 Fe45 2.002 . S
O63 C59 1.295 . S
O64 Fe47 1.997 . S
O64 C59 1.235 . S
C65 O48 1.295 . S
C65 O49 1.235 . S
Fe66 O68 1.918 . S
Fe66 O71 1.997 . S
Fe66 O72 2.002 . S
Fe66 O77 1.976 . S
Fe66 O80 1.996 . S
Fe67 O68 1.918 . S
Fe67 O75 1.997 . S
Fe67 O78 1.996 . S
Fe67 O82 1.976 . S
Fe67 O85 2.002 . S
O68 Fe66 1.918 . S
O68 Fe67 1.918 . S
O68 Fe69 1.918 . S
Fe69 O68 1.918 . S
Fe69 O70 2.002 . S
Fe69 O79 1.976 . S
Fe69 O83 1.996 . S
Fe69 O86 1.997 . S
O70 Fe69 2.002 . S
O70 C87 1.295 . S
O71 Fe66 1.997 . S
O71 C87 1.235 . S
O72 Fe66 2.002 . S
O72 C73 1.295 . S
C73 O72 1.295 . S
C73 O75 1.235 . S
C74 O79 1.287 . S
C74 O80 1.255 . S
O75 Fe67 1.997 . S
O75 C73 1.235 . S
C76 O82 1.287 . S
C76 O83 1.255 . S
O77 Fe66 1.976 . S
O77 C84 1.287 . S
O78 Fe67 1.996 . S
O78 C84 1.255 . S
O79 Fe69 1.976 . S
O79 C74 1.287 . S
O80 Fe66 1.996 . S
O80 C74 1.255 . S
C81 O85 1.295 . S
C81 O86 1.235 . S
O82 Fe67 1.976 . S
O82 C76 1.287 . S
O83 Fe69 1.996 . S
O83 C76 1.255 . S
C84 O77 1.287 . S
C84 O78 1.255 . S
O85 Fe67 2.002 . S
O85 C81 1.295 . S
O86 Fe69 1.997 . S
O86 C81 1.235 . S
C87 O70 1.295 . S
C87 O71 1.235 . S
Fe88 O90 1.918 . S
Fe88 O93 1.997 . S
Fe88 O94 2.002 . S
Fe88 O99 1.976 . S
Fe88 O102 1.996 . S
Fe89 O90 1.918 . S
Fe89 O97 1.997 . S
Fe89 O100 1.996 . S
Fe89 O104 1.976 . S
Fe89 O107 2.002 . S
O90 Fe88 1.918 . S
O90 Fe89 1.918 . S
O90 Fe91 1.918 . S
Fe91 O90 1.918 . S
Fe91 O92 2.002 . S
Fe91 O101 1.976 . S
Fe91 O105 1.996 . S
Fe91 O108 1.997 . S
O92 Fe91 2.002 . S
O92 C109 1.295 . S
O93 Fe88 1.997 . S
O93 C109 1.235 . S
O94 Fe88 2.002 . S
O94 C95 1.295 . S
C95 O94 1.295 . S
C95 O97 1.235 . S
C96 O101 1.287 . S
C96 O102 1.255 . S
O97 Fe89 1.997 . S
O97 C95 1.235 . S
C98 O104 1.287 . S
C98 O105 1.255 . S
O99 Fe88 1.976 . S
O99 C106 1.287 . S
O100 Fe89 1.996 . S
O100 C106 1.255 . S
O101 Fe91 1.976 . S
O101 C96 1.287 . S
O102 Fe88 1.996 . S
O102 C96 1.255 . S
C103 O107 1.295 . S
C103 O108 1.235 . S
O104 Fe89 1.976 . S
O104 C98 1.287 . S
O105 Fe91 1.996 . S
O105 C98 1.255 . S
C106 O99 1.287 . S
C106 O100 1.255 . S
O107 Fe89 2.002 . S
O107 C103 1.295 . S
O108 Fe91 1.997 . S
O108 C103 1.235 . S
C109 O92 1.295 . S
C109 O93 1.235 . S
Fe110 O112 1.918 . S
Fe110 O115 1.997 . S
Fe110 O116 2.002 . S
Fe110 O121 1.976 . S
Fe110 O124 1.996 . S
Fe111 O112 1.918 . S
Fe111 O119 1.997 . S
Fe111 O122 1.996 . S
Fe111 O126 1.976 . S
Fe111 O129 2.002 . S
O112 Fe110 1.918 . S
O112 Fe111 1.918 . S
O112 Fe113 1.918 . S
Fe113 O112 1.918 . S
Fe113 O114 2.002 . S
Fe113 O123 1.976 . S
Fe113 O127 1.996 . S
Fe113 O130 1.997 . S
O114 Fe113 2.002 . S
O114 C131 1.295 . S
O115 Fe110 1.997 . S
O115 C131 1.235 . S
O116 Fe110 2.002 . S
O116 C117 1.295 . S
C117 O116 1.295 . S
C117 O119 1.235 . S
C118 O123 1.287 . S
C118 O124 1.255 . S
O119 Fe111 1.997 . S
O119 C117 1.235 . S
C120 O126 1.287 . S
C120 O127 1.255 . S
O121 Fe110 1.976 . S
O121 C128 1.287 . S
O122 Fe111 1.996 . S
O122 C128 1.255 . S
O123 Fe113 1.976 . S
O123 C118 1.287 . S
O124 Fe110 1.996 . S
O124 C118 1.255 . S
C125 O129 1.295 . S
C125 O130 1.235 . S
O126 Fe111 1.976 . S
O126 C120 1.287 . S
O127 Fe113 1.996 . S
O127 C120 1.255 . S
C128 O121 1.287 . S
C128 O122 1.255 . S
O129 Fe111 2.002 . S
O129 C125 1.295 . S
O130 Fe113 1.997 . S
O130 C125 1.235 . S
C131 O114 1.295 . S
C131 O115 1.235 . S
Fe132 O134 1.918 . S
Fe132 O137 1.997 . S
Fe132 O138 2.002 . S
Fe132 O143 1.976 . S
Fe132 O146 1.996 . S
Fe133 O134 1.918 . S
Fe133 O141 1.997 . S
Fe133 O144 1.996 . S
Fe133 O148 1.976 . S
Fe133 O151 2.002 . S
O134 Fe132 1.918 . S
O134 Fe133 1.918 . S
O134 Fe135 1.918 . S
Fe135 O134 1.918 . S
Fe135 O136 2.002 . S
Fe135 O145 1.976 . S
Fe135 O149 1.996 . S
Fe135 O152 1.997 . S
O136 Fe135 2.002 . S
O136 C153 1.295 . S
O137 Fe132 1.997 . S
O137 C153 1.235 . S
O138 Fe132 2.002 . S
O138 C139 1.295 . S
C139 O138 1.295 . S
C139 O141 1.235 . S
C140 O145 1.287 . S
C140 O146 1.255 . S
O141 Fe133 1.997 . S
O141 C139 1.235 . S
C142 O148 1.287 . S
C142 O149 1.255 . S
O143 Fe132 1.976 . S
O143 C150 1.287 . S
O144 Fe133 1.996 . S
O144 C150 1.255 . S
O145 Fe135 1.976 . S
O145 C140 1.287 . S
O146 Fe132 1.996 . S
O146 C140 1.255 . S
C147 O151 1.295 . S
C147 O152 1.235 . S
O148 Fe133 1.976 . S
O148 C142 1.287 . S
O149 Fe135 1.996 . S
O149 C142 1.255 . S
C150 O143 1.287 . S
C150 O144 1.255 . S
O151 Fe133 2.002 . S
O151 C147 1.295 . S
O152 Fe135 1.997 . S
O152 C147 1.235 . S
C153 O136 1.295 . S
C153 O137 1.235 . S
Fe154 O156 1.918 . S
Fe154 O159 1.997 . S
Fe154 O160 2.002 . S
Fe154 O165 1.976 . S
Fe154 O168 1.996 . S
Fe155 O156 1.918 . S
Fe155 O163 1.997 . S
Fe155 O166 1.996 . S
Fe155 O170 1.976 . S
Fe155 O173 2.002 . S
O156 Fe154 1.918 . S
O156 Fe155 1.918 . S
O156 Fe157 1.918 . S
Fe157 O156 1.918 . S
Fe157 O158 2.002 . S
Fe157 O167 1.976 . S
Fe157 O171 1.996 . S
Fe157 O174 1.997 . S
O158 Fe157 2.002 . S
O158 C175 1.295 . S
O159 Fe154 1.997 . S
O159 C175 1.235 . S
O160 Fe154 2.002 . S
O160 C161 1.295 . S
C161 O160 1.295 . S
C161 O163 1.235 . S
C162 O167 1.287 . S
C162 O168 1.255 . S
O163 Fe155 1.997 . S
O163 C161 1.235 . S
C164 O170 1.287 . S
C164 O171 1.255 . S
O165 Fe154 1.976 . S
O165 C172 1.287 . S
O166 Fe155 1.996 . S
O166 C172 1.255 . S
O167 Fe157 1.976 . S
O167 C162 1.287 . S
O168 Fe154 1.996 . S
O168 C162 1.255 . S
C169 O173 1.295 . S
C169 O174 1.235 . S
O170 Fe155 1.976 . S
O170 C164 1.287 . S
O171 Fe157 1.996 . S
O171 C164 1.255 . S
C172 O165 1.287 . S
C172 O166 1.255 . S
O173 Fe155 2.002 . S
O173 C169 1.295 . S
O174 Fe157 1.997 . S
O174 C169 1.235 . S
C175 O158 1.295 . S
C175 O159 1.235 . S
Fe176 O178 1.918 . S
Fe176 O181 1.997 . S
Fe176 O182 2.002 . S
Fe176 O187 1.976 . S
Fe176 O190 1.996 . S
Fe177 O178 1.918 . S
Fe177 O185 1.997 . S
Fe177 O188 1.996 . S
Fe177 O192 1.976 . S
Fe177 O195 2.002 . S
O178 Fe176 1.918 . S
O178 Fe177 1.918 . S
O178 Fe179 1.918 . S
Fe179 O178 1.918 . S
Fe179 O180 2.002 . S
Fe179 O189 1.976 . S
Fe179 O193 1.996 . S
Fe179 O196 1.997 . S
O180 Fe179 2.002 . S
O180 C197 1.295 . S
O181 Fe176 1.997 . S
O181 C197 1.235 . S
O182 Fe176 2.002 . S
O182 C183 1.295 . S
C183 O182 1.295 . S
C183 O185 1.235 . S
C184 O189 1.287 . S
C184 O190 1.255 . S
O185 Fe177 1.997 . S
O185 C183 1.235 . S
C186 O192 1.287 . S
C186 O193 1.255 . S
O187 Fe176 1.976 . S
O187 C194 1.287 . S
O188 Fe177 1.996 . S
O188 C194 1.255 . S
O189 Fe179 1.976 . S
O189 C184 1.287 . S
O190 Fe176 1.996 . S
O190 C184 1.255 . S
C191 O195 1.295 . S
C191 O196 1.235 . S
O192 Fe177 1.976 . S
O192 C186 1.287 . S
O193 Fe179 1.996 . S
O193 C186 1.255 . S
C194 O187 1.287 . S
C194 O188 1.255 . S
O195 Fe177 2.002 . S
O195 C191 1.295 . S
O196 Fe179 1.997 . S
O196 C191 1.235 . S
C197 O180 1.295 . S
C197 O181 1.235 . S
Fe198 O200 1.918 . S
Fe198 O203 1.997 . S
Fe198 O204 2.002 . S
Fe198 O209 1.976 . S
Fe198 O212 1.996 . S
Fe199 O200 1.918 . S
Fe199 O207 1.997 . S
Fe199 O210 1.996 . S
Fe199 O214 1.976 . S
Fe199 O217 2.002 . S
O200 Fe198 1.918 . S
O200 Fe199 1.918 . S
O200 Fe201 1.918 . S
Fe201 O200 1.918 . S
Fe201 O202 2.002 . S
Fe201 O211 1.976 . S
Fe201 O215 1.996 . S
Fe201 O218 1.997 . S
O202 Fe201 2.002 . S
O202 C219 1.295 . S
O203 Fe198 1.997 . S
O203 C219 1.235 . S
O204 Fe198 2.002 . S
O204 C205 1.295 . S
C205 O204 1.295 . S
C205 O207 1.235 . S
C206 O211 1.287 . S
C206 O212 1.255 . S
O207 Fe199 1.997 . S
O207 C205 1.235 . S
C208 O214 1.287 . S
C208 O215 1.255 . S
O209 Fe198 1.976 . S
O209 C216 1.287 . S
O210 Fe199 1.996 . S
O210 C216 1.255 . S
O211 Fe201 1.976 . S
O211 C206 1.287 . S
O212 Fe198 1.996 . S
O212 C206 1.255 . S
C213 O217 1.295 . S
C213 O218 1.235 . S
O214 Fe199 1.976 . S
O214 C208 1.287 . S
O215 Fe201 1.996 . S
O215 C208 1.255 . S
C216 O209 1.287 . S
C216 O210 1.255 . S
O217 Fe199 2.002 . S
O217 C213 1.295 . S
O218 Fe201 1.997 . S
O218 C213 1.235 . S
C219 O202 1.295 . S
C219 O203 1.235 . S
Fe220 O222 1.918 . S
Fe220 O225 1.997 . S
Fe220 O226 2.002 . S
Fe220 O231 1.976 . S
Fe220 O234 1.996 . S
Fe221 O222 1.918 . S
Fe221 O229 1.997 . S
Fe221 O232 1.996 . S
Fe221 O236 1.976 . S
Fe221 O239 2.002 . S
O222 Fe220 1.918 . S
O222 Fe221 1.918 . S
O222 Fe223 1.918 . S
Fe223 O222 1.918 . S
Fe223 O224 2.002 . S
Fe223 O233 1.976 . S
Fe223 O237 1.996 . S
Fe223 O240 1.997 . S
O224 Fe223 2.002 . S
O224 C241 1.295 . S
O225 Fe220 1.997 . S
O225 C241 1.235 . S
O226 Fe220 2.002 . S
O226 C227 1.295 . S
C227 O226 1.295 . S
C227 O229 1.235 . S
C228 O233 1.287 . S
C228 O234 1.255 . S
O229 Fe221 1.997 . S
O229 C227 1.235 . S
C230 O236 1.287 . S
C230 O237 1.255 . S
O231 Fe220 1.976 . S
O231 C238 1.287 . S
O232 Fe221 1.996 . S
O232 C238 1.255 . S
O233 Fe223 1.976 . S
O233 C228 1.287 . S
O234 Fe220 1.996 . S
O234 C228 1.255 . S
C235 O239 1.295 . S
C235 O240 1.235 . S
O236 Fe221 1.976 . S
O236 C230 1.287 . S
O237 Fe223 1.996 . S
O237 C230 1.255 . S
C238 O231 1.287 . S
C238 O232 1.255 . S
O239 Fe221 2.002 . S
O239 C235 1.295 . S
O240 Fe223 1.997 . S
O240 C235 1.235 . S
C241 O224 1.295 . S
C241 O225 1.235 . S
Fe242 O244 1.918 . S
Fe242 O247 1.997 . S
Fe242 O248 2.002 . S
Fe242 O253 1.976 . S
Fe242 O256 1.996 . S
Fe243 O244 1.918 . S
Fe243 O251 1.997 . S
Fe243 O254 1.996 . S
Fe243 O258 1.976 . S
Fe243 O261 2.002 . S
O244 Fe242 1.918 . S
O244 Fe243 1.918 . S
O244 Fe245 1.918 . S
Fe245 O244 1.918 . S
Fe245 O246 2.002 . S
Fe245 O255 1.976 . S
Fe245 O259 1.996 . S
Fe245 O262 1.997 . S
O246 Fe245 2.002 . S
O246 C263 1.295 . S
O247 Fe242 1.997 . S
O247 C263 1.235 . S
O248 Fe242 2.002 . S
O248 C249 1.295 . S
C249 O248 1.295 . S
C249 O251 1.235 . S
C250 O255 1.287 . S
C250 O256 1.255 . S
O251 Fe243 1.997 . S
O251 C249 1.235 . S
C252 O258 1.287 . S
C252 O259 1.255 . S
O253 Fe242 1.976 . S
O253 C260 1.287 . S
O254 Fe243 1.996 . S
O254 C260 1.255 . S
O255 Fe245 1.976 . S
O255 C250 1.287 . S
O256 Fe242 1.996 . S
O256 C250 1.255 . S
C257 O261 1.295 . S
C257 O262 1.235 . S
O258 Fe243 1.976 . S
O258 C252 1.287 . S
O259 Fe245 1.996 . S
O259 C252 1.255 . S
C260 O253 1.287 . S
C260 O254 1.255 . S
O261 Fe243 2.002 . S
O261 C257 1.295 . S
O262 Fe245 1.997 . S
O262 C257 1.235 . S
C263 O246 1.295 . S
C263 O247 1.235 . S
C15 C164 1.429 . S
C95 C30 1.478 . S
C54 C120 1.377 . S
C84 C147 1.466 . S
C81 C205 1.520 . S
C18 C238 1.397 . S
C249 C29 1.531 . S
C65 C184 1.449 . S
C103 C10 1.483 . S
C128 C43 1.443 . S
C153 C59 1.534 . S
C73 C172 1.433 . S
C76 C186 1.381 . S
C7 C213 1.516 . S
C228 C40 1.392 . S
C257 C52 1.464 . S
C98 C169 1.458 . S
C216 C191 1.466 . S
C208 C227 1.455 . S
C260 C241 1.443 . S
C252 C197 1.456 . S
C140 C125 1.457 . S
C142 C161 1.468 . S
C106 C117 1.444 . S
C74 C8 1.485 1_565 S
C21 C37 1.569 1_455 S
C32 C51 1.546 1_545 S
C87 C62 1.508 1_455 S
C235 C96 1.498 1_556 S
C250 C131 1.522 1_556 S
C150 C183 1.531 1_554 S
C206 C175 1.555 1_556 S
C162 C118 1.415 1_455 S
C263 C219 1.599 1_655 S
C230 C194 1.453 1_545 S
C139 C109 1.642 1_565 S
