# Generated by pormake.
# Topology wjv, (5)-cn, num edge types: 1
# Building blocks:
#     Node 0, Type 0, BuildingBlock: XOMCOT_clean_sbu_0, # of connection points: 5
#     Node 1, Type 0, BuildingBlock: XOMCOT_clean_sbu_0, # of connection points: 5
#     Node 2, Type 0, BuildingBlock: XOMCOT_clean_sbu_0, # of connection points: 5
#     Node 3, Type 0, BuildingBlock: XOMCOT_clean_sbu_0, # of connection points: 5
#     Node 4, Type 0, BuildingBlock: XOMCOT_clean_sbu_0, # of connection points: 5
#     Node 5, Type 0, BuildingBlock: XOMCOT_clean_sbu_0, # of connection points: 5
#     Node 6, Type 0, BuildingBlock: XOMCOT_clean_sbu_0, # of connection points: 5
#     Node 7, Type 0, BuildingBlock: XOMCOT_clean_sbu_0, # of connection points: 5
#     Node 8, Type 0, BuildingBlock: XOMCOT_clean_sbu_0, # of connection points: 5
#     Node 9, Type 0, BuildingBlock: XOMCOT_clean_sbu_0, # of connection points: 5
#     Node 10, Type 0, BuildingBlock: XOMCOT_clean_sbu_0, # of connection points: 5
#     Node 11, Type 0, BuildingBlock: XOMCOT_clean_sbu_0, # of connection points: 5
#     Edge 12, Type (0, 0), BuildingBlock: MIFKUJ_clean_linker_0, # of connection points: 2
#     Edge 13, Type (0, 0), BuildingBlock: MIFKUJ_clean_linker_0, # of connection points: 2
#     Edge 14, Type (0, 0), BuildingBlock: MIFKUJ_clean_linker_0, # of connection points: 2
#     Edge 15, Type (0, 0), BuildingBlock: MIFKUJ_clean_linker_0, # of connection points: 2
#     Edge 16, Type (0, 0), BuildingBlock: MIFKUJ_clean_linker_0, # of connection points: 2
#     Edge 17, Type (0, 0), BuildingBlock: MIFKUJ_clean_linker_0, # of connection points: 2
#     Edge 18, Type (0, 0), BuildingBlock: MIFKUJ_clean_linker_0, # of connection points: 2
#     Edge 19, Type (0, 0), BuildingBlock: MIFKUJ_clean_linker_0, # of connection points: 2
#     Edge 20, Type (0, 0), BuildingBlock: MIFKUJ_clean_linker_0, # of connection points: 2
#     Edge 21, Type (0, 0), BuildingBlock: MIFKUJ_clean_linker_0, # of connection points: 2
#     Edge 22, Type (0, 0), BuildingBlock: MIFKUJ_clean_linker_0, # of connection points: 2
#     Edge 23, Type (0, 0), BuildingBlock: MIFKUJ_clean_linker_0, # of connection points: 2
#     Edge 24, Type (0, 0), BuildingBlock: MIFKUJ_clean_linker_0, # of connection points: 2
#     Edge 25, Type (0, 0), BuildingBlock: MIFKUJ_clean_linker_0, # of connection points: 2
#     Edge 26, Type (0, 0), BuildingBlock: MIFKUJ_clean_linker_0, # of connection points: 2
#     Edge 27, Type (0, 0), BuildingBlock: MIFKUJ_clean_linker_0, # of connection points: 2
#     Edge 28, Type (0, 0), BuildingBlock: MIFKUJ_clean_linker_0, # of connection points: 2
#     Edge 29, Type (0, 0), BuildingBlock: MIFKUJ_clean_linker_0, # of connection points: 2
#     Edge 30, Type (0, 0), BuildingBlock: MIFKUJ_clean_linker_0, # of connection points: 2
#     Edge 31, Type (0, 0), BuildingBlock: MIFKUJ_clean_linker_0, # of connection points: 2
#     Edge 32, Type (0, 0), BuildingBlock: MIFKUJ_clean_linker_0, # of connection points: 2
#     Edge 33, Type (0, 0), BuildingBlock: MIFKUJ_clean_linker_0, # of connection points: 2
#     Edge 34, Type (0, 0), BuildingBlock: MIFKUJ_clean_linker_0, # of connection points: 2
#     Edge 35, Type (0, 0), BuildingBlock: MIFKUJ_clean_linker_0, # of connection points: 2
#     Edge 36, Type (0, 0), BuildingBlock: MIFKUJ_clean_linker_0, # of connection points: 2
#     Edge 37, Type (0, 0), BuildingBlock: MIFKUJ_clean_linker_0, # of connection points: 2
#     Edge 38, Type (0, 0), BuildingBlock: MIFKUJ_clean_linker_0, # of connection points: 2
#     Edge 39, Type (0, 0), BuildingBlock: MIFKUJ_clean_linker_0, # of connection points: 2
#     Edge 40, Type (0, 0), BuildingBlock: MIFKUJ_clean_linker_0, # of connection points: 2
#     Edge 41, Type (0, 0), BuildingBlock: MIFKUJ_clean_linker_0, # of connection points: 2
# Relax obj value: 0.167
# Max RMSD: 0.189
# Mean RMSD: 0.189
data_MOF--net-wjv--node1-XOMCOT_clean_sbu_0--edge1-MIFKUJ_clean_linker_0
_symmetry_space_group_name_H-M    P1
_symmetry_Int_Tables_number       1
_symmetry_cell_setting            triclinic
loop_
_symmetry_equiv_pos_as_xyz
'x, y, z'
_cell_length_a     46.959014
_cell_length_b     47.05348
_cell_length_c     63.330534
_cell_angle_alpha  89.923066
_cell_angle_beta   89.900651
_cell_angle_gamma 119.83911
loop_
_atom_site_label
_atom_site_type_symbol
_atom_site_fract_x
_atom_site_fract_y
_atom_site_fract_z
_atom_type_partial_charge
Co0 Co 0.21949 0.30752 0.18048 0.0
C1 C 0.21091 0.31466 0.13387 0.0
C2 C 0.21127 0.27061 0.14165 0.0
C3 C 0.20435 0.26984 0.12061 0.0
N4 N 0.21678 0.29926 0.15004 0.0
N5 N 0.20418 0.29756 0.11557 0.0
H6 H 0.20949 0.33674 0.13564 0.0
H7 H 0.20985 0.25027 0.15047 0.0
C8 C 0.26379 0.28003 0.17446 0.0
O9 O 0.27859 0.30227 0.15965 0.0
N10 N 0.22029 0.31377 0.21081 0.0
C11 C 0.22171 0.3396 0.22093 0.0
C12 C 0.22441 0.3359 0.24231 0.0
C13 C 0.22195 0.29462 0.22614 0.0
N14 N 0.2248 0.30772 0.24556 0.0
C15 C 0.27172 0.36976 0.16367 0.0
C16 C 0.31924 0.37236 0.19059 0.0
C17 C 0.32887 0.39519 0.17413 0.0
C18 C 0.30454 0.39431 0.16086 0.0
C19 C 0.28655 0.34828 0.19266 0.0
N20 N 0.2634 0.34592 0.1786 0.0
H21 H 0.25333 0.36984 0.15367 0.0
H22 H 0.28034 0.33013 0.20489 0.0
H23 H 0.22191 0.36024 0.21325 0.0
H24 H 0.22179 0.27192 0.22313 0.0
O25 O 0.19276 0.32798 0.17728 0.0
O26 O 0.17397 0.27478 0.1823 0.0
O27 O 0.23929 0.27837 0.18446 0.0
C28 C 0.16771 0.29849 0.17927 0.0
H29 H 0.19765 0.24925 0.1102 0.0
H30 H 0.22733 0.35335 0.25442 0.0
H31 H 0.33706 0.37186 0.20119 0.0
H32 H 0.31084 0.41215 0.14832 0.0
Co33 Co 0.89945 0.2119 0.51814 0.0
C34 C 0.88651 0.19765 0.4721 0.0
C35 C 0.91964 0.18298 0.48484 0.0
C36 C 0.91479 0.17471 0.46387 0.0
N37 N 0.9022 0.19757 0.48998 0.0
N38 N 0.89407 0.18398 0.45576 0.0
H39 H 0.87005 0.20747 0.47114 0.0
H40 H 0.93428 0.17798 0.49576 0.0
C41 C 0.97095 0.25554 0.52802 0.0
O42 O 0.96471 0.27812 0.53512 0.0
N43 N 0.89666 0.2247 0.54714 0.0
C44 C 0.87191 0.2271 0.55623 0.0
C45 C 0.87835 0.23359 0.57743 0.0
C46 C 0.91658 0.22755 0.56343 0.0
N47 N 0.90659 0.23401 0.58194 0.0
C48 C 0.89051 0.26828 0.51207 0.0
C49 C 0.94645 0.30336 0.48788 0.0
C50 C 0.93025 0.31945 0.4956 0.0
C51 C 0.90101 0.30101 0.50703 0.0
C52 C 0.93518 0.27075 0.49338 0.0
N53 N 0.909 0.25439 0.50671 0.0
H54 H 0.8679 0.25451 0.52062 0.0
H55 H 0.94877 0.25924 0.48784 0.0
H56 H 0.84968 0.22278 0.54842 0.0
H57 H 0.93769 0.22431 0.56194 0.0
O58 O 0.85196 0.18766 0.516 0.0
O59 O 0.88309 0.16795 0.5281 0.0
O60 O 0.94772 0.228 0.52157 0.0
C61 C 0.85397 0.16281 0.52337 0.0
H62 H 0.92503 0.16186 0.45543 0.0
H63 H 0.86276 0.23653 0.58879 0.0
H64 H 0.96829 0.31611 0.47818 0.0
H65 H 0.88705 0.31203 0.51284 0.0
Co66 Co 0.68554 0.91719 0.84864 0.0
C67 C 0.68443 0.902 0.80242 0.0
C68 C 0.72331 0.94977 0.8106 0.0
C69 C 0.72725 0.94403 0.78991 0.0
N70 N 0.69583 0.92397 0.81848 0.0
N71 N 0.70295 0.91392 0.78473 0.0
H72 H 0.66493 0.87689 0.80404 0.0
H73 H 0.74096 0.97056 0.81962 0.0
C74 C 0.70332 0.9868 0.84215 0.0
O75 O 0.68176 0.97679 0.82675 0.0
N76 N 0.67734 0.91076 0.87869 0.0
C77 C 0.65222 0.88495 0.88836 0.0
C78 C 0.65489 0.89054 0.90982 0.0
C79 C 0.69507 0.93157 0.89429 0.0
N80 N 0.68178 0.91993 0.91351 0.0
C81 C 0.62083 0.8963 0.83002 0.0
C82 C 0.60754 0.93556 0.85594 0.0
C83 C 0.58559 0.91854 0.83959 0.0
C84 C 0.59221 0.89818 0.82672 0.0
C85 C 0.63563 0.93313 0.85857 0.0
N86 N 0.64297 0.91491 0.84515 0.0
H87 H 0.62504 0.88001 0.82033 0.0
H88 H 0.65241 0.94736 0.87099 0.0
H89 H 0.63295 0.8639 0.88033 0.0
H90 H 0.71716 0.95479 0.89159 0.0
O91 O 0.67336 0.87134 0.84582 0.0
O92 O 0.72352 0.91246 0.85215 0.0
O93 O 0.70754 0.96608 0.85279 0.0
C94 C 0.70437 0.88127 0.84908 0.0
H95 H 0.74731 0.96036 0.77972 0.0
H96 H 0.63776 0.87464 0.92171 0.0
H97 H 0.60386 0.95184 0.86622 0.0
H98 H 0.57548 0.88388 0.81424 0.0
Co99 Co 0.76939 0.67725 0.18335 0.0
C100 C 0.78305 0.67771 0.13718 0.0
C101 C 0.74358 0.68702 0.14373 0.0
C102 C 0.74825 0.68815 0.12219 0.0
N103 N 0.76537 0.68051 0.15312 0.0
N104 N 0.77309 0.68227 0.11804 0.0
H105 H 0.80246 0.672 0.13943 0.0
H106 H 0.72561 0.69087 0.152 0.0
C107 C 0.77974 0.74065 0.18758 0.0
O108 O 0.74785 0.7221 0.18998 0.0
N109 N 0.77305 0.67422 0.2137 0.0
C110 C 0.78056 0.65368 0.22389 0.0
C111 C 0.77847 0.65731 0.24533 0.0
C112 C 0.76621 0.68985 0.22907 0.0
N113 N 0.76938 0.68005 0.24861 0.0
C114 C 0.73126 0.61004 0.16954 0.0
C115 C 0.67644 0.59984 0.19225 0.0
C116 C 0.67341 0.57599 0.17779 0.0
C117 C 0.70137 0.58099 0.16655 0.0
C118 C 0.70633 0.62853 0.1944 0.0
N119 N 0.73294 0.63342 0.18299 0.0
H120 H 0.75248 0.61457 0.16028 0.0
H121 H 0.70788 0.64786 0.2044 0.0
H122 H 0.78628 0.63656 0.21629 0.0
H123 H 0.75867 0.70771 0.22611 0.0
O124 O 0.80486 0.66573 0.17932 0.0
O125 O 0.81566 0.71516 0.18229 0.0
O126 O 0.79724 0.72687 0.18453 0.0
C127 C 0.8272 0.6956 0.17995 0.0
H128 H 0.7347 0.69345 0.11055 0.0
H129 H 0.78226 0.64338 0.2575 0.0
H130 H 0.65535 0.59735 0.20086 0.0
H131 H 0.69987 0.56315 0.15516 0.0
Co132 Co 0.08847 0.77321 0.51931 0.0
C133 C 0.10417 0.78832 0.47341 0.0
C134 C 0.06204 0.7915 0.48329 0.0
C135 C 0.06719 0.79887 0.46214 0.0
N136 N 0.0849 0.78449 0.49033 0.0
N137 N 0.09362 0.79688 0.45589 0.0
H138 H 0.12514 0.78462 0.47386 0.0
H139 H 0.04305 0.79159 0.49292 0.0
C140 C 0.01852 0.72304 0.52898 0.0
O141 O 0.02803 0.70389 0.53784 0.0
N142 N 0.09201 0.76359 0.54902 0.0
C143 C 0.11923 0.76787 0.55914 0.0
C144 C 0.11326 0.764 0.58056 0.0
C145 C 0.07048 0.75872 0.56481 0.0
N146 N 0.08249 0.75796 0.58402 0.0
C147 C 0.10579 0.72188 0.51677 0.0
C148 C 0.05417 0.68173 0.49063 0.0
C149 C 0.07317 0.66942 0.49949 0.0
C150 C 0.09996 0.69032 0.51218 0.0
C151 C 0.06072 0.71322 0.49572 0.0
N152 N 0.08502 0.7322 0.50966 0.0
H153 H 0.1267 0.73765 0.52626 0.0
H154 H 0.04496 0.72166 0.48924 0.0
H155 H 0.14262 0.77516 0.55174 0.0
H156 H 0.0472 0.75774 0.56263 0.0
O157 O 0.13553 0.80214 0.51786 0.0
O158 O 0.09908 0.81658 0.52768 0.0
O159 O 0.03929 0.75125 0.52176 0.0
C160 C 0.1296 0.82511 0.5241 0.0
H161 H 0.05294 0.80584 0.45219 0.0
H162 H 0.1304 0.76604 0.59269 0.0
H163 H 0.0333 0.66664 0.48068 0.0
H164 H 0.116 0.68221 0.51875 0.0
Co165 Co 0.30426 0.09672 0.8528 0.0
C166 C 0.30444 0.11012 0.80657 0.0
C167 C 0.25594 0.08091 0.8195 0.0
C168 C 0.25317 0.08716 0.79865 0.0
N169 N 0.28797 0.09522 0.8245 0.0
N170 N 0.28358 0.10559 0.7905 0.0
H171 H 0.3309 0.12483 0.80553 0.0
H172 H 0.23588 0.06756 0.83044 0.0
C173 C 0.26671 0.02403 0.86303 0.0
O174 O 0.29346 0.02379 0.8688 0.0
N175 N 0.31942 0.09837 0.88184 0.0
C176 C 0.34745 0.12209 0.89055 0.0
C177 C 0.34772 0.11575 0.91174 0.0
C178 C 0.30225 0.07902 0.89839 0.0
N179 N 0.3193 0.08857 0.91669 0.0
C180 C 0.36675 0.09992 0.84671 0.0
C181 C 0.34281 0.04201 0.82447 0.0
C182 C 0.37528 0.05735 0.83177 0.0
C183 C 0.38756 0.08744 0.84222 0.0
C184 C 0.32278 0.05532 0.82945 0.0
N185 N 0.33418 0.08257 0.84188 0.0
H186 H 0.37685 0.12331 0.85435 0.0
H187 H 0.29755 0.04271 0.82422 0.0
H188 H 0.36599 0.1436 0.88245 0.0
H189 H 0.27745 0.0588 0.89734 0.0
O190 O 0.3315 0.144 0.85 0.0
O191 O 0.28042 0.11749 0.86243 0.0
O192 O 0.26788 0.05041 0.85694 0.0
C193 C 0.30619 0.14514 0.85751 0.0
H194 H 0.23043 0.07893 0.79014 0.0
H195 H 0.36689 0.13076 0.92281 0.0
H196 H 0.33247 0.0191 0.81591 0.0
H197 H 0.41295 0.10098 0.84721 0.0
Co198 Co 0.69732 0.77622 0.51492 0.0
C199 C 0.69717 0.79215 0.56057 0.0
C200 C 0.74343 0.79823 0.55015 0.0
C201 C 0.74612 0.80689 0.57102 0.0
N202 N 0.71275 0.78878 0.5436 0.0
N203 N 0.71717 0.80337 0.57764 0.0
H204 H 0.67215 0.78743 0.56021 0.0
H205 H 0.76283 0.79937 0.54033 0.0
C206 C 0.72423 0.73176 0.50452 0.0
O207 O 0.69635 0.71068 0.49564 0.0
N208 N 0.68337 0.76513 0.48552 0.0
C209 C 0.65688 0.76364 0.4761 0.0
C210 C 0.65813 0.75883 0.45475 0.0
C211 C 0.70129 0.76326 0.46934 0.0
N212 N 0.68604 0.75838 0.4505 0.0
C213 C 0.63102 0.7211 0.51984 0.0
C214 C 0.64932 0.68369 0.5438 0.0
C215 C 0.61711 0.6691 0.53619 0.0
C216 C 0.60768 0.68868 0.52478 0.0
C217 C 0.67176 0.71604 0.53844 0.0
N218 N 0.66315 0.7336 0.5253 0.0
H219 H 0.62318 0.73582 0.51144 0.0
H220 H 0.69659 0.7265 0.5442 0.0
H221 H 0.63858 0.76752 0.4838 0.0
H222 H 0.72575 0.76686 0.47111 0.0
O223 O 0.67475 0.80119 0.51676 0.0
O224 O 0.7262 0.82061 0.50606 0.0
O225 O 0.72859 0.75887 0.51191 0.0
C226 C 0.70218 0.82608 0.51016 0.0
H227 H 0.76798 0.8153 0.5805 0.0
H228 H 0.63997 0.75626 0.44327 0.0
H229 H 0.65739 0.67004 0.55346 0.0
H230 H 0.58283 0.67879 0.51903 0.0
Co231 Co 0.90298 0.66766 0.84806 0.0
C232 C 0.89001 0.6721 0.89398 0.0
C233 C 0.92848 0.66088 0.88864 0.0
C234 C 0.92429 0.66206 0.91007 0.0
N235 N 0.9071 0.66726 0.87853 0.0
N236 N 0.90011 0.66917 0.91348 0.0
H237 H 0.87068 0.67773 0.89113 0.0
H238 H 0.9456 0.65521 0.88091 0.0
C239 C 0.9631 0.72297 0.84806 0.0
O240 O 0.96813 0.69789 0.84725 0.0
N241 N 0.89937 0.66817 0.81758 0.0
C242 C 0.8715 0.65207 0.80634 0.0
C243 C 0.87919 0.65712 0.78517 0.0
C244 C 0.92369 0.68275 0.80311 0.0
N245 N 0.91203 0.67635 0.78311 0.0
C246 C 0.86438 0.5996 0.86089 0.0
C247 C 0.90324 0.58195 0.83768 0.0
C248 C 0.88115 0.55967 0.85246 0.0
C249 C 0.86094 0.56844 0.86386 0.0
C250 C 0.90635 0.61273 0.83558 0.0
N251 N 0.88762 0.6214 0.84733 0.0
H252 H 0.85016 0.60705 0.87048 0.0
H253 H 0.92562 0.63069 0.8256 0.0
H254 H 0.84728 0.63722 0.81305 0.0
H255 H 0.94943 0.69679 0.80708 0.0
O256 O 0.85927 0.6651 0.85081 0.0
O257 O 0.90373 0.71091 0.84922 0.0
O258 O 0.93311 0.71687 0.84836 0.0
C259 C 0.87213 0.69607 0.85035 0.0
H260 H 0.93759 0.65727 0.92219 0.0
H261 H 0.86181 0.64732 0.77232 0.0
H262 H 0.91993 0.57669 0.82894 0.0
H263 H 0.8437 0.55197 0.87551 0.0
Co264 Co 0.2228 0.91383 0.18243 0.0
C265 C 0.20669 0.89482 0.22777 0.0
C266 C 0.19128 0.92847 0.21715 0.0
C267 C 0.18085 0.91965 0.23764 0.0
N268 N 0.20739 0.91291 0.21094 0.0
N269 N 0.1906 0.89863 0.2443 0.0
H270 H 0.21676 0.87853 0.22771 0.0
H271 H 0.18666 0.94445 0.20721 0.0
C272 C 0.27108 0.98524 0.17676 0.0
O273 O 0.29238 0.97787 0.16866 0.0
N274 N 0.23663 0.91476 0.15311 0.0
C275 C 0.23641 0.88988 0.14236 0.0
C276 C 0.24171 0.89783 0.12128 0.0
C277 C 0.24041 0.9368 0.13794 0.0
N278 N 0.24421 0.92737 0.11845 0.0
C279 C 0.27505 0.89803 0.18682 0.0
C280 C 0.3121 0.94851 0.21442 0.0
C281 C 0.32628 0.93128 0.20538 0.0
C282 C 0.30672 0.90476 0.1921 0.0
C283 C 0.28057 0.94118 0.20851 0.0
N284 N 0.26336 0.91777 0.19367 0.0
H285 H 0.26036 0.87732 0.17693 0.0
H286 H 0.27061 0.95555 0.21516 0.0
H287 H 0.23031 0.86632 0.14889 0.0
H288 H 0.23824 0.95829 0.14081 0.0
O289 O 0.19508 0.86654 0.18118 0.0
O290 O 0.1803 0.90296 0.1721 0.0
O291 O 0.24259 0.96269 0.18241 0.0
C292 C 0.17228 0.87242 0.17436 0.0
H293 H 0.167 0.92791 0.24694 0.0
H294 H 0.24258 0.88243 0.10892 0.0
H295 H 0.32554 0.96817 0.22555 0.0
H296 H 0.31613 0.89009 0.18511 0.0
Co297 Co 0.30499 0.2174 0.51085 0.0
C298 C 0.30694 0.20423 0.55782 0.0
C299 C 0.26007 0.19489 0.5466 0.0
C300 C 0.25703 0.18663 0.56755 0.0
N301 N 0.29154 0.20701 0.54044 0.0
N302 N 0.28648 0.19261 0.57474 0.0
H303 H 0.33196 0.2093 0.55814 0.0
H304 H 0.24018 0.1912 0.5363 0.0
C305 C 0.27266 0.25613 0.52083 0.0
O306 O 0.29201 0.26702 0.53739 0.0
N307 N 0.31647 0.22601 0.48122 0.0
C308 C 0.3448 0.23181 0.47213 0.0
C309 C 0.34312 0.23655 0.45078 0.0
C310 C 0.29792 0.22729 0.46537 0.0
N311 N 0.31366 0.23378 0.44655 0.0
C312 C 0.3669 0.265 0.53049 0.0
C313 C 0.36819 0.3188 0.51184 0.0
C314 C 0.39176 0.32399 0.52709 0.0
C315 C 0.39186 0.29665 0.53589 0.0
C316 C 0.34416 0.28707 0.50683 0.0
N317 N 0.34208 0.26066 0.51729 0.0
H318 H 0.36786 0.24419 0.53667 0.0
H319 H 0.32651 0.28384 0.49482 0.0
H320 H 0.36534 0.23277 0.48048 0.0
H321 H 0.27332 0.22328 0.46753 0.0
O322 O 0.32599 0.19089 0.51234 0.0
O323 O 0.27384 0.17284 0.50399 0.0
O324 O 0.27479 0.23626 0.50802 0.0
C325 C 0.29745 0.16643 0.50702 0.0
H326 H 0.23445 0.17578 0.57659 0.0
H327 H 0.36238 0.24228 0.43933 0.0
H328 H 0.36823 0.3392 0.50385 0.0
H329 H 0.4106 0.29968 0.54707 0.0
Co330 Co 0.08247 0.30738 0.84474 0.0
C331 C 0.09697 0.30596 0.89041 0.0
C332 C 0.06514 0.258 0.87777 0.0
C333 C 0.07154 0.25475 0.89853 0.0
N334 N 0.08094 0.29004 0.87271 0.0
N335 N 0.09158 0.28485 0.9065 0.0
H336 H 0.11284 0.33224 0.8913 0.0
H337 H 0.05045 0.23831 0.86697 0.0
C338 C 0.01111 0.27826 0.83496 0.0
O339 O 0.01694 0.30742 0.82893 0.0
N340 N 0.08433 0.32328 0.81589 0.0
C341 C 0.10869 0.35055 0.80675 0.0
C342 C 0.10232 0.35032 0.78549 0.0
C343 C 0.06469 0.306 0.79959 0.0
N344 N 0.07446 0.3223 0.78103 0.0
C345 C 0.08587 0.37043 0.85049 0.0
C346 C 0.0311 0.34625 0.87632 0.0
C347 C 0.04372 0.37762 0.86764 0.0
C348 C 0.07235 0.39026 0.85535 0.0
C349 C 0.04507 0.32715 0.87079 0.0
N350 N 0.0706 0.33842 0.85672 0.0
H351 H 0.10794 0.38066 0.84122 0.0
H352 H 0.03352 0.30223 0.87655 0.0
H353 H 0.13059 0.3688 0.81461 0.0
H354 H 0.04461 0.28114 0.80095 0.0
O355 O 0.12997 0.3324 0.84679 0.0
O356 O 0.10092 0.2818 0.83429 0.0
O357 O 0.03461 0.27395 0.84112 0.0
C358 C 0.1295 0.30648 0.83904 0.0
H359 H 0.06212 0.23188 0.90709 0.0
H360 H 0.11738 0.36916 0.7742 0.0
H361 H 0.00922 0.33563 0.88607 0.0
H362 H 0.08361 0.41492 0.84903 0.0
Co363 Co 0.78216 0.08505 0.17923 0.0
C364 C 0.79637 0.09876 0.22518 0.0
C365 C 0.81065 0.06506 0.21299 0.0
C366 C 0.81903 0.07041 0.23395 0.0
N367 N 0.79641 0.0827 0.2075 0.0
N368 N 0.81021 0.09168 0.24164 0.0
H369 H 0.78714 0.11572 0.22583 0.0
H370 H 0.81502 0.04963 0.20239 0.0
C371 C 0.74157 0.0131 0.16849 0.0
O372 O 0.71783 0.01667 0.16037 0.0
N373 N 0.76929 0.08753 0.15023 0.0
C374 C 0.76638 0.11203 0.14123 0.0
C375 C 0.7611 0.1063 0.11989 0.0
C376 C 0.76763 0.06837 0.13381 0.0
N377 N 0.76165 0.07866 0.11528 0.0
C378 C 0.72587 0.09389 0.18585 0.0
C379 C 0.69012 0.037 0.20896 0.0
C380 C 0.6745 0.05422 0.20226 0.0
C381 C 0.69328 0.08377 0.19123 0.0
C382 C 0.72256 0.04783 0.20304 0.0
N383 N 0.73932 0.07475 0.19041 0.0
H384 H 0.74 0.11688 0.1778 0.0
H385 H 0.73387 0.03383 0.2081 0.0
H386 H 0.76969 0.13373 0.14919 0.0
H387 H 0.77243 0.04824 0.13506 0.0
O388 O 0.80601 0.13264 0.18101 0.0
O389 O 0.82606 0.10161 0.16937 0.0
O390 O 0.7675 0.03733 0.17588 0.0
C391 C 0.8309 0.13072 0.17346 0.0
H392 H 0.83066 0.05933 0.24285 0.0
H393 H 0.75755 0.12157 0.10862 0.0
H394 H 0.67725 0.01493 0.21839 0.0
H395 H 0.6827 0.09846 0.18611 0.0
H396 H 0.32915 0.22002 0.40812 0.0
H397 H 0.31162 0.2291 0.37368 0.0
H398 H 0.25488 0.26651 0.40428 0.0
H399 H 0.27191 0.25682 0.43883 0.0
H400 H 0.22145 0.22985 0.37238 0.0
H401 H 0.33198 0.31766 0.38101 0.0
H402 H 0.39134 0.34284 0.38787 0.0
H403 H 0.40184 0.29317 0.33416 0.0
H404 H 0.34244 0.26733 0.32714 0.0
H405 H 0.20756 0.31734 0.28463 0.0
H406 H 0.22025 0.30094 0.3184 0.0
H407 H 0.26747 0.2553 0.28552 0.0
H408 H 0.25524 0.27208 0.25167 0.0
H409 H 0.30513 0.29439 0.31792 0.0
H410 H 0.19385 0.20871 0.30869 0.0
H411 H 0.13469 0.18546 0.30193 0.0
H412 H 0.12592 0.23369 0.35701 0.0
H413 H 0.18516 0.25764 0.36394 0.0
C414 C 0.31302 0.23027 0.40752 0.0
C415 C 0.30215 0.23793 0.42625 0.0
C416 C 0.30302 0.23551 0.38779 0.0
C417 C 0.28239 0.24912 0.38626 0.0
C418 C 0.27085 0.25605 0.40496 0.0
C419 C 0.28056 0.25046 0.42474 0.0
C420 C 0.27317 0.25645 0.3652 0.0
C421 C 0.23982 0.24431 0.3606 0.0
C422 C 0.29697 0.27475 0.34953 0.0
C423 C 0.33271 0.2903 0.35369 0.0
C424 C 0.34691 0.31191 0.37076 0.0
C425 C 0.38057 0.32633 0.37466 0.0
C426 C 0.40034 0.31953 0.3615 0.0
C427 C 0.38649 0.29837 0.34436 0.0
C428 C 0.35283 0.28384 0.34041 0.0
C429 C 0.22059 0.30377 0.28457 0.0
C430 C 0.23036 0.29605 0.26541 0.0
C431 C 0.22762 0.29418 0.3039 0.0
C432 C 0.24464 0.27667 0.30454 0.0
C433 C 0.25423 0.26869 0.28544 0.0
C434 C 0.24698 0.27808 0.26608 0.0
C435 C 0.2535 0.26788 0.32517 0.0
C436 C 0.28679 0.27981 0.32969 0.0
C437 C 0.22968 0.24967 0.34081 0.0
C438 C 0.19402 0.23522 0.33672 0.0
C439 C 0.17937 0.21459 0.31926 0.0
C440 C 0.14581 0.20124 0.31542 0.0
C441 C 0.12658 0.20816 0.329 0.0
C442 C 0.14086 0.22838 0.34649 0.0
C443 C 0.17442 0.24182 0.35039 0.0
H444 H 0.1006 0.1978 0.326 0.0
H445 H 0.42639 0.33073 0.36454 0.0
H446 H 0.90291 0.27032 0.61393 0.0
H447 H 0.93217 0.28338 0.64753 0.0
H448 H 0.97751 0.22673 0.6295 0.0
H449 H 0.94771 0.21291 0.59601 0.0
H450 H 0.95783 0.21578 0.67059 0.0
H451 H 0.02043 0.3085 0.62589 0.0
H452 H 0.02938 0.35327 0.60165 0.0
H453 H -0.00203 0.39586 0.64981 0.0
H454 H 0.98836 0.35104 0.67426 0.0
H455 H 0.10253 0.34043 0.74211 0.0
H456 H 0.07501 0.3236 0.70795 0.0
H457 H 0.98244 0.26377 0.73954 0.0
H458 H 0.00979 0.28048 0.77373 0.0
H459 H 0.02916 0.33239 0.6903 0.0
H460 H 0.93349 0.19744 0.70955 0.0
H461 H 0.92804 0.15257 0.73249 0.0
H462 H 0.03279 0.19438 0.73284 0.0
H463 H 0.03884 0.23924 0.70969 0.0
C464 C 0.91875 0.26025 0.61718 0.0
C465 C 0.92297 0.24062 0.60215 0.0
C466 C 0.93571 0.26799 0.63636 0.0
C467 C 0.95735 0.25635 0.64097 0.0
C468 C 0.96104 0.23609 0.62627 0.0
C469 C 0.94417 0.22844 0.60702 0.0
C470 C 0.97657 0.26589 0.66095 0.0
C471 C 0.9734 0.24127 0.67492 0.0
C472 C -0.00257 0.29914 0.66645 0.0
C473 C 0.0034 0.32625 0.65184 0.0
C474 C 0.0152 0.32728 0.63126 0.0
C475 C 0.02043 0.35268 0.61749 0.0
C476 C 0.01418 0.37735 0.62417 0.0
C477 C 0.00277 0.37671 0.64466 0.0
C478 C -0.00255 0.35133 0.65848 0.0
C479 C 0.07632 0.32376 0.74184 0.0
C480 C 0.05846 0.31174 0.76076 0.0
C481 C 0.06059 0.3141 0.72225 0.0
C482 C 0.02667 0.29214 0.72109 0.0
C483 C 0.00874 0.28021 0.73995 0.0
C484 C 0.02445 0.28977 0.75954 0.0
C485 C 0.00996 0.28229 0.7002 0.0
C486 C 0.01358 0.30688 0.68603 0.0
C487 C 0.98999 0.24901 0.69437 0.0
C488 C 0.9866 0.22186 0.70804 0.0
C489 C 0.95534 0.19697 0.71445 0.0
C490 C 0.95216 0.17156 0.72751 0.0
C491 C 0.98006 0.17068 0.73417 0.0
C492 C 0.01121 0.19515 0.72773 0.0
C493 C 0.01453 0.2206 0.71466 0.0
H494 H 0.97754 0.151 0.7443 0.0
H495 H 0.01824 0.397 0.61348 0.0
H496 H 0.6724 0.89135 0.95203 0.0
H497 H 0.68838 0.91875 0.98624 0.0
H498 H 0.73176 0.01278 0.95511 0.0
H499 H 0.71596 0.98548 0.92082 0.0
H500 H 0.77019 0.01428 0.98657 0.0
H501 H 0.65597 0.9794 0.97887 0.0
H502 H 0.59752 0.94016 0.97228 0.0
H503 H 0.5952 0.88292 0.02581 0.0
H504 H 0.6538 0.9216 0.03254 0.0
H505 H 0.77553 0.10799 0.07674 0.0
H506 H 0.76429 0.08104 0.04229 0.0
H507 H 0.72505 0.9871 0.07311 0.0
H508 H 0.73554 0.01389 0.10757 0.0
H509 H 0.6851 0.98587 0.04182 0.0
H510 H 0.79988 0.0224 0.04972 0.0
H511 H 0.85804 0.06276 0.05621 0.0
H512 H 0.85891 0.11837 1.00216 0.0
H513 H 0.80058 0.07856 0.99551 0.0
C514 C 0.68524 0.91785 0.95245 0.0
C515 C 0.69267 0.93617 0.93365 0.0
C516 C 0.6944 0.93351 0.97204 0.0
C517 C 0.71084 0.96787 0.97332 0.0
C518 C 0.71909 0.98626 0.95456 0.0
C519 C 0.71009 0.9706 0.93493 0.0
C520 C 0.71886 0.98453 0.99422 0.0
C521 C 0.75151 0.00835 0.99855 0.0
C522 C 0.69463 0.97646 1.01004 0.0
C523 C 0.65936 0.95322 1.00608 0.0
C524 C 0.64306 0.95831 0.98914 0.0
C525 C 0.60989 0.93619 0.98539 0.0
C526 C 0.59268 0.90902 0.99858 0.0
C527 C 0.60858 0.90396 0.01558 0.0
C528 C 0.64176 0.92598 0.01938 0.0
C529 C 0.76449 0.08161 0.07618 0.0
C530 C 0.75656 0.06309 0.09492 0.0
C531 C 0.75832 0.06625 0.05647 0.0
C532 C 0.74407 0.03205 0.05509 0.0
C533 C 0.73617 0.01352 0.07377 0.0
C534 C 0.74248 0.02888 0.09347 0.0
C535 C 0.73643 0.01547 0.0342 0.0
C536 C 0.70381 0.99173 0.02985 0.0
C537 C 0.76064 0.02378 0.01835 0.0
C538 C 0.79576 0.04766 0.02225 0.0
C539 C 0.81239 0.04337 0.03932 0.0
C540 C 0.84541 0.06613 0.04301 0.0
C541 C 0.86214 0.09316 0.02964 0.0
C542 C 0.84591 0.09744 1.01251 0.0
C543 C 0.81288 0.07477 1.00877 0.0
H544 H 0.88769 0.11075 0.03252 0.0
H545 H 0.567 0.89193 0.99566 0.0
H546 H 0.79365 0.67698 0.28696 0.0
H547 H 0.78103 0.69213 0.3211 0.0
H548 H 0.71824 0.72214 0.29056 0.0
H549 H 0.73047 0.70675 0.25631 0.0
H550 H 0.75572 0.76579 0.32056 0.0
H551 H 0.68573 0.64924 0.31641 0.0
H552 H 0.6726 0.59205 0.31126 0.0
H553 H 0.73427 0.60042 0.36362 0.0
H554 H 0.74814 0.65785 0.3689 0.0
H555 H 0.66888 0.76961 0.41164 0.0
H556 H 0.68496 0.75818 0.37745 0.0
H557 H 0.74482 0.72504 0.4086 0.0
H558 H 0.72788 0.7353 0.44294 0.0
H559 H 0.70961 0.68355 0.37827 0.0
H560 H 0.77882 0.79997 0.3829 0.0
H561 H 0.79167 0.85707 0.38807 0.0
H562 H 0.73145 0.84907 0.33495 0.0
H563 H 0.71785 0.79174 0.32963 0.0
C564 C 0.77695 0.68656 0.28744 0.0
C565 C 0.76292 0.69032 0.26876 0.0
C566 C 0.76982 0.69531 0.30703 0.0
C567 C 0.74832 0.7079 0.30849 0.0
C568 C 0.73489 0.71248 0.28986 0.0
C569 C 0.74201 0.70372 0.27023 0.0
C570 C 0.73957 0.71585 0.32945 0.0
C571 C 0.74525 0.74769 0.3331 0.0
C572 C 0.72659 0.6925 0.34602 0.0
C573 C 0.71823 0.65795 0.34291 0.0
C574 C 0.6967 0.63897 0.32672 0.0
C575 C 0.68909 0.6065 0.3238 0.0
C576 C 0.70267 0.59264 0.33707 0.0
C577 C 0.72381 0.61121 0.35333 0.0
C578 C 0.73154 0.64371 0.35631 0.0
C579 C 0.68537 0.75979 0.4113 0.0
C580 C 0.69704 0.75342 0.43017 0.0
C581 C 0.69485 0.75357 0.39166 0.0
C582 C 0.71643 0.74106 0.39036 0.0
C583 C 0.72824 0.7348 0.40914 0.0
C584 C 0.71875 0.74098 0.42881 0.0
C585 C 0.72583 0.73355 0.36945 0.0
C586 C 0.72019 0.70172 0.36579 0.0
C587 C 0.73884 0.75693 0.35289 0.0
C588 C 0.74707 0.79145 0.356 0.0
C589 C 0.76811 0.8103 0.37242 0.0
C590 C 0.77556 0.84272 0.37536 0.0
C591 C 0.76232 0.85666 0.36188 0.0
C592 C 0.74166 0.83823 0.34539 0.0
C593 C 0.73409 0.80577 0.3424 0.0
H594 H 0.76812 0.88177 0.36418 0.0
H595 H 0.69674 0.56749 0.33479 0.0
H596 H 0.01988 0.71254 0.59275 0.0
H597 H 0.99231 0.70079 0.62708 0.0
H598 H 0.07984 0.7799 0.65483 0.0
H599 H 0.10798 0.79 0.62067 0.0
H600 H 0.057 0.73394 0.68113 0.0
H601 H 0.005 0.78265 0.64162 0.0
H602 H 0.97582 0.78891 0.6112 0.0
H603 H 0.8949 0.6919 0.62163 0.0
H604 H 0.92379 0.68485 0.65191 0.0
H605 H 0.97194 0.73036 0.77643 0.0
H606 H 0.00253 0.74768 0.7431 0.0
H607 H 0.92484 0.66311 0.71208 0.0
H608 H 0.89432 0.64574 0.74516 0.0
H609 H 0.94416 0.71629 0.68829 0.0
H610 H -0.00156 0.66769 0.72683 0.0
H611 H 0.02801 0.66219 0.75731 0.0
H612 H 0.10515 0.76173 0.74898 0.0
H613 H 0.07579 0.76796 0.71864 0.0
C614 C 0.03305 0.72746 0.6062 0.0
C615 C 0.06594 0.75226 0.60408 0.0
C616 C 0.01726 0.72093 0.62584 0.0
C617 C 0.03357 0.73994 0.64366 0.0
C618 C 0.06653 0.76483 0.64145 0.0
C619 C 0.08262 0.77071 0.62193 0.0
C620 C 0.01659 0.73342 0.66463 0.0
C621 C 0.03255 0.73069 0.68267 0.0
C622 C 0.98441 0.72863 0.66687 0.0
C623 C 0.96668 0.73316 0.64895 0.0
C624 C 0.98103 0.76261 0.63737 0.0
C625 C 0.96454 0.76629 0.62015 0.0
C626 C 0.93355 0.74078 0.61447 0.0
C627 C 0.91892 0.71161 0.62604 0.0
C628 C 0.93532 0.70778 0.64325 0.0
C629 C 0.96148 0.71531 0.76256 0.0
C630 C 0.93054 0.68664 0.76356 0.0
C631 C 0.979 0.72528 0.74347 0.0
C632 C 0.96612 0.70661 0.72501 0.0
C633 C 0.93527 0.67807 0.72601 0.0
C634 C 0.91775 0.66818 0.74501 0.0
C635 C 0.98447 0.71652 0.70457 0.0
C636 C 0.96875 0.71991 0.68668 0.0
C637 C 0.01694 0.72224 0.70252 0.0
C638 C 0.03477 0.71837 0.7206 0.0
C639 C 0.02161 0.68846 0.73159 0.0
C640 C 0.03834 0.68521 0.74883 0.0
C641 C 0.06839 0.71163 0.75511 0.0
C642 C 0.08185 0.7413 0.74411 0.0
C643 C 0.06518 0.7447 0.72689 0.0
H644 H 0.08129 0.70908 0.76848 0.0
H645 H 0.92081 0.7436 0.60113 0.0
H646 H 0.35932 0.08942 0.9477 0.0
H647 H 0.34338 0.06269 0.9822 0.0
H648 H 0.24142 0.0254 0.96708 0.0
H649 H 0.25726 0.05248 0.93247 0.0
H650 H 0.25736 0.04979 1.00878 0.0
H651 H 0.2697 0.97516 0.96341 0.0
H652 H 0.2982 0.95871 0.93765 0.0
H653 H 0.37666 0.98428 0.9817 0.0
H654 H 0.34883 0.00135 1.00764 0.0
H655 H 0.22557 0.89984 0.07966 0.0
H656 H 0.23514 0.92789 0.04585 0.0
H657 H 0.28157 0.02117 0.07768 0.0
H658 H 0.27192 0.99306 0.1118 0.0
H659 H 0.29017 0.96746 0.02678 0.0
H660 H 0.27156 0.07744 0.04655 0.0
H661 H 0.23994 0.09151 0.07134 0.0
H662 H 0.16719 0.9898 0.0772 0.0
H663 H 0.19802 0.97516 0.05214 0.0
C664 C 0.33351 0.07588 0.95175 0.0
C665 C 0.3096 0.07313 0.93724 0.0
C666 C 0.32442 0.06044 0.97147 0.0
C667 C 0.2912 0.04192 0.97723 0.0
C668 C 0.26721 0.0396 0.963 0.0
C669 C 0.2763 0.05485 0.94313 0.0
C670 C 0.2817 0.02407 0.99779 0.0
C671 C 0.26452 0.03179 1.01277 0.0
C672 C 0.29063 0.00026 1.00288 0.0
C673 C 0.30733 0.98982 0.98739 0.0
C674 C 0.29316 0.97752 0.96755 0.0
C675 C 0.30917 0.96804 0.95292 0.0
C676 C 0.33926 0.97053 0.95802 0.0
C677 C 0.35336 0.98241 0.97777 0.0
C678 C 0.33747 0.99197 0.99245 0.0
C679 C 0.23791 0.92632 0.07956 0.0
C680 C 0.24822 0.94414 0.09853 0.0
C681 C 0.24329 0.94238 0.06014 0.0
C682 C 0.25906 0.97671 0.05909 0.0
C683 C 0.26896 0.99466 0.07802 0.0
C684 C 0.26343 0.97855 0.09755 0.0
C685 C 0.26611 0.99338 0.03808 0.0
C686 C 0.28298 0.98548 0.02294 0.0
C687 C 0.25646 0.01667 0.03281 0.0
C688 C 0.23737 0.02519 0.04765 0.0
C689 C 0.24872 0.05808 0.05303 0.0
C690 C 0.23091 0.06617 0.06711 0.0
C691 C 0.20163 0.04156 0.07589 0.0
C692 C 0.18996 0.00883 0.07047 0.0
C693 C 0.20761 0.00063 0.05633 0.0
H694 H 0.18796 0.04786 0.08687 0.0
H695 H 0.35162 0.96317 0.94667 0.0
H696 H 0.10817 0.33981 0.92939 0.0
H697 H 0.12716 0.35018 0.96616 0.0
H698 H 0.12366 0.25683 0.96818 0.0
H699 H 0.10453 0.24636 0.93182 0.0
H700 H 0.09577 0.26368 1.0022 0.0
H701 H 0.19685 0.33184 0.96388 0.0
H702 H 0.23277 0.37606 0.93932 0.0
H703 H 0.22295 0.44618 0.97738 0.0
H704 H 0.18662 0.40226 1.00204 0.0
H705 H 0.21017 0.27456 0.07768 0.0
H706 H 0.18985 0.28107 0.04376 0.0
H707 H 0.15929 0.34473 0.07216 0.0
H708 H 0.17842 0.33724 0.10675 0.0
H709 H 0.19986 0.3599 0.02567 0.0
H710 H 0.10014 0.29017 0.06524 0.0
H711 H 0.06634 0.2448 0.0897 0.0
H712 H 0.07568 0.17715 0.04879 0.0
H713 H 0.10987 0.22224 0.02421 0.0
C714 C 0.1118 0.32171 0.93764 0.0
C715 C 0.10462 0.29217 0.92768 0.0
C716 C 0.12262 0.32763 0.95867 0.0
C717 C 0.12686 0.30428 0.97002 0.0
C718 C 0.12027 0.27511 0.9599 0.0
C719 C 0.10929 0.26912 0.93905 0.0
C720 C 0.13757 0.30945 0.99252 0.0
C721 C 0.11849 0.28484 1.00725 0.0
C722 C 0.16682 0.33737 0.99942 0.0
C723 C 0.18872 0.36373 0.98465 0.0
C724 C 0.20215 0.35665 0.96692 0.0
C725 C 0.22262 0.38166 0.953 0.0
C726 C 0.23005 0.41389 0.95675 0.0
C727 C 0.21712 0.42119 0.97447 0.0
C728 C 0.1966 0.39626 0.98843 0.0
C729 C 0.199 0.28984 0.0769 0.0
C730 C 0.19541 0.30482 0.09517 0.0
C731 C 0.18769 0.29378 0.05739 0.0
C732 C 0.17295 0.3132 0.0555 0.0
C733 C 0.17068 0.32965 0.07335 0.0
C734 C 0.18171 0.32539 0.09309 0.0
C735 C 0.15822 0.31399 0.03498 0.0
C736 C 0.17666 0.33937 0.02063 0.0
C737 C 0.12842 0.2868 0.02833 0.0
C738 C 0.1078 0.25961 0.04301 0.0
C739 C 0.09524 0.26567 0.06157 0.0
C740 C 0.07595 0.24 0.07543 0.0
C741 C 0.06895 0.20813 0.07083 0.0
C742 C 0.08115 0.20186 0.05234 0.0
C743 C 0.10044 0.22745 0.03843 0.0
H744 H 0.054 0.18828 0.08157 0.0
H745 H 0.2459 0.43322 0.94595 0.0
H746 H 0.77354 0.11171 0.26377 0.0
H747 H 0.78102 0.12925 0.30088 0.0
H748 H 0.86632 0.11755 0.30468 0.0
H749 H 0.85909 0.10031 0.26796 0.0
H750 H 0.82628 0.08828 0.33728 0.0
H751 H 0.87201 0.19336 0.30164 0.0
H752 H 0.87023 0.23381 0.27769 0.0
H753 H 0.79153 0.2308 0.31408 0.0
H754 H 0.79258 0.18999 0.33811 0.0
H755 H 0.92434 0.1778 0.42111 0.0
H756 H 0.90222 0.16315 0.3856 0.0
H757 H 0.81512 0.16481 0.40517 0.0
H758 H 0.83682 0.17867 0.44131 0.0
H759 H 0.84426 0.19554 0.363 0.0
H760 H 0.80347 0.09466 0.40109 0.0
H761 H 0.8076 0.05576 0.42531 0.0
H762 H 0.87816 0.05161 0.38413 0.0
H763 H 0.87475 0.09078 0.35979 0.0
C764 C 0.79408 0.11328 0.27248 0.0
C765 C 0.81549 0.10423 0.26294 0.0
C766 C 0.7983 0.12325 0.2937 0.0
C767 C 0.82418 0.12459 0.30564 0.0
C768 C 0.84595 0.11635 0.29592 0.0
C769 C 0.84172 0.10638 0.27488 0.0
C770 C 0.82859 0.13362 0.32842 0.0
C771 C 0.83023 0.11177 0.34284 0.0
C772 C 0.83269 0.1638 0.33592 0.0
C773 C 0.83209 0.18833 0.3215 0.0
C774 C 0.85414 0.20111 0.30442 0.0
C775 C 0.8533 0.22414 0.29086 0.0
C776 C 0.8307 0.23478 0.29432 0.0
C777 C 0.80896 0.22248 0.31139 0.0
C778 C 0.80968 0.19941 0.32499 0.0
C779 C 0.9004 0.17493 0.41804 0.0
C780 C 0.88213 0.17881 0.43428 0.0
C781 C 0.8879 0.1668 0.39762 0.0
C782 C 0.8569 0.16253 0.39281 0.0
C783 C 0.83912 0.16797 0.4086 0.0
C784 C 0.85158 0.17594 0.42922 0.0
C785 C 0.84296 0.1506 0.3715 0.0
C786 C 0.83954 0.17179 0.35744 0.0
C787 C 0.83722 0.11979 0.36424 0.0
C788 C 0.839 0.09584 0.37868 0.0
C789 C 0.82002 0.08561 0.39727 0.0
C790 C 0.8222 0.06348 0.411 0.0
C791 C 0.8432 0.0513 0.40628 0.0
C792 C 0.86192 0.06109 0.38777 0.0
C793 C 0.85983 0.0832 0.37398 0.0
H794 H 0.84497 0.03428 0.41696 0.0
H795 H 0.83009 0.25262 0.2838 0.0
H796 H 0.64666 0.86814 0.76594 0.0
H797 H 0.64151 0.84472 0.73049 0.0
H798 H 0.7468 0.89944 0.72329 0.0
H799 H 0.75202 0.92243 0.75841 0.0
H800 H 0.71635 0.90804 0.6898 0.0
H801 H 0.70694 0.81763 0.73151 0.0
H802 H 0.68238 0.77438 0.7587 0.0
H803 H 0.59012 0.73064 0.72611 0.0
H804 H 0.61405 0.77385 0.69882 0.0
H805 H 0.76168 0.84515 0.60589 0.0
H806 H 0.75125 0.85886 0.64079 0.0
H807 H 0.64711 0.79658 0.63173 0.0
H808 H 0.65749 0.78126 0.59665 0.0
H809 H 0.66693 0.79022 0.67197 0.0
H810 H 0.68064 0.87883 0.6275 0.0
H811 H 0.70858 0.92092 0.59993 0.0
H812 H 0.79531 0.96827 0.63815 0.0
H813 H 0.76809 0.92629 0.66583 0.0
C814 C 0.66865 0.87473 0.75687 0.0
C815 C 0.69969 0.89755 0.76486 0.0
C816 C 0.6657 0.86142 0.73662 0.0
C817 C 0.69378 0.87057 0.72414 0.0
C818 C 0.72476 0.89237 0.73248 0.0
C819 C 0.7277 0.90561 0.75257 0.0
C820 C 0.69139 0.85878 0.70207 0.0
C821 C 0.70559 0.88226 0.68594 0.0
C822 C 0.67652 0.82513 0.69688 0.0
C823 C 0.66215 0.79919 0.71327 0.0
C824 C 0.68133 0.79896 0.73024 0.0
C825 C 0.66755 0.77443 0.74565 0.0
C826 C 0.63468 0.74987 0.74418 0.0
C827 C 0.61556 0.74973 0.72725 0.0
C828 C 0.62921 0.77421 0.7118 0.0
C829 C 0.73649 0.83383 0.61123 0.0
C830 C 0.71045 0.81188 0.59829 0.0
C831 C 0.73055 0.84207 0.63123 0.0
C832 C 0.69837 0.82919 0.63881 0.0
C833 C 0.67216 0.80698 0.62616 0.0
C834 C 0.67812 0.79848 0.60603 0.0
C835 C 0.69279 0.83958 0.65988 0.0
C836 C 0.67705 0.81593 0.67578 0.0
C837 C 0.70642 0.87317 0.66496 0.0
C838 C 0.72235 0.89928 0.6487 0.0
C839 C 0.70569 0.89819 0.63001 0.0
C840 C 0.72141 0.92201 0.61435 0.0
C841 C 0.75374 0.94714 0.61726 0.0
C842 C 0.77029 0.94874 0.63592 0.0
C843 C 0.7547 0.92499 0.65161 0.0
H844 H 0.76603 0.96535 0.60505 0.0
H845 H 0.62406 0.73089 0.75612 0.0
H846 H 0.9322 0.68488 0.95102 0.0
H847 H 0.91051 0.68766 0.98547 0.0
H848 H 0.81797 0.66376 0.9569 0.0
H849 H 0.83949 0.66075 0.92226 0.0
H850 H 0.83541 0.71147 0.98568 0.0
H851 H 0.82772 0.60601 0.98425 0.0
H852 H 0.848 0.5671 0.97964 0.0
H853 H 0.91751 0.61411 0.02963 0.0
H854 H 0.89795 0.65361 0.03434 0.0
H855 H 0.74159 0.6693 0.08032 0.0
H856 H 0.76368 0.66848 0.0456 0.0
H857 H 0.85615 0.69159 0.0739 0.0
H858 H 0.83432 0.69276 0.10879 0.0
H859 H 0.83872 0.64445 0.04518 0.0
H860 H 0.84591 0.74955 0.04694 0.0
H861 H 0.8256 0.78844 0.05153 0.0
H862 H 0.7571 0.74229 1.00092 0.0
H863 H 0.77664 0.70277 0.99624 0.0
C864 C 0.90713 0.67991 0.95199 0.0
C865 C 0.88755 0.67219 0.93376 0.0
C866 C 0.89475 0.68158 0.97178 0.0
C867 C 0.86237 0.67534 0.97392 0.0
C868 C 0.84299 0.66855 0.9557 0.0
C869 C 0.8554 0.66692 0.93585 0.0
C870 C 0.84878 0.67573 0.99518 0.0
C871 C 0.83571 0.69646 0.99861 0.0
C872 C 0.84984 0.65676 1.01225 0.0
C873 C 0.86158 0.63297 1.0095 0.0
C874 C 0.8475 0.60821 0.99415 0.0
C875 C 0.85884 0.58602 0.99154 0.0
C876 C 0.88409 0.58818 1.0043 0.0
C877 C 0.89799 0.61249 0.01974 0.0
C878 C 0.88677 0.63477 0.02239 0.0
C879 C 0.76675 0.67459 0.07922 0.0
C880 C 0.78614 0.68129 0.09748 0.0
C881 C 0.77937 0.67407 0.05928 0.0
C882 C 0.8118 0.68047 0.05701 0.0
C883 C 0.83111 0.68668 0.07521 0.0
C884 C 0.81849 0.6872 0.0952 0.0
C885 C 0.82535 0.68022 0.03572 0.0
C886 C 0.83842 0.65949 0.03227 0.0
C887 C 0.82427 0.69919 0.01864 0.0
C888 C 0.8125 0.72296 0.0214 0.0
C889 C 0.82631 0.7475 0.03691 0.0
C890 C 0.81497 0.76969 0.03951 0.0
C891 C 0.79001 0.76777 0.02656 0.0
C892 C 0.77639 0.74371 1.01096 0.0
C893 C 0.7876 0.72142 1.00832 0.0
H894 H 0.78127 0.78499 0.02859 0.0
H895 H 0.89283 0.57097 1.00225 0.0
H896 H 0.15789 0.8251 0.44444 0.0
H897 H 0.18027 0.83948 0.40835 0.0
H898 H 0.08195 0.79739 0.38371 0.0
H899 H 0.05977 0.78289 0.41945 0.0
H900 H 0.11762 0.78069 0.35948 0.0
H901 H 0.1285 0.87809 0.38996 0.0
H902 H 0.14607 0.92478 0.41419 0.0
H903 H 0.24705 0.95693 0.39995 0.0
H904 H 0.2301 0.90997 0.37593 0.0
H905 H 0.13312 0.87129 0.26522 0.0
H906 H 0.12244 0.8494 0.30129 0.0
H907 H 0.2228 0.871 0.30633 0.0
H908 H 0.23321 0.89198 0.26973 0.0
H909 H 0.19359 0.89683 0.34048 0.0
H910 H 0.17755 0.7991 0.30559 0.0
H911 H 0.15451 0.75678 0.27792 0.0
H912 H 0.05685 0.72879 0.29852 0.0
H913 H 0.07931 0.77132 0.32614 0.0
C914 C 0.14116 0.81857 0.43125 0.0
C915 C 0.10709 0.80307 0.43478 0.0
C916 C 0.15393 0.82701 0.41067 0.0
C917 C 0.13281 0.81978 0.39328 0.0
C918 C 0.09879 0.80328 0.39681 0.0
C919 C 0.08612 0.79519 0.41728 0.0
C920 C 0.14572 0.82997 0.37139 0.0
C921 C 0.13431 0.8061 0.3554 0.0
C922 C 0.16769 0.86311 0.36594 0.0
C923 C 0.17803 0.89019 0.38138 0.0
C924 C 0.15448 0.89477 0.39225 0.0
C925 C 0.16431 0.92142 0.40584 0.0
C926 C 0.19765 0.94391 0.40851 0.0
C927 C 0.22123 0.93957 0.39778 0.0
C928 C 0.21152 0.91288 0.38424 0.0
C929 C 0.15271 0.87089 0.27393 0.0
C930 C 0.18392 0.88318 0.26475 0.0
C931 C 0.14664 0.85844 0.2945 0.0
C932 C 0.17185 0.85866 0.30647 0.0
C933 C 0.20303 0.8706 0.2973 0.0
C934 C 0.2089 0.88235 0.27645 0.0
C935 C 0.16548 0.8476 0.32882 0.0
C936 C 0.17777 0.87133 0.34479 0.0
C937 C 0.14375 0.81453 0.3342 0.0
C938 C 0.13013 0.78855 0.31785 0.0
C939 C 0.15115 0.78408 0.30413 0.0
C940 C 0.1382 0.76002 0.28848 0.0
C941 C 0.10424 0.74011 0.28647 0.0
C942 C 0.08315 0.74419 0.30014 0.0
C943 C 0.09599 0.76825 0.3158 0.0
H944 H 0.09425 0.72153 0.27432 0.0
H945 H 0.20521 0.96454 0.41903 0.0
H946 H 0.33472 0.11434 0.76566 0.0
H947 H 0.34297 0.13026 0.72811 0.0
H948 H 0.25745 0.14186 0.73003 0.0
H949 H 0.24911 0.12575 0.76708 0.0
H950 H 0.25358 0.10555 0.6977 0.0
H951 H 0.33788 0.20776 0.72727 0.0
H952 H 0.38803 0.24277 0.74765 0.0
H953 H 0.44359 0.21539 0.70695 0.0
H954 H 0.39363 0.17986 0.68649 0.0
H955 H 0.25612 0.19523 0.61029 0.0
H956 H 0.26305 0.18041 0.64593 0.0
H957 H 0.33941 0.16204 0.62412 0.0
H958 H 0.33221 0.17661 0.5879 0.0
H959 H 0.35304 0.19623 0.66426 0.0
H960 H 0.26851 0.0955 0.63411 0.0
H961 H 0.21804 0.06141 0.61361 0.0
H962 H 0.16309 0.08717 0.65599 0.0
H963 H 0.21325 0.12153 0.67661 0.0
C964 C 0.31807 0.12079 0.75806 0.0
C965 C 0.29103 0.1184 0.76923 0.0
C966 C 0.32275 0.12987 0.73662 0.0
C967 C 0.30071 0.13713 0.72611 0.0
C968 C 0.27458 0.13601 0.73761 0.0
C969 C 0.26978 0.12674 0.75882 0.0
C970 C 0.30325 0.14424 0.70298 0.0
C971 C 0.27536 0.12552 0.6905 0.0
C972 C 0.33196 0.16951 0.69324 0.0
C973 C 0.36195 0.19084 0.70552 0.0
C974 C 0.36073 0.20898 0.72279 0.0
C975 C 0.38913 0.22896 0.73433 0.0
C976 C 0.41896 0.23121 0.72865 0.0
C977 C 0.42045 0.21356 0.71137 0.0
C978 C 0.39211 0.19351 0.69979 0.0
C979 C 0.27432 0.18791 0.61293 0.0
C980 C 0.2932 0.18659 0.59608 0.0
C981 C 0.27836 0.17956 0.6334 0.0
C982 C 0.30136 0.16958 0.63768 0.0
C983 C 0.32142 0.16959 0.62116 0.0
C984 C 0.31735 0.17799 0.60049 0.0
C985 C 0.30304 0.1582 0.65938 0.0
C986 C 0.33157 0.17596 0.6715 0.0
C987 C 0.27492 0.13208 0.66894 0.0
C988 C 0.24465 0.11128 0.65673 0.0
C989 C 0.24569 0.09408 0.63889 0.0
C990 C 0.21717 0.07469 0.6273 0.0
C991 C 0.18744 0.07228 0.63343 0.0
C992 C 0.18615 0.08911 0.65124 0.0
C993 C 0.21459 0.10847 0.66291 0.0
H994 H 0.16539 0.05728 0.62443 0.0
H995 H 0.44092 0.2467 0.7376 0.0
H996 H 0.62671 0.53651 0.20611 0.0
H997 H 0.56853 0.50045 0.19921 0.0
H998 H 0.58648 0.51688 0.13223 0.0
H999 H 0.64493 0.55405 0.1392 0.0
H1000 H 0.53901 0.52785 0.14346 0.0
H1001 H 0.55866 0.43985 0.15402 0.0
H1002 H 0.5807 0.40752 0.17076 0.0
H1003 H 0.52517 0.39746 0.22697 0.0
H1004 H 0.50314 0.43013 0.21071 0.0
H1005 H 0.36176 0.41129 0.1363 0.0
H1006 H 0.42149 0.43952 0.13108 0.0
H1007 H 0.43571 0.45648 0.1981 0.0
H1008 H 0.37641 0.42938 0.20338 0.0
H1009 H 0.46618 0.42206 0.17917 0.0
H1010 H 0.45437 0.51831 0.16881 0.0
H1011 H 0.43231 0.54981 0.15091 0.0
H1012 H 0.47298 0.54148 0.09201 0.0
H1013 H 0.4949 0.50951 0.10953 0.0
C1014 C 0.61838 0.53182 0.18988 0.0
C1015 C 0.64028 0.54818 0.17321 0.0
C1016 C 0.58511 0.51102 0.18592 0.0
C1017 C 0.57307 0.50579 0.16517 0.0
C1018 C 0.59523 0.52053 0.14835 0.0
C1019 C 0.62865 0.54147 0.15234 0.0
C1020 C 0.53706 0.488 0.16155 0.0
C1021 C 0.52312 0.50428 0.15081 0.0
C1022 C 0.51622 0.45737 0.17123 0.0
C1023 C 0.52935 0.43761 0.18114 0.0
C1024 C 0.55131 0.43094 0.17001 0.0
C1025 C 0.56378 0.41252 0.17941 0.0
C1026 C 0.55437 0.40047 0.19992 0.0
C1027 C 0.53242 0.40679 0.21107 0.0
C1028 C 0.51988 0.42522 0.20175 0.0
C1029 C 0.37765 0.42194 0.14982 0.0
C1030 C 0.36438 0.41777 0.17029 0.0
C1031 C 0.41171 0.43779 0.14683 0.0
C1032 C 0.43284 0.44956 0.16426 0.0
C1033 C 0.41971 0.44713 0.1845 0.0
C1034 C 0.38584 0.43166 0.18747 0.0
C1035 C 0.46854 0.46257 0.16187 0.0
C1036 C 0.48224 0.44525 0.17144 0.0
C1037 C 0.48906 0.49196 0.1509 0.0
C1038 C 0.47587 0.51114 0.14041 0.0
C1039 C 0.4583 0.52289 0.152 0.0
C1040 C 0.4459 0.54091 0.14194 0.0
C1041 C 0.45113 0.54754 0.12032 0.0
C1042 C 0.46887 0.53625 0.10874 0.0
C1043 C 0.4813 0.5182 0.11873 0.0
H1044 H 0.44153 0.5615 0.11256 0.0
H1045 H 0.56406 0.38621 0.20718 0.0
H1046 H 0.89885 0.35457 0.48749 0.0
H1047 H 0.9235 0.41421 0.48518 0.0
H1048 H 0.01932 0.42548 0.49557 0.0
H1049 H 0.995 0.36622 0.49813 0.0
H1050 H 0.95683 0.46034 0.51424 0.0
H1051 H 0.07682 0.49236 0.46906 0.0
H1052 H 0.09597 0.46805 0.44196 0.0
H1053 H -0.00218 0.41196 0.41801 0.0
H1054 H 0.97817 0.43626 0.44477 0.0
H1055 H 0.07194 0.62679 0.52932 0.0
H1056 H 0.04904 0.56763 0.52594 0.0
H1057 H 0.02788 0.5731 0.46031 0.0
H1058 H 0.05155 0.63248 0.46342 0.0
H1059 H 0.04965 0.52986 0.46634 0.0
H1060 H 0.96842 0.5513 0.49617 0.0
H1061 H 0.94684 0.57575 0.52149 0.0
H1062 H 0.96186 0.52437 0.57245 0.0
H1063 H 0.98401 0.5 0.54745 0.0
C1064 C 0.92516 0.36974 0.48927 0.0
C1065 C 0.94493 0.35551 0.49286 0.0
C1066 C 0.93922 0.40382 0.4879 0.0
C1067 C 0.9733 0.42431 0.48998 0.0
C1068 C 0.99306 0.41018 0.49349 0.0
C1069 C 0.97908 0.3762 0.49487 0.0
C1070 C 0.9882 0.46053 0.48932 0.0
C1071 C 0.97706 0.4755 0.50372 0.0
C1072 C 0.01434 0.48036 0.47541 0.0
C1073 C 0.026 0.46593 0.45906 0.0
C1074 C 0.05935 0.47495 0.45795 0.0
C1075 C 0.07029 0.46115 0.44266 0.0
C1076 C 0.04811 0.4384 0.42832 0.0
C1077 C 0.01496 0.42949 0.42919 0.0
C1078 C 0.0039 0.44324 0.44443 0.0
C1079 C 0.06314 0.61556 0.51403 0.0
C1080 C 0.06337 0.63434 0.49667 0.0
C1081 C 0.04975 0.58168 0.51218 0.0
C1082 C 0.03623 0.56588 0.49297 0.0
C1083 C 0.03799 0.58475 0.47531 0.0
C1084 C 0.05134 0.61865 0.47716 0.0
C1085 C 0.01875 0.52958 0.49159 0.0
C1086 C 0.02939 0.51463 0.47682 0.0
C1087 C 0.99178 0.50972 0.50492 0.0
C1088 C 0.97813 0.52405 0.51996 0.0
C1089 C 0.96732 0.54539 0.51279 0.0
C1090 C 0.95497 0.55921 0.52709 0.0
C1091 C 0.95304 0.55167 0.54857 0.0
C1092 C 0.96339 0.53021 0.5558 0.0
C1093 C 0.97583 0.51637 0.54158 0.0
H1094 H 0.94348 0.5624 0.55962 0.0
H1095 H 0.05662 0.42773 0.4165 0.0
H1096 H 0.38316 0.02656 0.79712 0.0
H1097 H 0.41644 -0.00025 0.79458 0.0
H1098 H 0.44552 0.02421 0.85963 0.0
H1099 H 0.41315 0.05156 0.86202 0.0
H1100 H 0.4963 0.03553 0.83818 0.0
H1101 H 0.38572 0.94486 0.84216 0.0
H1102 H 0.32799 0.91108 0.83116 0.0
H1103 H 0.35925 0.89511 0.77075 0.0
H1104 H 0.41721 0.92917 0.78131 0.0
H1105 H 0.54572 0.924 0.86894 0.0
H1106 H 0.50723 0.94387 0.86325 0.0
H1107 H 0.52169 0.94443 0.79602 0.0
H1108 H 0.56142 0.92562 0.80158 0.0
H1109 H 0.45066 0.92073 0.81398 0.0
H1110 H 0.56289 0.01094 0.81263 0.0
H1111 H 0.61927 0.0416 0.82658 0.0
H1112 H 0.58238 0.05574 0.88537 0.0
H1113 H 0.52569 0.02461 0.87189 0.0
C1114 C 0.39667 0.02616 0.81085 0.0
C1115 C 0.39568 0.04137 0.82973 0.0
C1116 C 0.4156 0.01072 0.80942 0.0
C1117 C 0.43336 0.00961 0.82698 0.0
C1118 C 0.4323 0.02483 0.8458 0.0
C1119 C 0.4138 0.04056 0.84714 0.0
C1120 C 0.45341 0.99304 0.82597 0.0
C1121 C 0.4861 0.01038 0.83296 0.0
C1122 C 0.44058 0.96036 0.81879 0.0
C1123 C 0.40578 0.93988 0.81243 0.0
C1124 C 0.38028 0.93436 0.82647 0.0
C1125 C 0.34752 0.91513 0.82032 0.0
C1126 C 0.33996 0.90105 0.80024 0.0
C1127 C 0.36514 0.90609 0.78628 0.0
C1128 C 0.39795 0.92534 0.79234 0.0
C1129 C 0.54059 0.92805 0.8529 0.0
C1130 C 0.55721 0.92381 0.83574 0.0
C1131 C 0.51837 0.93917 0.84969 0.0
C1132 C 0.51189 0.94589 0.82925 0.0
C1133 C 0.52636 0.9393 0.81192 0.0
C1134 C 0.54898 0.92845 0.81514 0.0
C1135 C 0.49297 0.96317 0.82648 0.0
C1136 C 0.46071 0.94602 0.81886 0.0
C1137 C 0.50594 0.99588 0.83334 0.0
C1138 C 0.54004 0.01521 0.84132 0.0
C1139 C 0.56678 0.02037 0.82859 0.0
C1140 C 0.59879 0.03786 0.8364 0.0
C1141 C 0.6044 0.05055 0.85687 0.0
C1142 C 0.578 0.04587 0.86953 0.0
C1143 C 0.54593 0.02832 0.86181 0.0
H1144 H 0.6292 0.06407 0.86289 0.0
H1145 H 0.31458 0.88616 0.79551 0.0
H1146 H 0.45888 0.35304 0.52984 0.0
H1147 H 0.49799 0.41143 0.53556 0.0
H1148 H 0.41729 0.42968 0.5442 0.0
H1149 H 0.37843 0.37177 0.53821 0.0
H1150 H 0.45893 0.47075 0.51639 0.0
H1151 H 0.46747 0.4338 0.58553 0.0
H1152 H 0.47679 0.40015 0.61145 0.0
H1153 H 0.57488 0.43746 0.58793 0.0
H1154 H 0.56599 0.47102 0.56166 0.0
H1155 H 0.55105 0.63768 0.54531 0.0
H1156 H 0.51326 0.57856 0.54765 0.0
H1157 H 0.59354 0.56067 0.53612 0.0
H1158 H 0.63134 0.61953 0.53361 0.0
H1159 H 0.55248 0.51962 0.56632 0.0
H1160 H 0.54315 0.55453 0.49649 0.0
H1161 H 0.53412 0.58816 0.47038 0.0
H1162 H 0.43723 0.55402 0.49517 0.0
H1163 H 0.44588 0.52053 0.52163 0.0
C1164 C 0.44962 0.36949 0.53337 0.0
C1165 C 0.41569 0.35802 0.5334 0.0
C1166 C 0.47192 0.40281 0.53665 0.0
C1167 C 0.46058 0.425 0.54029 0.0
C1168 C 0.42665 0.41314 0.54126 0.0
C1169 C 0.40448 0.38005 0.53785 0.0
C1170 C 0.4837 0.46087 0.54153 0.0
C1171 C 0.47904 0.48142 0.52757 0.0
C1172 C 0.51053 0.47481 0.55569 0.0
C1173 C 0.51594 0.45467 0.57148 0.0
C1174 C 0.49093 0.43462 0.58576 0.0
C1175 C 0.49616 0.41561 0.60054 0.0
C1176 C 0.52638 0.4166 0.6013 0.0
C1177 C 0.55147 0.43668 0.58731 0.0
C1178 C 0.54636 0.45573 0.57248 0.0
C1179 C 0.56066 0.62117 0.54328 0.0
C1180 C 0.59422 0.63339 0.5392 0.0
C1181 C 0.53906 0.5874 0.54469 0.0
C1182 C 0.55054 0.56519 0.54185 0.0
C1183 C 0.58415 0.57733 0.53845 0.0
C1184 C 0.60575 0.61104 0.53707 0.0
C1185 C 0.52737 0.52933 0.54135 0.0
C1186 C 0.53216 0.50884 0.55529 0.0
C1187 C 0.50062 0.51534 0.52716 0.0
C1188 C 0.49529 0.53529 0.51118 0.0
C1189 C 0.52001 0.55439 0.49647 0.0
C1190 C 0.51495 0.5734 0.48159 0.0
C1191 C 0.48516 0.5733 0.48115 0.0
C1192 C 0.46032 0.55412 0.49555 0.0
C1193 C 0.46528 0.5351 0.51048 0.0
H1194 H 0.48128 0.58803 0.46962 0.0
H1195 H 0.53038 0.40186 0.61276 0.0
H1196 H 0.88476 0.51715 0.82481 0.0
H1197 H 0.90362 0.47858 0.83252 0.0
H1198 H 0.90128 0.49591 0.89925 0.0
H1199 H 0.88381 0.53593 0.89145 0.0
H1200 H 0.95796 0.5038 0.88989 0.0
H1201 H 0.8504 0.41846 0.87594 0.0
H1202 H 0.79749 0.38784 0.85743 0.0
H1203 H 0.84663 0.37756 0.80322 0.0
H1204 H 0.89993 0.40853 0.82126 0.0
H1205 H 0.01674 0.3879 0.9033 0.0
H1206 H 0.98146 0.41271 0.90532 0.0
H1207 H 0.99216 0.43042 0.83818 0.0
H1208 H 0.02755 0.40609 0.8361 0.0
H1209 H 0.92512 0.39827 0.8541 0.0
H1210 H 0.03326 0.49192 0.86798 0.0
H1211 H 0.08512 0.52137 0.88778 0.0
H1212 H 0.03137 0.51284 0.94461 0.0
H1213 H 0.97913 0.48291 0.92517 0.0
C1214 C 0.88749 0.51216 0.84116 0.0
C1215 C 0.88309 0.52983 0.8575 0.0
C1216 C 0.89806 0.48984 0.8456 0.0
C1217 C 0.90389 0.48416 0.86651 0.0
C1218 C 0.89705 0.49989 0.88299 0.0
C1219 C 0.88667 0.52249 0.87853 0.0
C1220 C 0.92098 0.46523 0.87072 0.0
C1221 C 0.95019 0.48028 0.8825 0.0
C1222 C 0.91125 0.43468 0.86094 0.0
C1223 C 0.87924 0.41601 0.84995 0.0
C1224 C 0.84998 0.40988 0.86001 0.0
C1225 C 0.8199 0.39242 0.84961 0.0
C1226 C 0.8187 0.3808 0.82915 0.0
C1227 C 0.84759 0.38658 0.81907 0.0
C1228 C 0.87775 0.40404 0.8294 0.0
C1229 C 0.01178 0.3974 0.88904 0.0
C1230 C 0.0251 0.39534 0.86957 0.0
C1231 C 0.99163 0.41147 0.89021 0.0
C1232 C 0.98414 0.42322 0.87187 0.0
C1233 C -0.00241 0.42138 0.85248 0.0
C1234 C 0.01809 0.40783 0.85136 0.0
C1235 C 0.96218 0.43739 0.87267 0.0
C1236 C 0.93222 0.4214 0.86183 0.0
C1237 C 0.97092 0.46679 0.88355 0.0
C1238 C 0.0023 0.48481 0.89519 0.0
C1239 C 0.03249 0.49604 0.88474 0.0
C1240 C 0.06195 0.51288 0.89589 0.0
C1241 C 0.06154 0.51887 0.91746 0.0
C1242 C 0.03166 0.50812 0.92791 0.0
C1243 C 0.00212 0.49123 0.91684 0.0
H1244 H 0.08438 0.53193 0.92606 0.0
H1245 H 0.79539 0.36729 0.82113 0.0
H1246 H 0.64138 0.08746 0.21124 0.0
H1247 H 0.58214 0.06479 0.21446 0.0
H1248 H 0.56707 0.96739 0.20546 0.0
H1249 H 0.62594 0.98993 0.20099 0.0
H1250 H 0.52584 0.97467 0.18229 0.0
H1251 H 0.55792 0.99599 0.25472 0.0
H1252 H 0.5895 0.02876 0.28534 0.0
H1253 H 0.55299 0.09518 0.27532 0.0
H1254 H 0.52153 0.06304 0.24445 0.0
H1255 H 0.35592 0.89353 0.20933 0.0
H1256 H 0.41475 0.9126 0.21164 0.0
H1257 H 0.43568 0.01281 0.21153 0.0
H1258 H 0.37729 0.9942 0.20859 0.0
H1259 H 0.47309 0.00155 0.24089 0.0
H1260 H 0.44345 0.98084 0.16721 0.0
H1261 H 0.41152 0.9471 0.13699 0.0
H1262 H 0.44344 0.87786 0.15038 0.0
H1263 H 0.47521 0.91098 0.18089 0.0
C1264 C 0.6255 0.06123 0.20985 0.0
C1265 C 0.63863 0.04059 0.20589 0.0
C1266 C 0.59158 0.04823 0.21196 0.0
C1267 C 0.57006 0.01429 0.21047 0.0
C1268 C 0.58312 0.99363 0.20676 0.0
C1269 C 0.61693 0.0066 0.20445 0.0
C1270 C 0.53388 0.00037 0.21179 0.0
C1271 C 0.51433 0.98013 0.19532 0.0
C1272 C 0.51876 0.0079 0.22857 0.0
C1273 C 0.5376 0.02726 0.24715 0.0
C1274 C 0.55682 0.01772 0.25894 0.0
C1275 C 0.57466 0.03616 0.27636 0.0
C1276 C 0.57331 0.06408 0.28224 0.0
C1277 C 0.55404 0.07357 0.27074 0.0
C1278 C 0.53617 0.05523 0.25329 0.0
C1279 C 0.37299 0.91963 0.20975 0.0
C1280 C 0.3617 0.94227 0.20872 0.0
C1281 C 0.40661 0.93047 0.21118 0.0
C1282 C 0.42956 0.96413 0.21164 0.0
C1283 C 0.41837 0.98673 0.21132 0.0
C1284 C 0.38487 0.97596 0.20975 0.0
C1285 C 0.46534 0.976 0.21143 0.0
C1286 C 0.48474 0.99592 0.22803 0.0
C1287 C 0.48034 0.96801 0.19487 0.0
C1288 C 0.4614 0.94819 0.17647 0.0
C1289 C 0.44344 0.95828 0.16382 0.0
C1290 C 0.42541 0.93929 0.14662 0.0
C1291 C 0.42537 0.9103 0.14181 0.0
C1292 C 0.44344 0.90029 0.15415 0.0
C1293 C 0.46148 0.91916 0.17139 0.0
H1294 H 0.4114 0.89564 0.12848 0.0
H1295 H 0.58714 0.07832 0.29573 0.0
H1296 H 0.14366 0.34035 0.18562 0.0
H1297 H 0.08612 0.32738 0.18226 0.0
H1298 H 0.05831 0.22872 0.1639 0.0
H1299 H 0.11503 0.2411 0.16776 0.0
H1300 H 0.0337 0.265 0.13736 0.0
H1301 H 0.04522 0.23647 0.21085 0.0
H1302 H 0.06972 0.25152 0.24637 0.0
H1303 H 0.03851 0.32291 0.25168 0.0
H1304 H 0.01422 0.30854 0.21603 0.0
H1305 H 0.8817 0.1322 0.15243 0.0
H1306 H 0.93788 0.17659 0.15034 0.0
H1307 H 0.91179 0.23934 0.18496 0.0
H1308 H 0.85473 0.19399 0.18754 0.0
H1309 H 0.96462 0.242 0.20145 0.0
H1310 H 0.93709 0.25632 0.13266 0.0
H1311 H 0.91255 0.24189 0.09718 0.0
H1312 H 0.97387 0.20111 0.08167 0.0
H1313 H -0.00165 0.21466 0.11715 0.0
C1314 C 0.12517 0.31595 0.18086 0.0
C1315 C 0.13364 0.29163 0.17708 0.0
C1316 C 0.09247 0.30863 0.17893 0.0
C1317 C 0.06817 0.27716 0.17276 0.0
C1318 C 0.07681 0.25318 0.16859 0.0
C1319 C 0.10915 0.26022 0.17095 0.0
C1320 C 0.03328 0.26809 0.17119 0.0
C1321 C 0.01843 0.26015 0.15127 0.0
C1322 C 0.01385 0.2633 0.18933 0.0
C1323 C 0.02837 0.2718 0.2107 0.0
C1324 C 0.0439 0.25561 0.21951 0.0
C1325 C 0.05767 0.26396 0.23968 0.0
C1326 C 0.05579 0.28825 0.25124 0.0
C1327 C 0.04004 0.30417 0.24268 0.0
C1328 C 0.02627 0.29594 0.22251 0.0
C1329 C 0.88764 0.15553 0.15938 0.0
C1330 C 0.86379 0.15955 0.17024 0.0
C1331 C 0.91985 0.18112 0.15796 0.0
C1332 C 0.92909 0.2116 0.16715 0.0
C1333 C 0.90515 0.21612 0.17757 0.0
C1334 C 0.87261 0.19028 0.179 0.0
C1335 C 0.96445 0.23687 0.16758 0.0
C1336 C 0.97961 0.24795 0.18731 0.0
C1337 C 0.9842 0.24486 0.14916 0.0
C1338 C 0.96956 0.23652 0.12768 0.0
C1339 C 0.94521 0.24407 0.12175 0.0
C1340 C 0.9313 0.23605 0.10161 0.0
C1341 C 0.94163 0.22058 0.08718 0.0
C1342 C 0.96591 0.21312 0.09285 0.0
C1343 C 0.97986 0.22103 0.11298 0.0
H1344 H 0.93084 0.2144 0.0716 0.0
H1345 H 0.06645 0.29467 0.26685 0.0
H1346 H 0.65942 0.84716 0.52179 0.0
H1347 H 0.66991 0.90374 0.52189 0.0
H1348 H 0.76641 0.93691 0.49584 0.0
H1349 H 0.75594 0.8808 0.49539 0.0
H1350 H 0.71365 0.95419 0.54338 0.0
H1351 H 0.79212 0.00343 0.46588 0.0
H1352 H 0.79179 0.98418 0.42966 0.0
H1353 H 0.68886 0.91483 0.43511 0.0
H1354 H 0.68838 0.93393 0.47126 0.0
H1355 H 0.84762 0.11225 0.5474 0.0
H1356 H 0.80559 0.05472 0.5446 0.0
H1357 H 0.75445 0.07955 0.49809 0.0
H1358 H 0.7967 0.13761 0.50094 0.0
H1359 H 0.76599 0.03237 0.48407 0.0
H1360 H 0.71676 0.04763 0.54384 0.0
H1361 H 0.71234 0.06695 0.57918 0.0
H1362 H 0.74766 0.00742 0.60739 0.0
H1363 H 0.75282 0.98803 0.57216 0.0
C1364 C 0.68264 0.8665 0.51577 0.0
C1365 C 0.70685 0.85952 0.50857 0.0
C1366 C 0.68864 0.89881 0.51588 0.0
C1367 C 0.71881 0.9246 0.50864 0.0
C1368 C 0.74267 0.91745 0.50109 0.0
C1369 C 0.73673 0.8853 0.50097 0.0
C1370 C 0.72681 0.95931 0.51042 0.0
C1371 C 0.72475 0.97123 0.53036 0.0
C1372 C 0.74019 0.98148 0.49325 0.0
C1373 C 0.74028 0.97002 0.47139 0.0
C1374 C 0.76935 0.98421 0.45934 0.0
C1375 C 0.76932 0.9733 0.43881 0.0
C1376 C 0.74035 0.94829 0.4301 0.0
C1377 C 0.71132 0.93415 0.44189 0.0
C1378 C 0.71119 0.94497 0.46242 0.0
C1379 C 0.82702 0.10559 0.53694 0.0
C1380 C 0.82543 0.12935 0.52436 0.0
C1381 C 0.80289 0.07268 0.53543 0.0
C1382 C 0.77676 0.0628 0.5212 0.0
C1383 C 0.77433 0.08668 0.50924 0.0
C1384 C 0.79835 0.1198 0.51095 0.0
C1385 C 0.75467 0.0273 0.51729 0.0
C1386 C 0.75415 0.01523 0.49696 0.0
C1387 C 0.73828 0.00499 0.53398 0.0
C1388 C 0.73533 0.01648 0.55529 0.0
C1389 C 0.72385 0.03881 0.55755 0.0
C1390 C 0.72116 0.04974 0.57757 0.0
C1391 C 0.72975 0.03842 0.59551 0.0
C1392 C 0.741 0.0161 0.59346 0.0
C1393 C 0.74376 0.00509 0.57347 0.0
H1394 H 0.72765 0.04691 0.611 0.0
H1395 H 0.74039 0.93987 0.41421 0.0
H1396 H 0.76862 0.89824 0.84739 0.0
H1397 H 0.79217 0.86234 0.84699 0.0
H1398 H 0.69517 0.77772 0.85018 0.0
H1399 H 0.67112 0.81382 0.85039 0.0
H1400 H 0.74332 0.77676 0.87886 0.0
H1401 H 0.72984 0.79184 0.80577 0.0
H1402 H 0.73393 0.82407 0.77402 0.0
H1403 H 0.83904 0.87571 0.77872 0.0
H1404 H 0.8356 0.84435 0.8108 0.0
H1405 H 0.80594 0.669 0.85555 0.0
H1406 H 0.77378 0.69703 0.85495 0.0
H1407 H 0.86245 0.78947 0.84509 0.0
H1408 H 0.89473 0.76154 0.84565 0.0
H1409 H 0.81308 0.78164 0.81842 0.0
H1410 H 0.82672 0.77038 0.89259 0.0
H1411 H 0.82358 0.74033 0.92523 0.0
H1412 H 0.71888 0.68256 0.91888 0.0
H1413 H 0.72145 0.71191 0.88597 0.0
C1414 C 0.75218 0.872 0.84803 0.0
C1415 C 0.71797 0.85885 0.84889 0.0
C1416 C 0.76572 0.85152 0.84776 0.0
C1417 C 0.74543 0.81739 0.84845 0.0
C1418 C 0.71123 0.80403 0.84963 0.0
C1419 C 0.69755 0.82462 0.84965 0.0
C1420 C 0.76047 0.79614 0.8477 0.0
C1421 C 0.75801 0.77722 0.86548 0.0
C1422 C 0.7802 0.79741 0.8304 0.0
C1423 C 0.78244 0.81588 0.81082 0.0
C1424 C 0.75383 0.81023 0.80014 0.0
C1425 C 0.75602 0.82832 0.78206 0.0
C1426 C 0.78671 0.85192 0.77437 0.0
C1427 C 0.81528 0.85742 0.78471 0.0
C1428 C 0.81322 0.83949 0.80284 0.0
C1429 C 0.81858 0.69532 0.85334 0.0
C1430 C 0.85285 0.71312 0.8507 0.0
C1431 C 0.80018 0.7113 0.85303 0.0
C1432 C 0.81571 0.74538 0.85007 0.0
C1433 C 0.84995 0.76316 0.84736 0.0
C1434 C 0.86837 0.74722 0.84779 0.0
C1435 C 0.79632 0.76252 0.84971 0.0
C1436 C 0.79803 0.78076 0.8317 0.0
C1437 C 0.77595 0.76065 0.86681 0.0
C1438 C 0.77432 0.74309 0.88667 0.0
C1439 C 0.80305 0.75107 0.89804 0.0
C1440 C 0.80137 0.73419 0.91661 0.0
C1441 C 0.77106 0.70948 0.92409 0.0
C1442 C 0.74235 0.70166 0.91304 0.0
C1443 C 0.7439 0.71842 0.89443 0.0
H1444 H 0.76982 0.69646 0.93848 0.0
H1445 H 0.78835 0.86591 0.76038 0.0
H1446 H 0.87604 0.75748 0.17178 0.0
H1447 H 0.93475 0.77679 0.16817 0.0
H1448 H 0.91703 0.67909 0.18027 0.0
H1449 H 0.85785 0.65935 0.18349 0.0
H1450 H 0.9718 0.73535 0.2045 0.0
H1451 H 0.93263 0.69826 0.13428 0.0
H1452 H 0.90037 0.69361 0.10248 0.0
H1453 H 0.95622 0.79782 0.09354 0.0
H1454 H 0.9884 0.80319 0.12553 0.0
H1455 H 0.14367 0.80686 0.18409 0.0
H1456 H 0.08505 0.76584 0.18181 0.0
H1457 H 0.06548 0.83865 0.15481 0.0
H1458 H 0.1235 0.87913 0.15662 0.0
H1459 H 0.02838 0.78189 0.13634 0.0
H1460 H 0.05733 0.82163 0.20799 0.0
H1461 H 0.08829 0.83181 0.24115 0.0
H1462 H 0.05115 0.72854 0.24872 0.0
H1463 H 0.02029 0.7178 0.21535 0.0
C1464 C 0.88463 0.7401 0.17365 0.0
C1465 C 0.8625 0.70694 0.17785 0.0
C1466 C 0.9181 0.75113 0.17157 0.0
C1467 C 0.93007 0.7293 0.1739 0.0
C1468 C 0.90814 0.69623 0.17842 0.0
C1469 C 0.87446 0.68502 0.18016 0.0
C1470 C 0.96563 0.74155 0.17145 0.0
C1471 C 0.98423 0.74473 0.18951 0.0
C1472 C 0.98163 0.75435 0.15196 0.0
C1473 C 0.96284 0.75113 0.13239 0.0
C1474 C 0.93791 0.72022 0.12561 0.0
C1475 C 0.91963 0.71745 0.10754 0.0
C1476 C 0.92622 0.74541 0.09601 0.0
C1477 C 0.95115 0.77618 0.10249 0.0
C1478 C 0.96944 0.7791 0.12058 0.0
C1479 C 0.12688 0.81384 0.17731 0.0
C1480 C 0.13811 0.84626 0.17071 0.0
C1481 C 0.09341 0.79047 0.1761 0.0
C1482 C 0.0708 0.79929 0.16837 0.0
C1483 C 0.08239 0.83121 0.1608 0.0
C1484 C 0.11563 0.85442 0.16197 0.0
C1485 C 0.03483 0.77657 0.16952 0.0
C1486 C 0.01605 0.77153 0.15122 0.0
C1487 C 0.01868 0.76265 0.18889 0.0
C1488 C 0.03688 0.76895 0.20905 0.0
C1489 C 0.05596 0.80111 0.21664 0.0
C1490 C 0.07348 0.80699 0.23548 0.0
C1491 C 0.07182 0.78086 0.247 0.0
C1492 C 0.05251 0.74877 0.23974 0.0
C1493 C 0.035 0.74277 0.22086 0.0
H1494 H 0.08543 0.78551 0.26157 0.0
H1495 H 0.91205 0.74324 0.08203 0.0
H1496 H 0.12379 0.87606 0.53921 0.0
H1497 H 0.16452 0.93418 0.53771 0.0
H1498 H 0.23542 0.91096 0.51164 0.0
H1499 H 0.19442 0.85243 0.51283 0.0
H1500 H 0.22666 0.97536 0.55294 0.0
H1501 H 0.2756 0.96749 0.47238 0.0
H1502 H 0.26058 0.92747 0.44342 0.0
H1503 H 0.15833 0.89088 0.45617 0.0
H1504 H 0.17274 0.93111 0.48493 0.0
H1505 H 0.334 0.14083 0.5233 0.0
H1506 H 0.31803 0.08261 0.52528 0.0
H1507 H 0.23046 0.0575 0.48964 0.0
H1508 H 0.24614 0.11524 0.48764 0.0
H1509 H 0.25794 0.01756 0.47968 0.0
H1510 H 0.22612 0.05916 0.54113 0.0
H1511 H 0.24197 0.09964 0.56986 0.0
H1512 H 0.30668 0.06833 0.59515 0.0
H1513 H 0.29164 0.02806 0.56632 0.0
C1514 C 0.14818 0.88322 0.53343 0.0
C1515 C 0.15578 0.85971 0.52585 0.0
C1516 C 0.17154 0.91648 0.53275 0.0
C1517 C 0.20289 0.92693 0.52439 0.0
C1518 C 0.21125 0.90341 0.51801 0.0
C1519 C 0.18782 0.87001 0.51869 0.0
C1520 C 0.22496 0.96233 0.52015 0.0
C1521 C 0.23398 0.98455 0.53697 0.0
C1522 C 0.23435 0.97438 0.4993 0.0
C1523 C 0.22528 0.95201 0.48095 0.0
C1524 C 0.24993 0.9511 0.46886 0.0
C1525 C 0.24152 0.92831 0.45256 0.0
C1526 C 0.20854 0.90637 0.44818 0.0
C1527 C 0.18386 0.90766 0.45975 0.0
C1528 C 0.19214 0.93053 0.476 0.0
C1529 C 0.31176 0.12292 0.51547 0.0
C1530 C 0.29108 0.13245 0.50556 0.0
C1531 C 0.3027 0.08973 0.51659 0.0
C1532 C 0.27296 0.06577 0.5077 0.0
C1533 C 0.25355 0.07558 0.49652 0.0
C1534 C 0.26241 0.10858 0.49557 0.0
C1535 C 0.2594 0.0305 0.51245 0.0
C1536 C 0.25162 0.00833 0.49572 0.0
C1537 C 0.25087 0.01846 0.53335 0.0
C1538 C 0.258 0.04085 0.5515 0.0
C1539 C 0.24371 0.06091 0.55284 0.0
C1540 C 0.25262 0.08387 0.56907 0.0
C1541 C 0.27548 0.08668 0.5842 0.0
C1542 C 0.28909 0.0662 0.58334 0.0
C1543 C 0.28038 0.0433 0.56707 0.0
H1544 H 0.2826 0.10469 0.59661 0.0
H1545 H 0.20214 0.88867 0.43562 0.0
H1546 H 0.13693 0.26156 0.81662 0.0
H1547 H 0.1803 0.24779 0.82048 0.0
H1548 H 0.23208 0.32907 0.86299 0.0
H1549 H 0.18855 0.34328 0.85908 0.0
H1550 H 0.27418 0.31292 0.83525 0.0
H1551 H 0.18784 0.26631 0.88651 0.0
H1552 H 0.12987 0.23956 0.89762 0.0
H1553 H 0.10878 0.155 0.86055 0.0
H1554 H 0.16656 0.18162 0.8488 0.0
H1555 H 0.28612 0.1666 0.89074 0.0
H1556 H 0.27023 0.20878 0.89019 0.0
H1557 H 0.30263 0.23108 0.82533 0.0
H1558 H 0.32047 0.19025 0.82648 0.0
H1559 H 0.22331 0.20349 0.86947 0.0
H1560 H 0.31021 0.3026 0.80878 0.0
H1561 H 0.3691 0.33288 0.79967 0.0
H1562 H 0.3935 0.3176 0.8624 0.0
H1563 H 0.33481 0.28762 0.87197 0.0
C1564 C 0.15795 0.27709 0.82636 0.0
C1565 C 0.15915 0.3032 0.8378 0.0
C1566 C 0.18279 0.26927 0.82846 0.0
C1567 C 0.20916 0.2872 0.84219 0.0
C1568 C 0.21196 0.31504 0.85226 0.0
C1569 C 0.18705 0.32304 0.85006 0.0
C1570 C 0.23005 0.27326 0.84851 0.0
C1571 C 0.26335 0.28911 0.84285 0.0
C1572 C 0.21601 0.24273 0.85906 0.0
C1573 C 0.18148 0.22606 0.86666 0.0
C1574 C 0.1708 0.24208 0.88063 0.0
C1575 C 0.13797 0.22695 0.88704 0.0
C1576 C 0.11563 0.19561 0.87978 0.0
C1577 C 0.12611 0.17929 0.86615 0.0
C1578 C 0.15891 0.19439 0.85961 0.0
C1579 C 0.29106 0.18154 0.8767 0.0
C1580 C 0.3047 0.17554 0.85872 0.0
C1581 C 0.28177 0.20547 0.8763 0.0
C1582 C 0.28498 0.22318 0.85769 0.0
C1583 C 0.30042 0.21839 0.84005 0.0
C1584 C 0.3106 0.19502 0.84067 0.0
C1585 C 0.26789 0.24263 0.85585 0.0
C1586 C 0.23485 0.22761 0.86225 0.0
C1587 C 0.28263 0.27432 0.8466 0.0
C1588 C 0.31804 0.29263 0.84103 0.0
C1589 C 0.32814 0.30584 0.82066 0.0
C1590 C 0.36149 0.32292 0.81541 0.0
C1591 C 0.38502 0.32708 0.83043 0.0
C1592 C 0.37525 0.31425 0.85075 0.0
C1593 C 0.34193 0.29717 0.85609 0.0
H1594 H 0.41083 0.3403 0.82633 0.0
H1595 H 0.0902 0.18395 0.88475 0.0
H1596 H 0.23243 0.22466 0.19858 0.0
H1597 H 0.24587 0.18103 0.20172 0.0
H1598 H 0.33102 0.23557 0.16203 0.0
H1599 H 0.31722 0.27903 0.15834 0.0
H1600 H 0.29695 0.17485 0.1489 0.0
H1601 H 0.33886 0.22517 0.21529 0.0
H1602 H 0.3382 0.24997 0.24942 0.0
H1603 H 0.25645 0.15872 0.26997 0.0
H1604 H 0.25627 0.13346 0.23583 0.0
H1605 H 0.3257 0.04053 0.16223 0.0
H1606 H 0.33723 0.09728 0.16514 0.0
H1607 H 0.24711 0.06416 0.20004 0.0
H1608 H 0.23566 0.00789 0.19748 0.0
H1609 H 0.29715 0.12096 0.21626 0.0
H1610 H 0.24993 0.07529 0.14731 0.0
H1611 H 0.25038 0.05026 0.11318 0.0
H1612 H 0.3433 0.13424 0.09768 0.0
H1613 H 0.34373 0.15945 0.13192 0.0
C1614 C 0.25424 0.22758 0.19072 0.0
C1615 C 0.27365 0.25517 0.17811 0.0
C1616 C 0.26203 0.2027 0.19264 0.0
C1617 C 0.28968 0.20521 0.18229 0.0
C1618 C 0.30961 0.23317 0.17016 0.0
C1619 C 0.30168 0.25796 0.16809 0.0
C1620 C 0.29615 0.17747 0.18289 0.0
C1621 C 0.29783 0.16356 0.16366 0.0
C1622 C 0.29701 0.16258 0.20213 0.0
C1623 C 0.29747 0.17745 0.22292 0.0
C1624 C 0.32064 0.21041 0.22704 0.0
C1625 C 0.32042 0.22456 0.2464 0.0
C1626 C 0.29727 0.20595 0.26184 0.0
C1627 C 0.27438 0.1731 0.25799 0.0
C1628 C 0.27447 0.15884 0.23865 0.0
C1629 C 0.30856 0.04544 0.17071 0.0
C1630 C 0.27957 0.01972 0.17938 0.0
C1631 C 0.3152 0.07782 0.17237 0.0
C1632 C 0.29288 0.0848 0.18268 0.0
C1633 C 0.26468 0.05929 0.19207 0.0
C1634 C 0.25804 0.02708 0.19041 0.0
C1635 C 0.29698 0.11803 0.18232 0.0
C1636 C 0.2972 0.13288 0.20157 0.0
C1637 C 0.29791 0.13384 0.16311 0.0
C1638 C 0.29708 0.11906 0.14228 0.0
C1639 C 0.27054 0.08833 0.13667 0.0
C1640 C 0.27064 0.0741 0.11732 0.0
C1641 C 0.29692 0.0906 0.10332 0.0
C1642 C 0.32303 0.12145 0.10858 0.0
C1643 C 0.32313 0.1357 0.12796 0.0
H1644 H 0.29706 0.07955 0.08839 0.0
H1645 H 0.2971 0.21697 0.2768 0.0
H1646 H 0.26825 0.30555 0.5401 0.0
H1647 H 0.222 0.31561 0.53917 0.0
H1648 H 0.17169 0.23561 0.49543 0.0
H1649 H 0.2183 0.22606 0.49577 0.0
H1650 H 0.16024 0.28396 0.4859 0.0
H1651 H 0.1578 0.22534 0.54915 0.0
H1652 H 0.18029 0.21695 0.58224 0.0
H1653 H 0.18883 0.30547 0.60759 0.0
H1654 H 0.16685 0.31463 0.57449 0.0
H1655 H 0.9928 0.21956 0.50715 0.0
H1656 H 0.04888 0.22998 0.5044 0.0
H1657 H 0.08274 0.31649 0.54277 0.0
H1658 H 0.02623 0.30624 0.54564 0.0
H1659 H 0.10673 0.2748 0.55521 0.0
H1660 H 0.09966 0.32711 0.49238 0.0
H1661 H 0.07434 0.33148 0.45937 0.0
H1662 H 0.08065 0.25064 0.43322 0.0
H1663 H 0.10554 0.24542 0.4662 0.0
C1664 C 0.24751 0.29038 0.53006 0.0
C1665 C 0.24664 0.26471 0.51824 0.0
C1666 C 0.2211 0.29613 0.52958 0.0
C1667 C 0.19312 0.2759 0.5176 0.0
C1668 C 0.193 0.25144 0.50486 0.0
C1669 C 0.2196 0.24595 0.50511 0.0
C1670 C 0.16306 0.27851 0.51948 0.0
C1671 C 0.14848 0.28187 0.50103 0.0
C1672 C 0.1481 0.27649 0.5393 0.0
C1673 C 0.16106 0.27087 0.55926 0.0
C1674 C 0.1647 0.24313 0.56173 0.0
C1675 C 0.17733 0.23823 0.58049 0.0
C1676 C 0.18607 0.26072 0.59699 0.0
C1677 C 0.18211 0.28811 0.59478 0.0
C1678 C 0.16958 0.29317 0.57603 0.0
C1679 C 0.01208 0.24083 0.51504 0.0
C1680 C 0.00507 0.26208 0.52665 0.0
C1681 C 0.04417 0.24686 0.5133 0.0
C1682 C 0.06992 0.27422 0.52314 0.0
C1683 C 0.06312 0.29537 0.53495 0.0
C1684 C 0.03091 0.28949 0.53655 0.0
C1685 C 0.10366 0.27961 0.5216 0.0
C1686 C 0.11887 0.27763 0.54012 0.0
C1687 C 0.11893 0.28246 0.50183 0.0
C1688 C 0.10433 0.28577 0.48184 0.0
C1689 C 0.09546 0.31012 0.47965 0.0
C1690 C 0.0812 0.31277 0.46093 0.0
C1691 C 0.07585 0.29133 0.44422 0.0
C1692 C 0.08481 0.26724 0.44618 0.0
C1693 C 0.09905 0.26446 0.46487 0.0
H1694 H 0.06479 0.2934 0.42975 0.0
H1695 H 0.19584 0.25688 0.6115 0.0
H1696 H 0.71729 0.03524 0.8134 0.0
H1697 H 0.76556 0.09002 0.81316 0.0
H1698 H 0.79274 0.07258 0.8748 0.0
H1699 H 0.74468 0.01749 0.87511 0.0
H1700 H 0.80712 0.14057 0.86627 0.0
H1701 H 0.82255 0.05275 0.83843 0.0
H1702 H 0.80765 0.0054 0.81518 0.0
H1703 H 0.822 0.0655 0.76067 0.0
H1704 H 0.83641 0.1131 0.78366 0.0
H1705 H 0.99129 0.21397 0.84249 0.0
H1706 H 0.93516 0.16808 0.84396 0.0
H1707 H 0.89809 0.23318 0.82907 0.0
H1708 H 0.95431 0.27944 0.8276 0.0
H1709 H 0.88694 0.14283 0.81378 0.0
H1710 H 0.82579 0.20507 0.85818 0.0
H1711 H 0.84097 0.25128 0.88257 0.0
H1712 H 0.9208 0.24072 0.90634 0.0
H1713 H 0.9058 0.19418 0.88233 0.0
C1714 C 0.73296 0.04336 0.82719 0.0
C1715 C 0.72757 0.02193 0.84414 0.0
C1716 C 0.76049 0.07467 0.82701 0.0
C1717 C 0.78271 0.08504 0.84387 0.0
C1718 C 0.77575 0.0649 0.86167 0.0
C1719 C 0.74844 0.03342 0.86176 0.0
C1720 C 0.81548 0.11427 0.84151 0.0
C1721 C 0.82453 0.1413 0.8547 0.0
C1722 C 0.83819 0.11478 0.8266 0.0
C1723 C 0.83017 0.08637 0.81276 0.0
C1724 C 0.82225 0.0558 0.8215 0.0
C1725 C 0.81393 0.02892 0.80837 0.0
C1726 C 0.81377 0.03242 0.78647 0.0
C1727 C 0.82206 0.06282 0.77764 0.0
C1728 C 0.83031 0.08975 0.79071 0.0
C1729 C 0.97125 0.21857 0.83945 0.0
C1730 C 0.97722 0.25035 0.83498 0.0
C1731 C 0.93921 0.1923 0.84023 0.0
C1732 C 0.91257 0.19734 0.83676 0.0
C1733 C 0.91839 0.22891 0.83198 0.0
C1734 C 0.95049 0.25524 0.83108 0.0
C1735 C 0.87873 0.16943 0.83848 0.0
C1736 C 0.86946 0.14247 0.82516 0.0
C1737 C 0.85603 0.16893 0.85343 0.0
C1738 C 0.86487 0.19639 0.86829 0.0
C1739 C 0.84649 0.21254 0.86868 0.0
C1740 C 0.85507 0.23879 0.88243 0.0
C1741 C 0.8819 0.249 0.89594 0.0
C1742 C 0.9001 0.23287 0.89581 0.0
C1743 C 0.89159 0.20658 0.88212 0.0
H1744 H 0.88854 0.26937 0.90654 0.0
H1745 H 0.80735 0.0116 0.77633 0.0
H1746 H 0.73818 0.97611 0.20177 0.0
H1747 H 0.75168 0.93218 0.20185 0.0
H1748 H 0.76101 0.93852 0.13393 0.0
H1749 H 0.74588 0.98154 0.13387 0.0
H1750 H 0.73744 0.87696 0.14628 0.0
H1751 H 0.82881 0.97923 0.16509 0.0
H1752 H 0.85806 0.03166 0.18419 0.0
H1753 H 0.84188 0.97992 0.24286 0.0
H1754 H 0.81211 0.92713 0.22415 0.0
H1755 H 0.81362 0.78113 0.15507 0.0
H1756 H 0.81866 0.835 0.14861 0.0
H1757 H 0.77997 0.83253 0.21085 0.0
H1758 H 0.77416 0.77861 0.21703 0.0
H1759 H 0.82829 0.89797 0.19534 0.0
H1760 H 0.7269 0.79693 0.17493 0.0
H1761 H 0.6997 0.74503 0.15506 0.0
H1762 H 0.73935 0.79762 0.09707 0.0
H1763 H 0.7673 0.84979 0.11671 0.0
C1764 C 0.74188 0.96714 0.18685 0.0
C1765 C 0.74064 0.98163 0.16781 0.0
C1766 C 0.75007 0.94247 0.18689 0.0
C1767 C 0.75838 0.93284 0.16794 0.0
C1768 C 0.75494 0.94577 0.14873 0.0
C1769 C 0.74607 0.97009 0.14867 0.0
C1770 C 0.77257 0.91089 0.16853 0.0
C1771 C 0.75776 0.88194 0.15665 0.0
C1772 C 0.79937 0.91751 0.1819 0.0
C1773 C 0.81808 0.94919 0.19321 0.0
C1774 C 0.8314 0.97901 0.18208 0.0
C1775 C 0.84808 0.0088 0.19283 0.0
C1776 C 0.8518 0.00912 0.21473 0.0
C1777 C 0.83898 0.97963 0.2259 0.0
C1778 C 0.82226 0.94976 0.21522 0.0
C1779 C 0.80775 0.79294 0.16766 0.0
C1780 C 0.79358 0.77613 0.18652 0.0
C1781 C 0.81047 0.82353 0.16395 0.0
C1782 C 0.7994 0.83746 0.17922 0.0
C1783 C 0.78876 0.8222 0.19895 0.0
C1784 C 0.78543 0.79147 0.20247 0.0
C1785 C 0.79252 0.8639 0.17359 0.0
C1786 C 0.80861 0.8936 0.18454 0.0
C1787 C 0.76731 0.85828 0.15912 0.0
C1788 C 0.7494 0.82715 0.14727 0.0
C1789 C 0.72989 0.79738 0.15795 0.0
C1790 C 0.71438 0.76793 0.14675 0.0
C1791 C 0.71786 0.76801 0.12482 0.0
C1792 C 0.73673 0.79758 0.11406 0.0
C1793 C 0.75241 0.82709 0.12521 0.0
H1794 H 0.7059 0.74518 0.11618 0.0
H1795 H 0.86462 0.03221 0.22303 0.0
H1796 H 0.7474 0.70374 0.47673 0.0
H1797 H 0.79342 0.6938 0.48233 0.0
H1798 H 0.80276 0.72859 0.54647 0.0
H1799 H 0.75854 0.74054 0.54033 0.0
H1800 H 0.8587 0.75483 0.53141 0.0
H1801 H 0.77159 0.64384 0.53169 0.0
H1802 H 0.72234 0.59465 0.51858 0.0
H1803 H 0.77532 0.59434 0.46333 0.0
H1804 H 0.82478 0.64382 0.47597 0.0
H1805 H 0.97375 0.70428 0.56077 0.0
H1806 H 0.91785 0.69613 0.55815 0.0
H1807 H 0.92946 0.70988 0.49068 0.0
H1808 H 0.98567 0.71951 0.49339 0.0
H1809 H 0.86183 0.65514 0.5097 0.0
H1810 H 0.9474 0.77149 0.5106 0.0
H1811 H 0.99582 0.81828 0.52661 0.0
H1812 H 0.94189 0.80478 0.58411 0.0
H1813 H 0.89342 0.75726 0.5686 0.0
C1814 C 0.75929 0.70897 0.49201 0.0
C1815 C 0.74984 0.7231 0.50805 0.0
C1816 C 0.78536 0.70307 0.4953 0.0
C1817 C 0.80147 0.71011 0.51494 0.0
C1818 C 0.791 0.72315 0.53115 0.0
C1819 C 0.76574 0.72996 0.52765 0.0
C1820 C 0.83068 0.70621 0.51827 0.0
C1821 C 0.85893 0.73268 0.527 0.0
C1822 C 0.83147 0.67756 0.51233 0.0
C1823 C 0.80182 0.64772 0.5047 0.0
C1824 C 0.77268 0.63342 0.51667 0.0
C1825 C 0.74473 0.60546 0.50934 0.0
C1826 C 0.74568 0.59142 0.49011 0.0
C1827 C 0.77461 0.60526 0.47821 0.0
C1828 C 0.80262 0.63324 0.48547 0.0
C1829 C 0.96391 0.70474 0.54539 0.0
C1830 C 0.9836 0.71247 0.52726 0.0
C1831 C 0.93215 0.70006 0.5439 0.0
C1832 C 0.9197 0.70228 0.5242 0.0
C1833 C 0.93865 0.70778 0.50594 0.0
C1834 C 0.97066 0.71343 0.50751 0.0
C1835 C 0.88903 0.70353 0.52284 0.0
C1836 C 0.86091 0.67685 0.51436 0.0
C1837 C 0.88798 0.73163 0.52942 0.0
C1838 C 0.91701 0.76045 0.53859 0.0
C1839 C 0.94603 0.77818 0.52676 0.0
C1840 C 0.97346 0.80488 0.53573 0.0
C1841 C 0.972 0.81438 0.55642 0.0
C1842 C 0.94305 0.79729 0.56813 0.0
C1843 C 0.91561 0.77045 0.55927 0.0
H1844 H 0.99325 0.83507 0.56334 0.0
H1845 H 0.72402 0.56978 0.48446 0.0
H1846 H 0.20676 0.01936 0.86442 0.0
H1847 H 0.1531 0.96999 0.86185 0.0
H1848 H 0.19965 0.91089 0.85876 0.0
H1849 H 0.25383 0.96047 0.86153 0.0
H1850 H 0.15132 0.89814 0.82644 0.0
H1851 H 0.16386 0.9096 0.9021 0.0
H1852 H 0.17474 0.93959 0.93571 0.0
H1853 H 0.0922 0.9535 0.92511 0.0
H1854 H 0.08114 0.92404 0.89123 0.0
H1855 H 0.02681 0.73953 0.84447 0.0
H1856 H 0.07493 0.79344 0.84638 0.0
H1857 H 0.01346 0.83673 0.85476 0.0
H1858 H 0.96425 0.78185 0.85312 0.0
H1859 H 0.06629 0.86122 0.88263 0.0
H1860 H 0.05024 0.84635 0.80879 0.0
H1861 H 0.03828 0.81641 0.77511 0.0
H1862 H 0.12606 0.8102 0.78126 0.0
H1863 H 0.13829 0.83963 0.8152 0.0
C1864 C 0.20564 0.99585 0.86335 0.0
C1865 C 0.23449 0.99372 0.86316 0.0
C1866 C 0.17495 0.9677 0.86192 0.0
C1867 C 0.17251 0.93691 0.86012 0.0
C1868 C 0.20118 0.93455 0.86012 0.0
C1869 C 0.23201 0.96278 0.86184 0.0
C1870 C 0.13994 0.90732 0.85775 0.0
C1871 C 0.13282 0.88981 0.83878 0.0
C1872 C 0.11545 0.89747 0.87355 0.0
C1873 C 0.12189 0.91492 0.89401 0.0
C1874 C 0.1482 0.9193 0.90683 0.0
C1875 C 0.15437 0.93616 0.92595 0.0
C1876 C 0.13423 0.94852 0.93251 0.0
C1877 C 0.10781 0.94396 0.91999 0.0
C1878 C 0.10157 0.92716 0.90083 0.0
C1879 C 0.02325 0.76038 0.84666 0.0
C1880 C 0.99165 0.75642 0.8486 0.0
C1881 C 0.05091 0.79127 0.84765 0.0
C1882 C 0.04776 0.81909 0.8504 0.0
C1883 C 0.01631 0.81546 0.8525 0.0
C1884 C 0.98831 0.78424 0.85149 0.0
C1885 C 0.07787 0.85156 0.85147 0.0
C1886 C 0.0846 0.86973 0.87016 0.0
C1887 C 0.10191 0.86224 0.8353 0.0
C1888 C 0.0951 0.8451 0.81464 0.0
C1889 C 0.06692 0.83846 0.80304 0.0
C1890 C 0.06009 0.82158 0.78389 0.0
C1891 C 0.08138 0.8114 0.77606 0.0
C1892 C 0.1096 0.81813 0.78735 0.0
C1893 C 0.11652 0.83497 0.80654 0.0
H1894 H 0.07603 0.79837 0.76123 0.0
H1895 H 0.13905 0.96157 0.94732 0.0
loop_
_geom_bond_atom_site_label_1
_geom_bond_atom_site_label_2
_geom_bond_distance
_geom_bond_site_symmetry_2
_ccdc_geom_bond_type
Co0 N4 2.148 . S
Co0 N10 2.128 . S
Co0 N20 2.194 . S
Co0 O25 2.351 . S
Co0 O26 2.155 . S
Co0 O27 2.096 . S
C1 N4 1.301 . S
C1 N5 1.328 . S
C1 H6 0.930 . S
C2 C3 1.333 . S
C2 N4 1.317 . S
C2 H7 0.930 . S
C3 C2 1.333 . S
C3 N5 1.350 . S
C3 H29 0.931 . S
N4 Co0 2.148 . S
N4 C1 1.301 . S
N4 C2 1.317 . S
N5 C1 1.328 . S
N5 C3 1.350 . S
H6 C1 0.930 . S
H7 C2 0.930 . S
C8 O9 1.224 . S
C8 O27 1.247 . S
O9 C8 1.224 . S
N10 Co0 2.128 . S
N10 C11 1.355 . S
N10 C13 1.311 . S
C11 N10 1.355 . S
C11 C12 1.363 . S
C11 H23 0.929 . S
C12 C11 1.363 . S
C12 N14 1.375 . S
C12 H30 0.931 . S
C13 N10 1.311 . S
C13 N14 1.347 . S
C13 H24 0.929 . S
N14 C12 1.375 . S
N14 C13 1.347 . S
C15 C18 1.365 . S
C15 N20 1.328 . S
C15 H21 0.929 . S
C16 C17 1.362 . S
C16 C19 1.378 . S
C16 H31 0.929 . S
C17 C16 1.362 . S
C17 C18 1.366 . S
C18 C15 1.365 . S
C18 C17 1.366 . S
C18 H32 0.930 . S
C19 C16 1.378 . S
C19 N20 1.315 . S
C19 H22 0.930 . S
N20 Co0 2.194 . S
N20 C15 1.328 . S
N20 C19 1.315 . S
H21 C15 0.929 . S
H22 C19 0.930 . S
H23 C11 0.929 . S
H24 C13 0.929 . S
O25 Co0 2.351 . S
O25 C28 1.244 . S
O26 Co0 2.155 . S
O26 C28 1.240 . S
O27 Co0 2.096 . S
O27 C8 1.247 . S
C28 O25 1.244 . S
C28 O26 1.240 . S
H29 C3 0.931 . S
H30 C12 0.931 . S
H31 C16 0.929 . S
H32 C18 0.930 . S
Co33 N37 2.148 . S
Co33 N43 2.128 . S
Co33 N53 2.194 . S
Co33 O58 2.351 . S
Co33 O59 2.155 . S
Co33 O60 2.096 . S
C34 N37 1.301 . S
C34 N38 1.328 . S
C34 H39 0.930 . S
C35 C36 1.333 . S
C35 N37 1.317 . S
C35 H40 0.930 . S
C36 C35 1.333 . S
C36 N38 1.350 . S
C36 H62 0.931 . S
N37 Co33 2.148 . S
N37 C34 1.301 . S
N37 C35 1.317 . S
N38 C34 1.328 . S
N38 C36 1.350 . S
H39 C34 0.930 . S
H40 C35 0.930 . S
C41 O42 1.224 . S
C41 O60 1.247 . S
O42 C41 1.224 . S
N43 Co33 2.128 . S
N43 C44 1.355 . S
N43 C46 1.311 . S
C44 N43 1.355 . S
C44 C45 1.363 . S
C44 H56 0.929 . S
C45 C44 1.363 . S
C45 N47 1.375 . S
C45 H63 0.931 . S
C46 N43 1.311 . S
C46 N47 1.347 . S
C46 H57 0.929 . S
N47 C45 1.375 . S
N47 C46 1.347 . S
C48 C51 1.365 . S
C48 N53 1.328 . S
C48 H54 0.929 . S
C49 C50 1.362 . S
C49 C52 1.378 . S
C49 H64 0.929 . S
C50 C49 1.362 . S
C50 C51 1.366 . S
C51 C48 1.365 . S
C51 C50 1.366 . S
C51 H65 0.930 . S
C52 C49 1.378 . S
C52 N53 1.315 . S
C52 H55 0.930 . S
N53 Co33 2.194 . S
N53 C48 1.328 . S
N53 C52 1.315 . S
H54 C48 0.929 . S
H55 C52 0.930 . S
H56 C44 0.929 . S
H57 C46 0.929 . S
O58 Co33 2.351 . S
O58 C61 1.244 . S
O59 Co33 2.155 . S
O59 C61 1.240 . S
O60 Co33 2.096 . S
O60 C41 1.247 . S
C61 O58 1.244 . S
C61 O59 1.240 . S
H62 C36 0.931 . S
H63 C45 0.931 . S
H64 C49 0.929 . S
H65 C51 0.930 . S
Co66 N70 2.148 . S
Co66 N76 2.128 . S
Co66 N86 2.194 . S
Co66 O91 2.351 . S
Co66 O92 2.155 . S
Co66 O93 2.096 . S
C67 N70 1.301 . S
C67 N71 1.328 . S
C67 H72 0.930 . S
C68 C69 1.333 . S
C68 N70 1.317 . S
C68 H73 0.930 . S
C69 C68 1.333 . S
C69 N71 1.350 . S
C69 H95 0.931 . S
N70 Co66 2.148 . S
N70 C67 1.301 . S
N70 C68 1.317 . S
N71 C67 1.328 . S
N71 C69 1.350 . S
H72 C67 0.930 . S
H73 C68 0.930 . S
C74 O75 1.224 . S
C74 O93 1.247 . S
O75 C74 1.224 . S
N76 Co66 2.128 . S
N76 C77 1.355 . S
N76 C79 1.311 . S
C77 N76 1.355 . S
C77 C78 1.363 . S
C77 H89 0.929 . S
C78 C77 1.363 . S
C78 N80 1.375 . S
C78 H96 0.931 . S
C79 N76 1.311 . S
C79 N80 1.347 . S
C79 H90 0.929 . S
N80 C78 1.375 . S
N80 C79 1.347 . S
C81 C84 1.365 . S
C81 N86 1.328 . S
C81 H87 0.929 . S
C82 C83 1.362 . S
C82 C85 1.378 . S
C82 H97 0.929 . S
C83 C82 1.362 . S
C83 C84 1.366 . S
C84 C81 1.365 . S
C84 C83 1.366 . S
C84 H98 0.930 . S
C85 C82 1.378 . S
C85 N86 1.315 . S
C85 H88 0.930 . S
N86 Co66 2.194 . S
N86 C81 1.328 . S
N86 C85 1.315 . S
H87 C81 0.929 . S
H88 C85 0.930 . S
H89 C77 0.929 . S
H90 C79 0.929 . S
O91 Co66 2.351 . S
O91 C94 1.244 . S
O92 Co66 2.155 . S
O92 C94 1.240 . S
O93 Co66 2.096 . S
O93 C74 1.247 . S
C94 O91 1.244 . S
C94 O92 1.240 . S
H95 C69 0.931 . S
H96 C78 0.931 . S
H97 C82 0.929 . S
H98 C84 0.930 . S
Co99 N103 2.148 . S
Co99 N109 2.128 . S
Co99 N119 2.194 . S
Co99 O124 2.351 . S
Co99 O125 2.155 . S
Co99 O126 2.096 . S
C100 N103 1.301 . S
C100 N104 1.328 . S
C100 H105 0.930 . S
C101 C102 1.333 . S
C101 N103 1.317 . S
C101 H106 0.930 . S
C102 C101 1.333 . S
C102 N104 1.350 . S
C102 H128 0.931 . S
N103 Co99 2.148 . S
N103 C100 1.301 . S
N103 C101 1.317 . S
N104 C100 1.328 . S
N104 C102 1.350 . S
H105 C100 0.930 . S
H106 C101 0.930 . S
C107 O108 1.224 . S
C107 O126 1.247 . S
O108 C107 1.224 . S
N109 Co99 2.128 . S
N109 C110 1.355 . S
N109 C112 1.311 . S
C110 N109 1.355 . S
C110 C111 1.363 . S
C110 H122 0.929 . S
C111 C110 1.363 . S
C111 N113 1.375 . S
C111 H129 0.931 . S
C112 N109 1.311 . S
C112 N113 1.347 . S
C112 H123 0.929 . S
N113 C111 1.375 . S
N113 C112 1.347 . S
C114 C117 1.365 . S
C114 N119 1.328 . S
C114 H120 0.929 . S
C115 C116 1.362 . S
C115 C118 1.378 . S
C115 H130 0.929 . S
C116 C115 1.362 . S
C116 C117 1.366 . S
C117 C114 1.365 . S
C117 C116 1.366 . S
C117 H131 0.930 . S
C118 C115 1.378 . S
C118 N119 1.315 . S
C118 H121 0.930 . S
N119 Co99 2.194 . S
N119 C114 1.328 . S
N119 C118 1.315 . S
H120 C114 0.929 . S
H121 C118 0.930 . S
H122 C110 0.929 . S
H123 C112 0.929 . S
O124 Co99 2.351 . S
O124 C127 1.244 . S
O125 Co99 2.155 . S
O125 C127 1.240 . S
O126 Co99 2.096 . S
O126 C107 1.247 . S
C127 O124 1.244 . S
C127 O125 1.240 . S
H128 C102 0.931 . S
H129 C111 0.931 . S
H130 C115 0.929 . S
H131 C117 0.930 . S
Co132 N136 2.148 . S
Co132 N142 2.128 . S
Co132 N152 2.194 . S
Co132 O157 2.351 . S
Co132 O158 2.155 . S
Co132 O159 2.096 . S
C133 N136 1.301 . S
C133 N137 1.328 . S
C133 H138 0.930 . S
C134 C135 1.333 . S
C134 N136 1.317 . S
C134 H139 0.930 . S
C135 C134 1.333 . S
C135 N137 1.350 . S
C135 H161 0.931 . S
N136 Co132 2.148 . S
N136 C133 1.301 . S
N136 C134 1.317 . S
N137 C133 1.328 . S
N137 C135 1.350 . S
H138 C133 0.930 . S
H139 C134 0.930 . S
C140 O141 1.224 . S
C140 O159 1.247 . S
O141 C140 1.224 . S
N142 Co132 2.128 . S
N142 C143 1.355 . S
N142 C145 1.311 . S
C143 N142 1.355 . S
C143 C144 1.363 . S
C143 H155 0.929 . S
C144 C143 1.363 . S
C144 N146 1.375 . S
C144 H162 0.931 . S
C145 N142 1.311 . S
C145 N146 1.347 . S
C145 H156 0.929 . S
N146 C144 1.375 . S
N146 C145 1.347 . S
C147 C150 1.365 . S
C147 N152 1.328 . S
C147 H153 0.929 . S
C148 C149 1.362 . S
C148 C151 1.378 . S
C148 H163 0.929 . S
C149 C148 1.362 . S
C149 C150 1.366 . S
C150 C147 1.365 . S
C150 C149 1.366 . S
C150 H164 0.930 . S
C151 C148 1.378 . S
C151 N152 1.315 . S
C151 H154 0.930 . S
N152 Co132 2.194 . S
N152 C147 1.328 . S
N152 C151 1.315 . S
H153 C147 0.929 . S
H154 C151 0.930 . S
H155 C143 0.929 . S
H156 C145 0.929 . S
O157 Co132 2.351 . S
O157 C160 1.244 . S
O158 Co132 2.155 . S
O158 C160 1.240 . S
O159 Co132 2.096 . S
O159 C140 1.247 . S
C160 O157 1.244 . S
C160 O158 1.240 . S
H161 C135 0.931 . S
H162 C144 0.931 . S
H163 C148 0.929 . S
H164 C150 0.930 . S
Co165 N169 2.148 . S
Co165 N175 2.128 . S
Co165 N185 2.194 . S
Co165 O190 2.351 . S
Co165 O191 2.155 . S
Co165 O192 2.096 . S
C166 N169 1.301 . S
C166 N170 1.328 . S
C166 H171 0.930 . S
C167 C168 1.333 . S
C167 N169 1.317 . S
C167 H172 0.930 . S
C168 C167 1.333 . S
C168 N170 1.350 . S
C168 H194 0.931 . S
N169 Co165 2.148 . S
N169 C166 1.301 . S
N169 C167 1.317 . S
N170 C166 1.328 . S
N170 C168 1.350 . S
H171 C166 0.930 . S
H172 C167 0.930 . S
C173 O174 1.224 . S
C173 O192 1.247 . S
O174 C173 1.224 . S
N175 Co165 2.128 . S
N175 C176 1.355 . S
N175 C178 1.311 . S
C176 N175 1.355 . S
C176 C177 1.363 . S
C176 H188 0.929 . S
C177 C176 1.363 . S
C177 N179 1.375 . S
C177 H195 0.931 . S
C178 N175 1.311 . S
C178 N179 1.347 . S
C178 H189 0.929 . S
N179 C177 1.375 . S
N179 C178 1.347 . S
C180 C183 1.365 . S
C180 N185 1.328 . S
C180 H186 0.929 . S
C181 C182 1.362 . S
C181 C184 1.378 . S
C181 H196 0.929 . S
C182 C181 1.362 . S
C182 C183 1.366 . S
C183 C180 1.365 . S
C183 C182 1.366 . S
C183 H197 0.930 . S
C184 C181 1.378 . S
C184 N185 1.315 . S
C184 H187 0.930 . S
N185 Co165 2.194 . S
N185 C180 1.328 . S
N185 C184 1.315 . S
H186 C180 0.929 . S
H187 C184 0.930 . S
H188 C176 0.929 . S
H189 C178 0.929 . S
O190 Co165 2.351 . S
O190 C193 1.244 . S
O191 Co165 2.155 . S
O191 C193 1.240 . S
O192 Co165 2.096 . S
O192 C173 1.247 . S
C193 O190 1.244 . S
C193 O191 1.240 . S
H194 C168 0.931 . S
H195 C177 0.931 . S
H196 C181 0.929 . S
H197 C183 0.930 . S
Co198 N202 2.148 . S
Co198 N208 2.128 . S
Co198 N218 2.194 . S
Co198 O223 2.351 . S
Co198 O224 2.155 . S
Co198 O225 2.096 . S
C199 N202 1.301 . S
C199 N203 1.328 . S
C199 H204 0.930 . S
C200 C201 1.333 . S
C200 N202 1.317 . S
C200 H205 0.930 . S
C201 C200 1.333 . S
C201 N203 1.350 . S
C201 H227 0.931 . S
N202 Co198 2.148 . S
N202 C199 1.301 . S
N202 C200 1.317 . S
N203 C199 1.328 . S
N203 C201 1.350 . S
H204 C199 0.930 . S
H205 C200 0.930 . S
C206 O207 1.224 . S
C206 O225 1.247 . S
O207 C206 1.224 . S
N208 Co198 2.128 . S
N208 C209 1.355 . S
N208 C211 1.311 . S
C209 N208 1.355 . S
C209 C210 1.363 . S
C209 H221 0.929 . S
C210 C209 1.363 . S
C210 N212 1.375 . S
C210 H228 0.931 . S
C211 N208 1.311 . S
C211 N212 1.347 . S
C211 H222 0.929 . S
N212 C210 1.375 . S
N212 C211 1.347 . S
C213 C216 1.365 . S
C213 N218 1.328 . S
C213 H219 0.929 . S
C214 C215 1.362 . S
C214 C217 1.378 . S
C214 H229 0.929 . S
C215 C214 1.362 . S
C215 C216 1.366 . S
C216 C213 1.365 . S
C216 C215 1.366 . S
C216 H230 0.930 . S
C217 C214 1.378 . S
C217 N218 1.315 . S
C217 H220 0.930 . S
N218 Co198 2.194 . S
N218 C213 1.328 . S
N218 C217 1.315 . S
H219 C213 0.929 . S
H220 C217 0.930 . S
H221 C209 0.929 . S
H222 C211 0.929 . S
O223 Co198 2.351 . S
O223 C226 1.244 . S
O224 Co198 2.155 . S
O224 C226 1.240 . S
O225 Co198 2.096 . S
O225 C206 1.247 . S
C226 O223 1.244 . S
C226 O224 1.240 . S
H227 C201 0.931 . S
H228 C210 0.931 . S
H229 C214 0.929 . S
H230 C216 0.930 . S
Co231 N235 2.148 . S
Co231 N241 2.128 . S
Co231 N251 2.194 . S
Co231 O256 2.351 . S
Co231 O257 2.155 . S
Co231 O258 2.096 . S
C232 N235 1.301 . S
C232 N236 1.328 . S
C232 H237 0.930 . S
C233 C234 1.333 . S
C233 N235 1.317 . S
C233 H238 0.930 . S
C234 C233 1.333 . S
C234 N236 1.350 . S
C234 H260 0.931 . S
N235 Co231 2.148 . S
N235 C232 1.301 . S
N235 C233 1.317 . S
N236 C232 1.328 . S
N236 C234 1.350 . S
H237 C232 0.930 . S
H238 C233 0.930 . S
C239 O240 1.224 . S
C239 O258 1.247 . S
O240 C239 1.224 . S
N241 Co231 2.128 . S
N241 C242 1.355 . S
N241 C244 1.311 . S
C242 N241 1.355 . S
C242 C243 1.363 . S
C242 H254 0.929 . S
C243 C242 1.363 . S
C243 N245 1.375 . S
C243 H261 0.931 . S
C244 N241 1.311 . S
C244 N245 1.347 . S
C244 H255 0.929 . S
N245 C243 1.375 . S
N245 C244 1.347 . S
C246 C249 1.365 . S
C246 N251 1.328 . S
C246 H252 0.929 . S
C247 C248 1.362 . S
C247 C250 1.378 . S
C247 H262 0.929 . S
C248 C247 1.362 . S
C248 C249 1.366 . S
C249 C246 1.365 . S
C249 C248 1.366 . S
C249 H263 0.930 . S
C250 C247 1.378 . S
C250 N251 1.315 . S
C250 H253 0.930 . S
N251 Co231 2.194 . S
N251 C246 1.328 . S
N251 C250 1.315 . S
H252 C246 0.929 . S
H253 C250 0.930 . S
H254 C242 0.929 . S
H255 C244 0.929 . S
O256 Co231 2.351 . S
O256 C259 1.244 . S
O257 Co231 2.155 . S
O257 C259 1.240 . S
O258 Co231 2.096 . S
O258 C239 1.247 . S
C259 O256 1.244 . S
C259 O257 1.240 . S
H260 C234 0.931 . S
H261 C243 0.931 . S
H262 C247 0.929 . S
H263 C249 0.930 . S
Co264 N268 2.148 . S
Co264 N274 2.128 . S
Co264 N284 2.194 . S
Co264 O289 2.351 . S
Co264 O290 2.155 . S
Co264 O291 2.096 . S
C265 N268 1.301 . S
C265 N269 1.328 . S
C265 H270 0.930 . S
C266 C267 1.333 . S
C266 N268 1.317 . S
C266 H271 0.930 . S
C267 C266 1.333 . S
C267 N269 1.350 . S
C267 H293 0.931 . S
N268 Co264 2.148 . S
N268 C265 1.301 . S
N268 C266 1.317 . S
N269 C265 1.328 . S
N269 C267 1.350 . S
H270 C265 0.930 . S
H271 C266 0.930 . S
C272 O273 1.224 . S
C272 O291 1.247 . S
O273 C272 1.224 . S
N274 Co264 2.128 . S
N274 C275 1.355 . S
N274 C277 1.311 . S
C275 N274 1.355 . S
C275 C276 1.363 . S
C275 H287 0.929 . S
C276 C275 1.363 . S
C276 N278 1.375 . S
C276 H294 0.931 . S
C277 N274 1.311 . S
C277 N278 1.347 . S
C277 H288 0.929 . S
N278 C276 1.375 . S
N278 C277 1.347 . S
C279 C282 1.365 . S
C279 N284 1.328 . S
C279 H285 0.929 . S
C280 C281 1.362 . S
C280 C283 1.378 . S
C280 H295 0.929 . S
C281 C280 1.362 . S
C281 C282 1.366 . S
C282 C279 1.365 . S
C282 C281 1.366 . S
C282 H296 0.930 . S
C283 C280 1.378 . S
C283 N284 1.315 . S
C283 H286 0.930 . S
N284 Co264 2.194 . S
N284 C279 1.328 . S
N284 C283 1.315 . S
H285 C279 0.929 . S
H286 C283 0.930 . S
H287 C275 0.929 . S
H288 C277 0.929 . S
O289 Co264 2.351 . S
O289 C292 1.244 . S
O290 Co264 2.155 . S
O290 C292 1.240 . S
O291 Co264 2.096 . S
O291 C272 1.247 . S
C292 O289 1.244 . S
C292 O290 1.240 . S
H293 C267 0.931 . S
H294 C276 0.931 . S
H295 C280 0.929 . S
H296 C282 0.930 . S
Co297 N301 2.148 . S
Co297 N307 2.128 . S
Co297 N317 2.194 . S
Co297 O322 2.351 . S
Co297 O323 2.155 . S
Co297 O324 2.096 . S
C298 N301 1.301 . S
C298 N302 1.328 . S
C298 H303 0.930 . S
C299 C300 1.333 . S
C299 N301 1.317 . S
C299 H304 0.930 . S
C300 C299 1.333 . S
C300 N302 1.350 . S
C300 H326 0.931 . S
N301 Co297 2.148 . S
N301 C298 1.301 . S
N301 C299 1.317 . S
N302 C298 1.328 . S
N302 C300 1.350 . S
H303 C298 0.930 . S
H304 C299 0.930 . S
C305 O306 1.224 . S
C305 O324 1.247 . S
O306 C305 1.224 . S
N307 Co297 2.128 . S
N307 C308 1.355 . S
N307 C310 1.311 . S
C308 N307 1.355 . S
C308 C309 1.363 . S
C308 H320 0.929 . S
C309 C308 1.363 . S
C309 N311 1.375 . S
C309 H327 0.931 . S
C310 N307 1.311 . S
C310 N311 1.347 . S
C310 H321 0.929 . S
N311 C309 1.375 . S
N311 C310 1.347 . S
C312 C315 1.365 . S
C312 N317 1.328 . S
C312 H318 0.929 . S
C313 C314 1.362 . S
C313 C316 1.378 . S
C313 H328 0.929 . S
C314 C313 1.362 . S
C314 C315 1.366 . S
C315 C312 1.365 . S
C315 C314 1.366 . S
C315 H329 0.930 . S
C316 C313 1.378 . S
C316 N317 1.315 . S
C316 H319 0.930 . S
N317 Co297 2.194 . S
N317 C312 1.328 . S
N317 C316 1.315 . S
H318 C312 0.929 . S
H319 C316 0.930 . S
H320 C308 0.929 . S
H321 C310 0.929 . S
O322 Co297 2.351 . S
O322 C325 1.244 . S
O323 Co297 2.155 . S
O323 C325 1.240 . S
O324 Co297 2.096 . S
O324 C305 1.247 . S
C325 O322 1.244 . S
C325 O323 1.240 . S
H326 C300 0.931 . S
H327 C309 0.931 . S
H328 C313 0.929 . S
H329 C315 0.930 . S
Co330 N334 2.148 . S
Co330 N340 2.128 . S
Co330 N350 2.194 . S
Co330 O355 2.351 . S
Co330 O356 2.155 . S
Co330 O357 2.096 . S
C331 N334 1.301 . S
C331 N335 1.328 . S
C331 H336 0.930 . S
C332 C333 1.333 . S
C332 N334 1.317 . S
C332 H337 0.930 . S
C333 C332 1.333 . S
C333 N335 1.350 . S
C333 H359 0.931 . S
N334 Co330 2.148 . S
N334 C331 1.301 . S
N334 C332 1.317 . S
N335 C331 1.328 . S
N335 C333 1.350 . S
H336 C331 0.930 . S
H337 C332 0.930 . S
C338 O339 1.224 . S
C338 O357 1.247 . S
O339 C338 1.224 . S
N340 Co330 2.128 . S
N340 C341 1.355 . S
N340 C343 1.311 . S
C341 N340 1.355 . S
C341 C342 1.363 . S
C341 H353 0.929 . S
C342 C341 1.363 . S
C342 N344 1.375 . S
C342 H360 0.931 . S
C343 N340 1.311 . S
C343 N344 1.347 . S
C343 H354 0.929 . S
N344 C342 1.375 . S
N344 C343 1.347 . S
C345 C348 1.365 . S
C345 N350 1.328 . S
C345 H351 0.929 . S
C346 C347 1.362 . S
C346 C349 1.378 . S
C346 H361 0.929 . S
C347 C346 1.362 . S
C347 C348 1.366 . S
C348 C345 1.365 . S
C348 C347 1.366 . S
C348 H362 0.930 . S
C349 C346 1.378 . S
C349 N350 1.315 . S
C349 H352 0.930 . S
N350 Co330 2.194 . S
N350 C345 1.328 . S
N350 C349 1.315 . S
H351 C345 0.929 . S
H352 C349 0.930 . S
H353 C341 0.929 . S
H354 C343 0.929 . S
O355 Co330 2.351 . S
O355 C358 1.244 . S
O356 Co330 2.155 . S
O356 C358 1.240 . S
O357 Co330 2.096 . S
O357 C338 1.247 . S
C358 O355 1.244 . S
C358 O356 1.240 . S
H359 C333 0.931 . S
H360 C342 0.931 . S
H361 C346 0.929 . S
H362 C348 0.930 . S
Co363 N367 2.148 . S
Co363 N373 2.128 . S
Co363 N383 2.194 . S
Co363 O388 2.351 . S
Co363 O389 2.155 . S
Co363 O390 2.096 . S
C364 N367 1.301 . S
C364 N368 1.328 . S
C364 H369 0.930 . S
C365 C366 1.333 . S
C365 N367 1.317 . S
C365 H370 0.930 . S
C366 C365 1.333 . S
C366 N368 1.350 . S
C366 H392 0.931 . S
N367 Co363 2.148 . S
N367 C364 1.301 . S
N367 C365 1.317 . S
N368 C364 1.328 . S
N368 C366 1.350 . S
H369 C364 0.930 . S
H370 C365 0.930 . S
C371 O372 1.224 . S
C371 O390 1.247 . S
O372 C371 1.224 . S
N373 Co363 2.128 . S
N373 C374 1.355 . S
N373 C376 1.311 . S
C374 N373 1.355 . S
C374 C375 1.363 . S
C374 H386 0.929 . S
C375 C374 1.363 . S
C375 N377 1.375 . S
C375 H393 0.931 . S
C376 N373 1.311 . S
C376 N377 1.347 . S
C376 H387 0.929 . S
N377 C375 1.375 . S
N377 C376 1.347 . S
C378 C381 1.365 . S
C378 N383 1.328 . S
C378 H384 0.929 . S
C379 C380 1.362 . S
C379 C382 1.378 . S
C379 H394 0.929 . S
C380 C379 1.362 . S
C380 C381 1.366 . S
C381 C378 1.365 . S
C381 C380 1.366 . S
C381 H395 0.930 . S
C382 C379 1.378 . S
C382 N383 1.315 . S
C382 H385 0.930 . S
N383 Co363 2.194 . S
N383 C378 1.328 . S
N383 C382 1.315 . S
H384 C378 0.929 . S
H385 C382 0.930 . S
H386 C374 0.929 . S
H387 C376 0.929 . S
O388 Co363 2.351 . S
O388 C391 1.244 . S
O389 Co363 2.155 . S
O389 C391 1.240 . S
O390 Co363 2.096 . S
O390 C371 1.247 . S
C391 O388 1.244 . S
C391 O389 1.240 . S
H392 C366 0.931 . S
H393 C375 0.931 . S
H394 C379 0.929 . S
H395 C381 0.930 . S
H396 C414 0.951 . S
H397 C416 0.951 . S
H398 C418 0.950 . S
H399 C419 0.950 . S
H400 C421 0.950 . S
H401 C424 0.950 . S
H402 C425 0.950 . S
H403 C427 0.950 . S
H404 C428 0.950 . S
H405 C429 0.951 . S
H406 C431 0.951 . S
H407 C433 0.950 . S
H408 C434 0.950 . S
H409 C436 0.950 . S
H410 C439 0.950 . S
H411 C440 0.950 . S
H412 C442 0.950 . S
H413 C443 0.950 . S
C414 H396 0.951 . S
C414 C415 1.366 . S
C414 C416 1.388 . S
C415 C414 1.366 . S
C415 C419 1.385 . S
C416 H397 0.951 . S
C416 C414 1.388 . S
C416 C417 1.366 . S
C417 C416 1.366 . S
C417 C418 1.414 . S
C417 C420 1.499 . S
C418 H398 0.950 . S
C418 C417 1.414 . S
C418 C419 1.374 . S
C419 H399 0.950 . S
C419 C415 1.385 . S
C419 C418 1.374 . S
C420 C417 1.499 . S
C420 C421 1.373 . S
C420 C422 1.389 . S
C421 H400 0.950 . S
C421 C420 1.373 . S
C421 C437 1.377 . S
C422 C420 1.389 . S
C422 C423 1.524 . S
C422 C436 1.377 . S
C423 C422 1.524 . S
C423 C424 1.397 . S
C423 C428 1.363 . S
C424 H401 0.950 . S
C424 C423 1.397 . S
C424 C425 1.334 . S
C425 H402 0.950 . S
C425 C424 1.334 . S
C425 C426 1.287 . S
C426 C425 1.287 . S
C426 C427 1.524 . S
C426 H445 0.913 . S
C427 H403 0.950 . S
C427 C426 1.524 . S
C427 C428 1.415 . S
C428 H404 0.950 . S
C428 C423 1.363 . S
C428 C427 1.415 . S
C429 H405 0.951 . S
C429 C430 1.366 . S
C429 C431 1.388 . S
C430 C429 1.366 . S
C430 C434 1.385 . S
C431 H406 0.951 . S
C431 C429 1.388 . S
C431 C432 1.366 . S
C432 C431 1.366 . S
C432 C433 1.414 . S
C432 C435 1.499 . S
C433 H407 0.950 . S
C433 C432 1.414 . S
C433 C434 1.374 . S
C434 H408 0.950 . S
C434 C430 1.385 . S
C434 C433 1.374 . S
C435 C432 1.499 . S
C435 C436 1.373 . S
C435 C437 1.389 . S
C436 H409 0.950 . S
C436 C422 1.377 . S
C436 C435 1.373 . S
C437 C421 1.377 . S
C437 C435 1.389 . S
C437 C438 1.524 . S
C438 C437 1.524 . S
C438 C439 1.397 . S
C438 C443 1.363 . S
C439 H410 0.950 . S
C439 C438 1.397 . S
C439 C440 1.334 . S
C440 H411 0.950 . S
C440 C439 1.334 . S
C440 C441 1.287 . S
C441 C440 1.287 . S
C441 C442 1.524 . S
C441 H444 0.999 . S
C442 H412 0.950 . S
C442 C441 1.524 . S
C442 C443 1.415 . S
C443 H413 0.950 . S
C443 C438 1.363 . S
C443 C442 1.415 . S
H444 C441 0.999 . S
H445 C426 0.913 . S
H446 C464 0.951 . S
H447 C466 0.951 . S
H448 C468 0.950 1_455 S
H449 C469 0.950 . S
H450 C471 0.950 . S
H451 C474 0.950 . S
H452 C475 0.950 . S
H453 C477 0.950 . S
H454 C478 0.950 . S
H455 C479 0.951 . S
H456 C481 0.951 . S
H457 C483 0.950 1_655 S
H458 C484 0.950 . S
H459 C486 0.950 . S
H460 C489 0.950 . S
H461 C490 0.950 . S
H462 C492 0.950 . S
H463 C493 0.950 . S
C464 H446 0.951 . S
C464 C465 1.366 . S
C464 C466 1.388 . S
C465 C464 1.366 . S
C465 C469 1.385 . S
C466 H447 0.951 . S
C466 C464 1.388 . S
C466 C467 1.366 . S
C467 C466 1.366 . S
C467 C468 1.414 . S
C467 C470 1.499 . S
C468 H448 0.950 1_655 S
C468 C467 1.414 . S
C468 C469 1.374 . S
C469 H449 0.950 . S
C469 C465 1.385 . S
C469 C468 1.374 . S
C470 C467 1.499 . S
C470 C471 1.373 . S
C470 C472 1.394 1_655 S
C471 H450 0.950 . S
C471 C470 1.373 . S
C471 C487 1.380 . S
C472 C470 1.394 1_455 S
C472 C473 1.518 . S
C472 C486 1.380 . S
C473 C472 1.518 . S
C473 C474 1.397 . S
C473 C478 1.363 1_455 S
C474 H451 0.950 . S
C474 C473 1.397 . S
C474 C475 1.334 . S
C475 H452 0.950 . S
C475 C474 1.334 . S
C475 C476 1.287 . S
C476 C475 1.287 . S
C476 C477 1.524 1_455 S
C476 H495 0.913 . S
C477 H453 0.950 . S
C477 C476 1.524 1_655 S
C477 C478 1.415 . S
C478 H454 0.950 . S
C478 C473 1.363 1_655 S
C478 C477 1.415 . S
C479 H455 0.951 . S
C479 C480 1.366 . S
C479 C481 1.388 . S
C480 C479 1.366 . S
C480 C484 1.385 . S
C481 H456 0.951 . S
C481 C479 1.388 . S
C481 C482 1.366 . S
C482 C481 1.366 . S
C482 C483 1.414 . S
C482 C485 1.499 . S
C483 H457 0.950 1_455 S
C483 C482 1.414 . S
C483 C484 1.374 . S
C484 H458 0.950 . S
C484 C480 1.385 . S
C484 C483 1.374 . S
C485 C482 1.499 . S
C485 C486 1.373 . S
C485 C487 1.393 1_455 S
C486 H459 0.950 . S
C486 C472 1.380 . S
C486 C485 1.373 . S
C487 C471 1.380 . S
C487 C485 1.393 1_655 S
C487 C488 1.518 . S
C488 C487 1.518 . S
C488 C489 1.397 . S
C488 C493 1.363 1_655 S
C489 H460 0.950 . S
C489 C488 1.397 . S
C489 C490 1.334 . S
C490 H461 0.950 . S
C490 C489 1.334 . S
C490 C491 1.287 . S
C491 C490 1.287 . S
C491 C492 1.524 1_655 S
C491 H494 0.999 . S
C492 H462 0.950 . S
C492 C491 1.524 1_455 S
C492 C493 1.415 . S
C493 H463 0.950 . S
C493 C488 1.363 1_455 S
C493 C492 1.415 . S
H494 C491 0.999 . S
H495 C476 0.913 . S
H496 C514 0.951 . S
H497 C516 0.951 . S
H498 C518 0.950 . S
H499 C519 0.950 1_545 S
H500 C521 0.950 . S
H501 C524 0.950 . S
H502 C525 0.950 . S
H503 C527 0.950 . S
H504 C528 0.950 1_554 S
H505 C529 0.951 . S
H506 C531 0.951 . S
H507 C533 0.950 . S
H508 C534 0.950 1_565 S
H509 C536 0.950 . S
H510 C539 0.950 . S
H511 C540 0.950 . S
H512 C542 0.950 . S
H513 C543 0.950 1_556 S
C514 H496 0.951 . S
C514 C515 1.366 . S
C514 C516 1.388 . S
C515 C514 1.366 . S
C515 C519 1.385 . S
C516 H497 0.951 . S
C516 C514 1.388 . S
C516 C517 1.366 . S
C517 C516 1.366 . S
C517 C518 1.414 1_565 S
C517 C520 1.499 . S
C518 H498 0.950 . S
C518 C517 1.414 1_545 S
C518 C519 1.374 1_545 S
C519 H499 0.950 1_565 S
C519 C515 1.385 . S
C519 C518 1.374 1_565 S
C520 C517 1.499 . S
C520 C521 1.373 1_565 S
C520 C522 1.389 . S
C521 H500 0.950 . S
C521 C520 1.373 1_545 S
C521 C537 1.377 1_556 S
C522 C520 1.389 . S
C522 C523 1.524 . S
C522 C536 1.377 1_556 S
C523 C522 1.524 . S
C523 C524 1.397 . S
C523 C528 1.363 . S
C524 H501 0.950 . S
C524 C523 1.397 . S
C524 C525 1.334 . S
C525 H502 0.950 . S
C525 C524 1.334 . S
C525 C526 1.287 . S
C526 C525 1.287 . S
C526 C527 1.524 . S
C526 H545 0.913 . S
C527 H503 0.950 . S
C527 C526 1.524 . S
C527 C528 1.415 . S
C528 H504 0.950 1_556 S
C528 C523 1.363 . S
C528 C527 1.415 . S
C529 H505 0.951 . S
C529 C530 1.366 . S
C529 C531 1.388 . S
C530 C529 1.366 . S
C530 C534 1.385 . S
C531 H506 0.951 . S
C531 C529 1.388 . S
C531 C532 1.366 . S
C532 C531 1.366 . S
C532 C533 1.414 1_545 S
C532 C535 1.499 . S
C533 H507 0.950 . S
C533 C532 1.414 1_565 S
C533 C534 1.374 1_565 S
C534 H508 0.950 1_545 S
C534 C530 1.385 . S
C534 C533 1.374 1_545 S
C535 C532 1.499 . S
C535 C536 1.373 1_545 S
C535 C537 1.389 . S
C536 H509 0.950 . S
C536 C522 1.377 1_554 S
C536 C535 1.373 1_565 S
C537 C521 1.377 1_554 S
C537 C535 1.389 . S
C537 C538 1.524 . S
C538 C537 1.524 . S
C538 C539 1.397 . S
C538 C543 1.363 . S
C539 H510 0.950 . S
C539 C538 1.397 . S
C539 C540 1.334 . S
C540 H511 0.950 . S
C540 C539 1.334 . S
C540 C541 1.287 . S
C541 C540 1.287 . S
C541 C542 1.524 . S
C541 H544 0.999 . S
C542 H512 0.950 . S
C542 C541 1.524 . S
C542 C543 1.415 . S
C543 H513 0.950 1_554 S
C543 C538 1.363 . S
C543 C542 1.415 . S
H544 C541 0.999 . S
H545 C526 0.913 . S
H546 C564 0.951 . S
H547 C566 0.951 . S
H548 C568 0.950 . S
H549 C569 0.950 . S
H550 C571 0.950 . S
H551 C574 0.950 . S
H552 C575 0.950 . S
H553 C577 0.950 . S
H554 C578 0.950 . S
H555 C579 0.951 . S
H556 C581 0.951 . S
H557 C583 0.950 . S
H558 C584 0.950 . S
H559 C586 0.950 . S
H560 C589 0.950 . S
H561 C590 0.950 . S
H562 C592 0.950 . S
H563 C593 0.950 . S
C564 H546 0.951 . S
C564 C565 1.366 . S
C564 C566 1.388 . S
C565 C564 1.366 . S
C565 C569 1.385 . S
C566 H547 0.951 . S
C566 C564 1.388 . S
C566 C567 1.366 . S
C567 C566 1.366 . S
C567 C568 1.414 . S
C567 C570 1.499 . S
C568 H548 0.950 . S
C568 C567 1.414 . S
C568 C569 1.374 . S
C569 H549 0.950 . S
C569 C565 1.385 . S
C569 C568 1.374 . S
C570 C567 1.499 . S
C570 C571 1.373 . S
C570 C572 1.389 . S
C571 H550 0.950 . S
C571 C570 1.373 . S
C571 C587 1.377 . S
C572 C570 1.389 . S
C572 C573 1.524 . S
C572 C586 1.377 . S
C573 C572 1.524 . S
C573 C574 1.397 . S
C573 C578 1.363 . S
C574 H551 0.950 . S
C574 C573 1.397 . S
C574 C575 1.334 . S
C575 H552 0.950 . S
C575 C574 1.334 . S
C575 C576 1.287 . S
C576 C575 1.287 . S
C576 C577 1.524 . S
C576 H595 0.913 . S
C577 H553 0.950 . S
C577 C576 1.524 . S
C577 C578 1.415 . S
C578 H554 0.950 . S
C578 C573 1.363 . S
C578 C577 1.415 . S
C579 H555 0.951 . S
C579 C580 1.366 . S
C579 C581 1.388 . S
C580 C579 1.366 . S
C580 C584 1.385 . S
C581 H556 0.951 . S
C581 C579 1.388 . S
C581 C582 1.366 . S
C582 C581 1.366 . S
C582 C583 1.414 . S
C582 C585 1.499 . S
C583 H557 0.950 . S
C583 C582 1.414 . S
C583 C584 1.374 . S
C584 H558 0.950 . S
C584 C580 1.385 . S
C584 C583 1.374 . S
C585 C582 1.499 . S
C585 C586 1.373 . S
C585 C587 1.389 . S
C586 H559 0.950 . S
C586 C572 1.377 . S
C586 C585 1.373 . S
C587 C571 1.377 . S
C587 C585 1.389 . S
C587 C588 1.524 . S
C588 C587 1.524 . S
C588 C589 1.397 . S
C588 C593 1.363 . S
C589 H560 0.950 . S
C589 C588 1.397 . S
C589 C590 1.334 . S
C590 H561 0.950 . S
C590 C589 1.334 . S
C590 C591 1.287 . S
C591 C590 1.287 . S
C591 C592 1.524 . S
C591 H594 0.999 . S
C592 H562 0.950 . S
C592 C591 1.524 . S
C592 C593 1.415 . S
C593 H563 0.950 . S
C593 C588 1.363 . S
C593 C592 1.415 . S
H594 C591 0.999 . S
H595 C576 0.913 . S
H596 C614 0.951 1_655 S
H597 C616 0.977 . S
H598 C618 0.950 . S
H599 C619 0.950 . S
H600 C621 0.950 . S
H601 C624 0.950 . S
H602 C625 0.950 . S
H603 C627 0.950 . S
H604 C628 0.950 . S
H605 C629 0.951 1_455 S
H606 C631 0.976 . S
H607 C633 0.950 . S
H608 C634 0.950 . S
H609 C636 0.950 . S
H610 C639 0.950 . S
H611 C640 0.950 . S
H612 C642 0.950 . S
H613 C643 0.950 . S
C614 H596 0.951 1_455 S
C614 C615 1.366 . S
C614 C616 1.378 1_455 S
C615 C614 1.366 . S
C615 C619 1.385 . S
C616 H597 0.977 . S
C616 C614 1.378 1_655 S
C616 C617 1.352 1_655 S
C617 C616 1.352 1_455 S
C617 C618 1.414 . S
C617 C620 1.499 . S
C618 H598 0.950 . S
C618 C617 1.414 . S
C618 C619 1.374 . S
C619 H599 0.950 . S
C619 C615 1.385 . S
C619 C618 1.374 . S
C620 C617 1.499 . S
C620 C621 1.373 . S
C620 C622 1.389 1_455 S
C621 H600 0.950 . S
C621 C620 1.373 . S
C621 C637 1.377 . S
C622 C620 1.389 1_655 S
C622 C623 1.524 . S
C622 C636 1.377 . S
C623 C622 1.524 . S
C623 C624 1.397 . S
C623 C628 1.363 . S
C624 H601 0.950 . S
C624 C623 1.397 . S
C624 C625 1.334 . S
C625 H602 0.950 . S
C625 C624 1.334 . S
C625 C626 1.287 . S
C626 C625 1.287 . S
C626 C627 1.524 . S
C626 H645 0.913 . S
C627 H603 0.950 . S
C627 C626 1.524 . S
C627 C628 1.415 . S
C628 H604 0.950 . S
C628 C623 1.363 . S
C628 C627 1.415 . S
C629 H605 0.951 1_655 S
C629 C630 1.366 . S
C629 C631 1.378 1_655 S
C630 C629 1.366 . S
C630 C634 1.385 . S
C631 H606 0.976 . S
C631 C629 1.378 1_455 S
C631 C632 1.352 1_455 S
C632 C631 1.352 1_655 S
C632 C633 1.414 . S
C632 C635 1.499 . S
C633 H607 0.950 . S
C633 C632 1.414 . S
C633 C634 1.374 . S
C634 H608 0.950 . S
C634 C630 1.385 . S
C634 C633 1.374 . S
C635 C632 1.499 . S
C635 C636 1.373 . S
C635 C637 1.389 1_655 S
C636 H609 0.950 . S
C636 C622 1.377 . S
C636 C635 1.373 . S
C637 C621 1.377 . S
C637 C635 1.389 1_455 S
C637 C638 1.524 . S
C638 C637 1.524 . S
C638 C639 1.397 . S
C638 C643 1.363 . S
C639 H610 0.950 . S
C639 C638 1.397 . S
C639 C640 1.334 . S
C640 H611 0.950 . S
C640 C639 1.334 . S
C640 C641 1.287 . S
C641 C640 1.287 . S
C641 C642 1.524 . S
C641 H644 0.999 . S
C642 H612 0.950 . S
C642 C641 1.524 . S
C642 C643 1.415 . S
C643 H613 0.950 . S
C643 C638 1.363 . S
C643 C642 1.415 . S
H644 C641 0.999 . S
H645 C626 0.913 . S
H646 C664 0.951 . S
H647 C666 0.951 . S
H648 C668 0.950 1_565 S
H649 C669 0.950 . S
H650 C671 0.950 . S
H651 C674 0.950 . S
H652 C675 0.950 . S
H653 C677 0.950 1_545 S
H654 C678 0.950 . S
H655 C679 0.951 . S
H656 C681 0.951 . S
H657 C683 0.950 1_545 S
H658 C684 0.950 . S
H659 C686 0.950 . S
H660 C689 0.950 . S
H661 C690 0.950 . S
H662 C692 0.950 1_565 S
H663 C693 0.950 . S
C664 H646 0.951 . S
C664 C665 1.366 . S
C664 C666 1.388 . S
C665 C664 1.366 . S
C665 C669 1.385 . S
C666 H647 0.951 . S
C666 C664 1.388 . S
C666 C667 1.366 . S
C667 C666 1.366 . S
C667 C668 1.414 . S
C667 C670 1.499 . S
C668 H648 0.950 1_545 S
C668 C667 1.414 . S
C668 C669 1.374 . S
C669 H649 0.950 . S
C669 C665 1.385 . S
C669 C668 1.374 . S
C670 C667 1.499 . S
C670 C671 1.373 . S
C670 C672 1.389 1_545 S
C671 H650 0.950 . S
C671 C670 1.373 . S
C671 C687 1.377 1_556 S
C672 C670 1.389 1_565 S
C672 C673 1.524 . S
C672 C686 1.377 1_556 S
C673 C672 1.524 . S
C673 C674 1.397 . S
C673 C678 1.363 1_565 S
C674 H651 0.950 . S
C674 C673 1.397 . S
C674 C675 1.334 . S
C675 H652 0.950 . S
C675 C674 1.334 . S
C675 C676 1.287 . S
C676 C675 1.287 . S
C676 C677 1.524 . S
C676 H695 0.913 . S
C677 H653 0.950 1_565 S
C677 C676 1.524 . S
C677 C678 1.415 1_565 S
C678 H654 0.950 . S
C678 C673 1.363 1_545 S
C678 C677 1.415 1_545 S
C679 H655 0.951 . S
C679 C680 1.366 . S
C679 C681 1.388 . S
C680 C679 1.366 . S
C680 C684 1.385 . S
C681 H656 0.951 . S
C681 C679 1.388 . S
C681 C682 1.366 . S
C682 C681 1.366 . S
C682 C683 1.414 . S
C682 C685 1.499 . S
C683 H657 0.950 1_565 S
C683 C682 1.414 . S
C683 C684 1.374 . S
C684 H658 0.950 . S
C684 C680 1.385 . S
C684 C683 1.374 . S
C685 C682 1.499 . S
C685 C686 1.373 . S
C685 C687 1.389 1_565 S
C686 H659 0.950 . S
C686 C672 1.377 1_554 S
C686 C685 1.373 . S
C687 C671 1.377 1_554 S
C687 C685 1.389 1_545 S
C687 C688 1.524 . S
C688 C687 1.524 . S
C688 C689 1.397 . S
C688 C693 1.363 1_545 S
C689 H660 0.950 . S
C689 C688 1.397 . S
C689 C690 1.334 . S
C690 H661 0.950 . S
C690 C689 1.334 . S
C690 C691 1.287 . S
C691 C690 1.287 . S
C691 C692 1.524 . S
C691 H694 0.999 . S
C692 H662 0.950 1_545 S
C692 C691 1.524 . S
C692 C693 1.415 1_545 S
C693 H663 0.950 . S
C693 C688 1.363 1_565 S
C693 C692 1.415 1_565 S
H694 C691 0.999 . S
H695 C676 0.913 . S
H696 C714 0.951 . S
H697 C716 0.951 . S
H698 C718 0.950 . S
H699 C719 0.950 . S
H700 C721 0.950 . S
H701 C724 0.950 . S
H702 C725 0.950 . S
H703 C727 0.950 . S
H704 C728 0.945 1_554 S
H705 C729 0.951 . S
H706 C731 0.951 . S
H707 C733 0.950 . S
H708 C734 0.950 . S
H709 C736 0.950 . S
H710 C739 0.950 . S
H711 C740 0.950 . S
H712 C742 0.950 . S
H713 C743 0.946 1_556 S
C714 H696 0.951 . S
C714 C715 1.366 . S
C714 C716 1.388 . S
C715 C714 1.366 . S
C715 C719 1.385 . S
C716 H697 0.951 . S
C716 C714 1.388 . S
C716 C717 1.366 . S
C717 C716 1.366 . S
C717 C718 1.414 . S
C717 C720 1.499 . S
C718 H698 0.950 . S
C718 C717 1.414 . S
C718 C719 1.374 . S
C719 H699 0.950 . S
C719 C715 1.385 . S
C719 C718 1.374 . S
C720 C717 1.499 . S
C720 C721 1.373 . S
C720 C722 1.389 . S
C721 H700 0.950 . S
C721 C720 1.373 . S
C721 C737 1.377 1_556 S
C722 C720 1.389 . S
C722 C723 1.524 . S
C722 C736 1.377 1_556 S
C723 C722 1.524 . S
C723 C724 1.397 . S
C723 C728 1.363 . S
C724 H701 0.950 . S
C724 C723 1.397 . S
C724 C725 1.334 . S
C725 H702 0.950 . S
C725 C724 1.334 . S
C725 C726 1.287 . S
C726 C725 1.287 . S
C726 C727 1.524 . S
C726 H745 0.913 . S
C727 H703 0.950 . S
C727 C726 1.524 . S
C727 C728 1.415 . S
C728 H704 0.945 1_556 S
C728 C723 1.363 . S
C728 C727 1.415 . S
C729 H705 0.951 . S
C729 C730 1.366 . S
C729 C731 1.388 . S
C730 C729 1.366 . S
C730 C734 1.385 . S
C731 H706 0.951 . S
C731 C729 1.388 . S
C731 C732 1.366 . S
C732 C731 1.366 . S
C732 C733 1.414 . S
C732 C735 1.499 . S
C733 H707 0.950 . S
C733 C732 1.414 . S
C733 C734 1.374 . S
C734 H708 0.950 . S
C734 C730 1.385 . S
C734 C733 1.374 . S
C735 C732 1.499 . S
C735 C736 1.373 . S
C735 C737 1.389 . S
C736 H709 0.950 . S
C736 C722 1.377 1_554 S
C736 C735 1.373 . S
C737 C721 1.377 1_554 S
C737 C735 1.389 . S
C737 C738 1.524 . S
C738 C737 1.524 . S
C738 C739 1.397 . S
C738 C743 1.363 . S
C739 H710 0.950 . S
C739 C738 1.397 . S
C739 C740 1.334 . S
C740 H711 0.950 . S
C740 C739 1.334 . S
C740 C741 1.287 . S
C741 C740 1.287 . S
C741 C742 1.524 . S
C741 H744 0.999 . S
C742 H712 0.950 . S
C742 C741 1.524 . S
C742 C743 1.415 . S
C743 H713 0.946 1_554 S
C743 C738 1.363 . S
C743 C742 1.415 . S
H744 C741 0.999 . S
H745 C726 0.913 . S
H746 C764 0.951 . S
H747 C766 0.951 . S
H748 C768 0.950 . S
H749 C769 0.950 . S
H750 C771 0.950 . S
H751 C774 0.950 . S
H752 C775 0.950 . S
H753 C777 0.950 . S
H754 C778 0.950 . S
H755 C779 0.951 . S
H756 C781 0.951 . S
H757 C783 0.950 . S
H758 C784 0.950 . S
H759 C786 0.950 . S
H760 C789 0.950 . S
H761 C790 0.950 . S
H762 C792 0.950 . S
H763 C793 0.950 . S
C764 H746 0.951 . S
C764 C765 1.366 . S
C764 C766 1.388 . S
C765 C764 1.366 . S
C765 C769 1.385 . S
C766 H747 0.951 . S
C766 C764 1.388 . S
C766 C767 1.366 . S
C767 C766 1.366 . S
C767 C768 1.414 . S
C767 C770 1.499 . S
C768 H748 0.950 . S
C768 C767 1.414 . S
C768 C769 1.374 . S
C769 H749 0.950 . S
C769 C765 1.385 . S
C769 C768 1.374 . S
C770 C767 1.499 . S
C770 C771 1.373 . S
C770 C772 1.389 . S
C771 H750 0.950 . S
C771 C770 1.373 . S
C771 C787 1.377 . S
C772 C770 1.389 . S
C772 C773 1.524 . S
C772 C786 1.377 . S
C773 C772 1.524 . S
C773 C774 1.397 . S
C773 C778 1.363 . S
C774 H751 0.950 . S
C774 C773 1.397 . S
C774 C775 1.334 . S
C775 H752 0.950 . S
C775 C774 1.334 . S
C775 C776 1.287 . S
C776 C775 1.287 . S
C776 C777 1.524 . S
C776 H795 0.913 . S
C777 H753 0.950 . S
C777 C776 1.524 . S
C777 C778 1.415 . S
C778 H754 0.950 . S
C778 C773 1.363 . S
C778 C777 1.415 . S
C779 H755 0.951 . S
C779 C780 1.366 . S
C779 C781 1.388 . S
C780 C779 1.366 . S
C780 C784 1.385 . S
C781 H756 0.951 . S
C781 C779 1.388 . S
C781 C782 1.366 . S
C782 C781 1.366 . S
C782 C783 1.414 . S
C782 C785 1.499 . S
C783 H757 0.950 . S
C783 C782 1.414 . S
C783 C784 1.374 . S
C784 H758 0.950 . S
C784 C780 1.385 . S
C784 C783 1.374 . S
C785 C782 1.499 . S
C785 C786 1.373 . S
C785 C787 1.389 . S
C786 H759 0.950 . S
C786 C772 1.377 . S
C786 C785 1.373 . S
C787 C771 1.377 . S
C787 C785 1.389 . S
C787 C788 1.524 . S
C788 C787 1.524 . S
C788 C789 1.397 . S
C788 C793 1.363 . S
C789 H760 0.950 . S
C789 C788 1.397 . S
C789 C790 1.334 . S
C790 H761 0.950 . S
C790 C789 1.334 . S
C790 C791 1.287 . S
C791 C790 1.287 . S
C791 C792 1.524 . S
C791 H794 0.999 . S
C792 H762 0.950 . S
C792 C791 1.524 . S
C792 C793 1.415 . S
C793 H763 0.950 . S
C793 C788 1.363 . S
C793 C792 1.415 . S
H794 C791 0.999 . S
H795 C776 0.913 . S
H796 C814 0.951 . S
H797 C816 0.951 . S
H798 C818 0.950 . S
H799 C819 0.950 . S
H800 C821 0.950 . S
H801 C824 0.950 . S
H802 C825 0.950 . S
H803 C827 0.950 . S
H804 C828 0.950 . S
H805 C829 0.951 . S
H806 C831 0.951 . S
H807 C833 0.950 . S
H808 C834 0.950 . S
H809 C836 0.950 . S
H810 C839 0.950 . S
H811 C840 0.950 . S
H812 C842 0.950 . S
H813 C843 0.950 . S
C814 H796 0.951 . S
C814 C815 1.366 . S
C814 C816 1.388 . S
C815 C814 1.366 . S
C815 C819 1.385 . S
C816 H797 0.951 . S
C816 C814 1.388 . S
C816 C817 1.366 . S
C817 C816 1.366 . S
C817 C818 1.414 . S
C817 C820 1.499 . S
C818 H798 0.950 . S
C818 C817 1.414 . S
C818 C819 1.374 . S
C819 H799 0.950 . S
C819 C815 1.385 . S
C819 C818 1.374 . S
C820 C817 1.499 . S
C820 C821 1.373 . S
C820 C822 1.389 . S
C821 H800 0.950 . S
C821 C820 1.373 . S
C821 C837 1.377 . S
C822 C820 1.389 . S
C822 C823 1.524 . S
C822 C836 1.377 . S
C823 C822 1.524 . S
C823 C824 1.397 . S
C823 C828 1.363 . S
C824 H801 0.950 . S
C824 C823 1.397 . S
C824 C825 1.334 . S
C825 H802 0.950 . S
C825 C824 1.334 . S
C825 C826 1.287 . S
C826 C825 1.287 . S
C826 C827 1.524 . S
C826 H845 0.913 . S
C827 H803 0.950 . S
C827 C826 1.524 . S
C827 C828 1.415 . S
C828 H804 0.950 . S
C828 C823 1.363 . S
C828 C827 1.415 . S
C829 H805 0.951 . S
C829 C830 1.366 . S
C829 C831 1.388 . S
C830 C829 1.366 . S
C830 C834 1.385 . S
C831 H806 0.951 . S
C831 C829 1.388 . S
C831 C832 1.366 . S
C832 C831 1.366 . S
C832 C833 1.414 . S
C832 C835 1.499 . S
C833 H807 0.950 . S
C833 C832 1.414 . S
C833 C834 1.374 . S
C834 H808 0.950 . S
C834 C830 1.385 . S
C834 C833 1.374 . S
C835 C832 1.499 . S
C835 C836 1.373 . S
C835 C837 1.389 . S
C836 H809 0.950 . S
C836 C822 1.377 . S
C836 C835 1.373 . S
C837 C821 1.377 . S
C837 C835 1.389 . S
C837 C838 1.524 . S
C838 C837 1.524 . S
C838 C839 1.397 . S
C838 C843 1.363 . S
C839 H810 0.950 . S
C839 C838 1.397 . S
C839 C840 1.334 . S
C840 H811 0.950 . S
C840 C839 1.334 . S
C840 C841 1.287 . S
C841 C840 1.287 . S
C841 C842 1.524 . S
C841 H844 0.999 . S
C842 H812 0.950 . S
C842 C841 1.524 . S
C842 C843 1.415 . S
C843 H813 0.950 . S
C843 C838 1.363 . S
C843 C842 1.415 . S
H844 C841 0.999 . S
H845 C826 0.913 . S
H846 C864 0.951 . S
H847 C866 0.951 . S
H848 C868 0.950 . S
H849 C869 0.950 . S
H850 C871 0.950 . S
H851 C874 0.950 . S
H852 C875 0.950 . S
H853 C877 0.950 . S
H854 C878 0.950 . S
H855 C879 0.951 . S
H856 C881 0.951 . S
H857 C883 0.950 . S
H858 C884 0.950 . S
H859 C886 0.950 . S
H860 C889 0.950 . S
H861 C890 0.950 . S
H862 C892 0.950 . S
H863 C893 0.950 . S
C864 H846 0.951 . S
C864 C865 1.366 . S
C864 C866 1.388 . S
C865 C864 1.366 . S
C865 C869 1.385 . S
C866 H847 0.951 . S
C866 C864 1.388 . S
C866 C867 1.366 . S
C867 C866 1.366 . S
C867 C868 1.414 . S
C867 C870 1.499 . S
C868 H848 0.950 . S
C868 C867 1.414 . S
C868 C869 1.374 . S
C869 H849 0.950 . S
C869 C865 1.385 . S
C869 C868 1.374 . S
C870 C867 1.499 . S
C870 C871 1.373 . S
C870 C872 1.389 . S
C871 H850 0.950 . S
C871 C870 1.373 . S
C871 C887 1.377 1_556 S
C872 C870 1.389 . S
C872 C873 1.524 . S
C872 C886 1.377 1_556 S
C873 C872 1.524 . S
C873 C874 1.397 . S
C873 C878 1.363 1_556 S
C874 H851 0.950 . S
C874 C873 1.397 . S
C874 C875 1.334 . S
C875 H852 0.950 . S
C875 C874 1.334 . S
C875 C876 1.287 . S
C876 C875 1.287 . S
C876 C877 1.524 1_556 S
C876 H895 0.913 . S
C877 H853 0.950 . S
C877 C876 1.524 1_554 S
C877 C878 1.415 . S
C878 H854 0.950 . S
C878 C873 1.363 1_554 S
C878 C877 1.415 . S
C879 H855 0.951 . S
C879 C880 1.366 . S
C879 C881 1.388 . S
C880 C879 1.366 . S
C880 C884 1.385 . S
C881 H856 0.951 . S
C881 C879 1.388 . S
C881 C882 1.366 . S
C882 C881 1.366 . S
C882 C883 1.414 . S
C882 C885 1.499 . S
C883 H857 0.950 . S
C883 C882 1.414 . S
C883 C884 1.374 . S
C884 H858 0.950 . S
C884 C880 1.385 . S
C884 C883 1.374 . S
C885 C882 1.499 . S
C885 C886 1.373 . S
C885 C887 1.389 . S
C886 H859 0.950 . S
C886 C872 1.377 1_554 S
C886 C885 1.373 . S
C887 C871 1.377 1_554 S
C887 C885 1.389 . S
C887 C888 1.524 . S
C888 C887 1.524 . S
C888 C889 1.397 . S
C888 C893 1.363 1_554 S
C889 H860 0.950 . S
C889 C888 1.397 . S
C889 C890 1.334 . S
C890 H861 0.950 . S
C890 C889 1.334 . S
C890 C891 1.287 . S
C891 C890 1.287 . S
C891 C892 1.524 1_554 S
C891 H894 0.999 . S
C892 H862 0.950 . S
C892 C891 1.524 1_556 S
C892 C893 1.415 . S
C893 H863 0.950 . S
C893 C888 1.363 1_556 S
C893 C892 1.415 . S
H894 C891 0.999 . S
H895 C876 0.913 . S
H896 C914 0.951 . S
H897 C916 0.951 . S
H898 C918 0.950 . S
H899 C919 0.950 . S
H900 C921 0.950 . S
H901 C924 0.950 . S
H902 C925 0.950 . S
H903 C927 0.950 . S
H904 C928 0.950 . S
H905 C929 0.951 . S
H906 C931 0.951 . S
H907 C933 0.950 . S
H908 C934 0.950 . S
H909 C936 0.950 . S
H910 C939 0.950 . S
H911 C940 0.950 . S
H912 C942 0.950 . S
H913 C943 0.950 . S
C914 H896 0.951 . S
C914 C915 1.366 . S
C914 C916 1.388 . S
C915 C914 1.366 . S
C915 C919 1.385 . S
C916 H897 0.951 . S
C916 C914 1.388 . S
C916 C917 1.366 . S
C917 C916 1.366 . S
C917 C918 1.414 . S
C917 C920 1.499 . S
C918 H898 0.950 . S
C918 C917 1.414 . S
C918 C919 1.374 . S
C919 H899 0.950 . S
C919 C915 1.385 . S
C919 C918 1.374 . S
C920 C917 1.499 . S
C920 C921 1.373 . S
C920 C922 1.389 . S
C921 H900 0.950 . S
C921 C920 1.373 . S
C921 C937 1.377 . S
C922 C920 1.389 . S
C922 C923 1.524 . S
C922 C936 1.377 . S
C923 C922 1.524 . S
C923 C924 1.397 . S
C923 C928 1.363 . S
C924 H901 0.950 . S
C924 C923 1.397 . S
C924 C925 1.334 . S
C925 H902 0.950 . S
C925 C924 1.334 . S
C925 C926 1.287 . S
C926 C925 1.287 . S
C926 C927 1.524 . S
C926 H945 0.913 . S
C927 H903 0.950 . S
C927 C926 1.524 . S
C927 C928 1.415 . S
C928 H904 0.950 . S
C928 C923 1.363 . S
C928 C927 1.415 . S
C929 H905 0.951 . S
C929 C930 1.366 . S
C929 C931 1.388 . S
C930 C929 1.366 . S
C930 C934 1.385 . S
C931 H906 0.951 . S
C931 C929 1.388 . S
C931 C932 1.366 . S
C932 C931 1.366 . S
C932 C933 1.414 . S
C932 C935 1.499 . S
C933 H907 0.950 . S
C933 C932 1.414 . S
C933 C934 1.374 . S
C934 H908 0.950 . S
C934 C930 1.385 . S
C934 C933 1.374 . S
C935 C932 1.499 . S
C935 C936 1.373 . S
C935 C937 1.389 . S
C936 H909 0.950 . S
C936 C922 1.377 . S
C936 C935 1.373 . S
C937 C921 1.377 . S
C937 C935 1.389 . S
C937 C938 1.524 . S
C938 C937 1.524 . S
C938 C939 1.397 . S
C938 C943 1.363 . S
C939 H910 0.950 . S
C939 C938 1.397 . S
C939 C940 1.334 . S
C940 H911 0.950 . S
C940 C939 1.334 . S
C940 C941 1.287 . S
C941 C940 1.287 . S
C941 C942 1.524 . S
C941 H944 0.999 . S
C942 H912 0.950 . S
C942 C941 1.524 . S
C942 C943 1.415 . S
C943 H913 0.950 . S
C943 C938 1.363 . S
C943 C942 1.415 . S
H944 C941 0.999 . S
H945 C926 0.913 . S
H946 C964 0.951 . S
H947 C966 0.951 . S
H948 C968 0.950 . S
H949 C969 0.950 . S
H950 C971 0.950 . S
H951 C974 0.950 . S
H952 C975 0.950 . S
H953 C977 0.950 . S
H954 C978 0.950 . S
H955 C979 0.951 . S
H956 C981 0.951 . S
H957 C983 0.950 . S
H958 C984 0.950 . S
H959 C986 0.950 . S
H960 C989 0.950 . S
H961 C990 0.950 . S
H962 C992 0.950 . S
H963 C993 0.950 . S
C964 H946 0.951 . S
C964 C965 1.366 . S
C964 C966 1.388 . S
C965 C964 1.366 . S
C965 C969 1.385 . S
C966 H947 0.951 . S
C966 C964 1.388 . S
C966 C967 1.366 . S
C967 C966 1.366 . S
C967 C968 1.414 . S
C967 C970 1.499 . S
C968 H948 0.950 . S
C968 C967 1.414 . S
C968 C969 1.374 . S
C969 H949 0.950 . S
C969 C965 1.385 . S
C969 C968 1.374 . S
C970 C967 1.499 . S
C970 C971 1.373 . S
C970 C972 1.389 . S
C971 H950 0.950 . S
C971 C970 1.373 . S
C971 C987 1.377 . S
C972 C970 1.389 . S
C972 C973 1.524 . S
C972 C986 1.377 . S
C973 C972 1.524 . S
C973 C974 1.397 . S
C973 C978 1.363 . S
C974 H951 0.950 . S
C974 C973 1.397 . S
C974 C975 1.334 . S
C975 H952 0.950 . S
C975 C974 1.334 . S
C975 C976 1.287 . S
C976 C975 1.287 . S
C976 C977 1.524 . S
C976 H995 0.913 . S
C977 H953 0.950 . S
C977 C976 1.524 . S
C977 C978 1.415 . S
C978 H954 0.950 . S
C978 C973 1.363 . S
C978 C977 1.415 . S
C979 H955 0.951 . S
C979 C980 1.366 . S
C979 C981 1.388 . S
C980 C979 1.366 . S
C980 C984 1.385 . S
C981 H956 0.951 . S
C981 C979 1.388 . S
C981 C982 1.366 . S
C982 C981 1.366 . S
C982 C983 1.414 . S
C982 C985 1.499 . S
C983 H957 0.950 . S
C983 C982 1.414 . S
C983 C984 1.374 . S
C984 H958 0.950 . S
C984 C980 1.385 . S
C984 C983 1.374 . S
C985 C982 1.499 . S
C985 C986 1.373 . S
C985 C987 1.389 . S
C986 H959 0.950 . S
C986 C972 1.377 . S
C986 C985 1.373 . S
C987 C971 1.377 . S
C987 C985 1.389 . S
C987 C988 1.524 . S
C988 C987 1.524 . S
C988 C989 1.397 . S
C988 C993 1.363 . S
C989 H960 0.950 . S
C989 C988 1.397 . S
C989 C990 1.334 . S
C990 H961 0.950 . S
C990 C989 1.334 . S
C990 C991 1.287 . S
C991 C990 1.287 . S
C991 C992 1.524 . S
C991 H994 0.999 . S
C992 H962 0.950 . S
C992 C991 1.524 . S
C992 C993 1.415 . S
C993 H963 0.950 . S
C993 C988 1.363 . S
C993 C992 1.415 . S
H994 C991 0.999 . S
H995 C976 0.913 . S
H996 C1014 0.951 . S
H997 C1016 0.951 . S
H998 C1018 0.950 . S
H999 C1019 0.950 . S
H1000 C1021 0.950 . S
H1001 C1024 0.950 . S
H1002 C1025 0.950 . S
H1003 C1027 0.950 . S
H1004 C1028 0.950 . S
H1005 C1029 0.951 . S
H1006 C1031 0.951 . S
H1007 C1033 0.950 . S
H1008 C1034 0.950 . S
H1009 C1036 0.950 . S
H1010 C1039 0.950 . S
H1011 C1040 0.950 . S
H1012 C1042 0.950 . S
H1013 C1043 0.950 . S
C1014 H996 0.951 . S
C1014 C1015 1.366 . S
C1014 C1016 1.388 . S
C1015 C1014 1.366 . S
C1015 C1019 1.385 . S
C1016 H997 0.951 . S
C1016 C1014 1.388 . S
C1016 C1017 1.366 . S
C1017 C1016 1.366 . S
C1017 C1018 1.414 . S
C1017 C1020 1.499 . S
C1018 H998 0.950 . S
C1018 C1017 1.414 . S
C1018 C1019 1.374 . S
C1019 H999 0.950 . S
C1019 C1015 1.385 . S
C1019 C1018 1.374 . S
C1020 C1017 1.499 . S
C1020 C1021 1.373 . S
C1020 C1022 1.389 . S
C1021 H1000 0.950 . S
C1021 C1020 1.373 . S
C1021 C1037 1.377 . S
C1022 C1020 1.389 . S
C1022 C1023 1.524 . S
C1022 C1036 1.377 . S
C1023 C1022 1.524 . S
C1023 C1024 1.397 . S
C1023 C1028 1.363 . S
C1024 H1001 0.950 . S
C1024 C1023 1.397 . S
C1024 C1025 1.334 . S
C1025 H1002 0.950 . S
C1025 C1024 1.334 . S
C1025 C1026 1.287 . S
C1026 C1025 1.287 . S
C1026 C1027 1.524 . S
C1026 H1045 0.913 . S
C1027 H1003 0.950 . S
C1027 C1026 1.524 . S
C1027 C1028 1.415 . S
C1028 H1004 0.950 . S
C1028 C1023 1.363 . S
C1028 C1027 1.415 . S
C1029 H1005 0.951 . S
C1029 C1030 1.366 . S
C1029 C1031 1.388 . S
C1030 C1029 1.366 . S
C1030 C1034 1.385 . S
C1031 H1006 0.951 . S
C1031 C1029 1.388 . S
C1031 C1032 1.366 . S
C1032 C1031 1.366 . S
C1032 C1033 1.414 . S
C1032 C1035 1.499 . S
C1033 H1007 0.950 . S
C1033 C1032 1.414 . S
C1033 C1034 1.374 . S
C1034 H1008 0.950 . S
C1034 C1030 1.385 . S
C1034 C1033 1.374 . S
C1035 C1032 1.499 . S
C1035 C1036 1.373 . S
C1035 C1037 1.389 . S
C1036 H1009 0.950 . S
C1036 C1022 1.377 . S
C1036 C1035 1.373 . S
C1037 C1021 1.377 . S
C1037 C1035 1.389 . S
C1037 C1038 1.524 . S
C1038 C1037 1.524 . S
C1038 C1039 1.397 . S
C1038 C1043 1.363 . S
C1039 H1010 0.950 . S
C1039 C1038 1.397 . S
C1039 C1040 1.334 . S
C1040 H1011 0.950 . S
C1040 C1039 1.334 . S
C1040 C1041 1.287 . S
C1041 C1040 1.287 . S
C1041 C1042 1.524 . S
C1041 H1044 0.999 . S
C1042 H1012 0.950 . S
C1042 C1041 1.524 . S
C1042 C1043 1.415 . S
C1043 H1013 0.950 . S
C1043 C1038 1.363 . S
C1043 C1042 1.415 . S
H1044 C1041 0.999 . S
H1045 C1026 0.913 . S
H1046 C1064 0.951 . S
H1047 C1066 0.951 . S
H1048 C1068 0.950 . S
H1049 C1069 0.950 . S
H1050 C1071 0.950 . S
H1051 C1074 0.950 . S
H1052 C1075 0.950 . S
H1053 C1077 0.950 . S
H1054 C1078 0.950 . S
H1055 C1079 0.951 . S
H1056 C1081 0.951 . S
H1057 C1083 0.950 . S
H1058 C1084 0.950 . S
H1059 C1086 0.950 . S
H1060 C1089 0.950 . S
H1061 C1090 0.950 . S
H1062 C1092 0.950 . S
H1063 C1093 0.950 . S
C1064 H1046 0.951 . S
C1064 C1065 1.366 . S
C1064 C1066 1.388 . S
C1065 C1064 1.366 . S
C1065 C1069 1.385 . S
C1066 H1047 0.951 . S
C1066 C1064 1.388 . S
C1066 C1067 1.366 . S
C1067 C1066 1.366 . S
C1067 C1068 1.414 . S
C1067 C1070 1.499 . S
C1068 H1048 0.950 . S
C1068 C1067 1.414 . S
C1068 C1069 1.374 . S
C1069 H1049 0.950 . S
C1069 C1065 1.385 . S
C1069 C1068 1.374 . S
C1070 C1067 1.499 . S
C1070 C1071 1.373 . S
C1070 C1072 1.389 . S
C1071 H1050 0.950 . S
C1071 C1070 1.373 . S
C1071 C1087 1.377 1_655 S
C1072 C1070 1.389 . S
C1072 C1073 1.524 . S
C1072 C1086 1.377 1_655 S
C1073 C1072 1.524 . S
C1073 C1074 1.397 1_655 S
C1073 C1078 1.363 . S
C1074 H1051 0.950 . S
C1074 C1073 1.397 1_455 S
C1074 C1075 1.334 . S
C1075 H1052 0.950 . S
C1075 C1074 1.334 . S
C1075 C1076 1.287 1_455 S
C1076 C1075 1.287 1_655 S
C1076 C1077 1.524 . S
C1076 H1095 0.913 . S
C1077 H1053 0.950 . S
C1077 C1076 1.524 . S
C1077 C1078 1.415 . S
C1078 H1054 0.950 . S
C1078 C1073 1.363 . S
C1078 C1077 1.415 . S
C1079 H1055 0.951 . S
C1079 C1080 1.366 . S
C1079 C1081 1.388 . S
C1080 C1079 1.366 . S
C1080 C1084 1.385 . S
C1081 H1056 0.951 . S
C1081 C1079 1.388 . S
C1081 C1082 1.366 . S
C1082 C1081 1.366 . S
C1082 C1083 1.414 . S
C1082 C1085 1.499 . S
C1083 H1057 0.950 . S
C1083 C1082 1.414 . S
C1083 C1084 1.374 . S
C1084 H1058 0.950 . S
C1084 C1080 1.385 . S
C1084 C1083 1.374 . S
C1085 C1082 1.499 . S
C1085 C1086 1.373 . S
C1085 C1087 1.389 . S
C1086 H1059 0.950 . S
C1086 C1072 1.377 1_455 S
C1086 C1085 1.373 . S
C1087 C1071 1.377 1_455 S
C1087 C1085 1.389 . S
C1087 C1088 1.524 . S
C1088 C1087 1.524 . S
C1088 C1089 1.397 1_455 S
C1088 C1093 1.363 . S
C1089 H1060 0.950 . S
C1089 C1088 1.397 1_655 S
C1089 C1090 1.334 . S
C1090 H1061 0.950 . S
C1090 C1089 1.334 . S
C1090 C1091 1.287 1_655 S
C1091 C1090 1.287 1_455 S
C1091 C1092 1.524 . S
C1091 H1094 0.999 . S
C1092 H1062 0.950 . S
C1092 C1091 1.524 . S
C1092 C1093 1.415 . S
C1093 H1063 0.950 . S
C1093 C1088 1.363 . S
C1093 C1092 1.415 . S
H1094 C1091 0.999 . S
H1095 C1076 0.913 . S
H1096 C1114 0.951 . S
H1097 C1116 0.951 . S
H1098 C1118 0.950 . S
H1099 C1119 0.950 . S
H1100 C1121 0.950 . S
H1101 C1124 0.950 . S
H1102 C1125 0.950 . S
H1103 C1127 0.950 . S
H1104 C1128 0.950 . S
H1105 C1129 0.951 . S
H1106 C1131 0.951 . S
H1107 C1133 0.950 . S
H1108 C1134 0.950 . S
H1109 C1136 0.950 . S
H1110 C1139 0.950 . S
H1111 C1140 0.950 . S
H1112 C1142 0.950 . S
H1113 C1143 0.950 . S
C1114 H1096 0.951 . S
C1114 C1115 1.366 . S
C1114 C1116 1.388 . S
C1115 C1114 1.366 . S
C1115 C1119 1.385 . S
C1116 H1097 0.951 . S
C1116 C1114 1.388 . S
C1116 C1117 1.366 . S
C1117 C1116 1.366 . S
C1117 C1118 1.414 . S
C1117 C1120 1.499 . S
C1118 H1098 0.950 . S
C1118 C1117 1.414 . S
C1118 C1119 1.374 . S
C1119 H1099 0.950 . S
C1119 C1115 1.385 . S
C1119 C1118 1.374 . S
C1120 C1117 1.499 . S
C1120 C1121 1.373 . S
C1120 C1122 1.389 1_545 S
C1121 H1100 0.950 . S
C1121 C1120 1.373 . S
C1121 C1137 1.377 . S
C1122 C1120 1.389 1_565 S
C1122 C1123 1.524 . S
C1122 C1136 1.377 . S
C1123 C1122 1.524 . S
C1123 C1124 1.397 . S
C1123 C1128 1.363 . S
C1124 H1101 0.950 . S
C1124 C1123 1.397 . S
C1124 C1125 1.334 . S
C1125 H1102 0.950 . S
C1125 C1124 1.334 . S
C1125 C1126 1.287 . S
C1126 C1125 1.287 . S
C1126 C1127 1.524 . S
C1126 H1145 0.913 . S
C1127 H1103 0.950 . S
C1127 C1126 1.524 . S
C1127 C1128 1.415 . S
C1128 H1104 0.950 . S
C1128 C1123 1.363 . S
C1128 C1127 1.415 . S
C1129 H1105 0.951 . S
C1129 C1130 1.366 . S
C1129 C1131 1.388 . S
C1130 C1129 1.366 . S
C1130 C1134 1.385 . S
C1131 H1106 0.951 . S
C1131 C1129 1.388 . S
C1131 C1132 1.366 . S
C1132 C1131 1.366 . S
C1132 C1133 1.414 . S
C1132 C1135 1.499 . S
C1133 H1107 0.950 . S
C1133 C1132 1.414 . S
C1133 C1134 1.374 . S
C1134 H1108 0.950 . S
C1134 C1130 1.385 . S
C1134 C1133 1.374 . S
C1135 C1132 1.499 . S
C1135 C1136 1.373 . S
C1135 C1137 1.389 1_565 S
C1136 H1109 0.950 . S
C1136 C1122 1.377 . S
C1136 C1135 1.373 . S
C1137 C1121 1.377 . S
C1137 C1135 1.389 1_545 S
C1137 C1138 1.524 . S
C1138 C1137 1.524 . S
C1138 C1139 1.397 . S
C1138 C1143 1.363 . S
C1139 H1110 0.950 . S
C1139 C1138 1.397 . S
C1139 C1140 1.334 . S
C1140 H1111 0.950 . S
C1140 C1139 1.334 . S
C1140 C1141 1.287 . S
C1141 C1140 1.287 . S
C1141 C1142 1.524 . S
C1141 H1144 0.999 . S
C1142 H1112 0.950 . S
C1142 C1141 1.524 . S
C1142 C1143 1.415 . S
C1143 H1113 0.950 . S
C1143 C1138 1.363 . S
C1143 C1142 1.415 . S
H1144 C1141 0.999 . S
H1145 C1126 0.913 . S
H1146 C1164 0.951 . S
H1147 C1166 0.951 . S
H1148 C1168 0.950 . S
H1149 C1169 0.950 . S
H1150 C1171 0.950 . S
H1151 C1174 0.950 . S
H1152 C1175 0.950 . S
H1153 C1177 0.950 . S
H1154 C1178 0.950 . S
H1155 C1179 0.951 . S
H1156 C1181 0.951 . S
H1157 C1183 0.950 . S
H1158 C1184 0.950 . S
H1159 C1186 0.950 . S
H1160 C1189 0.950 . S
H1161 C1190 0.950 . S
H1162 C1192 0.950 . S
H1163 C1193 0.950 . S
C1164 H1146 0.951 . S
C1164 C1165 1.366 . S
C1164 C1166 1.388 . S
C1165 C1164 1.366 . S
C1165 C1169 1.385 . S
C1166 H1147 0.951 . S
C1166 C1164 1.388 . S
C1166 C1167 1.366 . S
C1167 C1166 1.366 . S
C1167 C1168 1.414 . S
C1167 C1170 1.499 . S
C1168 H1148 0.950 . S
C1168 C1167 1.414 . S
C1168 C1169 1.374 . S
C1169 H1149 0.950 . S
C1169 C1165 1.385 . S
C1169 C1168 1.374 . S
C1170 C1167 1.499 . S
C1170 C1171 1.373 . S
C1170 C1172 1.389 . S
C1171 H1150 0.950 . S
C1171 C1170 1.373 . S
C1171 C1187 1.377 . S
C1172 C1170 1.389 . S
C1172 C1173 1.524 . S
C1172 C1186 1.377 . S
C1173 C1172 1.524 . S
C1173 C1174 1.397 . S
C1173 C1178 1.363 . S
C1174 H1151 0.950 . S
C1174 C1173 1.397 . S
C1174 C1175 1.334 . S
C1175 H1152 0.950 . S
C1175 C1174 1.334 . S
C1175 C1176 1.287 . S
C1176 C1175 1.287 . S
C1176 C1177 1.524 . S
C1176 H1195 0.913 . S
C1177 H1153 0.950 . S
C1177 C1176 1.524 . S
C1177 C1178 1.415 . S
C1178 H1154 0.950 . S
C1178 C1173 1.363 . S
C1178 C1177 1.415 . S
C1179 H1155 0.951 . S
C1179 C1180 1.366 . S
C1179 C1181 1.388 . S
C1180 C1179 1.366 . S
C1180 C1184 1.385 . S
C1181 H1156 0.951 . S
C1181 C1179 1.388 . S
C1181 C1182 1.366 . S
C1182 C1181 1.366 . S
C1182 C1183 1.414 . S
C1182 C1185 1.499 . S
C1183 H1157 0.950 . S
C1183 C1182 1.414 . S
C1183 C1184 1.374 . S
C1184 H1158 0.950 . S
C1184 C1180 1.385 . S
C1184 C1183 1.374 . S
C1185 C1182 1.499 . S
C1185 C1186 1.373 . S
C1185 C1187 1.389 . S
C1186 H1159 0.950 . S
C1186 C1172 1.377 . S
C1186 C1185 1.373 . S
C1187 C1171 1.377 . S
C1187 C1185 1.389 . S
C1187 C1188 1.524 . S
C1188 C1187 1.524 . S
C1188 C1189 1.397 . S
C1188 C1193 1.363 . S
C1189 H1160 0.950 . S
C1189 C1188 1.397 . S
C1189 C1190 1.334 . S
C1190 H1161 0.950 . S
C1190 C1189 1.334 . S
C1190 C1191 1.287 . S
C1191 C1190 1.287 . S
C1191 C1192 1.524 . S
C1191 H1194 0.999 . S
C1192 H1162 0.950 . S
C1192 C1191 1.524 . S
C1192 C1193 1.415 . S
C1193 H1163 0.950 . S
C1193 C1188 1.363 . S
C1193 C1192 1.415 . S
H1194 C1191 0.999 . S
H1195 C1176 0.913 . S
H1196 C1214 0.951 . S
H1197 C1216 0.951 . S
H1198 C1218 0.950 . S
H1199 C1219 0.950 . S
H1200 C1221 0.950 . S
H1201 C1224 0.950 . S
H1202 C1225 0.950 . S
H1203 C1227 0.950 . S
H1204 C1228 0.950 . S
H1205 C1229 0.951 . S
H1206 C1231 0.951 . S
H1207 C1233 0.950 . S
H1208 C1234 0.950 . S
H1209 C1236 0.950 . S
H1210 C1239 0.950 . S
H1211 C1240 0.950 . S
H1212 C1242 0.950 . S
H1213 C1243 0.950 . S
C1214 H1196 0.951 . S
C1214 C1215 1.366 . S
C1214 C1216 1.388 . S
C1215 C1214 1.366 . S
C1215 C1219 1.385 . S
C1216 H1197 0.951 . S
C1216 C1214 1.388 . S
C1216 C1217 1.366 . S
C1217 C1216 1.366 . S
C1217 C1218 1.414 . S
C1217 C1220 1.499 . S
C1218 H1198 0.950 . S
C1218 C1217 1.414 . S
C1218 C1219 1.374 . S
C1219 H1199 0.950 . S
C1219 C1215 1.385 . S
C1219 C1218 1.374 . S
C1220 C1217 1.499 . S
C1220 C1221 1.373 1_655 S
C1220 C1222 1.389 . S
C1221 H1200 0.950 . S
C1221 C1220 1.373 1_455 S
C1221 C1237 1.377 . S
C1222 C1220 1.389 . S
C1222 C1223 1.524 . S
C1222 C1236 1.377 . S
C1223 C1222 1.524 . S
C1223 C1224 1.397 . S
C1223 C1228 1.363 . S
C1224 H1201 0.950 . S
C1224 C1223 1.397 . S
C1224 C1225 1.334 . S
C1225 H1202 0.950 . S
C1225 C1224 1.334 . S
C1225 C1226 1.287 . S
C1226 C1225 1.287 . S
C1226 C1227 1.524 . S
C1226 H1245 0.913 . S
C1227 H1203 0.950 . S
C1227 C1226 1.524 . S
C1227 C1228 1.415 . S
C1228 H1204 0.950 . S
C1228 C1223 1.363 . S
C1228 C1227 1.415 . S
C1229 H1205 0.951 . S
C1229 C1230 1.366 . S
C1229 C1231 1.388 . S
C1230 C1229 1.366 . S
C1230 C1234 1.385 . S
C1231 H1206 0.951 . S
C1231 C1229 1.388 . S
C1231 C1232 1.366 . S
C1232 C1231 1.366 . S
C1232 C1233 1.414 . S
C1232 C1235 1.499 . S
C1233 H1207 0.950 . S
C1233 C1232 1.414 . S
C1233 C1234 1.374 . S
C1234 H1208 0.950 . S
C1234 C1230 1.385 . S
C1234 C1233 1.374 . S
C1235 C1232 1.499 . S
C1235 C1236 1.373 1_455 S
C1235 C1237 1.389 . S
C1236 H1209 0.950 . S
C1236 C1222 1.377 . S
C1236 C1235 1.373 1_655 S
C1237 C1221 1.377 . S
C1237 C1235 1.389 . S
C1237 C1238 1.524 . S
C1238 C1237 1.524 . S
C1238 C1239 1.397 . S
C1238 C1243 1.363 . S
C1239 H1210 0.950 . S
C1239 C1238 1.397 . S
C1239 C1240 1.334 . S
C1240 H1211 0.950 . S
C1240 C1239 1.334 . S
C1240 C1241 1.287 . S
C1241 C1240 1.287 . S
C1241 C1242 1.524 . S
C1241 H1244 0.999 . S
C1242 H1212 0.950 . S
C1242 C1241 1.524 . S
C1242 C1243 1.415 . S
C1243 H1213 0.950 . S
C1243 C1238 1.363 . S
C1243 C1242 1.415 . S
H1244 C1241 0.999 . S
H1245 C1226 0.913 . S
H1246 C1264 0.951 . S
H1247 C1266 0.951 . S
H1248 C1268 0.950 1_565 S
H1249 C1269 0.950 . S
H1250 C1271 0.950 . S
H1251 C1274 0.950 . S
H1252 C1275 0.950 . S
H1253 C1277 0.950 . S
H1254 C1278 0.950 . S
H1255 C1279 0.951 . S
H1256 C1281 0.951 . S
H1257 C1283 0.950 1_545 S
H1258 C1284 0.950 . S
H1259 C1286 0.950 . S
H1260 C1289 0.950 . S
H1261 C1290 0.950 . S
H1262 C1292 0.950 . S
H1263 C1293 0.950 . S
C1264 H1246 0.951 . S
C1264 C1265 1.366 . S
C1264 C1266 1.388 . S
C1265 C1264 1.366 . S
C1265 C1269 1.385 . S
C1266 H1247 0.951 . S
C1266 C1264 1.388 . S
C1266 C1267 1.366 . S
C1267 C1266 1.366 . S
C1267 C1268 1.414 . S
C1267 C1270 1.499 . S
C1268 H1248 0.950 1_545 S
C1268 C1267 1.414 . S
C1268 C1269 1.374 . S
C1269 H1249 0.950 . S
C1269 C1265 1.385 . S
C1269 C1268 1.374 . S
C1270 C1267 1.499 . S
C1270 C1271 1.373 1_545 S
C1270 C1272 1.389 . S
C1271 H1250 0.950 . S
C1271 C1270 1.373 1_565 S
C1271 C1287 1.377 . S
C1272 C1270 1.389 . S
C1272 C1273 1.524 . S
C1272 C1286 1.377 . S
C1273 C1272 1.524 . S
C1273 C1274 1.397 . S
C1273 C1278 1.363 . S
C1274 H1251 0.950 . S
C1274 C1273 1.397 . S
C1274 C1275 1.334 . S
C1275 H1252 0.950 . S
C1275 C1274 1.334 . S
C1275 C1276 1.287 . S
C1276 C1275 1.287 . S
C1276 C1277 1.524 . S
C1276 H1295 0.913 . S
C1277 H1253 0.950 . S
C1277 C1276 1.524 . S
C1277 C1278 1.415 . S
C1278 H1254 0.950 . S
C1278 C1273 1.363 . S
C1278 C1277 1.415 . S
C1279 H1255 0.951 . S
C1279 C1280 1.366 . S
C1279 C1281 1.388 . S
C1280 C1279 1.366 . S
C1280 C1284 1.385 . S
C1281 H1256 0.951 . S
C1281 C1279 1.388 . S
C1281 C1282 1.366 . S
C1282 C1281 1.366 . S
C1282 C1283 1.414 . S
C1282 C1285 1.499 . S
C1283 H1257 0.950 1_565 S
C1283 C1282 1.414 . S
C1283 C1284 1.374 . S
C1284 H1258 0.950 . S
C1284 C1280 1.385 . S
C1284 C1283 1.374 . S
C1285 C1282 1.499 . S
C1285 C1286 1.373 1_565 S
C1285 C1287 1.389 . S
C1286 H1259 0.950 . S
C1286 C1272 1.377 . S
C1286 C1285 1.373 1_545 S
C1287 C1271 1.377 . S
C1287 C1285 1.389 . S
C1287 C1288 1.524 . S
C1288 C1287 1.524 . S
C1288 C1289 1.397 . S
C1288 C1293 1.363 . S
C1289 H1260 0.950 . S
C1289 C1288 1.397 . S
C1289 C1290 1.334 . S
C1290 H1261 0.950 . S
C1290 C1289 1.334 . S
C1290 C1291 1.287 . S
C1291 C1290 1.287 . S
C1291 C1292 1.524 . S
C1291 H1294 0.999 . S
C1292 H1262 0.950 . S
C1292 C1291 1.524 . S
C1292 C1293 1.415 . S
C1293 H1263 0.950 . S
C1293 C1288 1.363 . S
C1293 C1292 1.415 . S
H1294 C1291 0.999 . S
H1295 C1276 0.913 . S
H1296 C1314 0.951 . S
H1297 C1316 0.951 . S
H1298 C1318 0.950 . S
H1299 C1319 0.950 . S
H1300 C1321 0.950 . S
H1301 C1324 0.950 . S
H1302 C1325 0.950 . S
H1303 C1327 0.950 . S
H1304 C1328 0.950 . S
H1305 C1329 0.951 . S
H1306 C1331 0.951 . S
H1307 C1333 0.950 . S
H1308 C1334 0.950 . S
H1309 C1336 0.950 . S
H1310 C1339 0.950 . S
H1311 C1340 0.950 . S
H1312 C1342 0.950 . S
H1313 C1343 0.950 . S
C1314 H1296 0.951 . S
C1314 C1315 1.366 . S
C1314 C1316 1.388 . S
C1315 C1314 1.366 . S
C1315 C1319 1.385 . S
C1316 H1297 0.951 . S
C1316 C1314 1.388 . S
C1316 C1317 1.366 . S
C1317 C1316 1.366 . S
C1317 C1318 1.414 . S
C1317 C1320 1.499 . S
C1318 H1298 0.950 . S
C1318 C1317 1.414 . S
C1318 C1319 1.374 . S
C1319 H1299 0.950 . S
C1319 C1315 1.385 . S
C1319 C1318 1.374 . S
C1320 C1317 1.499 . S
C1320 C1321 1.373 . S
C1320 C1322 1.389 . S
C1321 H1300 0.950 . S
C1321 C1320 1.373 . S
C1321 C1337 1.377 1_455 S
C1322 C1320 1.389 . S
C1322 C1323 1.524 . S
C1322 C1336 1.377 1_455 S
C1323 C1322 1.524 . S
C1323 C1324 1.397 . S
C1323 C1328 1.363 . S
C1324 H1301 0.950 . S
C1324 C1323 1.397 . S
C1324 C1325 1.334 . S
C1325 H1302 0.950 . S
C1325 C1324 1.334 . S
C1325 C1326 1.287 . S
C1326 C1325 1.287 . S
C1326 C1327 1.524 . S
C1326 H1345 0.913 . S
C1327 H1303 0.950 . S
C1327 C1326 1.524 . S
C1327 C1328 1.415 . S
C1328 H1304 0.950 . S
C1328 C1323 1.363 . S
C1328 C1327 1.415 . S
C1329 H1305 0.951 . S
C1329 C1330 1.366 . S
C1329 C1331 1.388 . S
C1330 C1329 1.366 . S
C1330 C1334 1.385 . S
C1331 H1306 0.951 . S
C1331 C1329 1.388 . S
C1331 C1332 1.366 . S
C1332 C1331 1.366 . S
C1332 C1333 1.414 . S
C1332 C1335 1.499 . S
C1333 H1307 0.950 . S
C1333 C1332 1.414 . S
C1333 C1334 1.374 . S
C1334 H1308 0.950 . S
C1334 C1330 1.385 . S
C1334 C1333 1.374 . S
C1335 C1332 1.499 . S
C1335 C1336 1.373 . S
C1335 C1337 1.389 . S
C1336 H1309 0.950 . S
C1336 C1322 1.377 1_655 S
C1336 C1335 1.373 . S
C1337 C1321 1.377 1_655 S
C1337 C1335 1.389 . S
C1337 C1338 1.524 . S
C1338 C1337 1.524 . S
C1338 C1339 1.397 . S
C1338 C1343 1.363 . S
C1339 H1310 0.950 . S
C1339 C1338 1.397 . S
C1339 C1340 1.334 . S
C1340 H1311 0.950 . S
C1340 C1339 1.334 . S
C1340 C1341 1.287 . S
C1341 C1340 1.287 . S
C1341 C1342 1.524 . S
C1341 H1344 0.999 . S
C1342 H1312 0.950 . S
C1342 C1341 1.524 . S
C1342 C1343 1.415 . S
C1343 H1313 0.950 . S
C1343 C1338 1.363 . S
C1343 C1342 1.415 . S
H1344 C1341 0.999 . S
H1345 C1326 0.913 . S
H1346 C1364 0.951 . S
H1347 C1366 0.951 . S
H1348 C1368 0.950 . S
H1349 C1369 0.950 . S
H1350 C1371 0.950 . S
H1351 C1374 0.950 . S
H1352 C1375 0.950 . S
H1353 C1377 0.950 . S
H1354 C1378 0.950 . S
H1355 C1379 0.951 . S
H1356 C1381 0.951 . S
H1357 C1383 0.950 . S
H1358 C1384 0.950 . S
H1359 C1386 0.950 . S
H1360 C1389 0.950 . S
H1361 C1390 0.950 . S
H1362 C1392 0.950 . S
H1363 C1393 0.950 . S
C1364 H1346 0.951 . S
C1364 C1365 1.366 . S
C1364 C1366 1.388 . S
C1365 C1364 1.366 . S
C1365 C1369 1.385 . S
C1366 H1347 0.951 . S
C1366 C1364 1.388 . S
C1366 C1367 1.366 . S
C1367 C1366 1.366 . S
C1367 C1368 1.414 . S
C1367 C1370 1.499 . S
C1368 H1348 0.950 . S
C1368 C1367 1.414 . S
C1368 C1369 1.374 . S
C1369 H1349 0.950 . S
C1369 C1365 1.385 . S
C1369 C1368 1.374 . S
C1370 C1367 1.499 . S
C1370 C1371 1.373 . S
C1370 C1372 1.389 . S
C1371 H1350 0.950 . S
C1371 C1370 1.373 . S
C1371 C1387 1.377 1_565 S
C1372 C1370 1.389 . S
C1372 C1373 1.524 . S
C1372 C1386 1.377 1_565 S
C1373 C1372 1.524 . S
C1373 C1374 1.397 . S
C1373 C1378 1.363 . S
C1374 H1351 0.950 . S
C1374 C1373 1.397 . S
C1374 C1375 1.334 . S
C1375 H1352 0.950 . S
C1375 C1374 1.334 . S
C1375 C1376 1.287 . S
C1376 C1375 1.287 . S
C1376 C1377 1.524 . S
C1376 H1395 0.913 . S
C1377 H1353 0.950 . S
C1377 C1376 1.524 . S
C1377 C1378 1.415 . S
C1378 H1354 0.950 . S
C1378 C1373 1.363 . S
C1378 C1377 1.415 . S
C1379 H1355 0.951 . S
C1379 C1380 1.366 . S
C1379 C1381 1.388 . S
C1380 C1379 1.366 . S
C1380 C1384 1.385 . S
C1381 H1356 0.951 . S
C1381 C1379 1.388 . S
C1381 C1382 1.366 . S
C1382 C1381 1.366 . S
C1382 C1383 1.414 . S
C1382 C1385 1.499 . S
C1383 H1357 0.950 . S
C1383 C1382 1.414 . S
C1383 C1384 1.374 . S
C1384 H1358 0.950 . S
C1384 C1380 1.385 . S
C1384 C1383 1.374 . S
C1385 C1382 1.499 . S
C1385 C1386 1.373 . S
C1385 C1387 1.389 . S
C1386 H1359 0.950 . S
C1386 C1372 1.377 1_545 S
C1386 C1385 1.373 . S
C1387 C1371 1.377 1_545 S
C1387 C1385 1.389 . S
C1387 C1388 1.524 . S
C1388 C1387 1.524 . S
C1388 C1389 1.397 . S
C1388 C1393 1.363 . S
C1389 H1360 0.950 . S
C1389 C1388 1.397 . S
C1389 C1390 1.334 . S
C1390 H1361 0.950 . S
C1390 C1389 1.334 . S
C1390 C1391 1.287 . S
C1391 C1390 1.287 . S
C1391 C1392 1.524 . S
C1391 H1394 0.999 . S
C1392 H1362 0.950 . S
C1392 C1391 1.524 . S
C1392 C1393 1.415 . S
C1393 H1363 0.950 . S
C1393 C1388 1.363 . S
C1393 C1392 1.415 . S
H1394 C1391 0.999 . S
H1395 C1376 0.913 . S
H1396 C1414 0.951 . S
H1397 C1416 0.951 . S
H1398 C1418 0.950 . S
H1399 C1419 0.950 . S
H1400 C1421 0.950 . S
H1401 C1424 0.950 . S
H1402 C1425 0.950 . S
H1403 C1427 0.950 . S
H1404 C1428 0.950 . S
H1405 C1429 0.951 . S
H1406 C1431 0.951 . S
H1407 C1433 0.950 . S
H1408 C1434 0.950 . S
H1409 C1436 0.950 . S
H1410 C1439 0.950 . S
H1411 C1440 0.950 . S
H1412 C1442 0.950 . S
H1413 C1443 0.950 . S
C1414 H1396 0.951 . S
C1414 C1415 1.366 . S
C1414 C1416 1.388 . S
C1415 C1414 1.366 . S
C1415 C1419 1.385 . S
C1416 H1397 0.951 . S
C1416 C1414 1.388 . S
C1416 C1417 1.366 . S
C1417 C1416 1.366 . S
C1417 C1418 1.414 . S
C1417 C1420 1.499 . S
C1418 H1398 0.950 . S
C1418 C1417 1.414 . S
C1418 C1419 1.374 . S
C1419 H1399 0.950 . S
C1419 C1415 1.385 . S
C1419 C1418 1.374 . S
C1420 C1417 1.499 . S
C1420 C1421 1.373 . S
C1420 C1422 1.389 . S
C1421 H1400 0.950 . S
C1421 C1420 1.373 . S
C1421 C1437 1.377 . S
C1422 C1420 1.389 . S
C1422 C1423 1.524 . S
C1422 C1436 1.377 . S
C1423 C1422 1.524 . S
C1423 C1424 1.397 . S
C1423 C1428 1.363 . S
C1424 H1401 0.950 . S
C1424 C1423 1.397 . S
C1424 C1425 1.334 . S
C1425 H1402 0.950 . S
C1425 C1424 1.334 . S
C1425 C1426 1.287 . S
C1426 C1425 1.287 . S
C1426 C1427 1.524 . S
C1426 H1445 0.913 . S
C1427 H1403 0.950 . S
C1427 C1426 1.524 . S
C1427 C1428 1.415 . S
C1428 H1404 0.950 . S
C1428 C1423 1.363 . S
C1428 C1427 1.415 . S
C1429 H1405 0.951 . S
C1429 C1430 1.366 . S
C1429 C1431 1.388 . S
C1430 C1429 1.366 . S
C1430 C1434 1.385 . S
C1431 H1406 0.951 . S
C1431 C1429 1.388 . S
C1431 C1432 1.366 . S
C1432 C1431 1.366 . S
C1432 C1433 1.414 . S
C1432 C1435 1.499 . S
C1433 H1407 0.950 . S
C1433 C1432 1.414 . S
C1433 C1434 1.374 . S
C1434 H1408 0.950 . S
C1434 C1430 1.385 . S
C1434 C1433 1.374 . S
C1435 C1432 1.499 . S
C1435 C1436 1.373 . S
C1435 C1437 1.389 . S
C1436 H1409 0.950 . S
C1436 C1422 1.377 . S
C1436 C1435 1.373 . S
C1437 C1421 1.377 . S
C1437 C1435 1.389 . S
C1437 C1438 1.524 . S
C1438 C1437 1.524 . S
C1438 C1439 1.397 . S
C1438 C1443 1.363 . S
C1439 H1410 0.950 . S
C1439 C1438 1.397 . S
C1439 C1440 1.334 . S
C1440 H1411 0.950 . S
C1440 C1439 1.334 . S
C1440 C1441 1.287 . S
C1441 C1440 1.287 . S
C1441 C1442 1.524 . S
C1441 H1444 0.999 . S
C1442 H1412 0.950 . S
C1442 C1441 1.524 . S
C1442 C1443 1.415 . S
C1443 H1413 0.950 . S
C1443 C1438 1.363 . S
C1443 C1442 1.415 . S
H1444 C1441 0.999 . S
H1445 C1426 0.913 . S
H1446 C1464 0.951 . S
H1447 C1466 0.951 . S
H1448 C1468 0.950 . S
H1449 C1469 0.950 . S
H1450 C1471 0.950 . S
H1451 C1474 0.950 . S
H1452 C1475 0.950 . S
H1453 C1477 0.950 . S
H1454 C1478 0.950 . S
H1455 C1479 0.951 . S
H1456 C1481 0.951 . S
H1457 C1483 0.950 . S
H1458 C1484 0.950 . S
H1459 C1486 0.950 . S
H1460 C1489 0.950 . S
H1461 C1490 0.950 . S
H1462 C1492 0.950 . S
H1463 C1493 0.950 . S
C1464 H1446 0.951 . S
C1464 C1465 1.366 . S
C1464 C1466 1.388 . S
C1465 C1464 1.366 . S
C1465 C1469 1.385 . S
C1466 H1447 0.951 . S
C1466 C1464 1.388 . S
C1466 C1467 1.366 . S
C1467 C1466 1.366 . S
C1467 C1468 1.414 . S
C1467 C1470 1.499 . S
C1468 H1448 0.950 . S
C1468 C1467 1.414 . S
C1468 C1469 1.374 . S
C1469 H1449 0.950 . S
C1469 C1465 1.385 . S
C1469 C1468 1.374 . S
C1470 C1467 1.499 . S
C1470 C1471 1.373 . S
C1470 C1472 1.389 . S
C1471 H1450 0.950 . S
C1471 C1470 1.373 . S
C1471 C1487 1.377 1_655 S
C1472 C1470 1.389 . S
C1472 C1473 1.524 . S
C1472 C1486 1.377 1_655 S
C1473 C1472 1.524 . S
C1473 C1474 1.397 . S
C1473 C1478 1.363 . S
C1474 H1451 0.950 . S
C1474 C1473 1.397 . S
C1474 C1475 1.334 . S
C1475 H1452 0.950 . S
C1475 C1474 1.334 . S
C1475 C1476 1.287 . S
C1476 C1475 1.287 . S
C1476 C1477 1.524 . S
C1476 H1495 0.913 . S
C1477 H1453 0.950 . S
C1477 C1476 1.524 . S
C1477 C1478 1.415 . S
C1478 H1454 0.950 . S
C1478 C1473 1.363 . S
C1478 C1477 1.415 . S
C1479 H1455 0.951 . S
C1479 C1480 1.366 . S
C1479 C1481 1.388 . S
C1480 C1479 1.366 . S
C1480 C1484 1.385 . S
C1481 H1456 0.951 . S
C1481 C1479 1.388 . S
C1481 C1482 1.366 . S
C1482 C1481 1.366 . S
C1482 C1483 1.414 . S
C1482 C1485 1.499 . S
C1483 H1457 0.950 . S
C1483 C1482 1.414 . S
C1483 C1484 1.374 . S
C1484 H1458 0.950 . S
C1484 C1480 1.385 . S
C1484 C1483 1.374 . S
C1485 C1482 1.499 . S
C1485 C1486 1.373 . S
C1485 C1487 1.389 . S
C1486 H1459 0.950 . S
C1486 C1472 1.377 1_455 S
C1486 C1485 1.373 . S
C1487 C1471 1.377 1_455 S
C1487 C1485 1.389 . S
C1487 C1488 1.524 . S
C1488 C1487 1.524 . S
C1488 C1489 1.397 . S
C1488 C1493 1.363 . S
C1489 H1460 0.950 . S
C1489 C1488 1.397 . S
C1489 C1490 1.334 . S
C1490 H1461 0.950 . S
C1490 C1489 1.334 . S
C1490 C1491 1.287 . S
C1491 C1490 1.287 . S
C1491 C1492 1.524 . S
C1491 H1494 0.999 . S
C1492 H1462 0.950 . S
C1492 C1491 1.524 . S
C1492 C1493 1.415 . S
C1493 H1463 0.950 . S
C1493 C1488 1.363 . S
C1493 C1492 1.415 . S
H1494 C1491 0.999 . S
H1495 C1476 0.913 . S
H1496 C1514 0.951 . S
H1497 C1516 0.951 . S
H1498 C1518 0.950 . S
H1499 C1519 0.950 . S
H1500 C1521 0.950 . S
H1501 C1524 0.950 . S
H1502 C1525 0.950 . S
H1503 C1527 0.950 . S
H1504 C1528 0.950 . S
H1505 C1529 0.951 . S
H1506 C1531 0.951 . S
H1507 C1533 0.950 . S
H1508 C1534 0.950 . S
H1509 C1536 0.950 . S
H1510 C1539 0.950 . S
H1511 C1540 0.950 . S
H1512 C1542 0.950 . S
H1513 C1543 0.950 . S
C1514 H1496 0.951 . S
C1514 C1515 1.366 . S
C1514 C1516 1.388 . S
C1515 C1514 1.366 . S
C1515 C1519 1.385 . S
C1516 H1497 0.951 . S
C1516 C1514 1.388 . S
C1516 C1517 1.366 . S
C1517 C1516 1.366 . S
C1517 C1518 1.414 . S
C1517 C1520 1.499 . S
C1518 H1498 0.950 . S
C1518 C1517 1.414 . S
C1518 C1519 1.374 . S
C1519 H1499 0.950 . S
C1519 C1515 1.385 . S
C1519 C1518 1.374 . S
C1520 C1517 1.499 . S
C1520 C1521 1.373 . S
C1520 C1522 1.389 . S
C1521 H1500 0.950 . S
C1521 C1520 1.373 . S
C1521 C1537 1.377 1_565 S
C1522 C1520 1.389 . S
C1522 C1523 1.524 . S
C1522 C1536 1.377 1_565 S
C1523 C1522 1.524 . S
C1523 C1524 1.397 . S
C1523 C1528 1.363 . S
C1524 H1501 0.950 . S
C1524 C1523 1.397 . S
C1524 C1525 1.334 . S
C1525 H1502 0.950 . S
C1525 C1524 1.334 . S
C1525 C1526 1.287 . S
C1526 C1525 1.287 . S
C1526 C1527 1.524 . S
C1526 H1545 0.913 . S
C1527 H1503 0.950 . S
C1527 C1526 1.524 . S
C1527 C1528 1.415 . S
C1528 H1504 0.950 . S
C1528 C1523 1.363 . S
C1528 C1527 1.415 . S
C1529 H1505 0.951 . S
C1529 C1530 1.366 . S
C1529 C1531 1.388 . S
C1530 C1529 1.366 . S
C1530 C1534 1.385 . S
C1531 H1506 0.951 . S
C1531 C1529 1.388 . S
C1531 C1532 1.366 . S
C1532 C1531 1.366 . S
C1532 C1533 1.414 . S
C1532 C1535 1.499 . S
C1533 H1507 0.950 . S
C1533 C1532 1.414 . S
C1533 C1534 1.374 . S
C1534 H1508 0.950 . S
C1534 C1530 1.385 . S
C1534 C1533 1.374 . S
C1535 C1532 1.499 . S
C1535 C1536 1.373 . S
C1535 C1537 1.389 . S
C1536 H1509 0.950 . S
C1536 C1522 1.377 1_545 S
C1536 C1535 1.373 . S
C1537 C1521 1.377 1_545 S
C1537 C1535 1.389 . S
C1537 C1538 1.524 . S
C1538 C1537 1.524 . S
C1538 C1539 1.397 . S
C1538 C1543 1.363 . S
C1539 H1510 0.950 . S
C1539 C1538 1.397 . S
C1539 C1540 1.334 . S
C1540 H1511 0.950 . S
C1540 C1539 1.334 . S
C1540 C1541 1.287 . S
C1541 C1540 1.287 . S
C1541 C1542 1.524 . S
C1541 H1544 0.999 . S
C1542 H1512 0.950 . S
C1542 C1541 1.524 . S
C1542 C1543 1.415 . S
C1543 H1513 0.950 . S
C1543 C1538 1.363 . S
C1543 C1542 1.415 . S
H1544 C1541 0.999 . S
H1545 C1526 0.913 . S
H1546 C1564 0.951 . S
H1547 C1566 0.951 . S
H1548 C1568 0.950 . S
H1549 C1569 0.950 . S
H1550 C1571 0.950 . S
H1551 C1574 0.950 . S
H1552 C1575 0.950 . S
H1553 C1577 0.950 . S
H1554 C1578 0.950 . S
H1555 C1579 0.951 . S
H1556 C1581 0.951 . S
H1557 C1583 0.950 . S
H1558 C1584 0.950 . S
H1559 C1586 0.950 . S
H1560 C1589 0.950 . S
H1561 C1590 0.950 . S
H1562 C1592 0.950 . S
H1563 C1593 0.950 . S
C1564 H1546 0.951 . S
C1564 C1565 1.366 . S
C1564 C1566 1.388 . S
C1565 C1564 1.366 . S
C1565 C1569 1.385 . S
C1566 H1547 0.951 . S
C1566 C1564 1.388 . S
C1566 C1567 1.366 . S
C1567 C1566 1.366 . S
C1567 C1568 1.414 . S
C1567 C1570 1.499 . S
C1568 H1548 0.950 . S
C1568 C1567 1.414 . S
C1568 C1569 1.374 . S
C1569 H1549 0.950 . S
C1569 C1565 1.385 . S
C1569 C1568 1.374 . S
C1570 C1567 1.499 . S
C1570 C1571 1.373 . S
C1570 C1572 1.389 . S
C1571 H1550 0.950 . S
C1571 C1570 1.373 . S
C1571 C1587 1.377 . S
C1572 C1570 1.389 . S
C1572 C1573 1.524 . S
C1572 C1586 1.377 . S
C1573 C1572 1.524 . S
C1573 C1574 1.397 . S
C1573 C1578 1.363 . S
C1574 H1551 0.950 . S
C1574 C1573 1.397 . S
C1574 C1575 1.334 . S
C1575 H1552 0.950 . S
C1575 C1574 1.334 . S
C1575 C1576 1.287 . S
C1576 C1575 1.287 . S
C1576 C1577 1.524 . S
C1576 H1595 0.913 . S
C1577 H1553 0.950 . S
C1577 C1576 1.524 . S
C1577 C1578 1.415 . S
C1578 H1554 0.950 . S
C1578 C1573 1.363 . S
C1578 C1577 1.415 . S
C1579 H1555 0.951 . S
C1579 C1580 1.366 . S
C1579 C1581 1.388 . S
C1580 C1579 1.366 . S
C1580 C1584 1.385 . S
C1581 H1556 0.951 . S
C1581 C1579 1.388 . S
C1581 C1582 1.366 . S
C1582 C1581 1.366 . S
C1582 C1583 1.414 . S
C1582 C1585 1.499 . S
C1583 H1557 0.950 . S
C1583 C1582 1.414 . S
C1583 C1584 1.374 . S
C1584 H1558 0.950 . S
C1584 C1580 1.385 . S
C1584 C1583 1.374 . S
C1585 C1582 1.499 . S
C1585 C1586 1.373 . S
C1585 C1587 1.389 . S
C1586 H1559 0.950 . S
C1586 C1572 1.377 . S
C1586 C1585 1.373 . S
C1587 C1571 1.377 . S
C1587 C1585 1.389 . S
C1587 C1588 1.524 . S
C1588 C1587 1.524 . S
C1588 C1589 1.397 . S
C1588 C1593 1.363 . S
C1589 H1560 0.950 . S
C1589 C1588 1.397 . S
C1589 C1590 1.334 . S
C1590 H1561 0.950 . S
C1590 C1589 1.334 . S
C1590 C1591 1.287 . S
C1591 C1590 1.287 . S
C1591 C1592 1.524 . S
C1591 H1594 0.999 . S
C1592 H1562 0.950 . S
C1592 C1591 1.524 . S
C1592 C1593 1.415 . S
C1593 H1563 0.950 . S
C1593 C1588 1.363 . S
C1593 C1592 1.415 . S
H1594 C1591 0.999 . S
H1595 C1576 0.913 . S
H1596 C1614 0.951 . S
H1597 C1616 0.951 . S
H1598 C1618 0.950 . S
H1599 C1619 0.950 . S
H1600 C1621 0.950 . S
H1601 C1624 0.950 . S
H1602 C1625 0.950 . S
H1603 C1627 0.950 . S
H1604 C1628 0.950 . S
H1605 C1629 0.951 . S
H1606 C1631 0.951 . S
H1607 C1633 0.950 . S
H1608 C1634 0.950 . S
H1609 C1636 0.950 . S
H1610 C1639 0.950 . S
H1611 C1640 0.950 . S
H1612 C1642 0.950 . S
H1613 C1643 0.950 . S
C1614 H1596 0.951 . S
C1614 C1615 1.366 . S
C1614 C1616 1.388 . S
C1615 C1614 1.366 . S
C1615 C1619 1.385 . S
C1616 H1597 0.951 . S
C1616 C1614 1.388 . S
C1616 C1617 1.366 . S
C1617 C1616 1.366 . S
C1617 C1618 1.414 . S
C1617 C1620 1.499 . S
C1618 H1598 0.950 . S
C1618 C1617 1.414 . S
C1618 C1619 1.374 . S
C1619 H1599 0.950 . S
C1619 C1615 1.385 . S
C1619 C1618 1.374 . S
C1620 C1617 1.499 . S
C1620 C1621 1.373 . S
C1620 C1622 1.389 . S
C1621 H1600 0.950 . S
C1621 C1620 1.373 . S
C1621 C1637 1.377 . S
C1622 C1620 1.389 . S
C1622 C1623 1.524 . S
C1622 C1636 1.377 . S
C1623 C1622 1.524 . S
C1623 C1624 1.397 . S
C1623 C1628 1.363 . S
C1624 H1601 0.950 . S
C1624 C1623 1.397 . S
C1624 C1625 1.334 . S
C1625 H1602 0.950 . S
C1625 C1624 1.334 . S
C1625 C1626 1.287 . S
C1626 C1625 1.287 . S
C1626 C1627 1.524 . S
C1626 H1645 0.913 . S
C1627 H1603 0.950 . S
C1627 C1626 1.524 . S
C1627 C1628 1.415 . S
C1628 H1604 0.950 . S
C1628 C1623 1.363 . S
C1628 C1627 1.415 . S
C1629 H1605 0.951 . S
C1629 C1630 1.366 1_545 S
C1629 C1631 1.388 . S
C1630 C1629 1.366 1_565 S
C1630 C1634 1.385 . S
C1631 H1606 0.951 . S
C1631 C1629 1.388 . S
C1631 C1632 1.366 . S
C1632 C1631 1.366 . S
C1632 C1633 1.414 . S
C1632 C1635 1.499 . S
C1633 H1607 0.950 . S
C1633 C1632 1.414 . S
C1633 C1634 1.374 1_545 S
C1634 H1608 0.950 . S
C1634 C1630 1.385 . S
C1634 C1633 1.374 1_565 S
C1635 C1632 1.499 . S
C1635 C1636 1.373 . S
C1635 C1637 1.389 . S
C1636 H1609 0.950 . S
C1636 C1622 1.377 . S
C1636 C1635 1.373 . S
C1637 C1621 1.377 . S
C1637 C1635 1.389 . S
C1637 C1638 1.524 . S
C1638 C1637 1.524 . S
C1638 C1639 1.397 . S
C1638 C1643 1.363 . S
C1639 H1610 0.950 . S
C1639 C1638 1.397 . S
C1639 C1640 1.334 . S
C1640 H1611 0.950 . S
C1640 C1639 1.334 . S
C1640 C1641 1.287 . S
C1641 C1640 1.287 . S
C1641 C1642 1.524 . S
C1641 H1644 0.999 . S
C1642 H1612 0.950 . S
C1642 C1641 1.524 . S
C1642 C1643 1.415 . S
C1643 H1613 0.950 . S
C1643 C1638 1.363 . S
C1643 C1642 1.415 . S
H1644 C1641 0.999 . S
H1645 C1626 0.913 . S
H1646 C1664 0.951 . S
H1647 C1666 0.951 . S
H1648 C1668 0.950 . S
H1649 C1669 0.950 . S
H1650 C1671 0.950 . S
H1651 C1674 0.950 . S
H1652 C1675 0.950 . S
H1653 C1677 0.950 . S
H1654 C1678 0.950 . S
H1655 C1679 0.951 . S
H1656 C1681 0.951 . S
H1657 C1683 0.950 . S
H1658 C1684 0.950 . S
H1659 C1686 0.950 . S
H1660 C1689 0.950 . S
H1661 C1690 0.950 . S
H1662 C1692 0.950 . S
H1663 C1693 0.950 . S
C1664 H1646 0.951 . S
C1664 C1665 1.366 . S
C1664 C1666 1.388 . S
C1665 C1664 1.366 . S
C1665 C1669 1.385 . S
C1666 H1647 0.951 . S
C1666 C1664 1.388 . S
C1666 C1667 1.366 . S
C1667 C1666 1.366 . S
C1667 C1668 1.414 . S
C1667 C1670 1.499 . S
C1668 H1648 0.950 . S
C1668 C1667 1.414 . S
C1668 C1669 1.374 . S
C1669 H1649 0.950 . S
C1669 C1665 1.385 . S
C1669 C1668 1.374 . S
C1670 C1667 1.499 . S
C1670 C1671 1.373 . S
C1670 C1672 1.389 . S
C1671 H1650 0.950 . S
C1671 C1670 1.373 . S
C1671 C1687 1.377 . S
C1672 C1670 1.389 . S
C1672 C1673 1.524 . S
C1672 C1686 1.377 . S
C1673 C1672 1.524 . S
C1673 C1674 1.397 . S
C1673 C1678 1.363 . S
C1674 H1651 0.950 . S
C1674 C1673 1.397 . S
C1674 C1675 1.334 . S
C1675 H1652 0.950 . S
C1675 C1674 1.334 . S
C1675 C1676 1.287 . S
C1676 C1675 1.287 . S
C1676 C1677 1.524 . S
C1676 H1695 0.913 . S
C1677 H1653 0.950 . S
C1677 C1676 1.524 . S
C1677 C1678 1.415 . S
C1678 H1654 0.950 . S
C1678 C1673 1.363 . S
C1678 C1677 1.415 . S
C1679 H1655 0.951 . S
C1679 C1680 1.366 . S
C1679 C1681 1.388 1_655 S
C1680 C1679 1.366 . S
C1680 C1684 1.385 1_655 S
C1681 H1656 0.951 . S
C1681 C1679 1.388 1_455 S
C1681 C1682 1.366 . S
C1682 C1681 1.366 . S
C1682 C1683 1.414 . S
C1682 C1685 1.499 . S
C1683 H1657 0.950 . S
C1683 C1682 1.414 . S
C1683 C1684 1.374 . S
C1684 H1658 0.950 . S
C1684 C1680 1.385 1_455 S
C1684 C1683 1.374 . S
C1685 C1682 1.499 . S
C1685 C1686 1.373 . S
C1685 C1687 1.389 . S
C1686 H1659 0.950 . S
C1686 C1672 1.377 . S
C1686 C1685 1.373 . S
C1687 C1671 1.377 . S
C1687 C1685 1.389 . S
C1687 C1688 1.524 . S
C1688 C1687 1.524 . S
C1688 C1689 1.397 . S
C1688 C1693 1.363 . S
C1689 H1660 0.950 . S
C1689 C1688 1.397 . S
C1689 C1690 1.334 . S
C1690 H1661 0.950 . S
C1690 C1689 1.334 . S
C1690 C1691 1.287 . S
C1691 C1690 1.287 . S
C1691 C1692 1.524 . S
C1691 H1694 0.999 . S
C1692 H1662 0.950 . S
C1692 C1691 1.524 . S
C1692 C1693 1.415 . S
C1693 H1663 0.950 . S
C1693 C1688 1.363 . S
C1693 C1692 1.415 . S
H1694 C1691 0.999 . S
H1695 C1676 0.913 . S
H1696 C1714 0.951 1_565 S
H1697 C1716 0.951 . S
H1698 C1718 0.950 . S
H1699 C1719 0.950 . S
H1700 C1721 0.950 . S
H1701 C1724 0.950 . S
H1702 C1725 0.950 1_565 S
H1703 C1727 0.950 . S
H1704 C1728 0.950 . S
H1705 C1729 0.951 . S
H1706 C1731 0.951 . S
H1707 C1733 0.950 . S
H1708 C1734 0.950 1_455 S
H1709 C1736 0.950 . S
H1710 C1739 0.950 . S
H1711 C1740 0.950 . S
H1712 C1742 0.950 . S
H1713 C1743 0.950 . S
C1714 H1696 0.951 1_545 S
C1714 C1715 1.366 1_545 S
C1714 C1716 1.388 . S
C1715 C1714 1.366 1_565 S
C1715 C1719 1.385 1_565 S
C1716 H1697 0.951 . S
C1716 C1714 1.388 . S
C1716 C1717 1.366 . S
C1717 C1716 1.366 . S
C1717 C1718 1.414 . S
C1717 C1720 1.499 . S
C1718 H1698 0.950 . S
C1718 C1717 1.414 . S
C1718 C1719 1.374 . S
C1719 H1699 0.950 . S
C1719 C1715 1.385 1_545 S
C1719 C1718 1.374 . S
C1720 C1717 1.499 . S
C1720 C1721 1.373 . S
C1720 C1722 1.389 . S
C1721 H1700 0.950 . S
C1721 C1720 1.373 . S
C1721 C1737 1.377 . S
C1722 C1720 1.389 . S
C1722 C1723 1.524 . S
C1722 C1736 1.377 . S
C1723 C1722 1.524 . S
C1723 C1724 1.397 . S
C1723 C1728 1.363 . S
C1724 H1701 0.950 . S
C1724 C1723 1.397 . S
C1724 C1725 1.334 . S
C1725 H1702 0.950 1_545 S
C1725 C1724 1.334 . S
C1725 C1726 1.287 . S
C1726 C1725 1.287 . S
C1726 C1727 1.524 . S
C1726 H1745 0.913 1_545 S
C1727 H1703 0.950 . S
C1727 C1726 1.524 . S
C1727 C1728 1.415 . S
C1728 H1704 0.950 . S
C1728 C1723 1.363 . S
C1728 C1727 1.415 . S
C1729 H1705 0.951 . S
C1729 C1730 1.366 1_655 S
C1729 C1731 1.388 . S
C1730 C1729 1.366 1_455 S
C1730 C1734 1.385 1_455 S
C1731 H1706 0.951 . S
C1731 C1729 1.388 . S
C1731 C1732 1.366 . S
C1732 C1731 1.366 . S
C1732 C1733 1.414 . S
C1732 C1735 1.499 . S
C1733 H1707 0.950 . S
C1733 C1732 1.414 . S
C1733 C1734 1.374 . S
C1734 H1708 0.950 1_655 S
C1734 C1730 1.385 1_655 S
C1734 C1733 1.374 . S
C1735 C1732 1.499 . S
C1735 C1736 1.373 . S
C1735 C1737 1.389 . S
C1736 H1709 0.950 . S
C1736 C1722 1.377 . S
C1736 C1735 1.373 . S
C1737 C1721 1.377 . S
C1737 C1735 1.389 . S
C1737 C1738 1.524 . S
C1738 C1737 1.524 . S
C1738 C1739 1.397 . S
C1738 C1743 1.363 . S
C1739 H1710 0.950 . S
C1739 C1738 1.397 . S
C1739 C1740 1.334 . S
C1740 H1711 0.950 . S
C1740 C1739 1.334 . S
C1740 C1741 1.287 . S
C1741 C1740 1.287 . S
C1741 C1742 1.524 . S
C1741 H1744 0.999 . S
C1742 H1712 0.950 . S
C1742 C1741 1.524 . S
C1742 C1743 1.415 . S
C1743 H1713 0.950 . S
C1743 C1738 1.363 . S
C1743 C1742 1.415 . S
H1744 C1741 0.999 . S
H1745 C1726 0.913 1_565 S
H1746 C1764 0.951 . S
H1747 C1766 0.951 . S
H1748 C1768 0.950 . S
H1749 C1769 0.950 1_545 S
H1750 C1771 0.950 . S
H1751 C1774 0.950 . S
H1752 C1775 0.950 . S
H1753 C1777 0.950 . S
H1754 C1778 0.950 . S
H1755 C1779 0.951 . S
H1756 C1781 0.951 . S
H1757 C1783 0.950 . S
H1758 C1784 0.950 . S
H1759 C1786 0.950 . S
H1760 C1789 0.950 . S
H1761 C1790 0.950 . S
H1762 C1792 0.950 . S
H1763 C1793 0.950 . S
C1764 H1746 0.951 . S
C1764 C1765 1.366 1_565 S
C1764 C1766 1.388 . S
C1765 C1764 1.366 1_545 S
C1765 C1769 1.385 1_545 S
C1766 H1747 0.951 . S
C1766 C1764 1.388 . S
C1766 C1767 1.366 . S
C1767 C1766 1.366 . S
C1767 C1768 1.414 . S
C1767 C1770 1.499 . S
C1768 H1748 0.950 . S
C1768 C1767 1.414 . S
C1768 C1769 1.374 . S
C1769 H1749 0.950 1_565 S
C1769 C1765 1.385 1_565 S
C1769 C1768 1.374 . S
C1770 C1767 1.499 . S
C1770 C1771 1.373 . S
C1770 C1772 1.389 . S
C1771 H1750 0.950 . S
C1771 C1770 1.373 . S
C1771 C1787 1.377 . S
C1772 C1770 1.389 . S
C1772 C1773 1.524 . S
C1772 C1786 1.377 . S
C1773 C1772 1.524 . S
C1773 C1774 1.397 . S
C1773 C1778 1.363 . S
C1774 H1751 0.950 . S
C1774 C1773 1.397 . S
C1774 C1775 1.334 . S
C1775 H1752 0.950 . S
C1775 C1774 1.334 . S
C1775 C1776 1.287 . S
C1776 C1775 1.287 . S
C1776 C1777 1.524 . S
C1776 H1795 0.913 . S
C1777 H1753 0.950 . S
C1777 C1776 1.524 . S
C1777 C1778 1.415 . S
C1778 H1754 0.950 . S
C1778 C1773 1.363 . S
C1778 C1777 1.415 . S
C1779 H1755 0.951 . S
C1779 C1780 1.366 . S
C1779 C1781 1.388 . S
C1780 C1779 1.366 . S
C1780 C1784 1.385 . S
C1781 H1756 0.951 . S
C1781 C1779 1.388 . S
C1781 C1782 1.366 . S
C1782 C1781 1.366 . S
C1782 C1783 1.414 . S
C1782 C1785 1.499 . S
C1783 H1757 0.950 . S
C1783 C1782 1.414 . S
C1783 C1784 1.374 . S
C1784 H1758 0.950 . S
C1784 C1780 1.385 . S
C1784 C1783 1.374 . S
C1785 C1782 1.499 . S
C1785 C1786 1.373 . S
C1785 C1787 1.389 . S
C1786 H1759 0.950 . S
C1786 C1772 1.377 . S
C1786 C1785 1.373 . S
C1787 C1771 1.377 . S
C1787 C1785 1.389 . S
C1787 C1788 1.524 . S
C1788 C1787 1.524 . S
C1788 C1789 1.397 . S
C1788 C1793 1.363 . S
C1789 H1760 0.950 . S
C1789 C1788 1.397 . S
C1789 C1790 1.334 . S
C1790 H1761 0.950 . S
C1790 C1789 1.334 . S
C1790 C1791 1.287 . S
C1791 C1790 1.287 . S
C1791 C1792 1.524 . S
C1791 H1794 0.999 . S
C1792 H1762 0.950 . S
C1792 C1791 1.524 . S
C1792 C1793 1.415 . S
C1793 H1763 0.950 . S
C1793 C1788 1.363 . S
C1793 C1792 1.415 . S
H1794 C1791 0.999 . S
H1795 C1776 0.913 . S
H1796 C1814 0.951 . S
H1797 C1816 0.951 . S
H1798 C1818 0.950 . S
H1799 C1819 0.950 . S
H1800 C1821 0.950 . S
H1801 C1824 0.950 . S
H1802 C1825 0.950 . S
H1803 C1827 0.950 . S
H1804 C1828 0.950 . S
H1805 C1829 0.951 . S
H1806 C1831 0.951 . S
H1807 C1833 0.950 . S
H1808 C1834 0.950 1_455 S
H1809 C1836 0.950 . S
H1810 C1839 0.950 . S
H1811 C1840 0.950 1_455 S
H1812 C1842 0.950 . S
H1813 C1843 0.950 . S
C1814 H1796 0.951 . S
C1814 C1815 1.366 . S
C1814 C1816 1.388 . S
C1815 C1814 1.366 . S
C1815 C1819 1.385 . S
C1816 H1797 0.951 . S
C1816 C1814 1.388 . S
C1816 C1817 1.366 . S
C1817 C1816 1.366 . S
C1817 C1818 1.414 . S
C1817 C1820 1.499 . S
C1818 H1798 0.950 . S
C1818 C1817 1.414 . S
C1818 C1819 1.374 . S
C1819 H1799 0.950 . S
C1819 C1815 1.385 . S
C1819 C1818 1.374 . S
C1820 C1817 1.499 . S
C1820 C1821 1.373 . S
C1820 C1822 1.389 . S
C1821 H1800 0.950 . S
C1821 C1820 1.373 . S
C1821 C1837 1.377 . S
C1822 C1820 1.389 . S
C1822 C1823 1.524 . S
C1822 C1836 1.377 . S
C1823 C1822 1.524 . S
C1823 C1824 1.397 . S
C1823 C1828 1.363 . S
C1824 H1801 0.950 . S
C1824 C1823 1.397 . S
C1824 C1825 1.334 . S
C1825 H1802 0.950 . S
C1825 C1824 1.334 . S
C1825 C1826 1.287 . S
C1826 C1825 1.287 . S
C1826 C1827 1.524 . S
C1826 H1845 0.913 . S
C1827 H1803 0.950 . S
C1827 C1826 1.524 . S
C1827 C1828 1.415 . S
C1828 H1804 0.950 . S
C1828 C1823 1.363 . S
C1828 C1827 1.415 . S
C1829 H1805 0.951 . S
C1829 C1830 1.366 1_655 S
C1829 C1831 1.388 . S
C1830 C1829 1.366 1_455 S
C1830 C1834 1.385 1_455 S
C1831 H1806 0.951 . S
C1831 C1829 1.388 . S
C1831 C1832 1.366 . S
C1832 C1831 1.366 . S
C1832 C1833 1.414 . S
C1832 C1835 1.499 . S
C1833 H1807 0.950 . S
C1833 C1832 1.414 . S
C1833 C1834 1.374 . S
C1834 H1808 0.950 1_655 S
C1834 C1830 1.385 1_655 S
C1834 C1833 1.374 . S
C1835 C1832 1.499 . S
C1835 C1836 1.373 . S
C1835 C1837 1.389 . S
C1836 H1809 0.950 . S
C1836 C1822 1.377 . S
C1836 C1835 1.373 . S
C1837 C1821 1.377 . S
C1837 C1835 1.389 . S
C1837 C1838 1.524 . S
C1838 C1837 1.524 . S
C1838 C1839 1.397 . S
C1838 C1843 1.363 . S
C1839 H1810 0.950 . S
C1839 C1838 1.397 . S
C1839 C1840 1.334 . S
C1840 H1811 0.950 1_655 S
C1840 C1839 1.334 . S
C1840 C1841 1.287 . S
C1841 C1840 1.287 . S
C1841 C1842 1.524 . S
C1841 H1844 0.999 . S
C1842 H1812 0.950 . S
C1842 C1841 1.524 . S
C1842 C1843 1.415 . S
C1843 H1813 0.950 . S
C1843 C1838 1.363 . S
C1843 C1842 1.415 . S
H1844 C1841 0.999 . S
H1845 C1826 0.913 . S
H1846 C1864 0.951 . S
H1847 C1866 0.951 . S
H1848 C1868 0.950 . S
H1849 C1869 0.950 . S
H1850 C1871 0.950 . S
H1851 C1874 0.950 . S
H1852 C1875 0.950 . S
H1853 C1877 0.950 . S
H1854 C1878 0.950 . S
H1855 C1879 0.951 . S
H1856 C1881 0.951 . S
H1857 C1883 0.950 . S
H1858 C1884 0.950 . S
H1859 C1886 0.950 . S
H1860 C1889 0.950 . S
H1861 C1890 0.950 . S
H1862 C1892 0.950 . S
H1863 C1893 0.950 . S
C1864 H1846 0.951 . S
C1864 C1865 1.366 . S
C1864 C1866 1.388 1_545 S
C1865 C1864 1.366 . S
C1865 C1869 1.385 1_545 S
C1866 H1847 0.951 . S
C1866 C1864 1.388 1_565 S
C1866 C1867 1.366 . S
C1867 C1866 1.366 . S
C1867 C1868 1.414 . S
C1867 C1870 1.499 . S
C1868 H1848 0.950 . S
C1868 C1867 1.414 . S
C1868 C1869 1.374 . S
C1869 H1849 0.950 . S
C1869 C1865 1.385 1_565 S
C1869 C1868 1.374 . S
C1870 C1867 1.499 . S
C1870 C1871 1.373 . S
C1870 C1872 1.389 . S
C1871 H1850 0.950 . S
C1871 C1870 1.373 . S
C1871 C1887 1.377 . S
C1872 C1870 1.389 . S
C1872 C1873 1.524 . S
C1872 C1886 1.377 . S
C1873 C1872 1.524 . S
C1873 C1874 1.397 . S
C1873 C1878 1.363 . S
C1874 H1851 0.950 . S
C1874 C1873 1.397 . S
C1874 C1875 1.334 . S
C1875 H1852 0.950 . S
C1875 C1874 1.334 . S
C1875 C1876 1.287 . S
C1876 C1875 1.287 . S
C1876 C1877 1.524 . S
C1876 H1895 0.913 . S
C1877 H1853 0.950 . S
C1877 C1876 1.524 . S
C1877 C1878 1.415 . S
C1878 H1854 0.950 . S
C1878 C1873 1.363 . S
C1878 C1877 1.415 . S
C1879 H1855 0.951 . S
C1879 C1880 1.366 1_455 S
C1879 C1881 1.388 . S
C1880 C1879 1.366 1_655 S
C1880 C1884 1.385 . S
C1881 H1856 0.951 . S
C1881 C1879 1.388 . S
C1881 C1882 1.366 . S
C1882 C1881 1.366 . S
C1882 C1883 1.414 . S
C1882 C1885 1.499 . S
C1883 H1857 0.950 . S
C1883 C1882 1.414 . S
C1883 C1884 1.374 1_455 S
C1884 H1858 0.950 . S
C1884 C1880 1.385 . S
C1884 C1883 1.374 1_655 S
C1885 C1882 1.499 . S
C1885 C1886 1.373 . S
C1885 C1887 1.389 . S
C1886 H1859 0.950 . S
C1886 C1872 1.377 . S
C1886 C1885 1.373 . S
C1887 C1871 1.377 . S
C1887 C1885 1.389 . S
C1887 C1888 1.524 . S
C1888 C1887 1.524 . S
C1888 C1889 1.397 . S
C1888 C1893 1.363 . S
C1889 H1860 0.950 . S
C1889 C1888 1.397 . S
C1889 C1890 1.334 . S
C1890 H1861 0.950 . S
C1890 C1889 1.334 . S
C1890 C1891 1.287 . S
C1891 C1890 1.287 . S
C1891 C1892 1.524 . S
C1891 H1894 0.999 . S
C1892 H1862 0.950 . S
C1892 C1891 1.524 . S
C1892 C1893 1.415 . S
C1893 H1863 0.950 . S
C1893 C1888 1.363 . S
C1893 C1892 1.415 . S
H1894 C1891 0.999 . S
H1895 C1876 0.913 . S
C415 N311 1.554 . S
C430 N14 1.554 . S
C465 N47 1.554 . S
C480 N344 1.554 . S
C515 N80 1.554 . S
C530 N377 1.554 . S
C565 N113 1.554 . S
C580 N212 1.554 . S
C615 N146 1.554 . S
C630 N245 1.554 . S
C665 N179 1.554 . S
C680 N278 1.554 . S
C715 N335 1.366 . S
C730 N5 1.366 . S
C765 N368 1.366 . S
C780 N38 1.366 . S
C815 N71 1.366 . S
C830 N203 1.366 . S
C865 N236 1.366 . S
C880 N104 1.367 . S
C915 N137 1.367 . S
C930 N269 1.366 . S
C965 N170 1.366 . S
C980 N302 1.366 . S
C1015 C116 1.564 . S
C1030 C17 1.564 . S
C1065 C50 1.565 . S
C1080 C149 1.564 . S
C1115 C182 1.565 . S
C1130 C83 1.565 . S
C1165 C314 1.564 . S
C1180 C215 1.564 . S
C1215 C248 1.564 . S
C1230 C347 1.564 . S
C1265 C380 1.564 . S
C1280 C281 1.564 . S
C1315 C28 1.120 . S
C1330 C391 1.120 . S
C1365 C226 1.121 . S
C1380 C61 1.119 . S
C1415 C94 1.121 . S
C1430 C259 1.120 . S
C1465 C127 1.120 . S
C1480 C292 1.120 . S
C1515 C160 1.119 . S
C1530 C325 1.121 . S
C1565 C358 1.121 . S
C1580 C193 1.120 . S
C1615 C8 0.490 . S
C1630 C272 0.490 . S
C1665 C305 0.489 . S
C1680 C41 0.489 . S
C1715 C74 0.490 . S
C1730 C338 0.490 . S
C1765 C371 0.490 . S
C1780 C107 0.489 . S
C1815 C206 0.490 . S
C1830 C140 0.490 . S
C1865 C173 0.490 . S
C1880 C239 0.490 . S
