# Generated by pormake.
# Topology lcs, (4)-cn, num edge types: 1
# Building blocks:
#     Node 0, Type 0, BuildingBlock: AZAVOO_clean_sbu_0, # of connection points: 4
#     Node 1, Type 0, BuildingBlock: AZAVOO_clean_sbu_0, # of connection points: 4
#     Node 2, Type 0, BuildingBlock: AZAVOO_clean_sbu_0, # of connection points: 4
#     Node 3, Type 0, BuildingBlock: AZAVOO_clean_sbu_0, # of connection points: 4
#     Node 4, Type 0, BuildingBlock: AZAVOO_clean_sbu_0, # of connection points: 4
#     Node 5, Type 0, BuildingBlock: AZAVOO_clean_sbu_0, # of connection points: 4
#     Node 6, Type 0, BuildingBlock: AZAVOO_clean_sbu_0, # of connection points: 4
#     Node 7, Type 0, BuildingBlock: AZAVOO_clean_sbu_0, # of connection points: 4
#     Node 8, Type 0, BuildingBlock: AZAVOO_clean_sbu_0, # of connection points: 4
#     Node 9, Type 0, BuildingBlock: AZAVOO_clean_sbu_0, # of connection points: 4
#     Node 10, Type 0, BuildingBlock: AZAVOO_clean_sbu_0, # of connection points: 4
#     Node 11, Type 0, BuildingBlock: AZAVOO_clean_sbu_0, # of connection points: 4
#     Node 12, Type 0, BuildingBlock: AZAVOO_clean_sbu_0, # of connection points: 4
#     Node 13, Type 0, BuildingBlock: AZAVOO_clean_sbu_0, # of connection points: 4
#     Node 14, Type 0, BuildingBlock: AZAVOO_clean_sbu_0, # of connection points: 4
#     Node 15, Type 0, BuildingBlock: AZAVOO_clean_sbu_0, # of connection points: 4
#     Node 16, Type 0, BuildingBlock: AZAVOO_clean_sbu_0, # of connection points: 4
#     Node 17, Type 0, BuildingBlock: AZAVOO_clean_sbu_0, # of connection points: 4
#     Node 18, Type 0, BuildingBlock: AZAVOO_clean_sbu_0, # of connection points: 4
#     Node 19, Type 0, BuildingBlock: AZAVOO_clean_sbu_0, # of connection points: 4
#     Node 20, Type 0, BuildingBlock: AZAVOO_clean_sbu_0, # of connection points: 4
#     Node 21, Type 0, BuildingBlock: AZAVOO_clean_sbu_0, # of connection points: 4
#     Node 22, Type 0, BuildingBlock: AZAVOO_clean_sbu_0, # of connection points: 4
#     Node 23, Type 0, BuildingBlock: AZAVOO_clean_sbu_0, # of connection points: 4
#     Edge 24, Type (0, 0), BuildingBlock: XIVTED_clean_linker_0, # of connection points: 2
#     Edge 25, Type (0, 0), BuildingBlock: XIVTED_clean_linker_0, # of connection points: 2
#     Edge 26, Type (0, 0), BuildingBlock: XIVTED_clean_linker_0, # of connection points: 2
#     Edge 27, Type (0, 0), BuildingBlock: XIVTED_clean_linker_0, # of connection points: 2
#     Edge 28, Type (0, 0), BuildingBlock: XIVTED_clean_linker_0, # of connection points: 2
#     Edge 29, Type (0, 0), BuildingBlock: XIVTED_clean_linker_0, # of connection points: 2
#     Edge 30, Type (0, 0), BuildingBlock: XIVTED_clean_linker_0, # of connection points: 2
#     Edge 31, Type (0, 0), BuildingBlock: XIVTED_clean_linker_0, # of connection points: 2
#     Edge 32, Type (0, 0), BuildingBlock: XIVTED_clean_linker_0, # of connection points: 2
#     Edge 33, Type (0, 0), BuildingBlock: XIVTED_clean_linker_0, # of connection points: 2
#     Edge 34, Type (0, 0), BuildingBlock: XIVTED_clean_linker_0, # of connection points: 2
#     Edge 35, Type (0, 0), BuildingBlock: XIVTED_clean_linker_0, # of connection points: 2
#     Edge 36, Type (0, 0), BuildingBlock: XIVTED_clean_linker_0, # of connection points: 2
#     Edge 37, Type (0, 0), BuildingBlock: XIVTED_clean_linker_0, # of connection points: 2
#     Edge 38, Type (0, 0), BuildingBlock: XIVTED_clean_linker_0, # of connection points: 2
#     Edge 39, Type (0, 0), BuildingBlock: XIVTED_clean_linker_0, # of connection points: 2
#     Edge 40, Type (0, 0), BuildingBlock: XIVTED_clean_linker_0, # of connection points: 2
#     Edge 41, Type (0, 0), BuildingBlock: XIVTED_clean_linker_0, # of connection points: 2
#     Edge 42, Type (0, 0), BuildingBlock: XIVTED_clean_linker_0, # of connection points: 2
#     Edge 43, Type (0, 0), BuildingBlock: XIVTED_clean_linker_0, # of connection points: 2
#     Edge 44, Type (0, 0), BuildingBlock: XIVTED_clean_linker_0, # of connection points: 2
#     Edge 45, Type (0, 0), BuildingBlock: XIVTED_clean_linker_0, # of connection points: 2
#     Edge 46, Type (0, 0), BuildingBlock: XIVTED_clean_linker_0, # of connection points: 2
#     Edge 47, Type (0, 0), BuildingBlock: XIVTED_clean_linker_0, # of connection points: 2
#     Edge 48, Type (0, 0), BuildingBlock: XIVTED_clean_linker_0, # of connection points: 2
#     Edge 49, Type (0, 0), BuildingBlock: XIVTED_clean_linker_0, # of connection points: 2
#     Edge 50, Type (0, 0), BuildingBlock: XIVTED_clean_linker_0, # of connection points: 2
#     Edge 51, Type (0, 0), BuildingBlock: XIVTED_clean_linker_0, # of connection points: 2
#     Edge 52, Type (0, 0), BuildingBlock: XIVTED_clean_linker_0, # of connection points: 2
#     Edge 53, Type (0, 0), BuildingBlock: XIVTED_clean_linker_0, # of connection points: 2
#     Edge 54, Type (0, 0), BuildingBlock: XIVTED_clean_linker_0, # of connection points: 2
#     Edge 55, Type (0, 0), BuildingBlock: XIVTED_clean_linker_0, # of connection points: 2
#     Edge 56, Type (0, 0), BuildingBlock: XIVTED_clean_linker_0, # of connection points: 2
#     Edge 57, Type (0, 0), BuildingBlock: XIVTED_clean_linker_0, # of connection points: 2
#     Edge 58, Type (0, 0), BuildingBlock: XIVTED_clean_linker_0, # of connection points: 2
#     Edge 59, Type (0, 0), BuildingBlock: XIVTED_clean_linker_0, # of connection points: 2
#     Edge 60, Type (0, 0), BuildingBlock: XIVTED_clean_linker_0, # of connection points: 2
#     Edge 61, Type (0, 0), BuildingBlock: XIVTED_clean_linker_0, # of connection points: 2
#     Edge 62, Type (0, 0), BuildingBlock: XIVTED_clean_linker_0, # of connection points: 2
#     Edge 63, Type (0, 0), BuildingBlock: XIVTED_clean_linker_0, # of connection points: 2
#     Edge 64, Type (0, 0), BuildingBlock: XIVTED_clean_linker_0, # of connection points: 2
#     Edge 65, Type (0, 0), BuildingBlock: XIVTED_clean_linker_0, # of connection points: 2
#     Edge 66, Type (0, 0), BuildingBlock: XIVTED_clean_linker_0, # of connection points: 2
#     Edge 67, Type (0, 0), BuildingBlock: XIVTED_clean_linker_0, # of connection points: 2
#     Edge 68, Type (0, 0), BuildingBlock: XIVTED_clean_linker_0, # of connection points: 2
#     Edge 69, Type (0, 0), BuildingBlock: XIVTED_clean_linker_0, # of connection points: 2
#     Edge 70, Type (0, 0), BuildingBlock: XIVTED_clean_linker_0, # of connection points: 2
#     Edge 71, Type (0, 0), BuildingBlock: XIVTED_clean_linker_0, # of connection points: 2
# Relax obj value: 0.140
# Max RMSD: 0.191
# Mean RMSD: 0.183
data_MOF--net-lcs--node1-AZAVOO_clean_sbu_0--edge1-XIVTED_clean_linker_0
_symmetry_space_group_name_H-M    P1
_symmetry_Int_Tables_number       1
_symmetry_cell_setting            triclinic
loop_
_symmetry_equiv_pos_as_xyz
'x, y, z'
_cell_length_a     49.01531
_cell_length_b     48.183231
_cell_length_c     48.172143
_cell_angle_alpha  94.101772
_cell_angle_beta   93.928243
_cell_angle_gamma 94.009923
loop_
_atom_site_label
_atom_site_type_symbol
_atom_site_fract_x
_atom_site_fract_y
_atom_site_fract_z
_atom_type_partial_charge
Mg0 Mg 0.01908 0.27143 0.47874 0.0
O1 O 0.99641 0.24374 0.44243 0.0
O2 O 0.95457 0.25848 0.43465 0.0
Mg3 Mg 0.95095 0.29617 0.46579 0.0
C4 C 0.97285 0.24171 0.42906 0.0
C5 C 0.07233 0.24279 0.48809 0.0
O6 O 0.06266 0.24337 0.51288 0.0
O7 O 0.02611 0.30671 0.45028 0.0
O8 O 0.98405 0.32166 0.44482 0.0
O9 O 0.00067 0.2425 0.50772 0.0
O10 O 0.98215 0.28056 0.49455 0.0
C11 C 0.00951 0.32346 0.44044 0.0
C12 C 0.98028 0.25817 0.50755 0.0
O13 O 0.05894 0.25324 0.46841 0.0
Mg14 Mg 0.973 0.75801 0.57657 0.0
O15 O 0.99474 0.78731 0.61187 0.0
O16 O 0.9654 0.79634 0.64418 0.0
Mg17 Mg 0.92422 0.77297 0.62925 0.0
C18 C 0.98916 0.79934 0.63501 0.0
C19 C 0.03173 0.77011 0.55639 0.0
O20 O 0.02391 0.79563 0.55911 0.0
O21 O 0.97436 0.72099 0.60397 0.0
O22 O 0.94285 0.73122 0.63376 0.0
O23 O 0.95833 0.79521 0.55539 0.0
O24 O 0.93538 0.7727 0.58571 0.0
C25 C 0.96018 0.71502 0.62435 0.0
C26 C 0.93723 0.79318 0.57011 0.0
O27 O 0.01508 0.74986 0.56119 0.0
Mg28 Mg 0.51574 0.76992 0.97521 0.0
O29 O 0.49202 0.74234 0.93924 0.0
O30 O 0.4501 0.75756 0.9335 0.0
Mg31 Mg 0.44733 0.79478 0.96531 0.0
C32 C 0.468 0.74071 0.92685 0.0
C33 C 0.57114 0.74714 0.98481 0.0
O34 O 0.56306 0.75239 0.00998 0.0
O35 O 0.52155 0.80546 0.94684 0.0
O36 O 0.47942 0.82053 0.94334 0.0
O37 O 0.4987 0.74045 0.00438 0.0
O38 O 0.4794 0.77852 0.99244 0.0
C39 C 0.5046 0.82234 0.9379 0.0
C40 C 0.47807 0.7558 0.00494 0.0
O41 O 0.55562 0.75237 0.96392 0.0
Mg42 Mg 0.48065 0.25792 0.06902 0.0
O43 O 0.49953 0.28647 0.10658 0.0
O44 O 0.46582 0.29916 0.13269 0.0
Mg45 Mg 0.42532 0.27898 0.11178 0.0
C46 C 0.49115 0.29975 0.12789 0.0
C47 C 0.5316 0.24518 0.03585 0.0
O48 O 0.51477 0.25217 0.01554 0.0
O49 O 0.47375 0.2219 0.097 0.0
O50 O 0.43934 0.23609 0.12128 0.0
O51 O 0.47482 0.29535 0.0447 0.0
O52 O 0.44427 0.27774 0.07157 0.0
C53 C 0.45639 0.21813 0.11525 0.0
C54 C 0.45185 0.29727 0.0562 0.0
O55 O 0.52347 0.24498 0.06033 0.0
Mg56 Mg 0.99775 0.78729 0.16038 0.0
O57 O 0.96259 0.76774 0.12977 0.0
O58 O 0.94777 0.80096 0.10358 0.0
Mg59 Mg 0.9742 0.84157 0.11715 0.0
C60 C 0.94665 0.77579 0.11036 0.0
C61 C 0.0197 0.74169 0.19582 0.0
O62 O 0.02355 0.76398 0.21341 0.0
O63 O 0.02521 0.78664 0.12473 0.0
O64 O 0.01214 0.82172 0.10009 0.0
O65 O 0.96925 0.80065 0.19186 0.0
O66 O 0.98292 0.82673 0.15882 0.0
C67 C 0.02774 0.802 0.10443 0.0
C68 C 0.96834 0.82381 0.17982 0.0
O69 O 0.00897 0.74406 0.1714 0.0
Mg70 Mg 0.52574 0.74061 0.34727 0.0
O71 O 0.51919 0.76509 0.30859 0.0
O72 O 0.56019 0.77738 0.29365 0.0
Mg73 Mg 0.59284 0.75953 0.32176 0.0
C74 C 0.53408 0.77723 0.29162 0.0
C75 C 0.46346 0.74731 0.34909 0.0
O76 O 0.47294 0.77328 0.34742 0.0
O77 O 0.5341 0.70216 0.3198 0.0
O78 O 0.57556 0.71511 0.30627 0.0
O79 O 0.53046 0.78021 0.37426 0.0
O80 O 0.56492 0.76045 0.35551 0.0
C81 C 0.55507 0.6972 0.30644 0.0
C82 C 0.55626 0.78115 0.36994 0.0
O83 O 0.47994 0.72811 0.34718 0.0
Mg84 Mg 0.48479 0.28966 0.66704 0.0
O85 O 0.45439 0.27065 0.63107 0.0
O86 O 0.44619 0.30441 0.60287 0.0
Mg87 Mg 0.46936 0.34515 0.62177 0.0
C88 C 0.44274 0.27911 0.60902 0.0
C89 C 0.51129 0.24425 0.6996 0.0
O90 O 0.52251 0.26726 0.71328 0.0
O91 O 0.51916 0.29092 0.63794 0.0
O92 O 0.51041 0.3268 0.61256 0.0
O93 O 0.45077 0.30186 0.69254 0.0
O94 O 0.47044 0.32907 0.66352 0.0
C95 C 0.52547 0.30737 0.61937 0.0
C96 C 0.45213 0.32541 0.6811 0.0
O97 O 0.49424 0.24612 0.67883 0.0
Mg98 Mg 0.03732 0.24036 0.85481 0.0
O99 O 0.03284 0.26713 0.8178 0.0
O100 O 0.07407 0.27803 0.80272 0.0
Mg101 Mg 0.10513 0.25651 0.82951 0.0
C102 C 0.0481 0.27926 0.80118 0.0
C103 C 0.9797 0.20839 0.8583 0.0
O104 O 0.99514 0.18748 0.86158 0.0
O105 O 0.04292 0.2027 0.82511 0.0
O106 O 0.08485 0.21394 0.81172 0.0
O107 O 0.04476 0.27837 0.8839 0.0
O108 O 0.07762 0.25712 0.86374 0.0
C109 C 0.06335 0.19721 0.81111 0.0
C110 C 0.07046 0.27774 0.87944 0.0
O111 O 0.99092 0.23195 0.85347 0.0
Mg112 Mg 0.42303 0.97469 0.2137 0.0
O113 O 0.38932 0.95406 0.18142 0.0
O114 O 0.37042 0.91705 0.20058 0.0
Mg115 Mg 0.39292 0.91224 0.2429 0.0
C116 C 0.37194 0.93287 0.18047 0.0
C117 C 0.4302 0.03787 0.20538 0.0
O118 O 0.43174 0.03819 0.23274 0.0
O119 O 0.39165 0.99166 0.24284 0.0
O120 O 0.37812 0.95266 0.262 0.0
O121 O 0.45396 0.94813 0.19479 0.0
O122 O 0.42829 0.93596 0.22851 0.0
C123 C 0.37824 0.97903 0.26065 0.0
C124 C 0.44597 0.92946 0.21112 0.0
O125 O 0.42584 0.01462 0.191 0.0
Mg126 Mg 0.27641 0.08903 0.46738 0.0
O127 O 0.31047 0.12202 0.48566 0.0
O128 O 0.31854 0.15029 0.45183 0.0
Mg129 Mg 0.29238 0.13421 0.41189 0.0
C130 C 0.32296 0.14348 0.47681 0.0
C131 C 0.26453 0.04974 0.51325 0.0
O132 O 0.26824 0.03246 0.49172 0.0
O133 O 0.24571 0.12189 0.46975 0.0
O134 O 0.25391 0.14689 0.43343 0.0
O135 O 0.30666 0.06028 0.45204 0.0
O136 O 0.28904 0.09232 0.42724 0.0
C137 C 0.24005 0.14135 0.45417 0.0
C138 C 0.30535 0.0726 0.429 0.0
O139 O 0.26737 0.07586 0.51068 0.0
Mg140 Mg 0.18061 0.98019 0.75058 0.0
O141 O 0.14681 0.9453 0.7361 0.0
O142 O 0.12552 0.9354 0.77426 0.0
Mg143 Mg 0.14482 0.96244 0.81205 0.0
C144 C 0.12836 0.9315 0.74814 0.0
C145 C 0.19948 0.97571 0.68897 0.0
O146 O 0.20742 0.95167 0.69645 0.0
O147 O 0.148 0.01122 0.75376 0.0
O148 O 0.12804 0.00043 0.79232 0.0
O149 O 0.21027 0.94847 0.76048 0.0
O150 O 0.18268 0.9661 0.79036 0.0
C151 C 0.13036 0.01536 0.77161 0.0
C152 C 0.20057 0.94856 0.78483 0.0
O153 O 0.18708 0.99085 0.70594 0.0
Mg154 Mg 0.24801 0.77752 0.97569 0.0
O155 O 0.27196 0.81276 0.00395 0.0
O156 O 0.31407 0.81864 0.98917 0.0
Mg157 Mg 0.3167 0.78739 0.95139 0.0
C158 C 0.29605 0.82508 0.00598 0.0
C159 C 0.19202 0.76867 0.99813 0.0
O160 O 0.19924 0.74324 0.99251 0.0
O161 O 0.24303 0.80681 0.941 0.0
O162 O 0.28523 0.81052 0.92602 0.0
O163 O 0.26429 0.74739 0.00445 0.0
O164 O 0.28418 0.76008 0.9669 0.0
C165 C 0.26011 0.81618 0.92444 0.0
C166 C 0.28505 0.74692 0.98924 0.0
O167 O 0.20825 0.78918 0.99327 0.0
Mg168 Mg 0.24225 0.42749 0.03403 0.0
O169 O 0.24834 0.46349 0.00584 0.0
O170 O 0.2073 0.47907 0.99515 0.0
Mg171 Mg 0.17523 0.45384 0.01692 0.0
C172 C 0.2332 0.47999 0.99336 0.0
C173 C 0.30384 0.42252 0.02477 0.0
O174 O 0.29346 0.42205 -0.00116 0.0
O175 O 0.23684 0.45807 0.07101 0.0
O176 O 0.19506 0.47165 0.05971 0.0
O177 O 0.23457 0.39728 0.99688 0.0
O178 O 0.20205 0.41916 0.01691 0.0
C179 C 0.21649 0.47216 0.07648 0.0
C180 C 0.20901 0.40245 0.99699 0.0
O181 O 0.28827 0.42687 0.04445 0.0
Mg182 Mg 0.78503 0.1915 0.00344 0.0
O183 O 0.7647 0.15369 0.97654 0.0
O184 O 0.79653 0.12437 0.96615 0.0
Mg185 Mg 0.83789 0.1439 0.98592 0.0
C186 C 0.77173 0.13103 0.96468 0.0
C187 C 0.7244 0.20628 0.99499 0.0
O188 O 0.73102 0.20307 0.96904 0.0
O189 O 0.78922 0.16516 0.0412 0.0
O190 O 0.82298 0.13887 0.02927 0.0
O191 O 0.79395 0.21306 0.96458 0.0
O192 O 0.82154 0.18513 0.98509 0.0
C193 C 0.80594 0.14672 0.04658 0.0
C194 C 0.81592 0.19965 0.96437 0.0
O195 O 0.74249 0.2035 0.01462 0.0
Mg196 Mg 0.09372 0.51033 0.29193 0.0
O197 O 0.12476 0.5275 0.32808 0.0
O198 O 0.15026 0.49261 0.3392 0.0
Mg199 Mg 0.1353 0.45351 0.31141 0.0
C200 C 0.14423 0.51792 0.3427 0.0
C201 C 0.07527 0.55737 0.25701 0.0
O202 O 0.07272 0.5355 0.23884 0.0
O203 O 0.12793 0.51121 0.26266 0.0
O204 O 0.1516 0.47515 0.27403 0.0
O205 O 0.06364 0.49698 0.32185 0.0
O206 O 0.09492 0.47048 0.3057 0.0
C207 C 0.14758 0.49561 0.25913 0.0
C208 C 0.07554 0.4738 0.32211 0.0
O209 O 0.08393 0.55431 0.28202 0.0
Mg210 Mg 0.72733 0.92733 0.52465 0.0
O211 O 0.73798 0.96335 0.49818 0.0
O212 O 0.69977 0.9837 0.48624 0.0
Mg213 Mg 0.66451 0.9609 0.50606 0.0
C214 C 0.72557 0.98184 0.48568 0.0
C215 C 0.77876 0.91143 0.55819 0.0
O216 O 0.75928 0.90565 0.57477 0.0
O217 O 0.72329 0.95765 0.56215 0.0
O218 O 0.68374 0.97565 0.55003 0.0
O219 O 0.71836 0.89876 0.48643 0.0
O220 O 0.68739 0.92318 0.50626 0.0
C221 C 0.70425 0.97358 0.56746 0.0
C222 C 0.69348 0.90621 0.48611 0.0
O223 O 0.77261 0.92282 0.53586 0.0
Mg224 Mg 0.8446 0.03409 0.28129 0.0
O225 O 0.87881 0.06623 0.30094 0.0
O226 O 0.89768 0.04789 0.33839 0.0
Mg227 Mg 0.87488 0.00583 0.34396 0.0
C228 C 0.89625 0.0676 0.32209 0.0
C229 C 0.82144 0.06877 0.23426 0.0
O230 O 0.80175 0.06999 0.25138 0.0
O231 O 0.8753 0.00428 0.26452 0.0
O232 O 0.88941 0.98575 0.30367 0.0
O233 O 0.81458 0.05446 0.3076 0.0
O234 O 0.8392 0.02029 0.32059 0.0
C235 C 0.8889 0.9867 0.27723 0.0
C236 C 0.82212 0.03848 0.32674 0.0
O237 O 0.84239 0.05581 0.24084 0.0
Mg238 Mg 0.2802 0.70991 0.50896 0.0
O239 O 0.26285 0.67116 0.48153 0.0
O240 O 0.29728 0.64482 0.47184 0.0
Mg241 Mg 0.33703 0.6673 0.49246 0.0
C242 C 0.27188 0.64937 0.46984 0.0
C243 C 0.22703 0.74179 0.51652 0.0
O244 O 0.24278 0.7619 0.50748 0.0
O245 O 0.28576 0.68346 0.54643 0.0
O246 O 0.32179 0.66012 0.53541 0.0
O247 O 0.2874 0.73255 0.47058 0.0
O248 O 0.31751 0.70698 0.49083 0.0
C249 C 0.30369 0.6663 0.55218 0.0
C250 C 0.31058 0.72125 0.47022 0.0
O251 O 0.23663 0.71829 0.5197 0.0
Mg252 Mg 0.33073 0.53932 0.78043 0.0
O253 O 0.36709 0.56865 0.80029 0.0
O254 O 0.38501 0.54832 0.83696 0.0
Mg255 Mg 0.35952 0.50756 0.84193 0.0
C256 C 0.38471 0.56848 0.82112 0.0
C257 C 0.30932 0.57592 0.73392 0.0
O258 O 0.28888 0.57649 0.75016 0.0
O259 O 0.35903 0.5075 0.76225 0.0
O260 O 0.37185 0.4873 0.80087 0.0
O261 O 0.30264 0.56121 0.80839 0.0
O262 O 0.32516 0.52491 0.81934 0.0
C263 C 0.37124 0.48863 0.77447 0.0
C264 C 0.30974 0.5442 0.82672 0.0
O265 O 0.32988 0.5625 0.74076 0.0
Mg266 Mg 0.5833 0.00846 0.78602 0.0
O267 O 0.61596 0.0232 0.82169 0.0
O268 O 0.63977 0.98644 0.8305 0.0
Mg269 Mg 0.62278 0.94892 0.80157 0.0
C270 C 0.63512 0.01202 0.83527 0.0
C271 C 0.55957 0.05577 0.75584 0.0
O272 O 0.55041 0.03314 0.74019 0.0
O273 O 0.61645 0.00909 0.75546 0.0
O274 O 0.6389 0.97165 0.76482 0.0
O275 O 0.55386 0.99524 0.81664 0.0
O276 O 0.58334 0.96795 0.79823 0.0
C277 C 0.63535 0.99283 0.75082 0.0
C278 C 0.56487 0.97155 0.81564 0.0
O279 O 0.57468 0.05323 0.77791 0.0
Mg280 Mg 0.77176 0.59147 0.9738 0.0
O281 O 0.80602 0.62383 0.99208 0.0
O282 O 0.81963 0.6493 0.95777 0.0
Mg283 Mg 0.79329 0.63359 0.91771 0.0
C284 C 0.82122 0.6434 0.98323 0.0
C285 C 0.74799 0.55892 0.02115 0.0
O286 O 0.74112 0.54127 -0.00068 0.0
O287 O 0.74281 0.62584 0.97322 0.0
O288 O 0.75478 0.64962 0.93714 0.0
O289 O 0.80146 0.56079 0.9611 0.0
O290 O 0.78625 0.59241 0.93416 0.0
C291 C 0.73939 0.64535 0.95706 0.0
C292 C 0.80172 0.57222 0.93757 0.0
O293 O 0.76124 0.58192 0.01774 0.0
Mg294 Mg 0.93308 0.47611 0.73056 0.0
O295 O 0.89942 0.45534 0.69829 0.0
O296 O 0.88238 0.41687 0.71642 0.0
Mg297 Mg 0.90605 0.41147 0.75804 0.0
C298 C 0.88281 0.4335 0.69693 0.0
C299 C 0.95301 0.5241 0.69496 0.0
O300 O 0.97215 0.50684 0.69077 0.0
O301 O 0.90153 0.49046 0.7607 0.0
O302 O 0.88952 0.45037 0.77878 0.0
O303 O 0.96467 0.45168 0.71004 0.0
O304 O 0.94013 0.43719 0.74373 0.0
C305 C 0.88865 0.47674 0.77814 0.0
C306 C 0.9577 0.43211 0.72578 0.0
O307 O 0.93353 0.51713 0.7098 0.0
Mg308 Mg 0.74869 0.28449 0.4928 0.0
O309 O 0.77353 0.31894 0.52126 0.0
O310 O 0.81496 0.32562 0.50516 0.0
Mg311 Mg 0.81637 0.29561 0.46617 0.0
C312 C 0.79755 0.33133 0.52288 0.0
C313 C 0.70696 0.29037 0.53785 0.0
O314 O 0.7271 0.27971 0.5519 0.0
O315 O 0.74207 0.31476 0.45898 0.0
O316 O 0.78369 0.3188 0.44269 0.0
O317 O 0.76653 0.25328 0.51957 0.0
O318 O 0.78454 0.26749 0.48165 0.0
C319 C 0.75856 0.3244 0.44197 0.0
C320 C 0.78647 0.25343 0.50331 0.0
O321 O 0.70974 0.29568 0.5127 0.0
Mg322 Mg 0.67477 0.47777 0.25928 0.0
O323 O 0.64226 0.44248 0.24339 0.0
O324 O 0.61794 0.43201 0.27935 0.0
Mg325 Mg 0.63503 0.45948 0.31797 0.0
C326 C 0.62293 0.42834 0.25373 0.0
C327 C 0.694 0.5106 0.21047 0.0
O328 O 0.69948 0.52908 0.23189 0.0
O329 O 0.64172 0.50853 0.26006 0.0
O330 O 0.61944 0.49754 0.29721 0.0
O331 O 0.70417 0.44675 0.27145 0.0
O332 O 0.67471 0.46422 0.29938 0.0
C333 C 0.62303 0.51259 0.27676 0.0
C334 C 0.69327 0.44705 0.29522 0.0
O335 O 0.68314 0.48663 0.21458 0.0
H336 H 0.09804 0.42396 0.32917 0.0
H337 H 0.98334 0.36896 0.42545 0.0
H338 H 0.03413 0.47397 0.35736 0.0
H339 H 0.0592 0.32959 0.41737 0.0
H340 H 0.00028 0.40602 0.39783 0.0
H341 H 0.08302 0.38781 0.35897 0.0
C342 C 0.08102 0.4275 0.34179 0.0
C343 C 0.06744 0.45216 0.34086 0.0
C344 C 0.01327 0.38934 0.40216 0.0
C345 C 0.04985 0.41058 0.37465 0.0
C346 C 0.00357 0.36805 0.41784 0.0
C347 C 0.01986 0.34604 0.42373 0.0
C348 C 0.03935 0.38855 0.39196 0.0
C349 C 0.04596 0.34615 0.41339 0.0
C350 C 0.07243 0.40679 0.35877 0.0
C351 C 0.04526 0.45535 0.35746 0.0
N352 N 0.05486 0.36702 0.39787 0.0
N353 N 0.03706 0.43473 0.37354 0.0
H354 H 0.89137 0.79276 0.599 0.0
H355 H 0.82249 0.91429 0.52524 0.0
H356 H 0.93463 0.84046 0.54098 0.0
H357 H 0.79686 0.88259 0.60169 0.0
H358 H 0.86396 0.88879 0.52998 0.0
H359 H 0.85656 0.82587 0.59923 0.0
C360 C 0.89388 0.81046 0.5866 0.0
C361 C 0.91634 0.81397 0.57029 0.0
C362 C 0.84942 0.88781 0.54589 0.0
C363 C 0.87562 0.85192 0.56983 0.0
C364 C 0.82576 0.90236 0.54324 0.0
C365 C 0.80594 0.90025 0.56291 0.0
C366 C 0.85308 0.87088 0.56819 0.0
C367 C 0.81134 0.88459 0.58583 0.0
C368 C 0.87379 0.82941 0.58667 0.0
C369 C 0.91774 0.83701 0.55398 0.0
N370 N 0.83417 0.87026 0.58762 0.0
N371 N 0.89749 0.85504 0.55396 0.0
H372 H 0.43161 0.57347 0.85603 0.0
H373 H 0.42397 0.73565 0.88807 0.0
H374 H 0.37844 0.62188 0.80689 0.0
H375 H 0.4931 0.69212 0.91739 0.0
H376 H 0.4079 0.69463 0.85695 0.0
H377 H 0.45579 0.61674 0.87715 0.0
C378 C 0.42532 0.59319 0.84931 0.0
C379 C 0.40279 0.59402 0.82982 0.0
C380 C 0.42679 0.69418 0.8699 0.0
C381 C 0.43007 0.64368 0.85436 0.0
C382 C 0.43594 0.71757 0.88777 0.0
C383 C 0.45982 0.71728 0.90557 0.0
C384 C 0.44134 0.67009 0.87014 0.0
C385 C 0.47456 0.6933 0.90409 0.0
C386 C 0.43914 0.6179 0.8614 0.0
C387 C 0.39565 0.6202 0.82184 0.0
N388 N 0.46487 0.67053 0.88701 0.0
N389 N 0.40893 0.64399 0.83451 0.0
H390 H 0.5731 0.23346 0.07351 0.0
H391 H 0.68158 0.21435 0.95772 0.0
H392 H 0.55484 0.24207 0.98574 0.0
H393 H 0.7024 0.21151 0.04596 0.0
H394 H 0.63473 0.22327 0.9677 0.0
H395 H 0.62008 0.22391 0.06392 0.0
C396 C 0.57892 0.23327 0.05221 0.0
C397 C 0.55995 0.23861 0.03039 0.0
C398 C 0.64952 0.22074 0.98492 0.0
C399 C 0.61375 0.22773 0.0193 0.0
C400 C 0.67634 0.21565 0.97923 0.0
C401 C 0.69603 0.21222 0.00104 0.0
C402 C 0.64219 0.22235 0.01263 0.0
C403 C 0.68793 0.21408 0.02849 0.0
C404 C 0.60578 0.22787 0.04677 0.0
C405 C 0.56871 0.23812 0.00323 0.0
N406 N 0.66164 0.21899 0.0335 0.0
N407 N 0.59493 0.23279 0.99848 0.0
H408 H 0.07816 0.60729 0.2888 0.0
H409 H 0.01619 0.69157 0.16443 0.0
H410 H 0.05513 0.57019 0.2055 0.0
H411 H 0.04202 0.72954 0.24679 0.0
H412 H 0.03009 0.64683 0.17922 0.0
H413 H 0.06488 0.65225 0.27392 0.0
C414 C 0.07034 0.60858 0.26738 0.0
C415 C 0.06772 0.5849 0.24839 0.0
C416 C 0.03273 0.66495 0.19406 0.0
C417 C 0.05244 0.6363 0.23122 0.0
C418 C 0.02477 0.69051 0.18563 0.0
C419 C 0.02792 0.71437 0.2044 0.0
C420 C 0.04389 0.66317 0.22149 0.0
C421 C 0.03919 0.71173 0.2316 0.0
C422 C 0.06276 0.63427 0.25889 0.0
C423 C 0.05749 0.58786 0.22089 0.0
N424 N 0.04674 0.68661 0.23932 0.0
N425 N 0.0502 0.61304 0.21316 0.0
H426 H 0.54335 0.83094 0.3946 0.0
H427 H 0.63861 0.91368 0.48273 0.0
H428 H 0.61225 0.78541 0.37189 0.0
H429 H 0.70033 0.87147 0.4401 0.0
H430 H 0.60343 0.88872 0.45086 0.0
H431 H 0.57487 0.86766 0.41823 0.0
C432 C 0.56519 0.82872 0.39461 0.0
C433 C 0.57518 0.80488 0.38167 0.0
C434 C 0.62456 0.88523 0.44776 0.0
C435 C 0.61169 0.84648 0.40965 0.0
C436 C 0.64479 0.89956 0.4662 0.0
C437 C 0.67244 0.89448 0.46424 0.0
C438 C 0.63206 0.86562 0.42712 0.0
C439 C 0.67923 0.87587 0.44252 0.0
C440 C 0.58332 0.84967 0.40839 0.0
C441 C 0.60364 0.80332 0.38182 0.0
N442 N 0.65916 0.8619 0.42503 0.0
N443 N 0.62085 0.82367 0.39588 0.0
H444 H 0.41551 0.32524 0.72123 0.0
H445 H 0.38383 0.4856 0.71911 0.0
H446 H 0.45083 0.37788 0.6621 0.0
H447 H 0.38363 0.43841 0.79205 0.0
H448 H 0.4004 0.44509 0.69276 0.0
H449 H 0.39377 0.36517 0.7414 0.0
C450 C 0.41836 0.34508 0.71217 0.0
C451 C 0.43528 0.34826 0.69013 0.0
C452 C 0.39669 0.44383 0.71456 0.0
C453 C 0.41057 0.39418 0.71333 0.0
C454 C 0.38732 0.46688 0.72958 0.0
C455 C 0.38253 0.46554 0.75791 0.0
C456 C 0.40061 0.41923 0.72787 0.0
C457 C 0.38726 0.44066 0.77038 0.0
C458 C 0.40608 0.36793 0.72383 0.0
C459 C 0.4381 0.37454 0.67921 0.0
N460 N 0.39584 0.41856 0.75528 0.0
N461 N 0.42602 0.39661 0.69106 0.0
H462 H 0.94411 0.24982 0.86208 0.0
H463 H 0.8372 0.15504 0.93832 0.0
H464 H 0.94914 0.1617 0.87058 0.0
H465 H 0.83448 0.24407 0.93665 0.0
H466 H 0.87291 0.15598 0.90558 0.0
H467 H 0.89915 0.24691 0.8812 0.0
C468 C 0.93559 0.22975 0.86752 0.0
C469 C 0.95066 0.20603 0.86515 0.0
C470 C 0.86443 0.17535 0.91213 0.0
C471 C 0.89924 0.20265 0.88716 0.0
C472 C 0.84417 0.17482 0.93102 0.0
C473 C 0.83356 0.19963 0.94081 0.0
C474 C 0.87439 0.20095 0.90312 0.0
C475 C 0.84241 0.22453 0.92973 0.0
C476 C 0.90993 0.22815 0.87851 0.0
C477 C 0.93847 0.1806 0.87237 0.0
N478 N 0.86272 0.22467 0.9118 0.0
N479 N 0.91365 0.17966 0.88333 0.0
H480 H 0.33434 0.02653 0.42445 0.0
H481 H 0.37338 0.03608 0.26787 0.0
H482 H 0.30869 0.09479 0.37803 0.0
H483 H 0.35448 0.95878 0.30526 0.0
H484 H 0.35733 0.06163 0.30912 0.0
H485 H 0.35199 0.0056 0.3824 0.0
C486 C 0.33278 0.03738 0.40554 0.0
C487 C 0.31981 0.06236 0.40475 0.0
C488 C 0.35661 0.03906 0.30797 0.0
C489 C 0.33989 0.03835 0.35642 0.0
C490 C 0.36562 0.02447 0.28447 0.0
C491 C 0.36541 0.99519 0.28303 0.0
C492 C 0.34796 0.02423 0.33027 0.0
C493 C 0.3552 0.98128 0.30527 0.0
C494 C 0.34267 0.02529 0.38148 0.0
C495 C 0.31843 0.07543 0.37954 0.0
N496 N 0.34725 0.99592 0.328 0.0
N497 N 0.32829 0.06322 0.35625 0.0
H498 H 0.19337 0.0277 0.67077 0.0
H499 H 0.26166 0.99557 0.52688 0.0
H500 H 0.22369 0.94821 0.64646 0.0
H501 H 0.2466 0.07863 0.55896 0.0
H502 H 0.24492 0.97723 0.56902 0.0
H503 H 0.20923 0.04587 0.62813 0.0
C504 C 0.20319 0.01398 0.65639 0.0
C505 C 0.20725 0.98636 0.66227 0.0
C506 C 0.24534 -0.00052 0.5669 0.0
C507 C 0.22556 0.00715 0.6134 0.0
C508 C 0.25491 0.00999 0.54282 0.0
C509 C 0.25557 0.03871 0.53936 0.0
C510 C 0.23613 0.01774 0.58766 0.0
C511 C 0.24655 0.05636 0.56077 0.0
C512 C 0.21237 0.02444 0.6321 0.0
C513 C 0.22017 0.96963 0.64285 0.0
N514 N 0.23709 0.04558 0.58396 0.0
N515 N 0.22886 0.98029 0.6193 0.0
H516 H 0.18281 0.94314 0.83699 0.0
H517 H 0.28594 0.83018 0.87826 0.0
H518 H 0.23725 0.90847 0.77919 0.0
H519 H 0.21322 0.84406 0.92154 0.0
H520 H 0.27098 0.86162 0.8436 0.0
H521 H 0.19627 0.90982 0.8701 0.0
C522 C 0.19739 0.92837 0.83109 0.0
C523 C 0.20863 0.92841 0.80506 0.0
C524 C 0.25826 0.85766 0.86061 0.0
C525 C 0.2246 0.89052 0.84327 0.0
C526 C 0.26681 0.83981 0.88048 0.0
C527 C 0.25082 0.83451 0.9029 0.0
C528 C 0.23374 0.87063 0.86336 0.0
C529 C 0.22616 0.84748 0.90459 0.0
C530 C 0.20512 0.90937 0.85009 0.0
C531 C 0.22795 0.9091 0.79895 0.0
N532 N 0.21847 0.86511 0.88519 0.0
N533 N 0.23543 0.891 0.81798 0.0
H534 H 0.34126 0.86254 0.0129 0.0
H535 H 0.32442 0.89905 0.17322 0.0
H536 H 0.26894 0.83576 0.05312 0.0
H537 H 0.3826 0.94513 0.12736 0.0
H538 H 0.30262 0.87718 0.12918 0.0
H539 H 0.35604 0.89402 0.05406 0.0
C540 C 0.32836 0.86343 0.03027 0.0
C541 C 0.30392 0.84625 0.02959 0.0
C542 C 0.31987 0.89241 0.12868 0.0
C543 C 0.32087 0.88216 0.07691 0.0
C544 C 0.33233 0.90493 0.15384 0.0
C545 C 0.3555 0.92381 0.154 0.0
C546 C 0.33097 0.89837 0.10347 0.0
C547 C 0.36478 0.93071 0.12824 0.0
C548 C 0.33677 0.88151 0.05373 0.0
C549 C 0.28797 0.84851 0.05269 0.0
N550 N 0.35278 0.91763 0.10403 0.0
N551 N 0.2969 0.86582 0.07552 0.0
H552 H 0.32925 0.4146 0.07576 0.0
H553 H 0.4458 0.32743 0.01046 0.0
H554 H 0.34078 0.40651 0.98757 0.0
H555 H 0.42077 0.32261 0.09412 0.0
H556 H 0.41435 0.36432 0.00355 0.0
H557 H 0.37006 0.38938 0.08456 0.0
C558 C 0.3406 0.40795 0.05826 0.0
C559 C 0.33126 0.41226 0.03082 0.0
C560 C 0.41593 0.35526 0.02347 0.0
C561 C 0.37791 0.38309 0.04076 0.0
C562 C 0.43388 0.3343 0.02744 0.0
C563 C 0.4353 0.32141 0.05265 0.0
C564 C 0.39966 0.36358 0.04506 0.0
C565 C 0.41961 0.33118 0.07404 0.0
C566 C 0.36385 0.39342 0.0633 0.0
C567 C 0.34701 0.40334 0.00903 0.0
N568 N 0.40236 0.35154 0.06972 0.0
N569 N 0.36937 0.38886 0.01443 0.0
H570 H 0.94168 0.82589 0.22766 0.0
H571 H 0.89581 0.981 0.22057 0.0
H572 H 0.96099 0.87469 0.15887 0.0
H573 H 0.91113 0.94106 0.29703 0.0
H574 H 0.91338 0.9409 0.1947 0.0
H575 H 0.92217 0.86616 0.25002 0.0
C576 C 0.9415 0.84495 0.21704 0.0
C577 C 0.95314 0.84692 0.19141 0.0
C578 C 0.91296 0.94116 0.21716 0.0
C579 C 0.93096 0.89327 0.21707 0.0
C580 C 0.90303 0.96402 0.23194 0.0
C581 C 0.90195 0.96449 0.26106 0.0
C582 C 0.92132 0.91851 0.2316 0.0
C583 C 0.91153 0.94181 0.27465 0.0
C584 C 0.93054 0.86802 0.22994 0.0
C585 C 0.9523 0.87226 0.17868 0.0
N586 N 0.92054 0.91974 0.25981 0.0
N587 N 0.94145 0.89453 0.19168 0.0
H588 H 0.20074 0.79003 0.51426 0.0
H589 H 0.05625 0.72057 0.55316 0.0
H590 H 0.18759 0.70367 0.5317 0.0
H591 H 0.07196 0.80856 0.54378 0.0
H592 H 0.10365 0.71348 0.54324 0.0
H593 H 0.1531 0.79677 0.52317 0.0
C594 C 0.18786 0.77247 0.51999 0.0
C595 C 0.19825 0.74624 0.52226 0.0
C596 C 0.09671 0.73433 0.54331 0.0
C597 C 0.14352 0.75381 0.53241 0.0
C598 C 0.06961 0.73839 0.5489 0.0
C599 C 0.06007 0.76522 0.54933 0.0
C600 C 0.11444 0.75724 0.53801 0.0
C601 C 0.07837 0.78751 0.5437 0.0
C602 C 0.16062 0.77635 0.52508 0.0
C603 C 0.18053 0.72427 0.52975 0.0
N604 N 0.10464 0.78302 0.5383 0.0
N605 N 0.15405 0.72855 0.53451 0.0
H606 H 0.93405 0.69661 0.66855 0.0
H607 H 0.98969 0.54453 0.65952 0.0
H608 H 0.99022 0.67105 0.60798 0.0
H609 H 0.92116 0.56742 0.70571 0.0
H610 H 0.99355 0.59154 0.64316 0.0
H611 H 0.93332 0.65051 0.68583 0.0
C612 C 0.94641 0.68137 0.65892 0.0
C613 C 0.96206 0.68777 0.63654 0.0
C614 C 0.97766 0.5862 0.65683 0.0
C615 C 0.96113 0.63453 0.65635 0.0
C616 C 0.97541 0.55939 0.66617 0.0
C617 C 0.95503 0.55201 0.684 0.0
C618 C 0.95954 0.6058 0.66558 0.0
C619 C 0.93713 0.57212 0.69195 0.0
C620 C 0.94587 0.65493 0.66879 0.0
C621 C 0.97777 0.66706 0.62519 0.0
N622 N 0.93987 0.59808 0.68276 0.0
N623 N 0.97682 0.64128 0.63515 0.0
H624 H 0.20986 0.14089 0.49993 0.0
H625 H 0.10009 0.24088 0.44054 0.0
H626 H 0.21611 0.179 0.42189 0.0
H627 H 0.10293 0.21424 0.52432 0.0
H628 H 0.14189 0.21747 0.43264 0.0
H629 H 0.1699 0.16675 0.5086 0.0
C630 C 0.20288 0.15473 0.48461 0.0
C631 C 0.21636 0.15768 0.46008 0.0
C632 C 0.13341 0.21686 0.45278 0.0
C633 C 0.17047 0.18733 0.46989 0.0
C634 C 0.10953 0.23017 0.45729 0.0
C635 C 0.09797 0.22945 0.48311 0.0
C636 C 0.14569 0.20257 0.47418 0.0
C637 C 0.1111 0.21532 0.50408 0.0
C638 C 0.18007 0.16955 0.48962 0.0
C639 C 0.2064 0.17605 0.44109 0.0
N640 N 0.13418 0.20234 0.49911 0.0
N641 N 0.18396 0.19007 0.44633 0.0
H642 H 0.62944 0.40941 0.19954 0.0
H643 H 0.4834 0.32345 0.17982 0.0
H644 H 0.57538 0.40016 0.26597 0.0
H645 H 0.54486 0.31552 0.12021 0.0
H646 H 0.51634 0.35329 0.21084 0.0
H647 H 0.59824 0.37661 0.16926 0.0
C648 C 0.61109 0.40045 0.20781 0.0
C649 C 0.60502 0.40765 0.23535 0.0
C650 C 0.52268 0.34492 0.19103 0.0
C651 C 0.5692 0.37026 0.20077 0.0
C652 C 0.50384 0.32792 0.17325 0.0
C653 C 0.51133 0.31699 0.14731 0.0
C654 C 0.54916 0.35133 0.18275 0.0
C655 C 0.53818 0.32344 0.14002 0.0
C656 C 0.59333 0.38168 0.19053 0.0
C657 C 0.58096 0.39527 0.24492 0.0
N658 N 0.55608 0.34035 0.15758 0.0
N659 N 0.56389 0.37735 0.22761 0.0
H660 H 0.31041 0.75616 0.04143 0.0
H661 H 0.45124 0.70503 0.99053 0.0
H662 H 0.31915 0.71634 0.95984 0.0
H663 H 0.4444 0.78339 0.03765 0.0
H664 H 0.40204 0.6933 0.99416 0.0
H665 H 0.3589 0.74983 0.05426 0.0
C666 C 0.32228 0.74509 0.02666 0.0
C667 C 0.31109 0.73684 -0.00046 0.0
C668 C 0.41163 0.71257 0.00456 0.0
C669 C 0.36585 0.72937 0.01405 0.0
C670 C 0.4396 0.71917 0.00266 0.0
C671 C 0.45158 0.74519 0.01379 0.0
C672 C 0.39597 0.73196 0.0181 0.0
C673 C 0.43569 0.76315 0.02879 0.0
C674 C 0.34983 0.74164 0.03393 0.0
C675 C 0.32726 0.72307 0.98091 0.0
N676 N 0.40853 0.7563 0.03033 0.0
N677 N 0.35399 0.71993 0.98843 0.0
H678 H 0.93215 0.38077 0.72956 0.0
H679 H 0.07339 0.31732 0.76965 0.0
H680 H 0.01105 0.42238 0.71896 0.0
H681 H 0.99358 0.28071 0.78572 0.0
H682 H 0.05112 0.35026 0.74089 0.0
H683 H 0.95435 0.33839 0.73899 0.0
C684 C 0.95418 0.38082 0.72895 0.0
C685 C 0.96995 0.40517 0.72434 0.0
C686 C 0.03853 0.33473 0.75037 0.0
C687 C 0.99559 0.35697 0.73537 0.0
C688 C 0.05121 0.31591 0.76681 0.0
C689 C 0.0353 0.29663 0.78063 0.0
C690 C 0.00978 0.33418 0.74775 0.0
C691 C 0.00667 0.2956 0.77596 0.0
C692 C 0.96686 0.35661 0.73422 0.0
C693 C -0.00172 0.40397 0.72274 0.0
N694 N 0.99486 0.31433 0.7602 0.0
N695 N 0.01035 0.38038 0.7289 0.0
H696 H 0.34057 0.13578 0.53112 0.0
H697 H 0.41993 0.28732 0.55699 0.0
H698 H 0.34877 0.19384 0.46738 0.0
H699 H 0.42554 0.22469 0.61652 0.0
H700 H 0.39182 0.25378 0.52491 0.0
H701 H 0.37008 0.16828 0.5635 0.0
C702 C 0.34864 0.15525 0.52385 0.0
C703 C 0.34207 0.16203 0.49641 0.0
C704 C 0.39921 0.24732 0.54497 0.0
C705 C 0.37568 0.19942 0.53351 0.0
C706 C 0.41522 0.26654 0.5634 0.0
C707 C 0.42518 0.2589 0.58959 0.0
C708 C 0.39285 0.2202 0.55273 0.0
C709 C 0.41838 0.23155 0.59657 0.0
C710 C 0.36549 0.1738 0.54238 0.0
C711 C 0.3532 0.18761 0.48826 0.0
N712 N 0.40259 0.21323 0.57829 0.0
N713 N 0.36928 0.20536 0.50673 0.0
H714 H 0.58898 0.68172 0.26634 0.0
H715 H 0.57725 0.5246 0.30357 0.0
H716 H 0.52715 0.64817 0.31695 0.0
H717 H 0.63056 0.55571 0.24318 0.0
H718 H 0.55411 0.56778 0.30354 0.0
H719 H 0.59961 0.63439 0.25205 0.0
C720 C 0.57731 0.66435 0.2741 0.0
C721 C 0.55751 0.66891 0.2933 0.0
C722 C 0.5706 0.56501 0.28998 0.0
C723 C 0.56989 0.61461 0.27734 0.0
C724 C 0.58391 0.54037 0.29005 0.0
C725 C 0.60627 0.53673 0.27377 0.0
C726 C 0.57991 0.58634 0.27378 0.0
C727 C 0.61366 0.55772 0.25634 0.0
C728 C 0.58339 0.6373 0.26591 0.0
C729 C 0.54276 0.64563 0.30232 0.0
N730 N 0.6008 0.58181 0.25716 0.0
N731 N 0.54963 0.61946 0.29469 0.0
H732 H 0.05039 0.83732 0.06846 0.0
H733 H 0.15656 0.72944 0.01716 0.0
H734 H 0.05561 0.75517 0.09796 0.0
H735 H 0.16822 0.81796 0.00837 0.0
H736 H 0.11478 0.73715 0.0404 0.0
H737 H 0.08905 0.82906 0.03998 0.0
C738 C 0.0595 0.81749 0.06879 0.0
C739 C 0.04989 0.79698 0.08577 0.0
C740 C 0.12644 0.75488 0.03332 0.0
C741 C 0.09387 0.78741 0.05324 0.0
C742 C 0.15027 0.75051 0.01999 0.0
C743 C 0.16602 0.77313 0.011 0.0
C744 C 0.11813 0.78205 0.03756 0.0
C745 C 0.15678 0.79995 0.01516 0.0
C746 C 0.0816 0.81286 0.05264 0.0
C747 C 0.06249 0.77169 0.08541 0.0
N748 N 0.13342 0.8037 0.0282 0.0
N749 N 0.08381 0.76764 0.06942 0.0
H750 H 0.67318 0.01554 0.58496 0.0
H751 H 0.68148 0.96708 0.73795 0.0
H752 H 0.73265 0.96078 0.61529 0.0
H753 H 0.62897 0.02961 0.71037 0.0
H754 H 0.70602 0.9707 0.69586 0.0
H755 H 0.66298 0.02787 0.6329 0.0
C756 C 0.68452 0.00654 0.60175 0.0
C757 C 0.70331 0.98658 0.59606 0.0
C758 C 0.68939 0.98394 0.69919 0.0
C759 C 0.69136 0.0002 0.65099 0.0
C760 C 0.67526 0.98179 0.72319 0.0
C761 C 0.65271 0.99761 0.72742 0.0
C762 C 0.6807 0.00177 0.67907 0.0
C763 C 0.64596 0.01669 0.70781 0.0
C764 C 0.67865 0.01357 0.62916 0.0
C765 C 0.71772 0.97597 0.61867 0.0
N766 N 0.6596 0.01789 0.68426 0.0
N767 N 0.71099 0.98244 0.64512 0.0
H768 H 0.84681 0.02633 0.37651 0.0
H769 H 0.70579 0.01709 0.44802 0.0
H770 H 0.77209 0.0549 0.33989 0.0
H771 H 0.78114 0.98746 0.4824 0.0
H772 H 0.73147 0.03993 0.41319 0.0
H773 H 0.82512 0.02112 0.4199 0.0
C774 C 0.82584 0.03162 0.37763 0.0
C775 C 0.81095 0.04024 0.35435 0.0
C776 C 0.74242 0.0288 0.42865 0.0
C777 C 0.78584 0.03429 0.40402 0.0
C778 C 0.72778 0.01577 0.44858 0.0
C779 C 0.74124 -0.00021 0.46779 0.0
C780 C 0.77065 0.02576 0.42793 0.0
C781 C 0.76979 -0.00094 0.46766 0.0
C782 C 0.81348 0.02882 0.40252 0.0
C783 C 0.78415 0.04785 0.35733 0.0
N784 N 0.78346 0.01151 0.4478 0.0
N785 N 0.77221 0.04417 0.3816 0.0
H786 H 0.8403 0.10873 0.06509 0.0
H787 H 0.78083 0.10033 0.21479 0.0
H788 H 0.77397 0.15685 0.09077 0.0
H789 H 0.85556 0.06535 0.19174 0.0
H790 H 0.77596 0.11927 0.16902 0.0
H791 H 0.84366 0.09025 0.11061 0.0
C792 C 0.82631 0.1154 0.08026 0.0
C793 C 0.80684 0.13453 0.074 0.0
C794 C 0.79344 0.10752 0.17406 0.0
C795 C 0.81074 0.11328 0.12659 0.0
C796 C 0.79625 0.09668 0.20016 0.0
C797 C 0.81864 0.0812 0.20711 0.0
C798 C 0.81306 0.10265 0.15473 0.0
C799 C 0.83798 0.07716 0.18734 0.0
C800 C 0.82834 0.10485 0.10637 0.0
C801 C 0.78932 0.14222 0.09466 0.0
N802 N 0.83468 0.08773 0.16206 0.0
N803 N 0.79169 0.13156 0.12008 0.0
H804 H 0.63089 0.06646 0.85508 0.0
H805 H 0.77631 0.07789 0.94212 0.0
H806 H 0.68129 0.99709 0.86382 0.0
H807 H 0.71897 0.14176 0.94858 0.0
H808 H 0.74191 0.04844 0.91242 0.0
H809 H 0.66307 0.09495 0.88847 0.0
C810 C 0.64861 0.05717 0.86407 0.0
C811 C 0.65341 0.02934 0.8565 0.0
C812 C 0.73679 0.06884 0.92046 0.0
C813 C 0.69034 0.06186 0.89456 0.0
C814 C 0.75647 0.08571 0.93739 0.0
C815 C 0.75059 0.1124 0.94781 0.0
C816 C 0.71111 0.07879 0.91364 0.0
C817 C 0.72443 0.12133 0.94103 0.0
C818 C 0.66694 0.07343 0.88317 0.0
C819 C 0.6767 0.01843 0.86893 0.0
N820 N 0.70572 0.10464 0.92421 0.0
N821 N 0.69434 0.03475 0.88717 0.0
H822 H 0.60542 0.728 0.02492 0.0
H823 H 0.71619 0.6799 0.92066 0.0
H824 H 0.59662 0.73748 0.93636 0.0
H825 H 0.70999 0.65105 0.003 0.0
H826 H 0.67628 0.70687 0.92749 0.0
H827 H 0.64782 0.70554 0.01854 0.0
C828 C 0.61245 0.72546 0.00412 0.0
C829 C 0.59735 0.73447 0.9811 0.0
C830 C 0.68377 0.69468 0.94404 0.0
C831 C 0.64598 0.70879 0.97369 0.0
C832 C 0.70659 0.67939 0.94023 0.0
C833 C 0.71635 0.66306 0.96124 0.0
C834 C 0.67087 0.69387 0.96915 0.0
C835 C 0.70306 0.66314 0.98614 0.0
C836 C 0.63665 0.71257 0.0005 0.0
C837 C 0.60754 0.73068 0.95466 0.0
N838 N 0.68103 0.67829 0.98939 0.0
N839 N 0.63126 0.71808 0.95165 0.0
H840 H 0.13447 0.05731 0.73615 0.0
H841 H 0.03332 0.14883 0.81978 0.0
H842 H 0.08695 0.0279 0.80192 0.0
H843 H 0.09517 0.18219 0.76908 0.0
H844 H 0.04267 0.10163 0.80264 0.0
H845 H 0.11027 0.09995 0.73776 0.0
C846 C 0.11869 0.0596 0.75066 0.0
C847 C 0.11321 0.03927 0.76941 0.0
C848 C 0.05379 0.11933 0.79488 0.0
C849 C 0.08546 0.08799 0.77129 0.0
C850 C 0.04837 0.14627 0.80453 0.0
C851 C 0.06396 0.1694 0.79631 0.0
C852 C 0.07481 0.11566 0.77683 0.0
C853 C 0.08311 0.16488 0.77641 0.0
C854 C 0.10489 0.08396 0.75156 0.0
C855 C 0.09228 0.04327 0.78749 0.0
N856 N 0.08827 0.13851 0.76765 0.0
N857 N 0.07942 0.06734 0.78823 0.0
H858 H 0.95137 0.20831 0.49379 0.0
H859 H 0.81529 0.26253 0.5538 0.0
H860 H 0.94861 0.28724 0.54119 0.0
H861 H 0.81798 0.22231 0.47129 0.0
H862 H 0.86426 0.25567 0.56309 0.0
H863 H 0.90233 0.19801 0.49989 0.0
C864 C 0.94065 0.2229 0.50641 0.0
C865 C 0.95371 0.24863 0.51703 0.0
C866 C 0.85379 0.24752 0.54335 0.0
C867 C 0.89837 0.237 0.52419 0.0
C868 C 0.82596 0.25126 0.53812 0.0
C869 C 0.8129 0.24298 0.51175 0.0
C870 C 0.8682 0.23497 0.52223 0.0
C871 C 0.82755 0.22899 0.49184 0.0
C872 C 0.9128 0.21711 0.50973 0.0
C873 C 0.93903 0.26721 0.53272 0.0
N874 N 0.85457 0.22557 0.4974 0.0
N875 N 0.91199 0.26112 0.53571 0.0
H876 H 0.58569 0.92049 0.81989 0.0
H877 H 0.47835 0.86848 0.92517 0.0
H878 H 0.52621 0.97279 0.85398 0.0
H879 H 0.55248 0.82763 0.91149 0.0
H880 H 0.49373 0.9052 0.89631 0.0
H881 H 0.57212 0.88469 0.85063 0.0
C882 C 0.56995 0.9246 0.83398 0.0
C883 C 0.55724 0.94984 0.83449 0.0
C884 C 0.50668 0.88827 0.8997 0.0
C885 C 0.54126 0.90863 0.86939 0.0
C886 C 0.49788 0.8672 0.91609 0.0
C887 C 0.51414 0.84487 0.92074 0.0
C888 C 0.5318 0.88692 0.88754 0.0
C889 C 0.53932 0.84447 0.90853 0.0
C890 C 0.56219 0.90408 0.85151 0.0
C891 C 0.53664 0.95371 0.85293 0.0
N892 N 0.54731 0.86511 0.89233 0.0
N893 N 0.52919 0.93327 0.86955 0.0
H894 H 0.00105 0.1952 0.41938 0.0
H895 H 0.8864 0.1201 0.30723 0.0
H896 H 0.92852 0.23379 0.39049 0.0
H897 H 0.94308 0.07589 0.35693 0.0
H898 H 0.90857 0.16433 0.32873 0.0
H899 H 0.98648 0.15396 0.38796 0.0
C900 C 0.98224 0.19521 0.40619 0.0
C901 C 0.96583 0.21795 0.40785 0.0
C902 C 0.91637 0.14492 0.33459 0.0
C903 C 0.94913 0.17073 0.37174 0.0
C904 C 0.90389 0.11966 0.32217 0.0
C905 C 0.91271 0.09421 0.33051 0.0
C906 C 0.93801 0.14473 0.35524 0.0
C907 C 0.9354 0.09499 0.35009 0.0
C908 C 0.97392 0.17159 0.38831 0.0
C909 C 0.94168 0.21666 0.39016 0.0
N910 N 0.94713 0.11981 0.36192 0.0
N911 N 0.93399 0.1934 0.37295 0.0
H912 H 0.52644 0.06741 0.71087 0.0
H913 H 0.54609 0.23317 0.74371 0.0
H914 H 0.57616 0.10742 0.78196 0.0
H915 H 0.49311 0.19239 0.67536 0.0
H916 H 0.55794 0.1875 0.7577 0.0
H917 H 0.51465 0.11311 0.69727 0.0
C918 C 0.5349 0.08581 0.72366 0.0
C919 C 0.55233 0.08353 0.74763 0.0
C920 C 0.54371 0.18853 0.73965 0.0
C921 C 0.53888 0.1361 0.73208 0.0
C922 C 0.53693 0.21462 0.73163 0.0
C923 C 0.51855 0.21665 0.7083 0.0
C924 C 0.53209 0.16423 0.72424 0.0
C925 C 0.50734 0.19186 0.69348 0.0
C926 C 0.52812 0.11194 0.71586 0.0
C927 C 0.56263 0.10817 0.76334 0.0
N928 N 0.51431 0.16672 0.70168 0.0
N929 N 0.55577 0.13342 0.75527 0.0
H930 H 0.15351 0.40694 0.993 0.0
H931 H 0.126 0.28131 0.87535 0.0
H932 H 0.21771 0.36678 0.95232 0.0
H933 H 0.06155 0.32416 0.91272 0.0
H934 H 0.15977 0.31558 0.89991 0.0
H935 H 0.11953 0.3802 0.9604 0.0
C936 C 0.1605 0.39279 0.97698 0.0
C937 C 0.18849 0.38894 0.97551 0.0
C938 C 0.13823 0.31768 0.90252 0.0
C939 C 0.14967 0.358 0.93834 0.0
C940 C 0.11889 0.29813 0.88843 0.0
C941 C 0.09089 0.29978 0.89208 0.0
C942 C 0.12954 0.33893 0.9206 0.0
C943 C 0.08294 0.32198 0.90942 0.0
C944 C 0.14106 0.37746 0.9584 0.0
C945 C 0.19633 0.37027 0.95434 0.0
N946 N 0.10219 0.34055 0.92324 0.0
N947 N 0.177 0.35529 0.93675 0.0
H948 H 0.43921 0.69683 0.36064 0.0
H949 H 0.3179 0.76531 0.43794 0.0
H950 H 0.42476 0.78418 0.36032 0.0
H951 H 0.34249 0.68227 0.44803 0.0
H952 H 0.35089 0.7704 0.40209 0.0
H953 H 0.39751 0.68895 0.3848 0.0
C954 C 0.42705 0.7143 0.36523 0.0
C955 C 0.43579 0.7413 0.35884 0.0
C956 C 0.3489 0.751 0.41209 0.0
C957 C 0.38811 0.73246 0.38683 0.0
C958 C 0.33007 0.74808 0.43246 0.0
C959 C 0.32806 0.72362 0.44656 0.0
C960 C 0.36551 0.72913 0.40561 0.0
C961 C 0.34409 0.70186 0.43854 0.0
C962 C 0.40328 0.7098 0.37916 0.0
C963 C 0.41902 0.76306 0.36514 0.0
N964 N 0.36222 0.70518 0.41876 0.0
N965 N 0.39617 0.75824 0.37911 0.0
H966 H 0.86662 0.45489 0.82302 0.0
H967 H 0.80971 0.59385 0.88716 0.0
H968 H 0.87893 0.53267 0.78458 0.0
H969 H 0.82892 0.52469 0.93538 0.0
H970 H 0.83119 0.57174 0.84765 0.0
H971 H 0.84745 0.47959 0.86191 0.0
C972 C 0.86511 0.47717 0.82256 0.0
C973 C 0.87453 0.49169 0.80036 0.0
C974 C 0.83092 0.56162 0.86701 0.0
C975 C 0.85254 0.52022 0.84532 0.0
C976 C 0.81873 0.57423 0.88961 0.0
C977 C 0.81749 0.5611 0.91467 0.0
C978 C 0.84146 0.5355 0.86936 0.0
C979 C 0.82941 0.53561 0.91652 0.0
C980 C 0.85432 0.4913 0.84499 0.0
C981 C 0.87198 0.52061 0.80121 0.0
N982 N 0.84061 0.52352 0.89409 0.0
N983 N 0.86114 0.53397 0.82333 0.0
H984 H 0.68564 0.47756 0.16132 0.0
H985 H 0.75695 0.59144 0.07051 0.0
H986 H 0.71862 0.55936 0.1952 0.0
H987 H 0.72089 0.51107 0.03572 0.0
H988 H 0.74336 0.57987 0.11643 0.0
H989 H 0.69852 0.4893 0.11517 0.0
C990 C 0.69554 0.498 0.15907 0.0
C991 C 0.70109 0.51748 0.18222 0.0
C992 C 0.73841 0.56476 0.09875 0.0
C993 C 0.71595 0.53105 0.12941 0.0
C994 C 0.74621 0.57134 0.07251 0.0
C995 C 0.74008 0.55219 0.04919 0.0
C996 C 0.72442 0.5388 0.10178 0.0
C997 C 0.72606 0.52649 0.05308 0.0
C998 C 0.7029 0.5047 0.1327 0.0
C999 C 0.71395 0.54366 0.178 0.0
N1000 N 0.71874 0.52055 0.07885 0.0
N1001 N 0.72098 0.54964 0.15216 0.0
H1002 H 0.78403 0.33917 0.39595 0.0
H1003 H 0.67264 0.4412 0.34621 0.0
H1004 H 0.71007 0.34995 0.4381 0.0
H1005 H 0.73292 0.40988 0.29319 0.0
H1006 H 0.68753 0.41062 0.38166 0.0
H1007 H 0.76736 0.36809 0.35994 0.0
C1008 C 0.76428 0.34766 0.39771 0.0
C1009 C 0.74844 0.34211 0.42017 0.0
C1010 C 0.69734 0.41032 0.36218 0.0
C1011 C 0.72925 0.37537 0.37884 0.0
C1012 C 0.68882 0.42774 0.34186 0.0
C1013 C 0.7014 0.42799 0.31655 0.0
C1014 C 0.71889 0.39332 0.35734 0.0
C1015 C 0.72257 0.41033 0.31234 0.0
C1016 C 0.75473 0.36408 0.37701 0.0
C1017 C 0.72294 0.35362 0.42115 0.0
N1018 N 0.73074 0.39383 0.33259 0.0
N1019 N 0.71419 0.36984 0.40083 0.0
H1020 H 0.89075 0.44903 0.64419 0.0
H1021 H 0.77211 0.33971 0.57142 0.0
H1022 H 0.83635 0.39807 0.68981 0.0
H1023 H 0.84282 0.36878 0.5299 0.0
H1024 H 0.78925 0.36949 0.61308 0.0
H1025 H 0.86681 0.42838 0.60041 0.0
C1026 C 0.87343 0.43396 0.64505 0.0
C1027 C 0.8657 0.42508 0.67071 0.0
C1028 C 0.80085 0.36953 0.59474 0.0
C1029 C 0.83835 0.40137 0.62076 0.0
C1030 C 0.79105 0.35261 0.57089 0.0
C1031 C 0.80618 0.3515 0.54715 0.0
C1032 C 0.82583 0.38571 0.59482 0.0
C1033 C 0.83061 0.36872 0.54779 0.0
C1034 C 0.85993 0.42204 0.62005 0.0
C1035 C 0.84319 0.40533 0.67051 0.0
N1036 N 0.83972 0.38502 0.57127 0.0
N1037 N 0.83041 0.39405 0.64595 0.0
H1038 H 0.44055 0.04443 0.15085 0.0
H1039 H 0.43537 0.2095 0.16508 0.0
H1040 H 0.43024 0.09119 0.22878 0.0
H1041 H 0.47386 0.16711 0.09791 0.0
H1042 H 0.42987 0.16564 0.18709 0.0
H1043 H 0.44898 0.08846 0.1292 0.0
C1044 C 0.43996 0.06393 0.16338 0.0
C1045 C 0.43464 0.06415 0.19167 0.0
C1046 C 0.43968 0.16593 0.16763 0.0
C1047 C 0.44419 0.11445 0.16703 0.0
C1048 C 0.44278 0.19096 0.155 0.0
C1049 C 0.45505 0.19196 0.12956 0.0
C1050 C 0.4485 0.14153 0.15459 0.0
C1051 C 0.46439 0.16728 0.11756 0.0
C1052 C 0.44494 0.08901 0.15105 0.0
C1053 C 0.43429 0.09002 0.20693 0.0
N1054 N 0.46068 0.14296 0.13005 0.0
N1055 N 0.43884 0.11411 0.19438 0.0
H1056 H 0.03973 0.8177 0.61929 0.0
H1057 H 0.08388 0.90241 0.76594 0.0
H1058 H 0.98797 0.82302 0.68825 0.0
H1059 H 0.12823 0.91326 0.69252 0.0
H1060 H 0.05103 0.86948 0.7386 0.0
H1061 H 0.07462 0.84904 0.64665 0.0
C1062 C 0.0357 0.82536 0.64019 0.0
C1063 C 0.01079 0.81774 0.65146 0.0
C1064 C 0.06793 0.87903 0.72842 0.0
C1065 C 0.0507 0.85351 0.68282 0.0
C1066 C 0.08682 0.89784 0.74405 0.0
C1067 C 0.1089 0.91079 0.73152 0.0
C1068 C 0.07106 0.87287 0.69998 0.0
C1069 C 0.1115 0.90389 0.70304 0.0
C1070 C 0.05562 0.84331 0.65574 0.0
C1071 C 0.00676 0.82837 0.67864 0.0
N1072 N 0.09278 0.88537 0.6882 0.0
N1073 N 0.0265 0.84565 0.69336 0.0
H1074 H 0.55872 0.8118 0.2563 0.0
H1075 H 0.41906 0.87944 0.21841 0.0
H1076 H 0.47913 0.78029 0.27864 0.0
H1077 H 0.4986 0.91711 0.20371 0.0
H1078 H 0.44 0.83685 0.22963 0.0
H1079 H 0.53643 0.84411 0.22692 0.0
C1080 C 0.53654 0.81134 0.25472 0.0
C1081 C 0.5208 0.79367 0.27046 0.0
C1082 C 0.4529 0.85425 0.2236 0.0
C1083 C 0.49524 0.83064 0.23685 0.0
C1084 C 0.44094 0.87862 0.21733 0.0
C1085 C 0.45729 0.90201 0.21103 0.0
C1086 C 0.48149 0.85344 0.22391 0.0
C1087 C 0.48538 0.89952 0.2088 0.0
C1088 C 0.52385 0.82982 0.23792 0.0
C1089 C 0.49214 0.79384 0.2673 0.0
N1090 N 0.49675 0.87581 0.21584 0.0
N1091 N 0.48033 0.8123 0.25115 0.0
H1092 H 0.81042 0.66474 0.03481 0.0
H1093 H 0.95755 0.72373 0.09064 0.0
H1094 H 0.87418 0.66264 0.97746 0.0
H1095 H 0.89328 0.78043 0.09175 0.0
H1096 H 0.92706 0.69014 0.05989 0.0
H1097 H 0.8408 0.69687 0.06723 0.0
C1098 C 0.83094 0.67076 0.02926 0.0
C1099 C 0.83993 0.66113 0.00352 0.0
C1100 C 0.9197 0.70988 0.06714 0.0
C1101 C 0.87458 0.69702 0.0405 0.0
C1102 C 0.9369 0.72889 0.08473 0.0
C1103 C 0.9278 0.75479 0.09367 0.0
C1104 C 0.89303 0.7165 0.05931 0.0
C1105 C 0.90099 0.76068 0.0852 0.0
C1106 C 0.84807 0.68912 0.04761 0.0
C1107 C 0.86656 0.66973 0.99711 0.0
N1108 N 0.88436 0.74151 0.06867 0.0
N1109 N 0.88315 0.687 0.01566 0.0
H1110 H 0.5437 0.33342 0.5745 0.0
H1111 H 0.69183 0.27404 0.5881 0.0
H1112 H 0.56726 0.27542 0.63456 0.0
H1113 H 0.66223 0.31511 0.51639 0.0
H1114 H 0.64755 0.27818 0.60766 0.0
H1115 H 0.58811 0.33015 0.55474 0.0
C1116 C 0.55814 0.31993 0.5835 0.0
C1117 C 0.55169 0.30466 0.60625 0.0
C1118 C 0.65074 0.2863 0.58765 0.0
C1119 C 0.60262 0.30106 0.58387 0.0
C1120 C 0.67607 0.28406 0.57651 0.0
C1121 C 0.68072 0.29416 0.55051 0.0
C1122 C 0.62992 0.29891 0.5728 0.0
C1123 C 0.6595 0.30694 0.53645 0.0
C1124 C 0.58348 0.31808 0.57218 0.0
C1125 C 0.57124 0.28751 0.61698 0.0
N1126 N 0.635 0.30896 0.54779 0.0
N1127 N 0.59584 0.28629 0.60579 0.0
H1128 H 0.18432 0.51357 0.09263 0.0
H1129 H 0.1942 0.47019 0.24717 0.0
H1130 H 0.24587 0.46196 0.12466 0.0
H1131 H 0.14111 0.53153 0.21794 0.0
H1132 H 0.21878 0.4731 0.20502 0.0
H1133 H 0.17425 0.52732 0.1403 0.0
C1134 C 0.19613 0.50559 0.10974 0.0
C1135 C 0.21552 0.4861 0.10467 0.0
C1136 C 0.20204 0.48626 0.20802 0.0
C1137 C 0.2037 0.50127 0.15929 0.0
C1138 C 0.18789 0.48452 0.23206 0.0
C1139 C 0.16513 0.50016 0.23583 0.0
C1140 C 0.19316 0.50349 0.18742 0.0
C1141 C 0.15824 0.51873 0.21575 0.0
C1142 C 0.19036 0.51343 0.13699 0.0
C1143 C 0.23052 0.47678 0.12761 0.0
N1144 N 0.1719 0.51951 0.19219 0.0
N1145 N 0.22384 0.48395 0.15395 0.0
H1146 H 0.34019 0.53882 0.87509 0.0
H1147 H 0.20718 0.51378 0.95821 0.0
H1148 H 0.25894 0.55454 0.84305 0.0
H1149 H 0.28758 0.48952 0.98441 0.0
H1150 H 0.22728 0.53901 0.92149 0.0
H1151 H 0.32283 0.53162 0.92043 0.0
C1152 C 0.31868 0.54092 0.87771 0.0
C1153 C 0.30074 0.54637 0.85521 0.0
C1154 C 0.24056 0.52851 0.93554 0.0
C1155 C 0.28066 0.53816 0.90696 0.0
C1156 C 0.22912 0.51408 0.95656 0.0
C1157 C 0.24564 0.49899 0.97411 0.0
C1158 C 0.2687 0.52785 0.93205 0.0
C1159 C 0.27396 0.50044 0.97111 0.0
C1160 C 0.30879 0.53697 0.90364 0.0
C1161 C 0.27331 0.55005 0.85993 0.0
N1162 N 0.28452 0.51429 0.95024 0.0
N1163 N 0.26391 0.54531 0.88523 0.0
H1164 H 0.34082 0.63159 0.57222 0.0
H1165 H 0.26928 0.60782 0.7138 0.0
H1166 H 0.26776 0.67092 0.59372 0.0
H1167 H 0.34655 0.57632 0.69408 0.0
H1168 H 0.26739 0.63027 0.66977 0.0
H1169 H 0.34206 0.61026 0.61638 0.0
C1170 C 0.32495 0.63577 0.5862 0.0
C1171 C 0.30412 0.65316 0.57912 0.0
C1172 C 0.28477 0.61849 0.67513 0.0
C1173 C 0.30551 0.62858 0.63012 0.0
C1174 C 0.28587 0.60565 0.70026 0.0
C1175 C 0.30811 0.59012 0.70766 0.0
C1176 C 0.306 0.61569 0.65723 0.0
C1177 C 0.32901 0.58806 0.68929 0.0
C1178 C 0.32574 0.62356 0.61153 0.0
C1179 C 0.28422 0.6577 0.59827 0.0
N1180 N 0.32739 0.60063 0.66494 0.0
N1181 N 0.28539 0.64545 0.6229 0.0
H1182 H 0.13614 0.57206 0.3604 0.0
H1183 H 0.28088 0.59688 0.44837 0.0
H1184 H 0.19147 0.50725 0.37234 0.0
H1185 H 0.21833 0.65559 0.45252 0.0
H1186 H 0.24879 0.56436 0.4191 0.0
H1187 H 0.16632 0.60363 0.39294 0.0
C1188 C 0.15453 0.56441 0.36993 0.0
C1189 C 0.16129 0.53695 0.36351 0.0
C1190 C 0.24204 0.5843 0.42653 0.0
C1191 C 0.19597 0.57303 0.40059 0.0
C1192 C 0.26039 0.60293 0.44319 0.0
C1193 C 0.25234 0.62906 0.45288 0.0
C1194 C 0.2155 0.59192 0.41924 0.0
C1195 C 0.22544 0.63567 0.44555 0.0
C1196 C 0.17172 0.58244 0.38854 0.0
C1197 C 0.18538 0.52821 0.37659 0.0
N1198 N 0.20804 0.61729 0.42902 0.0
N1199 N 0.2019 0.54623 0.39433 0.0
loop_
_geom_bond_atom_site_label_1
_geom_bond_atom_site_label_2
_geom_bond_distance
_geom_bond_site_symmetry_2
_ccdc_geom_bond_type
Mg0 O1 2.028 . S
Mg0 O7 1.986 . S
Mg0 O9 2.114 1_455 S
Mg0 O10 2.251 1_455 S
Mg0 O13 2.010 . S
O1 Mg0 2.028 . S
O1 C4 1.250 1_455 S
O2 Mg3 2.028 . S
O2 C4 1.248 . S
Mg3 O2 2.028 . S
Mg3 O8 2.032 . S
Mg3 O10 2.079 . S
C4 O1 1.250 1_655 S
C4 O2 1.248 . S
C5 O6 1.264 . S
C5 O13 1.249 . S
O6 C5 1.264 . S
O7 Mg0 1.986 . S
O7 C11 1.246 . S
O8 Mg3 2.032 . S
O8 C11 1.259 1_655 S
O9 Mg0 2.114 1_655 S
O9 C12 1.252 . S
O10 Mg0 2.251 1_655 S
O10 Mg3 2.079 . S
O10 C12 1.273 . S
C11 O7 1.246 . S
C11 O8 1.259 1_455 S
C12 O9 1.252 . S
C12 O10 1.273 . S
O13 Mg0 2.010 . S
O13 C5 1.249 . S
Mg14 O15 2.028 . S
Mg14 O21 1.986 . S
Mg14 O23 2.114 1_455 S
Mg14 O24 2.251 1_455 S
Mg14 O27 2.010 . S
O15 Mg14 2.028 . S
O15 C18 1.250 . S
O16 Mg17 2.028 1_455 S
O16 C18 1.248 . S
Mg17 O16 2.028 1_655 S
Mg17 O22 2.032 . S
Mg17 O24 2.079 . S
C18 O15 1.250 . S
C18 O16 1.248 . S
C19 O20 1.264 . S
C19 O27 1.249 . S
O20 C19 1.264 . S
O21 Mg14 1.986 . S
O21 C25 1.246 1_455 S
O22 Mg17 2.032 . S
O22 C25 1.259 . S
O23 Mg14 2.114 1_655 S
O23 C26 1.252 . S
O24 Mg14 2.251 1_655 S
O24 Mg17 2.079 . S
O24 C26 1.273 . S
C25 O21 1.246 1_655 S
C25 O22 1.259 . S
C26 O23 1.252 . S
C26 O24 1.273 . S
O27 Mg14 2.010 . S
O27 C19 1.249 . S
Mg28 O29 2.028 . S
Mg28 O35 1.986 . S
Mg28 O37 2.114 . S
Mg28 O38 2.251 . S
Mg28 O41 2.010 . S
O29 Mg28 2.028 . S
O29 C32 1.250 . S
O30 Mg31 2.028 . S
O30 C32 1.248 . S
Mg31 O30 2.028 . S
Mg31 O36 2.032 . S
Mg31 O38 2.079 . S
C32 O29 1.250 . S
C32 O30 1.248 . S
C33 O34 1.264 . S
C33 O41 1.249 . S
O34 C33 1.264 . S
O35 Mg28 1.986 . S
O35 C39 1.246 . S
O36 Mg31 2.032 . S
O36 C39 1.259 . S
O37 Mg28 2.114 . S
O37 C40 1.252 . S
O38 Mg28 2.251 . S
O38 Mg31 2.079 . S
O38 C40 1.273 . S
C39 O35 1.246 . S
C39 O36 1.259 . S
C40 O37 1.252 . S
C40 O38 1.273 . S
O41 Mg28 2.010 . S
O41 C33 1.249 . S
Mg42 O43 2.028 . S
Mg42 O49 1.986 . S
Mg42 O51 2.114 . S
Mg42 O52 2.251 . S
Mg42 O55 2.010 . S
O43 Mg42 2.028 . S
O43 C46 1.250 . S
O44 Mg45 2.028 . S
O44 C46 1.248 . S
Mg45 O44 2.028 . S
Mg45 O50 2.032 . S
Mg45 O52 2.079 . S
C46 O43 1.250 . S
C46 O44 1.248 . S
C47 O48 1.264 . S
C47 O55 1.249 . S
O48 C47 1.264 . S
O49 Mg42 1.986 . S
O49 C53 1.246 . S
O50 Mg45 2.032 . S
O50 C53 1.259 . S
O51 Mg42 2.114 . S
O51 C54 1.252 . S
O52 Mg42 2.251 . S
O52 Mg45 2.079 . S
O52 C54 1.273 . S
C53 O49 1.246 . S
C53 O50 1.259 . S
C54 O51 1.252 . S
C54 O52 1.273 . S
O55 Mg42 2.010 . S
O55 C47 1.249 . S
Mg56 O57 2.028 1_455 S
Mg56 O63 1.986 . S
Mg56 O65 2.114 1_455 S
Mg56 O66 2.251 1_455 S
Mg56 O69 2.010 . S
O57 Mg56 2.028 1_655 S
O57 C60 1.250 . S
O58 Mg59 2.028 . S
O58 C60 1.248 . S
Mg59 O58 2.028 . S
Mg59 O64 2.032 1_655 S
Mg59 O66 2.079 . S
C60 O57 1.250 . S
C60 O58 1.248 . S
C61 O62 1.264 . S
C61 O69 1.249 . S
O62 C61 1.264 . S
O63 Mg56 1.986 . S
O63 C67 1.246 . S
O64 Mg59 2.032 1_455 S
O64 C67 1.259 . S
O65 Mg56 2.114 1_655 S
O65 C68 1.252 . S
O66 Mg56 2.251 1_655 S
O66 Mg59 2.079 . S
O66 C68 1.273 . S
C67 O63 1.246 . S
C67 O64 1.259 . S
C68 O65 1.252 . S
C68 O66 1.273 . S
O69 Mg56 2.010 . S
O69 C61 1.249 . S
Mg70 O71 2.028 . S
Mg70 O77 1.986 . S
Mg70 O79 2.114 . S
Mg70 O80 2.251 . S
Mg70 O83 2.010 . S
O71 Mg70 2.028 . S
O71 C74 1.250 . S
O72 Mg73 2.028 . S
O72 C74 1.248 . S
Mg73 O72 2.028 . S
Mg73 O78 2.032 . S
Mg73 O80 2.079 . S
C74 O71 1.250 . S
C74 O72 1.248 . S
C75 O76 1.264 . S
C75 O83 1.249 . S
O76 C75 1.264 . S
O77 Mg70 1.986 . S
O77 C81 1.246 . S
O78 Mg73 2.032 . S
O78 C81 1.259 . S
O79 Mg70 2.114 . S
O79 C82 1.252 . S
O80 Mg70 2.251 . S
O80 Mg73 2.079 . S
O80 C82 1.273 . S
C81 O77 1.246 . S
C81 O78 1.259 . S
C82 O79 1.252 . S
C82 O80 1.273 . S
O83 Mg70 2.010 . S
O83 C75 1.249 . S
Mg84 O85 2.028 . S
Mg84 O91 1.986 . S
Mg84 O93 2.114 . S
Mg84 O94 2.251 . S
Mg84 O97 2.010 . S
O85 Mg84 2.028 . S
O85 C88 1.250 . S
O86 Mg87 2.028 . S
O86 C88 1.248 . S
Mg87 O86 2.028 . S
Mg87 O92 2.032 . S
Mg87 O94 2.079 . S
C88 O85 1.250 . S
C88 O86 1.248 . S
C89 O90 1.264 . S
C89 O97 1.249 . S
O90 C89 1.264 . S
O91 Mg84 1.986 . S
O91 C95 1.246 . S
O92 Mg87 2.032 . S
O92 C95 1.259 . S
O93 Mg84 2.114 . S
O93 C96 1.252 . S
O94 Mg84 2.251 . S
O94 Mg87 2.079 . S
O94 C96 1.273 . S
C95 O91 1.246 . S
C95 O92 1.259 . S
C96 O93 1.252 . S
C96 O94 1.273 . S
O97 Mg84 2.010 . S
O97 C89 1.249 . S
Mg98 O99 2.028 1_455 S
Mg98 O105 1.986 . S
Mg98 O107 2.114 . S
Mg98 O108 2.251 . S
Mg98 O111 2.010 1_455 S
O99 Mg98 2.028 1_655 S
O99 C102 1.250 . S
O100 Mg101 2.028 . S
O100 C102 1.248 1_455 S
Mg101 O100 2.028 . S
Mg101 O106 2.032 . S
Mg101 O108 2.079 . S
C102 O99 1.250 . S
C102 O100 1.248 1_655 S
C103 O104 1.264 . S
C103 O111 1.249 . S
O104 C103 1.264 . S
O105 Mg98 1.986 . S
O105 C109 1.246 . S
O106 Mg101 2.032 . S
O106 C109 1.259 . S
O107 Mg98 2.114 . S
O107 C110 1.252 . S
O108 Mg98 2.251 . S
O108 Mg101 2.079 . S
O108 C110 1.273 . S
C109 O105 1.246 . S
C109 O106 1.259 . S
C110 O107 1.252 . S
C110 O108 1.273 . S
O111 Mg98 2.010 1_655 S
O111 C103 1.249 . S
Mg112 O113 2.028 1_545 S
Mg112 O119 1.986 . S
Mg112 O121 2.114 1_545 S
Mg112 O122 2.251 1_545 S
Mg112 O125 2.010 . S
O113 Mg112 2.028 1_565 S
O113 C116 1.250 . S
O114 Mg115 2.028 . S
O114 C116 1.248 . S
Mg115 O114 2.028 . S
Mg115 O120 2.032 . S
Mg115 O122 2.079 . S
C116 O113 1.250 . S
C116 O114 1.248 . S
C117 O118 1.264 . S
C117 O125 1.249 . S
O118 C117 1.264 . S
O119 Mg112 1.986 . S
O119 C123 1.246 . S
O120 Mg115 2.032 . S
O120 C123 1.259 1_565 S
O121 Mg112 2.114 1_565 S
O121 C124 1.252 . S
O122 Mg112 2.251 1_565 S
O122 Mg115 2.079 . S
O122 C124 1.273 . S
C123 O119 1.246 . S
C123 O120 1.259 1_545 S
C124 O121 1.252 . S
C124 O122 1.273 . S
O125 Mg112 2.010 . S
O125 C117 1.249 . S
Mg126 O127 2.028 . S
Mg126 O133 1.986 . S
Mg126 O135 2.114 . S
Mg126 O136 2.251 . S
Mg126 O139 2.010 . S
O127 Mg126 2.028 . S
O127 C130 1.250 . S
O128 Mg129 2.028 . S
O128 C130 1.248 . S
Mg129 O128 2.028 . S
Mg129 O134 2.032 . S
Mg129 O136 2.079 . S
C130 O127 1.250 . S
C130 O128 1.248 . S
C131 O132 1.264 . S
C131 O139 1.249 . S
O132 C131 1.264 . S
O133 Mg126 1.986 . S
O133 C137 1.246 . S
O134 Mg129 2.032 . S
O134 C137 1.259 . S
O135 Mg126 2.114 . S
O135 C138 1.252 . S
O136 Mg126 2.251 . S
O136 Mg129 2.079 . S
O136 C138 1.273 . S
C137 O133 1.246 . S
C137 O134 1.259 . S
C138 O135 1.252 . S
C138 O136 1.273 . S
O139 Mg126 2.010 . S
O139 C131 1.249 . S
Mg140 O141 2.028 1_545 S
Mg140 O147 1.986 . S
Mg140 O149 2.114 1_545 S
Mg140 O150 2.251 1_545 S
Mg140 O153 2.010 . S
O141 Mg140 2.028 1_565 S
O141 C144 1.250 . S
O142 Mg143 2.028 . S
O142 C144 1.248 . S
Mg143 O142 2.028 . S
Mg143 O148 2.032 1_565 S
Mg143 O150 2.079 . S
C144 O141 1.250 . S
C144 O142 1.248 . S
C145 O146 1.264 . S
C145 O153 1.249 . S
O146 C145 1.264 . S
O147 Mg140 1.986 . S
O147 C151 1.246 . S
O148 Mg143 2.032 1_545 S
O148 C151 1.259 . S
O149 Mg140 2.114 1_565 S
O149 C152 1.252 . S
O150 Mg140 2.251 1_565 S
O150 Mg143 2.079 . S
O150 C152 1.273 . S
C151 O147 1.246 . S
C151 O148 1.259 . S
C152 O149 1.252 . S
C152 O150 1.273 . S
O153 Mg140 2.010 . S
O153 C145 1.249 . S
Mg154 O155 2.028 1_556 S
Mg154 O161 1.986 . S
Mg154 O163 2.114 1_556 S
Mg154 O164 2.251 . S
Mg154 O167 2.010 1_556 S
O155 Mg154 2.028 1_554 S
O155 C158 1.250 . S
O156 Mg157 2.028 1_554 S
O156 C158 1.248 . S
Mg157 O156 2.028 1_556 S
Mg157 O162 2.032 . S
Mg157 O164 2.079 . S
C158 O155 1.250 . S
C158 O156 1.248 . S
C159 O160 1.264 . S
C159 O167 1.249 . S
O160 C159 1.264 . S
O161 Mg154 1.986 . S
O161 C165 1.246 . S
O162 Mg157 2.032 . S
O162 C165 1.259 . S
O163 Mg154 2.114 1_554 S
O163 C166 1.252 1_554 S
O164 Mg154 2.251 . S
O164 Mg157 2.079 . S
O164 C166 1.273 . S
C165 O161 1.246 . S
C165 O162 1.259 . S
C166 O163 1.252 1_556 S
C166 O164 1.273 . S
O167 Mg154 2.010 1_554 S
O167 C159 1.249 . S
Mg168 O169 2.028 1_554 S
Mg168 O175 1.986 . S
Mg168 O177 2.114 1_554 S
Mg168 O178 2.251 1_554 S
Mg168 O181 2.010 . S
O169 Mg168 2.028 1_556 S
O169 C172 1.250 . S
O170 Mg171 2.028 . S
O170 C172 1.248 . S
Mg171 O170 2.028 . S
Mg171 O176 2.032 1_556 S
Mg171 O178 2.079 . S
C172 O169 1.250 . S
C172 O170 1.248 . S
C173 O174 1.264 . S
C173 O181 1.249 . S
O174 C173 1.264 . S
O175 Mg168 1.986 . S
O175 C179 1.246 . S
O176 Mg171 2.032 1_554 S
O176 C179 1.259 . S
O177 Mg168 2.114 1_556 S
O177 C180 1.252 . S
O178 Mg168 2.251 1_556 S
O178 Mg171 2.079 . S
O178 C180 1.273 . S
C179 O175 1.246 . S
C179 O176 1.259 . S
C180 O177 1.252 . S
C180 O178 1.273 . S
O181 Mg168 2.010 . S
O181 C173 1.249 . S
Mg182 O183 2.028 1_554 S
Mg182 O189 1.986 . S
Mg182 O191 2.114 1_554 S
Mg182 O192 2.251 1_554 S
Mg182 O195 2.010 . S
O183 Mg182 2.028 1_556 S
O183 C186 1.250 . S
O184 Mg185 2.028 . S
O184 C186 1.248 . S
Mg185 O184 2.028 . S
Mg185 O190 2.032 1_556 S
Mg185 O192 2.079 . S
C186 O183 1.250 . S
C186 O184 1.248 . S
C187 O188 1.264 . S
C187 O195 1.249 . S
O188 C187 1.264 . S
O189 Mg182 1.986 . S
O189 C193 1.246 . S
O190 Mg185 2.032 1_554 S
O190 C193 1.259 . S
O191 Mg182 2.114 1_556 S
O191 C194 1.252 . S
O192 Mg182 2.251 1_556 S
O192 Mg185 2.079 . S
O192 C194 1.273 . S
C193 O189 1.246 . S
C193 O190 1.259 . S
C194 O191 1.252 . S
C194 O192 1.273 . S
O195 Mg182 2.010 . S
O195 C187 1.249 . S
Mg196 O197 2.028 . S
Mg196 O203 1.986 . S
Mg196 O205 2.114 . S
Mg196 O206 2.251 . S
Mg196 O209 2.010 . S
O197 Mg196 2.028 . S
O197 C200 1.250 . S
O198 Mg199 2.028 . S
O198 C200 1.248 . S
Mg199 O198 2.028 . S
Mg199 O204 2.032 . S
Mg199 O206 2.079 . S
C200 O197 1.250 . S
C200 O198 1.248 . S
C201 O202 1.264 . S
C201 O209 1.249 . S
O202 C201 1.264 . S
O203 Mg196 1.986 . S
O203 C207 1.246 . S
O204 Mg199 2.032 . S
O204 C207 1.259 . S
O205 Mg196 2.114 . S
O205 C208 1.252 . S
O206 Mg196 2.251 . S
O206 Mg199 2.079 . S
O206 C208 1.273 . S
C207 O203 1.246 . S
C207 O204 1.259 . S
C208 O205 1.252 . S
C208 O206 1.273 . S
O209 Mg196 2.010 . S
O209 C201 1.249 . S
Mg210 O211 2.028 . S
Mg210 O217 1.986 . S
Mg210 O219 2.114 . S
Mg210 O220 2.251 . S
Mg210 O223 2.010 . S
O211 Mg210 2.028 . S
O211 C214 1.250 . S
O212 Mg213 2.028 . S
O212 C214 1.248 . S
Mg213 O212 2.028 . S
Mg213 O218 2.032 . S
Mg213 O220 2.079 . S
C214 O211 1.250 . S
C214 O212 1.248 . S
C215 O216 1.264 . S
C215 O223 1.249 . S
O216 C215 1.264 . S
O217 Mg210 1.986 . S
O217 C221 1.246 . S
O218 Mg213 2.032 . S
O218 C221 1.259 . S
O219 Mg210 2.114 . S
O219 C222 1.252 . S
O220 Mg210 2.251 . S
O220 Mg213 2.079 . S
O220 C222 1.273 . S
C221 O217 1.246 . S
C221 O218 1.259 . S
C222 O219 1.252 . S
C222 O220 1.273 . S
O223 Mg210 2.010 . S
O223 C215 1.249 . S
Mg224 O225 2.028 . S
Mg224 O231 1.986 1_545 S
Mg224 O233 2.114 . S
Mg224 O234 2.251 1_545 S
Mg224 O237 2.010 . S
O225 Mg224 2.028 . S
O225 C228 1.250 . S
O226 Mg227 2.028 1_545 S
O226 C228 1.248 . S
Mg227 O226 2.028 1_565 S
Mg227 O232 2.032 . S
Mg227 O234 2.079 . S
C228 O225 1.250 . S
C228 O226 1.248 . S
C229 O230 1.264 . S
C229 O237 1.249 . S
O230 C229 1.264 . S
O231 Mg224 1.986 1_565 S
O231 C235 1.246 . S
O232 Mg227 2.032 . S
O232 C235 1.259 . S
O233 Mg224 2.114 . S
O233 C236 1.252 1_545 S
O234 Mg224 2.251 1_565 S
O234 Mg227 2.079 . S
O234 C236 1.273 . S
C235 O231 1.246 . S
C235 O232 1.259 . S
C236 O233 1.252 1_565 S
C236 O234 1.273 . S
O237 Mg224 2.010 . S
O237 C229 1.249 . S
Mg238 O239 2.028 . S
Mg238 O245 1.986 . S
Mg238 O247 2.114 . S
Mg238 O248 2.251 . S
Mg238 O251 2.010 . S
O239 Mg238 2.028 . S
O239 C242 1.250 . S
O240 Mg241 2.028 . S
O240 C242 1.248 . S
Mg241 O240 2.028 . S
Mg241 O246 2.032 . S
Mg241 O248 2.079 . S
C242 O239 1.250 . S
C242 O240 1.248 . S
C243 O244 1.264 . S
C243 O251 1.249 . S
O244 C243 1.264 . S
O245 Mg238 1.986 . S
O245 C249 1.246 . S
O246 Mg241 2.032 . S
O246 C249 1.259 . S
O247 Mg238 2.114 . S
O247 C250 1.252 . S
O248 Mg238 2.251 . S
O248 Mg241 2.079 . S
O248 C250 1.273 . S
C249 O245 1.246 . S
C249 O246 1.259 . S
C250 O247 1.252 . S
C250 O248 1.273 . S
O251 Mg238 2.010 . S
O251 C243 1.249 . S
Mg252 O253 2.028 . S
Mg252 O259 1.986 . S
Mg252 O261 2.114 . S
Mg252 O262 2.251 . S
Mg252 O265 2.010 . S
O253 Mg252 2.028 . S
O253 C256 1.250 . S
O254 Mg255 2.028 . S
O254 C256 1.248 . S
Mg255 O254 2.028 . S
Mg255 O260 2.032 . S
Mg255 O262 2.079 . S
C256 O253 1.250 . S
C256 O254 1.248 . S
C257 O258 1.264 . S
C257 O265 1.249 . S
O258 C257 1.264 . S
O259 Mg252 1.986 . S
O259 C263 1.246 . S
O260 Mg255 2.032 . S
O260 C263 1.259 . S
O261 Mg252 2.114 . S
O261 C264 1.252 . S
O262 Mg252 2.251 . S
O262 Mg255 2.079 . S
O262 C264 1.273 . S
C263 O259 1.246 . S
C263 O260 1.259 . S
C264 O261 1.252 . S
C264 O262 1.273 . S
O265 Mg252 2.010 . S
O265 C257 1.249 . S
Mg266 O267 2.028 . S
Mg266 O273 1.986 . S
Mg266 O275 2.114 1_545 S
Mg266 O276 2.251 1_545 S
Mg266 O279 2.010 . S
O267 Mg266 2.028 . S
O267 C270 1.250 . S
O268 Mg269 2.028 1_545 S
O268 C270 1.248 . S
Mg269 O268 2.028 1_565 S
Mg269 O274 2.032 . S
Mg269 O276 2.079 . S
C270 O267 1.250 . S
C270 O268 1.248 . S
C271 O272 1.264 . S
C271 O279 1.249 . S
O272 C271 1.264 . S
O273 Mg266 1.986 . S
O273 C277 1.246 1_545 S
O274 Mg269 2.032 . S
O274 C277 1.259 . S
O275 Mg266 2.114 1_565 S
O275 C278 1.252 . S
O276 Mg266 2.251 1_565 S
O276 Mg269 2.079 . S
O276 C278 1.273 . S
C277 O273 1.246 1_565 S
C277 O274 1.259 . S
C278 O275 1.252 . S
C278 O276 1.273 . S
O279 Mg266 2.010 . S
O279 C271 1.249 . S
Mg280 O281 2.027 1_556 S
Mg280 O287 1.986 . S
Mg280 O289 2.115 . S
Mg280 O290 2.255 . S
Mg280 O293 2.007 1_556 S
O281 Mg280 2.027 1_554 S
O281 C284 1.250 . S
O282 Mg283 2.028 . S
O282 C284 1.248 1_556 S
Mg283 O282 2.028 . S
Mg283 O288 2.032 . S
Mg283 O290 2.079 . S
C284 O281 1.250 . S
C284 O282 1.248 1_554 S
C285 O286 1.264 . S
C285 O293 1.249 . S
O286 C285 1.264 . S
O287 Mg280 1.986 . S
O287 C291 1.246 . S
O288 Mg283 2.032 . S
O288 C291 1.259 . S
O289 Mg280 2.115 . S
O289 C292 1.252 . S
O290 Mg280 2.255 . S
O290 Mg283 2.079 . S
O290 C292 1.273 . S
C291 O287 1.246 . S
C291 O288 1.259 . S
C292 O289 1.252 . S
C292 O290 1.273 . S
O293 Mg280 2.007 1_554 S
O293 C285 1.249 . S
Mg294 O295 2.028 . S
Mg294 O301 1.986 . S
Mg294 O303 2.114 . S
Mg294 O304 2.251 . S
Mg294 O307 2.010 . S
O295 Mg294 2.028 . S
O295 C298 1.250 . S
O296 Mg297 2.028 . S
O296 C298 1.248 . S
Mg297 O296 2.028 . S
Mg297 O302 2.032 . S
Mg297 O304 2.079 . S
C298 O295 1.250 . S
C298 O296 1.248 . S
C299 O300 1.264 . S
C299 O307 1.249 . S
O300 C299 1.264 . S
O301 Mg294 1.986 . S
O301 C305 1.246 . S
O302 Mg297 2.032 . S
O302 C305 1.259 . S
O303 Mg294 2.114 . S
O303 C306 1.252 . S
O304 Mg294 2.251 . S
O304 Mg297 2.079 . S
O304 C306 1.273 . S
C305 O301 1.246 . S
C305 O302 1.259 . S
C306 O303 1.252 . S
C306 O304 1.273 . S
O307 Mg294 2.010 . S
O307 C299 1.249 . S
Mg308 O309 2.028 . S
Mg308 O315 1.986 . S
Mg308 O317 2.114 . S
Mg308 O318 2.251 . S
Mg308 O321 2.010 . S
O309 Mg308 2.028 . S
O309 C312 1.250 . S
O310 Mg311 2.028 . S
O310 C312 1.248 . S
Mg311 O310 2.028 . S
Mg311 O316 2.032 . S
Mg311 O318 2.079 . S
C312 O309 1.250 . S
C312 O310 1.248 . S
C313 O314 1.264 . S
C313 O321 1.249 . S
O314 C313 1.264 . S
O315 Mg308 1.986 . S
O315 C319 1.246 . S
O316 Mg311 2.032 . S
O316 C319 1.259 . S
O317 Mg308 2.114 . S
O317 C320 1.252 . S
O318 Mg308 2.251 . S
O318 Mg311 2.079 . S
O318 C320 1.273 . S
C319 O315 1.246 . S
C319 O316 1.259 . S
C320 O317 1.252 . S
C320 O318 1.273 . S
O321 Mg308 2.010 . S
O321 C313 1.249 . S
Mg322 O323 2.028 . S
Mg322 O329 1.986 . S
Mg322 O331 2.114 . S
Mg322 O332 2.251 . S
Mg322 O335 2.010 . S
O323 Mg322 2.028 . S
O323 C326 1.250 . S
O324 Mg325 2.028 . S
O324 C326 1.248 . S
Mg325 O324 2.028 . S
Mg325 O330 2.032 . S
Mg325 O332 2.079 . S
C326 O323 1.250 . S
C326 O324 1.248 . S
C327 O328 1.264 . S
C327 O335 1.249 . S
O328 C327 1.264 . S
O329 Mg322 1.986 . S
O329 C333 1.246 . S
O330 Mg325 2.032 . S
O330 C333 1.259 . S
O331 Mg322 2.114 . S
O331 C334 1.252 . S
O332 Mg322 2.251 . S
O332 Mg325 2.079 . S
O332 C334 1.273 . S
C333 O329 1.246 . S
C333 O330 1.259 . S
C334 O331 1.252 . S
C334 O332 1.273 . S
O335 Mg322 2.010 . S
O335 C327 1.249 . S
H336 C342 0.930 . S
H337 C346 0.930 . S
H338 C351 0.929 . S
H339 C349 0.929 . S
H340 C344 0.929 . S
H341 C350 0.929 . S
C342 H336 0.930 . S
C342 C343 1.367 . S
C342 C350 1.378 . S
C343 C342 1.367 . S
C343 C351 1.433 . S
C344 H340 0.929 . S
C344 C346 1.378 . S
C344 C348 1.350 . S
C345 C348 1.463 . S
C345 C350 1.350 . S
C345 N353 1.427 . S
C346 H337 0.930 . S
C346 C344 1.378 . S
C346 C347 1.367 . S
C347 C346 1.367 . S
C347 C349 1.433 . S
C348 C344 1.350 . S
C348 C345 1.463 . S
C348 N352 1.427 . S
C349 H339 0.929 . S
C349 C347 1.433 . S
C349 N352 1.384 . S
C350 H341 0.929 . S
C350 C342 1.378 . S
C350 C345 1.350 . S
C351 H338 0.929 . S
C351 C343 1.433 . S
C351 N353 1.384 . S
N352 C348 1.427 . S
N352 C349 1.384 . S
N353 C345 1.427 . S
N353 C351 1.384 . S
H354 C360 0.930 . S
H355 C364 0.930 . S
H356 C369 0.929 . S
H357 C367 0.929 . S
H358 C362 0.929 . S
H359 C368 0.929 . S
C360 H354 0.930 . S
C360 C361 1.367 . S
C360 C368 1.378 . S
C361 C360 1.367 . S
C361 C369 1.433 . S
C362 H358 0.929 . S
C362 C364 1.378 . S
C362 C366 1.350 . S
C363 C366 1.463 . S
C363 C368 1.350 . S
C363 N371 1.427 . S
C364 H355 0.930 . S
C364 C362 1.378 . S
C364 C365 1.367 . S
C365 C364 1.367 . S
C365 C367 1.433 . S
C366 C362 1.350 . S
C366 C363 1.463 . S
C366 N370 1.427 . S
C367 H357 0.929 . S
C367 C365 1.433 . S
C367 N370 1.384 . S
C368 H359 0.929 . S
C368 C360 1.378 . S
C368 C363 1.350 . S
C369 H356 0.929 . S
C369 C361 1.433 . S
C369 N371 1.384 . S
N370 C366 1.427 . S
N370 C367 1.384 . S
N371 C363 1.427 . S
N371 C369 1.384 . S
H372 C378 0.930 . S
H373 C382 0.930 . S
H374 C387 0.929 . S
H375 C385 0.929 . S
H376 C380 0.929 . S
H377 C386 0.929 . S
C378 H372 0.930 . S
C378 C379 1.367 . S
C378 C386 1.378 . S
C379 C378 1.367 . S
C379 C387 1.433 . S
C380 H376 0.929 . S
C380 C382 1.378 . S
C380 C384 1.350 . S
C381 C384 1.463 . S
C381 C386 1.350 . S
C381 N389 1.427 . S
C382 H373 0.930 . S
C382 C380 1.378 . S
C382 C383 1.367 . S
C383 C382 1.367 . S
C383 C385 1.433 . S
C384 C380 1.350 . S
C384 C381 1.463 . S
C384 N388 1.427 . S
C385 H375 0.929 . S
C385 C383 1.433 . S
C385 N388 1.384 . S
C386 H377 0.929 . S
C386 C378 1.378 . S
C386 C381 1.350 . S
C387 H374 0.929 . S
C387 C379 1.433 . S
C387 N389 1.384 . S
N388 C384 1.427 . S
N388 C385 1.384 . S
N389 C381 1.427 . S
N389 C387 1.384 . S
H390 C396 0.930 . S
H391 C400 0.930 . S
H392 C405 0.929 . S
H393 C403 0.929 . S
H394 C398 0.929 . S
H395 C404 0.929 . S
C396 H390 0.930 . S
C396 C397 1.367 . S
C396 C404 1.378 . S
C397 C396 1.367 . S
C397 C405 1.433 . S
C398 H394 0.929 . S
C398 C400 1.378 . S
C398 C402 1.350 . S
C399 C402 1.463 . S
C399 C404 1.350 . S
C399 N407 1.427 . S
C400 H391 0.930 . S
C400 C398 1.378 . S
C400 C401 1.367 . S
C401 C400 1.367 . S
C401 C403 1.433 . S
C402 C398 1.350 . S
C402 C399 1.463 . S
C402 N406 1.427 . S
C403 H393 0.929 . S
C403 C401 1.433 . S
C403 N406 1.384 . S
C404 H395 0.929 . S
C404 C396 1.378 . S
C404 C399 1.350 . S
C405 H392 0.929 . S
C405 C397 1.433 . S
C405 N407 1.384 . S
N406 C402 1.427 . S
N406 C403 1.384 . S
N407 C399 1.427 . S
N407 C405 1.384 . S
H408 C414 0.930 . S
H409 C418 0.930 1_655 S
H410 C423 0.929 . S
H411 C421 0.929 . S
H412 C416 0.929 . S
H413 C422 0.929 . S
C414 H408 0.930 . S
C414 C415 1.367 . S
C414 C422 1.378 . S
C415 C414 1.367 . S
C415 C423 1.433 . S
C416 H412 0.929 . S
C416 C418 1.378 . S
C416 C420 1.350 . S
C417 C420 1.463 . S
C417 C422 1.350 . S
C417 N425 1.427 . S
C418 H409 0.930 1_455 S
C418 C416 1.378 . S
C418 C419 1.367 . S
C419 C418 1.367 . S
C419 C421 1.433 . S
C420 C416 1.350 . S
C420 C417 1.463 . S
C420 N424 1.427 . S
C421 H411 0.929 . S
C421 C419 1.433 . S
C421 N424 1.384 . S
C422 H413 0.929 . S
C422 C414 1.378 . S
C422 C417 1.350 . S
C423 H410 0.929 . S
C423 C415 1.433 . S
C423 N425 1.384 . S
N424 C420 1.427 . S
N424 C421 1.384 . S
N425 C417 1.427 . S
N425 C423 1.384 . S
H426 C432 0.930 . S
H427 C436 0.930 . S
H428 C441 0.929 . S
H429 C439 0.929 . S
H430 C434 0.929 . S
H431 C440 0.929 . S
C432 H426 0.930 . S
C432 C433 1.367 . S
C432 C440 1.378 . S
C433 C432 1.367 . S
C433 C441 1.433 . S
C434 H430 0.929 . S
C434 C436 1.378 . S
C434 C438 1.350 . S
C435 C438 1.463 . S
C435 C440 1.350 . S
C435 N443 1.427 . S
C436 H427 0.930 . S
C436 C434 1.378 . S
C436 C437 1.367 . S
C437 C436 1.367 . S
C437 C439 1.433 . S
C438 C434 1.350 . S
C438 C435 1.463 . S
C438 N442 1.427 . S
C439 H429 0.929 . S
C439 C437 1.433 . S
C439 N442 1.384 . S
C440 H431 0.929 . S
C440 C432 1.378 . S
C440 C435 1.350 . S
C441 H428 0.929 . S
C441 C433 1.433 . S
C441 N443 1.384 . S
N442 C438 1.427 . S
N442 C439 1.384 . S
N443 C435 1.427 . S
N443 C441 1.384 . S
H444 C450 0.930 . S
H445 C454 0.930 . S
H446 C459 0.929 . S
H447 C457 0.929 . S
H448 C452 0.929 . S
H449 C458 0.929 . S
C450 H444 0.930 . S
C450 C451 1.367 . S
C450 C458 1.378 . S
C451 C450 1.367 . S
C451 C459 1.433 . S
C452 H448 0.929 . S
C452 C454 1.378 . S
C452 C456 1.350 . S
C453 C456 1.463 . S
C453 C458 1.350 . S
C453 N461 1.427 . S
C454 H445 0.930 . S
C454 C452 1.378 . S
C454 C455 1.367 . S
C455 C454 1.367 . S
C455 C457 1.433 . S
C456 C452 1.350 . S
C456 C453 1.463 . S
C456 N460 1.427 . S
C457 H447 0.929 . S
C457 C455 1.433 . S
C457 N460 1.384 . S
C458 H449 0.929 . S
C458 C450 1.378 . S
C458 C453 1.350 . S
C459 H446 0.929 . S
C459 C451 1.433 . S
C459 N461 1.384 . S
N460 C456 1.427 . S
N460 C457 1.384 . S
N461 C453 1.427 . S
N461 C459 1.384 . S
H462 C468 0.930 . S
H463 C472 0.930 . S
H464 C477 0.929 . S
H465 C475 0.929 . S
H466 C470 0.929 . S
H467 C476 0.929 . S
C468 H462 0.930 . S
C468 C469 1.367 . S
C468 C476 1.378 . S
C469 C468 1.367 . S
C469 C477 1.433 . S
C470 H466 0.929 . S
C470 C472 1.378 . S
C470 C474 1.350 . S
C471 C474 1.463 . S
C471 C476 1.350 . S
C471 N479 1.427 . S
C472 H463 0.930 . S
C472 C470 1.378 . S
C472 C473 1.367 . S
C473 C472 1.367 . S
C473 C475 1.433 . S
C474 C470 1.350 . S
C474 C471 1.463 . S
C474 N478 1.427 . S
C475 H465 0.929 . S
C475 C473 1.433 . S
C475 N478 1.384 . S
C476 H467 0.929 . S
C476 C468 1.378 . S
C476 C471 1.350 . S
C477 H464 0.929 . S
C477 C469 1.433 . S
C477 N479 1.384 . S
N478 C474 1.427 . S
N478 C475 1.384 . S
N479 C471 1.427 . S
N479 C477 1.384 . S
H480 C486 0.930 . S
H481 C490 0.930 . S
H482 C495 0.929 . S
H483 C493 0.929 1_565 S
H484 C488 0.929 . S
H485 C494 0.929 . S
C486 H480 0.930 . S
C486 C487 1.367 . S
C486 C494 1.378 . S
C487 C486 1.367 . S
C487 C495 1.433 . S
C488 H484 0.929 . S
C488 C490 1.378 . S
C488 C492 1.350 . S
C489 C492 1.463 . S
C489 C494 1.350 . S
C489 N497 1.427 . S
C490 H481 0.930 . S
C490 C488 1.378 . S
C490 C491 1.367 . S
C491 C490 1.367 . S
C491 C493 1.433 . S
C492 C488 1.350 . S
C492 C489 1.463 . S
C492 N496 1.427 . S
C493 H483 0.929 1_545 S
C493 C491 1.433 . S
C493 N496 1.384 . S
C494 H485 0.929 . S
C494 C486 1.378 . S
C494 C489 1.350 . S
C495 H482 0.929 . S
C495 C487 1.433 . S
C495 N497 1.384 . S
N496 C492 1.427 . S
N496 C493 1.384 . S
N497 C489 1.427 . S
N497 C495 1.384 . S
H498 C504 0.930 . S
H499 C508 0.930 . S
H500 C513 0.929 1_565 S
H501 C511 0.929 . S
H502 C506 0.929 . S
H503 C512 0.929 . S
C504 H498 0.930 . S
C504 C505 1.367 . S
C504 C512 1.378 . S
C505 C504 1.367 . S
C505 C513 1.433 . S
C506 H502 0.929 . S
C506 C508 1.378 . S
C506 C510 1.350 . S
C507 C510 1.463 . S
C507 C512 1.350 . S
C507 N515 1.427 . S
C508 H499 0.930 . S
C508 C506 1.378 . S
C508 C509 1.367 . S
C509 C508 1.367 . S
C509 C511 1.433 . S
C510 C506 1.350 . S
C510 C507 1.463 . S
C510 N514 1.427 . S
C511 H501 0.929 . S
C511 C509 1.433 . S
C511 N514 1.384 . S
C512 H503 0.929 . S
C512 C504 1.378 . S
C512 C507 1.350 . S
C513 H500 0.929 1_545 S
C513 C505 1.433 . S
C513 N515 1.384 . S
N514 C510 1.427 . S
N514 C511 1.384 . S
N515 C507 1.427 . S
N515 C513 1.384 . S
H516 C522 0.930 . S
H517 C526 0.930 . S
H518 C531 0.929 . S
H519 C529 0.929 . S
H520 C524 0.929 . S
H521 C530 0.929 . S
C522 H516 0.930 . S
C522 C523 1.367 . S
C522 C530 1.378 . S
C523 C522 1.367 . S
C523 C531 1.433 . S
C524 H520 0.929 . S
C524 C526 1.378 . S
C524 C528 1.350 . S
C525 C528 1.463 . S
C525 C530 1.350 . S
C525 N533 1.427 . S
C526 H517 0.930 . S
C526 C524 1.378 . S
C526 C527 1.367 . S
C527 C526 1.367 . S
C527 C529 1.433 . S
C528 C524 1.350 . S
C528 C525 1.463 . S
C528 N532 1.427 . S
C529 H519 0.929 . S
C529 C527 1.433 . S
C529 N532 1.384 . S
C530 H521 0.929 . S
C530 C522 1.378 . S
C530 C525 1.350 . S
C531 H518 0.929 . S
C531 C523 1.433 . S
C531 N533 1.384 . S
N532 C528 1.427 . S
N532 C529 1.384 . S
N533 C525 1.427 . S
N533 C531 1.384 . S
H534 C540 0.930 . S
H535 C544 0.930 . S
H536 C549 0.929 . S
H537 C547 0.929 1_545 S
H538 C542 0.929 . S
H539 C548 0.929 . S
C540 H534 0.930 . S
C540 C541 1.367 . S
C540 C548 1.378 . S
C541 C540 1.367 . S
C541 C549 1.433 . S
C542 H538 0.929 . S
C542 C544 1.378 . S
C542 C546 1.350 . S
C543 C546 1.463 . S
C543 C548 1.350 . S
C543 N551 1.427 . S
C544 H535 0.930 . S
C544 C542 1.378 . S
C544 C545 1.367 . S
C545 C544 1.367 . S
C545 C547 1.433 . S
C546 C542 1.350 . S
C546 C543 1.463 . S
C546 N550 1.427 . S
C547 H537 0.929 1_565 S
C547 C545 1.433 . S
C547 N550 1.384 . S
C548 H539 0.929 . S
C548 C540 1.378 . S
C548 C543 1.350 . S
C549 H536 0.929 . S
C549 C541 1.433 . S
C549 N551 1.384 . S
N550 C546 1.427 . S
N550 C547 1.384 . S
N551 C543 1.427 . S
N551 C549 1.384 . S
H552 C558 0.930 . S
H553 C562 0.930 . S
H554 C567 0.929 . S
H555 C565 0.929 . S
H556 C560 0.929 . S
H557 C566 0.929 . S
C558 H552 0.930 . S
C558 C559 1.367 . S
C558 C566 1.378 . S
C559 C558 1.367 . S
C559 C567 1.433 . S
C560 H556 0.929 . S
C560 C562 1.378 . S
C560 C564 1.350 . S
C561 C564 1.463 . S
C561 C566 1.350 . S
C561 N569 1.427 . S
C562 H553 0.930 . S
C562 C560 1.378 . S
C562 C563 1.367 . S
C563 C562 1.367 . S
C563 C565 1.433 . S
C564 C560 1.350 . S
C564 C561 1.463 . S
C564 N568 1.427 . S
C565 H555 0.929 . S
C565 C563 1.433 . S
C565 N568 1.384 . S
C566 H557 0.929 . S
C566 C558 1.378 . S
C566 C561 1.350 . S
C567 H554 0.929 . S
C567 C559 1.433 . S
C567 N569 1.384 . S
N568 C564 1.427 . S
N568 C565 1.384 . S
N569 C561 1.427 . S
N569 C567 1.384 . S
H570 C576 0.930 . S
H571 C580 0.930 . S
H572 C585 0.929 . S
H573 C583 0.929 . S
H574 C578 0.929 . S
H575 C584 0.929 . S
C576 H570 0.930 . S
C576 C577 1.367 . S
C576 C584 1.378 . S
C577 C576 1.367 . S
C577 C585 1.433 . S
C578 H574 0.929 . S
C578 C580 1.378 . S
C578 C582 1.350 . S
C579 C582 1.463 . S
C579 C584 1.350 . S
C579 N587 1.427 . S
C580 H571 0.930 . S
C580 C578 1.378 . S
C580 C581 1.367 . S
C581 C580 1.367 . S
C581 C583 1.433 . S
C582 C578 1.350 . S
C582 C579 1.463 . S
C582 N586 1.427 . S
C583 H573 0.929 . S
C583 C581 1.433 . S
C583 N586 1.384 . S
C584 H575 0.929 . S
C584 C576 1.378 . S
C584 C579 1.350 . S
C585 H572 0.929 . S
C585 C577 1.433 . S
C585 N587 1.384 . S
N586 C582 1.427 . S
N586 C583 1.384 . S
N587 C579 1.427 . S
N587 C585 1.384 . S
H588 C594 0.930 . S
H589 C598 0.930 . S
H590 C603 0.929 . S
H591 C601 0.929 . S
H592 C596 0.929 . S
H593 C602 0.929 . S
C594 H588 0.930 . S
C594 C595 1.367 . S
C594 C602 1.378 . S
C595 C594 1.367 . S
C595 C603 1.433 . S
C596 H592 0.929 . S
C596 C598 1.378 . S
C596 C600 1.350 . S
C597 C600 1.463 . S
C597 C602 1.350 . S
C597 N605 1.427 . S
C598 H589 0.930 . S
C598 C596 1.378 . S
C598 C599 1.367 . S
C599 C598 1.367 . S
C599 C601 1.433 . S
C600 C596 1.350 . S
C600 C597 1.463 . S
C600 N604 1.427 . S
C601 H591 0.929 . S
C601 C599 1.433 . S
C601 N604 1.384 . S
C602 H593 0.929 . S
C602 C594 1.378 . S
C602 C597 1.350 . S
C603 H590 0.929 . S
C603 C595 1.433 . S
C603 N605 1.384 . S
N604 C600 1.427 . S
N604 C601 1.384 . S
N605 C597 1.427 . S
N605 C603 1.384 . S
H606 C612 0.930 . S
H607 C616 0.930 . S
H608 C621 0.929 1_455 S
H609 C619 0.929 . S
H610 C614 0.929 . S
H611 C620 0.929 . S
C612 H606 0.930 . S
C612 C613 1.367 . S
C612 C620 1.378 . S
C613 C612 1.367 . S
C613 C621 1.433 . S
C614 H610 0.929 . S
C614 C616 1.378 . S
C614 C618 1.350 . S
C615 C618 1.463 . S
C615 C620 1.350 . S
C615 N623 1.427 . S
C616 H607 0.930 . S
C616 C614 1.378 . S
C616 C617 1.367 . S
C617 C616 1.367 . S
C617 C619 1.433 . S
C618 C614 1.350 . S
C618 C615 1.463 . S
C618 N622 1.427 . S
C619 H609 0.929 . S
C619 C617 1.433 . S
C619 N622 1.384 . S
C620 H611 0.929 . S
C620 C612 1.378 . S
C620 C615 1.350 . S
C621 H608 0.929 1_655 S
C621 C613 1.433 . S
C621 N623 1.384 . S
N622 C618 1.427 . S
N622 C619 1.384 . S
N623 C615 1.427 . S
N623 C621 1.384 . S
H624 C630 0.930 . S
H625 C634 0.930 . S
H626 C639 0.929 . S
H627 C637 0.929 . S
H628 C632 0.929 . S
H629 C638 0.929 . S
C630 H624 0.930 . S
C630 C631 1.367 . S
C630 C638 1.378 . S
C631 C630 1.367 . S
C631 C639 1.433 . S
C632 H628 0.929 . S
C632 C634 1.378 . S
C632 C636 1.350 . S
C633 C636 1.463 . S
C633 C638 1.350 . S
C633 N641 1.427 . S
C634 H625 0.930 . S
C634 C632 1.378 . S
C634 C635 1.367 . S
C635 C634 1.367 . S
C635 C637 1.433 . S
C636 C632 1.350 . S
C636 C633 1.463 . S
C636 N640 1.427 . S
C637 H627 0.929 . S
C637 C635 1.433 . S
C637 N640 1.384 . S
C638 H629 0.929 . S
C638 C630 1.378 . S
C638 C633 1.350 . S
C639 H626 0.929 . S
C639 C631 1.433 . S
C639 N641 1.384 . S
N640 C636 1.427 . S
N640 C637 1.384 . S
N641 C633 1.427 . S
N641 C639 1.384 . S
H642 C648 0.930 . S
H643 C652 0.930 . S
H644 C657 0.929 . S
H645 C655 0.929 . S
H646 C650 0.929 . S
H647 C656 0.929 . S
C648 H642 0.930 . S
C648 C649 1.367 . S
C648 C656 1.378 . S
C649 C648 1.367 . S
C649 C657 1.433 . S
C650 H646 0.929 . S
C650 C652 1.378 . S
C650 C654 1.350 . S
C651 C654 1.463 . S
C651 C656 1.350 . S
C651 N659 1.427 . S
C652 H643 0.930 . S
C652 C650 1.378 . S
C652 C653 1.367 . S
C653 C652 1.367 . S
C653 C655 1.433 . S
C654 C650 1.350 . S
C654 C651 1.463 . S
C654 N658 1.427 . S
C655 H645 0.929 . S
C655 C653 1.433 . S
C655 N658 1.384 . S
C656 H647 0.929 . S
C656 C648 1.378 . S
C656 C651 1.350 . S
C657 H644 0.929 . S
C657 C649 1.433 . S
C657 N659 1.384 . S
N658 C654 1.427 . S
N658 C655 1.384 . S
N659 C651 1.427 . S
N659 C657 1.384 . S
H660 C666 0.930 1_554 S
H661 C670 0.930 . S
H662 C675 0.929 . S
H663 C673 0.929 . S
H664 C668 0.929 . S
H665 C674 0.929 . S
C666 H660 0.930 1_556 S
C666 C667 1.367 . S
C666 C674 1.378 . S
C667 C666 1.367 . S
C667 C675 1.433 . S
C668 H664 0.929 . S
C668 C670 1.378 . S
C668 C672 1.350 . S
C669 C672 1.463 . S
C669 C674 1.350 . S
C669 N677 1.427 . S
C670 H661 0.930 . S
C670 C668 1.378 . S
C670 C671 1.367 . S
C671 C670 1.367 . S
C671 C673 1.433 . S
C672 C668 1.350 . S
C672 C669 1.463 . S
C672 N676 1.427 . S
C673 H663 0.929 . S
C673 C671 1.433 . S
C673 N676 1.384 . S
C674 H665 0.929 . S
C674 C666 1.378 . S
C674 C669 1.350 . S
C675 H662 0.929 . S
C675 C667 1.433 . S
C675 N677 1.384 . S
N676 C672 1.427 . S
N676 C673 1.384 . S
N677 C669 1.427 . S
N677 C675 1.384 . S
H678 C684 0.930 . S
H679 C688 0.961 . S
H680 C693 0.929 . S
H681 C691 0.929 . S
H682 C686 0.929 1_455 S
H683 C692 0.929 . S
C684 H678 0.930 . S
C684 C685 1.367 . S
C684 C692 1.378 . S
C685 C684 1.367 . S
C685 C693 1.433 . S
C686 H682 0.929 1_655 S
C686 C688 1.367 1_655 S
C686 C690 1.350 . S
C687 C690 1.463 . S
C687 C692 1.350 . S
C687 N695 1.427 . S
C688 H679 0.961 . S
C688 C686 1.367 1_455 S
C688 C689 1.347 1_455 S
C689 C688 1.347 1_655 S
C689 C691 1.433 . S
C690 C686 1.350 . S
C690 C687 1.463 . S
C690 N694 1.427 . S
C691 H681 0.929 . S
C691 C689 1.433 . S
C691 N694 1.384 . S
C692 H683 0.929 . S
C692 C684 1.378 . S
C692 C687 1.350 . S
C693 H680 0.929 . S
C693 C685 1.433 . S
C693 N695 1.384 . S
N694 C690 1.427 . S
N694 C691 1.384 . S
N695 C687 1.427 . S
N695 C693 1.384 . S
H696 C702 0.930 . S
H697 C706 0.930 . S
H698 C711 0.929 . S
H699 C709 0.929 . S
H700 C704 0.929 . S
H701 C710 0.929 . S
C702 H696 0.930 . S
C702 C703 1.367 . S
C702 C710 1.378 . S
C703 C702 1.367 . S
C703 C711 1.433 . S
C704 H700 0.929 . S
C704 C706 1.378 . S
C704 C708 1.350 . S
C705 C708 1.463 . S
C705 C710 1.350 . S
C705 N713 1.427 . S
C706 H697 0.930 . S
C706 C704 1.378 . S
C706 C707 1.367 . S
C707 C706 1.367 . S
C707 C709 1.433 . S
C708 C704 1.350 . S
C708 C705 1.463 . S
C708 N712 1.427 . S
C709 H699 0.929 . S
C709 C707 1.433 . S
C709 N712 1.384 . S
C710 H701 0.929 . S
C710 C702 1.378 . S
C710 C705 1.350 . S
C711 H698 0.929 . S
C711 C703 1.433 . S
C711 N713 1.384 . S
N712 C708 1.427 . S
N712 C709 1.384 . S
N713 C705 1.427 . S
N713 C711 1.384 . S
H714 C720 0.930 . S
H715 C724 0.930 . S
H716 C729 0.929 . S
H717 C727 0.929 . S
H718 C722 0.929 . S
H719 C728 0.929 . S
C720 H714 0.930 . S
C720 C721 1.367 . S
C720 C728 1.378 . S
C721 C720 1.367 . S
C721 C729 1.433 . S
C722 H718 0.929 . S
C722 C724 1.378 . S
C722 C726 1.350 . S
C723 C726 1.463 . S
C723 C728 1.350 . S
C723 N731 1.427 . S
C724 H715 0.930 . S
C724 C722 1.378 . S
C724 C725 1.367 . S
C725 C724 1.367 . S
C725 C727 1.433 . S
C726 C722 1.350 . S
C726 C723 1.463 . S
C726 N730 1.427 . S
C727 H717 0.929 . S
C727 C725 1.433 . S
C727 N730 1.384 . S
C728 H719 0.929 . S
C728 C720 1.378 . S
C728 C723 1.350 . S
C729 H716 0.929 . S
C729 C721 1.433 . S
C729 N731 1.384 . S
N730 C726 1.427 . S
N730 C727 1.384 . S
N731 C723 1.427 . S
N731 C729 1.384 . S
H732 C738 0.930 . S
H733 C742 0.930 . S
H734 C747 0.929 . S
H735 C745 0.929 . S
H736 C740 0.929 . S
H737 C746 0.929 . S
C738 H732 0.930 . S
C738 C739 1.367 . S
C738 C746 1.378 . S
C739 C738 1.367 . S
C739 C747 1.433 . S
C740 H736 0.929 . S
C740 C742 1.378 . S
C740 C744 1.350 . S
C741 C744 1.463 . S
C741 C746 1.350 . S
C741 N749 1.427 . S
C742 H733 0.930 . S
C742 C740 1.378 . S
C742 C743 1.367 . S
C743 C742 1.367 . S
C743 C745 1.433 . S
C744 C740 1.350 . S
C744 C741 1.463 . S
C744 N748 1.427 . S
C745 H735 0.929 . S
C745 C743 1.433 . S
C745 N748 1.384 . S
C746 H737 0.929 . S
C746 C738 1.378 . S
C746 C741 1.350 . S
C747 H734 0.929 . S
C747 C739 1.433 . S
C747 N749 1.384 . S
N748 C744 1.427 . S
N748 C745 1.384 . S
N749 C741 1.427 . S
N749 C747 1.384 . S
H750 C756 0.930 . S
H751 C760 0.930 . S
H752 C765 0.929 . S
H753 C763 0.929 1_545 S
H754 C758 0.929 . S
H755 C764 0.929 . S
C756 H750 0.930 . S
C756 C757 1.367 . S
C756 C764 1.378 . S
C757 C756 1.367 . S
C757 C765 1.433 . S
C758 H754 0.929 . S
C758 C760 1.378 . S
C758 C762 1.350 . S
C759 C762 1.463 . S
C759 C764 1.350 . S
C759 N767 1.427 . S
C760 H751 0.930 . S
C760 C758 1.378 . S
C760 C761 1.367 . S
C761 C760 1.367 . S
C761 C763 1.433 . S
C762 C758 1.350 . S
C762 C759 1.463 . S
C762 N766 1.427 . S
C763 H753 0.929 1_565 S
C763 C761 1.433 . S
C763 N766 1.384 . S
C764 H755 0.929 . S
C764 C756 1.378 . S
C764 C759 1.350 . S
C765 H752 0.929 . S
C765 C757 1.433 . S
C765 N767 1.384 . S
N766 C762 1.427 . S
N766 C763 1.384 . S
N767 C759 1.427 . S
N767 C765 1.384 . S
H768 C774 0.930 . S
H769 C778 0.930 . S
H770 C783 0.929 . S
H771 C781 0.929 . S
H772 C776 0.929 . S
H773 C782 0.929 . S
C774 H768 0.930 . S
C774 C775 1.367 . S
C774 C782 1.378 . S
C775 C774 1.367 . S
C775 C783 1.433 1_565 S
C776 H772 0.929 . S
C776 C778 1.378 . S
C776 C780 1.350 . S
C777 C780 1.463 . S
C777 C782 1.350 . S
C777 N785 1.427 . S
C778 H769 0.930 . S
C778 C776 1.378 . S
C778 C779 1.367 . S
C779 C778 1.367 . S
C779 C781 1.433 . S
C780 C776 1.350 . S
C780 C777 1.463 . S
C780 N784 1.427 . S
C781 H771 0.929 . S
C781 C779 1.433 . S
C781 N784 1.384 . S
C782 H773 0.929 . S
C782 C774 1.378 . S
C782 C777 1.350 . S
C783 H770 0.929 . S
C783 C775 1.433 1_545 S
C783 N785 1.384 1_545 S
N784 C780 1.427 . S
N784 C781 1.384 . S
N785 C777 1.427 . S
N785 C783 1.384 1_565 S
H786 C792 0.930 . S
H787 C796 0.930 . S
H788 C801 0.929 . S
H789 C799 0.929 . S
H790 C794 0.929 . S
H791 C800 0.929 . S
C792 H786 0.930 . S
C792 C793 1.367 . S
C792 C800 1.378 . S
C793 C792 1.367 . S
C793 C801 1.433 . S
C794 H790 0.929 . S
C794 C796 1.378 . S
C794 C798 1.350 . S
C795 C798 1.463 . S
C795 C800 1.350 . S
C795 N803 1.427 . S
C796 H787 0.930 . S
C796 C794 1.378 . S
C796 C797 1.367 . S
C797 C796 1.367 . S
C797 C799 1.433 . S
C798 C794 1.350 . S
C798 C795 1.463 . S
C798 N802 1.427 . S
C799 H789 0.929 . S
C799 C797 1.433 . S
C799 N802 1.384 . S
C800 H791 0.929 . S
C800 C792 1.378 . S
C800 C795 1.350 . S
C801 H788 0.929 . S
C801 C793 1.433 . S
C801 N803 1.384 . S
N802 C798 1.427 . S
N802 C799 1.384 . S
N803 C795 1.427 . S
N803 C801 1.384 . S
H804 C810 0.930 . S
H805 C814 0.930 . S
H806 C819 0.929 . S
H807 C817 0.929 . S
H808 C812 0.929 . S
H809 C818 0.929 . S
C810 H804 0.930 . S
C810 C811 1.367 . S
C810 C818 1.378 . S
C811 C810 1.367 . S
C811 C819 1.433 . S
C812 H808 0.929 . S
C812 C814 1.378 . S
C812 C816 1.350 . S
C813 C816 1.463 . S
C813 C818 1.350 . S
C813 N821 1.427 . S
C814 H805 0.930 . S
C814 C812 1.378 . S
C814 C815 1.367 . S
C815 C814 1.367 . S
C815 C817 1.433 . S
C816 C812 1.350 . S
C816 C813 1.463 . S
C816 N820 1.427 . S
C817 H807 0.929 . S
C817 C815 1.433 . S
C817 N820 1.384 . S
C818 H809 0.929 . S
C818 C810 1.378 . S
C818 C813 1.350 . S
C819 H806 0.929 . S
C819 C811 1.433 . S
C819 N821 1.384 . S
N820 C816 1.427 . S
N820 C817 1.384 . S
N821 C813 1.427 . S
N821 C819 1.384 . S
H822 C828 0.930 . S
H823 C832 0.930 . S
H824 C837 0.929 . S
H825 C835 0.929 1_554 S
H826 C830 0.929 . S
H827 C836 0.929 . S
C828 H822 0.930 . S
C828 C829 1.367 . S
C828 C836 1.378 . S
C829 C828 1.367 . S
C829 C837 1.433 . S
C830 H826 0.929 . S
C830 C832 1.378 . S
C830 C834 1.350 . S
C831 C834 1.463 . S
C831 C836 1.350 . S
C831 N839 1.427 . S
C832 H823 0.930 . S
C832 C830 1.378 . S
C832 C833 1.367 . S
C833 C832 1.367 . S
C833 C835 1.433 . S
C834 C830 1.350 . S
C834 C831 1.463 . S
C834 N838 1.427 . S
C835 H825 0.929 1_556 S
C835 C833 1.433 . S
C835 N838 1.384 . S
C836 H827 0.929 . S
C836 C828 1.378 . S
C836 C831 1.350 . S
C837 H824 0.929 . S
C837 C829 1.433 . S
C837 N839 1.384 . S
N838 C834 1.427 . S
N838 C835 1.384 . S
N839 C831 1.427 . S
N839 C837 1.384 . S
H840 C846 0.930 . S
H841 C850 0.930 . S
H842 C855 0.929 . S
H843 C853 0.929 . S
H844 C848 0.929 . S
H845 C854 0.929 . S
C846 H840 0.930 . S
C846 C847 1.367 . S
C846 C854 1.378 . S
C847 C846 1.367 . S
C847 C855 1.433 . S
C848 H844 0.929 . S
C848 C850 1.378 . S
C848 C852 1.350 . S
C849 C852 1.463 . S
C849 C854 1.350 . S
C849 N857 1.427 . S
C850 H841 0.930 . S
C850 C848 1.378 . S
C850 C851 1.367 . S
C851 C850 1.367 . S
C851 C853 1.433 . S
C852 C848 1.350 . S
C852 C849 1.463 . S
C852 N856 1.427 . S
C853 H843 0.929 . S
C853 C851 1.433 . S
C853 N856 1.384 . S
C854 H845 0.929 . S
C854 C846 1.378 . S
C854 C849 1.350 . S
C855 H842 0.929 . S
C855 C847 1.433 . S
C855 N857 1.384 . S
N856 C852 1.427 . S
N856 C853 1.384 . S
N857 C849 1.427 . S
N857 C855 1.384 . S
H858 C864 0.930 . S
H859 C868 0.930 . S
H860 C873 0.929 . S
H861 C871 0.929 . S
H862 C866 0.929 . S
H863 C872 0.929 . S
C864 H858 0.930 . S
C864 C865 1.367 . S
C864 C872 1.378 . S
C865 C864 1.367 . S
C865 C873 1.433 . S
C866 H862 0.929 . S
C866 C868 1.378 . S
C866 C870 1.350 . S
C867 C870 1.463 . S
C867 C872 1.350 . S
C867 N875 1.427 . S
C868 H859 0.930 . S
C868 C866 1.378 . S
C868 C869 1.367 . S
C869 C868 1.367 . S
C869 C871 1.433 . S
C870 C866 1.350 . S
C870 C867 1.463 . S
C870 N874 1.427 . S
C871 H861 0.929 . S
C871 C869 1.433 . S
C871 N874 1.384 . S
C872 H863 0.929 . S
C872 C864 1.378 . S
C872 C867 1.350 . S
C873 H860 0.929 . S
C873 C865 1.433 . S
C873 N875 1.384 . S
N874 C870 1.427 . S
N874 C871 1.384 . S
N875 C867 1.427 . S
N875 C873 1.384 . S
H876 C882 0.930 . S
H877 C886 0.930 . S
H878 C891 0.929 . S
H879 C889 0.929 . S
H880 C884 0.929 . S
H881 C890 0.929 . S
C882 H876 0.930 . S
C882 C883 1.367 . S
C882 C890 1.378 . S
C883 C882 1.367 . S
C883 C891 1.433 . S
C884 H880 0.929 . S
C884 C886 1.378 . S
C884 C888 1.350 . S
C885 C888 1.463 . S
C885 C890 1.350 . S
C885 N893 1.427 . S
C886 H877 0.930 . S
C886 C884 1.378 . S
C886 C887 1.367 . S
C887 C886 1.367 . S
C887 C889 1.433 . S
C888 C884 1.350 . S
C888 C885 1.463 . S
C888 N892 1.427 . S
C889 H879 0.929 . S
C889 C887 1.433 . S
C889 N892 1.384 . S
C890 H881 0.929 . S
C890 C882 1.378 . S
C890 C885 1.350 . S
C891 H878 0.929 . S
C891 C883 1.433 . S
C891 N893 1.384 . S
N892 C888 1.427 . S
N892 C889 1.384 . S
N893 C885 1.427 . S
N893 C891 1.384 . S
H894 C900 0.930 . S
H895 C904 0.930 . S
H896 C909 0.929 . S
H897 C907 0.929 . S
H898 C902 0.929 . S
H899 C908 0.929 . S
C900 H894 0.930 . S
C900 C901 1.367 . S
C900 C908 1.378 . S
C901 C900 1.367 . S
C901 C909 1.433 . S
C902 H898 0.929 . S
C902 C904 1.378 . S
C902 C906 1.350 . S
C903 C906 1.463 . S
C903 C908 1.350 . S
C903 N911 1.427 . S
C904 H895 0.930 . S
C904 C902 1.378 . S
C904 C905 1.367 . S
C905 C904 1.367 . S
C905 C907 1.433 . S
C906 C902 1.350 . S
C906 C903 1.463 . S
C906 N910 1.427 . S
C907 H897 0.929 . S
C907 C905 1.433 . S
C907 N910 1.384 . S
C908 H899 0.929 . S
C908 C900 1.378 . S
C908 C903 1.350 . S
C909 H896 0.929 . S
C909 C901 1.433 . S
C909 N911 1.384 . S
N910 C906 1.427 . S
N910 C907 1.384 . S
N911 C903 1.427 . S
N911 C909 1.384 . S
H912 C918 0.930 . S
H913 C922 0.930 . S
H914 C927 0.929 . S
H915 C925 0.929 . S
H916 C920 0.929 . S
H917 C926 0.929 . S
C918 H912 0.930 . S
C918 C919 1.367 . S
C918 C926 1.378 . S
C919 C918 1.367 . S
C919 C927 1.433 . S
C920 H916 0.929 . S
C920 C922 1.378 . S
C920 C924 1.350 . S
C921 C924 1.463 . S
C921 C926 1.350 . S
C921 N929 1.427 . S
C922 H913 0.930 . S
C922 C920 1.378 . S
C922 C923 1.367 . S
C923 C922 1.367 . S
C923 C925 1.433 . S
C924 C920 1.350 . S
C924 C921 1.463 . S
C924 N928 1.427 . S
C925 H915 0.929 . S
C925 C923 1.433 . S
C925 N928 1.384 . S
C926 H917 0.929 . S
C926 C918 1.378 . S
C926 C921 1.350 . S
C927 H914 0.929 . S
C927 C919 1.433 . S
C927 N929 1.384 . S
N928 C924 1.427 . S
N928 C925 1.384 . S
N929 C921 1.427 . S
N929 C927 1.384 . S
H930 C936 0.930 . S
H931 C940 0.930 . S
H932 C945 0.929 . S
H933 C943 0.929 . S
H934 C938 0.929 . S
H935 C944 0.929 . S
C936 H930 0.930 . S
C936 C937 1.367 . S
C936 C944 1.378 . S
C937 C936 1.367 . S
C937 C945 1.433 . S
C938 H934 0.929 . S
C938 C940 1.378 . S
C938 C942 1.350 . S
C939 C942 1.463 . S
C939 C944 1.350 . S
C939 N947 1.427 . S
C940 H931 0.930 . S
C940 C938 1.378 . S
C940 C941 1.367 . S
C941 C940 1.367 . S
C941 C943 1.433 . S
C942 C938 1.350 . S
C942 C939 1.463 . S
C942 N946 1.427 . S
C943 H933 0.929 . S
C943 C941 1.433 . S
C943 N946 1.384 . S
C944 H935 0.929 . S
C944 C936 1.378 . S
C944 C939 1.350 . S
C945 H932 0.929 . S
C945 C937 1.433 . S
C945 N947 1.384 . S
N946 C942 1.427 . S
N946 C943 1.384 . S
N947 C939 1.427 . S
N947 C945 1.384 . S
H948 C954 0.930 . S
H949 C958 0.930 . S
H950 C963 0.929 . S
H951 C961 0.929 . S
H952 C956 0.929 . S
H953 C962 0.929 . S
C954 H948 0.930 . S
C954 C955 1.367 . S
C954 C962 1.378 . S
C955 C954 1.367 . S
C955 C963 1.433 . S
C956 H952 0.929 . S
C956 C958 1.378 . S
C956 C960 1.350 . S
C957 C960 1.463 . S
C957 C962 1.350 . S
C957 N965 1.427 . S
C958 H949 0.930 . S
C958 C956 1.378 . S
C958 C959 1.367 . S
C959 C958 1.367 . S
C959 C961 1.433 . S
C960 C956 1.350 . S
C960 C957 1.463 . S
C960 N964 1.427 . S
C961 H951 0.929 . S
C961 C959 1.433 . S
C961 N964 1.384 . S
C962 H953 0.929 . S
C962 C954 1.378 . S
C962 C957 1.350 . S
C963 H950 0.929 . S
C963 C955 1.433 . S
C963 N965 1.384 . S
N964 C960 1.427 . S
N964 C961 1.384 . S
N965 C957 1.427 . S
N965 C963 1.384 . S
H966 C972 0.930 . S
H967 C976 0.930 . S
H968 C981 0.929 . S
H969 C979 0.929 . S
H970 C974 0.929 . S
H971 C980 0.929 . S
C972 H966 0.930 . S
C972 C973 1.367 . S
C972 C980 1.378 . S
C973 C972 1.367 . S
C973 C981 1.433 . S
C974 H970 0.929 . S
C974 C976 1.378 . S
C974 C978 1.350 . S
C975 C978 1.463 . S
C975 C980 1.350 . S
C975 N983 1.427 . S
C976 H967 0.930 . S
C976 C974 1.378 . S
C976 C977 1.367 . S
C977 C976 1.367 . S
C977 C979 1.433 . S
C978 C974 1.350 . S
C978 C975 1.463 . S
C978 N982 1.427 . S
C979 H969 0.929 . S
C979 C977 1.433 . S
C979 N982 1.384 . S
C980 H971 0.929 . S
C980 C972 1.378 . S
C980 C975 1.350 . S
C981 H968 0.929 . S
C981 C973 1.433 . S
C981 N983 1.384 . S
N982 C978 1.427 . S
N982 C979 1.384 . S
N983 C975 1.427 . S
N983 C981 1.384 . S
H984 C990 0.930 . S
H985 C994 0.930 . S
H986 C999 0.929 . S
H987 C997 0.929 . S
H988 C992 0.929 . S
H989 C998 0.929 . S
C990 H984 0.930 . S
C990 C991 1.367 . S
C990 C998 1.378 . S
C991 C990 1.367 . S
C991 C999 1.433 . S
C992 H988 0.929 . S
C992 C994 1.378 . S
C992 C996 1.350 . S
C993 C996 1.463 . S
C993 C998 1.350 . S
C993 N1001 1.427 . S
C994 H985 0.930 . S
C994 C992 1.378 . S
C994 C995 1.367 . S
C995 C994 1.367 . S
C995 C997 1.433 . S
C996 C992 1.350 . S
C996 C993 1.463 . S
C996 N1000 1.427 . S
C997 H987 0.929 . S
C997 C995 1.433 . S
C997 N1000 1.384 . S
C998 H989 0.929 . S
C998 C990 1.378 . S
C998 C993 1.350 . S
C999 H986 0.929 . S
C999 C991 1.433 . S
C999 N1001 1.384 . S
N1000 C996 1.427 . S
N1000 C997 1.384 . S
N1001 C993 1.427 . S
N1001 C999 1.384 . S
H1002 C1008 0.930 . S
H1003 C1012 0.930 . S
H1004 C1017 0.929 . S
H1005 C1015 0.929 . S
H1006 C1010 0.929 . S
H1007 C1016 0.929 . S
C1008 H1002 0.930 . S
C1008 C1009 1.367 . S
C1008 C1016 1.378 . S
C1009 C1008 1.367 . S
C1009 C1017 1.433 . S
C1010 H1006 0.929 . S
C1010 C1012 1.378 . S
C1010 C1014 1.350 . S
C1011 C1014 1.463 . S
C1011 C1016 1.350 . S
C1011 N1019 1.427 . S
C1012 H1003 0.930 . S
C1012 C1010 1.378 . S
C1012 C1013 1.367 . S
C1013 C1012 1.367 . S
C1013 C1015 1.433 . S
C1014 C1010 1.350 . S
C1014 C1011 1.463 . S
C1014 N1018 1.427 . S
C1015 H1005 0.929 . S
C1015 C1013 1.433 . S
C1015 N1018 1.384 . S
C1016 H1007 0.929 . S
C1016 C1008 1.378 . S
C1016 C1011 1.350 . S
C1017 H1004 0.929 . S
C1017 C1009 1.433 . S
C1017 N1019 1.384 . S
N1018 C1014 1.427 . S
N1018 C1015 1.384 . S
N1019 C1011 1.427 . S
N1019 C1017 1.384 . S
H1020 C1026 0.930 . S
H1021 C1030 0.930 . S
H1022 C1035 0.929 . S
H1023 C1033 0.929 . S
H1024 C1028 0.929 . S
H1025 C1034 0.929 . S
C1026 H1020 0.930 . S
C1026 C1027 1.367 . S
C1026 C1034 1.378 . S
C1027 C1026 1.367 . S
C1027 C1035 1.433 . S
C1028 H1024 0.929 . S
C1028 C1030 1.378 . S
C1028 C1032 1.350 . S
C1029 C1032 1.463 . S
C1029 C1034 1.350 . S
C1029 N1037 1.427 . S
C1030 H1021 0.930 . S
C1030 C1028 1.378 . S
C1030 C1031 1.367 . S
C1031 C1030 1.367 . S
C1031 C1033 1.433 . S
C1032 C1028 1.350 . S
C1032 C1029 1.463 . S
C1032 N1036 1.427 . S
C1033 H1023 0.929 . S
C1033 C1031 1.433 . S
C1033 N1036 1.384 . S
C1034 H1025 0.929 . S
C1034 C1026 1.378 . S
C1034 C1029 1.350 . S
C1035 H1022 0.929 . S
C1035 C1027 1.433 . S
C1035 N1037 1.384 . S
N1036 C1032 1.427 . S
N1036 C1033 1.384 . S
N1037 C1029 1.427 . S
N1037 C1035 1.384 . S
H1038 C1044 0.930 . S
H1039 C1048 0.930 . S
H1040 C1053 0.929 . S
H1041 C1051 0.929 . S
H1042 C1046 0.929 . S
H1043 C1052 0.929 . S
C1044 H1038 0.930 . S
C1044 C1045 1.367 . S
C1044 C1052 1.378 . S
C1045 C1044 1.367 . S
C1045 C1053 1.433 . S
C1046 H1042 0.929 . S
C1046 C1048 1.378 . S
C1046 C1050 1.350 . S
C1047 C1050 1.463 . S
C1047 C1052 1.350 . S
C1047 N1055 1.427 . S
C1048 H1039 0.930 . S
C1048 C1046 1.378 . S
C1048 C1049 1.367 . S
C1049 C1048 1.367 . S
C1049 C1051 1.433 . S
C1050 C1046 1.350 . S
C1050 C1047 1.463 . S
C1050 N1054 1.427 . S
C1051 H1041 0.929 . S
C1051 C1049 1.433 . S
C1051 N1054 1.384 . S
C1052 H1043 0.929 . S
C1052 C1044 1.378 . S
C1052 C1047 1.350 . S
C1053 H1040 0.929 . S
C1053 C1045 1.433 . S
C1053 N1055 1.384 . S
N1054 C1050 1.427 . S
N1054 C1051 1.384 . S
N1055 C1047 1.427 . S
N1055 C1053 1.384 . S
H1056 C1062 0.930 . S
H1057 C1066 0.930 . S
H1058 C1071 0.929 . S
H1059 C1069 0.929 . S
H1060 C1064 0.929 . S
H1061 C1070 0.929 . S
C1062 H1056 0.930 . S
C1062 C1063 1.367 . S
C1062 C1070 1.378 . S
C1063 C1062 1.367 . S
C1063 C1071 1.433 . S
C1064 H1060 0.929 . S
C1064 C1066 1.378 . S
C1064 C1068 1.350 . S
C1065 C1068 1.463 . S
C1065 C1070 1.350 . S
C1065 N1073 1.427 . S
C1066 H1057 0.930 . S
C1066 C1064 1.378 . S
C1066 C1067 1.367 . S
C1067 C1066 1.367 . S
C1067 C1069 1.433 . S
C1068 C1064 1.350 . S
C1068 C1065 1.463 . S
C1068 N1072 1.427 . S
C1069 H1059 0.929 . S
C1069 C1067 1.433 . S
C1069 N1072 1.384 . S
C1070 H1061 0.929 . S
C1070 C1062 1.378 . S
C1070 C1065 1.350 . S
C1071 H1058 0.929 . S
C1071 C1063 1.433 . S
C1071 N1073 1.384 . S
N1072 C1068 1.427 . S
N1072 C1069 1.384 . S
N1073 C1065 1.427 . S
N1073 C1071 1.384 . S
H1074 C1080 0.930 . S
H1075 C1084 0.930 . S
H1076 C1089 0.929 . S
H1077 C1087 0.929 . S
H1078 C1082 0.929 . S
H1079 C1088 0.929 . S
C1080 H1074 0.930 . S
C1080 C1081 1.367 . S
C1080 C1088 1.378 . S
C1081 C1080 1.367 . S
C1081 C1089 1.433 . S
C1082 H1078 0.929 . S
C1082 C1084 1.378 . S
C1082 C1086 1.350 . S
C1083 C1086 1.463 . S
C1083 C1088 1.350 . S
C1083 N1091 1.427 . S
C1084 H1075 0.930 . S
C1084 C1082 1.378 . S
C1084 C1085 1.367 . S
C1085 C1084 1.367 . S
C1085 C1087 1.433 . S
C1086 C1082 1.350 . S
C1086 C1083 1.463 . S
C1086 N1090 1.427 . S
C1087 H1077 0.929 . S
C1087 C1085 1.433 . S
C1087 N1090 1.384 . S
C1088 H1079 0.929 . S
C1088 C1080 1.378 . S
C1088 C1083 1.350 . S
C1089 H1076 0.929 . S
C1089 C1081 1.433 . S
C1089 N1091 1.384 . S
N1090 C1086 1.427 . S
N1090 C1087 1.384 . S
N1091 C1083 1.427 . S
N1091 C1089 1.384 . S
H1092 C1098 0.930 . S
H1093 C1102 0.930 . S
H1094 C1107 0.929 . S
H1095 C1105 0.929 . S
H1096 C1100 0.929 . S
H1097 C1106 0.929 . S
C1098 H1092 0.930 . S
C1098 C1099 1.367 . S
C1098 C1106 1.378 . S
C1099 C1098 1.367 . S
C1099 C1107 1.433 . S
C1100 H1096 0.929 . S
C1100 C1102 1.378 . S
C1100 C1104 1.350 . S
C1101 C1104 1.463 . S
C1101 C1106 1.350 . S
C1101 N1109 1.427 . S
C1102 H1093 0.930 . S
C1102 C1100 1.378 . S
C1102 C1103 1.367 . S
C1103 C1102 1.367 . S
C1103 C1105 1.433 . S
C1104 C1100 1.350 . S
C1104 C1101 1.463 . S
C1104 N1108 1.427 . S
C1105 H1095 0.929 . S
C1105 C1103 1.433 . S
C1105 N1108 1.384 . S
C1106 H1097 0.929 . S
C1106 C1098 1.378 . S
C1106 C1101 1.350 . S
C1107 H1094 0.929 . S
C1107 C1099 1.433 . S
C1107 N1109 1.384 . S
N1108 C1104 1.427 . S
N1108 C1105 1.384 . S
N1109 C1101 1.427 . S
N1109 C1107 1.384 . S
H1110 C1116 0.930 . S
H1111 C1120 0.930 . S
H1112 C1125 0.929 . S
H1113 C1123 0.929 . S
H1114 C1118 0.929 . S
H1115 C1124 0.929 . S
C1116 H1110 0.930 . S
C1116 C1117 1.367 . S
C1116 C1124 1.378 . S
C1117 C1116 1.367 . S
C1117 C1125 1.433 . S
C1118 H1114 0.929 . S
C1118 C1120 1.378 . S
C1118 C1122 1.350 . S
C1119 C1122 1.463 . S
C1119 C1124 1.350 . S
C1119 N1127 1.427 . S
C1120 H1111 0.930 . S
C1120 C1118 1.378 . S
C1120 C1121 1.367 . S
C1121 C1120 1.367 . S
C1121 C1123 1.433 . S
C1122 C1118 1.350 . S
C1122 C1119 1.463 . S
C1122 N1126 1.427 . S
C1123 H1113 0.929 . S
C1123 C1121 1.433 . S
C1123 N1126 1.384 . S
C1124 H1115 0.929 . S
C1124 C1116 1.378 . S
C1124 C1119 1.350 . S
C1125 H1112 0.929 . S
C1125 C1117 1.433 . S
C1125 N1127 1.384 . S
N1126 C1122 1.427 . S
N1126 C1123 1.384 . S
N1127 C1119 1.427 . S
N1127 C1125 1.384 . S
H1128 C1134 0.930 . S
H1129 C1138 0.930 . S
H1130 C1143 0.929 . S
H1131 C1141 0.929 . S
H1132 C1136 0.929 . S
H1133 C1142 0.929 . S
C1134 H1128 0.930 . S
C1134 C1135 1.367 . S
C1134 C1142 1.378 . S
C1135 C1134 1.367 . S
C1135 C1143 1.433 . S
C1136 H1132 0.929 . S
C1136 C1138 1.378 . S
C1136 C1140 1.350 . S
C1137 C1140 1.463 . S
C1137 C1142 1.350 . S
C1137 N1145 1.427 . S
C1138 H1129 0.930 . S
C1138 C1136 1.378 . S
C1138 C1139 1.367 . S
C1139 C1138 1.367 . S
C1139 C1141 1.433 . S
C1140 C1136 1.350 . S
C1140 C1137 1.463 . S
C1140 N1144 1.427 . S
C1141 H1131 0.929 . S
C1141 C1139 1.433 . S
C1141 N1144 1.384 . S
C1142 H1133 0.929 . S
C1142 C1134 1.378 . S
C1142 C1137 1.350 . S
C1143 H1130 0.929 . S
C1143 C1135 1.433 . S
C1143 N1145 1.384 . S
N1144 C1140 1.427 . S
N1144 C1141 1.384 . S
N1145 C1137 1.427 . S
N1145 C1143 1.384 . S
H1146 C1152 0.930 . S
H1147 C1156 0.930 . S
H1148 C1161 0.929 . S
H1149 C1159 0.929 . S
H1150 C1154 0.929 . S
H1151 C1160 0.929 . S
C1152 H1146 0.930 . S
C1152 C1153 1.367 . S
C1152 C1160 1.378 . S
C1153 C1152 1.367 . S
C1153 C1161 1.433 . S
C1154 H1150 0.929 . S
C1154 C1156 1.378 . S
C1154 C1158 1.350 . S
C1155 C1158 1.463 . S
C1155 C1160 1.350 . S
C1155 N1163 1.427 . S
C1156 H1147 0.930 . S
C1156 C1154 1.378 . S
C1156 C1157 1.367 . S
C1157 C1156 1.367 . S
C1157 C1159 1.433 . S
C1158 C1154 1.350 . S
C1158 C1155 1.463 . S
C1158 N1162 1.427 . S
C1159 H1149 0.929 . S
C1159 C1157 1.433 . S
C1159 N1162 1.384 . S
C1160 H1151 0.929 . S
C1160 C1152 1.378 . S
C1160 C1155 1.350 . S
C1161 H1148 0.929 . S
C1161 C1153 1.433 . S
C1161 N1163 1.384 . S
N1162 C1158 1.427 . S
N1162 C1159 1.384 . S
N1163 C1155 1.427 . S
N1163 C1161 1.384 . S
H1164 C1170 0.930 . S
H1165 C1174 0.930 . S
H1166 C1179 0.929 . S
H1167 C1177 0.929 . S
H1168 C1172 0.929 . S
H1169 C1178 0.929 . S
C1170 H1164 0.930 . S
C1170 C1171 1.367 . S
C1170 C1178 1.378 . S
C1171 C1170 1.367 . S
C1171 C1179 1.433 . S
C1172 H1168 0.929 . S
C1172 C1174 1.378 . S
C1172 C1176 1.350 . S
C1173 C1176 1.463 . S
C1173 C1178 1.350 . S
C1173 N1181 1.427 . S
C1174 H1165 0.930 . S
C1174 C1172 1.378 . S
C1174 C1175 1.367 . S
C1175 C1174 1.367 . S
C1175 C1177 1.433 . S
C1176 C1172 1.350 . S
C1176 C1173 1.463 . S
C1176 N1180 1.427 . S
C1177 H1167 0.929 . S
C1177 C1175 1.433 . S
C1177 N1180 1.384 . S
C1178 H1169 0.929 . S
C1178 C1170 1.378 . S
C1178 C1173 1.350 . S
C1179 H1166 0.929 . S
C1179 C1171 1.433 . S
C1179 N1181 1.384 . S
N1180 C1176 1.427 . S
N1180 C1177 1.384 . S
N1181 C1173 1.427 . S
N1181 C1179 1.384 . S
H1182 C1188 0.930 . S
H1183 C1192 0.930 . S
H1184 C1197 0.929 . S
H1185 C1195 0.929 . S
H1186 C1190 0.929 . S
H1187 C1196 0.929 . S
C1188 H1182 0.930 . S
C1188 C1189 1.367 . S
C1188 C1196 1.378 . S
C1189 C1188 1.367 . S
C1189 C1197 1.433 . S
C1190 H1186 0.929 . S
C1190 C1192 1.378 . S
C1190 C1194 1.350 . S
C1191 C1194 1.463 . S
C1191 C1196 1.350 . S
C1191 N1199 1.427 . S
C1192 H1183 0.930 . S
C1192 C1190 1.378 . S
C1192 C1193 1.367 . S
C1193 C1192 1.367 . S
C1193 C1195 1.433 . S
C1194 C1190 1.350 . S
C1194 C1191 1.463 . S
C1194 N1198 1.427 . S
C1195 H1185 0.929 . S
C1195 C1193 1.433 . S
C1195 N1198 1.384 . S
C1196 H1187 0.929 . S
C1196 C1188 1.378 . S
C1196 C1191 1.350 . S
C1197 H1184 0.929 . S
C1197 C1189 1.433 . S
C1197 N1199 1.384 . S
N1198 C1194 1.427 . S
N1198 C1195 1.384 . S
N1199 C1191 1.427 . S
N1199 C1197 1.384 . S
C343 C208 1.329 . S
C347 C11 1.310 . S
C361 C26 1.249 . S
C365 C215 1.113 . S
C379 C256 1.360 . S
C383 C32 1.360 . S
C397 C47 0.946 . S
C401 C187 0.954 . S
C415 C201 1.002 . S
C419 C61 1.002 . S
C433 C82 1.263 . S
C437 C222 1.261 . S
C451 C96 1.337 . S
C455 C263 1.323 . S
C469 C103 1.113 . S
C473 C194 1.249 . S
C487 C138 1.337 . S
C491 C123 1.325 . S
C505 C145 0.971 . S
C509 C131 0.973 . S
C523 C152 1.329 . S
C527 C165 1.309 . S
C541 C158 1.362 . S
C545 C116 1.360 . S
C559 C173 1.095 . S
C563 C54 1.254 . S
C577 C68 1.337 . S
C581 C235 1.324 . S
C595 C243 0.968 . S
C599 C19 0.962 . S
C613 C25 1.422 . S
C617 C299 1.222 . S
C631 C137 1.399 . S
C635 C5 1.212 . S
C649 C326 1.322 . S
C653 C46 1.311 . S
C667 C166 1.509 . S
C671 C40 1.507 . S
C685 C306 1.522 . S
C689 C102 1.482 . S
C703 C130 1.443 . S
C707 C88 1.440 . S
C721 C81 1.366 . S
C725 C333 1.383 . S
C739 C67 1.396 . S
C743 C159 1.186 . S
C757 C221 1.365 . S
C761 C277 1.383 . S
C775 C236 1.525 . S
C779 C214 1.490 . S
C793 C193 1.423 . S
C797 C229 1.232 . S
C811 C270 1.324 . S
C815 C186 1.313 . S
C829 C33 1.203 . S
C833 C291 1.396 . S
C847 C151 1.384 . S
C851 C109 1.370 . S
C865 C12 1.507 . S
C869 C320 1.510 . S
C883 C278 1.331 . S
C887 C39 1.313 . S
C901 C4 1.361 . S
C905 C228 1.369 . S
C919 C271 0.969 . S
C923 C89 0.966 . S
C937 C180 1.259 . S
C941 C110 1.259 . S
C955 C75 1.091 . S
C959 C250 1.255 . S
C973 C305 1.314 . S
C977 C292 1.331 . S
C991 C327 1.003 . S
C995 C285 0.997 . S
C1009 C319 1.313 . S
C1013 C334 1.331 . S
C1027 C298 1.368 . S
C1031 C312 1.365 . S
C1045 C117 1.234 . S
C1049 C53 1.424 . S
C1063 C18 1.323 . S
C1067 C144 1.321 . S
C1081 C74 1.483 . S
C1085 C124 1.522 . S
C1099 C284 1.442 . S
C1103 C60 1.441 . S
C1117 C95 1.396 . S
C1121 C313 1.209 . S
C1135 C179 1.365 . S
C1139 C207 1.383 . S
C1153 C264 1.522 . S
C1157 C172 1.483 . S
C1171 C249 1.423 . S
C1175 C257 1.229 . S
C1189 C200 1.324 . S
C1193 C242 1.315 . S
