# Generated by pormake.
# Topology dmp, (4)-cn, num edge types: 1
# Building blocks:
#     Node 0, Type 0, BuildingBlock: UXUYUI_clean_sbu_0, # of connection points: 4
#     Node 1, Type 0, BuildingBlock: UXUYUI_clean_sbu_0, # of connection points: 4
#     Node 2, Type 0, BuildingBlock: UXUYUI_clean_sbu_0, # of connection points: 4
#     Node 3, Type 0, BuildingBlock: UXUYUI_clean_sbu_0, # of connection points: 4
#     Edge 4, Type (0, 0), BuildingBlock: UVAHIK_clean_linker_0, # of connection points: 2
#     Edge 5, Type (0, 0), BuildingBlock: UVAHIK_clean_linker_0, # of connection points: 2
#     Edge 6, Type (0, 0), BuildingBlock: UVAHIK_clean_linker_0, # of connection points: 2
#     Edge 7, Type (0, 0), BuildingBlock: UVAHIK_clean_linker_0, # of connection points: 2
#     Edge 8, Type (0, 0), BuildingBlock: UVAHIK_clean_linker_0, # of connection points: 2
#     Edge 9, Type (0, 0), BuildingBlock: UVAHIK_clean_linker_0, # of connection points: 2
#     Edge 10, Type (0, 0), BuildingBlock: UVAHIK_clean_linker_0, # of connection points: 2
#     Edge 11, Type (0, 0), BuildingBlock: UVAHIK_clean_linker_0, # of connection points: 2
# Relax obj value: 0.351
# Max RMSD: 0.312
# Mean RMSD: 0.312
data_MOF--net-dmp--node1-UXUYUI_clean_sbu_0--edge1-UVAHIK_clean_linker_0
_symmetry_space_group_name_H-M    P1
_symmetry_Int_Tables_number       1
_symmetry_cell_setting            triclinic
loop_
_symmetry_equiv_pos_as_xyz
'x, y, z'
_cell_length_a     67.083613
_cell_length_b     28.647566
_cell_length_c     34.711438
_cell_angle_alpha  90.01177
_cell_angle_beta   89.956628
_cell_angle_gamma 90.032408
loop_
_atom_site_label
_atom_site_type_symbol
_atom_site_fract_x
_atom_site_fract_y
_atom_site_fract_z
_atom_type_partial_charge
Li0 Li 0.11377 0.28784 0.22452 0.0
Li1 Li 0.11016 0.22984 0.27259 0.0
Li2 Li 0.08553 0.23554 0.22183 0.0
Li3 Li 0.08873 0.29688 0.27455 0.0
C4 C 0.1324 0.20378 0.20751 0.0
N5 N 0.17006 0.17158 0.18925 0.0
C6 C 0.14899 0.21953 0.22809 0.0
C7 C 0.13496 0.17168 0.17761 0.0
C8 C 0.1679 0.20284 0.21845 0.0
C9 C 0.15412 0.15581 0.16882 0.0
C10 C 0.12796 0.30808 0.31261 0.0
C11 C 0.12892 0.32303 0.38102 0.0
N12 N 0.14872 0.33265 0.37837 0.0
C13 C 0.14832 0.31838 0.31058 0.0
C14 C 0.11816 0.31062 0.34813 0.0
C15 C 0.15855 0.3306 0.34414 0.0
C16 C 0.14151 0.35825 0.21065 0.0
N17 N 0.13246 0.32095 0.19403 0.0
C18 C 0.1532 0.32744 0.1383 0.0
C19 C 0.13761 0.30585 0.15822 0.0
C20 C 0.16354 0.3642 0.1559 0.0
C21 C 0.15733 0.38029 0.19211 0.0
H22 H 0.13686 0.36982 0.2389 0.0
H23 H 0.13007 0.27611 0.14572 0.0
C24 C 0.12127 0.13872 0.28768 0.0
N25 N 0.12396 0.18277 0.30125 0.0
C26 C 0.13222 0.1017 0.30278 0.0
C27 C 0.14833 0.15574 0.34616 0.0
C28 C 0.13681 0.19162 0.33064 0.0
C29 C 0.1465 0.1102 0.33153 0.0
H30 H 0.11107 0.13264 0.26409 0.0
H31 H 0.13885 0.22657 0.34117 0.0
C32 C 0.08716 0.33445 0.18696 0.0
N33 N 0.09296 0.39361 0.12513 0.0
C34 C 0.09002 0.3822 0.19307 0.0
C35 C 0.08719 0.31677 0.14943 0.0
C36 C 0.09295 0.41154 0.16142 0.0
C37 C 0.09014 0.34727 0.11854 0.0
C38 C 0.07753 0.19338 0.30292 0.0
C39 C 0.07048 0.1507 0.28896 0.0
C40 C 0.08164 0.19831 0.34219 0.0
C41 C 0.06803 0.11335 0.3144 0.0
C42 C 0.07903 0.16012 0.3667 0.0
N43 N 0.07235 0.11877 0.35241 0.0
C44 C 0.0738 0.15836 0.17925 0.0
C45 C 0.05171 0.22275 0.17463 0.0
C46 C 0.06219 0.13265 0.15365 0.0
N47 N 0.0684 0.20245 0.18903 0.0
C48 C 0.03972 0.19843 0.14861 0.0
C49 C 0.04499 0.15282 0.13761 0.0
H50 H 0.08717 0.14326 0.19139 0.0
H51 H 0.04795 0.2581 0.18282 0.0
C52 C 0.08078 0.38363 0.30919 0.0
N53 N 0.07471 0.33855 0.30623 0.0
C54 C 0.07126 0.41382 0.33482 0.0
C55 C 0.04961 0.35026 0.35382 0.0
C56 C 0.0594 0.32151 0.32759 0.0
C57 C 0.05554 0.39711 0.35782 0.0
H58 H 0.09325 0.39582 0.29219 0.0
H59 H 0.05511 0.28528 0.32486 0.0
O60 O 0.1137 0.21966 0.21631 0.0
O61 O 0.11771 0.29646 0.27986 0.0
O62 O 0.08483 0.30496 0.21759 0.0
O63 O 0.08037 0.2301 0.27828 0.0
H64 H 0.14729 0.24428 0.25129 0.0
H65 H 0.12227 0.15924 0.16132 0.0
H66 H 0.18085 0.21473 0.23418 0.0
H67 H 0.15633 0.13097 0.14573 0.0
H68 H 0.12151 0.32499 0.40867 0.0
H69 H 0.1562 0.31679 0.28342 0.0
H70 H 0.10247 0.30298 0.35045 0.0
H71 H 0.17431 0.33848 0.34296 0.0
H72 H 0.15776 0.31416 0.11043 0.0
H73 H 0.16502 0.40876 0.20631 0.0
H74 H 0.12998 0.06707 0.29105 0.0
H75 H 0.1593 0.16426 0.36792 0.0
H76 H 0.09014 0.39637 0.22194 0.0
H77 H 0.08523 0.27981 0.14423 0.0
H78 H 0.09527 0.44855 0.16572 0.0
H79 H 0.09031 0.33405 0.08935 0.0
H80 H 0.06703 0.14633 0.25878 0.0
H81 H 0.08695 0.23109 0.3536 0.0
H82 H 0.06271 0.08004 0.30391 0.0
H83 H 0.08231 0.16336 0.39709 0.0
H84 H 0.06663 0.09734 0.14656 0.0
H85 H 0.02675 0.21555 0.13659 0.0
H86 H 0.0762 0.44974 0.33664 0.0
H87 H 0.03786 0.33554 0.37146 0.0
Li88 Li 0.40236 0.77286 0.22247 0.0
Li89 Li 0.39639 0.71446 0.27291 0.0
Li90 Li 0.37496 0.71879 0.21636 0.0
Li91 Li 0.37437 0.77811 0.26377 0.0
C92 C 0.42237 0.68489 0.21697 0.0
N93 N 0.46028 0.64719 0.21563 0.0
C94 C 0.43821 0.70849 0.23448 0.0
C95 C 0.42582 0.64213 0.19878 0.0
C96 C 0.45726 0.68886 0.23348 0.0
C97 C 0.44509 0.62365 0.1984 0.0
C98 C 0.40074 0.8083 0.31165 0.0
C99 C 0.3953 0.81524 0.38015 0.0
N100 N 0.39486 0.8625 0.3766 0.0
C101 C 0.40021 0.85696 0.30871 0.0
C102 C 0.39822 0.78725 0.34767 0.0
C103 C 0.39722 0.88373 0.34186 0.0
C104 C 0.42441 0.85191 0.19877 0.0
N105 N 0.4216 0.80555 0.19262 0.0
C106 C 0.444 0.80685 0.13916 0.0
C107 C 0.43108 0.78285 0.16349 0.0
C108 C 0.44696 0.85494 0.14437 0.0
C109 C 0.43714 0.87745 0.17493 0.0
H110 H 0.41629 0.86936 0.2214 0.0
H111 H 0.42822 0.74629 0.15834 0.0
C112 C 0.39852 0.63067 0.31305 0.0
N113 N 0.40807 0.67188 0.30723 0.0
C114 C 0.40674 0.59721 0.33747 0.0
C115 C 0.43459 0.64918 0.34882 0.0
C116 C 0.42573 0.68181 0.32451 0.0
C117 C 0.42505 0.6063 0.35548 0.0
H118 H 0.38461 0.62372 0.29842 0.0
H119 H 0.43291 0.71503 0.31934 0.0
C120 C 0.37422 0.79572 0.16841 0.0
N121 N 0.37384 0.81337 0.0901 0.0
C122 C 0.36477 0.83557 0.15409 0.0
C123 C 0.38344 0.76479 0.14281 0.0
C124 C 0.36474 0.84388 0.11443 0.0
C125 C 0.3831 0.77435 0.10337 0.0
C126 C 0.34699 0.70545 0.27359 0.0
C127 C 0.33399 0.73388 0.25264 0.0
C128 C 0.33925 0.67057 0.29743 0.0
C129 C 0.31345 0.72685 0.25582 0.0
C130 C 0.31861 0.66458 0.29981 0.0
N131 N 0.30625 0.69261 0.27913 0.0
C132 C 0.36457 0.63502 0.18093 0.0
C133 C 0.34336 0.69795 0.16411 0.0
C134 C 0.35263 0.60383 0.16048 0.0
N135 N 0.35957 0.68086 0.18288 0.0
C136 C 0.33085 0.66789 0.14371 0.0
C137 C 0.33516 0.61989 0.14248 0.0
H138 H 0.37747 0.62247 0.19643 0.0
H139 H 0.33966 0.73457 0.16628 0.0
C140 C 0.34985 0.85692 0.27145 0.0
N141 N 0.35664 0.81852 0.29019 0.0
C142 C 0.33374 0.88185 0.28624 0.0
C143 C 0.33294 0.82925 0.34075 0.0
C144 C 0.34899 0.80512 0.32476 0.0
C145 C 0.32467 0.86699 0.3206 0.0
H146 H 0.35625 0.86658 0.24401 0.0
H147 H 0.35456 0.774 0.3387 0.0
O148 O 0.4035 0.703 0.2181 0.0
O149 O 0.40327 0.78139 0.27941 0.0
O150 O 0.3745 0.78766 0.20731 0.0
O151 O 0.36719 0.71184 0.27136 0.0
H152 H 0.43585 0.74157 0.24876 0.0
H153 H 0.41375 0.62339 0.18509 0.0
H154 H 0.46964 0.70672 0.24696 0.0
H155 H 0.44797 0.59057 0.18444 0.0
H156 H 0.39327 0.79936 0.40815 0.0
H157 H 0.40178 0.87394 0.28111 0.0
H158 H 0.39817 0.7497 0.35052 0.0
H159 H 0.3967 0.9214 0.33994 0.0
H160 H 0.45139 0.78801 0.11618 0.0
H161 H 0.4387 0.91466 0.17953 0.0
H162 H 0.39907 0.56432 0.34169 0.0
H163 H 0.44864 0.65755 0.36258 0.0
H164 H 0.35755 0.85991 0.17341 0.0
H165 H 0.3908 0.73371 0.15313 0.0
H166 H 0.3575 0.87463 0.103 0.0
H167 H 0.39021 0.75074 0.08329 0.0
H168 H 0.33964 0.76127 0.23422 0.0
H169 H 0.34908 0.64841 0.31403 0.0
H170 H 0.30324 0.74865 0.23979 0.0
H171 H 0.31242 0.63769 0.31814 0.0
H172 H 0.35672 0.56728 0.15983 0.0
H173 H 0.31742 0.68183 0.13081 0.0
H174 H 0.32784 0.9111 0.2701 0.0
H175 H 0.3262 0.81653 0.36711 0.0
Li176 Li 0.87321 0.7762 0.7355 0.0
Li177 Li 0.9003 0.77827 0.78225 0.0
Li178 Li 0.90267 0.73145 0.72461 0.0
Li179 Li 0.88043 0.70935 0.77702 0.0
C180 C 0.91514 0.81292 0.70349 0.0
N181 N 0.94589 0.83317 0.65324 0.0
C182 C 0.93422 0.8223 0.71766 0.0
C183 C 0.91166 0.81408 0.66381 0.0
C184 C 0.94958 0.83245 0.69177 0.0
C185 C 0.92742 0.82429 0.63887 0.0
C186 C 0.86823 0.8026 0.82121 0.0
C187 C 0.8714 0.82468 0.88798 0.0
N188 N 0.8634 0.86711 0.87965 0.0
C189 C 0.85995 0.84633 0.81332 0.0
C190 C 0.87391 0.79154 0.85886 0.0
C191 C 0.85765 0.87848 0.84327 0.0
C192 C 0.83336 0.79513 0.72635 0.0
N193 N 0.85156 0.80921 0.71383 0.0
C194 C 0.83672 0.86495 0.67151 0.0
C195 C 0.85362 0.84352 0.6871 0.0
C196 C 0.81763 0.85056 0.68351 0.0
C197 C 0.81616 0.81485 0.71115 0.0
H198 H 0.83226 0.76785 0.74779 0.0
H199 H 0.86834 0.85419 0.67792 0.0
C200 C 0.92815 0.79836 0.8406 0.0
N201 N 0.91447 0.81728 0.81639 0.0
C202 C 0.93851 0.82672 0.86636 0.0
C203 C 0.92058 0.89349 0.84148 0.0
C204 C 0.91074 0.86389 0.8159 0.0
C205 C 0.93465 0.87486 0.86711 0.0
H206 H 0.93103 0.76128 0.83988 0.0
H207 H 0.90005 0.87796 0.79571 0.0
C208 C 0.85867 0.70338 0.69831 0.0
N209 N 0.82474 0.69468 0.65367 0.0
C210 C 0.84228 0.6781 0.71196 0.0
C211 C 0.85779 0.72412 0.66187 0.0
C212 C 0.82528 0.67409 0.68895 0.0
C213 C 0.8405 0.7194 0.63979 0.0
C214 C 0.91444 0.67314 0.79645 0.0
C215 C 0.9211 0.63449 0.77549 0.0
C216 C 0.91173 0.66937 0.83626 0.0
C217 C 0.92489 0.59261 0.79476 0.0
C218 C 0.91564 0.62686 0.85445 0.0
N219 N 0.92209 0.58969 0.8335 0.0
C220 C 0.9402 0.70513 0.69524 0.0
C221 C 0.91289 0.6912 0.6535 0.0
C222 C 0.95327 0.68409 0.6692 0.0
N223 N 0.92041 0.70763 0.68714 0.0
C224 C 0.92539 0.67041 0.62651 0.0
C225 C 0.94581 0.66567 0.63455 0.0
H226 H 0.9457 0.71821 0.72247 0.0
H227 H 0.89711 0.6933 0.64792 0.0
C228 C 0.8544 0.66936 0.83096 0.0
N229 N 0.86779 0.65925 0.80281 0.0
C230 C 0.84163 0.63479 0.84481 0.0
C231 C 0.85754 0.57951 0.80205 0.0
C232 C 0.86993 0.61521 0.78888 0.0
C233 C 0.84262 0.58958 0.82926 0.0
H234 H 0.85269 0.70489 0.84081 0.0
H235 H 0.88033 0.6085 0.76574 0.0
O236 O 0.90005 0.80168 0.72829 0.0
O237 O 0.87093 0.77093 0.79218 0.0
O238 O 0.87536 0.70832 0.72068 0.0
O239 O 0.91041 0.71431 0.77808 0.0
H240 H 0.9372 0.82126 0.74827 0.0
H241 H 0.897 0.80656 0.65238 0.0
H242 H 0.96445 0.83956 0.7023 0.0
H243 H 0.92498 0.825 0.60807 0.0
H244 H 0.87587 0.81672 0.91719 0.0
H245 H 0.85555 0.85557 0.78435 0.0
H246 H 0.88039 0.7579 0.86542 0.0
H247 H 0.85136 0.91254 0.83756 0.0
H248 H 0.8386 0.89276 0.65071 0.0
H249 H 0.80186 0.80176 0.72077 0.0
H250 H 0.94924 0.81114 0.88579 0.0
H251 H 0.91743 0.93056 0.84088 0.0
H252 H 0.84254 0.66212 0.74013 0.0
H253 H 0.87012 0.74465 0.6511 0.0
H254 H 0.81248 0.65476 0.69923 0.0
H255 H 0.83956 0.73565 0.61172 0.0
H256 H 0.92308 0.63653 0.74463 0.0
H257 H 0.90643 0.6988 0.85288 0.0
H258 H 0.92997 0.56237 0.77889 0.0
H259 H 0.91351 0.6234 0.88521 0.0
H260 H 0.96886 0.68076 0.67677 0.0
H261 H 0.91905 0.65752 0.59987 0.0
H262 H 0.83015 0.64434 0.86529 0.0
H263 H 0.85889 0.54504 0.78949 0.0
Li264 Li 0.60578 0.21579 0.7177 0.0
Li265 Li 0.58183 0.21993 0.76952 0.0
Li266 Li 0.57941 0.27369 0.71586 0.0
Li267 Li 0.60496 0.28041 0.76417 0.0
C268 C 0.57211 0.18994 0.67841 0.0
N269 N 0.56242 0.16068 0.60492 0.0
C270 C 0.55831 0.15399 0.67306 0.0
C271 C 0.58103 0.21096 0.64637 0.0
C272 C 0.5536 0.1397 0.63567 0.0
C273 C 0.57592 0.19569 0.60946 0.0
C274 C 0.61332 0.18279 0.80309 0.0
C275 C 0.60884 0.16127 0.86978 0.0
N276 N 0.61664 0.11846 0.86213 0.0
C277 C 0.62155 0.1388 0.79606 0.0
C278 C 0.60718 0.19435 0.84041 0.0
C279 C 0.62302 0.1067 0.82623 0.0
C280 C 0.63568 0.18583 0.66257 0.0
N281 N 0.62083 0.17296 0.68708 0.0
C282 C 0.62716 0.09238 0.67441 0.0
C283 C 0.6159 0.12734 0.69192 0.0
C284 C 0.64376 0.10451 0.65176 0.0
C285 C 0.64752 0.15204 0.64486 0.0
H286 H 0.63882 0.22214 0.65737 0.0
H287 H 0.60361 0.11809 0.71062 0.0
C288 C 0.55668 0.20383 0.8328 0.0
N289 N 0.56685 0.18285 0.80374 0.0
C290 C 0.54732 0.1769 0.86089 0.0
C291 C 0.55841 0.10733 0.82759 0.0
C292 C 0.5676 0.13567 0.80015 0.0
C293 C 0.54839 0.12801 0.85877 0.0
H294 H 0.55625 0.24146 0.83463 0.0
H295 H 0.57589 0.12016 0.77668 0.0
C296 C 0.62718 0.29686 0.6974 0.0
N297 N 0.66565 0.32439 0.67993 0.0
C298 C 0.64328 0.27988 0.71888 0.0
C299 C 0.63071 0.32781 0.66703 0.0
C300 C 0.66259 0.29428 0.70962 0.0
C301 C 0.65026 0.34124 0.6586 0.0
C302 C 0.57568 0.32921 0.79016 0.0
C303 C 0.57205 0.37044 0.76983 0.0
C304 C 0.5797 0.33125 0.82964 0.0
C305 C 0.57268 0.41311 0.78929 0.0
C306 C 0.58022 0.3746 0.84805 0.0
N307 N 0.57674 0.4143 0.82766 0.0
C308 C 0.54292 0.28649 0.67903 0.0
C309 C 0.56811 0.34006 0.66033 0.0
C310 C 0.52974 0.30535 0.65222 0.0
N311 N 0.5617 0.30376 0.68219 0.0
C312 C 0.55538 0.36027 0.63337 0.0
C313 C 0.53598 0.34254 0.62874 0.0
H314 H 0.53836 0.25733 0.69678 0.0
H315 H 0.58313 0.35307 0.66375 0.0
C316 C 0.63294 0.30758 0.82065 0.0
N317 N 0.6219 0.3231 0.79048 0.0
C318 C 0.64858 0.33454 0.83489 0.0
C319 C 0.64058 0.39391 0.78786 0.0
C320 C 0.62493 0.36602 0.77484 0.0
C321 C 0.65303 0.37739 0.81736 0.0
H322 H 0.63054 0.27303 0.832 0.0
H323 H 0.61606 0.37717 0.75052 0.0
O324 O 0.57683 0.20415 0.71493 0.0
O325 O 0.61149 0.21447 0.77372 0.0
O326 O 0.60801 0.28494 0.70681 0.0
O327 O 0.57547 0.28716 0.77144 0.0
H328 H 0.55131 0.13733 0.69759 0.0
H329 H 0.59178 0.23876 0.64986 0.0
H330 H 0.54293 0.11192 0.63111 0.0
H331 H 0.58269 0.21167 0.58442 0.0
H332 H 0.60386 0.16959 0.89863 0.0
H333 H 0.62689 0.12956 0.76773 0.0
H334 H 0.60082 0.22822 0.84647 0.0
H335 H 0.62928 0.07246 0.8211 0.0
H336 H 0.62331 0.05622 0.67966 0.0
H337 H 0.66009 0.16323 0.62759 0.0
H338 H 0.53945 0.19411 0.88414 0.0
H339 H 0.55968 0.06977 0.82512 0.0
H340 H 0.64096 0.25591 0.74247 0.0
H341 H 0.61847 0.34144 0.65016 0.0
H342 H 0.67515 0.28153 0.72608 0.0
H343 H 0.65318 0.36518 0.63517 0.0
H344 H 0.56891 0.36962 0.73932 0.0
H345 H 0.5826 0.29978 0.84587 0.0
H346 H 0.56998 0.4453 0.77387 0.0
H347 H 0.58344 0.37669 0.87854 0.0
H348 H 0.51502 0.29023 0.64931 0.0
H349 H 0.56068 0.38946 0.61639 0.0
H350 H 0.65804 0.32034 0.85729 0.0
H351 H 0.64359 0.42686 0.77368 0.0
C352 C 0.28997 0.89063 0.30511 0.0
C353 C 0.30526 0.88667 0.33247 0.0
C354 C 0.2712 0.90662 0.31588 0.0
C355 C 0.24556 0.981 0.38312 0.0
H356 H 0.1989 0.92039 0.33997 0.0
C357 C 0.16863 0.07111 0.38065 0.0
C358 C 0.16088 0.07324 0.343 0.0
C359 C 0.18415 0.04029 0.38954 0.0
C360 C 0.21175 0.93748 0.35256 0.0
H361 H 0.31301 0.89627 0.39254 0.0
H362 H 0.27995 0.92568 0.41138 0.0
H363 H 0.23123 0.88161 0.33665 0.0
H364 H 0.16312 0.04348 0.28556 0.0
H365 H 0.18958 0.98957 0.30125 0.0
H366 H 0.22629 0.0382 0.39687 0.0
C367 C 0.28261 0.91591 0.38167 0.0
C368 C 0.23022 0.91533 0.35066 0.0
C369 C 0.30144 0.89918 0.37094 0.0
C370 C 0.16831 0.04226 0.31507 0.0
C371 C 0.18359 0.01127 0.32405 0.0
C372 C 0.22705 0.00331 0.38493 0.0
C373 C 0.2673 0.9193 0.35421 0.0
C374 C 0.24742 0.93782 0.36434 0.0
C375 C 0.19198 0.01065 0.36109 0.0
C376 C 0.21016 0.98262 0.36805 0.0
H377 H 0.29241 0.88052 0.2754 0.0
H378 H 0.25976 0.90962 0.294 0.0
H379 H 0.25863 -0.00093 0.39382 0.0
H380 H 0.16305 0.09397 0.40303 0.0
H381 H 0.19029 0.0403 0.41839 0.0
C382 C 0.19992 0.37805 0.15894 0.0
C383 C 0.18197 0.3828 0.13874 0.0
C384 C 0.21742 0.39736 0.14442 0.0
C385 C 0.23496 0.49552 0.09054 0.0
H386 H 0.28575 0.43191 0.09999 0.0
C387 C 0.30892 0.59772 0.09375 0.0
C388 C 0.32049 0.58634 0.12624 0.0
C389 C 0.29341 0.56838 0.08186 0.0
C390 C 0.27169 0.4501 0.09686 0.0
H391 H 0.168 0.4103 0.08737 0.0
H392 H 0.19883 0.44588 0.06219 0.0
H393 H 0.25483 0.38717 0.10364 0.0
H394 H 0.32504 0.53445 0.17098 0.0
H395 H 0.29839 0.48359 0.15015 0.0
H396 H 0.25172 0.5589 0.08664 0.0
C397 C 0.19931 0.42657 0.089 0.0
C398 C 0.25403 0.42449 0.09883 0.0
C399 C 0.18178 0.40635 0.10329 0.0
C400 C 0.31678 0.54399 0.14538 0.0
C401 C 0.30143 0.51468 0.13339 0.0
C402 C 0.25265 0.52125 0.08881 0.0
C403 C 0.21725 0.42238 0.10962 0.0
C404 C 0.23552 0.44726 0.09748 0.0
C405 C 0.28928 0.52697 0.10205 0.0
C406 C 0.27115 0.49901 0.09384 0.0
H407 H 0.20035 0.35982 0.18629 0.0
H408 H 0.23096 0.39426 0.16122 0.0
H409 H 0.22086 0.51391 0.08961 0.0
H410 H 0.31157 0.62977 0.07802 0.0
H411 H 0.28436 0.57859 0.05743 0.0
C412 C 0.6689 0.07279 0.60437 0.0
C413 C 0.65828 0.06839 0.63918 0.0
C414 C 0.68463 0.04239 0.5958 0.0
C415 C 0.70863 0.93165 0.62728 0.0
H416 H 0.75825 -0.00389 0.60545 0.0
C417 C 0.7826 0.87883 0.69215 0.0
C418 C 0.79925 0.87268 0.66804 0.0
C419 C 0.76496 0.89737 0.67775 0.0
C420 C 0.74446 0.97743 0.61064 0.0
H421 H 0.65556 0.02743 0.69158 0.0
H422 H 0.68249 0.97465 0.67651 0.0
H423 H 0.72658 0.03739 0.59813 0.0
H424 H 0.8104 0.88251 0.60981 0.0
H425 H 0.77953 0.91728 0.58514 0.0
H426 H 0.72666 0.87293 0.64272 0.0
C427 C 0.67859 0.00104 0.65548 0.0
C428 C 0.72632 0.00093 0.60637 0.0
C429 C 0.66305 0.03144 0.66414 0.0
C430 C 0.79794 0.88705 0.62929 0.0
C431 C 0.78028 0.90654 0.61503 0.0
C432 C 0.72672 0.9084 0.63188 0.0
C433 C 0.68989 0.00681 0.62171 0.0
C434 C 0.7083 0.9789 0.61643 0.0
C435 C 0.76359 0.91113 0.6391 0.0
C436 C 0.74478 0.93177 0.62521 0.0
H437 H 0.66542 0.10043 0.5842 0.0
H438 H 0.69298 0.04742 0.5694 0.0
H439 H 0.69496 0.91348 0.63446 0.0
H440 H 0.78318 0.86964 0.72238 0.0
H441 H 0.7524 0.90171 0.6971 0.0
C442 C 0.81763 0.55189 0.87361 0.0
C443 C 0.82634 0.55574 0.83687 0.0
C444 C 0.80025 0.52566 0.87889 0.0
C445 C 0.767 0.43975 0.83017 0.0
H446 H 0.72478 0.50395 0.88528 0.0
C447 C 0.68497 0.41212 0.79502 0.0
C448 C 0.67222 0.40065 0.82567 0.0
C449 C 0.70427 0.42779 0.80221 0.0
C450 C 0.73652 0.48535 0.8703 0.0
H451 H 0.82388 0.53401 0.77715 0.0
H452 H 0.79385 0.48865 0.78626 0.0
H453 H 0.7589 0.53382 0.88845 0.0
H454 H 0.66929 0.39809 0.88782 0.0
H455 H 0.70318 0.42696 0.90044 0.0
H456 H 0.74437 0.39292 0.8103 0.0
C457 C 0.80055 0.50497 0.81125 0.0
C458 C 0.75606 0.50221 0.87224 0.0
C459 C 0.81786 0.53104 0.80601 0.0
C460 C 0.67887 0.40682 0.86374 0.0
C461 C 0.69817 0.42324 0.87094 0.0
C462 C 0.74748 0.42331 0.82788 0.0
C463 C 0.79126 0.50283 0.84752 0.0
C464 C 0.7714 0.48039 0.85121 0.0
C465 C 0.71114 0.43273 0.84016 0.0
C466 C 0.73201 0.44676 0.84701 0.0
H467 H 0.82395 0.5702 0.89802 0.0
H468 H 0.79358 0.52417 0.90729 0.0
H469 H 0.77854 0.42153 0.81434 0.0
H470 H 0.68035 0.407 0.76542 0.0
H471 H 0.71396 0.43545 0.77803 0.0
C472 C 0.04231 0.09853 0.08126 0.0
C473 C 0.03292 0.12666 0.10904 0.0
C474 C 0.03107 0.07344 0.05459 0.0
C475 C 0.98047 0.02689 0.03772 0.0
H476 H -0.00014 0.01324 0.933 0.0
C477 C 0.93496 0.93876 0.91624 0.0
C478 C 0.94538 0.90555 0.89431 0.0
C479 C 0.94511 0.96745 0.94217 0.0
C480 C -0.00566 0.0166 0.96221 0.0
H481 H 0.00429 0.15052 0.13048 0.0
H482 H 0.98466 0.10787 0.08302 0.0
H483 H 0.0184 0.06128 0.97854 0.0
H484 H 0.97451 0.87659 0.88175 0.0
H485 H 0.99229 0.92693 0.92699 0.0
H486 H 0.95629 0.98242 0.02101 0.0
C487 C 0.00074 0.1046 0.08235 0.0
C488 C 0.00496 0.04397 0.98833 0.0
C489 C 0.012 0.1295 0.10924 0.0
C490 C 0.96612 0.90171 0.89854 0.0
C491 C 0.9763 0.93072 0.92412 0.0
C492 C 0.96975 -0.00016 0.01144 0.0
C493 C 0.01015 0.07619 0.05477 0.0
C494 C -0.00171 0.049 0.02652 0.0
C495 C 0.96588 0.96377 0.94622 0.0
C496 C 0.97671 -0.00594 0.97359 0.0
H497 H 0.05841 0.09607 0.07989 0.0
H498 H 0.0388 0.05141 0.0341 0.0
H499 H 0.97506 0.02949 0.06704 0.0
H500 H 0.91893 0.94212 0.91368 0.0
H501 H 0.93677 0.99284 0.95875 0.0
C502 C 0.52859 0.05858 0.88018 0.0
C503 C 0.5395 0.09887 0.88947 0.0
C504 C 0.52012 0.03135 0.90924 0.0
C505 C 0.50355 0.03726 0.01021 0.0
H506 H 0.50367 0.90222 0.00228 0.0
C507 C 0.472 0.91772 0.12971 0.0
C508 C 0.4594 0.88173 0.11686 0.0
C509 C 0.48328 0.94353 0.10339 0.0
C510 C 0.50346 0.93991 0.00475 0.0
H511 H 0.5506 0.1416 0.93638 0.0
H512 H 0.53585 0.09397 0.98715 0.0
H513 H 0.52065 0.9487 0.95335 0.0
H514 H 0.44852 0.84514 0.06627 0.0
H515 H 0.46833 0.88977 0.02059 0.0
H516 H 0.48623 0.0284 0.06149 0.0
C517 C 0.53353 0.08389 0.95742 0.0
C518 C 0.51313 0.96651 0.97674 0.0
C519 C 0.54195 0.11117 0.92836 0.0
C520 C 0.4584 0.87195 0.07722 0.0
C521 C 0.46972 0.89755 0.05101 0.0
C522 C 0.49393 0.01064 0.0383 0.0
C523 C 0.52246 0.0438 0.94816 0.0
C524 C 0.51307 0.01548 0.97892 0.0
C525 C 0.48221 0.93369 0.06379 0.0
C526 C 0.49359 0.96175 0.03557 0.0
H527 H 0.5263 0.04856 0.85042 0.0
H528 H 0.51141 0.00105 0.90116 0.0
H529 H 0.50303 0.07495 0.01243 0.0
H530 H 0.47326 0.92573 0.1601 0.0
H531 H 0.49293 0.97098 0.11403 0.0
C532 C 0.97862 0.65375 0.60072 0.0
C533 C 0.95892 0.63936 0.60785 0.0
C534 C 0.99083 0.62826 0.57574 0.0
C535 C -0.00509 0.51188 0.52945 0.0
H536 H 0.02859 0.57634 0.45574 0.0
C537 C 0.02508 0.42362 0.39348 0.0
C538 C 0.04565 0.42776 0.38651 0.0
C539 C 0.01594 0.45035 0.42199 0.0
C540 C 0.01939 0.55799 0.47647 0.0
H541 H 0.93677 0.58632 0.59494 0.0
H542 H 0.95763 0.54334 0.55041 0.0
H543 H 0.00999 0.62133 0.50367 0.0
H544 H 0.07267 0.46395 0.40382 0.0
H545 H 0.05642 0.51182 0.45291 0.0
H546 H 0.00375 0.44875 0.50128 0.0
C547 C 0.96385 0.57375 0.56453 0.0
C548 C 0.00881 0.58363 0.50398 0.0
C549 C 0.95174 0.59893 0.5896 0.0
C550 C 0.05675 0.46032 0.40803 0.0
C551 C 0.04752 0.48755 0.43626 0.0
C552 C 0.00527 0.48641 0.50173 0.0
C553 C 0.98355 0.58794 0.55738 0.0
C554 C -0.00382 0.56086 0.53034 0.0
C555 C 0.0271 0.48224 0.44379 0.0
C556 C 0.01733 0.50929 0.47466 0.0
H557 H 0.98455 0.68492 0.61415 0.0
H558 H 0.006 0.63991 0.57106 0.0
H559 H 0.98573 0.49315 0.54995 0.0
H560 H 0.01599 0.3997 0.3769 0.0
H561 H 8e-05 0.44626 0.4269 0.0
C562 C 0.42282 0.54931 0.40988 0.0
C563 C 0.4342 0.5713 0.38115 0.0
C564 C 0.43175 0.51792 0.43531 0.0
C565 C 0.47556 0.44266 0.44832 0.0
H566 H 0.46793 0.46666 0.5573 0.0
C567 C 0.52991 0.37564 0.56304 0.0
C568 C 0.52245 0.36234 0.59924 0.0
C569 C 0.51735 0.39537 0.53553 0.0
C570 C 0.46993 0.45878 0.52703 0.0
H571 H 0.46356 0.57661 0.35541 0.0
H572 H 0.47919 0.52169 0.39985 0.0
H573 H 0.44882 0.51085 0.51013 0.0
H574 H 0.49584 0.35868 0.63472 0.0
H575 H 0.47379 0.39191 0.58621 0.0
H576 H 0.49679 0.3909 0.46507 0.0
C577 C 0.46339 0.5287 0.4027 0.0
C578 C 0.459 0.48418 0.50004 0.0
C579 C 0.45452 0.56043 0.37758 0.0
C580 C 0.50204 0.36828 0.60701 0.0
C581 C 0.48944 0.38777 0.57937 0.0
C582 C 0.48637 0.41697 0.4753 0.0
C583 C 0.45215 0.50761 0.43208 0.0
C584 C 0.46204 0.47703 0.46047 0.0
C585 C 0.497 0.40193 0.54345 0.0
C586 C 0.48401 0.4255 0.51493 0.0
H587 H 0.40713 0.55731 0.41329 0.0
H588 H 0.42277 0.50192 0.45764 0.0
H589 H 0.47795 0.4361 0.41793 0.0
H590 H 0.54549 0.37082 0.55588 0.0
H591 H 0.52373 0.40645 0.50836 0.0
loop_
_geom_bond_atom_site_label_1
_geom_bond_atom_site_label_2
_geom_bond_distance
_geom_bond_site_symmetry_2
_ccdc_geom_bond_type
Li0 N17 1.990 . S
Li0 O60 1.956 . S
Li0 O61 1.970 . S
Li0 O62 1.961 . S
Li1 N25 1.990 . S
Li1 O60 1.970 . S
Li1 O61 1.956 . S
Li1 O63 1.961 . S
Li2 N47 1.990 . S
Li2 O60 1.961 . S
Li2 O62 1.956 . S
Li2 O63 1.970 . S
Li3 N53 1.990 . S
Li3 O61 1.961 . S
Li3 O62 1.970 . S
Li3 O63 1.956 . S
C4 C6 1.348 . S
C4 C7 1.356 . S
C4 O60 1.325 . S
N5 C8 1.314 . S
N5 C9 1.279 . S
C6 C4 1.348 . S
C6 C8 1.353 . S
C6 H64 0.929 . S
C7 C4 1.356 . S
C7 C9 1.358 . S
C7 H65 0.930 . S
C8 N5 1.314 . S
C8 C6 1.353 . S
C8 H66 0.930 . S
C9 N5 1.279 . S
C9 C7 1.358 . S
C9 H67 0.930 . S
C10 C13 1.348 . S
C10 C14 1.356 . S
C10 O61 1.325 . S
C11 N12 1.279 . S
C11 C14 1.358 . S
C11 H68 0.930 . S
N12 C11 1.279 . S
N12 C15 1.314 . S
C13 C10 1.348 . S
C13 C15 1.353 . S
C13 H69 0.929 . S
C14 C10 1.356 . S
C14 C11 1.358 . S
C14 H70 0.930 . S
C15 N12 1.314 . S
C15 C13 1.353 . S
C15 H71 0.930 . S
C16 N17 1.314 . S
C16 C21 1.353 . S
C16 H22 0.930 . S
N17 Li0 1.990 . S
N17 C16 1.314 . S
N17 C19 1.279 . S
C18 C19 1.358 . S
C18 C20 1.356 . S
C18 H72 0.930 . S
C19 N17 1.279 . S
C19 C18 1.358 . S
C19 H23 0.930 . S
C20 C18 1.356 . S
C20 C21 1.348 . S
C21 C16 1.353 . S
C21 C20 1.348 . S
C21 H73 0.929 . S
H22 C16 0.930 . S
H23 C19 0.930 . S
C24 N25 1.314 . S
C24 C26 1.353 . S
C24 H30 0.930 . S
N25 Li1 1.990 . S
N25 C24 1.314 . S
N25 C28 1.279 . S
C26 C24 1.353 . S
C26 C29 1.348 . S
C26 H74 0.929 . S
C27 C28 1.358 . S
C27 C29 1.356 . S
C27 H75 0.930 . S
C28 N25 1.279 . S
C28 C27 1.358 . S
C28 H31 0.930 . S
C29 C26 1.348 . S
C29 C27 1.356 . S
H30 C24 0.930 . S
H31 C28 0.930 . S
C32 C34 1.348 . S
C32 C35 1.356 . S
C32 O62 1.325 . S
N33 C36 1.314 . S
N33 C37 1.279 . S
C34 C32 1.348 . S
C34 C36 1.353 . S
C34 H76 0.929 . S
C35 C32 1.356 . S
C35 C37 1.358 . S
C35 H77 0.930 . S
C36 N33 1.314 . S
C36 C34 1.353 . S
C36 H78 0.930 . S
C37 N33 1.279 . S
C37 C35 1.358 . S
C37 H79 0.930 . S
C38 C39 1.348 . S
C38 C40 1.356 . S
C38 O63 1.325 . S
C39 C38 1.348 . S
C39 C41 1.353 . S
C39 H80 0.929 . S
C40 C38 1.356 . S
C40 C42 1.358 . S
C40 H81 0.930 . S
C41 C39 1.353 . S
C41 N43 1.314 . S
C41 H82 0.930 . S
C42 C40 1.358 . S
C42 N43 1.279 . S
C42 H83 0.930 . S
N43 C41 1.314 . S
N43 C42 1.279 . S
C44 C46 1.353 . S
C44 N47 1.314 . S
C44 H50 0.930 . S
C45 N47 1.279 . S
C45 C48 1.358 . S
C45 H51 0.930 . S
C46 C44 1.353 . S
C46 C49 1.348 . S
C46 H84 0.929 . S
N47 Li2 1.990 . S
N47 C44 1.314 . S
N47 C45 1.279 . S
C48 C45 1.358 . S
C48 C49 1.356 . S
C48 H85 0.930 . S
C49 C46 1.348 . S
C49 C48 1.356 . S
H50 C44 0.930 . S
H51 C45 0.930 . S
C52 N53 1.314 . S
C52 C54 1.353 . S
C52 H58 0.930 . S
N53 Li3 1.990 . S
N53 C52 1.314 . S
N53 C56 1.279 . S
C54 C52 1.353 . S
C54 C57 1.348 . S
C54 H86 0.929 . S
C55 C56 1.358 . S
C55 C57 1.356 . S
C55 H87 0.930 . S
C56 N53 1.279 . S
C56 C55 1.358 . S
C56 H59 0.930 . S
C57 C54 1.348 . S
C57 C55 1.356 . S
H58 C52 0.930 . S
H59 C56 0.930 . S
O60 Li0 1.956 . S
O60 Li1 1.970 . S
O60 Li2 1.961 . S
O60 C4 1.325 . S
O61 Li0 1.970 . S
O61 Li1 1.956 . S
O61 Li3 1.961 . S
O61 C10 1.325 . S
O62 Li0 1.961 . S
O62 Li2 1.956 . S
O62 Li3 1.970 . S
O62 C32 1.325 . S
O63 Li1 1.961 . S
O63 Li2 1.970 . S
O63 Li3 1.956 . S
O63 C38 1.325 . S
H64 C6 0.929 . S
H65 C7 0.930 . S
H66 C8 0.930 . S
H67 C9 0.930 . S
H68 C11 0.930 . S
H69 C13 0.929 . S
H70 C14 0.930 . S
H71 C15 0.930 . S
H72 C18 0.930 . S
H73 C21 0.929 . S
H74 C26 0.929 . S
H75 C27 0.930 . S
H76 C34 0.929 . S
H77 C35 0.930 . S
H78 C36 0.930 . S
H79 C37 0.930 . S
H80 C39 0.929 . S
H81 C40 0.930 . S
H82 C41 0.930 . S
H83 C42 0.930 . S
H84 C46 0.929 . S
H85 C48 0.930 . S
H86 C54 0.929 . S
H87 C55 0.930 . S
Li88 N105 1.990 . S
Li88 O148 1.956 . S
Li88 O149 1.970 . S
Li88 O150 1.961 . S
Li89 N113 1.990 . S
Li89 O148 1.970 . S
Li89 O149 1.956 . S
Li89 O151 1.961 . S
Li90 N135 1.990 . S
Li90 O148 1.961 . S
Li90 O150 1.956 . S
Li90 O151 1.970 . S
Li91 N141 1.990 . S
Li91 O149 1.961 . S
Li91 O150 1.970 . S
Li91 O151 1.956 . S
C92 C94 1.348 . S
C92 C95 1.356 . S
C92 O148 1.325 . S
N93 C96 1.314 . S
N93 C97 1.279 . S
C94 C92 1.348 . S
C94 C96 1.353 . S
C94 H152 0.929 . S
C95 C92 1.356 . S
C95 C97 1.358 . S
C95 H153 0.930 . S
C96 N93 1.314 . S
C96 C94 1.353 . S
C96 H154 0.930 . S
C97 N93 1.279 . S
C97 C95 1.358 . S
C97 H155 0.930 . S
C98 C101 1.348 . S
C98 C102 1.356 . S
C98 O149 1.325 . S
C99 N100 1.279 . S
C99 C102 1.358 . S
C99 H156 0.930 . S
N100 C99 1.279 . S
N100 C103 1.314 . S
C101 C98 1.348 . S
C101 C103 1.353 . S
C101 H157 0.929 . S
C102 C98 1.356 . S
C102 C99 1.358 . S
C102 H158 0.930 . S
C103 N100 1.314 . S
C103 C101 1.353 . S
C103 H159 0.930 . S
C104 N105 1.314 . S
C104 C109 1.353 . S
C104 H110 0.930 . S
N105 Li88 1.990 . S
N105 C104 1.314 . S
N105 C107 1.279 . S
C106 C107 1.358 . S
C106 C108 1.356 . S
C106 H160 0.930 . S
C107 N105 1.279 . S
C107 C106 1.358 . S
C107 H111 0.930 . S
C108 C106 1.356 . S
C108 C109 1.348 . S
C109 C104 1.353 . S
C109 C108 1.348 . S
C109 H161 0.929 . S
H110 C104 0.930 . S
H111 C107 0.930 . S
C112 N113 1.314 . S
C112 C114 1.353 . S
C112 H118 0.930 . S
N113 Li89 1.990 . S
N113 C112 1.314 . S
N113 C116 1.279 . S
C114 C112 1.353 . S
C114 C117 1.348 . S
C114 H162 0.929 . S
C115 C116 1.358 . S
C115 C117 1.356 . S
C115 H163 0.930 . S
C116 N113 1.279 . S
C116 C115 1.358 . S
C116 H119 0.930 . S
C117 C114 1.348 . S
C117 C115 1.356 . S
H118 C112 0.930 . S
H119 C116 0.930 . S
C120 C122 1.348 . S
C120 C123 1.356 . S
C120 O150 1.325 . S
N121 C124 1.314 . S
N121 C125 1.279 . S
C122 C120 1.348 . S
C122 C124 1.353 . S
C122 H164 0.929 . S
C123 C120 1.356 . S
C123 C125 1.358 . S
C123 H165 0.930 . S
C124 N121 1.314 . S
C124 C122 1.353 . S
C124 H166 0.930 . S
C125 N121 1.279 . S
C125 C123 1.358 . S
C125 H167 0.930 . S
C126 C127 1.348 . S
C126 C128 1.356 . S
C126 O151 1.325 . S
C127 C126 1.348 . S
C127 C129 1.353 . S
C127 H168 0.929 . S
C128 C126 1.356 . S
C128 C130 1.358 . S
C128 H169 0.930 . S
C129 C127 1.353 . S
C129 N131 1.314 . S
C129 H170 0.930 . S
C130 C128 1.358 . S
C130 N131 1.279 . S
C130 H171 0.930 . S
N131 C129 1.314 . S
N131 C130 1.279 . S
C132 C134 1.353 . S
C132 N135 1.314 . S
C132 H138 0.930 . S
C133 N135 1.279 . S
C133 C136 1.358 . S
C133 H139 0.930 . S
C134 C132 1.353 . S
C134 C137 1.348 . S
C134 H172 0.929 . S
N135 Li90 1.990 . S
N135 C132 1.314 . S
N135 C133 1.279 . S
C136 C133 1.358 . S
C136 C137 1.356 . S
C136 H173 0.930 . S
C137 C134 1.348 . S
C137 C136 1.356 . S
H138 C132 0.930 . S
H139 C133 0.930 . S
C140 N141 1.314 . S
C140 C142 1.353 . S
C140 H146 0.930 . S
N141 Li91 1.990 . S
N141 C140 1.314 . S
N141 C144 1.279 . S
C142 C140 1.353 . S
C142 C145 1.348 . S
C142 H174 0.929 . S
C143 C144 1.358 . S
C143 C145 1.356 . S
C143 H175 0.930 . S
C144 N141 1.279 . S
C144 C143 1.358 . S
C144 H147 0.930 . S
C145 C142 1.348 . S
C145 C143 1.356 . S
H146 C140 0.930 . S
H147 C144 0.930 . S
O148 Li88 1.956 . S
O148 Li89 1.970 . S
O148 Li90 1.961 . S
O148 C92 1.325 . S
O149 Li88 1.970 . S
O149 Li89 1.956 . S
O149 Li91 1.961 . S
O149 C98 1.325 . S
O150 Li88 1.961 . S
O150 Li90 1.956 . S
O150 Li91 1.970 . S
O150 C120 1.325 . S
O151 Li89 1.961 . S
O151 Li90 1.970 . S
O151 Li91 1.956 . S
O151 C126 1.325 . S
H152 C94 0.929 . S
H153 C95 0.930 . S
H154 C96 0.930 . S
H155 C97 0.930 . S
H156 C99 0.930 . S
H157 C101 0.929 . S
H158 C102 0.930 . S
H159 C103 0.930 . S
H160 C106 0.930 . S
H161 C109 0.929 . S
H162 C114 0.929 . S
H163 C115 0.930 . S
H164 C122 0.929 . S
H165 C123 0.930 . S
H166 C124 0.930 . S
H167 C125 0.930 . S
H168 C127 0.929 . S
H169 C128 0.930 . S
H170 C129 0.930 . S
H171 C130 0.930 . S
H172 C134 0.929 . S
H173 C136 0.930 . S
H174 C142 0.929 . S
H175 C143 0.930 . S
Li176 N193 1.990 . S
Li176 O236 1.956 . S
Li176 O237 1.970 . S
Li176 O238 1.961 . S
Li177 N201 1.990 . S
Li177 O236 1.970 . S
Li177 O237 1.956 . S
Li177 O239 1.961 . S
Li178 N223 1.990 . S
Li178 O236 1.961 . S
Li178 O238 1.956 . S
Li178 O239 1.970 . S
Li179 N229 1.990 . S
Li179 O237 1.961 . S
Li179 O238 1.970 . S
Li179 O239 1.956 . S
C180 C182 1.348 . S
C180 C183 1.356 . S
C180 O236 1.325 . S
N181 C184 1.314 . S
N181 C185 1.279 . S
C182 C180 1.348 . S
C182 C184 1.353 . S
C182 H240 0.929 . S
C183 C180 1.356 . S
C183 C185 1.358 . S
C183 H241 0.930 . S
C184 N181 1.314 . S
C184 C182 1.353 . S
C184 H242 0.930 . S
C185 N181 1.279 . S
C185 C183 1.358 . S
C185 H243 0.930 . S
C186 C189 1.348 . S
C186 C190 1.356 . S
C186 O237 1.325 . S
C187 N188 1.279 . S
C187 C190 1.358 . S
C187 H244 0.930 . S
N188 C187 1.279 . S
N188 C191 1.314 . S
C189 C186 1.348 . S
C189 C191 1.353 . S
C189 H245 0.929 . S
C190 C186 1.356 . S
C190 C187 1.358 . S
C190 H246 0.930 . S
C191 N188 1.314 . S
C191 C189 1.353 . S
C191 H247 0.930 . S
C192 N193 1.314 . S
C192 C197 1.353 . S
C192 H198 0.930 . S
N193 Li176 1.990 . S
N193 C192 1.314 . S
N193 C195 1.279 . S
C194 C195 1.358 . S
C194 C196 1.356 . S
C194 H248 0.930 . S
C195 N193 1.279 . S
C195 C194 1.358 . S
C195 H199 0.930 . S
C196 C194 1.356 . S
C196 C197 1.348 . S
C197 C192 1.353 . S
C197 C196 1.348 . S
C197 H249 0.929 . S
H198 C192 0.930 . S
H199 C195 0.930 . S
C200 N201 1.314 . S
C200 C202 1.353 . S
C200 H206 0.930 . S
N201 Li177 1.990 . S
N201 C200 1.314 . S
N201 C204 1.279 . S
C202 C200 1.353 . S
C202 C205 1.348 . S
C202 H250 0.929 . S
C203 C204 1.358 . S
C203 C205 1.356 . S
C203 H251 0.930 . S
C204 N201 1.279 . S
C204 C203 1.358 . S
C204 H207 0.930 . S
C205 C202 1.348 . S
C205 C203 1.356 . S
H206 C200 0.930 . S
H207 C204 0.930 . S
C208 C210 1.348 . S
C208 C211 1.356 . S
C208 O238 1.325 . S
N209 C212 1.314 . S
N209 C213 1.279 . S
C210 C208 1.348 . S
C210 C212 1.353 . S
C210 H252 0.929 . S
C211 C208 1.356 . S
C211 C213 1.358 . S
C211 H253 0.930 . S
C212 N209 1.314 . S
C212 C210 1.353 . S
C212 H254 0.930 . S
C213 N209 1.279 . S
C213 C211 1.358 . S
C213 H255 0.930 . S
C214 C215 1.348 . S
C214 C216 1.356 . S
C214 O239 1.325 . S
C215 C214 1.348 . S
C215 C217 1.353 . S
C215 H256 0.929 . S
C216 C214 1.356 . S
C216 C218 1.358 . S
C216 H257 0.930 . S
C217 C215 1.353 . S
C217 N219 1.314 . S
C217 H258 0.930 . S
C218 C216 1.358 . S
C218 N219 1.279 . S
C218 H259 0.930 . S
N219 C217 1.314 . S
N219 C218 1.279 . S
C220 C222 1.353 . S
C220 N223 1.314 . S
C220 H226 0.930 . S
C221 N223 1.279 . S
C221 C224 1.358 . S
C221 H227 0.930 . S
C222 C220 1.353 . S
C222 C225 1.348 . S
C222 H260 0.929 . S
N223 Li178 1.990 . S
N223 C220 1.314 . S
N223 C221 1.279 . S
C224 C221 1.358 . S
C224 C225 1.356 . S
C224 H261 0.930 . S
C225 C222 1.348 . S
C225 C224 1.356 . S
H226 C220 0.930 . S
H227 C221 0.930 . S
C228 N229 1.314 . S
C228 C230 1.353 . S
C228 H234 0.930 . S
N229 Li179 1.990 . S
N229 C228 1.314 . S
N229 C232 1.279 . S
C230 C228 1.353 . S
C230 C233 1.348 . S
C230 H262 0.929 . S
C231 C232 1.358 . S
C231 C233 1.356 . S
C231 H263 0.930 . S
C232 N229 1.279 . S
C232 C231 1.358 . S
C232 H235 0.930 . S
C233 C230 1.348 . S
C233 C231 1.356 . S
H234 C228 0.930 . S
H235 C232 0.930 . S
O236 Li176 1.956 . S
O236 Li177 1.970 . S
O236 Li178 1.961 . S
O236 C180 1.325 . S
O237 Li176 1.970 . S
O237 Li177 1.956 . S
O237 Li179 1.961 . S
O237 C186 1.325 . S
O238 Li176 1.961 . S
O238 Li178 1.956 . S
O238 Li179 1.970 . S
O238 C208 1.325 . S
O239 Li177 1.961 . S
O239 Li178 1.970 . S
O239 Li179 1.956 . S
O239 C214 1.325 . S
H240 C182 0.929 . S
H241 C183 0.930 . S
H242 C184 0.930 . S
H243 C185 0.930 . S
H244 C187 0.930 . S
H245 C189 0.929 . S
H246 C190 0.930 . S
H247 C191 0.930 . S
H248 C194 0.930 . S
H249 C197 0.929 . S
H250 C202 0.929 . S
H251 C203 0.930 . S
H252 C210 0.929 . S
H253 C211 0.930 . S
H254 C212 0.930 . S
H255 C213 0.930 . S
H256 C215 0.929 . S
H257 C216 0.930 . S
H258 C217 0.930 . S
H259 C218 0.930 . S
H260 C222 0.929 . S
H261 C224 0.930 . S
H262 C230 0.929 . S
H263 C231 0.930 . S
Li264 N281 1.990 . S
Li264 O324 1.956 . S
Li264 O325 1.970 . S
Li264 O326 1.961 . S
Li265 N289 1.990 . S
Li265 O324 1.970 . S
Li265 O325 1.956 . S
Li265 O327 1.961 . S
Li266 N311 1.990 . S
Li266 O324 1.961 . S
Li266 O326 1.956 . S
Li266 O327 1.970 . S
Li267 N317 1.990 . S
Li267 O325 1.961 . S
Li267 O326 1.970 . S
Li267 O327 1.956 . S
C268 C270 1.348 . S
C268 C271 1.356 . S
C268 O324 1.325 . S
N269 C272 1.314 . S
N269 C273 1.279 . S
C270 C268 1.348 . S
C270 C272 1.353 . S
C270 H328 0.929 . S
C271 C268 1.356 . S
C271 C273 1.358 . S
C271 H329 0.930 . S
C272 N269 1.314 . S
C272 C270 1.353 . S
C272 H330 0.930 . S
C273 N269 1.279 . S
C273 C271 1.358 . S
C273 H331 0.930 . S
C274 C277 1.348 . S
C274 C278 1.356 . S
C274 O325 1.325 . S
C275 N276 1.279 . S
C275 C278 1.358 . S
C275 H332 0.930 . S
N276 C275 1.279 . S
N276 C279 1.314 . S
C277 C274 1.348 . S
C277 C279 1.353 . S
C277 H333 0.929 . S
C278 C274 1.356 . S
C278 C275 1.358 . S
C278 H334 0.930 . S
C279 N276 1.314 . S
C279 C277 1.353 . S
C279 H335 0.930 . S
C280 N281 1.314 . S
C280 C285 1.353 . S
C280 H286 0.930 . S
N281 Li264 1.990 . S
N281 C280 1.314 . S
N281 C283 1.279 . S
C282 C283 1.358 . S
C282 C284 1.356 . S
C282 H336 0.930 . S
C283 N281 1.279 . S
C283 C282 1.358 . S
C283 H287 0.930 . S
C284 C282 1.356 . S
C284 C285 1.348 . S
C285 C280 1.353 . S
C285 C284 1.348 . S
C285 H337 0.929 . S
H286 C280 0.930 . S
H287 C283 0.930 . S
C288 N289 1.314 . S
C288 C290 1.353 . S
C288 H294 0.930 . S
N289 Li265 1.990 . S
N289 C288 1.314 . S
N289 C292 1.279 . S
C290 C288 1.353 . S
C290 C293 1.348 . S
C290 H338 0.929 . S
C291 C292 1.358 . S
C291 C293 1.356 . S
C291 H339 0.930 . S
C292 N289 1.279 . S
C292 C291 1.358 . S
C292 H295 0.930 . S
C293 C290 1.348 . S
C293 C291 1.356 . S
H294 C288 0.930 . S
H295 C292 0.930 . S
C296 C298 1.348 . S
C296 C299 1.356 . S
C296 O326 1.325 . S
N297 C300 1.314 . S
N297 C301 1.279 . S
C298 C296 1.348 . S
C298 C300 1.353 . S
C298 H340 0.929 . S
C299 C296 1.356 . S
C299 C301 1.358 . S
C299 H341 0.930 . S
C300 N297 1.314 . S
C300 C298 1.353 . S
C300 H342 0.930 . S
C301 N297 1.279 . S
C301 C299 1.358 . S
C301 H343 0.930 . S
C302 C303 1.348 . S
C302 C304 1.356 . S
C302 O327 1.325 . S
C303 C302 1.348 . S
C303 C305 1.353 . S
C303 H344 0.929 . S
C304 C302 1.356 . S
C304 C306 1.358 . S
C304 H345 0.930 . S
C305 C303 1.353 . S
C305 N307 1.314 . S
C305 H346 0.930 . S
C306 C304 1.358 . S
C306 N307 1.279 . S
C306 H347 0.930 . S
N307 C305 1.314 . S
N307 C306 1.279 . S
C308 C310 1.353 . S
C308 N311 1.314 . S
C308 H314 0.930 . S
C309 N311 1.279 . S
C309 C312 1.358 . S
C309 H315 0.930 . S
C310 C308 1.353 . S
C310 C313 1.348 . S
C310 H348 0.929 . S
N311 Li266 1.990 . S
N311 C308 1.314 . S
N311 C309 1.279 . S
C312 C309 1.358 . S
C312 C313 1.356 . S
C312 H349 0.930 . S
C313 C310 1.348 . S
C313 C312 1.356 . S
H314 C308 0.930 . S
H315 C309 0.930 . S
C316 N317 1.314 . S
C316 C318 1.353 . S
C316 H322 0.930 . S
N317 Li267 1.990 . S
N317 C316 1.314 . S
N317 C320 1.279 . S
C318 C316 1.353 . S
C318 C321 1.348 . S
C318 H350 0.929 . S
C319 C320 1.358 . S
C319 C321 1.356 . S
C319 H351 0.930 . S
C320 N317 1.279 . S
C320 C319 1.358 . S
C320 H323 0.930 . S
C321 C318 1.348 . S
C321 C319 1.356 . S
H322 C316 0.930 . S
H323 C320 0.930 . S
O324 Li264 1.956 . S
O324 Li265 1.970 . S
O324 Li266 1.961 . S
O324 C268 1.325 . S
O325 Li264 1.970 . S
O325 Li265 1.956 . S
O325 Li267 1.961 . S
O325 C274 1.325 . S
O326 Li264 1.961 . S
O326 Li266 1.956 . S
O326 Li267 1.970 . S
O326 C296 1.325 . S
O327 Li265 1.961 . S
O327 Li266 1.970 . S
O327 Li267 1.956 . S
O327 C302 1.325 . S
H328 C270 0.929 . S
H329 C271 0.930 . S
H330 C272 0.930 . S
H331 C273 0.930 . S
H332 C275 0.930 . S
H333 C277 0.929 . S
H334 C278 0.930 . S
H335 C279 0.930 . S
H336 C282 0.930 . S
H337 C285 0.929 . S
H338 C290 0.929 . S
H339 C291 0.930 . S
H340 C298 0.929 . S
H341 C299 0.930 . S
H342 C300 0.930 . S
H343 C301 0.930 . S
H344 C303 0.929 . S
H345 C304 0.930 . S
H346 C305 0.930 . S
H347 C306 0.930 . S
H348 C310 0.929 . S
H349 C312 0.930 . S
H350 C318 0.929 . S
H351 C319 0.930 . S
C352 C353 1.349 . S
C352 C354 1.327 . S
C352 H377 0.950 . S
C353 C352 1.349 . S
C353 C369 1.349 . S
C354 C352 1.327 . S
C354 C373 1.429 . S
C354 H378 0.950 . S
C355 C372 1.574 . S
C355 C374 1.368 1_545 S
C355 H379 0.949 . S
H356 C360 0.949 . S
C357 C358 1.349 . S
C357 C359 1.327 . S
C357 H380 0.950 . S
C358 C357 1.349 . S
C358 C370 1.349 . S
C359 C357 1.327 . S
C359 C375 1.429 . S
C359 H381 0.950 . S
C360 H356 0.949 . S
C360 C368 1.574 . S
C360 C376 1.368 1_565 S
H361 C369 0.950 . S
H362 C367 0.950 1_545 S
H363 C368 0.949 . S
H364 C370 0.950 . S
H365 C371 0.950 1_565 S
H366 C372 0.949 . S
C367 H362 0.950 1_565 S
C367 C369 1.327 . S
C367 C373 1.429 . S
C368 C360 1.574 . S
C368 H363 0.949 . S
C368 C374 1.368 . S
C369 C353 1.349 . S
C369 H361 0.950 . S
C369 C367 1.327 . S
C370 C358 1.349 . S
C370 H364 0.950 . S
C370 C371 1.327 . S
C371 H365 0.950 1_545 S
C371 C370 1.327 . S
C371 C375 1.429 . S
C372 C355 1.574 . S
C372 H366 0.949 . S
C372 C376 1.368 . S
C373 C354 1.429 . S
C373 C367 1.429 . S
C373 C374 1.523 . S
C374 C355 1.368 1_565 S
C374 C368 1.368 . S
C374 C373 1.523 . S
C375 C359 1.429 . S
C375 C371 1.429 . S
C375 C376 1.523 . S
C376 C360 1.368 1_545 S
C376 C372 1.368 . S
C376 C375 1.523 . S
H377 C352 0.950 . S
H378 C354 0.950 . S
H379 C355 0.949 . S
H380 C357 0.950 . S
H381 C359 0.950 . S
C382 C383 1.349 . S
C382 C384 1.327 . S
C382 H407 0.950 . S
C383 C382 1.349 . S
C383 C399 1.349 . S
C384 C382 1.327 . S
C384 C403 1.429 . S
C384 H408 0.950 . S
C385 C402 1.574 . S
C385 C404 1.368 . S
C385 H409 0.949 . S
H386 C390 0.949 . S
C387 C388 1.349 . S
C387 C389 1.327 . S
C387 H410 0.950 . S
C388 C387 1.349 . S
C388 C400 1.349 . S
C389 C387 1.327 . S
C389 C405 1.429 . S
C389 H411 0.950 . S
C390 H386 0.949 . S
C390 C398 1.574 . S
C390 C406 1.368 . S
H391 C399 0.950 . S
H392 C397 0.950 . S
H393 C398 0.949 . S
H394 C400 0.950 . S
H395 C401 0.950 . S
H396 C402 0.949 . S
C397 H392 0.950 . S
C397 C399 1.327 . S
C397 C403 1.429 . S
C398 C390 1.574 . S
C398 H393 0.949 . S
C398 C404 1.368 . S
C399 C383 1.349 . S
C399 H391 0.950 . S
C399 C397 1.327 . S
C400 C388 1.349 . S
C400 H394 0.950 . S
C400 C401 1.327 . S
C401 H395 0.950 . S
C401 C400 1.327 . S
C401 C405 1.429 . S
C402 C385 1.574 . S
C402 H396 0.949 . S
C402 C406 1.368 . S
C403 C384 1.429 . S
C403 C397 1.429 . S
C403 C404 1.523 . S
C404 C385 1.368 . S
C404 C398 1.368 . S
C404 C403 1.523 . S
C405 C389 1.429 . S
C405 C401 1.429 . S
C405 C406 1.523 . S
C406 C390 1.368 . S
C406 C402 1.368 . S
C406 C405 1.523 . S
H407 C382 0.950 . S
H408 C384 0.950 . S
H409 C385 0.949 . S
H410 C387 0.950 . S
H411 C389 0.950 . S
C412 C413 1.349 . S
C412 C414 1.327 . S
C412 H437 0.950 . S
C413 C412 1.349 . S
C413 C429 1.349 . S
C414 C412 1.327 . S
C414 C433 1.429 . S
C414 H438 0.950 . S
C415 C432 1.574 . S
C415 C434 1.368 1_565 S
C415 H439 0.949 . S
H416 C420 0.949 . S
C417 C418 1.349 . S
C417 C419 1.327 . S
C417 H440 0.950 . S
C418 C417 1.349 . S
C418 C430 1.349 . S
C419 C417 1.327 . S
C419 C435 1.429 . S
C419 H441 0.950 . S
C420 H416 0.949 . S
C420 C428 1.574 . S
C420 C436 1.368 1_545 S
H421 C429 0.950 . S
H422 C427 0.950 1_565 S
H423 C428 0.949 . S
H424 C430 0.950 . S
H425 C431 0.950 1_545 S
H426 C432 0.949 . S
C427 H422 0.950 1_545 S
C427 C429 1.327 . S
C427 C433 1.429 . S
C428 C420 1.574 . S
C428 H423 0.949 . S
C428 C434 1.368 . S
C429 C413 1.349 . S
C429 H421 0.950 . S
C429 C427 1.327 . S
C430 C418 1.349 . S
C430 H424 0.950 . S
C430 C431 1.327 . S
C431 H425 0.950 1_565 S
C431 C430 1.327 . S
C431 C435 1.429 . S
C432 C415 1.574 . S
C432 H426 0.949 . S
C432 C436 1.368 . S
C433 C414 1.429 . S
C433 C427 1.429 . S
C433 C434 1.523 . S
C434 C415 1.368 1_545 S
C434 C428 1.368 . S
C434 C433 1.523 . S
C435 C419 1.429 . S
C435 C431 1.429 . S
C435 C436 1.523 . S
C436 C420 1.368 1_565 S
C436 C432 1.368 . S
C436 C435 1.523 . S
H437 C412 0.950 . S
H438 C414 0.950 . S
H439 C415 0.949 . S
H440 C417 0.950 . S
H441 C419 0.950 . S
C442 C443 1.349 . S
C442 C444 1.327 . S
C442 H467 0.950 . S
C443 C442 1.349 . S
C443 C459 1.349 . S
C444 C442 1.327 . S
C444 C463 1.429 . S
C444 H468 0.950 . S
C445 C462 1.574 . S
C445 C464 1.368 . S
C445 H469 0.949 . S
H446 C450 0.949 . S
C447 C448 1.349 . S
C447 C449 1.327 . S
C447 H470 0.950 . S
C448 C447 1.349 . S
C448 C460 1.349 . S
C449 C447 1.327 . S
C449 C465 1.429 . S
C449 H471 0.950 . S
C450 H446 0.949 . S
C450 C458 1.574 . S
C450 C466 1.368 . S
H451 C459 0.950 . S
H452 C457 0.950 . S
H453 C458 0.949 . S
H454 C460 0.950 . S
H455 C461 0.950 . S
H456 C462 0.949 . S
C457 H452 0.950 . S
C457 C459 1.327 . S
C457 C463 1.429 . S
C458 C450 1.574 . S
C458 H453 0.949 . S
C458 C464 1.368 . S
C459 C443 1.349 . S
C459 H451 0.950 . S
C459 C457 1.327 . S
C460 C448 1.349 . S
C460 H454 0.950 . S
C460 C461 1.327 . S
C461 H455 0.950 . S
C461 C460 1.327 . S
C461 C465 1.429 . S
C462 C445 1.574 . S
C462 H456 0.949 . S
C462 C466 1.368 . S
C463 C444 1.429 . S
C463 C457 1.429 . S
C463 C464 1.523 . S
C464 C445 1.368 . S
C464 C458 1.368 . S
C464 C463 1.523 . S
C465 C449 1.429 . S
C465 C461 1.429 . S
C465 C466 1.523 . S
C466 C450 1.368 . S
C466 C462 1.368 . S
C466 C465 1.523 . S
H467 C442 0.950 . S
H468 C444 0.950 . S
H469 C445 0.949 . S
H470 C447 0.950 . S
H471 C449 0.950 . S
C472 C473 1.349 . S
C472 C474 1.327 . S
C472 H497 0.950 . S
C473 C472 1.349 . S
C473 C489 1.349 . S
C474 C472 1.327 . S
C474 C493 1.429 . S
C474 H498 0.950 1_554 S
C475 C492 1.574 1_545 S
C475 C494 1.368 1_655 S
C475 H499 0.949 . S
H476 C480 0.949 . S
C477 C478 1.349 . S
C477 C479 1.327 . S
C477 H500 0.950 . S
C478 C477 1.349 . S
C478 C490 1.349 . S
C479 C477 1.327 . S
C479 C495 1.429 . S
C479 H501 0.950 1_556 S
C480 H476 0.949 . S
C480 C488 1.574 1_565 S
C480 C496 1.368 1_455 S
H481 C489 0.950 . S
H482 C487 0.950 . S
H483 C488 0.949 . S
H484 C490 0.950 . S
H485 C491 0.950 . S
H486 C492 0.949 . S
C487 H482 0.950 . S
C487 C489 1.327 . S
C487 C493 1.429 . S
C488 C480 1.574 1_545 S
C488 H483 0.949 . S
C488 C494 1.368 1_556 S
C489 C473 1.349 . S
C489 H481 0.950 . S
C489 C487 1.327 . S
C490 C478 1.349 . S
C490 H484 0.950 . S
C490 C491 1.327 . S
C491 H485 0.950 . S
C491 C490 1.327 . S
C491 C495 1.429 . S
C492 C475 1.574 1_565 S
C492 H486 0.949 . S
C492 C496 1.368 1_554 S
C493 C474 1.429 . S
C493 C487 1.429 . S
C493 C494 1.523 . S
C494 C475 1.368 1_455 S
C494 C488 1.368 1_554 S
C494 C493 1.523 . S
C495 C479 1.429 . S
C495 C491 1.429 . S
C495 C496 1.523 . S
C496 C480 1.368 1_655 S
C496 C492 1.368 1_556 S
C496 C495 1.523 . S
H497 C472 0.950 . S
H498 C474 0.950 1_556 S
H499 C475 0.949 . S
H500 C477 0.950 . S
H501 C479 0.950 1_554 S
C502 C503 1.349 . S
C502 C504 1.327 . S
C502 H527 0.950 . S
C503 C502 1.349 . S
C503 C519 1.349 . S
C504 C502 1.327 . S
C504 C523 1.429 . S
C504 H528 0.950 . S
C505 C522 1.574 . S
C505 C524 1.368 1_554 S
C505 H529 0.949 . S
H506 C510 0.949 . S
C507 C508 1.349 . S
C507 C509 1.327 . S
C507 H530 0.950 . S
C508 C507 1.349 . S
C508 C520 1.349 . S
C509 C507 1.327 . S
C509 C525 1.429 . S
C509 H531 0.950 . S
C510 H506 0.949 . S
C510 C518 1.574 . S
C510 C526 1.368 1_556 S
H511 C519 0.950 . S
H512 C517 0.950 . S
H513 C518 0.949 . S
H514 C520 0.950 . S
H515 C521 0.950 . S
H516 C522 0.949 . S
C517 H512 0.950 . S
C517 C519 1.327 . S
C517 C523 1.429 . S
C518 C510 1.574 . S
C518 H513 0.949 . S
C518 C524 1.368 1_565 S
C519 C503 1.349 . S
C519 H511 0.950 . S
C519 C517 1.327 . S
C520 C508 1.349 . S
C520 H514 0.950 . S
C520 C521 1.327 . S
C521 H515 0.950 . S
C521 C520 1.327 . S
C521 C525 1.429 . S
C522 C505 1.574 . S
C522 H516 0.949 . S
C522 C526 1.368 1_545 S
C523 C504 1.429 . S
C523 C517 1.429 . S
C523 C524 1.523 . S
C524 C505 1.368 1_556 S
C524 C518 1.368 1_545 S
C524 C523 1.523 . S
C525 C509 1.429 . S
C525 C521 1.429 . S
C525 C526 1.523 . S
C526 C510 1.368 1_554 S
C526 C522 1.368 1_565 S
C526 C525 1.523 . S
H527 C502 0.950 . S
H528 C504 0.950 . S
H529 C505 0.949 . S
H530 C507 0.950 . S
H531 C509 0.950 . S
C532 C533 1.349 . S
C532 C534 1.327 . S
C532 H557 0.950 . S
C533 C532 1.349 . S
C533 C549 1.349 . S
C534 C532 1.327 . S
C534 C553 1.429 . S
C534 H558 0.950 1_655 S
C535 C552 1.574 . S
C535 C554 1.368 . S
C535 H559 0.949 . S
H536 C540 0.949 . S
C537 C538 1.349 . S
C537 C539 1.327 . S
C537 H560 0.950 . S
C538 C537 1.349 . S
C538 C550 1.349 . S
C539 C537 1.327 . S
C539 C555 1.429 . S
C539 H561 0.950 1_455 S
C540 H536 0.949 . S
C540 C548 1.574 . S
C540 C556 1.368 . S
H541 C549 0.950 . S
H542 C547 0.950 . S
H543 C548 0.949 . S
H544 C550 0.950 . S
H545 C551 0.950 . S
H546 C552 0.949 . S
C547 H542 0.950 . S
C547 C549 1.327 . S
C547 C553 1.429 . S
C548 C540 1.574 . S
C548 H543 0.949 . S
C548 C554 1.368 1_455 S
C549 C533 1.349 . S
C549 H541 0.950 . S
C549 C547 1.327 . S
C550 C538 1.349 . S
C550 H544 0.950 . S
C550 C551 1.327 . S
C551 H545 0.950 . S
C551 C550 1.327 . S
C551 C555 1.429 . S
C552 C535 1.574 . S
C552 H546 0.949 . S
C552 C556 1.368 1_655 S
C553 C534 1.429 . S
C553 C547 1.429 . S
C553 C554 1.523 . S
C554 C535 1.368 . S
C554 C548 1.368 1_655 S
C554 C553 1.523 . S
C555 C539 1.429 . S
C555 C551 1.429 . S
C555 C556 1.523 . S
C556 C540 1.368 . S
C556 C552 1.368 1_455 S
C556 C555 1.523 . S
H557 C532 0.950 . S
H558 C534 0.950 1_455 S
H559 C535 0.949 . S
H560 C537 0.950 . S
H561 C539 0.950 1_655 S
C562 C563 1.349 . S
C562 C564 1.327 . S
C562 H587 0.950 . S
C563 C562 1.349 . S
C563 C579 1.349 . S
C564 C562 1.327 . S
C564 C583 1.429 . S
C564 H588 0.950 . S
C565 C582 1.574 . S
C565 C584 1.368 . S
C565 H589 0.949 . S
H566 C570 0.949 . S
C567 C568 1.349 . S
C567 C569 1.327 . S
C567 H590 0.950 . S
C568 C567 1.349 . S
C568 C580 1.349 . S
C569 C567 1.327 . S
C569 C585 1.429 . S
C569 H591 0.950 . S
C570 H566 0.949 . S
C570 C578 1.574 . S
C570 C586 1.368 . S
H571 C579 0.950 . S
H572 C577 0.950 . S
H573 C578 0.949 . S
H574 C580 0.950 . S
H575 C581 0.950 . S
H576 C582 0.949 . S
C577 H572 0.950 . S
C577 C579 1.327 . S
C577 C583 1.429 . S
C578 C570 1.574 . S
C578 H573 0.949 . S
C578 C584 1.368 . S
C579 C563 1.349 . S
C579 H571 0.950 . S
C579 C577 1.327 . S
C580 C568 1.349 . S
C580 H574 0.950 . S
C580 C581 1.327 . S
C581 H575 0.950 . S
C581 C580 1.327 . S
C581 C585 1.429 . S
C582 C565 1.574 . S
C582 H576 0.949 . S
C582 C586 1.368 . S
C583 C564 1.429 . S
C583 C577 1.429 . S
C583 C584 1.523 . S
C584 C565 1.368 . S
C584 C578 1.368 . S
C584 C583 1.523 . S
C585 C569 1.429 . S
C585 C581 1.429 . S
C585 C586 1.523 . S
C586 C570 1.368 . S
C586 C582 1.368 . S
C586 C585 1.523 . S
H587 C562 0.950 . S
H588 C564 0.950 . S
H589 C565 0.949 . S
H590 C567 0.950 . S
H591 C569 0.950 . S
C353 C145 0.478 . S
C358 C29 0.478 . S
C383 C20 0.478 . S
C388 C137 0.478 . S
C413 C284 0.471 . S
C418 C196 0.471 . S
C443 C233 0.471 . S
C448 C321 0.471 . S
C473 C49 1.773 . S
C478 C205 1.769 . S
C503 C293 1.769 . S
C508 C108 1.773 . S
C533 C225 1.769 . S
C538 C57 1.773 . S
C563 C117 1.773 . S
C568 C313 1.769 . S
