# Generated by pormake.
# Topology vbb, (4)-cn, num edge types: 1
# Building blocks:
#     Node 0, Type 0, BuildingBlock: ICAMEG_clean_sbu_1, # of connection points: 4
#     Node 1, Type 0, BuildingBlock: ICAMEG_clean_sbu_1, # of connection points: 4
#     Node 2, Type 0, BuildingBlock: ICAMEG_clean_sbu_1, # of connection points: 4
#     Node 3, Type 0, BuildingBlock: ICAMEG_clean_sbu_1, # of connection points: 4
#     Node 4, Type 0, BuildingBlock: ICAMEG_clean_sbu_1, # of connection points: 4
#     Node 5, Type 0, BuildingBlock: ICAMEG_clean_sbu_1, # of connection points: 4
#     Node 6, Type 0, BuildingBlock: ICAMEG_clean_sbu_1, # of connection points: 4
#     Node 7, Type 0, BuildingBlock: ICAMEG_clean_sbu_1, # of connection points: 4
#     Node 8, Type 0, BuildingBlock: ICAMEG_clean_sbu_1, # of connection points: 4
#     Node 9, Type 0, BuildingBlock: ICAMEG_clean_sbu_1, # of connection points: 4
#     Node 10, Type 0, BuildingBlock: ICAMEG_clean_sbu_1, # of connection points: 4
#     Node 11, Type 0, BuildingBlock: ICAMEG_clean_sbu_1, # of connection points: 4
#     Node 12, Type 0, BuildingBlock: ICAMEG_clean_sbu_1, # of connection points: 4
#     Node 13, Type 0, BuildingBlock: ICAMEG_clean_sbu_1, # of connection points: 4
#     Node 14, Type 0, BuildingBlock: ICAMEG_clean_sbu_1, # of connection points: 4
#     Node 15, Type 0, BuildingBlock: ICAMEG_clean_sbu_1, # of connection points: 4
#     Node 16, Type 0, BuildingBlock: ICAMEG_clean_sbu_1, # of connection points: 4
#     Node 17, Type 0, BuildingBlock: ICAMEG_clean_sbu_1, # of connection points: 4
#     Node 18, Type 0, BuildingBlock: ICAMEG_clean_sbu_1, # of connection points: 4
#     Node 19, Type 0, BuildingBlock: ICAMEG_clean_sbu_1, # of connection points: 4
#     Node 20, Type 0, BuildingBlock: ICAMEG_clean_sbu_1, # of connection points: 4
#     Node 21, Type 0, BuildingBlock: ICAMEG_clean_sbu_1, # of connection points: 4
#     Node 22, Type 0, BuildingBlock: ICAMEG_clean_sbu_1, # of connection points: 4
#     Node 23, Type 0, BuildingBlock: ICAMEG_clean_sbu_1, # of connection points: 4
#     Node 24, Type 0, BuildingBlock: ICAMEG_clean_sbu_1, # of connection points: 4
#     Node 25, Type 0, BuildingBlock: ICAMEG_clean_sbu_1, # of connection points: 4
#     Node 26, Type 0, BuildingBlock: ICAMEG_clean_sbu_1, # of connection points: 4
#     Node 27, Type 0, BuildingBlock: ICAMEG_clean_sbu_1, # of connection points: 4
#     Node 28, Type 0, BuildingBlock: ICAMEG_clean_sbu_1, # of connection points: 4
#     Node 29, Type 0, BuildingBlock: ICAMEG_clean_sbu_1, # of connection points: 4
#     Node 30, Type 0, BuildingBlock: ICAMEG_clean_sbu_1, # of connection points: 4
#     Node 31, Type 0, BuildingBlock: ICAMEG_clean_sbu_1, # of connection points: 4
#     Edge 32, Type (0, 0), BuildingBlock: XIVTED_clean_linker_0, # of connection points: 2
#     Edge 33, Type (0, 0), BuildingBlock: XIVTED_clean_linker_0, # of connection points: 2
#     Edge 34, Type (0, 0), BuildingBlock: XIVTED_clean_linker_0, # of connection points: 2
#     Edge 35, Type (0, 0), BuildingBlock: XIVTED_clean_linker_0, # of connection points: 2
#     Edge 36, Type (0, 0), BuildingBlock: XIVTED_clean_linker_0, # of connection points: 2
#     Edge 37, Type (0, 0), BuildingBlock: XIVTED_clean_linker_0, # of connection points: 2
#     Edge 38, Type (0, 0), BuildingBlock: XIVTED_clean_linker_0, # of connection points: 2
#     Edge 39, Type (0, 0), BuildingBlock: XIVTED_clean_linker_0, # of connection points: 2
#     Edge 40, Type (0, 0), BuildingBlock: XIVTED_clean_linker_0, # of connection points: 2
#     Edge 41, Type (0, 0), BuildingBlock: XIVTED_clean_linker_0, # of connection points: 2
#     Edge 42, Type (0, 0), BuildingBlock: XIVTED_clean_linker_0, # of connection points: 2
#     Edge 43, Type (0, 0), BuildingBlock: XIVTED_clean_linker_0, # of connection points: 2
#     Edge 44, Type (0, 0), BuildingBlock: XIVTED_clean_linker_0, # of connection points: 2
#     Edge 45, Type (0, 0), BuildingBlock: XIVTED_clean_linker_0, # of connection points: 2
#     Edge 46, Type (0, 0), BuildingBlock: XIVTED_clean_linker_0, # of connection points: 2
#     Edge 47, Type (0, 0), BuildingBlock: XIVTED_clean_linker_0, # of connection points: 2
#     Edge 48, Type (0, 0), BuildingBlock: XIVTED_clean_linker_0, # of connection points: 2
#     Edge 49, Type (0, 0), BuildingBlock: XIVTED_clean_linker_0, # of connection points: 2
#     Edge 50, Type (0, 0), BuildingBlock: XIVTED_clean_linker_0, # of connection points: 2
#     Edge 51, Type (0, 0), BuildingBlock: XIVTED_clean_linker_0, # of connection points: 2
#     Edge 52, Type (0, 0), BuildingBlock: XIVTED_clean_linker_0, # of connection points: 2
#     Edge 53, Type (0, 0), BuildingBlock: XIVTED_clean_linker_0, # of connection points: 2
#     Edge 54, Type (0, 0), BuildingBlock: XIVTED_clean_linker_0, # of connection points: 2
#     Edge 55, Type (0, 0), BuildingBlock: XIVTED_clean_linker_0, # of connection points: 2
#     Edge 56, Type (0, 0), BuildingBlock: XIVTED_clean_linker_0, # of connection points: 2
#     Edge 57, Type (0, 0), BuildingBlock: XIVTED_clean_linker_0, # of connection points: 2
#     Edge 58, Type (0, 0), BuildingBlock: XIVTED_clean_linker_0, # of connection points: 2
#     Edge 59, Type (0, 0), BuildingBlock: XIVTED_clean_linker_0, # of connection points: 2
#     Edge 60, Type (0, 0), BuildingBlock: XIVTED_clean_linker_0, # of connection points: 2
#     Edge 61, Type (0, 0), BuildingBlock: XIVTED_clean_linker_0, # of connection points: 2
#     Edge 62, Type (0, 0), BuildingBlock: XIVTED_clean_linker_0, # of connection points: 2
#     Edge 63, Type (0, 0), BuildingBlock: XIVTED_clean_linker_0, # of connection points: 2
#     Edge 64, Type (0, 0), BuildingBlock: XIVTED_clean_linker_0, # of connection points: 2
#     Edge 65, Type (0, 0), BuildingBlock: XIVTED_clean_linker_0, # of connection points: 2
#     Edge 66, Type (0, 0), BuildingBlock: XIVTED_clean_linker_0, # of connection points: 2
#     Edge 67, Type (0, 0), BuildingBlock: XIVTED_clean_linker_0, # of connection points: 2
#     Edge 68, Type (0, 0), BuildingBlock: XIVTED_clean_linker_0, # of connection points: 2
#     Edge 69, Type (0, 0), BuildingBlock: XIVTED_clean_linker_0, # of connection points: 2
#     Edge 70, Type (0, 0), BuildingBlock: XIVTED_clean_linker_0, # of connection points: 2
#     Edge 71, Type (0, 0), BuildingBlock: XIVTED_clean_linker_0, # of connection points: 2
#     Edge 72, Type (0, 0), BuildingBlock: XIVTED_clean_linker_0, # of connection points: 2
#     Edge 73, Type (0, 0), BuildingBlock: XIVTED_clean_linker_0, # of connection points: 2
#     Edge 74, Type (0, 0), BuildingBlock: XIVTED_clean_linker_0, # of connection points: 2
#     Edge 75, Type (0, 0), BuildingBlock: XIVTED_clean_linker_0, # of connection points: 2
#     Edge 76, Type (0, 0), BuildingBlock: XIVTED_clean_linker_0, # of connection points: 2
#     Edge 77, Type (0, 0), BuildingBlock: XIVTED_clean_linker_0, # of connection points: 2
#     Edge 78, Type (0, 0), BuildingBlock: XIVTED_clean_linker_0, # of connection points: 2
#     Edge 79, Type (0, 0), BuildingBlock: XIVTED_clean_linker_0, # of connection points: 2
#     Edge 80, Type (0, 0), BuildingBlock: XIVTED_clean_linker_0, # of connection points: 2
#     Edge 81, Type (0, 0), BuildingBlock: XIVTED_clean_linker_0, # of connection points: 2
#     Edge 82, Type (0, 0), BuildingBlock: XIVTED_clean_linker_0, # of connection points: 2
#     Edge 83, Type (0, 0), BuildingBlock: XIVTED_clean_linker_0, # of connection points: 2
#     Edge 84, Type (0, 0), BuildingBlock: XIVTED_clean_linker_0, # of connection points: 2
#     Edge 85, Type (0, 0), BuildingBlock: XIVTED_clean_linker_0, # of connection points: 2
#     Edge 86, Type (0, 0), BuildingBlock: XIVTED_clean_linker_0, # of connection points: 2
#     Edge 87, Type (0, 0), BuildingBlock: XIVTED_clean_linker_0, # of connection points: 2
#     Edge 88, Type (0, 0), BuildingBlock: XIVTED_clean_linker_0, # of connection points: 2
#     Edge 89, Type (0, 0), BuildingBlock: XIVTED_clean_linker_0, # of connection points: 2
#     Edge 90, Type (0, 0), BuildingBlock: XIVTED_clean_linker_0, # of connection points: 2
#     Edge 91, Type (0, 0), BuildingBlock: XIVTED_clean_linker_0, # of connection points: 2
#     Edge 92, Type (0, 0), BuildingBlock: XIVTED_clean_linker_0, # of connection points: 2
#     Edge 93, Type (0, 0), BuildingBlock: XIVTED_clean_linker_0, # of connection points: 2
#     Edge 94, Type (0, 0), BuildingBlock: XIVTED_clean_linker_0, # of connection points: 2
#     Edge 95, Type (0, 0), BuildingBlock: XIVTED_clean_linker_0, # of connection points: 2
# Relax obj value: 0.069
# Max RMSD: 0.277
# Mean RMSD: 0.252
data_MOF--net-vbb--node1-ICAMEG_clean_sbu_1--edge1-XIVTED_clean_linker_0
_symmetry_space_group_name_H-M    P1
_symmetry_Int_Tables_number       1
_symmetry_cell_setting            triclinic
loop_
_symmetry_equiv_pos_as_xyz
'x, y, z'
_cell_length_a     57.757043
_cell_length_b     22.778344
_cell_length_c     120.06895
_cell_angle_alpha  88.489866
_cell_angle_beta   90.403632
_cell_angle_gamma 89.936985
loop_
_atom_site_label
_atom_site_type_symbol
_atom_site_fract_x
_atom_site_fract_y
_atom_site_fract_z
_atom_type_partial_charge
Co0 Co 0.48608 0.12179 0.05791 0.0
Co1 Co 0.49555 0.9844 0.06968 0.0
O2 O 0.48232 0.03757 0.0586 0.0
C3 C 0.50532 0.07437 0.03749 0.0
O4 O 0.51842 0.04267 0.04427 0.0
C5 C 0.44534 0.97639 0.07155 0.0
O6 O 0.44631 0.03381 0.07145 0.0
O7 O 0.48749 0.03732 0.08179 0.0
O8 O 0.4805 0.12788 0.07447 0.0
H9 H 0.54353 0.92621 0.10327 0.0
H10 H 0.45293 0.06379 0.04264 0.0
O11 O 0.49196 0.11353 0.04142 0.0
H12 H 0.40615 0.2024 0.06394 0.0
H13 H 0.47669 0.32073 0.03927 0.0
H14 H 0.5089 0.21116 0.07181 0.0
H15 H 0.44833 0.1947 0.06708 0.0
H16 H 0.47178 0.21328 0.04115 0.0
O17 O 0.46405 0.9464 0.07108 0.0
H18 H 0.52748 0.9951 0.08901 0.0
H19 H 0.4901 0.85638 0.07428 0.0
H20 H 0.51407 0.31857 0.07032 0.0
H21 H 0.41087 0.07038 0.03919 0.0
H22 H 0.4979 0.37407 0.05396 0.0
H23 H 0.38717 0.13991 0.04991 0.0
O24 O 0.5196 0.11504 0.0612 0.0
H25 H 0.48115 0.87601 0.03439 0.0
H26 H 0.53853 0.92113 0.06354 0.0
H27 H 0.54991 0.85921 0.04792 0.0
H28 H 0.52112 0.83644 0.0332 0.0
H29 H 0.47054 0.9378 0.05013 0.0
H30 H 0.5056 0.78597 0.08843 0.0
H31 H 0.53259 0.8208 0.10304 0.0
O32 O 0.52659 0.02452 0.06854 0.0
C33 C 0.48217 0.09124 0.08274 0.0
C34 C 0.53186 0.91046 0.09693 0.0
C35 C 0.51055 0.83175 0.08861 0.0
N36 N 0.50809 0.92957 0.08076 0.0
C37 C 0.52279 0.94921 0.08881 0.0
C38 C 0.5018 0.87179 0.08063 0.0
C39 C 0.52569 0.85133 0.0968 0.0
C40 C 0.4428 0.09471 0.04724 0.0
N41 N 0.45311 0.12922 0.05498 0.0
C42 C 0.41896 0.09802 0.04529 0.0
C43 C 0.40567 0.13698 0.05132 0.0
C44 C 0.41631 0.17203 0.0592 0.0
C45 C 0.44018 0.16747 0.06094 0.0
C46 C 0.48377 0.29705 0.04645 0.0
C47 C 0.50167 0.23509 0.06471 0.0
C48 C 0.48109 0.23625 0.04754 0.0
N49 N 0.48987 0.20617 0.05662 0.0
C50 C 0.50472 0.29586 0.06389 0.0
C51 C 0.49567 0.32696 0.0547 0.0
C52 C 0.53313 0.07628 0.06552 0.0
C53 C 0.49382 0.88541 0.04078 0.0
C54 C 0.52589 0.91114 0.05719 0.0
C55 C 0.53243 0.87609 0.04837 0.0
C56 C 0.51626 0.8633 0.04011 0.0
N57 N 0.50385 0.93264 0.05778 0.0
C58 C 0.48788 0.92015 0.04974 0.0
Co59 Co 0.748 0.14057 0.06289 0.0
Co60 Co 0.73785 0.2839 0.06978 0.0
O61 O 0.75162 0.2243 0.06083 0.0
C62 C 0.72961 0.17384 0.04082 0.0
O63 O 0.7157 0.20816 0.04625 0.0
C64 C 0.78797 0.29298 0.07226 0.0
O65 O 0.78679 0.23624 0.07418 0.0
O66 O 0.74512 0.23936 0.0837 0.0
O67 O 0.75291 0.14549 0.07952 0.0
H68 H 0.68813 0.36305 0.10013 0.0
H69 H 0.7818 0.18902 0.04647 0.0
O70 O 0.74292 0.13808 0.04622 0.0
H71 H 0.8277 0.06596 0.07284 0.0
H72 H 0.75822 0.93185 0.0512 0.0
H73 H 0.7249 0.0608 0.07931 0.0
H74 H 0.78539 0.07474 0.07496 0.0
H75 H 0.76296 0.03942 0.04956 0.0
O76 O 0.76937 0.3225 0.07048 0.0
H77 H 0.70482 0.28573 0.0886 0.0
H78 H 0.74325 0.41351 0.07019 0.0
H79 H 0.71989 0.95352 0.08133 0.0
H80 H 0.82401 0.18116 0.04401 0.0
H81 H 0.73661 0.88827 0.06721 0.0
H82 H 0.84727 0.11946 0.05728 0.0
O83 O 0.71433 0.14885 0.0654 0.0
H84 H 0.75417 0.36722 0.03147 0.0
H85 H 0.69535 0.34254 0.06079 0.0
H86 H 0.68482 0.39298 0.04303 0.0
H87 H 0.71433 0.40536 0.0282 0.0
H88 H 0.76394 0.31707 0.04935 0.0
H89 H 0.7271 0.49228 0.08156 0.0
H90 H 0.69927 0.46718 0.09663 0.0
O91 O 0.70686 0.2433 0.06935 0.0
C92 C 0.75054 0.18674 0.0865 0.0
C93 C 0.70017 0.37456 0.09356 0.0
C94 C 0.72207 0.44709 0.08315 0.0
N95 N 0.72479 0.34527 0.07867 0.0
C96 C 0.7096 0.331 0.08698 0.0
C97 C 0.73117 0.40235 0.07675 0.0
C98 C 0.70645 0.43297 0.0916 0.0
C99 C 0.79173 0.16143 0.05219 0.0
N100 N 0.7811 0.13188 0.06079 0.0
C101 C 0.81566 0.15741 0.05079 0.0
C102 C 0.82871 0.12285 0.05825 0.0
C103 C 0.81774 0.09285 0.06699 0.0
C104 C 0.79378 0.09798 0.06815 0.0
C105 C 0.75088 0.95981 0.05742 0.0
C106 C 0.73236 0.03265 0.07317 0.0
C107 C 0.75347 0.02071 0.05652 0.0
N108 N 0.74436 0.0562 0.06437 0.0
C109 C 0.7294 0.97196 0.07434 0.0
C110 C 0.73877 0.93539 0.0664 0.0
C111 C 0.70053 0.18994 0.06804 0.0
C112 C 0.74119 0.36234 0.03788 0.0
C113 C 0.70831 0.34812 0.0544 0.0
C114 C 0.70225 0.37667 0.04436 0.0
C115 C 0.71882 0.38364 0.03605 0.0
N116 N 0.73028 0.32732 0.05613 0.0
C117 C 0.74665 0.33421 0.04804 0.0
Co118 Co 0.4888 0.15295 0.18749 0.0
Co119 Co 0.49776 0.29452 0.17779 0.0
O120 O 0.48445 0.23687 0.18791 0.0
C121 C 0.50695 0.19242 0.20889 0.0
O122 O 0.51947 0.22856 0.20278 0.0
C123 C 0.44758 0.30085 0.17515 0.0
O124 O 0.44912 0.24391 0.17414 0.0
O125 O 0.4909 0.24603 0.16477 0.0
O126 O 0.48383 0.1533 0.17081 0.0
H127 H 0.54698 0.3675 0.14598 0.0
H128 H 0.45473 0.20365 0.20304 0.0
O129 O 0.49411 0.15448 0.20417 0.0
H130 H 0.40962 0.07319 0.17899 0.0
H131 H 0.48014 0.94718 0.20309 0.0
H132 H 0.51265 0.07035 0.17265 0.0
H133 H 0.45189 0.08279 0.17672 0.0
H134 H 0.47457 0.05468 0.2027 0.0
O135 O 0.46597 0.33136 0.17639 0.0
H136 H 0.53087 0.29277 0.15899 0.0
H137 H 0.49124 0.42338 0.17478 0.0
H138 H 0.51849 0.96305 0.17265 0.0
H139 H 0.41255 0.19511 0.20563 0.0
H140 H 0.50217 0.90071 0.18796 0.0
H141 H 0.38969 0.1297 0.19352 0.0
O142 O 0.52239 0.1622 0.18484 0.0
H143 H 0.4806 0.38885 0.2142 0.0
H144 H 0.53979 0.35727 0.18556 0.0
H145 H 0.54981 0.41382 0.20216 0.0
H146 H 0.5201 0.4298 0.21663 0.0
H147 H 0.47136 0.33243 0.19749 0.0
H148 H 0.50678 0.49956 0.16189 0.0
H149 H 0.53493 0.47175 0.14739 0.0
O150 O 0.52907 0.2556 0.17901 0.0
C151 C 0.48593 0.19255 0.16302 0.0
C152 C 0.5348 0.3802 0.15229 0.0
C153 C 0.5122 0.45431 0.16121 0.0
N154 N 0.51033 0.35389 0.1677 0.0
C155 C 0.52569 0.33812 0.15971 0.0
C156 C 0.50344 0.41102 0.16847 0.0
C157 C 0.528 0.43868 0.15308 0.0
C158 C 0.44496 0.17449 0.19783 0.0
N159 N 0.45579 0.14335 0.1898 0.0
C160 C 0.42106 0.17007 0.1993 0.0
C161 C 0.40823 0.13343 0.19249 0.0
C162 C 0.41941 0.10173 0.18433 0.0
C163 C 0.44333 0.10733 0.18309 0.0
C164 C 0.4873 0.97386 0.19637 0.0
C165 C 0.50536 0.04346 0.17929 0.0
C166 C 0.48425 0.03472 0.19612 0.0
N167 N 0.49313 0.06859 0.18762 0.0
C168 C 0.50879 0.98276 0.17927 0.0
C169 C 0.49966 0.94781 0.18787 0.0
C170 C 0.53585 0.20311 0.18141 0.0
C171 C 0.49367 0.38239 0.20793 0.0
C172 C 0.52676 0.36426 0.1918 0.0
C173 C 0.53253 0.3963 0.20118 0.0
C174 C 0.51584 0.40527 0.2093 0.0
N175 N 0.50498 0.34197 0.19052 0.0
C176 C 0.48851 0.35071 0.19843 0.0
Co177 Co 0.74962 0.13392 0.19218 0.0
Co178 Co 0.74081 0.99419 0.18281 0.0
O179 O 0.75349 0.04974 0.19303 0.0
C180 C 0.72958 0.09094 0.2132 0.0
O181 O 0.71545 0.06123 0.20691 0.0
C182 C 0.79108 0.98582 0.18156 0.0
O183 O 0.7901 0.04323 0.18093 0.0
O184 O 0.74937 0.04437 0.16987 0.0
O185 O 0.75582 0.13652 0.17562 0.0
H186 H 0.6943 0.92872 0.14987 0.0
H187 H 0.78244 0.07873 0.2086 0.0
O188 O 0.74333 0.1286 0.20873 0.0
H189 H 0.82954 0.21449 0.18553 0.0
H190 H 0.75788 0.33628 0.20747 0.0
H191 H 0.7273 0.22027 0.17655 0.0
H192 H 0.78751 0.2055 0.18215 0.0
H193 H 0.76304 0.22866 0.20749 0.0
O194 O 0.77238 0.95594 0.18231 0.0
H195 H 0.70973 0.00064 0.16302 0.0
H196 H 0.74642 0.86536 0.18062 0.0
H197 H 0.72191 0.32776 0.17613 0.0
H198 H 0.82431 0.08674 0.21232 0.0
H199 H 0.73726 0.3865 0.19168 0.0
H200 H 0.84819 0.15484 0.20072 0.0
O201 O 0.71622 0.12645 0.18867 0.0
H202 H 0.75384 0.8954 0.22024 0.0
H203 H 0.69766 0.93226 0.18972 0.0
H204 H 0.68566 0.87487 0.20642 0.0
H205 H 0.71384 0.85635 0.22184 0.0
H206 H 0.76509 0.95252 0.2034 0.0
H207 H 0.73152 0.79194 0.16761 0.0
H208 H 0.70519 0.82353 0.15214 0.0
O209 O 0.70973 0.03435 0.18295 0.0
C210 C 0.75468 0.09801 0.16803 0.0
C211 C 0.70568 0.91438 0.15661 0.0
C212 C 0.7266 0.83762 0.16656 0.0
N213 N 0.72875 0.93701 0.17263 0.0
C214 C 0.7144 0.95486 0.1641 0.0
C215 C 0.735 0.87935 0.17388 0.0
C216 C 0.71182 0.85538 0.15788 0.0
C217 C 0.79262 0.10913 0.20362 0.0
N218 N 0.78248 0.14215 0.19525 0.0
C219 C 0.81636 0.1132 0.20572 0.0
C220 C 0.82976 0.15135 0.19919 0.0
C221 C 0.8193 0.1848 0.19067 0.0
C222 C 0.79551 0.17952 0.18879 0.0
C223 C 0.75116 0.31118 0.20063 0.0
C224 C 0.73418 0.2456 0.1833 0.0
C225 C 0.75398 0.25027 0.20061 0.0
N226 N 0.74566 0.2184 0.19198 0.0
C227 C 0.731 0.30641 0.18304 0.0
C228 C 0.7396 0.33933 0.19177 0.0
C229 C 0.70295 0.08666 0.18493 0.0
C230 C 0.74145 0.9029 0.21355 0.0
C231 C 0.71005 0.92399 0.19637 0.0
C232 C 0.70316 0.89152 0.2058 0.0
C233 C 0.71899 0.8811 0.21445 0.0
N234 N 0.7321 0.94525 0.19555 0.0
C235 C 0.74775 0.935 0.20397 0.0
Co236 Co 0.50698 0.87401 0.94014 0.0
Co237 Co 0.49872 0.01346 0.9291 0.0
O238 O 0.51121 0.95806 0.93999 0.0
C239 C 0.48698 0.91879 0.96062 0.0
O240 O 0.47429 0.95175 0.95388 0.0
C241 C 0.54903 0.01937 0.92773 0.0
O242 O 0.54765 0.96208 0.92745 0.0
O243 O 0.50683 0.96211 0.91674 0.0
O244 O 0.5133 0.8704 0.92362 0.0
H245 H 0.45238 0.07895 0.89543 0.0
H246 H 0.53972 0.92836 0.95609 0.0
O247 O 0.50038 0.87991 0.95662 0.0
H248 H 0.58673 0.79148 0.93451 0.0
H249 H 0.5143 0.67204 0.95774 0.0
H250 H 0.48448 0.78777 0.92543 0.0
H251 H 0.54475 0.80117 0.93098 0.0
H252 H 0.51988 0.77946 0.95655 0.0
O253 O 0.53052 0.05016 0.92819 0.0
H254 H 0.46739 0.00724 0.90946 0.0
H255 H 0.50521 0.14175 0.92527 0.0
H256 H 0.47866 0.68048 0.92623 0.0
H257 H 0.58158 0.91975 0.95994 0.0
H258 H 0.49363 0.62187 0.94248 0.0
H259 H 0.60541 0.85109 0.94908 0.0
O260 O 0.47366 0.88255 0.93651 0.0
H261 H 0.51255 0.11509 0.96519 0.0
H262 H 0.456 0.07784 0.93523 0.0
H263 H 0.44446 0.13754 0.95113 0.0
H264 H 0.47283 0.15632 0.96627 0.0
H265 H 0.52334 0.0556 0.94915 0.0
H266 H 0.49074 0.21495 0.91137 0.0
H267 H 0.46406 0.18365 0.89634 0.0
O268 O 0.46739 0.97468 0.92979 0.0
C269 C 0.51201 0.90828 0.91553 0.0
C270 C 0.46392 0.09317 0.90197 0.0
C271 C 0.48548 0.16949 0.9109 0.0
N272 N 0.48695 0.0705 0.91823 0.0
C273 C 0.4724 0.05281 0.90995 0.0
C274 C 0.49363 0.12789 0.91874 0.0
C275 C 0.4705 0.1519 0.90247 0.0
C276 C 0.54989 0.89781 0.95143 0.0
N277 N 0.53976 0.86489 0.94339 0.0
C278 C 0.57362 0.89335 0.95361 0.0
C279 C 0.58699 0.85488 0.9475 0.0
C280 C 0.57652 0.82145 0.93932 0.0
C281 C 0.55275 0.82712 0.93735 0.0
C282 C 0.50774 0.69708 0.95061 0.0
C283 C 0.49118 0.7625 0.93249 0.0
C284 C 0.5108 0.75788 0.9499 0.0
N285 N 0.50267 0.78967 0.94089 0.0
C286 C 0.48777 0.7018 0.93291 0.0
C287 C 0.49615 0.66895 0.94204 0.0
C288 C 0.46048 0.92264 0.93239 0.0
C289 C 0.50007 0.10743 0.95862 0.0
C290 C 0.46846 0.08612 0.94176 0.0
C291 C 0.46183 0.11992 0.95074 0.0
C292 C 0.47776 0.13047 0.95923 0.0
N293 N 0.49036 0.06367 0.94123 0.0
C294 C 0.50611 0.074 0.94949 0.0
Co295 Co 0.24618 0.85586 0.93891 0.0
Co296 Co 0.25602 0.71316 0.93149 0.0
O297 O 0.24228 0.772 0.94064 0.0
C298 C 0.26397 0.82011 0.96098 0.0
O299 O 0.27777 0.78569 0.9555 0.0
C300 C 0.20597 0.70453 0.92888 0.0
O301 O 0.2071 0.76149 0.92724 0.0
O302 O 0.24885 0.75905 0.91773 0.0
O303 O 0.24166 0.85279 0.92223 0.0
H304 H 0.3058 0.63676 0.9009 0.0
H305 H 0.2119 0.80669 0.95503 0.0
O306 O 0.25092 0.85665 0.95562 0.0
H307 H 0.16692 0.93307 0.92884 0.0
H308 H 0.23613 0.06348 0.95128 0.0
H309 H 0.27002 0.93677 0.92296 0.0
H310 H 0.20924 0.92342 0.92686 0.0
H311 H 0.2311 0.9559 0.95252 0.0
O312 O 0.22455 0.67488 0.93059 0.0
H313 H 0.28911 0.713 0.91268 0.0
H314 H 0.25053 0.58369 0.93062 0.0
H315 H 0.27534 0.0441 0.92134 0.0
H316 H 0.16968 0.81543 0.95735 0.0
H317 H 0.25832 0.10821 0.93558 0.0
H318 H 0.14688 0.87882 0.94417 0.0
O319 O 0.27988 0.84722 0.93657 0.0
H320 H 0.23935 0.62562 0.96944 0.0
H321 H 0.29844 0.65357 0.94033 0.0
H322 H 0.30879 0.60099 0.9579 0.0
H323 H 0.27914 0.58691 0.97262 0.0
H324 H 0.22977 0.67795 0.95176 0.0
H325 H 0.26668 0.506 0.91899 0.0
H326 H 0.29459 0.5324 0.90404 0.0
O327 O 0.28701 0.75341 0.93207 0.0
C328 C 0.24379 0.81212 0.91511 0.0
C329 C 0.29373 0.62468 0.90742 0.0
C330 C 0.27174 0.55129 0.91757 0.0
N331 N 0.26907 0.65264 0.92239 0.0
C332 C 0.28429 0.66762 0.91414 0.0
C333 C 0.26264 0.59543 0.92411 0.0
C334 C 0.28741 0.56614 0.90918 0.0
C335 C 0.20217 0.83498 0.94934 0.0
N336 N 0.21307 0.86497 0.94088 0.0
C337 C 0.17823 0.8395 0.95066 0.0
C338 C 0.16545 0.87501 0.94326 0.0
C339 C 0.17668 0.90544 0.93465 0.0
C340 C 0.20064 0.89979 0.93357 0.0
C341 C 0.24359 0.03602 0.94502 0.0
C342 C 0.26243 0.96443 0.92914 0.0
C343 C 0.24084 0.97511 0.94569 0.0
N344 N 0.25009 0.94025 0.93777 0.0
C345 C 0.26556 0.02515 0.9282 0.0
C346 C 0.25603 0.06109 0.9362 0.0
C347 C 0.29353 0.80631 0.9337 0.0
C348 C 0.25239 0.63123 0.96307 0.0
C349 C 0.28543 0.64729 0.94668 0.0
C350 C 0.29138 0.61752 0.95661 0.0
C351 C 0.27473 0.60962 0.96486 0.0
N352 N 0.26349 0.66836 0.94499 0.0
C353 C 0.24704 0.6606 0.95302 0.0
Co354 Co 0.50943 0.84658 0.81105 0.0
Co355 Co 0.50114 0.70396 0.82036 0.0
O356 O 0.51412 0.76278 0.81034 0.0
C357 C 0.49093 0.80862 0.78962 0.0
O358 O 0.47902 0.77079 0.79565 0.0
C359 C 0.55135 0.69894 0.82287 0.0
O360 O 0.54967 0.75595 0.82372 0.0
O361 O 0.50786 0.75172 0.83348 0.0
O362 O 0.51484 0.8449 0.8277 0.0
H363 H 0.45255 0.62753 0.85212 0.0
H364 H 0.54322 0.79854 0.79508 0.0
O365 O 0.50361 0.84661 0.79441 0.0
H366 H 0.58844 0.92844 0.81918 0.0
H367 H 0.51667 0.05392 0.79606 0.0
H368 H 0.48567 0.92706 0.82634 0.0
H369 H 0.54635 0.91679 0.82181 0.0
H370 H 0.52277 0.94664 0.79606 0.0
O371 O 0.53306 0.66802 0.82169 0.0
H372 H 0.46816 0.70351 0.83922 0.0
H373 H 0.50827 0.57514 0.82306 0.0
H374 H 0.47931 0.03409 0.82672 0.0
H375 H 0.58522 0.80918 0.79212 0.0
H376 H 0.49486 0.09829 0.81149 0.0
H377 H 0.60814 0.87436 0.80425 0.0
O378 O 0.47599 0.83611 0.81387 0.0
H379 H 0.51872 0.61208 0.78376 0.0
H380 H 0.4594 0.64035 0.81248 0.0
H381 H 0.44966 0.58424 0.79578 0.0
H382 H 0.47944 0.56991 0.78128 0.0
H383 H 0.52767 0.66805 0.80056 0.0
H384 H 0.49323 0.49774 0.83583 0.0
H385 H 0.4651 0.52379 0.85046 0.0
O386 O 0.46964 0.74189 0.81926 0.0
C387 C 0.51284 0.80503 0.83538 0.0
C388 C 0.46473 0.61559 0.84575 0.0
C389 C 0.48759 0.54276 0.83662 0.0
N390 N 0.48891 0.64358 0.83033 0.0
C391 C 0.47355 0.65838 0.8384 0.0
C392 C 0.49606 0.58673 0.82942 0.0
C393 C 0.4718 0.5574 0.84482 0.0
C394 C 0.55301 0.82755 0.8003 0.0
N395 N 0.54231 0.85742 0.80855 0.0
C396 C 0.57682 0.83317 0.79862 0.0
C397 C 0.58967 0.86968 0.80544 0.0
C398 C 0.57863 0.90001 0.81383 0.0
C399 C 0.5548 0.89324 0.81528 0.0
C400 C 0.50984 0.02642 0.80275 0.0
C401 C 0.49262 0.95476 0.81973 0.0
C402 C 0.5132 0.96568 0.80278 0.0
N403 N 0.50473 0.93078 0.81123 0.0
C404 C 0.4889 0.01531 0.81997 0.0
C405 C 0.49761 0.05129 0.81141 0.0
C406 C 0.46269 0.79451 0.81713 0.0
C407 C 0.50562 0.61784 0.79005 0.0
C408 C 0.47245 0.63411 0.80622 0.0
C409 C 0.46685 0.60231 0.79678 0.0
C410 C 0.48357 0.59426 0.78865 0.0
N411 N 0.49412 0.65706 0.80752 0.0
C412 C 0.51063 0.64926 0.7996 0.0
Co413 Co 0.24799 0.86568 0.80924 0.0
Co414 Co 0.25857 0.00578 0.81797 0.0
O415 O 0.2445 0.94987 0.80825 0.0
C416 C 0.26563 0.90669 0.78758 0.0
O417 O 0.28049 0.9368 0.79341 0.0
C418 C 0.20864 0.0152 0.82049 0.0
O419 O 0.20967 0.95794 0.82156 0.0
O420 O 0.25132 0.95683 0.83127 0.0
O421 O 0.24367 0.86453 0.82596 0.0
H422 H 0.30912 0.07261 0.84941 0.0
H423 H 0.21362 0.92082 0.79357 0.0
O424 O 0.25235 0.86953 0.79252 0.0
H425 H 0.16854 0.78865 0.8183 0.0
H426 H 0.23682 0.66242 0.79479 0.0
H427 H 0.27164 0.77978 0.82449 0.0
H428 H 0.21094 0.79613 0.82047 0.0
H429 H 0.23226 0.77022 0.7946 0.0
O430 O 0.22727 0.04483 0.81909 0.0
H431 H 0.29188 6e-05 0.83691 0.0
H432 H 0.25371 0.13491 0.81996 0.0
H433 H 0.27649 0.67212 0.82506 0.0
H434 H 0.17133 0.91433 0.79106 0.0
H435 H 0.25901 0.6127 0.81013 0.0
H436 H 0.14847 0.84805 0.8035 0.0
O437 O 0.28178 0.87236 0.81181 0.0
H438 H 0.24186 0.10275 0.7807 0.0
H439 H 0.30117 0.0659 0.80981 0.0
H440 H 0.31154 0.12218 0.79272 0.0
H441 H 0.28177 0.14075 0.77801 0.0
H442 H 0.23226 0.04671 0.7979 0.0
H443 H 0.27041 0.20897 0.83233 0.0
H444 H 0.29839 0.17791 0.84716 0.0
O445 O 0.28935 0.96465 0.81715 0.0
C446 C 0.24595 0.9035 0.83342 0.0
C447 C 0.29702 0.08671 0.84296 0.0
C448 C 0.27526 0.16324 0.83338 0.0
N449 N 0.27201 0.06343 0.82766 0.0
C450 C 0.28727 0.04588 0.83583 0.0
C451 C 0.26585 0.12116 0.82642 0.0
C452 C 0.29097 0.14579 0.8417 0.0
C453 C 0.20387 0.89121 0.79892 0.0
N454 N 0.21479 0.85837 0.80708 0.0
C455 C 0.17989 0.88799 0.7975 0.0
C456 C 0.16707 0.85086 0.80449 0.0
C457 C 0.17832 0.81755 0.8128 0.0
C458 C 0.20232 0.82196 0.81399 0.0
C459 C 0.24448 0.68781 0.80135 0.0
C460 C 0.26384 0.75416 0.81801 0.0
C461 C 0.24199 0.74882 0.80127 0.0
N462 N 0.2515 0.78107 0.80957 0.0
C463 C 0.26672 0.69324 0.81836 0.0
C464 C 0.25692 0.65994 0.80997 0.0
C465 C 0.29563 0.91204 0.81511 0.0
C466 C 0.25494 0.09523 0.78707 0.0
C467 C 0.28811 0.07415 0.80346 0.0
C468 C 0.29407 0.106 0.79381 0.0
C469 C 0.27736 0.11644 0.78556 0.0
N470 N 0.26609 0.05352 0.80488 0.0
C471 C 0.24958 0.06373 0.79685 0.0
Co472 Co 0.48926 0.6218 0.55795 0.0
Co473 Co 0.49698 0.48314 0.56944 0.0
O474 O 0.48427 0.53802 0.55852 0.0
C475 C 0.50737 0.57369 0.53736 0.0
O476 O 0.52008 0.54033 0.54402 0.0
C477 C 0.44672 0.47984 0.57155 0.0
O478 O 0.4485 0.53711 0.57164 0.0
O479 O 0.49009 0.53625 0.58171 0.0
O480 O 0.48417 0.62758 0.57453 0.0
H481 H 0.54491 0.41876 0.60267 0.0
H482 H 0.45494 0.56765 0.54274 0.0
O483 O 0.49466 0.61383 0.54142 0.0
H484 H 0.41072 0.70938 0.56454 0.0
H485 H 0.48246 0.8223 0.53967 0.0
H486 H 0.5136 0.70834 0.57192 0.0
H487 H 0.45283 0.69776 0.56742 0.0
H488 H 0.47601 0.71533 0.54139 0.0
O489 O 0.46498 0.4482 0.57093 0.0
H490 H 0.52957 0.4898 0.5886 0.0
H491 H 0.48969 0.35557 0.57386 0.0
H492 H 0.52031 0.81522 0.57059 0.0
H493 H 0.41292 0.57815 0.53955 0.0
H494 H 0.50468 0.87293 0.55437 0.0
H495 H 0.39049 0.64926 0.55052 0.0
O496 O 0.52273 0.61173 0.56107 0.0
H497 H 0.48006 0.37812 0.53401 0.0
H498 H 0.53878 0.41596 0.56296 0.0
H499 H 0.54882 0.35385 0.54717 0.0
H500 H 0.51936 0.33475 0.53254 0.0
H501 H 0.47078 0.44002 0.54993 0.0
H502 H 0.50447 0.28306 0.58781 0.0
H503 H 0.53236 0.31454 0.60232 0.0
O504 O 0.52856 0.5202 0.56818 0.0
C505 C 0.48561 0.59061 0.58276 0.0
C506 C 0.53285 0.40446 0.59636 0.0
C507 C 0.51012 0.3283 0.58803 0.0
N508 N 0.50896 0.42663 0.58036 0.0
C509 C 0.52417 0.44443 0.58835 0.0
C510 C 0.50179 0.36953 0.58017 0.0
C511 C 0.52577 0.346 0.59617 0.0
C512 C 0.44538 0.59925 0.54745 0.0
N513 N 0.45637 0.63245 0.55519 0.0
C514 C 0.42155 0.60478 0.54565 0.0
C515 C 0.40897 0.64462 0.55182 0.0
C516 C 0.42031 0.67835 0.55969 0.0
C517 C 0.44415 0.67157 0.56129 0.0
C518 C 0.48932 0.79765 0.54679 0.0
C519 C 0.50661 0.73323 0.56488 0.0
C520 C 0.48576 0.7371 0.54779 0.0
N521 N 0.49426 0.70581 0.55678 0.0
C522 C 0.51053 0.7937 0.56415 0.0
C523 C 0.50178 0.82604 0.55504 0.0
C524 C 0.53579 0.57144 0.56522 0.0
C525 C 0.49301 0.38591 0.54036 0.0
C526 C 0.52584 0.40756 0.55665 0.0
C527 C 0.53163 0.3724 0.54773 0.0
C528 C 0.51508 0.36167 0.53953 0.0
N529 N 0.50417 0.43118 0.55741 0.0
C530 C 0.48783 0.42071 0.54942 0.0
Co531 Co 0.7507 0.62946 0.55968 0.0
Co532 Co 0.74185 0.77145 0.56776 0.0
O533 O 0.75521 0.71324 0.55837 0.0
C534 C 0.73298 0.66884 0.53784 0.0
O535 O 0.71936 0.70268 0.54353 0.0
C536 C 0.79199 0.77804 0.57042 0.0
O537 O 0.79064 0.72096 0.57183 0.0
O538 O 0.74873 0.72361 0.58133 0.0
O539 O 0.75516 0.63015 0.57638 0.0
H540 H 0.69257 0.84619 0.59868 0.0
H541 H 0.78535 0.6793 0.54382 0.0
O542 O 0.74597 0.63126 0.54297 0.0
H543 H 0.82941 0.54769 0.56944 0.0
H544 H 0.75934 0.42341 0.54626 0.0
H545 H 0.72633 0.54741 0.57524 0.0
H546 H 0.78715 0.55879 0.57143 0.0
H547 H 0.7651 0.53082 0.54557 0.0
O548 O 0.77354 0.80835 0.56882 0.0
H549 H 0.70879 0.77073 0.58659 0.0
H550 H 0.74812 0.90048 0.56917 0.0
H551 H 0.72031 0.44022 0.57632 0.0
H552 H 0.82752 0.66918 0.5415 0.0
H553 H 0.73688 0.37746 0.56175 0.0
H554 H 0.84986 0.60316 0.5544 0.0
O555 O 0.71705 0.63915 0.56209 0.0
H556 H 0.75902 0.8619 0.5301 0.0
H557 H 0.69983 0.83386 0.55916 0.0
H558 H 0.68977 0.88832 0.54175 0.0
H559 H 0.71947 0.90239 0.52706 0.0
H560 H 0.76831 0.80774 0.54763 0.0
H561 H 0.73246 0.9774 0.58112 0.0
H562 H 0.7044 0.95038 0.59598 0.0
O563 O 0.71059 0.73263 0.567 0.0
C564 C 0.75333 0.66997 0.58369 0.0
C565 C 0.7047 0.85854 0.59221 0.0
C566 C 0.72712 0.93218 0.58236 0.0
N567 N 0.72919 0.83138 0.57712 0.0
C568 C 0.71388 0.81605 0.58531 0.0
C569 C 0.73596 0.88848 0.57563 0.0
C570 C 0.71137 0.91699 0.5907 0.0
C571 C 0.79487 0.64987 0.54938 0.0
N572 N 0.78375 0.61921 0.55769 0.0
C573 C 0.81878 0.64457 0.54806 0.0
C574 C 0.83132 0.60759 0.55531 0.0
C575 C 0.81985 0.57648 0.56376 0.0
C576 C 0.79593 0.58294 0.56484 0.0
C577 C 0.75208 0.45028 0.55267 0.0
C578 C 0.73374 0.52033 0.56892 0.0
C579 C 0.75524 0.51108 0.55231 0.0
N580 N 0.74622 0.54518 0.56041 0.0
C581 C 0.7302 0.45969 0.56955 0.0
C582 C 0.73948 0.42452 0.56136 0.0
C583 C 0.70369 0.68028 0.56515 0.0
C584 C 0.74596 0.8563 0.53646 0.0
C585 C 0.71287 0.84019 0.55283 0.0
C586 C 0.70708 0.87101 0.54299 0.0
C587 C 0.72376 0.87892 0.53475 0.0
N588 N 0.73468 0.81809 0.55444 0.0
C589 C 0.75116 0.8259 0.54643 0.0
Co590 Co 0.48871 0.67784 0.6869 0.0
Co591 Co 0.49784 0.81766 0.67624 0.0
O592 O 0.48394 0.76176 0.68656 0.0
C593 C 0.5041 0.72173 0.70842 0.0
O594 O 0.51662 0.75828 0.70239 0.0
C595 C 0.44775 0.82413 0.673 0.0
O596 O 0.44927 0.76719 0.67193 0.0
O597 O 0.49149 0.76703 0.66352 0.0
O598 O 0.48578 0.6747 0.67013 0.0
H599 H 0.54821 0.88491 0.64444 0.0
H600 H 0.45253 0.73039 0.70104 0.0
O601 O 0.49201 0.68247 0.70364 0.0
H602 H 0.41109 0.59396 0.67671 0.0
H603 H 0.47891 0.47452 0.70352 0.0
H604 H 0.51514 0.59349 0.67349 0.0
H605 H 0.45353 0.6044 0.67559 0.0
H606 H 0.47286 0.58181 0.70225 0.0
O607 O 0.46614 0.85447 0.67438 0.0
H608 H 0.53161 0.81249 0.65777 0.0
H609 H 0.49157 0.94611 0.67242 0.0
H610 H 0.52152 0.48631 0.67439 0.0
H611 H 0.41012 0.72109 0.70247 0.0
H612 H 0.50332 0.42611 0.68949 0.0
H613 H 0.38911 0.65265 0.69022 0.0
O614 O 0.52253 0.68787 0.6853 0.0
H615 H 0.47915 0.91911 0.71176 0.0
H616 H 0.53962 0.8814 0.68404 0.0
H617 H 0.54893 0.94118 0.70032 0.0
H618 H 0.51858 0.96027 0.71432 0.0
H619 H 0.47062 0.8594 0.6954 0.0
H620 H 0.50762 0.02001 0.6592 0.0
H621 H 0.53622 0.98952 0.64511 0.0
O622 O 0.52913 0.77877 0.67798 0.0
C623 C 0.48752 0.71273 0.6621 0.0
C624 C 0.53584 0.89878 0.65057 0.0
C625 C 0.51303 0.97459 0.65884 0.0
N626 N 0.51085 0.87526 0.66592 0.0
C627 C 0.52645 0.85802 0.65816 0.0
C628 C 0.50399 0.93259 0.66629 0.0
C629 C 0.52908 0.95746 0.65094 0.0
C630 C 0.44356 0.69997 0.69577 0.0
N631 N 0.45551 0.66763 0.6883 0.0
C632 C 0.41952 0.6951 0.69658 0.0
C633 C 0.40774 0.65676 0.68969 0.0
C634 C 0.42006 0.62384 0.68211 0.0
C635 C 0.44408 0.62994 0.68151 0.0
C636 C 0.48689 0.50026 0.69689 0.0
C637 C 0.50704 0.56748 0.68004 0.0
C638 C 0.48355 0.56098 0.69614 0.0
N639 N 0.49346 0.59365 0.68775 0.0
C640 C 0.51077 0.50687 0.68052 0.0
C641 C 0.50058 0.47312 0.68901 0.0
C642 C 0.53592 0.72796 0.68151 0.0
C643 C 0.4925 0.91129 0.70569 0.0
C644 C 0.52631 0.8897 0.69009 0.0
C645 C 0.53168 0.92357 0.69928 0.0
C646 C 0.51464 0.9343 0.70713 0.0
N647 N 0.50456 0.86731 0.68873 0.0
C648 C 0.48774 0.87775 0.69638 0.0
Co649 Co 0.74398 0.61399 0.68972 0.0
Co650 Co 0.73316 0.47452 0.68066 0.0
O651 O 0.74782 0.52985 0.69034 0.0
C652 C 0.72866 0.57104 0.71165 0.0
O653 O 0.71437 0.53833 0.70601 0.0
C654 C 0.78299 0.46644 0.67732 0.0
O655 O 0.78152 0.5236 0.67615 0.0
O656 O 0.73937 0.52456 0.66741 0.0
O657 O 0.74665 0.61664 0.6729 0.0
H658 H 0.68099 0.40907 0.64971 0.0
H659 H 0.78002 0.55909 0.70446 0.0
O660 O 0.74122 0.60913 0.70651 0.0
H661 H 0.82215 0.69331 0.6789 0.0
H662 H 0.75605 0.81662 0.70433 0.0
H663 H 0.7183 0.70001 0.67533 0.0
H664 H 0.77961 0.68517 0.67776 0.0
H665 H 0.76099 0.70897 0.70417 0.0
O666 O 0.7646 0.43618 0.67902 0.0
H667 H 0.69874 0.48099 0.66218 0.0
H668 H 0.73823 0.34573 0.67825 0.0
H669 H 0.71303 0.80756 0.67511 0.0
H670 H 0.82251 0.56618 0.70594 0.0
H671 H 0.732 0.86659 0.68969 0.0
H672 H 0.84388 0.63348 0.69307 0.0
O673 O 0.71004 0.60625 0.68809 0.0
H674 H 0.75241 0.37468 0.71739 0.0
H675 H 0.69123 0.41316 0.68927 0.0
H676 H 0.68203 0.35539 0.70635 0.0
H677 H 0.71274 0.33604 0.72057 0.0
H678 H 0.76083 0.43224 0.70021 0.0
H679 H 0.72104 0.27229 0.6659 0.0
H680 H 0.69212 0.30387 0.65153 0.0
O681 O 0.70223 0.51518 0.68202 0.0
C682 C 0.74413 0.5783 0.66534 0.0
C683 C 0.69348 0.39473 0.65596 0.0
C684 C 0.71599 0.31797 0.66504 0.0
N685 N 0.71928 0.41737 0.671 0.0
C686 C 0.70352 0.43521 0.66307 0.0
C687 C 0.72569 0.35971 0.672 0.0
C688 C 0.69977 0.33572 0.65699 0.0
C689 C 0.78914 0.58909 0.69893 0.0
N690 N 0.77732 0.62209 0.6911 0.0
C691 C 0.81322 0.59267 0.69977 0.0
C692 C 0.82521 0.63038 0.69253 0.0
C693 C 0.81303 0.66393 0.68457 0.0
C694 C 0.78895 0.65913 0.68396 0.0
C695 C 0.74774 0.7914 0.69792 0.0
C696 C 0.72673 0.72549 0.68165 0.0
C697 C 0.75044 0.73047 0.6978 0.0
N698 N 0.74012 0.69845 0.68969 0.0
C699 C 0.72363 0.78632 0.68151 0.0
C700 C 0.73425 0.81941 0.6897 0.0
C701 C 0.69608 0.56685 0.68481 0.0
C702 C 0.73891 0.38259 0.71123 0.0
C703 C 0.7047 0.40457 0.6954 0.0
C704 C 0.6994 0.37188 0.70505 0.0
C705 C 0.71664 0.36101 0.71302 0.0
N706 N 0.72658 0.42561 0.69371 0.0
C707 C 0.7436 0.41492 0.70147 0.0
Co708 Co 0.50453 0.37892 0.43958 0.0
Co709 Co 0.49694 0.51894 0.42872 0.0
O710 O 0.50937 0.46273 0.43946 0.0
C711 C 0.48557 0.42394 0.46025 0.0
O712 O 0.47289 0.45768 0.45364 0.0
C713 C 0.54727 0.52336 0.42709 0.0
O714 O 0.54569 0.46615 0.42663 0.0
O715 O 0.50444 0.4677 0.41623 0.0
O716 O 0.51027 0.37553 0.42301 0.0
H717 H 0.45017 0.58739 0.39538 0.0
H718 H 0.5382 0.43134 0.45533 0.0
O719 O 0.49854 0.3846 0.4561 0.0
H720 H 0.58347 0.29301 0.43325 0.0
H721 H 0.51103 0.17617 0.45691 0.0
H722 H 0.48091 0.29415 0.42496 0.0
H723 H 0.54145 0.3047 0.43004 0.0
H724 H 0.51734 0.28334 0.45579 0.0
O725 O 0.52889 0.55451 0.4277 0.0
H726 H 0.46512 0.51461 0.40923 0.0
H727 H 0.50409 0.64711 0.42503 0.0
H728 H 0.47436 0.18712 0.42569 0.0
H729 H 0.58011 0.42073 0.45885 0.0
H730 H 0.48948 0.12739 0.44176 0.0
H731 H 0.60306 0.35132 0.44774 0.0
O732 O 0.47115 0.38902 0.43622 0.0
H733 H 0.51222 0.61866 0.46487 0.0
H734 H 0.45476 0.58474 0.43516 0.0
H735 H 0.44396 0.64425 0.45121 0.0
H736 H 0.47279 0.66136 0.46622 0.0
H737 H 0.52227 0.55938 0.4487 0.0
H738 H 0.4897 0.72135 0.4113 0.0
H739 H 0.46247 0.6916 0.39637 0.0
O740 O 0.4654 0.48141 0.42953 0.0
C741 C 0.5091 0.4136 0.41495 0.0
C742 C 0.46195 0.60093 0.40188 0.0
C743 C 0.48416 0.67611 0.4108 0.0
N744 N 0.48525 0.57681 0.41798 0.0
C745 C 0.4704 0.55997 0.40976 0.0
C746 C 0.49228 0.63392 0.41853 0.0
C747 C 0.46888 0.65938 0.40243 0.0
C748 C 0.54799 0.40048 0.45055 0.0
N749 N 0.53735 0.36827 0.44255 0.0
C750 C 0.57175 0.39489 0.45255 0.0
C751 C 0.58463 0.35601 0.4463 0.0
C752 C 0.57365 0.3233 0.43816 0.0
C753 C 0.54986 0.3301 0.43638 0.0
C754 C 0.5044 0.20171 0.44986 0.0
C755 C 0.48768 0.26838 0.43194 0.0
C756 C 0.50787 0.26237 0.44919 0.0
N757 N 0.49966 0.29478 0.44028 0.0
C758 C 0.48385 0.20783 0.43233 0.0
C759 C 0.49231 0.17436 0.44135 0.0
C760 C 0.45816 0.42975 0.43218 0.0
C761 C 0.49955 0.61173 0.45836 0.0
C762 C 0.46743 0.59229 0.44164 0.0
C763 C 0.46121 0.62598 0.4507 0.0
C764 C 0.4774 0.63559 0.45912 0.0
N765 N 0.48917 0.56901 0.44096 0.0
C766 C 0.50517 0.57842 0.44916 0.0
Co767 Co 0.2435 0.37342 0.44012 0.0
Co768 Co 0.25214 0.2307 0.43239 0.0
O769 O 0.23919 0.28959 0.44178 0.0
C770 C 0.26223 0.33609 0.46191 0.0
O771 O 0.27576 0.30197 0.45623 0.0
C772 C 0.20192 0.22323 0.43034 0.0
O773 O 0.20305 0.28039 0.42901 0.0
O774 O 0.24442 0.27736 0.4188 0.0
O775 O 0.23807 0.37122 0.42349 0.0
H776 H 0.29994 0.15443 0.40107 0.0
H777 H 0.20978 0.32472 0.45657 0.0
O778 O 0.24908 0.37323 0.45677 0.0
H779 H 0.16421 0.45387 0.43112 0.0
H780 H 0.2353 0.58074 0.45294 0.0
H781 H 0.26698 0.45419 0.42402 0.0
H782 H 0.20634 0.44281 0.42863 0.0
H783 H 0.2297 0.47332 0.45406 0.0
O784 O 0.22051 0.19326 0.43175 0.0
H785 H 0.28419 0.23053 0.41317 0.0
H786 H 0.24609 0.10141 0.4314 0.0
H787 H 0.27284 0.56136 0.42251 0.0
H788 H 0.16776 0.33487 0.45941 0.0
H789 H 0.25693 0.6254 0.43705 0.0
H790 H 0.14466 0.39964 0.4466 0.0
O791 O 0.27703 0.36379 0.43735 0.0
H792 H 0.23695 0.14235 0.47042 0.0
H793 H 0.2947 0.1694 0.44066 0.0
H794 H 0.30565 0.11594 0.45805 0.0
H795 H 0.27668 0.10232 0.47309 0.0
H796 H 0.22676 0.19552 0.4529 0.0
H797 H 0.26128 0.02386 0.41945 0.0
H798 H 0.28848 0.05023 0.40419 0.0
O799 O 0.28334 0.2699 0.43268 0.0
C800 C 0.23945 0.33064 0.41631 0.0
C801 C 0.28818 0.14236 0.40773 0.0
C802 C 0.26645 0.06908 0.41803 0.0
N803 N 0.26445 0.17024 0.42304 0.0
C804 C 0.27927 0.18522 0.41462 0.0
C805 C 0.25789 0.11313 0.42475 0.0
C806 C 0.28172 0.08391 0.40947 0.0
C807 C 0.19993 0.35362 0.45105 0.0
N808 N 0.21055 0.38359 0.4425 0.0
C809 C 0.1761 0.35893 0.45266 0.0
C810 C 0.16314 0.39521 0.44546 0.0
C811 C 0.1741 0.42562 0.43677 0.0
C812 C 0.19795 0.41918 0.4354 0.0
C813 C 0.24227 0.55332 0.44654 0.0
C814 C 0.25987 0.48183 0.43033 0.0
C815 C 0.23919 0.4925 0.44715 0.0
N816 N 0.24783 0.45769 0.43907 0.0
C817 C 0.26331 0.54245 0.42945 0.0
C818 C 0.2544 0.57835 0.43762 0.0
C819 C 0.29028 0.32245 0.43429 0.0
C820 C 0.24969 0.14775 0.4639 0.0
C821 C 0.28197 0.16332 0.44714 0.0
C822 C 0.28827 0.13305 0.45697 0.0
C823 C 0.272 0.1254 0.46541 0.0
N824 N 0.26007 0.18511 0.44574 0.0
C825 C 0.24399 0.17759 0.45395 0.0
Co826 Co 0.50826 0.3385 0.3105 0.0
Co827 Co 0.49675 0.19909 0.32072 0.0
O828 O 0.51133 0.25414 0.31049 0.0
C829 C 0.49067 0.29816 0.28907 0.0
O830 O 0.47728 0.26402 0.29515 0.0
C831 C 0.54663 0.18785 0.32384 0.0
O832 O 0.54586 0.24495 0.32473 0.0
O833 O 0.50403 0.24827 0.33358 0.0
O834 O 0.5123 0.33983 0.32723 0.0
H835 H 0.44549 0.13503 0.35242 0.0
H836 H 0.54234 0.28244 0.29566 0.0
O837 O 0.50381 0.33543 0.29379 0.0
H838 H 0.58816 0.4111 0.31975 0.0
H839 H 0.52099 0.54137 0.29419 0.0
H840 H 0.48471 0.42523 0.32459 0.0
H841 H 0.54564 0.40626 0.32146 0.0
H842 H 0.52492 0.43341 0.29512 0.0
O843 O 0.52786 0.15902 0.32247 0.0
H844 H 0.4632 0.20652 0.33925 0.0
H845 H 0.50102 0.06994 0.32425 0.0
H846 H 0.48047 0.53306 0.32404 0.0
H847 H 0.58476 0.28617 0.29364 0.0
H848 H 0.4987 0.59186 0.30875 0.0
H849 H 0.60798 0.35064 0.30577 0.0
O850 O 0.47443 0.33288 0.31274 0.0
H851 H 0.51335 0.09853 0.28487 0.0
H852 H 0.45391 0.14023 0.31288 0.0
H853 H 0.44343 0.08272 0.29645 0.0
H854 H 0.47327 0.06165 0.2823 0.0
H855 H 0.52305 0.156 0.30138 0.0
H856 H 0.48386 0.99691 0.33732 0.0
H857 H 0.45581 0.02938 0.35149 0.0
O858 O 0.46617 0.24131 0.31914 0.0
C859 C 0.50953 0.30159 0.33515 0.0
C860 C 0.45762 0.12032 0.34625 0.0
C861 C 0.47918 0.0428 0.33778 0.0
N862 N 0.48292 0.14224 0.33093 0.0
C863 C 0.46763 0.16056 0.33875 0.0
C864 C 0.48886 0.08431 0.33043 0.0
C865 C 0.46344 0.06105 0.34573 0.0
C866 C 0.55227 0.31121 0.30087 0.0
N867 N 0.54151 0.34449 0.3086 0.0
C868 C 0.57631 0.3129 0.29972 0.0
C869 C 0.58933 0.34903 0.30655 0.0
C870 C 0.57822 0.38294 0.3144 0.0
C871 C 0.55415 0.38003 0.31533 0.0
C872 C 0.51301 0.51624 0.30091 0.0
C873 C 0.49282 0.45058 0.31796 0.0
C874 C 0.51514 0.45514 0.30146 0.0
N875 N 0.50522 0.42322 0.30995 0.0
C876 C 0.4903 0.51159 0.31767 0.0
C877 C 0.50051 0.54454 0.30908 0.0
C878 C 0.46026 0.29398 0.31633 0.0
C879 C 0.50023 0.10722 0.291 0.0
C880 C 0.46699 0.13101 0.30677 0.0
C881 C 0.46096 0.09845 0.29749 0.0
C882 C 0.47772 0.08662 0.28956 0.0
N883 N 0.4891 0.15103 0.30812 0.0
C884 C 0.50564 0.1395 0.3004 0.0
Co885 Co 0.24603 0.36947 0.31076 0.0
Co886 Co 0.25691 0.51162 0.31823 0.0
O887 O 0.243 0.45349 0.30892 0.0
C888 C 0.26511 0.40401 0.289 0.0
O889 O 0.27979 0.43525 0.29471 0.0
C890 C 0.20688 0.52239 0.32016 0.0
O891 O 0.20779 0.46538 0.32173 0.0
O892 O 0.24911 0.46613 0.3319 0.0
O893 O 0.24082 0.37298 0.32736 0.0
H894 H 0.30644 0.58567 0.34943 0.0
H895 H 0.21281 0.42127 0.29415 0.0
O896 O 0.25136 0.36866 0.29412 0.0
H897 H 0.16581 0.29641 0.31937 0.0
H898 H 0.23497 0.16258 0.29814 0.0
H899 H 0.26825 0.28703 0.32717 0.0
H900 H 0.20807 0.3039 0.32212 0.0
H901 H 0.23087 0.27045 0.29684 0.0
O902 O 0.22561 0.55154 0.31875 0.0
H903 H 0.28955 0.51022 0.33745 0.0
H904 H 0.25229 0.64133 0.319 0.0
H905 H 0.2726 0.17941 0.32886 0.0
H906 H 0.17068 0.41465 0.29105 0.0
H907 H 0.25589 0.11643 0.31427 0.0
H908 H 0.14686 0.35199 0.30374 0.0
O909 O 0.27967 0.37596 0.31372 0.0
H910 H 0.24171 0.59897 0.28 0.0
H911 H 0.29989 0.56915 0.30989 0.0
H912 H 0.311 0.6207 0.29239 0.0
H913 H 0.2818 0.63568 0.27729 0.0
H914 H 0.23137 0.54771 0.29762 0.0
H915 H 0.26865 0.71828 0.33082 0.0
H916 H 0.296 0.69056 0.34614 0.0
O917 O 0.28766 0.46971 0.31801 0.0
C918 C 0.24327 0.4136 0.33449 0.0
C919 C 0.29462 0.59832 0.34275 0.0
C920 C 0.27338 0.67274 0.33232 0.0
N921 N 0.27016 0.57153 0.32747 0.0
C922 C 0.28507 0.55582 0.33592 0.0
C923 C 0.26415 0.62904 0.32566 0.0
C924 C 0.28873 0.65716 0.34091 0.0
C925 C 0.20264 0.39326 0.29962 0.0
N926 N 0.21294 0.36243 0.30823 0.0
C927 C 0.17875 0.38995 0.29786 0.0
C928 C 0.16539 0.35486 0.30499 0.0
C929 C 0.17601 0.32369 0.31377 0.0
C930 C 0.19994 0.32811 0.31528 0.0
C931 C 0.24229 0.18955 0.30456 0.0
C932 C 0.26079 0.25988 0.32084 0.0
C933 C 0.24007 0.25061 0.30386 0.0
N934 N 0.24916 0.28485 0.31197 0.0
C935 C 0.26338 0.19899 0.32181 0.0
C936 C 0.25402 0.16368 0.31362 0.0
C937 C 0.29366 0.41614 0.31665 0.0
C938 C 0.25455 0.59299 0.28655 0.0
C939 C 0.28707 0.57588 0.30337 0.0
C940 C 0.29346 0.60505 0.29349 0.0
C941 C 0.27706 0.61348 0.28502 0.0
N942 N 0.26496 0.55592 0.3048 0.0
C943 C 0.24877 0.56421 0.29656 0.0
Co944 Co 0.98801 0.11327 0.55933 0.0
Co945 Co -0.00092 0.97439 0.57003 0.0
O946 O 0.9851 0.0289 0.55941 0.0
C947 C 0.00714 0.07144 0.53841 0.0
O948 O 0.02064 0.03905 0.54488 0.0
C949 C 0.94904 0.96346 0.57209 0.0
O950 O 0.94974 0.02073 0.57265 0.0
O951 O 0.99094 0.02427 0.58262 0.0
O952 O 0.98279 0.11555 0.57598 0.0
H953 H 0.04844 0.91216 0.60291 0.0
H954 H 0.95503 0.05624 0.54385 0.0
O955 O 0.99353 0.10887 0.54273 0.0
H956 H 0.90747 0.18691 0.5665 0.0
H957 H 0.97619 0.31506 0.54224 0.0
H958 H 0.01024 0.20108 0.57379 0.0
H959 H 0.94981 0.1817 0.56926 0.0
H960 H 0.97241 0.20711 0.54333 0.0
O961 O 0.96791 0.93437 0.57127 0.0
H962 H 0.03146 0.98291 0.58923 0.0
H963 H 0.9948 0.8454 0.57373 0.0
H964 H 0.01428 0.30892 0.57309 0.0
H965 H 0.91281 0.06037 0.54076 0.0
H966 H 0.99718 0.36664 0.55722 0.0
H967 H 0.88872 0.12588 0.55217 0.0
O968 O 0.02167 0.10799 0.56237 0.0
H969 H 0.98481 0.87267 0.53399 0.0
H970 H 0.04243 0.91502 0.56319 0.0
H971 H 0.05399 0.85712 0.54706 0.0
H972 H 0.02508 0.83576 0.5323 0.0
H973 H 0.97402 0.93048 0.55025 0.0
H974 H 0.01125 0.77311 0.58728 0.0
H975 H 0.03835 0.80641 0.60197 0.0
O976 O 0.02971 0.01654 0.56899 0.0
C977 C 0.98513 0.07756 0.584 0.0
C978 C 0.03673 0.89708 0.59651 0.0
C979 C 0.01583 0.81904 0.58775 0.0
N980 N 0.01236 0.91812 0.58064 0.0
C981 C 0.02713 0.9369 0.58873 0.0
C982 C 0.00654 0.86013 0.58012 0.0
C983 C 0.03104 0.83776 0.59599 0.0
C984 C 0.94472 0.08545 0.54874 0.0
N985 N 0.9549 0.1191 0.55666 0.0
C986 C 0.9208 0.08737 0.547 0.0
C987 C 0.90728 0.12407 0.55341 0.0
C988 C 0.9178 0.1583 0.56146 0.0
C989 C 0.94176 0.15517 0.56299 0.0
C990 C 0.98368 0.29041 0.54921 0.0
C991 C 0.00261 0.22595 0.5669 0.0
C992 C 0.98163 0.22932 0.54985 0.0
N993 N 0.99093 0.198 0.55866 0.0
C994 C 0.00502 0.28698 0.56653 0.0
C995 C 0.99545 0.31932 0.55762 0.0
C996 C 0.03568 0.06922 0.56629 0.0
C997 C -0.00246 0.88147 0.54039 0.0
C998 C 0.02974 0.90562 0.55683 0.0
C999 C 0.03638 0.87285 0.54771 0.0
C1000 C 0.02015 0.86086 0.53944 0.0
N1001 N 0.00754 0.92568 0.5577 0.0
C1002 C 0.9915 0.91395 0.54964 0.0
Co1003 Co 0.24904 0.15365 0.56189 0.0
Co1004 Co 0.23802 0.29468 0.56995 0.0
O1005 O 0.25239 0.23775 0.56061 0.0
C1006 C 0.23161 0.19199 0.53991 0.0
O1007 O 0.21738 0.22478 0.54549 0.0
C1008 C 0.28793 0.30386 0.57305 0.0
O1009 O 0.28671 0.24685 0.57455 0.0
O1010 O 0.24481 0.24697 0.58354 0.0
O1011 O 0.25309 0.15448 0.57862 0.0
H1012 H 0.18667 0.36533 0.60046 0.0
H1013 H 0.28341 0.20682 0.54627 0.0
O1014 O 0.24476 0.15518 0.54515 0.0
H1015 H 0.32857 0.07868 0.57208 0.0
H1016 H 0.26073 0.94861 0.54845 0.0
H1017 H 0.22549 0.06939 0.57732 0.0
H1018 H 0.28612 0.08589 0.57379 0.0
H1019 H 0.26507 0.05645 0.54782 0.0
O1020 O 0.26938 0.33361 0.57128 0.0
H1021 H 0.20414 0.29129 0.58844 0.0
H1022 H 0.24297 0.42395 0.57155 0.0
H1023 H 0.22086 0.96174 0.57833 0.0
H1024 H 0.32577 0.20062 0.54422 0.0
H1025 H 0.23856 0.9006 0.56382 0.0
H1026 H 0.34866 0.13636 0.55721 0.0
O1027 O 0.21525 0.16056 0.56409 0.0
H1028 H 0.25569 0.3882 0.53259 0.0
H1029 H 0.19566 0.35429 0.56104 0.0
H1030 H 0.18572 0.40914 0.54366 0.0
H1031 H 0.21585 0.42622 0.52928 0.0
H1032 H 0.26486 0.33356 0.55008 0.0
H1033 H 0.22605 0.49948 0.58344 0.0
H1034 H 0.19762 0.47028 0.59799 0.0
O1035 O 0.2072 0.25352 0.56888 0.0
C1036 C 0.25023 0.19385 0.58594 0.0
C1037 C 0.19896 0.37863 0.59412 0.0
C1038 C 0.2211 0.45392 0.58458 0.0
N1039 N 0.22436 0.35347 0.57924 0.0
C1040 C 0.20885 0.33694 0.58726 0.0
C1041 C 0.23064 0.41101 0.57789 0.0
C1042 C 0.20514 0.4375 0.59273 0.0
C1043 C 0.29319 0.17814 0.55187 0.0
N1044 N 0.28227 0.14629 0.56008 0.0
C1045 C 0.3172 0.17505 0.5507 0.0
C1046 C 0.33004 0.13906 0.558 0.0
C1047 C 0.31878 0.1067 0.56635 0.0
C1048 C 0.29474 0.11096 0.56728 0.0
C1049 C 0.25297 0.97476 0.55483 0.0
C1050 C 0.23337 0.04304 0.57102 0.0
C1051 C 0.25533 0.03581 0.5545 0.0
N1052 N 0.24569 0.06903 0.56257 0.0
C1053 C 0.23063 0.98212 0.57162 0.0
C1054 C 0.24054 0.94785 0.56346 0.0
C1055 C 0.20116 0.20046 0.56701 0.0
C1056 C 0.24244 0.38128 0.53882 0.0
C1057 C 0.20888 0.36187 0.55485 0.0
C1058 C 0.20315 0.39292 0.54502 0.0
C1059 C 0.22007 0.40251 0.53696 0.0
N1060 N 0.23085 0.3412 0.55661 0.0
C1061 C 0.24756 0.3506 0.54876 0.0
Co1062 Co 0.98598 0.14877 0.6885 0.0
Co1063 Co 0.99297 0.28983 0.67812 0.0
O1064 O 0.98087 0.23249 0.68866 0.0
C1065 C 0.00545 0.19201 0.70935 0.0
O1066 O 0.01717 0.22792 0.70283 0.0
C1067 C 0.94253 0.29308 0.67628 0.0
O1068 O 0.94443 0.23597 0.67571 0.0
O1069 O 0.98566 0.23947 0.66544 0.0
O1070 O 0.97984 0.14685 0.67191 0.0
H1071 H 0.03922 0.36204 0.64523 0.0
H1072 H 0.95265 0.19905 0.70446 0.0
O1073 O 0.99253 0.15277 0.70507 0.0
H1074 H 0.90706 0.06287 0.6818 0.0
H1075 H 0.98049 0.94443 0.70515 0.0
H1076 H 0.00937 0.06568 0.67358 0.0
H1077 H 0.94898 0.07519 0.67868 0.0
H1078 H 0.9739 0.05156 0.70439 0.0
O1079 O 0.96076 0.32469 0.67703 0.0
H1080 H 0.02472 0.28784 0.6588 0.0
H1081 H 0.98514 0.41801 0.67475 0.0
H1082 H 0.01619 0.95872 0.67395 0.0
H1083 H 0.91084 0.1878 0.70791 0.0
H1084 H 0.0017 0.89734 0.68982 0.0
H1085 H 0.88773 0.11948 0.69651 0.0
O1086 O 0.01923 0.15962 0.68521 0.0
H1087 H 0.97736 0.38665 0.71445 0.0
H1088 H 0.03487 0.35598 0.68499 0.0
H1089 H 0.04548 0.41454 0.70125 0.0
H1090 H 0.01663 0.43001 0.71614 0.0
H1091 H 0.96752 0.32829 0.69806 0.0
H1092 H -0.00092 0.49364 0.6613 0.0
H1093 H 0.02638 0.46579 0.64644 0.0
O1094 O 0.02476 0.25289 0.67901 0.0
C1095 C 0.98104 0.18554 0.66396 0.0
C1096 C 0.0274 0.37476 0.6517 0.0
C1097 C 0.00484 0.44862 0.66071 0.0
N1098 N 0.00431 0.3488 0.66761 0.0
C1099 C 0.01921 0.33299 0.65942 0.0
C1100 C 0.99699 0.40564 0.66828 0.0
C1101 C 0.02017 0.43295 0.65237 0.0
C1102 C 0.94279 0.16867 0.69956 0.0
N1103 N 0.95328 0.13742 0.69144 0.0
C1104 C 0.91908 0.16271 0.70151 0.0
C1105 C 0.90612 0.12443 0.6951 0.0
C1106 C 0.91696 0.09267 0.68684 0.0
C1107 C 0.94068 0.09984 0.68511 0.0
C1108 C 0.98686 0.97069 0.69818 0.0
C1109 C 0.00288 0.0392 0.68048 0.0
C1110 C 0.98322 0.03134 0.69772 0.0
N1111 N 0.9911 0.06467 0.68892 0.0
C1112 C 0.00686 0.97869 0.68066 0.0
C1113 C -0.00125 0.94429 0.68957 0.0
C1114 C 0.03212 0.2009 0.68143 0.0
C1115 C 0.99005 0.38041 0.70799 0.0
C1116 C 0.0222 0.3628 0.69141 0.0
C1117 C 0.0283 0.39596 0.7006 0.0
C1118 C 0.0121 0.40465 0.70895 0.0
N1119 N 0.00056 0.33913 0.69055 0.0
C1120 C 0.98454 0.34764 0.69867 0.0
Co1121 Co 0.24647 0.1359 0.69182 0.0
Co1122 Co 0.23775 0.99625 0.68238 0.0
O1123 O 0.25076 0.05181 0.69252 0.0
C1124 C 0.22801 0.09161 0.71311 0.0
O1125 O 0.21391 0.06075 0.707 0.0
C1126 C 0.28799 0.98955 0.68044 0.0
O1127 O 0.28663 0.04692 0.67987 0.0
O1128 O 0.24533 0.04714 0.66939 0.0
O1129 O 0.25176 0.13914 0.67519 0.0
H1130 H 0.18963 0.93057 0.64999 0.0
H1131 H 0.28041 0.08147 0.70779 0.0
O1132 O 0.24113 0.13012 0.70844 0.0
H1133 H 0.32561 0.21905 0.6842 0.0
H1134 H 0.25474 0.33819 0.70715 0.0
H1135 H 0.22292 0.22188 0.67655 0.0
H1136 H 0.28348 0.20879 0.68135 0.0
H1137 H 0.26034 0.23074 0.70703 0.0
O1138 O 0.26949 0.95897 0.68142 0.0
H1139 H 0.20551 0.00246 0.66302 0.0
H1140 H 0.24384 0.86774 0.67992 0.0
H1141 H 0.21707 0.32921 0.67628 0.0
H1142 H 0.32242 0.09075 0.71099 0.0
H1143 H 0.23305 0.3881 0.69167 0.0
H1144 H 0.34534 0.15978 0.69912 0.0
O1145 O 0.21291 0.12751 0.68877 0.0
H1146 H 0.25334 0.89594 0.71945 0.0
H1147 H 0.19527 0.93288 0.68976 0.0
H1148 H 0.18449 0.87417 0.7065 0.0
H1149 H 0.21363 0.85557 0.7215 0.0
H1150 H 0.26336 0.95438 0.70258 0.0
H1151 H 0.22852 0.79435 0.66702 0.0
H1152 H 0.20114 0.82567 0.65195 0.0
O1153 O 0.2065 0.03553 0.68297 0.0
C1154 C 0.25031 0.10097 0.66754 0.0
C1155 C 0.20148 0.91635 0.65655 0.0
C1156 C 0.22333 0.8399 0.66609 0.0
N1157 N 0.22538 0.93911 0.67228 0.0
C1158 C 0.21045 0.95681 0.66397 0.0
C1159 C 0.23197 0.88161 0.67336 0.0
C1160 C 0.20796 0.8575 0.65764 0.0
C1161 C 0.29017 0.11223 0.70269 0.0
N1162 N 0.27944 0.14505 0.69447 0.0
C1163 C 0.314 0.11703 0.7045 0.0
C1164 C 0.32686 0.15571 0.69783 0.0
C1165 C 0.3158 0.18895 0.68945 0.0
C1166 C 0.29195 0.18294 0.68787 0.0
C1167 C 0.24774 0.31302 0.70039 0.0
C1168 C 0.23007 0.24728 0.68323 0.0
C1169 C 0.25081 0.25221 0.70029 0.0
N1170 N 0.24213 0.22026 0.69175 0.0
C1171 C 0.22663 0.308 0.68305 0.0
C1172 C 0.23557 0.34101 0.6917 0.0
C1173 C 0.19961 0.08753 0.68513 0.0
C1174 C 0.24053 0.90348 0.71294 0.0
C1175 C 0.20807 0.92461 0.69623 0.0
C1176 C 0.20187 0.89139 0.70568 0.0
C1177 C 0.21823 0.88093 0.7141 0.0
N1178 N 0.22997 0.94656 0.69516 0.0
C1179 C 0.24614 0.93632 0.70335 0.0
Co1180 Co 0.00711 0.88623 0.43952 0.0
Co1181 Co 0.99575 0.0239 0.42832 0.0
O1182 O 0.01 0.97059 0.43907 0.0
C1183 C 0.98861 0.93031 0.46039 0.0
O1184 O 0.97496 0.96215 0.45389 0.0
C1185 C 0.04571 0.03517 0.426 0.0
O1186 O 0.04512 0.97789 0.42543 0.0
O1187 O 0.00371 0.97276 0.41589 0.0
O1188 O 0.01177 0.88207 0.42286 0.0
H1189 H 0.94571 0.08261 0.39547 0.0
H1190 H 0.04056 0.94512 0.4545 0.0
O1191 O 0.0021 0.89245 0.45613 0.0
H1192 H 0.08742 0.81216 0.432 0.0
H1193 H 0.01956 0.6863 0.45731 0.0
H1194 H 0.98438 0.79676 0.42561 0.0
H1195 H 0.04499 0.81675 0.42958 0.0
H1196 H 0.02328 0.79416 0.45576 0.0
O1197 O 0.02681 0.06405 0.42686 0.0
H1198 H 0.96303 0.01328 0.4093 0.0
H1199 H -0.00018 0.1526 0.42416 0.0
H1200 H 0.98038 0.68895 0.42677 0.0
H1201 H 0.08288 0.94167 0.45723 0.0
H1202 H -0.00195 0.63301 0.44272 0.0
H1203 H 0.10663 0.87502 0.4459 0.0
O1204 O 0.97336 0.89115 0.43671 0.0
H1205 H 0.01049 0.12949 0.46391 0.0
H1206 H 0.95244 0.08363 0.43511 0.0
H1207 H 0.94108 0.14316 0.45107 0.0
H1208 H 0.97021 0.1663 0.46562 0.0
H1209 H 0.02108 0.07002 0.44785 0.0
H1210 H 0.98304 0.22349 0.41043 0.0
H1211 H 0.9557 0.18855 0.39599 0.0
O1212 O 0.96522 0.98163 0.42963 0.0
C1213 C 0.00933 0.91917 0.4147 0.0
C1214 C 0.95753 0.0984 0.40175 0.0
C1215 C 0.9785 0.17746 0.41014 0.0
N1216 N 0.98222 0.07906 0.41758 0.0
C1217 C 0.96732 0.05939 0.40962 0.0
C1218 C 0.98798 0.13716 0.41787 0.0
C1219 C 0.96316 0.15783 0.40204 0.0
C1220 C 0.05072 0.91541 0.44964 0.0
N1221 N 0.04029 0.88077 0.44196 0.0
C1222 C 0.0747 0.91388 0.45118 0.0
C1223 C 0.08802 0.87654 0.44481 0.0
C1224 C 0.07726 0.84128 0.43701 0.0
C1225 C 0.05323 0.84406 0.43567 0.0
C1226 C 0.01182 0.71017 0.45031 0.0
C1227 C 0.99226 0.77265 0.43253 0.0
C1228 C 0.01383 0.77121 0.44941 0.0
N1229 N 0.00422 0.80155 0.44056 0.0
C1230 C 0.98987 0.71165 0.43316 0.0
C1231 C -0.00024 0.6803 0.44212 0.0
C1232 C 0.95928 0.92937 0.43264 0.0
C1233 C -0.00233 0.11991 0.4576 0.0
C1234 C 0.96523 0.09378 0.44139 0.0
C1235 C 0.9587 0.12748 0.4504 0.0
C1236 C 0.97506 0.14047 0.45856 0.0
N1237 N 0.98744 0.07379 0.44051 0.0
C1238 C 0.00359 0.08649 0.44846 0.0
Co1239 Co 0.74643 0.84492 0.43801 0.0
Co1240 Co 0.75707 0.70316 0.43025 0.0
O1241 O 0.74324 0.76086 0.43961 0.0
C1242 C 0.76544 0.80875 0.4598 0.0
O1243 O 0.77944 0.77584 0.45412 0.0
C1244 C 0.70701 0.69333 0.42791 0.0
O1245 O 0.70803 0.75036 0.4264 0.0
O1246 O 0.74939 0.74972 0.41661 0.0
O1247 O 0.74118 0.84251 0.42138 0.0
H1248 H 0.80659 0.63035 0.39924 0.0
H1249 H 0.71323 0.79297 0.45435 0.0
O1250 O 0.75188 0.84492 0.45466 0.0
H1251 H 0.66622 0.919 0.42895 0.0
H1252 H 0.73556 0.05121 0.45095 0.0
H1253 H 0.76875 0.92792 0.4219 0.0
H1254 H 0.70849 0.91148 0.42651 0.0
H1255 H 0.73137 0.94336 0.45202 0.0
O1256 O 0.72571 0.66385 0.42944 0.0
H1257 H 0.78977 0.70527 0.41127 0.0
H1258 H 0.7522 0.57365 0.42911 0.0
H1259 H 0.77319 0.03554 0.42045 0.0
H1260 H 0.67108 0.79955 0.45713 0.0
H1261 H 0.75653 0.09794 0.43505 0.0
H1262 H 0.64726 0.86276 0.44436 0.0
O1263 O 0.78005 0.83803 0.43526 0.0
H1264 H 0.74177 0.61328 0.46815 0.0
H1265 H 0.79998 0.64447 0.43873 0.0
H1266 H 0.81104 0.59159 0.45618 0.0
H1267 H 0.78183 0.57594 0.47105 0.0
H1268 H 0.73147 0.66591 0.45059 0.0
H1269 H 0.76848 0.49724 0.41722 0.0
H1270 H 0.79595 0.52548 0.40219 0.0
O1271 O 0.78789 0.74452 0.43077 0.0
C1272 C 0.74366 0.80255 0.41414 0.0
C1273 C 0.79471 0.61747 0.40579 0.0
C1274 C 0.77329 0.54277 0.41587 0.0
N1275 N 0.77022 0.64367 0.42094 0.0
C1276 C 0.7852 0.65967 0.41265 0.0
C1277 C 0.76411 0.58618 0.42256 0.0
C1278 C 0.78871 0.55865 0.40744 0.0
C1279 C 0.70305 0.8212 0.44884 0.0
N1280 N 0.71335 0.8523 0.44034 0.0
C1281 C 0.67916 0.82449 0.45043 0.0
C1282 C 0.6658 0.8599 0.44324 0.0
C1283 C 0.67643 0.89144 0.43459 0.0
C1284 C 0.70036 0.88701 0.43325 0.0
C1285 C 0.74287 0.0245 0.44453 0.0
C1286 C 0.76132 0.95482 0.42825 0.0
C1287 C 0.7406 0.96345 0.4451 0.0
N1288 N 0.74966 0.92953 0.43699 0.0
C1289 C 0.76395 0.01571 0.4274 0.0
C1290 C 0.75462 0.05069 0.4356 0.0
C1291 C 0.79397 0.79785 0.43232 0.0
C1292 C 0.75462 0.61958 0.46171 0.0
C1293 C 0.78715 0.63745 0.44514 0.0
C1294 C 0.79351 0.60753 0.455 0.0
C1295 C 0.77711 0.59873 0.46334 0.0
N1296 N 0.76506 0.6578 0.44362 0.0
C1297 C 0.74886 0.64912 0.45173 0.0
Co1298 Co 0.00648 0.84845 0.30993 0.0
Co1299 Co -0.00125 0.70775 0.32037 0.0
O1300 O 0.0114 0.76464 0.30989 0.0
C1301 C 0.98822 0.80546 0.28881 0.0
O1302 O 0.97591 0.76978 0.29512 0.0
C1303 C 0.04903 0.70299 0.32257 0.0
O1304 O 0.04741 0.76007 0.32334 0.0
O1305 O 0.0059 0.75802 0.3331 0.0
O1306 O 0.01171 0.85053 0.32659 0.0
H1307 H 0.95116 0.63705 0.35292 0.0
H1308 H 0.04062 0.79726 0.29448 0.0
O1309 O 0.00091 0.84447 0.29331 0.0
H1310 H 0.08523 0.93289 0.31769 0.0
H1311 H 0.01349 0.05259 0.29335 0.0
H1312 H 0.98229 0.93197 0.32447 0.0
H1313 H 0.04309 0.92159 0.32022 0.0
H1314 H 0.0198 0.94535 0.29422 0.0
O1315 O 0.03068 0.67202 0.32163 0.0
H1316 H 0.96642 0.71075 0.33946 0.0
H1317 H 0.00594 0.57937 0.32383 0.0
H1318 H 0.97573 0.03904 0.32398 0.0
H1319 H 0.08267 0.80747 0.29164 0.0
H1320 H 0.99138 0.1001 0.30833 0.0
H1321 H 0.10528 0.8755 0.30332 0.0
O1322 O 0.97301 0.8381 0.31277 0.0
H1323 H 0.01494 0.60977 0.28421 0.0
H1324 H 0.95674 0.64275 0.31325 0.0
H1325 H 0.94635 0.58401 0.29698 0.0
H1326 H 0.97556 0.56733 0.28231 0.0
H1327 H 0.02455 0.66836 0.30059 0.0
H1328 H 0.99125 0.50421 0.33718 0.0
H1329 H 0.96358 0.53293 0.35182 0.0
O1330 O 0.96724 0.74548 0.31928 0.0
C1331 C 0.01035 0.81207 0.33456 0.0
C1332 C 0.96314 0.62395 0.34655 0.0
C1333 C 0.98566 0.54941 0.33772 0.0
N1334 N 0.98686 0.64917 0.33081 0.0
C1335 C 0.97177 0.66545 0.33888 0.0
C1336 C 0.99395 0.59212 0.33021 0.0
C1337 C 0.97014 0.56555 0.34594 0.0
C1338 C 0.05027 0.82753 0.2995 0.0
N1339 N 0.03938 0.85918 0.30744 0.0
C1340 C 0.07411 0.8329 0.29789 0.0
C1341 C 0.08679 0.87101 0.30446 0.0
C1342 C 0.07555 0.9032 0.31253 0.0
C1343 C 0.0517 0.89662 0.31392 0.0
C1344 C 0.00662 0.02648 0.30022 0.0
C1345 C 0.98929 0.95832 0.31767 0.0
C1346 C 0.01009 0.96577 0.30074 0.0
N1347 N 0.00157 0.93262 0.30942 0.0
C1348 C 0.98546 0.01889 0.31742 0.0
C1349 C 0.99422 0.05311 0.30863 0.0
C1350 C 0.95999 0.79719 0.31659 0.0
C1351 C 0.00209 0.61653 0.29057 0.0
C1352 C 0.96955 0.63545 0.30692 0.0
C1353 C 0.96358 0.60217 0.29773 0.0
C1354 C 0.97998 0.59281 0.2895 0.0
N1355 N 0.99127 0.65857 0.30791 0.0
C1356 C 0.00747 0.64944 0.29989 0.0
Co1357 Co 0.74563 0.85711 0.30839 0.0
Co1358 Co 0.75381 0.99682 0.31787 0.0
O1359 O 0.74131 0.94114 0.30763 0.0
C1360 C 0.76534 0.90132 0.28738 0.0
O1361 O 0.77928 0.93148 0.29369 0.0
C1362 C 0.70352 0.0035 0.31928 0.0
O1363 O 0.70474 0.94612 0.31992 0.0
O1364 O 0.74571 0.94594 0.33079 0.0
O1365 O 0.73954 0.85387 0.32495 0.0
H1366 H 0.80035 0.06299 0.35075 0.0
H1367 H 0.71242 0.91169 0.29208 0.0
O1368 O 0.7518 0.8631 0.29183 0.0
H1369 H 0.66618 0.77379 0.31511 0.0
H1370 H 0.73835 0.65494 0.29292 0.0
H1371 H 0.76843 0.77109 0.32393 0.0
H1372 H 0.70818 0.78397 0.31841 0.0
H1373 H 0.73264 0.76236 0.293 0.0
O1374 O 0.72209 0.0339 0.31848 0.0
H1375 H 0.78517 0.99093 0.33757 0.0
H1376 H 0.74751 0.12535 0.32022 0.0
H1377 H 0.77437 0.66379 0.32423 0.0
H1378 H 0.67055 0.90252 0.28845 0.0
H1379 H 0.75927 0.60498 0.30864 0.0
H1380 H 0.64711 0.83334 0.30003 0.0
O1381 O 0.77903 0.8656 0.31186 0.0
H1382 H 0.73983 0.09598 0.28055 0.0
H1383 H 0.79651 0.06062 0.31091 0.0
H1384 H 0.80801 0.11883 0.29423 0.0
H1385 H 0.77957 0.1366 0.27889 0.0
H1386 H 0.72908 0.03808 0.29738 0.0
H1387 H 0.76214 0.1989 0.33327 0.0
H1388 H 0.78883 0.16782 0.34864 0.0
O1389 O 0.78509 0.95786 0.31759 0.0
C1390 C 0.74065 0.8921 0.3326 0.0
C1391 C 0.78881 0.07711 0.34406 0.0
C1392 C 0.76734 0.15339 0.33426 0.0
N1393 N 0.76569 0.05413 0.32808 0.0
C1394 C 0.78023 0.03655 0.33655 0.0
C1395 C 0.75909 0.11159 0.32691 0.0
C1396 C 0.78232 0.13591 0.34288 0.0
C1397 C 0.70243 0.88084 0.29706 0.0
N1398 N 0.7128 0.84788 0.30537 0.0
C1399 C 0.67869 0.8761 0.295 0.0
C1400 C 0.66554 0.83735 0.30152 0.0
C1401 C 0.67622 0.80395 0.30998 0.0
C1402 C 0.7 0.8099 0.31181 0.0
C1403 C 0.74497 0.68007 0.29977 0.0
C1404 C 0.76167 0.74572 0.31716 0.0
C1405 C 0.74183 0.74087 0.29985 0.0
N1406 N 0.75003 0.77277 0.3085 0.0
C1407 C 0.76515 0.68502 0.31735 0.0
C1408 C 0.7567 0.65206 0.3086 0.0
C1409 C 0.79211 0.90583 0.31557 0.0
C1410 C 0.75233 0.08881 0.28721 0.0
C1411 C 0.78401 0.06856 0.3043 0.0
C1412 C 0.79061 0.1015 0.29487 0.0
C1413 C 0.77465 0.11149 0.28627 0.0
N1414 N 0.7621 0.04643 0.30515 0.0
C1415 C 0.74631 0.05627 0.29678 0.0
Co1416 Co 0.9874 0.61905 0.05806 0.0
Co1417 Co 0.99626 0.48088 0.06957 0.0
O1418 O 0.98354 0.53492 0.0585 0.0
C1419 C 0.00759 0.57282 0.03773 0.0
O1420 O 0.02041 0.54078 0.04457 0.0
C1421 C 0.94595 0.47387 0.07095 0.0
O1422 O 0.94715 0.53122 0.07108 0.0
O1423 O 0.98798 0.53321 0.08176 0.0
O1424 O 0.98113 0.62411 0.07457 0.0
H1425 H 0.04289 0.41952 0.10341 0.0
H1426 H 0.95487 0.56221 0.04232 0.0
O1427 O 0.99401 0.61168 0.04161 0.0
H1428 H 0.9073 0.6999 0.06344 0.0
H1429 H 0.9792 0.81904 0.03971 0.0
H1430 H 0.00941 0.70752 0.07246 0.0
H1431 H 0.94933 0.6917 0.06698 0.0
H1432 H 0.97412 0.71156 0.0413 0.0
O1433 O 0.96457 0.44344 0.0706 0.0
H1434 H 0.02758 0.48964 0.08917 0.0
H1435 H 0.99027 0.35275 0.07381 0.0
H1436 H 0.01473 0.81492 0.07126 0.0
H1437 H 0.91298 0.56929 0.03847 0.0
H1438 H -0.00043 0.87142 0.05479 0.0
H1439 H 0.88887 0.63837 0.04909 0.0
O1440 O 0.02074 0.61181 0.0617 0.0
H1441 H 0.98287 0.37579 0.03381 0.0
H1442 H 0.03925 0.41709 0.06363 0.0
H1443 H 0.05106 0.35646 0.0479 0.0
H1444 H 0.02278 0.33566 0.03284 0.0
H1445 H 0.97181 0.43625 0.04967 0.0
H1446 H 0.00504 0.28111 0.08793 0.0
H1447 H 0.03162 0.31441 0.10284 0.0
O1448 O 0.02748 0.52049 0.06874 0.0
C1449 C 0.98265 0.58709 0.08279 0.0
C1450 C 0.0314 0.40443 0.09693 0.0
C1451 C 0.01013 0.32676 0.08825 0.0
N1452 N 0.00826 0.42509 0.08061 0.0
C1453 C 0.02275 0.44389 0.08882 0.0
C1454 C 0.0018 0.36748 0.08029 0.0
C1455 C 0.02505 0.34547 0.09661 0.0
C1456 C 0.94457 0.59294 0.04688 0.0
N1457 N 0.95458 0.62692 0.0548 0.0
C1458 C 0.92082 0.59653 0.0447 0.0
C1459 C 0.9073 0.63523 0.05068 0.0
C1460 C 0.91763 0.66975 0.05873 0.0
C1461 C 0.94143 0.66491 0.06071 0.0
C1462 C 0.98585 0.79493 0.04694 0.0
C1463 C 0.00263 0.73185 0.0653 0.0
C1464 C 0.98307 0.7341 0.04787 0.0
N1465 N 0.99131 0.70346 0.057 0.0
C1466 C 0.00576 0.79263 0.06465 0.0
C1467 C 0.99727 0.82429 0.05541 0.0
C1468 C 0.03411 0.57257 0.06597 0.0
C1469 C 0.99531 0.38434 0.04035 0.0
C1470 C 0.02682 0.40791 0.05713 0.0
C1471 C 0.0336 0.37359 0.04825 0.0
C1472 C 0.01772 0.36192 0.0398 0.0
N1473 N 0.00482 0.42978 0.0576 0.0
C1474 C 0.98912 0.41831 0.04938 0.0
Co1475 Co 0.24937 0.64718 0.06176 0.0
Co1476 Co 0.23718 0.78708 0.07012 0.0
O1477 O 0.25235 0.73149 0.06077 0.0
C1478 C 0.23302 0.6866 0.03965 0.0
O1479 O 0.21857 0.71927 0.04513 0.0
C1480 C 0.28689 0.79864 0.07375 0.0
O1481 O 0.28615 0.74152 0.07519 0.0
O1482 O 0.2438 0.73871 0.08365 0.0
O1483 O 0.25253 0.64682 0.07853 0.0
H1484 H 0.18403 0.85297 0.10032 0.0
H1485 H 0.28429 0.70266 0.04672 0.0
O1486 O 0.24599 0.64971 0.04497 0.0
H1487 H 0.32876 0.57457 0.07281 0.0
H1488 H 0.2631 0.44364 0.04797 0.0
H1489 H 0.22527 0.56107 0.0766 0.0
H1490 H 0.28618 0.57989 0.07397 0.0
H1491 H 0.26688 0.55162 0.04768 0.0
O1492 O 0.26816 0.82735 0.07182 0.0
H1493 H 0.20259 0.78071 0.08829 0.0
H1494 H 0.24109 0.91642 0.07212 0.0
H1495 H 0.22117 0.45323 0.07725 0.0
H1496 H 0.32679 0.69837 0.04524 0.0
H1497 H 0.24018 0.39379 0.06286 0.0
H1498 H 0.34934 0.63416 0.05837 0.0
O1499 O 0.21539 0.65273 0.06352 0.0
H1500 H 0.2557 0.8847 0.03323 0.0
H1501 H 0.19474 0.84538 0.06099 0.0
H1502 H 0.18512 0.90139 0.04369 0.0
H1503 H 0.21573 0.92123 0.02966 0.0
H1504 H 0.26453 0.8288 0.05061 0.0
H1505 H 0.22308 0.9902 0.08403 0.0
H1506 H 0.19426 0.95857 0.09822 0.0
O1507 O 0.20674 0.74471 0.06866 0.0
C1508 C 0.24932 0.68554 0.08594 0.0
C1509 C 0.1965 0.86733 0.09414 0.0
C1510 C 0.21844 0.94434 0.085 0.0
N1511 N 0.22271 0.8445 0.07945 0.0
C1512 C 0.207 0.82665 0.08728 0.0
C1513 C 0.2286 0.90241 0.0783 0.0
C1514 C 0.20226 0.92656 0.09296 0.0
C1515 C 0.29392 0.674 0.05238 0.0
N1516 N 0.28273 0.64113 0.06036 0.0
C1517 C 0.31801 0.672 0.05153 0.0
C1518 C 0.33066 0.63603 0.05892 0.0
C1519 C 0.31912 0.6026 0.06702 0.0
C1520 C 0.29501 0.60579 0.06764 0.0
C1521 C 0.25478 0.46906 0.05429 0.0
C1522 C 0.23372 0.53544 0.07035 0.0
C1523 C 0.25682 0.53017 0.05416 0.0
N1524 N 0.24646 0.56245 0.06216 0.0
C1525 C 0.23127 0.47443 0.07075 0.0
C1526 C 0.24192 0.44111 0.06266 0.0
C1527 C 0.20101 0.69184 0.06647 0.0
C1528 C 0.24224 0.87656 0.0393 0.0
C1529 C 0.20815 0.85411 0.05494 0.0
C1530 C 0.20262 0.88582 0.04517 0.0
C1531 C 0.2198 0.89696 0.0373 0.0
N1532 N 0.2302 0.83428 0.05684 0.0
C1533 C 0.24716 0.84516 0.04919 0.0
Co1534 Co 0.98691 0.65188 0.18764 0.0
Co1535 Co -0.00228 0.792 0.17763 0.0
O1536 O 0.9835 0.7361 0.18779 0.0
C1537 C 0.00474 0.69196 0.20905 0.0
O1538 O 0.01799 0.72627 0.20293 0.0
C1539 C 0.9477 0.80229 0.17473 0.0
O1540 O 0.94859 0.74532 0.17363 0.0
O1541 O 0.99049 0.74323 0.16469 0.0
O1542 O 0.98255 0.65126 0.17091 0.0
H1543 H 0.04837 0.85904 0.14591 0.0
H1544 H 0.95287 0.70649 0.2027 0.0
O1545 O 0.99163 0.6545 0.20435 0.0
H1546 H 0.90716 0.57751 0.17863 0.0
H1547 H 0.97535 0.44811 0.20373 0.0
H1548 H 0.01034 0.5663 0.17325 0.0
H1549 H 0.94961 0.58359 0.17674 0.0
H1550 H 0.97102 0.55598 0.20299 0.0
O1551 O 0.96644 0.83133 0.17606 0.0
H1552 H 0.03112 0.78643 0.159 0.0
H1553 H 0.99286 0.92117 0.17433 0.0
H1554 H 0.01496 0.45858 0.17362 0.0
H1555 H 0.91051 0.70151 0.2049 0.0
H1556 H 0.99739 0.39874 0.18894 0.0
H1557 H 0.88734 0.63687 0.19278 0.0
O1558 O 0.02071 0.65839 0.18526 0.0
H1559 H 0.98117 0.88978 0.21377 0.0
H1560 H 0.04038 0.85189 0.18544 0.0
H1561 H 0.05083 0.90862 0.20196 0.0
H1562 H 0.02111 0.92776 0.21628 0.0
H1563 H 0.9715 0.83313 0.19715 0.0
H1564 H 0.00956 0.99528 0.16135 0.0
H1565 H 0.0376 0.96432 0.14704 0.0
O1566 O 0.02851 0.75064 0.17908 0.0
C1567 C 0.98511 0.68989 0.16304 0.0
C1568 C 0.03624 0.87311 0.15213 0.0
C1569 C 0.01444 0.94957 0.16079 0.0
N1570 N 0.0112 0.84972 0.16748 0.0
C1571 C 0.02649 0.83223 0.15959 0.0
C1572 C 0.00501 0.90745 0.1681 0.0
C1573 C 0.03017 0.93216 0.15276 0.0
C1574 C 0.94296 0.67765 0.19749 0.0
N1575 N 0.95373 0.64497 0.18967 0.0
C1576 C 0.91896 0.67525 0.19874 0.0
C1577 C 0.90597 0.63903 0.19192 0.0
C1578 C 0.91707 0.60574 0.18398 0.0
C1579 C 0.9411 0.60935 0.18295 0.0
C1580 C 0.98306 0.47369 0.197 0.0
C1581 C 0.00252 0.5405 0.1799 0.0
C1582 C 0.9807 0.53474 0.19655 0.0
N1583 N 0.99027 0.56723 0.18804 0.0
C1584 C 0.00525 0.47955 0.18009 0.0
C1585 C 0.99541 0.44602 0.1887 0.0
C1586 C 0.03468 0.69798 0.18175 0.0
C1587 C 0.99424 0.88194 0.20757 0.0
C1588 C 0.02734 0.86027 0.19162 0.0
C1589 C 0.03335 0.8924 0.20095 0.0
C1590 C 0.01667 0.90315 0.20898 0.0
N1591 N 0.00532 0.83962 0.19029 0.0
C1592 C 0.98884 0.85012 0.19811 0.0
Co1593 Co 0.24834 0.62176 0.19185 0.0
Co1594 Co 0.23892 0.48265 0.18232 0.0
O1595 O 0.25245 0.53767 0.1924 0.0
C1596 C 0.2306 0.57693 0.21323 0.0
O1597 O 0.2165 0.54577 0.20718 0.0
C1598 C 0.289 0.47611 0.17989 0.0
O1599 O 0.28754 0.53343 0.17919 0.0
O1600 O 0.24592 0.53398 0.1693 0.0
O1601 O 0.25292 0.62558 0.17517 0.0
H1602 H 0.18928 0.41815 0.15035 0.0
H1603 H 0.28276 0.56635 0.20745 0.0
O1604 O 0.24362 0.61548 0.20851 0.0
H1605 H 0.32738 0.70368 0.18354 0.0
H1606 H 0.25772 0.82325 0.20739 0.0
H1607 H 0.2244 0.70866 0.17691 0.0
H1608 H 0.2851 0.69443 0.18112 0.0
H1609 H 0.26305 0.71577 0.20706 0.0
O1610 O 0.27058 0.44539 0.18104 0.0
H1611 H 0.20578 0.48956 0.1633 0.0
H1612 H 0.24485 0.35427 0.17962 0.0
H1613 H 0.21879 0.81605 0.17686 0.0
H1614 H 0.32495 0.57456 0.21021 0.0
H1615 H 0.23552 0.87407 0.19218 0.0
H1616 H 0.34757 0.64346 0.19818 0.0
O1617 O 0.21468 0.61381 0.1891 0.0
H1618 H 0.256 0.38072 0.21909 0.0
H1619 H 0.19671 0.4192 0.19003 0.0
H1620 H 0.1866 0.35979 0.20678 0.0
H1621 H 0.21635 0.3404 0.22147 0.0
H1622 H 0.26535 0.43987 0.20221 0.0
H1623 H 0.22891 0.28136 0.16679 0.0
H1624 H 0.20084 0.3132 0.15206 0.0
O1625 O 0.20774 0.52208 0.18327 0.0
C1626 C 0.25091 0.58784 0.16747 0.0
C1627 C 0.20142 0.40369 0.15677 0.0
C1628 C 0.22369 0.32693 0.16598 0.0
N1629 N 0.22606 0.42589 0.17226 0.0
C1630 C 0.21076 0.44389 0.16414 0.0
C1631 C 0.23268 0.36837 0.1732 0.0
C1632 C 0.20794 0.34483 0.15772 0.0
C1633 C 0.29241 0.59704 0.20228 0.0
N1634 N 0.28143 0.63035 0.1942 0.0
C1635 C 0.31633 0.60126 0.20384 0.0
C1636 C 0.32902 0.63986 0.19708 0.0
C1637 C 0.3177 0.67363 0.18886 0.0
C1638 C 0.29377 0.6682 0.18752 0.0
C1639 C 0.25038 0.79847 0.20066 0.0
C1640 C 0.23187 0.73368 0.18356 0.0
C1641 C 0.2533 0.73763 0.20044 0.0
N1642 N 0.2442 0.70615 0.19193 0.0
C1643 C 0.22857 0.79444 0.18351 0.0
C1644 C 0.23793 0.82696 0.19212 0.0
C1645 C 0.20112 0.57414 0.18556 0.0
C1646 C 0.24292 0.38861 0.21272 0.0
C1647 C 0.20977 0.41061 0.19636 0.0
C1648 C 0.20395 0.37699 0.20583 0.0
C1649 C 0.22066 0.3661 0.21406 0.0
N1650 N 0.23164 0.43253 0.19511 0.0
C1651 C 0.24814 0.42186 0.20313 0.0
Co1652 Co 0.00768 0.37977 0.93982 0.0
Co1653 Co 0.99725 0.51858 0.92896 0.0
O1654 O 0.01087 0.46405 0.93967 0.0
C1655 C 0.98794 0.42283 0.9605 0.0
O1656 O 0.97462 0.45467 0.95385 0.0
C1657 C 0.04737 0.52835 0.9271 0.0
O1658 O 0.04656 0.47106 0.92661 0.0
O1659 O 0.00539 0.46808 0.91646 0.0
O1660 O 0.01336 0.37693 0.92323 0.0
H1661 H 0.9486 0.58125 0.89587 0.0
H1662 H 0.04041 0.43667 0.95546 0.0
O1663 O 0.00169 0.38506 0.95638 0.0
H1664 H 0.08815 0.30391 0.93333 0.0
H1665 H 0.01828 0.17838 0.95727 0.0
H1666 H 0.98574 0.29184 0.92529 0.0
H1667 H 0.04593 0.31015 0.93025 0.0
H1668 H 0.02241 0.28623 0.95608 0.0
O1669 O 0.02857 0.55778 0.92779 0.0
H1670 H 0.96514 0.51039 0.90965 0.0
H1671 H 0.00206 0.64739 0.92518 0.0
H1672 H 0.98137 0.18409 0.92609 0.0
H1673 H 0.08251 0.43151 0.95886 0.0
H1674 H -0.00229 0.12663 0.94218 0.0
H1675 H 0.1067 0.36493 0.94773 0.0
O1676 O 0.97412 0.38559 0.93652 0.0
H1677 H 0.01135 0.61994 0.96506 0.0
H1678 H 0.95407 0.57941 0.9356 0.0
H1679 H 0.94245 0.63738 0.95172 0.0
H1680 H 0.97118 0.65776 0.96661 0.0
H1681 H 0.0222 0.56212 0.94881 0.0
H1682 H 0.98606 0.71978 0.91152 0.0
H1683 H 0.95906 0.68679 0.89676 0.0
O1684 O 0.96646 0.47733 0.92994 0.0
C1685 C 0.01116 0.41468 0.91516 0.0
C1686 C 0.96027 0.5962 0.90229 0.0
C1687 C 0.98133 0.67394 0.91106 0.0
N1688 N 0.98434 0.57493 0.91826 0.0
C1689 C 0.96962 0.55632 0.91013 0.0
C1690 C 0.99035 0.63279 0.91876 0.0
C1691 C 0.96617 0.6554 0.90278 0.0
C1692 C 0.05075 0.407 0.95068 0.0
N1693 N 0.04068 0.37332 0.94273 0.0
C1694 C 0.07461 0.40451 0.9526 0.0
C1695 C 0.08818 0.36721 0.94634 0.0
C1696 C 0.07779 0.33298 0.93826 0.0
C1697 C 0.05388 0.3367 0.93655 0.0
C1698 C 0.01112 0.20292 0.95021 0.0
C1699 C 0.99303 0.26708 0.93227 0.0
C1700 C 0.01336 0.26395 0.94951 0.0
N1701 N 0.00448 0.29512 0.94058 0.0
C1702 C 0.99043 0.20611 0.9327 0.0
C1703 C -0.00042 0.17391 0.94174 0.0
C1704 C 0.9603 0.42471 0.93257 0.0
C1705 C -0.0013 0.61156 0.9586 0.0
C1706 C 0.96669 0.58844 0.94201 0.0
C1707 C 0.96001 0.62124 0.95112 0.0
C1708 C 0.97615 0.63269 0.95947 0.0
N1709 N 0.98883 0.56782 0.94123 0.0
C1710 C 0.00477 0.57909 0.94935 0.0
Co1711 Co 0.74674 0.3464 0.94043 0.0
Co1712 Co 0.75708 0.2063 0.93165 0.0
O1713 O 0.74285 0.26232 0.94124 0.0
C1714 C 0.76339 0.30453 0.96233 0.0
O1715 O 0.77738 0.27141 0.95667 0.0
C1716 C 0.7072 0.19857 0.92835 0.0
O1717 O 0.70852 0.25574 0.92715 0.0
O1718 O 0.75055 0.25594 0.91828 0.0
O1719 O 0.74316 0.34815 0.92368 0.0
H1720 H 0.80844 0.13857 0.9009 0.0
H1721 H 0.71166 0.29253 0.95558 0.0
O1722 O 0.7506 0.34248 0.95718 0.0
H1723 H 0.66791 0.4254 0.93006 0.0
H1724 H 0.73574 0.54981 0.95481 0.0
H1725 H 0.77139 0.43175 0.92564 0.0
H1726 H 0.71038 0.41706 0.92862 0.0
H1727 H 0.73075 0.44217 0.95486 0.0
O1728 O 0.72564 0.16837 0.93006 0.0
H1729 H 0.79108 0.21136 0.91322 0.0
H1730 H 0.75171 0.07745 0.92943 0.0
H1731 H 0.77668 0.53924 0.92521 0.0
H1732 H 0.66927 0.2998 0.95736 0.0
H1733 H 0.75877 0.59901 0.93988 0.0
H1734 H 0.64709 0.36643 0.94451 0.0
O1735 O 0.78055 0.33852 0.93842 0.0
H1736 H 0.73873 0.1083 0.96853 0.0
H1737 H 0.79916 0.1446 0.94036 0.0
H1738 H 0.80875 0.08732 0.95752 0.0
H1739 H 0.77842 0.06905 0.97176 0.0
H1740 H 0.72992 0.16536 0.95127 0.0
H1741 H 0.76851 0.00316 0.91723 0.0
H1742 H 0.79717 0.03361 0.90288 0.0
O1743 O 0.78803 0.24641 0.93296 0.0
C1744 C 0.74565 0.30967 0.91616 0.0
C1745 C 0.79605 0.12472 0.90715 0.0
C1746 C 0.77361 0.04873 0.91631 0.0
N1747 N 0.7706 0.14848 0.9221 0.0
C1748 C 0.78622 0.1657 0.91417 0.0
C1749 C 0.76413 0.09095 0.92318 0.0
C1750 C 0.78969 0.06585 0.90826 0.0
C1751 C 0.70219 0.32223 0.95005 0.0
N1752 N 0.71351 0.35476 0.94207 0.0
C1753 C 0.67816 0.32592 0.95106 0.0
C1754 C 0.66572 0.36325 0.94384 0.0
C1755 C 0.67739 0.39633 0.93573 0.0
C1756 C 0.70143 0.39143 0.93495 0.0
C1757 C 0.74358 0.52426 0.94836 0.0
C1758 C 0.76341 0.45753 0.932 0.0
C1759 C 0.74086 0.46334 0.94836 0.0
N1760 N 0.75061 0.43089 0.94021 0.0
C1761 C 0.76653 0.51834 0.93174 0.0
C1762 C 0.7565 0.55184 0.93998 0.0
C1763 C 0.79439 0.2987 0.93523 0.0
C1764 C 0.75207 0.11574 0.96236 0.0
C1765 C 0.78585 0.1365 0.9465 0.0
C1766 C 0.79138 0.10408 0.95619 0.0
C1767 C 0.77435 0.09382 0.96418 0.0
N1768 N 0.76397 0.15786 0.94478 0.0
C1769 C 0.74715 0.14779 0.95255 0.0
Co1770 Co 0.01136 0.34751 0.81023 0.0
Co1771 Co 0.0015 0.20833 0.82097 0.0
O1772 O 0.015 0.26329 0.81039 0.0
C1773 C 0.99221 0.3044 0.78931 0.0
O1774 O 0.97956 0.27046 0.79579 0.0
C1775 C 0.05162 0.19992 0.82336 0.0
O1776 O 0.05055 0.25716 0.8239 0.0
O1777 O 0.00916 0.25895 0.83356 0.0
O1778 O 0.01675 0.35031 0.82688 0.0
H1779 H 0.95272 0.1442 0.85357 0.0
H1780 H 0.04454 0.29188 0.79487 0.0
O1781 O 0.00553 0.34271 0.79362 0.0
H1782 H 0.09139 0.42482 0.81763 0.0
H1783 H 0.02122 0.54955 0.79306 0.0
H1784 H 0.98867 0.43452 0.82459 0.0
H1785 H 0.04914 0.41781 0.82025 0.0
H1786 H 0.02591 0.44182 0.79422 0.0
O1787 O 0.03298 0.17006 0.82244 0.0
H1788 H 0.96903 0.21554 0.83995 0.0
H1789 H 0.00699 0.07967 0.82481 0.0
H1790 H 0.98373 0.54214 0.82382 0.0
H1791 H 0.08669 0.29776 0.79194 0.0
H1792 H 8e-05 0.60039 0.80796 0.0
H1793 H 0.11043 0.36442 0.8034 0.0
O1794 O 0.97781 0.34066 0.81317 0.0
H1795 H 0.01676 0.1063 0.78514 0.0
H1796 H 0.95872 0.14645 0.8139 0.0
H1797 H 0.94772 0.08749 0.79775 0.0
H1798 H 0.97684 0.06724 0.78321 0.0
H1799 H 0.02699 0.16517 0.8014 0.0
H1800 H 0.99123 0.00683 0.83832 0.0
H1801 H 0.96382 0.039 0.8528 0.0
O1802 O 0.97051 0.24876 0.81969 0.0
C1803 C 0.01458 0.31251 0.83493 0.0
C1804 C 0.96457 0.12961 0.84727 0.0
C1805 C 0.98622 0.05251 0.83872 0.0
N1806 N 0.98874 0.15159 0.83154 0.0
C1807 C 0.97379 0.16976 0.83951 0.0
C1808 C 0.9951 0.09392 0.83111 0.0
C1809 C 0.97083 0.07059 0.84684 0.0
C1810 C 0.05469 0.32157 0.79979 0.0
N1811 N 0.04436 0.35486 0.80766 0.0
C1812 C 0.07858 0.32448 0.79813 0.0
C1813 C 0.09189 0.36183 0.80458 0.0
C1814 C 0.08122 0.39571 0.81257 0.0
C1815 C 0.0573 0.39157 0.81402 0.0
C1816 C 0.01406 0.52467 0.80002 0.0
C1817 C 0.99597 0.45963 0.8177 0.0
C1818 C 0.01661 0.46369 0.8007 0.0
N1819 N 0.00772 0.43208 0.8095 0.0
C1820 C 0.99305 0.52052 0.81729 0.0
C1821 C 0.0022 0.55317 0.80838 0.0
C1822 C 0.96413 0.30122 0.81699 0.0
C1823 C 0.00394 0.11463 0.79144 0.0
C1824 C 0.9715 0.13755 0.80763 0.0
C1825 C 0.96518 0.10417 0.79851 0.0
C1826 C 0.98153 0.0928 0.79036 0.0
N1827 N 0.99351 0.15882 0.80863 0.0
C1828 C 0.00967 0.1477 0.80069 0.0
Co1829 Co 0.75025 0.38258 0.81077 0.0
Co1830 Co 0.76133 0.5221 0.8197 0.0
O1831 O 0.74675 0.4668 0.81 0.0
C1832 C 0.76691 0.42451 0.789 0.0
O1833 O 0.78125 0.4566 0.79474 0.0
C1834 C 0.71154 0.53096 0.82283 0.0
O1835 O 0.71278 0.47375 0.82396 0.0
O1836 O 0.75485 0.47222 0.83301 0.0
O1837 O 0.7467 0.38057 0.82751 0.0
H1838 H 0.81346 0.58728 0.85069 0.0
H1839 H 0.71533 0.43819 0.79549 0.0
O1840 O 0.75401 0.38684 0.79404 0.0
H1841 H 0.67113 0.30584 0.82056 0.0
H1842 H 0.73832 0.17999 0.79613 0.0
H1843 H 0.77451 0.29599 0.82566 0.0
H1844 H 0.71363 0.31282 0.82229 0.0
H1845 H 0.73381 0.28778 0.79615 0.0
O1846 O 0.73003 0.56088 0.82124 0.0
H1847 H 0.79565 0.51544 0.83823 0.0
H1848 H 0.75643 0.65099 0.82208 0.0
H1849 H 0.77933 0.18832 0.82601 0.0
H1850 H 0.67292 0.43227 0.79343 0.0
H1851 H 0.76116 0.12959 0.81117 0.0
H1852 H 0.65051 0.3659 0.80605 0.0
O1853 O 0.78411 0.38921 0.81299 0.0
H1854 H 0.74273 0.62176 0.78288 0.0
H1855 H 0.80347 0.58294 0.8112 0.0
H1856 H 0.81298 0.64051 0.79415 0.0
H1857 H 0.78249 0.66005 0.77983 0.0
H1858 H 0.734 0.56438 0.80004 0.0
H1859 H 0.77369 0.72435 0.83443 0.0
H1860 H 0.8025 0.69258 0.84883 0.0
O1861 O 0.79209 0.48114 0.81843 0.0
C1862 C 0.74957 0.41874 0.83507 0.0
C1863 C 0.801 0.60169 0.84442 0.0
C1864 C 0.77865 0.67861 0.8353 0.0
N1865 N 0.77521 0.5792 0.82937 0.0
C1866 C 0.79092 0.56125 0.83732 0.0
C1867 C 0.76892 0.63693 0.82835 0.0
C1868 C 0.79482 0.66076 0.84338 0.0
C1869 C 0.70576 0.40859 0.80092 0.0
N1870 N 0.71698 0.37543 0.80893 0.0
C1871 C 0.68172 0.40567 0.79975 0.0
C1872 C 0.66915 0.36849 0.80684 0.0
C1873 C 0.68071 0.3348 0.81499 0.0
C1874 C 0.70477 0.33893 0.81593 0.0
C1875 C 0.74629 0.20509 0.80265 0.0
C1876 C 0.76642 0.27067 0.81922 0.0
C1877 C 0.74383 0.26609 0.80269 0.0
N1878 N 0.75373 0.29797 0.81094 0.0
C1879 C 0.76927 0.20975 0.81944 0.0
C1880 C 0.75909 0.17683 0.8111 0.0
C1881 C 0.79818 0.4286 0.81619 0.0
C1882 C 0.75613 0.61377 0.78908 0.0
C1883 C 0.7901 0.59159 0.80503 0.0
C1884 C 0.79558 0.62417 0.79539 0.0
C1885 C 0.77846 0.63515 0.78736 0.0
N1886 N 0.76816 0.57076 0.80665 0.0
C1887 C 0.75126 0.58153 0.79884 0.0
H1888 H 0.48264 0.20327 0.09098 0.0
H1889 H 0.47611 0.08423 0.15436 0.0
H1890 H 0.47146 0.02166 0.10072 0.0
H1891 H 0.4861 0.26664 0.14476 0.0
H1892 H 0.47111 0.06159 0.13465 0.0
H1893 H 0.48019 0.22924 0.11065 0.0
C1894 C 0.47937 0.16908 0.09721 0.0
C1895 C 0.47762 0.11021 0.09421 0.0
C1896 C 0.47426 0.10663 0.1369 0.0
C1897 C 0.47499 0.13923 0.11666 0.0
C1898 C 0.47714 0.11949 0.14815 0.0
C1899 C 0.48173 0.17725 0.15126 0.0
C1900 C 0.47604 0.15181 0.12871 0.0
C1901 C 0.48278 0.22127 0.14281 0.0
C1902 C 0.47807 0.18378 0.10844 0.0
C1903 C 0.47334 0.06759 0.10264 0.0
N1904 N 0.4801 0.20757 0.13196 0.0
N1905 N 0.47238 0.08286 0.11346 0.0
H1906 H 0.76815 0.02525 0.15171 0.0
H1907 H 0.75084 0.26625 0.10313 0.0
H1908 H 0.75267 0.20728 0.1576 0.0
H1909 H 0.76061 0.08136 0.09737 0.0
H1910 H 0.75626 0.24751 0.12295 0.0
H1911 H 0.77078 0.04787 0.13188 0.0
C1912 C 0.76548 0.07026 0.14884 0.0
C1913 C 0.75978 0.11439 0.15632 0.0
C1914 C 0.75734 0.21104 0.11737 0.0
C1915 C 0.76269 0.14039 0.13351 0.0
C1916 C 0.7542 0.22154 0.106 0.0
C1917 C 0.75503 0.17508 0.09851 0.0
C1918 C 0.76133 0.15363 0.12138 0.0
C1919 C 0.75968 0.11843 0.10281 0.0
C1920 C 0.76699 0.08305 0.13748 0.0
C1921 C 0.75697 0.17194 0.15212 0.0
N1922 N 0.76251 0.10926 0.11398 0.0
N1923 N 0.75817 0.18318 0.14095 0.0
H1924 H 0.51516 0.72873 0.85329 0.0
H1925 H 0.52272 0.98063 0.89792 0.0
H1926 H 0.51968 0.91362 0.84454 0.0
H1927 H 0.51286 0.79736 0.90677 0.0
H1928 H 0.52649 0.95518 0.87852 0.0
H1929 H 0.51889 0.75193 0.87283 0.0
C1930 C 0.51704 0.77437 0.85544 0.0
C1931 C 0.51685 0.81946 0.84719 0.0
C1932 C 0.52365 0.92039 0.88468 0.0
C1933 C 0.52116 0.84608 0.86973 0.0
C1934 C 0.52147 0.93479 0.8958 0.0
C1935 C 0.5171 0.89104 0.90401 0.0
C1936 C 0.52139 0.86175 0.88164 0.0
C1937 C 0.51609 0.83248 0.90073 0.0
C1938 C 0.5192 0.78744 0.86665 0.0
C1939 C 0.51961 0.87749 0.85058 0.0
N1940 N 0.51798 0.81958 0.88976 0.0
N1941 N 0.52149 0.88915 0.86161 0.0
H1942 H 0.23783 0.97967 0.85004 0.0
H1943 H 0.24029 0.73369 0.89838 0.0
H1944 H 0.24348 0.79416 0.84389 0.0
H1945 H 0.23854 0.91993 0.90434 0.0
H1946 H 0.23728 0.75449 0.87849 0.0
H1947 H 0.23381 0.95753 0.86978 0.0
C1948 C 0.23817 0.93404 0.85282 0.0
C1949 C 0.24136 0.88861 0.84526 0.0
C1950 C 0.23741 0.79084 0.88413 0.0
C1951 C 0.23671 0.86314 0.86804 0.0
C1952 C 0.23917 0.77914 0.89553 0.0
C1953 C 0.23995 0.8253 0.9031 0.0
C1954 C 0.23647 0.84915 0.88017 0.0
C1955 C 0.23812 0.88302 0.89884 0.0
C1956 C 0.23581 0.92155 0.86414 0.0
C1957 C 0.2412 0.83052 0.84941 0.0
N1958 N 0.23664 0.89331 0.88764 0.0
N1959 N 0.23914 0.81945 0.86056 0.0
H1960 H 0.47768 0.52124 0.60117 0.0
H1961 H 0.48573 0.78407 0.64348 0.0
H1962 H 0.48479 0.70323 0.59071 0.0
H1963 H 0.4815 0.60139 0.65395 0.0
H1964 H 0.48202 0.75578 0.62423 0.0
H1965 H 0.47538 0.55077 0.6204 0.0
C1966 C 0.47864 0.56763 0.6029 0.0
C1967 C 0.48174 0.60987 0.59427 0.0
C1968 C 0.4818 0.72183 0.63071 0.0
C1969 C 0.47914 0.64384 0.61645 0.0
C1970 C 0.48396 0.73783 0.64177 0.0
C1971 C 0.48413 0.69491 0.65042 0.0
C1972 C 0.47984 0.66239 0.62819 0.0
C1973 C 0.48156 0.63594 0.64758 0.0
C1974 C 0.47731 0.58436 0.61393 0.0
C1975 C 0.48251 0.66919 0.59707 0.0
N1976 N 0.47965 0.6214 0.63669 0.0
N1977 N 0.48143 0.68439 0.60795 0.0
H1978 H 0.7521 0.68783 0.65557 0.0
H1979 H 0.75524 0.5603 0.59389 0.0
H1980 H 0.74589 0.50402 0.64796 0.0
H1981 H 0.75828 0.74534 0.60084 0.0
H1982 H 0.75589 0.53844 0.61396 0.0
H1983 H 0.75791 0.70996 0.63565 0.0
C1984 C 0.75201 0.65225 0.64976 0.0
C1985 C 0.74827 0.59417 0.65348 0.0
C1986 C 0.75657 0.58382 0.61107 0.0
C1987 C 0.75502 0.61889 0.63077 0.0
C1988 C 0.75629 0.59623 0.59961 0.0
C1989 C 0.7564 0.65465 0.59566 0.0
C1990 C 0.75697 0.63018 0.61861 0.0
C1991 C 0.75783 0.69954 0.60348 0.0
C1992 C 0.75536 0.6648 0.63841 0.0
C1993 C 0.74846 0.54966 0.64555 0.0
N1994 N 0.75788 0.68638 0.61456 0.0
N1995 N 0.75169 0.56301 0.63462 0.0
H1996 H 0.51733 0.48552 0.39691 0.0
H1997 H 0.51222 0.22785 0.3534 0.0
H1998 H 0.51108 0.30211 0.40652 0.0
H1999 H 0.51576 0.41176 0.34377 0.0
H2000 H 0.5157 0.25378 0.37281 0.0
H2001 H 0.52081 0.45843 0.37758 0.0
C2002 C 0.5168 0.43934 0.39498 0.0
C2003 C 0.51359 0.39596 0.40339 0.0
C2004 C 0.51585 0.28852 0.36647 0.0
C2005 C 0.51758 0.3648 0.3811 0.0
C2006 C 0.51382 0.27387 0.35534 0.0
C2007 C 0.51343 0.31785 0.34688 0.0
C2008 C 0.51744 0.34766 0.36927 0.0
C2009 C 0.51586 0.37644 0.34998 0.0
C2010 C 0.51883 0.42401 0.3839 0.0
C2011 C 0.51341 0.337 0.40033 0.0
N2012 N 0.51759 0.38967 0.36095 0.0
N2013 N 0.51516 0.32317 0.3894 0.0
H2014 H 0.23883 0.49352 0.35085 0.0
H2015 H 0.23091 0.25277 0.39994 0.0
H2016 H 0.23656 0.30679 0.34542 0.0
H2017 H 0.23796 0.43868 0.40537 0.0
H2018 H 0.22812 0.2728 0.38002 0.0
H2019 H 0.23387 0.47469 0.37065 0.0
C2020 C 0.23722 0.44835 0.3538 0.0
C2021 C 0.23844 0.40148 0.34642 0.0
C2022 C 0.23012 0.30931 0.38555 0.0
C2023 C 0.23269 0.37988 0.36927 0.0
C2024 C 0.23174 0.29803 0.39696 0.0
C2025 C 0.23504 0.34419 0.40437 0.0
C2026 C 0.23185 0.36718 0.38143 0.0
C2027 C 0.23557 0.40178 0.39998 0.0
C2028 C 0.23433 0.43778 0.36516 0.0
C2029 C 0.23587 0.3442 0.35079 0.0
N2030 N 0.23423 0.4116 0.38876 0.0
N2031 N 0.2333 0.33498 0.36196 0.0
H2032 H 0.97979 0.00346 0.602 0.0
H2033 H 0.97375 0.25886 0.64594 0.0
H2034 H 0.97929 0.18794 0.59264 0.0
H2035 H 0.97891 0.07471 0.65521 0.0
H2036 H 0.97119 0.23315 0.62647 0.0
H2037 H 0.97502 0.0287 0.62134 0.0
C2038 C 0.9786 0.04949 0.60398 0.0
C2039 C 0.98026 0.09379 0.59563 0.0
C2040 C 0.97273 0.19828 0.63274 0.0
C2041 C 0.97474 0.12283 0.61796 0.0
C2042 C 0.9742 0.21281 0.64391 0.0
C2043 C 0.97686 0.1688 0.65228 0.0
C2044 C 0.97395 0.13926 0.62983 0.0
C2045 C 0.97699 0.11007 0.64907 0.0
C2046 C 0.97583 0.06375 0.61508 0.0
C2047 C 0.97823 0.15239 0.59878 0.0
N2048 N 0.97578 0.09704 0.63808 0.0
N2049 N 0.97576 0.16524 0.60972 0.0
H2050 H 0.25852 0.08562 0.59607 0.0
H2051 H 0.25161 0.21183 0.6577 0.0
H2052 H 0.25084 0.26969 0.60316 0.0
H2053 H 0.25956 0.02802 0.65054 0.0
H2054 H 0.25513 0.23527 0.63772 0.0
H2055 H 0.26246 0.06441 0.61611 0.0
C2056 C 0.2578 0.12152 0.6018 0.0
C2057 C 0.25409 0.17933 0.5979 0.0
C2058 C 0.25627 0.18985 0.64057 0.0
C2059 C 0.25856 0.15557 0.6208 0.0
C2060 C 0.25434 0.17657 0.65197 0.0
C2061 C 0.25493 0.11793 0.65579 0.0
C2062 C 0.25883 0.14412 0.633 0.0
C2063 C 0.25858 0.0739 0.64798 0.0
C2064 C 0.26005 0.10948 0.61324 0.0
C2065 C 0.25341 0.22423 0.60573 0.0
N2066 N 0.2602 0.08786 0.63698 0.0
N2067 N 0.25547 0.21135 0.61678 0.0
H2068 H 0.01522 0.92325 0.34287 0.0
H2069 H 0.01417 0.80744 0.40659 0.0
H2070 H 0.01444 0.73975 0.35298 0.0
H2071 H 0.01442 0.9907 0.39632 0.0
H2072 H 0.01791 0.7813 0.38699 0.0
H2073 H 0.01853 0.94881 0.36251 0.0
C2074 C 0.01593 0.88839 0.34918 0.0
C2075 C 0.01429 0.82937 0.34624 0.0
C2076 C 0.01729 0.82723 0.38907 0.0
C2077 C 0.01799 0.85814 0.36872 0.0
C2078 C 0.01521 0.84209 0.40026 0.0
C2079 C 0.01368 0.90124 0.40313 0.0
C2080 C 0.01788 0.87186 0.38073 0.0
C2081 C 0.01519 0.94439 0.39455 0.0
C2082 C 0.01778 0.90293 0.3604 0.0
C2083 C 0.01537 0.78598 0.3548 0.0
N2084 N 0.01705 0.92884 0.38377 0.0
N2085 N 0.01699 0.80125 0.36562 0.0
H2086 H 0.73369 0.90961 0.40392 0.0
H2087 H 0.74048 0.78145 0.34251 0.0
H2088 H 0.74296 0.72572 0.39708 0.0
H2089 H 0.72974 0.96462 0.34942 0.0
H2090 H 0.73733 0.75837 0.36251 0.0
H2091 H 0.72852 0.92951 0.38391 0.0
C2092 C 0.7345 0.87346 0.39825 0.0
C2093 C 0.73903 0.81612 0.40221 0.0
C2094 C 0.73547 0.80354 0.35961 0.0
C2095 C 0.73315 0.8384 0.37934 0.0
C2096 C 0.73717 0.8166 0.34819 0.0
C2097 C 0.73578 0.87505 0.34431 0.0
C2098 C 0.73233 0.8493 0.36712 0.0
C2099 C 0.73139 0.91896 0.35205 0.0
C2100 C 0.73153 0.88476 0.38683 0.0
C2101 C 0.73977 0.77086 0.39445 0.0
N2102 N 0.73004 0.90525 0.36307 0.0
N2103 N 0.73703 0.78304 0.38341 0.0
H2104 H 0.97591 0.58092 0.15449 0.0
H2105 H 0.98172 0.69912 0.09102 0.0
H2106 H 0.98477 0.76345 0.14471 0.0
H2107 H 0.97306 0.5167 0.10084 0.0
H2108 H 0.97886 0.7251 0.11066 0.0
H2109 H 0.97126 0.55747 0.13479 0.0
C2110 C 0.97675 0.61604 0.14824 0.0
C2111 C 0.98097 0.67407 0.1513 0.0
C2112 C 0.9774 0.67944 0.10848 0.0
C2113 C 0.97566 0.64772 0.12877 0.0
C2114 C 0.97893 0.66471 0.09726 0.0
C2115 C 0.97798 0.60567 0.09428 0.0
C2116 C 0.97487 0.63478 0.11673 0.0
C2117 C 0.97429 0.5628 0.10274 0.0
C2118 C 0.97409 0.6027 0.137 0.0
C2119 C 0.98179 0.71788 0.1428 0.0
N2120 N 0.97308 0.57815 0.11355 0.0
N2121 N 0.9793 0.70374 0.13196 0.0
H2122 H 0.25209 0.69913 0.15783 0.0
H2123 H 0.25802 0.57688 0.09582 0.0
H2124 H 0.25904 0.51564 0.15021 0.0
H2125 H 0.24902 0.75997 0.10338 0.0
H2126 H 0.26204 0.55439 0.11582 0.0
H2127 H 0.25488 0.72366 0.13786 0.0
C2128 C 0.25443 0.66417 0.152 0.0
C2129 C 0.25499 0.60531 0.1557 0.0
C2130 C 0.2593 0.59952 0.11306 0.0
C2131 C 0.25809 0.63276 0.13291 0.0
C2132 C 0.25701 0.6123 0.10165 0.0
C2133 C 0.25295 0.67022 0.09789 0.0
C2134 C 0.25754 0.64499 0.12073 0.0
C2135 C 0.25189 0.71446 0.10584 0.0
C2136 C 0.25595 0.67807 0.14061 0.0
C2137 C 0.25812 0.56167 0.14776 0.0
N2138 N 0.25405 0.70087 0.11686 0.0
N2139 N 0.25939 0.57625 0.13677 0.0
H2140 H 0.0186 0.42367 0.84337 0.0
H2141 H 0.0175 0.30394 0.90682 0.0
H2142 H 0.02023 0.23976 0.85314 0.0
H2143 H 0.01608 0.4878 0.89698 0.0
H2144 H 0.02233 0.27947 0.88719 0.0
H2145 H 0.0216 0.44846 0.86308 0.0
C2146 C 0.01982 0.3886 0.84962 0.0
C2147 C 0.01883 0.32966 0.84658 0.0
C2148 C 0.02111 0.32518 0.88938 0.0
C2149 C 0.02215 0.35747 0.86911 0.0
C2150 C 0.01839 0.33908 0.90058 0.0
C2151 C 0.01607 0.39786 0.90357 0.0
C2152 C 0.02153 0.3704 0.88115 0.0
C2153 C 0.01745 0.4417 0.89511 0.0
C2154 C 0.02147 0.40268 0.86087 0.0
C2155 C 0.02056 0.28593 0.85506 0.0
N2156 N 0.01992 0.42706 0.88431 0.0
N2157 N 0.02195 0.30072 0.86591 0.0
H2158 H 0.74072 0.23618 0.89873 0.0
H2159 H 0.7465 0.4926 0.85251 0.0
H2160 H 0.74301 0.42043 0.90637 0.0
H2161 H 0.74367 0.3085 0.84477 0.0
H2162 H 0.74233 0.46698 0.87211 0.0
H2163 H 0.73872 0.2622 0.87902 0.0
C2164 C 0.7407 0.2823 0.89629 0.0
C2165 C 0.74232 0.3263 0.90426 0.0
C2166 C 0.7425 0.43211 0.86615 0.0
C2167 C 0.74004 0.35621 0.88155 0.0
C2168 C 0.74495 0.44659 0.85491 0.0
C2169 C 0.74569 0.40248 0.84693 0.0
C2170 C 0.74086 0.37302 0.86955 0.0
C2171 C 0.7433 0.3439 0.85061 0.0
C2172 C 0.73952 0.29702 0.88498 0.0
C2173 C 0.7419 0.38511 0.90053 0.0
N2174 N 0.74115 0.33083 0.86168 0.0
N2175 N 0.741 0.39834 0.88942 0.0
H2176 H 0.29744 0.91598 0.07069 0.0
H2177 H 0.43462 0.85878 0.07346 0.0
H2178 H 0.32871 0.74542 0.07653 0.0
H2179 H 0.40353 0.03105 0.07026 0.0
H2180 H 0.39572 0.81582 0.07407 0.0
H2181 H 0.33631 0.9593 0.07009 0.0
C2182 C 0.31242 0.88779 0.07189 0.0
C2183 C 0.30981 0.82715 0.07369 0.0
C2184 C 0.39748 0.86306 0.07325 0.0
C2185 C 0.35415 0.87596 0.07294 0.0
C2186 C 0.41966 0.88746 0.07289 0.0
C2187 C 0.42232 0.94846 0.07186 0.0
C2188 C 0.37793 0.90001 0.07254 0.0
C2189 C 0.40234 0.98372 0.07113 0.0
C2190 C 0.33458 0.91239 0.07153 0.0
C2191 C 0.32983 0.79249 0.07515 0.0
N2192 N 0.38103 0.959 0.07148 0.0
N2193 N 0.3511 0.81736 0.07472 0.0
H2194 H 0.82949 0.23705 0.07372 0.0
H2195 H 0.90448 0.53004 0.06931 0.0
H2196 H 0.79942 0.4101 0.06962 0.0
H2197 H 0.93445 0.3564 0.07216 0.0
H2198 H 0.86608 0.48689 0.06927 0.0
H2199 H 0.86785 0.28009 0.07304 0.0
C2200 C 0.83091 0.2843 0.0727 0.0
C2201 C 0.81113 0.32017 0.07179 0.0
C2202 C 0.881 0.45811 0.0699 0.0
C2203 C 0.85532 0.36972 0.07098 0.0
C2204 C 0.90302 0.48267 0.06995 0.0
C2205 C 0.92278 0.44668 0.07081 0.0
C2206 C 0.87858 0.39701 0.07075 0.0
C2207 C 0.91971 0.38572 0.07152 0.0
C2208 C 0.85292 0.30877 0.07229 0.0
C2209 C 0.81418 0.3809 0.07039 0.0
N2210 N 0.89797 0.36276 0.0715 0.0
N2211 N 0.83592 0.40384 0.07006 0.0
H2212 H 0.40631 0.24386 0.17401 0.0
H2213 H 0.33026 0.53298 0.18033 0.0
H2214 H 0.43556 0.41691 0.17757 0.0
H2215 H 0.30086 0.35909 0.17865 0.0
H2216 H 0.36875 0.49106 0.17921 0.0
H2217 H 0.36774 0.28532 0.17543 0.0
C2218 C 0.40466 0.29078 0.17504 0.0
C2219 C 0.42427 0.32712 0.17563 0.0
C2220 C 0.35394 0.46193 0.1791 0.0
C2221 C 0.37989 0.37476 0.17732 0.0
C2222 C 0.33186 0.48579 0.17972 0.0
C2223 C 0.31224 0.4494 0.17952 0.0
C2224 C 0.35656 0.40112 0.17823 0.0
C2225 C 0.31551 0.38868 0.17881 0.0
C2226 C 0.38254 0.31432 0.17589 0.0
C2227 C 0.42094 0.38738 0.17703 0.0
N2228 N 0.33732 0.36639 0.17815 0.0
N2229 N 0.39913 0.40936 0.17782 0.0
H2230 H 0.83288 0.03939 0.18332 0.0
H2231 H 0.90581 0.74902 0.17282 0.0
H2232 H 0.80178 0.86905 0.179 0.0
H2233 H 0.93702 0.91808 0.17843 0.0
H2234 H 0.86775 0.7924 0.17494 0.0
H2235 H 0.871 0.99555 0.18169 0.0
C2236 C 0.83405 0.99258 0.18204 0.0
C2237 C 0.81406 0.95778 0.18121 0.0
C2238 C 0.88287 0.82014 0.17569 0.0
C2239 C 0.85789 0.90735 0.17931 0.0
C2240 C 0.90469 0.7955 0.17444 0.0
C2241 C 0.9247 0.83011 0.17542 0.0
C2242 C 0.88091 0.87996 0.17792 0.0
C2243 C 0.92207 0.88989 0.17756 0.0
C2244 C 0.85589 0.96763 0.18111 0.0
C2245 C 0.81673 0.89743 0.17967 0.0
N2246 N 0.90052 0.91297 0.17875 0.0
N2247 N 0.83829 0.87411 0.17871 0.0
H2248 H 0.66584 0.25498 0.92642 0.0
H2249 H 0.59037 0.96243 0.92904 0.0
H2250 H 0.69555 0.08132 0.9301 0.0
H2251 H 0.56073 0.13664 0.92696 0.0
H2252 H 0.62884 0.00511 0.92928 0.0
H2253 H 0.62742 0.21217 0.92642 0.0
C2254 C 0.66433 0.20765 0.9272 0.0
C2255 C 0.68402 0.17154 0.92822 0.0
C2256 C 0.61398 0.0341 0.92877 0.0
C2257 C 0.63978 0.12229 0.92825 0.0
C2258 C 0.59192 0.00983 0.9286 0.0
C2259 C 0.57224 0.04614 0.92792 0.0
C2260 C 0.6165 0.09523 0.92822 0.0
C2261 C 0.57542 0.10709 0.92747 0.0
C2262 C 0.64229 0.18331 0.92722 0.0
C2263 C 0.68086 0.1107 0.92927 0.0
N2264 N 0.59719 0.12978 0.92761 0.0
N2265 N 0.65909 0.08791 0.92924 0.0
H2266 H 0.19504 0.58695 0.93027 0.0
H2267 H 0.058 0.64621 0.92765 0.0
H2268 H 0.16428 0.75983 0.92782 0.0
H2269 H 0.08918 0.4737 0.92753 0.0
H2270 H 0.09689 0.68919 0.92847 0.0
H2271 H 0.15609 0.5443 0.93011 0.0
C2272 C 0.18014 0.61582 0.92971 0.0
C2273 C 0.18291 0.67687 0.92898 0.0
C2274 C 0.09514 0.64191 0.92825 0.0
C2275 C 0.13846 0.62879 0.92882 0.0
C2276 C 0.07297 0.61749 0.92777 0.0
C2277 C 0.07034 0.55644 0.92746 0.0
C2278 C 0.11468 0.60487 0.92845 0.0
C2279 C 0.09033 0.52111 0.92769 0.0
C2280 C 0.15793 0.59159 0.9296 0.0
C2281 C 0.163 0.71242 0.92831 0.0
N2282 N 0.11161 0.54583 0.92817 0.0
N2283 N 0.14166 0.68786 0.92823 0.0
H2284 H 0.56341 0.58211 0.82262 0.0
H2285 H 0.69988 0.64843 0.82125 0.0
H2286 H 0.59252 0.75673 0.82285 0.0
H2287 H 0.67027 0.47468 0.82435 0.0
H2288 H 0.66057 0.68966 0.8211 0.0
H2289 H 0.60274 0.54175 0.82248 0.0
C2290 C 0.57804 0.61185 0.82265 0.0
C2291 C 0.57469 0.67271 0.82281 0.0
C2292 C 0.66278 0.64251 0.82183 0.0
C2293 C 0.61959 0.62723 0.82261 0.0
C2294 C 0.68518 0.61909 0.82192 0.0
C2295 C 0.68837 0.55819 0.82286 0.0
C2296 C 0.64359 0.60459 0.82263 0.0
C2297 C 0.66871 0.522 0.82366 0.0
C2298 C 0.60047 0.58892 0.82258 0.0
C2299 C 0.59425 0.70941 0.82281 0.0
N2300 N 0.64722 0.54574 0.82352 0.0
N2301 N 0.61584 0.6861 0.8227 0.0
H2302 H 0.09331 0.25516 0.8237 0.0
H2303 H 0.16698 0.96021 0.82082 0.0
H2304 H 0.06266 0.08255 0.82224 0.0
H2305 H 0.19772 0.13308 0.82049 0.0
H2306 H 0.12884 0.00443 0.82147 0.0
H2307 H 0.13151 0.21124 0.82277 0.0
C2308 C 0.09458 0.20784 0.82323 0.0
C2309 C 0.07469 0.17233 0.82309 0.0
C2310 C 0.14386 0.03283 0.82125 0.0
C2311 C 0.11864 0.12186 0.82198 0.0
C2312 C 0.16574 0.00766 0.8209 0.0
C2313 C 0.18564 0.04312 0.82066 0.0
C2314 C 0.14173 0.09402 0.8214 0.0
C2315 C 0.18285 0.10419 0.82069 0.0
C2316 C 0.11648 0.18288 0.82266 0.0
C2317 C 0.07751 0.11147 0.8224 0.0
N2318 N 0.16123 0.12779 0.82109 0.0
N2319 N 0.09913 0.0881 0.82188 0.0
H2320 H 0.40559 0.53816 0.57067 0.0
H2321 H 0.32925 0.24744 0.57487 0.0
H2322 H 0.43444 0.36311 0.57267 0.0
H2323 H 0.2997 0.42105 0.57071 0.0
H2324 H 0.36768 0.28969 0.57436 0.0
H2325 H 0.36686 0.49657 0.57093 0.0
C2326 C 0.40381 0.49083 0.57119 0.0
C2327 C 0.42334 0.45394 0.57171 0.0
C2328 C 0.35286 0.31871 0.57357 0.0
C2329 C 0.37884 0.40615 0.57198 0.0
C2330 C 0.33079 0.29467 0.57388 0.0
C2331 C 0.31113 0.33089 0.57287 0.0
C2332 C 0.35546 0.37958 0.57226 0.0
C2333 C 0.31437 0.39161 0.57155 0.0
C2334 C 0.38162 0.4672 0.57131 0.0
C2335 C 0.41989 0.39311 0.57229 0.0
N2336 N 0.33619 0.41414 0.5713 0.0
N2337 N 0.39802 0.37109 0.57243 0.0
H2338 H 0.83365 0.72208 0.57117 0.0
H2339 H 0.90717 0.01775 0.57192 0.0
H2340 H 0.80321 0.89544 0.56953 0.0
H2341 H 0.93842 0.84541 0.57147 0.0
H2342 H 0.86916 0.97316 0.57122 0.0
H2343 H 0.87198 0.76601 0.5714 0.0
C2344 C 0.835 0.76953 0.57088 0.0
C2345 C 0.81514 0.80527 0.5704 0.0
C2346 C 0.88427 0.94493 0.57128 0.0
C2347 C 0.85917 0.85574 0.57064 0.0
C2348 C 0.90609 0.97032 0.57171 0.0
C2349 C 0.9261 0.93515 0.5718 0.0
C2350 C 0.88227 0.88375 0.57097 0.0
C2351 C 0.92346 0.87409 0.57144 0.0
C2352 C 0.85696 0.7945 0.57098 0.0
C2353 C 0.81803 0.86631 0.56994 0.0
N2354 N 0.90188 0.85023 0.57106 0.0
N2355 N 0.83968 0.88965 0.5701 0.0
H2356 H 0.43602 0.93919 0.67663 0.0
H2357 H 0.29946 0.87302 0.67796 0.0
H2358 H 0.40631 0.7683 0.67115 0.0
H2359 H 0.32942 0.04525 0.68151 0.0
H2360 H 0.33863 0.83261 0.67606 0.0
H2361 H 0.39689 0.97871 0.67878 0.0
C2362 C 0.4213 0.91014 0.6758 0.0
C2363 C 0.42446 0.8505 0.67367 0.0
C2364 C 0.33655 0.87925 0.67727 0.0
C2365 C 0.37973 0.895 0.67623 0.0
C2366 C 0.31423 0.90218 0.67839 0.0
C2367 C 0.31116 0.96252 0.67982 0.0
C2368 C 0.35582 0.91703 0.67763 0.0
C2369 C 0.3309 0.99846 0.68032 0.0
C2370 C 0.39898 0.93258 0.67707 0.0
C2371 C 0.40475 0.81467 0.67276 0.0
N2372 N 0.35232 0.9752 0.67921 0.0
N2373 N 0.38327 0.83744 0.67406 0.0
H2374 H 0.82403 0.52376 0.67556 0.0
H2375 H 0.9016 0.23408 0.67707 0.0
H2376 H 0.79532 0.34914 0.67885 0.0
H2377 H 0.92979 0.40971 0.67613 0.0
H2378 H 0.86274 0.27498 0.67746 0.0
H2379 H 0.86263 0.48218 0.67548 0.0
C2380 C 0.82579 0.47645 0.67624 0.0
C2381 C 0.8063 0.43977 0.67718 0.0
C2382 C 0.87738 0.30464 0.67717 0.0
C2383 C 0.85086 0.39182 0.67709 0.0
C2384 C 0.89965 0.28141 0.67691 0.0
C2385 C 0.91905 0.31865 0.6765 0.0
C2386 C 0.87435 0.36566 0.67698 0.0
C2387 C 0.91535 0.37944 0.67641 0.0
C2388 C 0.84796 0.45279 0.67621 0.0
C2389 C 0.80984 0.37896 0.67809 0.0
N2390 N 0.8934 0.40107 0.67662 0.0
N2391 N 0.83175 0.35681 0.678 0.0
H2392 H 0.55906 0.64028 0.42735 0.0
H2393 H 0.69578 0.57558 0.42933 0.0
H2394 H 0.5886 0.4659 0.42767 0.0
H2395 H 0.6655 0.74909 0.42714 0.0
H2396 H 0.65659 0.53376 0.42944 0.0
H2397 H 0.59825 0.68101 0.42795 0.0
C2398 C 0.57375 0.61065 0.42753 0.0
C2399 C 0.57056 0.54975 0.42739 0.0
C2400 C 0.65863 0.581 0.42894 0.0
C2401 C 0.61534 0.5957 0.42812 0.0
C2402 C 0.68096 0.60475 0.42888 0.0
C2403 C 0.68393 0.66576 0.42815 0.0
C2404 C 0.63928 0.61868 0.4283 0.0
C2405 C 0.66412 0.7017 0.42763 0.0
C2406 C 0.59611 0.63381 0.42788 0.0
C2407 C 0.59022 0.51324 0.42769 0.0
N2408 N 0.64271 0.67764 0.4277 0.0
N2409 N 0.61175 0.53677 0.42803 0.0
H2410 H 0.08777 0.9819 0.42546 0.0
H2411 H 0.16007 0.27801 0.43031 0.0
H2412 H 0.05593 0.15285 0.42777 0.0
H2413 H 0.19125 0.1056 0.43002 0.0
H2414 H 0.12195 0.23328 0.42933 0.0
H2415 H 0.12563 0.02695 0.4269 0.0
C2416 C 0.0887 0.02913 0.42622 0.0
C2417 C 0.06857 0.06378 0.42646 0.0
C2418 C 0.13708 0.20515 0.4295 0.0
C2419 C 0.11218 0.11564 0.42816 0.0
C2420 C 0.15892 0.2306 0.43004 0.0
C2421 C 0.17892 0.19537 0.43017 0.0
C2422 C 0.13514 0.14398 0.42905 0.0
C2423 C 0.1763 0.13432 0.42991 0.0
C2424 C 0.11042 0.05476 0.42708 0.0
C2425 C 0.07098 0.12458 0.42751 0.0
N2426 N 0.15476 0.11052 0.42932 0.0
N2427 N 0.09246 0.14866 0.42832 0.0
H2428 H 0.66185 0.94872 0.31795 0.0
H2429 H 0.58848 0.24088 0.32597 0.0
H2430 H 0.69251 0.1204 0.32114 0.0
H2431 H 0.5573 0.0713 0.32082 0.0
H2432 H 0.62653 0.19686 0.32456 0.0
H2433 H 0.62359 0.99249 0.31911 0.0
C2434 C 0.66055 0.99578 0.31889 0.0
C2435 C 0.68045 0.03105 0.31952 0.0
C2436 C 0.61143 0.16912 0.32376 0.0
C2437 C 0.6365 0.08134 0.32087 0.0
C2438 C 0.58959 0.19415 0.32459 0.0
C2439 C 0.56959 0.1596 0.32353 0.0
C2440 C 0.61343 0.10896 0.32186 0.0
C2441 C 0.57225 0.09946 0.32173 0.0
C2442 C 0.63863 0.02068 0.31955 0.0
C2443 C 0.67764 0.09166 0.32064 0.0
N2444 N 0.59382 0.07598 0.32094 0.0
N2445 N 0.65602 0.11492 0.32132 0.0
H2446 H 0.16533 0.46735 0.31952 0.0
H2447 H 0.0904 0.76018 0.32278 0.0
H2448 H 0.19577 0.64041 0.32008 0.0
H2449 H 0.06084 0.58648 0.32108 0.0
H2450 H 0.12893 0.71776 0.32164 0.0
H2451 H 0.12712 0.51101 0.31976 0.0
C2452 C 0.16401 0.51475 0.31969 0.0
C2453 C 0.18385 0.55037 0.31986 0.0
C2454 C 0.11406 0.68888 0.32152 0.0
C2455 C 0.13979 0.60074 0.32017 0.0
C2456 C 0.09199 0.71297 0.32221 0.0
C2457 C 0.07232 0.67667 0.32209 0.0
C2458 C 0.11656 0.62798 0.32072 0.0
C2459 C 0.07551 0.61601 0.32125 0.0
C2460 C 0.14207 0.53963 0.31982 0.0
C2461 C 0.18094 0.61141 0.31997 0.0
N2462 N 0.09725 0.59354 0.32061 0.0
N2463 N 0.15924 0.63476 0.32018 0.0
H2464 H 0.47388 0.11128 0.02142 0.0
H2465 H 0.51823 0.8809 0.97672 0.0
H2466 H 0.53205 0.99463 0.02698 0.0
H2467 H 0.45969 0.99653 0.97132 0.0
H2468 H 0.52315 0.92054 0.99537 0.0
H2469 H 0.4687 0.07069 0.00286 0.0
C2470 C 0.48574 0.0778 0.01869 0.0
C2471 C 0.50344 0.05652 0.02576 0.0
C2472 C 0.50914 0.9369 0.99011 0.0
C2473 C 0.4974 0.00908 0.00465 0.0
C2474 C 0.50622 0.91389 0.9795 0.0
C2475 C 0.48853 0.93531 0.97244 0.0
C2476 C 0.49429 0.98168 0.99365 0.0
C2477 C 0.47361 0.97863 0.97646 0.0
C2478 C 0.48268 0.05425 0.00813 0.0
C2479 C 0.51816 0.01252 0.02182 0.0
N2480 N 0.47689 0.00052 0.98675 0.0
N2481 N 0.51475 0.99018 0.01157 0.0
H2482 H 0.70328 0.24517 0.0273 0.0
H2483 H 0.78848 0.22779 0.97537 0.0
H2484 H 0.76385 0.1339 0.02704 0.0
H2485 H 0.7295 0.3442 0.97629 0.0
H2486 H 0.77959 0.19242 0.99416 0.0
H2487 H 0.71187 0.27887 0.00839 0.0
C2488 C 0.71824 0.22708 0.02321 0.0
C2489 C 0.73288 0.18652 0.02879 0.0
C2490 C 0.76867 0.22598 0.9903 0.0
C2491 C 0.74297 0.2258 0.00709 0.0
C2492 C 0.77379 0.24656 0.97957 0.0
C2493 C 0.75973 0.28928 0.97423 0.0
C2494 C 0.7493 0.24809 0.99578 0.0
C2495 C 0.7409 0.31157 0.9801 0.0
C2496 C 0.72321 0.24675 0.01241 0.0
C2497 C 0.75202 0.16492 0.02305 0.0
N2498 N 0.73617 0.2905 0.99055 0.0
N2499 N 0.75659 0.1851 0.01252 0.0
H2500 H 0.4776 0.14142 0.22434 0.0
H2501 H 0.52063 0.34732 0.2737 0.0
H2502 H 0.53265 0.26867 0.22094 0.0
H2503 H 0.46534 0.22076 0.27708 0.0
H2504 H 0.52524 0.31937 0.25426 0.0
H2505 H 0.47335 0.16831 0.24386 0.0
C2506 C 0.48896 0.17442 0.22772 0.0
C2507 C 0.50552 0.20268 0.22099 0.0
C2508 C 0.51203 0.29794 0.25926 0.0
C2509 C 0.50055 0.23434 0.24323 0.0
C2510 C 0.50932 0.31418 0.27034 0.0
C2511 C 0.49254 0.28657 0.27703 0.0
C2512 C 0.4979 0.2537 0.25488 0.0
C2513 C 0.47849 0.24344 0.27225 0.0
C2514 C 0.48644 0.19008 0.23884 0.0
C2515 C 0.51964 0.24559 0.2258 0.0
N2516 N 0.48153 0.22828 0.2615 0.0
N2517 N 0.51677 0.2602 0.23658 0.0
H2518 H 0.7026 0.0138 0.22496 0.0
H2519 H 0.79227 0.97853 0.27563 0.0
H2520 H 0.76502 0.11672 0.22775 0.0
H2521 H 0.72993 0.87531 0.27283 0.0
H2522 H 0.78292 0.028 0.25797 0.0
H2523 H 0.71193 0.96426 0.24262 0.0
C2524 C 0.71811 0.02676 0.22937 0.0
C2525 C 0.73309 0.06954 0.22483 0.0
C2526 C 0.77136 0.9942 0.26114 0.0
C2527 C 0.74404 0.01201 0.24506 0.0
C2528 C 0.77676 0.96549 0.27121 0.0
C2529 C 0.76182 0.92265 0.27575 0.0
C2530 C 0.75085 0.98011 0.25552 0.0
C2531 C 0.74199 0.90787 0.26963 0.0
C2532 C 0.72351 0.99801 0.23944 0.0
C2533 C 0.75294 0.08421 0.23094 0.0
N2534 N 0.737 0.93688 0.25986 0.0
N2535 N 0.75792 0.05518 0.24072 0.0
H2536 H 0.23023 0.86194 0.97481 0.0
H2537 H 0.26728 0.64658 0.02592 0.0
H2538 H 0.28966 0.7468 0.97444 0.0
H2539 H 0.20797 0.7621 0.02633 0.0
H2540 H 0.27561 0.68208 0.00693 0.0
H2541 H 0.22232 0.82779 0.99392 0.0
C2542 C 0.24181 0.83024 0.97879 0.0
C2543 C 0.26063 0.8073 0.97301 0.0
C2544 C 0.26069 0.69938 0.01117 0.0
C2545 C 0.25146 0.76715 0.99477 0.0
C2546 C 0.25584 0.67872 0.02197 0.0
C2547 C 0.23688 0.7012 0.02773 0.0
C2548 C 0.24651 0.74285 0.0061 0.0
C2549 C 0.22278 0.74337 0.02223 0.0
C2550 C 0.23718 0.81034 0.98967 0.0
C2551 C 0.27493 0.76578 0.97856 0.0
N2552 N 0.22793 0.76293 0.01177 0.0
N2553 N 0.26998 0.74686 0.98908 0.0
H2554 H 0.47643 0.66488 0.72387 0.0
H2555 H 0.51791 0.86694 0.77408 0.0
H2556 H 0.52762 0.80215 0.72049 0.0
H2557 H 0.46627 0.73076 0.77744 0.0
H2558 H 0.52121 0.84511 0.75428 0.0
H2559 H 0.47247 0.68812 0.74359 0.0
C2560 C 0.48695 0.6995 0.72729 0.0
C2561 C 0.50241 0.73142 0.72052 0.0
C2562 C 0.50907 0.82025 0.75935 0.0
C2563 C 0.49782 0.75874 0.743 0.0
C2564 C 0.5071 0.83297 0.77064 0.0
C2565 C 0.49178 0.80078 0.77743 0.0
C2566 C 0.49566 0.77495 0.75485 0.0
C2567 C 0.47832 0.75685 0.77253 0.0
C2568 C 0.48462 0.71299 0.73852 0.0
C2569 C 0.5155 0.77619 0.72538 0.0
N2570 N 0.48063 0.74513 0.76158 0.0
N2571 N 0.51287 0.78853 0.73629 0.0
H2572 H 0.26337 0.12202 0.72732 0.0
H2573 H 0.22895 0.87885 0.77389 0.0
H2574 H 0.20257 0.01256 0.72526 0.0
H2575 H 0.29135 0.98288 0.77497 0.0
H2576 H 0.2189 0.92692 0.75601 0.0
H2577 H 0.27304 0.07418 0.74525 0.0
C2578 C 0.25185 0.08871 0.73071 0.0
C2579 C 0.23216 0.07129 0.72476 0.0
C2580 C 0.23488 0.93886 0.76013 0.0
C2581 C 0.24334 0.01548 0.74515 0.0
C2582 C 0.24073 0.91097 0.77029 0.0
C2583 C 0.26101 0.9268 0.77595 0.0
C2584 C 0.2494 0.98292 0.75564 0.0
C2585 C 0.27551 0.96923 0.77093 0.0
C2586 C 0.25749 0.06095 0.7409 0.0
C2587 C 0.21796 0.02742 0.72954 0.0
N2588 N 0.26935 0.99601 0.76112 0.0
N2589 N 0.2239 0.00084 0.7394 0.0
H2590 H 0.51687 0.38334 0.47609 0.0
H2591 H 0.47616 0.61419 0.52148 0.0
H2592 H 0.45946 0.50316 0.47123 0.0
H2593 H 0.53298 0.49278 0.52654 0.0
H2594 H 0.47018 0.57527 0.50284 0.0
H2595 H 0.52271 0.42172 0.49478 0.0
C2596 C 0.50529 0.41701 0.479 0.0
C2597 C 0.48765 0.43994 0.47208 0.0
C2598 C 0.48404 0.55742 0.50802 0.0
C2599 C 0.49447 0.48486 0.49334 0.0
C2600 C 0.48756 0.58001 0.51862 0.0
C2601 C 0.50511 0.55687 0.52558 0.0
C2602 C 0.49814 0.51137 0.50438 0.0
C2603 C 0.51922 0.51207 0.52148 0.0
C2604 C 0.50874 0.43929 0.48963 0.0
C2605 C 0.47331 0.48408 0.47626 0.0
N2606 N 0.51537 0.49069 0.51119 0.0
N2607 N 0.47711 0.50523 0.48657 0.0
H2608 H 0.70654 0.74215 0.52478 0.0
H2609 H 0.79206 0.73557 0.47285 0.0
H2610 H 0.76729 0.63179 0.52382 0.0
H2611 H 0.73117 0.84547 0.47386 0.0
H2612 H 0.78364 0.69849 0.49157 0.0
H2613 H 0.71502 0.77909 0.50607 0.0
C2614 C 0.72152 0.72497 0.52057 0.0
C2615 C 0.73623 0.68365 0.52589 0.0
C2616 C 0.7722 0.73104 0.48776 0.0
C2617 C 0.74621 0.72669 0.50443 0.0
C2618 C 0.77706 0.75264 0.47707 0.0
C2619 C 0.76229 0.79385 0.47176 0.0
C2620 C 0.7524 0.75067 0.49323 0.0
C2621 C 0.74311 0.81402 0.47765 0.0
C2622 C 0.72642 0.74647 0.50989 0.0
C2623 C 0.75541 0.6633 0.52001 0.0
N2624 N 0.73865 0.79197 0.48806 0.0
N2625 N 0.75992 0.6853 0.50961 0.0
H2626 H 0.79182 0.50168 0.77617 0.0
H2627 H 0.70355 0.49556 0.7247 0.0
H2628 H 0.73218 0.38779 0.77498 0.0
H2629 H 0.76385 0.60735 0.72548 0.0
H2630 H 0.71338 0.45749 0.74324 0.0
H2631 H 0.78206 0.54022 0.75763 0.0
C2632 C 0.77681 0.4841 0.77195 0.0
C2633 C 0.76281 0.44122 0.77716 0.0
C2634 C 0.7244 0.49063 0.73942 0.0
C2635 C 0.75137 0.48604 0.75589 0.0
C2636 C 0.71874 0.51277 0.72883 0.0
C2637 C 0.7329 0.55488 0.7235 0.0
C2638 C 0.74442 0.51058 0.74479 0.0
C2639 C 0.75237 0.57522 0.72928 0.0
C2640 C 0.77119 0.5065 0.76136 0.0
C2641 C 0.74355 0.4205 0.77128 0.0
N2642 N 0.75761 0.55263 0.73961 0.0
N2643 N 0.73834 0.44334 0.76097 0.0
H2644 H 0.22851 0.37561 0.47598 0.0
H2645 H 0.26619 0.15455 0.52609 0.0
H2646 H 0.28823 0.26166 0.47501 0.0
H2647 H 0.20583 0.26645 0.52675 0.0
H2648 H 0.27448 0.19261 0.50726 0.0
H2649 H 0.22059 0.33834 0.49489 0.0
C2650 C 0.24016 0.34354 0.4798 0.0
C2651 C 0.25905 0.3218 0.47389 0.0
C2652 C 0.25934 0.20851 0.51152 0.0
C2653 C 0.24986 0.27805 0.49541 0.0
C2654 C 0.2545 0.18636 0.52222 0.0
C2655 C 0.23528 0.2072 0.52801 0.0
C2656 C 0.24488 0.25185 0.50659 0.0
C2657 C 0.22086 0.24902 0.52262 0.0
C2658 C 0.23553 0.32183 0.49055 0.0
C2659 C 0.27344 0.27973 0.47923 0.0
N2660 N 0.22601 0.27011 0.51226 0.0
N2661 N 0.26848 0.25904 0.48964 0.0
H2662 H 0.22894 0.37401 0.27519 0.0
H2663 H 0.26587 0.60807 0.22743 0.0
H2664 H 0.2919 0.47591 0.27603 0.0
H2665 H 0.2049 0.49912 0.22553 0.0
H2666 H 0.27497 0.56242 0.24563 0.0
H2667 H 0.21988 0.4185 0.25687 0.0
C2668 C 0.24105 0.40486 0.27145 0.0
C2669 C 0.26118 0.42127 0.27717 0.0
C2670 C 0.25952 0.5488 0.24125 0.0
C2671 C 0.2507 0.47332 0.25636 0.0
C2672 C 0.2542 0.57532 0.23091 0.0
C2673 C 0.2346 0.55749 0.22494 0.0
C2674 C 0.24513 0.50418 0.24564 0.0
C2675 C 0.22022 0.51431 0.22982 0.0
C2676 C 0.23577 0.43071 0.26104 0.0
C2677 C 0.27614 0.46195 0.27195 0.0
N2678 N 0.22583 0.48899 0.23984 0.0
N2679 N 0.27052 0.48684 0.26191 0.0
H2680 H 0.02041 0.89134 0.47614 0.0
H2681 H 0.97534 0.11071 0.52267 0.0
H2682 H 0.96176 0.00739 0.47153 0.0
H2683 H 0.03433 0.99566 0.52716 0.0
H2684 H 0.97039 0.07456 0.50375 0.0
H2685 H 0.02548 0.92798 0.49502 0.0
C2686 C 0.00844 0.92388 0.47914 0.0
C2687 C 0.99061 0.94612 0.47224 0.0
C2688 C 0.9845 0.05754 0.50887 0.0
C2689 C 0.99651 0.98901 0.49374 0.0
C2690 C 0.98742 0.07854 0.51964 0.0
C2691 C 0.00529 0.05637 0.52652 0.0
C2692 C -0.00048 0.01401 0.50497 0.0
C2693 C 0.0203 0.01415 0.52217 0.0
C2694 C 0.01143 0.94515 0.48988 0.0
C2695 C 0.97575 0.98881 0.47654 0.0
N2696 N 0.01702 0.99424 0.51172 0.0
N2697 N 0.97908 0.00894 0.48697 0.0
H2698 H 0.03239 0.26924 0.72052 0.0
H2699 H 0.96558 0.2263 0.77818 0.0
H2700 H 0.97703 0.14432 0.72559 0.0
H2701 H 0.02127 0.35035 0.77316 0.0
H2702 H 0.9694 0.19643 0.75898 0.0
H2703 H 0.02892 0.29817 0.73978 0.0
C2704 C 0.01963 0.24732 0.72572 0.0
C2705 C 0.00498 0.20407 0.72141 0.0
C2706 C 0.98072 0.23039 0.76203 0.0
C2707 C 0.00079 0.2378 0.74356 0.0
C2708 C 0.97851 0.24781 0.77301 0.0
C2709 C 0.99311 0.29119 0.77731 0.0
C2710 C -0.00231 0.25639 0.75523 0.0
C2711 C 0.00956 0.31706 0.77019 0.0
C2712 C 0.01762 0.26417 0.73674 0.0
C2713 C 0.98877 0.17755 0.72857 0.0
N2714 N 0.01144 0.29912 0.7595 0.0
N2715 N 0.98705 0.19504 0.73929 0.0
H2716 H 0.97448 0.64429 0.22448 0.0
H2717 H 0.01724 0.8553 0.27311 0.0
H2718 H 0.03041 0.76893 0.22094 0.0
H2719 H 0.96286 0.72671 0.27715 0.0
H2720 H 0.02157 0.82609 0.25373 0.0
H2721 H 0.9698 0.67382 0.24383 0.0
C2722 C 0.98593 0.67728 0.22779 0.0
C2723 C 0.00289 0.70396 0.22107 0.0
C2724 C 0.00861 0.8045 0.25886 0.0
C2725 C 0.99742 0.73867 0.24312 0.0
C2726 C 0.00604 0.8215 0.2699 0.0
C2727 C 0.98965 0.79359 0.27677 0.0
C2728 C 0.9947 0.75926 0.25468 0.0
C2729 C 0.97573 0.74959 0.27218 0.0
C2730 C 0.98317 0.69444 0.23882 0.0
C2731 C 0.0171 0.74697 0.22579 0.0
N2732 N 0.97862 0.73371 0.26146 0.0
N2733 N 0.01399 0.76306 0.23648 0.0
H2734 H 0.95953 0.49709 0.97138 0.0
H2735 H 0.03551 0.49561 0.02723 0.0
H2736 H 0.02037 0.38899 0.9764 0.0
H2737 H 0.97615 0.60813 0.02152 0.0
H2738 H 0.03034 0.45637 0.00872 0.0
H2739 H 0.9649 0.53599 0.98987 0.0
C2740 C 0.97391 0.48086 0.97643 0.0
C2741 C 0.98953 0.43949 0.97231 0.0
C2742 C 0.01853 0.48994 0.01146 0.0
C2743 C 0.9959 0.48479 0.99357 0.0
C2744 C 0.02152 0.51272 0.02203 0.0
C2745 C 0.00624 0.55546 0.02595 0.0
C2746 C 8e-05 0.5098 0.00471 0.0
C2747 C 0.98843 0.57557 0.01883 0.0
C2748 C 0.97701 0.5035 0.98699 0.0
C2749 C 0.00782 0.42046 0.97926 0.0
N2750 N 0.98577 0.55233 0.00856 0.0
N2751 N 0.01056 0.44348 0.98954 0.0
H2752 H 0.55171 0.18588 0.06293 0.0
H2753 H 0.68229 0.08009 0.07049 0.0
H2754 H 0.57071 0.0062 0.07108 0.0
H2755 H 0.66234 0.26277 0.0678 0.0
H2756 H 0.64167 0.05244 0.07083 0.0
H2757 H 0.59201 0.21443 0.06468 0.0
C2758 C 0.56434 0.15221 0.06508 0.0
C2759 C 0.55774 0.09323 0.06677 0.0
C2760 C 0.64612 0.09858 0.07023 0.0
C2761 C 0.60419 0.12622 0.0688 0.0
C2762 C 0.66936 0.11456 0.06999 0.0
C2763 C 0.67579 0.17399 0.069 0.0
C2764 C 0.62904 0.14219 0.06937 0.0
C2765 C 0.6582 0.21649 0.06854 0.0
C2766 C 0.58741 0.1688 0.06613 0.0
C2767 C 0.57498 0.05204 0.06965 0.0
N2768 N 0.6356 0.1997 0.06863 0.0
N2769 N 0.59746 0.06929 0.07051 0.0
H2770 H 0.57335 0.2774 0.17934 0.0
H2771 H 0.66584 0.014 0.18096 0.0
H2772 H 0.55499 0.09367 0.18166 0.0
H2773 H 0.68387 0.19632 0.185 0.0
H2774 H 0.62515 0.04311 0.1789 0.0
H2775 H 0.61431 0.24903 0.17908 0.0
C2776 C 0.57789 0.23124 0.17974 0.0
C2777 C 0.5607 0.18798 0.18065 0.0
C2778 C 0.63808 0.07666 0.18022 0.0
C2779 C 0.60738 0.15523 0.1803 0.0
C2780 C 0.66129 0.06004 0.18138 0.0
C2781 C 0.6783 0.1026 0.18328 0.0
C2782 C 0.6319 0.13623 0.18087 0.0
C2783 C 0.67138 0.16176 0.18368 0.0
C2784 C 0.60125 0.21504 0.17961 0.0
C2785 C 0.56761 0.1287 0.18109 0.0
N2786 N 0.64875 0.17675 0.18251 0.0
N2787 N 0.59036 0.11415 0.18094 0.0
H2788 H 0.42302 0.9966 0.9293 0.0
H2789 H 0.33091 0.73303 0.93086 0.0
H2790 H 0.44158 0.81314 0.93258 0.0
H2791 H 0.31252 0.91601 0.93362 0.0
H2792 H 0.37161 0.76191 0.92924 0.0
H2793 H 0.38213 0.96804 0.92852 0.0
C2794 C 0.41854 0.95045 0.92978 0.0
C2795 C 0.43575 0.90733 0.93115 0.0
C2796 C 0.3586 0.79565 0.93019 0.0
C2797 C 0.38917 0.87437 0.93023 0.0
C2798 C 0.33538 0.77915 0.93111 0.0
C2799 C 0.31826 0.82198 0.9325 0.0
C2800 C 0.36468 0.85537 0.93058 0.0
C2801 C 0.32509 0.88124 0.93269 0.0
C2802 C 0.39523 0.93414 0.92937 0.0
C2803 C 0.42893 0.84806 0.93169 0.0
N2804 N 0.34773 0.8961 0.93177 0.0
N2805 N 0.40622 0.8334 0.93126 0.0
H2806 H 0.42522 0.71961 0.81837 0.0
H2807 H 0.33304 0.98328 0.81922 0.0
H2808 H 0.44355 0.90349 0.81799 0.0
H2809 H 0.31453 0.80244 0.81376 0.0
H2810 H 0.37365 0.9534 0.82081 0.0
H2811 H 0.38422 0.74782 0.81879 0.0
C2812 C 0.42066 0.76574 0.81844 0.0
C2813 C 0.43785 0.80917 0.81802 0.0
C2814 C 0.36065 0.92033 0.81927 0.0
C2815 C 0.39118 0.8417 0.81853 0.0
C2816 C 0.33747 0.9374 0.81836 0.0
C2817 C 0.32033 0.89551 0.81624 0.0
C2818 C 0.3667 0.86095 0.81813 0.0
C2819 C 0.32712 0.83651 0.81528 0.0
C2820 C 0.3973 0.78185 0.81865 0.0
C2821 C 0.43094 0.86838 0.81816 0.0
N2822 N 0.34975 0.82105 0.81622 0.0
N2823 N 0.4082 0.88282 0.81838 0.0
H2824 H 0.66667 0.75546 0.56725 0.0
H2825 H 0.57263 0.49643 0.56918 0.0
H2826 H 0.68404 0.57137 0.5655 0.0
H2827 H 0.55566 0.6798 0.56374 0.0
H2828 H 0.6137 0.52326 0.57019 0.0
H2829 H 0.62567 0.72852 0.56831 0.0
C2830 C 0.66191 0.7095 0.56712 0.0
C2831 C 0.67883 0.66576 0.56617 0.0
C2832 C 0.6009 0.5575 0.5688 0.0
C2833 C 0.63208 0.63461 0.56744 0.0
C2834 C 0.57749 0.5422 0.56824 0.0
C2835 C 0.56067 0.58576 0.56626 0.0
C2836 C 0.60744 0.61675 0.56747 0.0
C2837 C 0.56798 0.64451 0.56515 0.0
C2838 C 0.63853 0.69412 0.56771 0.0
C2839 C 0.67163 0.60677 0.5661 0.0
N2840 N 0.59077 0.6582 0.56575 0.0
N2841 N 0.64883 0.59298 0.56671 0.0
H2842 H 0.56566 0.7211 0.664 0.0
H2843 H 0.67254 0.61517 0.70157 0.0
H2844 H 0.56143 0.69812 0.69966 0.0
H2845 H 0.66458 0.55942 0.66773 0.0
H2846 H 0.63385 0.65864 0.70063 0.0
H2847 H 0.60478 0.67734 0.66467 0.0
C2848 C 0.57328 0.70827 0.67197 0.0
C2849 C 0.56068 0.71382 0.68181 0.0
C2850 C 0.64042 0.63633 0.69344 0.0
C2851 C 0.60471 0.66332 0.68263 0.0
C2852 C 0.66237 0.61125 0.694 0.0
C2853 C 0.67147 0.5831 0.68477 0.0
C2854 C 0.62766 0.63459 0.68347 0.0
C2855 C 0.65788 0.57993 0.67508 0.0
C2856 C 0.59532 0.68257 0.67233 0.0
C2857 C 0.57084 0.69515 0.69192 0.0
N2858 N 0.63665 0.6061 0.67462 0.0
N2859 N 0.5923 0.67092 0.69208 0.0
H2860 H 0.42129 0.50569 0.42919 0.0
H2861 H 0.32697 0.24733 0.43125 0.0
H2862 H 0.43829 0.32132 0.43266 0.0
H2863 H 0.31013 0.43124 0.43403 0.0
H2864 H 0.36785 0.27402 0.42947 0.0
H2865 H 0.38014 0.47943 0.42859 0.0
C2866 C 0.41642 0.45981 0.42975 0.0
C2867 C 0.43326 0.41577 0.4311 0.0
C2868 C 0.35515 0.30845 0.43045 0.0
C2869 C 0.38638 0.38544 0.43039 0.0
C2870 C 0.33182 0.29321 0.43146 0.0
C2871 C 0.31508 0.33695 0.43291 0.0
C2872 C 0.36173 0.36783 0.43082 0.0
C2873 C 0.3224 0.39583 0.43306 0.0
C2874 C 0.39295 0.44482 0.42944 0.0
C2875 C 0.42593 0.35692 0.43176 0.0
N2876 N 0.34515 0.40948 0.43205 0.0
N2877 N 0.40309 0.34354 0.43143 0.0
H2878 H 0.44255 0.40464 0.3136 0.0
H2879 H 0.31105 0.30531 0.31912 0.0
H2880 H 0.42196 0.22546 0.32093 0.0
H2881 H 0.33233 0.48699 0.317 0.0
H2882 H 0.35143 0.27551 0.31988 0.0
H2883 H 0.4024 0.43518 0.31476 0.0
C2884 C 0.4296 0.37149 0.31544 0.0
C2885 C 0.43572 0.31208 0.31709 0.0
C2886 C 0.34733 0.3219 0.31931 0.0
C2887 C 0.38945 0.34737 0.31845 0.0
C2888 C 0.32422 0.33911 0.31883 0.0
C2889 C 0.31825 0.39889 0.31787 0.0
C2890 C 0.36472 0.36463 0.31873 0.0
C2891 C 0.33612 0.44048 0.3177 0.0
C2892 C 0.40662 0.38922 0.31615 0.0
C2893 C 0.41808 0.2716 0.31955 0.0
N2894 N 0.3586 0.4225 0.31802 0.0
N2895 N 0.3957 0.28999 0.32009 0.0
H2896 H 0.07409 -0.00016 0.57047 0.0
H2897 H 0.16259 0.27138 0.56851 0.0
H2898 H 0.05315 0.18037 0.56474 0.0
H2899 H 0.1836 0.08944 0.56764 0.0
H2900 H 0.12209 0.2393 0.56933 0.0
H2901 H 0.11442 0.03255 0.57166 0.0
C2902 C 0.07792 0.04622 0.5695 0.0
C2903 C 0.06019 0.08721 0.56739 0.0
C2904 C 0.13564 0.20654 0.56898 0.0
C2905 C 0.10618 0.12498 0.56879 0.0
C2906 C 0.15874 0.22485 0.56853 0.0
C2907 C 0.17654 0.18319 0.56789 0.0
C2908 C 0.1304 0.14621 0.56888 0.0
C2909 C 0.1705 0.12333 0.56799 0.0
C2910 C 0.10093 0.0649 0.57016 0.0
C2911 C 0.06621 0.14693 0.56625 0.0
N2912 N 0.148 0.10673 0.56845 0.0
N2913 N 0.08865 0.16393 0.56695 0.0
H2914 H 0.16277 0.01518 0.68041 0.0
H2915 H 0.06934 0.27665 0.68013 0.0
H2916 H 0.18001 0.19644 0.68622 0.0
H2917 H 0.05165 0.09243 0.68045 0.0
H2918 H 0.11047 0.24932 0.67998 0.0
H2919 H 0.12209 0.04398 0.67818 0.0
C2920 C 0.15806 0.06091 0.68121 0.0
C2921 C 0.17486 0.10322 0.68362 0.0
C2922 C 0.09751 0.215 0.68004 0.0
C2923 C 0.12843 0.13659 0.68099 0.0
C2924 C 0.07407 0.23063 0.68007 0.0
C2925 C 0.05702 0.18685 0.68044 0.0
C2926 C 0.10386 0.15527 0.68026 0.0
C2927 C 0.06415 0.12778 0.68033 0.0
C2928 C 0.13484 0.07738 0.67993 0.0
C2929 C 0.1677 0.16202 0.68449 0.0
N2930 N 0.08697 0.1138 0.68029 0.0
N2931 N 0.14507 0.17688 0.68319 0.0
H2932 H 0.92099 0.99784 0.4277 0.0
H2933 H 0.83253 0.72663 0.43141 0.0
H2934 H 0.94175 0.81864 0.43514 0.0
H2935 H 0.8114 0.90872 0.4305 0.0
H2936 H 0.87303 0.75859 0.43047 0.0
H2937 H 0.88071 0.96483 0.42648 0.0
C2938 C 0.91713 0.95169 0.42906 0.0
C2939 C 0.93479 0.91117 0.43164 0.0
C2940 C 0.85945 0.79142 0.43045 0.0
C2941 C 0.88887 0.87306 0.43017 0.0
C2942 C 0.83637 0.77317 0.43095 0.0
C2943 C 0.81855 0.81496 0.43117 0.0
C2944 C 0.86466 0.85178 0.43005 0.0
C2945 C 0.82454 0.8748 0.43051 0.0
C2946 C 0.89415 0.93284 0.42836 0.0
C2947 C 0.92874 0.85172 0.43325 0.0
N2948 N 0.84704 0.89135 0.43002 0.0
N2949 N 0.90633 0.83455 0.4325 0.0
H2950 H 0.92329 0.72169 0.32002 0.0
H2951 H 0.82893 0.98056 0.31863 0.0
H2952 H 0.93999 0.90568 0.31562 0.0
H2953 H 0.8118 0.79686 0.31591 0.0
H2954 H 0.86992 0.95352 0.32006 0.0
H2955 H 0.88221 0.74826 0.321 0.0
C2956 C 0.91836 0.76754 0.3193 0.0
C2957 C 0.93511 0.81136 0.31761 0.0
C2958 C 0.85713 0.9192 0.31918 0.0
C2959 C 0.88831 0.84206 0.3188 0.0
C2960 C 0.83374 0.93463 0.31839 0.0
C2961 C 0.81691 0.89106 0.31702 0.0
C2962 C 0.86365 0.85981 0.3187 0.0
C2963 C 0.82417 0.83212 0.31681 0.0
C2964 C 0.89494 0.78269 0.31984 0.0
C2965 C 0.92772 0.8702 0.31679 0.0
N2966 N 0.84697 0.81828 0.31761 0.0
N2967 N 0.90492 0.88375 0.31738 0.0
H2968 H 0.1834 0.5809 0.06523 0.0
H2969 H 0.0518 0.68312 0.06641 0.0
H2970 H 0.16247 0.76117 0.06939 0.0
H2971 H 0.07247 0.50087 0.06855 0.0
H2972 H 0.09217 0.71207 0.06739 0.0
H2973 H 0.14308 0.55093 0.06621 0.0
C2974 C 0.17034 0.61438 0.06634 0.0
C2975 C 0.17641 0.67394 0.06714 0.0
C2976 C 0.08794 0.66574 0.06771 0.0
C2977 C 0.13 0.63935 0.06829 0.0
C2978 C 0.06484 0.64901 0.06711 0.0
C2979 C 0.05869 0.58929 0.06729 0.0
C2980 C 0.10522 0.62259 0.0684 0.0
C2981 C 0.07641 0.54733 0.06835 0.0
C2982 C 0.14728 0.59699 0.06695 0.0
C2983 C 0.15865 0.7149 0.06868 0.0
N2984 N 0.09893 0.56482 0.06877 0.0
N2985 N 0.13622 0.69684 0.06913 0.0
H2986 H 0.07285 0.7698 0.17967 0.0
H2987 H 0.16354 0.5025 0.18172 0.0
H2988 H 0.05284 0.58735 0.18255 0.0
H2989 H 0.18238 0.68391 0.18627 0.0
H2990 H 0.12293 0.53298 0.17979 0.0
H2991 H 0.11354 0.73913 0.17975 0.0
C2992 C 0.07698 0.72341 0.18026 0.0
C2993 C 0.05939 0.68122 0.18122 0.0
C2994 C 0.13604 0.56597 0.18121 0.0
C2995 C 0.10579 0.64582 0.18127 0.0
C2996 C 0.15919 0.54858 0.1823 0.0
C2997 C 0.17641 0.59051 0.18426 0.0
C2998 C 0.13015 0.6257 0.18197 0.0
C2999 C 0.16974 0.64977 0.18488 0.0
C3000 C 0.10018 0.7059 0.18034 0.0
C3001 C 0.06578 0.62159 0.18193 0.0
N3002 N 0.1472 0.66551 0.18374 0.0
N3003 N 0.08841 0.60572 0.18196 0.0
H3004 H 0.83213 0.22771 0.93149 0.0
H3005 H 0.92196 0.49619 0.9303 0.0
H3006 H 0.81287 0.40853 0.93644 0.0
H3007 H 0.94256 0.31389 0.93272 0.0
H3008 H 0.88136 0.465 0.93011 0.0
H3009 H 0.8726 0.2588 0.92971 0.0
C3010 C 0.83636 0.27378 0.93221 0.0
C3011 C 0.81906 0.31537 0.93421 0.0
C3012 C 0.89483 0.43193 0.93065 0.0
C3013 C 0.86515 0.35127 0.93207 0.0
C3014 C 0.91798 0.44973 0.93071 0.0
C3015 C 0.93568 0.40771 0.93165 0.0
C3016 C 0.88942 0.37173 0.93143 0.0
C3017 C 0.9295 0.34797 0.93214 0.0
C3018 C 0.85944 0.29152 0.93119 0.0
C3019 C 0.82557 0.37464 0.935 0.0
N3020 N 0.90692 0.33182 0.93204 0.0
N3021 N 0.84804 0.39073 0.93392 0.0
H3022 H 0.926 0.22976 0.8198 0.0
H3023 H 0.83633 0.49912 0.81927 0.0
H3024 H 0.9462 0.41192 0.81644 0.0
H3025 H 0.81621 0.31808 0.81537 0.0
H3026 H 0.87686 0.46749 0.8205 0.0
H3027 H 0.88541 0.26107 0.82052 0.0
C3028 C 0.92194 0.27619 0.81926 0.0
C3029 C 0.93952 0.31814 0.81794 0.0
C3030 C 0.8635 0.43481 0.81938 0.0
C3031 C 0.89331 0.35423 0.8188 0.0
C3032 C 0.84039 0.45287 0.81869 0.0
C3033 C 0.82283 0.41139 0.81711 0.0
C3034 C 0.86901 0.37488 0.81859 0.0
C3035 C 0.82912 0.35187 0.81647 0.0
C3036 C 0.89881 0.29406 0.81965 0.0
C3037 C 0.93325 0.37785 0.81732 0.0
N3038 N 0.85166 0.33547 0.81721 0.0
N3039 N 0.9107 0.39404 0.81774 0.0
loop_
_geom_bond_atom_site_label_1
_geom_bond_atom_site_label_2
_geom_bond_distance
_geom_bond_site_symmetry_2
_ccdc_geom_bond_type
Co0 O2 2.143 1_545 S
Co0 O8 2.074 . S
Co0 O11 2.093 . S
Co0 O24 2.097 . S
Co0 N41 2.151 . S
Co0 N49 2.214 . S
Co1 O2 2.160 . S
Co1 O7 2.058 1_565 S
Co1 O17 2.057 . S
Co1 O32 2.037 . S
Co1 N36 2.145 . S
Co1 N57 2.257 . S
O2 Co0 2.143 1_565 S
O2 Co1 2.160 . S
C3 O4 1.278 1_545 S
C3 O11 1.224 . S
O4 C3 1.278 1_565 S
C5 O6 1.245 . S
C5 O17 1.232 . S
O6 C5 1.245 . S
O7 Co1 2.058 1_545 S
O7 C33 1.269 . S
O8 Co0 2.074 . S
O8 C33 1.257 . S
H9 C34 0.930 . S
H10 C40 0.930 . S
O11 Co0 2.093 . S
O11 C3 1.224 . S
H12 C44 0.929 . S
H13 C46 0.930 . S
H14 C47 0.930 . S
H15 C45 0.929 . S
H16 C48 0.928 . S
O17 Co1 2.057 . S
O17 C5 1.232 . S
H18 C37 0.929 . S
H19 C38 0.929 . S
H20 C50 0.931 . S
H21 C42 0.929 . S
H22 C51 0.930 . S
H23 C43 0.931 . S
O24 Co0 2.097 . S
O24 C52 1.214 . S
H25 C53 0.929 . S
H26 C54 0.929 . S
H27 C55 0.930 . S
H28 C56 0.929 . S
H29 C58 0.930 . S
H30 C35 0.930 . S
H31 C39 0.930 . S
O32 Co1 2.037 . S
O32 C52 1.234 1_565 S
C33 O7 1.269 . S
C33 O8 1.257 . S
C34 H9 0.930 . S
C34 C37 1.388 . S
C34 C39 1.418 . S
C35 H30 0.930 . S
C35 C38 1.404 . S
C35 C39 1.353 . S
N36 Co1 2.145 . S
N36 C37 1.397 . S
N36 C38 1.334 . S
C37 H18 0.929 . S
C37 C34 1.388 . S
C37 N36 1.397 . S
C38 H19 0.929 . S
C38 C35 1.404 . S
C38 N36 1.334 . S
C39 H31 0.930 . S
C39 C34 1.418 . S
C39 C35 1.353 . S
C40 H10 0.930 . S
C40 N41 1.330 . S
C40 C42 1.446 . S
N41 Co0 2.151 . S
N41 C40 1.330 . S
N41 C45 1.418 . S
C42 H21 0.929 . S
C42 C40 1.446 . S
C42 C43 1.332 . S
C43 H23 0.931 . S
C43 C42 1.332 . S
C43 C44 1.267 . S
C44 H12 0.929 . S
C44 C43 1.267 . S
C44 C45 1.251 . S
C45 H15 0.929 . S
C45 N41 1.418 . S
C45 C44 1.251 . S
C46 H13 0.930 . S
C46 C48 1.406 . S
C46 C51 1.261 . S
C47 H14 0.930 . S
C47 N49 1.325 . S
C47 C50 1.357 . S
C48 H16 0.928 . S
C48 C46 1.406 . S
C48 N49 1.261 . S
N49 Co0 2.214 . S
N49 C47 1.325 . S
N49 C48 1.261 . S
C50 H20 0.931 . S
C50 C47 1.357 . S
C50 C51 1.312 . S
C51 H22 0.930 . S
C51 C46 1.261 . S
C51 C50 1.312 . S
C52 O24 1.214 . S
C52 O32 1.234 1_545 S
C53 H25 0.929 . S
C53 C56 1.391 . S
C53 C58 1.391 . S
C54 H26 0.929 . S
C54 C55 1.390 . S
C54 N57 1.391 . S
C55 H27 0.930 . S
C55 C54 1.390 . S
C55 C56 1.392 . S
C56 H28 0.929 . S
C56 C53 1.391 . S
C56 C55 1.392 . S
N57 Co1 2.257 . S
N57 C54 1.391 . S
N57 C58 1.388 . S
C58 H29 0.930 . S
C58 C53 1.391 . S
C58 N57 1.388 . S
Co59 O61 2.143 . S
Co59 O67 2.074 . S
Co59 O70 2.093 . S
Co59 O83 2.097 . S
Co59 N100 2.151 . S
Co59 N108 2.214 . S
Co60 O61 2.160 . S
Co60 O66 2.058 . S
Co60 O76 2.057 . S
Co60 O91 2.037 . S
Co60 N95 2.145 . S
Co60 N116 2.257 . S
O61 Co59 2.143 . S
O61 Co60 2.160 . S
C62 O63 1.278 . S
C62 O70 1.224 . S
O63 C62 1.278 . S
C64 O65 1.245 . S
C64 O76 1.232 . S
O65 C64 1.245 . S
O66 Co60 2.058 . S
O66 C92 1.269 . S
O67 Co59 2.074 . S
O67 C92 1.257 . S
H68 C93 0.930 . S
H69 C99 0.930 . S
O70 Co59 2.093 . S
O70 C62 1.224 . S
H71 C103 0.929 . S
H72 C105 0.930 1_565 S
H73 C106 0.930 . S
H74 C104 0.929 . S
H75 C107 0.928 . S
O76 Co60 2.057 . S
O76 C64 1.232 . S
H77 C96 0.929 . S
H78 C97 0.929 . S
H79 C109 0.931 . S
H80 C101 0.929 . S
H81 C110 0.930 1_565 S
H82 C102 0.931 . S
O83 Co59 2.097 . S
O83 C111 1.214 . S
H84 C112 0.929 . S
H85 C113 0.929 . S
H86 C114 0.930 . S
H87 C115 0.929 . S
H88 C117 0.930 . S
H89 C94 0.930 . S
H90 C98 0.930 . S
O91 Co60 2.037 . S
O91 C111 1.234 . S
C92 O66 1.269 . S
C92 O67 1.257 . S
C93 H68 0.930 . S
C93 C96 1.388 . S
C93 C98 1.418 . S
C94 H89 0.930 . S
C94 C97 1.404 . S
C94 C98 1.353 . S
N95 Co60 2.145 . S
N95 C96 1.397 . S
N95 C97 1.334 . S
C96 H77 0.929 . S
C96 C93 1.388 . S
C96 N95 1.397 . S
C97 H78 0.929 . S
C97 C94 1.404 . S
C97 N95 1.334 . S
C98 H90 0.930 . S
C98 C93 1.418 . S
C98 C94 1.353 . S
C99 H69 0.930 . S
C99 N100 1.330 . S
C99 C101 1.446 . S
N100 Co59 2.151 . S
N100 C99 1.330 . S
N100 C104 1.418 . S
C101 H80 0.929 . S
C101 C99 1.446 . S
C101 C102 1.332 . S
C102 H82 0.931 . S
C102 C101 1.332 . S
C102 C103 1.267 . S
C103 H71 0.929 . S
C103 C102 1.267 . S
C103 C104 1.251 . S
C104 H74 0.929 . S
C104 N100 1.418 . S
C104 C103 1.251 . S
C105 H72 0.930 1_545 S
C105 C107 1.406 . S
C105 C110 1.261 . S
C106 H73 0.930 . S
C106 N108 1.325 . S
C106 C109 1.357 . S
C107 H75 0.928 . S
C107 C105 1.406 . S
C107 N108 1.261 . S
N108 Co59 2.214 . S
N108 C106 1.325 . S
N108 C107 1.261 . S
C109 H79 0.931 . S
C109 C106 1.357 . S
C109 C110 1.312 . S
C110 H81 0.930 1_545 S
C110 C105 1.261 . S
C110 C109 1.312 . S
C111 O83 1.214 . S
C111 O91 1.234 . S
C112 H84 0.929 . S
C112 C115 1.391 . S
C112 C117 1.391 . S
C113 H85 0.929 . S
C113 C114 1.390 . S
C113 N116 1.391 . S
C114 H86 0.930 . S
C114 C113 1.390 . S
C114 C115 1.392 . S
C115 H87 0.929 . S
C115 C112 1.391 . S
C115 C114 1.392 . S
N116 Co60 2.257 . S
N116 C113 1.391 . S
N116 C117 1.388 . S
C117 H88 0.930 . S
C117 C112 1.391 . S
C117 N116 1.388 . S
Co118 O120 2.143 . S
Co118 O126 2.074 . S
Co118 O129 2.093 . S
Co118 O142 2.097 . S
Co118 N159 2.151 . S
Co118 N167 2.214 . S
Co119 O120 2.160 . S
Co119 O125 2.058 . S
Co119 O135 2.057 . S
Co119 O150 2.037 . S
Co119 N154 2.145 . S
Co119 N175 2.257 . S
O120 Co118 2.143 . S
O120 Co119 2.160 . S
C121 O122 1.278 . S
C121 O129 1.224 . S
O122 C121 1.278 . S
C123 O124 1.245 . S
C123 O135 1.232 . S
O124 C123 1.245 . S
O125 Co119 2.058 . S
O125 C151 1.269 . S
O126 Co118 2.074 . S
O126 C151 1.257 . S
H127 C152 0.930 . S
H128 C158 0.930 . S
O129 Co118 2.093 . S
O129 C121 1.224 . S
H130 C162 0.929 . S
H131 C164 0.930 1_565 S
H132 C165 0.930 . S
H133 C163 0.929 . S
H134 C166 0.928 . S
O135 Co119 2.057 . S
O135 C123 1.232 . S
H136 C155 0.929 . S
H137 C156 0.929 . S
H138 C168 0.931 . S
H139 C160 0.929 . S
H140 C169 0.939 . S
H141 C161 0.931 . S
O142 Co118 2.097 . S
O142 C170 1.214 . S
H143 C171 0.929 . S
H144 C172 0.929 . S
H145 C173 0.930 . S
H146 C174 0.929 . S
H147 C176 0.930 . S
H148 C153 0.930 . S
H149 C157 0.930 . S
O150 Co119 2.037 . S
O150 C170 1.234 . S
C151 O125 1.269 . S
C151 O126 1.257 . S
C152 H127 0.930 . S
C152 C155 1.388 . S
C152 C157 1.418 . S
C153 H148 0.930 . S
C153 C156 1.404 . S
C153 C157 1.353 . S
N154 Co119 2.145 . S
N154 C155 1.397 . S
N154 C156 1.334 . S
C155 H136 0.929 . S
C155 C152 1.388 . S
C155 N154 1.397 . S
C156 H137 0.929 . S
C156 C153 1.404 . S
C156 N154 1.334 . S
C157 H149 0.930 . S
C157 C152 1.418 . S
C157 C153 1.353 . S
C158 H128 0.930 . S
C158 N159 1.330 . S
C158 C160 1.446 . S
N159 Co118 2.151 . S
N159 C158 1.330 . S
N159 C163 1.418 . S
C160 H139 0.929 . S
C160 C158 1.446 . S
C160 C161 1.332 . S
C161 H141 0.931 . S
C161 C160 1.332 . S
C161 C162 1.267 . S
C162 H130 0.929 . S
C162 C161 1.267 . S
C162 C163 1.251 . S
C163 H133 0.929 . S
C163 N159 1.418 . S
C163 C162 1.251 . S
C164 H131 0.930 1_545 S
C164 C166 1.406 . S
C164 C169 1.259 1_545 S
C165 H132 0.930 . S
C165 N167 1.325 . S
C165 C168 1.357 . S
C166 H134 0.928 . S
C166 C164 1.406 . S
C166 N167 1.261 . S
N167 Co118 2.214 . S
N167 C165 1.325 . S
N167 C166 1.261 . S
C168 H138 0.931 . S
C168 C165 1.357 . S
C168 C169 1.305 1_545 S
C169 H140 0.939 . S
C169 C164 1.259 1_565 S
C169 C168 1.305 1_565 S
C170 O142 1.214 . S
C170 O150 1.234 . S
C171 H143 0.929 . S
C171 C174 1.391 . S
C171 C176 1.391 . S
C172 H144 0.929 . S
C172 C173 1.390 . S
C172 N175 1.391 . S
C173 H145 0.930 . S
C173 C172 1.390 . S
C173 C174 1.392 . S
C174 H146 0.929 . S
C174 C171 1.391 . S
C174 C173 1.392 . S
N175 Co119 2.257 . S
N175 C172 1.391 . S
N175 C176 1.388 . S
C176 H147 0.930 . S
C176 C171 1.391 . S
C176 N175 1.388 . S
Co177 O179 2.143 1_545 S
Co177 O185 2.074 . S
Co177 O188 2.093 . S
Co177 O201 2.097 . S
Co177 N218 2.151 . S
Co177 N226 2.214 . S
Co178 O179 2.160 . S
Co178 O184 2.058 1_565 S
Co178 O194 2.057 . S
Co178 O209 2.037 . S
Co178 N213 2.145 . S
Co178 N234 2.257 . S
O179 Co177 2.143 1_565 S
O179 Co178 2.160 . S
C180 O181 1.278 1_545 S
C180 O188 1.224 . S
O181 C180 1.278 1_565 S
C182 O183 1.245 . S
C182 O194 1.232 . S
O183 C182 1.245 . S
O184 Co178 2.058 1_545 S
O184 C210 1.269 . S
O185 Co177 2.074 . S
O185 C210 1.257 . S
H186 C211 0.930 . S
H187 C217 0.930 . S
O188 Co177 2.093 . S
O188 C180 1.224 . S
H189 C221 0.929 . S
H190 C223 0.930 . S
H191 C224 0.930 . S
H192 C222 0.929 . S
H193 C225 0.928 . S
O194 Co178 2.057 . S
O194 C182 1.232 . S
H195 C214 0.929 . S
H196 C215 0.929 . S
H197 C227 0.931 . S
H198 C219 0.929 . S
H199 C228 0.930 . S
H200 C220 0.931 . S
O201 Co177 2.097 . S
O201 C229 1.214 . S
H202 C230 0.929 . S
H203 C231 0.929 . S
H204 C232 0.930 . S
H205 C233 0.929 . S
H206 C235 0.930 . S
H207 C212 0.930 . S
H208 C216 0.930 . S
O209 Co178 2.037 . S
O209 C229 1.234 1_565 S
C210 O184 1.269 . S
C210 O185 1.257 . S
C211 H186 0.930 . S
C211 C214 1.388 . S
C211 C216 1.418 . S
C212 H207 0.930 . S
C212 C215 1.404 . S
C212 C216 1.353 . S
N213 Co178 2.145 . S
N213 C214 1.397 . S
N213 C215 1.334 . S
C214 H195 0.929 . S
C214 C211 1.388 . S
C214 N213 1.397 . S
C215 H196 0.929 . S
C215 C212 1.404 . S
C215 N213 1.334 . S
C216 H208 0.930 . S
C216 C211 1.418 . S
C216 C212 1.353 . S
C217 H187 0.930 . S
C217 N218 1.330 . S
C217 C219 1.446 . S
N218 Co177 2.151 . S
N218 C217 1.330 . S
N218 C222 1.418 . S
C219 H198 0.929 . S
C219 C217 1.446 . S
C219 C220 1.332 . S
C220 H200 0.931 . S
C220 C219 1.332 . S
C220 C221 1.267 . S
C221 H189 0.929 . S
C221 C220 1.267 . S
C221 C222 1.251 . S
C222 H192 0.929 . S
C222 N218 1.418 . S
C222 C221 1.251 . S
C223 H190 0.930 . S
C223 C225 1.406 . S
C223 C228 1.261 . S
C224 H191 0.930 . S
C224 N226 1.325 . S
C224 C227 1.357 . S
C225 H193 0.928 . S
C225 C223 1.406 . S
C225 N226 1.261 . S
N226 Co177 2.214 . S
N226 C224 1.325 . S
N226 C225 1.261 . S
C227 H197 0.931 . S
C227 C224 1.357 . S
C227 C228 1.312 . S
C228 H199 0.930 . S
C228 C223 1.261 . S
C228 C227 1.312 . S
C229 O201 1.214 . S
C229 O209 1.234 1_545 S
C230 H202 0.929 . S
C230 C233 1.391 . S
C230 C235 1.391 . S
C231 H203 0.929 . S
C231 C232 1.390 . S
C231 N234 1.391 . S
C232 H204 0.930 . S
C232 C231 1.390 . S
C232 C233 1.392 . S
C233 H205 0.929 . S
C233 C230 1.391 . S
C233 C232 1.392 . S
N234 Co178 2.257 . S
N234 C231 1.391 . S
N234 C235 1.388 . S
C235 H206 0.930 . S
C235 C230 1.391 . S
C235 N234 1.388 . S
Co236 O238 2.143 1_565 S
Co236 O244 2.074 . S
Co236 O247 2.093 . S
Co236 O260 2.097 . S
Co236 N277 2.151 . S
Co236 N285 2.214 . S
Co237 O238 2.160 . S
Co237 O243 2.058 1_545 S
Co237 O253 2.057 . S
Co237 O268 2.037 . S
Co237 N272 2.145 . S
Co237 N293 2.257 . S
O238 Co236 2.143 1_545 S
O238 Co237 2.160 . S
C239 O240 1.278 1_565 S
C239 O247 1.224 . S
O240 C239 1.278 1_545 S
C241 O242 1.245 . S
C241 O253 1.232 . S
O242 C241 1.245 . S
O243 Co237 2.058 1_565 S
O243 C269 1.269 . S
O244 Co236 2.074 . S
O244 C269 1.257 . S
H245 C270 0.930 . S
H246 C276 0.930 . S
O247 Co236 2.093 . S
O247 C239 1.224 . S
H248 C280 0.929 . S
H249 C282 0.930 . S
H250 C283 0.930 . S
H251 C281 0.929 . S
H252 C284 0.928 . S
O253 Co237 2.057 . S
O253 C241 1.232 . S
H254 C273 0.929 . S
H255 C274 0.929 . S
H256 C286 0.931 . S
H257 C278 0.929 . S
H258 C287 0.930 . S
H259 C279 0.931 . S
O260 Co236 2.097 . S
O260 C288 1.214 . S
H261 C289 0.929 . S
H262 C290 0.929 . S
H263 C291 0.930 . S
H264 C292 0.929 . S
H265 C294 0.930 . S
H266 C271 0.930 . S
H267 C275 0.930 . S
O268 Co237 2.037 . S
O268 C288 1.234 1_545 S
C269 O243 1.269 . S
C269 O244 1.257 . S
C270 H245 0.930 . S
C270 C273 1.388 . S
C270 C275 1.418 . S
C271 H266 0.930 . S
C271 C274 1.404 . S
C271 C275 1.353 . S
N272 Co237 2.145 . S
N272 C273 1.397 . S
N272 C274 1.334 . S
C273 H254 0.929 . S
C273 C270 1.388 . S
C273 N272 1.397 . S
C274 H255 0.929 . S
C274 C271 1.404 . S
C274 N272 1.334 . S
C275 H267 0.930 . S
C275 C270 1.418 . S
C275 C271 1.353 . S
C276 H246 0.930 . S
C276 N277 1.330 . S
C276 C278 1.446 . S
N277 Co236 2.151 . S
N277 C276 1.330 . S
N277 C281 1.418 . S
C278 H257 0.929 . S
C278 C276 1.446 . S
C278 C279 1.332 . S
C279 H259 0.931 . S
C279 C278 1.332 . S
C279 C280 1.267 . S
C280 H248 0.929 . S
C280 C279 1.267 . S
C280 C281 1.251 . S
C281 H251 0.929 . S
C281 N277 1.418 . S
C281 C280 1.251 . S
C282 H249 0.930 . S
C282 C284 1.406 . S
C282 C287 1.261 . S
C283 H250 0.930 . S
C283 N285 1.325 . S
C283 C286 1.357 . S
C284 H252 0.928 . S
C284 C282 1.406 . S
C284 N285 1.261 . S
N285 Co236 2.214 . S
N285 C283 1.325 . S
N285 C284 1.261 . S
C286 H256 0.931 . S
C286 C283 1.357 . S
C286 C287 1.312 . S
C287 H258 0.930 . S
C287 C282 1.261 . S
C287 C286 1.312 . S
C288 O260 1.214 . S
C288 O268 1.234 1_565 S
C289 H261 0.929 . S
C289 C292 1.391 . S
C289 C294 1.391 . S
C290 H262 0.929 . S
C290 C291 1.390 . S
C290 N293 1.391 . S
C291 H263 0.930 . S
C291 C290 1.390 . S
C291 C292 1.392 . S
C292 H264 0.929 . S
C292 C289 1.391 . S
C292 C291 1.392 . S
N293 Co237 2.257 . S
N293 C290 1.391 . S
N293 C294 1.388 . S
C294 H265 0.930 . S
C294 C289 1.391 . S
C294 N293 1.388 . S
Co295 O297 2.143 . S
Co295 O303 2.074 . S
Co295 O306 2.093 . S
Co295 O319 2.097 . S
Co295 N336 2.151 . S
Co295 N344 2.214 . S
Co296 O297 2.160 . S
Co296 O302 2.058 . S
Co296 O312 2.057 . S
Co296 O327 2.037 . S
Co296 N331 2.145 . S
Co296 N352 2.257 . S
O297 Co295 2.143 . S
O297 Co296 2.160 . S
C298 O299 1.278 . S
C298 O306 1.224 . S
O299 C298 1.278 . S
C300 O301 1.245 . S
C300 O312 1.232 . S
O301 C300 1.245 . S
O302 Co296 2.058 . S
O302 C328 1.269 . S
O303 Co295 2.074 . S
O303 C328 1.257 . S
H304 C329 0.930 . S
H305 C335 0.930 . S
O306 Co295 2.093 . S
O306 C298 1.224 . S
H307 C339 0.929 . S
H308 C341 0.930 1_545 S
H309 C342 0.930 . S
H310 C340 0.929 . S
H311 C343 0.928 . S
O312 Co296 2.057 . S
O312 C300 1.232 . S
H313 C332 0.929 . S
H314 C333 0.929 . S
H315 C345 0.931 . S
H316 C337 0.929 . S
H317 C346 0.930 1_545 S
H318 C338 0.931 . S
O319 Co295 2.097 . S
O319 C347 1.214 . S
H320 C348 0.929 . S
H321 C349 0.929 . S
H322 C350 0.930 . S
H323 C351 0.929 . S
H324 C353 0.930 . S
H325 C330 0.930 . S
H326 C334 0.930 . S
O327 Co296 2.037 . S
O327 C347 1.234 . S
C328 O302 1.269 . S
C328 O303 1.257 . S
C329 H304 0.930 . S
C329 C332 1.388 . S
C329 C334 1.418 . S
C330 H325 0.930 . S
C330 C333 1.404 . S
C330 C334 1.353 . S
N331 Co296 2.145 . S
N331 C332 1.397 . S
N331 C333 1.334 . S
C332 H313 0.929 . S
C332 C329 1.388 . S
C332 N331 1.397 . S
C333 H314 0.929 . S
C333 C330 1.404 . S
C333 N331 1.334 . S
C334 H326 0.930 . S
C334 C329 1.418 . S
C334 C330 1.353 . S
C335 H305 0.930 . S
C335 N336 1.330 . S
C335 C337 1.446 . S
N336 Co295 2.151 . S
N336 C335 1.330 . S
N336 C340 1.418 . S
C337 H316 0.929 . S
C337 C335 1.446 . S
C337 C338 1.332 . S
C338 H318 0.931 . S
C338 C337 1.332 . S
C338 C339 1.267 . S
C339 H307 0.929 . S
C339 C338 1.267 . S
C339 C340 1.251 . S
C340 H310 0.929 . S
C340 N336 1.418 . S
C340 C339 1.251 . S
C341 H308 0.930 1_565 S
C341 C343 1.406 . S
C341 C346 1.261 . S
C342 H309 0.930 . S
C342 N344 1.325 . S
C342 C345 1.357 . S
C343 H311 0.928 . S
C343 C341 1.406 . S
C343 N344 1.261 . S
N344 Co295 2.214 . S
N344 C342 1.325 . S
N344 C343 1.261 . S
C345 H315 0.931 . S
C345 C342 1.357 . S
C345 C346 1.312 . S
C346 H317 0.930 1_565 S
C346 C341 1.261 . S
C346 C345 1.312 . S
C347 O319 1.214 . S
C347 O327 1.234 . S
C348 H320 0.929 . S
C348 C351 1.391 . S
C348 C353 1.391 . S
C349 H321 0.929 . S
C349 C350 1.390 . S
C349 N352 1.391 . S
C350 H322 0.930 . S
C350 C349 1.390 . S
C350 C351 1.392 . S
C351 H323 0.929 . S
C351 C348 1.391 . S
C351 C350 1.392 . S
N352 Co296 2.257 . S
N352 C349 1.391 . S
N352 C353 1.388 . S
C353 H324 0.930 . S
C353 C348 1.391 . S
C353 N352 1.388 . S
Co354 O356 2.143 . S
Co354 O362 2.074 . S
Co354 O365 2.093 . S
Co354 O378 2.097 . S
Co354 N395 2.151 . S
Co354 N403 2.214 . S
Co355 O356 2.160 . S
Co355 O361 2.058 . S
Co355 O371 2.057 . S
Co355 O386 2.037 . S
Co355 N390 2.145 . S
Co355 N411 2.257 . S
O356 Co354 2.143 . S
O356 Co355 2.160 . S
C357 O358 1.278 . S
C357 O365 1.224 . S
O358 C357 1.278 . S
C359 O360 1.245 . S
C359 O371 1.232 . S
O360 C359 1.245 . S
O361 Co355 2.058 . S
O361 C387 1.269 . S
O362 Co354 2.074 . S
O362 C387 1.257 . S
H363 C388 0.930 . S
H364 C394 0.930 . S
O365 Co354 2.093 . S
O365 C357 1.224 . S
H366 C398 0.929 . S
H367 C400 0.930 1_545 S
H368 C401 0.930 . S
H369 C399 0.929 . S
H370 C402 0.928 . S
O371 Co355 2.057 . S
O371 C359 1.232 . S
H372 C391 0.929 . S
H373 C392 0.929 . S
H374 C404 0.931 . S
H375 C396 0.929 . S
H376 C405 0.939 . S
H377 C397 0.931 . S
O378 Co354 2.097 . S
O378 C406 1.214 . S
H379 C407 0.929 . S
H380 C408 0.929 . S
H381 C409 0.930 . S
H382 C410 0.929 . S
H383 C412 0.930 . S
H384 C389 0.930 . S
H385 C393 0.930 . S
O386 Co355 2.037 . S
O386 C406 1.234 . S
C387 O361 1.269 . S
C387 O362 1.257 . S
C388 H363 0.930 . S
C388 C391 1.388 . S
C388 C393 1.418 . S
C389 H384 0.930 . S
C389 C392 1.404 . S
C389 C393 1.353 . S
N390 Co355 2.145 . S
N390 C391 1.397 . S
N390 C392 1.334 . S
C391 H372 0.929 . S
C391 C388 1.388 . S
C391 N390 1.397 . S
C392 H373 0.929 . S
C392 C389 1.404 . S
C392 N390 1.334 . S
C393 H385 0.930 . S
C393 C388 1.418 . S
C393 C389 1.353 . S
C394 H364 0.930 . S
C394 N395 1.330 . S
C394 C396 1.446 . S
N395 Co354 2.151 . S
N395 C394 1.330 . S
N395 C399 1.418 . S
C396 H375 0.929 . S
C396 C394 1.446 . S
C396 C397 1.332 . S
C397 H377 0.931 . S
C397 C396 1.332 . S
C397 C398 1.267 . S
C398 H366 0.929 . S
C398 C397 1.267 . S
C398 C399 1.251 . S
C399 H369 0.929 . S
C399 N395 1.418 . S
C399 C398 1.251 . S
C400 H367 0.930 1_565 S
C400 C402 1.406 . S
C400 C405 1.259 1_565 S
C401 H368 0.930 . S
C401 N403 1.325 . S
C401 C404 1.357 . S
C402 H370 0.928 . S
C402 C400 1.406 . S
C402 N403 1.261 . S
N403 Co354 2.214 . S
N403 C401 1.325 . S
N403 C402 1.261 . S
C404 H374 0.931 . S
C404 C401 1.357 . S
C404 C405 1.305 1_565 S
C405 H376 0.939 . S
C405 C400 1.259 1_545 S
C405 C404 1.305 1_545 S
C406 O378 1.214 . S
C406 O386 1.234 . S
C407 H379 0.929 . S
C407 C410 1.391 . S
C407 C412 1.391 . S
C408 H380 0.929 . S
C408 C409 1.390 . S
C408 N411 1.391 . S
C409 H381 0.930 . S
C409 C408 1.390 . S
C409 C410 1.392 . S
C410 H382 0.929 . S
C410 C407 1.391 . S
C410 C409 1.392 . S
N411 Co355 2.257 . S
N411 C408 1.391 . S
N411 C412 1.388 . S
C412 H383 0.930 . S
C412 C407 1.391 . S
C412 N411 1.388 . S
Co413 O415 2.143 1_565 S
Co413 O421 2.074 . S
Co413 O424 2.093 . S
Co413 O437 2.097 . S
Co413 N454 2.151 . S
Co413 N462 2.214 . S
Co414 O415 2.160 . S
Co414 O420 2.058 1_545 S
Co414 O430 2.057 . S
Co414 O445 2.037 . S
Co414 N449 2.145 . S
Co414 N470 2.257 . S
O415 Co413 2.143 1_545 S
O415 Co414 2.160 . S
C416 O417 1.278 1_565 S
C416 O424 1.224 . S
O417 C416 1.278 1_545 S
C418 O419 1.245 . S
C418 O430 1.232 . S
O419 C418 1.245 . S
O420 Co414 2.058 1_565 S
O420 C446 1.269 . S
O421 Co413 2.074 . S
O421 C446 1.257 . S
H422 C447 0.930 . S
H423 C453 0.930 . S
O424 Co413 2.093 . S
O424 C416 1.224 . S
H425 C457 0.929 . S
H426 C459 0.930 . S
H427 C460 0.930 . S
H428 C458 0.929 . S
H429 C461 0.928 . S
O430 Co414 2.057 . S
O430 C418 1.232 . S
H431 C450 0.929 . S
H432 C451 0.929 . S
H433 C463 0.931 . S
H434 C455 0.929 . S
H435 C464 0.930 . S
H436 C456 0.931 . S
O437 Co413 2.097 . S
O437 C465 1.214 . S
H438 C466 0.929 . S
H439 C467 0.929 . S
H440 C468 0.930 . S
H441 C469 0.929 . S
H442 C471 0.930 . S
H443 C448 0.930 . S
H444 C452 0.930 . S
O445 Co414 2.037 . S
O445 C465 1.234 1_545 S
C446 O420 1.269 . S
C446 O421 1.257 . S
C447 H422 0.930 . S
C447 C450 1.388 . S
C447 C452 1.418 . S
C448 H443 0.930 . S
C448 C451 1.404 . S
C448 C452 1.353 . S
N449 Co414 2.145 . S
N449 C450 1.397 . S
N449 C451 1.334 . S
C450 H431 0.929 . S
C450 C447 1.388 . S
C450 N449 1.397 . S
C451 H432 0.929 . S
C451 C448 1.404 . S
C451 N449 1.334 . S
C452 H444 0.930 . S
C452 C447 1.418 . S
C452 C448 1.353 . S
C453 H423 0.930 . S
C453 N454 1.330 . S
C453 C455 1.446 . S
N454 Co413 2.151 . S
N454 C453 1.330 . S
N454 C458 1.418 . S
C455 H434 0.929 . S
C455 C453 1.446 . S
C455 C456 1.332 . S
C456 H436 0.931 . S
C456 C455 1.332 . S
C456 C457 1.267 . S
C457 H425 0.929 . S
C457 C456 1.267 . S
C457 C458 1.251 . S
C458 H428 0.929 . S
C458 N454 1.418 . S
C458 C457 1.251 . S
C459 H426 0.930 . S
C459 C461 1.406 . S
C459 C464 1.261 . S
C460 H427 0.930 . S
C460 N462 1.325 . S
C460 C463 1.357 . S
C461 H429 0.928 . S
C461 C459 1.406 . S
C461 N462 1.261 . S
N462 Co413 2.214 . S
N462 C460 1.325 . S
N462 C461 1.261 . S
C463 H433 0.931 . S
C463 C460 1.357 . S
C463 C464 1.312 . S
C464 H435 0.930 . S
C464 C459 1.261 . S
C464 C463 1.312 . S
C465 O437 1.214 . S
C465 O445 1.234 1_565 S
C466 H438 0.929 . S
C466 C469 1.391 . S
C466 C471 1.391 . S
C467 H439 0.929 . S
C467 C468 1.390 . S
C467 N470 1.391 . S
C468 H440 0.930 . S
C468 C467 1.390 . S
C468 C469 1.392 . S
C469 H441 0.929 . S
C469 C466 1.391 . S
C469 C468 1.392 . S
N470 Co414 2.257 . S
N470 C467 1.391 . S
N470 C471 1.388 . S
C471 H442 0.930 . S
C471 C466 1.391 . S
C471 N470 1.388 . S
Co472 O474 2.143 . S
Co472 O480 2.074 . S
Co472 O483 2.093 . S
Co472 O496 2.097 . S
Co472 N513 2.151 . S
Co472 N521 2.214 . S
Co473 O474 2.160 . S
Co473 O479 2.058 . S
Co473 O489 2.057 . S
Co473 O504 2.037 . S
Co473 N508 2.145 . S
Co473 N529 2.257 . S
O474 Co472 2.143 . S
O474 Co473 2.160 . S
C475 O476 1.278 . S
C475 O483 1.224 . S
O476 C475 1.278 . S
C477 O478 1.245 . S
C477 O489 1.232 . S
O478 C477 1.245 . S
O479 Co473 2.058 . S
O479 C505 1.269 . S
O480 Co472 2.074 . S
O480 C505 1.257 . S
H481 C506 0.930 . S
H482 C512 0.930 . S
O483 Co472 2.093 . S
O483 C475 1.224 . S
H484 C516 0.929 . S
H485 C518 0.930 . S
H486 C519 0.930 . S
H487 C517 0.929 . S
H488 C520 0.928 . S
O489 Co473 2.057 . S
O489 C477 1.232 . S
H490 C509 0.929 . S
H491 C510 0.929 . S
H492 C522 0.931 . S
H493 C514 0.929 . S
H494 C523 0.930 . S
H495 C515 0.931 . S
O496 Co472 2.097 . S
O496 C524 1.214 . S
H497 C525 0.929 . S
H498 C526 0.929 . S
H499 C527 0.930 . S
H500 C528 0.929 . S
H501 C530 0.930 . S
H502 C507 0.930 . S
H503 C511 0.930 . S
O504 Co473 2.037 . S
O504 C524 1.234 . S
C505 O479 1.269 . S
C505 O480 1.257 . S
C506 H481 0.930 . S
C506 C509 1.388 . S
C506 C511 1.418 . S
C507 H502 0.930 . S
C507 C510 1.404 . S
C507 C511 1.353 . S
N508 Co473 2.145 . S
N508 C509 1.397 . S
N508 C510 1.334 . S
C509 H490 0.929 . S
C509 C506 1.388 . S
C509 N508 1.397 . S
C510 H491 0.929 . S
C510 C507 1.404 . S
C510 N508 1.334 . S
C511 H503 0.930 . S
C511 C506 1.418 . S
C511 C507 1.353 . S
C512 H482 0.930 . S
C512 N513 1.330 . S
C512 C514 1.446 . S
N513 Co472 2.151 . S
N513 C512 1.330 . S
N513 C517 1.418 . S
C514 H493 0.929 . S
C514 C512 1.446 . S
C514 C515 1.332 . S
C515 H495 0.931 . S
C515 C514 1.332 . S
C515 C516 1.267 . S
C516 H484 0.929 . S
C516 C515 1.267 . S
C516 C517 1.251 . S
C517 H487 0.929 . S
C517 N513 1.418 . S
C517 C516 1.251 . S
C518 H485 0.930 . S
C518 C520 1.406 . S
C518 C523 1.261 . S
C519 H486 0.930 . S
C519 N521 1.325 . S
C519 C522 1.357 . S
C520 H488 0.928 . S
C520 C518 1.406 . S
C520 N521 1.261 . S
N521 Co472 2.214 . S
N521 C519 1.325 . S
N521 C520 1.261 . S
C522 H492 0.931 . S
C522 C519 1.357 . S
C522 C523 1.312 . S
C523 H494 0.930 . S
C523 C518 1.261 . S
C523 C522 1.312 . S
C524 O496 1.214 . S
C524 O504 1.234 . S
C525 H497 0.929 . S
C525 C528 1.391 . S
C525 C530 1.391 . S
C526 H498 0.929 . S
C526 C527 1.390 . S
C526 N529 1.391 . S
C527 H499 0.930 . S
C527 C526 1.390 . S
C527 C528 1.392 . S
C528 H500 0.929 . S
C528 C525 1.391 . S
C528 C527 1.392 . S
N529 Co473 2.257 . S
N529 C526 1.391 . S
N529 C530 1.388 . S
C530 H501 0.930 . S
C530 C525 1.391 . S
C530 N529 1.388 . S
Co531 O533 2.143 . S
Co531 O539 2.074 . S
Co531 O542 2.093 . S
Co531 O555 2.097 . S
Co531 N572 2.151 . S
Co531 N580 2.214 . S
Co532 O533 2.160 . S
Co532 O538 2.058 . S
Co532 O548 2.057 . S
Co532 O563 2.037 . S
Co532 N567 2.145 . S
Co532 N588 2.257 . S
O533 Co531 2.143 . S
O533 Co532 2.160 . S
C534 O535 1.278 . S
C534 O542 1.224 . S
O535 C534 1.278 . S
C536 O537 1.245 . S
C536 O548 1.232 . S
O537 C536 1.245 . S
O538 Co532 2.058 . S
O538 C564 1.269 . S
O539 Co531 2.074 . S
O539 C564 1.257 . S
H540 C565 0.930 . S
H541 C571 0.930 . S
O542 Co531 2.093 . S
O542 C534 1.224 . S
H543 C575 0.929 . S
H544 C577 0.930 . S
H545 C578 0.930 . S
H546 C576 0.929 . S
H547 C579 0.928 . S
O548 Co532 2.057 . S
O548 C536 1.232 . S
H549 C568 0.929 . S
H550 C569 0.929 . S
H551 C581 0.931 . S
H552 C573 0.929 . S
H553 C582 0.930 . S
H554 C574 0.931 . S
O555 Co531 2.097 . S
O555 C583 1.214 . S
H556 C584 0.929 . S
H557 C585 0.929 . S
H558 C586 0.930 . S
H559 C587 0.929 1_545 S
H560 C589 0.930 . S
H561 C566 0.930 1_545 S
H562 C570 0.930 . S
O563 Co532 2.037 . S
O563 C583 1.234 . S
C564 O538 1.269 . S
C564 O539 1.257 . S
C565 H540 0.930 . S
C565 C568 1.388 . S
C565 C570 1.418 . S
C566 H561 0.930 1_565 S
C566 C569 1.404 . S
C566 C570 1.353 . S
N567 Co532 2.145 . S
N567 C568 1.397 . S
N567 C569 1.334 . S
C568 H549 0.929 . S
C568 C565 1.388 . S
C568 N567 1.397 . S
C569 H550 0.929 . S
C569 C566 1.404 . S
C569 N567 1.334 . S
C570 H562 0.930 . S
C570 C565 1.418 . S
C570 C566 1.353 . S
C571 H541 0.930 . S
C571 N572 1.330 . S
C571 C573 1.446 . S
N572 Co531 2.151 . S
N572 C571 1.330 . S
N572 C576 1.418 . S
C573 H552 0.929 . S
C573 C571 1.446 . S
C573 C574 1.332 . S
C574 H554 0.931 . S
C574 C573 1.332 . S
C574 C575 1.267 . S
C575 H543 0.929 . S
C575 C574 1.267 . S
C575 C576 1.251 . S
C576 H546 0.929 . S
C576 N572 1.418 . S
C576 C575 1.251 . S
C577 H544 0.930 . S
C577 C579 1.406 . S
C577 C582 1.261 . S
C578 H545 0.930 . S
C578 N580 1.325 . S
C578 C581 1.357 . S
C579 H547 0.928 . S
C579 C577 1.406 . S
C579 N580 1.261 . S
N580 Co531 2.214 . S
N580 C578 1.325 . S
N580 C579 1.261 . S
C581 H551 0.931 . S
C581 C578 1.357 . S
C581 C582 1.312 . S
C582 H553 0.930 . S
C582 C577 1.261 . S
C582 C581 1.312 . S
C583 O555 1.214 . S
C583 O563 1.234 . S
C584 H556 0.929 . S
C584 C587 1.391 . S
C584 C589 1.391 . S
C585 H557 0.929 . S
C585 C586 1.390 . S
C585 N588 1.391 . S
C586 H558 0.930 . S
C586 C585 1.390 . S
C586 C587 1.392 . S
C587 H559 0.929 1_565 S
C587 C584 1.391 . S
C587 C586 1.392 . S
N588 Co532 2.257 . S
N588 C585 1.391 . S
N588 C589 1.388 . S
C589 H560 0.930 . S
C589 C584 1.391 . S
C589 N588 1.388 . S
Co590 O592 2.143 . S
Co590 O598 2.074 . S
Co590 O601 2.093 . S
Co590 O614 2.097 . S
Co590 N631 2.151 . S
Co590 N639 2.214 . S
Co591 O592 2.160 . S
Co591 O597 2.058 . S
Co591 O607 2.057 . S
Co591 O622 2.037 . S
Co591 N626 2.145 . S
Co591 N647 2.257 . S
O592 Co590 2.143 . S
O592 Co591 2.160 . S
C593 O594 1.278 . S
C593 O601 1.224 . S
O594 C593 1.278 . S
C595 O596 1.245 . S
C595 O607 1.232 . S
O596 C595 1.245 . S
O597 Co591 2.058 . S
O597 C623 1.269 . S
O598 Co590 2.074 . S
O598 C623 1.257 . S
H599 C624 0.930 . S
H600 C630 0.930 . S
O601 Co590 2.093 . S
O601 C593 1.224 . S
H602 C634 0.929 . S
H603 C636 0.930 . S
H604 C637 0.930 . S
H605 C635 0.929 . S
H606 C638 0.928 . S
O607 Co591 2.057 . S
O607 C595 1.232 . S
H608 C627 0.929 . S
H609 C628 0.929 . S
H610 C640 0.931 . S
H611 C632 0.929 . S
H612 C641 0.930 . S
H613 C633 0.931 . S
O614 Co590 2.097 . S
O614 C642 1.214 . S
H615 C643 0.929 . S
H616 C644 0.929 . S
H617 C645 0.930 . S
H618 C646 0.929 1_545 S
H619 C648 0.930 . S
H620 C625 0.930 1_545 S
H621 C629 0.930 1_545 S
O622 Co591 2.037 . S
O622 C642 1.234 . S
C623 O597 1.269 . S
C623 O598 1.257 . S
C624 H599 0.930 . S
C624 C627 1.388 . S
C624 C629 1.418 . S
C625 H620 0.930 1_565 S
C625 C628 1.404 . S
C625 C629 1.353 . S
N626 Co591 2.145 . S
N626 C627 1.397 . S
N626 C628 1.334 . S
C627 H608 0.929 . S
C627 C624 1.388 . S
C627 N626 1.397 . S
C628 H609 0.929 . S
C628 C625 1.404 . S
C628 N626 1.334 . S
C629 H621 0.930 1_565 S
C629 C624 1.418 . S
C629 C625 1.353 . S
C630 H600 0.930 . S
C630 N631 1.330 . S
C630 C632 1.446 . S
N631 Co590 2.151 . S
N631 C630 1.330 . S
N631 C635 1.418 . S
C632 H611 0.929 . S
C632 C630 1.446 . S
C632 C633 1.332 . S
C633 H613 0.931 . S
C633 C632 1.332 . S
C633 C634 1.267 . S
C634 H602 0.929 . S
C634 C633 1.267 . S
C634 C635 1.251 . S
C635 H605 0.929 . S
C635 N631 1.418 . S
C635 C634 1.251 . S
C636 H603 0.930 . S
C636 C638 1.406 . S
C636 C641 1.261 . S
C637 H604 0.930 . S
C637 N639 1.325 . S
C637 C640 1.357 . S
C638 H606 0.928 . S
C638 C636 1.406 . S
C638 N639 1.261 . S
N639 Co590 2.214 . S
N639 C637 1.325 . S
N639 C638 1.261 . S
C640 H610 0.931 . S
C640 C637 1.357 . S
C640 C641 1.312 . S
C641 H612 0.930 . S
C641 C636 1.261 . S
C641 C640 1.312 . S
C642 O614 1.214 . S
C642 O622 1.234 . S
C643 H615 0.929 . S
C643 C646 1.391 . S
C643 C648 1.391 . S
C644 H616 0.929 . S
C644 C645 1.390 . S
C644 N647 1.391 . S
C645 H617 0.930 . S
C645 C644 1.390 . S
C645 C646 1.392 . S
C646 H618 0.929 1_565 S
C646 C643 1.391 . S
C646 C645 1.392 . S
N647 Co591 2.257 . S
N647 C644 1.391 . S
N647 C648 1.388 . S
C648 H619 0.930 . S
C648 C643 1.391 . S
C648 N647 1.388 . S
Co649 O651 2.143 . S
Co649 O657 2.074 . S
Co649 O660 2.093 . S
Co649 O673 2.097 . S
Co649 N690 2.151 . S
Co649 N698 2.214 . S
Co650 O651 2.160 . S
Co650 O656 2.058 . S
Co650 O666 2.057 . S
Co650 O681 2.037 . S
Co650 N685 2.145 . S
Co650 N706 2.257 . S
O651 Co649 2.143 . S
O651 Co650 2.160 . S
C652 O653 1.278 . S
C652 O660 1.224 . S
O653 C652 1.278 . S
C654 O655 1.245 . S
C654 O666 1.232 . S
O655 C654 1.245 . S
O656 Co650 2.058 . S
O656 C682 1.269 . S
O657 Co649 2.074 . S
O657 C682 1.257 . S
H658 C683 0.930 . S
H659 C689 0.930 . S
O660 Co649 2.093 . S
O660 C652 1.224 . S
H661 C693 0.929 . S
H662 C695 0.930 . S
H663 C696 0.930 . S
H664 C694 0.929 . S
H665 C697 0.928 . S
O666 Co650 2.057 . S
O666 C654 1.232 . S
H667 C686 0.929 . S
H668 C687 0.929 . S
H669 C699 0.931 . S
H670 C691 0.929 . S
H671 C700 0.930 . S
H672 C692 0.931 . S
O673 Co649 2.097 . S
O673 C701 1.214 . S
H674 C702 0.929 . S
H675 C703 0.929 . S
H676 C704 0.930 . S
H677 C705 0.929 . S
H678 C707 0.930 . S
H679 C684 0.930 . S
H680 C688 0.930 . S
O681 Co650 2.037 . S
O681 C701 1.234 . S
C682 O656 1.269 . S
C682 O657 1.257 . S
C683 H658 0.930 . S
C683 C686 1.388 . S
C683 C688 1.418 . S
C684 H679 0.930 . S
C684 C687 1.404 . S
C684 C688 1.353 . S
N685 Co650 2.145 . S
N685 C686 1.397 . S
N685 C687 1.334 . S
C686 H667 0.929 . S
C686 C683 1.388 . S
C686 N685 1.397 . S
C687 H668 0.929 . S
C687 C684 1.404 . S
C687 N685 1.334 . S
C688 H680 0.930 . S
C688 C683 1.418 . S
C688 C684 1.353 . S
C689 H659 0.930 . S
C689 N690 1.330 . S
C689 C691 1.446 . S
N690 Co649 2.151 . S
N690 C689 1.330 . S
N690 C694 1.418 . S
C691 H670 0.929 . S
C691 C689 1.446 . S
C691 C692 1.332 . S
C692 H672 0.931 . S
C692 C691 1.332 . S
C692 C693 1.267 . S
C693 H661 0.929 . S
C693 C692 1.267 . S
C693 C694 1.251 . S
C694 H664 0.929 . S
C694 N690 1.418 . S
C694 C693 1.251 . S
C695 H662 0.930 . S
C695 C697 1.406 . S
C695 C700 1.261 . S
C696 H663 0.930 . S
C696 N698 1.325 . S
C696 C699 1.357 . S
C697 H665 0.928 . S
C697 C695 1.406 . S
C697 N698 1.261 . S
N698 Co649 2.214 . S
N698 C696 1.325 . S
N698 C697 1.261 . S
C699 H669 0.931 . S
C699 C696 1.357 . S
C699 C700 1.312 . S
C700 H671 0.930 . S
C700 C695 1.261 . S
C700 C699 1.312 . S
C701 O673 1.214 . S
C701 O681 1.234 . S
C702 H674 0.929 . S
C702 C705 1.391 . S
C702 C707 1.391 . S
C703 H675 0.929 . S
C703 C704 1.390 . S
C703 N706 1.391 . S
C704 H676 0.930 . S
C704 C703 1.390 . S
C704 C705 1.392 . S
C705 H677 0.929 . S
C705 C702 1.391 . S
C705 C704 1.392 . S
N706 Co650 2.257 . S
N706 C703 1.391 . S
N706 C707 1.388 . S
C707 H678 0.930 . S
C707 C702 1.391 . S
C707 N706 1.388 . S
Co708 O710 2.143 . S
Co708 O716 2.074 . S
Co708 O719 2.093 . S
Co708 O732 2.097 . S
Co708 N749 2.151 . S
Co708 N757 2.214 . S
Co709 O710 2.160 . S
Co709 O715 2.058 . S
Co709 O725 2.057 . S
Co709 O740 2.037 . S
Co709 N744 2.145 . S
Co709 N765 2.257 . S
O710 Co708 2.143 . S
O710 Co709 2.160 . S
C711 O712 1.278 . S
C711 O719 1.224 . S
O712 C711 1.278 . S
C713 O714 1.245 . S
C713 O725 1.232 . S
O714 C713 1.245 . S
O715 Co709 2.058 . S
O715 C741 1.269 . S
O716 Co708 2.074 . S
O716 C741 1.257 . S
H717 C742 0.930 . S
H718 C748 0.930 . S
O719 Co708 2.093 . S
O719 C711 1.224 . S
H720 C752 0.929 . S
H721 C754 0.930 . S
H722 C755 0.930 . S
H723 C753 0.929 . S
H724 C756 0.928 . S
O725 Co709 2.057 . S
O725 C713 1.232 . S
H726 C745 0.929 . S
H727 C746 0.929 . S
H728 C758 0.931 . S
H729 C750 0.929 . S
H730 C759 0.930 . S
H731 C751 0.931 . S
O732 Co708 2.097 . S
O732 C760 1.214 . S
H733 C761 0.929 . S
H734 C762 0.929 . S
H735 C763 0.930 . S
H736 C764 0.929 . S
H737 C766 0.930 . S
H738 C743 0.930 . S
H739 C747 0.930 . S
O740 Co709 2.037 . S
O740 C760 1.234 . S
C741 O715 1.269 . S
C741 O716 1.257 . S
C742 H717 0.930 . S
C742 C745 1.388 . S
C742 C747 1.418 . S
C743 H738 0.930 . S
C743 C746 1.404 . S
C743 C747 1.353 . S
N744 Co709 2.145 . S
N744 C745 1.397 . S
N744 C746 1.334 . S
C745 H726 0.929 . S
C745 C742 1.388 . S
C745 N744 1.397 . S
C746 H727 0.929 . S
C746 C743 1.404 . S
C746 N744 1.334 . S
C747 H739 0.930 . S
C747 C742 1.418 . S
C747 C743 1.353 . S
C748 H718 0.930 . S
C748 N749 1.330 . S
C748 C750 1.446 . S
N749 Co708 2.151 . S
N749 C748 1.330 . S
N749 C753 1.418 . S
C750 H729 0.929 . S
C750 C748 1.446 . S
C750 C751 1.332 . S
C751 H731 0.931 . S
C751 C750 1.332 . S
C751 C752 1.267 . S
C752 H720 0.929 . S
C752 C751 1.267 . S
C752 C753 1.251 . S
C753 H723 0.929 . S
C753 N749 1.418 . S
C753 C752 1.251 . S
C754 H721 0.930 . S
C754 C756 1.406 . S
C754 C759 1.261 . S
C755 H722 0.930 . S
C755 N757 1.325 . S
C755 C758 1.357 . S
C756 H724 0.928 . S
C756 C754 1.406 . S
C756 N757 1.261 . S
N757 Co708 2.214 . S
N757 C755 1.325 . S
N757 C756 1.261 . S
C758 H728 0.931 . S
C758 C755 1.357 . S
C758 C759 1.312 . S
C759 H730 0.930 . S
C759 C754 1.261 . S
C759 C758 1.312 . S
C760 O732 1.214 . S
C760 O740 1.234 . S
C761 H733 0.929 . S
C761 C764 1.391 . S
C761 C766 1.391 . S
C762 H734 0.929 . S
C762 C763 1.390 . S
C762 N765 1.391 . S
C763 H735 0.930 . S
C763 C762 1.390 . S
C763 C764 1.392 . S
C764 H736 0.929 . S
C764 C761 1.391 . S
C764 C763 1.392 . S
N765 Co709 2.257 . S
N765 C762 1.391 . S
N765 C766 1.388 . S
C766 H737 0.930 . S
C766 C761 1.391 . S
C766 N765 1.388 . S
Co767 O769 2.143 . S
Co767 O775 2.074 . S
Co767 O778 2.093 . S
Co767 O791 2.097 . S
Co767 N808 2.151 . S
Co767 N816 2.214 . S
Co768 O769 2.160 . S
Co768 O774 2.058 . S
Co768 O784 2.057 . S
Co768 O799 2.037 . S
Co768 N803 2.145 . S
Co768 N824 2.257 . S
O769 Co767 2.143 . S
O769 Co768 2.160 . S
C770 O771 1.278 . S
C770 O778 1.224 . S
O771 C770 1.278 . S
C772 O773 1.245 . S
C772 O784 1.232 . S
O773 C772 1.245 . S
O774 Co768 2.058 . S
O774 C800 1.269 . S
O775 Co767 2.074 . S
O775 C800 1.257 . S
H776 C801 0.930 . S
H777 C807 0.930 . S
O778 Co767 2.093 . S
O778 C770 1.224 . S
H779 C811 0.929 . S
H780 C813 0.930 . S
H781 C814 0.930 . S
H782 C812 0.929 . S
H783 C815 0.928 . S
O784 Co768 2.057 . S
O784 C772 1.232 . S
H785 C804 0.929 . S
H786 C805 0.929 . S
H787 C817 0.931 . S
H788 C809 0.929 . S
H789 C818 0.930 . S
H790 C810 0.931 . S
O791 Co767 2.097 . S
O791 C819 1.214 . S
H792 C820 0.929 . S
H793 C821 0.929 . S
H794 C822 0.930 . S
H795 C823 0.929 1_565 S
H796 C825 0.930 . S
H797 C802 0.930 1_565 S
H798 C806 0.930 . S
O799 Co768 2.037 . S
O799 C819 1.234 . S
C800 O774 1.269 . S
C800 O775 1.257 . S
C801 H776 0.930 . S
C801 C804 1.388 . S
C801 C806 1.418 . S
C802 H797 0.930 1_545 S
C802 C805 1.404 . S
C802 C806 1.353 . S
N803 Co768 2.145 . S
N803 C804 1.397 . S
N803 C805 1.334 . S
C804 H785 0.929 . S
C804 C801 1.388 . S
C804 N803 1.397 . S
C805 H786 0.929 . S
C805 C802 1.404 . S
C805 N803 1.334 . S
C806 H798 0.930 . S
C806 C801 1.418 . S
C806 C802 1.353 . S
C807 H777 0.930 . S
C807 N808 1.330 . S
C807 C809 1.446 . S
N808 Co767 2.151 . S
N808 C807 1.330 . S
N808 C812 1.418 . S
C809 H788 0.929 . S
C809 C807 1.446 . S
C809 C810 1.332 . S
C810 H790 0.931 . S
C810 C809 1.332 . S
C810 C811 1.267 . S
C811 H779 0.929 . S
C811 C810 1.267 . S
C811 C812 1.251 . S
C812 H782 0.929 . S
C812 N808 1.418 . S
C812 C811 1.251 . S
C813 H780 0.930 . S
C813 C815 1.406 . S
C813 C818 1.261 . S
C814 H781 0.930 . S
C814 N816 1.325 . S
C814 C817 1.357 . S
C815 H783 0.928 . S
C815 C813 1.406 . S
C815 N816 1.261 . S
N816 Co767 2.214 . S
N816 C814 1.325 . S
N816 C815 1.261 . S
C817 H787 0.931 . S
C817 C814 1.357 . S
C817 C818 1.312 . S
C818 H789 0.930 . S
C818 C813 1.261 . S
C818 C817 1.312 . S
C819 O791 1.214 . S
C819 O799 1.234 . S
C820 H792 0.929 . S
C820 C823 1.391 . S
C820 C825 1.391 . S
C821 H793 0.929 . S
C821 C822 1.390 . S
C821 N824 1.391 . S
C822 H794 0.930 . S
C822 C821 1.390 . S
C822 C823 1.392 . S
C823 H795 0.929 1_545 S
C823 C820 1.391 . S
C823 C822 1.392 . S
N824 Co768 2.257 . S
N824 C821 1.391 . S
N824 C825 1.388 . S
C825 H796 0.930 . S
C825 C820 1.391 . S
C825 N824 1.388 . S
Co826 O828 2.143 . S
Co826 O834 2.074 . S
Co826 O837 2.093 . S
Co826 O850 2.097 . S
Co826 N867 2.151 . S
Co826 N875 2.214 . S
Co827 O828 2.160 . S
Co827 O833 2.058 . S
Co827 O843 2.057 . S
Co827 O858 2.037 . S
Co827 N862 2.145 . S
Co827 N883 2.257 . S
O828 Co826 2.143 . S
O828 Co827 2.160 . S
C829 O830 1.278 . S
C829 O837 1.224 . S
O830 C829 1.278 . S
C831 O832 1.245 . S
C831 O843 1.232 . S
O832 C831 1.245 . S
O833 Co827 2.058 . S
O833 C859 1.269 . S
O834 Co826 2.074 . S
O834 C859 1.257 . S
H835 C860 0.930 . S
H836 C866 0.930 . S
O837 Co826 2.093 . S
O837 C829 1.224 . S
H838 C870 0.929 . S
H839 C872 0.930 . S
H840 C873 0.930 . S
H841 C871 0.929 . S
H842 C874 0.928 . S
O843 Co827 2.057 . S
O843 C831 1.232 . S
H844 C863 0.929 . S
H845 C864 0.929 . S
H846 C876 0.931 . S
H847 C868 0.929 . S
H848 C877 0.930 . S
H849 C869 0.931 . S
O850 Co826 2.097 . S
O850 C878 1.214 . S
H851 C879 0.929 . S
H852 C880 0.929 . S
H853 C881 0.930 . S
H854 C882 0.929 1_565 S
H855 C884 0.930 . S
H856 C861 0.930 1_565 S
H857 C865 0.930 1_565 S
O858 Co827 2.037 . S
O858 C878 1.234 . S
C859 O833 1.269 . S
C859 O834 1.257 . S
C860 H835 0.930 . S
C860 C863 1.388 . S
C860 C865 1.418 . S
C861 H856 0.930 1_545 S
C861 C864 1.404 . S
C861 C865 1.353 . S
N862 Co827 2.145 . S
N862 C863 1.397 . S
N862 C864 1.334 . S
C863 H844 0.929 . S
C863 C860 1.388 . S
C863 N862 1.397 . S
C864 H845 0.929 . S
C864 C861 1.404 . S
C864 N862 1.334 . S
C865 H857 0.930 1_545 S
C865 C860 1.418 . S
C865 C861 1.353 . S
C866 H836 0.930 . S
C866 N867 1.330 . S
C866 C868 1.446 . S
N867 Co826 2.151 . S
N867 C866 1.330 . S
N867 C871 1.418 . S
C868 H847 0.929 . S
C868 C866 1.446 . S
C868 C869 1.332 . S
C869 H849 0.931 . S
C869 C868 1.332 . S
C869 C870 1.267 . S
C870 H838 0.929 . S
C870 C869 1.267 . S
C870 C871 1.251 . S
C871 H841 0.929 . S
C871 N867 1.418 . S
C871 C870 1.251 . S
C872 H839 0.930 . S
C872 C874 1.406 . S
C872 C877 1.261 . S
C873 H840 0.930 . S
C873 N875 1.325 . S
C873 C876 1.357 . S
C874 H842 0.928 . S
C874 C872 1.406 . S
C874 N875 1.261 . S
N875 Co826 2.214 . S
N875 C873 1.325 . S
N875 C874 1.261 . S
C876 H846 0.931 . S
C876 C873 1.357 . S
C876 C877 1.312 . S
C877 H848 0.930 . S
C877 C872 1.261 . S
C877 C876 1.312 . S
C878 O850 1.214 . S
C878 O858 1.234 . S
C879 H851 0.929 . S
C879 C882 1.391 . S
C879 C884 1.391 . S
C880 H852 0.929 . S
C880 C881 1.390 . S
C880 N883 1.391 . S
C881 H853 0.930 . S
C881 C880 1.390 . S
C881 C882 1.392 . S
C882 H854 0.929 1_545 S
C882 C879 1.391 . S
C882 C881 1.392 . S
N883 Co827 2.257 . S
N883 C880 1.391 . S
N883 C884 1.388 . S
C884 H855 0.930 . S
C884 C879 1.391 . S
C884 N883 1.388 . S
Co885 O887 2.143 . S
Co885 O893 2.074 . S
Co885 O896 2.093 . S
Co885 O909 2.097 . S
Co885 N926 2.151 . S
Co885 N934 2.214 . S
Co886 O887 2.160 . S
Co886 O892 2.058 . S
Co886 O902 2.057 . S
Co886 O917 2.037 . S
Co886 N921 2.145 . S
Co886 N942 2.257 . S
O887 Co885 2.143 . S
O887 Co886 2.160 . S
C888 O889 1.278 . S
C888 O896 1.224 . S
O889 C888 1.278 . S
C890 O891 1.245 . S
C890 O902 1.232 . S
O891 C890 1.245 . S
O892 Co886 2.058 . S
O892 C918 1.269 . S
O893 Co885 2.074 . S
O893 C918 1.257 . S
H894 C919 0.930 . S
H895 C925 0.930 . S
O896 Co885 2.093 . S
O896 C888 1.224 . S
H897 C929 0.929 . S
H898 C931 0.930 . S
H899 C932 0.930 . S
H900 C930 0.929 . S
H901 C933 0.928 . S
O902 Co886 2.057 . S
O902 C890 1.232 . S
H903 C922 0.929 . S
H904 C923 0.929 . S
H905 C935 0.931 . S
H906 C927 0.929 . S
H907 C936 0.930 . S
H908 C928 0.931 . S
O909 Co885 2.097 . S
O909 C937 1.214 . S
H910 C938 0.929 . S
H911 C939 0.929 . S
H912 C940 0.930 . S
H913 C941 0.929 . S
H914 C943 0.930 . S
H915 C920 0.930 . S
H916 C924 0.930 . S
O917 Co886 2.037 . S
O917 C937 1.234 . S
C918 O892 1.269 . S
C918 O893 1.257 . S
C919 H894 0.930 . S
C919 C922 1.388 . S
C919 C924 1.418 . S
C920 H915 0.930 . S
C920 C923 1.404 . S
C920 C924 1.353 . S
N921 Co886 2.145 . S
N921 C922 1.397 . S
N921 C923 1.334 . S
C922 H903 0.929 . S
C922 C919 1.388 . S
C922 N921 1.397 . S
C923 H904 0.929 . S
C923 C920 1.404 . S
C923 N921 1.334 . S
C924 H916 0.930 . S
C924 C919 1.418 . S
C924 C920 1.353 . S
C925 H895 0.930 . S
C925 N926 1.330 . S
C925 C927 1.446 . S
N926 Co885 2.151 . S
N926 C925 1.330 . S
N926 C930 1.418 . S
C927 H906 0.929 . S
C927 C925 1.446 . S
C927 C928 1.332 . S
C928 H908 0.931 . S
C928 C927 1.332 . S
C928 C929 1.267 . S
C929 H897 0.929 . S
C929 C928 1.267 . S
C929 C930 1.251 . S
C930 H900 0.929 . S
C930 N926 1.418 . S
C930 C929 1.251 . S
C931 H898 0.930 . S
C931 C933 1.406 . S
C931 C936 1.261 . S
C932 H899 0.930 . S
C932 N934 1.325 . S
C932 C935 1.357 . S
C933 H901 0.928 . S
C933 C931 1.406 . S
C933 N934 1.261 . S
N934 Co885 2.214 . S
N934 C932 1.325 . S
N934 C933 1.261 . S
C935 H905 0.931 . S
C935 C932 1.357 . S
C935 C936 1.312 . S
C936 H907 0.930 . S
C936 C931 1.261 . S
C936 C935 1.312 . S
C937 O909 1.214 . S
C937 O917 1.234 . S
C938 H910 0.929 . S
C938 C941 1.391 . S
C938 C943 1.391 . S
C939 H911 0.929 . S
C939 C940 1.390 . S
C939 N942 1.391 . S
C940 H912 0.930 . S
C940 C939 1.390 . S
C940 C941 1.392 . S
C941 H913 0.929 . S
C941 C938 1.391 . S
C941 C940 1.392 . S
N942 Co886 2.257 . S
N942 C939 1.391 . S
N942 C943 1.388 . S
C943 H914 0.930 . S
C943 C938 1.391 . S
C943 N942 1.388 . S
Co944 O946 2.143 1_445 S
Co944 O952 2.074 . S
Co944 O955 2.093 . S
Co944 O968 2.097 . S
Co944 N985 2.151 1_455 S
Co944 N993 2.214 . S
Co945 O946 2.160 1_455 S
Co945 O951 2.058 1_465 S
Co945 O961 2.057 1_455 S
Co945 O976 2.037 . S
Co945 N980 2.145 . S
Co945 N1001 2.257 . S
O946 Co944 2.143 1_665 S
O946 Co945 2.160 1_655 S
C947 O948 1.279 1_545 S
C947 O955 1.224 . S
O948 C947 1.279 1_565 S
C949 O950 1.245 . S
C949 O961 1.232 . S
O950 C949 1.245 . S
O951 Co945 2.058 1_645 S
O951 C977 1.269 . S
O952 Co944 2.074 . S
O952 C977 1.257 1_455 S
H953 C978 0.930 . S
H954 C984 0.930 . S
O955 Co944 2.093 . S
O955 C947 1.224 . S
H956 C988 0.929 . S
H957 C990 0.930 . S
H958 C991 0.930 . S
H959 C989 0.929 . S
H960 C992 0.928 . S
O961 Co945 2.057 1_655 S
O961 C949 1.232 . S
H962 C981 0.929 . S
H963 C982 0.929 1_655 S
H964 C994 0.931 . S
H965 C986 0.929 . S
H966 C995 0.930 . S
H967 C987 0.931 . S
O968 Co944 2.097 . S
O968 C996 1.214 . S
H969 C997 0.929 . S
H970 C998 0.929 . S
H971 C999 0.930 . S
H972 C1000 0.929 . S
H973 C1002 0.930 1_655 S
H974 C979 0.933 . S
H975 C983 0.930 . S
O976 Co945 2.037 . S
O976 C996 1.234 1_565 S
C977 O951 1.269 . S
C977 O952 1.257 1_655 S
C978 H953 0.930 . S
C978 C981 1.388 . S
C978 C983 1.418 . S
C979 H974 0.933 . S
C979 C982 1.404 . S
C979 C983 1.353 . S
N980 Co945 2.145 . S
N980 C981 1.397 . S
N980 C982 1.334 . S
C981 H962 0.929 . S
C981 C978 1.388 . S
C981 N980 1.397 . S
C982 H963 0.929 1_455 S
C982 C979 1.404 . S
C982 N980 1.334 . S
C983 H975 0.930 . S
C983 C978 1.418 . S
C983 C979 1.353 . S
C984 H954 0.930 . S
C984 N985 1.330 . S
C984 C986 1.446 . S
N985 Co944 2.151 1_655 S
N985 C984 1.330 . S
N985 C989 1.418 . S
C986 H965 0.929 . S
C986 C984 1.446 . S
C986 C987 1.332 . S
C987 H967 0.931 . S
C987 C986 1.332 . S
C987 C988 1.267 . S
C988 H956 0.929 . S
C988 C987 1.267 . S
C988 C989 1.251 . S
C989 H959 0.929 . S
C989 N985 1.418 . S
C989 C988 1.251 . S
C990 H957 0.930 . S
C990 C992 1.406 . S
C990 C995 1.261 . S
C991 H958 0.930 . S
C991 N993 1.325 . S
C991 C994 1.357 . S
C992 H960 0.928 . S
C992 C990 1.406 . S
C992 N993 1.261 . S
N993 Co944 2.214 . S
N993 C991 1.325 . S
N993 C992 1.261 . S
C994 H964 0.931 . S
C994 C991 1.357 . S
C994 C995 1.312 . S
C995 H966 0.930 . S
C995 C990 1.261 . S
C995 C994 1.312 . S
C996 O968 1.214 . S
C996 O976 1.234 1_545 S
C997 H969 0.929 . S
C997 C1000 1.391 . S
C997 C1002 1.391 . S
C998 H970 0.929 . S
C998 C999 1.390 . S
C998 N1001 1.391 . S
C999 H971 0.930 . S
C999 C998 1.390 . S
C999 C1000 1.392 . S
C1000 H972 0.929 . S
C1000 C997 1.391 . S
C1000 C999 1.392 . S
N1001 Co945 2.257 . S
N1001 C998 1.391 . S
N1001 C1002 1.388 . S
C1002 H973 0.930 1_455 S
C1002 C997 1.391 . S
C1002 N1001 1.388 . S
Co1003 O1005 2.143 . S
Co1003 O1011 2.074 . S
Co1003 O1014 2.093 . S
Co1003 O1027 2.097 . S
Co1003 N1044 2.151 . S
Co1003 N1052 2.214 . S
Co1004 O1005 2.160 . S
Co1004 O1010 2.058 . S
Co1004 O1020 2.057 . S
Co1004 O1035 2.037 . S
Co1004 N1039 2.145 . S
Co1004 N1060 2.257 . S
O1005 Co1003 2.143 . S
O1005 Co1004 2.160 . S
C1006 O1007 1.278 . S
C1006 O1014 1.224 . S
O1007 C1006 1.278 . S
C1008 O1009 1.245 . S
C1008 O1020 1.232 . S
O1009 C1008 1.245 . S
O1010 Co1004 2.058 . S
O1010 C1036 1.269 . S
O1011 Co1003 2.074 . S
O1011 C1036 1.257 . S
H1012 C1037 0.930 . S
H1013 C1043 0.930 . S
O1014 Co1003 2.093 . S
O1014 C1006 1.224 . S
H1015 C1047 0.929 . S
H1016 C1049 0.930 . S
H1017 C1050 0.930 . S
H1018 C1048 0.929 . S
H1019 C1051 0.928 . S
O1020 Co1004 2.057 . S
O1020 C1008 1.232 . S
H1021 C1040 0.929 . S
H1022 C1041 0.929 . S
H1023 C1053 0.931 . S
H1024 C1045 0.929 . S
H1025 C1054 0.930 1_565 S
H1026 C1046 0.931 . S
O1027 Co1003 2.097 . S
O1027 C1055 1.214 . S
H1028 C1056 0.929 . S
H1029 C1057 0.929 . S
H1030 C1058 0.930 . S
H1031 C1059 0.929 . S
H1032 C1061 0.930 . S
H1033 C1038 0.930 . S
H1034 C1042 0.930 . S
O1035 Co1004 2.037 . S
O1035 C1055 1.234 . S
C1036 O1010 1.269 . S
C1036 O1011 1.257 . S
C1037 H1012 0.930 . S
C1037 C1040 1.388 . S
C1037 C1042 1.418 . S
C1038 H1033 0.930 . S
C1038 C1041 1.404 . S
C1038 C1042 1.353 . S
N1039 Co1004 2.145 . S
N1039 C1040 1.397 . S
N1039 C1041 1.334 . S
C1040 H1021 0.929 . S
C1040 C1037 1.388 . S
C1040 N1039 1.397 . S
C1041 H1022 0.929 . S
C1041 C1038 1.404 . S
C1041 N1039 1.334 . S
C1042 H1034 0.930 . S
C1042 C1037 1.418 . S
C1042 C1038 1.353 . S
C1043 H1013 0.930 . S
C1043 N1044 1.330 . S
C1043 C1045 1.446 . S
N1044 Co1003 2.151 . S
N1044 C1043 1.330 . S
N1044 C1048 1.418 . S
C1045 H1024 0.929 . S
C1045 C1043 1.446 . S
C1045 C1046 1.332 . S
C1046 H1026 0.931 . S
C1046 C1045 1.332 . S
C1046 C1047 1.267 . S
C1047 H1015 0.929 . S
C1047 C1046 1.267 . S
C1047 C1048 1.251 . S
C1048 H1018 0.929 . S
C1048 N1044 1.418 . S
C1048 C1047 1.251 . S
C1049 H1016 0.930 . S
C1049 C1051 1.406 . S
C1049 C1054 1.261 . S
C1050 H1017 0.930 . S
C1050 N1052 1.325 . S
C1050 C1053 1.357 . S
C1051 H1019 0.928 . S
C1051 C1049 1.406 . S
C1051 N1052 1.261 . S
N1052 Co1003 2.214 . S
N1052 C1050 1.325 . S
N1052 C1051 1.261 . S
C1053 H1023 0.931 . S
C1053 C1050 1.357 . S
C1053 C1054 1.312 . S
C1054 H1025 0.930 1_545 S
C1054 C1049 1.261 . S
C1054 C1053 1.312 . S
C1055 O1027 1.214 . S
C1055 O1035 1.234 . S
C1056 H1028 0.929 . S
C1056 C1059 1.391 . S
C1056 C1061 1.391 . S
C1057 H1029 0.929 . S
C1057 C1058 1.390 . S
C1057 N1060 1.391 . S
C1058 H1030 0.930 . S
C1058 C1057 1.390 . S
C1058 C1059 1.392 . S
C1059 H1031 0.929 . S
C1059 C1056 1.391 . S
C1059 C1058 1.392 . S
N1060 Co1004 2.257 . S
N1060 C1057 1.391 . S
N1060 C1061 1.388 . S
C1061 H1032 0.930 . S
C1061 C1056 1.391 . S
C1061 N1060 1.388 . S
Co1062 O1064 2.143 1_455 S
Co1062 O1070 2.074 . S
Co1062 O1073 2.093 . S
Co1062 O1086 2.097 . S
Co1062 N1103 2.151 1_455 S
Co1062 N1111 2.214 . S
Co1063 O1064 2.160 1_455 S
Co1063 O1069 2.058 1_455 S
Co1063 O1079 2.057 1_455 S
Co1063 O1094 2.037 . S
Co1063 N1098 2.145 . S
Co1063 N1119 2.257 . S
O1064 Co1062 2.143 1_655 S
O1064 Co1063 2.160 1_655 S
C1065 O1066 1.279 . S
C1065 O1073 1.224 . S
O1066 C1065 1.279 . S
C1067 O1068 1.245 . S
C1067 O1079 1.232 . S
O1068 C1067 1.245 . S
O1069 Co1063 2.058 1_655 S
O1069 C1095 1.269 . S
O1070 Co1062 2.074 . S
O1070 C1095 1.257 1_455 S
H1071 C1096 0.930 . S
H1072 C1102 0.930 . S
O1073 Co1062 2.093 . S
O1073 C1065 1.224 . S
H1074 C1106 0.929 . S
H1075 C1108 0.923 1_565 S
H1076 C1109 0.930 . S
H1077 C1107 0.929 . S
H1078 C1110 0.928 . S
O1079 Co1063 2.057 1_655 S
O1079 C1067 1.232 . S
H1080 C1099 0.929 . S
H1081 C1100 0.914 1_655 S
H1082 C1112 0.931 . S
H1083 C1104 0.929 . S
H1084 C1113 0.930 . S
H1085 C1105 0.931 . S
O1086 Co1062 2.097 . S
O1086 C1114 1.214 . S
H1087 C1115 0.929 1_655 S
H1088 C1116 0.929 . S
H1089 C1117 0.930 . S
H1090 C1118 0.929 . S
H1091 C1120 0.928 1_655 S
H1092 C1097 0.930 1_655 S
H1093 C1101 0.930 . S
O1094 Co1063 2.037 . S
O1094 C1114 1.234 . S
C1095 O1069 1.269 . S
C1095 O1070 1.257 1_655 S
C1096 H1071 0.930 . S
C1096 C1099 1.388 . S
C1096 C1101 1.418 . S
C1097 H1092 0.930 1_455 S
C1097 C1100 1.409 . S
C1097 C1101 1.353 . S
N1098 Co1063 2.145 . S
N1098 C1099 1.397 . S
N1098 C1100 1.345 . S
C1099 H1080 0.929 . S
C1099 C1096 1.388 . S
C1099 N1098 1.397 . S
C1100 H1081 0.914 1_455 S
C1100 C1097 1.409 . S
C1100 N1098 1.345 . S
C1101 H1093 0.930 . S
C1101 C1096 1.418 . S
C1101 C1097 1.353 . S
C1102 H1072 0.930 . S
C1102 N1103 1.330 . S
C1102 C1104 1.446 . S
N1103 Co1062 2.151 1_655 S
N1103 C1102 1.330 . S
N1103 C1107 1.418 . S
C1104 H1083 0.929 . S
C1104 C1102 1.446 . S
C1104 C1105 1.332 . S
C1105 H1085 0.931 . S
C1105 C1104 1.332 . S
C1105 C1106 1.267 . S
C1106 H1074 0.929 . S
C1106 C1105 1.267 . S
C1106 C1107 1.251 . S
C1107 H1077 0.929 . S
C1107 N1103 1.418 . S
C1107 C1106 1.251 . S
C1108 H1075 0.923 1_545 S
C1108 C1110 1.414 . S
C1108 C1113 1.259 1_545 S
C1109 H1076 0.930 . S
C1109 N1111 1.325 . S
C1109 C1112 1.357 . S
C1110 H1078 0.928 . S
C1110 C1108 1.414 . S
C1110 N1111 1.261 . S
N1111 Co1062 2.214 . S
N1111 C1109 1.325 . S
N1111 C1110 1.261 . S
C1112 H1082 0.931 . S
C1112 C1109 1.357 . S
C1112 C1113 1.312 1_545 S
C1113 H1084 0.930 . S
C1113 C1108 1.259 1_565 S
C1113 C1112 1.312 1_565 S
C1114 O1086 1.214 . S
C1114 O1094 1.234 . S
C1115 H1087 0.929 1_455 S
C1115 C1118 1.391 . S
C1115 C1120 1.392 . S
C1116 H1088 0.929 . S
C1116 C1117 1.390 . S
C1116 N1119 1.391 . S
C1117 H1089 0.930 . S
C1117 C1116 1.390 . S
C1117 C1118 1.392 . S
C1118 H1090 0.929 . S
C1118 C1115 1.391 . S
C1118 C1117 1.392 . S
N1119 Co1063 2.257 . S
N1119 C1116 1.391 . S
N1119 C1120 1.390 . S
C1120 H1091 0.928 1_455 S
C1120 C1115 1.392 . S
C1120 N1119 1.390 . S
Co1121 O1123 2.143 1_545 S
Co1121 O1129 2.074 . S
Co1121 O1132 2.093 . S
Co1121 O1145 2.097 . S
Co1121 N1162 2.151 . S
Co1121 N1170 2.214 . S
Co1122 O1123 2.160 . S
Co1122 O1128 2.058 1_565 S
Co1122 O1138 2.057 . S
Co1122 O1153 2.037 . S
Co1122 N1157 2.145 . S
Co1122 N1178 2.257 . S
O1123 Co1121 2.143 1_565 S
O1123 Co1122 2.160 . S
C1124 O1125 1.278 1_545 S
C1124 O1132 1.224 . S
O1125 C1124 1.278 1_565 S
C1126 O1127 1.245 . S
C1126 O1138 1.232 . S
O1127 C1126 1.245 . S
O1128 Co1122 2.058 1_545 S
O1128 C1154 1.269 . S
O1129 Co1121 2.074 . S
O1129 C1154 1.257 . S
H1130 C1155 0.930 . S
H1131 C1161 0.930 . S
O1132 Co1121 2.093 . S
O1132 C1124 1.224 . S
H1133 C1165 0.929 . S
H1134 C1167 0.930 . S
H1135 C1168 0.930 . S
H1136 C1166 0.929 . S
H1137 C1169 0.928 . S
O1138 Co1122 2.057 . S
O1138 C1126 1.232 . S
H1139 C1158 0.929 . S
H1140 C1159 0.929 . S
H1141 C1171 0.931 . S
H1142 C1163 0.929 . S
H1143 C1172 0.930 . S
H1144 C1164 0.931 . S
O1145 Co1121 2.097 . S
O1145 C1173 1.214 . S
H1146 C1174 0.929 . S
H1147 C1175 0.929 . S
H1148 C1176 0.930 . S
H1149 C1177 0.929 . S
H1150 C1179 0.930 . S
H1151 C1156 0.930 . S
H1152 C1160 0.930 . S
O1153 Co1122 2.037 . S
O1153 C1173 1.234 1_565 S
C1154 O1128 1.269 . S
C1154 O1129 1.257 . S
C1155 H1130 0.930 . S
C1155 C1158 1.388 . S
C1155 C1160 1.418 . S
C1156 H1151 0.930 . S
C1156 C1159 1.404 . S
C1156 C1160 1.353 . S
N1157 Co1122 2.145 . S
N1157 C1158 1.397 . S
N1157 C1159 1.334 . S
C1158 H1139 0.929 . S
C1158 C1155 1.388 . S
C1158 N1157 1.397 . S
C1159 H1140 0.929 . S
C1159 C1156 1.404 . S
C1159 N1157 1.334 . S
C1160 H1152 0.930 . S
C1160 C1155 1.418 . S
C1160 C1156 1.353 . S
C1161 H1131 0.930 . S
C1161 N1162 1.330 . S
C1161 C1163 1.446 . S
N1162 Co1121 2.151 . S
N1162 C1161 1.330 . S
N1162 C1166 1.418 . S
C1163 H1142 0.929 . S
C1163 C1161 1.446 . S
C1163 C1164 1.332 . S
C1164 H1144 0.931 . S
C1164 C1163 1.332 . S
C1164 C1165 1.267 . S
C1165 H1133 0.929 . S
C1165 C1164 1.267 . S
C1165 C1166 1.251 . S
C1166 H1136 0.929 . S
C1166 N1162 1.418 . S
C1166 C1165 1.251 . S
C1167 H1134 0.930 . S
C1167 C1169 1.406 . S
C1167 C1172 1.261 . S
C1168 H1135 0.930 . S
C1168 N1170 1.325 . S
C1168 C1171 1.357 . S
C1169 H1137 0.928 . S
C1169 C1167 1.406 . S
C1169 N1170 1.261 . S
N1170 Co1121 2.214 . S
N1170 C1168 1.325 . S
N1170 C1169 1.261 . S
C1171 H1141 0.931 . S
C1171 C1168 1.357 . S
C1171 C1172 1.312 . S
C1172 H1143 0.930 . S
C1172 C1167 1.261 . S
C1172 C1171 1.312 . S
C1173 O1145 1.214 . S
C1173 O1153 1.234 1_545 S
C1174 H1146 0.929 . S
C1174 C1177 1.391 . S
C1174 C1179 1.391 . S
C1175 H1147 0.929 . S
C1175 C1176 1.390 . S
C1175 N1178 1.391 . S
C1176 H1148 0.930 . S
C1176 C1175 1.390 . S
C1176 C1177 1.392 . S
C1177 H1149 0.929 . S
C1177 C1174 1.391 . S
C1177 C1176 1.392 . S
N1178 Co1122 2.257 . S
N1178 C1175 1.391 . S
N1178 C1179 1.388 . S
C1179 H1150 0.930 . S
C1179 C1174 1.391 . S
C1179 N1178 1.388 . S
Co1180 O1182 2.143 1_665 S
Co1180 O1188 2.074 . S
Co1180 O1191 2.093 . S
Co1180 O1204 2.097 . S
Co1180 N1221 2.151 1_655 S
Co1180 N1229 2.214 . S
Co1181 O1182 2.160 1_655 S
Co1181 O1187 2.058 1_645 S
Co1181 O1197 2.057 1_655 S
Co1181 O1212 2.037 . S
Co1181 N1216 2.145 . S
Co1181 N1237 2.257 . S
O1182 Co1180 2.143 1_445 S
O1182 Co1181 2.160 1_455 S
C1183 O1184 1.279 1_565 S
C1183 O1191 1.224 . S
O1184 C1183 1.279 1_545 S
C1185 O1186 1.245 . S
C1185 O1197 1.232 . S
O1186 C1185 1.245 . S
O1187 Co1181 2.058 1_465 S
O1187 C1213 1.269 . S
O1188 Co1180 2.074 . S
O1188 C1213 1.257 1_655 S
H1189 C1214 0.930 . S
H1190 C1220 0.930 . S
O1191 Co1180 2.093 . S
O1191 C1183 1.224 . S
H1192 C1224 0.929 . S
H1193 C1226 0.930 . S
H1194 C1227 0.930 . S
H1195 C1225 0.929 . S
H1196 C1228 0.928 . S
O1197 Co1181 2.057 1_455 S
O1197 C1185 1.232 . S
H1198 C1217 0.929 . S
H1199 C1218 0.929 1_455 S
H1200 C1230 0.931 . S
H1201 C1222 0.929 . S
H1202 C1231 0.930 . S
H1203 C1223 0.931 . S
O1204 Co1180 2.097 . S
O1204 C1232 1.214 . S
H1205 C1233 0.929 . S
H1206 C1234 0.929 . S
H1207 C1235 0.930 . S
H1208 C1236 0.929 . S
H1209 C1238 0.930 1_455 S
H1210 C1215 0.933 . S
H1211 C1219 0.930 . S
O1212 Co1181 2.037 . S
O1212 C1232 1.234 1_545 S
C1213 O1187 1.269 . S
C1213 O1188 1.257 1_455 S
C1214 H1189 0.930 . S
C1214 C1217 1.388 . S
C1214 C1219 1.418 . S
C1215 H1210 0.933 . S
C1215 C1218 1.404 . S
C1215 C1219 1.353 . S
N1216 Co1181 2.145 . S
N1216 C1217 1.397 . S
N1216 C1218 1.334 . S
C1217 H1198 0.929 . S
C1217 C1214 1.388 . S
C1217 N1216 1.397 . S
C1218 H1199 0.929 1_655 S
C1218 C1215 1.404 . S
C1218 N1216 1.334 . S
C1219 H1211 0.930 . S
C1219 C1214 1.418 . S
C1219 C1215 1.353 . S
C1220 H1190 0.930 . S
C1220 N1221 1.330 . S
C1220 C1222 1.446 . S
N1221 Co1180 2.151 1_455 S
N1221 C1220 1.330 . S
N1221 C1225 1.418 . S
C1222 H1201 0.929 . S
C1222 C1220 1.446 . S
C1222 C1223 1.332 . S
C1223 H1203 0.931 . S
C1223 C1222 1.332 . S
C1223 C1224 1.267 . S
C1224 H1192 0.929 . S
C1224 C1223 1.267 . S
C1224 C1225 1.251 . S
C1225 H1195 0.929 . S
C1225 N1221 1.418 . S
C1225 C1224 1.251 . S
C1226 H1193 0.930 . S
C1226 C1228 1.406 . S
C1226 C1231 1.261 . S
C1227 H1194 0.930 . S
C1227 N1229 1.325 . S
C1227 C1230 1.357 . S
C1228 H1196 0.928 . S
C1228 C1226 1.406 . S
C1228 N1229 1.261 . S
N1229 Co1180 2.214 . S
N1229 C1227 1.325 . S
N1229 C1228 1.261 . S
C1230 H1200 0.931 . S
C1230 C1227 1.357 . S
C1230 C1231 1.312 . S
C1231 H1202 0.930 . S
C1231 C1226 1.261 . S
C1231 C1230 1.312 . S
C1232 O1204 1.214 . S
C1232 O1212 1.234 1_565 S
C1233 H1205 0.929 . S
C1233 C1236 1.391 . S
C1233 C1238 1.391 . S
C1234 H1206 0.929 . S
C1234 C1235 1.390 . S
C1234 N1237 1.391 . S
C1235 H1207 0.930 . S
C1235 C1234 1.390 . S
C1235 C1236 1.392 . S
C1236 H1208 0.929 . S
C1236 C1233 1.391 . S
C1236 C1235 1.392 . S
N1237 Co1181 2.257 . S
N1237 C1234 1.391 . S
N1237 C1238 1.388 . S
C1238 H1209 0.930 1_655 S
C1238 C1233 1.391 . S
C1238 N1237 1.388 . S
Co1239 O1241 2.143 . S
Co1239 O1247 2.074 . S
Co1239 O1250 2.093 . S
Co1239 O1263 2.097 . S
Co1239 N1280 2.151 . S
Co1239 N1288 2.214 . S
Co1240 O1241 2.160 . S
Co1240 O1246 2.058 . S
Co1240 O1256 2.057 . S
Co1240 O1271 2.037 . S
Co1240 N1275 2.145 . S
Co1240 N1296 2.257 . S
O1241 Co1239 2.143 . S
O1241 Co1240 2.160 . S
C1242 O1243 1.278 . S
C1242 O1250 1.224 . S
O1243 C1242 1.278 . S
C1244 O1245 1.245 . S
C1244 O1256 1.232 . S
O1245 C1244 1.245 . S
O1246 Co1240 2.058 . S
O1246 C1272 1.269 . S
O1247 Co1239 2.074 . S
O1247 C1272 1.257 . S
H1248 C1273 0.930 . S
H1249 C1279 0.930 . S
O1250 Co1239 2.093 . S
O1250 C1242 1.224 . S
H1251 C1283 0.929 . S
H1252 C1285 0.930 . S
H1253 C1286 0.930 . S
H1254 C1284 0.929 . S
H1255 C1287 0.928 . S
O1256 Co1240 2.057 . S
O1256 C1244 1.232 . S
H1257 C1276 0.929 . S
H1258 C1277 0.929 . S
H1259 C1289 0.931 . S
H1260 C1281 0.929 . S
H1261 C1290 0.930 1_545 S
H1262 C1282 0.931 . S
O1263 Co1239 2.097 . S
O1263 C1291 1.214 . S
H1264 C1292 0.929 . S
H1265 C1293 0.929 . S
H1266 C1294 0.930 . S
H1267 C1295 0.929 . S
H1268 C1297 0.930 . S
H1269 C1274 0.930 . S
H1270 C1278 0.930 . S
O1271 Co1240 2.037 . S
O1271 C1291 1.234 . S
C1272 O1246 1.269 . S
C1272 O1247 1.257 . S
C1273 H1248 0.930 . S
C1273 C1276 1.388 . S
C1273 C1278 1.418 . S
C1274 H1269 0.930 . S
C1274 C1277 1.404 . S
C1274 C1278 1.353 . S
N1275 Co1240 2.145 . S
N1275 C1276 1.397 . S
N1275 C1277 1.334 . S
C1276 H1257 0.929 . S
C1276 C1273 1.388 . S
C1276 N1275 1.397 . S
C1277 H1258 0.929 . S
C1277 C1274 1.404 . S
C1277 N1275 1.334 . S
C1278 H1270 0.930 . S
C1278 C1273 1.418 . S
C1278 C1274 1.353 . S
C1279 H1249 0.930 . S
C1279 N1280 1.330 . S
C1279 C1281 1.446 . S
N1280 Co1239 2.151 . S
N1280 C1279 1.330 . S
N1280 C1284 1.418 . S
C1281 H1260 0.929 . S
C1281 C1279 1.446 . S
C1281 C1282 1.332 . S
C1282 H1262 0.931 . S
C1282 C1281 1.332 . S
C1282 C1283 1.267 . S
C1283 H1251 0.929 . S
C1283 C1282 1.267 . S
C1283 C1284 1.251 . S
C1284 H1254 0.929 . S
C1284 N1280 1.418 . S
C1284 C1283 1.251 . S
C1285 H1252 0.930 . S
C1285 C1287 1.406 . S
C1285 C1290 1.261 . S
C1286 H1253 0.930 . S
C1286 N1288 1.325 . S
C1286 C1289 1.357 . S
C1287 H1255 0.928 . S
C1287 C1285 1.406 . S
C1287 N1288 1.261 . S
N1288 Co1239 2.214 . S
N1288 C1286 1.325 . S
N1288 C1287 1.261 . S
C1289 H1259 0.931 . S
C1289 C1286 1.357 . S
C1289 C1290 1.312 . S
C1290 H1261 0.930 1_565 S
C1290 C1285 1.261 . S
C1290 C1289 1.312 . S
C1291 O1263 1.214 . S
C1291 O1271 1.234 . S
C1292 H1264 0.929 . S
C1292 C1295 1.391 . S
C1292 C1297 1.391 . S
C1293 H1265 0.929 . S
C1293 C1294 1.390 . S
C1293 N1296 1.391 . S
C1294 H1266 0.930 . S
C1294 C1293 1.390 . S
C1294 C1295 1.392 . S
C1295 H1267 0.929 . S
C1295 C1292 1.391 . S
C1295 C1294 1.392 . S
N1296 Co1240 2.257 . S
N1296 C1293 1.391 . S
N1296 C1297 1.388 . S
C1297 H1268 0.930 . S
C1297 C1292 1.391 . S
C1297 N1296 1.388 . S
Co1298 O1300 2.143 1_655 S
Co1298 O1306 2.074 . S
Co1298 O1309 2.093 . S
Co1298 O1322 2.097 . S
Co1298 N1339 2.151 1_655 S
Co1298 N1347 2.214 . S
Co1299 O1300 2.160 1_655 S
Co1299 O1305 2.058 1_655 S
Co1299 O1315 2.057 1_655 S
Co1299 O1330 2.037 . S
Co1299 N1334 2.145 . S
Co1299 N1355 2.257 . S
O1300 Co1298 2.143 1_455 S
O1300 Co1299 2.160 1_455 S
C1301 O1302 1.279 . S
C1301 O1309 1.224 . S
O1302 C1301 1.279 . S
C1303 O1304 1.245 . S
C1303 O1315 1.232 . S
O1304 C1303 1.245 . S
O1305 Co1299 2.058 1_455 S
O1305 C1331 1.269 . S
O1306 Co1298 2.074 . S
O1306 C1331 1.257 1_655 S
H1307 C1332 0.930 . S
H1308 C1338 0.930 . S
O1309 Co1298 2.093 . S
O1309 C1301 1.224 . S
H1310 C1342 0.929 . S
H1311 C1344 0.923 1_545 S
H1312 C1345 0.930 . S
H1313 C1343 0.929 . S
H1314 C1346 0.928 . S
O1315 Co1299 2.057 1_455 S
O1315 C1303 1.232 . S
H1316 C1335 0.929 . S
H1317 C1336 0.914 1_455 S
H1318 C1348 0.931 . S
H1319 C1340 0.929 . S
H1320 C1349 0.930 . S
H1321 C1341 0.931 . S
O1322 Co1298 2.097 . S
O1322 C1350 1.214 . S
H1323 C1351 0.929 1_455 S
H1324 C1352 0.929 . S
H1325 C1353 0.930 . S
H1326 C1354 0.929 . S
H1327 C1356 0.928 1_455 S
H1328 C1333 0.930 1_455 S
H1329 C1337 0.930 . S
O1330 Co1299 2.037 . S
O1330 C1350 1.234 . S
C1331 O1305 1.269 . S
C1331 O1306 1.257 1_455 S
C1332 H1307 0.930 . S
C1332 C1335 1.388 . S
C1332 C1337 1.418 . S
C1333 H1328 0.930 1_655 S
C1333 C1336 1.409 . S
C1333 C1337 1.353 . S
N1334 Co1299 2.145 . S
N1334 C1335 1.397 . S
N1334 C1336 1.345 . S
C1335 H1316 0.929 . S
C1335 C1332 1.388 . S
C1335 N1334 1.397 . S
C1336 H1317 0.914 1_655 S
C1336 C1333 1.409 . S
C1336 N1334 1.345 . S
C1337 H1329 0.930 . S
C1337 C1332 1.418 . S
C1337 C1333 1.353 . S
C1338 H1308 0.930 . S
C1338 N1339 1.330 . S
C1338 C1340 1.446 . S
N1339 Co1298 2.151 1_455 S
N1339 C1338 1.330 . S
N1339 C1343 1.418 . S
C1340 H1319 0.929 . S
C1340 C1338 1.446 . S
C1340 C1341 1.332 . S
C1341 H1321 0.931 . S
C1341 C1340 1.332 . S
C1341 C1342 1.267 . S
C1342 H1310 0.929 . S
C1342 C1341 1.267 . S
C1342 C1343 1.251 . S
C1343 H1313 0.929 . S
C1343 N1339 1.418 . S
C1343 C1342 1.251 . S
C1344 H1311 0.923 1_565 S
C1344 C1346 1.414 . S
C1344 C1349 1.259 1_565 S
C1345 H1312 0.930 . S
C1345 N1347 1.325 . S
C1345 C1348 1.357 . S
C1346 H1314 0.928 . S
C1346 C1344 1.414 . S
C1346 N1347 1.261 . S
N1347 Co1298 2.214 . S
N1347 C1345 1.325 . S
N1347 C1346 1.261 . S
C1348 H1318 0.931 . S
C1348 C1345 1.357 . S
C1348 C1349 1.312 1_565 S
C1349 H1320 0.930 . S
C1349 C1344 1.259 1_545 S
C1349 C1348 1.312 1_545 S
C1350 O1322 1.214 . S
C1350 O1330 1.234 . S
C1351 H1323 0.929 1_655 S
C1351 C1354 1.391 . S
C1351 C1356 1.392 . S
C1352 H1324 0.929 . S
C1352 C1353 1.390 . S
C1352 N1355 1.391 . S
C1353 H1325 0.930 . S
C1353 C1352 1.390 . S
C1353 C1354 1.392 . S
C1354 H1326 0.929 . S
C1354 C1351 1.391 . S
C1354 C1353 1.392 . S
N1355 Co1299 2.257 . S
N1355 C1352 1.391 . S
N1355 C1356 1.390 . S
C1356 H1327 0.928 1_655 S
C1356 C1351 1.392 . S
C1356 N1355 1.390 . S
Co1357 O1359 2.143 1_565 S
Co1357 O1365 2.074 . S
Co1357 O1368 2.093 . S
Co1357 O1381 2.097 . S
Co1357 N1398 2.151 . S
Co1357 N1406 2.214 . S
Co1358 O1359 2.160 . S
Co1358 O1364 2.058 1_545 S
Co1358 O1374 2.057 . S
Co1358 O1389 2.037 . S
Co1358 N1393 2.145 . S
Co1358 N1414 2.257 . S
O1359 Co1357 2.143 1_545 S
O1359 Co1358 2.160 . S
C1360 O1361 1.278 1_565 S
C1360 O1368 1.224 . S
O1361 C1360 1.278 1_545 S
C1362 O1363 1.245 . S
C1362 O1374 1.232 . S
O1363 C1362 1.245 . S
O1364 Co1358 2.058 1_565 S
O1364 C1390 1.269 . S
O1365 Co1357 2.074 . S
O1365 C1390 1.257 . S
H1366 C1391 0.930 . S
H1367 C1397 0.930 . S
O1368 Co1357 2.093 . S
O1368 C1360 1.224 . S
H1369 C1401 0.929 . S
H1370 C1403 0.930 . S
H1371 C1404 0.930 . S
H1372 C1402 0.929 . S
H1373 C1405 0.928 . S
O1374 Co1358 2.057 . S
O1374 C1362 1.232 . S
H1375 C1394 0.929 . S
H1376 C1395 0.929 . S
H1377 C1407 0.931 . S
H1378 C1399 0.929 . S
H1379 C1408 0.930 . S
H1380 C1400 0.931 . S
O1381 Co1357 2.097 . S
O1381 C1409 1.214 . S
H1382 C1410 0.929 . S
H1383 C1411 0.929 . S
H1384 C1412 0.930 . S
H1385 C1413 0.929 . S
H1386 C1415 0.930 . S
H1387 C1392 0.930 . S
H1388 C1396 0.930 . S
O1389 Co1358 2.037 . S
O1389 C1409 1.234 1_545 S
C1390 O1364 1.269 . S
C1390 O1365 1.257 . S
C1391 H1366 0.930 . S
C1391 C1394 1.388 . S
C1391 C1396 1.418 . S
C1392 H1387 0.930 . S
C1392 C1395 1.404 . S
C1392 C1396 1.353 . S
N1393 Co1358 2.145 . S
N1393 C1394 1.397 . S
N1393 C1395 1.334 . S
C1394 H1375 0.929 . S
C1394 C1391 1.388 . S
C1394 N1393 1.397 . S
C1395 H1376 0.929 . S
C1395 C1392 1.404 . S
C1395 N1393 1.334 . S
C1396 H1388 0.930 . S
C1396 C1391 1.418 . S
C1396 C1392 1.353 . S
C1397 H1367 0.930 . S
C1397 N1398 1.330 . S
C1397 C1399 1.446 . S
N1398 Co1357 2.151 . S
N1398 C1397 1.330 . S
N1398 C1402 1.418 . S
C1399 H1378 0.929 . S
C1399 C1397 1.446 . S
C1399 C1400 1.332 . S
C1400 H1380 0.931 . S
C1400 C1399 1.332 . S
C1400 C1401 1.267 . S
C1401 H1369 0.929 . S
C1401 C1400 1.267 . S
C1401 C1402 1.251 . S
C1402 H1372 0.929 . S
C1402 N1398 1.418 . S
C1402 C1401 1.251 . S
C1403 H1370 0.930 . S
C1403 C1405 1.406 . S
C1403 C1408 1.261 . S
C1404 H1371 0.930 . S
C1404 N1406 1.325 . S
C1404 C1407 1.357 . S
C1405 H1373 0.928 . S
C1405 C1403 1.406 . S
C1405 N1406 1.261 . S
N1406 Co1357 2.214 . S
N1406 C1404 1.325 . S
N1406 C1405 1.261 . S
C1407 H1377 0.931 . S
C1407 C1404 1.357 . S
C1407 C1408 1.312 . S
C1408 H1379 0.930 . S
C1408 C1403 1.261 . S
C1408 C1407 1.312 . S
C1409 O1381 1.214 . S
C1409 O1389 1.234 1_565 S
C1410 H1382 0.929 . S
C1410 C1413 1.391 . S
C1410 C1415 1.391 . S
C1411 H1383 0.929 . S
C1411 C1412 1.390 . S
C1411 N1414 1.391 . S
C1412 H1384 0.930 . S
C1412 C1411 1.390 . S
C1412 C1413 1.392 . S
C1413 H1385 0.929 . S
C1413 C1410 1.391 . S
C1413 C1412 1.392 . S
N1414 Co1358 2.257 . S
N1414 C1411 1.391 . S
N1414 C1415 1.388 . S
C1415 H1386 0.930 . S
C1415 C1410 1.391 . S
C1415 N1414 1.388 . S
Co1416 O1418 2.143 1_455 S
Co1416 O1424 2.074 . S
Co1416 O1427 2.093 . S
Co1416 O1440 2.097 . S
Co1416 N1457 2.151 1_455 S
Co1416 N1465 2.214 . S
Co1417 O1418 2.160 1_455 S
Co1417 O1423 2.058 1_455 S
Co1417 O1433 2.057 1_455 S
Co1417 O1448 2.037 . S
Co1417 N1452 2.145 . S
Co1417 N1473 2.257 . S
O1418 Co1416 2.143 1_655 S
O1418 Co1417 2.160 1_655 S
C1419 O1420 1.279 . S
C1419 O1427 1.224 . S
O1420 C1419 1.279 . S
C1421 O1422 1.245 . S
C1421 O1433 1.232 . S
O1422 C1421 1.245 . S
O1423 Co1417 2.058 1_655 S
O1423 C1449 1.269 . S
O1424 Co1416 2.074 . S
O1424 C1449 1.257 1_455 S
H1425 C1450 0.930 . S
H1426 C1456 0.930 . S
O1427 Co1416 2.093 . S
O1427 C1419 1.224 . S
H1428 C1460 0.929 . S
H1429 C1462 0.930 . S
H1430 C1463 0.930 . S
H1431 C1461 0.929 . S
H1432 C1464 0.928 . S
O1433 Co1417 2.057 1_655 S
O1433 C1421 1.232 . S
H1434 C1453 0.929 . S
H1435 C1454 0.929 1_655 S
H1436 C1466 0.931 . S
H1437 C1458 0.929 . S
H1438 C1467 0.930 . S
H1439 C1459 0.931 . S
O1440 Co1416 2.097 . S
O1440 C1468 1.214 . S
H1441 C1469 0.924 1_655 S
H1442 C1470 0.929 . S
H1443 C1471 0.930 . S
H1444 C1472 0.929 . S
H1445 C1474 0.887 1_655 S
H1446 C1451 0.930 1_655 S
H1447 C1455 0.930 . S
O1448 Co1417 2.037 . S
O1448 C1468 1.234 . S
C1449 O1423 1.269 . S
C1449 O1424 1.257 1_655 S
C1450 H1425 0.930 . S
C1450 C1453 1.388 . S
C1450 C1455 1.418 . S
C1451 H1446 0.930 1_455 S
C1451 C1454 1.404 . S
C1451 C1455 1.353 . S
N1452 Co1417 2.145 . S
N1452 C1453 1.397 . S
N1452 C1454 1.334 . S
C1453 H1434 0.929 . S
C1453 C1450 1.388 . S
C1453 N1452 1.397 . S
C1454 H1435 0.929 1_455 S
C1454 C1451 1.404 . S
C1454 N1452 1.334 . S
C1455 H1447 0.930 . S
C1455 C1450 1.418 . S
C1455 C1451 1.353 . S
C1456 H1426 0.930 . S
C1456 N1457 1.330 . S
C1456 C1458 1.446 . S
N1457 Co1416 2.151 1_655 S
N1457 C1456 1.330 . S
N1457 C1461 1.418 . S
C1458 H1437 0.929 . S
C1458 C1456 1.446 . S
C1458 C1459 1.332 . S
C1459 H1439 0.931 . S
C1459 C1458 1.332 . S
C1459 C1460 1.267 . S
C1460 H1428 0.929 . S
C1460 C1459 1.267 . S
C1460 C1461 1.251 . S
C1461 H1431 0.929 . S
C1461 N1457 1.418 . S
C1461 C1460 1.251 . S
C1462 H1429 0.930 . S
C1462 C1464 1.406 . S
C1462 C1467 1.261 . S
C1463 H1430 0.930 . S
C1463 N1465 1.325 . S
C1463 C1466 1.357 . S
C1464 H1432 0.928 . S
C1464 C1462 1.406 . S
C1464 N1465 1.261 . S
N1465 Co1416 2.214 . S
N1465 C1463 1.325 . S
N1465 C1464 1.261 . S
C1466 H1436 0.931 . S
C1466 C1463 1.357 . S
C1466 C1467 1.312 . S
C1467 H1438 0.930 . S
C1467 C1462 1.261 . S
C1467 C1466 1.312 . S
C1468 O1440 1.214 . S
C1468 O1448 1.234 . S
C1469 H1441 0.924 1_455 S
C1469 C1472 1.391 . S
C1469 C1474 1.408 . S
C1470 H1442 0.929 . S
C1470 C1471 1.390 . S
C1470 N1473 1.391 . S
C1471 H1443 0.930 . S
C1471 C1470 1.390 . S
C1471 C1472 1.392 . S
C1472 H1444 0.929 . S
C1472 C1469 1.391 . S
C1472 C1471 1.392 . S
N1473 Co1417 2.257 . S
N1473 C1470 1.391 . S
N1473 C1474 1.416 . S
C1474 H1445 0.887 1_455 S
C1474 C1469 1.408 . S
C1474 N1473 1.416 . S
Co1475 O1477 2.143 . S
Co1475 O1483 2.074 . S
Co1475 O1486 2.093 . S
Co1475 O1499 2.097 . S
Co1475 N1516 2.151 . S
Co1475 N1524 2.214 . S
Co1476 O1477 2.160 . S
Co1476 O1482 2.058 . S
Co1476 O1492 2.057 . S
Co1476 O1507 2.037 . S
Co1476 N1511 2.145 . S
Co1476 N1532 2.257 . S
O1477 Co1475 2.143 . S
O1477 Co1476 2.160 . S
C1478 O1479 1.278 . S
C1478 O1486 1.224 . S
O1479 C1478 1.278 . S
C1480 O1481 1.245 . S
C1480 O1492 1.232 . S
O1481 C1480 1.245 . S
O1482 Co1476 2.058 . S
O1482 C1508 1.269 . S
O1483 Co1475 2.074 . S
O1483 C1508 1.257 . S
H1484 C1509 0.930 . S
H1485 C1515 0.930 . S
O1486 Co1475 2.093 . S
O1486 C1478 1.224 . S
H1487 C1519 0.929 . S
H1488 C1521 0.930 . S
H1489 C1522 0.930 . S
H1490 C1520 0.929 . S
H1491 C1523 0.928 . S
O1492 Co1476 2.057 . S
O1492 C1480 1.232 . S
H1493 C1512 0.929 . S
H1494 C1513 0.929 . S
H1495 C1525 0.931 . S
H1496 C1517 0.929 . S
H1497 C1526 0.930 . S
H1498 C1518 0.931 . S
O1499 Co1475 2.097 . S
O1499 C1527 1.214 . S
H1500 C1528 0.929 . S
H1501 C1529 0.929 . S
H1502 C1530 0.930 . S
H1503 C1531 0.929 1_545 S
H1504 C1533 0.930 . S
H1505 C1510 0.930 1_545 S
H1506 C1514 0.930 1_545 S
O1507 Co1476 2.037 . S
O1507 C1527 1.234 . S
C1508 O1482 1.269 . S
C1508 O1483 1.257 . S
C1509 H1484 0.930 . S
C1509 C1512 1.388 . S
C1509 C1514 1.418 . S
C1510 H1505 0.930 1_565 S
C1510 C1513 1.404 . S
C1510 C1514 1.353 . S
N1511 Co1476 2.145 . S
N1511 C1512 1.397 . S
N1511 C1513 1.334 . S
C1512 H1493 0.929 . S
C1512 C1509 1.388 . S
C1512 N1511 1.397 . S
C1513 H1494 0.929 . S
C1513 C1510 1.404 . S
C1513 N1511 1.334 . S
C1514 H1506 0.930 1_565 S
C1514 C1509 1.418 . S
C1514 C1510 1.353 . S
C1515 H1485 0.930 . S
C1515 N1516 1.330 . S
C1515 C1517 1.446 . S
N1516 Co1475 2.151 . S
N1516 C1515 1.330 . S
N1516 C1520 1.418 . S
C1517 H1496 0.929 . S
C1517 C1515 1.446 . S
C1517 C1518 1.332 . S
C1518 H1498 0.931 . S
C1518 C1517 1.332 . S
C1518 C1519 1.267 . S
C1519 H1487 0.929 . S
C1519 C1518 1.267 . S
C1519 C1520 1.251 . S
C1520 H1490 0.929 . S
C1520 N1516 1.418 . S
C1520 C1519 1.251 . S
C1521 H1488 0.930 . S
C1521 C1523 1.406 . S
C1521 C1526 1.261 . S
C1522 H1489 0.930 . S
C1522 N1524 1.325 . S
C1522 C1525 1.357 . S
C1523 H1491 0.928 . S
C1523 C1521 1.406 . S
C1523 N1524 1.261 . S
N1524 Co1475 2.214 . S
N1524 C1522 1.325 . S
N1524 C1523 1.261 . S
C1525 H1495 0.931 . S
C1525 C1522 1.357 . S
C1525 C1526 1.312 . S
C1526 H1497 0.930 . S
C1526 C1521 1.261 . S
C1526 C1525 1.312 . S
C1527 O1499 1.214 . S
C1527 O1507 1.234 . S
C1528 H1500 0.929 . S
C1528 C1531 1.391 . S
C1528 C1533 1.391 . S
C1529 H1501 0.929 . S
C1529 C1530 1.390 . S
C1529 N1532 1.391 . S
C1530 H1502 0.930 . S
C1530 C1529 1.390 . S
C1530 C1531 1.392 . S
C1531 H1503 0.929 1_565 S
C1531 C1528 1.391 . S
C1531 C1530 1.392 . S
N1532 Co1476 2.257 . S
N1532 C1529 1.391 . S
N1532 C1533 1.388 . S
C1533 H1504 0.930 . S
C1533 C1528 1.391 . S
C1533 N1532 1.388 . S
Co1534 O1536 2.143 1_455 S
Co1534 O1542 2.074 . S
Co1534 O1545 2.093 . S
Co1534 O1558 2.097 . S
Co1534 N1575 2.151 1_455 S
Co1534 N1583 2.214 . S
Co1535 O1536 2.160 1_455 S
Co1535 O1541 2.058 1_455 S
Co1535 O1551 2.057 1_455 S
Co1535 O1566 2.037 . S
Co1535 N1570 2.145 . S
Co1535 N1591 2.257 . S
O1536 Co1534 2.143 1_655 S
O1536 Co1535 2.160 1_655 S
C1537 O1538 1.279 . S
C1537 O1545 1.224 . S
O1538 C1537 1.279 . S
C1539 O1540 1.245 . S
C1539 O1551 1.232 . S
O1540 C1539 1.245 . S
O1541 Co1535 2.058 1_655 S
O1541 C1567 1.269 . S
O1542 Co1534 2.074 . S
O1542 C1567 1.257 1_455 S
H1543 C1568 0.930 . S
H1544 C1574 0.930 . S
O1545 Co1534 2.093 . S
O1545 C1537 1.224 . S
H1546 C1578 0.929 . S
H1547 C1580 0.930 . S
H1548 C1581 0.930 . S
H1549 C1579 0.929 . S
H1550 C1582 0.928 . S
O1551 Co1535 2.057 1_655 S
O1551 C1539 1.232 . S
H1552 C1571 0.929 . S
H1553 C1572 0.929 1_655 S
H1554 C1584 0.931 . S
H1555 C1576 0.929 . S
H1556 C1585 0.930 . S
H1557 C1577 0.931 . S
O1558 Co1534 2.097 . S
O1558 C1586 1.214 . S
H1559 C1587 0.937 . S
H1560 C1588 0.929 . S
H1561 C1589 0.930 . S
H1562 C1590 0.929 . S
H1563 C1592 0.930 1_655 S
H1564 C1569 0.930 1_655 S
H1565 C1573 0.930 . S
O1566 Co1535 2.037 . S
O1566 C1586 1.234 . S
C1567 O1541 1.269 . S
C1567 O1542 1.257 1_655 S
C1568 H1543 0.930 . S
C1568 C1571 1.388 . S
C1568 C1573 1.418 . S
C1569 H1564 0.930 1_455 S
C1569 C1572 1.404 . S
C1569 C1573 1.353 . S
N1570 Co1535 2.145 . S
N1570 C1571 1.397 . S
N1570 C1572 1.334 . S
C1571 H1552 0.929 . S
C1571 C1568 1.388 . S
C1571 N1570 1.397 . S
C1572 H1553 0.929 1_455 S
C1572 C1569 1.404 . S
C1572 N1570 1.334 . S
C1573 H1565 0.930 . S
C1573 C1568 1.418 . S
C1573 C1569 1.353 . S
C1574 H1544 0.930 . S
C1574 N1575 1.330 . S
C1574 C1576 1.446 . S
N1575 Co1534 2.151 1_655 S
N1575 C1574 1.330 . S
N1575 C1579 1.418 . S
C1576 H1555 0.929 . S
C1576 C1574 1.446 . S
C1576 C1577 1.332 . S
C1577 H1557 0.931 . S
C1577 C1576 1.332 . S
C1577 C1578 1.267 . S
C1578 H1546 0.929 . S
C1578 C1577 1.267 . S
C1578 C1579 1.251 . S
C1579 H1549 0.929 . S
C1579 N1575 1.418 . S
C1579 C1578 1.251 . S
C1580 H1547 0.930 . S
C1580 C1582 1.406 . S
C1580 C1585 1.261 . S
C1581 H1548 0.930 . S
C1581 N1583 1.325 . S
C1581 C1584 1.357 . S
C1582 H1550 0.928 . S
C1582 C1580 1.406 . S
C1582 N1583 1.261 . S
N1583 Co1534 2.214 . S
N1583 C1581 1.325 . S
N1583 C1582 1.261 . S
C1584 H1554 0.931 . S
C1584 C1581 1.357 . S
C1584 C1585 1.312 . S
C1585 H1556 0.930 . S
C1585 C1580 1.261 . S
C1585 C1584 1.312 . S
C1586 O1558 1.214 . S
C1586 O1566 1.234 . S
C1587 H1559 0.937 . S
C1587 C1590 1.391 . S
C1587 C1592 1.391 . S
C1588 H1560 0.929 . S
C1588 C1589 1.390 . S
C1588 N1591 1.391 . S
C1589 H1561 0.930 . S
C1589 C1588 1.390 . S
C1589 C1590 1.392 . S
C1590 H1562 0.929 . S
C1590 C1587 1.391 . S
C1590 C1589 1.392 . S
N1591 Co1535 2.257 . S
N1591 C1588 1.391 . S
N1591 C1592 1.388 . S
C1592 H1563 0.930 1_455 S
C1592 C1587 1.391 . S
C1592 N1591 1.388 . S
Co1593 O1595 2.143 . S
Co1593 O1601 2.074 . S
Co1593 O1604 2.093 . S
Co1593 O1617 2.097 . S
Co1593 N1634 2.151 . S
Co1593 N1642 2.214 . S
Co1594 O1595 2.160 . S
Co1594 O1600 2.058 . S
Co1594 O1610 2.057 . S
Co1594 O1625 2.037 . S
Co1594 N1629 2.145 . S
Co1594 N1650 2.257 . S
O1595 Co1593 2.143 . S
O1595 Co1594 2.160 . S
C1596 O1597 1.278 . S
C1596 O1604 1.224 . S
O1597 C1596 1.278 . S
C1598 O1599 1.245 . S
C1598 O1610 1.232 . S
O1599 C1598 1.245 . S
O1600 Co1594 2.058 . S
O1600 C1626 1.269 . S
O1601 Co1593 2.074 . S
O1601 C1626 1.257 . S
H1602 C1627 0.930 . S
H1603 C1633 0.930 . S
O1604 Co1593 2.093 . S
O1604 C1596 1.224 . S
H1605 C1637 0.929 . S
H1606 C1639 0.930 . S
H1607 C1640 0.930 . S
H1608 C1638 0.929 . S
H1609 C1641 0.928 . S
O1610 Co1594 2.057 . S
O1610 C1598 1.232 . S
H1611 C1630 0.929 . S
H1612 C1631 0.929 . S
H1613 C1643 0.931 . S
H1614 C1635 0.929 . S
H1615 C1644 0.930 . S
H1616 C1636 0.931 . S
O1617 Co1593 2.097 . S
O1617 C1645 1.214 . S
H1618 C1646 0.929 . S
H1619 C1647 0.929 . S
H1620 C1648 0.930 . S
H1621 C1649 0.929 . S
H1622 C1651 0.930 . S
H1623 C1628 0.930 . S
H1624 C1632 0.930 . S
O1625 Co1594 2.037 . S
O1625 C1645 1.234 . S
C1626 O1600 1.269 . S
C1626 O1601 1.257 . S
C1627 H1602 0.930 . S
C1627 C1630 1.388 . S
C1627 C1632 1.418 . S
C1628 H1623 0.930 . S
C1628 C1631 1.404 . S
C1628 C1632 1.353 . S
N1629 Co1594 2.145 . S
N1629 C1630 1.397 . S
N1629 C1631 1.334 . S
C1630 H1611 0.929 . S
C1630 C1627 1.388 . S
C1630 N1629 1.397 . S
C1631 H1612 0.929 . S
C1631 C1628 1.404 . S
C1631 N1629 1.334 . S
C1632 H1624 0.930 . S
C1632 C1627 1.418 . S
C1632 C1628 1.353 . S
C1633 H1603 0.930 . S
C1633 N1634 1.330 . S
C1633 C1635 1.446 . S
N1634 Co1593 2.151 . S
N1634 C1633 1.330 . S
N1634 C1638 1.418 . S
C1635 H1614 0.929 . S
C1635 C1633 1.446 . S
C1635 C1636 1.332 . S
C1636 H1616 0.931 . S
C1636 C1635 1.332 . S
C1636 C1637 1.267 . S
C1637 H1605 0.929 . S
C1637 C1636 1.267 . S
C1637 C1638 1.251 . S
C1638 H1608 0.929 . S
C1638 N1634 1.418 . S
C1638 C1637 1.251 . S
C1639 H1606 0.930 . S
C1639 C1641 1.406 . S
C1639 C1644 1.261 . S
C1640 H1607 0.930 . S
C1640 N1642 1.325 . S
C1640 C1643 1.357 . S
C1641 H1609 0.928 . S
C1641 C1639 1.406 . S
C1641 N1642 1.261 . S
N1642 Co1593 2.214 . S
N1642 C1640 1.325 . S
N1642 C1641 1.261 . S
C1643 H1613 0.931 . S
C1643 C1640 1.357 . S
C1643 C1644 1.312 . S
C1644 H1615 0.930 . S
C1644 C1639 1.261 . S
C1644 C1643 1.312 . S
C1645 O1617 1.214 . S
C1645 O1625 1.234 . S
C1646 H1618 0.929 . S
C1646 C1649 1.391 . S
C1646 C1651 1.391 . S
C1647 H1619 0.929 . S
C1647 C1648 1.390 . S
C1647 N1650 1.391 . S
C1648 H1620 0.930 . S
C1648 C1647 1.390 . S
C1648 C1649 1.392 . S
C1649 H1621 0.929 . S
C1649 C1646 1.391 . S
C1649 C1648 1.392 . S
N1650 Co1594 2.257 . S
N1650 C1647 1.391 . S
N1650 C1651 1.388 . S
C1651 H1622 0.930 . S
C1651 C1646 1.391 . S
C1651 N1650 1.388 . S
Co1652 O1654 2.143 1_655 S
Co1652 O1660 2.074 . S
Co1652 O1663 2.093 . S
Co1652 O1676 2.097 . S
Co1652 N1693 2.151 1_655 S
Co1652 N1701 2.214 . S
Co1653 O1654 2.160 1_655 S
Co1653 O1659 2.058 1_655 S
Co1653 O1669 2.057 1_655 S
Co1653 O1684 2.037 . S
Co1653 N1688 2.145 . S
Co1653 N1709 2.257 . S
O1654 Co1652 2.143 1_455 S
O1654 Co1653 2.160 1_455 S
C1655 O1656 1.279 . S
C1655 O1663 1.224 . S
O1656 C1655 1.279 . S
C1657 O1658 1.245 . S
C1657 O1669 1.232 . S
O1658 C1657 1.245 . S
O1659 Co1653 2.058 1_455 S
O1659 C1685 1.269 . S
O1660 Co1652 2.074 . S
O1660 C1685 1.257 1_655 S
H1661 C1686 0.930 . S
H1662 C1692 0.930 . S
O1663 Co1652 2.093 . S
O1663 C1655 1.224 . S
H1664 C1696 0.929 . S
H1665 C1698 0.930 . S
H1666 C1699 0.930 . S
H1667 C1697 0.929 . S
H1668 C1700 0.928 . S
O1669 Co1653 2.057 1_455 S
O1669 C1657 1.232 . S
H1670 C1689 0.929 . S
H1671 C1690 0.929 1_455 S
H1672 C1702 0.931 . S
H1673 C1694 0.929 . S
H1674 C1703 0.930 . S
H1675 C1695 0.931 . S
O1676 Co1652 2.097 . S
O1676 C1704 1.214 . S
H1677 C1705 0.924 1_455 S
H1678 C1706 0.929 . S
H1679 C1707 0.930 . S
H1680 C1708 0.929 . S
H1681 C1710 0.887 1_455 S
H1682 C1687 0.930 1_455 S
H1683 C1691 0.930 . S
O1684 Co1653 2.037 . S
O1684 C1704 1.234 . S
C1685 O1659 1.269 . S
C1685 O1660 1.257 1_455 S
C1686 H1661 0.930 . S
C1686 C1689 1.388 . S
C1686 C1691 1.418 . S
C1687 H1682 0.930 1_655 S
C1687 C1690 1.404 . S
C1687 C1691 1.353 . S
N1688 Co1653 2.145 . S
N1688 C1689 1.397 . S
N1688 C1690 1.334 . S
C1689 H1670 0.929 . S
C1689 C1686 1.388 . S
C1689 N1688 1.397 . S
C1690 H1671 0.929 1_655 S
C1690 C1687 1.404 . S
C1690 N1688 1.334 . S
C1691 H1683 0.930 . S
C1691 C1686 1.418 . S
C1691 C1687 1.353 . S
C1692 H1662 0.930 . S
C1692 N1693 1.330 . S
C1692 C1694 1.446 . S
N1693 Co1652 2.151 1_455 S
N1693 C1692 1.330 . S
N1693 C1697 1.418 . S
C1694 H1673 0.929 . S
C1694 C1692 1.446 . S
C1694 C1695 1.332 . S
C1695 H1675 0.931 . S
C1695 C1694 1.332 . S
C1695 C1696 1.267 . S
C1696 H1664 0.929 . S
C1696 C1695 1.267 . S
C1696 C1697 1.251 . S
C1697 H1667 0.929 . S
C1697 N1693 1.418 . S
C1697 C1696 1.251 . S
C1698 H1665 0.930 . S
C1698 C1700 1.406 . S
C1698 C1703 1.261 . S
C1699 H1666 0.930 . S
C1699 N1701 1.325 . S
C1699 C1702 1.357 . S
C1700 H1668 0.928 . S
C1700 C1698 1.406 . S
C1700 N1701 1.261 . S
N1701 Co1652 2.214 . S
N1701 C1699 1.325 . S
N1701 C1700 1.261 . S
C1702 H1672 0.931 . S
C1702 C1699 1.357 . S
C1702 C1703 1.312 . S
C1703 H1674 0.930 . S
C1703 C1698 1.261 . S
C1703 C1702 1.312 . S
C1704 O1676 1.214 . S
C1704 O1684 1.234 . S
C1705 H1677 0.924 1_655 S
C1705 C1708 1.391 . S
C1705 C1710 1.408 . S
C1706 H1678 0.929 . S
C1706 C1707 1.390 . S
C1706 N1709 1.391 . S
C1707 H1679 0.930 . S
C1707 C1706 1.390 . S
C1707 C1708 1.392 . S
C1708 H1680 0.929 . S
C1708 C1705 1.391 . S
C1708 C1707 1.392 . S
N1709 Co1653 2.257 . S
N1709 C1706 1.391 . S
N1709 C1710 1.416 . S
C1710 H1681 0.887 1_655 S
C1710 C1705 1.408 . S
C1710 N1709 1.416 . S
Co1711 O1713 2.143 . S
Co1711 O1719 2.074 . S
Co1711 O1722 2.093 . S
Co1711 O1735 2.097 . S
Co1711 N1752 2.151 . S
Co1711 N1760 2.214 . S
Co1712 O1713 2.160 . S
Co1712 O1718 2.058 . S
Co1712 O1728 2.057 . S
Co1712 O1743 2.037 . S
Co1712 N1747 2.145 . S
Co1712 N1768 2.257 . S
O1713 Co1711 2.143 . S
O1713 Co1712 2.160 . S
C1714 O1715 1.278 . S
C1714 O1722 1.224 . S
O1715 C1714 1.278 . S
C1716 O1717 1.245 . S
C1716 O1728 1.232 . S
O1717 C1716 1.245 . S
O1718 Co1712 2.058 . S
O1718 C1744 1.269 . S
O1719 Co1711 2.074 . S
O1719 C1744 1.257 . S
H1720 C1745 0.930 . S
H1721 C1751 0.930 . S
O1722 Co1711 2.093 . S
O1722 C1714 1.224 . S
H1723 C1755 0.929 . S
H1724 C1757 0.930 . S
H1725 C1758 0.930 . S
H1726 C1756 0.929 . S
H1727 C1759 0.928 . S
O1728 Co1712 2.057 . S
O1728 C1716 1.232 . S
H1729 C1748 0.929 . S
H1730 C1749 0.929 . S
H1731 C1761 0.931 . S
H1732 C1753 0.929 . S
H1733 C1762 0.930 . S
H1734 C1754 0.931 . S
O1735 Co1711 2.097 . S
O1735 C1763 1.214 . S
H1736 C1764 0.929 . S
H1737 C1765 0.929 . S
H1738 C1766 0.930 . S
H1739 C1767 0.929 1_565 S
H1740 C1769 0.930 . S
H1741 C1746 0.930 1_565 S
H1742 C1750 0.930 1_565 S
O1743 Co1712 2.037 . S
O1743 C1763 1.234 . S
C1744 O1718 1.269 . S
C1744 O1719 1.257 . S
C1745 H1720 0.930 . S
C1745 C1748 1.388 . S
C1745 C1750 1.418 . S
C1746 H1741 0.930 1_545 S
C1746 C1749 1.404 . S
C1746 C1750 1.353 . S
N1747 Co1712 2.145 . S
N1747 C1748 1.397 . S
N1747 C1749 1.334 . S
C1748 H1729 0.929 . S
C1748 C1745 1.388 . S
C1748 N1747 1.397 . S
C1749 H1730 0.929 . S
C1749 C1746 1.404 . S
C1749 N1747 1.334 . S
C1750 H1742 0.930 1_545 S
C1750 C1745 1.418 . S
C1750 C1746 1.353 . S
C1751 H1721 0.930 . S
C1751 N1752 1.330 . S
C1751 C1753 1.446 . S
N1752 Co1711 2.151 . S
N1752 C1751 1.330 . S
N1752 C1756 1.418 . S
C1753 H1732 0.929 . S
C1753 C1751 1.446 . S
C1753 C1754 1.332 . S
C1754 H1734 0.931 . S
C1754 C1753 1.332 . S
C1754 C1755 1.267 . S
C1755 H1723 0.929 . S
C1755 C1754 1.267 . S
C1755 C1756 1.251 . S
C1756 H1726 0.929 . S
C1756 N1752 1.418 . S
C1756 C1755 1.251 . S
C1757 H1724 0.930 . S
C1757 C1759 1.406 . S
C1757 C1762 1.261 . S
C1758 H1725 0.930 . S
C1758 N1760 1.325 . S
C1758 C1761 1.357 . S
C1759 H1727 0.928 . S
C1759 C1757 1.406 . S
C1759 N1760 1.261 . S
N1760 Co1711 2.214 . S
N1760 C1758 1.325 . S
N1760 C1759 1.261 . S
C1761 H1731 0.931 . S
C1761 C1758 1.357 . S
C1761 C1762 1.312 . S
C1762 H1733 0.930 . S
C1762 C1757 1.261 . S
C1762 C1761 1.312 . S
C1763 O1735 1.214 . S
C1763 O1743 1.234 . S
C1764 H1736 0.929 . S
C1764 C1767 1.391 . S
C1764 C1769 1.391 . S
C1765 H1737 0.929 . S
C1765 C1766 1.390 . S
C1765 N1768 1.391 . S
C1766 H1738 0.930 . S
C1766 C1765 1.390 . S
C1766 C1767 1.392 . S
C1767 H1739 0.929 1_545 S
C1767 C1764 1.391 . S
C1767 C1766 1.392 . S
N1768 Co1712 2.257 . S
N1768 C1765 1.391 . S
N1768 C1769 1.388 . S
C1769 H1740 0.930 . S
C1769 C1764 1.391 . S
C1769 N1768 1.388 . S
Co1770 O1772 2.143 1_655 S
Co1770 O1778 2.074 . S
Co1770 O1781 2.093 . S
Co1770 O1794 2.097 . S
Co1770 N1811 2.151 1_655 S
Co1770 N1819 2.214 . S
Co1771 O1772 2.160 1_655 S
Co1771 O1777 2.058 1_655 S
Co1771 O1787 2.057 1_655 S
Co1771 O1802 2.037 . S
Co1771 N1806 2.145 . S
Co1771 N1827 2.257 . S
O1772 Co1770 2.143 1_455 S
O1772 Co1771 2.160 1_455 S
C1773 O1774 1.279 . S
C1773 O1781 1.224 . S
O1774 C1773 1.279 . S
C1775 O1776 1.245 . S
C1775 O1787 1.232 . S
O1776 C1775 1.245 . S
O1777 Co1771 2.058 1_455 S
O1777 C1803 1.269 . S
O1778 Co1770 2.074 . S
O1778 C1803 1.257 1_655 S
H1779 C1804 0.930 . S
H1780 C1810 0.930 . S
O1781 Co1770 2.093 . S
O1781 C1773 1.224 . S
H1782 C1814 0.929 . S
H1783 C1816 0.930 . S
H1784 C1817 0.930 . S
H1785 C1815 0.929 . S
H1786 C1818 0.928 . S
O1787 Co1771 2.057 1_455 S
O1787 C1775 1.232 . S
H1788 C1807 0.929 . S
H1789 C1808 0.929 1_455 S
H1790 C1820 0.931 . S
H1791 C1812 0.929 . S
H1792 C1821 0.930 . S
H1793 C1813 0.931 . S
O1794 Co1770 2.097 . S
O1794 C1822 1.214 . S
H1795 C1823 0.937 . S
H1796 C1824 0.929 . S
H1797 C1825 0.930 . S
H1798 C1826 0.929 . S
H1799 C1828 0.930 1_455 S
H1800 C1805 0.930 1_455 S
H1801 C1809 0.930 . S
O1802 Co1771 2.037 . S
O1802 C1822 1.234 . S
C1803 O1777 1.269 . S
C1803 O1778 1.257 1_455 S
C1804 H1779 0.930 . S
C1804 C1807 1.388 . S
C1804 C1809 1.418 . S
C1805 H1800 0.930 1_655 S
C1805 C1808 1.404 . S
C1805 C1809 1.353 . S
N1806 Co1771 2.145 . S
N1806 C1807 1.397 . S
N1806 C1808 1.334 . S
C1807 H1788 0.929 . S
C1807 C1804 1.388 . S
C1807 N1806 1.397 . S
C1808 H1789 0.929 1_655 S
C1808 C1805 1.404 . S
C1808 N1806 1.334 . S
C1809 H1801 0.930 . S
C1809 C1804 1.418 . S
C1809 C1805 1.353 . S
C1810 H1780 0.930 . S
C1810 N1811 1.330 . S
C1810 C1812 1.446 . S
N1811 Co1770 2.151 1_455 S
N1811 C1810 1.330 . S
N1811 C1815 1.418 . S
C1812 H1791 0.929 . S
C1812 C1810 1.446 . S
C1812 C1813 1.332 . S
C1813 H1793 0.931 . S
C1813 C1812 1.332 . S
C1813 C1814 1.267 . S
C1814 H1782 0.929 . S
C1814 C1813 1.267 . S
C1814 C1815 1.251 . S
C1815 H1785 0.929 . S
C1815 N1811 1.418 . S
C1815 C1814 1.251 . S
C1816 H1783 0.930 . S
C1816 C1818 1.406 . S
C1816 C1821 1.261 . S
C1817 H1784 0.930 . S
C1817 N1819 1.325 . S
C1817 C1820 1.357 . S
C1818 H1786 0.928 . S
C1818 C1816 1.406 . S
C1818 N1819 1.261 . S
N1819 Co1770 2.214 . S
N1819 C1817 1.325 . S
N1819 C1818 1.261 . S
C1820 H1790 0.931 . S
C1820 C1817 1.357 . S
C1820 C1821 1.312 . S
C1821 H1792 0.930 . S
C1821 C1816 1.261 . S
C1821 C1820 1.312 . S
C1822 O1794 1.214 . S
C1822 O1802 1.234 . S
C1823 H1795 0.937 . S
C1823 C1826 1.391 . S
C1823 C1828 1.391 . S
C1824 H1796 0.929 . S
C1824 C1825 1.390 . S
C1824 N1827 1.391 . S
C1825 H1797 0.930 . S
C1825 C1824 1.390 . S
C1825 C1826 1.392 . S
C1826 H1798 0.929 . S
C1826 C1823 1.391 . S
C1826 C1825 1.392 . S
N1827 Co1771 2.257 . S
N1827 C1824 1.391 . S
N1827 C1828 1.388 . S
C1828 H1799 0.930 1_655 S
C1828 C1823 1.391 . S
C1828 N1827 1.388 . S
Co1829 O1831 2.143 . S
Co1829 O1837 2.074 . S
Co1829 O1840 2.093 . S
Co1829 O1853 2.097 . S
Co1829 N1870 2.151 . S
Co1829 N1878 2.214 . S
Co1830 O1831 2.160 . S
Co1830 O1836 2.058 . S
Co1830 O1846 2.057 . S
Co1830 O1861 2.037 . S
Co1830 N1865 2.145 . S
Co1830 N1886 2.257 . S
O1831 Co1829 2.143 . S
O1831 Co1830 2.160 . S
C1832 O1833 1.278 . S
C1832 O1840 1.224 . S
O1833 C1832 1.278 . S
C1834 O1835 1.245 . S
C1834 O1846 1.232 . S
O1835 C1834 1.245 . S
O1836 Co1830 2.058 . S
O1836 C1862 1.269 . S
O1837 Co1829 2.074 . S
O1837 C1862 1.257 . S
H1838 C1863 0.930 . S
H1839 C1869 0.930 . S
O1840 Co1829 2.093 . S
O1840 C1832 1.224 . S
H1841 C1873 0.929 . S
H1842 C1875 0.930 . S
H1843 C1876 0.930 . S
H1844 C1874 0.929 . S
H1845 C1877 0.928 . S
O1846 Co1830 2.057 . S
O1846 C1834 1.232 . S
H1847 C1866 0.929 . S
H1848 C1867 0.929 . S
H1849 C1879 0.931 . S
H1850 C1871 0.929 . S
H1851 C1880 0.930 . S
H1852 C1872 0.931 . S
O1853 Co1829 2.097 . S
O1853 C1881 1.214 . S
H1854 C1882 0.929 . S
H1855 C1883 0.929 . S
H1856 C1884 0.930 . S
H1857 C1885 0.929 . S
H1858 C1887 0.930 . S
H1859 C1864 0.930 . S
H1860 C1868 0.930 . S
O1861 Co1830 2.037 . S
O1861 C1881 1.234 . S
C1862 O1836 1.269 . S
C1862 O1837 1.257 . S
C1863 H1838 0.930 . S
C1863 C1866 1.388 . S
C1863 C1868 1.418 . S
C1864 H1859 0.930 . S
C1864 C1867 1.404 . S
C1864 C1868 1.353 . S
N1865 Co1830 2.145 . S
N1865 C1866 1.397 . S
N1865 C1867 1.334 . S
C1866 H1847 0.929 . S
C1866 C1863 1.388 . S
C1866 N1865 1.397 . S
C1867 H1848 0.929 . S
C1867 C1864 1.404 . S
C1867 N1865 1.334 . S
C1868 H1860 0.930 . S
C1868 C1863 1.418 . S
C1868 C1864 1.353 . S
C1869 H1839 0.930 . S
C1869 N1870 1.330 . S
C1869 C1871 1.446 . S
N1870 Co1829 2.151 . S
N1870 C1869 1.330 . S
N1870 C1874 1.418 . S
C1871 H1850 0.929 . S
C1871 C1869 1.446 . S
C1871 C1872 1.332 . S
C1872 H1852 0.931 . S
C1872 C1871 1.332 . S
C1872 C1873 1.267 . S
C1873 H1841 0.929 . S
C1873 C1872 1.267 . S
C1873 C1874 1.251 . S
C1874 H1844 0.929 . S
C1874 N1870 1.418 . S
C1874 C1873 1.251 . S
C1875 H1842 0.930 . S
C1875 C1877 1.406 . S
C1875 C1880 1.261 . S
C1876 H1843 0.930 . S
C1876 N1878 1.325 . S
C1876 C1879 1.357 . S
C1877 H1845 0.928 . S
C1877 C1875 1.406 . S
C1877 N1878 1.261 . S
N1878 Co1829 2.214 . S
N1878 C1876 1.325 . S
N1878 C1877 1.261 . S
C1879 H1849 0.931 . S
C1879 C1876 1.357 . S
C1879 C1880 1.312 . S
C1880 H1851 0.930 . S
C1880 C1875 1.261 . S
C1880 C1879 1.312 . S
C1881 O1853 1.214 . S
C1881 O1861 1.234 . S
C1882 H1854 0.929 . S
C1882 C1885 1.391 . S
C1882 C1887 1.391 . S
C1883 H1855 0.929 . S
C1883 C1884 1.390 . S
C1883 N1886 1.391 . S
C1884 H1856 0.930 . S
C1884 C1883 1.390 . S
C1884 C1885 1.392 . S
C1885 H1857 0.929 . S
C1885 C1882 1.391 . S
C1885 C1884 1.392 . S
N1886 Co1830 2.257 . S
N1886 C1883 1.391 . S
N1886 C1887 1.388 . S
C1887 H1858 0.930 . S
C1887 C1882 1.391 . S
C1887 N1886 1.388 . S
H1888 C1894 0.930 . S
H1889 C1898 0.930 . S
H1890 C1903 0.929 . S
H1891 C1901 0.929 . S
H1892 C1896 0.929 . S
H1893 C1902 0.929 . S
C1894 H1888 0.930 . S
C1894 C1895 1.367 . S
C1894 C1902 1.378 . S
C1895 C1894 1.367 . S
C1895 C1903 1.433 . S
C1896 H1892 0.929 . S
C1896 C1898 1.378 . S
C1896 C1900 1.350 . S
C1897 C1900 1.463 . S
C1897 C1902 1.350 . S
C1897 N1905 1.427 . S
C1898 H1889 0.930 . S
C1898 C1896 1.378 . S
C1898 C1899 1.367 . S
C1899 C1898 1.367 . S
C1899 C1901 1.433 . S
C1900 C1896 1.350 . S
C1900 C1897 1.463 . S
C1900 N1904 1.427 . S
C1901 H1891 0.929 . S
C1901 C1899 1.433 . S
C1901 N1904 1.384 . S
C1902 H1893 0.929 . S
C1902 C1894 1.378 . S
C1902 C1897 1.350 . S
C1903 H1890 0.929 . S
C1903 C1895 1.433 . S
C1903 N1905 1.384 . S
N1904 C1900 1.427 . S
N1904 C1901 1.384 . S
N1905 C1897 1.427 . S
N1905 C1903 1.384 . S
H1906 C1912 0.930 . S
H1907 C1916 0.930 . S
H1908 C1921 0.929 . S
H1909 C1919 0.929 . S
H1910 C1914 0.929 . S
H1911 C1920 0.929 . S
C1912 H1906 0.930 . S
C1912 C1913 1.367 . S
C1912 C1920 1.378 . S
C1913 C1912 1.367 . S
C1913 C1921 1.433 . S
C1914 H1910 0.929 . S
C1914 C1916 1.378 . S
C1914 C1918 1.350 . S
C1915 C1918 1.463 . S
C1915 C1920 1.350 . S
C1915 N1923 1.427 . S
C1916 H1907 0.930 . S
C1916 C1914 1.378 . S
C1916 C1917 1.367 . S
C1917 C1916 1.367 . S
C1917 C1919 1.433 . S
C1918 C1914 1.350 . S
C1918 C1915 1.463 . S
C1918 N1922 1.427 . S
C1919 H1909 0.929 . S
C1919 C1917 1.433 . S
C1919 N1922 1.384 . S
C1920 H1911 0.929 . S
C1920 C1912 1.378 . S
C1920 C1915 1.350 . S
C1921 H1908 0.929 . S
C1921 C1913 1.433 . S
C1921 N1923 1.384 . S
N1922 C1918 1.427 . S
N1922 C1919 1.384 . S
N1923 C1915 1.427 . S
N1923 C1921 1.384 . S
H1924 C1930 0.930 . S
H1925 C1934 0.930 . S
H1926 C1939 0.929 . S
H1927 C1937 0.929 . S
H1928 C1932 0.929 . S
H1929 C1938 0.929 . S
C1930 H1924 0.930 . S
C1930 C1931 1.367 . S
C1930 C1938 1.378 . S
C1931 C1930 1.367 . S
C1931 C1939 1.433 . S
C1932 H1928 0.929 . S
C1932 C1934 1.378 . S
C1932 C1936 1.350 . S
C1933 C1936 1.463 . S
C1933 C1938 1.350 . S
C1933 N1941 1.427 . S
C1934 H1925 0.930 . S
C1934 C1932 1.378 . S
C1934 C1935 1.367 . S
C1935 C1934 1.367 . S
C1935 C1937 1.433 . S
C1936 C1932 1.350 . S
C1936 C1933 1.463 . S
C1936 N1940 1.427 . S
C1937 H1927 0.929 . S
C1937 C1935 1.433 . S
C1937 N1940 1.384 . S
C1938 H1929 0.929 . S
C1938 C1930 1.378 . S
C1938 C1933 1.350 . S
C1939 H1926 0.929 . S
C1939 C1931 1.433 . S
C1939 N1941 1.384 . S
N1940 C1936 1.427 . S
N1940 C1937 1.384 . S
N1941 C1933 1.427 . S
N1941 C1939 1.384 . S
H1942 C1948 0.930 . S
H1943 C1952 0.930 . S
H1944 C1957 0.929 . S
H1945 C1955 0.929 . S
H1946 C1950 0.929 . S
H1947 C1956 0.929 . S
C1948 H1942 0.930 . S
C1948 C1949 1.367 . S
C1948 C1956 1.378 . S
C1949 C1948 1.367 . S
C1949 C1957 1.433 . S
C1950 H1946 0.929 . S
C1950 C1952 1.378 . S
C1950 C1954 1.350 . S
C1951 C1954 1.463 . S
C1951 C1956 1.350 . S
C1951 N1959 1.427 . S
C1952 H1943 0.930 . S
C1952 C1950 1.378 . S
C1952 C1953 1.367 . S
C1953 C1952 1.367 . S
C1953 C1955 1.433 . S
C1954 C1950 1.350 . S
C1954 C1951 1.463 . S
C1954 N1958 1.427 . S
C1955 H1945 0.929 . S
C1955 C1953 1.433 . S
C1955 N1958 1.384 . S
C1956 H1947 0.929 . S
C1956 C1948 1.378 . S
C1956 C1951 1.350 . S
C1957 H1944 0.929 . S
C1957 C1949 1.433 . S
C1957 N1959 1.384 . S
N1958 C1954 1.427 . S
N1958 C1955 1.384 . S
N1959 C1951 1.427 . S
N1959 C1957 1.384 . S
H1960 C1966 0.930 . S
H1961 C1970 0.930 . S
H1962 C1975 0.929 . S
H1963 C1973 0.929 . S
H1964 C1968 0.929 . S
H1965 C1974 0.929 . S
C1966 H1960 0.930 . S
C1966 C1967 1.367 . S
C1966 C1974 1.378 . S
C1967 C1966 1.367 . S
C1967 C1975 1.433 . S
C1968 H1964 0.929 . S
C1968 C1970 1.378 . S
C1968 C1972 1.350 . S
C1969 C1972 1.463 . S
C1969 C1974 1.350 . S
C1969 N1977 1.427 . S
C1970 H1961 0.930 . S
C1970 C1968 1.378 . S
C1970 C1971 1.367 . S
C1971 C1970 1.367 . S
C1971 C1973 1.433 . S
C1972 C1968 1.350 . S
C1972 C1969 1.463 . S
C1972 N1976 1.427 . S
C1973 H1963 0.929 . S
C1973 C1971 1.433 . S
C1973 N1976 1.384 . S
C1974 H1965 0.929 . S
C1974 C1966 1.378 . S
C1974 C1969 1.350 . S
C1975 H1962 0.929 . S
C1975 C1967 1.433 . S
C1975 N1977 1.384 . S
N1976 C1972 1.427 . S
N1976 C1973 1.384 . S
N1977 C1969 1.427 . S
N1977 C1975 1.384 . S
H1978 C1984 0.930 . S
H1979 C1988 0.930 . S
H1980 C1993 0.929 . S
H1981 C1991 0.929 . S
H1982 C1986 0.929 . S
H1983 C1992 0.929 . S
C1984 H1978 0.930 . S
C1984 C1985 1.367 . S
C1984 C1992 1.378 . S
C1985 C1984 1.367 . S
C1985 C1993 1.433 . S
C1986 H1982 0.929 . S
C1986 C1988 1.378 . S
C1986 C1990 1.350 . S
C1987 C1990 1.463 . S
C1987 C1992 1.350 . S
C1987 N1995 1.427 . S
C1988 H1979 0.930 . S
C1988 C1986 1.378 . S
C1988 C1989 1.367 . S
C1989 C1988 1.367 . S
C1989 C1991 1.433 . S
C1990 C1986 1.350 . S
C1990 C1987 1.463 . S
C1990 N1994 1.427 . S
C1991 H1981 0.929 . S
C1991 C1989 1.433 . S
C1991 N1994 1.384 . S
C1992 H1983 0.929 . S
C1992 C1984 1.378 . S
C1992 C1987 1.350 . S
C1993 H1980 0.929 . S
C1993 C1985 1.433 . S
C1993 N1995 1.384 . S
N1994 C1990 1.427 . S
N1994 C1991 1.384 . S
N1995 C1987 1.427 . S
N1995 C1993 1.384 . S
H1996 C2002 0.930 . S
H1997 C2006 0.930 . S
H1998 C2011 0.929 . S
H1999 C2009 0.929 . S
H2000 C2004 0.929 . S
H2001 C2010 0.929 . S
C2002 H1996 0.930 . S
C2002 C2003 1.367 . S
C2002 C2010 1.378 . S
C2003 C2002 1.367 . S
C2003 C2011 1.433 . S
C2004 H2000 0.929 . S
C2004 C2006 1.378 . S
C2004 C2008 1.350 . S
C2005 C2008 1.463 . S
C2005 C2010 1.350 . S
C2005 N2013 1.427 . S
C2006 H1997 0.930 . S
C2006 C2004 1.378 . S
C2006 C2007 1.367 . S
C2007 C2006 1.367 . S
C2007 C2009 1.433 . S
C2008 C2004 1.350 . S
C2008 C2005 1.463 . S
C2008 N2012 1.427 . S
C2009 H1999 0.929 . S
C2009 C2007 1.433 . S
C2009 N2012 1.384 . S
C2010 H2001 0.929 . S
C2010 C2002 1.378 . S
C2010 C2005 1.350 . S
C2011 H1998 0.929 . S
C2011 C2003 1.433 . S
C2011 N2013 1.384 . S
N2012 C2008 1.427 . S
N2012 C2009 1.384 . S
N2013 C2005 1.427 . S
N2013 C2011 1.384 . S
H2014 C2020 0.930 . S
H2015 C2024 0.930 . S
H2016 C2029 0.929 . S
H2017 C2027 0.929 . S
H2018 C2022 0.929 . S
H2019 C2028 0.929 . S
C2020 H2014 0.930 . S
C2020 C2021 1.367 . S
C2020 C2028 1.378 . S
C2021 C2020 1.367 . S
C2021 C2029 1.433 . S
C2022 H2018 0.929 . S
C2022 C2024 1.378 . S
C2022 C2026 1.350 . S
C2023 C2026 1.463 . S
C2023 C2028 1.350 . S
C2023 N2031 1.427 . S
C2024 H2015 0.930 . S
C2024 C2022 1.378 . S
C2024 C2025 1.367 . S
C2025 C2024 1.367 . S
C2025 C2027 1.433 . S
C2026 C2022 1.350 . S
C2026 C2023 1.463 . S
C2026 N2030 1.427 . S
C2027 H2017 0.929 . S
C2027 C2025 1.433 . S
C2027 N2030 1.384 . S
C2028 H2019 0.929 . S
C2028 C2020 1.378 . S
C2028 C2023 1.350 . S
C2029 H2016 0.929 . S
C2029 C2021 1.433 . S
C2029 N2031 1.384 . S
N2030 C2026 1.427 . S
N2030 C2027 1.384 . S
N2031 C2023 1.427 . S
N2031 C2029 1.384 . S
H2032 C2038 0.930 . S
H2033 C2042 0.930 . S
H2034 C2047 0.929 . S
H2035 C2045 0.929 . S
H2036 C2040 0.929 . S
H2037 C2046 0.929 . S
C2038 H2032 0.930 . S
C2038 C2039 1.367 1_455 S
C2038 C2046 1.378 . S
C2039 C2038 1.367 1_655 S
C2039 C2047 1.433 . S
C2040 H2036 0.929 . S
C2040 C2042 1.378 . S
C2040 C2044 1.350 . S
C2041 C2044 1.463 . S
C2041 C2046 1.350 1_655 S
C2041 N2049 1.427 . S
C2042 H2033 0.930 . S
C2042 C2040 1.378 . S
C2042 C2043 1.367 . S
C2043 C2042 1.367 . S
C2043 C2045 1.433 1_655 S
C2044 C2040 1.350 . S
C2044 C2041 1.463 . S
C2044 N2048 1.427 1_655 S
C2045 H2035 0.929 . S
C2045 C2043 1.433 1_455 S
C2045 N2048 1.384 . S
C2046 H2037 0.929 . S
C2046 C2038 1.378 . S
C2046 C2041 1.350 1_455 S
C2047 H2034 0.929 . S
C2047 C2039 1.433 . S
C2047 N2049 1.384 . S
N2048 C2044 1.427 1_455 S
N2048 C2045 1.384 . S
N2049 C2041 1.427 . S
N2049 C2047 1.384 . S
H2050 C2056 0.930 . S
H2051 C2060 0.930 . S
H2052 C2065 0.929 . S
H2053 C2063 0.929 . S
H2054 C2058 0.929 . S
H2055 C2064 0.929 . S
C2056 H2050 0.930 . S
C2056 C2057 1.367 . S
C2056 C2064 1.378 . S
C2057 C2056 1.367 . S
C2057 C2065 1.433 . S
C2058 H2054 0.929 . S
C2058 C2060 1.378 . S
C2058 C2062 1.350 . S
C2059 C2062 1.463 . S
C2059 C2064 1.350 . S
C2059 N2067 1.427 . S
C2060 H2051 0.930 . S
C2060 C2058 1.378 . S
C2060 C2061 1.367 . S
C2061 C2060 1.367 . S
C2061 C2063 1.433 . S
C2062 C2058 1.350 . S
C2062 C2059 1.463 . S
C2062 N2066 1.427 . S
C2063 H2053 0.929 . S
C2063 C2061 1.433 . S
C2063 N2066 1.384 . S
C2064 H2055 0.929 . S
C2064 C2056 1.378 . S
C2064 C2059 1.350 . S
C2065 H2052 0.929 . S
C2065 C2057 1.433 . S
C2065 N2067 1.384 . S
N2066 C2062 1.427 . S
N2066 C2063 1.384 . S
N2067 C2059 1.427 . S
N2067 C2065 1.384 . S
H2068 C2074 0.930 . S
H2069 C2078 0.930 . S
H2070 C2083 0.929 . S
H2071 C2081 0.929 . S
H2072 C2076 0.929 . S
H2073 C2082 0.929 . S
C2074 H2068 0.930 . S
C2074 C2075 1.367 1_655 S
C2074 C2082 1.378 . S
C2075 C2074 1.367 1_455 S
C2075 C2083 1.433 . S
C2076 H2072 0.929 . S
C2076 C2078 1.378 . S
C2076 C2080 1.350 . S
C2077 C2080 1.463 . S
C2077 C2082 1.350 1_455 S
C2077 N2085 1.427 . S
C2078 H2069 0.930 . S
C2078 C2076 1.378 . S
C2078 C2079 1.367 . S
C2079 C2078 1.367 . S
C2079 C2081 1.433 1_455 S
C2080 C2076 1.350 . S
C2080 C2077 1.463 . S
C2080 N2084 1.427 1_455 S
C2081 H2071 0.929 . S
C2081 C2079 1.433 1_655 S
C2081 N2084 1.384 . S
C2082 H2073 0.929 . S
C2082 C2074 1.378 . S
C2082 C2077 1.350 1_655 S
C2083 H2070 0.929 . S
C2083 C2075 1.433 . S
C2083 N2085 1.384 . S
N2084 C2080 1.427 1_655 S
N2084 C2081 1.384 . S
N2085 C2077 1.427 . S
N2085 C2083 1.384 . S
H2086 C2092 0.930 . S
H2087 C2096 0.930 . S
H2088 C2101 0.929 . S
H2089 C2099 0.929 . S
H2090 C2094 0.929 . S
H2091 C2100 0.929 . S
C2092 H2086 0.930 . S
C2092 C2093 1.367 . S
C2092 C2100 1.378 . S
C2093 C2092 1.367 . S
C2093 C2101 1.433 . S
C2094 H2090 0.929 . S
C2094 C2096 1.378 . S
C2094 C2098 1.350 . S
C2095 C2098 1.463 . S
C2095 C2100 1.350 . S
C2095 N2103 1.427 . S
C2096 H2087 0.930 . S
C2096 C2094 1.378 . S
C2096 C2097 1.367 . S
C2097 C2096 1.367 . S
C2097 C2099 1.433 . S
C2098 C2094 1.350 . S
C2098 C2095 1.463 . S
C2098 N2102 1.427 . S
C2099 H2089 0.929 . S
C2099 C2097 1.433 . S
C2099 N2102 1.384 . S
C2100 H2091 0.929 . S
C2100 C2092 1.378 . S
C2100 C2095 1.350 . S
C2101 H2088 0.929 . S
C2101 C2093 1.433 . S
C2101 N2103 1.384 . S
N2102 C2098 1.427 . S
N2102 C2099 1.384 . S
N2103 C2095 1.427 . S
N2103 C2101 1.384 . S
H2104 C2110 0.930 . S
H2105 C2114 0.930 . S
H2106 C2119 0.929 . S
H2107 C2117 0.929 . S
H2108 C2112 0.929 . S
H2109 C2118 0.929 . S
C2110 H2104 0.930 . S
C2110 C2111 1.367 . S
C2110 C2118 1.378 . S
C2111 C2110 1.367 . S
C2111 C2119 1.433 1_655 S
C2112 H2108 0.929 . S
C2112 C2114 1.378 . S
C2112 C2116 1.350 1_455 S
C2113 C2116 1.463 . S
C2113 C2118 1.350 . S
C2113 N2121 1.427 1_655 S
C2114 H2105 0.930 . S
C2114 C2112 1.378 . S
C2114 C2115 1.367 1_455 S
C2115 C2114 1.367 1_655 S
C2115 C2117 1.433 . S
C2116 C2112 1.350 1_655 S
C2116 C2113 1.463 . S
C2116 N2120 1.427 . S
C2117 H2107 0.929 . S
C2117 C2115 1.433 . S
C2117 N2120 1.384 . S
C2118 H2109 0.929 . S
C2118 C2110 1.378 . S
C2118 C2113 1.350 . S
C2119 H2106 0.929 . S
C2119 C2111 1.433 1_455 S
C2119 N2121 1.384 . S
N2120 C2116 1.427 . S
N2120 C2117 1.384 . S
N2121 C2113 1.427 1_455 S
N2121 C2119 1.384 . S
H2122 C2128 0.930 . S
H2123 C2132 0.930 . S
H2124 C2137 0.929 . S
H2125 C2135 0.929 . S
H2126 C2130 0.929 . S
H2127 C2136 0.929 . S
C2128 H2122 0.930 . S
C2128 C2129 1.367 . S
C2128 C2136 1.378 . S
C2129 C2128 1.367 . S
C2129 C2137 1.433 . S
C2130 H2126 0.929 . S
C2130 C2132 1.378 . S
C2130 C2134 1.350 . S
C2131 C2134 1.463 . S
C2131 C2136 1.350 . S
C2131 N2139 1.427 . S
C2132 H2123 0.930 . S
C2132 C2130 1.378 . S
C2132 C2133 1.367 . S
C2133 C2132 1.367 . S
C2133 C2135 1.433 . S
C2134 C2130 1.350 . S
C2134 C2131 1.463 . S
C2134 N2138 1.427 . S
C2135 H2125 0.929 . S
C2135 C2133 1.433 . S
C2135 N2138 1.384 . S
C2136 H2127 0.929 . S
C2136 C2128 1.378 . S
C2136 C2131 1.350 . S
C2137 H2124 0.929 . S
C2137 C2129 1.433 . S
C2137 N2139 1.384 . S
N2138 C2134 1.427 . S
N2138 C2135 1.384 . S
N2139 C2131 1.427 . S
N2139 C2137 1.384 . S
H2140 C2146 0.930 . S
H2141 C2150 0.930 . S
H2142 C2155 0.929 . S
H2143 C2153 0.929 . S
H2144 C2148 0.929 . S
H2145 C2154 0.929 . S
C2146 H2140 0.930 . S
C2146 C2147 1.367 1_655 S
C2146 C2154 1.378 . S
C2147 C2146 1.367 1_455 S
C2147 C2155 1.433 . S
C2148 H2144 0.929 . S
C2148 C2150 1.378 . S
C2148 C2152 1.350 . S
C2149 C2152 1.463 . S
C2149 C2154 1.350 1_455 S
C2149 N2157 1.427 . S
C2150 H2141 0.930 . S
C2150 C2148 1.378 . S
C2150 C2151 1.367 . S
C2151 C2150 1.367 . S
C2151 C2153 1.433 1_455 S
C2152 C2148 1.350 . S
C2152 C2149 1.463 . S
C2152 N2156 1.427 1_455 S
C2153 H2143 0.929 . S
C2153 C2151 1.433 1_655 S
C2153 N2156 1.384 . S
C2154 H2145 0.929 . S
C2154 C2146 1.378 . S
C2154 C2149 1.350 1_655 S
C2155 H2142 0.929 . S
C2155 C2147 1.433 . S
C2155 N2157 1.384 . S
N2156 C2152 1.427 1_655 S
N2156 C2153 1.384 . S
N2157 C2149 1.427 . S
N2157 C2155 1.384 . S
H2158 C2164 0.930 . S
H2159 C2168 0.930 . S
H2160 C2173 0.929 . S
H2161 C2171 0.929 . S
H2162 C2166 0.929 . S
H2163 C2172 0.929 . S
C2164 H2158 0.930 . S
C2164 C2165 1.367 . S
C2164 C2172 1.378 . S
C2165 C2164 1.367 . S
C2165 C2173 1.433 . S
C2166 H2162 0.929 . S
C2166 C2168 1.378 . S
C2166 C2170 1.350 . S
C2167 C2170 1.463 . S
C2167 C2172 1.350 . S
C2167 N2175 1.427 . S
C2168 H2159 0.930 . S
C2168 C2166 1.378 . S
C2168 C2169 1.367 . S
C2169 C2168 1.367 . S
C2169 C2171 1.433 . S
C2170 C2166 1.350 . S
C2170 C2167 1.463 . S
C2170 N2174 1.427 . S
C2171 H2161 0.929 . S
C2171 C2169 1.433 . S
C2171 N2174 1.384 . S
C2172 H2163 0.929 . S
C2172 C2164 1.378 . S
C2172 C2167 1.350 . S
C2173 H2160 0.929 . S
C2173 C2165 1.433 . S
C2173 N2175 1.384 . S
N2174 C2170 1.427 . S
N2174 C2171 1.384 . S
N2175 C2167 1.427 . S
N2175 C2173 1.384 . S
H2176 C2182 0.930 . S
H2177 C2186 0.930 . S
H2178 C2191 0.929 . S
H2179 C2189 0.929 . S
H2180 C2184 0.929 . S
H2181 C2190 0.929 . S
C2182 H2176 0.930 . S
C2182 C2183 1.367 . S
C2182 C2190 1.378 . S
C2183 C2182 1.367 . S
C2183 C2191 1.433 . S
C2184 H2180 0.929 . S
C2184 C2186 1.378 . S
C2184 C2188 1.350 . S
C2185 C2188 1.463 . S
C2185 C2190 1.350 . S
C2185 N2193 1.427 . S
C2186 H2177 0.930 . S
C2186 C2184 1.378 . S
C2186 C2187 1.367 . S
C2187 C2186 1.367 . S
C2187 C2189 1.433 . S
C2188 C2184 1.350 . S
C2188 C2185 1.463 . S
C2188 N2192 1.427 . S
C2189 H2179 0.929 . S
C2189 C2187 1.433 . S
C2189 N2192 1.384 . S
C2190 H2181 0.929 . S
C2190 C2182 1.378 . S
C2190 C2185 1.350 . S
C2191 H2178 0.929 . S
C2191 C2183 1.433 . S
C2191 N2193 1.384 . S
N2192 C2188 1.427 . S
N2192 C2189 1.384 . S
N2193 C2185 1.427 . S
N2193 C2191 1.384 . S
H2194 C2200 0.930 . S
H2195 C2204 0.930 . S
H2196 C2209 0.929 . S
H2197 C2207 0.929 . S
H2198 C2202 0.929 . S
H2199 C2208 0.929 . S
C2200 H2194 0.930 . S
C2200 C2201 1.367 . S
C2200 C2208 1.378 . S
C2201 C2200 1.367 . S
C2201 C2209 1.433 . S
C2202 H2198 0.929 . S
C2202 C2204 1.378 . S
C2202 C2206 1.350 . S
C2203 C2206 1.463 . S
C2203 C2208 1.350 . S
C2203 N2211 1.427 . S
C2204 H2195 0.930 . S
C2204 C2202 1.378 . S
C2204 C2205 1.367 . S
C2205 C2204 1.367 . S
C2205 C2207 1.433 . S
C2206 C2202 1.350 . S
C2206 C2203 1.463 . S
C2206 N2210 1.427 . S
C2207 H2197 0.929 . S
C2207 C2205 1.433 . S
C2207 N2210 1.384 . S
C2208 H2199 0.929 . S
C2208 C2200 1.378 . S
C2208 C2203 1.350 . S
C2209 H2196 0.929 . S
C2209 C2201 1.433 . S
C2209 N2211 1.384 . S
N2210 C2206 1.427 . S
N2210 C2207 1.384 . S
N2211 C2203 1.427 . S
N2211 C2209 1.384 . S
H2212 C2218 0.930 . S
H2213 C2222 0.930 . S
H2214 C2227 0.929 . S
H2215 C2225 0.929 . S
H2216 C2220 0.929 . S
H2217 C2226 0.929 . S
C2218 H2212 0.930 . S
C2218 C2219 1.367 . S
C2218 C2226 1.378 . S
C2219 C2218 1.367 . S
C2219 C2227 1.433 . S
C2220 H2216 0.929 . S
C2220 C2222 1.378 . S
C2220 C2224 1.350 . S
C2221 C2224 1.463 . S
C2221 C2226 1.350 . S
C2221 N2229 1.427 . S
C2222 H2213 0.930 . S
C2222 C2220 1.378 . S
C2222 C2223 1.367 . S
C2223 C2222 1.367 . S
C2223 C2225 1.433 . S
C2224 C2220 1.350 . S
C2224 C2221 1.463 . S
C2224 N2228 1.427 . S
C2225 H2215 0.929 . S
C2225 C2223 1.433 . S
C2225 N2228 1.384 . S
C2226 H2217 0.929 . S
C2226 C2218 1.378 . S
C2226 C2221 1.350 . S
C2227 H2214 0.929 . S
C2227 C2219 1.433 . S
C2227 N2229 1.384 . S
N2228 C2224 1.427 . S
N2228 C2225 1.384 . S
N2229 C2221 1.427 . S
N2229 C2227 1.384 . S
H2230 C2236 0.930 . S
H2231 C2240 0.930 . S
H2232 C2245 0.929 . S
H2233 C2243 0.929 . S
H2234 C2238 0.929 . S
H2235 C2244 0.929 . S
C2236 H2230 0.930 . S
C2236 C2237 1.367 . S
C2236 C2244 1.378 . S
C2237 C2236 1.367 . S
C2237 C2245 1.433 . S
C2238 H2234 0.929 . S
C2238 C2240 1.378 . S
C2238 C2242 1.350 . S
C2239 C2242 1.463 . S
C2239 C2244 1.350 . S
C2239 N2247 1.427 . S
C2240 H2231 0.930 . S
C2240 C2238 1.378 . S
C2240 C2241 1.367 . S
C2241 C2240 1.367 . S
C2241 C2243 1.433 . S
C2242 C2238 1.350 . S
C2242 C2239 1.463 . S
C2242 N2246 1.427 . S
C2243 H2233 0.929 . S
C2243 C2241 1.433 . S
C2243 N2246 1.384 . S
C2244 H2235 0.929 . S
C2244 C2236 1.378 . S
C2244 C2239 1.350 . S
C2245 H2232 0.929 . S
C2245 C2237 1.433 . S
C2245 N2247 1.384 . S
N2246 C2242 1.427 . S
N2246 C2243 1.384 . S
N2247 C2239 1.427 . S
N2247 C2245 1.384 . S
H2248 C2254 0.930 . S
H2249 C2258 0.930 . S
H2250 C2263 0.929 . S
H2251 C2261 0.929 . S
H2252 C2256 0.929 . S
H2253 C2262 0.929 . S
C2254 H2248 0.930 . S
C2254 C2255 1.367 . S
C2254 C2262 1.378 . S
C2255 C2254 1.367 . S
C2255 C2263 1.433 . S
C2256 H2252 0.929 . S
C2256 C2258 1.378 . S
C2256 C2260 1.350 . S
C2257 C2260 1.463 . S
C2257 C2262 1.350 . S
C2257 N2265 1.427 . S
C2258 H2249 0.930 . S
C2258 C2256 1.378 . S
C2258 C2259 1.367 . S
C2259 C2258 1.367 . S
C2259 C2261 1.433 . S
C2260 C2256 1.350 . S
C2260 C2257 1.463 . S
C2260 N2264 1.427 . S
C2261 H2251 0.929 . S
C2261 C2259 1.433 . S
C2261 N2264 1.384 . S
C2262 H2253 0.929 . S
C2262 C2254 1.378 . S
C2262 C2257 1.350 . S
C2263 H2250 0.929 . S
C2263 C2255 1.433 . S
C2263 N2265 1.384 . S
N2264 C2260 1.427 . S
N2264 C2261 1.384 . S
N2265 C2257 1.427 . S
N2265 C2263 1.384 . S
H2266 C2272 0.930 . S
H2267 C2276 0.930 . S
H2268 C2281 0.929 . S
H2269 C2279 0.929 . S
H2270 C2274 0.929 . S
H2271 C2280 0.929 . S
C2272 H2266 0.930 . S
C2272 C2273 1.367 . S
C2272 C2280 1.378 . S
C2273 C2272 1.367 . S
C2273 C2281 1.433 . S
C2274 H2270 0.929 . S
C2274 C2276 1.378 . S
C2274 C2278 1.350 . S
C2275 C2278 1.463 . S
C2275 C2280 1.350 . S
C2275 N2283 1.427 . S
C2276 H2267 0.930 . S
C2276 C2274 1.378 . S
C2276 C2277 1.367 . S
C2277 C2276 1.367 . S
C2277 C2279 1.433 . S
C2278 C2274 1.350 . S
C2278 C2275 1.463 . S
C2278 N2282 1.427 . S
C2279 H2269 0.929 . S
C2279 C2277 1.433 . S
C2279 N2282 1.384 . S
C2280 H2271 0.929 . S
C2280 C2272 1.378 . S
C2280 C2275 1.350 . S
C2281 H2268 0.929 . S
C2281 C2273 1.433 . S
C2281 N2283 1.384 . S
N2282 C2278 1.427 . S
N2282 C2279 1.384 . S
N2283 C2275 1.427 . S
N2283 C2281 1.384 . S
H2284 C2290 0.930 . S
H2285 C2294 0.930 . S
H2286 C2299 0.929 . S
H2287 C2297 0.929 . S
H2288 C2292 0.929 . S
H2289 C2298 0.929 . S
C2290 H2284 0.930 . S
C2290 C2291 1.367 . S
C2290 C2298 1.378 . S
C2291 C2290 1.367 . S
C2291 C2299 1.433 . S
C2292 H2288 0.929 . S
C2292 C2294 1.378 . S
C2292 C2296 1.350 . S
C2293 C2296 1.463 . S
C2293 C2298 1.350 . S
C2293 N2301 1.427 . S
C2294 H2285 0.930 . S
C2294 C2292 1.378 . S
C2294 C2295 1.367 . S
C2295 C2294 1.367 . S
C2295 C2297 1.433 . S
C2296 C2292 1.350 . S
C2296 C2293 1.463 . S
C2296 N2300 1.427 . S
C2297 H2287 0.929 . S
C2297 C2295 1.433 . S
C2297 N2300 1.384 . S
C2298 H2289 0.929 . S
C2298 C2290 1.378 . S
C2298 C2293 1.350 . S
C2299 H2286 0.929 . S
C2299 C2291 1.433 . S
C2299 N2301 1.384 . S
N2300 C2296 1.427 . S
N2300 C2297 1.384 . S
N2301 C2293 1.427 . S
N2301 C2299 1.384 . S
H2302 C2308 0.930 . S
H2303 C2312 0.930 . S
H2304 C2317 0.929 . S
H2305 C2315 0.929 . S
H2306 C2310 0.929 . S
H2307 C2316 0.929 . S
C2308 H2302 0.930 . S
C2308 C2309 1.367 . S
C2308 C2316 1.378 . S
C2309 C2308 1.367 . S
C2309 C2317 1.433 . S
C2310 H2306 0.929 . S
C2310 C2312 1.378 . S
C2310 C2314 1.350 . S
C2311 C2314 1.463 . S
C2311 C2316 1.350 . S
C2311 N2319 1.427 . S
C2312 H2303 0.930 . S
C2312 C2310 1.378 . S
C2312 C2313 1.367 . S
C2313 C2312 1.367 . S
C2313 C2315 1.433 . S
C2314 C2310 1.350 . S
C2314 C2311 1.463 . S
C2314 N2318 1.427 . S
C2315 H2305 0.929 . S
C2315 C2313 1.433 . S
C2315 N2318 1.384 . S
C2316 H2307 0.929 . S
C2316 C2308 1.378 . S
C2316 C2311 1.350 . S
C2317 H2304 0.929 . S
C2317 C2309 1.433 . S
C2317 N2319 1.384 . S
N2318 C2314 1.427 . S
N2318 C2315 1.384 . S
N2319 C2311 1.427 . S
N2319 C2317 1.384 . S
H2320 C2326 0.930 . S
H2321 C2330 0.930 . S
H2322 C2335 0.929 . S
H2323 C2333 0.929 . S
H2324 C2328 0.929 . S
H2325 C2334 0.929 . S
C2326 H2320 0.930 . S
C2326 C2327 1.367 . S
C2326 C2334 1.378 . S
C2327 C2326 1.367 . S
C2327 C2335 1.433 . S
C2328 H2324 0.929 . S
C2328 C2330 1.378 . S
C2328 C2332 1.350 . S
C2329 C2332 1.463 . S
C2329 C2334 1.350 . S
C2329 N2337 1.427 . S
C2330 H2321 0.930 . S
C2330 C2328 1.378 . S
C2330 C2331 1.367 . S
C2331 C2330 1.367 . S
C2331 C2333 1.433 . S
C2332 C2328 1.350 . S
C2332 C2329 1.463 . S
C2332 N2336 1.427 . S
C2333 H2323 0.929 . S
C2333 C2331 1.433 . S
C2333 N2336 1.384 . S
C2334 H2325 0.929 . S
C2334 C2326 1.378 . S
C2334 C2329 1.350 . S
C2335 H2322 0.929 . S
C2335 C2327 1.433 . S
C2335 N2337 1.384 . S
N2336 C2332 1.427 . S
N2336 C2333 1.384 . S
N2337 C2329 1.427 . S
N2337 C2335 1.384 . S
H2338 C2344 0.930 . S
H2339 C2348 0.930 . S
H2340 C2353 0.929 . S
H2341 C2351 0.929 . S
H2342 C2346 0.929 . S
H2343 C2352 0.929 . S
C2344 H2338 0.930 . S
C2344 C2345 1.367 . S
C2344 C2352 1.378 . S
C2345 C2344 1.367 . S
C2345 C2353 1.433 . S
C2346 H2342 0.929 . S
C2346 C2348 1.378 . S
C2346 C2350 1.350 . S
C2347 C2350 1.463 . S
C2347 C2352 1.350 . S
C2347 N2355 1.427 . S
C2348 H2339 0.930 . S
C2348 C2346 1.378 . S
C2348 C2349 1.367 . S
C2349 C2348 1.367 . S
C2349 C2351 1.433 . S
C2350 C2346 1.350 . S
C2350 C2347 1.463 . S
C2350 N2354 1.427 . S
C2351 H2341 0.929 . S
C2351 C2349 1.433 . S
C2351 N2354 1.384 . S
C2352 H2343 0.929 . S
C2352 C2344 1.378 . S
C2352 C2347 1.350 . S
C2353 H2340 0.929 . S
C2353 C2345 1.433 . S
C2353 N2355 1.384 . S
N2354 C2350 1.427 . S
N2354 C2351 1.384 . S
N2355 C2347 1.427 . S
N2355 C2353 1.384 . S
H2356 C2362 0.930 . S
H2357 C2366 0.930 . S
H2358 C2371 0.929 . S
H2359 C2369 0.929 . S
H2360 C2364 0.929 . S
H2361 C2370 0.929 . S
C2362 H2356 0.930 . S
C2362 C2363 1.367 . S
C2362 C2370 1.378 . S
C2363 C2362 1.367 . S
C2363 C2371 1.433 . S
C2364 H2360 0.929 . S
C2364 C2366 1.378 . S
C2364 C2368 1.350 . S
C2365 C2368 1.463 . S
C2365 C2370 1.350 . S
C2365 N2373 1.427 . S
C2366 H2357 0.930 . S
C2366 C2364 1.378 . S
C2366 C2367 1.367 . S
C2367 C2366 1.367 . S
C2367 C2369 1.433 . S
C2368 C2364 1.350 . S
C2368 C2365 1.463 . S
C2368 N2372 1.427 . S
C2369 H2359 0.929 . S
C2369 C2367 1.433 . S
C2369 N2372 1.384 . S
C2370 H2361 0.929 . S
C2370 C2362 1.378 . S
C2370 C2365 1.350 . S
C2371 H2358 0.929 . S
C2371 C2363 1.433 . S
C2371 N2373 1.384 . S
N2372 C2368 1.427 . S
N2372 C2369 1.384 . S
N2373 C2365 1.427 . S
N2373 C2371 1.384 . S
H2374 C2380 0.930 . S
H2375 C2384 0.930 . S
H2376 C2389 0.929 . S
H2377 C2387 0.929 . S
H2378 C2382 0.929 . S
H2379 C2388 0.929 . S
C2380 H2374 0.930 . S
C2380 C2381 1.367 . S
C2380 C2388 1.378 . S
C2381 C2380 1.367 . S
C2381 C2389 1.433 . S
C2382 H2378 0.929 . S
C2382 C2384 1.378 . S
C2382 C2386 1.350 . S
C2383 C2386 1.463 . S
C2383 C2388 1.350 . S
C2383 N2391 1.427 . S
C2384 H2375 0.930 . S
C2384 C2382 1.378 . S
C2384 C2385 1.367 . S
C2385 C2384 1.367 . S
C2385 C2387 1.433 . S
C2386 C2382 1.350 . S
C2386 C2383 1.463 . S
C2386 N2390 1.427 . S
C2387 H2377 0.929 . S
C2387 C2385 1.433 . S
C2387 N2390 1.384 . S
C2388 H2379 0.929 . S
C2388 C2380 1.378 . S
C2388 C2383 1.350 . S
C2389 H2376 0.929 . S
C2389 C2381 1.433 . S
C2389 N2391 1.384 . S
N2390 C2386 1.427 . S
N2390 C2387 1.384 . S
N2391 C2383 1.427 . S
N2391 C2389 1.384 . S
H2392 C2398 0.930 . S
H2393 C2402 0.930 . S
H2394 C2407 0.929 . S
H2395 C2405 0.929 . S
H2396 C2400 0.929 . S
H2397 C2406 0.929 . S
C2398 H2392 0.930 . S
C2398 C2399 1.367 . S
C2398 C2406 1.378 . S
C2399 C2398 1.367 . S
C2399 C2407 1.433 . S
C2400 H2396 0.929 . S
C2400 C2402 1.378 . S
C2400 C2404 1.350 . S
C2401 C2404 1.463 . S
C2401 C2406 1.350 . S
C2401 N2409 1.427 . S
C2402 H2393 0.930 . S
C2402 C2400 1.378 . S
C2402 C2403 1.367 . S
C2403 C2402 1.367 . S
C2403 C2405 1.433 . S
C2404 C2400 1.350 . S
C2404 C2401 1.463 . S
C2404 N2408 1.427 . S
C2405 H2395 0.929 . S
C2405 C2403 1.433 . S
C2405 N2408 1.384 . S
C2406 H2397 0.929 . S
C2406 C2398 1.378 . S
C2406 C2401 1.350 . S
C2407 H2394 0.929 . S
C2407 C2399 1.433 . S
C2407 N2409 1.384 . S
N2408 C2404 1.427 . S
N2408 C2405 1.384 . S
N2409 C2401 1.427 . S
N2409 C2407 1.384 . S
H2410 C2416 0.930 . S
H2411 C2420 0.930 . S
H2412 C2425 0.929 . S
H2413 C2423 0.929 . S
H2414 C2418 0.929 . S
H2415 C2424 0.929 . S
C2416 H2410 0.930 . S
C2416 C2417 1.367 . S
C2416 C2424 1.378 . S
C2417 C2416 1.367 . S
C2417 C2425 1.433 . S
C2418 H2414 0.929 . S
C2418 C2420 1.378 . S
C2418 C2422 1.350 . S
C2419 C2422 1.463 . S
C2419 C2424 1.350 . S
C2419 N2427 1.427 . S
C2420 H2411 0.930 . S
C2420 C2418 1.378 . S
C2420 C2421 1.367 . S
C2421 C2420 1.367 . S
C2421 C2423 1.433 . S
C2422 C2418 1.350 . S
C2422 C2419 1.463 . S
C2422 N2426 1.427 . S
C2423 H2413 0.929 . S
C2423 C2421 1.433 . S
C2423 N2426 1.384 . S
C2424 H2415 0.929 . S
C2424 C2416 1.378 . S
C2424 C2419 1.350 . S
C2425 H2412 0.929 . S
C2425 C2417 1.433 . S
C2425 N2427 1.384 . S
N2426 C2422 1.427 . S
N2426 C2423 1.384 . S
N2427 C2419 1.427 . S
N2427 C2425 1.384 . S
H2428 C2434 0.930 . S
H2429 C2438 0.930 . S
H2430 C2443 0.929 . S
H2431 C2441 0.929 . S
H2432 C2436 0.929 . S
H2433 C2442 0.929 . S
C2434 H2428 0.930 . S
C2434 C2435 1.367 . S
C2434 C2442 1.378 . S
C2435 C2434 1.367 . S
C2435 C2443 1.433 . S
C2436 H2432 0.929 . S
C2436 C2438 1.378 . S
C2436 C2440 1.350 . S
C2437 C2440 1.463 . S
C2437 C2442 1.350 . S
C2437 N2445 1.427 . S
C2438 H2429 0.930 . S
C2438 C2436 1.378 . S
C2438 C2439 1.367 . S
C2439 C2438 1.367 . S
C2439 C2441 1.433 . S
C2440 C2436 1.350 . S
C2440 C2437 1.463 . S
C2440 N2444 1.427 . S
C2441 H2431 0.929 . S
C2441 C2439 1.433 . S
C2441 N2444 1.384 . S
C2442 H2433 0.929 . S
C2442 C2434 1.378 . S
C2442 C2437 1.350 . S
C2443 H2430 0.929 . S
C2443 C2435 1.433 . S
C2443 N2445 1.384 . S
N2444 C2440 1.427 . S
N2444 C2441 1.384 . S
N2445 C2437 1.427 . S
N2445 C2443 1.384 . S
H2446 C2452 0.930 . S
H2447 C2456 0.930 . S
H2448 C2461 0.929 . S
H2449 C2459 0.929 . S
H2450 C2454 0.929 . S
H2451 C2460 0.929 . S
C2452 H2446 0.930 . S
C2452 C2453 1.367 . S
C2452 C2460 1.378 . S
C2453 C2452 1.367 . S
C2453 C2461 1.433 . S
C2454 H2450 0.929 . S
C2454 C2456 1.378 . S
C2454 C2458 1.350 . S
C2455 C2458 1.463 . S
C2455 C2460 1.350 . S
C2455 N2463 1.427 . S
C2456 H2447 0.930 . S
C2456 C2454 1.378 . S
C2456 C2457 1.367 . S
C2457 C2456 1.367 . S
C2457 C2459 1.433 . S
C2458 C2454 1.350 . S
C2458 C2455 1.463 . S
C2458 N2462 1.427 . S
C2459 H2449 0.929 . S
C2459 C2457 1.433 . S
C2459 N2462 1.384 . S
C2460 H2451 0.929 . S
C2460 C2452 1.378 . S
C2460 C2455 1.350 . S
C2461 H2448 0.929 . S
C2461 C2453 1.433 . S
C2461 N2463 1.384 . S
N2462 C2458 1.427 . S
N2462 C2459 1.384 . S
N2463 C2455 1.427 . S
N2463 C2461 1.384 . S
H2464 C2470 0.930 . S
H2465 C2474 0.930 . S
H2466 C2479 0.929 . S
H2467 C2477 0.929 . S
H2468 C2472 0.929 . S
H2469 C2478 0.929 . S
C2470 H2464 0.930 . S
C2470 C2471 1.367 . S
C2470 C2478 1.378 . S
C2471 C2470 1.367 . S
C2471 C2479 1.433 1_545 S
C2472 H2468 0.929 . S
C2472 C2474 1.378 . S
C2472 C2476 1.350 . S
C2473 C2476 1.463 1_544 S
C2473 C2478 1.350 . S
C2473 N2481 1.427 1_545 S
C2474 H2465 0.930 . S
C2474 C2472 1.378 . S
C2474 C2475 1.367 . S
C2475 C2474 1.367 . S
C2475 C2477 1.433 1_565 S
C2476 C2472 1.350 . S
C2476 C2473 1.463 1_566 S
C2476 N2480 1.427 1_565 S
C2477 H2467 0.929 . S
C2477 C2475 1.433 1_545 S
C2477 N2480 1.384 . S
C2478 H2469 0.929 . S
C2478 C2470 1.378 . S
C2478 C2473 1.350 . S
C2479 H2466 0.929 . S
C2479 C2471 1.433 1_565 S
C2479 N2481 1.384 . S
N2480 C2476 1.427 1_545 S
N2480 C2477 1.384 . S
N2481 C2473 1.427 1_565 S
N2481 C2479 1.384 . S
H2482 C2488 0.930 . S
H2483 C2492 0.930 . S
H2484 C2497 0.929 . S
H2485 C2495 0.929 . S
H2486 C2490 0.929 . S
H2487 C2496 0.929 . S
C2488 H2482 0.930 . S
C2488 C2489 1.367 . S
C2488 C2496 1.378 . S
C2489 C2488 1.367 . S
C2489 C2497 1.433 . S
C2490 H2486 0.929 . S
C2490 C2492 1.378 . S
C2490 C2494 1.350 . S
C2491 C2494 1.463 1_554 S
C2491 C2496 1.350 . S
C2491 N2499 1.427 . S
C2492 H2483 0.930 . S
C2492 C2490 1.378 . S
C2492 C2493 1.367 . S
C2493 C2492 1.367 . S
C2493 C2495 1.433 . S
C2494 C2490 1.350 . S
C2494 C2491 1.463 1_556 S
C2494 N2498 1.427 . S
C2495 H2485 0.929 . S
C2495 C2493 1.433 . S
C2495 N2498 1.384 . S
C2496 H2487 0.929 . S
C2496 C2488 1.378 . S
C2496 C2491 1.350 . S
C2497 H2484 0.929 . S
C2497 C2489 1.433 . S
C2497 N2499 1.384 . S
N2498 C2494 1.427 . S
N2498 C2495 1.384 . S
N2499 C2491 1.427 . S
N2499 C2497 1.384 . S
H2500 C2506 0.930 . S
H2501 C2510 0.930 . S
H2502 C2515 0.929 . S
H2503 C2513 0.929 . S
H2504 C2508 0.929 . S
H2505 C2514 0.929 . S
C2506 H2500 0.930 . S
C2506 C2507 1.367 . S
C2506 C2514 1.378 . S
C2507 C2506 1.367 . S
C2507 C2515 1.433 . S
C2508 H2504 0.929 . S
C2508 C2510 1.378 . S
C2508 C2512 1.350 . S
C2509 C2512 1.463 . S
C2509 C2514 1.350 . S
C2509 N2517 1.427 . S
C2510 H2501 0.930 . S
C2510 C2508 1.378 . S
C2510 C2511 1.367 . S
C2511 C2510 1.367 . S
C2511 C2513 1.433 . S
C2512 C2508 1.350 . S
C2512 C2509 1.463 . S
C2512 N2516 1.427 . S
C2513 H2503 0.929 . S
C2513 C2511 1.433 . S
C2513 N2516 1.384 . S
C2514 H2505 0.929 . S
C2514 C2506 1.378 . S
C2514 C2509 1.350 . S
C2515 H2502 0.929 . S
C2515 C2507 1.433 . S
C2515 N2517 1.384 . S
N2516 C2512 1.427 . S
N2516 C2513 1.384 . S
N2517 C2509 1.427 . S
N2517 C2515 1.384 . S
H2518 C2524 0.930 . S
H2519 C2528 0.930 . S
H2520 C2533 0.929 . S
H2521 C2531 0.929 . S
H2522 C2526 0.929 . S
H2523 C2532 0.929 . S
C2524 H2518 0.930 . S
C2524 C2525 1.367 1_565 S
C2524 C2532 1.378 . S
C2525 C2524 1.367 1_545 S
C2525 C2533 1.433 . S
C2526 H2522 0.929 . S
C2526 C2528 1.378 . S
C2526 C2530 1.350 1_545 S
C2527 C2530 1.463 1_545 S
C2527 C2532 1.350 1_545 S
C2527 N2535 1.427 . S
C2528 H2519 0.930 . S
C2528 C2526 1.378 . S
C2528 C2529 1.367 1_545 S
C2529 C2528 1.367 1_565 S
C2529 C2531 1.433 . S
C2530 C2526 1.350 1_565 S
C2530 C2527 1.463 1_565 S
C2530 N2534 1.427 . S
C2531 H2521 0.929 . S
C2531 C2529 1.433 . S
C2531 N2534 1.384 . S
C2532 H2523 0.929 . S
C2532 C2524 1.378 . S
C2532 C2527 1.350 1_565 S
C2533 H2520 0.929 . S
C2533 C2525 1.433 . S
C2533 N2535 1.384 . S
N2534 C2530 1.427 . S
N2534 C2531 1.384 . S
N2535 C2527 1.427 . S
N2535 C2533 1.384 . S
H2536 C2542 0.930 . S
H2537 C2546 0.930 . S
H2538 C2551 0.929 . S
H2539 C2549 0.929 . S
H2540 C2544 0.929 . S
H2541 C2550 0.929 . S
C2542 H2536 0.930 . S
C2542 C2543 1.367 . S
C2542 C2550 1.378 . S
C2543 C2542 1.367 . S
C2543 C2551 1.433 . S
C2544 H2540 0.929 . S
C2544 C2546 1.378 . S
C2544 C2548 1.350 . S
C2545 C2548 1.463 1_556 S
C2545 C2550 1.350 . S
C2545 N2553 1.427 . S
C2546 H2537 0.930 . S
C2546 C2544 1.378 . S
C2546 C2547 1.367 . S
C2547 C2546 1.367 . S
C2547 C2549 1.433 . S
C2548 C2544 1.350 . S
C2548 C2545 1.463 1_554 S
C2548 N2552 1.427 . S
C2549 H2539 0.929 . S
C2549 C2547 1.433 . S
C2549 N2552 1.384 . S
C2550 H2541 0.929 . S
C2550 C2542 1.378 . S
C2550 C2545 1.350 . S
C2551 H2538 0.929 . S
C2551 C2543 1.433 . S
C2551 N2553 1.384 . S
N2552 C2548 1.427 . S
N2552 C2549 1.384 . S
N2553 C2545 1.427 . S
N2553 C2551 1.384 . S
H2554 C2560 0.930 . S
H2555 C2564 0.930 . S
H2556 C2569 0.929 . S
H2557 C2567 0.929 . S
H2558 C2562 0.929 . S
H2559 C2568 0.929 . S
C2560 H2554 0.930 . S
C2560 C2561 1.367 . S
C2560 C2568 1.378 . S
C2561 C2560 1.367 . S
C2561 C2569 1.433 . S
C2562 H2558 0.929 . S
C2562 C2564 1.378 . S
C2562 C2566 1.350 . S
C2563 C2566 1.463 . S
C2563 C2568 1.350 . S
C2563 N2571 1.427 . S
C2564 H2555 0.930 . S
C2564 C2562 1.378 . S
C2564 C2565 1.367 . S
C2565 C2564 1.367 . S
C2565 C2567 1.433 . S
C2566 C2562 1.350 . S
C2566 C2563 1.463 . S
C2566 N2570 1.427 . S
C2567 H2557 0.929 . S
C2567 C2565 1.433 . S
C2567 N2570 1.384 . S
C2568 H2559 0.929 . S
C2568 C2560 1.378 . S
C2568 C2563 1.350 . S
C2569 H2556 0.929 . S
C2569 C2561 1.433 . S
C2569 N2571 1.384 . S
N2570 C2566 1.427 . S
N2570 C2567 1.384 . S
N2571 C2563 1.427 . S
N2571 C2569 1.384 . S
H2572 C2578 0.930 . S
H2573 C2582 0.930 . S
H2574 C2587 0.929 . S
H2575 C2585 0.929 . S
H2576 C2580 0.929 . S
H2577 C2586 0.929 . S
C2578 H2572 0.930 . S
C2578 C2579 1.367 . S
C2578 C2586 1.378 . S
C2579 C2578 1.367 . S
C2579 C2587 1.433 1_545 S
C2580 H2576 0.929 . S
C2580 C2582 1.378 . S
C2580 C2584 1.350 . S
C2581 C2584 1.463 1_545 S
C2581 C2586 1.350 . S
C2581 N2589 1.427 1_545 S
C2582 H2573 0.930 . S
C2582 C2580 1.378 . S
C2582 C2583 1.367 . S
C2583 C2582 1.367 . S
C2583 C2585 1.433 1_565 S
C2584 C2580 1.350 . S
C2584 C2581 1.463 1_565 S
C2584 N2588 1.427 1_565 S
C2585 H2575 0.929 . S
C2585 C2583 1.433 1_545 S
C2585 N2588 1.384 . S
C2586 H2577 0.929 . S
C2586 C2578 1.378 . S
C2586 C2581 1.350 . S
C2587 H2574 0.929 . S
C2587 C2579 1.433 1_565 S
C2587 N2589 1.384 . S
N2588 C2584 1.427 1_545 S
N2588 C2585 1.384 . S
N2589 C2581 1.427 1_565 S
N2589 C2587 1.384 . S
H2590 C2596 0.930 . S
H2591 C2600 0.930 . S
H2592 C2605 0.929 . S
H2593 C2603 0.929 . S
H2594 C2598 0.929 . S
H2595 C2604 0.929 . S
C2596 H2590 0.930 . S
C2596 C2597 1.367 . S
C2596 C2604 1.378 . S
C2597 C2596 1.367 . S
C2597 C2605 1.433 . S
C2598 H2594 0.929 . S
C2598 C2600 1.378 . S
C2598 C2602 1.350 . S
C2599 C2602 1.463 . S
C2599 C2604 1.350 . S
C2599 N2607 1.427 . S
C2600 H2591 0.930 . S
C2600 C2598 1.378 . S
C2600 C2601 1.367 . S
C2601 C2600 1.367 . S
C2601 C2603 1.433 . S
C2602 C2598 1.350 . S
C2602 C2599 1.463 . S
C2602 N2606 1.427 . S
C2603 H2593 0.929 . S
C2603 C2601 1.433 . S
C2603 N2606 1.384 . S
C2604 H2595 0.929 . S
C2604 C2596 1.378 . S
C2604 C2599 1.350 . S
C2605 H2592 0.929 . S
C2605 C2597 1.433 . S
C2605 N2607 1.384 . S
N2606 C2602 1.427 . S
N2606 C2603 1.384 . S
N2607 C2599 1.427 . S
N2607 C2605 1.384 . S
H2608 C2614 0.930 . S
H2609 C2618 0.930 . S
H2610 C2623 0.929 . S
H2611 C2621 0.929 . S
H2612 C2616 0.929 . S
H2613 C2622 0.929 . S
C2614 H2608 0.930 . S
C2614 C2615 1.367 . S
C2614 C2622 1.378 . S
C2615 C2614 1.367 . S
C2615 C2623 1.433 . S
C2616 H2612 0.929 . S
C2616 C2618 1.378 . S
C2616 C2620 1.350 . S
C2617 C2620 1.463 . S
C2617 C2622 1.350 . S
C2617 N2625 1.427 . S
C2618 H2609 0.930 . S
C2618 C2616 1.378 . S
C2618 C2619 1.367 . S
C2619 C2618 1.367 . S
C2619 C2621 1.433 . S
C2620 C2616 1.350 . S
C2620 C2617 1.463 . S
C2620 N2624 1.427 . S
C2621 H2611 0.929 . S
C2621 C2619 1.433 . S
C2621 N2624 1.384 . S
C2622 H2613 0.929 . S
C2622 C2614 1.378 . S
C2622 C2617 1.350 . S
C2623 H2610 0.929 . S
C2623 C2615 1.433 . S
C2623 N2625 1.384 . S
N2624 C2620 1.427 . S
N2624 C2621 1.384 . S
N2625 C2617 1.427 . S
N2625 C2623 1.384 . S
H2626 C2632 0.930 . S
H2627 C2636 0.930 . S
H2628 C2641 0.929 . S
H2629 C2639 0.929 . S
H2630 C2634 0.929 . S
H2631 C2640 0.929 . S
C2632 H2626 0.930 . S
C2632 C2633 1.367 . S
C2632 C2640 1.378 . S
C2633 C2632 1.367 . S
C2633 C2641 1.433 . S
C2634 H2630 0.929 . S
C2634 C2636 1.378 . S
C2634 C2638 1.350 . S
C2635 C2638 1.463 . S
C2635 C2640 1.350 . S
C2635 N2643 1.427 . S
C2636 H2627 0.930 . S
C2636 C2634 1.378 . S
C2636 C2637 1.367 . S
C2637 C2636 1.367 . S
C2637 C2639 1.433 . S
C2638 C2634 1.350 . S
C2638 C2635 1.463 . S
C2638 N2642 1.427 . S
C2639 H2629 0.929 . S
C2639 C2637 1.433 . S
C2639 N2642 1.384 . S
C2640 H2631 0.929 . S
C2640 C2632 1.378 . S
C2640 C2635 1.350 . S
C2641 H2628 0.929 . S
C2641 C2633 1.433 . S
C2641 N2643 1.384 . S
N2642 C2638 1.427 . S
N2642 C2639 1.384 . S
N2643 C2635 1.427 . S
N2643 C2641 1.384 . S
H2644 C2650 0.930 . S
H2645 C2654 0.930 . S
H2646 C2659 0.929 . S
H2647 C2657 0.929 . S
H2648 C2652 0.929 . S
H2649 C2658 0.929 . S
C2650 H2644 0.930 . S
C2650 C2651 1.367 . S
C2650 C2658 1.378 . S
C2651 C2650 1.367 . S
C2651 C2659 1.433 . S
C2652 H2648 0.929 . S
C2652 C2654 1.378 . S
C2652 C2656 1.350 . S
C2653 C2656 1.463 . S
C2653 C2658 1.350 . S
C2653 N2661 1.427 . S
C2654 H2645 0.930 . S
C2654 C2652 1.378 . S
C2654 C2655 1.367 . S
C2655 C2654 1.367 . S
C2655 C2657 1.433 . S
C2656 C2652 1.350 . S
C2656 C2653 1.463 . S
C2656 N2660 1.427 . S
C2657 H2647 0.929 . S
C2657 C2655 1.433 . S
C2657 N2660 1.384 . S
C2658 H2649 0.929 . S
C2658 C2650 1.378 . S
C2658 C2653 1.350 . S
C2659 H2646 0.929 . S
C2659 C2651 1.433 . S
C2659 N2661 1.384 . S
N2660 C2656 1.427 . S
N2660 C2657 1.384 . S
N2661 C2653 1.427 . S
N2661 C2659 1.384 . S
H2662 C2668 0.930 . S
H2663 C2672 0.930 . S
H2664 C2677 0.929 . S
H2665 C2675 0.929 . S
H2666 C2670 0.929 . S
H2667 C2676 0.929 . S
C2668 H2662 0.930 . S
C2668 C2669 1.367 . S
C2668 C2676 1.378 . S
C2669 C2668 1.367 . S
C2669 C2677 1.433 . S
C2670 H2666 0.929 . S
C2670 C2672 1.378 . S
C2670 C2674 1.350 . S
C2671 C2674 1.463 . S
C2671 C2676 1.350 . S
C2671 N2679 1.427 . S
C2672 H2663 0.930 . S
C2672 C2670 1.378 . S
C2672 C2673 1.367 . S
C2673 C2672 1.367 . S
C2673 C2675 1.433 . S
C2674 C2670 1.350 . S
C2674 C2671 1.463 . S
C2674 N2678 1.427 . S
C2675 H2665 0.929 . S
C2675 C2673 1.433 . S
C2675 N2678 1.384 . S
C2676 H2667 0.929 . S
C2676 C2668 1.378 . S
C2676 C2671 1.350 . S
C2677 H2664 0.929 . S
C2677 C2669 1.433 . S
C2677 N2679 1.384 . S
N2678 C2674 1.427 . S
N2678 C2675 1.384 . S
N2679 C2671 1.427 . S
N2679 C2677 1.384 . S
H2680 C2686 0.930 . S
H2681 C2690 0.930 . S
H2682 C2695 0.929 . S
H2683 C2693 0.929 . S
H2684 C2688 0.929 . S
H2685 C2694 0.929 . S
C2686 H2680 0.930 . S
C2686 C2687 1.367 . S
C2686 C2694 1.378 . S
C2687 C2686 1.367 . S
C2687 C2695 1.433 1_455 S
C2688 H2684 0.929 . S
C2688 C2690 1.378 . S
C2688 C2692 1.386 . S
C2689 C2692 1.460 1_465 S
C2689 C2694 1.350 . S
C2689 N2697 1.427 1_465 S
C2690 H2681 0.930 . S
C2690 C2688 1.378 . S
C2690 C2691 1.367 . S
C2691 C2690 1.367 . S
C2691 C2693 1.433 1_655 S
C2692 C2688 1.386 . S
C2692 C2689 1.460 1_645 S
C2692 N2696 1.392 1_645 S
C2693 H2683 0.929 . S
C2693 C2691 1.433 1_455 S
C2693 N2696 1.384 1_545 S
C2694 H2685 0.929 . S
C2694 C2686 1.378 . S
C2694 C2689 1.350 . S
C2695 H2682 0.929 . S
C2695 C2687 1.433 1_655 S
C2695 N2697 1.384 1_565 S
N2696 C2692 1.392 1_465 S
N2696 C2693 1.384 1_565 S
N2697 C2689 1.427 1_645 S
N2697 C2695 1.384 1_545 S
H2698 C2704 0.930 . S
H2699 C2708 0.930 . S
H2700 C2713 0.929 . S
H2701 C2711 0.929 . S
H2702 C2706 0.929 . S
H2703 C2712 0.929 . S
C2704 H2698 0.930 . S
C2704 C2705 1.390 . S
C2704 C2712 1.378 . S
C2705 C2704 1.390 . S
C2705 C2713 1.410 1_655 S
C2706 H2702 0.929 . S
C2706 C2708 1.378 . S
C2706 C2710 1.366 . S
C2707 C2710 1.461 1_655 S
C2707 C2712 1.360 . S
C2707 N2715 1.417 1_655 S
C2708 H2699 0.930 . S
C2708 C2706 1.378 . S
C2708 C2709 1.367 . S
C2709 C2708 1.367 . S
C2709 C2711 1.433 1_455 S
C2710 C2706 1.366 . S
C2710 C2707 1.461 1_455 S
C2710 N2714 1.411 1_455 S
C2711 H2701 0.929 . S
C2711 C2709 1.433 1_655 S
C2711 N2714 1.384 . S
C2712 H2703 0.929 . S
C2712 C2704 1.378 . S
C2712 C2707 1.360 . S
C2713 H2700 0.929 . S
C2713 C2705 1.410 1_455 S
C2713 N2715 1.384 . S
N2714 C2710 1.411 1_655 S
N2714 C2711 1.384 . S
N2715 C2707 1.417 1_455 S
N2715 C2713 1.384 . S
H2716 C2722 0.930 . S
H2717 C2726 0.930 . S
H2718 C2731 0.929 . S
H2719 C2729 0.929 . S
H2720 C2724 0.929 . S
H2721 C2730 0.929 . S
C2722 H2716 0.930 . S
C2722 C2723 1.350 1_455 S
C2722 C2730 1.378 . S
C2723 C2722 1.350 1_655 S
C2723 C2731 1.451 . S
C2724 H2720 0.929 . S
C2724 C2726 1.378 . S
C2724 C2728 1.360 . S
C2725 C2728 1.462 . S
C2725 C2730 1.350 1_655 S
C2725 N2733 1.427 . S
C2726 H2717 0.930 . S
C2726 C2724 1.378 . S
C2726 C2727 1.364 1_655 S
C2727 C2726 1.364 1_455 S
C2727 C2729 1.436 . S
C2728 C2724 1.360 . S
C2728 C2725 1.462 . S
C2728 N2732 1.417 1_655 S
C2729 H2719 0.929 . S
C2729 C2727 1.436 . S
C2729 N2732 1.384 . S
C2730 H2721 0.929 . S
C2730 C2722 1.378 . S
C2730 C2725 1.350 1_455 S
C2731 H2718 0.929 . S
C2731 C2723 1.451 . S
C2731 N2733 1.384 . S
N2732 C2728 1.417 1_455 S
N2732 C2729 1.384 . S
N2733 C2725 1.427 . S
N2733 C2731 1.384 . S
H2734 C2740 0.930 . S
H2735 C2744 0.930 . S
H2736 C2749 0.929 . S
H2737 C2747 0.929 . S
H2738 C2742 0.929 . S
H2739 C2748 0.929 . S
C2740 H2734 0.930 . S
C2740 C2741 1.348 1_655 S
C2740 C2748 1.378 . S
C2741 C2740 1.348 1_455 S
C2741 C2749 1.452 . S
C2742 H2738 0.929 . S
C2742 C2744 1.378 . S
C2742 C2746 1.361 . S
C2743 C2746 1.462 1_656 S
C2743 C2748 1.354 . S
C2743 N2751 1.423 1_655 S
C2744 H2735 0.930 . S
C2744 C2742 1.378 . S
C2744 C2745 1.355 1_455 S
C2745 C2744 1.355 1_655 S
C2745 C2747 1.445 . S
C2746 C2742 1.361 . S
C2746 C2743 1.462 1_454 S
C2746 N2750 1.416 1_455 S
C2747 H2737 0.929 . S
C2747 C2745 1.445 . S
C2747 N2750 1.384 . S
C2748 H2739 0.929 . S
C2748 C2740 1.378 . S
C2748 C2743 1.354 . S
C2749 H2736 0.929 . S
C2749 C2741 1.452 . S
C2749 N2751 1.384 . S
N2750 C2746 1.416 1_655 S
N2750 C2747 1.384 . S
N2751 C2743 1.423 1_455 S
N2751 C2749 1.384 . S
H2752 C2758 0.930 . S
H2753 C2762 0.930 . S
H2754 C2767 0.929 1_565 S
H2755 C2765 0.929 . S
H2756 C2760 0.929 . S
H2757 C2766 0.929 . S
C2758 H2752 0.930 . S
C2758 C2759 1.367 . S
C2758 C2766 1.378 . S
C2759 C2758 1.367 . S
C2759 C2767 1.433 . S
C2760 H2756 0.929 . S
C2760 C2762 1.378 . S
C2760 C2764 1.350 . S
C2761 C2764 1.463 . S
C2761 C2766 1.350 . S
C2761 N2769 1.427 . S
C2762 H2753 0.930 . S
C2762 C2760 1.378 . S
C2762 C2763 1.367 . S
C2763 C2762 1.367 . S
C2763 C2765 1.433 . S
C2764 C2760 1.350 . S
C2764 C2761 1.463 . S
C2764 N2768 1.427 . S
C2765 H2755 0.929 . S
C2765 C2763 1.433 . S
C2765 N2768 1.384 . S
C2766 H2757 0.929 . S
C2766 C2758 1.378 . S
C2766 C2761 1.350 . S
C2767 H2754 0.929 1_545 S
C2767 C2759 1.433 . S
C2767 N2769 1.384 . S
N2768 C2764 1.427 . S
N2768 C2765 1.384 . S
N2769 C2761 1.427 . S
N2769 C2767 1.384 . S
H2770 C2776 0.930 . S
H2771 C2780 0.930 . S
H2772 C2785 0.929 . S
H2773 C2783 0.929 . S
H2774 C2778 0.929 . S
H2775 C2784 0.929 . S
C2776 H2770 0.930 . S
C2776 C2777 1.367 . S
C2776 C2784 1.378 . S
C2777 C2776 1.367 . S
C2777 C2785 1.433 . S
C2778 H2774 0.929 . S
C2778 C2780 1.378 . S
C2778 C2782 1.350 . S
C2779 C2782 1.463 . S
C2779 C2784 1.350 . S
C2779 N2787 1.427 . S
C2780 H2771 0.930 . S
C2780 C2778 1.378 . S
C2780 C2781 1.367 . S
C2781 C2780 1.367 . S
C2781 C2783 1.433 . S
C2782 C2778 1.350 . S
C2782 C2779 1.463 . S
C2782 N2786 1.427 . S
C2783 H2773 0.929 . S
C2783 C2781 1.433 . S
C2783 N2786 1.384 . S
C2784 H2775 0.929 . S
C2784 C2776 1.378 . S
C2784 C2779 1.350 . S
C2785 H2772 0.929 . S
C2785 C2777 1.433 . S
C2785 N2787 1.384 . S
N2786 C2782 1.427 . S
N2786 C2783 1.384 . S
N2787 C2779 1.427 . S
N2787 C2785 1.384 . S
H2788 C2794 0.930 1_545 S
H2789 C2798 0.930 . S
H2790 C2803 0.929 . S
H2791 C2801 0.929 . S
H2792 C2796 0.929 . S
H2793 C2802 0.929 . S
C2794 H2788 0.930 1_565 S
C2794 C2795 1.367 . S
C2794 C2802 1.378 . S
C2795 C2794 1.367 . S
C2795 C2803 1.433 . S
C2796 H2792 0.929 . S
C2796 C2798 1.378 . S
C2796 C2800 1.350 . S
C2797 C2800 1.463 . S
C2797 C2802 1.350 . S
C2797 N2805 1.427 . S
C2798 H2789 0.930 . S
C2798 C2796 1.378 . S
C2798 C2799 1.367 . S
C2799 C2798 1.367 . S
C2799 C2801 1.433 . S
C2800 C2796 1.350 . S
C2800 C2797 1.463 . S
C2800 N2804 1.427 . S
C2801 H2791 0.929 . S
C2801 C2799 1.433 . S
C2801 N2804 1.384 . S
C2802 H2793 0.929 . S
C2802 C2794 1.378 . S
C2802 C2797 1.350 . S
C2803 H2790 0.929 . S
C2803 C2795 1.433 . S
C2803 N2805 1.384 . S
N2804 C2800 1.427 . S
N2804 C2801 1.384 . S
N2805 C2797 1.427 . S
N2805 C2803 1.384 . S
H2806 C2812 0.930 . S
H2807 C2816 0.930 . S
H2808 C2821 0.929 . S
H2809 C2819 0.929 . S
H2810 C2814 0.929 . S
H2811 C2820 0.929 . S
C2812 H2806 0.930 . S
C2812 C2813 1.367 . S
C2812 C2820 1.378 . S
C2813 C2812 1.367 . S
C2813 C2821 1.433 . S
C2814 H2810 0.929 . S
C2814 C2816 1.378 . S
C2814 C2818 1.350 . S
C2815 C2818 1.463 . S
C2815 C2820 1.350 . S
C2815 N2823 1.427 . S
C2816 H2807 0.930 . S
C2816 C2814 1.378 . S
C2816 C2817 1.367 . S
C2817 C2816 1.367 . S
C2817 C2819 1.433 . S
C2818 C2814 1.350 . S
C2818 C2815 1.463 . S
C2818 N2822 1.427 . S
C2819 H2809 0.929 . S
C2819 C2817 1.433 . S
C2819 N2822 1.384 . S
C2820 H2811 0.929 . S
C2820 C2812 1.378 . S
C2820 C2815 1.350 . S
C2821 H2808 0.929 . S
C2821 C2813 1.433 . S
C2821 N2823 1.384 . S
N2822 C2818 1.427 . S
N2822 C2819 1.384 . S
N2823 C2815 1.427 . S
N2823 C2821 1.384 . S
H2824 C2830 0.930 . S
H2825 C2834 0.930 . S
H2826 C2839 0.929 . S
H2827 C2837 0.929 . S
H2828 C2832 0.929 . S
H2829 C2838 0.929 . S
C2830 H2824 0.930 . S
C2830 C2831 1.367 . S
C2830 C2838 1.378 . S
C2831 C2830 1.367 . S
C2831 C2839 1.433 . S
C2832 H2828 0.929 . S
C2832 C2834 1.378 . S
C2832 C2836 1.350 . S
C2833 C2836 1.463 . S
C2833 C2838 1.350 . S
C2833 N2841 1.427 . S
C2834 H2825 0.930 . S
C2834 C2832 1.378 . S
C2834 C2835 1.367 . S
C2835 C2834 1.367 . S
C2835 C2837 1.433 . S
C2836 C2832 1.350 . S
C2836 C2833 1.463 . S
C2836 N2840 1.427 . S
C2837 H2827 0.929 . S
C2837 C2835 1.433 . S
C2837 N2840 1.384 . S
C2838 H2829 0.929 . S
C2838 C2830 1.378 . S
C2838 C2833 1.350 . S
C2839 H2826 0.929 . S
C2839 C2831 1.433 . S
C2839 N2841 1.384 . S
N2840 C2836 1.427 . S
N2840 C2837 1.384 . S
N2841 C2833 1.427 . S
N2841 C2839 1.384 . S
H2842 C2848 0.930 . S
H2843 C2852 0.930 . S
H2844 C2857 0.929 . S
H2845 C2855 0.929 . S
H2846 C2850 0.929 . S
H2847 C2856 0.929 . S
C2848 H2842 0.930 . S
C2848 C2849 1.367 . S
C2848 C2856 1.378 . S
C2849 C2848 1.367 . S
C2849 C2857 1.433 . S
C2850 H2846 0.929 . S
C2850 C2852 1.378 . S
C2850 C2854 1.350 . S
C2851 C2854 1.463 . S
C2851 C2856 1.350 . S
C2851 N2859 1.427 . S
C2852 H2843 0.930 . S
C2852 C2850 1.378 . S
C2852 C2853 1.367 . S
C2853 C2852 1.367 . S
C2853 C2855 1.433 . S
C2854 C2850 1.350 . S
C2854 C2851 1.463 . S
C2854 N2858 1.427 . S
C2855 H2845 0.929 . S
C2855 C2853 1.433 . S
C2855 N2858 1.384 . S
C2856 H2847 0.929 . S
C2856 C2848 1.378 . S
C2856 C2851 1.350 . S
C2857 H2844 0.929 . S
C2857 C2849 1.433 . S
C2857 N2859 1.384 . S
N2858 C2854 1.427 . S
N2858 C2855 1.384 . S
N2859 C2851 1.427 . S
N2859 C2857 1.384 . S
H2860 C2866 0.930 . S
H2861 C2870 0.930 . S
H2862 C2875 0.929 . S
H2863 C2873 0.929 . S
H2864 C2868 0.929 . S
H2865 C2874 0.929 . S
C2866 H2860 0.930 . S
C2866 C2867 1.367 . S
C2866 C2874 1.378 . S
C2867 C2866 1.367 . S
C2867 C2875 1.433 . S
C2868 H2864 0.929 . S
C2868 C2870 1.378 . S
C2868 C2872 1.350 . S
C2869 C2872 1.463 . S
C2869 C2874 1.350 . S
C2869 N2877 1.427 . S
C2870 H2861 0.930 . S
C2870 C2868 1.378 . S
C2870 C2871 1.367 . S
C2871 C2870 1.367 . S
C2871 C2873 1.433 . S
C2872 C2868 1.350 . S
C2872 C2869 1.463 . S
C2872 N2876 1.427 . S
C2873 H2863 0.929 . S
C2873 C2871 1.433 . S
C2873 N2876 1.384 . S
C2874 H2865 0.929 . S
C2874 C2866 1.378 . S
C2874 C2869 1.350 . S
C2875 H2862 0.929 . S
C2875 C2867 1.433 . S
C2875 N2877 1.384 . S
N2876 C2872 1.427 . S
N2876 C2873 1.384 . S
N2877 C2869 1.427 . S
N2877 C2875 1.384 . S
H2878 C2884 0.930 . S
H2879 C2888 0.930 . S
H2880 C2893 0.929 . S
H2881 C2891 0.929 . S
H2882 C2886 0.929 . S
H2883 C2892 0.929 . S
C2884 H2878 0.930 . S
C2884 C2885 1.367 . S
C2884 C2892 1.378 . S
C2885 C2884 1.367 . S
C2885 C2893 1.433 . S
C2886 H2882 0.929 . S
C2886 C2888 1.378 . S
C2886 C2890 1.350 . S
C2887 C2890 1.463 . S
C2887 C2892 1.350 . S
C2887 N2895 1.427 . S
C2888 H2879 0.930 . S
C2888 C2886 1.378 . S
C2888 C2889 1.367 . S
C2889 C2888 1.367 . S
C2889 C2891 1.433 . S
C2890 C2886 1.350 . S
C2890 C2887 1.463 . S
C2890 N2894 1.427 . S
C2891 H2881 0.929 . S
C2891 C2889 1.433 . S
C2891 N2894 1.384 . S
C2892 H2883 0.929 . S
C2892 C2884 1.378 . S
C2892 C2887 1.350 . S
C2893 H2880 0.929 . S
C2893 C2885 1.433 . S
C2893 N2895 1.384 . S
N2894 C2890 1.427 . S
N2894 C2891 1.384 . S
N2895 C2887 1.427 . S
N2895 C2893 1.384 . S
H2896 C2902 0.930 . S
H2897 C2906 0.930 . S
H2898 C2911 0.929 . S
H2899 C2909 0.929 . S
H2900 C2904 0.929 . S
H2901 C2910 0.929 . S
C2902 H2896 0.930 . S
C2902 C2903 1.367 . S
C2902 C2910 1.378 . S
C2903 C2902 1.367 . S
C2903 C2911 1.433 . S
C2904 H2900 0.929 . S
C2904 C2906 1.378 . S
C2904 C2908 1.350 . S
C2905 C2908 1.463 . S
C2905 C2910 1.350 . S
C2905 N2913 1.427 . S
C2906 H2897 0.930 . S
C2906 C2904 1.378 . S
C2906 C2907 1.367 . S
C2907 C2906 1.367 . S
C2907 C2909 1.433 . S
C2908 C2904 1.350 . S
C2908 C2905 1.463 . S
C2908 N2912 1.427 . S
C2909 H2899 0.929 . S
C2909 C2907 1.433 . S
C2909 N2912 1.384 . S
C2910 H2901 0.929 . S
C2910 C2902 1.378 . S
C2910 C2905 1.350 . S
C2911 H2898 0.929 . S
C2911 C2903 1.433 . S
C2911 N2913 1.384 . S
N2912 C2908 1.427 . S
N2912 C2909 1.384 . S
N2913 C2905 1.427 . S
N2913 C2911 1.384 . S
H2914 C2920 0.930 . S
H2915 C2924 0.930 . S
H2916 C2929 0.929 . S
H2917 C2927 0.929 . S
H2918 C2922 0.929 . S
H2919 C2928 0.929 . S
C2920 H2914 0.930 . S
C2920 C2921 1.367 . S
C2920 C2928 1.378 . S
C2921 C2920 1.367 . S
C2921 C2929 1.433 . S
C2922 H2918 0.929 . S
C2922 C2924 1.378 . S
C2922 C2926 1.350 . S
C2923 C2926 1.463 . S
C2923 C2928 1.350 . S
C2923 N2931 1.427 . S
C2924 H2915 0.930 . S
C2924 C2922 1.378 . S
C2924 C2925 1.367 . S
C2925 C2924 1.367 . S
C2925 C2927 1.433 . S
C2926 C2922 1.350 . S
C2926 C2923 1.463 . S
C2926 N2930 1.427 . S
C2927 H2917 0.929 . S
C2927 C2925 1.433 . S
C2927 N2930 1.384 . S
C2928 H2919 0.929 . S
C2928 C2920 1.378 . S
C2928 C2923 1.350 . S
C2929 H2916 0.929 . S
C2929 C2921 1.433 . S
C2929 N2931 1.384 . S
N2930 C2926 1.427 . S
N2930 C2927 1.384 . S
N2931 C2923 1.427 . S
N2931 C2929 1.384 . S
H2932 C2938 0.930 . S
H2933 C2942 0.930 . S
H2934 C2947 0.929 . S
H2935 C2945 0.929 . S
H2936 C2940 0.929 . S
H2937 C2946 0.929 . S
C2938 H2932 0.930 . S
C2938 C2939 1.367 . S
C2938 C2946 1.378 . S
C2939 C2938 1.367 . S
C2939 C2947 1.433 . S
C2940 H2936 0.929 . S
C2940 C2942 1.378 . S
C2940 C2944 1.350 . S
C2941 C2944 1.463 . S
C2941 C2946 1.350 . S
C2941 N2949 1.427 . S
C2942 H2933 0.930 . S
C2942 C2940 1.378 . S
C2942 C2943 1.367 . S
C2943 C2942 1.367 . S
C2943 C2945 1.433 . S
C2944 C2940 1.350 . S
C2944 C2941 1.463 . S
C2944 N2948 1.427 . S
C2945 H2935 0.929 . S
C2945 C2943 1.433 . S
C2945 N2948 1.384 . S
C2946 H2937 0.929 . S
C2946 C2938 1.378 . S
C2946 C2941 1.350 . S
C2947 H2934 0.929 . S
C2947 C2939 1.433 . S
C2947 N2949 1.384 . S
N2948 C2944 1.427 . S
N2948 C2945 1.384 . S
N2949 C2941 1.427 . S
N2949 C2947 1.384 . S
H2950 C2956 0.930 . S
H2951 C2960 0.930 1_545 S
H2952 C2965 0.929 . S
H2953 C2963 0.929 . S
H2954 C2958 0.929 . S
H2955 C2964 0.929 . S
C2956 H2950 0.930 . S
C2956 C2957 1.367 . S
C2956 C2964 1.378 . S
C2957 C2956 1.367 . S
C2957 C2965 1.433 . S
C2958 H2954 0.929 . S
C2958 C2960 1.378 . S
C2958 C2962 1.350 . S
C2959 C2962 1.463 . S
C2959 C2964 1.350 . S
C2959 N2967 1.427 . S
C2960 H2951 0.930 1_565 S
C2960 C2958 1.378 . S
C2960 C2961 1.367 . S
C2961 C2960 1.367 . S
C2961 C2963 1.433 . S
C2962 C2958 1.350 . S
C2962 C2959 1.463 . S
C2962 N2966 1.427 . S
C2963 H2953 0.929 . S
C2963 C2961 1.433 . S
C2963 N2966 1.384 . S
C2964 H2955 0.929 . S
C2964 C2956 1.378 . S
C2964 C2959 1.350 . S
C2965 H2952 0.929 . S
C2965 C2957 1.433 . S
C2965 N2967 1.384 . S
N2966 C2962 1.427 . S
N2966 C2963 1.384 . S
N2967 C2959 1.427 . S
N2967 C2965 1.384 . S
H2968 C2974 0.930 . S
H2969 C2978 0.930 . S
H2970 C2983 0.929 . S
H2971 C2981 0.929 . S
H2972 C2976 0.929 . S
H2973 C2982 0.929 . S
C2974 H2968 0.930 . S
C2974 C2975 1.367 . S
C2974 C2982 1.378 . S
C2975 C2974 1.367 . S
C2975 C2983 1.433 . S
C2976 H2972 0.929 . S
C2976 C2978 1.378 . S
C2976 C2980 1.350 . S
C2977 C2980 1.463 . S
C2977 C2982 1.350 . S
C2977 N2985 1.427 . S
C2978 H2969 0.930 . S
C2978 C2976 1.378 . S
C2978 C2979 1.367 . S
C2979 C2978 1.367 . S
C2979 C2981 1.433 . S
C2980 C2976 1.350 . S
C2980 C2977 1.463 . S
C2980 N2984 1.427 . S
C2981 H2971 0.929 . S
C2981 C2979 1.433 . S
C2981 N2984 1.384 . S
C2982 H2973 0.929 . S
C2982 C2974 1.378 . S
C2982 C2977 1.350 . S
C2983 H2970 0.929 . S
C2983 C2975 1.433 . S
C2983 N2985 1.384 . S
N2984 C2980 1.427 . S
N2984 C2981 1.384 . S
N2985 C2977 1.427 . S
N2985 C2983 1.384 . S
H2986 C2992 0.930 . S
H2987 C2996 0.930 . S
H2988 C3001 0.929 . S
H2989 C2999 0.929 . S
H2990 C2994 0.929 . S
H2991 C3000 0.929 . S
C2992 H2986 0.930 . S
C2992 C2993 1.367 . S
C2992 C3000 1.378 . S
C2993 C2992 1.367 . S
C2993 C3001 1.433 . S
C2994 H2990 0.929 . S
C2994 C2996 1.378 . S
C2994 C2998 1.350 . S
C2995 C2998 1.463 . S
C2995 C3000 1.350 . S
C2995 N3003 1.427 . S
C2996 H2987 0.930 . S
C2996 C2994 1.378 . S
C2996 C2997 1.367 . S
C2997 C2996 1.367 . S
C2997 C2999 1.433 . S
C2998 C2994 1.350 . S
C2998 C2995 1.463 . S
C2998 N3002 1.427 . S
C2999 H2989 0.929 . S
C2999 C2997 1.433 . S
C2999 N3002 1.384 . S
C3000 H2991 0.929 . S
C3000 C2992 1.378 . S
C3000 C2995 1.350 . S
C3001 H2988 0.929 . S
C3001 C2993 1.433 . S
C3001 N3003 1.384 . S
N3002 C2998 1.427 . S
N3002 C2999 1.384 . S
N3003 C2995 1.427 . S
N3003 C3001 1.384 . S
H3004 C3010 0.930 . S
H3005 C3014 0.930 . S
H3006 C3019 0.929 . S
H3007 C3017 0.929 . S
H3008 C3012 0.929 . S
H3009 C3018 0.929 . S
C3010 H3004 0.930 . S
C3010 C3011 1.367 . S
C3010 C3018 1.378 . S
C3011 C3010 1.367 . S
C3011 C3019 1.433 . S
C3012 H3008 0.929 . S
C3012 C3014 1.378 . S
C3012 C3016 1.350 . S
C3013 C3016 1.463 . S
C3013 C3018 1.350 . S
C3013 N3021 1.427 . S
C3014 H3005 0.930 . S
C3014 C3012 1.378 . S
C3014 C3015 1.367 . S
C3015 C3014 1.367 . S
C3015 C3017 1.433 . S
C3016 C3012 1.350 . S
C3016 C3013 1.463 . S
C3016 N3020 1.427 . S
C3017 H3007 0.929 . S
C3017 C3015 1.433 . S
C3017 N3020 1.384 . S
C3018 H3009 0.929 . S
C3018 C3010 1.378 . S
C3018 C3013 1.350 . S
C3019 H3006 0.929 . S
C3019 C3011 1.433 . S
C3019 N3021 1.384 . S
N3020 C3016 1.427 . S
N3020 C3017 1.384 . S
N3021 C3013 1.427 . S
N3021 C3019 1.384 . S
H3022 C3028 0.930 . S
H3023 C3032 0.930 . S
H3024 C3037 0.929 . S
H3025 C3035 0.929 . S
H3026 C3030 0.929 . S
H3027 C3036 0.929 . S
C3028 H3022 0.930 . S
C3028 C3029 1.367 . S
C3028 C3036 1.378 . S
C3029 C3028 1.367 . S
C3029 C3037 1.433 . S
C3030 H3026 0.929 . S
C3030 C3032 1.378 . S
C3030 C3034 1.350 . S
C3031 C3034 1.463 . S
C3031 C3036 1.350 . S
C3031 N3039 1.427 . S
C3032 H3023 0.930 . S
C3032 C3030 1.378 . S
C3032 C3033 1.367 . S
C3033 C3032 1.367 . S
C3033 C3035 1.433 . S
C3034 C3030 1.350 . S
C3034 C3031 1.463 . S
C3034 N3038 1.427 . S
C3035 H3025 0.929 . S
C3035 C3033 1.433 . S
C3035 N3038 1.384 . S
C3036 H3027 0.929 . S
C3036 C3028 1.378 . S
C3036 C3031 1.350 . S
C3037 H3024 0.929 . S
C3037 C3029 1.433 . S
C3037 N3039 1.384 . S
N3038 C3034 1.427 . S
N3038 C3035 1.384 . S
N3039 C3031 1.427 . S
N3039 C3037 1.384 . S
C1895 C33 1.334 . S
C1899 C151 1.334 . S
C1913 C210 1.296 . S
C1917 C92 1.302 . S
C1931 C387 1.330 . S
C1935 C269 1.324 . S
C1949 C446 1.297 . S
C1953 C328 1.300 . S
C1967 C505 1.332 . S
C1971 C623 1.339 . S
C1985 C682 1.310 . S
C1989 C564 1.309 . S
C2003 C741 1.333 . S
C2007 C859 1.337 . S
C2021 C918 1.304 . S
C2025 C800 1.308 . S
C2039 C977 1.294 . S
C2043 C1095 1.299 . S
C2057 C1036 1.310 . S
C2061 C1154 1.307 . S
C2075 C1331 1.304 . S
C2079 C1213 1.304 . S
C2093 C1272 1.310 . S
C2097 C1390 1.307 . S
C2111 C1567 1.302 . S
C2115 C1449 1.299 . S
C2129 C1626 1.318 . S
C2133 C1508 1.320 . S
C2147 C1803 1.298 . S
C2151 C1685 1.299 . S
C2165 C1744 1.316 . S
C2169 C1862 1.312 . S
C2183 C1480 1.507 . S
C2187 C5 1.509 . S
C2201 C64 1.452 . S
C2205 C1421 1.449 . S
C2219 C123 1.467 . S
C2223 C1598 1.463 . S
C2237 C182 1.402 . S
C2241 C1539 1.400 . S
C2255 C1716 1.495 . S
C2259 C241 1.494 . S
C2273 C300 1.470 . S
C2277 C1657 1.467 . S
C2291 C359 1.481 . S
C2295 C1834 1.480 . S
C2309 C1775 1.397 . S
C2313 C418 1.392 . S
C2327 C477 1.509 . S
C2331 C1008 1.504 . S
C2345 C536 1.437 . S
C2349 C949 1.426 . S
C2363 C595 1.497 . S
C2367 C1126 1.503 . S
C2381 C654 1.434 . S
C2385 C1067 1.435 . S
C2399 C713 1.516 . S
C2403 C1244 1.511 . S
C2417 C1185 1.430 . S
C2421 C772 1.429 . S
C2435 C1362 1.496 . S
C2439 C831 1.487 . S
C2453 C890 1.425 . S
C2457 C1303 1.429 . S
C2471 C3 1.441 . S
C2475 C239 1.441 . S
C2489 C62 1.416 . S
C2493 C1714 1.416 . S
C2507 C121 1.441 . S
C2511 C829 1.442 . S
C2525 C180 1.398 . S
C2529 C1360 1.398 . S
C2543 C298 1.418 . S
C2547 C1478 1.419 . S
C2561 C593 1.439 . S
C2565 C357 1.438 . S
C2579 C1124 1.402 . S
C2583 C416 1.402 . S
C2597 C711 1.432 . S
C2601 C475 1.432 . S
C2615 C534 1.414 . S
C2619 C1242 1.415 . S
C2633 C1832 1.402 . S
C2637 C652 1.402 . S
C2651 C770 1.418 . S
C2655 C1006 1.419 . S
C2669 C888 1.408 . S
C2673 C1596 1.408 . S
C2687 C1183 1.443 1_455 S
C2691 C947 1.441 1_655 S
C2705 C1065 1.411 1_655 S
C2709 C1773 1.415 1_455 S
C2723 C1537 1.414 1_655 S
C2727 C1301 1.417 1_455 S
C2741 C1655 1.416 1_455 S
C2745 C1419 1.416 1_655 S
C2759 C52 1.726 . S
C2763 C111 1.730 . S
C2777 C170 1.675 . S
C2781 C229 1.676 . S
C2795 C288 1.739 . S
C2799 C347 1.744 . S
C2813 C406 1.666 . S
C2817 C465 1.675 . S
C2831 C583 1.696 . S
C2835 C524 1.691 . S
C2849 C642 1.748 . S
C2853 C701 1.748 . S
C2867 C760 1.682 . S
C2871 C819 1.695 . S
C2885 C878 1.742 . S
C2889 C937 1.745 . S
C2903 C996 1.782 . S
C2907 C1055 1.777 . S
C2921 C1173 1.711 . S
C2925 C1114 1.711 . S
C2939 C1232 1.778 . S
C2943 C1291 1.774 . S
C2957 C1350 1.713 . S
C2961 C1409 1.715 . S
C2975 C1527 1.732 . S
C2979 C1468 1.741 . S
C2993 C1586 1.724 . S
C2997 C1645 1.729 . S
C3011 C1763 1.747 . S
C3015 C1704 1.750 . S
C3029 C1822 1.730 . S
C3033 C1881 1.737 . S
