# Generated by pormake.
# Topology nbo, (4)-cn, num edge types: 1
# Building blocks:
#     Node 0, Type 0, BuildingBlock: ESEHIV_clean_sbu_0, # of connection points: 4
#     Node 1, Type 0, BuildingBlock: ESEHIV_clean_sbu_0, # of connection points: 4
#     Node 2, Type 0, BuildingBlock: ESEHIV_clean_sbu_0, # of connection points: 4
#     Node 3, Type 0, BuildingBlock: ESEHIV_clean_sbu_0, # of connection points: 4
#     Node 4, Type 0, BuildingBlock: ESEHIV_clean_sbu_0, # of connection points: 4
#     Node 5, Type 0, BuildingBlock: ESEHIV_clean_sbu_0, # of connection points: 4
#     Edge 6, Type (0, 0), BuildingBlock: XUDNAN_clean_linker_2, # of connection points: 2
#     Edge 7, Type (0, 0), BuildingBlock: XUDNAN_clean_linker_2, # of connection points: 2
#     Edge 8, Type (0, 0), BuildingBlock: XUDNAN_clean_linker_2, # of connection points: 2
#     Edge 9, Type (0, 0), BuildingBlock: XUDNAN_clean_linker_2, # of connection points: 2
#     Edge 10, Type (0, 0), BuildingBlock: XUDNAN_clean_linker_2, # of connection points: 2
#     Edge 11, Type (0, 0), BuildingBlock: XUDNAN_clean_linker_2, # of connection points: 2
#     Edge 12, Type (0, 0), BuildingBlock: XUDNAN_clean_linker_2, # of connection points: 2
#     Edge 13, Type (0, 0), BuildingBlock: XUDNAN_clean_linker_2, # of connection points: 2
#     Edge 14, Type (0, 0), BuildingBlock: XUDNAN_clean_linker_2, # of connection points: 2
#     Edge 15, Type (0, 0), BuildingBlock: XUDNAN_clean_linker_2, # of connection points: 2
#     Edge 16, Type (0, 0), BuildingBlock: XUDNAN_clean_linker_2, # of connection points: 2
#     Edge 17, Type (0, 0), BuildingBlock: XUDNAN_clean_linker_2, # of connection points: 2
# Relax obj value: 0.000
# Max RMSD: 0.094
# Mean RMSD: 0.094
data_MOF--net-nbo--node1-ESEHIV_clean_sbu_0--edge1-XUDNAN_clean_linker_2
_symmetry_space_group_name_H-M    P1
_symmetry_Int_Tables_number       1
_symmetry_cell_setting            triclinic
loop_
_symmetry_equiv_pos_as_xyz
'x, y, z'
_cell_length_a     29.231018
_cell_length_b     34.143964
_cell_length_c     31.838699
_cell_angle_alpha  103.7906
_cell_angle_beta   103.85407
_cell_angle_gamma 103.62911
loop_
_atom_site_label
_atom_site_type_symbol
_atom_site_fract_x
_atom_site_fract_y
_atom_site_fract_z
_atom_type_partial_charge
Cu0 Cu 0.15371 0.14438 0.58274 0.0
N1 N 0.1763 0.20336 0.61078 0.0
N2 N 0.17823 0.27062 0.61799 0.0
C3 C 0.15525 0.22947 0.59338 0.0
C4 C 0.21576 0.27061 0.65225 0.0
C5 C 0.21437 0.22896 0.64785 0.0
O6 O 0.08184 0.12967 0.55454 0.0
C7 C 0.23894 0.13948 0.56222 0.0
O8 O 0.25606 0.15839 0.60641 0.0
H9 H 0.12395 0.21835 0.56259 0.0
H10 H 0.23959 0.21834 0.66989 0.0
N11 N 0.16153 0.11162 0.6217 0.0
N12 N 0.15597 0.05016 0.63662 0.0
C13 C 0.13942 0.06944 0.60647 0.0
C14 C 0.19331 0.11972 0.66337 0.0
C15 C 0.19001 0.08169 0.67264 0.0
C16 C 0.05954 0.14351 0.582 0.0
O17 O 0.0856 0.16472 0.62467 0.0
H18 H 0.11408 0.05293 0.57236 0.0
H19 H 0.21888 0.15051 0.68445 0.0
O20 O 0.19256 0.13045 0.54222 0.0
H21 H 0.24193 0.29857 0.67876 0.0
H22 H 0.21198 0.07747 0.70284 0.0
Cu23 Cu 0.50042 1.0042 0.97847 0.0
N24 N 0.45615 0.94939 0.96416 0.0
N25 N 0.42876 0.88134 0.96151 0.0
C26 C 0.46887 0.91533 0.97117 0.0
C27 C 0.38938 0.89478 0.94801 0.0
C28 C 0.40631 0.93661 0.94989 0.0
O29 O 0.54267 1.01685 0.0403 0.0
C30 C 0.51029 0.98786 0.89223 0.0
O31 O 0.46213 0.97119 0.8819 0.0
H32 H 0.50689 0.91579 0.98371 0.0
H33 H 0.3837 0.95657 0.94283 0.0
N34 N 0.46888 0.04625 0.97721 0.0
N35 N 0.45887 0.11088 0.99121 0.0
C36 C 0.48728 0.08707 1.00424 0.0
C37 C 0.42752 0.04419 0.9459 0.0
C38 C 0.4211 0.08375 0.95455 0.0
C39 C 0.51891 1.0098 0.06782 0.0
O40 O 0.47024 0.99806 0.05329 0.0
H41 H 0.52211 0.09937 0.0316 0.0
H42 H 0.40457 1.01634 0.9176 0.0
O43 O 0.53623 1.00398 0.9341 0.0
H44 H 0.3509 0.87623 0.93888 0.0
H45 H 0.39122 0.09188 0.93479 0.0
Cu46 Cu 0.97431 0.55302 0.98419 0.0
N47 N 0.97373 0.5899 0.94908 0.0
N48 N 0.97412 0.61263 0.88868 0.0
C49 C 0.98696 0.58572 0.91083 0.0
C50 C 0.95225 0.63476 0.9142 0.0
C51 C 0.95209 0.62069 0.95141 0.0
O52 O 1.01409 0.51812 0.96466 0.0
C53 C 0.8726 0.50884 0.93494 0.0
O54 O 0.88596 0.51201 0.89901 0.0
H55 H 1.00282 0.56157 0.89799 0.0
H56 H 0.93524 0.6307 0.97715 0.0
N57 N 1.00248 0.5832 0.04676 0.0
N58 N 1.01973 0.60007 0.12273 0.0
C59 C 0.98966 0.57267 0.08164 0.0
C60 C 0.0417 0.61855 0.06635 0.0
C61 C 0.05241 0.62901 0.11302 0.0
C62 C 0.04344 0.50614 0.99159 0.0
O63 O 0.04301 0.51279 0.03384 0.0
H64 H 0.95984 0.54469 0.07689 0.0
H65 H 0.06155 0.63521 0.04793 0.0
O66 O 0.90568 0.52155 0.97372 0.0
H67 H 0.9364 0.65867 0.90598 0.0
H68 H 0.08203 0.65597 0.13782 0.0
Cu69 Cu 0.46501 0.49968 0.99881 0.0
N70 N 0.47907 0.5585 0.02489 0.0
N71 N 0.47433 0.62372 0.02729 0.0
C72 C 0.45732 0.58196 1.00319 0.0
C73 C 0.50855 0.62661 0.06588 0.0
C74 C 0.51136 0.58635 0.06433 0.0
O75 O 0.39382 0.47899 0.96689 0.0
C76 C 0.55421 0.5023 0.98671 0.0
O77 O 0.56532 0.51888 0.03098 0.0
H78 H 0.43019 0.56845 0.96963 0.0
H79 H 0.53561 0.57817 0.08991 0.0
N80 N 0.47695 0.46896 0.0399 0.0
N81 N 0.48536 0.41288 0.06253 0.0
C82 C 0.47463 0.42776 0.02683 0.0
C83 C 0.48963 0.48085 0.0856 0.0
C84 C 0.49484 0.44636 0.09965 0.0
C85 C 0.36821 0.48166 0.99418 0.0
O86 O 0.39169 0.49562 0.03815 0.0
H87 H 0.46607 0.40939 0.9916 0.0
H88 H 0.49457 0.51223 0.10716 0.0
O89 O 0.50896 0.49137 0.96231 0.0
H90 H 0.52985 0.65561 0.09341 0.0
H91 H 0.50435 0.44602 0.13452 0.0
Cu92 Cu 0.09187 0.62548 0.53684 0.0
N93 N 0.12997 0.5888 0.54299 0.0
N94 N 0.14872 0.53128 0.55385 0.0
C95 C 0.11405 0.55143 0.55031 0.0
C96 C 0.18812 0.55705 0.54836 0.0
C97 C 0.17635 0.59242 0.54142 0.0
O98 O 0.04876 0.61798 0.57478 0.0
C99 C 0.08437 0.62275 0.44715 0.0
O100 O 0.13236 0.64059 0.46691 0.0
H101 H 0.07776 0.53964 0.55363 0.0
H102 H 0.19982 0.61865 0.5353 0.0
N103 N 0.12976 0.68282 0.55976 0.0
N104 N 0.14493 0.75332 0.57896 0.0
C105 C 0.11026 0.7147 0.55905 0.0
C106 C 0.17859 0.7016 0.5812 0.0
C107 C 0.1881 0.74505 0.59294 0.0
C108 C 0.07108 0.62222 0.61612 0.0
O109 O 0.11953 0.63102 0.62925 0.0
H110 H 0.07097 0.70924 0.54489 0.0
H111 H 0.20536 0.68505 0.58837 0.0
O112 O 0.05756 0.61281 0.47168 0.0
H113 H 0.2226 0.55048 0.54845 0.0
H114 H 0.22414 0.76851 0.61031 0.0
Cu115 Cu 0.59874 0.03455 0.50662 0.0
N116 N 0.59036 1.00321 0.44688 0.0
N117 N 0.58978 0.99067 0.37465 0.0
C118 C 0.59676 1.02043 0.414 0.0
C119 C 0.57871 0.95323 0.38298 0.0
C120 C 0.5797 0.9611 0.42779 0.0
O121 O 0.66829 0.06975 0.53029 0.0
C122 C 0.50649 0.04696 0.47733 0.0
O123 O 0.49721 1.00918 0.44871 0.0
H124 H 0.60594 0.05416 0.4188 0.0
H125 H 0.57408 0.93773 0.44523 0.0
N126 N 0.58565 0.9997 0.54241 0.0
N127 N 0.57695 0.98196 0.60405 0.0
C128 C 0.60114 1.01132 0.58832 0.0
C129 C 0.5504 0.96186 0.52874 0.0
C130 C 0.54531 0.95067 0.56651 0.0
C131 C 0.70004 0.05027 0.52579 0.0
O132 O 0.68437 1.00864 0.50968 0.0
H133 H 0.62672 0.0421 0.60968 0.0
H134 H 0.52727 0.945 0.494 0.0
O135 O 0.55012 0.06572 0.50545 0.0
H136 H 0.57142 0.92254 0.35867 0.0
H137 H 0.51866 0.92254 0.56629 0.0
H138 H 0.23986 0.34988 0.63349 0.0
H139 H 0.08554 0.27222 0.5811 0.0
H140 H 0.06149 0.33129 0.56037 0.0
H141 H 0.21817 0.45048 0.68012 0.0
H142 H 0.26648 0.48121 0.66422 0.0
H143 H 0.27152 0.43348 0.67708 0.0
H144 H 0.28212 0.40398 0.59834 0.0
H145 H 0.27677 0.45146 0.58511 0.0
H146 H 0.2357 0.40035 0.54748 0.0
H147 H 0.05407 0.3973 0.54295 0.0
H148 H 0.0635 0.46664 0.5301 0.0
H149 H 0.22261 0.50282 0.5937 0.0
C150 C 0.201 0.34563 0.61828 0.0
C151 C 0.16455 0.30637 0.60876 0.0
C152 C 0.11411 0.30179 0.58817 0.0
C153 C 0.10006 0.33524 0.57649 0.0
C154 C 0.13688 0.37321 0.58555 0.0
C155 C 0.18631 0.37875 0.60607 0.0
C156 C 0.21845 0.42251 0.61064 0.0
C157 C 0.24523 0.44845 0.66101 0.0
C158 C 0.25544 0.41936 0.58378 0.0
C159 C 0.17936 0.44045 0.58911 0.0
C160 C 0.13258 0.41148 0.57517 0.0
C161 C 0.09048 0.42039 0.55403 0.0
C162 C 0.09622 0.46004 0.54708 0.0
C163 C 0.14375 0.49047 0.56108 0.0
C164 C 0.18583 0.48026 0.58229 0.0
H165 H 0.98126 0.07036 0.53451 0.0
H166 H 1.01753 0.20521 0.60069 0.0
H167 H 0.92885 0.19711 0.58985 0.0
H168 H 0.85925 0.05561 0.45182 0.0
H169 H 0.83136 1.00499 0.45766 0.0
H170 H 0.89673 1.02238 0.46481 0.0
H171 H 0.91581 1.0121 0.5445 0.0
H172 H 0.85063 0.99524 0.53786 0.0
H173 H 0.89231 0.0391 0.58638 0.0
H174 H 0.83684 0.17359 0.57756 0.0
H175 H 0.74839 0.13621 0.56358 0.0
H176 H 0.77224 1.01626 0.50841 0.0
C177 C 0.97014 0.09826 0.54518 0.0
C178 C 1.00596 0.13857 0.56757 0.0
C179 C 0.99043 0.17418 0.58288 0.0
C180 C 0.94018 0.16987 0.57695 0.0
C181 C 0.90573 0.12958 0.55602 0.0
C182 C 0.91994 0.09437 0.54017 0.0
C183 C 0.87595 0.05425 0.52229 0.0
C184 C 0.86519 0.03307 0.4711 0.0
C185 C 0.88419 1.02337 0.54939 0.0
C186 C 0.83521 0.07234 0.53123 0.0
C187 C 0.853 0.11589 0.55029 0.0
C188 C 0.8224 0.13947 0.56234 0.0
C189 C 0.77223 0.11798 0.55444 0.0
C190 C 0.7532 0.0733 0.53505 0.0
C191 C 0.78544 0.05043 0.5234 0.0
H192 H 0.2092 0.83144 0.63445 0.0
H193 H 0.06262 0.7696 0.53476 0.0
H194 H 0.04814 0.83846 0.54405 0.0
H195 H 0.17731 0.91254 0.70782 0.0
H196 H 0.23446 0.95342 0.71883 0.0
H197 H 0.233 0.89874 0.70689 0.0
H198 H 0.26835 0.9041 0.64052 0.0
H199 H 0.27027 0.95882 0.65245 0.0
H200 H 0.23707 0.92195 0.59623 0.0
H201 H 0.04927 0.91364 0.56202 0.0
H202 H 0.06843 0.99134 0.58415 0.0
H203 H 0.21535 1.00608 0.66957 0.0
C204 C 0.17402 0.8321 0.61445 0.0
C205 C 0.13692 0.79432 0.58424 0.0
C206 C 0.09147 0.79736 0.55893 0.0
C207 C 0.08281 0.83658 0.5638 0.0
C208 C 0.11994 0.87286 0.59394 0.0
C209 C 0.1648 0.87115 0.61862 0.0
C210 C 0.19923 0.91536 0.64711 0.0
C211 C 0.21172 0.92029 0.6982 0.0
C212 C 0.24652 0.92565 0.63323 0.0
C213 C 0.16682 0.9421 0.634 0.0
C214 C 0.12106 0.91676 0.60365 0.0
C215 C 0.085 0.93384 0.58574 0.0
C216 C 0.09631 0.97804 0.59838 0.0
C217 C 0.14345 1.0049 0.62839 0.0
C218 C 0.17881 0.9865 0.64704 0.0
H219 H 0.49614 0.10311 0.55014 0.0
H220 H 0.42102 0.02813 0.40855 0.0
H221 H 0.34602 0.04809 0.41263 0.0
H222 H 0.39443 0.0734 0.58798 0.0
H223 H 0.40711 0.12423 0.62917 0.0
H224 H 0.45707 0.10879 0.61372 0.0
H225 H 0.48252 0.17694 0.5912 0.0
H226 H 0.43276 0.19276 0.60693 0.0
H227 H 0.43718 0.18846 0.5506 0.0
H228 H 0.27605 0.07089 0.43406 0.0
H229 H 0.21802 0.09526 0.47146 0.0
H230 H 0.33845 0.15446 0.59893 0.0
C231 C 0.46441 0.09195 0.51968 0.0
C232 C 0.46469 0.06441 0.47888 0.0
C233 C 0.42181 0.04944 0.44013 0.0
C234 C 0.37896 0.06064 0.44207 0.0
C235 C 0.3793 0.08685 0.48309 0.0
C236 C 0.42101 0.10251 0.52116 0.0
C237 C 0.41042 0.12744 0.56197 0.0
C238 C 0.41768 0.10725 0.60046 0.0
C239 C 0.44264 0.17418 0.57864 0.0
C240 C 0.35621 0.12271 0.54111 0.0
C241 C 0.33893 0.09951 0.4955 0.0
C242 C 0.28936 0.08954 0.46969 0.0
C243 C 0.2566 0.10347 0.49118 0.0
C244 C 0.2735 0.12692 0.53806 0.0
C245 C 0.32417 0.13686 0.56294 0.0
H246 H 0.52861 0.94279 0.29054 0.0
H247 H 0.65565 0.05475 0.36353 0.0
H248 H 0.6572 0.06849 0.29077 0.0
H249 H 0.5622 0.91049 0.18573 0.0
H250 H 0.4989 0.89446 0.14966 0.0
H251 H 0.51215 0.89067 0.20655 0.0
H252 H 0.45601 0.93673 0.22457 0.0
H253 H 0.4427 0.94062 0.16784 0.0
H254 H 0.46795 0.98814 0.21622 0.0
H255 H 0.64221 0.07111 0.20945 0.0
H256 H 0.60673 0.06633 0.12852 0.0
H257 H 0.48669 0.95542 0.1113 0.0
C258 C 0.55738 0.9696 0.29094 0.0
C259 C 0.59234 0.99749 0.33233 0.0
C260 C 0.62859 0.03307 0.33197 0.0
C261 C 0.62994 0.0409 0.29086 0.0
C262 C 0.5945 1.01298 0.25053 0.0
C263 C 0.55867 0.9782 0.25038 0.0
C264 C 0.52182 0.95539 0.20335 0.0
C265 C 0.52392 0.91007 0.18527 0.0
C266 C 0.46902 0.95525 0.203 0.0
C267 C 0.54181 0.98325 0.17725 0.0
C268 C 0.58441 1.01574 0.20462 0.0
C269 C 0.60894 0.04572 0.1877 0.0
C270 C 0.58873 0.04277 0.14184 0.0
C271 C 0.54399 1.01075 0.11416 0.0
C272 C 0.52083 0.98042 0.132 0.0
H273 H 0.09706 0.63268 0.20188 0.0
H274 H 0.93996 0.56337 0.14607 0.0
H275 H 0.93828 0.56114 0.22284 0.0
H276 H 0.12722 0.57742 0.28204 0.0
H277 H 0.17215 0.62404 0.32507 0.0
H278 H 0.16045 0.6199 0.26577 0.0
H279 H 0.14039 0.69099 0.28085 0.0
H280 H 0.15202 0.69534 0.3402 0.0
H281 H 0.09343 0.69711 0.30743 0.0
H282 H 0.9545 0.56796 0.30799 0.0
H283 H 0.98756 0.58141 0.39129 0.0
H284 H 0.13358 0.64598 0.38949 0.0
C285 C 0.0621 0.61732 0.20564 0.0
C286 C 1.01857 0.59833 0.16759 0.0
C287 C 0.97394 0.57786 0.17437 0.0
C288 C 0.97257 0.57663 0.21801 0.0
C289 C 1.01619 0.59586 0.25474 0.0
C290 C 0.06014 0.61567 0.24881 0.0
C291 C 0.1021 0.63363 0.29345 0.0
C292 C 0.14288 0.61247 0.29145 0.0
C293 C 0.12321 0.68214 0.30622 0.0
C294 C 0.07502 0.62107 0.3256 0.0
C295 C 1.02546 0.59936 0.30287 0.0
C296 C 0.99331 0.58489 0.32599 0.0
C297 C 1.01238 0.5927 0.37336 0.0
C298 C 0.0632 0.6147 0.39719 0.0
C299 C 0.09457 0.62898 0.37259 0.0
H300 H 0.50156 0.94841 0.63371 0.0
H301 H 0.65581 1.0255 0.6804 0.0
H302 H 0.65755 0.03381 0.76033 0.0
H303 H 0.46626 1.00765 0.72069 0.0
H304 H 0.42389 0.96191 0.7247 0.0
H305 H 0.43605 0.96088 0.67172 0.0
H306 H 0.46213 0.89319 0.67026 0.0
H307 H 0.45 0.89399 0.72327 0.0
H308 H 0.51004 0.89364 0.71825 0.0
H309 H 0.64087 0.03417 0.83598 0.0
H310 H 0.60671 0.02862 0.89928 0.0
H311 H 0.46372 0.95137 0.80091 0.0
C312 C 0.53605 0.96643 0.66056 0.0
C313 C 0.57874 0.98598 0.65067 0.0
C314 C 0.62263 1.01034 0.68715 0.0
C315 C 0.62399 1.01504 0.73261 0.0
C316 C 0.58109 0.99531 0.74105 0.0
C317 C 0.53793 0.97158 0.70588 0.0
C318 C 0.49623 0.9548 0.72361 0.0
C319 C 0.45308 0.97238 0.70934 0.0
C320 C 0.47859 0.90601 0.70792 0.0
C321 C 0.52248 0.97285 0.77434 0.0
C322 C 0.57146 0.99596 0.78394 0.0
C323 C 0.60258 1.01602 0.82875 0.0
C324 C 0.58291 1.01265 0.86449 0.0
C325 C 0.53255 0.98956 0.85515 0.0
C326 C 0.50237 0.96924 0.80938 0.0
H327 H 0.10391 0.60553 0.69554 0.0
H328 H 0.97885 0.63035 0.6138 0.0
H329 H 0.93926 0.62955 0.67455 0.0
H330 H 0.03219 0.53379 0.74156 0.0
H331 H 0.07948 0.55263 0.79622 0.0
H332 H 0.09647 0.55384 0.74565 0.0
H333 H 0.14276 0.63437 0.78231 0.0
H334 H 0.12565 0.63349 0.83284 0.0
H335 H 0.10995 0.66947 0.80282 0.0
H336 H 0.9168 0.63117 0.74765 0.0
H337 H 0.9098 0.62895 0.82304 0.0
H338 H 0.04841 0.60027 0.85492 0.0
C339 C 0.06798 0.61051 0.69017 0.0
C340 C 0.0445 0.61821 0.64997 0.0
C341 C 0.99738 0.62424 0.64421 0.0
C342 C 0.97478 0.62399 0.67862 0.0
C343 C 0.99947 0.61704 0.71822 0.0
C344 C 0.04475 0.60978 0.72375 0.0
C345 C 0.06381 0.60307 0.76931 0.0
C346 C 0.06823 0.55816 0.76278 0.0
C347 C 0.11347 0.63714 0.79853 0.0
C348 C 1.02263 0.6084 0.78911 0.0
C349 C 0.98593 0.61664 0.75928 0.0
C350 C 0.94513 0.62436 0.77099 0.0
C351 C 0.94165 0.62334 0.81404 0.0
C352 C 0.9785 0.61434 0.84485 0.0
C353 C 1.01936 0.60668 0.83191 0.0
H354 H 0.11722 0.48525 0.04365 0.0
H355 H 0.06104 0.49562 0.90901 0.0
H356 H 0.13421 0.48128 0.89057 0.0
H357 H 0.23887 0.54009 0.06329 0.0
H358 H 0.26507 0.50837 0.09393 0.0
H359 H 0.20487 0.51258 0.09358 0.0
H360 H 0.16727 0.43066 0.06211 0.0
H361 H 0.22759 0.42618 0.06253 0.0
H362 H 0.17601 0.40214 1.0107 0.0
H363 H 0.21968 0.47439 0.89068 0.0
H364 H 0.30794 0.47653 0.91015 0.0
H365 H 0.30606 0.47085 0.04437 0.0
C366 C 0.11948 0.48338 1.00981 0.0
C367 C 0.08311 0.49132 0.97774 0.0
C368 C 0.08816 0.4893 0.93411 0.0
C369 C 0.12965 0.48115 0.92329 0.0
C370 C 0.16561 0.47471 0.95628 0.0
C371 C 0.16056 0.47541 0.99855 0.0
C372 C 0.20605 0.47138 0.02959 0.0
C373 C 0.23012 0.51043 0.0726 0.0
C374 C 0.19346 0.43013 0.04194 0.0
C375 C 0.23825 0.46972 0.99884 0.0
C376 C 0.2143 0.47105 0.95642 0.0
C377 C 0.23844 0.47265 0.92358 0.0
C378 C 0.28851 0.47375 0.93482 0.0
C379 C 0.31386 0.47374 0.97869 0.0
C380 C 0.28775 0.4707 1.01043 0.0
H381 H 0.43905 0.33978 0.99072 0.0
H382 H 0.53531 0.38878 0.13092 0.0
H383 H 0.53832 0.31666 0.1283 0.0
H384 H 0.36936 0.24075 0.99674 0.0
H385 H 0.3652 0.21089 0.94027 0.0
H386 H 0.3702 0.26635 0.95339 0.0
H387 H 0.44762 0.28069 0.92636 0.0
H388 H 0.44278 0.22526 0.91304 0.0
H389 H 0.49965 0.26474 0.9511 0.0
H390 H 0.53149 0.2384 0.10984 0.0
H391 H 0.51472 0.16123 0.07741 0.0
H392 H 0.42475 0.16408 0.9488 0.0
C393 C 0.46113 0.33564 0.02087 0.0
C394 C 0.48692 0.37043 0.0611 0.0
C395 C 0.51467 0.36292 0.09984 0.0
C396 C 0.51685 0.32196 0.09861 0.0
C397 C 0.49109 0.28856 0.0584 0.0
C398 C 0.46375 0.29499 0.02023 0.0
C399 C 0.43952 0.2538 0.98117 0.0
C400 C 0.3827 0.24228 0.96708 0.0
C401 C 0.45854 0.25628 0.94052 0.0
C402 C 0.4575 0.22314 1.00328 0.0
C403 C 0.48723 0.24377 0.04781 0.0
C404 C 0.5083 0.22199 0.07495 0.0
C405 C 0.49876 0.17808 0.0561 0.0
C406 C 0.46834 0.15613 1.01044 0.0
C407 C 0.44758 0.17937 0.98394 0.0
H408 H 0.83289 0.51333 1.00498 0.0
H409 H 0.79176 0.48024 0.85776 0.0
H410 H 0.70399 0.47032 0.85358 0.0
H411 H 0.72068 0.44092 1.01049 0.0
H412 H 0.71962 0.47885 0.0602 0.0
H413 H 0.77782 0.47842 0.05059 0.0
H414 H 0.79789 0.55789 0.05596 0.0
H415 H 0.73966 0.55851 0.06511 0.0
H416 H 0.75484 0.57462 0.01889 0.0
H417 H 0.62048 0.46953 0.86671 0.0
H418 H 0.55069 0.47752 0.8962 0.0
H419 H 0.64911 0.51259 0.03422 0.0
C420 C 0.8054 0.50304 0.97172 0.0
C421 C 0.81931 0.49732 0.93168 0.0
C422 C 0.78205 0.48459 0.88894 0.0
C423 C 0.73204 0.47889 0.88621 0.0
C424 C 0.71982 0.48596 0.92652 0.0
C425 C 0.75555 0.49749 0.96842 0.0
C426 C 0.73375 0.50584 1.00694 0.0
C427 C 0.73823 0.47411 0.03361 0.0
C428 C 0.75797 0.55195 0.03856 0.0
C429 C 0.68037 0.49805 0.98034 0.0
C430 C 0.67264 0.48619 0.93398 0.0
C431 C 0.62614 0.4785 0.90299 0.0
C432 C 0.58673 0.48316 0.91997 0.0
C433 C 0.59434 0.4958 0.96747 0.0
C434 C 0.64183 0.50298 0.99768 0.0
H435 H 0.52647 0.70876 0.05651 0.0
H436 H 0.38651 0.61596 0.96749 0.0
H437 H 0.36083 0.67184 0.94128 0.0
H438 H 0.475 0.79518 0.08878 0.0
H439 H 0.52789 0.83557 0.08972 0.0
H440 H 0.53555 0.78836 0.10234 0.0
H441 H 0.57627 0.77384 0.03876 0.0
H442 H 0.56837 0.82085 0.0258 0.0
H443 H 0.54331 0.77027 0.98163 0.0
H444 H 0.35026 0.73678 0.92292 0.0
H445 H 0.35464 0.8074 0.91507 0.0
H446 H 0.49997 0.86017 0.01726 0.0
C447 C 0.49023 0.70021 0.03187 0.0
C448 C 0.45885 0.65748 0.01381 0.0
C449 C 0.41184 0.64796 0.98129 0.0
C450 C 0.39666 0.67966 0.96633 0.0
C451 C 0.42863 0.7211 0.98427 0.0
C452 C 0.4743 0.73165 0.01654 0.0
C453 C 0.50142 0.77887 0.02996 0.0
C454 C 0.51049 0.80078 0.08071 0.0
C455 C 0.55023 0.78638 0.01833 0.0
C456 C 0.46396 0.79294 0.99985 0.0
C457 C 0.42225 0.759 0.97391 0.0
C458 C 0.3826 0.76368 0.94331 0.0
C459 C 0.38535 0.80411 0.93926 0.0
C460 C 0.42745 0.83973 0.96564 0.0
C461 C 0.46739 0.83376 0.99624 0.0
loop_
_geom_bond_atom_site_label_1
_geom_bond_atom_site_label_2
_geom_bond_distance
_geom_bond_site_symmetry_2
_ccdc_geom_bond_type
Cu0 N1 1.999 . S
Cu0 O6 1.974 1_455 S
Cu0 N11 1.985 1_545 S
Cu0 O20 1.959 . S
N1 Cu0 1.999 . S
N1 C3 1.263 . S
N1 C5 1.389 . S
N2 C3 1.358 . S
N2 C4 1.400 . S
C3 N1 1.263 . S
C3 N2 1.358 . S
C3 H9 0.930 1_455 S
C4 N2 1.400 . S
C4 C5 1.351 . S
C4 H21 0.930 . S
C5 N1 1.389 . S
C5 C4 1.351 . S
C5 H10 0.930 . S
O6 Cu0 1.974 1_655 S
O6 C16 1.282 . S
C7 O8 1.261 . S
C7 O20 1.251 . S
O8 C7 1.261 . S
H9 C3 0.930 1_655 S
H10 C5 0.930 . S
N11 Cu0 1.985 1_565 S
N11 C13 1.335 . S
N11 C14 1.390 1_455 S
N12 C13 1.345 . S
N12 C15 1.336 1_455 S
C13 N11 1.335 . S
C13 N12 1.345 . S
C13 H18 0.930 . S
C14 N11 1.390 1_655 S
C14 C15 1.346 . S
C14 H19 0.930 . S
C15 N12 1.336 1_655 S
C15 C14 1.346 . S
C15 H22 0.929 . S
C16 O6 1.282 . S
C16 O17 1.216 . S
O17 C16 1.216 . S
H18 C13 0.930 . S
H19 C14 0.930 . S
O20 Cu0 1.959 . S
O20 C7 1.251 . S
H21 C4 0.930 . S
H22 C15 0.929 . S
Cu23 N24 1.999 1_545 S
Cu23 O29 1.974 . S
Cu23 N34 1.985 . S
Cu23 O43 1.959 1_554 S
N24 Cu23 1.999 1_565 S
N24 C26 1.263 . S
N24 C28 1.389 1_554 S
N25 C26 1.358 . S
N25 C27 1.400 1_554 S
C26 N24 1.263 . S
C26 N25 1.358 . S
C26 H32 0.930 . S
C27 N25 1.400 1_556 S
C27 C28 1.351 . S
C27 H44 0.930 . S
C28 N24 1.389 1_556 S
C28 C27 1.351 . S
C28 H33 0.930 . S
O29 Cu23 1.974 . S
O29 C39 1.282 . S
C30 O31 1.261 . S
C30 O43 1.251 . S
O31 C30 1.261 . S
H32 C26 0.930 . S
H33 C28 0.930 . S
N34 Cu23 1.985 . S
N34 C36 1.335 . S
N34 C37 1.390 . S
N35 C36 1.345 . S
N35 C38 1.336 . S
C36 N34 1.335 . S
C36 N35 1.345 . S
C36 H41 0.930 1_554 S
C37 N34 1.390 . S
C37 C38 1.346 . S
C37 H42 0.930 . S
C38 N35 1.336 . S
C38 C37 1.346 . S
C38 H45 0.929 . S
C39 O29 1.282 . S
C39 O40 1.216 . S
O40 C39 1.216 . S
H41 C36 0.930 1_556 S
H42 C37 0.930 . S
O43 Cu23 1.959 1_556 S
O43 C30 1.251 . S
H44 C27 0.930 . S
H45 C38 0.929 . S
Cu46 N47 1.999 1_554 S
Cu46 O52 1.974 . S
Cu46 N57 1.985 . S
Cu46 O66 1.959 1_455 S
N47 Cu46 1.999 1_556 S
N47 C49 1.263 . S
N47 C51 1.389 1_455 S
N48 C49 1.358 . S
N48 C50 1.400 1_455 S
C49 N47 1.263 . S
C49 N48 1.358 . S
C49 H55 0.930 . S
C50 N48 1.400 1_655 S
C50 C51 1.351 . S
C50 H67 0.930 . S
C51 N47 1.389 1_655 S
C51 C50 1.351 . S
C51 H56 0.930 . S
O52 Cu46 1.974 . S
O52 C62 1.282 . S
C53 O54 1.261 1_554 S
C53 O66 1.251 . S
O54 C53 1.261 1_556 S
H55 C49 0.930 . S
H56 C51 0.930 . S
N57 Cu46 1.985 . S
N57 C59 1.335 . S
N57 C60 1.390 . S
N58 C59 1.345 . S
N58 C61 1.336 . S
C59 N57 1.335 . S
C59 N58 1.345 . S
C59 H64 0.930 1_455 S
C60 N57 1.390 . S
C60 C61 1.346 . S
C60 H65 0.930 . S
C61 N58 1.336 . S
C61 C60 1.346 . S
C61 H68 0.929 . S
C62 O52 1.282 . S
C62 O63 1.216 1_554 S
O63 C62 1.216 1_556 S
H64 C59 0.930 1_655 S
H65 C60 0.930 . S
O66 Cu46 1.959 1_655 S
O66 C53 1.251 . S
H67 C50 0.930 . S
H68 C61 0.929 . S
Cu69 N70 1.999 . S
Cu69 O75 1.974 . S
Cu69 N80 1.985 . S
Cu69 O89 1.959 . S
N70 Cu69 1.999 . S
N70 C72 1.269 . S
N70 C74 1.389 . S
N71 C72 1.368 . S
N71 C73 1.400 . S
C72 N70 1.269 . S
C72 N71 1.368 . S
C72 H78 0.916 1_556 S
C73 N71 1.400 . S
C73 C74 1.351 . S
C73 H90 0.930 . S
C74 N70 1.389 . S
C74 C73 1.351 . S
C74 H79 0.930 . S
O75 Cu69 1.974 . S
O75 C85 1.282 1_556 S
C76 O77 1.261 . S
C76 O89 1.251 1_554 S
O77 C76 1.261 . S
H78 C72 0.916 1_554 S
H79 C74 0.930 . S
N80 Cu69 1.985 . S
N80 C82 1.335 . S
N80 C83 1.390 1_556 S
N81 C82 1.358 . S
N81 C84 1.324 1_556 S
C82 N80 1.335 . S
C82 N81 1.358 . S
C82 H87 0.930 . S
C83 N80 1.390 1_554 S
C83 C84 1.346 . S
C83 H88 0.930 . S
C84 N81 1.324 1_554 S
C84 C83 1.346 . S
C84 H91 0.929 . S
C85 O75 1.282 1_554 S
C85 O86 1.216 . S
O86 C85 1.216 . S
H87 C82 0.930 . S
H88 C83 0.930 . S
O89 Cu69 1.959 . S
O89 C76 1.251 1_556 S
H90 C73 0.930 . S
H91 C84 0.929 . S
Cu92 N93 1.999 . S
Cu92 O98 1.974 . S
Cu92 N103 1.985 . S
Cu92 O112 1.959 . S
N93 Cu92 1.999 . S
N93 C95 1.263 . S
N93 C97 1.389 . S
N94 C95 1.358 . S
N94 C96 1.400 . S
C95 N93 1.263 . S
C95 N94 1.358 . S
C95 H101 0.930 . S
C96 N94 1.400 . S
C96 C97 1.351 . S
C96 H113 0.930 . S
C97 N93 1.389 . S
C97 C96 1.351 . S
C97 H102 0.930 . S
O98 Cu92 1.974 . S
O98 C108 1.282 . S
C99 O100 1.261 1_455 S
C99 O112 1.251 . S
O100 C99 1.261 1_655 S
H101 C95 0.930 . S
H102 C97 0.930 . S
N103 Cu92 1.985 . S
N103 C105 1.335 . S
N103 C106 1.390 . S
N104 C105 1.345 . S
N104 C107 1.336 . S
C105 N103 1.335 . S
C105 N104 1.345 . S
C105 H110 0.930 . S
C106 N103 1.390 . S
C106 C107 1.346 . S
C106 H111 0.930 . S
C107 N104 1.336 . S
C107 C106 1.346 . S
C107 H114 0.929 . S
C108 O98 1.282 . S
C108 O109 1.216 1_455 S
O109 C108 1.216 1_655 S
H110 C105 0.930 . S
H111 C106 0.930 . S
O112 Cu92 1.959 . S
O112 C99 1.251 . S
H113 C96 0.930 . S
H114 C107 0.929 . S
Cu115 N116 1.999 . S
Cu115 O121 1.974 . S
Cu115 N126 1.985 . S
Cu115 O135 1.959 . S
N116 Cu115 1.999 . S
N116 C118 1.263 . S
N116 C120 1.389 . S
N117 C118 1.358 . S
N117 C119 1.400 . S
C118 N116 1.263 . S
C118 N117 1.358 . S
C118 H124 0.930 . S
C119 N117 1.400 . S
C119 C120 1.351 . S
C119 H136 0.930 . S
C120 N116 1.389 . S
C120 C119 1.351 . S
C120 H125 0.930 . S
O121 Cu115 1.974 . S
O121 C131 1.282 . S
C122 O123 1.261 1_545 S
C122 O135 1.251 . S
O123 C122 1.261 1_565 S
H124 C118 0.930 . S
H125 C120 0.930 . S
N126 Cu115 1.985 . S
N126 C128 1.335 . S
N126 C129 1.390 . S
N127 C128 1.345 . S
N127 C130 1.336 . S
C128 N126 1.335 . S
C128 N127 1.345 . S
C128 H133 0.930 . S
C129 N126 1.390 . S
C129 C130 1.346 . S
C129 H134 0.930 . S
C130 N127 1.336 . S
C130 C129 1.346 . S
C130 H137 0.929 . S
C131 O121 1.282 . S
C131 O132 1.216 1_545 S
O132 C131 1.216 1_565 S
H133 C128 0.930 . S
H134 C129 0.930 . S
O135 Cu115 1.959 . S
O135 C122 1.251 . S
H136 C119 0.930 . S
H137 C130 0.929 . S
H138 C150 0.927 1_655 S
H139 C152 0.930 . S
H140 C153 0.930 . S
H141 C157 0.959 . S
H142 C157 0.959 . S
H143 C157 0.961 . S
H144 C158 0.960 . S
H145 C158 0.961 . S
H146 C158 0.959 . S
H147 C161 0.929 . S
H148 C162 0.931 . S
H149 C164 0.930 . S
C150 H138 0.927 1_455 S
C150 C151 1.399 . S
C150 C155 1.399 . S
C151 C150 1.399 . S
C151 C152 1.376 . S
C152 H139 0.930 . S
C152 C151 1.376 . S
C152 C153 1.388 . S
C153 H140 0.930 . S
C153 C152 1.388 . S
C153 C154 1.390 . S
C154 C153 1.390 . S
C154 C155 1.394 . S
C154 C160 1.465 . S
C155 C150 1.399 . S
C155 C154 1.394 . S
C155 C156 1.516 . S
C156 C155 1.516 . S
C156 C157 1.502 1_455 S
C156 C158 1.561 . S
C156 C159 1.526 . S
C157 H141 0.959 . S
C157 H142 0.959 . S
C157 H143 0.961 . S
C157 C156 1.502 1_655 S
C158 H144 0.960 . S
C158 H145 0.961 . S
C158 H146 0.959 . S
C158 C156 1.561 . S
C159 C156 1.526 . S
C159 C160 1.396 . S
C159 C164 1.390 . S
C160 C154 1.465 . S
C160 C159 1.396 . S
C160 C161 1.399 . S
C161 H147 0.929 . S
C161 C160 1.399 . S
C161 C162 1.385 . S
C162 H148 0.931 . S
C162 C161 1.385 . S
C162 C163 1.389 . S
C163 C162 1.389 . S
C163 C164 1.387 . S
C164 H149 0.930 . S
C164 C159 1.390 . S
C164 C163 1.387 . S
H165 C177 0.930 . S
H166 C179 0.930 . S
H167 C180 0.930 1_565 S
H168 C184 0.959 . S
H169 C184 0.959 . S
H170 C184 0.961 . S
H171 C185 0.960 . S
H172 C185 0.961 . S
H173 C185 0.959 1_565 S
H174 C188 0.948 . S
H175 C189 0.931 1_565 S
H176 C191 0.930 . S
C177 H165 0.930 . S
C177 C178 1.399 . S
C177 C182 1.399 . S
C178 C177 1.399 . S
C178 C179 1.376 . S
C179 H166 0.930 . S
C179 C178 1.376 . S
C179 C180 1.388 . S
C180 H167 0.930 1_545 S
C180 C179 1.388 . S
C180 C181 1.390 . S
C181 C180 1.390 . S
C181 C182 1.394 . S
C181 C187 1.465 . S
C182 C177 1.399 . S
C182 C181 1.394 . S
C182 C183 1.516 . S
C183 C182 1.516 . S
C183 C184 1.502 . S
C183 C185 1.561 . S
C183 C186 1.526 . S
C184 H168 0.959 . S
C184 H169 0.959 . S
C184 H170 0.961 . S
C184 C183 1.502 . S
C185 H171 0.960 . S
C185 H172 0.961 . S
C185 H173 0.959 1_545 S
C185 C183 1.561 . S
C186 C183 1.526 . S
C186 C187 1.396 . S
C186 C191 1.390 . S
C187 C181 1.465 . S
C187 C186 1.396 . S
C187 C188 1.389 1_545 S
C188 H174 0.948 . S
C188 C187 1.389 1_565 S
C188 C189 1.376 1_565 S
C189 H175 0.931 1_545 S
C189 C188 1.376 1_545 S
C189 C190 1.389 . S
C190 C189 1.389 . S
C190 C191 1.387 . S
C191 H176 0.930 . S
C191 C186 1.390 . S
C191 C190 1.387 . S
H192 C204 0.930 . S
H193 C206 0.930 . S
H194 C207 0.930 . S
H195 C211 0.959 . S
H196 C211 0.959 . S
H197 C211 0.961 . S
H198 C212 0.960 . S
H199 C212 0.961 . S
H200 C212 0.959 . S
H201 C215 0.929 . S
H202 C216 0.931 . S
H203 C218 0.930 . S
C204 H192 0.930 . S
C204 C205 1.399 . S
C204 C209 1.399 . S
C205 C204 1.399 . S
C205 C206 1.376 . S
C206 H193 0.930 . S
C206 C205 1.376 . S
C206 C207 1.388 . S
C207 H194 0.930 . S
C207 C206 1.388 . S
C207 C208 1.390 . S
C208 C207 1.390 . S
C208 C209 1.394 . S
C208 C214 1.465 . S
C209 C204 1.399 . S
C209 C208 1.394 . S
C209 C210 1.516 . S
C210 C209 1.516 . S
C210 C211 1.502 1_455 S
C210 C212 1.561 . S
C210 C213 1.526 . S
C211 H195 0.959 . S
C211 H196 0.959 . S
C211 H197 0.961 . S
C211 C210 1.502 1_655 S
C212 H198 0.960 . S
C212 H199 0.961 . S
C212 H200 0.959 . S
C212 C210 1.561 . S
C213 C210 1.526 . S
C213 C214 1.396 . S
C213 C218 1.390 . S
C214 C208 1.465 . S
C214 C213 1.396 . S
C214 C215 1.399 . S
C215 H201 0.929 . S
C215 C214 1.399 . S
C215 C216 1.385 . S
C216 H202 0.931 . S
C216 C215 1.385 . S
C216 C217 1.389 . S
C217 C216 1.389 . S
C217 C218 1.387 . S
C218 H203 0.930 . S
C218 C213 1.390 . S
C218 C217 1.387 . S
H219 C231 0.930 . S
H220 C233 0.930 . S
H221 C234 0.930 . S
H222 C238 0.959 . S
H223 C238 0.959 . S
H224 C238 0.961 . S
H225 C239 0.960 . S
H226 C239 0.961 . S
H227 C239 0.959 . S
H228 C242 0.929 . S
H229 C243 0.931 1_565 S
H230 C245 0.930 . S
C231 H219 0.930 . S
C231 C232 1.399 . S
C231 C236 1.399 . S
C232 C231 1.399 . S
C232 C233 1.376 1_545 S
C233 H220 0.930 . S
C233 C232 1.376 1_565 S
C233 C234 1.388 . S
C234 H221 0.930 . S
C234 C233 1.388 . S
C234 C235 1.390 1_565 S
C235 C234 1.390 1_545 S
C235 C236 1.394 . S
C235 C241 1.465 . S
C236 C231 1.399 . S
C236 C235 1.394 . S
C236 C237 1.516 . S
C237 C236 1.516 . S
C237 C238 1.502 . S
C237 C239 1.561 . S
C237 C240 1.526 . S
C238 H222 0.959 . S
C238 H223 0.959 . S
C238 H224 0.961 . S
C238 C237 1.502 . S
C239 H225 0.960 . S
C239 H226 0.961 . S
C239 H227 0.959 . S
C239 C237 1.561 . S
C240 C237 1.526 . S
C240 C241 1.396 . S
C240 C245 1.390 . S
C241 C235 1.465 . S
C241 C240 1.396 . S
C241 C242 1.399 1_545 S
C242 H228 0.929 . S
C242 C241 1.399 1_565 S
C242 C243 1.385 1_565 S
C243 H229 0.931 1_545 S
C243 C242 1.385 1_545 S
C243 C244 1.389 . S
C244 C243 1.389 . S
C244 C245 1.387 . S
C245 H230 0.930 . S
C245 C240 1.390 . S
C245 C244 1.387 . S
H246 C258 0.929 . S
H247 C260 0.930 . S
H248 C261 0.930 . S
H249 C265 0.959 1_545 S
H250 C265 0.959 . S
H251 C265 0.961 . S
H252 C266 0.960 . S
H253 C266 0.961 . S
H254 C266 0.959 . S
H255 C269 0.929 . S
H256 C270 0.931 . S
H257 C272 0.930 1_565 S
C258 H246 0.929 . S
C258 C259 1.399 . S
C258 C263 1.399 . S
C259 C258 1.399 . S
C259 C260 1.376 . S
C260 H247 0.930 . S
C260 C259 1.376 . S
C260 C261 1.388 . S
C261 H248 0.930 . S
C261 C260 1.388 . S
C261 C262 1.390 . S
C262 C261 1.390 . S
C262 C263 1.394 . S
C262 C268 1.465 . S
C263 C258 1.399 . S
C263 C262 1.394 . S
C263 C264 1.516 1_545 S
C264 C263 1.516 1_565 S
C264 C265 1.502 . S
C264 C266 1.561 . S
C264 C267 1.526 1_565 S
C265 H249 0.959 1_565 S
C265 H250 0.959 . S
C265 H251 0.961 . S
C265 C264 1.502 . S
C266 H252 0.960 . S
C266 H253 0.961 . S
C266 H254 0.959 . S
C266 C264 1.561 . S
C267 C264 1.526 1_545 S
C267 C268 1.396 . S
C267 C272 1.390 . S
C268 C262 1.465 . S
C268 C267 1.396 . S
C268 C269 1.399 . S
C269 H255 0.929 . S
C269 C268 1.399 . S
C269 C270 1.385 . S
C270 H256 0.931 . S
C270 C269 1.385 . S
C270 C271 1.389 . S
C271 C270 1.389 . S
C271 C272 1.387 . S
C272 H257 0.930 1_545 S
C272 C267 1.390 . S
C272 C271 1.387 . S
H273 C285 0.930 . S
H274 C287 0.930 . S
H275 C288 0.930 . S
H276 C292 0.959 . S
H277 C292 0.959 . S
H278 C292 0.961 . S
H279 C293 0.960 . S
H280 C293 0.961 . S
H281 C293 0.959 1_655 S
H282 C296 0.929 . S
H283 C297 0.931 . S
H284 C299 0.930 . S
C285 H273 0.930 . S
C285 C286 1.399 . S
C285 C290 1.399 . S
C286 C285 1.399 . S
C286 C287 1.376 1_455 S
C287 H274 0.930 . S
C287 C286 1.376 1_655 S
C287 C288 1.388 . S
C288 H275 0.930 . S
C288 C287 1.388 . S
C288 C289 1.390 1_655 S
C289 C288 1.390 1_455 S
C289 C290 1.394 . S
C289 C295 1.463 1_455 S
C290 C285 1.399 . S
C290 C289 1.394 . S
C290 C291 1.516 . S
C291 C290 1.516 . S
C291 C292 1.502 . S
C291 C293 1.561 . S
C291 C294 1.526 . S
C292 H276 0.959 . S
C292 H277 0.959 . S
C292 H278 0.961 . S
C292 C291 1.502 . S
C293 H279 0.960 . S
C293 H280 0.961 . S
C293 H281 0.959 1_455 S
C293 C291 1.561 . S
C294 C291 1.526 . S
C294 C295 1.395 1_455 S
C294 C299 1.390 . S
C295 C289 1.463 1_655 S
C295 C294 1.395 1_655 S
C295 C296 1.402 . S
C296 H282 0.929 . S
C296 C295 1.402 . S
C296 C297 1.385 . S
C297 H283 0.931 . S
C297 C296 1.385 . S
C297 C298 1.389 1_655 S
C298 C297 1.389 1_455 S
C298 C299 1.387 . S
C299 H284 0.930 . S
C299 C294 1.390 . S
C299 C298 1.387 . S
H300 C312 0.930 1_565 S
H301 C314 0.930 . S
H302 C315 0.930 . S
H303 C319 0.959 . S
H304 C319 0.959 . S
H305 C319 0.961 . S
H306 C320 0.960 . S
H307 C320 0.961 . S
H308 C320 0.959 . S
H309 C323 0.929 . S
H310 C324 0.931 . S
H311 C326 0.930 1_565 S
C312 H300 0.930 1_545 S
C312 C313 1.399 . S
C312 C317 1.399 . S
C313 C312 1.399 . S
C313 C314 1.376 . S
C314 H301 0.930 . S
C314 C313 1.376 . S
C314 C315 1.388 . S
C315 H302 0.930 . S
C315 C314 1.388 . S
C315 C316 1.390 . S
C316 C315 1.390 . S
C316 C317 1.394 . S
C316 C322 1.465 . S
C317 C312 1.399 . S
C317 C316 1.394 . S
C317 C318 1.516 1_545 S
C318 C317 1.516 1_565 S
C318 C319 1.502 . S
C318 C320 1.561 . S
C318 C321 1.526 1_565 S
C319 H303 0.959 . S
C319 H304 0.959 . S
C319 H305 0.961 . S
C319 C318 1.502 . S
C320 H306 0.960 . S
C320 H307 0.961 . S
C320 H308 0.959 . S
C320 C318 1.561 . S
C321 C318 1.526 1_545 S
C321 C322 1.396 . S
C321 C326 1.390 . S
C322 C316 1.465 . S
C322 C321 1.396 . S
C322 C323 1.399 . S
C323 H309 0.929 . S
C323 C322 1.399 . S
C323 C324 1.385 . S
C324 H310 0.931 . S
C324 C323 1.385 . S
C324 C325 1.389 . S
C325 C324 1.389 . S
C325 C326 1.387 . S
C326 H311 0.930 1_545 S
C326 C321 1.390 . S
C326 C325 1.387 . S
H327 C339 0.930 . S
H328 C341 0.930 . S
H329 C342 0.930 . S
H330 C346 0.959 . S
H331 C346 0.959 . S
H332 C346 0.961 . S
H333 C347 0.960 . S
H334 C347 0.961 . S
H335 C347 0.959 . S
H336 C350 0.929 . S
H337 C351 0.931 . S
H338 C353 0.930 . S
C339 H327 0.930 . S
C339 C340 1.399 1_655 S
C339 C344 1.399 . S
C340 C339 1.399 1_455 S
C340 C341 1.376 . S
C341 H328 0.930 . S
C341 C340 1.376 . S
C341 C342 1.388 . S
C342 H329 0.930 . S
C342 C341 1.388 . S
C342 C343 1.390 . S
C343 C342 1.390 . S
C343 C344 1.394 1_455 S
C343 C349 1.465 . S
C344 C339 1.399 . S
C344 C343 1.394 1_655 S
C344 C345 1.516 . S
C345 C344 1.516 . S
C345 C346 1.502 . S
C345 C347 1.561 . S
C345 C348 1.526 . S
C346 H330 0.959 . S
C346 H331 0.959 . S
C346 H332 0.961 . S
C346 C345 1.502 . S
C347 H333 0.960 . S
C347 H334 0.961 . S
C347 H335 0.959 . S
C347 C345 1.561 . S
C348 C345 1.526 . S
C348 C349 1.396 1_655 S
C348 C353 1.390 . S
C349 C343 1.465 . S
C349 C348 1.396 1_455 S
C349 C350 1.399 . S
C350 H336 0.929 . S
C350 C349 1.399 . S
C350 C351 1.385 . S
C351 H337 0.931 . S
C351 C350 1.385 . S
C351 C352 1.389 . S
C352 C351 1.389 . S
C352 C353 1.387 1_455 S
C353 H338 0.930 . S
C353 C348 1.390 . S
C353 C352 1.387 1_655 S
H354 C366 0.927 . S
H355 C368 0.930 . S
H356 C369 0.930 . S
H357 C373 0.959 . S
H358 C373 0.959 . S
H359 C373 0.961 . S
H360 C374 0.960 . S
H361 C374 0.961 . S
H362 C374 0.959 . S
H363 C377 0.929 . S
H364 C378 0.931 . S
H365 C380 0.930 1_556 S
C366 H354 0.927 . S
C366 C367 1.395 1_556 S
C366 C371 1.407 1_556 S
C367 C366 1.395 1_554 S
C367 C368 1.376 . S
C368 H355 0.930 . S
C368 C367 1.376 . S
C368 C369 1.388 . S
C369 H356 0.930 . S
C369 C368 1.388 . S
C369 C370 1.390 . S
C370 C369 1.390 . S
C370 C371 1.394 . S
C370 C376 1.465 . S
C371 C366 1.407 1_554 S
C371 C370 1.394 . S
C371 C372 1.516 1_554 S
C372 C371 1.516 1_556 S
C372 C373 1.502 1_556 S
C372 C374 1.561 . S
C372 C375 1.526 1_556 S
C373 H357 0.959 . S
C373 H358 0.959 . S
C373 H359 0.961 . S
C373 C372 1.502 1_554 S
C374 H360 0.960 . S
C374 H361 0.961 . S
C374 H362 0.959 . S
C374 C372 1.561 . S
C375 C372 1.526 1_554 S
C375 C376 1.396 . S
C375 C380 1.390 . S
C376 C370 1.465 . S
C376 C375 1.396 . S
C376 C377 1.399 . S
C377 H363 0.929 . S
C377 C376 1.399 . S
C377 C378 1.385 . S
C378 H364 0.931 . S
C378 C377 1.385 . S
C378 C379 1.389 . S
C379 C378 1.389 . S
C379 C380 1.387 . S
C380 H365 0.930 1_554 S
C380 C375 1.390 . S
C380 C379 1.387 . S
H381 C393 0.930 . S
H382 C395 0.930 . S
H383 C396 0.930 . S
H384 C400 0.959 . S
H385 C400 0.959 . S
H386 C400 0.961 . S
H387 C401 0.960 . S
H388 C401 0.961 . S
H389 C401 0.959 . S
H390 C404 0.929 . S
H391 C405 0.931 . S
H392 C407 0.930 . S
C393 H381 0.930 . S
C393 C394 1.399 1_556 S
C393 C398 1.399 . S
C394 C393 1.399 1_554 S
C394 C395 1.376 . S
C395 H382 0.930 . S
C395 C394 1.376 . S
C395 C396 1.388 . S
C396 H383 0.930 . S
C396 C395 1.388 . S
C396 C397 1.390 . S
C397 C396 1.390 . S
C397 C398 1.394 1_554 S
C397 C403 1.465 . S
C398 C393 1.399 . S
C398 C397 1.394 1_556 S
C398 C399 1.516 . S
C399 C398 1.516 . S
C399 C400 1.502 . S
C399 C401 1.561 . S
C399 C402 1.526 . S
C400 H384 0.959 . S
C400 H385 0.959 . S
C400 H386 0.961 . S
C400 C399 1.502 . S
C401 H387 0.960 . S
C401 H388 0.961 . S
C401 H389 0.959 . S
C401 C399 1.561 . S
C402 C399 1.526 . S
C402 C403 1.396 1_556 S
C402 C407 1.390 . S
C403 C397 1.465 . S
C403 C402 1.396 1_554 S
C403 C404 1.399 . S
C404 H390 0.929 . S
C404 C403 1.399 . S
C404 C405 1.385 . S
C405 H391 0.931 . S
C405 C404 1.385 . S
C405 C406 1.389 . S
C406 C405 1.389 . S
C406 C407 1.387 1_554 S
C407 H392 0.930 . S
C407 C402 1.390 . S
C407 C406 1.387 1_556 S
H408 C420 0.930 . S
H409 C422 0.930 . S
H410 C423 0.930 . S
H411 C427 0.959 . S
H412 C427 0.959 1_556 S
H413 C427 0.967 . S
H414 C428 0.960 . S
H415 C428 0.961 . S
H416 C428 0.959 . S
H417 C431 0.929 . S
H418 C432 0.931 . S
H419 C434 0.930 1_556 S
C420 H408 0.930 . S
C420 C421 1.399 1_556 S
C420 C425 1.399 1_556 S
C421 C420 1.399 1_554 S
C421 C422 1.376 . S
C422 H409 0.930 . S
C422 C421 1.376 . S
C422 C423 1.388 . S
C423 H410 0.930 . S
C423 C422 1.388 . S
C423 C424 1.390 . S
C424 C423 1.390 . S
C424 C425 1.394 . S
C424 C430 1.465 . S
C425 C420 1.399 1_554 S
C425 C424 1.394 . S
C425 C426 1.516 1_554 S
C426 C425 1.516 1_556 S
C426 C427 1.502 1_556 S
C426 C428 1.561 . S
C426 C429 1.526 1_556 S
C427 H411 0.959 . S
C427 H412 0.959 1_554 S
C427 H413 0.967 . S
C427 C426 1.502 1_554 S
C428 H414 0.960 . S
C428 H415 0.961 . S
C428 H416 0.959 . S
C428 C426 1.561 . S
C429 C426 1.526 1_554 S
C429 C430 1.396 . S
C429 C434 1.390 . S
C430 C424 1.465 . S
C430 C429 1.396 . S
C430 C431 1.399 . S
C431 H417 0.929 . S
C431 C430 1.399 . S
C431 C432 1.385 . S
C432 H418 0.931 . S
C432 C431 1.385 . S
C432 C433 1.389 . S
C433 C432 1.389 . S
C433 C434 1.387 . S
C434 H419 0.930 1_554 S
C434 C429 1.390 . S
C434 C433 1.387 . S
H435 C447 0.930 . S
H436 C449 0.930 . S
H437 C450 0.930 . S
H438 C454 0.959 . S
H439 C454 0.959 . S
H440 C454 0.961 . S
H441 C455 0.960 . S
H442 C455 0.961 . S
H443 C455 0.959 . S
H444 C458 0.929 . S
H445 C459 0.931 . S
H446 C461 0.930 . S
C447 H435 0.930 . S
C447 C448 1.399 1_554 S
C447 C452 1.399 . S
C448 C447 1.399 1_556 S
C448 C449 1.376 . S
C449 H436 0.930 . S
C449 C448 1.376 . S
C449 C450 1.388 . S
C450 H437 0.930 . S
C450 C449 1.388 . S
C450 C451 1.390 . S
C451 C450 1.390 . S
C451 C452 1.394 1_556 S
C451 C457 1.465 . S
C452 C447 1.399 . S
C452 C451 1.394 1_554 S
C452 C453 1.516 . S
C453 C452 1.516 . S
C453 C454 1.502 . S
C453 C455 1.561 . S
C453 C456 1.526 . S
C454 H438 0.959 . S
C454 H439 0.959 . S
C454 H440 0.961 . S
C454 C453 1.502 . S
C455 H441 0.960 . S
C455 H442 0.961 . S
C455 H443 0.959 . S
C455 C453 1.561 . S
C456 C453 1.526 . S
C456 C457 1.396 1_554 S
C456 C461 1.390 . S
C457 C451 1.465 . S
C457 C456 1.396 1_556 S
C457 C458 1.399 . S
C458 H444 0.929 . S
C458 C457 1.399 . S
C458 C459 1.385 . S
C459 H445 0.931 . S
C459 C458 1.385 . S
C459 C460 1.389 1_556 S
C460 C459 1.389 1_554 S
C460 C461 1.387 . S
C461 H446 0.930 . S
C461 C456 1.390 . S
C461 C460 1.387 . S
C151 N2 1.458 . S
C163 N94 1.452 . S
C178 C16 1.446 . S
C190 C131 1.449 . S
C205 N104 1.482 . S
C217 N12 1.478 . S
C232 C122 1.511 . S
C244 C7 1.512 . S
C259 N117 1.429 . S
C271 C39 1.471 . S
C286 N58 1.471 . S
C298 C99 1.499 . S
C313 N127 1.456 . S
C325 C30 1.496 . S
C340 C108 1.499 . S
C352 N48 1.478 . S
C367 C62 1.475 . S
C379 C85 1.470 . S
C394 N81 1.446 1_554 S
C406 N35 1.439 . S
C421 C53 1.519 . S
C433 C76 1.517 . S
C448 N71 1.457 . S
C460 N25 1.453 . S
