# Generated by pormake.
# Topology fnw, (5)-cn, num edge types: 1
# Building blocks:
#     Node 0, Type 0, BuildingBlock: XOMCOT_clean_sbu_0, # of connection points: 5
#     Node 1, Type 0, BuildingBlock: XOMCOT_clean_sbu_0, # of connection points: 5
#     Node 2, Type 0, BuildingBlock: XOMCOT_clean_sbu_0, # of connection points: 5
#     Node 3, Type 0, BuildingBlock: XOMCOT_clean_sbu_0, # of connection points: 5
#     Node 4, Type 0, BuildingBlock: XOMCOT_clean_sbu_0, # of connection points: 5
#     Node 5, Type 0, BuildingBlock: XOMCOT_clean_sbu_0, # of connection points: 5
#     Node 6, Type 0, BuildingBlock: XOMCOT_clean_sbu_0, # of connection points: 5
#     Node 7, Type 0, BuildingBlock: XOMCOT_clean_sbu_0, # of connection points: 5
#     Node 8, Type 0, BuildingBlock: XOMCOT_clean_sbu_0, # of connection points: 5
#     Node 9, Type 0, BuildingBlock: XOMCOT_clean_sbu_0, # of connection points: 5
#     Node 10, Type 0, BuildingBlock: XOMCOT_clean_sbu_0, # of connection points: 5
#     Node 11, Type 0, BuildingBlock: XOMCOT_clean_sbu_0, # of connection points: 5
#     Edge 12, Type (0, 0), BuildingBlock: XUDNAN_clean_linker_2, # of connection points: 2
#     Edge 13, Type (0, 0), BuildingBlock: XUDNAN_clean_linker_2, # of connection points: 2
#     Edge 14, Type (0, 0), BuildingBlock: XUDNAN_clean_linker_2, # of connection points: 2
#     Edge 15, Type (0, 0), BuildingBlock: XUDNAN_clean_linker_2, # of connection points: 2
#     Edge 16, Type (0, 0), BuildingBlock: XUDNAN_clean_linker_2, # of connection points: 2
#     Edge 17, Type (0, 0), BuildingBlock: XUDNAN_clean_linker_2, # of connection points: 2
#     Edge 18, Type (0, 0), BuildingBlock: XUDNAN_clean_linker_2, # of connection points: 2
#     Edge 19, Type (0, 0), BuildingBlock: XUDNAN_clean_linker_2, # of connection points: 2
#     Edge 20, Type (0, 0), BuildingBlock: XUDNAN_clean_linker_2, # of connection points: 2
#     Edge 21, Type (0, 0), BuildingBlock: XUDNAN_clean_linker_2, # of connection points: 2
#     Edge 22, Type (0, 0), BuildingBlock: XUDNAN_clean_linker_2, # of connection points: 2
#     Edge 23, Type (0, 0), BuildingBlock: XUDNAN_clean_linker_2, # of connection points: 2
#     Edge 24, Type (0, 0), BuildingBlock: XUDNAN_clean_linker_2, # of connection points: 2
#     Edge 25, Type (0, 0), BuildingBlock: XUDNAN_clean_linker_2, # of connection points: 2
#     Edge 26, Type (0, 0), BuildingBlock: XUDNAN_clean_linker_2, # of connection points: 2
#     Edge 27, Type (0, 0), BuildingBlock: XUDNAN_clean_linker_2, # of connection points: 2
#     Edge 28, Type (0, 0), BuildingBlock: XUDNAN_clean_linker_2, # of connection points: 2
#     Edge 29, Type (0, 0), BuildingBlock: XUDNAN_clean_linker_2, # of connection points: 2
#     Edge 30, Type (0, 0), BuildingBlock: XUDNAN_clean_linker_2, # of connection points: 2
#     Edge 31, Type (0, 0), BuildingBlock: XUDNAN_clean_linker_2, # of connection points: 2
#     Edge 32, Type (0, 0), BuildingBlock: XUDNAN_clean_linker_2, # of connection points: 2
#     Edge 33, Type (0, 0), BuildingBlock: XUDNAN_clean_linker_2, # of connection points: 2
#     Edge 34, Type (0, 0), BuildingBlock: XUDNAN_clean_linker_2, # of connection points: 2
#     Edge 35, Type (0, 0), BuildingBlock: XUDNAN_clean_linker_2, # of connection points: 2
#     Edge 36, Type (0, 0), BuildingBlock: XUDNAN_clean_linker_2, # of connection points: 2
#     Edge 37, Type (0, 0), BuildingBlock: XUDNAN_clean_linker_2, # of connection points: 2
#     Edge 38, Type (0, 0), BuildingBlock: XUDNAN_clean_linker_2, # of connection points: 2
#     Edge 39, Type (0, 0), BuildingBlock: XUDNAN_clean_linker_2, # of connection points: 2
#     Edge 40, Type (0, 0), BuildingBlock: XUDNAN_clean_linker_2, # of connection points: 2
#     Edge 41, Type (0, 0), BuildingBlock: XUDNAN_clean_linker_2, # of connection points: 2
# Relax obj value: 0.264
# Max RMSD: 0.156
# Mean RMSD: 0.156
data_MOF--net-fnw--node1-XOMCOT_clean_sbu_0--edge1-XUDNAN_clean_linker_2
_symmetry_space_group_name_H-M    P1
_symmetry_Int_Tables_number       1
_symmetry_cell_setting            triclinic
loop_
_symmetry_equiv_pos_as_xyz
'x, y, z'
_cell_length_a     51.413216
_cell_length_b     51.42929
_cell_length_c     31.563533
_cell_angle_alpha  90.003646
_cell_angle_beta   89.956191
_cell_angle_gamma 119.97213
loop_
_atom_site_label
_atom_site_type_symbol
_atom_site_fract_x
_atom_site_fract_y
_atom_site_fract_z
_atom_type_partial_charge
Co0 Co 0.26463 0.46501 0.28571 0.0
C1 C 0.29261 0.42658 0.28533 0.0
C2 C 0.31792 0.46692 0.32159 0.0
C3 C 0.33366 0.45177 0.32033 0.0
N4 N 0.29234 0.45124 0.29941 0.0
N5 N 0.31779 0.42651 0.29736 0.0
H6 H 0.27559 0.40985 0.26493 0.0
H7 H 0.32516 0.48847 0.33628 0.0
C8 C 0.30603 0.52548 0.24176 0.0
O9 O 0.28549 0.52522 0.21679 0.0
N10 N 0.23677 0.47902 0.27252 0.0
C11 C 0.20834 0.46205 0.25852 0.0
C12 C 0.19546 0.47969 0.25455 0.0
C13 C 0.24026 0.50663 0.27862 0.0
N14 N 0.21556 0.50776 0.2669 0.0
C15 C 0.23243 0.4198 0.22274 0.0
C16 C 0.27079 0.44944 0.15618 0.0
C17 C 0.24261 0.42452 0.14762 0.0
C18 C 0.22397 0.40862 0.18166 0.0
C19 C 0.27844 0.45961 0.19774 0.0
N20 N 0.25818 0.44641 0.22988 0.0
H21 H 0.21741 0.40779 0.24856 0.0
H22 H 0.30049 0.47836 0.20342 0.0
H23 H 0.19706 0.43828 0.25257 0.0
H24 H 0.26031 0.52542 0.29167 0.0
O25 O 0.23341 0.43206 0.31843 0.0
O26 O 0.26571 0.4773 0.34316 0.0
O27 O 0.30017 0.50369 0.26667 0.0
C28 C 0.24325 0.45065 0.35032 0.0
H29 H 0.35544 0.45915 0.33441 0.0
H30 H 0.17302 0.4724 0.24304 0.0
H31 H 0.28644 0.46147 0.13078 0.0
H32 H 0.2023 0.3888 0.17645 0.0
Co33 Co 0.80072 0.26159 0.78528 0.0
C34 C 0.86708 0.29086 0.78358 0.0
C35 C 0.85184 0.31897 0.81176 0.0
C36 C 0.88277 0.33411 0.81256 0.0
N37 N 0.84211 0.29196 0.79356 0.0
N38 N 0.89209 0.31636 0.79488 0.0
H39 H 0.867 0.27196 0.76836 0.0
H40 H 0.83741 0.32705 0.82359 0.0
C41 C 0.77693 0.29415 0.73174 0.0
O42 O 0.76275 0.27097 0.70634 0.0
N43 N 0.75859 0.23095 0.7782 0.0
C44 C 0.74717 0.20098 0.77566 0.0
C45 C 0.71646 0.18704 0.7733 0.0
C46 C 0.7342 0.23447 0.77987 0.0
N47 N 0.70825 0.2081 0.7757 0.0
C48 C 0.80771 0.2252 0.72186 0.0
C49 C 0.8263 0.26697 0.65729 0.0
C50 C 0.8189 0.23748 0.64783 0.0
C51 C 0.81049 0.21669 0.68085 0.0
C52 C 0.82249 0.27427 0.69864 0.0
N53 N 0.81102 0.2528 0.72959 0.0
H54 H 0.80274 0.20948 0.74728 0.0
H55 H 0.82829 0.29711 0.70548 0.0
H56 H 0.75977 0.18945 0.7774 0.0
H57 H 0.73526 0.25573 0.7853 0.0
O58 O 0.80695 0.23414 0.8208 0.0
O59 O 0.79236 0.26573 0.84314 0.0
O60 O 0.79293 0.29357 0.76222 0.0
C61 C 0.79899 0.24511 0.85229 0.0
H62 H 0.89733 0.35648 0.82476 0.0
H63 H 0.7014 0.16313 0.77018 0.0
H64 H 0.83377 0.28388 0.63267 0.0
H65 H 0.80588 0.19403 0.67491 0.0
Co66 Co 0.54306 0.8051 0.28231 0.0
C67 C 0.58188 0.87098 0.27517 0.0
C68 C 0.54715 0.85881 0.32153 0.0
C69 C 0.5626 0.88962 0.31727 0.0
N70 N 0.55918 0.84718 0.29491 0.0
N71 N 0.58419 0.89714 0.28776 0.0
H72 H 0.59573 0.86924 0.25082 0.0
H73 H 0.5275 0.84571 0.34096 0.0
C74 C 0.48191 0.78795 0.24309 0.0
O75 O 0.48206 0.76867 0.21593 0.0
N76 N 0.52698 0.76272 0.27031 0.0
C77 C 0.54304 0.74984 0.25789 0.0
C78 C 0.52456 0.71941 0.25577 0.0
C79 C 0.49897 0.73948 0.27745 0.0
N80 N 0.49685 0.71288 0.26789 0.0
C81 C 0.58263 0.81291 0.21271 0.0
C82 C 0.55413 0.8291 0.15295 0.0
C83 C 0.57639 0.82279 0.13964 0.0
C84 C 0.59143 0.81559 0.17031 0.0
C85 C 0.5457 0.82562 0.19556 0.0
N86 N 0.55839 0.81542 0.22436 0.0
H87 H 0.59512 0.8084 0.23612 0.0
H88 H 0.52903 0.83129 0.20504 0.0
H89 H 0.56688 0.76122 0.25247 0.0
H90 H 0.48075 0.74184 0.29034 0.0
O91 O 0.57709 0.80599 0.3112 0.0
O92 O 0.5337 0.79526 0.3408 0.0
O93 O 0.50404 0.80306 0.26788 0.0
C94 C 0.56009 0.79813 0.3449 0.0
H95 H 0.55705 0.90508 0.33255 0.0
H96 H 0.53111 0.70329 0.24617 0.0
H97 H 0.5426 0.83572 0.13045 0.0
H98 H 0.60973 0.81193 0.16155 0.0
Co99 Co 0.73817 0.53731 0.80332 0.0
C100 C 0.72008 0.58427 0.80011 0.0
C101 C 0.69564 0.55003 0.84659 0.0
C102 C 0.68561 0.57028 0.84774 0.0
N103 N 0.71715 0.55871 0.8167 0.0
N104 N 0.7009 0.59158 0.81849 0.0
H105 H 0.73534 0.59689 0.77468 0.0
H106 H 0.68747 0.53001 0.86575 0.0
C107 C 0.68633 0.48173 0.76404 0.0
O108 O 0.70137 0.4855 0.72872 0.0
N109 N 0.75931 0.51512 0.7919 0.0
C110 C 0.78937 0.52653 0.79001 0.0
C111 C 0.7954 0.50381 0.78171 0.0
C112 C 0.74776 0.48517 0.7871 0.0
N113 N 0.76913 0.47785 0.77945 0.0
C114 C 0.76809 0.56061 0.72355 0.0
C115 C 0.71795 0.55071 0.67861 0.0
C116 C 0.74453 0.55862 0.65609 0.0
C117 C 0.7701 0.5646 0.67972 0.0
C118 C 0.71669 0.54584 0.72231 0.0
N119 N 0.74118 0.5491 0.74388 0.0
H120 H 0.78818 0.56611 0.74085 0.0
H121 H 0.69559 0.53826 0.73858 0.0
H122 H 0.80611 0.54987 0.79428 0.0
H123 H 0.72443 0.46859 0.79086 0.0
O124 O 0.77501 0.57079 0.82531 0.0
O125 O 0.74113 0.53179 0.86265 0.0
O126 O 0.69805 0.50012 0.79475 0.0
C127 C 0.76619 0.55718 0.86178 0.0
H128 H 0.6676 0.56885 0.86724 0.0
H129 H 0.81739 0.50632 0.77695 0.0
H130 H 0.69789 0.54744 0.66276 0.0
H131 H 0.79145 0.5712 0.66481 0.0
Co132 Co 0.19943 0.73938 0.28187 0.0
C133 C 0.13403 0.71643 0.28687 0.0
C134 C 0.14639 0.68545 0.3126 0.0
C135 C 0.11577 0.67282 0.31543 0.0
N136 N 0.15772 0.71263 0.2945 0.0
N137 N 0.10791 0.69228 0.29927 0.0
H138 H 0.13597 0.73638 0.2724 0.0
H139 H 0.15947 0.67532 0.32243 0.0
C140 C 0.21736 0.69784 0.23582 0.0
O141 O 0.23804 0.71879 0.21173 0.0
N142 N 0.24171 0.76645 0.27005 0.0
C143 C 0.25451 0.79565 0.25895 0.0
C144 C 0.28506 0.80788 0.25756 0.0
C145 C 0.26503 0.76176 0.27692 0.0
N146 N 0.29164 0.78657 0.26864 0.0
C147 C 0.19001 0.7743 0.21897 0.0
C148 C 0.17495 0.73381 0.15327 0.0
C149 C 0.18084 0.7629 0.14448 0.0
C150 C 0.18742 0.783 0.17798 0.0
C151 C 0.17845 0.7263 0.19461 0.0
N152 N 0.1882 0.74726 0.22624 0.0
H153 H 0.19453 0.7898 0.24468 0.0
H154 H 0.17358 0.7037 0.20067 0.0
H155 H 0.24302 0.80805 0.25408 0.0
H156 H 0.26268 0.74097 0.28885 0.0
O157 O 0.19828 0.7705 0.31587 0.0
O158 O 0.20951 0.73664 0.3393 0.0
O159 O 0.20159 0.70351 0.26135 0.0
C160 C 0.20579 0.75929 0.34751 0.0
H161 H 0.1005 0.65054 0.32725 0.0
H162 H 0.30126 0.83086 0.24944 0.0
H163 H 0.1689 0.71743 0.12815 0.0
H164 H 0.19115 0.80539 0.17237 0.0
Co165 Co 0.45679 0.19098 0.77122 0.0
C166 C 0.42026 0.12492 0.7579 0.0
C167 C 0.44347 0.13568 0.81726 0.0
C168 C 0.42877 0.105 0.81203 0.0
N169 N 0.43804 0.14826 0.78336 0.0
N170 N 0.41434 0.09832 0.77453 0.0
H171 H 0.4123 0.1271 0.72724 0.0
H172 H 0.45818 0.14788 0.8433 0.0
C173 C 0.51907 0.20818 0.73746 0.0
O174 O 0.52365 0.23366 0.72139 0.0
N175 N 0.47548 0.23373 0.75944 0.0
C176 C 0.46811 0.24728 0.72881 0.0
C177 C 0.48779 0.27759 0.73004 0.0
C178 C 0.49896 0.25636 0.77995 0.0
N179 N 0.50714 0.28317 0.76201 0.0
C180 C 0.41082 0.17871 0.71014 0.0
C181 C 0.44437 0.18414 0.63878 0.0
C182 C 0.41712 0.18385 0.63393 0.0
C183 C 0.39964 0.17968 0.67015 0.0
C184 C 0.45478 0.18318 0.6793 0.0
N185 N 0.43889 0.1823 0.71457 0.0
H186 H 0.39764 0.177 0.7377 0.0
H187 H 0.47627 0.18461 0.68165 0.0
H188 H 0.45014 0.23637 0.70624 0.0
H189 H 0.51095 0.25314 0.80572 0.0
O190 O 0.42564 0.19336 0.8036 0.0
O191 O 0.46853 0.20008 0.82954 0.0
O192 O 0.49355 0.18919 0.75307 0.0
C193 C 0.4433 0.19938 0.83619 0.0
H194 H 0.42998 0.08905 0.83314 0.0
H195 H 0.48815 0.29426 0.70872 0.0
H196 H 0.45856 0.18706 0.61174 0.0
H197 H 0.37808 0.17854 0.66781 0.0
Co198 Co 0.54239 0.7284 0.70747 0.0
C199 C 0.58374 0.70525 0.72334 0.0
C200 C 0.54319 0.67252 0.6927 0.0
C201 C 0.5611 0.66002 0.69961 0.0
N202 N 0.55741 0.70078 0.70772 0.0
N203 N 0.5865 0.68061 0.71905 0.0
H204 H 0.60043 0.72602 0.7378 0.0
H205 H 0.52113 0.66163 0.67838 0.0
C206 C 0.48536 0.69727 0.7589 0.0
O207 O 0.4938 0.72242 0.77962 0.0
N208 N 0.5269 0.7561 0.70609 0.0
C209 C 0.54145 0.78592 0.71345 0.0
C210 C 0.521 0.79571 0.71344 0.0
C211 C 0.49817 0.74878 0.69871 0.0
N212 N 0.49357 0.77219 0.70495 0.0
C213 C 0.58432 0.77092 0.76707 0.0
C214 C 0.55855 0.73747 0.8392 0.0
C215 C 0.57996 0.76804 0.84348 0.0
C216 C 0.59421 0.78423 0.80672 0.0
C217 C 0.54959 0.72504 0.79873 0.0
N218 N 0.56011 0.74274 0.76346 0.0
H219 H 0.59553 0.78376 0.73917 0.0
H220 H 0.53329 0.70147 0.79604 0.0
H221 H 0.56515 0.79996 0.71898 0.0
H222 H 0.48074 0.72635 0.69051 0.0
O223 O 0.57581 0.75569 0.67177 0.0
O224 O 0.53172 0.71959 0.64878 0.0
O225 O 0.50288 0.69567 0.73151 0.0
C226 C 0.55832 0.74173 0.63983 0.0
H227 H 0.55538 0.63721 0.69229 0.0
H228 H 0.52595 0.81821 0.72121 0.0
H229 H 0.54766 0.72358 0.8666 0.0
H230 H 0.61226 0.80732 0.80844 0.0
Co231 Co 0.80922 0.5333 0.2171 0.0
C232 C 0.87164 0.58145 0.23785 0.0
C233 C 0.86892 0.54071 0.21511 0.0
C234 C 0.89826 0.56059 0.22496 0.0
N235 N 0.8522 0.55353 0.22371 0.0
N236 N 0.89988 0.58603 0.23913 0.0
H237 H 0.86524 0.5976 0.24786 0.0
H238 H 0.86029 0.51828 0.20272 0.0
C239 C 0.79391 0.47718 0.26901 0.0
O240 O 0.77339 0.47889 0.29176 0.0
N241 N 0.76561 0.51198 0.20881 0.0
C242 C 0.74822 0.52393 0.1987 0.0
C243 C 0.71855 0.50165 0.19884 0.0
C244 C 0.7461 0.48218 0.21174 0.0
N245 N 0.71726 0.47543 0.20776 0.0
C246 C 0.78893 0.56029 0.27871 0.0
C247 C 0.81114 0.546 0.34917 0.0
C248 C 0.79116 0.55678 0.35467 0.0
C249 C 0.78099 0.56511 0.31894 0.0
C250 C 0.81809 0.54105 0.30814 0.0
N251 N 0.80507 0.54603 0.27366 0.0
H252 H 0.78147 0.56746 0.25166 0.0
H253 H 0.83284 0.53189 0.30418 0.0
H254 H 0.75625 0.54735 0.19216 0.0
H255 H 0.75254 0.46538 0.21585 0.0
O256 O 0.8128 0.56682 0.18457 0.0
O257 O 0.81432 0.52747 0.15817 0.0
O258 O 0.808 0.49596 0.23941 0.0
C259 C 0.81558 0.55304 0.15177 0.0
H260 H 0.91708 0.55679 0.22196 0.0
H261 H 0.69942 0.50478 0.19443 0.0
H262 H 0.81996 0.53993 0.37621 0.0
H263 H 0.76642 0.5746 0.32211 0.0
Co264 Co 0.26667 0.79902 0.71572 0.0
C265 C 0.30128 0.86627 0.71183 0.0
C266 C 0.31732 0.84556 0.66795 0.0
C267 C 0.33368 0.8761 0.66225 0.0
N268 N 0.29692 0.8393 0.69896 0.0
N269 N 0.32358 0.88901 0.68984 0.0
H270 H 0.28827 0.86947 0.73595 0.0
H271 H 0.32008 0.829 0.65051 0.0
C272 C 0.32574 0.80808 0.74742 0.0
O273 O 0.33489 0.83639 0.75562 0.0
N274 N 0.23659 0.75885 0.73154 0.0
C275 C 0.20959 0.75043 0.74907 0.0
C276 C 0.19711 0.72113 0.76257 0.0
C277 C 0.2399 0.73449 0.73361 0.0
N278 N 0.21621 0.71129 0.75269 0.0
C279 C 0.24349 0.82433 0.77566 0.0
C280 C 0.26067 0.80572 0.84718 0.0
C281 C 0.24073 0.8166 0.85162 0.0
C282 C 0.23261 0.8266 0.81537 0.0
C283 C 0.27047 0.80323 0.80702 0.0
N284 N 0.26181 0.81228 0.77163 0.0
H285 H 0.2357 0.83059 0.74781 0.0
H286 H 0.28288 0.79155 0.80481 0.0
H287 H 0.20022 0.76494 0.75348 0.0
H288 H 0.25987 0.73417 0.72354 0.0
O289 O 0.23691 0.80354 0.68298 0.0
O290 O 0.26547 0.78583 0.65884 0.0
O291 O 0.29892 0.79041 0.73506 0.0
C292 C 0.24514 0.79307 0.65118 0.0
H293 H 0.35175 0.88794 0.63976 0.0
H294 H 0.17603 0.70826 0.77926 0.0
H295 H 0.26677 0.79689 0.87419 0.0
H296 H 0.21704 0.83495 0.81748 0.0
Co297 Co 0.4609 0.26974 0.2016 0.0
C298 C 0.42293 0.29815 0.20787 0.0
C299 C 0.46508 0.32627 0.17676 0.0
C300 C 0.45019 0.34211 0.18097 0.0
N301 N 0.44812 0.29888 0.19393 0.0
N302 N 0.42381 0.32451 0.20076 0.0
H303 H 0.40512 0.2794 0.22481 0.0
H304 H 0.48721 0.33448 0.16341 0.0
C305 C 0.51683 0.3029 0.25465 0.0
O306 O 0.5072 0.27951 0.27984 0.0
N307 N 0.47489 0.24101 0.20804 0.0
C308 C 0.45971 0.2116 0.21827 0.0
C309 C 0.47976 0.20136 0.22207 0.0
C310 C 0.50358 0.24747 0.20288 0.0
N311 N 0.5075 0.22415 0.21305 0.0
C312 C 0.41876 0.2324 0.26597 0.0
C313 C 0.44145 0.27447 0.33015 0.0
C314 C 0.4203 0.24473 0.34019 0.0
C315 C 0.40812 0.22374 0.30731 0.0
C316 C 0.45192 0.2819 0.28856 0.0
N317 N 0.44237 0.26034 0.25779 0.0
H318 H 0.40814 0.21653 0.2406 0.0
H319 H 0.46816 0.30496 0.28137 0.0
H320 H 0.43584 0.19801 0.22266 0.0
H321 H 0.52141 0.26918 0.19267 0.0
O322 O 0.42749 0.24109 0.16687 0.0
O323 O 0.47283 0.2742 0.14332 0.0
O324 O 0.50041 0.30279 0.22419 0.0
C325 C 0.44594 0.25252 0.13491 0.0
H326 H 0.45844 0.36506 0.17097 0.0
H327 H 0.47428 0.17909 0.23215 0.0
H328 H 0.45065 0.2916 0.35448 0.0
H329 H 0.39061 0.20088 0.31355 0.0
Co330 Co 0.19391 0.4661 0.71702 0.0
C331 C 0.12818 0.42341 0.72465 0.0
C332 C 0.13825 0.46326 0.68989 0.0
C333 C 0.10756 0.44565 0.69326 0.0
N334 N 0.15114 0.44941 0.70972 0.0
N335 N 0.10127 0.42073 0.71539 0.0
H336 H 0.13108 0.40718 0.74278 0.0
H337 H 0.15039 0.48514 0.67517 0.0
C338 C 0.20819 0.51835 0.77523 0.0
O339 O 0.22212 0.50988 0.80194 0.0
N340 N 0.23738 0.48391 0.723 0.0
C341 C 0.25405 0.47029 0.72183 0.0
C342 C 0.28398 0.49165 0.72609 0.0
C343 C 0.25777 0.51352 0.72538 0.0
N344 N 0.28616 0.5188 0.72885 0.0
C345 C 0.1959 0.42611 0.7788 0.0
C346 C 0.17014 0.44096 0.84437 0.0
C347 C 0.18287 0.42295 0.85283 0.0
C348 C 0.19455 0.41433 0.81908 0.0
C349 C 0.17159 0.45185 0.80341 0.0
N350 N 0.18678 0.44654 0.77215 0.0
H351 H 0.20462 0.419 0.75309 0.0
H352 H 0.16139 0.46542 0.79721 0.0
H353 H 0.24552 0.44663 0.71701 0.0
H354 H 0.25226 0.53116 0.72337 0.0
O355 O 0.19224 0.43455 0.68149 0.0
O356 O 0.20012 0.47881 0.65897 0.0
O357 O 0.19607 0.50337 0.74155 0.0
C358 C 0.19713 0.45278 0.64994 0.0
H359 H 0.09121 0.45148 0.68219 0.0
H360 H 0.3026 0.48746 0.72756 0.0
H361 H 0.15983 0.44714 0.86939 0.0
H362 H 0.20381 0.39972 0.82408 0.0
Co363 Co 0.73386 0.19593 0.21909 0.0
C364 C 0.69922 0.12878 0.21922 0.0
C365 C 0.68368 0.14789 0.17203 0.0
C366 C 0.66771 0.11717 0.16798 0.0
N367 N 0.70359 0.15526 0.204 0.0
N368 N 0.67748 0.10531 0.1977 0.0
H369 H 0.71193 0.12642 0.2446 0.0
H370 H 0.68112 0.16378 0.1526 0.0
C371 C 0.67502 0.18729 0.25128 0.0
O372 O 0.66571 0.15893 0.25935 0.0
N373 N 0.76427 0.23627 0.2334 0.0
C374 C 0.79263 0.24484 0.24493 0.0
C375 C 0.8073 0.27498 0.25392 0.0
C376 C 0.76199 0.26125 0.23532 0.0
N377 N 0.78807 0.28533 0.24785 0.0
C378 C 0.75893 0.17272 0.27928 0.0
C379 C 0.74085 0.19058 0.35069 0.0
C380 C 0.76175 0.18092 0.35511 0.0
C381 C 0.77039 0.17133 0.31894 0.0
C382 C 0.73059 0.19237 0.31057 0.0
N383 N 0.73969 0.18369 0.27521 0.0
H384 H 0.76691 0.1666 0.25147 0.0
H385 H 0.71735 0.20315 0.30843 0.0
H386 H 0.80197 0.23015 0.24695 0.0
H387 H 0.74187 0.26187 0.2272 0.0
O388 O 0.76325 0.19109 0.1857 0.0
O389 O 0.7343 0.20839 0.16188 0.0
O390 O 0.70188 0.20486 0.23884 0.0
C391 C 0.75493 0.20158 0.15407 0.0
H392 H 0.65028 0.10448 0.145 0.0
H393 H 0.83026 0.28812 0.26474 0.0
H394 H 0.73429 0.19902 0.37768 0.0
H395 H 0.78673 0.16395 0.32107 0.0
H396 H 0.43673 0.3801 0.22567 0.0
H397 H 0.36335 0.28904 0.20914 0.0
H398 H 0.32743 0.30487 0.23329 0.0
H399 H 0.40844 0.39629 0.32002 0.0
H400 H 0.42177 0.43482 0.30553 0.0
H401 H 0.44126 0.41605 0.28701 0.0
H402 H 0.43524 0.42872 0.20941 0.0
H403 H 0.41583 0.4476 0.22768 0.0
H404 H 0.39831 0.41771 0.18945 0.0
H405 H 0.29952 0.3319 0.25699 0.0
H406 H 0.28259 0.36691 0.28113 0.0
H407 H 0.37501 0.43948 0.28279 0.0
C408 C 0.41309 0.3635 0.22673 0.0
C409 C 0.40276 0.33338 0.21514 0.0
C410 C 0.3717 0.31221 0.218 0.0
C411 C 0.35118 0.32103 0.23153 0.0
C412 C 0.36218 0.35103 0.24247 0.0
C413 C 0.39247 0.37185 0.24046 0.0
C414 C 0.3988 0.40262 0.25433 0.0
C415 C 0.41874 0.41304 0.29409 0.0
C416 C 0.41287 0.4255 0.21805 0.0
C417 C 0.3673 0.39603 0.26416 0.0
C418 C 0.3464 0.36622 0.25702 0.0
C419 C 0.31575 0.35523 0.2629 0.0
C420 C 0.30632 0.37527 0.27643 0.0
C421 C 0.32748 0.40584 0.28422 0.0
C422 C 0.35832 0.41615 0.27799 0.0
H423 H 0.92376 0.33928 0.72339 0.0
H424 H 0.92911 0.31273 0.85148 0.0
H425 H 0.9837 0.33169 0.84213 0.0
H426 H 0.98144 0.32413 0.67576 0.0
H427 H 0.99581 0.35666 0.64195 0.0
H428 H 0.95673 0.33702 0.65691 0.0
H429 H 0.96218 0.38654 0.68637 0.0
H430 H 0.0012 0.40627 0.67169 0.0
H431 H 0.99046 0.40735 0.72576 0.0
H432 H 0.03826 0.3577 0.82052 0.0
H433 H 0.08863 0.39073 0.79021 0.0
H434 H 0.04771 0.40134 0.67636 0.0
C435 C 0.93648 0.3368 0.74881 0.0
C436 C 0.92262 0.32414 0.7878 0.0
C437 C 0.93965 0.32196 0.82123 0.0
C438 C 0.97049 0.33262 0.81611 0.0
C439 C 0.98379 0.34543 0.77733 0.0
C440 C 0.96729 0.34754 0.74422 0.0
C441 C 0.98733 0.36475 0.70726 0.0
C442 C 0.97988 0.34442 0.66816 0.0
C443 C 0.98516 0.39289 0.69722 0.0
C444 C 0.01778 0.37291 0.72522 0.0
C445 C 0.01525 0.36107 0.76532 0.0
C446 C 0.04047 0.36674 0.78892 0.0
C447 C 0.06901 0.38541 0.77137 0.0
C448 C 0.0721 0.39853 0.73086 0.0
C449 C 0.04604 0.39166 0.70739 0.0
H450 H 0.66358 0.07517 0.27223 0.0
H451 H 0.66782 0.06492 0.13667 0.0
H452 H 0.64811 0.01044 0.14605 0.0
H453 H 0.68221 0.01773 0.30538 0.0
H454 H 0.65572 0.00473 0.34857 0.0
H455 H 0.67318 0.04333 0.33171 0.0
H456 H 0.62073 0.03785 0.3207 0.0
H457 H 0.60313 0.99927 0.33746 0.0
H458 H 0.59393 0.00855 0.28665 0.0
H459 H 0.62632 0.95728 0.16967 0.0
H460 H 0.60003 0.90799 0.20504 0.0
H461 H 0.60732 0.95183 0.32542 0.0
C462 C 0.66083 0.0614 0.24478 0.0
C463 C 0.66741 0.07402 0.20376 0.0
C464 C 0.66287 0.05545 0.16827 0.0
C465 C 0.65187 0.02462 0.17336 0.0
C466 C 0.64524 0.01271 0.21416 0.0
C467 C 0.64929 0.03043 0.24928 0.0
C468 C 0.638 0.01154 0.28915 0.0
C469 C 0.66382 0.01983 0.32055 0.0
C470 C 0.61243 0.01448 0.30968 0.0
C471 C 0.62662 0.98045 0.27085 0.0
C472 C 0.63152 0.98174 0.22766 0.0
C473 C 0.62254 0.95597 0.20353 0.0
C474 C 0.60779 0.92807 0.22397 0.0
C475 C 0.6018 0.92608 0.26805 0.0
C476 C 0.6116 0.95271 0.29172 0.0
H477 H 0.67583 0.59297 0.74454 0.0
H478 H 0.70718 0.63814 0.86478 0.0
H479 H 0.68648 0.67132 0.84752 0.0
H480 H 0.68412 0.65878 0.68113 0.0
H481 H 0.64968 0.63555 0.65283 0.0
H482 H 0.67229 0.61995 0.67079 0.0
H483 H 0.6263 0.5782 0.71068 0.0
H484 H 0.60366 0.5938 0.69333 0.0
H485 H 0.60705 0.5885 0.74908 0.0
H486 H 0.6574 0.69511 0.82094 0.0
H487 H 0.62036 0.70639 0.78897 0.0
H488 H 0.60547 0.64382 0.68717 0.0
C489 C 0.67932 0.61077 0.76619 0.0
C490 C 0.69377 0.61392 0.80532 0.0
C491 C 0.69677 0.63619 0.83425 0.0
C492 C 0.68509 0.65499 0.82466 0.0
C493 C 0.67018 0.65087 0.78619 0.0
C494 C 0.66724 0.62928 0.75737 0.0
C495 C 0.64687 0.62673 0.721 0.0
C496 C 0.66429 0.6358 0.67894 0.0
C497 C 0.61935 0.59493 0.71841 0.0
C498 C 0.63804 0.64953 0.73453 0.0
C499 C 0.65224 0.66366 0.77172 0.0
C500 C 0.64651 0.68453 0.79147 0.0
C501 C 0.62549 0.69087 0.773 0.0
C502 C 0.61008 0.67607 0.73549 0.0
C503 C 0.61684 0.65544 0.71586 0.0
H504 H 0.05748 0.65085 0.34009 0.0
H505 H 0.08917 0.72072 0.24436 0.0
H506 H 0.03686 0.70688 0.22879 0.0
H507 H 0.0013 0.59753 0.28034 0.0
H508 H 0.97521 0.57973 0.32335 0.0
H509 H 0.01482 0.59968 0.33365 0.0
H510 H 0.00738 0.63276 0.38888 0.0
H511 H 0.96758 0.61292 0.37842 0.0
H512 H 0.98887 0.6532 0.37341 0.0
H513 H 0.98089 0.6801 0.21558 0.0
H514 H 0.92779 0.64089 0.20309 0.0
H515 H 0.93356 0.58754 0.30432 0.0
C516 C 0.05365 0.66365 0.31627 0.0
C517 C 0.07772 0.68691 0.29353 0.0
C518 C 0.07135 0.70309 0.2628 0.0
C519 C 0.04159 0.69538 0.25369 0.0
C520 C 0.0184 0.67158 0.27574 0.0
C521 C 0.0242 0.65601 0.30649 0.0
C522 C 0.99567 0.62878 0.3216 0.0
C523 C 0.99683 0.59974 0.31425 0.0
C524 C 0.98952 0.63213 0.36835 0.0
C525 C 0.97302 0.63048 0.29297 0.0
C526 C 0.9863 0.6558 0.2676 0.0
C527 C 0.97015 0.6606 0.23597 0.0
C528 C 0.94006 0.63843 0.22918 0.0
C529 C 0.92685 0.61179 0.25341 0.0
C530 C 0.94323 0.60825 0.28637 0.0
H531 H 0.33115 0.9199 0.76285 0.0
H532 H 0.341 0.92949 0.62647 0.0
H533 H 0.36247 0.98431 0.63337 0.0
H534 H 0.31284 0.97963 0.78133 0.0
H535 H 0.33437 0.99199 0.82959 0.0
H536 H 0.31728 0.95323 0.81369 0.0
H537 H 0.36912 0.95638 0.81736 0.0
H538 H 0.38638 0.99514 0.83307 0.0
H539 H 0.40008 0.98481 0.78719 0.0
H540 H 0.38505 0.03784 0.655 0.0
H541 H 0.40905 0.08719 0.68989 0.0
H542 H 0.38535 0.04351 0.81286 0.0
C543 C 0.33732 0.93357 0.73451 0.0
C544 C 0.33434 0.9206 0.69409 0.0
C545 C 0.34328 0.93913 0.65767 0.0
C546 C 0.35531 0.9702 0.66129 0.0
C547 C 0.35839 0.98239 0.70161 0.0
C548 C 0.34974 0.96473 0.73763 0.0
C549 C 0.35735 0.9838 0.77729 0.0
C550 C 0.32875 0.97674 0.80192 0.0
C551 C 0.37956 0.97979 0.80537 0.0
C552 C 0.37195 0.01491 0.75789 0.0
C553 C 0.37199 0.01351 0.71419 0.0
C554 C 0.3849 0.03925 0.6892 0.0
C555 C 0.39834 0.06723 0.70938 0.0
C556 C 0.39896 0.06934 0.7542 0.0
C557 C 0.38536 0.0427 0.7786 0.0
H558 H 0.2061 0.46171 0.91869 0.0
H559 H 0.16931 0.36802 0.8855 0.0
H560 H 0.1799 0.35742 0.95821 0.0
H561 H 0.26659 0.46788 0.97922 0.0
H562 H 0.26543 0.49313 0.0178 0.0
H563 H 0.25273 0.49264 0.96452 0.0
H564 H 0.20107 0.48226 0.99294 0.0
H565 H 0.21373 0.48308 0.04636 0.0
H566 H 0.17989 0.45075 0.0277 0.0
H567 H 0.19531 0.35775 0.03517 0.0
H568 H 0.21545 0.36931 0.10847 0.0
H569 H 0.24409 0.4632 0.0881 0.0
C570 C 0.19968 0.43884 0.92702 0.0
C571 C 0.18649 0.41556 0.8969 0.0
C572 C 0.17927 0.38608 0.90841 0.0
C573 C 0.18518 0.3799 0.94952 0.0
C574 C 0.19862 0.40353 0.97838 0.0
C575 C 0.20582 0.43242 0.9675 0.0
C576 C 0.22149 0.45422 0.0033 0.0
C577 C 0.25345 0.47838 0.99042 0.0
C578 C 0.20293 0.4684 0.01847 0.0
C579 C 0.22207 0.43316 0.03614 0.0
C580 C 0.20856 0.40395 0.02149 0.0
C581 C 0.20603 0.38057 0.04687 0.0
C582 C 0.2175 0.38729 0.08832 0.0
C583 C 0.23165 0.41717 0.10352 0.0
C584 C 0.23394 0.44026 0.07694 0.0
H585 H 0.73578 0.16249 0.43317 0.0
H586 H 0.82205 0.21017 0.37002 0.0
H587 H 0.84735 0.22613 0.43954 0.0
H588 H 0.74931 0.21515 0.509 0.0
H589 H 0.7299 0.18939 0.55174 0.0
H590 H 0.71902 0.17781 0.49784 0.0
H591 H 0.72723 0.13247 0.50873 0.0
H592 H 0.73779 0.14369 0.563 0.0
H593 H 0.76282 0.13869 0.52832 0.0
H594 H 0.86198 0.24431 0.51482 0.0
H595 H 0.86517 0.2583 0.59072 0.0
H596 H 0.76988 0.1964 0.60493 0.0
C597 C 0.76007 0.17548 0.43415 0.0
C598 C 0.77703 0.1849 0.39638 0.0
C599 C 0.80873 0.20227 0.39868 0.0
C600 C 0.82325 0.21157 0.438 0.0
C601 C 0.80578 0.20283 0.47468 0.0
C602 C 0.77491 0.18458 0.47312 0.0
C603 C 0.76107 0.17985 0.51679 0.0
C604 C 0.73851 0.19124 0.51894 0.0
C605 C 0.74636 0.14671 0.52998 0.0
C606 C 0.78878 0.19924 0.54298 0.0
C607 C 0.8144 0.21233 0.5182 0.0
C608 C 0.84222 0.23354 0.53474 0.0
C609 C 0.84385 0.24145 0.57767 0.0
C610 C 0.81789 0.22792 0.60346 0.0
C611 C 0.79016 0.20638 0.58596 0.0
H612 H 0.5803 0.779 0.09598 0.0
H613 H 0.58596 0.86544 0.08016 0.0
H614 H 0.59219 0.86268 0.00285 0.0
H615 H 0.63385 0.78776 0.01111 0.0
H616 H 0.61191 0.74902 0.99521 0.0
H617 H 0.61141 0.75942 0.04961 0.0
H618 H 0.55343 0.73413 0.04671 0.0
H619 H 0.55374 0.7238 0.99233 0.0
H620 H 0.53623 0.74544 0.00645 0.0
H621 H 0.59372 0.84875 0.92742 0.0
H622 H 0.589 0.82429 0.85866 0.0
H623 H 0.58239 0.74655 0.92304 0.0
C624 C 0.58364 0.79768 0.0763 0.0
C625 C 0.58297 0.8226 0.09395 0.0
C626 C 0.58647 0.84621 0.06716 0.0
C627 C 0.59015 0.84488 0.02333 0.0
C628 C 0.5902 0.81975 0.00682 0.0
C629 C 0.58705 0.79657 0.03245 0.0
C630 C 0.58548 0.77105 0.00639 0.0
C631 C 0.61227 0.76656 0.01617 0.0
C632 C 0.55543 0.74189 0.01339 0.0
C633 C 0.58762 0.78323 0.96205 0.0
C634 C 0.59072 0.81151 0.96309 0.0
C635 C 0.59178 0.82682 0.92619 0.0
C636 C 0.58928 0.81275 0.88719 0.0
C637 C 0.58564 0.78354 0.88518 0.0
C638 C 0.58514 0.76884 0.92332 0.0
H639 H 0.82146 0.58551 0.42736 0.0
H640 H 0.73248 0.52722 0.37655 0.0
H641 H 0.71038 0.52397 0.44726 0.0
H642 H 0.81076 0.55011 0.52677 0.0
H643 H 0.8318 0.58425 0.5567 0.0
H644 H 0.84061 0.58308 0.50178 0.0
H645 H 0.83309 0.62834 0.48592 0.0
H646 H 0.82433 0.62969 0.54089 0.0
H647 H 0.79822 0.6264 0.50028 0.0
H648 H 0.69872 0.52263 0.52409 0.0
H649 H 0.69736 0.52574 0.60129 0.0
H650 H 0.79323 0.59043 0.60169 0.0
C651 C 0.79733 0.57234 0.43127 0.0
C652 C 0.77856 0.55661 0.39679 0.0
C653 C 0.7471 0.53957 0.40271 0.0
C654 C 0.73439 0.53757 0.44267 0.0
C655 C 0.75344 0.55323 0.47615 0.0
C656 C 0.78417 0.57065 0.47084 0.0
C657 C 0.79945 0.58502 0.5123 0.0
C658 C 0.82198 0.57501 0.52514 0.0
C659 C 0.81467 0.61941 0.50968 0.0
C660 C 0.7726 0.57218 0.54187 0.0
C661 C 0.74634 0.55385 0.52034 0.0
C662 C 0.71901 0.53757 0.54123 0.0
C663 C 0.71849 0.53982 0.58541 0.0
C664 C 0.74508 0.55869 0.60858 0.0
C665 C 0.77236 0.57549 0.58586 0.0
H666 H 0.26707 0.83301 0.9298 0.0
H667 H 0.18065 0.79156 0.86682 0.0
H668 H 0.15512 0.77745 0.93637 0.0
H669 H 0.24879 0.77897 0.00571 0.0
H670 H 0.26984 0.80401 0.04834 0.0
H671 H 0.28127 0.81494 0.99437 0.0
H672 H 0.27827 0.86332 0.00523 0.0
H673 H 0.26713 0.85271 0.05953 0.0
H674 H 0.24403 0.86054 0.02487 0.0
H675 H 0.1394 0.76028 0.01178 0.0
H676 H 0.13494 0.74609 0.08779 0.0
H677 H 0.23133 0.80081 0.10164 0.0
C678 C 0.24278 0.82174 0.93079 0.0
C679 C 0.22581 0.81358 0.89303 0.0
C680 C 0.19406 0.79851 0.89542 0.0
C681 C 0.17938 0.79025 0.93478 0.0
C682 C 0.19679 0.79769 0.97142 0.0
C683 C 0.22782 0.81365 0.96978 0.0
C684 C 0.24139 0.81721 0.01343 0.0
C685 C 0.26149 0.80292 0.01555 0.0
C686 C 0.25873 0.85042 0.02653 0.0
C687 C 0.21322 0.79979 0.03969 0.0
C688 C 0.18766 0.78872 0.01498 0.0
C689 C 0.15917 0.76952 0.03165 0.0
C690 C 0.15681 0.76149 0.07463 0.0
C691 C 0.18274 0.77295 0.10028 0.0
C692 C 0.21116 0.79251 0.08269 0.0
H693 H 0.4222 0.16444 0.55443 0.0
H694 H 0.39493 0.22144 0.61915 0.0
H695 H 0.38784 0.23961 0.55027 0.0
H696 H 0.46514 0.21581 0.47654 0.0
H697 H 0.45488 0.18889 0.43424 0.0
H698 H 0.45404 0.17732 0.48824 0.0
H699 H 0.39827 0.13613 0.4797 0.0
H700 H 0.39897 0.14749 0.42549 0.0
H701 H 0.3713 0.14635 0.46172 0.0
H702 H 0.39066 0.25698 0.47525 0.0
H703 H 0.39993 0.2695 0.39891 0.0
H704 H 0.42375 0.20032 0.38243 0.0
C705 C 0.4142 0.18032 0.55407 0.0
C706 C 0.40889 0.19129 0.59228 0.0
C707 C 0.39856 0.21219 0.5904 0.0
C708 C 0.39463 0.22281 0.55137 0.0
C709 C 0.40079 0.21211 0.51438 0.0
C710 C 0.40996 0.19101 0.51534 0.0
C711 C 0.41672 0.18446 0.47113 0.0
C712 C 0.44965 0.19209 0.46734 0.0
C713 C 0.39501 0.15166 0.45879 0.0
C714 C 0.41087 0.20587 0.44535 0.0
C715 C 0.40161 0.22157 0.47088 0.0
C716 C 0.39726 0.24438 0.45479 0.0
C717 C 0.40266 0.25142 0.41154 0.0
C718 C 0.41204 0.23553 0.38489 0.0
C719 C 0.41581 0.21224 0.402 0.0
H720 H 0.77386 0.56015 0.10973 0.0
H721 H 0.86175 0.56917 0.09667 0.0
H722 H 0.86265 0.58169 0.0206 0.0
H723 H 0.74619 0.51988 0.0192 0.0
H724 H 0.72241 0.53493 0.00472 0.0
H725 H 0.73197 0.53452 0.05931 0.0
H726 H 0.75313 0.59196 0.06397 0.0
H727 H 0.74361 0.59254 0.00914 0.0
H728 H 0.78159 0.61656 0.02702 0.0
H729 H 0.85119 0.58704 0.94452 0.0
H730 H 0.82601 0.57825 0.87464 0.0
H731 H 0.74392 0.56088 0.93727 0.0
C732 C 0.79373 0.56601 0.09105 0.0
C733 C 0.81812 0.56467 0.10873 0.0
C734 C 0.8432 0.57081 0.08338 0.0
C735 C 0.84392 0.57805 0.04036 0.0
C736 C 0.81913 0.57854 0.02329 0.0
C737 C 0.79437 0.57241 0.04788 0.0
C738 C 0.76858 0.5691 0.02093 0.0
C739 C 0.74067 0.53775 0.02636 0.0
C740 C 0.76131 0.59404 0.03086 0.0
C741 C 0.78221 0.57311 0.97727 0.0
C742 C 0.81173 0.5796 0.97922 0.0
C743 C 0.82826 0.58243 0.94262 0.0
C744 C 0.81391 0.57755 0.90313 0.0
C745 C 0.78328 0.56917 0.90104 0.0
C746 C 0.76754 0.56765 0.93836 0.0
H747 H 0.25746 0.76822 0.58443 0.0
H748 H 0.20835 0.81344 0.61868 0.0
H749 H 0.19375 0.81197 0.54314 0.0
H750 H 0.28664 0.80607 0.48666 0.0
H751 H 0.28356 0.77335 0.46094 0.0
H752 H 0.28936 0.77795 0.51731 0.0
H753 H 0.24162 0.72622 0.52993 0.0
H754 H 0.23587 0.72131 0.47363 0.0
H755 H 0.20639 0.71887 0.5073 0.0
H756 H 0.18573 0.80558 0.46121 0.0
H757 H 0.18247 0.79198 0.38489 0.0
H758 H 0.23757 0.75165 0.40908 0.0
C759 C 0.24351 0.77777 0.57637 0.0
C760 C 0.234 0.79092 0.60742 0.0
C761 C 0.21575 0.8031 0.59531 0.0
C762 C 0.20753 0.8025 0.55251 0.0
C763 C 0.21781 0.78969 0.52255 0.0
C764 C 0.23529 0.77742 0.53433 0.0
C765 C 0.24361 0.76474 0.49705 0.0
C766 C 0.27782 0.78154 0.4901 0.0
C767 C 0.23111 0.73078 0.5023 0.0
C768 C 0.22782 0.77135 0.46211 0.0
C769 C 0.21322 0.78599 0.47689 0.0
C770 C 0.19711 0.79411 0.44949 0.0
C771 C 0.19549 0.78648 0.40625 0.0
C772 C 0.20967 0.7707 0.39129 0.0
C773 C 0.22632 0.76356 0.41963 0.0
H774 H 0.48289 0.23104 0.89806 0.0
H775 H 0.38754 0.1816 0.8709 0.0
H776 H 0.37677 0.18958 0.94514 0.0
H777 H 0.47973 0.20418 0.00187 0.0
H778 H 0.50913 0.23958 0.02185 0.0
H779 H 0.5087 0.23032 0.96677 0.0
H780 H 0.50933 0.27928 0.94507 0.0
H781 H 0.51001 0.28881 1.00011 0.0
H782 H 0.48104 0.28676 0.96579 0.0
H783 H 0.37741 0.20087 0.02541 0.0
H784 H 0.38942 0.21801 0.10018 0.0
H785 H 0.48439 0.26155 0.07052 0.0
C786 C 0.45969 0.22194 0.9076 0.0
C787 C 0.436 0.20554 0.87897 0.0
C788 C 0.406 0.19431 0.89247 0.0
C789 C 0.39972 0.19864 0.93456 0.0
C790 C 0.42376 0.21461 0.96228 0.0
C791 C 0.45315 0.22641 0.94893 0.0
C792 C 0.47519 0.24298 0.9841 0.0
C793 C 0.4943 0.22838 0.99423 0.0
C794 C 0.49505 0.27644 0.97311 0.0
C795 C 0.45374 0.23846 0.01974 0.0
C796 C 0.42413 0.22189 0.00697 0.0
C797 C 0.40054 0.21413 0.03549 0.0
C798 C 0.40753 0.22383 0.07787 0.0
C799 C 0.4378 0.24132 0.091 0.0
C800 C 0.461 0.24855 0.06138 0.0
H801 H 0.24448 0.48919 0.40922 0.0
H802 H 0.21267 0.39476 0.3877 0.0
H803 H 0.19552 0.38388 0.46263 0.0
H804 H 0.27306 0.49419 0.511 0.0
H805 H 0.26159 0.51987 0.53051 0.0
H806 H 0.26937 0.5194 0.47504 0.0
H807 H 0.21627 0.51001 0.45613 0.0
H808 H 0.2084 0.51074 0.5116 0.0
H809 H 0.18373 0.47872 0.47969 0.0
H810 H 0.18622 0.38501 0.54267 0.0
H811 H 0.18179 0.39721 0.61749 0.0
H812 H 0.21837 0.49069 0.58282 0.0
C813 C 0.23364 0.46614 0.42011 0.0
C814 C 0.22998 0.44278 0.393 0.0
C815 C 0.2155 0.4129 0.40815 0.0
C816 C 0.20584 0.40659 0.45059 0.0
C817 C 0.21044 0.43041 0.47685 0.0
C818 C 0.2236 0.4595 0.4618 0.0
C819 C 0.22648 0.48134 0.49592 0.0
C820 C 0.25959 0.50508 0.50356 0.0
C821 C 0.20759 0.49606 0.48519 0.0
C822 C 0.21348 0.4602 0.53303 0.0
C823 C 0.20437 0.4309 0.52172 0.0
C824 C 0.19293 0.40782 0.55165 0.0
C825 C 0.19062 0.41495 0.59403 0.0
C826 C 0.19955 0.44484 0.60578 0.0
C827 C 0.21102 0.46757 0.57474 0.0
H828 H 0.774 0.2586 0.91786 0.0
H829 H 0.81853 0.2083 0.88686 0.0
H830 H 0.81436 0.19252 0.96225 0.0
H831 H 0.80713 0.28506 0.01955 0.0
H832 H 0.77318 0.2813 0.04205 0.0
H833 H 0.78064 0.28872 0.98631 0.0
H834 H 0.72959 0.24149 0.9686 0.0
H835 H 0.72191 0.23401 0.02425 0.0
H836 H 0.72116 0.20561 0.98999 0.0
H837 H 0.80457 0.18268 0.04344 0.0
H838 H 0.78786 0.17776 0.11855 0.0
H839 H 0.74962 0.23439 0.09158 0.0
C840 C 0.78308 0.24438 0.92674 0.0
C841 C 0.79676 0.23481 0.89659 0.0
C842 C 0.80798 0.21591 0.90957 0.0
C843 C 0.80577 0.20694 0.95229 0.0
C844 C 0.79217 0.21699 0.98131 0.0
C845 C 0.78089 0.23517 0.96869 0.0
C846 C 0.76643 0.24243 0.00487 0.0
C847 C 0.78284 0.27639 0.01371 0.0
C848 C 0.73279 0.23014 0.99642 0.0
C849 C 0.77123 0.22554 0.04017 0.0
C850 C 0.78624 0.21107 0.02648 0.0
C851 C 0.7928 0.19396 0.05432 0.0
C852 C 0.78336 0.19136 0.09688 0.0
C853 C 0.76738 0.2056 0.11079 0.0
C854 C 0.76166 0.22308 0.08197 0.0
H855 H 0.52173 0.72326 0.57117 0.0
H856 H 0.61407 0.78299 0.60851 0.0
H857 H 0.62662 0.80116 0.53434 0.0
H858 H 0.5364 0.70496 0.46501 0.0
H859 H 0.50417 0.70517 0.44297 0.0
H860 H 0.50384 0.69472 0.49754 0.0
H861 H 0.49161 0.73576 0.52114 0.0
H862 H 0.49189 0.7463 0.46677 0.0
H863 H 0.51592 0.77408 0.50482 0.0
H864 H 0.62775 0.81437 0.45502 0.0
H865 H 0.61631 0.82364 0.38175 0.0
H866 H 0.52285 0.75661 0.40057 0.0
C867 C 0.54477 0.73974 0.56373 0.0
C868 C 0.56701 0.7515 0.59547 0.0
C869 C 0.59672 0.77354 0.58453 0.0
C870 C 0.60404 0.7839 0.54249 0.0
C871 C 0.58135 0.77204 0.51198 0.0
C872 C 0.55228 0.75049 0.52237 0.0
C873 C 0.53125 0.74297 0.48523 0.0
C874 C 0.51815 0.71 0.47191 0.0
C875 C 0.50621 0.75023 0.49509 0.0
C876 C 0.55278 0.76403 0.45233 0.0
C877 C 0.58174 0.78031 0.46777 0.0
C878 C 0.60516 0.80161 0.44268 0.0
C879 C 0.59855 0.80669 0.40116 0.0
C880 C 0.56873 0.79094 0.38587 0.0
C881 C 0.54585 0.7691 0.41164 0.0
H882 H 0.25778 0.56632 0.25157 0.0
H883 H 0.1633 0.50706 0.27906 0.0
H884 H 0.15382 0.54907 0.26956 0.0
H885 H 0.26362 0.63193 0.30599 0.0
H886 H 0.28918 0.65819 0.26755 0.0
H887 H 0.28878 0.62347 0.27716 0.0
H888 H 0.27987 0.61102 0.19726 0.0
H889 H 0.27968 0.64545 0.18755 0.0
H890 H 0.2481 0.61007 0.17152 0.0
H891 H 0.15373 0.59599 0.25644 0.0
H892 H 0.16372 0.64757 0.24588 0.0
H893 H 0.25833 0.67825 0.22658 0.0
C894 C 0.23522 0.56238 0.25617 0.0
C895 C 0.21117 0.53331 0.2657 0.0
C896 C 0.18192 0.52896 0.27109 0.0
C897 C 0.17632 0.5527 0.26582 0.0
C898 C 0.20022 0.58078 0.25526 0.0
C899 C 0.22918 0.58598 0.25095 0.0
C900 C 0.25069 0.61866 0.23987 0.0
C901 C 0.27447 0.63397 0.27473 0.0
C902 C 0.26545 0.62144 0.19646 0.0
C903 C 0.22915 0.63083 0.23855 0.0
C904 C 0.20018 0.60838 0.24745 0.0
C905 C 0.17627 0.61379 0.24937 0.0
C906 C 0.18217 0.64313 0.24321 0.0
C907 C 0.2117 0.66676 0.23507 0.0
C908 C 0.23545 0.66045 0.23188 0.0
H909 H 0.69072 0.24772 0.74948 0.0
H910 H 0.6569 0.15702 0.79634 0.0
H911 H 0.60513 0.14677 0.78742 0.0
H912 H 0.63455 0.25958 0.80122 0.0
H913 H 0.63183 0.28101 0.75801 0.0
H914 H 0.6665 0.28125 0.76734 0.0
H915 H 0.66579 0.26389 0.6903 0.0
H916 H 0.63093 0.26323 0.68068 0.0
H917 H 0.63356 0.23004 0.67138 0.0
H918 H 0.55721 0.14578 0.77342 0.0
H919 H 0.51553 0.15525 0.75992 0.0
H920 H 0.57948 0.24695 0.72332 0.0
C921 C 0.67246 0.22582 0.75831 0.0
C922 C 0.67803 0.20308 0.77326 0.0
C923 C 0.65336 0.17464 0.78407 0.0
C924 C 0.6238 0.1686 0.77925 0.0
C925 C 0.61911 0.19125 0.76374 0.0
C926 C 0.64267 0.21939 0.75379 0.0
C927 C 0.6312 0.23982 0.73846 0.0
C928 C 0.64163 0.26702 0.76804 0.0
C929 C 0.64095 0.24982 0.69247 0.0
C930 C 0.59752 0.2187 0.74156 0.0
C931 C 0.59117 0.19077 0.75597 0.0
C932 C 0.56184 0.16755 0.76211 0.0
C933 C 0.5383 0.17316 0.75425 0.0
C934 C 0.54413 0.20181 0.74043 0.0
C935 C 0.57421 0.22471 0.73342 0.0
H936 H 0.43865 0.69717 0.25132 0.0
H937 H 0.49636 0.66164 0.28709 0.0
H938 H 0.45385 0.61023 0.28052 0.0
H939 H 0.37132 0.63923 0.30762 0.0
H940 H 0.34607 0.63823 0.26721 0.0
H941 H 0.38104 0.67232 0.27672 0.0
H942 H 0.39433 0.67343 0.19723 0.0
H943 H 0.35986 0.63874 0.18819 0.0
H944 H 0.39532 0.64176 0.17451 0.0
H945 H 0.40721 0.56348 0.26763 0.0
H946 H 0.35584 0.52199 0.25617 0.0
H947 H 0.32612 0.58587 0.22927 0.0
C948 C 0.44208 0.67851 0.25848 0.0
C949 C 0.47088 0.68332 0.26926 0.0
C950 C 0.47464 0.65841 0.27805 0.0
C951 C 0.45064 0.62914 0.27448 0.0
C952 C 0.42287 0.62509 0.26234 0.0
C953 C 0.41815 0.6489 0.2551 0.0
C954 C 0.3857 0.63777 0.24264 0.0
C955 C 0.3701 0.64746 0.27551 0.0
C956 C 0.38371 0.64857 0.19798 0.0
C957 C 0.37322 0.60404 0.24362 0.0
C958 C 0.39527 0.59748 0.25501 0.0
C959 C 0.38965 0.56821 0.25884 0.0
C960 C 0.36042 0.54483 0.25216 0.0
C961 C 0.33711 0.55077 0.24173 0.0
C962 C 0.34367 0.58077 0.23654 0.0
H963 H 0.81251 0.35025 0.76362 0.0
H964 H 0.72913 0.29582 0.69573 0.0
H965 H 0.71792 0.33733 0.70012 0.0
H966 H 0.78503 0.38303 0.83551 0.0
H967 H 0.81871 0.41928 0.83573 0.0
H968 H 0.8209 0.38606 0.82487 0.0
H969 H 0.84779 0.40888 0.75367 0.0
H970 H 0.846 0.44234 0.76447 0.0
H971 H 0.83058 0.42195 0.71591 0.0
H972 H 0.7146 0.38402 0.71659 0.0
H973 H 0.72121 0.43312 0.73844 0.0
H974 H 0.80705 0.45651 0.79493 0.0
C975 C 0.79208 0.34718 0.7491 0.0
C976 C 0.77173 0.31989 0.72916 0.0
C977 C 0.74521 0.31671 0.71067 0.0
C978 C 0.73858 0.34009 0.71327 0.0
C979 C 0.7589 0.36652 0.73402 0.0
C980 C 0.78529 0.37027 0.7511 0.0
C981 C 0.80321 0.40054 0.77235 0.0
C982 C 0.80718 0.39699 0.81993 0.0
C983 C 0.8337 0.41955 0.75027 0.0
C984 C 0.78268 0.41325 0.76498 0.0
C985 C 0.75716 0.39329 0.743 0.0
C986 C 0.73459 0.39987 0.73356 0.0
C987 C 0.73843 0.42771 0.74643 0.0
C988 C 0.76469 0.4487 0.76836 0.0
C989 C 0.78694 0.44115 0.77778 0.0
H990 H 0.30905 0.74643 0.24565 0.0
H991 H 0.34124 0.83574 0.29638 0.0
H992 H 0.39323 0.84547 0.29358 0.0
H993 H 0.36394 0.732 0.30057 0.0
H994 H 0.36789 0.7123 0.25602 0.0
H995 H 0.33301 0.71182 0.26459 0.0
H996 H 0.33641 0.73198 0.1884 0.0
H997 H 0.37171 0.73324 0.18028 0.0
H998 H 0.36914 0.76664 0.17283 0.0
H999 H 0.44104 0.84673 0.28331 0.0
H1000 H 0.48353 0.83865 0.26991 0.0
H1001 H 0.4221 0.74853 0.22463 0.0
C1002 C 0.32709 0.76776 0.25686 0.0
C1003 C 0.32128 0.79044 0.27117 0.0
C1004 C 0.34535 0.81827 0.28498 0.0
C1005 C 0.37489 0.82395 0.28356 0.0
C1006 C 0.38003 0.80157 0.26818 0.0
C1007 C 0.35694 0.77392 0.25537 0.0
C1008 C 0.36914 0.75422 0.23929 0.0
C1009 C 0.35783 0.72591 0.26678 0.0
C1010 C 0.36112 0.74605 0.19241 0.0
C1011 C 0.40265 0.77529 0.245 0.0
C1012 C 0.40819 0.80242 0.26174 0.0
C1013 C 0.43708 0.82558 0.27034 0.0
C1014 C 0.46106 0.82075 0.26254 0.0
C1015 C 0.45612 0.793 0.24615 0.0
C1016 C 0.42653 0.77009 0.23665 0.0
H1017 H 0.65035 0.43931 0.70579 0.0
H1018 H 0.65913 0.45951 0.8404 0.0
H1019 H 0.61462 0.41026 0.85476 0.0
H1020 H 0.56912 0.40098 0.70363 0.0
H1021 H 0.56602 0.37369 0.66512 0.0
H1022 H 0.59871 0.41062 0.66552 0.0
H1023 H 0.63279 0.38697 0.67221 0.0
H1024 H 0.6002 0.34997 0.67219 0.0
H1025 H 0.62672 0.36146 0.71519 0.0
H1026 H 0.57075 0.35748 0.85502 0.0
H1027 H 0.52714 0.30711 0.83958 0.0
H1028 H 0.54564 0.32281 0.70527 0.0
C1029 C 0.6428 0.43345 0.73824 0.0
C1030 C 0.65826 0.45322 0.77191 0.0
C1031 C 0.6476 0.44478 0.81398 0.0
C1032 C 0.62241 0.41677 0.82255 0.0
C1033 C 0.60793 0.39762 0.78871 0.0
C1034 C 0.61745 0.40574 0.74735 0.0
C1035 C 0.59753 0.38125 0.71668 0.0
C1036 C 0.58192 0.3923 0.68593 0.0
C1037 C 0.61538 0.3692 0.69267 0.0
C1038 C 0.57539 0.35814 0.74727 0.0
C1039 C 0.58197 0.36779 0.78875 0.0
C1040 C 0.56516 0.34978 0.82264 0.0
C1041 C 0.54064 0.32129 0.81372 0.0
C1042 C 0.53307 0.31155 0.77136 0.0
C1043 C 0.55079 0.33013 0.73789 0.0
H1044 H 0.38673 0.84105 0.73808 0.0
H1045 H 0.31305 0.74997 0.75463 0.0
H1046 H 0.34812 0.73071 0.74524 0.0
H1047 H 0.42274 0.82423 0.65615 0.0
H1048 H 0.46036 0.85054 0.67322 0.0
H1049 H 0.4301 0.85751 0.68493 0.0
H1050 H 0.44269 0.86143 0.765 0.0
H1051 H 0.47327 0.8549 0.75348 0.0
H1052 H 0.44458 0.83113 0.79074 0.0
H1053 H 0.39092 0.72135 0.73145 0.0
H1054 H 0.43837 0.72248 0.71685 0.0
H1055 H 0.48361 0.81965 0.70514 0.0
C1056 C 0.37811 0.81712 0.74073 0.0
C1057 C 0.34725 0.797 0.7475 0.0
C1058 C 0.33667 0.76576 0.74965 0.0
C1059 C 0.35639 0.75462 0.74429 0.0
C1060 C 0.38656 0.77501 0.73652 0.0
C1061 C 0.39742 0.80559 0.7349 0.0
C1062 C 0.43056 0.82257 0.72418 0.0
C1063 C 0.43626 0.83971 0.68212 0.0
C1064 C 0.44885 0.84375 0.76052 0.0
C1065 C 0.43663 0.79675 0.71998 0.0
C1066 C 0.41101 0.76953 0.72734 0.0
C1067 C 0.41113 0.74256 0.72554 0.0
C1068 C 0.43831 0.74346 0.71677 0.0
C1069 C 0.4651 0.77119 0.70968 0.0
C1070 C 0.46386 0.79806 0.71076 0.0
H1071 H 0.54281 0.35602 0.21101 0.0
H1072 H 0.56261 0.30473 0.30158 0.0
H1073 H 0.61645 0.343 0.29817 0.0
H1074 H 0.60701 0.37903 0.14626 0.0
H1075 H 0.61261 0.41596 0.13596 0.0
H1076 H 0.57547 0.38525 0.14682 0.0
H1077 H 0.56973 0.41516 0.20867 0.0
H1078 H 0.60671 0.44612 0.19769 0.0
H1079 H 0.59766 0.42988 0.24998 0.0
H1080 H 0.66837 0.3858 0.28236 0.0
H1081 H 0.71395 0.43197 0.26021 0.0
H1082 H 0.66021 0.45509 0.17947 0.0
C1083 C 0.55838 0.35297 0.23057 0.0
C1084 C 0.54846 0.32739 0.25668 0.0
C1085 C 0.56962 0.32426 0.28165 0.0
C1086 C 0.60028 0.34578 0.27971 0.0
C1087 C 0.60934 0.37038 0.2529 0.0
C1088 C 0.58897 0.37425 0.22916 0.0
C1089 C 0.60449 0.40258 0.2027 0.0
C1090 C 0.5996 0.39525 0.15512 0.0
C1091 C 0.59403 0.42475 0.21555 0.0
C1092 C 0.63685 0.41405 0.21518 0.0
C1093 C 0.63917 0.39506 0.24395 0.0
C1094 C 0.6668 0.40085 0.25989 0.0
C1095 C 0.69266 0.42704 0.24672 0.0
C1096 C 0.6908 0.44723 0.21788 0.0
C1097 C 0.66243 0.44032 0.20171 0.0
H1098 H 0.21866 0.56018 0.71523 0.0
H1099 H 0.20023 0.54121 0.84913 0.0
H1100 H 0.19982 0.58897 0.85818 0.0
H1101 H 0.26985 0.64003 0.72887 0.0
H1102 H 0.25814 0.64992 0.68061 0.0
H1103 H 0.25626 0.6141 0.68506 0.0
H1104 H 0.1997 0.58719 0.66586 0.0
H1105 H 0.20135 0.62289 0.66155 0.0
H1106 H 0.17458 0.59455 0.69679 0.0
H1107 H 0.19796 0.63712 0.85077 0.0
H1108 H 0.20105 0.68505 0.82962 0.0
H1109 H 0.2255 0.67439 0.70223 0.0
C1110 C 0.21449 0.56613 0.74642 0.0
C1111 C 0.20907 0.54708 0.78147 0.0
C1112 C 0.20432 0.55566 0.822 0.0
C1113 C 0.20397 0.5826 0.82732 0.0
C1114 C 0.20914 0.60084 0.79194 0.0
C1115 C 0.2149 0.59322 0.75246 0.0
C1116 C 0.22102 0.61721 0.71989 0.0
C1117 C 0.25323 0.63114 0.70261 0.0
C1118 C 0.19777 0.6047 0.68391 0.0
C1119 C 0.21718 0.63931 0.74695 0.0
C1120 C 0.20999 0.62934 0.78832 0.0
C1121 C 0.20394 0.64532 0.81863 0.0
C1122 C 0.20555 0.67231 0.80638 0.0
C1123 C 0.21364 0.68318 0.76449 0.0
C1124 C 0.21962 0.66654 0.73454 0.0
H1125 H 0.51653 0.17617 0.21699 0.0
H1126 H 0.56289 0.27357 0.22376 0.0
H1127 H 0.61034 0.27451 0.23759 0.0
H1128 H 0.55762 0.16609 0.30186 0.0
H1129 H 0.55832 0.13501 0.27663 0.0
H1130 H 0.52776 0.14183 0.26647 0.0
H1131 H 0.53819 0.14427 0.18578 0.0
H1132 H 0.56857 0.13718 0.19567 0.0
H1133 H 0.5753 0.16995 0.1661 0.0
H1134 H 0.65318 0.26507 0.24963 0.0
H1135 H 0.68828 0.2457 0.25698 0.0
H1136 H 0.61374 0.15452 0.24595 0.0
C1137 C 0.53654 0.19773 0.22153 0.0
C1138 C 0.53568 0.22476 0.21897 0.0
C1139 C 0.56271 0.25248 0.22472 0.0
C1140 C 0.58988 0.25329 0.23306 0.0
C1141 C 0.58975 0.22622 0.23585 0.0
C1142 C 0.56381 0.19896 0.2302 0.0
C1143 C 0.56982 0.1731 0.23453 0.0
C1144 C 0.55234 0.15282 0.27212 0.0
C1145 C 0.56255 0.15507 0.19305 0.0
C1146 C 0.60326 0.19011 0.24315 0.0
C1147 C 0.61431 0.22073 0.24384 0.0
C1148 C 0.64475 0.24112 0.24946 0.0
C1149 C 0.6645 0.22991 0.25364 0.0
C1150 C 0.65369 0.19861 0.25239 0.0
C1151 C 0.62259 0.17852 0.24783 0.0
H1152 H 0.46064 0.64043 0.72518 0.0
H1153 H 0.43876 0.69781 0.79999 0.0
H1154 H 0.38547 0.65824 0.80027 0.0
H1155 H 0.39563 0.60883 0.66027 0.0
H1156 H 0.39114 0.57176 0.65892 0.0
H1157 H 0.4279 0.60405 0.6659 0.0
H1158 H 0.43493 0.58126 0.73518 0.0
H1159 H 0.39828 0.54876 0.72824 0.0
H1160 H 0.40727 0.57006 0.77671 0.0
H1161 H 0.33419 0.61371 0.7891 0.0
H1162 H 0.28886 0.56563 0.77196 0.0
H1163 H 0.34377 0.53648 0.70557 0.0
C1164 C 0.44471 0.64454 0.7421 0.0
C1165 C 0.45397 0.67225 0.7627 0.0
C1166 C 0.43234 0.67673 0.7843 0.0
C1167 C 0.40195 0.65442 0.78446 0.0
C1168 C 0.39352 0.62761 0.76327 0.0
C1169 C 0.41428 0.6224 0.74291 0.0
C1170 C 0.39922 0.59164 0.7223 0.0
C1171 C 0.40374 0.59424 0.67399 0.0
C1172 C 0.4106 0.57176 0.74179 0.0
C1173 C 0.36672 0.58047 0.734 0.0
C1174 C 0.36394 0.60167 0.75742 0.0
C1175 C 0.3361 0.59688 0.77098 0.0
C1176 C 0.31045 0.56957 0.76077 0.0
C1177 C 0.31272 0.54725 0.73737 0.0
C1178 C 0.34133 0.55293 0.72384 0.0
H1179 H 0.74835 0.30456 0.26581 0.0
H1180 H 0.84258 0.33561 0.24164 0.0
H1181 H 0.8544 0.38775 0.25172 0.0
H1182 H 0.74597 0.36361 0.20992 0.0
H1183 H 0.72071 0.36664 0.24657 0.0
H1184 H 0.71965 0.33134 0.24017 0.0
H1185 H 0.72787 0.32969 0.32082 0.0
H1186 H 0.72919 0.36514 0.32742 0.0
H1187 H 0.75992 0.36067 0.34575 0.0
H1188 H 0.85611 0.43626 0.2596 0.0
H1189 H 0.8472 0.47908 0.26301 0.0
H1190 H 0.75218 0.41787 0.28315 0.0
C1191 C 0.77145 0.32231 0.26262 0.0
C1192 C 0.79458 0.31584 0.25332 0.0
C1193 C 0.82454 0.33981 0.24958 0.0
C1194 C 0.8315 0.36958 0.25513 0.0
C1195 C 0.80829 0.37514 0.26452 0.0
C1196 C 0.77885 0.35229 0.26816 0.0
C1197 C 0.75811 0.36476 0.2768 0.0
C1198 C 0.73474 0.35607 0.24124 0.0
C1199 C 0.74288 0.35445 0.32029 0.0
C1200 C 0.78051 0.39818 0.27657 0.0
C1201 C 0.80934 0.40353 0.26967 0.0
C1202 C 0.83373 0.43243 0.26551 0.0
C1203 C 0.82846 0.45657 0.26745 0.0
C1204 C 0.79911 0.45169 0.27374 0.0
C1205 C 0.77492 0.42217 0.27929 0.0
loop_
_geom_bond_atom_site_label_1
_geom_bond_atom_site_label_2
_geom_bond_distance
_geom_bond_site_symmetry_2
_ccdc_geom_bond_type
Co0 N4 2.148 . S
Co0 N10 2.128 . S
Co0 N20 2.194 . S
Co0 O25 2.351 . S
Co0 O26 2.155 . S
Co0 O27 2.096 . S
C1 N4 1.301 . S
C1 N5 1.328 . S
C1 H6 0.930 . S
C2 C3 1.333 . S
C2 N4 1.317 . S
C2 H7 0.930 . S
C3 C2 1.333 . S
C3 N5 1.350 . S
C3 H29 0.931 . S
N4 Co0 2.148 . S
N4 C1 1.301 . S
N4 C2 1.317 . S
N5 C1 1.328 . S
N5 C3 1.350 . S
H6 C1 0.930 . S
H7 C2 0.930 . S
C8 O9 1.224 . S
C8 O27 1.247 . S
O9 C8 1.224 . S
N10 Co0 2.128 . S
N10 C11 1.355 . S
N10 C13 1.311 . S
C11 N10 1.355 . S
C11 C12 1.363 . S
C11 H23 0.929 . S
C12 C11 1.363 . S
C12 N14 1.375 . S
C12 H30 0.931 . S
C13 N10 1.311 . S
C13 N14 1.347 . S
C13 H24 0.929 . S
N14 C12 1.375 . S
N14 C13 1.347 . S
C15 C18 1.365 . S
C15 N20 1.328 . S
C15 H21 0.929 . S
C16 C17 1.362 . S
C16 C19 1.378 . S
C16 H31 0.929 . S
C17 C16 1.362 . S
C17 C18 1.366 . S
C18 C15 1.365 . S
C18 C17 1.366 . S
C18 H32 0.930 . S
C19 C16 1.378 . S
C19 N20 1.315 . S
C19 H22 0.930 . S
N20 Co0 2.194 . S
N20 C15 1.328 . S
N20 C19 1.315 . S
H21 C15 0.929 . S
H22 C19 0.930 . S
H23 C11 0.929 . S
H24 C13 0.929 . S
O25 Co0 2.351 . S
O25 C28 1.244 . S
O26 Co0 2.155 . S
O26 C28 1.240 . S
O27 Co0 2.096 . S
O27 C8 1.247 . S
C28 O25 1.244 . S
C28 O26 1.240 . S
H29 C3 0.931 . S
H30 C12 0.931 . S
H31 C16 0.929 . S
H32 C18 0.930 . S
Co33 N37 2.148 . S
Co33 N43 2.128 . S
Co33 N53 2.194 . S
Co33 O58 2.351 . S
Co33 O59 2.155 . S
Co33 O60 2.096 . S
C34 N37 1.301 . S
C34 N38 1.328 . S
C34 H39 0.930 . S
C35 C36 1.333 . S
C35 N37 1.317 . S
C35 H40 0.930 . S
C36 C35 1.333 . S
C36 N38 1.350 . S
C36 H62 0.931 . S
N37 Co33 2.148 . S
N37 C34 1.301 . S
N37 C35 1.317 . S
N38 C34 1.328 . S
N38 C36 1.350 . S
H39 C34 0.930 . S
H40 C35 0.930 . S
C41 O42 1.224 . S
C41 O60 1.247 . S
O42 C41 1.224 . S
N43 Co33 2.128 . S
N43 C44 1.355 . S
N43 C46 1.311 . S
C44 N43 1.355 . S
C44 C45 1.363 . S
C44 H56 0.929 . S
C45 C44 1.363 . S
C45 N47 1.375 . S
C45 H63 0.931 . S
C46 N43 1.311 . S
C46 N47 1.347 . S
C46 H57 0.929 . S
N47 C45 1.375 . S
N47 C46 1.347 . S
C48 C51 1.365 . S
C48 N53 1.328 . S
C48 H54 0.929 . S
C49 C50 1.362 . S
C49 C52 1.378 . S
C49 H64 0.929 . S
C50 C49 1.362 . S
C50 C51 1.366 . S
C51 C48 1.365 . S
C51 C50 1.366 . S
C51 H65 0.930 . S
C52 C49 1.378 . S
C52 N53 1.315 . S
C52 H55 0.930 . S
N53 Co33 2.194 . S
N53 C48 1.328 . S
N53 C52 1.315 . S
H54 C48 0.929 . S
H55 C52 0.930 . S
H56 C44 0.929 . S
H57 C46 0.929 . S
O58 Co33 2.351 . S
O58 C61 1.244 . S
O59 Co33 2.155 . S
O59 C61 1.240 . S
O60 Co33 2.096 . S
O60 C41 1.247 . S
C61 O58 1.244 . S
C61 O59 1.240 . S
H62 C36 0.931 . S
H63 C45 0.931 . S
H64 C49 0.929 . S
H65 C51 0.930 . S
Co66 N70 2.148 . S
Co66 N76 2.128 . S
Co66 N86 2.194 . S
Co66 O91 2.351 . S
Co66 O92 2.155 . S
Co66 O93 2.096 . S
C67 N70 1.301 . S
C67 N71 1.328 . S
C67 H72 0.930 . S
C68 C69 1.333 . S
C68 N70 1.317 . S
C68 H73 0.930 . S
C69 C68 1.333 . S
C69 N71 1.350 . S
C69 H95 0.931 . S
N70 Co66 2.148 . S
N70 C67 1.301 . S
N70 C68 1.317 . S
N71 C67 1.328 . S
N71 C69 1.350 . S
H72 C67 0.930 . S
H73 C68 0.930 . S
C74 O75 1.224 . S
C74 O93 1.247 . S
O75 C74 1.224 . S
N76 Co66 2.128 . S
N76 C77 1.355 . S
N76 C79 1.311 . S
C77 N76 1.355 . S
C77 C78 1.363 . S
C77 H89 0.929 . S
C78 C77 1.363 . S
C78 N80 1.375 . S
C78 H96 0.931 . S
C79 N76 1.311 . S
C79 N80 1.347 . S
C79 H90 0.929 . S
N80 C78 1.375 . S
N80 C79 1.347 . S
C81 C84 1.365 . S
C81 N86 1.328 . S
C81 H87 0.929 . S
C82 C83 1.362 . S
C82 C85 1.378 . S
C82 H97 0.929 . S
C83 C82 1.362 . S
C83 C84 1.366 . S
C84 C81 1.365 . S
C84 C83 1.366 . S
C84 H98 0.930 . S
C85 C82 1.378 . S
C85 N86 1.315 . S
C85 H88 0.930 . S
N86 Co66 2.194 . S
N86 C81 1.328 . S
N86 C85 1.315 . S
H87 C81 0.929 . S
H88 C85 0.930 . S
H89 C77 0.929 . S
H90 C79 0.929 . S
O91 Co66 2.351 . S
O91 C94 1.244 . S
O92 Co66 2.155 . S
O92 C94 1.240 . S
O93 Co66 2.096 . S
O93 C74 1.247 . S
C94 O91 1.244 . S
C94 O92 1.240 . S
H95 C69 0.931 . S
H96 C78 0.931 . S
H97 C82 0.929 . S
H98 C84 0.930 . S
Co99 N103 2.148 . S
Co99 N109 2.128 . S
Co99 N119 2.194 . S
Co99 O124 2.351 . S
Co99 O125 2.155 . S
Co99 O126 2.096 . S
C100 N103 1.301 . S
C100 N104 1.328 . S
C100 H105 0.930 . S
C101 C102 1.333 . S
C101 N103 1.317 . S
C101 H106 0.930 . S
C102 C101 1.333 . S
C102 N104 1.350 . S
C102 H128 0.931 . S
N103 Co99 2.148 . S
N103 C100 1.301 . S
N103 C101 1.317 . S
N104 C100 1.328 . S
N104 C102 1.350 . S
H105 C100 0.930 . S
H106 C101 0.930 . S
C107 O108 1.224 . S
C107 O126 1.247 . S
O108 C107 1.224 . S
N109 Co99 2.128 . S
N109 C110 1.355 . S
N109 C112 1.311 . S
C110 N109 1.355 . S
C110 C111 1.363 . S
C110 H122 0.929 . S
C111 C110 1.363 . S
C111 N113 1.375 . S
C111 H129 0.931 . S
C112 N109 1.311 . S
C112 N113 1.347 . S
C112 H123 0.929 . S
N113 C111 1.375 . S
N113 C112 1.347 . S
C114 C117 1.365 . S
C114 N119 1.328 . S
C114 H120 0.929 . S
C115 C116 1.362 . S
C115 C118 1.378 . S
C115 H130 0.929 . S
C116 C115 1.362 . S
C116 C117 1.366 . S
C117 C114 1.365 . S
C117 C116 1.366 . S
C117 H131 0.930 . S
C118 C115 1.378 . S
C118 N119 1.315 . S
C118 H121 0.930 . S
N119 Co99 2.194 . S
N119 C114 1.328 . S
N119 C118 1.315 . S
H120 C114 0.929 . S
H121 C118 0.930 . S
H122 C110 0.929 . S
H123 C112 0.929 . S
O124 Co99 2.351 . S
O124 C127 1.244 . S
O125 Co99 2.155 . S
O125 C127 1.240 . S
O126 Co99 2.096 . S
O126 C107 1.247 . S
C127 O124 1.244 . S
C127 O125 1.240 . S
H128 C102 0.931 . S
H129 C111 0.931 . S
H130 C115 0.929 . S
H131 C117 0.930 . S
Co132 N136 2.148 . S
Co132 N142 2.128 . S
Co132 N152 2.194 . S
Co132 O157 2.351 . S
Co132 O158 2.155 . S
Co132 O159 2.096 . S
C133 N136 1.301 . S
C133 N137 1.328 . S
C133 H138 0.930 . S
C134 C135 1.333 . S
C134 N136 1.317 . S
C134 H139 0.930 . S
C135 C134 1.333 . S
C135 N137 1.350 . S
C135 H161 0.931 . S
N136 Co132 2.148 . S
N136 C133 1.301 . S
N136 C134 1.317 . S
N137 C133 1.328 . S
N137 C135 1.350 . S
H138 C133 0.930 . S
H139 C134 0.930 . S
C140 O141 1.224 . S
C140 O159 1.247 . S
O141 C140 1.224 . S
N142 Co132 2.128 . S
N142 C143 1.355 . S
N142 C145 1.311 . S
C143 N142 1.355 . S
C143 C144 1.363 . S
C143 H155 0.929 . S
C144 C143 1.363 . S
C144 N146 1.375 . S
C144 H162 0.931 . S
C145 N142 1.311 . S
C145 N146 1.347 . S
C145 H156 0.929 . S
N146 C144 1.375 . S
N146 C145 1.347 . S
C147 C150 1.365 . S
C147 N152 1.328 . S
C147 H153 0.929 . S
C148 C149 1.362 . S
C148 C151 1.378 . S
C148 H163 0.929 . S
C149 C148 1.362 . S
C149 C150 1.366 . S
C150 C147 1.365 . S
C150 C149 1.366 . S
C150 H164 0.930 . S
C151 C148 1.378 . S
C151 N152 1.315 . S
C151 H154 0.930 . S
N152 Co132 2.194 . S
N152 C147 1.328 . S
N152 C151 1.315 . S
H153 C147 0.929 . S
H154 C151 0.930 . S
H155 C143 0.929 . S
H156 C145 0.929 . S
O157 Co132 2.351 . S
O157 C160 1.244 . S
O158 Co132 2.155 . S
O158 C160 1.240 . S
O159 Co132 2.096 . S
O159 C140 1.247 . S
C160 O157 1.244 . S
C160 O158 1.240 . S
H161 C135 0.931 . S
H162 C144 0.931 . S
H163 C148 0.929 . S
H164 C150 0.930 . S
Co165 N169 2.148 . S
Co165 N175 2.128 . S
Co165 N185 2.194 . S
Co165 O190 2.351 . S
Co165 O191 2.155 . S
Co165 O192 2.096 . S
C166 N169 1.301 . S
C166 N170 1.328 . S
C166 H171 0.930 . S
C167 C168 1.333 . S
C167 N169 1.317 . S
C167 H172 0.930 . S
C168 C167 1.333 . S
C168 N170 1.350 . S
C168 H194 0.931 . S
N169 Co165 2.148 . S
N169 C166 1.301 . S
N169 C167 1.317 . S
N170 C166 1.328 . S
N170 C168 1.350 . S
H171 C166 0.930 . S
H172 C167 0.930 . S
C173 O174 1.224 . S
C173 O192 1.247 . S
O174 C173 1.224 . S
N175 Co165 2.128 . S
N175 C176 1.355 . S
N175 C178 1.311 . S
C176 N175 1.355 . S
C176 C177 1.363 . S
C176 H188 0.929 . S
C177 C176 1.363 . S
C177 N179 1.375 . S
C177 H195 0.931 . S
C178 N175 1.311 . S
C178 N179 1.347 . S
C178 H189 0.929 . S
N179 C177 1.375 . S
N179 C178 1.347 . S
C180 C183 1.365 . S
C180 N185 1.328 . S
C180 H186 0.929 . S
C181 C182 1.362 . S
C181 C184 1.378 . S
C181 H196 0.929 . S
C182 C181 1.362 . S
C182 C183 1.366 . S
C183 C180 1.365 . S
C183 C182 1.366 . S
C183 H197 0.930 . S
C184 C181 1.378 . S
C184 N185 1.315 . S
C184 H187 0.930 . S
N185 Co165 2.194 . S
N185 C180 1.328 . S
N185 C184 1.315 . S
H186 C180 0.929 . S
H187 C184 0.930 . S
H188 C176 0.929 . S
H189 C178 0.929 . S
O190 Co165 2.351 . S
O190 C193 1.244 . S
O191 Co165 2.155 . S
O191 C193 1.240 . S
O192 Co165 2.096 . S
O192 C173 1.247 . S
C193 O190 1.244 . S
C193 O191 1.240 . S
H194 C168 0.931 . S
H195 C177 0.931 . S
H196 C181 0.929 . S
H197 C183 0.930 . S
Co198 N202 2.148 . S
Co198 N208 2.128 . S
Co198 N218 2.194 . S
Co198 O223 2.351 . S
Co198 O224 2.155 . S
Co198 O225 2.096 . S
C199 N202 1.301 . S
C199 N203 1.328 . S
C199 H204 0.930 . S
C200 C201 1.333 . S
C200 N202 1.317 . S
C200 H205 0.930 . S
C201 C200 1.333 . S
C201 N203 1.350 . S
C201 H227 0.931 . S
N202 Co198 2.148 . S
N202 C199 1.301 . S
N202 C200 1.317 . S
N203 C199 1.328 . S
N203 C201 1.350 . S
H204 C199 0.930 . S
H205 C200 0.930 . S
C206 O207 1.224 . S
C206 O225 1.247 . S
O207 C206 1.224 . S
N208 Co198 2.128 . S
N208 C209 1.355 . S
N208 C211 1.311 . S
C209 N208 1.355 . S
C209 C210 1.363 . S
C209 H221 0.929 . S
C210 C209 1.363 . S
C210 N212 1.375 . S
C210 H228 0.931 . S
C211 N208 1.311 . S
C211 N212 1.347 . S
C211 H222 0.929 . S
N212 C210 1.375 . S
N212 C211 1.347 . S
C213 C216 1.365 . S
C213 N218 1.328 . S
C213 H219 0.929 . S
C214 C215 1.362 . S
C214 C217 1.378 . S
C214 H229 0.929 . S
C215 C214 1.362 . S
C215 C216 1.366 . S
C216 C213 1.365 . S
C216 C215 1.366 . S
C216 H230 0.930 . S
C217 C214 1.378 . S
C217 N218 1.315 . S
C217 H220 0.930 . S
N218 Co198 2.194 . S
N218 C213 1.328 . S
N218 C217 1.315 . S
H219 C213 0.929 . S
H220 C217 0.930 . S
H221 C209 0.929 . S
H222 C211 0.929 . S
O223 Co198 2.351 . S
O223 C226 1.244 . S
O224 Co198 2.155 . S
O224 C226 1.240 . S
O225 Co198 2.096 . S
O225 C206 1.247 . S
C226 O223 1.244 . S
C226 O224 1.240 . S
H227 C201 0.931 . S
H228 C210 0.931 . S
H229 C214 0.929 . S
H230 C216 0.930 . S
Co231 N235 2.148 . S
Co231 N241 2.128 . S
Co231 N251 2.194 . S
Co231 O256 2.351 . S
Co231 O257 2.155 . S
Co231 O258 2.096 . S
C232 N235 1.301 . S
C232 N236 1.328 . S
C232 H237 0.930 . S
C233 C234 1.333 . S
C233 N235 1.317 . S
C233 H238 0.930 . S
C234 C233 1.333 . S
C234 N236 1.350 . S
C234 H260 0.931 . S
N235 Co231 2.148 . S
N235 C232 1.301 . S
N235 C233 1.317 . S
N236 C232 1.328 . S
N236 C234 1.350 . S
H237 C232 0.930 . S
H238 C233 0.930 . S
C239 O240 1.224 . S
C239 O258 1.247 . S
O240 C239 1.224 . S
N241 Co231 2.128 . S
N241 C242 1.355 . S
N241 C244 1.311 . S
C242 N241 1.355 . S
C242 C243 1.363 . S
C242 H254 0.929 . S
C243 C242 1.363 . S
C243 N245 1.375 . S
C243 H261 0.931 . S
C244 N241 1.311 . S
C244 N245 1.347 . S
C244 H255 0.929 . S
N245 C243 1.375 . S
N245 C244 1.347 . S
C246 C249 1.365 . S
C246 N251 1.328 . S
C246 H252 0.929 . S
C247 C248 1.362 . S
C247 C250 1.378 . S
C247 H262 0.929 . S
C248 C247 1.362 . S
C248 C249 1.366 . S
C249 C246 1.365 . S
C249 C248 1.366 . S
C249 H263 0.930 . S
C250 C247 1.378 . S
C250 N251 1.315 . S
C250 H253 0.930 . S
N251 Co231 2.194 . S
N251 C246 1.328 . S
N251 C250 1.315 . S
H252 C246 0.929 . S
H253 C250 0.930 . S
H254 C242 0.929 . S
H255 C244 0.929 . S
O256 Co231 2.351 . S
O256 C259 1.244 . S
O257 Co231 2.155 . S
O257 C259 1.240 . S
O258 Co231 2.096 . S
O258 C239 1.247 . S
C259 O256 1.244 . S
C259 O257 1.240 . S
H260 C234 0.931 . S
H261 C243 0.931 . S
H262 C247 0.929 . S
H263 C249 0.930 . S
Co264 N268 2.148 . S
Co264 N274 2.128 . S
Co264 N284 2.194 . S
Co264 O289 2.351 . S
Co264 O290 2.155 . S
Co264 O291 2.096 . S
C265 N268 1.301 . S
C265 N269 1.328 . S
C265 H270 0.930 . S
C266 C267 1.333 . S
C266 N268 1.317 . S
C266 H271 0.930 . S
C267 C266 1.333 . S
C267 N269 1.350 . S
C267 H293 0.931 . S
N268 Co264 2.148 . S
N268 C265 1.301 . S
N268 C266 1.317 . S
N269 C265 1.328 . S
N269 C267 1.350 . S
H270 C265 0.930 . S
H271 C266 0.930 . S
C272 O273 1.224 . S
C272 O291 1.247 . S
O273 C272 1.224 . S
N274 Co264 2.128 . S
N274 C275 1.355 . S
N274 C277 1.311 . S
C275 N274 1.355 . S
C275 C276 1.363 . S
C275 H287 0.929 . S
C276 C275 1.363 . S
C276 N278 1.375 . S
C276 H294 0.931 . S
C277 N274 1.311 . S
C277 N278 1.347 . S
C277 H288 0.929 . S
N278 C276 1.375 . S
N278 C277 1.347 . S
C279 C282 1.365 . S
C279 N284 1.328 . S
C279 H285 0.929 . S
C280 C281 1.362 . S
C280 C283 1.378 . S
C280 H295 0.929 . S
C281 C280 1.362 . S
C281 C282 1.366 . S
C282 C279 1.365 . S
C282 C281 1.366 . S
C282 H296 0.930 . S
C283 C280 1.378 . S
C283 N284 1.315 . S
C283 H286 0.930 . S
N284 Co264 2.194 . S
N284 C279 1.328 . S
N284 C283 1.315 . S
H285 C279 0.929 . S
H286 C283 0.930 . S
H287 C275 0.929 . S
H288 C277 0.929 . S
O289 Co264 2.351 . S
O289 C292 1.244 . S
O290 Co264 2.155 . S
O290 C292 1.240 . S
O291 Co264 2.096 . S
O291 C272 1.247 . S
C292 O289 1.244 . S
C292 O290 1.240 . S
H293 C267 0.931 . S
H294 C276 0.931 . S
H295 C280 0.929 . S
H296 C282 0.930 . S
Co297 N301 2.148 . S
Co297 N307 2.128 . S
Co297 N317 2.194 . S
Co297 O322 2.351 . S
Co297 O323 2.155 . S
Co297 O324 2.096 . S
C298 N301 1.301 . S
C298 N302 1.328 . S
C298 H303 0.930 . S
C299 C300 1.333 . S
C299 N301 1.317 . S
C299 H304 0.930 . S
C300 C299 1.333 . S
C300 N302 1.350 . S
C300 H326 0.931 . S
N301 Co297 2.148 . S
N301 C298 1.301 . S
N301 C299 1.317 . S
N302 C298 1.328 . S
N302 C300 1.350 . S
H303 C298 0.930 . S
H304 C299 0.930 . S
C305 O306 1.224 . S
C305 O324 1.247 . S
O306 C305 1.224 . S
N307 Co297 2.128 . S
N307 C308 1.355 . S
N307 C310 1.311 . S
C308 N307 1.355 . S
C308 C309 1.363 . S
C308 H320 0.929 . S
C309 C308 1.363 . S
C309 N311 1.375 . S
C309 H327 0.931 . S
C310 N307 1.311 . S
C310 N311 1.347 . S
C310 H321 0.929 . S
N311 C309 1.375 . S
N311 C310 1.347 . S
C312 C315 1.365 . S
C312 N317 1.328 . S
C312 H318 0.929 . S
C313 C314 1.362 . S
C313 C316 1.378 . S
C313 H328 0.929 . S
C314 C313 1.362 . S
C314 C315 1.366 . S
C315 C312 1.365 . S
C315 C314 1.366 . S
C315 H329 0.930 . S
C316 C313 1.378 . S
C316 N317 1.315 . S
C316 H319 0.930 . S
N317 Co297 2.194 . S
N317 C312 1.328 . S
N317 C316 1.315 . S
H318 C312 0.929 . S
H319 C316 0.930 . S
H320 C308 0.929 . S
H321 C310 0.929 . S
O322 Co297 2.351 . S
O322 C325 1.244 . S
O323 Co297 2.155 . S
O323 C325 1.240 . S
O324 Co297 2.096 . S
O324 C305 1.247 . S
C325 O322 1.244 . S
C325 O323 1.240 . S
H326 C300 0.931 . S
H327 C309 0.931 . S
H328 C313 0.929 . S
H329 C315 0.930 . S
Co330 N334 2.148 . S
Co330 N340 2.128 . S
Co330 N350 2.194 . S
Co330 O355 2.351 . S
Co330 O356 2.155 . S
Co330 O357 2.096 . S
C331 N334 1.301 . S
C331 N335 1.328 . S
C331 H336 0.930 . S
C332 C333 1.333 . S
C332 N334 1.317 . S
C332 H337 0.930 . S
C333 C332 1.333 . S
C333 N335 1.350 . S
C333 H359 0.931 . S
N334 Co330 2.148 . S
N334 C331 1.301 . S
N334 C332 1.317 . S
N335 C331 1.328 . S
N335 C333 1.350 . S
H336 C331 0.930 . S
H337 C332 0.930 . S
C338 O339 1.224 . S
C338 O357 1.247 . S
O339 C338 1.224 . S
N340 Co330 2.128 . S
N340 C341 1.355 . S
N340 C343 1.311 . S
C341 N340 1.355 . S
C341 C342 1.363 . S
C341 H353 0.929 . S
C342 C341 1.363 . S
C342 N344 1.375 . S
C342 H360 0.931 . S
C343 N340 1.311 . S
C343 N344 1.347 . S
C343 H354 0.929 . S
N344 C342 1.375 . S
N344 C343 1.347 . S
C345 C348 1.365 . S
C345 N350 1.328 . S
C345 H351 0.929 . S
C346 C347 1.362 . S
C346 C349 1.378 . S
C346 H361 0.929 . S
C347 C346 1.362 . S
C347 C348 1.366 . S
C348 C345 1.365 . S
C348 C347 1.366 . S
C348 H362 0.930 . S
C349 C346 1.378 . S
C349 N350 1.315 . S
C349 H352 0.930 . S
N350 Co330 2.194 . S
N350 C345 1.328 . S
N350 C349 1.315 . S
H351 C345 0.929 . S
H352 C349 0.930 . S
H353 C341 0.929 . S
H354 C343 0.929 . S
O355 Co330 2.351 . S
O355 C358 1.244 . S
O356 Co330 2.155 . S
O356 C358 1.240 . S
O357 Co330 2.096 . S
O357 C338 1.247 . S
C358 O355 1.244 . S
C358 O356 1.240 . S
H359 C333 0.931 . S
H360 C342 0.931 . S
H361 C346 0.929 . S
H362 C348 0.930 . S
Co363 N367 2.148 . S
Co363 N373 2.128 . S
Co363 N383 2.194 . S
Co363 O388 2.351 . S
Co363 O389 2.155 . S
Co363 O390 2.096 . S
C364 N367 1.301 . S
C364 N368 1.328 . S
C364 H369 0.930 . S
C365 C366 1.333 . S
C365 N367 1.317 . S
C365 H370 0.930 . S
C366 C365 1.333 . S
C366 N368 1.350 . S
C366 H392 0.931 . S
N367 Co363 2.148 . S
N367 C364 1.301 . S
N367 C365 1.317 . S
N368 C364 1.328 . S
N368 C366 1.350 . S
H369 C364 0.930 . S
H370 C365 0.930 . S
C371 O372 1.224 . S
C371 O390 1.247 . S
O372 C371 1.224 . S
N373 Co363 2.128 . S
N373 C374 1.355 . S
N373 C376 1.311 . S
C374 N373 1.355 . S
C374 C375 1.363 . S
C374 H386 0.929 . S
C375 C374 1.363 . S
C375 N377 1.375 . S
C375 H393 0.931 . S
C376 N373 1.311 . S
C376 N377 1.347 . S
C376 H387 0.929 . S
N377 C375 1.375 . S
N377 C376 1.347 . S
C378 C381 1.365 . S
C378 N383 1.328 . S
C378 H384 0.929 . S
C379 C380 1.362 . S
C379 C382 1.378 . S
C379 H394 0.929 . S
C380 C379 1.362 . S
C380 C381 1.366 . S
C381 C378 1.365 . S
C381 C380 1.366 . S
C381 H395 0.930 . S
C382 C379 1.378 . S
C382 N383 1.315 . S
C382 H385 0.930 . S
N383 Co363 2.194 . S
N383 C378 1.328 . S
N383 C382 1.315 . S
H384 C378 0.929 . S
H385 C382 0.930 . S
H386 C374 0.929 . S
H387 C376 0.929 . S
O388 Co363 2.351 . S
O388 C391 1.244 . S
O389 Co363 2.155 . S
O389 C391 1.240 . S
O390 Co363 2.096 . S
O390 C371 1.247 . S
C391 O388 1.244 . S
C391 O389 1.240 . S
H392 C366 0.931 . S
H393 C375 0.931 . S
H394 C379 0.929 . S
H395 C381 0.930 . S
H396 C408 0.930 . S
H397 C410 0.930 . S
H398 C411 0.930 . S
H399 C415 0.959 . S
H400 C415 0.959 . S
H401 C415 0.961 . S
H402 C416 0.960 . S
H403 C416 0.961 . S
H404 C416 0.959 . S
H405 C419 0.929 . S
H406 C420 0.931 . S
H407 C422 0.930 . S
C408 H396 0.930 . S
C408 C409 1.399 . S
C408 C413 1.399 . S
C409 C408 1.399 . S
C409 C410 1.376 . S
C410 H397 0.930 . S
C410 C409 1.376 . S
C410 C411 1.388 . S
C411 H398 0.930 . S
C411 C410 1.388 . S
C411 C412 1.390 . S
C412 C411 1.390 . S
C412 C413 1.394 . S
C412 C418 1.465 . S
C413 C408 1.399 . S
C413 C412 1.394 . S
C413 C414 1.516 . S
C414 C413 1.516 . S
C414 C415 1.502 . S
C414 C416 1.561 . S
C414 C417 1.526 . S
C415 H399 0.959 . S
C415 H400 0.959 . S
C415 H401 0.961 . S
C415 C414 1.502 . S
C416 H402 0.960 . S
C416 H403 0.961 . S
C416 H404 0.959 . S
C416 C414 1.561 . S
C417 C414 1.526 . S
C417 C418 1.396 . S
C417 C422 1.390 . S
C418 C412 1.465 . S
C418 C417 1.396 . S
C418 C419 1.399 . S
C419 H405 0.929 . S
C419 C418 1.399 . S
C419 C420 1.385 . S
C420 H406 0.931 . S
C420 C419 1.385 . S
C420 C421 1.389 . S
C421 C420 1.389 . S
C421 C422 1.387 . S
C422 H407 0.930 . S
C422 C417 1.390 . S
C422 C421 1.387 . S
H423 C435 0.930 . S
H424 C437 0.930 . S
H425 C438 0.930 . S
H426 C442 0.959 . S
H427 C442 0.959 1_455 S
H428 C442 0.961 . S
H429 C443 0.960 . S
H430 C443 0.942 1_455 S
H431 C443 0.959 . S
H432 C446 0.929 . S
H433 C447 0.931 . S
H434 C449 0.930 . S
C435 H423 0.930 . S
C435 C436 1.399 . S
C435 C440 1.399 . S
C436 C435 1.399 . S
C436 C437 1.376 . S
C437 H424 0.930 . S
C437 C436 1.376 . S
C437 C438 1.388 . S
C438 H425 0.930 . S
C438 C437 1.388 . S
C438 C439 1.390 . S
C439 C438 1.390 . S
C439 C440 1.394 . S
C439 C445 1.465 1_655 S
C440 C435 1.399 . S
C440 C439 1.394 . S
C440 C441 1.516 . S
C441 C440 1.516 . S
C441 C442 1.502 . S
C441 C443 1.561 . S
C441 C444 1.526 1_655 S
C442 H426 0.959 . S
C442 H427 0.959 1_655 S
C442 H428 0.961 . S
C442 C441 1.502 . S
C443 H429 0.960 . S
C443 H430 0.942 1_655 S
C443 H431 0.959 . S
C443 C441 1.561 . S
C444 C441 1.526 1_455 S
C444 C445 1.396 . S
C444 C449 1.390 . S
C445 C439 1.465 1_455 S
C445 C444 1.396 . S
C445 C446 1.399 . S
C446 H432 0.929 . S
C446 C445 1.399 . S
C446 C447 1.385 . S
C447 H433 0.931 . S
C447 C446 1.385 . S
C447 C448 1.389 . S
C448 C447 1.389 . S
C448 C449 1.387 . S
C449 H434 0.930 . S
C449 C444 1.390 . S
C449 C448 1.387 . S
H450 C462 0.930 . S
H451 C464 0.930 . S
H452 C465 0.930 . S
H453 C469 0.959 . S
H454 C469 0.959 1_565 S
H455 C469 0.961 . S
H456 C470 0.960 . S
H457 C470 0.942 1_565 S
H458 C470 0.959 . S
H459 C473 0.929 . S
H460 C474 0.931 . S
H461 C476 0.930 . S
C462 H450 0.930 . S
C462 C463 1.399 . S
C462 C467 1.399 . S
C463 C462 1.399 . S
C463 C464 1.376 . S
C464 H451 0.930 . S
C464 C463 1.376 . S
C464 C465 1.388 . S
C465 H452 0.930 . S
C465 C464 1.388 . S
C465 C466 1.390 . S
C466 C465 1.390 . S
C466 C467 1.394 . S
C466 C472 1.465 1_545 S
C467 C462 1.399 . S
C467 C466 1.394 . S
C467 C468 1.516 . S
C468 C467 1.516 . S
C468 C469 1.502 . S
C468 C470 1.561 . S
C468 C471 1.526 1_545 S
C469 H453 0.959 . S
C469 H454 0.959 1_545 S
C469 H455 0.961 . S
C469 C468 1.502 . S
C470 H456 0.960 . S
C470 H457 0.942 1_545 S
C470 H458 0.959 . S
C470 C468 1.561 . S
C471 C468 1.526 1_565 S
C471 C472 1.396 . S
C471 C476 1.390 . S
C472 C466 1.465 1_565 S
C472 C471 1.396 . S
C472 C473 1.399 . S
C473 H459 0.929 . S
C473 C472 1.399 . S
C473 C474 1.385 . S
C474 H460 0.931 . S
C474 C473 1.385 . S
C474 C475 1.389 . S
C475 C474 1.389 . S
C475 C476 1.387 . S
C476 H461 0.930 . S
C476 C471 1.390 . S
C476 C475 1.387 . S
H477 C489 0.930 . S
H478 C491 0.930 . S
H479 C492 0.930 . S
H480 C496 0.959 . S
H481 C496 0.959 . S
H482 C496 0.961 . S
H483 C497 0.960 . S
H484 C497 0.961 . S
H485 C497 0.959 . S
H486 C500 0.929 . S
H487 C501 0.931 . S
H488 C503 0.930 . S
C489 H477 0.930 . S
C489 C490 1.399 . S
C489 C494 1.399 . S
C490 C489 1.399 . S
C490 C491 1.376 . S
C491 H478 0.930 . S
C491 C490 1.376 . S
C491 C492 1.388 . S
C492 H479 0.930 . S
C492 C491 1.388 . S
C492 C493 1.390 . S
C493 C492 1.390 . S
C493 C494 1.394 . S
C493 C499 1.465 . S
C494 C489 1.399 . S
C494 C493 1.394 . S
C494 C495 1.516 . S
C495 C494 1.516 . S
C495 C496 1.502 . S
C495 C497 1.561 . S
C495 C498 1.526 . S
C496 H480 0.959 . S
C496 H481 0.959 . S
C496 H482 0.961 . S
C496 C495 1.502 . S
C497 H483 0.960 . S
C497 H484 0.961 . S
C497 H485 0.959 . S
C497 C495 1.561 . S
C498 C495 1.526 . S
C498 C499 1.396 . S
C498 C503 1.390 . S
C499 C493 1.465 . S
C499 C498 1.396 . S
C499 C500 1.399 . S
C500 H486 0.929 . S
C500 C499 1.399 . S
C500 C501 1.385 . S
C501 H487 0.931 . S
C501 C500 1.385 . S
C501 C502 1.389 . S
C502 C501 1.389 . S
C502 C503 1.387 . S
C503 H488 0.930 . S
C503 C498 1.390 . S
C503 C502 1.387 . S
H504 C516 0.930 . S
H505 C518 0.930 . S
H506 C519 0.930 . S
H507 C523 0.959 . S
H508 C523 0.959 . S
H509 C523 0.961 1_455 S
H510 C524 0.960 1_455 S
H511 C524 0.961 . S
H512 C524 0.959 . S
H513 C527 0.929 . S
H514 C528 0.931 . S
H515 C530 0.930 . S
C516 H504 0.930 . S
C516 C517 1.399 . S
C516 C521 1.399 . S
C517 C516 1.399 . S
C517 C518 1.376 . S
C518 H505 0.930 . S
C518 C517 1.376 . S
C518 C519 1.388 . S
C519 H506 0.930 . S
C519 C518 1.388 . S
C519 C520 1.390 . S
C520 C519 1.390 . S
C520 C521 1.394 . S
C520 C526 1.465 1_455 S
C521 C516 1.399 . S
C521 C520 1.394 . S
C521 C522 1.516 1_455 S
C522 C521 1.516 1_655 S
C522 C523 1.502 . S
C522 C524 1.561 . S
C522 C525 1.526 . S
C523 H507 0.959 . S
C523 H508 0.959 . S
C523 H509 0.961 1_655 S
C523 C522 1.502 . S
C524 H510 0.960 1_655 S
C524 H511 0.961 . S
C524 H512 0.959 . S
C524 C522 1.561 . S
C525 C522 1.526 . S
C525 C526 1.396 . S
C525 C530 1.390 . S
C526 C520 1.465 1_655 S
C526 C525 1.396 . S
C526 C527 1.399 . S
C527 H513 0.929 . S
C527 C526 1.399 . S
C527 C528 1.385 . S
C528 H514 0.931 . S
C528 C527 1.385 . S
C528 C529 1.389 . S
C529 C528 1.389 . S
C529 C530 1.387 . S
C530 H515 0.930 . S
C530 C525 1.390 . S
C530 C529 1.387 . S
H531 C543 0.930 . S
H532 C545 0.930 . S
H533 C546 0.930 . S
H534 C550 0.959 . S
H535 C550 0.959 1_545 S
H536 C550 0.961 . S
H537 C551 0.960 . S
H538 C551 0.946 1_545 S
H539 C551 0.959 . S
H540 C554 0.929 . S
H541 C555 0.931 . S
H542 C557 0.930 . S
C543 H531 0.930 . S
C543 C544 1.399 . S
C543 C548 1.399 . S
C544 C543 1.399 . S
C544 C545 1.376 . S
C545 H532 0.930 . S
C545 C544 1.376 . S
C545 C546 1.388 . S
C546 H533 0.930 . S
C546 C545 1.388 . S
C546 C547 1.390 . S
C547 C546 1.390 . S
C547 C548 1.394 . S
C547 C553 1.465 1_565 S
C548 C543 1.399 . S
C548 C547 1.394 . S
C548 C549 1.516 . S
C549 C548 1.516 . S
C549 C550 1.502 . S
C549 C551 1.561 . S
C549 C552 1.526 1_565 S
C550 H534 0.959 . S
C550 H535 0.959 1_565 S
C550 H536 0.961 . S
C550 C549 1.502 . S
C551 H537 0.960 . S
C551 H538 0.946 1_565 S
C551 H539 0.959 . S
C551 C549 1.561 . S
C552 C549 1.526 1_545 S
C552 C553 1.396 . S
C552 C557 1.390 . S
C553 C547 1.465 1_545 S
C553 C552 1.396 . S
C553 C554 1.399 . S
C554 H540 0.929 . S
C554 C553 1.399 . S
C554 C555 1.385 . S
C555 H541 0.931 . S
C555 C554 1.385 . S
C555 C556 1.389 . S
C556 C555 1.389 . S
C556 C557 1.387 . S
C557 H542 0.930 . S
C557 C552 1.390 . S
C557 C556 1.387 . S
H558 C570 0.930 . S
H559 C572 0.930 . S
H560 C573 0.930 . S
H561 C577 0.959 . S
H562 C577 0.959 . S
H563 C577 0.961 1_556 S
H564 C578 0.960 . S
H565 C578 0.961 1_554 S
H566 C578 0.959 . S
H567 C581 0.929 . S
H568 C582 0.931 . S
H569 C584 0.930 . S
C570 H558 0.930 . S
C570 C571 1.399 . S
C570 C575 1.399 . S
C571 C570 1.399 . S
C571 C572 1.376 . S
C572 H559 0.930 . S
C572 C571 1.376 . S
C572 C573 1.388 . S
C573 H560 0.930 . S
C573 C572 1.388 . S
C573 C574 1.390 . S
C574 C573 1.390 . S
C574 C575 1.394 . S
C574 C580 1.465 1_556 S
C575 C570 1.399 . S
C575 C574 1.394 . S
C575 C576 1.516 1_556 S
C576 C575 1.516 1_554 S
C576 C577 1.502 . S
C576 C578 1.561 1_554 S
C576 C579 1.526 . S
C577 H561 0.959 . S
C577 H562 0.959 . S
C577 H563 0.961 1_554 S
C577 C576 1.502 . S
C578 H564 0.960 . S
C578 H565 0.961 1_556 S
C578 H566 0.959 . S
C578 C576 1.561 1_556 S
C579 C576 1.526 . S
C579 C580 1.396 . S
C579 C584 1.390 . S
C580 C574 1.465 1_554 S
C580 C579 1.396 . S
C580 C581 1.399 . S
C581 H567 0.929 . S
C581 C580 1.399 . S
C581 C582 1.385 . S
C582 H568 0.931 . S
C582 C581 1.385 . S
C582 C583 1.389 . S
C583 C582 1.389 . S
C583 C584 1.387 . S
C584 H569 0.930 . S
C584 C579 1.390 . S
C584 C583 1.387 . S
H585 C597 0.930 . S
H586 C599 0.930 . S
H587 C600 0.930 . S
H588 C604 0.959 . S
H589 C604 0.959 . S
H590 C604 0.961 . S
H591 C605 0.960 . S
H592 C605 0.961 . S
H593 C605 0.959 . S
H594 C608 0.929 . S
H595 C609 0.931 . S
H596 C611 0.930 . S
C597 H585 0.930 . S
C597 C598 1.399 . S
C597 C602 1.399 . S
C598 C597 1.399 . S
C598 C599 1.376 . S
C599 H586 0.930 . S
C599 C598 1.376 . S
C599 C600 1.388 . S
C600 H587 0.930 . S
C600 C599 1.388 . S
C600 C601 1.390 . S
C601 C600 1.390 . S
C601 C602 1.394 . S
C601 C607 1.465 . S
C602 C597 1.399 . S
C602 C601 1.394 . S
C602 C603 1.516 . S
C603 C602 1.516 . S
C603 C604 1.502 . S
C603 C605 1.561 . S
C603 C606 1.526 . S
C604 H588 0.959 . S
C604 H589 0.959 . S
C604 H590 0.961 . S
C604 C603 1.502 . S
C605 H591 0.960 . S
C605 H592 0.961 . S
C605 H593 0.959 . S
C605 C603 1.561 . S
C606 C603 1.526 . S
C606 C607 1.396 . S
C606 C611 1.390 . S
C607 C601 1.465 . S
C607 C606 1.396 . S
C607 C608 1.399 . S
C608 H594 0.929 . S
C608 C607 1.399 . S
C608 C609 1.385 . S
C609 H595 0.931 . S
C609 C608 1.385 . S
C609 C610 1.389 . S
C610 C609 1.389 . S
C610 C611 1.387 . S
C611 H596 0.930 . S
C611 C606 1.390 . S
C611 C610 1.387 . S
H612 C624 0.930 . S
H613 C626 0.930 . S
H614 C627 0.930 . S
H615 C631 0.959 . S
H616 C631 0.959 . S
H617 C631 0.961 1_554 S
H618 C632 0.960 1_554 S
H619 C632 0.961 . S
H620 C632 0.959 . S
H621 C635 0.929 . S
H622 C636 0.931 . S
H623 C638 0.930 . S
C624 H612 0.930 . S
C624 C625 1.399 . S
C624 C629 1.399 . S
C625 C624 1.399 . S
C625 C626 1.376 . S
C626 H613 0.930 . S
C626 C625 1.376 . S
C626 C627 1.388 . S
C627 H614 0.930 . S
C627 C626 1.388 . S
C627 C628 1.390 . S
C628 C627 1.390 . S
C628 C629 1.394 . S
C628 C634 1.465 1_554 S
C629 C624 1.399 . S
C629 C628 1.394 . S
C629 C630 1.516 1_554 S
C630 C629 1.516 1_556 S
C630 C631 1.502 . S
C630 C632 1.561 . S
C630 C633 1.526 . S
C631 H615 0.959 . S
C631 H616 0.959 . S
C631 H617 0.961 1_556 S
C631 C630 1.502 . S
C632 H618 0.960 1_556 S
C632 H619 0.961 . S
C632 H620 0.959 . S
C632 C630 1.561 . S
C633 C630 1.526 . S
C633 C634 1.396 . S
C633 C638 1.390 . S
C634 C628 1.465 1_556 S
C634 C633 1.396 . S
C634 C635 1.399 . S
C635 H621 0.929 . S
C635 C634 1.399 . S
C635 C636 1.385 . S
C636 H622 0.931 . S
C636 C635 1.385 . S
C636 C637 1.389 . S
C637 C636 1.389 . S
C637 C638 1.387 . S
C638 H623 0.930 . S
C638 C633 1.390 . S
C638 C637 1.387 . S
H639 C651 0.930 . S
H640 C653 0.930 . S
H641 C654 0.930 . S
H642 C658 0.959 . S
H643 C658 0.959 . S
H644 C658 0.961 . S
H645 C659 0.960 . S
H646 C659 0.961 . S
H647 C659 0.959 . S
H648 C662 0.929 . S
H649 C663 0.931 . S
H650 C665 0.930 . S
C651 H639 0.930 . S
C651 C652 1.399 . S
C651 C656 1.399 . S
C652 C651 1.399 . S
C652 C653 1.376 . S
C653 H640 0.930 . S
C653 C652 1.376 . S
C653 C654 1.388 . S
C654 H641 0.930 . S
C654 C653 1.388 . S
C654 C655 1.390 . S
C655 C654 1.390 . S
C655 C656 1.394 . S
C655 C661 1.465 . S
C656 C651 1.399 . S
C656 C655 1.394 . S
C656 C657 1.516 . S
C657 C656 1.516 . S
C657 C658 1.502 . S
C657 C659 1.561 . S
C657 C660 1.526 . S
C658 H642 0.959 . S
C658 H643 0.959 . S
C658 H644 0.961 . S
C658 C657 1.502 . S
C659 H645 0.960 . S
C659 H646 0.961 . S
C659 H647 0.959 . S
C659 C657 1.561 . S
C660 C657 1.526 . S
C660 C661 1.396 . S
C660 C665 1.390 . S
C661 C655 1.465 . S
C661 C660 1.396 . S
C661 C662 1.399 . S
C662 H648 0.929 . S
C662 C661 1.399 . S
C662 C663 1.385 . S
C663 H649 0.931 . S
C663 C662 1.385 . S
C663 C664 1.389 . S
C664 C663 1.389 . S
C664 C665 1.387 . S
C665 H650 0.930 . S
C665 C660 1.390 . S
C665 C664 1.387 . S
H666 C678 0.930 . S
H667 C680 0.930 . S
H668 C681 0.930 . S
H669 C685 0.959 . S
H670 C685 0.959 1_554 S
H671 C685 0.961 . S
H672 C686 0.960 . S
H673 C686 0.961 1_554 S
H674 C686 0.959 . S
H675 C689 0.929 . S
H676 C690 0.931 . S
H677 C692 0.930 . S
C678 H666 0.930 . S
C678 C679 1.399 . S
C678 C683 1.399 . S
C679 C678 1.399 . S
C679 C680 1.376 . S
C680 H667 0.930 . S
C680 C679 1.376 . S
C680 C681 1.388 . S
C681 H668 0.930 . S
C681 C680 1.388 . S
C681 C682 1.390 . S
C682 C681 1.390 . S
C682 C683 1.394 . S
C682 C688 1.465 1_556 S
C683 C678 1.399 . S
C683 C682 1.394 . S
C683 C684 1.516 . S
C684 C683 1.516 . S
C684 C685 1.502 . S
C684 C686 1.561 . S
C684 C687 1.526 1_556 S
C685 H669 0.959 . S
C685 H670 0.959 1_556 S
C685 H671 0.961 . S
C685 C684 1.502 . S
C686 H672 0.960 . S
C686 H673 0.961 1_556 S
C686 H674 0.959 . S
C686 C684 1.561 . S
C687 C684 1.526 1_554 S
C687 C688 1.396 . S
C687 C692 1.390 . S
C688 C682 1.465 1_554 S
C688 C687 1.396 . S
C688 C689 1.399 . S
C689 H675 0.929 . S
C689 C688 1.399 . S
C689 C690 1.385 . S
C690 H676 0.931 . S
C690 C689 1.385 . S
C690 C691 1.389 . S
C691 C690 1.389 . S
C691 C692 1.387 . S
C692 H677 0.930 . S
C692 C687 1.390 . S
C692 C691 1.387 . S
H693 C705 0.930 . S
H694 C707 0.930 . S
H695 C708 0.930 . S
H696 C712 0.959 . S
H697 C712 0.959 . S
H698 C712 0.961 . S
H699 C713 0.960 . S
H700 C713 0.961 . S
H701 C713 0.959 . S
H702 C716 0.929 . S
H703 C717 0.931 . S
H704 C719 0.930 . S
C705 H693 0.930 . S
C705 C706 1.399 . S
C705 C710 1.399 . S
C706 C705 1.399 . S
C706 C707 1.376 . S
C707 H694 0.930 . S
C707 C706 1.376 . S
C707 C708 1.388 . S
C708 H695 0.930 . S
C708 C707 1.388 . S
C708 C709 1.390 . S
C709 C708 1.390 . S
C709 C710 1.394 . S
C709 C715 1.465 . S
C710 C705 1.399 . S
C710 C709 1.394 . S
C710 C711 1.516 . S
C711 C710 1.516 . S
C711 C712 1.502 . S
C711 C713 1.561 . S
C711 C714 1.526 . S
C712 H696 0.959 . S
C712 H697 0.959 . S
C712 H698 0.961 . S
C712 C711 1.502 . S
C713 H699 0.960 . S
C713 H700 0.961 . S
C713 H701 0.959 . S
C713 C711 1.561 . S
C714 C711 1.526 . S
C714 C715 1.396 . S
C714 C719 1.390 . S
C715 C709 1.465 . S
C715 C714 1.396 . S
C715 C716 1.399 . S
C716 H702 0.929 . S
C716 C715 1.399 . S
C716 C717 1.385 . S
C717 H703 0.931 . S
C717 C716 1.385 . S
C717 C718 1.389 . S
C718 C717 1.389 . S
C718 C719 1.387 . S
C719 H704 0.930 . S
C719 C714 1.390 . S
C719 C718 1.387 . S
H720 C732 0.930 . S
H721 C734 0.930 . S
H722 C735 0.930 . S
H723 C739 0.960 . S
H724 C739 0.968 . S
H725 C739 0.951 1_554 S
H726 C740 0.960 1_554 S
H727 C740 0.961 . S
H728 C740 0.959 . S
H729 C743 0.929 . S
H730 C744 0.931 . S
H731 C746 0.930 . S
C732 H720 0.930 . S
C732 C733 1.399 . S
C732 C737 1.399 . S
C733 C732 1.399 . S
C733 C734 1.376 . S
C734 H721 0.930 . S
C734 C733 1.376 . S
C734 C735 1.388 . S
C735 H722 0.930 . S
C735 C734 1.388 . S
C735 C736 1.390 . S
C736 C735 1.390 . S
C736 C737 1.394 . S
C736 C742 1.465 1_554 S
C737 C732 1.399 . S
C737 C736 1.394 . S
C737 C738 1.512 1_554 S
C738 C737 1.512 1_556 S
C738 C739 1.502 . S
C738 C740 1.561 . S
C738 C741 1.530 . S
C739 H723 0.960 . S
C739 H724 0.968 . S
C739 H725 0.951 1_556 S
C739 C738 1.502 . S
C740 H726 0.960 1_556 S
C740 H727 0.961 . S
C740 H728 0.959 . S
C740 C738 1.561 . S
C741 C738 1.530 . S
C741 C742 1.396 . S
C741 C746 1.390 . S
C742 C736 1.465 1_556 S
C742 C741 1.396 . S
C742 C743 1.399 . S
C743 H729 0.929 . S
C743 C742 1.399 . S
C743 C744 1.385 . S
C744 H730 0.931 . S
C744 C743 1.385 . S
C744 C745 1.389 . S
C745 C744 1.389 . S
C745 C746 1.387 . S
C746 H731 0.930 . S
C746 C741 1.390 . S
C746 C745 1.387 . S
H747 C759 0.930 . S
H748 C761 0.930 . S
H749 C762 0.930 . S
H750 C766 0.959 . S
H751 C766 0.959 . S
H752 C766 0.961 . S
H753 C767 0.960 . S
H754 C767 0.961 . S
H755 C767 0.959 . S
H756 C770 0.929 . S
H757 C771 0.931 . S
H758 C773 0.930 . S
C759 H747 0.930 . S
C759 C760 1.399 . S
C759 C764 1.399 . S
C760 C759 1.399 . S
C760 C761 1.376 . S
C761 H748 0.930 . S
C761 C760 1.376 . S
C761 C762 1.388 . S
C762 H749 0.930 . S
C762 C761 1.388 . S
C762 C763 1.390 . S
C763 C762 1.390 . S
C763 C764 1.394 . S
C763 C769 1.465 . S
C764 C759 1.399 . S
C764 C763 1.394 . S
C764 C765 1.516 . S
C765 C764 1.516 . S
C765 C766 1.502 . S
C765 C767 1.561 . S
C765 C768 1.526 . S
C766 H750 0.959 . S
C766 H751 0.959 . S
C766 H752 0.961 . S
C766 C765 1.502 . S
C767 H753 0.960 . S
C767 H754 0.961 . S
C767 H755 0.959 . S
C767 C765 1.561 . S
C768 C765 1.526 . S
C768 C769 1.396 . S
C768 C773 1.390 . S
C769 C763 1.465 . S
C769 C768 1.396 . S
C769 C770 1.399 . S
C770 H756 0.929 . S
C770 C769 1.399 . S
C770 C771 1.385 . S
C771 H757 0.931 . S
C771 C770 1.385 . S
C771 C772 1.389 . S
C772 C771 1.389 . S
C772 C773 1.387 . S
C773 H758 0.930 . S
C773 C768 1.390 . S
C773 C772 1.387 . S
H774 C786 0.930 . S
H775 C788 0.930 . S
H776 C789 0.930 . S
H777 C793 0.959 . S
H778 C793 0.959 . S
H779 C793 0.961 1_556 S
H780 C794 0.960 1_556 S
H781 C794 0.961 . S
H782 C794 0.959 . S
H783 C797 0.929 . S
H784 C798 0.931 . S
H785 C800 0.930 . S
C786 H774 0.930 . S
C786 C787 1.399 . S
C786 C791 1.399 . S
C787 C786 1.399 . S
C787 C788 1.376 . S
C788 H775 0.930 . S
C788 C787 1.376 . S
C788 C789 1.388 . S
C789 H776 0.930 . S
C789 C788 1.388 . S
C789 C790 1.390 . S
C790 C789 1.390 . S
C790 C791 1.394 . S
C790 C796 1.465 1_556 S
C791 C786 1.399 . S
C791 C790 1.394 . S
C791 C792 1.498 1_556 S
C792 C791 1.498 1_554 S
C792 C793 1.502 . S
C792 C794 1.562 . S
C792 C795 1.544 . S
C793 H777 0.959 . S
C793 H778 0.959 . S
C793 H779 0.961 1_554 S
C793 C792 1.502 . S
C794 H780 0.960 1_554 S
C794 H781 0.961 . S
C794 H782 0.959 . S
C794 C792 1.562 . S
C795 C792 1.544 . S
C795 C796 1.396 . S
C795 C800 1.390 . S
C796 C790 1.465 1_554 S
C796 C795 1.396 . S
C796 C797 1.399 . S
C797 H783 0.929 . S
C797 C796 1.399 . S
C797 C798 1.385 . S
C798 H784 0.931 . S
C798 C797 1.385 . S
C798 C799 1.389 . S
C799 C798 1.389 . S
C799 C800 1.387 . S
C800 H785 0.930 . S
C800 C795 1.390 . S
C800 C799 1.387 . S
H801 C813 0.930 . S
H802 C815 0.930 . S
H803 C816 0.930 . S
H804 C820 0.959 . S
H805 C820 0.959 . S
H806 C820 0.961 . S
H807 C821 0.960 . S
H808 C821 0.961 . S
H809 C821 0.959 . S
H810 C824 0.929 . S
H811 C825 0.931 . S
H812 C827 0.930 . S
C813 H801 0.930 . S
C813 C814 1.399 . S
C813 C818 1.399 . S
C814 C813 1.399 . S
C814 C815 1.376 . S
C815 H802 0.930 . S
C815 C814 1.376 . S
C815 C816 1.388 . S
C816 H803 0.930 . S
C816 C815 1.388 . S
C816 C817 1.390 . S
C817 C816 1.390 . S
C817 C818 1.394 . S
C817 C823 1.465 . S
C818 C813 1.399 . S
C818 C817 1.394 . S
C818 C819 1.516 . S
C819 C818 1.516 . S
C819 C820 1.502 . S
C819 C821 1.561 . S
C819 C822 1.526 . S
C820 H804 0.959 . S
C820 H805 0.959 . S
C820 H806 0.961 . S
C820 C819 1.502 . S
C821 H807 0.960 . S
C821 H808 0.961 . S
C821 H809 0.959 . S
C821 C819 1.561 . S
C822 C819 1.526 . S
C822 C823 1.396 . S
C822 C827 1.390 . S
C823 C817 1.465 . S
C823 C822 1.396 . S
C823 C824 1.399 . S
C824 H810 0.929 . S
C824 C823 1.399 . S
C824 C825 1.385 . S
C825 H811 0.931 . S
C825 C824 1.385 . S
C825 C826 1.389 . S
C826 C825 1.389 . S
C826 C827 1.387 . S
C827 H812 0.930 . S
C827 C822 1.390 . S
C827 C826 1.387 . S
H828 C840 0.930 . S
H829 C842 0.930 . S
H830 C843 0.930 . S
H831 C847 0.958 1_554 S
H832 C847 0.945 1_554 S
H833 C847 0.977 . S
H834 C848 0.982 . S
H835 C848 0.942 1_554 S
H836 C848 0.957 1_554 S
H837 C851 0.929 . S
H838 C852 0.931 . S
H839 C854 0.930 . S
C840 H828 0.930 . S
C840 C841 1.399 . S
C840 C845 1.399 . S
C841 C840 1.399 . S
C841 C842 1.376 . S
C842 H829 0.930 . S
C842 C841 1.376 . S
C842 C843 1.388 . S
C843 H830 0.930 . S
C843 C842 1.388 . S
C843 C844 1.390 . S
C844 C843 1.390 . S
C844 C845 1.394 . S
C844 C850 1.465 1_556 S
C845 C840 1.399 . S
C845 C844 1.394 . S
C845 C846 1.533 . S
C846 C845 1.533 . S
C846 C847 1.502 . S
C846 C848 1.561 . S
C846 C849 1.509 1_556 S
C847 H831 0.958 1_556 S
C847 H832 0.945 1_556 S
C847 H833 0.977 . S
C847 C846 1.502 . S
C848 H834 0.982 . S
C848 H835 0.942 1_556 S
C848 H836 0.957 1_556 S
C848 C846 1.561 . S
C849 C846 1.509 1_554 S
C849 C850 1.396 . S
C849 C854 1.390 . S
C850 C844 1.465 1_554 S
C850 C849 1.396 . S
C850 C851 1.399 . S
C851 H837 0.929 . S
C851 C850 1.399 . S
C851 C852 1.385 . S
C852 H838 0.931 . S
C852 C851 1.385 . S
C852 C853 1.389 . S
C853 C852 1.389 . S
C853 C854 1.387 . S
C854 H839 0.930 . S
C854 C849 1.390 . S
C854 C853 1.387 . S
H855 C867 0.930 . S
H856 C869 0.930 . S
H857 C870 0.930 . S
H858 C874 0.959 . S
H859 C874 0.959 . S
H860 C874 0.961 . S
H861 C875 0.960 . S
H862 C875 0.961 . S
H863 C875 0.959 . S
H864 C878 0.929 . S
H865 C879 0.931 . S
H866 C881 0.930 . S
C867 H855 0.930 . S
C867 C868 1.399 . S
C867 C872 1.399 . S
C868 C867 1.399 . S
C868 C869 1.376 . S
C869 H856 0.930 . S
C869 C868 1.376 . S
C869 C870 1.388 . S
C870 H857 0.930 . S
C870 C869 1.388 . S
C870 C871 1.390 . S
C871 C870 1.390 . S
C871 C872 1.394 . S
C871 C877 1.465 . S
C872 C867 1.399 . S
C872 C871 1.394 . S
C872 C873 1.516 . S
C873 C872 1.516 . S
C873 C874 1.502 . S
C873 C875 1.561 . S
C873 C876 1.526 . S
C874 H858 0.959 . S
C874 H859 0.959 . S
C874 H860 0.961 . S
C874 C873 1.502 . S
C875 H861 0.960 . S
C875 H862 0.961 . S
C875 H863 0.959 . S
C875 C873 1.561 . S
C876 C873 1.526 . S
C876 C877 1.396 . S
C876 C881 1.390 . S
C877 C871 1.465 . S
C877 C876 1.396 . S
C877 C878 1.399 . S
C878 H864 0.929 . S
C878 C877 1.399 . S
C878 C879 1.385 . S
C879 H865 0.931 . S
C879 C878 1.385 . S
C879 C880 1.389 . S
C880 C879 1.389 . S
C880 C881 1.387 . S
C881 H866 0.930 . S
C881 C876 1.390 . S
C881 C880 1.387 . S
H882 C894 0.930 . S
H883 C896 0.930 . S
H884 C897 0.930 . S
H885 C901 0.959 . S
H886 C901 0.959 . S
H887 C901 0.961 . S
H888 C902 0.960 . S
H889 C902 0.961 . S
H890 C902 0.959 . S
H891 C905 0.929 . S
H892 C906 0.931 . S
H893 C908 0.930 . S
C894 H882 0.930 . S
C894 C895 1.399 . S
C894 C899 1.399 . S
C895 C894 1.399 . S
C895 C896 1.376 . S
C896 H883 0.930 . S
C896 C895 1.376 . S
C896 C897 1.388 . S
C897 H884 0.930 . S
C897 C896 1.388 . S
C897 C898 1.390 . S
C898 C897 1.390 . S
C898 C899 1.394 . S
C898 C904 1.465 . S
C899 C894 1.399 . S
C899 C898 1.394 . S
C899 C900 1.516 . S
C900 C899 1.516 . S
C900 C901 1.502 . S
C900 C902 1.561 . S
C900 C903 1.526 . S
C901 H885 0.959 . S
C901 H886 0.959 . S
C901 H887 0.961 . S
C901 C900 1.502 . S
C902 H888 0.960 . S
C902 H889 0.961 . S
C902 H890 0.959 . S
C902 C900 1.561 . S
C903 C900 1.526 . S
C903 C904 1.396 . S
C903 C908 1.390 . S
C904 C898 1.465 . S
C904 C903 1.396 . S
C904 C905 1.399 . S
C905 H891 0.929 . S
C905 C904 1.399 . S
C905 C906 1.385 . S
C906 H892 0.931 . S
C906 C905 1.385 . S
C906 C907 1.389 . S
C907 C906 1.389 . S
C907 C908 1.387 . S
C908 H893 0.930 . S
C908 C903 1.390 . S
C908 C907 1.387 . S
H909 C921 0.930 . S
H910 C923 0.930 . S
H911 C924 0.930 . S
H912 C928 0.959 . S
H913 C928 0.959 . S
H914 C928 0.961 . S
H915 C929 0.960 . S
H916 C929 0.961 . S
H917 C929 0.959 . S
H918 C932 0.929 . S
H919 C933 0.931 . S
H920 C935 0.930 . S
C921 H909 0.930 . S
C921 C922 1.399 . S
C921 C926 1.399 . S
C922 C921 1.399 . S
C922 C923 1.376 . S
C923 H910 0.930 . S
C923 C922 1.376 . S
C923 C924 1.388 . S
C924 H911 0.930 . S
C924 C923 1.388 . S
C924 C925 1.390 . S
C925 C924 1.390 . S
C925 C926 1.394 . S
C925 C931 1.465 . S
C926 C921 1.399 . S
C926 C925 1.394 . S
C926 C927 1.516 . S
C927 C926 1.516 . S
C927 C928 1.502 . S
C927 C929 1.561 . S
C927 C930 1.526 . S
C928 H912 0.959 . S
C928 H913 0.959 . S
C928 H914 0.961 . S
C928 C927 1.502 . S
C929 H915 0.960 . S
C929 H916 0.961 . S
C929 H917 0.959 . S
C929 C927 1.561 . S
C930 C927 1.526 . S
C930 C931 1.396 . S
C930 C935 1.390 . S
C931 C925 1.465 . S
C931 C930 1.396 . S
C931 C932 1.399 . S
C932 H918 0.929 . S
C932 C931 1.399 . S
C932 C933 1.385 . S
C933 H919 0.931 . S
C933 C932 1.385 . S
C933 C934 1.389 . S
C934 C933 1.389 . S
C934 C935 1.387 . S
C935 H920 0.930 . S
C935 C930 1.390 . S
C935 C934 1.387 . S
H936 C948 0.930 . S
H937 C950 0.930 . S
H938 C951 0.930 . S
H939 C955 0.959 . S
H940 C955 0.959 . S
H941 C955 0.961 . S
H942 C956 0.960 . S
H943 C956 0.961 . S
H944 C956 0.959 . S
H945 C959 0.929 . S
H946 C960 0.931 . S
H947 C962 0.930 . S
C948 H936 0.930 . S
C948 C949 1.399 . S
C948 C953 1.399 . S
C949 C948 1.399 . S
C949 C950 1.376 . S
C950 H937 0.930 . S
C950 C949 1.376 . S
C950 C951 1.388 . S
C951 H938 0.930 . S
C951 C950 1.388 . S
C951 C952 1.390 . S
C952 C951 1.390 . S
C952 C953 1.394 . S
C952 C958 1.465 . S
C953 C948 1.399 . S
C953 C952 1.394 . S
C953 C954 1.516 . S
C954 C953 1.516 . S
C954 C955 1.502 . S
C954 C956 1.561 . S
C954 C957 1.526 . S
C955 H939 0.959 . S
C955 H940 0.959 . S
C955 H941 0.961 . S
C955 C954 1.502 . S
C956 H942 0.960 . S
C956 H943 0.961 . S
C956 H944 0.959 . S
C956 C954 1.561 . S
C957 C954 1.526 . S
C957 C958 1.396 . S
C957 C962 1.390 . S
C958 C952 1.465 . S
C958 C957 1.396 . S
C958 C959 1.399 . S
C959 H945 0.929 . S
C959 C958 1.399 . S
C959 C960 1.385 . S
C960 H946 0.931 . S
C960 C959 1.385 . S
C960 C961 1.389 . S
C961 C960 1.389 . S
C961 C962 1.387 . S
C962 H947 0.930 . S
C962 C957 1.390 . S
C962 C961 1.387 . S
H963 C975 0.930 . S
H964 C977 0.930 . S
H965 C978 0.930 . S
H966 C982 0.959 . S
H967 C982 0.959 . S
H968 C982 0.961 . S
H969 C983 0.960 . S
H970 C983 0.961 . S
H971 C983 0.959 . S
H972 C986 0.929 . S
H973 C987 0.931 . S
H974 C989 0.930 . S
C975 H963 0.930 . S
C975 C976 1.399 . S
C975 C980 1.399 . S
C976 C975 1.399 . S
C976 C977 1.376 . S
C977 H964 0.930 . S
C977 C976 1.376 . S
C977 C978 1.388 . S
C978 H965 0.930 . S
C978 C977 1.388 . S
C978 C979 1.390 . S
C979 C978 1.390 . S
C979 C980 1.394 . S
C979 C985 1.465 . S
C980 C975 1.399 . S
C980 C979 1.394 . S
C980 C981 1.516 . S
C981 C980 1.516 . S
C981 C982 1.502 . S
C981 C983 1.561 . S
C981 C984 1.526 . S
C982 H966 0.959 . S
C982 H967 0.959 . S
C982 H968 0.961 . S
C982 C981 1.502 . S
C983 H969 0.960 . S
C983 H970 0.961 . S
C983 H971 0.959 . S
C983 C981 1.561 . S
C984 C981 1.526 . S
C984 C985 1.396 . S
C984 C989 1.390 . S
C985 C979 1.465 . S
C985 C984 1.396 . S
C985 C986 1.399 . S
C986 H972 0.929 . S
C986 C985 1.399 . S
C986 C987 1.385 . S
C987 H973 0.931 . S
C987 C986 1.385 . S
C987 C988 1.389 . S
C988 C987 1.389 . S
C988 C989 1.387 . S
C989 H974 0.930 . S
C989 C984 1.390 . S
C989 C988 1.387 . S
H990 C1002 0.930 . S
H991 C1004 0.930 . S
H992 C1005 0.930 . S
H993 C1009 0.959 . S
H994 C1009 0.959 . S
H995 C1009 0.961 . S
H996 C1010 0.960 . S
H997 C1010 0.961 . S
H998 C1010 0.959 . S
H999 C1013 0.929 . S
H1000 C1014 0.931 . S
H1001 C1016 0.930 . S
C1002 H990 0.930 . S
C1002 C1003 1.399 . S
C1002 C1007 1.399 . S
C1003 C1002 1.399 . S
C1003 C1004 1.376 . S
C1004 H991 0.930 . S
C1004 C1003 1.376 . S
C1004 C1005 1.388 . S
C1005 H992 0.930 . S
C1005 C1004 1.388 . S
C1005 C1006 1.390 . S
C1006 C1005 1.390 . S
C1006 C1007 1.394 . S
C1006 C1012 1.465 . S
C1007 C1002 1.399 . S
C1007 C1006 1.394 . S
C1007 C1008 1.516 . S
C1008 C1007 1.516 . S
C1008 C1009 1.502 . S
C1008 C1010 1.561 . S
C1008 C1011 1.526 . S
C1009 H993 0.959 . S
C1009 H994 0.959 . S
C1009 H995 0.961 . S
C1009 C1008 1.502 . S
C1010 H996 0.960 . S
C1010 H997 0.961 . S
C1010 H998 0.959 . S
C1010 C1008 1.561 . S
C1011 C1008 1.526 . S
C1011 C1012 1.396 . S
C1011 C1016 1.390 . S
C1012 C1006 1.465 . S
C1012 C1011 1.396 . S
C1012 C1013 1.399 . S
C1013 H999 0.929 . S
C1013 C1012 1.399 . S
C1013 C1014 1.385 . S
C1014 H1000 0.931 . S
C1014 C1013 1.385 . S
C1014 C1015 1.389 . S
C1015 C1014 1.389 . S
C1015 C1016 1.387 . S
C1016 H1001 0.930 . S
C1016 C1011 1.390 . S
C1016 C1015 1.387 . S
H1017 C1029 0.930 . S
H1018 C1031 0.930 . S
H1019 C1032 0.930 . S
H1020 C1036 0.959 . S
H1021 C1036 0.959 . S
H1022 C1036 0.961 . S
H1023 C1037 0.960 . S
H1024 C1037 0.961 . S
H1025 C1037 0.959 . S
H1026 C1040 0.929 . S
H1027 C1041 0.931 . S
H1028 C1043 0.930 . S
C1029 H1017 0.930 . S
C1029 C1030 1.399 . S
C1029 C1034 1.399 . S
C1030 C1029 1.399 . S
C1030 C1031 1.376 . S
C1031 H1018 0.930 . S
C1031 C1030 1.376 . S
C1031 C1032 1.388 . S
C1032 H1019 0.930 . S
C1032 C1031 1.388 . S
C1032 C1033 1.390 . S
C1033 C1032 1.390 . S
C1033 C1034 1.394 . S
C1033 C1039 1.465 . S
C1034 C1029 1.399 . S
C1034 C1033 1.394 . S
C1034 C1035 1.516 . S
C1035 C1034 1.516 . S
C1035 C1036 1.502 . S
C1035 C1037 1.561 . S
C1035 C1038 1.526 . S
C1036 H1020 0.959 . S
C1036 H1021 0.959 . S
C1036 H1022 0.961 . S
C1036 C1035 1.502 . S
C1037 H1023 0.960 . S
C1037 H1024 0.961 . S
C1037 H1025 0.959 . S
C1037 C1035 1.561 . S
C1038 C1035 1.526 . S
C1038 C1039 1.396 . S
C1038 C1043 1.390 . S
C1039 C1033 1.465 . S
C1039 C1038 1.396 . S
C1039 C1040 1.399 . S
C1040 H1026 0.929 . S
C1040 C1039 1.399 . S
C1040 C1041 1.385 . S
C1041 H1027 0.931 . S
C1041 C1040 1.385 . S
C1041 C1042 1.389 . S
C1042 C1041 1.389 . S
C1042 C1043 1.387 . S
C1043 H1028 0.930 . S
C1043 C1038 1.390 . S
C1043 C1042 1.387 . S
H1044 C1056 0.930 . S
H1045 C1058 0.930 . S
H1046 C1059 0.930 . S
H1047 C1063 0.959 . S
H1048 C1063 0.959 . S
H1049 C1063 0.961 . S
H1050 C1064 0.960 . S
H1051 C1064 0.961 . S
H1052 C1064 0.959 . S
H1053 C1067 0.929 . S
H1054 C1068 0.931 . S
H1055 C1070 0.930 . S
C1056 H1044 0.930 . S
C1056 C1057 1.399 . S
C1056 C1061 1.399 . S
C1057 C1056 1.399 . S
C1057 C1058 1.376 . S
C1058 H1045 0.930 . S
C1058 C1057 1.376 . S
C1058 C1059 1.388 . S
C1059 H1046 0.930 . S
C1059 C1058 1.388 . S
C1059 C1060 1.390 . S
C1060 C1059 1.390 . S
C1060 C1061 1.394 . S
C1060 C1066 1.465 . S
C1061 C1056 1.399 . S
C1061 C1060 1.394 . S
C1061 C1062 1.516 . S
C1062 C1061 1.516 . S
C1062 C1063 1.502 . S
C1062 C1064 1.561 . S
C1062 C1065 1.526 . S
C1063 H1047 0.959 . S
C1063 H1048 0.959 . S
C1063 H1049 0.961 . S
C1063 C1062 1.502 . S
C1064 H1050 0.960 . S
C1064 H1051 0.961 . S
C1064 H1052 0.959 . S
C1064 C1062 1.561 . S
C1065 C1062 1.526 . S
C1065 C1066 1.396 . S
C1065 C1070 1.390 . S
C1066 C1060 1.465 . S
C1066 C1065 1.396 . S
C1066 C1067 1.399 . S
C1067 H1053 0.929 . S
C1067 C1066 1.399 . S
C1067 C1068 1.385 . S
C1068 H1054 0.931 . S
C1068 C1067 1.385 . S
C1068 C1069 1.389 . S
C1069 C1068 1.389 . S
C1069 C1070 1.387 . S
C1070 H1055 0.930 . S
C1070 C1065 1.390 . S
C1070 C1069 1.387 . S
H1071 C1083 0.930 . S
H1072 C1085 0.930 . S
H1073 C1086 0.930 . S
H1074 C1090 0.959 . S
H1075 C1090 0.959 . S
H1076 C1090 0.961 . S
H1077 C1091 0.960 . S
H1078 C1091 0.961 . S
H1079 C1091 0.959 . S
H1080 C1094 0.929 . S
H1081 C1095 0.931 . S
H1082 C1097 0.930 . S
C1083 H1071 0.930 . S
C1083 C1084 1.399 . S
C1083 C1088 1.399 . S
C1084 C1083 1.399 . S
C1084 C1085 1.376 . S
C1085 H1072 0.930 . S
C1085 C1084 1.376 . S
C1085 C1086 1.388 . S
C1086 H1073 0.930 . S
C1086 C1085 1.388 . S
C1086 C1087 1.390 . S
C1087 C1086 1.390 . S
C1087 C1088 1.394 . S
C1087 C1093 1.465 . S
C1088 C1083 1.399 . S
C1088 C1087 1.394 . S
C1088 C1089 1.516 . S
C1089 C1088 1.516 . S
C1089 C1090 1.502 . S
C1089 C1091 1.561 . S
C1089 C1092 1.526 . S
C1090 H1074 0.959 . S
C1090 H1075 0.959 . S
C1090 H1076 0.961 . S
C1090 C1089 1.502 . S
C1091 H1077 0.960 . S
C1091 H1078 0.961 . S
C1091 H1079 0.959 . S
C1091 C1089 1.561 . S
C1092 C1089 1.526 . S
C1092 C1093 1.396 . S
C1092 C1097 1.390 . S
C1093 C1087 1.465 . S
C1093 C1092 1.396 . S
C1093 C1094 1.399 . S
C1094 H1080 0.929 . S
C1094 C1093 1.399 . S
C1094 C1095 1.385 . S
C1095 H1081 0.931 . S
C1095 C1094 1.385 . S
C1095 C1096 1.389 . S
C1096 C1095 1.389 . S
C1096 C1097 1.387 . S
C1097 H1082 0.930 . S
C1097 C1092 1.390 . S
C1097 C1096 1.387 . S
H1098 C1110 0.930 . S
H1099 C1112 0.930 . S
H1100 C1113 0.930 . S
H1101 C1117 0.959 . S
H1102 C1117 0.959 . S
H1103 C1117 0.961 . S
H1104 C1118 0.960 . S
H1105 C1118 0.961 . S
H1106 C1118 0.959 . S
H1107 C1121 0.929 . S
H1108 C1122 0.931 . S
H1109 C1124 0.930 . S
C1110 H1098 0.930 . S
C1110 C1111 1.399 . S
C1110 C1115 1.399 . S
C1111 C1110 1.399 . S
C1111 C1112 1.376 . S
C1112 H1099 0.930 . S
C1112 C1111 1.376 . S
C1112 C1113 1.388 . S
C1113 H1100 0.930 . S
C1113 C1112 1.388 . S
C1113 C1114 1.390 . S
C1114 C1113 1.390 . S
C1114 C1115 1.394 . S
C1114 C1120 1.465 . S
C1115 C1110 1.399 . S
C1115 C1114 1.394 . S
C1115 C1116 1.516 . S
C1116 C1115 1.516 . S
C1116 C1117 1.502 . S
C1116 C1118 1.561 . S
C1116 C1119 1.526 . S
C1117 H1101 0.959 . S
C1117 H1102 0.959 . S
C1117 H1103 0.961 . S
C1117 C1116 1.502 . S
C1118 H1104 0.960 . S
C1118 H1105 0.961 . S
C1118 H1106 0.959 . S
C1118 C1116 1.561 . S
C1119 C1116 1.526 . S
C1119 C1120 1.396 . S
C1119 C1124 1.390 . S
C1120 C1114 1.465 . S
C1120 C1119 1.396 . S
C1120 C1121 1.399 . S
C1121 H1107 0.929 . S
C1121 C1120 1.399 . S
C1121 C1122 1.385 . S
C1122 H1108 0.931 . S
C1122 C1121 1.385 . S
C1122 C1123 1.389 . S
C1123 C1122 1.389 . S
C1123 C1124 1.387 . S
C1124 H1109 0.930 . S
C1124 C1119 1.390 . S
C1124 C1123 1.387 . S
H1125 C1137 0.930 . S
H1126 C1139 0.930 . S
H1127 C1140 0.930 . S
H1128 C1144 0.959 . S
H1129 C1144 0.959 . S
H1130 C1144 0.961 . S
H1131 C1145 0.960 . S
H1132 C1145 0.961 . S
H1133 C1145 0.959 . S
H1134 C1148 0.929 . S
H1135 C1149 0.931 . S
H1136 C1151 0.930 . S
C1137 H1125 0.930 . S
C1137 C1138 1.399 . S
C1137 C1142 1.399 . S
C1138 C1137 1.399 . S
C1138 C1139 1.376 . S
C1139 H1126 0.930 . S
C1139 C1138 1.376 . S
C1139 C1140 1.388 . S
C1140 H1127 0.930 . S
C1140 C1139 1.388 . S
C1140 C1141 1.390 . S
C1141 C1140 1.390 . S
C1141 C1142 1.394 . S
C1141 C1147 1.465 . S
C1142 C1137 1.399 . S
C1142 C1141 1.394 . S
C1142 C1143 1.516 . S
C1143 C1142 1.516 . S
C1143 C1144 1.502 . S
C1143 C1145 1.561 . S
C1143 C1146 1.526 . S
C1144 H1128 0.959 . S
C1144 H1129 0.959 . S
C1144 H1130 0.961 . S
C1144 C1143 1.502 . S
C1145 H1131 0.960 . S
C1145 H1132 0.961 . S
C1145 H1133 0.959 . S
C1145 C1143 1.561 . S
C1146 C1143 1.526 . S
C1146 C1147 1.396 . S
C1146 C1151 1.390 . S
C1147 C1141 1.465 . S
C1147 C1146 1.396 . S
C1147 C1148 1.399 . S
C1148 H1134 0.929 . S
C1148 C1147 1.399 . S
C1148 C1149 1.385 . S
C1149 H1135 0.931 . S
C1149 C1148 1.385 . S
C1149 C1150 1.389 . S
C1150 C1149 1.389 . S
C1150 C1151 1.387 . S
C1151 H1136 0.930 . S
C1151 C1146 1.390 . S
C1151 C1150 1.387 . S
H1152 C1164 0.930 . S
H1153 C1166 0.930 . S
H1154 C1167 0.930 . S
H1155 C1171 0.959 . S
H1156 C1171 0.959 . S
H1157 C1171 0.961 . S
H1158 C1172 0.960 . S
H1159 C1172 0.961 . S
H1160 C1172 0.959 . S
H1161 C1175 0.929 . S
H1162 C1176 0.931 . S
H1163 C1178 0.930 . S
C1164 H1152 0.930 . S
C1164 C1165 1.399 . S
C1164 C1169 1.399 . S
C1165 C1164 1.399 . S
C1165 C1166 1.376 . S
C1166 H1153 0.930 . S
C1166 C1165 1.376 . S
C1166 C1167 1.388 . S
C1167 H1154 0.930 . S
C1167 C1166 1.388 . S
C1167 C1168 1.390 . S
C1168 C1167 1.390 . S
C1168 C1169 1.394 . S
C1168 C1174 1.465 . S
C1169 C1164 1.399 . S
C1169 C1168 1.394 . S
C1169 C1170 1.516 . S
C1170 C1169 1.516 . S
C1170 C1171 1.502 . S
C1170 C1172 1.561 . S
C1170 C1173 1.526 . S
C1171 H1155 0.959 . S
C1171 H1156 0.959 . S
C1171 H1157 0.961 . S
C1171 C1170 1.502 . S
C1172 H1158 0.960 . S
C1172 H1159 0.961 . S
C1172 H1160 0.959 . S
C1172 C1170 1.561 . S
C1173 C1170 1.526 . S
C1173 C1174 1.396 . S
C1173 C1178 1.390 . S
C1174 C1168 1.465 . S
C1174 C1173 1.396 . S
C1174 C1175 1.399 . S
C1175 H1161 0.929 . S
C1175 C1174 1.399 . S
C1175 C1176 1.385 . S
C1176 H1162 0.931 . S
C1176 C1175 1.385 . S
C1176 C1177 1.389 . S
C1177 C1176 1.389 . S
C1177 C1178 1.387 . S
C1178 H1163 0.930 . S
C1178 C1173 1.390 . S
C1178 C1177 1.387 . S
H1179 C1191 0.930 . S
H1180 C1193 0.930 . S
H1181 C1194 0.930 . S
H1182 C1198 0.959 . S
H1183 C1198 0.959 . S
H1184 C1198 0.961 . S
H1185 C1199 0.960 . S
H1186 C1199 0.961 . S
H1187 C1199 0.959 . S
H1188 C1202 0.929 . S
H1189 C1203 0.931 . S
H1190 C1205 0.930 . S
C1191 H1179 0.930 . S
C1191 C1192 1.399 . S
C1191 C1196 1.399 . S
C1192 C1191 1.399 . S
C1192 C1193 1.376 . S
C1193 H1180 0.930 . S
C1193 C1192 1.376 . S
C1193 C1194 1.388 . S
C1194 H1181 0.930 . S
C1194 C1193 1.388 . S
C1194 C1195 1.390 . S
C1195 C1194 1.390 . S
C1195 C1196 1.394 . S
C1195 C1201 1.465 . S
C1196 C1191 1.399 . S
C1196 C1195 1.394 . S
C1196 C1197 1.516 . S
C1197 C1196 1.516 . S
C1197 C1198 1.502 . S
C1197 C1199 1.561 . S
C1197 C1200 1.526 . S
C1198 H1182 0.959 . S
C1198 H1183 0.959 . S
C1198 H1184 0.961 . S
C1198 C1197 1.502 . S
C1199 H1185 0.960 . S
C1199 H1186 0.961 . S
C1199 H1187 0.959 . S
C1199 C1197 1.561 . S
C1200 C1197 1.526 . S
C1200 C1201 1.396 . S
C1200 C1205 1.390 . S
C1201 C1195 1.465 . S
C1201 C1200 1.396 . S
C1201 C1202 1.399 . S
C1202 H1188 0.929 . S
C1202 C1201 1.399 . S
C1202 C1203 1.385 . S
C1203 H1189 0.931 . S
C1203 C1202 1.385 . S
C1203 C1204 1.389 . S
C1204 C1203 1.389 . S
C1204 C1205 1.387 . S
C1205 H1190 0.930 . S
C1205 C1200 1.390 . S
C1205 C1204 1.387 . S
C409 N302 1.718 . S
C421 N5 1.706 . S
C436 N38 1.669 . S
C448 N335 1.656 . S
C463 N368 1.660 . S
C475 N71 1.650 . S
C490 N104 1.669 . S
C502 N203 1.656 . S
C517 N137 1.706 . S
C529 N236 1.717 . S
C544 N269 1.662 . S
C556 N170 1.651 . S
C571 C347 1.067 . S
C583 C17 1.134 . S
C598 C380 1.138 . S
C610 C50 1.037 . S
C625 C83 1.041 . S
C637 C215 1.139 . S
C652 C248 1.094 . S
C664 C116 1.035 . S
C679 C281 1.139 . S
C691 C149 1.039 . S
C706 C182 1.136 . S
C718 C314 1.067 . S
C733 C259 1.480 . S
C745 C127 1.485 . S
C760 C292 1.485 . S
C772 C160 1.482 . S
C787 C193 1.487 . S
C799 C325 1.482 . S
C814 C28 1.485 . S
C826 C358 1.495 . S
C841 C61 1.518 . S
C853 C391 1.533 . S
C868 C226 1.525 . S
C880 C94 1.511 . S
C895 N14 1.435 . S
C907 C140 1.446 . S
C922 N47 1.439 . S
C934 C173 1.440 . S
C949 N80 1.435 . S
C961 C8 1.446 . S
C976 C41 1.441 . S
C988 N113 1.436 . S
C1003 N146 1.432 . S
C1015 C74 1.444 . S
C1030 C107 1.443 . S
C1042 N179 1.446 . S
C1057 C272 1.438 . S
C1069 N212 1.447 . S
C1084 C305 1.441 . S
C1096 N245 1.436 . S
C1111 C338 1.441 . S
C1123 N278 1.436 . S
C1138 N311 1.447 . S
C1150 C371 1.439 . S
C1165 C206 1.441 . S
C1177 N344 1.436 . S
C1192 N377 1.436 . S
C1204 C239 1.446 . S
