# Generated by pormake.
# Topology usf, (4)-cn, num edge types: 1
# Building blocks:
#     Node 0, Type 0, BuildingBlock: MUDLON_clean_sbu_0, # of connection points: 4
#     Node 1, Type 0, BuildingBlock: MUDLON_clean_sbu_0, # of connection points: 4
#     Node 2, Type 0, BuildingBlock: MUDLON_clean_sbu_0, # of connection points: 4
#     Node 3, Type 0, BuildingBlock: MUDLON_clean_sbu_0, # of connection points: 4
#     Node 4, Type 0, BuildingBlock: MUDLON_clean_sbu_0, # of connection points: 4
#     Node 5, Type 0, BuildingBlock: MUDLON_clean_sbu_0, # of connection points: 4
#     Node 6, Type 0, BuildingBlock: MUDLON_clean_sbu_0, # of connection points: 4
#     Node 7, Type 0, BuildingBlock: MUDLON_clean_sbu_0, # of connection points: 4
#     Node 8, Type 0, BuildingBlock: MUDLON_clean_sbu_0, # of connection points: 4
#     Node 9, Type 0, BuildingBlock: MUDLON_clean_sbu_0, # of connection points: 4
#     Node 10, Type 0, BuildingBlock: MUDLON_clean_sbu_0, # of connection points: 4
#     Node 11, Type 0, BuildingBlock: MUDLON_clean_sbu_0, # of connection points: 4
#     Node 12, Type 0, BuildingBlock: MUDLON_clean_sbu_0, # of connection points: 4
#     Node 13, Type 0, BuildingBlock: MUDLON_clean_sbu_0, # of connection points: 4
#     Node 14, Type 0, BuildingBlock: MUDLON_clean_sbu_0, # of connection points: 4
#     Node 15, Type 0, BuildingBlock: MUDLON_clean_sbu_0, # of connection points: 4
#     Node 16, Type 0, BuildingBlock: MUDLON_clean_sbu_0, # of connection points: 4
#     Node 17, Type 0, BuildingBlock: MUDLON_clean_sbu_0, # of connection points: 4
#     Edge 18, Type (0, 0), BuildingBlock: KIFKEQ_clean_linker_1, # of connection points: 2
#     Edge 19, Type (0, 0), BuildingBlock: KIFKEQ_clean_linker_1, # of connection points: 2
#     Edge 20, Type (0, 0), BuildingBlock: KIFKEQ_clean_linker_1, # of connection points: 2
#     Edge 21, Type (0, 0), BuildingBlock: KIFKEQ_clean_linker_1, # of connection points: 2
#     Edge 22, Type (0, 0), BuildingBlock: KIFKEQ_clean_linker_1, # of connection points: 2
#     Edge 23, Type (0, 0), BuildingBlock: KIFKEQ_clean_linker_1, # of connection points: 2
#     Edge 24, Type (0, 0), BuildingBlock: KIFKEQ_clean_linker_1, # of connection points: 2
#     Edge 25, Type (0, 0), BuildingBlock: KIFKEQ_clean_linker_1, # of connection points: 2
#     Edge 26, Type (0, 0), BuildingBlock: KIFKEQ_clean_linker_1, # of connection points: 2
#     Edge 27, Type (0, 0), BuildingBlock: KIFKEQ_clean_linker_1, # of connection points: 2
#     Edge 28, Type (0, 0), BuildingBlock: KIFKEQ_clean_linker_1, # of connection points: 2
#     Edge 29, Type (0, 0), BuildingBlock: KIFKEQ_clean_linker_1, # of connection points: 2
#     Edge 30, Type (0, 0), BuildingBlock: KIFKEQ_clean_linker_1, # of connection points: 2
#     Edge 31, Type (0, 0), BuildingBlock: KIFKEQ_clean_linker_1, # of connection points: 2
#     Edge 32, Type (0, 0), BuildingBlock: KIFKEQ_clean_linker_1, # of connection points: 2
#     Edge 33, Type (0, 0), BuildingBlock: KIFKEQ_clean_linker_1, # of connection points: 2
#     Edge 34, Type (0, 0), BuildingBlock: KIFKEQ_clean_linker_1, # of connection points: 2
#     Edge 35, Type (0, 0), BuildingBlock: KIFKEQ_clean_linker_1, # of connection points: 2
#     Edge 36, Type (0, 0), BuildingBlock: KIFKEQ_clean_linker_1, # of connection points: 2
#     Edge 37, Type (0, 0), BuildingBlock: KIFKEQ_clean_linker_1, # of connection points: 2
#     Edge 38, Type (0, 0), BuildingBlock: KIFKEQ_clean_linker_1, # of connection points: 2
#     Edge 39, Type (0, 0), BuildingBlock: KIFKEQ_clean_linker_1, # of connection points: 2
#     Edge 40, Type (0, 0), BuildingBlock: KIFKEQ_clean_linker_1, # of connection points: 2
#     Edge 41, Type (0, 0), BuildingBlock: KIFKEQ_clean_linker_1, # of connection points: 2
#     Edge 42, Type (0, 0), BuildingBlock: KIFKEQ_clean_linker_1, # of connection points: 2
#     Edge 43, Type (0, 0), BuildingBlock: KIFKEQ_clean_linker_1, # of connection points: 2
#     Edge 44, Type (0, 0), BuildingBlock: KIFKEQ_clean_linker_1, # of connection points: 2
#     Edge 45, Type (0, 0), BuildingBlock: KIFKEQ_clean_linker_1, # of connection points: 2
#     Edge 46, Type (0, 0), BuildingBlock: KIFKEQ_clean_linker_1, # of connection points: 2
#     Edge 47, Type (0, 0), BuildingBlock: KIFKEQ_clean_linker_1, # of connection points: 2
#     Edge 48, Type (0, 0), BuildingBlock: KIFKEQ_clean_linker_1, # of connection points: 2
#     Edge 49, Type (0, 0), BuildingBlock: KIFKEQ_clean_linker_1, # of connection points: 2
#     Edge 50, Type (0, 0), BuildingBlock: KIFKEQ_clean_linker_1, # of connection points: 2
#     Edge 51, Type (0, 0), BuildingBlock: KIFKEQ_clean_linker_1, # of connection points: 2
#     Edge 52, Type (0, 0), BuildingBlock: KIFKEQ_clean_linker_1, # of connection points: 2
#     Edge 53, Type (0, 0), BuildingBlock: KIFKEQ_clean_linker_1, # of connection points: 2
# Relax obj value: 0.161
# Max RMSD: 0.154
# Mean RMSD: 0.149
data_MOF--net-usf--node1-MUDLON_clean_sbu_0--edge1-KIFKEQ_clean_linker_1
_symmetry_space_group_name_H-M    P1
_symmetry_Int_Tables_number       1
_symmetry_cell_setting            triclinic
loop_
_symmetry_equiv_pos_as_xyz
'x, y, z'
_cell_length_a     50.846544
_cell_length_b     51.011447
_cell_length_c     29.753988
_cell_angle_alpha  90.144842
_cell_angle_beta   89.906331
_cell_angle_gamma 120.11969
loop_
_atom_site_label
_atom_site_type_symbol
_atom_site_fract_x
_atom_site_fract_y
_atom_site_fract_z
_atom_type_partial_charge
Mg0 Mg 0.99669 0.5302 0.02789 0.0
C1 C 1.01457 0.49096 0.96954 0.0
O2 O 1.00504 0.50158 0.93715 0.0
C3 C 0.95404 0.54546 0.0649 0.0
O4 O 0.98052 0.57023 0.05974 0.0
C5 C 0.98193 0.54823 0.94306 0.0
O6 O 0.95724 0.52295 0.95431 0.0
O7 O 1.00471 0.55883 0.96941 0.0
O8 O 1.01136 0.49693 0.01022 0.0
O9 O 1.02085 0.55252 0.08915 0.0
C10 C 1.02154 0.53469 0.11829 0.0
O11 O 1.01493 0.50739 0.10542 0.0
O12 O 0.95127 0.52032 0.05157 0.0
Mg13 Mg 0.54101 0.55226 0.02591 0.0
C14 C 0.56268 0.61473 0.99084 0.0
O15 O 0.53428 0.59897 0.97739 0.0
C16 C 0.55502 0.51192 0.08362 0.0
O17 O 0.56039 0.53246 0.11444 0.0
C18 C 0.53796 0.5328 0.93483 0.0
O19 O 0.56599 0.54345 0.94901 0.0
O20 O 0.51884 0.53362 0.96168 0.0
O21 O 0.57355 0.60104 0.01343 0.0
O22 O 0.5135 0.54631 0.08561 0.0
C23 C 0.52566 0.56663 0.11583 0.0
O24 O 0.54833 0.59327 0.10408 0.0
O25 O 0.55448 0.51874 0.0426 0.0
Mg26 Mg 0.55263 0.98421 0.03177 0.0
C27 C 0.57285 1.00385 0.93825 0.0
O28 O 0.58153 0.98393 0.94568 0.0
C29 C 0.55718 1.0026 0.12828 0.0
O30 O 0.57052 0.98623 0.12824 0.0
C31 C 0.48494 0.93796 0.0356 0.0
O32 O 0.48755 0.95567 0.06949 0.0
O33 O 0.5091 0.9426 0.01553 0.0
O34 O 0.56058 1.01047 0.97029 0.0
O35 O 0.59427 0.98178 0.04481 0.0
C36 C 0.61901 1.00672 0.03867 0.0
O37 O 0.61743 0.0301 0.02368 0.0
O38 O 0.54685 1.00631 0.09132 0.0
Mg39 Mg 0.50143 0.02359 0.531 0.0
C40 C 0.52468 0.98312 0.51202 0.0
O41 O 0.54787 1.0099 0.52194 0.0
C42 C 0.45013 0.02601 0.58379 0.0
O43 O 0.45695 1.01155 0.61383 0.0
C44 C 0.50554 0.04101 0.43643 0.0
O45 O 0.47619 0.02457 0.44415 0.0
O46 O 0.52365 0.04798 0.46963 0.0
O47 O 0.49799 0.97972 0.51317 0.0
O48 O 0.52864 0.03772 0.59267 0.0
C49 C 0.52269 0.01582 0.61909 0.0
O50 O 0.5021 0.98826 0.60694 0.0
O51 O 0.46285 0.0312 0.54525 0.0
Mg52 Mg 1.00636 0.56674 0.53328 0.0
C53 C 0.03636 0.62697 0.49697 0.0
O54 O 1.00692 0.61654 0.4988 0.0
C55 C 0.97904 0.50642 0.57515 0.0
O56 O 0.959 0.5154 0.57855 0.0
C57 C 0.97913 0.53342 0.44769 0.0
O58 O 0.98463 0.51383 0.46792 0.0
O59 O 0.98135 0.55568 0.47019 0.0
O60 O 0.04628 0.61002 0.5118 0.0
O61 O 0.99003 0.57978 0.59208 0.0
C62 C 1.01165 0.59556 0.61926 0.0
O63 O 0.03959 0.60442 0.60628 0.0
O64 O 1.00459 0.52443 0.55656 0.0
Mg65 Mg 0.54028 0.51434 0.5195 0.0
C66 C 0.47934 0.48331 0.48608 0.0
O67 O 0.48997 0.46461 0.48867 0.0
C68 C 0.604 0.54324 0.54798 0.0
O69 O 0.59415 0.51428 0.54146 0.0
C70 C 0.56448 0.52226 0.42814 0.0
O71 O 0.58229 0.54875 0.44682 0.0
O72 O 0.54756 0.50005 0.45361 0.0
O73 O 0.4965 0.51067 0.49937 0.0
O74 O 0.52715 0.48759 0.58127 0.0
C75 C 0.51154 0.49515 0.60608 0.0
O76 O 0.50339 0.51385 0.5895 0.0
O77 O 0.58539 0.55275 0.5405 0.0
Mg78 Mg 0.67262 0.85889 0.37127 0.0
C79 C 0.62149 0.86131 0.42127 0.0
O80 O 0.63334 0.85324 0.45388 0.0
C81 C 0.66424 0.80599 0.31319 0.0
O82 O 0.65923 0.82178 0.28308 0.0
C83 C 0.70734 0.85829 0.45462 0.0
O84 O 0.70415 0.83383 0.43476 0.0
O85 O 0.69784 0.874 0.43463 0.0
O86 O 0.63176 0.86321 0.38153 0.0
O87 O 0.69879 0.88702 0.31434 0.0
C88 C 0.6868 0.89686 0.28653 0.0
O89 O 0.65952 0.89248 0.29502 0.0
O90 O 0.66743 0.81443 0.35416 0.0
Mg91 Mg 0.21861 0.90311 0.3723 0.0
C92 C 0.22901 0.86759 0.29644 0.0
O93 O 0.21802 0.84521 0.32551 0.0
C94 C 0.23423 0.91642 0.46556 0.0
O95 O 0.2115 0.92112 0.4577 0.0
C96 C 0.22155 0.95527 0.31945 0.0
O97 O 0.21486 0.93516 0.28735 0.0
O98 O 0.22109 0.947 0.36002 0.0
O99 O 0.23401 0.89352 0.30901 0.0
O100 O 0.17697 0.86178 0.39405 0.0
C101 C 0.15889 0.83971 0.36908 0.0
O102 O 0.16069 0.84328 0.32526 0.0
O103 O 0.24578 0.90991 0.43234 0.0
Mg104 Mg 0.19413 0.32392 0.37012 0.0
C105 C 0.18844 0.32594 0.27571 0.0
O106 O 0.20032 0.3088 0.28441 0.0
C107 C 0.18 0.31601 0.464 0.0
O108 O 0.19427 0.30119 0.45447 0.0
C109 C 0.13654 0.26618 0.36534 0.0
O110 O 0.12995 0.28507 0.38556 0.0
O111 O 0.16436 0.27509 0.35656 0.0
O112 O 0.18506 0.34037 0.30808 0.0
O113 O 0.24365 0.34461 0.38084 0.0
C114 C 0.2578 0.37308 0.38891 0.0
O115 O 0.2423 0.38734 0.38814 0.0
O116 O 0.17646 0.33094 0.43276 0.0
Mg117 Mg 0.15927 0.35046 0.86539 0.0
C118 C 0.14107 0.39945 0.86052 0.0
O119 O 0.13289 0.38794 0.82 0.0
C120 C 0.20021 0.32406 0.85522 0.0
O121 O 0.17659 0.30343 0.87756 0.0
C122 C 0.12782 0.32853 0.95529 0.0
O123 O 0.11633 0.34565 0.94436 0.0
O124 O 0.14295 0.32335 0.92605 0.0
O125 O 0.15628 0.39109 0.88472 0.0
O126 O 0.13224 0.33306 0.80483 0.0
C127 C 0.12607 0.30803 0.7868 0.0
O128 O 0.13071 0.2888 0.80987 0.0
O129 O 0.20139 0.34926 0.84683 0.0
Mg130 Mg 0.71082 0.90104 0.87344 0.0
C131 C 0.71837 0.87394 0.7882 0.0
O132 O 0.69201 0.85214 0.80267 0.0
C133 C 0.7357 0.9351 0.96059 0.0
O134 O 0.72621 0.95209 0.94171 0.0
C135 C 0.70636 0.94898 0.81581 0.0
O136 O 0.70638 0.9318 0.78288 0.0
O137 O 0.70412 0.93962 0.85618 0.0
O138 O 0.73357 0.89708 0.81315 0.0
O139 O 0.67419 0.85441 0.89079 0.0
C140 C 0.68538 0.83811 0.90368 0.0
O141 O 0.71514 0.85067 0.90431 0.0
O142 O 0.7356 0.91398 0.93743 0.0
Mg143 Mg 0.21536 0.82201 0.8667 0.0
C144 C 0.24168 0.84937 0.77907 0.0
O145 O 0.24858 0.82793 0.78387 0.0
C146 C 0.21084 0.82026 0.96329 0.0
O147 O 0.21116 0.79576 0.95039 0.0
C148 C 0.1594 0.77681 0.80972 0.0
O149 O 0.17818 0.79105 0.77645 0.0
O150 O 0.16954 0.7829 0.84999 0.0
O151 O 0.22756 0.85383 0.81089 0.0
O152 O 0.25781 0.82123 0.88154 0.0
C153 C 0.27756 0.84792 0.8945 0.0
O154 O 0.27012 0.86912 0.89227 0.0
O155 O 0.21028 0.83763 0.93303 0.0
Mg156 Mg 0.37427 0.21719 0.71939 0.0
C157 C 0.34574 0.25556 0.74023 0.0
O158 O 0.37506 0.27505 0.7422 0.0
C159 C 0.36678 0.15239 0.71774 0.0
O160 O 0.36916 0.15571 0.7616 0.0
C161 C 0.41704 0.2201 0.79716 0.0
O162 O 0.42732 0.20796 0.7681 0.0
O163 O 0.3971 0.22671 0.78482 0.0
O164 O 0.33727 0.22812 0.72952 0.0
O165 O 0.40414 0.24449 0.66481 0.0
C166 C 0.39285 0.25163 0.63216 0.0
O167 O 0.3649 0.24652 0.63562 0.0
O168 O 0.36437 0.17203 0.69439 0.0
Mg169 Mg 0.87209 0.22275 0.68929 0.0
C170 C 0.87727 0.22076 0.59058 0.0
O171 O 0.8633 0.23628 0.59662 0.0
C172 C 0.89619 0.23779 0.78214 0.0
O173 O 0.88136 0.25259 0.77787 0.0
C174 C 0.90761 0.2892 0.67309 0.0
O175 O 0.92796 0.2806 0.67622 0.0
O176 O 0.87966 0.26918 0.67894 0.0
O177 O 0.88553 0.21195 0.62507 0.0
O178 O 0.82722 0.18169 0.702 0.0
C179 C 0.81636 0.17223 0.74123 0.0
O180 O 0.82911 0.19023 0.77582 0.0
O181 O 0.89869 0.22419 0.74785 0.0
Mg182 Mg 0.88845 0.69926 0.6843 0.0
C183 C 0.90865 0.7164 0.59041 0.0
O184 O 0.91424 0.69432 0.59827 0.0
C185 C 0.86602 0.72026 0.76629 0.0
O186 O 0.83956 0.7063 0.74591 0.0
C187 C 0.82472 0.67334 0.65102 0.0
O188 O 0.83799 0.70259 0.64321 0.0
O189 O 0.8405 0.66323 0.66994 0.0
O190 O 0.89964 0.7262 0.62293 0.0
O191 O 0.92733 0.69136 0.69477 0.0
C192 C 0.93634 0.68974 0.73423 0.0
O193 O 0.91907 0.6873 0.76868 0.0
O194 O 0.88926 0.72242 0.74661 0.0
Mg195 Mg 0.81596 0.67991 0.18564 0.0
C196 C 0.77292 0.70325 0.19073 0.0
O197 O 0.79572 0.72354 0.16665 0.0
C198 C 0.83136 0.62935 0.19686 0.0
O199 O 0.84315 0.64432 0.23436 0.0
C200 C 0.83392 0.70274 0.27913 0.0
O201 O 0.80413 0.68925 0.28009 0.0
O202 O 0.84689 0.70346 0.24206 0.0
O203 O 0.77331 0.67944 0.2027 0.0
O204 O 0.82911 0.70208 0.12025 0.0
C205 C 0.85545 0.71648 0.10277 0.0
O206 O 0.87926 0.72149 0.1266 0.0
O207 O 0.81609 0.63731 0.1722 0.0
Mg208 Mg 0.41052 0.23545 0.21966 0.0
C209 C 0.41411 0.20885 0.13045 0.0
O210 O 0.38523 0.19102 0.13995 0.0
C211 C 0.44314 0.26598 0.30606 0.0
O212 O 0.4466 0.2897 0.28381 0.0
C213 C 0.41965 0.29023 0.16468 0.0
O214 O 0.41235 0.27102 0.13116 0.0
O215 O 0.41638 0.28035 0.20482 0.0
O216 O 0.43133 0.22808 0.15975 0.0
O217 O 0.36548 0.19479 0.23088 0.0
C218 C 0.36743 0.17097 0.236 0.0
O219 O 0.39436 0.17344 0.23259 0.0
O220 O 0.43208 0.24067 0.28553 0.0
Mg221 Mg 0.8884 0.13825 0.18126 0.0
C222 C 0.91084 0.16283 0.08902 0.0
O223 O 0.91962 0.1427 0.09284 0.0
C224 C 0.87017 0.1425 0.27584 0.0
O225 O 0.85592 0.11298 0.26997 0.0
C226 C 0.83552 0.08634 0.12935 0.0
O227 O 0.85568 0.09743 0.09684 0.0
O228 O 0.84375 0.09704 0.16891 0.0
O229 O 0.89756 0.16709 0.12221 0.0
O230 O 0.93032 0.13665 0.19304 0.0
C231 C 0.936 0.12884 0.2308 0.0
O232 O 0.91395 0.11575 0.26034 0.0
O233 O 0.88452 0.15958 0.2428 0.0
H234 H 0.96433 0.48666 0.39003 0.0
H235 H 0.99697 0.5828 0.39326 0.0
H236 H 0.97586 0.48985 0.31016 0.0
H237 H 1.00966 0.58631 0.31353 0.0
H238 H 1.00661 0.57396 0.15821 0.0
H239 H 0.99325 0.57419 0.23703 0.0
H240 H 1.02088 0.5086 0.26684 0.0
H241 H 0.03288 0.50749 0.18796 0.0
C242 C 0.97357 0.50841 0.37347 0.0
C243 C 0.97981 0.53444 0.39798 0.0
C244 C 0.98063 0.51038 0.32778 0.0
C245 C 0.99455 0.53851 0.30556 0.0
C246 C 0.99902 0.56428 0.32947 0.0
C247 C 0.9916 0.56224 0.37519 0.0
C248 C 1.01036 0.56006 0.18183 0.0
C249 C 1.02054 0.5405 0.16684 0.0
C250 C 1.00261 0.5601 0.22704 0.0
C251 C 1.00522 0.54082 0.25822 0.0
C252 C 1.01753 0.52296 0.24358 0.0
C253 C 0.02487 0.52264 0.19843 0.0
H254 H 0.60213 0.55908 0.36311 0.0
H255 H 0.51049 0.4856 0.38435 0.0
H256 H 0.58804 0.56757 0.28878 0.0
H257 H 0.49607 0.49452 0.30981 0.0
H258 H 0.49483 0.50923 0.1524 0.0
H259 H 0.50248 0.49465 0.22736 0.0
H260 H 0.55782 0.58911 0.26306 0.0
H261 H 0.55065 0.60365 0.18841 0.0
C262 C 0.57908 0.54433 0.35149 0.0
C263 C 0.55747 0.52173 0.37968 0.0
C264 C 0.57084 0.54948 0.30911 0.0
C265 C 0.54066 0.53236 0.2938 0.0
C266 C 0.51946 0.50825 0.32063 0.0
C267 C 0.52779 0.50297 0.36322 0.0
C268 C 0.50795 0.52691 0.17665 0.0
C269 C 0.52263 0.55766 0.16397 0.0
C270 C 0.51247 0.5185 0.21961 0.0
C271 C 0.53169 0.54068 0.25071 0.0
C272 C 0.54384 0.57139 0.23937 0.0
C273 C 0.53939 0.57976 0.19663 0.0
H274 H 0.52578 0.03274 0.14412 0.0
H275 H 0.57973 1.00053 0.21029 0.0
H276 H 0.51695 0.04978 0.21666 0.0
H277 H 0.57044 0.01679 0.28228 0.0
H278 H 0.56386 0.06137 0.4066 0.0
H279 H 0.57963 0.0587 0.32992 0.0
H280 H 0.48784 0.02595 0.28351 0.0
H281 H 0.47235 0.02938 0.35956 0.0
C282 C 0.53592 0.02949 0.17401 0.0
C283 C 0.55327 0.01505 0.17136 0.0
C284 C 0.53078 0.03914 0.21563 0.0
C285 C 0.54296 0.03467 0.25548 0.0
C286 C 0.56109 0.02111 0.2524 0.0
C287 C 0.56616 1.01146 0.21099 0.0
C288 C 0.54724 0.05433 0.37984 0.0
C289 C 0.51676 0.04527 0.38938 0.0
C290 C 0.5562 0.05252 0.3359 0.0
C291 C 0.53491 0.04163 0.30051 0.0
C292 C 0.50493 0.03459 0.30968 0.0
C293 C 0.496 0.0364 0.35351 0.0
H294 H 0.05344 0.62107 0.68613 0.0
H295 H 0.95675 0.57627 0.66146 0.0
H296 H 0.04435 0.61541 0.76609 0.0
H297 H 0.9475 0.5722 0.74234 0.0
H298 H 0.02476 0.60439 0.91172 0.0
H299 H 0.0294 0.62388 0.83542 0.0
H300 H 0.94863 0.54053 0.79687 0.0
H301 H 0.9432 0.52218 0.87299 0.0
C302 C 0.03017 0.61075 0.69783 0.0
C303 C 1.00577 0.59839 0.66731 0.0
C304 C 0.02492 0.60774 0.74406 0.0
C305 C 0.9951 0.5927 0.7611 0.0
C306 C 0.97076 0.58302 0.73053 0.0
C307 C 0.97603 0.5856 0.68409 0.0
C308 C 1.0078 0.59055 0.88696 0.0
C309 C 0.98382 0.56164 0.89827 0.0
C310 C 1.01048 0.60162 0.84312 0.0
C311 C 0.98957 0.58374 0.80947 0.0
C312 C 0.96494 0.55534 0.82163 0.0
C313 C 0.96198 0.54458 0.86545 0.0
H314 H 0.54009 0.47329 0.66029 0.0
H315 H 0.47464 0.50366 0.66277 0.0
H316 H 0.54174 0.47471 0.74245 0.0
H317 H 0.47722 0.50638 0.74399 0.0
H318 H 0.48157 0.50434 0.89425 0.0
H319 H 0.46965 0.48556 0.81687 0.0
H320 H 0.56459 0.51564 0.79368 0.0
H321 H 0.5761 0.53319 0.87054 0.0
C322 C 0.52558 0.47962 0.67833 0.0
C323 C 0.50766 0.48885 0.65498 0.0
C324 C 0.52675 0.48079 0.72543 0.0
C325 C 0.51014 0.49136 0.75002 0.0
C326 C 0.49029 0.49805 0.72655 0.0
C327 C 0.48899 0.4967 0.6797 0.0
C328 C 0.49976 0.50666 0.87261 0.0
C329 C 0.5298 0.52049 0.88852 0.0
C330 C 0.49298 0.49593 0.82823 0.0
C331 C 0.51614 0.49898 0.7988 0.0
C332 C 0.54599 0.51222 0.81533 0.0
C333 C 0.55268 0.5227 0.85951 0.0
H334 H 0.54489 0.034 0.90496 0.0
H335 H 0.60246 0.99794 0.86617 0.0
H336 H 0.53901 0.04299 0.82574 0.0
H337 H 0.5968 1.00716 0.78754 0.0
H338 H 0.53186 0.97544 0.66467 0.0
H339 H 0.55013 0.97925 0.74108 0.0
H340 H 0.56429 0.0699 0.7517 0.0
H341 H 0.54591 0.06606 0.6741 0.0
C342 C 0.55687 0.02868 0.8797 0.0
C343 C 0.57368 1.01472 0.89181 0.0
C344 C 0.5536 0.03395 0.83435 0.0
C345 C 0.56708 0.02534 0.80041 0.0
C346 C 0.58571 1.01353 0.81289 0.0
C347 C 0.58896 1.00828 0.858 0.0
C348 C 0.53925 0.99638 0.683 0.0
C349 C 0.5374 0.02043 0.66349 0.0
C350 C 0.54993 0.99864 0.72674 0.0
C351 C 0.55873 0.02491 0.75243 0.0
C352 C 0.55759 0.04936 0.73268 0.0
C353 C 0.5473 0.04726 0.6883 0.0
H354 H 0.6995 0.82481 0.73412 0.0
H355 H 0.75451 0.92242 0.73383 0.0
H356 H 0.70372 0.82406 0.65279 0.0
H357 H 0.75889 0.9217 0.65182 0.0
H358 H 0.71154 0.90372 0.50922 0.0
H359 H 0.72175 0.90978 0.58984 0.0
H360 H 0.7372 0.83391 0.58816 0.0
H361 H 0.72669 0.82761 0.50776 0.0
C362 C 0.71312 0.8461 0.71672 0.0
C363 C 0.72656 0.87366 0.74042 0.0
C364 C 0.71565 0.84567 0.67001 0.0
C365 C 0.73148 0.87284 0.64566 0.0
C366 C 0.74629 0.90039 0.66956 0.0
C367 C 0.74404 0.90079 0.71655 0.0
C368 C 0.71763 0.88865 0.52586 0.0
C369 C 0.71791 0.86494 0.50202 0.0
C370 C 0.72366 0.89224 0.5721 0.0
C371 C 0.73003 0.87216 0.59558 0.0
C372 C 0.73193 0.8495 0.57123 0.0
C373 C 0.72599 0.84596 0.52505 0.0
H374 H 0.25874 0.83485 0.70044 0.0
H375 H 0.23656 0.89912 0.7582 0.0
H376 H 0.26217 0.8562 0.62662 0.0
H377 H 0.24156 0.92178 0.68421 0.0
H378 H 0.20731 0.92163 0.5414 0.0
H379 H 0.21399 0.91012 0.61777 0.0
H380 H 0.28668 0.89519 0.57441 0.0
H381 H 0.27873 0.90529 0.49682 0.0
C382 C 0.2552 0.85402 0.69753 0.0
C383 C 0.24702 0.86505 0.73523 0.0
C384 C 0.25746 0.86652 0.655 0.0
C385 C 0.25201 0.89073 0.64897 0.0
C386 C 0.24528 0.90274 0.68719 0.0
C387 C 0.24258 0.88989 0.72975 0.0
C388 C 0.225 0.91623 0.54804 0.0
C389 C 0.24223 0.91401 0.51275 0.0
C390 C 0.22904 0.90985 0.59223 0.0
C391 C 0.25074 0.90142 0.60267 0.0
C392 C 0.26925 0.90092 0.56766 0.0
C393 C 0.26492 0.90697 0.52316 0.0
H394 H 0.18781 0.28856 0.53652 0.0
H395 H 0.14305 0.33743 0.49452 0.0
H396 H 0.16706 0.28334 0.61128 0.0
H397 H 0.12143 0.33153 0.57003 0.0
H398 H 0.13024 0.35022 0.72614 0.0
H399 H 0.13808 0.35002 0.64559 0.0
H400 H 0.12121 0.2583 0.65425 0.0
H401 H 0.11448 0.2589 0.73526 0.0
C402 C 0.17329 0.29802 0.54314 0.0
C403 C 0.16718 0.31352 0.50953 0.0
C404 C 0.16104 0.29469 0.58605 0.0
C405 C 0.14216 0.30661 0.59665 0.0
C406 C 0.13594 0.32212 0.56302 0.0
C407 C 0.14833 0.32554 0.51982 0.0
C408 C 0.12748 0.32971 0.71079 0.0
C409 C 0.12243 0.30479 0.73735 0.0
C410 C 0.13189 0.32959 0.66442 0.0
C411 C 0.13106 0.30443 0.64358 0.0
C412 C 0.12292 0.2784 0.6695 0.0
C413 C 0.11879 0.27862 0.71591 0.0
H414 H 0.73566 0.8961 0.24841 0.0
H415 H 0.67019 0.92479 0.22387 0.0
H416 H 0.7549 0.9105 0.17173 0.0
H417 H 0.68912 0.93883 0.14749 0.0
H418 H 0.7369 0.97709 0.01894 0.0
H419 H 0.73152 0.97307 0.10037 0.0
H420 H 0.73532 0.8904 0.09649 0.0
H421 H 0.7412 0.89465 0.01498 0.0
C422 C 0.72568 0.90591 0.22694 0.0
C423 C 0.70126 0.90915 0.24226 0.0
C424 C 0.73659 0.91397 0.18289 0.0
C425 C 0.72352 0.92572 0.15331 0.0
C426 C 0.70001 0.93019 0.1694 0.0
C427 C 0.68899 0.92194 0.21322 0.0
C428 C 0.7373 0.9584 0.03548 0.0
C429 C 0.73914 0.93599 0.01026 0.0
C430 C 0.734 0.95601 0.0822 0.0
C431 C 0.73245 0.93115 0.10496 0.0
C432 C 0.73655 0.90992 0.08013 0.0
C433 C 0.73988 0.91233 0.03329 0.0
H434 H 0.22301 0.79229 0.03084 0.0
H435 H 0.20657 0.86622 0.00574 0.0
H436 H 0.23 0.80487 0.10998 0.0
H437 H 0.21244 0.87826 0.08618 0.0
H438 H 0.25175 0.90864 0.2274 0.0
H439 H 0.24816 0.8981 0.14691 0.0
H440 H 0.20256 0.80207 0.17491 0.0
H441 H 0.20715 0.81266 0.25503 0.0
C442 C 0.22051 0.81109 0.04229 0.0
C443 C 0.21399 0.82811 0.01184 0.0
C444 C 0.2244 0.81824 0.08797 0.0
C445 C 0.22157 0.84245 0.10487 0.0
C446 C 0.21514 0.85964 0.0744 0.0
C447 C 0.2115 0.85262 0.02832 0.0
C448 C 0.24136 0.88529 0.21633 0.0
C449 C 0.2299 0.8615 0.24778 0.0
C450 C 0.23897 0.87923 0.1701 0.0
C451 C 0.22492 0.84921 0.15412 0.0
C452 C 0.21396 0.8255 0.18573 0.0
C453 C 0.21656 0.83157 0.23187 0.0
H454 H 0.1033 0.3414 0.02838 0.0
H455 H 0.15844 0.30228 0.99093 0.0
H456 H 0.1145 0.33885 0.10748 0.0
H457 H 0.17049 0.30079 0.06926 0.0
H458 H 0.17225 0.2814 0.21417 0.0
H459 H 0.15224 0.27799 0.13929 0.0
H460 H 0.15645 0.36404 0.15883 0.0
H461 H 0.17539 0.36671 0.23542 0.0
C462 C 0.11746 0.33187 0.03701 0.0
C463 C 0.13003 0.32211 0.00325 0.0
C464 C 0.12418 0.33076 0.08235 0.0
C465 C 0.14366 0.31992 0.09489 0.0
C466 C 0.1551 0.30895 0.06112 0.0
C467 C 0.14823 0.30986 0.01598 0.0
C468 C 0.16898 0.29968 0.20258 0.0
C469 C 0.17591 0.32462 0.23043 0.0
C470 C 0.15751 0.29773 0.15947 0.0
C471 C 0.1531 0.32091 0.14256 0.0
C472 C 0.15931 0.3456 0.17084 0.0
C473 C 0.17041 0.34733 0.21456 0.0
H474 H 0.45617 0.25916 0.08488 0.0
H475 H 0.39312 0.16344 0.06866 0.0
H476 H 0.46327 0.26433 0.00317 0.0
H477 H 0.40091 0.16849 0.98733 0.0
H478 H 0.43686 0.18673 0.84262 0.0
H479 H 0.44311 0.18506 0.92403 0.0
H480 H 0.42144 0.25605 0.94223 0.0
H481 H 0.41446 0.25727 0.86108 0.0
C482 C 0.44464 0.23907 0.06404 0.0
C483 C 0.42404 0.21088 0.08313 0.0
C484 C 0.44854 0.24209 0.0173 0.0
C485 C 0.43254 0.21683 0.98896 0.0
C486 C 0.41368 0.18829 0.00836 0.0
C487 C 0.40921 0.18541 0.0549 0.0
C488 C 0.43398 0.20236 0.86391 0.0
C489 C 0.42506 0.22207 0.84545 0.0
C490 C 0.43745 0.20131 0.91048 0.0
C491 C 0.43281 0.22045 0.93938 0.0
C492 C 0.42545 0.24124 0.92071 0.0
C493 C 0.42131 0.24183 0.87429 0.0
H494 H 0.8759 0.24649 0.86231 0.0
H495 H 0.93377 0.21569 0.80511 0.0
H496 H 0.88263 0.23111 0.93622 0.0
H497 H 0.94228 0.20191 0.87997 0.0
H498 H 0.918 0.14389 0.00672 0.0
H499 H 0.9182 0.16509 0.93382 0.0
H500 H 0.91158 0.23756 0.99881 0.0
H501 H 0.90941 0.21491 0.07183 0.0
C502 C 0.89075 0.2371 0.86569 0.0
C503 C 0.90415 0.23215 0.82768 0.0
C504 C 0.89481 0.22839 0.90842 0.0
C505 C 0.91291 0.21498 0.91463 0.0
C506 C 0.92754 0.21142 0.87669 0.0
C507 C 0.92295 0.2196 0.8337 0.0
C508 C 0.91677 0.16447 0.00546 0.0
C509 C 0.91348 0.17761 0.04508 0.0
C510 C 0.91715 0.17687 0.96346 0.0
C511 C 0.91486 0.20317 0.95984 0.0
C512 C 0.91269 0.21693 0.99982 0.0
C513 C 0.91166 0.2041 0.04186 0.0
H514 H 0.81004 0.69691 0.04069 0.0
H515 H 0.90748 0.75231 0.05441 0.0
H516 H 0.81461 0.70345 0.96002 0.0
H517 H 0.9121 0.76034 0.97324 0.0
H518 H 0.91087 0.73042 0.82622 0.0
H519 H 0.90954 0.73451 0.90736 0.0
H520 H 0.82417 0.73347 0.89718 0.0
H521 H 0.82479 0.72757 0.81596 0.0
C522 C 0.83247 0.7111 0.02654 0.0
C523 C 0.85843 0.72387 0.0541 0.0
C524 C 0.83511 0.71509 0.98 0.0
C525 C 0.86377 0.73241 0.95955 0.0
C526 C 0.88967 0.74634 0.98744 0.0
C527 C 0.88704 0.74194 0.03411 0.0
C528 C 0.89201 0.7315 0.84122 0.0
C529 C 0.86773 0.72827 0.81461 0.0
C530 C 0.89131 0.73403 0.88799 0.0
C531 C 0.86652 0.73391 0.90938 0.0
C532 C 0.84324 0.73276 0.88228 0.0
C533 C 0.84369 0.72967 0.83556 0.0
H534 H 0.43274 0.22042 0.36543 0.0
H535 H 0.45773 0.3148 0.35995 0.0
H536 H 0.427 0.22103 0.44707 0.0
H537 H 0.45165 0.31514 0.44111 0.0
H538 H 0.38362 0.28151 0.56385 0.0
H539 H 0.40264 0.28803 0.48694 0.0
H540 H 0.45459 0.2453 0.52218 0.0
H541 H 0.43589 0.23917 0.59964 0.0
C542 C 0.43767 0.24144 0.38163 0.0
C543 C 0.44538 0.26745 0.35594 0.0
C544 C 0.43442 0.24179 0.42842 0.0
C545 C 0.43852 0.26805 0.45038 0.0
C546 C 0.44798 0.29448 0.42505 0.0
C547 C 0.45157 0.29425 0.37848 0.0
C548 C 0.39961 0.27409 0.55547 0.0
C549 C 0.40828 0.2599 0.58785 0.0
C550 C 0.41056 0.27787 0.51143 0.0
C551 C 0.43003 0.26707 0.49849 0.0
C552 C 0.4395 0.25371 0.53117 0.0
C553 C 0.42899 0.25046 0.57556 0.0
H554 H 0.89724 0.20236 0.30101 0.0
H555 H 0.84798 0.11142 0.35432 0.0
H556 H 0.9023 0.22278 0.37698 0.0
H557 H 0.85289 0.13182 0.42987 0.0
H558 H 0.89182 0.17781 0.56452 0.0
H559 H 0.89196 0.16007 0.48799 0.0
H560 H 0.86951 0.22537 0.43587 0.0
H561 H 0.86962 0.24318 0.51185 0.0
C562 C 0.88736 0.18673 0.32883 0.0
C563 C 0.87211 0.15525 0.32147 0.0
C564 C 0.89026 0.19843 0.37237 0.0
C565 C 0.87817 0.17893 0.40956 0.0
C566 C 0.86289 0.14748 0.40211 0.0
C567 C 0.85981 0.13579 0.35864 0.0
C568 C 0.88731 0.18861 0.53666 0.0
C569 C 0.88056 0.21179 0.54435 0.0
C570 C 0.88715 0.17831 0.49286 0.0
C571 C 0.88054 0.19118 0.45582 0.0
C572 C 0.87491 0.2151 0.46351 0.0
C573 C 0.87482 0.2252 0.50719 0.0
H574 H 0.88682 0.75251 0.55908 0.0
H575 H 0.92592 0.69876 0.51465 0.0
H576 H 0.87503 0.75773 0.48123 0.0
H577 H 0.91336 0.70316 0.43737 0.0
H578 H 0.89367 0.71981 0.29689 0.0
H579 H 0.91869 0.73196 0.37049 0.0
H580 H 0.83703 0.72226 0.4313 0.0
H581 H 0.81263 0.71101 0.35843 0.0
C582 C 0.89343 0.74229 0.5327 0.0
C583 C 0.9069 0.72483 0.54323 0.0
C584 C 0.88646 0.74508 0.48805 0.0
C585 C 0.89274 0.73042 0.45295 0.0
C586 C 0.9083 0.71491 0.46329 0.0
C587 C 0.91532 0.7122 0.50783 0.0
C588 C 0.88137 0.72091 0.32591 0.0
C589 C 0.85106 0.71412 0.32183 0.0
C590 C 0.89562 0.72769 0.36814 0.0
C591 C 0.87987 0.72796 0.40704 0.0
C592 C 0.85011 0.72271 0.40226 0.0
C593 C 0.83594 0.71591 0.36032 0.0
H594 H 1.01244 0.46201 0.89135 0.0
H595 H 0.05707 0.48565 0.02034 0.0
H596 H 0.0441 0.44134 0.86791 0.0
H597 H 0.09023 0.46635 0.99617 0.0
H598 H 0.12902 0.40552 0.94933 0.0
H599 H 0.09806 0.42621 0.97793 0.0
H600 H 0.09195 0.45473 0.84353 0.0
H601 H 0.12119 0.43251 0.81508 0.0
C602 C 0.0291 0.46281 0.9148 0.0
C603 C 0.03211 0.47555 0.95776 0.0
C604 C 0.04771 0.45127 0.90111 0.0
C605 C 0.07055 0.4526 0.92953 0.0
C606 C 0.07298 0.46462 0.97314 0.0
C607 C 0.0539 0.47576 0.98713 0.0
C608 C 0.12134 0.41654 0.92603 0.0
C609 C 0.12746 0.41709 0.87977 0.0
C610 C 0.10349 0.42849 0.94246 0.0
C611 C 0.09162 0.44174 0.91315 0.0
C612 C 0.09947 0.44382 0.86727 0.0
C613 C 0.11676 0.43143 0.85085 0.0
H614 H 0.70491 0.79833 0.92126 0.0
H615 H 0.62295 0.80379 0.91644 0.0
H616 H 0.6757 0.74558 0.94297 0.0
H617 H 0.59341 0.75065 0.93986 0.0
H618 H 0.54622 0.64684 0.9359 0.0
H619 H 0.57479 0.70014 0.91608 0.0
H620 H 0.64863 0.71155 1.00114 0.0
H621 H 0.62016 0.65761 0.01985 0.0
C622 C 0.68056 0.78835 0.92516 0.0
C623 C 0.66637 0.80555 0.91697 0.0
C624 C 0.66374 0.75792 0.9381 0.0
C625 C 0.63203 0.74349 0.94367 0.0
C626 C 0.61772 0.76069 0.9355 0.0
C627 C 0.63466 0.79129 0.92221 0.0
C628 C 0.56858 0.66063 0.95047 0.0
C629 C 0.58086 0.64769 0.97944 0.0
C630 C 0.58494 0.69147 0.93931 0.0
C631 C 0.61417 0.71058 0.95689 0.0
C632 C 0.62642 0.69766 0.98622 0.0
C633 C 0.61004 0.66665 0.99721 0.0
H634 H 0.31064 0.89499 0.95015 0.0
H635 H 0.31179 0.81904 0.88777 0.0
H636 H 0.35938 0.91081 0.98453 0.0
H637 H 0.36177 0.8354 0.92284 0.0
H638 H 0.469 0.90936 0.95263 0.0
H639 H 0.41786 0.88238 0.91932 0.0
H640 H 0.37994 0.89179 0.044 0.0
H641 H 0.43048 0.91866 0.07695 0.0
C642 C 0.32129 0.88152 0.94371 0.0
C643 C 0.30714 0.85569 0.91596 0.0
C644 C 0.34931 0.89057 0.96387 0.0
C645 C 0.36451 0.87431 0.95686 0.0
C646 C 0.35064 0.84843 0.92892 0.0
C647 C 0.32199 0.83898 0.90904 0.0
C648 C 0.44965 0.90503 0.97322 0.0
C649 C 0.454 0.91661 0.01736 0.0
C650 C 0.42032 0.88951 0.95412 0.0
C651 C 0.39481 0.88532 0.97874 0.0
C652 C 0.39909 0.89507 0.02378 0.0
C653 C 0.42817 0.91047 0.04274 0.0
H654 H 0.41113 1.01059 0.65499 0.0
H655 H 0.44781 0.07375 0.54483 0.0
H656 H 0.38617 0.03719 0.68404 0.0
H657 H 0.42403 0.10143 0.57495 0.0
H658 H 0.36619 0.13975 0.62724 0.0
H659 H 0.38145 0.10618 0.59165 0.0
H660 H 0.39809 0.08112 0.72271 0.0
H661 H 0.38173 0.11344 0.75785 0.0
C662 C 0.41374 0.03012 0.63676 0.0
C663 C 0.43164 0.04003 0.59761 0.0
C664 C 0.39963 0.04567 0.65374 0.0
C665 C 0.40335 0.07204 0.63259 0.0
C666 C 0.42025 0.08118 0.59225 0.0
C667 C 0.43404 0.06531 0.57489 0.0
C668 C 0.37259 0.12663 0.64844 0.0
C669 C 0.37258 0.12938 0.69556 0.0
C670 C 0.3817 0.10754 0.62796 0.0
C671 C 0.39127 0.09075 0.65398 0.0
C672 C 0.39044 0.09302 0.70115 0.0
C673 C 0.38113 0.11185 0.72152 0.0
H674 H 0.87285 0.3149 0.64989 0.0
H675 H 0.96586 0.33649 0.66739 0.0
H676 H 0.89075 0.36701 0.62584 0.0
H677 H 0.9837 0.38847 0.64471 0.0
H678 H 1.00757 0.47296 0.55987 0.0
H679 H 0.9901 0.42066 0.58311 0.0
H680 H 0.91347 0.41767 0.65099 0.0
H681 H 0.93037 0.46908 0.62695 0.0
C682 C 0.89707 0.33078 0.64909 0.0
C683 C 0.9178 0.32131 0.66067 0.0
C684 C 0.90745 0.36081 0.63538 0.0
C685 C 0.93886 0.38229 0.63308 0.0
C686 C 0.95945 0.37272 0.64512 0.0
C687 C 0.9491 0.34278 0.65859 0.0
C688 C 0.98711 0.46114 0.57994 0.0
C689 C 0.97042 0.47536 0.59128 0.0
C690 C 0.97703 0.43109 0.59343 0.0
C691 C 0.95007 0.41451 0.6188 0.0
C692 C 0.93386 0.42914 0.63071 0.0
C693 C 0.9438 0.45893 0.61713 0.0
H694 H 0.78964 0.69 0.60363 0.0
H695 H 0.78543 0.61216 0.66767 0.0
H696 H 0.73705 0.65956 0.58048 0.0
H697 H 0.73197 0.58151 0.64545 0.0
H698 H 0.64782 0.52786 0.55745 0.0
H699 H 0.69972 0.55842 0.58339 0.0
H700 H 0.68549 0.63438 0.60241 0.0
H701 H 0.63321 0.60363 0.57486 0.0
C702 C 0.77744 0.66633 0.61317 0.0
C703 C 0.79209 0.65364 0.63759 0.0
C704 C 0.74693 0.64882 0.60007 0.0
C705 C 0.72976 0.61789 0.61101 0.0
C706 C 0.74435 0.60513 0.63571 0.0
C707 C 0.77508 0.62273 0.64872 0.0
C708 C 0.65559 0.5511 0.5671 0.0
C709 C 0.63605 0.56317 0.56384 0.0
C710 C 0.68554 0.56866 0.5825 0.0
C711 C 0.69721 0.59903 0.59549 0.0
C712 C 0.67767 0.61122 0.59229 0.0
C713 C 0.64754 0.59356 0.5766 0.0
H714 H 0.85763 0.60302 0.24489 0.0
H715 H 0.82679 0.6066 0.11115 0.0
H716 H 0.8813 0.57504 0.2163 0.0
H717 H 0.85117 0.57899 0.08224 0.0
H718 H 0.89253 0.51909 0.04539 0.0
H719 H 0.85655 0.53257 0.07943 0.0
H720 H 0.92667 0.59279 0.17156 0.0
H721 H 0.96182 0.57951 0.13796 0.0
C722 C 0.85547 0.59745 0.20943 0.0
C723 C 0.84059 0.60747 0.18031 0.0
C724 C 0.8692 0.58146 0.19295 0.0
C725 C 0.86868 0.57516 0.14676 0.0
C726 C 0.85196 0.5833 0.11801 0.0
C727 C 0.83804 0.59924 0.13461 0.0
C728 C 0.89979 0.53455 0.0737 0.0
C729 C 0.92993 0.54812 0.08919 0.0
C730 C 0.87936 0.54254 0.09289 0.0
C731 C 0.88861 0.56378 0.1284 0.0
C732 C 0.91841 0.57605 0.14488 0.0
C733 C 0.93871 0.56849 0.12544 0.0
H734 H 0.45975 0.33539 0.22054 0.0
H735 H 0.42155 0.31987 0.0872 0.0
H736 H 0.49514 0.38788 0.20156 0.0
H737 H 0.45554 0.37293 0.06875 0.0
H738 H 0.53659 0.46178 0.0296 0.0
H739 H 0.5045 0.40878 0.05036 0.0
H740 H 0.50438 0.43568 0.18834 0.0
H741 H 0.53827 0.48806 0.168 0.0
C742 C 0.45834 0.34341 0.18747 0.0
C743 C 0.43769 0.32335 0.15546 0.0
C744 C 0.47874 0.37372 0.17643 0.0
C745 C 0.47873 0.38511 0.13327 0.0
C746 C 0.45712 0.36516 0.1019 0.0
C747 C 0.43717 0.33469 0.11268 0.0
C748 C 0.53025 0.45627 0.06454 0.0
C749 C 0.5399 0.47938 0.09698 0.0
C750 C 0.51131 0.42578 0.07646 0.0
C751 C 0.50097 0.4175 0.12106 0.0
C752 C 0.51177 0.44066 0.15373 0.0
C753 C 0.53121 0.471 0.14196 0.0
H754 H 0.78529 0.06439 0.18498 0.0
H755 H 0.81132 0.06214 0.04737 0.0
H756 H 0.73172 0.0386 0.16219 0.0
H757 H 0.75815 0.0367 0.02492 0.0
H758 H 0.67258 0.04554 0.99913 0.0
H759 H 0.72354 0.05815 0.02163 0.0
H760 H 0.68607 0.991 0.12676 0.0
H761 H 0.63437 0.97802 0.10361 0.0
C762 C 0.77963 0.05787 0.15011 0.0
C763 C 0.80279 0.06584 0.11796 0.0
C764 C 0.74888 0.04299 0.13708 0.0
C765 C 0.74067 0.036 0.09159 0.0
C766 C 0.7637 0.0422 0.06009 0.0
C767 C 0.79426 0.05677 0.07309 0.0
C768 C 0.67508 0.03306 0.02662 0.0
C769 C 0.64939 1.01078 0.04955 0.0
C770 C 0.70436 0.04022 0.03942 0.0
C771 C 0.70897 0.02564 0.07607 0.0
C772 C 0.68328 1.00274 0.09852 0.0
C773 C 0.65371 0.99514 0.08506 0.0
H774 H 0.56487 0.97183 0.55366 0.0
H775 H 0.50017 0.93974 0.44484 0.0
H776 H 0.58282 0.93776 0.53056 0.0
H777 H 0.51853 0.90533 0.42095 0.0
H778 H 0.59799 0.88795 0.36563 0.0
H779 H 0.5686 0.91205 0.388 0.0
H780 H 0.56682 0.88339 0.52482 0.0
H781 H 0.59602 0.85956 0.50282 0.0
C782 C 0.55405 0.95697 0.52519 0.0
C783 C 0.53093 0.95829 0.50133 0.0
C784 C 0.56433 0.93736 0.51193 0.0
C785 C 0.55216 0.91872 0.47385 0.0
C786 C 0.52845 0.91945 0.45036 0.0
C787 C 0.51769 0.93885 0.46429 0.0
C788 C 0.59084 0.88631 0.40031 0.0
C789 C 0.59977 0.87206 0.43245 0.0
C790 C 0.57387 0.90005 0.4131 0.0
C791 C 0.56562 0.89999 0.45835 0.0
C792 C 0.57316 0.8843 0.48983 0.0
C793 C 0.5899 0.87053 0.4771 0.0
H794 H 1.01868 0.65709 0.44134 0.0
H795 H 0.09844 0.66631 0.50745 0.0
H796 H 0.04826 0.70795 0.41149 0.0
H797 H 0.12852 0.718 0.47696 0.0
H798 H 0.15992 0.82095 0.45537 0.0
H799 H 0.13233 0.76935 0.48526 0.0
H800 H 0.08866 0.73661 0.35669 0.0
H801 H 0.11607 0.78802 0.32685 0.0
C802 C 0.04268 0.66995 0.44939 0.0
C803 C 0.05614 0.65752 0.47696 0.0
C804 C 0.05971 0.69918 0.43194 0.0
C805 C 0.09081 0.71719 0.44169 0.0
C806 C 0.10453 0.70481 0.46905 0.0
C807 C 0.08741 0.67514 0.48622 0.0
C808 C 0.1442 0.8028 0.43356 0.0
C809 C 0.14006 0.80881 0.3887 0.0
C810 C 0.12867 0.77313 0.4506 0.0
C811 C 0.10834 0.74873 0.4234 0.0
C812 C 0.10396 0.75483 0.37875 0.0
C813 C 0.11967 0.78439 0.36161 0.0
H814 H 0.29637 0.35091 0.40539 0.0
H815 H 0.29407 0.4343 0.40021 0.0
H816 H 0.3497 0.37931 0.42786 0.0
H817 H 0.34751 0.4628 0.42129 0.0
H818 H 0.43672 0.50069 0.50486 0.0
H819 H 0.38325 0.4746 0.48088 0.0
H820 H 0.39879 0.4129 0.40071 0.0
H821 H 0.45123 0.43815 0.42556 0.0
C822 C 0.30729 0.37532 0.40857 0.0
C823 C 0.2908 0.3902 0.40082 0.0
C824 C 0.33802 0.39175 0.4213 0.0
C825 C 0.35326 0.42359 0.42635 0.0
C826 C 0.33668 0.43839 0.41844 0.0
C827 C 0.30595 0.42196 0.40594 0.0
C828 C 0.42868 0.48181 0.48167 0.0
C829 C 0.44818 0.47136 0.4675 0.0
C830 C 0.398 0.46675 0.46789 0.0
C831 C 0.38628 0.44109 0.43936 0.0
C832 C 0.40643 0.43182 0.42371 0.0
C833 C 0.43674 0.44658 0.43771 0.0
H834 H 0.73648 0.68215 0.26636 0.0
H835 H 0.75761 0.74197 0.15284 0.0
H836 H 0.70422 0.70099 0.29755 0.0
H837 H 0.72604 0.76079 0.18369 0.0
H838 H 0.65499 0.77991 0.23017 0.0
H839 H 0.67498 0.74881 0.20079 0.0
H840 H 0.71175 0.74875 0.33146 0.0
H841 H 0.6911 0.77949 0.36123 0.0
C842 C 0.73376 0.69882 0.24763 0.0
C843 C 0.74962 0.71053 0.20708 0.0
C844 C 0.71553 0.70985 0.2657 0.0
C845 C 0.71245 0.73248 0.24322 0.0
C846 C 0.72739 0.74311 0.20177 0.0
C847 C 0.74572 0.73239 0.18411 0.0
C848 C 0.66685 0.77284 0.25295 0.0
C849 C 0.6717 0.78257 0.298 0.0
C850 C 0.67849 0.7551 0.23599 0.0
C851 C 0.69553 0.74666 0.26346 0.0
C852 C 0.69868 0.75468 0.30929 0.0
C853 C 0.68688 0.77241 0.32638 0.0
H854 H 0.35859 0.11732 0.20524 0.0
H855 H 0.31644 0.1558 0.28747 0.0
H856 H 0.31844 0.0665 0.22497 0.0
H857 H 0.27609 0.10428 0.30831 0.0
H858 H 0.2452 1.00531 0.37557 0.0
H859 H 0.27588 0.05873 0.35356 0.0
H860 H 0.26078 0.03255 0.21389 0.0
H861 H 0.23007 0.97958 0.23544 0.0
C862 C 0.34048 0.11488 0.22723 0.0
C863 C 0.34062 0.14058 0.24463 0.0
C864 C 0.3174 0.08571 0.23845 0.0
C865 C 0.29404 0.0813 0.26819 0.0
C866 C 0.29383 0.10698 0.28535 0.0
C867 C 0.31673 0.1364 0.27316 0.0
C868 C 0.24781 1.011 0.34018 0.0
C869 C 0.23537 0.98796 0.30735 0.0
C870 C 0.26534 0.04164 0.3276 0.0
C871 C 0.27103 0.04983 0.28196 0.0
C872 C 0.2571 0.02696 0.24931 0.0
C873 C 0.2394 0.99653 0.26178 0.0
H874 H 0.13286 0.23827 0.28439 0.0
H875 H 0.0819 0.23106 0.4043 0.0
H876 H 0.08618 0.19858 0.24855 0.0
H877 H 0.03568 0.19199 0.36905 0.0
H878 H 0.95584 0.11503 0.30768 0.0
H879 H 1.00693 0.14149 0.33922 0.0
H880 H 0.03987 0.1967 0.21986 0.0
H881 H 0.98881 0.16972 0.18782 0.0
C882 C 0.11193 0.22748 0.30359 0.0
C883 C 0.11103 0.23761 0.34725 0.0
C884 C 0.08511 0.20504 0.28291 0.0
C885 C 0.05702 0.19207 0.30576 0.0
C886 C 0.05679 0.20101 0.35046 0.0
C887 C 0.08334 0.22354 0.37076 0.0
C888 C 0.97407 0.13233 0.28764 0.0
C889 C 0.96802 0.14047 0.24541 0.0
C890 C 1.00341 0.14765 0.30588 0.0
C891 C 0.02753 0.17167 0.28252 0.0
C892 C 1.02196 0.17826 0.23881 0.0
C893 C 0.99257 0.16282 0.22045 0.0
H894 H 0.35842 0.31325 0.75923 0.0
H895 H 0.28319 0.22153 0.75021 0.0
H896 H 0.32418 0.33049 0.7849 0.0
H897 H 0.24861 0.23895 0.77526 0.0
H898 H 0.20244 0.27279 0.87248 0.0
H899 H 0.23639 0.25679 0.8421 0.0
H900 H 0.28345 0.33992 0.7663 0.0
H901 H 0.24927 0.3563 0.79756 0.0
C902 C 0.33447 0.29669 0.76229 0.0
C903 C 0.32373 0.26584 0.75277 0.0
C904 C 0.3147 0.30672 0.77682 0.0
C905 C 0.28346 0.28625 0.78256 0.0
C906 C 0.27256 0.25544 0.77203 0.0
C907 C 0.29238 0.24539 0.7573 0.0
C908 C 0.22003 0.28789 0.84942 0.0
C909 C 0.22296 0.316 0.83766 0.0
C910 C 0.23945 0.27845 0.83154 0.0
C911 C 0.26266 0.29674 0.80116 0.0
C912 C 0.266 0.32516 0.78977 0.0
C913 C 0.24638 0.33464 0.8077 0.0
H914 H 0.78176 0.14671 0.81644 0.0
H915 H 0.80018 0.12359 0.68513 0.0
H916 H 0.75012 0.09313 0.83421 0.0
H917 H 0.76991 0.07002 0.70344 0.0
H918 H 0.70303 0.97324 0.73556 0.0
H919 H 0.72412 0.02648 0.71652 0.0
H920 H 0.75319 0.05108 0.8543 0.0
H921 H 0.73063 0.99774 0.87348 0.0
C922 C 0.77886 0.13016 0.79115 0.0
C923 C 0.79358 0.13961 0.7493 0.0
C924 C 0.76092 0.09925 0.80155 0.0
C925 C 0.75748 0.07672 0.77069 0.0
C926 C 0.7714 0.08631 0.72814 0.0
C927 C 0.78897 0.11724 0.71752 0.0
C928 C 0.7134 0.99001 0.76198 0.0
C929 C 0.71507 0.98107 0.80609 0.0
C930 C 0.72591 0.02074 0.75094 0.0
C931 C 0.741 0.04363 0.78351 0.0
C932 C 0.74155 0.03448 0.8281 0.0
C933 C 0.72859 1.00368 0.83926 0.0
H934 H 0.11093 0.76013 0.86705 0.0
H935 H 0.13226 0.75071 0.72974 0.0
H936 H 0.05715 0.7357 0.84777 0.0
H937 H 0.07847 0.72497 0.71067 0.0
H938 H 0.98601 0.71649 0.67797 0.0
H939 H 0.03887 0.73374 0.69656 0.0
H940 H 1.0113 0.69353 0.82836 0.0
H941 H 0.9587 0.6777 0.81025 0.0
C942 C 0.10409 0.75216 0.83295 0.0
C943 C 0.12611 0.75759 0.80001 0.0
C944 C 0.07304 0.73797 0.82174 0.0
C945 C 0.06294 0.72838 0.77729 0.0
C946 C 0.08501 0.73259 0.74494 0.0
C947 C 0.11604 0.74714 0.75603 0.0
C948 C 0.99117 0.71093 0.71067 0.0
C949 C 0.96794 0.69578 0.74259 0.0
C950 C 1.02168 0.7208 0.72147 0.0
C951 C 0.02995 0.71549 0.76439 0.0
C952 C 1.00635 0.69893 0.79543 0.0
C953 C 0.97594 0.68947 0.78482 0.0
loop_
_geom_bond_atom_site_label_1
_geom_bond_atom_site_label_2
_geom_bond_distance
_geom_bond_site_symmetry_2
_ccdc_geom_bond_type
Mg0 O7 2.141 1_554 S
Mg0 O8 2.048 . S
Mg0 O9 2.048 . S
Mg0 O12 2.141 . S
C1 O2 1.313 . S
C1 O8 1.195 . S
O2 C1 1.313 . S
C3 O4 1.245 . S
C3 O12 1.289 1_655 S
O4 C3 1.245 . S
C5 O6 1.245 1_455 S
C5 O7 1.289 . S
O6 C5 1.245 1_655 S
O7 Mg0 2.141 1_556 S
O7 C5 1.289 . S
O8 Mg0 2.048 . S
O8 C1 1.195 . S
O9 Mg0 2.048 . S
O9 C10 1.195 . S
C10 O9 1.195 . S
C10 O11 1.313 . S
O11 C10 1.313 . S
O12 Mg0 2.141 . S
O12 C3 1.289 1_455 S
Mg13 O20 2.141 1_554 S
Mg13 O21 2.048 . S
Mg13 O22 2.048 . S
Mg13 O25 2.141 . S
C14 O15 1.313 . S
C14 O21 1.195 . S
O15 C14 1.313 . S
C16 O17 1.245 . S
C16 O25 1.289 . S
O17 C16 1.245 . S
C18 O19 1.245 . S
C18 O20 1.289 . S
O19 C18 1.245 . S
O20 Mg13 2.141 1_556 S
O20 C18 1.289 . S
O21 Mg13 2.048 . S
O21 C14 1.195 . S
O22 Mg13 2.048 . S
O22 C23 1.195 . S
C23 O22 1.195 . S
C23 O24 1.313 . S
O24 C23 1.313 . S
O25 Mg13 2.141 . S
O25 C16 1.289 . S
Mg26 O33 2.141 1_545 S
Mg26 O34 2.048 1_554 S
Mg26 O35 2.048 . S
Mg26 O38 2.141 . S
C27 O28 1.313 1_545 S
C27 O34 1.195 . S
O28 C27 1.313 1_565 S
C29 O30 1.245 . S
C29 O38 1.289 1_565 S
O30 C29 1.245 . S
C31 O32 1.245 . S
C31 O33 1.289 . S
O32 C31 1.245 . S
O33 Mg26 2.141 1_565 S
O33 C31 1.289 . S
O34 Mg26 2.048 1_556 S
O34 C27 1.195 . S
O35 Mg26 2.048 . S
O35 C36 1.195 . S
C36 O35 1.195 . S
C36 O37 1.313 . S
O37 C36 1.313 . S
O38 Mg26 2.141 . S
O38 C29 1.289 1_545 S
Mg39 O46 2.141 . S
Mg39 O47 2.048 . S
Mg39 O48 2.048 . S
Mg39 O51 2.141 . S
C40 O41 1.313 . S
C40 O47 1.195 1_565 S
O41 C40 1.313 . S
C42 O43 1.245 . S
C42 O51 1.289 . S
O43 C42 1.245 . S
C44 O45 1.245 1_545 S
C44 O46 1.289 . S
O45 C44 1.245 1_565 S
O46 Mg39 2.141 . S
O46 C44 1.289 . S
O47 Mg39 2.048 . S
O47 C40 1.195 1_545 S
O48 Mg39 2.048 . S
O48 C49 1.195 . S
C49 O48 1.195 . S
C49 O50 1.313 1_545 S
O50 C49 1.313 1_565 S
O51 Mg39 2.141 . S
O51 C42 1.289 . S
Mg52 O59 2.141 1_455 S
Mg52 O60 2.048 . S
Mg52 O61 2.048 . S
Mg52 O64 2.141 1_455 S
C53 O54 1.313 . S
C53 O60 1.195 . S
O54 C53 1.313 . S
C55 O56 1.245 1_655 S
C55 O64 1.289 . S
O56 C55 1.245 1_455 S
C57 O58 1.245 . S
C57 O59 1.289 1_455 S
O58 C57 1.245 . S
O59 Mg52 2.141 1_655 S
O59 C57 1.289 1_655 S
O60 Mg52 2.048 . S
O60 C53 1.195 . S
O61 Mg52 2.048 . S
O61 C62 1.195 . S
C62 O61 1.195 . S
C62 O63 1.313 . S
O63 C62 1.313 . S
O64 Mg52 2.141 1_655 S
O64 C55 1.289 . S
Mg65 O72 2.141 . S
Mg65 O73 2.048 . S
Mg65 O74 2.048 . S
Mg65 O77 2.141 . S
C66 O67 1.313 . S
C66 O73 1.195 . S
O67 C66 1.313 . S
C68 O69 1.245 . S
C68 O77 1.289 . S
O69 C68 1.245 . S
C70 O71 1.245 . S
C70 O72 1.289 . S
O71 C70 1.245 . S
O72 Mg65 2.141 . S
O72 C70 1.289 . S
O73 Mg65 2.048 . S
O73 C66 1.195 . S
O74 Mg65 2.048 . S
O74 C75 1.195 . S
C75 O74 1.195 . S
C75 O76 1.313 . S
O76 C75 1.313 . S
O77 Mg65 2.141 . S
O77 C68 1.289 . S
Mg78 O85 2.141 . S
Mg78 O86 2.048 . S
Mg78 O87 2.048 . S
Mg78 O90 2.141 . S
C79 O80 1.313 . S
C79 O86 1.195 . S
O80 C79 1.313 . S
C81 O82 1.245 . S
C81 O90 1.289 . S
O82 C81 1.245 . S
C83 O84 1.245 . S
C83 O85 1.289 . S
O84 C83 1.245 . S
O85 Mg78 2.141 . S
O85 C83 1.289 . S
O86 Mg78 2.048 . S
O86 C79 1.195 . S
O87 Mg78 2.048 . S
O87 C88 1.195 . S
C88 O87 1.195 . S
C88 O89 1.313 . S
O89 C88 1.313 . S
O90 Mg78 2.141 . S
O90 C81 1.289 . S
Mg91 O98 2.141 . S
Mg91 O99 2.048 . S
Mg91 O100 2.048 . S
Mg91 O103 2.141 . S
C92 O93 1.313 . S
C92 O99 1.195 . S
O93 C92 1.313 . S
C94 O95 1.245 . S
C94 O103 1.289 . S
O95 C94 1.245 . S
C96 O97 1.245 . S
C96 O98 1.289 . S
O97 C96 1.245 . S
O98 Mg91 2.141 . S
O98 C96 1.289 . S
O99 Mg91 2.048 . S
O99 C92 1.195 . S
O100 Mg91 2.048 . S
O100 C101 1.195 . S
C101 O100 1.195 . S
C101 O102 1.313 . S
O102 C101 1.313 . S
O103 Mg91 2.141 . S
O103 C94 1.289 . S
Mg104 O111 2.141 . S
Mg104 O112 2.048 . S
Mg104 O113 2.048 . S
Mg104 O116 2.141 . S
C105 O106 1.313 . S
C105 O112 1.195 . S
O106 C105 1.313 . S
C107 O108 1.245 . S
C107 O116 1.289 . S
O108 C107 1.245 . S
C109 O110 1.245 . S
C109 O111 1.289 . S
O110 C109 1.245 . S
O111 Mg104 2.141 . S
O111 C109 1.289 . S
O112 Mg104 2.048 . S
O112 C105 1.195 . S
O113 Mg104 2.048 . S
O113 C114 1.195 . S
C114 O113 1.195 . S
C114 O115 1.313 . S
O115 C114 1.313 . S
O116 Mg104 2.141 . S
O116 C107 1.289 . S
Mg117 O124 2.141 . S
Mg117 O125 2.048 . S
Mg117 O126 2.048 . S
Mg117 O129 2.141 . S
C118 O119 1.313 . S
C118 O125 1.195 . S
O119 C118 1.313 . S
C120 O121 1.245 . S
C120 O129 1.289 . S
O121 C120 1.245 . S
C122 O123 1.245 . S
C122 O124 1.289 . S
O123 C122 1.245 . S
O124 Mg117 2.141 . S
O124 C122 1.289 . S
O125 Mg117 2.048 . S
O125 C118 1.195 . S
O126 Mg117 2.048 . S
O126 C127 1.195 . S
C127 O126 1.195 . S
C127 O128 1.313 . S
O128 C127 1.313 . S
O129 Mg117 2.141 . S
O129 C120 1.289 . S
Mg130 O137 2.141 . S
Mg130 O138 2.048 . S
Mg130 O139 2.048 . S
Mg130 O142 2.141 . S
C131 O132 1.313 . S
C131 O138 1.195 . S
O132 C131 1.313 . S
C133 O134 1.245 . S
C133 O142 1.289 . S
O134 C133 1.245 . S
C135 O136 1.245 . S
C135 O137 1.289 . S
O136 C135 1.245 . S
O137 Mg130 2.141 . S
O137 C135 1.289 . S
O138 Mg130 2.048 . S
O138 C131 1.195 . S
O139 Mg130 2.048 . S
O139 C140 1.195 . S
C140 O139 1.195 . S
C140 O141 1.313 . S
O141 C140 1.313 . S
O142 Mg130 2.141 . S
O142 C133 1.289 . S
Mg143 O150 2.141 . S
Mg143 O151 2.048 . S
Mg143 O152 2.048 . S
Mg143 O155 2.141 . S
C144 O145 1.313 . S
C144 O151 1.195 . S
O145 C144 1.313 . S
C146 O147 1.245 . S
C146 O155 1.289 . S
O147 C146 1.245 . S
C148 O149 1.245 . S
C148 O150 1.289 . S
O149 C148 1.245 . S
O150 Mg143 2.141 . S
O150 C148 1.289 . S
O151 Mg143 2.048 . S
O151 C144 1.195 . S
O152 Mg143 2.048 . S
O152 C153 1.195 . S
C153 O152 1.195 . S
C153 O154 1.313 . S
O154 C153 1.313 . S
O155 Mg143 2.141 . S
O155 C146 1.289 . S
Mg156 O163 2.141 . S
Mg156 O164 2.048 . S
Mg156 O165 2.048 . S
Mg156 O168 2.141 . S
C157 O158 1.313 . S
C157 O164 1.195 . S
O158 C157 1.313 . S
C159 O160 1.245 . S
C159 O168 1.289 . S
O160 C159 1.245 . S
C161 O162 1.245 . S
C161 O163 1.289 . S
O162 C161 1.245 . S
O163 Mg156 2.141 . S
O163 C161 1.289 . S
O164 Mg156 2.048 . S
O164 C157 1.195 . S
O165 Mg156 2.048 . S
O165 C166 1.195 . S
C166 O165 1.195 . S
C166 O167 1.313 . S
O167 C166 1.313 . S
O168 Mg156 2.141 . S
O168 C159 1.289 . S
Mg169 O176 2.141 . S
Mg169 O177 2.048 . S
Mg169 O178 2.048 . S
Mg169 O181 2.141 . S
C170 O171 1.313 . S
C170 O177 1.195 . S
O171 C170 1.313 . S
C172 O173 1.245 . S
C172 O181 1.289 . S
O173 C172 1.245 . S
C174 O175 1.245 . S
C174 O176 1.289 . S
O175 C174 1.245 . S
O176 Mg169 2.141 . S
O176 C174 1.289 . S
O177 Mg169 2.048 . S
O177 C170 1.195 . S
O178 Mg169 2.048 . S
O178 C179 1.195 . S
C179 O178 1.195 . S
C179 O180 1.313 . S
O180 C179 1.313 . S
O181 Mg169 2.141 . S
O181 C172 1.289 . S
Mg182 O189 2.141 . S
Mg182 O190 2.048 . S
Mg182 O191 2.048 . S
Mg182 O194 2.141 . S
C183 O184 1.313 . S
C183 O190 1.195 . S
O184 C183 1.313 . S
C185 O186 1.245 . S
C185 O194 1.289 . S
O186 C185 1.245 . S
C187 O188 1.245 . S
C187 O189 1.289 . S
O188 C187 1.245 . S
O189 Mg182 2.141 . S
O189 C187 1.289 . S
O190 Mg182 2.048 . S
O190 C183 1.195 . S
O191 Mg182 2.048 . S
O191 C192 1.195 . S
C192 O191 1.195 . S
C192 O193 1.313 . S
O193 C192 1.313 . S
O194 Mg182 2.141 . S
O194 C185 1.289 . S
Mg195 O202 2.141 . S
Mg195 O203 2.048 . S
Mg195 O204 2.048 . S
Mg195 O207 2.141 . S
C196 O197 1.313 . S
C196 O203 1.195 . S
O197 C196 1.313 . S
C198 O199 1.245 . S
C198 O207 1.289 . S
O199 C198 1.245 . S
C200 O201 1.245 . S
C200 O202 1.289 . S
O201 C200 1.245 . S
O202 Mg195 2.141 . S
O202 C200 1.289 . S
O203 Mg195 2.048 . S
O203 C196 1.195 . S
O204 Mg195 2.048 . S
O204 C205 1.195 . S
C205 O204 1.195 . S
C205 O206 1.313 . S
O206 C205 1.313 . S
O207 Mg195 2.141 . S
O207 C198 1.289 . S
Mg208 O215 2.141 . S
Mg208 O216 2.048 . S
Mg208 O217 2.048 . S
Mg208 O220 2.141 . S
C209 O210 1.313 . S
C209 O216 1.195 . S
O210 C209 1.313 . S
C211 O212 1.245 . S
C211 O220 1.289 . S
O212 C211 1.245 . S
C213 O214 1.245 . S
C213 O215 1.289 . S
O214 C213 1.245 . S
O215 Mg208 2.141 . S
O215 C213 1.289 . S
O216 Mg208 2.048 . S
O216 C209 1.195 . S
O217 Mg208 2.048 . S
O217 C218 1.195 . S
C218 O217 1.195 . S
C218 O219 1.313 . S
O219 C218 1.313 . S
O220 Mg208 2.141 . S
O220 C211 1.289 . S
Mg221 O228 2.141 . S
Mg221 O229 2.048 . S
Mg221 O230 2.048 . S
Mg221 O233 2.141 . S
C222 O223 1.313 . S
C222 O229 1.195 . S
O223 C222 1.313 . S
C224 O225 1.245 . S
C224 O233 1.289 . S
O225 C224 1.245 . S
C226 O227 1.245 . S
C226 O228 1.289 . S
O227 C226 1.245 . S
O228 Mg221 2.141 . S
O228 C226 1.289 . S
O229 Mg221 2.048 . S
O229 C222 1.195 . S
O230 Mg221 2.048 . S
O230 C231 1.195 . S
C231 O230 1.195 . S
C231 O232 1.313 . S
O232 C231 1.313 . S
O233 Mg221 2.141 . S
O233 C224 1.289 . S
H234 C242 0.950 . S
H235 C247 0.950 . S
H236 C244 0.950 . S
H237 C246 0.950 . S
H238 C248 0.950 1_655 S
H239 C250 0.950 1_655 S
H240 C252 0.950 . S
H241 C253 0.950 . S
C242 H234 0.950 . S
C242 C243 1.386 . S
C242 C244 1.391 . S
C243 C242 1.386 . S
C243 C247 1.393 1_455 S
C244 H236 0.950 . S
C244 C242 1.391 . S
C244 C245 1.400 . S
C245 C244 1.400 . S
C245 C246 1.398 1_455 S
C245 C251 1.491 . S
C246 H237 0.950 . S
C246 C245 1.398 1_655 S
C246 C247 1.391 . S
C247 H235 0.950 . S
C247 C243 1.393 1_655 S
C247 C246 1.391 . S
C248 H238 0.950 1_455 S
C248 C249 1.386 . S
C248 C250 1.391 . S
C249 C248 1.386 . S
C249 C253 1.393 . S
C250 H239 0.950 1_455 S
C250 C248 1.391 . S
C250 C251 1.400 . S
C251 C245 1.491 . S
C251 C250 1.400 . S
C251 C252 1.398 . S
C252 H240 0.950 . S
C252 C251 1.398 . S
C252 C253 1.391 . S
C253 H241 0.950 . S
C253 C249 1.393 . S
C253 C252 1.391 . S
H254 C262 0.950 . S
H255 C267 0.950 . S
H256 C264 0.950 . S
H257 C266 0.950 . S
H258 C268 0.950 . S
H259 C270 0.950 . S
H260 C272 0.950 . S
H261 C273 0.950 . S
C262 H254 0.950 . S
C262 C263 1.386 . S
C262 C264 1.391 . S
C263 C262 1.386 . S
C263 C267 1.393 . S
C264 H256 0.950 . S
C264 C262 1.391 . S
C264 C265 1.400 . S
C265 C264 1.400 . S
C265 C266 1.398 . S
C265 C271 1.491 . S
C266 H257 0.950 . S
C266 C265 1.398 . S
C266 C267 1.391 . S
C267 H255 0.950 . S
C267 C263 1.393 . S
C267 C266 1.391 . S
C268 H258 0.950 . S
C268 C269 1.386 . S
C268 C270 1.391 . S
C269 C268 1.386 . S
C269 C273 1.393 . S
C270 H259 0.950 . S
C270 C268 1.391 . S
C270 C271 1.400 . S
C271 C265 1.491 . S
C271 C270 1.400 . S
C271 C272 1.398 . S
C272 H260 0.950 . S
C272 C271 1.398 . S
C272 C273 1.391 . S
C273 H261 0.950 . S
C273 C269 1.393 . S
C273 C272 1.391 . S
H274 C282 0.950 . S
H275 C287 0.940 . S
H276 C284 0.939 . S
H277 C286 0.950 . S
H278 C288 0.950 . S
H279 C290 0.950 . S
H280 C292 0.950 . S
H281 C293 0.950 . S
C282 H274 0.950 . S
C282 C283 1.386 . S
C282 C284 1.395 . S
C283 C282 1.386 . S
C283 C287 1.400 1_565 S
C284 H276 0.939 . S
C284 C282 1.395 . S
C284 C285 1.407 1_565 S
C285 C284 1.407 1_545 S
C285 C286 1.398 . S
C285 C291 1.491 . S
C286 H277 0.950 . S
C286 C285 1.398 . S
C286 C287 1.394 . S
C287 H275 0.940 . S
C287 C283 1.400 1_545 S
C287 C286 1.394 . S
C288 H278 0.950 . S
C288 C289 1.386 . S
C288 C290 1.391 . S
C289 C288 1.386 . S
C289 C293 1.393 . S
C290 H279 0.950 . S
C290 C288 1.391 . S
C290 C291 1.400 . S
C291 C285 1.491 . S
C291 C290 1.400 . S
C291 C292 1.398 . S
C292 H280 0.950 . S
C292 C291 1.398 . S
C292 C293 1.391 . S
C293 H281 0.950 . S
C293 C289 1.393 . S
C293 C292 1.391 . S
H294 C302 0.950 . S
H295 C307 0.950 . S
H296 C304 0.950 . S
H297 C306 0.950 . S
H298 C308 0.950 . S
H299 C310 0.950 . S
H300 C312 0.950 . S
H301 C313 0.950 . S
C302 H294 0.950 . S
C302 C303 1.386 . S
C302 C304 1.391 . S
C303 C302 1.386 . S
C303 C307 1.393 . S
C304 H296 0.950 . S
C304 C302 1.391 . S
C304 C305 1.400 . S
C305 C304 1.400 . S
C305 C306 1.398 . S
C305 C311 1.491 . S
C306 H297 0.950 . S
C306 C305 1.398 . S
C306 C307 1.391 . S
C307 H295 0.950 . S
C307 C303 1.393 . S
C307 C306 1.391 . S
C308 H298 0.950 . S
C308 C309 1.386 . S
C308 C310 1.391 . S
C309 C308 1.386 . S
C309 C313 1.393 . S
C310 H299 0.950 . S
C310 C308 1.391 . S
C310 C311 1.400 . S
C311 C305 1.491 . S
C311 C310 1.400 . S
C311 C312 1.398 . S
C312 H300 0.950 . S
C312 C311 1.398 . S
C312 C313 1.391 . S
C313 H301 0.950 . S
C313 C309 1.393 . S
C313 C312 1.391 . S
H314 C322 0.950 . S
H315 C327 0.950 . S
H316 C324 0.950 . S
H317 C326 0.950 . S
H318 C328 0.950 . S
H319 C330 0.950 . S
H320 C332 0.950 . S
H321 C333 0.950 . S
C322 H314 0.950 . S
C322 C323 1.386 . S
C322 C324 1.391 . S
C323 C322 1.386 . S
C323 C327 1.393 . S
C324 H316 0.950 . S
C324 C322 1.391 . S
C324 C325 1.400 . S
C325 C324 1.400 . S
C325 C326 1.398 . S
C325 C331 1.491 . S
C326 H317 0.950 . S
C326 C325 1.398 . S
C326 C327 1.391 . S
C327 H315 0.950 . S
C327 C323 1.393 . S
C327 C326 1.391 . S
C328 H318 0.950 . S
C328 C329 1.386 . S
C328 C330 1.391 . S
C329 C328 1.386 . S
C329 C333 1.393 . S
C330 H319 0.950 . S
C330 C328 1.391 . S
C330 C331 1.400 . S
C331 C325 1.491 . S
C331 C330 1.400 . S
C331 C332 1.398 . S
C332 H320 0.950 . S
C332 C331 1.398 . S
C332 C333 1.391 . S
C333 H321 0.950 . S
C333 C329 1.393 . S
C333 C332 1.391 . S
H334 C342 0.950 . S
H335 C347 0.950 . S
H336 C344 0.950 . S
H337 C346 0.950 . S
H338 C348 0.950 . S
H339 C350 0.950 . S
H340 C352 0.950 . S
H341 C353 0.950 . S
C342 H334 0.950 . S
C342 C343 1.386 . S
C342 C344 1.391 . S
C343 C342 1.386 . S
C343 C347 1.393 1_545 S
C344 H336 0.950 . S
C344 C342 1.391 . S
C344 C345 1.400 . S
C345 C344 1.400 . S
C345 C346 1.398 1_545 S
C345 C351 1.491 . S
C346 H337 0.950 . S
C346 C345 1.398 1_565 S
C346 C347 1.391 . S
C347 H335 0.950 . S
C347 C343 1.393 1_565 S
C347 C346 1.391 . S
C348 H338 0.950 . S
C348 C349 1.386 1_565 S
C348 C350 1.391 . S
C349 C348 1.386 1_545 S
C349 C353 1.393 . S
C350 H339 0.950 . S
C350 C348 1.391 . S
C350 C351 1.400 1_565 S
C351 C345 1.491 . S
C351 C350 1.400 1_545 S
C351 C352 1.398 . S
C352 H340 0.950 . S
C352 C351 1.398 . S
C352 C353 1.391 . S
C353 H341 0.950 . S
C353 C349 1.393 . S
C353 C352 1.391 . S
H354 C362 0.950 . S
H355 C367 0.950 . S
H356 C364 0.950 . S
H357 C366 0.950 . S
H358 C368 0.950 . S
H359 C370 0.950 . S
H360 C372 0.950 . S
H361 C373 0.950 . S
C362 H354 0.950 . S
C362 C363 1.386 . S
C362 C364 1.391 . S
C363 C362 1.386 . S
C363 C367 1.393 . S
C364 H356 0.950 . S
C364 C362 1.391 . S
C364 C365 1.400 . S
C365 C364 1.400 . S
C365 C366 1.398 . S
C365 C371 1.491 . S
C366 H357 0.950 . S
C366 C365 1.398 . S
C366 C367 1.391 . S
C367 H355 0.950 . S
C367 C363 1.393 . S
C367 C366 1.391 . S
C368 H358 0.950 . S
C368 C369 1.386 . S
C368 C370 1.391 . S
C369 C368 1.386 . S
C369 C373 1.393 . S
C370 H359 0.950 . S
C370 C368 1.391 . S
C370 C371 1.400 . S
C371 C365 1.491 . S
C371 C370 1.400 . S
C371 C372 1.398 . S
C372 H360 0.950 . S
C372 C371 1.398 . S
C372 C373 1.391 . S
C373 H361 0.950 . S
C373 C369 1.393 . S
C373 C372 1.391 . S
H374 C382 0.950 . S
H375 C387 0.950 . S
H376 C384 0.950 . S
H377 C386 0.950 . S
H378 C388 0.950 . S
H379 C390 0.950 . S
H380 C392 0.950 . S
H381 C393 0.950 . S
C382 H374 0.950 . S
C382 C383 1.386 . S
C382 C384 1.391 . S
C383 C382 1.386 . S
C383 C387 1.393 . S
C384 H376 0.950 . S
C384 C382 1.391 . S
C384 C385 1.400 . S
C385 C384 1.400 . S
C385 C386 1.398 . S
C385 C391 1.491 . S
C386 H377 0.950 . S
C386 C385 1.398 . S
C386 C387 1.391 . S
C387 H375 0.950 . S
C387 C383 1.393 . S
C387 C386 1.391 . S
C388 H378 0.950 . S
C388 C389 1.386 . S
C388 C390 1.391 . S
C389 C388 1.386 . S
C389 C393 1.393 . S
C390 H379 0.950 . S
C390 C388 1.391 . S
C390 C391 1.400 . S
C391 C385 1.491 . S
C391 C390 1.400 . S
C391 C392 1.398 . S
C392 H380 0.950 . S
C392 C391 1.398 . S
C392 C393 1.391 . S
C393 H381 0.950 . S
C393 C389 1.393 . S
C393 C392 1.391 . S
H394 C402 0.950 . S
H395 C407 0.950 . S
H396 C404 0.950 . S
H397 C406 0.950 . S
H398 C408 0.950 . S
H399 C410 0.950 . S
H400 C412 0.950 . S
H401 C413 0.950 . S
C402 H394 0.950 . S
C402 C403 1.386 . S
C402 C404 1.391 . S
C403 C402 1.386 . S
C403 C407 1.393 . S
C404 H396 0.950 . S
C404 C402 1.391 . S
C404 C405 1.400 . S
C405 C404 1.400 . S
C405 C406 1.398 . S
C405 C411 1.491 . S
C406 H397 0.950 . S
C406 C405 1.398 . S
C406 C407 1.391 . S
C407 H395 0.950 . S
C407 C403 1.393 . S
C407 C406 1.391 . S
C408 H398 0.950 . S
C408 C409 1.386 . S
C408 C410 1.391 . S
C409 C408 1.386 . S
C409 C413 1.393 . S
C410 H399 0.950 . S
C410 C408 1.391 . S
C410 C411 1.400 . S
C411 C405 1.491 . S
C411 C410 1.400 . S
C411 C412 1.398 . S
C412 H400 0.950 . S
C412 C411 1.398 . S
C412 C413 1.391 . S
C413 H401 0.950 . S
C413 C409 1.393 . S
C413 C412 1.391 . S
H414 C422 0.950 . S
H415 C427 0.950 . S
H416 C424 0.950 . S
H417 C426 0.950 . S
H418 C428 0.950 . S
H419 C430 0.950 . S
H420 C432 0.950 . S
H421 C433 0.950 . S
C422 H414 0.950 . S
C422 C423 1.386 . S
C422 C424 1.391 . S
C423 C422 1.386 . S
C423 C427 1.393 . S
C424 H416 0.950 . S
C424 C422 1.391 . S
C424 C425 1.400 . S
C425 C424 1.400 . S
C425 C426 1.398 . S
C425 C431 1.491 . S
C426 H417 0.950 . S
C426 C425 1.398 . S
C426 C427 1.391 . S
C427 H415 0.950 . S
C427 C423 1.393 . S
C427 C426 1.391 . S
C428 H418 0.950 . S
C428 C429 1.386 . S
C428 C430 1.391 . S
C429 C428 1.386 . S
C429 C433 1.393 . S
C430 H419 0.950 . S
C430 C428 1.391 . S
C430 C431 1.400 . S
C431 C425 1.491 . S
C431 C430 1.400 . S
C431 C432 1.398 . S
C432 H420 0.950 . S
C432 C431 1.398 . S
C432 C433 1.391 . S
C433 H421 0.950 . S
C433 C429 1.393 . S
C433 C432 1.391 . S
H434 C442 0.950 . S
H435 C447 0.950 . S
H436 C444 0.950 . S
H437 C446 0.950 . S
H438 C448 0.950 . S
H439 C450 0.950 . S
H440 C452 0.950 . S
H441 C453 0.950 . S
C442 H434 0.950 . S
C442 C443 1.386 1_554 S
C442 C444 1.391 . S
C443 C442 1.386 1_556 S
C443 C447 1.393 1_556 S
C444 H436 0.950 . S
C444 C442 1.391 . S
C444 C445 1.400 . S
C445 C444 1.400 . S
C445 C446 1.398 . S
C445 C451 1.491 . S
C446 H437 0.950 . S
C446 C445 1.398 . S
C446 C447 1.391 . S
C447 H435 0.950 . S
C447 C443 1.393 1_554 S
C447 C446 1.391 . S
C448 H438 0.950 . S
C448 C449 1.386 . S
C448 C450 1.391 . S
C449 C448 1.386 . S
C449 C453 1.393 . S
C450 H439 0.950 . S
C450 C448 1.391 . S
C450 C451 1.400 . S
C451 C445 1.491 . S
C451 C450 1.400 . S
C451 C452 1.398 . S
C452 H440 0.950 . S
C452 C451 1.398 . S
C452 C453 1.391 . S
C453 H441 0.950 . S
C453 C449 1.393 . S
C453 C452 1.391 . S
H454 C462 0.950 . S
H455 C467 0.950 . S
H456 C464 0.950 . S
H457 C466 0.950 . S
H458 C468 0.950 . S
H459 C470 0.950 . S
H460 C472 0.950 . S
H461 C473 0.950 . S
C462 H454 0.950 . S
C462 C463 1.386 1_554 S
C462 C464 1.391 . S
C463 C462 1.386 1_556 S
C463 C467 1.393 1_556 S
C464 H456 0.950 . S
C464 C462 1.391 . S
C464 C465 1.400 . S
C465 C464 1.400 . S
C465 C466 1.398 . S
C465 C471 1.491 . S
C466 H457 0.950 . S
C466 C465 1.398 . S
C466 C467 1.391 . S
C467 H455 0.950 . S
C467 C463 1.393 1_554 S
C467 C466 1.391 . S
C468 H458 0.950 . S
C468 C469 1.386 . S
C468 C470 1.391 . S
C469 C468 1.386 . S
C469 C473 1.393 . S
C470 H459 0.950 . S
C470 C468 1.391 . S
C470 C471 1.400 . S
C471 C465 1.491 . S
C471 C470 1.400 . S
C471 C472 1.398 . S
C472 H460 0.950 . S
C472 C471 1.398 . S
C472 C473 1.391 . S
C473 H461 0.950 . S
C473 C469 1.393 . S
C473 C472 1.391 . S
H474 C482 0.950 . S
H475 C487 0.950 . S
H476 C484 0.950 1_556 S
H477 C486 0.956 . S
H478 C488 0.950 . S
H479 C490 0.950 . S
H480 C492 0.950 . S
H481 C493 0.950 . S
C482 H474 0.950 . S
C482 C483 1.386 . S
C482 C484 1.391 . S
C483 C482 1.386 . S
C483 C487 1.393 . S
C484 H476 0.950 1_554 S
C484 C482 1.391 . S
C484 C485 1.400 1_554 S
C485 C484 1.400 1_556 S
C485 C486 1.403 . S
C485 C491 1.491 . S
C486 H477 0.956 . S
C486 C485 1.403 . S
C486 C487 1.380 1_556 S
C487 H475 0.950 . S
C487 C483 1.393 . S
C487 C486 1.380 1_554 S
C488 H478 0.950 . S
C488 C489 1.386 . S
C488 C490 1.391 . S
C489 C488 1.386 . S
C489 C493 1.393 . S
C490 H479 0.950 . S
C490 C488 1.391 . S
C490 C491 1.400 . S
C491 C485 1.491 . S
C491 C490 1.400 . S
C491 C492 1.398 . S
C492 H480 0.950 . S
C492 C491 1.398 . S
C492 C493 1.391 . S
C493 H481 0.950 . S
C493 C489 1.393 . S
C493 C492 1.391 . S
H494 C502 0.950 . S
H495 C507 0.950 . S
H496 C504 0.950 . S
H497 C506 0.950 . S
H498 C508 0.950 . S
H499 C510 0.950 . S
H500 C512 0.943 1_556 S
H501 C513 0.950 . S
C502 H494 0.950 . S
C502 C503 1.386 . S
C502 C504 1.391 . S
C503 C502 1.386 . S
C503 C507 1.393 . S
C504 H496 0.950 . S
C504 C502 1.391 . S
C504 C505 1.400 . S
C505 C504 1.400 . S
C505 C506 1.398 . S
C505 C511 1.491 . S
C506 H497 0.950 . S
C506 C505 1.398 . S
C506 C507 1.391 . S
C507 H495 0.950 . S
C507 C503 1.393 . S
C507 C506 1.391 . S
C508 H498 0.950 . S
C508 C509 1.386 . S
C508 C510 1.391 1_554 S
C509 C508 1.386 . S
C509 C513 1.393 . S
C510 H499 0.950 . S
C510 C508 1.391 1_556 S
C510 C511 1.400 . S
C511 C505 1.491 . S
C511 C510 1.400 . S
C511 C512 1.390 1_556 S
C512 H500 0.943 1_554 S
C512 C511 1.390 1_554 S
C512 C513 1.406 . S
C513 H501 0.950 . S
C513 C509 1.393 . S
C513 C512 1.406 . S
H514 C522 0.950 . S
H515 C527 0.950 . S
H516 C524 0.963 . S
H517 C526 0.950 1_556 S
H518 C528 0.950 . S
H519 C530 0.950 . S
H520 C532 0.950 . S
H521 C533 0.950 . S
C522 H514 0.950 . S
C522 C523 1.386 . S
C522 C524 1.366 1_554 S
C523 C522 1.386 . S
C523 C527 1.393 . S
C524 H516 0.963 . S
C524 C522 1.366 1_556 S
C524 C525 1.413 . S
C525 C524 1.413 . S
C525 C526 1.398 1_556 S
C525 C531 1.491 . S
C526 H517 0.950 1_554 S
C526 C525 1.398 1_554 S
C526 C527 1.391 . S
C527 H515 0.950 . S
C527 C523 1.393 . S
C527 C526 1.391 . S
C528 H518 0.950 . S
C528 C529 1.386 . S
C528 C530 1.391 . S
C529 C528 1.386 . S
C529 C533 1.393 . S
C530 H519 0.950 . S
C530 C528 1.391 . S
C530 C531 1.400 . S
C531 C525 1.491 . S
C531 C530 1.400 . S
C531 C532 1.398 . S
C532 H520 0.950 . S
C532 C531 1.398 . S
C532 C533 1.391 . S
C533 H521 0.950 . S
C533 C529 1.393 . S
C533 C532 1.391 . S
H534 C542 0.950 . S
H535 C547 0.950 . S
H536 C544 0.950 . S
H537 C546 0.950 . S
H538 C548 0.950 . S
H539 C550 0.950 . S
H540 C552 0.950 . S
H541 C553 0.950 . S
C542 H534 0.950 . S
C542 C543 1.386 . S
C542 C544 1.391 . S
C543 C542 1.386 . S
C543 C547 1.393 . S
C544 H536 0.950 . S
C544 C542 1.391 . S
C544 C545 1.400 . S
C545 C544 1.400 . S
C545 C546 1.398 . S
C545 C551 1.491 . S
C546 H537 0.950 . S
C546 C545 1.398 . S
C546 C547 1.391 . S
C547 H535 0.950 . S
C547 C543 1.393 . S
C547 C546 1.391 . S
C548 H538 0.950 . S
C548 C549 1.386 . S
C548 C550 1.391 . S
C549 C548 1.386 . S
C549 C553 1.393 . S
C550 H539 0.950 . S
C550 C548 1.391 . S
C550 C551 1.400 . S
C551 C545 1.491 . S
C551 C550 1.400 . S
C551 C552 1.398 . S
C552 H540 0.950 . S
C552 C551 1.398 . S
C552 C553 1.391 . S
C553 H541 0.950 . S
C553 C549 1.393 . S
C553 C552 1.391 . S
H554 C562 0.950 . S
H555 C567 0.950 . S
H556 C564 0.950 . S
H557 C566 0.950 . S
H558 C568 0.950 . S
H559 C570 0.950 . S
H560 C572 0.950 . S
H561 C573 0.950 . S
C562 H554 0.950 . S
C562 C563 1.386 . S
C562 C564 1.391 . S
C563 C562 1.386 . S
C563 C567 1.393 . S
C564 H556 0.950 . S
C564 C562 1.391 . S
C564 C565 1.400 . S
C565 C564 1.400 . S
C565 C566 1.398 . S
C565 C571 1.491 . S
C566 H557 0.950 . S
C566 C565 1.398 . S
C566 C567 1.391 . S
C567 H555 0.950 . S
C567 C563 1.393 . S
C567 C566 1.391 . S
C568 H558 0.950 . S
C568 C569 1.386 . S
C568 C570 1.391 . S
C569 C568 1.386 . S
C569 C573 1.393 . S
C570 H559 0.950 . S
C570 C568 1.391 . S
C570 C571 1.400 . S
C571 C565 1.491 . S
C571 C570 1.400 . S
C571 C572 1.398 . S
C572 H560 0.950 . S
C572 C571 1.398 . S
C572 C573 1.391 . S
C573 H561 0.950 . S
C573 C569 1.393 . S
C573 C572 1.391 . S
H574 C582 0.950 . S
H575 C587 0.950 . S
H576 C584 0.950 . S
H577 C586 0.950 . S
H578 C588 0.950 . S
H579 C590 0.950 . S
H580 C592 0.950 . S
H581 C593 0.950 . S
C582 H574 0.950 . S
C582 C583 1.386 . S
C582 C584 1.391 . S
C583 C582 1.386 . S
C583 C587 1.393 . S
C584 H576 0.950 . S
C584 C582 1.391 . S
C584 C585 1.400 . S
C585 C584 1.400 . S
C585 C586 1.398 . S
C585 C591 1.491 . S
C586 H577 0.950 . S
C586 C585 1.398 . S
C586 C587 1.391 . S
C587 H575 0.950 . S
C587 C583 1.393 . S
C587 C586 1.391 . S
C588 H578 0.950 . S
C588 C589 1.386 . S
C588 C590 1.391 . S
C589 C588 1.386 . S
C589 C593 1.393 . S
C590 H579 0.950 . S
C590 C588 1.391 . S
C590 C591 1.400 . S
C591 C585 1.491 . S
C591 C590 1.400 . S
C591 C592 1.398 . S
C592 H580 0.950 . S
C592 C591 1.398 . S
C592 C593 1.391 . S
C593 H581 0.950 . S
C593 C589 1.393 . S
C593 C592 1.391 . S
H594 C602 0.950 . S
H595 C607 0.950 . S
H596 C604 0.950 . S
H597 C606 0.950 1_554 S
H598 C608 0.950 . S
H599 C610 0.950 . S
H600 C612 0.950 . S
H601 C613 0.950 . S
C602 H594 0.950 . S
C602 C603 1.386 . S
C602 C604 1.391 . S
C603 C602 1.386 . S
C603 C607 1.393 1_556 S
C604 H596 0.950 . S
C604 C602 1.391 . S
C604 C605 1.400 . S
C605 C604 1.400 . S
C605 C606 1.398 . S
C605 C611 1.491 . S
C606 H597 0.950 1_556 S
C606 C605 1.398 . S
C606 C607 1.391 1_556 S
C607 H595 0.950 . S
C607 C603 1.393 1_554 S
C607 C606 1.391 1_554 S
C608 H598 0.950 . S
C608 C609 1.386 . S
C608 C610 1.391 . S
C609 C608 1.386 . S
C609 C613 1.393 . S
C610 H599 0.950 . S
C610 C608 1.391 . S
C610 C611 1.400 . S
C611 C605 1.491 . S
C611 C610 1.400 . S
C611 C612 1.398 . S
C612 H600 0.950 . S
C612 C611 1.398 . S
C612 C613 1.391 . S
C613 H601 0.950 . S
C613 C609 1.393 . S
C613 C612 1.391 . S
H614 C622 0.950 . S
H615 C627 0.950 . S
H616 C624 0.950 . S
H617 C626 0.950 . S
H618 C628 0.950 . S
H619 C630 0.948 . S
H620 C632 0.950 . S
H621 C633 0.950 . S
C622 H614 0.950 . S
C622 C623 1.386 . S
C622 C624 1.391 . S
C623 C622 1.386 . S
C623 C627 1.393 . S
C624 H616 0.950 . S
C624 C622 1.391 . S
C624 C625 1.400 . S
C625 C624 1.400 . S
C625 C626 1.398 . S
C625 C631 1.491 . S
C626 H617 0.950 . S
C626 C625 1.398 . S
C626 C627 1.391 . S
C627 H615 0.950 . S
C627 C623 1.393 . S
C627 C626 1.391 . S
C628 H618 0.950 . S
C628 C629 1.386 1_554 S
C628 C630 1.390 . S
C629 C628 1.386 1_556 S
C629 C633 1.393 . S
C630 H619 0.948 . S
C630 C628 1.390 . S
C630 C631 1.403 1_554 S
C631 C625 1.491 . S
C631 C630 1.403 1_556 S
C631 C632 1.398 . S
C632 H620 0.950 . S
C632 C631 1.398 . S
C632 C633 1.391 . S
C633 H621 0.950 . S
C633 C629 1.393 . S
C633 C632 1.391 . S
H634 C642 0.950 . S
H635 C647 0.950 . S
H636 C644 0.950 . S
H637 C646 0.950 . S
H638 C648 0.950 . S
H639 C650 0.950 . S
H640 C652 0.950 1_554 S
H641 C653 0.950 . S
C642 H634 0.950 . S
C642 C643 1.386 . S
C642 C644 1.391 . S
C643 C642 1.386 . S
C643 C647 1.393 . S
C644 H636 0.950 . S
C644 C642 1.391 . S
C644 C645 1.400 . S
C645 C644 1.400 . S
C645 C646 1.398 . S
C645 C651 1.491 . S
C646 H637 0.950 . S
C646 C645 1.398 . S
C646 C647 1.391 . S
C647 H635 0.950 . S
C647 C643 1.393 . S
C647 C646 1.391 . S
C648 H638 0.950 . S
C648 C649 1.386 . S
C648 C650 1.391 . S
C649 C648 1.386 . S
C649 C653 1.393 1_556 S
C650 H639 0.950 . S
C650 C648 1.391 . S
C650 C651 1.400 . S
C651 C645 1.491 . S
C651 C650 1.400 . S
C651 C652 1.398 . S
C652 H640 0.950 1_556 S
C652 C651 1.398 . S
C652 C653 1.391 1_556 S
C653 H641 0.950 . S
C653 C649 1.393 1_554 S
C653 C652 1.391 1_554 S
H654 C662 0.950 . S
H655 C667 0.950 . S
H656 C664 0.950 . S
H657 C666 0.950 . S
H658 C668 0.950 . S
H659 C670 0.950 . S
H660 C672 0.950 . S
H661 C673 0.950 . S
C662 H654 0.950 . S
C662 C663 1.386 . S
C662 C664 1.391 . S
C663 C662 1.386 . S
C663 C667 1.393 . S
C664 H656 0.950 . S
C664 C662 1.391 . S
C664 C665 1.400 . S
C665 C664 1.400 . S
C665 C666 1.398 . S
C665 C671 1.491 . S
C666 H657 0.950 . S
C666 C665 1.398 . S
C666 C667 1.391 . S
C667 H655 0.950 . S
C667 C663 1.393 . S
C667 C666 1.391 . S
C668 H658 0.950 . S
C668 C669 1.386 . S
C668 C670 1.391 . S
C669 C668 1.386 . S
C669 C673 1.393 . S
C670 H659 0.950 . S
C670 C668 1.391 . S
C670 C671 1.400 . S
C671 C665 1.491 . S
C671 C670 1.400 . S
C671 C672 1.398 . S
C672 H660 0.950 . S
C672 C671 1.398 . S
C672 C673 1.391 . S
C673 H661 0.950 . S
C673 C669 1.393 . S
C673 C672 1.391 . S
H674 C682 0.950 . S
H675 C687 0.950 . S
H676 C684 0.950 . S
H677 C686 0.950 . S
H678 C688 0.950 . S
H679 C690 0.950 . S
H680 C692 0.950 . S
H681 C693 0.950 . S
C682 H674 0.950 . S
C682 C683 1.386 . S
C682 C684 1.391 . S
C683 C682 1.386 . S
C683 C687 1.393 . S
C684 H676 0.950 . S
C684 C682 1.391 . S
C684 C685 1.400 . S
C685 C684 1.400 . S
C685 C686 1.398 . S
C685 C691 1.491 . S
C686 H677 0.950 . S
C686 C685 1.398 . S
C686 C687 1.391 . S
C687 H675 0.950 . S
C687 C683 1.393 . S
C687 C686 1.391 . S
C688 H678 0.950 . S
C688 C689 1.386 . S
C688 C690 1.391 . S
C689 C688 1.386 . S
C689 C693 1.393 . S
C690 H679 0.950 . S
C690 C688 1.391 . S
C690 C691 1.400 . S
C691 C685 1.491 . S
C691 C690 1.400 . S
C691 C692 1.398 . S
C692 H680 0.950 . S
C692 C691 1.398 . S
C692 C693 1.391 . S
C693 H681 0.950 . S
C693 C689 1.393 . S
C693 C692 1.391 . S
H694 C702 0.950 . S
H695 C707 0.950 . S
H696 C704 0.950 . S
H697 C706 0.950 . S
H698 C708 0.950 . S
H699 C710 0.950 . S
H700 C712 0.950 . S
H701 C713 0.950 . S
C702 H694 0.950 . S
C702 C703 1.386 . S
C702 C704 1.391 . S
C703 C702 1.386 . S
C703 C707 1.393 . S
C704 H696 0.950 . S
C704 C702 1.391 . S
C704 C705 1.400 . S
C705 C704 1.400 . S
C705 C706 1.398 . S
C705 C711 1.491 . S
C706 H697 0.950 . S
C706 C705 1.398 . S
C706 C707 1.391 . S
C707 H695 0.950 . S
C707 C703 1.393 . S
C707 C706 1.391 . S
C708 H698 0.950 . S
C708 C709 1.386 . S
C708 C710 1.391 . S
C709 C708 1.386 . S
C709 C713 1.393 . S
C710 H699 0.950 . S
C710 C708 1.391 . S
C710 C711 1.400 . S
C711 C705 1.491 . S
C711 C710 1.400 . S
C711 C712 1.398 . S
C712 H700 0.950 . S
C712 C711 1.398 . S
C712 C713 1.391 . S
C713 H701 0.950 . S
C713 C709 1.393 . S
C713 C712 1.391 . S
H714 C722 0.950 . S
H715 C727 0.950 . S
H716 C724 0.950 . S
H717 C726 0.950 . S
H718 C728 0.967 . S
H719 C730 0.950 . S
H720 C732 0.950 . S
H721 C733 0.950 . S
C722 H714 0.950 . S
C722 C723 1.386 . S
C722 C724 1.391 . S
C723 C722 1.386 . S
C723 C727 1.393 . S
C724 H716 0.950 . S
C724 C722 1.391 . S
C724 C725 1.400 . S
C725 C724 1.400 . S
C725 C726 1.398 . S
C725 C731 1.491 . S
C726 H717 0.950 . S
C726 C725 1.398 . S
C726 C727 1.391 . S
C727 H715 0.950 . S
C727 C723 1.393 . S
C727 C726 1.391 . S
C728 H718 0.967 . S
C728 C729 1.386 . S
C728 C730 1.391 . S
C729 C728 1.386 . S
C729 C733 1.393 . S
C730 H719 0.950 . S
C730 C728 1.391 . S
C730 C731 1.400 . S
C731 C725 1.491 . S
C731 C730 1.400 . S
C731 C732 1.398 . S
C732 H720 0.950 . S
C732 C731 1.398 . S
C732 C733 1.391 . S
C733 H721 0.950 . S
C733 C729 1.393 . S
C733 C732 1.391 . S
H734 C742 0.950 . S
H735 C747 0.950 . S
H736 C744 0.950 . S
H737 C746 0.950 . S
H738 C748 0.950 . S
H739 C750 0.950 . S
H740 C752 0.950 . S
H741 C753 0.950 . S
C742 H734 0.950 . S
C742 C743 1.386 . S
C742 C744 1.391 . S
C743 C742 1.386 . S
C743 C747 1.393 . S
C744 H736 0.950 . S
C744 C742 1.391 . S
C744 C745 1.400 . S
C745 C744 1.400 . S
C745 C746 1.398 . S
C745 C751 1.491 . S
C746 H737 0.950 . S
C746 C745 1.398 . S
C746 C747 1.391 . S
C747 H735 0.950 . S
C747 C743 1.393 . S
C747 C746 1.391 . S
C748 H738 0.950 . S
C748 C749 1.386 . S
C748 C750 1.391 . S
C749 C748 1.386 . S
C749 C753 1.393 . S
C750 H739 0.950 . S
C750 C748 1.391 . S
C750 C751 1.400 . S
C751 C745 1.491 . S
C751 C750 1.400 . S
C751 C752 1.398 . S
C752 H740 0.950 . S
C752 C751 1.398 . S
C752 C753 1.391 . S
C753 H741 0.950 . S
C753 C749 1.393 . S
C753 C752 1.391 . S
H754 C762 0.950 . S
H755 C767 0.950 . S
H756 C764 0.950 . S
H757 C766 0.950 . S
H758 C768 0.950 . S
H759 C770 0.950 . S
H760 C772 0.950 . S
H761 C773 0.950 . S
C762 H754 0.950 . S
C762 C763 1.386 . S
C762 C764 1.391 . S
C763 C762 1.386 . S
C763 C767 1.393 . S
C764 H756 0.950 . S
C764 C762 1.391 . S
C764 C765 1.400 . S
C765 C764 1.400 . S
C765 C766 1.398 . S
C765 C771 1.491 . S
C766 H757 0.950 . S
C766 C765 1.398 . S
C766 C767 1.391 . S
C767 H755 0.950 . S
C767 C763 1.393 . S
C767 C766 1.391 . S
C768 H758 0.950 . S
C768 C769 1.386 . S
C768 C770 1.391 . S
C769 C768 1.386 . S
C769 C773 1.393 . S
C770 H759 0.950 . S
C770 C768 1.391 . S
C770 C771 1.400 . S
C771 C765 1.491 . S
C771 C770 1.400 . S
C771 C772 1.398 . S
C772 H760 0.950 . S
C772 C771 1.398 . S
C772 C773 1.391 . S
C773 H761 0.950 . S
C773 C769 1.393 . S
C773 C772 1.391 . S
H774 C782 0.950 . S
H775 C787 0.950 1_545 S
H776 C784 0.950 . S
H777 C786 0.950 . S
H778 C788 0.950 . S
H779 C790 0.950 . S
H780 C792 0.950 . S
H781 C793 0.950 . S
C782 H774 0.950 . S
C782 C783 1.386 . S
C782 C784 1.391 . S
C783 C782 1.386 . S
C783 C787 1.393 . S
C784 H776 0.950 . S
C784 C782 1.391 . S
C784 C785 1.400 . S
C785 C784 1.400 . S
C785 C786 1.398 . S
C785 C791 1.491 . S
C786 H777 0.950 . S
C786 C785 1.398 . S
C786 C787 1.391 . S
C787 H775 0.950 1_565 S
C787 C783 1.393 . S
C787 C786 1.391 . S
C788 H778 0.950 . S
C788 C789 1.386 . S
C788 C790 1.391 . S
C789 C788 1.386 . S
C789 C793 1.393 . S
C790 H779 0.950 . S
C790 C788 1.391 . S
C790 C791 1.400 . S
C791 C785 1.491 . S
C791 C790 1.400 . S
C791 C792 1.398 . S
C792 H780 0.950 . S
C792 C791 1.398 . S
C792 C793 1.391 . S
C793 H781 0.950 . S
C793 C789 1.393 . S
C793 C792 1.391 . S
H794 C802 0.950 . S
H795 C807 0.950 . S
H796 C804 0.950 . S
H797 C806 0.950 . S
H798 C808 0.950 . S
H799 C810 0.950 . S
H800 C812 0.950 . S
H801 C813 0.950 . S
C802 H794 0.950 . S
C802 C803 1.386 . S
C802 C804 1.391 . S
C803 C802 1.386 . S
C803 C807 1.393 . S
C804 H796 0.950 . S
C804 C802 1.391 . S
C804 C805 1.400 . S
C805 C804 1.400 . S
C805 C806 1.398 . S
C805 C811 1.491 . S
C806 H797 0.950 . S
C806 C805 1.398 . S
C806 C807 1.391 . S
C807 H795 0.950 . S
C807 C803 1.393 . S
C807 C806 1.391 . S
C808 H798 0.950 . S
C808 C809 1.386 . S
C808 C810 1.391 . S
C809 C808 1.386 . S
C809 C813 1.393 . S
C810 H799 0.950 . S
C810 C808 1.391 . S
C810 C811 1.400 . S
C811 C805 1.491 . S
C811 C810 1.400 . S
C811 C812 1.398 . S
C812 H800 0.950 . S
C812 C811 1.398 . S
C812 C813 1.391 . S
C813 H801 0.950 . S
C813 C809 1.393 . S
C813 C812 1.391 . S
H814 C822 0.950 . S
H815 C827 0.950 . S
H816 C824 0.950 . S
H817 C826 0.950 . S
H818 C828 0.950 . S
H819 C830 0.950 . S
H820 C832 0.950 . S
H821 C833 0.950 . S
C822 H814 0.950 . S
C822 C823 1.386 . S
C822 C824 1.391 . S
C823 C822 1.386 . S
C823 C827 1.393 . S
C824 H816 0.950 . S
C824 C822 1.391 . S
C824 C825 1.400 . S
C825 C824 1.400 . S
C825 C826 1.398 . S
C825 C831 1.491 . S
C826 H817 0.950 . S
C826 C825 1.398 . S
C826 C827 1.391 . S
C827 H815 0.950 . S
C827 C823 1.393 . S
C827 C826 1.391 . S
C828 H818 0.950 . S
C828 C829 1.386 . S
C828 C830 1.391 . S
C829 C828 1.386 . S
C829 C833 1.393 . S
C830 H819 0.950 . S
C830 C828 1.391 . S
C830 C831 1.400 . S
C831 C825 1.491 . S
C831 C830 1.400 . S
C831 C832 1.398 . S
C832 H820 0.950 . S
C832 C831 1.398 . S
C832 C833 1.391 . S
C833 H821 0.950 . S
C833 C829 1.393 . S
C833 C832 1.391 . S
H834 C842 0.950 . S
H835 C847 0.950 . S
H836 C844 0.950 . S
H837 C846 0.950 . S
H838 C848 0.950 . S
H839 C850 0.950 . S
H840 C852 0.950 . S
H841 C853 0.950 . S
C842 H834 0.950 . S
C842 C843 1.386 . S
C842 C844 1.391 . S
C843 C842 1.386 . S
C843 C847 1.393 . S
C844 H836 0.950 . S
C844 C842 1.391 . S
C844 C845 1.400 . S
C845 C844 1.400 . S
C845 C846 1.398 . S
C845 C851 1.491 . S
C846 H837 0.950 . S
C846 C845 1.398 . S
C846 C847 1.391 . S
C847 H835 0.950 . S
C847 C843 1.393 . S
C847 C846 1.391 . S
C848 H838 0.950 . S
C848 C849 1.386 . S
C848 C850 1.391 . S
C849 C848 1.386 . S
C849 C853 1.393 . S
C850 H839 0.950 . S
C850 C848 1.391 . S
C850 C851 1.400 . S
C851 C845 1.491 . S
C851 C850 1.400 . S
C851 C852 1.398 . S
C852 H840 0.950 . S
C852 C851 1.398 . S
C852 C853 1.391 . S
C853 H841 0.950 . S
C853 C849 1.393 . S
C853 C852 1.391 . S
H854 C862 0.950 . S
H855 C867 0.950 . S
H856 C864 0.950 . S
H857 C866 0.950 . S
H858 C868 0.950 . S
H859 C870 0.950 1_545 S
H860 C872 0.950 . S
H861 C873 0.950 . S
C862 H854 0.950 . S
C862 C863 1.386 . S
C862 C864 1.391 . S
C863 C862 1.386 . S
C863 C867 1.393 . S
C864 H856 0.950 . S
C864 C862 1.391 . S
C864 C865 1.400 . S
C865 C864 1.400 . S
C865 C866 1.398 . S
C865 C871 1.522 . S
C866 H857 0.950 . S
C866 C865 1.398 . S
C866 C867 1.391 . S
C867 H855 0.950 . S
C867 C863 1.393 . S
C867 C866 1.391 . S
C868 H858 0.950 . S
C868 C869 1.386 . S
C868 C870 1.391 . S
C869 C868 1.386 . S
C869 C873 1.393 . S
C870 H859 0.950 1_565 S
C870 C868 1.391 . S
C870 C871 1.388 1_565 S
C871 C865 1.522 . S
C871 C870 1.388 1_545 S
C871 C872 1.379 1_545 S
C872 H860 0.950 . S
C872 C871 1.379 1_565 S
C872 C873 1.391 . S
C873 H861 0.950 . S
C873 C869 1.393 . S
C873 C872 1.391 . S
H874 C882 0.950 . S
H875 C887 0.950 . S
H876 C884 0.950 . S
H877 C886 0.950 . S
H878 C888 0.950 . S
H879 C890 0.950 . S
H880 C892 0.950 . S
H881 C893 0.950 . S
C882 H874 0.950 . S
C882 C883 1.386 . S
C882 C884 1.391 . S
C883 C882 1.386 . S
C883 C887 1.393 . S
C884 H876 0.950 . S
C884 C882 1.391 . S
C884 C885 1.400 . S
C885 C884 1.400 . S
C885 C886 1.398 . S
C885 C891 1.491 1_455 S
C886 H877 0.950 . S
C886 C885 1.398 . S
C886 C887 1.391 . S
C887 H875 0.950 . S
C887 C883 1.393 . S
C887 C886 1.391 . S
C888 H878 0.950 . S
C888 C889 1.386 . S
C888 C890 1.391 . S
C889 C888 1.386 . S
C889 C893 1.393 . S
C890 H879 0.950 . S
C890 C888 1.391 . S
C890 C891 1.400 . S
C891 C885 1.491 1_655 S
C891 C890 1.400 . S
C891 C892 1.398 . S
C892 H880 0.950 . S
C892 C891 1.398 . S
C892 C893 1.391 . S
C893 H881 0.950 . S
C893 C889 1.393 . S
C893 C892 1.391 . S
H894 C902 0.950 . S
H895 C907 0.950 . S
H896 C904 0.950 . S
H897 C906 0.950 . S
H898 C908 0.950 . S
H899 C910 0.950 . S
H900 C912 0.950 . S
H901 C913 0.950 . S
C902 H894 0.950 . S
C902 C903 1.386 . S
C902 C904 1.391 . S
C903 C902 1.386 . S
C903 C907 1.393 . S
C904 H896 0.950 . S
C904 C902 1.391 . S
C904 C905 1.400 . S
C905 C904 1.400 . S
C905 C906 1.398 . S
C905 C911 1.491 . S
C906 H897 0.950 . S
C906 C905 1.398 . S
C906 C907 1.391 . S
C907 H895 0.950 . S
C907 C903 1.393 . S
C907 C906 1.391 . S
C908 H898 0.950 . S
C908 C909 1.386 . S
C908 C910 1.391 . S
C909 C908 1.386 . S
C909 C913 1.393 . S
C910 H899 0.950 . S
C910 C908 1.391 . S
C910 C911 1.400 . S
C911 C905 1.491 . S
C911 C910 1.400 . S
C911 C912 1.398 . S
C912 H900 0.950 . S
C912 C911 1.398 . S
C912 C913 1.391 . S
C913 H901 0.950 . S
C913 C909 1.393 . S
C913 C912 1.391 . S
H914 C922 0.950 . S
H915 C927 0.950 . S
H916 C924 0.950 . S
H917 C926 0.950 . S
H918 C928 0.950 . S
H919 C930 0.950 . S
H920 C932 0.950 1_545 S
H921 C933 0.950 . S
C922 H914 0.950 . S
C922 C923 1.386 . S
C922 C924 1.391 . S
C923 C922 1.386 . S
C923 C927 1.393 . S
C924 H916 0.950 . S
C924 C922 1.391 . S
C924 C925 1.400 . S
C925 C924 1.400 . S
C925 C926 1.398 . S
C925 C931 1.515 . S
C926 H917 0.950 . S
C926 C925 1.398 . S
C926 C927 1.391 . S
C927 H915 0.950 . S
C927 C923 1.393 . S
C927 C926 1.391 . S
C928 H918 0.950 . S
C928 C929 1.386 . S
C928 C930 1.391 . S
C929 C928 1.386 . S
C929 C933 1.393 . S
C930 H919 0.950 . S
C930 C928 1.391 . S
C930 C931 1.392 1_565 S
C931 C925 1.515 . S
C931 C930 1.392 1_545 S
C931 C932 1.382 1_545 S
C932 H920 0.950 1_565 S
C932 C931 1.382 1_565 S
C932 C933 1.391 . S
C933 H921 0.950 . S
C933 C929 1.393 . S
C933 C932 1.391 . S
H934 C942 0.950 . S
H935 C947 0.950 . S
H936 C944 0.950 . S
H937 C946 0.950 . S
H938 C948 0.950 . S
H939 C950 0.950 . S
H940 C952 0.950 . S
H941 C953 0.950 . S
C942 H934 0.950 . S
C942 C943 1.386 . S
C942 C944 1.391 . S
C943 C942 1.386 . S
C943 C947 1.393 . S
C944 H936 0.950 . S
C944 C942 1.391 . S
C944 C945 1.400 . S
C945 C944 1.400 . S
C945 C946 1.398 . S
C945 C951 1.491 1_455 S
C946 H937 0.950 . S
C946 C945 1.398 . S
C946 C947 1.391 . S
C947 H935 0.950 . S
C947 C943 1.393 . S
C947 C946 1.391 . S
C948 H938 0.950 . S
C948 C949 1.386 . S
C948 C950 1.391 . S
C949 C948 1.386 . S
C949 C953 1.393 . S
C950 H939 0.950 . S
C950 C948 1.391 . S
C950 C951 1.400 . S
C951 C945 1.491 1_655 S
C951 C950 1.400 . S
C951 C952 1.398 . S
C952 H940 0.950 . S
C952 C951 1.398 . S
C952 C953 1.391 . S
C953 H941 0.950 . S
C953 C949 1.393 . S
C953 C952 1.391 . S
C243 C57 1.046 . S
C249 C10 1.049 . S
C263 C70 1.047 . S
C269 C23 1.048 . S
C283 C29 1.040 . S
C289 C44 1.042 . S
C303 C62 1.052 . S
C309 C5 1.047 . S
C323 C75 1.050 . S
C329 C18 1.054 . S
C343 C27 1.076 . S
C349 C49 1.077 . S
C363 C131 1.037 . S
C369 C83 1.025 . S
C383 C144 1.038 . S
C389 C94 1.042 . S
C403 C107 1.040 . S
C409 C127 1.044 . S
C423 C88 1.056 . S
C429 C133 1.044 1_554 S
C443 C146 1.038 . S
C449 C92 1.044 . S
C463 C122 1.036 . S
C469 C105 1.048 . S
C483 C209 1.047 . S
C489 C161 1.029 . S
C503 C172 1.032 . S
C509 C222 1.047 . S
C523 C205 1.041 . S
C529 C185 1.053 . S
C543 C211 1.043 . S
C549 C166 1.060 . S
C563 C224 1.052 . S
C569 C170 1.057 . S
C583 C183 1.051 . S
C589 C200 1.038 . S
C603 C1 1.560 1_556 S
C609 C118 1.554 . S
C623 C140 1.564 . S
C629 C14 1.563 1_556 S
C643 C153 1.548 . S
C649 C31 1.554 1_556 S
C663 C42 1.538 . S
C669 C159 1.550 . S
C683 C174 1.553 . S
C689 C55 1.554 . S
C703 C187 1.557 . S
C709 C68 1.559 . S
C723 C198 1.546 . S
C729 C3 1.553 . S
C743 C213 1.556 . S
C749 C16 1.553 . S
C763 C226 1.560 . S
C769 C36 1.561 . S
C783 C40 1.561 . S
C789 C79 1.568 . S
C803 C53 1.569 . S
C809 C101 1.567 . S
C823 C114 1.555 . S
C829 C66 1.557 . S
C843 C196 1.565 . S
C849 C81 1.562 . S
C863 C218 1.561 . S
C869 C96 1.544 . S
C883 C109 1.546 . S
C889 C231 1.558 . S
C903 C157 1.567 . S
C909 C120 1.554 . S
C923 C179 1.553 . S
C929 C135 1.555 . S
C943 C148 1.549 . S
C949 C192 1.548 . S
