# Generated by pormake.
# Topology ume, (4)-cn, num edge types: 1
# Building blocks:
#     Node 0, Type 0, BuildingBlock: CEKHIL_clean_sbu_0, # of connection points: 4
#     Node 1, Type 0, BuildingBlock: CEKHIL_clean_sbu_0, # of connection points: 4
#     Node 2, Type 0, BuildingBlock: CEKHIL_clean_sbu_0, # of connection points: 4
#     Node 3, Type 0, BuildingBlock: CEKHIL_clean_sbu_0, # of connection points: 4
#     Node 4, Type 0, BuildingBlock: CEKHIL_clean_sbu_0, # of connection points: 4
#     Node 5, Type 0, BuildingBlock: CEKHIL_clean_sbu_0, # of connection points: 4
#     Node 6, Type 0, BuildingBlock: CEKHIL_clean_sbu_0, # of connection points: 4
#     Node 7, Type 0, BuildingBlock: CEKHIL_clean_sbu_0, # of connection points: 4
#     Node 8, Type 0, BuildingBlock: CEKHIL_clean_sbu_0, # of connection points: 4
#     Node 9, Type 0, BuildingBlock: CEKHIL_clean_sbu_0, # of connection points: 4
#     Node 10, Type 0, BuildingBlock: CEKHIL_clean_sbu_0, # of connection points: 4
#     Node 11, Type 0, BuildingBlock: CEKHIL_clean_sbu_0, # of connection points: 4
#     Node 12, Type 0, BuildingBlock: CEKHIL_clean_sbu_0, # of connection points: 4
#     Node 13, Type 0, BuildingBlock: CEKHIL_clean_sbu_0, # of connection points: 4
#     Node 14, Type 0, BuildingBlock: CEKHIL_clean_sbu_0, # of connection points: 4
#     Node 15, Type 0, BuildingBlock: CEKHIL_clean_sbu_0, # of connection points: 4
#     Edge 16, Type (0, 0), BuildingBlock: KIFKEQ_clean_linker_1, # of connection points: 2
#     Edge 17, Type (0, 0), BuildingBlock: KIFKEQ_clean_linker_1, # of connection points: 2
#     Edge 18, Type (0, 0), BuildingBlock: KIFKEQ_clean_linker_1, # of connection points: 2
#     Edge 19, Type (0, 0), BuildingBlock: KIFKEQ_clean_linker_1, # of connection points: 2
#     Edge 20, Type (0, 0), BuildingBlock: KIFKEQ_clean_linker_1, # of connection points: 2
#     Edge 21, Type (0, 0), BuildingBlock: KIFKEQ_clean_linker_1, # of connection points: 2
#     Edge 22, Type (0, 0), BuildingBlock: KIFKEQ_clean_linker_1, # of connection points: 2
#     Edge 23, Type (0, 0), BuildingBlock: KIFKEQ_clean_linker_1, # of connection points: 2
#     Edge 24, Type (0, 0), BuildingBlock: KIFKEQ_clean_linker_1, # of connection points: 2
#     Edge 25, Type (0, 0), BuildingBlock: KIFKEQ_clean_linker_1, # of connection points: 2
#     Edge 26, Type (0, 0), BuildingBlock: KIFKEQ_clean_linker_1, # of connection points: 2
#     Edge 27, Type (0, 0), BuildingBlock: KIFKEQ_clean_linker_1, # of connection points: 2
#     Edge 28, Type (0, 0), BuildingBlock: KIFKEQ_clean_linker_1, # of connection points: 2
#     Edge 29, Type (0, 0), BuildingBlock: KIFKEQ_clean_linker_1, # of connection points: 2
#     Edge 30, Type (0, 0), BuildingBlock: KIFKEQ_clean_linker_1, # of connection points: 2
#     Edge 31, Type (0, 0), BuildingBlock: KIFKEQ_clean_linker_1, # of connection points: 2
#     Edge 32, Type (0, 0), BuildingBlock: KIFKEQ_clean_linker_1, # of connection points: 2
#     Edge 33, Type (0, 0), BuildingBlock: KIFKEQ_clean_linker_1, # of connection points: 2
#     Edge 34, Type (0, 0), BuildingBlock: KIFKEQ_clean_linker_1, # of connection points: 2
#     Edge 35, Type (0, 0), BuildingBlock: KIFKEQ_clean_linker_1, # of connection points: 2
#     Edge 36, Type (0, 0), BuildingBlock: KIFKEQ_clean_linker_1, # of connection points: 2
#     Edge 37, Type (0, 0), BuildingBlock: KIFKEQ_clean_linker_1, # of connection points: 2
#     Edge 38, Type (0, 0), BuildingBlock: KIFKEQ_clean_linker_1, # of connection points: 2
#     Edge 39, Type (0, 0), BuildingBlock: KIFKEQ_clean_linker_1, # of connection points: 2
#     Edge 40, Type (0, 0), BuildingBlock: KIFKEQ_clean_linker_1, # of connection points: 2
#     Edge 41, Type (0, 0), BuildingBlock: KIFKEQ_clean_linker_1, # of connection points: 2
#     Edge 42, Type (0, 0), BuildingBlock: KIFKEQ_clean_linker_1, # of connection points: 2
#     Edge 43, Type (0, 0), BuildingBlock: KIFKEQ_clean_linker_1, # of connection points: 2
#     Edge 44, Type (0, 0), BuildingBlock: KIFKEQ_clean_linker_1, # of connection points: 2
#     Edge 45, Type (0, 0), BuildingBlock: KIFKEQ_clean_linker_1, # of connection points: 2
#     Edge 46, Type (0, 0), BuildingBlock: KIFKEQ_clean_linker_1, # of connection points: 2
#     Edge 47, Type (0, 0), BuildingBlock: KIFKEQ_clean_linker_1, # of connection points: 2
# Relax obj value: 0.096
# Max RMSD: 0.135
# Mean RMSD: 0.135
data_MOF--net-ume--node1-CEKHIL_clean_sbu_0--edge1-KIFKEQ_clean_linker_1
_symmetry_space_group_name_H-M    P1
_symmetry_Int_Tables_number       1
_symmetry_cell_setting            triclinic
loop_
_symmetry_equiv_pos_as_xyz
'x, y, z'
_cell_length_a     27.940256
_cell_length_b     27.932439
_cell_length_c     111.80408
_cell_angle_alpha  89.994641
_cell_angle_beta   89.999372
_cell_angle_gamma 90.023493
loop_
_atom_site_label
_atom_site_type_symbol
_atom_site_fract_x
_atom_site_fract_y
_atom_site_fract_z
_atom_type_partial_charge
Co0 Co 0.24015 0.10883 0.30426 0.0
O1 O 0.17204 0.1188 0.30452 0.0
O2 O 0.20755 0.05203 0.31028 0.0
C3 C 0.25207 0.13769 0.28571 0.0
O4 O 0.31015 0.08588 0.30466 0.0
Co5 Co 0.30762 0.19706 0.30238 0.0
O6 O 0.35656 0.14776 0.29896 0.0
C7 C 0.26455 0.17288 0.32563 0.0
C8 C 0.16785 0.07556 0.30857 0.0
C9 C 0.35112 0.10368 0.30158 0.0
O10 O 0.24557 0.13529 0.32097 0.0
O11 O 0.28877 0.2035 0.31963 0.0
O12 O 0.23759 0.09395 0.28726 0.0
O13 O 0.25399 0.16374 0.29526 0.0
Co14 Co 0.89656 0.7396 0.55456 0.0
O15 O 0.88673 0.67146 0.55463 0.0
O16 O 0.9532 0.70697 0.56062 0.0
C17 C 0.86826 0.75237 0.53601 0.0
O18 O 0.9193 0.80965 0.55519 0.0
Co19 Co 0.808 0.80672 0.55271 0.0
O20 O 0.85722 0.85626 0.54976 0.0
C21 C 0.83143 0.76229 0.57583 0.0
C22 C 0.92979 0.66727 0.55879 0.0
C23 C 0.90131 0.85081 0.55235 0.0
O24 O 0.86952 0.74419 0.57122 0.0
O25 O 0.80075 0.78639 0.56983 0.0
O26 O 0.91196 0.73787 0.53758 0.0
O27 O 0.84195 0.75369 0.54551 0.0
Co28 Co 0.26481 0.39552 0.80399 0.0
O29 O 0.33283 0.38505 0.80405 0.0
O30 O 0.29799 0.45213 0.80987 0.0
C31 C 0.2516 0.36657 0.78552 0.0
O32 O 0.19508 0.41903 0.8046 0.0
Co33 Co 0.19662 0.30782 0.80249 0.0
O34 O 0.14799 0.35745 0.79907 0.0
C35 C 0.24123 0.33204 0.82553 0.0
C36 C 0.33743 0.42829 0.80808 0.0
C37 C 0.15389 0.40153 0.80162 0.0
O38 O 0.26012 0.3694 0.82074 0.0
O39 O 0.2164 0.30147 0.81968 0.0
O40 O 0.26657 0.41019 0.78699 0.0
O41 O 0.25004 0.34059 0.79509 0.0
Co42 Co 0.60802 0.76526 0.0532 0.0
O43 O 0.61841 0.83333 0.05359 0.0
O44 O 0.55019 0.7981 0.05836 0.0
C45 C 0.64122 0.75269 0.0352 0.0
O46 O 0.58452 0.69554 0.05337 0.0
Co47 Co 0.69698 0.69807 0.05306 0.0
O48 O 0.64841 0.64701 0.05111 0.0
C49 C 0.6683 0.74468 0.07546 0.0
C50 C 0.57434 0.83766 0.05703 0.0
C51 C 0.60345 0.65357 0.05217 0.0
O52 O 0.63011 0.7598 0.07027 0.0
O53 O 0.7018 0.72274 0.06989 0.0
O54 O 0.59746 0.76797 0.036 0.0
O55 O 0.66485 0.7506 0.04512 0.0
Co56 Co 0.23982 0.39879 0.9365 0.0
O57 O 0.17159 0.39003 0.93558 0.0
O58 O 0.2093 0.45689 0.93068 0.0
C59 C 0.2493 0.36816 0.95495 0.0
O60 O 0.3102 0.4205 0.93673 0.0
Co61 Co 0.30539 0.30915 0.93829 0.0
O62 O 0.35539 0.35712 0.94197 0.0
C63 C 0.26412 0.33554 0.915 0.0
C64 C 0.16903 0.43378 0.9318 0.0
C65 C 0.35077 0.40161 0.93971 0.0
O66 O 0.24653 0.37372 0.91969 0.0
O67 O 0.2867 0.30373 0.92101 0.0
O68 O 0.23557 0.4122 0.95354 0.0
O69 O 0.2517 0.34283 0.94529 0.0
Co70 Co 0.60725 0.73864 0.18758 0.0
O71 O 0.6177 0.67061 0.18701 0.0
O72 O 0.54952 0.70591 0.18227 0.0
C73 C 0.64019 0.75035 0.20567 0.0
O74 O 0.58379 0.80841 0.18761 0.0
Co75 Co 0.6961 0.80599 0.18806 0.0
O76 O 0.64738 0.856 0.19115 0.0
C77 C 0.66764 0.76086 0.16544 0.0
C78 C 0.5737 0.66632 0.18351 0.0
C79 C 0.60254 0.84996 0.18967 0.0
O80 O 0.6296 0.74499 0.17056 0.0
O81 O 0.70089 0.78286 0.17109 0.0
O82 O 0.59645 0.73508 0.20478 0.0
O83 O 0.66394 0.75296 0.19577 0.0
Co84 Co 0.26499 0.11096 0.43666 0.0
O85 O 0.33306 0.12127 0.43686 0.0
O86 O 0.2983 0.05444 0.43082 0.0
C87 C 0.25057 0.13943 0.45513 0.0
O88 O 0.19538 0.08744 0.43577 0.0
Co89 Co 0.19713 0.19906 0.43801 0.0
O90 O 0.1466 0.14989 0.43963 0.0
C91 C 0.24324 0.17526 0.41513 0.0
C92 C 0.33772 0.07811 0.43278 0.0
C93 C 0.15341 0.10552 0.43758 0.0
O94 O 0.26128 0.13746 0.41991 0.0
O95 O 0.21869 0.20605 0.42098 0.0
O96 O 0.26567 0.09587 0.45364 0.0
O97 O 0.24973 0.16569 0.4456 0.0
Co98 Co 0.89714 0.76491 0.68644 0.0
O99 O 0.88691 0.833 0.68629 0.0
O100 O 0.95359 0.79781 0.68035 0.0
C101 C 0.86886 0.75235 0.705 0.0
O102 O 0.92038 0.69503 0.68587 0.0
Co103 Co 0.80922 0.69696 0.68839 0.0
O104 O 0.85888 0.64809 0.69156 0.0
C105 C 0.83224 0.74113 0.6652 0.0
C106 C 0.92997 0.83739 0.68214 0.0
C107 C 0.90285 0.65385 0.68888 0.0
O108 O 0.87012 0.75982 0.66978 0.0
O109 O 0.80186 0.71676 0.67124 0.0
O110 O 0.9125 0.76708 0.70342 0.0
O111 O 0.84262 0.75059 0.69549 0.0
Co112 Co 0.74049 0.6073 0.80371 0.0
O113 O 0.67238 0.61693 0.80356 0.0
O114 O 0.70773 0.55031 0.80952 0.0
C115 C 0.75434 0.63639 0.78529 0.0
O116 O 0.8105 0.58475 0.80453 0.0
Co117 Co 0.80737 0.69615 0.80244 0.0
O118 O 0.85721 0.64728 0.79946 0.0
C119 C 0.76158 0.67137 0.82528 0.0
C120 C 0.66809 0.57371 0.80763 0.0
C121 C 0.85173 0.60302 0.80188 0.0
O122 O 0.74397 0.6335 0.82045 0.0
O123 O 0.78601 0.7025 0.81951 0.0
O124 O 0.7398 0.59258 0.7867 0.0
O125 O 0.75499 0.66238 0.79486 0.0
Co126 Co 0.39481 0.24077 0.05371 0.0
O127 O 0.38448 0.1727 0.05364 0.0
O128 O 0.45169 0.20755 0.05937 0.0
C129 C 0.36507 0.25456 0.03533 0.0
O130 O 0.41837 0.31047 0.0544 0.0
Co131 Co 0.30675 0.30865 0.0526 0.0
O132 O 0.35579 0.35906 0.05056 0.0
C133 C 0.33168 0.26273 0.07543 0.0
C134 C 0.42789 0.16808 0.05755 0.0
C135 C 0.40024 0.35238 0.05249 0.0
O136 O 0.36933 0.24479 0.07056 0.0
O137 O 0.30057 0.28714 0.06966 0.0
O138 O 0.40877 0.23968 0.03667 0.0
O139 O 0.33949 0.25573 0.04497 0.0
Co140 Co 0.76485 0.8962 0.30455 0.0
O141 O 0.83283 0.88529 0.30516 0.0
O142 O 0.79789 0.9533 0.31019 0.0
C143 C 0.75366 0.86478 0.28626 0.0
O144 O 0.69517 0.92037 0.30452 0.0
Co145 Co 0.69608 0.80847 0.30323 0.0
O146 O 0.64737 0.85804 0.29993 0.0
C147 C 0.7392 0.83489 0.32631 0.0
C148 C 0.83735 0.92905 0.30884 0.0
C149 C 0.65368 0.90251 0.30192 0.0
O150 O 0.75807 0.87215 0.32146 0.0
O151 O 0.71533 0.80353 0.32047 0.0
O152 O 0.76897 0.90842 0.28741 0.0
O153 O 0.75039 0.8403 0.29603 0.0
Co154 Co 0.10848 0.26444 0.55439 0.0
O155 O 0.11874 0.33254 0.55454 0.0
O156 O 0.05207 0.29729 0.56049 0.0
C157 C 0.13669 0.25197 0.5358 0.0
O158 O 0.08519 0.19456 0.55494 0.0
Co159 Co 0.19626 0.19652 0.55244 0.0
O160 O 0.1466 0.14769 0.5492 0.0
C161 C 0.17324 0.24049 0.57565 0.0
C162 C 0.0757 0.33689 0.55871 0.0
C163 C 0.10264 0.15342 0.55189 0.0
O164 O 0.13548 0.25931 0.57105 0.0
O165 O 0.20356 0.21603 0.56962 0.0
O166 O 0.09307 0.26666 0.53741 0.0
O167 O 0.163 0.25016 0.5453 0.0
Co168 Co 0.74045 0.89845 0.43732 0.0
O169 O 0.67232 0.88857 0.4375 0.0
O170 O 0.70755 0.95526 0.43152 0.0
C171 C 0.75461 0.86947 0.45575 0.0
O172 O 0.81023 0.9215 0.43644 0.0
Co173 Co 0.80784 0.80989 0.43862 0.0
O174 O 0.85865 0.85875 0.44027 0.0
C175 C 0.76175 0.83426 0.41578 0.0
C176 C 0.66796 0.93178 0.43342 0.0
C177 C 0.85211 0.90316 0.43823 0.0
O178 O 0.74402 0.87217 0.42057 0.0
O179 O 0.78608 0.80322 0.42161 0.0
O180 O 0.73984 0.91319 0.45433 0.0
O181 O 0.75533 0.84348 0.44619 0.0
Co182 Co 0.10919 0.24029 0.68637 0.0
O183 O 0.119 0.17215 0.68634 0.0
O184 O 0.05252 0.20759 0.68035 0.0
C185 C 0.13757 0.25317 0.70493 0.0
O186 O 0.08641 0.31031 0.68571 0.0
Co187 Co 0.19764 0.30752 0.68814 0.0
O188 O 0.14845 0.35701 0.69114 0.0
C189 C 0.17413 0.26289 0.66505 0.0
C190 C 0.07592 0.16791 0.68219 0.0
C191 C 0.10436 0.35149 0.68855 0.0
O192 O 0.13612 0.24474 0.6697 0.0
O193 O 0.20481 0.28714 0.67102 0.0
O194 O 0.09385 0.23868 0.70336 0.0
O195 O 0.16386 0.25447 0.69542 0.0
Co196 Co 0.76523 0.60744 0.93648 0.0
O197 O 0.83309 0.61843 0.93512 0.0
O198 O 0.79725 0.54974 0.931 0.0
C199 C 0.75647 0.64042 0.95468 0.0
O200 O 0.69573 0.58306 0.93724 0.0
Co201 Co 0.69605 0.69469 0.93795 0.0
O202 O 0.64815 0.64521 0.94206 0.0
C203 C 0.73709 0.66726 0.9147 0.0
C204 C 0.83683 0.57421 0.93173 0.0
C205 C 0.65455 0.60069 0.94018 0.0
O206 O 0.75616 0.63006 0.91953 0.0
O207 O 0.71392 0.69894 0.9206 0.0
O208 O 0.77177 0.59676 0.95362 0.0
O209 O 0.75176 0.66408 0.94481 0.0
Co210 Co 0.39496 0.263 0.18656 0.0
O211 O 0.38439 0.33102 0.1863 0.0
O212 O 0.45175 0.29611 0.18074 0.0
C213 C 0.36538 0.25063 0.20501 0.0
O214 O 0.41858 0.19323 0.18622 0.0
Co215 Co 0.30733 0.19474 0.18809 0.0
O216 O 0.35689 0.14647 0.19185 0.0
C217 C 0.33228 0.23828 0.16495 0.0
C218 C 0.42781 0.33559 0.18241 0.0
C219 C 0.40103 0.15222 0.18936 0.0
O220 O 0.36943 0.25752 0.16976 0.0
O221 O 0.30158 0.21367 0.17082 0.0
O222 O 0.40902 0.26556 0.20359 0.0
O223 O 0.33974 0.24858 0.1954 0.0
H224 H 0.92362 0.88631 0.30509 0.0
H225 H 0.86049 0.01933 0.31682 0.0
H226 H 0.00287 0.92147 0.30652 0.0
H227 H 0.94038 0.05438 0.31867 0.0
H228 H 0.08152 0.1174 0.30443 0.0
H229 H 0.00244 0.08213 0.30599 0.0
H230 H 0.06511 0.95063 0.31901 0.0
H231 H 0.14496 0.98581 0.31705 0.0
C232 C 0.92668 0.92297 0.30815 0.0
C233 C 0.88558 0.95012 0.31076 0.0
C234 C 0.97237 0.94308 0.30907 0.0
C235 C 0.97838 0.99092 0.31268 0.0
C236 C 0.93724 0.01767 0.31566 0.0
C237 C 0.89138 0.99754 0.31468 0.0
C238 C 0.07856 0.08103 0.30771 0.0
C239 C 0.11972 0.05432 0.31054 0.0
C240 C 0.03295 0.06086 0.3087 0.0
C241 C 0.02702 0.01339 0.31262 0.0
C242 C 0.0682 0.98705 0.31579 0.0
C243 C 0.11403 0.00726 0.31474 0.0
H244 H 0.01969 0.64443 0.56712 0.0
H245 H 0.88758 0.58092 0.55486 0.0
H246 H 0.05479 0.56454 0.56907 0.0
H247 H 0.92274 0.50178 0.55643 0.0
H248 H 0.98614 0.35994 0.5672 0.0
H249 H 0.95124 0.43987 0.56919 0.0
H250 H 0.08304 0.50239 0.55632 0.0
H251 H 0.11804 0.42317 0.55471 0.0
C252 C 0.9981 0.61348 0.56489 0.0
C253 C 0.95094 0.61914 0.56078 0.0
C254 C 0.01825 0.56764 0.56594 0.0
C255 C 0.99173 0.52645 0.56286 0.0
C256 C 0.94414 0.53234 0.55906 0.0
C257 C 0.92405 0.57797 0.55806 0.0
C258 C 0.00772 0.39084 0.56493 0.0
C259 C 0.05476 0.38508 0.56074 0.0
C260 C 0.98768 0.4367 0.566 0.0
C261 C 0.01417 0.47784 0.56286 0.0
C262 C 0.06166 0.47187 0.55899 0.0
C263 C 0.08166 0.4262 0.55797 0.0
H264 H 0.64509 0.48406 0.8161 0.0
H265 H 0.5819 0.61566 0.8034 0.0
H266 H 0.56515 0.44911 0.81812 0.0
H267 H 0.50272 0.58063 0.80505 0.0
H268 H 0.36094 0.5182 0.81626 0.0
H269 H 0.44101 0.553 0.81802 0.0
H270 H 0.50278 0.42039 0.80546 0.0
H271 H 0.42342 0.3855 0.80407 0.0
C272 C 0.6142 0.50554 0.81378 0.0
C273 C 0.61995 0.55253 0.80954 0.0
C274 C 0.56834 0.48549 0.81487 0.0
C275 C 0.52724 0.51194 0.81171 0.0
C276 C 0.53322 0.55932 0.80775 0.0
C277 C 0.57887 0.57933 0.80671 0.0
C278 C 0.39171 0.49643 0.814 0.0
C279 C 0.38571 0.4492 0.80996 0.0
C280 C 0.43764 0.5164 0.81494 0.0
C281 C 0.47859 0.48964 0.81183 0.0
C282 C 0.47239 0.44197 0.80811 0.0
C283 C 0.42665 0.42204 0.80721 0.0
H284 H 0.38595 0.08211 0.05295 0.0
H285 H 0.51745 0.14458 0.06594 0.0
H286 H 0.42109 0.00287 0.0542 0.0
H287 H 0.55246 0.06459 0.06759 0.0
H288 H 0.6168 0.92406 0.05326 0.0
H289 H 0.58154 0.00321 0.05479 0.0
H290 H 0.44863 0.94017 0.06678 0.0
H291 H 0.4838 0.86037 0.06485 0.0
C292 C 0.42227 0.07889 0.05624 0.0
C293 C 0.44901 0.11981 0.05927 0.0
C294 C 0.44235 0.0332 0.05705 0.0
C295 C 0.48974 0.02701 0.06098 0.0
C296 C 0.51611 0.06794 0.06434 0.0
C297 C 0.496 0.11383 0.06347 0.0
C298 C 0.5801 0.92698 0.0563 0.0
C299 C 0.553 0.88577 0.05885 0.0
C300 C 0.55994 0.97259 0.05727 0.0
C301 C 0.51212 0.97839 0.0609 0.0
C302 C 0.48535 0.93714 0.06378 0.0
C303 C 0.50554 0.89135 0.06274 0.0
H304 H 0.14327 0.52766 0.93441 0.0
H305 H 0.08827 0.38947 0.92411 0.0
H306 H 0.06288 0.56118 0.93323 0.0
H307 H 0.00847 0.42314 0.92202 0.0
H308 H 0.86344 0.48056 0.93405 0.0
H309 H 0.94395 0.44767 0.93288 0.0
H310 H 0.99806 0.58692 0.92256 0.0
H311 H 0.91792 0.61996 0.92461 0.0
C312 C 0.11406 0.50479 0.93158 0.0
C313 C 0.1219 0.45597 0.92943 0.0
C314 C 0.06778 0.52397 0.93083 0.0
C315 C 0.02837 0.49497 0.92763 0.0
C316 C 0.03715 0.44654 0.92488 0.0
C317 C 0.08312 0.42722 0.92593 0.0
C318 C 0.89258 0.50389 0.93143 0.0
C319 C 0.88446 0.55281 0.92949 0.0
C320 C 0.93896 0.48505 0.93068 0.0
C321 C 0.9783 0.51448 0.92768 0.0
C322 C 0.96938 0.56313 0.92521 0.0
C323 C 0.92322 0.58211 0.92626 0.0
H324 H 0.38524 0.42154 0.1866 0.0
H325 H 0.5178 0.35924 0.17428 0.0
H326 H 0.42028 0.50085 0.18543 0.0
H327 H 0.55274 0.43933 0.1727 0.0
H328 H 0.61596 0.5799 0.18732 0.0
H329 H 0.5809 0.50074 0.18555 0.0
H330 H 0.44869 0.56379 0.17312 0.0
H331 H 0.48363 0.64362 0.17531 0.0
C332 C 0.42178 0.42481 0.18346 0.0
C333 C 0.44884 0.3839 0.18061 0.0
C334 C 0.44182 0.47055 0.18269 0.0
C335 C 0.48949 0.47684 0.17899 0.0
C336 C 0.51616 0.43593 0.17577 0.0
C337 C 0.49609 0.38998 0.1766 0.0
C338 C 0.57946 0.57699 0.18413 0.0
C339 C 0.55248 0.61821 0.18154 0.0
C340 C 0.55942 0.53136 0.18302 0.0
C341 C 0.51183 0.52552 0.1792 0.0
C342 C 0.48521 0.5668 0.17627 0.0
C343 C 0.50526 0.61262 0.17746 0.0
H344 H 0.36111 0.98831 0.42454 0.0
H345 H 0.42376 0.1204 0.43711 0.0
H346 H 0.44106 0.95323 0.4229 0.0
H347 H 0.50302 0.08522 0.43583 0.0
H348 H 0.64518 0.02158 0.42507 0.0
H349 H 0.56538 0.05674 0.4231 0.0
H350 H 0.5025 0.92504 0.43595 0.0
H351 H 0.58163 0.8898 0.43757 0.0
C352 C 0.3919 0.00989 0.42691 0.0
C353 C 0.38598 0.05705 0.43101 0.0
C354 C 0.43776 0.98975 0.42603 0.0
C355 C 0.47872 0.01627 0.42928 0.0
C356 C 0.47261 0.06384 0.43308 0.0
C357 C 0.42694 0.08394 0.43391 0.0
C358 C 0.61423 1.00009 0.42736 0.0
C359 C 0.61985 0.95299 0.43153 0.0
C360 C 0.56845 0.02027 0.42629 0.0
C361 C 0.52727 0.99384 0.4294 0.0
C362 C 0.53309 0.94634 0.43329 0.0
C363 C 0.57869 0.92621 0.43432 0.0
H364 H 0.11804 0.08159 0.68621 0.0
H365 H 0.98612 0.14498 0.6738 0.0
H366 H 0.08289 1.00243 0.68462 0.0
H367 H 0.95104 0.06507 0.67184 0.0
H368 H 0.01966 0.86054 0.67374 0.0
H369 H 0.05461 0.94051 0.67181 0.0
H370 H 0.9226 0.00288 0.68456 0.0
H371 H 0.88756 0.92362 0.68612 0.0
C372 C 0.08162 0.07861 0.68297 0.0
C373 C 0.05477 0.11976 0.68021 0.0
C374 C 0.06153 0.03297 0.68196 0.0
C375 C 0.014 0.02703 0.67811 0.0
C376 C 0.98753 0.0682 0.675 0.0
C377 C 0.00767 0.11405 0.67606 0.0
C378 C 0.99804 0.89142 0.676 0.0
C379 C 0.95094 0.8856 0.68014 0.0
C380 C 0.01811 0.93731 0.67496 0.0
C381 C 0.99157 0.97841 0.67808 0.0
C382 C 0.94401 0.97238 0.6819 0.0
C383 C 0.92399 0.92669 0.68289 0.0
H384 H 0.5629 0.87626 0.2957 0.0
H385 H 0.64514 0.99858 0.30753 0.0
H386 H 0.49069 0.92409 0.2958 0.0
H387 H 0.57186 0.04665 0.30778 0.0
H388 H 0.44066 0.12867 0.29399 0.0
H389 H 0.5133 0.08127 0.29424 0.0
H390 H 0.43505 0.96242 0.30936 0.0
H391 H 0.36149 0.00987 0.30894 0.0
C392 C 0.56574 0.91343 0.29836 0.0
C393 C 0.61022 0.93344 0.30163 0.0
C394 C 0.52397 0.9408 0.29851 0.0
C395 C 0.52519 0.98914 0.30189 0.0
C396 C 0.56964 0.00953 0.30504 0.0
C397 C 0.61169 0.98199 0.30492 0.0
C398 C 0.43862 0.0924 0.29738 0.0
C399 C 0.39487 0.07318 0.30145 0.0
C400 C 0.48062 0.06532 0.2976 0.0
C401 C 0.48029 0.01811 0.30189 0.0
C402 C 0.43656 0.99859 0.30589 0.0
C403 C 0.39434 0.02579 0.30568 0.0
H404 H 0.87406 0.94212 0.54685 0.0
H405 H 0.99722 0.85969 0.55798 0.0
H406 H 0.92176 0.01452 0.54701 0.0
H407 H 0.04508 0.93307 0.55833 0.0
H408 H 0.1265 0.06379 0.54417 0.0
H409 H 0.07874 0.99138 0.54465 0.0
H410 H 0.96149 0.0702 0.56031 0.0
H411 H 0.00932 0.14356 0.55967 0.0
C412 C 0.91136 0.93928 0.54939 0.0
C413 C 0.93171 0.89467 0.55239 0.0
C414 C 0.93866 0.98116 0.54957 0.0
C415 C 0.98723 0.97987 0.55274 0.0
C416 C 0.00781 0.93534 0.55573 0.0
C417 C 0.98036 0.89323 0.55557 0.0
C418 C 0.09052 0.06601 0.54773 0.0
C419 C 0.07187 0.10985 0.5519 0.0
C420 C 0.06323 0.02414 0.54809 0.0
C421 C 0.01637 0.02468 0.5526 0.0
C422 C 0.99738 0.06852 0.55668 0.0
C423 C 0.0248 0.11062 0.55633 0.0
H424 H 0.06456 0.37802 0.79364 0.0
H425 H 0.1441 0.49477 0.80945 0.0
H426 H 0.99228 0.42591 0.79404 0.0
H427 H 0.07087 0.54272 0.81002 0.0
H428 H 0.94314 0.6306 0.79659 0.0
H429 H 0.01552 0.5829 0.79675 0.0
H430 H 0.93379 0.45913 0.80768 0.0
H431 H 0.86047 0.50696 0.80733 0.0
C432 C 0.06674 0.41393 0.79726 0.0
C433 C 0.11046 0.43243 0.80154 0.0
C434 C 0.02495 0.4413 0.79756 0.0
C435 C 0.02547 0.48806 0.80214 0.0
C436 C 0.06922 0.50691 0.80633 0.0
C437 C 0.11124 0.47942 0.80602 0.0
C438 C 0.94025 0.59319 0.79904 0.0
C439 C 0.89559 0.5727 0.80193 0.0
C440 C 0.9821 0.5659 0.79922 0.0
C441 C 0.98071 0.5172 0.80228 0.0
C442 C 0.93613 0.4965 0.80517 0.0
C443 C 0.89406 0.52393 0.805 0.0
H444 H 0.50788 0.64514 0.04651 0.0
H445 H 0.63003 0.5633 0.05838 0.0
H446 H 0.45976 0.57209 0.04624 0.0
H447 H 0.58188 0.49116 0.05873 0.0
H448 H 0.49668 0.35965 0.04778 0.0
H449 H 0.54505 0.43253 0.04728 0.0
H450 H 0.42157 0.51538 0.05803 0.0
H451 H 0.37328 0.44329 0.0579 0.0
C452 C 0.52427 0.61168 0.04919 0.0
C453 C 0.57281 0.6101 0.05239 0.0
C454 C 0.49668 0.56968 0.0491 0.0
C455 C 0.51676 0.52522 0.05244 0.0
C456 C 0.5652 0.52413 0.05582 0.0
C457 C 0.59284 0.5658 0.0557 0.0
C458 C 0.48008 0.39349 0.05005 0.0
C459 C 0.43113 0.39563 0.05282 0.0
C460 C 0.50779 0.4354 0.04982 0.0
C461 C 0.48738 0.48035 0.05256 0.0
C462 C 0.43854 0.48198 0.05556 0.0
C463 C 0.41082 0.44037 0.05559 0.0
H464 H 0.44123 0.37269 0.94558 0.0
H465 H 0.36124 0.49788 0.93475 0.0
H466 H 0.51435 0.41942 0.94588 0.0
H467 H 0.43523 0.5447 0.93489 0.0
H468 H 0.56643 0.62406 0.94893 0.0
H469 H 0.49381 0.57652 0.94884 0.0
H470 H 0.57069 0.4592 0.93262 0.0
H471 H 0.64423 0.50685 0.93284 0.0
C472 C 0.43908 0.41024 0.94323 0.0
C473 C 0.39497 0.43143 0.94014 0.0
C474 C 0.48134 0.43697 0.94333 0.0
C475 C 0.48089 0.48578 0.94036 0.0
C476 C 0.43683 0.50723 0.93734 0.0
C477 C 0.39437 0.48037 0.93722 0.0
C478 C 0.56817 0.58806 0.94535 0.0
C479 C 0.61143 0.56943 0.94083 0.0
C480 C 0.52621 0.56091 0.94523 0.0
C481 C 0.52611 0.51422 0.9406 0.0
C482 C 0.56952 0.495 0.93632 0.0
C483 C 0.61173 0.52229 0.93644 0.0
H484 H 0.50618 0.85853 0.18461 0.0
H485 H 0.62985 0.94112 0.19533 0.0
H486 H 0.45837 0.93186 0.1843 0.0
H487 H 0.58216 0.01357 0.19521 0.0
H488 H 0.49466 0.14189 0.18187 0.0
H489 H 0.54255 0.06856 0.18174 0.0
H490 H 0.42494 0.99106 0.19768 0.0
H491 H 0.37713 0.06342 0.19764 0.0
C492 C 0.52312 0.89209 0.18698 0.0
C493 C 0.57196 0.89364 0.18997 0.0
C494 C 0.49571 0.93419 0.18683 0.0
C495 C 0.51648 0.9788 0.18967 0.0
C496 C 0.56514 0.98014 0.19275 0.0
C497 C 0.59243 0.93827 0.19291 0.0
C498 C 0.47914 0.10926 0.18539 0.0
C499 C 0.43193 0.10879 0.18972 0.0
C500 C 0.50659 0.06718 0.18533 0.0
C501 C 0.4875 0.02369 0.18963 0.0
C502 C 0.44054 0.02352 0.19408 0.0
C503 C 0.41321 0.06535 0.19413 0.0
H504 H 0.86032 0.99965 0.44272 0.0
H505 H 0.94227 0.87548 0.43233 0.0
H506 H 0.93342 0.04765 0.4427 0.0
H507 H 0.01456 0.92341 0.43166 0.0
H508 H 0.14549 0.00956 0.44272 0.0
H509 H 0.07246 0.96144 0.44306 0.0
H510 H 0.99122 0.08401 0.43094 0.0
H511 H 0.06344 0.13214 0.43126 0.0
C512 C 0.89383 0.98281 0.44028 0.0
C513 C 0.89547 0.93376 0.4376 0.0
C514 C 0.93587 0.0103 0.4402 0.0
C515 C 0.98041 0.98957 0.43722 0.0
C516 C 0.98151 0.94063 0.4343 0.0
C517 C 0.93979 0.91311 0.43459 0.0
C518 C 0.11197 0.02598 0.4401 0.0
C519 C 0.11024 0.07466 0.43704 0.0
C520 C 0.06998 0.99842 0.44024 0.0
C521 C 0.02542 0.0187 0.43708 0.0
C522 C 0.02428 0.0672 0.43373 0.0
C523 C 0.06595 0.09481 0.43381 0.0
H524 H 0.13103 0.44255 0.69449 0.0
H525 H 0.00891 0.36047 0.68248 0.0
H526 H 0.08329 0.51491 0.69427 0.0
H527 H 0.96104 0.43379 0.68208 0.0
H528 H 0.87833 0.56376 0.69615 0.0
H529 H 0.92614 0.49145 0.69571 0.0
H530 H 0.04467 0.57112 0.68091 0.0
H531 H 0.99676 0.6444 0.68151 0.0
C532 C 0.09396 0.43979 0.69175 0.0
C533 C 0.07391 0.39529 0.68851 0.0
C534 C 0.06664 0.48164 0.69154 0.0
C535 C 0.01836 0.48042 0.6881 0.0
C536 C 0.99807 0.436 0.68489 0.0
C537 C 0.02553 0.39392 0.68508 0.0
C538 C 0.9146 0.5662 0.69278 0.0
C539 C 0.93359 0.61026 0.68886 0.0
C540 C 0.94193 0.52438 0.69245 0.0
C541 C 0.98917 0.52519 0.6882 0.0
C542 C 0.00848 0.56923 0.68434 0.0
C543 C 0.98101 0.61129 0.68466 0.0
H544 H 0.32763 0.21747 0.34055 0.0
H545 H 0.19218 0.14271 0.34018 0.0
H546 H 0.32366 0.22267 0.36241 0.0
H547 H 0.18782 0.14923 0.362 0.0
H548 H 0.18224 0.2212 0.39996 0.0
H549 H 0.187 0.22512 0.37811 0.0
H550 H 0.32084 0.14828 0.37902 0.0
H551 H 0.31568 0.14307 0.40086 0.0
C552 C 0.29669 0.20288 0.34512 0.0
C553 C 0.2602 0.17964 0.33869 0.0
C554 C 0.2946 0.20568 0.35759 0.0
C555 C 0.25545 0.18639 0.36379 0.0
C556 C 0.21822 0.16457 0.35736 0.0
C557 C 0.22083 0.16072 0.34492 0.0
C558 C 0.21297 0.20565 0.39551 0.0
C559 C 0.24859 0.18177 0.40209 0.0
C560 C 0.2155 0.20772 0.38304 0.0
C561 C 0.25424 0.187 0.37698 0.0
C562 C 0.29076 0.1647 0.38355 0.0
C563 C 0.2877 0.16162 0.396 0.0
H564 H 0.78488 0.82374 0.59078 0.0
H565 H 0.86267 0.69005 0.59027 0.0
H566 H 0.77981 0.81931 0.61262 0.0
H567 H 0.85632 0.68522 0.61208 0.0
H568 H 0.78672 0.67865 0.65032 0.0
H569 H 0.78123 0.68288 0.62847 0.0
H570 H 0.8553 0.81841 0.6289 0.0
H571 H 0.86208 0.8138 0.65071 0.0
C572 C 0.80011 0.79304 0.59531 0.0
C573 C 0.82426 0.75726 0.58885 0.0
C574 C 0.79736 0.79068 0.60777 0.0
C575 C 0.81766 0.75195 0.61393 0.0
C576 C 0.8402 0.71527 0.60747 0.0
C577 C 0.84396 0.71816 0.59503 0.0
C578 C 0.80133 0.70961 0.64576 0.0
C579 C 0.82491 0.74588 0.65219 0.0
C580 C 0.79834 0.71185 0.6333 0.0
C581 C 0.81781 0.75095 0.62711 0.0
C582 C 0.83981 0.78807 0.63354 0.0
C583 C 0.84383 0.78531 0.64597 0.0
H584 H 0.17868 0.28878 0.84083 0.0
H585 H 0.3149 0.36197 0.83968 0.0
H586 H 0.18366 0.28528 0.86269 0.0
H587 H 0.32027 0.35714 0.86152 0.0
H588 H 0.32523 0.2884 0.90006 0.0
H589 H 0.32052 0.28281 0.87821 0.0
H590 H 0.18794 0.36187 0.87869 0.0
H591 H 0.19308 0.36875 0.90049 0.0
C592 C 0.21002 0.30332 0.84523 0.0
C593 C 0.24639 0.32572 0.83858 0.0
C594 C 0.21269 0.30149 0.8577 0.0
C595 C 0.25232 0.32092 0.86369 0.0
C596 C 0.28951 0.34172 0.85704 0.0
C597 C 0.28633 0.3446 0.84459 0.0
C598 C 0.29487 0.30421 0.89551 0.0
C599 C 0.25955 0.3291 0.90195 0.0
C600 C 0.29235 0.30114 0.88305 0.0
C601 C 0.25386 0.32184 0.87687 0.0
C602 C 0.21779 0.34542 0.88331 0.0
C603 C 0.22087 0.3495 0.89574 0.0
H604 H 0.60127 0.7815 0.09067 0.0
H605 H 0.74354 0.72039 0.09009 0.0
H606 H 0.60413 0.78468 0.11237 0.0
H607 H 0.74601 0.72356 0.11192 0.0
H608 H 0.74294 0.78605 0.15092 0.0
H609 H 0.74576 0.78344 0.12907 0.0
H610 H 0.604 0.72196 0.12839 0.0
H611 H 0.6008 0.72457 0.15009 0.0
C612 C 0.63331 0.76901 0.09514 0.0
C613 C 0.67204 0.75033 0.0886 0.0
C614 C 0.63476 0.77058 0.10759 0.0
C615 C 0.67504 0.75382 0.11382 0.0
C616 C 0.71454 0.73678 0.10733 0.0
C617 C 0.713 0.73486 0.09483 0.0
C618 C 0.7125 0.77166 0.14612 0.0
C619 C 0.6715 0.75586 0.15228 0.0
C620 C 0.71423 0.77007 0.13362 0.0
C621 C 0.67488 0.75304 0.12706 0.0
C622 C 0.63452 0.73605 0.13322 0.0
C623 C 0.63288 0.7373 0.14567 0.0
H624 H 0.68828 0.63897 0.8392 0.0
H625 H 0.8218 0.71689 0.84075 0.0
H626 H 0.68193 0.64319 0.86102 0.0
H627 H 0.81585 0.71985 0.8626 0.0
H628 H 0.80892 0.63576 0.90021 0.0
H629 H 0.81393 0.6427 0.87841 0.0
H630 H 0.67854 0.71686 0.87785 0.0
H631 H 0.67392 0.71121 0.8997 0.0
C632 C 0.71602 0.65727 0.8442 0.0
C633 C 0.75554 0.6776 0.8383 0.0
C634 C 0.71228 0.65979 0.85664 0.0
C635 C 0.7485 0.68171 0.86339 0.0
C636 C 0.78759 0.70272 0.85752 0.0
C637 C 0.79081 0.7012 0.84506 0.0
C638 C 0.78042 0.65385 0.89544 0.0
C639 C 0.74104 0.67297 0.90162 0.0
C640 C 0.78344 0.658 0.88301 0.0
C641 C 0.74662 0.68034 0.87656 0.0
C642 C 0.7073 0.69953 0.8827 0.0
C643 C 0.70481 0.69641 0.89516 0.0
H644 H 0.36246 0.31143 0.15065 0.0
H645 H 0.28902 0.17529 0.14975 0.0
H646 H 0.3568 0.31661 0.12883 0.0
H647 H 0.28468 0.18008 0.12789 0.0
H648 H 0.36465 0.19023 0.08959 0.0
H649 H 0.35931 0.18424 0.11141 0.0
H650 H 0.2816 0.31757 0.11257 0.0
H651 H 0.28566 0.32314 0.09074 0.0
C652 C 0.34494 0.28279 0.14579 0.0
C653 C 0.32612 0.24299 0.15188 0.0
C654 C 0.34159 0.28586 0.13335 0.0
C655 C 0.32037 0.2487 0.12677 0.0
C656 C 0.30122 0.20909 0.13283 0.0
C657 C 0.30353 0.20653 0.1453 0.0
C658 C 0.34595 0.21795 0.09449 0.0
C659 C 0.32554 0.25713 0.08848 0.0
C660 C 0.34277 0.21441 0.10694 0.0
C661 C 0.32013 0.25051 0.11358 0.0
C662 C 0.29926 0.28938 0.10759 0.0
C663 C 0.30143 0.29238 0.09513 0.0
H664 H 0.81123 0.86675 0.34073 0.0
H665 H 0.67642 0.79085 0.3414 0.0
H666 H 0.81594 0.861 0.36257 0.0
H667 H 0.68075 0.78642 0.36325 0.0
H668 H 0.68922 0.86675 0.4016 0.0
H669 H 0.68371 0.86167 0.37976 0.0
H670 H 0.81736 0.78452 0.37871 0.0
H671 H 0.82247 0.78831 0.40055 0.0
C672 C 0.78277 0.84873 0.34554 0.0
C673 C 0.7435 0.82919 0.33939 0.0
C674 C 0.78559 0.84531 0.35798 0.0
C675 C 0.74867 0.8233 0.36448 0.0
C676 C 0.70956 0.80354 0.35837 0.0
C677 C 0.70726 0.80592 0.3459 0.0
C678 C 0.71709 0.84818 0.39671 0.0
C679 C 0.75624 0.82788 0.40275 0.0
C680 C 0.71383 0.84518 0.38427 0.0
C681 C 0.75019 0.82282 0.37766 0.0
C682 C 0.78899 0.80197 0.38367 0.0
C683 C 0.79171 0.80396 0.39613 0.0
H684 H 0.22062 0.32411 0.65 0.0
H685 H 0.14279 0.19039 0.65069 0.0
H686 H 0.22559 0.31928 0.62817 0.0
H687 H 0.14903 0.18517 0.62888 0.0
H688 H 0.21823 0.17788 0.59061 0.0
H689 H 0.22365 0.18235 0.61245 0.0
H690 H 0.15047 0.31829 0.61189 0.0
H691 H 0.14375 0.31343 0.59008 0.0
C692 C 0.20535 0.29332 0.64551 0.0
C693 C 0.18122 0.25765 0.65203 0.0
C694 C 0.20804 0.29074 0.63305 0.0
C695 C 0.18771 0.25188 0.62694 0.0
C696 C 0.16518 0.21532 0.63346 0.0
C697 C 0.16148 0.21843 0.64589 0.0
C698 C 0.2038 0.20897 0.59514 0.0
C699 C 0.18049 0.2453 0.58867 0.0
C700 C 0.20674 0.21135 0.6076 0.0
C701 C 0.18751 0.25065 0.61375 0.0
C702 C 0.16577 0.28779 0.60728 0.0
C703 C 0.16179 0.28489 0.59485 0.0
H704 H 0.29298 0.22393 0.28038 0.0
H705 H 0.24512 0.0916 0.26433 0.0
H706 H 0.31879 0.25261 0.26077 0.0
H707 H 0.27119 0.12014 0.24476 0.0
H708 H 0.27937 0.20876 0.21018 0.0
H709 H 0.25037 0.18277 0.22977 0.0
H710 H 0.38191 0.23176 0.24597 0.0
H711 H 0.41072 0.25797 0.22646 0.0
C712 C 0.28794 0.20103 0.27267 0.0
C713 C 0.26713 0.15553 0.27388 0.0
C714 C 0.30288 0.21735 0.26146 0.0
C715 C 0.29697 0.18859 0.25124 0.0
C716 C 0.2757 0.14329 0.25245 0.0
C717 C 0.26107 0.12686 0.26367 0.0
C718 C 0.30198 0.21406 0.21793 0.0
C719 C 0.34728 0.23534 0.2168 0.0
C720 C 0.28549 0.19901 0.22913 0.0
C721 C 0.31388 0.20531 0.23939 0.0
C722 C 0.35902 0.22696 0.23825 0.0
C723 C 0.37561 0.24169 0.22706 0.0
H724 H 0.74896 0.91486 0.47724 0.0
H725 H 0.79655 0.78341 0.4607 0.0
H726 H 0.77582 0.88553 0.49666 0.0
H727 H 0.82324 0.75398 0.48018 0.0
H728 H 0.91472 0.74682 0.51465 0.0
H729 H 0.88655 0.77436 0.49517 0.0
H730 H 0.75416 0.82142 0.51127 0.0
H731 H 0.78241 0.79408 0.53079 0.0
C732 C 0.76509 0.87966 0.47776 0.0
C733 C 0.7707 0.8514 0.46747 0.0
C734 C 0.78019 0.86279 0.48889 0.0
C735 C 0.80152 0.81747 0.48992 0.0
C736 C 0.80726 0.78923 0.47962 0.0
C737 C 0.7918 0.80597 0.46849 0.0
C738 C 0.87957 0.76297 0.51402 0.0
C739 C 0.85076 0.76838 0.52423 0.0
C740 C 0.86337 0.77847 0.50286 0.0
C741 C 0.81819 0.8 0.50172 0.0
C742 C 0.78934 0.80534 0.51193 0.0
C743 C 0.80541 0.7895 0.52308 0.0
H744 H 0.09105 0.24737 0.72627 0.0
H745 H 0.2238 0.29405 0.71023 0.0
H746 H 0.11952 0.27382 0.74582 0.0
H747 H 0.25238 0.32027 0.72982 0.0
H748 H 0.25859 0.41223 0.7641 0.0
H749 H 0.23177 0.38379 0.7446 0.0
H750 H 0.18224 0.2524 0.76079 0.0
H751 H 0.20888 0.28099 0.78036 0.0
C752 C 0.12637 0.26317 0.72693 0.0
C753 C 0.15521 0.26872 0.71673 0.0
C754 C 0.14275 0.27803 0.73813 0.0
C755 C 0.18817 0.29904 0.73934 0.0
C756 C 0.21704 0.30456 0.72913 0.0
C757 C 0.20078 0.28938 0.71794 0.0
C758 C 0.24204 0.37724 0.7635 0.0
C759 C 0.23579 0.34881 0.77374 0.0
C760 C 0.22696 0.36087 0.75232 0.0
C761 C 0.205 0.31587 0.75118 0.0
C762 C 0.19871 0.28742 0.76143 0.0
C763 C 0.21414 0.30367 0.77261 0.0
H764 H 0.68388 0.70228 0.95956 0.0
H765 H 0.79862 0.62304 0.97605 0.0
H766 H 0.65718 0.72935 0.97904 0.0
H767 H 0.77568 0.65402 -0.00447 0.0
H768 H 0.69581 0.6746 0.03034 0.0
H769 H 0.72434 0.64838 0.01088 0.0
H770 H 0.66568 0.77712 0.99492 0.0
H771 H 0.63306 0.79988 0.01424 0.0
C772 C 0.70396 0.69151 0.96738 0.0
C773 C 0.74293 0.66029 0.96636 0.0
C774 C 0.68906 0.70747 0.97862 0.0
C775 C 0.71405 0.69411 0.98907 0.0
C776 C 0.75437 0.66417 0.98786 0.0
C777 C 0.76803 0.64674 0.97667 0.0
C778 C 0.68913 0.69698 0.02261 0.0
C779 C 0.66206 0.7389 0.02368 0.0
C780 C 0.70588 0.68233 0.01141 0.0
C781 C 0.69744 0.71035 0.00112 0.0
C782 C 0.67181 0.7535 0.00243 0.0
C783 C 0.65349 0.76703 0.01354 0.0
H784 H 0.27839 0.29528 0.03037 0.0
H785 H 0.40992 0.24827 0.01379 0.0
H786 H 0.24832 0.32087 0.01086 0.0
H787 H 0.38002 0.27409 0.99435 0.0
H788 H 0.29037 0.28174 0.96007 0.0
H789 H 0.31663 0.25262 0.97962 0.0
H790 H 0.26792 0.38404 -0.00407 0.0
H791 H 0.24144 0.41298 0.97646 0.0
C792 C 0.30082 0.2904 0.02257 0.0
C793 C 0.34649 0.26986 0.0236 0.0
C794 C 0.2837 0.30519 0.01142 0.0
C795 C 0.31182 0.29938 0.00109 0.0
C796 C 0.35733 0.27847 0.00213 0.0
C797 C 0.37455 0.264 0.01327 0.0
C798 C 0.28511 0.30426 0.96785 0.0
C799 C 0.26397 0.34964 0.96675 0.0
C800 C 0.30032 0.28771 0.97902 0.0
C801 C 0.29432 0.3161 0.98929 0.0
C802 C 0.27253 0.36117 0.98819 0.0
C803 C 0.25765 0.37783 0.97703 0.0
H804 H 0.67925 0.80524 0.28133 0.0
H805 H 0.79681 0.8806 0.26495 0.0
H806 H 0.65269 0.77789 0.26186 0.0
H807 H 0.77411 0.8491 0.2455 0.0
H808 H 0.69742 0.82683 0.21041 0.0
H809 H 0.72482 0.8541 0.22985 0.0
H810 H 0.66018 0.72907 0.24623 0.0
H811 H 0.62851 0.70555 0.22688 0.0
C812 C 0.69991 0.81512 0.27353 0.0
C813 C 0.73969 0.8453 0.27457 0.0
C814 C 0.68513 0.79895 0.2623 0.0
C815 C 0.71105 0.81095 0.25189 0.0
C816 C 0.75206 0.84 0.25312 0.0
C817 C 0.76558 0.85773 0.2643 0.0
C818 C 0.68907 0.80552 0.21823 0.0
C819 C 0.66056 0.7645 0.21724 0.0
C820 C 0.70523 0.82075 0.22942 0.0
C821 C 0.69485 0.79412 0.23984 0.0
C822 C 0.66782 0.75174 0.23863 0.0
C823 C 0.65005 0.73774 0.2275 0.0
H824 H 0.25633 0.09312 0.47648 0.0
H825 H 0.20831 0.22519 0.46033 0.0
H826 H 0.22939 0.12138 0.49598 0.0
H827 H 0.18154 0.2536 0.47991 0.0
H828 H 0.09027 0.25888 0.51446 0.0
H829 H 0.11848 0.23261 0.49487 0.0
H830 H 0.25079 0.18442 0.51081 0.0
H831 H 0.22248 0.21045 0.53043 0.0
C832 C 0.2401 0.12825 0.4771 0.0
C833 C 0.2344 0.15698 0.46689 0.0
C834 C 0.22496 0.14451 0.48828 0.0
C835 C 0.20349 0.18972 0.48946 0.0
C836 C 0.19764 0.21843 0.47924 0.0
C837 C 0.21314 0.20228 0.46805 0.0
C838 C 0.12541 0.24274 0.51377 0.0
C839 C 0.15418 0.23662 0.52397 0.0
C840 C 0.14165 0.22798 0.50255 0.0
C841 C 0.18682 0.20651 0.50132 0.0
C842 C 0.21562 0.20047 0.51152 0.0
C843 C 0.19952 0.21555 0.52273 0.0
H844 H 0.91502 0.75885 0.7264 0.0
H845 H 0.78323 0.71023 0.71022 0.0
H846 H 0.8867 0.73168 0.74591 0.0
H847 H 0.75485 0.68327 0.72975 0.0
H848 H 0.74947 0.59061 0.76385 0.0
H849 H 0.7767 0.61968 0.74445 0.0
H850 H 0.82301 0.75187 0.76083 0.0
H851 H 0.79594 0.72266 0.7803 0.0
C852 C 0.87996 0.74248 0.72702 0.0
C853 C 0.85134 0.73656 0.7168 0.0
C854 C 0.86367 0.7272 0.73819 0.0
C855 C 0.8186 0.70538 0.73933 0.0
C856 C 0.78994 0.69957 0.72911 0.0
C857 C 0.80609 0.71518 0.71795 0.0
C858 C 0.76541 0.6259 0.76331 0.0
C859 C 0.77059 0.65441 0.77358 0.0
C860 C 0.78073 0.64262 0.7522 0.0
C861 C 0.80185 0.68805 0.75113 0.0
C862 C 0.80718 0.71654 0.76141 0.0
C863 C 0.79151 0.69993 0.77253 0.0
loop_
_geom_bond_atom_site_label_1
_geom_bond_atom_site_label_2
_geom_bond_distance
_geom_bond_site_symmetry_2
_ccdc_geom_bond_type
Co0 O1 2.216 . S
Co0 O2 2.091 . S
Co0 O4 2.004 . S
Co0 O10 2.021 . S
Co0 O12 2.137 . S
Co0 O13 2.244 . S
O1 Co0 2.216 . S
O1 C8 1.247 . S
O2 Co0 2.091 . S
O2 C8 1.261 . S
C3 O12 1.247 . S
C3 O13 1.272 . S
O4 Co0 2.004 . S
O4 C9 1.259 . S
Co5 O6 2.061 . S
Co5 O11 2.052 . S
Co5 O13 2.135 . S
O6 Co5 2.061 . S
O6 C9 1.235 . S
C7 O10 1.238 . S
C7 O11 1.241 . S
C8 O1 1.247 . S
C8 O2 1.261 . S
C9 O4 1.259 . S
C9 O6 1.235 . S
O10 Co0 2.021 . S
O10 C7 1.238 . S
O11 Co5 2.052 . S
O11 C7 1.241 . S
O12 Co0 2.137 . S
O12 C3 1.247 . S
O13 Co0 2.244 . S
O13 C3 1.272 . S
O13 Co5 2.135 . S
Co14 O15 2.216 . S
Co14 O16 2.091 . S
Co14 O18 2.004 . S
Co14 O24 2.021 . S
Co14 O26 2.137 . S
Co14 O27 2.244 . S
O15 Co14 2.216 . S
O15 C22 1.247 . S
O16 Co14 2.091 . S
O16 C22 1.261 . S
C17 O26 1.247 . S
C17 O27 1.272 . S
O18 Co14 2.004 . S
O18 C23 1.259 . S
Co19 O20 2.061 . S
Co19 O25 2.052 . S
Co19 O27 2.135 . S
O20 Co19 2.061 . S
O20 C23 1.235 . S
C21 O24 1.238 . S
C21 O25 1.241 . S
C22 O15 1.247 . S
C22 O16 1.261 . S
C23 O18 1.259 . S
C23 O20 1.235 . S
O24 Co14 2.021 . S
O24 C21 1.238 . S
O25 Co19 2.052 . S
O25 C21 1.241 . S
O26 Co14 2.137 . S
O26 C17 1.247 . S
O27 Co14 2.244 . S
O27 C17 1.272 . S
O27 Co19 2.135 . S
Co28 O29 2.216 . S
Co28 O30 2.091 . S
Co28 O32 2.004 . S
Co28 O38 2.021 . S
Co28 O40 2.137 . S
Co28 O41 2.244 . S
O29 Co28 2.216 . S
O29 C36 1.247 . S
O30 Co28 2.091 . S
O30 C36 1.261 . S
C31 O40 1.247 . S
C31 O41 1.272 . S
O32 Co28 2.004 . S
O32 C37 1.259 . S
Co33 O34 2.061 . S
Co33 O39 2.052 . S
Co33 O41 2.135 . S
O34 Co33 2.061 . S
O34 C37 1.235 . S
C35 O38 1.238 . S
C35 O39 1.241 . S
C36 O29 1.247 . S
C36 O30 1.261 . S
C37 O32 1.259 . S
C37 O34 1.235 . S
O38 Co28 2.021 . S
O38 C35 1.238 . S
O39 Co33 2.052 . S
O39 C35 1.241 . S
O40 Co28 2.137 . S
O40 C31 1.247 . S
O41 Co28 2.244 . S
O41 C31 1.272 . S
O41 Co33 2.135 . S
Co42 O43 2.216 . S
Co42 O44 2.091 . S
Co42 O46 2.004 . S
Co42 O52 2.021 . S
Co42 O54 2.137 . S
Co42 O55 2.244 . S
O43 Co42 2.216 . S
O43 C50 1.247 . S
O44 Co42 2.091 . S
O44 C50 1.261 . S
C45 O54 1.247 . S
C45 O55 1.272 . S
O46 Co42 2.004 . S
O46 C51 1.259 . S
Co47 O48 2.061 . S
Co47 O53 2.052 . S
Co47 O55 2.135 . S
O48 Co47 2.061 . S
O48 C51 1.235 . S
C49 O52 1.238 . S
C49 O53 1.241 . S
C50 O43 1.247 . S
C50 O44 1.261 . S
C51 O46 1.259 . S
C51 O48 1.235 . S
O52 Co42 2.021 . S
O52 C49 1.238 . S
O53 Co47 2.052 . S
O53 C49 1.241 . S
O54 Co42 2.137 . S
O54 C45 1.247 . S
O55 Co42 2.244 . S
O55 C45 1.272 . S
O55 Co47 2.135 . S
Co56 O57 2.216 . S
Co56 O58 2.091 . S
Co56 O60 2.004 . S
Co56 O66 2.021 . S
Co56 O68 2.137 . S
Co56 O69 2.244 . S
O57 Co56 2.216 . S
O57 C64 1.247 . S
O58 Co56 2.091 . S
O58 C64 1.261 . S
C59 O68 1.247 . S
C59 O69 1.272 . S
O60 Co56 2.004 . S
O60 C65 1.259 . S
Co61 O62 2.061 . S
Co61 O67 2.052 . S
Co61 O69 2.135 . S
O62 Co61 2.061 . S
O62 C65 1.235 . S
C63 O66 1.238 . S
C63 O67 1.241 . S
C64 O57 1.247 . S
C64 O58 1.261 . S
C65 O60 1.259 . S
C65 O62 1.235 . S
O66 Co56 2.021 . S
O66 C63 1.238 . S
O67 Co61 2.052 . S
O67 C63 1.241 . S
O68 Co56 2.137 . S
O68 C59 1.247 . S
O69 Co56 2.244 . S
O69 C59 1.272 . S
O69 Co61 2.135 . S
Co70 O71 2.216 . S
Co70 O72 2.091 . S
Co70 O74 2.004 . S
Co70 O80 2.021 . S
Co70 O82 2.137 . S
Co70 O83 2.244 . S
O71 Co70 2.216 . S
O71 C78 1.247 . S
O72 Co70 2.091 . S
O72 C78 1.261 . S
C73 O82 1.247 . S
C73 O83 1.272 . S
O74 Co70 2.004 . S
O74 C79 1.259 . S
Co75 O76 2.061 . S
Co75 O81 2.052 . S
Co75 O83 2.135 . S
O76 Co75 2.061 . S
O76 C79 1.235 . S
C77 O80 1.238 . S
C77 O81 1.241 . S
C78 O71 1.247 . S
C78 O72 1.261 . S
C79 O74 1.259 . S
C79 O76 1.235 . S
O80 Co70 2.021 . S
O80 C77 1.238 . S
O81 Co75 2.052 . S
O81 C77 1.241 . S
O82 Co70 2.137 . S
O82 C73 1.247 . S
O83 Co70 2.244 . S
O83 C73 1.272 . S
O83 Co75 2.135 . S
Co84 O85 2.216 . S
Co84 O86 2.091 . S
Co84 O88 2.004 . S
Co84 O94 2.021 . S
Co84 O96 2.137 . S
Co84 O97 2.244 . S
O85 Co84 2.216 . S
O85 C92 1.247 . S
O86 Co84 2.091 . S
O86 C92 1.261 . S
C87 O96 1.247 . S
C87 O97 1.272 . S
O88 Co84 2.004 . S
O88 C93 1.259 . S
Co89 O90 2.061 . S
Co89 O95 2.052 . S
Co89 O97 2.135 . S
O90 Co89 2.061 . S
O90 C93 1.235 . S
C91 O94 1.238 . S
C91 O95 1.241 . S
C92 O85 1.247 . S
C92 O86 1.261 . S
C93 O88 1.259 . S
C93 O90 1.235 . S
O94 Co84 2.021 . S
O94 C91 1.238 . S
O95 Co89 2.052 . S
O95 C91 1.241 . S
O96 Co84 2.137 . S
O96 C87 1.247 . S
O97 Co84 2.244 . S
O97 C87 1.272 . S
O97 Co89 2.135 . S
Co98 O99 2.216 . S
Co98 O100 2.091 . S
Co98 O102 2.004 . S
Co98 O108 2.021 . S
Co98 O110 2.137 . S
Co98 O111 2.244 . S
O99 Co98 2.216 . S
O99 C106 1.247 . S
O100 Co98 2.091 . S
O100 C106 1.261 . S
C101 O110 1.247 . S
C101 O111 1.272 . S
O102 Co98 2.004 . S
O102 C107 1.259 . S
Co103 O104 2.061 . S
Co103 O109 2.052 . S
Co103 O111 2.135 . S
O104 Co103 2.061 . S
O104 C107 1.235 . S
C105 O108 1.238 . S
C105 O109 1.241 . S
C106 O99 1.247 . S
C106 O100 1.261 . S
C107 O102 1.259 . S
C107 O104 1.235 . S
O108 Co98 2.021 . S
O108 C105 1.238 . S
O109 Co103 2.052 . S
O109 C105 1.241 . S
O110 Co98 2.137 . S
O110 C101 1.247 . S
O111 Co98 2.244 . S
O111 C101 1.272 . S
O111 Co103 2.135 . S
Co112 O113 2.216 . S
Co112 O114 2.091 . S
Co112 O116 2.004 . S
Co112 O122 2.021 . S
Co112 O124 2.137 . S
Co112 O125 2.244 . S
O113 Co112 2.216 . S
O113 C120 1.247 . S
O114 Co112 2.091 . S
O114 C120 1.261 . S
C115 O124 1.247 . S
C115 O125 1.272 . S
O116 Co112 2.004 . S
O116 C121 1.259 . S
Co117 O118 2.061 . S
Co117 O123 2.052 . S
Co117 O125 2.135 . S
O118 Co117 2.061 . S
O118 C121 1.235 . S
C119 O122 1.238 . S
C119 O123 1.241 . S
C120 O113 1.247 . S
C120 O114 1.261 . S
C121 O116 1.259 . S
C121 O118 1.235 . S
O122 Co112 2.021 . S
O122 C119 1.238 . S
O123 Co117 2.052 . S
O123 C119 1.241 . S
O124 Co112 2.137 . S
O124 C115 1.247 . S
O125 Co112 2.244 . S
O125 C115 1.272 . S
O125 Co117 2.135 . S
Co126 O127 2.216 . S
Co126 O128 2.091 . S
Co126 O130 2.004 . S
Co126 O136 2.021 . S
Co126 O138 2.137 . S
Co126 O139 2.244 . S
O127 Co126 2.216 . S
O127 C134 1.247 . S
O128 Co126 2.091 . S
O128 C134 1.261 . S
C129 O138 1.247 . S
C129 O139 1.272 . S
O130 Co126 2.004 . S
O130 C135 1.259 . S
Co131 O132 2.061 . S
Co131 O137 2.052 . S
Co131 O139 2.135 . S
O132 Co131 2.061 . S
O132 C135 1.235 . S
C133 O136 1.238 . S
C133 O137 1.241 . S
C134 O127 1.247 . S
C134 O128 1.261 . S
C135 O130 1.259 . S
C135 O132 1.235 . S
O136 Co126 2.021 . S
O136 C133 1.238 . S
O137 Co131 2.052 . S
O137 C133 1.241 . S
O138 Co126 2.137 . S
O138 C129 1.247 . S
O139 Co126 2.244 . S
O139 C129 1.272 . S
O139 Co131 2.135 . S
Co140 O141 2.216 . S
Co140 O142 2.091 . S
Co140 O144 2.004 . S
Co140 O150 2.021 . S
Co140 O152 2.137 . S
Co140 O153 2.244 . S
O141 Co140 2.216 . S
O141 C148 1.247 . S
O142 Co140 2.091 . S
O142 C148 1.261 . S
C143 O152 1.247 . S
C143 O153 1.272 . S
O144 Co140 2.004 . S
O144 C149 1.259 . S
Co145 O146 2.061 . S
Co145 O151 2.052 . S
Co145 O153 2.135 . S
O146 Co145 2.061 . S
O146 C149 1.235 . S
C147 O150 1.238 . S
C147 O151 1.241 . S
C148 O141 1.247 . S
C148 O142 1.261 . S
C149 O144 1.259 . S
C149 O146 1.235 . S
O150 Co140 2.021 . S
O150 C147 1.238 . S
O151 Co145 2.052 . S
O151 C147 1.241 . S
O152 Co140 2.137 . S
O152 C143 1.247 . S
O153 Co140 2.244 . S
O153 C143 1.272 . S
O153 Co145 2.135 . S
Co154 O155 2.216 . S
Co154 O156 2.091 . S
Co154 O158 2.004 . S
Co154 O164 2.021 . S
Co154 O166 2.137 . S
Co154 O167 2.244 . S
O155 Co154 2.216 . S
O155 C162 1.247 . S
O156 Co154 2.091 . S
O156 C162 1.261 . S
C157 O166 1.247 . S
C157 O167 1.272 . S
O158 Co154 2.004 . S
O158 C163 1.259 . S
Co159 O160 2.061 . S
Co159 O165 2.052 . S
Co159 O167 2.135 . S
O160 Co159 2.061 . S
O160 C163 1.235 . S
C161 O164 1.238 . S
C161 O165 1.241 . S
C162 O155 1.247 . S
C162 O156 1.261 . S
C163 O158 1.259 . S
C163 O160 1.235 . S
O164 Co154 2.021 . S
O164 C161 1.238 . S
O165 Co159 2.052 . S
O165 C161 1.241 . S
O166 Co154 2.137 . S
O166 C157 1.247 . S
O167 Co154 2.244 . S
O167 C157 1.272 . S
O167 Co159 2.135 . S
Co168 O169 2.216 . S
Co168 O170 2.091 . S
Co168 O172 2.004 . S
Co168 O178 2.021 . S
Co168 O180 2.137 . S
Co168 O181 2.244 . S
O169 Co168 2.216 . S
O169 C176 1.247 . S
O170 Co168 2.091 . S
O170 C176 1.261 . S
C171 O180 1.247 . S
C171 O181 1.272 . S
O172 Co168 2.004 . S
O172 C177 1.259 . S
Co173 O174 2.061 . S
Co173 O179 2.052 . S
Co173 O181 2.135 . S
O174 Co173 2.061 . S
O174 C177 1.235 . S
C175 O178 1.238 . S
C175 O179 1.241 . S
C176 O169 1.247 . S
C176 O170 1.261 . S
C177 O172 1.259 . S
C177 O174 1.235 . S
O178 Co168 2.021 . S
O178 C175 1.238 . S
O179 Co173 2.052 . S
O179 C175 1.241 . S
O180 Co168 2.137 . S
O180 C171 1.247 . S
O181 Co168 2.244 . S
O181 C171 1.272 . S
O181 Co173 2.135 . S
Co182 O183 2.216 . S
Co182 O184 2.091 . S
Co182 O186 2.004 . S
Co182 O192 2.021 . S
Co182 O194 2.137 . S
Co182 O195 2.244 . S
O183 Co182 2.216 . S
O183 C190 1.247 . S
O184 Co182 2.091 . S
O184 C190 1.261 . S
C185 O194 1.247 . S
C185 O195 1.272 . S
O186 Co182 2.004 . S
O186 C191 1.259 . S
Co187 O188 2.061 . S
Co187 O193 2.052 . S
Co187 O195 2.135 . S
O188 Co187 2.061 . S
O188 C191 1.235 . S
C189 O192 1.238 . S
C189 O193 1.241 . S
C190 O183 1.247 . S
C190 O184 1.261 . S
C191 O186 1.259 . S
C191 O188 1.235 . S
O192 Co182 2.021 . S
O192 C189 1.238 . S
O193 Co187 2.052 . S
O193 C189 1.241 . S
O194 Co182 2.137 . S
O194 C185 1.247 . S
O195 Co182 2.244 . S
O195 C185 1.272 . S
O195 Co187 2.135 . S
Co196 O197 2.216 . S
Co196 O198 2.091 . S
Co196 O200 2.004 . S
Co196 O206 2.021 . S
Co196 O208 2.137 . S
Co196 O209 2.244 . S
O197 Co196 2.216 . S
O197 C204 1.247 . S
O198 Co196 2.091 . S
O198 C204 1.261 . S
C199 O208 1.247 . S
C199 O209 1.272 . S
O200 Co196 2.004 . S
O200 C205 1.259 . S
Co201 O202 2.061 . S
Co201 O207 2.052 . S
Co201 O209 2.135 . S
O202 Co201 2.061 . S
O202 C205 1.235 . S
C203 O206 1.238 . S
C203 O207 1.241 . S
C204 O197 1.247 . S
C204 O198 1.261 . S
C205 O200 1.259 . S
C205 O202 1.235 . S
O206 Co196 2.021 . S
O206 C203 1.238 . S
O207 Co201 2.052 . S
O207 C203 1.241 . S
O208 Co196 2.137 . S
O208 C199 1.247 . S
O209 Co196 2.244 . S
O209 C199 1.272 . S
O209 Co201 2.135 . S
Co210 O211 2.216 . S
Co210 O212 2.091 . S
Co210 O214 2.004 . S
Co210 O220 2.021 . S
Co210 O222 2.137 . S
Co210 O223 2.244 . S
O211 Co210 2.216 . S
O211 C218 1.247 . S
O212 Co210 2.091 . S
O212 C218 1.261 . S
C213 O222 1.247 . S
C213 O223 1.272 . S
O214 Co210 2.004 . S
O214 C219 1.259 . S
Co215 O216 2.061 . S
Co215 O221 2.052 . S
Co215 O223 2.135 . S
O216 Co215 2.061 . S
O216 C219 1.235 . S
C217 O220 1.238 . S
C217 O221 1.241 . S
C218 O211 1.247 . S
C218 O212 1.261 . S
C219 O214 1.259 . S
C219 O216 1.235 . S
O220 Co210 2.021 . S
O220 C217 1.238 . S
O221 Co215 2.052 . S
O221 C217 1.241 . S
O222 Co210 2.137 . S
O222 C213 1.247 . S
O223 Co210 2.244 . S
O223 C213 1.272 . S
O223 Co215 2.135 . S
H224 C232 0.950 . S
H225 C237 0.950 . S
H226 C234 0.950 1_455 S
H227 C236 0.950 . S
H228 C238 0.950 . S
H229 C240 0.950 1_655 S
H230 C242 0.950 . S
H231 C243 0.950 . S
C232 H224 0.950 . S
C232 C233 1.386 . S
C232 C234 1.391 . S
C233 C232 1.386 . S
C233 C237 1.393 . S
C234 H226 0.950 1_655 S
C234 C232 1.391 . S
C234 C235 1.400 . S
C235 C234 1.400 . S
C235 C236 1.398 1_565 S
C235 C241 1.491 1_665 S
C236 H227 0.950 . S
C236 C235 1.398 1_545 S
C236 C237 1.391 1_545 S
C237 H225 0.950 . S
C237 C233 1.393 . S
C237 C236 1.391 1_565 S
C238 H228 0.950 . S
C238 C239 1.386 . S
C238 C240 1.391 . S
C239 C238 1.386 . S
C239 C243 1.393 . S
C240 H229 0.950 1_455 S
C240 C238 1.391 . S
C240 C241 1.400 . S
C241 C235 1.491 1_445 S
C241 C240 1.400 . S
C241 C242 1.398 1_545 S
C242 H230 0.950 . S
C242 C241 1.398 1_565 S
C242 C243 1.391 1_565 S
C243 H231 0.950 . S
C243 C239 1.393 . S
C243 C242 1.391 1_545 S
H244 C252 0.961 . S
H245 C257 0.950 . S
H246 C254 0.950 . S
H247 C256 0.950 . S
H248 C258 0.961 . S
H249 C260 0.950 . S
H250 C262 0.950 . S
H251 C263 0.950 . S
C252 H244 0.961 . S
C252 C253 1.386 . S
C252 C254 1.391 1_655 S
C253 C252 1.386 . S
C253 C257 1.393 . S
C254 H246 0.950 . S
C254 C252 1.391 1_455 S
C254 C255 1.400 1_455 S
C255 C254 1.400 1_655 S
C255 C256 1.398 . S
C255 C261 1.491 1_655 S
C256 H247 0.950 . S
C256 C255 1.398 . S
C256 C257 1.391 . S
C257 H245 0.950 . S
C257 C253 1.393 . S
C257 C256 1.391 . S
C258 H248 0.961 . S
C258 C259 1.386 . S
C258 C260 1.391 1_455 S
C259 C258 1.386 . S
C259 C263 1.393 . S
C260 H249 0.950 . S
C260 C258 1.391 1_655 S
C260 C261 1.400 1_655 S
C261 C255 1.491 1_455 S
C261 C260 1.400 1_455 S
C261 C262 1.398 . S
C262 H250 0.950 . S
C262 C261 1.398 . S
C262 C263 1.391 . S
C263 H251 0.950 . S
C263 C259 1.393 . S
C263 C262 1.391 . S
H264 C272 0.950 . S
H265 C277 0.950 . S
H266 C274 0.950 . S
H267 C276 0.950 . S
H268 C278 0.950 . S
H269 C280 0.950 . S
H270 C282 0.950 . S
H271 C283 0.950 . S
C272 H264 0.950 . S
C272 C273 1.386 . S
C272 C274 1.391 . S
C273 C272 1.386 . S
C273 C277 1.393 . S
C274 H266 0.950 . S
C274 C272 1.391 . S
C274 C275 1.400 . S
C275 C274 1.400 . S
C275 C276 1.398 . S
C275 C281 1.491 . S
C276 H267 0.950 . S
C276 C275 1.398 . S
C276 C277 1.391 . S
C277 H265 0.950 . S
C277 C273 1.393 . S
C277 C276 1.391 . S
C278 H268 0.950 . S
C278 C279 1.386 . S
C278 C280 1.391 . S
C279 C278 1.386 . S
C279 C283 1.393 . S
C280 H269 0.950 . S
C280 C278 1.391 . S
C280 C281 1.400 . S
C281 C275 1.491 . S
C281 C280 1.400 . S
C281 C282 1.398 . S
C282 H270 0.950 . S
C282 C281 1.398 . S
C282 C283 1.391 . S
C283 H271 0.950 . S
C283 C279 1.393 . S
C283 C282 1.391 . S
H284 C292 0.950 . S
H285 C297 0.950 . S
H286 C294 0.931 1_565 S
H287 C296 0.950 . S
H288 C298 0.950 . S
H289 C300 0.933 1_545 S
H290 C302 0.950 . S
H291 C303 0.950 . S
C292 H284 0.950 . S
C292 C293 1.386 . S
C292 C294 1.391 . S
C293 C292 1.386 . S
C293 C297 1.393 . S
C294 H286 0.931 1_545 S
C294 C292 1.391 . S
C294 C295 1.400 . S
C295 C294 1.400 . S
C295 C296 1.398 . S
C295 C301 1.491 1_545 S
C296 H287 0.950 . S
C296 C295 1.398 . S
C296 C297 1.391 . S
C297 H285 0.950 . S
C297 C293 1.393 . S
C297 C296 1.391 . S
C298 H288 0.950 . S
C298 C299 1.386 . S
C298 C300 1.391 . S
C299 C298 1.386 . S
C299 C303 1.393 . S
C300 H289 0.933 1_565 S
C300 C298 1.391 . S
C300 C301 1.400 . S
C301 C295 1.491 1_565 S
C301 C300 1.400 . S
C301 C302 1.398 . S
C302 H290 0.950 . S
C302 C301 1.398 . S
C302 C303 1.391 . S
C303 H291 0.950 . S
C303 C299 1.393 . S
C303 C302 1.391 . S
H304 C312 0.950 . S
H305 C317 0.950 . S
H306 C314 0.950 . S
H307 C316 0.950 . S
H308 C318 0.950 . S
H309 C320 0.950 . S
H310 C322 0.950 . S
H311 C323 0.950 . S
C312 H304 0.950 . S
C312 C313 1.386 . S
C312 C314 1.391 . S
C313 C312 1.386 . S
C313 C317 1.393 . S
C314 H306 0.950 . S
C314 C312 1.391 . S
C314 C315 1.400 . S
C315 C314 1.400 . S
C315 C316 1.398 . S
C315 C321 1.491 1_455 S
C316 H307 0.950 . S
C316 C315 1.398 . S
C316 C317 1.391 . S
C317 H305 0.950 . S
C317 C313 1.393 . S
C317 C316 1.391 . S
C318 H308 0.950 . S
C318 C319 1.386 . S
C318 C320 1.391 . S
C319 C318 1.386 . S
C319 C323 1.393 . S
C320 H309 0.950 . S
C320 C318 1.391 . S
C320 C321 1.400 . S
C321 C315 1.491 1_655 S
C321 C320 1.400 . S
C321 C322 1.398 . S
C322 H310 0.950 . S
C322 C321 1.398 . S
C322 C323 1.391 . S
C323 H311 0.950 . S
C323 C319 1.393 . S
C323 C322 1.391 . S
H324 C332 0.950 . S
H325 C337 0.950 . S
H326 C334 0.950 . S
H327 C336 0.950 . S
H328 C338 0.950 . S
H329 C340 0.950 . S
H330 C342 0.950 . S
H331 C343 0.950 . S
C332 H324 0.950 . S
C332 C333 1.386 . S
C332 C334 1.391 . S
C333 C332 1.386 . S
C333 C337 1.393 . S
C334 H326 0.950 . S
C334 C332 1.391 . S
C334 C335 1.400 . S
C335 C334 1.400 . S
C335 C336 1.398 . S
C335 C341 1.491 . S
C336 H327 0.950 . S
C336 C335 1.398 . S
C336 C337 1.391 . S
C337 H325 0.950 . S
C337 C333 1.393 . S
C337 C336 1.391 . S
C338 H328 0.950 . S
C338 C339 1.386 . S
C338 C340 1.391 . S
C339 C338 1.386 . S
C339 C343 1.393 . S
C340 H329 0.950 . S
C340 C338 1.391 . S
C340 C341 1.400 . S
C341 C335 1.491 . S
C341 C340 1.400 . S
C341 C342 1.398 . S
C342 H330 0.950 . S
C342 C341 1.398 . S
C342 C343 1.391 . S
C343 H331 0.950 . S
C343 C339 1.393 . S
C343 C342 1.391 . S
H344 C352 0.950 . S
H345 C357 0.950 . S
H346 C354 0.950 . S
H347 C356 0.950 . S
H348 C358 0.950 . S
H349 C360 0.950 . S
H350 C362 0.950 . S
H351 C363 0.950 . S
C352 H344 0.950 . S
C352 C353 1.386 . S
C352 C354 1.391 1_545 S
C353 C352 1.386 . S
C353 C357 1.393 . S
C354 H346 0.950 . S
C354 C352 1.391 1_565 S
C354 C355 1.400 1_565 S
C355 C354 1.400 1_545 S
C355 C356 1.398 . S
C355 C361 1.491 1_545 S
C356 H347 0.950 . S
C356 C355 1.398 . S
C356 C357 1.391 . S
C357 H345 0.950 . S
C357 C353 1.393 . S
C357 C356 1.391 . S
C358 H348 0.950 . S
C358 C359 1.386 . S
C358 C360 1.391 1_565 S
C359 C358 1.386 . S
C359 C363 1.393 . S
C360 H349 0.950 . S
C360 C358 1.391 1_545 S
C360 C361 1.400 1_545 S
C361 C355 1.491 1_565 S
C361 C360 1.400 1_565 S
C361 C362 1.398 . S
C362 H350 0.950 . S
C362 C361 1.398 . S
C362 C363 1.391 . S
C363 H351 0.950 . S
C363 C359 1.393 . S
C363 C362 1.391 . S
H364 C372 0.950 . S
H365 C377 0.950 . S
H366 C374 0.950 . S
H367 C376 0.950 . S
H368 C378 0.950 . S
H369 C380 0.950 . S
H370 C382 0.950 . S
H371 C383 0.950 . S
C372 H364 0.950 . S
C372 C373 1.386 . S
C372 C374 1.391 . S
C373 C372 1.386 . S
C373 C377 1.393 . S
C374 H366 0.950 . S
C374 C372 1.391 . S
C374 C375 1.400 . S
C375 C374 1.400 . S
C375 C376 1.398 . S
C375 C381 1.491 1_445 S
C376 H367 0.950 . S
C376 C375 1.398 . S
C376 C377 1.391 . S
C377 H365 0.950 . S
C377 C373 1.393 . S
C377 C376 1.391 . S
C378 H368 0.950 . S
C378 C379 1.386 . S
C378 C380 1.391 . S
C379 C378 1.386 . S
C379 C383 1.393 . S
C380 H369 0.950 . S
C380 C378 1.391 . S
C380 C381 1.400 . S
C381 C375 1.491 1_665 S
C381 C380 1.400 . S
C381 C382 1.398 . S
C382 H370 0.950 . S
C382 C381 1.398 . S
C382 C383 1.391 . S
C383 H371 0.950 . S
C383 C379 1.393 . S
C383 C382 1.391 . S
H384 C392 0.950 . S
H385 C397 0.950 . S
H386 C394 0.950 . S
H387 C396 0.945 1_545 S
H388 C398 0.950 . S
H389 C400 0.950 . S
H390 C402 0.944 1_565 S
H391 C403 0.950 . S
C392 H384 0.950 . S
C392 C393 1.386 . S
C392 C394 1.391 . S
C393 C392 1.386 . S
C393 C397 1.393 . S
C394 H386 0.950 . S
C394 C392 1.391 . S
C394 C395 1.400 . S
C395 C394 1.400 . S
C395 C396 1.400 . S
C395 C401 1.491 1_565 S
C396 H387 0.945 1_565 S
C396 C395 1.400 . S
C396 C397 1.394 . S
C397 H385 0.950 . S
C397 C393 1.393 . S
C397 C396 1.394 . S
C398 H388 0.950 . S
C398 C399 1.386 . S
C398 C400 1.391 . S
C399 C398 1.386 . S
C399 C403 1.393 . S
C400 H389 0.950 . S
C400 C398 1.391 . S
C400 C401 1.400 . S
C401 C395 1.491 1_545 S
C401 C400 1.400 . S
C401 C402 1.400 . S
C402 H390 0.944 1_545 S
C402 C401 1.400 . S
C402 C403 1.395 . S
C403 H391 0.950 . S
C403 C399 1.393 . S
C403 C402 1.395 . S
H404 C412 0.950 . S
H405 C417 0.950 . S
H406 C414 0.950 . S
H407 C416 0.950 . S
H408 C418 0.950 . S
H409 C420 0.950 . S
H410 C422 0.950 . S
H411 C423 0.950 . S
C412 H404 0.950 . S
C412 C413 1.386 . S
C412 C414 1.391 . S
C413 C412 1.386 . S
C413 C417 1.393 . S
C414 H406 0.950 . S
C414 C412 1.391 . S
C414 C415 1.400 . S
C415 C414 1.400 . S
C415 C416 1.398 1_655 S
C415 C421 1.491 1_665 S
C416 H407 0.950 . S
C416 C415 1.398 1_455 S
C416 C417 1.391 1_455 S
C417 H405 0.950 . S
C417 C413 1.393 . S
C417 C416 1.391 1_655 S
C418 H408 0.950 . S
C418 C419 1.386 . S
C418 C420 1.391 . S
C419 C418 1.386 . S
C419 C423 1.393 . S
C420 H409 0.950 . S
C420 C418 1.391 . S
C420 C421 1.400 . S
C421 C415 1.491 1_445 S
C421 C420 1.400 . S
C421 C422 1.398 1_455 S
C422 H410 0.950 . S
C422 C421 1.398 1_655 S
C422 C423 1.391 1_655 S
C423 H411 0.950 . S
C423 C419 1.393 . S
C423 C422 1.391 1_455 S
H424 C432 0.950 . S
H425 C437 0.950 . S
H426 C434 0.950 . S
H427 C436 0.950 . S
H428 C438 0.950 . S
H429 C440 0.950 . S
H430 C442 0.950 . S
H431 C443 0.950 . S
C432 H424 0.950 . S
C432 C433 1.386 . S
C432 C434 1.391 . S
C433 C432 1.386 . S
C433 C437 1.393 . S
C434 H426 0.950 . S
C434 C432 1.391 . S
C434 C435 1.400 . S
C435 C434 1.400 . S
C435 C436 1.398 . S
C435 C441 1.491 1_455 S
C436 H427 0.950 . S
C436 C435 1.398 . S
C436 C437 1.391 . S
C437 H425 0.950 . S
C437 C433 1.393 . S
C437 C436 1.391 . S
C438 H428 0.950 . S
C438 C439 1.386 . S
C438 C440 1.391 . S
C439 C438 1.386 . S
C439 C443 1.393 . S
C440 H429 0.950 . S
C440 C438 1.391 . S
C440 C441 1.400 . S
C441 C435 1.491 1_655 S
C441 C440 1.400 . S
C441 C442 1.398 . S
C442 H430 0.950 . S
C442 C441 1.398 . S
C442 C443 1.391 . S
C443 H431 0.950 . S
C443 C439 1.393 . S
C443 C442 1.391 . S
H444 C452 0.950 . S
H445 C457 0.950 . S
H446 C454 0.950 . S
H447 C456 0.950 . S
H448 C458 0.950 . S
H449 C460 0.950 . S
H450 C462 0.950 . S
H451 C463 0.950 . S
C452 H444 0.950 . S
C452 C453 1.386 . S
C452 C454 1.391 . S
C453 C452 1.386 . S
C453 C457 1.393 . S
C454 H446 0.950 . S
C454 C452 1.391 . S
C454 C455 1.400 . S
C455 C454 1.400 . S
C455 C456 1.398 . S
C455 C461 1.491 . S
C456 H447 0.950 . S
C456 C455 1.398 . S
C456 C457 1.391 . S
C457 H445 0.950 . S
C457 C453 1.393 . S
C457 C456 1.391 . S
C458 H448 0.950 . S
C458 C459 1.386 . S
C458 C460 1.391 . S
C459 C458 1.386 . S
C459 C463 1.393 . S
C460 H449 0.950 . S
C460 C458 1.391 . S
C460 C461 1.400 . S
C461 C455 1.491 . S
C461 C460 1.400 . S
C461 C462 1.398 . S
C462 H450 0.950 . S
C462 C461 1.398 . S
C462 C463 1.391 . S
C463 H451 0.950 . S
C463 C459 1.393 . S
C463 C462 1.391 . S
H464 C472 0.950 . S
H465 C477 0.950 . S
H466 C474 0.950 . S
H467 C476 0.950 . S
H468 C478 0.950 . S
H469 C480 0.950 . S
H470 C482 0.950 . S
H471 C483 0.950 . S
C472 H464 0.950 . S
C472 C473 1.386 . S
C472 C474 1.391 . S
C473 C472 1.386 . S
C473 C477 1.393 . S
C474 H466 0.950 . S
C474 C472 1.391 . S
C474 C475 1.400 . S
C475 C474 1.400 . S
C475 C476 1.398 . S
C475 C481 1.491 . S
C476 H467 0.950 . S
C476 C475 1.398 . S
C476 C477 1.391 . S
C477 H465 0.950 . S
C477 C473 1.393 . S
C477 C476 1.391 . S
C478 H468 0.950 . S
C478 C479 1.386 . S
C478 C480 1.391 . S
C479 C478 1.386 . S
C479 C483 1.393 . S
C480 H469 0.950 . S
C480 C478 1.391 . S
C480 C481 1.400 . S
C481 C475 1.491 . S
C481 C480 1.400 . S
C481 C482 1.398 . S
C482 H470 0.950 . S
C482 C481 1.398 . S
C482 C483 1.391 . S
C483 H471 0.950 . S
C483 C479 1.393 . S
C483 C482 1.391 . S
H484 C492 0.950 . S
H485 C497 0.950 . S
H486 C494 0.950 . S
H487 C496 0.950 1_545 S
H488 C498 0.950 . S
H489 C500 0.950 . S
H490 C502 0.950 1_565 S
H491 C503 0.950 . S
C492 H484 0.950 . S
C492 C493 1.386 . S
C492 C494 1.391 . S
C493 C492 1.386 . S
C493 C497 1.393 . S
C494 H486 0.950 . S
C494 C492 1.391 . S
C494 C495 1.400 . S
C495 C494 1.400 . S
C495 C496 1.398 . S
C495 C501 1.491 1_565 S
C496 H487 0.950 1_565 S
C496 C495 1.398 . S
C496 C497 1.391 . S
C497 H485 0.950 . S
C497 C493 1.393 . S
C497 C496 1.391 . S
C498 H488 0.950 . S
C498 C499 1.386 . S
C498 C500 1.391 . S
C499 C498 1.386 . S
C499 C503 1.393 . S
C500 H489 0.950 . S
C500 C498 1.391 . S
C500 C501 1.400 . S
C501 C495 1.491 1_545 S
C501 C500 1.400 . S
C501 C502 1.398 . S
C502 H490 0.950 1_545 S
C502 C501 1.398 . S
C502 C503 1.391 . S
C503 H491 0.950 . S
C503 C499 1.393 . S
C503 C502 1.391 . S
H504 C512 0.950 1_545 S
H505 C517 0.950 . S
H506 C514 0.950 . S
H507 C516 0.950 1_455 S
H508 C518 0.950 1_565 S
H509 C520 0.950 . S
H510 C522 0.950 1_655 S
H511 C523 0.950 . S
C512 H504 0.950 1_565 S
C512 C513 1.386 . S
C512 C514 1.391 1_565 S
C513 C512 1.386 . S
C513 C517 1.393 . S
C514 H506 0.950 . S
C514 C512 1.391 1_545 S
C514 C515 1.400 1_545 S
C515 C514 1.400 1_565 S
C515 C516 1.398 . S
C515 C521 1.491 1_665 S
C516 H507 0.950 1_655 S
C516 C515 1.398 . S
C516 C517 1.391 . S
C517 H505 0.950 . S
C517 C513 1.393 . S
C517 C516 1.391 . S
C518 H508 0.950 1_545 S
C518 C519 1.386 . S
C518 C520 1.391 1_545 S
C519 C518 1.386 . S
C519 C523 1.393 . S
C520 H509 0.950 . S
C520 C518 1.391 1_565 S
C520 C521 1.400 1_565 S
C521 C515 1.491 1_445 S
C521 C520 1.400 1_545 S
C521 C522 1.398 . S
C522 H510 0.950 1_455 S
C522 C521 1.398 . S
C522 C523 1.391 . S
C523 H511 0.950 . S
C523 C519 1.393 . S
C523 C522 1.391 . S
H524 C532 0.950 . S
H525 C537 0.950 1_655 S
H526 C534 0.950 . S
H527 C536 0.950 . S
H528 C538 0.950 . S
H529 C540 0.950 . S
H530 C542 0.950 . S
H531 C543 0.950 1_455 S
C532 H524 0.950 . S
C532 C533 1.386 . S
C532 C534 1.391 . S
C533 C532 1.386 . S
C533 C537 1.393 . S
C534 H526 0.950 . S
C534 C532 1.391 . S
C534 C535 1.400 . S
C535 C534 1.400 . S
C535 C536 1.398 1_455 S
C535 C541 1.491 1_455 S
C536 H527 0.950 . S
C536 C535 1.398 1_655 S
C536 C537 1.391 1_655 S
C537 H525 0.950 1_455 S
C537 C533 1.393 . S
C537 C536 1.391 1_455 S
C538 H528 0.950 . S
C538 C539 1.386 . S
C538 C540 1.391 . S
C539 C538 1.386 . S
C539 C543 1.393 . S
C540 H529 0.950 . S
C540 C538 1.391 . S
C540 C541 1.400 . S
C541 C535 1.491 1_655 S
C541 C540 1.400 . S
C541 C542 1.398 1_655 S
C542 H530 0.950 . S
C542 C541 1.398 1_455 S
C542 C543 1.391 1_455 S
C543 H531 0.950 1_655 S
C543 C539 1.393 . S
C543 C542 1.391 1_655 S
H544 C552 0.950 . S
H545 C557 0.950 . S
H546 C554 0.950 . S
H547 C556 0.950 . S
H548 C558 0.950 . S
H549 C560 0.950 . S
H550 C562 0.950 . S
H551 C563 0.950 . S
C552 H544 0.950 . S
C552 C553 1.386 . S
C552 C554 1.391 . S
C553 C552 1.386 . S
C553 C557 1.393 . S
C554 H546 0.950 . S
C554 C552 1.391 . S
C554 C555 1.400 . S
C555 C554 1.400 . S
C555 C556 1.398 . S
C555 C561 1.491 . S
C556 H547 0.950 . S
C556 C555 1.398 . S
C556 C557 1.391 . S
C557 H545 0.950 . S
C557 C553 1.393 . S
C557 C556 1.391 . S
C558 H548 0.950 . S
C558 C559 1.386 . S
C558 C560 1.391 . S
C559 C558 1.386 . S
C559 C563 1.393 . S
C560 H549 0.950 . S
C560 C558 1.391 . S
C560 C561 1.400 . S
C561 C555 1.491 . S
C561 C560 1.400 . S
C561 C562 1.398 . S
C562 H550 0.950 . S
C562 C561 1.398 . S
C562 C563 1.391 . S
C563 H551 0.950 . S
C563 C559 1.393 . S
C563 C562 1.391 . S
H564 C572 0.950 . S
H565 C577 0.950 . S
H566 C574 0.950 . S
H567 C576 0.950 . S
H568 C578 0.950 . S
H569 C580 0.950 . S
H570 C582 0.950 . S
H571 C583 0.950 . S
C572 H564 0.950 . S
C572 C573 1.386 . S
C572 C574 1.391 . S
C573 C572 1.386 . S
C573 C577 1.393 . S
C574 H566 0.950 . S
C574 C572 1.391 . S
C574 C575 1.400 . S
C575 C574 1.400 . S
C575 C576 1.398 . S
C575 C581 1.491 . S
C576 H567 0.950 . S
C576 C575 1.398 . S
C576 C577 1.391 . S
C577 H565 0.950 . S
C577 C573 1.393 . S
C577 C576 1.391 . S
C578 H568 0.950 . S
C578 C579 1.386 . S
C578 C580 1.391 . S
C579 C578 1.386 . S
C579 C583 1.393 . S
C580 H569 0.950 . S
C580 C578 1.391 . S
C580 C581 1.400 . S
C581 C575 1.491 . S
C581 C580 1.400 . S
C581 C582 1.398 . S
C582 H570 0.950 . S
C582 C581 1.398 . S
C582 C583 1.391 . S
C583 H571 0.950 . S
C583 C579 1.393 . S
C583 C582 1.391 . S
H584 C592 0.950 . S
H585 C597 0.950 . S
H586 C594 0.950 . S
H587 C596 0.950 . S
H588 C598 0.950 . S
H589 C600 0.950 . S
H590 C602 0.950 . S
H591 C603 0.950 . S
C592 H584 0.950 . S
C592 C593 1.386 . S
C592 C594 1.391 . S
C593 C592 1.386 . S
C593 C597 1.393 . S
C594 H586 0.950 . S
C594 C592 1.391 . S
C594 C595 1.400 . S
C595 C594 1.400 . S
C595 C596 1.398 . S
C595 C601 1.491 . S
C596 H587 0.950 . S
C596 C595 1.398 . S
C596 C597 1.391 . S
C597 H585 0.950 . S
C597 C593 1.393 . S
C597 C596 1.391 . S
C598 H588 0.950 . S
C598 C599 1.386 . S
C598 C600 1.391 . S
C599 C598 1.386 . S
C599 C603 1.393 . S
C600 H589 0.950 . S
C600 C598 1.391 . S
C600 C601 1.400 . S
C601 C595 1.491 . S
C601 C600 1.400 . S
C601 C602 1.398 . S
C602 H590 0.950 . S
C602 C601 1.398 . S
C602 C603 1.391 . S
C603 H591 0.950 . S
C603 C599 1.393 . S
C603 C602 1.391 . S
H604 C612 0.950 . S
H605 C617 0.950 . S
H606 C614 0.950 . S
H607 C616 0.950 . S
H608 C618 0.950 . S
H609 C620 0.950 . S
H610 C622 0.950 . S
H611 C623 0.950 . S
C612 H604 0.950 . S
C612 C613 1.386 . S
C612 C614 1.391 . S
C613 C612 1.386 . S
C613 C617 1.393 . S
C614 H606 0.950 . S
C614 C612 1.391 . S
C614 C615 1.400 . S
C615 C614 1.400 . S
C615 C616 1.398 . S
C615 C621 1.491 . S
C616 H607 0.950 . S
C616 C615 1.398 . S
C616 C617 1.391 . S
C617 H605 0.950 . S
C617 C613 1.393 . S
C617 C616 1.391 . S
C618 H608 0.950 . S
C618 C619 1.386 . S
C618 C620 1.391 . S
C619 C618 1.386 . S
C619 C623 1.393 . S
C620 H609 0.950 . S
C620 C618 1.391 . S
C620 C621 1.400 . S
C621 C615 1.491 . S
C621 C620 1.400 . S
C621 C622 1.398 . S
C622 H610 0.950 . S
C622 C621 1.398 . S
C622 C623 1.391 . S
C623 H611 0.950 . S
C623 C619 1.393 . S
C623 C622 1.391 . S
H624 C632 0.950 . S
H625 C637 0.950 . S
H626 C634 0.950 . S
H627 C636 0.950 . S
H628 C638 0.950 . S
H629 C640 0.950 . S
H630 C642 0.950 . S
H631 C643 0.950 . S
C632 H624 0.950 . S
C632 C633 1.386 . S
C632 C634 1.391 . S
C633 C632 1.386 . S
C633 C637 1.393 . S
C634 H626 0.950 . S
C634 C632 1.391 . S
C634 C635 1.400 . S
C635 C634 1.400 . S
C635 C636 1.398 . S
C635 C641 1.491 . S
C636 H627 0.950 . S
C636 C635 1.398 . S
C636 C637 1.391 . S
C637 H625 0.950 . S
C637 C633 1.393 . S
C637 C636 1.391 . S
C638 H628 0.950 . S
C638 C639 1.386 . S
C638 C640 1.391 . S
C639 C638 1.386 . S
C639 C643 1.393 . S
C640 H629 0.950 . S
C640 C638 1.391 . S
C640 C641 1.400 . S
C641 C635 1.491 . S
C641 C640 1.400 . S
C641 C642 1.398 . S
C642 H630 0.950 . S
C642 C641 1.398 . S
C642 C643 1.391 . S
C643 H631 0.950 . S
C643 C639 1.393 . S
C643 C642 1.391 . S
H644 C652 0.950 . S
H645 C657 0.950 . S
H646 C654 0.950 . S
H647 C656 0.950 . S
H648 C658 0.950 . S
H649 C660 0.950 . S
H650 C662 0.950 . S
H651 C663 0.950 . S
C652 H644 0.950 . S
C652 C653 1.386 . S
C652 C654 1.391 . S
C653 C652 1.386 . S
C653 C657 1.393 . S
C654 H646 0.950 . S
C654 C652 1.391 . S
C654 C655 1.400 . S
C655 C654 1.400 . S
C655 C656 1.398 . S
C655 C661 1.491 . S
C656 H647 0.950 . S
C656 C655 1.398 . S
C656 C657 1.391 . S
C657 H645 0.950 . S
C657 C653 1.393 . S
C657 C656 1.391 . S
C658 H648 0.950 . S
C658 C659 1.386 . S
C658 C660 1.391 . S
C659 C658 1.386 . S
C659 C663 1.393 . S
C660 H649 0.950 . S
C660 C658 1.391 . S
C660 C661 1.400 . S
C661 C655 1.491 . S
C661 C660 1.400 . S
C661 C662 1.398 . S
C662 H650 0.950 . S
C662 C661 1.398 . S
C662 C663 1.391 . S
C663 H651 0.950 . S
C663 C659 1.393 . S
C663 C662 1.391 . S
H664 C672 0.950 . S
H665 C677 0.950 . S
H666 C674 0.950 . S
H667 C676 0.950 . S
H668 C678 0.950 . S
H669 C680 0.950 . S
H670 C682 0.950 . S
H671 C683 0.950 . S
C672 H664 0.950 . S
C672 C673 1.386 . S
C672 C674 1.391 . S
C673 C672 1.386 . S
C673 C677 1.393 . S
C674 H666 0.950 . S
C674 C672 1.391 . S
C674 C675 1.400 . S
C675 C674 1.400 . S
C675 C676 1.398 . S
C675 C681 1.491 . S
C676 H667 0.950 . S
C676 C675 1.398 . S
C676 C677 1.391 . S
C677 H665 0.950 . S
C677 C673 1.393 . S
C677 C676 1.391 . S
C678 H668 0.950 . S
C678 C679 1.386 . S
C678 C680 1.391 . S
C679 C678 1.386 . S
C679 C683 1.393 . S
C680 H669 0.950 . S
C680 C678 1.391 . S
C680 C681 1.400 . S
C681 C675 1.491 . S
C681 C680 1.400 . S
C681 C682 1.398 . S
C682 H670 0.950 . S
C682 C681 1.398 . S
C682 C683 1.391 . S
C683 H671 0.950 . S
C683 C679 1.393 . S
C683 C682 1.391 . S
H684 C692 0.950 . S
H685 C697 0.950 . S
H686 C694 0.950 . S
H687 C696 0.950 . S
H688 C698 0.950 . S
H689 C700 0.950 . S
H690 C702 0.950 . S
H691 C703 0.950 . S
C692 H684 0.950 . S
C692 C693 1.386 . S
C692 C694 1.391 . S
C693 C692 1.386 . S
C693 C697 1.393 . S
C694 H686 0.950 . S
C694 C692 1.391 . S
C694 C695 1.400 . S
C695 C694 1.400 . S
C695 C696 1.398 . S
C695 C701 1.491 . S
C696 H687 0.950 . S
C696 C695 1.398 . S
C696 C697 1.391 . S
C697 H685 0.950 . S
C697 C693 1.393 . S
C697 C696 1.391 . S
C698 H688 0.950 . S
C698 C699 1.386 . S
C698 C700 1.391 . S
C699 C698 1.386 . S
C699 C703 1.393 . S
C700 H689 0.950 . S
C700 C698 1.391 . S
C700 C701 1.400 . S
C701 C695 1.491 . S
C701 C700 1.400 . S
C701 C702 1.398 . S
C702 H690 0.950 . S
C702 C701 1.398 . S
C702 C703 1.391 . S
C703 H691 0.950 . S
C703 C699 1.393 . S
C703 C702 1.391 . S
H704 C712 0.950 . S
H705 C717 0.950 . S
H706 C714 0.950 . S
H707 C716 0.950 . S
H708 C718 0.950 . S
H709 C720 0.950 . S
H710 C722 0.950 . S
H711 C723 0.950 . S
C712 H704 0.950 . S
C712 C713 1.386 . S
C712 C714 1.391 . S
C713 C712 1.386 . S
C713 C717 1.393 . S
C714 H706 0.950 . S
C714 C712 1.391 . S
C714 C715 1.400 . S
C715 C714 1.400 . S
C715 C716 1.398 . S
C715 C721 1.491 . S
C716 H707 0.950 . S
C716 C715 1.398 . S
C716 C717 1.391 . S
C717 H705 0.950 . S
C717 C713 1.393 . S
C717 C716 1.391 . S
C718 H708 0.950 . S
C718 C719 1.386 . S
C718 C720 1.391 . S
C719 C718 1.386 . S
C719 C723 1.393 . S
C720 H709 0.950 . S
C720 C718 1.391 . S
C720 C721 1.400 . S
C721 C715 1.491 . S
C721 C720 1.400 . S
C721 C722 1.398 . S
C722 H710 0.950 . S
C722 C721 1.398 . S
C722 C723 1.391 . S
C723 H711 0.950 . S
C723 C719 1.393 . S
C723 C722 1.391 . S
H724 C732 0.950 . S
H725 C737 0.950 . S
H726 C734 0.950 . S
H727 C736 0.950 . S
H728 C738 0.950 . S
H729 C740 0.950 . S
H730 C742 0.950 . S
H731 C743 0.950 . S
C732 H724 0.950 . S
C732 C733 1.386 . S
C732 C734 1.391 . S
C733 C732 1.386 . S
C733 C737 1.393 . S
C734 H726 0.950 . S
C734 C732 1.391 . S
C734 C735 1.400 . S
C735 C734 1.400 . S
C735 C736 1.398 . S
C735 C741 1.491 . S
C736 H727 0.950 . S
C736 C735 1.398 . S
C736 C737 1.391 . S
C737 H725 0.950 . S
C737 C733 1.393 . S
C737 C736 1.391 . S
C738 H728 0.950 . S
C738 C739 1.386 . S
C738 C740 1.391 . S
C739 C738 1.386 . S
C739 C743 1.393 . S
C740 H729 0.950 . S
C740 C738 1.391 . S
C740 C741 1.400 . S
C741 C735 1.491 . S
C741 C740 1.400 . S
C741 C742 1.398 . S
C742 H730 0.950 . S
C742 C741 1.398 . S
C742 C743 1.391 . S
C743 H731 0.950 . S
C743 C739 1.393 . S
C743 C742 1.391 . S
H744 C752 0.950 . S
H745 C757 0.950 . S
H746 C754 0.950 . S
H747 C756 0.950 . S
H748 C758 0.950 . S
H749 C760 0.950 . S
H750 C762 0.950 . S
H751 C763 0.950 . S
C752 H744 0.950 . S
C752 C753 1.386 . S
C752 C754 1.391 . S
C753 C752 1.386 . S
C753 C757 1.393 . S
C754 H746 0.950 . S
C754 C752 1.391 . S
C754 C755 1.400 . S
C755 C754 1.400 . S
C755 C756 1.398 . S
C755 C761 1.491 . S
C756 H747 0.950 . S
C756 C755 1.398 . S
C756 C757 1.391 . S
C757 H745 0.950 . S
C757 C753 1.393 . S
C757 C756 1.391 . S
C758 H748 0.950 . S
C758 C759 1.386 . S
C758 C760 1.391 . S
C759 C758 1.386 . S
C759 C763 1.393 . S
C760 H749 0.950 . S
C760 C758 1.391 . S
C760 C761 1.400 . S
C761 C755 1.491 . S
C761 C760 1.400 . S
C761 C762 1.398 . S
C762 H750 0.950 . S
C762 C761 1.398 . S
C762 C763 1.391 . S
C763 H751 0.950 . S
C763 C759 1.393 . S
C763 C762 1.391 . S
H764 C772 0.950 . S
H765 C777 0.950 . S
H766 C774 0.950 . S
H767 C776 0.950 . S
H768 C778 0.950 . S
H769 C780 0.950 . S
H770 C782 0.950 . S
H771 C783 0.950 . S
C772 H764 0.950 . S
C772 C773 1.386 . S
C772 C774 1.391 . S
C773 C772 1.386 . S
C773 C777 1.393 . S
C774 H766 0.950 . S
C774 C772 1.391 . S
C774 C775 1.400 . S
C775 C774 1.400 . S
C775 C776 1.398 . S
C775 C781 1.491 1_556 S
C776 H767 0.950 . S
C776 C775 1.398 . S
C776 C777 1.391 . S
C777 H765 0.950 . S
C777 C773 1.393 . S
C777 C776 1.391 . S
C778 H768 0.950 . S
C778 C779 1.386 . S
C778 C780 1.391 . S
C779 C778 1.386 . S
C779 C783 1.393 . S
C780 H769 0.950 . S
C780 C778 1.391 . S
C780 C781 1.400 . S
C781 C775 1.491 1_554 S
C781 C780 1.400 . S
C781 C782 1.398 . S
C782 H770 0.950 . S
C782 C781 1.398 . S
C782 C783 1.391 . S
C783 H771 0.950 . S
C783 C779 1.393 . S
C783 C782 1.391 . S
H784 C792 0.950 . S
H785 C797 0.950 . S
H786 C794 0.950 . S
H787 C796 0.950 . S
H788 C798 0.950 . S
H789 C800 0.950 . S
H790 C802 0.950 . S
H791 C803 0.950 . S
C792 H784 0.950 . S
C792 C793 1.386 . S
C792 C794 1.391 . S
C793 C792 1.386 . S
C793 C797 1.393 . S
C794 H786 0.950 . S
C794 C792 1.391 . S
C794 C795 1.400 . S
C795 C794 1.400 . S
C795 C796 1.398 . S
C795 C801 1.491 1_554 S
C796 H787 0.950 . S
C796 C795 1.398 . S
C796 C797 1.391 . S
C797 H785 0.950 . S
C797 C793 1.393 . S
C797 C796 1.391 . S
C798 H788 0.950 . S
C798 C799 1.386 . S
C798 C800 1.391 . S
C799 C798 1.386 . S
C799 C803 1.393 . S
C800 H789 0.950 . S
C800 C798 1.391 . S
C800 C801 1.400 . S
C801 C795 1.491 1_556 S
C801 C800 1.400 . S
C801 C802 1.398 . S
C802 H790 0.950 . S
C802 C801 1.398 . S
C802 C803 1.391 . S
C803 H791 0.950 . S
C803 C799 1.393 . S
C803 C802 1.391 . S
H804 C812 0.950 . S
H805 C817 0.950 . S
H806 C814 0.950 . S
H807 C816 0.950 . S
H808 C818 0.950 . S
H809 C820 0.950 . S
H810 C822 0.950 . S
H811 C823 0.950 . S
C812 H804 0.950 . S
C812 C813 1.386 . S
C812 C814 1.391 . S
C813 C812 1.386 . S
C813 C817 1.393 . S
C814 H806 0.950 . S
C814 C812 1.391 . S
C814 C815 1.400 . S
C815 C814 1.400 . S
C815 C816 1.398 . S
C815 C821 1.491 . S
C816 H807 0.950 . S
C816 C815 1.398 . S
C816 C817 1.391 . S
C817 H805 0.950 . S
C817 C813 1.393 . S
C817 C816 1.391 . S
C818 H808 0.950 . S
C818 C819 1.386 . S
C818 C820 1.391 . S
C819 C818 1.386 . S
C819 C823 1.393 . S
C820 H809 0.950 . S
C820 C818 1.391 . S
C820 C821 1.400 . S
C821 C815 1.491 . S
C821 C820 1.400 . S
C821 C822 1.398 . S
C822 H810 0.950 . S
C822 C821 1.398 . S
C822 C823 1.391 . S
C823 H811 0.950 . S
C823 C819 1.393 . S
C823 C822 1.391 . S
H824 C832 0.950 . S
H825 C837 0.950 . S
H826 C834 0.950 . S
H827 C836 0.950 . S
H828 C838 0.950 . S
H829 C840 0.950 . S
H830 C842 0.950 . S
H831 C843 0.950 . S
C832 H824 0.950 . S
C832 C833 1.386 . S
C832 C834 1.391 . S
C833 C832 1.386 . S
C833 C837 1.393 . S
C834 H826 0.950 . S
C834 C832 1.391 . S
C834 C835 1.400 . S
C835 C834 1.400 . S
C835 C836 1.398 . S
C835 C841 1.491 . S
C836 H827 0.950 . S
C836 C835 1.398 . S
C836 C837 1.391 . S
C837 H825 0.950 . S
C837 C833 1.393 . S
C837 C836 1.391 . S
C838 H828 0.950 . S
C838 C839 1.386 . S
C838 C840 1.391 . S
C839 C838 1.386 . S
C839 C843 1.393 . S
C840 H829 0.950 . S
C840 C838 1.391 . S
C840 C841 1.400 . S
C841 C835 1.491 . S
C841 C840 1.400 . S
C841 C842 1.398 . S
C842 H830 0.950 . S
C842 C841 1.398 . S
C842 C843 1.391 . S
C843 H831 0.950 . S
C843 C839 1.393 . S
C843 C842 1.391 . S
H844 C852 0.950 . S
H845 C857 0.950 . S
H846 C854 0.950 . S
H847 C856 0.950 . S
H848 C858 0.950 . S
H849 C860 0.950 . S
H850 C862 0.950 . S
H851 C863 0.950 . S
C852 H844 0.950 . S
C852 C853 1.386 . S
C852 C854 1.391 . S
C853 C852 1.386 . S
C853 C857 1.393 . S
C854 H846 0.950 . S
C854 C852 1.391 . S
C854 C855 1.400 . S
C855 C854 1.400 . S
C855 C856 1.398 . S
C855 C861 1.491 . S
C856 H847 0.950 . S
C856 C855 1.398 . S
C856 C857 1.391 . S
C857 H845 0.950 . S
C857 C853 1.393 . S
C857 C856 1.391 . S
C858 H848 0.950 . S
C858 C859 1.386 . S
C858 C860 1.391 . S
C859 C858 1.386 . S
C859 C863 1.393 . S
C860 H849 0.950 . S
C860 C858 1.391 . S
C860 C861 1.400 . S
C861 C855 1.491 . S
C861 C860 1.400 . S
C861 C862 1.398 . S
C862 H850 0.950 . S
C862 C861 1.398 . S
C862 C863 1.391 . S
C863 H851 0.950 . S
C863 C859 1.393 . S
C863 C862 1.391 . S
C233 C148 1.591 . S
C239 C8 1.591 . S
C253 C22 1.593 . S
C259 C162 1.594 . S
C273 C120 1.596 . S
C279 C36 1.597 . S
C293 C134 1.592 . S
C299 C50 1.591 . S
C313 C64 1.590 . S
C319 C204 1.591 . S
C333 C218 1.597 . S
C339 C78 1.597 . S
C353 C92 1.596 . S
C359 C176 1.597 . S
C373 C190 1.589 . S
C379 C106 1.589 . S
C393 C149 1.488 . S
C399 C9 1.488 . S
C413 C23 1.488 . S
C419 C163 1.488 . S
C433 C37 1.480 . S
C439 C121 1.480 . S
C453 C51 1.483 . S
C459 C135 1.483 . S
C473 C65 1.488 . S
C479 C205 1.488 . S
C493 C79 1.480 . S
C499 C219 1.481 . S
C513 C177 1.483 . S
C519 C93 1.484 . S
C533 C191 1.486 . S
C539 C107 1.485 . S
C553 C7 1.274 . S
C559 C91 1.268 . S
C573 C21 1.273 . S
C579 C105 1.267 . S
C593 C35 1.275 . S
C599 C63 1.270 . S
C613 C49 1.257 . S
C619 C77 1.257 . S
C633 C119 1.259 . S
C639 C203 1.264 . S
C653 C217 1.264 . S
C659 C133 1.270 . S
C673 C147 1.269 . S
C679 C175 1.275 . S
C693 C189 1.268 . S
C699 C161 1.262 . S
C713 C3 1.207 . S
C719 C213 1.215 . S
C733 C171 1.233 . S
C739 C17 1.227 . S
C753 C185 1.221 . S
C759 C31 1.206 . S
C773 C199 1.210 . S
C779 C45 1.231 . S
C793 C129 1.221 . S
C799 C59 1.234 . S
C813 C143 1.209 . S
C819 C73 1.230 . S
C833 C87 1.234 . S
C839 C157 1.223 . S
C853 C101 1.233 . S
C859 C115 1.227 . S
