# Generated by pormake.
# Topology snl, (6)-cn, num edge types: 1
# Building blocks:
#     Node 0, Type 0, BuildingBlock: BETDAH_clean_sbu_0, # of connection points: 6
#     Node 1, Type 0, BuildingBlock: BETDAH_clean_sbu_0, # of connection points: 6
#     Node 2, Type 0, BuildingBlock: BETDAH_clean_sbu_0, # of connection points: 6
#     Node 3, Type 0, BuildingBlock: BETDAH_clean_sbu_0, # of connection points: 6
#     Node 4, Type 0, BuildingBlock: BETDAH_clean_sbu_0, # of connection points: 6
#     Node 5, Type 0, BuildingBlock: BETDAH_clean_sbu_0, # of connection points: 6
#     Node 6, Type 0, BuildingBlock: BETDAH_clean_sbu_0, # of connection points: 6
#     Node 7, Type 0, BuildingBlock: BETDAH_clean_sbu_0, # of connection points: 6
#     Node 8, Type 0, BuildingBlock: BETDAH_clean_sbu_0, # of connection points: 6
#     Node 9, Type 0, BuildingBlock: BETDAH_clean_sbu_0, # of connection points: 6
#     Node 10, Type 0, BuildingBlock: BETDAH_clean_sbu_0, # of connection points: 6
#     Node 11, Type 0, BuildingBlock: BETDAH_clean_sbu_0, # of connection points: 6
#     Node 12, Type 0, BuildingBlock: BETDAH_clean_sbu_0, # of connection points: 6
#     Node 13, Type 0, BuildingBlock: BETDAH_clean_sbu_0, # of connection points: 6
#     Node 14, Type 0, BuildingBlock: BETDAH_clean_sbu_0, # of connection points: 6
#     Node 15, Type 0, BuildingBlock: BETDAH_clean_sbu_0, # of connection points: 6
#     Edge 16, Type (0, 0), BuildingBlock: ZUJKAS_clean_linker_0, # of connection points: 2
#     Edge 17, Type (0, 0), BuildingBlock: ZUJKAS_clean_linker_0, # of connection points: 2
#     Edge 18, Type (0, 0), BuildingBlock: ZUJKAS_clean_linker_0, # of connection points: 2
#     Edge 19, Type (0, 0), BuildingBlock: ZUJKAS_clean_linker_0, # of connection points: 2
#     Edge 20, Type (0, 0), BuildingBlock: ZUJKAS_clean_linker_0, # of connection points: 2
#     Edge 21, Type (0, 0), BuildingBlock: ZUJKAS_clean_linker_0, # of connection points: 2
#     Edge 22, Type (0, 0), BuildingBlock: ZUJKAS_clean_linker_0, # of connection points: 2
#     Edge 23, Type (0, 0), BuildingBlock: ZUJKAS_clean_linker_0, # of connection points: 2
#     Edge 24, Type (0, 0), BuildingBlock: ZUJKAS_clean_linker_0, # of connection points: 2
#     Edge 25, Type (0, 0), BuildingBlock: ZUJKAS_clean_linker_0, # of connection points: 2
#     Edge 26, Type (0, 0), BuildingBlock: ZUJKAS_clean_linker_0, # of connection points: 2
#     Edge 27, Type (0, 0), BuildingBlock: ZUJKAS_clean_linker_0, # of connection points: 2
#     Edge 28, Type (0, 0), BuildingBlock: ZUJKAS_clean_linker_0, # of connection points: 2
#     Edge 29, Type (0, 0), BuildingBlock: ZUJKAS_clean_linker_0, # of connection points: 2
#     Edge 30, Type (0, 0), BuildingBlock: ZUJKAS_clean_linker_0, # of connection points: 2
#     Edge 31, Type (0, 0), BuildingBlock: ZUJKAS_clean_linker_0, # of connection points: 2
#     Edge 32, Type (0, 0), BuildingBlock: ZUJKAS_clean_linker_0, # of connection points: 2
#     Edge 33, Type (0, 0), BuildingBlock: ZUJKAS_clean_linker_0, # of connection points: 2
#     Edge 34, Type (0, 0), BuildingBlock: ZUJKAS_clean_linker_0, # of connection points: 2
#     Edge 35, Type (0, 0), BuildingBlock: ZUJKAS_clean_linker_0, # of connection points: 2
#     Edge 36, Type (0, 0), BuildingBlock: ZUJKAS_clean_linker_0, # of connection points: 2
#     Edge 37, Type (0, 0), BuildingBlock: ZUJKAS_clean_linker_0, # of connection points: 2
#     Edge 38, Type (0, 0), BuildingBlock: ZUJKAS_clean_linker_0, # of connection points: 2
#     Edge 39, Type (0, 0), BuildingBlock: ZUJKAS_clean_linker_0, # of connection points: 2
#     Edge 40, Type (0, 0), BuildingBlock: ZUJKAS_clean_linker_0, # of connection points: 2
#     Edge 41, Type (0, 0), BuildingBlock: ZUJKAS_clean_linker_0, # of connection points: 2
#     Edge 42, Type (0, 0), BuildingBlock: ZUJKAS_clean_linker_0, # of connection points: 2
#     Edge 43, Type (0, 0), BuildingBlock: ZUJKAS_clean_linker_0, # of connection points: 2
#     Edge 44, Type (0, 0), BuildingBlock: ZUJKAS_clean_linker_0, # of connection points: 2
#     Edge 45, Type (0, 0), BuildingBlock: ZUJKAS_clean_linker_0, # of connection points: 2
#     Edge 46, Type (0, 0), BuildingBlock: ZUJKAS_clean_linker_0, # of connection points: 2
#     Edge 47, Type (0, 0), BuildingBlock: ZUJKAS_clean_linker_0, # of connection points: 2
#     Edge 48, Type (0, 0), BuildingBlock: ZUJKAS_clean_linker_0, # of connection points: 2
#     Edge 49, Type (0, 0), BuildingBlock: ZUJKAS_clean_linker_0, # of connection points: 2
#     Edge 50, Type (0, 0), BuildingBlock: ZUJKAS_clean_linker_0, # of connection points: 2
#     Edge 51, Type (0, 0), BuildingBlock: ZUJKAS_clean_linker_0, # of connection points: 2
#     Edge 52, Type (0, 0), BuildingBlock: ZUJKAS_clean_linker_0, # of connection points: 2
#     Edge 53, Type (0, 0), BuildingBlock: ZUJKAS_clean_linker_0, # of connection points: 2
#     Edge 54, Type (0, 0), BuildingBlock: ZUJKAS_clean_linker_0, # of connection points: 2
#     Edge 55, Type (0, 0), BuildingBlock: ZUJKAS_clean_linker_0, # of connection points: 2
#     Edge 56, Type (0, 0), BuildingBlock: ZUJKAS_clean_linker_0, # of connection points: 2
#     Edge 57, Type (0, 0), BuildingBlock: ZUJKAS_clean_linker_0, # of connection points: 2
#     Edge 58, Type (0, 0), BuildingBlock: ZUJKAS_clean_linker_0, # of connection points: 2
#     Edge 59, Type (0, 0), BuildingBlock: ZUJKAS_clean_linker_0, # of connection points: 2
#     Edge 60, Type (0, 0), BuildingBlock: ZUJKAS_clean_linker_0, # of connection points: 2
#     Edge 61, Type (0, 0), BuildingBlock: ZUJKAS_clean_linker_0, # of connection points: 2
#     Edge 62, Type (0, 0), BuildingBlock: ZUJKAS_clean_linker_0, # of connection points: 2
#     Edge 63, Type (0, 0), BuildingBlock: ZUJKAS_clean_linker_0, # of connection points: 2
# Relax obj value: 0.193
# Max RMSD: 0.266
# Mean RMSD: 0.222
data_MOF--net-snl--node1-BETDAH_clean_sbu_0--edge1-ZUJKAS_clean_linker_0
_symmetry_space_group_name_H-M    P1
_symmetry_Int_Tables_number       1
_symmetry_cell_setting            triclinic
loop_
_symmetry_equiv_pos_as_xyz
'x, y, z'
_cell_length_a     74.03243
_cell_length_b     74.33718
_cell_length_c     30.377259
_cell_angle_alpha  100.94801
_cell_angle_beta   91.547628
_cell_angle_gamma 90.113945
loop_
_atom_site_label
_atom_site_type_symbol
_atom_site_fract_x
_atom_site_fract_y
_atom_site_fract_z
_atom_type_partial_charge
Ho0 Ho 0.14828 0.62997 0.10888 0.0
Ho1 Ho 0.13447 0.63873 0.20953 0.0
C2 C 0.10607 0.63872 0.13056 0.0
C3 C 0.15543 0.61319 0.02863 0.0
C4 C 0.15273 0.61593 0.98193 0.0
C5 C 0.15022 0.60064 0.94731 0.0
C6 C 0.14847 0.6028 0.90257 0.0
C7 C 0.14924 0.62032 0.89138 0.0
C8 C 0.15146 0.63566 0.9264 0.0
C9 C 0.15316 0.63349 0.97118 0.0
C10 C 0.14438 0.66687 0.13668 0.0
C11 C 0.17756 0.63234 0.19254 0.0
C12 C 0.12791 0.65149 0.29302 0.0
C13 C 0.13232 0.6481 0.33859 0.0
C14 C 0.1356 0.66309 0.37362 0.0
C15 C 0.13817 0.66052 0.41783 0.0
C16 C 0.13743 0.64285 0.42818 0.0
C17 C 0.13463 0.62778 0.39273 0.0
C18 C 0.13211 0.63037 0.34843 0.0
C19 C 0.13374 0.60311 0.16619 0.0
O20 O 0.1175 0.62858 0.10336 0.0
O21 O 0.11132 0.64767 0.17072 0.0
O22 O 0.16674 0.62442 0.05424 0.0
O23 O 0.14092 0.6098 0.0496 0.0
O24 O 0.15003 0.6592 0.09759 0.0
O25 O 0.14129 0.65429 0.15802 0.0
O26 O 0.16447 0.63725 0.22124 0.0
O27 O 0.17448 0.62778 0.14838 0.0
O28 O 0.11772 0.63931 0.26683 0.0
O29 O 0.14088 0.65782 0.27156 0.0
O30 O 0.12232 0.60997 0.1964 0.0
O31 O 0.14549 0.61502 0.16369 0.0
H32 H 0.14975 0.58698 0.95486 0.0
H33 H 0.14645 0.59069 0.87675 0.0
H34 H 0.1523 0.64935 0.9192 0.0
H35 H 0.15505 0.64552 0.99731 0.0
H36 H 0.13585 0.67689 0.36688 0.0
H37 H 0.14064 0.67243 0.44397 0.0
H38 H 0.13383 0.614 0.39933 0.0
H39 H 0.12959 0.61854 0.32206 0.0
Ho40 Ho 0.64947 0.89287 0.41308 0.0
Ho41 Ho 0.63374 0.88791 0.31892 0.0
C42 C 0.60591 0.88646 0.39486 0.0
C43 C 0.65758 0.9037 0.49768 0.0
C44 C 0.65236 0.90103 0.54274 0.0
C45 C 0.6489 0.91644 0.57595 0.0
C46 C 0.64593 0.91455 0.62017 0.0
C47 C 0.64648 0.89719 0.63227 0.0
C48 C 0.64943 0.88171 0.59864 0.0
C49 C 0.65231 0.8836 0.55435 0.0
C50 C 0.64862 0.85757 0.36881 0.0
C51 C 0.67722 0.8933 0.33456 0.0
C52 C 0.62516 0.87789 0.23445 0.0
C53 C 0.6302 0.88088 0.18949 0.0
C54 C 0.63387 0.86566 0.15596 0.0
C55 C 0.63679 0.86779 0.1119 0.0
C56 C 0.636 0.88522 0.10027 0.0
C57 C 0.63279 0.90053 0.1342 0.0
C58 C 0.62995 0.8984 0.17834 0.0
C59 C 0.63486 0.92296 0.3654 0.0
O60 O 0.61894 0.89377 0.4237 0.0
O61 O 0.60949 0.87979 0.35263 0.0
O62 O 0.66538 0.89001 0.47189 0.0
O63 O 0.64627 0.91237 0.47545 0.0
O64 O 0.66119 0.86469 0.39724 0.0
O65 O 0.63634 0.86922 0.36735 0.0
O66 O 0.66367 0.88724 0.30637 0.0
O67 O 0.67464 0.89893 0.37798 0.0
O68 O 0.61751 0.89146 0.26111 0.0
O69 O 0.63654 0.8689 0.25574 0.0
O70 O 0.62197 0.91639 0.33726 0.0
O71 O 0.64693 0.91108 0.36503 0.0
H72 H 0.64901 0.93004 0.56794 0.0
H73 H 0.64388 0.92678 0.64522 0.0
H74 H 0.64967 0.86813 0.60664 0.0
H75 H 0.65489 0.87144 0.5295 0.0
H76 H 0.63398 0.852 0.16358 0.0
H77 H 0.63902 0.85568 0.08663 0.0
H78 H 0.63234 0.91417 0.12655 0.0
H79 H 0.62718 0.91043 0.20344 0.0
Ho80 Ho 0.37428 0.38826 0.58188 0.0
Ho81 Ho 0.39109 0.39844 0.67446 0.0
C82 C 0.41807 0.38716 0.59626 0.0
C83 C 0.36382 0.38555 0.49859 0.0
C84 C 0.36988 0.38715 0.4533 0.0
C85 C 0.37223 0.40432 0.44106 0.0
C86 C 0.37538 0.40553 0.3964 0.0
C87 C 0.37615 0.38962 0.36293 0.0
C88 C 0.37445 0.37247 0.37563 0.0
C89 C 0.37129 0.37126 0.42016 0.0
C90 C 0.37472 0.36032 0.62774 0.0
C91 C 0.34759 0.39612 0.66362 0.0
C92 C 0.40171 0.4034 0.7581 0.0
C93 C 0.39584 0.40223 0.80381 0.0
C94 C 0.39324 0.38527 0.81694 0.0
C95 C 0.39013 0.38448 0.86185 0.0
C96 C 0.38963 0.40062 0.89471 0.0
C97 C 0.3916 0.41757 0.88112 0.0
C98 C 0.39473 0.41835 0.83631 0.0
C99 C 0.3902 0.42566 0.62563 0.0
O100 O 0.4045 0.38987 0.56881 0.0
O101 O 0.41552 0.38731 0.63901 0.0
O102 O 0.36982 0.37173 0.51559 0.0
O103 O 0.36253 0.40055 0.52879 0.0
O104 O 0.3617 0.36352 0.60095 0.0
O105 O 0.38737 0.37182 0.6278 0.0
O106 O 0.36196 0.39456 0.6893 0.0
O107 O 0.34901 0.39628 0.62035 0.0
O108 O 0.39472 0.41633 0.73937 0.0
O109 O 0.40392 0.38812 0.72939 0.0
O110 O 0.40367 0.42284 0.65151 0.0
O111 O 0.37777 0.41437 0.62821 0.0
H112 H 0.37104 0.41687 0.46561 0.0
H113 H 0.37647 0.41898 0.38784 0.0
H114 H 0.37527 0.35992 0.35096 0.0
H115 H 0.36938 0.35784 0.4284 0.0
H116 H 0.39416 0.37256 0.79286 0.0
H117 H 0.38884 0.37118 0.87108 0.0
H118 H 0.39098 0.43029 0.90527 0.0
H119 H 0.39681 0.43161 0.8273 0.0
Ho120 Ho 0.88165 0.12019 0.84936 0.0
Ho121 Ho 0.88485 0.1398 0.95263 0.0
C122 C 0.88851 0.16445 0.87914 0.0
C123 C 0.86825 0.10929 0.76911 0.0
C124 C 0.87097 0.11216 0.72255 0.0
C125 C 0.85839 0.12246 0.70243 0.0
C126 C 0.86013 0.12454 0.65786 0.0
C127 C 0.87441 0.11621 0.63192 0.0
C128 C 0.88705 0.10597 0.65219 0.0
C129 C 0.88535 0.10395 0.69688 0.0
C130 C 0.91702 0.12686 0.87508 0.0
C131 C 0.88075 0.09513 0.92652 0.0
C132 C 0.89244 0.15025 0.03758 0.0
C133 C 0.88984 0.14453 0.08139 0.0
C134 C 0.90082 0.13114 0.09551 0.0
C135 C 0.89929 0.12717 0.13861 0.0
C136 C 0.88675 0.13647 0.16868 0.0
C137 C 0.87558 0.14963 0.15419 0.0
C138 C 0.87717 0.15365 0.11125 0.0
C139 C 0.85182 0.13802 0.91092 0.0
O140 O 0.88094 0.15085 0.84944 0.0
O141 O 0.8944 0.16219 0.91927 0.0
O142 O 0.88066 0.10021 0.78739 0.0
O143 O 0.86187 0.12318 0.79758 0.0
O144 O 0.91158 0.11906 0.83499 0.0
O145 O 0.90318 0.13048 0.89825 0.0
O146 O 0.8834 0.11008 0.95767 0.0
O147 O 0.87875 0.0956 0.88304 0.0
O148 O 0.8781 0.15557 0.01753 0.0
O149 O 0.90345 0.14067 1.00931 0.0
O150 O 0.85738 0.15184 0.94111 0.0
O151 O 0.86366 0.12575 0.90624 0.0
H152 H 0.84706 0.12882 0.7211 0.0
H153 H 0.85026 0.13275 0.64381 0.0
H154 H 0.89808 0.09912 0.63324 0.0
H155 H 0.89519 0.09573 0.71103 0.0
H156 H 0.91083 0.12392 0.0736 0.0
H157 H 0.90798 0.11683 0.14844 0.0
H158 H 0.86596 0.15727 0.17656 0.0
H159 H 0.86871 0.16424 0.10177 0.0
Ho160 Ho 0.14578 0.39393 0.94774 0.0
Ho161 Ho 0.13011 0.38622 0.84616 0.0
C162 C 0.1032 0.38489 0.9242 0.0
C163 C 0.15401 0.41006 0.02901 0.0
C164 C 0.15144 0.40729 0.0754 0.0
C165 C 0.1493 0.42258 0.10976 0.0
C166 C 0.14754 0.42044 0.15427 0.0
C167 C 0.14791 0.4029 0.16551 0.0
C168 C 0.14979 0.38756 0.13074 0.0
C169 C 0.15151 0.38972 0.08616 0.0
C170 C 0.14171 0.35717 0.9161 0.0
C171 C 0.17341 0.39325 0.86531 0.0
C172 C 0.12258 0.37407 0.7619 0.0
C173 C 0.12724 0.37721 0.7168 0.0
C174 C 0.13013 0.36206 0.68249 0.0
C175 C 0.13301 0.36441 0.63856 0.0
C176 C 0.13299 0.38202 0.62776 0.0
C177 C 0.13056 0.39725 0.66254 0.0
C178 C 0.12772 0.39487 0.70658 0.0
C179 C 0.12997 0.42141 0.89212 0.0
O180 O 0.11515 0.39466 0.95252 0.0
O181 O 0.10754 0.37673 0.88332 0.0
O182 O 0.16473 0.39858 1.00407 0.0
O183 O 0.13952 0.41398 1.00696 0.0
O184 O 0.14801 0.36426 0.95591 0.0
O185 O 0.13803 0.37024 0.89657 0.0
O186 O 0.15985 0.38856 0.83593 0.0
O187 O 0.17117 0.39707 0.90947 0.0
O188 O 0.11331 0.38682 0.78724 0.0
O189 O 0.13504 0.3669 0.78455 0.0
O190 O 0.11802 0.4148 0.86117 0.0
O191 O 0.14183 0.40954 0.89408 0.0
H192 H 0.1491 0.43625 0.10219 0.0
H193 H 0.14578 0.43255 0.17986 0.0
H194 H 0.15032 0.37386 0.13802 0.0
H195 H 0.1531 0.37768 0.06022 0.0
H196 H 0.12985 0.34831 0.68953 0.0
H197 H 0.13518 0.35238 0.61299 0.0
H198 H 0.1303 0.411 0.65556 0.0
H199 H 0.12553 0.40683 0.73236 0.0
Ho200 Ho 0.87946 0.90138 0.1752 0.0
Ho201 Ho 0.8809 0.88096 0.07222 0.0
C202 C 0.88598 0.857 0.14763 0.0
C203 C 0.86707 0.91256 0.25452 0.0
C204 C 0.86992 0.9097 0.30141 0.0
C205 C 0.85775 0.89873 0.31959 0.0
C206 C 0.85953 0.89679 0.36447 0.0
C207 C 0.87343 0.90592 0.39266 0.0
C208 C 0.8857 0.91681 0.37433 0.0
C209 C 0.88395 0.91871 0.32935 0.0
C210 C 0.91431 0.89519 0.14985 0.0
C211 C 0.8781 0.92576 0.09672 0.0
C212 C 0.88699 0.86988 0.98772 0.0
C213 C 0.88513 0.87584 0.94378 0.0
C214 C 0.8959 0.88994 0.93303 0.0
C215 C 0.89491 0.89414 0.88989 0.0
C216 C 0.88312 0.88439 0.85654 0.0
C217 C 0.87215 0.87054 0.86771 0.0
C218 C 0.8732 0.86628 0.91066 0.0
C219 C 0.84861 0.88313 0.11309 0.0
O220 O 0.8793 0.87086 0.17696 0.0
O221 O 0.89061 0.85873 0.10681 0.0
O222 O 0.87965 0.92135 0.23724 0.0
O223 O 0.86005 0.89881 0.22555 0.0
O224 O 0.90974 0.90349 0.18953 0.0
O225 O 0.89995 0.89083 0.12722 0.0
O226 O 0.88043 0.91065 0.06628 0.0
O227 O 0.87619 0.92558 0.14012 0.0
O228 O 0.87205 0.86634 1.0066 0.0
O229 O 0.89919 0.87804 0.01686 0.0
O230 O 0.8536 0.86904 0.08389 0.0
O231 O 0.86062 0.89539 0.11747 0.0
H232 H 0.84667 0.89176 0.29919 0.0
H233 H 0.84996 0.88808 0.37701 0.0
H234 H 0.89642 0.92428 0.39504 0.0
H235 H 0.89344 0.92748 0.31675 0.0
H236 H 0.90528 0.89756 0.95766 0.0
H237 H 0.90342 0.90502 0.88263 0.0
H238 H 0.8631 0.86256 0.84282 0.0
H239 H 0.86492 0.85519 0.9177 0.0
Ho240 Ho 0.38095 0.6162 0.36009 0.0
Ho241 Ho 0.38416 0.63483 0.46396 0.0
C242 C 0.38666 0.66046 0.39216 0.0
C243 C 0.36775 0.60525 0.27971 0.0
C244 C 0.37071 0.60805 0.2332 0.0
C245 C 0.36155 0.62197 0.21628 0.0
C246 C 0.3634 0.62387 0.17163 0.0
C247 C 0.37437 0.61184 0.14255 0.0
C248 C 0.38364 0.59801 0.15958 0.0
C249 C 0.38178 0.5961 0.20425 0.0
C250 C 0.41617 0.62407 0.38504 0.0
C251 C 0.38192 0.59012 0.43557 0.0
C252 C 0.39226 0.6451 0.54861 0.0
C253 C 0.38936 0.63973 0.59256 0.0
C254 C 0.39713 0.62386 0.60372 0.0
C255 C 0.39543 0.62001 0.64688 0.0
C256 C 0.3859 0.63189 0.67979 0.0
C257 C 0.37787 0.64755 0.66821 0.0
C258 C 0.37965 0.65144 0.62524 0.0
C259 C 0.35078 0.63207 0.42359 0.0
O260 O 0.37899 0.647 0.36218 0.0
O261 O 0.39304 0.65777 0.43151 0.0
O262 O 0.38011 0.59619 0.29816 0.0
O263 O 0.3613 0.61912 0.30811 0.0
O264 O 0.41075 0.61648 0.3448 0.0
O265 O 0.4024 0.62685 0.40873 0.0
O266 O 0.38411 0.60491 0.46745 0.0
O267 O 0.37944 0.59101 0.3924 0.0
O268 O 0.3782 0.65111 0.52888 0.0
O269 O 0.40272 0.63481 0.52023 0.0
O270 O 0.35589 0.6456 0.4551 0.0
O271 O 0.36319 0.62041 0.41741 0.0
H272 H 0.35275 0.63131 0.23739 0.0
H273 H 0.35622 0.63482 0.15993 0.0
H274 H 0.39199 0.58832 0.13807 0.0
H275 H 0.3888 0.58504 0.21587 0.0
H276 H 0.40475 0.61455 0.5794 0.0
H277 H 0.40162 0.60773 0.6545 0.0
H278 H 0.37064 0.65714 0.69281 0.0
H279 H 0.37371 0.66388 0.61782 0.0
Ho280 Ho 0.64782 0.13096 0.60305 0.0
Ho281 Ho 0.63372 0.13702 0.69699 0.0
C282 C 0.6046 0.13741 0.61959 0.0
C283 C 0.65464 0.1186 0.51946 0.0
C284 C 0.64944 0.12092 0.47352 0.0
C285 C 0.6454 0.10535 0.44072 0.0
C286 C 0.64252 0.10683 0.39583 0.0
C287 C 0.64373 0.12394 0.38266 0.0
C288 C 0.64718 0.13963 0.41592 0.0
C289 C 0.65 0.13815 0.46086 0.0
C290 C 0.64749 0.16673 0.64385 0.0
C291 C 0.67691 0.13191 0.68343 0.0
C292 C 0.6262 0.14786 0.78064 0.0
C293 C 0.63127 0.145 0.82626 0.0
C294 C 0.63557 0.16027 0.85977 0.0
C295 C 0.63833 0.15834 0.90437 0.0
C296 C 0.63675 0.14108 0.91658 0.0
C297 C 0.63305 0.12568 0.88265 0.0
C298 C 0.63034 0.12761 0.83797 0.0
C299 C 0.63459 0.10155 0.65306 0.0
O300 O 0.61706 0.12964 0.59157 0.0
O301 O 0.60903 0.14473 0.6615 0.0
O302 O 0.66355 0.13205 0.54487 0.0
O303 O 0.64281 0.11103 0.54159 0.0
O304 O 0.65925 0.15941 0.61523 0.0
O305 O 0.63546 0.15498 0.64683 0.0
O306 O 0.66385 0.13828 0.71085 0.0
O307 O 0.67356 0.12567 0.64014 0.0
O308 O 0.61772 0.13448 0.75382 0.0
O309 O 0.63793 0.15623 0.7599 0.0
O310 O 0.62205 0.10813 0.68029 0.0
O311 O 0.64639 0.11367 0.65305 0.0
H312 H 0.64491 0.09191 0.44964 0.0
H313 H 0.63956 0.0945 0.37135 0.0
H314 H 0.64838 0.15301 0.40706 0.0
H315 H 0.65312 0.15042 0.4854 0.0
H316 H 0.63633 0.17382 0.85164 0.0
H317 H 0.64149 0.17045 0.9294 0.0
H318 H 0.63157 0.1122 0.89079 0.0
H319 H 0.627 0.11556 0.81289 0.0
Ho320 Ho 0.8836 0.38517 0.83941 0.0
Ho321 Ho 0.86876 0.39314 0.93942 0.0
C322 C 0.8403 0.39057 0.85431 0.0
C323 C 0.89078 0.37293 0.75603 0.0
C324 C 0.88627 0.37628 0.71049 0.0
C325 C 0.88402 0.36127 0.675 0.0
C326 C 0.88117 0.36392 0.63093 0.0
C327 C 0.88056 0.3817 0.62123 0.0
C328 C 0.88244 0.39676 0.65707 0.0
C329 C 0.88523 0.39408 0.70124 0.0
C330 C 0.88369 0.42058 0.88387 0.0
C331 C 0.91115 0.38462 0.91993 0.0
C332 C 0.86095 0.40948 0.01959 0.0
C333 C 0.86382 0.40684 0.06633 0.0
C334 C 0.8654 0.42222 0.10105 0.0
C335 C 0.86738 0.42012 0.14579 0.0
C336 C 0.8678 0.40256 0.15685 0.0
C337 C 0.86646 0.38716 0.12179 0.0
C338 C 0.86454 0.38927 0.077 0.0
C339 C 0.87334 0.35643 0.91012 0.0
O340 O 0.85372 0.38611 0.82637 0.0
O341 O 0.84287 0.39503 0.89863 0.0
O342 O 0.90046 0.38545 0.78264 0.0
O343 O 0.87803 0.36603 0.77701 0.0
O344 O 0.89544 0.414 0.85424 0.0
O345 O 0.87195 0.40853 0.88543 0.0
O346 O 0.89947 0.39453 0.94682 0.0
O347 O 0.90638 0.37608 0.87902 0.0
O348 O 0.85012 0.39777 0.99378 0.0
O349 O 0.87529 0.41354 0.99888 0.0
O350 O 0.86731 0.36365 0.94918 0.0
O351 O 0.87641 0.36934 0.88986 0.0
H352 H 0.88487 0.34742 0.68126 0.0
H353 H 0.87999 0.352 0.60426 0.0
H354 H 0.88179 0.41063 0.65099 0.0
H355 H 0.88684 0.40593 0.72802 0.0
H356 H 0.86486 0.4359 0.09358 0.0
H357 H 0.86818 0.4323 0.17181 0.0
H358 H 0.867 0.37344 0.12893 0.0
H359 H 0.86349 0.37718 0.05076 0.0
Ho360 Ho 0.38506 0.13885 0.69024 0.0
Ho361 Ho 0.36949 0.13373 0.59646 0.0
C362 C 0.34177 0.13323 0.67549 0.0
C363 C 0.39402 0.14976 0.77428 0.0
C364 C 0.38936 0.14783 0.82013 0.0
C365 C 0.39282 0.16261 0.85551 0.0
C366 C 0.39018 0.16086 0.8999 0.0
C367 C 0.38404 0.14422 0.91002 0.0
C368 C 0.38004 0.12955 0.87428 0.0
C369 C 0.3827 0.13133 0.82971 0.0
C370 C 0.38373 0.10348 0.64523 0.0
C371 C 0.41308 0.13935 0.61436 0.0
C372 C 0.36081 0.12311 0.51199 0.0
C373 C 0.36418 0.12661 0.46648 0.0
C374 C 0.38147 0.12525 0.44811 0.0
C375 C 0.38376 0.12704 0.4034 0.0
C376 C 0.36882 0.13014 0.37615 0.0
C377 C 0.35164 0.13194 0.39517 0.0
C378 C 0.34937 0.13014 0.43966 0.0
C379 C 0.37089 0.16937 0.63939 0.0
O380 O 0.35524 0.13977 0.70335 0.0
O381 O 0.34444 0.12733 0.63217 0.0
O382 O 0.40108 0.13554 0.74862 0.0
O383 O 0.38263 0.15854 0.75248 0.0
O384 O 0.39638 0.11011 0.67405 0.0
O385 O 0.37178 0.11543 0.64442 0.0
O386 O 0.40002 0.13198 0.58571 0.0
O387 O 0.40949 0.14635 0.65636 0.0
O388 O 0.35212 0.13569 0.53903 0.0
O389 O 0.37364 0.11563 0.53269 0.0
O390 O 0.35823 0.16213 0.61144 0.0
O391 O 0.38293 0.1575 0.64127 0.0
H392 H 0.39793 0.17548 0.84885 0.0
H393 H 0.39305 0.17257 0.92637 0.0
H394 H 0.37539 0.11651 0.88079 0.0
H395 H 0.37993 0.11972 0.8029 0.0
H396 H 0.39316 0.12245 0.4679 0.0
H397 H 0.39717 0.12545 0.38983 0.0
H398 H 0.33987 0.13467 0.37558 0.0
H399 H 0.33589 0.1312 0.45295 0.0
Ho400 Ho 0.63948 0.64158 0.44723 0.0
Ho401 Ho 0.63901 0.62188 0.34355 0.0
C402 C 0.64014 0.59692 0.42062 0.0
C403 C 0.63558 0.65258 0.53273 0.0
C404 C 0.63493 0.64556 0.57541 0.0
C405 C 0.61842 0.64064 0.5919 0.0
C406 C 0.61769 0.63598 0.63445 0.0
C407 C 0.63343 0.6362 0.66165 0.0
C408 C 0.64996 0.6408 0.64471 0.0
C409 C 0.65069 0.64548 0.60229 0.0
C410 C 0.67102 0.63909 0.40308 0.0
C411 C 0.63423 0.66638 0.37367 0.0
C412 C 0.6502 0.61019 0.26331 0.0
C413 C 0.64689 0.61259 0.21648 0.0
C414 C 0.6617 0.61573 0.19103 0.0
C415 C 0.65928 0.61743 0.14619 0.0
C416 C 0.64196 0.61594 0.1255 0.0
C417 C 0.62707 0.61302 0.1513 0.0
C418 C 0.6295 0.61137 0.19634 0.0
C419 C 0.60474 0.62879 0.37228 0.0
O420 O 0.63775 0.61184 0.45149 0.0
O421 O 0.64241 0.59741 0.37754 0.0
O422 O 0.65115 0.6519 0.51313 0.0
O423 O 0.62196 0.64883 0.50394 0.0
O424 O 0.66661 0.65315 0.43308 0.0
O425 O 0.65882 0.62704 0.39928 0.0
O426 O 0.64004 0.65249 0.34304 0.0
O427 O 0.63031 0.66458 0.41489 0.0
O428 O 0.63778 0.60171 0.28195 0.0
O429 O 0.65745 0.62422 0.29089 0.0
O430 O 0.60861 0.62116 0.33154 0.0
O431 O 0.61943 0.63225 0.39411 0.0
H432 H 0.60598 0.64075 0.57236 0.0
H433 H 0.60475 0.63233 0.64619 0.0
H434 H 0.66231 0.64144 0.66488 0.0
H435 H 0.66359 0.64952 0.59111 0.0
H436 H 0.67524 0.61678 0.20585 0.0
H437 H 0.67104 0.62003 0.12781 0.0
H438 H 0.61355 0.61164 0.13648 0.0
H439 H 0.61781 0.60897 0.21518 0.0
Ho440 Ho 0.13573 0.88212 0.07417 0.0
Ho441 Ho 0.13915 0.90219 0.17776 0.0
C442 C 0.1405 0.92685 0.09974 0.0
C443 C 0.12751 0.87178 0.9895 0.0
C444 C 0.12912 0.87774 0.94573 0.0
C445 C 0.11369 0.8776 0.91773 0.0
C446 C 0.11501 0.88144 0.87449 0.0
C447 C 0.13185 0.88542 0.85795 0.0
C448 C 0.14725 0.88598 0.88648 0.0
C449 C 0.14591 0.88222 0.92985 0.0
C450 C 0.16871 0.88365 0.1159 0.0
C451 C 0.13174 0.85784 0.14877 0.0
C452 C 0.1528 0.91301 0.25787 0.0
C453 C 0.15024 0.9102 0.30431 0.0
C454 C 0.16537 0.91075 0.33334 0.0
C455 C 0.16346 0.90842 0.37767 0.0
C456 C 0.14632 0.9055 0.39417 0.0
C457 C 0.13114 0.90486 0.36481 0.0
C458 C 0.13309 0.90714 0.32031 0.0
C459 C 0.10381 0.89634 0.15097 0.0
O460 O 0.13748 0.91185 0.06891 0.0
O461 O 0.14267 0.92651 0.14329 0.0
O462 O 0.14234 0.86701 1.00864 0.0
O463 O 0.11644 0.88089 0.01841 0.0
O464 O 0.16308 0.86987 0.08563 0.0
O465 O 0.15699 0.89606 0.12061 0.0
O466 O 0.13907 0.87159 0.17853 0.0
O467 O 0.1263 0.85979 0.10802 0.0
O468 O 0.14021 0.922 0.23999 0.0
O469 O 0.15894 0.89899 0.22949 0.0
O470 O 0.10911 0.9045 0.19091 0.0
O471 O 0.11778 0.89198 0.12883 0.0
H472 H 0.10061 0.87405 0.92894 0.0
H473 H 0.10288 0.88067 0.85347 0.0
H474 H 0.1604 0.88926 0.87522 0.0
H475 H 0.15808 0.8825 0.95059 0.0
H476 H 0.17873 0.91312 0.32177 0.0
H477 H 0.17543 0.90925 0.39927 0.0
H478 H 0.11776 0.90241 0.37606 0.0
H479 H 0.1212 0.90652 0.29847 0.0
Ho480 Ho 0.8851 0.63769 0.20219 0.0
Ho481 Ho 0.87032 0.62941 0.10036 0.0
C482 C 0.84174 0.63201 0.18154 0.0
C483 C 0.89237 0.65018 0.28644 0.0
C484 C 0.88773 0.64701 0.33147 0.0
C485 C 0.88572 0.66213 0.36638 0.0
C486 C 0.88285 0.65965 0.41021 0.0
C487 C 0.88197 0.64195 0.42027 0.0
C488 C 0.8835 0.62677 0.38489 0.0
C489 C 0.88634 0.62927 0.34096 0.0
C490 C 0.88483 0.60219 0.1583 0.0
C491 C 0.91289 0.63786 0.12559 0.0
C492 C 0.86231 0.6132 0.01902 0.0
C493 C 0.86466 0.61621 0.97249 0.0
C494 C 0.87541 0.60419 0.94292 0.0
C495 C 0.87706 0.60624 0.89827 0.0
C496 C 0.86783 0.62027 0.88194 0.0
C497 C 0.85716 0.63237 0.91167 0.0
C498 C 0.85561 0.63039 0.95636 0.0
C499 C 0.87501 0.66621 0.12955 0.0
O500 O 0.85518 0.63659 0.21133 0.0
O501 O 0.84435 0.62748 0.1376 0.0
O502 O 0.90185 0.63754 0.2614 0.0
O503 O 0.8798 0.65705 0.26351 0.0
O504 O 0.89664 0.60889 0.18943 0.0
O505 O 0.87323 0.61418 0.15496 0.0
O506 O 0.90105 0.6279 0.09727 0.0
O507 O 0.90817 0.64658 0.16566 0.0
O508 O 0.85125 0.62413 0.04431 0.0
O509 O 0.87688 0.60949 0.04111 0.0
O510 O 0.86893 0.65878 0.08981 0.0
O511 O 0.87812 0.65346 0.15057 0.0
H512 H 0.8867 0.67593 0.35989 0.0
H513 H 0.88138 0.67166 0.43628 0.0
H514 H 0.88304 0.61294 0.3913 0.0
H515 H 0.88783 0.61735 0.31464 0.0
H516 H 0.88239 0.59302 0.95421 0.0
H517 H 0.88522 0.59655 0.87623 0.0
H518 H 0.85005 0.64346 0.90042 0.0
H519 H 0.84718 0.63991 0.9781 0.0
Ho520 Ho 0.14116 0.14054 0.95195 0.0
Ho521 Ho 0.1416 0.12065 0.84906 0.0
C522 C 0.14294 0.09582 0.92662 0.0
C523 C 0.13667 0.15161 0.03725 0.0
C524 C 0.13637 0.14481 0.08029 0.0
C525 C 0.11984 0.14243 0.10031 0.0
C526 C 0.11946 0.13817 0.1433 0.0
C527 C 0.1356 0.13629 0.16759 0.0
C528 C 0.15212 0.13825 0.14705 0.0
C529 C 0.15251 0.14249 0.10408 0.0
C530 C 0.1729 0.13904 0.90868 0.0
C531 C 0.13526 0.16507 0.8781 0.0
C532 C 0.15361 0.10922 0.76947 0.0
C533 C 0.15057 0.11168 0.72263 0.0
C534 C 0.16557 0.11264 0.69594 0.0
C535 C 0.16329 0.11442 0.65109 0.0
C536 C 0.14589 0.11524 0.63169 0.0
C537 C 0.13084 0.11454 0.65879 0.0
C538 C 0.13314 0.11279 0.7038 0.0
C539 C 0.10692 0.12685 0.87546 0.0
O540 O 0.14053 0.11083 0.9572 0.0
O541 O 0.14496 0.0962 0.88336 0.0
O542 O 0.15224 0.15181 0.01796 0.0
O543 O 0.12329 0.1469 1.00823 0.0
O544 O 0.16777 0.15314 0.93764 0.0
O545 O 0.1612 0.12649 0.90514 0.0
O546 O 0.14154 0.1513 0.8478 0.0
O547 O 0.13131 0.16317 0.91922 0.0
O548 O 0.14107 0.10058 0.7873 0.0
O549 O 0.16054 0.12327 0.79756 0.0
O550 O 0.11136 0.11911 0.83523 0.0
O551 O 0.12134 0.13073 0.89842 0.0
H552 H 0.10716 0.1443 0.08317 0.0
H553 H 0.10647 0.13652 0.15768 0.0
H554 H 0.16484 0.13718 0.16482 0.0
H555 H 0.1655 0.14447 0.09012 0.0
H556 H 0.17914 0.11192 0.7098 0.0
H557 H 0.17522 0.11528 0.63172 0.0
H558 H 0.11724 0.11498 0.645 0.0
H559 H 0.12133 0.11214 0.72372 0.0
Ho560 Ho 0.6399 0.38168 0.55736 0.0
Ho561 Ho 0.6407 0.40156 0.66164 0.0
C562 C 0.64235 0.42647 0.58434 0.0
C563 C 0.6334 0.37104 0.47207 0.0
C564 C 0.63456 0.37743 0.42882 0.0
C565 C 0.61891 0.37724 0.40157 0.0
C566 C 0.61981 0.38145 0.35867 0.0
C567 C 0.63644 0.38584 0.34182 0.0
C568 C 0.65205 0.38646 0.3696 0.0
C569 C 0.65113 0.38232 0.41263 0.0
C570 C 0.67201 0.38474 0.60318 0.0
C571 C 0.63516 0.35699 0.63117 0.0
C572 C 0.65303 0.41294 0.74265 0.0
C573 C 0.65036 0.41018 0.78894 0.0
C574 C 0.6655 0.41058 0.81786 0.0
C575 C 0.66357 0.40816 0.86204 0.0
C576 C 0.64641 0.40528 0.87842 0.0
C577 C 0.63122 0.40484 0.84923 0.0
C578 C 0.63317 0.40721 0.80485 0.0
C579 C 0.60619 0.39468 0.62953 0.0
O580 O 0.64029 0.4115 0.55291 0.0
O581 O 0.64399 0.42604 0.62792 0.0
O582 O 0.64856 0.36784 0.49235 0.0
O583 O 0.62127 0.37873 0.50004 0.0
O584 O 0.66762 0.37085 0.57181 0.0
O585 O 0.65963 0.39643 0.60668 0.0
O586 O 0.64105 0.37098 0.66248 0.0
O587 O 0.63095 0.35873 0.58952 0.0
O588 O 0.64023 0.42135 0.72382 0.0
O589 O 0.65989 0.39909 0.71505 0.0
O590 O 0.61031 0.40286 0.67033 0.0
O591 O 0.62077 0.39077 0.60978 0.0
H592 H 0.60599 0.37336 0.41304 0.0
H593 H 0.60754 0.38063 0.33811 0.0
H594 H 0.66504 0.39002 0.35794 0.0
H595 H 0.66346 0.38262 0.43279 0.0
H596 H 0.67888 0.41286 0.80627 0.0
H597 H 0.67554 0.40885 0.8836 0.0
H598 H 0.61783 0.40243 0.86052 0.0
H599 H 0.62129 0.4067 0.78304 0.0
Ho600 Ho 0.38461 0.8832 0.33689 0.0
Ho601 Ho 0.37114 0.88871 0.43028 0.0
C602 C 0.34164 0.88833 0.35114 0.0
C603 C 0.39182 0.87222 0.25312 0.0
C604 C 0.38667 0.87501 0.20767 0.0
C605 C 0.38584 0.85977 0.17251 0.0
C606 C 0.38284 0.862 0.12827 0.0
C607 C 0.38064 0.87959 0.11819 0.0
C608 C 0.38095 0.89484 0.1537 0.0
C609 C 0.3839 0.89257 0.19807 0.0
C610 C 0.38378 0.9188 0.38056 0.0
C611 C 0.41427 0.88304 0.41248 0.0
C612 C 0.36457 0.90011 0.51446 0.0
C613 C 0.36945 0.89713 0.56008 0.0
C614 C 0.37623 0.9119 0.5921 0.0
C615 C 0.37881 0.91023 0.63691 0.0
C616 C 0.37455 0.89376 0.65084 0.0
C617 C 0.36836 0.87876 0.61837 0.0
C618 C 0.36583 0.88042 0.57348 0.0
C619 C 0.37152 0.85293 0.38863 0.0
O620 O 0.35453 0.88174 0.32351 0.0
O621 O 0.34525 0.89459 0.3943 0.0
O622 O 0.40037 0.88566 0.27959 0.0
O623 O 0.38005 0.86404 0.27411 0.0
O624 O 0.39597 0.91222 0.35227 0.0
O625 O 0.37207 0.90665 0.38157 0.0
O626 O 0.40195 0.89083 0.44082 0.0
O627 O 0.40953 0.87547 0.37103 0.0
O628 O 0.35526 0.88727 0.48808 0.0
O629 O 0.37676 0.90755 0.49313 0.0
O630 O 0.35955 0.86024 0.41658 0.0
O631 O 0.38356 0.86476 0.38633 0.0
H632 H 0.38805 0.84611 0.17916 0.0
H633 H 0.3829 0.84998 0.10179 0.0
H634 H 0.37907 0.90854 0.14715 0.0
H635 H 0.3844 0.90456 0.22468 0.0
H636 H 0.37906 0.92495 0.58268 0.0
H637 H 0.38391 0.92196 0.66079 0.0
H638 H 0.36478 0.86592 0.6279 0.0
H639 H 0.3605 0.86878 0.54966 0.0
H640 H 0.16386 0.59848 0.81783 0.0
H641 H 0.16201 0.60225 0.73961 0.0
H642 H 0.13025 0.65097 0.7776 0.0
H643 H 0.13179 0.6472 0.85587 0.0
H644 H 0.13153 0.60353 0.68327 0.0
H645 H 0.17096 0.66837 0.7065 0.0
H646 H 0.17083 0.65403 0.74824 0.0
H647 H 0.1522 0.66903 0.74302 0.0
C648 C 0.15633 0.60993 0.80963 0.0
C649 C 0.14802 0.62256 0.84345 0.0
C650 C 0.15538 0.61211 0.76482 0.0
C651 C 0.14623 0.62705 0.75273 0.0
C652 C 0.13774 0.63957 0.7862 0.0
H653 H 0.12347 0.66438 0.50297 0.0
H654 H 0.12584 0.66013 0.58071 0.0
C655 C 0.13865 0.63739 0.83103 0.0
C656 C 0.14533 0.62932 0.70502 0.0
H657 H 0.15645 0.65852 0.63537 0.0
C658 C 0.13706 0.6155 0.67275 0.0
C659 C 0.15254 0.64496 0.69125 0.0
C660 C 0.16228 0.65989 0.72392 0.0
C661 C 0.13546 0.61707 0.62735 0.0
C662 C 0.14262 0.63274 0.61361 0.0
C663 C 0.15095 0.64652 0.64587 0.0
C664 C 0.14141 0.63523 0.56606 0.0
C665 C 0.12568 0.60217 0.59471 0.0
C666 C 0.14959 0.62278 0.53183 0.0
C667 C 0.14837 0.62524 0.48721 0.0
C668 C 0.13902 0.64027 0.47581 0.0
C669 C 0.131 0.65279 0.51037 0.0
C670 C 0.13225 0.65033 0.55492 0.0
H671 H 0.11711 0.59359 0.61216 0.0
H672 H 0.11701 0.60806 0.57068 0.0
H673 H 0.13573 0.59311 0.57528 0.0
H674 H 0.15708 0.61124 0.53967 0.0
H675 H 0.15497 0.61548 0.46173 0.0
H676 H 0.65968 0.8679 0.03826 0.0
H677 H 0.6615 0.87029 0.9592 0.0
H678 H 0.61794 0.9092 0.97508 0.0
H679 H 0.61603 0.90688 0.05403 0.0
H680 H 0.63511 0.8623 0.89207 0.0
H681 H 0.65565 0.93536 0.9148 0.0
H682 H 0.65672 0.92274 0.96003 0.0
H683 H 0.63553 0.93161 0.94357 0.0
C684 C 0.6505 0.87699 0.02496 0.0
C685 C 0.63777 0.88727 0.05265 0.0
C686 C 0.65159 0.87838 0.97978 0.0
C687 C 0.64004 0.89013 0.96129 0.0
C688 C 0.62731 0.90039 0.98879 0.0
H689 H 0.62305 0.91499 0.69431 0.0
H690 H 0.62117 0.91273 0.77347 0.0
C691 C 0.62624 0.89905 0.034 0.0
C692 C 0.64085 0.8911 0.91288 0.0
H693 H 0.64728 0.92053 0.84075 0.0
C694 C 0.63787 0.87501 0.88084 0.0
C695 C 0.64437 0.90771 0.89821 0.0
C696 C 0.64842 0.92531 0.9309 0.0
C697 C 0.638 0.87511 0.8346 0.0
C698 C 0.64154 0.89172 0.81992 0.0
C699 C 0.64451 0.90782 0.85197 0.0
C700 C 0.64242 0.89268 0.7715 0.0
C701 C 0.63392 0.85751 0.80194 0.0
C702 C 0.65508 0.88227 0.74405 0.0
C703 C 0.65617 0.88352 0.6988 0.0
C704 C 0.64475 0.89535 0.68004 0.0
C705 C 0.63213 0.90583 0.70769 0.0
C706 C 0.631 0.90452 0.75293 0.0
H707 H 0.62656 0.84754 0.81802 0.0
H708 H 0.62572 0.86009 0.77266 0.0
H709 H 0.6468 0.85111 0.78953 0.0
H710 H 0.66436 0.8734 0.75782 0.0
H711 H 0.6663 0.87554 0.67879 0.0
H712 H 0.39744 0.4131 0.32641 0.0
H713 H 0.39933 0.41546 0.24725 0.0
H714 H 0.36095 0.37107 0.2111 0.0
H715 H 0.35854 0.36899 0.28996 0.0
H716 H 0.40965 0.38885 0.17394 0.0
H717 H 0.33905 0.41082 0.15031 0.0
H718 H 0.34939 0.41143 0.20509 0.0
H719 H 0.34092 0.39017 0.1726 0.0
C720 C 0.38926 0.40396 0.30167 0.0
C721 C 0.37782 0.39087 0.31471 0.0
C722 C 0.39044 0.40526 0.2564 0.0
C723 C 0.38008 0.39363 0.22327 0.0
C724 C 0.36883 0.38042 0.23609 0.0
H725 H 0.36807 0.37775 0.93242 0.0
H726 H 0.36621 0.3759 1.01186 0.0
C727 C 0.36766 0.37909 0.28124 0.0
C728 C 0.38126 0.39504 0.17522 0.0
H729 H 0.35614 0.40265 0.08451 0.0
C730 C 0.39798 0.39198 0.15444 0.0
C731 C 0.36601 0.39906 0.14974 0.0
C732 C 0.34785 0.40323 0.17059 0.0
C733 C 0.39979 0.39246 0.1087 0.0
C734 C 0.38453 0.39645 0.0832 0.0
C735 C 0.36782 0.39955 0.10401 0.0
C736 C 0.38566 0.39763 0.03498 0.0
C737 C 0.41794 0.38825 0.08785 0.0
C738 C 0.397 0.41063 0.02158 0.0
C739 C 0.39817 0.41165 0.97623 0.0
C740 C 0.38791 0.39978 0.94316 0.0
C741 C 0.37634 0.38694 0.95681 0.0
C742 C 0.37518 0.38594 1.00226 0.0
H743 H 0.42676 0.3807 0.10822 0.0
H744 H 0.41639 0.37998 0.05343 0.0
H745 H 0.42487 0.40128 0.08566 0.0
H746 H 0.40496 0.42003 0.04624 0.0
H747 H 0.40738 0.42157 0.96705 0.0
H748 H 0.90518 0.12002 0.5853 0.0
H749 H 0.90741 0.12281 0.5066 0.0
H750 H 0.84942 0.11937 0.49067 0.0
H751 H 0.84703 0.1162 0.5689 0.0
H752 H 0.89453 0.09827 0.42745 0.0
H753 H 0.86236 0.16658 0.44505 0.0
H754 H 0.87086 0.15753 0.49265 0.0
H755 H 0.84951 0.14971 0.46629 0.0
C756 C 0.89288 0.11971 0.56507 0.0
C757 C 0.8759 0.11799 0.58384 0.0
C758 C 0.89419 0.1214 0.52006 0.0
C759 C 0.87858 0.12157 0.49285 0.0
C760 C 0.86164 0.11966 0.51122 0.0
H761 H 0.8564 0.13381 0.21724 0.0
H762 H 0.85476 0.1295 0.29492 0.0
C763 C 0.86031 0.1179 0.55612 0.0
C764 C 0.87998 0.12352 0.44512 0.0
H765 H 0.86807 0.15114 0.37118 0.0
C766 C 0.88883 0.10986 0.41515 0.0
C767 C 0.87248 0.13862 0.42903 0.0
C768 C 0.86339 0.15405 0.45991 0.0
C769 C 0.89004 0.1107 0.36938 0.0
C770 C 0.88256 0.12583 0.35326 0.0
C771 C 0.87377 0.13951 0.38337 0.0
C772 C 0.88369 0.1278 0.3054 0.0
C773 C 0.89889 0.09509 0.33854 0.0
C774 C 0.90049 0.12839 0.28524 0.0
C775 C 0.90147 0.13084 0.24073 0.0
C776 C 0.88566 0.13298 0.21543 0.0
C777 C 0.86885 0.13238 0.23575 0.0
C778 C 0.86789 0.12986 0.28018 0.0
H779 H 0.89913 0.08241 0.35293 0.0
H780 H 0.89179 0.09205 0.30527 0.0
H781 H 0.91308 0.09891 0.33351 0.0
H782 H 0.9129 0.12734 0.30422 0.0
H783 H 0.91465 0.13157 0.22655 0.0
H784 H 0.16296 0.42462 0.24105 0.0
H785 H 0.1607 0.42103 0.31908 0.0
H786 H 0.12778 0.37264 0.2768 0.0
H787 H 0.12975 0.37622 0.19867 0.0
H788 H 0.13001 0.42039 0.37063 0.0
H789 H 0.16738 0.35495 0.35491 0.0
H790 H 0.16792 0.36907 0.31274 0.0
H791 H 0.1488 0.35442 0.31544 0.0
C792 C 0.15511 0.41327 0.24824 0.0
C793 C 0.14657 0.40069 0.21328 0.0
C794 C 0.15392 0.41119 0.29296 0.0
C795 C 0.1443 0.39642 0.30385 0.0
C796 C 0.13562 0.38392 0.2692 0.0
H797 H 0.11871 0.36053 0.55105 0.0
H798 H 0.12173 0.36442 0.47351 0.0
C799 C 0.13678 0.38599 0.22445 0.0
C800 C 0.14305 0.39433 0.35153 0.0
H801 H 0.15275 0.36526 0.4236 0.0
C802 C 0.13507 0.40838 0.38227 0.0
C803 C 0.14964 0.37865 0.36677 0.0
C804 C 0.15907 0.36347 0.33591 0.0
C805 C 0.13315 0.40701 0.4275 0.0
C806 C 0.13969 0.3913 0.4427 0.0
C807 C 0.14773 0.37728 0.41199 0.0
C808 C 0.1381 0.38902 0.49016 0.0
C809 C 0.1237 0.42218 0.45834 0.0
C810 C 0.1465 0.40141 0.5255 0.0
C811 C 0.14491 0.39916 0.57004 0.0
C812 C 0.13496 0.38439 0.58026 0.0
C813 C 0.12671 0.37191 0.54461 0.0
C814 C 0.12833 0.37417 0.50016 0.0
H815 H 0.11555 0.43083 0.43934 0.0
H816 H 0.11468 0.41654 0.48111 0.0
H817 H 0.13394 0.43111 0.47925 0.0
H818 H 0.15445 0.41276 0.51862 0.0
H819 H 0.1517 0.40887 0.59641 0.0
H820 H 0.85342 0.8861 0.80137 0.0
H821 H 0.85273 0.89051 0.72347 0.0
H822 H 0.91076 0.89592 0.72814 0.0
H823 H 0.91161 0.89116 0.80578 0.0
H824 H 0.86603 0.92045 0.68654 0.0
H825 H 0.9004 0.85524 0.61706 0.0
H826 H 0.89079 0.85956 0.67205 0.0
H827 H 0.91211 0.86971 0.66319 0.0
C828 C 0.86606 0.88813 0.7858 0.0
C829 C 0.88259 0.88816 0.80989 0.0
C830 C 0.86563 0.89075 0.7413 0.0
C831 C 0.8817 0.89328 0.71968 0.0
C832 C 0.89819 0.89371 0.74385 0.0
H833 H 0.90419 0.90367 0.44439 0.0
H834 H 0.90639 0.90162 0.52382 0.0
C835 C 0.89864 0.89118 0.78845 0.0
C836 C 0.88115 0.89545 0.67189 0.0
H837 H 0.89406 0.87524 0.56687 0.0
C838 C 0.87214 0.91056 0.66035 0.0
C839 C 0.88919 0.88258 0.63773 0.0
C840 C 0.89856 0.86576 0.64785 0.0
C841 C 0.8711 0.91327 0.61573 0.0
C842 C 0.87891 0.90026 0.5814 0.0
C843 C 0.88806 0.88522 0.59306 0.0
C844 C 0.87751 0.90183 0.53316 0.0
C845 C 0.86195 0.93027 0.606 0.0
C846 C 0.86056 0.90243 0.51159 0.0
C847 C 0.85926 0.90379 0.46625 0.0
C848 C 0.87488 0.90438 0.44108 0.0
C849 C 0.89186 0.90355 0.46269 0.0
C850 C 0.89314 0.90224 0.50812 0.0
H851 H 0.86165 0.94126 0.63639 0.0
H852 H 0.86887 0.93567 0.57917 0.0
H853 H 0.84777 0.92687 0.59463 0.0
H854 H 0.84828 0.90173 0.52976 0.0
H855 H 0.84595 0.90458 0.45109 0.0
H856 H 0.35655 0.63582 0.73402 0.0
H857 H 0.35524 0.63174 0.81201 0.0
H858 H 0.41117 0.6157 0.80913 0.0
H859 H 0.41272 0.6201 0.73143 0.0
H860 H 0.3626 0.59997 0.8494 0.0
H861 H 0.40911 0.65767 0.91963 0.0
H862 H 0.39871 0.65513 0.86433 0.0
H863 H 0.41776 0.6413 0.8739 0.0
C864 C 0.36861 0.63152 0.75003 0.0
C865 C 0.38477 0.62839 0.72645 0.0
C866 C 0.36781 0.6291 0.79455 0.0
C867 C 0.38317 0.62368 0.81665 0.0
C868 C 0.39922 0.62017 0.793 0.0
H869 H 0.40451 0.60775 0.09071 0.0
H870 H 0.40658 0.60981 1.0115 0.0
C871 C 0.40002 0.6225 0.74839 0.0
C872 C 0.38236 0.62169 0.8644 0.0
H873 H 0.39942 0.63906 0.96964 0.0
C874 C 0.37062 0.60853 0.87572 0.0
C875 C 0.39287 0.63284 0.89871 0.0
C876 C 0.40523 0.64765 0.8888 0.0
C877 C 0.36927 0.60605 0.9203 0.0
C878 C 0.37965 0.61733 0.95472 0.0
C879 C 0.39147 0.63042 0.94332 0.0
C880 C 0.37829 0.61592 1.00279 0.0
C881 C 0.35701 0.59112 0.92997 0.0
C882 C 0.36176 0.6189 0.02455 0.0
C883 C 0.36051 0.61762 0.06976 0.0
C884 C 0.3758 0.61345 0.09445 0.0
C885 C 0.3924 0.61071 0.07266 0.0
C886 C 0.39364 0.612 0.02741 0.0
H887 H 0.35412 0.58056 0.89944 0.0
H888 H 0.36305 0.58432 0.95635 0.0
H889 H 0.34396 0.59721 0.94205 0.0
H890 H 0.34981 0.6223 1.00659 0.0
H891 H 0.34747 0.61966 0.08519 0.0
H892 H 0.62345 0.16426 0.9894 0.0
H893 H 0.62519 0.16118 0.06803 0.0
H894 H 0.65393 0.11038 0.03155 0.0
H895 H 0.65285 0.11368 0.95287 0.0
H896 H 0.61133 0.13337 0.10636 0.0
H897 H 0.68577 0.13852 0.13341 0.0
H898 H 0.67442 0.1449 0.08536 0.0
H899 H 0.67844 0.12117 0.08679 0.0
C900 C 0.63045 0.15259 0.99808 0.0
C901 C 0.63815 0.1393 0.96468 0.0
C902 C 0.63129 0.15078 0.04308 0.0
C903 C 0.63989 0.13569 0.05583 0.0
C904 C 0.64752 0.12233 0.02265 0.0
H905 H 0.65719 0.10045 0.3105 0.0
H906 H 0.65534 0.10299 0.2315 0.0
C907 C 0.64671 0.12413 0.97758 0.0
C908 C 0.64036 0.13371 0.10365 0.0
H909 H 0.66889 0.13037 0.192 0.0
C910 C 0.62392 0.13278 0.12515 0.0
C911 C 0.65678 0.13291 0.12812 0.0
C912 C 0.67487 0.13459 0.10745 0.0
C913 C 0.62344 0.13078 0.17021 0.0
C914 C 0.63987 0.13004 0.19472 0.0
C915 C 0.65631 0.13093 0.17319 0.0
C916 C 0.64033 0.1283 0.24273 0.0
C917 C 0.60535 0.12909 0.19082 0.0
C918 C 0.63256 0.14173 0.27547 0.0
C919 C 0.63341 0.14022 0.32074 0.0
C920 C 0.64219 0.12531 0.3343 0.0
C921 C 0.65001 0.11193 0.30132 0.0
C922 C 0.64912 0.11344 0.25611 0.0
H923 H 0.59452 0.1249 0.16481 0.0
H924 H 0.60584 0.11897 0.21341 0.0
H925 H 0.60162 0.14257 0.21091 0.0
H926 H 0.62601 0.15352 0.26611 0.0
H927 H 0.62715 0.15073 0.34508 0.0
H928 H 0.84996 0.37798 0.19754 0.0
H929 H 0.85197 0.37489 0.27631 0.0
H930 H 0.89104 0.41895 0.30357 0.0
H931 H 0.88913 0.42213 0.22489 0.0
H932 H 0.88107 0.367 0.32779 0.0
H933 H 0.85421 0.43562 0.39939 0.0
H934 H 0.85244 0.42593 0.34026 0.0
H935 H 0.8733 0.43623 0.36451 0.0
C936 C 0.85908 0.38695 0.22018 0.0
C937 C 0.86931 0.40038 0.20475 0.0
C938 C 0.86015 0.38522 0.26532 0.0
C939 C 0.8714 0.39691 0.29618 0.0
C940 C 0.88189 0.41009 0.28076 0.0
H941 H 0.89801 0.40669 0.58105 0.0
H942 H 0.89561 0.41021 0.50261 0.0
C943 C 0.8808 0.41187 0.23566 0.0
C944 C 0.87241 0.39504 0.34423 0.0
H945 H 0.86634 0.41832 0.45122 0.0
C946 C 0.87776 0.37819 0.35475 0.0
C947 C 0.86813 0.40965 0.37952 0.0
C948 C 0.86154 0.42783 0.37047 0.0
C949 C 0.87926 0.37566 0.39946 0.0
C950 C 0.87497 0.39027 0.43475 0.0
C951 C 0.86964 0.40712 0.42424 0.0
C952 C 0.87599 0.38837 0.48276 0.0
C953 C 0.88586 0.35748 0.40851 0.0
C954 C 0.86548 0.37519 0.49813 0.0
C955 C 0.86678 0.37318 0.54304 0.0
C956 C 0.87852 0.38441 0.57381 0.0
C957 C 0.8887 0.39791 0.55852 0.0
C958 C 0.88742 0.39988 0.51356 0.0
H959 H 0.89313 0.34967 0.37954 0.0
H960 H 0.89501 0.35939 0.43863 0.0
H961 H 0.8741 0.34911 0.41465 0.0
H962 H 0.8562 0.36646 0.47537 0.0
H963 H 0.85848 0.36287 0.55372 0.0
H964 H 0.34644 0.11559 0.30484 0.0
H965 H 0.34942 0.11754 0.226 0.0
H966 H 0.39883 0.14856 0.25853 0.0
H967 H 0.3959 0.14679 0.33774 0.0
H968 H 0.35064 0.14842 0.18729 0.0
H969 H 0.41356 0.10817 0.15509 0.0
H970 H 0.40037 0.10819 0.20422 0.0
H971 H 0.41531 0.12704 0.20171 0.0
C972 C 0.35791 0.12293 0.29539 0.0
C973 C 0.37092 0.13107 0.32784 0.0
C974 C 0.35963 0.12395 0.25017 0.0
C975 C 0.37446 0.13299 0.23615 0.0
C976 C 0.38747 0.14116 0.26835 0.0
H977 H 0.40708 0.15712 0.98118 0.0
H978 H 0.40416 0.15443 0.05958 0.0
C979 C 0.38577 0.14014 0.31368 0.0
C980 C 0.37595 0.13427 0.18803 0.0
H981 H 0.40291 0.12325 0.09735 0.0
C982 C 0.36202 0.14284 0.16756 0.0
C983 C 0.39081 0.12699 0.16226 0.0
C984 C 0.4058 0.11692 0.18172 0.0
C985 C 0.36272 0.14465 0.12237 0.0
C986 C 0.3776 0.1374 0.09662 0.0
C987 C 0.39151 0.1288 0.11706 0.0
C988 C 0.37917 0.13891 0.04867 0.0
C989 C 0.34774 0.15475 0.10294 0.0
C990 C 0.3662 0.13089 0.01616 0.0
C991 C 0.36776 0.13252 0.97118 0.0
C992 C 0.38236 0.14217 0.95773 0.0
C993 C 0.39546 0.14991 0.99036 0.0
C994 C 0.3939 0.14826 0.03522 0.0
H995 H 0.33988 0.16337 0.12958 0.0
H996 H 0.35321 0.16363 0.08082 0.0
H997 H 0.33832 0.14466 0.08255 0.0
H998 H 0.35488 0.12331 0.02555 0.0
H999 H 0.35739 0.12643 0.94707 0.0
H1000 H 0.66377 0.602 0.0557 0.0
H1001 H 0.6606 0.60515 0.9773 0.0
H1002 H 0.61123 0.63519 1.00633 0.0
H1003 H 0.61466 0.63275 0.08534 0.0
H1004 H 0.63357 0.59344 0.91437 0.0
H1005 H 0.6399 0.66925 0.94393 0.0
H1006 H 0.64549 0.65617 0.9867 0.0
H1007 H 0.62228 0.66094 0.97448 0.0
C1008 C 0.65234 0.60951 0.04567 0.0
C1009 C 0.63959 0.6173 0.07719 0.0
C1010 C 0.65048 0.61116 1.00064 0.0
C1011 C 0.63584 0.62067 0.98594 0.0
C1012 C 0.62284 0.62812 0.01699 0.0
H1013 H 0.60774 0.64736 0.72443 0.0
H1014 H 0.60726 0.64254 0.80189 0.0
C1015 C 0.62472 0.62651 0.06213 0.0
C1016 C 0.63423 0.62263 0.93806 0.0
H1017 H 0.63285 0.65422 0.86961 0.0
C1018 C 0.63342 0.60673 0.90459 0.0
C1019 C 0.63401 0.63998 0.92523 0.0
C1020 C 0.63563 0.65757 0.95938 0.0
C1021 C 0.63227 0.60769 0.85879 0.0
C1022 C 0.63224 0.62504 0.84596 0.0
C1023 C 0.63284 0.64094 0.87942 0.0
C1024 C 0.63205 0.62703 0.79806 0.0
C1025 C 0.63086 0.59012 0.82457 0.0
C1026 C 0.64613 0.61992 0.77 0.0
C1027 C 0.64638 0.62254 0.72556 0.0
C1028 C 0.6326 0.63244 0.70818 0.0
C1029 C 0.61843 0.63942 0.73634 0.0
C1030 C 0.6182 0.63681 0.78081 0.0
H1031 H 0.62591 0.57858 0.8396 0.0
H1032 H 0.62165 0.59167 0.7961 0.0
H1033 H 0.64444 0.58645 0.81115 0.0
H1034 H 0.65715 0.61263 0.7827 0.0
H1035 H 0.65744 0.61686 0.70486 0.0
H1036 H 0.11983 0.91922 0.45301 0.0
H1037 H 0.11728 0.91628 0.53157 0.0
H1038 H 0.16569 0.88382 0.52211 0.0
H1039 H 0.16831 0.88662 0.44365 0.0
H1040 H 0.11392 0.88562 0.57039 0.0
H1041 H 0.17724 0.92311 0.63197 0.0
H1042 H 0.1672 0.9236 0.57741 0.0
H1043 H 0.1804 0.90426 0.58633 0.0
C1044 C 0.12988 0.91134 0.46748 0.0
C1045 C 0.14437 0.90329 0.44185 0.0
C1046 C 0.12844 0.90974 0.51256 0.0
C1047 C 0.14148 0.90013 0.5332 0.0
C1048 C 0.15572 0.89173 0.50745 0.0
H1049 H 0.15816 0.87299 0.79773 0.0
H1050 H 0.16005 0.87682 0.71975 0.0
C1051 C 0.15719 0.89335 0.46245 0.0
C1052 C 0.14006 0.89865 0.58138 0.0
H1053 H 0.16273 0.9076 0.68294 0.0
C1054 C 0.12454 0.89054 0.59505 0.0
C1055 C 0.15392 0.90503 0.6137 0.0
C1056 C 0.17056 0.91465 0.60182 0.0
C1057 C 0.1227 0.88822 0.63969 0.0
C1058 C 0.13661 0.89452 0.67198 0.0
C1059 C 0.15208 0.90273 0.65833 0.0
C1060 C 0.13548 0.89255 0.71991 0.0
C1061 C 0.10609 0.87854 0.65151 0.0
C1062 C 0.12124 0.9004 0.74655 0.0
C1063 C 0.12014 0.89825 0.79129 0.0
C1064 C 0.13336 0.88835 0.81072 0.0
C1065 C 0.14783 0.88086 0.78421 0.0
C1066 C 0.14888 0.88296 0.73943 0.0
H1067 H 0.09931 0.87024 0.62128 0.0
H1068 H 0.10952 0.86941 0.67547 0.0
H1069 H 0.09631 0.88888 0.66751 0.0
H1070 H 0.11099 0.90829 0.7328 0.0
H1071 H 0.10898 0.90449 0.81081 0.0
H1072 H 0.84055 0.6276 0.82515 0.0
H1073 H 0.8425 0.63049 0.74653 0.0
H1074 H 0.89975 0.62022 0.75139 0.0
H1075 H 0.89788 0.61718 0.82998 0.0
H1076 H 0.86128 0.65444 0.70824 0.0
H1077 H 0.8839 0.58382 0.64049 0.0
H1078 H 0.87534 0.59043 0.69627 0.0
H1079 H 0.89832 0.59566 0.68516 0.0
C1080 C 0.85358 0.62602 0.80957 0.0
C1081 C 0.86905 0.62209 0.83396 0.0
C1082 C 0.85466 0.6276 0.7645 0.0
C1083 C 0.87122 0.62527 0.74264 0.0
C1084 C 0.88673 0.62159 0.76703 0.0
H1085 H 0.89774 0.66205 0.49685 0.0
H1086 H 0.89451 0.65803 0.57419 0.0
C1087 C 0.88565 0.6199 0.81207 0.0
C1088 C 0.87227 0.62721 0.69477 0.0
H1089 H 0.8851 0.60514 0.59116 0.0
C1090 C 0.86643 0.64362 0.68265 0.0
C1091 C 0.87874 0.61302 0.66109 0.0
C1092 C 0.88426 0.59467 0.67122 0.0
C1093 C 0.86721 0.64636 0.63817 0.0
C1094 C 0.87433 0.63244 0.60485 0.0
C1095 C 0.87982 0.61589 0.61673 0.0
C1096 C 0.87624 0.63485 0.55758 0.0
C1097 C 0.86014 0.66405 0.62713 0.0
C1098 C 0.86739 0.62288 0.52215 0.0
C1099 C 0.86918 0.62516 0.47768 0.0
C1100 C 0.87995 0.63941 0.46761 0.0
C1101 C 0.88899 0.65119 0.50325 0.0
C1102 C 0.88718 0.64891 0.54762 0.0
H1103 H 0.85074 0.67093 0.65285 0.0
H1104 H 0.87164 0.67353 0.62601 0.0
H1105 H 0.85299 0.66164 0.5939 0.0
H1106 H 0.85892 0.61189 0.52896 0.0
H1107 H 0.86191 0.6159 0.45128 0.0
H1108 H 0.12113 0.13561 0.5932 0.0
H1109 H 0.11777 0.1381 0.51415 0.0
H1110 H 0.16249 0.10135 0.48192 0.0
H1111 H 0.16551 0.09823 0.56033 0.0
H1112 H 0.14229 0.15091 0.46072 0.0
H1113 H 0.12468 0.07863 0.38878 0.0
H1114 H 0.12417 0.08779 0.44818 0.0
H1115 H 0.14526 0.08109 0.42201 0.0
C1116 C 0.13007 0.12781 0.56922 0.0
C1117 C 0.14358 0.11668 0.58337 0.0
C1118 C 0.1282 0.12935 0.52402 0.0
C1119 C 0.13969 0.1197 0.49183 0.0
C1120 C 0.15321 0.10864 0.50584 0.0
H1121 H 0.15793 0.11439 0.20835 0.0
H1122 H 0.15843 0.11075 0.28677 0.0
C1123 C 0.15508 0.10708 0.55094 0.0
C1124 C 0.13802 0.12173 0.44396 0.0
H1125 H 0.13222 0.09758 0.3368 0.0
C1126 C 0.13994 0.13927 0.43366 0.0
C1127 C 0.135 0.10654 0.40854 0.0
C1128 C 0.13198 0.08748 0.41735 0.0
C1129 C 0.13939 0.14196 0.38902 0.0
C1130 C 0.13652 0.12675 0.35358 0.0
C1131 C 0.13446 0.10924 0.36389 0.0
C1132 C 0.13583 0.12871 0.3056 0.0
C1133 C 0.14243 0.16103 0.38018 0.0
C1134 C 0.12275 0.13975 0.2897 0.0
C1135 C 0.12251 0.14198 0.24491 0.0
C1136 C 0.13527 0.13311 0.21478 0.0
C1137 C 0.14807 0.12168 0.23062 0.0
C1138 C 0.1483 0.11947 0.27544 0.0
H1139 H 0.14904 0.17013 0.40945 0.0
H1140 H 0.15092 0.16072 0.35047 0.0
H1141 H 0.12921 0.16711 0.3734 0.0
H1142 H 0.11275 0.14674 0.31202 0.0
H1143 H 0.11254 0.15101 0.2342 0.0
H1144 H 0.66212 0.37342 0.2802 0.0
H1145 H 0.66329 0.37751 0.20225 0.0
H1146 H 0.61413 0.40877 0.21831 0.0
H1147 H 0.61307 0.4051 0.29664 0.0
H1148 H 0.63697 0.36624 0.13344 0.0
H1149 H 0.64821 0.44152 0.16262 0.0
H1150 H 0.6518 0.42827 0.20611 0.0
H1151 H 0.62929 0.43427 0.1909 0.0
C1152 C 0.65172 0.38145 0.26744 0.0
C1153 C 0.63754 0.38901 0.29486 0.0
C1154 C 0.65233 0.38365 0.22274 0.0
C1155 C 0.63891 0.39361 0.20451 0.0
C1156 C 0.62479 0.40127 0.23179 0.0
H1157 H 0.62041 0.41946 0.93795 0.0
H1158 H 0.61786 0.41603 0.01622 0.0
C1159 C 0.62412 0.39901 0.27647 0.0
C1160 C 0.63936 0.39539 0.15655 0.0
H1161 H 0.64258 0.42652 0.08745 0.0
C1162 C 0.63825 0.37942 0.12338 0.0
C1163 C 0.64092 0.41259 0.14342 0.0
C1164 C 0.64278 0.43016 0.17755 0.0
C1165 C 0.63849 0.38018 0.07749 0.0
C1166 C 0.64025 0.39737 0.06433 0.0
C1167 C 0.64121 0.41336 0.09751 0.0
C1168 C 0.64152 0.39901 0.0164 0.0
C1169 C 0.63652 0.36259 0.04349 0.0
C1170 C 0.65572 0.39068 0.99045 0.0
C1171 C 0.65715 0.39253 0.94567 0.0
C1172 C 0.64448 0.40286 0.92579 0.0
C1173 C 0.63026 0.4112 0.9519 0.0
C1174 C 0.62886 0.40936 0.99678 0.0
H1175 H 0.63023 0.35156 0.05812 0.0
H1176 H 0.6282 0.36463 1.01389 0.0
H1177 H 0.65009 0.35787 0.03184 0.0
H1178 H 0.66584 0.38289 1.00499 0.0
H1179 H 0.66819 0.38578 0.92656 0.0
H1180 H 0.36072 0.85884 0.04937 0.0
H1181 H 0.35985 0.86135 0.97014 0.0
H1182 H 0.39544 0.90831 1.00019 0.0
H1183 H 0.3968 0.90561 0.07924 0.0
H1184 H 0.34899 0.89028 0.92869 0.0
H1185 H 0.42132 0.8737 0.90017 0.0
H1186 H 0.40986 0.8697 0.94918 0.0
H1187 H 0.41746 0.89237 0.94586 0.0
C1188 C 0.36844 0.86965 0.0391 0.0
C1189 C 0.37893 0.88195 0.07065 0.0
C1190 C 0.36785 0.87112 0.99385 0.0
C1191 C 0.37783 0.88482 0.97915 0.0
C1192 C 0.3879 0.89743 1.01068 0.0
H1193 H 0.36528 0.91984 0.72301 0.0
H1194 H 0.36633 0.91761 0.80219 0.0
C1195 C 0.38848 0.896 0.05596 0.0
C1196 C 0.37769 0.88586 0.93081 0.0
H1197 H 0.40495 0.88358 0.84093 0.0
C1198 C 0.36121 0.88879 0.90946 0.0
C1199 C 0.39362 0.88363 0.90562 0.0
C1200 C 0.41156 0.8795 0.92616 0.0
C1201 C 0.36026 0.88988 0.86378 0.0
C1202 C 0.37628 0.88826 0.83895 0.0
C1203 C 0.39272 0.885 0.86011 0.0
C1204 C 0.37624 0.8898 0.7909 0.0
C1205 C 0.34205 0.89244 0.84235 0.0
C1206 C 0.38207 0.87513 0.75829 0.0
C1207 C 0.38174 0.87645 0.71291 0.0
C1208 C 0.37569 0.89253 0.69926 0.0
C1209 C 0.3702 0.90732 0.73224 0.0
C1210 C 0.37055 0.90599 0.77754 0.0
H1211 H 0.33083 0.88849 0.86222 0.0
H1212 H 0.34037 0.90709 0.84035 0.0
H1213 H 0.3409 0.88422 0.8078 0.0
H1214 H 0.38666 0.86256 0.76791 0.0
H1215 H 0.3863 0.86489 0.68855 0.0
H1216 H 0.15626 0.69273 0.0933 0.0
H1217 H 0.15294 0.72579 0.11286 0.0
H1218 H 0.12494 0.7201 0.23214 0.0
H1219 H 0.12833 0.68644 0.21248 0.0
H1220 H 0.10772 0.744 0.17789 0.0
H1221 H 0.17985 0.76194 0.21326 0.0
H1222 H 0.17629 0.74604 0.16134 0.0
H1223 H 0.17095 0.7393 0.21336 0.0
C1224 C 0.14952 0.69844 0.12399 0.0
C1225 C 0.14263 0.68697 0.15149 0.0
C1226 C 0.1477 0.71741 0.13522 0.0
C1227 C 0.13895 0.72551 0.17429 0.0
C1228 C 0.13191 0.71415 0.202 0.0
H1229 H 0.14469 0.84634 0.22469 0.0
H1230 H 0.14474 0.81507 0.23969 0.0
C1231 C 0.13387 0.69497 0.19086 0.0
C1232 C 0.13672 0.74579 0.18413 0.0
H1233 H 0.161 0.7855 0.19218 0.0
C1234 C 0.11933 0.75314 0.18199 0.0
C1235 C 0.15183 0.7578 0.19005 0.0
C1236 C 0.17078 0.7509 0.19511 0.0
C1237 C 0.11676 0.77196 0.18261 0.0
C1238 C 0.132 0.78372 0.18471 0.0
C1239 C 0.14929 0.77654 0.18997 0.0
C1240 C 0.13048 0.80306 0.17794 0.0
C1241 C 0.09774 0.77899 0.18023 0.0
C1242 C 0.12247 0.80683 0.13827 0.0
C1243 C 0.1224 0.82466 0.12962 0.0
C1244 C 0.13049 0.83924 0.16025 0.0
C1245 C 0.13826 0.83552 0.20039 0.0
C1246 C 0.13833 0.81761 0.20901 0.0
H1247 H 0.08805 0.77035 0.19448 0.0
H1248 H 0.09668 0.79337 0.19849 0.0
H1249 H 0.09365 0.77848 0.1446 0.0
H1250 H 0.11675 0.79584 0.11315 0.0
H1251 H 0.11635 0.82689 0.09826 0.0
H1252 H 0.57766 0.86795 0.34731 0.0
H1253 H 0.54576 0.86955 0.36488 0.0
H1254 H 0.55827 0.90545 0.49097 0.0
H1255 H 0.59062 0.90391 0.47361 0.0
H1256 H 0.53048 0.87597 0.49233 0.0
H1257 H 0.5166 0.9174 0.36167 0.0
H1258 H 0.52931 0.89702 0.34217 0.0
H1259 H 0.53904 0.9149 0.38447 0.0
C1260 C 0.57377 0.87611 0.37903 0.0
C1261 C 0.58679 0.88596 0.40884 0.0
C1262 C 0.55545 0.87702 0.38897 0.0
C1263 C 0.54956 0.88785 0.42887 0.0
C1264 C 0.56251 0.89707 0.45984 0.0
H1265 H 0.4325 0.90449 0.48462 0.0
H1266 H 0.46554 0.90708 0.49733 0.0
C1267 C 0.58099 0.89616 0.44989 0.0
C1268 C 0.5298 0.88996 0.43642 0.0
H1269 H 0.49108 0.90304 0.38765 0.0
C1270 C 0.52187 0.88223 0.47012 0.0
C1271 C 0.51855 0.89821 0.40757 0.0
C1272 C 0.52628 0.90752 0.37218 0.0
C1273 C 0.50291 0.88159 0.47381 0.0
C1274 C 0.4917 0.88889 0.4432 0.0
C1275 C 0.49969 0.89741 0.41106 0.0
C1276 C 0.47177 0.88606 0.44022 0.0
C1277 C 0.49486 0.87229 0.50873 0.0
C1278 C 0.46435 0.8732 0.40455 0.0
C1279 C 0.44566 0.87168 0.39731 0.0
C1280 C 0.43382 0.88307 0.42544 0.0
C1281 C 0.44121 0.89545 0.46249 0.0
C1282 C 0.46008 0.89697 0.46973 0.0
H1283 H 0.50538 0.86724 0.53008 0.0
H1284 H 0.48602 0.88202 0.53049 0.0
H1285 H 0.4863 0.86054 0.49207 0.0
H1286 H 0.4731 0.86466 0.38138 0.0
H1287 H 0.44053 0.86189 0.36862 0.0
H1288 H 0.40546 0.34426 0.65614 0.0
H1289 H 0.40855 0.31229 0.66662 0.0
H1290 H 0.35148 0.30354 0.63888 0.0
H1291 H 0.34834 0.33513 0.62823 0.0
H1292 H 0.38912 0.28996 0.72389 0.0
H1293 H 0.37725 0.26575 0.5412 0.0
H1294 H 0.3836 0.28911 0.56505 0.0
H1295 H 0.36059 0.28158 0.56699 0.0
C1296 C 0.39356 0.33556 0.65301 0.0
C1297 C 0.37669 0.34214 0.64082 0.0
C1298 C 0.39534 0.31731 0.65896 0.0
C1299 C 0.38029 0.30542 0.65277 0.0
C1300 C 0.36332 0.31235 0.64313 0.0
H1301 H 0.34583 0.19532 0.63425 0.0
H1302 H 0.35034 0.22829 0.64164 0.0
C1303 C 0.36155 0.33045 0.63714 0.0
C1304 C 0.38216 0.28549 0.65341 0.0
H1305 H 0.37483 0.24335 0.58736 0.0
C1306 C 0.38628 0.27972 0.69397 0.0
C1307 C 0.37856 0.27213 0.61429 0.0
C1308 C 0.37492 0.27739 0.56929 0.0
C1309 C 0.38592 0.26097 0.69679 0.0
C1310 C 0.38148 0.2477 0.658 0.0
C1311 C 0.37811 0.2535 0.61719 0.0
C1312 C 0.37883 0.22788 0.65909 0.0
C1313 C 0.38946 0.2555 0.74153 0.0
C1314 C 0.39329 0.21658 0.66732 0.0
C1315 C 0.39072 0.19755 0.66314 0.0
C1316 C 0.37366 0.18955 0.65038 0.0
C1317 C 0.35915 0.20103 0.64393 0.0
C1318 C 0.36171 0.21991 0.64811 0.0
H1319 H 0.39013 0.26754 0.76951 0.0
H1320 H 0.37872 0.246 0.74825 0.0
H1321 H 0.40252 0.24817 0.74087 0.0
H1322 H 0.40669 0.22236 0.67529 0.0
H1323 H 0.40218 0.18905 0.66808 0.0
H1324 H 0.93256 0.13916 0.95976 0.0
H1325 H 0.9651 0.14421 0.97861 0.0
H1326 H 0.97718 0.12821 0.83866 0.0
H1327 H 0.94518 0.12304 0.81997 0.0
H1328 H 0.99518 0.11644 0.95317 0.0
H1329 H 1.00268 0.17938 0.88258 0.0
H1330 H 0.98122 0.17188 0.9 0.0
H1331 H 0.99001 0.16151 0.84659 0.0
C1332 C 0.94219 0.13682 0.93319 0.0
C1333 C 0.93629 0.13073 0.88841 0.0
C1334 C 0.96075 0.13967 0.94394 0.0
C1335 C 0.97356 0.13676 0.90993 0.0
C1336 C 0.96757 0.13076 0.86539 0.0
H1337 H 0.07746 0.12301 0.82057 0.0
H1338 H 0.0459 0.12788 0.83954 0.0
C1339 C 0.94923 0.12776 0.8548 0.0
C1340 C 0.99331 0.13943 0.91971 0.0
H1341 H 0.02964 0.16176 0.88765 0.0
C1342 C 1.00275 0.12669 0.94014 0.0
C1343 C 1.00318 0.15279 0.90265 0.0
C1344 C 0.99376 0.1673 0.88208 0.0
C1345 C 0.02181 0.12607 0.9407 0.0
C1346 C 0.03161 0.1386 0.92059 0.0
C1347 C 0.02216 0.15213 0.90302 0.0
C1348 C 0.05117 0.13612 0.91087 0.0
C1349 C 0.03131 0.11122 0.95973 0.0
C1350 C 0.0648 0.13928 0.94473 0.0
C1351 C 0.08311 0.13658 0.93382 0.0
C1352 C 0.08796 0.13059 0.88899 0.0
C1353 C 0.07423 0.1276 0.85547 0.0
C1354 C 0.05613 0.1304 0.86623 0.0
H1355 H 0.02169 0.10186 0.9718 0.0
H1356 H 0.03984 0.10303 0.93386 0.0
H1357 H 0.04036 0.11752 0.98823 0.0
H1358 H 0.0613 0.14384 0.97943 0.0
H1359 H 0.09337 0.13893 0.96033 0.0
H1360 H 0.1542 0.33036 0.95683 0.0
H1361 H 0.15201 0.29736 0.93148 0.0
H1362 H 0.12378 0.30518 0.8106 0.0
H1363 H 0.12596 0.33875 0.83623 0.0
H1364 H 0.10751 0.27859 0.85535 0.0
H1365 H 0.18032 0.26506 0.83198 0.0
H1366 H 0.17606 0.27924 0.88536 0.0
H1367 H 0.17074 0.28756 0.83465 0.0
C1368 C 0.14762 0.32515 0.92463 0.0
C1369 C 0.14035 0.33718 0.89838 0.0
C1370 C 0.14648 0.30621 0.91005 0.0
C1371 C 0.13804 0.29872 0.86876 0.0
C1372 C 0.13053 0.31066 0.8424 0.0
H1373 H 0.14812 0.17803 0.80537 0.0
H1374 H 0.14722 0.2097 0.79264 0.0
C1375 C 0.1318 0.3298 0.85696 0.0
C1376 C 0.13658 0.2784 0.85512 0.0
H1377 H 0.16222 0.23973 0.84585 0.0
C1378 C 0.11945 0.27006 0.85227 0.0
C1379 C 0.15212 0.26718 0.85034 0.0
C1380 C 0.17084 0.27521 0.85026 0.0
C1381 C 0.11753 0.25095 0.84809 0.0
C1382 C 0.13315 0.2399 0.84749 0.0
C1383 C 0.15021 0.24813 0.84691 0.0
C1384 C 0.13222 0.22026 0.85211 0.0
C1385 C 0.09875 0.24284 0.84538 0.0
C1386 C 0.12412 0.21558 0.88967 0.0
C1387 C 0.12462 0.19758 0.897 0.0
C1388 C 0.13337 0.18372 0.86715 0.0
C1389 C 0.14118 0.1883 0.82893 0.0
C1390 C 0.1407 0.20642 0.82166 0.0
H1391 H 0.08897 0.25133 0.83006 0.0
H1392 H 0.09836 0.22867 0.82551 0.0
H1393 H 0.09426 0.24248 0.87976 0.0
H1394 H 0.1179 0.226 0.91433 0.0
H1395 H 0.11847 0.19467 0.92685 0.0
H1396 H 0.08881 0.87513 0.07346 0.0
H1397 H 0.05632 0.87179 0.05212 0.0
H1398 H 0.04335 0.90907 0.17384 0.0
H1399 H 0.07529 0.91236 0.19508 0.0
H1400 H 0.02644 0.86066 0.10878 0.0
H1401 H 0.01745 0.92987 0.06945 0.0
H1402 H 0.03917 0.91874 0.06826 0.0
H1403 H 0.03011 0.92988 0.12074 0.0
C1404 C 0.07898 0.8827 0.09528 0.0
C1405 C 0.08459 0.89412 0.13574 0.0
C1406 C 0.06046 0.88073 0.08321 0.0
C1407 C 0.04742 0.89038 0.11117 0.0
C1408 C 0.05314 0.9017 0.15144 0.0
H1409 H 0.94387 0.91046 0.1957 0.0
H1410 H 0.9754 0.90718 0.17501 0.0
C1411 C 0.07144 0.90352 0.16359 0.0
C1412 C 0.02771 0.88867 0.10002 0.0
H1413 H 0.99082 0.91544 0.09129 0.0
C1414 C 0.01861 0.87242 0.10349 0.0
C1415 C 0.01751 0.90403 0.09316 0.0
C1416 C 0.02655 0.92158 0.08724 0.0
C1417 C 0.99958 0.87165 0.10397 0.0
C1418 C 0.98946 0.88749 0.10065 0.0
C1419 C 0.99856 0.90329 0.09391 0.0
C1420 C 0.96997 0.889 0.11153 0.0
C1421 C 0.99042 0.85439 0.1114 0.0
C1422 C 0.95629 0.87988 0.08255 0.0
C1423 C 0.93802 0.88183 0.09432 0.0
C1424 C 0.93326 0.89285 0.13525 0.0
C1425 C 0.94704 0.90186 0.16391 0.0
C1426 C 0.96511 0.90003 0.15212 0.0
H1427 H 1.00024 0.84343 0.11492 0.0
H1428 H 0.9823 0.8574 0.14211 0.0
H1429 H 0.98101 0.8492 0.08271 0.0
H1430 H 0.95973 0.87136 0.05092 0.0
H1431 H 0.9277 0.87461 0.0718 0.0
H1432 H 0.36839 0.67478 0.32642 0.0
H1433 H 0.36749 0.70691 0.31769 0.0
H1434 H 0.40573 0.72127 0.4285 0.0
H1435 H 0.40644 0.68945 0.43794 0.0
H1436 H 0.37724 0.74332 0.43906 0.0
H1437 H 0.40218 0.73955 0.26718 0.0
H1438 H 0.3834 0.72453 0.26992 0.0
H1439 H 0.40458 0.72086 0.29713 0.0
C1440 C 0.37683 0.68473 0.34845 0.0
C1441 C 0.38743 0.67946 0.383 0.0
C1442 C 0.37638 0.70313 0.34328 0.0
C1443 C 0.38668 0.7166 0.37216 0.0
C1444 C 0.39765 0.71121 0.40574 0.0
H1445 H 0.40232 0.83325 0.36248 0.0
H1446 H 0.4064 0.79994 0.35544 0.0
C1447 C 0.39803 0.69293 0.4111 0.0
C1448 C 0.38506 0.7365 0.37016 0.0
H1449 H 0.38933 0.76798 0.30196 0.0
C1450 C 0.37997 0.74866 0.40905 0.0
C1451 C 0.3888 0.74364 0.33126 0.0
C1452 C 0.39522 0.73151 0.2891 0.0
C1453 C 0.37827 0.76756 0.41003 0.0
C1454 C 0.38135 0.77462 0.37071 0.0
C1455 C 0.38679 0.76258 0.33196 0.0
C1456 C 0.37864 0.79444 0.36957 0.0
C1457 C 0.37339 0.77984 0.45353 0.0
C1458 C 0.36158 0.80234 0.37815 0.0
C1459 C 0.35928 0.82125 0.38236 0.0
C1460 C 0.37392 0.83274 0.37763 0.0
C1461 C 0.39079 0.82475 0.36636 0.0
C1462 C 0.39313 0.80573 0.36238 0.0
H1463 H 0.37639 0.7733 0.48286 0.0
H1464 H 0.38081 0.7931 0.45836 0.0
H1465 H 0.35869 0.78272 0.45283 0.0
H1466 H 0.35011 0.79391 0.38286 0.0
H1467 H 0.34606 0.82696 0.39058 0.0
H1468 H 0.57792 0.15813 0.6633 0.0
H1469 H 0.54572 0.15739 0.64474 0.0
H1470 H 0.55467 0.11748 0.52462 0.0
H1471 H 0.58727 0.118 0.54334 0.0
H1472 H 0.52654 0.16476 0.56891 0.0
H1473 H 0.51632 0.09264 0.58995 0.0
H1474 H 0.53663 0.10543 0.60996 0.0
H1475 H 0.53307 0.09672 0.5511 0.0
C1476 C 0.57317 0.14921 0.63273 0.0
C1477 C 0.58526 0.13802 0.60497 0.0
C1478 C 0.55467 0.14885 0.62212 0.0
C1479 C 0.54766 0.1372 0.58364 0.0
C1480 C 0.5597 0.12637 0.55492 0.0
H1481 H 0.4292 0.11918 0.53991 0.0
H1482 H 0.46159 0.11835 0.52298 0.0
C1483 C 0.57836 0.12679 0.56545 0.0
C1484 C 0.52769 0.1364 0.57502 0.0
H1485 H 0.4904 0.10944 0.57838 0.0
C1486 C 0.51867 0.15256 0.57029 0.0
C1487 C 0.51734 0.12048 0.57655 0.0
C1488 C 0.52623 0.10282 0.58242 0.0
C1489 C 0.49968 0.15345 0.56883 0.0
C1490 C 0.48933 0.13786 0.57303 0.0
C1491 C 0.4983 0.1214 0.57522 0.0
C1492 C 0.46948 0.139 0.58064 0.0
C1493 C 0.49088 0.17126 0.56376 0.0
C1494 C 0.46311 0.15082 0.61855 0.0
C1495 C 0.44477 0.15127 0.62829 0.0
C1496 C 0.43219 0.13987 0.60044 0.0
C1497 C 0.43847 0.12825 0.56185 0.0
C1498 C 0.45699 0.1277 0.55226 0.0
H1499 H 0.49977 0.17949 0.54618 0.0
H1500 H 0.47776 0.16883 0.54492 0.0
H1501 H 0.48836 0.17946 0.59751 0.0
H1502 H 0.47244 0.15941 0.64149 0.0
H1503 H 0.4405 0.1604 0.65832 0.0
H1504 H 0.90409 0.19508 0.93035 0.0
H1505 H 0.90262 0.22652 0.91834 0.0
H1506 H 0.87365 0.20832 0.79269 0.0
H1507 H 0.87472 0.17664 0.80487 0.0
H1508 H 0.91422 0.24429 0.85193 0.0
H1509 H 0.83923 0.24562 0.86094 0.0
H1510 H 0.8525 0.22731 0.8762 0.0
H1511 H 0.84841 0.22828 0.81814 0.0
C1512 C 0.89749 0.19764 0.89992 0.0
C1513 C 0.88933 0.18325 0.86884 0.0
C1514 C 0.89673 0.2157 0.89303 0.0
C1515 C 0.88778 0.21989 0.85498 0.0
C1516 C 0.88033 0.20549 0.82276 0.0
H1517 H 0.88779 0.33801 0.83099 0.0
H1518 H 0.89157 0.30453 0.8083 0.0
C1519 C 0.88106 0.18735 0.82966 0.0
C1520 C 0.88552 0.23947 0.85098 0.0
H1521 H 0.85379 0.27308 0.85552 0.0
C1522 C 0.901 0.25055 0.85196 0.0
C1523 C 0.86827 0.24768 0.85134 0.0
C1524 C 0.85112 0.2367 0.85194 0.0
C1525 C 0.89971 0.26966 0.85509 0.0
C1526 C 0.88247 0.2779 0.85682 0.0
C1527 C 0.867 0.26672 0.85384 0.0
C1528 C 0.88016 0.29815 0.8685 0.0
C1529 C 0.91679 0.28103 0.8592 0.0
C1530 C 0.87231 0.30564 0.90932 0.0
C1531 C 0.87014 0.32451 0.92208 0.0
C1532 C 0.87567 0.33648 0.89428 0.0
C1533 C 0.88341 0.32909 0.85304 0.0
C1534 C 0.88564 0.31001 0.84022 0.0
H1535 H 0.92905 0.2728 0.86303 0.0
H1536 H 0.91812 0.28704 0.82868 0.0
H1537 H 0.91621 0.2925 0.88847 0.0
H1538 H 0.86801 0.29683 0.93175 0.0
H1539 H 0.86413 0.32975 0.95407 0.0
H1540 H 0.67485 0.8321 0.3636 0.0
H1541 H 0.67133 0.79886 0.35232 0.0
H1542 H 0.6137 0.80429 0.33484 0.0
H1543 H 0.61729 0.83771 0.34485 0.0
H1544 H 0.65367 0.78189 0.4074 0.0
H1545 H 0.62359 0.76087 0.23618 0.0
H1546 H 0.63386 0.78313 0.25556 0.0
H1547 H 0.61125 0.77862 0.27103 0.0
C1548 C 0.66147 0.82618 0.35636 0.0
C1549 C 0.64634 0.83748 0.35523 0.0
C1550 C 0.65946 0.80717 0.34998 0.0
C1551 C 0.64226 0.79897 0.34252 0.0
C1552 C 0.62715 0.8102 0.33963 0.0
H1553 H 0.61664 0.69597 0.41992 0.0
H1554 H 0.61769 0.72756 0.40865 0.0
C1555 C 0.62919 0.82931 0.34556 0.0
C1556 C 0.64019 0.77901 0.34267 0.0
H1557 H 0.62356 0.73837 0.28293 0.0
C1558 C 0.64716 0.7724 0.37999 0.0
C1559 C 0.63184 0.76652 0.30683 0.0
C1560 C 0.62485 0.77257 0.26492 0.0
C1561 C 0.64587 0.75382 0.38276 0.0
C1562 C 0.63695 0.74144 0.34773 0.0
C1563 C 0.63022 0.7479 0.30997 0.0
C1564 C 0.63445 0.72181 0.35051 0.0
C1565 C 0.6543 0.74757 0.42307 0.0
C1566 C 0.64282 0.70787 0.32023 0.0
C1567 C 0.64214 0.68963 0.32639 0.0
C1568 C 0.6331 0.68507 0.36301 0.0
C1569 C 0.62396 0.69898 0.39175 0.0
C1570 C 0.62455 0.71709 0.38542 0.0
H1571 H 0.66462 0.7575 0.44045 0.0
H1572 H 0.64364 0.74634 0.44733 0.0
H1573 H 0.66076 0.73398 0.41329 0.0
H1574 H 0.65046 0.71119 0.29291 0.0
H1575 H 0.6493 0.67927 0.30359 0.0
H1576 H 0.89136 0.68534 0.2079 0.0
H1577 H 0.89461 0.719 0.23004 0.0
H1578 H 0.86613 0.72548 0.10841 0.0
H1579 H 0.86294 0.69242 0.08641 0.0
H1580 H 0.91145 0.7439 0.17922 0.0
H1581 H 0.83938 0.76015 0.2079 0.0
H1582 H 0.84849 0.73761 0.20783 0.0
H1583 H 0.84272 0.74468 0.15577 0.0
C1584 C 0.88569 0.69403 0.18627 0.0
C1585 C 0.87682 0.68627 0.14555 0.0
C1586 C 0.88757 0.71321 0.19883 0.0
C1587 C 0.88034 0.72478 0.17118 0.0
C1588 C 0.8715 0.71691 0.13072 0.0
H1589 H 0.90125 0.82631 0.09905 0.0
H1590 H 0.90133 0.79537 0.11449 0.0
C1591 C 0.86978 0.69794 0.11809 0.0
C1592 C 0.88246 0.74507 0.18251 0.0
H1593 H 0.85786 0.78431 0.18946 0.0
C1594 C 0.89978 0.7528 0.1825 0.0
C1595 C 0.86728 0.75676 0.1874 0.0
C1596 C 0.84843 0.7494 0.1902 0.0
C1597 C 0.90217 0.77171 0.18402 0.0
C1598 C 0.88684 0.78315 0.18484 0.0
C1599 C 0.86964 0.7756 0.18823 0.0
C1600 C 0.88811 0.80248 0.17806 0.0
C1601 C 0.92112 0.77917 0.18374 0.0
C1602 C 0.88038 0.81693 0.20825 0.0
C1603 C 0.88017 0.83479 0.1993 0.0
C1604 C 0.88752 0.83853 0.15967 0.0
C1605 C 0.8955 0.82405 0.12997 0.0
C1606 C 0.89572 0.80629 0.13896 0.0
H1607 H 0.93097 0.77072 0.199 0.0
H1608 H 0.92501 0.77877 0.14855 0.0
H1609 H 0.92214 0.79356 0.20218 0.0
H1610 H 0.87426 0.81433 0.23845 0.0
H1611 H 0.87384 0.84553 0.22286 0.0
H1612 H 0.62001 0.18624 0.69013 0.0
H1613 H 0.61559 0.21962 0.70294 0.0
H1614 H 0.66507 0.2257 0.63516 0.0
H1615 H 0.66982 0.19278 0.62392 0.0
H1616 H 0.66245 0.25228 0.70618 0.0
H1617 H 0.59757 0.2466 0.60792 0.0
H1618 H 0.59771 0.23573 0.65588 0.0
H1619 H 0.61185 0.22711 0.60945 0.0
C1620 C 0.62999 0.19478 0.67844 0.0
C1621 C 0.64516 0.18687 0.6556 0.0
C1622 C 0.62739 0.21383 0.68541 0.0
C1623 C 0.6398 0.22522 0.66914 0.0
C1624 C 0.65525 0.2173 0.64791 0.0
H1625 H 0.6297 0.32455 0.57282 0.0
H1626 H 0.6297 0.29374 0.58888 0.0
C1627 C 0.65792 0.1984 0.64136 0.0
C1628 C 0.63674 0.24528 0.67245 0.0
H1629 H 0.60868 0.27624 0.63609 0.0
C1630 C 0.6506 0.25755 0.69125 0.0
C1631 C 0.62134 0.25219 0.65265 0.0
C1632 C 0.60632 0.23976 0.62997 0.0
C1633 C 0.64989 0.27629 0.68915 0.0
C1634 C 0.63459 0.28316 0.66887 0.0
C1635 C 0.62038 0.27103 0.65179 0.0
C1636 C 0.63384 0.30232 0.66061 0.0
C1637 C 0.66602 0.28828 0.70636 0.0
C1638 C 0.6359 0.31763 0.69563 0.0
C1639 C 0.63614 0.33545 0.68643 0.0
C1640 C 0.63401 0.33832 0.64208 0.0
C1641 C 0.63136 0.32297 0.60741 0.0
C1642 C 0.63133 0.30525 0.61655 0.0
H1643 H 0.6782 0.28007 0.71109 0.0
H1644 H 0.66928 0.29755 0.68297 0.0
H1645 H 0.66291 0.29682 0.73933 0.0
H1646 H 0.6374 0.31582 0.73006 0.0
H1647 H 0.63806 0.34694 0.71401 0.0
H1648 H 0.93688 0.36155 0.87953 0.0
H1649 H 0.96938 0.36304 0.89439 0.0
H1650 H 0.96234 0.4078 1.00551 0.0
H1651 H 0.92948 0.40646 0.99081 0.0
H1652 H 0.98937 0.39716 0.89281 0.0
H1653 H 0.99923 0.3713 0.05233 0.0
H1654 H 0.97956 0.36515 0.01596 0.0
H1655 H 0.98173 0.38783 0.04866 0.0
C1656 C 0.94211 0.37158 0.9076 0.0
C1657 C 0.93052 0.38399 0.93377 0.0
C1658 C 0.96075 0.37238 0.91607 0.0
C1659 C 0.96829 0.3855 0.95104 0.0
C1660 C 0.95677 0.39743 0.97862 0.0
H1661 H 0.0858 0.40625 0.99448 0.0
H1662 H 0.05309 0.40759 1.00676 0.0
C1663 C 0.938 0.39665 0.97015 0.0
C1664 C 0.98826 0.38756 0.9552 0.0
H1665 H 0.02545 0.37861 0.01662 0.0
C1666 C 0.99724 0.39329 0.92014 0.0
C1667 C 0.99849 0.38265 0.99105 0.0
C1668 C 0.98938 0.3763 0.02923 0.0
C1669 C 0.01617 0.39372 0.9192 0.0
C1670 C 0.02645 0.38793 0.95384 0.0
C1671 C 0.01752 0.38295 0.99001 0.0
C1672 C 0.04634 0.38578 0.95071 0.0
C1673 C 0.02504 0.40008 0.88064 0.0
C1674 C 0.0534 0.37268 0.91619 0.0
C1675 C 0.07196 0.37189 0.90907 0.0
C1676 C 0.08395 0.38415 0.93648 0.0
C1677 C 0.07696 0.39661 0.97275 0.0
C1678 C 0.05828 0.39741 0.9798 0.0
H1679 H 0.01573 0.40846 0.86362 0.0
H1680 H 0.03741 0.40827 0.89227 0.0
H1681 H 0.02901 0.38795 0.85557 0.0
H1682 H 0.04445 0.3634 0.89375 0.0
H1683 H 0.07683 0.36197 0.88114 0.0
H1684 H 0.43192 0.63521 0.46983 0.0
H1685 H 0.46438 0.64131 0.48798 0.0
H1686 H 0.47566 0.62938 0.34699 0.0
H1687 H 0.44376 0.62314 0.32895 0.0
H1688 H 0.49511 0.61476 0.45615 0.0
H1689 H 0.49969 0.68092 0.39853 0.0
H1690 H 0.47875 0.67217 0.41583 0.0
H1691 H 0.48701 0.66363 0.36071 0.0
C1692 C 0.44136 0.63402 0.4429 0.0
C1693 C 0.4353 0.62871 0.39801 0.0
C1694 C 0.45987 0.63747 0.45325 0.0
C1695 C 0.4724 0.63597 0.41875 0.0
C1696 C 0.46623 0.63083 0.3741 0.0
H1697 H 0.57469 0.6278 0.32 0.0
H1698 H 0.54342 0.63206 0.34246 0.0
C1699 C 0.44796 0.62721 0.36388 0.0
C1700 C 0.49211 0.63907 0.42799 0.0
H1701 H 0.52721 0.66366 0.39805 0.0
C1702 C 0.50218 0.62576 0.44485 0.0
C1703 C 0.50129 0.65341 0.41315 0.0
C1704 C 0.49114 0.66846 0.3964 0.0
C1705 C 0.52121 0.62559 0.44369 0.0
C1706 C 0.53032 0.63917 0.42557 0.0
C1707 C 0.52025 0.65322 0.41186 0.0
C1708 C 0.5497 0.6374 0.4137 0.0
C1709 C 0.53138 0.61013 0.45857 0.0
C1710 C 0.56378 0.6392 0.44635 0.0
C1711 C 0.58187 0.63683 0.43344 0.0
C1712 C 0.58607 0.63257 0.38778 0.0
C1713 C 0.57193 0.63105 0.35547 0.0
C1714 C 0.55402 0.63352 0.36824 0.0
H1715 H 0.52219 0.59987 0.46856 0.0
H1716 H 0.53994 0.60311 0.43114 0.0
H1717 H 0.54045 0.61573 0.48765 0.0
H1718 H 0.56077 0.64232 0.48166 0.0
H1719 H 0.59246 0.63791 0.45901 0.0
H1720 H 0.44578 0.37258 0.63744 0.0
H1721 H 0.47752 0.37167 0.61952 0.0
H1722 H 0.46534 0.39431 0.50157 0.0
H1723 H 0.43309 0.39568 0.52012 0.0
H1724 H 0.49706 0.3552 0.54775 0.0
H1725 H 0.50161 0.43128 0.57104 0.0
H1726 H 0.48196 0.41988 0.58683 0.0
H1727 H 0.48593 0.41976 0.52873 0.0
C1728 C 0.44972 0.3773 0.60744 0.0
C1729 C 0.43688 0.38449 0.58058 0.0
C1730 C 0.46795 0.37665 0.59708 0.0
C1731 C 0.47393 0.38316 0.5596 0.0
C1732 C 0.46108 0.38949 0.53115 0.0
H1733 H 0.59401 0.37515 0.54733 0.0
H1734 H 0.56254 0.37204 0.51832 0.0
C1735 C 0.44266 0.39014 0.54157 0.0
C1736 C 0.49376 0.38429 0.55329 0.0
H1737 H 0.5287 0.41512 0.56722 0.0
C1738 C 0.50403 0.36825 0.55094 0.0
C1739 C 0.50283 0.40135 0.55772 0.0
C1740 C 0.49261 0.41911 0.5615 0.0
C1741 C 0.52298 0.36893 0.55606 0.0
C1742 C 0.53196 0.3861 0.56287 0.0
C1743 C 0.52179 0.40198 0.56199 0.0
C1744 C 0.55128 0.38828 0.578 0.0
C1745 C 0.53309 0.35144 0.5575 0.0
C1746 C 0.55548 0.39867 0.62063 0.0
C1747 C 0.57333 0.40061 0.63677 0.0
C1748 C 0.58749 0.39228 0.61067 0.0
C1749 C 0.5834 0.38192 0.56784 0.0
C1750 C 0.56541 0.37999 0.55149 0.0
H1751 H 0.52384 0.33973 0.55841 0.0
H1752 H 0.54137 0.34791 0.5272 0.0
H1753 H 0.54237 0.35322 0.58738 0.0
H1754 H 0.54486 0.40512 0.64183 0.0
H1755 H 0.57601 0.40867 0.66995 0.0
H1756 H 0.0872 0.61678 0.06065 0.0
H1757 H 0.05425 0.6152 0.04771 0.0
H1758 H 0.04775 0.6596 0.15997 0.0
H1759 H 0.08034 0.66127 0.17316 0.0
H1760 H 0.02727 0.62729 0.16329 0.0
H1761 H 0.01741 0.65014 1.00006 0.0
H1762 H 0.03407 0.63277 1.00318 0.0
H1763 H 0.03768 0.65553 0.0346 0.0
C1764 C 0.07877 0.62644 0.08201 0.0
C1765 C 0.08648 0.63909 0.1181 0.0
C1766 C 0.05993 0.62554 0.07452 0.0
C1767 C 0.0485 0.63733 0.10281 0.0
C1768 C 0.05626 0.65036 0.13772 0.0
H1769 H 0.93905 0.66099 0.16894 0.0
H1770 H 0.97153 0.65953 0.15812 0.0
C1771 C 0.07497 0.65128 0.1452 0.0
C1772 C 0.02845 0.63536 0.09902 0.0
H1773 H 0.99122 0.64246 0.03535 0.0
C1774 C 0.01942 0.63048 0.13512 0.0
C1775 C 0.01819 0.63934 0.0621 0.0
C1776 C 0.02722 0.64485 0.02275 0.0
C1777 C 1.00047 0.62992 0.13589 0.0
C1778 C 0.99016 0.6347 0.09997 0.0
C1779 C 0.99913 0.63888 0.06294 0.0
C1780 C 0.97016 0.63662 0.10237 0.0
C1781 C 0.99162 0.62439 0.17554 0.0
C1782 C 0.95843 0.6247 0.07332 0.0
C1783 C 0.93965 0.62553 0.07932 0.0
C1784 C 0.93234 0.63832 0.11446 0.0
C1785 C 0.94414 0.65081 0.14187 0.0
C1786 C 0.96278 0.64999 0.1358 0.0
H1787 H 1.00095 0.61644 0.19367 0.0
H1788 H 0.98765 0.63689 0.19938 0.0
H1789 H 0.97926 0.61604 0.16483 0.0
H1790 H 0.96384 0.61433 0.04712 0.0
H1791 H 0.93098 0.61571 0.05761 0.0
H1792 H 0.15808 0.58715 0.1051 0.0
H1793 H 0.1567 0.55642 0.05838 0.0
H1794 H 0.10639 0.546 0.11763 0.0
H1795 H 0.10773 0.57678 0.16456 0.0
H1796 H 0.13087 0.51704 0.11263 0.0
H1797 H 0.12345 0.53901 0.94846 0.0
H1798 H 0.14255 0.54899 0.98211 0.0
H1799 H 0.12008 0.55442 1.00111 0.0
C1800 C 0.14667 0.57835 0.10798 0.0
C1801 C 0.13293 0.58443 0.13824 0.0
C1802 C 0.14586 0.5608 0.08112 0.0
C1803 C 0.13129 0.54895 0.08391 0.0
C1804 C 0.1177 0.55491 0.11466 0.0
H1805 H 0.10415 0.44781 0.89426 0.0
H1806 H 0.10407 0.47854 0.94146 0.0
C1807 C 0.11848 0.5725 0.14145 0.0
C1808 C 0.13042 0.53024 0.05539 0.0
H1809 H 0.12893 0.50735 0.94642 0.0
C1810 C 0.13039 0.51493 0.07629 0.0
C1811 C 0.12958 0.52745 1.00793 0.0
C1812 C 0.12875 0.54331 0.98347 0.0
C1813 C 0.12991 0.49694 0.05111 0.0
C1814 C 0.12964 0.49414 1.00365 0.0
C1815 C 0.12929 0.50946 0.98275 0.0
C1816 C 0.1297 0.47544 0.97512 0.0
C1817 C 0.12947 0.48108 0.07558 0.0
C1818 C 0.14421 0.46351 0.97782 0.0
C1819 C 0.14429 0.44599 0.95081 0.0
C1820 C 0.12986 0.44001 0.92049 0.0
C1821 C 0.11542 0.45201 0.91742 0.0
C1822 C 0.11538 0.46957 0.94436 0.0
H1823 H 0.125 0.48542 0.1106 0.0
H1824 H 0.1203 0.47002 0.05797 0.0
H1825 H 0.14325 0.47533 0.07688 0.0
H1826 H 0.1556 0.46781 1.00055 0.0
H1827 H 0.1557 0.43713 0.95357 0.0
H1828 H 0.68581 0.89865 0.2514 0.0
H1829 H 0.71556 0.89758 0.21836 0.0
H1830 H 0.73991 0.88703 0.34151 0.0
H1831 H 0.7101 0.88925 0.37568 0.0
H1832 H 0.76146 0.90791 0.30909 0.0
H1833 H 0.74151 0.85268 0.16778 0.0
H1834 H 0.72757 0.87231 0.16761 0.0
H1835 H 0.72684 0.86028 0.21386 0.0
C1836 C 0.69751 0.89621 0.27157 0.0
C1837 C 0.69557 0.89389 0.31607 0.0
C1838 C 0.71456 0.89539 0.25243 0.0
C1839 C 0.73007 0.89153 0.27667 0.0
C1840 C 0.72822 0.88982 0.32174 0.0
H1841 H 0.82763 0.85487 0.12855 0.0
H1842 H 0.80007 0.85662 0.17198 0.0
C1843 C 0.71116 0.89111 0.34134 0.0
C1844 C 0.74809 0.88932 0.2549 0.0
H1845 H 0.76899 0.86857 0.15964 0.0
C1846 C 0.76311 0.89916 0.27658 0.0
C1847 C 0.75059 0.87755 0.21293 0.0
C1848 C 0.73581 0.86496 0.18952 0.0
C1849 C 0.78025 0.89798 0.25708 0.0
C1850 C 0.78238 0.88726 0.2136 0.0
C1851 C 0.76747 0.87706 0.19254 0.0
C1852 C 0.79983 0.88628 0.18925 0.0
C1853 C 0.79595 0.90788 0.28402 0.0
C1854 C 0.80907 0.90229 0.18409 0.0
C1855 C 0.82508 0.90125 0.16008 0.0
C1856 C 0.83194 0.8842 0.13947 0.0
C1857 C 0.82263 0.8682 0.14396 0.0
C1858 C 0.80684 0.86922 0.16881 0.0
H1859 H 0.79373 0.90964 0.32062 0.0
H1860 H 0.80883 0.90044 0.27652 0.0
H1861 H 0.7973 0.92176 0.27595 0.0
H1862 H 0.80377 0.91566 0.19792 0.0
H1863 H 0.8319 0.91382 0.15682 0.0
H1864 H 0.41616 0.45103 0.61827 0.0
H1865 H 0.41364 0.47734 0.58056 0.0
H1866 H 0.35884 0.46151 0.53883 0.0
H1867 H 0.36116 0.43546 0.5775 0.0
H1868 H 0.4065 0.48021 0.4925 0.0
H1869 H 0.35268 0.51443 0.60115 0.0
H1870 H 0.36531 0.49535 0.61446 0.0
H1871 H 0.34715 0.49151 0.57318 0.0
C1872 C 0.40357 0.45316 0.60109 0.0
C1873 C 0.38884 0.44119 0.60111 0.0
C1874 C 0.40215 0.46819 0.57937 0.0
C1875 C 0.38595 0.47167 0.5573 0.0
C1876 C 0.37137 0.45942 0.55632 0.0
H1877 H 0.37761 0.55525 0.38399 0.0
H1878 H 0.37797 0.52587 0.40997 0.0
C1879 C 0.37276 0.44441 0.57816 0.0
C1880 C 0.38432 0.48826 0.53615 0.0
H1881 H 0.36097 0.52824 0.54073 0.0
C1882 C 0.39648 0.49068 0.50292 0.0
C1883 C 0.37139 0.50208 0.54994 0.0
C1884 C 0.35848 0.50087 0.58691 0.0
C1885 C 0.39613 0.50646 0.4834 0.0
C1886 C 0.38309 0.52019 0.49693 0.0
C1887 C 0.37086 0.5177 0.52993 0.0
C1888 C 0.38272 0.53788 0.48005 0.0
C1889 C 0.41015 0.5086 0.44961 0.0
C1890 C 0.38487 0.55449 0.51062 0.0
C1891 C 0.38455 0.57124 0.49597 0.0
C1892 C 0.38199 0.57196 0.45015 0.0
C1893 C 0.37969 0.55529 0.41943 0.0
C1894 C 0.38001 0.53844 0.43425 0.0
H1895 H 0.42157 0.49896 0.45031 0.0
H1896 H 0.40382 0.50572 0.41546 0.0
H1897 H 0.41561 0.52281 0.45586 0.0
H1898 H 0.38696 0.55453 0.54608 0.0
H1899 H 0.38638 0.58366 0.5209 0.0
H1900 H 0.83373 0.10779 0.86553 0.0
H1901 H 0.80496 0.1067 0.82341 0.0
H1902 H 0.80329 0.16582 0.85066 0.0
H1903 H 0.83146 0.1668 0.89522 0.0
H1904 H 0.77216 0.15468 0.86149 0.0
H1905 H 0.79305 0.11322 0.70093 0.0
H1906 H 0.79687 0.10086 0.74545 0.0
H1907 H 0.80914 0.12187 0.74555 0.0
C1908 C 0.82722 0.12053 0.86234 0.0
C1909 C 0.8348 0.13738 0.88372 0.0
C1910 C 0.81084 0.11993 0.83773 0.0
C1911 C 0.80196 0.13618 0.83266 0.0
C1912 C 0.80974 0.15303 0.85376 0.0
H1913 H 0.70928 0.13527 0.64336 0.0
H1914 H 0.73967 0.13694 0.67849 0.0
C1915 C 0.82588 0.15362 0.87926 0.0
C1916 C 0.7841 0.13568 0.8078 0.0
H1917 H 0.76102 0.11572 0.71164 0.0
C1918 C 0.76986 0.14627 0.82849 0.0
C1919 C 0.78095 0.12509 0.76419 0.0
C1920 C 0.79589 0.11481 0.73758 0.0
C1921 C 0.75267 0.1463 0.8076 0.0
C1922 C 0.74912 0.13464 0.76552 0.0
C1923 C 0.76347 0.12439 0.74422 0.0
C1924 C 0.73068 0.13291 0.74328 0.0
C1925 C 0.73871 0.15932 0.83062 0.0
C1926 C 0.71542 0.12957 0.76718 0.0
C1927 C 0.69806 0.12911 0.74751 0.0
C1928 C 0.69551 0.13126 0.70278 0.0
C1929 C 0.7108 0.13357 0.67789 0.0
C1930 C 0.72819 0.13453 0.69803 0.0
H1931 H 0.74519 0.17145 0.85239 0.0
H1932 H 0.7295 0.16423 0.80604 0.0
H1933 H 0.73059 0.15224 0.85246 0.0
H1934 H 0.71686 0.12744 0.80137 0.0
H1935 H 0.68659 0.12699 0.76738 0.0
H1936 H 0.91026 0.57559 0.15883 0.0
H1937 H 0.91065 0.54482 0.11185 0.0
H1938 H 0.8602 0.55584 0.04809 0.0
H1939 H 0.85979 0.58656 0.09481 0.0
H1940 H 0.88555 0.51613 0.1045 0.0
H1941 H 0.89239 0.53815 0.94112 0.0
H1942 H 0.89639 0.5535 0.99415 0.0
H1943 H 0.87369 0.54829 0.97306 0.0
C1944 C 0.89928 0.57144 0.13471 0.0
C1945 C 0.88507 0.58353 0.13026 0.0
C1946 C 0.89951 0.55386 0.1079 0.0
C1947 C 0.8856 0.54807 0.07589 0.0
C1948 C 0.87128 0.56008 0.07183 0.0
H1949 H 0.85855 0.43626 0.94315 0.0
H1950 H 0.85933 0.46695 0.99019 0.0
C1951 C 0.87102 0.57763 0.0987 0.0
C1952 C 0.88589 0.52937 0.04736 0.0
H1953 H 0.88621 0.50655 0.93842 0.0
C1954 C 0.88575 0.51404 0.06819 0.0
C1955 C 0.88636 0.52661 0.99997 0.0
C1956 C 0.88739 0.54248 0.97566 0.0
C1957 C 0.88571 0.49606 0.04297 0.0
C1958 C 0.88561 0.4933 0.99552 0.0
C1959 C 0.88612 0.50863 0.97473 0.0
C1960 C 0.8851 0.47461 0.96688 0.0
C1961 C 0.88605 0.48018 0.06742 0.0
C1962 C 0.89909 0.46878 0.93723 0.0
C1963 C 0.89865 0.45123 0.91024 0.0
C1964 C 0.88414 0.4392 0.91214 0.0
C1965 C 0.87001 0.44515 0.94131 0.0
C1966 C 0.87048 0.46266 0.96836 0.0
H1967 H 0.89087 0.48447 0.10283 0.0
H1968 H 0.87216 0.47454 0.06758 0.0
H1969 H 0.89487 0.46906 0.05053 0.0
H1970 H 0.91046 0.47776 0.93527 0.0
H1971 H 0.90969 0.44705 0.88799 0.0
H1972 H 0.18988 0.10864 0.86391 0.0
H1973 H 0.21782 0.10732 0.82189 0.0
H1974 H 0.22024 0.1664 0.84716 0.0
H1975 H 0.19294 0.16767 0.89135 0.0
H1976 H 0.22799 0.11723 0.74993 0.0
H1977 H 0.26965 0.15735 0.88811 0.0
H1978 H 0.24706 0.1499 0.89642 0.0
H1979 H 0.25075 0.17033 0.87387 0.0
C1980 C 0.19648 0.12134 0.86073 0.0
C1981 C 0.18939 0.13826 0.88155 0.0
C1982 C 0.21245 0.12059 0.83653 0.0
C1983 C 0.22159 0.13675 0.8321 0.0
C1984 C 0.21399 0.15368 0.85134 0.0
H1985 H 0.30824 0.13649 0.63628 0.0
H1986 H 0.27879 0.1373 0.6719 0.0
C1987 C 0.19826 0.15442 0.87637 0.0
C1988 C 0.23901 0.13583 0.80753 0.0
H1989 H 0.28254 0.15191 0.81613 0.0
C1990 C 0.23995 0.12474 0.7646 0.0
C1991 C 0.25485 0.14534 0.82659 0.0
C1992 C 0.25561 0.15622 0.87394 0.0
C1993 C 0.25608 0.12293 0.7404 0.0
C1994 C 0.27168 0.13308 0.75869 0.0
C1995 C 0.27068 0.14419 0.80158 0.0
C1996 C 0.28942 0.13194 0.73536 0.0
C1997 C 0.25628 0.10962 0.69623 0.0
C1998 C 0.30546 0.12915 0.759 0.0
C1999 C 0.32229 0.1293 0.73914 0.0
C2000 C 0.32362 0.13188 0.69466 0.0
C2001 C 0.30763 0.1342 0.67037 0.0
C2002 C 0.29074 0.13454 0.69074 0.0
H2003 H 0.24564 0.09891 0.69423 0.0
H2004 H 0.25354 0.11713 0.66853 0.0
H2005 H 0.26956 0.10276 0.69095 0.0
H2006 H 0.30501 0.12704 0.79328 0.0
H2007 H 0.33433 0.12741 0.75879 0.0
H2008 H 0.64355 0.56195 0.37061 0.0
H2009 H 0.64407 0.53294 0.39822 0.0
H2010 H 0.63897 0.56262 0.53366 0.0
H2011 H 0.63815 0.59138 0.50677 0.0
H2012 H 0.66778 0.52084 0.45906 0.0
H2013 H 0.59845 0.52522 0.52442 0.0
H2014 H 0.60625 0.5397 0.4873 0.0
H2015 H 0.61201 0.54511 0.54628 0.0
C2016 C 0.64246 0.56229 0.40624 0.0
C2017 C 0.64066 0.57908 0.43627 0.0
C2018 C 0.64277 0.54569 0.42199 0.0
C2019 C 0.64119 0.54555 0.46798 0.0
C2020 C 0.63973 0.56229 0.49796 0.0
H2021 H 0.64244 0.46153 0.63497 0.0
H2022 H 0.64298 0.49057 0.60756 0.0
C2023 C 0.63937 0.5788 0.48236 0.0
C2024 C 0.64147 0.52803 0.48512 0.0
H2025 H 0.61752 0.50252 0.54639 0.0
C2026 C 0.65673 0.51677 0.47786 0.0
C2027 C 0.6271 0.52274 0.50993 0.0
C2028 C 0.60995 0.53372 0.51712 0.0
C2029 C 0.65815 0.50059 0.49538 0.0
C2030 C 0.64382 0.49537 0.52037 0.0
C2031 C 0.62856 0.50661 0.52761 0.0
C2032 C 0.64403 0.47786 0.53743 0.0
C2033 C 0.67513 0.48937 0.48768 0.0
C2034 C 0.64427 0.46109 0.50718 0.0
C2035 C 0.64391 0.44455 0.52263 0.0
C2036 C 0.64324 0.44431 0.56887 0.0
C2037 C 0.64303 0.46116 0.59923 0.0
C2038 C 0.64331 0.47777 0.58361 0.0
H2039 H 0.68657 0.49755 0.47871 0.0
H2040 H 0.67912 0.48382 0.51794 0.0
H2041 H 0.67263 0.47765 0.45956 0.0
H2042 H 0.64448 0.46078 0.4714 0.0
H2043 H 0.64405 0.43193 0.49805 0.0
H2044 H 0.30908 0.88476 0.39044 0.0
H2045 H 0.2788 0.8833 0.35444 0.0
H2046 H 0.3022 0.89396 0.23331 0.0
H2047 H 0.3323 0.89426 0.26806 0.0
H2048 H 0.25745 0.90479 0.32084 0.0
H2049 H 0.27462 0.84956 0.18018 0.0
H2050 H 0.28988 0.85672 0.22747 0.0
H2051 H 0.28922 0.86887 0.18134 0.0
C2052 C 0.30769 0.88679 0.35613 0.0
C2053 C 0.32308 0.88935 0.33187 0.0
C2054 C 0.29038 0.88594 0.3355 0.0
C2055 C 0.28812 0.88789 0.29042 0.0
C2056 C 0.30349 0.89157 0.2673 0.0
H2057 H 0.18676 0.91363 0.16251 0.0
H2058 H 0.21504 0.91438 0.20649 0.0
C2059 C 0.32074 0.89194 0.28743 0.0
C2060 C 0.26986 0.8861 0.26735 0.0
H2061 H 0.24776 0.86637 0.16974 0.0
C2062 C 0.25531 0.89623 0.28798 0.0
C2063 C 0.26671 0.87456 0.22492 0.0
C2064 C 0.2809 0.86167 0.20251 0.0
C2065 C 0.23805 0.89561 0.2669 0.0
C2066 C 0.23533 0.88518 0.22294 0.0
C2067 C 0.24974 0.87465 0.20299 0.0
C2068 C 0.21778 0.88487 0.19687 0.0
C2069 C 0.22285 0.9058 0.29266 0.0
C2070 C 0.21005 0.86811 0.17493 0.0
C2071 C 0.1942 0.86772 0.14842 0.0
C2072 C 0.18552 0.88406 0.14375 0.0
C2073 C 0.19309 0.90081 0.16584 0.0
C2074 C 0.20918 0.90122 0.19151 0.0
H2075 H 0.22526 0.90723 0.32943 0.0
H2076 H 0.22203 0.91981 0.28511 0.0
H2077 H 0.20966 0.89876 0.2836 0.0
H2078 H 0.21632 0.85526 0.1782 0.0
H2079 H 0.18863 0.8546 0.13193 0.0
H2080 H 0.66121 0.93819 0.42599 0.0
H2081 H 0.66109 0.96837 0.47558 0.0
H2082 H 0.60891 0.97945 0.42046 0.0
H2083 H 0.60897 0.94929 0.37081 0.0
H2084 H 0.63386 1.00872 0.42727 0.0
H2085 H 0.63028 0.98344 0.58752 0.0
H2086 H 0.64837 0.97406 0.55218 0.0
H2087 H 0.62535 0.96897 0.5337 0.0
C2088 C 0.6497 0.94705 0.42454 0.0
C2089 C 0.63505 0.94135 0.39468 0.0
C2090 C 0.6496 0.96426 0.45304 0.0
C2091 C 0.63487 0.9761 0.45223 0.0
C2092 C 0.62038 0.97053 0.42186 0.0
H2093 H 0.60918 0.07437 0.6472 0.0
H2094 H 0.60916 0.04399 0.59826 0.0
C2095 C 0.62043 0.9533 0.3935 0.0
C2096 C 0.63465 0.99438 0.48253 0.0
H2097 H 0.63493 0.0154 0.59296 0.0
C2098 C 0.63408 1.01019 0.46349 0.0
C2099 C 0.63472 0.99629 0.52981 0.0
C2100 C 0.63455 0.97982 0.55217 0.0
C2101 C 0.63387 0.02782 0.49041 0.0
C2102 C 0.6344 0.02974 0.5377 0.0
C2103 C 0.63466 0.01393 0.55674 0.0
C2104 C 0.6346 0.04805 0.56792 0.0
C2105 C 0.63281 0.04426 0.46797 0.0
C2106 C 0.64903 0.06033 0.56771 0.0
C2107 C 0.64909 0.07762 0.59573 0.0
C2108 C 0.63472 0.083 0.62456 0.0
C2109 C 0.62042 0.07061 0.62528 0.0
C2110 C 0.6204 0.05327 0.59735 0.0
H2111 H 0.62806 0.04044 0.4324 0.0
H2112 H 0.62358 0.05475 0.48594 0.0
H2113 H 0.64644 0.05055 0.4686 0.0
H2114 H 0.66029 0.05651 0.54591 0.0
H2115 H 0.66036 0.08683 0.59464 0.0
H2116 H 0.20638 0.39904 0.9107 0.0
H2117 H 0.23624 0.40101 0.8783 0.0
H2118 H 0.2115 0.39285 0.74588 0.0
H2119 H 0.18188 0.39095 0.77745 0.0
H2120 H 0.25307 0.37375 0.81209 0.0
H2121 H 0.24317 0.43891 0.75111 0.0
H2122 H 0.22898 0.43202 0.79252 0.0
H2123 H 0.2255 0.42225 0.73407 0.0
C2124 C 0.20729 0.3978 0.87473 0.0
C2125 C 0.19165 0.39488 0.84684 0.0
C2126 C 0.22436 0.3989 0.85626 0.0
C2127 C 0.22607 0.39736 0.80969 0.0
C2128 C 0.21051 0.39444 0.78192 0.0
H2129 H 0.3138 0.39518 0.62255 0.0
H2130 H 0.28439 0.39542 0.65818 0.0
C2131 C 0.19354 0.39324 0.80019 0.0
C2132 C 0.24409 0.39806 0.78953 0.0
H2133 H 0.26881 0.42129 0.72462 0.0
C2134 C 0.2566 0.38423 0.79333 0.0
C2135 C 0.2486 0.41163 0.76463 0.0
C2136 C 0.23594 0.42715 0.76056 0.0
C2137 C 0.27331 0.38338 0.77208 0.0
C2138 C 0.27783 0.39697 0.74714 0.0
C2139 C 0.26534 0.41084 0.74355 0.0
C2140 C 0.29561 0.39721 0.72543 0.0
C2141 C 0.28574 0.36761 0.7755 0.0
C2142 C 0.31168 0.39855 0.7514 0.0
C2143 C 0.32843 0.39836 0.73121 0.0
C2144 C 0.32957 0.39702 0.68447 0.0
C2145 C 0.31345 0.39618 0.65855 0.0
C2146 C 0.29662 0.39631 0.67888 0.0
H2147 H 0.2783 0.35582 0.7842 0.0
H2148 H 0.29274 0.36286 0.74354 0.0
H2149 H 0.29613 0.37215 0.80234 0.0
H2150 H 0.31128 0.39976 0.78745 0.0
H2151 H 0.34051 0.39924 0.75246 0.0
H2152 H 0.87868 0.93076 1.00979 0.0
H2153 H 0.87848 0.95941 0.98203 0.0
H2154 H 0.87561 0.98978 0.11739 0.0
H2155 H 0.87594 0.961 0.14589 0.0
H2156 H 0.85271 0.98745 0.99149 0.0
H2157 H 0.91916 0.01316 0.06745 0.0
H2158 H 0.91199 0.98965 0.06297 0.0
H2159 H 0.90326 1.00717 0.10605 0.0
C2160 C 0.87801 0.94348 0.03395 0.0
C2161 C 0.87741 0.94346 0.08032 0.0
C2162 C 0.87786 0.9599 0.01783 0.0
C2163 C 0.87726 0.9768 0.04752 0.0
C2164 C 0.87639 0.97692 0.09381 0.0
H2165 H 0.88058 0.08983 1.01315 0.0
H2166 H 0.87912 0.06114 0.04027 0.0
C2167 C 0.87647 0.96043 0.11007 0.0
C2168 C 0.87753 0.99417 0.02965 0.0
H2169 H 0.90236 0.03305 0.03019 0.0
C2170 C 0.86357 0.99742 0.99991 0.0
C2171 C 0.89174 1.00716 0.04043 0.0
C2172 C 0.90749 1.00412 0.07065 0.0
C2173 C 0.86323 0.01344 0.98146 0.0
C2174 C 0.87746 0.02644 0.99216 0.0
C2175 C 0.89144 0.02313 0.02183 0.0
C2176 C 0.87788 0.04386 0.9744 0.0
C2177 C 0.84735 0.01651 0.95165 0.0
C2178 C 0.87774 0.04387 0.92803 0.0
C2179 C 0.87846 0.06044 0.91212 0.0
C2180 C 0.87954 0.07733 0.94229 0.0
C2181 C 0.87977 0.07718 0.98866 0.0
C2182 C 0.87895 0.06071 1.0044 0.0
H2183 H 0.8355 1.00796 0.95645 0.0
H2184 H 0.84326 0.03112 0.95821 0.0
H2185 H 0.8512 0.01272 0.91605 0.0
H2186 H 0.87733 0.03107 0.90408 0.0
H2187 H 0.8784 0.05997 0.87627 0.0
H2188 H 0.18806 0.63859 0.28114 0.0
H2189 H 0.21825 0.63731 0.31391 0.0
H2190 H 0.23998 0.62244 0.18186 0.0
H2191 H 0.20955 0.62383 0.14827 0.0
H2192 H 0.24183 0.60786 0.30628 0.0
H2193 H 0.27226 0.66595 0.24212 0.0
H2194 H 0.24816 0.66206 0.24132 0.0
H2195 H 0.26193 0.64819 0.20055 0.0
C2196 C 0.19918 0.63508 0.25873 0.0
C2197 C 0.19624 0.63137 0.21181 0.0
C2198 C 0.21651 0.63432 0.27772 0.0
C2199 C 0.23148 0.62996 0.25051 0.0
C2200 C 0.2287 0.62613 0.20362 0.0
H2201 H 0.33693 0.60307 0.3627 0.0
H2202 H 0.30867 0.60182 0.31805 0.0
C2203 C 0.21126 0.62684 0.18445 0.0
C2204 C 0.24982 0.62926 0.27189 0.0
H2205 H 0.2913 0.65029 0.28553 0.0
C2206 C 0.25269 0.61705 0.30146 0.0
C2207 C 0.26395 0.64139 0.26609 0.0
C2208 C 0.26149 0.65527 0.23611 0.0
C2209 C 0.26916 0.61674 0.32558 0.0
C2210 C 0.28332 0.62883 0.31969 0.0
C2211 C 0.28051 0.64095 0.28987 0.0
C2212 C 0.30083 0.62962 0.34564 0.0
C2213 C 0.27105 0.60389 0.35835 0.0
C2214 C 0.30609 0.64576 0.3754 0.0
C2215 C 0.32226 0.64651 0.40081 0.0
C2216 C 0.33362 0.63119 0.39673 0.0
C2217 C 0.32845 0.61509 0.36662 0.0
C2218 C 0.31226 0.61434 0.34123 0.0
H2219 H 0.25774 0.59859 0.36644 0.0
H2220 H 0.27938 0.592 0.34345 0.0
H2221 H 0.2779 0.61082 0.39002 0.0
H2222 H 0.29754 0.65775 0.37938 0.0
H2223 H 0.3259 0.65913 0.4236 0.0
H2224 H 0.40357 0.9485 0.36831 0.0
H2225 H 0.40285 0.97976 0.4118 0.0
H2226 H 0.36311 0.963 0.49763 0.0
H2227 H 0.36253 0.9323 0.45128 0.0
H2228 H 0.35438 0.99395 0.48822 0.0
H2229 H 0.42776 1.00009 0.52442 0.0
H2230 H 0.42338 0.99633 0.46517 0.0
H2231 H 0.41748 0.97889 0.49642 0.0
C2232 C 0.39467 0.95154 0.39644 0.0
C2233 C 0.38335 0.93783 0.40684 0.0
C2234 C 0.39443 0.96941 0.42181 0.0
C2235 C 0.38342 0.97386 0.45942 0.0
C2236 C 0.3719 0.96012 0.46925 0.0
H2237 H 0.40389 0.07419 0.65881 0.0
H2238 H 0.40279 0.04283 0.61582 0.0
C2239 C 0.37168 0.94244 0.44293 0.0
C2240 C 0.38346 0.99281 0.48777 0.0
H2241 H 0.41106 0.02791 0.53975 0.0
C2242 C 0.36683 1.00123 0.49983 0.0
C2243 C 0.3996 1.00246 0.5041 0.0
C2244 C 0.41802 0.99387 0.49728 0.0
C2245 C 0.36586 0.01879 0.52711 0.0
C2246 C 0.38198 0.02893 0.54084 0.0
C2247 C 0.39861 0.02046 0.52902 0.0
C2248 C 0.38205 0.04808 0.56813 0.0
C2249 C 0.34748 0.02582 0.54216 0.0
C2250 C 0.37081 0.06179 0.55631 0.0
C2251 C 0.37094 0.07958 0.58212 0.0
C2252 C 0.38295 0.08441 0.61911 0.0
C2253 C 0.3945 0.07092 0.63043 0.0
C2254 C 0.39392 0.05295 0.6056 0.0
H2255 H 0.33794 0.01434 0.54309 0.0
H2256 H 0.34821 0.03465 0.576 0.0
H2257 H 0.34175 0.03384 0.51788 0.0
H2258 H 0.362 0.05885 0.5268 0.0
H2259 H 0.36184 0.08964 0.57259 0.0
H2260 H 0.80912 0.62412 0.13484 0.0
H2261 H 0.77887 0.6239 0.1662 0.0
H2262 H 0.80211 0.63892 0.29982 0.0
H2263 H 0.8321 0.63897 0.26931 0.0
H2264 H 0.77741 0.61071 0.29247 0.0
H2265 H 0.74873 0.66845 0.22141 0.0
H2266 H 0.75782 0.64995 0.18148 0.0
H2267 H 0.77264 0.66376 0.22217 0.0
C2268 C 0.80779 0.62738 0.17089 0.0
C2269 C 0.82316 0.6316 0.19937 0.0
C2270 C 0.79045 0.62737 0.18878 0.0
C2271 C 0.78814 0.63161 0.23545 0.0
C2272 C 0.80348 0.63563 0.26376 0.0
H2273 H 0.69623 0.66572 0.40019 0.0
H2274 H 0.72396 0.66307 0.35705 0.0
C2275 C 0.8207 0.63567 0.24606 0.0
C2276 C 0.76994 0.6317 0.25557 0.0
H2277 H 0.72941 0.65398 0.26477 0.0
C2278 C 0.76687 0.62008 0.28613 0.0
C2279 C 0.75624 0.64409 0.2478 0.0
C2280 C 0.75897 0.6574 0.21674 0.0
C2281 C 0.75064 0.62062 0.30942 0.0
C2282 C 0.73689 0.63294 0.30152 0.0
C2283 C 0.73988 0.64446 0.27065 0.0
C2284 C 0.71966 0.63459 0.32639 0.0
C2285 C 0.74864 0.60844 0.34351 0.0
C2286 C 0.70783 0.61955 0.32321 0.0
C2287 C 0.69204 0.62102 0.34807 0.0
C2288 C 0.68762 0.63761 0.37627 0.0
C2289 C 0.69929 0.65274 0.37886 0.0
C2290 C 0.71511 0.65126 0.35407 0.0
H2291 H 0.76187 0.60317 0.35339 0.0
H2292 H 0.74215 0.61591 0.37413 0.0
H2293 H 0.73996 0.5965 0.32887 0.0
H2294 H 0.71084 0.60664 0.30154 0.0
H2295 H 0.68331 0.60912 0.34532 0.0
H2296 H 0.14293 0.09077 1.01347 0.0
H2297 H 0.14353 0.06222 0.04138 0.0
H2298 H 0.14457 0.03169 0.90581 0.0
H2299 H 0.14433 0.06047 0.87725 0.0
H2300 H 0.11955 0.03444 0.02908 0.0
H2301 H 0.18566 1.00815 0.96407 0.0
H2302 H 0.17857 0.03138 0.96437 0.0
H2303 H 0.17009 0.01297 0.92155 0.0
C2304 C 0.14339 0.07805 0.98928 0.0
C2305 C 0.14364 0.07805 0.94286 0.0
C2306 C 0.14371 0.06165 1.00549 0.0
C2307 C 0.14432 0.0447 0.97593 0.0
C2308 C 0.1445 0.04456 0.9295 0.0
H2309 H 0.14047 0.93186 1.01279 0.0
H2310 H 0.14155 0.96045 0.98496 0.0
C2311 C 0.14426 0.06106 0.91313 0.0
C2312 C 0.14424 0.02735 0.99419 0.0
H2313 H 0.16787 0.98806 0.99744 0.0
C2314 C 0.13018 0.02435 0.02227 0.0
C2315 C 0.1581 0.01413 0.98555 0.0
C2316 C 0.17406 0.01684 0.9576 0.0
C2317 C 0.12943 1.00848 0.0412 0.0
C2318 C 0.14325 0.99525 0.03246 0.0
C2319 C 0.1573 0.99821 1.00434 0.0
C2320 C 0.14298 0.9779 0.05056 0.0
C2321 C 0.11357 1.00578 0.06952 0.0
C2322 C 0.14367 0.97803 0.09699 0.0
C2323 C 0.14307 0.96155 0.11331 0.0
C2324 C 0.14177 0.94457 0.0835 0.0
C2325 C 0.14137 0.94457 0.03703 0.0
C2326 C 0.14204 0.96097 0.02087 0.0
H2327 H 0.10217 0.01497 0.06463 0.0
H2328 H 0.10866 0.99138 0.06153 0.0
H2329 H 0.11787 1.0089 0.10545 0.0
H2330 H 0.14471 0.99089 0.12066 0.0
H2331 H 0.14348 0.96213 0.14922 0.0
H2332 H 0.69614 0.35777 0.61199 0.0
H2333 H 0.72312 0.36018 0.66152 0.0
H2334 H 0.71176 0.41722 0.7109 0.0
H2335 H 0.68495 0.41492 0.66094 0.0
H2336 H 0.74726 0.41139 0.68845 0.0
H2337 H 0.72645 0.36364 0.79761 0.0
H2338 H 0.7248 0.35381 0.73887 0.0
H2339 H 0.71068 0.37283 0.76135 0.0
C2340 C 0.6994 0.3708 0.63348 0.0
C2341 C 0.68839 0.38612 0.63283 0.0
C2342 C 0.71472 0.37213 0.6621 0.0
C2343 C 0.71932 0.3888 0.69063 0.0
C2344 C 0.70843 0.40417 0.68954 0.0
H2345 H 0.80787 0.39968 0.89609 0.0
H2346 H 0.77779 0.40057 0.86001 0.0
C2347 C 0.69311 0.40284 0.66098 0.0
C2348 C 0.73597 0.39045 0.71986 0.0
H2349 H 0.75773 0.37224 0.8019 0.0
C2350 C 0.74945 0.40294 0.71353 0.0
C2351 C 0.73875 0.37969 0.75324 0.0
C2352 C 0.72434 0.36686 0.7636 0.0
C2353 C 0.7659 0.40441 0.73821 0.0
C2354 C 0.76913 0.39289 0.7697 0.0
C2355 C 0.75535 0.38095 0.77749 0.0
C2356 C 0.78714 0.3922 0.79235 0.0
C2357 C 0.77976 0.41826 0.73011 0.0
C2358 C 0.8023 0.38689 0.76648 0.0
C2359 C 0.81937 0.38638 0.78681 0.0
C2360 C 0.82182 0.39106 0.83379 0.0
C2361 C 0.80654 0.39608 0.85989 0.0
C2362 C 0.78934 0.39657 0.83932 0.0
H2363 H 0.77339 0.4295 0.71591 0.0
H2364 H 0.78727 0.42429 0.7616 0.0
H2365 H 0.7896 0.41137 0.70564 0.0
H2366 H 0.80091 0.38308 0.7303 0.0
H2367 H 0.83067 0.38227 0.76536 0.0
loop_
_geom_bond_atom_site_label_1
_geom_bond_atom_site_label_2
_geom_bond_distance
_geom_bond_site_symmetry_2
_ccdc_geom_bond_type
Ho0 C3 2.811 . S
Ho0 O20 2.322 . S
Ho0 O22 2.378 . S
Ho0 O23 2.524 . S
Ho0 O24 2.381 . S
Ho0 O25 2.669 . S
Ho0 O27 2.346 . S
Ho0 O31 2.305 . S
Ho1 C12 2.811 . S
Ho1 O21 2.346 . S
Ho1 O25 2.305 . S
Ho1 O26 2.322 . S
Ho1 O28 2.378 . S
Ho1 O29 2.524 . S
Ho1 O30 2.381 . S
Ho1 O31 2.669 . S
C2 O20 1.259 . S
C2 O21 1.268 . S
C3 Ho0 2.811 . S
C3 C4 1.488 1_554 S
C3 O22 1.215 . S
C3 O23 1.289 . S
C4 C3 1.488 1_556 S
C4 C5 1.348 . S
C4 C9 1.413 . S
C5 C4 1.348 . S
C5 C6 1.442 . S
C5 H32 0.930 . S
C6 C5 1.442 . S
C6 C7 1.381 . S
C6 H33 0.931 . S
C7 C6 1.381 . S
C7 C8 1.321 . S
C8 C7 1.321 . S
C8 C9 1.403 . S
C8 H34 0.934 . S
C9 C4 1.413 . S
C9 C8 1.403 . S
C9 H35 0.930 . S
C10 O24 1.275 . S
C10 O25 1.256 . S
C11 O26 1.259 . S
C11 O27 1.268 . S
C12 Ho1 2.811 . S
C12 C13 1.488 . S
C12 O28 1.215 . S
C12 O29 1.289 . S
C13 C12 1.488 . S
C13 C14 1.348 . S
C13 C18 1.413 . S
C14 C13 1.348 . S
C14 C15 1.442 . S
C14 H36 0.930 . S
C15 C14 1.442 . S
C15 C16 1.381 . S
C15 H37 0.931 . S
C16 C15 1.381 . S
C16 C17 1.321 . S
C17 C16 1.321 . S
C17 C18 1.403 . S
C17 H38 0.934 . S
C18 C13 1.413 . S
C18 C17 1.403 . S
C18 H39 0.930 . S
C19 O30 1.275 . S
C19 O31 1.256 . S
O20 Ho0 2.322 . S
O20 C2 1.259 . S
O21 Ho1 2.346 . S
O21 C2 1.268 . S
O22 Ho0 2.378 . S
O22 C3 1.215 . S
O23 Ho0 2.524 . S
O23 C3 1.289 . S
O24 Ho0 2.381 . S
O24 C10 1.275 . S
O25 Ho0 2.669 . S
O25 Ho1 2.305 . S
O25 C10 1.256 . S
O26 Ho1 2.322 . S
O26 C11 1.259 . S
O27 Ho0 2.346 . S
O27 C11 1.268 . S
O28 Ho1 2.378 . S
O28 C12 1.215 . S
O29 Ho1 2.524 . S
O29 C12 1.289 . S
O30 Ho1 2.381 . S
O30 C19 1.275 . S
O31 Ho0 2.305 . S
O31 Ho1 2.669 . S
O31 C19 1.256 . S
H32 C5 0.930 . S
H33 C6 0.931 . S
H34 C8 0.934 . S
H35 C9 0.930 . S
H36 C14 0.930 . S
H37 C15 0.931 . S
H38 C17 0.934 . S
H39 C18 0.930 . S
Ho40 C43 2.811 . S
Ho40 O60 2.322 . S
Ho40 O62 2.378 . S
Ho40 O63 2.524 . S
Ho40 O64 2.381 . S
Ho40 O65 2.669 . S
Ho40 O67 2.346 . S
Ho40 O71 2.305 . S
Ho41 C52 2.811 . S
Ho41 O61 2.346 . S
Ho41 O65 2.305 . S
Ho41 O66 2.322 . S
Ho41 O68 2.378 . S
Ho41 O69 2.524 . S
Ho41 O70 2.381 . S
Ho41 O71 2.669 . S
C42 O60 1.259 . S
C42 O61 1.268 . S
C43 Ho40 2.811 . S
C43 C44 1.488 . S
C43 O62 1.215 . S
C43 O63 1.289 . S
C44 C43 1.488 . S
C44 C45 1.348 . S
C44 C49 1.413 . S
C45 C44 1.348 . S
C45 C46 1.442 . S
C45 H72 0.930 . S
C46 C45 1.442 . S
C46 C47 1.381 . S
C46 H73 0.931 . S
C47 C46 1.381 . S
C47 C48 1.321 . S
C48 C47 1.321 . S
C48 C49 1.403 . S
C48 H74 0.934 . S
C49 C44 1.413 . S
C49 C48 1.403 . S
C49 H75 0.930 . S
C50 O64 1.275 . S
C50 O65 1.256 . S
C51 O66 1.259 . S
C51 O67 1.268 . S
C52 Ho41 2.811 . S
C52 C53 1.488 . S
C52 O68 1.215 . S
C52 O69 1.289 . S
C53 C52 1.488 . S
C53 C54 1.348 . S
C53 C58 1.413 . S
C54 C53 1.348 . S
C54 C55 1.442 . S
C54 H76 0.930 . S
C55 C54 1.442 . S
C55 C56 1.381 . S
C55 H77 0.931 . S
C56 C55 1.381 . S
C56 C57 1.321 . S
C57 C56 1.321 . S
C57 C58 1.403 . S
C57 H78 0.934 . S
C58 C53 1.413 . S
C58 C57 1.403 . S
C58 H79 0.930 . S
C59 O70 1.275 . S
C59 O71 1.256 . S
O60 Ho40 2.322 . S
O60 C42 1.259 . S
O61 Ho41 2.346 . S
O61 C42 1.268 . S
O62 Ho40 2.378 . S
O62 C43 1.215 . S
O63 Ho40 2.524 . S
O63 C43 1.289 . S
O64 Ho40 2.381 . S
O64 C50 1.275 . S
O65 Ho40 2.669 . S
O65 Ho41 2.305 . S
O65 C50 1.256 . S
O66 Ho41 2.322 . S
O66 C51 1.259 . S
O67 Ho40 2.346 . S
O67 C51 1.268 . S
O68 Ho41 2.378 . S
O68 C52 1.215 . S
O69 Ho41 2.524 . S
O69 C52 1.289 . S
O70 Ho41 2.381 . S
O70 C59 1.275 . S
O71 Ho40 2.305 . S
O71 Ho41 2.669 . S
O71 C59 1.256 . S
H72 C45 0.930 . S
H73 C46 0.931 . S
H74 C48 0.934 . S
H75 C49 0.930 . S
H76 C54 0.930 . S
H77 C55 0.931 . S
H78 C57 0.934 . S
H79 C58 0.930 . S
Ho80 C83 2.811 . S
Ho80 O100 2.322 . S
Ho80 O102 2.378 . S
Ho80 O103 2.524 . S
Ho80 O104 2.381 . S
Ho80 O105 2.669 . S
Ho80 O107 2.346 . S
Ho80 O111 2.305 . S
Ho81 C92 2.811 . S
Ho81 O101 2.346 . S
Ho81 O105 2.305 . S
Ho81 O106 2.322 . S
Ho81 O108 2.378 . S
Ho81 O109 2.524 . S
Ho81 O110 2.381 . S
Ho81 O111 2.669 . S
C82 O100 1.259 . S
C82 O101 1.268 . S
C83 Ho80 2.811 . S
C83 C84 1.488 . S
C83 O102 1.215 . S
C83 O103 1.289 . S
C84 C83 1.488 . S
C84 C85 1.348 . S
C84 C89 1.413 . S
C85 C84 1.348 . S
C85 C86 1.442 . S
C85 H112 0.930 . S
C86 C85 1.442 . S
C86 C87 1.381 . S
C86 H113 0.931 . S
C87 C86 1.381 . S
C87 C88 1.321 . S
C88 C87 1.321 . S
C88 C89 1.403 . S
C88 H114 0.934 . S
C89 C84 1.413 . S
C89 C88 1.403 . S
C89 H115 0.930 . S
C90 O104 1.275 . S
C90 O105 1.256 . S
C91 O106 1.259 . S
C91 O107 1.268 . S
C92 Ho81 2.811 . S
C92 C93 1.488 . S
C92 O108 1.215 . S
C92 O109 1.289 . S
C93 C92 1.488 . S
C93 C94 1.348 . S
C93 C98 1.413 . S
C94 C93 1.348 . S
C94 C95 1.442 . S
C94 H116 0.930 . S
C95 C94 1.442 . S
C95 C96 1.381 . S
C95 H117 0.931 . S
C96 C95 1.381 . S
C96 C97 1.321 . S
C97 C96 1.321 . S
C97 C98 1.403 . S
C97 H118 0.934 . S
C98 C93 1.413 . S
C98 C97 1.403 . S
C98 H119 0.930 . S
C99 O110 1.275 . S
C99 O111 1.256 . S
O100 Ho80 2.322 . S
O100 C82 1.259 . S
O101 Ho81 2.346 . S
O101 C82 1.268 . S
O102 Ho80 2.378 . S
O102 C83 1.215 . S
O103 Ho80 2.524 . S
O103 C83 1.289 . S
O104 Ho80 2.381 . S
O104 C90 1.275 . S
O105 Ho80 2.669 . S
O105 Ho81 2.305 . S
O105 C90 1.256 . S
O106 Ho81 2.322 . S
O106 C91 1.259 . S
O107 Ho80 2.346 . S
O107 C91 1.268 . S
O108 Ho81 2.378 . S
O108 C92 1.215 . S
O109 Ho81 2.524 . S
O109 C92 1.289 . S
O110 Ho81 2.381 . S
O110 C99 1.275 . S
O111 Ho80 2.305 . S
O111 Ho81 2.669 . S
O111 C99 1.256 . S
H112 C85 0.930 . S
H113 C86 0.931 . S
H114 C88 0.934 . S
H115 C89 0.930 . S
H116 C94 0.930 . S
H117 C95 0.931 . S
H118 C97 0.934 . S
H119 C98 0.930 . S
Ho120 C123 2.811 . S
Ho120 O140 2.322 . S
Ho120 O142 2.378 . S
Ho120 O143 2.524 . S
Ho120 O144 2.381 . S
Ho120 O145 2.669 . S
Ho120 O147 2.346 . S
Ho120 O151 2.305 . S
Ho121 C132 2.811 1_556 S
Ho121 O141 2.346 . S
Ho121 O145 2.305 . S
Ho121 O146 2.322 . S
Ho121 O148 2.378 . S
Ho121 O149 2.524 . S
Ho121 O150 2.381 . S
Ho121 O151 2.669 . S
C122 O140 1.259 . S
C122 O141 1.268 . S
C123 Ho120 2.811 . S
C123 C124 1.488 . S
C123 O142 1.215 . S
C123 O143 1.289 . S
C124 C123 1.488 . S
C124 C125 1.348 . S
C124 C129 1.413 . S
C125 C124 1.348 . S
C125 C126 1.442 . S
C125 H152 0.930 . S
C126 C125 1.442 . S
C126 C127 1.381 . S
C126 H153 0.931 . S
C127 C126 1.381 . S
C127 C128 1.321 . S
C128 C127 1.321 . S
C128 C129 1.403 . S
C128 H154 0.934 . S
C129 C124 1.413 . S
C129 C128 1.403 . S
C129 H155 0.930 . S
C130 O144 1.275 . S
C130 O145 1.256 . S
C131 O146 1.259 . S
C131 O147 1.268 . S
C132 Ho121 2.811 1_554 S
C132 C133 1.488 . S
C132 O148 1.215 1_554 S
C132 O149 1.289 1_554 S
C133 C132 1.488 . S
C133 C134 1.348 . S
C133 C138 1.413 . S
C134 C133 1.348 . S
C134 C135 1.442 . S
C134 H156 0.930 . S
C135 C134 1.442 . S
C135 C136 1.381 . S
C135 H157 0.931 . S
C136 C135 1.381 . S
C136 C137 1.321 . S
C137 C136 1.321 . S
C137 C138 1.403 . S
C137 H158 0.934 . S
C138 C133 1.413 . S
C138 C137 1.403 . S
C138 H159 0.930 . S
C139 O150 1.275 . S
C139 O151 1.256 . S
O140 Ho120 2.322 . S
O140 C122 1.259 . S
O141 Ho121 2.346 . S
O141 C122 1.268 . S
O142 Ho120 2.378 . S
O142 C123 1.215 . S
O143 Ho120 2.524 . S
O143 C123 1.289 . S
O144 Ho120 2.381 . S
O144 C130 1.275 . S
O145 Ho120 2.669 . S
O145 Ho121 2.305 . S
O145 C130 1.256 . S
O146 Ho121 2.322 . S
O146 C131 1.259 . S
O147 Ho120 2.346 . S
O147 C131 1.268 . S
O148 Ho121 2.378 . S
O148 C132 1.215 1_556 S
O149 Ho121 2.524 . S
O149 C132 1.289 1_556 S
O150 Ho121 2.381 . S
O150 C139 1.275 . S
O151 Ho120 2.305 . S
O151 Ho121 2.669 . S
O151 C139 1.256 . S
H152 C125 0.930 . S
H153 C126 0.931 . S
H154 C128 0.934 . S
H155 C129 0.930 . S
H156 C134 0.930 . S
H157 C135 0.931 . S
H158 C137 0.934 . S
H159 C138 0.930 . S
Ho160 C163 2.811 1_556 S
Ho160 O180 2.322 . S
Ho160 O182 2.378 1_556 S
Ho160 O183 2.524 1_556 S
Ho160 O184 2.381 . S
Ho160 O185 2.669 . S
Ho160 O187 2.346 . S
Ho160 O191 2.305 . S
Ho161 C172 2.811 . S
Ho161 O181 2.346 . S
Ho161 O185 2.305 . S
Ho161 O186 2.322 . S
Ho161 O188 2.378 . S
Ho161 O189 2.524 . S
Ho161 O190 2.381 . S
Ho161 O191 2.669 . S
C162 O180 1.259 . S
C162 O181 1.268 . S
C163 Ho160 2.811 1_554 S
C163 C164 1.488 . S
C163 O182 1.215 . S
C163 O183 1.289 . S
C164 C163 1.488 . S
C164 C165 1.348 . S
C164 C169 1.413 . S
C165 C164 1.348 . S
C165 C166 1.442 . S
C165 H192 0.930 . S
C166 C165 1.442 . S
C166 C167 1.381 . S
C166 H193 0.931 . S
C167 C166 1.381 . S
C167 C168 1.321 . S
C168 C167 1.321 . S
C168 C169 1.403 . S
C168 H194 0.934 . S
C169 C164 1.413 . S
C169 C168 1.403 . S
C169 H195 0.930 . S
C170 O184 1.275 . S
C170 O185 1.256 . S
C171 O186 1.259 . S
C171 O187 1.268 . S
C172 Ho161 2.811 . S
C172 C173 1.488 . S
C172 O188 1.215 . S
C172 O189 1.289 . S
C173 C172 1.488 . S
C173 C174 1.348 . S
C173 C178 1.413 . S
C174 C173 1.348 . S
C174 C175 1.442 . S
C174 H196 0.930 . S
C175 C174 1.442 . S
C175 C176 1.381 . S
C175 H197 0.931 . S
C176 C175 1.381 . S
C176 C177 1.321 . S
C177 C176 1.321 . S
C177 C178 1.403 . S
C177 H198 0.934 . S
C178 C173 1.413 . S
C178 C177 1.403 . S
C178 H199 0.930 . S
C179 O190 1.275 . S
C179 O191 1.256 . S
O180 Ho160 2.322 . S
O180 C162 1.259 . S
O181 Ho161 2.346 . S
O181 C162 1.268 . S
O182 Ho160 2.378 1_554 S
O182 C163 1.215 . S
O183 Ho160 2.524 1_554 S
O183 C163 1.289 . S
O184 Ho160 2.381 . S
O184 C170 1.275 . S
O185 Ho160 2.669 . S
O185 Ho161 2.305 . S
O185 C170 1.256 . S
O186 Ho161 2.322 . S
O186 C171 1.259 . S
O187 Ho160 2.346 . S
O187 C171 1.268 . S
O188 Ho161 2.378 . S
O188 C172 1.215 . S
O189 Ho161 2.524 . S
O189 C172 1.289 . S
O190 Ho161 2.381 . S
O190 C179 1.275 . S
O191 Ho160 2.305 . S
O191 Ho161 2.669 . S
O191 C179 1.256 . S
H192 C165 0.930 . S
H193 C166 0.931 . S
H194 C168 0.934 . S
H195 C169 0.930 . S
H196 C174 0.930 . S
H197 C175 0.931 . S
H198 C177 0.934 . S
H199 C178 0.930 . S
Ho200 C203 2.811 . S
Ho200 O220 2.322 . S
Ho200 O222 2.378 . S
Ho200 O223 2.524 . S
Ho200 O224 2.381 . S
Ho200 O225 2.669 . S
Ho200 O227 2.346 . S
Ho200 O231 2.305 . S
Ho201 C212 2.811 1_554 S
Ho201 O221 2.346 . S
Ho201 O225 2.305 . S
Ho201 O226 2.322 . S
Ho201 O228 2.378 1_554 S
Ho201 O229 2.524 . S
Ho201 O230 2.381 . S
Ho201 O231 2.669 . S
C202 O220 1.259 . S
C202 O221 1.268 . S
C203 Ho200 2.811 . S
C203 C204 1.488 . S
C203 O222 1.215 . S
C203 O223 1.289 . S
C204 C203 1.488 . S
C204 C205 1.348 . S
C204 C209 1.413 . S
C205 C204 1.348 . S
C205 C206 1.442 . S
C205 H232 0.930 . S
C206 C205 1.442 . S
C206 C207 1.381 . S
C206 H233 0.931 . S
C207 C206 1.381 . S
C207 C208 1.321 . S
C208 C207 1.321 . S
C208 C209 1.403 . S
C208 H234 0.934 . S
C209 C204 1.413 . S
C209 C208 1.403 . S
C209 H235 0.930 . S
C210 O224 1.275 . S
C210 O225 1.256 . S
C211 O226 1.259 . S
C211 O227 1.268 . S
C212 Ho201 2.811 1_556 S
C212 C213 1.488 . S
C212 O228 1.215 . S
C212 O229 1.289 1_556 S
C213 C212 1.488 . S
C213 C214 1.348 . S
C213 C218 1.413 . S
C214 C213 1.348 . S
C214 C215 1.442 . S
C214 H236 0.930 . S
C215 C214 1.442 . S
C215 C216 1.381 . S
C215 H237 0.931 . S
C216 C215 1.381 . S
C216 C217 1.321 . S
C217 C216 1.321 . S
C217 C218 1.403 . S
C217 H238 0.934 . S
C218 C213 1.413 . S
C218 C217 1.403 . S
C218 H239 0.930 . S
C219 O230 1.275 . S
C219 O231 1.256 . S
O220 Ho200 2.322 . S
O220 C202 1.259 . S
O221 Ho201 2.346 . S
O221 C202 1.268 . S
O222 Ho200 2.378 . S
O222 C203 1.215 . S
O223 Ho200 2.524 . S
O223 C203 1.289 . S
O224 Ho200 2.381 . S
O224 C210 1.275 . S
O225 Ho200 2.669 . S
O225 Ho201 2.305 . S
O225 C210 1.256 . S
O226 Ho201 2.322 . S
O226 C211 1.259 . S
O227 Ho200 2.346 . S
O227 C211 1.268 . S
O228 Ho201 2.378 1_556 S
O228 C212 1.215 . S
O229 Ho201 2.524 . S
O229 C212 1.289 1_554 S
O230 Ho201 2.381 . S
O230 C219 1.275 . S
O231 Ho200 2.305 . S
O231 Ho201 2.669 . S
O231 C219 1.256 . S
H232 C205 0.930 . S
H233 C206 0.931 . S
H234 C208 0.934 . S
H235 C209 0.930 . S
H236 C214 0.930 . S
H237 C215 0.931 . S
H238 C217 0.934 . S
H239 C218 0.930 . S
Ho240 C243 2.811 . S
Ho240 O260 2.322 . S
Ho240 O262 2.378 . S
Ho240 O263 2.524 . S
Ho240 O264 2.381 . S
Ho240 O265 2.669 . S
Ho240 O267 2.346 . S
Ho240 O271 2.305 . S
Ho241 C252 2.811 . S
Ho241 O261 2.346 . S
Ho241 O265 2.305 . S
Ho241 O266 2.322 . S
Ho241 O268 2.378 . S
Ho241 O269 2.524 . S
Ho241 O270 2.381 . S
Ho241 O271 2.669 . S
C242 O260 1.259 . S
C242 O261 1.268 . S
C243 Ho240 2.811 . S
C243 C244 1.488 . S
C243 O262 1.215 . S
C243 O263 1.289 . S
C244 C243 1.488 . S
C244 C245 1.348 . S
C244 C249 1.413 . S
C245 C244 1.348 . S
C245 C246 1.442 . S
C245 H272 0.930 . S
C246 C245 1.442 . S
C246 C247 1.381 . S
C246 H273 0.931 . S
C247 C246 1.381 . S
C247 C248 1.321 . S
C248 C247 1.321 . S
C248 C249 1.403 . S
C248 H274 0.934 . S
C249 C244 1.413 . S
C249 C248 1.403 . S
C249 H275 0.930 . S
C250 O264 1.275 . S
C250 O265 1.256 . S
C251 O266 1.259 . S
C251 O267 1.268 . S
C252 Ho241 2.811 . S
C252 C253 1.488 . S
C252 O268 1.215 . S
C252 O269 1.289 . S
C253 C252 1.488 . S
C253 C254 1.348 . S
C253 C258 1.413 . S
C254 C253 1.348 . S
C254 C255 1.442 . S
C254 H276 0.930 . S
C255 C254 1.442 . S
C255 C256 1.381 . S
C255 H277 0.931 . S
C256 C255 1.381 . S
C256 C257 1.321 . S
C257 C256 1.321 . S
C257 C258 1.403 . S
C257 H278 0.934 . S
C258 C253 1.413 . S
C258 C257 1.403 . S
C258 H279 0.930 . S
C259 O270 1.275 . S
C259 O271 1.256 . S
O260 Ho240 2.322 . S
O260 C242 1.259 . S
O261 Ho241 2.346 . S
O261 C242 1.268 . S
O262 Ho240 2.378 . S
O262 C243 1.215 . S
O263 Ho240 2.524 . S
O263 C243 1.289 . S
O264 Ho240 2.381 . S
O264 C250 1.275 . S
O265 Ho240 2.669 . S
O265 Ho241 2.305 . S
O265 C250 1.256 . S
O266 Ho241 2.322 . S
O266 C251 1.259 . S
O267 Ho240 2.346 . S
O267 C251 1.268 . S
O268 Ho241 2.378 . S
O268 C252 1.215 . S
O269 Ho241 2.524 . S
O269 C252 1.289 . S
O270 Ho241 2.381 . S
O270 C259 1.275 . S
O271 Ho240 2.305 . S
O271 Ho241 2.669 . S
O271 C259 1.256 . S
H272 C245 0.930 . S
H273 C246 0.931 . S
H274 C248 0.934 . S
H275 C249 0.930 . S
H276 C254 0.930 . S
H277 C255 0.931 . S
H278 C257 0.934 . S
H279 C258 0.930 . S
Ho280 C283 2.811 . S
Ho280 O300 2.322 . S
Ho280 O302 2.378 . S
Ho280 O303 2.524 . S
Ho280 O304 2.381 . S
Ho280 O305 2.669 . S
Ho280 O307 2.346 . S
Ho280 O311 2.305 . S
Ho281 C292 2.811 . S
Ho281 O301 2.346 . S
Ho281 O305 2.305 . S
Ho281 O306 2.322 . S
Ho281 O308 2.378 . S
Ho281 O309 2.524 . S
Ho281 O310 2.381 . S
Ho281 O311 2.669 . S
C282 O300 1.259 . S
C282 O301 1.268 . S
C283 Ho280 2.811 . S
C283 C284 1.488 . S
C283 O302 1.215 . S
C283 O303 1.289 . S
C284 C283 1.488 . S
C284 C285 1.348 . S
C284 C289 1.413 . S
C285 C284 1.348 . S
C285 C286 1.442 . S
C285 H312 0.930 . S
C286 C285 1.442 . S
C286 C287 1.381 . S
C286 H313 0.931 . S
C287 C286 1.381 . S
C287 C288 1.321 . S
C288 C287 1.321 . S
C288 C289 1.403 . S
C288 H314 0.934 . S
C289 C284 1.413 . S
C289 C288 1.403 . S
C289 H315 0.930 . S
C290 O304 1.275 . S
C290 O305 1.256 . S
C291 O306 1.259 . S
C291 O307 1.268 . S
C292 Ho281 2.811 . S
C292 C293 1.488 . S
C292 O308 1.215 . S
C292 O309 1.289 . S
C293 C292 1.488 . S
C293 C294 1.348 . S
C293 C298 1.413 . S
C294 C293 1.348 . S
C294 C295 1.442 . S
C294 H316 0.930 . S
C295 C294 1.442 . S
C295 C296 1.381 . S
C295 H317 0.931 . S
C296 C295 1.381 . S
C296 C297 1.321 . S
C297 C296 1.321 . S
C297 C298 1.403 . S
C297 H318 0.934 . S
C298 C293 1.413 . S
C298 C297 1.403 . S
C298 H319 0.930 . S
C299 O310 1.275 . S
C299 O311 1.256 . S
O300 Ho280 2.322 . S
O300 C282 1.259 . S
O301 Ho281 2.346 . S
O301 C282 1.268 . S
O302 Ho280 2.378 . S
O302 C283 1.215 . S
O303 Ho280 2.524 . S
O303 C283 1.289 . S
O304 Ho280 2.381 . S
O304 C290 1.275 . S
O305 Ho280 2.669 . S
O305 Ho281 2.305 . S
O305 C290 1.256 . S
O306 Ho281 2.322 . S
O306 C291 1.259 . S
O307 Ho280 2.346 . S
O307 C291 1.268 . S
O308 Ho281 2.378 . S
O308 C292 1.215 . S
O309 Ho281 2.524 . S
O309 C292 1.289 . S
O310 Ho281 2.381 . S
O310 C299 1.275 . S
O311 Ho280 2.305 . S
O311 Ho281 2.669 . S
O311 C299 1.256 . S
H312 C285 0.930 . S
H313 C286 0.931 . S
H314 C288 0.934 . S
H315 C289 0.930 . S
H316 C294 0.930 . S
H317 C295 0.931 . S
H318 C297 0.934 . S
H319 C298 0.930 . S
Ho320 C323 2.811 . S
Ho320 O340 2.322 . S
Ho320 O342 2.378 . S
Ho320 O343 2.524 . S
Ho320 O344 2.381 . S
Ho320 O345 2.669 . S
Ho320 O347 2.346 . S
Ho320 O351 2.305 . S
Ho321 C332 2.811 1_556 S
Ho321 O341 2.346 . S
Ho321 O345 2.305 . S
Ho321 O346 2.322 . S
Ho321 O348 2.378 . S
Ho321 O349 2.524 . S
Ho321 O350 2.381 . S
Ho321 O351 2.669 . S
C322 O340 1.259 . S
C322 O341 1.268 . S
C323 Ho320 2.811 . S
C323 C324 1.488 . S
C323 O342 1.215 . S
C323 O343 1.289 . S
C324 C323 1.488 . S
C324 C325 1.348 . S
C324 C329 1.413 . S
C325 C324 1.348 . S
C325 C326 1.442 . S
C325 H352 0.930 . S
C326 C325 1.442 . S
C326 C327 1.381 . S
C326 H353 0.931 . S
C327 C326 1.381 . S
C327 C328 1.321 . S
C328 C327 1.321 . S
C328 C329 1.403 . S
C328 H354 0.934 . S
C329 C324 1.413 . S
C329 C328 1.403 . S
C329 H355 0.930 . S
C330 O344 1.275 . S
C330 O345 1.256 . S
C331 O346 1.259 . S
C331 O347 1.268 . S
C332 Ho321 2.811 1_554 S
C332 C333 1.488 . S
C332 O348 1.215 1_554 S
C332 O349 1.289 1_554 S
C333 C332 1.488 . S
C333 C334 1.348 . S
C333 C338 1.413 . S
C334 C333 1.348 . S
C334 C335 1.442 . S
C334 H356 0.930 . S
C335 C334 1.442 . S
C335 C336 1.381 . S
C335 H357 0.931 . S
C336 C335 1.381 . S
C336 C337 1.321 . S
C337 C336 1.321 . S
C337 C338 1.403 . S
C337 H358 0.934 . S
C338 C333 1.413 . S
C338 C337 1.403 . S
C338 H359 0.930 . S
C339 O350 1.275 . S
C339 O351 1.256 . S
O340 Ho320 2.322 . S
O340 C322 1.259 . S
O341 Ho321 2.346 . S
O341 C322 1.268 . S
O342 Ho320 2.378 . S
O342 C323 1.215 . S
O343 Ho320 2.524 . S
O343 C323 1.289 . S
O344 Ho320 2.381 . S
O344 C330 1.275 . S
O345 Ho320 2.669 . S
O345 Ho321 2.305 . S
O345 C330 1.256 . S
O346 Ho321 2.322 . S
O346 C331 1.259 . S
O347 Ho320 2.346 . S
O347 C331 1.268 . S
O348 Ho321 2.378 . S
O348 C332 1.215 1_556 S
O349 Ho321 2.524 . S
O349 C332 1.289 1_556 S
O350 Ho321 2.381 . S
O350 C339 1.275 . S
O351 Ho320 2.305 . S
O351 Ho321 2.669 . S
O351 C339 1.256 . S
H352 C325 0.930 . S
H353 C326 0.931 . S
H354 C328 0.934 . S
H355 C329 0.930 . S
H356 C334 0.930 . S
H357 C335 0.931 . S
H358 C337 0.934 . S
H359 C338 0.930 . S
Ho360 C363 2.811 . S
Ho360 O380 2.322 . S
Ho360 O382 2.378 . S
Ho360 O383 2.524 . S
Ho360 O384 2.381 . S
Ho360 O385 2.669 . S
Ho360 O387 2.346 . S
Ho360 O391 2.305 . S
Ho361 C372 2.811 . S
Ho361 O381 2.346 . S
Ho361 O385 2.305 . S
Ho361 O386 2.322 . S
Ho361 O388 2.378 . S
Ho361 O389 2.524 . S
Ho361 O390 2.381 . S
Ho361 O391 2.669 . S
C362 O380 1.259 . S
C362 O381 1.268 . S
C363 Ho360 2.811 . S
C363 C364 1.488 . S
C363 O382 1.215 . S
C363 O383 1.289 . S
C364 C363 1.488 . S
C364 C365 1.348 . S
C364 C369 1.413 . S
C365 C364 1.348 . S
C365 C366 1.442 . S
C365 H392 0.930 . S
C366 C365 1.442 . S
C366 C367 1.381 . S
C366 H393 0.931 . S
C367 C366 1.381 . S
C367 C368 1.321 . S
C368 C367 1.321 . S
C368 C369 1.403 . S
C368 H394 0.934 . S
C369 C364 1.413 . S
C369 C368 1.403 . S
C369 H395 0.930 . S
C370 O384 1.275 . S
C370 O385 1.256 . S
C371 O386 1.259 . S
C371 O387 1.268 . S
C372 Ho361 2.811 . S
C372 C373 1.488 . S
C372 O388 1.215 . S
C372 O389 1.289 . S
C373 C372 1.488 . S
C373 C374 1.348 . S
C373 C378 1.413 . S
C374 C373 1.348 . S
C374 C375 1.442 . S
C374 H396 0.930 . S
C375 C374 1.442 . S
C375 C376 1.381 . S
C375 H397 0.931 . S
C376 C375 1.381 . S
C376 C377 1.321 . S
C377 C376 1.321 . S
C377 C378 1.403 . S
C377 H398 0.934 . S
C378 C373 1.413 . S
C378 C377 1.403 . S
C378 H399 0.930 . S
C379 O390 1.275 . S
C379 O391 1.256 . S
O380 Ho360 2.322 . S
O380 C362 1.259 . S
O381 Ho361 2.346 . S
O381 C362 1.268 . S
O382 Ho360 2.378 . S
O382 C363 1.215 . S
O383 Ho360 2.524 . S
O383 C363 1.289 . S
O384 Ho360 2.381 . S
O384 C370 1.275 . S
O385 Ho360 2.669 . S
O385 Ho361 2.305 . S
O385 C370 1.256 . S
O386 Ho361 2.322 . S
O386 C371 1.259 . S
O387 Ho360 2.346 . S
O387 C371 1.268 . S
O388 Ho361 2.378 . S
O388 C372 1.215 . S
O389 Ho361 2.524 . S
O389 C372 1.289 . S
O390 Ho361 2.381 . S
O390 C379 1.275 . S
O391 Ho360 2.305 . S
O391 Ho361 2.669 . S
O391 C379 1.256 . S
H392 C365 0.930 . S
H393 C366 0.931 . S
H394 C368 0.934 . S
H395 C369 0.930 . S
H396 C374 0.930 . S
H397 C375 0.931 . S
H398 C377 0.934 . S
H399 C378 0.930 . S
Ho400 C403 2.811 . S
Ho400 O420 2.322 . S
Ho400 O422 2.378 . S
Ho400 O423 2.524 . S
Ho400 O424 2.381 . S
Ho400 O425 2.669 . S
Ho400 O427 2.346 . S
Ho400 O431 2.305 . S
Ho401 C412 2.811 . S
Ho401 O421 2.346 . S
Ho401 O425 2.305 . S
Ho401 O426 2.322 . S
Ho401 O428 2.378 . S
Ho401 O429 2.524 . S
Ho401 O430 2.381 . S
Ho401 O431 2.669 . S
C402 O420 1.259 . S
C402 O421 1.268 . S
C403 Ho400 2.811 . S
C403 C404 1.488 . S
C403 O422 1.215 . S
C403 O423 1.289 . S
C404 C403 1.488 . S
C404 C405 1.348 . S
C404 C409 1.413 . S
C405 C404 1.348 . S
C405 C406 1.442 . S
C405 H432 0.930 . S
C406 C405 1.442 . S
C406 C407 1.381 . S
C406 H433 0.931 . S
C407 C406 1.381 . S
C407 C408 1.321 . S
C408 C407 1.321 . S
C408 C409 1.403 . S
C408 H434 0.934 . S
C409 C404 1.413 . S
C409 C408 1.403 . S
C409 H435 0.930 . S
C410 O424 1.275 . S
C410 O425 1.256 . S
C411 O426 1.259 . S
C411 O427 1.268 . S
C412 Ho401 2.811 . S
C412 C413 1.488 . S
C412 O428 1.215 . S
C412 O429 1.289 . S
C413 C412 1.488 . S
C413 C414 1.348 . S
C413 C418 1.413 . S
C414 C413 1.348 . S
C414 C415 1.442 . S
C414 H436 0.930 . S
C415 C414 1.442 . S
C415 C416 1.381 . S
C415 H437 0.931 . S
C416 C415 1.381 . S
C416 C417 1.321 . S
C417 C416 1.321 . S
C417 C418 1.403 . S
C417 H438 0.934 . S
C418 C413 1.413 . S
C418 C417 1.403 . S
C418 H439 0.930 . S
C419 O430 1.275 . S
C419 O431 1.256 . S
O420 Ho400 2.322 . S
O420 C402 1.259 . S
O421 Ho401 2.346 . S
O421 C402 1.268 . S
O422 Ho400 2.378 . S
O422 C403 1.215 . S
O423 Ho400 2.524 . S
O423 C403 1.289 . S
O424 Ho400 2.381 . S
O424 C410 1.275 . S
O425 Ho400 2.669 . S
O425 Ho401 2.305 . S
O425 C410 1.256 . S
O426 Ho401 2.322 . S
O426 C411 1.259 . S
O427 Ho400 2.346 . S
O427 C411 1.268 . S
O428 Ho401 2.378 . S
O428 C412 1.215 . S
O429 Ho401 2.524 . S
O429 C412 1.289 . S
O430 Ho401 2.381 . S
O430 C419 1.275 . S
O431 Ho400 2.305 . S
O431 Ho401 2.669 . S
O431 C419 1.256 . S
H432 C405 0.930 . S
H433 C406 0.931 . S
H434 C408 0.934 . S
H435 C409 0.930 . S
H436 C414 0.930 . S
H437 C415 0.931 . S
H438 C417 0.934 . S
H439 C418 0.930 . S
Ho440 C443 2.811 1_554 S
Ho440 O460 2.322 . S
Ho440 O462 2.378 . S
Ho440 O463 2.524 . S
Ho440 O464 2.381 . S
Ho440 O465 2.669 . S
Ho440 O467 2.346 . S
Ho440 O471 2.305 . S
Ho441 C452 2.811 . S
Ho441 O461 2.346 . S
Ho441 O465 2.305 . S
Ho441 O466 2.322 . S
Ho441 O468 2.378 . S
Ho441 O469 2.524 . S
Ho441 O470 2.381 . S
Ho441 O471 2.669 . S
C442 O460 1.259 . S
C442 O461 1.268 . S
C443 Ho440 2.811 1_556 S
C443 C444 1.488 . S
C443 O462 1.215 1_556 S
C443 O463 1.289 1_556 S
C444 C443 1.488 . S
C444 C445 1.348 . S
C444 C449 1.413 . S
C445 C444 1.348 . S
C445 C446 1.442 . S
C445 H472 0.930 . S
C446 C445 1.442 . S
C446 C447 1.381 . S
C446 H473 0.931 . S
C447 C446 1.381 . S
C447 C448 1.321 . S
C448 C447 1.321 . S
C448 C449 1.403 . S
C448 H474 0.934 . S
C449 C444 1.413 . S
C449 C448 1.403 . S
C449 H475 0.930 . S
C450 O464 1.275 . S
C450 O465 1.256 . S
C451 O466 1.259 . S
C451 O467 1.268 . S
C452 Ho441 2.811 . S
C452 C453 1.488 . S
C452 O468 1.215 . S
C452 O469 1.289 . S
C453 C452 1.488 . S
C453 C454 1.348 . S
C453 C458 1.413 . S
C454 C453 1.348 . S
C454 C455 1.442 . S
C454 H476 0.930 . S
C455 C454 1.442 . S
C455 C456 1.381 . S
C455 H477 0.931 . S
C456 C455 1.381 . S
C456 C457 1.321 . S
C457 C456 1.321 . S
C457 C458 1.403 . S
C457 H478 0.934 . S
C458 C453 1.413 . S
C458 C457 1.403 . S
C458 H479 0.930 . S
C459 O470 1.275 . S
C459 O471 1.256 . S
O460 Ho440 2.322 . S
O460 C442 1.259 . S
O461 Ho441 2.346 . S
O461 C442 1.268 . S
O462 Ho440 2.378 . S
O462 C443 1.215 1_554 S
O463 Ho440 2.524 . S
O463 C443 1.289 1_554 S
O464 Ho440 2.381 . S
O464 C450 1.275 . S
O465 Ho440 2.669 . S
O465 Ho441 2.305 . S
O465 C450 1.256 . S
O466 Ho441 2.322 . S
O466 C451 1.259 . S
O467 Ho440 2.346 . S
O467 C451 1.268 . S
O468 Ho441 2.378 . S
O468 C452 1.215 . S
O469 Ho441 2.524 . S
O469 C452 1.289 . S
O470 Ho441 2.381 . S
O470 C459 1.275 . S
O471 Ho440 2.305 . S
O471 Ho441 2.669 . S
O471 C459 1.256 . S
H472 C445 0.930 . S
H473 C446 0.931 . S
H474 C448 0.934 . S
H475 C449 0.930 . S
H476 C454 0.930 . S
H477 C455 0.931 . S
H478 C457 0.934 . S
H479 C458 0.930 . S
Ho480 C483 2.811 . S
Ho480 O500 2.322 . S
Ho480 O502 2.378 . S
Ho480 O503 2.524 . S
Ho480 O504 2.381 . S
Ho480 O505 2.669 . S
Ho480 O507 2.346 . S
Ho480 O511 2.305 . S
Ho481 C492 2.811 1_554 S
Ho481 O501 2.346 . S
Ho481 O505 2.305 . S
Ho481 O506 2.322 . S
Ho481 O508 2.378 . S
Ho481 O509 2.524 . S
Ho481 O510 2.381 . S
Ho481 O511 2.669 . S
C482 O500 1.259 . S
C482 O501 1.268 . S
C483 Ho480 2.811 . S
C483 C484 1.488 . S
C483 O502 1.215 . S
C483 O503 1.289 . S
C484 C483 1.488 . S
C484 C485 1.348 . S
C484 C489 1.413 . S
C485 C484 1.348 . S
C485 C486 1.442 . S
C485 H512 0.930 . S
C486 C485 1.442 . S
C486 C487 1.381 . S
C486 H513 0.931 . S
C487 C486 1.381 . S
C487 C488 1.321 . S
C488 C487 1.321 . S
C488 C489 1.403 . S
C488 H514 0.934 . S
C489 C484 1.413 . S
C489 C488 1.403 . S
C489 H515 0.930 . S
C490 O504 1.275 . S
C490 O505 1.256 . S
C491 O506 1.259 . S
C491 O507 1.268 . S
C492 Ho481 2.811 1_556 S
C492 C493 1.488 . S
C492 O508 1.215 1_556 S
C492 O509 1.289 1_556 S
C493 C492 1.488 . S
C493 C494 1.348 . S
C493 C498 1.413 . S
C494 C493 1.348 . S
C494 C495 1.442 . S
C494 H516 0.930 . S
C495 C494 1.442 . S
C495 C496 1.381 . S
C495 H517 0.931 . S
C496 C495 1.381 . S
C496 C497 1.321 . S
C497 C496 1.321 . S
C497 C498 1.403 . S
C497 H518 0.934 . S
C498 C493 1.413 . S
C498 C497 1.403 . S
C498 H519 0.930 . S
C499 O510 1.275 . S
C499 O511 1.256 . S
O500 Ho480 2.322 . S
O500 C482 1.259 . S
O501 Ho481 2.346 . S
O501 C482 1.268 . S
O502 Ho480 2.378 . S
O502 C483 1.215 . S
O503 Ho480 2.524 . S
O503 C483 1.289 . S
O504 Ho480 2.381 . S
O504 C490 1.275 . S
O505 Ho480 2.669 . S
O505 Ho481 2.305 . S
O505 C490 1.256 . S
O506 Ho481 2.322 . S
O506 C491 1.259 . S
O507 Ho480 2.346 . S
O507 C491 1.268 . S
O508 Ho481 2.378 . S
O508 C492 1.215 1_554 S
O509 Ho481 2.524 . S
O509 C492 1.289 1_554 S
O510 Ho481 2.381 . S
O510 C499 1.275 . S
O511 Ho480 2.305 . S
O511 Ho481 2.669 . S
O511 C499 1.256 . S
H512 C485 0.930 . S
H513 C486 0.931 . S
H514 C488 0.934 . S
H515 C489 0.930 . S
H516 C494 0.930 . S
H517 C495 0.931 . S
H518 C497 0.934 . S
H519 C498 0.930 . S
Ho520 C523 2.811 1_556 S
Ho520 O540 2.322 . S
Ho520 O542 2.383 . S
Ho520 O543 2.524 . S
Ho520 O544 2.381 . S
Ho520 O545 2.669 . S
Ho520 O547 2.346 . S
Ho520 O551 2.305 . S
Ho521 C532 2.811 . S
Ho521 O541 2.346 . S
Ho521 O545 2.305 . S
Ho521 O546 2.322 . S
Ho521 O548 2.378 . S
Ho521 O549 2.524 . S
Ho521 O550 2.381 . S
Ho521 O551 2.669 . S
C522 O540 1.259 . S
C522 O541 1.268 . S
C523 Ho520 2.811 1_554 S
C523 C524 1.488 . S
C523 O542 1.213 1_554 S
C523 O543 1.289 1_554 S
C524 C523 1.488 . S
C524 C525 1.348 . S
C524 C529 1.413 . S
C525 C524 1.348 . S
C525 C526 1.442 . S
C525 H552 0.930 . S
C526 C525 1.442 . S
C526 C527 1.381 . S
C526 H553 0.931 . S
C527 C526 1.381 . S
C527 C528 1.321 . S
C528 C527 1.321 . S
C528 C529 1.403 . S
C528 H554 0.934 . S
C529 C524 1.413 . S
C529 C528 1.403 . S
C529 H555 0.930 . S
C530 O544 1.275 . S
C530 O545 1.256 . S
C531 O546 1.259 . S
C531 O547 1.268 . S
C532 Ho521 2.811 . S
C532 C533 1.488 . S
C532 O548 1.215 . S
C532 O549 1.289 . S
C533 C532 1.488 . S
C533 C534 1.348 . S
C533 C538 1.413 . S
C534 C533 1.348 . S
C534 C535 1.442 . S
C534 H556 0.930 . S
C535 C534 1.442 . S
C535 C536 1.381 . S
C535 H557 0.931 . S
C536 C535 1.381 . S
C536 C537 1.321 . S
C537 C536 1.321 . S
C537 C538 1.403 . S
C537 H558 0.934 . S
C538 C533 1.413 . S
C538 C537 1.403 . S
C538 H559 0.930 . S
C539 O550 1.275 . S
C539 O551 1.256 . S
O540 Ho520 2.322 . S
O540 C522 1.259 . S
O541 Ho521 2.346 . S
O541 C522 1.268 . S
O542 Ho520 2.383 . S
O542 C523 1.213 1_556 S
O543 Ho520 2.524 . S
O543 C523 1.289 1_556 S
O544 Ho520 2.381 . S
O544 C530 1.275 . S
O545 Ho520 2.669 . S
O545 Ho521 2.305 . S
O545 C530 1.256 . S
O546 Ho521 2.322 . S
O546 C531 1.259 . S
O547 Ho520 2.346 . S
O547 C531 1.268 . S
O548 Ho521 2.378 . S
O548 C532 1.215 . S
O549 Ho521 2.524 . S
O549 C532 1.289 . S
O550 Ho521 2.381 . S
O550 C539 1.275 . S
O551 Ho520 2.305 . S
O551 Ho521 2.669 . S
O551 C539 1.256 . S
H552 C525 0.930 . S
H553 C526 0.931 . S
H554 C528 0.934 . S
H555 C529 0.930 . S
H556 C534 0.930 . S
H557 C535 0.931 . S
H558 C537 0.934 . S
H559 C538 0.930 . S
Ho560 C563 2.811 . S
Ho560 O580 2.322 . S
Ho560 O582 2.378 . S
Ho560 O583 2.524 . S
Ho560 O584 2.381 . S
Ho560 O585 2.669 . S
Ho560 O587 2.346 . S
Ho560 O591 2.305 . S
Ho561 C572 2.811 . S
Ho561 O581 2.346 . S
Ho561 O585 2.305 . S
Ho561 O586 2.322 . S
Ho561 O588 2.378 . S
Ho561 O589 2.524 . S
Ho561 O590 2.381 . S
Ho561 O591 2.669 . S
C562 O580 1.259 . S
C562 O581 1.268 . S
C563 Ho560 2.811 . S
C563 C564 1.488 . S
C563 O582 1.215 . S
C563 O583 1.289 . S
C564 C563 1.488 . S
C564 C565 1.348 . S
C564 C569 1.413 . S
C565 C564 1.348 . S
C565 C566 1.442 . S
C565 H592 0.930 . S
C566 C565 1.442 . S
C566 C567 1.381 . S
C566 H593 0.931 . S
C567 C566 1.381 . S
C567 C568 1.321 . S
C568 C567 1.321 . S
C568 C569 1.403 . S
C568 H594 0.934 . S
C569 C564 1.413 . S
C569 C568 1.403 . S
C569 H595 0.930 . S
C570 O584 1.275 . S
C570 O585 1.256 . S
C571 O586 1.259 . S
C571 O587 1.268 . S
C572 Ho561 2.811 . S
C572 C573 1.488 . S
C572 O588 1.215 . S
C572 O589 1.289 . S
C573 C572 1.488 . S
C573 C574 1.348 . S
C573 C578 1.413 . S
C574 C573 1.348 . S
C574 C575 1.442 . S
C574 H596 0.930 . S
C575 C574 1.442 . S
C575 C576 1.381 . S
C575 H597 0.931 . S
C576 C575 1.381 . S
C576 C577 1.321 . S
C577 C576 1.321 . S
C577 C578 1.403 . S
C577 H598 0.934 . S
C578 C573 1.413 . S
C578 C577 1.403 . S
C578 H599 0.930 . S
C579 O590 1.275 . S
C579 O591 1.256 . S
O580 Ho560 2.322 . S
O580 C562 1.259 . S
O581 Ho561 2.346 . S
O581 C562 1.268 . S
O582 Ho560 2.378 . S
O582 C563 1.215 . S
O583 Ho560 2.524 . S
O583 C563 1.289 . S
O584 Ho560 2.381 . S
O584 C570 1.275 . S
O585 Ho560 2.669 . S
O585 Ho561 2.305 . S
O585 C570 1.256 . S
O586 Ho561 2.322 . S
O586 C571 1.259 . S
O587 Ho560 2.346 . S
O587 C571 1.268 . S
O588 Ho561 2.378 . S
O588 C572 1.215 . S
O589 Ho561 2.524 . S
O589 C572 1.289 . S
O590 Ho561 2.381 . S
O590 C579 1.275 . S
O591 Ho560 2.305 . S
O591 Ho561 2.669 . S
O591 C579 1.256 . S
H592 C565 0.930 . S
H593 C566 0.931 . S
H594 C568 0.934 . S
H595 C569 0.930 . S
H596 C574 0.930 . S
H597 C575 0.931 . S
H598 C577 0.934 . S
H599 C578 0.930 . S
Ho600 C603 2.811 . S
Ho600 O620 2.322 . S
Ho600 O622 2.378 . S
Ho600 O623 2.524 . S
Ho600 O624 2.381 . S
Ho600 O625 2.669 . S
Ho600 O627 2.346 . S
Ho600 O631 2.305 . S
Ho601 C612 2.811 . S
Ho601 O621 2.346 . S
Ho601 O625 2.305 . S
Ho601 O626 2.322 . S
Ho601 O628 2.378 . S
Ho601 O629 2.524 . S
Ho601 O630 2.381 . S
Ho601 O631 2.669 . S
C602 O620 1.259 . S
C602 O621 1.268 . S
C603 Ho600 2.811 . S
C603 C604 1.488 . S
C603 O622 1.215 . S
C603 O623 1.289 . S
C604 C603 1.488 . S
C604 C605 1.348 . S
C604 C609 1.413 . S
C605 C604 1.348 . S
C605 C606 1.442 . S
C605 H632 0.930 . S
C606 C605 1.442 . S
C606 C607 1.381 . S
C606 H633 0.931 . S
C607 C606 1.381 . S
C607 C608 1.321 . S
C608 C607 1.321 . S
C608 C609 1.403 . S
C608 H634 0.934 . S
C609 C604 1.413 . S
C609 C608 1.403 . S
C609 H635 0.930 . S
C610 O624 1.275 . S
C610 O625 1.256 . S
C611 O626 1.259 . S
C611 O627 1.268 . S
C612 Ho601 2.811 . S
C612 C613 1.488 . S
C612 O628 1.215 . S
C612 O629 1.289 . S
C613 C612 1.488 . S
C613 C614 1.348 . S
C613 C618 1.413 . S
C614 C613 1.348 . S
C614 C615 1.442 . S
C614 H636 0.930 . S
C615 C614 1.442 . S
C615 C616 1.381 . S
C615 H637 0.931 . S
C616 C615 1.381 . S
C616 C617 1.321 . S
C617 C616 1.321 . S
C617 C618 1.403 . S
C617 H638 0.934 . S
C618 C613 1.413 . S
C618 C617 1.403 . S
C618 H639 0.930 . S
C619 O630 1.275 . S
C619 O631 1.256 . S
O620 Ho600 2.322 . S
O620 C602 1.259 . S
O621 Ho601 2.346 . S
O621 C602 1.268 . S
O622 Ho600 2.378 . S
O622 C603 1.215 . S
O623 Ho600 2.524 . S
O623 C603 1.289 . S
O624 Ho600 2.381 . S
O624 C610 1.275 . S
O625 Ho600 2.669 . S
O625 Ho601 2.305 . S
O625 C610 1.256 . S
O626 Ho601 2.322 . S
O626 C611 1.259 . S
O627 Ho600 2.346 . S
O627 C611 1.268 . S
O628 Ho601 2.378 . S
O628 C612 1.215 . S
O629 Ho601 2.524 . S
O629 C612 1.289 . S
O630 Ho601 2.381 . S
O630 C619 1.275 . S
O631 Ho600 2.305 . S
O631 Ho601 2.669 . S
O631 C619 1.256 . S
H632 C605 0.930 . S
H633 C606 0.931 . S
H634 C608 0.934 . S
H635 C609 0.930 . S
H636 C614 0.930 . S
H637 C615 0.931 . S
H638 C617 0.934 . S
H639 C618 0.930 . S
H640 C648 0.929 . S
H641 C650 0.930 . S
H642 C652 0.930 . S
H643 C655 0.929 . S
H644 C658 0.930 . S
H645 C660 0.960 . S
H646 C660 0.960 . S
H647 C660 0.960 . S
C648 H640 0.929 . S
C648 C649 1.377 . S
C648 C650 1.384 . S
C649 C648 1.377 . S
C649 C655 1.390 . S
C650 H641 0.930 . S
C650 C648 1.384 . S
C650 C651 1.372 . S
C651 C650 1.372 . S
C651 C652 1.400 . S
C651 C656 1.490 . S
C652 H642 0.930 . S
C652 C651 1.400 . S
C652 C655 1.386 . S
H653 C669 0.930 . S
H654 C670 0.931 . S
C655 H643 0.929 . S
C655 C649 1.390 . S
C655 C652 1.386 . S
C656 C651 1.490 . S
C656 C658 1.395 . S
C656 C659 1.403 . S
H657 C663 0.930 . S
C658 H644 0.930 . S
C658 C656 1.395 . S
C658 C661 1.403 . S
C659 C656 1.403 . S
C659 C660 1.524 . S
C659 C663 1.400 . S
C660 H645 0.960 . S
C660 H646 0.960 . S
C660 H647 0.960 . S
C660 C659 1.524 . S
C661 C658 1.403 . S
C661 C662 1.392 . S
C661 C665 1.495 . S
C662 C661 1.392 . S
C662 C663 1.385 . S
C662 C664 1.478 . S
C663 H657 0.930 . S
C663 C659 1.400 . S
C663 C662 1.385 . S
C664 C662 1.478 . S
C664 C666 1.381 . S
C664 C670 1.383 . S
C665 C661 1.495 . S
C665 H671 0.959 . S
C665 H672 0.961 . S
C665 H673 0.960 . S
C666 C664 1.381 . S
C666 C667 1.394 . S
C666 H674 0.930 . S
C667 C666 1.394 . S
C667 C668 1.383 . S
C667 H675 0.929 . S
C668 C667 1.383 . S
C668 C669 1.377 . S
C669 H653 0.930 . S
C669 C668 1.377 . S
C669 C670 1.379 . S
C670 H654 0.931 . S
C670 C664 1.383 . S
C670 C669 1.379 . S
H671 C665 0.959 . S
H672 C665 0.961 . S
H673 C665 0.960 . S
H674 C666 0.930 . S
H675 C667 0.929 . S
H676 C684 0.929 . S
H677 C686 0.930 . S
H678 C688 0.930 . S
H679 C691 0.929 . S
H680 C694 0.930 . S
H681 C696 0.960 . S
H682 C696 0.960 . S
H683 C696 0.960 . S
C684 H676 0.929 . S
C684 C685 1.377 . S
C684 C686 1.384 1_554 S
C685 C684 1.377 . S
C685 C691 1.390 . S
C686 H677 0.930 . S
C686 C684 1.384 1_556 S
C686 C687 1.372 . S
C687 C686 1.372 . S
C687 C688 1.400 . S
C687 C692 1.490 . S
C688 H678 0.930 . S
C688 C687 1.400 . S
C688 C691 1.386 1_556 S
H689 C705 0.930 . S
H690 C706 0.931 . S
C691 H679 0.929 . S
C691 C685 1.390 . S
C691 C688 1.386 1_554 S
C692 C687 1.490 . S
C692 C694 1.395 . S
C692 C695 1.403 . S
H693 C699 0.930 . S
C694 H680 0.930 . S
C694 C692 1.395 . S
C694 C697 1.403 . S
C695 C692 1.403 . S
C695 C696 1.524 . S
C695 C699 1.400 . S
C696 H681 0.960 . S
C696 H682 0.960 . S
C696 H683 0.960 . S
C696 C695 1.524 . S
C697 C694 1.403 . S
C697 C698 1.392 . S
C697 C701 1.495 . S
C698 C697 1.392 . S
C698 C699 1.385 . S
C698 C700 1.478 . S
C699 H693 0.930 . S
C699 C695 1.400 . S
C699 C698 1.385 . S
C700 C698 1.478 . S
C700 C702 1.381 . S
C700 C706 1.383 . S
C701 C697 1.495 . S
C701 H707 0.959 . S
C701 H708 0.961 . S
C701 H709 0.960 . S
C702 C700 1.381 . S
C702 C703 1.394 . S
C702 H710 0.930 . S
C703 C702 1.394 . S
C703 C704 1.383 . S
C703 H711 0.929 . S
C704 C703 1.383 . S
C704 C705 1.377 . S
C705 H689 0.930 . S
C705 C704 1.377 . S
C705 C706 1.379 . S
C706 H690 0.931 . S
C706 C700 1.383 . S
C706 C705 1.379 . S
H707 C701 0.959 . S
H708 C701 0.961 . S
H709 C701 0.960 . S
H710 C702 0.930 . S
H711 C703 0.929 . S
H712 C720 0.929 . S
H713 C722 0.930 . S
H714 C724 0.930 . S
H715 C727 0.929 . S
H716 C730 0.930 . S
H717 C732 0.960 . S
H718 C732 0.960 . S
H719 C732 0.960 . S
C720 H712 0.929 . S
C720 C721 1.377 . S
C720 C722 1.384 . S
C721 C720 1.377 . S
C721 C727 1.390 . S
C722 H713 0.930 . S
C722 C720 1.384 . S
C722 C723 1.372 . S
C723 C722 1.372 . S
C723 C724 1.400 . S
C723 C728 1.490 . S
C724 H714 0.930 . S
C724 C723 1.400 . S
C724 C727 1.386 . S
H725 C741 0.930 . S
H726 C742 0.931 . S
C727 H715 0.929 . S
C727 C721 1.390 . S
C727 C724 1.386 . S
C728 C723 1.490 . S
C728 C730 1.395 . S
C728 C731 1.403 . S
H729 C735 0.930 . S
C730 H716 0.930 . S
C730 C728 1.395 . S
C730 C733 1.403 . S
C731 C728 1.403 . S
C731 C732 1.524 . S
C731 C735 1.400 . S
C732 H717 0.960 . S
C732 H718 0.960 . S
C732 H719 0.960 . S
C732 C731 1.524 . S
C733 C730 1.403 . S
C733 C734 1.392 . S
C733 C737 1.495 . S
C734 C733 1.392 . S
C734 C735 1.385 . S
C734 C736 1.478 . S
C735 H729 0.930 . S
C735 C731 1.400 . S
C735 C734 1.385 . S
C736 C734 1.478 . S
C736 C738 1.381 . S
C736 C742 1.383 . S
C737 C733 1.495 . S
C737 H743 0.959 . S
C737 H744 0.961 . S
C737 H745 0.960 . S
C738 C736 1.381 . S
C738 C739 1.394 1_554 S
C738 H746 0.930 . S
C739 C738 1.394 1_556 S
C739 C740 1.383 . S
C739 H747 0.929 . S
C740 C739 1.383 . S
C740 C741 1.377 . S
C741 H725 0.930 . S
C741 C740 1.377 . S
C741 C742 1.379 1_556 S
C742 H726 0.931 . S
C742 C736 1.383 . S
C742 C741 1.379 1_554 S
H743 C737 0.959 . S
H744 C737 0.961 . S
H745 C737 0.960 . S
H746 C738 0.930 . S
H747 C739 0.929 . S
H748 C756 0.929 . S
H749 C758 0.930 . S
H750 C760 0.930 . S
H751 C763 0.929 . S
H752 C766 0.930 . S
H753 C768 0.960 . S
H754 C768 0.960 . S
H755 C768 0.960 . S
C756 H748 0.929 . S
C756 C757 1.377 . S
C756 C758 1.384 . S
C757 C756 1.377 . S
C757 C763 1.390 . S
C758 H749 0.930 . S
C758 C756 1.384 . S
C758 C759 1.372 . S
C759 C758 1.372 . S
C759 C760 1.400 . S
C759 C764 1.490 . S
C760 H750 0.930 . S
C760 C759 1.400 . S
C760 C763 1.386 . S
H761 C777 0.930 . S
H762 C778 0.931 . S
C763 H751 0.929 . S
C763 C757 1.390 . S
C763 C760 1.386 . S
C764 C759 1.490 . S
C764 C766 1.395 . S
C764 C767 1.403 . S
H765 C771 0.930 . S
C766 H752 0.930 . S
C766 C764 1.395 . S
C766 C769 1.403 . S
C767 C764 1.403 . S
C767 C768 1.524 . S
C767 C771 1.400 . S
C768 H753 0.960 . S
C768 H754 0.960 . S
C768 H755 0.960 . S
C768 C767 1.524 . S
C769 C766 1.403 . S
C769 C770 1.392 . S
C769 C773 1.495 . S
C770 C769 1.392 . S
C770 C771 1.385 . S
C770 C772 1.478 . S
C771 H765 0.930 . S
C771 C767 1.400 . S
C771 C770 1.385 . S
C772 C770 1.478 . S
C772 C774 1.381 . S
C772 C778 1.383 . S
C773 C769 1.495 . S
C773 H779 0.959 . S
C773 H780 0.961 . S
C773 H781 0.960 . S
C774 C772 1.381 . S
C774 C775 1.394 . S
C774 H782 0.930 . S
C775 C774 1.394 . S
C775 C776 1.383 . S
C775 H783 0.929 . S
C776 C775 1.383 . S
C776 C777 1.377 . S
C777 H761 0.930 . S
C777 C776 1.377 . S
C777 C778 1.379 . S
C778 H762 0.931 . S
C778 C772 1.383 . S
C778 C777 1.379 . S
H779 C773 0.959 . S
H780 C773 0.961 . S
H781 C773 0.960 . S
H782 C774 0.930 . S
H783 C775 0.929 . S
H784 C792 0.929 . S
H785 C794 0.930 . S
H786 C796 0.930 . S
H787 C799 0.929 . S
H788 C802 0.930 . S
H789 C804 0.960 . S
H790 C804 0.960 . S
H791 C804 0.960 . S
C792 H784 0.929 . S
C792 C793 1.377 . S
C792 C794 1.384 . S
C793 C792 1.377 . S
C793 C799 1.390 . S
C794 H785 0.930 . S
C794 C792 1.384 . S
C794 C795 1.372 . S
C795 C794 1.372 . S
C795 C796 1.400 . S
C795 C800 1.490 . S
C796 H786 0.930 . S
C796 C795 1.400 . S
C796 C799 1.386 . S
H797 C813 0.930 . S
H798 C814 0.931 . S
C799 H787 0.929 . S
C799 C793 1.390 . S
C799 C796 1.386 . S
C800 C795 1.490 . S
C800 C802 1.395 . S
C800 C803 1.403 . S
H801 C807 0.930 . S
C802 H788 0.930 . S
C802 C800 1.395 . S
C802 C805 1.403 . S
C803 C800 1.403 . S
C803 C804 1.524 . S
C803 C807 1.400 . S
C804 H789 0.960 . S
C804 H790 0.960 . S
C804 H791 0.960 . S
C804 C803 1.524 . S
C805 C802 1.403 . S
C805 C806 1.392 . S
C805 C809 1.495 . S
C806 C805 1.392 . S
C806 C807 1.385 . S
C806 C808 1.478 . S
C807 H801 0.930 . S
C807 C803 1.400 . S
C807 C806 1.385 . S
C808 C806 1.478 . S
C808 C810 1.381 . S
C808 C814 1.383 . S
C809 C805 1.495 . S
C809 H815 0.959 . S
C809 H816 0.961 . S
C809 H817 0.960 . S
C810 C808 1.381 . S
C810 C811 1.394 . S
C810 H818 0.930 . S
C811 C810 1.394 . S
C811 C812 1.383 . S
C811 H819 0.929 . S
C812 C811 1.383 . S
C812 C813 1.377 . S
C813 H797 0.930 . S
C813 C812 1.377 . S
C813 C814 1.379 . S
C814 H798 0.931 . S
C814 C808 1.383 . S
C814 C813 1.379 . S
H815 C809 0.959 . S
H816 C809 0.961 . S
H817 C809 0.960 . S
H818 C810 0.930 . S
H819 C811 0.929 . S
H820 C828 0.929 . S
H821 C830 0.930 . S
H822 C832 0.930 . S
H823 C835 0.929 . S
H824 C838 0.930 . S
H825 C840 0.960 . S
H826 C840 0.960 . S
H827 C840 0.960 . S
C828 H820 0.929 . S
C828 C829 1.377 . S
C828 C830 1.384 . S
C829 C828 1.377 . S
C829 C835 1.390 . S
C830 H821 0.930 . S
C830 C828 1.384 . S
C830 C831 1.372 . S
C831 C830 1.372 . S
C831 C832 1.400 . S
C831 C836 1.490 . S
C832 H822 0.930 . S
C832 C831 1.400 . S
C832 C835 1.386 . S
H833 C849 0.930 . S
H834 C850 0.931 . S
C835 H823 0.929 . S
C835 C829 1.390 . S
C835 C832 1.386 . S
C836 C831 1.490 . S
C836 C838 1.395 . S
C836 C839 1.403 . S
H837 C843 0.930 . S
C838 H824 0.930 . S
C838 C836 1.395 . S
C838 C841 1.403 . S
C839 C836 1.403 . S
C839 C840 1.524 . S
C839 C843 1.400 . S
C840 H825 0.960 . S
C840 H826 0.960 . S
C840 H827 0.960 . S
C840 C839 1.524 . S
C841 C838 1.403 . S
C841 C842 1.392 . S
C841 C845 1.495 . S
C842 C841 1.392 . S
C842 C843 1.385 . S
C842 C844 1.478 . S
C843 H837 0.930 . S
C843 C839 1.400 . S
C843 C842 1.385 . S
C844 C842 1.478 . S
C844 C846 1.381 . S
C844 C850 1.383 . S
C845 C841 1.495 . S
C845 H851 0.959 . S
C845 H852 0.961 . S
C845 H853 0.960 . S
C846 C844 1.381 . S
C846 C847 1.394 . S
C846 H854 0.930 . S
C847 C846 1.394 . S
C847 C848 1.383 . S
C847 H855 0.929 . S
C848 C847 1.383 . S
C848 C849 1.377 . S
C849 H833 0.930 . S
C849 C848 1.377 . S
C849 C850 1.379 . S
C850 H834 0.931 . S
C850 C844 1.383 . S
C850 C849 1.379 . S
H851 C845 0.959 . S
H852 C845 0.961 . S
H853 C845 0.960 . S
H854 C846 0.930 . S
H855 C847 0.929 . S
H856 C864 0.929 . S
H857 C866 0.930 . S
H858 C868 0.930 . S
H859 C871 0.929 . S
H860 C874 0.930 . S
H861 C876 0.960 . S
H862 C876 0.960 . S
H863 C876 0.960 . S
C864 H856 0.929 . S
C864 C865 1.377 . S
C864 C866 1.384 . S
C865 C864 1.377 . S
C865 C871 1.390 . S
C866 H857 0.930 . S
C866 C864 1.384 . S
C866 C867 1.372 . S
C867 C866 1.372 . S
C867 C868 1.400 . S
C867 C872 1.490 . S
C868 H858 0.930 . S
C868 C867 1.400 . S
C868 C871 1.386 . S
H869 C885 0.930 . S
H870 C886 0.931 . S
C871 H859 0.929 . S
C871 C865 1.390 . S
C871 C868 1.386 . S
C872 C867 1.490 . S
C872 C874 1.395 . S
C872 C875 1.403 . S
H873 C879 0.930 . S
C874 H860 0.930 . S
C874 C872 1.395 . S
C874 C877 1.403 . S
C875 C872 1.403 . S
C875 C876 1.524 . S
C875 C879 1.400 . S
C876 H861 0.960 . S
C876 H862 0.960 . S
C876 H863 0.960 . S
C876 C875 1.524 . S
C877 C874 1.403 . S
C877 C878 1.392 . S
C877 C881 1.495 . S
C878 C877 1.392 . S
C878 C879 1.385 . S
C878 C880 1.478 1_556 S
C879 H873 0.930 . S
C879 C875 1.400 . S
C879 C878 1.385 . S
C880 C878 1.478 1_554 S
C880 C882 1.381 . S
C880 C886 1.383 . S
C881 C877 1.495 . S
C881 H887 0.959 . S
C881 H888 0.961 . S
C881 H889 0.960 . S
C882 C880 1.381 . S
C882 C883 1.394 . S
C882 H890 0.930 . S
C883 C882 1.394 . S
C883 C884 1.383 . S
C883 H891 0.929 . S
C884 C883 1.383 . S
C884 C885 1.377 . S
C885 H869 0.930 . S
C885 C884 1.377 . S
C885 C886 1.379 . S
C886 H870 0.931 . S
C886 C880 1.383 . S
C886 C885 1.379 . S
H887 C881 0.959 . S
H888 C881 0.961 . S
H889 C881 0.960 . S
H890 C882 0.930 . S
H891 C883 0.929 . S
H892 C900 0.929 . S
H893 C902 0.930 . S
H894 C904 0.942 . S
H895 C907 0.929 . S
H896 C910 0.930 . S
H897 C912 0.960 . S
H898 C912 0.960 . S
H899 C912 0.960 . S
C900 H892 0.929 . S
C900 C901 1.377 . S
C900 C902 1.384 1_556 S
C901 C900 1.377 . S
C901 C907 1.390 . S
C902 H893 0.930 . S
C902 C900 1.384 1_554 S
C902 C903 1.372 . S
C903 C902 1.372 . S
C903 C904 1.400 1_554 S
C903 C908 1.490 . S
C904 H894 0.942 . S
C904 C903 1.400 1_556 S
C904 C907 1.386 . S
H905 C921 0.930 . S
H906 C922 0.931 . S
C907 H895 0.929 . S
C907 C901 1.390 . S
C907 C904 1.386 . S
C908 C903 1.490 . S
C908 C910 1.395 . S
C908 C911 1.403 . S
H909 C915 0.930 . S
C910 H896 0.930 . S
C910 C908 1.395 . S
C910 C913 1.403 . S
C911 C908 1.403 . S
C911 C912 1.524 . S
C911 C915 1.400 . S
C912 H897 0.960 . S
C912 H898 0.960 . S
C912 H899 0.960 . S
C912 C911 1.524 . S
C913 C910 1.403 . S
C913 C914 1.392 . S
C913 C917 1.495 . S
C914 C913 1.392 . S
C914 C915 1.385 . S
C914 C916 1.478 . S
C915 H909 0.930 . S
C915 C911 1.400 . S
C915 C914 1.385 . S
C916 C914 1.478 . S
C916 C918 1.381 . S
C916 C922 1.383 . S
C917 C913 1.495 . S
C917 H923 0.959 . S
C917 H924 0.961 . S
C917 H925 0.960 . S
C918 C916 1.381 . S
C918 C919 1.394 . S
C918 H926 0.930 . S
C919 C918 1.394 . S
C919 C920 1.383 . S
C919 H927 0.929 . S
C920 C919 1.383 . S
C920 C921 1.377 . S
C921 H905 0.930 . S
C921 C920 1.377 . S
C921 C922 1.379 . S
C922 H906 0.931 . S
C922 C916 1.383 . S
C922 C921 1.379 . S
H923 C917 0.959 . S
H924 C917 0.961 . S
H925 C917 0.960 . S
H926 C918 0.930 . S
H927 C919 0.929 . S
H928 C936 0.929 . S
H929 C938 0.930 . S
H930 C940 0.930 . S
H931 C943 0.929 . S
H932 C946 0.930 . S
H933 C948 0.960 . S
H934 C948 0.960 . S
H935 C948 0.960 . S
C936 H928 0.929 . S
C936 C937 1.377 . S
C936 C938 1.384 . S
C937 C936 1.377 . S
C937 C943 1.390 . S
C938 H929 0.930 . S
C938 C936 1.384 . S
C938 C939 1.372 . S
C939 C938 1.372 . S
C939 C940 1.400 . S
C939 C944 1.490 . S
C940 H930 0.930 . S
C940 C939 1.400 . S
C940 C943 1.386 . S
H941 C957 0.930 . S
H942 C958 0.931 . S
C943 H931 0.929 . S
C943 C937 1.390 . S
C943 C940 1.386 . S
C944 C939 1.490 . S
C944 C946 1.395 . S
C944 C947 1.403 . S
H945 C951 0.930 . S
C946 H932 0.930 . S
C946 C944 1.395 . S
C946 C949 1.403 . S
C947 C944 1.403 . S
C947 C948 1.524 . S
C947 C951 1.400 . S
C948 H933 0.960 . S
C948 H934 0.960 . S
C948 H935 0.960 . S
C948 C947 1.524 . S
C949 C946 1.403 . S
C949 C950 1.392 . S
C949 C953 1.495 . S
C950 C949 1.392 . S
C950 C951 1.385 . S
C950 C952 1.478 . S
C951 H945 0.930 . S
C951 C947 1.400 . S
C951 C950 1.385 . S
C952 C950 1.478 . S
C952 C954 1.381 . S
C952 C958 1.383 . S
C953 C949 1.495 . S
C953 H959 0.959 . S
C953 H960 0.961 . S
C953 H961 0.960 . S
C954 C952 1.381 . S
C954 C955 1.394 . S
C954 H962 0.930 . S
C955 C954 1.394 . S
C955 C956 1.383 . S
C955 H963 0.929 . S
C956 C955 1.383 . S
C956 C957 1.377 . S
C957 H941 0.930 . S
C957 C956 1.377 . S
C957 C958 1.379 . S
C958 H942 0.931 . S
C958 C952 1.383 . S
C958 C957 1.379 . S
H959 C953 0.959 . S
H960 C953 0.961 . S
H961 C953 0.960 . S
H962 C954 0.930 . S
H963 C955 0.929 . S
H964 C972 0.929 . S
H965 C974 0.930 . S
H966 C976 0.930 . S
H967 C979 0.929 . S
H968 C982 0.930 . S
H969 C984 0.960 . S
H970 C984 0.960 . S
H971 C984 0.960 . S
C972 H964 0.929 . S
C972 C973 1.377 . S
C972 C974 1.384 . S
C973 C972 1.377 . S
C973 C979 1.390 . S
C974 H965 0.930 . S
C974 C972 1.384 . S
C974 C975 1.372 . S
C975 C974 1.372 . S
C975 C976 1.400 . S
C975 C980 1.490 . S
C976 H966 0.930 . S
C976 C975 1.400 . S
C976 C979 1.386 . S
H977 C993 0.930 . S
H978 C994 0.931 . S
C979 H967 0.929 . S
C979 C973 1.390 . S
C979 C976 1.386 . S
C980 C975 1.490 . S
C980 C982 1.395 . S
C980 C983 1.403 . S
H981 C987 0.930 . S
C982 H968 0.930 . S
C982 C980 1.395 . S
C982 C985 1.403 . S
C983 C980 1.403 . S
C983 C984 1.524 . S
C983 C987 1.400 . S
C984 H969 0.960 . S
C984 H970 0.960 . S
C984 H971 0.960 . S
C984 C983 1.524 . S
C985 C982 1.403 . S
C985 C986 1.392 . S
C985 C989 1.495 . S
C986 C985 1.392 . S
C986 C987 1.385 . S
C986 C988 1.478 1_554 S
C987 H981 0.930 . S
C987 C983 1.400 . S
C987 C986 1.385 . S
C988 C986 1.478 1_556 S
C988 C990 1.381 . S
C988 C994 1.383 . S
C989 C985 1.495 . S
C989 H995 0.959 . S
C989 H996 0.961 . S
C989 H997 0.960 . S
C990 C988 1.381 . S
C990 C991 1.394 . S
C990 H998 0.930 . S
C991 C990 1.394 . S
C991 C992 1.383 . S
C991 H999 0.929 . S
C992 C991 1.383 . S
C992 C993 1.377 . S
C993 H977 0.930 . S
C993 C992 1.377 . S
C993 C994 1.379 . S
C994 H978 0.931 . S
C994 C988 1.383 . S
C994 C993 1.379 . S
H995 C989 0.959 . S
H996 C989 0.961 . S
H997 C989 0.960 . S
H998 C990 0.930 . S
H999 C991 0.929 . S
H1000 C1008 0.929 . S
H1001 C1010 0.930 . S
H1002 C1012 0.930 . S
H1003 C1015 0.929 . S
H1004 C1018 0.930 . S
H1005 C1020 0.960 . S
H1006 C1020 0.960 . S
H1007 C1020 0.960 . S
C1008 H1000 0.929 . S
C1008 C1009 1.377 . S
C1008 C1010 1.384 1_554 S
C1009 C1008 1.377 . S
C1009 C1015 1.390 . S
C1010 H1001 0.930 . S
C1010 C1008 1.384 1_556 S
C1010 C1011 1.372 . S
C1011 C1010 1.372 . S
C1011 C1012 1.400 . S
C1011 C1016 1.490 . S
C1012 H1002 0.930 . S
C1012 C1011 1.400 . S
C1012 C1015 1.386 1_556 S
H1013 C1029 0.930 . S
H1014 C1030 0.931 . S
C1015 H1003 0.929 . S
C1015 C1009 1.390 . S
C1015 C1012 1.386 1_554 S
C1016 C1011 1.490 . S
C1016 C1018 1.395 . S
C1016 C1019 1.403 . S
H1017 C1023 0.930 . S
C1018 H1004 0.930 . S
C1018 C1016 1.395 . S
C1018 C1021 1.403 . S
C1019 C1016 1.403 . S
C1019 C1020 1.524 . S
C1019 C1023 1.400 . S
C1020 H1005 0.960 . S
C1020 H1006 0.960 . S
C1020 H1007 0.960 . S
C1020 C1019 1.524 . S
C1021 C1018 1.403 . S
C1021 C1022 1.392 . S
C1021 C1025 1.495 . S
C1022 C1021 1.392 . S
C1022 C1023 1.385 . S
C1022 C1024 1.478 . S
C1023 H1017 0.930 . S
C1023 C1019 1.400 . S
C1023 C1022 1.385 . S
C1024 C1022 1.478 . S
C1024 C1026 1.381 . S
C1024 C1030 1.383 . S
C1025 C1021 1.495 . S
C1025 H1031 0.959 . S
C1025 H1032 0.961 . S
C1025 H1033 0.960 . S
C1026 C1024 1.381 . S
C1026 C1027 1.394 . S
C1026 H1034 0.930 . S
C1027 C1026 1.394 . S
C1027 C1028 1.383 . S
C1027 H1035 0.929 . S
C1028 C1027 1.383 . S
C1028 C1029 1.377 . S
C1029 H1013 0.930 . S
C1029 C1028 1.377 . S
C1029 C1030 1.379 . S
C1030 H1014 0.931 . S
C1030 C1024 1.383 . S
C1030 C1029 1.379 . S
H1031 C1025 0.959 . S
H1032 C1025 0.961 . S
H1033 C1025 0.960 . S
H1034 C1026 0.930 . S
H1035 C1027 0.929 . S
H1036 C1044 0.929 . S
H1037 C1046 0.930 . S
H1038 C1048 0.930 . S
H1039 C1051 0.929 . S
H1040 C1054 0.930 . S
H1041 C1056 0.960 . S
H1042 C1056 0.960 . S
H1043 C1056 0.960 . S
C1044 H1036 0.929 . S
C1044 C1045 1.377 . S
C1044 C1046 1.384 . S
C1045 C1044 1.377 . S
C1045 C1051 1.390 . S
C1046 H1037 0.930 . S
C1046 C1044 1.384 . S
C1046 C1047 1.372 . S
C1047 C1046 1.372 . S
C1047 C1048 1.400 . S
C1047 C1052 1.490 . S
C1048 H1038 0.930 . S
C1048 C1047 1.400 . S
C1048 C1051 1.386 . S
H1049 C1065 0.930 . S
H1050 C1066 0.931 . S
C1051 H1039 0.929 . S
C1051 C1045 1.390 . S
C1051 C1048 1.386 . S
C1052 C1047 1.490 . S
C1052 C1054 1.395 . S
C1052 C1055 1.403 . S
H1053 C1059 0.930 . S
C1054 H1040 0.930 . S
C1054 C1052 1.395 . S
C1054 C1057 1.403 . S
C1055 C1052 1.403 . S
C1055 C1056 1.524 . S
C1055 C1059 1.400 . S
C1056 H1041 0.960 . S
C1056 H1042 0.960 . S
C1056 H1043 0.960 . S
C1056 C1055 1.524 . S
C1057 C1054 1.403 . S
C1057 C1058 1.392 . S
C1057 C1061 1.495 . S
C1058 C1057 1.392 . S
C1058 C1059 1.385 . S
C1058 C1060 1.478 . S
C1059 H1053 0.930 . S
C1059 C1055 1.400 . S
C1059 C1058 1.385 . S
C1060 C1058 1.478 . S
C1060 C1062 1.381 . S
C1060 C1066 1.383 . S
C1061 C1057 1.495 . S
C1061 H1067 0.959 . S
C1061 H1068 0.961 . S
C1061 H1069 0.960 . S
C1062 C1060 1.381 . S
C1062 C1063 1.394 . S
C1062 H1070 0.930 . S
C1063 C1062 1.394 . S
C1063 C1064 1.383 . S
C1063 H1071 0.929 . S
C1064 C1063 1.383 . S
C1064 C1065 1.377 . S
C1065 H1049 0.930 . S
C1065 C1064 1.377 . S
C1065 C1066 1.379 . S
C1066 H1050 0.931 . S
C1066 C1060 1.383 . S
C1066 C1065 1.379 . S
H1067 C1061 0.959 . S
H1068 C1061 0.961 . S
H1069 C1061 0.960 . S
H1070 C1062 0.930 . S
H1071 C1063 0.929 . S
H1072 C1080 0.929 . S
H1073 C1082 0.930 . S
H1074 C1084 0.930 . S
H1075 C1087 0.929 . S
H1076 C1090 0.930 . S
H1077 C1092 0.960 . S
H1078 C1092 0.960 . S
H1079 C1092 0.960 . S
C1080 H1072 0.929 . S
C1080 C1081 1.377 . S
C1080 C1082 1.384 . S
C1081 C1080 1.377 . S
C1081 C1087 1.390 . S
C1082 H1073 0.930 . S
C1082 C1080 1.384 . S
C1082 C1083 1.372 . S
C1083 C1082 1.372 . S
C1083 C1084 1.400 . S
C1083 C1088 1.490 . S
C1084 H1074 0.930 . S
C1084 C1083 1.400 . S
C1084 C1087 1.386 . S
H1085 C1101 0.930 . S
H1086 C1102 0.931 . S
C1087 H1075 0.929 . S
C1087 C1081 1.390 . S
C1087 C1084 1.386 . S
C1088 C1083 1.490 . S
C1088 C1090 1.395 . S
C1088 C1091 1.403 . S
H1089 C1095 0.930 . S
C1090 H1076 0.930 . S
C1090 C1088 1.395 . S
C1090 C1093 1.403 . S
C1091 C1088 1.403 . S
C1091 C1092 1.524 . S
C1091 C1095 1.400 . S
C1092 H1077 0.960 . S
C1092 H1078 0.960 . S
C1092 H1079 0.960 . S
C1092 C1091 1.524 . S
C1093 C1090 1.403 . S
C1093 C1094 1.392 . S
C1093 C1097 1.495 . S
C1094 C1093 1.392 . S
C1094 C1095 1.385 . S
C1094 C1096 1.478 . S
C1095 H1089 0.930 . S
C1095 C1091 1.400 . S
C1095 C1094 1.385 . S
C1096 C1094 1.478 . S
C1096 C1098 1.381 . S
C1096 C1102 1.383 . S
C1097 C1093 1.495 . S
C1097 H1103 0.959 . S
C1097 H1104 0.961 . S
C1097 H1105 0.960 . S
C1098 C1096 1.381 . S
C1098 C1099 1.394 . S
C1098 H1106 0.930 . S
C1099 C1098 1.394 . S
C1099 C1100 1.383 . S
C1099 H1107 0.929 . S
C1100 C1099 1.383 . S
C1100 C1101 1.377 . S
C1101 H1085 0.930 . S
C1101 C1100 1.377 . S
C1101 C1102 1.379 . S
C1102 H1086 0.931 . S
C1102 C1096 1.383 . S
C1102 C1101 1.379 . S
H1103 C1097 0.959 . S
H1104 C1097 0.961 . S
H1105 C1097 0.960 . S
H1106 C1098 0.930 . S
H1107 C1099 0.929 . S
H1108 C1116 0.929 . S
H1109 C1118 0.930 . S
H1110 C1120 0.930 . S
H1111 C1123 0.929 . S
H1112 C1126 0.930 . S
H1113 C1128 0.960 . S
H1114 C1128 0.960 . S
H1115 C1128 0.960 . S
C1116 H1108 0.929 . S
C1116 C1117 1.377 . S
C1116 C1118 1.384 . S
C1117 C1116 1.377 . S
C1117 C1123 1.390 . S
C1118 H1109 0.930 . S
C1118 C1116 1.384 . S
C1118 C1119 1.372 . S
C1119 C1118 1.372 . S
C1119 C1120 1.400 . S
C1119 C1124 1.490 . S
C1120 H1110 0.930 . S
C1120 C1119 1.400 . S
C1120 C1123 1.386 . S
H1121 C1137 0.930 . S
H1122 C1138 0.931 . S
C1123 H1111 0.929 . S
C1123 C1117 1.390 . S
C1123 C1120 1.386 . S
C1124 C1119 1.490 . S
C1124 C1126 1.395 . S
C1124 C1127 1.403 . S
H1125 C1131 0.930 . S
C1126 H1112 0.930 . S
C1126 C1124 1.395 . S
C1126 C1129 1.403 . S
C1127 C1124 1.403 . S
C1127 C1128 1.524 . S
C1127 C1131 1.400 . S
C1128 H1113 0.960 . S
C1128 H1114 0.960 . S
C1128 H1115 0.960 . S
C1128 C1127 1.524 . S
C1129 C1126 1.403 . S
C1129 C1130 1.392 . S
C1129 C1133 1.495 . S
C1130 C1129 1.392 . S
C1130 C1131 1.385 . S
C1130 C1132 1.478 . S
C1131 H1125 0.930 . S
C1131 C1127 1.400 . S
C1131 C1130 1.385 . S
C1132 C1130 1.478 . S
C1132 C1134 1.381 . S
C1132 C1138 1.383 . S
C1133 C1129 1.495 . S
C1133 H1139 0.959 . S
C1133 H1140 0.961 . S
C1133 H1141 0.960 . S
C1134 C1132 1.381 . S
C1134 C1135 1.394 . S
C1134 H1142 0.930 . S
C1135 C1134 1.394 . S
C1135 C1136 1.383 . S
C1135 H1143 0.929 . S
C1136 C1135 1.383 . S
C1136 C1137 1.377 . S
C1137 H1121 0.930 . S
C1137 C1136 1.377 . S
C1137 C1138 1.379 . S
C1138 H1122 0.931 . S
C1138 C1132 1.383 . S
C1138 C1137 1.379 . S
H1139 C1133 0.959 . S
H1140 C1133 0.961 . S
H1141 C1133 0.960 . S
H1142 C1134 0.930 . S
H1143 C1135 0.929 . S
H1144 C1152 0.929 . S
H1145 C1154 0.930 . S
H1146 C1156 0.930 . S
H1147 C1159 0.929 . S
H1148 C1162 0.930 . S
H1149 C1164 0.960 . S
H1150 C1164 0.960 . S
H1151 C1164 0.960 . S
C1152 H1144 0.929 . S
C1152 C1153 1.377 . S
C1152 C1154 1.384 . S
C1153 C1152 1.377 . S
C1153 C1159 1.390 . S
C1154 H1145 0.930 . S
C1154 C1152 1.384 . S
C1154 C1155 1.372 . S
C1155 C1154 1.372 . S
C1155 C1156 1.400 . S
C1155 C1160 1.490 . S
C1156 H1146 0.930 . S
C1156 C1155 1.400 . S
C1156 C1159 1.386 . S
H1157 C1173 0.930 . S
H1158 C1174 0.931 . S
C1159 H1147 0.929 . S
C1159 C1153 1.390 . S
C1159 C1156 1.386 . S
C1160 C1155 1.490 . S
C1160 C1162 1.395 . S
C1160 C1163 1.403 . S
H1161 C1167 0.930 . S
C1162 H1148 0.930 . S
C1162 C1160 1.395 . S
C1162 C1165 1.403 . S
C1163 C1160 1.403 . S
C1163 C1164 1.524 . S
C1163 C1167 1.400 . S
C1164 H1149 0.960 . S
C1164 H1150 0.960 . S
C1164 H1151 0.960 . S
C1164 C1163 1.524 . S
C1165 C1162 1.403 . S
C1165 C1166 1.392 . S
C1165 C1169 1.495 . S
C1166 C1165 1.392 . S
C1166 C1167 1.385 . S
C1166 C1168 1.478 1_554 S
C1167 H1161 0.930 . S
C1167 C1163 1.400 . S
C1167 C1166 1.385 . S
C1168 C1166 1.478 1_556 S
C1168 C1170 1.381 . S
C1168 C1174 1.383 . S
C1169 C1165 1.495 . S
C1169 H1175 0.959 . S
C1169 H1176 0.961 . S
C1169 H1177 0.960 . S
C1170 C1168 1.381 . S
C1170 C1171 1.394 . S
C1170 H1178 0.930 . S
C1171 C1170 1.394 . S
C1171 C1172 1.383 . S
C1171 H1179 0.929 . S
C1172 C1171 1.383 . S
C1172 C1173 1.377 . S
C1173 H1157 0.930 . S
C1173 C1172 1.377 . S
C1173 C1174 1.379 . S
C1174 H1158 0.931 . S
C1174 C1168 1.383 . S
C1174 C1173 1.379 . S
H1175 C1169 0.959 . S
H1176 C1169 0.961 . S
H1177 C1169 0.960 . S
H1178 C1170 0.930 . S
H1179 C1171 0.929 . S
H1180 C1188 0.929 . S
H1181 C1190 0.930 . S
H1182 C1192 0.930 . S
H1183 C1195 0.929 . S
H1184 C1198 0.930 . S
H1185 C1200 0.960 . S
H1186 C1200 0.960 . S
H1187 C1200 0.960 . S
C1188 H1180 0.929 . S
C1188 C1189 1.377 . S
C1188 C1190 1.384 1_554 S
C1189 C1188 1.377 . S
C1189 C1195 1.390 . S
C1190 H1181 0.930 . S
C1190 C1188 1.384 1_556 S
C1190 C1191 1.372 . S
C1191 C1190 1.372 . S
C1191 C1192 1.400 . S
C1191 C1196 1.490 . S
C1192 H1182 0.930 . S
C1192 C1191 1.400 . S
C1192 C1195 1.386 1_556 S
H1193 C1209 0.930 . S
H1194 C1210 0.931 . S
C1195 H1183 0.929 . S
C1195 C1189 1.390 . S
C1195 C1192 1.386 1_554 S
C1196 C1191 1.490 . S
C1196 C1198 1.395 . S
C1196 C1199 1.403 . S
H1197 C1203 0.930 . S
C1198 H1184 0.930 . S
C1198 C1196 1.395 . S
C1198 C1201 1.403 . S
C1199 C1196 1.403 . S
C1199 C1200 1.524 . S
C1199 C1203 1.400 . S
C1200 H1185 0.960 . S
C1200 H1186 0.960 . S
C1200 H1187 0.960 . S
C1200 C1199 1.524 . S
C1201 C1198 1.403 . S
C1201 C1202 1.392 . S
C1201 C1205 1.495 . S
C1202 C1201 1.392 . S
C1202 C1203 1.385 . S
C1202 C1204 1.478 . S
C1203 H1197 0.930 . S
C1203 C1199 1.400 . S
C1203 C1202 1.385 . S
C1204 C1202 1.478 . S
C1204 C1206 1.381 . S
C1204 C1210 1.383 . S
C1205 C1201 1.495 . S
C1205 H1211 0.959 . S
C1205 H1212 0.961 . S
C1205 H1213 0.960 . S
C1206 C1204 1.381 . S
C1206 C1207 1.394 . S
C1206 H1214 0.930 . S
C1207 C1206 1.394 . S
C1207 C1208 1.383 . S
C1207 H1215 0.929 . S
C1208 C1207 1.383 . S
C1208 C1209 1.377 . S
C1209 H1193 0.930 . S
C1209 C1208 1.377 . S
C1209 C1210 1.379 . S
C1210 H1194 0.931 . S
C1210 C1204 1.383 . S
C1210 C1209 1.379 . S
H1211 C1205 0.959 . S
H1212 C1205 0.961 . S
H1213 C1205 0.960 . S
H1214 C1206 0.930 . S
H1215 C1207 0.929 . S
H1216 C1224 0.929 . S
H1217 C1226 0.930 . S
H1218 C1228 0.930 . S
H1219 C1231 0.929 . S
H1220 C1234 0.930 . S
H1221 C1236 0.960 . S
H1222 C1236 0.960 . S
H1223 C1236 0.960 . S
C1224 H1216 0.929 . S
C1224 C1225 1.377 . S
C1224 C1226 1.384 . S
C1225 C1224 1.377 . S
C1225 C1231 1.390 . S
C1226 H1217 0.930 . S
C1226 C1224 1.384 . S
C1226 C1227 1.372 . S
C1227 C1226 1.372 . S
C1227 C1228 1.400 . S
C1227 C1232 1.490 . S
C1228 H1218 0.930 . S
C1228 C1227 1.400 . S
C1228 C1231 1.386 . S
H1229 C1245 0.930 . S
H1230 C1246 0.931 . S
C1231 H1219 0.929 . S
C1231 C1225 1.390 . S
C1231 C1228 1.386 . S
C1232 C1227 1.490 . S
C1232 C1234 1.395 . S
C1232 C1235 1.403 . S
H1233 C1239 0.930 . S
C1234 H1220 0.930 . S
C1234 C1232 1.395 . S
C1234 C1237 1.403 . S
C1235 C1232 1.403 . S
C1235 C1236 1.524 . S
C1235 C1239 1.400 . S
C1236 H1221 0.960 . S
C1236 H1222 0.960 . S
C1236 H1223 0.960 . S
C1236 C1235 1.524 . S
C1237 C1234 1.403 . S
C1237 C1238 1.392 . S
C1237 C1241 1.495 . S
C1238 C1237 1.392 . S
C1238 C1239 1.385 . S
C1238 C1240 1.478 . S
C1239 H1233 0.930 . S
C1239 C1235 1.400 . S
C1239 C1238 1.385 . S
C1240 C1238 1.478 . S
C1240 C1242 1.381 . S
C1240 C1246 1.383 . S
C1241 C1237 1.495 . S
C1241 H1247 0.959 . S
C1241 H1248 0.961 . S
C1241 H1249 0.960 . S
C1242 C1240 1.381 . S
C1242 C1243 1.394 . S
C1242 H1250 0.930 . S
C1243 C1242 1.394 . S
C1243 C1244 1.383 . S
C1243 H1251 0.929 . S
C1244 C1243 1.383 . S
C1244 C1245 1.377 . S
C1245 H1229 0.930 . S
C1245 C1244 1.377 . S
C1245 C1246 1.379 . S
C1246 H1230 0.931 . S
C1246 C1240 1.383 . S
C1246 C1245 1.379 . S
H1247 C1241 0.959 . S
H1248 C1241 0.961 . S
H1249 C1241 0.960 . S
H1250 C1242 0.930 . S
H1251 C1243 0.929 . S
H1252 C1260 0.929 . S
H1253 C1262 0.930 . S
H1254 C1264 0.930 . S
H1255 C1267 0.929 . S
H1256 C1270 0.930 . S
H1257 C1272 0.960 . S
H1258 C1272 0.960 . S
H1259 C1272 0.960 . S
C1260 H1252 0.929 . S
C1260 C1261 1.377 . S
C1260 C1262 1.384 . S
C1261 C1260 1.377 . S
C1261 C1267 1.390 . S
C1262 H1253 0.930 . S
C1262 C1260 1.384 . S
C1262 C1263 1.372 . S
C1263 C1262 1.372 . S
C1263 C1264 1.400 . S
C1263 C1268 1.490 . S
C1264 H1254 0.930 . S
C1264 C1263 1.400 . S
C1264 C1267 1.386 . S
H1265 C1281 0.930 . S
H1266 C1282 0.931 . S
C1267 H1255 0.929 . S
C1267 C1261 1.390 . S
C1267 C1264 1.386 . S
C1268 C1263 1.490 . S
C1268 C1270 1.395 . S
C1268 C1271 1.403 . S
H1269 C1275 0.930 . S
C1270 H1256 0.930 . S
C1270 C1268 1.395 . S
C1270 C1273 1.403 . S
C1271 C1268 1.403 . S
C1271 C1272 1.524 . S
C1271 C1275 1.400 . S
C1272 H1257 0.960 . S
C1272 H1258 0.960 . S
C1272 H1259 0.960 . S
C1272 C1271 1.524 . S
C1273 C1270 1.403 . S
C1273 C1274 1.392 . S
C1273 C1277 1.495 . S
C1274 C1273 1.392 . S
C1274 C1275 1.385 . S
C1274 C1276 1.478 . S
C1275 H1269 0.930 . S
C1275 C1271 1.400 . S
C1275 C1274 1.385 . S
C1276 C1274 1.478 . S
C1276 C1278 1.381 . S
C1276 C1282 1.383 . S
C1277 C1273 1.495 . S
C1277 H1283 0.959 . S
C1277 H1284 0.961 . S
C1277 H1285 0.960 . S
C1278 C1276 1.381 . S
C1278 C1279 1.394 . S
C1278 H1286 0.930 . S
C1279 C1278 1.394 . S
C1279 C1280 1.383 . S
C1279 H1287 0.929 . S
C1280 C1279 1.383 . S
C1280 C1281 1.377 . S
C1281 H1265 0.930 . S
C1281 C1280 1.377 . S
C1281 C1282 1.379 . S
C1282 H1266 0.931 . S
C1282 C1276 1.383 . S
C1282 C1281 1.379 . S
H1283 C1277 0.959 . S
H1284 C1277 0.961 . S
H1285 C1277 0.960 . S
H1286 C1278 0.930 . S
H1287 C1279 0.929 . S
H1288 C1296 0.929 . S
H1289 C1298 0.930 . S
H1290 C1300 0.930 . S
H1291 C1303 0.929 . S
H1292 C1306 0.930 . S
H1293 C1308 0.960 . S
H1294 C1308 0.960 . S
H1295 C1308 0.960 . S
C1296 H1288 0.929 . S
C1296 C1297 1.377 . S
C1296 C1298 1.384 . S
C1297 C1296 1.377 . S
C1297 C1303 1.390 . S
C1298 H1289 0.930 . S
C1298 C1296 1.384 . S
C1298 C1299 1.372 . S
C1299 C1298 1.372 . S
C1299 C1300 1.400 . S
C1299 C1304 1.490 . S
C1300 H1290 0.930 . S
C1300 C1299 1.400 . S
C1300 C1303 1.386 . S
H1301 C1317 0.930 . S
H1302 C1318 0.931 . S
C1303 H1291 0.929 . S
C1303 C1297 1.390 . S
C1303 C1300 1.386 . S
C1304 C1299 1.490 . S
C1304 C1306 1.395 . S
C1304 C1307 1.403 . S
H1305 C1311 0.930 . S
C1306 H1292 0.930 . S
C1306 C1304 1.395 . S
C1306 C1309 1.403 . S
C1307 C1304 1.403 . S
C1307 C1308 1.524 . S
C1307 C1311 1.400 . S
C1308 H1293 0.960 . S
C1308 H1294 0.960 . S
C1308 H1295 0.960 . S
C1308 C1307 1.524 . S
C1309 C1306 1.403 . S
C1309 C1310 1.392 . S
C1309 C1313 1.495 . S
C1310 C1309 1.392 . S
C1310 C1311 1.385 . S
C1310 C1312 1.478 . S
C1311 H1305 0.930 . S
C1311 C1307 1.400 . S
C1311 C1310 1.385 . S
C1312 C1310 1.478 . S
C1312 C1314 1.381 . S
C1312 C1318 1.383 . S
C1313 C1309 1.495 . S
C1313 H1319 0.959 . S
C1313 H1320 0.961 . S
C1313 H1321 0.960 . S
C1314 C1312 1.381 . S
C1314 C1315 1.394 . S
C1314 H1322 0.930 . S
C1315 C1314 1.394 . S
C1315 C1316 1.383 . S
C1315 H1323 0.929 . S
C1316 C1315 1.383 . S
C1316 C1317 1.377 . S
C1317 H1301 0.930 . S
C1317 C1316 1.377 . S
C1317 C1318 1.379 . S
C1318 H1302 0.931 . S
C1318 C1312 1.383 . S
C1318 C1317 1.379 . S
H1319 C1313 0.959 . S
H1320 C1313 0.961 . S
H1321 C1313 0.960 . S
H1322 C1314 0.930 . S
H1323 C1315 0.929 . S
H1324 C1332 0.929 . S
H1325 C1334 0.930 . S
H1326 C1336 0.930 . S
H1327 C1339 0.929 . S
H1328 C1342 0.930 . S
H1329 C1344 0.960 . S
H1330 C1344 0.960 . S
H1331 C1344 0.960 . S
C1332 H1324 0.929 . S
C1332 C1333 1.377 . S
C1332 C1334 1.384 . S
C1333 C1332 1.377 . S
C1333 C1339 1.390 . S
C1334 H1325 0.930 . S
C1334 C1332 1.384 . S
C1334 C1335 1.372 . S
C1335 C1334 1.372 . S
C1335 C1336 1.400 . S
C1335 C1340 1.490 . S
C1336 H1326 0.930 . S
C1336 C1335 1.400 . S
C1336 C1339 1.386 . S
H1337 C1353 0.930 . S
H1338 C1354 0.931 . S
C1339 H1327 0.929 . S
C1339 C1333 1.390 . S
C1339 C1336 1.386 . S
C1340 C1335 1.490 . S
C1340 C1342 1.395 . S
C1340 C1343 1.403 . S
H1341 C1347 0.930 . S
C1342 H1328 0.930 . S
C1342 C1340 1.395 . S
C1342 C1345 1.403 1_655 S
C1343 C1340 1.403 . S
C1343 C1344 1.524 . S
C1343 C1347 1.400 1_655 S
C1344 H1329 0.960 . S
C1344 H1330 0.960 . S
C1344 H1331 0.960 . S
C1344 C1343 1.524 . S
C1345 C1342 1.403 1_455 S
C1345 C1346 1.392 . S
C1345 C1349 1.495 . S
C1346 C1345 1.392 . S
C1346 C1347 1.385 . S
C1346 C1348 1.478 . S
C1347 H1341 0.930 . S
C1347 C1343 1.400 1_455 S
C1347 C1346 1.385 . S
C1348 C1346 1.478 . S
C1348 C1350 1.381 . S
C1348 C1354 1.383 . S
C1349 C1345 1.495 . S
C1349 H1355 0.959 . S
C1349 H1356 0.961 . S
C1349 H1357 0.960 . S
C1350 C1348 1.381 . S
C1350 C1351 1.394 . S
C1350 H1358 0.930 . S
C1351 C1350 1.394 . S
C1351 C1352 1.383 . S
C1351 H1359 0.929 . S
C1352 C1351 1.383 . S
C1352 C1353 1.377 . S
C1353 H1337 0.930 . S
C1353 C1352 1.377 . S
C1353 C1354 1.379 . S
C1354 H1338 0.931 . S
C1354 C1348 1.383 . S
C1354 C1353 1.379 . S
H1355 C1349 0.959 . S
H1356 C1349 0.961 . S
H1357 C1349 0.960 . S
H1358 C1350 0.930 . S
H1359 C1351 0.929 . S
H1360 C1368 0.929 . S
H1361 C1370 0.930 . S
H1362 C1372 0.930 . S
H1363 C1375 0.929 . S
H1364 C1378 0.930 . S
H1365 C1380 0.960 . S
H1366 C1380 0.960 . S
H1367 C1380 0.960 . S
C1368 H1360 0.929 . S
C1368 C1369 1.377 . S
C1368 C1370 1.384 . S
C1369 C1368 1.377 . S
C1369 C1375 1.390 . S
C1370 H1361 0.930 . S
C1370 C1368 1.384 . S
C1370 C1371 1.372 . S
C1371 C1370 1.372 . S
C1371 C1372 1.400 . S
C1371 C1376 1.490 . S
C1372 H1362 0.930 . S
C1372 C1371 1.400 . S
C1372 C1375 1.386 . S
H1373 C1389 0.930 . S
H1374 C1390 0.931 . S
C1375 H1363 0.929 . S
C1375 C1369 1.390 . S
C1375 C1372 1.386 . S
C1376 C1371 1.490 . S
C1376 C1378 1.395 . S
C1376 C1379 1.403 . S
H1377 C1383 0.930 . S
C1378 H1364 0.930 . S
C1378 C1376 1.395 . S
C1378 C1381 1.403 . S
C1379 C1376 1.403 . S
C1379 C1380 1.524 . S
C1379 C1383 1.400 . S
C1380 H1365 0.960 . S
C1380 H1366 0.960 . S
C1380 H1367 0.960 . S
C1380 C1379 1.524 . S
C1381 C1378 1.403 . S
C1381 C1382 1.392 . S
C1381 C1385 1.495 . S
C1382 C1381 1.392 . S
C1382 C1383 1.385 . S
C1382 C1384 1.478 . S
C1383 H1377 0.930 . S
C1383 C1379 1.400 . S
C1383 C1382 1.385 . S
C1384 C1382 1.478 . S
C1384 C1386 1.381 . S
C1384 C1390 1.383 . S
C1385 C1381 1.495 . S
C1385 H1391 0.959 . S
C1385 H1392 0.961 . S
C1385 H1393 0.960 . S
C1386 C1384 1.381 . S
C1386 C1387 1.394 . S
C1386 H1394 0.930 . S
C1387 C1386 1.394 . S
C1387 C1388 1.383 . S
C1387 H1395 0.929 . S
C1388 C1387 1.383 . S
C1388 C1389 1.377 . S
C1389 H1373 0.930 . S
C1389 C1388 1.377 . S
C1389 C1390 1.379 . S
C1390 H1374 0.931 . S
C1390 C1384 1.383 . S
C1390 C1389 1.379 . S
H1391 C1385 0.959 . S
H1392 C1385 0.961 . S
H1393 C1385 0.960 . S
H1394 C1386 0.930 . S
H1395 C1387 0.929 . S
H1396 C1404 0.929 . S
H1397 C1406 0.930 . S
H1398 C1408 0.930 . S
H1399 C1411 0.929 . S
H1400 C1414 0.930 . S
H1401 C1416 0.960 . S
H1402 C1416 0.960 . S
H1403 C1416 0.960 . S
C1404 H1396 0.929 . S
C1404 C1405 1.377 . S
C1404 C1406 1.384 . S
C1405 C1404 1.377 . S
C1405 C1411 1.390 . S
C1406 H1397 0.930 . S
C1406 C1404 1.384 . S
C1406 C1407 1.372 . S
C1407 C1406 1.372 . S
C1407 C1408 1.400 . S
C1407 C1412 1.490 . S
C1408 H1398 0.930 . S
C1408 C1407 1.400 . S
C1408 C1411 1.386 . S
H1409 C1425 0.930 . S
H1410 C1426 0.931 . S
C1411 H1399 0.929 . S
C1411 C1405 1.390 . S
C1411 C1408 1.386 . S
C1412 C1407 1.490 . S
C1412 C1414 1.395 . S
C1412 C1415 1.403 . S
H1413 C1419 0.930 . S
C1414 H1400 0.930 . S
C1414 C1412 1.395 . S
C1414 C1417 1.403 1_455 S
C1415 C1412 1.403 . S
C1415 C1416 1.524 . S
C1415 C1419 1.400 1_455 S
C1416 H1401 0.960 . S
C1416 H1402 0.960 . S
C1416 H1403 0.960 . S
C1416 C1415 1.524 . S
C1417 C1414 1.403 1_655 S
C1417 C1418 1.392 . S
C1417 C1421 1.495 . S
C1418 C1417 1.392 . S
C1418 C1419 1.385 . S
C1418 C1420 1.478 . S
C1419 H1413 0.930 . S
C1419 C1415 1.400 1_655 S
C1419 C1418 1.385 . S
C1420 C1418 1.478 . S
C1420 C1422 1.381 . S
C1420 C1426 1.383 . S
C1421 C1417 1.495 . S
C1421 H1427 0.959 . S
C1421 H1428 0.961 . S
C1421 H1429 0.960 . S
C1422 C1420 1.381 . S
C1422 C1423 1.394 . S
C1422 H1430 0.930 . S
C1423 C1422 1.394 . S
C1423 C1424 1.383 . S
C1423 H1431 0.929 . S
C1424 C1423 1.383 . S
C1424 C1425 1.377 . S
C1425 H1409 0.930 . S
C1425 C1424 1.377 . S
C1425 C1426 1.379 . S
C1426 H1410 0.931 . S
C1426 C1420 1.383 . S
C1426 C1425 1.379 . S
H1427 C1421 0.959 . S
H1428 C1421 0.961 . S
H1429 C1421 0.960 . S
H1430 C1422 0.930 . S
H1431 C1423 0.929 . S
H1432 C1440 0.929 . S
H1433 C1442 0.930 . S
H1434 C1444 0.930 . S
H1435 C1447 0.929 . S
H1436 C1450 0.930 . S
H1437 C1452 0.960 . S
H1438 C1452 0.960 . S
H1439 C1452 0.960 . S
C1440 H1432 0.929 . S
C1440 C1441 1.377 . S
C1440 C1442 1.384 . S
C1441 C1440 1.377 . S
C1441 C1447 1.390 . S
C1442 H1433 0.930 . S
C1442 C1440 1.384 . S
C1442 C1443 1.372 . S
C1443 C1442 1.372 . S
C1443 C1444 1.400 . S
C1443 C1448 1.490 . S
C1444 H1434 0.930 . S
C1444 C1443 1.400 . S
C1444 C1447 1.386 . S
H1445 C1461 0.930 . S
H1446 C1462 0.931 . S
C1447 H1435 0.929 . S
C1447 C1441 1.390 . S
C1447 C1444 1.386 . S
C1448 C1443 1.490 . S
C1448 C1450 1.395 . S
C1448 C1451 1.403 . S
H1449 C1455 0.930 . S
C1450 H1436 0.930 . S
C1450 C1448 1.395 . S
C1450 C1453 1.403 . S
C1451 C1448 1.403 . S
C1451 C1452 1.524 . S
C1451 C1455 1.400 . S
C1452 H1437 0.960 . S
C1452 H1438 0.960 . S
C1452 H1439 0.960 . S
C1452 C1451 1.524 . S
C1453 C1450 1.403 . S
C1453 C1454 1.392 . S
C1453 C1457 1.495 . S
C1454 C1453 1.392 . S
C1454 C1455 1.385 . S
C1454 C1456 1.478 . S
C1455 H1449 0.930 . S
C1455 C1451 1.400 . S
C1455 C1454 1.385 . S
C1456 C1454 1.478 . S
C1456 C1458 1.381 . S
C1456 C1462 1.383 . S
C1457 C1453 1.495 . S
C1457 H1463 0.959 . S
C1457 H1464 0.961 . S
C1457 H1465 0.960 . S
C1458 C1456 1.381 . S
C1458 C1459 1.394 . S
C1458 H1466 0.930 . S
C1459 C1458 1.394 . S
C1459 C1460 1.383 . S
C1459 H1467 0.929 . S
C1460 C1459 1.383 . S
C1460 C1461 1.377 . S
C1461 H1445 0.930 . S
C1461 C1460 1.377 . S
C1461 C1462 1.379 . S
C1462 H1446 0.931 . S
C1462 C1456 1.383 . S
C1462 C1461 1.379 . S
H1463 C1457 0.959 . S
H1464 C1457 0.961 . S
H1465 C1457 0.960 . S
H1466 C1458 0.930 . S
H1467 C1459 0.929 . S
H1468 C1476 0.929 . S
H1469 C1478 0.930 . S
H1470 C1480 0.930 . S
H1471 C1483 0.929 . S
H1472 C1486 0.930 . S
H1473 C1488 0.960 . S
H1474 C1488 0.960 . S
H1475 C1488 0.960 . S
C1476 H1468 0.929 . S
C1476 C1477 1.377 . S
C1476 C1478 1.384 . S
C1477 C1476 1.377 . S
C1477 C1483 1.390 . S
C1478 H1469 0.930 . S
C1478 C1476 1.384 . S
C1478 C1479 1.372 . S
C1479 C1478 1.372 . S
C1479 C1480 1.400 . S
C1479 C1484 1.490 . S
C1480 H1470 0.930 . S
C1480 C1479 1.400 . S
C1480 C1483 1.386 . S
H1481 C1497 0.930 . S
H1482 C1498 0.931 . S
C1483 H1471 0.929 . S
C1483 C1477 1.390 . S
C1483 C1480 1.386 . S
C1484 C1479 1.490 . S
C1484 C1486 1.395 . S
C1484 C1487 1.403 . S
H1485 C1491 0.930 . S
C1486 H1472 0.930 . S
C1486 C1484 1.395 . S
C1486 C1489 1.403 . S
C1487 C1484 1.403 . S
C1487 C1488 1.524 . S
C1487 C1491 1.400 . S
C1488 H1473 0.960 . S
C1488 H1474 0.960 . S
C1488 H1475 0.960 . S
C1488 C1487 1.524 . S
C1489 C1486 1.403 . S
C1489 C1490 1.392 . S
C1489 C1493 1.495 . S
C1490 C1489 1.392 . S
C1490 C1491 1.385 . S
C1490 C1492 1.478 . S
C1491 H1485 0.930 . S
C1491 C1487 1.400 . S
C1491 C1490 1.385 . S
C1492 C1490 1.478 . S
C1492 C1494 1.381 . S
C1492 C1498 1.383 . S
C1493 C1489 1.495 . S
C1493 H1499 0.959 . S
C1493 H1500 0.961 . S
C1493 H1501 0.960 . S
C1494 C1492 1.381 . S
C1494 C1495 1.394 . S
C1494 H1502 0.930 . S
C1495 C1494 1.394 . S
C1495 C1496 1.383 . S
C1495 H1503 0.929 . S
C1496 C1495 1.383 . S
C1496 C1497 1.377 . S
C1497 H1481 0.930 . S
C1497 C1496 1.377 . S
C1497 C1498 1.379 . S
C1498 H1482 0.931 . S
C1498 C1492 1.383 . S
C1498 C1497 1.379 . S
H1499 C1493 0.959 . S
H1500 C1493 0.961 . S
H1501 C1493 0.960 . S
H1502 C1494 0.930 . S
H1503 C1495 0.929 . S
H1504 C1512 0.929 . S
H1505 C1514 0.930 . S
H1506 C1516 0.930 . S
H1507 C1519 0.929 . S
H1508 C1522 0.930 . S
H1509 C1524 0.960 . S
H1510 C1524 0.960 . S
H1511 C1524 0.960 . S
C1512 H1504 0.929 . S
C1512 C1513 1.377 . S
C1512 C1514 1.384 . S
C1513 C1512 1.377 . S
C1513 C1519 1.390 . S
C1514 H1505 0.930 . S
C1514 C1512 1.384 . S
C1514 C1515 1.372 . S
C1515 C1514 1.372 . S
C1515 C1516 1.400 . S
C1515 C1520 1.490 . S
C1516 H1506 0.930 . S
C1516 C1515 1.400 . S
C1516 C1519 1.386 . S
H1517 C1533 0.930 . S
H1518 C1534 0.931 . S
C1519 H1507 0.929 . S
C1519 C1513 1.390 . S
C1519 C1516 1.386 . S
C1520 C1515 1.490 . S
C1520 C1522 1.395 . S
C1520 C1523 1.403 . S
H1521 C1527 0.930 . S
C1522 H1508 0.930 . S
C1522 C1520 1.395 . S
C1522 C1525 1.403 . S
C1523 C1520 1.403 . S
C1523 C1524 1.524 . S
C1523 C1527 1.400 . S
C1524 H1509 0.960 . S
C1524 H1510 0.960 . S
C1524 H1511 0.960 . S
C1524 C1523 1.524 . S
C1525 C1522 1.403 . S
C1525 C1526 1.392 . S
C1525 C1529 1.495 . S
C1526 C1525 1.392 . S
C1526 C1527 1.385 . S
C1526 C1528 1.478 . S
C1527 H1521 0.930 . S
C1527 C1523 1.400 . S
C1527 C1526 1.385 . S
C1528 C1526 1.478 . S
C1528 C1530 1.381 . S
C1528 C1534 1.383 . S
C1529 C1525 1.495 . S
C1529 H1535 0.959 . S
C1529 H1536 0.961 . S
C1529 H1537 0.960 . S
C1530 C1528 1.381 . S
C1530 C1531 1.394 . S
C1530 H1538 0.930 . S
C1531 C1530 1.394 . S
C1531 C1532 1.383 . S
C1531 H1539 0.929 . S
C1532 C1531 1.383 . S
C1532 C1533 1.377 . S
C1533 H1517 0.930 . S
C1533 C1532 1.377 . S
C1533 C1534 1.379 . S
C1534 H1518 0.931 . S
C1534 C1528 1.383 . S
C1534 C1533 1.379 . S
H1535 C1529 0.959 . S
H1536 C1529 0.961 . S
H1537 C1529 0.960 . S
H1538 C1530 0.930 . S
H1539 C1531 0.929 . S
H1540 C1548 0.929 . S
H1541 C1550 0.930 . S
H1542 C1552 0.930 . S
H1543 C1555 0.929 . S
H1544 C1558 0.930 . S
H1545 C1560 0.960 . S
H1546 C1560 0.960 . S
H1547 C1560 0.960 . S
C1548 H1540 0.929 . S
C1548 C1549 1.377 . S
C1548 C1550 1.384 . S
C1549 C1548 1.377 . S
C1549 C1555 1.390 . S
C1550 H1541 0.930 . S
C1550 C1548 1.384 . S
C1550 C1551 1.372 . S
C1551 C1550 1.372 . S
C1551 C1552 1.400 . S
C1551 C1556 1.490 . S
C1552 H1542 0.930 . S
C1552 C1551 1.400 . S
C1552 C1555 1.386 . S
H1553 C1569 0.930 . S
H1554 C1570 0.931 . S
C1555 H1543 0.929 . S
C1555 C1549 1.390 . S
C1555 C1552 1.386 . S
C1556 C1551 1.490 . S
C1556 C1558 1.395 . S
C1556 C1559 1.403 . S
H1557 C1563 0.930 . S
C1558 H1544 0.930 . S
C1558 C1556 1.395 . S
C1558 C1561 1.403 . S
C1559 C1556 1.403 . S
C1559 C1560 1.524 . S
C1559 C1563 1.400 . S
C1560 H1545 0.960 . S
C1560 H1546 0.960 . S
C1560 H1547 0.960 . S
C1560 C1559 1.524 . S
C1561 C1558 1.403 . S
C1561 C1562 1.392 . S
C1561 C1565 1.495 . S
C1562 C1561 1.392 . S
C1562 C1563 1.385 . S
C1562 C1564 1.478 . S
C1563 H1557 0.930 . S
C1563 C1559 1.400 . S
C1563 C1562 1.385 . S
C1564 C1562 1.478 . S
C1564 C1566 1.381 . S
C1564 C1570 1.383 . S
C1565 C1561 1.495 . S
C1565 H1571 0.959 . S
C1565 H1572 0.961 . S
C1565 H1573 0.960 . S
C1566 C1564 1.381 . S
C1566 C1567 1.394 . S
C1566 H1574 0.930 . S
C1567 C1566 1.394 . S
C1567 C1568 1.383 . S
C1567 H1575 0.929 . S
C1568 C1567 1.383 . S
C1568 C1569 1.377 . S
C1569 H1553 0.930 . S
C1569 C1568 1.377 . S
C1569 C1570 1.379 . S
C1570 H1554 0.931 . S
C1570 C1564 1.383 . S
C1570 C1569 1.379 . S
H1571 C1565 0.959 . S
H1572 C1565 0.961 . S
H1573 C1565 0.960 . S
H1574 C1566 0.930 . S
H1575 C1567 0.929 . S
H1576 C1584 0.929 . S
H1577 C1586 0.930 . S
H1578 C1588 0.930 . S
H1579 C1591 0.929 . S
H1580 C1594 0.930 . S
H1581 C1596 0.960 . S
H1582 C1596 0.960 . S
H1583 C1596 0.960 . S
C1584 H1576 0.929 . S
C1584 C1585 1.377 . S
C1584 C1586 1.384 . S
C1585 C1584 1.377 . S
C1585 C1591 1.390 . S
C1586 H1577 0.930 . S
C1586 C1584 1.384 . S
C1586 C1587 1.372 . S
C1587 C1586 1.372 . S
C1587 C1588 1.400 . S
C1587 C1592 1.490 . S
C1588 H1578 0.930 . S
C1588 C1587 1.400 . S
C1588 C1591 1.386 . S
H1589 C1605 0.930 . S
H1590 C1606 0.931 . S
C1591 H1579 0.929 . S
C1591 C1585 1.390 . S
C1591 C1588 1.386 . S
C1592 C1587 1.490 . S
C1592 C1594 1.395 . S
C1592 C1595 1.403 . S
H1593 C1599 0.930 . S
C1594 H1580 0.930 . S
C1594 C1592 1.395 . S
C1594 C1597 1.403 . S
C1595 C1592 1.403 . S
C1595 C1596 1.524 . S
C1595 C1599 1.400 . S
C1596 H1581 0.960 . S
C1596 H1582 0.960 . S
C1596 H1583 0.960 . S
C1596 C1595 1.524 . S
C1597 C1594 1.403 . S
C1597 C1598 1.392 . S
C1597 C1601 1.495 . S
C1598 C1597 1.392 . S
C1598 C1599 1.385 . S
C1598 C1600 1.478 . S
C1599 H1593 0.930 . S
C1599 C1595 1.400 . S
C1599 C1598 1.385 . S
C1600 C1598 1.478 . S
C1600 C1602 1.381 . S
C1600 C1606 1.383 . S
C1601 C1597 1.495 . S
C1601 H1607 0.959 . S
C1601 H1608 0.961 . S
C1601 H1609 0.960 . S
C1602 C1600 1.381 . S
C1602 C1603 1.394 . S
C1602 H1610 0.930 . S
C1603 C1602 1.394 . S
C1603 C1604 1.383 . S
C1603 H1611 0.929 . S
C1604 C1603 1.383 . S
C1604 C1605 1.377 . S
C1605 H1589 0.930 . S
C1605 C1604 1.377 . S
C1605 C1606 1.379 . S
C1606 H1590 0.931 . S
C1606 C1600 1.383 . S
C1606 C1605 1.379 . S
H1607 C1601 0.959 . S
H1608 C1601 0.961 . S
H1609 C1601 0.960 . S
H1610 C1602 0.930 . S
H1611 C1603 0.929 . S
H1612 C1620 0.929 . S
H1613 C1622 0.930 . S
H1614 C1624 0.930 . S
H1615 C1627 0.929 . S
H1616 C1630 0.930 . S
H1617 C1632 0.960 . S
H1618 C1632 0.960 . S
H1619 C1632 0.960 . S
C1620 H1612 0.929 . S
C1620 C1621 1.377 . S
C1620 C1622 1.384 . S
C1621 C1620 1.377 . S
C1621 C1627 1.390 . S
C1622 H1613 0.930 . S
C1622 C1620 1.384 . S
C1622 C1623 1.372 . S
C1623 C1622 1.372 . S
C1623 C1624 1.400 . S
C1623 C1628 1.490 . S
C1624 H1614 0.930 . S
C1624 C1623 1.400 . S
C1624 C1627 1.386 . S
H1625 C1641 0.930 . S
H1626 C1642 0.931 . S
C1627 H1615 0.929 . S
C1627 C1621 1.390 . S
C1627 C1624 1.386 . S
C1628 C1623 1.490 . S
C1628 C1630 1.395 . S
C1628 C1631 1.403 . S
H1629 C1635 0.930 . S
C1630 H1616 0.930 . S
C1630 C1628 1.395 . S
C1630 C1633 1.403 . S
C1631 C1628 1.403 . S
C1631 C1632 1.524 . S
C1631 C1635 1.400 . S
C1632 H1617 0.960 . S
C1632 H1618 0.960 . S
C1632 H1619 0.960 . S
C1632 C1631 1.524 . S
C1633 C1630 1.403 . S
C1633 C1634 1.392 . S
C1633 C1637 1.495 . S
C1634 C1633 1.392 . S
C1634 C1635 1.385 . S
C1634 C1636 1.478 . S
C1635 H1629 0.930 . S
C1635 C1631 1.400 . S
C1635 C1634 1.385 . S
C1636 C1634 1.478 . S
C1636 C1638 1.381 . S
C1636 C1642 1.383 . S
C1637 C1633 1.495 . S
C1637 H1643 0.959 . S
C1637 H1644 0.961 . S
C1637 H1645 0.960 . S
C1638 C1636 1.381 . S
C1638 C1639 1.394 . S
C1638 H1646 0.930 . S
C1639 C1638 1.394 . S
C1639 C1640 1.383 . S
C1639 H1647 0.929 . S
C1640 C1639 1.383 . S
C1640 C1641 1.377 . S
C1641 H1625 0.930 . S
C1641 C1640 1.377 . S
C1641 C1642 1.379 . S
C1642 H1626 0.931 . S
C1642 C1636 1.383 . S
C1642 C1641 1.379 . S
H1643 C1637 0.959 . S
H1644 C1637 0.961 . S
H1645 C1637 0.960 . S
H1646 C1638 0.930 . S
H1647 C1639 0.929 . S
H1648 C1656 0.929 . S
H1649 C1658 0.930 . S
H1650 C1660 0.930 . S
H1651 C1663 0.929 . S
H1652 C1666 0.930 . S
H1653 C1668 0.960 . S
H1654 C1668 0.960 . S
H1655 C1668 0.960 . S
C1656 H1648 0.929 . S
C1656 C1657 1.377 . S
C1656 C1658 1.384 . S
C1657 C1656 1.377 . S
C1657 C1663 1.390 . S
C1658 H1649 0.930 . S
C1658 C1656 1.384 . S
C1658 C1659 1.372 . S
C1659 C1658 1.372 . S
C1659 C1660 1.400 . S
C1659 C1664 1.490 . S
C1660 H1650 0.930 . S
C1660 C1659 1.400 . S
C1660 C1663 1.386 . S
H1661 C1677 0.930 . S
H1662 C1678 0.931 . S
C1663 H1651 0.929 . S
C1663 C1657 1.390 . S
C1663 C1660 1.386 . S
C1664 C1659 1.490 . S
C1664 C1666 1.395 . S
C1664 C1667 1.403 . S
H1665 C1671 0.930 1_554 S
C1666 H1652 0.930 . S
C1666 C1664 1.395 . S
C1666 C1669 1.403 1_655 S
C1667 C1664 1.403 . S
C1667 C1668 1.524 1_556 S
C1667 C1671 1.400 1_655 S
C1668 H1653 0.960 . S
C1668 H1654 0.960 . S
C1668 H1655 0.960 . S
C1668 C1667 1.524 1_554 S
C1669 C1666 1.403 1_455 S
C1669 C1670 1.392 . S
C1669 C1673 1.495 . S
C1670 C1669 1.392 . S
C1670 C1671 1.385 . S
C1670 C1672 1.478 . S
C1671 H1665 0.930 1_556 S
C1671 C1667 1.400 1_455 S
C1671 C1670 1.385 . S
C1672 C1670 1.478 . S
C1672 C1674 1.381 . S
C1672 C1678 1.383 . S
C1673 C1669 1.495 . S
C1673 H1679 0.959 . S
C1673 H1680 0.961 . S
C1673 H1681 0.960 . S
C1674 C1672 1.381 . S
C1674 C1675 1.394 . S
C1674 H1682 0.930 . S
C1675 C1674 1.394 . S
C1675 C1676 1.383 . S
C1675 H1683 0.929 . S
C1676 C1675 1.383 . S
C1676 C1677 1.377 . S
C1677 H1661 0.930 . S
C1677 C1676 1.377 . S
C1677 C1678 1.379 . S
C1678 H1662 0.931 . S
C1678 C1672 1.383 . S
C1678 C1677 1.379 . S
H1679 C1673 0.959 . S
H1680 C1673 0.961 . S
H1681 C1673 0.960 . S
H1682 C1674 0.930 . S
H1683 C1675 0.929 . S
H1684 C1692 0.929 . S
H1685 C1694 0.930 . S
H1686 C1696 0.930 . S
H1687 C1699 0.929 . S
H1688 C1702 0.930 . S
H1689 C1704 0.960 . S
H1690 C1704 0.960 . S
H1691 C1704 0.960 . S
C1692 H1684 0.929 . S
C1692 C1693 1.377 . S
C1692 C1694 1.384 . S
C1693 C1692 1.377 . S
C1693 C1699 1.390 . S
C1694 H1685 0.930 . S
C1694 C1692 1.384 . S
C1694 C1695 1.372 . S
C1695 C1694 1.372 . S
C1695 C1696 1.400 . S
C1695 C1700 1.490 . S
C1696 H1686 0.930 . S
C1696 C1695 1.400 . S
C1696 C1699 1.386 . S
H1697 C1713 0.930 . S
H1698 C1714 0.931 . S
C1699 H1687 0.929 . S
C1699 C1693 1.390 . S
C1699 C1696 1.386 . S
C1700 C1695 1.490 . S
C1700 C1702 1.395 . S
C1700 C1703 1.403 . S
H1701 C1707 0.930 . S
C1702 H1688 0.930 . S
C1702 C1700 1.395 . S
C1702 C1705 1.403 . S
C1703 C1700 1.403 . S
C1703 C1704 1.524 . S
C1703 C1707 1.400 . S
C1704 H1689 0.960 . S
C1704 H1690 0.960 . S
C1704 H1691 0.960 . S
C1704 C1703 1.524 . S
C1705 C1702 1.403 . S
C1705 C1706 1.392 . S
C1705 C1709 1.495 . S
C1706 C1705 1.392 . S
C1706 C1707 1.385 . S
C1706 C1708 1.478 . S
C1707 H1701 0.930 . S
C1707 C1703 1.400 . S
C1707 C1706 1.385 . S
C1708 C1706 1.478 . S
C1708 C1710 1.381 . S
C1708 C1714 1.383 . S
C1709 C1705 1.495 . S
C1709 H1715 0.959 . S
C1709 H1716 0.961 . S
C1709 H1717 0.960 . S
C1710 C1708 1.381 . S
C1710 C1711 1.394 . S
C1710 H1718 0.930 . S
C1711 C1710 1.394 . S
C1711 C1712 1.383 . S
C1711 H1719 0.929 . S
C1712 C1711 1.383 . S
C1712 C1713 1.377 . S
C1713 H1697 0.930 . S
C1713 C1712 1.377 . S
C1713 C1714 1.379 . S
C1714 H1698 0.931 . S
C1714 C1708 1.383 . S
C1714 C1713 1.379 . S
H1715 C1709 0.959 . S
H1716 C1709 0.961 . S
H1717 C1709 0.960 . S
H1718 C1710 0.930 . S
H1719 C1711 0.929 . S
H1720 C1728 0.929 . S
H1721 C1730 0.930 . S
H1722 C1732 0.930 . S
H1723 C1735 0.929 . S
H1724 C1738 0.930 . S
H1725 C1740 0.960 . S
H1726 C1740 0.960 . S
H1727 C1740 0.960 . S
C1728 H1720 0.929 . S
C1728 C1729 1.377 . S
C1728 C1730 1.384 . S
C1729 C1728 1.377 . S
C1729 C1735 1.390 . S
C1730 H1721 0.930 . S
C1730 C1728 1.384 . S
C1730 C1731 1.372 . S
C1731 C1730 1.372 . S
C1731 C1732 1.400 . S
C1731 C1736 1.490 . S
C1732 H1722 0.930 . S
C1732 C1731 1.400 . S
C1732 C1735 1.386 . S
H1733 C1749 0.930 . S
H1734 C1750 0.931 . S
C1735 H1723 0.929 . S
C1735 C1729 1.390 . S
C1735 C1732 1.386 . S
C1736 C1731 1.490 . S
C1736 C1738 1.395 . S
C1736 C1739 1.403 . S
H1737 C1743 0.930 . S
C1738 H1724 0.930 . S
C1738 C1736 1.395 . S
C1738 C1741 1.403 . S
C1739 C1736 1.403 . S
C1739 C1740 1.524 . S
C1739 C1743 1.400 . S
C1740 H1725 0.960 . S
C1740 H1726 0.960 . S
C1740 H1727 0.960 . S
C1740 C1739 1.524 . S
C1741 C1738 1.403 . S
C1741 C1742 1.392 . S
C1741 C1745 1.495 . S
C1742 C1741 1.392 . S
C1742 C1743 1.385 . S
C1742 C1744 1.478 . S
C1743 H1737 0.930 . S
C1743 C1739 1.400 . S
C1743 C1742 1.385 . S
C1744 C1742 1.478 . S
C1744 C1746 1.381 . S
C1744 C1750 1.383 . S
C1745 C1741 1.495 . S
C1745 H1751 0.959 . S
C1745 H1752 0.961 . S
C1745 H1753 0.960 . S
C1746 C1744 1.381 . S
C1746 C1747 1.394 . S
C1746 H1754 0.930 . S
C1747 C1746 1.394 . S
C1747 C1748 1.383 . S
C1747 H1755 0.929 . S
C1748 C1747 1.383 . S
C1748 C1749 1.377 . S
C1749 H1733 0.930 . S
C1749 C1748 1.377 . S
C1749 C1750 1.379 . S
C1750 H1734 0.931 . S
C1750 C1744 1.383 . S
C1750 C1749 1.379 . S
H1751 C1745 0.959 . S
H1752 C1745 0.961 . S
H1753 C1745 0.960 . S
H1754 C1746 0.930 . S
H1755 C1747 0.929 . S
H1756 C1764 0.929 . S
H1757 C1766 0.930 . S
H1758 C1768 0.930 . S
H1759 C1771 0.929 . S
H1760 C1774 0.930 . S
H1761 C1776 0.964 . S
H1762 C1776 0.960 . S
H1763 C1776 0.960 . S
C1764 H1756 0.929 . S
C1764 C1765 1.377 . S
C1764 C1766 1.384 . S
C1765 C1764 1.377 . S
C1765 C1771 1.390 . S
C1766 H1757 0.930 . S
C1766 C1764 1.384 . S
C1766 C1767 1.372 . S
C1767 C1766 1.372 . S
C1767 C1768 1.400 . S
C1767 C1772 1.490 . S
C1768 H1758 0.930 . S
C1768 C1767 1.400 . S
C1768 C1771 1.386 . S
H1769 C1785 0.930 . S
H1770 C1786 0.931 . S
C1771 H1759 0.929 . S
C1771 C1765 1.390 . S
C1771 C1768 1.386 . S
C1772 C1767 1.490 . S
C1772 C1774 1.395 . S
C1772 C1775 1.403 . S
H1773 C1779 0.930 . S
C1774 H1760 0.930 . S
C1774 C1772 1.395 . S
C1774 C1777 1.403 1_455 S
C1775 C1772 1.403 . S
C1775 C1776 1.524 . S
C1775 C1779 1.400 1_455 S
C1776 H1761 0.964 . S
C1776 H1762 0.960 . S
C1776 H1763 0.960 . S
C1776 C1775 1.524 . S
C1777 C1774 1.403 1_655 S
C1777 C1778 1.392 . S
C1777 C1781 1.495 . S
C1778 C1777 1.392 . S
C1778 C1779 1.385 . S
C1778 C1780 1.478 . S
C1779 H1773 0.930 . S
C1779 C1775 1.400 1_655 S
C1779 C1778 1.385 . S
C1780 C1778 1.478 . S
C1780 C1782 1.381 . S
C1780 C1786 1.383 . S
C1781 C1777 1.495 . S
C1781 H1787 0.959 . S
C1781 H1788 0.961 . S
C1781 H1789 0.960 . S
C1782 C1780 1.381 . S
C1782 C1783 1.394 . S
C1782 H1790 0.930 . S
C1783 C1782 1.394 . S
C1783 C1784 1.383 . S
C1783 H1791 0.929 . S
C1784 C1783 1.383 . S
C1784 C1785 1.377 . S
C1785 H1769 0.930 . S
C1785 C1784 1.377 . S
C1785 C1786 1.379 . S
C1786 H1770 0.931 . S
C1786 C1780 1.383 . S
C1786 C1785 1.379 . S
H1787 C1781 0.959 . S
H1788 C1781 0.961 . S
H1789 C1781 0.960 . S
H1790 C1782 0.930 . S
H1791 C1783 0.929 . S
H1792 C1800 0.929 . S
H1793 C1802 0.930 . S
H1794 C1804 0.930 . S
H1795 C1807 0.929 . S
H1796 C1810 0.930 . S
H1797 C1812 0.960 . S
H1798 C1812 0.960 . S
H1799 C1812 0.960 . S
C1800 H1792 0.929 . S
C1800 C1801 1.377 . S
C1800 C1802 1.384 . S
C1801 C1800 1.377 . S
C1801 C1807 1.390 . S
C1802 H1793 0.930 . S
C1802 C1800 1.384 . S
C1802 C1803 1.372 . S
C1803 C1802 1.372 . S
C1803 C1804 1.400 . S
C1803 C1808 1.490 . S
C1804 H1794 0.930 . S
C1804 C1803 1.400 . S
C1804 C1807 1.386 . S
H1805 C1821 0.930 . S
H1806 C1822 0.931 . S
C1807 H1795 0.929 . S
C1807 C1801 1.390 . S
C1807 C1804 1.386 . S
C1808 C1803 1.490 . S
C1808 C1810 1.395 . S
C1808 C1811 1.403 . S
H1809 C1815 0.930 . S
C1810 H1796 0.930 . S
C1810 C1808 1.395 . S
C1810 C1813 1.403 . S
C1811 C1808 1.403 . S
C1811 C1812 1.524 1_554 S
C1811 C1815 1.400 1_554 S
C1812 H1797 0.960 . S
C1812 H1798 0.960 . S
C1812 H1799 0.960 . S
C1812 C1811 1.524 1_556 S
C1813 C1810 1.403 . S
C1813 C1814 1.392 . S
C1813 C1817 1.495 . S
C1814 C1813 1.392 . S
C1814 C1815 1.385 1_554 S
C1814 C1816 1.478 . S
C1815 H1809 0.930 . S
C1815 C1811 1.400 1_556 S
C1815 C1814 1.385 1_556 S
C1816 C1814 1.478 . S
C1816 C1818 1.381 1_554 S
C1816 C1822 1.383 1_554 S
C1817 C1813 1.495 . S
C1817 H1823 0.959 . S
C1817 H1824 0.961 . S
C1817 H1825 0.960 . S
C1818 C1816 1.381 1_556 S
C1818 C1819 1.394 . S
C1818 H1826 0.930 1_556 S
C1819 C1818 1.394 . S
C1819 C1820 1.383 . S
C1819 H1827 0.929 . S
C1820 C1819 1.383 . S
C1820 C1821 1.377 . S
C1821 H1805 0.930 . S
C1821 C1820 1.377 . S
C1821 C1822 1.379 . S
C1822 H1806 0.931 . S
C1822 C1816 1.383 1_556 S
C1822 C1821 1.379 . S
H1823 C1817 0.959 . S
H1824 C1817 0.961 . S
H1825 C1817 0.960 . S
H1826 C1818 0.930 1_554 S
H1827 C1819 0.929 . S
H1828 C1836 0.929 . S
H1829 C1838 0.930 . S
H1830 C1840 0.930 . S
H1831 C1843 0.929 . S
H1832 C1846 0.930 . S
H1833 C1848 0.960 . S
H1834 C1848 0.960 . S
H1835 C1848 0.960 . S
C1836 H1828 0.929 . S
C1836 C1837 1.377 . S
C1836 C1838 1.384 . S
C1837 C1836 1.377 . S
C1837 C1843 1.390 . S
C1838 H1829 0.930 . S
C1838 C1836 1.384 . S
C1838 C1839 1.372 . S
C1839 C1838 1.372 . S
C1839 C1840 1.400 . S
C1839 C1844 1.490 . S
C1840 H1830 0.930 . S
C1840 C1839 1.400 . S
C1840 C1843 1.386 . S
H1841 C1857 0.930 . S
H1842 C1858 0.931 . S
C1843 H1831 0.929 . S
C1843 C1837 1.390 . S
C1843 C1840 1.386 . S
C1844 C1839 1.490 . S
C1844 C1846 1.395 . S
C1844 C1847 1.403 . S
H1845 C1851 0.930 . S
C1846 H1832 0.930 . S
C1846 C1844 1.395 . S
C1846 C1849 1.403 . S
C1847 C1844 1.403 . S
C1847 C1848 1.524 . S
C1847 C1851 1.400 . S
C1848 H1833 0.960 . S
C1848 H1834 0.960 . S
C1848 H1835 0.960 . S
C1848 C1847 1.524 . S
C1849 C1846 1.403 . S
C1849 C1850 1.392 . S
C1849 C1853 1.495 . S
C1850 C1849 1.392 . S
C1850 C1851 1.385 . S
C1850 C1852 1.478 . S
C1851 H1845 0.930 . S
C1851 C1847 1.400 . S
C1851 C1850 1.385 . S
C1852 C1850 1.478 . S
C1852 C1854 1.381 . S
C1852 C1858 1.383 . S
C1853 C1849 1.495 . S
C1853 H1859 0.959 . S
C1853 H1860 0.961 . S
C1853 H1861 0.960 . S
C1854 C1852 1.381 . S
C1854 C1855 1.394 . S
C1854 H1862 0.930 . S
C1855 C1854 1.394 . S
C1855 C1856 1.383 . S
C1855 H1863 0.929 . S
C1856 C1855 1.383 . S
C1856 C1857 1.377 . S
C1857 H1841 0.930 . S
C1857 C1856 1.377 . S
C1857 C1858 1.379 . S
C1858 H1842 0.931 . S
C1858 C1852 1.383 . S
C1858 C1857 1.379 . S
H1859 C1853 0.959 . S
H1860 C1853 0.961 . S
H1861 C1853 0.960 . S
H1862 C1854 0.930 . S
H1863 C1855 0.929 . S
H1864 C1872 0.929 . S
H1865 C1874 0.930 . S
H1866 C1876 0.930 . S
H1867 C1879 0.929 . S
H1868 C1882 0.930 . S
H1869 C1884 0.960 . S
H1870 C1884 0.960 . S
H1871 C1884 0.960 . S
C1872 H1864 0.929 . S
C1872 C1873 1.377 . S
C1872 C1874 1.384 . S
C1873 C1872 1.377 . S
C1873 C1879 1.390 . S
C1874 H1865 0.930 . S
C1874 C1872 1.384 . S
C1874 C1875 1.372 . S
C1875 C1874 1.372 . S
C1875 C1876 1.400 . S
C1875 C1880 1.490 . S
C1876 H1866 0.930 . S
C1876 C1875 1.400 . S
C1876 C1879 1.386 . S
H1877 C1893 0.930 . S
H1878 C1894 0.931 . S
C1879 H1867 0.929 . S
C1879 C1873 1.390 . S
C1879 C1876 1.386 . S
C1880 C1875 1.490 . S
C1880 C1882 1.395 . S
C1880 C1883 1.403 . S
H1881 C1887 0.930 . S
C1882 H1868 0.930 . S
C1882 C1880 1.395 . S
C1882 C1885 1.403 . S
C1883 C1880 1.403 . S
C1883 C1884 1.524 . S
C1883 C1887 1.400 . S
C1884 H1869 0.960 . S
C1884 H1870 0.960 . S
C1884 H1871 0.960 . S
C1884 C1883 1.524 . S
C1885 C1882 1.403 . S
C1885 C1886 1.392 . S
C1885 C1889 1.495 . S
C1886 C1885 1.392 . S
C1886 C1887 1.385 . S
C1886 C1888 1.478 . S
C1887 H1881 0.930 . S
C1887 C1883 1.400 . S
C1887 C1886 1.385 . S
C1888 C1886 1.478 . S
C1888 C1890 1.381 . S
C1888 C1894 1.383 . S
C1889 C1885 1.495 . S
C1889 H1895 0.959 . S
C1889 H1896 0.961 . S
C1889 H1897 0.960 . S
C1890 C1888 1.381 . S
C1890 C1891 1.394 . S
C1890 H1898 0.930 . S
C1891 C1890 1.394 . S
C1891 C1892 1.383 . S
C1891 H1899 0.929 . S
C1892 C1891 1.383 . S
C1892 C1893 1.377 . S
C1893 H1877 0.930 . S
C1893 C1892 1.377 . S
C1893 C1894 1.379 . S
C1894 H1878 0.931 . S
C1894 C1888 1.383 . S
C1894 C1893 1.379 . S
H1895 C1889 0.959 . S
H1896 C1889 0.961 . S
H1897 C1889 0.960 . S
H1898 C1890 0.930 . S
H1899 C1891 0.929 . S
H1900 C1908 0.929 . S
H1901 C1910 0.930 . S
H1902 C1912 0.930 . S
H1903 C1915 0.929 . S
H1904 C1918 0.930 . S
H1905 C1920 0.960 . S
H1906 C1920 0.960 . S
H1907 C1920 0.960 . S
C1908 H1900 0.929 . S
C1908 C1909 1.377 . S
C1908 C1910 1.384 . S
C1909 C1908 1.377 . S
C1909 C1915 1.390 . S
C1910 H1901 0.930 . S
C1910 C1908 1.384 . S
C1910 C1911 1.372 . S
C1911 C1910 1.372 . S
C1911 C1912 1.400 . S
C1911 C1916 1.490 . S
C1912 H1902 0.930 . S
C1912 C1911 1.400 . S
C1912 C1915 1.386 . S
H1913 C1929 0.930 . S
H1914 C1930 0.931 . S
C1915 H1903 0.929 . S
C1915 C1909 1.390 . S
C1915 C1912 1.386 . S
C1916 C1911 1.490 . S
C1916 C1918 1.395 . S
C1916 C1919 1.403 . S
H1917 C1923 0.930 . S
C1918 H1904 0.930 . S
C1918 C1916 1.395 . S
C1918 C1921 1.403 . S
C1919 C1916 1.403 . S
C1919 C1920 1.524 . S
C1919 C1923 1.400 . S
C1920 H1905 0.960 . S
C1920 H1906 0.960 . S
C1920 H1907 0.960 . S
C1920 C1919 1.524 . S
C1921 C1918 1.403 . S
C1921 C1922 1.392 . S
C1921 C1925 1.495 . S
C1922 C1921 1.392 . S
C1922 C1923 1.385 . S
C1922 C1924 1.478 . S
C1923 H1917 0.930 . S
C1923 C1919 1.400 . S
C1923 C1922 1.385 . S
C1924 C1922 1.478 . S
C1924 C1926 1.381 . S
C1924 C1930 1.383 . S
C1925 C1921 1.495 . S
C1925 H1931 0.959 . S
C1925 H1932 0.961 . S
C1925 H1933 0.960 . S
C1926 C1924 1.381 . S
C1926 C1927 1.394 . S
C1926 H1934 0.930 . S
C1927 C1926 1.394 . S
C1927 C1928 1.383 . S
C1927 H1935 0.929 . S
C1928 C1927 1.383 . S
C1928 C1929 1.377 . S
C1929 H1913 0.930 . S
C1929 C1928 1.377 . S
C1929 C1930 1.379 . S
C1930 H1914 0.931 . S
C1930 C1924 1.383 . S
C1930 C1929 1.379 . S
H1931 C1925 0.959 . S
H1932 C1925 0.961 . S
H1933 C1925 0.960 . S
H1934 C1926 0.930 . S
H1935 C1927 0.929 . S
H1936 C1944 0.929 . S
H1937 C1946 0.930 . S
H1938 C1948 0.930 . S
H1939 C1951 0.929 . S
H1940 C1954 0.930 . S
H1941 C1956 0.960 . S
H1942 C1956 0.960 . S
H1943 C1956 0.960 . S
C1944 H1936 0.929 . S
C1944 C1945 1.377 . S
C1944 C1946 1.384 . S
C1945 C1944 1.377 . S
C1945 C1951 1.390 . S
C1946 H1937 0.930 . S
C1946 C1944 1.384 . S
C1946 C1947 1.372 . S
C1947 C1946 1.372 . S
C1947 C1948 1.400 . S
C1947 C1952 1.490 . S
C1948 H1938 0.930 . S
C1948 C1947 1.400 . S
C1948 C1951 1.386 . S
H1949 C1965 0.930 . S
H1950 C1966 0.931 . S
C1951 H1939 0.929 . S
C1951 C1945 1.390 . S
C1951 C1948 1.386 . S
C1952 C1947 1.490 . S
C1952 C1954 1.395 . S
C1952 C1955 1.403 1_554 S
H1953 C1959 0.930 . S
C1954 H1940 0.930 . S
C1954 C1952 1.395 . S
C1954 C1957 1.403 . S
C1955 C1952 1.403 1_556 S
C1955 C1956 1.524 . S
C1955 C1959 1.400 . S
C1956 H1941 0.960 . S
C1956 H1942 0.960 . S
C1956 H1943 0.960 . S
C1956 C1955 1.524 . S
C1957 C1954 1.403 . S
C1957 C1958 1.392 1_554 S
C1957 C1961 1.495 . S
C1958 C1957 1.392 1_556 S
C1958 C1959 1.385 . S
C1958 C1960 1.478 . S
C1959 H1953 0.930 . S
C1959 C1955 1.400 . S
C1959 C1958 1.385 . S
C1960 C1958 1.478 . S
C1960 C1962 1.381 . S
C1960 C1966 1.383 . S
C1961 C1957 1.495 . S
C1961 H1967 0.959 . S
C1961 H1968 0.961 . S
C1961 H1969 0.960 . S
C1962 C1960 1.381 . S
C1962 C1963 1.394 . S
C1962 H1970 0.930 . S
C1963 C1962 1.394 . S
C1963 C1964 1.383 . S
C1963 H1971 0.929 . S
C1964 C1963 1.383 . S
C1964 C1965 1.377 . S
C1965 H1949 0.930 . S
C1965 C1964 1.377 . S
C1965 C1966 1.379 . S
C1966 H1950 0.931 . S
C1966 C1960 1.383 . S
C1966 C1965 1.379 . S
H1967 C1961 0.959 . S
H1968 C1961 0.961 . S
H1969 C1961 0.960 . S
H1970 C1962 0.930 . S
H1971 C1963 0.929 . S
H1972 C1980 0.929 . S
H1973 C1982 0.930 . S
H1974 C1984 0.930 . S
H1975 C1987 0.929 . S
H1976 C1990 0.930 . S
H1977 C1992 0.960 . S
H1978 C1992 0.960 . S
H1979 C1992 0.960 . S
C1980 H1972 0.929 . S
C1980 C1981 1.377 . S
C1980 C1982 1.384 . S
C1981 C1980 1.377 . S
C1981 C1987 1.390 . S
C1982 H1973 0.930 . S
C1982 C1980 1.384 . S
C1982 C1983 1.372 . S
C1983 C1982 1.372 . S
C1983 C1984 1.400 . S
C1983 C1988 1.490 . S
C1984 H1974 0.930 . S
C1984 C1983 1.400 . S
C1984 C1987 1.386 . S
H1985 C2001 0.930 . S
H1986 C2002 0.931 . S
C1987 H1975 0.929 . S
C1987 C1981 1.390 . S
C1987 C1984 1.386 . S
C1988 C1983 1.490 . S
C1988 C1990 1.395 . S
C1988 C1991 1.403 . S
H1989 C1995 0.930 . S
C1990 H1976 0.930 . S
C1990 C1988 1.395 . S
C1990 C1993 1.403 . S
C1991 C1988 1.403 . S
C1991 C1992 1.524 . S
C1991 C1995 1.400 . S
C1992 H1977 0.960 . S
C1992 H1978 0.960 . S
C1992 H1979 0.960 . S
C1992 C1991 1.524 . S
C1993 C1990 1.403 . S
C1993 C1994 1.392 . S
C1993 C1997 1.495 . S
C1994 C1993 1.392 . S
C1994 C1995 1.385 . S
C1994 C1996 1.478 . S
C1995 H1989 0.930 . S
C1995 C1991 1.400 . S
C1995 C1994 1.385 . S
C1996 C1994 1.478 . S
C1996 C1998 1.381 . S
C1996 C2002 1.383 . S
C1997 C1993 1.495 . S
C1997 H2003 0.959 . S
C1997 H2004 0.961 . S
C1997 H2005 0.960 . S
C1998 C1996 1.381 . S
C1998 C1999 1.394 . S
C1998 H2006 0.930 . S
C1999 C1998 1.394 . S
C1999 C2000 1.383 . S
C1999 H2007 0.929 . S
C2000 C1999 1.383 . S
C2000 C2001 1.377 . S
C2001 H1985 0.930 . S
C2001 C2000 1.377 . S
C2001 C2002 1.379 . S
C2002 H1986 0.931 . S
C2002 C1996 1.383 . S
C2002 C2001 1.379 . S
H2003 C1997 0.959 . S
H2004 C1997 0.961 . S
H2005 C1997 0.960 . S
H2006 C1998 0.930 . S
H2007 C1999 0.929 . S
H2008 C2016 0.929 . S
H2009 C2018 0.930 . S
H2010 C2020 0.930 . S
H2011 C2023 0.929 . S
H2012 C2026 0.930 . S
H2013 C2028 0.960 . S
H2014 C2028 0.960 . S
H2015 C2028 0.960 . S
C2016 H2008 0.929 . S
C2016 C2017 1.377 . S
C2016 C2018 1.384 . S
C2017 C2016 1.377 . S
C2017 C2023 1.390 . S
C2018 H2009 0.930 . S
C2018 C2016 1.384 . S
C2018 C2019 1.372 . S
C2019 C2018 1.372 . S
C2019 C2020 1.400 . S
C2019 C2024 1.490 . S
C2020 H2010 0.930 . S
C2020 C2019 1.400 . S
C2020 C2023 1.386 . S
H2021 C2037 0.930 . S
H2022 C2038 0.931 . S
C2023 H2011 0.929 . S
C2023 C2017 1.390 . S
C2023 C2020 1.386 . S
C2024 C2019 1.490 . S
C2024 C2026 1.395 . S
C2024 C2027 1.403 . S
H2025 C2031 0.930 . S
C2026 H2012 0.930 . S
C2026 C2024 1.395 . S
C2026 C2029 1.403 . S
C2027 C2024 1.403 . S
C2027 C2028 1.524 . S
C2027 C2031 1.400 . S
C2028 H2013 0.960 . S
C2028 H2014 0.960 . S
C2028 H2015 0.960 . S
C2028 C2027 1.524 . S
C2029 C2026 1.403 . S
C2029 C2030 1.392 . S
C2029 C2033 1.495 . S
C2030 C2029 1.392 . S
C2030 C2031 1.385 . S
C2030 C2032 1.478 . S
C2031 H2025 0.930 . S
C2031 C2027 1.400 . S
C2031 C2030 1.385 . S
C2032 C2030 1.478 . S
C2032 C2034 1.381 . S
C2032 C2038 1.383 . S
C2033 C2029 1.495 . S
C2033 H2039 0.959 . S
C2033 H2040 0.961 . S
C2033 H2041 0.960 . S
C2034 C2032 1.381 . S
C2034 C2035 1.394 . S
C2034 H2042 0.930 . S
C2035 C2034 1.394 . S
C2035 C2036 1.383 . S
C2035 H2043 0.929 . S
C2036 C2035 1.383 . S
C2036 C2037 1.377 . S
C2037 H2021 0.930 . S
C2037 C2036 1.377 . S
C2037 C2038 1.379 . S
C2038 H2022 0.931 . S
C2038 C2032 1.383 . S
C2038 C2037 1.379 . S
H2039 C2033 0.959 . S
H2040 C2033 0.961 . S
H2041 C2033 0.960 . S
H2042 C2034 0.930 . S
H2043 C2035 0.929 . S
H2044 C2052 0.929 . S
H2045 C2054 0.930 . S
H2046 C2056 0.930 . S
H2047 C2059 0.929 . S
H2048 C2062 0.930 . S
H2049 C2064 0.960 . S
H2050 C2064 0.960 . S
H2051 C2064 0.960 . S
C2052 H2044 0.929 . S
C2052 C2053 1.377 . S
C2052 C2054 1.384 . S
C2053 C2052 1.377 . S
C2053 C2059 1.390 . S
C2054 H2045 0.930 . S
C2054 C2052 1.384 . S
C2054 C2055 1.372 . S
C2055 C2054 1.372 . S
C2055 C2056 1.400 . S
C2055 C2060 1.490 . S
C2056 H2046 0.930 . S
C2056 C2055 1.400 . S
C2056 C2059 1.386 . S
H2057 C2073 0.930 . S
H2058 C2074 0.931 . S
C2059 H2047 0.929 . S
C2059 C2053 1.390 . S
C2059 C2056 1.386 . S
C2060 C2055 1.490 . S
C2060 C2062 1.395 . S
C2060 C2063 1.403 . S
H2061 C2067 0.930 . S
C2062 H2048 0.930 . S
C2062 C2060 1.395 . S
C2062 C2065 1.403 . S
C2063 C2060 1.403 . S
C2063 C2064 1.524 . S
C2063 C2067 1.400 . S
C2064 H2049 0.960 . S
C2064 H2050 0.960 . S
C2064 H2051 0.960 . S
C2064 C2063 1.524 . S
C2065 C2062 1.403 . S
C2065 C2066 1.392 . S
C2065 C2069 1.495 . S
C2066 C2065 1.392 . S
C2066 C2067 1.385 . S
C2066 C2068 1.478 . S
C2067 H2061 0.930 . S
C2067 C2063 1.400 . S
C2067 C2066 1.385 . S
C2068 C2066 1.478 . S
C2068 C2070 1.381 . S
C2068 C2074 1.383 . S
C2069 C2065 1.495 . S
C2069 H2075 0.959 . S
C2069 H2076 0.961 . S
C2069 H2077 0.960 . S
C2070 C2068 1.381 . S
C2070 C2071 1.394 . S
C2070 H2078 0.930 . S
C2071 C2070 1.394 . S
C2071 C2072 1.383 . S
C2071 H2079 0.929 . S
C2072 C2071 1.383 . S
C2072 C2073 1.377 . S
C2073 H2057 0.930 . S
C2073 C2072 1.377 . S
C2073 C2074 1.379 . S
C2074 H2058 0.931 . S
C2074 C2068 1.383 . S
C2074 C2073 1.379 . S
H2075 C2069 0.959 . S
H2076 C2069 0.961 . S
H2077 C2069 0.960 . S
H2078 C2070 0.930 . S
H2079 C2071 0.929 . S
H2080 C2088 0.929 . S
H2081 C2090 0.930 . S
H2082 C2092 0.930 . S
H2083 C2095 0.929 . S
H2084 C2098 0.930 . S
H2085 C2100 0.960 . S
H2086 C2100 0.960 . S
H2087 C2100 0.960 . S
C2088 H2080 0.929 . S
C2088 C2089 1.377 . S
C2088 C2090 1.384 . S
C2089 C2088 1.377 . S
C2089 C2095 1.390 . S
C2090 H2081 0.930 . S
C2090 C2088 1.384 . S
C2090 C2091 1.372 . S
C2091 C2090 1.372 . S
C2091 C2092 1.400 . S
C2091 C2096 1.490 . S
C2092 H2082 0.930 . S
C2092 C2091 1.400 . S
C2092 C2095 1.386 . S
H2093 C2109 0.930 . S
H2094 C2110 0.931 . S
C2095 H2083 0.929 . S
C2095 C2089 1.390 . S
C2095 C2092 1.386 . S
C2096 C2091 1.490 . S
C2096 C2098 1.395 . S
C2096 C2099 1.403 . S
H2097 C2103 0.930 . S
C2098 H2084 0.930 . S
C2098 C2096 1.395 . S
C2098 C2101 1.403 1_565 S
C2099 C2096 1.403 . S
C2099 C2100 1.524 . S
C2099 C2103 1.400 1_565 S
C2100 H2085 0.960 . S
C2100 H2086 0.960 . S
C2100 H2087 0.960 . S
C2100 C2099 1.524 . S
C2101 C2098 1.403 1_545 S
C2101 C2102 1.392 . S
C2101 C2105 1.495 . S
C2102 C2101 1.392 . S
C2102 C2103 1.385 . S
C2102 C2104 1.478 . S
C2103 H2097 0.930 . S
C2103 C2099 1.400 1_545 S
C2103 C2102 1.385 . S
C2104 C2102 1.478 . S
C2104 C2106 1.381 . S
C2104 C2110 1.383 . S
C2105 C2101 1.495 . S
C2105 H2111 0.959 . S
C2105 H2112 0.961 . S
C2105 H2113 0.960 . S
C2106 C2104 1.381 . S
C2106 C2107 1.394 . S
C2106 H2114 0.930 . S
C2107 C2106 1.394 . S
C2107 C2108 1.383 . S
C2107 H2115 0.929 . S
C2108 C2107 1.383 . S
C2108 C2109 1.377 . S
C2109 H2093 0.930 . S
C2109 C2108 1.377 . S
C2109 C2110 1.379 . S
C2110 H2094 0.931 . S
C2110 C2104 1.383 . S
C2110 C2109 1.379 . S
H2111 C2105 0.959 . S
H2112 C2105 0.961 . S
H2113 C2105 0.960 . S
H2114 C2106 0.930 . S
H2115 C2107 0.929 . S
H2116 C2124 0.929 . S
H2117 C2126 0.930 . S
H2118 C2128 0.930 . S
H2119 C2131 0.929 . S
H2120 C2134 0.930 . S
H2121 C2136 0.960 . S
H2122 C2136 0.960 . S
H2123 C2136 0.960 . S
C2124 H2116 0.929 . S
C2124 C2125 1.377 . S
C2124 C2126 1.384 . S
C2125 C2124 1.377 . S
C2125 C2131 1.390 . S
C2126 H2117 0.930 . S
C2126 C2124 1.384 . S
C2126 C2127 1.372 . S
C2127 C2126 1.372 . S
C2127 C2128 1.400 . S
C2127 C2132 1.490 . S
C2128 H2118 0.930 . S
C2128 C2127 1.400 . S
C2128 C2131 1.386 . S
H2129 C2145 0.930 . S
H2130 C2146 0.931 . S
C2131 H2119 0.929 . S
C2131 C2125 1.390 . S
C2131 C2128 1.386 . S
C2132 C2127 1.490 . S
C2132 C2134 1.395 . S
C2132 C2135 1.403 . S
H2133 C2139 0.930 . S
C2134 H2120 0.930 . S
C2134 C2132 1.395 . S
C2134 C2137 1.403 . S
C2135 C2132 1.403 . S
C2135 C2136 1.524 . S
C2135 C2139 1.400 . S
C2136 H2121 0.960 . S
C2136 H2122 0.960 . S
C2136 H2123 0.960 . S
C2136 C2135 1.524 . S
C2137 C2134 1.403 . S
C2137 C2138 1.392 . S
C2137 C2141 1.495 . S
C2138 C2137 1.392 . S
C2138 C2139 1.385 . S
C2138 C2140 1.478 . S
C2139 H2133 0.930 . S
C2139 C2135 1.400 . S
C2139 C2138 1.385 . S
C2140 C2138 1.478 . S
C2140 C2142 1.381 . S
C2140 C2146 1.383 . S
C2141 C2137 1.495 . S
C2141 H2147 0.959 . S
C2141 H2148 0.961 . S
C2141 H2149 0.960 . S
C2142 C2140 1.381 . S
C2142 C2143 1.394 . S
C2142 H2150 0.930 . S
C2143 C2142 1.394 . S
C2143 C2144 1.383 . S
C2143 H2151 0.929 . S
C2144 C2143 1.383 . S
C2144 C2145 1.377 . S
C2145 H2129 0.930 . S
C2145 C2144 1.377 . S
C2145 C2146 1.379 . S
C2146 H2130 0.931 . S
C2146 C2140 1.383 . S
C2146 C2145 1.379 . S
H2147 C2141 0.959 . S
H2148 C2141 0.961 . S
H2149 C2141 0.960 . S
H2150 C2142 0.930 . S
H2151 C2143 0.929 . S
H2152 C2160 0.929 . S
H2153 C2162 0.930 1_556 S
H2154 C2164 0.930 . S
H2155 C2167 0.929 . S
H2156 C2170 0.930 . S
H2157 C2172 0.960 1_545 S
H2158 C2172 0.960 . S
H2159 C2172 0.960 . S
C2160 H2152 0.929 . S
C2160 C2161 1.377 . S
C2160 C2162 1.384 . S
C2161 C2160 1.377 . S
C2161 C2167 1.390 . S
C2162 H2153 0.930 1_554 S
C2162 C2160 1.384 . S
C2162 C2163 1.372 . S
C2163 C2162 1.372 . S
C2163 C2164 1.400 . S
C2163 C2168 1.490 . S
C2164 H2154 0.930 . S
C2164 C2163 1.400 . S
C2164 C2167 1.386 . S
H2165 C2181 0.930 . S
H2166 C2182 0.931 1_554 S
C2167 H2155 0.929 . S
C2167 C2161 1.390 . S
C2167 C2164 1.386 . S
C2168 C2163 1.490 . S
C2168 C2170 1.395 1_554 S
C2168 C2171 1.403 . S
H2169 C2175 0.930 1_554 S
C2170 H2156 0.930 . S
C2170 C2168 1.395 1_556 S
C2170 C2173 1.393 1_565 S
C2171 C2168 1.403 . S
C2171 C2172 1.524 . S
C2171 C2175 1.400 1_564 S
C2172 H2157 0.960 1_565 S
C2172 H2158 0.960 . S
C2172 H2159 0.960 . S
C2172 C2171 1.524 . S
C2173 C2170 1.393 1_545 S
C2173 C2174 1.400 . S
C2173 C2177 1.498 . S
C2174 C2173 1.400 . S
C2174 C2175 1.385 . S
C2174 C2176 1.478 . S
C2175 H2169 0.930 1_556 S
C2175 C2171 1.400 1_546 S
C2175 C2174 1.385 . S
C2176 C2174 1.478 . S
C2176 C2178 1.381 . S
C2176 C2182 1.383 . S
C2177 C2173 1.498 . S
C2177 H2183 0.959 1_545 S
C2177 H2184 0.961 . S
C2177 H2185 0.960 . S
C2178 C2176 1.381 . S
C2178 C2179 1.394 . S
C2178 H2186 0.930 . S
C2179 C2178 1.394 . S
C2179 C2180 1.383 . S
C2179 H2187 0.929 . S
C2180 C2179 1.383 . S
C2180 C2181 1.377 . S
C2181 H2165 0.930 . S
C2181 C2180 1.377 . S
C2181 C2182 1.379 . S
C2182 H2166 0.931 1_556 S
C2182 C2176 1.383 . S
C2182 C2181 1.379 . S
H2183 C2177 0.959 1_565 S
H2184 C2177 0.961 . S
H2185 C2177 0.960 . S
H2186 C2178 0.930 . S
H2187 C2179 0.929 . S
H2188 C2196 0.929 . S
H2189 C2198 0.930 . S
H2190 C2200 0.930 . S
H2191 C2203 0.929 . S
H2192 C2206 0.930 . S
H2193 C2208 0.960 . S
H2194 C2208 0.960 . S
H2195 C2208 0.960 . S
C2196 H2188 0.929 . S
C2196 C2197 1.377 . S
C2196 C2198 1.384 . S
C2197 C2196 1.377 . S
C2197 C2203 1.390 . S
C2198 H2189 0.930 . S
C2198 C2196 1.384 . S
C2198 C2199 1.372 . S
C2199 C2198 1.372 . S
C2199 C2200 1.400 . S
C2199 C2204 1.490 . S
C2200 H2190 0.930 . S
C2200 C2199 1.400 . S
C2200 C2203 1.386 . S
H2201 C2217 0.930 . S
H2202 C2218 0.931 . S
C2203 H2191 0.929 . S
C2203 C2197 1.390 . S
C2203 C2200 1.386 . S
C2204 C2199 1.490 . S
C2204 C2206 1.395 . S
C2204 C2207 1.403 . S
H2205 C2211 0.930 . S
C2206 H2192 0.930 . S
C2206 C2204 1.395 . S
C2206 C2209 1.403 . S
C2207 C2204 1.403 . S
C2207 C2208 1.524 . S
C2207 C2211 1.400 . S
C2208 H2193 0.960 . S
C2208 H2194 0.960 . S
C2208 H2195 0.960 . S
C2208 C2207 1.524 . S
C2209 C2206 1.403 . S
C2209 C2210 1.392 . S
C2209 C2213 1.495 . S
C2210 C2209 1.392 . S
C2210 C2211 1.385 . S
C2210 C2212 1.478 . S
C2211 H2205 0.930 . S
C2211 C2207 1.400 . S
C2211 C2210 1.385 . S
C2212 C2210 1.478 . S
C2212 C2214 1.381 . S
C2212 C2218 1.383 . S
C2213 C2209 1.495 . S
C2213 H2219 0.959 . S
C2213 H2220 0.961 . S
C2213 H2221 0.960 . S
C2214 C2212 1.381 . S
C2214 C2215 1.394 . S
C2214 H2222 0.930 . S
C2215 C2214 1.394 . S
C2215 C2216 1.383 . S
C2215 H2223 0.929 . S
C2216 C2215 1.383 . S
C2216 C2217 1.377 . S
C2217 H2201 0.930 . S
C2217 C2216 1.377 . S
C2217 C2218 1.379 . S
C2218 H2202 0.931 . S
C2218 C2212 1.383 . S
C2218 C2217 1.379 . S
H2219 C2213 0.959 . S
H2220 C2213 0.961 . S
H2221 C2213 0.960 . S
H2222 C2214 0.930 . S
H2223 C2215 0.929 . S
H2224 C2232 0.929 . S
H2225 C2234 0.930 . S
H2226 C2236 0.930 . S
H2227 C2239 0.929 . S
H2228 C2242 0.930 . S
H2229 C2244 0.960 . S
H2230 C2244 0.960 . S
H2231 C2244 0.960 . S
C2232 H2224 0.929 . S
C2232 C2233 1.377 . S
C2232 C2234 1.384 . S
C2233 C2232 1.377 . S
C2233 C2239 1.390 . S
C2234 H2225 0.930 . S
C2234 C2232 1.384 . S
C2234 C2235 1.372 . S
C2235 C2234 1.372 . S
C2235 C2236 1.400 . S
C2235 C2240 1.490 . S
C2236 H2226 0.930 . S
C2236 C2235 1.400 . S
C2236 C2239 1.386 . S
H2237 C2253 0.930 . S
H2238 C2254 0.931 . S
C2239 H2227 0.929 . S
C2239 C2233 1.390 . S
C2239 C2236 1.386 . S
C2240 C2235 1.490 . S
C2240 C2242 1.395 . S
C2240 C2243 1.403 . S
H2241 C2247 0.930 . S
C2242 H2228 0.930 . S
C2242 C2240 1.395 . S
C2242 C2245 1.403 1_565 S
C2243 C2240 1.403 . S
C2243 C2244 1.524 . S
C2243 C2247 1.400 1_565 S
C2244 H2229 0.960 . S
C2244 H2230 0.960 . S
C2244 H2231 0.960 . S
C2244 C2243 1.524 . S
C2245 C2242 1.403 1_545 S
C2245 C2246 1.392 . S
C2245 C2249 1.495 . S
C2246 C2245 1.392 . S
C2246 C2247 1.385 . S
C2246 C2248 1.478 . S
C2247 H2241 0.930 . S
C2247 C2243 1.400 1_545 S
C2247 C2246 1.385 . S
C2248 C2246 1.478 . S
C2248 C2250 1.381 . S
C2248 C2254 1.383 . S
C2249 C2245 1.495 . S
C2249 H2255 0.959 . S
C2249 H2256 0.961 . S
C2249 H2257 0.960 . S
C2250 C2248 1.381 . S
C2250 C2251 1.394 . S
C2250 H2258 0.930 . S
C2251 C2250 1.394 . S
C2251 C2252 1.383 . S
C2251 H2259 0.929 . S
C2252 C2251 1.383 . S
C2252 C2253 1.377 . S
C2253 H2237 0.930 . S
C2253 C2252 1.377 . S
C2253 C2254 1.379 . S
C2254 H2238 0.931 . S
C2254 C2248 1.383 . S
C2254 C2253 1.379 . S
H2255 C2249 0.959 . S
H2256 C2249 0.961 . S
H2257 C2249 0.960 . S
H2258 C2250 0.930 . S
H2259 C2251 0.929 . S
H2260 C2268 0.929 . S
H2261 C2270 0.930 . S
H2262 C2272 0.930 . S
H2263 C2275 0.929 . S
H2264 C2278 0.930 . S
H2265 C2280 0.960 . S
H2266 C2280 0.960 . S
H2267 C2280 0.960 . S
C2268 H2260 0.929 . S
C2268 C2269 1.377 . S
C2268 C2270 1.384 . S
C2269 C2268 1.377 . S
C2269 C2275 1.390 . S
C2270 H2261 0.930 . S
C2270 C2268 1.384 . S
C2270 C2271 1.372 . S
C2271 C2270 1.372 . S
C2271 C2272 1.400 . S
C2271 C2276 1.490 . S
C2272 H2262 0.930 . S
C2272 C2271 1.400 . S
C2272 C2275 1.386 . S
H2273 C2289 0.930 . S
H2274 C2290 0.931 . S
C2275 H2263 0.929 . S
C2275 C2269 1.390 . S
C2275 C2272 1.386 . S
C2276 C2271 1.490 . S
C2276 C2278 1.395 . S
C2276 C2279 1.403 . S
H2277 C2283 0.930 . S
C2278 H2264 0.930 . S
C2278 C2276 1.395 . S
C2278 C2281 1.403 . S
C2279 C2276 1.403 . S
C2279 C2280 1.524 . S
C2279 C2283 1.400 . S
C2280 H2265 0.960 . S
C2280 H2266 0.960 . S
C2280 H2267 0.960 . S
C2280 C2279 1.524 . S
C2281 C2278 1.403 . S
C2281 C2282 1.392 . S
C2281 C2285 1.495 . S
C2282 C2281 1.392 . S
C2282 C2283 1.385 . S
C2282 C2284 1.478 . S
C2283 H2277 0.930 . S
C2283 C2279 1.400 . S
C2283 C2282 1.385 . S
C2284 C2282 1.478 . S
C2284 C2286 1.381 . S
C2284 C2290 1.383 . S
C2285 C2281 1.495 . S
C2285 H2291 0.959 . S
C2285 H2292 0.961 . S
C2285 H2293 0.960 . S
C2286 C2284 1.381 . S
C2286 C2287 1.394 . S
C2286 H2294 0.930 . S
C2287 C2286 1.394 . S
C2287 C2288 1.383 . S
C2287 H2295 0.929 . S
C2288 C2287 1.383 . S
C2288 C2289 1.377 . S
C2289 H2273 0.930 . S
C2289 C2288 1.377 . S
C2289 C2290 1.379 . S
C2290 H2274 0.931 . S
C2290 C2284 1.383 . S
C2290 C2289 1.379 . S
H2291 C2285 0.959 . S
H2292 C2285 0.961 . S
H2293 C2285 0.960 . S
H2294 C2286 0.930 . S
H2295 C2287 0.929 . S
H2296 C2304 0.929 . S
H2297 C2306 0.930 . S
H2298 C2308 0.930 . S
H2299 C2311 0.929 . S
H2300 C2314 0.941 . S
H2301 C2316 0.960 . S
H2302 C2316 0.960 . S
H2303 C2316 0.960 . S
C2304 H2296 0.929 . S
C2304 C2305 1.377 . S
C2304 C2306 1.384 . S
C2305 C2304 1.377 . S
C2305 C2311 1.390 . S
C2306 H2297 0.930 . S
C2306 C2304 1.384 . S
C2306 C2307 1.372 . S
C2307 C2306 1.372 . S
C2307 C2308 1.400 . S
C2307 C2312 1.490 . S
C2308 H2298 0.930 . S
C2308 C2307 1.400 . S
C2308 C2311 1.386 . S
H2309 C2325 0.930 . S
H2310 C2326 0.931 . S
C2311 H2299 0.929 . S
C2311 C2305 1.390 . S
C2311 C2308 1.386 . S
C2312 C2307 1.490 . S
C2312 C2314 1.416 . S
C2312 C2315 1.403 1_556 S
H2313 C2319 0.930 . S
C2314 H2300 0.941 . S
C2314 C2312 1.416 . S
C2314 C2317 1.372 1_545 S
C2315 C2312 1.403 1_554 S
C2315 C2316 1.524 . S
C2315 C2319 1.400 1_545 S
C2316 H2301 0.960 . S
C2316 H2302 0.960 . S
C2316 H2303 0.960 . S
C2316 C2315 1.524 . S
C2317 C2314 1.372 1_565 S
C2317 C2318 1.392 1_556 S
C2317 C2321 1.495 . S
C2318 C2317 1.392 1_554 S
C2318 C2319 1.385 . S
C2318 C2320 1.478 . S
C2319 H2313 0.930 . S
C2319 C2315 1.400 1_565 S
C2319 C2318 1.385 . S
C2320 C2318 1.478 . S
C2320 C2322 1.381 . S
C2320 C2326 1.383 . S
C2321 C2317 1.495 . S
C2321 H2327 0.959 . S
C2321 H2328 0.961 . S
C2321 H2329 0.960 . S
C2322 C2320 1.381 . S
C2322 C2323 1.394 . S
C2322 H2330 0.930 . S
C2323 C2322 1.394 . S
C2323 C2324 1.383 . S
C2323 H2331 0.929 . S
C2324 C2323 1.383 . S
C2324 C2325 1.377 . S
C2325 H2309 0.930 . S
C2325 C2324 1.377 . S
C2325 C2326 1.379 . S
C2326 H2310 0.931 . S
C2326 C2320 1.383 . S
C2326 C2325 1.379 . S
H2327 C2321 0.959 . S
H2328 C2321 0.961 . S
H2329 C2321 0.960 . S
H2330 C2322 0.930 . S
H2331 C2323 0.929 . S
H2332 C2340 0.929 . S
H2333 C2342 0.930 . S
H2334 C2344 0.930 . S
H2335 C2347 0.929 . S
H2336 C2350 0.930 . S
H2337 C2352 0.960 . S
H2338 C2352 0.960 . S
H2339 C2352 0.960 . S
C2340 H2332 0.929 . S
C2340 C2341 1.377 . S
C2340 C2342 1.384 . S
C2341 C2340 1.377 . S
C2341 C2347 1.390 . S
C2342 H2333 0.930 . S
C2342 C2340 1.384 . S
C2342 C2343 1.372 . S
C2343 C2342 1.372 . S
C2343 C2344 1.400 . S
C2343 C2348 1.490 . S
C2344 H2334 0.930 . S
C2344 C2343 1.400 . S
C2344 C2347 1.386 . S
H2345 C2361 0.930 . S
H2346 C2362 0.931 . S
C2347 H2335 0.929 . S
C2347 C2341 1.390 . S
C2347 C2344 1.386 . S
C2348 C2343 1.490 . S
C2348 C2350 1.395 . S
C2348 C2351 1.403 . S
H2349 C2355 0.930 . S
C2350 H2336 0.930 . S
C2350 C2348 1.395 . S
C2350 C2353 1.403 . S
C2351 C2348 1.403 . S
C2351 C2352 1.524 . S
C2351 C2355 1.400 . S
C2352 H2337 0.960 . S
C2352 H2338 0.960 . S
C2352 H2339 0.960 . S
C2352 C2351 1.524 . S
C2353 C2350 1.403 . S
C2353 C2354 1.392 . S
C2353 C2357 1.495 . S
C2354 C2353 1.392 . S
C2354 C2355 1.385 . S
C2354 C2356 1.478 . S
C2355 H2349 0.930 . S
C2355 C2351 1.400 . S
C2355 C2354 1.385 . S
C2356 C2354 1.478 . S
C2356 C2358 1.381 . S
C2356 C2362 1.383 . S
C2357 C2353 1.495 . S
C2357 H2363 0.959 . S
C2357 H2364 0.961 . S
C2357 H2365 0.960 . S
C2358 C2356 1.381 . S
C2358 C2359 1.394 . S
C2358 H2366 0.930 . S
C2359 C2358 1.394 . S
C2359 C2360 1.383 . S
C2359 H2367 0.929 . S
C2360 C2359 1.383 . S
C2360 C2361 1.377 . S
C2361 H2345 0.930 . S
C2361 C2360 1.377 . S
C2361 C2362 1.379 . S
C2362 H2346 0.931 . S
C2362 C2356 1.383 . S
C2362 C2361 1.379 . S
H2363 C2357 0.959 . S
H2364 C2357 0.961 . S
H2365 C2357 0.960 . S
H2366 C2358 0.930 . S
H2367 C2359 0.929 . S
C649 C7 1.865 . S
C668 C16 1.842 . S
C685 C56 1.814 . S
C704 C47 1.793 . S
C721 C87 1.812 . S
C740 C96 1.792 . S
C757 C127 1.570 . S
C776 C136 1.579 . S
C793 C167 1.794 . S
C812 C176 1.775 . S
C829 C216 1.569 . S
C848 C207 1.552 . S
C865 C256 1.548 . S
C884 C247 1.533 . S
C901 C296 1.875 . S
C920 C287 1.888 . S
C937 C336 1.781 . S
C956 C327 1.782 . S
C973 C376 1.773 . S
C992 C367 1.787 . S
C1009 C416 1.642 . S
C1028 C407 1.655 . S
C1045 C456 1.534 . S
C1064 C447 1.525 . S
C1081 C496 1.840 . S
C1100 C487 1.855 . S
C1117 C536 1.641 . S
C1136 C527 1.621 . S
C1153 C567 1.581 . S
C1172 C576 1.593 . S
C1189 C607 1.966 . S
C1208 C616 1.941 . S
C1225 C10 1.629 . S
C1244 C451 1.671 . S
C1261 C42 1.645 . S
C1280 C611 1.647 . S
C1297 C90 1.626 . S
C1316 C379 1.619 . S
C1333 C130 1.782 . S
C1352 C539 1.783 . S
C1369 C170 1.690 . S
C1388 C531 1.679 . S
C1405 C459 1.744 . S
C1424 C210 1.753 . S
C1441 C242 1.658 . S
C1460 C619 1.536 . S
C1477 C282 1.763 . S
C1496 C371 1.766 . S
C1513 C122 1.723 . S
C1532 C339 1.642 . S
C1549 C50 1.645 . S
C1568 C411 1.689 . S
C1585 C499 1.689 . S
C1604 C202 1.727 . S
C1621 C290 1.572 . S
C1640 C571 1.645 . S
C1657 C331 1.788 . S
C1676 C162 1.736 . S
C1693 C250 1.775 . S
C1712 C419 1.840 . S
C1729 C82 1.910 . S
C1748 C579 1.861 . S
C1765 C2 1.688 . S
C1784 C491 1.659 . S
C1801 C19 1.255 . S
C1820 C179 1.262 . S
C1837 C51 1.711 . S
C1856 C219 1.717 . S
C1873 C99 2.081 . S
C1892 C251 2.080 . S
C1909 C139 1.696 . S
C1928 C291 1.697 . S
C1945 C490 1.355 . S
C1964 C330 1.358 . S
C1981 C530 1.958 . S
C2000 C362 1.941 . S
C2017 C402 1.910 . S
C2036 C562 1.902 . S
C2053 C602 1.557 . S
C2072 C450 1.566 . S
C2089 C59 1.225 . S
C2108 C299 1.231 . S
C2125 C171 1.796 . S
C2144 C91 1.808 . S
C2161 C211 2.111 . S
C2180 C131 2.099 . S
C2197 C11 1.684 . S
C2216 C259 1.678 . S
C2233 C610 1.167 . S
C2252 C370 1.178 . S
C2269 C482 1.696 . S
C2288 C410 1.702 . S
C2305 C522 2.124 . S
C2324 C442 2.122 . S
C2341 C570 1.791 . S
C2360 C322 1.789 . S
