# Generated by pormake.
# Topology upc, (4)-cn, num edge types: 1
# Building blocks:
#     Node 0, Type 0, BuildingBlock: MUDLON_clean_sbu_0, # of connection points: 4
#     Node 1, Type 0, BuildingBlock: MUDLON_clean_sbu_0, # of connection points: 4
#     Node 2, Type 0, BuildingBlock: MUDLON_clean_sbu_0, # of connection points: 4
#     Node 3, Type 0, BuildingBlock: MUDLON_clean_sbu_0, # of connection points: 4
#     Node 4, Type 0, BuildingBlock: MUDLON_clean_sbu_0, # of connection points: 4
#     Node 5, Type 0, BuildingBlock: MUDLON_clean_sbu_0, # of connection points: 4
#     Node 6, Type 0, BuildingBlock: MUDLON_clean_sbu_0, # of connection points: 4
#     Node 7, Type 0, BuildingBlock: MUDLON_clean_sbu_0, # of connection points: 4
#     Node 8, Type 0, BuildingBlock: MUDLON_clean_sbu_0, # of connection points: 4
#     Node 9, Type 0, BuildingBlock: MUDLON_clean_sbu_0, # of connection points: 4
#     Node 10, Type 0, BuildingBlock: MUDLON_clean_sbu_0, # of connection points: 4
#     Node 11, Type 0, BuildingBlock: MUDLON_clean_sbu_0, # of connection points: 4
#     Node 12, Type 0, BuildingBlock: MUDLON_clean_sbu_0, # of connection points: 4
#     Node 13, Type 0, BuildingBlock: MUDLON_clean_sbu_0, # of connection points: 4
#     Node 14, Type 0, BuildingBlock: MUDLON_clean_sbu_0, # of connection points: 4
#     Node 15, Type 0, BuildingBlock: MUDLON_clean_sbu_0, # of connection points: 4
#     Edge 16, Type (0, 0), BuildingBlock: XIVTED_clean_linker_0, # of connection points: 2
#     Edge 17, Type (0, 0), BuildingBlock: XIVTED_clean_linker_0, # of connection points: 2
#     Edge 18, Type (0, 0), BuildingBlock: XIVTED_clean_linker_0, # of connection points: 2
#     Edge 19, Type (0, 0), BuildingBlock: XIVTED_clean_linker_0, # of connection points: 2
#     Edge 20, Type (0, 0), BuildingBlock: XIVTED_clean_linker_0, # of connection points: 2
#     Edge 21, Type (0, 0), BuildingBlock: XIVTED_clean_linker_0, # of connection points: 2
#     Edge 22, Type (0, 0), BuildingBlock: XIVTED_clean_linker_0, # of connection points: 2
#     Edge 23, Type (0, 0), BuildingBlock: XIVTED_clean_linker_0, # of connection points: 2
#     Edge 24, Type (0, 0), BuildingBlock: XIVTED_clean_linker_0, # of connection points: 2
#     Edge 25, Type (0, 0), BuildingBlock: XIVTED_clean_linker_0, # of connection points: 2
#     Edge 26, Type (0, 0), BuildingBlock: XIVTED_clean_linker_0, # of connection points: 2
#     Edge 27, Type (0, 0), BuildingBlock: XIVTED_clean_linker_0, # of connection points: 2
#     Edge 28, Type (0, 0), BuildingBlock: XIVTED_clean_linker_0, # of connection points: 2
#     Edge 29, Type (0, 0), BuildingBlock: XIVTED_clean_linker_0, # of connection points: 2
#     Edge 30, Type (0, 0), BuildingBlock: XIVTED_clean_linker_0, # of connection points: 2
#     Edge 31, Type (0, 0), BuildingBlock: XIVTED_clean_linker_0, # of connection points: 2
#     Edge 32, Type (0, 0), BuildingBlock: XIVTED_clean_linker_0, # of connection points: 2
#     Edge 33, Type (0, 0), BuildingBlock: XIVTED_clean_linker_0, # of connection points: 2
#     Edge 34, Type (0, 0), BuildingBlock: XIVTED_clean_linker_0, # of connection points: 2
#     Edge 35, Type (0, 0), BuildingBlock: XIVTED_clean_linker_0, # of connection points: 2
#     Edge 36, Type (0, 0), BuildingBlock: XIVTED_clean_linker_0, # of connection points: 2
#     Edge 37, Type (0, 0), BuildingBlock: XIVTED_clean_linker_0, # of connection points: 2
#     Edge 38, Type (0, 0), BuildingBlock: XIVTED_clean_linker_0, # of connection points: 2
#     Edge 39, Type (0, 0), BuildingBlock: XIVTED_clean_linker_0, # of connection points: 2
#     Edge 40, Type (0, 0), BuildingBlock: XIVTED_clean_linker_0, # of connection points: 2
#     Edge 41, Type (0, 0), BuildingBlock: XIVTED_clean_linker_0, # of connection points: 2
#     Edge 42, Type (0, 0), BuildingBlock: XIVTED_clean_linker_0, # of connection points: 2
#     Edge 43, Type (0, 0), BuildingBlock: XIVTED_clean_linker_0, # of connection points: 2
#     Edge 44, Type (0, 0), BuildingBlock: XIVTED_clean_linker_0, # of connection points: 2
#     Edge 45, Type (0, 0), BuildingBlock: XIVTED_clean_linker_0, # of connection points: 2
#     Edge 46, Type (0, 0), BuildingBlock: XIVTED_clean_linker_0, # of connection points: 2
#     Edge 47, Type (0, 0), BuildingBlock: XIVTED_clean_linker_0, # of connection points: 2
# Relax obj value: 0.271
# Max RMSD: 0.206
# Mean RMSD: 0.206
data_MOF--net-upc--node1-MUDLON_clean_sbu_0--edge1-XIVTED_clean_linker_0
_symmetry_space_group_name_H-M    P1
_symmetry_Int_Tables_number       1
_symmetry_cell_setting            triclinic
loop_
_symmetry_equiv_pos_as_xyz
'x, y, z'
_cell_length_a     36.434388
_cell_length_b     36.522218
_cell_length_c     43.945722
_cell_angle_alpha  90.031893
_cell_angle_beta   90.021055
_cell_angle_gamma 89.974451
loop_
_atom_site_label
_atom_site_type_symbol
_atom_site_fract_x
_atom_site_fract_y
_atom_site_fract_z
_atom_type_partial_charge
Mg0 Mg 0.06266 0.64477 0.11613 0.0
C1 C 0.01063 0.6101 0.15782 0.0
O2 O 0.9958 0.60504 0.13089 0.0
C3 C 0.13021 0.68756 0.09854 0.0
O4 O 0.10828 0.69475 0.07556 0.0
C5 C 0.06797 0.58822 0.06099 0.0
O6 O 0.09406 0.6089 0.04962 0.0
O7 O 0.05352 0.59687 0.0864 0.0
O8 O 0.04068 0.62766 0.15966 0.0
O9 O 0.02764 0.6881 0.09865 0.0
C10 C 0.00923 0.71373 0.11111 0.0
O11 O 0.98869 0.73434 0.09348 0.0
O12 O 0.11908 0.66572 0.11916 0.0
Mg13 Mg 0.86884 0.07112 0.14156 0.0
C14 C 0.94764 0.06848 0.16702 0.0
O15 O 0.95738 0.06541 0.13836 0.0
C16 C 0.81689 0.13086 0.12449 0.0
O17 O 0.79528 0.10209 0.12357 0.0
C18 C 0.90799 0.01551 0.09926 0.0
O19 O 0.91378 0.99795 0.1249 0.0
O20 O 0.88816 0.04429 0.0996 0.0
O21 O 0.91401 0.07305 0.17369 0.0
O22 O 0.82408 0.04769 0.16865 0.0
C23 C 0.83132 0.02427 0.18923 0.0
O24 O 0.86434 0.00983 0.19011 0.0
O25 O 0.85067 0.12632 0.13086 0.0
Mg26 Mg 0.44393 0.85111 0.12819 0.0
C27 C 0.49798 0.87411 0.17553 0.0
O28 O 0.51729 0.85031 0.15983 0.0
C29 C 0.37108 0.82322 0.10685 0.0
O30 O 0.38881 0.82818 0.08114 0.0
C31 C 0.48182 0.90627 0.08531 0.0
O32 O 0.5089 0.89921 0.10415 0.0
O33 O 0.45129 0.88968 0.08923 0.0
O34 O 0.46471 0.8798 0.16811 0.0
O35 O 0.47572 0.80093 0.12068 0.0
C36 C 0.48582 0.77157 0.13421 0.0
O37 O 0.50538 0.74818 0.11826 0.0
O38 O 0.38686 0.83225 0.13161 0.0
Mg39 Mg 0.65335 0.44245 0.13177 0.0
C40 C 0.57668 0.45191 0.1592 0.0
O41 O 0.5673 0.46043 0.13125 0.0
C42 C 0.70625 0.38219 0.118 0.0
O43 O 0.72801 0.41085 0.1176 0.0
C44 C 0.61761 0.49926 0.08762 0.0
O45 O 0.62098 0.52205 0.1106 0.0
O46 O 0.63113 0.46716 0.08991 0.0
O47 O 0.60915 0.44098 0.16463 0.0
O48 O 0.69768 0.46774 0.15832 0.0
C49 C 0.6899 0.4914 0.17862 0.0
O50 O 0.65665 0.50535 0.17913 0.0
O51 O 0.6721 0.38701 0.12261 0.0
Mg52 Mg 0.07623 0.86723 0.36294 0.0
C53 C 0.06753 0.94416 0.33783 0.0
O54 O 0.0557 0.95033 0.36558 0.0
C55 C 0.1356 0.81425 0.37932 0.0
O56 O 0.10708 0.79246 0.37679 0.0
C57 C 0.05929 0.90127 0.42438 0.0
O58 O 0.09529 0.89969 0.4256 0.0
O59 O 0.04304 0.8871 0.40153 0.0
O60 O 0.07999 0.91264 0.33116 0.0
O61 O 0.0535 0.82347 0.33446 0.0
C62 C 0.02821 0.83027 0.31531 0.0
O63 O 0.01221 0.86251 0.31598 0.0
O64 O 0.1309 0.84856 0.37602 0.0
Mg65 Mg 0.64336 0.0706 0.38766 0.0
C66 C 0.62536 0.01232 0.34205 0.0
O67 O 0.64304 0.99318 0.36265 0.0
C68 C 0.67914 0.14073 0.40612 0.0
O69 O 0.6759 0.12325 0.43211 0.0
C70 C 0.58123 0.03992 0.42599 0.0
O71 O 0.59052 0.01117 0.40978 0.0
O72 O 0.59872 0.06977 0.42182 0.0
O73 O 0.6216 0.04664 0.34591 0.0
O74 O 0.68761 0.0366 0.40552 0.0
C75 C 0.71464 0.0188 0.39443 0.0
O76 O 0.73512 0.99991 0.41339 0.0
O77 O 0.66647 0.12568 0.38217 0.0
Mg78 Mg 0.44793 0.64569 0.37438 0.0
C79 C 0.47713 0.58587 0.33594 0.0
O80 O 0.49453 0.58061 0.36172 0.0
C81 C 0.3875 0.70195 0.3831 0.0
O82 O 0.41611 0.72246 0.38944 0.0
C83 C 0.48669 0.60376 0.4277 0.0
O84 O 0.51464 0.62466 0.42027 0.0
O85 O 0.45633 0.60793 0.41358 0.0
O86 O 0.4548 0.61248 0.33386 0.0
O87 O 0.48702 0.69137 0.37406 0.0
C88 C 0.49522 0.71743 0.35583 0.0
O89 O 0.5184 0.74246 0.36538 0.0
O90 O 0.3925 0.66848 0.37608 0.0
Mg91 Mg 0.86246 0.44511 0.38554 0.0
C92 C 0.89522 0.49865 0.34287 0.0
O93 O 0.89104 0.51827 0.36766 0.0
C94 C 0.82036 0.37818 0.40459 0.0
O95 O 0.8208 0.39736 0.4299 0.0
C96 C 0.91351 0.4756 0.43432 0.0
O97 O 0.89217 0.50398 0.42945 0.0
O98 O 0.90707 0.44595 0.41989 0.0
O99 O 0.88499 0.46536 0.34298 0.0
O100 O 0.82048 0.4836 0.40021 0.0
C101 C 0.79714 0.5038 0.38655 0.0
O102 O 0.77697 0.52585 0.40326 0.0
O103 O 0.83679 0.39099 0.38134 0.0
Mg104 Mg 0.92973 0.3642 0.86815 0.0
C105 C 0.97827 0.32456 0.82279 0.0
O106 O 0.99555 0.3561 0.82403 0.0
C107 C 0.94561 0.39729 0.93071 0.0
O108 O 0.90957 0.39822 0.93117 0.0
C109 C 0.8662 0.32411 0.8978 0.0
O110 O 0.8932 0.31242 0.91509 0.0
O111 O 0.873 0.34793 0.87743 0.0
O112 O 0.95179 0.3189 0.84107 0.0
O113 O 0.93361 0.40998 0.83652 0.0
C114 C 0.94638 0.44071 0.84515 0.0
O115 O 0.95215 0.44627 0.87428 0.0
O116 O 0.96157 0.38169 0.90837 0.0
Mg117 Mg 0.14964 0.94724 0.8892 0.0
C118 C 0.22036 0.99997 0.89266 0.0
O119 O 0.24193 0.01918 0.91055 0.0
C120 C 0.08318 0.97365 0.92549 0.0
O121 O 0.08432 0.99885 0.90421 0.0
C122 C 0.18471 0.87666 0.9074 0.0
O123 O 0.18172 0.8939 0.93354 0.0
O124 O 0.1723 0.89211 0.88356 0.0
O125 O 0.19461 0.98164 0.90508 0.0
O126 O 0.12624 0.96996 0.84775 0.0
C127 C 0.12897 1.00426 0.84327 0.0
O128 O 0.1461 0.02454 0.86344 0.0
O129 O 0.10695 0.948 0.92492 0.0
Mg130 Mg 0.55957 0.14679 0.87436 0.0
C131 C 0.51178 0.21861 0.85666 0.0
O132 O 0.48827 0.24311 0.86665 0.0
C133 C 0.51919 0.09563 0.9192 0.0
O134 O 0.49225 0.10307 0.9003 0.0
C135 C 0.62945 0.18214 0.89927 0.0
O136 O 0.61346 0.17449 0.9253 0.0
O137 O 0.61386 0.17251 0.8746 0.0
O138 O 0.52026 0.19219 0.87442 0.0
O139 O 0.55206 0.11382 0.83369 0.0
C140 C 0.55209 0.07907 0.8354 0.0
O141 O 0.55851 0.06339 0.86176 0.0
O142 O 0.55038 0.11068 0.91462 0.0
Mg143 Mg 0.36464 0.57114 0.88696 0.0
C144 C 0.30255 0.5094 0.88562 0.0
O145 O 0.28268 0.48612 0.90137 0.0
C146 C 0.41384 0.54061 0.9367 0.0
O147 O 0.39122 0.5131 0.93243 0.0
C148 C 0.32331 0.63779 0.9076 0.0
O149 O 0.32554 0.61889 0.93298 0.0
O150 O 0.33821 0.62484 0.88372 0.0
O151 O 0.3236 0.53103 0.90026 0.0
O152 O 0.38906 0.55296 0.84461 0.0
C153 C 0.40075 0.52016 0.84476 0.0
O154 O 0.39615 0.50032 0.86937 0.0
O155 O 0.40879 0.56999 0.92157 0.0
Mg156 Mg 0.94991 0.14375 0.61919 0.0
C157 C 1.00156 0.21501 0.61681 0.0
O158 O 0.02118 0.23687 0.59953 0.0
C159 C 0.94516 0.08806 0.56401 0.0
O160 O 0.91592 0.10628 0.55522 0.0
C161 C 0.8841 0.19434 0.61489 0.0
O162 O 0.91049 0.21669 0.60662 0.0
O163 O 0.89214 0.16117 0.62104 0.0
O164 O 0.9838 0.18928 0.60381 0.0
O165 O 0.96995 0.12488 0.66291 0.0
C166 C 1.00457 0.1246 0.66655 0.0
O167 O 0.02566 0.13691 0.64458 0.0
O168 O 0.96178 0.09776 0.58822 0.0
Mg169 Mg 0.35842 0.94173 0.6353 0.0
C170 C 0.32296 0.99026 0.68295 0.0
O171 O 0.35631 1.00393 0.68331 0.0
C172 C 0.39272 0.99796 0.59004 0.0
O173 O 0.39281 0.01979 0.6138 0.0
C174 C 0.30433 0.88211 0.62287 0.0
O175 O 0.28314 0.91123 0.62309 0.0
O176 O 0.33872 0.88624 0.62674 0.0
O177 O 0.3147 0.96705 0.66245 0.0
O178 O 0.40411 0.94172 0.66717 0.0
C179 C 0.43621 0.95252 0.66026 0.0
O180 O 0.44419 0.95925 0.63168 0.0
O181 O 0.37781 0.96647 0.59239 0.0
Mg182 Mg 0.56386 0.35021 0.62745 0.0
C183 C 0.5147 0.2749 0.63589 0.0
O184 O 0.49181 0.25371 0.62091 0.0
C185 C 0.52858 0.39295 0.5736 0.0
O186 O 0.50055 0.3718 0.58026 0.0
C187 C 0.62742 0.29576 0.62972 0.0
O188 O 0.59985 0.2727 0.6285 0.0
O189 O 0.62069 0.33002 0.6301 0.0
O190 O 0.52665 0.30331 0.62199 0.0
O191 O 0.54715 0.38084 0.66769 0.0
C192 C 0.52839 0.41001 0.66473 0.0
O193 O 0.52114 0.42226 0.63733 0.0
O194 O 0.55843 0.38885 0.58847 0.0
Mg195 Mg 0.14742 0.56723 0.63633 0.0
C196 C 0.19209 0.51944 0.68055 0.0
O197 O 0.16188 0.49983 0.68089 0.0
C198 C 0.1075 0.51422 0.59367 0.0
O199 O 0.10221 0.49688 0.61949 0.0
C200 C 0.19534 0.62951 0.61964 0.0
O201 O 0.21644 0.60092 0.61474 0.0
O202 O 0.16244 0.62419 0.62834 0.0
O203 O 0.19465 0.54587 0.66181 0.0
O204 O 0.10114 0.56207 0.667 0.0
C205 C 0.10364 0.56919 0.69522 0.0
O206 O 0.13433 0.5831 0.70586 0.0
O207 O 0.12817 0.5424 0.5935 0.0
H208 H 0.17802 0.69035 0.14729 0.0
H209 H 0.32671 0.81104 0.05788 0.0
H210 H 0.16465 0.72827 0.05497 0.0
H211 H 0.33235 0.79324 0.15483 0.0
H212 H 0.26874 0.77788 0.05639 0.0
H213 H 0.23615 0.7243 0.1504 0.0
C214 C 0.18735 0.7056 0.12764 0.0
C215 C 0.16634 0.70638 0.10081 0.0
C216 C 0.28247 0.7813 0.07807 0.0
C217 C 0.23278 0.74533 0.10425 0.0
C218 C 0.31568 0.80029 0.07895 0.0
C219 C 0.33453 0.80505 0.10654 0.0
C220 C 0.26784 0.76644 0.10494 0.0
C221 C 0.3187 0.79042 0.13306 0.0
C222 C 0.22044 0.72513 0.12949 0.0
C223 C 0.17977 0.72683 0.07614 0.0
N224 N 0.28639 0.7716 0.13159 0.0
N225 N 0.21202 0.74533 0.07846 0.0
H226 H 0.85346 0.19658 0.12346 0.0
H227 H 0.66962 0.31646 0.11681 0.0
H228 H 0.745 0.14985 0.11582 0.0
H229 H 0.77856 0.3628 0.11348 0.0
H230 H 0.69665 0.25513 0.11561 0.0
H231 H 0.82658 0.25773 0.11904 0.0
C232 C 0.82402 0.19915 0.1207 0.0
C233 C 0.80147 0.16802 0.12014 0.0
C234 C 0.71463 0.27875 0.11496 0.0
C235 C 0.77045 0.23799 0.11522 0.0
C236 C 0.6992 0.31376 0.11566 0.0
C237 C 0.72183 0.34485 0.11537 0.0
C238 C 0.75299 0.27471 0.11418 0.0
C239 C 0.75999 0.33963 0.11381 0.0
C240 C 0.80867 0.23407 0.11816 0.0
C241 C 0.76349 0.17307 0.11644 0.0
N242 N 0.77435 0.30531 0.11346 0.0
N243 N 0.74918 0.20732 0.1143 0.0
H244 H 0.20147 0.85044 0.38519 0.0
H245 H 0.32143 0.66675 0.37613 0.0
H246 H 0.15479 0.74192 0.38146 0.0
H247 H 0.36817 0.77361 0.39217 0.0
H248 H 0.26015 0.69404 0.37736 0.0
H249 H 0.26281 0.82312 0.3876 0.0
C250 C 0.20406 0.8209 0.38507 0.0
C251 C 0.17287 0.79847 0.38302 0.0
C252 C 0.2838 0.71152 0.3807 0.0
C253 C 0.24304 0.76701 0.38551 0.0
C254 C 0.31884 0.69594 0.37993 0.0
C255 C 0.35006 0.71789 0.38401 0.0
C256 C 0.27988 0.74941 0.3854 0.0
C257 C 0.34494 0.75558 0.38892 0.0
C258 C 0.23911 0.8053 0.38641 0.0
C259 C 0.17797 0.76034 0.38297 0.0
N260 N 0.31057 0.77014 0.38936 0.0
N261 N 0.21233 0.74586 0.38401 0.0
H262 H 0.80535 0.33452 0.35473 0.0
H263 H 0.70156 0.18236 0.45417 0.0
H264 H 0.78876 0.34129 0.4518 0.0
H265 H 0.70183 0.18049 0.35598 0.0
H266 H 0.73581 0.23953 0.4531 0.0
H267 H 0.77022 0.27706 0.35408 0.0
C268 C 0.79447 0.32392 0.3759 0.0
C269 C 0.80009 0.34285 0.40337 0.0
C270 C 0.72835 0.22679 0.43171 0.0
C271 C 0.75988 0.27715 0.40277 0.0
C272 C 0.70872 0.19401 0.4323 0.0
C273 C 0.69868 0.17647 0.40511 0.0
C274 C 0.73843 0.24237 0.40372 0.0
C275 C 0.70884 0.19309 0.37751 0.0
C276 C 0.77431 0.29119 0.37548 0.0
C277 C 0.78518 0.32782 0.43006 0.0
N278 N 0.72828 0.22503 0.37751 0.0
N279 N 0.76592 0.29598 0.42907 0.0
H280 H 0.8391 0.28127 0.94369 0.0
H281 H 0.66256 0.21566 0.85051 0.0
H282 H 0.81013 0.32568 0.85594 0.0
H283 H 0.67535 0.1977 0.94699 0.0
H284 H 0.71883 0.25239 0.85079 0.0
H285 H 0.7811 0.24755 0.94439 0.0
C286 C 0.82043 0.28416 0.92465 0.0
C287 C 0.82957 0.30638 0.89972 0.0
C288 C 0.70928 0.24044 0.87189 0.0
C289 C 0.76325 0.26728 0.90016 0.0
C290 C 0.67727 0.21927 0.87173 0.0
C291 C 0.66418 0.20346 0.89877 0.0
C292 C 0.72869 0.24553 0.89922 0.0
C293 C 0.68433 0.20934 0.9256 0.0
C294 C 0.7873 0.26486 0.92507 0.0
C295 C 0.80421 0.30902 0.8757 0.0
N296 N 0.7156 0.22971 0.92511 0.0
N297 N 0.7724 0.28945 0.87639 0.0
H298 H 0.29418 0.67486 0.95587 0.0
H299 H 0.2049 0.83651 0.85684 0.0
H300 H 0.30564 0.68112 0.85827 0.0
H301 H 0.20823 0.83478 0.955 0.0
H302 H 0.23856 0.7782 0.85606 0.0
H303 H 0.25978 0.73204 0.95517 0.0
C304 C 0.28951 0.68826 0.93423 0.0
C305 C 0.30295 0.67307 0.90708 0.0
C306 C 0.23185 0.79062 0.87774 0.0
C307 C 0.26316 0.73893 0.9061 0.0
C308 C 0.21252 0.82384 0.8782 0.0
C309 C 0.2037 0.84066 0.90603 0.0
C310 C 0.24225 0.77402 0.90529 0.0
C311 C 0.21443 0.82299 0.93298 0.0
C312 C 0.26981 0.72103 0.93386 0.0
C313 C 0.29593 0.69186 0.87976 0.0
N314 N 0.23304 0.79077 0.93192 0.0
N315 N 0.27645 0.72376 0.87996 0.0
H316 H 0.69195 0.33464 0.62527 0.0
H317 H 0.82083 0.15603 0.62795 0.0
H318 H 0.65023 0.22444 0.63299 0.0
H319 H 0.86036 0.26498 0.6087 0.0
H320 H 0.75852 0.18077 0.63282 0.0
H321 H 0.75436 0.30991 0.62244 0.0
C322 C 0.69588 0.30528 0.62651 0.0
C323 C 0.6657 0.28163 0.62928 0.0
C324 C 0.78086 0.19924 0.62752 0.0
C325 C 0.73719 0.25305 0.62602 0.0
C326 C 0.81646 0.18511 0.62474 0.0
C327 C 0.84595 0.20838 0.61781 0.0
C328 C 0.77468 0.23697 0.62352 0.0
C329 C 0.83854 0.24589 0.61395 0.0
C330 C 0.73154 0.29114 0.6248 0.0
C331 C 0.67258 0.24377 0.63074 0.0
N332 N 0.80377 0.25896 0.61689 0.0
N333 N 0.70749 0.2307 0.62908 0.0
H334 H 0.26609 0.64867 0.60656 0.0
H335 H 0.23144 0.86438 0.62074 0.0
H336 H 0.16025 0.69571 0.62716 0.0
H337 H 0.33933 0.81559 0.61811 0.0
H338 H 0.20429 0.80337 0.61776 0.0
H339 H 0.29245 0.71002 0.60524 0.0
C340 C 0.24828 0.6719 0.61066 0.0
C341 C 0.21085 0.66693 0.61712 0.0
C342 C 0.2339 0.806 0.61777 0.0
C343 C 0.24106 0.7375 0.61565 0.0
C344 C 0.24948 0.84086 0.61939 0.0
C345 C 0.2878 0.84518 0.61978 0.0
C346 C 0.25672 0.77508 0.61633 0.0
C347 C 0.30969 0.81361 0.61798 0.0
C348 C 0.26344 0.70697 0.60998 0.0
C349 C 0.18924 0.69819 0.62218 0.0
N350 N 0.29384 0.77992 0.61635 0.0
N351 N 0.20467 0.73213 0.62138 0.0
H352 H 0.93496 0.56175 0.34001 0.0
H353 H 0.95616 0.55902 0.1596 0.0
H354 H 0.89418 0.47356 0.284 0.0
H355 H 0.02526 0.62456 0.21794 0.0
H356 H 0.92797 0.53172 0.20456 0.0
H357 H 0.96314 0.58928 0.2951 0.0
C358 C 0.93188 0.54819 0.31823 0.0
C359 C 0.91226 0.51526 0.31571 0.0
C360 C 0.94934 0.55202 0.20753 0.0
C361 C 0.94428 0.54678 0.26424 0.0
C362 C 0.96535 0.56776 0.18189 0.0
C363 C 0.99318 0.59407 0.18505 0.0
C364 C 0.96088 0.56295 0.23659 0.0
C365 C 1.00403 0.60425 0.21449 0.0
C366 C 0.94811 0.56387 0.29265 0.0
C367 C 0.90926 0.49885 0.28696 0.0
N368 N 0.98773 0.58876 0.23917 0.0
N369 N 0.92497 0.5149 0.26228 0.0
H370 H 0.01439 0.03424 0.1624 0.0
H371 H 0.03136 0.00959 0.34254 0.0
H372 H 0.94041 0.08267 0.22774 0.0
H373 H 0.0857 0.93965 0.27733 0.0
H374 H 0.00951 0.04788 0.30078 0.0
H375 H 0.05185 0.01094 0.20444 0.0
C376 C 0.00644 0.04065 0.18555 0.0
C377 C 0.97399 0.06004 0.19161 0.0
C378 C 0.02664 0.02444 0.29566 0.0
C379 C 0.01659 0.03341 0.23968 0.0
C380 C 0.03926 1.0026 0.31949 0.0
C381 C 0.05992 0.97099 0.31341 0.0
C382 C 0.03481 0.0147 0.2655 0.0
C383 C 0.06947 0.96351 0.28307 0.0
C384 C 0.02773 0.02716 0.20951 0.0
C385 C 0.96498 0.06746 0.22205 0.0
N386 N 0.05648 0.98497 0.2602 0.0
N387 N 0.98599 0.05386 0.24493 0.0
H388 H 0.64131 0.94429 0.32053 0.0
H389 H 0.473 0.93613 0.20433 0.0
H390 H 0.57003 0.03675 0.30466 0.0
H391 H 0.56329 0.85957 0.20324 0.0
H392 H 0.50471 0.97125 0.24403 0.0
H393 H 0.61005 0.91096 0.28001 0.0
C394 C 0.61913 0.95765 0.30841 0.0
C395 C 0.60819 0.99332 0.316 0.0
C396 C 0.51752 0.94678 0.23503 0.0
C397 C 0.57198 0.95511 0.26973 0.0
C398 C 0.49936 0.9266 0.21255 0.0
C399 C 0.51555 0.89489 0.20046 0.0
C400 C 0.55185 0.93485 0.24571 0.0
C401 C 0.54983 0.88391 0.21182 0.0
C402 C 0.60132 0.9386 0.28525 0.0
C403 C 0.5794 0.00933 0.29943 0.0
N404 N 0.56675 0.90377 0.23384 0.0
N405 N 0.56205 0.98998 0.27719 0.0
H406 H 0.58384 0.43221 0.21878 0.0
H407 H 0.45333 0.59289 0.27682 0.0
H408 H 0.51666 0.49719 0.15851 0.0
H409 H 0.51813 0.52358 0.33557 0.0
H410 H 0.47013 0.55395 0.23356 0.0
H411 H 0.55313 0.46009 0.2622 0.0
C412 C 0.56216 0.45191 0.21468 0.0
C413 C 0.55314 0.46275 0.185 0.0
C414 C 0.48033 0.5471 0.25599 0.0
C415 C 0.51827 0.49538 0.23467 0.0
C416 C 0.47079 0.56933 0.28066 0.0
C417 C 0.48466 0.56167 0.30977 0.0
C418 C 0.50392 0.51712 0.26055 0.0
C419 C 0.50711 0.53078 0.31348 0.0
C420 C 0.54468 0.46795 0.2395 0.0
C421 C 0.52462 0.48818 0.18102 0.0
N422 N 0.51622 0.50984 0.28916 0.0
N423 N 0.50858 0.50412 0.20563 0.0
H424 H 0.04131 0.53054 0.68161 0.0
H425 H 0.98495 0.50363 0.85604 0.0
H426 H 0.09942 0.57967 0.75691 0.0
H427 H 0.94324 0.43667 0.78278 0.0
H428 H 0.01839 0.54047 0.81895 0.0
H429 H 0.99711 0.50469 0.71744 0.0
C430 C 0.04455 0.53631 0.70564 0.0
C431 C 0.07434 0.55711 0.71629 0.0
C432 C 1.00159 0.51798 0.81096 0.0
C433 C 0.02379 0.52747 0.75742 0.0
C434 C 0.9823 0.49699 0.83212 0.0
C435 C 0.96151 0.46672 0.82256 0.0
C436 C 1.0 0.50877 0.77997 0.0
C437 C 0.95911 0.45958 0.79122 0.0
C438 C 0.01934 0.52142 0.72608 0.0
C439 C 0.07704 0.56364 0.74768 0.0
N440 N 0.97839 0.48026 0.77107 0.0
N441 N 0.05223 0.54869 0.76715 0.0
H442 H 0.14702 0.06936 0.81714 0.0
H443 H 0.97403 0.07578 0.70649 0.0
H444 H 0.07106 0.97922 0.80937 0.0
H445 H 0.07337 0.13643 0.68879 0.0
H446 H 1.00451 0.04594 0.74967 0.0
H447 H 0.11598 0.09979 0.77471 0.0
C448 C 0.12381 0.05597 0.80645 0.0
C449 C 0.11155 0.02175 0.8167 0.0
C450 C 0.01952 0.06584 0.73631 0.0
C451 C 0.07568 0.0566 0.76859 0.0
C452 C 1.00211 0.08305 0.71187 0.0
C453 C 0.02131 0.10846 0.69402 0.0
C454 C 0.0561 0.07465 0.7432 0.0
C455 C 0.05769 0.11678 0.70186 0.0
C456 C 0.1062 0.0733 0.78225 0.0
C457 C 0.08148 0.00551 0.802 0.0
N458 N 0.07389 0.10001 0.72595 0.0
N459 N 0.06432 0.02325 0.7788 0.0
H460 H 0.53128 0.00722 0.83477 0.0
H461 H 0.4931 1.00102 0.65585 0.0
H462 H 0.54864 0.09988 0.77553 0.0
H463 H 0.43531 0.93321 0.72042 0.0
H464 H 0.52697 0.02906 0.69796 0.0
H465 H 0.50895 0.97193 0.79119 0.0
C466 C 0.53084 0.02001 0.81254 0.0
C467 C 0.54162 0.05663 0.80879 0.0
C468 C 0.50722 0.00769 0.70279 0.0
C469 C 0.51639 0.01629 0.75893 0.0
C470 C 0.48809 0.99145 0.6788 0.0
C471 C 0.46118 0.96487 0.68469 0.0
C472 C 0.49978 0.99687 0.73279 0.0
C473 C 0.45566 0.95376 0.71491 0.0
C474 C 0.51798 0.99988 0.78775 0.0
C475 C 0.54036 0.0718 0.77946 0.0
N476 N 0.4747 0.96992 0.73787 0.0
N477 N 0.52791 0.05156 0.75563 0.0
H478 H 0.48898 0.47368 0.66605 0.0
H479 H 0.43774 0.45538 0.84203 0.0
H480 H 0.53051 0.38806 0.72439 0.0
H481 H 0.40877 0.54939 0.78755 0.0
H482 H 0.47074 0.42983 0.79875 0.0
H483 H 0.45886 0.50157 0.70991 0.0
C484 C 0.49199 0.46085 0.68812 0.0
C485 C 0.51227 0.42841 0.69154 0.0
C486 C 0.45725 0.45608 0.79622 0.0
C487 C 0.47762 0.46014 0.74182 0.0
C488 C 0.43824 0.47066 0.82091 0.0
C489 C 0.42042 0.50459 0.81838 0.0
C490 C 0.45828 0.4754 0.76865 0.0
C491 C 0.42218 0.52319 0.7905 0.0
C492 C 0.47475 0.47682 0.71316 0.0
C493 C 0.5152 0.41305 0.72069 0.0
N494 N 0.4407 0.50827 0.76665 0.0
N495 N 0.49788 0.42897 0.74468 0.0
H496 H 0.06459 0.70072 0.15309 0.0
H497 H 0.96955 0.83009 0.27665 0.0
H498 H 0.95574 0.74588 0.14452 0.0
H499 H 0.07152 0.77384 0.29416 0.0
H500 H 0.96257 0.79508 0.22976 0.0
H501 H 0.06655 0.72236 0.20611 0.0
C502 C 0.04083 0.7144 0.16252 0.0
C503 C 0.00996 0.72147 0.1443 0.0
C504 C 0.98633 0.78999 0.24395 0.0
C505 C 0.01227 0.74705 0.20461 0.0
C506 C 0.99029 0.81002 0.27082 0.0
C507 C 0.02124 0.80511 0.28934 0.0
C508 C 0.01382 0.76512 0.23506 0.0
C509 C 0.04717 0.77853 0.28059 0.0
C510 C 0.04205 0.72701 0.19272 0.0
C511 C 0.98025 0.74005 0.15758 0.0
N512 N 0.04315 0.75991 0.25387 0.0
N513 N 0.98227 0.75238 0.18668 0.0
H514 H 0.83212 0.96878 0.23074 0.0
H515 H 0.69866 0.06934 0.34895 0.0
H516 H 0.7737 0.06781 0.20802 0.0
H517 H 0.75194 0.96562 0.36471 0.0
H518 H 0.72055 0.0677 0.29591 0.0
H519 H 0.7977 0.96505 0.27815 0.0
C520 C 0.81165 0.98952 0.23553 0.0
C521 C 0.806 0.01873 0.21538 0.0
C522 C 0.72705 0.04515 0.31096 0.0
C523 C 0.76671 0.01514 0.27031 0.0
C524 C 0.71443 0.04604 0.3412 0.0
C525 C 0.72366 0.01771 0.36142 0.0
C526 C 0.7491 0.01578 0.30101 0.0
C527 C 0.74449 0.98832 0.35014 0.0
C528 C 0.79198 0.98746 0.26274 0.0
C529 C 0.77894 0.04474 0.22286 0.0
N530 N 0.7566 0.98827 0.32094 0.0
N531 N 0.76067 0.04264 0.24992 0.0
H532 H 0.4931 0.66576 0.31049 0.0
H533 H 0.448 0.81188 0.17841 0.0
H534 H 0.46742 0.77859 0.32921 0.0
H535 H 0.50448 0.70943 0.1646 0.0
H536 H 0.44225 0.79683 0.23288 0.0
H537 H 0.48283 0.67724 0.2561 0.0
C538 C 0.48379 0.69252 0.3033 0.0
C539 C 0.4804 0.72102 0.32447 0.0
C540 C 0.45574 0.77766 0.21777 0.0
C541 C 0.47005 0.735 0.26206 0.0
C542 C 0.4593 0.78644 0.18669 0.0
C543 C 0.47784 0.76264 0.16682 0.0
C544 C 0.47002 0.74437 0.2289 0.0
C545 C 0.49054 0.72918 0.17888 0.0
C546 C 0.47861 0.69935 0.27216 0.0
C547 C 0.47002 0.75577 0.31362 0.0
N548 N 0.48653 0.7212 0.2089 0.0
N549 N 0.46542 0.76185 0.28325 0.0
H550 H 0.68977 0.54899 0.21812 0.0
H551 H 0.80966 0.44807 0.34471 0.0
H552 H 0.74544 0.44705 0.20008 0.0
H553 H 0.77026 0.55906 0.35207 0.0
H554 H 0.79087 0.4476 0.29086 0.0
H555 H 0.72297 0.55406 0.26612 0.0
C556 C 0.70944 0.52791 0.22405 0.0
C557 C 0.71472 0.49755 0.20501 0.0
C558 C 0.78689 0.47221 0.3042 0.0
C559 C 0.75248 0.50266 0.26064 0.0
C560 C 0.79786 0.47255 0.3349 0.0
C561 C 0.79147 0.50361 0.35302 0.0
C562 C 0.76916 0.50304 0.29172 0.0
C563 C 0.77542 0.53434 0.33915 0.0
C564 C 0.72841 0.53075 0.25157 0.0
C565 C 0.74062 0.47104 0.21398 0.0
N566 N 0.76459 0.53314 0.3096 0.0
N567 N 0.75812 0.47391 0.24136 0.0
H568 H 0.05542 0.24606 0.65039 0.0
H569 H 0.93474 0.26835 0.80144 0.0
H570 H 0.9473 0.1994 0.65932 0.0
H571 H 0.0372 0.32385 0.78441 0.0
H572 H 0.94262 0.23427 0.75368 0.0
H573 H 0.053 0.26539 0.70331 0.0
C574 C 0.03119 0.23956 0.66361 0.0
C575 C 1.00133 0.22141 0.6502 0.0
C576 C 0.96357 0.25355 0.76064 0.0
C577 C 0.99812 0.24409 0.7112 0.0
C578 C 0.95923 0.27289 0.788 0.0
C579 C 0.98523 0.29929 0.79688 0.0
C580 C 0.99426 0.26048 0.74215 0.0
C581 C 0.01628 0.30406 0.77843 0.0
C582 C 0.02982 0.25067 0.69391 0.0
C583 C 0.97089 0.21339 0.66864 0.0
N584 N 0.01976 0.28511 0.75196 0.0
N585 N 0.96984 0.22519 0.69814 0.0
H586 H 0.26514 0.9476 0.70255 0.0
H587 H 0.25145 0.05531 0.861 0.0
H588 H 0.32635 0.04495 0.72521 0.0
H589 H 0.20451 0.94804 0.84823 0.0
H590 H 0.26919 0.05634 0.8077 0.0
H591 H 0.23337 0.95189 0.75177 0.0
C592 C 0.27136 0.97031 0.71754 0.0
C593 C 0.29866 0.99589 0.70975 0.0
C594 C 0.25479 0.03259 0.81634 0.0
C595 C 0.26255 1.00074 0.76615 0.0
C596 C 0.24461 0.03196 0.84688 0.0
C597 C 0.22672 1.00138 0.85926 0.0
C598 C 0.24746 1.00225 0.79771 0.0
C599 C 0.21821 0.97218 0.83965 0.0
C600 C 0.25339 0.97255 0.74574 0.0
C601 C 0.30572 0.0245 0.73024 0.0
N602 N 0.229 0.97315 0.80986 0.0
N603 N 0.288 0.026 0.75743 0.0
H604 H 0.5386 0.2808 0.83131 0.0
H605 H 0.50297 0.20928 0.66343 0.0
H606 H 0.51462 0.16823 0.81019 0.0
H607 H 0.54946 0.31552 0.68139 0.0
H608 H 0.5117 0.19288 0.71653 0.0
H609 H 0.54776 0.29314 0.77706 0.0
C610 C 0.53641 0.25836 0.81527 0.0
C611 C 0.52651 0.22322 0.82538 0.0
C612 C 0.52028 0.21978 0.70897 0.0
C613 C 0.53563 0.23749 0.7629 0.0
C614 C 0.5152 0.22933 0.67849 0.0
C615 C 0.52469 0.26441 0.66777 0.0
C616 C 0.53461 0.24551 0.72946 0.0
C617 C 0.54098 0.28864 0.68858 0.0
C618 C 0.54143 0.2655 0.78425 0.0
C619 C 0.52329 0.19539 0.80355 0.0
N620 N 0.5449 0.279 0.71848 0.0
N621 N 0.52727 0.20323 0.77336 0.0
H622 H 0.28796 0.45116 0.84956 0.0
H623 H 0.24172 0.57038 0.70161 0.0
H624 H 0.30776 0.56737 0.84515 0.0
H625 H 0.20301 0.46053 0.71785 0.0
H626 H 0.27778 0.56707 0.74876 0.0
H627 H 0.26985 0.45164 0.79622 0.0
C628 C 0.28903 0.47679 0.83718 0.0
C629 C 0.29906 0.50935 0.85195 0.0
C630 C 0.26183 0.54354 0.74173 0.0
C631 C 0.27752 0.51024 0.79063 0.0
C632 C 0.2414 0.54526 0.7147 0.0
C633 C 0.21903 0.51572 0.70582 0.0
C634 C 0.26022 0.51188 0.75984 0.0
C635 C 0.21956 0.48405 0.72386 0.0
C636 C 0.27853 0.47705 0.80667 0.0
C637 C 0.30028 0.54165 0.83464 0.0
N638 N 0.23958 0.48308 0.74999 0.0
N639 N 0.28907 0.5414 0.80495 0.0
H640 H 0.0941 0.55839 0.00756 0.0
H641 H 0.92179 0.42534 0.98497 0.0
H642 H 0.00807 0.54546 0.07416 0.0
H643 H 0.01709 0.42174 0.92683 0.0
H644 H 0.9536 0.46868 0.01813 0.0
H645 H 0.06708 0.50835 0.97782 0.0
C646 C 0.06967 0.54496 0.01605 0.0
C647 C 0.05334 0.55641 0.04344 0.0
C648 C 0.96777 0.45818 0.99831 0.0
C649 C 0.02204 0.49907 0.00927 0.0
C650 C 0.9496 0.43332 0.97933 0.0
C651 C 0.96671 0.41977 0.95299 0.0
C652 C 1.00329 0.47018 0.99081 0.0
C653 C 1.00283 0.43125 0.94695 0.0
C654 C 0.05427 0.5163 0.99905 0.0
C655 C 0.02169 0.53776 0.05323 0.0
N656 N 0.01974 0.45604 0.96549 0.0
N657 N 0.00701 0.51034 0.0361 0.0
H658 H 0.07378 0.92912 0.97573 0.0
H659 H 0.90863 0.05009 0.0437 0.0
H660 H 0.02844 0.02442 0.93149 0.0
H661 H 0.95676 0.95875 0.09155 0.0
H662 H 0.94901 0.03753 1.00054 0.0
H663 H 0.02841 0.93629 0.01663 0.0
C664 C 0.05425 0.95143 0.97451 0.0
C665 C 0.05515 0.97626 0.9501 0.0
C666 C 0.9506 0.02004 0.02038 0.0
C667 C 1.00305 0.98465 0.9969 0.0
C668 C 0.92738 0.02712 0.04505 0.0
C669 C 0.92928 0.00558 0.07148 0.0
C670 C 0.97611 0.99117 0.02197 0.0
C671 C 0.9543 0.9762 0.07175 0.0
C672 C 0.02834 0.95553 0.99789 0.0
C673 C 0.02902 1.00463 0.94982 0.0
N674 N 0.97681 0.97002 0.04752 0.0
N675 N 1.00425 0.00807 0.97279 0.0
H676 H 0.5444 0.94437 0.07142 0.0
H677 H 0.45582 0.05906 0.93383 0.0
H678 H 0.4319 0.93186 0.04259 0.0
H679 H 0.5688 0.06971 0.96186 0.0
H680 H 0.44638 0.01336 0.97366 0.0
H681 H 0.55346 0.99035 0.03186 0.0
C682 C 0.5215 0.95119 0.05676 0.0
C683 C 0.48724 0.93394 0.06054 0.0
C684 C 0.47324 0.02567 0.97119 0.0
C685 C 0.49762 0.98725 0.01476 0.0
C686 C 0.47872 0.05193 0.94839 0.0
C687 C 0.51326 0.0685 0.94429 0.0
C688 C 0.50245 0.01559 0.99031 0.0
C689 C 0.5417 0.05786 0.96404 0.0
C690 C 0.52677 0.97761 0.03409 0.0
C691 C 0.45879 0.94424 0.04064 0.0
N692 N 0.53568 0.03216 0.98607 0.0
N693 N 0.4646 0.97014 0.01872 0.0
H694 H 0.44094 0.4768 0.95959 0.0
H695 H 0.58621 0.56566 0.07308 0.0
H696 H 0.45966 0.59343 0.96142 0.0
H697 H 0.58988 0.45271 0.04435 0.0
H698 H 0.53846 0.57734 0.03481 0.0
H699 H 0.49294 0.46821 0.99369 0.0
C700 C 0.45593 0.50072 0.96721 0.0
C701 C 0.44572 0.53595 0.95759 0.0
C702 C 0.55005 0.55013 0.03671 0.0
C703 C 0.50571 0.52617 0.99703 0.0
C704 C 0.57735 0.54341 0.05853 0.0
C705 C 0.59218 0.50809 0.06207 0.0
C706 C 0.53698 0.52121 0.01861 0.0
C707 C 0.57945 0.48038 0.04253 0.0
C708 C 0.48585 0.49572 0.9866 0.0
C709 C 0.46653 0.56578 0.9682 0.0
N710 N 0.55241 0.48744 0.02198 0.0
N711 N 0.49537 0.56025 0.98755 0.0
H712 H 0.98787 0.9264 0.42187 0.0
H713 H 0.00769 0.04775 0.57357 0.0
H714 H 0.08473 0.92869 0.47834 0.0
H715 H 0.91655 0.05822 0.51143 0.0
H716 H 0.03307 0.99937 0.5415 0.0
H717 H 0.95809 0.96944 0.45701 0.0
C718 C 1.00272 0.93552 0.44184 0.0
C719 C 0.03897 0.92389 0.44705 0.0
C720 C 0.00744 0.01212 0.53487 0.0
C721 C 1.00507 0.97344 0.4873 0.0
C722 C 0.99286 0.03981 0.55325 0.0
C723 C 0.95993 0.05737 0.54521 0.0
C724 C 0.98905 1.00159 0.50814 0.0
C725 C 0.94206 0.04566 0.51854 0.0
C726 C 0.98576 0.96029 0.4618 0.0
C727 C 0.05686 0.93693 0.47325 0.0
N728 N 0.95686 0.01862 0.50096 0.0
N729 N 0.03983 0.96097 0.49224 0.0
H730 H 0.55645 0.09137 0.46753 0.0
H731 H 0.40652 0.95525 0.53981 0.0
H732 H 0.53712 0.98085 0.43667 0.0
H733 H 0.43235 0.06068 0.57867 0.0
H734 H 0.45009 0.96728 0.49881 0.0
H735 H 0.50765 0.08347 0.50562 0.0
C736 C 0.54193 0.06553 0.46865 0.0
C737 C 0.55113 0.03671 0.44885 0.0
C738 C 0.44609 0.98794 0.51616 0.0
C739 C 0.49512 0.02751 0.49235 0.0
C740 C 0.42099 0.98115 0.53958 0.0
C741 C 0.41571 0.00689 0.56294 0.0
C742 C 0.46624 0.02079 0.51588 0.0
C743 C 0.43549 0.03994 0.56127 0.0
C744 C 0.51407 0.06102 0.49042 0.0
C745 C 0.53124 1.00386 0.45142 0.0
N746 N 0.45995 0.04585 0.5383 0.0
N747 N 0.50438 1.0002 0.47268 0.0
H748 H 0.57814 0.44669 0.55706 0.0
H749 H 0.43722 0.55063 0.44528 0.0
H750 H 0.46785 0.40946 0.53923 0.0
H751 H 0.54823 0.58699 0.46118 0.0
H752 H 0.44774 0.49933 0.48014 0.0
H753 H 0.5679 0.49817 0.52221 0.0
C754 C 0.55185 0.44914 0.54573 0.0
C755 C 0.52388 0.42347 0.5512 0.0
C756 C 0.4698 0.51857 0.47608 0.0
C757 C 0.51181 0.48279 0.51125 0.0
C758 C 0.46375 0.54802 0.45619 0.0
C759 C 0.49182 0.57339 0.45017 0.0
C760 C 0.50422 0.51424 0.4902 0.0
C761 C 0.52568 0.56827 0.46503 0.0
C762 C 0.54597 0.47868 0.52586 0.0
C763 C 0.49032 0.42839 0.53584 0.0
N764 N 0.53091 0.5394 0.48423 0.0
N765 N 0.48525 0.45735 0.51672 0.0
H766 H 0.94705 0.53861 0.45231 0.0
H767 H 0.06917 0.4508 0.58276 0.0
H768 H 0.95244 0.42156 0.46458 0.0
H769 H 0.09239 0.5565 0.54349 0.0
H770 H 0.02485 0.43926 0.54179 0.0
H771 H 0.99781 0.54587 0.48802 0.0
C772 C 0.95891 0.51434 0.46253 0.0
C773 C 0.94526 0.47938 0.45546 0.0
C774 C 0.04 0.46476 0.54195 0.0
C775 C 1.0036 0.48765 0.49682 0.0
C776 C 0.06533 0.47141 0.56533 0.0
C777 C 0.08458 0.50475 0.56669 0.0
C778 C 0.03323 0.49193 0.52005 0.0
C779 C 0.07836 0.53039 0.54341 0.0
C780 C 0.98811 0.51855 0.48282 0.0
C781 C 0.96208 0.44901 0.46932 0.0
N782 N 0.05292 0.52366 0.52138 0.0
N783 N 0.99009 0.45386 0.48961 0.0
loop_
_geom_bond_atom_site_label_1
_geom_bond_atom_site_label_2
_geom_bond_distance
_geom_bond_site_symmetry_2
_ccdc_geom_bond_type
Mg0 O7 2.141 . S
Mg0 O8 2.048 . S
Mg0 O9 2.048 . S
Mg0 O12 2.141 . S
C1 O2 1.313 . S
C1 O8 1.195 1_655 S
O2 C1 1.313 . S
C3 O4 1.245 . S
C3 O12 1.289 . S
O4 C3 1.245 . S
C5 O6 1.245 . S
C5 O7 1.289 . S
O6 C5 1.245 . S
O7 Mg0 2.141 . S
O7 C5 1.289 . S
O8 Mg0 2.048 . S
O8 C1 1.195 1_455 S
O9 Mg0 2.048 . S
O9 C10 1.195 . S
C10 O9 1.195 . S
C10 O11 1.313 . S
O11 C10 1.313 . S
O12 Mg0 2.141 . S
O12 C3 1.289 . S
Mg13 O20 2.141 . S
Mg13 O21 2.048 . S
Mg13 O22 2.048 . S
Mg13 O25 2.141 . S
C14 O15 1.313 . S
C14 O21 1.195 1_565 S
O15 C14 1.313 . S
C16 O17 1.245 . S
C16 O25 1.289 . S
O17 C16 1.245 . S
C18 O19 1.245 . S
C18 O20 1.289 . S
O19 C18 1.245 . S
O20 Mg13 2.141 . S
O20 C18 1.289 . S
O21 Mg13 2.048 . S
O21 C14 1.195 1_545 S
O22 Mg13 2.048 . S
O22 C23 1.195 . S
C23 O22 1.195 . S
C23 O24 1.313 . S
O24 C23 1.313 . S
O25 Mg13 2.141 . S
O25 C16 1.289 . S
Mg26 O33 2.141 . S
Mg26 O34 2.048 . S
Mg26 O35 2.048 . S
Mg26 O38 2.141 . S
C27 O28 1.313 . S
C27 O34 1.195 . S
O28 C27 1.313 . S
C29 O30 1.245 . S
C29 O38 1.289 . S
O30 C29 1.245 . S
C31 O32 1.245 . S
C31 O33 1.289 . S
O32 C31 1.245 . S
O33 Mg26 2.141 . S
O33 C31 1.289 . S
O34 Mg26 2.048 . S
O34 C27 1.195 . S
O35 Mg26 2.048 . S
O35 C36 1.195 . S
C36 O35 1.195 . S
C36 O37 1.313 . S
O37 C36 1.313 . S
O38 Mg26 2.141 . S
O38 C29 1.289 . S
Mg39 O46 2.141 . S
Mg39 O47 2.048 . S
Mg39 O48 2.048 . S
Mg39 O51 2.141 . S
C40 O41 1.313 . S
C40 O47 1.195 . S
O41 C40 1.313 . S
C42 O43 1.245 . S
C42 O51 1.289 . S
O43 C42 1.245 . S
C44 O45 1.245 . S
C44 O46 1.289 . S
O45 C44 1.245 . S
O46 Mg39 2.141 . S
O46 C44 1.289 . S
O47 Mg39 2.048 . S
O47 C40 1.195 . S
O48 Mg39 2.048 . S
O48 C49 1.195 . S
C49 O48 1.195 . S
C49 O50 1.313 . S
O50 C49 1.313 . S
O51 Mg39 2.141 . S
O51 C42 1.289 . S
Mg52 O59 2.141 . S
Mg52 O60 2.048 . S
Mg52 O61 2.048 . S
Mg52 O64 2.141 . S
C53 O54 1.313 . S
C53 O60 1.195 1_655 S
O54 C53 1.313 . S
C55 O56 1.245 . S
C55 O64 1.289 . S
O56 C55 1.245 . S
C57 O58 1.245 . S
C57 O59 1.289 . S
O58 C57 1.245 . S
O59 Mg52 2.141 . S
O59 C57 1.289 . S
O60 Mg52 2.048 . S
O60 C53 1.195 1_455 S
O61 Mg52 2.048 . S
O61 C62 1.195 . S
C62 O61 1.195 . S
C62 O63 1.313 . S
O63 C62 1.313 . S
O64 Mg52 2.141 . S
O64 C55 1.289 . S
Mg65 O72 2.141 . S
Mg65 O73 2.048 . S
Mg65 O74 2.048 . S
Mg65 O77 2.141 . S
C66 O67 1.313 . S
C66 O73 1.195 1_565 S
O67 C66 1.313 . S
C68 O69 1.245 . S
C68 O77 1.289 . S
O69 C68 1.245 . S
C70 O71 1.245 . S
C70 O72 1.289 . S
O71 C70 1.245 . S
O72 Mg65 2.141 . S
O72 C70 1.289 . S
O73 Mg65 2.048 . S
O73 C66 1.195 1_545 S
O74 Mg65 2.048 . S
O74 C75 1.195 . S
C75 O74 1.195 . S
C75 O76 1.313 . S
O76 C75 1.313 . S
O77 Mg65 2.141 . S
O77 C68 1.289 . S
Mg78 O85 2.141 . S
Mg78 O86 2.048 . S
Mg78 O87 2.048 . S
Mg78 O90 2.141 . S
C79 O80 1.313 . S
C79 O86 1.195 . S
O80 C79 1.313 . S
C81 O82 1.245 . S
C81 O90 1.289 . S
O82 C81 1.245 . S
C83 O84 1.245 . S
C83 O85 1.289 . S
O84 C83 1.245 . S
O85 Mg78 2.141 . S
O85 C83 1.289 . S
O86 Mg78 2.048 . S
O86 C79 1.195 . S
O87 Mg78 2.048 . S
O87 C88 1.195 . S
C88 O87 1.195 . S
C88 O89 1.313 . S
O89 C88 1.313 . S
O90 Mg78 2.141 . S
O90 C81 1.289 . S
Mg91 O98 2.141 . S
Mg91 O99 2.048 . S
Mg91 O100 2.048 . S
Mg91 O103 2.141 . S
C92 O93 1.313 . S
C92 O99 1.195 . S
O93 C92 1.313 . S
C94 O95 1.245 . S
C94 O103 1.289 . S
O95 C94 1.245 . S
C96 O97 1.245 . S
C96 O98 1.289 . S
O97 C96 1.245 . S
O98 Mg91 2.141 . S
O98 C96 1.289 . S
O99 Mg91 2.048 . S
O99 C92 1.195 . S
O100 Mg91 2.048 . S
O100 C101 1.195 . S
C101 O100 1.195 . S
C101 O102 1.313 . S
O102 C101 1.313 . S
O103 Mg91 2.141 . S
O103 C94 1.289 . S
Mg104 O111 2.141 . S
Mg104 O112 2.048 . S
Mg104 O113 2.048 . S
Mg104 O116 2.141 . S
C105 O106 1.313 . S
C105 O112 1.195 . S
O106 C105 1.313 . S
C107 O108 1.245 . S
C107 O116 1.289 . S
O108 C107 1.245 . S
C109 O110 1.245 . S
C109 O111 1.289 . S
O110 C109 1.245 . S
O111 Mg104 2.141 . S
O111 C109 1.289 . S
O112 Mg104 2.048 . S
O112 C105 1.195 . S
O113 Mg104 2.048 . S
O113 C114 1.195 1_655 S
C114 O113 1.195 1_455 S
C114 O115 1.313 . S
O115 C114 1.313 . S
O116 Mg104 2.141 . S
O116 C107 1.289 . S
Mg117 O124 2.141 . S
Mg117 O125 2.048 . S
Mg117 O126 2.048 . S
Mg117 O129 2.141 . S
C118 O119 1.313 . S
C118 O125 1.195 . S
O119 C118 1.313 . S
C120 O121 1.245 . S
C120 O129 1.289 . S
O121 C120 1.245 . S
C122 O123 1.245 . S
C122 O124 1.289 . S
O123 C122 1.245 . S
O124 Mg117 2.141 . S
O124 C122 1.289 . S
O125 Mg117 2.048 . S
O125 C118 1.195 . S
O126 Mg117 2.048 . S
O126 C127 1.195 1_565 S
C127 O126 1.195 1_545 S
C127 O128 1.313 . S
O128 C127 1.313 . S
O129 Mg117 2.141 . S
O129 C120 1.289 . S
Mg130 O137 2.141 . S
Mg130 O138 2.048 . S
Mg130 O139 2.048 . S
Mg130 O142 2.141 . S
C131 O132 1.313 . S
C131 O138 1.195 . S
O132 C131 1.313 . S
C133 O134 1.245 . S
C133 O142 1.289 . S
O134 C133 1.245 . S
C135 O136 1.245 . S
C135 O137 1.289 . S
O136 C135 1.245 . S
O137 Mg130 2.141 . S
O137 C135 1.289 . S
O138 Mg130 2.048 . S
O138 C131 1.195 . S
O139 Mg130 2.048 . S
O139 C140 1.195 . S
C140 O139 1.195 . S
C140 O141 1.313 . S
O141 C140 1.313 . S
O142 Mg130 2.141 . S
O142 C133 1.289 . S
Mg143 O150 2.141 . S
Mg143 O151 2.048 . S
Mg143 O152 2.048 . S
Mg143 O155 2.141 . S
C144 O145 1.313 . S
C144 O151 1.195 . S
O145 C144 1.313 . S
C146 O147 1.245 . S
C146 O155 1.289 . S
O147 C146 1.245 . S
C148 O149 1.245 . S
C148 O150 1.289 . S
O149 C148 1.245 . S
O150 Mg143 2.141 . S
O150 C148 1.289 . S
O151 Mg143 2.048 . S
O151 C144 1.195 . S
O152 Mg143 2.048 . S
O152 C153 1.195 . S
C153 O152 1.195 . S
C153 O154 1.313 . S
O154 C153 1.313 . S
O155 Mg143 2.141 . S
O155 C146 1.289 . S
Mg156 O163 2.141 . S
Mg156 O164 2.048 . S
Mg156 O165 2.048 . S
Mg156 O168 2.141 . S
C157 O158 1.313 . S
C157 O164 1.195 . S
O158 C157 1.313 . S
C159 O160 1.245 . S
C159 O168 1.289 . S
O160 C159 1.245 . S
C161 O162 1.245 . S
C161 O163 1.289 . S
O162 C161 1.245 . S
O163 Mg156 2.141 . S
O163 C161 1.289 . S
O164 Mg156 2.048 . S
O164 C157 1.195 . S
O165 Mg156 2.048 . S
O165 C166 1.195 1_655 S
C166 O165 1.195 1_455 S
C166 O167 1.313 . S
O167 C166 1.313 . S
O168 Mg156 2.141 . S
O168 C159 1.289 . S
Mg169 O176 2.141 . S
Mg169 O177 2.048 . S
Mg169 O178 2.048 . S
Mg169 O181 2.141 . S
C170 O171 1.313 . S
C170 O177 1.195 . S
O171 C170 1.313 . S
C172 O173 1.245 . S
C172 O181 1.289 . S
O173 C172 1.245 . S
C174 O175 1.245 . S
C174 O176 1.289 . S
O175 C174 1.245 . S
O176 Mg169 2.141 . S
O176 C174 1.289 . S
O177 Mg169 2.048 . S
O177 C170 1.195 . S
O178 Mg169 2.048 . S
O178 C179 1.195 1_565 S
C179 O178 1.195 1_545 S
C179 O180 1.313 . S
O180 C179 1.313 . S
O181 Mg169 2.141 . S
O181 C172 1.289 . S
Mg182 O189 2.141 . S
Mg182 O190 2.048 . S
Mg182 O191 2.048 . S
Mg182 O194 2.141 . S
C183 O184 1.313 . S
C183 O190 1.195 . S
O184 C183 1.313 . S
C185 O186 1.245 . S
C185 O194 1.289 . S
O186 C185 1.245 . S
C187 O188 1.245 . S
C187 O189 1.289 . S
O188 C187 1.245 . S
O189 Mg182 2.141 . S
O189 C187 1.289 . S
O190 Mg182 2.048 . S
O190 C183 1.195 . S
O191 Mg182 2.048 . S
O191 C192 1.195 . S
C192 O191 1.195 . S
C192 O193 1.313 . S
O193 C192 1.313 . S
O194 Mg182 2.141 . S
O194 C185 1.289 . S
Mg195 O202 2.141 . S
Mg195 O203 2.048 . S
Mg195 O204 2.048 . S
Mg195 O207 2.141 . S
C196 O197 1.313 . S
C196 O203 1.195 . S
O197 C196 1.313 . S
C198 O199 1.245 . S
C198 O207 1.289 . S
O199 C198 1.245 . S
C200 O201 1.245 . S
C200 O202 1.289 . S
O201 C200 1.245 . S
O202 Mg195 2.141 . S
O202 C200 1.289 . S
O203 Mg195 2.048 . S
O203 C196 1.195 . S
O204 Mg195 2.048 . S
O204 C205 1.195 . S
C205 O204 1.195 . S
C205 O206 1.313 . S
O206 C205 1.313 . S
O207 Mg195 2.141 . S
O207 C198 1.289 . S
H208 C214 0.930 . S
H209 C218 0.930 . S
H210 C223 0.929 . S
H211 C221 0.929 . S
H212 C216 0.929 . S
H213 C222 0.929 . S
C214 H208 0.930 . S
C214 C215 1.367 . S
C214 C222 1.378 . S
C215 C214 1.367 . S
C215 C223 1.433 . S
C216 H212 0.929 . S
C216 C218 1.378 . S
C216 C220 1.350 . S
C217 C220 1.463 . S
C217 C222 1.350 . S
C217 N225 1.427 . S
C218 H209 0.930 . S
C218 C216 1.378 . S
C218 C219 1.367 . S
C219 C218 1.367 . S
C219 C221 1.433 . S
C220 C216 1.350 . S
C220 C217 1.463 . S
C220 N224 1.427 . S
C221 H211 0.929 . S
C221 C219 1.433 . S
C221 N224 1.384 . S
C222 H213 0.929 . S
C222 C214 1.378 . S
C222 C217 1.350 . S
C223 H210 0.929 . S
C223 C215 1.433 . S
C223 N225 1.384 . S
N224 C220 1.427 . S
N224 C221 1.384 . S
N225 C217 1.427 . S
N225 C223 1.384 . S
H226 C232 0.930 . S
H227 C236 0.930 . S
H228 C241 0.929 . S
H229 C239 0.929 . S
H230 C234 0.929 . S
H231 C240 0.929 . S
C232 H226 0.930 . S
C232 C233 1.367 . S
C232 C240 1.378 . S
C233 C232 1.367 . S
C233 C241 1.433 . S
C234 H230 0.929 . S
C234 C236 1.378 . S
C234 C238 1.350 . S
C235 C238 1.463 . S
C235 C240 1.350 . S
C235 N243 1.427 . S
C236 H227 0.930 . S
C236 C234 1.378 . S
C236 C237 1.367 . S
C237 C236 1.367 . S
C237 C239 1.433 . S
C238 C234 1.350 . S
C238 C235 1.463 . S
C238 N242 1.427 . S
C239 H229 0.929 . S
C239 C237 1.433 . S
C239 N242 1.384 . S
C240 H231 0.929 . S
C240 C232 1.378 . S
C240 C235 1.350 . S
C241 H228 0.929 . S
C241 C233 1.433 . S
C241 N243 1.384 . S
N242 C238 1.427 . S
N242 C239 1.384 . S
N243 C235 1.427 . S
N243 C241 1.384 . S
H244 C250 0.930 . S
H245 C254 0.930 . S
H246 C259 0.929 . S
H247 C257 0.929 . S
H248 C252 0.929 . S
H249 C258 0.929 . S
C250 H244 0.930 . S
C250 C251 1.367 . S
C250 C258 1.378 . S
C251 C250 1.367 . S
C251 C259 1.433 . S
C252 H248 0.929 . S
C252 C254 1.378 . S
C252 C256 1.350 . S
C253 C256 1.463 . S
C253 C258 1.350 . S
C253 N261 1.427 . S
C254 H245 0.930 . S
C254 C252 1.378 . S
C254 C255 1.367 . S
C255 C254 1.367 . S
C255 C257 1.433 . S
C256 C252 1.350 . S
C256 C253 1.463 . S
C256 N260 1.427 . S
C257 H247 0.929 . S
C257 C255 1.433 . S
C257 N260 1.384 . S
C258 H249 0.929 . S
C258 C250 1.378 . S
C258 C253 1.350 . S
C259 H246 0.929 . S
C259 C251 1.433 . S
C259 N261 1.384 . S
N260 C256 1.427 . S
N260 C257 1.384 . S
N261 C253 1.427 . S
N261 C259 1.384 . S
H262 C268 0.930 . S
H263 C272 0.930 . S
H264 C277 0.929 . S
H265 C275 0.929 . S
H266 C270 0.929 . S
H267 C276 0.929 . S
C268 H262 0.930 . S
C268 C269 1.367 . S
C268 C276 1.378 . S
C269 C268 1.367 . S
C269 C277 1.433 . S
C270 H266 0.929 . S
C270 C272 1.378 . S
C270 C274 1.350 . S
C271 C274 1.463 . S
C271 C276 1.350 . S
C271 N279 1.427 . S
C272 H263 0.930 . S
C272 C270 1.378 . S
C272 C273 1.367 . S
C273 C272 1.367 . S
C273 C275 1.433 . S
C274 C270 1.350 . S
C274 C271 1.463 . S
C274 N278 1.427 . S
C275 H265 0.929 . S
C275 C273 1.433 . S
C275 N278 1.384 . S
C276 H267 0.929 . S
C276 C268 1.378 . S
C276 C271 1.350 . S
C277 H264 0.929 . S
C277 C269 1.433 . S
C277 N279 1.384 . S
N278 C274 1.427 . S
N278 C275 1.384 . S
N279 C271 1.427 . S
N279 C277 1.384 . S
H280 C286 0.930 . S
H281 C290 0.930 . S
H282 C295 0.929 . S
H283 C293 0.929 . S
H284 C288 0.929 . S
H285 C294 0.929 . S
C286 H280 0.930 . S
C286 C287 1.367 . S
C286 C294 1.378 . S
C287 C286 1.367 . S
C287 C295 1.433 . S
C288 H284 0.929 . S
C288 C290 1.378 . S
C288 C292 1.350 . S
C289 C292 1.463 . S
C289 C294 1.350 . S
C289 N297 1.427 . S
C290 H281 0.930 . S
C290 C288 1.378 . S
C290 C291 1.367 . S
C291 C290 1.367 . S
C291 C293 1.433 . S
C292 C288 1.350 . S
C292 C289 1.463 . S
C292 N296 1.427 . S
C293 H283 0.929 . S
C293 C291 1.433 . S
C293 N296 1.384 . S
C294 H285 0.929 . S
C294 C286 1.378 . S
C294 C289 1.350 . S
C295 H282 0.929 . S
C295 C287 1.433 . S
C295 N297 1.384 . S
N296 C292 1.427 . S
N296 C293 1.384 . S
N297 C289 1.427 . S
N297 C295 1.384 . S
H298 C304 0.930 . S
H299 C308 0.930 . S
H300 C313 0.929 . S
H301 C311 0.929 . S
H302 C306 0.929 . S
H303 C312 0.929 . S
C304 H298 0.930 . S
C304 C305 1.367 . S
C304 C312 1.378 . S
C305 C304 1.367 . S
C305 C313 1.433 . S
C306 H302 0.929 . S
C306 C308 1.378 . S
C306 C310 1.350 . S
C307 C310 1.463 . S
C307 C312 1.350 . S
C307 N315 1.427 . S
C308 H299 0.930 . S
C308 C306 1.378 . S
C308 C309 1.367 . S
C309 C308 1.367 . S
C309 C311 1.433 . S
C310 C306 1.350 . S
C310 C307 1.463 . S
C310 N314 1.427 . S
C311 H301 0.929 . S
C311 C309 1.433 . S
C311 N314 1.384 . S
C312 H303 0.929 . S
C312 C304 1.378 . S
C312 C307 1.350 . S
C313 H300 0.929 . S
C313 C305 1.433 . S
C313 N315 1.384 . S
N314 C310 1.427 . S
N314 C311 1.384 . S
N315 C307 1.427 . S
N315 C313 1.384 . S
H316 C322 0.930 . S
H317 C326 0.930 . S
H318 C331 0.929 . S
H319 C329 0.929 . S
H320 C324 0.929 . S
H321 C330 0.929 . S
C322 H316 0.930 . S
C322 C323 1.367 . S
C322 C330 1.378 . S
C323 C322 1.367 . S
C323 C331 1.433 . S
C324 H320 0.929 . S
C324 C326 1.378 . S
C324 C328 1.350 . S
C325 C328 1.463 . S
C325 C330 1.350 . S
C325 N333 1.427 . S
C326 H317 0.930 . S
C326 C324 1.378 . S
C326 C327 1.367 . S
C327 C326 1.367 . S
C327 C329 1.433 . S
C328 C324 1.350 . S
C328 C325 1.463 . S
C328 N332 1.427 . S
C329 H319 0.929 . S
C329 C327 1.433 . S
C329 N332 1.384 . S
C330 H321 0.929 . S
C330 C322 1.378 . S
C330 C325 1.350 . S
C331 H318 0.929 . S
C331 C323 1.433 . S
C331 N333 1.384 . S
N332 C328 1.427 . S
N332 C329 1.384 . S
N333 C325 1.427 . S
N333 C331 1.384 . S
H334 C340 0.930 . S
H335 C344 0.930 . S
H336 C349 0.929 . S
H337 C347 0.929 . S
H338 C342 0.929 . S
H339 C348 0.929 . S
C340 H334 0.930 . S
C340 C341 1.367 . S
C340 C348 1.378 . S
C341 C340 1.367 . S
C341 C349 1.433 . S
C342 H338 0.929 . S
C342 C344 1.378 . S
C342 C346 1.350 . S
C343 C346 1.463 . S
C343 C348 1.350 . S
C343 N351 1.427 . S
C344 H335 0.930 . S
C344 C342 1.378 . S
C344 C345 1.367 . S
C345 C344 1.367 . S
C345 C347 1.433 . S
C346 C342 1.350 . S
C346 C343 1.463 . S
C346 N350 1.427 . S
C347 H337 0.929 . S
C347 C345 1.433 . S
C347 N350 1.384 . S
C348 H339 0.929 . S
C348 C340 1.378 . S
C348 C343 1.350 . S
C349 H336 0.929 . S
C349 C341 1.433 . S
C349 N351 1.384 . S
N350 C346 1.427 . S
N350 C347 1.384 . S
N351 C343 1.427 . S
N351 C349 1.384 . S
H352 C358 0.930 . S
H353 C362 0.930 . S
H354 C367 0.929 . S
H355 C365 0.929 . S
H356 C360 0.929 . S
H357 C366 0.929 . S
C358 H352 0.930 . S
C358 C359 1.367 . S
C358 C366 1.378 . S
C359 C358 1.367 . S
C359 C367 1.433 . S
C360 H356 0.929 . S
C360 C362 1.378 . S
C360 C364 1.350 . S
C361 C364 1.463 . S
C361 C366 1.350 . S
C361 N369 1.427 . S
C362 H353 0.930 . S
C362 C360 1.378 . S
C362 C363 1.367 . S
C363 C362 1.367 . S
C363 C365 1.433 . S
C364 C360 1.350 . S
C364 C361 1.463 . S
C364 N368 1.427 . S
C365 H355 0.929 . S
C365 C363 1.433 . S
C365 N368 1.384 . S
C366 H357 0.929 . S
C366 C358 1.378 . S
C366 C361 1.350 . S
C367 H354 0.929 . S
C367 C359 1.433 . S
C367 N369 1.384 . S
N368 C364 1.427 . S
N368 C365 1.384 . S
N369 C361 1.427 . S
N369 C367 1.384 . S
H370 C376 0.930 . S
H371 C380 0.930 . S
H372 C385 0.929 . S
H373 C383 0.929 . S
H374 C378 0.929 . S
H375 C384 0.929 . S
C376 H370 0.930 . S
C376 C377 1.367 . S
C376 C384 1.378 . S
C377 C376 1.367 . S
C377 C385 1.433 . S
C378 H374 0.929 . S
C378 C380 1.378 . S
C378 C382 1.350 . S
C379 C382 1.463 . S
C379 C384 1.350 . S
C379 N387 1.427 . S
C380 H371 0.930 . S
C380 C378 1.378 . S
C380 C381 1.367 . S
C381 C380 1.367 . S
C381 C383 1.433 . S
C382 C378 1.350 . S
C382 C379 1.463 . S
C382 N386 1.427 . S
C383 H373 0.929 . S
C383 C381 1.433 . S
C383 N386 1.384 . S
C384 H375 0.929 . S
C384 C376 1.378 . S
C384 C379 1.350 . S
C385 H372 0.929 . S
C385 C377 1.433 . S
C385 N387 1.384 . S
N386 C382 1.427 . S
N386 C383 1.384 . S
N387 C379 1.427 . S
N387 C385 1.384 . S
H388 C394 0.930 . S
H389 C398 0.930 . S
H390 C403 0.929 1_545 S
H391 C401 0.929 . S
H392 C396 0.929 . S
H393 C402 0.929 . S
C394 H388 0.930 . S
C394 C395 1.367 . S
C394 C402 1.378 . S
C395 C394 1.367 . S
C395 C403 1.433 . S
C396 H392 0.929 . S
C396 C398 1.378 . S
C396 C400 1.350 . S
C397 C400 1.463 . S
C397 C402 1.350 . S
C397 N405 1.427 . S
C398 H389 0.930 . S
C398 C396 1.378 . S
C398 C399 1.367 . S
C399 C398 1.367 . S
C399 C401 1.433 . S
C400 C396 1.350 . S
C400 C397 1.463 . S
C400 N404 1.427 . S
C401 H391 0.929 . S
C401 C399 1.433 . S
C401 N404 1.384 . S
C402 H393 0.929 . S
C402 C394 1.378 . S
C402 C397 1.350 . S
C403 H390 0.929 1_565 S
C403 C395 1.433 . S
C403 N405 1.384 . S
N404 C400 1.427 . S
N404 C401 1.384 . S
N405 C397 1.427 . S
N405 C403 1.384 . S
H406 C412 0.930 . S
H407 C416 0.930 . S
H408 C421 0.929 . S
H409 C419 0.929 . S
H410 C414 0.929 . S
H411 C420 0.929 . S
C412 H406 0.930 . S
C412 C413 1.367 . S
C412 C420 1.378 . S
C413 C412 1.367 . S
C413 C421 1.433 . S
C414 H410 0.929 . S
C414 C416 1.378 . S
C414 C418 1.350 . S
C415 C418 1.463 . S
C415 C420 1.350 . S
C415 N423 1.427 . S
C416 H407 0.930 . S
C416 C414 1.378 . S
C416 C417 1.367 . S
C417 C416 1.367 . S
C417 C419 1.433 . S
C418 C414 1.350 . S
C418 C415 1.463 . S
C418 N422 1.427 . S
C419 H409 0.929 . S
C419 C417 1.433 . S
C419 N422 1.384 . S
C420 H411 0.929 . S
C420 C412 1.378 . S
C420 C415 1.350 . S
C421 H408 0.929 . S
C421 C413 1.433 . S
C421 N423 1.384 . S
N422 C418 1.427 . S
N422 C419 1.384 . S
N423 C415 1.427 . S
N423 C421 1.384 . S
H424 C430 0.930 . S
H425 C434 0.930 . S
H426 C439 0.929 . S
H427 C437 0.929 1_655 S
H428 C432 0.929 . S
H429 C438 0.929 . S
C430 H424 0.930 . S
C430 C431 1.367 . S
C430 C438 1.378 . S
C431 C430 1.367 . S
C431 C439 1.433 . S
C432 H428 0.929 . S
C432 C434 1.378 . S
C432 C436 1.350 . S
C433 C436 1.463 . S
C433 C438 1.350 . S
C433 N441 1.427 . S
C434 H425 0.930 . S
C434 C432 1.378 . S
C434 C435 1.367 . S
C435 C434 1.367 . S
C435 C437 1.433 . S
C436 C432 1.350 . S
C436 C433 1.463 . S
C436 N440 1.427 . S
C437 H427 0.929 1_455 S
C437 C435 1.433 . S
C437 N440 1.384 . S
C438 H429 0.929 . S
C438 C430 1.378 . S
C438 C433 1.350 . S
C439 H426 0.929 . S
C439 C431 1.433 . S
C439 N441 1.384 . S
N440 C436 1.427 . S
N440 C437 1.384 . S
N441 C433 1.427 . S
N441 C439 1.384 . S
H442 C448 0.930 . S
H443 C452 0.930 1_655 S
H444 C457 0.929 . S
H445 C455 0.929 . S
H446 C450 0.929 . S
H447 C456 0.929 . S
C448 H442 0.930 . S
C448 C449 1.367 . S
C448 C456 1.378 . S
C449 C448 1.367 . S
C449 C457 1.433 . S
C450 H446 0.929 . S
C450 C452 1.378 . S
C450 C454 1.350 . S
C451 C454 1.463 . S
C451 C456 1.350 . S
C451 N459 1.427 . S
C452 H443 0.930 1_455 S
C452 C450 1.378 . S
C452 C453 1.367 . S
C453 C452 1.367 . S
C453 C455 1.433 . S
C454 C450 1.350 . S
C454 C451 1.463 . S
C454 N458 1.427 . S
C455 H445 0.929 . S
C455 C453 1.433 . S
C455 N458 1.384 . S
C456 H447 0.929 . S
C456 C448 1.378 . S
C456 C451 1.350 . S
C457 H444 0.929 . S
C457 C449 1.433 . S
C457 N459 1.384 . S
N458 C454 1.427 . S
N458 C455 1.384 . S
N459 C451 1.427 . S
N459 C457 1.384 . S
H460 C466 0.930 . S
H461 C470 0.930 . S
H462 C475 0.929 . S
H463 C473 0.929 1_565 S
H464 C468 0.929 . S
H465 C474 0.929 . S
C466 H460 0.930 . S
C466 C467 1.367 . S
C466 C474 1.378 . S
C467 C466 1.367 . S
C467 C475 1.433 . S
C468 H464 0.929 . S
C468 C470 1.378 . S
C468 C472 1.350 . S
C469 C472 1.463 . S
C469 C474 1.350 . S
C469 N477 1.427 . S
C470 H461 0.930 . S
C470 C468 1.378 . S
C470 C471 1.367 . S
C471 C470 1.367 . S
C471 C473 1.433 . S
C472 C468 1.350 . S
C472 C469 1.463 . S
C472 N476 1.427 . S
C473 H463 0.929 1_545 S
C473 C471 1.433 . S
C473 N476 1.384 . S
C474 H465 0.929 . S
C474 C466 1.378 . S
C474 C469 1.350 . S
C475 H462 0.929 . S
C475 C467 1.433 . S
C475 N477 1.384 . S
N476 C472 1.427 . S
N476 C473 1.384 . S
N477 C469 1.427 . S
N477 C475 1.384 . S
H478 C484 0.930 . S
H479 C488 0.930 . S
H480 C493 0.929 . S
H481 C491 0.929 . S
H482 C486 0.929 . S
H483 C492 0.929 . S
C484 H478 0.930 . S
C484 C485 1.367 . S
C484 C492 1.378 . S
C485 C484 1.367 . S
C485 C493 1.433 . S
C486 H482 0.929 . S
C486 C488 1.378 . S
C486 C490 1.350 . S
C487 C490 1.463 . S
C487 C492 1.350 . S
C487 N495 1.427 . S
C488 H479 0.930 . S
C488 C486 1.378 . S
C488 C489 1.367 . S
C489 C488 1.367 . S
C489 C491 1.433 . S
C490 C486 1.350 . S
C490 C487 1.463 . S
C490 N494 1.427 . S
C491 H481 0.929 . S
C491 C489 1.433 . S
C491 N494 1.384 . S
C492 H483 0.929 . S
C492 C484 1.378 . S
C492 C487 1.350 . S
C493 H480 0.929 . S
C493 C485 1.433 . S
C493 N495 1.384 . S
N494 C490 1.427 . S
N494 C491 1.384 . S
N495 C487 1.427 . S
N495 C493 1.384 . S
H496 C502 0.930 . S
H497 C506 0.930 . S
H498 C511 0.929 . S
H499 C509 0.929 . S
H500 C504 0.929 . S
H501 C510 0.929 . S
C502 H496 0.930 . S
C502 C503 1.367 . S
C502 C510 1.378 . S
C503 C502 1.367 . S
C503 C511 1.433 . S
C504 H500 0.929 . S
C504 C506 1.378 . S
C504 C508 1.350 . S
C505 C508 1.463 . S
C505 C510 1.350 . S
C505 N513 1.427 . S
C506 H497 0.930 . S
C506 C504 1.378 . S
C506 C507 1.367 . S
C507 C506 1.367 . S
C507 C509 1.433 . S
C508 C504 1.350 . S
C508 C505 1.463 . S
C508 N512 1.427 . S
C509 H499 0.929 . S
C509 C507 1.433 . S
C509 N512 1.384 . S
C510 H501 0.929 . S
C510 C502 1.378 . S
C510 C505 1.350 . S
C511 H498 0.929 . S
C511 C503 1.433 . S
C511 N513 1.384 . S
N512 C508 1.427 . S
N512 C509 1.384 . S
N513 C505 1.427 . S
N513 C511 1.384 . S
H514 C520 0.930 . S
H515 C524 0.930 . S
H516 C529 0.929 . S
H517 C527 0.929 . S
H518 C522 0.929 . S
H519 C528 0.929 . S
C520 H514 0.930 . S
C520 C521 1.367 . S
C520 C528 1.378 . S
C521 C520 1.367 . S
C521 C529 1.433 . S
C522 H518 0.929 . S
C522 C524 1.378 . S
C522 C526 1.350 . S
C523 C526 1.463 . S
C523 C528 1.350 . S
C523 N531 1.427 . S
C524 H515 0.930 . S
C524 C522 1.378 . S
C524 C525 1.367 . S
C525 C524 1.367 . S
C525 C527 1.433 . S
C526 C522 1.350 . S
C526 C523 1.463 . S
C526 N530 1.427 . S
C527 H517 0.929 . S
C527 C525 1.433 . S
C527 N530 1.384 . S
C528 H519 0.929 . S
C528 C520 1.378 . S
C528 C523 1.350 . S
C529 H516 0.929 . S
C529 C521 1.433 . S
C529 N531 1.384 . S
N530 C526 1.427 . S
N530 C527 1.384 . S
N531 C523 1.427 . S
N531 C529 1.384 . S
H532 C538 0.930 . S
H533 C542 0.930 . S
H534 C547 0.929 . S
H535 C545 0.929 . S
H536 C540 0.929 . S
H537 C546 0.929 . S
C538 H532 0.930 . S
C538 C539 1.367 . S
C538 C546 1.378 . S
C539 C538 1.367 . S
C539 C547 1.433 . S
C540 H536 0.929 . S
C540 C542 1.378 . S
C540 C544 1.350 . S
C541 C544 1.463 . S
C541 C546 1.350 . S
C541 N549 1.427 . S
C542 H533 0.930 . S
C542 C540 1.378 . S
C542 C543 1.367 . S
C543 C542 1.367 . S
C543 C545 1.433 . S
C544 C540 1.350 . S
C544 C541 1.463 . S
C544 N548 1.427 . S
C545 H535 0.929 . S
C545 C543 1.433 . S
C545 N548 1.384 . S
C546 H537 0.929 . S
C546 C538 1.378 . S
C546 C541 1.350 . S
C547 H534 0.929 . S
C547 C539 1.433 . S
C547 N549 1.384 . S
N548 C544 1.427 . S
N548 C545 1.384 . S
N549 C541 1.427 . S
N549 C547 1.384 . S
H550 C556 0.930 . S
H551 C560 0.930 . S
H552 C565 0.929 . S
H553 C563 0.929 . S
H554 C558 0.929 . S
H555 C564 0.929 . S
C556 H550 0.930 . S
C556 C557 1.367 . S
C556 C564 1.378 . S
C557 C556 1.367 . S
C557 C565 1.433 . S
C558 H554 0.929 . S
C558 C560 1.378 . S
C558 C562 1.350 . S
C559 C562 1.463 . S
C559 C564 1.350 . S
C559 N567 1.427 . S
C560 H551 0.930 . S
C560 C558 1.378 . S
C560 C561 1.367 . S
C561 C560 1.367 . S
C561 C563 1.433 . S
C562 C558 1.350 . S
C562 C559 1.463 . S
C562 N566 1.427 . S
C563 H553 0.929 . S
C563 C561 1.433 . S
C563 N566 1.384 . S
C564 H555 0.929 . S
C564 C556 1.378 . S
C564 C559 1.350 . S
C565 H552 0.929 . S
C565 C557 1.433 . S
C565 N567 1.384 . S
N566 C562 1.427 . S
N566 C563 1.384 . S
N567 C559 1.427 . S
N567 C565 1.384 . S
H568 C574 0.930 . S
H569 C578 0.930 . S
H570 C583 0.929 . S
H571 C581 0.929 . S
H572 C576 0.929 . S
H573 C582 0.929 . S
C574 H568 0.930 . S
C574 C575 1.367 . S
C574 C582 1.378 . S
C575 C574 1.367 . S
C575 C583 1.433 . S
C576 H572 0.929 . S
C576 C578 1.378 . S
C576 C580 1.350 . S
C577 C580 1.463 . S
C577 C582 1.350 . S
C577 N585 1.427 . S
C578 H569 0.930 . S
C578 C576 1.378 . S
C578 C579 1.367 . S
C579 C578 1.367 . S
C579 C581 1.433 . S
C580 C576 1.350 . S
C580 C577 1.463 . S
C580 N584 1.427 . S
C581 H571 0.929 . S
C581 C579 1.433 . S
C581 N584 1.384 . S
C582 H573 0.929 . S
C582 C574 1.378 . S
C582 C577 1.350 . S
C583 H570 0.929 . S
C583 C575 1.433 . S
C583 N585 1.384 . S
N584 C580 1.427 . S
N584 C581 1.384 . S
N585 C577 1.427 . S
N585 C583 1.384 . S
H586 C592 0.930 . S
H587 C596 0.930 1_545 S
H588 C601 0.929 1_545 S
H589 C599 0.929 . S
H590 C594 0.929 1_545 S
H591 C600 0.929 . S
C592 H586 0.930 . S
C592 C593 1.367 . S
C592 C600 1.378 . S
C593 C592 1.367 . S
C593 C601 1.433 . S
C594 H590 0.929 1_565 S
C594 C596 1.378 . S
C594 C598 1.350 . S
C595 C598 1.463 . S
C595 C600 1.350 . S
C595 N603 1.427 . S
C596 H587 0.930 1_565 S
C596 C594 1.378 . S
C596 C597 1.367 . S
C597 C596 1.367 . S
C597 C599 1.433 . S
C598 C594 1.350 . S
C598 C595 1.463 . S
C598 N602 1.427 . S
C599 H589 0.929 . S
C599 C597 1.433 . S
C599 N602 1.384 . S
C600 H591 0.929 . S
C600 C592 1.378 . S
C600 C595 1.350 . S
C601 H588 0.929 1_565 S
C601 C593 1.433 . S
C601 N603 1.384 . S
N602 C598 1.427 . S
N602 C599 1.384 . S
N603 C595 1.427 . S
N603 C601 1.384 . S
H604 C610 0.930 . S
H605 C614 0.930 . S
H606 C619 0.929 . S
H607 C617 0.929 . S
H608 C612 0.929 . S
H609 C618 0.929 . S
C610 H604 0.930 . S
C610 C611 1.367 . S
C610 C618 1.378 . S
C611 C610 1.367 . S
C611 C619 1.433 . S
C612 H608 0.929 . S
C612 C614 1.378 . S
C612 C616 1.350 . S
C613 C616 1.463 . S
C613 C618 1.350 . S
C613 N621 1.427 . S
C614 H605 0.930 . S
C614 C612 1.378 . S
C614 C615 1.367 . S
C615 C614 1.367 . S
C615 C617 1.433 . S
C616 C612 1.350 . S
C616 C613 1.463 . S
C616 N620 1.427 . S
C617 H607 0.929 . S
C617 C615 1.433 . S
C617 N620 1.384 . S
C618 H609 0.929 . S
C618 C610 1.378 . S
C618 C613 1.350 . S
C619 H606 0.929 . S
C619 C611 1.433 . S
C619 N621 1.384 . S
N620 C616 1.427 . S
N620 C617 1.384 . S
N621 C613 1.427 . S
N621 C619 1.384 . S
H622 C628 0.930 . S
H623 C632 0.930 . S
H624 C637 0.929 . S
H625 C635 0.929 . S
H626 C630 0.929 . S
H627 C636 0.929 . S
C628 H622 0.930 . S
C628 C629 1.367 . S
C628 C636 1.378 . S
C629 C628 1.367 . S
C629 C637 1.433 . S
C630 H626 0.929 . S
C630 C632 1.378 . S
C630 C634 1.350 . S
C631 C634 1.463 . S
C631 C636 1.350 . S
C631 N639 1.427 . S
C632 H623 0.930 . S
C632 C630 1.378 . S
C632 C633 1.367 . S
C633 C632 1.367 . S
C633 C635 1.433 . S
C634 C630 1.350 . S
C634 C631 1.463 . S
C634 N638 1.427 . S
C635 H625 0.929 . S
C635 C633 1.433 . S
C635 N638 1.384 . S
C636 H627 0.929 . S
C636 C628 1.378 . S
C636 C631 1.350 . S
C637 H624 0.929 . S
C637 C629 1.433 . S
C637 N639 1.384 . S
N638 C634 1.427 . S
N638 C635 1.384 . S
N639 C631 1.427 . S
N639 C637 1.384 . S
H640 C646 0.930 . S
H641 C650 0.930 . S
H642 C655 0.929 . S
H643 C653 0.929 . S
H644 C648 0.929 . S
H645 C654 0.929 . S
C646 H640 0.930 . S
C646 C647 1.367 . S
C646 C654 1.378 1_554 S
C647 C646 1.367 . S
C647 C655 1.433 . S
C648 H644 0.929 . S
C648 C650 1.378 1_554 S
C648 C652 1.350 1_554 S
C649 C652 1.463 1_454 S
C649 C654 1.350 1_554 S
C649 N657 1.427 1_455 S
C650 H641 0.930 . S
C650 C648 1.378 1_556 S
C650 C651 1.367 . S
C651 C650 1.367 . S
C651 C653 1.433 . S
C652 C648 1.350 1_556 S
C652 C649 1.463 1_656 S
C652 N656 1.427 1_655 S
C653 H643 0.929 . S
C653 C651 1.433 . S
C653 N656 1.384 1_655 S
C654 H645 0.929 . S
C654 C646 1.378 1_556 S
C654 C649 1.350 1_556 S
C655 H642 0.929 . S
C655 C647 1.433 . S
C655 N657 1.384 1_455 S
N656 C652 1.427 1_455 S
N656 C653 1.384 1_455 S
N657 C649 1.427 1_655 S
N657 C655 1.384 1_655 S
H658 C664 0.930 . S
H659 C668 0.930 . S
H660 C673 0.929 . S
H661 C671 0.929 . S
H662 C666 0.929 1_556 S
H663 C672 0.929 1_554 S
C664 H658 0.930 . S
C664 C665 1.367 . S
C664 C672 1.378 . S
C665 C664 1.367 . S
C665 C673 1.433 1_565 S
C666 H662 0.929 1_554 S
C666 C668 1.378 . S
C666 C670 1.350 . S
C667 C670 1.463 1_466 S
C667 C672 1.350 . S
C667 N675 1.427 1_565 S
C668 H659 0.930 . S
C668 C666 1.378 . S
C668 C669 1.367 . S
C669 C668 1.367 . S
C669 C671 1.433 1_545 S
C670 C666 1.350 . S
C670 C667 1.463 1_644 S
C670 N674 1.427 1_545 S
C671 H661 0.929 . S
C671 C669 1.433 1_565 S
C671 N674 1.384 . S
C672 H663 0.929 1_556 S
C672 C664 1.378 . S
C672 C667 1.350 . S
C673 H660 0.929 . S
C673 C665 1.433 1_545 S
C673 N675 1.384 . S
N674 C670 1.427 1_565 S
N674 C671 1.384 . S
N675 C667 1.427 1_545 S
N675 C673 1.384 . S
H676 C682 0.930 . S
H677 C686 0.930 . S
H678 C691 0.929 . S
H679 C689 0.929 . S
H680 C684 0.929 . S
H681 C690 0.929 . S
C682 H676 0.930 . S
C682 C683 1.367 . S
C682 C690 1.378 . S
C683 C682 1.367 . S
C683 C691 1.433 . S
C684 H680 0.929 . S
C684 C686 1.378 . S
C684 C688 1.350 . S
C685 C688 1.463 1_564 S
C685 C690 1.350 . S
C685 N693 1.427 . S
C686 H677 0.930 . S
C686 C684 1.378 . S
C686 C687 1.367 . S
C687 C686 1.367 . S
C687 C689 1.433 . S
C688 C684 1.350 . S
C688 C685 1.463 1_546 S
C688 N692 1.427 . S
C689 H679 0.929 . S
C689 C687 1.433 . S
C689 N692 1.384 . S
C690 H681 0.929 . S
C690 C682 1.378 . S
C690 C685 1.350 . S
C691 H678 0.929 . S
C691 C683 1.433 . S
C691 N693 1.384 . S
N692 C688 1.427 . S
N692 C689 1.384 . S
N693 C685 1.427 . S
N693 C691 1.384 . S
H694 C700 0.930 . S
H695 C704 0.930 . S
H696 C709 0.929 . S
H697 C707 0.929 . S
H698 C702 0.929 . S
H699 C708 0.929 . S
C700 H694 0.930 . S
C700 C701 1.367 . S
C700 C708 1.378 . S
C701 C700 1.367 . S
C701 C709 1.433 . S
C702 H698 0.929 . S
C702 C704 1.378 . S
C702 C706 1.350 . S
C703 C706 1.463 1_556 S
C703 C708 1.350 . S
C703 N711 1.427 . S
C704 H695 0.930 . S
C704 C702 1.378 . S
C704 C705 1.367 . S
C705 C704 1.367 . S
C705 C707 1.433 . S
C706 C702 1.350 . S
C706 C703 1.463 1_554 S
C706 N710 1.427 . S
C707 H697 0.929 . S
C707 C705 1.433 . S
C707 N710 1.384 . S
C708 H699 0.929 . S
C708 C700 1.378 . S
C708 C703 1.350 . S
C709 H696 0.929 . S
C709 C701 1.433 . S
C709 N711 1.384 . S
N710 C706 1.427 . S
N710 C707 1.384 . S
N711 C703 1.427 . S
N711 C709 1.384 . S
H712 C718 0.930 . S
H713 C722 0.930 . S
H714 C727 0.929 . S
H715 C725 0.929 . S
H716 C720 0.929 1_465 S
H717 C726 0.929 1_645 S
C718 H712 0.930 . S
C718 C719 1.367 . S
C718 C726 1.378 . S
C719 C718 1.367 . S
C719 C727 1.433 . S
C720 H716 0.929 1_645 S
C720 C722 1.378 . S
C720 C724 1.350 . S
C721 C724 1.463 1_465 S
C721 C726 1.350 . S
C721 N729 1.427 . S
C722 H713 0.930 . S
C722 C720 1.378 . S
C722 C723 1.367 . S
C723 C722 1.367 . S
C723 C725 1.433 . S
C724 C720 1.350 . S
C724 C721 1.463 1_645 S
C724 N728 1.427 . S
C725 H715 0.929 . S
C725 C723 1.433 . S
C725 N728 1.384 . S
C726 H717 0.929 1_465 S
C726 C718 1.378 . S
C726 C721 1.350 . S
C727 H714 0.929 . S
C727 C719 1.433 . S
C727 N729 1.384 . S
N728 C724 1.427 . S
N728 C725 1.384 . S
N729 C721 1.427 . S
N729 C727 1.384 . S
H730 C736 0.930 . S
H731 C740 0.930 . S
H732 C745 0.929 . S
H733 C743 0.929 . S
H734 C738 0.929 . S
H735 C744 0.929 . S
C736 H730 0.930 . S
C736 C737 1.367 . S
C736 C744 1.378 . S
C737 C736 1.367 . S
C737 C745 1.433 1_545 S
C738 H734 0.929 . S
C738 C740 1.378 . S
C738 C742 1.350 . S
C739 C742 1.463 1_545 S
C739 C744 1.350 . S
C739 N747 1.427 1_545 S
C740 H731 0.930 . S
C740 C738 1.378 . S
C740 C741 1.367 . S
C741 C740 1.367 . S
C741 C743 1.433 1_565 S
C742 C738 1.350 . S
C742 C739 1.463 1_565 S
C742 N746 1.427 1_565 S
C743 H733 0.929 . S
C743 C741 1.433 1_545 S
C743 N746 1.384 . S
C744 H735 0.929 . S
C744 C736 1.378 . S
C744 C739 1.350 . S
C745 H732 0.929 . S
C745 C737 1.433 1_565 S
C745 N747 1.384 . S
N746 C742 1.427 1_545 S
N746 C743 1.384 . S
N747 C739 1.427 1_565 S
N747 C745 1.384 . S
H748 C754 0.930 . S
H749 C758 0.930 . S
H750 C763 0.929 . S
H751 C761 0.929 . S
H752 C756 0.929 . S
H753 C762 0.929 . S
C754 H748 0.930 . S
C754 C755 1.367 . S
C754 C762 1.378 . S
C755 C754 1.367 . S
C755 C763 1.433 . S
C756 H752 0.929 . S
C756 C758 1.378 . S
C756 C760 1.350 . S
C757 C760 1.463 . S
C757 C762 1.350 . S
C757 N765 1.427 . S
C758 H749 0.930 . S
C758 C756 1.378 . S
C758 C759 1.367 . S
C759 C758 1.367 . S
C759 C761 1.433 . S
C760 C756 1.350 . S
C760 C757 1.463 . S
C760 N764 1.427 . S
C761 H751 0.929 . S
C761 C759 1.433 . S
C761 N764 1.384 . S
C762 H753 0.929 . S
C762 C754 1.378 . S
C762 C757 1.350 . S
C763 H750 0.929 . S
C763 C755 1.433 . S
C763 N765 1.384 . S
N764 C760 1.427 . S
N764 C761 1.384 . S
N765 C757 1.427 . S
N765 C763 1.384 . S
H766 C772 0.930 . S
H767 C776 0.930 . S
H768 C781 0.929 . S
H769 C779 0.929 . S
H770 C774 0.929 . S
H771 C780 0.929 . S
C772 H766 0.930 . S
C772 C773 1.367 . S
C772 C780 1.378 . S
C773 C772 1.367 . S
C773 C781 1.433 . S
C774 H770 0.929 . S
C774 C776 1.378 . S
C774 C778 1.350 . S
C775 C778 1.463 1_655 S
C775 C780 1.350 . S
C775 N783 1.427 . S
C776 H767 0.930 . S
C776 C774 1.378 . S
C776 C777 1.367 . S
C777 C776 1.367 . S
C777 C779 1.433 . S
C778 C774 1.350 . S
C778 C775 1.463 1_455 S
C778 N782 1.427 . S
C779 H769 0.929 . S
C779 C777 1.433 . S
C779 N782 1.384 . S
C780 H771 0.929 . S
C780 C772 1.378 . S
C780 C775 1.350 . S
C781 H768 0.929 . S
C781 C773 1.433 . S
C781 N783 1.384 . S
N782 C778 1.427 . S
N782 C779 1.384 . S
N783 C775 1.427 . S
N783 C781 1.384 . S
C215 C3 2.260 . S
C219 C29 2.265 . S
C233 C16 2.265 . S
C237 C42 2.261 . S
C251 C55 2.262 . S
C255 C81 2.263 . S
C269 C94 2.260 . S
C273 C68 2.265 . S
C287 C109 2.265 . S
C291 C135 2.260 . S
C305 C148 2.266 . S
C309 C122 2.260 . S
C323 C187 2.262 . S
C327 C161 2.263 . S
C341 C200 2.262 . S
C345 C174 2.265 . S
C359 C92 1.934 . S
C363 C1 1.934 . S
C377 C14 1.934 . S
C381 C53 1.934 . S
C395 C66 1.934 . S
C399 C27 1.933 . S
C413 C40 1.922 . S
C417 C79 1.922 . S
C431 C205 1.931 . S
C435 C114 1.932 . S
C449 C127 1.924 . S
C453 C166 1.924 . S
C467 C140 1.933 . S
C471 C179 1.933 . S
C485 C192 1.934 . S
C489 C153 1.934 . S
C503 C10 0.453 . S
C507 C62 0.446 . S
C521 C23 0.461 . S
C525 C75 0.476 . S
C539 C88 0.445 . S
C543 C36 0.458 . S
C557 C49 0.446 . S
C561 C101 0.452 . S
C575 C157 0.445 . S
C579 C105 0.455 . S
C593 C170 0.465 . S
C597 C118 0.446 . S
C611 C131 0.476 . S
C615 C183 0.463 . S
C629 C144 0.456 . S
C633 C196 0.474 . S
C647 C5 1.837 . S
C651 C107 1.837 . S
C665 C120 1.838 . S
C669 C18 1.838 . S
C683 C31 1.832 . S
C687 C133 1.832 . S
C701 C146 1.831 . S
C705 C44 1.831 . S
C719 C57 1.833 . S
C723 C159 1.833 . S
C737 C70 1.838 . S
C741 C172 1.838 . S
C755 C185 1.836 . S
C759 C83 1.836 . S
C773 C96 1.831 . S
C777 C198 1.831 . S
