# Generated by pormake.
# Topology wjw, (5)-cn, num edge types: 1
# Building blocks:
#     Node 0, Type 0, BuildingBlock: XOMCOT_clean_sbu_0, # of connection points: 5
#     Node 1, Type 0, BuildingBlock: XOMCOT_clean_sbu_0, # of connection points: 5
#     Node 2, Type 0, BuildingBlock: XOMCOT_clean_sbu_0, # of connection points: 5
#     Node 3, Type 0, BuildingBlock: XOMCOT_clean_sbu_0, # of connection points: 5
#     Node 4, Type 0, BuildingBlock: XOMCOT_clean_sbu_0, # of connection points: 5
#     Node 5, Type 0, BuildingBlock: XOMCOT_clean_sbu_0, # of connection points: 5
#     Node 6, Type 0, BuildingBlock: XOMCOT_clean_sbu_0, # of connection points: 5
#     Node 7, Type 0, BuildingBlock: XOMCOT_clean_sbu_0, # of connection points: 5
#     Node 8, Type 0, BuildingBlock: XOMCOT_clean_sbu_0, # of connection points: 5
#     Node 9, Type 0, BuildingBlock: XOMCOT_clean_sbu_0, # of connection points: 5
#     Node 10, Type 0, BuildingBlock: XOMCOT_clean_sbu_0, # of connection points: 5
#     Node 11, Type 0, BuildingBlock: XOMCOT_clean_sbu_0, # of connection points: 5
#     Edge 12, Type (0, 0), BuildingBlock: OJICUG_clean_linker_0, # of connection points: 2
#     Edge 13, Type (0, 0), BuildingBlock: OJICUG_clean_linker_0, # of connection points: 2
#     Edge 14, Type (0, 0), BuildingBlock: OJICUG_clean_linker_0, # of connection points: 2
#     Edge 15, Type (0, 0), BuildingBlock: OJICUG_clean_linker_0, # of connection points: 2
#     Edge 16, Type (0, 0), BuildingBlock: OJICUG_clean_linker_0, # of connection points: 2
#     Edge 17, Type (0, 0), BuildingBlock: OJICUG_clean_linker_0, # of connection points: 2
#     Edge 18, Type (0, 0), BuildingBlock: OJICUG_clean_linker_0, # of connection points: 2
#     Edge 19, Type (0, 0), BuildingBlock: OJICUG_clean_linker_0, # of connection points: 2
#     Edge 20, Type (0, 0), BuildingBlock: OJICUG_clean_linker_0, # of connection points: 2
#     Edge 21, Type (0, 0), BuildingBlock: OJICUG_clean_linker_0, # of connection points: 2
#     Edge 22, Type (0, 0), BuildingBlock: OJICUG_clean_linker_0, # of connection points: 2
#     Edge 23, Type (0, 0), BuildingBlock: OJICUG_clean_linker_0, # of connection points: 2
#     Edge 24, Type (0, 0), BuildingBlock: OJICUG_clean_linker_0, # of connection points: 2
#     Edge 25, Type (0, 0), BuildingBlock: OJICUG_clean_linker_0, # of connection points: 2
#     Edge 26, Type (0, 0), BuildingBlock: OJICUG_clean_linker_0, # of connection points: 2
#     Edge 27, Type (0, 0), BuildingBlock: OJICUG_clean_linker_0, # of connection points: 2
#     Edge 28, Type (0, 0), BuildingBlock: OJICUG_clean_linker_0, # of connection points: 2
#     Edge 29, Type (0, 0), BuildingBlock: OJICUG_clean_linker_0, # of connection points: 2
#     Edge 30, Type (0, 0), BuildingBlock: OJICUG_clean_linker_0, # of connection points: 2
#     Edge 31, Type (0, 0), BuildingBlock: OJICUG_clean_linker_0, # of connection points: 2
#     Edge 32, Type (0, 0), BuildingBlock: OJICUG_clean_linker_0, # of connection points: 2
#     Edge 33, Type (0, 0), BuildingBlock: OJICUG_clean_linker_0, # of connection points: 2
#     Edge 34, Type (0, 0), BuildingBlock: OJICUG_clean_linker_0, # of connection points: 2
#     Edge 35, Type (0, 0), BuildingBlock: OJICUG_clean_linker_0, # of connection points: 2
#     Edge 36, Type (0, 0), BuildingBlock: OJICUG_clean_linker_0, # of connection points: 2
#     Edge 37, Type (0, 0), BuildingBlock: OJICUG_clean_linker_0, # of connection points: 2
#     Edge 38, Type (0, 0), BuildingBlock: OJICUG_clean_linker_0, # of connection points: 2
#     Edge 39, Type (0, 0), BuildingBlock: OJICUG_clean_linker_0, # of connection points: 2
#     Edge 40, Type (0, 0), BuildingBlock: OJICUG_clean_linker_0, # of connection points: 2
#     Edge 41, Type (0, 0), BuildingBlock: OJICUG_clean_linker_0, # of connection points: 2
# Relax obj value: 0.218
# Max RMSD: 0.190
# Mean RMSD: 0.185
data_MOF--net-wjw--node1-XOMCOT_clean_sbu_0--edge1-OJICUG_clean_linker_0
_symmetry_space_group_name_H-M    P1
_symmetry_Int_Tables_number       1
_symmetry_cell_setting            triclinic
loop_
_symmetry_equiv_pos_as_xyz
'x, y, z'
_cell_length_a     30.932128
_cell_length_b     30.824684
_cell_length_c     27.052025
_cell_angle_alpha  89.995784
_cell_angle_beta   90.063689
_cell_angle_gamma 120.02886
loop_
_atom_site_label
_atom_site_type_symbol
_atom_site_fract_x
_atom_site_fract_y
_atom_site_fract_z
_atom_type_partial_charge
Co0 Co 0.14443 0.38834 0.30239 0.0
C1 C 0.08972 0.44539 0.30929 0.0
C2 C 0.06335 0.38313 0.35948 0.0
C3 C 0.03554 0.40586 0.36655 0.0
N4 N 0.09759 0.40809 0.32417 0.0
N5 N 0.05204 0.44485 0.33514 0.0
H6 H 0.11163 0.47279 0.28135 0.0
H7 H 0.05895 0.35045 0.37881 0.0
C8 C 0.19377 0.38585 0.39615 0.0
O9 O 0.23659 0.40769 0.37241 0.0
N10 N 0.18905 0.36402 0.28236 0.0
C11 C 0.22439 0.37928 0.2469 0.0
C12 C 0.24894 0.35233 0.25138 0.0
C13 C 0.19081 0.32611 0.30555 0.0
N14 N 0.22821 0.31967 0.289 0.0
C15 C 0.22497 0.48339 0.26701 0.0
C16 C 0.24981 0.53113 0.35764 0.0
C17 C 0.28082 0.55575 0.31706 0.0
C18 C 0.26638 0.53179 0.27078 0.0
C19 C 0.20823 0.48324 0.35187 0.0
N20 N 0.19883 0.45807 0.30796 0.0
H21 H 0.21371 0.46653 0.23095 0.0
H22 H 0.1842 0.46607 0.38336 0.0
H23 H 0.23293 0.40824 0.22005 0.0
H24 H 0.16668 0.30517 0.33599 0.0
O25 O 0.12557 0.38891 0.23448 0.0
O26 O 0.08812 0.32367 0.28508 0.0
O27 O 0.15321 0.37501 0.37369 0.0
C28 C 0.09007 0.34303 0.24176 0.0
H29 H 1.00546 0.39475 0.39288 0.0
H30 H 0.28124 0.35823 0.23042 0.0
H31 H 0.2579 0.54783 0.39407 0.0
H32 H 0.28667 0.55017 0.23749 0.0
Co33 Co 0.76975 0.14055 0.63395 0.0
C34 C 0.65707 0.08858 0.64189 0.0
C35 C 0.69033 0.052 0.68093 0.0
C36 C 0.63968 0.02488 0.68802 0.0
N37 N 0.70163 0.09269 0.65311 0.0
N38 N 0.61901 0.04781 0.66335 0.0
H39 H 0.65189 0.11443 0.61935 0.0
H40 H 0.71747 0.04313 0.6958 0.0
C41 C 0.76987 0.14571 0.74513 0.0
O42 O 0.7244 0.13877 0.74422 0.0
N43 N 0.83846 0.18602 0.61635 0.0
C44 C 0.85675 0.2204 0.57993 0.0
C45 C 0.90802 0.24899 0.58567 0.0
C46 C 0.87842 0.19384 0.64332 0.0
N47 N 0.92121 0.23239 0.62594 0.0
C48 C 0.73007 0.2053 0.60805 0.0
C49 C 0.77933 0.27549 0.68141 0.0
C50 C 0.74657 0.28158 0.65039 0.0
C51 C 0.72266 0.24653 0.6124 0.0
C52 C 0.78628 0.23449 0.67511 0.0
N53 N 0.75947 0.1981 0.64096 0.0
H54 H 0.71246 0.17943 0.57783 0.0
H55 H 0.81453 0.23316 0.6969 0.0
H56 H 0.83428 0.22572 0.55259 0.0
H57 H 0.87633 0.17258 0.67592 0.0
O58 O 0.75178 0.12479 0.56506 0.0
O59 O 0.77695 0.08409 0.61416 0.0
O60 O 0.79196 0.14635 0.7051 0.0
C61 C 0.76075 0.08814 0.57093 0.0
H62 H 0.61945 0.99095 0.70962 0.0
H63 H 0.93322 0.28106 0.56358 0.0
H64 H 0.80067 0.3031 0.7095 0.0
H65 H 0.6983 0.25077 0.58651 0.0
Co66 Co 0.63431 0.76286 0.96332 0.0
C67 C 0.57917 0.65151 0.96943 0.0
C68 C 0.63787 0.68643 0.02341 0.0
C69 C 0.61371 0.63555 0.03065 0.0
N70 N 0.61583 0.69642 0.98559 0.0
N71 N 0.57712 0.61382 0.99668 0.0
H72 H 0.55357 0.64665 0.93979 0.0
H73 H 0.66894 0.71435 0.04477 0.0
C74 C 0.63598 0.8154 0.0564 0.0
O75 O 0.61286 0.83497 0.03239 0.0
N76 N 0.65633 0.83141 0.94199 0.0
C77 C 0.63823 0.84901 0.90663 0.0
C78 C 0.66123 0.90039 0.91078 0.0
C79 C 0.69295 0.87295 0.96422 0.0
N80 N 0.69521 0.91518 0.94739 0.0
C81 C 0.53816 0.74663 0.92955 0.0
C82 C 0.49207 0.72163 0.0209 0.0
C83 C 0.46799 0.73029 0.9816 0.0
C84 C 0.49066 0.74109 0.93497 0.0
C85 C 0.53999 0.72873 0.01395 0.0
N86 N 0.56435 0.74569 0.96976 0.0
H87 H 0.55378 0.75167 0.89305 0.0
H88 H 0.558 0.72183 0.04474 0.0
H89 H 0.61005 0.82706 0.87976 0.0
H90 H 0.7148 0.87207 0.99507 0.0
O91 O 0.63376 0.74275 0.8956 0.0
O92 O 0.69925 0.7727 0.94594 0.0
O93 O 0.6479 0.7862 0.03431 0.0
C94 C 0.67995 0.75444 0.90282 0.0
H95 H 0.62193 0.6159 0.05897 0.0
H96 H 0.65248 0.92486 0.88967 0.0
H97 H 0.47493 0.71151 0.05711 0.0
H98 H 0.47196 0.74554 0.90313 0.0
Co99 Co 0.88201 0.63275 0.29979 0.0
C100 C 0.93796 0.57718 0.30865 0.0
C101 C 0.96241 0.63892 0.35926 0.0
C102 C 0.99092 0.617 0.36686 0.0
N103 N 0.92892 0.61375 0.32335 0.0
N104 N 0.97562 0.57832 0.33518 0.0
H105 H 0.91699 0.54995 0.28019 0.0
H106 H 0.96599 0.67131 0.37849 0.0
C107 C 0.83128 0.63597 0.39214 0.0
O108 O 0.78888 0.61399 0.3676 0.0
N109 N 0.83734 0.65644 0.27783 0.0
C110 C 0.80258 0.6407 0.24166 0.0
C111 C 0.77753 0.66724 0.24496 0.0
C112 C 0.83491 0.6944 0.30009 0.0
N113 N 0.79743 0.70024 0.28249 0.0
C114 C 0.80061 0.53661 0.26649 0.0
C115 C 0.77841 0.49148 0.35843 0.0
C116 C 0.74647 0.4661 0.31883 0.0
C117 C 0.75918 0.48836 0.27187 0.0
C118 C 0.81973 0.53913 0.35115 0.0
N119 N 0.82786 0.56307 0.30661 0.0
H120 H 0.81088 0.55244 0.22998 0.0
H121 H 0.84466 0.55715 0.38192 0.0
H122 H 0.79485 0.61179 0.215 0.0
H123 H 0.85862 0.7158 0.33064 0.0
O124 O 0.90134 0.63068 0.23244 0.0
O125 O 0.93837 0.69709 0.28176 0.0
O126 O 0.87233 0.64722 0.37048 0.0
C127 C 0.93686 0.67669 0.23914 0.0
H128 H 0.02078 0.6286 0.39361 0.0
H129 H 0.74546 0.66084 0.22321 0.0
H130 H 0.77151 0.47463 0.39482 0.0
H131 H 0.7367 0.46922 0.23979 0.0
Co132 Co 0.2617 0.88004 0.63349 0.0
C133 C 0.37462 0.93863 0.64209 0.0
C134 C 0.33688 0.9638 0.69045 0.0
C135 C 0.38727 0.99358 0.69786 0.0
N136 N 0.32851 0.92794 0.6569 0.0
N137 N 0.41083 0.97775 0.6674 0.0
H138 H 0.38239 0.91942 0.61332 0.0
H139 H 0.308 0.96809 0.70837 0.0
C140 C 0.25463 0.86675 0.74332 0.0
O141 O 0.29854 0.86982 0.74281 0.0
N142 N 0.19421 0.8352 0.61181 0.0
C143 C 0.17744 0.79835 0.57783 0.0
C144 C 0.12611 0.76938 0.58251 0.0
C145 C 0.15333 0.82884 0.63583 0.0
N146 N 0.11136 0.7884 0.61957 0.0
C147 C 0.30759 0.81868 0.61598 0.0
C148 C 0.24343 0.74031 0.67593 0.0
C149 C 0.28337 0.73795 0.65403 0.0
C150 C 0.31529 0.7779 0.62291 0.0
C151 C 0.23821 0.78233 0.66915 0.0
N152 N 0.27158 0.8223 0.64165 0.0
H153 H 0.32967 0.8464 0.58874 0.0
H154 H 0.20613 0.7819 0.68495 0.0
H155 H 0.20104 0.79105 0.55384 0.0
H156 H 0.15449 0.85203 0.66638 0.0
O157 O 0.28334 0.89731 0.56571 0.0
O158 O 0.25532 0.93676 0.61302 0.0
O159 O 0.23531 0.87142 0.70338 0.0
C160 C 0.2733 0.93335 0.57059 0.0
H161 H 0.40534 0.02484 0.72325 0.0
H162 H 0.10208 0.73512 0.56259 0.0
H163 H 0.2153 0.70952 0.6974 0.0
H164 H 0.34595 0.77802 0.60365 0.0
Co165 Co 0.39186 0.25457 0.96765 0.0
C166 C 0.44586 0.36797 0.97367 0.0
C167 C 0.37378 0.33122 0.00819 0.0
C168 C 0.39383 0.38192 0.01369 0.0
N169 N 0.40673 0.32213 0.98425 0.0
N170 N 0.43892 0.40484 0.99189 0.0
H171 H 0.47894 0.37492 0.95399 0.0
H172 H 0.33764 0.30256 0.02138 0.0
C173 C 0.39393 0.2603 0.0763 0.0
O174 O 0.43448 0.30407 0.07038 0.0
N175 N 0.37426 0.18686 0.95108 0.0
C176 C 0.39927 0.17251 0.92065 0.0
C177 C 0.38064 0.12178 0.92661 0.0
C178 C 0.34022 0.14483 0.9743 0.0
N179 N 0.34361 0.10466 0.96032 0.0
C180 C 0.49897 0.29904 0.95272 0.0
C181 C 0.51207 0.24282 0.02452 0.0
C182 C 0.55316 0.27541 0.99569 0.0
C183 C 0.54634 0.30414 0.95955 0.0
C184 C 0.46579 0.23886 0.01648 0.0
N185 N 0.45963 0.26803 0.98222 0.0
H186 H 0.49346 0.31805 0.92197 0.0
H187 H 0.43434 0.2101 0.03646 0.0
H188 H 0.4308 0.19767 0.89808 0.0
H189 H 0.3158 0.14418 0.00327 0.0
O190 O 0.39964 0.27276 0.89872 0.0
O191 O 0.32892 0.24316 0.94079 0.0
O192 O 0.37086 0.23351 0.03864 0.0
C193 C 0.35309 0.26151 0.89964 0.0
H194 H 0.37673 0.40065 0.03229 0.0
H195 H 0.39438 0.09953 0.90893 0.0
H196 H 0.51517 0.2192 0.0523 0.0
H197 H 0.5766 0.32834 0.93508 0.0
Co198 Co 0.63401 0.88018 0.36097 0.0
C199 C 0.57658 0.93449 0.35168 0.0
C200 C 0.64008 0.96179 0.30336 0.0
C201 C 0.61682 0.98892 0.29472 0.0
N202 N 0.61472 0.9274 0.3385 0.0
N203 N 0.57701 0.97181 0.32493 0.0
H204 H 0.54856 0.91212 0.3789 0.0
H205 H 0.67322 0.96656 0.28499 0.0
C206 C 0.6365 0.82983 0.26771 0.0
O207 O 0.61448 0.7871 0.29185 0.0
N208 N 0.65773 0.83513 0.38178 0.0
C209 C 0.64253 0.80036 0.41795 0.0
C210 C 0.66906 0.77533 0.41424 0.0
C211 C 0.69531 0.83269 0.359 0.0
N212 N 0.70149 0.79524 0.37641 0.0
C213 C 0.53868 0.79899 0.3955 0.0
C214 C 0.49245 0.77527 0.3041 0.0
C215 C 0.46779 0.74379 0.34417 0.0
C216 C 0.49056 0.75727 0.39085 0.0
C217 C 0.53995 0.81701 0.31068 0.0
N218 N 0.56444 0.82585 0.35495 0.0
H219 H 0.55504 0.80972 0.43179 0.0
H220 H 0.55739 0.84164 0.27958 0.0
H221 H 0.61406 0.79268 0.44496 0.0
H222 H 0.71634 0.85649 0.32838 0.0
O223 O 0.63332 0.8995 0.42878 0.0
O224 O 0.6986 0.93646 0.37852 0.0
O225 O 0.64755 0.87084 0.28978 0.0
C226 C 0.67929 0.93473 0.42175 0.0
H227 H 0.62812 0.01891 0.2681 0.0
H228 H 0.66312 0.74334 0.43602 0.0
H229 H 0.47516 0.76767 0.26789 0.0
H230 H 0.47193 0.73511 0.42323 0.0
Co231 Co 0.76717 0.63037 0.69821 0.0
C232 C 0.65547 0.5733 0.69159 0.0
C233 C 0.69087 0.63611 0.642 0.0
C234 C 0.6404 0.61271 0.63437 0.0
N235 N 0.70043 0.61116 0.67722 0.0
N236 N 0.61827 0.57337 0.66537 0.0
H237 H 0.65025 0.54548 0.71898 0.0
H238 H 0.71896 0.66888 0.62273 0.0
C239 C 0.81377 0.62682 0.60315 0.0
O240 O 0.8327 0.60271 0.62649 0.0
N241 N 0.83628 0.65428 0.71782 0.0
C242 C 0.85559 0.64742 0.75998 0.0
C243 C 0.90704 0.67204 0.75598 0.0
C244 C 0.87658 0.68642 0.69109 0.0
N245 N 0.91982 0.69571 0.71202 0.0
C246 C 0.76158 0.53784 0.73103 0.0
C247 C 0.7221 0.48535 0.64427 0.0
C248 C 0.73748 0.46364 0.68087 0.0
C249 C 0.75608 0.49018 0.7254 0.0
C250 C 0.72894 0.53336 0.65125 0.0
N251 N 0.75154 0.56046 0.69297 0.0
H252 H 0.774 0.55634 0.76608 0.0
H253 H 0.71743 0.54942 0.62213 0.0
H254 H 0.83448 0.62714 0.79208 0.0
H255 H 0.87468 0.70327 0.65674 0.0
O256 O 0.74865 0.6308 0.76624 0.0
O257 O 0.77634 0.69549 0.71484 0.0
O258 O 0.78774 0.64189 0.62643 0.0
C259 C 0.75925 0.67675 0.75841 0.0
H260 H 0.62127 0.62335 0.60766 0.0
H261 H 0.93285 0.67171 0.78282 0.0
H262 H 0.70528 0.46574 0.61016 0.0
H263 H 0.76761 0.47509 0.75547 0.0
Co264 Co 0.14521 0.76154 0.0301 0.0
C265 C 0.08971 0.64906 0.01843 0.0
C266 C 0.05739 0.68559 0.97779 0.0
C267 C 0.02881 0.6349 0.96985 0.0
N268 N 0.09651 0.69482 0.00703 0.0
N269 N 0.04907 0.61215 0.99557 0.0
H270 H 0.11332 0.64223 0.04266 0.0
H271 H 0.05034 0.71406 0.96297 0.0
C272 C 0.15312 0.76787 0.91971 0.0
O273 O 0.14611 0.72219 0.91927 0.0
N274 N 0.19194 0.8283 0.05277 0.0
C275 C 0.22881 0.84123 0.0861 0.0
C276 C 0.2609 0.89225 0.08318 0.0
C277 C 0.20129 0.87146 0.03092 0.0
N278 N 0.24342 0.91096 0.04845 0.0
C279 C 0.20838 0.71842 0.0513 0.0
C280 C 0.28062 0.77469 0.98216 0.0
C281 C 0.28757 0.74113 0.01137 0.0
C282 C 0.25066 0.71287 0.04669 0.0
C283 C 0.23885 0.77983 0.98884 0.0
N284 N 0.20168 0.75008 0.02101 0.0
H285 H 0.18208 0.69869 0.08057 0.0
H286 H 0.23791 0.80961 0.96923 0.0
H287 H 0.23396 0.815 0.10834 0.0
H288 H 0.18003 0.8735 0.00011 0.0
O289 O 0.12737 0.73936 0.09786 0.0
O290 O 0.09001 0.76979 0.05068 0.0
O291 O 0.15311 0.78874 0.96051 0.0
C292 C 0.09227 0.75066 0.0928 0.0
H293 H 0.99538 0.61605 0.94742 0.0
H294 H 0.2956 0.91358 0.10327 0.0
H295 H 0.30759 0.79782 0.95448 0.0
H296 H 0.25504 0.68793 0.07171 0.0
Co297 Co 0.39173 0.14328 0.36111 0.0
C298 C 0.44548 0.0864 0.34839 0.0
C299 C 0.38933 0.06944 0.29297 0.0
C300 C 0.41076 0.04054 0.28423 0.0
N301 N 0.41138 0.09848 0.33273 0.0
N302 N 0.44595 0.05114 0.31899 0.0
H303 H 0.46962 0.10333 0.38004 0.0
H304 H 0.35916 0.0688 0.27213 0.0
C305 C 0.38825 0.20288 0.27733 0.0
O306 O 0.4121 0.24131 0.3073 0.0
N307 N 0.36744 0.18577 0.3883 0.0
C308 C 0.38653 0.22365 0.42144 0.0
C309 C 0.35892 0.24769 0.4196 0.0
C310 C 0.32698 0.18571 0.36938 0.0
N311 N 0.32225 0.22433 0.38587 0.0
C312 C 0.48803 0.22158 0.39726 0.0
C313 C 0.53291 0.25034 0.3056 0.0
C314 C 0.55914 0.27901 0.34696 0.0
C315 C 0.53659 0.26269 0.39359 0.0
C316 C 0.48491 0.20918 0.31117 0.0
N317 N 0.46119 0.19798 0.35595 0.0
H318 H 0.47217 0.20858 0.43345 0.0
H319 H 0.46629 0.18708 0.27885 0.0
H320 H 0.41934 0.23533 0.44373 0.0
H321 H 0.30408 0.16048 0.34032 0.0
O322 O 0.39451 0.11999 0.42652 0.0
O323 O 0.32776 0.08523 0.37782 0.0
O324 O 0.37661 0.15881 0.29214 0.0
C325 C 0.34843 0.0851 0.41982 0.0
H326 H 0.40078 0.01328 0.25486 0.0
H327 H 0.36775 0.28212 0.4385 0.0
H328 H 0.54848 0.26006 0.26878 0.0
H329 H 0.55624 0.2813 0.42714 0.0
Co330 Co 0.26268 0.38773 0.69831 0.0
C331 C 0.37314 0.44051 0.68741 0.0
C332 C 0.3346 0.38008 0.63567 0.0
C333 C 0.38494 0.40108 0.62793 0.0
N334 N 0.32724 0.40508 0.67244 0.0
N335 N 0.40905 0.4389 0.66043 0.0
H336 H 0.38003 0.46709 0.71675 0.0
H337 H 0.30529 0.34831 0.61618 0.0
C338 C 0.20522 0.3829 0.60742 0.0
O339 O 0.18559 0.40573 0.63182 0.0
N340 N 0.19588 0.36651 0.72287 0.0
C341 C 0.17895 0.38654 0.7568 0.0
C342 C 0.1274 0.36178 0.75436 0.0
C343 C 0.15436 0.32821 0.70269 0.0
N344 N 0.11231 0.32589 0.71945 0.0
C345 C 0.2843 0.48549 0.7329 0.0
C346 C 0.29698 0.5288 0.64079 0.0
C347 C 0.29556 0.55573 0.68215 0.0
C348 C 0.29178 0.5341 0.72898 0.0
C349 C 0.29107 0.48107 0.64671 0.0
N350 N 0.27968 0.45791 0.69176 0.0
H351 H 0.28208 0.46999 0.76919 0.0
H352 H 0.29448 0.46237 0.61448 0.0
H353 H 0.20159 0.41789 0.78054 0.0
H354 H 0.15505 0.30471 0.67333 0.0
O355 O 0.28717 0.39003 0.76433 0.0
O356 O 0.25304 0.32256 0.71623 0.0
O357 O 0.23578 0.37239 0.62869 0.0
C358 C 0.27475 0.34342 0.75779 0.0
H359 H 0.40258 0.38921 0.60076 0.0
H360 H 0.10322 0.37175 0.77418 0.0
H361 H 0.3012 0.54331 0.60366 0.0
H362 H 0.2943 0.55416 0.76265 0.0
Co363 Co 0.88166 0.25284 0.03217 0.0
C364 C 0.93724 0.36577 0.0207 0.0
C365 C 0.96596 0.32851 0.97601 0.0
C366 C 0.99426 0.37906 0.96744 0.0
N367 N 0.92903 0.31971 0.00811 0.0
N368 N 0.97626 0.4023 0.99566 0.0
H369 H 0.916 0.37322 0.0474 0.0
H370 H 0.97174 0.29979 0.95966 0.0
C371 C 0.86888 0.24504 0.92261 0.0
O372 O 0.87307 0.2896 0.92293 0.0
N373 N 0.83679 0.1856 0.05509 0.0
C374 C 0.79811 0.1706 0.0865 0.0
C375 C 0.7676 0.11939 0.08184 0.0
C376 C 0.83023 0.14347 0.03304 0.0
N377 N 0.788 0.10265 0.04819 0.0
C378 C 0.81912 0.29679 0.05258 0.0
C379 C 0.74277 0.23477 0.98932 0.0
C380 C 0.73812 0.2712 0.01579 0.0
C381 C 0.77697 0.30249 0.04799 0.0
C382 C 0.78525 0.23056 0.99493 0.0
N383 N 0.82415 0.26284 0.02428 0.0
H384 H 0.84648 0.31812 0.08051 0.0
H385 H 0.78561 0.19962 0.97709 0.0
H386 H 0.7903 0.19554 0.10788 0.0
H387 H 0.85323 0.1432 0.00306 0.0
O388 O 0.90003 0.27553 0.09957 0.0
O389 O 0.93824 0.2464 0.05189 0.0
O390 O 0.87246 0.22527 0.96273 0.0
C391 C 0.93578 0.26526 0.09414 0.0
H392 H 0.02598 0.39751 0.94282 0.0
H393 H 0.7317 0.09671 0.09941 0.0
H394 H 0.71332 0.20887 0.96492 0.0
H395 H 0.77389 0.32962 0.07091 0.0
C396 C 0.02505 0.30134 0.11824 0.0
C397 C 0.9747 0.27929 0.13221 0.0
H398 H 0.10148 0.33991 0.14242 0.0
C399 C 0.9625 0.27468 0.18264 0.0
H400 H 0.03535 0.3058 0.07953 0.0
C401 C 1.00019 0.29252 0.21855 0.0
C402 C 0.05063 0.31688 0.20445 0.0
H403 H 0.92391 0.25797 0.1942 0.0
H404 H 0.99002 0.28971 0.25722 0.0
C405 C 0.06279 0.32088 0.15407 0.0
C406 C 0.70102 0.96094 0.50989 0.0
C407 C 0.70616 0.97367 0.45957 0.0
H408 H 0.71625 0.98765 0.58471 0.0
C409 C 0.73314 0.02442 0.44596 0.0
H410 H 0.68013 0.92205 0.52123 0.0
C411 C 0.75233 0.06195 0.48222 0.0
C412 C 0.74649 0.04922 0.53258 0.0
H413 H 0.73703 0.03513 0.40736 0.0
H414 H 0.77087 0.10089 0.47096 0.0
C415 C 0.72185 0.9984 0.54609 0.0
C416 C 0.73422 0.71889 0.88091 0.0
C417 C 0.70679 0.74165 0.86585 0.0
H418 H 0.77167 0.67936 0.85825 0.0
C419 C 0.70085 0.74697 0.81517 0.0
H420 H 0.73871 0.71379 0.91983 0.0
C421 C 0.72118 0.72889 0.78005 0.0
C422 C 0.74609 0.70354 0.79515 0.0
H423 H 0.67955 0.76412 0.80276 0.0
H424 H 0.71487 0.7321 0.74115 0.0
C425 C 0.7529 0.6991 0.84582 0.0
C426 C 1.00322 0.71674 0.11632 0.0
C427 C 0.05335 0.73713 0.13074 0.0
H428 H 0.92666 0.68054 0.13972 0.0
C429 C 0.06508 0.74102 0.18128 0.0
H430 H 0.99322 0.71285 0.07752 0.0
C431 C 0.02715 0.72428 0.21683 0.0
C432 C 0.97687 0.70174 0.20224 0.0
H433 H 0.10346 0.75645 0.19321 0.0
H434 H 0.03689 0.72656 0.25561 0.0
C435 C 0.96522 0.69827 0.15176 0.0
C436 C 0.32566 0.05903 0.50751 0.0
C437 C 0.32262 0.04582 0.45744 0.0
H438 H 0.31062 0.0333 0.58259 0.0
C439 C 0.29983 0.99498 0.44446 0.0
H440 H 0.3435 0.09809 0.51832 0.0
C441 C 0.28263 0.95803 0.48127 0.0
C442 C 0.28637 0.97133 0.53145 0.0
H443 H 0.29778 0.98405 0.40608 0.0
H444 H 0.26717 0.91916 0.47061 0.0
C445 C 0.30681 0.02204 0.54416 0.0
C446 C 0.34501 0.34034 0.79763 0.0
C447 C 0.29331 0.31913 0.79165 0.0
H448 H 0.40429 0.3375 0.83532 0.0
C449 C 0.2608 0.27615 0.81865 0.0
H450 H 0.37067 0.37341 0.77688 0.0
C451 C 0.28002 0.25605 0.85308 0.0
C452 C 0.33194 0.27777 0.85952 0.0
H453 H 0.22075 0.2593 0.81437 0.0
H454 H 0.25441 0.22409 0.87512 0.0
C455 C 0.36417 0.31948 0.83071 0.0
C456 C 0.23339 0.37758 0.47295 0.0
C457 C 0.19346 0.37899 0.44992 0.0
H458 H 0.26775 0.37649 0.54109 0.0
C459 C 0.1551 0.37739 0.47902 0.0
H460 H 0.26342 0.37875 0.45135 0.0
C461 C 0.15804 0.37708 0.5305 0.0
C462 C 0.19877 0.37718 0.55353 0.0
H463 H 0.12399 0.37868 0.46213 0.0
H464 H 0.12907 0.37791 0.55222 0.0
C465 C 0.23573 0.37608 0.52432 0.0
C466 C 0.77954 0.14384 0.83661 0.0
C467 C 0.79967 0.16521 0.79057 0.0
H468 H 0.78812 0.15077 0.91521 0.0
C469 C 0.84654 0.20916 0.78862 0.0
H470 H 0.74366 0.10972 0.83895 0.0
C471 C 0.87049 0.23416 0.83196 0.0
C472 C 0.84923 0.21413 0.87796 0.0
H473 H 0.86317 0.22618 0.75366 0.0
H474 H 0.90474 0.26996 0.82954 0.0
C475 C 0.80492 0.16746 0.8801 0.0
C476 C 0.64341 0.78877 0.19115 0.0
C477 C 0.64278 0.82941 0.21385 0.0
H478 H 0.64276 0.75299 0.12316 0.0
C479 C 0.64427 0.86762 0.18433 0.0
H480 H 0.64244 0.75889 0.21309 0.0
C481 C 0.64363 0.86383 0.13289 0.0
C482 C 0.64252 0.82232 0.11022 0.0
H483 H 0.64364 0.8993 0.20091 0.0
H484 H 0.64295 0.89285 0.11086 0.0
C485 C 0.6438 0.7855 0.13973 0.0
C486 C 0.86184 0.63478 0.52664 0.0
C487 C 0.82119 0.63482 0.54958 0.0
H488 H 0.8976 0.63648 0.45849 0.0
C489 C 0.78616 0.63963 0.52057 0.0
H490 H 0.88944 0.63126 0.54825 0.0
C491 C 0.79032 0.64169 0.46916 0.0
C492 C 0.83022 0.6402 0.44616 0.0
H493 H 0.75438 0.63958 0.53744 0.0
H494 H 0.76175 0.64333 0.44739 0.0
C495 C 0.86666 0.63806 0.47535 0.0
C496 C 0.21633 0.84589 0.87722 0.0
C497 C 0.17286 0.79853 0.87481 0.0
H498 H 0.27765 0.90411 0.83671 0.0
C499 C 0.15292 0.77769 0.82851 0.0
H500 H 0.23223 0.86311 0.91249 0.0
C501 C 0.17749 0.80251 0.7853 0.0
C502 C 0.22356 0.84729 0.78785 0.0
H503 H 0.11934 0.74135 0.8258 0.0
H504 H 0.16206 0.7848 0.75016 0.0
C505 C 0.24227 0.86945 0.83401 0.0
C506 C 0.36788 0.19133 0.13847 0.0
C507 C 0.38054 0.24075 0.12683 0.0
H508 H 0.36069 0.14012 0.19617 0.0
C509 C 0.38865 0.27464 0.16501 0.0
H510 H 0.36183 0.1647 0.10939 0.0
C511 C 0.38787 0.26079 0.214 0.0
C512 C 0.37951 0.21282 0.22596 0.0
H513 H 0.39806 0.31281 0.15685 0.0
H514 H 0.39618 0.28869 0.24239 0.0
C515 C 0.36752 0.17743 0.18796 0.0
C516 C 1.00341 0.52724 0.289 0.0
C517 C 0.99414 0.54396 0.33396 0.0
H518 H 0.03094 0.48291 0.25417 0.0
C519 C 1.00533 0.52854 0.37857 0.0
H520 H 0.99541 0.53914 0.25421 0.0
C521 C 0.02505 0.49676 0.37853 0.0
C522 C 0.03466 0.4801 0.33388 0.0
H523 H 0.99828 0.54077 0.41364 0.0
H524 H 0.03298 0.48516 0.41355 0.0
C525 C 0.02416 0.49583 0.28896 0.0
C526 C 0.54201 0.02438 0.70876 0.0
C527 C 0.56709 0.03291 0.66357 0.0
H528 H 0.47224 1.00057 0.7451 0.0
C529 C 0.54037 0.02389 0.61919 0.0
H530 H 0.56216 0.03109 0.74327 0.0
C531 C 0.4887 1.0052 0.62018 0.0
C532 C 0.46369 0.99679 0.66556 0.0
H533 H 0.55926 0.02995 0.58405 0.0
H534 H 0.46831 0.99769 0.58573 0.0
C535 C 0.49089 1.0071 0.70975 0.0
C536 C 0.4989 0.48283 0.949 0.0
C537 C 0.47366 0.45769 0.99223 0.0
H538 H 0.55123 0.55376 0.91638 0.0
C539 C 0.48202 0.4849 0.03619 0.0
H540 H 0.4926 0.46239 0.9147 0.0
C541 C 0.51575 0.53622 0.03731 0.0
C542 C 0.5408 0.56153 0.99422 0.0
H543 H 0.46305 0.46612 0.06991 0.0
H544 H 0.5223 0.5564 0.07182 0.0
C545 C 0.53183 0.53472 0.94985 0.0
C546 C 0.52419 0.99884 0.3687 0.0
C547 C 0.54133 0.98866 0.32457 0.0
H548 H 0.48062 0.02808 0.40152 0.0
C549 C 0.52608 0.99863 0.27921 0.0
H550 H 0.53592 0.99177 0.40406 0.0
C551 C 0.49478 0.01889 0.27771 0.0
C552 C 0.47833 0.03024 0.32157 0.0
H553 H 0.53874 0.99093 0.24475 0.0
H554 H 0.48422 0.02667 0.24207 0.0
C555 C 0.49323 0.02004 0.36722 0.0
C556 C 0.53877 0.52139 0.70962 0.0
C557 C 0.56607 0.53692 0.6654 0.0
H558 H 0.46607 0.47813 0.74259 0.0
C559 C 0.54121 0.51916 0.62018 0.0
H560 H 0.55742 0.53511 0.74481 0.0
C561 C 0.48987 0.48683 0.61888 0.0
C562 C 0.46208 0.47205 0.66277 0.0
H563 H 0.56168 0.53065 0.58571 0.0
H564 H 0.47164 0.47418 0.58336 0.0
C565 C 0.48683 0.48949 0.70829 0.0
C566 C 1.00205 0.48113 0.95165 0.0
C567 C 0.99405 0.45515 0.99636 0.0
H568 H 0.02534 0.55188 0.91671 0.0
C569 C 1.00487 0.48161 0.04117 0.0
H570 H 0.99382 0.46131 0.91676 0.0
C571 C 0.02423 0.53361 0.04108 0.0
C572 C 0.03147 0.55933 0.99624 0.0
H573 H 0.9992 0.46214 0.07598 0.0
H574 H 0.03265 0.55364 0.07585 0.0
C575 C 0.01991 0.53262 0.95162 0.0
C576 C 0.26812 0.26758 0.28601 0.0
C577 C 0.24838 0.29216 0.31347 0.0
H578 H 0.30571 0.22533 0.28776 0.0
C579 C 0.25103 0.29188 0.36544 0.0
H580 H 0.26655 0.26729 0.24601 0.0
C581 C 0.27458 0.26901 0.38939 0.0
C582 C 0.29464 0.2447 0.3619 0.0
H583 H 0.23643 0.31091 0.38748 0.0
H584 H 0.27749 0.27058 0.42932 0.0
C585 C 0.29033 0.24346 0.30999 0.0
C586 C 1.01322 0.27452 0.62111 0.0
C587 C 0.96949 0.25464 0.64945 0.0
H588 H 0.09306 0.31167 0.62142 0.0
C589 C 0.97351 0.2573 0.70135 0.0
H590 H 1.01118 0.27277 0.58114 0.0
C591 C 0.02028 0.28038 0.72442 0.0
C592 C 0.06397 0.30003 0.69611 0.0
H593 H 0.94051 0.24253 0.72413 0.0
H594 H 0.02241 0.28281 0.76437 0.0
C595 C 0.05996 0.2964 0.64422 0.0
C596 C 0.79145 0.03029 0.01374 0.0
C597 C 0.76434 0.05459 0.02416 0.0
H598 H 0.79006 0.96584 0.98139 0.0
C599 C 0.71465 0.03288 0.00804 0.0
H600 H 0.82993 0.04666 0.02562 0.0
C601 C 0.69254 0.98787 0.98163 0.0
C602 C 0.71936 0.96315 0.9717 0.0
H603 H 0.69331 0.05137 0.015 0.0
H604 H 0.65408 0.97176 0.96978 0.0
C605 C 0.76886 0.98446 0.98842 0.0
C606 C 0.75429 0.74938 0.27774 0.0
C607 C 0.77645 0.72753 0.30596 0.0
H608 H 0.71383 0.78896 0.27821 0.0
C609 C 0.77534 0.73018 0.3579 0.0
H610 H 0.75456 0.74779 0.23776 0.0
C611 C 0.75134 0.75293 0.3811 0.0
C612 C 0.72894 0.77452 0.35288 0.0
H613 H 0.79158 0.71314 0.38066 0.0
H614 H 0.75002 0.75344 0.42108 0.0
C615 C 0.73129 0.77314 0.30094 0.0
C616 C 0.05862 0.77026 0.69409 0.0
C617 C 0.06291 0.76604 0.64267 0.0
H618 H 1.00965 0.7508 0.75657 0.0
C619 C 0.0193 0.73887 0.61459 0.0
H620 H 0.09149 0.79054 0.71691 0.0
C621 C 0.97246 0.71664 0.63733 0.0
C622 C 0.96822 0.72038 0.6888 0.0
H623 H 0.02144 0.73509 0.57501 0.0
H624 H 0.93953 0.69558 0.61472 0.0
C625 C 1.01181 0.74727 0.71696 0.0
C626 C 0.34458 0.03111 0.99475 0.0
C627 C 0.31816 0.05566 0.98237 0.0
H628 H 0.34137 0.96585 0.02661 0.0
C629 C 0.26692 0.03234 0.99298 0.0
H630 H 0.38422 0.04863 0.98739 0.0
C631 C 0.24231 0.98477 0.01474 0.0
C632 C 0.26888 0.96047 0.02756 0.0
H633 H 0.24589 0.05067 0.98372 0.0
H634 H 0.20263 0.96702 0.02198 0.0
C635 C 0.32028 0.98418 0.01764 0.0
C636 C 0.41442 0.6632 0.29906 0.0
C637 C 0.41934 0.69671 0.33675 0.0
H638 H 0.36835 0.5925 0.26432 0.0
C639 C 0.37813 0.68444 0.36731 0.0
H640 H 0.44578 0.6714 0.27529 0.0
C641 C 0.3329 0.63961 0.36022 0.0
C642 C 0.32804 0.60529 0.32304 0.0
H643 H 0.38072 0.70983 0.39635 0.0
H644 H 0.30178 0.6322 0.38389 0.0
C645 C 0.36966 0.61798 0.29258 0.0
C646 C 0.72766 0.38163 0.71166 0.0
C647 C 0.73549 0.41462 0.67222 0.0
H648 H 0.72496 0.31398 0.73555 0.0
C649 C 0.74374 0.40133 0.62468 0.0
H650 H 0.71992 0.38952 0.74854 0.0
C651 C 0.74536 0.35718 0.61714 0.0
C652 C 0.73958 0.32558 0.65701 0.0
H653 H 0.75077 0.42586 0.59339 0.0
H654 H 0.75319 0.34881 0.58044 0.0
C655 C 0.73013 0.33799 0.70421 0.0
C656 C 0.42206 0.77721 0.98284 0.0
C657 C 0.42156 0.73197 0.98989 0.0
H658 H 0.38194 0.81649 0.98684 0.0
C659 C 0.37742 0.68975 0.0061 0.0
H660 H 0.45603 0.81053 0.97143 0.0
C661 C 0.3339 0.69249 0.01351 0.0
C662 C 0.33406 0.73783 0.00582 0.0
H663 H 0.3764 0.6545 0.0121 0.0
H664 H 0.30003 0.65886 0.02432 0.0
C665 C 0.37923 0.78034 0.99137 0.0
C666 C 0.62283 0.36699 0.37311 0.0
C667 C 0.60883 0.32589 0.34126 0.0
H668 H 0.6769 0.44297 0.39097 0.0
C669 C 0.64175 0.33113 0.30264 0.0
H670 H 0.59841 0.3652 0.40265 0.0
C671 C 0.6864 0.37641 0.29532 0.0
C672 C 0.69984 0.41734 0.32696 0.0
H673 H 0.63324 0.30028 0.2779 0.0
H674 H 0.71064 0.37927 0.2651 0.0
C675 C 0.66782 0.41188 0.36626 0.0
C676 C 0.31289 0.67803 0.62684 0.0
C677 C 0.28988 0.69327 0.66234 0.0
H678 H 0.33545 0.62565 0.60592 0.0
C679 C 0.27189 0.66442 0.70578 0.0
H680 H 0.3271 0.69842 0.59264 0.0
C681 C 0.27425 0.62064 0.71228 0.0
C682 C 0.29636 0.60475 0.67642 0.0
H683 H 0.25535 0.67516 0.73509 0.0
H684 H 0.25733 0.59877 0.7452 0.0
C685 C 0.31673 0.63503 0.6341 0.0
C686 C 0.64748 0.32033 0.00104 0.0
C687 C 0.60117 0.27549 0.00085 0.0
H688 H 0.72732 0.35432 0.00661 0.0
C689 C 0.60057 0.22983 0.00624 0.0
H690 H 0.64912 0.35609 0.9972 0.0
C691 C 0.64488 0.22884 0.0118 0.0
C692 C 0.69125 0.27347 0.01196 0.0
H693 H 0.56569 0.19453 0.00561 0.0
H694 H 0.64275 0.19288 0.01615 0.0
C695 C 0.69213 0.31934 0.00691 0.0
loop_
_geom_bond_atom_site_label_1
_geom_bond_atom_site_label_2
_geom_bond_distance
_geom_bond_site_symmetry_2
_ccdc_geom_bond_type
Co0 N4 2.148 . S
Co0 N10 2.128 . S
Co0 N20 2.194 . S
Co0 O25 2.351 . S
Co0 O26 2.155 . S
Co0 O27 2.096 . S
C1 N4 1.301 . S
C1 N5 1.328 . S
C1 H6 0.930 . S
C2 C3 1.333 . S
C2 N4 1.317 . S
C2 H7 0.930 . S
C3 C2 1.333 . S
C3 N5 1.350 . S
C3 H29 0.931 . S
N4 Co0 2.148 . S
N4 C1 1.301 . S
N4 C2 1.317 . S
N5 C1 1.328 . S
N5 C3 1.350 . S
H6 C1 0.930 . S
H7 C2 0.930 . S
C8 O9 1.224 . S
C8 O27 1.247 . S
O9 C8 1.224 . S
N10 Co0 2.128 . S
N10 C11 1.355 . S
N10 C13 1.311 . S
C11 N10 1.355 . S
C11 C12 1.363 . S
C11 H23 0.929 . S
C12 C11 1.363 . S
C12 N14 1.375 . S
C12 H30 0.931 . S
C13 N10 1.311 . S
C13 N14 1.347 . S
C13 H24 0.929 . S
N14 C12 1.375 . S
N14 C13 1.347 . S
C15 C18 1.365 . S
C15 N20 1.328 . S
C15 H21 0.929 . S
C16 C17 1.362 . S
C16 C19 1.378 . S
C16 H31 0.929 . S
C17 C16 1.362 . S
C17 C18 1.366 . S
C18 C15 1.365 . S
C18 C17 1.366 . S
C18 H32 0.930 . S
C19 C16 1.378 . S
C19 N20 1.315 . S
C19 H22 0.930 . S
N20 Co0 2.194 . S
N20 C15 1.328 . S
N20 C19 1.315 . S
H21 C15 0.929 . S
H22 C19 0.930 . S
H23 C11 0.929 . S
H24 C13 0.929 . S
O25 Co0 2.351 . S
O25 C28 1.244 . S
O26 Co0 2.155 . S
O26 C28 1.240 . S
O27 Co0 2.096 . S
O27 C8 1.247 . S
C28 O25 1.244 . S
C28 O26 1.240 . S
H29 C3 0.931 . S
H30 C12 0.931 . S
H31 C16 0.929 . S
H32 C18 0.930 . S
Co33 N37 2.148 . S
Co33 N43 2.128 . S
Co33 N53 2.194 . S
Co33 O58 2.351 . S
Co33 O59 2.155 . S
Co33 O60 2.096 . S
C34 N37 1.301 . S
C34 N38 1.328 . S
C34 H39 0.930 . S
C35 C36 1.333 . S
C35 N37 1.317 . S
C35 H40 0.930 . S
C36 C35 1.333 . S
C36 N38 1.350 . S
C36 H62 0.931 . S
N37 Co33 2.148 . S
N37 C34 1.301 . S
N37 C35 1.317 . S
N38 C34 1.328 . S
N38 C36 1.350 . S
H39 C34 0.930 . S
H40 C35 0.930 . S
C41 O42 1.224 . S
C41 O60 1.247 . S
O42 C41 1.224 . S
N43 Co33 2.128 . S
N43 C44 1.355 . S
N43 C46 1.311 . S
C44 N43 1.355 . S
C44 C45 1.363 . S
C44 H56 0.929 . S
C45 C44 1.363 . S
C45 N47 1.375 . S
C45 H63 0.931 . S
C46 N43 1.311 . S
C46 N47 1.347 . S
C46 H57 0.929 . S
N47 C45 1.375 . S
N47 C46 1.347 . S
C48 C51 1.365 . S
C48 N53 1.328 . S
C48 H54 0.929 . S
C49 C50 1.362 . S
C49 C52 1.378 . S
C49 H64 0.929 . S
C50 C49 1.362 . S
C50 C51 1.366 . S
C51 C48 1.365 . S
C51 C50 1.366 . S
C51 H65 0.930 . S
C52 C49 1.378 . S
C52 N53 1.315 . S
C52 H55 0.930 . S
N53 Co33 2.194 . S
N53 C48 1.328 . S
N53 C52 1.315 . S
H54 C48 0.929 . S
H55 C52 0.930 . S
H56 C44 0.929 . S
H57 C46 0.929 . S
O58 Co33 2.351 . S
O58 C61 1.244 . S
O59 Co33 2.155 . S
O59 C61 1.240 . S
O60 Co33 2.096 . S
O60 C41 1.247 . S
C61 O58 1.244 . S
C61 O59 1.240 . S
H62 C36 0.931 . S
H63 C45 0.931 . S
H64 C49 0.929 . S
H65 C51 0.930 . S
Co66 N70 2.148 . S
Co66 N76 2.128 1_554 S
Co66 N86 2.194 1_554 S
Co66 O91 2.351 1_554 S
Co66 O92 2.155 1_554 S
Co66 O93 2.096 . S
C67 N70 1.301 1_556 S
C67 N71 1.328 1_556 S
C67 H72 0.930 . S
C68 C69 1.333 . S
C68 N70 1.317 . S
C68 H73 0.930 . S
C69 C68 1.333 . S
C69 N71 1.350 . S
C69 H95 0.931 . S
N70 Co66 2.148 . S
N70 C67 1.301 1_554 S
N70 C68 1.317 . S
N71 C67 1.328 1_554 S
N71 C69 1.350 . S
H72 C67 0.930 . S
H73 C68 0.930 . S
C74 O75 1.224 . S
C74 O93 1.247 . S
O75 C74 1.224 . S
N76 Co66 2.128 1_556 S
N76 C77 1.355 . S
N76 C79 1.311 1_556 S
C77 N76 1.355 . S
C77 C78 1.363 . S
C77 H89 0.929 . S
C78 C77 1.363 . S
C78 N80 1.375 . S
C78 H96 0.931 . S
C79 N76 1.311 1_554 S
C79 N80 1.347 1_554 S
C79 H90 0.929 . S
N80 C78 1.375 . S
N80 C79 1.347 1_556 S
C81 C84 1.365 . S
C81 N86 1.328 . S
C81 H87 0.929 . S
C82 C83 1.362 1_554 S
C82 C85 1.378 . S
C82 H97 0.929 . S
C83 C82 1.362 1_556 S
C83 C84 1.366 . S
C84 C81 1.365 . S
C84 C83 1.366 . S
C84 H98 0.930 . S
C85 C82 1.378 . S
C85 N86 1.315 1_554 S
C85 H88 0.930 . S
N86 Co66 2.194 1_556 S
N86 C81 1.328 . S
N86 C85 1.315 1_556 S
H87 C81 0.929 . S
H88 C85 0.930 . S
H89 C77 0.929 . S
H90 C79 0.929 . S
O91 Co66 2.351 1_556 S
O91 C94 1.244 . S
O92 Co66 2.155 1_556 S
O92 C94 1.240 . S
O93 Co66 2.096 . S
O93 C74 1.247 . S
C94 O91 1.244 . S
C94 O92 1.240 . S
H95 C69 0.931 . S
H96 C78 0.931 . S
H97 C82 0.929 . S
H98 C84 0.930 . S
Co99 N103 2.148 . S
Co99 N109 2.128 . S
Co99 N119 2.194 . S
Co99 O124 2.351 . S
Co99 O125 2.155 . S
Co99 O126 2.096 . S
C100 N103 1.301 . S
C100 N104 1.328 . S
C100 H105 0.930 . S
C101 C102 1.333 . S
C101 N103 1.317 . S
C101 H106 0.930 . S
C102 C101 1.333 . S
C102 N104 1.350 . S
C102 H128 0.931 . S
N103 Co99 2.148 . S
N103 C100 1.301 . S
N103 C101 1.317 . S
N104 C100 1.328 . S
N104 C102 1.350 . S
H105 C100 0.930 . S
H106 C101 0.930 . S
C107 O108 1.224 . S
C107 O126 1.247 . S
O108 C107 1.224 . S
N109 Co99 2.128 . S
N109 C110 1.355 . S
N109 C112 1.311 . S
C110 N109 1.355 . S
C110 C111 1.363 . S
C110 H122 0.929 . S
C111 C110 1.363 . S
C111 N113 1.375 . S
C111 H129 0.931 . S
C112 N109 1.311 . S
C112 N113 1.347 . S
C112 H123 0.929 . S
N113 C111 1.375 . S
N113 C112 1.347 . S
C114 C117 1.365 . S
C114 N119 1.328 . S
C114 H120 0.929 . S
C115 C116 1.362 . S
C115 C118 1.378 . S
C115 H130 0.929 . S
C116 C115 1.362 . S
C116 C117 1.366 . S
C117 C114 1.365 . S
C117 C116 1.366 . S
C117 H131 0.930 . S
C118 C115 1.378 . S
C118 N119 1.315 . S
C118 H121 0.930 . S
N119 Co99 2.194 . S
N119 C114 1.328 . S
N119 C118 1.315 . S
H120 C114 0.929 . S
H121 C118 0.930 . S
H122 C110 0.929 . S
H123 C112 0.929 . S
O124 Co99 2.351 . S
O124 C127 1.244 . S
O125 Co99 2.155 . S
O125 C127 1.240 . S
O126 Co99 2.096 . S
O126 C107 1.247 . S
C127 O124 1.244 . S
C127 O125 1.240 . S
H128 C102 0.931 . S
H129 C111 0.931 . S
H130 C115 0.929 . S
H131 C117 0.930 . S
Co132 N136 2.148 . S
Co132 N142 2.128 . S
Co132 N152 2.194 . S
Co132 O157 2.351 . S
Co132 O158 2.155 . S
Co132 O159 2.096 . S
C133 N136 1.301 . S
C133 N137 1.328 . S
C133 H138 0.930 . S
C134 C135 1.333 . S
C134 N136 1.317 . S
C134 H139 0.930 . S
C135 C134 1.333 . S
C135 N137 1.350 . S
C135 H161 0.931 . S
N136 Co132 2.148 . S
N136 C133 1.301 . S
N136 C134 1.317 . S
N137 C133 1.328 . S
N137 C135 1.350 . S
H138 C133 0.930 . S
H139 C134 0.930 . S
C140 O141 1.224 . S
C140 O159 1.247 . S
O141 C140 1.224 . S
N142 Co132 2.128 . S
N142 C143 1.355 . S
N142 C145 1.311 . S
C143 N142 1.355 . S
C143 C144 1.363 . S
C143 H155 0.929 . S
C144 C143 1.363 . S
C144 N146 1.375 . S
C144 H162 0.931 . S
C145 N142 1.311 . S
C145 N146 1.347 . S
C145 H156 0.929 . S
N146 C144 1.375 . S
N146 C145 1.347 . S
C147 C150 1.365 . S
C147 N152 1.328 . S
C147 H153 0.929 . S
C148 C149 1.362 . S
C148 C151 1.378 . S
C148 H163 0.929 . S
C149 C148 1.362 . S
C149 C150 1.366 . S
C150 C147 1.365 . S
C150 C149 1.366 . S
C150 H164 0.930 . S
C151 C148 1.378 . S
C151 N152 1.315 . S
C151 H154 0.930 . S
N152 Co132 2.194 . S
N152 C147 1.328 . S
N152 C151 1.315 . S
H153 C147 0.929 . S
H154 C151 0.930 . S
H155 C143 0.929 . S
H156 C145 0.929 . S
O157 Co132 2.351 . S
O157 C160 1.244 . S
O158 Co132 2.155 . S
O158 C160 1.240 . S
O159 Co132 2.096 . S
O159 C140 1.247 . S
C160 O157 1.244 . S
C160 O158 1.240 . S
H161 C135 0.931 . S
H162 C144 0.931 . S
H163 C148 0.929 . S
H164 C150 0.930 . S
Co165 N169 2.148 . S
Co165 N175 2.128 1_554 S
Co165 N185 2.194 1_554 S
Co165 O190 2.351 1_554 S
Co165 O191 2.155 1_554 S
Co165 O192 2.096 . S
C166 N169 1.301 1_556 S
C166 N170 1.328 1_556 S
C166 H171 0.930 . S
C167 C168 1.333 . S
C167 N169 1.317 . S
C167 H172 0.930 . S
C168 C167 1.333 . S
C168 N170 1.350 . S
C168 H194 0.931 . S
N169 Co165 2.148 . S
N169 C166 1.301 1_554 S
N169 C167 1.317 . S
N170 C166 1.328 1_554 S
N170 C168 1.350 . S
H171 C166 0.930 . S
H172 C167 0.930 . S
C173 O174 1.224 . S
C173 O192 1.247 . S
O174 C173 1.224 . S
N175 Co165 2.128 1_556 S
N175 C176 1.355 . S
N175 C178 1.311 1_556 S
C176 N175 1.355 . S
C176 C177 1.363 . S
C176 H188 0.929 . S
C177 C176 1.363 . S
C177 N179 1.375 . S
C177 H195 0.931 . S
C178 N175 1.311 1_554 S
C178 N179 1.347 1_554 S
C178 H189 0.929 . S
N179 C177 1.375 . S
N179 C178 1.347 1_556 S
C180 C183 1.365 . S
C180 N185 1.328 . S
C180 H186 0.929 . S
C181 C182 1.362 1_554 S
C181 C184 1.378 . S
C181 H196 0.929 . S
C182 C181 1.362 1_556 S
C182 C183 1.366 . S
C183 C180 1.365 . S
C183 C182 1.366 . S
C183 H197 0.930 . S
C184 C181 1.378 . S
C184 N185 1.315 1_554 S
C184 H187 0.930 . S
N185 Co165 2.194 1_556 S
N185 C180 1.328 . S
N185 C184 1.315 1_556 S
H186 C180 0.929 . S
H187 C184 0.930 . S
H188 C176 0.929 . S
H189 C178 0.929 . S
O190 Co165 2.351 1_556 S
O190 C193 1.244 . S
O191 Co165 2.155 1_556 S
O191 C193 1.240 . S
O192 Co165 2.096 . S
O192 C173 1.247 . S
C193 O190 1.244 . S
C193 O191 1.240 . S
H194 C168 0.931 . S
H195 C177 0.931 . S
H196 C181 0.929 . S
H197 C183 0.930 . S
Co198 N202 2.148 . S
Co198 N208 2.128 . S
Co198 N218 2.194 . S
Co198 O223 2.351 . S
Co198 O224 2.155 . S
Co198 O225 2.096 . S
C199 N202 1.301 . S
C199 N203 1.328 . S
C199 H204 0.930 . S
C200 C201 1.333 . S
C200 N202 1.317 . S
C200 H205 0.930 . S
C201 C200 1.333 . S
C201 N203 1.350 . S
C201 H227 0.931 . S
N202 Co198 2.148 . S
N202 C199 1.301 . S
N202 C200 1.317 . S
N203 C199 1.328 . S
N203 C201 1.350 . S
H204 C199 0.930 . S
H205 C200 0.930 . S
C206 O207 1.224 . S
C206 O225 1.247 . S
O207 C206 1.224 . S
N208 Co198 2.128 . S
N208 C209 1.355 . S
N208 C211 1.311 . S
C209 N208 1.355 . S
C209 C210 1.363 . S
C209 H221 0.929 . S
C210 C209 1.363 . S
C210 N212 1.375 . S
C210 H228 0.931 . S
C211 N208 1.311 . S
C211 N212 1.347 . S
C211 H222 0.929 . S
N212 C210 1.375 . S
N212 C211 1.347 . S
C213 C216 1.365 . S
C213 N218 1.328 . S
C213 H219 0.929 . S
C214 C215 1.362 . S
C214 C217 1.378 . S
C214 H229 0.929 . S
C215 C214 1.362 . S
C215 C216 1.366 . S
C216 C213 1.365 . S
C216 C215 1.366 . S
C216 H230 0.930 . S
C217 C214 1.378 . S
C217 N218 1.315 . S
C217 H220 0.930 . S
N218 Co198 2.194 . S
N218 C213 1.328 . S
N218 C217 1.315 . S
H219 C213 0.929 . S
H220 C217 0.930 . S
H221 C209 0.929 . S
H222 C211 0.929 . S
O223 Co198 2.351 . S
O223 C226 1.244 . S
O224 Co198 2.155 . S
O224 C226 1.240 . S
O225 Co198 2.096 . S
O225 C206 1.247 . S
C226 O223 1.244 . S
C226 O224 1.240 . S
H227 C201 0.931 . S
H228 C210 0.931 . S
H229 C214 0.929 . S
H230 C216 0.930 . S
Co231 N235 2.148 . S
Co231 N241 2.128 . S
Co231 N251 2.194 . S
Co231 O256 2.351 . S
Co231 O257 2.155 . S
Co231 O258 2.096 . S
C232 N235 1.301 . S
C232 N236 1.328 . S
C232 H237 0.930 . S
C233 C234 1.333 . S
C233 N235 1.317 . S
C233 H238 0.930 . S
C234 C233 1.333 . S
C234 N236 1.350 . S
C234 H260 0.931 . S
N235 Co231 2.148 . S
N235 C232 1.301 . S
N235 C233 1.317 . S
N236 C232 1.328 . S
N236 C234 1.350 . S
H237 C232 0.930 . S
H238 C233 0.930 . S
C239 O240 1.224 . S
C239 O258 1.247 . S
O240 C239 1.224 . S
N241 Co231 2.128 . S
N241 C242 1.355 . S
N241 C244 1.311 . S
C242 N241 1.355 . S
C242 C243 1.363 . S
C242 H254 0.929 . S
C243 C242 1.363 . S
C243 N245 1.375 . S
C243 H261 0.931 . S
C244 N241 1.311 . S
C244 N245 1.347 . S
C244 H255 0.929 . S
N245 C243 1.375 . S
N245 C244 1.347 . S
C246 C249 1.365 . S
C246 N251 1.328 . S
C246 H252 0.929 . S
C247 C248 1.362 . S
C247 C250 1.378 . S
C247 H262 0.929 . S
C248 C247 1.362 . S
C248 C249 1.366 . S
C249 C246 1.365 . S
C249 C248 1.366 . S
C249 H263 0.930 . S
C250 C247 1.378 . S
C250 N251 1.315 . S
C250 H253 0.930 . S
N251 Co231 2.194 . S
N251 C246 1.328 . S
N251 C250 1.315 . S
H252 C246 0.929 . S
H253 C250 0.930 . S
H254 C242 0.929 . S
H255 C244 0.929 . S
O256 Co231 2.351 . S
O256 C259 1.244 . S
O257 Co231 2.155 . S
O257 C259 1.240 . S
O258 Co231 2.096 . S
O258 C239 1.247 . S
C259 O256 1.244 . S
C259 O257 1.240 . S
H260 C234 0.931 . S
H261 C243 0.931 . S
H262 C247 0.929 . S
H263 C249 0.930 . S
Co264 N268 2.148 . S
Co264 N274 2.128 1_556 S
Co264 N284 2.194 1_556 S
Co264 O289 2.351 1_556 S
Co264 O290 2.155 1_556 S
Co264 O291 2.096 . S
C265 N268 1.301 1_554 S
C265 N269 1.328 1_554 S
C265 H270 0.930 . S
C266 C267 1.333 . S
C266 N268 1.317 . S
C266 H271 0.930 . S
C267 C266 1.333 . S
C267 N269 1.350 . S
C267 H293 0.931 . S
N268 Co264 2.148 . S
N268 C265 1.301 1_556 S
N268 C266 1.317 . S
N269 C265 1.328 1_556 S
N269 C267 1.350 . S
H270 C265 0.930 . S
H271 C266 0.930 . S
C272 O273 1.224 . S
C272 O291 1.247 . S
O273 C272 1.224 . S
N274 Co264 2.128 1_554 S
N274 C275 1.355 . S
N274 C277 1.311 1_554 S
C275 N274 1.355 . S
C275 C276 1.363 . S
C275 H287 0.929 . S
C276 C275 1.363 . S
C276 N278 1.375 . S
C276 H294 0.931 . S
C277 N274 1.311 1_556 S
C277 N278 1.347 1_556 S
C277 H288 0.929 . S
N278 C276 1.375 . S
N278 C277 1.347 1_554 S
C279 C282 1.365 . S
C279 N284 1.328 . S
C279 H285 0.929 . S
C280 C281 1.362 1_556 S
C280 C283 1.378 . S
C280 H295 0.929 . S
C281 C280 1.362 1_554 S
C281 C282 1.366 . S
C282 C279 1.365 . S
C282 C281 1.366 . S
C282 H296 0.930 . S
C283 C280 1.378 . S
C283 N284 1.315 1_556 S
C283 H286 0.930 . S
N284 Co264 2.194 1_554 S
N284 C279 1.328 . S
N284 C283 1.315 1_554 S
H285 C279 0.929 . S
H286 C283 0.930 . S
H287 C275 0.929 . S
H288 C277 0.929 . S
O289 Co264 2.351 1_554 S
O289 C292 1.244 . S
O290 Co264 2.155 1_554 S
O290 C292 1.240 . S
O291 Co264 2.096 . S
O291 C272 1.247 . S
C292 O289 1.244 . S
C292 O290 1.240 . S
H293 C267 0.931 . S
H294 C276 0.931 . S
H295 C280 0.929 . S
H296 C282 0.930 . S
Co297 N301 2.148 . S
Co297 N307 2.128 . S
Co297 N317 2.194 . S
Co297 O322 2.351 . S
Co297 O323 2.155 . S
Co297 O324 2.096 . S
C298 N301 1.301 . S
C298 N302 1.328 . S
C298 H303 0.930 . S
C299 C300 1.333 . S
C299 N301 1.317 . S
C299 H304 0.930 . S
C300 C299 1.333 . S
C300 N302 1.350 . S
C300 H326 0.931 . S
N301 Co297 2.148 . S
N301 C298 1.301 . S
N301 C299 1.317 . S
N302 C298 1.328 . S
N302 C300 1.350 . S
H303 C298 0.930 . S
H304 C299 0.930 . S
C305 O306 1.224 . S
C305 O324 1.247 . S
O306 C305 1.224 . S
N307 Co297 2.128 . S
N307 C308 1.355 . S
N307 C310 1.311 . S
C308 N307 1.355 . S
C308 C309 1.363 . S
C308 H320 0.929 . S
C309 C308 1.363 . S
C309 N311 1.375 . S
C309 H327 0.931 . S
C310 N307 1.311 . S
C310 N311 1.347 . S
C310 H321 0.929 . S
N311 C309 1.375 . S
N311 C310 1.347 . S
C312 C315 1.365 . S
C312 N317 1.328 . S
C312 H318 0.929 . S
C313 C314 1.362 . S
C313 C316 1.378 . S
C313 H328 0.929 . S
C314 C313 1.362 . S
C314 C315 1.366 . S
C315 C312 1.365 . S
C315 C314 1.366 . S
C315 H329 0.930 . S
C316 C313 1.378 . S
C316 N317 1.315 . S
C316 H319 0.930 . S
N317 Co297 2.194 . S
N317 C312 1.328 . S
N317 C316 1.315 . S
H318 C312 0.929 . S
H319 C316 0.930 . S
H320 C308 0.929 . S
H321 C310 0.929 . S
O322 Co297 2.351 . S
O322 C325 1.244 . S
O323 Co297 2.155 . S
O323 C325 1.240 . S
O324 Co297 2.096 . S
O324 C305 1.247 . S
C325 O322 1.244 . S
C325 O323 1.240 . S
H326 C300 0.931 . S
H327 C309 0.931 . S
H328 C313 0.929 . S
H329 C315 0.930 . S
Co330 N334 2.148 . S
Co330 N340 2.128 . S
Co330 N350 2.194 . S
Co330 O355 2.351 . S
Co330 O356 2.155 . S
Co330 O357 2.096 . S
C331 N334 1.301 . S
C331 N335 1.328 . S
C331 H336 0.930 . S
C332 C333 1.333 . S
C332 N334 1.317 . S
C332 H337 0.930 . S
C333 C332 1.333 . S
C333 N335 1.350 . S
C333 H359 0.931 . S
N334 Co330 2.148 . S
N334 C331 1.301 . S
N334 C332 1.317 . S
N335 C331 1.328 . S
N335 C333 1.350 . S
H336 C331 0.930 . S
H337 C332 0.930 . S
C338 O339 1.224 . S
C338 O357 1.247 . S
O339 C338 1.224 . S
N340 Co330 2.128 . S
N340 C341 1.355 . S
N340 C343 1.311 . S
C341 N340 1.355 . S
C341 C342 1.363 . S
C341 H353 0.929 . S
C342 C341 1.363 . S
C342 N344 1.375 . S
C342 H360 0.931 . S
C343 N340 1.311 . S
C343 N344 1.347 . S
C343 H354 0.929 . S
N344 C342 1.375 . S
N344 C343 1.347 . S
C345 C348 1.365 . S
C345 N350 1.328 . S
C345 H351 0.929 . S
C346 C347 1.362 . S
C346 C349 1.378 . S
C346 H361 0.929 . S
C347 C346 1.362 . S
C347 C348 1.366 . S
C348 C345 1.365 . S
C348 C347 1.366 . S
C348 H362 0.930 . S
C349 C346 1.378 . S
C349 N350 1.315 . S
C349 H352 0.930 . S
N350 Co330 2.194 . S
N350 C345 1.328 . S
N350 C349 1.315 . S
H351 C345 0.929 . S
H352 C349 0.930 . S
H353 C341 0.929 . S
H354 C343 0.929 . S
O355 Co330 2.351 . S
O355 C358 1.244 . S
O356 Co330 2.155 . S
O356 C358 1.240 . S
O357 Co330 2.096 . S
O357 C338 1.247 . S
C358 O355 1.244 . S
C358 O356 1.240 . S
H359 C333 0.931 . S
H360 C342 0.931 . S
H361 C346 0.929 . S
H362 C348 0.930 . S
Co363 N367 2.148 . S
Co363 N373 2.128 1_556 S
Co363 N383 2.194 1_556 S
Co363 O388 2.351 1_556 S
Co363 O389 2.155 1_556 S
Co363 O390 2.096 . S
C364 N367 1.301 1_554 S
C364 N368 1.328 1_554 S
C364 H369 0.930 . S
C365 C366 1.333 . S
C365 N367 1.317 . S
C365 H370 0.930 . S
C366 C365 1.333 . S
C366 N368 1.350 . S
C366 H392 0.931 . S
N367 Co363 2.148 . S
N367 C364 1.301 1_556 S
N367 C365 1.317 . S
N368 C364 1.328 1_556 S
N368 C366 1.350 . S
H369 C364 0.930 . S
H370 C365 0.930 . S
C371 O372 1.224 . S
C371 O390 1.247 . S
O372 C371 1.224 . S
N373 Co363 2.128 1_554 S
N373 C374 1.355 . S
N373 C376 1.311 1_554 S
C374 N373 1.355 . S
C374 C375 1.363 . S
C374 H386 0.929 . S
C375 C374 1.363 . S
C375 N377 1.375 . S
C375 H393 0.931 . S
C376 N373 1.311 1_556 S
C376 N377 1.347 1_556 S
C376 H387 0.929 . S
N377 C375 1.375 . S
N377 C376 1.347 1_554 S
C378 C381 1.365 . S
C378 N383 1.328 . S
C378 H384 0.929 . S
C379 C380 1.362 1_556 S
C379 C382 1.378 . S
C379 H394 0.929 . S
C380 C379 1.362 1_554 S
C380 C381 1.366 . S
C381 C378 1.365 . S
C381 C380 1.366 . S
C381 H395 0.930 . S
C382 C379 1.378 . S
C382 N383 1.315 1_556 S
C382 H385 0.930 . S
N383 Co363 2.194 1_554 S
N383 C378 1.328 . S
N383 C382 1.315 1_554 S
H384 C378 0.929 . S
H385 C382 0.930 . S
H386 C374 0.929 . S
H387 C376 0.929 . S
O388 Co363 2.351 1_554 S
O388 C391 1.244 . S
O389 Co363 2.155 1_554 S
O389 C391 1.240 . S
O390 Co363 2.096 . S
O390 C371 1.247 . S
C391 O388 1.244 . S
C391 O389 1.240 . S
H392 C366 0.931 . S
H393 C375 0.931 . S
H394 C379 0.929 . S
H395 C381 0.930 . S
C396 C397 1.387 1_455 S
C396 H400 0.950 . S
C396 C405 1.390 . S
C397 C396 1.387 1_655 S
C397 C399 1.387 . S
H398 C405 0.950 . S
C399 C397 1.387 . S
C399 C401 1.390 . S
C399 H403 0.950 . S
H400 C396 0.950 . S
C401 C399 1.390 . S
C401 C402 1.387 1_655 S
C401 H404 0.950 . S
C402 C401 1.387 1_455 S
C402 C405 1.387 . S
H403 C399 0.950 . S
H404 C401 0.950 . S
C405 C396 1.390 . S
C405 H398 0.950 . S
C405 C402 1.387 . S
C406 C407 1.387 . S
C406 H410 0.950 . S
C406 C415 1.390 1_565 S
C407 C406 1.387 . S
C407 C409 1.387 . S
H408 C415 0.950 . S
C409 C407 1.387 . S
C409 C411 1.390 1_565 S
C409 H413 0.950 . S
H410 C406 0.950 . S
C411 C409 1.390 1_545 S
C411 C412 1.387 . S
C411 H414 0.950 . S
C412 C411 1.387 . S
C412 C415 1.387 . S
H413 C409 0.950 . S
H414 C411 0.950 . S
C415 C406 1.390 1_545 S
C415 H408 0.950 . S
C415 C412 1.387 . S
C416 C417 1.387 . S
C416 H420 0.950 . S
C416 C425 1.390 . S
C417 C416 1.387 . S
C417 C419 1.387 . S
H418 C425 0.950 . S
C419 C417 1.387 . S
C419 C421 1.390 . S
C419 H423 0.950 . S
H420 C416 0.950 . S
C421 C419 1.390 . S
C421 C422 1.387 . S
C421 H424 0.950 . S
C422 C421 1.387 . S
C422 C425 1.387 . S
H423 C419 0.950 . S
H424 C421 0.950 . S
C425 C416 1.390 . S
C425 H418 0.950 . S
C425 C422 1.387 . S
C426 C427 1.388 1_655 S
C426 H430 0.951 . S
C426 C435 1.389 . S
C427 C426 1.388 1_455 S
C427 C429 1.387 . S
H428 C435 0.950 . S
C429 C427 1.387 . S
C429 C431 1.390 . S
C429 H433 0.950 . S
H430 C426 0.951 . S
C431 C429 1.390 . S
C431 C432 1.387 1_455 S
C431 H434 0.950 . S
C432 C431 1.387 1_655 S
C432 C435 1.387 . S
H433 C429 0.950 . S
H434 C431 0.950 . S
C435 C426 1.389 . S
C435 H428 0.950 . S
C435 C432 1.387 . S
C436 C437 1.387 . S
C436 H440 0.950 . S
C436 C445 1.390 1_545 S
C437 C436 1.387 . S
C437 C439 1.387 . S
H438 C445 0.950 . S
C439 C437 1.387 . S
C439 C441 1.390 1_545 S
C439 H443 0.950 . S
H440 C436 0.950 . S
C441 C439 1.390 1_565 S
C441 C442 1.387 . S
C441 H444 0.950 . S
C442 C441 1.387 . S
C442 C445 1.387 . S
H443 C439 0.950 . S
H444 C441 0.950 . S
C445 C436 1.390 1_565 S
C445 H438 0.950 . S
C445 C442 1.387 . S
C446 C447 1.387 . S
C446 H450 0.950 . S
C446 C455 1.390 . S
C447 C446 1.387 . S
C447 C449 1.387 . S
H448 C455 0.950 . S
C449 C447 1.387 . S
C449 C451 1.390 . S
C449 H453 0.950 . S
H450 C446 0.950 . S
C451 C449 1.390 . S
C451 C452 1.387 . S
C451 H454 0.950 . S
C452 C451 1.387 . S
C452 C455 1.387 . S
H453 C449 0.950 . S
H454 C451 0.950 . S
C455 C446 1.390 . S
C455 H448 0.950 . S
C455 C452 1.387 . S
C456 C457 1.387 . S
C456 H460 0.950 . S
C456 C465 1.390 . S
C457 C456 1.387 . S
C457 C459 1.387 . S
H458 C465 0.950 . S
C459 C457 1.387 . S
C459 C461 1.390 . S
C459 H463 0.950 . S
H460 C456 0.950 . S
C461 C459 1.390 . S
C461 C462 1.387 . S
C461 H464 0.950 . S
C462 C461 1.387 . S
C462 C465 1.387 . S
H463 C459 0.950 . S
H464 C461 0.950 . S
C465 C456 1.390 . S
C465 H458 0.950 . S
C465 C462 1.387 . S
C466 C467 1.387 . S
C466 H470 0.950 . S
C466 C475 1.390 . S
C467 C466 1.387 . S
C467 C469 1.387 . S
H468 C475 0.950 . S
C469 C467 1.387 . S
C469 C471 1.390 . S
C469 H473 0.950 . S
H470 C466 0.950 . S
C471 C469 1.390 . S
C471 C472 1.387 . S
C471 H474 0.950 . S
C472 C471 1.387 . S
C472 C475 1.387 . S
H473 C469 0.950 . S
H474 C471 0.950 . S
C475 C466 1.390 . S
C475 H468 0.950 . S
C475 C472 1.387 . S
C476 C477 1.387 . S
C476 H480 0.950 . S
C476 C485 1.390 . S
C477 C476 1.387 . S
C477 C479 1.387 . S
H478 C485 0.950 . S
C479 C477 1.387 . S
C479 C481 1.390 . S
C479 H483 0.950 . S
H480 C476 0.950 . S
C481 C479 1.390 . S
C481 C482 1.387 . S
C481 H484 0.950 . S
C482 C481 1.387 . S
C482 C485 1.387 . S
H483 C479 0.950 . S
H484 C481 0.950 . S
C485 C476 1.390 . S
C485 H478 0.950 . S
C485 C482 1.387 . S
C486 C487 1.387 . S
C486 H490 0.950 . S
C486 C495 1.390 . S
C487 C486 1.387 . S
C487 C489 1.387 . S
H488 C495 0.950 . S
C489 C487 1.387 . S
C489 C491 1.390 . S
C489 H493 0.950 . S
H490 C486 0.950 . S
C491 C489 1.390 . S
C491 C492 1.387 . S
C491 H494 0.950 . S
C492 C491 1.387 . S
C492 C495 1.387 . S
H493 C489 0.950 . S
H494 C491 0.950 . S
C495 C486 1.390 . S
C495 H488 0.950 . S
C495 C492 1.387 . S
C496 C497 1.387 . S
C496 H500 0.950 . S
C496 C505 1.390 . S
C497 C496 1.387 . S
C497 C499 1.387 . S
H498 C505 0.950 . S
C499 C497 1.387 . S
C499 C501 1.390 . S
C499 H503 0.950 . S
H500 C496 0.950 . S
C501 C499 1.390 . S
C501 C502 1.387 . S
C501 H504 0.950 . S
C502 C501 1.387 . S
C502 C505 1.387 . S
H503 C499 0.950 . S
H504 C501 0.950 . S
C505 C496 1.390 . S
C505 H498 0.950 . S
C505 C502 1.387 . S
C506 C507 1.387 . S
C506 H510 0.950 . S
C506 C515 1.390 . S
C507 C506 1.387 . S
C507 C509 1.387 . S
H508 C515 0.950 . S
C509 C507 1.387 . S
C509 C511 1.390 . S
C509 H513 0.950 . S
H510 C506 0.950 . S
C511 C509 1.390 . S
C511 C512 1.387 . S
C511 H514 0.950 . S
C512 C511 1.387 . S
C512 C515 1.387 . S
H513 C509 0.950 . S
H514 C511 0.950 . S
C515 C506 1.390 . S
C515 H508 0.950 . S
C515 C512 1.387 . S
C516 C517 1.387 . S
C516 H520 0.950 . S
C516 C525 1.390 1_655 S
C517 C516 1.387 . S
C517 C519 1.387 . S
H518 C525 0.950 . S
C519 C517 1.387 . S
C519 C521 1.390 1_655 S
C519 H523 0.950 . S
H520 C516 0.950 . S
C521 C519 1.390 1_455 S
C521 C522 1.387 . S
C521 H524 0.950 . S
C522 C521 1.387 . S
C522 C525 1.387 . S
H523 C519 0.950 . S
H524 C521 0.950 . S
C525 C516 1.390 1_455 S
C525 H518 0.950 . S
C525 C522 1.387 . S
C526 C527 1.387 . S
C526 H530 0.950 . S
C526 C535 1.390 1_545 S
C527 C526 1.387 . S
C527 C529 1.387 . S
H528 C535 0.950 . S
C529 C527 1.387 . S
C529 C531 1.390 1_545 S
C529 H533 0.950 . S
H530 C526 0.950 . S
C531 C529 1.390 1_565 S
C531 C532 1.387 . S
C531 H534 0.950 . S
C532 C531 1.387 . S
C532 C535 1.387 . S
H533 C529 0.950 . S
H534 C531 0.950 . S
C535 C526 1.390 1_565 S
C535 H528 0.950 . S
C535 C532 1.387 . S
C536 C537 1.387 1_556 S
C536 H540 0.950 . S
C536 C545 1.390 . S
C537 C536 1.387 1_554 S
C537 C539 1.387 . S
H538 C545 0.950 . S
C539 C537 1.387 . S
C539 C541 1.390 . S
C539 H543 0.950 . S
H540 C536 0.950 . S
C541 C539 1.390 . S
C541 C542 1.387 . S
C541 H544 0.950 . S
C542 C541 1.387 . S
C542 C545 1.387 1_554 S
H543 C539 0.950 . S
H544 C541 0.950 . S
C545 C536 1.390 . S
C545 H538 0.950 . S
C545 C542 1.387 1_556 S
C546 C547 1.387 . S
C546 H550 0.950 . S
C546 C555 1.390 1_565 S
C547 C546 1.387 . S
C547 C549 1.387 . S
H548 C555 0.950 . S
C549 C547 1.387 . S
C549 C551 1.390 1_565 S
C549 H553 0.950 . S
H550 C546 0.950 . S
C551 C549 1.390 1_545 S
C551 C552 1.387 . S
C551 H554 0.950 . S
C552 C551 1.387 . S
C552 C555 1.387 . S
H553 C549 0.950 . S
H554 C551 0.950 . S
C555 C546 1.390 1_545 S
C555 H548 0.950 . S
C555 C552 1.387 . S
C556 C557 1.387 . S
C556 H560 0.950 . S
C556 C565 1.390 . S
C557 C556 1.387 . S
C557 C559 1.387 . S
H558 C565 0.950 . S
C559 C557 1.387 . S
C559 C561 1.390 . S
C559 H563 0.950 . S
H560 C556 0.950 . S
C561 C559 1.390 . S
C561 C562 1.387 . S
C561 H564 0.950 . S
C562 C561 1.387 . S
C562 C565 1.387 . S
H563 C559 0.950 . S
H564 C561 0.950 . S
C565 C556 1.390 . S
C565 H558 0.950 . S
C565 C562 1.387 . S
C566 C567 1.387 . S
C566 H570 0.950 . S
C566 C575 1.390 1_655 S
C567 C566 1.387 . S
C567 C569 1.387 1_556 S
H568 C575 0.950 . S
C569 C567 1.387 1_554 S
C569 C571 1.390 1_655 S
C569 H573 0.950 . S
H570 C566 0.950 . S
C571 C569 1.390 1_455 S
C571 C572 1.387 1_554 S
C571 H574 0.950 . S
C572 C571 1.387 1_556 S
C572 C575 1.387 . S
H573 C569 0.950 . S
H574 C571 0.950 . S
C575 C566 1.390 1_455 S
C575 H568 0.950 . S
C575 C572 1.387 . S
C576 C577 1.387 . S
C576 H580 0.950 . S
C576 C585 1.390 . S
C577 C576 1.387 . S
C577 C579 1.387 . S
H578 C585 0.950 . S
C579 C577 1.387 . S
C579 C581 1.390 . S
C579 H583 0.950 . S
H580 C576 0.950 . S
C581 C579 1.390 . S
C581 C582 1.387 . S
C581 H584 0.950 . S
C582 C581 1.387 . S
C582 C585 1.387 . S
H583 C579 0.950 . S
H584 C581 0.950 . S
C585 C576 1.390 . S
C585 H578 0.950 . S
C585 C582 1.387 . S
C586 C587 1.387 . S
C586 H590 0.950 . S
C586 C595 1.390 1_655 S
C587 C586 1.387 . S
C587 C589 1.387 . S
H588 C595 0.950 . S
C589 C587 1.387 . S
C589 C591 1.390 1_655 S
C589 H593 0.950 . S
H590 C586 0.950 . S
C591 C589 1.390 1_455 S
C591 C592 1.387 . S
C591 H594 0.950 . S
C592 C591 1.387 . S
C592 C595 1.387 . S
H593 C589 0.950 . S
H594 C591 0.950 . S
C595 C586 1.390 1_455 S
C595 H588 0.950 . S
C595 C592 1.387 . S
C596 C597 1.387 . S
C596 H600 0.950 . S
C596 C605 1.390 1_544 S
C597 C596 1.387 . S
C597 C599 1.387 . S
H598 C605 0.950 . S
C599 C597 1.387 . S
C599 C601 1.389 1_544 S
C599 H603 0.950 . S
H600 C596 0.950 . S
C601 C599 1.389 1_566 S
C601 C602 1.389 . S
C601 H604 0.950 . S
C602 C601 1.389 . S
C602 C605 1.387 . S
H603 C599 0.950 . S
H604 C601 0.950 . S
C605 C596 1.390 1_566 S
C605 H598 0.950 . S
C605 C602 1.387 . S
C606 C607 1.387 . S
C606 H610 0.950 . S
C606 C615 1.390 . S
C607 C606 1.387 . S
C607 C609 1.387 . S
H608 C615 0.950 . S
C609 C607 1.387 . S
C609 C611 1.390 . S
C609 H613 0.950 . S
H610 C606 0.950 . S
C611 C609 1.390 . S
C611 C612 1.387 . S
C611 H614 0.950 . S
C612 C611 1.387 . S
C612 C615 1.387 . S
H613 C609 0.950 . S
H614 C611 0.950 . S
C615 C606 1.390 . S
C615 H608 0.950 . S
C615 C612 1.387 . S
C616 C617 1.387 . S
C616 H620 0.950 . S
C616 C625 1.390 1_455 S
C617 C616 1.387 . S
C617 C619 1.387 . S
H618 C625 0.950 . S
C619 C617 1.387 . S
C619 C621 1.390 1_455 S
C619 H623 0.950 . S
H620 C616 0.950 . S
C621 C619 1.390 1_655 S
C621 C622 1.387 . S
C621 H624 0.950 . S
C622 C621 1.387 . S
C622 C625 1.387 . S
H623 C619 0.950 . S
H624 C621 0.950 . S
C625 C616 1.390 1_655 S
C625 H618 0.950 . S
C625 C622 1.387 . S
C626 C627 1.387 . S
C626 H630 0.950 . S
C626 C635 1.390 1_546 S
C627 C626 1.387 . S
C627 C629 1.387 . S
H628 C635 0.950 . S
C629 C627 1.387 . S
C629 C631 1.390 1_546 S
C629 H633 0.950 . S
H630 C626 0.950 . S
C631 C629 1.390 1_564 S
C631 C632 1.387 . S
C631 H634 0.950 . S
C632 C631 1.387 . S
C632 C635 1.387 . S
H633 C629 0.950 . S
H634 C631 0.950 . S
C635 C626 1.390 1_564 S
C635 H628 0.950 . S
C635 C632 1.387 . S
C636 C637 1.387 . S
C636 H640 0.950 . S
C636 C645 1.390 . S
C637 C636 1.387 . S
C637 C639 1.387 . S
H638 C645 0.950 . S
C639 C637 1.387 . S
C639 C641 1.390 . S
C639 H643 0.950 . S
H640 C636 0.950 . S
C641 C639 1.390 . S
C641 C642 1.387 . S
C641 H644 0.950 . S
C642 C641 1.387 . S
C642 C645 1.387 . S
H643 C639 0.950 . S
H644 C641 0.950 . S
C645 C636 1.390 . S
C645 H638 0.950 . S
C645 C642 1.387 . S
C646 C647 1.387 . S
C646 H650 0.950 . S
C646 C655 1.390 . S
C647 C646 1.387 . S
C647 C649 1.387 . S
H648 C655 0.950 . S
C649 C647 1.387 . S
C649 C651 1.390 . S
C649 H653 0.950 . S
H650 C646 0.950 . S
C651 C649 1.390 . S
C651 C652 1.387 . S
C651 H654 0.950 . S
C652 C651 1.387 . S
C652 C655 1.387 . S
H653 C649 0.950 . S
H654 C651 0.950 . S
C655 C646 1.390 . S
C655 H648 0.950 . S
C655 C652 1.387 . S
C656 C657 1.387 . S
C656 H660 0.950 . S
C656 C665 1.390 1_556 S
C657 C656 1.387 . S
C657 C659 1.387 . S
H658 C665 0.950 . S
C659 C657 1.387 . S
C659 C661 1.390 1_556 S
C659 H663 0.950 . S
H660 C656 0.950 . S
C661 C659 1.390 1_554 S
C661 C662 1.387 . S
C661 H664 0.950 . S
C662 C661 1.387 . S
C662 C665 1.387 . S
H663 C659 0.950 . S
H664 C661 0.950 . S
C665 C656 1.390 1_554 S
C665 H658 0.950 . S
C665 C662 1.387 . S
C666 C667 1.387 . S
C666 H670 0.950 . S
C666 C675 1.390 . S
C667 C666 1.387 . S
C667 C669 1.387 . S
H668 C675 0.950 . S
C669 C667 1.387 . S
C669 C671 1.390 . S
C669 H673 0.950 . S
H670 C666 0.950 . S
C671 C669 1.390 . S
C671 C672 1.387 . S
C671 H674 0.950 . S
C672 C671 1.387 . S
C672 C675 1.387 . S
H673 C669 0.950 . S
H674 C671 0.950 . S
C675 C666 1.390 . S
C675 H668 0.950 . S
C675 C672 1.387 . S
C676 C677 1.387 . S
C676 H680 0.950 . S
C676 C685 1.390 . S
C677 C676 1.387 . S
C677 C679 1.387 . S
H678 C685 0.950 . S
C679 C677 1.387 . S
C679 C681 1.390 . S
C679 H683 0.950 . S
H680 C676 0.950 . S
C681 C679 1.390 . S
C681 C682 1.387 . S
C681 H684 0.950 . S
C682 C681 1.387 . S
C682 C685 1.387 . S
H683 C679 0.950 . S
H684 C681 0.950 . S
C685 C676 1.390 . S
C685 H678 0.950 . S
C685 C682 1.387 . S
C686 C687 1.387 . S
C686 H690 0.950 . S
C686 C695 1.390 1_556 S
C687 C686 1.387 . S
C687 C689 1.387 . S
H688 C695 0.950 . S
C689 C687 1.387 . S
C689 C691 1.390 1_556 S
C689 H693 0.950 . S
H690 C686 0.950 . S
C691 C689 1.390 1_554 S
C691 C692 1.387 . S
C691 H694 0.950 . S
C692 C691 1.387 . S
C692 C695 1.387 . S
H693 C689 0.950 . S
H694 C691 0.950 . S
C695 C686 1.390 1_554 S
C695 H688 0.950 . S
C695 C692 1.387 . S
C397 C391 1.793 . S
C402 C28 1.790 . S
C407 C226 1.886 . S
C412 C61 1.886 . S
C417 C94 1.793 . S
C422 C259 1.790 . S
C427 C292 1.793 . S
C432 C127 1.790 . S
C437 C325 1.886 . S
C442 C160 1.886 . S
C447 C358 1.792 . S
C452 C193 1.791 . S
C457 C8 0.851 . S
C462 C338 0.851 . S
C467 C41 0.916 . S
C472 C371 0.921 . S
C477 C206 0.922 . S
C482 C74 0.924 . S
C487 C239 0.843 . S
C492 C107 0.843 . S
C497 C272 0.918 . S
C502 C140 0.918 . S
C507 C173 0.919 . S
C512 C305 0.925 . S
C517 N104 1.295 . S
C522 N5 1.295 . S
C527 N38 1.301 . S
C532 N137 1.301 . S
C537 N170 1.299 . S
C542 N71 1.299 . S
C547 N203 1.301 . S
C552 N302 1.301 . S
C557 N236 1.296 . S
C562 N335 1.296 . S
C567 N368 1.299 . S
C572 N269 1.299 . S
C577 N14 1.111 . S
C582 N311 1.110 . S
C587 N47 1.111 . S
C592 N344 1.110 . S
C597 N377 1.100 . S
C602 N80 1.101 . S
C607 N113 1.111 . S
C612 N212 1.110 . S
C617 N146 1.110 . S
C622 N245 1.111 . S
C627 N179 1.098 . S
C632 N278 1.099 . S
C637 C215 1.835 . S
C642 C17 1.834 . S
C647 C248 1.835 . S
C652 C50 1.836 . S
C657 C83 1.856 . S
C662 C281 1.857 . S
C667 C314 1.835 . S
C672 C116 1.834 . S
C677 C149 1.836 . S
C682 C347 1.835 . S
C687 C182 1.859 . S
C692 C380 1.860 . S
