# Generated by pormake.
# Topology utg, (3)-cn, num edge types: 1
# Building blocks:
#     Node 0, Type 0, BuildingBlock: OLANEW_clean_sbu_2, # of connection points: 3
#     Node 1, Type 0, BuildingBlock: OLANEW_clean_sbu_2, # of connection points: 3
#     Node 2, Type 0, BuildingBlock: OLANEW_clean_sbu_2, # of connection points: 3
#     Node 3, Type 0, BuildingBlock: OLANEW_clean_sbu_2, # of connection points: 3
#     Node 4, Type 0, BuildingBlock: OLANEW_clean_sbu_2, # of connection points: 3
#     Node 5, Type 0, BuildingBlock: OLANEW_clean_sbu_2, # of connection points: 3
#     Node 6, Type 0, BuildingBlock: OLANEW_clean_sbu_2, # of connection points: 3
#     Node 7, Type 0, BuildingBlock: OLANEW_clean_sbu_2, # of connection points: 3
#     Node 8, Type 0, BuildingBlock: OLANEW_clean_sbu_2, # of connection points: 3
#     Node 9, Type 0, BuildingBlock: OLANEW_clean_sbu_2, # of connection points: 3
#     Node 10, Type 0, BuildingBlock: OLANEW_clean_sbu_2, # of connection points: 3
#     Node 11, Type 0, BuildingBlock: OLANEW_clean_sbu_2, # of connection points: 3
#     Node 12, Type 0, BuildingBlock: OLANEW_clean_sbu_2, # of connection points: 3
#     Node 13, Type 0, BuildingBlock: OLANEW_clean_sbu_2, # of connection points: 3
#     Node 14, Type 0, BuildingBlock: OLANEW_clean_sbu_2, # of connection points: 3
#     Node 15, Type 0, BuildingBlock: OLANEW_clean_sbu_2, # of connection points: 3
#     Edge 16, Type (0, 0), BuildingBlock: AJUNOK_clean_linker_0, # of connection points: 2
#     Edge 17, Type (0, 0), BuildingBlock: AJUNOK_clean_linker_0, # of connection points: 2
#     Edge 18, Type (0, 0), BuildingBlock: AJUNOK_clean_linker_0, # of connection points: 2
#     Edge 19, Type (0, 0), BuildingBlock: AJUNOK_clean_linker_0, # of connection points: 2
#     Edge 20, Type (0, 0), BuildingBlock: AJUNOK_clean_linker_0, # of connection points: 2
#     Edge 21, Type (0, 0), BuildingBlock: AJUNOK_clean_linker_0, # of connection points: 2
#     Edge 22, Type (0, 0), BuildingBlock: AJUNOK_clean_linker_0, # of connection points: 2
#     Edge 23, Type (0, 0), BuildingBlock: AJUNOK_clean_linker_0, # of connection points: 2
#     Edge 24, Type (0, 0), BuildingBlock: AJUNOK_clean_linker_0, # of connection points: 2
#     Edge 25, Type (0, 0), BuildingBlock: AJUNOK_clean_linker_0, # of connection points: 2
#     Edge 26, Type (0, 0), BuildingBlock: AJUNOK_clean_linker_0, # of connection points: 2
#     Edge 27, Type (0, 0), BuildingBlock: AJUNOK_clean_linker_0, # of connection points: 2
#     Edge 28, Type (0, 0), BuildingBlock: AJUNOK_clean_linker_0, # of connection points: 2
#     Edge 29, Type (0, 0), BuildingBlock: AJUNOK_clean_linker_0, # of connection points: 2
#     Edge 30, Type (0, 0), BuildingBlock: AJUNOK_clean_linker_0, # of connection points: 2
#     Edge 31, Type (0, 0), BuildingBlock: AJUNOK_clean_linker_0, # of connection points: 2
#     Edge 32, Type (0, 0), BuildingBlock: AJUNOK_clean_linker_0, # of connection points: 2
#     Edge 33, Type (0, 0), BuildingBlock: AJUNOK_clean_linker_0, # of connection points: 2
#     Edge 34, Type (0, 0), BuildingBlock: AJUNOK_clean_linker_0, # of connection points: 2
#     Edge 35, Type (0, 0), BuildingBlock: AJUNOK_clean_linker_0, # of connection points: 2
#     Edge 36, Type (0, 0), BuildingBlock: AJUNOK_clean_linker_0, # of connection points: 2
#     Edge 37, Type (0, 0), BuildingBlock: AJUNOK_clean_linker_0, # of connection points: 2
#     Edge 38, Type (0, 0), BuildingBlock: AJUNOK_clean_linker_0, # of connection points: 2
#     Edge 39, Type (0, 0), BuildingBlock: AJUNOK_clean_linker_0, # of connection points: 2
# Relax obj value: 0.001
# Max RMSD: 0.030
# Mean RMSD: 0.030
data_MOF--net-utg--node1-OLANEW_clean_sbu_2--edge1-AJUNOK_clean_linker_0
_symmetry_space_group_name_H-M    P1
_symmetry_Int_Tables_number       1
_symmetry_cell_setting            triclinic
loop_
_symmetry_equiv_pos_as_xyz
'x, y, z'
_cell_length_a     32.837715
_cell_length_b     32.837659
_cell_length_c     62.512655
_cell_angle_alpha  89.987102
_cell_angle_beta   90.016488
_cell_angle_gamma 90.022468
loop_
_atom_site_label
_atom_site_type_symbol
_atom_site_fract_x
_atom_site_fract_y
_atom_site_fract_z
_atom_type_partial_charge
O0 O 0.09312 0.19316 0.1692 0.0
Cd1 Cd 0.08682 0.15579 0.20289 0.0
O2 O 0.15595 0.17249 0.16391 0.0
Cd3 Cd 0.16491 0.14904 0.19611 0.0
O4 O 0.20167 0.16722 0.22356 0.0
C5 C 0.23016 0.19209 0.21914 0.0
O6 O 0.23533 0.20291 0.19908 0.0
C7 C 0.12467 0.19167 0.15744 0.0
C8 C 0.04227 0.08369 0.1984 0.0
O9 O 0.02454 0.11769 0.20218 0.0
O10 O 0.08118 0.08382 0.19669 0.0
O11 O 0.81846 0.61776 0.42047 0.0
Cd12 Cd 0.86828 0.61978 0.44962 0.0
O13 O 0.84128 0.67641 0.40847 0.0
Cd14 Cd 0.87475 0.69197 0.43734 0.0
O15 O 0.85964 0.72949 0.46491 0.0
C16 C 0.83332 0.75691 0.46104 0.0
O17 O 0.82019 0.7611 0.4413 0.0
C18 C 0.81797 0.64573 0.40638 0.0
C19 C 0.92745 0.55936 0.44551 0.0
O20 O 0.89741 0.55482 0.45838 0.0
O21 O 0.92962 0.5924 0.43468 0.0
O22 O 0.37782 0.32961 0.6572 0.0
Cd23 Cd 0.36316 0.38864 0.67982 0.0
O24 O 0.31314 0.3242 0.64838 0.0
Cd25 Cd 0.29063 0.36531 0.67294 0.0
O26 O 0.26183 0.34984 0.70318 0.0
C27 C 0.27772 0.31852 0.7117 0.0
O28 O 0.30935 0.30181 0.70229 0.0
C29 C 0.34987 0.3126 0.6463 0.0
C30 C 0.42885 0.44217 0.68306 0.0
O31 O 0.42174 0.41596 0.69779 0.0
O32 O 0.40518 0.44283 0.66677 0.0
O33 O 0.67771 0.89684 0.92257 0.0
Cd34 Cd 0.63568 0.89907 0.95487 0.0
O35 O 0.64053 0.8506 0.90632 0.0
Cd36 Cd 0.60653 0.83701 0.9353 0.0
O37 O 0.61845 0.80001 0.96349 0.0
C38 C 0.63591 0.76619 0.95978 0.0
O39 O 0.64187 0.75551 0.93977 0.0
C40 C 0.67056 0.87506 0.90616 0.0
C41 C 0.56602 0.94731 0.95084 0.0
O42 O 0.6003 0.96289 0.95626 0.0
O43 O 0.56489 0.909 0.94701 0.0
O44 O 0.11286 0.32471 0.0791 0.0
Cd45 Cd 0.12396 0.38107 0.05416 0.0
O46 O 0.17854 0.31165 0.07997 0.0
Cd47 Cd 0.19795 0.3517 0.0542 0.0
O48 O 0.23975 0.34261 0.02762 0.0
C49 C 0.26988 0.31966 0.03187 0.0
O50 O 0.27435 0.30673 0.05162 0.0
C51 C 0.14262 0.30425 0.08643 0.0
C52 C 0.05968 0.43664 0.05419 0.0
O53 O 0.06196 0.40878 0.03989 0.0
O54 O 0.08758 0.43805 0.06851 0.0
O55 O 0.69377 0.60316 0.32734 0.0
Cd56 Cd 0.65143 0.59734 0.29522 0.0
O57 O 0.69004 0.67 0.32661 0.0
Cd58 Cd 0.65943 0.67695 0.296 0.0
O59 O 0.6818 0.71368 0.26945 0.0
C60 C 0.71961 0.7091 0.26584 0.0
O61 O 0.73968 0.68156 0.27687 0.0
C62 C 0.70283 0.63755 0.3354 0.0
C63 C 0.5798 0.55234 0.30058 0.0
O64 O 0.61353 0.53489 0.29586 0.0
O65 O 0.58011 0.59109 0.30311 0.0
O66 O 0.40359 0.18511 0.57109 0.0
Cd67 Cd 0.4086 0.14155 0.53945 0.0
O68 O 0.34765 0.15573 0.58276 0.0
Cd69 Cd 0.33831 0.11987 0.55393 0.0
O70 O 0.29986 0.12862 0.52593 0.0
C71 C 0.26553 0.14497 0.52978 0.0
O72 O 0.25558 0.15187 0.54981 0.0
C73 C 0.37571 0.18206 0.58511 0.0
C74 C 0.45188 0.06923 0.54559 0.0
O75 O 0.47014 0.10236 0.54049 0.0
O76 O 0.4132 0.07059 0.54823 0.0
O77 O 0.82838 0.88042 0.84144 0.0
Cd78 Cd 0.89064 0.86429 0.82168 0.0
O79 O 0.80546 0.81786 0.83756 0.0
Cd80 Cd 0.85111 0.7959 0.81518 0.0
O81 O 0.84106 0.76323 0.78539 0.0
C82 C 0.8122 0.77843 0.77446 0.0
O83 O 0.79468 0.81184 0.78146 0.0
C84 C 0.80134 0.85357 0.84506 0.0
C85 C 0.94402 0.9303 0.81953 0.0
O86 O 0.92006 0.92211 0.80392 0.0
O87 O 0.9428 0.90728 0.83607 0.0
O88 O 0.61814 0.6674 0.66246 0.0
Cd89 Cd 0.62872 0.61125 0.6876 0.0
O90 O 0.68122 0.66181 0.65097 0.0
Cd91 Cd 0.70226 0.62564 0.67795 0.0
O92 O 0.73519 0.65006 0.70534 0.0
C93 C 0.73723 0.6887 0.70456 0.0
O94 O 0.72045 0.70743 0.68821 0.0
C95 C 0.64609 0.67788 0.6495 0.0
C96 C 0.56419 0.55601 0.68716 0.0
O97 O 0.56654 0.5836 0.70161 0.0
O98 O 0.59219 0.55465 0.67291 0.0
O99 O 0.31254 0.10493 0.9223 0.0
Cd100 Cd 0.35531 0.10305 0.95432 0.0
O101 O 0.3453 0.15631 0.90769 0.0
Cd102 Cd 0.3806 0.16845 0.93642 0.0
O103 O 0.37214 0.2058 0.96482 0.0
C104 C 0.3517 0.23812 0.96168 0.0
O105 O 0.34037 0.24687 0.94205 0.0
C106 C 0.31744 0.12945 0.90677 0.0
C107 C 0.42216 0.0511 0.95048 0.0
O108 O 0.38729 0.03768 0.9564 0.0
O109 O 0.42535 0.08915 0.94622 0.0
O110 O 0.91345 0.81791 0.16294 0.0
Cd111 Cd 0.91226 0.85535 0.19681 0.0
O112 O 0.86246 0.85212 0.14897 0.0
Cd113 Cd 0.84448 0.87581 0.18003 0.0
O114 O 0.80789 0.84866 0.20539 0.0
C115 C 0.81324 0.81053 0.20745 0.0
O116 O 0.84086 0.79263 0.1955 0.0
C117 C 0.89045 0.82562 0.14707 0.0
C118 C 0.95329 0.92996 0.19515 0.0
O119 O 0.97215 0.89688 0.19967 0.0
O120 O 0.91509 0.92759 0.19114 0.0
O121 O 0.16737 0.39086 0.41458 0.0
Cd122 Cd 0.10862 0.37121 0.43635 0.0
O123 O 0.19144 0.3284 0.41542 0.0
Cd124 Cd 0.15052 0.30255 0.43921 0.0
O125 O 0.15848 0.25855 0.46494 0.0
C126 C 0.18364 0.23019 0.46086 0.0
O127 O 0.19954 0.22837 0.44159 0.0
C128 C 0.19373 0.36486 0.40869 0.0
C129 C 0.0506 0.4331 0.4388 0.0
O130 O 0.0756 0.42695 0.45421 0.0
O131 O 0.05289 0.41002 0.42233 0.0
O132 O 0.59691 0.80513 0.57269 0.0
Cd133 Cd 0.593 0.84878 0.54104 0.0
O134 O 0.65846 0.82639 0.58094 0.0
Cd135 Cd 0.66805 0.86147 0.55187 0.0
O136 O 0.7086 0.85241 0.52473 0.0
C137 C 0.74182 0.83451 0.52931 0.0
O138 O 0.74932 0.82599 0.54947 0.0
C139 C 0.62761 0.80434 0.58508 0.0
C140 C 0.54566 0.91867 0.54642 0.0
O141 O 0.52955 0.88469 0.54092 0.0
O142 O 0.58421 0.91945 0.54967 0.0
O143 O 0.17316 0.1172 0.8332 0.0
Cd144 Cd 0.11497 0.12803 0.80945 0.0
O145 O 0.17944 0.18307 0.8388 0.0
Cd146 Cd 0.14023 0.20258 0.8127 0.0
O147 O 0.16021 0.23593 0.78448 0.0
C148 C 0.19878 0.23548 0.78273 0.0
O149 O 0.22 0.21578 0.79724 0.0
C150 C 0.19023 0.1467 0.84285 0.0
C151 C 0.05873 0.0647 0.81307 0.0
O152 O 0.08483 0.06518 0.79783 0.0
O153 O 0.05896 0.09431 0.82641 0.0
O154 O 0.88803 0.67275 0.08035 0.0
Cd155 Cd 0.86636 0.61306 0.05988 0.0
O156 O 0.83651 0.70971 0.06906 0.0
Cd157 Cd 0.80872 0.66633 0.04716 0.0
O158 O 0.76115 0.66972 0.02295 0.0
C159 C 0.73175 0.69333 0.02753 0.0
O160 O 0.73118 0.71044 0.04653 0.0
C161 C 0.86842 0.70613 0.08038 0.0
C162 C 0.92805 0.5549 0.05698 0.0
O163 O 0.92151 0.57996 0.04164 0.0
O164 O 0.90553 0.55738 0.07366 0.0
O165 O 0.31112 0.41988 0.32857 0.0
Cd166 Cd 0.35134 0.42335 0.29566 0.0
O167 O 0.33572 0.36001 0.33743 0.0
Cd168 Cd 0.36204 0.34811 0.30612 0.0
O169 O 0.34282 0.30955 0.27956 0.0
C170 C 0.32014 0.27983 0.28492 0.0
O171 O 0.31242 0.2743 0.30534 0.0
C172 C 0.3135 0.3906 0.34182 0.0
C173 C 0.42581 0.46377 0.30041 0.0
O174 O 0.39308 0.4833 0.29598 0.0
O175 O 0.42314 0.42512 0.30292 0.0
C176 C 0.30384 0.26422 0.24666 0.0
C177 C 0.29966 0.2544 0.26845 0.0
C178 C 0.28209 0.24313 0.23089 0.0
C179 C 0.25512 0.21132 0.2362 0.0
H180 H 0.32336 0.28908 0.2417 0.0
H181 H 0.28582 0.25265 0.21441 0.0
S182 S 0.23595 0.17095 0.29076 0.0
N183 N 0.26851 0.20862 0.29441 0.0
N184 N 0.22758 0.16917 0.26474 0.0
C185 C 0.25178 0.20009 0.25785 0.0
C186 C 0.27403 0.22155 0.27395 0.0
C187 C 0.75723 0.82306 0.49058 0.0
C188 C 0.76882 0.81881 0.51213 0.0
C189 C 0.77931 0.80428 0.47417 0.0
C190 C 0.81388 0.78035 0.47858 0.0
H191 H 0.73007 0.83993 0.48633 0.0
H192 H 0.7682 0.80751 0.45794 0.0
S193 S 0.86018 0.76378 0.53206 0.0
N194 N 0.81959 0.79199 0.53682 0.0
N195 N 0.86091 0.75657 0.50594 0.0
C196 C 0.82715 0.77762 0.49993 0.0
C197 C 0.80469 0.79687 0.5167 0.0
C198 C 0.21819 0.30715 0.73606 0.0
C199 C 0.25891 0.29877 0.73058 0.0
C200 C 0.19886 0.28643 0.75286 0.0
C201 C 0.21968 0.25694 0.76499 0.0
H202 H 0.20076 0.32924 0.72701 0.0
H203 H 0.16738 0.29368 0.75636 0.0
S204 S 0.32725 0.22479 0.7576 0.0
N205 N 0.31973 0.25962 0.73898 0.0
N206 N 0.28364 0.22094 0.77054 0.0
C207 C 0.26066 0.24882 0.75991 0.0
C208 C 0.2802 0.26965 0.74272 0.0
C209 C 0.65442 0.75855 -0.00161 0.0
C210 C 0.65512 0.74285 0.97746 0.0
C211 C 0.6776 0.74089 0.01474 0.0
C212 C 0.70258 0.70685 0.01084 0.0
H213 H 0.63719 0.78579 0.00206 0.0
H214 H 0.67725 0.75531 0.03032 0.0
S215 S 0.71014 0.64992 0.9597 0.0
N216 N 0.67905 0.68809 0.95437 0.0
N217 N 0.72279 0.6551 0.98511 0.0
C218 C 0.70138 0.68907 0.99037 0.0
C219 C 0.67761 0.707 0.9737 0.0
C220 C 0.28626 0.31216 0.99299 0.0
C221 C 0.29556 0.3029 0.01442 0.0
C222 C 0.30602 0.2924 0.97609 0.0
C223 C 0.33584 0.26245 0.97987 0.0
H224 H 0.26243 0.33377 0.98916 0.0
H225 H 0.29655 0.29965 0.95993 0.0
S226 S 0.37563 0.23112 0.03297 0.0
N227 N 0.33986 0.26484 0.03845 0.0
N228 N 0.37679 0.22759 0.00664 0.0
C229 C 0.34726 0.25467 0.00117 0.0
C230 C 0.3272 0.27492 0.01844 0.0
C231 C 0.77966 0.72262 0.24254 0.0
C232 C 0.74169 0.7354 0.25047 0.0
C233 C 0.8024 0.74722 0.22871 0.0
C234 C 0.78845 0.78594 0.22248 0.0
H235 H 0.792 0.69322 0.24699 0.0
H236 H 0.83139 0.73582 0.22301 0.0
S237 S 0.69096 0.83394 0.23879 0.0
N238 N 0.69094 0.78936 0.25102 0.0
N239 N 0.73402 0.83593 0.22519 0.0
C240 C 0.75055 0.79926 0.23031 0.0
C241 C 0.72705 0.77389 0.24421 0.0
C242 C 0.25461 0.1594 0.49091 0.0
C243 C 0.24033 0.16161 0.51209 0.0
C244 C 0.23477 0.17998 0.47429 0.0
C245 C 0.19987 0.20378 0.47815 0.0
H246 H 0.28231 0.14296 0.48718 0.0
H247 H 0.24806 0.17853 0.45845 0.0
S248 S 0.1464 0.21455 0.53015 0.0
N249 N 0.18627 0.18574 0.53557 0.0
N250 N 0.14918 0.22459 0.50432 0.0
C251 C 0.18367 0.2041 0.49898 0.0
C252 C 0.20382 0.18298 0.51593 0.0
C253 C 0.80229 0.71479 0.75299 0.0
C254 C 0.7954 0.75679 0.75564 0.0
C255 C 0.78345 0.69296 0.73642 0.0
C256 C 0.75747 0.71242 0.72172 0.0
H257 H 0.82148 0.69834 0.76412 0.0
H258 H 0.78922 0.66056 0.73519 0.0
S259 S 0.73111 0.82247 0.72106 0.0
N260 N 0.76192 0.81731 0.74174 0.0
N261 N 0.72683 0.77656 0.71058 0.0
C262 C 0.75119 0.75465 0.72389 0.0
C263 C 0.77006 0.77675 0.74085 0.0
C264 C 0.09674 0.24533 0.13288 0.0
C265 C 0.12689 0.21603 0.13743 0.0
C266 C 0.10123 0.27287 0.11587 0.0
C267 C 0.13613 0.27229 0.10284 0.0
H268 H 0.07015 0.24815 0.14302 0.0
H269 H 0.07794 0.29577 0.11348 0.0
S270 S 0.22106 0.19781 0.10591 0.0
N271 N 0.19074 0.18536 0.1259 0.0
N272 N 0.19921 0.2371 0.09414 0.0
C273 C 0.16536 0.24168 0.10643 0.0
C274 C 0.16071 0.21355 0.12365 0.0
C275 C 0.73988 0.60582 0.36643 0.0
C276 C 0.73109 0.64036 0.35391 0.0
C277 C 0.768 0.60768 0.38334 0.0
C278 C 0.78887 0.64401 0.3882 0.0
H279 H 0.72493 0.57707 0.36316 0.0
H280 H 0.77361 0.58032 0.39257 0.0
S281 S 0.77711 0.74319 0.36017 0.0
N282 N 0.74575 0.71211 0.3476 0.0
N283 N 0.79844 0.7155 0.3791 0.0
C284 C 0.78037 0.67877 0.37577 0.0
C285 C 0.75152 0.67699 0.35873 0.0
C286 C 0.3343 0.21829 0.61251 0.0
C287 C 0.37223 0.21267 0.60247 0.0
C288 C 0.32777 0.25043 0.62674 0.0
C289 C 0.35902 0.27808 0.63184 0.0
H290 H 0.30876 0.19863 0.60879 0.0
H291 H 0.29772 0.25376 0.63367 0.0
S292 S 0.46503 0.27508 0.61139 0.0
N293 N 0.44229 0.23627 0.59954 0.0
N294 N 0.43009 0.29647 0.62671 0.0
C295 C 0.39767 0.27191 0.6227 0.0
C296 C 0.40424 0.23932 0.60791 0.0
C297 C 0.73609 0.89786 0.88937 0.0
C298 C 0.70031 0.87417 0.88825 0.0
C299 C 0.768 0.89247 0.87472 0.0
C300 C 0.76547 0.86293 0.85852 0.0
H301 H 0.74033 0.91963 0.9022 0.0
H302 H 0.79555 0.9102 0.87676 0.0
S303 S 0.67614 0.79761 0.84634 0.0
N304 N 0.66256 0.82349 0.86781 0.0
N305 N 0.72261 0.81319 0.84052 0.0
C306 C 0.72893 0.84094 0.85632 0.0
C307 C 0.69632 0.84664 0.87109 0.0
C308 C 0.67321 0.73229 0.62576 0.0
C309 C 0.63938 0.71073 0.63364 0.0
C310 C 0.66867 0.7635 0.61078 0.0
C311 C 0.63011 0.77425 0.60273 0.0
H312 H 0.70369 0.7251 0.63123 0.0
H313 H 0.69594 0.77851 0.60504 0.0
S314 S 0.53141 0.72827 0.61874 0.0
N315 N 0.5657 0.70325 0.63292 0.0
N316 N 0.55713 0.76166 0.60431 0.0
C317 C 0.59581 0.75345 0.61071 0.0
C318 C 0.60044 0.72183 0.62628 0.0
C319 C 0.28329 0.16659 0.87702 0.0
C320 C 0.28756 0.13057 0.88899 0.0
C321 C 0.25196 0.17112 0.86207 0.0
C322 C 0.22386 0.13963 0.85819 0.0
H323 H 0.30338 0.19225 0.87972 0.0
H324 H 0.24962 0.19981 0.85359 0.0
S325 S 0.2235 0.03785 0.88397 0.0
N326 N 0.26225 0.06188 0.89514 0.0
N327 N 0.20361 0.07023 0.86666 0.0
C328 C 0.2287 0.10274 0.86934 0.0
C329 C 0.26043 0.09828 0.88484 0.0
C330 C 0.91121 0.76112 0.12877 0.0
C331 C 0.89173 0.7993 0.12779 0.0
C332 C 0.90553 0.73188 0.11269 0.0
C333 C 0.88018 0.73972 0.09502 0.0
H334 H 0.92903 0.75268 0.14266 0.0
H335 H 0.91931 0.70218 0.11479 0.0
S336 S 0.82906 0.83788 0.0827 0.0
N337 N 0.85106 0.84546 0.10611 0.0
N338 N 0.84046 0.79069 0.0759 0.0
C339 C 0.86344 0.77902 0.09293 0.0
C340 C 0.86921 0.80876 0.1093 0.0
C341 C 0.25884 0.34809 0.39018 0.0
C342 C 0.22671 0.37572 0.39346 0.0
C343 C 0.28813 0.35459 0.37433 0.0
C344 C 0.28658 0.38899 0.36092 0.0
H345 H 0.26093 0.32036 0.39954 0.0
H346 H 0.31122 0.33148 0.37208 0.0
S347 S 0.21143 0.47328 0.36453 0.0
N348 N 0.19716 0.44085 0.38328 0.0
N349 N 0.25224 0.45313 0.35333 0.0
C350 C 0.25608 0.41824 0.36486 0.0
C351 C 0.22615 0.41162 0.38114 0.0
C352 C 0.03919 0.00751 0.19759 0.0
C353 C 0.01878 0.04515 0.19663 0.0
C354 C 0.01779 0.97058 0.1969 0.0
C355 C 0.97507 0.96966 0.19501 0.0
H356 H 0.07201 0.00644 0.19926 0.0
H357 H 0.035 0.94252 0.19797 0.0
S358 S 0.90716 0.05979 0.19086 0.0
N359 N 0.95335 0.07922 0.19302 0.0
N360 N 0.91317 0.00991 0.19155 0.0
C361 C 0.95429 0.00709 0.19357 0.0
C362 C 0.9761 0.04475 0.19444 0.0
C363 C 1.00091 0.47448 0.45981 0.0
C364 C 0.0196 0.4656 0.44012 0.0
C365 C 0.97062 0.50446 0.46135 0.0
C366 C 0.95892 0.52746 0.44339 0.0
H367 H 0.00922 0.45763 0.47406 0.0
H368 H 0.95672 0.5101 0.47678 0.0
S369 S 0.99933 0.51667 0.38829 0.0
N370 N 0.02429 0.4821 0.4023 0.0
N371 N 0.96852 0.53954 0.40536 0.0
C372 C 0.97782 0.5193 0.42368 0.0
C373 C 0.00785 0.48804 0.422 0.0
C374 C 0.51591 0.51162 0.66696 0.0
C375 C 0.52987 0.52686 0.68667 0.0
C376 C 0.48295 0.48454 0.66596 0.0
C377 C 0.46348 0.47082 0.68466 0.0
H378 H 0.53011 0.52122 0.65216 0.0
H379 H 0.47297 0.47388 0.65041 0.0
S380 S 0.489 0.50085 0.74028 0.0
N381 N 0.5218 0.52624 0.72533 0.0
N382 N 0.46069 0.47427 0.72348 0.0
C383 C 0.47751 0.48535 0.70449 0.0
C384 C 0.51046 0.51369 0.70549 0.0
C385 C 0.49758 0.04056 0.9496 0.0
C386 C 0.45812 0.02384 0.94937 0.0
C387 C 0.53219 0.01558 0.94984 0.0
C388 C 0.52879 0.97285 0.94957 0.0
H389 H 0.50188 0.07325 0.95009 0.0
H390 H 0.56185 0.02999 0.95037 0.0
S391 S 0.43235 0.91378 0.94769 0.0
N392 N 0.41763 0.96184 0.94808 0.0
N393 N 0.48259 0.9149 0.94828 0.0
C394 C 0.4895 0.95571 0.94875 0.0
C395 C 0.45422 0.98118 0.94874 0.0
C396 C 0.98083 0.51159 0.07455 0.0
C397 C 0.96112 0.52442 0.05574 0.0
C398 C 0.0129 0.48346 0.07385 0.0
C399 C 0.02574 0.46629 0.05437 0.0
H400 H 0.97188 0.52391 0.08992 0.0
H401 H 0.02743 0.47477 0.08872 0.0
S402 S 0.98337 0.4889 0.00064 0.0
N403 N 0.95655 0.51769 0.01708 0.0
N404 N 0.01603 0.46385 0.01583 0.0
C405 C 0.00588 0.47836 0.03547 0.0
C406 C 0.97381 0.50771 0.03613 0.0
C407 C 0.50364 0.54949 0.30173 0.0
C408 C 0.5412 0.52886 0.30207 0.0
C409 C 0.46664 0.52818 0.30154 0.0
C410 C 0.46555 0.48532 0.3019 0.0
H411 H 0.5027 0.58244 0.30107 0.0
H412 H 0.43865 0.54559 0.30088 0.0
S413 S 0.5554 0.41674 0.3043 0.0
N414 N 0.57501 0.46302 0.30374 0.0
N415 N 0.50554 0.42299 0.30358 0.0
C416 C 0.50288 0.46428 0.30292 0.0
C417 C 0.54063 0.48602 0.30294 0.0
C418 C 0.51769 0.03087 0.54725 0.0
C419 C 0.47482 0.0304 0.5475 0.0
C420 C 0.54026 0.99465 0.54758 0.0
C421 C 0.52093 0.9564 0.54792 0.0
H422 H 0.53409 0.05945 0.54651 0.0
H423 H 0.57316 0.99673 0.54695 0.0
S424 S 0.40939 0.9382 0.55006 0.0
N425 N 0.4139 0.98824 0.54922 0.0
N426 N 0.45632 0.92026 0.54963 0.0
C427 C 0.4781 0.95543 0.54876 0.0
C428 C 0.45507 0.99237 0.54862 0.0
C429 C 0.98796 0.97767 0.79837 0.0
C430 C 0.97273 0.96498 0.81832 0.0
C431 C 0.01608 0.00971 0.79684 0.0
C432 C 0.02918 0.0309 0.81515 0.0
H433 H 0.97863 0.96229 0.78384 0.0
H434 H 0.02728 0.01822 0.78116 0.0
S435 S 0.99776 0.01017 0.87111 0.0
N436 N 0.97271 0.97616 0.85677 0.0
N437 N 0.02463 0.03709 0.85383 0.0
C438 C 0.01375 0.0189 0.83516 0.0
C439 C 0.9858 0.98572 0.83677 0.0
loop_
_geom_bond_atom_site_label_1
_geom_bond_atom_site_label_2
_geom_bond_distance
_geom_bond_site_symmetry_2
_ccdc_geom_bond_type
O0 Cd1 2.300 . S
O0 C7 1.275 . S
Cd1 O0 2.300 . S
Cd1 O9 2.381 . S
Cd1 O10 2.378 . S
O2 Cd3 2.385 . S
O2 C7 1.255 . S
Cd3 O2 2.385 . S
Cd3 O4 2.317 . S
O4 Cd3 2.317 . S
O4 C5 1.232 . S
C5 O4 1.232 . S
C5 O6 1.218 . S
O6 C5 1.218 . S
C7 O0 1.275 . S
C7 O2 1.255 . S
C8 O9 1.258 . S
C8 O10 1.256 . S
O9 Cd1 2.381 . S
O9 C8 1.258 . S
O10 Cd1 2.378 . S
O10 C8 1.256 . S
O11 Cd12 2.300 . S
O11 C18 1.275 . S
Cd12 O11 2.300 . S
Cd12 O20 2.381 . S
Cd12 O21 2.378 . S
O13 Cd14 2.385 . S
O13 C18 1.255 . S
Cd14 O13 2.385 . S
Cd14 O15 2.317 . S
O15 Cd14 2.317 . S
O15 C16 1.232 . S
C16 O15 1.232 . S
C16 O17 1.218 . S
O17 C16 1.218 . S
C18 O11 1.275 . S
C18 O13 1.255 . S
C19 O20 1.258 . S
C19 O21 1.256 . S
O20 Cd12 2.381 . S
O20 C19 1.258 . S
O21 Cd12 2.378 . S
O21 C19 1.256 . S
O22 Cd23 2.300 . S
O22 C29 1.275 . S
Cd23 O22 2.300 . S
Cd23 O31 2.381 . S
Cd23 O32 2.378 . S
O24 Cd25 2.385 . S
O24 C29 1.255 . S
Cd25 O24 2.385 . S
Cd25 O26 2.317 . S
O26 Cd25 2.317 . S
O26 C27 1.232 . S
C27 O26 1.232 . S
C27 O28 1.218 . S
O28 C27 1.218 . S
C29 O22 1.275 . S
C29 O24 1.255 . S
C30 O31 1.258 . S
C30 O32 1.256 . S
O31 Cd23 2.381 . S
O31 C30 1.258 . S
O32 Cd23 2.378 . S
O32 C30 1.256 . S
O33 Cd34 2.300 . S
O33 C40 1.275 . S
Cd34 O33 2.300 . S
Cd34 O42 2.381 . S
Cd34 O43 2.378 . S
O35 Cd36 2.385 . S
O35 C40 1.255 . S
Cd36 O35 2.385 . S
Cd36 O37 2.317 . S
O37 Cd36 2.317 . S
O37 C38 1.232 . S
C38 O37 1.232 . S
C38 O39 1.218 . S
O39 C38 1.218 . S
C40 O33 1.275 . S
C40 O35 1.255 . S
C41 O42 1.258 . S
C41 O43 1.256 . S
O42 Cd34 2.381 . S
O42 C41 1.258 . S
O43 Cd34 2.378 . S
O43 C41 1.256 . S
O44 Cd45 2.300 . S
O44 C51 1.275 . S
Cd45 O44 2.300 . S
Cd45 O53 2.381 . S
Cd45 O54 2.378 . S
O46 Cd47 2.385 . S
O46 C51 1.255 . S
Cd47 O46 2.385 . S
Cd47 O48 2.317 . S
O48 Cd47 2.317 . S
O48 C49 1.232 . S
C49 O48 1.232 . S
C49 O50 1.218 . S
O50 C49 1.218 . S
C51 O44 1.275 . S
C51 O46 1.255 . S
C52 O53 1.258 . S
C52 O54 1.256 . S
O53 Cd45 2.381 . S
O53 C52 1.258 . S
O54 Cd45 2.378 . S
O54 C52 1.256 . S
O55 Cd56 2.300 . S
O55 C62 1.275 . S
Cd56 O55 2.300 . S
Cd56 O64 2.381 . S
Cd56 O65 2.378 . S
O57 Cd58 2.385 . S
O57 C62 1.255 . S
Cd58 O57 2.385 . S
Cd58 O59 2.317 . S
O59 Cd58 2.317 . S
O59 C60 1.232 . S
C60 O59 1.232 . S
C60 O61 1.218 . S
O61 C60 1.218 . S
C62 O55 1.275 . S
C62 O57 1.255 . S
C63 O64 1.258 . S
C63 O65 1.256 . S
O64 Cd56 2.381 . S
O64 C63 1.258 . S
O65 Cd56 2.378 . S
O65 C63 1.256 . S
O66 Cd67 2.300 . S
O66 C73 1.275 . S
Cd67 O66 2.300 . S
Cd67 O75 2.381 . S
Cd67 O76 2.378 . S
O68 Cd69 2.385 . S
O68 C73 1.255 . S
Cd69 O68 2.385 . S
Cd69 O70 2.317 . S
O70 Cd69 2.317 . S
O70 C71 1.232 . S
C71 O70 1.232 . S
C71 O72 1.218 . S
O72 C71 1.218 . S
C73 O66 1.275 . S
C73 O68 1.255 . S
C74 O75 1.258 . S
C74 O76 1.256 . S
O75 Cd67 2.381 . S
O75 C74 1.258 . S
O76 Cd67 2.378 . S
O76 C74 1.256 . S
O77 Cd78 2.300 . S
O77 C84 1.275 . S
Cd78 O77 2.300 . S
Cd78 O86 2.381 . S
Cd78 O87 2.378 . S
O79 Cd80 2.385 . S
O79 C84 1.255 . S
Cd80 O79 2.385 . S
Cd80 O81 2.317 . S
O81 Cd80 2.317 . S
O81 C82 1.232 . S
C82 O81 1.232 . S
C82 O83 1.218 . S
O83 C82 1.218 . S
C84 O77 1.275 . S
C84 O79 1.255 . S
C85 O86 1.258 . S
C85 O87 1.256 . S
O86 Cd78 2.381 . S
O86 C85 1.258 . S
O87 Cd78 2.378 . S
O87 C85 1.256 . S
O88 Cd89 2.300 . S
O88 C95 1.275 . S
Cd89 O88 2.300 . S
Cd89 O97 2.381 . S
Cd89 O98 2.378 . S
O90 Cd91 2.385 . S
O90 C95 1.255 . S
Cd91 O90 2.385 . S
Cd91 O92 2.317 . S
O92 Cd91 2.317 . S
O92 C93 1.232 . S
C93 O92 1.232 . S
C93 O94 1.218 . S
O94 C93 1.218 . S
C95 O88 1.275 . S
C95 O90 1.255 . S
C96 O97 1.258 . S
C96 O98 1.256 . S
O97 Cd89 2.381 . S
O97 C96 1.258 . S
O98 Cd89 2.378 . S
O98 C96 1.256 . S
O99 Cd100 2.300 . S
O99 C106 1.275 . S
Cd100 O99 2.300 . S
Cd100 O108 2.381 . S
Cd100 O109 2.378 . S
O101 Cd102 2.385 . S
O101 C106 1.255 . S
Cd102 O101 2.385 . S
Cd102 O103 2.317 . S
O103 Cd102 2.317 . S
O103 C104 1.232 . S
C104 O103 1.232 . S
C104 O105 1.218 . S
O105 C104 1.218 . S
C106 O99 1.275 . S
C106 O101 1.255 . S
C107 O108 1.258 . S
C107 O109 1.256 . S
O108 Cd100 2.381 . S
O108 C107 1.258 . S
O109 Cd100 2.378 . S
O109 C107 1.256 . S
O110 Cd111 2.300 . S
O110 C117 1.275 . S
Cd111 O110 2.300 . S
Cd111 O119 2.381 . S
Cd111 O120 2.378 . S
O112 Cd113 2.385 . S
O112 C117 1.255 . S
Cd113 O112 2.385 . S
Cd113 O114 2.317 . S
O114 Cd113 2.317 . S
O114 C115 1.232 . S
C115 O114 1.232 . S
C115 O116 1.218 . S
O116 C115 1.218 . S
C117 O110 1.275 . S
C117 O112 1.255 . S
C118 O119 1.258 . S
C118 O120 1.256 . S
O119 Cd111 2.381 . S
O119 C118 1.258 . S
O120 Cd111 2.378 . S
O120 C118 1.256 . S
O121 Cd122 2.300 . S
O121 C128 1.275 . S
Cd122 O121 2.300 . S
Cd122 O130 2.381 . S
Cd122 O131 2.378 . S
O123 Cd124 2.385 . S
O123 C128 1.255 . S
Cd124 O123 2.385 . S
Cd124 O125 2.317 . S
O125 Cd124 2.317 . S
O125 C126 1.232 . S
C126 O125 1.232 . S
C126 O127 1.218 . S
O127 C126 1.218 . S
C128 O121 1.275 . S
C128 O123 1.255 . S
C129 O130 1.258 . S
C129 O131 1.256 . S
O130 Cd122 2.381 . S
O130 C129 1.258 . S
O131 Cd122 2.378 . S
O131 C129 1.256 . S
O132 Cd133 2.300 . S
O132 C139 1.275 . S
Cd133 O132 2.300 . S
Cd133 O141 2.381 . S
Cd133 O142 2.378 . S
O134 Cd135 2.385 . S
O134 C139 1.255 . S
Cd135 O134 2.385 . S
Cd135 O136 2.317 . S
O136 Cd135 2.317 . S
O136 C137 1.232 . S
C137 O136 1.232 . S
C137 O138 1.218 . S
O138 C137 1.218 . S
C139 O132 1.275 . S
C139 O134 1.255 . S
C140 O141 1.258 . S
C140 O142 1.256 . S
O141 Cd133 2.381 . S
O141 C140 1.258 . S
O142 Cd133 2.378 . S
O142 C140 1.256 . S
O143 Cd144 2.300 . S
O143 C150 1.275 . S
Cd144 O143 2.300 . S
Cd144 O152 2.381 . S
Cd144 O153 2.378 . S
O145 Cd146 2.385 . S
O145 C150 1.255 . S
Cd146 O145 2.385 . S
Cd146 O147 2.317 . S
O147 Cd146 2.317 . S
O147 C148 1.232 . S
C148 O147 1.232 . S
C148 O149 1.218 . S
O149 C148 1.218 . S
C150 O143 1.275 . S
C150 O145 1.255 . S
C151 O152 1.258 . S
C151 O153 1.256 . S
O152 Cd144 2.381 . S
O152 C151 1.258 . S
O153 Cd144 2.378 . S
O153 C151 1.256 . S
O154 Cd155 2.300 . S
O154 C161 1.275 . S
Cd155 O154 2.300 . S
Cd155 O163 2.381 . S
Cd155 O164 2.378 . S
O156 Cd157 2.385 . S
O156 C161 1.255 . S
Cd157 O156 2.385 . S
Cd157 O158 2.317 . S
O158 Cd157 2.317 . S
O158 C159 1.232 . S
C159 O158 1.232 . S
C159 O160 1.218 . S
O160 C159 1.218 . S
C161 O154 1.275 . S
C161 O156 1.255 . S
C162 O163 1.258 . S
C162 O164 1.256 . S
O163 Cd155 2.381 . S
O163 C162 1.258 . S
O164 Cd155 2.378 . S
O164 C162 1.256 . S
O165 Cd166 2.300 . S
O165 C172 1.275 . S
Cd166 O165 2.300 . S
Cd166 O174 2.381 . S
Cd166 O175 2.378 . S
O167 Cd168 2.385 . S
O167 C172 1.255 . S
Cd168 O167 2.385 . S
Cd168 O169 2.317 . S
O169 Cd168 2.317 . S
O169 C170 1.232 . S
C170 O169 1.232 . S
C170 O171 1.218 . S
O171 C170 1.218 . S
C172 O165 1.275 . S
C172 O167 1.255 . S
C173 O174 1.258 . S
C173 O175 1.256 . S
O174 Cd166 2.381 . S
O174 C173 1.258 . S
O175 Cd166 2.378 . S
O175 C173 1.256 . S
C176 C177 1.369 . S
C176 C178 1.419 . S
C176 H180 0.930 . S
C177 C176 1.369 . S
C177 C186 1.429 . S
C178 C176 1.419 . S
C178 C179 1.363 . S
C178 H181 0.929 . S
C179 C178 1.363 . S
C179 C185 1.428 . S
H180 C176 0.930 . S
H181 C178 0.929 . S
S182 N183 1.613 . S
S182 N184 1.610 . S
N183 S182 1.613 . S
N183 C186 1.350 . S
N184 S182 1.610 . S
N184 C185 1.351 . S
C185 C179 1.428 . S
C185 N184 1.351 . S
C185 C186 1.434 . S
C186 C177 1.429 . S
C186 N183 1.350 . S
C186 C185 1.434 . S
C187 C188 1.369 . S
C187 C189 1.419 . S
C187 H191 0.930 . S
C188 C187 1.369 . S
C188 C197 1.429 . S
C189 C187 1.419 . S
C189 C190 1.363 . S
C189 H192 0.929 . S
C190 C189 1.363 . S
C190 C196 1.428 . S
H191 C187 0.930 . S
H192 C189 0.929 . S
S193 N194 1.613 . S
S193 N195 1.610 . S
N194 S193 1.613 . S
N194 C197 1.350 . S
N195 S193 1.610 . S
N195 C196 1.351 . S
C196 C190 1.428 . S
C196 N195 1.351 . S
C196 C197 1.434 . S
C197 C188 1.429 . S
C197 N194 1.350 . S
C197 C196 1.434 . S
C198 C199 1.369 . S
C198 C200 1.419 . S
C198 H202 0.930 . S
C199 C198 1.369 . S
C199 C208 1.429 . S
C200 C198 1.419 . S
C200 C201 1.363 . S
C200 H203 0.929 . S
C201 C200 1.363 . S
C201 C207 1.428 . S
H202 C198 0.930 . S
H203 C200 0.929 . S
S204 N205 1.613 . S
S204 N206 1.610 . S
N205 S204 1.613 . S
N205 C208 1.350 . S
N206 S204 1.610 . S
N206 C207 1.351 . S
C207 C201 1.428 . S
C207 N206 1.351 . S
C207 C208 1.434 . S
C208 C199 1.429 . S
C208 N205 1.350 . S
C208 C207 1.434 . S
C209 C210 1.369 1_554 S
C209 C211 1.419 . S
C209 H213 0.930 . S
C210 C209 1.369 1_556 S
C210 C219 1.429 . S
C211 C209 1.419 . S
C211 C212 1.363 . S
C211 H214 0.929 . S
C212 C211 1.363 . S
C212 C218 1.428 1_554 S
H213 C209 0.930 . S
H214 C211 0.929 . S
S215 N216 1.613 . S
S215 N217 1.610 . S
N216 S215 1.613 . S
N216 C219 1.350 . S
N217 S215 1.610 . S
N217 C218 1.351 . S
C218 C212 1.428 1_556 S
C218 N217 1.351 . S
C218 C219 1.434 . S
C219 C210 1.429 . S
C219 N216 1.350 . S
C219 C218 1.434 . S
C220 C221 1.369 1_556 S
C220 C222 1.419 . S
C220 H224 0.930 . S
C221 C220 1.369 1_554 S
C221 C230 1.429 . S
C222 C220 1.419 . S
C222 C223 1.363 . S
C222 H225 0.929 . S
C223 C222 1.363 . S
C223 C229 1.428 1_556 S
H224 C220 0.930 . S
H225 C222 0.929 . S
S226 N227 1.613 . S
S226 N228 1.610 . S
N227 S226 1.613 . S
N227 C230 1.350 . S
N228 S226 1.610 . S
N228 C229 1.351 . S
C229 C223 1.428 1_554 S
C229 N228 1.351 . S
C229 C230 1.434 . S
C230 C221 1.429 . S
C230 N227 1.350 . S
C230 C229 1.434 . S
C231 C232 1.369 . S
C231 C233 1.419 . S
C231 H235 0.930 . S
C232 C231 1.369 . S
C232 C241 1.429 . S
C233 C231 1.419 . S
C233 C234 1.363 . S
C233 H236 0.929 . S
C234 C233 1.363 . S
C234 C240 1.428 . S
H235 C231 0.930 . S
H236 C233 0.929 . S
S237 N238 1.613 . S
S237 N239 1.610 . S
N238 S237 1.613 . S
N238 C241 1.350 . S
N239 S237 1.610 . S
N239 C240 1.351 . S
C240 C234 1.428 . S
C240 N239 1.351 . S
C240 C241 1.434 . S
C241 C232 1.429 . S
C241 N238 1.350 . S
C241 C240 1.434 . S
C242 C243 1.369 . S
C242 C244 1.419 . S
C242 H246 0.930 . S
C243 C242 1.369 . S
C243 C252 1.429 . S
C244 C242 1.419 . S
C244 C245 1.363 . S
C244 H247 0.929 . S
C245 C244 1.363 . S
C245 C251 1.428 . S
H246 C242 0.930 . S
H247 C244 0.929 . S
S248 N249 1.613 . S
S248 N250 1.610 . S
N249 S248 1.613 . S
N249 C252 1.350 . S
N250 S248 1.610 . S
N250 C251 1.351 . S
C251 C245 1.428 . S
C251 N250 1.351 . S
C251 C252 1.434 . S
C252 C243 1.429 . S
C252 N249 1.350 . S
C252 C251 1.434 . S
C253 C254 1.369 . S
C253 C255 1.419 . S
C253 H257 0.930 . S
C254 C253 1.369 . S
C254 C263 1.429 . S
C255 C253 1.419 . S
C255 C256 1.363 . S
C255 H258 0.929 . S
C256 C255 1.363 . S
C256 C262 1.428 . S
H257 C253 0.930 . S
H258 C255 0.929 . S
S259 N260 1.613 . S
S259 N261 1.610 . S
N260 S259 1.613 . S
N260 C263 1.350 . S
N261 S259 1.610 . S
N261 C262 1.351 . S
C262 C256 1.428 . S
C262 N261 1.351 . S
C262 C263 1.434 . S
C263 C254 1.429 . S
C263 N260 1.350 . S
C263 C262 1.434 . S
C264 C265 1.369 . S
C264 C266 1.419 . S
C264 H268 0.930 . S
C265 C264 1.369 . S
C265 C274 1.429 . S
C266 C264 1.419 . S
C266 C267 1.363 . S
C266 H269 0.929 . S
C267 C266 1.363 . S
C267 C273 1.428 . S
H268 C264 0.930 . S
H269 C266 0.929 . S
S270 N271 1.613 . S
S270 N272 1.610 . S
N271 S270 1.613 . S
N271 C274 1.350 . S
N272 S270 1.610 . S
N272 C273 1.351 . S
C273 C267 1.428 . S
C273 N272 1.351 . S
C273 C274 1.434 . S
C274 C265 1.429 . S
C274 N271 1.350 . S
C274 C273 1.434 . S
C275 C276 1.369 . S
C275 C277 1.419 . S
C275 H279 0.930 . S
C276 C275 1.369 . S
C276 C285 1.429 . S
C277 C275 1.419 . S
C277 C278 1.363 . S
C277 H280 0.929 . S
C278 C277 1.363 . S
C278 C284 1.428 . S
H279 C275 0.930 . S
H280 C277 0.929 . S
S281 N282 1.613 . S
S281 N283 1.610 . S
N282 S281 1.613 . S
N282 C285 1.350 . S
N283 S281 1.610 . S
N283 C284 1.351 . S
C284 C278 1.428 . S
C284 N283 1.351 . S
C284 C285 1.434 . S
C285 C276 1.429 . S
C285 N282 1.350 . S
C285 C284 1.434 . S
C286 C287 1.369 . S
C286 C288 1.419 . S
C286 H290 0.930 . S
C287 C286 1.369 . S
C287 C296 1.429 . S
C288 C286 1.419 . S
C288 C289 1.363 . S
C288 H291 0.929 . S
C289 C288 1.363 . S
C289 C295 1.428 . S
H290 C286 0.930 . S
H291 C288 0.929 . S
S292 N293 1.613 . S
S292 N294 1.610 . S
N293 S292 1.613 . S
N293 C296 1.350 . S
N294 S292 1.610 . S
N294 C295 1.351 . S
C295 C289 1.428 . S
C295 N294 1.351 . S
C295 C296 1.434 . S
C296 C287 1.429 . S
C296 N293 1.350 . S
C296 C295 1.434 . S
C297 C298 1.369 . S
C297 C299 1.419 . S
C297 H301 0.930 . S
C298 C297 1.369 . S
C298 C307 1.429 . S
C299 C297 1.419 . S
C299 C300 1.363 . S
C299 H302 0.929 . S
C300 C299 1.363 . S
C300 C306 1.428 . S
H301 C297 0.930 . S
H302 C299 0.929 . S
S303 N304 1.613 . S
S303 N305 1.610 . S
N304 S303 1.613 . S
N304 C307 1.350 . S
N305 S303 1.610 . S
N305 C306 1.351 . S
C306 C300 1.428 . S
C306 N305 1.351 . S
C306 C307 1.434 . S
C307 C298 1.429 . S
C307 N304 1.350 . S
C307 C306 1.434 . S
C308 C309 1.369 . S
C308 C310 1.419 . S
C308 H312 0.930 . S
C309 C308 1.369 . S
C309 C318 1.429 . S
C310 C308 1.419 . S
C310 C311 1.363 . S
C310 H313 0.929 . S
C311 C310 1.363 . S
C311 C317 1.428 . S
H312 C308 0.930 . S
H313 C310 0.929 . S
S314 N315 1.613 . S
S314 N316 1.610 . S
N315 S314 1.613 . S
N315 C318 1.350 . S
N316 S314 1.610 . S
N316 C317 1.351 . S
C317 C311 1.428 . S
C317 N316 1.351 . S
C317 C318 1.434 . S
C318 C309 1.429 . S
C318 N315 1.350 . S
C318 C317 1.434 . S
C319 C320 1.369 . S
C319 C321 1.419 . S
C319 H323 0.930 . S
C320 C319 1.369 . S
C320 C329 1.429 . S
C321 C319 1.419 . S
C321 C322 1.363 . S
C321 H324 0.929 . S
C322 C321 1.363 . S
C322 C328 1.428 . S
H323 C319 0.930 . S
H324 C321 0.929 . S
S325 N326 1.613 . S
S325 N327 1.610 . S
N326 S325 1.613 . S
N326 C329 1.350 . S
N327 S325 1.610 . S
N327 C328 1.351 . S
C328 C322 1.428 . S
C328 N327 1.351 . S
C328 C329 1.434 . S
C329 C320 1.429 . S
C329 N326 1.350 . S
C329 C328 1.434 . S
C330 C331 1.369 . S
C330 C332 1.419 . S
C330 H334 0.930 . S
C331 C330 1.369 . S
C331 C340 1.429 . S
C332 C330 1.419 . S
C332 C333 1.363 . S
C332 H335 0.929 . S
C333 C332 1.363 . S
C333 C339 1.428 . S
H334 C330 0.930 . S
H335 C332 0.929 . S
S336 N337 1.613 . S
S336 N338 1.610 . S
N337 S336 1.613 . S
N337 C340 1.350 . S
N338 S336 1.610 . S
N338 C339 1.351 . S
C339 C333 1.428 . S
C339 N338 1.351 . S
C339 C340 1.434 . S
C340 C331 1.429 . S
C340 N337 1.350 . S
C340 C339 1.434 . S
C341 C342 1.369 . S
C341 C343 1.419 . S
C341 H345 0.930 . S
C342 C341 1.369 . S
C342 C351 1.429 . S
C343 C341 1.419 . S
C343 C344 1.363 . S
C343 H346 0.929 . S
C344 C343 1.363 . S
C344 C350 1.428 . S
H345 C341 0.930 . S
H346 C343 0.929 . S
S347 N348 1.613 . S
S347 N349 1.610 . S
N348 S347 1.613 . S
N348 C351 1.350 . S
N349 S347 1.610 . S
N349 C350 1.351 . S
C350 C344 1.428 . S
C350 N349 1.351 . S
C350 C351 1.434 . S
C351 C342 1.429 . S
C351 N348 1.350 . S
C351 C350 1.434 . S
C352 C353 1.369 1_565 S
C352 C354 1.418 1_455 S
C352 H356 0.930 . S
C353 C352 1.369 1_545 S
C353 C362 1.429 1_455 S
C354 C352 1.418 1_655 S
C354 C355 1.364 . S
C354 H357 0.929 1_655 S
C355 C354 1.364 . S
C355 C361 1.428 1_565 S
H356 C352 0.930 . S
H357 C354 0.929 1_455 S
S358 N359 1.613 . S
S358 N360 1.610 . S
N359 S358 1.613 . S
N359 C362 1.350 . S
N360 S358 1.610 . S
N360 C361 1.351 . S
C361 C355 1.428 1_545 S
C361 N360 1.351 . S
C361 C362 1.434 . S
C362 C353 1.429 1_655 S
C362 N359 1.350 . S
C362 C361 1.434 . S
C363 C364 1.369 . S
C363 C365 1.419 1_455 S
C363 H367 0.930 . S
C364 C363 1.369 . S
C364 C373 1.429 . S
C365 C363 1.419 1_655 S
C365 C366 1.363 . S
C365 H368 0.929 . S
C366 C365 1.363 . S
C366 C372 1.428 . S
H367 C363 0.930 . S
H368 C365 0.929 . S
S369 N370 1.613 1_655 S
S369 N371 1.610 . S
N370 S369 1.613 1_455 S
N370 C373 1.350 . S
N371 S369 1.610 . S
N371 C372 1.351 . S
C372 C366 1.428 . S
C372 N371 1.351 . S
C372 C373 1.434 1_655 S
C373 C364 1.429 . S
C373 N370 1.350 . S
C373 C372 1.434 1_455 S
C374 C375 1.369 . S
C374 C376 1.419 . S
C374 H378 0.930 . S
C375 C374 1.369 . S
C375 C384 1.429 . S
C376 C374 1.419 . S
C376 C377 1.363 . S
C376 H379 0.929 . S
C377 C376 1.363 . S
C377 C383 1.428 . S
H378 C374 0.930 . S
H379 C376 0.929 . S
S380 N381 1.613 . S
S380 N382 1.610 . S
N381 S380 1.613 . S
N381 C384 1.350 . S
N382 S380 1.610 . S
N382 C383 1.351 . S
C383 C377 1.428 . S
C383 N382 1.351 . S
C383 C384 1.434 . S
C384 C375 1.429 . S
C384 N381 1.350 . S
C384 C383 1.434 . S
C385 C386 1.369 . S
C385 C387 1.419 1_545 S
C385 H389 0.930 . S
C386 C385 1.369 . S
C386 C395 1.429 . S
C387 C385 1.419 1_565 S
C387 C388 1.363 . S
C387 H390 0.929 . S
C388 C387 1.363 . S
C388 C394 1.428 . S
H389 C385 0.930 . S
H390 C387 0.929 . S
S391 N392 1.598 1_565 S
S391 N393 1.610 . S
N392 S391 1.598 1_545 S
N392 C395 1.351 . S
N393 S391 1.610 . S
N393 C394 1.351 . S
C394 C388 1.428 . S
C394 N393 1.351 . S
C394 C395 1.434 1_565 S
C395 C386 1.429 . S
C395 N392 1.351 . S
C395 C394 1.434 1_545 S
C396 C397 1.369 . S
C396 C398 1.419 1_655 S
C396 H400 0.930 . S
C397 C396 1.369 . S
C397 C406 1.429 . S
C398 C396 1.419 1_455 S
C398 C399 1.363 . S
C398 H401 0.929 . S
C399 C398 1.363 . S
C399 C405 1.428 . S
H400 C396 0.930 . S
H401 C398 0.929 . S
S402 N403 1.613 . S
S402 N404 1.610 1_655 S
N403 S402 1.613 . S
N403 C406 1.350 . S
N404 S402 1.610 1_455 S
N404 C405 1.351 . S
C405 C399 1.428 . S
C405 N404 1.351 . S
C405 C406 1.434 1_455 S
C406 C397 1.429 . S
C406 N403 1.350 . S
C406 C405 1.434 1_655 S
C407 C408 1.369 . S
C407 C409 1.419 . S
C407 H411 0.930 . S
C408 C407 1.369 . S
C408 C417 1.429 . S
C409 C407 1.419 . S
C409 C410 1.363 . S
C409 H412 0.929 . S
C410 C409 1.363 . S
C410 C416 1.428 . S
H411 C407 0.930 . S
H412 C409 0.929 . S
S413 N414 1.613 . S
S413 N415 1.610 . S
N414 S413 1.613 . S
N414 C417 1.350 . S
N415 S413 1.610 . S
N415 C416 1.351 . S
C416 C410 1.428 . S
C416 N415 1.351 . S
C416 C417 1.434 . S
C417 C408 1.429 . S
C417 N414 1.350 . S
C417 C416 1.434 . S
C418 C419 1.369 . S
C418 C420 1.419 . S
C418 H422 0.930 . S
C419 C418 1.369 . S
C419 C428 1.429 1_545 S
C420 C418 1.419 . S
C420 C421 1.363 1_545 S
C420 H423 0.929 . S
C421 C420 1.363 1_565 S
C421 C427 1.428 . S
H422 C418 0.930 . S
H423 C420 0.929 . S
S424 N425 1.613 . S
S424 N426 1.610 . S
N425 S424 1.613 . S
N425 C428 1.350 . S
N426 S424 1.610 . S
N426 C427 1.351 . S
C427 C421 1.428 . S
C427 N426 1.351 . S
C427 C428 1.434 . S
C428 C419 1.429 1_565 S
C428 N425 1.350 . S
C428 C427 1.434 . S
C429 C430 1.369 . S
C429 C431 1.419 1_665 S
C429 H433 0.930 . S
C430 C429 1.369 . S
C430 C439 1.429 . S
C431 C429 1.419 1_445 S
C431 C432 1.363 . S
C431 H434 0.929 . S
C432 C431 1.363 . S
C432 C438 1.428 . S
H433 C429 0.930 . S
H434 C431 0.929 . S
S435 N436 1.613 1_545 S
S435 N437 1.610 1_655 S
N436 S435 1.613 1_565 S
N436 C439 1.350 . S
N437 S435 1.610 1_455 S
N437 C438 1.351 . S
C438 C432 1.428 . S
C438 N437 1.351 . S
C438 C439 1.434 1_445 S
C439 C430 1.429 . S
C439 N436 1.350 . S
C439 C438 1.434 1_665 S
C177 C170 1.375 . S
C179 C5 1.381 . S
C188 C137 1.377 . S
C190 C16 1.386 . S
C199 C27 1.386 . S
C201 C148 1.387 . S
C210 C38 1.375 . S
C212 C159 1.381 . S
C221 C49 1.375 . S
C223 C104 1.380 . S
C232 C60 1.377 . S
C234 C115 1.377 . S
C243 C71 1.375 . S
C245 C126 1.382 . S
C254 C82 1.388 . S
C256 C93 1.387 . S
C265 C7 1.542 . S
C267 C51 1.538 . S
C276 C62 1.542 . S
C278 C18 1.537 . S
C287 C73 1.537 . S
C289 C29 1.540 . S
C298 C40 1.540 . S
C300 C84 1.540 . S
C309 C95 1.539 . S
C311 C139 1.539 . S
C320 C106 1.539 . S
C322 C150 1.539 . S
C331 C117 1.541 . S
C333 C161 1.539 . S
C342 C128 1.540 . S
C344 C172 1.538 . S
C353 C8 1.582 . S
C355 C118 1.584 . S
C364 C129 1.581 . S
C366 C19 1.582 . S
C375 C96 1.584 . S
C377 C30 1.583 . S
C386 C107 1.581 . S
C388 C41 1.583 . S
C397 C162 1.584 . S
C399 C52 1.583 . S
C408 C63 1.581 . S
C410 C173 1.583 . S
C419 C74 1.584 . S
C421 C140 1.582 . S
C430 C85 1.581 . S
C432 C151 1.582 . S
