# Generated by pormake.
# Topology whp, (6)-cn, num edge types: 1
# Building blocks:
#     Node 0, Type 0, BuildingBlock: VOLQOD_clean_sbu_1, # of connection points: 6
#     Node 1, Type 0, BuildingBlock: VOLQOD_clean_sbu_1, # of connection points: 6
#     Node 2, Type 0, BuildingBlock: VOLQOD_clean_sbu_1, # of connection points: 6
#     Node 3, Type 0, BuildingBlock: VOLQOD_clean_sbu_1, # of connection points: 6
#     Node 4, Type 0, BuildingBlock: VOLQOD_clean_sbu_1, # of connection points: 6
#     Node 5, Type 0, BuildingBlock: VOLQOD_clean_sbu_1, # of connection points: 6
#     Node 6, Type 0, BuildingBlock: VOLQOD_clean_sbu_1, # of connection points: 6
#     Node 7, Type 0, BuildingBlock: VOLQOD_clean_sbu_1, # of connection points: 6
#     Node 8, Type 0, BuildingBlock: VOLQOD_clean_sbu_1, # of connection points: 6
#     Node 9, Type 0, BuildingBlock: VOLQOD_clean_sbu_1, # of connection points: 6
#     Node 10, Type 0, BuildingBlock: VOLQOD_clean_sbu_1, # of connection points: 6
#     Node 11, Type 0, BuildingBlock: VOLQOD_clean_sbu_1, # of connection points: 6
#     Node 12, Type 0, BuildingBlock: VOLQOD_clean_sbu_1, # of connection points: 6
#     Node 13, Type 0, BuildingBlock: VOLQOD_clean_sbu_1, # of connection points: 6
#     Node 14, Type 0, BuildingBlock: VOLQOD_clean_sbu_1, # of connection points: 6
#     Node 15, Type 0, BuildingBlock: VOLQOD_clean_sbu_1, # of connection points: 6
#     Edge 16, Type (0, 0), BuildingBlock: OJICUG_clean_linker_0, # of connection points: 2
#     Edge 17, Type (0, 0), BuildingBlock: OJICUG_clean_linker_0, # of connection points: 2
#     Edge 18, Type (0, 0), BuildingBlock: OJICUG_clean_linker_0, # of connection points: 2
#     Edge 19, Type (0, 0), BuildingBlock: OJICUG_clean_linker_0, # of connection points: 2
#     Edge 20, Type (0, 0), BuildingBlock: OJICUG_clean_linker_0, # of connection points: 2
#     Edge 21, Type (0, 0), BuildingBlock: OJICUG_clean_linker_0, # of connection points: 2
#     Edge 22, Type (0, 0), BuildingBlock: OJICUG_clean_linker_0, # of connection points: 2
#     Edge 23, Type (0, 0), BuildingBlock: OJICUG_clean_linker_0, # of connection points: 2
#     Edge 24, Type (0, 0), BuildingBlock: OJICUG_clean_linker_0, # of connection points: 2
#     Edge 25, Type (0, 0), BuildingBlock: OJICUG_clean_linker_0, # of connection points: 2
#     Edge 26, Type (0, 0), BuildingBlock: OJICUG_clean_linker_0, # of connection points: 2
#     Edge 27, Type (0, 0), BuildingBlock: OJICUG_clean_linker_0, # of connection points: 2
#     Edge 28, Type (0, 0), BuildingBlock: OJICUG_clean_linker_0, # of connection points: 2
#     Edge 29, Type (0, 0), BuildingBlock: OJICUG_clean_linker_0, # of connection points: 2
#     Edge 30, Type (0, 0), BuildingBlock: OJICUG_clean_linker_0, # of connection points: 2
#     Edge 31, Type (0, 0), BuildingBlock: OJICUG_clean_linker_0, # of connection points: 2
#     Edge 32, Type (0, 0), BuildingBlock: OJICUG_clean_linker_0, # of connection points: 2
#     Edge 33, Type (0, 0), BuildingBlock: OJICUG_clean_linker_0, # of connection points: 2
#     Edge 34, Type (0, 0), BuildingBlock: OJICUG_clean_linker_0, # of connection points: 2
#     Edge 35, Type (0, 0), BuildingBlock: OJICUG_clean_linker_0, # of connection points: 2
#     Edge 36, Type (0, 0), BuildingBlock: OJICUG_clean_linker_0, # of connection points: 2
#     Edge 37, Type (0, 0), BuildingBlock: OJICUG_clean_linker_0, # of connection points: 2
#     Edge 38, Type (0, 0), BuildingBlock: OJICUG_clean_linker_0, # of connection points: 2
#     Edge 39, Type (0, 0), BuildingBlock: OJICUG_clean_linker_0, # of connection points: 2
#     Edge 40, Type (0, 0), BuildingBlock: OJICUG_clean_linker_0, # of connection points: 2
#     Edge 41, Type (0, 0), BuildingBlock: OJICUG_clean_linker_0, # of connection points: 2
#     Edge 42, Type (0, 0), BuildingBlock: OJICUG_clean_linker_0, # of connection points: 2
#     Edge 43, Type (0, 0), BuildingBlock: OJICUG_clean_linker_0, # of connection points: 2
#     Edge 44, Type (0, 0), BuildingBlock: OJICUG_clean_linker_0, # of connection points: 2
#     Edge 45, Type (0, 0), BuildingBlock: OJICUG_clean_linker_0, # of connection points: 2
#     Edge 46, Type (0, 0), BuildingBlock: OJICUG_clean_linker_0, # of connection points: 2
#     Edge 47, Type (0, 0), BuildingBlock: OJICUG_clean_linker_0, # of connection points: 2
#     Edge 48, Type (0, 0), BuildingBlock: OJICUG_clean_linker_0, # of connection points: 2
#     Edge 49, Type (0, 0), BuildingBlock: OJICUG_clean_linker_0, # of connection points: 2
#     Edge 50, Type (0, 0), BuildingBlock: OJICUG_clean_linker_0, # of connection points: 2
#     Edge 51, Type (0, 0), BuildingBlock: OJICUG_clean_linker_0, # of connection points: 2
#     Edge 52, Type (0, 0), BuildingBlock: OJICUG_clean_linker_0, # of connection points: 2
#     Edge 53, Type (0, 0), BuildingBlock: OJICUG_clean_linker_0, # of connection points: 2
#     Edge 54, Type (0, 0), BuildingBlock: OJICUG_clean_linker_0, # of connection points: 2
#     Edge 55, Type (0, 0), BuildingBlock: OJICUG_clean_linker_0, # of connection points: 2
#     Edge 56, Type (0, 0), BuildingBlock: OJICUG_clean_linker_0, # of connection points: 2
#     Edge 57, Type (0, 0), BuildingBlock: OJICUG_clean_linker_0, # of connection points: 2
#     Edge 58, Type (0, 0), BuildingBlock: OJICUG_clean_linker_0, # of connection points: 2
#     Edge 59, Type (0, 0), BuildingBlock: OJICUG_clean_linker_0, # of connection points: 2
#     Edge 60, Type (0, 0), BuildingBlock: OJICUG_clean_linker_0, # of connection points: 2
#     Edge 61, Type (0, 0), BuildingBlock: OJICUG_clean_linker_0, # of connection points: 2
#     Edge 62, Type (0, 0), BuildingBlock: OJICUG_clean_linker_0, # of connection points: 2
#     Edge 63, Type (0, 0), BuildingBlock: OJICUG_clean_linker_0, # of connection points: 2
# Relax obj value: 0.402
# Max RMSD: 0.252
# Mean RMSD: 0.249
data_MOF--net-whp--node1-VOLQOD_clean_sbu_1--edge1-OJICUG_clean_linker_0
_symmetry_space_group_name_H-M    P1
_symmetry_Int_Tables_number       1
_symmetry_cell_setting            triclinic
loop_
_symmetry_equiv_pos_as_xyz
'x, y, z'
_cell_length_a     40.089737
_cell_length_b     39.937209
_cell_length_c     21.766874
_cell_angle_alpha  90.269977
_cell_angle_beta   90.002853
_cell_angle_gamma 90.309889
loop_
_atom_site_label
_atom_site_type_symbol
_atom_site_fract_x
_atom_site_fract_y
_atom_site_fract_z
_atom_type_partial_charge
O0 O 0.2931 0.56413 0.44118 0.0
Zn1 Zn 0.27447 0.55885 0.35716 0.0
O2 O 0.27996 0.51418 0.32705 0.0
Zn3 Zn 0.23631 0.49355 0.31645 0.0
Zn4 Zn 0.30471 0.49104 0.3882 0.0
Zn5 Zn 0.30765 0.51371 0.25453 0.0
O6 O 0.2349 0.47292 0.22948 0.0
O7 O 0.27919 0.49714 0.18498 0.0
O8 O 0.2272 0.57296 0.35853 0.0
O9 O 0.19966 0.52872 0.32261 0.0
O10 O 0.22621 0.46352 0.39101 0.0
O11 O 0.27347 0.46861 0.4436 0.0
O12 O 0.33483 0.4572 0.35222 0.0
O13 O 0.30086 0.59074 0.30654 0.0
O14 O 0.34404 0.47937 0.26048 0.0
O15 O 0.32916 0.55943 0.23997 0.0
C16 C 0.31894 0.55036 0.46321 0.0
C17 C 0.25282 0.47907 0.18188 0.0
C18 C 0.24342 0.45871 0.43973 0.0
C19 C 0.20006 0.55874 0.34293 0.0
C20 C 0.34985 0.45727 0.3009 0.0
C21 C 0.3226 0.58776 0.26436 0.0
O22 O 0.33037 0.52332 0.44058 0.0
O23 O 0.88642 0.30078 0.86957 0.0
Zn24 Zn 0.89999 0.28021 0.78971 0.0
O25 O 0.94721 0.28474 0.77449 0.0
Zn26 Zn 0.96651 0.24011 0.76432 0.0
Zn27 Zn 0.9666 0.30631 0.8441 0.0
Zn28 Zn 0.95465 0.31529 0.70612 0.0
O29 O -0.0105 0.23947 0.67936 0.0
O30 O 0.97368 0.28796 0.63747 0.0
O31 O 0.88452 0.23317 0.78793 0.0
O32 O 0.92974 0.20413 0.76406 0.0
O33 O -0.00548 0.22774 0.84111 0.0
O34 O -0.01157 0.2739 0.89706 0.0
O35 O -0.00077 0.34082 0.82262 0.0
O36 O 0.87405 0.30551 0.72838 0.0
O37 O -0.01144 0.35189 0.72521 0.0
O38 O 0.91124 0.33815 0.68179 0.0
C39 C 0.90185 0.32183 0.90317 0.0
C40 C -0.01193 0.25959 0.63349 0.0
C41 C -0.00129 0.24411 0.89133 0.0
C42 C 0.89864 0.20548 0.77637 0.0
C43 C 0.00455 0.35783 0.77461 0.0
C44 C 0.88113 0.32952 0.69255 0.0
O45 O 0.93252 0.32831 0.89496 0.0
O46 O 0.17163 0.90089 0.44445 0.0
Zn47 Zn 0.19058 0.90837 0.36104 0.0
O48 O 0.18448 0.95352 0.33348 0.0
Zn49 Zn 0.22783 0.97523 0.32439 0.0
Zn50 Zn 0.15877 0.97551 0.39522 0.0
Zn51 Zn 0.15765 0.95426 0.25974 0.0
O52 O 0.22966 -0.00349 0.23811 0.0
O53 O 0.18584 0.97219 0.19203 0.0
O54 O 0.23807 0.89552 0.36282 0.0
O55 O 0.26517 0.94074 0.33074 0.0
O56 O 0.2365 0.00547 0.39974 0.0
O57 O 0.18854 0.00064 0.45002 0.0
O58 O 0.12509 0.00572 0.36085 0.0
O59 O 0.16522 0.8767 0.30765 0.0
O60 O 0.11989 -0.01323 0.26562 0.0
O61 O 0.13734 0.90861 0.24202 0.0
C62 C 0.14656 0.91502 0.46875 0.0
C63 C 0.21189 -0.00934 0.19009 0.0
C64 C 0.2185 0.01087 0.44734 0.0
C65 C 0.2651 0.91048 0.34935 0.0
C66 C 0.11097 0.00631 0.30871 0.0
C67 C 0.14388 0.88008 0.26495 0.0
O68 O 0.13557 0.94264 0.44858 0.0
O69 O 0.57615 0.16002 0.85335 0.0
Zn70 Zn 0.55978 0.18681 0.78273 0.0
O71 O 0.51203 0.18306 0.77455 0.0
Zn72 Zn 0.49314 0.22771 0.76543 0.0
Zn73 Zn 0.49421 0.16212 0.84602 0.0
Zn74 Zn 0.50353 0.15243 0.70694 0.0
O75 O 0.47073 0.22923 0.6801 0.0
O76 O 0.48429 0.1797 0.63872 0.0
O77 O 0.57478 0.23376 0.79362 0.0
O78 O 0.52997 0.26343 0.77023 0.0
O79 O 0.46432 0.23964 0.84103 0.0
O80 O 0.47302 0.19517 0.89986 0.0
O81 O 0.46096 0.12764 0.82618 0.0
O82 O 0.58362 0.16691 0.71131 0.0
O83 O 0.46953 0.11667 0.72778 0.0
O84 O 0.54654 0.1284 0.68337 0.0
C85 C 0.56115 0.14115 0.89128 0.0
C86 C 0.47093 0.20859 0.63464 0.0
C87 C 0.46129 0.2243 0.89228 0.0
C88 C 0.56068 0.26178 0.78544 0.0
C89 C 0.45458 0.11075 0.77813 0.0
C90 C 0.57647 0.13934 0.68492 0.0
O91 O 0.52956 0.1391 0.89264 0.0
O92 O 0.80375 0.38723 0.10643 0.0
Zn93 Zn 0.78269 0.40029 0.18608 0.0
O94 O 0.79301 0.44577 0.20814 0.0
Zn95 Zn 0.75246 0.47163 0.21472 0.0
Zn96 Zn 0.81991 0.46309 0.14416 0.0
Zn97 Zn 0.82054 0.44729 0.28074 0.0
O98 O 0.75252 0.49479 0.29962 0.0
O99 O 0.79303 0.46699 0.34819 0.0
O100 O 0.7339 0.39203 0.18054 0.0
O101 O 0.71233 0.44052 0.21042 0.0
O102 O 0.74631 0.50022 0.13667 0.0
O103 O 0.79174 0.48619 0.08431 0.0
O104 O 0.85346 0.49472 0.17513 0.0
O105 O 0.80342 0.36891 0.24543 0.0
O106 O 0.85865 0.48018 0.27262 0.0
O107 O 0.839 0.40079 0.29844 0.0
C108 C 0.83057 0.39857 0.08313 0.0
C109 C 0.76897 0.48785 0.34856 0.0
C110 C 0.76359 0.50048 0.08715 0.0
C111 C 0.70882 0.41019 0.19281 0.0
C112 C 0.86736 0.49807 0.22715 0.0
C113 C 0.82783 0.37204 0.28242 0.0
O114 O 0.84264 0.42668 0.09951 0.0
O115 O 0.08251 0.81936 0.67852 0.0
Zn116 Zn 0.06281 0.79218 0.74679 0.0
O117 O 0.01531 0.79773 0.75112 0.0
Zn118 Zn -0.00637 0.75433 0.75885 0.0
Zn119 Zn 0.00077 0.81956 0.67926 0.0
Zn120 Zn 0.00703 0.82931 0.81692 0.0
O121 O 0.97118 0.75421 0.84479 0.0
O122 O -0.01119 0.80252 0.88674 0.0
O123 O 0.07548 0.74448 0.73558 0.0
O124 O 0.02845 0.71688 0.7546 0.0
O125 O 0.965 0.74451 0.68108 0.0
O126 O -0.01869 0.78709 0.62246 0.0
O127 O 0.96587 0.85217 0.69635 0.0
O128 O 0.08441 0.81026 0.82236 0.0
O129 O 0.97128 0.86332 0.7954 0.0
O130 O 0.05086 0.85339 0.83751 0.0
C131 C 0.06915 0.83992 0.64164 0.0
C132 C 0.97363 0.77441 0.89088 0.0
C133 C 0.96611 0.75939 0.629 0.0
C134 C 0.05953 0.7171 0.74166 0.0
C135 C 0.95702 0.86816 0.74395 0.0
C136 C 0.07958 0.83994 0.84165 0.0
O137 O 0.03775 0.84337 0.63866 0.0
O138 O 0.66638 0.06532 0.06542 0.0
Zn139 Zn 0.68471 0.05999 0.14986 0.0
O140 O 0.67415 0.01784 0.18569 0.0
Zn141 Zn 0.71485 -0.00747 0.1945 0.0
Zn142 Zn 0.6456 -0.00206 0.1267 0.0
Zn143 Zn 0.64768 0.022 0.25954 0.0
O144 O 0.71318 0.97071 0.28038 0.0
O145 O 0.67442 0.00201 0.32734 0.0
O146 O 0.73318 0.06903 0.14849 0.0
O147 O 0.75558 0.02371 0.1897 0.0
O148 O 0.72013 0.96259 0.1175 0.0
O149 O 0.67251 0.97214 0.06839 0.0
O150 O 0.61194 0.96921 0.16446 0.0
O151 O 0.66179 0.0953 0.19693 0.0
O152 O 0.60675 -0.00838 0.25729 0.0
O153 O 0.63351 0.07102 0.27267 0.0
C154 C 0.63679 0.05676 0.05137 0.0
C155 C 0.69692 0.97946 0.32873 0.0
C156 C 0.70147 0.9595 0.06993 0.0
C157 C 0.75854 0.05295 0.16672 0.0
C158 C 0.59748 0.97075 0.21622 0.0
C159 C 0.64169 0.09705 0.24196 0.0
O160 O 0.62228 0.03284 0.07899 0.0
O161 O 0.38082 0.6493 0.67079 0.0
Zn162 Zn 0.39834 0.67738 0.74025 0.0
O163 O 0.44564 0.67237 0.74877 0.0
Zn164 Zn 0.46685 0.71598 0.75727 0.0
Zn165 Zn 0.46209 0.64996 0.67836 0.0
Zn166 Zn 0.4527 0.64171 0.81592 0.0
O167 O 0.48926 0.71657 0.84325 0.0
O168 O 0.47061 0.66903 0.88577 0.0
O169 O 0.38536 0.72492 0.72874 0.0
O170 O 0.43154 0.75291 0.75313 0.0
O171 O 0.49582 0.72587 0.68014 0.0
O172 O 0.4818 0.68215 0.62169 0.0
O173 O 0.49736 0.61851 0.69914 0.0
O174 O 0.37478 0.65965 0.8137 0.0
O175 O 0.48856 0.6075 0.79727 0.0
O176 O 0.40876 0.61776 0.83538 0.0
C177 C 0.39504 0.62805 0.636 0.0
C178 C 0.48637 0.69685 0.88958 0.0
C179 C 0.496 0.7104 0.62835 0.0
C180 C 0.40078 0.75242 0.73773 0.0
C181 C 0.50467 0.60277 0.74764 0.0
C182 C 0.37975 0.63076 0.83608 0.0
O183 O 0.42648 0.62459 0.63585 0.0
O184 O 0.66329 0.39395 0.60449 0.0
Zn185 Zn 0.68775 0.40495 0.68173 0.0
O186 O 0.68247 0.45122 0.70433 0.0
Zn187 Zn 0.72622 0.47233 0.71208 0.0
Zn188 Zn 0.65758 0.47255 0.64088 0.0
Zn189 Zn 0.65555 0.45426 0.77781 0.0
O190 O 0.72931 0.4939 0.79821 0.0
O191 O 0.68461 0.47209 0.8452 0.0
O192 O 0.73532 0.39243 0.67183 0.0
O193 O 0.76295 0.43748 0.70402 0.0
O194 O 0.7354 0.50191 0.63662 0.0
O195 O 0.68833 0.49512 0.58408 0.0
O196 O 0.62546 0.5052 0.67398 0.0
O197 O 0.66607 0.37491 0.74269 0.0
O198 O 0.61895 0.4882 0.76994 0.0
O199 O 0.63393 0.40928 0.79689 0.0
C200 C 0.63977 0.40911 0.57737 0.0
C201 C 0.71154 0.4893 0.84658 0.0
C202 C 0.71816 0.50577 0.58766 0.0
C203 C 0.7626 0.40743 0.68384 0.0
C204 C 0.61119 0.50745 0.72591 0.0
C205 C 0.64257 0.37982 0.78087 0.0
O206 O 0.63248 0.43921 0.59072 0.0
O207 O 0.07509 0.66705 0.15148 0.0
Zn208 Zn 0.06197 0.68725 0.23164 0.0
O209 O 0.01497 0.68231 0.24805 0.0
Zn210 Zn -0.00489 0.72662 0.25847 0.0
Zn211 Zn -0.00467 0.66055 0.17886 0.0
Zn212 Zn 0.00853 0.65196 0.31691 0.0
O213 O 0.9719 0.72688 0.3433 0.0
O214 O -0.01111 0.67886 0.3854 0.0
O215 O 0.07677 0.73436 0.23311 0.0
O216 O 0.0315 0.76285 0.25893 0.0
O217 O 0.96724 0.73894 0.18148 0.0
O218 O 0.97297 0.69267 0.12575 0.0
O219 O 0.96368 0.62544 0.2014 0.0
O220 O 0.08888 0.66207 0.29182 0.0
O221 O 0.97571 0.61458 0.29843 0.0
O222 O 0.05231 0.62985 0.34085 0.0
C223 C 0.05979 0.64559 0.11861 0.0
C224 C 0.97374 0.70683 0.38921 0.0
C225 C 0.96288 0.72254 0.13136 0.0
C226 C 0.06247 0.76184 0.24551 0.0
C227 C 0.95953 0.60817 0.24948 0.0
C228 C 0.08227 0.63831 0.32849 0.0
O229 O 0.0293 0.63864 0.12763 0.0
O230 O 0.7875 0.06616 0.57526 0.0
Zn231 Zn 0.76906 0.05947 0.65925 0.0
O232 O 0.77503 0.01431 0.68699 0.0
Zn233 Zn 0.73134 -0.00673 0.69556 0.0
Zn234 Zn 0.80066 -0.00822 0.62556 0.0
Zn235 Zn 0.80205 0.01335 0.76061 0.0
O236 O 0.73018 0.9702 0.78024 0.0
O237 O 0.77386 -0.00573 0.82742 0.0
O238 O 0.72157 0.07311 0.65883 0.0
O239 O 0.69422 0.02836 0.69225 0.0
O240 O 0.72204 0.96465 0.61827 0.0
O241 O 0.77073 0.96724 0.56983 0.0
O242 O 0.83433 0.96114 0.66004 0.0
O243 O 0.79531 0.09096 0.7117 0.0
O244 O 0.84022 0.981 0.75448 0.0
O245 O 0.82214 0.05923 0.77911 0.0
C246 C 0.81272 0.05201 0.55143 0.0
C247 C 0.74809 0.97534 0.82838 0.0
C248 C 0.74026 0.95853 0.57125 0.0
C249 C 0.69446 0.05864 0.67363 0.0
C250 C 0.84884 0.96098 0.7119 0.0
C251 C 0.81622 0.08768 0.75516 0.0
O252 O 0.82395 0.02465 0.57241 0.0
O253 O 0.38696 0.80254 0.15657 0.0
Zn254 Zn 0.40187 0.78245 0.23573 0.0
O255 O 0.44925 0.78803 0.24938 0.0
Zn256 Zn 0.4695 0.74378 0.25838 0.0
Zn257 Zn 0.46763 0.81 0.17956 0.0
Zn258 Zn 0.45677 0.81863 0.31826 0.0
O259 O 0.49296 0.7434 0.343 0.0
O260 O 0.47666 0.79167 0.38589 0.0
O261 O 0.38748 0.73501 0.23715 0.0
O262 O 0.43358 0.707 0.25873 0.0
O263 O 0.4969 0.7319 0.18043 0.0
O264 O 0.49047 0.77823 0.12587 0.0
O265 O 0.49807 0.84669 0.20065 0.0
O266 O 0.37601 0.80751 0.29807 0.0
O267 O 0.48923 0.8564 0.2994 0.0
O268 O 0.41325 0.84063 0.3439 0.0
C269 C 0.40184 0.82339 0.12211 0.0
C270 C 0.49142 0.7635 0.38924 0.0
C271 C 0.5008 0.74842 0.13058 0.0
C272 C 0.40235 0.70762 0.24742 0.0
C273 C 0.50341 0.86373 0.24894 0.0
C274 C 0.38315 0.83174 0.33378 0.0
O275 O 0.43252 0.83019 0.12912 0.0
O276 O 0.15903 0.57986 0.91869 0.0
Zn277 Zn 0.18057 0.5674 0.83954 0.0
O278 O 0.17142 0.52169 0.81842 0.0
Zn279 Zn 0.213 0.49725 0.81171 0.0
Zn280 Zn 0.14495 0.50344 0.88237 0.0
Zn281 Zn 0.14321 0.51966 0.74674 0.0
O282 O 0.21233 0.47359 0.72714 0.0
O283 O 0.17067 0.50016 0.67937 0.0
O284 O 0.22914 0.57672 0.84591 0.0
O285 O 0.25291 0.52935 0.81586 0.0
O286 O 0.21986 0.46899 0.89007 0.0
O287 O 0.17392 0.48149 0.94231 0.0
O288 O 0.11247 0.47028 0.85163 0.0
O289 O 0.1592 0.59847 0.78007 0.0
O290 O 0.1058 0.48593 0.75513 0.0
O291 O 0.12364 0.56577 0.72884 0.0
C292 C 0.13253 0.56796 0.94228 0.0
C293 C 0.19506 0.4797 0.67874 0.0
C294 C 0.20255 0.46817 0.93954 0.0
C295 C 0.2551 0.55971 0.83412 0.0
C296 C 0.0982 0.46704 0.7999 0.0
C297 C 0.13445 0.59479 0.744 0.0
O298 O 0.12115 0.53942 0.92661 0.0
O299 O 0.87714 0.14712 0.34117 0.0
Zn300 Zn 0.89725 0.17401 0.27292 0.0
O301 O 0.94483 0.16875 0.27011 0.0
Zn302 Zn 0.96698 0.21193 0.26334 0.0
Zn303 Zn 0.95882 0.14688 0.34222 0.0
Zn304 Zn 0.95379 0.13766 0.2042 0.0
O305 O -0.01021 0.21256 0.17766 0.0
O306 O 0.97231 0.16441 0.1351 0.0
O307 O 0.88475 0.22175 0.28396 0.0
O308 O 0.93228 0.24924 0.26835 0.0
O309 O -0.0045 0.22134 0.3414 0.0
O310 O 0.97814 0.17909 0.39976 0.0
O311 O -0.0064 0.11424 0.32552 0.0
O312 O 0.876 0.1552 0.19733 0.0
O313 O -0.01071 0.10401 0.22595 0.0
O314 O 0.91085 0.1131 0.18191 0.0
C315 C 0.89028 0.12654 0.37827 0.0
C316 C -0.01245 0.19247 0.13141 0.0
C317 C -0.00617 0.20653 0.39348 0.0
C318 C 0.90104 0.24906 0.27988 0.0
C319 C 0.00291 0.09871 0.27773 0.0
C320 C 0.88188 0.12586 0.1772 0.0
O321 O 0.92165 0.12307 0.38186 0.0
O322 O 0.30107 0.88827 0.92384 0.0
Zn323 Zn 0.2794 0.90118 0.84487 0.0
O324 O 0.28879 0.94694 0.82463 0.0
Zn325 Zn 0.24762 0.97219 0.8195 0.0
Zn326 Zn 0.31609 0.96459 0.88822 0.0
Zn327 Zn 0.31635 0.949 0.75227 0.0
O328 O 0.24797 -0.00379 0.73552 0.0
O329 O 0.28883 0.96904 0.68616 0.0
O330 O 0.23063 0.89254 0.85116 0.0
O331 O 0.20735 0.94054 0.8238 0.0
O332 O 0.24205 0.00065 0.89854 0.0
O333 O 0.28816 -0.01285 0.94917 0.0
O334 O 0.34874 -0.00261 0.85778 0.0
O335 O 0.30054 0.87011 0.78425 0.0
O336 O 0.35401 0.98232 0.76045 0.0
O337 O 0.33542 0.903 0.73238 0.0
C338 C 0.32793 0.89986 0.9468 0.0
C339 C 0.26488 -0.01 0.68663 0.0
C340 C 0.2599 0.00122 0.9474 0.0
C341 C 0.20485 0.91004 0.84065 0.0
C342 C 0.36235 0.00084 0.8056 0.0
C343 C 0.32485 0.87394 0.74727 0.0
O344 O 0.33955 0.92821 0.93107 0.0
O345 O 0.4604 0.26515 0.18101 0.0
Zn346 Zn 0.46998 0.28379 0.26764 0.0
O347 O 0.51694 0.29582 0.27353 0.0
Zn348 Zn 0.53734 0.27492 0.34227 0.0
Zn349 Zn 0.54114 0.28225 0.20268 0.0
Zn350 Zn 0.52235 0.34341 0.28283 0.0
O351 O 0.56629 0.30718 0.38809 0.0
O352 O 0.53978 0.35431 0.36633 0.0
O353 O 0.45515 0.25632 0.34338 0.0
O354 O 0.50172 0.26135 0.39889 0.0
O355 O 0.56267 0.23354 0.31903 0.0
O356 O 0.56317 0.23758 0.21735 0.0
O357 O 0.57756 0.31575 0.18398 0.0
O358 O 0.44294 0.32601 0.27224 0.0
O359 O 0.55801 0.36155 0.22871 0.0
O360 O 0.47994 0.36768 0.26984 0.0
C361 C 0.47758 0.2699 0.13211 0.0
C362 C 0.56094 0.33815 0.39786 0.0
C363 C 0.57047 0.22193 0.2665 0.0
C364 C 0.47115 0.25341 0.39396 0.0
C365 C 0.57991 0.3469 0.19628 0.0
C366 C 0.45 0.3571 0.26985 0.0
O367 O 0.50819 0.27878 0.13408 0.0
C368 C 0.37068 0.55982 0.52425 0.0
C369 C 0.33736 0.56795 0.51203 0.0
H370 H 0.41519 0.57273 0.5728 0.0
C371 C 0.32253 0.59483 0.54352 0.0
H372 H 0.38275 0.53924 0.50064 0.0
C373 C 0.34106 0.61399 0.58493 0.0
C374 C 0.37481 0.60677 0.59509 0.0
H375 H 0.29676 0.60151 0.53528 0.0
H376 H 0.32917 0.63494 0.6077 0.0
C377 C 0.38931 0.57917 0.56521 0.0
C378 C 0.83339 0.35053 1.00962 0.0
C379 C 0.84858 0.37848 0.03754 0.0
H380 H 0.83844 0.3105 0.94475 0.0
C381 C 0.8815 0.38703 0.02215 0.0
H382 H 0.80801 0.34339 0.02081 0.0
C383 C 0.89893 0.36813 0.97933 0.0
C384 C 0.88367 0.34047 0.95063 0.0
H385 H 0.89395 0.40829 0.04331 0.0
H386 H 0.92423 0.37556 0.96817 0.0
C387 C 0.85078 0.33174 0.96619 0.0
C388 C 0.12314 0.85107 0.58835 0.0
C389 C 0.09018 0.8604 0.60132 0.0
H390 H 0.16704 0.86123 0.53573 0.0
C391 C 0.07693 0.88922 0.57416 0.0
H392 H 0.13398 0.82904 0.60902 0.0
C393 C 0.09586 0.90779 0.53297 0.0
C394 C 0.12826 0.89763 0.51764 0.0
H395 H 0.05172 0.89726 0.58408 0.0
H396 H 0.08463 0.92944 0.51164 0.0
C397 C 0.14199 0.86946 0.54644 0.0
C398 C 0.56486 0.09394 0.96496 0.0
C399 C 0.58073 0.11961 0.93197 0.0
H400 H 0.57028 0.05351 0.02766 0.0
C401 C 0.61547 0.12356 0.93641 0.0
H402 H 0.53814 0.09004 0.96195 0.0
C403 C 0.63393 0.10254 0.97411 0.0
C404 C 0.61796 0.07709 1.00755 0.0
H405 H 0.62838 0.14302 0.91117 0.0
H406 H 0.66063 0.10645 0.97749 0.0
C407 C 0.58332 0.07279 1.00218 0.0
C408 C 0.60588 0.3395 0.47718 0.0
C409 C 0.58065 0.35608 0.44471 0.0
H410 H 0.64454 0.34332 0.54432 0.0
C411 C 0.57514 0.39027 0.45596 0.0
H412 H 0.61079 0.3132 0.4694 0.0
C413 C 0.59451 0.40758 0.49877 0.0
C414 C 0.61981 0.39103 0.53109 0.0
H415 H 0.55592 0.4038 0.43153 0.0
H416 H 0.58964 0.4339 0.50644 0.0
C417 C 0.6253 0.35684 0.5199 0.0
C418 C 0.08133 0.57905 1.00291 0.0
C419 C 0.11404 0.58812 0.98703 0.0
H420 H 0.03836 0.59045 0.05637 0.0
C421 C 0.12856 0.61689 0.01326 0.0
H422 H 0.06939 0.55715 0.98296 0.0
C423 C 0.11077 0.636 0.05554 0.0
C424 C 0.07812 0.62675 0.07169 0.0
H425 H 0.15376 0.62448 1.00163 0.0
H426 H 0.12264 0.65786 0.07573 0.0
C427 C 0.06347 0.59828 0.04463 0.0
C428 C 0.88216 0.07714 0.44523 0.0
C429 C 0.86907 0.10609 0.41826 0.0
H430 H 0.87433 0.03699 0.50778 0.0
C431 C 0.8362 0.11562 0.43133 0.0
H432 H 0.9073 0.06893 0.43515 0.0
C433 C 0.8173 0.09737 0.47336 0.0
C434 C 0.83093 0.06914 0.50216 0.0
H435 H 0.82549 0.13775 0.41076 0.0
H436 H 0.79234 0.10579 0.48425 0.0
C437 C 0.8632 0.05872 0.48653 0.0
C438 C 0.33184 0.85178 0.01924 0.0
C439 C 0.34661 0.87972 0.99102 0.0
H440 H 0.33786 0.81182 0.08335 0.0
C441 C 0.37978 0.88821 1.00469 0.0
H442 H 0.30628 0.84467 1.00931 0.0
C443 C 0.39784 0.86932 0.04625 0.0
C444 C 0.383 0.84173 0.07545 0.0
H445 H 0.39192 0.90943 0.98317 0.0
H446 H 0.42332 0.87676 0.05615 0.0
C447 C 0.34988 0.83299 0.06148 0.0
C448 C 0.40274 0.43781 0.25299 0.0
C449 C 0.3743 0.431 0.28838 0.0
H450 H 0.44956 0.41946 0.21993 0.0
C451 C 0.36979 0.39905 0.31372 0.0
H452 H 0.40665 0.46232 0.23303 0.0
C453 C 0.39377 0.3744 0.30498 0.0
C454 C 0.42299 0.38166 0.27212 0.0
H455 H 0.34783 0.3932 0.34073 0.0
H456 H 0.39009 0.35015 0.32612 0.0
C457 C 0.4272 0.4134 0.24562 0.0
C458 C 0.03532 0.40689 0.72878 0.0
C459 C 0.02872 0.38573 0.77879 0.0
H460 H 0.06258 0.44965 0.6961 0.0
C461 C 0.04479 0.39192 0.8351 0.0
H462 H 0.02321 0.40279 0.68489 0.0
C463 C 0.06681 0.41856 0.84161 0.0
C464 C 0.07361 0.43977 0.79193 0.0
H465 H 0.04032 0.37625 0.87478 0.0
H466 H 0.07865 0.42231 0.88587 0.0
C467 C 0.05769 0.43375 0.7353 0.0
C468 C 0.07208 0.04911 0.34883 0.0
C469 C 0.08338 0.0298 0.29916 0.0
H470 H 0.03802 0.08566 0.38095 0.0
C471 C 0.06794 0.03311 0.24149 0.0
H472 H 0.08333 0.04716 0.39393 0.0
C473 C 0.0416 0.05552 0.23386 0.0
C474 C 0.03039 0.07473 0.28389 0.0
H475 H 0.0762 0.01849 0.20236 0.0
H476 H 0.03008 0.05776 0.18907 0.0
C477 C 0.04593 0.07122 0.34133 0.0
C478 C 0.40128 0.03476 0.73983 0.0
C479 C 0.38674 0.02815 0.79735 0.0
H480 H 0.43421 0.06644 0.68818 0.0
C481 C 0.3945 0.049 0.84746 0.0
H482 H 0.39561 0.01918 0.70029 0.0
C483 C 0.41607 0.07594 0.84044 0.0
C484 C 0.43069 0.08273 0.78317 0.0
H485 H 0.38371 0.04475 0.89241 0.0
H486 H 0.42136 0.09135 0.8804 0.0
C487 C 0.42317 0.06188 0.7328 0.0
C488 C 0.9271 0.56115 0.29813 0.0
C489 C 0.93682 0.57918 0.24576 0.0
H490 H 0.89724 0.52087 0.33354 0.0
C491 C 0.92498 0.56906 0.18784 0.0
H492 H 0.93607 0.5683 0.34329 0.0
C493 C 0.90334 0.5421 0.18224 0.0
C494 C 0.89272 0.52456 0.23442 0.0
H495 H 0.93234 0.58199 0.14631 0.0
H496 H 0.89458 0.53539 0.13671 0.0
C497 C 0.90507 0.53398 0.29251 0.0
C498 C 0.91895 0.91243 0.78694 0.0
C499 C 0.92939 0.89215 0.73774 0.0
H500 H 0.88505 0.9504 0.81749 0.0
C501 C 0.913 0.89468 0.68086 0.0
H502 H 0.93109 0.91099 0.83129 0.0
C503 C 0.8869 0.9169 0.67306 0.0
C504 C 0.87642 0.93734 0.72183 0.0
H505 H 0.92023 0.87942 0.64186 0.0
H506 H 0.87504 0.91805 0.6284 0.0
C507 C 0.89264 0.93494 0.77899 0.0
C508 C 0.53984 0.90899 0.29515 0.0
C509 C 0.5252 0.89339 0.24367 0.0
H510 H 0.57464 0.94642 0.32701 0.0
C511 C 0.53187 0.90602 0.18484 0.0
H512 H 0.53481 0.89991 0.34105 0.0
C513 C 0.55404 0.93233 0.17701 0.0
C514 C 0.57027 0.94677 0.22771 0.0
H515 H 0.52037 0.8952 0.14425 0.0
H516 H 0.55915 0.94078 0.13069 0.0
C517 C 0.56238 0.93562 0.28718 0.0
C518 C 0.55158 0.57701 0.69068 0.0
C519 C 0.53247 0.57887 0.74468 0.0
H520 H 0.59122 0.55339 0.64276 0.0
C521 C 0.54011 0.55769 0.79399 0.0
H522 H 0.54663 0.59314 0.65188 0.0
C523 C 0.56608 0.53457 0.78863 0.0
C524 C 0.58468 0.53246 0.73394 0.0
H525 H 0.52585 0.55866 0.83621 0.0
H526 H 0.57128 0.51816 0.82689 0.0
C527 C 0.57731 0.55416 0.6854 0.0
C528 C 0.19713 0.45255 0.04987 0.0
C529 C 0.21789 0.45916 0.99904 0.0
H530 H 0.19181 0.45359 0.1478 0.0
C531 C 0.25179 0.46595 1.00945 0.0
H532 H 0.17087 0.44708 0.04326 0.0
C533 C 0.26369 0.4701 0.06947 0.0
C534 C 0.24198 0.46726 0.12019 0.0
H535 H 0.2684 0.47132 0.97145 0.0
H536 H 0.28945 0.47766 0.07581 0.0
C537 C 0.20907 0.45649 0.10988 0.0
C538 C -0.00382 0.26981 0.52056 0.0
C539 C -0.00037 0.24853 0.57179 0.0
H540 H -0.0074 0.27322 0.42241 0.0
C541 C 0.00984 0.2154 0.5618 0.0
H542 H -0.01107 0.29571 0.52649 0.0
C543 C 0.0124 0.20278 0.50203 0.0
C544 C 0.00476 0.22296 0.45108 0.0
H545 H 0.01328 0.19846 0.59996 0.0
H546 H 0.01736 0.17632 0.49589 0.0
C547 C -0.00125 0.25712 0.46065 0.0
C548 C 0.26701 0.01667 0.05774 0.0
C549 C 0.24551 0.01098 1.00744 0.0
H550 H 0.2733 0.01474 0.15545 0.0
C551 C 0.21148 0.00563 0.01877 0.0
H552 H 0.29339 0.02112 0.05039 0.0
C553 C 0.20007 0.00165 0.07902 0.0
C554 C 0.22243 0.0032 0.12901 0.0
H555 H 0.19429 0.0011 0.9812 0.0
H556 H 0.17411 -0.00496 0.08603 0.0
C557 C 0.25557 0.01285 0.11803 0.0
C558 C 0.45213 0.26422 0.49941 0.0
C559 C 0.45535 0.24135 0.45051 0.0
H560 H 0.45427 0.27184 0.59679 0.0
C561 C 0.45632 0.20706 0.46326 0.0
H562 H 0.45208 0.29091 0.49054 0.0
C563 C 0.45804 0.19608 0.5241 0.0
C564 C 0.45912 0.2193 0.57311 0.0
H565 H 0.45957 0.18905 0.42638 0.0
H566 H 0.46147 0.16959 0.53229 0.0
C567 C 0.45386 0.25331 0.56032 0.0
C568 C 0.78002 0.49894 0.46012 0.0
C569 C 0.75886 0.50212 0.40878 0.0
H570 H 0.78401 0.49907 0.55815 0.0
C571 C 0.72687 0.51541 0.41747 0.0
H572 H 0.80516 0.48955 0.45489 0.0
C573 C 0.71487 0.52123 0.47691 0.0
C574 C 0.73465 0.51388 0.52865 0.0
H575 H 0.71014 0.51869 0.37892 0.0
H576 H 0.68903 0.52846 0.48246 0.0
C577 C 0.76808 0.50493 0.5195 0.0
C578 C 0.94847 0.73192 0.96241 0.0
C579 C 0.96164 0.76408 0.9527 0.0
H580 H 0.93685 0.69394 0.02799 0.0
C581 C 0.96678 0.78518 1.00411 0.0
H582 H 0.94357 0.71521 0.92409 0.0
C583 C 0.96282 0.77301 0.06392 0.0
C584 C 0.95362 0.7395 0.07343 0.0
H585 H 0.97628 0.81042 0.99846 0.0
H586 H 0.97019 0.78881 0.10223 0.0
C587 C 0.94437 0.71983 0.02215 0.0
C588 C 0.73555 0.94926 0.40045 0.0
C589 C 0.70475 0.9646 0.38936 0.0
H590 H 0.77065 0.93361 0.46838 0.0
C591 C 0.68242 0.96878 0.4388 0.0
H592 H 0.75305 0.94509 0.36332 0.0
C593 C 0.69228 0.96181 0.49896 0.0
C594 C 0.72482 0.95086 0.5109 0.0
H595 H 0.65804 0.97964 0.4316 0.0
H596 H 0.67568 0.96851 0.53626 0.0
C597 C 0.74548 0.94241 0.46074 0.0
C598 C 0.5178 0.7512 0.02059 0.0
C599 C 0.50928 0.73149 0.07192 0.0
H600 H 0.51704 0.75597 0.92261 0.0
C601 C 0.49968 0.69807 0.06212 0.0
H602 H 0.52556 0.77704 0.02662 0.0
C603 C 0.49461 0.68605 1.00229 0.0
C604 C 0.49907 0.70719 0.9511 0.0
H605 H 0.49282 0.68225 0.10044 0.0
H606 H 0.48489 0.66087 0.99659 0.0
C607 C 0.51263 0.73924 0.96082 0.0
C608 C 0.7017 0.50066 0.95852 0.0
C609 C 0.72325 0.50169 0.90733 0.0
H610 H 0.69748 0.50077 0.05661 0.0
C611 C 0.7567 0.51088 0.9166 0.0
H612 H 0.67556 0.49437 0.95292 0.0
C613 C 0.76916 0.51488 0.97624 0.0
C614 C 0.7484 0.50985 0.02769 0.0
H615 H 0.77386 0.51238 0.87826 0.0
H616 H 0.79571 0.51902 0.98214 0.0
C617 C 0.71414 0.50484 0.01814 0.0
C618 C 0.95043 0.75028 0.46077 0.0
C619 C 0.96164 0.71749 0.45078 0.0
H620 H 0.94162 0.78904 0.52677 0.0
C621 C 0.96545 0.69623 0.50195 0.0
H622 H 0.94666 0.76717 0.42264 0.0
C623 C 0.96234 0.70876 0.56187 0.0
C624 C 0.9554 0.74272 0.57151 0.0
H625 H 0.97343 0.67056 0.49601 0.0
H626 H 0.96884 0.69278 0.6001 0.0
C627 C 0.9473 0.76274 0.52057 0.0
C628 C 0.74974 0.95644 0.99821 0.0
C629 C 0.71589 0.95005 1.0097 0.0
H630 H 0.78648 0.96955 0.93133 0.0
C631 C 0.69438 0.94453 0.9593 0.0
H632 H 0.76701 0.96076 0.03575 0.0
C633 C 0.70542 0.95007 0.89919 0.0
C634 C 0.73817 0.96109 0.88852 0.0
H635 H 0.66816 0.93922 0.96664 0.0
H636 H 0.68757 0.94845 0.8619 0.0
C637 C 0.76074 0.96205 0.93819 0.0
C638 C 0.49916 0.77376 0.50236 0.0
C639 C 0.50294 0.75251 0.45081 0.0
H640 H 0.49484 0.77714 0.60044 0.0
C641 C 0.51314 0.7194 0.4604 0.0
H642 H 0.49193 0.79966 0.49676 0.0
C643 C 0.51527 0.70674 0.52 0.0
C644 C 0.50715 0.72687 0.57115 0.0
H645 H 0.51685 0.70248 0.422 0.0
H646 H 0.52028 0.6803 0.52571 0.0
C647 C 0.50124 0.76104 0.56207 0.0
C648 C 0.23552 0.44987 0.60967 0.0
C649 C 0.20421 0.46458 0.61873 0.0
H650 H 0.27221 0.43465 0.54412 0.0
C651 C 0.1827 0.46796 0.5679 0.0
H652 H 0.25241 0.44625 0.64787 0.0
C653 C 0.19389 0.461 0.50842 0.0
C654 C 0.22689 0.45078 0.49871 0.0
H655 H 0.15796 0.47832 0.57345 0.0
H656 H 0.17791 0.46722 0.47002 0.0
C657 C 0.24672 0.44293 0.55013 0.0
C658 C 0.01294 0.23496 0.0602 0.0
C659 C -0.00014 0.20277 0.06984 0.0
H660 H 0.02457 0.27291 0.99461 0.0
C661 C -0.00494 0.18155 0.01846 0.0
H662 H 0.0176 0.25173 0.09853 0.0
C663 C -0.00087 0.19367 0.95867 0.0
C664 C 0.00811 0.22721 0.94919 0.0
H665 H -0.01431 0.15626 0.02408 0.0
H666 H -0.00807 0.1778 0.92035 0.0
C667 C 0.01718 0.24698 1.00047 0.0
C668 C 0.26742 0.01047 0.5176 0.0
C669 C 0.23417 0.01951 0.50699 0.0
H670 H 0.30318 -0.0061 0.5833 0.0
C671 C 0.21357 0.02649 0.55799 0.0
H672 H 0.28404 0.00506 0.47962 0.0
C673 C 0.22435 0.01951 0.6177 0.0
C674 C 0.25598 0.00568 0.62728 0.0
H675 H 0.18787 0.03393 0.55136 0.0
H676 H 0.20692 0.02222 0.6554 0.0
C677 C 0.27818 0.00348 0.5772 0.0
C678 C 0.4385 0.22441 0.99848 0.0
C679 C 0.45225 0.24246 0.94899 0.0
H680 H 0.43544 0.21932 0.0965 0.0
C681 C 0.46738 0.27357 0.96068 0.0
H682 H 0.42685 0.20022 0.99061 0.0
C683 C 0.4731 0.28393 0.02119 0.0
C684 C 0.46301 0.26379 0.07077 0.0
H685 H 0.47851 0.28783 0.92366 0.0
H686 H 0.48771 0.30644 0.02919 0.0
C687 C 0.44362 0.23516 0.05909 0.0
C688 C 0.17044 0.61293 0.35826 0.0
C689 C 0.16881 0.57817 0.34784 0.0
H690 H 0.14389 0.65918 0.36159 0.0
C691 C 0.13736 0.5628 0.3411 0.0
H692 H 0.19418 0.62561 0.36429 0.0
C693 C 0.10831 0.58218 0.34116 0.0
C694 C 0.11043 0.61718 0.34708 0.0
H695 H 0.13526 0.53603 0.33386 0.0
H696 H 0.08455 0.57009 0.33212 0.0
C697 C 0.14162 0.63221 0.35738 0.0
C698 C 0.82277 0.14916 0.7673 0.0
C699 C 0.83678 0.11715 0.77119 0.0
H700 H 0.83125 0.20189 0.76608 0.0
C701 C 0.87137 0.11414 0.78019 0.0
H702 H 0.79622 0.15215 0.75989 0.0
C703 C 0.89178 0.14277 0.78215 0.0
C704 C 0.87775 0.17479 0.77634 0.0
H705 H 0.88283 0.08966 0.78231 0.0
H706 H 0.91847 0.13984 0.7874 0.0
C707 C 0.84294 0.17762 0.77045 0.0
C708 C 0.29541 0.85699 0.36693 0.0
C709 C 0.29661 0.89155 0.35468 0.0
H710 H 0.32235 0.81103 0.37132 0.0
C711 C 0.32785 0.90705 0.34624 0.0
H712 H 0.27188 0.84421 0.37449 0.0
C713 C 0.35704 0.88789 0.34598 0.0
C714 C 0.35525 0.85299 0.3534 0.0
H715 H 0.32965 0.93368 0.3376 0.0
H716 H 0.38058 0.89998 0.33534 0.0
C717 C 0.32436 0.83793 0.36584 0.0
C718 C 0.56647 0.32455 0.79391 0.0
C719 C 0.58108 0.29262 0.79265 0.0
H720 H 0.57479 0.37769 0.79356 0.0
C721 C 0.616 0.29014 0.79715 0.0
H722 H 0.53964 0.32728 0.79133 0.0
C723 C 0.63595 0.31881 0.79849 0.0
C724 C 0.62151 0.35068 0.79633 0.0
H725 H 0.62817 0.26599 0.79694 0.0
H726 H 0.66283 0.31603 0.79826 0.0
C727 C 0.58655 0.35338 0.79619 0.0
C728 C 0.64668 0.41374 0.20342 0.0
C729 C 0.67506 0.39548 0.18636 0.0
H730 H 0.59403 0.41295 0.21831 0.0
C731 C 0.67099 0.36259 0.16398 0.0
H732 H 0.64887 0.43928 0.21993 0.0
C733 C 0.6395 0.34754 0.16249 0.0
C734 C 0.61141 0.36502 0.18358 0.0
H735 H 0.69227 0.34798 0.14938 0.0
H736 H 0.63753 0.32164 0.14791 0.0
C737 C 0.61518 0.39867 0.20202 0.0
C738 C 0.0616 0.65405 0.73292 0.0
C739 C 0.07809 0.68524 0.73434 0.0
H740 H 0.06669 0.60053 0.73268 0.0
C741 C 0.11311 0.68593 0.72974 0.0
H742 H 0.03466 0.65263 0.73562 0.0
C743 C 0.13129 0.65627 0.72791 0.0
C744 C 0.11499 0.62512 0.72979 0.0
H745 H 0.12673 0.70942 0.73002 0.0
H746 H 0.15829 0.65774 0.7278 0.0
C747 C 0.07991 0.62422 0.73028 0.0
C748 C 0.79367 0.10238 0.13881 0.0
C749 C 0.79162 0.06948 0.16155 0.0
H750 H 0.82417 0.14571 0.12464 0.0
C751 C 0.82106 0.05356 0.18041 0.0
H752 H 0.77167 0.11537 0.12294 0.0
C753 C 0.85151 0.071 0.18014 0.0
C754 C 0.85284 0.10468 0.16157 0.0
H755 H 0.82041 0.02813 0.19746 0.0
H756 H 0.87347 0.05888 0.1984 0.0
C757 C 0.82385 0.11979 0.13915 0.0
C758 C 0.37939 0.84504 0.73043 0.0
C759 C 0.34432 0.8438 0.73142 0.0
H760 H 0.42496 0.81705 0.73284 0.0
C761 C 0.32827 0.81252 0.72901 0.0
H762 H 0.39242 0.86883 0.73315 0.0
C763 C 0.34676 0.78304 0.72874 0.0
C764 C 0.38182 0.78406 0.73192 0.0
H765 H 0.30129 0.81081 0.73003 0.0
H766 H 0.33339 0.75939 0.72874 0.0
C767 C 0.398 0.8154 0.73115 0.0
C768 C 0.82228 0.33562 0.66078 0.0
C769 C 0.85315 0.35076 0.67357 0.0
H770 H 0.76965 0.34159 0.65368 0.0
C771 C 0.85473 0.38558 0.68263 0.0
H772 H 0.82045 0.30877 0.65404 0.0
C773 C 0.82539 0.4045 0.68399 0.0
C774 C 0.79418 0.38884 0.67559 0.0
H775 H 0.87824 0.39773 0.69356 0.0
H776 H 0.82707 0.43102 0.69416 0.0
C777 C 0.79315 0.35446 0.66132 0.0
C778 C 0.08866 0.85338 0.24257 0.0
C779 C 0.12343 0.85061 0.24903 0.0
H780 H 0.04172 0.82728 0.23788 0.0
C781 C 0.13788 0.81877 0.25081 0.0
H782 H 0.07692 0.87775 0.24214 0.0
C783 C 0.11796 0.79015 0.24819 0.0
C784 C 0.08302 0.79269 0.24494 0.0
H785 H 0.16459 0.81601 0.25625 0.0
H786 H 0.12999 0.76598 0.25092 0.0
C787 C 0.06853 0.82458 0.24111 0.0
C788 C 0.66442 0.11223 0.65404 0.0
C789 C 0.66305 0.078 0.66902 0.0
H790 H 0.63786 0.15826 0.64579 0.0
C791 C 0.63173 0.06315 0.68005 0.0
H792 H 0.68798 0.12453 0.64443 0.0
C793 C 0.6027 0.08262 0.67955 0.0
C794 C 0.60461 0.11728 0.66864 0.0
H795 H 0.62974 0.03678 0.69092 0.0
H796 H 0.57916 0.07097 0.6917 0.0
C797 C 0.63562 0.13162 0.65418 0.0
C798 C 0.34735 0.67829 0.25125 0.0
C799 C 0.38228 0.67636 0.24663 0.0
H800 H 0.30119 0.65167 0.25961 0.0
C801 C 0.39719 0.64468 0.24112 0.0
H802 H 0.33496 0.70224 0.25529 0.0
C803 C 0.37751 0.61552 0.24213 0.0
C804 C 0.34276 0.61767 0.24977 0.0
H805 H 0.424 0.64242 0.23683 0.0
H806 H 0.3896 0.59134 0.24023 0.0
C807 C 0.3279 0.64932 0.25334 0.0
C808 C 0.34872 0.57618 0.83284 0.0
C809 C 0.34989 0.61026 0.84936 0.0
H810 H 0.31768 0.53338 0.81391 0.0
C811 C 0.32025 0.62633 0.86638 0.0
H812 H 0.37117 0.56329 0.81866 0.0
C813 C 0.2898 0.60946 0.86316 0.0
C814 C 0.28813 0.57607 0.84241 0.0
H815 H 0.3204 0.65259 0.87921 0.0
H816 H 0.26742 0.62315 0.87485 0.0
C817 C 0.31804 0.55922 0.82921 0.0
C818 C 0.83003 0.31044 0.29644 0.0
C819 C 0.84676 0.34139 0.29619 0.0
H820 H 0.83391 0.25729 0.29144 0.0
C821 C 0.88183 0.34187 0.29614 0.0
H822 H 0.80302 0.30933 0.2962 0.0
C823 C 0.89974 0.31188 0.29205 0.0
C824 C 0.88283 0.28096 0.28867 0.0
H825 H 0.89535 0.36542 0.295 0.0
H826 H 0.92671 0.313 0.28968 0.0
C827 C 0.84782 0.2806 0.29308 0.0
C828 C 0.13892 0.84443 0.8734 0.0
C829 C 0.10954 0.86044 0.85489 0.0
H830 H 0.1917 0.84738 0.88337 0.0
C831 C 0.11112 0.89427 0.83733 0.0
H832 H 0.13848 0.81839 0.88718 0.0
C833 C 0.14195 0.91096 0.83417 0.0
C834 C 0.17162 0.8941 0.84876 0.0
H835 H 0.08891 0.90713 0.82208 0.0
H836 H 0.14264 0.93657 0.81803 0.0
C837 C 0.16952 0.86103 0.87052 0.0
C838 C 0.60584 0.1363 0.30481 0.0
C839 C 0.62472 0.12952 0.25187 0.0
H840 H 0.57402 0.17127 0.35145 0.0
C841 C 0.62583 0.15361 0.20482 0.0
H842 H 0.60437 0.11822 0.34166 0.0
C843 C 0.6081 0.18334 0.20977 0.0
C844 C 0.58915 0.19018 0.26233 0.0
H845 H 0.63982 0.14927 0.16297 0.0
H846 H 0.60938 0.20106 0.17228 0.0
C847 C 0.58848 0.1666 0.3103 0.0
loop_
_geom_bond_atom_site_label_1
_geom_bond_atom_site_label_2
_geom_bond_distance
_geom_bond_site_symmetry_2
_ccdc_geom_bond_type
O0 Zn1 1.953 . S
O0 C16 1.225 . S
Zn1 O0 1.953 . S
Zn1 O2 1.949 . S
Zn1 O8 1.919 . S
Zn1 O13 1.924 . S
O2 Zn1 1.949 . S
O2 Zn3 1.923 . S
O2 Zn4 1.950 . S
O2 Zn5 1.945 . S
Zn3 O2 1.923 . S
Zn3 O6 1.933 . S
Zn3 O9 1.941 . S
Zn3 O10 1.965 . S
Zn4 O2 1.950 . S
Zn4 O11 1.938 . S
Zn4 O12 1.906 . S
Zn4 O22 1.953 . S
Zn5 O2 1.945 . S
Zn5 O7 1.932 . S
Zn5 O14 1.977 . S
Zn5 O15 1.910 . S
O6 Zn3 1.933 . S
O6 C17 1.226 . S
O7 Zn5 1.932 . S
O7 C17 1.307 . S
O8 Zn1 1.919 . S
O8 C19 1.253 . S
O9 Zn3 1.941 . S
O9 C19 1.283 . S
O10 Zn3 1.965 . S
O10 C18 1.303 . S
O11 Zn4 1.938 . S
O11 C18 1.247 . S
O12 Zn4 1.906 . S
O12 C20 1.304 . S
O13 Zn1 1.924 . S
O13 C21 1.311 . S
O14 Zn5 1.977 . S
O14 C20 1.272 . S
O15 Zn5 1.910 . S
O15 C21 1.231 . S
C16 O0 1.225 . S
C16 O22 1.298 . S
C17 O6 1.226 . S
C17 O7 1.307 . S
C18 O10 1.303 . S
C18 O11 1.247 . S
C19 O8 1.253 . S
C19 O9 1.283 . S
C20 O12 1.304 . S
C20 O14 1.272 . S
C21 O13 1.311 . S
C21 O15 1.231 . S
O22 Zn4 1.953 . S
O22 C16 1.298 . S
O23 Zn24 1.953 . S
O23 C39 1.225 . S
Zn24 O23 1.953 . S
Zn24 O25 1.949 . S
Zn24 O31 1.919 . S
Zn24 O36 1.924 . S
O25 Zn24 1.949 . S
O25 Zn26 1.923 . S
O25 Zn27 1.950 . S
O25 Zn28 1.945 . S
Zn26 O25 1.923 . S
Zn26 O29 1.933 1_655 S
Zn26 O32 1.941 . S
Zn26 O33 1.965 1_655 S
Zn27 O25 1.950 . S
Zn27 O34 1.938 1_655 S
Zn27 O35 1.906 1_655 S
Zn27 O45 1.953 . S
Zn28 O25 1.945 . S
Zn28 O30 1.932 . S
Zn28 O37 1.977 1_655 S
Zn28 O38 1.910 . S
O29 Zn26 1.933 1_455 S
O29 C40 1.226 . S
O30 Zn28 1.932 . S
O30 C40 1.307 1_655 S
O31 Zn24 1.919 . S
O31 C42 1.253 . S
O32 Zn26 1.941 . S
O32 C42 1.283 . S
O33 Zn26 1.965 1_455 S
O33 C41 1.303 . S
O34 Zn27 1.938 1_455 S
O34 C41 1.247 . S
O35 Zn27 1.906 1_455 S
O35 C43 1.304 . S
O36 Zn24 1.924 . S
O36 C44 1.311 . S
O37 Zn28 1.977 1_455 S
O37 C43 1.272 . S
O38 Zn28 1.910 . S
O38 C44 1.231 . S
C39 O23 1.225 . S
C39 O45 1.298 . S
C40 O29 1.226 . S
C40 O30 1.307 1_455 S
C41 O33 1.303 . S
C41 O34 1.247 . S
C42 O31 1.253 . S
C42 O32 1.283 . S
C43 O35 1.304 . S
C43 O37 1.272 . S
C44 O36 1.311 . S
C44 O38 1.231 . S
O45 Zn27 1.953 . S
O45 C39 1.298 . S
O46 Zn47 1.953 . S
O46 C62 1.225 . S
Zn47 O46 1.953 . S
Zn47 O48 1.949 . S
Zn47 O54 1.919 . S
Zn47 O59 1.924 . S
O48 Zn47 1.949 . S
O48 Zn49 1.923 . S
O48 Zn50 1.950 . S
O48 Zn51 1.945 . S
Zn49 O48 1.923 . S
Zn49 O52 1.933 1_565 S
Zn49 O55 1.941 . S
Zn49 O56 1.965 1_565 S
Zn50 O48 1.950 . S
Zn50 O57 1.938 1_565 S
Zn50 O58 1.906 1_565 S
Zn50 O68 1.953 . S
Zn51 O48 1.945 . S
Zn51 O53 1.932 . S
Zn51 O60 1.977 1_565 S
Zn51 O61 1.910 . S
O52 Zn49 1.933 1_545 S
O52 C63 1.226 . S
O53 Zn51 1.932 . S
O53 C63 1.307 1_565 S
O54 Zn47 1.919 . S
O54 C65 1.253 . S
O55 Zn49 1.941 . S
O55 C65 1.283 . S
O56 Zn49 1.965 1_545 S
O56 C64 1.303 . S
O57 Zn50 1.938 1_545 S
O57 C64 1.247 . S
O58 Zn50 1.906 1_545 S
O58 C66 1.304 . S
O59 Zn47 1.924 . S
O59 C67 1.311 . S
O60 Zn51 1.977 1_545 S
O60 C66 1.272 . S
O61 Zn51 1.910 . S
O61 C67 1.231 . S
C62 O46 1.225 . S
C62 O68 1.298 . S
C63 O52 1.226 . S
C63 O53 1.307 1_545 S
C64 O56 1.303 . S
C64 O57 1.247 . S
C65 O54 1.253 . S
C65 O55 1.283 . S
C66 O58 1.304 . S
C66 O60 1.272 . S
C67 O59 1.311 . S
C67 O61 1.231 . S
O68 Zn50 1.953 . S
O68 C62 1.298 . S
O69 Zn70 1.953 . S
O69 C85 1.225 . S
Zn70 O69 1.953 . S
Zn70 O71 1.949 . S
Zn70 O77 1.919 . S
Zn70 O82 1.924 . S
O71 Zn70 1.949 . S
O71 Zn72 1.923 . S
O71 Zn73 1.950 . S
O71 Zn74 1.945 . S
Zn72 O71 1.923 . S
Zn72 O75 1.933 . S
Zn72 O78 1.941 . S
Zn72 O79 1.965 . S
Zn73 O71 1.950 . S
Zn73 O80 1.938 . S
Zn73 O81 1.906 . S
Zn73 O91 1.953 . S
Zn74 O71 1.945 . S
Zn74 O76 1.932 . S
Zn74 O83 1.977 . S
Zn74 O84 1.910 . S
O75 Zn72 1.933 . S
O75 C86 1.226 . S
O76 Zn74 1.932 . S
O76 C86 1.307 . S
O77 Zn70 1.919 . S
O77 C88 1.253 . S
O78 Zn72 1.941 . S
O78 C88 1.283 . S
O79 Zn72 1.965 . S
O79 C87 1.303 . S
O80 Zn73 1.938 . S
O80 C87 1.247 . S
O81 Zn73 1.906 . S
O81 C89 1.304 . S
O82 Zn70 1.924 . S
O82 C90 1.311 . S
O83 Zn74 1.977 . S
O83 C89 1.272 . S
O84 Zn74 1.910 . S
O84 C90 1.231 . S
C85 O69 1.225 . S
C85 O91 1.298 . S
C86 O75 1.226 . S
C86 O76 1.307 . S
C87 O79 1.303 . S
C87 O80 1.247 . S
C88 O77 1.253 . S
C88 O78 1.283 . S
C89 O81 1.304 . S
C89 O83 1.272 . S
C90 O82 1.311 . S
C90 O84 1.231 . S
O91 Zn73 1.953 . S
O91 C85 1.298 . S
O92 Zn93 1.953 . S
O92 C108 1.225 . S
Zn93 O92 1.953 . S
Zn93 O94 1.949 . S
Zn93 O100 1.919 . S
Zn93 O105 1.924 . S
O94 Zn93 1.949 . S
O94 Zn95 1.923 . S
O94 Zn96 1.950 . S
O94 Zn97 1.945 . S
Zn95 O94 1.923 . S
Zn95 O98 1.933 . S
Zn95 O101 1.941 . S
Zn95 O102 1.965 . S
Zn96 O94 1.950 . S
Zn96 O103 1.938 . S
Zn96 O104 1.906 . S
Zn96 O114 1.953 . S
Zn97 O94 1.945 . S
Zn97 O99 1.932 . S
Zn97 O106 1.977 . S
Zn97 O107 1.910 . S
O98 Zn95 1.933 . S
O98 C109 1.226 . S
O99 Zn97 1.932 . S
O99 C109 1.307 . S
O100 Zn93 1.919 . S
O100 C111 1.253 . S
O101 Zn95 1.941 . S
O101 C111 1.283 . S
O102 Zn95 1.965 . S
O102 C110 1.303 . S
O103 Zn96 1.938 . S
O103 C110 1.247 . S
O104 Zn96 1.906 . S
O104 C112 1.304 . S
O105 Zn93 1.924 . S
O105 C113 1.311 . S
O106 Zn97 1.977 . S
O106 C112 1.272 . S
O107 Zn97 1.910 . S
O107 C113 1.231 . S
C108 O92 1.225 . S
C108 O114 1.298 . S
C109 O98 1.226 . S
C109 O99 1.307 . S
C110 O102 1.303 . S
C110 O103 1.247 . S
C111 O100 1.253 . S
C111 O101 1.283 . S
C112 O104 1.304 . S
C112 O106 1.272 . S
C113 O105 1.311 . S
C113 O107 1.231 . S
O114 Zn96 1.953 . S
O114 C108 1.298 . S
O115 Zn116 1.953 . S
O115 C131 1.225 . S
Zn116 O115 1.953 . S
Zn116 O117 1.949 . S
Zn116 O123 1.919 . S
Zn116 O128 1.924 . S
O117 Zn116 1.949 . S
O117 Zn118 1.923 . S
O117 Zn119 1.950 . S
O117 Zn120 1.945 . S
Zn118 O117 1.923 . S
Zn118 O121 1.933 1_455 S
Zn118 O124 1.941 . S
Zn118 O125 1.965 1_455 S
Zn119 O117 1.950 . S
Zn119 O126 1.938 1_455 S
Zn119 O127 1.906 1_455 S
Zn119 O137 1.953 . S
Zn120 O117 1.945 . S
Zn120 O122 1.932 . S
Zn120 O129 1.977 1_455 S
Zn120 O130 1.910 . S
O121 Zn118 1.933 1_655 S
O121 C132 1.226 . S
O122 Zn120 1.932 . S
O122 C132 1.307 1_455 S
O123 Zn116 1.919 . S
O123 C134 1.253 . S
O124 Zn118 1.941 . S
O124 C134 1.283 . S
O125 Zn118 1.965 1_655 S
O125 C133 1.303 . S
O126 Zn119 1.938 1_655 S
O126 C133 1.247 . S
O127 Zn119 1.906 1_655 S
O127 C135 1.304 . S
O128 Zn116 1.924 . S
O128 C136 1.311 . S
O129 Zn120 1.977 1_655 S
O129 C135 1.272 . S
O130 Zn120 1.910 . S
O130 C136 1.231 . S
C131 O115 1.225 . S
C131 O137 1.298 . S
C132 O121 1.226 . S
C132 O122 1.307 1_655 S
C133 O125 1.303 . S
C133 O126 1.247 . S
C134 O123 1.253 . S
C134 O124 1.283 . S
C135 O127 1.304 . S
C135 O129 1.272 . S
C136 O128 1.311 . S
C136 O130 1.231 . S
O137 Zn119 1.953 . S
O137 C131 1.298 . S
O138 Zn139 1.953 . S
O138 C154 1.225 . S
Zn139 O138 1.953 . S
Zn139 O140 1.949 . S
Zn139 O146 1.919 . S
Zn139 O151 1.924 . S
O140 Zn139 1.949 . S
O140 Zn141 1.923 . S
O140 Zn142 1.950 . S
O140 Zn143 1.945 . S
Zn141 O140 1.923 . S
Zn141 O144 1.933 1_545 S
Zn141 O147 1.941 . S
Zn141 O148 1.965 1_545 S
Zn142 O140 1.950 . S
Zn142 O149 1.938 1_545 S
Zn142 O150 1.906 1_545 S
Zn142 O160 1.953 . S
Zn143 O140 1.945 . S
Zn143 O145 1.932 . S
Zn143 O152 1.977 1_545 S
Zn143 O153 1.910 . S
O144 Zn141 1.933 1_565 S
O144 C155 1.226 . S
O145 Zn143 1.932 . S
O145 C155 1.307 1_545 S
O146 Zn139 1.919 . S
O146 C157 1.253 . S
O147 Zn141 1.941 . S
O147 C157 1.283 . S
O148 Zn141 1.965 1_565 S
O148 C156 1.303 . S
O149 Zn142 1.938 1_565 S
O149 C156 1.247 . S
O150 Zn142 1.906 1_565 S
O150 C158 1.304 . S
O151 Zn139 1.924 . S
O151 C159 1.311 . S
O152 Zn143 1.977 1_565 S
O152 C158 1.272 . S
O153 Zn143 1.910 . S
O153 C159 1.231 . S
C154 O138 1.225 . S
C154 O160 1.298 . S
C155 O144 1.226 . S
C155 O145 1.307 1_565 S
C156 O148 1.303 . S
C156 O149 1.247 . S
C157 O146 1.253 . S
C157 O147 1.283 . S
C158 O150 1.304 . S
C158 O152 1.272 . S
C159 O151 1.311 . S
C159 O153 1.231 . S
O160 Zn142 1.953 . S
O160 C154 1.298 . S
O161 Zn162 1.953 . S
O161 C177 1.225 . S
Zn162 O161 1.953 . S
Zn162 O163 1.949 . S
Zn162 O169 1.919 . S
Zn162 O174 1.924 . S
O163 Zn162 1.949 . S
O163 Zn164 1.923 . S
O163 Zn165 1.950 . S
O163 Zn166 1.945 . S
Zn164 O163 1.923 . S
Zn164 O167 1.933 . S
Zn164 O170 1.941 . S
Zn164 O171 1.965 . S
Zn165 O163 1.950 . S
Zn165 O172 1.938 . S
Zn165 O173 1.906 . S
Zn165 O183 1.953 . S
Zn166 O163 1.945 . S
Zn166 O168 1.932 . S
Zn166 O175 1.977 . S
Zn166 O176 1.910 . S
O167 Zn164 1.933 . S
O167 C178 1.226 . S
O168 Zn166 1.932 . S
O168 C178 1.307 . S
O169 Zn162 1.919 . S
O169 C180 1.253 . S
O170 Zn164 1.941 . S
O170 C180 1.283 . S
O171 Zn164 1.965 . S
O171 C179 1.303 . S
O172 Zn165 1.938 . S
O172 C179 1.247 . S
O173 Zn165 1.906 . S
O173 C181 1.304 . S
O174 Zn162 1.924 . S
O174 C182 1.311 . S
O175 Zn166 1.977 . S
O175 C181 1.272 . S
O176 Zn166 1.910 . S
O176 C182 1.231 . S
C177 O161 1.225 . S
C177 O183 1.298 . S
C178 O167 1.226 . S
C178 O168 1.307 . S
C179 O171 1.303 . S
C179 O172 1.247 . S
C180 O169 1.253 . S
C180 O170 1.283 . S
C181 O173 1.304 . S
C181 O175 1.272 . S
C182 O174 1.311 . S
C182 O176 1.231 . S
O183 Zn165 1.953 . S
O183 C177 1.298 . S
O184 Zn185 1.953 . S
O184 C200 1.225 . S
Zn185 O184 1.953 . S
Zn185 O186 1.949 . S
Zn185 O192 1.919 . S
Zn185 O197 1.924 . S
O186 Zn185 1.949 . S
O186 Zn187 1.923 . S
O186 Zn188 1.950 . S
O186 Zn189 1.945 . S
Zn187 O186 1.923 . S
Zn187 O190 1.933 . S
Zn187 O193 1.941 . S
Zn187 O194 1.965 . S
Zn188 O186 1.950 . S
Zn188 O195 1.938 . S
Zn188 O196 1.906 . S
Zn188 O206 1.953 . S
Zn189 O186 1.945 . S
Zn189 O191 1.932 . S
Zn189 O198 1.977 . S
Zn189 O199 1.910 . S
O190 Zn187 1.933 . S
O190 C201 1.226 . S
O191 Zn189 1.932 . S
O191 C201 1.307 . S
O192 Zn185 1.919 . S
O192 C203 1.253 . S
O193 Zn187 1.941 . S
O193 C203 1.283 . S
O194 Zn187 1.965 . S
O194 C202 1.303 . S
O195 Zn188 1.938 . S
O195 C202 1.247 . S
O196 Zn188 1.906 . S
O196 C204 1.304 . S
O197 Zn185 1.924 . S
O197 C205 1.311 . S
O198 Zn189 1.977 . S
O198 C204 1.272 . S
O199 Zn189 1.910 . S
O199 C205 1.231 . S
C200 O184 1.225 . S
C200 O206 1.298 . S
C201 O190 1.226 . S
C201 O191 1.307 . S
C202 O194 1.303 . S
C202 O195 1.247 . S
C203 O192 1.253 . S
C203 O193 1.283 . S
C204 O196 1.304 . S
C204 O198 1.272 . S
C205 O197 1.311 . S
C205 O199 1.231 . S
O206 Zn188 1.953 . S
O206 C200 1.298 . S
O207 Zn208 1.953 . S
O207 C223 1.225 . S
Zn208 O207 1.953 . S
Zn208 O209 1.949 . S
Zn208 O215 1.919 . S
Zn208 O220 1.924 . S
O209 Zn208 1.949 . S
O209 Zn210 1.923 . S
O209 Zn211 1.950 . S
O209 Zn212 1.945 . S
Zn210 O209 1.923 . S
Zn210 O213 1.933 1_455 S
Zn210 O216 1.941 . S
Zn210 O217 1.965 1_455 S
Zn211 O209 1.950 . S
Zn211 O218 1.938 1_455 S
Zn211 O219 1.906 1_455 S
Zn211 O229 1.953 . S
Zn212 O209 1.945 . S
Zn212 O214 1.932 . S
Zn212 O221 1.977 1_455 S
Zn212 O222 1.910 . S
O213 Zn210 1.933 1_655 S
O213 C224 1.226 . S
O214 Zn212 1.932 . S
O214 C224 1.307 1_455 S
O215 Zn208 1.919 . S
O215 C226 1.253 . S
O216 Zn210 1.941 . S
O216 C226 1.283 . S
O217 Zn210 1.965 1_655 S
O217 C225 1.303 . S
O218 Zn211 1.938 1_655 S
O218 C225 1.247 . S
O219 Zn211 1.906 1_655 S
O219 C227 1.304 . S
O220 Zn208 1.924 . S
O220 C228 1.311 . S
O221 Zn212 1.977 1_655 S
O221 C227 1.272 . S
O222 Zn212 1.910 . S
O222 C228 1.231 . S
C223 O207 1.225 . S
C223 O229 1.298 . S
C224 O213 1.226 . S
C224 O214 1.307 1_655 S
C225 O217 1.303 . S
C225 O218 1.247 . S
C226 O215 1.253 . S
C226 O216 1.283 . S
C227 O219 1.304 . S
C227 O221 1.272 . S
C228 O220 1.311 . S
C228 O222 1.231 . S
O229 Zn211 1.953 . S
O229 C223 1.298 . S
O230 Zn231 1.953 . S
O230 C246 1.225 . S
Zn231 O230 1.953 . S
Zn231 O232 1.949 . S
Zn231 O238 1.919 . S
Zn231 O243 1.924 . S
O232 Zn231 1.949 . S
O232 Zn233 1.923 . S
O232 Zn234 1.950 . S
O232 Zn235 1.945 . S
Zn233 O232 1.923 . S
Zn233 O236 1.933 1_545 S
Zn233 O239 1.941 . S
Zn233 O240 1.965 1_545 S
Zn234 O232 1.950 . S
Zn234 O241 1.938 1_545 S
Zn234 O242 1.906 1_545 S
Zn234 O252 1.953 . S
Zn235 O232 1.945 . S
Zn235 O237 1.932 . S
Zn235 O244 1.977 1_545 S
Zn235 O245 1.910 . S
O236 Zn233 1.933 1_565 S
O236 C247 1.226 . S
O237 Zn235 1.932 . S
O237 C247 1.307 1_545 S
O238 Zn231 1.919 . S
O238 C249 1.253 . S
O239 Zn233 1.941 . S
O239 C249 1.283 . S
O240 Zn233 1.965 1_565 S
O240 C248 1.303 . S
O241 Zn234 1.938 1_565 S
O241 C248 1.247 . S
O242 Zn234 1.906 1_565 S
O242 C250 1.304 . S
O243 Zn231 1.924 . S
O243 C251 1.311 . S
O244 Zn235 1.977 1_565 S
O244 C250 1.272 . S
O245 Zn235 1.910 . S
O245 C251 1.231 . S
C246 O230 1.225 . S
C246 O252 1.298 . S
C247 O236 1.226 . S
C247 O237 1.307 1_565 S
C248 O240 1.303 . S
C248 O241 1.247 . S
C249 O238 1.253 . S
C249 O239 1.283 . S
C250 O242 1.304 . S
C250 O244 1.272 . S
C251 O243 1.311 . S
C251 O245 1.231 . S
O252 Zn234 1.953 . S
O252 C246 1.298 . S
O253 Zn254 1.953 . S
O253 C269 1.225 . S
Zn254 O253 1.953 . S
Zn254 O255 1.949 . S
Zn254 O261 1.919 . S
Zn254 O266 1.924 . S
O255 Zn254 1.949 . S
O255 Zn256 1.923 . S
O255 Zn257 1.950 . S
O255 Zn258 1.945 . S
Zn256 O255 1.923 . S
Zn256 O259 1.933 . S
Zn256 O262 1.941 . S
Zn256 O263 1.965 . S
Zn257 O255 1.950 . S
Zn257 O264 1.938 . S
Zn257 O265 1.906 . S
Zn257 O275 1.953 . S
Zn258 O255 1.945 . S
Zn258 O260 1.932 . S
Zn258 O267 1.977 . S
Zn258 O268 1.910 . S
O259 Zn256 1.933 . S
O259 C270 1.226 . S
O260 Zn258 1.932 . S
O260 C270 1.307 . S
O261 Zn254 1.919 . S
O261 C272 1.253 . S
O262 Zn256 1.941 . S
O262 C272 1.283 . S
O263 Zn256 1.965 . S
O263 C271 1.303 . S
O264 Zn257 1.938 . S
O264 C271 1.247 . S
O265 Zn257 1.906 . S
O265 C273 1.304 . S
O266 Zn254 1.924 . S
O266 C274 1.311 . S
O267 Zn258 1.977 . S
O267 C273 1.272 . S
O268 Zn258 1.910 . S
O268 C274 1.231 . S
C269 O253 1.225 . S
C269 O275 1.298 . S
C270 O259 1.226 . S
C270 O260 1.307 . S
C271 O263 1.303 . S
C271 O264 1.247 . S
C272 O261 1.253 . S
C272 O262 1.283 . S
C273 O265 1.304 . S
C273 O267 1.272 . S
C274 O266 1.311 . S
C274 O268 1.231 . S
O275 Zn257 1.953 . S
O275 C269 1.298 . S
O276 Zn277 1.953 . S
O276 C292 1.225 . S
Zn277 O276 1.953 . S
Zn277 O278 1.949 . S
Zn277 O284 1.919 . S
Zn277 O289 1.924 . S
O278 Zn277 1.949 . S
O278 Zn279 1.923 . S
O278 Zn280 1.950 . S
O278 Zn281 1.945 . S
Zn279 O278 1.923 . S
Zn279 O282 1.933 . S
Zn279 O285 1.941 . S
Zn279 O286 1.965 . S
Zn280 O278 1.950 . S
Zn280 O287 1.938 . S
Zn280 O288 1.906 . S
Zn280 O298 1.953 . S
Zn281 O278 1.945 . S
Zn281 O283 1.932 . S
Zn281 O290 1.977 . S
Zn281 O291 1.910 . S
O282 Zn279 1.933 . S
O282 C293 1.226 . S
O283 Zn281 1.932 . S
O283 C293 1.307 . S
O284 Zn277 1.919 . S
O284 C295 1.253 . S
O285 Zn279 1.941 . S
O285 C295 1.283 . S
O286 Zn279 1.965 . S
O286 C294 1.303 . S
O287 Zn280 1.938 . S
O287 C294 1.247 . S
O288 Zn280 1.906 . S
O288 C296 1.304 . S
O289 Zn277 1.924 . S
O289 C297 1.311 . S
O290 Zn281 1.977 . S
O290 C296 1.272 . S
O291 Zn281 1.910 . S
O291 C297 1.231 . S
C292 O276 1.225 . S
C292 O298 1.298 . S
C293 O282 1.226 . S
C293 O283 1.307 . S
C294 O286 1.303 . S
C294 O287 1.247 . S
C295 O284 1.253 . S
C295 O285 1.283 . S
C296 O288 1.304 . S
C296 O290 1.272 . S
C297 O289 1.311 . S
C297 O291 1.231 . S
O298 Zn280 1.953 . S
O298 C292 1.298 . S
O299 Zn300 1.953 . S
O299 C315 1.225 . S
Zn300 O299 1.953 . S
Zn300 O301 1.949 . S
Zn300 O307 1.919 . S
Zn300 O312 1.924 . S
O301 Zn300 1.949 . S
O301 Zn302 1.923 . S
O301 Zn303 1.950 . S
O301 Zn304 1.945 . S
Zn302 O301 1.923 . S
Zn302 O305 1.933 1_655 S
Zn302 O308 1.941 . S
Zn302 O309 1.965 1_655 S
Zn303 O301 1.950 . S
Zn303 O310 1.938 1_655 S
Zn303 O311 1.906 1_655 S
Zn303 O321 1.953 . S
Zn304 O301 1.945 . S
Zn304 O306 1.932 . S
Zn304 O313 1.977 1_655 S
Zn304 O314 1.910 . S
O305 Zn302 1.933 1_455 S
O305 C316 1.226 . S
O306 Zn304 1.932 . S
O306 C316 1.307 1_655 S
O307 Zn300 1.919 . S
O307 C318 1.253 . S
O308 Zn302 1.941 . S
O308 C318 1.283 . S
O309 Zn302 1.965 1_455 S
O309 C317 1.303 . S
O310 Zn303 1.938 1_455 S
O310 C317 1.247 . S
O311 Zn303 1.906 1_455 S
O311 C319 1.304 . S
O312 Zn300 1.924 . S
O312 C320 1.311 . S
O313 Zn304 1.977 1_455 S
O313 C319 1.272 . S
O314 Zn304 1.910 . S
O314 C320 1.231 . S
C315 O299 1.225 . S
C315 O321 1.298 . S
C316 O305 1.226 . S
C316 O306 1.307 1_455 S
C317 O309 1.303 . S
C317 O310 1.247 . S
C318 O307 1.253 . S
C318 O308 1.283 . S
C319 O311 1.304 . S
C319 O313 1.272 . S
C320 O312 1.311 . S
C320 O314 1.231 . S
O321 Zn303 1.953 . S
O321 C315 1.298 . S
O322 Zn323 1.953 . S
O322 C338 1.225 . S
Zn323 O322 1.953 . S
Zn323 O324 1.949 . S
Zn323 O330 1.919 . S
Zn323 O335 1.924 . S
O324 Zn323 1.949 . S
O324 Zn325 1.923 . S
O324 Zn326 1.950 . S
O324 Zn327 1.945 . S
Zn325 O324 1.923 . S
Zn325 O328 1.933 1_565 S
Zn325 O331 1.941 . S
Zn325 O332 1.965 1_565 S
Zn326 O324 1.950 . S
Zn326 O333 1.938 1_565 S
Zn326 O334 1.906 1_565 S
Zn326 O344 1.953 . S
Zn327 O324 1.945 . S
Zn327 O329 1.932 . S
Zn327 O336 1.977 1_565 S
Zn327 O337 1.910 . S
O328 Zn325 1.933 1_545 S
O328 C339 1.226 . S
O329 Zn327 1.932 . S
O329 C339 1.307 1_565 S
O330 Zn323 1.919 . S
O330 C341 1.253 . S
O331 Zn325 1.941 . S
O331 C341 1.283 . S
O332 Zn325 1.965 1_545 S
O332 C340 1.303 . S
O333 Zn326 1.938 1_545 S
O333 C340 1.247 . S
O334 Zn326 1.906 1_545 S
O334 C342 1.304 . S
O335 Zn323 1.924 . S
O335 C343 1.311 . S
O336 Zn327 1.977 1_545 S
O336 C342 1.272 . S
O337 Zn327 1.910 . S
O337 C343 1.231 . S
C338 O322 1.225 . S
C338 O344 1.298 . S
C339 O328 1.226 . S
C339 O329 1.307 1_545 S
C340 O332 1.303 . S
C340 O333 1.247 . S
C341 O330 1.253 . S
C341 O331 1.283 . S
C342 O334 1.304 . S
C342 O336 1.272 . S
C343 O335 1.311 . S
C343 O337 1.231 . S
O344 Zn326 1.953 . S
O344 C338 1.298 . S
O345 Zn346 1.953 . S
O345 C361 1.225 . S
Zn346 O345 1.953 . S
Zn346 O347 1.949 . S
Zn346 O353 1.919 . S
Zn346 O358 1.924 . S
O347 Zn346 1.949 . S
O347 Zn348 1.923 . S
O347 Zn349 1.950 . S
O347 Zn350 1.945 . S
Zn348 O347 1.923 . S
Zn348 O351 1.933 . S
Zn348 O354 1.941 . S
Zn348 O355 1.965 . S
Zn349 O347 1.950 . S
Zn349 O356 1.938 . S
Zn349 O357 1.906 . S
Zn349 O367 1.953 . S
Zn350 O347 1.945 . S
Zn350 O352 1.932 . S
Zn350 O359 1.977 . S
Zn350 O360 1.910 . S
O351 Zn348 1.933 . S
O351 C362 1.226 . S
O352 Zn350 1.932 . S
O352 C362 1.307 . S
O353 Zn346 1.919 . S
O353 C364 1.253 . S
O354 Zn348 1.941 . S
O354 C364 1.283 . S
O355 Zn348 1.965 . S
O355 C363 1.303 . S
O356 Zn349 1.938 . S
O356 C363 1.247 . S
O357 Zn349 1.906 . S
O357 C365 1.304 . S
O358 Zn346 1.924 . S
O358 C366 1.311 . S
O359 Zn350 1.977 . S
O359 C365 1.272 . S
O360 Zn350 1.910 . S
O360 C366 1.231 . S
C361 O345 1.225 . S
C361 O367 1.298 . S
C362 O351 1.226 . S
C362 O352 1.307 . S
C363 O355 1.303 . S
C363 O356 1.247 . S
C364 O353 1.253 . S
C364 O354 1.283 . S
C365 O357 1.304 . S
C365 O359 1.272 . S
C366 O358 1.311 . S
C366 O360 1.231 . S
O367 Zn349 1.953 . S
O367 C361 1.298 . S
C368 C369 1.387 . S
C368 H372 0.950 . S
C368 C377 1.390 . S
C369 C368 1.387 . S
C369 C371 1.387 . S
H370 C377 0.950 . S
C371 C369 1.387 . S
C371 C373 1.390 . S
C371 H375 0.950 . S
H372 C368 0.950 . S
C373 C371 1.390 . S
C373 C374 1.387 . S
C373 H376 0.950 . S
C374 C373 1.387 . S
C374 C377 1.387 . S
H375 C371 0.950 . S
H376 C373 0.950 . S
C377 C368 1.390 . S
C377 H370 0.950 . S
C377 C374 1.387 . S
C378 C379 1.387 . S
C378 H382 0.950 . S
C378 C387 1.390 . S
C379 C378 1.387 . S
C379 C381 1.387 1_554 S
H380 C387 0.950 . S
C381 C379 1.387 1_556 S
C381 C383 1.390 . S
C381 H385 0.950 . S
H382 C378 0.950 . S
C383 C381 1.390 . S
C383 C384 1.387 . S
C383 H386 0.950 . S
C384 C383 1.387 . S
C384 C387 1.387 1_556 S
H385 C381 0.950 . S
H386 C383 0.950 . S
C387 C378 1.390 . S
C387 H380 0.950 . S
C387 C384 1.387 1_554 S
C388 C389 1.387 . S
C388 H392 0.950 . S
C388 C397 1.390 . S
C389 C388 1.387 . S
C389 C391 1.387 . S
H390 C397 0.950 . S
C391 C389 1.387 . S
C391 C393 1.390 . S
C391 H395 0.950 . S
H392 C388 0.950 . S
C393 C391 1.390 . S
C393 C394 1.387 . S
C393 H396 0.950 . S
C394 C393 1.387 . S
C394 C397 1.387 . S
H395 C391 0.950 . S
H396 C393 0.950 . S
C397 C388 1.390 . S
C397 H390 0.950 . S
C397 C394 1.387 . S
C398 C399 1.387 . S
C398 H402 0.950 . S
C398 C407 1.390 . S
C399 C398 1.387 . S
C399 C401 1.387 1_556 S
H400 C407 0.950 . S
C401 C399 1.387 1_554 S
C401 C403 1.390 . S
C401 H405 0.950 . S
H402 C398 0.950 . S
C403 C401 1.390 . S
C403 C404 1.387 . S
C403 H406 0.950 . S
C404 C403 1.387 . S
C404 C407 1.387 1_554 S
H405 C401 0.950 . S
H406 C403 0.950 . S
C407 C398 1.390 . S
C407 H400 0.950 . S
C407 C404 1.387 1_556 S
C408 C409 1.387 . S
C408 H412 0.950 . S
C408 C417 1.390 . S
C409 C408 1.387 . S
C409 C411 1.387 . S
H410 C417 0.950 . S
C411 C409 1.387 . S
C411 C413 1.390 . S
C411 H415 0.950 . S
H412 C408 0.950 . S
C413 C411 1.390 . S
C413 C414 1.387 . S
C413 H416 0.950 . S
C414 C413 1.387 . S
C414 C417 1.387 . S
H415 C411 0.950 . S
H416 C413 0.950 . S
C417 C408 1.390 . S
C417 H410 0.950 . S
C417 C414 1.387 . S
C418 C419 1.387 1_554 S
C418 H422 0.950 . S
C418 C427 1.390 . S
C419 C418 1.387 1_556 S
C419 C421 1.387 . S
H420 C427 0.950 . S
C421 C419 1.387 . S
C421 C423 1.390 . S
C421 H425 0.950 . S
H422 C418 0.950 . S
C423 C421 1.390 . S
C423 C424 1.387 1_556 S
C423 H426 0.950 . S
C424 C423 1.387 1_554 S
C424 C427 1.387 . S
H425 C421 0.950 . S
H426 C423 0.950 . S
C427 C418 1.390 . S
C427 H420 0.950 . S
C427 C424 1.387 . S
C428 C429 1.387 . S
C428 H432 0.950 . S
C428 C437 1.390 . S
C429 C428 1.387 . S
C429 C431 1.387 . S
H430 C437 0.950 . S
C431 C429 1.387 . S
C431 C433 1.390 . S
C431 H435 0.950 . S
H432 C428 0.950 . S
C433 C431 1.390 . S
C433 C434 1.387 . S
C433 H436 0.950 . S
C434 C433 1.387 . S
C434 C437 1.387 . S
H435 C431 0.950 . S
H436 C433 0.950 . S
C437 C428 1.390 . S
C437 H430 0.950 . S
C437 C434 1.387 . S
C438 C439 1.387 . S
C438 H442 0.950 . S
C438 C447 1.390 . S
C439 C438 1.387 . S
C439 C441 1.387 1_556 S
H440 C447 0.950 . S
C441 C439 1.387 1_554 S
C441 C443 1.390 . S
C441 H445 0.950 . S
H442 C438 0.950 . S
C443 C441 1.390 . S
C443 C444 1.387 . S
C443 H446 0.950 . S
C444 C443 1.387 . S
C444 C447 1.387 1_554 S
H445 C441 0.950 . S
H446 C443 0.950 . S
C447 C438 1.390 . S
C447 H440 0.950 . S
C447 C444 1.387 1_556 S
C448 C449 1.387 . S
C448 H452 0.950 . S
C448 C457 1.390 . S
C449 C448 1.387 . S
C449 C451 1.387 . S
H450 C457 0.950 . S
C451 C449 1.387 . S
C451 C453 1.390 . S
C451 H455 0.950 . S
H452 C448 0.950 . S
C453 C451 1.390 . S
C453 C454 1.387 . S
C453 H456 0.950 . S
C454 C453 1.387 . S
C454 C457 1.387 . S
H455 C451 0.950 . S
H456 C453 0.950 . S
C457 C448 1.390 . S
C457 H450 0.950 . S
C457 C454 1.387 . S
C458 C459 1.387 . S
C458 H462 0.950 . S
C458 C467 1.390 . S
C459 C458 1.387 . S
C459 C461 1.387 . S
H460 C467 0.950 . S
C461 C459 1.387 . S
C461 C463 1.390 . S
C461 H465 0.950 . S
H462 C458 0.950 . S
C463 C461 1.390 . S
C463 C464 1.387 . S
C463 H466 0.950 . S
C464 C463 1.387 . S
C464 C467 1.387 . S
H465 C461 0.950 . S
H466 C463 0.950 . S
C467 C458 1.390 . S
C467 H460 0.950 . S
C467 C464 1.387 . S
C468 C469 1.387 . S
C468 H472 0.950 . S
C468 C477 1.390 . S
C469 C468 1.387 . S
C469 C471 1.387 . S
H470 C477 0.950 . S
C471 C469 1.387 . S
C471 C473 1.390 . S
C471 H475 0.950 . S
H472 C468 0.950 . S
C473 C471 1.390 . S
C473 C474 1.387 . S
C473 H476 0.950 . S
C474 C473 1.387 . S
C474 C477 1.387 . S
H475 C471 0.950 . S
H476 C473 0.950 . S
C477 C468 1.390 . S
C477 H470 0.950 . S
C477 C474 1.387 . S
C478 C479 1.387 . S
C478 H482 0.950 . S
C478 C487 1.390 . S
C479 C478 1.387 . S
C479 C481 1.387 . S
H480 C487 0.950 . S
C481 C479 1.387 . S
C481 C483 1.390 . S
C481 H485 0.950 . S
H482 C478 0.950 . S
C483 C481 1.390 . S
C483 C484 1.387 . S
C483 H486 0.950 . S
C484 C483 1.387 . S
C484 C487 1.387 . S
H485 C481 0.950 . S
H486 C483 0.950 . S
C487 C478 1.390 . S
C487 H480 0.950 . S
C487 C484 1.387 . S
C488 C489 1.387 . S
C488 H492 0.950 . S
C488 C497 1.390 . S
C489 C488 1.387 . S
C489 C491 1.387 . S
H490 C497 0.950 . S
C491 C489 1.387 . S
C491 C493 1.390 . S
C491 H495 0.950 . S
H492 C488 0.950 . S
C493 C491 1.390 . S
C493 C494 1.387 . S
C493 H496 0.950 . S
C494 C493 1.387 . S
C494 C497 1.387 . S
H495 C491 0.950 . S
H496 C493 0.950 . S
C497 C488 1.390 . S
C497 H490 0.950 . S
C497 C494 1.387 . S
C498 C499 1.387 . S
C498 H502 0.950 . S
C498 C507 1.390 . S
C499 C498 1.387 . S
C499 C501 1.387 . S
H500 C507 0.950 . S
C501 C499 1.387 . S
C501 C503 1.390 . S
C501 H505 0.950 . S
H502 C498 0.950 . S
C503 C501 1.390 . S
C503 C504 1.387 . S
C503 H506 0.950 . S
C504 C503 1.387 . S
C504 C507 1.387 . S
H505 C501 0.950 . S
H506 C503 0.950 . S
C507 C498 1.390 . S
C507 H500 0.950 . S
C507 C504 1.387 . S
C508 C509 1.387 . S
C508 H512 0.950 . S
C508 C517 1.390 . S
C509 C508 1.387 . S
C509 C511 1.387 . S
H510 C517 0.950 . S
C511 C509 1.387 . S
C511 C513 1.390 . S
C511 H515 0.950 . S
H512 C508 0.950 . S
C513 C511 1.390 . S
C513 C514 1.387 . S
C513 H516 0.950 . S
C514 C513 1.387 . S
C514 C517 1.387 . S
H515 C511 0.950 . S
H516 C513 0.950 . S
C517 C508 1.390 . S
C517 H510 0.950 . S
C517 C514 1.387 . S
C518 C519 1.387 . S
C518 H522 0.950 . S
C518 C527 1.390 . S
C519 C518 1.387 . S
C519 C521 1.387 . S
H520 C527 0.950 . S
C521 C519 1.387 . S
C521 C523 1.390 . S
C521 H525 0.950 . S
H522 C518 0.950 . S
C523 C521 1.390 . S
C523 C524 1.387 . S
C523 H526 0.950 . S
C524 C523 1.387 . S
C524 C527 1.387 . S
H525 C521 0.950 . S
H526 C523 0.950 . S
C527 C518 1.390 . S
C527 H520 0.950 . S
C527 C524 1.387 . S
C528 C529 1.387 1_554 S
C528 H532 0.950 1_554 S
C528 C537 1.390 . S
C529 C528 1.387 1_556 S
C529 C531 1.387 1_556 S
H530 C537 0.950 . S
C531 C529 1.387 1_554 S
C531 C533 1.390 . S
C531 H535 0.950 . S
H532 C528 0.950 1_556 S
C533 C531 1.390 . S
C533 C534 1.387 . S
C533 H536 0.950 . S
C534 C533 1.387 . S
C534 C537 1.387 . S
H535 C531 0.950 . S
H536 C533 0.950 . S
C537 C528 1.390 . S
C537 H530 0.950 . S
C537 C534 1.387 . S
C538 C539 1.387 . S
C538 H542 0.950 . S
C538 C547 1.390 . S
C539 C538 1.387 . S
C539 C541 1.387 . S
H540 C547 0.950 . S
C541 C539 1.387 . S
C541 C543 1.390 . S
C541 H545 0.950 . S
H542 C538 0.950 . S
C543 C541 1.390 . S
C543 C544 1.387 . S
C543 H546 0.950 . S
C544 C543 1.387 . S
C544 C547 1.387 . S
H545 C541 0.950 . S
H546 C543 0.950 . S
C547 C538 1.390 . S
C547 H540 0.950 . S
C547 C544 1.387 . S
C548 C549 1.387 1_554 S
C548 H552 0.950 . S
C548 C557 1.390 . S
C549 C548 1.387 1_556 S
C549 C551 1.387 1_546 S
H550 C557 0.950 . S
C551 C549 1.387 1_564 S
C551 C553 1.390 . S
C551 H555 0.950 1_554 S
H552 C548 0.950 . S
C553 C551 1.390 . S
C553 C554 1.387 1_565 S
C553 H556 0.950 . S
C554 C553 1.387 1_545 S
C554 C557 1.387 . S
H555 C551 0.950 1_556 S
H556 C553 0.950 . S
C557 C548 1.390 . S
C557 H550 0.950 . S
C557 C554 1.387 . S
C558 C559 1.387 . S
C558 H562 0.950 . S
C558 C567 1.390 . S
C559 C558 1.387 . S
C559 C561 1.387 . S
H560 C567 0.950 . S
C561 C559 1.387 . S
C561 C563 1.390 . S
C561 H565 0.950 . S
H562 C558 0.950 . S
C563 C561 1.390 . S
C563 C564 1.387 . S
C563 H566 0.950 . S
C564 C563 1.387 . S
C564 C567 1.387 . S
H565 C561 0.950 . S
H566 C563 0.950 . S
C567 C558 1.390 . S
C567 H560 0.950 . S
C567 C564 1.387 . S
C568 C569 1.387 . S
C568 H572 0.950 . S
C568 C577 1.390 . S
C569 C568 1.387 . S
C569 C571 1.387 . S
H570 C577 0.950 . S
C571 C569 1.387 . S
C571 C573 1.390 . S
C571 H575 0.950 . S
H572 C568 0.950 . S
C573 C571 1.390 . S
C573 C574 1.387 . S
C573 H576 0.950 . S
C574 C573 1.387 . S
C574 C577 1.387 . S
H575 C571 0.950 . S
H576 C573 0.950 . S
C577 C568 1.390 . S
C577 H570 0.950 . S
C577 C574 1.387 . S
C578 C579 1.387 . S
C578 H582 0.950 . S
C578 C587 1.390 . S
C579 C578 1.387 . S
C579 C581 1.387 1_655 S
H580 C587 0.943 1_554 S
C581 C579 1.387 1_455 S
C581 C583 1.390 . S
C581 H585 0.950 . S
H582 C578 0.950 . S
C583 C581 1.390 . S
C583 C584 1.387 1_456 S
C583 H586 0.950 . S
C584 C583 1.387 1_654 S
C584 C587 1.387 1_554 S
H585 C581 0.950 . S
H586 C583 0.950 . S
C587 C578 1.390 . S
C587 H580 0.943 1_556 S
C587 C584 1.387 1_556 S
C588 C589 1.387 . S
C588 H592 0.950 . S
C588 C597 1.390 . S
C589 C588 1.387 . S
C589 C591 1.387 1_565 S
H590 C597 0.950 . S
C591 C589 1.387 1_545 S
C591 C593 1.390 . S
C591 H595 0.950 . S
H592 C588 0.950 . S
C593 C591 1.390 . S
C593 C594 1.387 1_545 S
C593 H596 0.950 . S
C594 C593 1.387 1_565 S
C594 C597 1.387 . S
H595 C591 0.950 . S
H596 C593 0.950 . S
C597 C588 1.390 . S
C597 H590 0.950 . S
C597 C594 1.387 . S
C598 C599 1.387 1_556 S
C598 H602 0.943 1_556 S
C598 C607 1.390 . S
C599 C598 1.387 1_554 S
C599 C601 1.387 1_554 S
H600 C607 0.950 . S
C601 C599 1.387 1_556 S
C601 C603 1.390 . S
C601 H605 0.950 . S
H602 C598 0.943 1_554 S
C603 C601 1.390 . S
C603 C604 1.387 . S
C603 H606 0.950 . S
C604 C603 1.387 . S
C604 C607 1.387 . S
H605 C601 0.950 . S
H606 C603 0.950 . S
C607 C598 1.390 . S
C607 H600 0.950 . S
C607 C604 1.387 . S
C608 C609 1.387 . S
C608 H612 0.950 . S
C608 C617 1.390 . S
C609 C608 1.387 . S
C609 C611 1.387 . S
H610 C617 0.950 1_554 S
C611 C609 1.387 . S
C611 C613 1.390 . S
C611 H615 0.950 . S
H612 C608 0.950 . S
C613 C611 1.390 . S
C613 C614 1.387 1_556 S
C613 H616 0.955 . S
C614 C613 1.387 1_554 S
C614 C617 1.387 1_554 S
H615 C611 0.950 . S
H616 C613 0.955 . S
C617 C608 1.390 . S
C617 H610 0.950 1_556 S
C617 C614 1.387 1_556 S
C618 C619 1.387 1_455 S
C618 H622 0.950 . S
C618 C627 1.390 . S
C619 C618 1.387 1_655 S
C619 C621 1.387 . S
H620 C627 0.950 . S
C621 C619 1.387 . S
C621 C623 1.390 . S
C621 H625 0.950 . S
H622 C618 0.950 . S
C623 C621 1.390 . S
C623 C624 1.387 . S
C623 H626 0.950 . S
C624 C623 1.387 . S
C624 C627 1.387 1_655 S
H625 C621 0.950 . S
H626 C623 0.950 . S
C627 C618 1.390 . S
C627 H620 0.950 . S
C627 C624 1.387 1_455 S
C628 C629 1.387 1_546 S
C628 H632 0.950 1_556 S
C628 C637 1.390 . S
C629 C628 1.387 1_564 S
C629 C631 1.387 1_554 S
H630 C637 0.950 . S
C631 C629 1.387 1_556 S
C631 C633 1.390 . S
C631 H635 0.950 . S
H632 C628 0.950 1_554 S
C633 C631 1.390 . S
C633 C634 1.387 . S
C633 H636 0.950 . S
C634 C633 1.387 . S
C634 C637 1.387 1_565 S
H635 C631 0.950 . S
H636 C633 0.950 . S
C637 C628 1.390 . S
C637 H630 0.950 . S
C637 C634 1.387 1_545 S
C638 C639 1.387 . S
C638 H642 0.950 . S
C638 C647 1.390 . S
C639 C638 1.387 . S
C639 C641 1.387 . S
H640 C647 0.950 . S
C641 C639 1.387 . S
C641 C643 1.390 . S
C641 H645 0.950 . S
H642 C638 0.950 . S
C643 C641 1.390 . S
C643 C644 1.387 . S
C643 H646 0.950 . S
C644 C643 1.387 . S
C644 C647 1.387 . S
H645 C641 0.950 . S
H646 C643 0.950 . S
C647 C638 1.390 . S
C647 H640 0.950 . S
C647 C644 1.387 . S
C648 C649 1.387 . S
C648 H652 0.950 . S
C648 C657 1.390 . S
C649 C648 1.387 . S
C649 C651 1.387 . S
H650 C657 0.950 . S
C651 C649 1.387 . S
C651 C653 1.390 . S
C651 H655 0.950 . S
H652 C648 0.950 . S
C653 C651 1.390 . S
C653 C654 1.387 . S
C653 H656 0.950 . S
C654 C653 1.387 . S
C654 C657 1.387 . S
H655 C651 0.950 . S
H656 C653 0.950 . S
C657 C648 1.390 . S
C657 H650 0.950 . S
C657 C654 1.387 . S
C658 C659 1.387 1_655 S
C658 H662 0.950 . S
C658 C667 1.390 . S
C659 C658 1.387 1_455 S
C659 C661 1.387 . S
H660 C667 0.950 . S
C661 C659 1.387 . S
C661 C663 1.390 . S
C661 H665 0.950 . S
H662 C658 0.950 . S
C663 C661 1.390 . S
C663 C664 1.387 1_554 S
C663 H666 0.950 1_554 S
C664 C663 1.387 1_556 S
C664 C667 1.387 1_456 S
H665 C661 0.950 . S
H666 C663 0.950 1_556 S
C667 C658 1.390 . S
C667 H660 0.950 . S
C667 C664 1.387 1_654 S
C668 C669 1.387 1_565 S
C668 H672 0.950 . S
C668 C677 1.390 . S
C669 C668 1.387 1_545 S
C669 C671 1.387 . S
H670 C677 0.950 . S
C671 C669 1.387 . S
C671 C673 1.390 . S
C671 H675 0.950 . S
H672 C668 0.950 . S
C673 C671 1.390 . S
C673 C674 1.387 . S
C673 H676 0.950 . S
C674 C673 1.387 . S
C674 C677 1.387 1_545 S
H675 C671 0.950 . S
H676 C673 0.950 . S
C677 C668 1.390 . S
C677 H670 0.950 . S
C677 C674 1.387 1_565 S
C678 C679 1.387 1_554 S
C678 H682 0.950 . S
C678 C687 1.390 . S
C679 C678 1.387 1_556 S
C679 C681 1.387 1_556 S
H680 C687 0.950 . S
C681 C679 1.387 1_554 S
C681 C683 1.390 . S
C681 H685 0.950 . S
H682 C678 0.950 . S
C683 C681 1.390 . S
C683 C684 1.387 . S
C683 H686 0.950 . S
C684 C683 1.387 . S
C684 C687 1.387 . S
H685 C681 0.950 . S
H686 C683 0.950 . S
C687 C678 1.390 . S
C687 H680 0.950 . S
C687 C684 1.387 . S
C688 C689 1.387 . S
C688 H692 0.950 . S
C688 C697 1.390 . S
C689 C688 1.387 . S
C689 C691 1.387 . S
H690 C697 0.950 . S
C691 C689 1.387 . S
C691 C693 1.390 . S
C691 H695 0.950 . S
H692 C688 0.950 . S
C693 C691 1.390 . S
C693 C694 1.387 . S
C693 H696 0.950 . S
C694 C693 1.387 . S
C694 C697 1.387 . S
H695 C691 0.950 . S
H696 C693 0.950 . S
C697 C688 1.390 . S
C697 H690 0.950 . S
C697 C694 1.387 . S
C698 C699 1.387 . S
C698 H702 0.950 . S
C698 C707 1.390 . S
C699 C698 1.387 . S
C699 C701 1.387 . S
H700 C707 0.950 . S
C701 C699 1.387 . S
C701 C703 1.390 . S
C701 H705 0.950 . S
H702 C698 0.950 . S
C703 C701 1.390 . S
C703 C704 1.387 . S
C703 H706 0.950 . S
C704 C703 1.387 . S
C704 C707 1.387 . S
H705 C701 0.950 . S
H706 C703 0.950 . S
C707 C698 1.390 . S
C707 H700 0.950 . S
C707 C704 1.387 . S
C708 C709 1.387 . S
C708 H712 0.950 . S
C708 C717 1.390 . S
C709 C708 1.387 . S
C709 C711 1.387 . S
H710 C717 0.950 . S
C711 C709 1.387 . S
C711 C713 1.390 . S
C711 H715 0.950 . S
H712 C708 0.950 . S
C713 C711 1.390 . S
C713 C714 1.387 . S
C713 H716 0.950 . S
C714 C713 1.387 . S
C714 C717 1.387 . S
H715 C711 0.950 . S
H716 C713 0.950 . S
C717 C708 1.390 . S
C717 H710 0.950 . S
C717 C714 1.387 . S
C718 C719 1.387 . S
C718 H722 0.950 . S
C718 C727 1.390 . S
C719 C718 1.387 . S
C719 C721 1.387 . S
H720 C727 0.950 . S
C721 C719 1.387 . S
C721 C723 1.390 . S
C721 H725 0.950 . S
H722 C718 0.950 . S
C723 C721 1.390 . S
C723 C724 1.387 . S
C723 H726 0.950 . S
C724 C723 1.387 . S
C724 C727 1.387 . S
H725 C721 0.950 . S
H726 C723 0.950 . S
C727 C718 1.390 . S
C727 H720 0.950 . S
C727 C724 1.387 . S
C728 C729 1.387 . S
C728 H732 0.950 . S
C728 C737 1.390 . S
C729 C728 1.387 . S
C729 C731 1.387 . S
H730 C737 0.950 . S
C731 C729 1.387 . S
C731 C733 1.390 . S
C731 H735 0.950 . S
H732 C728 0.950 . S
C733 C731 1.390 . S
C733 C734 1.387 . S
C733 H736 0.950 . S
C734 C733 1.387 . S
C734 C737 1.387 . S
H735 C731 0.950 . S
H736 C733 0.950 . S
C737 C728 1.390 . S
C737 H730 0.950 . S
C737 C734 1.387 . S
C738 C739 1.387 . S
C738 H742 0.950 . S
C738 C747 1.390 . S
C739 C738 1.387 . S
C739 C741 1.387 . S
H740 C747 0.950 . S
C741 C739 1.387 . S
C741 C743 1.390 . S
C741 H745 0.950 . S
H742 C738 0.950 . S
C743 C741 1.390 . S
C743 C744 1.387 . S
C743 H746 0.950 . S
C744 C743 1.387 . S
C744 C747 1.387 . S
H745 C741 0.950 . S
H746 C743 0.950 . S
C747 C738 1.390 . S
C747 H740 0.950 . S
C747 C744 1.387 . S
C748 C749 1.387 . S
C748 H752 0.950 . S
C748 C757 1.390 . S
C749 C748 1.387 . S
C749 C751 1.387 . S
H750 C757 0.950 . S
C751 C749 1.387 . S
C751 C753 1.390 . S
C751 H755 0.950 . S
H752 C748 0.950 . S
C753 C751 1.390 . S
C753 C754 1.387 . S
C753 H756 0.950 . S
C754 C753 1.387 . S
C754 C757 1.387 . S
H755 C751 0.950 . S
H756 C753 0.950 . S
C757 C748 1.390 . S
C757 H750 0.950 . S
C757 C754 1.387 . S
C758 C759 1.387 . S
C758 H762 0.950 . S
C758 C767 1.390 . S
C759 C758 1.387 . S
C759 C761 1.387 . S
H760 C767 0.950 . S
C761 C759 1.387 . S
C761 C763 1.390 . S
C761 H765 0.950 . S
H762 C758 0.950 . S
C763 C761 1.390 . S
C763 C764 1.387 . S
C763 H766 0.950 . S
C764 C763 1.387 . S
C764 C767 1.387 . S
H765 C761 0.950 . S
H766 C763 0.950 . S
C767 C758 1.390 . S
C767 H760 0.950 . S
C767 C764 1.387 . S
C768 C769 1.387 . S
C768 H772 0.950 . S
C768 C777 1.390 . S
C769 C768 1.387 . S
C769 C771 1.387 . S
H770 C777 0.950 . S
C771 C769 1.387 . S
C771 C773 1.390 . S
C771 H775 0.950 . S
H772 C768 0.950 . S
C773 C771 1.390 . S
C773 C774 1.387 . S
C773 H776 0.950 . S
C774 C773 1.387 . S
C774 C777 1.387 . S
H775 C771 0.950 . S
H776 C773 0.950 . S
C777 C768 1.390 . S
C777 H770 0.950 . S
C777 C774 1.387 . S
C778 C779 1.387 . S
C778 H782 0.950 . S
C778 C787 1.390 . S
C779 C778 1.387 . S
C779 C781 1.387 . S
H780 C787 0.950 . S
C781 C779 1.387 . S
C781 C783 1.390 . S
C781 H785 0.950 . S
H782 C778 0.950 . S
C783 C781 1.390 . S
C783 C784 1.387 . S
C783 H786 0.950 . S
C784 C783 1.387 . S
C784 C787 1.387 . S
H785 C781 0.950 . S
H786 C783 0.950 . S
C787 C778 1.390 . S
C787 H780 0.950 . S
C787 C784 1.387 . S
C788 C789 1.387 . S
C788 H792 0.950 . S
C788 C797 1.390 . S
C789 C788 1.387 . S
C789 C791 1.387 . S
H790 C797 0.950 . S
C791 C789 1.387 . S
C791 C793 1.390 . S
C791 H795 0.950 . S
H792 C788 0.950 . S
C793 C791 1.390 . S
C793 C794 1.387 . S
C793 H796 0.950 . S
C794 C793 1.387 . S
C794 C797 1.387 . S
H795 C791 0.950 . S
H796 C793 0.950 . S
C797 C788 1.390 . S
C797 H790 0.950 . S
C797 C794 1.387 . S
C798 C799 1.387 . S
C798 H802 0.950 . S
C798 C807 1.390 . S
C799 C798 1.387 . S
C799 C801 1.387 . S
H800 C807 0.950 . S
C801 C799 1.387 . S
C801 C803 1.390 . S
C801 H805 0.950 . S
H802 C798 0.950 . S
C803 C801 1.390 . S
C803 C804 1.387 . S
C803 H806 0.950 . S
C804 C803 1.387 . S
C804 C807 1.387 . S
H805 C801 0.950 . S
H806 C803 0.950 . S
C807 C798 1.390 . S
C807 H800 0.950 . S
C807 C804 1.387 . S
C808 C809 1.387 . S
C808 H812 0.950 . S
C808 C817 1.390 . S
C809 C808 1.387 . S
C809 C811 1.387 . S
H810 C817 0.950 . S
C811 C809 1.387 . S
C811 C813 1.390 . S
C811 H815 0.950 . S
H812 C808 0.950 . S
C813 C811 1.390 . S
C813 C814 1.387 . S
C813 H816 0.950 . S
C814 C813 1.387 . S
C814 C817 1.387 . S
H815 C811 0.950 . S
H816 C813 0.950 . S
C817 C808 1.390 . S
C817 H810 0.950 . S
C817 C814 1.387 . S
C818 C819 1.387 . S
C818 H822 0.950 . S
C818 C827 1.390 . S
C819 C818 1.387 . S
C819 C821 1.387 . S
H820 C827 0.950 . S
C821 C819 1.387 . S
C821 C823 1.390 . S
C821 H825 0.950 . S
H822 C818 0.950 . S
C823 C821 1.390 . S
C823 C824 1.387 . S
C823 H826 0.950 . S
C824 C823 1.387 . S
C824 C827 1.387 . S
H825 C821 0.950 . S
H826 C823 0.950 . S
C827 C818 1.390 . S
C827 H820 0.950 . S
C827 C824 1.387 . S
C828 C829 1.387 . S
C828 H832 0.950 . S
C828 C837 1.390 . S
C829 C828 1.387 . S
C829 C831 1.387 . S
H830 C837 0.950 . S
C831 C829 1.387 . S
C831 C833 1.390 . S
C831 H835 0.950 . S
H832 C828 0.950 . S
C833 C831 1.390 . S
C833 C834 1.387 . S
C833 H836 0.950 . S
C834 C833 1.387 . S
C834 C837 1.387 . S
H835 C831 0.950 . S
H836 C833 0.950 . S
C837 C828 1.390 . S
C837 H830 0.950 . S
C837 C834 1.387 . S
C838 C839 1.387 . S
C838 H842 0.950 . S
C838 C847 1.390 . S
C839 C838 1.387 . S
C839 C841 1.387 . S
H840 C847 0.950 . S
C841 C839 1.387 . S
C841 C843 1.390 . S
C841 H845 0.950 . S
H842 C838 0.950 . S
C843 C841 1.390 . S
C843 C844 1.387 . S
C843 H846 0.950 . S
C844 C843 1.387 . S
C844 C847 1.387 . S
H845 C841 0.950 . S
H846 C843 0.950 . S
C847 C838 1.390 . S
C847 H840 0.950 . S
C847 C844 1.387 . S
C369 C16 1.220 . S
C374 C177 1.220 . S
C379 C108 1.217 . S
C384 C39 1.217 . S
C389 C131 1.220 . S
C394 C62 1.220 . S
C399 C85 1.218 . S
C404 C154 1.218 . S
C409 C362 1.209 . S
C414 C200 1.213 . S
C419 C292 1.218 . S
C424 C223 1.218 . S
C429 C315 1.220 . S
C434 C246 1.220 . S
C439 C338 1.222 . S
C444 C269 1.222 . S
C449 C20 1.280 . S
C454 C366 1.270 . S
C459 C43 1.271 . S
C464 C296 1.268 . S
C469 C66 1.263 . S
C474 C319 1.265 . S
C479 C342 1.260 . S
C484 C89 1.262 . S
C489 C227 1.263 . S
C494 C112 1.265 . S
C499 C135 1.267 . S
C504 C250 1.265 . S
C509 C273 1.262 . S
C514 C158 1.264 . S
C519 C181 1.248 . S
C524 C204 1.250 . S
C529 C294 1.603 . S
C534 C17 1.604 . S
C539 C40 1.605 . S
C544 C317 1.605 . S
C549 C340 1.601 . S
C554 C63 1.602 . S
C559 C364 1.630 . S
C564 C86 1.626 . S
C569 C109 1.613 . S
C574 C202 1.612 . S
C579 C132 1.604 . S
C584 C225 1.604 . S
C589 C155 1.608 . S
C594 C248 1.607 . S
C599 C271 1.601 . S
C604 C178 1.602 . S
C609 C201 1.602 . S
C614 C110 1.602 . S
C619 C224 1.604 . S
C624 C133 1.603 . S
C629 C156 1.597 . S
C634 C247 1.599 . S
C639 C270 1.606 . S
C644 C179 1.604 . S
C649 C293 1.608 . S
C654 C18 1.608 . S
C659 C316 1.604 . S
C664 C41 1.603 . S
C669 C64 1.603 . S
C674 C339 1.604 . S
C679 C87 1.654 . S
C684 C361 1.646 . S
C689 C19 1.603 . S
C694 C228 1.569 . S
C699 C251 1.573 . S
C704 C42 1.606 . S
C709 C65 1.599 . S
C714 C274 1.565 . S
C719 C88 1.618 . S
C724 C205 1.584 . S
C729 C111 1.582 . S
C734 C365 1.605 . S
C739 C134 1.602 . S
C744 C297 1.569 . S
C749 C157 1.604 . S
C754 C320 1.569 . S
C759 C343 1.568 . S
C764 C180 1.601 . S
C769 C44 1.575 . S
C774 C203 1.608 . S
C779 C67 1.565 . S
C784 C226 1.600 . S
C789 C249 1.605 . S
C794 C90 1.572 . S
C799 C272 1.601 . S
C804 C21 1.566 . S
C809 C182 1.565 . S
C814 C295 1.599 . S
C819 C113 1.565 . S
C824 C318 1.600 . S
C829 C136 1.568 . S
C834 C341 1.601 . S
C839 C159 1.569 . S
C844 C363 1.652 . S
