# Generated by pormake.
# Topology ukg, (4)-cn, num edge types: 1
# Building blocks:
#     Node 0, Type 0, BuildingBlock: CEKHIL_clean_sbu_0, # of connection points: 4
#     Node 1, Type 0, BuildingBlock: CEKHIL_clean_sbu_0, # of connection points: 4
#     Node 2, Type 0, BuildingBlock: CEKHIL_clean_sbu_0, # of connection points: 4
#     Node 3, Type 0, BuildingBlock: CEKHIL_clean_sbu_0, # of connection points: 4
#     Node 4, Type 0, BuildingBlock: CEKHIL_clean_sbu_0, # of connection points: 4
#     Node 5, Type 0, BuildingBlock: CEKHIL_clean_sbu_0, # of connection points: 4
#     Node 6, Type 0, BuildingBlock: CEKHIL_clean_sbu_0, # of connection points: 4
#     Node 7, Type 0, BuildingBlock: CEKHIL_clean_sbu_0, # of connection points: 4
#     Edge 8, Type (0, 0), BuildingBlock: FUNLAD_clean_linker_1, # of connection points: 2
#     Edge 9, Type (0, 0), BuildingBlock: FUNLAD_clean_linker_1, # of connection points: 2
#     Edge 10, Type (0, 0), BuildingBlock: FUNLAD_clean_linker_1, # of connection points: 2
#     Edge 11, Type (0, 0), BuildingBlock: FUNLAD_clean_linker_1, # of connection points: 2
#     Edge 12, Type (0, 0), BuildingBlock: FUNLAD_clean_linker_1, # of connection points: 2
#     Edge 13, Type (0, 0), BuildingBlock: FUNLAD_clean_linker_1, # of connection points: 2
#     Edge 14, Type (0, 0), BuildingBlock: FUNLAD_clean_linker_1, # of connection points: 2
#     Edge 15, Type (0, 0), BuildingBlock: FUNLAD_clean_linker_1, # of connection points: 2
#     Edge 16, Type (0, 0), BuildingBlock: FUNLAD_clean_linker_1, # of connection points: 2
#     Edge 17, Type (0, 0), BuildingBlock: FUNLAD_clean_linker_1, # of connection points: 2
#     Edge 18, Type (0, 0), BuildingBlock: FUNLAD_clean_linker_1, # of connection points: 2
#     Edge 19, Type (0, 0), BuildingBlock: FUNLAD_clean_linker_1, # of connection points: 2
#     Edge 20, Type (0, 0), BuildingBlock: FUNLAD_clean_linker_1, # of connection points: 2
#     Edge 21, Type (0, 0), BuildingBlock: FUNLAD_clean_linker_1, # of connection points: 2
#     Edge 22, Type (0, 0), BuildingBlock: FUNLAD_clean_linker_1, # of connection points: 2
#     Edge 23, Type (0, 0), BuildingBlock: FUNLAD_clean_linker_1, # of connection points: 2
# Relax obj value: 0.123
# Max RMSD: 0.207
# Mean RMSD: 0.202
data_MOF--net-ukg--node1-CEKHIL_clean_sbu_0--edge1-FUNLAD_clean_linker_1
_symmetry_space_group_name_H-M    P1
_symmetry_Int_Tables_number       1
_symmetry_cell_setting            triclinic
loop_
_symmetry_equiv_pos_as_xyz
'x, y, z'
_cell_length_a     31.536632
_cell_length_b     30.892677
_cell_length_c     39.118188
_cell_angle_alpha  90.065202
_cell_angle_beta   90.002952
_cell_angle_gamma 89.496126
loop_
_atom_site_label
_atom_site_type_symbol
_atom_site_fract_x
_atom_site_fract_y
_atom_site_fract_z
_atom_type_partial_charge
Co0 Co 0.04102 0.61901 0.16689 0.0
O1 O 0.05129 0.5693 0.13837 0.0
O2 O 0.03027 0.63335 0.11927 0.0
C3 C 1.00132 0.58529 0.20663 0.0
O4 O 0.02534 0.67655 0.18956 0.0
Co5 Co 0.07799 0.61769 0.24089 0.0
O6 O 0.04532 0.67253 0.24495 0.0
C7 C 0.13425 0.63756 0.18327 0.0
C8 C 0.03935 0.593 0.11274 0.0
C9 C 0.02748 0.69215 0.2201 0.0
O10 O 0.10228 0.63784 0.16272 0.0
O11 O 0.13185 0.62592 0.21456 0.0
O12 O 0.98469 0.59786 0.17794 0.0
O13 O 0.04209 0.58832 0.20848 0.0
Co14 Co 0.34063 0.50947 0.62355 0.0
O15 O 0.39208 0.5223 0.59944 0.0
O16 O 0.33379 0.49766 0.57501 0.0
C17 C 0.37102 0.47125 0.66581 0.0
O18 O 0.28277 0.49055 0.64191 0.0
Co19 Co 0.33031 0.54796 0.69697 0.0
O20 O 0.27971 0.51034 0.69747 0.0
C21 C 0.32011 0.60448 0.63734 0.0
C22 C 0.37338 0.50873 0.57203 0.0
C23 C 0.26425 0.49128 0.67137 0.0
O24 O 0.31943 0.57112 0.61762 0.0
O25 O 0.3291 0.60245 0.66922 0.0
O26 O 0.36375 0.45316 0.63652 0.0
O27 O 0.36484 0.5126 0.66713 0.0
Co28 Co 0.48416 0.85452 0.12858 0.0
O29 O 0.47 0.90873 0.10734 0.0
O30 O 0.4881 0.84918 0.0792 0.0
C31 C 0.52919 0.88225 0.1674 0.0
O32 O 0.50288 0.79351 0.14228 0.0
Co33 Co 0.46057 0.83947 0.20463 0.0
O34 O 0.49921 0.78903 0.19962 0.0
C35 C 0.3956 0.8264 0.15127 0.0
C36 C 0.47847 0.89022 0.07836 0.0
C37 C 0.50981 0.7735 0.17061 0.0
O38 O 0.42279 0.83582 0.12794 0.0
O39 O 0.40377 0.82832 0.18332 0.0
O40 O 0.54159 0.87426 0.13647 0.0
O41 O 0.48905 0.87767 0.17318 0.0
Co42 Co 0.15881 0.00403 0.63703 0.0
O43 O 0.1089 0.98611 0.61272 0.0
O44 O 0.16306 0.01993 0.5891 0.0
C45 C 0.12473 0.03439 0.68157 0.0
O46 O 0.21413 0.0296 0.65538 0.0
Co47 Co 0.17724 0.96438 0.70908 0.0
O48 O 0.21525 0.0152 0.71197 0.0
C49 C 0.19285 0.91246 0.64703 0.0
C50 C 0.12529 0.00376 0.58581 0.0
C51 C 0.22917 0.035 0.68576 0.0
O52 O 0.1875 0.94618 0.62815 0.0
O53 O 0.18612 0.91216 0.67932 0.0
O54 O 0.12889 0.05568 0.65319 0.0
O55 O 0.13663 0.99437 0.68066 0.0
Co56 Co 0.96778 0.31499 0.86846 0.0
O57 O 0.92856 0.28682 0.89833 0.0
O58 O 0.91233 0.3434 0.86612 0.0
C59 C 0.99166 0.25379 0.84374 0.0
O60 O 1.00142 0.35016 0.83323 0.0
Co61 Co 0.06403 0.29497 0.87725 0.0
O62 O 0.06517 0.31698 0.82969 0.0
C63 C 0.02209 0.35735 0.92388 0.0
C64 C 0.89985 0.31323 0.88704 0.0
C65 C 0.03726 0.34322 0.81808 0.0
O66 O 0.98723 0.35434 0.90682 0.0
O67 O 0.05517 0.33439 0.91756 0.0
O68 O 0.95681 0.27192 0.83343 0.0
O69 O 0.00861 0.27038 0.87082 0.0
Co70 Co 0.64365 0.46964 0.33754 0.0
O71 O 0.59273 0.45436 0.36138 0.0
O72 O 0.65309 0.47123 0.38668 0.0
C73 C 0.61274 0.51756 0.30194 0.0
O74 O 0.70164 0.48904 0.3201 0.0
Co75 Co 0.64953 0.44796 0.25982 0.0
O76 O 0.69735 0.48923 0.2625 0.0
C77 C 0.66368 0.37895 0.31051 0.0
C78 C 0.61311 0.46158 0.38951 0.0
C79 C 0.71636 0.49854 0.29027 0.0
O80 O 0.66246 0.40695 0.33491 0.0
O81 O 0.65516 0.388 0.27932 0.0
O82 O 0.62298 0.5288 0.33273 0.0
O83 O 0.6169 0.47684 0.29491 0.0
Co84 Co 0.5143 0.22154 0.87451 0.0
O85 O 0.55202 0.25049 0.90541 0.0
O86 O 0.57261 0.20316 0.86616 0.0
C87 C 0.4785 0.28159 0.85876 0.0
O88 O 0.48378 0.18759 0.83691 0.0
Co89 Co 0.41711 0.22311 0.88929 0.0
O90 O 0.41401 0.20305 0.84123 0.0
C91 C 0.47268 0.16208 0.92678 0.0
C92 C 0.58286 0.23107 0.88969 0.0
C93 C 0.44545 0.18623 0.82538 0.0
O94 O 0.50483 0.17294 0.90839 0.0
O95 O 0.43639 0.18079 0.925 0.0
O96 O 0.5146 0.27182 0.84472 0.0
O97 O 0.46737 0.25751 0.8841 0.0
Co98 Co 0.85255 0.00981 0.34823 0.0
O99 O 0.90598 0.01995 0.37039 0.0
O100 O 0.84468 0.01432 0.39743 0.0
C101 C 0.87508 0.95508 0.31471 0.0
O102 O 0.79186 0.99728 0.33322 0.0
Co103 Co 0.84653 0.02593 0.27 0.0
O104 O 0.79126 0.99646 0.2756 0.0
C105 C 0.84332 0.1001 0.31687 0.0
C106 C 0.88562 0.01911 0.39912 0.0
C107 C 0.77324 0.99045 0.30441 0.0
O108 O 0.84205 0.07412 0.34256 0.0
O109 O 0.84956 0.08758 0.2861 0.0
O110 O 0.86438 0.94799 0.34617 0.0
O111 O 0.8767 0.99524 0.30561 0.0
H112 H 0.05487 0.38936 0.96658 0.0
C113 C 0.02581 0.38973 0.95159 0.0
H114 H 0.96688 0.42153 0.94385 0.0
H115 H 0.97086 0.49501 0.09676 0.0
H116 H 0.91415 0.44271 0.10075 0.0
H117 H 0.89757 0.39467 0.05222 0.0
H118 H 0.93753 0.39875 0.99932 0.0
C119 C 0.99651 0.42057 0.95801 0.0
C120 C 0.00347 0.45298 0.98578 0.0
C121 C 0.97956 0.45056 0.01634 0.0
C122 C 0.9895 0.47794 0.04447 0.0
C123 C 0.96516 0.47457 0.07478 0.0
C124 C 0.93239 0.44481 0.07737 0.0
C125 C 0.92302 0.4178 0.05004 0.0
C126 C 0.94623 0.42047 0.01983 0.0
H127 H 0.01994 0.59385 0.05816 0.0
C128 C 0.03237 0.57359 0.07858 0.0
H129 H 0.04827 0.51035 0.09458 0.0
H130 H 0.05009 0.47152 0.92881 0.0
H131 H 0.10656 0.52415 0.92448 0.0
H132 H 0.12634 0.56902 0.9741 0.0
H133 H 0.08943 0.56205 0.02816 0.0
C134 C 0.03762 0.53071 0.07357 0.0
C135 C 0.02339 0.50774 0.04206 0.0
C136 C 0.04584 0.5118 0.01082 0.0
C137 C 0.03541 0.48483 0.98251 0.0
C138 C 0.05759 0.49025 0.95137 0.0
C139 C 0.0899 0.52048 0.94849 0.0
C140 C 0.10097 0.54582 0.97641 0.0
C141 C 0.0794 0.54159 0.00729 0.0
H142 H 0.38097 0.49085 0.51735 0.0
C143 C 0.39753 0.50227 0.53994 0.0
H144 H 0.45673 0.51637 0.56241 0.0
H145 H 0.57031 0.4005 0.4672 0.0
H146 H 0.57162 0.35903 0.51976 0.0
H147 H 0.52513 0.37889 0.5681 0.0
H148 H 0.47681 0.44012 0.56409 0.0
C149 C 0.44002 0.50692 0.53931 0.0
C150 C 0.46673 0.4944 0.50933 0.0
C151 C 0.49536 0.45882 0.5122 0.0
C152 C 0.52257 0.44758 0.48443 0.0
C153 C 0.54967 0.41104 0.4877 0.0
C154 C 0.55059 0.38679 0.51769 0.0
C155 C 0.5244 0.39796 0.5449 0.0
C156 C 0.49693 0.43336 0.54229 0.0
H157 H 0.60739 0.47418 0.44522 0.0
C158 C 0.59018 0.46429 0.4225 0.0
H159 H 0.53048 0.45143 0.40053 0.0
H160 H 0.41836 0.56658 0.49622 0.0
H161 H 0.41756 0.60847 0.44391 0.0
H162 H 0.46421 0.58878 0.39564 0.0
H163 H 0.51213 0.52726 0.39946 0.0
C164 C 0.54771 0.4596 0.42369 0.0
C165 C 0.52153 0.47229 0.45393 0.0
C166 C 0.49314 0.50809 0.45117 0.0
C167 C 0.4659 0.51928 0.47891 0.0
C168 C 0.43901 0.55602 0.47574 0.0
C169 C 0.4384 0.58054 0.44589 0.0
C170 C 0.46466 0.56947 0.41872 0.0
C171 C 0.49188 0.53387 0.42121 0.0
H172 H 0.49213 0.90012 0.02326 0.0
C173 C 0.48196 0.91603 0.04668 0.0
H174 H 0.46872 0.97523 0.0715 0.0
H175 H 0.57111 0.10591 0.98731 0.0
H176 H 0.61595 0.09838 0.0375 0.0
H177 H 0.60376 0.03996 0.07923 0.0
H178 H 0.5466 0.98884 0.07117 0.0
C179 C 0.47698 0.95936 0.04756 0.0
C180 C 0.48899 0.98836 0.0188 0.0
C181 C 0.52323 0.01735 0.02343 0.0
C182 C 0.53062 0.05076 0.99921 0.0
C183 C 0.56427 0.07991 0.00493 0.0
C184 C 0.59026 0.0759 0.03357 0.0
C185 C 0.58337 0.04303 0.05709 0.0
C186 C 0.55032 0.01402 0.05222 0.0
H187 H 0.44938 0.11973 0.9676 0.0
C188 C 0.4757 0.12466 0.95008 0.0
H189 H 0.53329 0.09803 0.93126 0.0
H190 H 0.42212 0.93689 0.00086 0.0
H191 H 0.38092 0.94149 0.94864 0.0
H192 H 0.39644 0.99705 0.90523 0.0
H193 H 0.45293 0.04883 0.91413 0.0
C194 C 0.50653 0.09444 0.94848 0.0
C195 C 0.50386 0.05509 0.97039 0.0
C196 C 0.47203 0.02383 0.96418 0.0
C197 C 0.46408 0.99082 0.98868 0.0
C198 C 0.43038 0.9618 0.98274 0.0
C199 C 0.40635 0.96419 0.95289 0.0
C200 C 0.415 0.99554 0.92849 0.0
C201 C 0.44735 0.02517 0.93397 0.0
H202 H 0.891 0.01596 0.45567 0.0
C203 C 0.90872 0.01978 0.43207 0.0
H204 H 0.96928 0.02577 0.40939 0.0
H205 H 0.05999 0.08356 0.54688 0.0
H206 H 0.04587 0.15452 0.52299 0.0
H207 H 1.00036 0.16317 0.47213 0.0
H208 H 0.96817 0.10077 0.44512 0.0
C209 C 0.95141 0.02155 0.43288 0.0
C210 C 0.9765 0.01644 0.46495 0.0
C211 C 0.99599 0.05296 0.47999 0.0
C212 C 0.02311 0.04779 0.50888 0.0
C213 C 0.04037 0.08524 0.52426 0.0
C214 C 0.03226 0.1263 0.51094 0.0
C215 C 0.00659 0.13118 0.48233 0.0
C216 C 0.98845 0.09509 0.46701 0.0
H217 H 0.11614 0.02058 0.53113 0.0
C218 C 0.10056 0.00814 0.55381 0.0
H219 H 0.04319 0.9871 0.57582 0.0
H220 H 0.94494 0.9394 0.4419 0.0
H221 H 0.9589 0.86829 0.46564 0.0
H222 H 0.00623 0.85913 0.51536 0.0
H223 H 0.04007 0.92104 0.54153 0.0
C224 C 0.05865 0.99983 0.55317 0.0
C225 C 0.03164 0.00581 0.52213 0.0
C226 C 0.01171 0.96932 0.50725 0.0
C227 C 0.98425 0.97461 0.47862 0.0
C228 C 0.96566 0.93741 0.46388 0.0
C229 C 0.97348 0.89632 0.4772 0.0
C230 C 1.00012 0.89117 0.50519 0.0
C231 C 0.01921 0.92705 0.52006 0.0
H232 H 0.20213 0.65131 0.18914 0.0
C233 C 0.17505 0.65614 0.17229 0.0
H234 H 0.15063 0.69241 0.13096 0.0
H235 H 0.27076 0.84927 0.16836 0.0
H236 H 0.20051 0.88009 0.17745 0.0
H237 H 0.13668 0.83511 0.17143 0.0
H238 H 0.14255 0.75925 0.15623 0.0
C239 C 0.17817 0.68489 0.14662 0.0
C240 C 0.21607 0.71345 0.14437 0.0
C241 C 0.21191 0.75807 0.15263 0.0
C242 C 0.24872 0.78399 0.15648 0.0
C243 C 0.24379 0.82815 0.16543 0.0
C244 C 0.2037 0.84625 0.17064 0.0
C245 C 0.16776 0.82092 0.16721 0.0
C246 C 0.17161 0.77735 0.15842 0.0
H247 H 0.34724 0.80693 0.11316 0.0
C248 C 0.35429 0.80854 0.14033 0.0
H249 H 0.33444 0.791 0.19003 0.0
H250 H 0.23461 0.63172 0.12199 0.0
H251 H 0.30491 0.60106 0.11261 0.0
H252 H 0.36887 0.64506 0.12167 0.0
H253 H 0.36302 0.72006 0.1396 0.0
C254 C 0.32771 0.79 0.1628 0.0
C255 C 0.28955 0.76539 0.15207 0.0
C256 C 0.29361 0.72152 0.14169 0.0
C257 C 0.25679 0.69572 0.13741 0.0
C258 C 0.26166 0.65226 0.12652 0.0
C259 C 0.30176 0.63438 0.12087 0.0
C260 C 0.33777 0.65919 0.1259 0.0
C261 C 0.33395 0.70225 0.1362 0.0
H262 H 0.27595 0.64506 0.60744 0.0
C263 C 0.3032 0.64601 0.62442 0.0
H264 H 0.34343 0.68378 0.65464 0.0
H265 H 0.20517 0.82122 0.57748 0.0
H266 H 0.23088 0.79383 0.52309 0.0
H267 H 0.28488 0.73562 0.52083 0.0
H268 H 0.31249 0.70351 0.57296 0.0
C269 C 0.31583 0.68376 0.63798 0.0
C270 C 0.28777 0.72294 0.63836 0.0
C271 C 0.274 0.74318 0.60768 0.0
C272 C 0.24493 0.77876 0.60903 0.0
C273 C 0.22895 0.79581 0.57799 0.0
C274 C 0.2432 0.78014 0.54658 0.0
C275 C 0.27345 0.74722 0.5453 0.0
C276 C 0.28879 0.72884 0.57541 0.0
H277 H 0.23914 0.87753 0.61464 0.0
C278 C 0.21262 0.87341 0.63203 0.0
H279 H 0.17566 0.83089 0.6609 0.0
H280 H 0.3052 0.69028 0.70244 0.0
H281 H 0.28432 0.72141 0.7565 0.0
H282 H 0.24121 0.78828 0.75885 0.0
H283 H 0.21796 0.82368 0.7071 0.0
C284 C 0.20258 0.8339 0.64371 0.0
C285 C 0.2322 0.79609 0.64109 0.0
C286 C 0.24746 0.77694 0.67178 0.0
C287 C 0.2742 0.7397 0.67042 0.0
C288 C 0.28643 0.71969 0.70161 0.0
C289 C 0.27442 0.73706 0.73303 0.0
C290 C 0.25004 0.77457 0.73435 0.0
C291 C 0.23666 0.79441 0.70426 0.0
H292 H 0.63022 0.27466 0.91131 0.0
C293 C 0.62663 0.24613 0.89531 0.0
H294 H 0.65708 0.20226 0.86216 0.0
H295 H 0.80771 0.31798 0.81414 0.0
H296 H 0.77278 0.29931 0.76128 0.0
H297 H 0.70445 0.2612 0.76152 0.0
H298 H 0.67118 0.24064 0.81462 0.0
C299 C 0.66077 0.22993 0.87902 0.0
C300 C 0.7023 0.2534 0.8794 0.0
C301 C 0.72068 0.26682 0.84802 0.0
C302 C 0.75937 0.29043 0.84791 0.0
C303 C 0.7779 0.3012 0.81604 0.0
C304 C 0.75821 0.29056 0.78534 0.0
C305 C 0.71981 0.26903 0.78547 0.0
C306 C 0.70112 0.25725 0.81628 0.0
H307 H 0.8493 0.27456 0.90929 0.0
C308 C 0.85498 0.30332 0.89402 0.0
H309 H 0.82741 0.3507 0.86234 0.0
H310 H 0.68146 0.22618 0.94399 0.0
H311 H 0.7125 0.2508 0.99718 0.0
H312 H 0.77175 0.30243 0.99708 0.0
H313 H 0.80151 0.32809 0.94368 0.0
C314 C 0.82188 0.32301 0.87878 0.0
C315 C 0.77892 0.30235 0.87924 0.0
C316 C 0.75925 0.29092 0.91061 0.0
C317 C 0.7225 0.26439 0.91069 0.0
C318 C 0.70715 0.24902 0.94243 0.0
C319 C 0.72501 0.2625 0.97317 0.0
C320 C 0.75853 0.29134 0.97311 0.0
C321 C 0.77557 0.30548 0.94229 0.0
H322 H 0.66443 0.30803 0.30447 0.0
C323 C 0.67943 0.33486 0.31762 0.0
H324 H 0.73216 0.35549 0.34624 0.0
H325 H 0.79721 0.17667 0.40288 0.0
H326 H 0.78202 0.21652 0.45495 0.0
H327 H 0.74563 0.28746 0.45295 0.0
H328 H 0.72474 0.31933 0.39886 0.0
C329 C 0.71641 0.32832 0.33411 0.0
C330 C 0.73801 0.28499 0.33514 0.0
C331 C 0.7492 0.26629 0.36704 0.0
C332 C 0.76926 0.22478 0.36826 0.0
C333 C 0.78119 0.20763 0.40046 0.0
C334 C 0.77275 0.2302 0.43057 0.0
C335 C 0.75232 0.27018 0.42944 0.0
C336 C 0.74058 0.28815 0.39817 0.0
H337 H 0.84723 0.17 0.30604 0.0
C338 C 0.8317 0.14597 0.32186 0.0
H339 H 0.78005 0.1326 0.35426 0.0
H340 H 0.73284 0.31555 0.26917 0.0
H341 H 0.74216 0.2736 0.2174 0.0
H342 H 0.76298 0.19651 0.22008 0.0
H343 H 0.77678 0.16186 0.27437 0.0
C344 C 0.79646 0.157 0.33938 0.0
C345 C 0.77698 0.20129 0.33766 0.0
C346 C 0.76465 0.21955 0.30576 0.0
C347 C 0.74791 0.26245 0.3044 0.0
C348 C 0.74178 0.2819 0.27195 0.0
C349 C 0.74758 0.25833 0.24193 0.0
C350 C 0.75963 0.21508 0.24342 0.0
C351 C 0.76804 0.19574 0.27486 0.0
H352 H 0.76463 0.53335 0.26142 0.0
C353 C 0.75762 0.51997 0.28651 0.0
H354 H 0.78358 0.50399 0.3348 0.0
H355 H 0.956 0.49016 0.24721 0.0
H356 H 0.94743 0.41631 0.26659 0.0
H357 H 0.88628 0.39592 0.30227 0.0
H358 H 0.83309 0.44947 0.31856 0.0
C359 C 0.78834 0.51966 0.31028 0.0
C360 C 0.83138 0.53466 0.3002 0.0
C361 C 0.86341 0.50369 0.29259 0.0
C362 C 0.89908 0.51569 0.27248 0.0
C363 C 0.92883 0.48326 0.26302 0.0
C364 C 0.9242 0.44061 0.27389 0.0
C365 C 0.88974 0.42911 0.29394 0.0
C366 C 0.85945 0.46009 0.30308 0.0
H367 H 0.98981 0.56373 0.25997 0.0
C368 C 0.97478 0.5718 0.23578 0.0
H369 H 0.91758 0.5796 0.20857 0.0
H370 H 0.78085 0.60317 0.31759 0.0
H371 H 0.791 0.67841 0.30115 0.0
H372 H 0.85286 0.69967 0.26661 0.0
H373 H 0.90523 0.64604 0.24855 0.0
C374 C 0.93238 0.57 0.23252 0.0
C375 C 0.90297 0.55902 0.26092 0.0
C376 C 0.87348 0.5909 0.27213 0.0
C377 C 0.83771 0.5787 0.29186 0.0
C378 C 0.80824 0.61094 0.30214 0.0
C379 C 0.81383 0.65411 0.29305 0.0
C380 C 0.84872 0.66609 0.27364 0.0
C381 C 0.87836 0.63501 0.26328 0.0
H382 H 0.39553 0.41259 0.69039 0.0
C383 C 0.38347 0.44507 0.6954 0.0
H384 H 0.36695 0.49111 0.73319 0.0
H385 H 0.39623 0.2894 0.79712 0.0
H386 H 0.33237 0.27086 0.76619 0.0
H387 H 0.29471 0.32537 0.73124 0.0
H388 H 0.32091 0.39894 0.72712 0.0
C389 C 0.37895 0.45876 0.72776 0.0
C390 C 0.39311 0.43046 0.75638 0.0
C391 C 0.37605 0.38835 0.7601 0.0
C392 C 0.39692 0.35742 0.7812 0.0
C393 C 0.38101 0.31469 0.7824 0.0
C394 C 0.34445 0.30349 0.76457 0.0
C395 C 0.3233 0.33414 0.74483 0.0
C396 C 0.33878 0.37612 0.74251 0.0
H397 H 0.41993 0.32157 0.85658 0.0
C398 C 0.45027 0.31503 0.84437 0.0
H399 H 0.49195 0.33034 0.80407 0.0
H400 H 0.42888 0.51091 0.75994 0.0
H401 H 0.48858 0.53165 0.79528 0.0
H402 H 0.52333 0.47867 0.83351 0.0
H403 H 0.49862 0.40449 0.83645 0.0
C404 C 0.46115 0.3361 0.81577 0.0
C405 C 0.43373 0.36947 0.79961 0.0
C406 C 0.44769 0.41293 0.79895 0.0
C407 C 0.42735 0.44355 0.77727 0.0
C408 C 0.44296 0.48636 0.77614 0.0
C409 C 0.47721 0.49872 0.79632 0.0
C410 C 0.4968 0.46888 0.81782 0.0
C411 C 0.48241 0.42642 0.81917 0.0
H412 H 0.59346 0.89371 0.18602 0.0
C413 C 0.56027 0.89443 0.19361 0.0
H414 H 0.51717 0.91123 0.23307 0.0
H415 H 0.71573 0.8888 0.29421 0.0
H416 H 0.70012 0.81191 0.29354 0.0
H417 H 0.63102 0.78566 0.27279 0.0
H418 H 0.57711 0.83632 0.25237 0.0
C419 C 0.55006 0.90814 0.22513 0.0
C420 C 0.58456 0.92393 0.2478 0.0
C421 C 0.61488 0.89429 0.26104 0.0
C422 C 0.65444 0.90951 0.27344 0.0
C423 C 0.68504 0.879 0.2848 0.0
C424 C 0.67645 0.83481 0.28456 0.0
C425 C 0.63755 0.82001 0.27285 0.0
C426 C 0.60701 0.84928 0.26111 0.0
H427 H 0.7135 0.968 0.32863 0.0
C428 C 0.72889 0.97504 0.30444 0.0
H429 H 0.72245 0.97776 0.25071 0.0
H430 H 0.52978 0.98934 0.23067 0.0
H431 H 0.54373 0.06657 0.23414 0.0
H432 H 0.61218 0.09311 0.256 0.0
H433 H 0.66718 0.04259 0.27454 0.0
C434 C 0.70766 0.96959 0.27492 0.0
C435 C 0.66317 0.95442 0.27289 0.0
C436 C 0.63091 0.98424 0.26338 0.0
C437 C 0.59142 0.96897 0.25094 0.0
C438 C 0.56032 0.99939 0.24033 0.0
C439 C 0.5679 0.0437 0.24225 0.0
C440 C 0.60646 0.05866 0.25455 0.0
C441 C 0.63776 0.0294 0.26498 0.0
H442 H 0.99444 0.20911 0.80052 0.0
C443 C 0.01165 0.2197 0.8231 0.0
H444 H 0.06862 0.21388 0.85131 0.0
H445 H 0.03619 0.05246 0.73743 0.0
H446 H 0.98105 0.0294 0.77612 0.0
H447 H 0.96692 0.06921 0.8297 0.0
H448 H 0.00735 0.13331 0.8442 0.0
C449 C 0.04997 0.20258 0.82977 0.0
C450 C 0.06854 0.17093 0.80517 0.0
C451 C 0.04719 0.13165 0.79843 0.0
C452 C 0.05727 0.10718 0.76871 0.0
C453 C 0.03195 0.07088 0.76067 0.0
C454 C 0.99976 0.05748 0.78254 0.0
C455 C 0.99166 0.08 0.81261 0.0
C456 C 0.01488 0.11679 0.82052 0.0
H457 H 0.11538 0.03726 0.7374 0.0
C458 C 0.11307 0.05577 0.71385 0.0
H459 H 0.09948 0.11618 0.69126 0.0
H460 H 0.11914 0.24176 0.81343 0.0
H461 H 0.17897 0.26161 0.77789 0.0
H462 H 0.20035 0.21624 0.7288 0.0
H463 H 0.1616 0.15115 0.71455 0.0
C464 C 0.10044 0.09733 0.7147 0.0
C465 C 0.09117 0.12035 0.74731 0.0
C466 C 0.11525 0.15738 0.75605 0.0
C467 C 0.10363 0.18298 0.78484 0.0
C468 C 0.1269 0.22092 0.79205 0.0
C469 C 0.16135 0.23267 0.7719 0.0
C470 C 0.17336 0.20714 0.74423 0.0
C471 C 0.15073 0.16993 0.73627 0.0
H472 H 0.04097 0.4043 0.78863 0.0
C473 C 0.05031 0.37037 0.78883 0.0
H474 H 0.08864 0.3213 0.76749 0.0
H475 H 0.13632 0.48694 0.66522 0.0
H476 H 0.06348 0.48422 0.64492 0.0
H477 H 0.01175 0.4354 0.67182 0.0
H478 H 0.03233 0.3892 0.71941 0.0
C479 C 0.07996 0.35546 0.76681 0.0
C480 C 0.11042 0.38477 0.74944 0.0
C481 C 0.09804 0.41101 0.72139 0.0
C482 C 0.12811 0.43872 0.70549 0.0
C483 C 0.11479 0.46517 0.67797 0.0
C484 C 0.07315 0.46387 0.66609 0.0
C485 C 0.04399 0.43639 0.68127 0.0
C486 C 0.05613 0.41014 0.70859 0.0
H487 H 0.2175 0.44015 0.65891 0.0
C488 C 0.22482 0.46629 0.67649 0.0
H489 H 0.20868 0.49848 0.72235 0.0
H490 H 0.14539 0.33814 0.80247 0.0
H491 H 0.21802 0.34033 0.82193 0.0
H492 H 0.26986 0.38816 0.79429 0.0
H493 H 0.24949 0.4333 0.74631 0.0
C494 C 0.20093 0.47254 0.70469 0.0
C495 C 0.17046 0.43987 0.71756 0.0
C496 C 0.18305 0.4129 0.74512 0.0
C497 C 0.15312 0.38531 0.76102 0.0
C498 C 0.16666 0.35938 0.78897 0.0
C499 C 0.20836 0.3604 0.80058 0.0
C500 C 0.23755 0.38728 0.78499 0.0
C501 C 0.22531 0.41317 0.75755 0.0
H502 H 0.59992 0.58403 0.28565 0.0
C503 C 0.60037 0.5506 0.27685 0.0
H504 H 0.58821 0.50883 0.23502 0.0
H505 H 0.46182 0.66726 0.19428 0.0
H506 H 0.41085 0.61152 0.20881 0.0
H507 H 0.435 0.53978 0.22913 0.0
H508 H 0.5103 0.52328 0.23491 0.0
C509 C 0.58945 0.54188 0.24445 0.0
C510 C 0.57564 0.57836 0.22224 0.0
C511 C 0.53184 0.58671 0.21773 0.0
C512 C 0.51797 0.62807 0.20625 0.0
C513 C 0.47393 0.63638 0.20321 0.0
C514 C 0.44443 0.60467 0.21135 0.0
C515 C 0.45803 0.56426 0.22277 0.0
C516 C 0.50123 0.55523 0.22605 0.0
H517 H 0.53741 0.71533 0.14516 0.0
C518 C 0.5288 0.72955 0.16964 0.0
H519 H 0.52379 0.72002 0.22296 0.0
H520 H 0.66159 0.5685 0.22047 0.0
H521 H 0.7128 0.62323 0.2039 0.0
H522 H 0.68887 0.69563 0.18492 0.0
H523 H 0.61373 0.71373 0.18218 0.0
C524 C 0.53358 0.70647 0.19853 0.0
C525 C 0.54802 0.66069 0.1992 0.0
C526 C 0.59188 0.6506 0.19984 0.0
C527 C 0.60571 0.60914 0.2112 0.0
C528 C 0.64968 0.59986 0.21242 0.0
C529 C 0.67925 0.63086 0.20289 0.0
C530 C 0.66576 0.67162 0.19218 0.0
C531 C 0.6226 0.68163 0.19074 0.0
H532 H 0.46254 0.14563 0.78029 0.0
C533 C 0.43664 0.16213 0.79337 0.0
H534 H 0.371 0.1762 0.79398 0.0
H535 H 0.30307 0.13395 0.65238 0.0
H536 H 0.30905 0.21218 0.64712 0.0
H537 H 0.35043 0.25415 0.68903 0.0
H538 H 0.38614 0.21817 0.73639 0.0
C539 C 0.39665 0.15851 0.78155 0.0
C540 C 0.38414 0.13202 0.75138 0.0
C541 C 0.36471 0.15313 0.72321 0.0
C542 C 0.34091 0.12898 0.69904 0.0
C543 C 0.32103 0.15105 0.67165 0.0
C544 C 0.32442 0.19579 0.66826 0.0
C545 C 0.34773 0.21943 0.69185 0.0
C546 C 0.3678 0.19849 0.71901 0.0
H547 H 0.25462 0.09265 0.71032 0.0
C548 C 0.26229 0.06716 0.69207 0.0
H549 H 0.31168 0.03185 0.66851 0.0
H550 H 0.42062 0.08022 0.80055 0.0
H551 H 0.41741 0.00219 0.80387 0.0
H552 H 0.37834 0.96021 0.76065 0.0
H553 H 0.34184 0.99627 0.71402 0.0
C554 C 0.30309 0.05984 0.68395 0.0
C555 C 0.33676 0.08365 0.70294 0.0
C556 C 0.3601 0.06191 0.72887 0.0
C557 C 0.38333 0.08614 0.75348 0.0
C558 C 0.40338 0.0637 0.78068 0.0
C559 C 0.40166 0.01876 0.78299 0.0
C560 C 0.37963 0.99513 0.75868 0.0
C561 C 0.35882 0.01627 0.73202 0.0
H562 H 0.01986 0.75009 0.2516 0.0
C563 C 0.00897 0.7348 0.22815 0.0
H564 H 0.96466 0.73867 0.18759 0.0
H565 H 0.91644 0.85881 0.32688 0.0
H566 H 0.90751 0.79007 0.35524 0.0
H567 H 0.91659 0.72143 0.32361 0.0
H568 H 0.937 0.72167 0.2638 0.0
C569 C 0.97656 0.75308 0.211 0.0
C570 C 0.95573 0.79282 0.22522 0.0
C571 C 0.93918 0.7922 0.25895 0.0
C572 C 0.9295 0.83165 0.27605 0.0
C573 C 0.92 0.83 0.31147 0.0
C574 C 0.91547 0.79061 0.32833 0.0
C575 C 0.9209 0.752 0.31063 0.0
C576 C 0.93288 0.75261 0.2764 0.0
H577 H 0.85921 0.8928 0.29133 0.0
C578 C 0.88211 0.91888 0.29106 0.0
H579 H 0.94277 0.93884 0.27559 0.0
H580 H 0.98178 0.80475 0.15935 0.0
H581 H 0.98288 0.87281 0.12836 0.0
H582 H 0.95886 0.94064 0.15583 0.0
H583 H 0.93428 0.94107 0.21461 0.0
C584 C 0.91939 0.9132 0.27508 0.0
C585 C 0.93076 0.87148 0.25781 0.0
C586 C 0.94377 0.87158 0.22305 0.0
C587 C 0.9568 0.83228 0.2069 0.0
C588 C 0.97123 0.8336 0.17267 0.0
C589 C 0.97194 0.87241 0.15459 0.0
C590 C 0.95845 0.91062 0.17007 0.0
C591 C 0.94449 0.91042 0.20387 0.0
loop_
_geom_bond_atom_site_label_1
_geom_bond_atom_site_label_2
_geom_bond_distance
_geom_bond_site_symmetry_2
_ccdc_geom_bond_type
Co0 O1 2.216 . S
Co0 O2 2.091 . S
Co0 O4 2.004 1_455 S
Co0 O10 2.021 . S
Co0 O12 2.137 1_455 S
Co0 O13 2.244 . S
O1 Co0 2.216 . S
O1 C8 1.247 . S
O2 Co0 2.091 . S
O2 C8 1.261 . S
C3 O12 1.247 . S
C3 O13 1.272 1_655 S
O4 Co0 2.004 1_655 S
O4 C9 1.259 . S
Co5 O6 2.061 . S
Co5 O11 2.052 . S
Co5 O13 2.135 . S
O6 Co5 2.061 . S
O6 C9 1.235 1_455 S
C7 O10 1.238 . S
C7 O11 1.241 . S
C8 O1 1.247 . S
C8 O2 1.261 . S
C9 O4 1.259 . S
C9 O6 1.235 1_655 S
O10 Co0 2.021 . S
O10 C7 1.238 . S
O11 Co5 2.052 . S
O11 C7 1.241 . S
O12 Co0 2.137 1_655 S
O12 C3 1.247 . S
O13 Co0 2.244 . S
O13 C3 1.272 1_455 S
O13 Co5 2.135 . S
Co14 O15 2.216 . S
Co14 O16 2.091 . S
Co14 O18 2.004 . S
Co14 O24 2.021 . S
Co14 O26 2.137 . S
Co14 O27 2.244 . S
O15 Co14 2.216 . S
O15 C22 1.247 . S
O16 Co14 2.091 . S
O16 C22 1.261 . S
C17 O26 1.247 . S
C17 O27 1.272 . S
O18 Co14 2.004 . S
O18 C23 1.259 . S
Co19 O20 2.061 . S
Co19 O25 2.052 . S
Co19 O27 2.135 . S
O20 Co19 2.061 . S
O20 C23 1.235 . S
C21 O24 1.238 . S
C21 O25 1.241 . S
C22 O15 1.247 . S
C22 O16 1.261 . S
C23 O18 1.259 . S
C23 O20 1.235 . S
O24 Co14 2.021 . S
O24 C21 1.238 . S
O25 Co19 2.052 . S
O25 C21 1.241 . S
O26 Co14 2.137 . S
O26 C17 1.247 . S
O27 Co14 2.244 . S
O27 C17 1.272 . S
O27 Co19 2.135 . S
Co28 O29 2.216 . S
Co28 O30 2.091 . S
Co28 O32 2.004 . S
Co28 O38 2.021 . S
Co28 O40 2.137 . S
Co28 O41 2.244 . S
O29 Co28 2.216 . S
O29 C36 1.247 . S
O30 Co28 2.091 . S
O30 C36 1.261 . S
C31 O40 1.247 . S
C31 O41 1.272 . S
O32 Co28 2.004 . S
O32 C37 1.259 . S
Co33 O34 2.061 . S
Co33 O39 2.052 . S
Co33 O41 2.135 . S
O34 Co33 2.061 . S
O34 C37 1.235 . S
C35 O38 1.238 . S
C35 O39 1.241 . S
C36 O29 1.247 . S
C36 O30 1.261 . S
C37 O32 1.259 . S
C37 O34 1.235 . S
O38 Co28 2.021 . S
O38 C35 1.238 . S
O39 Co33 2.052 . S
O39 C35 1.241 . S
O40 Co28 2.137 . S
O40 C31 1.247 . S
O41 Co28 2.244 . S
O41 C31 1.272 . S
O41 Co33 2.135 . S
Co42 O43 2.216 . S
Co42 O44 2.095 . S
Co42 O46 2.004 1_565 S
Co42 O52 2.021 . S
Co42 O54 2.137 1_565 S
Co42 O55 2.244 . S
O43 Co42 2.216 . S
O43 C50 1.247 . S
O44 Co42 2.095 . S
O44 C50 1.273 . S
C45 O54 1.247 . S
C45 O55 1.272 1_545 S
O46 Co42 2.004 1_545 S
O46 C51 1.259 . S
Co47 O48 2.061 . S
Co47 O53 2.052 . S
Co47 O55 2.135 . S
O48 Co47 2.061 . S
O48 C51 1.235 1_565 S
C49 O52 1.238 . S
C49 O53 1.241 . S
C50 O43 1.247 . S
C50 O44 1.273 . S
C51 O46 1.259 . S
C51 O48 1.235 1_545 S
O52 Co42 2.021 . S
O52 C49 1.238 . S
O53 Co47 2.052 . S
O53 C49 1.241 . S
O54 Co42 2.137 1_545 S
O54 C45 1.247 . S
O55 Co42 2.244 . S
O55 C45 1.272 1_565 S
O55 Co47 2.135 . S
Co56 O57 2.216 . S
Co56 O58 2.091 . S
Co56 O60 2.004 1_655 S
Co56 O66 2.021 . S
Co56 O68 2.137 . S
Co56 O69 2.244 1_655 S
O57 Co56 2.216 . S
O57 C64 1.247 . S
O58 Co56 2.091 . S
O58 C64 1.261 . S
C59 O68 1.247 1_455 S
C59 O69 1.272 . S
O60 Co56 2.004 1_455 S
O60 C65 1.259 . S
Co61 O62 2.061 . S
Co61 O67 2.052 . S
Co61 O69 2.135 . S
O62 Co61 2.061 . S
O62 C65 1.235 . S
C63 O66 1.238 . S
C63 O67 1.241 1_655 S
C64 O57 1.247 . S
C64 O58 1.261 . S
C65 O60 1.259 . S
C65 O62 1.235 . S
O66 Co56 2.021 . S
O66 C63 1.238 . S
O67 Co61 2.052 . S
O67 C63 1.241 1_455 S
O68 Co56 2.137 . S
O68 C59 1.247 1_655 S
O69 Co56 2.244 1_455 S
O69 C59 1.272 . S
O69 Co61 2.135 . S
Co70 O71 2.216 . S
Co70 O72 2.091 . S
Co70 O74 2.004 . S
Co70 O80 2.021 . S
Co70 O82 2.137 . S
Co70 O83 2.244 . S
O71 Co70 2.216 . S
O71 C78 1.247 . S
O72 Co70 2.091 . S
O72 C78 1.261 . S
C73 O82 1.247 . S
C73 O83 1.272 . S
O74 Co70 2.004 . S
O74 C79 1.259 . S
Co75 O76 2.061 . S
Co75 O81 2.052 . S
Co75 O83 2.135 . S
O76 Co75 2.061 . S
O76 C79 1.235 . S
C77 O80 1.238 . S
C77 O81 1.241 . S
C78 O71 1.247 . S
C78 O72 1.261 . S
C79 O74 1.259 . S
C79 O76 1.235 . S
O80 Co70 2.021 . S
O80 C77 1.238 . S
O81 Co75 2.052 . S
O81 C77 1.241 . S
O82 Co70 2.137 . S
O82 C73 1.247 . S
O83 Co70 2.244 . S
O83 C73 1.272 . S
O83 Co75 2.135 . S
Co84 O85 2.216 . S
Co84 O86 2.091 . S
Co84 O88 2.004 . S
Co84 O94 2.021 . S
Co84 O96 2.137 . S
Co84 O97 2.244 . S
O85 Co84 2.216 . S
O85 C92 1.247 . S
O86 Co84 2.091 . S
O86 C92 1.261 . S
C87 O96 1.247 . S
C87 O97 1.272 . S
O88 Co84 2.004 . S
O88 C93 1.259 . S
Co89 O90 2.061 . S
Co89 O95 2.052 . S
Co89 O97 2.135 . S
O90 Co89 2.061 . S
O90 C93 1.235 . S
C91 O94 1.238 . S
C91 O95 1.241 . S
C92 O85 1.247 . S
C92 O86 1.261 . S
C93 O88 1.259 . S
C93 O90 1.235 . S
O94 Co84 2.021 . S
O94 C91 1.238 . S
O95 Co89 2.052 . S
O95 C91 1.241 . S
O96 Co84 2.137 . S
O96 C87 1.247 . S
O97 Co84 2.244 . S
O97 C87 1.272 . S
O97 Co89 2.135 . S
Co98 O99 2.216 . S
Co98 O100 2.090 1_545 S
Co98 O102 2.004 1_545 S
Co98 O108 2.021 . S
Co98 O110 2.137 1_545 S
Co98 O111 2.244 . S
O99 Co98 2.216 . S
O99 C106 1.247 . S
O100 Co98 2.090 1_565 S
O100 C106 1.257 1_565 S
C101 O110 1.247 . S
C101 O111 1.272 1_565 S
O102 Co98 2.004 1_565 S
O102 C107 1.259 . S
Co103 O104 2.061 . S
Co103 O109 2.052 . S
Co103 O111 2.135 . S
O104 Co103 2.061 . S
O104 C107 1.235 1_545 S
C105 O108 1.238 . S
C105 O109 1.241 . S
C106 O99 1.247 . S
C106 O100 1.257 1_545 S
C107 O102 1.259 . S
C107 O104 1.235 1_565 S
O108 Co98 2.021 . S
O108 C105 1.238 . S
O109 Co103 2.052 . S
O109 C105 1.241 . S
O110 Co98 2.137 1_565 S
O110 C101 1.247 . S
O111 Co98 2.244 . S
O111 C101 1.272 1_545 S
O111 Co103 2.135 . S
H112 C113 0.951 1_455 S
C113 H112 0.951 1_655 S
C113 C119 1.265 . S
H114 C119 0.950 . S
H115 C123 0.949 . S
H116 C124 0.950 . S
H117 C125 0.951 . S
H118 C126 0.951 . S
C119 C113 1.265 . S
C119 H114 0.950 . S
C119 C120 1.478 . S
C120 C119 1.478 . S
C120 C121 1.397 1_556 S
C120 C137 1.394 1_655 S
C121 C120 1.397 1_554 S
C121 C122 1.438 1_655 S
C121 C126 1.429 . S
C122 C121 1.438 1_455 S
C122 C123 1.428 . S
C122 C135 1.394 . S
C123 H115 0.949 . S
C123 C122 1.428 . S
C123 C124 1.345 1_455 S
C124 H116 0.950 . S
C124 C123 1.345 1_655 S
C124 C125 1.424 . S
C125 H117 0.951 . S
C125 C124 1.424 . S
C125 C126 1.347 . S
C126 H118 0.951 . S
C126 C121 1.429 . S
C126 C125 1.347 . S
H127 C128 0.951 1_655 S
C128 H127 0.951 1_455 S
C128 C134 1.265 . S
H129 C134 0.950 . S
H130 C138 0.949 1_655 S
H131 C139 0.950 . S
H132 C140 0.951 . S
H133 C141 0.951 . S
C134 C128 1.265 . S
C134 H129 0.950 . S
C134 C135 1.478 . S
C135 C122 1.394 . S
C135 C134 1.478 . S
C135 C136 1.397 1_554 S
C136 C135 1.397 1_556 S
C136 C137 1.438 . S
C136 C141 1.429 . S
C137 C120 1.394 1_455 S
C137 C136 1.438 . S
C137 C138 1.428 . S
C138 H130 0.949 1_455 S
C138 C137 1.428 . S
C138 C139 1.345 . S
C139 H131 0.950 . S
C139 C138 1.345 . S
C139 C140 1.424 . S
C140 H132 0.951 . S
C140 C139 1.424 . S
C140 C141 1.347 . S
C141 H133 0.951 . S
C141 C136 1.429 . S
C141 C140 1.347 . S
H142 C143 0.951 . S
C143 H142 0.951 . S
C143 C149 1.265 . S
H144 C149 0.950 . S
H145 C153 0.949 . S
H146 C154 0.950 . S
H147 C155 0.951 . S
H148 C156 0.951 . S
C149 C143 1.265 . S
C149 H144 0.950 . S
C149 C150 1.478 . S
C150 C149 1.478 . S
C150 C151 1.397 . S
C150 C167 1.394 . S
C151 C150 1.397 . S
C151 C152 1.438 . S
C151 C156 1.429 . S
C152 C151 1.438 . S
C152 C153 1.428 . S
C152 C165 1.394 . S
C153 H145 0.949 . S
C153 C152 1.428 . S
C153 C154 1.345 . S
C154 H146 0.950 . S
C154 C153 1.345 . S
C154 C155 1.424 . S
C155 H147 0.951 . S
C155 C154 1.424 . S
C155 C156 1.347 . S
C156 H148 0.951 . S
C156 C151 1.429 . S
C156 C155 1.347 . S
H157 C158 0.951 . S
C158 H157 0.951 . S
C158 C164 1.265 . S
H159 C164 0.950 . S
H160 C168 0.949 . S
H161 C169 0.950 . S
H162 C170 0.951 . S
H163 C171 0.951 . S
C164 C158 1.265 . S
C164 H159 0.950 . S
C164 C165 1.478 . S
C165 C152 1.394 . S
C165 C164 1.478 . S
C165 C166 1.397 . S
C166 C165 1.397 . S
C166 C167 1.438 . S
C166 C171 1.429 . S
C167 C150 1.394 . S
C167 C166 1.438 . S
C167 C168 1.428 . S
C168 H160 0.949 . S
C168 C167 1.428 . S
C168 C169 1.345 . S
C169 H161 0.950 . S
C169 C168 1.345 . S
C169 C170 1.424 . S
C170 H162 0.951 . S
C170 C169 1.424 . S
C170 C171 1.347 . S
C171 H163 0.951 . S
C171 C166 1.429 . S
C171 C170 1.347 . S
H172 C173 0.951 . S
C173 H172 0.951 . S
C173 C179 1.265 . S
H174 C179 0.950 . S
H175 C183 0.949 1_556 S
H176 C184 0.950 . S
H177 C185 0.951 . S
H178 C186 0.951 . S
C179 C173 1.265 . S
C179 H174 0.950 . S
C179 C180 1.478 . S
C180 C179 1.478 . S
C180 C181 1.397 1_565 S
C180 C197 1.394 1_554 S
C181 C180 1.397 1_545 S
C181 C182 1.438 . S
C181 C186 1.429 . S
C182 C181 1.438 . S
C182 C183 1.428 . S
C182 C195 1.394 1_554 S
C183 H175 0.949 1_554 S
C183 C182 1.428 . S
C183 C184 1.345 . S
C184 H176 0.950 . S
C184 C183 1.345 . S
C184 C185 1.424 . S
C185 H177 0.951 . S
C185 C184 1.424 . S
C185 C186 1.347 . S
C186 H178 0.951 . S
C186 C181 1.429 . S
C186 C185 1.347 . S
H187 C188 0.951 . S
C188 H187 0.951 . S
C188 C194 1.265 . S
H189 C194 0.950 . S
H190 C198 0.949 1_554 S
H191 C199 0.950 . S
H192 C200 0.951 . S
H193 C201 0.951 1_545 S
C194 C188 1.265 . S
C194 H189 0.950 . S
C194 C195 1.478 . S
C195 C182 1.394 1_556 S
C195 C194 1.478 . S
C195 C196 1.397 1_545 S
C196 C195 1.397 1_565 S
C196 C197 1.438 . S
C196 C201 1.429 . S
C197 C180 1.394 1_556 S
C197 C196 1.438 . S
C197 C198 1.428 . S
C198 H190 0.949 1_556 S
C198 C197 1.428 . S
C198 C199 1.345 . S
C199 H191 0.950 . S
C199 C198 1.345 . S
C199 C200 1.424 . S
C200 H192 0.951 . S
C200 C199 1.424 . S
C200 C201 1.347 . S
C201 H193 0.951 1_565 S
C201 C196 1.429 . S
C201 C200 1.347 . S
H202 C203 0.951 . S
C203 H202 0.951 . S
C203 C209 1.265 . S
H204 C209 0.950 . S
H205 C213 0.949 . S
H206 C214 0.950 . S
H207 C215 0.951 . S
H208 C216 0.963 . S
C209 C203 1.265 . S
C209 H204 0.950 . S
C209 C210 1.478 . S
C210 C209 1.478 . S
C210 C211 1.397 . S
C210 C227 1.394 1_545 S
C211 C210 1.397 . S
C211 C212 1.438 1_655 S
C211 C216 1.431 . S
C212 C211 1.438 1_455 S
C212 C213 1.428 . S
C212 C225 1.394 1_545 S
C213 H205 0.949 . S
C213 C212 1.428 . S
C213 C214 1.345 . S
C214 H206 0.950 . S
C214 C213 1.345 . S
C214 C215 1.424 . S
C215 H207 0.951 . S
C215 C214 1.424 . S
C215 C216 1.333 1_455 S
C216 H208 0.963 . S
C216 C211 1.431 . S
C216 C215 1.333 1_655 S
H217 C218 0.951 . S
C218 H217 0.951 . S
C218 C224 1.265 . S
H219 C224 0.950 . S
H220 C228 0.949 . S
H221 C229 0.950 . S
H222 C230 0.951 . S
H223 C231 0.951 1_455 S
C224 C218 1.265 . S
C224 H219 0.950 . S
C224 C225 1.478 . S
C225 C212 1.394 1_565 S
C225 C224 1.478 . S
C225 C226 1.397 1_455 S
C226 C225 1.397 1_655 S
C226 C227 1.438 . S
C226 C231 1.429 . S
C227 C210 1.394 1_565 S
C227 C226 1.438 . S
C227 C228 1.428 . S
C228 H220 0.949 . S
C228 C227 1.428 . S
C228 C229 1.345 . S
C229 H221 0.950 . S
C229 C228 1.345 . S
C229 C230 1.424 . S
C230 H222 0.951 . S
C230 C229 1.424 . S
C230 C231 1.347 . S
C231 H223 0.951 1_655 S
C231 C226 1.429 . S
C231 C230 1.347 . S
H232 C233 0.951 . S
C233 H232 0.951 . S
C233 C239 1.265 . S
H234 C239 0.950 . S
H235 C243 0.949 . S
H236 C244 0.950 . S
H237 C245 0.951 . S
H238 C246 0.951 . S
C239 C233 1.265 . S
C239 H234 0.950 . S
C239 C240 1.478 . S
C240 C239 1.478 . S
C240 C241 1.397 . S
C240 C257 1.394 . S
C241 C240 1.397 . S
C241 C242 1.438 . S
C241 C246 1.429 . S
C242 C241 1.438 . S
C242 C243 1.428 . S
C242 C255 1.394 . S
C243 H235 0.949 . S
C243 C242 1.428 . S
C243 C244 1.345 . S
C244 H236 0.950 . S
C244 C243 1.345 . S
C244 C245 1.424 . S
C245 H237 0.951 . S
C245 C244 1.424 . S
C245 C246 1.347 . S
C246 H238 0.951 . S
C246 C241 1.429 . S
C246 C245 1.347 . S
H247 C248 0.951 . S
C248 H247 0.951 . S
C248 C254 1.265 . S
H249 C254 0.950 . S
H250 C258 0.949 . S
H251 C259 0.950 . S
H252 C260 0.951 . S
H253 C261 0.951 . S
C254 C248 1.265 . S
C254 H249 0.950 . S
C254 C255 1.478 . S
C255 C242 1.394 . S
C255 C254 1.478 . S
C255 C256 1.397 . S
C256 C255 1.397 . S
C256 C257 1.438 . S
C256 C261 1.429 . S
C257 C240 1.394 . S
C257 C256 1.438 . S
C257 C258 1.428 . S
C258 H250 0.949 . S
C258 C257 1.428 . S
C258 C259 1.345 . S
C259 H251 0.950 . S
C259 C258 1.345 . S
C259 C260 1.424 . S
C260 H252 0.951 . S
C260 C259 1.424 . S
C260 C261 1.347 . S
C261 H253 0.951 . S
C261 C256 1.429 . S
C261 C260 1.347 . S
H262 C263 0.951 . S
C263 H262 0.951 . S
C263 C269 1.265 . S
H264 C269 0.950 . S
H265 C273 0.949 . S
H266 C274 0.950 . S
H267 C275 0.951 . S
H268 C276 0.951 . S
C269 C263 1.265 . S
C269 H264 0.950 . S
C269 C270 1.478 . S
C270 C269 1.478 . S
C270 C271 1.397 . S
C270 C287 1.394 . S
C271 C270 1.397 . S
C271 C272 1.438 . S
C271 C276 1.429 . S
C272 C271 1.438 . S
C272 C273 1.428 . S
C272 C285 1.394 . S
C273 H265 0.949 . S
C273 C272 1.428 . S
C273 C274 1.345 . S
C274 H266 0.950 . S
C274 C273 1.345 . S
C274 C275 1.424 . S
C275 H267 0.951 . S
C275 C274 1.424 . S
C275 C276 1.347 . S
C276 H268 0.951 . S
C276 C271 1.429 . S
C276 C275 1.347 . S
H277 C278 0.951 . S
C278 H277 0.951 . S
C278 C284 1.265 . S
H279 C284 0.950 . S
H280 C288 0.949 . S
H281 C289 0.950 . S
H282 C290 0.951 . S
H283 C291 0.951 . S
C284 C278 1.265 . S
C284 H279 0.950 . S
C284 C285 1.478 . S
C285 C272 1.394 . S
C285 C284 1.478 . S
C285 C286 1.397 . S
C286 C285 1.397 . S
C286 C287 1.438 . S
C286 C291 1.429 . S
C287 C270 1.394 . S
C287 C286 1.438 . S
C287 C288 1.428 . S
C288 H280 0.949 . S
C288 C287 1.428 . S
C288 C289 1.345 . S
C289 H281 0.950 . S
C289 C288 1.345 . S
C289 C290 1.424 . S
C290 H282 0.951 . S
C290 C289 1.424 . S
C290 C291 1.347 . S
C291 H283 0.951 . S
C291 C286 1.429 . S
C291 C290 1.347 . S
H292 C293 0.951 . S
C293 H292 0.951 . S
C293 C299 1.265 . S
H294 C299 0.950 . S
H295 C303 0.949 . S
H296 C304 0.950 . S
H297 C305 0.951 . S
H298 C306 0.951 . S
C299 C293 1.265 . S
C299 H294 0.950 . S
C299 C300 1.478 . S
C300 C299 1.478 . S
C300 C301 1.397 . S
C300 C317 1.394 . S
C301 C300 1.397 . S
C301 C302 1.438 . S
C301 C306 1.429 . S
C302 C301 1.438 . S
C302 C303 1.428 . S
C302 C315 1.394 . S
C303 H295 0.949 . S
C303 C302 1.428 . S
C303 C304 1.345 . S
C304 H296 0.950 . S
C304 C303 1.345 . S
C304 C305 1.424 . S
C305 H297 0.951 . S
C305 C304 1.424 . S
C305 C306 1.347 . S
C306 H298 0.951 . S
C306 C301 1.429 . S
C306 C305 1.347 . S
H307 C308 0.951 . S
C308 H307 0.951 . S
C308 C314 1.265 . S
H309 C314 0.950 . S
H310 C318 0.949 . S
H311 C319 0.950 . S
H312 C320 0.951 . S
H313 C321 0.951 . S
C314 C308 1.265 . S
C314 H309 0.950 . S
C314 C315 1.478 . S
C315 C302 1.394 . S
C315 C314 1.478 . S
C315 C316 1.397 . S
C316 C315 1.397 . S
C316 C317 1.438 . S
C316 C321 1.429 . S
C317 C300 1.394 . S
C317 C316 1.438 . S
C317 C318 1.428 . S
C318 H310 0.949 . S
C318 C317 1.428 . S
C318 C319 1.345 . S
C319 H311 0.950 . S
C319 C318 1.345 . S
C319 C320 1.424 . S
C320 H312 0.951 . S
C320 C319 1.424 . S
C320 C321 1.347 . S
C321 H313 0.951 . S
C321 C316 1.429 . S
C321 C320 1.347 . S
H322 C323 0.951 . S
C323 H322 0.951 . S
C323 C329 1.265 . S
H324 C329 0.950 . S
H325 C333 0.949 . S
H326 C334 0.950 . S
H327 C335 0.951 . S
H328 C336 0.951 . S
C329 C323 1.265 . S
C329 H324 0.950 . S
C329 C330 1.478 . S
C330 C329 1.478 . S
C330 C331 1.397 . S
C330 C347 1.394 . S
C331 C330 1.397 . S
C331 C332 1.438 . S
C331 C336 1.429 . S
C332 C331 1.438 . S
C332 C333 1.428 . S
C332 C345 1.394 . S
C333 H325 0.949 . S
C333 C332 1.428 . S
C333 C334 1.345 . S
C334 H326 0.950 . S
C334 C333 1.345 . S
C334 C335 1.424 . S
C335 H327 0.951 . S
C335 C334 1.424 . S
C335 C336 1.347 . S
C336 H328 0.951 . S
C336 C331 1.429 . S
C336 C335 1.347 . S
H337 C338 0.951 . S
C338 H337 0.951 . S
C338 C344 1.265 . S
H339 C344 0.950 . S
H340 C348 0.949 . S
H341 C349 0.950 . S
H342 C350 0.951 . S
H343 C351 0.951 . S
C344 C338 1.265 . S
C344 H339 0.950 . S
C344 C345 1.478 . S
C345 C332 1.394 . S
C345 C344 1.478 . S
C345 C346 1.397 . S
C346 C345 1.397 . S
C346 C347 1.438 . S
C346 C351 1.429 . S
C347 C330 1.394 . S
C347 C346 1.438 . S
C347 C348 1.428 . S
C348 H340 0.949 . S
C348 C347 1.428 . S
C348 C349 1.345 . S
C349 H341 0.950 . S
C349 C348 1.345 . S
C349 C350 1.424 . S
C350 H342 0.951 . S
C350 C349 1.424 . S
C350 C351 1.347 . S
C351 H343 0.951 . S
C351 C346 1.429 . S
C351 C350 1.347 . S
H352 C353 0.951 . S
C353 H352 0.951 . S
C353 C359 1.265 . S
H354 C359 0.950 . S
H355 C363 0.949 . S
H356 C364 0.950 . S
H357 C365 0.951 . S
H358 C366 0.951 . S
C359 C353 1.265 . S
C359 H354 0.950 . S
C359 C360 1.478 . S
C360 C359 1.478 . S
C360 C361 1.397 . S
C360 C377 1.394 . S
C361 C360 1.397 . S
C361 C362 1.438 . S
C361 C366 1.429 . S
C362 C361 1.438 . S
C362 C363 1.428 . S
C362 C375 1.394 . S
C363 H355 0.949 . S
C363 C362 1.428 . S
C363 C364 1.345 . S
C364 H356 0.950 . S
C364 C363 1.345 . S
C364 C365 1.424 . S
C365 H357 0.951 . S
C365 C364 1.424 . S
C365 C366 1.347 . S
C366 H358 0.951 . S
C366 C361 1.429 . S
C366 C365 1.347 . S
H367 C368 0.951 . S
C368 H367 0.951 . S
C368 C374 1.265 . S
H369 C374 0.950 . S
H370 C378 0.949 . S
H371 C379 0.950 . S
H372 C380 0.951 . S
H373 C381 0.951 . S
C374 C368 1.265 . S
C374 H369 0.950 . S
C374 C375 1.478 . S
C375 C362 1.394 . S
C375 C374 1.478 . S
C375 C376 1.397 . S
C376 C375 1.397 . S
C376 C377 1.438 . S
C376 C381 1.429 . S
C377 C360 1.394 . S
C377 C376 1.438 . S
C377 C378 1.428 . S
C378 H370 0.949 . S
C378 C377 1.428 . S
C378 C379 1.345 . S
C379 H371 0.950 . S
C379 C378 1.345 . S
C379 C380 1.424 . S
C380 H372 0.951 . S
C380 C379 1.424 . S
C380 C381 1.347 . S
C381 H373 0.951 . S
C381 C376 1.429 . S
C381 C380 1.347 . S
H382 C383 0.951 . S
C383 H382 0.951 . S
C383 C389 1.265 . S
H384 C389 0.950 . S
H385 C393 0.949 . S
H386 C394 0.950 . S
H387 C395 0.951 . S
H388 C396 0.951 . S
C389 C383 1.265 . S
C389 H384 0.950 . S
C389 C390 1.478 . S
C390 C389 1.478 . S
C390 C391 1.397 . S
C390 C407 1.394 . S
C391 C390 1.397 . S
C391 C392 1.438 . S
C391 C396 1.429 . S
C392 C391 1.438 . S
C392 C393 1.428 . S
C392 C405 1.394 . S
C393 H385 0.949 . S
C393 C392 1.428 . S
C393 C394 1.345 . S
C394 H386 0.950 . S
C394 C393 1.345 . S
C394 C395 1.424 . S
C395 H387 0.951 . S
C395 C394 1.424 . S
C395 C396 1.347 . S
C396 H388 0.951 . S
C396 C391 1.429 . S
C396 C395 1.347 . S
H397 C398 0.951 . S
C398 H397 0.951 . S
C398 C404 1.265 . S
H399 C404 0.950 . S
H400 C408 0.949 . S
H401 C409 0.950 . S
H402 C410 0.951 . S
H403 C411 0.951 . S
C404 C398 1.265 . S
C404 H399 0.950 . S
C404 C405 1.478 . S
C405 C392 1.394 . S
C405 C404 1.478 . S
C405 C406 1.397 . S
C406 C405 1.397 . S
C406 C407 1.438 . S
C406 C411 1.429 . S
C407 C390 1.394 . S
C407 C406 1.438 . S
C407 C408 1.428 . S
C408 H400 0.949 . S
C408 C407 1.428 . S
C408 C409 1.345 . S
C409 H401 0.950 . S
C409 C408 1.345 . S
C409 C410 1.424 . S
C410 H402 0.951 . S
C410 C409 1.424 . S
C410 C411 1.347 . S
C411 H403 0.951 . S
C411 C406 1.429 . S
C411 C410 1.347 . S
H412 C413 0.951 . S
C413 H412 0.951 . S
C413 C419 1.265 . S
H414 C419 0.950 . S
H415 C423 0.949 . S
H416 C424 0.950 . S
H417 C425 0.951 . S
H418 C426 0.951 . S
C419 C413 1.265 . S
C419 H414 0.950 . S
C419 C420 1.478 . S
C420 C419 1.478 . S
C420 C421 1.397 . S
C420 C437 1.394 . S
C421 C420 1.397 . S
C421 C422 1.438 . S
C421 C426 1.429 . S
C422 C421 1.438 . S
C422 C423 1.428 . S
C422 C435 1.394 . S
C423 H415 0.949 . S
C423 C422 1.428 . S
C423 C424 1.345 . S
C424 H416 0.950 . S
C424 C423 1.345 . S
C424 C425 1.424 . S
C425 H417 0.951 . S
C425 C424 1.424 . S
C425 C426 1.347 . S
C426 H418 0.951 . S
C426 C421 1.429 . S
C426 C425 1.347 . S
H427 C428 0.951 . S
C428 H427 0.951 . S
C428 C434 1.265 . S
H429 C434 0.950 . S
H430 C438 0.949 . S
H431 C439 0.950 1_545 S
H432 C440 0.951 . S
H433 C441 0.952 . S
C434 C428 1.265 . S
C434 H429 0.950 . S
C434 C435 1.478 . S
C435 C422 1.394 . S
C435 C434 1.478 . S
C435 C436 1.397 . S
C436 C435 1.397 . S
C436 C437 1.438 . S
C436 C441 1.429 . S
C437 C420 1.394 . S
C437 C436 1.438 . S
C437 C438 1.428 . S
C438 H430 0.949 . S
C438 C437 1.428 . S
C438 C439 1.345 . S
C439 H431 0.950 1_565 S
C439 C438 1.345 . S
C439 C440 1.424 1_565 S
C440 H432 0.951 . S
C440 C439 1.424 1_545 S
C440 C441 1.347 1_545 S
C441 H433 0.952 . S
C441 C436 1.429 . S
C441 C440 1.347 1_565 S
H442 C443 0.951 1_655 S
C443 H442 0.951 1_455 S
C443 C449 1.265 . S
H444 C449 0.950 . S
H445 C453 0.949 . S
H446 C454 0.950 . S
H447 C455 0.951 . S
H448 C456 0.951 . S
C449 C443 1.265 . S
C449 H444 0.950 . S
C449 C450 1.478 . S
C450 C449 1.478 . S
C450 C451 1.397 . S
C450 C467 1.394 . S
C451 C450 1.397 . S
C451 C452 1.438 . S
C451 C456 1.429 . S
C452 C451 1.438 . S
C452 C453 1.428 . S
C452 C465 1.394 . S
C453 H445 0.949 . S
C453 C452 1.428 . S
C453 C454 1.345 . S
C454 H446 0.950 . S
C454 C453 1.345 . S
C454 C455 1.424 . S
C455 H447 0.951 . S
C455 C454 1.424 . S
C455 C456 1.347 . S
C456 H448 0.951 . S
C456 C451 1.429 . S
C456 C455 1.347 . S
H457 C458 0.951 . S
C458 H457 0.951 . S
C458 C464 1.265 . S
H459 C464 0.950 . S
H460 C468 0.949 . S
H461 C469 0.950 . S
H462 C470 0.951 . S
H463 C471 0.951 . S
C464 C458 1.265 . S
C464 H459 0.950 . S
C464 C465 1.478 . S
C465 C452 1.394 . S
C465 C464 1.478 . S
C465 C466 1.397 . S
C466 C465 1.397 . S
C466 C467 1.438 . S
C466 C471 1.429 . S
C467 C450 1.394 . S
C467 C466 1.438 . S
C467 C468 1.428 . S
C468 H460 0.949 . S
C468 C467 1.428 . S
C468 C469 1.345 . S
C469 H461 0.950 . S
C469 C468 1.345 . S
C469 C470 1.424 . S
C470 H462 0.951 . S
C470 C469 1.424 . S
C470 C471 1.347 . S
C471 H463 0.951 . S
C471 C466 1.429 . S
C471 C470 1.347 . S
H472 C473 0.951 . S
C473 H472 0.951 . S
C473 C479 1.265 . S
H474 C479 0.950 . S
H475 C483 0.949 . S
H476 C484 0.950 . S
H477 C485 0.951 . S
H478 C486 0.951 . S
C479 C473 1.265 . S
C479 H474 0.950 . S
C479 C480 1.478 . S
C480 C479 1.478 . S
C480 C481 1.397 . S
C480 C497 1.394 . S
C481 C480 1.397 . S
C481 C482 1.438 . S
C481 C486 1.429 . S
C482 C481 1.438 . S
C482 C483 1.428 . S
C482 C495 1.394 . S
C483 H475 0.949 . S
C483 C482 1.428 . S
C483 C484 1.345 . S
C484 H476 0.950 . S
C484 C483 1.345 . S
C484 C485 1.424 . S
C485 H477 0.951 . S
C485 C484 1.424 . S
C485 C486 1.347 . S
C486 H478 0.951 . S
C486 C481 1.429 . S
C486 C485 1.347 . S
H487 C488 0.951 . S
C488 H487 0.951 . S
C488 C494 1.265 . S
H489 C494 0.950 . S
H490 C498 0.949 . S
H491 C499 0.950 . S
H492 C500 0.951 . S
H493 C501 0.951 . S
C494 C488 1.265 . S
C494 H489 0.950 . S
C494 C495 1.478 . S
C495 C482 1.394 . S
C495 C494 1.478 . S
C495 C496 1.397 . S
C496 C495 1.397 . S
C496 C497 1.438 . S
C496 C501 1.429 . S
C497 C480 1.394 . S
C497 C496 1.438 . S
C497 C498 1.428 . S
C498 H490 0.949 . S
C498 C497 1.428 . S
C498 C499 1.345 . S
C499 H491 0.950 . S
C499 C498 1.345 . S
C499 C500 1.424 . S
C500 H492 0.951 . S
C500 C499 1.424 . S
C500 C501 1.347 . S
C501 H493 0.951 . S
C501 C496 1.429 . S
C501 C500 1.347 . S
H502 C503 0.951 . S
C503 H502 0.951 . S
C503 C509 1.265 . S
H504 C509 0.950 . S
H505 C513 0.949 . S
H506 C514 0.950 . S
H507 C515 0.951 . S
H508 C516 0.951 . S
C509 C503 1.265 . S
C509 H504 0.950 . S
C509 C510 1.478 . S
C510 C509 1.478 . S
C510 C511 1.397 . S
C510 C527 1.394 . S
C511 C510 1.397 . S
C511 C512 1.438 . S
C511 C516 1.429 . S
C512 C511 1.438 . S
C512 C513 1.428 . S
C512 C525 1.394 . S
C513 H505 0.949 . S
C513 C512 1.428 . S
C513 C514 1.345 . S
C514 H506 0.950 . S
C514 C513 1.345 . S
C514 C515 1.424 . S
C515 H507 0.951 . S
C515 C514 1.424 . S
C515 C516 1.347 . S
C516 H508 0.951 . S
C516 C511 1.429 . S
C516 C515 1.347 . S
H517 C518 0.951 . S
C518 H517 0.951 . S
C518 C524 1.265 . S
H519 C524 0.950 . S
H520 C528 0.949 . S
H521 C529 0.950 . S
H522 C530 0.951 . S
H523 C531 0.951 . S
C524 C518 1.265 . S
C524 H519 0.950 . S
C524 C525 1.478 . S
C525 C512 1.394 . S
C525 C524 1.478 . S
C525 C526 1.397 . S
C526 C525 1.397 . S
C526 C527 1.438 . S
C526 C531 1.429 . S
C527 C510 1.394 . S
C527 C526 1.438 . S
C527 C528 1.428 . S
C528 H520 0.949 . S
C528 C527 1.428 . S
C528 C529 1.345 . S
C529 H521 0.950 . S
C529 C528 1.345 . S
C529 C530 1.424 . S
C530 H522 0.951 . S
C530 C529 1.424 . S
C530 C531 1.347 . S
C531 H523 0.951 . S
C531 C526 1.429 . S
C531 C530 1.347 . S
H532 C533 0.951 . S
C533 H532 0.951 . S
C533 C539 1.265 . S
H534 C539 0.950 . S
H535 C543 0.949 . S
H536 C544 0.950 . S
H537 C545 0.951 . S
H538 C546 0.951 . S
C539 C533 1.265 . S
C539 H534 0.950 . S
C539 C540 1.478 . S
C540 C539 1.478 . S
C540 C541 1.397 . S
C540 C557 1.394 . S
C541 C540 1.397 . S
C541 C542 1.438 . S
C541 C546 1.429 . S
C542 C541 1.438 . S
C542 C543 1.428 . S
C542 C555 1.394 . S
C543 H535 0.949 . S
C543 C542 1.428 . S
C543 C544 1.345 . S
C544 H536 0.950 . S
C544 C543 1.345 . S
C544 C545 1.424 . S
C545 H537 0.951 . S
C545 C544 1.424 . S
C545 C546 1.347 . S
C546 H538 0.951 . S
C546 C541 1.429 . S
C546 C545 1.347 . S
H547 C548 0.951 . S
C548 H547 0.951 . S
C548 C554 1.265 . S
H549 C554 0.950 1_565 S
H550 C558 0.949 . S
H551 C559 0.950 . S
H552 C560 0.951 . S
H553 C561 0.951 . S
C554 C548 1.265 . S
C554 H549 0.950 1_545 S
C554 C555 1.478 . S
C555 C542 1.394 . S
C555 C554 1.478 . S
C555 C556 1.397 . S
C556 C555 1.397 . S
C556 C557 1.438 . S
C556 C561 1.429 1_545 S
C557 C540 1.394 . S
C557 C556 1.438 . S
C557 C558 1.428 . S
C558 H550 0.949 . S
C558 C557 1.428 . S
C558 C559 1.345 1_545 S
C559 H551 0.950 . S
C559 C558 1.345 1_565 S
C559 C560 1.424 . S
C560 H552 0.951 . S
C560 C559 1.424 . S
C560 C561 1.347 . S
C561 H553 0.951 . S
C561 C556 1.429 1_565 S
C561 C560 1.347 . S
H562 C563 0.951 1_455 S
C563 H562 0.951 1_655 S
C563 C569 1.265 . S
H564 C569 0.950 . S
H565 C573 0.949 . S
H566 C574 0.950 . S
H567 C575 0.951 . S
H568 C576 0.951 . S
C569 C563 1.265 . S
C569 H564 0.950 . S
C569 C570 1.478 . S
C570 C569 1.478 . S
C570 C571 1.397 . S
C570 C587 1.394 . S
C571 C570 1.397 . S
C571 C572 1.438 . S
C571 C576 1.429 . S
C572 C571 1.438 . S
C572 C573 1.428 . S
C572 C585 1.394 . S
C573 H565 0.949 . S
C573 C572 1.428 . S
C573 C574 1.345 . S
C574 H566 0.950 . S
C574 C573 1.345 . S
C574 C575 1.424 . S
C575 H567 0.951 . S
C575 C574 1.424 . S
C575 C576 1.347 . S
C576 H568 0.951 . S
C576 C571 1.429 . S
C576 C575 1.347 . S
H577 C578 0.951 . S
C578 H577 0.951 . S
C578 C584 1.265 . S
H579 C584 0.950 . S
H580 C588 0.949 . S
H581 C589 0.950 1_455 S
H582 C590 0.951 . S
H583 C591 0.951 . S
C584 C578 1.265 . S
C584 H579 0.950 . S
C584 C585 1.478 . S
C585 C572 1.394 . S
C585 C584 1.478 . S
C585 C586 1.397 . S
C586 C585 1.397 . S
C586 C587 1.438 . S
C586 C591 1.429 . S
C587 C570 1.394 . S
C587 C586 1.438 . S
C587 C588 1.428 . S
C588 H580 0.949 . S
C588 C587 1.428 . S
C588 C589 1.345 . S
C589 H581 0.950 1_655 S
C589 C588 1.345 . S
C589 C590 1.424 . S
C590 H582 0.951 . S
C590 C589 1.424 . S
C590 C591 1.347 . S
C591 H583 0.951 . S
C591 C586 1.429 . S
C591 C590 1.347 . S
C113 C63 1.527 . S
C128 C8 1.577 . S
C143 C22 1.618 . S
C158 C78 1.619 . S
C173 C36 1.606 . S
C188 C91 1.561 . S
C203 C106 1.624 . S
C218 C50 1.624 . S
C233 C7 1.506 . S
C248 C35 1.526 . S
C263 C21 1.364 . S
C278 C49 1.373 . S
C293 C92 1.336 . S
C308 C64 1.337 . S
C323 C77 1.406 . S
C338 C105 1.405 . S
C353 C79 0.961 . S
C368 C3 1.059 . S
C383 C17 0.980 . S
C398 C87 0.989 . S
C413 C31 0.983 . S
C428 C107 1.071 . S
C443 C59 0.912 . S
C458 C45 0.914 . S
C473 C65 0.884 . S
C488 C23 1.006 . S
C503 C73 0.954 . S
C518 C37 0.964 . S
C533 C93 1.012 . S
C548 C51 0.905 . S
C563 C9 0.963 . S
C578 C101 0.955 . S
