# Generated by pormake.
# Topology yfw, (5)-cn, num edge types: 1
# Building blocks:
#     Node 0, Type 0, BuildingBlock: BEQFEK_clean_sbu_0, # of connection points: 5
#     Node 1, Type 0, BuildingBlock: BEQFEK_clean_sbu_0, # of connection points: 5
#     Node 2, Type 0, BuildingBlock: BEQFEK_clean_sbu_0, # of connection points: 5
#     Node 3, Type 0, BuildingBlock: BEQFEK_clean_sbu_0, # of connection points: 5
#     Node 4, Type 0, BuildingBlock: BEQFEK_clean_sbu_0, # of connection points: 5
#     Node 5, Type 0, BuildingBlock: BEQFEK_clean_sbu_0, # of connection points: 5
#     Node 6, Type 0, BuildingBlock: BEQFEK_clean_sbu_0, # of connection points: 5
#     Node 7, Type 0, BuildingBlock: BEQFEK_clean_sbu_0, # of connection points: 5
#     Node 8, Type 0, BuildingBlock: BEQFEK_clean_sbu_0, # of connection points: 5
#     Node 9, Type 0, BuildingBlock: BEQFEK_clean_sbu_0, # of connection points: 5
#     Node 10, Type 0, BuildingBlock: BEQFEK_clean_sbu_0, # of connection points: 5
#     Node 11, Type 0, BuildingBlock: BEQFEK_clean_sbu_0, # of connection points: 5
#     Node 12, Type 0, BuildingBlock: BEQFEK_clean_sbu_0, # of connection points: 5
#     Node 13, Type 0, BuildingBlock: BEQFEK_clean_sbu_0, # of connection points: 5
#     Node 14, Type 0, BuildingBlock: BEQFEK_clean_sbu_0, # of connection points: 5
#     Node 15, Type 0, BuildingBlock: BEQFEK_clean_sbu_0, # of connection points: 5
#     Edge 16, Type (0, 0), BuildingBlock: AJUNOK_clean_linker_0, # of connection points: 2
#     Edge 17, Type (0, 0), BuildingBlock: AJUNOK_clean_linker_0, # of connection points: 2
#     Edge 18, Type (0, 0), BuildingBlock: AJUNOK_clean_linker_0, # of connection points: 2
#     Edge 19, Type (0, 0), BuildingBlock: AJUNOK_clean_linker_0, # of connection points: 2
#     Edge 20, Type (0, 0), BuildingBlock: AJUNOK_clean_linker_0, # of connection points: 2
#     Edge 21, Type (0, 0), BuildingBlock: AJUNOK_clean_linker_0, # of connection points: 2
#     Edge 22, Type (0, 0), BuildingBlock: AJUNOK_clean_linker_0, # of connection points: 2
#     Edge 23, Type (0, 0), BuildingBlock: AJUNOK_clean_linker_0, # of connection points: 2
#     Edge 24, Type (0, 0), BuildingBlock: AJUNOK_clean_linker_0, # of connection points: 2
#     Edge 25, Type (0, 0), BuildingBlock: AJUNOK_clean_linker_0, # of connection points: 2
#     Edge 26, Type (0, 0), BuildingBlock: AJUNOK_clean_linker_0, # of connection points: 2
#     Edge 27, Type (0, 0), BuildingBlock: AJUNOK_clean_linker_0, # of connection points: 2
#     Edge 28, Type (0, 0), BuildingBlock: AJUNOK_clean_linker_0, # of connection points: 2
#     Edge 29, Type (0, 0), BuildingBlock: AJUNOK_clean_linker_0, # of connection points: 2
#     Edge 30, Type (0, 0), BuildingBlock: AJUNOK_clean_linker_0, # of connection points: 2
#     Edge 31, Type (0, 0), BuildingBlock: AJUNOK_clean_linker_0, # of connection points: 2
#     Edge 32, Type (0, 0), BuildingBlock: AJUNOK_clean_linker_0, # of connection points: 2
#     Edge 33, Type (0, 0), BuildingBlock: AJUNOK_clean_linker_0, # of connection points: 2
#     Edge 34, Type (0, 0), BuildingBlock: AJUNOK_clean_linker_0, # of connection points: 2
#     Edge 35, Type (0, 0), BuildingBlock: AJUNOK_clean_linker_0, # of connection points: 2
#     Edge 36, Type (0, 0), BuildingBlock: AJUNOK_clean_linker_0, # of connection points: 2
#     Edge 37, Type (0, 0), BuildingBlock: AJUNOK_clean_linker_0, # of connection points: 2
#     Edge 38, Type (0, 0), BuildingBlock: AJUNOK_clean_linker_0, # of connection points: 2
#     Edge 39, Type (0, 0), BuildingBlock: AJUNOK_clean_linker_0, # of connection points: 2
#     Edge 40, Type (0, 0), BuildingBlock: AJUNOK_clean_linker_0, # of connection points: 2
#     Edge 41, Type (0, 0), BuildingBlock: AJUNOK_clean_linker_0, # of connection points: 2
#     Edge 42, Type (0, 0), BuildingBlock: AJUNOK_clean_linker_0, # of connection points: 2
#     Edge 43, Type (0, 0), BuildingBlock: AJUNOK_clean_linker_0, # of connection points: 2
#     Edge 44, Type (0, 0), BuildingBlock: AJUNOK_clean_linker_0, # of connection points: 2
#     Edge 45, Type (0, 0), BuildingBlock: AJUNOK_clean_linker_0, # of connection points: 2
#     Edge 46, Type (0, 0), BuildingBlock: AJUNOK_clean_linker_0, # of connection points: 2
#     Edge 47, Type (0, 0), BuildingBlock: AJUNOK_clean_linker_0, # of connection points: 2
#     Edge 48, Type (0, 0), BuildingBlock: AJUNOK_clean_linker_0, # of connection points: 2
#     Edge 49, Type (0, 0), BuildingBlock: AJUNOK_clean_linker_0, # of connection points: 2
#     Edge 50, Type (0, 0), BuildingBlock: AJUNOK_clean_linker_0, # of connection points: 2
#     Edge 51, Type (0, 0), BuildingBlock: AJUNOK_clean_linker_0, # of connection points: 2
#     Edge 52, Type (0, 0), BuildingBlock: AJUNOK_clean_linker_0, # of connection points: 2
#     Edge 53, Type (0, 0), BuildingBlock: AJUNOK_clean_linker_0, # of connection points: 2
#     Edge 54, Type (0, 0), BuildingBlock: AJUNOK_clean_linker_0, # of connection points: 2
#     Edge 55, Type (0, 0), BuildingBlock: AJUNOK_clean_linker_0, # of connection points: 2
# Relax obj value: 0.067
# Max RMSD: 0.118
# Mean RMSD: 0.118
data_MOF--net-yfw--node1-BEQFEK_clean_sbu_0--edge1-AJUNOK_clean_linker_0
_symmetry_space_group_name_H-M    P1
_symmetry_Int_Tables_number       1
_symmetry_cell_setting            triclinic
loop_
_symmetry_equiv_pos_as_xyz
'x, y, z'
_cell_length_a     43.231489
_cell_length_b     43.147489
_cell_length_c     20.956747
_cell_angle_alpha  90.015044
_cell_angle_beta   89.920483
_cell_angle_gamma 89.984393
loop_
_atom_site_label
_atom_site_type_symbol
_atom_site_fract_x
_atom_site_fract_y
_atom_site_fract_z
_atom_type_partial_charge
Co0 Co 0.11714 0.05796 0.0133 0.0
Co1 Co 0.18675 0.08044 0.02304 0.0
C2 C 0.13255 0.12211 0.05743 0.0
O3 O 0.11257 0.1014 0.04349 0.0
O4 O 0.16147 0.1171 0.05005 0.0
C5 C 0.05365 0.0376 0.0331 0.0
O6 O 0.05509 0.05467 0.08493 0.0
C7 C 0.24163 0.11374 0.97364 0.0
C8 C 0.27945 0.08696 0.01802 0.0
C9 C 0.27367 0.11051 0.9747 0.0
N10 N 0.22923 0.09241 0.0131 0.0
N11 N 0.25203 0.07687 0.04018 0.0
C12 C 0.22296 0.13719 0.93781 0.0
H13 H 0.20539 0.14745 0.97018 0.0
H14 H 0.21024 0.12571 0.89846 0.0
H15 H 0.23786 0.15582 0.91807 0.0
C16 C 0.13758 0.04281 0.88295 0.0
N17 N 0.14295 0.05529 0.94073 0.0
N18 N 0.1725 0.06218 0.94568 0.0
C19 C 0.18711 0.05288 0.89193 0.0
C20 C 0.16535 0.041 0.85008 0.0
C21 C 0.10711 0.02952 0.86305 0.0
H22 H 0.08843 0.04654 0.87258 0.0
H23 H 0.10684 0.02289 0.81196 0.0
H24 H 0.10251 0.00852 0.89194 0.0
O25 O 0.13522 0.0341 0.08436 0.0
O26 O 0.18397 0.04975 0.09332 0.0
H27 H 0.23341 0.04758 0.92725 0.0
H28 H 0.22885 0.03701 0.84451 0.0
C29 C 0.22138 0.05339 0.88218 0.0
H30 H 0.2283 0.07682 0.86677 0.0
H31 H 0.24883 0.05852 0.07199 0.0
O32 O 0.07665 0.03725 0.9952 0.0
C33 C 0.16138 0.0331 0.11209 0.0
Co34 Co 0.95205 0.62426 0.28349 0.0
Co35 Co 0.92619 0.69298 0.27961 0.0
C36 C 0.88731 0.64115 0.32757 0.0
O37 O 0.90949 0.62206 0.31884 0.0
O38 O 0.88939 0.66954 0.31104 0.0
C39 C 0.96292 0.55762 0.2521 0.0
O40 O 0.93702 0.55753 0.2194 0.0
C41 C 0.89472 0.74922 0.22837 0.0
C42 C 0.92887 0.78474 0.25649 0.0
C43 C 0.90237 0.7803 0.22063 0.0
N44 N 0.9165 0.73579 0.26515 0.0
N45 N 0.93623 0.75745 0.2833 0.0
C46 C 0.8691 0.73197 0.19622 0.0
H47 H 0.87376 0.70666 0.19663 0.0
H48 H 0.86603 0.74031 0.14651 0.0
H49 H 0.84721 0.73643 0.22237 0.0
C50 C 0.96834 0.63945 0.15033 0.0
N51 N 0.95419 0.64637 0.20583 0.0
N52 N 0.94408 0.6752 0.20382 0.0
C53 C 0.95165 0.68743 0.14645 0.0
C54 C 0.96708 0.66517 0.11095 0.0
C55 C 0.98587 0.61011 0.1382 0.0
H56 H 1.00017 0.60432 0.18042 0.0
H57 H 0.96922 0.59097 0.13015 0.0
H58 H 1.00114 0.61208 0.09579 0.0
O59 O 0.97695 0.64561 0.34687 0.0
O60 O 0.9569 0.69291 0.35092 0.0
H61 H 0.95413 0.73644 0.16212 0.0
H62 H 0.95558 0.7255 0.07903 0.0
C63 C 0.94515 0.72002 0.12602 0.0
H64 H 0.91991 0.72313 0.12125 0.0
H65 H 0.95594 0.75319 0.31059 0.0
O66 O 0.97165 0.58239 0.27952 0.0
C67 C 0.97586 0.67254 0.37101 0.0
Co68 Co 0.38826 0.44989 0.51169 0.0
Co69 Co 0.31908 0.42644 0.50593 0.0
C70 C 0.36763 0.38614 0.55976 0.0
O71 O 0.3875 0.40765 0.55095 0.0
O72 O 0.33958 0.38885 0.5416 0.0
C73 C 0.45398 0.46126 0.47266 0.0
O74 O 0.45174 0.44005 0.42796 0.0
C75 C 0.25846 0.39764 0.46657 0.0
C76 C 0.22913 0.43937 0.47464 0.0
C77 C 0.22852 0.40861 0.45587 0.0
N78 N 0.27577 0.42119 0.48942 0.0
N79 N 0.25782 0.44582 0.4949 0.0
C80 C 0.2704 0.36548 0.45613 0.0
H81 H 0.29027 0.36081 0.48812 0.0
H82 H 0.27845 0.36298 0.40615 0.0
H83 H 0.25181 0.34822 0.46473 0.0
C84 C 0.3745 0.46528 0.37641 0.0
N85 N 0.36725 0.45189 0.43261 0.0
N86 N 0.33893 0.44069 0.42935 0.0
C87 C 0.3279 0.44553 0.36988 0.0
C88 C 0.35006 0.46112 0.33453 0.0
C89 C 0.40164 0.48627 0.3662 0.0
H90 H 0.40871 0.49713 0.41181 0.0
H91 H 0.42121 0.47272 0.34647 0.0
H92 H 0.39599 0.50483 0.33143 0.0
O93 O 0.368 0.47748 0.57125 0.0
O94 O 0.32028 0.4589 0.5749 0.0
H95 H 0.27873 0.45066 0.36992 0.0
H96 H 0.2945 0.43803 0.29453 0.0
C97 C 0.29659 0.4359 0.3471 0.0
H98 H 0.29244 0.41148 0.36041 0.0
H99 H 0.26549 0.46748 0.51033 0.0
O100 O 0.43102 0.46697 0.50863 0.0
C101 C 0.34085 0.47789 0.59397 0.0
Co102 Co 0.5538 0.88538 0.75799 0.0
Co103 Co 0.5772 0.81549 0.76291 0.0
C104 C 0.61846 0.86773 0.80276 0.0
O105 O 0.59732 0.88769 0.79081 0.0
O106 O 0.61423 0.83884 0.79244 0.0
C107 C 0.5304 0.94694 0.78637 0.0
O108 O 0.54204 0.94127 0.84306 0.0
C109 C 0.60867 0.75668 0.72535 0.0
C110 C 0.57021 0.72386 0.7413 0.0
C111 C 0.59977 0.7259 0.71599 0.0
N112 N 0.58483 0.77204 0.75224 0.0
N113 N 0.56228 0.75205 0.76293 0.0
C114 C 0.63929 0.77134 0.71125 0.0
H115 H 0.64555 0.78746 0.75041 0.0
H116 H 0.63764 0.78524 0.66689 0.0
H117 H 0.65767 0.75356 0.70588 0.0
C118 C 0.53908 0.86672 0.62622 0.0
N119 N 0.5516 0.86067 0.68365 0.0
N120 N 0.56122 0.83172 0.68492 0.0
C121 C 0.55509 0.81852 0.62781 0.0
C122 C 0.54082 0.84021 0.58912 0.0
C123 C 0.52254 0.89617 0.61044 0.0
H124 H 0.50256 0.89863 0.64323 0.0
H125 H 0.53826 0.91613 0.61817 0.0
H126 H 0.51395 0.8965 0.56064 0.0
O127 O 0.5285 0.86691 0.82575 0.0
O128 O 0.54605 0.81867 0.83244 0.0
H129 H 0.54948 0.76973 0.64145 0.0
H130 H 0.55648 0.78071 0.55965 0.0
C131 C 0.56247 0.78576 0.61004 0.0
H132 H 0.58752 0.78169 0.61613 0.0
H133 H 0.54079 0.75803 0.78207 0.0
O134 O 0.53448 0.92716 0.74203 0.0
C135 C 0.52837 0.84032 0.85178 0.0
Co136 Co 0.88148 0.05526 0.52002 0.0
Co137 Co 0.81267 0.0797 0.52809 0.0
C138 C 0.86602 0.1197 0.56576 0.0
O139 O 0.88517 0.09793 0.55392 0.0
O140 O 0.83715 0.11684 0.55451 0.0
C141 C 0.9443 0.03615 0.54281 0.0
O142 O 0.93981 0.04993 0.59795 0.0
C143 C 0.75615 0.10996 0.48006 0.0
C144 C 0.72051 0.07922 0.52132 0.0
C145 C 0.72477 0.10326 0.47842 0.0
N146 N 0.76988 0.09 0.52048 0.0
N147 N 0.74827 0.07239 0.54646 0.0
C148 C 0.77329 0.13244 0.43875 0.0
H149 H 0.79812 0.12603 0.43559 0.0
H150 H 0.7629 0.1335 0.39039 0.0
H151 H 0.77149 0.15587 0.46025 0.0
C152 C 0.86195 0.04013 0.38996 0.0
N153 N 0.85627 0.05325 0.44697 0.0
N154 N 0.82694 0.06134 0.45034 0.0
C155 C 0.81279 0.05251 0.39571 0.0
C156 C 0.83466 0.03939 0.35555 0.0
C157 C 0.89213 0.0254 0.37218 0.0
H158 H 0.89715 0.00629 0.40603 0.0
H159 H 0.91093 0.04278 0.37635 0.0
H160 H 0.89185 0.01584 0.32308 0.0
O161 O 0.86348 0.03017 0.58878 0.0
O162 O 0.81604 0.04939 0.59892 0.0
H163 H 0.76566 0.04871 0.42712 0.0
H164 H 0.77143 0.03862 0.34462 0.0
C165 C 0.77874 0.0545 0.38329 0.0
H166 H 0.77287 0.07828 0.36787 0.0
H167 H 0.75276 0.05416 0.57783 0.0
O168 O 0.92277 0.03664 0.50158 0.0
C169 C 0.83745 0.03112 0.61703 0.0
Co170 Co 0.94938 0.38576 0.77774 0.0
Co171 Co 0.92821 0.31548 0.76681 0.0
C172 C 0.88558 0.36361 0.81843 0.0
O173 O 0.90622 0.38444 0.81037 0.0
O174 O 0.88983 0.33548 0.8013 0.0
C175 C 0.96036 0.45377 0.75166 0.0
O176 O 0.93759 0.45452 0.71025 0.0
C177 C 0.90073 0.25504 0.72228 0.0
C178 C 0.94272 0.2261 0.72975 0.0
C179 C 0.9122 0.22537 0.70979 0.0
N180 N 0.92379 0.27231 0.74715 0.0
N181 N 0.94856 0.25458 0.75226 0.0
C182 C 0.86864 0.26687 0.71138 0.0
H183 H 0.86345 0.28618 0.74464 0.0
H184 H 0.86668 0.27581 0.66194 0.0
H185 H 0.85149 0.24798 0.71785 0.0
C186 C 0.96775 0.37376 0.64332 0.0
N187 N 0.95408 0.36525 0.69848 0.0
N188 N 0.94404 0.33654 0.69316 0.0
C189 C 0.95025 0.3263 0.63362 0.0
C190 C 0.96551 0.34942 0.60025 0.0
C191 C 0.98573 0.40309 0.63466 0.0
H192 H 0.99765 0.4093 0.67968 0.0
H193 H 0.9696 0.42208 0.62193 0.0
H194 H 0.00314 0.40076 0.59599 0.0
O195 O 0.97342 0.36502 0.84293 0.0
O196 O 0.95871 0.31583 0.8386 0.0
H197 H 0.95632 0.27716 0.63052 0.0
H198 H 0.94412 0.29382 0.55576 0.0
C199 C 0.94147 0.2951 0.60835 0.0
H200 H 0.91704 0.2903 0.62033 0.0
H201 H 0.96992 0.26232 0.76902 0.0
O202 O 0.96697 0.42851 0.77968 0.0
C203 C 0.97478 0.33741 0.86319 0.0
Co204 Co 0.62297 0.44302 0.02559 0.0
Co205 Co 0.69396 0.42454 0.02974 0.0
C206 C 0.64316 0.37921 0.06409 0.0
O207 O 0.62186 0.39882 0.05166 0.0
O208 O 0.67174 0.3861 0.0576 0.0
C209 C 0.55634 0.45458 0.99044 0.0
O210 O 0.55603 0.42948 0.95496 0.0
C211 C 0.75244 0.39454 0.98512 0.0
C212 C 0.78588 0.43083 0.01247 0.0
C213 C 0.78354 0.40289 0.98016 0.0
N214 N 0.73731 0.41703 0.01727 0.0
N215 N 0.75765 0.43825 0.03447 0.0
C216 C 0.73725 0.36582 0.96024 0.0
H217 H 0.71717 0.35958 0.9906 0.0
H218 H 0.72862 0.36995 0.91119 0.0
H219 H 0.75396 0.34628 0.95891 0.0
C220 C 0.64081 0.46296 0.89563 0.0
N221 N 0.64727 0.44913 0.95164 0.0
N222 N 0.67688 0.44177 0.95312 0.0
C223 C 0.69009 0.45084 0.89769 0.0
C224 C 0.66768 0.4644 0.85973 0.0
C225 C 0.61027 0.47726 0.87952 0.0
H226 H 0.60197 0.49135 0.92033 0.0
H227 H 0.59321 0.4586 0.87041 0.0
H228 H 0.61178 0.49226 0.83665 0.0
O229 O 0.64105 0.46668 0.0953 0.0
O230 O 0.69089 0.45526 0.10075 0.0
H231 H 0.73796 0.45877 0.91796 0.0
H232 H 0.72921 0.457 0.8338 0.0
C233 C 0.7236 0.44718 0.88129 0.0
H234 H 0.72947 0.42228 0.88007 0.0
H235 H 0.752 0.45862 0.05875 0.0
O236 O 0.58089 0.46208 0.01991 0.0
C237 C 0.66742 0.47026 0.12065 0.0
Co238 Co 0.55852 0.12138 0.28357 0.0
Co239 Co 0.57733 0.19215 0.28673 0.0
C240 C 0.62207 0.13894 0.31781 0.0
O241 O 0.60253 0.11763 0.30526 0.0
O242 O 0.61501 0.16762 0.31229 0.0
C243 C 0.54521 0.05374 0.26634 0.0
O244 O 0.57505 0.04837 0.26185 0.0
C245 C 0.60743 0.24557 0.22511 0.0
C246 C 0.58331 0.28469 0.27144 0.0
C247 C 0.60439 0.27751 0.22393 0.0
N248 N 0.58878 0.23429 0.27107 0.0
N249 N 0.5749 0.25789 0.29938 0.0
C250 C 0.62537 0.226 0.17928 0.0
H251 H 0.62013 0.20106 0.18639 0.0
H252 H 0.61995 0.23292 0.12952 0.0
H253 H 0.65046 0.23002 0.18682 0.0
C254 C 0.53973 0.13868 0.1541 0.0
N255 N 0.55289 0.14581 0.2102 0.0
N256 N 0.55779 0.17584 0.21287 0.0
C257 C 0.54624 0.18907 0.1596 0.0
C258 C 0.53482 0.16586 0.12012 0.0
C259 C 0.53196 0.10631 0.13404 0.0
H260 H 0.55033 0.0902 0.15027 0.0
H261 H 0.52963 0.10453 0.08144 0.0
H262 H 0.50984 0.09924 0.15672 0.0
O263 O 0.53846 0.14046 0.35841 0.0
O264 O 0.5483 0.19105 0.35975 0.0
H265 H 0.52111 0.22807 0.12095 0.0
H266 H 0.56213 0.23344 0.128 0.0
C267 C 0.54153 0.22324 0.1514 0.0
H268 H 0.53816 0.23452 0.19841 0.0
H269 H 0.55842 0.25559 0.33549 0.0
O270 O 0.53579 0.08137 0.27419 0.0
C271 C 0.53535 0.16716 0.38321 0.0
Co272 Co 0.62335 0.55519 0.52993 0.0
Co273 Co 0.69301 0.57753 0.52688 0.0
C274 C 0.64356 0.6199 0.57088 0.0
O275 O 0.62344 0.59853 0.56335 0.0
O276 O 0.67189 0.61606 0.55568 0.0
C277 C 0.55908 0.54489 0.48406 0.0
O278 O 0.56359 0.56617 0.44024 0.0
C279 C 0.7529 0.60642 0.48606 0.0
C280 C 0.78384 0.56646 0.50215 0.0
C281 C 0.78328 0.59626 0.47761 0.0
N282 N 0.73643 0.58325 0.5128 0.0
N283 N 0.75531 0.55974 0.52327 0.0
C284 C 0.7397 0.63752 0.46986 0.0
H285 H 0.72023 0.64316 0.50234 0.0
H286 H 0.73065 0.63722 0.42039 0.0
H287 H 0.75775 0.65573 0.47332 0.0
C288 C 0.63979 0.53548 0.39843 0.0
N289 N 0.64623 0.55037 0.45339 0.0
N290 N 0.67486 0.56081 0.45102 0.0
C291 C 0.68703 0.55375 0.39335 0.0
C292 C 0.66515 0.53773 0.35836 0.0
C293 C 0.61218 0.51517 0.38792 0.0
H294 H 0.59338 0.52897 0.36601 0.0
H295 H 0.61778 0.49588 0.35479 0.0
H296 H 0.60409 0.50526 0.43375 0.0
O297 O 0.64203 0.52969 0.59529 0.0
O298 O 0.69022 0.54716 0.59922 0.0
H299 H 0.72269 0.55626 0.32074 0.0
H300 H 0.72319 0.58667 0.37915 0.0
C301 C 0.71908 0.56165 0.37196 0.0
H302 H 0.73604 0.54834 0.40056 0.0
H303 H 0.74837 0.53852 0.5424 0.0
O304 O 0.58049 0.5385 0.52336 0.0
C305 C 0.66879 0.52954 0.61993 0.0
Co306 Co 0.44024 0.12373 0.78764 0.0
Co307 Co 0.42723 0.19633 0.78491 0.0
C308 C 0.37866 0.14796 0.82265 0.0
O309 O 0.39584 0.1246 0.81064 0.0
O310 O 0.38811 0.17581 0.81546 0.0
C311 C 0.44999 0.05549 0.76226 0.0
O312 O 0.42256 0.05389 0.73558 0.0
C313 C 0.40043 0.25343 0.7274 0.0
C314 C 0.43233 0.28865 0.76597 0.0
C315 C 0.40752 0.28502 0.72471 0.0
N316 N 0.42046 0.23948 0.76746 0.0
N317 N 0.43915 0.26081 0.79086 0.0
C318 C 0.37512 0.23651 0.69352 0.0
H319 H 0.36907 0.21498 0.71962 0.0
H320 H 0.38312 0.22986 0.64512 0.0
H321 H 0.35435 0.25147 0.68885 0.0
C322 C 0.46203 0.13781 0.65706 0.0
N323 N 0.4484 0.14645 0.71204 0.0
N324 N 0.44455 0.17673 0.71183 0.0
C325 C 0.45665 0.18838 0.65747 0.0
C326 C 0.46797 0.1641 0.62096 0.0
C327 C 0.46918 0.10494 0.6397 0.0
H328 H 0.44835 0.0905 0.64762 0.0
H329 H 0.47635 0.10276 0.58904 0.0
H330 H 0.48792 0.09613 0.67094 0.0
O331 O 0.4617 0.14274 0.86069 0.0
O332 O 0.45689 0.19398 0.85642 0.0
H333 H 0.47945 0.2261 0.60797 0.0
H334 H 0.4394 0.23238 0.62703 0.0
C335 C 0.46132 0.22219 0.64459 0.0
H336 H 0.46823 0.23422 0.68901 0.0
H337 H 0.45732 0.25619 0.82219 0.0
O338 O 0.45941 0.08125 0.78451 0.0
C339 C 0.46744 0.1696 0.88255 0.0
Co340 Co 0.87842 0.94675 0.02654 0.0
Co341 Co 0.80806 0.92573 0.02662 0.0
C342 C 0.85972 0.88219 0.06411 0.0
O343 O 0.8802 0.90295 0.05408 0.0
O344 O 0.83097 0.88754 0.05479 0.0
C345 C 0.9461 0.95679 0.00246 0.0
O346 O 0.94834 0.92826 0.98109 0.0
C347 C 0.75093 0.89766 0.97196 0.0
C348 C 0.71623 0.93086 0.00832 0.0
C349 C 0.71996 0.90619 0.96672 0.0
N350 N 0.76493 0.91734 0.01276 0.0
N351 N 0.74376 0.93646 0.03563 0.0
C352 C 0.76765 0.87345 0.93419 0.0
H353 H 0.7929 0.87812 0.93387 0.0
H354 H 0.75865 0.87241 0.88465 0.0
H355 H 0.76363 0.85052 0.95667 0.0
C356 C 0.86298 0.96457 0.89537 0.0
N357 N 0.85537 0.95121 0.95117 0.0
N358 N 0.82574 0.94395 0.95095 0.0
C359 C 0.81349 0.95326 0.89475 0.0
C360 C 0.83675 0.96626 0.85784 0.0
C361 C 0.89407 0.97823 0.88122 0.0
H362 H 0.89985 0.99563 0.91831 0.0
H363 H 0.91178 0.95966 0.88299 0.0
H364 H 0.89481 0.98958 0.83378 0.0
O365 O 0.85869 0.97071 0.09401 0.0
O366 O 0.80962 0.95597 0.09852 0.0
H367 H 0.76536 0.95857 0.91742 0.0
H368 H 0.77438 0.96503 0.83441 0.0
C369 C 0.78004 0.95096 0.87701 0.0
H370 H 0.77458 0.92664 0.86497 0.0
H371 H 0.74851 0.95472 0.06678 0.0
O372 O 0.91996 0.96689 0.02096 0.0
C373 C 0.83192 0.97256 0.11851 0.0
Co374 Co 0.06129 0.38534 0.26093 0.0
Co375 Co 0.07765 0.31407 0.2747 0.0
C376 C 0.12221 0.36514 0.31249 0.0
O377 O 0.10328 0.38652 0.2969 0.0
O378 O 0.11601 0.33646 0.30414 0.0
C379 C 0.03809 0.44637 0.28589 0.0
O380 O 0.04658 0.43947 0.34436 0.0
C381 C 0.10347 0.25639 0.2212 0.0
C382 C 0.07429 0.22131 0.26876 0.0
C383 C 0.09621 0.22501 0.22101 0.0
N384 N 0.08591 0.27059 0.26564 0.0
N385 N 0.06913 0.24932 0.29493 0.0
C386 C 0.12394 0.27317 0.17512 0.0
H387 H 0.11952 0.29849 0.17677 0.0
H388 H 0.12044 0.26425 0.12598 0.0
H389 H 0.14844 0.26894 0.18824 0.0
C390 C 0.04801 0.36561 0.13024 0.0
N391 N 0.05907 0.35947 0.18872 0.0
N392 N 0.0621 0.32933 0.19555 0.0
C393 C 0.05117 0.31525 0.14247 0.0
C394 C 0.04233 0.33786 0.09913 0.0
C395 C 0.04119 0.39749 0.10607 0.0
H396 H 0.05843 0.4142 0.12482 0.0
H397 H 0.04146 0.39806 0.05311 0.0
H398 H 0.0179 0.40447 0.12278 0.0
O399 O 0.03446 0.36948 0.32936 0.0
O400 O 0.04603 0.31982 0.34293 0.0
H401 H 0.02311 0.27763 0.10691 0.0
H402 H 0.06334 0.26895 0.11574 0.0
C403 C 0.04363 0.28144 0.1377 0.0
H404 H 0.03885 0.27166 0.18556 0.0
H405 H 0.05262 0.2542 0.32993 0.0
O406 O 0.04399 0.42727 0.24123 0.0
C407 C 0.03071 0.34393 0.35853 0.0
Co408 Co 0.38685 0.55793 0.99837 0.0
Co409 Co 0.31557 0.57423 0.01112 0.0
C410 C 0.3658 0.61956 0.04954 0.0
O411 O 0.38755 0.60112 0.03284 0.0
O412 O 0.33741 0.6121 0.04254 0.0
C413 C 0.44723 0.53295 0.02413 0.0
O414 O 0.43945 0.53986 0.08308 0.0
C415 C 0.25722 0.6049 0.97332 0.0
C416 C 0.22364 0.5677 0.99441 0.0
C417 C 0.22631 0.59647 0.96546 0.0
N418 N 0.27208 0.58149 0.00277 0.0
N419 N 0.25169 0.55972 0.01657 0.0
C420 C 0.27263 0.63461 0.95474 0.0
H421 H 0.28879 0.6419 0.99293 0.0
H422 H 0.28656 0.63095 0.91088 0.0
H423 H 0.2554 0.65326 0.94661 0.0
C424 C 0.3674 0.54464 0.8664 0.0
N425 N 0.36117 0.55499 0.92563 0.0
N426 N 0.33133 0.56063 0.93064 0.0
C427 C 0.31763 0.55349 0.87455 0.0
C428 C 0.34006 0.54345 0.83209 0.0
C429 C 0.39815 0.53211 0.84643 0.0
H430 H 0.41658 0.54902 0.85835 0.0
H431 H 0.39909 0.52663 0.79481 0.0
H432 H 0.40245 0.5105 0.87353 0.0
O433 O 0.37099 0.53107 0.06658 0.0
O434 O 0.32109 0.54162 0.07734 0.0
H435 H 0.27092 0.5423 0.89951 0.0
H436 H 0.27751 0.54529 0.81468 0.0
C437 C 0.28362 0.55509 0.86191 0.0
H438 H 0.27624 0.57961 0.86238 0.0
H439 H 0.25726 0.5386 0.03804 0.0
O440 O 0.42904 0.54062 0.97907 0.0
C441 C 0.34514 0.52659 0.09394 0.0
Co442 Co 0.44813 0.8819 0.26066 0.0
Co443 Co 0.42534 0.81202 0.26371 0.0
C444 C 0.38519 0.86424 0.31064 0.0
O445 O 0.40617 0.88422 0.29846 0.0
O446 O 0.38849 0.83556 0.29681 0.0
C447 C 0.45931 0.9491 0.26975 0.0
O448 O 0.43336 0.95062 0.30229 0.0
C449 C 0.39532 0.75485 0.21377 0.0
C450 C 0.42811 0.71963 0.24945 0.0
C451 C 0.40271 0.72344 0.20998 0.0
N452 N 0.41603 0.76882 0.2523 0.0
N453 N 0.43496 0.74741 0.27474 0.0
C454 C 0.37134 0.77203 0.17639 0.0
H455 H 0.37792 0.79679 0.17135 0.0
H456 H 0.36802 0.76134 0.12871 0.0
H457 H 0.34903 0.77101 0.20254 0.0
C458 C 0.46113 0.86585 0.12781 0.0
N459 N 0.44899 0.85853 0.18495 0.0
N460 N 0.44143 0.82896 0.18575 0.0
C461 C 0.44943 0.81636 0.12893 0.0
C462 C 0.46183 0.83941 0.09047 0.0
C463 C 0.47528 0.89665 0.11266 0.0
H464 H 0.45832 0.9153 0.12301 0.0
H465 H 0.48276 0.89828 0.06215 0.0
H466 H 0.49571 0.90032 0.14375 0.0
O467 O 0.47434 0.86241 0.3247 0.0
O468 O 0.45737 0.81405 0.33218 0.0
H469 H 0.46078 0.77669 0.0695 0.0
H470 H 0.42277 0.77692 0.10182 0.0
C471 C 0.44712 0.78266 0.11254 0.0
H472 H 0.45516 0.76836 0.15316 0.0
H473 H 0.45385 0.75207 0.30415 0.0
O474 O 0.46804 0.92315 0.24742 0.0
C475 C 0.47526 0.83578 0.35034 0.0
Co476 Co 0.12181 0.94798 0.52516 0.0
Co477 Co 0.19235 0.92798 0.51945 0.0
C478 C 0.14329 0.8842 0.56605 0.0
O479 O 0.12212 0.90435 0.5563 0.0
O480 O 0.17157 0.88982 0.55243 0.0
C481 C 0.05357 0.9589 0.50124 0.0
O482 O 0.05109 0.93295 0.46883 0.0
C483 C 0.25169 0.89887 0.47412 0.0
C484 C 0.28291 0.93871 0.48889 0.0
C485 C 0.28205 0.90892 0.46421 0.0
N486 N 0.23559 0.92205 0.50195 0.0
N487 N 0.25466 0.94549 0.51148 0.0
C488 C 0.23813 0.86795 0.45806 0.0
H489 H 0.21849 0.86265 0.49037 0.0
H490 H 0.22923 0.86831 0.40846 0.0
H491 H 0.25595 0.84951 0.46182 0.0
C492 C 0.13516 0.96629 0.39229 0.0
N493 N 0.14328 0.95256 0.44747 0.0
N494 N 0.17249 0.94396 0.44433 0.0
C495 C 0.18365 0.95157 0.38616 0.0
C496 C 0.16047 0.96611 0.35162 0.0
C497 C 0.10485 0.98227 0.38176 0.0
H498 H 0.09915 0.99677 0.42386 0.0
H499 H 0.08645 0.96458 0.37626 0.0
H500 H 0.10527 0.99717 0.33866 0.0
O501 O 0.14187 0.97329 0.5895 0.0
O502 O 0.19111 0.95903 0.59038 0.0
H503 H 0.23249 0.95891 0.3919 0.0
H504 H 0.2188 0.95075 0.31226 0.0
C505 C 0.21584 0.94509 0.36354 0.0
H506 H 0.22102 0.92022 0.3701 0.0
H507 H 0.24805 0.9667 0.53116 0.0
O508 O 0.07966 0.96671 0.52394 0.0
C509 C 0.16901 0.97557 0.61169 0.0
Co510 Co 0.05831 0.62504 0.77321 0.0
Co511 Co 0.0806 0.69479 0.78186 0.0
C512 C 0.12199 0.64194 0.81854 0.0
O513 O 0.10093 0.62197 0.80748 0.0
O514 O 0.11798 0.67078 0.808 0.0
C515 C 0.03367 0.56501 0.80029 0.0
O516 O 0.04048 0.5733 0.85893 0.0
C517 C 0.11153 0.75086 0.73302 0.0
C518 C 0.08171 0.78743 0.77384 0.0
C519 C 0.10589 0.78262 0.73144 0.0
N520 N 0.09105 0.73769 0.77322 0.0
N521 N 0.07392 0.7598 0.79877 0.0
C522 C 0.13327 0.73274 0.69171 0.0
H523 H 0.12505 0.70851 0.68633 0.0
H524 H 0.13586 0.7438 0.64418 0.0
H525 H 0.15632 0.73209 0.71488 0.0
C526 C 0.04292 0.64469 0.64306 0.0
N527 N 0.05581 0.65048 0.7002 0.0
N528 N 0.06296 0.68009 0.70404 0.0
C529 C 0.05385 0.69425 0.64962 0.0
C530 C 0.04129 0.67218 0.60924 0.0
C531 C 0.02927 0.61411 0.62453 0.0
H532 H 0.00957 0.60882 0.65672 0.0
H533 H 0.04687 0.59563 0.63061 0.0
H534 H 0.02087 0.61408 0.57455 0.0
O535 O 0.03293 0.64264 0.84181 0.0
O536 O 0.04994 0.69094 0.85259 0.0
H537 H 0.04889 0.74135 0.68116 0.0
H538 H 0.03971 0.73549 0.59809 0.0
C539 C 0.05527 0.72842 0.63744 0.0
H540 H 0.07903 0.73479 0.62291 0.0
H541 H 0.05551 0.7558 0.83 0.0
O542 O 0.04046 0.58329 0.75479 0.0
C543 C 0.03253 0.66867 0.87026 0.0
C544 C 0.97228 0.00446 0.04458 0.0
C545 C 0.97373 0.97732 0.00718 0.0
C546 C 0.99805 0.02389 0.05197 0.0
C547 C 0.02633 0.01734 0.02155 0.0
H548 H 0.95116 0.0106 0.06944 0.0
H549 H 0.99576 0.04422 0.08197 0.0
S550 S 0.04235 0.94962 0.91701 0.0
N551 N 0.00585 0.94524 0.93844 0.0
N552 N 0.05416 0.98178 0.95198 0.0
C553 C 0.02801 0.99058 0.9831 0.0
C554 C 0.0018 0.97057 0.97608 0.0
C555 C 0.00319 0.52646 0.30909 0.0
C556 C 0.98218 0.5292 0.25805 0.0
C557 C 0.02136 0.49981 0.31707 0.0
C558 C 0.01978 0.47496 0.27374 0.0
H559 H 0.00528 0.54485 0.344 0.0
H560 H 0.03678 0.4987 0.35772 0.0
S561 S 0.96916 0.47079 0.13087 0.0
N562 N 0.96123 0.50487 0.16281 0.0
N563 N 0.99562 0.455 0.17737 0.0
C564 C 0.99926 0.47759 0.22182 0.0
C565 C 0.98039 0.5046 0.21416 0.0
C566 C 0.51999 0.51409 0.42302 0.0
C567 C 0.53151 0.52465 0.48192 0.0
C568 C 0.49556 0.49265 0.42031 0.0
C569 C 0.48137 0.48168 0.47637 0.0
H570 H 0.53039 0.52189 0.37878 0.0
H571 H 0.48729 0.48515 0.37404 0.0
S572 S 0.50258 0.50265 0.64229 0.0
N573 N 0.52703 0.52243 0.5974 0.0
N574 N 0.48039 0.48317 0.59228 0.0
C575 C 0.49243 0.49239 0.53543 0.0
C576 C 0.51771 0.51359 0.53821 0.0
C577 C 0.5135 1.00048 0.81776 0.0
C578 C 0.51066 0.9749 0.77644 0.0
C579 C 0.49407 0.02644 0.81223 0.0
C580 C 0.47049 0.02776 0.76595 0.0
H581 H 0.53089 1.00047 0.85493 0.0
H582 H 0.49725 0.04544 0.84539 0.0
S583 S 0.45342 0.96715 0.64529 0.0
N584 N 0.48259 0.95289 0.68672 0.0
N585 N 0.44587 1.00136 0.677 0.0
C586 C 0.46746 1.00245 0.72404 0.0
C587 C 0.4876 0.97618 0.72903 0.0
C588 C 0.999 0.97494 0.47598 0.0
C589 C 0.02627 0.97942 0.51144 0.0
C590 C 0.97294 0.9939 0.48522 0.0
C591 C 0.9729 0.01785 0.53094 0.0
H592 H 0.9977 0.95664 0.4407 0.0
H593 H 0.95243 0.98925 0.45716 0.0
S594 S 0.03867 0.04006 0.63504 0.0
N595 N 0.05178 0.01046 0.59312 0.0
N596 N 0.0028 0.04562 0.61072 0.0
C597 C 1.00008 0.02284 0.56624 0.0
C598 C 0.02673 0.00378 0.55642 0.0
C599 C 0.98091 0.50602 0.71982 0.0
C600 C 0.97921 0.48188 0.76482 0.0
C601 C 0.99917 0.53243 0.73092 0.0
C602 C 0.01604 0.536 0.78797 0.0
H603 H 0.96829 0.50441 0.67532 0.0
H604 H 0.9996 0.55042 0.69489 0.0
S605 S 0.01933 0.47951 0.92149 0.0
N606 N 0.99613 0.46326 0.86872 0.0
N607 N 0.02997 0.51287 0.8898 0.0
C608 C 0.01451 0.51202 0.83337 0.0
C609 C 0.99625 0.485 0.82175 0.0
C610 C 0.52508 0.49387 0.05043 0.0
C611 C 0.52852 0.47466 0.99651 0.0
C612 C 0.49902 0.5129 0.05824 0.0
C613 C 0.47552 0.51409 0.01188 0.0
H614 H 0.54244 0.49384 0.08768 0.0
H615 H 0.49729 0.52676 0.10121 0.0
S616 S 0.47405 0.46939 0.8603 0.0
N617 N 0.50653 0.45856 0.89515 0.0
N618 N 0.45794 0.49474 0.9091 0.0
C619 C 0.47903 0.49553 0.95696 0.0
C620 C 0.50536 0.47569 0.94953 0.0
C621 C 0.51193 0.97219 0.25268 0.0
C622 C 0.48015 0.97646 0.26492 0.0
C623 C 0.53265 0.99725 0.25255 0.0
C624 C 0.52247 0.02774 0.26397 0.0
H625 H 0.52114 0.94915 0.2447 0.0
H626 H 0.55692 0.99253 0.24407 0.0
S627 S 0.441 0.05177 0.29324 0.0
N628 N 0.43921 0.01375 0.28537 0.0
N629 N 0.47784 0.06087 0.28437 0.0
C630 C 0.49051 0.03246 0.2742 0.0
C631 C 0.46948 0.00685 0.27491 0.0
C632 C 0.14243 0.97395 0.23994 0.0
C633 C 0.1631 0.98158 0.28899 0.0
C634 C 0.14293 0.98992 0.1818 0.0
C635 C 0.16425 0.01402 0.17054 0.0
H636 H 0.12535 0.95589 0.24709 0.0
H637 H 0.12603 0.98371 0.14587 0.0
S638 S 0.22326 0.04273 0.28472 0.0
N639 N 0.20531 0.01468 0.32347 0.0
N640 N 0.20689 0.04434 0.21366 0.0
C641 C 0.18567 0.02123 0.21885 0.0
C642 C 0.1849 0.00513 0.27828 0.0
C643 C 0.03909 0.66255 0.49269 0.0
C644 C 0.02651 0.67694 0.54679 0.0
C645 C 0.02342 0.66311 0.43437 0.0
C646 C 0.99476 0.6783 0.42822 0.0
H647 H 0.0606 0.64976 0.49618 0.0
H648 H 0.03322 0.65052 0.39442 0.0
S649 S 0.95255 0.72006 0.55613 0.0
N650 N 0.98421 0.7071 0.59117 0.0
N651 N 0.95497 0.70893 0.48085 0.0
C652 C 0.98268 0.69407 0.48139 0.0
C653 C 0.99849 0.69311 0.54103 0.0
C654 C 0.31783 0.48716 0.70149 0.0
C655 C 0.33503 0.49823 0.64924 0.0
C656 C 0.31833 0.50277 0.76021 0.0
C657 C 0.33565 0.53007 0.76797 0.0
H658 H 0.30572 0.46523 0.69837 0.0
H659 H 0.3064 0.4926 0.8006 0.0
S660 S 0.38055 0.57107 0.6435 0.0
N661 N 0.36713 0.53984 0.6073 0.0
N662 N 0.36734 0.56941 0.71741 0.0
C663 C 0.35095 0.54257 0.71497 0.0
C664 C 0.35078 0.5266 0.65556 0.0
C665 C 0.46583 0.85279 0.97536 0.0
C666 C 0.47703 0.83605 0.02787 0.0
C667 C 0.48189 0.85289 0.91731 0.0
C668 C 0.50946 0.83593 0.90973 0.0
H669 H 0.44505 0.86667 0.97992 0.0
H670 H 0.47307 0.86697 0.87858 0.0
S671 S 0.54832 0.7885 0.03363 0.0
N672 N 0.51729 0.80249 0.06954 0.0
N673 N 0.54702 0.80165 0.95967 0.0
C674 C 0.52029 0.81822 0.96143 0.0
C675 C 0.50419 0.81859 0.02083 0.0
C676 C 0.85086 0.98554 0.68457 0.0
C677 C 0.83354 0.01286 0.676 0.0
C678 C 0.85094 0.97 0.74318 0.0
C679 C 0.83396 0.98141 0.79519 0.0
H680 H 0.86498 0.97646 0.64612 0.0
H681 H 0.86496 0.94934 0.74838 0.0
S682 S 0.78559 0.05225 0.79867 0.0
N683 N 0.79884 0.05051 0.72481 0.0
N684 N 0.79992 0.02165 0.83558 0.0
C685 C 0.81626 0.00838 0.78732 0.0
C686 C 0.81576 0.02399 0.72743 0.0
C687 C 0.97923 0.3489 0.97745 0.0
C688 C 0.9904 0.33257 0.92428 0.0
C689 C 0.99561 0.34926 0.0347 0.0
C690 C 0.02404 0.33379 0.04033 0.0
H691 H 0.95801 0.3622 0.97417 0.0
H692 H 0.98628 0.36237 0.07438 0.0
S693 S 0.06225 0.28617 0.91595 0.0
N694 N 0.0304 0.29903 0.88129 0.0
N695 N 0.0619 0.30023 0.98935 0.0
C696 C 0.03483 0.31619 0.98844 0.0
C697 C 0.01784 0.31553 0.93004 0.0
C698 C 0.69151 0.50172 0.28209 0.0
C699 C 0.66836 0.5238 0.29444 0.0
C700 C 0.69225 0.48553 0.22399 0.0
C701 C 0.66968 0.49083 0.1769 0.0
H702 H 0.70833 0.49601 0.31853 0.0
H703 H 0.70964 0.46774 0.21731 0.0
S704 S 0.60676 0.54946 0.18394 0.0
N705 N 0.62442 0.55243 0.25344 0.0
N706 N 0.62546 0.52214 0.14443 0.0
C707 C 0.64747 0.51418 0.18774 0.0
C708 C 0.64686 0.53059 0.24659 0.0
C709 C 0.49035 0.18317 0.45027 0.0
C710 C 0.5195 0.1691 0.44484 0.0
C711 C 0.4738 0.18175 0.50789 0.0
C712 C 0.48609 0.16635 0.56136 0.0
H713 H 0.47997 0.19444 0.40937 0.0
H714 H 0.45102 0.19217 0.51034 0.0
S715 S 0.56313 0.12905 0.57244 0.0
N716 N 0.56083 0.14111 0.4978 0.0
N717 N 0.53032 0.13948 0.60672 0.0
C718 C 0.5158 0.15343 0.55693 0.0
C719 C 0.53237 0.15452 0.49834 0.0
C720 C 0.65412 0.4685 0.74506 0.0
C721 C 0.67163 0.47913 0.79685 0.0
C722 C 0.65492 0.48395 0.68648 0.0
C723 C 0.67334 0.51053 0.67766 0.0
H724 H 0.63903 0.44862 0.75051 0.0
H725 H 0.64017 0.47561 0.6484 0.0
S726 S 0.72391 0.54714 0.79896 0.0
N727 N 0.70818 0.51733 0.83624 0.0
N728 N 0.71022 0.54621 0.72543 0.0
C729 C 0.69198 0.52061 0.72849 0.0
C730 C 0.69091 0.50498 0.78842 0.0
C731 C 0.48914 0.15337 0.05281 0.0
C732 C 0.51724 0.16932 0.06008 0.0
C733 C 0.47302 0.15414 0.99518 0.0
C734 C 0.48394 0.17164 0.94342 0.0
H735 H 0.47966 0.13986 0.09174 0.0
H736 H 0.45185 0.14084 0.99096 0.0
S737 S 0.55549 0.21862 0.93838 0.0
N738 N 0.55519 0.20339 0.01072 0.0
N739 N 0.52368 0.20619 0.903 0.0
C740 C 0.51122 0.18881 0.95057 0.0
C741 C 0.52816 0.18738 0.00892 0.0
C742 C 0.81168 0.99862 0.28545 0.0
C743 C 0.82999 0.02533 0.29226 0.0
C744 C 0.81048 0.98269 0.22714 0.0
C745 C 0.82804 0.99276 0.17459 0.0
H746 H 0.79937 0.98923 0.32614 0.0
H747 H 0.7973 0.96138 0.22443 0.0
S748 S 0.877 0.06329 0.16701 0.0
N749 N 0.86367 0.06272 0.24089 0.0
N750 N 0.86214 0.0325 0.13163 0.0
C751 C 0.84519 0.02032 0.18022 0.0
C752 C 0.84604 0.03665 0.23911 0.0
C753 C 0.01524 0.32074 0.46327 0.0
C754 C 0.01085 0.34363 0.41628 0.0
C755 C 1.00007 0.32252 0.52229 0.0
C756 C 0.97977 0.34706 0.53624 0.0
H757 H 0.03148 0.30198 0.45558 0.0
H758 H 0.00496 0.30504 0.55799 0.0
S759 S 0.95748 0.41099 0.4278 0.0
N760 N 0.98277 0.39045 0.38648 0.0
N761 N 0.95407 0.39329 0.49729 0.0
C762 C 0.9741 0.36933 0.48904 0.0
C763 C 0.98961 0.36769 0.42903 0.0
C764 C 0.32079 0.50982 0.19677 0.0
C765 C 0.34423 0.5061 0.15068 0.0
C766 C 0.32222 0.49433 0.25551 0.0
C767 C 0.34697 0.47443 0.26988 0.0
H768 H 0.30196 0.52593 0.18883 0.0
H769 H 0.3045 0.49894 0.29088 0.0
S770 S 0.41202 0.45345 0.16313 0.0
N771 N 0.39151 0.47865 0.12167 0.0
N772 N 0.39378 0.44947 0.23192 0.0
C773 C 0.36961 0.46917 0.22322 0.0
C774 C 0.36831 0.48496 0.16357 0.0
C775 C 0.52038 0.85208 0.4159 0.0
C776 C 0.49508 0.83194 0.4072 0.0
C777 C 0.53596 0.85365 0.47425 0.0
C778 C 0.52673 0.83523 0.52593 0.0
H779 H 0.52748 0.86767 0.37809 0.0
H780 H 0.55466 0.87016 0.47974 0.0
S781 S 0.46322 0.7776 0.52771 0.0
N782 N 0.4627 0.79193 0.45465 0.0
N783 N 0.49184 0.79537 0.56482 0.0
C784 C 0.50253 0.81396 0.51732 0.0
C785 C 0.48676 0.81213 0.4577 0.0
C786 C 0.18979 0.9846 0.72097 0.0
C787 C 0.17338 0.99563 0.66776 0.0
C788 C 0.18809 1.00005 0.77979 0.0
C789 C 0.17047 0.02725 0.78653 0.0
H790 H 0.20226 0.96285 0.71833 0.0
H791 H 0.1994 0.98989 0.82086 0.0
S792 S 0.12657 0.06757 0.65977 0.0
N793 N 0.14103 0.03659 0.62426 0.0
N794 N 0.13881 0.06611 0.73433 0.0
C795 C 0.15569 0.03953 0.73275 0.0
C796 C 0.15695 0.02362 0.67336 0.0
C797 C 0.97356 0.64926 0.99772 0.0
C798 C 0.98206 0.66881 0.04814 0.0
C799 C 0.98906 0.65051 0.93912 0.0
C800 C 0.01361 0.67143 0.92889 0.0
H801 H 0.95522 0.63242 0.00415 0.0
H802 H 0.98224 0.63439 0.90209 0.0
S803 S 0.04459 0.72751 0.047 0.0
N804 N 0.01641 0.7095 0.08517 0.0
N805 N 0.04528 0.7125 0.97451 0.0
C806 C 0.02169 0.69178 0.97867 0.0
C807 C 0.00604 0.69024 0.03855 0.0
C808 C 0.13599 0.19621 0.15649 0.0
C809 C 0.10492 0.201 0.17352 0.0
C810 C 0.14458 0.17162 0.11613 0.0
C811 C 0.12239 0.15093 0.09099 0.0
H812 H 0.15394 0.21073 0.17656 0.0
H813 H 0.16897 0.16819 0.10663 0.0
S814 S 0.03731 0.15651 0.11461 0.0
N815 N 0.05159 0.18517 0.15758 0.0
N816 N 0.06743 0.13922 0.08171 0.0
C817 C 0.091 0.15673 0.10499 0.0
C818 C 0.08237 0.1816 0.14636 0.0
C819 C 0.8302 0.63923 0.35079 0.0
C820 C 0.86069 0.63096 0.36663 0.0
C821 C 0.80505 0.62887 0.38783 0.0
C822 C 0.80966 0.61072 0.443 0.0
H823 H 0.82572 0.6529 0.30845 0.0
H824 H 0.78194 0.63417 0.37148 0.0
S825 S 0.88557 0.58637 0.50894 0.0
N826 N 0.89433 0.60557 0.44328 0.0
N827 N 0.84747 0.58716 0.51385 0.0
C828 C 0.84025 0.60357 0.46052 0.0
C829 C 0.86564 0.61349 0.42224 0.0
C830 C 0.37303 0.32911 0.58268 0.0
C831 C 0.37625 0.36011 0.60192 0.0
C832 C 0.38249 0.30467 0.62277 0.0
C833 C 0.39455 0.31042 0.68428 0.0
H834 H 0.36414 0.32377 0.53564 0.0
H835 H 0.38133 0.28138 0.6041 0.0
S836 S 0.40435 0.38805 0.75869 0.0
N837 N 0.39069 0.39544 0.68681 0.0
N838 N 0.40703 0.34995 0.76318 0.0
C839 C 0.39664 0.34153 0.70445 0.0
C840 C 0.38778 0.36623 0.66317 0.0
C841 C 0.6661 0.85579 0.86736 0.0
C842 C 0.64706 0.87783 0.83666 0.0
C843 C 0.69045 0.86492 0.90766 0.0
C844 C 0.69666 0.8964 0.91881 0.0
H845 H 0.66142 0.83124 0.86248 0.0
H846 H 0.70361 0.84723 0.93229 0.0
S847 S 0.65709 0.96328 0.84307 0.0
N848 N 0.63862 0.93264 0.81537 0.0
N849 N 0.68417 0.9496 0.89079 0.0
C850 C 0.67902 0.91861 0.88578 0.0
C851 C 0.65434 0.90939 0.84473 0.0
C852 C 0.87695 0.20237 0.62578 0.0
C853 C 0.89792 0.19842 0.67667 0.0
C854 C 0.86632 0.17686 0.59006 0.0
C855 C 0.87702 0.14672 0.60278 0.0
H856 H 0.86948 0.22527 0.61171 0.0
H857 H 0.85032 0.18085 0.55116 0.0
S858 S 0.92975 0.12341 0.73382 0.0
N859 N 0.92699 0.16142 0.7405 0.0
N860 N 0.908 0.11403 0.67217 0.0
C861 C 0.89746 0.14241 0.65409 0.0
C862 C 0.90769 0.1681 0.69117 0.0
C863 C 0.82843 0.36604 0.84219 0.0
C864 C 0.85924 0.37126 0.86053 0.0
C865 C 0.80373 0.37518 0.88197 0.0
C866 C 0.80913 0.38899 0.94205 0.0
H867 H 0.82342 0.356 0.79598 0.0
H868 H 0.78044 0.3726 0.86407 0.0
S869 S 0.88606 0.40372 0.01468 0.0
N870 N 0.89395 0.38883 0.94396 0.0
N871 N 0.84796 0.40486 0.01936 0.0
C872 C 0.84001 0.39279 0.96172 0.0
C873 C 0.86493 0.38414 0.92091 0.0
C874 C 0.64625 0.30973 0.17529 0.0
C875 C 0.61548 0.2994 0.175 0.0
C876 C 0.65565 0.33434 0.13584 0.0
C877 C 0.6345 0.34944 0.09505 0.0
H878 H 0.66271 0.29977 0.2084 0.0
H879 H 0.67919 0.34268 0.14011 0.0
S880 S 0.55249 0.32703 0.06985 0.0
N881 N 0.56487 0.30322 0.12599 0.0
N882 N 0.58232 0.34923 0.05145 0.0
C883 C 0.60419 0.33763 0.09139 0.0
C884 C 0.59472 0.31269 0.13157 0.0
C885 C 0.66898 0.15268 0.38274 0.0
C886 C 0.65181 0.13027 0.34873 0.0
C887 C 0.69363 0.14409 0.42268 0.0
C888 C 0.7018 0.11284 0.43016 0.0
H889 H 0.66241 0.1769 0.38116 0.0
H890 H 0.70537 0.16181 0.45014 0.0
S891 S 0.66837 0.04579 0.34373 0.0
N892 N 0.6479 0.0758 0.31915 0.0
N893 N 0.69383 0.05989 0.39465 0.0
C894 C 0.68638 0.0905 0.39329 0.0
C895 C 0.66153 0.09916 0.35237 0.0
C896 C 0.60968 0.6696 0.70179 0.0
C897 C 0.61481 0.70011 0.68048 0.0
C898 C 0.61913 0.64399 0.66574 0.0
C899 C 0.63451 0.64776 0.60722 0.0
H900 H 0.59759 0.66542 0.74629 0.0
H901 H 0.61434 0.62097 0.6839 0.0
S902 S 0.65241 0.72212 0.52742 0.0
N903 N 0.63481 0.73231 0.59423 0.0
N904 N 0.65443 0.6839 0.52875 0.0
C905 C 0.64049 0.67792 0.58556 0.0
C906 C 0.63016 0.70418 0.62159 0.0
C907 C 0.35132 0.14307 0.92581 0.0
C908 C 0.34999 0.14261 0.85888 0.0
C909 C 0.32578 0.13423 0.96281 0.0
C910 C 0.29783 0.12507 0.93425 0.0
H911 H 0.37269 0.14914 0.94973 0.0
H912 H 0.32824 0.13365 0.01425 0.0
S913 S 0.28259 0.12088 0.76005 0.0
N914 N 0.31876 0.13302 0.76505 0.0
N915 N 0.27039 0.11675 0.8343 0.0
C916 C 0.29592 0.12566 0.86709 0.0
C917 C 0.32216 0.13431 0.82942 0.0
C918 C 0.84873 0.83563 0.13295 0.0
C919 C 0.86954 0.85266 0.09459 0.0
C920 C 0.85905 0.81106 0.17167 0.0
C921 C 0.89047 0.8028 0.17329 0.0
H922 H 0.82463 0.84235 0.13577 0.0
H923 H 0.84267 0.79954 0.2028 0.0
S924 S 0.95322 0.83598 0.0736 0.0
N925 N 0.92231 0.85646 0.05472 0.0
N926 N 0.9415 0.81061 0.12737 0.0
C927 C 0.91102 0.81811 0.13194 0.0
C928 C 0.9006 0.84292 0.09256 0.0
C929 C 0.20501 0.37345 0.37225 0.0
C930 C 0.20144 0.3938 0.42448 0.0
C931 C 0.17927 0.36334 0.33667 0.0
C932 C 0.14934 0.37395 0.35121 0.0
H933 H 0.22779 0.36635 0.35673 0.0
H934 H 0.18293 0.34817 0.29614 0.0
S935 S 0.12699 0.42443 0.48686 0.0
N936 N 0.16498 0.42162 0.49203 0.0
N937 N 0.11717 0.40361 0.42403 0.0
C938 C 0.14537 0.39333 0.40439 0.0
C939 C 0.17127 0.40305 0.44119 0.0
C940 C 0.41391 0.6817 0.13116 0.0
C941 C 0.39185 0.69959 0.16409 0.0
C942 C 0.40514 0.65696 0.09186 0.0
C943 C 0.37384 0.64878 0.08399 0.0
H944 H 0.43836 0.68656 0.13659 0.0
H945 H 0.42325 0.6436 0.069 0.0
S946 S 0.30684 0.68906 0.15876 0.0
N947 N 0.33734 0.70803 0.18551 0.0
N948 N 0.3205 0.66176 0.1112 0.0
C949 C 0.35139 0.66728 0.11504 0.0
C950 C 0.36046 0.69258 0.15519 0.0
C951 C 0.30333 0.87564 0.37458 0.0
C952 C 0.30825 0.89436 0.42889 0.0
C953 C 0.32825 0.86525 0.33677 0.0
C954 C 0.35879 0.87403 0.35091 0.0
H955 H 0.28014 0.86993 0.35941 0.0
H956 H 0.32352 0.85121 0.29505 0.0
S957 S 0.38461 0.92011 0.49047 0.0
N958 N 0.34659 0.91888 0.49722 0.0
N959 N 0.39289 0.90048 0.42505 0.0
C960 C 0.36409 0.89201 0.4057 0.0
C961 C 0.33897 0.90194 0.4448 0.0
C962 C 0.10352 0.84863 0.61263 0.0
C963 C 0.13493 0.85526 0.60098 0.0
C964 C 0.09463 0.82459 0.65355 0.0
C965 C 0.11666 0.80591 0.68437 0.0
H966 H 0.08549 0.86271 0.59154 0.0
H967 H 0.07016 0.82091 0.66187 0.0
S968 S 0.20181 0.81222 0.66868 0.0
N969 N 0.18824 0.83992 0.62209 0.0
N970 N 0.17119 0.79487 0.69947 0.0
C971 C 0.14808 0.81129 0.67154 0.0
C972 C 0.15728 0.83588 0.62969 0.0
C973 C 0.17043 0.60801 0.9508 0.0
C974 C 0.20097 0.61129 0.92845 0.0
C975 C 0.14517 0.61799 0.91452 0.0
C976 C 0.14942 0.632 0.85472 0.0
H977 H 0.16594 0.59714 0.99649 0.0
H978 H 0.12206 0.61476 0.93352 0.0
S979 S 0.22386 0.6443 0.77141 0.0
N980 N 0.23353 0.62767 0.8395 0.0
N981 N 0.18587 0.6483 0.77354 0.0
C982 C 0.17959 0.63589 0.83171 0.0
C983 C 0.20545 0.62504 0.868 0.0
loop_
_geom_bond_atom_site_label_1
_geom_bond_atom_site_label_2
_geom_bond_distance
_geom_bond_site_symmetry_2
_ccdc_geom_bond_type
Co0 O3 1.970 . S
Co0 N17 1.989 1_554 S
Co0 O25 1.967 . S
Co0 O32 1.920 . S
Co1 O4 1.966 . S
Co1 N10 2.022 . S
Co1 N18 1.993 1_554 S
Co1 O26 1.941 . S
C2 O3 1.258 . S
C2 O4 1.263 . S
O3 Co0 1.970 . S
O3 C2 1.258 . S
O4 Co1 1.966 . S
O4 C2 1.263 . S
C5 O6 1.235 1_554 S
C5 O32 1.289 . S
O6 C5 1.235 1_556 S
C7 C9 1.400 . S
C7 N10 1.351 1_556 S
C7 C12 1.501 . S
C8 C9 1.387 . S
C8 N11 1.341 . S
C9 C7 1.400 . S
C9 C8 1.387 . S
N10 Co1 2.022 . S
N10 C7 1.351 1_554 S
N10 N11 1.365 1_554 S
N11 C8 1.341 . S
N11 N10 1.365 1_556 S
N11 H31 0.862 1_556 S
C12 C7 1.501 . S
C12 H13 0.961 1_556 S
C12 H14 0.961 . S
C12 H15 0.960 1_556 S
H13 C12 0.961 1_554 S
H14 C12 0.961 . S
H15 C12 0.960 1_554 S
C16 N17 1.342 . S
C16 C20 1.401 . S
C16 C21 1.499 1_545 S
N17 Co0 1.989 1_556 S
N17 C16 1.342 . S
N17 N18 1.388 . S
N18 Co1 1.993 1_556 S
N18 N17 1.388 . S
N18 C19 1.346 . S
C19 N18 1.346 . S
C19 C20 1.396 . S
C19 C29 1.510 . S
C20 C16 1.401 . S
C20 C19 1.396 . S
C21 C16 1.499 1_565 S
C21 H22 0.959 1_565 S
C21 H23 0.960 1_565 S
C21 H24 0.961 . S
H22 C21 0.959 1_545 S
H23 C21 0.960 1_545 S
H24 C21 0.961 . S
O25 Co0 1.967 . S
O25 C33 1.258 . S
O26 Co1 1.941 . S
O26 C33 1.266 . S
H27 C29 0.959 . S
H28 C29 0.961 . S
C29 C19 1.510 . S
C29 H27 0.959 . S
C29 H28 0.961 . S
C29 H30 0.960 . S
H30 C29 0.960 . S
H31 N11 0.862 1_554 S
O32 Co0 1.920 . S
O32 C5 1.289 . S
C33 O25 1.258 . S
C33 O26 1.266 . S
Co34 O37 1.970 . S
Co34 N51 1.989 . S
Co34 O59 1.967 . S
Co34 O66 1.920 . S
Co35 O38 1.966 . S
Co35 N44 2.022 . S
Co35 N52 1.993 . S
Co35 O60 1.941 . S
C36 O37 1.258 . S
C36 O38 1.263 . S
O37 Co34 1.970 . S
O37 C36 1.258 . S
O38 Co35 1.966 . S
O38 C36 1.263 . S
C39 O40 1.235 . S
C39 O66 1.289 . S
O40 C39 1.235 . S
C41 C43 1.400 . S
C41 N44 1.351 . S
C41 C46 1.501 . S
C42 C43 1.387 . S
C42 N45 1.341 . S
C43 C41 1.400 . S
C43 C42 1.387 . S
N44 Co35 2.022 . S
N44 C41 1.351 . S
N44 N45 1.365 . S
N45 C42 1.341 . S
N45 N44 1.365 . S
N45 H65 0.862 . S
C46 C41 1.501 . S
C46 H47 0.961 . S
C46 H48 0.961 . S
C46 H49 0.960 . S
H47 C46 0.961 . S
H48 C46 0.961 . S
H49 C46 0.960 . S
C50 N51 1.342 . S
C50 C54 1.401 . S
C50 C55 1.499 1_655 S
N51 Co34 1.989 . S
N51 C50 1.342 . S
N51 N52 1.388 . S
N52 Co35 1.993 . S
N52 N51 1.388 . S
N52 C53 1.346 . S
C53 N52 1.346 . S
C53 C54 1.396 . S
C53 C63 1.510 . S
C54 C50 1.401 . S
C54 C53 1.396 . S
C55 C50 1.499 1_455 S
C55 H56 0.959 1_455 S
C55 H57 0.960 1_455 S
C55 H58 0.961 . S
H56 C55 0.959 1_655 S
H57 C55 0.960 1_655 S
H58 C55 0.961 . S
O59 Co34 1.967 . S
O59 C67 1.258 . S
O60 Co35 1.941 . S
O60 C67 1.266 . S
H61 C63 0.959 . S
H62 C63 0.961 . S
C63 C53 1.510 . S
C63 H61 0.959 . S
C63 H62 0.961 . S
C63 H64 0.960 . S
H64 C63 0.960 . S
H65 N45 0.862 . S
O66 Co34 1.920 . S
O66 C39 1.289 . S
C67 O59 1.258 . S
C67 O60 1.266 . S
Co68 O71 1.970 . S
Co68 N85 1.989 . S
Co68 O93 1.967 . S
Co68 O100 1.920 . S
Co69 O72 1.966 . S
Co69 N78 2.022 . S
Co69 N86 1.993 . S
Co69 O94 1.941 . S
C70 O71 1.258 . S
C70 O72 1.263 . S
O71 Co68 1.970 . S
O71 C70 1.258 . S
O72 Co69 1.966 . S
O72 C70 1.263 . S
C73 O74 1.235 . S
C73 O100 1.289 . S
O74 C73 1.235 . S
C75 C77 1.400 . S
C75 N78 1.351 . S
C75 C80 1.501 . S
C76 C77 1.387 . S
C76 N79 1.341 . S
C77 C75 1.400 . S
C77 C76 1.387 . S
N78 Co69 2.022 . S
N78 C75 1.351 . S
N78 N79 1.365 . S
N79 C76 1.341 . S
N79 N78 1.365 . S
N79 H99 0.862 . S
C80 C75 1.501 . S
C80 H81 0.961 . S
C80 H82 0.961 . S
C80 H83 0.960 . S
H81 C80 0.961 . S
H82 C80 0.961 . S
H83 C80 0.960 . S
C84 N85 1.342 . S
C84 C88 1.401 . S
C84 C89 1.499 . S
N85 Co68 1.989 . S
N85 C84 1.342 . S
N85 N86 1.388 . S
N86 Co69 1.993 . S
N86 N85 1.388 . S
N86 C87 1.346 . S
C87 N86 1.346 . S
C87 C88 1.396 . S
C87 C97 1.510 . S
C88 C84 1.401 . S
C88 C87 1.396 . S
C89 C84 1.499 . S
C89 H90 0.959 . S
C89 H91 0.960 . S
C89 H92 0.961 . S
H90 C89 0.959 . S
H91 C89 0.960 . S
H92 C89 0.961 . S
O93 Co68 1.967 . S
O93 C101 1.258 . S
O94 Co69 1.941 . S
O94 C101 1.266 . S
H95 C97 0.959 . S
H96 C97 0.961 . S
C97 C87 1.510 . S
C97 H95 0.959 . S
C97 H96 0.961 . S
C97 H98 0.960 . S
H98 C97 0.960 . S
H99 N79 0.862 . S
O100 Co68 1.920 . S
O100 C73 1.289 . S
C101 O93 1.258 . S
C101 O94 1.266 . S
Co102 O105 1.970 . S
Co102 N119 1.989 . S
Co102 O127 1.967 . S
Co102 O134 1.920 . S
Co103 O106 1.966 . S
Co103 N112 2.022 . S
Co103 N120 1.993 . S
Co103 O128 1.941 . S
C104 O105 1.258 . S
C104 O106 1.263 . S
O105 Co102 1.970 . S
O105 C104 1.258 . S
O106 Co103 1.966 . S
O106 C104 1.263 . S
C107 O108 1.235 . S
C107 O134 1.289 . S
O108 C107 1.235 . S
C109 C111 1.400 . S
C109 N112 1.351 . S
C109 C114 1.501 . S
C110 C111 1.387 . S
C110 N113 1.341 . S
C111 C109 1.400 . S
C111 C110 1.387 . S
N112 Co103 2.022 . S
N112 C109 1.351 . S
N112 N113 1.365 . S
N113 C110 1.341 . S
N113 N112 1.365 . S
N113 H133 0.862 . S
C114 C109 1.501 . S
C114 H115 0.961 . S
C114 H116 0.961 . S
C114 H117 0.960 . S
H115 C114 0.961 . S
H116 C114 0.961 . S
H117 C114 0.960 . S
C118 N119 1.342 . S
C118 C122 1.401 . S
C118 C123 1.499 . S
N119 Co102 1.989 . S
N119 C118 1.342 . S
N119 N120 1.388 . S
N120 Co103 1.993 . S
N120 N119 1.388 . S
N120 C121 1.346 . S
C121 N120 1.346 . S
C121 C122 1.396 . S
C121 C131 1.510 . S
C122 C118 1.401 . S
C122 C121 1.396 . S
C123 C118 1.499 . S
C123 H124 0.959 . S
C123 H125 0.960 . S
C123 H126 0.961 . S
H124 C123 0.959 . S
H125 C123 0.960 . S
H126 C123 0.961 . S
O127 Co102 1.967 . S
O127 C135 1.258 . S
O128 Co103 1.941 . S
O128 C135 1.266 . S
H129 C131 0.959 . S
H130 C131 0.961 . S
C131 C121 1.510 . S
C131 H129 0.959 . S
C131 H130 0.961 . S
C131 H132 0.960 . S
H132 C131 0.960 . S
H133 N113 0.862 . S
O134 Co102 1.920 . S
O134 C107 1.289 . S
C135 O127 1.258 . S
C135 O128 1.266 . S
Co136 O139 1.970 . S
Co136 N153 1.989 . S
Co136 O161 1.967 . S
Co136 O168 1.920 . S
Co137 O140 1.966 . S
Co137 N146 2.022 . S
Co137 N154 1.993 . S
Co137 O162 1.941 . S
C138 O139 1.258 . S
C138 O140 1.263 . S
O139 Co136 1.970 . S
O139 C138 1.258 . S
O140 Co137 1.966 . S
O140 C138 1.263 . S
C141 O142 1.235 . S
C141 O168 1.289 . S
O142 C141 1.235 . S
C143 C145 1.400 . S
C143 N146 1.351 . S
C143 C148 1.501 . S
C144 C145 1.387 . S
C144 N147 1.341 . S
C145 C143 1.400 . S
C145 C144 1.387 . S
N146 Co137 2.022 . S
N146 C143 1.351 . S
N146 N147 1.365 . S
N147 C144 1.341 . S
N147 N146 1.365 . S
N147 H167 0.862 . S
C148 C143 1.501 . S
C148 H149 0.961 . S
C148 H150 0.961 . S
C148 H151 0.960 . S
H149 C148 0.961 . S
H150 C148 0.961 . S
H151 C148 0.960 . S
C152 N153 1.342 . S
C152 C156 1.401 . S
C152 C157 1.499 1_545 S
N153 Co136 1.989 . S
N153 C152 1.342 . S
N153 N154 1.388 . S
N154 Co137 1.993 . S
N154 N153 1.388 . S
N154 C155 1.346 . S
C155 N154 1.346 . S
C155 C156 1.396 . S
C155 C165 1.510 . S
C156 C152 1.401 . S
C156 C155 1.396 . S
C157 C152 1.499 1_565 S
C157 H158 0.959 1_565 S
C157 H159 0.960 1_565 S
C157 H160 0.961 . S
H158 C157 0.959 1_545 S
H159 C157 0.960 1_545 S
H160 C157 0.961 . S
O161 Co136 1.967 . S
O161 C169 1.258 . S
O162 Co137 1.941 . S
O162 C169 1.266 . S
H163 C165 0.959 . S
H164 C165 0.961 . S
C165 C155 1.510 . S
C165 H163 0.959 . S
C165 H164 0.961 . S
C165 H166 0.960 . S
H166 C165 0.960 . S
H167 N147 0.862 . S
O168 Co136 1.920 . S
O168 C141 1.289 . S
C169 O161 1.258 . S
C169 O162 1.266 . S
Co170 O173 1.970 . S
Co170 N187 1.989 . S
Co170 O195 1.967 . S
Co170 O202 1.920 . S
Co171 O174 1.966 . S
Co171 N180 2.022 . S
Co171 N188 1.993 . S
Co171 O196 1.941 . S
C172 O173 1.258 . S
C172 O174 1.263 . S
O173 Co170 1.970 . S
O173 C172 1.258 . S
O174 Co171 1.966 . S
O174 C172 1.263 . S
C175 O176 1.235 . S
C175 O202 1.289 . S
O176 C175 1.235 . S
C177 C179 1.400 . S
C177 N180 1.351 . S
C177 C182 1.501 . S
C178 C179 1.387 . S
C178 N181 1.341 . S
C179 C177 1.400 . S
C179 C178 1.387 . S
N180 Co171 2.022 . S
N180 C177 1.351 . S
N180 N181 1.365 . S
N181 C178 1.341 . S
N181 N180 1.365 . S
N181 H201 0.862 . S
C182 C177 1.501 . S
C182 H183 0.961 . S
C182 H184 0.961 . S
C182 H185 0.960 . S
H183 C182 0.961 . S
H184 C182 0.961 . S
H185 C182 0.960 . S
C186 N187 1.342 . S
C186 C190 1.401 . S
C186 C191 1.499 1_655 S
N187 Co170 1.989 . S
N187 C186 1.342 . S
N187 N188 1.388 . S
N188 Co171 1.993 . S
N188 N187 1.388 . S
N188 C189 1.346 . S
C189 N188 1.346 . S
C189 C190 1.396 . S
C189 C199 1.510 . S
C190 C186 1.401 . S
C190 C189 1.396 . S
C191 C186 1.499 1_455 S
C191 H192 0.959 1_455 S
C191 H193 0.960 1_455 S
C191 H194 0.961 . S
H192 C191 0.959 1_655 S
H193 C191 0.960 1_655 S
H194 C191 0.961 . S
O195 Co170 1.967 . S
O195 C203 1.258 . S
O196 Co171 1.941 . S
O196 C203 1.266 . S
H197 C199 0.959 . S
H198 C199 0.961 . S
C199 C189 1.510 . S
C199 H197 0.959 . S
C199 H198 0.961 . S
C199 H200 0.960 . S
H200 C199 0.960 . S
H201 N181 0.862 . S
O202 Co170 1.920 . S
O202 C175 1.289 . S
C203 O195 1.258 . S
C203 O196 1.266 . S
Co204 O207 1.970 . S
Co204 N221 1.989 1_554 S
Co204 O229 1.967 . S
Co204 O236 1.920 . S
Co205 O208 1.966 . S
Co205 N214 2.022 . S
Co205 N222 1.993 1_554 S
Co205 O230 1.941 . S
C206 O207 1.258 . S
C206 O208 1.263 . S
O207 Co204 1.970 . S
O207 C206 1.258 . S
O208 Co205 1.966 . S
O208 C206 1.263 . S
C209 O210 1.235 1_554 S
C209 O236 1.289 . S
O210 C209 1.235 1_556 S
C211 C213 1.400 . S
C211 N214 1.351 1_556 S
C211 C216 1.501 . S
C212 C213 1.387 . S
C212 N215 1.341 . S
C213 C211 1.400 . S
C213 C212 1.387 . S
N214 Co205 2.022 . S
N214 C211 1.351 1_554 S
N214 N215 1.365 1_554 S
N215 C212 1.341 . S
N215 N214 1.365 1_556 S
N215 H235 0.862 1_556 S
C216 C211 1.501 . S
C216 H217 0.961 1_556 S
C216 H218 0.961 . S
C216 H219 0.960 1_556 S
H217 C216 0.961 1_554 S
H218 C216 0.961 . S
H219 C216 0.960 1_554 S
C220 N221 1.342 . S
C220 C224 1.401 . S
C220 C225 1.499 . S
N221 Co204 1.989 1_556 S
N221 C220 1.342 . S
N221 N222 1.388 . S
N222 Co205 1.993 1_556 S
N222 N221 1.388 . S
N222 C223 1.346 . S
C223 N222 1.346 . S
C223 C224 1.396 . S
C223 C233 1.510 . S
C224 C220 1.401 . S
C224 C223 1.396 . S
C225 C220 1.499 . S
C225 H226 0.959 . S
C225 H227 0.960 . S
C225 H228 0.961 . S
H226 C225 0.959 . S
H227 C225 0.960 . S
H228 C225 0.961 . S
O229 Co204 1.967 . S
O229 C237 1.258 . S
O230 Co205 1.941 . S
O230 C237 1.266 . S
H231 C233 0.959 . S
H232 C233 0.961 . S
C233 C223 1.510 . S
C233 H231 0.959 . S
C233 H232 0.961 . S
C233 H234 0.960 . S
H234 C233 0.960 . S
H235 N215 0.862 1_554 S
O236 Co204 1.920 . S
O236 C209 1.289 . S
C237 O229 1.258 . S
C237 O230 1.266 . S
Co238 O241 1.970 . S
Co238 N255 1.989 . S
Co238 O263 1.967 . S
Co238 O270 1.920 . S
Co239 O242 1.966 . S
Co239 N248 2.022 . S
Co239 N256 1.993 . S
Co239 O264 1.941 . S
C240 O241 1.258 . S
C240 O242 1.263 . S
O241 Co238 1.970 . S
O241 C240 1.258 . S
O242 Co239 1.966 . S
O242 C240 1.263 . S
C243 O244 1.235 . S
C243 O270 1.289 . S
O244 C243 1.235 . S
C245 C247 1.400 . S
C245 N248 1.351 . S
C245 C250 1.501 . S
C246 C247 1.387 . S
C246 N249 1.341 . S
C247 C245 1.400 . S
C247 C246 1.387 . S
N248 Co239 2.022 . S
N248 C245 1.351 . S
N248 N249 1.365 . S
N249 C246 1.341 . S
N249 N248 1.365 . S
N249 H269 0.862 . S
C250 C245 1.501 . S
C250 H251 0.961 . S
C250 H252 0.961 . S
C250 H253 0.960 . S
H251 C250 0.961 . S
H252 C250 0.961 . S
H253 C250 0.960 . S
C254 N255 1.342 . S
C254 C258 1.401 . S
C254 C259 1.499 . S
N255 Co238 1.989 . S
N255 C254 1.342 . S
N255 N256 1.388 . S
N256 Co239 1.993 . S
N256 N255 1.388 . S
N256 C257 1.346 . S
C257 N256 1.346 . S
C257 C258 1.396 . S
C257 C267 1.510 . S
C258 C254 1.401 . S
C258 C257 1.396 . S
C259 C254 1.499 . S
C259 H260 0.959 . S
C259 H261 0.960 . S
C259 H262 0.961 . S
H260 C259 0.959 . S
H261 C259 0.960 . S
H262 C259 0.961 . S
O263 Co238 1.967 . S
O263 C271 1.258 . S
O264 Co239 1.941 . S
O264 C271 1.266 . S
H265 C267 0.959 . S
H266 C267 0.961 . S
C267 C257 1.510 . S
C267 H265 0.959 . S
C267 H266 0.961 . S
C267 H268 0.960 . S
H268 C267 0.960 . S
H269 N249 0.862 . S
O270 Co238 1.920 . S
O270 C243 1.289 . S
C271 O263 1.258 . S
C271 O264 1.266 . S
Co272 O275 1.970 . S
Co272 N289 1.989 . S
Co272 O297 1.967 . S
Co272 O304 1.920 . S
Co273 O276 1.966 . S
Co273 N282 2.022 . S
Co273 N290 1.993 . S
Co273 O298 1.941 . S
C274 O275 1.258 . S
C274 O276 1.263 . S
O275 Co272 1.970 . S
O275 C274 1.258 . S
O276 Co273 1.966 . S
O276 C274 1.263 . S
C277 O278 1.235 . S
C277 O304 1.289 . S
O278 C277 1.235 . S
C279 C281 1.400 . S
C279 N282 1.351 . S
C279 C284 1.501 . S
C280 C281 1.387 . S
C280 N283 1.341 . S
C281 C279 1.400 . S
C281 C280 1.387 . S
N282 Co273 2.022 . S
N282 C279 1.351 . S
N282 N283 1.365 . S
N283 C280 1.341 . S
N283 N282 1.365 . S
N283 H303 0.862 . S
C284 C279 1.501 . S
C284 H285 0.961 . S
C284 H286 0.961 . S
C284 H287 0.960 . S
H285 C284 0.961 . S
H286 C284 0.961 . S
H287 C284 0.960 . S
C288 N289 1.342 . S
C288 C292 1.401 . S
C288 C293 1.499 . S
N289 Co272 1.989 . S
N289 C288 1.342 . S
N289 N290 1.388 . S
N290 Co273 1.993 . S
N290 N289 1.388 . S
N290 C291 1.346 . S
C291 N290 1.346 . S
C291 C292 1.396 . S
C291 C301 1.510 . S
C292 C288 1.401 . S
C292 C291 1.396 . S
C293 C288 1.499 . S
C293 H294 0.959 . S
C293 H295 0.960 . S
C293 H296 0.961 . S
H294 C293 0.959 . S
H295 C293 0.960 . S
H296 C293 0.961 . S
O297 Co272 1.967 . S
O297 C305 1.258 . S
O298 Co273 1.941 . S
O298 C305 1.266 . S
H299 C301 0.959 . S
H300 C301 0.961 . S
C301 C291 1.510 . S
C301 H299 0.959 . S
C301 H300 0.961 . S
C301 H302 0.960 . S
H302 C301 0.960 . S
H303 N283 0.862 . S
O304 Co272 1.920 . S
O304 C277 1.289 . S
C305 O297 1.258 . S
C305 O298 1.266 . S
Co306 O309 1.970 . S
Co306 N323 1.989 . S
Co306 O331 1.967 . S
Co306 O338 1.920 . S
Co307 O310 1.966 . S
Co307 N316 2.022 . S
Co307 N324 1.993 . S
Co307 O332 1.941 . S
C308 O309 1.258 . S
C308 O310 1.263 . S
O309 Co306 1.970 . S
O309 C308 1.258 . S
O310 Co307 1.966 . S
O310 C308 1.263 . S
C311 O312 1.235 . S
C311 O338 1.289 . S
O312 C311 1.235 . S
C313 C315 1.400 . S
C313 N316 1.351 . S
C313 C318 1.501 . S
C314 C315 1.387 . S
C314 N317 1.341 . S
C315 C313 1.400 . S
C315 C314 1.387 . S
N316 Co307 2.022 . S
N316 C313 1.351 . S
N316 N317 1.365 . S
N317 C314 1.341 . S
N317 N316 1.365 . S
N317 H337 0.862 . S
C318 C313 1.501 . S
C318 H319 0.961 . S
C318 H320 0.961 . S
C318 H321 0.960 . S
H319 C318 0.961 . S
H320 C318 0.961 . S
H321 C318 0.960 . S
C322 N323 1.342 . S
C322 C326 1.401 . S
C322 C327 1.499 . S
N323 Co306 1.989 . S
N323 C322 1.342 . S
N323 N324 1.388 . S
N324 Co307 1.993 . S
N324 N323 1.388 . S
N324 C325 1.346 . S
C325 N324 1.346 . S
C325 C326 1.396 . S
C325 C335 1.510 . S
C326 C322 1.401 . S
C326 C325 1.396 . S
C327 C322 1.499 . S
C327 H328 0.959 . S
C327 H329 0.960 . S
C327 H330 0.961 . S
H328 C327 0.959 . S
H329 C327 0.960 . S
H330 C327 0.961 . S
O331 Co306 1.967 . S
O331 C339 1.258 . S
O332 Co307 1.941 . S
O332 C339 1.266 . S
H333 C335 0.959 . S
H334 C335 0.961 . S
C335 C325 1.510 . S
C335 H333 0.959 . S
C335 H334 0.961 . S
C335 H336 0.960 . S
H336 C335 0.960 . S
H337 N317 0.862 . S
O338 Co306 1.920 . S
O338 C311 1.289 . S
C339 O331 1.258 . S
C339 O332 1.266 . S
Co340 O343 1.970 . S
Co340 N357 1.989 1_554 S
Co340 O365 1.967 . S
Co340 O372 1.920 . S
Co341 O344 1.966 . S
Co341 N350 2.022 . S
Co341 N358 1.993 1_554 S
Co341 O366 1.941 . S
C342 O343 1.258 . S
C342 O344 1.263 . S
O343 Co340 1.970 . S
O343 C342 1.258 . S
O344 Co341 1.966 . S
O344 C342 1.263 . S
C345 O346 1.235 1_554 S
C345 O372 1.289 . S
O346 C345 1.235 1_556 S
C347 C349 1.400 . S
C347 N350 1.351 1_556 S
C347 C352 1.501 . S
C348 C349 1.387 . S
C348 N351 1.341 . S
C349 C347 1.400 . S
C349 C348 1.387 . S
N350 Co341 2.022 . S
N350 C347 1.351 1_554 S
N350 N351 1.365 1_554 S
N351 C348 1.341 . S
N351 N350 1.365 1_556 S
N351 H371 0.862 1_556 S
C352 C347 1.501 . S
C352 H353 0.961 1_556 S
C352 H354 0.961 . S
C352 H355 0.960 1_556 S
H353 C352 0.961 1_554 S
H354 C352 0.961 . S
H355 C352 0.960 1_554 S
C356 N357 1.342 . S
C356 C360 1.401 . S
C356 C361 1.499 1_565 S
N357 Co340 1.989 1_556 S
N357 C356 1.342 . S
N357 N358 1.388 . S
N358 Co341 1.993 1_556 S
N358 N357 1.388 . S
N358 C359 1.346 . S
C359 N358 1.346 . S
C359 C360 1.396 . S
C359 C369 1.510 . S
C360 C356 1.401 . S
C360 C359 1.396 . S
C361 C356 1.499 1_545 S
C361 H362 0.959 1_545 S
C361 H363 0.960 1_545 S
C361 H364 0.961 . S
H362 C361 0.959 1_565 S
H363 C361 0.960 1_565 S
H364 C361 0.961 . S
O365 Co340 1.967 . S
O365 C373 1.258 . S
O366 Co341 1.941 . S
O366 C373 1.266 . S
H367 C369 0.959 . S
H368 C369 0.961 . S
C369 C359 1.510 . S
C369 H367 0.959 . S
C369 H368 0.961 . S
C369 H370 0.960 . S
H370 C369 0.960 . S
H371 N351 0.862 1_554 S
O372 Co340 1.920 . S
O372 C345 1.289 . S
C373 O365 1.258 . S
C373 O366 1.266 . S
Co374 O377 1.970 . S
Co374 N391 1.989 . S
Co374 O399 1.967 . S
Co374 O406 1.920 . S
Co375 O378 1.966 . S
Co375 N384 2.022 . S
Co375 N392 1.993 . S
Co375 O400 1.941 . S
C376 O377 1.258 . S
C376 O378 1.263 . S
O377 Co374 1.970 . S
O377 C376 1.258 . S
O378 Co375 1.966 . S
O378 C376 1.263 . S
C379 O380 1.235 . S
C379 O406 1.289 . S
O380 C379 1.235 . S
C381 C383 1.400 . S
C381 N384 1.351 . S
C381 C386 1.501 . S
C382 C383 1.387 . S
C382 N385 1.341 . S
C383 C381 1.400 . S
C383 C382 1.387 . S
N384 Co375 2.022 . S
N384 C381 1.351 . S
N384 N385 1.365 . S
N385 C382 1.341 . S
N385 N384 1.365 . S
N385 H405 0.862 . S
C386 C381 1.501 . S
C386 H387 0.961 . S
C386 H388 0.961 . S
C386 H389 0.960 . S
H387 C386 0.961 . S
H388 C386 0.961 . S
H389 C386 0.960 . S
C390 N391 1.342 . S
C390 C394 1.401 . S
C390 C395 1.499 1_455 S
N391 Co374 1.989 . S
N391 C390 1.342 . S
N391 N392 1.388 . S
N392 Co375 1.993 . S
N392 N391 1.388 . S
N392 C393 1.346 . S
C393 N392 1.346 . S
C393 C394 1.396 . S
C393 C403 1.510 . S
C394 C390 1.401 . S
C394 C393 1.396 . S
C395 C390 1.499 1_655 S
C395 H396 0.959 1_655 S
C395 H397 0.960 1_655 S
C395 H398 0.961 . S
H396 C395 0.959 1_455 S
H397 C395 0.960 1_455 S
H398 C395 0.961 . S
O399 Co374 1.967 . S
O399 C407 1.258 . S
O400 Co375 1.941 . S
O400 C407 1.266 . S
H401 C403 0.959 . S
H402 C403 0.961 . S
C403 C393 1.510 . S
C403 H401 0.959 . S
C403 H402 0.961 . S
C403 H404 0.960 . S
H404 C403 0.960 . S
H405 N385 0.862 . S
O406 Co374 1.920 . S
O406 C379 1.289 . S
C407 O399 1.258 . S
C407 O400 1.266 . S
Co408 O411 1.970 . S
Co408 N425 1.989 1_554 S
Co408 O433 1.967 . S
Co408 O440 1.920 . S
Co409 O412 1.966 . S
Co409 N418 2.022 . S
Co409 N426 1.993 1_554 S
Co409 O434 1.941 . S
C410 O411 1.258 . S
C410 O412 1.263 . S
O411 Co408 1.970 . S
O411 C410 1.258 . S
O412 Co409 1.966 . S
O412 C410 1.263 . S
C413 O414 1.235 1_554 S
C413 O440 1.289 . S
O414 C413 1.235 1_556 S
C415 C417 1.400 . S
C415 N418 1.351 1_556 S
C415 C420 1.501 . S
C416 C417 1.387 . S
C416 N419 1.341 . S
C417 C415 1.400 . S
C417 C416 1.387 . S
N418 Co409 2.022 . S
N418 C415 1.351 1_554 S
N418 N419 1.365 1_554 S
N419 C416 1.341 . S
N419 N418 1.365 1_556 S
N419 H439 0.862 1_556 S
C420 C415 1.501 . S
C420 H421 0.961 1_556 S
C420 H422 0.961 . S
C420 H423 0.960 1_556 S
H421 C420 0.961 1_554 S
H422 C420 0.961 . S
H423 C420 0.960 1_554 S
C424 N425 1.342 . S
C424 C428 1.401 . S
C424 C429 1.499 . S
N425 Co408 1.989 1_556 S
N425 C424 1.342 . S
N425 N426 1.388 . S
N426 Co409 1.993 1_556 S
N426 N425 1.388 . S
N426 C427 1.346 . S
C427 N426 1.346 . S
C427 C428 1.396 . S
C427 C437 1.510 . S
C428 C424 1.401 . S
C428 C427 1.396 . S
C429 C424 1.499 . S
C429 H430 0.959 . S
C429 H431 0.960 . S
C429 H432 0.961 . S
H430 C429 0.959 . S
H431 C429 0.960 . S
H432 C429 0.961 . S
O433 Co408 1.967 . S
O433 C441 1.258 . S
O434 Co409 1.941 . S
O434 C441 1.266 . S
H435 C437 0.959 . S
H436 C437 0.961 . S
C437 C427 1.510 . S
C437 H435 0.959 . S
C437 H436 0.961 . S
C437 H438 0.960 . S
H438 C437 0.960 . S
H439 N419 0.862 1_554 S
O440 Co408 1.920 . S
O440 C413 1.289 . S
C441 O433 1.258 . S
C441 O434 1.266 . S
Co442 O445 1.970 . S
Co442 N459 1.989 . S
Co442 O467 1.967 . S
Co442 O474 1.920 . S
Co443 O446 1.966 . S
Co443 N452 2.022 . S
Co443 N460 1.993 . S
Co443 O468 1.941 . S
C444 O445 1.258 . S
C444 O446 1.263 . S
O445 Co442 1.970 . S
O445 C444 1.258 . S
O446 Co443 1.966 . S
O446 C444 1.263 . S
C447 O448 1.235 . S
C447 O474 1.289 . S
O448 C447 1.235 . S
C449 C451 1.400 . S
C449 N452 1.351 . S
C449 C454 1.501 . S
C450 C451 1.387 . S
C450 N453 1.341 . S
C451 C449 1.400 . S
C451 C450 1.387 . S
N452 Co443 2.022 . S
N452 C449 1.351 . S
N452 N453 1.365 . S
N453 C450 1.341 . S
N453 N452 1.365 . S
N453 H473 0.862 . S
C454 C449 1.501 . S
C454 H455 0.961 . S
C454 H456 0.961 . S
C454 H457 0.960 . S
H455 C454 0.961 . S
H456 C454 0.961 . S
H457 C454 0.960 . S
C458 N459 1.342 . S
C458 C462 1.401 . S
C458 C463 1.499 . S
N459 Co442 1.989 . S
N459 C458 1.342 . S
N459 N460 1.388 . S
N460 Co443 1.993 . S
N460 N459 1.388 . S
N460 C461 1.346 . S
C461 N460 1.346 . S
C461 C462 1.396 . S
C461 C471 1.510 . S
C462 C458 1.401 . S
C462 C461 1.396 . S
C463 C458 1.499 . S
C463 H464 0.959 . S
C463 H465 0.960 . S
C463 H466 0.961 . S
H464 C463 0.959 . S
H465 C463 0.960 . S
H466 C463 0.961 . S
O467 Co442 1.967 . S
O467 C475 1.258 . S
O468 Co443 1.941 . S
O468 C475 1.266 . S
H469 C471 0.959 . S
H470 C471 0.961 . S
C471 C461 1.510 . S
C471 H469 0.959 . S
C471 H470 0.961 . S
C471 H472 0.960 . S
H472 C471 0.960 . S
H473 N453 0.862 . S
O474 Co442 1.920 . S
O474 C447 1.289 . S
C475 O467 1.258 . S
C475 O468 1.266 . S
Co476 O479 1.970 . S
Co476 N493 1.989 . S
Co476 O501 1.967 . S
Co476 O508 1.920 . S
Co477 O480 1.966 . S
Co477 N486 2.022 . S
Co477 N494 1.993 . S
Co477 O502 1.941 . S
C478 O479 1.258 . S
C478 O480 1.263 . S
O479 Co476 1.970 . S
O479 C478 1.258 . S
O480 Co477 1.966 . S
O480 C478 1.263 . S
C481 O482 1.235 . S
C481 O508 1.289 . S
O482 C481 1.235 . S
C483 C485 1.400 . S
C483 N486 1.351 . S
C483 C488 1.501 . S
C484 C485 1.387 . S
C484 N487 1.341 . S
C485 C483 1.400 . S
C485 C484 1.387 . S
N486 Co477 2.022 . S
N486 C483 1.351 . S
N486 N487 1.365 . S
N487 C484 1.341 . S
N487 N486 1.365 . S
N487 H507 0.862 . S
C488 C483 1.501 . S
C488 H489 0.961 . S
C488 H490 0.961 . S
C488 H491 0.960 . S
H489 C488 0.961 . S
H490 C488 0.961 . S
H491 C488 0.960 . S
C492 N493 1.342 . S
C492 C496 1.401 . S
C492 C497 1.499 1_565 S
N493 Co476 1.989 . S
N493 C492 1.342 . S
N493 N494 1.388 . S
N494 Co477 1.993 . S
N494 N493 1.388 . S
N494 C495 1.346 . S
C495 N494 1.346 . S
C495 C496 1.396 . S
C495 C505 1.510 . S
C496 C492 1.401 . S
C496 C495 1.396 . S
C497 C492 1.499 1_545 S
C497 H498 0.959 1_545 S
C497 H499 0.960 1_545 S
C497 H500 0.961 . S
H498 C497 0.959 1_565 S
H499 C497 0.960 1_565 S
H500 C497 0.961 . S
O501 Co476 1.967 . S
O501 C509 1.258 . S
O502 Co477 1.941 . S
O502 C509 1.266 . S
H503 C505 0.959 . S
H504 C505 0.961 . S
C505 C495 1.510 . S
C505 H503 0.959 . S
C505 H504 0.961 . S
C505 H506 0.960 . S
H506 C505 0.960 . S
H507 N487 0.862 . S
O508 Co476 1.920 . S
O508 C481 1.289 . S
C509 O501 1.258 . S
C509 O502 1.266 . S
Co510 O513 1.970 . S
Co510 N527 1.989 . S
Co510 O535 1.967 . S
Co510 O542 1.920 . S
Co511 O514 1.966 . S
Co511 N520 2.022 . S
Co511 N528 1.993 . S
Co511 O536 1.941 . S
C512 O513 1.258 . S
C512 O514 1.263 . S
O513 Co510 1.970 . S
O513 C512 1.258 . S
O514 Co511 1.966 . S
O514 C512 1.263 . S
C515 O516 1.235 . S
C515 O542 1.289 . S
O516 C515 1.235 . S
C517 C519 1.400 . S
C517 N520 1.351 . S
C517 C522 1.501 . S
C518 C519 1.387 . S
C518 N521 1.341 . S
C519 C517 1.400 . S
C519 C518 1.387 . S
N520 Co511 2.022 . S
N520 C517 1.351 . S
N520 N521 1.365 . S
N521 C518 1.341 . S
N521 N520 1.365 . S
N521 H541 0.862 . S
C522 C517 1.501 . S
C522 H523 0.961 . S
C522 H524 0.961 . S
C522 H525 0.960 . S
H523 C522 0.961 . S
H524 C522 0.961 . S
H525 C522 0.960 . S
C526 N527 1.342 . S
C526 C530 1.401 . S
C526 C531 1.499 1_455 S
N527 Co510 1.989 . S
N527 C526 1.342 . S
N527 N528 1.388 . S
N528 Co511 1.993 . S
N528 N527 1.388 . S
N528 C529 1.346 . S
C529 N528 1.346 . S
C529 C530 1.396 . S
C529 C539 1.510 . S
C530 C526 1.401 . S
C530 C529 1.396 . S
C531 C526 1.499 1_655 S
C531 H532 0.959 1_655 S
C531 H533 0.960 1_655 S
C531 H534 0.961 . S
H532 C531 0.959 1_455 S
H533 C531 0.960 1_455 S
H534 C531 0.961 . S
O535 Co510 1.967 . S
O535 C543 1.258 . S
O536 Co511 1.941 . S
O536 C543 1.266 . S
H537 C539 0.959 . S
H538 C539 0.961 . S
C539 C529 1.510 . S
C539 H537 0.959 . S
C539 H538 0.961 . S
C539 H540 0.960 . S
H540 C539 0.960 . S
H541 N521 0.862 . S
O542 Co510 1.920 . S
O542 C515 1.289 . S
C543 O535 1.258 . S
C543 O536 1.266 . S
C544 C545 1.369 1_545 S
C544 C546 1.419 1_655 S
C544 H548 0.930 . S
C545 C544 1.369 1_565 S
C545 C554 1.432 1_554 S
C546 C544 1.419 1_455 S
C546 C547 1.363 . S
C546 H549 0.929 . S
C547 C546 1.363 . S
C547 C553 1.428 1_544 S
H548 C544 0.930 . S
H549 C546 0.929 . S
S550 N551 1.613 . S
S550 N552 1.610 . S
N551 S550 1.613 . S
N551 C554 1.349 1_455 S
N552 S550 1.610 . S
N552 C553 1.351 . S
C553 C547 1.428 1_566 S
C553 N552 1.351 . S
C553 C554 1.431 1_455 S
C554 C545 1.432 1_556 S
C554 N551 1.349 1_655 S
C554 C553 1.431 1_655 S
C555 C556 1.369 1_455 S
C555 C557 1.419 . S
C555 H559 0.930 . S
C556 C555 1.369 1_655 S
C556 C565 1.429 . S
C557 C555 1.419 . S
C557 C558 1.363 . S
C557 H560 0.929 . S
C558 C557 1.363 . S
C558 C564 1.428 1_455 S
H559 C555 0.930 . S
H560 C557 0.929 . S
S561 N562 1.613 . S
S561 N563 1.610 . S
N562 S561 1.613 . S
N562 C565 1.350 . S
N563 S561 1.610 . S
N563 C564 1.351 . S
C564 C558 1.428 1_655 S
C564 N563 1.351 . S
C564 C565 1.434 . S
C565 C556 1.429 . S
C565 N562 1.350 . S
C565 C564 1.434 . S
C566 C567 1.369 . S
C566 C568 1.419 . S
C566 H570 0.930 . S
C567 C566 1.369 . S
C567 C576 1.429 . S
C568 C566 1.419 . S
C568 C569 1.363 . S
C568 H571 0.929 . S
C569 C568 1.363 . S
C569 C575 1.428 . S
H570 C566 0.930 . S
H571 C568 0.929 . S
S572 N573 1.613 . S
S572 N574 1.610 . S
N573 S572 1.613 . S
N573 C576 1.350 . S
N574 S572 1.610 . S
N574 C575 1.351 . S
C575 C569 1.428 . S
C575 N574 1.351 . S
C575 C576 1.434 . S
C576 C567 1.429 . S
C576 N573 1.350 . S
C576 C575 1.434 . S
C577 C578 1.369 . S
C577 C579 1.419 1_565 S
C577 H581 0.930 . S
C578 C577 1.369 . S
C578 C587 1.429 . S
C579 C577 1.419 1_545 S
C579 C580 1.363 . S
C579 H582 0.929 . S
C580 C579 1.363 . S
C580 C586 1.428 . S
H581 C577 0.930 . S
H582 C579 0.929 . S
S583 N584 1.613 . S
S583 N585 1.610 1_565 S
N584 S583 1.613 . S
N584 C587 1.350 . S
N585 S583 1.610 1_545 S
N585 C586 1.351 . S
C586 C580 1.428 . S
C586 N585 1.351 . S
C586 C587 1.434 1_545 S
C587 C578 1.429 . S
C587 N584 1.350 . S
C587 C586 1.434 1_565 S
C588 C589 1.389 . S
C588 C590 1.400 1_455 S
C588 H592 0.929 1_455 S
C589 C588 1.389 . S
C589 C598 1.429 1_565 S
C590 C588 1.400 1_655 S
C590 C591 1.363 1_565 S
C590 H593 0.929 . S
C591 C590 1.363 1_545 S
C591 C597 1.416 1_655 S
H592 C588 0.929 1_655 S
H593 C590 0.929 . S
S594 N595 1.613 . S
S594 N596 1.610 . S
N595 S594 1.613 . S
N595 C598 1.350 . S
N596 S594 1.610 . S
N596 C597 1.353 . S
C597 C591 1.416 1_455 S
C597 N596 1.353 . S
C597 C598 1.446 . S
C598 C589 1.429 1_545 S
C598 N595 1.350 . S
C598 C597 1.446 . S
C599 C600 1.369 . S
C599 C601 1.419 . S
C599 H603 0.930 . S
C600 C599 1.369 . S
C600 C609 1.429 1_655 S
C601 C599 1.419 . S
C601 C602 1.363 1_655 S
C601 H604 0.929 . S
C602 C601 1.363 1_455 S
C602 C608 1.428 . S
H603 C599 0.930 . S
H604 C601 0.929 . S
S605 N606 1.613 . S
S605 N607 1.610 . S
N606 S605 1.613 . S
N606 C609 1.350 . S
N607 S605 1.610 . S
N607 C608 1.351 . S
C608 C602 1.428 . S
C608 N607 1.351 . S
C608 C609 1.434 . S
C609 C600 1.429 1_455 S
C609 N606 1.350 . S
C609 C608 1.434 . S
C610 C611 1.369 . S
C610 C612 1.419 . S
C610 H614 0.930 . S
C611 C610 1.369 . S
C611 C620 1.429 1_554 S
C612 C610 1.419 . S
C612 C613 1.363 . S
C612 H615 0.929 . S
C613 C612 1.363 . S
C613 C619 1.428 1_554 S
H614 C610 0.930 . S
H615 C612 0.929 . S
S616 N617 1.613 . S
S616 N618 1.610 . S
N617 S616 1.613 . S
N617 C620 1.350 . S
N618 S616 1.610 . S
N618 C619 1.351 . S
C619 C613 1.428 1_556 S
C619 N618 1.351 . S
C619 C620 1.434 . S
C620 C611 1.429 1_556 S
C620 N617 1.350 . S
C620 C619 1.434 . S
C621 C622 1.369 . S
C621 C623 1.399 1_565 S
C621 H625 0.930 . S
C622 C621 1.369 . S
C622 C631 1.412 1_565 S
C623 C621 1.399 1_545 S
C623 C624 1.384 . S
C623 H626 0.928 1_545 S
C624 C623 1.384 . S
C624 C630 1.428 . S
H625 C621 0.930 . S
H626 C623 0.928 1_565 S
S627 N628 1.613 . S
S627 N629 1.610 . S
N628 S627 1.613 . S
N628 C631 1.352 . S
N629 S627 1.610 . S
N629 C630 1.351 . S
C630 C624 1.428 . S
C630 N629 1.351 . S
C630 C631 1.450 . S
C631 C622 1.412 1_545 S
C631 N628 1.352 . S
C631 C630 1.450 . S
C632 C633 1.369 . S
C632 C634 1.408 1_565 S
C632 H636 0.930 . S
C633 C632 1.369 . S
C633 C642 1.429 1_565 S
C634 C632 1.408 1_545 S
C634 C635 1.383 . S
C634 H637 0.921 1_545 S
C635 C634 1.383 . S
C635 C641 1.428 . S
H636 C632 0.930 . S
H637 C634 0.921 1_565 S
S638 N639 1.613 . S
S638 N640 1.610 . S
N639 S638 1.613 . S
N639 C642 1.350 . S
N640 S638 1.610 . S
N640 C641 1.351 . S
C641 C635 1.428 . S
C641 N640 1.351 . S
C641 C642 1.434 . S
C642 C633 1.429 1_545 S
C642 N639 1.350 . S
C642 C641 1.434 . S
C643 C644 1.369 1_655 S
C643 C645 1.419 . S
C643 H647 0.930 . S
C644 C643 1.369 1_455 S
C644 C653 1.429 . S
C645 C643 1.419 . S
C645 C646 1.363 . S
C645 H648 0.929 . S
C646 C645 1.363 . S
C646 C652 1.428 . S
H647 C643 0.930 . S
H648 C645 0.929 . S
S649 N650 1.613 . S
S649 N651 1.600 1_455 S
N650 S649 1.613 . S
N650 C653 1.350 . S
N651 S649 1.600 1_655 S
N651 C652 1.354 . S
C652 C646 1.428 . S
C652 N651 1.354 . S
C652 C653 1.434 1_655 S
C653 C644 1.429 . S
C653 N650 1.350 . S
C653 C652 1.434 1_455 S
C654 C655 1.369 . S
C654 C656 1.419 . S
C654 H658 0.930 . S
C655 C654 1.369 . S
C655 C664 1.429 . S
C656 C654 1.419 . S
C656 C657 1.363 . S
C656 H659 0.929 . S
C657 C656 1.363 . S
C657 C663 1.428 . S
H658 C654 0.930 . S
H659 C656 0.929 . S
S660 N661 1.613 . S
S660 N662 1.610 . S
N661 S660 1.613 . S
N661 C664 1.350 . S
N662 S660 1.610 . S
N662 C663 1.351 . S
C663 C657 1.428 . S
C663 N662 1.351 . S
C663 C664 1.434 . S
C664 C655 1.429 . S
C664 N661 1.350 . S
C664 C663 1.434 . S
C665 C666 1.369 . S
C665 C667 1.419 1_554 S
C665 H669 0.930 . S
C666 C665 1.369 . S
C666 C675 1.429 . S
C667 C665 1.419 1_556 S
C667 C668 1.363 . S
C667 H670 0.929 . S
C668 C667 1.363 . S
C668 C674 1.428 . S
H669 C665 0.930 . S
H670 C667 0.929 . S
S671 N672 1.613 . S
S671 N673 1.610 1_554 S
N672 S671 1.613 . S
N672 C675 1.350 . S
N673 S671 1.610 1_556 S
N673 C674 1.351 . S
C674 C668 1.428 . S
C674 N673 1.351 . S
C674 C675 1.434 1_556 S
C675 C666 1.429 . S
C675 N672 1.350 . S
C675 C674 1.434 1_554 S
C676 C677 1.369 . S
C676 C678 1.419 1_545 S
C676 H680 0.930 1_545 S
C677 C676 1.369 . S
C677 C686 1.429 . S
C678 C676 1.419 1_565 S
C678 C679 1.363 . S
C678 H681 0.929 . S
C679 C678 1.363 . S
C679 C685 1.428 1_565 S
H680 C676 0.930 1_565 S
H681 C678 0.929 . S
S682 N683 1.613 . S
S682 N684 1.610 . S
N683 S682 1.613 . S
N683 C686 1.350 . S
N684 S682 1.610 . S
N684 C685 1.351 . S
C685 C679 1.428 1_545 S
C685 N684 1.351 . S
C685 C686 1.434 . S
C686 C677 1.429 . S
C686 N683 1.350 . S
C686 C685 1.434 . S
C687 C688 1.369 . S
C687 C689 1.419 1_556 S
C687 H691 0.930 . S
C688 C687 1.369 . S
C688 C697 1.429 1_655 S
C689 C687 1.419 1_554 S
C689 C690 1.363 1_655 S
C689 H692 0.929 . S
C690 C689 1.363 1_455 S
C690 C696 1.428 . S
H691 C687 0.930 . S
H692 C689 0.929 . S
S693 N694 1.613 . S
S693 N695 1.610 1_556 S
N694 S693 1.613 . S
N694 C697 1.350 . S
N695 S693 1.610 1_554 S
N695 C696 1.351 . S
C696 C690 1.428 . S
C696 N695 1.351 . S
C696 C697 1.434 1_554 S
C697 C688 1.429 1_455 S
C697 N694 1.350 . S
C697 C696 1.434 1_556 S
C698 C699 1.369 . S
C698 C700 1.419 . S
C698 H702 0.930 . S
C699 C698 1.369 . S
C699 C708 1.429 . S
C700 C698 1.419 . S
C700 C701 1.363 . S
C700 H703 0.929 . S
C701 C700 1.363 . S
C701 C707 1.428 . S
H702 C698 0.930 . S
H703 C700 0.929 . S
S704 N705 1.613 . S
S704 N706 1.610 . S
N705 S704 1.613 . S
N705 C708 1.350 . S
N706 S704 1.610 . S
N706 C707 1.351 . S
C707 C701 1.428 . S
C707 N706 1.351 . S
C707 C708 1.434 . S
C708 C699 1.429 . S
C708 N705 1.350 . S
C708 C707 1.434 . S
C709 C710 1.369 . S
C709 C711 1.419 . S
C709 H713 0.930 . S
C710 C709 1.369 . S
C710 C719 1.429 . S
C711 C709 1.419 . S
C711 C712 1.363 . S
C711 H714 0.929 . S
C712 C711 1.363 . S
C712 C718 1.428 . S
H713 C709 0.930 . S
H714 C711 0.929 . S
S715 N716 1.613 . S
S715 N717 1.610 . S
N716 S715 1.613 . S
N716 C719 1.350 . S
N717 S715 1.610 . S
N717 C718 1.351 . S
C718 C712 1.428 . S
C718 N717 1.351 . S
C718 C719 1.434 . S
C719 C710 1.429 . S
C719 N716 1.350 . S
C719 C718 1.434 . S
C720 C721 1.369 . S
C720 C722 1.419 . S
C720 H724 0.930 . S
C721 C720 1.369 . S
C721 C730 1.429 . S
C722 C720 1.419 . S
C722 C723 1.363 . S
C722 H725 0.929 . S
C723 C722 1.363 . S
C723 C729 1.428 . S
H724 C720 0.930 . S
H725 C722 0.929 . S
S726 N727 1.613 . S
S726 N728 1.610 . S
N727 S726 1.613 . S
N727 C730 1.350 . S
N728 S726 1.610 . S
N728 C729 1.351 . S
C729 C723 1.428 . S
C729 N728 1.351 . S
C729 C730 1.434 . S
C730 C721 1.429 . S
C730 N727 1.350 . S
C730 C729 1.434 . S
C731 C732 1.369 . S
C731 C733 1.419 1_554 S
C731 H735 0.930 . S
C732 C731 1.369 . S
C732 C741 1.429 . S
C733 C731 1.419 1_556 S
C733 C734 1.363 . S
C733 H736 0.929 . S
C734 C733 1.363 . S
C734 C740 1.428 . S
H735 C731 0.930 . S
H736 C733 0.929 . S
S737 N738 1.613 1_556 S
S737 N739 1.610 . S
N738 S737 1.613 1_554 S
N738 C741 1.350 . S
N739 S737 1.610 . S
N739 C740 1.351 . S
C740 C734 1.428 . S
C740 N739 1.351 . S
C740 C741 1.434 1_556 S
C741 C732 1.429 . S
C741 N738 1.350 . S
C741 C740 1.434 1_554 S
C742 C743 1.369 1_565 S
C742 C744 1.419 . S
C742 H746 0.930 . S
C743 C742 1.369 1_545 S
C743 C752 1.428 1_545 S
C744 C742 1.419 . S
C744 C745 1.363 . S
C744 H747 0.929 . S
C745 C744 1.363 . S
C745 C751 1.428 . S
H746 C742 0.930 . S
H747 C744 0.929 . S
S748 N749 1.617 . S
S748 N750 1.603 1_545 S
N749 S748 1.617 . S
N749 C752 1.347 1_545 S
N750 S748 1.603 1_565 S
N750 C751 1.351 . S
C751 C745 1.428 . S
C751 N750 1.351 . S
C751 C752 1.437 . S
C752 C743 1.428 1_565 S
C752 N749 1.347 1_565 S
C752 C751 1.437 . S
C753 C754 1.369 . S
C753 C755 1.419 . S
C753 H757 0.930 . S
C754 C753 1.369 . S
C754 C763 1.429 . S
C755 C753 1.419 . S
C755 C756 1.363 1_455 S
C755 H758 0.929 . S
C756 C755 1.363 1_655 S
C756 C762 1.428 . S
H757 C753 0.930 . S
H758 C755 0.929 . S
S759 N760 1.613 1_655 S
S759 N761 1.610 . S
N760 S759 1.613 1_455 S
N760 C763 1.350 . S
N761 S759 1.610 . S
N761 C762 1.351 . S
C762 C756 1.428 . S
C762 N761 1.351 . S
C762 C763 1.434 1_655 S
C763 C754 1.429 . S
C763 N760 1.350 . S
C763 C762 1.434 1_455 S
C764 C765 1.369 . S
C764 C766 1.419 . S
C764 H768 0.930 . S
C765 C764 1.369 . S
C765 C774 1.429 . S
C766 C764 1.419 . S
C766 C767 1.363 . S
C766 H769 0.929 . S
C767 C766 1.363 . S
C767 C773 1.428 . S
H768 C764 0.930 . S
H769 C766 0.929 . S
S770 N771 1.613 . S
S770 N772 1.610 . S
N771 S770 1.613 . S
N771 C774 1.350 . S
N772 S770 1.610 . S
N772 C773 1.351 . S
C773 C767 1.428 . S
C773 N772 1.351 . S
C773 C774 1.434 . S
C774 C765 1.429 . S
C774 N771 1.350 . S
C774 C773 1.434 . S
C775 C776 1.369 . S
C775 C777 1.419 . S
C775 H779 0.930 . S
C776 C775 1.369 . S
C776 C785 1.429 . S
C777 C775 1.419 . S
C777 C778 1.363 . S
C777 H780 0.929 . S
C778 C777 1.363 . S
C778 C784 1.428 . S
H779 C775 0.930 . S
H780 C777 0.929 . S
S781 N782 1.613 . S
S781 N783 1.610 . S
N782 S781 1.613 . S
N782 C785 1.350 . S
N783 S781 1.610 . S
N783 C784 1.351 . S
C784 C778 1.428 . S
C784 N783 1.351 . S
C784 C785 1.434 . S
C785 C776 1.429 . S
C785 N782 1.350 . S
C785 C784 1.434 . S
C786 C787 1.369 . S
C786 C788 1.419 . S
C786 H790 0.930 . S
C787 C786 1.369 . S
C787 C796 1.429 1_565 S
C788 C786 1.419 . S
C788 C789 1.363 1_565 S
C788 H791 0.929 . S
C789 C788 1.363 1_545 S
C789 C795 1.428 . S
H790 C786 0.930 . S
H791 C788 0.929 . S
S792 N793 1.613 . S
S792 N794 1.610 . S
N793 S792 1.613 . S
N793 C796 1.350 . S
N794 S792 1.610 . S
N794 C795 1.351 . S
C795 C789 1.428 . S
C795 N794 1.351 . S
C795 C796 1.434 . S
C796 C787 1.429 1_545 S
C796 N793 1.350 . S
C796 C795 1.434 . S
C797 C798 1.369 . S
C797 C799 1.413 1_654 S
C797 H801 0.930 . S
C798 C797 1.369 . S
C798 C807 1.429 1_655 S
C799 C797 1.413 1_456 S
C799 C800 1.374 . S
C799 H802 0.924 1_455 S
C800 C799 1.374 . S
C800 C806 1.428 . S
H801 C797 0.930 . S
H802 C799 0.924 1_655 S
S803 N804 1.613 . S
S803 N805 1.610 1_554 S
N804 S803 1.613 . S
N804 C807 1.350 . S
N805 S803 1.610 1_556 S
N805 C806 1.351 . S
C806 C800 1.428 . S
C806 N805 1.351 . S
C806 C807 1.434 1_556 S
C807 C798 1.429 1_455 S
C807 N804 1.350 . S
C807 C806 1.434 1_554 S
C808 C809 1.369 . S
C808 C810 1.419 . S
C808 H812 0.930 . S
C809 C808 1.369 . S
C809 C818 1.429 . S
C810 C808 1.419 . S
C810 C811 1.363 . S
C810 H813 0.929 . S
C811 C810 1.363 . S
C811 C817 1.428 . S
H812 C808 0.930 . S
H813 C810 0.929 . S
S814 N815 1.613 . S
S814 N816 1.610 . S
N815 S814 1.613 . S
N815 C818 1.350 . S
N816 S814 1.610 . S
N816 C817 1.351 . S
C817 C811 1.428 . S
C817 N816 1.351 . S
C817 C818 1.434 . S
C818 C809 1.429 . S
C818 N815 1.350 . S
C818 C817 1.434 . S
C819 C820 1.369 . S
C819 C821 1.419 . S
C819 H823 0.930 . S
C820 C819 1.369 . S
C820 C829 1.429 . S
C821 C819 1.419 . S
C821 C822 1.363 . S
C821 H824 0.929 . S
C822 C821 1.363 . S
C822 C828 1.428 . S
H823 C819 0.930 . S
H824 C821 0.929 . S
S825 N826 1.613 . S
S825 N827 1.610 . S
N826 S825 1.613 . S
N826 C829 1.350 . S
N827 S825 1.610 . S
N827 C828 1.351 . S
C828 C822 1.428 . S
C828 N827 1.351 . S
C828 C829 1.434 . S
C829 C820 1.429 . S
C829 N826 1.350 . S
C829 C828 1.434 . S
C830 C831 1.369 . S
C830 C832 1.419 . S
C830 H834 0.930 . S
C831 C830 1.369 . S
C831 C840 1.429 . S
C832 C830 1.419 . S
C832 C833 1.363 . S
C832 H835 0.929 . S
C833 C832 1.363 . S
C833 C839 1.428 . S
H834 C830 0.930 . S
H835 C832 0.929 . S
S836 N837 1.613 . S
S836 N838 1.610 . S
N837 S836 1.613 . S
N837 C840 1.350 . S
N838 S836 1.610 . S
N838 C839 1.351 . S
C839 C833 1.428 . S
C839 N838 1.351 . S
C839 C840 1.434 . S
C840 C831 1.429 . S
C840 N837 1.350 . S
C840 C839 1.434 . S
C841 C842 1.369 . S
C841 C843 1.419 . S
C841 H845 0.930 . S
C842 C841 1.369 . S
C842 C851 1.429 . S
C843 C841 1.419 . S
C843 C844 1.363 . S
C843 H846 0.929 . S
C844 C843 1.363 . S
C844 C850 1.428 . S
H845 C841 0.930 . S
H846 C843 0.929 . S
S847 N848 1.613 . S
S847 N849 1.610 . S
N848 S847 1.613 . S
N848 C851 1.350 . S
N849 S847 1.610 . S
N849 C850 1.351 . S
C850 C844 1.428 . S
C850 N849 1.351 . S
C850 C851 1.434 . S
C851 C842 1.429 . S
C851 N848 1.350 . S
C851 C850 1.434 . S
C852 C853 1.369 . S
C852 C854 1.419 . S
C852 H856 0.930 . S
C853 C852 1.369 . S
C853 C862 1.429 . S
C854 C852 1.419 . S
C854 C855 1.363 . S
C854 H857 0.929 . S
C855 C854 1.363 . S
C855 C861 1.428 . S
H856 C852 0.930 . S
H857 C854 0.929 . S
S858 N859 1.613 . S
S858 N860 1.610 . S
N859 S858 1.613 . S
N859 C862 1.350 . S
N860 S858 1.610 . S
N860 C861 1.351 . S
C861 C855 1.428 . S
C861 N860 1.351 . S
C861 C862 1.434 . S
C862 C853 1.429 . S
C862 N859 1.350 . S
C862 C861 1.434 . S
C863 C864 1.369 . S
C863 C865 1.419 . S
C863 H867 0.930 . S
C864 C863 1.369 . S
C864 C873 1.429 . S
C865 C863 1.419 . S
C865 C866 1.363 . S
C865 H868 0.929 . S
C866 C865 1.363 . S
C866 C872 1.428 . S
H867 C863 0.930 . S
H868 C865 0.929 . S
S869 N870 1.613 1_554 S
S869 N871 1.610 . S
N870 S869 1.613 1_556 S
N870 C873 1.350 . S
N871 S869 1.610 . S
N871 C872 1.351 1_554 S
C872 C866 1.428 . S
C872 N871 1.351 1_556 S
C872 C873 1.434 . S
C873 C864 1.429 . S
C873 N870 1.350 . S
C873 C872 1.434 . S
C874 C875 1.369 . S
C874 C876 1.419 . S
C874 H878 0.930 . S
C875 C874 1.369 . S
C875 C884 1.429 . S
C876 C874 1.419 . S
C876 C877 1.363 . S
C876 H879 0.929 . S
C877 C876 1.363 . S
C877 C883 1.428 . S
H878 C874 0.930 . S
H879 C876 0.929 . S
S880 N881 1.613 . S
S880 N882 1.610 . S
N881 S880 1.613 . S
N881 C884 1.350 . S
N882 S880 1.610 . S
N882 C883 1.351 . S
C883 C877 1.428 . S
C883 N882 1.351 . S
C883 C884 1.434 . S
C884 C875 1.429 . S
C884 N881 1.350 . S
C884 C883 1.434 . S
C885 C886 1.369 . S
C885 C887 1.419 . S
C885 H889 0.930 . S
C886 C885 1.369 . S
C886 C895 1.429 . S
C887 C885 1.419 . S
C887 C888 1.363 . S
C887 H890 0.929 . S
C888 C887 1.363 . S
C888 C894 1.428 . S
H889 C885 0.930 . S
H890 C887 0.929 . S
S891 N892 1.613 . S
S891 N893 1.610 . S
N892 S891 1.613 . S
N892 C895 1.350 . S
N893 S891 1.610 . S
N893 C894 1.351 . S
C894 C888 1.428 . S
C894 N893 1.351 . S
C894 C895 1.434 . S
C895 C886 1.429 . S
C895 N892 1.350 . S
C895 C894 1.434 . S
C896 C897 1.369 . S
C896 C898 1.419 . S
C896 H900 0.930 . S
C897 C896 1.369 . S
C897 C906 1.429 . S
C898 C896 1.419 . S
C898 C899 1.363 . S
C898 H901 0.929 . S
C899 C898 1.363 . S
C899 C905 1.428 . S
H900 C896 0.930 . S
H901 C898 0.929 . S
S902 N903 1.613 . S
S902 N904 1.610 . S
N903 S902 1.613 . S
N903 C906 1.350 . S
N904 S902 1.610 . S
N904 C905 1.351 . S
C905 C899 1.428 . S
C905 N904 1.351 . S
C905 C906 1.434 . S
C906 C897 1.429 . S
C906 N903 1.350 . S
C906 C905 1.434 . S
C907 C908 1.369 . S
C907 C909 1.419 . S
C907 H911 0.930 . S
C908 C907 1.369 . S
C908 C917 1.429 . S
C909 C907 1.419 . S
C909 C910 1.363 . S
C909 H912 0.929 . S
C910 C909 1.363 . S
C910 C916 1.428 . S
H911 C907 0.930 . S
H912 C909 0.929 . S
S913 N914 1.613 . S
S913 N915 1.610 . S
N914 S913 1.613 . S
N914 C917 1.350 . S
N915 S913 1.610 . S
N915 C916 1.351 . S
C916 C910 1.428 . S
C916 N915 1.351 . S
C916 C917 1.434 . S
C917 C908 1.429 . S
C917 N914 1.350 . S
C917 C916 1.434 . S
C918 C919 1.369 . S
C918 C920 1.419 . S
C918 H922 0.930 . S
C919 C918 1.369 . S
C919 C928 1.429 . S
C920 C918 1.419 . S
C920 C921 1.363 . S
C920 H923 0.929 . S
C921 C920 1.363 . S
C921 C927 1.428 . S
H922 C918 0.930 . S
H923 C920 0.929 . S
S924 N925 1.613 . S
S924 N926 1.610 . S
N925 S924 1.613 . S
N925 C928 1.350 . S
N926 S924 1.610 . S
N926 C927 1.351 . S
C927 C921 1.428 . S
C927 N926 1.351 . S
C927 C928 1.434 . S
C928 C919 1.429 . S
C928 N925 1.350 . S
C928 C927 1.434 . S
C929 C930 1.369 . S
C929 C931 1.419 . S
C929 H933 0.930 . S
C930 C929 1.369 . S
C930 C939 1.429 . S
C931 C929 1.419 . S
C931 C932 1.363 . S
C931 H934 0.929 . S
C932 C931 1.363 . S
C932 C938 1.428 . S
H933 C929 0.930 . S
H934 C931 0.929 . S
S935 N936 1.613 . S
S935 N937 1.610 . S
N936 S935 1.613 . S
N936 C939 1.350 . S
N937 S935 1.610 . S
N937 C938 1.351 . S
C938 C932 1.428 . S
C938 N937 1.351 . S
C938 C939 1.434 . S
C939 C930 1.429 . S
C939 N936 1.350 . S
C939 C938 1.434 . S
C940 C941 1.369 . S
C940 C942 1.419 . S
C940 H944 0.930 . S
C941 C940 1.369 . S
C941 C950 1.429 . S
C942 C940 1.419 . S
C942 C943 1.363 . S
C942 H945 0.929 . S
C943 C942 1.363 . S
C943 C949 1.428 . S
H944 C940 0.930 . S
H945 C942 0.929 . S
S946 N947 1.613 . S
S946 N948 1.610 . S
N947 S946 1.613 . S
N947 C950 1.350 . S
N948 S946 1.610 . S
N948 C949 1.351 . S
C949 C943 1.428 . S
C949 N948 1.351 . S
C949 C950 1.434 . S
C950 C941 1.429 . S
C950 N947 1.350 . S
C950 C949 1.434 . S
C951 C952 1.369 . S
C951 C953 1.419 . S
C951 H955 0.930 . S
C952 C951 1.369 . S
C952 C961 1.429 . S
C953 C951 1.419 . S
C953 C954 1.363 . S
C953 H956 0.929 . S
C954 C953 1.363 . S
C954 C960 1.428 . S
H955 C951 0.930 . S
H956 C953 0.929 . S
S957 N958 1.613 . S
S957 N959 1.610 . S
N958 S957 1.613 . S
N958 C961 1.350 . S
N959 S957 1.610 . S
N959 C960 1.351 . S
C960 C954 1.428 . S
C960 N959 1.351 . S
C960 C961 1.434 . S
C961 C952 1.429 . S
C961 N958 1.350 . S
C961 C960 1.434 . S
C962 C963 1.369 . S
C962 C964 1.419 . S
C962 H966 0.930 . S
C963 C962 1.369 . S
C963 C972 1.429 . S
C964 C962 1.419 . S
C964 C965 1.363 . S
C964 H967 0.929 . S
C965 C964 1.363 . S
C965 C971 1.428 . S
H966 C962 0.930 . S
H967 C964 0.929 . S
S968 N969 1.613 . S
S968 N970 1.610 . S
N969 S968 1.613 . S
N969 C972 1.350 . S
N970 S968 1.610 . S
N970 C971 1.351 . S
C971 C965 1.428 . S
C971 N970 1.351 . S
C971 C972 1.434 . S
C972 C963 1.429 . S
C972 N969 1.350 . S
C972 C971 1.434 . S
C973 C974 1.369 . S
C973 C975 1.419 . S
C973 H977 0.930 . S
C974 C973 1.369 . S
C974 C983 1.429 . S
C975 C973 1.419 . S
C975 C976 1.363 . S
C975 H978 0.929 . S
C976 C975 1.363 . S
C976 C982 1.428 . S
H977 C973 0.930 . S
H978 C975 0.929 . S
S979 N980 1.613 . S
S979 N981 1.610 . S
N980 S979 1.613 . S
N980 C983 1.350 . S
N981 S979 1.610 . S
N981 C982 1.351 . S
C982 C976 1.428 . S
C982 N981 1.351 . S
C982 C983 1.434 . S
C983 C974 1.429 . S
C983 N980 1.350 . S
C983 C982 1.434 . S
C545 C345 1.685 . S
C547 C5 1.684 . S
C556 C39 1.685 . S
C558 C379 1.684 . S
C567 C277 1.686 . S
C569 C73 1.686 . S
C578 C107 1.683 . S
C580 C311 1.684 . S
C589 C481 1.685 . S
C591 C141 1.686 . S
C600 C175 1.686 . S
C602 C515 1.686 . S
C611 C209 1.684 . S
C613 C413 1.684 . S
C622 C447 1.685 . S
C624 C243 1.684 . S
C633 C496 1.206 . S
C635 C33 1.202 . S
C644 C530 1.204 . S
C646 C67 1.204 . S
C655 C101 1.204 . S
C657 C428 1.201 . S
C666 C462 1.205 . S
C668 C135 1.200 . S
C677 C169 1.202 . S
C679 C360 1.206 . S
C688 C203 1.205 . S
C690 C394 1.203 . S
C699 C292 1.200 . S
C701 C237 1.205 . S
C710 C271 1.200 . S
C712 C326 1.204 . S
C721 C224 1.206 . S
C723 C305 1.201 . S
C732 C258 1.203 . S
C734 C339 1.205 . S
C743 C156 1.201 . S
C745 C373 1.202 . S
C754 C407 1.200 . S
C756 C190 1.203 . S
C765 C441 1.204 . S
C767 C88 1.201 . S
C776 C475 1.201 . S
C778 C122 1.206 . S
C787 C509 1.206 . S
C789 C20 1.201 . S
C798 C54 1.204 . S
C800 C543 1.204 . S
C809 C383 1.547 . S
C811 C2 1.615 . S
C820 C36 1.614 . S
C822 C281 1.548 . S
C831 C70 1.614 . S
C833 C315 1.549 . S
C842 C104 1.616 . S
C844 C349 1.551 . S
C853 C179 1.547 . S
C855 C138 1.614 . S
C864 C172 1.614 . S
C866 C213 1.551 . S
C875 C247 1.556 . S
C877 C206 1.616 . S
C886 C240 1.615 . S
C888 C145 1.550 . S
C897 C111 1.553 . S
C899 C274 1.616 . S
C908 C308 1.616 . S
C910 C9 1.555 . S
C919 C342 1.615 . S
C921 C43 1.549 . S
C930 C77 1.549 . S
C932 C376 1.614 . S
C941 C451 1.553 . S
C943 C410 1.614 . S
C952 C485 1.546 . S
C954 C444 1.614 . S
C963 C478 1.615 . S
C965 C519 1.555 . S
C974 C417 1.555 . S
C976 C512 1.616 . S
