# Generated by pormake.
# Topology umg, (4)-cn, num edge types: 1
# Building blocks:
#     Node 0, Type 0, BuildingBlock: KOZSID_clean_sbu_0, # of connection points: 4
#     Node 1, Type 0, BuildingBlock: KOZSID_clean_sbu_0, # of connection points: 4
#     Node 2, Type 0, BuildingBlock: KOZSID_clean_sbu_0, # of connection points: 4
#     Node 3, Type 0, BuildingBlock: KOZSID_clean_sbu_0, # of connection points: 4
#     Node 4, Type 0, BuildingBlock: KOZSID_clean_sbu_0, # of connection points: 4
#     Node 5, Type 0, BuildingBlock: KOZSID_clean_sbu_0, # of connection points: 4
#     Node 6, Type 0, BuildingBlock: KOZSID_clean_sbu_0, # of connection points: 4
#     Node 7, Type 0, BuildingBlock: KOZSID_clean_sbu_0, # of connection points: 4
#     Node 8, Type 0, BuildingBlock: KOZSID_clean_sbu_0, # of connection points: 4
#     Node 9, Type 0, BuildingBlock: KOZSID_clean_sbu_0, # of connection points: 4
#     Node 10, Type 0, BuildingBlock: KOZSID_clean_sbu_0, # of connection points: 4
#     Node 11, Type 0, BuildingBlock: KOZSID_clean_sbu_0, # of connection points: 4
#     Edge 12, Type (0, 0), BuildingBlock: EZIPEK_clean_linker_0, # of connection points: 2
#     Edge 13, Type (0, 0), BuildingBlock: EZIPEK_clean_linker_0, # of connection points: 2
#     Edge 14, Type (0, 0), BuildingBlock: EZIPEK_clean_linker_0, # of connection points: 2
#     Edge 15, Type (0, 0), BuildingBlock: EZIPEK_clean_linker_0, # of connection points: 2
#     Edge 16, Type (0, 0), BuildingBlock: EZIPEK_clean_linker_0, # of connection points: 2
#     Edge 17, Type (0, 0), BuildingBlock: EZIPEK_clean_linker_0, # of connection points: 2
#     Edge 18, Type (0, 0), BuildingBlock: EZIPEK_clean_linker_0, # of connection points: 2
#     Edge 19, Type (0, 0), BuildingBlock: EZIPEK_clean_linker_0, # of connection points: 2
#     Edge 20, Type (0, 0), BuildingBlock: EZIPEK_clean_linker_0, # of connection points: 2
#     Edge 21, Type (0, 0), BuildingBlock: EZIPEK_clean_linker_0, # of connection points: 2
#     Edge 22, Type (0, 0), BuildingBlock: EZIPEK_clean_linker_0, # of connection points: 2
#     Edge 23, Type (0, 0), BuildingBlock: EZIPEK_clean_linker_0, # of connection points: 2
#     Edge 24, Type (0, 0), BuildingBlock: EZIPEK_clean_linker_0, # of connection points: 2
#     Edge 25, Type (0, 0), BuildingBlock: EZIPEK_clean_linker_0, # of connection points: 2
#     Edge 26, Type (0, 0), BuildingBlock: EZIPEK_clean_linker_0, # of connection points: 2
#     Edge 27, Type (0, 0), BuildingBlock: EZIPEK_clean_linker_0, # of connection points: 2
#     Edge 28, Type (0, 0), BuildingBlock: EZIPEK_clean_linker_0, # of connection points: 2
#     Edge 29, Type (0, 0), BuildingBlock: EZIPEK_clean_linker_0, # of connection points: 2
#     Edge 30, Type (0, 0), BuildingBlock: EZIPEK_clean_linker_0, # of connection points: 2
#     Edge 31, Type (0, 0), BuildingBlock: EZIPEK_clean_linker_0, # of connection points: 2
#     Edge 32, Type (0, 0), BuildingBlock: EZIPEK_clean_linker_0, # of connection points: 2
#     Edge 33, Type (0, 0), BuildingBlock: EZIPEK_clean_linker_0, # of connection points: 2
#     Edge 34, Type (0, 0), BuildingBlock: EZIPEK_clean_linker_0, # of connection points: 2
#     Edge 35, Type (0, 0), BuildingBlock: EZIPEK_clean_linker_0, # of connection points: 2
# Relax obj value: 0.044
# Max RMSD: 0.161
# Mean RMSD: 0.161
data_MOF--net-umg--node1-KOZSID_clean_sbu_0--edge1-EZIPEK_clean_linker_0
_symmetry_space_group_name_H-M    P1
_symmetry_Int_Tables_number       1
_symmetry_cell_setting            triclinic
loop_
_symmetry_equiv_pos_as_xyz
'x, y, z'
_cell_length_a     31.006852
_cell_length_b     31.053999
_cell_length_c     70.682554
_cell_angle_alpha  90.039126
_cell_angle_beta   89.965856
_cell_angle_gamma 120.10898
loop_
_atom_site_label
_atom_site_type_symbol
_atom_site_fract_x
_atom_site_fract_y
_atom_site_fract_z
_atom_type_partial_charge
C0 C 0.24148 0.53027 0.1338 0.0
C1 C 0.20785 0.49376 0.14595 0.0
C2 C 0.19388 0.44888 0.13762 0.0
C3 C 0.2184 0.46007 0.1206 0.0
N4 N 0.24779 0.50952 0.11765 0.0
Co5 Co 0.27621 0.54166 0.09255 0.0
N6 N 0.24738 0.47611 0.07889 0.0
C7 C 0.2227 0.43056 0.08696 0.0
C8 C 0.20854 0.39231 0.07428 0.0
C9 C 0.22531 0.41486 0.05708 0.0
C10 C 0.24856 0.46573 0.06024 0.0
N11 N 0.30244 0.57493 0.0675 0.0
C12 C 0.29602 0.55562 0.04978 0.0
C13 C 0.31887 0.59279 0.03625 0.0
C14 C 0.34055 0.637 0.0457 0.0
C15 C 0.3296 0.62447 0.06437 0.0
N16 N 0.3073 0.60714 0.1062 0.0
C17 C 0.33883 0.65221 0.09874 0.0
C18 C 0.36001 0.68965 0.11184 0.0
C19 C 0.33972 0.66734 0.12869 0.0
C20 C 0.30595 0.61764 0.12477 0.0
N21 N 0.33902 0.53795 0.0968 0.0
C22 C 0.42539 0.52624 0.09807 0.0
C23 C 0.42908 0.57239 0.09407 0.0
C24 C 0.38597 0.57699 0.09295 0.0
C25 C 0.37741 0.48693 0.10221 0.0
C26 C 0.33602 0.49411 0.10234 0.0
N27 N 0.21284 0.54342 0.08826 0.0
C28 C 0.16572 0.58692 0.08665 0.0
C29 C 0.12018 0.54167 0.08607 0.0
C30 C 0.12224 0.49798 0.08599 0.0
C31 C 0.16802 0.49959 0.08714 0.0
C32 C 0.21147 0.58697 0.08751 0.0
H33 H 0.16546 0.46424 0.08749 0.0
H34 H 0.24531 0.62244 0.08792 0.0
H35 H 0.39162 0.6124 0.08867 0.0
H36 H 0.30173 0.46311 0.1068 0.0
C37 C 0.20918 0.42553 0.10612 0.0
C38 C 0.26772 0.58428 0.13828 0.0
C39 C 0.2694 0.50265 0.04499 0.0
C40 C 0.34604 0.65829 0.07928 0.0
H41 H 0.19411 0.49883 0.15934 0.0
H42 H 0.16678 0.41244 0.14289 0.0
H43 H 0.1873 0.35275 0.0771 0.0
H44 H 0.22013 0.3961 0.04365 0.0
H45 H 0.32014 0.58846 0.02112 0.0
H46 H 0.36209 0.67389 0.03968 0.0
H47 H 0.3861 0.72871 0.10937 0.0
H48 H 0.34693 0.68622 0.14218 0.0
H49 H 0.46513 0.6047 0.09117 0.0
H50 H 0.37166 0.4504 0.10558 0.0
H51 H 0.16597 0.6219 0.08665 0.0
H52 H 0.08816 0.46219 0.08551 0.0
C53 C 0.74078 0.26115 0.46592 0.0
C54 C 0.76049 0.24843 0.48109 0.0
C55 C 0.79826 0.24212 0.474 0.0
C56 C 0.79978 0.25146 0.45493 0.0
N57 N 0.76522 0.26307 0.44959 0.0
Co58 Co 0.75574 0.27993 0.42332 0.0
N59 N 0.79442 0.25112 0.41182 0.0
C60 C 0.825 0.23984 0.42137 0.0
C61 C 0.84775 0.22145 0.40986 0.0
C62 C 0.83101 0.22189 0.3919 0.0
C63 C 0.79901 0.24074 0.39342 0.0
N64 N 0.74576 0.2976 0.39722 0.0
C65 C 0.75623 0.28522 0.3801 0.0
C66 C 0.74849 0.31092 0.36568 0.0
C67 C 0.73245 0.34009 0.37393 0.0
C68 C 0.73175 0.33108 0.3929 0.0
N69 N 0.71687 0.30873 0.43471 0.0
C70 C 0.70438 0.33946 0.42597 0.0
C71 C 0.67359 0.34979 0.43651 0.0
C72 C 0.66624 0.32423 0.45302 0.0
C73 C 0.69395 0.30038 0.4518 0.0
N74 N 0.81948 0.34555 0.42536 0.0
C75 C 0.91739 0.43005 0.42908 0.0
C76 C 0.90093 0.40352 0.41208 0.0
C77 C 0.85251 0.3621 0.41051 0.0
C78 C 0.88272 0.41426 0.44407 0.0
C79 C 0.83418 0.37231 0.44191 0.0
N80 N 0.69388 0.21347 0.42134 0.0
C81 C 0.60642 0.15952 0.41339 0.0
C82 C 0.60758 0.11691 0.41951 0.0
C83 C 0.65303 0.1241 0.42642 0.0
C84 C 0.69516 0.17202 0.42721 0.0
C85 C 0.64983 0.20729 0.41438 0.0
H86 H 0.72893 0.17523 0.43274 0.0
H87 H 0.64771 0.2392 0.40961 0.0
H88 H 0.84272 0.34262 0.39727 0.0
H89 H 0.80907 0.36074 0.45384 0.0
C90 C 0.82703 0.24218 0.44124 0.0
C91 C 0.701 0.27403 0.46776 0.0
C92 C 0.77865 0.25394 0.37695 0.0
C93 C 0.71396 0.34989 0.4068 0.0
H94 H 0.74878 0.24421 0.49572 0.0
H95 H 0.82069 0.23037 0.48174 0.0
H96 H 0.87307 0.20871 0.41402 0.0
H97 H 0.84228 0.21117 0.37906 0.0
H98 H 0.75606 0.31064 0.35084 0.0
H99 H 0.72264 0.36498 0.36692 0.0
H100 H 0.65633 0.37116 0.43231 0.0
H101 H 0.64303 0.32346 0.46459 0.0
H102 H 0.92587 0.41417 0.40005 0.0
H103 H 0.89337 0.43364 0.4575 0.0
H104 H 0.57212 0.15597 0.40797 0.0
H105 H 0.65596 0.09263 0.43133 0.0
C106 C 0.51004 0.72178 0.80047 0.0
C107 C 0.54657 0.7253 0.81274 0.0
C108 C 0.59155 0.75649 0.80447 0.0
C109 C 0.58044 0.76935 0.78735 0.0
N110 N 0.53091 0.74864 0.78429 0.0
Co111 Co 0.49884 0.74465 0.75915 0.0
N112 N 0.56458 0.78052 0.74545 0.0
C113 C 0.61021 0.801 0.7535 0.0
C114 C 0.64857 0.82368 0.74074 0.0
C115 C 0.62604 0.81739 0.7235 0.0
C116 C 0.57507 0.79104 0.72674 0.0
N117 N 0.4657 0.73796 0.73411 0.0
C118 C 0.48517 0.75186 0.71645 0.0
C119 C 0.44816 0.73972 0.70303 0.0
C120 C 0.40383 0.71707 0.71243 0.0
C121 C 0.41616 0.71669 0.731 0.0
N122 N 0.43319 0.71038 0.77279 0.0
C123 C 0.38805 0.69656 0.76529 0.0
C124 C 0.35048 0.68008 0.77836 0.0
C125 C 0.37272 0.68209 0.79522 0.0
C126 C 0.42253 0.69828 0.79133 0.0
N127 N 0.50326 0.8116 0.76333 0.0
C128 C 0.51467 0.90957 0.76465 0.0
C129 C 0.46808 0.86661 0.76157 0.0
C130 C 0.46354 0.81897 0.76042 0.0
C131 C 0.55475 0.90157 0.76782 0.0
C132 C 0.54786 0.85312 0.76792 0.0
N133 N 0.49626 0.67913 0.75496 0.0
C134 C 0.45171 0.58852 0.75244 0.0
C135 C 0.49663 0.58758 0.75266 0.0
C136 C 0.54075 0.6331 0.75351 0.0
C137 C 0.53978 0.67753 0.75472 0.0
C138 C 0.45237 0.63453 0.75338 0.0
H139 H 0.57532 0.71002 0.75587 0.0
H140 H 0.41716 0.63343 0.75315 0.0
H141 H 0.42751 0.78885 0.75692 0.0
H142 H 0.57968 0.85053 0.77162 0.0
C143 C 0.61509 0.79384 0.77281 0.0
C144 C 0.4559 0.69368 0.80488 0.0
C145 C 0.5381 0.77641 0.71156 0.0
C146 C 0.38221 0.69872 0.74587 0.0
H147 H 0.54146 0.70668 0.82617 0.0
H148 H 0.62803 0.76614 0.80981 0.0
H149 H 0.68816 0.84158 0.74355 0.0
H150 H 0.64485 0.83024 0.71004 0.0
H151 H 0.45273 0.74702 0.68802 0.0
H152 H 0.36703 0.70311 0.70647 0.0
H153 H 0.31141 0.66718 0.77588 0.0
H154 H 0.35374 0.6704 0.80869 0.0
H155 H 0.43524 0.86985 0.75942 0.0
H156 H 0.59169 0.9328 0.77047 0.0
H157 H 0.4164 0.55402 0.75173 0.0
H158 H 0.57632 0.63438 0.75372 0.0
C159 C 0.7714 0.4911 0.13288 0.0
C160 C 0.7844 0.52471 0.14768 0.0
C161 C 0.78853 0.56748 0.14019 0.0
C162 C 0.77777 0.55777 0.12127 0.0
N163 N 0.76731 0.51164 0.11638 0.0
Co164 Co 0.74944 0.48285 0.09043 0.0
N165 N 0.77388 0.54893 0.07828 0.0
C166 C 0.78292 0.59071 0.08741 0.0
C167 C 0.79823 0.63068 0.07547 0.0
C168 C 0.79821 0.61277 0.05769 0.0
C169 C 0.78276 0.5627 0.05976 0.0
N170 N 0.73272 0.45308 0.06459 0.0
C171 C 0.74506 0.47484 0.04727 0.0
C172 C 0.72189 0.43979 0.03305 0.0
C173 C 0.69422 0.39471 0.04165 0.0
C174 C 0.70168 0.40465 0.06062 0.0
N175 N 0.72384 0.41636 0.10247 0.0
C176 C 0.69415 0.37202 0.09416 0.0
C177 C 0.68523 0.3322 0.10523 0.0
C178 C 0.71063 0.35244 0.12163 0.0
C179 C 0.73306 0.40383 0.1198 0.0
N180 N 0.682 0.4771 0.09263 0.0
C181 C 0.59654 0.48939 0.09551 0.0
C182 C 0.61486 0.48441 0.07795 0.0
C183 C 0.65801 0.48032 0.07681 0.0
C184 C 0.62083 0.48513 0.11165 0.0
C185 C 0.66159 0.47688 0.10991 0.0
N186 N 0.81722 0.49135 0.08828 0.0
C187 C 0.8738 0.46039 0.08199 0.0
C188 C 0.91539 0.50687 0.08654 0.0
C189 C 0.90658 0.54517 0.09177 0.0
C190 C 0.85776 0.53668 0.09267 0.0
C191 C 0.82512 0.45349 0.08283 0.0
H192 H 0.85313 0.56719 0.09712 0.0
H193 H 0.79394 0.41752 0.0792 0.0
H194 H 0.67241 0.48169 0.06289 0.0
H195 H 0.67747 0.47224 0.12276 0.0
C196 C 0.78308 0.59226 0.1073 0.0
C197 C 0.75946 0.4389 0.13532 0.0
C198 C 0.77296 0.52862 0.04371 0.0
C199 C 0.68392 0.36909 0.0749 0.0
H200 H 0.78987 0.51871 0.16235 0.0
H201 H 0.79937 0.60195 0.1476 0.0
H202 H 0.80921 0.6686 0.07925 0.0
H203 H 0.80757 0.63382 0.04465 0.0
H204 H 0.72282 0.44636 0.01806 0.0
H205 H 0.67141 0.359 0.03488 0.0
H206 H 0.66502 0.29316 0.10144 0.0
H207 H 0.71243 0.33147 0.13351 0.0
H208 H 0.5974 0.48629 0.06495 0.0
H209 H 0.60859 0.48836 0.12566 0.0
H210 H 0.87889 0.42966 0.07785 0.0
H211 H 0.93741 0.58154 0.09545 0.0
C212 C 0.30216 0.76567 0.46629 0.0
C213 C 0.28218 0.77774 0.48157 0.0
C214 C 0.24414 0.78374 0.47461 0.0
C215 C 0.24276 0.77487 0.4555 0.0
N216 N 0.27766 0.76385 0.45001 0.0
Co217 Co 0.28749 0.74781 0.42364 0.0
N218 N 0.24818 0.7762 0.41241 0.0
C219 C 0.21721 0.78673 0.42209 0.0
C220 C 0.19388 0.80474 0.41073 0.0
C221 C 0.21065 0.80485 0.39273 0.0
C222 C 0.24327 0.78669 0.39408 0.0
N223 N 0.29795 0.73119 0.39741 0.0
C224 C 0.2883 0.74473 0.38038 0.0
C225 C 0.29879 0.72169 0.36568 0.0
C226 C 0.31501 0.69242 0.37371 0.0
C227 C 0.31348 0.69905 0.3928 0.0
N228 N 0.32688 0.71933 0.43479 0.0
C229 C 0.34001 0.68931 0.42584 0.0
C230 C 0.37077 0.67886 0.43634 0.0
C231 C 0.37746 0.70363 0.45302 0.0
C232 C 0.34949 0.72721 0.45193 0.0
N233 N 0.2242 0.68178 0.42552 0.0
C234 C 0.12649 0.597 0.42912 0.0
C235 C 0.16109 0.6127 0.44411 0.0
C236 C 0.20952 0.65483 0.44202 0.0
C237 C 0.14295 0.62366 0.41215 0.0
C238 C 0.19134 0.66517 0.41063 0.0
N239 N 0.34895 0.81462 0.42182 0.0
C240 C 0.43612 0.86927 0.41363 0.0
C241 C 0.43458 0.91162 0.41985 0.0
C242 C 0.38911 0.90393 0.42697 0.0
C243 C 0.34729 0.85578 0.42784 0.0
C244 C 0.39306 0.8213 0.4147 0.0
H245 H 0.31343 0.85215 0.4335 0.0
H246 H 0.39552 0.78965 0.40982 0.0
H247 H 0.23455 0.66638 0.45396 0.0
H248 H 0.20131 0.68469 0.39741 0.0
C249 C 0.21519 0.78399 0.44195 0.0
C250 C 0.34219 0.75317 0.46798 0.0
C251 C 0.26412 0.77447 0.37751 0.0
C252 C 0.33132 0.67999 0.40657 0.0
H253 H 0.29386 0.7817 0.4962 0.0
H254 H 0.2214 0.79494 0.48246 0.0
H255 H 0.16814 0.81686 0.41502 0.0
H256 H 0.19907 0.81552 0.37997 0.0
H257 H 0.29363 0.72434 0.35073 0.0
H258 H 0.32692 0.66941 0.36647 0.0
H259 H 0.3885 0.65802 0.43199 0.0
H260 H 0.4005 0.70417 0.4646 0.0
H261 H 0.15044 0.59315 0.4575 0.0
H262 H 0.11807 0.61299 0.4001 0.0
H263 H 0.47045 0.8732 0.40805 0.0
H264 H 0.38591 0.93519 0.43198 0.0
C265 C 0.54742 0.2897 0.79941 0.0
C266 C 0.51423 0.26917 0.81435 0.0
C267 C 0.4712 0.23021 0.80706 0.0
C268 C 0.48036 0.22891 0.7881 0.0
N269 N 0.52637 0.26471 0.783 0.0
Co270 Co 0.55439 0.27531 0.75691 0.0
N271 N 0.48785 0.23296 0.74507 0.0
C272 C 0.44632 0.20025 0.7544 0.0
C273 C 0.40595 0.17496 0.74264 0.0
C274 C 0.42332 0.19237 0.72477 0.0
C275 C 0.4735 0.22736 0.7266 0.0
N276 N 0.58341 0.288 0.73094 0.0
C277 C 0.56108 0.27786 0.71371 0.0
C278 C 0.59579 0.28969 0.69935 0.0
C279 C 0.64123 0.30781 0.70776 0.0
C280 C 0.63184 0.30576 0.72676 0.0
N281 N 0.62134 0.31692 0.76866 0.0
C282 C 0.66552 0.33183 0.76015 0.0
C283 C 0.70569 0.36325 0.77103 0.0
C284 C 0.68586 0.36849 0.78752 0.0
C285 C 0.63436 0.33905 0.78592 0.0
N286 N 0.5605 0.21392 0.75912 0.0
C287 C 0.54927 0.11668 0.76209 0.0
C288 C 0.55286 0.13928 0.7445 0.0
C289 C 0.55655 0.18628 0.74333 0.0
C290 C 0.55427 0.14566 0.7782 0.0
C291 C 0.56185 0.19439 0.7764 0.0
N292 N 0.54559 0.33435 0.75477 0.0
C293 C 0.57631 0.42182 0.74836 0.0
C294 C 0.52985 0.41678 0.75305 0.0
C295 C 0.49165 0.36955 0.7584 0.0
C296 C 0.50027 0.32936 0.75929 0.0
C297 C 0.58331 0.38018 0.74918 0.0
H298 H 0.46986 0.29417 0.76386 0.0
H299 H 0.61927 0.38515 0.74543 0.0
H300 H 0.55429 0.1988 0.72944 0.0
H301 H 0.56695 0.21525 0.7892 0.0
C302 C 0.4454 0.1993 0.77428 0.0
C303 C 0.59972 0.33027 0.80163 0.0
C304 C 0.5071 0.25122 0.71038 0.0
C305 C 0.66789 0.32418 0.74088 0.0
H306 H 0.52067 0.28091 0.829 0.0
H307 H 0.43693 0.20653 0.81461 0.0
H308 H 0.36814 0.14787 0.74661 0.0
H309 H 0.40187 0.18009 0.71182 0.0
H310 H 0.58876 0.2835 0.68441 0.0
H311 H 0.67681 0.32083 0.70085 0.0
H312 H 0.74467 0.38236 0.76706 0.0
H313 H 0.70716 0.39162 0.7993 0.0
H314 H 0.55026 0.11955 0.73152 0.0
H315 H 0.55212 0.13071 0.79223 0.0
H316 H 0.60698 0.45769 0.74412 0.0
H317 H 0.45529 0.36384 0.76219 0.0
C318 C 0.49369 0.76635 0.54136 0.0
C319 C 0.52647 0.77866 0.5263 0.0
C320 C 0.57038 0.78499 0.5336 0.0
C321 C 0.5621 0.77608 0.55268 0.0
N322 N 0.5158 0.76472 0.55781 0.0
Co323 Co 0.48879 0.7486 0.58401 0.0
N324 N 0.55612 0.77783 0.59571 0.0
C325 C 0.59822 0.78866 0.58638 0.0
C326 C 0.63923 0.80782 0.59802 0.0
C327 C 0.62167 0.80842 0.61582 0.0
C328 C 0.57074 0.78937 0.61409 0.0
N329 N 0.46054 0.73187 0.61006 0.0
C330 C 0.48294 0.74641 0.6272 0.0
C331 C 0.44877 0.72334 0.64174 0.0
C332 C 0.40371 0.69294 0.63348 0.0
C333 C 0.41273 0.69905 0.61442 0.0
N334 N 0.42123 0.71933 0.57244 0.0
C335 C 0.37771 0.6887 0.58112 0.0
C336 C 0.33675 0.67769 0.57033 0.0
C337 C 0.3554 0.70271 0.55373 0.0
C338 C 0.40706 0.72701 0.55516 0.0
N339 N 0.4867 0.68287 0.58241 0.0
C340 C 0.50015 0.59835 0.57918 0.0
C341 C 0.50971 0.62514 0.59614 0.0
C342 C 0.50266 0.66655 0.59746 0.0
C343 C 0.48171 0.61395 0.56402 0.0
C344 C 0.4751 0.65584 0.56592 0.0
N345 N 0.49365 0.81518 0.58555 0.0
C346 C 0.46066 0.86952 0.59332 0.0
C347 C 0.50483 0.91204 0.58724 0.0
C348 C 0.54294 0.90455 0.58039 0.0
C349 C 0.5367 0.8565 0.57966 0.0
C350 C 0.45584 0.82162 0.59239 0.0
H351 H 0.56724 0.8531 0.57422 0.0
H352 H 0.42153 0.78984 0.59715 0.0
H353 H 0.5118 0.68624 0.61067 0.0
H354 H 0.4619 0.66715 0.55385 0.0
C355 C 0.59838 0.78568 0.56652 0.0
C356 C 0.44104 0.75346 0.53932 0.0
C357 C 0.53677 0.77746 0.63039 0.0
C358 C 0.37635 0.67938 0.60042 0.0
H359 H 0.51931 0.78257 0.5116 0.0
H360 H 0.60476 0.79649 0.52598 0.0
H361 H 0.67747 0.82055 0.59402 0.0
H362 H 0.64349 0.8201 0.62869 0.0
H363 H 0.45584 0.72694 0.65677 0.0
H364 H 0.36845 0.66976 0.64053 0.0
H365 H 0.29792 0.65631 0.57442 0.0
H366 H 0.3332 0.70294 0.54198 0.0
H367 H 0.52357 0.61466 0.60832 0.0
H368 H 0.47333 0.59443 0.55063 0.0
H369 H 0.42998 0.87325 0.59868 0.0
H370 H 0.57762 0.93589 0.5755 0.0
C371 C 0.74056 0.4817 0.87431 0.0
C372 C 0.7609 0.51355 0.859 0.0
C373 C 0.79955 0.5574 0.86592 0.0
C374 C 0.80094 0.55002 0.88503 0.0
N375 N 0.76545 0.50434 0.89055 0.0
Co376 Co 0.75537 0.47867 0.91691 0.0
N377 N 0.79514 0.54637 0.92812 0.0
C378 C 0.8265 0.58776 0.91846 0.0
C379 C 0.84917 0.62929 0.9298 0.0
C380 C 0.83145 0.6128 0.94775 0.0
C381 C 0.79899 0.56195 0.9464 0.0
N382 N 0.74494 0.45167 0.94309 0.0
C383 C 0.75516 0.47503 0.96008 0.0
C384 C 0.74678 0.44193 0.97471 0.0
C385 C 0.73065 0.39639 0.96669 0.0
C386 C 0.73045 0.40418 0.94765 0.0
N387 N 0.71519 0.41077 0.90585 0.0
C388 C 0.70211 0.3676 0.91475 0.0
C389 C 0.67071 0.32637 0.90434 0.0
C390 C 0.66363 0.34449 0.88776 0.0
C391 C 0.69205 0.39609 0.8888 0.0
N392 N 0.81815 0.47507 0.91502 0.0
C393 C 0.91449 0.4848 0.91132 0.0
C394 C 0.87911 0.4651 0.8966 0.0
C395 C 0.83142 0.4605 0.89873 0.0
C396 C 0.8996 0.49778 0.92807 0.0
C397 C 0.85184 0.49246 0.92966 0.0
N398 N 0.69456 0.48504 0.91875 0.0
C399 C 0.60796 0.45447 0.92729 0.0
C400 C 0.61037 0.49857 0.92081 0.0
C401 C 0.65592 0.53542 0.9134 0.0
C402 C 0.69701 0.52805 0.9125 0.0
C403 C 0.65035 0.44846 0.92616 0.0
H404 H 0.73096 0.55767 0.90664 0.0
H405 H 0.64735 0.41426 0.93122 0.0
H406 H 0.80578 0.44636 0.88698 0.0
H407 H 0.84304 0.50404 0.94271 0.0
C408 C 0.82877 0.58682 0.89859 0.0
C409 C 0.69969 0.42938 0.87274 0.0
C410 C 0.7773 0.52881 0.96293 0.0
C411 C 0.71194 0.36707 0.93392 0.0
H412 H 0.74899 0.50584 0.84439 0.0
H413 H 0.8226 0.59121 0.85803 0.0
H414 H 0.87491 0.66719 0.92552 0.0
H415 H 0.84228 0.63524 0.96047 0.0
H416 H 0.75361 0.45016 0.98957 0.0
H417 H 0.72009 0.36174 0.97391 0.0
H418 H 0.65298 0.28777 0.90867 0.0
H419 H 0.64021 0.322 0.87624 0.0
H420 H 0.88858 0.45419 0.88339 0.0
H421 H 0.92517 0.51281 0.93989 0.0
H422 H 0.5735 0.42477 0.9331 0.0
H423 H 0.65975 0.56998 0.90819 0.0
C424 C 0.24726 0.73327 0.20795 0.0
C425 C 0.21966 0.7428 0.19491 0.0
C426 C 0.21407 0.78076 0.2022 0.0
C427 C 0.23702 0.79156 0.21958 0.0
N428 N 0.25641 0.7624 0.22365 0.0
Co429 Co 0.2802 0.75562 0.24903 0.0
N430 N 0.2494 0.79015 0.26227 0.0
C431 C 0.234 0.81885 0.25378 0.0
C432 C 0.21557 0.83935 0.26638 0.0
C433 C 0.22038 0.82311 0.28391 0.0
C434 C 0.24152 0.79348 0.28104 0.0
N435 N 0.30357 0.74691 0.2742 0.0
C436 C 0.29096 0.75341 0.29193 0.0
C437 C 0.31916 0.74594 0.30539 0.0
C438 C 0.35101 0.73534 0.29581 0.0
C439 C 0.34055 0.73681 0.27707 0.0
N440 N 0.3125 0.72266 0.23588 0.0
C441 C 0.35101 0.71896 0.24269 0.0
C442 C 0.37061 0.70048 0.22979 0.0
C443 C 0.34264 0.69191 0.21378 0.0
C444 C 0.30684 0.70494 0.21797 0.0
N445 N 0.34282 0.82173 0.24613 0.0
C446 C 0.42735 0.91943 0.2425 0.0
C447 C 0.40287 0.90168 0.25983 0.0
C448 C 0.36132 0.8534 0.26133 0.0
C449 C 0.40883 0.88654 0.22697 0.0
C450 C 0.36679 0.8381 0.22907 0.0
N451 N 0.21656 0.69103 0.25194 0.0
C452 C 0.16831 0.60208 0.25823 0.0
C453 C 0.12313 0.60114 0.25448 0.0
C454 C 0.12617 0.64616 0.24966 0.0
C455 C 0.17249 0.69 0.2485 0.0
C456 C 0.21458 0.64738 0.25691 0.0
H457 H 0.1721 0.72311 0.24454 0.0
H458 H 0.24868 0.64709 0.25973 0.0
H459 H 0.34377 0.84223 0.27492 0.0
H460 H 0.35333 0.81415 0.2168 0.0
C461 C 0.22986 0.81861 0.23398 0.0
C462 C 0.26809 0.69977 0.20461 0.0
C463 C 0.258 0.77324 0.29652 0.0
C464 C 0.36272 0.72637 0.2619 0.0
H465 H 0.20477 0.72427 0.18155 0.0
H466 H 0.19255 0.79601 0.19613 0.0
H467 H 0.19925 0.8622 0.26319 0.0
H468 H 0.21037 0.83265 0.2973 0.0
H469 H 0.31863 0.75019 0.32052 0.0
H470 H 0.37873 0.72789 0.30179 0.0
H471 H 0.40061 0.6927 0.23191 0.0
H472 H 0.34787 0.67739 0.2006 0.0
H473 H 0.41557 0.92533 0.27225 0.0
H474 H 0.42643 0.89836 0.21325 0.0
H475 H 0.16789 0.56807 0.26196 0.0
H476 H 0.0926 0.64745 0.2466 0.0
C477 C 0.54872 0.26216 0.54069 0.0
C478 C 0.51616 0.24946 0.52555 0.0
C479 C 0.472 0.24293 0.5327 0.0
C480 C 0.47991 0.25214 0.55178 0.0
N481 N 0.52623 0.26391 0.55705 0.0
Co482 Co 0.55273 0.28035 0.5833 0.0
N483 N 0.48515 0.25049 0.59484 0.0
C484 C 0.44305 0.23902 0.5854 0.0
C485 C 0.40182 0.21931 0.59695 0.0
C486 C 0.41924 0.21906 0.61481 0.0
C487 C 0.47031 0.23887 0.6132 0.0
N488 N 0.58059 0.29774 0.60935 0.0
C489 C 0.55786 0.28424 0.62646 0.0
C490 C 0.59133 0.30977 0.64093 0.0
C491 C 0.63644 0.3401 0.6327 0.0
C492 C 0.62804 0.3318 0.61369 0.0
N493 N 0.62048 0.31002 0.57186 0.0
C494 C 0.66376 0.3412 0.58056 0.0
C495 C 0.70499 0.35206 0.56996 0.0
C496 C 0.68676 0.32634 0.55345 0.0
C497 C 0.63506 0.30185 0.55474 0.0
N498 N 0.5541 0.34574 0.58163 0.0
C499 C 0.54113 0.43055 0.57856 0.0
C500 C 0.56067 0.41569 0.56351 0.0
C501 C 0.5669 0.37351 0.56532 0.0
C502 C 0.52998 0.40276 0.59528 0.0
C503 C 0.53685 0.36128 0.59654 0.0
N504 N 0.54853 0.21409 0.58498 0.0
C505 C 0.58178 0.16027 0.59322 0.0
C506 C 0.53802 0.11753 0.58697 0.0
C507 C 0.5 0.12467 0.57979 0.0
C508 C 0.50589 0.17255 0.57892 0.0
C509 C 0.58626 0.20801 0.59213 0.0
H510 H 0.47539 0.17563 0.57326 0.0
H511 H 0.62023 0.23998 0.59704 0.0
H512 H 0.58091 0.36267 0.55333 0.0
H513 H 0.52656 0.34098 0.60961 0.0
C514 C 0.44324 0.24205 0.56554 0.0
C515 C 0.60143 0.275 0.53885 0.0
C516 C 0.50419 0.25172 0.62958 0.0
C517 C 0.66466 0.35141 0.59976 0.0
H518 H 0.52358 0.24528 0.5109 0.0
H519 H 0.43767 0.23096 0.52499 0.0
H520 H 0.36355 0.20604 0.59286 0.0
H521 H 0.39725 0.20722 0.62765 0.0
H522 H 0.58354 0.30836 0.65582 0.0
H523 H 0.67118 0.36506 0.63974 0.0
H524 H 0.74372 0.37384 0.57412 0.0
H525 H 0.70927 0.32585 0.54186 0.0
H526 H 0.57022 0.43599 0.55028 0.0
H527 H 0.51515 0.41261 0.60736 0.0
H528 H 0.61237 0.15681 0.59884 0.0
H529 H 0.46563 0.09315 0.57476 0.0
C530 C 0.30594 0.5252 0.87485 0.0
C531 C 0.29539 0.48757 0.8619 0.0
C532 C 0.25715 0.44438 0.86941 0.0
C533 C 0.24721 0.4572 0.88681 0.0
N534 N 0.27721 0.50581 0.89069 0.0
Co535 Co 0.28551 0.53712 0.91601 0.0
N536 N 0.25085 0.4722 0.92947 0.0
C537 C 0.22097 0.42796 0.9212 0.0
C538 C 0.2007 0.38939 0.93396 0.0
C539 C 0.21847 0.41086 0.95135 0.0
C540 C 0.24876 0.46151 0.94825 0.0
N541 N 0.29596 0.56993 0.94111 0.0
C542 C 0.29148 0.55146 0.95885 0.0
C543 C 0.30127 0.58782 0.97234 0.0
C544 C 0.31101 0.62998 0.96273 0.0
C545 C 0.30695 0.61725 0.94397 0.0
N546 N 0.31859 0.60207 0.90267 0.0
C547 C 0.32297 0.64457 0.90945 0.0
C548 C 0.34112 0.6823 0.8964 0.0
C549 C 0.34872 0.66232 0.88035 0.0
C550 C 0.3355 0.61353 0.88464 0.0
N551 N 0.21953 0.53416 0.91348 0.0
C552 C 0.12135 0.52029 0.91029 0.0
C553 C 0.1402 0.51512 0.92763 0.0
C554 C 0.1887 0.52221 0.9289 0.0
C555 C 0.15354 0.53368 0.89455 0.0
C556 C 0.20219 0.54048 0.89643 0.0
N557 N 0.34982 0.53739 0.91852 0.0
C558 C 0.43893 0.57709 0.9246 0.0
C559 C 0.43888 0.5324 0.92087 0.0
C560 C 0.39333 0.49075 0.91613 0.0
C561 C 0.34991 0.49393 0.91506 0.0
C562 C 0.39402 0.57879 0.92338 0.0
H563 H 0.31632 0.46058 0.91121 0.0
H564 H 0.39505 0.6135 0.92621 0.0
H565 H 0.20081 0.51707 0.94249 0.0
H566 H 0.22548 0.55014 0.88399 0.0
C567 C 0.22025 0.42347 0.90139 0.0
C568 C 0.33997 0.57947 0.87134 0.0
C569 C 0.2714 0.49869 0.96354 0.0
C570 C 0.31679 0.64954 0.92874 0.0
H571 H 0.31342 0.49063 0.84848 0.0
H572 H 0.24116 0.40738 0.86344 0.0
H573 H 0.17716 0.35013 0.93096 0.0
H574 H 0.20972 0.39164 0.9648 0.0
H575 H 0.29963 0.58383 0.98756 0.0
H576 H 0.32009 0.66564 0.96871 0.0
H577 H 0.3494 0.72023 0.89846 0.0
H578 H 0.36282 0.68168 0.86706 0.0
H579 H 0.11721 0.50505 0.94022 0.0
H580 H 0.14097 0.53833 0.88081 0.0
H581 H 0.47338 0.61047 0.92826 0.0
H582 H 0.39127 0.45556 0.91308 0.0
C583 C 0.77143 0.29937 0.20784 0.0
C584 C 0.78302 0.27959 0.19237 0.0
C585 C 0.78825 0.24088 0.19903 0.0
C586 C 0.77944 0.23892 0.21815 0.0
N587 N 0.7692 0.2741 0.22394 0.0
Co588 Co 0.75325 0.28308 0.25044 0.0
N589 N 0.78051 0.24236 0.26129 0.0
C590 C 0.79059 0.21149 0.25133 0.0
C591 C 0.80831 0.18746 0.26245 0.0
C592 C 0.80869 0.20366 0.28058 0.0
C593 C 0.79099 0.23666 0.27955 0.0
N594 N 0.7364 0.2924 0.27677 0.0
C595 C 0.74834 0.28042 0.29367 0.0
C596 C 0.72328 0.28816 0.30836 0.0
C597 C 0.69501 0.30582 0.30052 0.0
C598 C 0.70388 0.30741 0.2815 0.0
N599 N 0.7261 0.32406 0.23971 0.0
C600 C 0.6964 0.33735 0.24883 0.0
C601 C 0.68686 0.36918 0.23865 0.0
C602 C 0.71183 0.37636 0.22198 0.0
C603 C 0.73458 0.34757 0.22275 0.0
N604 N 0.68654 0.22084 0.24817 0.0
C605 C 0.59949 0.12518 0.24388 0.0
C606 C 0.61582 0.16103 0.22935 0.0
C607 C 0.65913 0.2084 0.23177 0.0
C608 C 0.62685 0.13924 0.26075 0.0
C609 C 0.66952 0.18667 0.26262 0.0
N610 N 0.8207 0.3435 0.25261 0.0
C611 C 0.87667 0.42997 0.2612 0.0
C612 C 0.91851 0.42783 0.25464 0.0
C613 C 0.90994 0.38242 0.24722 0.0
C614 C 0.86141 0.34123 0.24633 0.0
C615 C 0.82825 0.38752 0.26008 0.0
H616 H 0.8571 0.30742 0.2404 0.0
H617 H 0.79695 0.39038 0.26518 0.0
H618 H 0.67115 0.23446 0.22018 0.0
H619 H 0.68948 0.19482 0.27573 0.0
C620 C 0.78794 0.21039 0.23147 0.0
C621 C 0.75979 0.34003 0.20649 0.0
C622 C 0.77882 0.25691 0.29632 0.0
C623 C 0.68592 0.32692 0.26795 0.0
H624 H 0.78715 0.29185 0.17781 0.0
H625 H 0.79892 0.21805 0.19096 0.0
H626 H 0.82009 0.16165 0.25792 0.0
H627 H 0.81919 0.19141 0.2932 0.0
H628 H 0.72339 0.27961 0.32311 0.0
H629 H 0.67083 0.31614 0.30782 0.0
H630 H 0.66628 0.38704 0.24318 0.0
H631 H 0.71286 0.40005 0.21058 0.0
H632 H 0.5958 0.15216 0.21606 0.0
H633 H 0.61575 0.11324 0.27243 0.0
H634 H 0.88133 0.4643 0.26703 0.0
H635 H 0.9408 0.3788 0.24196 0.0
C636 C 0.30433 0.48586 0.99446 0.0
C637 C 0.26411 0.48406 0.98422 0.0
C638 C 0.22081 0.47821 0.01427 0.0
C639 C 0.26418 0.48757 0.0244 0.0
N640 N 0.34598 0.49691 0.02481 0.0
N641 N 0.18229 0.47486 0.98394 0.0
C642 C 0.30528 0.48949 0.01466 0.0
C643 C 0.22135 0.47809 0.99405 0.0
N644 N 0.34162 0.48438 0.98469 0.0
N645 N 0.17929 0.46991 0.02408 0.0
H646 H 0.17986 0.47078 0.9693 0.0
H647 H 0.15279 0.4772 0.98982 0.0
H648 H 0.17829 0.47131 0.03881 0.0
H649 H 0.14476 0.45839 0.01791 0.0
H650 H 0.37085 0.48235 0.99098 0.0
H651 H 0.34136 0.48156 0.96996 0.0
H652 H 0.37955 0.50401 0.01881 0.0
H653 H 0.34665 0.49736 0.03957 0.0
C654 C 0.74901 0.20478 0.34645 0.0
C655 C 0.7879 0.24471 0.35668 0.0
C656 C 0.82915 0.28459 0.32662 0.0
C657 C 0.78832 0.24667 0.31641 0.0
N658 N 0.71618 0.16456 0.31606 0.0
N659 N 0.87092 0.31551 0.3569 0.0
C660 C 0.75075 0.20444 0.32621 0.0
C661 C 0.83023 0.282 0.34683 0.0
N662 N 0.70907 0.16866 0.35615 0.0
N663 N 0.8655 0.32445 0.31697 0.0
H664 H 0.87238 0.31457 0.37161 0.0
H665 H 0.9046 0.34145 0.35079 0.0
H666 H 0.86676 0.32603 0.30221 0.0
H667 H 0.89327 0.35658 0.32341 0.0
H668 H 0.67636 0.14163 0.34977 0.0
H669 H 0.70807 0.16684 0.3709 0.0
H670 H 0.68994 0.13093 0.32209 0.0
H671 H 0.71644 0.16368 0.30133 0.0
C672 C 0.55697 0.82623 0.68121 0.0
C673 C 0.55297 0.78435 0.69092 0.0
C674 C 0.55956 0.74922 0.66051 0.0
C675 C 0.55476 0.78657 0.65069 0.0
N676 N 0.55101 0.86195 0.65131 0.0
N677 N 0.55133 0.70612 0.69021 0.0
C678 C 0.55508 0.82605 0.66097 0.0
C679 C 0.55553 0.74635 0.68068 0.0
N680 N 0.56196 0.86581 0.69145 0.0
N681 N 0.56716 0.71603 0.65045 0.0
H682 H 0.55027 0.70379 0.70495 0.0
H683 H 0.54652 0.674 0.68365 0.0
H684 H 0.56977 0.71696 0.63576 0.0
H685 H 0.57524 0.69046 0.65659 0.0
H686 H 0.56899 0.89933 0.68548 0.0
H687 H 0.56289 0.86645 0.70621 0.0
H688 H 0.54496 0.88863 0.65773 0.0
H689 H 0.552 0.86392 0.63656 0.0
C690 C 0.82458 0.55106 0.01375 0.0
C691 C 0.78216 0.54623 0.02336 0.0
C692 C 0.7442 0.54694 0.99275 0.0
C693 C 0.78472 0.5476 0.98311 0.0
N694 N 0.8683 0.56149 0.98394 0.0
N695 N 0.70679 0.55043 0.02264 0.0
C696 C 0.8268 0.55397 0.99352 0.0
C697 C 0.74393 0.54833 0.013 0.0
N698 N 0.86144 0.55008 0.02402 0.0
N699 N 0.70475 0.54216 0.98243 0.0
H700 H 0.70505 0.55021 0.03737 0.0
H701 H 0.67965 0.55582 0.01626 0.0
H702 H 0.70525 0.5435 0.96767 0.0
H703 H 0.67115 0.53554 0.98825 0.0
H704 H 0.89081 0.54752 0.01814 0.0
H705 H 0.86175 0.55028 0.03879 0.0
H706 H 0.90184 0.57017 0.99039 0.0
H707 H 0.87042 0.56266 0.96923 0.0
C708 C 0.28769 0.82407 0.3268 0.0
C709 C 0.25063 0.78119 0.31714 0.0
C710 C 0.21139 0.74453 0.34775 0.0
C711 C 0.25347 0.78288 0.35737 0.0
N712 N 0.33104 0.86028 0.3564 0.0
N713 N 0.17598 0.7011 0.3181 0.0
C714 C 0.29096 0.82351 0.34697 0.0
C715 C 0.21157 0.74195 0.32755 0.0
N716 N 0.32003 0.86507 0.31661 0.0
N717 N 0.17161 0.71028 0.35803 0.0
H718 H 0.1739 0.69923 0.30335 0.0
H719 H 0.14989 0.66833 0.32471 0.0
H720 H 0.17053 0.71154 0.37274 0.0
H721 H 0.13804 0.68357 0.35207 0.0
H722 H 0.3454 0.89904 0.32267 0.0
H723 H 0.3184 0.86647 0.30193 0.0
H724 H 0.36298 0.88779 0.34974 0.0
H725 H 0.33312 0.86201 0.37114 0.0
C726 C 0.48691 0.20116 0.67996 0.0
C727 C 0.48884 0.24168 0.69011 0.0
C728 C 0.47931 0.27658 0.66011 0.0
C729 C 0.48607 0.24094 0.64986 0.0
N730 N 0.49303 0.16739 0.64957 0.0
N731 N 0.48412 0.31652 0.69037 0.0
C732 C 0.48777 0.20198 0.65971 0.0
C733 C 0.48313 0.2784 0.68031 0.0
N734 N 0.48542 0.16255 0.68979 0.0
N735 N 0.47046 0.30939 0.6504 0.0
H736 H 0.48455 0.31744 0.70514 0.0
H737 H 0.48621 0.34799 0.68428 0.0
H738 H 0.46839 0.30939 0.6357 0.0
H739 H 0.46138 0.334 0.65677 0.0
H740 H 0.48013 0.1299 0.68357 0.0
H741 H 0.48593 0.16162 0.70452 0.0
H742 H 0.50051 0.14122 0.65553 0.0
H743 H 0.4913 0.16586 0.63481 0.0
C744 C 0.26251 0.68357 0.16843 0.0
C745 C 0.25745 0.66601 0.18734 0.0
C746 C 0.25977 0.59324 0.17449 0.0
C747 C 0.25672 0.60719 0.15557 0.0
N748 N 0.23676 0.65883 0.13609 0.0
N749 N 0.23527 0.5941 0.20698 0.0
C750 C 0.25086 0.64952 0.15314 0.0
C751 C 0.24991 0.6171 0.18984 0.0
N752 N 0.28382 0.73316 0.1647 0.0
N753 N 0.27648 0.56101 0.17814 0.0
H754 H 0.22652 0.60991 0.21831 0.0
H755 H 0.22707 0.5575 0.20908 0.0
H756 H 0.28923 0.54683 0.16752 0.0
H757 H 0.28284 0.55316 0.19186 0.0
H758 H 0.29115 0.74714 0.15093 0.0
H759 H 0.29966 0.76016 0.17525 0.0
H760 H 0.2305 0.68855 0.13408 0.0
H761 H 0.22665 0.63396 0.12479 0.0
C762 C 0.68886 0.31791 0.49594 0.0
C763 C 0.6771 0.27257 0.48678 0.0
C764 C 0.6158 0.22719 0.5122 0.0
C765 C 0.6237 0.27302 0.51986 0.0
N766 N 0.65832 0.36123 0.51532 0.0
N767 N 0.62467 0.18348 0.48516 0.0
C768 C 0.65719 0.31809 0.5105 0.0
C769 C 0.6392 0.22694 0.49466 0.0
N770 N 0.7309 0.36098 0.49092 0.0
N771 N 0.58696 0.18403 0.5219 0.0
H772 H 0.64166 0.18194 0.47263 0.0
H773 H 0.59379 0.14966 0.48899 0.0
H774 H 0.56862 0.18284 0.53444 0.0
H775 H 0.58393 0.15014 0.51822 0.0
H776 H 0.74359 0.39431 0.49825 0.0
H777 H 0.75566 0.36205 0.48068 0.0
H778 H 0.67888 0.39433 0.50783 0.0
H779 H 0.63475 0.36254 0.52556 0.0
C780 C 0.44677 0.67722 0.84111 0.0
C781 C 0.43288 0.65994 0.82221 0.0
C782 C 0.35626 0.58938 0.83512 0.0
C783 C 0.37381 0.60217 0.85403 0.0
N784 N 0.44598 0.65222 0.87362 0.0
N785 N 0.38109 0.58795 0.80281 0.0
C786 C 0.42288 0.64362 0.8565 0.0
C787 C 0.39044 0.61159 0.81983 0.0
N788 N 0.47891 0.72632 0.84472 0.0
N789 N 0.30659 0.56115 0.83137 0.0
H790 H 0.406 0.60263 0.79151 0.0
H791 H 0.35125 0.5519 0.80084 0.0
H792 H 0.27954 0.5503 0.8419 0.0
H793 H 0.29264 0.55428 0.81759 0.0
H794 H 0.4867 0.74067 0.85843 0.0
H795 H 0.493 0.75316 0.83408 0.0
H796 H 0.48265 0.68075 0.87569 0.0
H797 H 0.43016 0.62772 0.88497 0.0
C798 C 0.7162 0.38536 0.16404 0.0
C799 C 0.76145 0.41806 0.15459 0.0
C800 C 0.80717 0.40189 0.17971 0.0
C801 C 0.76128 0.3646 0.18766 0.0
N802 N 0.67239 0.31241 0.18387 0.0
N803 N 0.8504 0.45373 0.15244 0.0
C804 C 0.71591 0.35374 0.17869 0.0
C805 C 0.80716 0.42539 0.16219 0.0
N806 N 0.6733 0.38469 0.15909 0.0
N807 N 0.85067 0.41568 0.1891 0.0
H808 H 0.85174 0.47234 0.13997 0.0
H809 H 0.88416 0.45626 0.15602 0.0
H810 H 0.85201 0.39858 0.20161 0.0
H811 H 0.88478 0.44609 0.18521 0.0
H812 H 0.64009 0.36481 0.16661 0.0
H813 H 0.67234 0.40799 0.14867 0.0
H814 H 0.63894 0.3002 0.17665 0.0
H815 H 0.6709 0.28761 0.19415 0.0
C816 C 0.38614 0.70981 0.51086 0.0
C817 C 0.41918 0.75507 0.52022 0.0
C818 C 0.40384 0.80063 0.49482 0.0
C819 C 0.36628 0.75482 0.48694 0.0
N820 N 0.31301 0.66631 0.49104 0.0
N821 N 0.45542 0.84402 0.52214 0.0
C822 C 0.35471 0.7096 0.49614 0.0
C823 C 0.42697 0.80072 0.51245 0.0
N824 N 0.38516 0.66687 0.51587 0.0
N825 N 0.41829 0.84395 0.48525 0.0
H826 H 0.47359 0.84546 0.53475 0.0
H827 H 0.45829 0.87777 0.51837 0.0
H828 H 0.40154 0.84525 0.47263 0.0
H829 H 0.44895 0.87791 0.48911 0.0
H830 H 0.36498 0.63366 0.5084 0.0
H831 H 0.4085 0.66584 0.52627 0.0
H832 H 0.30038 0.63305 0.49841 0.0
H833 H 0.28838 0.66493 0.48069 0.0
C834 C 0.68627 0.37274 0.84465 0.0
C835 C 0.6752 0.40677 0.85383 0.0
C836 C 0.61374 0.39145 0.82859 0.0
C837 C 0.62118 0.35336 0.82082 0.0
N838 N 0.65528 0.29929 0.82495 0.0
N839 N 0.62371 0.44435 0.85566 0.0
C840 C 0.65441 0.34127 0.83005 0.0
C841 C 0.63755 0.41499 0.84609 0.0
N842 N 0.72795 0.37106 0.84964 0.0
N843 N 0.585 0.40604 0.81902 0.0
H844 H 0.64107 0.46286 0.86814 0.0
H845 H 0.59306 0.44772 0.85192 0.0
H846 H 0.56623 0.38879 0.80656 0.0
H847 H 0.58233 0.43707 0.82274 0.0
H848 H 0.74028 0.35018 0.84226 0.0
H849 H 0.75287 0.39446 0.8599 0.0
H850 H 0.67558 0.28627 0.83231 0.0
H851 H 0.63177 0.27487 0.81458 0.0
C852 C 0.99518 0.52654 0.06905 0.0
C853 C 0.96817 0.51599 0.08636 0.0
C854 C 0.04238 0.52657 0.10363 0.0
C855 C 0.06973 0.53817 0.08638 0.0
N856 N 0.07459 0.55445 0.05298 0.0
N857 N 0.96714 0.5107 0.12037 0.0
C858 C 0.04672 0.53972 0.06918 0.0
C859 C 0.99224 0.51746 0.10371 0.0
N860 N 0.97113 0.52322 0.05242 0.0
N861 N 0.06415 0.52296 0.11993 0.0
H862 H 0.9297 0.50082 0.12097 0.0
H863 H 0.98362 0.51709 0.13366 0.0
H864 H 0.10149 0.5324 0.12067 0.0
H865 H 0.04509 0.50863 0.13257 0.0
H866 H 0.98622 0.52528 0.03909 0.0
H867 H 0.93438 0.5157 0.05185 0.0
H868 H 0.06241 0.56104 0.04019 0.0
H869 H 0.11178 0.56331 0.05257 0.0
C870 C 0.53991 0.04036 0.43665 0.0
C871 C 0.56187 0.06491 0.41929 0.0
C872 C 0.49882 0.98985 0.40208 0.0
C873 C 0.47996 0.96381 0.41947 0.0
N874 N 0.48911 0.96225 0.45326 0.0
N875 N 0.56671 0.05953 0.38543 0.0
C876 C 0.50242 0.98864 0.43673 0.0
C877 C 0.54244 0.03864 0.40199 0.0
N878 N 0.55373 0.06701 0.45312 0.0
N879 N 0.474 0.96872 0.38564 0.0
H880 H 0.59828 0.09489 0.38474 0.0
H881 H 0.55806 0.04036 0.37263 0.0
H882 H 0.44238 0.93337 0.38509 0.0
H883 H 0.48224 0.98771 0.37281 0.0
H884 H 0.53563 0.05303 0.46597 0.0
H885 H 0.5803 0.1048 0.45362 0.0
H886 H 0.50762 0.97645 0.46602 0.0
H887 H 0.46253 0.92447 0.45388 0.0
C888 C 0.51862 0.48258 0.77026 0.0
C889 C 0.5207 0.46039 0.75289 0.0
C890 C 0.49848 0.51613 0.73565 0.0
C891 C 0.49932 0.5402 0.7529 0.0
N892 N 0.51215 0.54827 0.78659 0.0
N893 N 0.51452 0.45675 0.71892 0.0
C894 C 0.50965 0.52363 0.7702 0.0
C895 C 0.51103 0.47739 0.73554 0.0
N896 N 0.52479 0.4639 0.78692 0.0
N897 N 0.48513 0.53019 0.71935 0.0
H898 H 0.52141 0.42717 0.71836 0.0
H899 H 0.51299 0.46997 0.70558 0.0
H900 H 0.47685 0.55884 0.71892 0.0
H901 H 0.47925 0.51202 0.70645 0.0
H902 H 0.51801 0.47366 0.80021 0.0
H903 H 0.53473 0.43647 0.78753 0.0
H904 H 0.52549 0.54301 0.79936 0.0
H905 H 0.50255 0.57599 0.78733 0.0
C906 C 0.52928 0.04075 0.5701 0.0
C907 C 0.53147 0.06547 0.58736 0.0
C908 C 0.51842 0.99042 0.60479 0.0
C909 C 0.51168 0.96423 0.58747 0.0
N910 N 0.50212 0.9625 0.55362 0.0
N911 N 0.52016 0.06031 0.62117 0.0
C912 C 0.51477 0.98899 0.57013 0.0
C913 C 0.52391 0.03927 0.60472 0.0
N914 N 0.54276 0.06727 0.5536 0.0
N915 N 0.52139 0.96937 0.62135 0.0
H916 H 0.52419 0.09571 0.62174 0.0
H917 H 0.5091 0.04123 0.63398 0.0
H918 H 0.51738 0.93399 0.62202 0.0
H919 H 0.53181 0.98844 0.63418 0.0
H920 H 0.54721 0.05319 0.54084 0.0
H921 H 0.55419 0.10506 0.55303 0.0
H922 H 0.49831 0.97662 0.54077 0.0
H923 H 0.49072 0.92471 0.55308 0.0
C924 C 0.50594 0.52306 0.93853 0.0
C925 C 0.48554 0.52797 0.92116 0.0
C926 C 0.54277 0.50782 0.90389 0.0
C927 C 0.56582 0.50662 0.92116 0.0
N928 N 0.57427 0.52125 0.95478 0.0
N929 N 0.49084 0.53357 0.88719 0.0
C930 C 0.54868 0.51648 0.93845 0.0
C931 C 0.50593 0.52284 0.90382 0.0
N932 N 0.48342 0.52296 0.95516 0.0
N933 N 0.55477 0.4927 0.88754 0.0
H934 H 0.46435 0.54488 0.88659 0.0
H935 H 0.50773 0.53578 0.87421 0.0
H936 H 0.58083 0.48085 0.88705 0.0
H937 H 0.53578 0.48747 0.87484 0.0
H938 H 0.4925 0.51376 0.96814 0.0
H939 H 0.45303 0.52865 0.95583 0.0
H940 H 0.5674 0.53383 0.96746 0.0
H941 H 0.60515 0.51635 0.95533 0.0
C942 C 0.04691 0.5332 0.23751 0.0
C943 C 0.07237 0.55397 0.25482 0.0
C944 C 0.99813 0.49011 0.27218 0.0
C945 C 0.97106 0.47261 0.25491 0.0
N946 N 0.96787 0.48331 0.22129 0.0
N947 N 0.06952 0.55611 0.28883 0.0
C948 C 0.99512 0.49576 0.23762 0.0
C949 C 0.04721 0.53334 0.27222 0.0
N950 N 0.07271 0.54852 0.22086 0.0
N951 N 0.9776 0.46443 0.28852 0.0
H952 H 0.10545 0.58689 0.28946 0.0
H953 H 0.05124 0.5468 0.30183 0.0
H954 H 0.94201 0.43313 0.2891 0.0
H955 H 0.9972 0.47165 0.30118 0.0
H956 H 0.05815 0.53144 0.2079 0.0
H957 H 0.11047 0.57543 0.22023 0.0
H958 H 0.98143 0.50232 0.20858 0.0
H959 H 0.93001 0.4568 0.22082 0.0
C960 C 0.55151 0.53584 0.08457 0.0
C961 C 0.55338 0.50009 0.09672 0.0
C962 C 0.47773 0.49078 0.11236 0.0
C963 C 0.47059 0.51862 0.09787 0.0
N964 N 0.49695 0.55521 0.06674 0.0
N965 N 0.50693 0.43334 0.11904 0.0
C966 C 0.50644 0.53767 0.08297 0.0
C967 C 0.51326 0.47463 0.10976 0.0
N968 N 0.59314 0.56985 0.07509 0.0
N969 N 0.4524 0.4813 0.12904 0.0
H970 H 0.52883 0.41727 0.11634 0.0
H971 H 0.47599 0.4117 0.12756 0.0
H972 H 0.4295 0.49596 0.13227 0.0
H973 H 0.45929 0.46433 0.14046 0.0
H974 H 0.59407 0.59863 0.06718 0.0
H975 H 0.62801 0.57321 0.07713 0.0
H976 H 0.52066 0.5659 0.05504 0.0
H977 H 0.46287 0.55303 0.06404 0.0
C978 C 0.98196 0.52341 0.43109 0.0
C979 C 0.97099 0.47302 0.43096 0.0
C980 C 0.06202 0.50359 0.42989 0.0
C981 C 0.073 0.5539 0.43096 0.0
N982 N 0.04303 0.61101 0.43604 0.0
N983 N 1.00129 0.41552 0.43381 0.0
C984 C 0.03273 0.56346 0.4326 0.0
C985 C 1.01136 0.46335 0.43141 0.0
N986 N 0.94393 0.53323 0.42895 0.0
N987 N 0.09994 0.49412 0.42668 0.0
H988 H 0.96509 0.38541 0.43505 0.0
H989 H 0.02862 0.40608 0.43627 0.0
H990 H 0.13721 0.52219 0.42582 0.0
H991 H 0.09431 0.45894 0.42347 0.0
H992 H 0.94945 0.56876 0.42668 0.0
H993 H 0.90664 0.5053 0.428 0.0
H994 H 1.01592 0.62015 0.43942 0.0
H995 H 0.07932 0.64101 0.43715 0.0
C996 C 0.56635 0.04945 0.77594 0.0
C997 C 0.53919 0.06306 0.76337 0.0
C998 C 0.5008 0.97794 0.75 0.0
C999 C 0.52189 0.96222 0.76449 0.0
N1000 N 0.56296 0.98308 0.79497 0.0
N1001 N 0.46724 0.03145 0.74276 0.0
C1002 C 0.55116 0.998 0.77858 0.0
C1003 C 0.50239 0.02467 0.75169 0.0
N1004 N 0.60829 0.08526 0.78471 0.0
N1005 N 0.48145 0.94999 0.73405 0.0
H1006 H 0.46392 0.06289 0.74488 0.0
H1007 H 0.43769 1.00305 0.73525 0.0
H1008 H 0.48347 0.91809 0.73127 0.0
H1009 H 0.46926 0.96219 0.72258 0.0
H1010 H 0.63119 0.07684 0.79282 0.0
H1011 H 0.62346 0.12312 0.78199 0.0
H1012 H 0.58096 1.00742 0.80619 0.0
H1013 H 0.54928 0.9457 0.79826 0.0
C1014 C 0.56068 0.56468 0.57741 0.0
C1015 C 0.51064 0.55524 0.57749 0.0
C1016 C 0.48142 0.46474 0.57514 0.0
C1017 C 0.53114 0.47397 0.57705 0.0
N1018 N 0.61785 0.53331 0.58224 0.0
N1019 N 0.42298 0.49501 0.57873 0.0
C1020 C 0.57068 0.52419 0.57871 0.0
C1021 C 0.47095 0.50485 0.57686 0.0
N1022 N 0.59894 0.61258 0.57551 0.0
N1023 N 0.44405 0.41748 0.57121 0.0
H1024 H 0.41379 0.52294 0.57989 0.0
H1025 H 0.39262 0.45938 0.58062 0.0
H1026 H 0.45015 0.38748 0.56994 0.0
H1027 H 0.40799 0.40868 0.56759 0.0
H1028 H 0.63585 0.622 0.5733 0.0
H1029 H 0.59324 0.64287 0.57444 0.0
H1030 H 0.64739 0.56822 0.58587 0.0
H1031 H 0.62676 0.50511 0.58294 0.0
C1032 C 0.02664 0.46151 0.91072 0.0
C1033 C 0.06804 0.51079 0.90889 0.0
C1034 C 1.00817 0.54147 0.90563 0.0
C1035 C 0.96718 0.49301 0.90939 0.0
N1036 N 0.93829 0.40763 0.91759 0.0
N1037 N 0.09784 0.59868 0.90683 0.0
C1038 C 0.97677 0.45323 0.91242 0.0
C1039 C 0.05858 0.55098 0.90682 0.0
N1040 N 0.03488 0.42222 0.91027 0.0
N1041 N 0.99885 0.57847 0.90052 0.0
H1042 H 0.13488 0.60714 0.90752 0.0
H1043 H 0.09382 0.62996 0.9076 0.0
H1044 H 0.96288 0.57311 0.89971 0.0
H1045 H 0.02616 0.61312 0.89557 0.0
H1046 H 1.00648 0.38523 0.90951 0.0
H1047 H 0.07043 0.4267 0.90897 0.0
H1048 H 0.94316 0.37856 0.92226 0.0
H1049 H 0.90149 0.39987 0.91853 0.0
C1050 C 0.52115 0.98155 0.23947 0.0
C1051 C 0.47141 0.97241 0.24093 0.0
C1052 C 0.50534 0.06356 0.24402 0.0
C1053 C 0.55488 0.07281 0.24165 0.0
N1054 N 0.609 0.04079 0.23375 0.0
N1055 N 0.41612 1.00576 0.24111 0.0
C1056 C 0.56237 0.03174 0.23835 0.0
C1057 C 0.46363 0.01385 0.24219 0.0
N1058 N 0.52933 0.94223 0.23999 0.0
N1059 N 0.49811 0.10216 0.24875 0.0
H1060 H 0.38498 0.97029 0.23969 0.0
H1061 H 0.40776 0.03419 0.23993 0.0
H1062 H 0.52729 0.13885 0.24982 0.0
H1063 H 0.46383 0.0975 0.25294 0.0
H1064 H 0.56457 0.94614 0.24123 0.0
H1065 H 0.50051 0.9053 0.24062 0.0
H1066 H 0.61646 0.01332 0.22916 0.0
H1067 H 0.63983 0.07664 0.23294 0.0
loop_
_geom_bond_atom_site_label_1
_geom_bond_atom_site_label_2
_geom_bond_distance
_geom_bond_site_symmetry_2
_ccdc_geom_bond_type
C0 C1 1.443 . S
C0 N4 1.376 . S
C0 C38 1.389 . S
C1 C0 1.443 . S
C1 C2 1.340 . S
C1 H41 0.951 . S
C2 C1 1.340 . S
C2 C3 1.439 . S
C2 H42 0.950 . S
C3 C2 1.439 . S
C3 N4 1.374 . S
C3 C37 1.395 . S
N4 C0 1.376 . S
N4 C3 1.374 . S
N4 Co5 2.008 . S
Co5 N4 2.008 . S
Co5 N6 1.995 . S
Co5 N11 2.008 . S
Co5 N16 1.995 . S
Co5 N21 2.282 . S
Co5 N27 2.282 . S
N6 Co5 1.995 . S
N6 C7 1.376 . S
N6 C10 1.383 . S
C7 N6 1.376 . S
C7 C8 1.446 . S
C7 C37 1.391 . S
C8 C7 1.446 . S
C8 C9 1.339 . S
C8 H43 0.949 . S
C9 C8 1.339 . S
C9 C10 1.439 . S
C9 H44 0.950 . S
C10 N6 1.383 . S
C10 C9 1.439 . S
C10 C39 1.392 . S
N11 Co5 2.008 . S
N11 C12 1.376 . S
N11 C15 1.374 . S
C12 N11 1.376 . S
C12 C13 1.443 . S
C12 C39 1.389 . S
C13 C12 1.443 . S
C13 C14 1.340 . S
C13 H45 0.951 . S
C14 C13 1.340 . S
C14 C15 1.439 . S
C14 H46 0.950 . S
C15 N11 1.374 . S
C15 C14 1.439 . S
C15 C40 1.395 . S
N16 Co5 1.995 . S
N16 C17 1.376 . S
N16 C20 1.383 . S
C17 N16 1.376 . S
C17 C18 1.446 . S
C17 C40 1.391 . S
C18 C17 1.446 . S
C18 C19 1.339 . S
C18 H47 0.949 . S
C19 C18 1.339 . S
C19 C20 1.439 . S
C19 H48 0.950 . S
C20 N16 1.383 . S
C20 C19 1.439 . S
C20 C38 1.392 . S
N21 Co5 2.282 . S
N21 C24 1.332 . S
N21 C26 1.332 . S
C22 C23 1.386 . S
C22 C25 1.388 . S
C23 C22 1.386 . S
C23 C24 1.382 . S
C23 H49 0.950 . S
C24 N21 1.332 . S
C24 C23 1.382 . S
C24 H35 0.952 . S
C25 C22 1.388 . S
C25 C26 1.382 . S
C25 H50 0.950 . S
C26 N21 1.332 . S
C26 C25 1.382 . S
C26 H36 0.948 . S
N27 Co5 2.282 . S
N27 C31 1.332 . S
N27 C32 1.332 . S
C28 C29 1.388 . S
C28 C32 1.382 . S
C28 H51 0.950 . S
C29 C28 1.388 . S
C29 C30 1.386 . S
C30 C29 1.386 . S
C30 C31 1.382 . S
C30 H52 0.950 . S
C31 N27 1.332 . S
C31 C30 1.382 . S
C31 H33 0.952 . S
C32 N27 1.332 . S
C32 C28 1.382 . S
C32 H34 0.948 . S
H33 C31 0.952 . S
H34 C32 0.948 . S
H35 C24 0.952 . S
H36 C26 0.948 . S
C37 C3 1.395 . S
C37 C7 1.391 . S
C38 C0 1.389 . S
C38 C20 1.392 . S
C39 C10 1.392 . S
C39 C12 1.389 . S
C40 C15 1.395 . S
C40 C17 1.391 . S
H41 C1 0.951 . S
H42 C2 0.950 . S
H43 C8 0.949 . S
H44 C9 0.950 . S
H45 C13 0.951 . S
H46 C14 0.950 . S
H47 C18 0.949 . S
H48 C19 0.950 . S
H49 C23 0.950 . S
H50 C25 0.950 . S
H51 C28 0.950 . S
H52 C30 0.950 . S
C53 C54 1.443 . S
C53 N57 1.376 . S
C53 C91 1.389 . S
C54 C53 1.443 . S
C54 C55 1.340 . S
C54 H94 0.951 . S
C55 C54 1.340 . S
C55 C56 1.439 . S
C55 H95 0.950 . S
C56 C55 1.439 . S
C56 N57 1.374 . S
C56 C90 1.395 . S
N57 C53 1.376 . S
N57 C56 1.374 . S
N57 Co58 2.008 . S
Co58 N57 2.008 . S
Co58 N59 1.995 . S
Co58 N64 2.008 . S
Co58 N69 1.995 . S
Co58 N74 2.282 . S
Co58 N80 2.282 . S
N59 Co58 1.995 . S
N59 C60 1.376 . S
N59 C63 1.383 . S
C60 N59 1.376 . S
C60 C61 1.446 . S
C60 C90 1.391 . S
C61 C60 1.446 . S
C61 C62 1.339 . S
C61 H96 0.949 . S
C62 C61 1.339 . S
C62 C63 1.439 . S
C62 H97 0.950 . S
C63 N59 1.383 . S
C63 C62 1.439 . S
C63 C92 1.392 . S
N64 Co58 2.008 . S
N64 C65 1.376 . S
N64 C68 1.374 . S
C65 N64 1.376 . S
C65 C66 1.443 . S
C65 C92 1.389 . S
C66 C65 1.443 . S
C66 C67 1.340 . S
C66 H98 0.951 . S
C67 C66 1.340 . S
C67 C68 1.439 . S
C67 H99 0.950 . S
C68 N64 1.374 . S
C68 C67 1.439 . S
C68 C93 1.395 . S
N69 Co58 1.995 . S
N69 C70 1.376 . S
N69 C73 1.383 . S
C70 N69 1.376 . S
C70 C71 1.446 . S
C70 C93 1.391 . S
C71 C70 1.446 . S
C71 C72 1.339 . S
C71 H100 0.949 . S
C72 C71 1.339 . S
C72 C73 1.439 . S
C72 H101 0.950 . S
C73 N69 1.383 . S
C73 C72 1.439 . S
C73 C91 1.392 . S
N74 Co58 2.282 . S
N74 C77 1.332 . S
N74 C79 1.332 . S
C75 C76 1.386 . S
C75 C78 1.388 . S
C76 C75 1.386 . S
C76 C77 1.382 . S
C76 H102 0.950 . S
C77 N74 1.332 . S
C77 C76 1.382 . S
C77 H88 0.952 . S
C78 C75 1.388 . S
C78 C79 1.382 . S
C78 H103 0.950 . S
C79 N74 1.332 . S
C79 C78 1.382 . S
C79 H89 0.948 . S
N80 Co58 2.282 . S
N80 C84 1.332 . S
N80 C85 1.332 . S
C81 C82 1.388 . S
C81 C85 1.382 . S
C81 H104 0.950 . S
C82 C81 1.388 . S
C82 C83 1.386 . S
C83 C82 1.386 . S
C83 C84 1.382 . S
C83 H105 0.950 . S
C84 N80 1.332 . S
C84 C83 1.382 . S
C84 H86 0.952 . S
C85 N80 1.332 . S
C85 C81 1.382 . S
C85 H87 0.948 . S
H86 C84 0.952 . S
H87 C85 0.948 . S
H88 C77 0.952 . S
H89 C79 0.948 . S
C90 C56 1.395 . S
C90 C60 1.391 . S
C91 C53 1.389 . S
C91 C73 1.392 . S
C92 C63 1.392 . S
C92 C65 1.389 . S
C93 C68 1.395 . S
C93 C70 1.391 . S
H94 C54 0.951 . S
H95 C55 0.950 . S
H96 C61 0.949 . S
H97 C62 0.950 . S
H98 C66 0.951 . S
H99 C67 0.950 . S
H100 C71 0.949 . S
H101 C72 0.950 . S
H102 C76 0.950 . S
H103 C78 0.950 . S
H104 C81 0.950 . S
H105 C83 0.950 . S
C106 C107 1.443 . S
C106 N110 1.376 . S
C106 C144 1.389 . S
C107 C106 1.443 . S
C107 C108 1.340 . S
C107 H147 0.951 . S
C108 C107 1.340 . S
C108 C109 1.439 . S
C108 H148 0.950 . S
C109 C108 1.439 . S
C109 N110 1.374 . S
C109 C143 1.395 . S
N110 C106 1.376 . S
N110 C109 1.374 . S
N110 Co111 2.008 . S
Co111 N110 2.008 . S
Co111 N112 1.995 . S
Co111 N117 2.008 . S
Co111 N122 1.995 . S
Co111 N127 2.282 . S
Co111 N133 2.282 . S
N112 Co111 1.995 . S
N112 C113 1.376 . S
N112 C116 1.383 . S
C113 N112 1.376 . S
C113 C114 1.446 . S
C113 C143 1.391 . S
C114 C113 1.446 . S
C114 C115 1.339 . S
C114 H149 0.949 . S
C115 C114 1.339 . S
C115 C116 1.439 . S
C115 H150 0.950 . S
C116 N112 1.383 . S
C116 C115 1.439 . S
C116 C145 1.392 . S
N117 Co111 2.008 . S
N117 C118 1.376 . S
N117 C121 1.374 . S
C118 N117 1.376 . S
C118 C119 1.443 . S
C118 C145 1.389 . S
C119 C118 1.443 . S
C119 C120 1.340 . S
C119 H151 0.951 . S
C120 C119 1.340 . S
C120 C121 1.439 . S
C120 H152 0.950 . S
C121 N117 1.374 . S
C121 C120 1.439 . S
C121 C146 1.395 . S
N122 Co111 1.995 . S
N122 C123 1.376 . S
N122 C126 1.383 . S
C123 N122 1.376 . S
C123 C124 1.446 . S
C123 C146 1.391 . S
C124 C123 1.446 . S
C124 C125 1.339 . S
C124 H153 0.949 . S
C125 C124 1.339 . S
C125 C126 1.439 . S
C125 H154 0.950 . S
C126 N122 1.383 . S
C126 C125 1.439 . S
C126 C144 1.392 . S
N127 Co111 2.282 . S
N127 C130 1.332 . S
N127 C132 1.332 . S
C128 C129 1.386 . S
C128 C131 1.388 . S
C129 C128 1.386 . S
C129 C130 1.382 . S
C129 H155 0.950 . S
C130 N127 1.332 . S
C130 C129 1.382 . S
C130 H141 0.952 . S
C131 C128 1.388 . S
C131 C132 1.382 . S
C131 H156 0.950 . S
C132 N127 1.332 . S
C132 C131 1.382 . S
C132 H142 0.948 . S
N133 Co111 2.282 . S
N133 C137 1.332 . S
N133 C138 1.332 . S
C134 C135 1.388 . S
C134 C138 1.382 . S
C134 H157 0.950 . S
C135 C134 1.388 . S
C135 C136 1.386 . S
C136 C135 1.386 . S
C136 C137 1.382 . S
C136 H158 0.950 . S
C137 N133 1.332 . S
C137 C136 1.382 . S
C137 H139 0.952 . S
C138 N133 1.332 . S
C138 C134 1.382 . S
C138 H140 0.948 . S
H139 C137 0.952 . S
H140 C138 0.948 . S
H141 C130 0.952 . S
H142 C132 0.948 . S
C143 C109 1.395 . S
C143 C113 1.391 . S
C144 C106 1.389 . S
C144 C126 1.392 . S
C145 C116 1.392 . S
C145 C118 1.389 . S
C146 C121 1.395 . S
C146 C123 1.391 . S
H147 C107 0.951 . S
H148 C108 0.950 . S
H149 C114 0.949 . S
H150 C115 0.950 . S
H151 C119 0.951 . S
H152 C120 0.950 . S
H153 C124 0.949 . S
H154 C125 0.950 . S
H155 C129 0.950 . S
H156 C131 0.950 . S
H157 C134 0.950 . S
H158 C136 0.950 . S
C159 C160 1.443 . S
C159 N163 1.376 . S
C159 C197 1.389 . S
C160 C159 1.443 . S
C160 C161 1.340 . S
C160 H200 0.951 . S
C161 C160 1.340 . S
C161 C162 1.439 . S
C161 H201 0.950 . S
C162 C161 1.439 . S
C162 N163 1.374 . S
C162 C196 1.395 . S
N163 C159 1.376 . S
N163 C162 1.374 . S
N163 Co164 2.008 . S
Co164 N163 2.008 . S
Co164 N165 1.995 . S
Co164 N170 2.008 . S
Co164 N175 1.995 . S
Co164 N180 2.282 . S
Co164 N186 2.282 . S
N165 Co164 1.995 . S
N165 C166 1.376 . S
N165 C169 1.383 . S
C166 N165 1.376 . S
C166 C167 1.446 . S
C166 C196 1.391 . S
C167 C166 1.446 . S
C167 C168 1.339 . S
C167 H202 0.949 . S
C168 C167 1.339 . S
C168 C169 1.439 . S
C168 H203 0.950 . S
C169 N165 1.383 . S
C169 C168 1.439 . S
C169 C198 1.392 . S
N170 Co164 2.008 . S
N170 C171 1.376 . S
N170 C174 1.374 . S
C171 N170 1.376 . S
C171 C172 1.443 . S
C171 C198 1.389 . S
C172 C171 1.443 . S
C172 C173 1.340 . S
C172 H204 0.951 . S
C173 C172 1.340 . S
C173 C174 1.439 . S
C173 H205 0.950 . S
C174 N170 1.374 . S
C174 C173 1.439 . S
C174 C199 1.395 . S
N175 Co164 1.995 . S
N175 C176 1.376 . S
N175 C179 1.383 . S
C176 N175 1.376 . S
C176 C177 1.446 . S
C176 C199 1.391 . S
C177 C176 1.446 . S
C177 C178 1.339 . S
C177 H206 0.949 . S
C178 C177 1.339 . S
C178 C179 1.439 . S
C178 H207 0.950 . S
C179 N175 1.383 . S
C179 C178 1.439 . S
C179 C197 1.392 . S
N180 Co164 2.282 . S
N180 C183 1.332 . S
N180 C185 1.332 . S
C181 C182 1.386 . S
C181 C184 1.388 . S
C182 C181 1.386 . S
C182 C183 1.382 . S
C182 H208 0.950 . S
C183 N180 1.332 . S
C183 C182 1.382 . S
C183 H194 0.952 . S
C184 C181 1.388 . S
C184 C185 1.382 . S
C184 H209 0.950 . S
C185 N180 1.332 . S
C185 C184 1.382 . S
C185 H195 0.948 . S
N186 Co164 2.282 . S
N186 C190 1.332 . S
N186 C191 1.332 . S
C187 C188 1.388 . S
C187 C191 1.382 . S
C187 H210 0.950 . S
C188 C187 1.388 . S
C188 C189 1.386 . S
C189 C188 1.386 . S
C189 C190 1.382 . S
C189 H211 0.950 . S
C190 N186 1.332 . S
C190 C189 1.382 . S
C190 H192 0.952 . S
C191 N186 1.332 . S
C191 C187 1.382 . S
C191 H193 0.948 . S
H192 C190 0.952 . S
H193 C191 0.948 . S
H194 C183 0.952 . S
H195 C185 0.948 . S
C196 C162 1.395 . S
C196 C166 1.391 . S
C197 C159 1.389 . S
C197 C179 1.392 . S
C198 C169 1.392 . S
C198 C171 1.389 . S
C199 C174 1.395 . S
C199 C176 1.391 . S
H200 C160 0.951 . S
H201 C161 0.950 . S
H202 C167 0.949 . S
H203 C168 0.950 . S
H204 C172 0.951 . S
H205 C173 0.950 . S
H206 C177 0.949 . S
H207 C178 0.950 . S
H208 C182 0.950 . S
H209 C184 0.950 . S
H210 C187 0.950 . S
H211 C189 0.950 . S
C212 C213 1.443 . S
C212 N216 1.376 . S
C212 C250 1.389 . S
C213 C212 1.443 . S
C213 C214 1.340 . S
C213 H253 0.951 . S
C214 C213 1.340 . S
C214 C215 1.439 . S
C214 H254 0.950 . S
C215 C214 1.439 . S
C215 N216 1.374 . S
C215 C249 1.395 . S
N216 C212 1.376 . S
N216 C215 1.374 . S
N216 Co217 2.008 . S
Co217 N216 2.008 . S
Co217 N218 1.995 . S
Co217 N223 2.008 . S
Co217 N228 1.995 . S
Co217 N233 2.282 . S
Co217 N239 2.282 . S
N218 Co217 1.995 . S
N218 C219 1.376 . S
N218 C222 1.383 . S
C219 N218 1.376 . S
C219 C220 1.446 . S
C219 C249 1.391 . S
C220 C219 1.446 . S
C220 C221 1.339 . S
C220 H255 0.949 . S
C221 C220 1.339 . S
C221 C222 1.439 . S
C221 H256 0.950 . S
C222 N218 1.383 . S
C222 C221 1.439 . S
C222 C251 1.392 . S
N223 Co217 2.008 . S
N223 C224 1.376 . S
N223 C227 1.374 . S
C224 N223 1.376 . S
C224 C225 1.443 . S
C224 C251 1.389 . S
C225 C224 1.443 . S
C225 C226 1.340 . S
C225 H257 0.951 . S
C226 C225 1.340 . S
C226 C227 1.439 . S
C226 H258 0.950 . S
C227 N223 1.374 . S
C227 C226 1.439 . S
C227 C252 1.395 . S
N228 Co217 1.995 . S
N228 C229 1.376 . S
N228 C232 1.383 . S
C229 N228 1.376 . S
C229 C230 1.446 . S
C229 C252 1.391 . S
C230 C229 1.446 . S
C230 C231 1.339 . S
C230 H259 0.949 . S
C231 C230 1.339 . S
C231 C232 1.439 . S
C231 H260 0.950 . S
C232 N228 1.383 . S
C232 C231 1.439 . S
C232 C250 1.392 . S
N233 Co217 2.282 . S
N233 C236 1.332 . S
N233 C238 1.332 . S
C234 C235 1.386 . S
C234 C237 1.388 . S
C235 C234 1.386 . S
C235 C236 1.382 . S
C235 H261 0.950 . S
C236 N233 1.332 . S
C236 C235 1.382 . S
C236 H247 0.952 . S
C237 C234 1.388 . S
C237 C238 1.382 . S
C237 H262 0.950 . S
C238 N233 1.332 . S
C238 C237 1.382 . S
C238 H248 0.948 . S
N239 Co217 2.282 . S
N239 C243 1.332 . S
N239 C244 1.332 . S
C240 C241 1.388 . S
C240 C244 1.382 . S
C240 H263 0.950 . S
C241 C240 1.388 . S
C241 C242 1.386 . S
C242 C241 1.386 . S
C242 C243 1.382 . S
C242 H264 0.950 . S
C243 N239 1.332 . S
C243 C242 1.382 . S
C243 H245 0.952 . S
C244 N239 1.332 . S
C244 C240 1.382 . S
C244 H246 0.948 . S
H245 C243 0.952 . S
H246 C244 0.948 . S
H247 C236 0.952 . S
H248 C238 0.948 . S
C249 C215 1.395 . S
C249 C219 1.391 . S
C250 C212 1.389 . S
C250 C232 1.392 . S
C251 C222 1.392 . S
C251 C224 1.389 . S
C252 C227 1.395 . S
C252 C229 1.391 . S
H253 C213 0.951 . S
H254 C214 0.950 . S
H255 C220 0.949 . S
H256 C221 0.950 . S
H257 C225 0.951 . S
H258 C226 0.950 . S
H259 C230 0.949 . S
H260 C231 0.950 . S
H261 C235 0.950 . S
H262 C237 0.950 . S
H263 C240 0.950 . S
H264 C242 0.950 . S
C265 C266 1.443 . S
C265 N269 1.376 . S
C265 C303 1.389 . S
C266 C265 1.443 . S
C266 C267 1.340 . S
C266 H306 0.951 . S
C267 C266 1.340 . S
C267 C268 1.439 . S
C267 H307 0.950 . S
C268 C267 1.439 . S
C268 N269 1.374 . S
C268 C302 1.395 . S
N269 C265 1.376 . S
N269 C268 1.374 . S
N269 Co270 2.008 . S
Co270 N269 2.008 . S
Co270 N271 1.995 . S
Co270 N276 2.008 . S
Co270 N281 1.995 . S
Co270 N286 2.282 . S
Co270 N292 2.282 . S
N271 Co270 1.995 . S
N271 C272 1.376 . S
N271 C275 1.383 . S
C272 N271 1.376 . S
C272 C273 1.446 . S
C272 C302 1.391 . S
C273 C272 1.446 . S
C273 C274 1.339 . S
C273 H308 0.949 . S
C274 C273 1.339 . S
C274 C275 1.439 . S
C274 H309 0.950 . S
C275 N271 1.383 . S
C275 C274 1.439 . S
C275 C304 1.392 . S
N276 Co270 2.008 . S
N276 C277 1.376 . S
N276 C280 1.374 . S
C277 N276 1.376 . S
C277 C278 1.443 . S
C277 C304 1.389 . S
C278 C277 1.443 . S
C278 C279 1.340 . S
C278 H310 0.951 . S
C279 C278 1.340 . S
C279 C280 1.439 . S
C279 H311 0.950 . S
C280 N276 1.374 . S
C280 C279 1.439 . S
C280 C305 1.395 . S
N281 Co270 1.995 . S
N281 C282 1.376 . S
N281 C285 1.383 . S
C282 N281 1.376 . S
C282 C283 1.446 . S
C282 C305 1.391 . S
C283 C282 1.446 . S
C283 C284 1.339 . S
C283 H312 0.949 . S
C284 C283 1.339 . S
C284 C285 1.439 . S
C284 H313 0.950 . S
C285 N281 1.383 . S
C285 C284 1.439 . S
C285 C303 1.392 . S
N286 Co270 2.282 . S
N286 C289 1.332 . S
N286 C291 1.332 . S
C287 C288 1.386 . S
C287 C290 1.388 . S
C288 C287 1.386 . S
C288 C289 1.382 . S
C288 H314 0.950 . S
C289 N286 1.332 . S
C289 C288 1.382 . S
C289 H300 0.952 . S
C290 C287 1.388 . S
C290 C291 1.382 . S
C290 H315 0.950 . S
C291 N286 1.332 . S
C291 C290 1.382 . S
C291 H301 0.948 . S
N292 Co270 2.282 . S
N292 C296 1.332 . S
N292 C297 1.332 . S
C293 C294 1.388 . S
C293 C297 1.382 . S
C293 H316 0.950 . S
C294 C293 1.388 . S
C294 C295 1.386 . S
C295 C294 1.386 . S
C295 C296 1.382 . S
C295 H317 0.950 . S
C296 N292 1.332 . S
C296 C295 1.382 . S
C296 H298 0.952 . S
C297 N292 1.332 . S
C297 C293 1.382 . S
C297 H299 0.948 . S
H298 C296 0.952 . S
H299 C297 0.948 . S
H300 C289 0.952 . S
H301 C291 0.948 . S
C302 C268 1.395 . S
C302 C272 1.391 . S
C303 C265 1.389 . S
C303 C285 1.392 . S
C304 C275 1.392 . S
C304 C277 1.389 . S
C305 C280 1.395 . S
C305 C282 1.391 . S
H306 C266 0.951 . S
H307 C267 0.950 . S
H308 C273 0.949 . S
H309 C274 0.950 . S
H310 C278 0.951 . S
H311 C279 0.950 . S
H312 C283 0.949 . S
H313 C284 0.950 . S
H314 C288 0.950 . S
H315 C290 0.950 . S
H316 C293 0.950 . S
H317 C295 0.950 . S
C318 C319 1.443 . S
C318 N322 1.376 . S
C318 C356 1.389 . S
C319 C318 1.443 . S
C319 C320 1.340 . S
C319 H359 0.951 . S
C320 C319 1.340 . S
C320 C321 1.439 . S
C320 H360 0.950 . S
C321 C320 1.439 . S
C321 N322 1.374 . S
C321 C355 1.395 . S
N322 C318 1.376 . S
N322 C321 1.374 . S
N322 Co323 2.008 . S
Co323 N322 2.008 . S
Co323 N324 1.995 . S
Co323 N329 2.008 . S
Co323 N334 1.995 . S
Co323 N339 2.282 . S
Co323 N345 2.282 . S
N324 Co323 1.995 . S
N324 C325 1.376 . S
N324 C328 1.383 . S
C325 N324 1.376 . S
C325 C326 1.446 . S
C325 C355 1.391 . S
C326 C325 1.446 . S
C326 C327 1.339 . S
C326 H361 0.949 . S
C327 C326 1.339 . S
C327 C328 1.439 . S
C327 H362 0.950 . S
C328 N324 1.383 . S
C328 C327 1.439 . S
C328 C357 1.392 . S
N329 Co323 2.008 . S
N329 C330 1.376 . S
N329 C333 1.374 . S
C330 N329 1.376 . S
C330 C331 1.443 . S
C330 C357 1.389 . S
C331 C330 1.443 . S
C331 C332 1.340 . S
C331 H363 0.951 . S
C332 C331 1.340 . S
C332 C333 1.439 . S
C332 H364 0.950 . S
C333 N329 1.374 . S
C333 C332 1.439 . S
C333 C358 1.395 . S
N334 Co323 1.995 . S
N334 C335 1.376 . S
N334 C338 1.383 . S
C335 N334 1.376 . S
C335 C336 1.446 . S
C335 C358 1.391 . S
C336 C335 1.446 . S
C336 C337 1.339 . S
C336 H365 0.949 . S
C337 C336 1.339 . S
C337 C338 1.439 . S
C337 H366 0.950 . S
C338 N334 1.383 . S
C338 C337 1.439 . S
C338 C356 1.392 . S
N339 Co323 2.282 . S
N339 C342 1.332 . S
N339 C344 1.332 . S
C340 C341 1.386 . S
C340 C343 1.388 . S
C341 C340 1.386 . S
C341 C342 1.382 . S
C341 H367 0.950 . S
C342 N339 1.332 . S
C342 C341 1.382 . S
C342 H353 0.952 . S
C343 C340 1.388 . S
C343 C344 1.382 . S
C343 H368 0.950 . S
C344 N339 1.332 . S
C344 C343 1.382 . S
C344 H354 0.948 . S
N345 Co323 2.282 . S
N345 C349 1.332 . S
N345 C350 1.332 . S
C346 C347 1.388 . S
C346 C350 1.382 . S
C346 H369 0.950 . S
C347 C346 1.388 . S
C347 C348 1.386 . S
C348 C347 1.386 . S
C348 C349 1.382 . S
C348 H370 0.950 . S
C349 N345 1.332 . S
C349 C348 1.382 . S
C349 H351 0.952 . S
C350 N345 1.332 . S
C350 C346 1.382 . S
C350 H352 0.948 . S
H351 C349 0.952 . S
H352 C350 0.948 . S
H353 C342 0.952 . S
H354 C344 0.948 . S
C355 C321 1.395 . S
C355 C325 1.391 . S
C356 C318 1.389 . S
C356 C338 1.392 . S
C357 C328 1.392 . S
C357 C330 1.389 . S
C358 C333 1.395 . S
C358 C335 1.391 . S
H359 C319 0.951 . S
H360 C320 0.950 . S
H361 C326 0.949 . S
H362 C327 0.950 . S
H363 C331 0.951 . S
H364 C332 0.950 . S
H365 C336 0.949 . S
H366 C337 0.950 . S
H367 C341 0.950 . S
H368 C343 0.950 . S
H369 C346 0.950 . S
H370 C348 0.950 . S
C371 C372 1.443 . S
C371 N375 1.376 . S
C371 C409 1.389 . S
C372 C371 1.443 . S
C372 C373 1.340 . S
C372 H412 0.951 . S
C373 C372 1.340 . S
C373 C374 1.439 . S
C373 H413 0.950 . S
C374 C373 1.439 . S
C374 N375 1.374 . S
C374 C408 1.395 . S
N375 C371 1.376 . S
N375 C374 1.374 . S
N375 Co376 2.008 . S
Co376 N375 2.008 . S
Co376 N377 1.995 . S
Co376 N382 2.008 . S
Co376 N387 1.995 . S
Co376 N392 2.282 . S
Co376 N398 2.282 . S
N377 Co376 1.995 . S
N377 C378 1.376 . S
N377 C381 1.383 . S
C378 N377 1.376 . S
C378 C379 1.446 . S
C378 C408 1.391 . S
C379 C378 1.446 . S
C379 C380 1.339 . S
C379 H414 0.949 . S
C380 C379 1.339 . S
C380 C381 1.439 . S
C380 H415 0.950 . S
C381 N377 1.383 . S
C381 C380 1.439 . S
C381 C410 1.392 . S
N382 Co376 2.008 . S
N382 C383 1.376 . S
N382 C386 1.374 . S
C383 N382 1.376 . S
C383 C384 1.443 . S
C383 C410 1.389 . S
C384 C383 1.443 . S
C384 C385 1.340 . S
C384 H416 0.951 . S
C385 C384 1.340 . S
C385 C386 1.439 . S
C385 H417 0.950 . S
C386 N382 1.374 . S
C386 C385 1.439 . S
C386 C411 1.395 . S
N387 Co376 1.995 . S
N387 C388 1.376 . S
N387 C391 1.383 . S
C388 N387 1.376 . S
C388 C389 1.446 . S
C388 C411 1.391 . S
C389 C388 1.446 . S
C389 C390 1.339 . S
C389 H418 0.949 . S
C390 C389 1.339 . S
C390 C391 1.439 . S
C390 H419 0.950 . S
C391 N387 1.383 . S
C391 C390 1.439 . S
C391 C409 1.392 . S
N392 Co376 2.282 . S
N392 C395 1.332 . S
N392 C397 1.332 . S
C393 C394 1.386 . S
C393 C396 1.388 . S
C394 C393 1.386 . S
C394 C395 1.382 . S
C394 H420 0.950 . S
C395 N392 1.332 . S
C395 C394 1.382 . S
C395 H406 0.952 . S
C396 C393 1.388 . S
C396 C397 1.382 . S
C396 H421 0.950 . S
C397 N392 1.332 . S
C397 C396 1.382 . S
C397 H407 0.948 . S
N398 Co376 2.282 . S
N398 C402 1.332 . S
N398 C403 1.332 . S
C399 C400 1.388 . S
C399 C403 1.382 . S
C399 H422 0.950 . S
C400 C399 1.388 . S
C400 C401 1.386 . S
C401 C400 1.386 . S
C401 C402 1.382 . S
C401 H423 0.950 . S
C402 N398 1.332 . S
C402 C401 1.382 . S
C402 H404 0.952 . S
C403 N398 1.332 . S
C403 C399 1.382 . S
C403 H405 0.948 . S
H404 C402 0.952 . S
H405 C403 0.948 . S
H406 C395 0.952 . S
H407 C397 0.948 . S
C408 C374 1.395 . S
C408 C378 1.391 . S
C409 C371 1.389 . S
C409 C391 1.392 . S
C410 C381 1.392 . S
C410 C383 1.389 . S
C411 C386 1.395 . S
C411 C388 1.391 . S
H412 C372 0.951 . S
H413 C373 0.950 . S
H414 C379 0.949 . S
H415 C380 0.950 . S
H416 C384 0.951 . S
H417 C385 0.950 . S
H418 C389 0.949 . S
H419 C390 0.950 . S
H420 C394 0.950 . S
H421 C396 0.950 . S
H422 C399 0.950 . S
H423 C401 0.950 . S
C424 C425 1.443 . S
C424 N428 1.376 . S
C424 C462 1.389 . S
C425 C424 1.443 . S
C425 C426 1.340 . S
C425 H465 0.951 . S
C426 C425 1.340 . S
C426 C427 1.439 . S
C426 H466 0.950 . S
C427 C426 1.439 . S
C427 N428 1.374 . S
C427 C461 1.395 . S
N428 C424 1.376 . S
N428 C427 1.374 . S
N428 Co429 2.008 . S
Co429 N428 2.008 . S
Co429 N430 1.995 . S
Co429 N435 2.008 . S
Co429 N440 1.995 . S
Co429 N445 2.282 . S
Co429 N451 2.282 . S
N430 Co429 1.995 . S
N430 C431 1.376 . S
N430 C434 1.383 . S
C431 N430 1.376 . S
C431 C432 1.446 . S
C431 C461 1.391 . S
C432 C431 1.446 . S
C432 C433 1.339 . S
C432 H467 0.949 . S
C433 C432 1.339 . S
C433 C434 1.439 . S
C433 H468 0.950 . S
C434 N430 1.383 . S
C434 C433 1.439 . S
C434 C463 1.392 . S
N435 Co429 2.008 . S
N435 C436 1.376 . S
N435 C439 1.374 . S
C436 N435 1.376 . S
C436 C437 1.443 . S
C436 C463 1.389 . S
C437 C436 1.443 . S
C437 C438 1.340 . S
C437 H469 0.951 . S
C438 C437 1.340 . S
C438 C439 1.439 . S
C438 H470 0.950 . S
C439 N435 1.374 . S
C439 C438 1.439 . S
C439 C464 1.395 . S
N440 Co429 1.995 . S
N440 C441 1.376 . S
N440 C444 1.383 . S
C441 N440 1.376 . S
C441 C442 1.446 . S
C441 C464 1.391 . S
C442 C441 1.446 . S
C442 C443 1.339 . S
C442 H471 0.949 . S
C443 C442 1.339 . S
C443 C444 1.439 . S
C443 H472 0.950 . S
C444 N440 1.383 . S
C444 C443 1.439 . S
C444 C462 1.392 . S
N445 Co429 2.282 . S
N445 C448 1.332 . S
N445 C450 1.332 . S
C446 C447 1.386 . S
C446 C449 1.388 . S
C447 C446 1.386 . S
C447 C448 1.382 . S
C447 H473 0.950 . S
C448 N445 1.332 . S
C448 C447 1.382 . S
C448 H459 0.952 . S
C449 C446 1.388 . S
C449 C450 1.382 . S
C449 H474 0.950 . S
C450 N445 1.332 . S
C450 C449 1.382 . S
C450 H460 0.948 . S
N451 Co429 2.282 . S
N451 C455 1.332 . S
N451 C456 1.332 . S
C452 C453 1.388 . S
C452 C456 1.382 . S
C452 H475 0.950 . S
C453 C452 1.388 . S
C453 C454 1.386 . S
C454 C453 1.386 . S
C454 C455 1.382 . S
C454 H476 0.950 . S
C455 N451 1.332 . S
C455 C454 1.382 . S
C455 H457 0.952 . S
C456 N451 1.332 . S
C456 C452 1.382 . S
C456 H458 0.948 . S
H457 C455 0.952 . S
H458 C456 0.948 . S
H459 C448 0.952 . S
H460 C450 0.948 . S
C461 C427 1.395 . S
C461 C431 1.391 . S
C462 C424 1.389 . S
C462 C444 1.392 . S
C463 C434 1.392 . S
C463 C436 1.389 . S
C464 C439 1.395 . S
C464 C441 1.391 . S
H465 C425 0.951 . S
H466 C426 0.950 . S
H467 C432 0.949 . S
H468 C433 0.950 . S
H469 C437 0.951 . S
H470 C438 0.950 . S
H471 C442 0.949 . S
H472 C443 0.950 . S
H473 C447 0.950 . S
H474 C449 0.950 . S
H475 C452 0.950 . S
H476 C454 0.950 . S
C477 C478 1.443 . S
C477 N481 1.376 . S
C477 C515 1.389 . S
C478 C477 1.443 . S
C478 C479 1.340 . S
C478 H518 0.951 . S
C479 C478 1.340 . S
C479 C480 1.439 . S
C479 H519 0.950 . S
C480 C479 1.439 . S
C480 N481 1.374 . S
C480 C514 1.395 . S
N481 C477 1.376 . S
N481 C480 1.374 . S
N481 Co482 2.008 . S
Co482 N481 2.008 . S
Co482 N483 1.995 . S
Co482 N488 2.008 . S
Co482 N493 1.995 . S
Co482 N498 2.282 . S
Co482 N504 2.282 . S
N483 Co482 1.995 . S
N483 C484 1.376 . S
N483 C487 1.383 . S
C484 N483 1.376 . S
C484 C485 1.446 . S
C484 C514 1.391 . S
C485 C484 1.446 . S
C485 C486 1.339 . S
C485 H520 0.949 . S
C486 C485 1.339 . S
C486 C487 1.439 . S
C486 H521 0.950 . S
C487 N483 1.383 . S
C487 C486 1.439 . S
C487 C516 1.392 . S
N488 Co482 2.008 . S
N488 C489 1.376 . S
N488 C492 1.374 . S
C489 N488 1.376 . S
C489 C490 1.443 . S
C489 C516 1.389 . S
C490 C489 1.443 . S
C490 C491 1.340 . S
C490 H522 0.951 . S
C491 C490 1.340 . S
C491 C492 1.439 . S
C491 H523 0.950 . S
C492 N488 1.374 . S
C492 C491 1.439 . S
C492 C517 1.395 . S
N493 Co482 1.995 . S
N493 C494 1.376 . S
N493 C497 1.383 . S
C494 N493 1.376 . S
C494 C495 1.446 . S
C494 C517 1.391 . S
C495 C494 1.446 . S
C495 C496 1.339 . S
C495 H524 0.949 . S
C496 C495 1.339 . S
C496 C497 1.439 . S
C496 H525 0.950 . S
C497 N493 1.383 . S
C497 C496 1.439 . S
C497 C515 1.392 . S
N498 Co482 2.282 . S
N498 C501 1.332 . S
N498 C503 1.332 . S
C499 C500 1.386 . S
C499 C502 1.388 . S
C500 C499 1.386 . S
C500 C501 1.382 . S
C500 H526 0.950 . S
C501 N498 1.332 . S
C501 C500 1.382 . S
C501 H512 0.952 . S
C502 C499 1.388 . S
C502 C503 1.382 . S
C502 H527 0.950 . S
C503 N498 1.332 . S
C503 C502 1.382 . S
C503 H513 0.948 . S
N504 Co482 2.282 . S
N504 C508 1.332 . S
N504 C509 1.332 . S
C505 C506 1.388 . S
C505 C509 1.382 . S
C505 H528 0.950 . S
C506 C505 1.388 . S
C506 C507 1.386 . S
C507 C506 1.386 . S
C507 C508 1.382 . S
C507 H529 0.950 . S
C508 N504 1.332 . S
C508 C507 1.382 . S
C508 H510 0.952 . S
C509 N504 1.332 . S
C509 C505 1.382 . S
C509 H511 0.948 . S
H510 C508 0.952 . S
H511 C509 0.948 . S
H512 C501 0.952 . S
H513 C503 0.948 . S
C514 C480 1.395 . S
C514 C484 1.391 . S
C515 C477 1.389 . S
C515 C497 1.392 . S
C516 C487 1.392 . S
C516 C489 1.389 . S
C517 C492 1.395 . S
C517 C494 1.391 . S
H518 C478 0.951 . S
H519 C479 0.950 . S
H520 C485 0.949 . S
H521 C486 0.950 . S
H522 C490 0.951 . S
H523 C491 0.950 . S
H524 C495 0.949 . S
H525 C496 0.950 . S
H526 C500 0.950 . S
H527 C502 0.950 . S
H528 C505 0.950 . S
H529 C507 0.950 . S
C530 C531 1.443 . S
C530 N534 1.376 . S
C530 C568 1.389 . S
C531 C530 1.443 . S
C531 C532 1.340 . S
C531 H571 0.951 . S
C532 C531 1.340 . S
C532 C533 1.439 . S
C532 H572 0.950 . S
C533 C532 1.439 . S
C533 N534 1.374 . S
C533 C567 1.395 . S
N534 C530 1.376 . S
N534 C533 1.374 . S
N534 Co535 2.008 . S
Co535 N534 2.008 . S
Co535 N536 1.995 . S
Co535 N541 2.008 . S
Co535 N546 1.995 . S
Co535 N551 2.282 . S
Co535 N557 2.282 . S
N536 Co535 1.995 . S
N536 C537 1.376 . S
N536 C540 1.383 . S
C537 N536 1.376 . S
C537 C538 1.446 . S
C537 C567 1.391 . S
C538 C537 1.446 . S
C538 C539 1.339 . S
C538 H573 0.949 . S
C539 C538 1.339 . S
C539 C540 1.439 . S
C539 H574 0.950 . S
C540 N536 1.383 . S
C540 C539 1.439 . S
C540 C569 1.392 . S
N541 Co535 2.008 . S
N541 C542 1.376 . S
N541 C545 1.374 . S
C542 N541 1.376 . S
C542 C543 1.443 . S
C542 C569 1.389 . S
C543 C542 1.443 . S
C543 C544 1.340 . S
C543 H575 0.951 . S
C544 C543 1.340 . S
C544 C545 1.439 . S
C544 H576 0.950 . S
C545 N541 1.374 . S
C545 C544 1.439 . S
C545 C570 1.395 . S
N546 Co535 1.995 . S
N546 C547 1.376 . S
N546 C550 1.383 . S
C547 N546 1.376 . S
C547 C548 1.446 . S
C547 C570 1.391 . S
C548 C547 1.446 . S
C548 C549 1.339 . S
C548 H577 0.949 . S
C549 C548 1.339 . S
C549 C550 1.439 . S
C549 H578 0.950 . S
C550 N546 1.383 . S
C550 C549 1.439 . S
C550 C568 1.392 . S
N551 Co535 2.282 . S
N551 C554 1.332 . S
N551 C556 1.332 . S
C552 C553 1.386 . S
C552 C555 1.388 . S
C553 C552 1.386 . S
C553 C554 1.382 . S
C553 H579 0.950 . S
C554 N551 1.332 . S
C554 C553 1.382 . S
C554 H565 0.952 . S
C555 C552 1.388 . S
C555 C556 1.382 . S
C555 H580 0.950 . S
C556 N551 1.332 . S
C556 C555 1.382 . S
C556 H566 0.948 . S
N557 Co535 2.282 . S
N557 C561 1.332 . S
N557 C562 1.332 . S
C558 C559 1.388 . S
C558 C562 1.382 . S
C558 H581 0.950 . S
C559 C558 1.388 . S
C559 C560 1.386 . S
C560 C559 1.386 . S
C560 C561 1.382 . S
C560 H582 0.950 . S
C561 N557 1.332 . S
C561 C560 1.382 . S
C561 H563 0.952 . S
C562 N557 1.332 . S
C562 C558 1.382 . S
C562 H564 0.948 . S
H563 C561 0.952 . S
H564 C562 0.948 . S
H565 C554 0.952 . S
H566 C556 0.948 . S
C567 C533 1.395 . S
C567 C537 1.391 . S
C568 C530 1.389 . S
C568 C550 1.392 . S
C569 C540 1.392 . S
C569 C542 1.389 . S
C570 C545 1.395 . S
C570 C547 1.391 . S
H571 C531 0.951 . S
H572 C532 0.950 . S
H573 C538 0.949 . S
H574 C539 0.950 . S
H575 C543 0.951 . S
H576 C544 0.950 . S
H577 C548 0.949 . S
H578 C549 0.950 . S
H579 C553 0.950 . S
H580 C555 0.950 . S
H581 C558 0.950 . S
H582 C560 0.950 . S
C583 C584 1.443 . S
C583 N587 1.376 . S
C583 C621 1.389 . S
C584 C583 1.443 . S
C584 C585 1.340 . S
C584 H624 0.951 . S
C585 C584 1.340 . S
C585 C586 1.439 . S
C585 H625 0.950 . S
C586 C585 1.439 . S
C586 N587 1.374 . S
C586 C620 1.395 . S
N587 C583 1.376 . S
N587 C586 1.374 . S
N587 Co588 2.008 . S
Co588 N587 2.008 . S
Co588 N589 1.995 . S
Co588 N594 2.008 . S
Co588 N599 1.995 . S
Co588 N604 2.282 . S
Co588 N610 2.282 . S
N589 Co588 1.995 . S
N589 C590 1.376 . S
N589 C593 1.383 . S
C590 N589 1.376 . S
C590 C591 1.446 . S
C590 C620 1.391 . S
C591 C590 1.446 . S
C591 C592 1.339 . S
C591 H626 0.949 . S
C592 C591 1.339 . S
C592 C593 1.439 . S
C592 H627 0.950 . S
C593 N589 1.383 . S
C593 C592 1.439 . S
C593 C622 1.392 . S
N594 Co588 2.008 . S
N594 C595 1.376 . S
N594 C598 1.374 . S
C595 N594 1.376 . S
C595 C596 1.443 . S
C595 C622 1.389 . S
C596 C595 1.443 . S
C596 C597 1.340 . S
C596 H628 0.951 . S
C597 C596 1.340 . S
C597 C598 1.439 . S
C597 H629 0.950 . S
C598 N594 1.374 . S
C598 C597 1.439 . S
C598 C623 1.395 . S
N599 Co588 1.995 . S
N599 C600 1.376 . S
N599 C603 1.383 . S
C600 N599 1.376 . S
C600 C601 1.446 . S
C600 C623 1.391 . S
C601 C600 1.446 . S
C601 C602 1.339 . S
C601 H630 0.949 . S
C602 C601 1.339 . S
C602 C603 1.439 . S
C602 H631 0.950 . S
C603 N599 1.383 . S
C603 C602 1.439 . S
C603 C621 1.392 . S
N604 Co588 2.282 . S
N604 C607 1.332 . S
N604 C609 1.332 . S
C605 C606 1.386 . S
C605 C608 1.388 . S
C606 C605 1.386 . S
C606 C607 1.382 . S
C606 H632 0.950 . S
C607 N604 1.332 . S
C607 C606 1.382 . S
C607 H618 0.952 . S
C608 C605 1.388 . S
C608 C609 1.382 . S
C608 H633 0.950 . S
C609 N604 1.332 . S
C609 C608 1.382 . S
C609 H619 0.948 . S
N610 Co588 2.282 . S
N610 C614 1.332 . S
N610 C615 1.332 . S
C611 C612 1.388 . S
C611 C615 1.382 . S
C611 H634 0.950 . S
C612 C611 1.388 . S
C612 C613 1.386 . S
C613 C612 1.386 . S
C613 C614 1.382 . S
C613 H635 0.950 . S
C614 N610 1.332 . S
C614 C613 1.382 . S
C614 H616 0.952 . S
C615 N610 1.332 . S
C615 C611 1.382 . S
C615 H617 0.948 . S
H616 C614 0.952 . S
H617 C615 0.948 . S
H618 C607 0.952 . S
H619 C609 0.948 . S
C620 C586 1.395 . S
C620 C590 1.391 . S
C621 C583 1.389 . S
C621 C603 1.392 . S
C622 C593 1.392 . S
C622 C595 1.389 . S
C623 C598 1.395 . S
C623 C600 1.391 . S
H624 C584 0.951 . S
H625 C585 0.950 . S
H626 C591 0.949 . S
H627 C592 0.950 . S
H628 C596 0.951 . S
H629 C597 0.950 . S
H630 C601 0.949 . S
H631 C602 0.950 . S
H632 C606 0.950 . S
H633 C608 0.950 . S
H634 C611 0.950 . S
H635 C613 0.950 . S
C636 C637 1.363 . S
C636 C642 1.379 1_556 S
C636 N644 1.356 . S
C637 C636 1.363 . S
C637 C643 1.363 . S
C638 C639 1.363 . S
C638 C643 1.379 1_554 S
C638 N645 1.356 . S
C639 C638 1.363 . S
C639 C642 1.363 . S
N640 C642 1.356 . S
N640 H652 0.984 . S
N640 H653 0.985 . S
N641 C643 1.356 . S
N641 H646 0.984 . S
N641 H647 0.985 . S
C642 C636 1.379 1_554 S
C642 C639 1.363 . S
C642 N640 1.356 . S
C643 C637 1.363 . S
C643 C638 1.379 1_556 S
C643 N641 1.356 . S
N644 C636 1.356 . S
N644 H650 0.984 . S
N644 H651 0.984 . S
N645 C638 1.356 . S
N645 H648 0.984 . S
N645 H649 0.985 . S
H646 N641 0.984 . S
H647 N641 0.985 . S
H648 N645 0.984 . S
H649 N645 0.985 . S
H650 N644 0.984 . S
H651 N644 0.984 . S
H652 N640 0.984 . S
H653 N640 0.985 . S
C654 C655 1.363 . S
C654 C660 1.379 . S
C654 N662 1.356 . S
C655 C654 1.363 . S
C655 C661 1.363 . S
C656 C657 1.363 . S
C656 C661 1.379 . S
C656 N663 1.356 . S
C657 C656 1.363 . S
C657 C660 1.363 . S
N658 C660 1.356 . S
N658 H670 0.984 . S
N658 H671 0.985 . S
N659 C661 1.356 . S
N659 H664 0.984 . S
N659 H665 0.985 . S
C660 C654 1.379 . S
C660 C657 1.363 . S
C660 N658 1.356 . S
C661 C655 1.363 . S
C661 C656 1.379 . S
C661 N659 1.356 . S
N662 C654 1.356 . S
N662 H668 0.984 . S
N662 H669 0.984 . S
N663 C656 1.356 . S
N663 H666 0.984 . S
N663 H667 0.985 . S
H664 N659 0.984 . S
H665 N659 0.985 . S
H666 N663 0.984 . S
H667 N663 0.985 . S
H668 N662 0.984 . S
H669 N662 0.984 . S
H670 N658 0.984 . S
H671 N658 0.985 . S
C672 C673 1.363 . S
C672 C678 1.379 . S
C672 N680 1.356 . S
C673 C672 1.363 . S
C673 C679 1.363 . S
C674 C675 1.363 . S
C674 C679 1.379 . S
C674 N681 1.356 . S
C675 C674 1.363 . S
C675 C678 1.363 . S
N676 C678 1.356 . S
N676 H688 0.984 . S
N676 H689 0.985 . S
N677 C679 1.356 . S
N677 H682 0.984 . S
N677 H683 0.985 . S
C678 C672 1.379 . S
C678 C675 1.363 . S
C678 N676 1.356 . S
C679 C673 1.363 . S
C679 C674 1.379 . S
C679 N677 1.356 . S
N680 C672 1.356 . S
N680 H686 0.984 . S
N680 H687 0.984 . S
N681 C674 1.356 . S
N681 H684 0.984 . S
N681 H685 0.985 . S
H682 N677 0.984 . S
H683 N677 0.985 . S
H684 N681 0.984 . S
H685 N681 0.985 . S
H686 N680 0.984 . S
H687 N680 0.984 . S
H688 N676 0.984 . S
H689 N676 0.985 . S
C690 C691 1.363 . S
C690 C696 1.379 1_554 S
C690 N698 1.356 . S
C691 C690 1.363 . S
C691 C697 1.363 . S
C692 C693 1.363 . S
C692 C697 1.379 1_556 S
C692 N699 1.356 . S
C693 C692 1.363 . S
C693 C696 1.363 . S
N694 C696 1.356 . S
N694 H706 0.984 . S
N694 H707 0.985 . S
N695 C697 1.356 . S
N695 H700 0.984 . S
N695 H701 0.985 . S
C696 C690 1.379 1_556 S
C696 C693 1.363 . S
C696 N694 1.356 . S
C697 C691 1.363 . S
C697 C692 1.379 1_554 S
C697 N695 1.356 . S
N698 C690 1.356 . S
N698 H704 0.984 . S
N698 H705 0.984 . S
N699 C692 1.356 . S
N699 H702 0.984 . S
N699 H703 0.985 . S
H700 N695 0.984 . S
H701 N695 0.985 . S
H702 N699 0.984 . S
H703 N699 0.985 . S
H704 N698 0.984 . S
H705 N698 0.984 . S
H706 N694 0.984 . S
H707 N694 0.985 . S
C708 C709 1.363 . S
C708 C714 1.379 . S
C708 N716 1.356 . S
C709 C708 1.363 . S
C709 C715 1.363 . S
C710 C711 1.363 . S
C710 C715 1.379 . S
C710 N717 1.356 . S
C711 C710 1.363 . S
C711 C714 1.363 . S
N712 C714 1.356 . S
N712 H724 0.984 . S
N712 H725 0.985 . S
N713 C715 1.356 . S
N713 H718 0.984 . S
N713 H719 0.985 . S
C714 C708 1.379 . S
C714 C711 1.363 . S
C714 N712 1.356 . S
C715 C709 1.363 . S
C715 C710 1.379 . S
C715 N713 1.356 . S
N716 C708 1.356 . S
N716 H722 0.984 . S
N716 H723 0.984 . S
N717 C710 1.356 . S
N717 H720 0.984 . S
N717 H721 0.985 . S
H718 N713 0.984 . S
H719 N713 0.985 . S
H720 N717 0.984 . S
H721 N717 0.985 . S
H722 N716 0.984 . S
H723 N716 0.984 . S
H724 N712 0.984 . S
H725 N712 0.985 . S
C726 C727 1.363 . S
C726 C732 1.379 . S
C726 N734 1.356 . S
C727 C726 1.363 . S
C727 C733 1.363 . S
C728 C729 1.363 . S
C728 C733 1.379 . S
C728 N735 1.356 . S
C729 C728 1.363 . S
C729 C732 1.363 . S
N730 C732 1.356 . S
N730 H742 0.984 . S
N730 H743 0.985 . S
N731 C733 1.356 . S
N731 H736 0.984 . S
N731 H737 0.985 . S
C732 C726 1.379 . S
C732 C729 1.363 . S
C732 N730 1.356 . S
C733 C727 1.363 . S
C733 C728 1.379 . S
C733 N731 1.356 . S
N734 C726 1.356 . S
N734 H740 0.984 . S
N734 H741 0.984 . S
N735 C728 1.356 . S
N735 H738 0.984 . S
N735 H739 0.985 . S
H736 N731 0.984 . S
H737 N731 0.985 . S
H738 N735 0.984 . S
H739 N735 0.985 . S
H740 N734 0.984 . S
H741 N734 0.984 . S
H742 N730 0.984 . S
H743 N730 0.985 . S
C744 C745 1.363 . S
C744 C750 1.379 . S
C744 N752 1.356 . S
C745 C744 1.363 . S
C745 C751 1.363 . S
C746 C747 1.363 . S
C746 C751 1.379 . S
C746 N753 1.356 . S
C747 C746 1.363 . S
C747 C750 1.363 . S
N748 C750 1.356 . S
N748 H760 0.984 . S
N748 H761 0.985 . S
N749 C751 1.356 . S
N749 H754 0.984 . S
N749 H755 0.985 . S
C750 C744 1.379 . S
C750 C747 1.363 . S
C750 N748 1.356 . S
C751 C745 1.363 . S
C751 C746 1.379 . S
C751 N749 1.356 . S
N752 C744 1.356 . S
N752 H758 0.984 . S
N752 H759 0.984 . S
N753 C746 1.356 . S
N753 H756 0.984 . S
N753 H757 0.985 . S
H754 N749 0.984 . S
H755 N749 0.985 . S
H756 N753 0.984 . S
H757 N753 0.985 . S
H758 N752 0.984 . S
H759 N752 0.984 . S
H760 N748 0.984 . S
H761 N748 0.985 . S
C762 C763 1.363 . S
C762 C768 1.379 . S
C762 N770 1.356 . S
C763 C762 1.363 . S
C763 C769 1.363 . S
C764 C765 1.363 . S
C764 C769 1.379 . S
C764 N771 1.356 . S
C765 C764 1.363 . S
C765 C768 1.363 . S
N766 C768 1.356 . S
N766 H778 0.984 . S
N766 H779 0.985 . S
N767 C769 1.356 . S
N767 H772 0.984 . S
N767 H773 0.985 . S
C768 C762 1.379 . S
C768 C765 1.363 . S
C768 N766 1.356 . S
C769 C763 1.363 . S
C769 C764 1.379 . S
C769 N767 1.356 . S
N770 C762 1.356 . S
N770 H776 0.984 . S
N770 H777 0.984 . S
N771 C764 1.356 . S
N771 H774 0.984 . S
N771 H775 0.985 . S
H772 N767 0.984 . S
H773 N767 0.985 . S
H774 N771 0.984 . S
H775 N771 0.985 . S
H776 N770 0.984 . S
H777 N770 0.984 . S
H778 N766 0.984 . S
H779 N766 0.985 . S
C780 C781 1.363 . S
C780 C786 1.379 . S
C780 N788 1.356 . S
C781 C780 1.363 . S
C781 C787 1.363 . S
C782 C783 1.363 . S
C782 C787 1.379 . S
C782 N789 1.356 . S
C783 C782 1.363 . S
C783 C786 1.363 . S
N784 C786 1.356 . S
N784 H796 0.984 . S
N784 H797 0.985 . S
N785 C787 1.356 . S
N785 H790 0.984 . S
N785 H791 0.985 . S
C786 C780 1.379 . S
C786 C783 1.363 . S
C786 N784 1.356 . S
C787 C781 1.363 . S
C787 C782 1.379 . S
C787 N785 1.356 . S
N788 C780 1.356 . S
N788 H794 0.984 . S
N788 H795 0.984 . S
N789 C782 1.356 . S
N789 H792 0.984 . S
N789 H793 0.985 . S
H790 N785 0.984 . S
H791 N785 0.985 . S
H792 N789 0.984 . S
H793 N789 0.985 . S
H794 N788 0.984 . S
H795 N788 0.984 . S
H796 N784 0.984 . S
H797 N784 0.985 . S
C798 C799 1.363 . S
C798 C804 1.379 . S
C798 N806 1.356 . S
C799 C798 1.363 . S
C799 C805 1.363 . S
C800 C801 1.363 . S
C800 C805 1.379 . S
C800 N807 1.356 . S
C801 C800 1.363 . S
C801 C804 1.363 . S
N802 C804 1.356 . S
N802 H814 0.984 . S
N802 H815 0.985 . S
N803 C805 1.356 . S
N803 H808 0.984 . S
N803 H809 0.985 . S
C804 C798 1.379 . S
C804 C801 1.363 . S
C804 N802 1.356 . S
C805 C799 1.363 . S
C805 C800 1.379 . S
C805 N803 1.356 . S
N806 C798 1.356 . S
N806 H812 0.984 . S
N806 H813 0.984 . S
N807 C800 1.356 . S
N807 H810 0.984 . S
N807 H811 0.985 . S
H808 N803 0.984 . S
H809 N803 0.985 . S
H810 N807 0.984 . S
H811 N807 0.985 . S
H812 N806 0.984 . S
H813 N806 0.984 . S
H814 N802 0.984 . S
H815 N802 0.985 . S
C816 C817 1.363 . S
C816 C822 1.379 . S
C816 N824 1.356 . S
C817 C816 1.363 . S
C817 C823 1.363 . S
C818 C819 1.363 . S
C818 C823 1.379 . S
C818 N825 1.356 . S
C819 C818 1.363 . S
C819 C822 1.363 . S
N820 C822 1.356 . S
N820 H832 0.984 . S
N820 H833 0.985 . S
N821 C823 1.356 . S
N821 H826 0.984 . S
N821 H827 0.985 . S
C822 C816 1.379 . S
C822 C819 1.363 . S
C822 N820 1.356 . S
C823 C817 1.363 . S
C823 C818 1.379 . S
C823 N821 1.356 . S
N824 C816 1.356 . S
N824 H830 0.984 . S
N824 H831 0.984 . S
N825 C818 1.356 . S
N825 H828 0.984 . S
N825 H829 0.985 . S
H826 N821 0.984 . S
H827 N821 0.985 . S
H828 N825 0.984 . S
H829 N825 0.985 . S
H830 N824 0.984 . S
H831 N824 0.984 . S
H832 N820 0.984 . S
H833 N820 0.985 . S
C834 C835 1.363 . S
C834 C840 1.379 . S
C834 N842 1.356 . S
C835 C834 1.363 . S
C835 C841 1.363 . S
C836 C837 1.363 . S
C836 C841 1.379 . S
C836 N843 1.356 . S
C837 C836 1.363 . S
C837 C840 1.363 . S
N838 C840 1.356 . S
N838 H850 0.984 . S
N838 H851 0.985 . S
N839 C841 1.356 . S
N839 H844 0.984 . S
N839 H845 0.985 . S
C840 C834 1.379 . S
C840 C837 1.363 . S
C840 N838 1.356 . S
C841 C835 1.363 . S
C841 C836 1.379 . S
C841 N839 1.356 . S
N842 C834 1.356 . S
N842 H848 0.984 . S
N842 H849 0.984 . S
N843 C836 1.356 . S
N843 H846 0.984 . S
N843 H847 0.985 . S
H844 N839 0.984 . S
H845 N839 0.985 . S
H846 N843 0.984 . S
H847 N843 0.985 . S
H848 N842 0.984 . S
H849 N842 0.984 . S
H850 N838 0.984 . S
H851 N838 0.985 . S
C852 C853 1.363 . S
C852 C858 1.379 1_655 S
C852 N860 1.356 . S
C853 C852 1.363 . S
C853 C859 1.363 . S
C854 C855 1.363 . S
C854 C859 1.379 1_455 S
C854 N861 1.356 . S
C855 C854 1.363 . S
C855 C858 1.363 . S
N856 C858 1.356 . S
N856 H868 0.984 . S
N856 H869 0.985 . S
N857 C859 1.356 . S
N857 H862 0.984 . S
N857 H863 0.985 . S
C858 C852 1.379 1_455 S
C858 C855 1.363 . S
C858 N856 1.356 . S
C859 C853 1.363 . S
C859 C854 1.379 1_655 S
C859 N857 1.356 . S
N860 C852 1.356 . S
N860 H866 0.984 . S
N860 H867 0.984 . S
N861 C854 1.356 . S
N861 H864 0.984 . S
N861 H865 0.985 . S
H862 N857 0.984 . S
H863 N857 0.985 . S
H864 N861 0.984 . S
H865 N861 0.985 . S
H866 N860 0.984 . S
H867 N860 0.984 . S
H868 N856 0.984 . S
H869 N856 0.985 . S
C870 C871 1.363 . S
C870 C876 1.379 1_545 S
C870 N878 1.356 . S
C871 C870 1.363 . S
C871 C877 1.363 . S
C872 C873 1.363 . S
C872 C877 1.379 1_565 S
C872 N879 1.356 . S
C873 C872 1.363 . S
C873 C876 1.363 . S
N874 C876 1.356 . S
N874 H886 0.984 . S
N874 H887 0.985 . S
N875 C877 1.356 . S
N875 H880 0.984 . S
N875 H881 0.985 . S
C876 C870 1.379 1_565 S
C876 C873 1.363 . S
C876 N874 1.356 . S
C877 C871 1.363 . S
C877 C872 1.379 1_545 S
C877 N875 1.356 . S
N878 C870 1.356 . S
N878 H884 0.984 . S
N878 H885 0.984 . S
N879 C872 1.356 . S
N879 H882 0.984 . S
N879 H883 0.985 . S
H880 N875 0.984 . S
H881 N875 0.985 . S
H882 N879 0.984 . S
H883 N879 0.985 . S
H884 N878 0.984 . S
H885 N878 0.984 . S
H886 N874 0.984 . S
H887 N874 0.985 . S
C888 C889 1.363 . S
C888 C894 1.379 . S
C888 N896 1.356 . S
C889 C888 1.363 . S
C889 C895 1.363 . S
C890 C891 1.363 . S
C890 C895 1.379 . S
C890 N897 1.356 . S
C891 C890 1.363 . S
C891 C894 1.363 . S
N892 C894 1.356 . S
N892 H904 0.984 . S
N892 H905 0.985 . S
N893 C895 1.356 . S
N893 H898 0.984 . S
N893 H899 0.985 . S
C894 C888 1.379 . S
C894 C891 1.363 . S
C894 N892 1.356 . S
C895 C889 1.363 . S
C895 C890 1.379 . S
C895 N893 1.356 . S
N896 C888 1.356 . S
N896 H902 0.984 . S
N896 H903 0.984 . S
N897 C890 1.356 . S
N897 H900 0.984 . S
N897 H901 0.985 . S
H898 N893 0.984 . S
H899 N893 0.985 . S
H900 N897 0.984 . S
H901 N897 0.985 . S
H902 N896 0.984 . S
H903 N896 0.984 . S
H904 N892 0.984 . S
H905 N892 0.985 . S
C906 C907 1.363 . S
C906 C912 1.379 1_545 S
C906 N914 1.356 . S
C907 C906 1.363 . S
C907 C913 1.363 . S
C908 C909 1.363 . S
C908 C913 1.379 1_565 S
C908 N915 1.356 . S
C909 C908 1.363 . S
C909 C912 1.363 . S
N910 C912 1.356 . S
N910 H922 0.984 . S
N910 H923 0.985 . S
N911 C913 1.356 . S
N911 H916 0.984 . S
N911 H917 0.985 . S
C912 C906 1.379 1_565 S
C912 C909 1.363 . S
C912 N910 1.356 . S
C913 C907 1.363 . S
C913 C908 1.379 1_545 S
C913 N911 1.356 . S
N914 C906 1.356 . S
N914 H920 0.984 . S
N914 H921 0.984 . S
N915 C908 1.356 . S
N915 H918 0.984 . S
N915 H919 0.985 . S
H916 N911 0.984 . S
H917 N911 0.985 . S
H918 N915 0.984 . S
H919 N915 0.985 . S
H920 N914 0.984 . S
H921 N914 0.984 . S
H922 N910 0.984 . S
H923 N910 0.985 . S
C924 C925 1.363 . S
C924 C930 1.379 . S
C924 N932 1.356 . S
C925 C924 1.363 . S
C925 C931 1.363 . S
C926 C927 1.363 . S
C926 C931 1.379 . S
C926 N933 1.356 . S
C927 C926 1.363 . S
C927 C930 1.363 . S
N928 C930 1.356 . S
N928 H940 0.984 . S
N928 H941 0.985 . S
N929 C931 1.356 . S
N929 H934 0.984 . S
N929 H935 0.985 . S
C930 C924 1.379 . S
C930 C927 1.363 . S
C930 N928 1.356 . S
C931 C925 1.363 . S
C931 C926 1.379 . S
C931 N929 1.356 . S
N932 C924 1.356 . S
N932 H938 0.984 . S
N932 H939 0.984 . S
N933 C926 1.356 . S
N933 H936 0.984 . S
N933 H937 0.985 . S
H934 N929 0.984 . S
H935 N929 0.985 . S
H936 N933 0.984 . S
H937 N933 0.985 . S
H938 N932 0.984 . S
H939 N932 0.984 . S
H940 N928 0.984 . S
H941 N928 0.985 . S
C942 C943 1.363 . S
C942 C948 1.379 1_455 S
C942 N950 1.356 . S
C943 C942 1.363 . S
C943 C949 1.363 . S
C944 C945 1.363 . S
C944 C949 1.379 1_655 S
C944 N951 1.356 . S
C945 C944 1.363 . S
C945 C948 1.363 . S
N946 C948 1.356 . S
N946 H958 0.984 . S
N946 H959 0.985 . S
N947 C949 1.356 . S
N947 H952 0.984 . S
N947 H953 0.985 . S
C948 C942 1.379 1_655 S
C948 C945 1.363 . S
C948 N946 1.356 . S
C949 C943 1.363 . S
C949 C944 1.379 1_455 S
C949 N947 1.356 . S
N950 C942 1.356 . S
N950 H956 0.984 . S
N950 H957 0.984 . S
N951 C944 1.356 . S
N951 H954 0.984 . S
N951 H955 0.985 . S
H952 N947 0.984 . S
H953 N947 0.985 . S
H954 N951 0.984 . S
H955 N951 0.985 . S
H956 N950 0.984 . S
H957 N950 0.984 . S
H958 N946 0.984 . S
H959 N946 0.985 . S
C960 C961 1.363 . S
C960 C966 1.379 . S
C960 N968 1.356 . S
C961 C960 1.363 . S
C961 C967 1.363 . S
C962 C963 1.363 . S
C962 C967 1.379 . S
C962 N969 1.356 . S
C963 C962 1.363 . S
C963 C966 1.363 . S
N964 C966 1.356 . S
N964 H976 0.984 . S
N964 H977 0.985 . S
N965 C967 1.356 . S
N965 H970 0.984 . S
N965 H971 0.985 . S
C966 C960 1.379 . S
C966 C963 1.363 . S
C966 N964 1.356 . S
C967 C961 1.363 . S
C967 C962 1.379 . S
C967 N965 1.356 . S
N968 C960 1.356 . S
N968 H974 0.984 . S
N968 H975 0.984 . S
N969 C962 1.356 . S
N969 H972 0.984 . S
N969 H973 0.985 . S
H970 N965 0.984 . S
H971 N965 0.985 . S
H972 N969 0.984 . S
H973 N969 0.985 . S
H974 N968 0.984 . S
H975 N968 0.984 . S
H976 N964 0.984 . S
H977 N964 0.985 . S
C978 C979 1.363 . S
C978 C984 1.379 1_655 S
C978 N986 1.356 . S
C979 C978 1.363 . S
C979 C985 1.363 . S
C980 C981 1.363 . S
C980 C985 1.379 1_455 S
C980 N987 1.356 . S
C981 C980 1.363 . S
C981 C984 1.363 . S
N982 C984 1.356 . S
N982 H994 0.984 . S
N982 H995 0.985 . S
N983 C985 1.356 . S
N983 H988 0.984 . S
N983 H989 0.985 . S
C984 C978 1.379 1_455 S
C984 C981 1.363 . S
C984 N982 1.356 . S
C985 C979 1.363 . S
C985 C980 1.379 1_655 S
C985 N983 1.356 . S
N986 C978 1.356 . S
N986 H992 0.984 . S
N986 H993 0.984 . S
N987 C980 1.356 . S
N987 H990 0.984 . S
N987 H991 0.985 . S
H988 N983 0.984 . S
H989 N983 0.985 . S
H990 N987 0.984 . S
H991 N987 0.985 . S
H992 N986 0.984 . S
H993 N986 0.984 . S
H994 N982 0.984 . S
H995 N982 0.985 . S
C996 C997 1.363 . S
C996 C1002 1.379 1_545 S
C996 N1004 1.356 . S
C997 C996 1.363 . S
C997 C1003 1.363 . S
C998 C999 1.363 . S
C998 C1003 1.379 1_565 S
C998 N1005 1.356 . S
C999 C998 1.363 . S
C999 C1002 1.363 . S
N1000 C1002 1.356 . S
N1000 H1012 0.984 . S
N1000 H1013 0.985 . S
N1001 C1003 1.356 . S
N1001 H1006 0.984 . S
N1001 H1007 0.985 . S
C1002 C996 1.379 1_565 S
C1002 C999 1.363 . S
C1002 N1000 1.356 . S
C1003 C997 1.363 . S
C1003 C998 1.379 1_545 S
C1003 N1001 1.356 . S
N1004 C996 1.356 . S
N1004 H1010 0.984 . S
N1004 H1011 0.984 . S
N1005 C998 1.356 . S
N1005 H1008 0.984 . S
N1005 H1009 0.985 . S
H1006 N1001 0.984 . S
H1007 N1001 0.985 . S
H1008 N1005 0.984 . S
H1009 N1005 0.985 . S
H1010 N1004 0.984 . S
H1011 N1004 0.984 . S
H1012 N1000 0.984 . S
H1013 N1000 0.985 . S
C1014 C1015 1.363 . S
C1014 C1020 1.379 . S
C1014 N1022 1.356 . S
C1015 C1014 1.363 . S
C1015 C1021 1.363 . S
C1016 C1017 1.363 . S
C1016 C1021 1.379 . S
C1016 N1023 1.356 . S
C1017 C1016 1.363 . S
C1017 C1020 1.363 . S
N1018 C1020 1.356 . S
N1018 H1030 0.984 . S
N1018 H1031 0.985 . S
N1019 C1021 1.356 . S
N1019 H1024 0.984 . S
N1019 H1025 0.985 . S
C1020 C1014 1.379 . S
C1020 C1017 1.363 . S
C1020 N1018 1.356 . S
C1021 C1015 1.363 . S
C1021 C1016 1.379 . S
C1021 N1019 1.356 . S
N1022 C1014 1.356 . S
N1022 H1028 0.984 . S
N1022 H1029 0.984 . S
N1023 C1016 1.356 . S
N1023 H1026 0.984 . S
N1023 H1027 0.985 . S
H1024 N1019 0.984 . S
H1025 N1019 0.985 . S
H1026 N1023 0.984 . S
H1027 N1023 0.985 . S
H1028 N1022 0.984 . S
H1029 N1022 0.984 . S
H1030 N1018 0.984 . S
H1031 N1018 0.985 . S
C1032 C1033 1.363 . S
C1032 C1038 1.379 1_455 S
C1032 N1040 1.356 . S
C1033 C1032 1.363 . S
C1033 C1039 1.363 . S
C1034 C1035 1.363 . S
C1034 C1039 1.379 1_655 S
C1034 N1041 1.356 . S
C1035 C1034 1.363 . S
C1035 C1038 1.363 . S
N1036 C1038 1.356 . S
N1036 H1048 0.984 . S
N1036 H1049 0.985 . S
N1037 C1039 1.356 . S
N1037 H1042 0.984 . S
N1037 H1043 0.985 . S
C1038 C1032 1.379 1_655 S
C1038 C1035 1.363 . S
C1038 N1036 1.356 . S
C1039 C1033 1.363 . S
C1039 C1034 1.379 1_455 S
C1039 N1037 1.356 . S
N1040 C1032 1.356 . S
N1040 H1046 0.984 . S
N1040 H1047 0.984 . S
N1041 C1034 1.356 . S
N1041 H1044 0.984 . S
N1041 H1045 0.985 . S
H1042 N1037 0.984 . S
H1043 N1037 0.985 . S
H1044 N1041 0.984 . S
H1045 N1041 0.985 . S
H1046 N1040 0.984 . S
H1047 N1040 0.984 . S
H1048 N1036 0.984 . S
H1049 N1036 0.985 . S
C1050 C1051 1.363 . S
C1050 C1056 1.379 1_565 S
C1050 N1058 1.356 . S
C1051 C1050 1.363 . S
C1051 C1057 1.363 . S
C1052 C1053 1.363 . S
C1052 C1057 1.379 1_545 S
C1052 N1059 1.356 . S
C1053 C1052 1.363 . S
C1053 C1056 1.363 . S
N1054 C1056 1.356 . S
N1054 H1066 0.984 . S
N1054 H1067 0.985 . S
N1055 C1057 1.356 . S
N1055 H1060 0.984 . S
N1055 H1061 0.985 . S
C1056 C1050 1.379 1_545 S
C1056 C1053 1.363 . S
C1056 N1054 1.356 . S
C1057 C1051 1.363 . S
C1057 C1052 1.379 1_565 S
C1057 N1055 1.356 . S
N1058 C1050 1.356 . S
N1058 H1064 0.984 . S
N1058 H1065 0.984 . S
N1059 C1052 1.356 . S
N1059 H1062 0.984 . S
N1059 H1063 0.985 . S
H1060 N1055 0.984 . S
H1061 N1055 0.985 . S
H1062 N1059 0.984 . S
H1063 N1059 0.985 . S
H1064 N1058 0.984 . S
H1065 N1058 0.984 . S
H1066 N1054 0.984 . S
H1067 N1054 0.985 . S
C637 C569 1.854 . S
C639 C39 1.854 . S
C655 C92 1.855 . S
C657 C622 1.855 . S
C673 C145 1.855 . S
C675 C357 1.854 . S
C691 C198 1.854 . S
C693 C410 1.854 . S
C709 C463 1.854 . S
C711 C251 1.854 . S
C727 C304 1.854 . S
C729 C516 1.854 . S
C745 C462 1.936 . S
C747 C38 1.935 . S
C763 C91 1.935 . S
C765 C515 1.935 . S
C781 C144 1.935 . S
C783 C568 1.935 . S
C799 C197 1.935 . S
C801 C621 1.935 . S
C817 C356 1.935 . S
C819 C250 1.935 . S
C835 C409 1.935 . S
C837 C303 1.935 . S
C853 C188 1.147 . S
C855 C29 1.147 . S
C871 C82 1.147 . S
C873 C241 1.147 . S
C889 C294 1.147 . S
C891 C135 1.147 . S
C907 C506 1.147 . S
C909 C347 1.147 . S
C925 C559 1.147 . S
C927 C400 1.147 . S
C943 C453 1.147 . S
C945 C612 1.147 . S
C961 C181 1.892 . S
C963 C22 1.892 . S
C979 C75 1.892 . S
C981 C234 1.892 . S
C997 C287 1.892 . S
C999 C128 1.892 . S
C1015 C340 1.892 . S
C1017 C499 1.892 . S
C1033 C552 1.892 . S
C1035 C393 1.892 . S
C1051 C446 1.892 . S
C1053 C605 1.892 . S
