# Generated by pormake.
# Topology uov, (4)-cn, num edge types: 1
# Building blocks:
#     Node 0, Type 0, BuildingBlock: TATPOV_clean_sbu_0, # of connection points: 4
#     Node 1, Type 0, BuildingBlock: TATPOV_clean_sbu_0, # of connection points: 4
#     Node 2, Type 0, BuildingBlock: TATPOV_clean_sbu_0, # of connection points: 4
#     Node 3, Type 0, BuildingBlock: TATPOV_clean_sbu_0, # of connection points: 4
#     Node 4, Type 0, BuildingBlock: TATPOV_clean_sbu_0, # of connection points: 4
#     Node 5, Type 0, BuildingBlock: TATPOV_clean_sbu_0, # of connection points: 4
#     Node 6, Type 0, BuildingBlock: TATPOV_clean_sbu_0, # of connection points: 4
#     Node 7, Type 0, BuildingBlock: TATPOV_clean_sbu_0, # of connection points: 4
#     Edge 8, Type (0, 0), BuildingBlock: XUDNAN_clean_linker_2, # of connection points: 2
#     Edge 9, Type (0, 0), BuildingBlock: XUDNAN_clean_linker_2, # of connection points: 2
#     Edge 10, Type (0, 0), BuildingBlock: XUDNAN_clean_linker_2, # of connection points: 2
#     Edge 11, Type (0, 0), BuildingBlock: XUDNAN_clean_linker_2, # of connection points: 2
#     Edge 12, Type (0, 0), BuildingBlock: XUDNAN_clean_linker_2, # of connection points: 2
#     Edge 13, Type (0, 0), BuildingBlock: XUDNAN_clean_linker_2, # of connection points: 2
#     Edge 14, Type (0, 0), BuildingBlock: XUDNAN_clean_linker_2, # of connection points: 2
#     Edge 15, Type (0, 0), BuildingBlock: XUDNAN_clean_linker_2, # of connection points: 2
#     Edge 16, Type (0, 0), BuildingBlock: XUDNAN_clean_linker_2, # of connection points: 2
#     Edge 17, Type (0, 0), BuildingBlock: XUDNAN_clean_linker_2, # of connection points: 2
#     Edge 18, Type (0, 0), BuildingBlock: XUDNAN_clean_linker_2, # of connection points: 2
#     Edge 19, Type (0, 0), BuildingBlock: XUDNAN_clean_linker_2, # of connection points: 2
#     Edge 20, Type (0, 0), BuildingBlock: XUDNAN_clean_linker_2, # of connection points: 2
#     Edge 21, Type (0, 0), BuildingBlock: XUDNAN_clean_linker_2, # of connection points: 2
#     Edge 22, Type (0, 0), BuildingBlock: XUDNAN_clean_linker_2, # of connection points: 2
#     Edge 23, Type (0, 0), BuildingBlock: XUDNAN_clean_linker_2, # of connection points: 2
# Relax obj value: 0.178
# Max RMSD: 0.193
# Mean RMSD: 0.193
data_MOF--net-uov--node1-TATPOV_clean_sbu_0--edge1-XUDNAN_clean_linker_2
_symmetry_space_group_name_H-M    P1
_symmetry_Int_Tables_number       1
_symmetry_cell_setting            triclinic
loop_
_symmetry_equiv_pos_as_xyz
'x, y, z'
_cell_length_a     29.689492
_cell_length_b     29.67838
_cell_length_c     43.129367
_cell_angle_alpha  89.997643
_cell_angle_beta   89.944502
_cell_angle_gamma 90.019305
loop_
_atom_site_label
_atom_site_type_symbol
_atom_site_fract_x
_atom_site_fract_y
_atom_site_fract_z
_atom_type_partial_charge
Zn0 Zn 0.97821 0.19328 0.6111 0.0
Zn1 Zn 0.01432 0.27176 0.59419 0.0
O2 O 0.94547 0.27538 0.58861 0.0
O3 O 0.91416 0.21415 0.60731 0.0
O4 O 0.03051 0.33598 0.58405 0.0
O5 O 0.01008 0.19709 0.65196 0.0
O6 O 0.04227 0.26056 0.63737 0.0
C7 C 0.9103 0.25243 0.59475 0.0
C8 C 0.03707 0.19009 0.55599 0.0
O9 O 0.0436 0.23184 0.56124 0.0
O10 O 0.01068 0.16753 0.57321 0.0
C11 C 0.02863 0.35059 0.55637 0.0
O12 O 0.02049 0.32218 0.53369 0.0
C13 C 0.03689 0.22932 0.6573 0.0
Zn14 Zn 0.18936 0.87078 0.41382 0.0
Zn15 Zn 0.26896 0.91073 0.41052 0.0
O16 O 0.22746 0.96428 0.42 0.0
O17 O 0.16175 0.93096 0.42571 0.0
O18 O 0.33078 0.93919 0.40953 0.0
O19 O 0.1931 0.85076 0.36992 0.0
O20 O 0.26006 0.88243 0.36679 0.0
C21 C 0.18562 0.96636 0.42644 0.0
C22 C 0.2485 0.83755 0.45961 0.0
O23 O 0.27366 0.86844 0.44858 0.0
O24 O 0.21079 0.82938 0.44721 0.0
C25 C 0.34331 0.95756 0.43473 0.0
O26 O 0.31554 0.95736 0.45848 0.0
C27 C 0.22809 0.85991 0.35444 0.0
Zn28 Zn 0.97752 0.84316 0.61216 0.0
Zn29 Zn 0.9688 0.75651 0.5928 0.0
O30 O 0.03604 0.76754 0.5982 0.0
O31 O 0.04559 0.83627 0.61584 0.0
O32 O 0.96957 0.69103 0.58063 0.0
O33 O 0.93582 0.82903 0.64744 0.0
O34 O 0.92966 0.75828 0.6323 0.0
C35 C 0.06206 0.79891 0.60731 0.0
C36 C 0.93631 0.83288 0.55128 0.0
O37 O 0.94197 0.79076 0.55558 0.0
O38 O 0.94857 0.86122 0.57156 0.0
C39 C 0.98883 0.67884 0.55566 0.0
O40 O 0.00497 0.70974 0.53686 0.0
C41 C 0.91937 0.79 0.65093 0.0
Zn42 Zn 0.81503 0.13087 0.38269 0.0
Zn43 Zn 0.72964 0.10228 0.38731 0.0
O44 O 0.76718 0.0482 0.40222 0.0
O45 O 0.83759 0.06833 0.39371 0.0
O46 O 0.66573 0.07995 0.39257 0.0
O47 O 0.80422 0.14823 0.3389 0.0
O48 O 0.73589 0.11909 0.34063 0.0
C49 C 0.80913 0.03926 0.40255 0.0
C50 C 0.76377 0.1811 0.42708 0.0
O51 O 0.73213 0.15515 0.41825 0.0
O52 O 0.80287 0.17708 0.41567 0.0
C53 C 0.65349 0.07293 0.42043 0.0
O54 O 0.68265 0.07984 0.44283 0.0
C55 C 0.76747 0.13863 0.32567 0.0
Zn56 Zn 0.9563 0.1612 0.08266 0.0
Zn57 Zn 0.94749 0.24544 0.08237 0.0
O58 O 0.01586 0.23132 0.08407 0.0
O59 O 0.01991 0.1605 0.09797 0.0
O60 O 0.948 0.31278 0.08839 0.0
O61 O 0.90411 0.14986 0.11082 0.0
O62 O 0.90555 0.22322 0.11787 0.0
C63 C 0.03949 0.19727 0.09181 0.0
C64 C 0.92809 0.19627 0.02355 0.0
O65 O 0.92139 0.23248 0.0388 0.0
O66 O 0.94598 0.16256 0.03665 0.0
C67 C 0.96118 0.34057 0.06787 0.0
O68 O 0.97213 0.32564 0.04019 0.0
C69 C 0.88956 0.1845 0.12458 0.0
Zn70 Zn 0.16543 0.05556 0.89383 0.0
Zn71 Zn 0.24964 0.06169 0.88339 0.0
O72 O 0.23378 0.99404 0.89043 0.0
O73 O 0.16027 0.98941 0.8863 0.0
O74 O 0.31605 0.05687 0.87463 0.0
O75 O 0.15089 0.09805 0.85966 0.0
O76 O 0.22208 0.09563 0.84561 0.0
C77 C 0.19801 0.97028 0.88913 0.0
C78 C 0.21463 0.0979 0.94344 0.0
O79 O 0.24632 0.09876 0.9236 0.0
O80 O 0.17778 0.07841 0.93721 0.0
C81 C 0.34061 0.04318 0.89687 0.0
O82 O 0.32185 0.03546 0.92397 0.0
C83 C 0.18174 0.10887 0.84086 0.0
Zn84 Zn 0.06592 0.84203 0.09832 0.0
Zn85 Zn 0.06182 0.75205 0.10166 0.0
O86 O 0.99613 0.77377 0.09962 0.0
O87 O 0.99807 0.84773 0.10189 0.0
O88 O 0.05287 0.68499 0.10628 0.0
O89 O 0.10634 0.84431 0.13514 0.0
O90 O 0.10052 0.77048 0.13982 0.0
C91 C 0.97569 0.81148 0.10052 0.0
C92 C 0.10577 0.79561 0.04573 0.0
O93 O 0.09497 0.75966 0.06003 0.0
O94 O 0.09622 0.83392 0.05685 0.0
C95 C 0.039 0.66174 0.08342 0.0
O96 O 0.03279 0.68157 0.05652 0.0
C97 C 0.11633 0.80818 0.14905 0.0
Zn98 Zn 0.83092 0.88536 0.89871 0.0
Zn99 Zn 0.74447 0.9073 0.89384 0.0
O100 O 0.77561 0.96888 0.89404 0.0
O101 O 0.84754 0.95164 0.89574 0.0
O102 O 0.67992 0.92481 0.88643 0.0
O103 O 0.82901 0.84548 0.86171 0.0
O104 O 0.75837 0.86664 0.85577 0.0
C105 C 0.81669 0.98112 0.89471 0.0
C106 C 0.77856 0.85919 0.95189 0.0
O107 O 0.74596 0.87773 0.9375 0.0
O108 O 0.81745 0.85784 0.93993 0.0
C109 C 0.65456 0.9409 0.90743 0.0
O110 O 0.66999 0.94471 0.93584 0.0
C111 C 0.79244 0.84392 0.84683 0.0
H112 H 0.98408 0.60853 0.59662 0.0
H113 H 0.01213 0.64015 0.50027 0.0
H114 H 0.02777 0.55965 0.49001 0.0
H115 H 0.07178 0.52596 0.60498 0.0
H116 H 0.03914 0.49013 0.63019 0.0
H117 H 0.02908 0.54997 0.62971 0.0
H118 H 0.94484 0.53602 0.61716 0.0
H119 H 0.95456 0.47616 0.61786 0.0
H120 H 0.93 0.50203 0.58406 0.0
H121 H 0.03793 0.47493 0.49014 0.0
H122 H 0.04348 0.39322 0.50096 0.0
H123 H 0.01313 0.41855 0.59785 0.0
C124 C 0.99315 0.59851 0.57329 0.0
C125 C 0.99649 0.63052 0.54915 0.0
C126 C 0.0092 0.61614 0.51908 0.0
C127 C 0.0182 0.57053 0.51304 0.0
C128 C 0.01491 0.53988 0.53744 0.0
C129 C 0.00291 0.55334 0.56699 0.0
C130 C 0.00254 0.51396 0.58929 0.0
C131 C 0.03774 0.52041 0.61506 0.0
C132 C 0.95517 0.50662 0.60288 0.0
C133 C 0.0157 0.4761 0.56762 0.0
C134 C 0.02254 0.49164 0.53777 0.0
C135 C 0.03308 0.46246 0.51349 0.0
C136 C 0.03619 0.41615 0.51984 0.0
C137 C 0.02926 0.39962 0.55028 0.0
C138 C 0.01943 0.43021 0.57445 0.0
H139 H 0.58844 0.03993 0.38074 0.0
H140 H 0.61382 0.0724 0.47736 0.0
H141 H 0.53704 0.04792 0.49089 0.0
H142 H 0.47161 0.07487 0.37916 0.0
H143 H 0.45385 0.02929 0.3544 0.0
H144 H 0.51061 0.05047 0.35186 0.0
H145 H 0.54167 0.97016 0.36168 0.0
H146 H 0.48502 0.94874 0.36423 0.0
H147 H 0.52388 0.93964 0.3957 0.0
H148 H 0.45816 0.02054 0.4943 0.0
H149 H 0.38218 0.98877 0.48776 0.0
H150 H 0.40737 0.9715 0.38923 0.0
C151 C 0.57772 0.04207 0.4047 0.0
C152 C 0.60713 0.05822 0.42799 0.0
C153 C 0.59199 0.0601 0.45912 0.0
C154 C 0.54837 0.04638 0.46706 0.0
C155 C 0.52029 0.03057 0.44365 0.0
C156 C 0.53428 0.02807 0.41313 0.0
C157 C 0.49754 0.00854 0.3927 0.0
C158 C 0.48252 0.04285 0.36808 0.0
C159 C 0.51296 0.96413 0.3777 0.0
C160 C 0.46083 0.00051 0.41656 0.0
C161 C 0.4747 0.01376 0.44573 0.0
C162 C 0.44688 0.00996 0.47158 0.0
C163 C 0.40371 0.99189 0.4676 0.0
C164 C 0.38877 0.97754 0.438 0.0
C165 C 0.41783 0.98205 0.41216 0.0
H166 H 0.97765 0.41185 0.02872 0.0
H167 H 0.96237 0.37731 0.126 0.0
H168 H 0.98068 0.45558 0.14049 0.0
H169 H 0.07026 0.48651 0.03715 0.0
H170 H 0.051 0.52618 0.00843 0.0
H171 H 0.03546 0.4677 0.00545 0.0
H172 H 0.95103 0.48976 0.00431 0.0
H173 H 0.96633 0.54837 0.00705 0.0
H174 H 0.92824 0.52412 0.03502 0.0
H175 H 0.00517 0.53629 0.14464 0.0
H176 H 0.02765 0.61582 0.13792 0.0
H177 H 0.02393 0.59885 0.03797 0.0
C178 C 0.97781 0.42083 0.05305 0.0
C179 C 0.96866 0.38839 0.07622 0.0
C180 C 0.96909 0.40156 0.10781 0.0
C181 C 0.97962 0.44592 0.11631 0.0
C182 C 0.98913 0.47688 0.09294 0.0
C183 C 0.98772 0.46513 0.06195 0.0
C184 C 0.999 0.50503 0.04143 0.0
C185 C 0.04146 0.49579 0.02198 0.0
C186 C 0.95874 0.51756 0.02073 0.0
C187 C 0.00761 0.54083 0.06576 0.0
C188 C 0.00197 0.52382 0.09532 0.0
C189 C 0.00931 0.55012 0.1216 0.0
C190 C 0.02228 0.59519 0.11754 0.0
C191 C 0.0274 0.6136 0.08744 0.0
C192 C 0.02001 0.58586 0.06128 0.0
H193 H 0.40369 0.02368 0.94105 0.0
H194 H 0.38609 0.03776 0.8416 0.0
H195 H 0.46502 0.01399 0.83348 0.0
H196 H 0.51929 0.06481 0.94349 0.0
H197 H 0.53558 0.02581 0.97349 0.0
H198 H 0.47827 0.04549 0.97134 0.0
H199 H 0.45015 0.96288 0.96896 0.0
H200 H 0.50734 0.94294 0.97088 0.0
H201 H 0.47155 0.92587 0.93925 0.0
H202 H 0.54425 0.98401 0.83617 0.0
H203 H 0.6198 0.95529 0.84952 0.0
H204 H 0.58607 0.96314 0.94736 0.0
C205 C 0.41649 0.02216 0.91755 0.0
C206 C 0.38872 0.0325 0.89194 0.0
C207 C 0.40681 0.03015 0.86158 0.0
C208 C 0.45154 0.01656 0.85673 0.0
C209 C 0.47776 0.0059 0.8825 0.0
C210 C 0.46107 0.00906 0.91233 0.0
C211 C 0.4961 0.99546 0.93604 0.0
C212 C 0.50802 0.03527 0.95734 0.0
C213 C 0.48033 0.95434 0.95488 0.0
C214 C 0.53498 0.98354 0.91488 0.0
C215 C 0.52367 0.98964 0.88408 0.0
C216 C 0.55362 0.97949 0.86021 0.0
C217 C 0.59638 0.96301 0.86804 0.0
C218 C 0.6089 0.95712 0.89949 0.0
C219 C 0.57765 0.96758 0.92312 0.0
H220 H 0.10435 0.97737 0.45513 0.0
H221 H 0.22284 0.0512 0.42515 0.0
H222 H 0.19325 0.11988 0.45046 0.0
H223 H 0.0224 0.07164 0.44975 0.0
H224 H 0.99335 0.05352 0.48429 0.0
H225 H 0.0204 0.01264 0.45963 0.0
H226 H 0.06624 0.98336 0.50659 0.0
H227 H 0.03968 0.02425 0.5313 0.0
H228 H 0.10024 0.02228 0.52855 0.0
H229 H 0.15396 0.17845 0.48354 0.0
H230 H 0.10991 0.22067 0.52265 0.0
H231 H 0.01925 0.10672 0.53211 0.0
C232 C 0.12356 0.00825 0.45308 0.0
C233 C 0.16573 0.009 0.43788 0.0
C234 C 0.19029 0.0499 0.43647 0.0
C235 C 0.1737 0.0891 0.45073 0.0
C236 C 0.13254 0.08681 0.46627 0.0
C237 C 0.10777 0.04739 0.46742 0.0
C238 C 0.06688 0.05228 0.48811 0.0
C239 C 0.02318 0.04723 0.46931 0.0
C240 C 0.0684 0.01856 0.51524 0.0
C241 C 0.07319 0.10019 0.49921 0.0
C242 C 0.11073 0.11992 0.48595 0.0
C243 C 0.12424 0.16347 0.4938 0.0
C244 C 0.09904 0.18719 0.51605 0.0
C245 C 0.06123 0.16697 0.53051 0.0
C246 C 0.04798 0.12316 0.52151 0.0
H247 H 0.22438 0.75556 0.48095 0.0
H248 H 0.28595 0.88103 0.50876 0.0
H249 H 0.26242 0.86763 0.56253 0.0
H250 H 0.13317 0.76674 0.51004 0.0
H251 H 0.12025 0.71164 0.52532 0.0
H252 H 0.16047 0.71702 0.49488 0.0
H253 H 0.22073 0.67671 0.52797 0.0
H254 H 0.18001 0.67036 0.55875 0.0
H255 H 0.23348 0.69689 0.56639 0.0
H256 H 0.20512 0.86116 0.60247 0.0
H257 H 0.12938 0.85686 0.62543 0.0
H258 H 0.10484 0.73252 0.57574 0.0
C259 C 0.23562 0.77827 0.49899 0.0
C260 C 0.25642 0.8193 0.49091 0.0
C261 C 0.27034 0.84911 0.51455 0.0
C262 C 0.25684 0.84175 0.54528 0.0
C263 C 0.23071 0.8038 0.552 0.0
C264 C 0.22204 0.7712 0.52971 0.0
C265 C 0.18566 0.73891 0.54052 0.0
C266 C 0.14769 0.73343 0.51628 0.0
C267 C 0.20621 0.69301 0.54892 0.0
C268 C 0.16969 0.76315 0.56939 0.0
C269 C 0.19749 0.79918 0.57659 0.0
C270 C 0.18425 0.832 0.59798 0.0
C271 C 0.14089 0.8295 0.61083 0.0
C272 C 0.11119 0.79442 0.60221 0.0
C273 C 0.12714 0.75934 0.58305 0.0
H274 H 0.78691 0.00731 0.45917 0.0
H275 H 0.8704 0.97965 0.37908 0.0
H276 H 0.90441 0.91451 0.40649 0.0
H277 H 0.87281 0.99216 0.51176 0.0
H278 H 0.83826 0.96858 0.54209 0.0
H279 H 0.81377 0.00603 0.51405 0.0
H280 H 0.75439 0.94533 0.49993 0.0
H281 H 0.77872 0.90762 0.52807 0.0
H282 H 0.77274 0.88995 0.4883 0.0
H283 H 0.93326 0.856 0.44448 0.0
H284 H 0.96137 0.81641 0.49137 0.0
H285 H 0.86494 0.88907 0.54773 0.0
C286 C 0.81115 0.9864 0.44709 0.0
C287 C 0.82526 0.9973 0.41682 0.0
C288 C 0.85868 0.97094 0.40211 0.0
C289 C 0.87798 0.93393 0.41745 0.0
C290 C 0.86401 0.92447 0.44767 0.0
C291 C 0.83171 0.95039 0.46244 0.0
C292 C 0.8276 0.93806 0.49635 0.0
C293 C 0.8388 0.97861 0.51727 0.0
C294 C 0.78056 0.9191 0.50358 0.0
C295 C 0.86323 0.90183 0.49859 0.0
C296 C 0.88298 0.8934 0.47013 0.0
C297 C 0.91778 0.86209 0.46682 0.0
C298 C 0.93343 0.83968 0.49343 0.0
C299 C 0.91504 0.8498 0.52284 0.0
C300 C 0.87918 0.88068 0.52533 0.0
H301 H 0.80858 0.25852 0.43878 0.0
H302 H 0.70796 0.16867 0.47667 0.0
H303 H 0.7191 0.20201 0.52833 0.0
H304 H 0.88363 0.24469 0.48735 0.0
H305 H 0.90555 0.30102 0.49181 0.0
H306 H 0.87622 0.28626 0.45722 0.0
H307 H 0.82019 0.35181 0.46593 0.0
H308 H 0.84986 0.36708 0.50088 0.0
H309 H 0.79013 0.3563 0.50212 0.0
H310 H 0.76121 0.21963 0.57514 0.0
H311 H 0.826 0.2226 0.61056 0.0
H312 H 0.89789 0.30653 0.54509 0.0
C313 C 0.78714 0.24795 0.45775 0.0
C314 C 0.75771 0.2111 0.45399 0.0
C315 C 0.73039 0.19725 0.47906 0.0
C316 C 0.73652 0.21615 0.50855 0.0
C317 C 0.76916 0.24965 0.5123 0.0
C318 C 0.79294 0.26672 0.48723 0.0
C319 C 0.83204 0.29571 0.49779 0.0
C320 C 0.87692 0.28092 0.4827 0.0
C321 C 0.82246 0.34569 0.4913 0.0
C322 C 0.83098 0.28631 0.53229 0.0
C323 C 0.7932 0.2615 0.54046 0.0
C324 C 0.78984 0.2406 0.56939 0.0
C325 C 0.82694 0.24231 0.58943 0.0
C326 C 0.86684 0.26485 0.58046 0.0
C327 C 0.86734 0.28997 0.55272 0.0
H328 H 0.90054 0.01761 0.90013 0.0
H329 H 0.7589 0.05285 0.90096 0.0
H330 H 0.77789 0.12784 0.92162 0.0
H331 H 0.9239 0.05319 0.96867 0.0
H332 H 0.97957 0.07527 0.96159 0.0
H333 H 0.95737 0.03248 0.93678 0.0
H334 H 0.97036 0.08377 0.88897 0.0
H335 H 0.99279 0.12708 0.91392 0.0
H336 H 0.94664 0.13966 0.88822 0.0
H337 H 0.80867 0.18804 0.95541 0.0
H338 H 0.84717 0.22379 -0.00014 0.0
H339 H 0.96876 0.15031 0.97774 0.0
C340 C 0.87371 0.04186 0.90329 0.0
C341 C 0.8283 0.0293 0.89898 0.0
C342 C 0.79402 0.06171 0.90391 0.0
C343 C 0.80456 0.10461 0.91553 0.0
C344 C 0.84955 0.11492 0.92162 0.0
C345 C 0.88373 0.08458 0.91512 0.0
C346 C 0.928 0.09965 0.92906 0.0
C347 C 0.94829 0.06301 0.95029 0.0
C348 C 0.96141 0.11337 0.90351 0.0
C349 C 0.91241 0.14038 0.94723 0.0
C350 C 0.86755 0.15005 0.94156 0.0
C351 C 0.84414 0.18184 0.95927 0.0
C352 C 0.86625 0.2022 0.98444 0.0
C353 C 0.91088 0.18983 0.99187 0.0
C354 C 0.93482 0.16075 0.97198 0.0
H355 H 0.20058 0.06228 -0.00025 0.0
H356 H 0.23275 0.18675 0.95288 0.0
H357 H 0.21188 0.2296 -0.00017 0.0
H358 H 0.10798 0.08849 0.02785 0.0
H359 H 0.11064 0.06224 0.06553 0.0
H360 H 0.14529 0.04158 0.03489 0.0
H361 H 0.21644 0.0537 0.06844 0.0
H362 H 0.18162 0.07446 0.09963 0.0
H363 H 0.22757 0.1082 0.08521 0.0
H364 H 0.16225 0.25766 0.04098 0.0
H365 H 0.09258 0.26701 0.07115 0.0
H366 H 0.09587 0.12547 0.09543 0.0
C367 C 0.2058 0.09839 0.00034 0.0
C368 C 0.21847 0.12145 0.97322 0.0
C369 C 0.22392 0.16864 0.97383 0.0
C370 C 0.21215 0.19316 0.00047 0.0
C371 C 0.19623 0.16971 0.02639 0.0
C372 C 0.1946 0.12302 0.02688 0.0
C373 C 0.1685 0.10596 0.05468 0.0
C374 C 0.13088 0.07275 0.04511 0.0
C375 C 0.20045 0.08432 0.0784 0.0
C376 C 0.14984 0.14996 0.06695 0.0
C377 C 0.16788 0.18657 0.05132 0.0
C378 C 0.14915 0.22955 0.0542 0.0
C379 C 0.10936 0.23461 0.07143 0.0
C380 C 0.08854 0.19678 0.08536 0.0
C381 C 0.11127 0.15502 0.08523 0.0
H382 H 0.18722 0.83034 0.03345 0.0
H383 H 0.07448 0.762 0.99115 0.0
H384 H 0.1028 0.78316 0.9392 0.0
H385 H 0.18432 0.92066 0.99425 0.0
H386 H 0.2437 0.93132 0.98932 0.0
H387 H 0.22483 0.89741 0.02099 0.0
H388 H 0.27631 0.83202 0.00294 0.0
H389 H 0.2957 0.86614 0.97098 0.0
H390 H 0.2721 0.81116 0.9638 0.0
H391 H 0.12625 0.83291 0.89661 0.0
H392 H 0.14494 0.90205 0.86762 0.0
H393 H 0.24777 0.93434 0.93495 0.0
C394 C 0.1703 0.81763 0.01301 0.0
C395 C 0.12935 0.79412 0.01588 0.0
C396 C 0.10659 0.77912 0.98912 0.0
C397 C 0.12252 0.79106 0.95958 0.0
C398 C 0.16175 0.81696 0.9574 0.0
C399 C 0.18621 0.82888 0.98349 0.0
C400 C 0.22242 0.86305 0.97577 0.0
C401 C 0.21848 0.90558 -0.00374 0.0
C402 C 0.26942 0.84181 0.97853 0.0
C403 C 0.21103 0.87273 0.94223 0.0
C404 C 0.17687 0.84477 0.9317 0.0
C405 C 0.15433 0.85356 0.90396 0.0
C406 C 0.16511 0.89293 0.88757 0.0
C407 C 0.19845 0.92273 0.89882 0.0
C408 C 0.22351 0.91097 0.9253 0.0
H409 H 0.80216 0.77891 0.97551 0.0
H410 H 0.75243 0.91059 0.00062 0.0
H411 H 0.78226 0.90078 0.05348 0.0
H412 H 0.79614 0.72729 0.06186 0.0
H413 H 0.84681 0.69618 0.05343 0.0
H414 H 0.80503 0.70447 0.02362 0.0
H415 H 0.86642 0.73845 0.98809 0.0
H416 H 0.90788 0.73138 0.01762 0.0
H417 H 0.89828 0.78654 0.00137 0.0
H418 H 0.8419 0.89149 0.0922 0.0
H419 H 0.91666 0.87907 0.11551 0.0
H420 H 0.92609 0.75036 0.06881 0.0
C421 C 0.79466 0.80393 0.99304 0.0
C422 C 0.7747 0.8451 0.98442 0.0
C423 C 0.76666 0.87834 0.00714 0.0
C424 C 0.78384 0.87305 0.03722 0.0
C425 C 0.80776 0.8338 0.04427 0.0
C426 C 0.81148 0.79878 0.02315 0.0
C427 C 0.84566 0.76415 0.03382 0.0
C428 C 0.82199 0.72044 0.04379 0.0
C429 C 0.88166 0.75472 0.00876 0.0
C430 C 0.86527 0.78828 0.06163 0.0
C431 C 0.84191 0.82761 0.06803 0.0
C432 C 0.85918 0.85986 0.08841 0.0
C433 C 0.90187 0.85271 0.10144 0.0
C434 C 0.92679 0.81349 0.0942 0.0
C435 C 0.90707 0.77994 0.07546 0.0
H436 H 0.01229 0.19534 0.71301 0.0
H437 H 0.12463 0.25628 0.66443 0.0
H438 H 0.17496 0.23707 0.70837 0.0
H439 H 0.04843 0.22892 0.79282 0.0
H440 H 0.0277 0.17678 0.80883 0.0
H441 H 0.00047 0.20139 0.77558 0.0
H442 H 0.0117 0.12663 0.74544 0.0
H443 H 0.03966 0.1021 0.77828 0.0
H444 H 0.06766 0.10384 0.7412 0.0
H445 H 0.21466 0.19933 0.75438 0.0
H446 H 0.23779 0.15511 0.8006 0.0
H447 H 0.09761 0.12269 0.81845 0.0
C448 C 0.04721 0.20586 0.71206 0.0
C449 C 0.0647 0.22734 0.68554 0.0
C450 C 0.11058 0.2403 0.68484 0.0
C451 C 0.13939 0.22929 0.70958 0.0
C452 C 0.12137 0.20627 0.73495 0.0
C453 C 0.07602 0.19577 0.7366 0.0
C454 C 0.06503 0.16894 0.76534 0.0
C455 C 0.03356 0.19561 0.78692 0.0
C456 C 0.04485 0.12266 0.75705 0.0
C457 C 0.1115 0.16432 0.7791 0.0
C458 C 0.14375 0.18602 0.76146 0.0
C459 C 0.18952 0.18308 0.76871 0.0
C460 C 0.2024 0.15768 0.79483 0.0
C461 C 0.16951 0.13582 0.81328 0.0
C462 C 0.12362 0.13957 0.80519 0.0
H463 H 0.11084 0.76402 0.20467 0.0
H464 H 0.19084 0.86028 0.15293 0.0
H465 H 0.23851 0.87336 0.19888 0.0
H466 H 0.10403 0.82765 0.27007 0.0
H467 H 0.10646 0.78199 0.29758 0.0
H468 H 0.08559 0.77198 0.25913 0.0
H469 H 0.14492 0.70891 0.25137 0.0
H470 H 0.16602 0.71876 0.28997 0.0
H471 H 0.20376 0.72124 0.25725 0.0
H472 H 0.27039 0.88432 0.25168 0.0
H473 H 0.2799 0.89642 0.30803 0.0
H474 H 0.1772 0.79572 0.32611 0.0
C475 C 0.13946 0.7865 0.20285 0.0
C476 C 0.14774 0.8107 0.17534 0.0
C477 C 0.1843 0.84125 0.17389 0.0
C478 C 0.21173 0.84864 0.19977 0.0
C479 C 0.20199 0.82539 0.22698 0.0
C480 C 0.16666 0.79496 0.22875 0.0
C481 C 0.15905 0.77969 0.26182 0.0
C482 C 0.11096 0.79104 0.27278 0.0
C483 C 0.16905 0.72914 0.2653 0.0
C484 C 0.19401 0.80792 0.27843 0.0
C485 C 0.21937 0.83303 0.25788 0.0
C486 C 0.25133 0.86424 0.26802 0.0
C487 C 0.25657 0.87089 0.30004 0.0
C488 C 0.22929 0.84706 0.32137 0.0
C489 C 0.1987 0.81428 0.31032 0.0
H490 H 0.86004 0.84984 0.6747 0.0
H491 H 0.90943 0.71349 0.68593 0.0
H492 H 0.86574 0.70637 0.73467 0.0
H493 H 0.87071 0.88334 0.74783 0.0
H494 H 0.8204 0.9172 0.74998 0.0
H495 H 0.84682 0.90753 0.71319 0.0
H496 H 0.77204 0.87522 0.69157 0.0
H497 H 0.74526 0.8848 0.72854 0.0
H498 H 0.74456 0.82938 0.71146 0.0
H499 H 0.83364 0.72147 0.78708 0.0
H500 H 0.81249 0.75587 0.83723 0.0
H501 H 0.77778 0.8799 0.79042 0.0
C502 C 0.86047 0.818 0.68699 0.0
C503 C 0.88804 0.78223 0.67685 0.0
C504 C 0.88815 0.74111 0.69335 0.0
C505 C 0.86335 0.7368 0.72095 0.0
C506 C 0.83768 0.77345 0.731 0.0
C507 C 0.8353 0.81296 0.71409 0.0
C508 C 0.80961 0.84915 0.73134 0.0
C509 C 0.83864 0.89176 0.73586 0.0
C510 C 0.76522 0.86027 0.71473 0.0
C511 C 0.80094 0.82516 0.76169 0.0
C512 C 0.81667 0.7812 0.76088 0.0
C513 C 0.81945 0.75504 0.78767 0.0
C514 C 0.80738 0.77474 0.81602 0.0
C515 C 0.79217 0.81982 0.8172 0.0
C516 C 0.78724 0.84466 0.78966 0.0
H517 H 0.80394 0.20932 0.29536 0.0
H518 H 0.72578 0.08786 0.28098 0.0
H519 H 0.73799 0.09454 0.22434 0.0
H520 H 0.77114 0.26773 0.21937 0.0
H521 H 0.82711 0.29072 0.21576 0.0
H522 H 0.8026 0.28252 0.25362 0.0
H523 H 0.87175 0.23465 0.26953 0.0
H524 H 0.89608 0.2419 0.23177 0.0
H525 H 0.88667 0.18596 0.24671 0.0
H526 H 0.77436 0.10387 0.17248 0.0
H527 H 0.8256 0.11894 0.12857 0.0
H528 H 0.87776 0.23647 0.17618 0.0
C529 C 0.78782 0.18523 0.2801 0.0
C530 C 0.76383 0.14819 0.29228 0.0
C531 C 0.74369 0.11683 0.27193 0.0
C532 C 0.75059 0.12036 0.23978 0.0
C533 C 0.77669 0.15604 0.2286 0.0
C534 C 0.79402 0.18862 0.24814 0.0
C535 C 0.8253 0.22046 0.2311 0.0
C536 C 0.80533 0.26819 0.22989 0.0
C537 C 0.87272 0.22069 0.24564 0.0
C538 C 0.82549 0.1989 0.19937 0.0
C539 C 0.79674 0.16218 0.19824 0.0
C540 C 0.7958 0.13337 0.17275 0.0
C541 C 0.82526 0.14199 0.14805 0.0
C542 C 0.85515 0.17917 0.14896 0.0
C543 C 0.85435 0.20857 0.17459 0.0
loop_
_geom_bond_atom_site_label_1
_geom_bond_atom_site_label_2
_geom_bond_distance
_geom_bond_site_symmetry_2
_ccdc_geom_bond_type
Zn0 O3 2.031 1_455 S
Zn0 O5 2.049 . S
Zn0 O10 2.067 . S
Zn1 O2 1.962 1_455 S
Zn1 O4 1.986 . S
Zn1 O6 1.996 . S
Zn1 O9 1.943 . S
O2 Zn1 1.962 1_655 S
O2 C7 1.254 . S
O3 Zn0 2.031 1_655 S
O3 C7 1.269 . S
O4 Zn1 1.986 . S
O4 C11 1.262 . S
O5 Zn0 2.049 . S
O5 C13 1.260 . S
O6 Zn1 1.996 . S
O6 C13 1.257 . S
C7 O2 1.254 . S
C7 O3 1.269 . S
C8 O9 1.249 . S
C8 O10 1.270 . S
O9 Zn1 1.943 . S
O9 C8 1.249 . S
O10 Zn0 2.067 . S
O10 C8 1.270 . S
C11 O4 1.262 . S
C11 O12 1.232 . S
O12 C11 1.232 . S
C13 O5 1.260 . S
C13 O6 1.257 . S
Zn14 O17 2.031 1_565 S
Zn14 O19 2.049 . S
Zn14 O24 2.067 . S
Zn15 O16 1.962 1_565 S
Zn15 O18 1.986 . S
Zn15 O20 1.996 . S
Zn15 O23 1.943 . S
O16 Zn15 1.962 1_545 S
O16 C21 1.254 . S
O17 Zn14 2.031 1_545 S
O17 C21 1.269 . S
O18 Zn15 1.986 . S
O18 C25 1.262 . S
O19 Zn14 2.049 . S
O19 C27 1.260 . S
O20 Zn15 1.996 . S
O20 C27 1.257 . S
C21 O16 1.254 . S
C21 O17 1.269 . S
C22 O23 1.249 . S
C22 O24 1.270 . S
O23 Zn15 1.943 . S
O23 C22 1.249 . S
O24 Zn14 2.067 . S
O24 C22 1.270 . S
C25 O18 1.262 . S
C25 O26 1.232 . S
O26 C25 1.232 . S
C27 O19 1.260 . S
C27 O20 1.257 . S
Zn28 O31 2.031 1_655 S
Zn28 O33 2.049 . S
Zn28 O38 2.067 . S
Zn29 O30 1.962 1_655 S
Zn29 O32 1.986 . S
Zn29 O34 1.996 . S
Zn29 O37 1.943 . S
O30 Zn29 1.962 1_455 S
O30 C35 1.254 . S
O31 Zn28 2.031 1_455 S
O31 C35 1.269 . S
O32 Zn29 1.986 . S
O32 C39 1.262 . S
O33 Zn28 2.049 . S
O33 C41 1.260 . S
O34 Zn29 1.996 . S
O34 C41 1.257 . S
C35 O30 1.254 . S
C35 O31 1.269 . S
C36 O37 1.249 . S
C36 O38 1.270 . S
O37 Zn29 1.943 . S
O37 C36 1.249 . S
O38 Zn28 2.067 . S
O38 C36 1.270 . S
C39 O32 1.262 . S
C39 O40 1.232 . S
O40 C39 1.232 . S
C41 O33 1.260 . S
C41 O34 1.257 . S
Zn42 O45 2.031 1_545 S
Zn42 O47 2.049 . S
Zn42 O52 2.067 . S
Zn43 O44 1.962 1_545 S
Zn43 O46 1.986 . S
Zn43 O48 1.996 . S
Zn43 O51 1.943 . S
O44 Zn43 1.962 1_565 S
O44 C49 1.254 . S
O45 Zn42 2.031 1_565 S
O45 C49 1.269 . S
O46 Zn43 1.986 . S
O46 C53 1.262 . S
O47 Zn42 2.049 . S
O47 C55 1.260 . S
O48 Zn43 1.996 . S
O48 C55 1.257 . S
C49 O44 1.254 . S
C49 O45 1.269 . S
C50 O51 1.249 . S
C50 O52 1.270 . S
O51 Zn43 1.943 . S
O51 C50 1.249 . S
O52 Zn42 2.067 . S
O52 C50 1.270 . S
C53 O46 1.262 . S
C53 O54 1.232 . S
O54 C53 1.232 . S
C55 O47 1.260 . S
C55 O48 1.257 . S
Zn56 O59 2.031 1_655 S
Zn56 O61 2.049 . S
Zn56 O66 2.067 . S
Zn57 O58 1.962 1_655 S
Zn57 O60 1.986 . S
Zn57 O62 1.996 . S
Zn57 O65 1.943 . S
O58 Zn57 1.962 1_455 S
O58 C63 1.254 . S
O59 Zn56 2.031 1_455 S
O59 C63 1.269 . S
O60 Zn57 1.986 . S
O60 C67 1.262 . S
O61 Zn56 2.049 . S
O61 C69 1.260 . S
O62 Zn57 1.996 . S
O62 C69 1.257 . S
C63 O58 1.254 . S
C63 O59 1.269 . S
C64 O65 1.249 . S
C64 O66 1.270 . S
O65 Zn57 1.943 . S
O65 C64 1.249 . S
O66 Zn56 2.067 . S
O66 C64 1.270 . S
C67 O60 1.262 . S
C67 O68 1.232 . S
O68 C67 1.232 . S
C69 O61 1.260 . S
C69 O62 1.257 . S
Zn70 O73 2.031 1_545 S
Zn70 O75 2.049 . S
Zn70 O80 2.067 . S
Zn71 O72 1.962 1_545 S
Zn71 O74 1.986 . S
Zn71 O76 1.996 . S
Zn71 O79 1.943 . S
O72 Zn71 1.962 1_565 S
O72 C77 1.254 . S
O73 Zn70 2.031 1_565 S
O73 C77 1.269 . S
O74 Zn71 1.986 . S
O74 C81 1.262 . S
O75 Zn70 2.049 . S
O75 C83 1.260 . S
O76 Zn71 1.996 . S
O76 C83 1.257 . S
C77 O72 1.254 . S
C77 O73 1.269 . S
C78 O79 1.249 . S
C78 O80 1.270 . S
O79 Zn71 1.943 . S
O79 C78 1.249 . S
O80 Zn70 2.067 . S
O80 C78 1.270 . S
C81 O74 1.262 . S
C81 O82 1.232 . S
O82 C81 1.232 . S
C83 O75 1.260 . S
C83 O76 1.257 . S
Zn84 O87 2.031 1_455 S
Zn84 O89 2.049 . S
Zn84 O94 2.067 . S
Zn85 O86 1.962 1_455 S
Zn85 O88 1.986 . S
Zn85 O90 1.996 . S
Zn85 O93 1.943 . S
O86 Zn85 1.962 1_655 S
O86 C91 1.254 . S
O87 Zn84 2.031 1_655 S
O87 C91 1.269 . S
O88 Zn85 1.986 . S
O88 C95 1.262 . S
O89 Zn84 2.049 . S
O89 C97 1.260 . S
O90 Zn85 1.996 . S
O90 C97 1.257 . S
C91 O86 1.254 . S
C91 O87 1.269 . S
C92 O93 1.249 . S
C92 O94 1.270 . S
O93 Zn85 1.943 . S
O93 C92 1.249 . S
O94 Zn84 2.067 . S
O94 C92 1.270 . S
C95 O88 1.262 . S
C95 O96 1.232 . S
O96 C95 1.232 . S
C97 O89 1.260 . S
C97 O90 1.257 . S
Zn98 O101 2.031 1_565 S
Zn98 O103 2.049 . S
Zn98 O108 2.067 . S
Zn99 O100 1.962 1_565 S
Zn99 O102 1.986 . S
Zn99 O104 1.996 . S
Zn99 O107 1.943 . S
O100 Zn99 1.962 1_545 S
O100 C105 1.254 . S
O101 Zn98 2.031 1_545 S
O101 C105 1.269 . S
O102 Zn99 1.986 . S
O102 C109 1.262 . S
O103 Zn98 2.049 . S
O103 C111 1.260 . S
O104 Zn99 1.996 . S
O104 C111 1.257 . S
C105 O100 1.254 . S
C105 O101 1.269 . S
C106 O107 1.249 . S
C106 O108 1.270 . S
O107 Zn99 1.943 . S
O107 C106 1.249 . S
O108 Zn98 2.067 . S
O108 C106 1.270 . S
C109 O102 1.262 . S
C109 O110 1.232 . S
O110 C109 1.232 . S
C111 O103 1.260 . S
C111 O104 1.257 . S
H112 C124 0.925 1_455 S
H113 C126 0.930 . S
H114 C127 0.930 . S
H115 C131 0.959 . S
H116 C131 0.959 . S
H117 C131 0.961 . S
H118 C132 0.960 . S
H119 C132 0.961 . S
H120 C132 0.959 1_655 S
H121 C135 0.929 . S
H122 C136 0.931 . S
H123 C138 0.930 . S
C124 H112 0.925 1_655 S
C124 C125 1.404 . S
C124 C129 1.399 1_655 S
C125 C124 1.404 . S
C125 C126 1.376 . S
C126 H113 0.930 . S
C126 C125 1.376 . S
C126 C127 1.388 . S
C127 H114 0.930 . S
C127 C126 1.388 . S
C127 C128 1.390 . S
C128 C127 1.390 . S
C128 C129 1.394 1_655 S
C128 C134 1.465 . S
C129 C124 1.399 1_455 S
C129 C128 1.394 1_455 S
C129 C130 1.516 . S
C130 C129 1.516 . S
C130 C131 1.502 . S
C130 C132 1.561 . S
C130 C133 1.526 . S
C131 H115 0.959 . S
C131 H116 0.959 . S
C131 H117 0.961 . S
C131 C130 1.502 . S
C132 H118 0.960 . S
C132 H119 0.961 . S
C132 H120 0.959 1_455 S
C132 C130 1.561 . S
C133 C130 1.526 . S
C133 C134 1.396 1_455 S
C133 C138 1.390 . S
C134 C128 1.465 . S
C134 C133 1.396 1_655 S
C134 C135 1.399 . S
C135 H121 0.929 . S
C135 C134 1.399 . S
C135 C136 1.385 . S
C136 H122 0.931 . S
C136 C135 1.385 . S
C136 C137 1.389 1_655 S
C137 C136 1.389 1_455 S
C137 C138 1.387 . S
C138 H123 0.930 . S
C138 C133 1.390 . S
C138 C137 1.387 . S
H139 C151 0.930 . S
H140 C153 0.930 . S
H141 C154 0.930 . S
H142 C158 0.959 . S
H143 C158 0.959 . S
H144 C158 0.961 . S
H145 C159 0.960 . S
H146 C159 0.961 . S
H147 C159 0.959 . S
H148 C162 0.929 . S
H149 C163 0.931 . S
H150 C165 0.930 1_545 S
C151 H139 0.930 . S
C151 C152 1.399 . S
C151 C156 1.399 . S
C152 C151 1.399 . S
C152 C153 1.376 1_545 S
C153 H140 0.930 . S
C153 C152 1.376 1_565 S
C153 C154 1.388 . S
C154 H141 0.930 . S
C154 C153 1.388 . S
C154 C155 1.390 . S
C155 C154 1.390 . S
C155 C156 1.394 1_565 S
C155 C161 1.465 . S
C156 C151 1.399 . S
C156 C155 1.394 1_545 S
C156 C157 1.516 . S
C157 C156 1.516 . S
C157 C158 1.502 . S
C157 C159 1.561 1_545 S
C157 C160 1.526 1_545 S
C158 H142 0.959 . S
C158 H143 0.959 . S
C158 H144 0.961 . S
C158 C157 1.502 . S
C159 H145 0.960 . S
C159 H146 0.961 . S
C159 H147 0.959 . S
C159 C157 1.561 1_565 S
C160 C157 1.526 1_565 S
C160 C161 1.396 . S
C160 C165 1.390 . S
C161 C155 1.465 . S
C161 C160 1.396 . S
C161 C162 1.399 . S
C162 H148 0.929 . S
C162 C161 1.399 . S
C162 C163 1.385 . S
C163 H149 0.931 . S
C163 C162 1.385 . S
C163 C164 1.389 . S
C164 C163 1.389 . S
C164 C165 1.387 . S
C165 H150 0.930 1_565 S
C165 C160 1.390 . S
C165 C164 1.387 . S
H166 C178 0.935 . S
H167 C180 0.930 . S
H168 C181 0.930 . S
H169 C185 0.959 . S
H170 C185 0.959 . S
H171 C185 0.961 . S
H172 C186 0.960 . S
H173 C186 0.961 . S
H174 C186 0.959 . S
H175 C189 0.929 . S
H176 C190 0.931 . S
H177 C192 0.930 . S
C178 H166 0.935 . S
C178 C179 1.399 . S
C178 C183 1.399 . S
C179 C178 1.399 . S
C179 C180 1.376 . S
C180 H167 0.930 . S
C180 C179 1.376 . S
C180 C181 1.388 . S
C181 H168 0.930 . S
C181 C180 1.388 . S
C181 C182 1.390 . S
C182 C181 1.390 . S
C182 C183 1.394 . S
C182 C188 1.465 . S
C183 C178 1.399 . S
C183 C182 1.394 . S
C183 C184 1.516 1_655 S
C184 C183 1.516 1_455 S
C184 C185 1.502 . S
C184 C186 1.561 1_455 S
C184 C187 1.526 . S
C185 H169 0.959 . S
C185 H170 0.959 . S
C185 H171 0.961 . S
C185 C184 1.502 . S
C186 H172 0.960 . S
C186 H173 0.961 . S
C186 H174 0.959 . S
C186 C184 1.561 1_655 S
C187 C184 1.526 . S
C187 C188 1.396 1_455 S
C187 C192 1.390 . S
C188 C182 1.465 . S
C188 C187 1.396 1_655 S
C188 C189 1.399 . S
C189 H175 0.929 . S
C189 C188 1.399 . S
C189 C190 1.385 1_655 S
C190 H176 0.931 . S
C190 C189 1.385 1_455 S
C190 C191 1.389 . S
C191 C190 1.389 . S
C191 C192 1.387 . S
C192 H177 0.930 . S
C192 C187 1.390 . S
C192 C191 1.387 . S
H193 C205 0.930 . S
H194 C207 0.929 1_565 S
H195 C208 0.930 . S
H196 C212 0.959 . S
H197 C212 0.959 . S
H198 C212 0.961 . S
H199 C213 0.960 . S
H200 C213 0.961 . S
H201 C213 0.959 . S
H202 C216 0.929 . S
H203 C217 0.931 . S
H204 C219 0.930 . S
C205 H193 0.930 . S
C205 C206 1.399 . S
C205 C210 1.399 . S
C206 C205 1.399 . S
C206 C207 1.376 . S
C207 H194 0.929 1_545 S
C207 C206 1.376 . S
C207 C208 1.388 1_545 S
C208 H195 0.930 . S
C208 C207 1.388 1_565 S
C208 C209 1.390 . S
C209 C208 1.390 . S
C209 C210 1.394 1_565 S
C209 C215 1.465 . S
C210 C205 1.399 . S
C210 C209 1.394 1_545 S
C210 C211 1.516 . S
C211 C210 1.516 . S
C211 C212 1.502 . S
C211 C213 1.561 1_545 S
C211 C214 1.526 1_545 S
C212 H196 0.959 . S
C212 H197 0.959 . S
C212 H198 0.961 . S
C212 C211 1.502 . S
C213 H199 0.960 . S
C213 H200 0.961 . S
C213 H201 0.959 . S
C213 C211 1.561 1_565 S
C214 C211 1.526 1_565 S
C214 C215 1.396 . S
C214 C219 1.390 . S
C215 C209 1.465 . S
C215 C214 1.396 . S
C215 C216 1.399 . S
C216 H202 0.929 . S
C216 C215 1.399 . S
C216 C217 1.385 . S
C217 H203 0.931 . S
C217 C216 1.385 . S
C217 C218 1.389 . S
C218 C217 1.389 . S
C218 C219 1.387 . S
C219 H204 0.930 . S
C219 C214 1.390 . S
C219 C218 1.387 . S
H220 C232 0.930 . S
H221 C234 0.930 . S
H222 C235 0.930 . S
H223 C239 0.959 . S
H224 C239 0.959 . S
H225 C239 0.961 . S
H226 C240 0.960 . S
H227 C240 0.961 . S
H228 C240 0.959 . S
H229 C243 0.929 . S
H230 C244 0.931 . S
H231 C246 0.930 . S
C232 H220 0.930 . S
C232 C233 1.399 . S
C232 C237 1.399 . S
C233 C232 1.399 . S
C233 C234 1.376 . S
C234 H221 0.930 . S
C234 C233 1.376 . S
C234 C235 1.388 . S
C235 H222 0.930 . S
C235 C234 1.388 . S
C235 C236 1.390 . S
C236 C235 1.390 . S
C236 C237 1.394 . S
C236 C242 1.465 . S
C237 C232 1.399 . S
C237 C236 1.394 . S
C237 C238 1.516 . S
C238 C237 1.516 . S
C238 C239 1.502 . S
C238 C240 1.561 . S
C238 C241 1.526 . S
C239 H223 0.959 . S
C239 H224 0.959 . S
C239 H225 0.961 . S
C239 C238 1.502 . S
C240 H226 0.960 . S
C240 H227 0.961 . S
C240 H228 0.959 . S
C240 C238 1.561 . S
C241 C238 1.526 . S
C241 C242 1.396 . S
C241 C246 1.390 . S
C242 C236 1.465 . S
C242 C241 1.396 . S
C242 C243 1.399 . S
C243 H229 0.929 . S
C243 C242 1.399 . S
C243 C244 1.385 . S
C244 H230 0.931 . S
C244 C243 1.385 . S
C244 C245 1.389 . S
C245 C244 1.389 . S
C245 C246 1.387 . S
C246 H231 0.930 . S
C246 C241 1.390 . S
C246 C245 1.387 . S
H247 C259 0.930 . S
H248 C261 0.930 . S
H249 C262 0.930 . S
H250 C266 0.959 . S
H251 C266 0.959 . S
H252 C266 0.961 . S
H253 C267 0.960 . S
H254 C267 0.961 . S
H255 C267 0.959 . S
H256 C270 0.929 . S
H257 C271 0.931 . S
H258 C273 0.930 . S
C259 H247 0.930 . S
C259 C260 1.399 . S
C259 C264 1.399 . S
C260 C259 1.399 . S
C260 C261 1.376 . S
C261 H248 0.930 . S
C261 C260 1.376 . S
C261 C262 1.388 . S
C262 H249 0.930 . S
C262 C261 1.388 . S
C262 C263 1.390 . S
C263 C262 1.390 . S
C263 C264 1.394 . S
C263 C269 1.465 . S
C264 C259 1.399 . S
C264 C263 1.394 . S
C264 C265 1.516 . S
C265 C264 1.516 . S
C265 C266 1.502 . S
C265 C267 1.561 . S
C265 C268 1.526 . S
C266 H250 0.959 . S
C266 H251 0.959 . S
C266 H252 0.961 . S
C266 C265 1.502 . S
C267 H253 0.960 . S
C267 H254 0.961 . S
C267 H255 0.959 . S
C267 C265 1.561 . S
C268 C265 1.526 . S
C268 C269 1.396 . S
C268 C273 1.390 . S
C269 C263 1.465 . S
C269 C268 1.396 . S
C269 C270 1.399 . S
C270 H256 0.929 . S
C270 C269 1.399 . S
C270 C271 1.385 . S
C271 H257 0.931 . S
C271 C270 1.385 . S
C271 C272 1.389 . S
C272 C271 1.389 . S
C272 C273 1.387 . S
C273 H258 0.930 . S
C273 C268 1.390 . S
C273 C272 1.387 . S
H274 C286 0.930 . S
H275 C288 0.930 . S
H276 C289 0.930 . S
H277 C293 0.959 . S
H278 C293 0.959 . S
H279 C293 0.961 . S
H280 C294 0.960 . S
H281 C294 0.961 . S
H282 C294 0.959 . S
H283 C297 0.929 . S
H284 C298 0.931 . S
H285 C300 0.930 . S
C286 H274 0.930 . S
C286 C287 1.399 . S
C286 C291 1.399 . S
C287 C286 1.399 . S
C287 C288 1.376 . S
C288 H275 0.930 . S
C288 C287 1.376 . S
C288 C289 1.388 . S
C289 H276 0.930 . S
C289 C288 1.388 . S
C289 C290 1.390 . S
C290 C289 1.390 . S
C290 C291 1.394 . S
C290 C296 1.465 . S
C291 C286 1.399 . S
C291 C290 1.394 . S
C291 C292 1.516 . S
C292 C291 1.516 . S
C292 C293 1.502 . S
C292 C294 1.561 . S
C292 C295 1.526 . S
C293 H277 0.959 . S
C293 H278 0.959 . S
C293 H279 0.961 . S
C293 C292 1.502 . S
C294 H280 0.960 . S
C294 H281 0.961 . S
C294 H282 0.959 . S
C294 C292 1.561 . S
C295 C292 1.526 . S
C295 C296 1.396 . S
C295 C300 1.390 . S
C296 C290 1.465 . S
C296 C295 1.396 . S
C296 C297 1.399 . S
C297 H283 0.929 . S
C297 C296 1.399 . S
C297 C298 1.385 . S
C298 H284 0.931 . S
C298 C297 1.385 . S
C298 C299 1.389 . S
C299 C298 1.389 . S
C299 C300 1.387 . S
C300 H285 0.930 . S
C300 C295 1.390 . S
C300 C299 1.387 . S
H301 C313 0.930 . S
H302 C315 0.930 . S
H303 C316 0.930 . S
H304 C320 0.959 . S
H305 C320 0.959 . S
H306 C320 0.961 . S
H307 C321 0.960 . S
H308 C321 0.961 . S
H309 C321 0.959 . S
H310 C324 0.929 . S
H311 C325 0.931 . S
H312 C327 0.930 . S
C313 H301 0.930 . S
C313 C314 1.399 . S
C313 C318 1.399 . S
C314 C313 1.399 . S
C314 C315 1.376 . S
C315 H302 0.930 . S
C315 C314 1.376 . S
C315 C316 1.388 . S
C316 H303 0.930 . S
C316 C315 1.388 . S
C316 C317 1.390 . S
C317 C316 1.390 . S
C317 C318 1.394 . S
C317 C323 1.465 . S
C318 C313 1.399 . S
C318 C317 1.394 . S
C318 C319 1.516 . S
C319 C318 1.516 . S
C319 C320 1.502 . S
C319 C321 1.561 . S
C319 C322 1.526 . S
C320 H304 0.959 . S
C320 H305 0.959 . S
C320 H306 0.961 . S
C320 C319 1.502 . S
C321 H307 0.960 . S
C321 H308 0.961 . S
C321 H309 0.959 . S
C321 C319 1.561 . S
C322 C319 1.526 . S
C322 C323 1.396 . S
C322 C327 1.390 . S
C323 C317 1.465 . S
C323 C322 1.396 . S
C323 C324 1.399 . S
C324 H310 0.929 . S
C324 C323 1.399 . S
C324 C325 1.385 . S
C325 H311 0.931 . S
C325 C324 1.385 . S
C325 C326 1.389 . S
C326 C325 1.389 . S
C326 C327 1.387 . S
C327 H312 0.930 . S
C327 C322 1.390 . S
C327 C326 1.387 . S
H328 C340 0.930 . S
H329 C342 0.930 . S
H330 C343 0.930 . S
H331 C347 0.959 1_554 S
H332 C347 0.947 1_554 S
H333 C347 0.961 . S
H334 C348 0.960 . S
H335 C348 0.961 . S
H336 C348 0.959 . S
H337 C351 0.929 . S
H338 C352 0.931 . S
H339 C354 0.930 . S
C340 H328 0.930 . S
C340 C341 1.399 . S
C340 C345 1.399 . S
C341 C340 1.399 . S
C341 C342 1.376 . S
C342 H329 0.930 . S
C342 C341 1.376 . S
C342 C343 1.388 . S
C343 H330 0.930 . S
C343 C342 1.388 . S
C343 C344 1.390 . S
C344 C343 1.390 . S
C344 C345 1.394 . S
C344 C350 1.465 1_556 S
C345 C340 1.399 . S
C345 C344 1.394 . S
C345 C346 1.516 . S
C346 C345 1.516 . S
C346 C347 1.502 . S
C346 C348 1.561 . S
C346 C349 1.526 1_556 S
C347 H331 0.959 1_556 S
C347 H332 0.947 1_556 S
C347 H333 0.961 . S
C347 C346 1.502 . S
C348 H334 0.960 . S
C348 H335 0.961 . S
C348 H336 0.959 . S
C348 C346 1.561 . S
C349 C346 1.526 1_554 S
C349 C350 1.396 . S
C349 C354 1.390 . S
C350 C344 1.465 1_554 S
C350 C349 1.396 . S
C350 C351 1.399 . S
C351 H337 0.929 . S
C351 C350 1.399 . S
C351 C352 1.385 . S
C352 H338 0.931 . S
C352 C351 1.385 . S
C352 C353 1.389 . S
C353 C352 1.389 . S
C353 C354 1.387 . S
C354 H339 0.930 . S
C354 C349 1.390 . S
C354 C353 1.387 . S
H355 C367 0.930 . S
H356 C369 0.930 . S
H357 C370 0.930 . S
H358 C374 0.959 . S
H359 C374 0.959 . S
H360 C374 0.961 . S
H361 C375 0.960 . S
H362 C375 0.961 . S
H363 C375 0.959 . S
H364 C378 0.929 1_556 S
H365 C379 0.931 . S
H366 C381 0.930 . S
C367 H355 0.930 . S
C367 C368 1.399 . S
C367 C372 1.399 . S
C368 C367 1.399 . S
C368 C369 1.376 . S
C369 H356 0.930 . S
C369 C368 1.376 . S
C369 C370 1.388 . S
C370 H357 0.930 . S
C370 C369 1.388 . S
C370 C371 1.390 . S
C371 C370 1.390 . S
C371 C372 1.394 . S
C371 C377 1.465 1_556 S
C372 C367 1.399 . S
C372 C371 1.394 . S
C372 C373 1.516 1_556 S
C373 C372 1.516 1_554 S
C373 C374 1.502 . S
C373 C375 1.561 . S
C373 C376 1.526 . S
C374 H358 0.959 . S
C374 H359 0.959 . S
C374 H360 0.961 . S
C374 C373 1.502 . S
C375 H361 0.960 . S
C375 H362 0.961 . S
C375 H363 0.959 . S
C375 C373 1.561 . S
C376 C373 1.526 . S
C376 C377 1.396 . S
C376 C381 1.390 . S
C377 C371 1.465 1_554 S
C377 C376 1.396 . S
C377 C378 1.399 . S
C378 H364 0.929 1_554 S
C378 C377 1.399 . S
C378 C379 1.385 . S
C379 H365 0.931 . S
C379 C378 1.385 . S
C379 C380 1.389 . S
C380 C379 1.389 . S
C380 C381 1.387 . S
C381 H366 0.930 . S
C381 C376 1.390 . S
C381 C380 1.387 . S
H382 C394 0.930 . S
H383 C396 0.930 . S
H384 C397 0.930 1_556 S
H385 C401 0.959 1_556 S
H386 C401 0.959 . S
H387 C401 0.961 . S
H388 C402 0.960 . S
H389 C402 0.961 . S
H390 C402 0.959 . S
H391 C405 0.929 . S
H392 C406 0.931 . S
H393 C408 0.930 . S
C394 H382 0.930 . S
C394 C395 1.399 . S
C394 C399 1.399 . S
C395 C394 1.399 . S
C395 C396 1.376 . S
C396 H383 0.930 . S
C396 C395 1.376 . S
C396 C397 1.388 . S
C397 H384 0.930 1_554 S
C397 C396 1.388 . S
C397 C398 1.392 . S
C398 C397 1.392 . S
C398 C399 1.401 . S
C398 C404 1.457 1_554 S
C399 C394 1.399 . S
C399 C398 1.401 . S
C399 C400 1.516 . S
C400 C399 1.516 . S
C400 C401 1.502 . S
C400 C402 1.561 . S
C400 C403 1.526 1_554 S
C401 H385 0.959 1_554 S
C401 H386 0.959 . S
C401 H387 0.961 . S
C401 C400 1.502 . S
C402 H388 0.960 . S
C402 H389 0.961 . S
C402 H390 0.959 . S
C402 C400 1.561 . S
C403 C400 1.526 1_556 S
C403 C404 1.396 . S
C403 C408 1.390 . S
C404 C398 1.457 1_556 S
C404 C403 1.396 . S
C404 C405 1.399 . S
C405 H391 0.929 . S
C405 C404 1.399 . S
C405 C406 1.385 . S
C406 H392 0.931 . S
C406 C405 1.385 . S
C406 C407 1.389 . S
C407 C406 1.389 . S
C407 C408 1.387 . S
C408 H393 0.930 . S
C408 C403 1.390 . S
C408 C407 1.387 . S
H409 C421 0.930 . S
H410 C423 0.930 . S
H411 C424 0.930 . S
H412 C428 0.959 . S
H413 C428 0.959 . S
H414 C428 0.961 1_556 S
H415 C429 0.960 . S
H416 C429 0.961 . S
H417 C429 0.959 . S
H418 C432 0.929 . S
H419 C433 0.931 . S
H420 C435 0.930 . S
C421 H409 0.930 . S
C421 C422 1.399 . S
C421 C426 1.399 . S
C422 C421 1.399 . S
C422 C423 1.376 . S
C423 H410 0.930 . S
C423 C422 1.376 . S
C423 C424 1.388 . S
C424 H411 0.930 . S
C424 C423 1.388 . S
C424 C425 1.390 . S
C425 C424 1.390 . S
C425 C426 1.394 . S
C425 C431 1.465 1_556 S
C426 C421 1.399 . S
C426 C425 1.394 . S
C426 C427 1.516 . S
C427 C426 1.516 . S
C427 C428 1.502 1_556 S
C427 C429 1.561 . S
C427 C430 1.526 1_556 S
C428 H412 0.959 . S
C428 H413 0.959 . S
C428 H414 0.961 1_554 S
C428 C427 1.502 1_554 S
C429 H415 0.960 . S
C429 H416 0.961 . S
C429 H417 0.959 . S
C429 C427 1.561 . S
C430 C427 1.526 1_554 S
C430 C431 1.396 . S
C430 C435 1.390 . S
C431 C425 1.465 1_554 S
C431 C430 1.396 . S
C431 C432 1.399 . S
C432 H418 0.929 . S
C432 C431 1.399 . S
C432 C433 1.385 . S
C433 H419 0.931 . S
C433 C432 1.385 . S
C433 C434 1.389 . S
C434 C433 1.389 . S
C434 C435 1.387 . S
C435 H420 0.930 . S
C435 C430 1.390 . S
C435 C434 1.387 . S
H436 C448 0.930 . S
H437 C450 0.930 . S
H438 C451 0.930 . S
H439 C455 0.959 . S
H440 C455 0.959 . S
H441 C455 0.961 . S
H442 C456 0.960 . S
H443 C456 0.961 . S
H444 C456 0.959 . S
H445 C459 0.929 . S
H446 C460 0.931 . S
H447 C462 0.930 . S
C448 H436 0.930 . S
C448 C449 1.399 . S
C448 C453 1.399 . S
C449 C448 1.399 . S
C449 C450 1.376 . S
C450 H437 0.930 . S
C450 C449 1.376 . S
C450 C451 1.388 . S
C451 H438 0.930 . S
C451 C450 1.388 . S
C451 C452 1.390 . S
C452 C451 1.390 . S
C452 C453 1.394 . S
C452 C458 1.465 . S
C453 C448 1.399 . S
C453 C452 1.394 . S
C453 C454 1.516 . S
C454 C453 1.516 . S
C454 C455 1.502 . S
C454 C456 1.561 . S
C454 C457 1.526 . S
C455 H439 0.959 . S
C455 H440 0.959 . S
C455 H441 0.961 . S
C455 C454 1.502 . S
C456 H442 0.960 . S
C456 H443 0.961 . S
C456 H444 0.959 . S
C456 C454 1.561 . S
C457 C454 1.526 . S
C457 C458 1.396 . S
C457 C462 1.390 . S
C458 C452 1.465 . S
C458 C457 1.396 . S
C458 C459 1.399 . S
C459 H445 0.929 . S
C459 C458 1.399 . S
C459 C460 1.385 . S
C460 H446 0.931 . S
C460 C459 1.385 . S
C460 C461 1.389 . S
C461 C460 1.389 . S
C461 C462 1.387 . S
C462 H447 0.930 . S
C462 C457 1.390 . S
C462 C461 1.387 . S
H463 C475 0.930 . S
H464 C477 0.930 . S
H465 C478 0.930 . S
H466 C482 0.959 . S
H467 C482 0.959 . S
H468 C482 0.961 . S
H469 C483 0.960 . S
H470 C483 0.961 . S
H471 C483 0.959 . S
H472 C486 0.929 . S
H473 C487 0.931 . S
H474 C489 0.930 . S
C475 H463 0.930 . S
C475 C476 1.399 . S
C475 C480 1.399 . S
C476 C475 1.399 . S
C476 C477 1.376 . S
C477 H464 0.930 . S
C477 C476 1.376 . S
C477 C478 1.388 . S
C478 H465 0.930 . S
C478 C477 1.388 . S
C478 C479 1.390 . S
C479 C478 1.390 . S
C479 C480 1.394 . S
C479 C485 1.465 . S
C480 C475 1.399 . S
C480 C479 1.394 . S
C480 C481 1.516 . S
C481 C480 1.516 . S
C481 C482 1.502 . S
C481 C483 1.561 . S
C481 C484 1.526 . S
C482 H466 0.959 . S
C482 H467 0.959 . S
C482 H468 0.961 . S
C482 C481 1.502 . S
C483 H469 0.960 . S
C483 H470 0.961 . S
C483 H471 0.959 . S
C483 C481 1.561 . S
C484 C481 1.526 . S
C484 C485 1.396 . S
C484 C489 1.390 . S
C485 C479 1.465 . S
C485 C484 1.396 . S
C485 C486 1.399 . S
C486 H472 0.929 . S
C486 C485 1.399 . S
C486 C487 1.385 . S
C487 H473 0.931 . S
C487 C486 1.385 . S
C487 C488 1.389 . S
C488 C487 1.389 . S
C488 C489 1.387 . S
C489 H474 0.930 . S
C489 C484 1.390 . S
C489 C488 1.387 . S
H490 C502 0.930 . S
H491 C504 0.930 . S
H492 C505 0.930 . S
H493 C509 0.959 . S
H494 C509 0.959 . S
H495 C509 0.961 . S
H496 C510 0.960 . S
H497 C510 0.961 . S
H498 C510 0.959 . S
H499 C513 0.929 . S
H500 C514 0.931 . S
H501 C516 0.930 . S
C502 H490 0.930 . S
C502 C503 1.399 . S
C502 C507 1.399 . S
C503 C502 1.399 . S
C503 C504 1.376 . S
C504 H491 0.930 . S
C504 C503 1.376 . S
C504 C505 1.388 . S
C505 H492 0.930 . S
C505 C504 1.388 . S
C505 C506 1.390 . S
C506 C505 1.390 . S
C506 C507 1.394 . S
C506 C512 1.465 . S
C507 C502 1.399 . S
C507 C506 1.394 . S
C507 C508 1.516 . S
C508 C507 1.516 . S
C508 C509 1.502 . S
C508 C510 1.561 . S
C508 C511 1.526 . S
C509 H493 0.959 . S
C509 H494 0.959 . S
C509 H495 0.961 . S
C509 C508 1.502 . S
C510 H496 0.960 . S
C510 H497 0.961 . S
C510 H498 0.959 . S
C510 C508 1.561 . S
C511 C508 1.526 . S
C511 C512 1.396 . S
C511 C516 1.390 . S
C512 C506 1.465 . S
C512 C511 1.396 . S
C512 C513 1.399 . S
C513 H499 0.929 . S
C513 C512 1.399 . S
C513 C514 1.385 . S
C514 H500 0.931 . S
C514 C513 1.385 . S
C514 C515 1.389 . S
C515 C514 1.389 . S
C515 C516 1.387 . S
C516 H501 0.930 . S
C516 C511 1.390 . S
C516 C515 1.387 . S
H517 C529 0.930 . S
H518 C531 0.930 . S
H519 C532 0.930 . S
H520 C536 0.959 . S
H521 C536 0.959 . S
H522 C536 0.961 . S
H523 C537 0.960 . S
H524 C537 0.961 . S
H525 C537 0.959 . S
H526 C540 0.929 . S
H527 C541 0.931 . S
H528 C543 0.930 . S
C529 H517 0.930 . S
C529 C530 1.399 . S
C529 C534 1.399 . S
C530 C529 1.399 . S
C530 C531 1.376 . S
C531 H518 0.930 . S
C531 C530 1.376 . S
C531 C532 1.388 . S
C532 H519 0.930 . S
C532 C531 1.388 . S
C532 C533 1.390 . S
C533 C532 1.390 . S
C533 C534 1.394 . S
C533 C539 1.465 . S
C534 C529 1.399 . S
C534 C533 1.394 . S
C534 C535 1.516 . S
C535 C534 1.516 . S
C535 C536 1.502 . S
C535 C537 1.561 . S
C535 C538 1.526 . S
C536 H520 0.959 . S
C536 H521 0.959 . S
C536 H522 0.961 . S
C536 C535 1.502 . S
C537 H523 0.960 . S
C537 H524 0.961 . S
C537 H525 0.959 . S
C537 C535 1.561 . S
C538 C535 1.526 . S
C538 C539 1.396 . S
C538 C543 1.390 . S
C539 C533 1.465 . S
C539 C538 1.396 . S
C539 C540 1.399 . S
C540 H526 0.929 . S
C540 C539 1.399 . S
C540 C541 1.385 . S
C541 H527 0.931 . S
C541 C540 1.385 . S
C541 C542 1.389 . S
C542 C541 1.389 . S
C542 C543 1.387 . S
C543 H528 0.930 . S
C543 C538 1.390 . S
C543 C542 1.387 . S
C125 C39 1.305 . S
C137 C11 1.261 . S
C152 C53 1.259 . S
C164 C25 1.292 . S
C179 C67 1.311 . S
C191 C95 1.283 . S
C206 C81 1.275 . S
C218 C109 1.305 . S
C233 C21 0.891 . S
C245 C8 0.888 . S
C260 C22 0.947 . S
C272 C35 0.930 . S
C287 C49 0.956 . S
C299 C36 0.950 . S
C314 C50 0.896 . S
C326 C7 0.890 . S
C341 C105 0.957 . S
C353 C64 0.944 . S
C368 C78 0.868 . S
C380 C63 0.879 . S
C395 C92 0.962 . S
C407 C77 0.963 . S
C422 C106 0.860 . S
C434 C91 0.889 . S
C449 C13 1.506 . S
C461 C83 1.600 . S
C476 C97 1.523 . S
C488 C27 1.594 . S
C503 C41 1.521 . S
C515 C111 1.530 . S
C530 C55 1.498 . S
C542 C69 1.544 . S
