# Generated by pormake.
# Topology qtz-x, (6)-cn, num edge types: 1
# Building blocks:
#     Node 0, Type 0, BuildingBlock: JUFBIX_clean_sbu_0, # of connection points: 6
#     Node 1, Type 0, BuildingBlock: JUFBIX_clean_sbu_0, # of connection points: 6
#     Node 2, Type 0, BuildingBlock: JUFBIX_clean_sbu_0, # of connection points: 6
#     Edge 3, Type (0, 0), BuildingBlock: FUNLAD_clean_linker_0, # of connection points: 2
#     Edge 4, Type (0, 0), BuildingBlock: FUNLAD_clean_linker_0, # of connection points: 2
#     Edge 5, Type (0, 0), BuildingBlock: FUNLAD_clean_linker_0, # of connection points: 2
#     Edge 6, Type (0, 0), BuildingBlock: FUNLAD_clean_linker_0, # of connection points: 2
#     Edge 7, Type (0, 0), BuildingBlock: FUNLAD_clean_linker_0, # of connection points: 2
#     Edge 8, Type (0, 0), BuildingBlock: FUNLAD_clean_linker_0, # of connection points: 2
#     Edge 9, Type (0, 0), BuildingBlock: FUNLAD_clean_linker_0, # of connection points: 2
#     Edge 10, Type (0, 0), BuildingBlock: FUNLAD_clean_linker_0, # of connection points: 2
#     Edge 11, Type (0, 0), BuildingBlock: FUNLAD_clean_linker_0, # of connection points: 2
# Relax obj value: 0.455
# Max RMSD: 0.290
# Mean RMSD: 0.290
data_MOF--net-qtz-x--node1-JUFBIX_clean_sbu_0--edge1-FUNLAD_clean_linker_0
_symmetry_space_group_name_H-M    P1
_symmetry_Int_Tables_number       1
_symmetry_cell_setting            triclinic
loop_
_symmetry_equiv_pos_as_xyz
'x, y, z'
_cell_length_a     17.509996
_cell_length_b     17.517073
_cell_length_c     49.09436
_cell_angle_alpha  90.217583
_cell_angle_beta   89.931178
_cell_angle_gamma 119.97261
loop_
_atom_site_label
_atom_site_type_symbol
_atom_site_fract_x
_atom_site_fract_y
_atom_site_fract_z
_atom_type_partial_charge
Co0 Co 0.08114 0.53276 0.15189 0.0
C1 C 0.01952 0.65071 0.15864 0.0
Co2 Co 0.94674 0.47289 0.16908 0.0
C3 C 0.21429 0.54881 0.11509 0.0
C4 C 0.26301 0.66314 0.14054 0.0
N5 N 0.19204 0.58282 0.13631 0.0
N6 N 0.29556 0.6049 0.10551 0.0
C7 C 0.32672 0.67713 0.12149 0.0
H8 H 0.16931 0.48602 0.10574 0.0
H9 H 0.26659 0.70992 0.15566 0.0
C10 C 1.00777 0.35467 0.16239 0.0
N11 N 0.83321 0.42012 0.1835 0.0
C12 C 0.80886 0.42528 0.20921 0.0
C13 C 0.75769 0.36042 0.17113 0.0
N14 N 0.72198 0.37033 0.2135 0.0
C15 C 0.68947 0.32991 0.18945 0.0
C16 C 0.94754 0.46611 0.11312 0.0
O17 O 0.07681 0.42237 0.15382 0.0
O18 O 0.94234 0.36215 0.16997 0.0
O19 O 0.89886 0.4482 0.13388 0.0
O20 O 0.03041 0.50361 0.11626 0.0
O21 O 0.95167 0.58354 0.16813 0.0
H22 H 0.75259 0.33668 0.15048 0.0
H23 H 0.85489 0.46422 0.22504 0.0
O24 O 0.08396 0.64281 0.15016 0.0
O25 O 0.1312 0.56146 0.18766 0.0
O26 O 0.99715 0.49905 0.20435 0.0
C27 C 0.07999 0.53923 0.20817 0.0
H28 H 0.38987 0.73663 0.11911 0.0
H29 H 0.62209 0.2789 0.18565 0.0
Co30 Co 0.55639 0.98376 0.48376 0.0
C31 C 0.73657 0.04706 0.49059 0.0
Co32 Co 0.63044 0.11829 0.5012 0.0
C33 C 0.44906 0.85169 0.44475 0.0
C34 C 0.50494 0.80169 0.47342 0.0
N35 N 0.49792 0.87315 0.46769 0.0
N36 N 0.42678 0.77056 0.43549 0.0
C37 C 0.46151 0.73857 0.45359 0.0
H38 H 0.43512 0.89722 0.43402 0.0
H39 H 0.54296 0.79754 0.49011 0.0
C40 C 0.4505 0.05541 0.49441 0.0
N41 N 0.68944 0.2314 0.51638 0.0
C42 C 0.71202 0.25363 0.5427 0.0
C43 C 0.70917 0.30815 0.50417 0.0
N44 N 0.74306 0.34011 0.54749 0.0
C45 C 0.74194 0.3748 0.52319 0.0
C46 C 0.62288 0.11865 0.44541 0.0
O47 O 0.44958 0.9867 0.48549 0.0
O48 O 0.52311 0.12077 0.50225 0.0
O49 O 0.65351 0.16751 0.46621 0.0
O50 O 0.57888 0.03577 0.44847 0.0
O51 O 0.73704 0.11499 0.50008 0.0
H52 H 0.69628 0.31524 0.48308 0.0
H53 H 0.70033 0.20647 0.55854 0.0
O54 O 0.66434 0.98233 0.48221 0.0
O55 O 0.53382 0.93257 0.51927 0.0
O56 O 0.60589 0.06634 0.53618 0.0
C57 C 0.5627 0.98359 0.53986 0.0
H58 H 0.45835 0.67538 0.45213 0.0
H59 H 0.75946 0.44255 0.51961 0.0
Co60 Co 0.50376 0.51236 0.81673 0.0
C61 C 0.3852 0.33425 0.82601 0.0
Co62 Co 0.56387 0.43943 0.83492 0.0
C63 C 0.48122 0.61896 0.77751 0.0
C64 C 0.37369 0.56432 0.80566 0.0
N65 N 0.45222 0.57056 0.80041 0.0
N66 N 0.42344 0.64178 0.76779 0.0
C67 C 0.3556 0.6078 0.78552 0.0
H68 H 0.54111 0.63206 0.76712 0.0
H69 H 0.33048 0.52684 0.82221 0.0
C70 C 0.68268 0.61729 0.82569 0.0
N71 N 0.6179 0.38079 0.85015 0.0
C72 C 0.61914 0.35972 0.8765 0.0
C73 C 0.67294 0.35881 0.83753 0.0
N74 N 0.67343 0.327 0.88083 0.0
C75 C 0.70693 0.32581 0.85626 0.0
C76 C 0.56645 0.43901 0.7788 0.0
O77 O 0.61473 0.61823 0.81704 0.0
O78 O 0.67486 0.54536 0.83432 0.0
O79 O 0.58553 0.4105 0.79984 0.0
O80 O 0.52925 0.48474 0.78157 0.0
O81 O 0.45275 0.334 0.83543 0.0
H82 H 0.69125 0.36985 0.81628 0.0
H83 H 0.5853 0.37317 0.8926 0.0
O84 O 0.39332 0.40555 0.81662 0.0
O85 O 0.47902 0.54022 0.85198 0.0
O86 O 0.54103 0.47007 0.86998 0.0
C87 C 0.50251 0.51478 0.87298 0.0
H88 H 0.29597 0.61152 0.78362 0.0
H89 H 0.75534 0.30597 0.85226 0.0
C90 C 0.95189 0.74589 0.16637 0.0
C91 C 0.0234 0.73709 0.15742 0.0
C92 C 0.9554 0.82734 0.16513 0.0
C93 C 0.03099 0.90221 0.15506 0.0
C94 C 0.10194 0.89296 0.14586 0.0
C95 C 0.09844 0.81155 0.1471 0.0
C96 C 0.03777 0.99024 0.15301 0.0
C97 C 0.98874 0.01483 0.16788 0.0
C98 C 0.99565 0.1029 0.16584 0.0
C99 C 0.92444 0.11209 0.1748 0.0
C100 C 0.92813 0.19358 0.17358 0.0
C101 C 1.00365 0.26819 0.16357 0.0
H102 H 0.12927 0.1748 0.14975 0.0
C103 C 0.0754 0.25944 0.15485 0.0
C104 C 0.07168 0.17788 0.15604 0.0
H105 H 0.13488 0.31578 0.14722 0.0
H106 H 0.89273 0.68965 0.17419 0.0
H107 H 0.89796 0.83041 0.17161 0.0
H108 H 0.16071 0.94914 0.13779 0.0
H109 H 0.15463 0.80709 0.13994 0.0
H110 H 0.0861 0.03645 0.1388 0.0
H111 H 0.94035 0.96866 0.18208 0.0
H112 H 0.86534 0.0558 0.18265 0.0
H113 H 0.87176 0.19803 0.18057 0.0
C114 C 0.28784 0.98827 0.48665 0.0
C115 C 0.36814 0.05955 0.49568 0.0
C116 C 0.21011 0.9923 0.48787 0.0
C117 C 0.21111 0.06814 0.49802 0.0
C118 C 0.29127 0.1388 0.50732 0.0
C119 C 0.36893 0.13482 0.50607 0.0
C120 C 0.13013 0.07544 0.50006 0.0
C121 C 0.05724 0.02754 0.48483 0.0
C122 C 0.97621 0.03476 0.48688 0.0
C123 C 0.89615 0.96419 0.47749 0.0
C124 C 0.81841 0.96804 0.47877 0.0
C125 C 0.81903 0.04308 0.48929 0.0
H126 H 0.03755 0.16755 0.50377 0.0
C127 C 0.89925 0.11429 0.4984 0.0
C128 C 0.97705 0.1104 0.49714 0.0
H129 H 0.90218 0.17342 0.50639 0.0
H130 H 0.2848 0.929 0.47874 0.0
H131 H 0.14954 0.9351 0.48132 0.0
H132 H 0.294 0.19772 0.51545 0.0
H133 H 0.42958 0.19082 0.5133 0.0
H134 H 0.13189 0.12322 0.51454 0.0
H135 H 0.05553 0.97979 0.47034 0.0
H136 H 0.89353 0.90542 0.46927 0.0
H137 H 0.75783 0.91208 0.47147 0.0
C138 C 0.77966 0.77825 0.81571 0.0
C139 C 0.77001 0.69879 0.82568 0.0
C140 C 0.86221 0.85511 0.8157 0.0
C141 C 0.93706 0.85431 0.82586 0.0
C142 C 0.92734 0.77455 0.83548 0.0
C143 C 0.84487 0.69779 0.83551 0.0
C144 C 0.02661 0.93401 0.82607 0.0
C145 C 0.04141 0.01732 0.82542 0.0
C146 C 0.13095 0.09701 0.82565 0.0
C147 C 0.14074 0.17667 0.8159 0.0
C148 C 0.22318 0.25347 0.81593 0.0
C149 C 0.29793 0.25263 0.82594 0.0
H150 H 0.20094 0.03733 0.84451 0.0
C151 C 0.2882 0.17325 0.83602 0.0
C152 C 0.20568 0.09633 0.83596 0.0
H153 H 0.3443 0.1705 0.84412 0.0
H154 H 0.72349 0.78109 0.80772 0.0
H155 H 0.86685 0.91415 0.80723 0.0
H156 H 0.98378 0.77163 0.8432 0.0
H157 H 0.83992 0.63763 0.84324 0.0
H158 H 0.08204 0.92269 0.82714 0.0
H159 H 0.98601 0.02867 0.82434 0.0
H160 H 0.08438 0.17949 0.80806 0.0
H161 H 0.22816 0.31356 0.80812 0.0
C162 C 0.51143 0.50813 0.92379 0.0
C163 C 0.48557 0.53681 0.90068 0.0
C164 C 0.49509 0.52816 0.94997 0.0
C165 C 0.45196 0.57704 0.95366 0.0
C166 C 0.42773 0.60716 0.93057 0.0
C167 C 0.4439 0.58696 0.90436 0.0
C168 C 0.43219 0.59873 0.98117 0.0
C169 C 0.42094 0.54908 0.00337 0.0
C170 C 0.39426 0.56671 0.03036 0.0
C171 C 0.34545 0.49561 0.04794 0.0
C172 C 0.31509 0.50857 0.07288 0.0
C173 C 0.33409 0.59325 0.08102 0.0
H174 H 0.45594 0.70887 0.02627 0.0
C175 C 0.38643 0.66516 0.06403 0.0
C176 C 0.41613 0.65209 0.03891 0.0
H177 H 0.40199 0.73114 0.06972 0.0
H178 H 0.54459 0.47023 0.92172 0.0
H179 H 0.51749 0.50615 0.96718 0.0
H180 H 0.39511 0.64558 0.9328 0.0
H181 H 0.42357 0.61053 0.88701 0.0
H182 H 0.4204 0.65387 0.98268 0.0
H183 H 0.42415 0.489 0.00135 0.0
H184 H 0.32869 0.42935 0.04205 0.0
H185 H 0.27596 0.45214 0.08574 0.0
C186 C 0.58608 0.10728 0.39584 0.0
C187 C 0.6343 0.15859 0.41828 0.0
C188 C 0.59341 0.14654 0.37055 0.0
C189 C 0.64922 0.23794 0.3673 0.0
C190 C 0.69879 0.28863 0.38958 0.0
C191 C 0.691 0.24957 0.41488 0.0
C192 C 0.66199 0.28163 0.34062 0.0
C193 C 0.60054 0.25127 0.32084 0.0
C194 C 0.62067 0.28802 0.29298 0.0
C195 C 0.58193 0.23063 0.27085 0.0
C196 C 0.61122 0.25909 0.2444 0.0
C197 C 0.67932 0.34588 0.23964 0.0
H198 H 0.71102 0.42393 0.30457 0.0
C199 C 0.71188 0.40549 0.26157 0.0
C200 C 0.68276 0.37694 0.28802 0.0
H201 H 0.76235 0.47343 0.25841 0.0
H202 H 0.54208 0.03693 0.39785 0.0
H203 H 0.55664 0.10477 0.35357 0.0
H204 H 0.74326 0.35887 0.38747 0.0
H205 H 0.7294 0.29083 0.43177 0.0
H206 H 0.72584 0.33971 0.33706 0.0
H207 H 0.53685 0.19289 0.32426 0.0
H208 H 0.53306 0.1621 0.27416 0.0
H209 H 0.58447 0.21135 0.22802 0.0
C210 C 0.51132 0.73942 0.73021 0.0
C211 C 0.42875 0.68205 0.74178 0.0
C212 C 0.51751 0.77205 0.70392 0.0
C213 C 0.44098 0.74862 0.68858 0.0
C214 C 0.35837 0.69216 0.70026 0.0
C215 C 0.3522 0.65964 0.72665 0.0
C216 C 0.44552 0.77848 0.65999 0.0
C217 C 0.51384 0.85368 0.65047 0.0
C218 C 0.52152 0.8842 0.62189 0.0
C219 C 0.57521 0.97436 0.61661 0.0
C220 C 0.58764 1.0062 0.59004 0.0
C221 C 0.54751 0.94843 0.56795 0.0
H222 H 0.44102 0.75566 0.60304 0.0
C223 C 0.49395 0.85787 0.57312 0.0
C224 C 0.48097 0.82595 0.59985 0.0
H225 H 0.46248 0.81162 0.55653 0.0
H226 H 0.57147 0.75817 0.74137 0.0
H227 H 0.58256 0.81331 0.69547 0.0
H228 H 0.29841 0.67243 0.68883 0.0
H229 H 0.28765 0.61451 0.73479 0.0
H230 H 0.38957 0.73878 0.64681 0.0
H231 H 0.56541 0.89738 0.66445 0.0
H232 H 0.60784 0.02061 0.63313 0.0
H233 H 0.62957 0.07629 0.58689 0.0
C234 C 0.64696 0.29166 0.92968 0.0
C235 C 0.70245 0.3139 0.90689 0.0
C236 C 0.67938 0.29267 0.95569 0.0
C237 C 0.76833 0.31676 0.95938 0.0
C238 C 0.82175 0.33205 0.93645 0.0
C239 C 0.78931 0.33101 0.91043 0.0
C240 C 0.8088 0.33185 0.98677 0.0
C241 C 0.78159 0.36222 0.00765 0.0
C242 C 0.82625 0.38738 0.03442 0.0
C243 C 0.7769 0.38492 0.05722 0.0
C244 C 0.81661 0.41086 0.08272 0.0
C245 C 0.90705 0.44109 0.08588 0.0
H246 H 0.95786 0.42397 0.02016 0.0
C247 C 0.9571 0.44504 0.06301 0.0
C248 C 0.91707 0.41835 0.03746 0.0
H249 H 0.02701 0.46837 0.06485 0.0
H250 H 0.57906 0.27572 0.92747 0.0
H251 H 0.6351 0.2764 0.97285 0.0
H252 H 0.89016 0.34959 0.93876 0.0
H253 H 0.83391 0.34853 0.89332 0.0
H254 H 0.86624 0.32414 0.98909 0.0
H255 H 0.72457 0.37058 0.00515 0.0
H256 H 0.70714 0.36243 0.05533 0.0
H257 H 0.77629 0.40747 0.09993 0.0
C258 C 0.20615 0.60121 0.24152 0.0
C259 C 0.11522 0.56115 0.2363 0.0
C260 C 0.23841 0.62357 0.26819 0.0
C261 C 0.18017 0.60632 0.29015 0.0
C262 C 0.08956 0.56643 0.28484 0.0
C263 C 0.05736 0.54355 0.25832 0.0
C264 C 0.21122 0.6332 0.31861 0.0
C265 C 0.28751 0.64303 0.32836 0.0
C266 C 0.31817 0.67206 0.35676 0.0
C267 C 0.37595 0.64844 0.36889 0.0
C268 C 0.40921 0.67807 0.39509 0.0
C269 C 0.38634 0.73313 0.40959 0.0
H270 H 0.25192 0.74797 0.36259 0.0
C271 C 0.32788 0.7561 0.39754 0.0
C272 C 0.29432 0.7262 0.37144 0.0
H273 H 0.30883 0.7982 0.4082 0.0
H274 H 0.25248 0.61609 0.22499 0.0
H275 H 0.30895 0.65637 0.27138 0.0
H276 H 0.04327 0.55298 0.30131 0.0
H277 H 0.98694 0.51301 0.25511 0.0
H278 H 0.16722 0.64166 0.3323 0.0
H279 H 0.32762 0.62631 0.31552 0.0
H280 H 0.39605 0.60751 0.35797 0.0
H281 H 0.45519 0.66029 0.40358 0.0
C282 C 0.58932 0.47063 0.72894 0.0
C283 C 0.59295 0.42416 0.75168 0.0
C284 C 0.62056 0.46126 0.70369 0.0
C285 C 0.65601 0.40513 0.70076 0.0
C286 C 0.6571 0.35681 0.72331 0.0
C287 C 0.62652 0.36665 0.74858 0.0
C288 C 0.68806 0.39177 0.67426 0.0
C289 C 0.72047 0.45309 0.65452 0.0
C290 C 0.74173 0.43396 0.62704 0.0
C291 C 0.72738 0.4739 0.60445 0.0
C292 C 0.73312 0.44705 0.5781 0.0
C293 C 0.75415 0.38021 0.57391 0.0
H294 H 0.78599 0.34369 0.63978 0.0
C295 C 0.77634 0.34612 0.59648 0.0
C296 C 0.77037 0.37279 0.62281 0.0
H297 H 0.79532 0.29647 0.59381 0.0
H298 H 0.56345 0.51517 0.73069 0.0
H299 H 0.61554 0.49706 0.68652 0.0
H300 H 0.68278 0.31211 0.72145 0.0
H301 H 0.62972 0.32954 0.7657 0.0
H302 H 0.6832 0.32816 0.67093 0.0
H303 H 0.72495 0.51657 0.65773 0.0
H304 H 0.70649 0.52216 0.60721 0.0
H305 H 0.71562 0.47477 0.5612 0.0
loop_
_geom_bond_atom_site_label_1
_geom_bond_atom_site_label_2
_geom_bond_distance
_geom_bond_site_symmetry_2
_ccdc_geom_bond_type
Co0 N5 2.057 . S
Co0 O17 2.021 . S
Co0 O20 2.062 1_455 S
Co0 O24 2.117 . S
Co0 O25 2.020 . S
C1 O21 1.259 . S
C1 O24 1.258 1_655 S
Co2 N11 2.057 . S
Co2 O18 2.117 . S
Co2 O19 2.020 . S
Co2 O21 2.021 . S
Co2 O26 2.062 1_655 S
C3 N5 1.316 . S
C3 N6 1.347 . S
C3 H8 0.931 . S
C4 N5 1.375 . S
C4 C7 1.350 . S
C4 H9 0.930 . S
N5 Co0 2.057 . S
N5 C3 1.316 . S
N5 C4 1.375 . S
N6 C3 1.347 . S
N6 C7 1.373 . S
C7 C4 1.350 . S
C7 N6 1.373 . S
C7 H28 0.931 . S
H8 C3 0.931 . S
H9 C4 0.930 . S
C10 O17 1.259 . S
C10 O18 1.258 1_455 S
N11 Co2 2.057 . S
N11 C12 1.316 . S
N11 C13 1.375 . S
C12 N11 1.316 . S
C12 N14 1.347 . S
C12 H23 0.931 . S
C13 N11 1.375 . S
C13 C15 1.350 . S
C13 H22 0.930 . S
N14 C12 1.347 . S
N14 C15 1.373 . S
C15 C13 1.350 . S
C15 N14 1.373 . S
C15 H29 0.931 . S
C16 O19 1.256 . S
C16 O20 1.255 . S
O17 Co0 2.021 . S
O17 C10 1.259 . S
O18 Co2 2.117 . S
O18 C10 1.258 1_655 S
O19 Co2 2.020 . S
O19 C16 1.256 . S
O20 Co0 2.062 1_655 S
O20 C16 1.255 . S
O21 C1 1.259 . S
O21 Co2 2.021 . S
H22 C13 0.930 . S
H23 C12 0.931 . S
O24 Co0 2.117 . S
O24 C1 1.258 1_455 S
O25 Co0 2.020 . S
O25 C27 1.256 . S
O26 Co2 2.062 1_455 S
O26 C27 1.255 . S
C27 O25 1.256 . S
C27 O26 1.255 . S
H28 C7 0.931 . S
H29 C15 0.931 . S
Co30 N35 2.057 . S
Co30 O47 2.021 . S
Co30 O50 2.062 1_565 S
Co30 O54 2.117 . S
Co30 O55 2.020 . S
C31 O51 1.259 . S
C31 O54 1.258 1_545 S
Co32 N41 2.057 . S
Co32 O48 2.117 . S
Co32 O49 2.020 . S
Co32 O51 2.021 . S
Co32 O56 2.062 1_545 S
C33 N35 1.316 . S
C33 N36 1.347 . S
C33 H38 0.931 . S
C34 N35 1.375 . S
C34 C37 1.350 . S
C34 H39 0.930 . S
N35 Co30 2.057 . S
N35 C33 1.316 . S
N35 C34 1.375 . S
N36 C33 1.347 . S
N36 C37 1.373 . S
C37 C34 1.350 . S
C37 N36 1.373 . S
C37 H58 0.931 . S
H38 C33 0.931 . S
H39 C34 0.930 . S
C40 O47 1.259 1_545 S
C40 O48 1.258 . S
N41 Co32 2.057 . S
N41 C42 1.316 . S
N41 C43 1.375 . S
C42 N41 1.316 . S
C42 N44 1.347 . S
C42 H53 0.931 . S
C43 N41 1.375 . S
C43 C45 1.350 . S
C43 H52 0.930 . S
N44 C42 1.347 . S
N44 C45 1.373 . S
C45 C43 1.350 . S
C45 N44 1.373 . S
C45 H59 0.931 . S
C46 O49 1.256 . S
C46 O50 1.255 . S
O47 Co30 2.021 . S
O47 C40 1.259 1_565 S
O48 Co32 2.117 . S
O48 C40 1.258 . S
O49 Co32 2.020 . S
O49 C46 1.256 . S
O50 Co30 2.062 1_545 S
O50 C46 1.255 . S
O51 C31 1.259 . S
O51 Co32 2.021 . S
H52 C43 0.930 . S
H53 C42 0.931 . S
O54 Co30 2.117 . S
O54 C31 1.258 1_565 S
O55 Co30 2.020 . S
O55 C57 1.256 . S
O56 Co32 2.062 1_565 S
O56 C57 1.255 . S
C57 O55 1.256 . S
C57 O56 1.255 . S
H58 C37 0.931 . S
H59 C45 0.931 . S
Co60 N65 2.057 . S
Co60 O77 2.021 . S
Co60 O80 2.062 . S
Co60 O84 2.117 . S
Co60 O85 2.020 . S
C61 O81 1.259 . S
C61 O84 1.258 . S
Co62 N71 2.057 . S
Co62 O78 2.117 . S
Co62 O79 2.020 . S
Co62 O81 2.021 . S
Co62 O86 2.062 . S
C63 N65 1.316 . S
C63 N66 1.347 . S
C63 H68 0.931 . S
C64 N65 1.375 . S
C64 C67 1.350 . S
C64 H69 0.930 . S
N65 Co60 2.057 . S
N65 C63 1.316 . S
N65 C64 1.375 . S
N66 C63 1.347 . S
N66 C67 1.373 . S
C67 C64 1.350 . S
C67 N66 1.373 . S
C67 H88 0.931 . S
H68 C63 0.931 . S
H69 C64 0.930 . S
C70 O77 1.259 . S
C70 O78 1.258 . S
N71 Co62 2.057 . S
N71 C72 1.316 . S
N71 C73 1.375 . S
C72 N71 1.316 . S
C72 N74 1.347 . S
C72 H83 0.931 . S
C73 N71 1.375 . S
C73 C75 1.350 . S
C73 H82 0.930 . S
N74 C72 1.347 . S
N74 C75 1.373 . S
C75 C73 1.350 . S
C75 N74 1.373 . S
C75 H89 0.931 . S
C76 O79 1.256 . S
C76 O80 1.255 . S
O77 Co60 2.021 . S
O77 C70 1.259 . S
O78 Co62 2.117 . S
O78 C70 1.258 . S
O79 Co62 2.020 . S
O79 C76 1.256 . S
O80 Co60 2.062 . S
O80 C76 1.255 . S
O81 C61 1.259 . S
O81 Co62 2.021 . S
H82 C73 0.930 . S
H83 C72 0.931 . S
O84 Co60 2.117 . S
O84 C61 1.258 . S
O85 Co60 2.020 . S
O85 C87 1.256 . S
O86 Co62 2.062 . S
O86 C87 1.255 . S
C87 O85 1.256 . S
C87 O86 1.255 . S
H88 C67 0.931 . S
H89 C75 0.931 . S
C90 C91 1.386 1_655 S
C90 C92 1.383 . S
C90 H106 0.951 . S
C91 C90 1.386 1_455 S
C91 C95 1.383 . S
C92 C90 1.383 . S
C92 C93 1.402 1_655 S
C92 H107 0.951 . S
C93 C92 1.402 1_455 S
C93 C94 1.375 . S
C93 C96 1.481 . S
C94 C93 1.375 . S
C94 C95 1.367 . S
C94 H108 0.951 . S
C95 C91 1.383 . S
C95 C94 1.367 . S
C95 H109 0.950 . S
C96 C93 1.481 . S
C96 C97 1.297 1_565 S
C96 H110 0.950 1_565 S
C97 C96 1.297 1_545 S
C97 C98 1.479 . S
C97 H111 0.950 1_445 S
C98 C97 1.479 . S
C98 C99 1.375 1_455 S
C98 C104 1.404 . S
C99 C98 1.375 1_655 S
C99 C100 1.369 . S
C99 H112 0.950 . S
C100 C99 1.369 . S
C100 C101 1.392 1_655 S
C100 H113 0.951 . S
C101 C100 1.392 1_455 S
C101 C103 1.384 . S
H102 C104 0.949 . S
C103 C101 1.384 . S
C103 C104 1.385 . S
C103 H105 0.950 . S
C104 C98 1.404 . S
C104 H102 0.949 . S
C104 C103 1.385 . S
H105 C103 0.950 . S
H106 C90 0.951 . S
H107 C92 0.951 . S
H108 C94 0.951 . S
H109 C95 0.950 . S
H110 C96 0.950 1_545 S
H111 C97 0.950 1_665 S
H112 C99 0.950 . S
H113 C100 0.951 . S
C114 C115 1.386 . S
C114 C116 1.383 1_545 S
C114 H130 0.951 1_545 S
C115 C114 1.386 . S
C115 C119 1.383 . S
C116 C114 1.383 1_565 S
C116 C117 1.402 1_565 S
C116 H131 0.951 . S
C117 C116 1.402 1_545 S
C117 C118 1.375 . S
C117 C120 1.481 . S
C118 C117 1.375 . S
C118 C119 1.367 . S
C118 H132 0.951 . S
C119 C115 1.383 . S
C119 C118 1.367 . S
C119 H133 0.950 . S
C120 C117 1.481 . S
C120 C121 1.297 1_445 S
C120 H134 0.950 . S
C121 C120 1.297 1_665 S
C121 C122 1.479 . S
C121 H135 0.951 . S
C122 C121 1.479 . S
C122 C123 1.375 . S
C122 C128 1.404 1_565 S
C123 C122 1.375 . S
C123 C124 1.369 . S
C123 H136 0.950 . S
C124 C123 1.369 . S
C124 C125 1.392 1_565 S
C124 H137 0.951 . S
C125 C124 1.392 1_545 S
C125 C127 1.384 . S
H126 C128 0.949 . S
C127 C125 1.384 . S
C127 C128 1.385 . S
C127 H129 0.950 . S
C128 C122 1.404 1_545 S
C128 H126 0.949 . S
C128 C127 1.385 . S
H129 C127 0.950 . S
H130 C114 0.951 1_565 S
H131 C116 0.951 . S
H132 C118 0.951 . S
H133 C119 0.950 . S
H134 C120 0.950 . S
H135 C121 0.951 . S
H136 C123 0.950 . S
H137 C124 0.951 . S
C138 C139 1.386 . S
C138 C140 1.383 . S
C138 H154 0.951 . S
C139 C138 1.386 . S
C139 C143 1.383 . S
C140 C138 1.383 . S
C140 C141 1.402 . S
C140 H155 0.951 . S
C141 C140 1.402 . S
C141 C142 1.375 . S
C141 C144 1.481 1_655 S
C142 C141 1.375 . S
C142 C143 1.367 . S
C142 H156 0.951 . S
C143 C139 1.383 . S
C143 C142 1.367 . S
C143 H157 0.950 . S
C144 C141 1.481 1_455 S
C144 C145 1.297 1_565 S
C144 H158 0.950 . S
C145 C144 1.297 1_545 S
C145 C146 1.479 . S
C145 H159 0.950 . S
C146 C145 1.479 . S
C146 C147 1.375 . S
C146 C152 1.404 . S
C147 C146 1.375 . S
C147 C148 1.369 . S
C147 H160 0.950 . S
C148 C147 1.369 . S
C148 C149 1.392 . S
C148 H161 0.951 . S
C149 C148 1.392 . S
C149 C151 1.384 . S
H150 C152 0.949 . S
C151 C149 1.384 . S
C151 C152 1.385 . S
C151 H153 0.950 . S
C152 C146 1.404 . S
C152 H150 0.949 . S
C152 C151 1.385 . S
H153 C151 0.950 . S
H154 C138 0.951 . S
H155 C140 0.951 . S
H156 C142 0.951 . S
H157 C143 0.950 . S
H158 C144 0.950 . S
H159 C145 0.950 . S
H160 C147 0.950 . S
H161 C148 0.951 . S
C162 C163 1.386 . S
C162 C164 1.383 . S
C162 H178 0.951 . S
C163 C162 1.386 . S
C163 C167 1.383 . S
C164 C162 1.383 . S
C164 C165 1.402 . S
C164 H179 0.951 . S
C165 C164 1.402 . S
C165 C166 1.375 . S
C165 C168 1.481 . S
C166 C165 1.375 . S
C166 C167 1.367 . S
C166 H180 0.951 . S
C167 C163 1.383 . S
C167 C166 1.367 . S
C167 H181 0.950 . S
C168 C165 1.481 . S
C168 C169 1.297 . S
C168 H182 0.950 . S
C169 C168 1.297 . S
C169 C170 1.479 1_556 S
C169 H183 0.950 . S
C170 C169 1.479 1_554 S
C170 C171 1.375 . S
C170 C176 1.404 . S
C171 C170 1.375 . S
C171 C172 1.369 . S
C171 H184 0.950 . S
C172 C171 1.369 . S
C172 C173 1.392 . S
C172 H185 0.951 . S
C173 C172 1.392 . S
C173 C175 1.384 . S
H174 C176 0.949 . S
C175 C173 1.384 . S
C175 C176 1.385 . S
C175 H177 0.950 . S
C176 C170 1.404 . S
C176 H174 0.949 . S
C176 C175 1.385 . S
H177 C175 0.950 . S
H178 C162 0.951 . S
H179 C164 0.951 . S
H180 C166 0.951 . S
H181 C167 0.950 . S
H182 C168 0.950 . S
H183 C169 0.950 . S
H184 C171 0.950 . S
H185 C172 0.951 . S
C186 C187 1.386 . S
C186 C188 1.383 . S
C186 H202 0.951 . S
C187 C186 1.386 . S
C187 C191 1.383 . S
C188 C186 1.383 . S
C188 C189 1.402 . S
C188 H203 0.951 . S
C189 C188 1.402 . S
C189 C190 1.375 . S
C189 C192 1.481 . S
C190 C189 1.375 . S
C190 C191 1.367 . S
C190 H204 0.951 . S
C191 C187 1.383 . S
C191 C190 1.367 . S
C191 H205 0.950 . S
C192 C189 1.481 . S
C192 C193 1.297 . S
C192 H206 0.950 . S
C193 C192 1.297 . S
C193 C194 1.479 . S
C193 H207 0.950 . S
C194 C193 1.479 . S
C194 C195 1.375 . S
C194 C200 1.404 . S
C195 C194 1.375 . S
C195 C196 1.369 . S
C195 H208 0.950 . S
C196 C195 1.369 . S
C196 C197 1.392 . S
C196 H209 0.951 . S
C197 C196 1.392 . S
C197 C199 1.384 . S
H198 C200 0.949 . S
C199 C197 1.384 . S
C199 C200 1.385 . S
C199 H201 0.950 . S
C200 C194 1.404 . S
C200 H198 0.949 . S
C200 C199 1.385 . S
H201 C199 0.950 . S
H202 C186 0.951 . S
H203 C188 0.951 . S
H204 C190 0.951 . S
H205 C191 0.950 . S
H206 C192 0.950 . S
H207 C193 0.950 . S
H208 C195 0.950 . S
H209 C196 0.951 . S
C210 C211 1.386 . S
C210 C212 1.383 . S
C210 H226 0.951 . S
C211 C210 1.386 . S
C211 C215 1.383 . S
C212 C210 1.383 . S
C212 C213 1.402 . S
C212 H227 0.951 . S
C213 C212 1.402 . S
C213 C214 1.375 . S
C213 C216 1.481 . S
C214 C213 1.375 . S
C214 C215 1.367 . S
C214 H228 0.951 . S
C215 C211 1.383 . S
C215 C214 1.367 . S
C215 H229 0.950 . S
C216 C213 1.481 . S
C216 C217 1.297 . S
C216 H230 0.950 . S
C217 C216 1.297 . S
C217 C218 1.479 . S
C217 H231 0.950 . S
C218 C217 1.479 . S
C218 C219 1.375 . S
C218 C224 1.404 . S
C219 C218 1.375 . S
C219 C220 1.369 . S
C219 H232 0.950 . S
C220 C219 1.369 . S
C220 C221 1.392 . S
C220 H233 0.951 . S
C221 C220 1.392 . S
C221 C223 1.384 . S
H222 C224 0.949 . S
C223 C221 1.384 . S
C223 C224 1.385 . S
C223 H225 0.950 . S
C224 C218 1.404 . S
C224 H222 0.949 . S
C224 C223 1.385 . S
H225 C223 0.950 . S
H226 C210 0.951 . S
H227 C212 0.951 . S
H228 C214 0.951 . S
H229 C215 0.950 . S
H230 C216 0.950 . S
H231 C217 0.950 . S
H232 C219 0.950 . S
H233 C220 0.951 . S
C234 C235 1.386 . S
C234 C236 1.383 . S
C234 H250 0.951 . S
C235 C234 1.386 . S
C235 C239 1.383 . S
C236 C234 1.383 . S
C236 C237 1.402 . S
C236 H251 0.951 . S
C237 C236 1.402 . S
C237 C238 1.375 . S
C237 C240 1.481 1_556 S
C238 C237 1.375 . S
C238 C239 1.367 . S
C238 H252 0.951 . S
C239 C235 1.383 . S
C239 C238 1.367 . S
C239 H253 0.950 . S
C240 C237 1.481 1_554 S
C240 C241 1.297 . S
C240 H254 0.950 . S
C241 C240 1.297 . S
C241 C242 1.479 . S
C241 H255 0.950 . S
C242 C241 1.479 . S
C242 C243 1.375 . S
C242 C248 1.404 . S
C243 C242 1.375 . S
C243 C244 1.369 . S
C243 H256 0.950 . S
C244 C243 1.369 . S
C244 C245 1.392 . S
C244 H257 0.951 . S
C245 C244 1.392 . S
C245 C247 1.384 . S
H246 C248 0.949 . S
C247 C245 1.384 . S
C247 C248 1.385 . S
C247 H249 0.950 . S
C248 C242 1.404 . S
C248 H246 0.949 . S
C248 C247 1.385 . S
H249 C247 0.950 . S
H250 C234 0.951 . S
H251 C236 0.951 . S
H252 C238 0.951 . S
H253 C239 0.950 . S
H254 C240 0.950 . S
H255 C241 0.950 . S
H256 C243 0.950 . S
H257 C244 0.951 . S
C258 C259 1.386 . S
C258 C260 1.383 . S
C258 H274 0.951 . S
C259 C258 1.386 . S
C259 C263 1.383 . S
C260 C258 1.383 . S
C260 C261 1.402 . S
C260 H275 0.951 . S
C261 C260 1.402 . S
C261 C262 1.375 . S
C261 C264 1.481 . S
C262 C261 1.375 . S
C262 C263 1.367 . S
C262 H276 0.951 . S
C263 C259 1.383 . S
C263 C262 1.367 . S
C263 H277 0.950 . S
C264 C261 1.481 . S
C264 C265 1.297 . S
C264 H278 0.950 . S
C265 C264 1.297 . S
C265 C266 1.479 . S
C265 H279 0.950 . S
C266 C265 1.479 . S
C266 C267 1.375 . S
C266 C272 1.404 . S
C267 C266 1.375 . S
C267 C268 1.369 . S
C267 H280 0.950 . S
C268 C267 1.369 . S
C268 C269 1.392 . S
C268 H281 0.951 . S
C269 C268 1.392 . S
C269 C271 1.384 . S
H270 C272 0.949 . S
C271 C269 1.384 . S
C271 C272 1.385 . S
C271 H273 0.950 . S
C272 C266 1.404 . S
C272 H270 0.949 . S
C272 C271 1.385 . S
H273 C271 0.950 . S
H274 C258 0.951 . S
H275 C260 0.951 . S
H276 C262 0.951 . S
H277 C263 0.950 . S
H278 C264 0.950 . S
H279 C265 0.950 . S
H280 C267 0.950 . S
H281 C268 0.951 . S
C282 C283 1.386 . S
C282 C284 1.383 . S
C282 H298 0.951 . S
C283 C282 1.386 . S
C283 C287 1.383 . S
C284 C282 1.383 . S
C284 C285 1.402 . S
C284 H299 0.951 . S
C285 C284 1.402 . S
C285 C286 1.375 . S
C285 C288 1.481 . S
C286 C285 1.375 . S
C286 C287 1.367 . S
C286 H300 0.951 . S
C287 C283 1.383 . S
C287 C286 1.367 . S
C287 H301 0.950 . S
C288 C285 1.481 . S
C288 C289 1.297 . S
C288 H302 0.950 . S
C289 C288 1.297 . S
C289 C290 1.479 . S
C289 H303 0.950 . S
C290 C289 1.479 . S
C290 C291 1.375 . S
C290 C296 1.404 . S
C291 C290 1.375 . S
C291 C292 1.369 . S
C291 H304 0.950 . S
C292 C291 1.369 . S
C292 C293 1.392 . S
C292 H305 0.951 . S
C293 C292 1.392 . S
C293 C295 1.384 . S
H294 C296 0.949 . S
C295 C293 1.384 . S
C295 C296 1.385 . S
C295 H297 0.950 . S
C296 C290 1.404 . S
C296 H294 0.949 . S
C296 C295 1.385 . S
H297 C295 0.950 . S
H298 C282 0.951 . S
H299 C284 0.951 . S
H300 C286 0.951 . S
H301 C287 0.950 . S
H302 C288 0.950 . S
H303 C289 0.950 . S
H304 C291 0.950 . S
H305 C292 0.951 . S
C91 C1 1.704 1_455 S
C101 C10 1.680 . S
C115 C40 1.694 . S
C125 C31 1.700 . S
C139 C70 1.702 . S
C149 C61 1.689 . S
C163 C87 0.970 . S
C173 N6 0.988 . S
C187 C46 0.811 . S
C197 N14 0.866 . S
C211 N66 0.955 . S
C221 C57 0.977 . S
C235 N74 0.756 . S
C245 C16 0.777 . S
C259 C27 0.958 . S
C269 N36 0.940 . S
C283 C76 0.808 . S
C293 N44 0.880 . S
