# Generated by pormake.
# Topology ske, (6)-cn, num edge types: 1
# Building blocks:
#     Node 0, Type 0, BuildingBlock: PAMTUU_clean_sbu_0, # of connection points: 6
#     Node 1, Type 0, BuildingBlock: PAMTUU_clean_sbu_0, # of connection points: 6
#     Node 2, Type 0, BuildingBlock: PAMTUU_clean_sbu_0, # of connection points: 6
#     Node 3, Type 0, BuildingBlock: PAMTUU_clean_sbu_0, # of connection points: 6
#     Node 4, Type 0, BuildingBlock: PAMTUU_clean_sbu_0, # of connection points: 6
#     Node 5, Type 0, BuildingBlock: PAMTUU_clean_sbu_0, # of connection points: 6
#     Node 6, Type 0, BuildingBlock: PAMTUU_clean_sbu_0, # of connection points: 6
#     Node 7, Type 0, BuildingBlock: PAMTUU_clean_sbu_0, # of connection points: 6
#     Edge 8, Type (0, 0), BuildingBlock: CIFDUS_clean_linker_0, # of connection points: 2
#     Edge 9, Type (0, 0), BuildingBlock: CIFDUS_clean_linker_0, # of connection points: 2
#     Edge 10, Type (0, 0), BuildingBlock: CIFDUS_clean_linker_0, # of connection points: 2
#     Edge 11, Type (0, 0), BuildingBlock: CIFDUS_clean_linker_0, # of connection points: 2
#     Edge 12, Type (0, 0), BuildingBlock: CIFDUS_clean_linker_0, # of connection points: 2
#     Edge 13, Type (0, 0), BuildingBlock: CIFDUS_clean_linker_0, # of connection points: 2
#     Edge 14, Type (0, 0), BuildingBlock: CIFDUS_clean_linker_0, # of connection points: 2
#     Edge 15, Type (0, 0), BuildingBlock: CIFDUS_clean_linker_0, # of connection points: 2
#     Edge 16, Type (0, 0), BuildingBlock: CIFDUS_clean_linker_0, # of connection points: 2
#     Edge 17, Type (0, 0), BuildingBlock: CIFDUS_clean_linker_0, # of connection points: 2
#     Edge 18, Type (0, 0), BuildingBlock: CIFDUS_clean_linker_0, # of connection points: 2
#     Edge 19, Type (0, 0), BuildingBlock: CIFDUS_clean_linker_0, # of connection points: 2
#     Edge 20, Type (0, 0), BuildingBlock: CIFDUS_clean_linker_0, # of connection points: 2
#     Edge 21, Type (0, 0), BuildingBlock: CIFDUS_clean_linker_0, # of connection points: 2
#     Edge 22, Type (0, 0), BuildingBlock: CIFDUS_clean_linker_0, # of connection points: 2
#     Edge 23, Type (0, 0), BuildingBlock: CIFDUS_clean_linker_0, # of connection points: 2
#     Edge 24, Type (0, 0), BuildingBlock: CIFDUS_clean_linker_0, # of connection points: 2
#     Edge 25, Type (0, 0), BuildingBlock: CIFDUS_clean_linker_0, # of connection points: 2
#     Edge 26, Type (0, 0), BuildingBlock: CIFDUS_clean_linker_0, # of connection points: 2
#     Edge 27, Type (0, 0), BuildingBlock: CIFDUS_clean_linker_0, # of connection points: 2
#     Edge 28, Type (0, 0), BuildingBlock: CIFDUS_clean_linker_0, # of connection points: 2
#     Edge 29, Type (0, 0), BuildingBlock: CIFDUS_clean_linker_0, # of connection points: 2
#     Edge 30, Type (0, 0), BuildingBlock: CIFDUS_clean_linker_0, # of connection points: 2
#     Edge 31, Type (0, 0), BuildingBlock: CIFDUS_clean_linker_0, # of connection points: 2
# Relax obj value: 0.138
# Max RMSD: 0.174
# Mean RMSD: 0.167
data_MOF--net-ske--node1-PAMTUU_clean_sbu_0--edge1-CIFDUS_clean_linker_0
_symmetry_space_group_name_H-M    P1
_symmetry_Int_Tables_number       1
_symmetry_cell_setting            triclinic
loop_
_symmetry_equiv_pos_as_xyz
'x, y, z'
_cell_length_a     96.451258
_cell_length_b     26.306888
_cell_length_c     13.37377
_cell_angle_alpha  89.89568
_cell_angle_beta   90.006006
_cell_angle_gamma 98.612124
loop_
_atom_site_label
_atom_site_type_symbol
_atom_site_fract_x
_atom_site_fract_y
_atom_site_fract_z
_atom_type_partial_charge
Tb0 Tb 0.16312 0.25334 0.49509 0.0
Tb1 Tb 0.12814 0.24032 0.47812 0.0
C2 C 0.14694 0.34494 0.50848 0.0
C3 C 0.20223 0.25727 0.56212 0.0
C4 C 0.22828 0.24422 0.64976 0.0
C5 C 0.22526 0.29352 0.62564 0.0
C6 C 0.21246 0.29983 0.58196 0.0
C7 C 0.205 0.20795 0.58784 0.0
C8 C 0.21789 0.20151 0.63096 0.0
C9 C 0.18966 0.26562 0.50449 0.0
O10 O 0.15581 0.25694 0.64866 0.0
O11 O 0.13234 0.223 0.63304 0.0
O12 O 0.13368 0.16534 0.44351 0.0
O13 O 0.15476 0.17315 0.52757 0.0
O14 O 0.11156 0.28066 0.44867 0.0
O15 O 0.10746 0.20091 0.49717 0.0
O16 O 0.13549 0.25519 0.32537 0.0
O17 O 0.1587 0.24304 0.33717 0.0
O18 O 0.15702 0.32794 0.45896 0.0
O19 O 0.13664 0.31279 0.54593 0.0
C20 C 0.14353 0.23856 0.68772 0.0
O21 O 0.18204 0.22618 0.46263 0.0
O22 O 0.18201 0.29844 0.53949 0.0
C23 C 0.14379 0.14479 0.4867 0.0
C24 C 0.08801 0.23806 0.4265 0.0
C25 C 0.05954 0.24506 0.38585 0.0
C26 C 0.06326 0.20244 0.43768 0.0
C27 C 0.07733 0.19904 0.45772 0.0
C28 C 0.08438 0.27891 0.36901 0.0
C29 C 0.07033 0.28219 0.34849 0.0
C30 C 0.10206 0.24193 0.47292 0.0
C31 C 0.14761 0.24976 0.28475 0.0
H32 H 0.23277 0.32754 0.64041 0.0
H33 H 0.21066 0.33822 0.5617 0.0
H34 H 0.19738 0.17428 0.57244 0.0
H35 H 0.21982 0.16283 0.64693 0.0
H36 H 0.0553 0.17323 0.46847 0.0
H37 H 0.07978 0.16754 0.50352 0.0
H38 H 0.09231 0.31001 0.34454 0.0
H39 H 0.06792 0.31496 0.30636 0.0
Tb40 Tb 0.87281 0.23245 0.4946 0.0
Tb41 Tb 0.90771 0.24327 0.48108 0.0
C42 C 0.88843 0.13922 0.48981 0.0
C43 C 0.83356 0.22383 0.56323 0.0
C44 C 0.80706 0.22586 0.65363 0.0
C45 C 0.81203 0.17906 0.63631 0.0
C46 C 0.82509 0.17814 0.59221 0.0
C47 C 0.82871 0.27092 0.58017 0.0
C48 C 0.81561 0.27192 0.62536 0.0
C49 C 0.84631 0.21999 0.50362 0.0
O50 O 0.87998 0.22372 0.64774 0.0
O51 O 0.9031 0.26154 0.63421 0.0
O52 O 0.90281 0.31945 0.4478 0.0
O53 O 0.88126 0.31235 0.52593 0.0
O54 O 0.92425 0.20268 0.45035 0.0
O55 O 0.92837 0.28055 0.50789 0.0
O56 O 0.90091 0.23431 0.32602 0.0
O57 O 0.87729 0.2421 0.33635 0.0
O58 O 0.87874 0.16028 0.44423 0.0
O59 O 0.89855 0.16813 0.53681 0.0
C60 C 0.89198 0.24432 0.68806 0.0
O61 O 0.8539 0.26174 0.46975 0.0
O62 O 0.85397 0.18551 0.53094 0.0
C63 C 0.89253 0.34024 0.48811 0.0
C64 C 0.94779 0.24609 0.4326 0.0
C65 C 0.97622 0.24099 0.38639 0.0
C66 C 0.97258 0.2796 0.4499 0.0
C67 C 0.95855 0.28216 0.47232 0.0
C68 C 0.9513 0.20938 0.36448 0.0
C69 C 0.96533 0.20715 0.34103 0.0
C70 C 0.93376 0.24021 0.47965 0.0
C71 C 0.88867 0.2377 0.285 0.0
H72 H 0.80567 0.1427 0.65412 0.0
H73 H 0.82836 0.1412 0.57766 0.0
H74 H 0.83488 0.30682 0.55698 0.0
H75 H 0.81219 0.30876 0.63794 0.0
H76 H 0.98055 0.30606 0.48761 0.0
H77 H 0.95619 0.31032 0.52629 0.0
H78 H 0.94327 0.18061 0.33314 0.0
H79 H 0.96762 0.17769 0.28984 0.0
Tb80 Tb 0.12836 0.73729 0.56839 0.0
Tb81 Tb 0.16355 0.74741 0.55585 0.0
C82 C 0.14419 0.64461 0.55367 0.0
C83 C 0.08808 0.72946 0.61725 0.0
C84 C 0.05953 0.73389 0.66187 0.0
C85 C 0.06469 0.68659 0.65949 0.0
C86 C 0.07875 0.68452 0.63811 0.0
C87 C 0.08316 0.77707 0.62209 0.0
C88 C 0.06906 0.77928 0.64495 0.0
C89 C 0.10188 0.72409 0.57351 0.0
O90 O 0.13562 0.72992 0.72194 0.0
O91 O 0.15902 0.76501 0.70922 0.0
O92 O 0.15917 0.82453 0.52625 0.0
O93 O 0.13642 0.8187 0.58742 0.0
O94 O 0.17974 0.70502 0.52437 0.0
O95 O 0.18438 0.78261 0.5813 0.0
O96 O 0.15686 0.74179 0.40024 0.0
O97 O 0.13286 0.74298 0.41009 0.0
O98 O 0.13432 0.66622 0.51195 0.0
O99 O 0.15388 0.67206 0.60682 0.0
C100 C 0.14774 0.74921 0.76243 0.0
O101 O 0.10949 0.76395 0.53273 0.0
O102 O 0.10946 0.69246 0.61441 0.0
C103 C 0.14827 0.84548 0.55557 0.0
C104 C 0.20267 0.74937 0.49048 0.0
C105 C 0.23024 0.75602 0.4126 0.0
C106 C 0.22536 0.79969 0.45227 0.0
C107 C 0.21179 0.7963 0.49151 0.0
C108 C 0.20728 0.70639 0.44632 0.0
C109 C 0.22087 0.7096 0.40812 0.0
C110 C 0.18955 0.74235 0.54994 0.0
C111 C 0.14446 0.74193 0.35918 0.0
H112 H 0.05776 0.6506 0.66953 0.0
H113 H 0.08218 0.64722 0.63266 0.0
H114 H 0.09005 0.81242 0.60504 0.0
H115 H 0.06561 0.81657 0.64759 0.0
H116 H 0.23211 0.83642 0.4552 0.0
H117 H 0.20866 0.83001 0.52604 0.0
H118 H 0.20062 0.66937 0.44586 0.0
H119 H 0.2242 0.67487 0.37969 0.0
Tb120 Tb 0.90763 0.74339 0.57179 0.0
Tb121 Tb 0.87268 0.73453 0.55233 0.0
C122 C 0.89254 0.8402 0.56119 0.0
C123 C 0.94821 0.75026 0.61706 0.0
C124 C 0.97761 0.76066 0.64694 0.0
C125 C 0.97084 0.80435 0.63645 0.0
C126 C 0.95633 0.7992 0.62062 0.0
C127 C 0.95478 0.70688 0.63415 0.0
C128 C 0.96928 0.71191 0.64847 0.0
C129 C 0.93375 0.74244 0.57693 0.0
O130 O 0.90013 0.7318 0.7246 0.0
O131 O 0.87719 0.74721 0.71 0.0
O132 O 0.87779 0.66041 0.59833 0.0
O133 O 0.89884 0.66746 0.51872 0.0
O134 O 0.8541 0.76489 0.58069 0.0
O135 O 0.85355 0.69056 0.51027 0.0
O136 O 0.87994 0.72596 0.40024 0.0
O137 O 0.90353 0.7578 0.41555 0.0
O138 O 0.90216 0.8186 0.6081 0.0
O139 O 0.88195 0.81276 0.5147 0.0
C140 C 0.88809 0.73941 0.76384 0.0
O141 O 0.92452 0.70543 0.61218 0.0
O142 O 0.92809 0.7812 0.54321 0.0
C143 C 0.88779 0.63912 0.55698 0.0
C144 C 0.83359 0.73302 0.48435 0.0
C145 C 0.80677 0.74369 0.40927 0.0
C146 C 0.81096 0.69496 0.41625 0.0
C147 C 0.82419 0.68969 0.45403 0.0
C148 C 0.82963 0.78205 0.47301 0.0
C149 C 0.81632 0.78727 0.43605 0.0
C150 C 0.84621 0.72513 0.54195 0.0
C151 C 0.89233 0.74252 0.3611 0.0
H152 H 0.97679 0.84264 0.63733 0.0
H153 H 0.9516 0.83339 0.60695 0.0
H154 H 0.94882 0.66859 0.63016 0.0
H155 H 0.97397 0.67717 0.65486 0.0
H156 H 0.80374 0.66072 0.39713 0.0
H157 H 0.82683 0.65138 0.46383 0.0
H158 H 0.83656 0.81619 0.49637 0.0
H159 H 0.81335 0.82529 0.43057 0.0
Tb160 Tb 0.66376 0.74929 0.04637 0.0
Tb161 Tb 0.62888 0.74608 0.03791 0.0
C162 C 0.64951 0.84694 0.03437 0.0
C163 C 0.70285 0.75116 0.1102 0.0
C164 C 0.72955 0.74163 0.18894 0.0
C165 C 0.7254 0.79025 0.17834 0.0
C166 C 0.71223 0.79496 0.13872 0.0
C167 C 0.70675 0.70233 0.12572 0.0
C168 C 0.72 0.69767 0.16442 0.0
C169 C 0.69028 0.75794 0.05068 0.0
O170 O 0.65773 0.75895 0.20125 0.0
O171 O 0.63348 0.73841 0.19585 0.0
O172 O 0.63294 0.66841 1.00782 0.0
O173 O 0.65441 0.67164 0.08595 0.0
O174 O 0.61245 0.78644 1.00032 0.0
O175 O 0.60822 0.71126 0.07024 0.0
O176 O 0.63605 0.75653 0.88322 0.0
O177 O 0.65767 0.72874 0.89332 0.0
O178 O 0.65885 0.82254 0.99236 0.0
O179 O 0.6389 0.8216 0.08284 0.0
C180 C 0.64538 0.74918 0.24475 0.0
O181 O 0.68211 0.71732 1.01792 0.0
O182 O 0.68319 0.7941 0.07779 0.0
C183 C 0.64297 0.64573 0.04663 0.0
C184 C 0.58886 0.74284 0.98803 0.0
C185 C 0.56017 0.73629 0.93989 0.0
C186 C 0.56562 0.69243 0.97174 0.0
C187 C 0.57985 0.69572 0.99638 0.0
C188 C 0.58343 0.78601 0.95146 0.0
C189 C 0.56921 0.78283 0.92823 0.0
C190 C 0.60289 0.75055 0.03549 0.0
C191 C 0.64703 0.74084 0.84146 0.0
H192 H 0.73262 0.82474 0.19578 0.0
H193 H 0.70962 0.83311 0.12605 0.0
H194 H 0.69983 0.66781 0.10413 0.0
H195 H 0.72295 0.65974 0.17269 0.0
H196 H 0.55873 0.65635 0.98255 0.0
H197 H 0.58362 0.66207 0.02651 0.0
H198 H 0.59001 0.82309 0.94617 0.0
H199 H 0.56516 0.81717 0.9044 0.0
Tb200 Tb 0.37304 0.73928 0.04153 0.0
Tb201 Tb 0.40806 0.74474 1.0209 0.0
C202 C 0.38704 0.63944 0.03182 0.0
C203 C 0.3341 0.73915 0.11317 0.0
C204 C 0.30651 0.73225 0.19087 0.0
C205 C 0.31139 0.68874 0.15047 0.0
C206 C 0.32497 0.69225 0.1113 0.0
C207 C 0.3295 0.78193 0.15808 0.0
C208 C 0.3159 0.77861 0.19616 0.0
C209 C 0.34722 0.74665 0.05366 0.0
O210 O 0.38049 0.74309 0.19513 0.0
O211 O 0.40446 0.74135 0.18115 0.0
O212 O 0.40412 0.81981 0.06789 0.0
O213 O 0.38281 0.81472 0.99153 0.0
O214 O 0.42617 0.71005 0.0427 0.0
O215 O 0.4272 0.78474 0.96726 0.0
O216 O 0.40031 0.75519 0.87064 0.0
O217 O 0.37679 0.72304 0.88561 0.0
O218 O 0.37668 0.66104 0.06812 0.0
O219 O 0.39863 0.6656 0.99559 0.0
C220 C 0.39301 0.7426 0.23419 0.0
O221 O 0.35731 0.78219 0.08256 0.0
O222 O 0.35199 0.70681 1.01638 0.0
C223 C 0.39393 0.8418 0.03146 0.0
C224 C 0.44916 0.75006 0.98387 0.0
C225 C 0.47841 0.75395 0.96762 0.0
C226 C 0.47249 0.79941 0.9764 0.0
C227 C 0.45799 0.7975 0.98386 0.0
C228 C 0.45499 0.70461 0.972 0.0
C229 C 0.46952 0.70656 0.96301 0.0
C230 C 0.43395 0.74812 0.99758 0.0
C231 C 0.38803 0.73778 0.83122 0.0
H232 H 0.30463 0.65203 0.14691 0.0
H233 H 0.3281 0.65868 0.0762 0.0
H234 H 0.33618 0.81891 0.1591 0.0
H235 H 0.31258 0.81326 0.2251 0.0
H236 H 0.47912 0.83646 0.97924 0.0
H237 H 0.45371 0.83305 0.99244 0.0
H238 H 0.44832 0.6676 0.9707 0.0
H239 H 0.47382 0.67097 0.9565 0.0
Tb240 Tb 0.62845 0.24468 1.01533 0.0
Tb241 Tb 0.66345 0.25024 0.99704 0.0
C242 C 0.64292 0.14569 1.00985 0.0
C243 C 0.58804 0.23724 0.06174 0.0
C244 C 0.55883 0.22819 0.10184 0.0
C245 C 0.56452 0.18873 0.05229 0.0
C246 C 0.5789 0.19307 0.03319 0.0
C247 C 0.58254 0.27603 0.11399 0.0
C248 C 0.56817 0.27135 0.13476 0.0
C249 C 0.60238 0.24756 1.01914 0.0
O250 O 0.63596 0.25363 0.16869 0.0
O251 O 0.65879 0.23671 0.15419 0.0
O252 O 0.6587 0.32394 0.04792 0.0
O253 O 0.63774 0.32099 0.96807 0.0
O254 O 0.68188 0.21674 1.0155 0.0
O255 O 0.68274 0.29552 0.9665 0.0
O256 O 0.65643 0.26073 0.84486 0.0
O257 O 0.63271 0.23099 0.85936 0.0
O258 O 0.63308 0.16837 0.05124 0.0
O259 O 0.65392 0.17173 0.96509 0.0
C260 C 0.64793 0.24502 0.20794 0.0
O261 O 0.61172 0.28242 0.05976 0.0
O262 O 0.60797 0.21011 0.97943 0.0
C263 C 0.64882 0.34715 1.00985 0.0
C264 C 0.70264 0.25555 0.9271 0.0
C265 C 0.72921 0.25436 0.83689 0.0
C266 C 0.7241 0.30094 0.85391 0.0
C267 C 0.71102 0.30147 0.89794 0.0
C268 C 0.70763 0.20872 0.91028 0.0
C269 C 0.72075 0.20812 0.86514 0.0
C270 C 0.68994 0.25875 0.9878 0.0
C271 C 0.64399 0.24555 0.80537 0.0
H272 H 0.55785 0.15532 1.02321 0.0
H273 H 0.58271 0.16294 0.99082 0.0
H274 H 0.58925 0.31113 0.13526 0.0
H275 H 0.56442 0.3023 0.17483 0.0
H276 H 0.73039 0.33745 0.83611 0.0
H277 H 0.70768 0.33829 0.91249 0.0
H278 H 0.70156 0.17268 0.93377 0.0
H279 H 0.72426 0.17142 0.85277 0.0
Tb280 Tb 0.40747 0.24256 1.01519 0.0
Tb281 Tb 0.37245 0.23511 1.00081 0.0
C282 C 0.39267 0.34015 1.02265 0.0
C283 C 0.44783 0.24912 0.05783 0.0
C284 C 0.47698 0.25778 0.10029 0.0
C285 C 0.47136 0.29784 0.05196 0.0
C286 C 0.45701 0.29368 0.03168 0.0
C287 C 0.45326 0.2097 0.109 0.0
C288 C 0.4676 0.21418 0.13093 0.0
C289 C 0.43355 0.23936 1.01398 0.0
O290 O 0.40082 0.23561 0.17069 0.0
O291 O 0.37691 0.23967 0.16021 0.0
O292 O 0.37725 0.162 0.053 0.0
O293 O 0.39794 0.16615 0.96956 0.0
O294 O 0.354 0.26672 0.02801 0.0
O295 O 0.35322 0.19197 0.95883 0.0
O296 O 0.3797 0.22366 0.84914 0.0
O297 O 0.40264 0.26273 0.86285 0.0
O298 O 0.40264 0.31701 0.06105 0.0
O299 O 0.38183 0.31464 0.97538 0.0
C300 C 0.38844 0.2369 0.21148 0.0
O301 O 0.42426 0.20362 0.05269 0.0
O302 O 0.42789 0.27759 0.97787 0.0
C303 C 0.3872 0.13946 1.01488 0.0
C304 C 0.33352 0.2351 0.931 0.0
C305 C 0.30755 0.24757 0.84172 0.0
C306 C 0.3106 0.19838 0.86621 0.0
C307 C 0.32336 0.19235 0.9107 0.0
C308 C 0.33071 0.2843 0.90487 0.0
C309 C 0.31786 0.29046 0.86089 0.0
C310 C 0.34601 0.22703 0.98986 0.0
C311 C 0.39163 0.24471 0.80872 0.0
H312 H 0.47806 0.33165 0.02467 0.0
H313 H 0.45326 0.32433 0.99028 0.0
H314 H 0.44653 0.17432 0.12851 0.0
H315 H 0.47129 0.18276 0.17007 0.0
H316 H 0.30314 0.16424 0.85121 0.0
H317 H 0.32518 0.15404 0.93134 0.0
H318 H 0.33827 0.3181 0.92068 0.0
H319 H 0.31589 0.32906 0.84464 0.0
H320 H 0.25407 0.30059 0.61141 0.0
H321 H 0.234 0.17265 0.78806 0.0
H322 H 0.25655 0.16201 0.86055 0.0
H323 H 0.28178 0.19086 0.87942 0.0
H324 H 0.30184 0.31881 0.70279 0.0
H325 H 0.2793 0.32932 0.63 0.0
C326 C 0.25451 0.27079 0.66689 0.0
C327 C 0.24218 0.23762 0.6939 0.0
C328 C 0.26751 0.2654 0.71009 0.0
C329 C 0.24322 0.19843 0.76416 0.0
C330 C 0.25614 0.19256 0.80664 0.0
C331 C 0.28134 0.22062 0.82386 0.0
C332 C 0.29366 0.25389 0.79703 0.0
C333 C 0.26834 0.22595 0.78053 0.0
C334 C 0.29262 0.29299 0.7266 0.0
C335 C 0.27971 0.29879 0.68396 0.0
H336 H 0.7487 0.19151 0.88001 0.0
H337 H 0.74182 0.31869 0.69099 0.0
H338 H 0.76531 0.32293 0.62213 0.0
H339 H 0.78765 0.28917 0.61115 0.0
H340 H 0.7945 0.16196 0.80016 0.0
H341 H 0.77104 0.15789 0.86931 0.0
C342 C 0.75221 0.21969 0.82267 0.0
C343 C 0.74339 0.25479 0.79143 0.0
C344 C 0.76574 0.22164 0.78205 0.0
C345 C 0.74837 0.29162 0.71819 0.0
C346 C 0.76181 0.29392 0.67799 0.0
C347 C 0.78413 0.26102 0.66855 0.0
C348 C 0.79293 0.2258 0.6996 0.0
C349 C 0.77061 0.25915 0.70931 0.0
C350 C 0.78796 0.18908 0.77305 0.0
C351 C 0.77453 0.18687 0.8134 0.0
H352 H 0.29591 0.78438 0.34383 0.0
H353 H 0.28311 0.67578 0.10718 0.0
H354 H 0.2587 0.67311 0.15524 0.0
H355 H 0.24082 0.70375 0.25984 0.0
H356 H 0.25362 0.81251 0.49618 0.0
H357 H 0.27803 0.81511 0.44822 0.0
C358 C 0.28782 0.76051 0.3017 0.0
C359 C 0.29153 0.7301 0.22215 0.0
C360 C 0.27369 0.75995 0.32813 0.0
C361 C 0.28076 0.6988 0.17018 0.0
C362 C 0.26671 0.69765 0.19683 0.0
C363 C 0.24891 0.72766 0.30186 0.0
C364 C 0.2452 0.75811 0.38134 0.0
C365 C 0.26304 0.72823 0.27539 0.0
C366 C 0.25597 0.78944 0.43325 0.0
C367 C 0.27002 0.79055 0.40665 0.0
H368 H 0.74394 0.7813 0.35333 0.0
H369 H 0.74793 0.69261 0.08709 0.0
H370 H 0.77224 0.68584 0.13022 0.0
H371 H 0.79237 0.7045 0.24487 0.0
H372 H 0.78841 0.79298 0.51145 0.0
H373 H 0.76411 0.79994 0.46823 0.0
C374 C 0.75017 0.76045 0.30515 0.0
C375 C 0.74416 0.73701 0.2178 0.0
C376 C 0.76412 0.75651 0.33076 0.0
C377 C 0.75229 0.71016 0.15563 0.0
C378 C 0.7662 0.70649 0.18001 0.0
C379 C 0.78616 0.72534 0.29317 0.0
C380 C 0.79217 0.74865 0.3806 0.0
C381 C 0.77221 0.72931 0.26761 0.0
C382 C 0.78405 0.77553 0.44282 0.0
C383 C 0.77014 0.77929 0.4184 0.0
H384 H 0.12883 0.90186 0.48926 0.0
H385 H 0.17037 0.91554 0.61467 0.0
H386 H 0.17254 0.00948 0.60738 0.0
H387 H 0.16282 0.08753 0.56152 0.0
H388 H 0.12173 0.07346 0.42657 0.0
H389 H 0.1193 0.98008 0.43995 0.0
C390 C 0.13831 0.92557 0.51525 0.0
C391 C 0.14942 0.90208 0.55252 0.0
C392 C 0.13963 0.97944 0.50811 0.0
C393 C 0.16173 0.93295 0.58504 0.0
C394 C 0.16296 0.98657 0.58096 0.0
C395 C 0.15332 0.06414 0.53491 0.0
C396 C 0.14249 0.08781 0.49314 0.0
C397 C 0.15202 0.01026 0.54182 0.0
C398 C 0.13028 0.05658 0.45897 0.0
C399 C 0.12884 0.00303 0.46677 0.0
H400 H 0.87197 0.39778 0.52765 0.0
H401 H 0.91635 0.41046 0.46797 0.0
H402 H 0.9188 0.50376 0.48601 0.0
H403 H 0.90836 0.58179 0.51792 0.0
H404 H 0.864 0.56911 0.578 0.0
H405 H 0.86155 0.47575 0.56045 0.0
C406 C 0.88219 0.4209 0.51847 0.0
C407 C 0.89394 0.39704 0.49595 0.0
C408 C 0.88353 0.47456 0.52893 0.0
C409 C 0.90709 0.42773 0.48416 0.0
C410 C 0.90852 0.48113 0.49489 0.0
C411 C 0.89815 0.55862 0.5271 0.0
C412 C 0.88638 0.58243 0.54922 0.0
C413 C 0.89681 0.50495 0.51702 0.0
C414 C 0.87325 0.55178 0.56165 0.0
C415 C 0.87183 0.49838 0.55127 0.0
H416 H 0.88033 0.8987 0.4299 0.0
H417 H 0.90706 0.90919 0.69012 0.0
H418 H 0.90816 0.00268 0.6909 0.0
H419 H 0.90134 0.08136 0.61842 0.0
H420 H 0.87449 0.07051 0.35879 0.0
H421 H 0.87373 0.97723 0.35652 0.0
C422 C 0.88639 0.92141 0.4869 0.0
C423 C 0.89358 0.89696 0.55999 0.0
C424 C 0.88699 0.97508 0.48678 0.0
C425 C 0.9015 0.92704 0.63264 0.0
C426 C 0.9021 0.98049 0.63332 0.0
C427 C 0.89534 0.05856 0.56126 0.0
C428 C 0.88793 0.08276 0.48915 0.0
C429 C 0.89487 0.00491 0.56083 0.0
C430 C 0.88016 0.05273 0.4158 0.0
C431 C 0.87975 -0.00058 0.41427 0.0
H432 H 0.14063 0.56327 0.67851 0.0
H433 H 0.15126 0.6079 0.37512 0.0
H434 H 0.15466 0.51954 0.33492 0.0
H435 H 0.15371 0.42826 0.3859 0.0
H436 H 0.14103 0.38371 0.68653 0.0
H437 H 0.13937 0.47278 0.72851 0.0
C438 C 0.14366 0.55332 0.60375 0.0
C439 C 0.14565 0.59129 0.52958 0.0
C440 C 0.14526 0.50243 0.58097 0.0
C441 C 0.14955 0.57862 0.43277 0.0
C442 C 0.15155 0.52831 0.41005 0.0
C443 C 0.1508 0.43845 0.46077 0.0
C444 C 0.1476 0.3998 0.53333 0.0
C445 C 0.14937 0.48972 0.48348 0.0
C446 C 0.14357 0.41303 0.62964 0.0
C447 C 0.14258 0.46388 0.65366 0.0
H448 H 0.664 0.58843 0.03404 0.0
H449 H 0.61894 0.57624 0.04834 0.0
H450 H 0.61677 0.48247 0.03817 0.0
H451 H 0.62772 0.40407 1.0233 0.0
H452 H 0.67277 0.4165 1.00915 0.0
H453 H 0.67493 0.51022 1.01945 0.0
C454 C 0.65371 0.56519 0.03557 0.0
C455 C 0.64165 0.58909 0.04235 0.0
C456 C 0.65255 0.51148 0.02855 0.0
C457 C 0.62837 0.55864 0.04271 0.0
C458 C 0.62713 0.50509 0.03696 0.0
C459 C 0.63799 0.42741 1.02211 0.0
C460 C 0.65008 0.40363 1.01545 0.0
C461 C 0.63914 0.48113 0.02925 0.0
C462 C 0.66334 0.43407 1.01507 0.0
C463 C 0.66457 0.48758 1.0208 0.0
H464 H 0.3729 0.89829 0.04515 0.0
H465 H 0.41781 0.91129 1.01582 0.0
H466 H 0.41969 0.00505 1.00645 0.0
H467 H 0.40844 0.08297 1.00375 0.0
H468 H 0.36364 0.06984 0.04336 0.0
H469 H 0.36181 0.97632 0.05219 0.0
C470 C 0.38308 0.92176 0.03662 0.0
C471 C 0.39519 0.89822 0.03022 0.0
C472 C 0.38408 0.97543 0.03315 0.0
C473 C 0.40836 0.92879 1.02101 0.0
C474 C 0.40943 0.98227 1.01532 0.0
C475 C 0.39828 0.05957 1.01386 0.0
C476 C 0.38617 0.0831 1.02154 0.0
C477 C 0.39734 0.00595 1.02069 0.0
C478 C 0.3731 0.05252 0.03678 0.0
C479 C 0.37205 -0.00091 0.04173 0.0
H480 H 0.37387 0.40082 0.95879 0.0
H481 H 0.41371 0.4069 0.10944 0.0
H482 H 0.41534 0.4999 0.12642 0.0
H483 H 0.40562 0.57996 0.09642 0.0
H484 H 0.36534 0.57366 0.95408 0.0
H485 H 0.36374 0.48022 0.93484 0.0
C486 C 0.38293 0.42238 0.99529 0.0
C487 C 0.39369 0.39673 0.03222 0.0
C488 C 0.38372 0.47583 1.00608 0.0
C489 C 0.4053 0.42549 0.07976 0.0
C490 C 0.40624 0.47875 0.08967 0.0
C491 C 0.39647 0.55785 0.06194 0.0
C492 C 0.38557 0.58308 0.02717 0.0
C493 C 0.39554 0.5043 0.05292 0.0
C494 C 0.37373 0.55456 0.98262 0.0
C495 C 0.37287 0.50135 0.97117 0.0
H496 H 0.66365 0.08756 0.98211 0.0
H497 H 0.61951 0.07628 0.04918 0.0
H498 H 0.61769 0.98287 0.06182 0.0
H499 H 0.6287 0.90466 0.0569 0.0
H500 H 0.67281 0.91569 0.98963 0.0
H501 H 0.67459 0.00914 0.97462 0.0
C502 C 0.65361 0.06469 0.99899 0.0
C503 C 0.64174 0.08895 1.01489 0.0
C504 C 0.65266 0.01104 1.00685 0.0
C505 C 0.62883 0.05869 0.03736 0.0
C506 C 0.62778 0.00525 0.0445 0.0
C507 C 0.63872 0.92753 0.03929 0.0
C508 C 0.65062 0.90336 0.0248 0.0
C509 C 0.63964 0.98109 0.03019 0.0
C510 C 0.66348 0.93341 1.00078 0.0
C511 C 0.66451 0.98681 0.99233 0.0
H512 H 0.12705 0.22494 0.14591 0.0
H513 H 0.17143 0.27748 0.17628 0.0
H514 H 0.17408 0.27898 0.9948 0.0
H515 H 0.16389 0.26487 0.82755 0.0
H516 H 0.11962 0.20971 0.79669 0.0
H517 H 0.1169 0.20951 0.97785 0.0
C518 C 0.13728 0.23698 0.11269 0.0
C519 C 0.149 0.25125 0.17452 0.0
C520 C 0.13879 0.23698 1.00811 0.0
C521 C 0.16223 0.26609 0.13041 0.0
C522 C 0.16377 0.26704 0.02659 0.0
C523 C 0.15364 0.25265 0.86022 0.0
C524 C 0.14201 0.23721 0.79811 0.0
C525 C 0.15213 0.25237 0.9647 0.0
C526 C 0.1288 0.22163 0.84229 0.0
C527 C 0.12721 0.2216 0.94612 0.0
H528 H 0.90651 0.28494 0.14504 0.0
H529 H 0.8678 0.18117 0.18041 0.0
H530 H 0.86541 0.17291 0.99872 0.0
H531 H 0.87424 0.19604 0.82953 0.0
H532 H 0.9126 0.30255 0.79474 0.0
H533 H 0.91509 0.30951 0.97563 0.0
C534 C 0.89758 0.26057 0.11257 0.0
C535 C 0.88734 0.23375 0.17537 0.0
C536 C 0.89615 0.25683 1.0081 0.0
C537 C 0.87573 0.20257 0.13303 0.0
C538 C 0.87439 0.19774 0.02931 0.0
C539 C 0.88312 0.2209 0.86149 0.0
C540 C 0.89322 0.24856 0.79834 0.0
C541 C 0.88449 0.22492 0.96601 0.0
C542 C 0.9047 0.28041 0.84129 0.0
C543 C 0.90614 0.28454 0.94495 0.0
H544 H 0.16229 0.78924 0.2194 0.0
H545 H 0.12368 0.68478 0.25459 0.0
H546 H 0.12125 0.67686 0.07301 0.0
H547 H 0.13 0.7006 0.90378 0.0
H548 H 0.16835 0.80717 0.86939 0.0
H549 H 0.17086 0.81383 0.05027 0.0
C550 C 0.15339 0.76473 0.18693 0.0
C551 C 0.14318 0.73773 0.24964 0.0
C552 C 0.15193 0.76108 0.08252 0.0
C553 C 0.1316 0.70637 0.20729 0.0
C554 C 0.13022 0.70173 0.10361 0.0
C555 C 0.13887 0.72543 0.93583 0.0
C556 C 0.14896 0.75325 0.87278 0.0
C557 C 0.14028 0.72918 0.04036 0.0
C558 C 0.16046 0.78496 0.91586 0.0
C559 C 0.16191 0.78891 1.0195 0.0
H560 H 0.90888 0.75343 0.90348 0.0
H561 H 0.86384 0.72414 0.87199 0.0
H562 H 0.86117 0.72212 0.05337 0.0
H563 H 0.87156 0.72838 0.22109 0.0
H564 H 0.9166 0.76005 0.25267 0.0
H565 H 0.91926 0.76155 0.07147 0.0
C566 C 0.89848 0.74647 0.93628 0.0
C567 C 0.8866 0.73881 0.87409 0.0
C568 C 0.89699 0.74587 0.04083 0.0
C569 C 0.87319 0.7304 0.91796 0.0
C570 C 0.87163 0.7291 1.02179 0.0
C571 C 0.88197 0.73555 0.18849 0.0
C572 C 0.89384 0.74394 0.25078 0.0
C573 C 0.88346 0.73676 0.08398 0.0
C574 C 0.90724 0.75353 0.20685 0.0
C575 C 0.9088 0.75432 0.10302 0.0
H576 H 0.65206 0.68261 0.3854 0.0
H577 H 0.63732 0.82799 0.34722 0.0
H578 H 0.63646 0.83891 0.52913 0.0
H579 H 0.63975 0.80639 0.69979 0.0
H580 H 0.65503 0.66179 0.73761 0.0
H581 H 0.65554 0.65044 0.55607 0.0
C582 C 0.64865 0.71651 0.41749 0.0
C583 C 0.64471 0.75444 0.3541 0.0
C584 C 0.64814 0.72231 0.52203 0.0
C585 C 0.64028 0.79825 0.39544 0.0
C586 C 0.63981 0.80447 0.49918 0.0
C587 C 0.64314 0.77241 0.66793 0.0
C588 C 0.64732 0.73489 0.73158 0.0
C589 C 0.64366 0.76665 0.56334 0.0
C590 C 0.65187 0.69131 0.68978 0.0
C591 C 0.65214 0.68478 0.58609 0.0
H592 H 0.40738 0.77742 0.69187 0.0
H593 H 0.36593 0.69021 0.72168 0.0
H594 H 0.36385 0.68388 0.5403 0.0
H595 H 0.37369 0.70343 0.37253 0.0
H596 H 0.41532 0.78853 0.34247 0.0
H597 H 0.41738 0.79567 0.52434 0.0
C598 C 0.39789 0.75697 0.65886 0.0
C599 C 0.38681 0.73452 0.72073 0.0
C600 C 0.39677 0.75322 0.55423 0.0
C601 C 0.37459 0.70827 0.67621 0.0
C602 C 0.37339 0.70449 0.5723 0.0
C603 C 0.38321 0.72349 0.40595 0.0
C604 C 0.39435 0.7453 0.3443 0.0
C605 C 0.38439 0.72692 0.51056 0.0
C606 C 0.40666 0.77089 0.38846 0.0
C607 C 0.40783 0.77518 0.49241 0.0
H608 H 0.62723 0.23806 0.34832 0.0
H609 H 0.6722 0.25333 0.31565 0.0
H610 H 0.67498 0.25553 0.49677 0.0
H611 H 0.66471 0.25322 0.66493 0.0
H612 H 0.6197 0.23569 0.69756 0.0
H613 H 0.61694 0.23426 0.51649 0.0
C614 C 0.63764 0.24194 0.38075 0.0
C615 C 0.64947 0.24554 0.31821 0.0
C616 C 0.63919 0.24276 0.48524 0.0
C617 C 0.66288 0.25018 0.36177 0.0
C618 C 0.66451 0.2516 0.46552 0.0
C619 C 0.6543 0.24922 0.63252 0.0
C620 C 0.64246 0.24469 0.69508 0.0
C621 C 0.65274 0.24794 0.52803 0.0
C622 C 0.62903 0.23911 0.65149 0.0
C623 C 0.62742 0.23837 0.54774 0.0
H624 H 0.4048 0.29141 0.35101 0.0
H625 H 0.3693 0.17225 0.31642 0.0
H626 H 0.36722 0.16299 0.49831 0.0
H627 H 0.37536 0.18964 0.66754 0.0
H628 H 0.41051 0.31076 0.70173 0.0
H629 H 0.41269 0.31913 0.52049 0.0
C630 C 0.39663 0.26351 0.38374 0.0
C631 C 0.3872 0.23258 0.32114 0.0
C632 C 0.39535 0.25911 0.48833 0.0
C633 C 0.37657 0.19678 0.36371 0.0
C634 C 0.3754 0.19141 0.46752 0.0
C635 C 0.38346 0.21796 0.63531 0.0
C636 C 0.39277 0.2494 0.69832 0.0
C637 C 0.38468 0.22258 0.53068 0.0
C638 C 0.40328 0.28568 0.65516 0.0
C639 C 0.40453 0.29061 0.55137 0.0
H640 H 0.03632 0.17244 0.3586 0.0
H641 H 0.04891 0.33577 0.39851 0.0
H642 H 0.02452 0.34912 0.39351 0.0
H643 H 0.99959 0.31464 0.38399 0.0
H644 H 0.98685 0.15034 0.36293 0.0
H645 H 1.01126 0.13769 0.35281 0.0
C646 C 0.03376 0.21097 0.36671 0.0
C647 C 0.04457 0.25295 0.37802 0.0
C648 C 0.01963 0.21842 0.36673 0.0
C649 C 0.04094 0.30267 0.38719 0.0
C650 C 0.02694 0.31041 0.38539 0.0
C651 C 1.00207 0.27592 0.37815 0.0
C652 C 0.99121 0.2337 0.37402 0.0
C653 C 1.01619 0.26853 0.37609 0.0
C654 C 0.99483 0.18397 0.36413 0.0
C655 C 1.00885 0.17649 0.35953 0.0
H656 H 0.99413 0.70027 0.74607 0.0
H657 H 0.99665 0.83166 0.54879 0.0
H658 H 0.02199 0.83697 0.54181 0.0
H659 H 0.04331 0.8007 0.58028 0.0
H660 H 0.04089 0.66933 0.77751 0.0
H661 H 1.01563 0.66617 0.79038 0.0
C662 C 1.00015 0.72993 0.70082 0.0
C663 C 0.99328 0.7655 0.64827 0.0
C664 C 1.0148 0.73218 0.6949 0.0
C665 C 1.00148 0.8042 0.5919 0.0
C666 C 1.01605 0.80699 0.58673 0.0
C667 C 0.03739 0.77199 0.62805 0.0
C668 C 0.04419 0.73511 0.67705 0.0
C669 C 0.0228 0.7708 0.63684 0.0
C670 C 0.03607 0.69768 0.73681 0.0
C671 C 0.02156 0.69603 0.74511 0.0
H672 H 0.54335 0.7839 0.05551 0.0
H673 H 0.54305 0.68544 0.79857 0.0
H674 H 0.51757 0.68275 0.78174 0.0
H675 H 0.49527 0.7074 0.8438 0.0
H676 H 0.496 0.80464 0.1037 0.0
H677 H 0.52135 0.80852 0.1167 0.0
C678 C 0.53766 0.76203 0.99577 0.0
C679 C 0.54491 0.7349 0.92824 0.0
C680 C 0.5231 0.76024 0.98772 0.0
C681 C 0.53755 0.70633 0.85145 0.0
C682 C 0.52303 0.70487 0.84196 0.0
C683 C 0.50103 0.72935 0.90309 0.0
C684 C 0.49383 0.75607 0.97226 0.0
C685 C 0.51567 0.73138 0.91022 0.0
C686 C 0.50137 0.7845 0.04868 0.0
C687 C 0.51585 0.78655 0.05646 0.0
H688 H 0.49262 0.17813 0.10669 0.0
H689 H 0.4969 0.34395 0.12432 0.0
H690 H 0.52223 0.34937 0.12419 0.0
H691 H 0.54319 0.30776 0.11013 0.0
H692 H 0.53889 0.14177 0.12177 0.0
H693 H 0.51356 0.13636 0.12027 0.0
C694 C 0.49894 0.21562 0.1132 0.0
C695 C 0.49255 0.26057 0.11305 0.0
C696 C 0.51362 0.21866 0.11745 0.0
C697 C 0.50128 0.3085 0.12024 0.0
C698 C 0.51587 0.31176 0.12135 0.0
C699 C 0.53686 0.2702 0.11503 0.0
C700 C 0.54324 0.22526 0.11363 0.0
C701 C 0.52217 0.26712 0.11849 0.0
C702 C 0.53451 0.17727 0.11872 0.0
C703 C 0.51992 0.17399 0.11904 0.0
loop_
_geom_bond_atom_site_label_1
_geom_bond_atom_site_label_2
_geom_bond_distance
_geom_bond_site_symmetry_2
_ccdc_geom_bond_type
Tb0 C9 2.764 . S
Tb0 O10 2.325 . S
Tb0 O13 2.303 . S
Tb0 O17 2.322 . S
Tb0 O18 2.349 . S
Tb0 O21 2.415 . S
Tb0 O22 2.399 . S
Tb1 O11 2.322 . S
Tb1 O12 2.349 . S
Tb1 O14 2.415 . S
Tb1 O15 2.399 . S
Tb1 O16 2.325 . S
Tb1 O19 2.303 . S
Tb1 C30 2.764 . S
C2 O18 1.261 . S
C2 O19 1.257 . S
C3 C6 1.358 . S
C3 C7 1.332 . S
C3 C9 1.504 . S
C4 C5 1.373 . S
C4 C8 1.308 . S
C5 C4 1.373 . S
C5 C6 1.429 . S
C5 H32 0.932 . S
C6 C3 1.358 . S
C6 C5 1.429 . S
C6 H33 0.930 . S
C7 C3 1.332 . S
C7 C8 1.394 . S
C7 H34 0.932 . S
C8 C4 1.308 . S
C8 C7 1.394 . S
C8 H35 0.929 . S
C9 Tb0 2.764 . S
C9 C3 1.504 . S
C9 O21 1.239 . S
C9 O22 1.263 . S
O10 Tb0 2.325 . S
O10 C20 1.236 . S
O11 Tb1 2.322 . S
O11 C20 1.257 . S
O12 Tb1 2.349 . S
O12 C23 1.261 . S
O13 Tb0 2.303 . S
O13 C23 1.257 . S
O14 Tb1 2.415 . S
O14 C30 1.239 . S
O15 Tb1 2.399 . S
O15 C30 1.263 . S
O16 Tb1 2.325 . S
O16 C31 1.236 . S
O17 Tb0 2.322 . S
O17 C31 1.257 . S
O18 Tb0 2.349 . S
O18 C2 1.261 . S
O19 Tb1 2.303 . S
O19 C2 1.257 . S
C20 O10 1.236 . S
C20 O11 1.257 . S
O21 Tb0 2.415 . S
O21 C9 1.239 . S
O22 Tb0 2.399 . S
O22 C9 1.263 . S
C23 O12 1.261 . S
C23 O13 1.257 . S
C24 C27 1.358 . S
C24 C28 1.332 . S
C24 C30 1.504 . S
C25 C26 1.373 . S
C25 C29 1.308 . S
C26 C25 1.373 . S
C26 C27 1.429 . S
C26 H36 0.932 . S
C27 C24 1.358 . S
C27 C26 1.429 . S
C27 H37 0.930 . S
C28 C24 1.332 . S
C28 C29 1.394 . S
C28 H38 0.932 . S
C29 C25 1.308 . S
C29 C28 1.394 . S
C29 H39 0.929 . S
C30 Tb1 2.764 . S
C30 O14 1.239 . S
C30 O15 1.263 . S
C30 C24 1.504 . S
C31 O16 1.236 . S
C31 O17 1.257 . S
H32 C5 0.932 . S
H33 C6 0.930 . S
H34 C7 0.932 . S
H35 C8 0.929 . S
H36 C26 0.932 . S
H37 C27 0.930 . S
H38 C28 0.932 . S
H39 C29 0.929 . S
Tb40 C49 2.764 . S
Tb40 O50 2.325 . S
Tb40 O53 2.303 . S
Tb40 O57 2.322 . S
Tb40 O58 2.349 . S
Tb40 O61 2.415 . S
Tb40 O62 2.399 . S
Tb41 O51 2.322 . S
Tb41 O52 2.349 . S
Tb41 O54 2.415 . S
Tb41 O55 2.399 . S
Tb41 O56 2.325 . S
Tb41 O59 2.303 . S
Tb41 C70 2.764 . S
C42 O58 1.261 . S
C42 O59 1.257 . S
C43 C46 1.358 . S
C43 C47 1.332 . S
C43 C49 1.504 . S
C44 C45 1.373 . S
C44 C48 1.308 . S
C45 C44 1.373 . S
C45 C46 1.429 . S
C45 H72 0.932 . S
C46 C43 1.358 . S
C46 C45 1.429 . S
C46 H73 0.930 . S
C47 C43 1.332 . S
C47 C48 1.394 . S
C47 H74 0.932 . S
C48 C44 1.308 . S
C48 C47 1.394 . S
C48 H75 0.929 . S
C49 Tb40 2.764 . S
C49 C43 1.504 . S
C49 O61 1.239 . S
C49 O62 1.263 . S
O50 Tb40 2.325 . S
O50 C60 1.236 . S
O51 Tb41 2.322 . S
O51 C60 1.257 . S
O52 Tb41 2.349 . S
O52 C63 1.261 . S
O53 Tb40 2.303 . S
O53 C63 1.257 . S
O54 Tb41 2.415 . S
O54 C70 1.239 . S
O55 Tb41 2.399 . S
O55 C70 1.263 . S
O56 Tb41 2.325 . S
O56 C71 1.236 . S
O57 Tb40 2.322 . S
O57 C71 1.257 . S
O58 Tb40 2.349 . S
O58 C42 1.261 . S
O59 Tb41 2.303 . S
O59 C42 1.257 . S
C60 O50 1.236 . S
C60 O51 1.257 . S
O61 Tb40 2.415 . S
O61 C49 1.239 . S
O62 Tb40 2.399 . S
O62 C49 1.263 . S
C63 O52 1.261 . S
C63 O53 1.257 . S
C64 C67 1.358 . S
C64 C68 1.332 . S
C64 C70 1.504 . S
C65 C66 1.373 . S
C65 C69 1.308 . S
C66 C65 1.373 . S
C66 C67 1.429 . S
C66 H76 0.932 . S
C67 C64 1.358 . S
C67 C66 1.429 . S
C67 H77 0.930 . S
C68 C64 1.332 . S
C68 C69 1.394 . S
C68 H78 0.932 . S
C69 C65 1.308 . S
C69 C68 1.394 . S
C69 H79 0.929 . S
C70 Tb41 2.764 . S
C70 O54 1.239 . S
C70 O55 1.263 . S
C70 C64 1.504 . S
C71 O56 1.236 . S
C71 O57 1.257 . S
H72 C45 0.932 . S
H73 C46 0.930 . S
H74 C47 0.932 . S
H75 C48 0.929 . S
H76 C66 0.932 . S
H77 C67 0.930 . S
H78 C68 0.932 . S
H79 C69 0.929 . S
Tb80 C89 2.764 . S
Tb80 O90 2.325 . S
Tb80 O93 2.303 . S
Tb80 O97 2.322 . S
Tb80 O98 2.349 . S
Tb80 O101 2.415 . S
Tb80 O102 2.399 . S
Tb81 O91 2.322 . S
Tb81 O92 2.349 . S
Tb81 O94 2.415 . S
Tb81 O95 2.399 . S
Tb81 O96 2.325 . S
Tb81 O99 2.303 . S
Tb81 C110 2.764 . S
C82 O98 1.261 . S
C82 O99 1.257 . S
C83 C86 1.358 . S
C83 C87 1.332 . S
C83 C89 1.504 . S
C84 C85 1.373 . S
C84 C88 1.308 . S
C85 C84 1.373 . S
C85 C86 1.429 . S
C85 H112 0.932 . S
C86 C83 1.358 . S
C86 C85 1.429 . S
C86 H113 0.930 . S
C87 C83 1.332 . S
C87 C88 1.394 . S
C87 H114 0.932 . S
C88 C84 1.308 . S
C88 C87 1.394 . S
C88 H115 0.929 . S
C89 Tb80 2.764 . S
C89 C83 1.504 . S
C89 O101 1.239 . S
C89 O102 1.263 . S
O90 Tb80 2.325 . S
O90 C100 1.236 . S
O91 Tb81 2.322 . S
O91 C100 1.257 . S
O92 Tb81 2.349 . S
O92 C103 1.261 . S
O93 Tb80 2.303 . S
O93 C103 1.257 . S
O94 Tb81 2.415 . S
O94 C110 1.239 . S
O95 Tb81 2.399 . S
O95 C110 1.263 . S
O96 Tb81 2.325 . S
O96 C111 1.236 . S
O97 Tb80 2.322 . S
O97 C111 1.257 . S
O98 Tb80 2.349 . S
O98 C82 1.261 . S
O99 Tb81 2.303 . S
O99 C82 1.257 . S
C100 O90 1.236 . S
C100 O91 1.257 . S
O101 Tb80 2.415 . S
O101 C89 1.239 . S
O102 Tb80 2.399 . S
O102 C89 1.263 . S
C103 O92 1.261 . S
C103 O93 1.257 . S
C104 C107 1.358 . S
C104 C108 1.332 . S
C104 C110 1.504 . S
C105 C106 1.373 . S
C105 C109 1.308 . S
C106 C105 1.373 . S
C106 C107 1.429 . S
C106 H116 0.932 . S
C107 C104 1.358 . S
C107 C106 1.429 . S
C107 H117 0.930 . S
C108 C104 1.332 . S
C108 C109 1.394 . S
C108 H118 0.932 . S
C109 C105 1.308 . S
C109 C108 1.394 . S
C109 H119 0.929 . S
C110 Tb81 2.764 . S
C110 O94 1.239 . S
C110 O95 1.263 . S
C110 C104 1.504 . S
C111 O96 1.236 . S
C111 O97 1.257 . S
H112 C85 0.932 . S
H113 C86 0.930 . S
H114 C87 0.932 . S
H115 C88 0.929 . S
H116 C106 0.932 . S
H117 C107 0.930 . S
H118 C108 0.932 . S
H119 C109 0.929 . S
Tb120 C129 2.764 . S
Tb120 O130 2.325 . S
Tb120 O133 2.303 . S
Tb120 O137 2.322 . S
Tb120 O138 2.349 . S
Tb120 O141 2.415 . S
Tb120 O142 2.399 . S
Tb121 O131 2.322 . S
Tb121 O132 2.349 . S
Tb121 O134 2.415 . S
Tb121 O135 2.399 . S
Tb121 O136 2.325 . S
Tb121 O139 2.303 . S
Tb121 C150 2.764 . S
C122 O138 1.261 . S
C122 O139 1.257 . S
C123 C126 1.358 . S
C123 C127 1.332 . S
C123 C129 1.504 . S
C124 C125 1.373 . S
C124 C128 1.308 . S
C125 C124 1.373 . S
C125 C126 1.429 . S
C125 H152 0.932 . S
C126 C123 1.358 . S
C126 C125 1.429 . S
C126 H153 0.930 . S
C127 C123 1.332 . S
C127 C128 1.394 . S
C127 H154 0.932 . S
C128 C124 1.308 . S
C128 C127 1.394 . S
C128 H155 0.929 . S
C129 Tb120 2.764 . S
C129 C123 1.504 . S
C129 O141 1.239 . S
C129 O142 1.263 . S
O130 Tb120 2.325 . S
O130 C140 1.236 . S
O131 Tb121 2.322 . S
O131 C140 1.257 . S
O132 Tb121 2.349 . S
O132 C143 1.261 . S
O133 Tb120 2.303 . S
O133 C143 1.257 . S
O134 Tb121 2.415 . S
O134 C150 1.239 . S
O135 Tb121 2.399 . S
O135 C150 1.263 . S
O136 Tb121 2.325 . S
O136 C151 1.236 . S
O137 Tb120 2.322 . S
O137 C151 1.257 . S
O138 Tb120 2.349 . S
O138 C122 1.261 . S
O139 Tb121 2.303 . S
O139 C122 1.257 . S
C140 O130 1.236 . S
C140 O131 1.257 . S
O141 Tb120 2.415 . S
O141 C129 1.239 . S
O142 Tb120 2.399 . S
O142 C129 1.263 . S
C143 O132 1.261 . S
C143 O133 1.257 . S
C144 C147 1.358 . S
C144 C148 1.332 . S
C144 C150 1.504 . S
C145 C146 1.373 . S
C145 C149 1.308 . S
C146 C145 1.373 . S
C146 C147 1.429 . S
C146 H156 0.932 . S
C147 C144 1.358 . S
C147 C146 1.429 . S
C147 H157 0.930 . S
C148 C144 1.332 . S
C148 C149 1.394 . S
C148 H158 0.932 . S
C149 C145 1.308 . S
C149 C148 1.394 . S
C149 H159 0.929 . S
C150 Tb121 2.764 . S
C150 O134 1.239 . S
C150 O135 1.263 . S
C150 C144 1.504 . S
C151 O136 1.236 . S
C151 O137 1.257 . S
H152 C125 0.932 . S
H153 C126 0.930 . S
H154 C127 0.932 . S
H155 C128 0.929 . S
H156 C146 0.932 . S
H157 C147 0.930 . S
H158 C148 0.932 . S
H159 C149 0.929 . S
Tb160 C169 2.764 1_556 S
Tb160 O170 2.325 1_556 S
Tb160 O173 2.303 . S
Tb160 O177 2.322 . S
Tb160 O178 2.349 . S
Tb160 O181 2.415 1_556 S
Tb160 O182 2.399 1_556 S
Tb161 O171 2.322 . S
Tb161 O172 2.349 . S
Tb161 O174 2.415 1_554 S
Tb161 O175 2.399 1_554 S
Tb161 O176 2.325 1_554 S
Tb161 O179 2.303 . S
Tb161 C190 2.764 1_554 S
C162 O178 1.261 . S
C162 O179 1.257 1_556 S
C163 C166 1.358 . S
C163 C167 1.332 . S
C163 C169 1.504 . S
C164 C165 1.373 . S
C164 C168 1.308 . S
C165 C164 1.373 . S
C165 C166 1.429 . S
C165 H192 0.932 . S
C166 C163 1.358 . S
C166 C165 1.429 . S
C166 H193 0.930 . S
C167 C163 1.332 . S
C167 C168 1.394 . S
C167 H194 0.932 . S
C168 C164 1.308 . S
C168 C167 1.394 . S
C168 H195 0.929 . S
C169 Tb160 2.764 1_554 S
C169 C163 1.504 . S
C169 O181 1.239 . S
C169 O182 1.263 . S
O170 Tb160 2.325 1_554 S
O170 C180 1.236 . S
O171 Tb161 2.322 . S
O171 C180 1.257 . S
O172 Tb161 2.349 . S
O172 C183 1.261 . S
O173 Tb160 2.303 . S
O173 C183 1.257 1_556 S
O174 Tb161 2.415 1_556 S
O174 C190 1.239 . S
O175 Tb161 2.399 1_556 S
O175 C190 1.263 . S
O176 Tb161 2.325 1_556 S
O176 C191 1.236 . S
O177 Tb160 2.322 . S
O177 C191 1.257 . S
O178 Tb160 2.349 . S
O178 C162 1.261 . S
O179 Tb161 2.303 . S
O179 C162 1.257 1_554 S
C180 O170 1.236 . S
C180 O171 1.257 . S
O181 Tb160 2.415 1_554 S
O181 C169 1.239 . S
O182 Tb160 2.399 1_554 S
O182 C169 1.263 . S
C183 O172 1.261 . S
C183 O173 1.257 1_554 S
C184 C187 1.358 . S
C184 C188 1.332 . S
C184 C190 1.504 . S
C185 C186 1.373 . S
C185 C189 1.308 . S
C186 C185 1.373 . S
C186 C187 1.429 . S
C186 H196 0.932 . S
C187 C184 1.358 . S
C187 C186 1.429 . S
C187 H197 0.930 . S
C188 C184 1.332 . S
C188 C189 1.394 . S
C188 H198 0.932 . S
C189 C185 1.308 . S
C189 C188 1.394 . S
C189 H199 0.929 . S
C190 Tb161 2.764 1_556 S
C190 O174 1.239 . S
C190 O175 1.263 . S
C190 C184 1.504 . S
C191 O176 1.236 . S
C191 O177 1.257 . S
H192 C165 0.932 . S
H193 C166 0.930 . S
H194 C167 0.932 . S
H195 C168 0.929 . S
H196 C186 0.932 . S
H197 C187 0.930 . S
H198 C188 0.932 . S
H199 C189 0.929 . S
Tb200 C209 2.764 1_556 S
Tb200 O210 2.325 1_556 S
Tb200 O213 2.303 . S
Tb200 O217 2.322 . S
Tb200 O218 2.349 . S
Tb200 O221 2.415 1_556 S
Tb200 O222 2.399 1_556 S
Tb201 O211 2.322 . S
Tb201 O212 2.349 . S
Tb201 O214 2.415 1_554 S
Tb201 O215 2.399 1_554 S
Tb201 O216 2.325 1_554 S
Tb201 O219 2.303 . S
Tb201 C230 2.764 1_554 S
C202 O218 1.261 . S
C202 O219 1.257 1_556 S
C203 C206 1.358 . S
C203 C207 1.332 . S
C203 C209 1.504 . S
C204 C205 1.373 . S
C204 C208 1.308 . S
C205 C204 1.373 . S
C205 C206 1.429 . S
C205 H232 0.932 . S
C206 C203 1.358 . S
C206 C205 1.429 . S
C206 H233 0.930 . S
C207 C203 1.332 . S
C207 C208 1.394 . S
C207 H234 0.932 . S
C208 C204 1.308 . S
C208 C207 1.394 . S
C208 H235 0.929 . S
C209 Tb200 2.764 1_554 S
C209 C203 1.504 . S
C209 O221 1.239 . S
C209 O222 1.263 . S
O210 Tb200 2.325 1_554 S
O210 C220 1.236 . S
O211 Tb201 2.322 . S
O211 C220 1.257 . S
O212 Tb201 2.349 . S
O212 C223 1.261 . S
O213 Tb200 2.303 . S
O213 C223 1.257 1_556 S
O214 Tb201 2.415 1_556 S
O214 C230 1.239 . S
O215 Tb201 2.399 1_556 S
O215 C230 1.263 . S
O216 Tb201 2.325 1_556 S
O216 C231 1.236 . S
O217 Tb200 2.322 . S
O217 C231 1.257 . S
O218 Tb200 2.349 . S
O218 C202 1.261 . S
O219 Tb201 2.303 . S
O219 C202 1.257 1_554 S
C220 O210 1.236 . S
C220 O211 1.257 . S
O221 Tb200 2.415 1_554 S
O221 C209 1.239 . S
O222 Tb200 2.399 1_554 S
O222 C209 1.263 . S
C223 O212 1.261 . S
C223 O213 1.257 1_554 S
C224 C227 1.358 . S
C224 C228 1.332 . S
C224 C230 1.504 . S
C225 C226 1.373 . S
C225 C229 1.308 . S
C226 C225 1.373 . S
C226 C227 1.429 . S
C226 H236 0.932 . S
C227 C224 1.358 . S
C227 C226 1.429 . S
C227 H237 0.930 . S
C228 C224 1.332 . S
C228 C229 1.394 . S
C228 H238 0.932 . S
C229 C225 1.308 . S
C229 C228 1.394 . S
C229 H239 0.929 . S
C230 Tb201 2.764 1_556 S
C230 O214 1.239 . S
C230 O215 1.263 . S
C230 C224 1.504 . S
C231 O216 1.236 . S
C231 O217 1.257 . S
H232 C205 0.932 . S
H233 C206 0.930 . S
H234 C207 0.932 . S
H235 C208 0.929 . S
H236 C226 0.932 . S
H237 C227 0.930 . S
H238 C228 0.932 . S
H239 C229 0.929 . S
Tb240 C249 2.764 1_556 S
Tb240 O250 2.325 1_556 S
Tb240 O253 2.303 . S
Tb240 O257 2.322 . S
Tb240 O258 2.349 . S
Tb240 O261 2.415 1_556 S
Tb240 O262 2.399 1_556 S
Tb241 O251 2.322 . S
Tb241 O252 2.349 . S
Tb241 O254 2.415 1_554 S
Tb241 O255 2.399 1_554 S
Tb241 O256 2.325 1_554 S
Tb241 O259 2.303 . S
Tb241 C270 2.764 1_554 S
C242 O258 1.261 . S
C242 O259 1.257 1_556 S
C243 C246 1.358 . S
C243 C247 1.332 . S
C243 C249 1.504 . S
C244 C245 1.373 . S
C244 C248 1.308 . S
C245 C244 1.373 . S
C245 C246 1.429 . S
C245 H272 0.932 . S
C246 C243 1.358 . S
C246 C245 1.429 . S
C246 H273 0.930 . S
C247 C243 1.332 . S
C247 C248 1.394 . S
C247 H274 0.932 . S
C248 C244 1.308 . S
C248 C247 1.394 . S
C248 H275 0.929 . S
C249 Tb240 2.764 1_554 S
C249 C243 1.504 . S
C249 O261 1.239 . S
C249 O262 1.263 . S
O250 Tb240 2.325 1_554 S
O250 C260 1.236 . S
O251 Tb241 2.322 . S
O251 C260 1.257 . S
O252 Tb241 2.349 . S
O252 C263 1.261 . S
O253 Tb240 2.303 . S
O253 C263 1.257 1_556 S
O254 Tb241 2.415 1_556 S
O254 C270 1.239 . S
O255 Tb241 2.399 1_556 S
O255 C270 1.263 . S
O256 Tb241 2.325 1_556 S
O256 C271 1.236 . S
O257 Tb240 2.322 . S
O257 C271 1.257 . S
O258 Tb240 2.349 . S
O258 C242 1.261 . S
O259 Tb241 2.303 . S
O259 C242 1.257 1_554 S
C260 O250 1.236 . S
C260 O251 1.257 . S
O261 Tb240 2.415 1_554 S
O261 C249 1.239 . S
O262 Tb240 2.399 1_554 S
O262 C249 1.263 . S
C263 O252 1.261 . S
C263 O253 1.257 1_554 S
C264 C267 1.358 . S
C264 C268 1.332 . S
C264 C270 1.504 . S
C265 C266 1.373 . S
C265 C269 1.308 . S
C266 C265 1.373 . S
C266 C267 1.429 . S
C266 H276 0.932 . S
C267 C264 1.358 . S
C267 C266 1.429 . S
C267 H277 0.930 . S
C268 C264 1.332 . S
C268 C269 1.394 . S
C268 H278 0.932 . S
C269 C265 1.308 . S
C269 C268 1.394 . S
C269 H279 0.929 . S
C270 Tb241 2.764 1_556 S
C270 O254 1.239 . S
C270 O255 1.263 . S
C270 C264 1.504 . S
C271 O256 1.236 . S
C271 O257 1.257 . S
H272 C245 0.932 . S
H273 C246 0.930 . S
H274 C247 0.932 . S
H275 C248 0.929 . S
H276 C266 0.932 . S
H277 C267 0.930 . S
H278 C268 0.932 . S
H279 C269 0.929 . S
Tb280 C289 2.764 1_556 S
Tb280 O290 2.325 1_556 S
Tb280 O293 2.303 . S
Tb280 O297 2.322 . S
Tb280 O298 2.349 . S
Tb280 O301 2.415 1_556 S
Tb280 O302 2.399 1_556 S
Tb281 O291 2.322 . S
Tb281 O292 2.349 . S
Tb281 O294 2.415 1_554 S
Tb281 O295 2.399 1_554 S
Tb281 O296 2.325 1_554 S
Tb281 O299 2.303 . S
Tb281 C310 2.764 1_554 S
C282 O298 1.261 . S
C282 O299 1.257 1_556 S
C283 C286 1.358 . S
C283 C287 1.332 . S
C283 C289 1.504 . S
C284 C285 1.373 . S
C284 C288 1.308 . S
C285 C284 1.373 . S
C285 C286 1.429 . S
C285 H312 0.932 . S
C286 C283 1.358 . S
C286 C285 1.429 . S
C286 H313 0.930 . S
C287 C283 1.332 . S
C287 C288 1.394 . S
C287 H314 0.932 . S
C288 C284 1.308 . S
C288 C287 1.394 . S
C288 H315 0.929 . S
C289 Tb280 2.764 1_554 S
C289 C283 1.504 . S
C289 O301 1.239 . S
C289 O302 1.263 . S
O290 Tb280 2.325 1_554 S
O290 C300 1.236 . S
O291 Tb281 2.322 . S
O291 C300 1.257 . S
O292 Tb281 2.349 . S
O292 C303 1.261 . S
O293 Tb280 2.303 . S
O293 C303 1.257 1_556 S
O294 Tb281 2.415 1_556 S
O294 C310 1.239 . S
O295 Tb281 2.399 1_556 S
O295 C310 1.263 . S
O296 Tb281 2.325 1_556 S
O296 C311 1.236 . S
O297 Tb280 2.322 . S
O297 C311 1.257 . S
O298 Tb280 2.349 . S
O298 C282 1.261 . S
O299 Tb281 2.303 . S
O299 C282 1.257 1_554 S
C300 O290 1.236 . S
C300 O291 1.257 . S
O301 Tb280 2.415 1_554 S
O301 C289 1.239 . S
O302 Tb280 2.399 1_554 S
O302 C289 1.263 . S
C303 O292 1.261 . S
C303 O293 1.257 1_554 S
C304 C307 1.358 . S
C304 C308 1.332 . S
C304 C310 1.504 . S
C305 C306 1.373 . S
C305 C309 1.308 . S
C306 C305 1.373 . S
C306 C307 1.429 . S
C306 H316 0.932 . S
C307 C304 1.358 . S
C307 C306 1.429 . S
C307 H317 0.930 . S
C308 C304 1.332 . S
C308 C309 1.394 . S
C308 H318 0.932 . S
C309 C305 1.308 . S
C309 C308 1.394 . S
C309 H319 0.929 . S
C310 Tb281 2.764 1_556 S
C310 O294 1.239 . S
C310 O295 1.263 . S
C310 C304 1.504 . S
C311 O296 1.236 . S
C311 O297 1.257 . S
H312 C285 0.932 . S
H313 C286 0.930 . S
H314 C287 0.932 . S
H315 C288 0.929 . S
H316 C306 0.932 . S
H317 C307 0.930 . S
H318 C308 0.932 . S
H319 C309 0.929 . S
H320 C326 0.930 . S
H321 C329 0.930 . S
H322 C330 0.930 . S
H323 C331 0.930 . S
H324 C334 0.930 . S
H325 C335 0.930 . S
C326 H320 0.930 . S
C326 C327 1.355 . S
C326 C328 1.415 . S
C327 C326 1.355 . S
C327 C329 1.419 . S
C328 C326 1.415 . S
C328 C333 1.425 . S
C328 C335 1.409 . S
C329 H321 0.930 . S
C329 C327 1.419 . S
C329 C330 1.362 . S
C330 H322 0.930 . S
C330 C329 1.362 . S
C330 C333 1.409 . S
C331 H323 0.930 . S
C331 C332 1.355 . S
C331 C333 1.415 . S
C332 C331 1.355 . S
C332 C334 1.419 . S
C333 C328 1.425 . S
C333 C330 1.409 . S
C333 C331 1.415 . S
C334 H324 0.930 . S
C334 C332 1.419 . S
C334 C335 1.362 . S
C335 H325 0.930 . S
C335 C328 1.409 . S
C335 C334 1.362 . S
H336 C342 0.930 . S
H337 C345 0.930 . S
H338 C346 0.930 . S
H339 C347 0.930 . S
H340 C350 0.930 . S
H341 C351 0.930 . S
C342 H336 0.930 . S
C342 C343 1.355 . S
C342 C344 1.415 . S
C343 C342 1.355 . S
C343 C345 1.419 . S
C344 C342 1.415 . S
C344 C349 1.425 . S
C344 C351 1.409 . S
C345 H337 0.930 . S
C345 C343 1.419 . S
C345 C346 1.362 . S
C346 H338 0.930 . S
C346 C345 1.362 . S
C346 C349 1.409 . S
C347 H339 0.930 . S
C347 C348 1.355 . S
C347 C349 1.415 . S
C348 C347 1.355 . S
C348 C350 1.419 . S
C349 C344 1.425 . S
C349 C346 1.409 . S
C349 C347 1.415 . S
C350 H340 0.930 . S
C350 C348 1.419 . S
C350 C351 1.362 . S
C351 H341 0.930 . S
C351 C344 1.409 . S
C351 C350 1.362 . S
H352 C358 0.930 . S
H353 C361 0.930 . S
H354 C362 0.930 . S
H355 C363 0.930 . S
H356 C366 0.930 . S
H357 C367 0.930 . S
C358 H352 0.930 . S
C358 C359 1.355 . S
C358 C360 1.415 . S
C359 C358 1.355 . S
C359 C361 1.419 . S
C360 C358 1.415 . S
C360 C365 1.425 . S
C360 C367 1.409 . S
C361 H353 0.930 . S
C361 C359 1.419 . S
C361 C362 1.362 . S
C362 H354 0.930 . S
C362 C361 1.362 . S
C362 C365 1.409 . S
C363 H355 0.930 . S
C363 C364 1.355 . S
C363 C365 1.415 . S
C364 C363 1.355 . S
C364 C366 1.419 . S
C365 C360 1.425 . S
C365 C362 1.409 . S
C365 C363 1.415 . S
C366 H356 0.930 . S
C366 C364 1.419 . S
C366 C367 1.362 . S
C367 H357 0.930 . S
C367 C360 1.409 . S
C367 C366 1.362 . S
H368 C374 0.930 . S
H369 C377 0.930 . S
H370 C378 0.930 . S
H371 C379 0.930 . S
H372 C382 0.930 . S
H373 C383 0.930 . S
C374 H368 0.930 . S
C374 C375 1.355 . S
C374 C376 1.415 . S
C375 C374 1.355 . S
C375 C377 1.419 . S
C376 C374 1.415 . S
C376 C381 1.425 . S
C376 C383 1.409 . S
C377 H369 0.930 . S
C377 C375 1.419 . S
C377 C378 1.362 . S
C378 H370 0.930 . S
C378 C377 1.362 . S
C378 C381 1.409 . S
C379 H371 0.930 . S
C379 C380 1.355 . S
C379 C381 1.415 . S
C380 C379 1.355 . S
C380 C382 1.419 . S
C381 C376 1.425 . S
C381 C378 1.409 . S
C381 C379 1.415 . S
C382 H372 0.930 . S
C382 C380 1.419 . S
C382 C383 1.362 . S
C383 H373 0.930 . S
C383 C376 1.409 . S
C383 C382 1.362 . S
H384 C390 0.930 . S
H385 C393 0.930 . S
H386 C394 0.930 1_545 S
H387 C395 0.930 . S
H388 C398 0.930 . S
H389 C399 0.930 1_565 S
C390 H384 0.930 . S
C390 C391 1.355 . S
C390 C392 1.415 . S
C391 C390 1.355 . S
C391 C393 1.419 . S
C392 C390 1.415 . S
C392 C397 1.425 1_565 S
C392 C399 1.409 1_565 S
C393 H385 0.930 . S
C393 C391 1.419 . S
C393 C394 1.362 . S
C394 H386 0.930 1_565 S
C394 C393 1.362 . S
C394 C397 1.409 1_565 S
C395 H387 0.930 . S
C395 C396 1.355 . S
C395 C397 1.415 . S
C396 C395 1.355 . S
C396 C398 1.419 . S
C397 C392 1.425 1_545 S
C397 C394 1.409 1_545 S
C397 C395 1.415 . S
C398 H388 0.930 . S
C398 C396 1.419 . S
C398 C399 1.362 . S
C399 H389 0.930 1_545 S
C399 C392 1.409 1_545 S
C399 C398 1.362 . S
H400 C406 0.930 . S
H401 C409 0.930 . S
H402 C410 0.930 . S
H403 C411 0.930 . S
H404 C414 0.930 . S
H405 C415 0.930 . S
C406 H400 0.930 . S
C406 C407 1.355 . S
C406 C408 1.415 . S
C407 C406 1.355 . S
C407 C409 1.419 . S
C408 C406 1.415 . S
C408 C413 1.425 . S
C408 C415 1.409 . S
C409 H401 0.930 . S
C409 C407 1.419 . S
C409 C410 1.362 . S
C410 H402 0.930 . S
C410 C409 1.362 . S
C410 C413 1.409 . S
C411 H403 0.930 . S
C411 C412 1.355 . S
C411 C413 1.415 . S
C412 C411 1.355 . S
C412 C414 1.419 . S
C413 C408 1.425 . S
C413 C410 1.409 . S
C413 C411 1.415 . S
C414 H404 0.930 . S
C414 C412 1.419 . S
C414 C415 1.362 . S
C415 H405 0.930 . S
C415 C408 1.409 . S
C415 C414 1.362 . S
H416 C422 0.930 . S
H417 C425 0.930 . S
H418 C426 0.930 1_545 S
H419 C427 0.930 . S
H420 C430 0.930 . S
H421 C431 0.930 1_565 S
C422 H416 0.930 . S
C422 C423 1.355 . S
C422 C424 1.415 . S
C423 C422 1.355 . S
C423 C425 1.419 . S
C424 C422 1.415 . S
C424 C429 1.425 1_565 S
C424 C431 1.409 1_565 S
C425 H417 0.930 . S
C425 C423 1.419 . S
C425 C426 1.362 . S
C426 H418 0.930 1_565 S
C426 C425 1.362 . S
C426 C429 1.409 1_565 S
C427 H419 0.930 . S
C427 C428 1.355 . S
C427 C429 1.415 . S
C428 C427 1.355 . S
C428 C430 1.419 . S
C429 C424 1.425 1_545 S
C429 C426 1.409 1_545 S
C429 C427 1.415 . S
C430 H420 0.930 . S
C430 C428 1.419 . S
C430 C431 1.362 . S
C431 H421 0.930 1_545 S
C431 C424 1.409 1_545 S
C431 C430 1.362 . S
H432 C438 0.930 . S
H433 C441 0.930 . S
H434 C442 0.930 . S
H435 C443 0.930 . S
H436 C446 0.930 . S
H437 C447 0.930 . S
C438 H432 0.930 . S
C438 C439 1.355 . S
C438 C440 1.415 . S
C439 C438 1.355 . S
C439 C441 1.419 . S
C440 C438 1.415 . S
C440 C445 1.425 . S
C440 C447 1.409 . S
C441 H433 0.930 . S
C441 C439 1.419 . S
C441 C442 1.362 . S
C442 H434 0.930 . S
C442 C441 1.362 . S
C442 C445 1.409 . S
C443 H435 0.930 . S
C443 C444 1.355 . S
C443 C445 1.415 . S
C444 C443 1.355 . S
C444 C446 1.419 . S
C445 C440 1.425 . S
C445 C442 1.409 . S
C445 C443 1.415 . S
C446 H436 0.930 . S
C446 C444 1.419 . S
C446 C447 1.362 . S
C447 H437 0.930 . S
C447 C440 1.409 . S
C447 C446 1.362 . S
H448 C454 0.930 . S
H449 C457 0.930 . S
H450 C458 0.930 . S
H451 C459 0.930 . S
H452 C462 0.930 . S
H453 C463 0.930 . S
C454 H448 0.930 . S
C454 C455 1.355 1_556 S
C454 C456 1.415 . S
C455 C454 1.355 1_554 S
C455 C457 1.419 . S
C456 C454 1.415 . S
C456 C461 1.425 1_556 S
C456 C463 1.409 . S
C457 H449 0.930 . S
C457 C455 1.419 . S
C457 C458 1.362 . S
C458 H450 0.930 . S
C458 C457 1.362 . S
C458 C461 1.409 . S
C459 H451 0.930 . S
C459 C460 1.355 . S
C459 C461 1.415 . S
C460 C459 1.355 . S
C460 C462 1.419 1_554 S
C461 C456 1.425 1_554 S
C461 C458 1.409 . S
C461 C459 1.415 . S
C462 H452 0.930 . S
C462 C460 1.419 1_556 S
C462 C463 1.362 . S
C463 H453 0.930 . S
C463 C456 1.409 . S
C463 C462 1.362 . S
H464 C470 0.930 . S
H465 C473 0.930 . S
H466 C474 0.935 . S
H467 C475 0.930 1_556 S
H468 C478 0.930 . S
H469 C479 0.930 1_565 S
C470 H464 0.930 . S
C470 C471 1.355 . S
C470 C472 1.415 . S
C471 C470 1.355 . S
C471 C473 1.419 1_554 S
C472 C470 1.415 . S
C472 C477 1.425 1_565 S
C472 C479 1.409 1_565 S
C473 H465 0.930 . S
C473 C471 1.419 1_556 S
C473 C474 1.362 . S
C474 H466 0.935 . S
C474 C473 1.362 . S
C474 C477 1.409 1_566 S
C475 H467 0.930 1_554 S
C475 C476 1.355 . S
C475 C477 1.415 . S
C476 C475 1.355 . S
C476 C478 1.419 . S
C477 C472 1.425 1_545 S
C477 C474 1.409 1_544 S
C477 C475 1.415 . S
C478 H468 0.930 . S
C478 C476 1.419 . S
C478 C479 1.362 . S
C479 H469 0.930 1_545 S
C479 C472 1.409 1_545 S
C479 C478 1.362 . S
H480 C486 0.930 . S
H481 C489 0.930 . S
H482 C490 0.930 . S
H483 C491 0.930 . S
H484 C494 0.930 . S
H485 C495 0.930 . S
C486 H480 0.930 . S
C486 C487 1.355 . S
C486 C488 1.415 . S
C487 C486 1.355 . S
C487 C489 1.419 1_556 S
C488 C486 1.415 . S
C488 C493 1.425 1_556 S
C488 C495 1.409 . S
C489 H481 0.930 . S
C489 C487 1.419 1_554 S
C489 C490 1.362 . S
C490 H482 0.930 . S
C490 C489 1.362 . S
C490 C493 1.409 . S
C491 H483 0.930 . S
C491 C492 1.355 1_554 S
C491 C493 1.415 . S
C492 C491 1.355 1_556 S
C492 C494 1.419 . S
C493 C488 1.425 1_554 S
C493 C490 1.409 . S
C493 C491 1.415 . S
C494 H484 0.930 . S
C494 C492 1.419 . S
C494 C495 1.362 . S
C495 H485 0.930 . S
C495 C488 1.409 . S
C495 C494 1.362 . S
H496 C502 0.930 . S
H497 C505 0.930 . S
H498 C506 0.932 . S
H499 C507 0.930 . S
H500 C510 0.930 . S
H501 C511 0.930 1_545 S
C502 H496 0.930 . S
C502 C503 1.355 . S
C502 C504 1.415 . S
C503 C502 1.355 . S
C503 C505 1.419 . S
C504 C502 1.415 . S
C504 C509 1.425 1_545 S
C504 C511 1.409 1_545 S
C505 H497 0.930 . S
C505 C503 1.419 . S
C505 C506 1.362 . S
C506 H498 0.932 . S
C506 C505 1.362 . S
C506 C509 1.409 1_545 S
C507 H499 0.930 . S
C507 C508 1.355 . S
C507 C509 1.415 . S
C508 C507 1.355 . S
C508 C510 1.419 . S
C509 C504 1.425 1_565 S
C509 C506 1.409 1_565 S
C509 C507 1.415 . S
C510 H500 0.930 . S
C510 C508 1.419 . S
C510 C511 1.362 . S
C511 H501 0.930 1_565 S
C511 C504 1.409 1_565 S
C511 C510 1.362 . S
H512 C518 0.930 . S
H513 C521 0.930 . S
H514 C522 0.930 1_556 S
H515 C523 0.930 . S
H516 C526 0.930 . S
H517 C527 0.930 . S
C518 H512 0.930 . S
C518 C519 1.355 . S
C518 C520 1.415 1_554 S
C519 C518 1.355 . S
C519 C521 1.419 . S
C520 C518 1.415 1_556 S
C520 C525 1.425 . S
C520 C527 1.409 . S
C521 H513 0.930 . S
C521 C519 1.419 . S
C521 C522 1.362 . S
C522 H514 0.930 1_554 S
C522 C521 1.362 . S
C522 C525 1.409 1_554 S
C523 H515 0.930 . S
C523 C524 1.355 . S
C523 C525 1.415 . S
C524 C523 1.355 . S
C524 C526 1.419 . S
C525 C520 1.425 . S
C525 C522 1.409 1_556 S
C525 C523 1.415 . S
C526 H516 0.930 . S
C526 C524 1.419 . S
C526 C527 1.362 . S
C527 H517 0.930 . S
C527 C520 1.409 . S
C527 C526 1.362 . S
H528 C534 0.930 . S
H529 C537 0.930 . S
H530 C538 0.930 . S
H531 C539 0.930 . S
H532 C542 0.930 . S
H533 C543 0.930 . S
C534 H528 0.930 . S
C534 C535 1.355 . S
C534 C536 1.415 1_554 S
C535 C534 1.355 . S
C535 C537 1.419 . S
C536 C534 1.415 1_556 S
C536 C541 1.425 . S
C536 C543 1.409 . S
C537 H529 0.930 . S
C537 C535 1.419 . S
C537 C538 1.362 1_554 S
C538 H530 0.930 . S
C538 C537 1.362 1_556 S
C538 C541 1.409 . S
C539 H531 0.930 . S
C539 C540 1.355 . S
C539 C541 1.415 . S
C540 C539 1.355 . S
C540 C542 1.419 . S
C541 C536 1.425 . S
C541 C538 1.409 . S
C541 C539 1.415 . S
C542 H532 0.930 . S
C542 C540 1.419 . S
C542 C543 1.362 . S
C543 H533 0.930 . S
C543 C536 1.409 . S
C543 C542 1.362 . S
H544 C550 0.930 . S
H545 C553 0.930 . S
H546 C554 0.930 . S
H547 C555 0.930 . S
H548 C558 0.930 . S
H549 C559 0.930 . S
C550 H544 0.930 . S
C550 C551 1.355 . S
C550 C552 1.415 . S
C551 C550 1.355 . S
C551 C553 1.419 . S
C552 C550 1.415 . S
C552 C557 1.425 . S
C552 C559 1.409 . S
C553 H545 0.930 . S
C553 C551 1.419 . S
C553 C554 1.362 . S
C554 H546 0.930 . S
C554 C553 1.362 . S
C554 C557 1.409 . S
C555 H547 0.930 . S
C555 C556 1.355 . S
C555 C557 1.415 1_556 S
C556 C555 1.355 . S
C556 C558 1.419 . S
C557 C552 1.425 . S
C557 C554 1.409 . S
C557 C555 1.415 1_554 S
C558 H548 0.930 . S
C558 C556 1.419 . S
C558 C559 1.362 1_556 S
C559 H549 0.930 . S
C559 C552 1.409 . S
C559 C558 1.362 1_554 S
H560 C566 0.930 . S
H561 C569 0.930 . S
H562 C570 0.930 . S
H563 C571 0.930 . S
H564 C574 0.930 . S
H565 C575 0.930 . S
C566 H560 0.930 . S
C566 C567 1.355 . S
C566 C568 1.415 1_556 S
C567 C566 1.355 . S
C567 C569 1.419 . S
C568 C566 1.415 1_554 S
C568 C573 1.425 . S
C568 C575 1.409 . S
C569 H561 0.930 . S
C569 C567 1.419 . S
C569 C570 1.362 . S
C570 H562 0.930 . S
C570 C569 1.362 . S
C570 C573 1.409 1_556 S
C571 H563 0.930 . S
C571 C572 1.355 . S
C571 C573 1.415 . S
C572 C571 1.355 . S
C572 C574 1.419 . S
C573 C568 1.425 . S
C573 C570 1.409 1_554 S
C573 C571 1.415 . S
C574 H564 0.930 . S
C574 C572 1.419 . S
C574 C575 1.362 . S
C575 H565 0.930 . S
C575 C568 1.409 . S
C575 C574 1.362 . S
H576 C582 0.930 . S
H577 C585 0.930 . S
H578 C586 0.930 . S
H579 C587 0.930 . S
H580 C590 0.930 . S
H581 C591 0.930 . S
C582 H576 0.930 . S
C582 C583 1.355 . S
C582 C584 1.415 . S
C583 C582 1.355 . S
C583 C585 1.419 . S
C584 C582 1.415 . S
C584 C589 1.425 . S
C584 C591 1.409 . S
C585 H577 0.930 . S
C585 C583 1.419 . S
C585 C586 1.362 . S
C586 H578 0.930 . S
C586 C585 1.362 . S
C586 C589 1.409 . S
C587 H579 0.930 . S
C587 C588 1.355 . S
C587 C589 1.415 . S
C588 C587 1.355 . S
C588 C590 1.419 . S
C589 C584 1.425 . S
C589 C586 1.409 . S
C589 C587 1.415 . S
C590 H580 0.930 . S
C590 C588 1.419 . S
C590 C591 1.362 . S
C591 H581 0.930 . S
C591 C584 1.409 . S
C591 C590 1.362 . S
H592 C598 0.930 . S
H593 C601 0.930 . S
H594 C602 0.930 . S
H595 C603 0.930 . S
H596 C606 0.930 . S
H597 C607 0.930 . S
C598 H592 0.930 . S
C598 C599 1.355 . S
C598 C600 1.415 . S
C599 C598 1.355 . S
C599 C601 1.419 . S
C600 C598 1.415 . S
C600 C605 1.425 . S
C600 C607 1.409 . S
C601 H593 0.930 . S
C601 C599 1.419 . S
C601 C602 1.362 . S
C602 H594 0.930 . S
C602 C601 1.362 . S
C602 C605 1.409 . S
C603 H595 0.930 . S
C603 C604 1.355 . S
C603 C605 1.415 . S
C604 C603 1.355 . S
C604 C606 1.419 . S
C605 C600 1.425 . S
C605 C602 1.409 . S
C605 C603 1.415 . S
C606 H596 0.930 . S
C606 C604 1.419 . S
C606 C607 1.362 . S
C607 H597 0.930 . S
C607 C600 1.409 . S
C607 C606 1.362 . S
H608 C614 0.930 . S
H609 C617 0.930 . S
H610 C618 0.930 . S
H611 C619 0.930 . S
H612 C622 0.930 . S
H613 C623 0.930 . S
C614 H608 0.930 . S
C614 C615 1.355 . S
C614 C616 1.415 . S
C615 C614 1.355 . S
C615 C617 1.419 . S
C616 C614 1.415 . S
C616 C621 1.425 . S
C616 C623 1.409 . S
C617 H609 0.930 . S
C617 C615 1.419 . S
C617 C618 1.362 . S
C618 H610 0.930 . S
C618 C617 1.362 . S
C618 C621 1.409 . S
C619 H611 0.930 . S
C619 C620 1.355 . S
C619 C621 1.415 . S
C620 C619 1.355 . S
C620 C622 1.419 . S
C621 C616 1.425 . S
C621 C618 1.409 . S
C621 C619 1.415 . S
C622 H612 0.930 . S
C622 C620 1.419 . S
C622 C623 1.362 . S
C623 H613 0.930 . S
C623 C616 1.409 . S
C623 C622 1.362 . S
H624 C630 0.930 . S
H625 C633 0.930 . S
H626 C634 0.930 . S
H627 C635 0.930 . S
H628 C638 0.930 . S
H629 C639 0.930 . S
C630 H624 0.930 . S
C630 C631 1.355 . S
C630 C632 1.415 . S
C631 C630 1.355 . S
C631 C633 1.419 . S
C632 C630 1.415 . S
C632 C637 1.425 . S
C632 C639 1.409 . S
C633 H625 0.930 . S
C633 C631 1.419 . S
C633 C634 1.362 . S
C634 H626 0.930 . S
C634 C633 1.362 . S
C634 C637 1.409 . S
C635 H627 0.930 . S
C635 C636 1.355 . S
C635 C637 1.415 . S
C636 C635 1.355 . S
C636 C638 1.419 . S
C637 C632 1.425 . S
C637 C634 1.409 . S
C637 C635 1.415 . S
C638 H628 0.930 . S
C638 C636 1.419 . S
C638 C639 1.362 . S
C639 H629 0.930 . S
C639 C632 1.409 . S
C639 C638 1.362 . S
H640 C646 0.930 . S
H641 C649 0.930 . S
H642 C650 0.930 . S
H643 C651 0.930 . S
H644 C654 0.930 . S
H645 C655 0.930 . S
C646 H640 0.930 . S
C646 C647 1.355 . S
C646 C648 1.415 . S
C647 C646 1.355 . S
C647 C649 1.419 . S
C648 C646 1.415 . S
C648 C653 1.425 1_455 S
C648 C655 1.409 1_455 S
C649 H641 0.930 . S
C649 C647 1.419 . S
C649 C650 1.362 . S
C650 H642 0.930 . S
C650 C649 1.362 . S
C650 C653 1.409 1_455 S
C651 H643 0.930 . S
C651 C652 1.355 . S
C651 C653 1.415 . S
C652 C651 1.355 . S
C652 C654 1.419 . S
C653 C648 1.425 1_655 S
C653 C650 1.409 1_655 S
C653 C651 1.415 . S
C654 H644 0.930 . S
C654 C652 1.419 . S
C654 C655 1.362 . S
C655 H645 0.930 . S
C655 C648 1.409 1_655 S
C655 C654 1.362 . S
H656 C662 0.930 . S
H657 C665 0.930 . S
H658 C666 0.930 . S
H659 C667 0.930 . S
H660 C670 0.930 . S
H661 C671 0.930 . S
C662 H656 0.930 . S
C662 C663 1.355 . S
C662 C664 1.415 . S
C663 C662 1.355 . S
C663 C665 1.419 . S
C664 C662 1.415 . S
C664 C669 1.425 1_655 S
C664 C671 1.409 1_655 S
C665 H657 0.930 . S
C665 C663 1.419 . S
C665 C666 1.362 . S
C666 H658 0.930 . S
C666 C665 1.362 . S
C666 C669 1.409 1_655 S
C667 H659 0.930 . S
C667 C668 1.355 . S
C667 C669 1.415 . S
C668 C667 1.355 . S
C668 C670 1.419 . S
C669 C664 1.425 1_455 S
C669 C666 1.409 1_455 S
C669 C667 1.415 . S
C670 H660 0.930 . S
C670 C668 1.419 . S
C670 C671 1.362 . S
C671 H661 0.930 . S
C671 C664 1.409 1_455 S
C671 C670 1.362 . S
H672 C678 0.930 . S
H673 C681 0.930 . S
H674 C682 0.930 . S
H675 C683 0.930 . S
H676 C686 0.930 . S
H677 C687 0.930 . S
C678 H672 0.930 . S
C678 C679 1.355 . S
C678 C680 1.415 . S
C679 C678 1.355 . S
C679 C681 1.419 . S
C680 C678 1.415 . S
C680 C685 1.425 . S
C680 C687 1.409 . S
C681 H673 0.930 . S
C681 C679 1.419 . S
C681 C682 1.362 . S
C682 H674 0.930 . S
C682 C681 1.362 . S
C682 C685 1.409 . S
C683 H675 0.930 . S
C683 C684 1.355 . S
C683 C685 1.415 . S
C684 C683 1.355 . S
C684 C686 1.419 . S
C685 C680 1.425 . S
C685 C682 1.409 . S
C685 C683 1.415 . S
C686 H676 0.930 . S
C686 C684 1.419 . S
C686 C687 1.362 . S
C687 H677 0.930 . S
C687 C680 1.409 . S
C687 C686 1.362 . S
H688 C694 0.930 . S
H689 C697 0.930 . S
H690 C698 0.930 . S
H691 C699 0.930 . S
H692 C702 0.930 . S
H693 C703 0.930 . S
C694 H688 0.930 . S
C694 C695 1.355 . S
C694 C696 1.415 . S
C695 C694 1.355 . S
C695 C697 1.419 . S
C696 C694 1.415 . S
C696 C701 1.425 . S
C696 C703 1.409 . S
C697 H689 0.930 . S
C697 C695 1.419 . S
C697 C698 1.362 . S
C698 H690 0.930 . S
C698 C697 1.362 . S
C698 C701 1.409 . S
C699 H691 0.930 . S
C699 C700 1.355 . S
C699 C701 1.415 . S
C700 C699 1.355 . S
C700 C702 1.419 . S
C701 C696 1.425 . S
C701 C698 1.409 . S
C701 C699 1.415 . S
C702 H692 0.930 . S
C702 C700 1.419 . S
C702 C703 1.362 . S
C703 H693 0.930 . S
C703 C696 1.409 . S
C703 C702 1.362 . S
C327 C4 1.604 . S
C332 C305 1.604 . S
C343 C265 1.613 . S
C348 C44 1.613 . S
C359 C204 1.610 . S
C364 C105 1.610 . S
C375 C164 1.606 . S
C380 C145 1.605 . S
C391 C103 1.506 . S
C396 C23 1.518 . S
C407 C63 1.519 . S
C412 C143 1.507 . S
C423 C122 1.539 . S
C428 C42 1.533 . S
C439 C82 1.554 . S
C444 C2 1.533 . S
C455 C183 1.430 . S
C460 C263 1.429 . S
C471 C223 1.430 . S
C476 C303 1.436 . S
C487 C282 1.429 . S
C492 C202 1.433 . S
C503 C242 1.431 . S
C508 C162 1.428 . S
C519 C31 1.888 . S
C524 C20 1.888 . S
C535 C71 1.902 . S
C540 C60 1.902 . S
C551 C111 1.902 . S
C556 C100 1.902 . S
C567 C140 1.895 . S
C572 C151 1.895 . S
C583 C180 1.886 . S
C588 C191 1.886 . S
C599 C231 1.898 . S
C604 C220 1.898 . S
C615 C260 1.891 . S
C620 C271 1.891 . S
C631 C300 1.918 . S
C636 C311 1.918 . S
C647 C25 2.077 . S
C652 C65 2.075 . S
C663 C124 2.074 . S
C668 C84 2.087 . S
C679 C185 2.091 . S
C684 C225 2.069 . S
C695 C284 2.086 . S
C700 C244 2.076 . S
