# Generated by pormake.
# Topology rob, (6)-cn, num edge types: 1
# Building blocks:
#     Node 0, Type 0, BuildingBlock: BETDIP_clean_sbu_0, # of connection points: 6
#     Node 1, Type 0, BuildingBlock: BETDIP_clean_sbu_0, # of connection points: 6
#     Node 2, Type 0, BuildingBlock: BETDIP_clean_sbu_0, # of connection points: 6
#     Node 3, Type 0, BuildingBlock: BETDIP_clean_sbu_0, # of connection points: 6
#     Edge 4, Type (0, 0), BuildingBlock: MIFKUJ_clean_linker_0, # of connection points: 2
#     Edge 5, Type (0, 0), BuildingBlock: MIFKUJ_clean_linker_0, # of connection points: 2
#     Edge 6, Type (0, 0), BuildingBlock: MIFKUJ_clean_linker_0, # of connection points: 2
#     Edge 7, Type (0, 0), BuildingBlock: MIFKUJ_clean_linker_0, # of connection points: 2
#     Edge 8, Type (0, 0), BuildingBlock: MIFKUJ_clean_linker_0, # of connection points: 2
#     Edge 9, Type (0, 0), BuildingBlock: MIFKUJ_clean_linker_0, # of connection points: 2
#     Edge 10, Type (0, 0), BuildingBlock: MIFKUJ_clean_linker_0, # of connection points: 2
#     Edge 11, Type (0, 0), BuildingBlock: MIFKUJ_clean_linker_0, # of connection points: 2
#     Edge 12, Type (0, 0), BuildingBlock: MIFKUJ_clean_linker_0, # of connection points: 2
#     Edge 13, Type (0, 0), BuildingBlock: MIFKUJ_clean_linker_0, # of connection points: 2
#     Edge 14, Type (0, 0), BuildingBlock: MIFKUJ_clean_linker_0, # of connection points: 2
#     Edge 15, Type (0, 0), BuildingBlock: MIFKUJ_clean_linker_0, # of connection points: 2
# Relax obj value: 0.033
# Max RMSD: 0.130
# Mean RMSD: 0.130
data_MOF--net-rob--node1-BETDIP_clean_sbu_0--edge1-MIFKUJ_clean_linker_0
_symmetry_space_group_name_H-M    P1
_symmetry_Int_Tables_number       1
_symmetry_cell_setting            triclinic
loop_
_symmetry_equiv_pos_as_xyz
'x, y, z'
_cell_length_a     18.411666
_cell_length_b     32.612629
_cell_length_c     45.119592
_cell_angle_alpha  94.725406
_cell_angle_beta   90.202247
_cell_angle_gamma 90.041479
loop_
_atom_site_label
_atom_site_type_symbol
_atom_site_fract_x
_atom_site_fract_y
_atom_site_fract_z
_atom_type_partial_charge
Tb0 Tb 0.18042 0.28175 0.03084 0.0
Tb1 Tb 0.32001 0.24941 1.00307 0.0
C2 C 0.0727 0.28829 0.0649 0.0
C3 C 0.06402 0.28632 0.09735 0.0
C4 C 0.09777 0.25535 0.11244 0.0
C5 C 0.08967 0.25435 0.14323 0.0
C6 C 0.04833 0.2845 0.15959 0.0
C7 C 0.01531 0.31566 0.14447 0.0
C8 C 0.02294 0.31647 0.11367 0.0
C9 C 0.2709 0.3385 0.01579 0.0
C10 C 0.31761 0.25918 0.07147 0.0
C11 C 0.42889 0.2428 0.96967 0.0
C12 C 0.4383 0.24324 0.93726 0.0
C13 C 0.4988 0.26303 0.92622 0.0
C14 C 0.50667 0.26582 0.89565 0.0
C15 C 0.45403 0.24889 0.8755 0.0
C16 C 0.39354 0.22883 0.88662 0.0
C17 C 0.38572 0.22608 0.91724 0.0
C18 C 0.22848 0.19287 0.01798 0.0
C19 C 0.18365 0.27271 0.96222 0.0
O20 O 0.0906 0.25401 0.04946 0.0
O21 O 0.10898 0.31995 0.0567 0.0
O22 O 0.28758 0.30544 0.02681 0.0
O23 O 0.20066 0.34195 0.01481 0.0
O24 O 0.24735 0.26702 0.06896 0.0
O25 O 0.36097 0.25432 0.04822 0.0
O26 O 0.40794 0.27769 0.9834 0.0
O27 O 0.39431 0.21121 0.97897 0.0
O28 O 0.21282 0.22599 1.00694 0.0
O29 O 0.29865 0.18907 0.01905 0.0
O30 O 0.2535 0.26379 0.96474 0.0
O31 O 0.14017 0.2782 0.98547 0.0
H32 H 0.13052 0.2319 0.10051 0.0
H33 H 0.1163 0.23019 0.15427 0.0
H34 H 0.98241 0.33905 0.15639 0.0
H35 H 0.99668 0.34071 0.10256 0.0
H36 H 0.53976 0.27664 0.94129 0.0
H37 H 0.55434 0.28102 0.88778 0.0
H38 H 0.35163 0.21594 0.87172 0.0
H39 H 0.33828 0.21088 0.92527 0.0
Tb40 Tb 0.66867 0.78014 0.03016 0.0
Tb41 Tb 0.8155 0.75717 1.00418 0.0
C42 C 0.55753 0.77917 0.06207 0.0
C43 C 0.54704 0.77947 0.09459 0.0
C44 C 0.51049 0.74664 0.10621 0.0
C45 C 0.50191 0.74558 0.13691 0.0
C46 C 0.52914 0.77757 0.15674 0.0
C47 C 0.56638 0.81026 0.14504 0.0
C48 C 0.57541 0.81116 0.11433 0.0
C49 C 0.75348 0.84241 0.02036 0.0
C50 C 0.8037 0.76114 0.07273 0.0
C51 C 0.92915 0.75938 0.97365 0.0
C52 C 0.94581 0.75867 0.94158 0.0
C53 C 0.99129 0.78905 0.9315 0.0
C54 C 0.00755 0.78939 0.90127 0.0
C55 C 0.97911 0.75906 0.88037 0.0
C56 C 0.93303 0.72875 0.89058 0.0
C57 C 0.91629 0.72866 0.92082 0.0
C58 C 0.73166 0.69476 0.01446 0.0
C59 C 0.67851 0.77432 0.96164 0.0
O60 O 0.58738 0.74587 0.0493 0.0
O61 O 0.58353 0.81273 0.05198 0.0
O62 O 0.77258 0.80886 0.02989 0.0
O63 O 0.68323 0.84326 0.01798 0.0
O64 O 0.73271 0.76483 0.06886 0.0
O65 O 0.84991 0.76174 0.05039 0.0
O66 O 0.89572 0.79233 0.98514 0.0
O67 O 0.90307 0.72559 0.98335 0.0
O68 O 0.71204 0.72815 1.00479 0.0
O69 O 0.80203 0.69405 0.0164 0.0
O70 O 0.74975 0.77035 0.96519 0.0
O71 O 0.63292 0.77498 0.98424 0.0
H72 H 0.48892 0.72159 0.0915 0.0
H73 H 0.47421 0.7195 0.14509 0.0
H74 H 0.58744 0.83563 0.15956 0.0
H75 H 0.60464 0.83671 0.10612 0.0
H76 H 0.0141 0.81275 0.94707 0.0
H77 H 0.04195 0.81372 0.8943 0.0
H78 H 0.91071 0.70461 0.8753 0.0
H79 H 0.88048 0.70501 0.9279 0.0
Tb80 Tb 0.18018 0.75726 0.50412 0.0
Tb81 Tb 0.32414 0.78495 0.53012 0.0
C82 C 0.06668 0.75397 0.47276 0.0
C83 C 0.05152 0.75432 0.44057 0.0
C84 C 0.0907 0.77978 0.42264 0.0
C85 C 0.07663 0.77886 0.39207 0.0
C86 C 0.02298 0.75253 0.37877 0.0
C87 C 0.98373 0.72726 0.39688 0.0
C88 C 0.99794 0.72815 0.42742 0.0
C89 C 0.26912 0.69757 0.51547 0.0
C90 C 0.31461 0.77906 0.46197 0.0
C91 C 0.43757 0.78935 0.56116 0.0
C92 C 0.45182 0.78738 0.59332 0.0
C93 C 0.46632 0.7495 0.60493 0.0
C94 C 0.4777 0.74753 0.6354 0.0
C95 C 0.475 0.78339 0.6549 0.0
C96 C 0.46104 0.82127 0.64329 0.0
C97 C 0.44988 0.82328 0.61282 0.0
C98 C 0.23441 0.84441 0.51856 0.0
C99 C 0.19315 0.76169 0.57279 0.0
O100 O 0.09242 0.78804 0.48626 0.0
O101 O 0.10005 0.72136 0.481 0.0
O102 O 0.28611 0.73103 0.5052 0.0
O103 O 0.19901 0.6954 0.51787 0.0
O104 O 0.24379 0.77338 0.46534 0.0
O105 O 0.36013 0.78043 0.48463 0.0
O106 O 0.41488 0.75532 0.54658 0.0
O107 O 0.40221 0.82167 0.55347 0.0
O108 O 0.218 0.81107 0.5291 0.0
O109 O 0.30442 0.84654 0.51588 0.0
O110 O 0.26372 0.76676 0.56876 0.0
O111 O 0.14625 0.76126 0.55044 0.0
H112 H 0.13249 0.80025 0.43216 0.0
H113 H 0.10853 0.79837 0.3788 0.0
H114 H 0.94128 0.70709 0.38753 0.0
H115 H 0.967 0.70832 0.44081 0.0
H116 H 0.46848 0.72126 0.59052 0.0
H117 H 0.48795 0.71787 0.64375 0.0
H118 H 0.45989 0.84951 0.65771 0.0
H119 H 0.43957 0.85302 0.60459 0.0
Tb120 Tb 0.67501 0.25743 0.50414 0.0
Tb121 Tb 0.82027 0.28174 0.5316 0.0
C122 C 0.56066 0.25667 0.47345 0.0
C123 C 0.54486 0.25615 0.44141 0.0
C124 C 0.48086 0.27421 0.43182 0.0
C125 C 0.46574 0.27462 0.40144 0.0
C126 C 0.51462 0.25708 0.38007 0.0
C127 C 0.57895 0.23912 0.38986 0.0
C128 C 0.59384 0.2386 0.42024 0.0
C129 C 0.76186 0.19602 0.5142 0.0
C130 C 0.80996 0.27845 0.46268 0.0
C131 C 0.93588 0.27992 0.56134 0.0
C132 C 0.95736 0.2827 0.59301 0.0
C133 C 0.0054 0.25338 0.60297 0.0
C134 C 0.02585 0.25475 0.63291 0.0
C135 C 0.99895 0.28569 0.65354 0.0
C136 C 0.95143 0.31537 0.64339 0.0
C137 C 0.93045 0.31374 0.61348 0.0
C138 C 0.73455 0.34343 0.52124 0.0
C139 C 0.68339 0.26252 0.57305 0.0
O140 O 0.59071 0.29041 0.48556 0.0
O141 O 0.59101 0.22352 0.48237 0.0
O142 O 0.77993 0.22995 0.50506 0.0
O143 O 0.69166 0.19427 0.51601 0.0
O144 O 0.73871 0.27476 0.46587 0.0
O145 O 0.855 0.27699 0.48547 0.0
O146 O 0.89924 0.24695 0.55187 0.0
O147 O 0.91029 0.31329 0.55078 0.0
O148 O 0.71576 0.30957 0.53039 0.0
O149 O 0.80494 0.345 0.51991 0.0
O150 O 0.75426 0.26914 0.57062 0.0
O151 O 0.63899 0.26051 0.54992 0.0
H152 H 0.44248 0.28796 0.44784 0.0
H153 H 0.4153 0.28824 0.39471 0.0
H154 H 0.61832 0.22591 0.37406 0.0
H155 H 0.64384 0.22468 0.42718 0.0
H156 H 0.02687 0.22918 0.58755 0.0
H157 H 0.06308 0.23168 0.63987 0.0
H158 H 0.92908 0.3394 0.65864 0.0
H159 H 0.89284 0.33659 0.60646 0.0
H160 H 0.76965 0.61907 0.03075 0.0
H161 H 0.6927 0.55774 0.03079 0.0
H162 H 0.51034 0.62695 1.00132 0.0
H163 H 0.58718 0.68826 1.00106 0.0
H164 H 0.47293 0.57836 0.04576 0.0
H165 H 0.59899 0.56314 0.95261 0.0
H166 H 0.70624 0.5601 0.91995 0.0
H167 H 0.78797 0.45677 0.9629 0.0
H168 H 0.68164 0.45958 0.99614 0.0
H169 H 0.2387 0.41409 0.99803 0.0
H170 H 0.31923 0.47378 0.99773 0.0
H171 H 0.49698 0.40157 0.02782 0.0
H172 H 0.41641 0.34169 0.0283 0.0
H173 H 0.53837 0.45097 0.98383 0.0
H174 H 0.41165 0.4656 0.07656 0.0
H175 H 0.30449 0.46862 0.10927 0.0
H176 H 0.22427 0.57314 0.06729 0.0
H177 H 0.33049 0.57034 0.03399 0.0
C178 C 0.71308 0.6212 0.02439 0.0
C179 C 0.68433 0.6584 0.01593 0.0
C180 C 0.66926 0.58614 0.02433 0.0
C181 C 0.59594 0.58766 0.01578 0.0
C182 C 0.56674 0.62508 1.008 0.0
C183 C 0.61065 0.66009 1.0079 0.0
C184 C 0.54989 0.55013 0.0146 0.0
C185 C 0.48674 0.55068 0.03193 0.0
C186 C 0.56884 0.51369 0.99709 0.0
C187 C 0.63274 0.51185 0.97708 0.0
C188 C 0.64014 0.53999 0.95527 0.0
C189 C 0.70071 0.53827 0.93662 0.0
C190 C 0.754 0.50833 0.9394 0.0
C191 C 0.74671 0.47998 0.9608 0.0
C192 C 0.68628 0.48161 0.97954 0.0
C193 C 0.29507 0.41085 1.00439 0.0
C194 C 0.32128 0.37331 0.01327 0.0
C195 C 0.34095 0.445 1.0043 0.0
C196 C 0.41387 0.44227 0.01312 0.0
C197 C 0.44086 0.40437 0.02099 0.0
C198 C 0.39484 0.3702 0.02122 0.0
C199 C 0.46124 0.47929 0.01488 0.0
C200 C 0.52463 0.47863 0.99768 0.0
C201 C 0.44255 0.51565 0.03253 0.0
C202 C 0.37867 0.51749 0.05256 0.0
C203 C 0.37085 0.489 0.07412 0.0
C204 C 0.31034 0.49072 0.0928 0.0
C205 C 0.25751 0.52098 0.0903 0.0
C206 C 0.26519 0.54967 0.06916 0.0
C207 C 0.32556 0.54805 0.05039 0.0
H208 H 0.21071 0.52227 0.1048 0.0
H209 H 0.80084 0.50704 0.92493 0.0
H210 H 0.23852 0.62327 0.53593 0.0
H211 H 0.31922 0.5638 0.53728 0.0
H212 H 0.49284 0.63296 0.50103 0.0
H213 H 0.41189 0.69236 0.49926 0.0
H214 H 0.48266 0.55649 0.47302 0.0
H215 H 0.49318 0.61501 0.5736 0.0
H216 H 0.44317 0.64286 0.62171 0.0
H217 H 0.34206 0.52658 0.63326 0.0
H218 H 0.39049 0.4982 0.58494 0.0
H219 H 0.76868 0.41831 0.50252 0.0
H220 H 0.69004 0.47879 0.50177 0.0
H221 H 0.51285 0.4102 0.5359 0.0
H222 H 0.59156 0.34971 0.5369 0.0
H223 H 0.5263 0.48694 0.5652 0.0
H224 H 0.51531 0.42907 0.46391 0.0
H225 H 0.56616 0.40177 0.4158 0.0
H226 H 0.67008 0.51774 0.40588 0.0
H227 H 0.62069 0.54556 0.45418 0.0
C228 C 0.29401 0.62583 0.5284 0.0
C229 C 0.31904 0.66245 0.51761 0.0
C230 C 0.34016 0.59189 0.52926 0.0
C231 C 0.41234 0.59397 0.51946 0.0
C232 C 0.43743 0.63062 0.50871 0.0
C233 C 0.39128 0.66461 0.50789 0.0
C234 C 0.46111 0.55766 0.51997 0.0
C235 C 0.49304 0.54165 0.49326 0.0
C236 C 0.47351 0.53775 0.54626 0.0
C237 C 0.44494 0.55458 0.5755 0.0
C238 C 0.45984 0.59545 0.58628 0.0
C239 C 0.43184 0.61133 0.61361 0.0
C240 C 0.38934 0.58653 0.63051 0.0
C241 C 0.37493 0.54576 0.62014 0.0
C242 C 0.40269 0.52975 0.59279 0.0
C243 C 0.71285 0.41611 0.50972 0.0
C244 C 0.6861 0.37931 0.51964 0.0
C245 C 0.66793 0.45064 0.50923 0.0
C246 C 0.59536 0.44898 0.5186 0.0
C247 C 0.56862 0.4122 0.52857 0.0
C248 C 0.61348 0.37761 0.52896 0.0
C249 C 0.54764 0.48573 0.51823 0.0
C250 C 0.51594 0.50182 0.54497 0.0
C251 C 0.53565 0.50581 0.49199 0.0
C252 C 0.56485 0.48928 0.46281 0.0
C253 C 0.54945 0.44866 0.45158 0.0
C254 C 0.57793 0.4331 0.42426 0.0
C255 C 0.62147 0.45797 0.40783 0.0
C256 C 0.63642 0.4985 0.41865 0.0
C257 C 0.60814 0.51419 0.44599 0.0
H258 H 0.64351 0.44588 0.38668 0.0
H259 H 0.36769 0.59888 0.65166 0.0
H260 H 0.25742 0.11733 0.03675 0.0
H261 H 0.1745 0.05866 0.03737 0.0
H262 H 0.00093 0.13202 1.00508 0.0
H263 H 0.08372 0.1908 1.00442 0.0
H264 H 0.95447 0.08522 0.04879 0.0
H265 H 0.08826 0.06455 0.95797 0.0
H266 H 0.19796 0.05834 0.92675 0.0
H267 H 0.26855 0.9548 0.97226 0.0
H268 H 0.15973 0.96078 1.00409 0.0
H269 H 0.71816 0.91825 1.00329 0.0
H270 H 0.79715 0.9788 1.00308 0.0
H271 H 0.97586 0.90856 0.03462 0.0
H272 H 0.8972 0.84809 0.03489 0.0
H273 H 0.01802 0.95458 0.99046 0.0
H274 H 0.88436 0.97587 0.08165 0.0
H275 H 0.77467 0.98239 0.11286 0.0
H276 H 0.70341 0.08494 0.06642 0.0
H277 H 0.81221 0.07863 0.0346 0.0
C278 C 0.20145 0.121 0.02998 0.0
C279 C 0.17701 0.15856 0.02049 0.0
C280 C 0.15421 0.08744 0.03024 0.0
C281 C 0.08173 0.09078 0.0209 0.0
C282 C 0.05662 0.12872 0.01234 0.0
C283 C 0.10394 0.16228 1.012 0.0
C284 C 0.0327 0.05443 0.01942 0.0
C285 C 0.96785 0.05683 0.03572 0.0
C286 C 0.05078 1.01714 1.00277 0.0
C287 C 0.1162 1.01339 0.98362 0.0
C288 C 0.12747 0.04067 0.9615 0.0
C289 C 0.18945 0.03716 0.94366 0.0
C290 C 0.24029 1.00626 0.94757 0.0
C291 C 0.22917 0.97875 0.96929 0.0
C292 C 0.16733 0.98218 0.98722 0.0
C293 C 0.77436 0.91576 1.01009 0.0
C294 C 0.80161 0.87849 0.01905 0.0
C295 C 0.81935 0.95037 1.01007 0.0
C296 C 0.89228 0.94834 0.01912 0.0
C297 C 0.91983 0.91087 0.02754 0.0
C298 C 0.87484 0.87632 0.02765 0.0
C299 C 0.93994 0.98525 0.01998 0.0
C300 C 0.00454 0.98298 1.00351 0.0
C301 C 0.92155 0.02265 0.03644 0.0
C302 C 0.85604 0.02647 0.05552 0.0
C303 C 0.84498 0.99957 0.0779 0.0
C304 C 0.78302 1.00328 0.09574 0.0
C305 C 0.73199 0.03399 0.09157 0.0
C306 C 0.74291 0.06112 0.06959 0.0
C307 C 0.80473 0.0575 0.05166 0.0
H308 H 0.68409 0.03682 0.10542 0.0
H309 H 0.28823 1.00358 0.93373 0.0
H310 H 0.72945 0.12051 0.53245 0.0
H311 H 0.81001 0.06084 0.5333 0.0
H312 H 0.98602 0.13186 0.50068 0.0
H313 H 0.90536 0.19137 0.4994 0.0
H314 H 0.97837 0.05754 0.47089 0.0
H315 H 0.98082 0.10978 0.57292 0.0
H316 H 0.92783 0.13427 0.62126 0.0
H317 H 0.82723 1.0165 0.62766 0.0
H318 H 0.87876 0.99148 0.5791 0.0
H319 H 0.26539 0.91928 0.49905 0.0
H320 H 0.18464 0.97871 0.4979 0.0
H321 H 0.00967 0.90821 0.53188 0.0
H322 H 0.09092 0.84901 0.53377 0.0
H323 H 0.01648 0.98243 0.56088 0.0
H324 H 0.02002 0.93043 0.45784 0.0
H325 H 0.07416 0.90861 0.40914 0.0
H326 H 0.16736 0.02871 0.40487 0.0
H327 H 0.11504 0.05102 0.45377 0.0
C328 C 0.78544 0.1234 0.52562 0.0
C329 C 0.81125 0.16058 0.51598 0.0
C330 C 0.8315 0.08935 0.52621 0.0
C331 C 0.90433 0.09191 0.51728 0.0
C332 C 0.93012 0.12913 0.50769 0.0
C333 C 0.8841 0.16317 0.50712 0.0
C334 C 0.95311 0.05553 0.51728 0.0
C335 C 0.98752 0.04142 0.49067 0.0
C336 C 0.9639 0.034 0.54293 0.0
C337 C 0.93305 0.04888 0.57221 0.0
C338 C 0.9469 0.0892 0.58451 0.0
C339 C 0.91721 0.10317 0.61198 0.0
C340 C 0.87402 0.077 0.62749 0.0
C341 C 0.8606 0.03676 0.6156 0.0
C342 C 0.89008 0.02266 0.58811 0.0
C343 C 0.20957 0.91641 0.50611 0.0
C344 C 0.18432 0.87948 0.51636 0.0
C345 C 0.16333 0.95034 0.50531 0.0
C346 C 0.09068 0.9479 0.51448 0.0
C347 C 0.06537 0.91088 0.52462 0.0
C348 C 0.1117 0.87698 0.52552 0.0
C349 C 0.0418 0.98428 0.51441 0.0
C350 C 0.00732 0.99845 0.54106 0.0
C351 C 0.03148 1.00608 0.48882 0.0
C352 C 0.06409 0.99229 0.45964 0.0
C353 C 0.05272 0.95206 0.44668 0.0
C354 C 0.08299 0.93962 0.419 0.0
C355 C 0.12417 0.96728 0.40395 0.0
C356 C 0.13548 1.00733 0.41658 0.0
C357 C 0.10555 0.01987 0.44427 0.0
H358 H 0.14706 0.95783 0.38244 0.0
H359 H 0.85108 0.08786 0.64875 0.0
H360 H 0.45503 0.31938 0.35071 0.0
H361 H 0.42618 0.31905 0.29776 0.0
H362 H 0.50948 0.19551 0.28312 0.0
H363 H 0.53767 0.19535 0.3361 0.0
H364 H 0.5571 0.24539 0.24106 0.0
H365 H 0.32762 0.2153 0.28761 0.0
H366 H 0.22437 0.22865 0.3216 0.0
H367 H 0.17714 0.3406 0.28148 0.0
H368 H 0.28118 0.32841 0.2477 0.0
H369 H 0.41448 0.20545 0.09325 0.0
H370 H 0.45446 0.20398 0.14514 0.0
H371 H 0.3319 0.31487 0.16855 0.0
H372 H 0.28792 0.31422 0.11755 0.0
H373 H 0.30548 0.26802 0.20665 0.0
H374 H 0.53142 0.30693 0.16407 0.0
H375 H 0.63608 0.30116 0.13001 0.0
H376 H 0.69241 0.18471 0.16173 0.0
H377 H 0.58757 0.18957 0.19575 0.0
C378 C 0.46658 0.29197 0.3363 0.0
C379 C 0.49833 0.2573 0.34773 0.0
C380 C 0.45025 0.29189 0.30601 0.0
C381 C 0.46494 0.25708 0.28654 0.0
C382 C 0.49769 0.2227 0.29775 0.0
C383 C 0.514 0.22273 0.32804 0.0
C384 C 0.44625 0.25648 0.25448 0.0
C385 C 0.50197 0.24997 0.23343 0.0
C386 C 0.37472 0.2637 0.24461 0.0
C387 C 0.31291 0.27119 0.26538 0.0
C388 C 0.29582 0.24302 0.28628 0.0
C389 C 0.23698 0.25038 0.30549 0.0
C390 C 0.19443 0.28562 0.30381 0.0
C391 C 0.21037 0.31345 0.28285 0.0
C392 C 0.2693 0.30635 0.26371 0.0
C393 C 0.39682 0.22953 0.1096 0.0
C394 C 0.34804 0.25981 0.10166 0.0
C395 C 0.42002 0.22893 0.13919 0.0
C396 C 0.39686 0.25955 0.16095 0.0
C397 C 0.35019 0.29063 0.15245 0.0
C398 C 0.32521 0.29038 0.12327 0.0
C399 C 0.41664 0.25824 0.19293 0.0
C400 C 0.36091 0.26384 0.21407 0.0
C401 C 0.48849 0.25158 0.20284 0.0
C402 C 0.55116 0.24841 0.18221 0.0
C403 C 0.56577 0.27993 0.1636 0.0
C404 C 0.62521 0.27686 0.14434 0.0
C405 C 0.67074 0.24254 0.14365 0.0
C406 C 0.65703 0.21125 0.16226 0.0
C407 C 0.59764 0.21416 0.18155 0.0
H408 H 0.71675 0.24023 0.12874 0.0
H409 H 0.14904 0.29148 0.31869 0.0
H410 H 0.62188 0.80251 0.20285 0.0
H411 H 0.59728 0.80507 0.25627 0.0
H412 H 0.38391 0.75431 0.23782 0.0
H413 H 0.40689 0.75295 0.18467 0.0
H414 H 0.37648 0.82019 0.27618 0.0
H415 H 0.51874 0.69142 0.27201 0.0
H416 H 0.62637 0.64735 0.26191 0.0
H417 H 0.76142 0.73798 0.30953 0.0
H418 H 0.65413 0.78209 0.32048 0.0
H419 H 0.24786 0.75522 0.40938 0.0
H420 H 0.29644 0.75771 0.35945 0.0
H421 H 0.4955 0.81091 0.39585 0.0
H422 H 0.44789 0.80727 0.44623 0.0
H423 H 0.52258 0.75281 0.35089 0.0
H424 H 0.37201 0.87549 0.36179 0.0
H425 H 0.25892 0.91233 0.3764 0.0
H426 H 0.13718 0.82993 0.31583 0.0
H427 H 0.24912 0.79141 0.3024 0.0
C428 C 0.56954 0.79211 0.21016 0.0
C429 C 0.51638 0.7775 0.18935 0.0
C430 C 0.55599 0.79304 0.24075 0.0
C431 C 0.48896 0.77953 0.25109 0.0
C432 C 0.43619 0.76468 0.23038 0.0
C433 C 0.44968 0.76365 0.19992 0.0
C434 C 0.47108 0.78328 0.28327 0.0
C435 C 0.40824 0.80514 0.29239 0.0
C436 C 0.51388 0.7652 0.30481 0.0
C437 C 0.5788 0.74012 0.29675 0.0
C438 C 0.5715 0.70198 0.28015 0.0
C439 C 0.63225 0.67683 0.27457 0.0
C440 C 0.70064 0.68982 0.28513 0.0
C441 C 0.7084 0.72793 0.30141 0.0
C442 C 0.64762 0.7529 0.30745 0.0
C443 C 0.30175 0.76774 0.40683 0.0
C444 C 0.34373 0.78147 0.43173 0.0
C445 C 0.32948 0.76921 0.37824 0.0
C446 C 0.39905 0.78533 0.3739 0.0
C447 C 0.44158 0.79857 0.39872 0.0
C448 C 0.41419 0.79658 0.42743 0.0
C449 C 0.4266 0.78828 0.34333 0.0
C450 C 0.49142 0.76821 0.33463 0.0
C451 C 0.38576 0.808 0.32211 0.0
C452 C 0.31881 0.83128 0.33043 0.0
C453 C 0.321 0.86533 0.35163 0.0
C454 C 0.25703 0.88627 0.35994 0.0
C455 C 0.19075 0.87358 0.347 0.0
C456 C 0.18833 0.8398 0.32587 0.0
C457 C 0.25197 0.81849 0.31784 0.0
H458 H 0.14121 0.88974 0.35338 0.0
H459 H 0.74765 0.67045 0.28058 0.0
H460 H 0.54903 0.80558 0.94346 0.0
H461 H 0.505 0.80742 0.89222 0.0
H462 H 0.69776 0.74297 0.86013 0.0
H463 H 0.74313 0.74293 0.9108 0.0
H464 H 0.67814 0.80202 0.82899 0.0
H465 H 0.51806 0.69971 0.86332 0.0
H466 H 0.42389 0.6692 0.89341 0.0
H467 H 0.26988 0.75916 0.86856 0.0
H468 H 0.36354 0.79082 0.83886 0.0
H469 H 0.58052 0.74013 0.68129 0.0
H470 H 0.60632 0.73931 0.73439 0.0
H471 H 0.42749 0.82224 0.75451 0.0
H472 H 0.40018 0.82243 0.70131 0.0
H473 H 0.43345 0.75981 0.79182 0.0
H474 H 0.59779 0.8597 0.75654 0.0
H475 H 0.69191 0.88495 0.72375 0.0
H476 H 0.83778 0.79074 0.7483 0.0
H477 H 0.74468 0.76488 0.7811 0.0
C478 C 0.5817 0.79176 0.92539 0.0
C479 C 0.64975 0.77447 0.93107 0.0
C480 C 0.55628 0.79252 0.89614 0.0
C481 C 0.5977 0.77504 0.8722 0.0
C482 C 0.66488 0.75693 0.8781 0.0
C483 C 0.69087 0.75696 0.90713 0.0
C484 C 0.57421 0.77755 0.84083 0.0
C485 C 0.62484 0.7921 0.82093 0.0
C486 C 0.50379 0.76604 0.83027 0.0
C487 C 0.44834 0.74811 0.84926 0.0
C488 C 0.4645 0.71345 0.86466 0.0
C489 C 0.4111 0.69585 0.88158 0.0
C490 C 0.34106 0.71235 0.88302 0.0
C491 C 0.32426 0.74653 0.86757 0.0
C492 C 0.37754 0.76436 0.85074 0.0
C493 C 0.54613 0.75779 0.69702 0.0
C494 C 0.48862 0.78155 0.68715 0.0
C495 C 0.56132 0.75758 0.72732 0.0
C496 C 0.51953 0.78126 0.7483 0.0
C497 C 0.46068 0.80403 0.73862 0.0
C498 C 0.44552 0.80433 0.70827 0.0
C499 C 0.5382 0.7826 0.78029 0.0
C500 C 0.48658 0.76939 0.80019 0.0
C501 C 0.60795 0.79461 0.79087 0.0
C502 C 0.66409 0.81023 0.77115 0.0
C503 C 0.64985 0.84426 0.75481 0.0
C504 C 0.70312 0.85874 0.73627 0.0
C505 C 0.77092 0.83955 0.73398 0.0
C506 C 0.7855 0.80575 0.75017 0.0
C507 C 0.73254 0.7912 0.76878 0.0
H508 H 0.81219 0.85096 0.71976 0.0
H509 H 0.29973 0.69856 0.89602 0.0
H510 H 0.68858 0.32383 0.61704 0.0
H511 H 0.63477 0.32473 0.66658 0.0
H512 H 0.55719 0.20052 0.6462 0.0
H513 H 0.60591 0.20126 0.59561 0.0
H514 H 0.46067 0.2398 0.67796 0.0
H515 H 0.72534 0.23098 0.68918 0.0
H516 H 0.85186 0.25518 0.68527 0.0
H517 H 0.79644 0.36933 0.73418 0.0
H518 H 0.66964 0.34615 0.738 0.0
H519 H 0.4307 0.18946 0.82979 0.0
H520 H 0.45539 0.19391 0.77684 0.0
H521 H 0.52044 0.32065 0.79501 0.0
H522 H 0.49675 0.31622 0.84782 0.0
H523 H 0.6198 0.28026 0.76433 0.0
H524 H 0.36329 0.29226 0.75715 0.0
H525 H 0.23532 0.27324 0.76348 0.0
H526 H 0.26794 0.16099 0.70862 0.0
H527 H 0.39697 0.17881 0.70246 0.0
C528 C 0.65988 0.29683 0.62327 0.0
C529 C 0.65203 0.26226 0.60293 0.0
C530 C 0.6295 0.29718 0.65161 0.0
C531 C 0.5938 0.26216 0.66068 0.0
C532 C 0.58481 0.22783 0.63996 0.0
C533 C 0.61299 0.22809 0.61117 0.0
C534 C 0.56743 0.26095 0.69184 0.0
C535 C 0.49579 0.24814 0.69685 0.0
C536 C 0.61209 0.27306 0.71668 0.0
C537 C 0.68806 0.28695 0.71369 0.0
C538 C 0.74009 0.26136 0.69884 0.0
C539 C 0.81179 0.27491 0.69666 0.0
C540 C 0.83184 0.31377 0.70947 0.0
C541 C 0.78057 0.33928 0.72428 0.0
C542 C 0.70892 0.32599 0.72645 0.0
C543 C 0.44914 0.21845 0.8224 0.0
C544 C 0.46262 0.25235 0.84304 0.0
C545 C 0.46302 0.22099 0.7921 0.0
C546 C 0.48973 0.25764 0.78189 0.0
C547 C 0.50036 0.29195 0.80236 0.0
C548 C 0.48715 0.28933 0.83258 0.0
C549 C 0.51313 0.25937 0.7505 0.0
C550 C 0.58448 0.27195 0.74547 0.0
C551 C 0.4677 0.24769 0.72584 0.0
C552 C 0.39018 0.23669 0.72961 0.0
C553 C 0.34351 0.26329 0.74668 0.0
C554 C 0.27064 0.25277 0.75019 0.0
C555 C 0.2434 0.21594 0.7365 0.0
C556 C 0.28911 0.18951 0.71925 0.0
C557 C 0.36218 0.19979 0.71575 0.0
H558 H 0.18689 0.20793 0.73923 0.0
H559 H 0.88703 0.32427 0.70812 0.0
H560 H 0.93692 0.73467 0.09071 0.0
H561 H 0.97912 0.72991 0.14193 0.0
H562 H 0.77524 0.78015 0.17489 0.0
H563 H 0.73197 0.78332 0.12415 0.0
H564 H 0.00411 0.78338 0.18647 0.0
H565 H 0.7244 0.74607 0.23328 0.0
H566 H 0.61269 0.70953 0.21553 0.0
H567 H 0.73849 0.62883 0.15603 0.0
H568 H 0.85085 0.66454 0.17347 0.0
H569 H 0.01654 0.81756 0.34395 0.0
H570 H 0.98834 0.81604 0.2909 0.0
H571 H 0.96393 0.68417 0.28693 0.0
H572 H 0.99362 0.68534 0.33985 0.0
H573 H 0.85364 0.71615 0.25962 0.0
H574 H 0.11387 0.72334 0.24646 0.0
H575 H 0.24099 0.7474 0.25055 0.0
H576 H 0.1728 0.86989 0.23555 0.0
H577 H 0.04555 0.84622 0.23057 0.0
C578 C 0.90114 0.74452 0.10893 0.0
C579 C 0.83093 0.75894 0.1034 0.0
C580 C 0.9253 0.74187 0.13816 0.0
C581 C 0.87987 0.75395 0.1623 0.0
C582 C 0.81055 0.76949 0.15671 0.0
C583 C 0.78601 0.77148 0.12761 0.0
C584 C 0.90483 0.75071 0.19337 0.0
C585 C 0.97114 0.76873 0.20248 0.0
C586 C 0.86291 0.73064 0.21408 0.0
C587 C 0.79589 0.70783 0.20478 0.0
C588 C 0.72822 0.72026 0.21664 0.0
C589 C 0.66482 0.69993 0.20648 0.0
C590 C 0.66851 0.66703 0.18468 0.0
C591 C 0.73567 0.6543 0.17295 0.0
C592 C 0.79919 0.67456 0.18293 0.0
C593 C 0.00645 0.78812 0.33171 0.0
C594 C 0.00752 0.75157 0.34624 0.0
C595 C 0.99028 0.78731 0.30132 0.0
C596 C 0.97456 0.74995 0.28479 0.0
C597 C 0.97578 0.71339 0.29919 0.0
C598 C 0.99239 0.71415 0.32952 0.0
C599 C 0.953 0.74934 0.25294 0.0
C600 C 0.88672 0.73084 0.2437 0.0
C601 C 0.99625 0.7677 0.23178 0.0
C602 C 0.07041 0.78317 0.23856 0.0
C603 C 0.12599 0.75552 0.24449 0.0
C604 C 0.19808 0.76894 0.24652 0.0
C605 C 0.21492 0.81011 0.2432 0.0
C606 C 0.15967 0.83801 0.23806 0.0
C607 C 0.08765 0.82458 0.23547 0.0
H608 H 0.27075 0.82042 0.24463 0.0
H609 H 0.6193 0.65141 0.17688 0.0
H610 H 0.7346 0.27713 0.41026 0.0
H611 H 0.78309 0.27712 0.36013 0.0
H612 H 0.00061 0.28768 0.39588 0.0
H613 H 0.95251 0.28598 0.44621 0.0
H614 H 0.85283 0.32965 0.33186 0.0
H615 H 0.11684 0.24308 0.35281 0.0
H616 H 0.16177 0.1891 0.38338 0.0
H617 H 0.94746 0.1373 0.38509 0.0
H618 H 0.90183 0.19062 0.35399 0.0
H619 H 0.05771 0.34797 0.20308 0.0
H620 H 0.02897 0.34659 0.25591 0.0
H621 H 0.98521 0.21641 0.24253 0.0
H622 H 0.01514 0.21752 0.18978 0.0
H623 H 0.04678 0.23281 0.29535 0.0
H624 H 0.84676 0.28543 0.2429 0.0
H625 H 0.78366 0.33033 0.20976 0.0
H626 H 0.8396 0.43637 0.26819 0.0
H627 H 0.90385 0.39208 0.30152 0.0
C628 C 0.7928 0.2792 0.40756 0.0
C629 C 0.83963 0.28102 0.43234 0.0
C630 C 0.8205 0.27943 0.37879 0.0
C631 C 0.89566 0.2818 0.37408 0.0
C632 C 0.94252 0.28486 0.39883 0.0
C633 C 0.91486 0.28419 0.42765 0.0
C634 C 0.92456 0.28116 0.34325 0.0
C635 C 0.89559 0.30865 0.32399 0.0
C636 C 0.97891 0.25306 0.33259 0.0
C637 C 0.00625 0.22063 0.35089 0.0
C638 C 0.07969 0.21981 0.3593 0.0
C639 C 0.10516 0.18945 0.37685 0.0
C640 C 0.05752 0.15972 0.38613 0.0
C641 C 0.98433 0.16031 0.37787 0.0
C642 C 0.95867 0.19059 0.36027 0.0
C643 C 0.04238 0.31902 0.21145 0.0
C644 C 0.03769 0.28297 0.19218 0.0
C645 C 0.02611 0.31823 0.24166 0.0
C646 C 0.00355 0.28154 0.25314 0.0
C647 C 0.00239 0.2451 0.23424 0.0
C648 C 0.0194 0.24579 0.20406 0.0
C649 C 0.97579 0.28183 0.28413 0.0
C650 C 0.00473 0.25418 0.30336 0.0
C651 C 0.91923 0.30872 0.29447 0.0
C652 C 0.88079 0.33551 0.27451 0.0
C653 C 0.84609 0.31836 0.24855 0.0
C654 C 0.81004 0.34369 0.22976 0.0
C655 C 0.80783 0.3862 0.23682 0.0
C656 C 0.8415 0.40344 0.26273 0.0
C657 C 0.8777 0.37825 0.28159 0.0
H658 H 0.77987 0.40576 0.22225 0.0
H659 H 0.07729 0.13628 0.39977 0.0
H660 H 0.00947 0.21995 0.68731 0.0
H661 H 0.03537 0.22061 0.7403 0.0
H662 H 0.05198 0.35306 0.74623 0.0
H663 H 0.03189 0.35222 0.6926 0.0
H664 H 0.14762 0.3288 0.77943 0.0
H665 H 0.8918 0.29981 0.77844 0.0
H666 H 0.77567 0.26592 0.76397 0.0
H667 H 0.86565 0.14855 0.7803 0.0
H668 H 0.98139 0.18197 0.79621 0.0
H669 H 0.0944 0.33082 0.94122 0.0
H670 H 0.05749 0.33598 0.88904 0.0
H671 H 0.16926 0.22249 0.8635 0.0
H672 H 0.20799 0.21796 0.91512 0.0
H673 H 0.00052 0.2433 0.84274 0.0
H674 H 0.26074 0.28024 0.84578 0.0
H675 H 0.36178 0.32191 0.86806 0.0
H676 H 0.25207 0.43257 0.84842 0.0
H677 H 0.14867 0.39162 0.82722 0.0
C678 C 0.01985 0.2492 0.69976 0.0
C679 C 0.01807 0.28608 0.68568 0.0
C680 C 0.03311 0.24963 0.7303 0.0
C681 C 0.04327 0.287 0.74769 0.0
C682 C 0.04358 0.3238 0.73351 0.0
C683 C 0.03177 0.32332 0.70282 0.0
C684 C 0.05621 0.28737 0.78038 0.0
C685 C 0.11474 0.31035 0.79317 0.0
C686 C 0.01344 0.26377 0.79879 0.0
C687 C 0.94534 0.24328 0.78813 0.0
C688 C 0.88694 0.26674 0.77872 0.0
C689 C 0.82112 0.24766 0.7704 0.0
C690 C 0.81362 0.20508 0.77073 0.0
C691 C 0.87163 0.18151 0.77989 0.0
C692 C 0.93711 0.20053 0.78885 0.0
C693 C 0.11026 0.30688 0.92443 0.0
C694 C 0.15423 0.27413 0.93195 0.0
C695 C 0.08953 0.30991 0.89476 0.0
C696 C 0.11123 0.27973 0.87257 0.0
C697 C 0.15241 0.24613 0.88035 0.0
C698 C 0.17462 0.24367 0.90974 0.0
C699 C 0.09275 0.28345 0.84102 0.0
C700 C 0.03302 0.26155 0.8287 0.0
C701 C 0.13368 0.3085 0.8232 0.0
C702 C 0.19644 0.33292 0.8354 0.0
C703 C 0.25762 0.31346 0.84661 0.0
C704 C 0.31546 0.33693 0.85894 0.0
C705 C 0.31347 0.37981 0.85959 0.0
C706 C 0.25351 0.39934 0.84795 0.0
C707 C 0.19514 0.37604 0.83588 0.0
H708 H 0.35842 0.39789 0.86909 0.0
H709 H 0.76267 0.19041 0.7641 0.0
H710 H 0.05879 0.73752 0.59164 0.0
H711 H 0.01855 0.73325 0.64304 0.0
H712 H 0.22872 0.77619 0.67498 0.0
H713 H 0.26986 0.77893 0.62406 0.0
H714 H 0.18794 0.71796 0.7062 0.0
H715 H 0.06907 0.8401 0.67459 0.0
H716 H 0.9898 0.87816 0.64222 0.0
H717 H 0.81005 0.80044 0.66084 0.0
H718 H 0.88843 0.76173 0.69312 0.0
H719 H 0.10961 0.7792 0.85599 0.0
H720 H 0.141 0.77881 0.80362 0.0
H721 H 0.92586 0.73541 0.77913 0.0
H722 H 0.89224 0.73852 0.83157 0.0
H723 H 0.96553 0.79011 0.74366 0.0
H724 H 0.0817 0.67058 0.77814 0.0
H725 H 0.15989 0.63445 0.81202 0.0
H726 H 0.34326 0.7059 0.78822 0.0
H727 H 0.26599 0.74311 0.75457 0.0
C728 C 0.09633 0.74598 0.60964 0.0
C729 C 0.16739 0.75868 0.60367 0.0
C730 C 0.0732 0.74373 0.63906 0.0
C731 C 0.1202 0.75499 0.66305 0.0
C732 C 0.19132 0.76726 0.65699 0.0
C733 C 0.21472 0.76893 0.62773 0.0
C734 C 0.09605 0.75437 0.69453 0.0
C735 C 0.13942 0.73394 0.71438 0.0
C736 C 0.0319 0.77436 0.70527 0.0
C737 C 0.98475 0.79781 0.68602 0.0
C738 C 0.01274 0.83101 0.67164 0.0
C739 C 0.96796 0.85272 0.65333 0.0
C740 C 0.895 0.84165 0.6494 0.0
C741 C 0.86663 0.8089 0.66382 0.0
C742 C 0.91115 0.78713 0.68217 0.0
C743 C 0.06839 0.77017 0.83956 0.0
C744 C 0.99832 0.75872 0.84822 0.0
C745 C 0.08688 0.76936 0.8095 0.0
C746 C 0.03645 0.7561 0.7873 0.0
C747 C 0.96607 0.74535 0.79579 0.0
C748 C 0.94716 0.74671 0.82587 0.0
C749 C 0.05702 0.75359 0.75527 0.0
C750 C 0.01324 0.77354 0.73537 0.0
C751 C 0.12062 0.73302 0.74448 0.0
C752 C 0.16783 0.70984 0.76398 0.0
C753 C 0.13864 0.67873 0.78021 0.0
C754 C 0.1828 0.65811 0.79941 0.0
C755 C 0.25644 0.66806 0.80237 0.0
C756 C 0.28618 0.69843 0.78598 0.0
C757 C 0.24224 0.71925 0.76681 0.0
H758 H 0.29051 0.65217 0.81731 0.0
H759 H 0.86042 0.85849 0.63523 0.0
loop_
_geom_bond_atom_site_label_1
_geom_bond_atom_site_label_2
_geom_bond_distance
_geom_bond_site_symmetry_2
_ccdc_geom_bond_type
Tb0 C2 2.809 . S
Tb0 O20 2.484 . S
Tb0 O21 2.440 . S
Tb0 O22 2.658 1_554 S
Tb0 O23 2.409 . S
Tb0 O24 2.378 . S
Tb0 O28 2.325 . S
Tb0 O31 2.341 1_554 S
Tb1 C11 2.809 . S
Tb1 O22 2.325 . S
Tb1 O25 2.341 1_556 S
Tb1 O26 2.484 . S
Tb1 O27 2.440 . S
Tb1 O28 2.658 1_556 S
Tb1 O29 2.409 . S
Tb1 O30 2.378 . S
C2 Tb0 2.809 . S
C2 C3 1.514 . S
C2 O20 1.248 . S
C2 O21 1.266 . S
C3 C2 1.514 . S
C3 C4 1.359 . S
C3 C8 1.348 . S
C4 C3 1.359 . S
C4 C5 1.380 . S
C4 H32 0.929 . S
C5 C4 1.380 . S
C5 C6 1.347 . S
C5 H33 0.931 . S
C6 C5 1.347 . S
C6 C7 1.369 . S
C7 C6 1.369 . S
C7 C8 1.408 . S
C7 H34 0.930 . S
C8 C3 1.348 . S
C8 C7 1.408 . S
C8 H35 0.930 . S
C9 O22 1.281 1_554 S
C9 O23 1.254 . S
C10 O24 1.236 . S
C10 O25 1.266 . S
C11 Tb1 2.809 . S
C11 C12 1.514 . S
C11 O26 1.248 . S
C11 O27 1.266 . S
C12 C11 1.514 . S
C12 C13 1.359 . S
C12 C17 1.348 . S
C13 C12 1.359 . S
C13 C14 1.380 . S
C13 H36 0.929 . S
C14 C13 1.380 . S
C14 C15 1.347 . S
C14 H37 0.931 . S
C15 C14 1.347 . S
C15 C16 1.369 . S
C16 C15 1.369 . S
C16 C17 1.408 . S
C16 H38 0.930 . S
C17 C12 1.348 . S
C17 C16 1.408 . S
C17 H39 0.930 . S
C18 O28 1.281 . S
C18 O29 1.254 1_554 S
C19 O30 1.236 . S
C19 O31 1.266 . S
O20 Tb0 2.484 . S
O20 C2 1.248 . S
O21 Tb0 2.440 . S
O21 C2 1.266 . S
O22 Tb0 2.658 1_556 S
O22 Tb1 2.325 . S
O22 C9 1.281 1_556 S
O23 Tb0 2.409 . S
O23 C9 1.254 . S
O24 Tb0 2.378 . S
O24 C10 1.236 . S
O25 Tb1 2.341 1_554 S
O25 C10 1.266 . S
O26 Tb1 2.484 . S
O26 C11 1.248 . S
O27 Tb1 2.440 . S
O27 C11 1.266 . S
O28 Tb0 2.325 . S
O28 Tb1 2.658 1_554 S
O28 C18 1.281 . S
O29 Tb1 2.409 . S
O29 C18 1.254 1_556 S
O30 Tb1 2.378 . S
O30 C19 1.236 . S
O31 Tb0 2.341 1_556 S
O31 C19 1.266 . S
H32 C4 0.929 . S
H33 C5 0.931 . S
H34 C7 0.930 . S
H35 C8 0.930 . S
H36 C13 0.929 . S
H37 C14 0.931 . S
H38 C16 0.930 . S
H39 C17 0.930 . S
Tb40 C42 2.809 . S
Tb40 O60 2.484 . S
Tb40 O61 2.440 . S
Tb40 O62 2.658 1_554 S
Tb40 O63 2.409 . S
Tb40 O64 2.378 . S
Tb40 O68 2.325 . S
Tb40 O71 2.341 1_554 S
Tb41 C51 2.809 . S
Tb41 O62 2.325 . S
Tb41 O65 2.341 1_556 S
Tb41 O66 2.484 . S
Tb41 O67 2.440 . S
Tb41 O68 2.658 1_556 S
Tb41 O69 2.409 . S
Tb41 O70 2.378 . S
C42 Tb40 2.809 . S
C42 C43 1.514 . S
C42 O60 1.248 . S
C42 O61 1.266 . S
C43 C42 1.514 . S
C43 C44 1.359 . S
C43 C48 1.348 . S
C44 C43 1.359 . S
C44 C45 1.380 . S
C44 H72 0.929 . S
C45 C44 1.380 . S
C45 C46 1.347 . S
C45 H73 0.931 . S
C46 C45 1.347 . S
C46 C47 1.369 . S
C47 C46 1.369 . S
C47 C48 1.408 . S
C47 H74 0.930 . S
C48 C43 1.348 . S
C48 C47 1.408 . S
C48 H75 0.930 . S
C49 O62 1.281 1_554 S
C49 O63 1.254 . S
C50 O64 1.236 . S
C50 O65 1.266 . S
C51 Tb41 2.809 . S
C51 C52 1.514 . S
C51 O66 1.248 . S
C51 O67 1.266 . S
C52 C51 1.514 . S
C52 C53 1.359 . S
C52 C57 1.348 . S
C53 C52 1.359 . S
C53 C54 1.380 . S
C53 H76 0.929 . S
C54 C53 1.380 . S
C54 C55 1.347 . S
C54 H77 0.931 . S
C55 C54 1.347 . S
C55 C56 1.369 . S
C56 C55 1.369 . S
C56 C57 1.408 . S
C56 H78 0.930 . S
C57 C52 1.348 . S
C57 C56 1.408 . S
C57 H79 0.930 . S
C58 O68 1.281 . S
C58 O69 1.254 1_554 S
C59 O70 1.236 . S
C59 O71 1.266 . S
O60 Tb40 2.484 . S
O60 C42 1.248 . S
O61 Tb40 2.440 . S
O61 C42 1.266 . S
O62 Tb40 2.658 1_556 S
O62 Tb41 2.325 . S
O62 C49 1.281 1_556 S
O63 Tb40 2.409 . S
O63 C49 1.254 . S
O64 Tb40 2.378 . S
O64 C50 1.236 . S
O65 Tb41 2.341 1_554 S
O65 C50 1.266 . S
O66 Tb41 2.484 . S
O66 C51 1.248 . S
O67 Tb41 2.440 . S
O67 C51 1.266 . S
O68 Tb40 2.325 . S
O68 Tb41 2.658 1_554 S
O68 C58 1.281 . S
O69 Tb41 2.409 . S
O69 C58 1.254 1_556 S
O70 Tb41 2.378 . S
O70 C59 1.236 . S
O71 Tb40 2.341 1_556 S
O71 C59 1.266 . S
H72 C44 0.929 . S
H73 C45 0.931 . S
H74 C47 0.930 . S
H75 C48 0.930 . S
H76 C53 0.929 . S
H77 C54 0.931 . S
H78 C56 0.930 . S
H79 C57 0.930 . S
Tb80 C82 2.809 . S
Tb80 O100 2.484 . S
Tb80 O101 2.440 . S
Tb80 O102 2.658 . S
Tb80 O103 2.409 . S
Tb80 O104 2.378 . S
Tb80 O108 2.325 . S
Tb80 O111 2.341 . S
Tb81 C91 2.809 . S
Tb81 O102 2.325 . S
Tb81 O105 2.341 . S
Tb81 O106 2.484 . S
Tb81 O107 2.440 . S
Tb81 O108 2.658 . S
Tb81 O109 2.409 . S
Tb81 O110 2.378 . S
C82 Tb80 2.809 . S
C82 C83 1.514 . S
C82 O100 1.248 . S
C82 O101 1.266 . S
C83 C82 1.514 . S
C83 C84 1.359 . S
C83 C88 1.348 . S
C84 C83 1.359 . S
C84 C85 1.380 . S
C84 H112 0.929 . S
C85 C84 1.380 . S
C85 C86 1.347 . S
C85 H113 0.931 . S
C86 C85 1.347 . S
C86 C87 1.369 . S
C87 C86 1.369 . S
C87 C88 1.408 . S
C87 H114 0.930 . S
C88 C83 1.348 . S
C88 C87 1.408 . S
C88 H115 0.930 . S
C89 O102 1.281 . S
C89 O103 1.254 . S
C90 O104 1.236 . S
C90 O105 1.266 . S
C91 Tb81 2.809 . S
C91 C92 1.514 . S
C91 O106 1.248 . S
C91 O107 1.266 . S
C92 C91 1.514 . S
C92 C93 1.359 . S
C92 C97 1.348 . S
C93 C92 1.359 . S
C93 C94 1.380 . S
C93 H116 0.929 . S
C94 C93 1.380 . S
C94 C95 1.347 . S
C94 H117 0.931 . S
C95 C94 1.347 . S
C95 C96 1.369 . S
C96 C95 1.369 . S
C96 C97 1.408 . S
C96 H118 0.930 . S
C97 C92 1.348 . S
C97 C96 1.408 . S
C97 H119 0.930 . S
C98 O108 1.281 . S
C98 O109 1.254 . S
C99 O110 1.236 . S
C99 O111 1.266 . S
O100 Tb80 2.484 . S
O100 C82 1.248 . S
O101 Tb80 2.440 . S
O101 C82 1.266 . S
O102 Tb80 2.658 . S
O102 Tb81 2.325 . S
O102 C89 1.281 . S
O103 Tb80 2.409 . S
O103 C89 1.254 . S
O104 Tb80 2.378 . S
O104 C90 1.236 . S
O105 Tb81 2.341 . S
O105 C90 1.266 . S
O106 Tb81 2.484 . S
O106 C91 1.248 . S
O107 Tb81 2.440 . S
O107 C91 1.266 . S
O108 Tb80 2.325 . S
O108 Tb81 2.658 . S
O108 C98 1.281 . S
O109 Tb81 2.409 . S
O109 C98 1.254 . S
O110 Tb81 2.378 . S
O110 C99 1.236 . S
O111 Tb80 2.341 . S
O111 C99 1.266 . S
H112 C84 0.929 . S
H113 C85 0.931 . S
H114 C87 0.930 . S
H115 C88 0.930 . S
H116 C93 0.929 . S
H117 C94 0.931 . S
H118 C96 0.930 . S
H119 C97 0.930 . S
Tb120 C122 2.809 . S
Tb120 O140 2.484 . S
Tb120 O141 2.440 . S
Tb120 O142 2.658 . S
Tb120 O143 2.409 . S
Tb120 O144 2.378 . S
Tb120 O148 2.325 . S
Tb120 O151 2.341 . S
Tb121 C131 2.809 . S
Tb121 O142 2.325 . S
Tb121 O145 2.341 . S
Tb121 O146 2.484 . S
Tb121 O147 2.440 . S
Tb121 O148 2.658 . S
Tb121 O149 2.409 . S
Tb121 O150 2.378 . S
C122 Tb120 2.809 . S
C122 C123 1.514 . S
C122 O140 1.248 . S
C122 O141 1.266 . S
C123 C122 1.514 . S
C123 C124 1.359 . S
C123 C128 1.348 . S
C124 C123 1.359 . S
C124 C125 1.380 . S
C124 H152 0.929 . S
C125 C124 1.380 . S
C125 C126 1.347 . S
C125 H153 0.931 . S
C126 C125 1.347 . S
C126 C127 1.369 . S
C127 C126 1.369 . S
C127 C128 1.408 . S
C127 H154 0.930 . S
C128 C123 1.348 . S
C128 C127 1.408 . S
C128 H155 0.930 . S
C129 O142 1.281 . S
C129 O143 1.254 . S
C130 O144 1.236 . S
C130 O145 1.266 . S
C131 Tb121 2.809 . S
C131 C132 1.514 . S
C131 O146 1.248 . S
C131 O147 1.266 . S
C132 C131 1.514 . S
C132 C133 1.359 . S
C132 C137 1.348 . S
C133 C132 1.359 . S
C133 C134 1.380 . S
C133 H156 0.929 . S
C134 C133 1.380 . S
C134 C135 1.347 . S
C134 H157 0.931 . S
C135 C134 1.347 . S
C135 C136 1.369 . S
C136 C135 1.369 . S
C136 C137 1.408 . S
C136 H158 0.930 . S
C137 C132 1.348 . S
C137 C136 1.408 . S
C137 H159 0.930 . S
C138 O148 1.281 . S
C138 O149 1.254 . S
C139 O150 1.236 . S
C139 O151 1.266 . S
O140 Tb120 2.484 . S
O140 C122 1.248 . S
O141 Tb120 2.440 . S
O141 C122 1.266 . S
O142 Tb120 2.658 . S
O142 Tb121 2.325 . S
O142 C129 1.281 . S
O143 Tb120 2.409 . S
O143 C129 1.254 . S
O144 Tb120 2.378 . S
O144 C130 1.236 . S
O145 Tb121 2.341 . S
O145 C130 1.266 . S
O146 Tb121 2.484 . S
O146 C131 1.248 . S
O147 Tb121 2.440 . S
O147 C131 1.266 . S
O148 Tb120 2.325 . S
O148 Tb121 2.658 . S
O148 C138 1.281 . S
O149 Tb121 2.409 . S
O149 C138 1.254 . S
O150 Tb121 2.378 . S
O150 C139 1.236 . S
O151 Tb120 2.341 . S
O151 C139 1.266 . S
H152 C124 0.929 . S
H153 C125 0.931 . S
H154 C127 0.930 . S
H155 C128 0.930 . S
H156 C133 0.929 . S
H157 C134 0.931 . S
H158 C136 0.930 . S
H159 C137 0.930 . S
H160 C178 0.951 . S
H161 C180 0.951 . S
H162 C182 0.950 . S
H163 C183 0.950 . S
H164 C185 0.950 . S
H165 C188 0.950 . S
H166 C189 0.950 . S
H167 C191 0.950 . S
H168 C192 0.950 . S
H169 C193 0.951 . S
H170 C195 0.951 . S
H171 C197 0.950 . S
H172 C198 0.950 . S
H173 C200 0.950 . S
H174 C203 0.950 . S
H175 C204 0.950 . S
H176 C206 0.950 . S
H177 C207 0.950 . S
C178 H160 0.951 . S
C178 C179 1.366 1_556 S
C178 C180 1.388 . S
C179 C178 1.366 1_554 S
C179 C183 1.385 . S
C180 H161 0.951 . S
C180 C178 1.388 . S
C180 C181 1.366 1_556 S
C181 C180 1.366 1_554 S
C181 C182 1.414 . S
C181 C184 1.499 . S
C182 H162 0.950 . S
C182 C181 1.414 . S
C182 C183 1.374 . S
C183 H163 0.950 . S
C183 C179 1.385 . S
C183 C182 1.374 . S
C184 C181 1.499 . S
C184 C185 1.373 . S
C184 C186 1.389 1_554 S
C185 H164 0.950 . S
C185 C184 1.373 . S
C185 C201 1.377 . S
C186 C184 1.389 1_556 S
C186 C187 1.524 . S
C186 C200 1.377 . S
C187 C186 1.524 . S
C187 C188 1.397 . S
C187 C192 1.363 . S
C188 H165 0.950 . S
C188 C187 1.397 . S
C188 C189 1.334 . S
C189 H166 0.950 . S
C189 C188 1.334 . S
C189 C190 1.287 . S
C190 C189 1.287 . S
C190 C191 1.524 . S
C190 H209 0.913 . S
C191 H167 0.950 . S
C191 C190 1.524 . S
C191 C192 1.415 . S
C192 H168 0.950 . S
C192 C187 1.363 . S
C192 C191 1.415 . S
C193 H169 0.951 . S
C193 C194 1.366 . S
C193 C195 1.388 . S
C194 C193 1.366 . S
C194 C198 1.385 1_554 S
C195 H170 0.951 . S
C195 C193 1.388 . S
C195 C196 1.366 . S
C196 C195 1.366 . S
C196 C197 1.414 1_554 S
C196 C199 1.499 . S
C197 H171 0.950 . S
C197 C196 1.414 1_556 S
C197 C198 1.374 . S
C198 H172 0.950 . S
C198 C194 1.385 1_556 S
C198 C197 1.374 . S
C199 C196 1.499 . S
C199 C200 1.373 1_554 S
C199 C201 1.389 . S
C200 H173 0.950 . S
C200 C186 1.377 . S
C200 C199 1.373 1_556 S
C201 C185 1.377 . S
C201 C199 1.389 . S
C201 C202 1.524 . S
C202 C201 1.524 . S
C202 C203 1.397 . S
C202 C207 1.363 . S
C203 H174 0.950 . S
C203 C202 1.397 . S
C203 C204 1.334 . S
C204 H175 0.950 . S
C204 C203 1.334 . S
C204 C205 1.287 . S
C205 C204 1.287 . S
C205 C206 1.524 . S
C205 H208 0.999 . S
C206 H176 0.950 . S
C206 C205 1.524 . S
C206 C207 1.415 . S
C207 H177 0.950 . S
C207 C202 1.363 . S
C207 C206 1.415 . S
H208 C205 0.999 . S
H209 C190 0.913 . S
H210 C228 0.951 . S
H211 C230 0.951 . S
H212 C232 0.950 . S
H213 C233 0.950 . S
H214 C235 0.950 . S
H215 C238 0.950 . S
H216 C239 0.950 . S
H217 C241 0.950 . S
H218 C242 0.950 . S
H219 C243 0.951 . S
H220 C245 0.951 . S
H221 C247 0.950 . S
H222 C248 0.950 . S
H223 C250 0.950 . S
H224 C253 0.950 . S
H225 C254 0.950 . S
H226 C256 0.950 . S
H227 C257 0.950 . S
C228 H210 0.951 . S
C228 C229 1.366 . S
C228 C230 1.388 . S
C229 C228 1.366 . S
C229 C233 1.385 . S
C230 H211 0.951 . S
C230 C228 1.388 . S
C230 C231 1.366 . S
C231 C230 1.366 . S
C231 C232 1.414 . S
C231 C234 1.499 . S
C232 H212 0.950 . S
C232 C231 1.414 . S
C232 C233 1.374 . S
C233 H213 0.950 . S
C233 C229 1.385 . S
C233 C232 1.374 . S
C234 C231 1.499 . S
C234 C235 1.373 . S
C234 C236 1.389 . S
C235 H214 0.950 . S
C235 C234 1.373 . S
C235 C251 1.377 . S
C236 C234 1.389 . S
C236 C237 1.524 . S
C236 C250 1.377 . S
C237 C236 1.524 . S
C237 C238 1.397 . S
C237 C242 1.363 . S
C238 H215 0.950 . S
C238 C237 1.397 . S
C238 C239 1.334 . S
C239 H216 0.950 . S
C239 C238 1.334 . S
C239 C240 1.287 . S
C240 C239 1.287 . S
C240 C241 1.524 . S
C240 H259 0.913 . S
C241 H217 0.950 . S
C241 C240 1.524 . S
C241 C242 1.415 . S
C242 H218 0.950 . S
C242 C237 1.363 . S
C242 C241 1.415 . S
C243 H219 0.951 . S
C243 C244 1.366 . S
C243 C245 1.388 . S
C244 C243 1.366 . S
C244 C248 1.385 . S
C245 H220 0.951 . S
C245 C243 1.388 . S
C245 C246 1.366 . S
C246 C245 1.366 . S
C246 C247 1.414 . S
C246 C249 1.499 . S
C247 H221 0.950 . S
C247 C246 1.414 . S
C247 C248 1.374 . S
C248 H222 0.950 . S
C248 C244 1.385 . S
C248 C247 1.374 . S
C249 C246 1.499 . S
C249 C250 1.373 . S
C249 C251 1.389 . S
C250 H223 0.950 . S
C250 C236 1.377 . S
C250 C249 1.373 . S
C251 C235 1.377 . S
C251 C249 1.389 . S
C251 C252 1.524 . S
C252 C251 1.524 . S
C252 C253 1.397 . S
C252 C257 1.363 . S
C253 H224 0.950 . S
C253 C252 1.397 . S
C253 C254 1.334 . S
C254 H225 0.950 . S
C254 C253 1.334 . S
C254 C255 1.287 . S
C255 C254 1.287 . S
C255 C256 1.524 . S
C255 H258 0.999 . S
C256 H226 0.950 . S
C256 C255 1.524 . S
C256 C257 1.415 . S
C257 H227 0.950 . S
C257 C252 1.363 . S
C257 C256 1.415 . S
H258 C255 0.999 . S
H259 C240 0.913 . S
H260 C278 0.951 . S
H261 C280 0.951 . S
H262 C282 0.951 . S
H263 C283 0.950 . S
H264 C285 0.950 . S
H265 C288 0.950 . S
H266 C289 0.950 . S
H267 C291 0.950 . S
H268 C292 0.950 . S
H269 C293 0.951 . S
H270 C295 0.951 . S
H271 C297 0.951 . S
H272 C298 0.950 . S
H273 C300 0.950 . S
H274 C303 0.950 . S
H275 C304 0.950 . S
H276 C306 0.950 . S
H277 C307 0.950 . S
C278 H260 0.951 . S
C278 C279 1.366 . S
C278 C280 1.388 . S
C279 C278 1.366 . S
C279 C283 1.385 1_554 S
C280 H261 0.951 . S
C280 C278 1.388 . S
C280 C281 1.366 . S
C281 C280 1.366 . S
C281 C282 1.414 1_554 S
C281 C284 1.499 . S
C282 H262 0.951 . S
C282 C281 1.414 1_556 S
C282 C283 1.374 . S
C283 H263 0.950 . S
C283 C279 1.385 1_556 S
C283 C282 1.374 . S
C284 C281 1.499 . S
C284 C285 1.373 1_455 S
C284 C286 1.371 1_544 S
C285 H264 0.950 . S
C285 C284 1.373 1_655 S
C285 C301 1.395 . S
C286 C284 1.371 1_566 S
C286 C287 1.525 . S
C286 C300 1.395 . S
C287 C286 1.525 . S
C287 C288 1.397 1_565 S
C287 C292 1.363 . S
C288 H265 0.950 . S
C288 C287 1.397 1_545 S
C288 C289 1.334 . S
C289 H266 0.950 . S
C289 C288 1.334 . S
C289 C290 1.287 1_545 S
C290 C289 1.287 1_565 S
C290 C291 1.524 . S
C290 H309 0.913 . S
C291 H267 0.950 . S
C291 C290 1.524 . S
C291 C292 1.415 . S
C292 H268 0.950 . S
C292 C287 1.363 . S
C292 C291 1.415 . S
C293 H269 0.951 . S
C293 C294 1.366 1_556 S
C293 C295 1.388 . S
C294 C293 1.366 1_554 S
C294 C298 1.385 . S
C295 H270 0.951 . S
C295 C293 1.388 . S
C295 C296 1.366 1_556 S
C296 C295 1.366 1_554 S
C296 C297 1.414 . S
C296 C299 1.499 . S
C297 H271 0.951 . S
C297 C296 1.414 . S
C297 C298 1.374 . S
C298 H272 0.950 . S
C298 C294 1.385 . S
C298 C297 1.374 . S
C299 C296 1.499 . S
C299 C300 1.373 1_654 S
C299 C301 1.371 1_565 S
C300 H273 0.950 . S
C300 C286 1.395 . S
C300 C299 1.373 1_456 S
C301 C285 1.395 . S
C301 C299 1.371 1_545 S
C301 C302 1.525 . S
C302 C301 1.525 . S
C302 C303 1.397 1_545 S
C302 C307 1.363 . S
C303 H274 0.950 . S
C303 C302 1.397 1_565 S
C303 C304 1.334 . S
C304 H275 0.950 . S
C304 C303 1.334 . S
C304 C305 1.287 1_565 S
C305 C304 1.287 1_545 S
C305 C306 1.524 . S
C305 H308 0.999 . S
C306 H276 0.950 . S
C306 C305 1.524 . S
C306 C307 1.415 . S
C307 H277 0.950 . S
C307 C302 1.363 . S
C307 C306 1.415 . S
H308 C305 0.999 . S
H309 C290 0.913 . S
H310 C328 0.951 . S
H311 C330 0.951 . S
H312 C332 0.937 1_455 S
H313 C333 0.950 . S
H314 C335 0.950 . S
H315 C338 0.950 . S
H316 C339 0.950 . S
H317 C341 0.950 . S
H318 C342 0.950 . S
H319 C343 0.951 . S
H320 C345 0.951 . S
H321 C347 0.937 1_655 S
H322 C348 0.950 . S
H323 C350 0.950 . S
H324 C353 0.950 . S
H325 C354 0.950 . S
H326 C356 0.950 . S
H327 C357 0.950 . S
C328 H310 0.951 . S
C328 C329 1.366 . S
C328 C330 1.388 . S
C329 C328 1.366 . S
C329 C333 1.385 . S
C330 H311 0.951 . S
C330 C328 1.388 . S
C330 C331 1.366 . S
C331 C330 1.366 . S
C331 C332 1.414 . S
C331 C334 1.499 . S
C332 H312 0.937 1_655 S
C332 C331 1.414 . S
C332 C333 1.374 . S
C333 H313 0.950 . S
C333 C329 1.385 . S
C333 C332 1.374 . S
C334 C331 1.499 . S
C334 C335 1.373 1_655 S
C334 C336 1.389 . S
C335 H314 0.950 . S
C335 C334 1.373 1_455 S
C335 C351 1.377 1_545 S
C336 C334 1.389 . S
C336 C337 1.524 . S
C336 C350 1.377 1_545 S
C337 C336 1.524 . S
C337 C338 1.397 . S
C337 C342 1.363 1_545 S
C338 H315 0.950 . S
C338 C337 1.397 . S
C338 C339 1.334 . S
C339 H316 0.950 . S
C339 C338 1.334 . S
C339 C340 1.287 . S
C340 C339 1.287 . S
C340 C341 1.524 1_545 S
C340 H359 0.913 . S
C341 H317 0.950 . S
C341 C340 1.524 1_565 S
C341 C342 1.415 . S
C342 H318 0.950 . S
C342 C337 1.363 1_565 S
C342 C341 1.415 . S
C343 H319 0.951 . S
C343 C344 1.366 . S
C343 C345 1.388 . S
C344 C343 1.366 . S
C344 C348 1.385 . S
C345 H320 0.951 . S
C345 C343 1.388 . S
C345 C346 1.366 . S
C346 C345 1.366 . S
C346 C347 1.414 . S
C346 C349 1.499 . S
C347 H321 0.937 1_455 S
C347 C346 1.414 . S
C347 C348 1.374 . S
C348 H322 0.950 . S
C348 C344 1.385 . S
C348 C347 1.374 . S
C349 C346 1.499 . S
C349 C350 1.373 1_455 S
C349 C351 1.389 . S
C350 H323 0.950 . S
C350 C336 1.377 1_565 S
C350 C349 1.373 1_655 S
C351 C335 1.377 1_565 S
C351 C349 1.389 . S
C351 C352 1.524 . S
C352 C351 1.524 . S
C352 C353 1.397 . S
C352 C357 1.363 1_565 S
C353 H324 0.950 . S
C353 C352 1.397 . S
C353 C354 1.334 . S
C354 H325 0.950 . S
C354 C353 1.334 . S
C354 C355 1.287 . S
C355 C354 1.287 . S
C355 C356 1.524 1_565 S
C355 H358 0.999 . S
C356 H326 0.950 . S
C356 C355 1.524 1_545 S
C356 C357 1.415 . S
C357 H327 0.950 . S
C357 C352 1.363 1_545 S
C357 C356 1.415 . S
H358 C355 0.999 . S
H359 C340 0.913 . S
H360 C378 0.951 . S
H361 C380 0.951 . S
H362 C382 0.950 . S
H363 C383 0.950 . S
H364 C385 0.950 . S
H365 C388 0.950 . S
H366 C389 0.950 . S
H367 C391 0.950 . S
H368 C392 0.950 . S
H369 C393 0.951 . S
H370 C395 0.951 . S
H371 C397 0.950 . S
H372 C398 0.950 . S
H373 C400 0.950 . S
H374 C403 0.950 . S
H375 C404 0.950 . S
H376 C406 0.950 . S
H377 C407 0.950 . S
C378 H360 0.951 . S
C378 C379 1.366 . S
C378 C380 1.388 . S
C379 C378 1.366 . S
C379 C383 1.385 . S
C380 H361 0.951 . S
C380 C378 1.388 . S
C380 C381 1.366 . S
C381 C380 1.366 . S
C381 C382 1.414 . S
C381 C384 1.499 . S
C382 H362 0.950 . S
C382 C381 1.414 . S
C382 C383 1.374 . S
C383 H363 0.950 . S
C383 C379 1.385 . S
C383 C382 1.374 . S
C384 C381 1.499 . S
C384 C385 1.373 . S
C384 C386 1.389 . S
C385 H364 0.950 . S
C385 C384 1.373 . S
C385 C401 1.377 . S
C386 C384 1.389 . S
C386 C387 1.524 . S
C386 C400 1.377 . S
C387 C386 1.524 . S
C387 C388 1.397 . S
C387 C392 1.363 . S
C388 H365 0.950 . S
C388 C387 1.397 . S
C388 C389 1.334 . S
C389 H366 0.950 . S
C389 C388 1.334 . S
C389 C390 1.287 . S
C390 C389 1.287 . S
C390 C391 1.524 . S
C390 H409 0.913 . S
C391 H367 0.950 . S
C391 C390 1.524 . S
C391 C392 1.415 . S
C392 H368 0.950 . S
C392 C387 1.363 . S
C392 C391 1.415 . S
C393 H369 0.951 . S
C393 C394 1.366 . S
C393 C395 1.388 . S
C394 C393 1.366 . S
C394 C398 1.385 . S
C395 H370 0.951 . S
C395 C393 1.388 . S
C395 C396 1.366 . S
C396 C395 1.366 . S
C396 C397 1.414 . S
C396 C399 1.499 . S
C397 H371 0.950 . S
C397 C396 1.414 . S
C397 C398 1.374 . S
C398 H372 0.950 . S
C398 C394 1.385 . S
C398 C397 1.374 . S
C399 C396 1.499 . S
C399 C400 1.373 . S
C399 C401 1.389 . S
C400 H373 0.950 . S
C400 C386 1.377 . S
C400 C399 1.373 . S
C401 C385 1.377 . S
C401 C399 1.389 . S
C401 C402 1.524 . S
C402 C401 1.524 . S
C402 C403 1.397 . S
C402 C407 1.363 . S
C403 H374 0.950 . S
C403 C402 1.397 . S
C403 C404 1.334 . S
C404 H375 0.950 . S
C404 C403 1.334 . S
C404 C405 1.287 . S
C405 C404 1.287 . S
C405 C406 1.524 . S
C405 H408 0.999 . S
C406 H376 0.950 . S
C406 C405 1.524 . S
C406 C407 1.415 . S
C407 H377 0.950 . S
C407 C402 1.363 . S
C407 C406 1.415 . S
H408 C405 0.999 . S
H409 C390 0.913 . S
H410 C428 0.951 . S
H411 C430 0.951 . S
H412 C432 0.950 . S
H413 C433 0.950 . S
H414 C435 0.950 . S
H415 C438 0.950 . S
H416 C439 0.950 . S
H417 C441 0.950 . S
H418 C442 0.950 . S
H419 C443 0.951 . S
H420 C445 0.951 . S
H421 C447 0.950 . S
H422 C448 0.950 . S
H423 C450 0.950 . S
H424 C453 0.950 . S
H425 C454 0.950 . S
H426 C456 0.950 . S
H427 C457 0.950 . S
C428 H410 0.951 . S
C428 C429 1.366 . S
C428 C430 1.388 . S
C429 C428 1.366 . S
C429 C433 1.385 . S
C430 H411 0.951 . S
C430 C428 1.388 . S
C430 C431 1.366 . S
C431 C430 1.366 . S
C431 C432 1.414 . S
C431 C434 1.499 . S
C432 H412 0.950 . S
C432 C431 1.414 . S
C432 C433 1.374 . S
C433 H413 0.950 . S
C433 C429 1.385 . S
C433 C432 1.374 . S
C434 C431 1.499 . S
C434 C435 1.373 . S
C434 C436 1.389 . S
C435 H414 0.950 . S
C435 C434 1.373 . S
C435 C451 1.377 . S
C436 C434 1.389 . S
C436 C437 1.524 . S
C436 C450 1.377 . S
C437 C436 1.524 . S
C437 C438 1.397 . S
C437 C442 1.363 . S
C438 H415 0.950 . S
C438 C437 1.397 . S
C438 C439 1.334 . S
C439 H416 0.950 . S
C439 C438 1.334 . S
C439 C440 1.287 . S
C440 C439 1.287 . S
C440 C441 1.524 . S
C440 H459 0.913 . S
C441 H417 0.950 . S
C441 C440 1.524 . S
C441 C442 1.415 . S
C442 H418 0.950 . S
C442 C437 1.363 . S
C442 C441 1.415 . S
C443 H419 0.951 . S
C443 C444 1.366 . S
C443 C445 1.388 . S
C444 C443 1.366 . S
C444 C448 1.385 . S
C445 H420 0.951 . S
C445 C443 1.388 . S
C445 C446 1.366 . S
C446 C445 1.366 . S
C446 C447 1.414 . S
C446 C449 1.499 . S
C447 H421 0.950 . S
C447 C446 1.414 . S
C447 C448 1.374 . S
C448 H422 0.950 . S
C448 C444 1.385 . S
C448 C447 1.374 . S
C449 C446 1.499 . S
C449 C450 1.373 . S
C449 C451 1.389 . S
C450 H423 0.950 . S
C450 C436 1.377 . S
C450 C449 1.373 . S
C451 C435 1.377 . S
C451 C449 1.389 . S
C451 C452 1.524 . S
C452 C451 1.524 . S
C452 C453 1.397 . S
C452 C457 1.363 . S
C453 H424 0.950 . S
C453 C452 1.397 . S
C453 C454 1.334 . S
C454 H425 0.950 . S
C454 C453 1.334 . S
C454 C455 1.287 . S
C455 C454 1.287 . S
C455 C456 1.524 . S
C455 H458 0.999 . S
C456 H426 0.950 . S
C456 C455 1.524 . S
C456 C457 1.415 . S
C457 H427 0.950 . S
C457 C452 1.363 . S
C457 C456 1.415 . S
H458 C455 0.999 . S
H459 C440 0.913 . S
H460 C478 0.951 . S
H461 C480 0.951 . S
H462 C482 0.950 . S
H463 C483 0.950 . S
H464 C485 0.950 . S
H465 C488 0.950 . S
H466 C489 0.950 . S
H467 C491 0.950 . S
H468 C492 0.950 . S
H469 C493 0.951 . S
H470 C495 0.951 . S
H471 C497 0.950 . S
H472 C498 0.950 . S
H473 C500 0.950 . S
H474 C503 0.950 . S
H475 C504 0.950 . S
H476 C506 0.950 . S
H477 C507 0.950 . S
C478 H460 0.951 . S
C478 C479 1.366 . S
C478 C480 1.388 . S
C479 C478 1.366 . S
C479 C483 1.385 . S
C480 H461 0.951 . S
C480 C478 1.388 . S
C480 C481 1.366 . S
C481 C480 1.366 . S
C481 C482 1.414 . S
C481 C484 1.499 . S
C482 H462 0.950 . S
C482 C481 1.414 . S
C482 C483 1.374 . S
C483 H463 0.950 . S
C483 C479 1.385 . S
C483 C482 1.374 . S
C484 C481 1.499 . S
C484 C485 1.373 . S
C484 C486 1.389 . S
C485 H464 0.950 . S
C485 C484 1.373 . S
C485 C501 1.377 . S
C486 C484 1.389 . S
C486 C487 1.524 . S
C486 C500 1.377 . S
C487 C486 1.524 . S
C487 C488 1.397 . S
C487 C492 1.363 . S
C488 H465 0.950 . S
C488 C487 1.397 . S
C488 C489 1.334 . S
C489 H466 0.950 . S
C489 C488 1.334 . S
C489 C490 1.287 . S
C490 C489 1.287 . S
C490 C491 1.524 . S
C490 H509 0.913 . S
C491 H467 0.950 . S
C491 C490 1.524 . S
C491 C492 1.415 . S
C492 H468 0.950 . S
C492 C487 1.363 . S
C492 C491 1.415 . S
C493 H469 0.951 . S
C493 C494 1.366 . S
C493 C495 1.388 . S
C494 C493 1.366 . S
C494 C498 1.385 . S
C495 H470 0.951 . S
C495 C493 1.388 . S
C495 C496 1.366 . S
C496 C495 1.366 . S
C496 C497 1.414 . S
C496 C499 1.499 . S
C497 H471 0.950 . S
C497 C496 1.414 . S
C497 C498 1.374 . S
C498 H472 0.950 . S
C498 C494 1.385 . S
C498 C497 1.374 . S
C499 C496 1.499 . S
C499 C500 1.373 . S
C499 C501 1.389 . S
C500 H473 0.950 . S
C500 C486 1.377 . S
C500 C499 1.373 . S
C501 C485 1.377 . S
C501 C499 1.389 . S
C501 C502 1.524 . S
C502 C501 1.524 . S
C502 C503 1.397 . S
C502 C507 1.363 . S
C503 H474 0.950 . S
C503 C502 1.397 . S
C503 C504 1.334 . S
C504 H475 0.950 . S
C504 C503 1.334 . S
C504 C505 1.287 . S
C505 C504 1.287 . S
C505 C506 1.524 . S
C505 H508 0.999 . S
C506 H476 0.950 . S
C506 C505 1.524 . S
C506 C507 1.415 . S
C507 H477 0.950 . S
C507 C502 1.363 . S
C507 C506 1.415 . S
H508 C505 0.999 . S
H509 C490 0.913 . S
H510 C528 0.951 . S
H511 C530 0.951 . S
H512 C532 0.950 . S
H513 C533 0.950 . S
H514 C535 0.950 . S
H515 C538 0.950 . S
H516 C539 0.950 . S
H517 C541 0.950 . S
H518 C542 0.950 . S
H519 C543 0.951 . S
H520 C545 0.951 . S
H521 C547 0.950 . S
H522 C548 0.950 . S
H523 C550 0.950 . S
H524 C553 0.950 . S
H525 C554 0.950 . S
H526 C556 0.950 . S
H527 C557 0.950 . S
C528 H510 0.951 . S
C528 C529 1.366 . S
C528 C530 1.388 . S
C529 C528 1.366 . S
C529 C533 1.385 . S
C530 H511 0.951 . S
C530 C528 1.388 . S
C530 C531 1.366 . S
C531 C530 1.366 . S
C531 C532 1.414 . S
C531 C534 1.499 . S
C532 H512 0.950 . S
C532 C531 1.414 . S
C532 C533 1.374 . S
C533 H513 0.950 . S
C533 C529 1.385 . S
C533 C532 1.374 . S
C534 C531 1.499 . S
C534 C535 1.373 . S
C534 C536 1.389 . S
C535 H514 0.950 . S
C535 C534 1.373 . S
C535 C551 1.377 . S
C536 C534 1.389 . S
C536 C537 1.524 . S
C536 C550 1.377 . S
C537 C536 1.524 . S
C537 C538 1.397 . S
C537 C542 1.363 . S
C538 H515 0.950 . S
C538 C537 1.397 . S
C538 C539 1.334 . S
C539 H516 0.950 . S
C539 C538 1.334 . S
C539 C540 1.287 . S
C540 C539 1.287 . S
C540 C541 1.524 . S
C540 H559 0.913 . S
C541 H517 0.950 . S
C541 C540 1.524 . S
C541 C542 1.415 . S
C542 H518 0.950 . S
C542 C537 1.363 . S
C542 C541 1.415 . S
C543 H519 0.951 . S
C543 C544 1.366 . S
C543 C545 1.388 . S
C544 C543 1.366 . S
C544 C548 1.385 . S
C545 H520 0.951 . S
C545 C543 1.388 . S
C545 C546 1.366 . S
C546 C545 1.366 . S
C546 C547 1.414 . S
C546 C549 1.499 . S
C547 H521 0.950 . S
C547 C546 1.414 . S
C547 C548 1.374 . S
C548 H522 0.950 . S
C548 C544 1.385 . S
C548 C547 1.374 . S
C549 C546 1.499 . S
C549 C550 1.373 . S
C549 C551 1.389 . S
C550 H523 0.950 . S
C550 C536 1.377 . S
C550 C549 1.373 . S
C551 C535 1.377 . S
C551 C549 1.389 . S
C551 C552 1.524 . S
C552 C551 1.524 . S
C552 C553 1.397 . S
C552 C557 1.363 . S
C553 H524 0.950 . S
C553 C552 1.397 . S
C553 C554 1.334 . S
C554 H525 0.950 . S
C554 C553 1.334 . S
C554 C555 1.287 . S
C555 C554 1.287 . S
C555 C556 1.524 . S
C555 H558 0.999 . S
C556 H526 0.950 . S
C556 C555 1.524 . S
C556 C557 1.415 . S
C557 H527 0.950 . S
C557 C552 1.363 . S
C557 C556 1.415 . S
H558 C555 0.999 . S
H559 C540 0.913 . S
H560 C578 0.951 . S
H561 C580 0.951 . S
H562 C582 0.950 . S
H563 C583 0.950 . S
H564 C585 0.950 . S
H565 C588 0.950 . S
H566 C589 0.950 . S
H567 C591 0.950 . S
H568 C592 0.950 . S
H569 C593 0.951 . S
H570 C595 0.951 . S
H571 C597 0.951 . S
H572 C598 0.950 . S
H573 C600 0.950 . S
H574 C603 0.950 . S
H575 C604 0.950 . S
H576 C606 0.950 . S
H577 C607 0.950 1_655 S
C578 H560 0.951 . S
C578 C579 1.366 . S
C578 C580 1.388 . S
C579 C578 1.366 . S
C579 C583 1.385 . S
C580 H561 0.951 . S
C580 C578 1.388 . S
C580 C581 1.366 . S
C581 C580 1.366 . S
C581 C582 1.414 . S
C581 C584 1.499 . S
C582 H562 0.950 . S
C582 C581 1.414 . S
C582 C583 1.374 . S
C583 H563 0.950 . S
C583 C579 1.385 . S
C583 C582 1.374 . S
C584 C581 1.499 . S
C584 C585 1.373 . S
C584 C586 1.389 . S
C585 H564 0.950 . S
C585 C584 1.373 . S
C585 C601 1.377 . S
C586 C584 1.389 . S
C586 C587 1.524 . S
C586 C600 1.377 . S
C587 C586 1.524 . S
C587 C588 1.397 . S
C587 C592 1.363 . S
C588 H565 0.950 . S
C588 C587 1.397 . S
C588 C589 1.334 . S
C589 H566 0.950 . S
C589 C588 1.334 . S
C589 C590 1.287 . S
C590 C589 1.287 . S
C590 C591 1.524 . S
C590 H609 0.913 . S
C591 H567 0.950 . S
C591 C590 1.524 . S
C591 C592 1.415 . S
C592 H568 0.950 . S
C592 C587 1.363 . S
C592 C591 1.415 . S
C593 H569 0.951 . S
C593 C594 1.366 . S
C593 C595 1.388 1_455 S
C594 C593 1.366 . S
C594 C598 1.385 . S
C595 H570 0.951 . S
C595 C593 1.388 1_655 S
C595 C596 1.366 . S
C596 C595 1.366 . S
C596 C597 1.415 . S
C596 C599 1.499 . S
C597 H571 0.951 . S
C597 C596 1.415 . S
C597 C598 1.372 1_655 S
C598 H572 0.950 . S
C598 C594 1.385 . S
C598 C597 1.372 1_455 S
C599 C596 1.499 . S
C599 C600 1.373 . S
C599 C601 1.389 . S
C600 H573 0.950 . S
C600 C586 1.377 . S
C600 C599 1.373 . S
C601 C585 1.377 . S
C601 C599 1.389 . S
C601 C602 1.524 1_655 S
C602 C601 1.524 1_455 S
C602 C603 1.397 . S
C602 C607 1.363 . S
C603 H574 0.950 . S
C603 C602 1.397 . S
C603 C604 1.334 . S
C604 H575 0.950 . S
C604 C603 1.334 . S
C604 C605 1.287 . S
C605 C604 1.287 . S
C605 C606 1.524 . S
C605 H608 0.999 . S
C606 H576 0.950 . S
C606 C605 1.524 . S
C606 C607 1.415 . S
C607 H577 0.950 1_455 S
C607 C602 1.363 . S
C607 C606 1.415 . S
H608 C605 0.999 . S
H609 C590 0.913 . S
H610 C628 0.951 . S
H611 C630 0.951 . S
H612 C632 0.950 . S
H613 C633 0.950 . S
H614 C635 0.950 . S
H615 C638 0.950 . S
H616 C639 0.950 . S
H617 C641 0.950 . S
H618 C642 0.955 . S
H619 C643 0.951 . S
H620 C645 0.951 . S
H621 C647 0.950 . S
H622 C648 0.950 . S
H623 C650 0.950 1_455 S
H624 C653 0.950 . S
H625 C654 0.950 . S
H626 C656 0.950 . S
H627 C657 0.950 . S
C628 H610 0.951 . S
C628 C629 1.366 . S
C628 C630 1.388 . S
C629 C628 1.366 . S
C629 C633 1.385 . S
C630 H611 0.951 . S
C630 C628 1.388 . S
C630 C631 1.366 . S
C631 C630 1.366 . S
C631 C632 1.414 . S
C631 C634 1.499 . S
C632 H612 0.950 . S
C632 C631 1.414 . S
C632 C633 1.374 . S
C633 H613 0.950 . S
C633 C629 1.385 . S
C633 C632 1.374 . S
C634 C631 1.499 . S
C634 C635 1.373 . S
C634 C636 1.389 . S
C635 H614 0.950 . S
C635 C634 1.373 . S
C635 C651 1.377 . S
C636 C634 1.389 . S
C636 C637 1.524 1_655 S
C636 C650 1.377 . S
C637 C636 1.524 1_455 S
C637 C638 1.397 . S
C637 C642 1.363 . S
C638 H615 0.950 . S
C638 C637 1.397 . S
C638 C639 1.334 . S
C639 H616 0.950 . S
C639 C638 1.334 . S
C639 C640 1.287 . S
C640 C639 1.287 . S
C640 C641 1.524 . S
C640 H659 0.913 . S
C641 H617 0.950 . S
C641 C640 1.524 . S
C641 C642 1.415 . S
C642 H618 0.955 . S
C642 C637 1.363 . S
C642 C641 1.415 . S
C643 H619 0.951 . S
C643 C644 1.366 . S
C643 C645 1.388 1_455 S
C644 C643 1.366 . S
C644 C648 1.385 . S
C645 H620 0.951 . S
C645 C643 1.388 1_655 S
C645 C646 1.366 . S
C646 C645 1.366 . S
C646 C647 1.414 . S
C646 C649 1.499 . S
C647 H621 0.950 . S
C647 C646 1.414 . S
C647 C648 1.374 1_655 S
C648 H622 0.950 . S
C648 C644 1.385 . S
C648 C647 1.374 1_455 S
C649 C646 1.499 . S
C649 C650 1.373 . S
C649 C651 1.389 . S
C650 H623 0.950 1_655 S
C650 C636 1.377 . S
C650 C649 1.373 . S
C651 C635 1.377 . S
C651 C649 1.389 . S
C651 C652 1.524 . S
C652 C651 1.524 . S
C652 C653 1.397 . S
C652 C657 1.363 . S
C653 H624 0.950 . S
C653 C652 1.397 . S
C653 C654 1.334 . S
C654 H625 0.950 . S
C654 C653 1.334 . S
C654 C655 1.287 . S
C655 C654 1.287 . S
C655 C656 1.524 . S
C655 H658 0.999 . S
C656 H626 0.950 . S
C656 C655 1.524 . S
C656 C657 1.415 . S
C657 H627 0.950 . S
C657 C652 1.363 . S
C657 C656 1.415 . S
H658 C655 0.999 . S
H659 C640 0.913 . S
H660 C678 0.951 . S
H661 C680 0.951 . S
H662 C682 0.950 . S
H663 C683 0.950 . S
H664 C685 0.950 . S
H665 C688 0.950 . S
H666 C689 0.950 . S
H667 C691 0.950 . S
H668 C692 0.950 . S
H669 C693 0.951 . S
H670 C695 0.951 . S
H671 C697 0.950 . S
H672 C698 0.950 . S
H673 C700 0.950 1_655 S
H674 C703 0.950 . S
H675 C704 0.950 . S
H676 C706 0.950 . S
H677 C707 0.950 . S
C678 H660 0.951 . S
C678 C679 1.366 . S
C678 C680 1.388 . S
C679 C678 1.366 . S
C679 C683 1.385 1_655 S
C680 H661 0.951 . S
C680 C678 1.388 . S
C680 C681 1.366 1_655 S
C681 C680 1.366 1_455 S
C681 C682 1.414 . S
C681 C684 1.499 . S
C682 H662 0.950 . S
C682 C681 1.414 . S
C682 C683 1.374 . S
C683 H663 0.950 . S
C683 C679 1.385 1_455 S
C683 C682 1.374 . S
C684 C681 1.499 . S
C684 C685 1.373 . S
C684 C686 1.390 1_455 S
C685 H664 0.950 . S
C685 C684 1.373 . S
C685 C701 1.377 . S
C686 C684 1.390 1_655 S
C686 C687 1.523 . S
C686 C700 1.377 1_655 S
C687 C686 1.523 . S
C687 C688 1.397 . S
C687 C692 1.363 . S
C688 H665 0.950 . S
C688 C687 1.397 . S
C688 C689 1.334 . S
C689 H666 0.950 . S
C689 C688 1.334 . S
C689 C690 1.287 . S
C690 C689 1.287 . S
C690 C691 1.524 . S
C690 H709 0.913 . S
C691 H667 0.950 . S
C691 C690 1.524 . S
C691 C692 1.415 . S
C692 H668 0.950 . S
C692 C687 1.363 . S
C692 C691 1.415 . S
C693 H669 0.951 . S
C693 C694 1.366 . S
C693 C695 1.388 . S
C694 C693 1.366 . S
C694 C698 1.385 . S
C695 H670 0.951 . S
C695 C693 1.388 . S
C695 C696 1.366 . S
C696 C695 1.366 . S
C696 C697 1.414 . S
C696 C699 1.499 . S
C697 H671 0.950 . S
C697 C696 1.414 . S
C697 C698 1.374 . S
C698 H672 0.950 . S
C698 C694 1.385 . S
C698 C697 1.374 . S
C699 C696 1.499 . S
C699 C700 1.373 . S
C699 C701 1.389 . S
C700 H673 0.950 1_455 S
C700 C686 1.377 1_455 S
C700 C699 1.373 . S
C701 C685 1.377 . S
C701 C699 1.389 . S
C701 C702 1.524 . S
C702 C701 1.524 . S
C702 C703 1.397 . S
C702 C707 1.363 . S
C703 H674 0.950 . S
C703 C702 1.397 . S
C703 C704 1.334 . S
C704 H675 0.950 . S
C704 C703 1.334 . S
C704 C705 1.287 . S
C705 C704 1.287 . S
C705 C706 1.524 . S
C705 H708 0.999 . S
C706 H676 0.950 . S
C706 C705 1.524 . S
C706 C707 1.415 . S
C707 H677 0.950 . S
C707 C702 1.363 . S
C707 C706 1.415 . S
H708 C705 0.999 . S
H709 C690 0.913 . S
H710 C728 0.951 . S
H711 C730 0.951 . S
H712 C732 0.950 . S
H713 C733 0.950 . S
H714 C735 0.950 . S
H715 C738 0.950 1_455 S
H716 C739 0.950 . S
H717 C741 0.950 . S
H718 C742 0.950 . S
H719 C743 0.951 . S
H720 C745 0.951 . S
H721 C747 0.950 . S
H722 C748 0.950 . S
H723 C750 0.959 . S
H724 C753 0.950 . S
H725 C754 0.950 . S
H726 C756 0.950 . S
H727 C757 0.950 . S
C728 H710 0.951 . S
C728 C729 1.366 . S
C728 C730 1.388 . S
C729 C728 1.366 . S
C729 C733 1.385 . S
C730 H711 0.951 . S
C730 C728 1.388 . S
C730 C731 1.366 . S
C731 C730 1.366 . S
C731 C732 1.414 . S
C731 C734 1.499 . S
C732 H712 0.950 . S
C732 C731 1.414 . S
C732 C733 1.374 . S
C733 H713 0.950 . S
C733 C729 1.385 . S
C733 C732 1.374 . S
C734 C731 1.499 . S
C734 C735 1.373 . S
C734 C736 1.389 . S
C735 H714 0.950 . S
C735 C734 1.373 . S
C735 C751 1.377 . S
C736 C734 1.389 . S
C736 C737 1.524 1_455 S
C736 C750 1.374 1_455 S
C737 C736 1.524 1_655 S
C737 C738 1.397 . S
C737 C742 1.363 . S
C738 H715 0.950 1_655 S
C738 C737 1.397 . S
C738 C739 1.334 . S
C739 H716 0.950 . S
C739 C738 1.334 . S
C739 C740 1.287 . S
C740 C739 1.287 . S
C740 C741 1.524 . S
C740 H759 0.913 . S
C741 H717 0.950 . S
C741 C740 1.524 . S
C741 C742 1.415 . S
C742 H718 0.950 . S
C742 C737 1.363 . S
C742 C741 1.415 . S
C743 H719 0.951 . S
C743 C744 1.366 1_455 S
C743 C745 1.388 . S
C744 C743 1.366 1_655 S
C744 C748 1.385 . S
C745 H720 0.951 . S
C745 C743 1.388 . S
C745 C746 1.366 . S
C746 C745 1.366 . S
C746 C747 1.414 1_455 S
C746 C749 1.499 . S
C747 H721 0.950 . S
C747 C746 1.414 1_655 S
C747 C748 1.374 . S
C748 H722 0.950 . S
C748 C744 1.385 . S
C748 C747 1.374 . S
C749 C746 1.499 . S
C749 C750 1.367 1_455 S
C749 C751 1.389 . S
C750 H723 0.959 . S
C750 C736 1.374 1_655 S
C750 C749 1.367 1_655 S
C751 C735 1.377 . S
C751 C749 1.389 . S
C751 C752 1.524 . S
C752 C751 1.524 . S
C752 C753 1.397 . S
C752 C757 1.363 . S
C753 H724 0.950 . S
C753 C752 1.397 . S
C753 C754 1.334 . S
C754 H725 0.950 . S
C754 C753 1.334 . S
C754 C755 1.287 . S
C755 C754 1.287 . S
C755 C756 1.524 . S
C755 H758 0.999 . S
C756 H726 0.950 . S
C756 C755 1.524 . S
C756 C757 1.415 . S
C757 H727 0.950 . S
C757 C752 1.363 . S
C757 C756 1.415 . S
H758 C755 0.999 . S
H759 C740 0.913 . S
C179 C58 1.493 . S
C194 C9 1.493 . S
C229 C89 1.493 . S
C244 C138 1.493 . S
C279 C18 1.493 . S
C294 C49 1.493 . S
C329 C129 1.493 . S
C344 C98 1.493 . S
C379 C126 1.210 . S
C394 C10 1.206 . S
C429 C46 1.211 . S
C444 C90 1.206 . S
C479 C59 1.206 . S
C494 C95 1.210 . S
C529 C139 1.206 . S
C544 C15 1.210 . S
C579 C50 1.206 . S
C594 C86 1.211 . S
C629 C130 1.206 . S
C644 C6 1.210 . S
C679 C135 1.210 . S
C694 C19 1.206 . S
C729 C99 1.207 . S
C744 C55 1.210 . S
