# Generated by pormake.
# Topology wip, (6)-cn, num edge types: 1
# Building blocks:
#     Node 0, Type 0, BuildingBlock: KUMBOL_clean_sbu_0, # of connection points: 6
#     Node 1, Type 0, BuildingBlock: KUMBOL_clean_sbu_0, # of connection points: 6
#     Node 2, Type 0, BuildingBlock: KUMBOL_clean_sbu_0, # of connection points: 6
#     Node 3, Type 0, BuildingBlock: KUMBOL_clean_sbu_0, # of connection points: 6
#     Node 4, Type 0, BuildingBlock: KUMBOL_clean_sbu_0, # of connection points: 6
#     Node 5, Type 0, BuildingBlock: KUMBOL_clean_sbu_0, # of connection points: 6
#     Node 6, Type 0, BuildingBlock: KUMBOL_clean_sbu_0, # of connection points: 6
#     Node 7, Type 0, BuildingBlock: KUMBOL_clean_sbu_0, # of connection points: 6
#     Node 8, Type 0, BuildingBlock: KUMBOL_clean_sbu_0, # of connection points: 6
#     Node 9, Type 0, BuildingBlock: KUMBOL_clean_sbu_0, # of connection points: 6
#     Node 10, Type 0, BuildingBlock: KUMBOL_clean_sbu_0, # of connection points: 6
#     Node 11, Type 0, BuildingBlock: KUMBOL_clean_sbu_0, # of connection points: 6
#     Node 12, Type 0, BuildingBlock: KUMBOL_clean_sbu_0, # of connection points: 6
#     Node 13, Type 0, BuildingBlock: KUMBOL_clean_sbu_0, # of connection points: 6
#     Node 14, Type 0, BuildingBlock: KUMBOL_clean_sbu_0, # of connection points: 6
#     Node 15, Type 0, BuildingBlock: KUMBOL_clean_sbu_0, # of connection points: 6
#     Node 16, Type 0, BuildingBlock: KUMBOL_clean_sbu_0, # of connection points: 6
#     Node 17, Type 0, BuildingBlock: KUMBOL_clean_sbu_0, # of connection points: 6
#     Node 18, Type 0, BuildingBlock: KUMBOL_clean_sbu_0, # of connection points: 6
#     Node 19, Type 0, BuildingBlock: KUMBOL_clean_sbu_0, # of connection points: 6
#     Node 20, Type 0, BuildingBlock: KUMBOL_clean_sbu_0, # of connection points: 6
#     Node 21, Type 0, BuildingBlock: KUMBOL_clean_sbu_0, # of connection points: 6
#     Node 22, Type 0, BuildingBlock: KUMBOL_clean_sbu_0, # of connection points: 6
#     Node 23, Type 0, BuildingBlock: KUMBOL_clean_sbu_0, # of connection points: 6
#     Node 24, Type 0, BuildingBlock: KUMBOL_clean_sbu_0, # of connection points: 6
#     Node 25, Type 0, BuildingBlock: KUMBOL_clean_sbu_0, # of connection points: 6
#     Node 26, Type 0, BuildingBlock: KUMBOL_clean_sbu_0, # of connection points: 6
#     Node 27, Type 0, BuildingBlock: KUMBOL_clean_sbu_0, # of connection points: 6
#     Node 28, Type 0, BuildingBlock: KUMBOL_clean_sbu_0, # of connection points: 6
#     Node 29, Type 0, BuildingBlock: KUMBOL_clean_sbu_0, # of connection points: 6
#     Node 30, Type 0, BuildingBlock: KUMBOL_clean_sbu_0, # of connection points: 6
#     Node 31, Type 0, BuildingBlock: KUMBOL_clean_sbu_0, # of connection points: 6
#     Edge 32, Type (0, 0), BuildingBlock: UVAHIK_clean_linker_0, # of connection points: 2
#     Edge 33, Type (0, 0), BuildingBlock: UVAHIK_clean_linker_0, # of connection points: 2
#     Edge 34, Type (0, 0), BuildingBlock: UVAHIK_clean_linker_0, # of connection points: 2
#     Edge 35, Type (0, 0), BuildingBlock: UVAHIK_clean_linker_0, # of connection points: 2
#     Edge 36, Type (0, 0), BuildingBlock: UVAHIK_clean_linker_0, # of connection points: 2
#     Edge 37, Type (0, 0), BuildingBlock: UVAHIK_clean_linker_0, # of connection points: 2
#     Edge 38, Type (0, 0), BuildingBlock: UVAHIK_clean_linker_0, # of connection points: 2
#     Edge 39, Type (0, 0), BuildingBlock: UVAHIK_clean_linker_0, # of connection points: 2
#     Edge 40, Type (0, 0), BuildingBlock: UVAHIK_clean_linker_0, # of connection points: 2
#     Edge 41, Type (0, 0), BuildingBlock: UVAHIK_clean_linker_0, # of connection points: 2
#     Edge 42, Type (0, 0), BuildingBlock: UVAHIK_clean_linker_0, # of connection points: 2
#     Edge 43, Type (0, 0), BuildingBlock: UVAHIK_clean_linker_0, # of connection points: 2
#     Edge 44, Type (0, 0), BuildingBlock: UVAHIK_clean_linker_0, # of connection points: 2
#     Edge 45, Type (0, 0), BuildingBlock: UVAHIK_clean_linker_0, # of connection points: 2
#     Edge 46, Type (0, 0), BuildingBlock: UVAHIK_clean_linker_0, # of connection points: 2
#     Edge 47, Type (0, 0), BuildingBlock: UVAHIK_clean_linker_0, # of connection points: 2
#     Edge 48, Type (0, 0), BuildingBlock: UVAHIK_clean_linker_0, # of connection points: 2
#     Edge 49, Type (0, 0), BuildingBlock: UVAHIK_clean_linker_0, # of connection points: 2
#     Edge 50, Type (0, 0), BuildingBlock: UVAHIK_clean_linker_0, # of connection points: 2
#     Edge 51, Type (0, 0), BuildingBlock: UVAHIK_clean_linker_0, # of connection points: 2
#     Edge 52, Type (0, 0), BuildingBlock: UVAHIK_clean_linker_0, # of connection points: 2
#     Edge 53, Type (0, 0), BuildingBlock: UVAHIK_clean_linker_0, # of connection points: 2
#     Edge 54, Type (0, 0), BuildingBlock: UVAHIK_clean_linker_0, # of connection points: 2
#     Edge 55, Type (0, 0), BuildingBlock: UVAHIK_clean_linker_0, # of connection points: 2
#     Edge 56, Type (0, 0), BuildingBlock: UVAHIK_clean_linker_0, # of connection points: 2
#     Edge 57, Type (0, 0), BuildingBlock: UVAHIK_clean_linker_0, # of connection points: 2
#     Edge 58, Type (0, 0), BuildingBlock: UVAHIK_clean_linker_0, # of connection points: 2
#     Edge 59, Type (0, 0), BuildingBlock: UVAHIK_clean_linker_0, # of connection points: 2
#     Edge 60, Type (0, 0), BuildingBlock: UVAHIK_clean_linker_0, # of connection points: 2
#     Edge 61, Type (0, 0), BuildingBlock: UVAHIK_clean_linker_0, # of connection points: 2
#     Edge 62, Type (0, 0), BuildingBlock: UVAHIK_clean_linker_0, # of connection points: 2
#     Edge 63, Type (0, 0), BuildingBlock: UVAHIK_clean_linker_0, # of connection points: 2
#     Edge 64, Type (0, 0), BuildingBlock: UVAHIK_clean_linker_0, # of connection points: 2
#     Edge 65, Type (0, 0), BuildingBlock: UVAHIK_clean_linker_0, # of connection points: 2
#     Edge 66, Type (0, 0), BuildingBlock: UVAHIK_clean_linker_0, # of connection points: 2
#     Edge 67, Type (0, 0), BuildingBlock: UVAHIK_clean_linker_0, # of connection points: 2
#     Edge 68, Type (0, 0), BuildingBlock: UVAHIK_clean_linker_0, # of connection points: 2
#     Edge 69, Type (0, 0), BuildingBlock: UVAHIK_clean_linker_0, # of connection points: 2
#     Edge 70, Type (0, 0), BuildingBlock: UVAHIK_clean_linker_0, # of connection points: 2
#     Edge 71, Type (0, 0), BuildingBlock: UVAHIK_clean_linker_0, # of connection points: 2
#     Edge 72, Type (0, 0), BuildingBlock: UVAHIK_clean_linker_0, # of connection points: 2
#     Edge 73, Type (0, 0), BuildingBlock: UVAHIK_clean_linker_0, # of connection points: 2
#     Edge 74, Type (0, 0), BuildingBlock: UVAHIK_clean_linker_0, # of connection points: 2
#     Edge 75, Type (0, 0), BuildingBlock: UVAHIK_clean_linker_0, # of connection points: 2
#     Edge 76, Type (0, 0), BuildingBlock: UVAHIK_clean_linker_0, # of connection points: 2
#     Edge 77, Type (0, 0), BuildingBlock: UVAHIK_clean_linker_0, # of connection points: 2
#     Edge 78, Type (0, 0), BuildingBlock: UVAHIK_clean_linker_0, # of connection points: 2
#     Edge 79, Type (0, 0), BuildingBlock: UVAHIK_clean_linker_0, # of connection points: 2
#     Edge 80, Type (0, 0), BuildingBlock: UVAHIK_clean_linker_0, # of connection points: 2
#     Edge 81, Type (0, 0), BuildingBlock: UVAHIK_clean_linker_0, # of connection points: 2
#     Edge 82, Type (0, 0), BuildingBlock: UVAHIK_clean_linker_0, # of connection points: 2
#     Edge 83, Type (0, 0), BuildingBlock: UVAHIK_clean_linker_0, # of connection points: 2
#     Edge 84, Type (0, 0), BuildingBlock: UVAHIK_clean_linker_0, # of connection points: 2
#     Edge 85, Type (0, 0), BuildingBlock: UVAHIK_clean_linker_0, # of connection points: 2
#     Edge 86, Type (0, 0), BuildingBlock: UVAHIK_clean_linker_0, # of connection points: 2
#     Edge 87, Type (0, 0), BuildingBlock: UVAHIK_clean_linker_0, # of connection points: 2
#     Edge 88, Type (0, 0), BuildingBlock: UVAHIK_clean_linker_0, # of connection points: 2
#     Edge 89, Type (0, 0), BuildingBlock: UVAHIK_clean_linker_0, # of connection points: 2
#     Edge 90, Type (0, 0), BuildingBlock: UVAHIK_clean_linker_0, # of connection points: 2
#     Edge 91, Type (0, 0), BuildingBlock: UVAHIK_clean_linker_0, # of connection points: 2
#     Edge 92, Type (0, 0), BuildingBlock: UVAHIK_clean_linker_0, # of connection points: 2
#     Edge 93, Type (0, 0), BuildingBlock: UVAHIK_clean_linker_0, # of connection points: 2
#     Edge 94, Type (0, 0), BuildingBlock: UVAHIK_clean_linker_0, # of connection points: 2
#     Edge 95, Type (0, 0), BuildingBlock: UVAHIK_clean_linker_0, # of connection points: 2
#     Edge 96, Type (0, 0), BuildingBlock: UVAHIK_clean_linker_0, # of connection points: 2
#     Edge 97, Type (0, 0), BuildingBlock: UVAHIK_clean_linker_0, # of connection points: 2
#     Edge 98, Type (0, 0), BuildingBlock: UVAHIK_clean_linker_0, # of connection points: 2
#     Edge 99, Type (0, 0), BuildingBlock: UVAHIK_clean_linker_0, # of connection points: 2
#     Edge 100, Type (0, 0), BuildingBlock: UVAHIK_clean_linker_0, # of connection points: 2
#     Edge 101, Type (0, 0), BuildingBlock: UVAHIK_clean_linker_0, # of connection points: 2
#     Edge 102, Type (0, 0), BuildingBlock: UVAHIK_clean_linker_0, # of connection points: 2
#     Edge 103, Type (0, 0), BuildingBlock: UVAHIK_clean_linker_0, # of connection points: 2
#     Edge 104, Type (0, 0), BuildingBlock: UVAHIK_clean_linker_0, # of connection points: 2
#     Edge 105, Type (0, 0), BuildingBlock: UVAHIK_clean_linker_0, # of connection points: 2
#     Edge 106, Type (0, 0), BuildingBlock: UVAHIK_clean_linker_0, # of connection points: 2
#     Edge 107, Type (0, 0), BuildingBlock: UVAHIK_clean_linker_0, # of connection points: 2
#     Edge 108, Type (0, 0), BuildingBlock: UVAHIK_clean_linker_0, # of connection points: 2
#     Edge 109, Type (0, 0), BuildingBlock: UVAHIK_clean_linker_0, # of connection points: 2
#     Edge 110, Type (0, 0), BuildingBlock: UVAHIK_clean_linker_0, # of connection points: 2
#     Edge 111, Type (0, 0), BuildingBlock: UVAHIK_clean_linker_0, # of connection points: 2
#     Edge 112, Type (0, 0), BuildingBlock: UVAHIK_clean_linker_0, # of connection points: 2
#     Edge 113, Type (0, 0), BuildingBlock: UVAHIK_clean_linker_0, # of connection points: 2
#     Edge 114, Type (0, 0), BuildingBlock: UVAHIK_clean_linker_0, # of connection points: 2
#     Edge 115, Type (0, 0), BuildingBlock: UVAHIK_clean_linker_0, # of connection points: 2
#     Edge 116, Type (0, 0), BuildingBlock: UVAHIK_clean_linker_0, # of connection points: 2
#     Edge 117, Type (0, 0), BuildingBlock: UVAHIK_clean_linker_0, # of connection points: 2
#     Edge 118, Type (0, 0), BuildingBlock: UVAHIK_clean_linker_0, # of connection points: 2
#     Edge 119, Type (0, 0), BuildingBlock: UVAHIK_clean_linker_0, # of connection points: 2
#     Edge 120, Type (0, 0), BuildingBlock: UVAHIK_clean_linker_0, # of connection points: 2
#     Edge 121, Type (0, 0), BuildingBlock: UVAHIK_clean_linker_0, # of connection points: 2
#     Edge 122, Type (0, 0), BuildingBlock: UVAHIK_clean_linker_0, # of connection points: 2
#     Edge 123, Type (0, 0), BuildingBlock: UVAHIK_clean_linker_0, # of connection points: 2
#     Edge 124, Type (0, 0), BuildingBlock: UVAHIK_clean_linker_0, # of connection points: 2
#     Edge 125, Type (0, 0), BuildingBlock: UVAHIK_clean_linker_0, # of connection points: 2
#     Edge 126, Type (0, 0), BuildingBlock: UVAHIK_clean_linker_0, # of connection points: 2
#     Edge 127, Type (0, 0), BuildingBlock: UVAHIK_clean_linker_0, # of connection points: 2
# Relax obj value: 0.272
# Max RMSD: 0.227
# Mean RMSD: 0.216
data_MOF--net-wip--node1-KUMBOL_clean_sbu_0--edge1-UVAHIK_clean_linker_0
_symmetry_space_group_name_H-M    P1
_symmetry_Int_Tables_number       1
_symmetry_cell_setting            triclinic
loop_
_symmetry_equiv_pos_as_xyz
'x, y, z'
_cell_length_a     75.12324
_cell_length_b     93.593293
_cell_length_c     41.101613
_cell_angle_alpha  84.534032
_cell_angle_beta   90.087987
_cell_angle_gamma 90.038471
loop_
_atom_site_label
_atom_site_type_symbol
_atom_site_fract_x
_atom_site_fract_y
_atom_site_fract_z
_atom_type_partial_charge
Gd0 Gd 0.0878 0.46348 0.08764 0.0
Gd1 Gd 0.06318 0.43517 0.05054 0.0
C2 C 0.02357 0.40892 0.1152 0.0
C3 C 0.03738 0.38533 0.12021 0.0
C4 C 0.05109 0.40509 0.08657 0.0
C5 C 0.03759 0.41419 0.09466 0.0
C6 C 0.05083 0.39046 0.09843 0.0
C7 C 0.02381 0.39455 0.12867 0.0
C8 C 0.00945 0.41813 0.12081 0.0
C9 C 0.0092 0.43199 0.10495 0.0
N10 N 0.03769 0.42798 0.08106 0.0
C11 C 0.02338 0.43671 0.08468 0.0
H12 H 0.02305 0.44752 0.073 0.0
C13 C 0.07629 0.40154 0.0537 0.0
N14 N 0.0641 0.41043 0.06594 0.0
C15 C 0.07644 0.3869 0.06446 0.0
C16 C 0.06386 0.38138 0.08737 0.0
H17 H 0.08617 0.4059 0.03639 0.0
H18 H 0.01328 0.39037 0.14488 0.0
H19 H 0.12392 0.44815 0.05753 0.0
H20 H -0.00153 0.41452 0.13657 0.0
H21 H -0.00183 0.43911 0.10855 0.0
H22 H 0.03711 0.37417 0.13002 0.0
H23 H 0.06741 0.49369 0.10223 0.0
H24 H 0.15744 0.48122 1.01241 0.0
H25 H 0.15142 0.45551 0.02814 0.0
H26 H 0.1261 0.52444 0.02996 0.0
H27 H 0.08635 0.37991 0.05534 0.0
H28 H 0.06408 0.37006 0.09582 0.0
H29 H 0.14787 0.50692 1.01314 0.0
H30 H 0.07158 0.5199 0.09099 0.0
N31 N 0.114 0.46945 0.05779 0.0
C32 C 0.14523 0.47805 0.02513 0.0
C33 C 0.14189 0.46353 0.034 0.0
C34 C 0.13291 0.48833 0.03324 0.0
C35 C 0.11724 0.48362 0.04982 0.0
C36 C 0.12623 0.45941 0.05072 0.0
N37 N 0.09041 0.48846 0.07575 0.0
C38 C 0.10497 0.49345 0.05891 0.0
C39 C 0.08105 0.51259 0.0817 0.0
C40 C 0.09573 0.5179 0.06356 0.0
C41 C 0.07872 0.49775 0.08798 0.0
C42 C 0.10804 0.5083 0.05225 0.0
H43 H 0.09761 0.52939 0.05897 0.0
O44 O 0.08572 0.47176 0.13522 0.0
O45 O 0.06729 0.44635 0.09576 0.0
O46 O 0.04878 0.45641 0.04261 0.0
O47 O 0.06832 0.47502 0.05241 0.0
O48 O 0.06153 0.46597 0.11244 0.0
O49 O 0.10844 0.45893 0.12384 0.0
O50 O 0.06412 0.42689 1.003 0.0
O51 O 0.08179 0.45337 0.0425 0.0
O52 O 0.10156 0.4417 0.09875 0.0
O53 O 0.08073 0.42396 0.09048 0.0
O54 O 0.08786 0.43631 0.01797 0.0
O55 O 0.04002 0.43708 0.0183 0.0
C56 C 0.05597 0.45298 0.11164 0.0
C57 C 0.12349 0.51307 0.03534 0.0
C58 C 0.1359 0.5031 0.02582 0.0
C59 C 0.10104 0.4665 0.14515 0.0
C60 C 0.11294 0.47615 0.16094 0.0
C61 C 0.12256 0.48682 0.14224 0.0
C62 C 0.11512 0.47442 0.195 0.0
C63 C 0.12713 0.4832 0.21016 0.0
C64 C 0.13422 0.49572 0.15727 0.0
C65 C 0.13657 0.49391 0.19103 0.0
C66 C 0.05338 0.47016 0.0401 0.0
C67 C 0.09177 0.44964 0.02025 0.0
C68 C 0.04781 0.4307 0.99527 0.0
C69 C 0.03709 0.42052 0.978 0.0
C70 C 0.03569 0.40612 0.99056 0.0
C71 C 0.02885 0.4251 0.94782 0.0
C72 C 0.01935 0.41531 0.93 0.0
C73 C 0.02647 0.39637 0.97318 0.0
C74 C 0.01848 0.40085 0.94321 0.0
C75 C 0.09541 0.42837 0.1045 0.0
H76 H 0.12124 0.48817 0.11607 0.0
H77 H 0.1077 0.46617 0.20956 0.0
H78 H 0.1415 0.50401 0.14271 0.0
H79 H 0.14558 0.50103 0.20229 0.0
H80 H 0.04193 0.40238 1.01356 0.0
H81 H 0.02983 0.43628 0.93838 0.0
H82 H 0.02566 0.38522 0.98284 0.0
H83 H 0.01187 0.39285 0.93014 0.0
Gd84 Gd 0.79662 0.81024 0.31424 0.0
Gd85 Gd 0.83331 0.79198 0.2761 0.0
C86 C 0.86939 0.76075 0.33711 0.0
C87 C 0.89726 0.77398 0.33654 0.0
C88 C 0.87158 0.78416 0.30664 0.0
C89 C 0.86154 0.77224 0.31747 0.0
C90 C 0.88962 0.78507 0.31564 0.0
C91 C 0.88718 0.76182 0.34716 0.0
C92 C 0.85929 0.74836 0.34529 0.0
C93 C 0.84196 0.74755 0.33333 0.0
N94 N 0.84436 0.77157 0.30748 0.0
C95 C 0.83468 0.75931 0.31432 0.0
H96 H 0.82122 0.75853 0.30561 0.0
C97 C 0.87362 0.80591 0.27234 0.0
N98 N 0.86382 0.79467 0.28642 0.0
C99 C 0.89155 0.80734 0.28076 0.0
C100 C 0.89953 0.79697 0.30282 0.0
H101 H 0.86735 0.814 0.2556 0.0
H102 H 0.89337 0.75317 0.36258 0.0
H103 H 0.81424 0.84211 0.27988 0.0
H104 H 0.86486 0.73927 0.36017 0.0
H105 H 0.83413 0.73792 0.33898 0.0
H106 H 0.91106 0.77454 0.344 0.0
H107 H 0.76017 0.79188 0.33351 0.0
H108 H 0.77182 0.86861 0.24175 0.0
H109 H 0.80377 0.86485 0.25373 0.0
H110 H 0.71996 0.83981 0.26448 0.0
H111 H 0.89918 0.81646 0.27032 0.0
H112 H 0.91341 0.7981 0.30926 0.0
H113 H 0.74072 0.85911 0.24536 0.0
H114 H 0.72742 0.79428 0.3266 0.0
N115 N 0.78846 0.83223 0.28402 0.0
C116 C 0.77633 0.85837 0.25343 0.0
C117 C 0.79433 0.85632 0.26031 0.0
C118 C 0.76431 0.84729 0.26217 0.0
C119 C 0.77085 0.83417 0.27753 0.0
C120 C 0.80019 0.84319 0.2756 0.0
N121 N 0.76583 0.81133 0.30471 0.0
C122 C 0.75919 0.82333 0.28802 0.0
C123 C 0.73624 0.80241 0.3152 0.0
C124 C 0.7292 0.8145 0.29727 0.0
C125 C 0.7547 0.80105 0.31894 0.0
C126 C 0.74066 0.82526 0.28386 0.0
H127 H 0.71489 0.81563 0.29481 0.0
O128 O 0.7852 0.80762 0.36298 0.0
O129 O 0.8187 0.79441 0.3227 0.0
O130 O 0.80764 0.7792 0.27634 0.0
O131 O 0.78435 0.79555 0.27989 0.0
O132 O 0.79475 0.7885 0.34329 0.0
O133 O 0.80276 0.8255 0.34921 0.0
O134 O 0.84435 0.7935 0.22715 0.0
O135 O 0.81051 0.80659 0.26906 0.0
O136 O 0.82253 0.82266 0.31342 0.0
O137 O 0.84524 0.80594 0.31261 0.0
O138 O 0.83108 0.81217 0.2399 0.0
O139 O 0.83061 0.77406 0.24632 0.0
C140 C 0.81122 0.78476 0.34174 0.0
C141 C 0.73413 0.83812 0.26784 0.0
C142 C 0.74595 0.84911 0.25701 0.0
C143 C 0.79239 0.81933 0.37172 0.0
C144 C 0.7806 0.82891 0.38788 0.0
C145 C 0.76575 0.8351 0.37138 0.0
C146 C 0.78431 0.83205 0.41993 0.0
C147 C 0.77334 0.8416 0.43509 0.0
C148 C 0.75477 0.84446 0.38646 0.0
C149 C 0.75856 0.84776 0.41807 0.0
C150 C 0.79076 0.78312 0.27196 0.0
C151 C 0.81461 0.81524 0.24502 0.0
C152 C 0.83908 0.78065 0.22153 0.0
C153 C 0.85135 0.77205 0.20336 0.0
C154 C 0.86909 0.77008 0.21326 0.0
C155 C 0.84526 0.76605 0.17513 0.0
C156 C 0.85684 0.75806 0.15671 0.0
C157 C 0.88066 0.76228 0.19516 0.0
C158 C 0.87465 0.75634 0.16717 0.0
C159 C 0.83902 0.81844 0.3198 0.0
H160 H 0.76265 0.83274 0.34688 0.0
H161 H 0.79568 0.82717 0.43291 0.0
H162 H 0.74325 0.84913 0.37366 0.0
H163 H 0.74966 0.85488 0.42956 0.0
H164 H 0.87401 0.77466 0.23478 0.0
H165 H 0.83148 0.76752 0.16772 0.0
H166 H 0.89441 0.76089 0.20275 0.0
H167 H 0.88408 0.75056 0.15343 0.0
Gd168 Gd 0.40516 0.54808 0.65813 0.0
Gd169 Gd 0.44596 0.56083 0.70061 0.0
C170 C 0.48576 0.59222 0.6478 0.0
C171 C 0.51105 0.57678 0.6405 0.0
C172 C 0.48447 0.56709 0.66857 0.0
C173 C 0.47636 0.5805 0.66398 0.0
C174 C 0.50205 0.56523 0.65741 0.0
C175 C 0.50292 0.59022 0.63566 0.0
C176 C 0.47786 0.60577 0.64479 0.0
C177 C 0.46129 0.60757 0.65874 0.0
N178 N 0.45961 0.58221 0.67582 0.0
C179 C 0.45248 0.59577 0.67464 0.0
H180 H 0.44017 0.59805 0.6862 0.0
C181 C 0.48397 0.54316 0.69304 0.0
N182 N 0.47542 0.55593 0.68447 0.0
C183 C 0.50128 0.54086 0.68241 0.0
C184 C 0.51027 0.55188 0.66409 0.0
H185 H 0.4772 0.53453 0.70746 0.0
H186 H 0.51018 0.59909 0.62303 0.0
H187 H 0.40557 0.51189 0.67977 0.0
H188 H 0.48467 0.61499 0.63263 0.0
H189 H 0.45534 0.61814 0.65766 0.0
H190 H 0.52446 0.57548 0.63155 0.0
H191 H 0.37674 0.57394 0.6318 0.0
H192 H 0.35908 0.50094 0.73584 0.0
H193 H 0.38798 0.49415 0.71312 0.0
H194 H 0.32333 0.54332 0.71833 0.0
H195 H 0.5077 0.5306 0.68845 0.0
H196 H 0.52372 0.55008 0.65592 0.0
H197 H 0.33508 0.5195 0.7381 0.0
H198 H 0.34578 0.58137 0.64259 0.0
N199 N 0.38775 0.52936 0.68514 0.0
C200 C 0.36696 0.50896 0.72157 0.0
C201 C 0.38322 0.50508 0.70876 0.0
C202 C 0.36062 0.52294 0.7142 0.0
C203 C 0.37145 0.53297 0.69557 0.0
C204 C 0.39331 0.51537 0.69003 0.0
N205 N 0.37542 0.55515 0.66499 0.0
C206 C 0.36496 0.54633 0.68482 0.0
C207 C 0.35106 0.57153 0.65484 0.0
C208 C 0.34054 0.56304 0.67709 0.0
C209 C 0.3685 0.56729 0.64866 0.0
C210 C 0.34732 0.55009 0.69187 0.0
H211 H 0.32703 0.56632 0.68178 0.0
O212 O 0.4008 0.55087 0.60535 0.0
O213 O 0.43165 0.55893 0.65416 0.0
O214 O 0.42458 0.57764 0.69341 0.0
O215 O 0.39713 0.56614 0.68862 0.0
O216 O 0.41219 0.56796 0.62405 0.0
O217 O 0.40651 0.52999 0.6283 0.0
O218 O 0.45838 0.54958 0.74363 0.0
O219 O 0.42209 0.54632 0.70295 0.0
O220 O 0.42465 0.53162 0.67906 0.0
O221 O 0.45152 0.54209 0.67055 0.0
O222 O 0.42718 0.55646 0.74366 0.0
O223 O 0.45365 0.57272 0.74095 0.0
C224 C 0.42888 0.56861 0.63133 0.0
C225 C 0.33683 0.54054 0.7122 0.0
C226 C 0.34351 0.52698 0.72345 0.0
C227 C 0.40299 0.53746 0.60091 0.0
C228 C 0.39018 0.53122 0.57891 0.0
C229 C 0.37216 0.53031 0.58751 0.0
C230 C 0.39586 0.52622 0.54912 0.0
C231 C 0.3835 0.52015 0.5283 0.0
C232 C 0.35989 0.52454 0.5669 0.0
C233 C 0.36545 0.51952 0.53766 0.0
C234 C 0.40716 0.57677 0.69793 0.0
C235 C 0.41671 0.54755 0.73153 0.0
C236 C 0.46006 0.56139 0.75822 0.0
C237 C 0.47672 0.5636 0.7761 0.0
C238 C 0.49313 0.56485 0.75983 0.0
C239 C 0.47601 0.56547 0.80972 0.0
C240 C 0.49158 0.56869 0.82665 0.0
C241 C 0.50862 0.5678 0.77675 0.0
C242 C 0.50786 0.56977 0.80994 0.0
C243 C 0.44079 0.53114 0.6677 0.0
H244 H 0.36759 0.53411 0.61016 0.0
H245 H 0.40982 0.52684 0.54251 0.0
H246 H 0.34597 0.52395 0.57362 0.0
H247 H 0.35552 0.51521 0.52214 0.0
H248 H 0.49402 0.5638 0.73404 0.0
H249 H 0.46337 0.56476 0.82245 0.0
H250 H 0.52121 0.56876 0.76397 0.0
H251 H 0.51999 0.57224 0.82259 0.0
Gd252 Gd 0.71345 0.17124 0.84496 0.0
Gd253 Gd 0.67455 0.187 0.80093 0.0
C254 C 0.63818 0.21408 0.85975 0.0
C255 C 0.61114 0.1998 0.8637 0.0
C256 C 0.63668 0.19193 0.83375 0.0
C257 C 0.64613 0.20386 0.84117 0.0
C258 C 0.6189 0.18996 0.84417 0.0
C259 C 0.62079 0.21182 0.87155 0.0
C260 C 0.64787 0.22636 0.86554 0.0
C261 C 0.66485 0.22837 0.85229 0.0
N262 N 0.66291 0.20569 0.82941 0.0
C263 C 0.67218 0.21793 0.83412 0.0
H264 H 0.68551 0.2196 0.8251 0.0
C265 C 0.63498 0.17184 0.80312 0.0
N266 N 0.64459 0.1826 0.81502 0.0
C267 C 0.61731 0.1694 0.81285 0.0
C268 C 0.60932 0.17837 0.83389 0.0
H269 H 0.64124 0.16486 0.78701 0.0
H270 H 0.61455 0.21946 0.88616 0.0
H271 H 0.69654 0.13924 0.82059 0.0
H272 H 0.64229 0.23441 0.87984 0.0
H273 H 0.67245 0.23785 0.85648 0.0
H274 H 0.59756 0.19837 0.87227 0.0
H275 H 0.74949 0.19291 0.84724 0.0
H276 H 0.73992 0.11593 0.78606 0.0
H277 H 0.70818 0.11765 0.80031 0.0
H278 H 0.78954 0.14743 0.79004 0.0
H279 H 0.60987 0.16062 0.80415 0.0
H280 H 0.59562 0.17649 0.84135 0.0
H281 H 0.76991 0.12715 0.78178 0.0
H282 H 0.78125 0.19232 0.83421 0.0
N283 N 0.72171 0.15012 0.82083 0.0
C284 C 0.73498 0.12557 0.79563 0.0
C285 C 0.71709 0.12646 0.80386 0.0
C286 C 0.74625 0.13715 0.79948 0.0
C287 C 0.7392 0.14951 0.81208 0.0
C288 C 0.71061 0.13885 0.81612 0.0
N289 N 0.74351 0.1729 0.82844 0.0
C290 C 0.75033 0.16114 0.81603 0.0
C291 C 0.77273 0.18353 0.8287 0.0
C292 C 0.77978 0.17184 0.81464 0.0
C293 C 0.75462 0.18378 0.83597 0.0
C294 C 0.76867 0.1604 0.80848 0.0
H295 H 0.79389 0.1716 0.80929 0.0
O296 O 0.72681 0.18165 0.88326 0.0
O297 O 0.69249 0.1885 0.84417 0.0
O298 O 0.69703 0.20266 0.79252 0.0
O299 O 0.72265 0.19043 0.81121 0.0
O300 O 0.69575 0.17519 0.88704 0.0
O301 O 0.72585 0.15786 0.88463 0.0
O302 O 0.66399 0.18514 0.75204 0.0
O303 O 0.70003 0.17555 0.79789 0.0
O304 O 0.6906 0.15574 0.85595 0.0
O305 O 0.66494 0.16865 0.83842 0.0
O306 O 0.68034 0.16806 0.77115 0.0
O307 O 0.67241 0.20581 0.76544 0.0
C308 C 0.68732 0.18613 0.87366 0.0
C309 C 0.77553 0.14815 0.79593 0.0
C310 C 0.76435 0.13658 0.79134 0.0
C311 C 0.73116 0.16919 0.89834 0.0
C312 C 0.74125 0.16801 0.92881 0.0
C313 C 0.75787 0.17478 0.92999 0.0
C314 C 0.73435 0.16018 0.95682 0.0
C315 C 0.74407 0.15934 0.98602 0.0
C316 C 0.76764 0.17369 0.95897 0.0
C317 C 0.76076 0.16605 0.98691 0.0
C318 C 0.71447 0.20147 0.79503 0.0
C319 C 0.69726 0.16708 0.77655 0.0
C320 C 0.66635 0.19864 0.74217 0.0
C321 C 0.6531 0.20575 0.71939 0.0
C322 C 0.6352 0.2066 0.72849 0.0
C323 C 0.65847 0.21174 0.68796 0.0
C324 C 0.64604 0.21877 0.66606 0.0
C325 C 0.62284 0.21341 0.7068 0.0
C326 C 0.6282 0.21953 0.67597 0.0
C327 C 0.67304 0.15747 0.85486 0.0
H328 H 0.76334 0.18076 0.90844 0.0
H329 H 0.72149 0.15495 0.956 0.0
H330 H 0.78056 0.17877 0.9598 0.0
H331 H 0.7685 0.1653 1.00929 0.0
H332 H 0.63081 0.202 0.75234 0.0
H333 H 0.6723 0.21111 0.68074 0.0
H334 H 0.60901 0.214 0.71396 0.0
H335 H 0.61836 0.22479 0.65966 0.0
Gd336 Gd 0.08911 0.52862 0.64573 0.0
Gd337 Gd 0.06354 0.55675 0.67966 0.0
C338 C 0.02682 0.58384 0.61005 0.0
C339 C 0.04111 0.60722 0.60717 0.0
C340 C 0.05354 0.58709 0.64162 0.0
C341 C 0.04015 0.57828 0.63193 0.0
C342 C 0.05389 0.60176 0.63008 0.0
C343 C 0.02763 0.59826 0.5971 0.0
C344 C 0.01282 0.57484 0.60253 0.0
C345 C 0.01204 0.56084 0.61757 0.0
N346 N 0.03968 0.56444 0.64511 0.0
C347 C 0.02558 0.55582 0.63909 0.0
H348 H 0.02488 0.5449 0.64998 0.0
C349 C 0.07773 0.59012 0.67728 0.0
N350 N 0.0658 0.58145 0.6635 0.0
C351 C 0.07862 0.60475 0.66659 0.0
C352 C 0.06682 0.61056 0.64253 0.0
H353 H 0.08687 0.58557 0.69579 0.0
H354 H 0.01763 0.60267 0.57997 0.0
H355 H 0.12047 0.55272 0.67088 0.0
H356 H 0.00235 0.57868 0.58574 0.0
H357 H 0.00114 0.55385 0.61232 0.0
H358 H 0.0413 0.61842 0.59767 0.0
H359 H 0.07489 0.4944 0.65723 0.0
H360 H 0.16517 0.52864 0.70847 0.0
H361 H 0.15067 0.5519 0.6924 0.0
H362 H 0.14543 0.48 0.7135 0.0
H363 H 0.08839 0.61153 0.67688 0.0
H364 H 0.06753 0.62189 0.6343 0.0
H365 H 0.16309 0.50194 0.71626 0.0
H366 H 0.08628 0.47079 0.67772 0.0
N367 N 0.11771 0.52993 0.67092 0.0
C368 C 0.15187 0.52887 0.69819 0.0
C369 C 0.14376 0.54199 0.689 0.0
C370 C 0.14246 0.51619 0.6953 0.0
C371 C 0.12511 0.51706 0.68185 0.0
C372 C 0.12658 0.54236 0.67586 0.0
N373 N 0.0982 0.50583 0.66949 0.0
C374 C 0.11509 0.50468 0.68102 0.0
C375 C 0.0945 0.48022 0.67912 0.0
C376 C 0.11172 0.47889 0.69152 0.0
C377 C 0.08801 0.49376 0.66793 0.0
C378 C 0.12226 0.49117 0.69257 0.0
H379 H 0.11679 0.46836 0.70003 0.0
O380 O 0.07526 0.51435 0.61594 0.0
O381 O 0.06443 0.5422 0.63927 0.0
O382 O 0.04777 0.53636 0.68707 0.0
O383 O 0.06783 0.51809 0.67951 0.0
O384 O 0.08115 0.54125 0.59896 0.0
O385 O 0.10395 0.5175 0.6106 0.0
O386 O 0.06348 0.56369 0.72878 0.0
O387 O 0.08124 0.53793 0.69062 0.0
O388 O 0.1026 0.54952 0.62581 0.0
O389 O 0.0839 0.5676 0.64288 0.0
O390 O 0.08746 0.55536 0.7142 0.0
O391 O 0.03894 0.55689 0.70806 0.0
C392 C 0.06634 0.54622 0.60889 0.0
C393 C 0.13969 0.49028 0.70477 0.0
C394 C 0.14975 0.50277 0.70621 0.0
C395 C 0.08965 0.51138 0.60009 0.0
C396 C 0.0877 0.51034 0.56482 0.0
C397 C 0.07338 0.50231 0.55414 0.0
C398 C 0.10041 0.51611 0.54206 0.0
C399 C 0.0985 0.51401 0.5089 0.0
C400 C 0.07154 0.50021 0.52125 0.0
C401 C 0.08398 0.50604 0.49872 0.0
C402 C 0.05252 0.52273 0.6906 0.0
C403 C 0.091 0.5419 0.71297 0.0
C404 C 0.04656 0.56138 0.73363 0.0
C405 C 0.03677 0.57174 0.75205 0.0
C406 C 0.0362 0.5863 0.74047 0.0
C407 C 0.02872 0.56716 0.78248 0.0
C408 C 0.02061 0.57717 0.80159 0.0
C409 C 0.02804 0.5962 0.759 0.0
C410 C 0.02044 0.59172 0.78933 0.0
C411 C 0.09772 0.56326 0.6258 0.0
H412 H 0.06375 0.49744 0.5714 0.0
H413 H 0.11182 0.52197 0.55 0.0
H414 H 0.06062 0.49384 0.51327 0.0
H415 H 0.0826 0.50391 0.47337 0.0
H416 H 0.04226 0.59003 0.7173 0.0
H417 H 0.02923 0.55592 0.79167 0.0
H418 H 0.02774 0.60744 0.74994 0.0
H419 H 0.01429 0.59968 0.80317 0.0
Gd420 Gd 0.71701 0.8201 0.88686 0.0
Gd421 Gd 0.67646 0.80651 0.92815 0.0
C422 C 0.63591 0.78345 0.86866 0.0
C423 C 0.61086 0.79991 0.86627 0.0
C424 C 0.6378 0.80532 0.89563 0.0
C425 C 0.6455 0.79279 0.88729 0.0
C426 C 0.62022 0.80886 0.88592 0.0
C427 C 0.61871 0.78724 0.85759 0.0
C428 C 0.64373 0.77043 0.86239 0.0
C429 C 0.66046 0.76681 0.87541 0.0
N430 N 0.66207 0.78941 0.89861 0.0
C431 C 0.66943 0.77642 0.89373 0.0
H432 H 0.68249 0.77351 0.90285 0.0
C433 C 0.63932 0.82513 0.92722 0.0
N434 N 0.64721 0.81373 0.91462 0.0
C435 C 0.62193 0.82912 0.91817 0.0
C436 C 0.61242 0.82107 0.89705 0.0
H437 H 0.64675 0.83137 0.94346 0.0
H438 H 0.61121 0.78027 0.84301 0.0
H439 H 0.69532 0.85082 0.90744 0.0
H440 H 0.63684 0.763 0.84808 0.0
H441 H 0.66657 0.7567 0.87102 0.0
H442 H 0.5974 0.80252 0.85829 0.0
H443 H 0.75431 0.80006 0.89714 0.0
H444 H 0.73408 0.87794 0.94511 0.0
H445 H 0.70326 0.87347 0.92795 0.0
H446 H 0.78698 0.84966 0.95208 0.0
H447 H 0.61587 0.83839 0.92748 0.0
H448 H 0.59893 0.82415 0.89017 0.0
H449 H 0.76509 0.869 0.95406 0.0
H450 H 0.78479 0.80249 0.91678 0.0
N451 N 0.72179 0.84226 0.90971 0.0
C452 C 0.73079 0.8679 0.93539 0.0
C453 C 0.71342 0.86545 0.92557 0.0
C454 C 0.7436 0.85722 0.93354 0.0
C455 C 0.73865 0.84427 0.92085 0.0
C456 C 0.70908 0.85252 0.91306 0.0
N457 N 0.74581 0.82066 0.90958 0.0
C458 C 0.75097 0.83322 0.9206 0.0
C459 C 0.77541 0.81117 0.91834 0.0
C460 C 0.78075 0.82383 0.93066 0.0
C461 C 0.75794 0.80983 0.90753 0.0
C462 C 0.76856 0.83506 0.9318 0.0
H463 H 0.79435 0.82489 0.93889 0.0
O464 O 0.73243 0.80754 0.85528 0.0
O465 O 0.69485 0.80398 0.88606 0.0
O466 O 0.69707 0.7892 0.93605 0.0
O467 O 0.72389 0.80014 0.92021 0.0
O468 O 0.70096 0.81617 0.84249 0.0
O469 O 0.7344 0.83099 0.85063 0.0
O470 O 0.66663 0.80799 0.97769 0.0
O471 O 0.70318 0.81603 0.93387 0.0
O472 O 0.69522 0.83525 0.86671 0.0
O473 O 0.66861 0.82528 0.88948 0.0
O474 O 0.68336 0.82479 0.95913 0.0
O475 O 0.67188 0.78721 0.96129 0.0
C476 C 0.69095 0.8061 0.85578 0.0
C477 C 0.77354 0.84806 0.94353 0.0
C478 C 0.76109 0.85908 0.94453 0.0
C479 C 0.73977 0.81895 0.84013 0.0
C480 C 0.7436 0.81876 0.80529 0.0
C481 C 0.75706 0.80947 0.7966 0.0
C482 C 0.73532 0.82818 0.7811 0.0
C483 C 0.74062 0.82807 0.7484 0.0
C484 C 0.76232 0.80947 0.76417 0.0
C485 C 0.75417 0.81871 0.74018 0.0
C486 C 0.7146 0.78947 0.93537 0.0
C487 C 0.70042 0.82453 0.95524 0.0
C488 C 0.66715 0.79419 0.98577 0.0
C489 C 0.65324 0.78776 1.00811 0.0
C490 C 0.63529 0.78854 0.99898 0.0
C491 C 0.65797 0.78106 0.03937 0.0
C492 C 0.64476 0.77548 0.06166 0.0
C493 C 0.6222 0.7829 0.02063 0.0
C494 C 0.62683 0.7765 0.05165 0.0
C495 C 0.67752 0.83482 0.86923 0.0
H496 H 0.76374 0.80236 0.81509 0.0
H497 H 0.7251 0.83556 0.78759 0.0
H498 H 0.77288 0.80242 0.75766 0.0
H499 H 0.75863 0.81874 0.71509 0.0
H500 H 0.63141 0.79358 0.97519 0.0
H501 H 0.67186 0.78053 0.04657 0.0
H502 H 0.60834 0.78355 1.0134 0.0
H503 H 0.61633 0.77223 0.06779 0.0
Gd504 Gd 0.40548 0.44475 0.07556 0.0
Gd505 Gd 0.44269 0.42785 0.03222 0.0
C506 C 0.48238 0.39693 0.0839 0.0
C507 C 0.50835 0.41214 0.08809 0.0
C508 C 0.48141 0.42191 0.06167 0.0
C509 C 0.47293 0.40867 0.06818 0.0
C510 C 0.49933 0.42362 0.07088 0.0
C511 C 0.49991 0.39884 0.09456 0.0
C512 C 0.47418 0.38344 0.08737 0.0
C513 C 0.45722 0.38178 0.07439 0.0
N514 N 0.45598 0.40698 0.05729 0.0
C515 C 0.44828 0.39371 0.05918 0.0
H516 H 0.43533 0.39212 0.04891 0.0
C517 C 0.48111 0.44531 0.03366 0.0
N518 N 0.47247 0.43288 0.04475 0.0
C519 C 0.49879 0.44749 0.04253 0.0
C520 C 0.50786 0.43669 0.06162 0.0
H521 H 0.47401 0.45373 0.01918 0.0
H522 H 0.50725 0.38997 0.107 0.0
H523 H 0.41577 0.47883 0.04948 0.0
H524 H 0.48104 0.37416 0.09917 0.0
H525 H 0.45098 0.37131 0.07616 0.0
H526 H 0.52206 0.41331 0.09566 0.0
H527 H 0.37249 0.42213 0.09615 0.0
H528 H 0.37108 0.49816 0.99811 0.0
H529 H 0.40208 0.49964 0.01795 0.0
H530 H 0.3257 0.46216 1.01534 0.0
H531 H 0.50542 0.4575 0.03468 0.0
H532 H 0.52161 0.4384 0.06831 0.0
H533 H 0.34262 0.48401 0.99696 0.0
H534 H 0.3403 0.41947 0.08471 0.0
N535 N 0.39301 0.46537 0.04682 0.0
C536 C 0.37706 0.48894 1.01189 0.0
C537 C 0.39452 0.48983 0.02314 0.0
C538 C 0.36734 0.47631 0.01955 0.0
C539 C 0.37581 0.46461 0.03741 0.0
C540 C 0.40225 0.47795 0.04103 0.0
N541 N 0.37492 0.44173 0.06597 0.0
C542 C 0.3664 0.45236 0.04744 0.0
C543 C 0.34751 0.42873 0.07386 0.0
C544 C 0.33874 0.43926 0.05341 0.0
C545 C 0.36567 0.43026 0.08034 0.0
C546 C 0.34812 0.45139 0.04032 0.0
H547 H 0.32465 0.43811 0.04859 0.0
O548 O 0.39878 0.44199 0.12742 0.0
O549 O 0.42656 0.42848 0.07655 0.0
O550 O 0.41878 0.41334 0.03696 0.0
O551 O 0.3946 0.42906 0.041 0.0
O552 O 0.40797 0.42427 0.11041 0.0
O553 O 0.40801 0.46244 0.1061 0.0
O554 O 0.45517 0.43616 0.98668 0.0
O555 O 0.4242 0.44695 0.03316 0.0
O556 O 0.43109 0.45727 0.07122 0.0
O557 O 0.45328 0.44046 0.07171 0.0
O558 O 0.42612 0.43756 0.99019 0.0
O559 O 0.44744 0.41349 0.99489 0.0
C560 C 0.42341 0.41998 0.10149 0.0
C561 C 0.33972 0.46274 0.02134 0.0
C562 C 0.34934 0.47518 1.0109 0.0
C563 C 0.40259 0.45513 0.13264 0.0
C564 C 0.39026 0.46238 0.15362 0.0
C565 C 0.37266 0.46506 0.14352 0.0
C566 C 0.39593 0.46627 0.18446 0.0
C567 C 0.38381 0.47242 0.20538 0.0
C568 C 0.36073 0.47129 0.16397 0.0
C569 C 0.36618 0.47484 0.19471 0.0
C570 C 0.40173 0.4168 0.03318 0.0
C571 C 0.41867 0.44758 1.00411 0.0
C572 C 0.45495 0.42359 0.97503 0.0
C573 C 0.47102 0.4195 0.95762 0.0
C574 C 0.48599 0.41402 0.975 0.0
C575 C 0.47121 0.42066 0.92315 0.0
C576 C 0.48612 0.416 0.90631 0.0
C577 C 0.50091 0.40968 0.95836 0.0
C578 C 0.50096 0.41055 0.92428 0.0
C579 C 0.44647 0.4521 0.08219 0.0
H580 H 0.36812 0.46218 0.11996 0.0
H581 H 0.4095 0.46415 0.19248 0.0
H582 H 0.34711 0.47325 0.15611 0.0
H583 H 0.35659 0.4795 0.21027 0.0
H584 H 0.48609 0.41294 1.00135 0.0
H585 H 0.45968 0.42486 0.90953 0.0
H586 H 0.51244 0.4055 0.97195 0.0
H587 H 0.51267 0.40706 0.91186 0.0
Gd588 Gd 0.79608 0.18174 0.41993 0.0
Gd589 Gd 0.83186 0.20127 0.45667 0.0
C590 C 0.86362 0.22954 0.38062 0.0
C591 C 0.89199 0.21709 0.38087 0.0
C592 C 0.86839 0.20829 0.418 0.0
C593 C 0.85738 0.21921 0.40524 0.0
C594 C 0.88603 0.20737 0.40674 0.0
C595 C 0.88078 0.22817 0.36781 0.0
C596 C 0.85262 0.24117 0.37037 0.0
C597 C 0.8361 0.24248 0.38527 0.0
N598 N 0.84092 0.22021 0.41824 0.0
C599 C 0.83042 0.23185 0.40926 0.0
H600 H 0.81742 0.23285 0.41972 0.0
C601 C 0.87359 0.18989 0.4604 0.0
N602 N 0.8622 0.19915 0.44303 0.0
C603 C 0.89117 0.18847 0.45 0.0
C604 C 0.89732 0.19705 0.42264 0.0
H605 H 0.86875 0.18313 0.48134 0.0
H606 H 0.88571 0.23586 0.34856 0.0
H607 H 0.81521 0.1526 0.46797 0.0
H608 H 0.8569 0.24933 0.35153 0.0
H609 H 0.82757 0.25153 0.37785 0.0
H610 H 0.90541 0.21643 0.37152 0.0
H611 H 0.75816 0.20063 0.40436 0.0
H612 H 0.7732 0.12484 0.50186 0.0
H613 H 0.80522 0.13028 0.49652 0.0
H614 H 0.72046 0.1507 0.4697 0.0
H615 H 0.89996 0.18075 0.46305 0.0
H616 H 0.91096 0.19598 0.4147 0.0
H617 H 0.74186 0.1325 0.49182 0.0
H618 H 0.72603 0.19707 0.41109 0.0
N619 N 0.78907 0.16022 0.45363 0.0
C620 C 0.77747 0.13478 0.48848 0.0
C621 C 0.79553 0.13778 0.48537 0.0
C622 C 0.7651 0.14482 0.47518 0.0
C623 C 0.7713 0.1577 0.45804 0.0
C624 C 0.80113 0.15056 0.46814 0.0
N625 N 0.76525 0.18068 0.43096 0.0
C626 C 0.75914 0.16815 0.44631 0.0
C627 C 0.73515 0.18889 0.42134 0.0
C628 C 0.72869 0.17626 0.43777 0.0
C629 C 0.75348 0.19085 0.41778 0.0
C630 C 0.74065 0.1657 0.45038 0.0
H631 H 0.71445 0.17472 0.44032 0.0
O632 O 0.78334 0.19103 0.3757 0.0
O633 O 0.81472 0.20076 0.41173 0.0
O634 O 0.80707 0.21449 0.45963 0.0
O635 O 0.7838 0.20019 0.44366 0.0
O636 O 0.81554 0.18542 0.3786 0.0
O637 O 0.7872 0.16746 0.38416 0.0
O638 O 0.84287 0.20075 0.50577 0.0
O639 O 0.80786 0.18777 0.4654 0.0
O640 O 0.82002 0.16751 0.42214 0.0
O641 O 0.84387 0.18267 0.43201 0.0
O642 O 0.82883 0.18229 0.49543 0.0
O643 O 0.83207 0.22052 0.48256 0.0
C644 C 0.82123 0.19786 0.38446 0.0
C645 C 0.73458 0.15276 0.46655 0.0
C646 C 0.74676 0.14238 0.47902 0.0
C647 C 0.78123 0.17841 0.36504 0.0
C648 C 0.77221 0.17689 0.33402 0.0
C649 C 0.75667 0.18481 0.32626 0.0
C650 C 0.77923 0.16793 0.31166 0.0
C651 C 0.7709 0.16726 0.28132 0.0
C652 C 0.74817 0.18384 0.2964 0.0
C653 C 0.75529 0.17518 0.27393 0.0
C654 C 0.78999 0.21169 0.45642 0.0
C655 C 0.81224 0.17971 0.4903 0.0
C656 C 0.83919 0.21412 0.50889 0.0
C657 C 0.85193 0.22233 0.527 0.0
C658 C 0.8695 0.22446 0.51624 0.0
C659 C 0.84628 0.22813 0.55571 0.0
C660 C 0.858 0.23631 0.57327 0.0
C661 C 0.88125 0.23243 0.53376 0.0
C662 C 0.87554 0.23841 0.56191 0.0
C663 C 0.83722 0.17034 0.42405 0.0
H664 H 0.75107 0.1917 0.34335 0.0
H665 H 0.79129 0.16184 0.31744 0.0
H666 H 0.7361 0.18986 0.29058 0.0
H667 H 0.74856 0.17458 0.25075 0.0
H668 H 0.87408 0.21999 0.49436 0.0
H669 H 0.83268 0.22648 0.56404 0.0
H670 H 0.89483 0.23404 0.52543 0.0
H671 H 0.88488 0.24458 0.57501 0.0
Gd672 Gd 0.93109 0.55728 0.17968 0.0
Gd673 Gd 0.90745 0.5275 0.14698 0.0
C674 C 0.85544 0.51271 0.19623 0.0
C675 C 0.86073 0.48719 0.20922 0.0
C676 C 0.88426 0.50265 0.18514 0.0
C677 C 0.873 0.51439 0.18428 0.0
C678 C 0.87817 0.48888 0.19733 0.0
C679 C 0.8494 0.49907 0.2087 0.0
C680 C 0.84442 0.52477 0.19516 0.0
C681 C 0.851 0.53812 0.18267 0.0
N682 N 0.87911 0.52742 0.17152 0.0
C683 C 0.86844 0.53926 0.17086 0.0
H684 H 0.87326 0.54969 0.16161 0.0
C685 C 0.91178 0.49295 0.17038 0.0
N686 N 0.90091 0.50454 0.17285 0.0
C687 C 0.90647 0.47918 0.1826 0.0
C688 C 0.88961 0.47714 0.19632 0.0
H689 H 0.92455 0.49433 0.15834 0.0
H690 H 0.83593 0.49758 0.2178 0.0
H691 H 0.97099 0.5451 0.15502 0.0
H692 H 0.83086 0.52391 0.20408 0.0
H693 H 0.84262 0.54754 0.18204 0.0
H694 H 0.85581 0.4767 0.21851 0.0
H695 H 0.90719 0.58626 0.19235 0.0
H696 H 0.99525 0.57854 0.09247 0.0
H697 H 0.99559 0.55375 0.11932 0.0
H698 H 0.95631 0.61859 0.09997 0.0
H699 H 0.91526 0.47013 0.1808 0.0
H700 H 0.88539 0.46641 0.2053 0.0
H701 H 0.98043 0.60265 0.08519 0.0
H702 H 0.90641 0.61217 0.17281 0.0
N703 N 0.95621 0.56463 0.14802 0.0
C704 C 0.98431 0.5748 0.10819 0.0
C705 C 0.98458 0.56082 0.12336 0.0
C706 C 0.9702 0.58392 0.11429 0.0
C707 C 0.95621 0.57848 0.13477 0.0
C708 C 0.9705 0.55596 0.14371 0.0
N709 N 0.92956 0.58195 0.16333 0.0
C710 C 0.94256 0.58744 0.14287 0.0
C711 C 0.91658 0.60531 0.16407 0.0
C712 C 0.92927 0.61098 0.14158 0.0
C713 C 0.91706 0.59071 0.17514 0.0
C714 C 0.94262 0.60208 0.13102 0.0
H715 H 0.92885 0.62229 0.13303 0.0
O716 O 0.93037 0.566 0.22675 0.0
O717 O 0.91285 0.53898 0.1898 0.0
O718 O 0.89627 0.54874 0.12202 0.0
O719 O 0.91232 0.56784 0.14084 0.0
O720 O 0.90695 0.55581 0.21402 0.0
O721 O 0.95452 0.55593 0.21134 0.0
O722 O 0.91067 0.51121 0.11423 0.0
O723 O 0.92718 0.54507 0.13548 0.0
O724 O 0.94654 0.53663 0.18796 0.0
O725 O 0.92608 0.51803 0.18702 0.0
O726 O 0.93391 0.52507 0.12238 0.0
O727 O 0.88935 0.52676 0.10552 0.0
C728 C 0.90287 0.54249 0.21219 0.0
C729 C 0.95615 0.60741 0.10963 0.0
C730 C 0.96989 0.59833 0.10121 0.0
C731 C 0.94673 0.5623 0.23437 0.0
C732 C 0.95737 0.57248 0.25178 0.0
C733 C 0.95856 0.58692 0.23953 0.0
C734 C 0.96567 0.56784 0.28191 0.0
C735 C 0.97504 0.57762 0.29994 0.0
C736 C 0.96765 0.59667 0.25713 0.0
C737 C 0.9757 0.59213 0.28702 0.0
C738 C 0.90004 0.5627 0.12169 0.0
C739 C 0.93862 0.53839 0.11999 0.0
C740 C 0.89785 0.51593 0.09486 0.0
C741 C 0.90152 0.5162 0.05966 0.0
C742 C 0.91724 0.50999 0.04871 0.0
C743 C 0.88847 0.52117 0.03682 0.0
C744 C 0.89124 0.5201 1.00343 0.0
C745 C 0.91992 0.50885 1.01559 0.0
C746 C 0.90703 0.51386 0.99305 0.0
C747 C 0.94164 0.52317 0.19589 0.0
H748 H 0.95225 0.5907 0.21661 0.0
H749 H 0.96482 0.55662 0.29113 0.0
H750 H 0.9683 0.60786 0.24773 0.0
H751 H 0.9822 0.60013 0.30026 0.0
H752 H 0.92735 0.50567 0.06571 0.0
H753 H 0.87603 0.52548 0.045 0.0
H754 H 0.93184 0.50378 1.00742 0.0
H755 H 0.90911 0.51237 0.96751 0.0
Gd756 Gd 0.16317 0.20107 0.95656 0.0
Gd757 Gd 0.20044 0.1828 0.91915 0.0
C758 C 0.23667 0.14706 0.9661 0.0
C759 C 0.26605 0.15715 0.95501 0.0
C760 C 0.23953 0.17118 0.93979 0.0
C761 C 0.22888 0.15998 0.9522 0.0
C762 C 0.25824 0.16986 0.94076 0.0
C763 C 0.25527 0.14576 0.96762 0.0
C764 C 0.22556 0.13567 0.97721 0.0
C765 C 0.20722 0.13728 0.97424 0.0
N766 N 0.21097 0.16143 0.94913 0.0
C767 C 0.20013 0.15022 0.96013 0.0
H768 H 0.18589 0.15097 0.95895 0.0
C769 C 0.24158 0.19384 0.90958 0.0
N770 N 0.23158 0.183 0.92474 0.0
C771 C 0.26019 0.19315 0.91038 0.0
C772 C 0.26856 0.18114 0.92618 0.0
H773 H 0.23512 0.20294 0.89651 0.0
H774 H 0.26144 0.1359 0.97801 0.0
H775 H 0.17407 0.23419 0.92318 0.0
H776 H 0.23101 0.12557 0.98787 0.0
H777 H 0.19846 0.12854 0.98284 0.0
H778 H 0.28039 0.15591 0.95578 0.0
H779 H 0.12937 0.17952 0.9815 0.0
H780 H 0.13124 0.24988 0.86109 0.0
H781 H 0.16127 0.25304 0.88417 0.0
H782 H 0.08582 0.21424 0.88316 0.0
H783 H 0.26812 0.2017 0.89826 0.0
H784 H 0.28297 0.18052 0.92627 0.0
H785 H 0.1032 0.23518 0.86047 0.0
H786 H 0.09777 0.17587 0.96663 0.0
N787 N 0.1516 0.22038 0.9222 0.0
C788 C 0.13674 0.2416 0.87844 0.0
C789 C 0.15367 0.24345 0.8915 0.0
C790 C 0.12689 0.22931 0.88881 0.0
C791 C 0.13471 0.21885 0.91135 0.0
C792 C 0.16086 0.23273 0.91373 0.0
N793 N 0.13273 0.19762 0.9468 0.0
C794 C 0.12492 0.20713 0.92419 0.0
C795 C 0.10529 0.18467 0.95443 0.0
C796 C 0.09732 0.19391 0.92989 0.0
C797 C 0.12307 0.1868 0.96296 0.0
C798 C 0.10707 0.20545 0.91475 0.0
H799 H 0.08356 0.19222 0.92329 0.0
O800 O 0.15314 0.20049 1.00619 0.0
O801 O 0.18631 0.1868 0.96399 0.0
O802 O 0.17529 0.16961 0.9252 0.0
O803 O 0.15162 0.18544 0.92312 0.0
O804 O 0.166 0.18153 0.99443 0.0
O805 O 0.16492 0.22009 0.98332 0.0
O806 O 0.20957 0.18512 0.86874 0.0
O807 O 0.17797 0.19832 0.91022 0.0
O808 O 0.18878 0.214 0.95532 0.0
O809 O 0.21243 0.19787 0.95283 0.0
O810 O 0.20201 0.20426 0.88918 0.0
O811 O 0.19359 0.16681 0.8863 0.0
C812 C 0.18238 0.1784 0.98861 0.0
C813 C 0.09946 0.21545 0.89107 0.0
C814 C 0.10936 0.22736 0.87811 0.0
C815 C 0.15764 0.21375 1.00968 0.0
C816 C 0.14537 0.22221 0.02841 0.0
C817 C 0.12733 0.22343 0.01986 0.0
C818 C 0.15157 0.22842 0.05643 0.0
C819 C 0.13968 0.23548 0.07617 0.0
C820 C 0.11557 0.23052 0.03916 0.0
C821 C 0.12164 0.23639 0.06722 0.0
C822 C 0.15871 0.17301 0.91733 0.0
C823 C 0.18552 0.20787 0.89098 0.0
C824 C 0.20253 0.17307 0.86183 0.0
C825 C 0.21397 0.16371 0.84431 0.0
C826 C 0.22891 0.15718 0.85977 0.0
C827 C 0.20988 0.16117 0.81198 0.0
C828 C 0.22056 0.15184 0.79557 0.0
C829 C 0.23963 0.14808 0.84341 0.0
C830 C 0.23546 0.14535 0.81156 0.0
C831 C 0.20579 0.2104 0.95964 0.0
H832 H 0.12232 0.21872 0.99856 0.0
H833 H 0.16548 0.22741 0.06336 0.0
H834 H 0.10163 0.23132 0.03256 0.0
H835 H 0.11222 0.24169 0.08198 0.0
H836 H 0.23228 0.15908 0.88446 0.0
H837 H 0.19844 0.16633 0.79977 0.0
H838 H 0.25123 0.14314 0.85542 0.0
H839 H 0.24411 0.1384 0.7991 0.0
Gd840 Gd 0.55059 0.43318 0.52807 0.0
Gd841 Gd 0.5913 0.44588 0.57092 0.0
C842 C 0.63482 0.47223 0.51474 0.0
C843 C 0.65861 0.45477 0.51318 0.0
C844 C 0.63109 0.44839 0.54204 0.0
C845 C 0.62438 0.46181 0.53302 0.0
C846 C 0.64855 0.44484 0.53338 0.0
C847 C 0.65171 0.46846 0.50378 0.0
C848 C 0.62838 0.48628 0.5096 0.0
C849 C 0.61249 0.48979 0.52438 0.0
N850 N 0.60832 0.46509 0.54507 0.0
C851 C 0.60281 0.47908 0.54264 0.0
H852 H 0.59096 0.48219 0.55463 0.0
C853 C 0.6283 0.42691 0.57669 0.0
N854 N 0.62105 0.43925 0.5619 0.0
C855 C 0.64558 0.42284 0.56882 0.0
C856 C 0.65562 0.43171 0.54651 0.0
H857 H 0.62039 0.41994 0.59349 0.0
H858 H 0.65984 0.47624 0.48933 0.0
H859 H 0.55587 0.39634 0.53367 0.0
H860 H 0.63596 0.49461 0.4957 0.0
H861 H 0.60774 0.50076 0.52193 0.0
H862 H 0.67197 0.45217 0.5058 0.0
H863 H 0.5175 0.45813 0.52302 0.0
H864 H 0.5159 0.37785 0.59761 0.0
H865 H 0.54268 0.37537 0.56395 0.0
H866 H 0.47658 0.41679 0.61071 0.0
H867 H 0.65109 0.41284 0.57978 0.0
H868 H 0.66901 0.42856 0.54052 0.0
H869 H 0.49157 0.39341 0.6154 0.0
H870 H 0.48792 0.46131 0.54711 0.0
N871 N 0.53824 0.41149 0.55285 0.0
C872 C 0.52198 0.38734 0.58509 0.0
C873 C 0.53712 0.3859 0.5662 0.0
C874 C 0.51427 0.40087 0.58604 0.0
C875 C 0.52267 0.41293 0.56921 0.0
C876 C 0.54487 0.39805 0.54961 0.0
N877 N 0.52171 0.43736 0.54813 0.0
C878 C 0.51421 0.4262 0.56679 0.0
C879 C 0.49522 0.45145 0.55312 0.0
C880 C 0.48796 0.44053 0.57444 0.0
C881 C 0.51196 0.44955 0.53944 0.0
C882 C 0.4972 0.42759 0.58084 0.0
H883 H 0.47488 0.44196 0.58474 0.0
O884 O 0.53667 0.44396 0.48613 0.0
O885 O 0.57378 0.44842 0.52707 0.0
O886 O 0.57096 0.46281 0.55548 0.0
O887 O 0.54435 0.4509 0.56016 0.0
O888 O 0.5681 0.43991 0.48439 0.0
O889 O 0.54298 0.42109 0.48806 0.0
O890 O 0.59886 0.44254 0.62239 0.0
O891 O 0.56576 0.434 0.57357 0.0
O892 O 0.57244 0.41675 0.53222 0.0
O893 O 0.59942 0.42891 0.53765 0.0
O894 O 0.58476 0.42538 0.60352 0.0
O895 O 0.58743 0.46261 0.60379 0.0
C896 C 0.57867 0.44829 0.49789 0.0
C897 C 0.48949 0.41584 0.59942 0.0
C898 C 0.49802 0.40252 0.60205 0.0
C899 C 0.53552 0.43214 0.47144 0.0
C900 C 0.51871 0.42919 0.45487 0.0
C901 C 0.50287 0.42679 0.47259 0.0
C902 C 0.51882 0.42764 0.42108 0.0
C903 C 0.50327 0.42349 0.40534 0.0
C904 C 0.48735 0.42295 0.45686 0.0
C905 C 0.48754 0.42121 0.42349 0.0
C906 C 0.55432 0.46207 0.56512 0.0
C907 C 0.56812 0.42425 0.59627 0.0
C908 C 0.59381 0.45517 0.62933 0.0
C909 C 0.60551 0.46276 0.65089 0.0
C910 C 0.62292 0.46643 0.64114 0.0
C911 C 0.59935 0.46618 0.68175 0.0
C912 C 0.61073 0.47302 0.70284 0.0
C913 C 0.63415 0.47326 0.6619 0.0
C914 C 0.62816 0.47646 0.69257 0.0
C915 C 0.58979 0.41824 0.52771 0.0
H916 H 0.50255 0.42763 0.4986 0.0
H917 H 0.53107 0.42924 0.40729 0.0
H918 H 0.47517 0.42109 0.47068 0.0
H919 H 0.47542 0.41803 0.41179 0.0
H920 H 0.62783 0.46392 0.61756 0.0
H921 H 0.58592 0.46332 0.68952 0.0
H922 H 0.64761 0.47599 0.65431 0.0
H923 H 0.63718 0.48162 0.7084 0.0
Gd924 Gd 0.32154 0.80664 0.43109 0.0
Gd925 Gd 0.28342 0.82289 0.38362 0.0
C926 C 0.24202 0.84934 0.43204 0.0
C927 C 0.21505 0.83554 0.42587 0.0
C928 C 0.24337 0.82706 0.4063 0.0
C929 C 0.25189 0.83907 0.41661 0.0
C930 C 0.22477 0.82542 0.41012 0.0
C931 C 0.22366 0.84743 0.4369 0.0
C932 C 0.25083 0.86141 0.4417 0.0
C933 C 0.26896 0.86318 0.43544 0.0
N934 N 0.26964 0.84089 0.41098 0.0
C935 C 0.27817 0.85287 0.41969 0.0
H936 H 0.29215 0.85457 0.41512 0.0
C937 C 0.24459 0.80686 0.37576 0.0
N938 N 0.25299 0.8175 0.39068 0.0
C939 C 0.22626 0.80474 0.37924 0.0
C940 C 0.21634 0.81395 0.39686 0.0
H941 H 0.25223 0.79977 0.36183 0.0
H942 H 0.21591 0.85524 0.44864 0.0
H943 H 0.31246 0.77353 0.41029 0.0
H944 H 0.24371 0.86951 0.45366 0.0
H945 H 0.27586 0.87255 0.44261 0.0
H946 H 0.20078 0.83441 0.42907 0.0
H947 H 0.35371 0.82973 0.44601 0.0
H948 H 0.35682 0.75917 0.35717 0.0
H949 H 0.32671 0.75501 0.38052 0.0
H950 H 0.3998 0.7967 0.3636 0.0
H951 H 0.21979 0.79607 0.36816 0.0
H952 H 0.20209 0.81238 0.39924 0.0
H953 H 0.3839 0.77499 0.35028 0.0
H954 H 0.38516 0.83461 0.43007 0.0
N955 N 0.33434 0.78799 0.40458 0.0
C956 C 0.35071 0.76727 0.37067 0.0
C957 C 0.33375 0.76486 0.38391 0.0
C958 C 0.35975 0.77996 0.37565 0.0
C959 C 0.35115 0.79018 0.39326 0.0
C960 C 0.32574 0.77537 0.401 0.0
N961 N 0.35149 0.81172 0.41852 0.0
C962 C 0.36003 0.80243 0.4005 0.0
C963 C 0.37819 0.82558 0.4214 0.0
C964 C 0.3868 0.81668 0.40092 0.0
C965 C 0.36049 0.8228 0.43046 0.0
C966 C 0.37783 0.80478 0.39067 0.0
H967 H 0.4005 0.81887 0.39391 0.0
O968 O 0.33069 0.80829 0.48083 0.0
O969 O 0.29647 0.81889 0.43174 0.0
O970 O 0.30655 0.83827 0.38456 0.0
O971 O 0.33161 0.82381 0.39159 0.0
O972 O 0.31605 0.8257 0.4604 0.0
O973 O 0.32372 0.78753 0.46581 0.0
O974 O 0.27384 0.81899 0.3355 0.0
O975 O 0.30403 0.80515 0.38738 0.0
O976 O 0.29785 0.79188 0.43901 0.0
O977 O 0.273 0.80311 0.41316 0.0
O978 O 0.29982 0.81613 0.34229 0.0
O979 O 0.2781 0.84098 0.34813 0.0
C980 C 0.29927 0.82706 0.45378 0.0
C981 C 0.3862 0.79499 0.3718 0.0
C982 C 0.37716 0.78261 0.36424 0.0
C983 C 0.3292 0.7946 0.48973 0.0
C984 C 0.34311 0.78791 0.51171 0.0
C985 C 0.36112 0.78964 0.50356 0.0
C986 C 0.33835 0.78025 0.54186 0.0
C987 C 0.35156 0.77444 0.56402 0.0
C988 C 0.37422 0.78404 0.52521 0.0
C989 C 0.36956 0.77662 0.55512 0.0
C990 C 0.32339 0.8355 0.37816 0.0
C991 C 0.30896 0.80621 0.35773 0.0
C992 C 0.27315 0.8327 0.32567 0.0
C993 C 0.25803 0.83752 0.30489 0.0
C994 C 0.24113 0.83943 0.31818 0.0
C995 C 0.26068 0.84038 0.27104 0.0
C996 C 0.24655 0.84547 0.25077 0.0
C997 C 0.22697 0.84413 0.29796 0.0
C998 C 0.22966 0.84721 0.26447 0.0
C999 C 0.28055 0.79283 0.43295 0.0
H1000 H 0.36503 0.79548 0.48067 0.0
H1001 H 0.32439 0.77883 0.5479 0.0
H1002 H 0.38813 0.7856 0.51894 0.0
H1003 H 0.38019 0.77282 0.57152 0.0
H1004 H 0.23886 0.83742 0.34406 0.0
H1005 H 0.27374 0.83894 0.26063 0.0
H1006 H 0.21391 0.8455 0.3083 0.0
H1007 H 0.21851 0.85091 0.24917 0.0
Gd1008 Gd 0.93208 0.43498 0.55002 0.0
Gd1009 Gd 0.90652 0.46233 0.58797 0.0
C1010 C 0.86172 0.48766 0.5336 0.0
C1011 C 0.87076 0.51232 0.53828 0.0
C1012 C 0.88921 0.49252 0.5612 0.0
C1013 C 0.87724 0.4828 0.55054 0.0
C1014 C 0.88602 0.5074 0.55563 0.0
C1015 C 0.85863 0.50247 0.52725 0.0
C1016 C 0.8496 0.47748 0.52412 0.0
C1017 C 0.85297 0.46291 0.5321 0.0
N1018 N 0.88053 0.46859 0.5576 0.0
C1019 C 0.86847 0.45864 0.54925 0.0
H1020 H 0.87078 0.44733 0.55534 0.0
C1021 C 0.91502 0.49652 0.59194 0.0
N1022 N 0.90359 0.48738 0.5784 0.0
C1023 C 0.91256 0.51137 0.58681 0.0
C1024 C 0.89804 0.51685 0.5684 0.0
H1025 H 0.92622 0.49234 0.60636 0.0
H1026 H 0.84678 0.5064 0.51429 0.0
H1027 H 0.97192 0.44782 0.57268 0.0
H1028 H 0.83751 0.48076 0.51108 0.0
H1029 H 0.84359 0.45494 0.52522 0.0
H1030 H 0.86807 0.52371 0.53371 0.0
H1031 H 0.90871 0.40568 0.53714 0.0
H1032 H -0.00233 0.41468 0.63422 0.0
H1033 H 0.99723 0.43949 0.60741 0.0
H1034 H 0.95943 0.37403 0.62785 0.0
H1035 H 0.92182 0.51857 0.59717 0.0
H1036 H 0.89607 0.52836 0.56467 0.0
H1037 H 0.98335 0.39033 0.64201 0.0
H1038 H 0.90868 0.37972 0.55644 0.0
N1039 N 0.95783 0.428 0.57999 0.0
C1040 C 0.98651 0.41826 0.61882 0.0
C1041 C 0.98634 0.43225 0.60365 0.0
C1042 C 0.97253 0.40891 0.61313 0.0
C1043 C 0.95826 0.41412 0.59307 0.0
C1044 C 0.97193 0.43692 0.58387 0.0
N1045 N 0.93139 0.41023 0.56527 0.0
C1046 C 0.94474 0.40494 0.58523 0.0
C1047 C 0.91883 0.38672 0.56484 0.0
C1048 C 0.93188 0.38122 0.58689 0.0
C1049 C 0.9189 0.40133 0.55386 0.0
C1050 C 0.94518 0.39031 0.59706 0.0
H1051 H 0.93175 0.36991 0.59545 0.0
O1052 O 0.93142 0.42661 0.5026 0.0
O1053 O 0.91304 0.45293 0.54211 0.0
O1054 O 0.89312 0.44025 0.59589 0.0
O1055 O 0.91545 0.42353 0.59098 0.0
O1056 O 0.90742 0.4359 0.51718 0.0
O1057 O 0.95519 0.43737 0.51791 0.0
O1058 O 0.90802 0.46961 0.63662 0.0
O1059 O 0.92766 0.44572 0.59558 0.0
O1060 O 0.9458 0.45658 0.54272 0.0
O1061 O 0.92567 0.47464 0.55349 0.0
O1062 O 0.93265 0.46517 0.61341 0.0
O1063 O 0.88576 0.45666 0.62326 0.0
C1064 C 0.90322 0.44917 0.51958 0.0
C1065 C 0.95898 0.3852 0.61815 0.0
C1066 C 0.9726 0.39449 0.62623 0.0
C1067 C 0.94763 0.43075 0.49495 0.0
C1068 C 0.95868 0.42071 0.47798 0.0
C1069 C 0.9604 0.40637 0.49071 0.0
C1070 C 0.96688 0.42537 0.44785 0.0
C1071 C 0.97661 0.41568 0.43022 0.0
C1072 C 0.96989 0.39673 0.47355 0.0
C1073 C 0.97781 0.40127 0.44359 0.0
C1074 C 0.90013 0.42734 0.60357 0.0
C1075 C 0.93876 0.4524 0.61186 0.0
C1076 C 0.89273 0.46399 0.64551 0.0
C1077 C 0.88048 0.47324 0.6615 0.0
C1078 C 0.86984 0.48326 0.64289 0.0
C1079 C 0.87912 0.47186 0.6957 0.0
C1080 C 0.86688 0.4803 0.7111 0.0
C1081 C 0.85794 0.49185 0.65818 0.0
C1082 C 0.85639 0.49035 0.6921 0.0
C1083 C 0.94072 0.47022 0.54082 0.0
H1084 H 0.95419 0.40257 0.51368 0.0
H1085 H 0.96564 0.43652 0.43829 0.0
H1086 H 0.97094 0.3856 0.48333 0.0
H1087 H 0.98461 0.39333 0.43066 0.0
H1088 H 0.87059 0.48435 0.6166 0.0
H1089 H 0.88737 0.46415 0.7102 0.0
H1090 H 0.84987 0.49965 0.64371 0.0
H1091 H 0.84717 0.49722 0.70358 0.0
Gd1092 Gd 0.32365 0.18558 0.299 0.0
Gd1093 Gd 0.28333 0.17198 0.34136 0.0
C1094 C 0.25458 0.13496 0.29801 0.0
C1095 C 0.2246 0.14442 0.29073 0.0
C1096 C 0.24817 0.15913 0.31095 0.0
C1097 C 0.2602 0.14793 0.30987 0.0
C1098 C 0.23025 0.15746 0.30138 0.0
C1099 C 0.23674 0.13323 0.28892 0.0
C1100 C 0.2671 0.12417 0.29494 0.0
C1101 C 0.28483 0.12655 0.30265 0.0
N1102 N 0.27743 0.14984 0.31911 0.0
C1103 C 0.28983 0.13949 0.3144 0.0
H1104 H 0.30379 0.14113 0.31839 0.0
C1105 C 0.24232 0.18291 0.32272 0.0
N1106 N 0.25399 0.17175 0.32079 0.0
C1107 C 0.22454 0.18173 0.31354 0.0
C1108 C 0.21846 0.16894 0.3028 0.0
H1109 H 0.24656 0.19284 0.33175 0.0
H1110 H 0.23223 0.12329 0.28009 0.0
H1111 H 0.31905 0.21894 0.32362 0.0
H1112 H 0.26331 0.11412 0.2858 0.0
H1113 H 0.29475 0.11844 0.29922 0.0
H1114 H 0.2109 0.14294 0.28348 0.0
H1115 H 0.35285 0.16027 0.28357 0.0
H1116 H 0.36447 0.22805 0.38034 0.0
H1117 H 0.33524 0.23518 0.35633 0.0
H1118 H 0.40222 0.18731 0.37194 0.0
H1119 H 0.21552 0.19065 0.3151 0.0
H1120 H 0.20462 0.16803 0.2958 0.0
H1121 H 0.38923 0.20996 0.38665 0.0
H1122 H 0.38315 0.15225 0.30108 0.0
N1123 N 0.3388 0.2025 0.32818 0.0
C1124 C 0.35748 0.22087 0.36552 0.0
C1125 C 0.34103 0.22495 0.35195 0.0
C1126 C 0.36485 0.20768 0.35935 0.0
C1127 C 0.35512 0.19868 0.34008 0.0
C1128 C 0.33188 0.21564 0.33309 0.0
N1129 N 0.35282 0.17791 0.31245 0.0
C1130 C 0.36237 0.18597 0.33197 0.0
C1131 C 0.37741 0.16171 0.3101 0.0
C1132 C 0.38697 0.16939 0.3319 0.0
C1133 C 0.36036 0.16629 0.30011 0.0
C1134 C 0.37961 0.18183 0.34268 0.0
H1135 H 0.40017 0.16583 0.3396 0.0
O1136 O 0.33369 0.18412 0.24944 0.0
O1137 O 0.29694 0.17589 0.29405 0.0
O1138 O 0.30478 0.15627 0.35999 0.0
O1139 O 0.33124 0.16674 0.33774 0.0
O1140 O 0.31665 0.16724 0.26833 0.0
O1141 O 0.32692 0.20476 0.26492 0.0
O1142 O 0.26879 0.18527 0.37263 0.0
O1143 O 0.30549 0.18808 0.34125 0.0
O1144 O 0.30309 0.2031 0.29358 0.0
O1145 O 0.27642 0.19136 0.30632 0.0
O1146 O 0.3002 0.17584 0.38489 0.0
O1147 O 0.26636 0.16183 0.37939 0.0
C1148 C 0.29964 0.16735 0.27275 0.0
C1149 C 0.38905 0.1904 0.36308 0.0
C1150 C 0.38167 0.20331 0.37143 0.0
C1151 C 0.33206 0.19781 0.24068 0.0
C1152 C 0.3452 0.20486 0.21746 0.0
C1153 C 0.36321 0.20543 0.22604 0.0
C1154 C 0.33957 0.21139 0.18652 0.0
C1155 C 0.35185 0.21873 0.16468 0.0
C1156 C 0.37542 0.21249 0.20448 0.0
C1157 C 0.36982 0.21915 0.17427 0.0
C1158 C 0.32242 0.15676 0.35702 0.0
C1159 C 0.30991 0.18604 0.37122 0.0
C1160 C 0.26124 0.17416 0.38867 0.0
C1161 C 0.2564 0.17513 0.42287 0.0
C1162 C 0.24371 0.18551 0.4292 0.0
C1163 C 0.26274 0.16543 0.44856 0.0
C1164 C 0.25638 0.16637 0.48038 0.0
C1165 C 0.23734 0.18631 0.46073 0.0
C1166 C 0.24363 0.17681 0.48621 0.0
C1167 C 0.28557 0.20245 0.29279 0.0
H1168 H 0.3678 0.20048 0.24947 0.0
H1169 H 0.32564 0.21101 0.17976 0.0
H1170 H 0.38933 0.21285 0.21127 0.0
H1171 H 0.37963 0.22451 0.15812 0.0
H1172 H 0.23844 0.19284 0.40952 0.0
H1173 H 0.27232 0.15721 0.44388 0.0
H1174 H 0.22737 0.19421 0.46537 0.0
H1175 H 0.23835 0.17745 0.51056 0.0
Gd1176 Gd 0.54995 0.56377 0.19634 0.0
Gd1177 Gd 0.58919 0.54893 0.15335 0.0
C1178 C 0.62767 0.51712 0.20751 0.0
C1179 C 0.65468 0.53134 0.20914 0.0
C1180 C 0.62808 0.5416 0.18254 0.0
C1181 C 0.61905 0.52895 0.19045 0.0
C1182 C 0.64615 0.54287 0.19104 0.0
C1183 C 0.64543 0.51849 0.21746 0.0
C1184 C 0.61832 0.50419 0.21324 0.0
C1185 C 0.60108 0.50318 0.20097 0.0
N1186 N 0.60204 0.52802 0.18001 0.0
C1187 C 0.59318 0.51521 0.18397 0.0
H1188 H 0.57981 0.51426 0.17481 0.0
C1189 C 0.62831 0.56453 0.153 0.0
N1190 N 0.6194 0.55244 0.165 0.0
C1191 C 0.64626 0.56634 0.16083 0.0
C1192 C 0.65517 0.55553 0.18028 0.0
H1193 H 0.62137 0.57288 0.13807 0.0
H1194 H 0.65225 0.50957 0.23084 0.0
H1195 H 0.55708 0.59945 0.18264 0.0
H1196 H 0.62442 0.49486 0.22639 0.0
H1197 H 0.59382 0.49316 0.20472 0.0
H1198 H 0.66852 0.53213 0.2162 0.0
H1199 H 0.51952 0.53719 0.20426 0.0
H1200 H 0.51116 0.61803 0.13397 0.0
H1201 H 0.54107 0.62067 0.15781 0.0
H1202 H 0.47109 0.57846 0.13117 0.0
H1203 H 0.6532 0.57606 0.15185 0.0
H1204 H 0.66908 0.55693 0.1862 0.0
H1205 H 0.48536 0.60216 0.12341 0.0
H1206 H 0.48838 0.53328 0.18706 0.0
N1207 N 0.5366 0.58475 0.17243 0.0
C1208 C 0.51814 0.60862 0.14477 0.0
C1209 C 0.53501 0.61016 0.15826 0.0
C1210 C 0.51022 0.59503 0.14632 0.0
C1211 C 0.5198 0.58311 0.16082 0.0
C1212 C 0.54411 0.59805 0.17215 0.0
N1213 N 0.52074 0.55848 0.18101 0.0
C1214 C 0.51166 0.56966 0.1652 0.0
C1215 C 0.49482 0.5435 0.18058 0.0
C1216 C 0.48564 0.55456 0.16252 0.0
C1217 C 0.51235 0.54574 0.19033 0.0
C1218 C 0.49389 0.56791 0.15519 0.0
H1219 H 0.472 0.55282 0.15521 0.0
O1220 O 0.53714 0.55505 0.24096 0.0
O1221 O 0.56967 0.54558 0.19412 0.0
O1222 O 0.56392 0.53596 0.15503 0.0
O1223 O 0.54079 0.55196 0.15451 0.0
O1224 O 0.56332 0.55164 0.23936 0.0
O1225 O 0.54424 0.5779 0.234 0.0
O1226 O 0.59706 0.55294 0.1022 0.0
O1227 O 0.56797 0.5651 0.15402 0.0
O1228 O 0.57392 0.57817 0.19725 0.0
O1229 O 0.5987 0.56312 0.19179 0.0
O1230 O 0.58651 0.56994 0.12041 0.0
O1231 O 0.58713 0.53219 0.12023 0.0
C1232 C 0.57326 0.5435 0.22418 0.0
C1233 C 0.48469 0.57963 0.13929 0.0
C1234 C 0.49283 0.59314 0.13488 0.0
C1235 C 0.53691 0.56749 0.25323 0.0
C1236 C 0.52064 0.57086 0.2709 0.0
C1237 C 0.50423 0.57249 0.25467 0.0
C1238 C 0.5214 0.57179 0.30489 0.0
C1239 C 0.50583 0.57434 0.32238 0.0
C1240 C 0.48876 0.57498 0.27205 0.0
C1241 C 0.48953 0.57589 0.30573 0.0
C1242 C 0.54864 0.54094 0.14306 0.0
C1243 C 0.57093 0.57387 0.12944 0.0
C1244 C 0.59323 0.54005 0.09498 0.0
C1245 C 0.60591 0.53315 0.07401 0.0
C1246 C 0.62377 0.53155 0.08347 0.0
C1247 C 0.60015 0.528 0.04442 0.0
C1248 C 0.61224 0.52113 0.02463 0.0
C1249 C 0.6358 0.52499 0.06383 0.0
C1250 C 0.63013 0.51981 0.03477 0.0
C1251 C 0.59084 0.57454 0.20236 0.0
H1252 H 0.5033 0.57175 0.22872 0.0
H1253 H 0.53399 0.57038 0.31773 0.0
H1254 H 0.47612 0.57614 0.2594 0.0
H1255 H 0.47738 0.57775 0.31887 0.0
H1256 H 0.62839 0.53541 0.10605 0.0
H1257 H 0.5863 0.52911 0.03718 0.0
H1258 H 0.64961 0.52387 0.07119 0.0
H1259 H 0.63985 0.51483 0.02001 0.0
Gd1260 Gd 0.16463 0.79154 0.77492 0.0
Gd1261 Gd 0.20194 0.8102 0.80932 0.0
C1262 C 0.22562 0.8512 0.75619 0.0
C1263 C 0.25691 0.84498 0.75406 0.0
C1264 C 0.23521 0.82721 0.77575 0.0
C1265 C 0.22168 0.83724 0.77072 0.0
C1266 C 0.25298 0.83102 0.76754 0.0
C1267 C 0.24327 0.85504 0.74835 0.0
C1268 C 0.21169 0.86088 0.74934 0.0
C1269 C 0.19428 0.85635 0.75526 0.0
N1270 N 0.2047 0.83327 0.77893 0.0
C1271 C 0.19099 0.8424 0.7692 0.0
H1272 H 0.17736 0.83898 0.77033 0.0
C1273 C 0.24439 0.80392 0.79605 0.0
N1274 N 0.23111 0.81379 0.78901 0.0
C1275 C 0.26206 0.80715 0.78802 0.0
C1276 C 0.2664 0.82076 0.77363 0.0
H1277 H 0.2415 0.7935 0.80851 0.0
H1278 H 0.24649 0.86574 0.73753 0.0
H1279 H 0.17818 0.76061 0.8172 0.0
H1280 H 0.21419 0.87167 0.73826 0.0
H1281 H 0.1833 0.86349 0.74832 0.0
H1282 H 0.27048 0.8481 0.74785 0.0
H1283 H 0.12958 0.81139 0.74879 0.0
H1284 H 0.13569 0.74439 0.87869 0.0
H1285 H 0.16643 0.74241 0.85823 0.0
H1286 H 0.08808 0.77739 0.85116 0.0
H1287 H 0.27237 0.79921 0.79353 0.0
H1288 H 0.28017 0.82332 0.76778 0.0
H1289 H 0.10664 0.75768 0.8764 0.0
H1290 H 0.09782 0.81422 0.76338 0.0
N1291 N 0.15434 0.77309 0.81357 0.0
C1292 C 0.14072 0.75243 0.86028 0.0
C1293 C 0.15805 0.75125 0.84873 0.0
C1294 C 0.13004 0.76389 0.84767 0.0
C1295 C 0.1373 0.77413 0.82388 0.0
C1296 C 0.16464 0.76165 0.82513 0.0
N1297 N 0.13422 0.79459 0.78635 0.0
C1298 C 0.12693 0.78526 0.80992 0.0
C1299 C 0.1059 0.8061 0.77683 0.0
C1300 C 0.0985 0.79718 0.80251 0.0
C1301 C 0.12381 0.80446 0.76858 0.0
C1302 C 0.10893 0.78642 0.81901 0.0
H1303 H 0.08462 0.79844 0.80879 0.0
O1304 O 0.15611 0.79225 0.72424 0.0
O1305 O 0.18889 0.80465 0.76493 0.0
O1306 O 0.17761 0.82354 0.817 0.0
O1307 O 0.15323 0.80966 0.80187 0.0
O1308 O 0.1678 0.81074 0.73636 0.0
O1309 O 0.1623 0.77184 0.75056 0.0
O1310 O 0.2179 0.7983 0.84653 0.0
O1311 O 0.18289 0.79165 0.81848 0.0
O1312 O 0.18844 0.77724 0.7751 0.0
O1313 O 0.21236 0.79265 0.77954 0.0
O1314 O 0.1848 0.80594 0.85392 0.0
O1315 O 0.21632 0.82166 0.84459 0.0
C1316 C 0.18453 0.81312 0.74077 0.0
C1317 C 0.10182 0.77658 0.84357 0.0
C1318 C 0.11237 0.76534 0.85789 0.0
C1319 C 0.15761 0.77851 0.72266 0.0
C1320 C 0.1445 0.77164 0.7024 0.0
C1321 C 0.12621 0.77243 0.70867 0.0
C1322 C 0.15041 0.76501 0.67491 0.0
C1323 C 0.13811 0.75947 0.65343 0.0
C1324 C 0.11397 0.76683 0.68755 0.0
C1325 C 0.11985 0.76049 0.65999 0.0
C1326 C 0.16028 0.82112 0.81373 0.0
C1327 C 0.17762 0.79411 0.84698 0.0
C1328 C 0.22256 0.80983 0.86002 0.0
C1329 C 0.22348 0.80869 0.896 0.0
C1330 C 0.23298 0.7971 0.91176 0.0
C1331 C 0.21661 0.81936 0.91459 0.0
C1332 C 0.21907 0.81816 0.94869 0.0
C1333 C 0.23548 0.79597 0.94545 0.0
C1334 C 0.22856 0.80639 0.96383 0.0
C1335 C 0.2055 0.78028 0.77225 0.0
H1336 H 0.12142 0.77754 0.72955 0.0
H1337 H 0.16454 0.76449 0.66977 0.0
H1338 H 0.09985 0.76755 0.69237 0.0
H1339 H 0.11013 0.75634 0.64379 0.0
H1340 H 0.23879 0.789 0.89785 0.0
H1341 H 0.20966 0.82859 0.90275 0.0
H1342 H 0.24307 0.78712 0.9573 0.0
H1343 H 0.2311 0.80549 0.98992 0.0
Gd1344 Gd 0.58524 0.96436 0.58587 0.0
Gd1345 Gd 0.56318 0.93493 0.54912 0.0
C1346 C 0.52508 0.90856 0.61697 0.0
C1347 C 0.54014 0.8855 0.62426 0.0
C1348 C 0.55253 0.90499 0.58791 0.0
C1349 C 0.53871 0.91385 0.5955 0.0
C1350 C 0.5531 0.89058 0.60139 0.0
C1351 C 0.52618 0.89448 0.63209 0.0
C1352 C 0.5105 0.91741 0.62177 0.0
C1353 C 0.50937 0.93089 0.60419 0.0
N1354 N 0.53801 0.92736 0.58036 0.0
C1355 C 0.52319 0.93564 0.58309 0.0
H1356 H 0.5222 0.94618 0.57012 0.0
C1357 C 0.57715 0.90136 0.55373 0.0
N1358 N 0.56495 0.91027 0.56599 0.0
C1359 C 0.57822 0.88696 0.56632 0.0
C1360 C 0.56637 0.88162 0.59074 0.0
H1361 H 0.58652 0.90561 0.53533 0.0
H1362 H 0.51599 0.8903 0.64906 0.0
H1363 H 0.62065 0.9457 0.56308 0.0
H1364 H 0.4998 0.91377 0.63819 0.0
H1365 H 0.49796 0.93771 0.60713 0.0
H1366 H 0.54051 0.87452 0.63532 0.0
H1367 H 0.56558 0.99616 0.58687 0.0
H1368 H 0.66028 0.97556 0.52509 0.0
H1369 H 0.65052 0.95055 0.54006 0.0
H1370 H 0.63233 0.0213 0.53094 0.0
H1371 H 0.58826 0.88003 0.55741 0.0
H1372 H 0.56727 0.87048 0.60052 0.0
H1373 H 0.65344 0.00195 0.52204 0.0
H1374 H 0.57276 0.02182 0.57315 0.0
N1375 N 0.6133 0.96773 0.56077 0.0
C1376 C 0.6471 0.9735 0.53511 0.0
C1377 C 0.64163 0.95937 0.54353 0.0
C1378 C 0.6355 0.9848 0.53981 0.0
C1379 C 0.61848 0.98152 0.55287 0.0
C1380 C 0.62466 0.95667 0.55666 0.0
N1381 N 0.59031 0.98877 0.56981 0.0
C1382 C 0.60661 0.99239 0.55761 0.0
C1383 C 0.58237 0.01366 0.56843 0.0
C1384 C 0.599 0.01756 0.55527 0.0
C1385 C 0.5783 -0.00086 0.57591 0.0
C1386 C 0.61139 0.00688 0.54979 0.0
H1387 H 0.60218 0.02882 0.54968 0.0
O1388 O 0.58046 0.97588 0.6283 0.0
O1389 O 0.56578 0.9465 0.59428 0.0
O1390 O 0.54761 0.95565 0.53938 0.0
O1391 O 0.56639 0.97482 0.54799 0.0
O1392 O 0.55795 0.96648 0.60686 0.0
O1393 O 0.60266 0.96093 0.62773 0.0
O1394 O 0.56438 0.92611 0.50219 0.0
O1395 O 0.58079 0.95376 0.54097 0.0
O1396 O 0.59807 0.9432 0.60599 0.0
O1397 O 0.58241 0.92407 0.58697 0.0
O1398 O 0.58769 0.93709 0.51601 0.0
O1399 O 0.54003 0.93609 0.51697 0.0
C1400 C 0.55372 0.95305 0.60866 0.0
C1401 C 0.62837 0.01023 0.53701 0.0
C1402 C 0.64039 -0.00079 0.53197 0.0
C1403 C 0.59442 0.97037 0.64361 0.0
C1404 C 0.60579 0.98003 0.66015 0.0
C1405 C 0.60871 0.99433 0.64775 0.0
C1406 C 0.61369 0.97468 0.68957 0.0
C1407 C 0.6244 0.98356 0.70683 0.0
C1408 C 0.61956 0.00318 0.6647 0.0
C1409 C 0.6274 -0.00216 0.69415 0.0
C1410 C 0.5518 0.96948 0.53553 0.0
C1411 C 0.59105 0.95049 0.51863 0.0
C1412 C 0.54802 0.92966 0.4943 0.0
C1413 C 0.53753 0.91934 0.47721 0.0
C1414 C 0.53622 0.90494 0.48988 0.0
C1415 C 0.5295 0.92382 0.44685 0.0
C1416 C 0.5207 0.91385 0.42874 0.0
C1417 C 0.52734 0.89506 0.47223 0.0
C1418 C 0.51978 0.89943 0.44179 0.0
C1419 C 0.59461 0.92928 0.60603 0.0
H1420 H 0.60254 -0.00127 0.62535 0.0
H1421 H 0.61115 0.9637 0.69947 0.0
H1422 H 0.62162 0.01426 0.65534 0.0
H1423 H 0.63519 0.00503 0.70767 0.0
H1424 H 0.54225 0.90131 0.51316 0.0
H1425 H 0.53059 0.93494 0.43686 0.0
H1426 H 0.52647 0.88393 0.48202 0.0
H1427 H 0.5131 0.89154 0.42845 0.0
Gd1428 Gd 0.29495 0.30937 0.8102 0.0
Gd1429 Gd 0.33239 0.29228 0.77187 0.0
C1430 C 0.36812 0.26395 0.84057 0.0
C1431 C 0.3955 0.27785 0.83939 0.0
C1432 C 0.37042 0.2861 0.8052 0.0
C1433 C 0.36052 0.2744 0.81772 0.0
C1434 C 0.38818 0.28778 0.81523 0.0
C1435 C 0.38548 0.26596 0.85205 0.0
C1436 C 0.35825 0.25161 0.8504 0.0
C1437 C 0.34158 0.24967 0.83644 0.0
N1438 N 0.3438 0.27281 0.8061 0.0
C1439 C 0.33458 0.26038 0.81396 0.0
H1440 H 0.32154 0.25886 0.80387 0.0
C1441 C 0.37278 0.30621 0.76588 0.0
N1442 N 0.36286 0.29558 0.78218 0.0
C1443 C 0.39049 0.30831 0.77497 0.0
C1444 C 0.39813 0.2992 0.80014 0.0
H1445 H 0.36672 0.31341 0.74691 0.0
H1446 H 0.39146 0.25817 0.87 0.0
H1447 H 0.31342 0.34064 0.77395 0.0
H1448 H 0.36359 0.24334 0.86796 0.0
H1449 H 0.33399 0.24002 0.8433 0.0
H1450 H 0.40905 0.27907 0.84781 0.0
H1451 H 0.2586 0.29028 0.82277 0.0
H1452 H 0.27134 0.36986 0.74796 0.0
H1453 H 0.30345 0.36453 0.75365 0.0
H1454 H 0.21872 0.3418 0.77032 0.0
H1455 H 0.39819 0.31699 0.76274 0.0
H1456 H 0.41182 0.30088 0.80718 0.0
H1457 H 0.23984 0.36125 0.75388 0.0
H1458 H 0.22579 0.29323 0.81734 0.0
N1459 N 0.28726 0.33202 0.78252 0.0
C1460 C 0.27564 0.35923 0.75752 0.0
C1461 C 0.29374 0.35629 0.76088 0.0
C1462 C 0.26329 0.34838 0.76625 0.0
C1463 C 0.26959 0.33472 0.77874 0.0
C1464 C 0.29934 0.34259 0.77317 0.0
N1465 N 0.26428 0.31102 0.80039 0.0
C1466 C 0.25774 0.32384 0.78776 0.0
C1467 C 0.23464 0.30188 0.8087 0.0
C1468 C 0.22767 0.31496 0.79531 0.0
C1469 C 0.2531 0.30017 0.81148 0.0
C1470 C 0.23923 0.3262 0.7849 0.0
H1471 H 0.21337 0.31635 0.79361 0.0
O1472 O 0.28284 0.3046 0.85773 0.0
O1473 O 0.3179 0.29429 0.81896 0.0
O1474 O 0.30697 0.27906 0.77186 0.0
O1475 O 0.28351 0.29524 0.77398 0.0
O1476 O 0.29356 0.28726 0.83724 0.0
O1477 O 0.29963 0.32347 0.84828 0.0
O1478 O 0.34278 0.29343 0.72251 0.0
O1479 O 0.30907 0.3063 0.76503 0.0
O1480 O 0.31991 0.32253 0.81336 0.0
O1481 O 0.3443 0.308 0.80449 0.0
O1482 O 0.329 0.31198 0.73444 0.0
O1483 O 0.33125 0.27351 0.74437 0.0
C1484 C 0.31034 0.28434 0.83716 0.0
C1485 C 0.23288 0.33974 0.77253 0.0
C1486 C 0.2449 0.35082 0.76323 0.0
C1487 C 0.28926 0.31609 0.86903 0.0
C1488 C 0.27701 0.32432 0.88749 0.0
C1489 C 0.25908 0.32613 0.87834 0.0
C1490 C 0.28339 0.33019 0.91532 0.0
C1491 C 0.27197 0.33805 0.93368 0.0
C1492 C 0.24767 0.33392 0.8967 0.0
C1493 C 0.25408 0.33992 0.92421 0.0
C1494 C 0.29001 0.28271 0.76703 0.0
C1495 C 0.31261 0.31493 0.74058 0.0
C1496 C 0.33872 0.28014 0.71854 0.0
C1497 C 0.35153 0.27202 0.70041 0.0
C1498 C 0.36953 0.27137 0.70926 0.0
C1499 C 0.34571 0.2654 0.67283 0.0
C1500 C 0.35786 0.25825 0.65372 0.0
C1501 C 0.38165 0.26435 0.69061 0.0
C1502 C 0.37594 0.25792 0.66305 0.0
C1503 C 0.3371 0.31963 0.81476 0.0
H1504 H 0.25384 0.32145 0.85733 0.0
H1505 H 0.29715 0.32855 0.92284 0.0
H1506 H 0.23381 0.33518 0.88981 0.0
H1507 H 0.24495 0.34565 0.93867 0.0
H1508 H 0.37423 0.27644 0.7303 0.0
H1509 H 0.33172 0.26584 0.66639 0.0
H1510 H 0.39559 0.26402 0.69731 0.0
H1511 H 0.38583 0.25291 0.64875 0.0
Gd1512 Gd 0.90494 0.05358 0.15138 0.0
Gd1513 Gd 0.93735 0.0698 0.20427 0.0
C1514 C 0.97677 0.09754 0.14065 0.0
C1515 C 0.00228 0.08176 0.13917 0.0
C1516 C 0.97597 0.07406 0.17077 0.0
C1517 C 0.96751 0.08677 0.16033 0.0
C1518 C 0.99389 0.07187 0.16196 0.0
C1519 C 0.99372 0.09463 0.12857 0.0
C1520 C 0.96924 0.11121 0.13546 0.0
C1521 C 0.95329 0.11405 0.15086 0.0
N1522 N 0.9513 0.08938 0.17317 0.0
C1523 C 0.94457 0.10303 0.16997 0.0
H1524 H 0.93274 0.10576 0.18273 0.0
C1525 C 0.97788 0.05552 0.21345 0.0
N1526 N 0.96782 0.06512 0.19402 0.0
C1527 C 0.99563 0.0529 0.20568 0.0
C1528 C 0.00343 0.06066 0.17881 0.0
H1529 H 0.97208 0.04947 0.23451 0.0
H1530 H 0.00078 0.10264 0.11274 0.0
H1531 H 0.9199 0.01991 0.17141 0.0
H1532 H 0.97601 0.1198 0.12084 0.0
H1533 H 0.94774 0.12476 0.14824 0.0
H1534 H 0.01586 0.08007 0.13155 0.0
H1535 H 0.86741 0.07177 0.13069 0.0
H1536 H 0.88007 0.99664 0.22848 0.0
H1537 H 0.90993 -0.00222 0.20308 0.0
H1538 H 0.83025 0.02866 0.22077 0.0
H1539 H 0.00324 0.04486 0.2204 0.0
H1540 H 0.01722 0.05868 0.17296 0.0
H1541 H 0.85053 0.00847 0.2359 0.0
H1542 H 0.83563 0.07131 0.14677 0.0
N1543 N 0.89622 0.03157 0.17947 0.0
C1544 C 0.88441 0.00645 0.21463 0.0
C1545 C 0.90125 0.00704 0.20029 0.0
C1546 C 0.87309 0.01833 0.20971 0.0
C1547 C 0.87938 0.03082 0.19134 0.0
C1548 C 0.90691 0.01971 0.18246 0.0
N1549 N 0.87417 0.05341 0.16283 0.0
C1550 C 0.86801 0.04216 0.18289 0.0
C1551 C 0.84463 0.06312 0.15736 0.0
C1552 C 0.83839 0.05224 0.18013 0.0
C1553 C 0.86256 0.06332 0.14826 0.0
C1554 C 0.84999 0.04134 0.19247 0.0
H1555 H 0.82445 0.05202 0.18695 0.0
O1556 O 0.8946 0.05691 0.10158 0.0
O1557 O 0.9294 0.06683 0.15298 0.0
O1558 O 0.91536 0.08532 0.19044 0.0
O1559 O 0.89148 0.07094 0.17792 0.0
O1560 O 0.90996 0.07486 0.12193 0.0
O1561 O 0.90835 0.0373 0.11731 0.0
O1562 O 0.94586 0.06297 0.25377 0.0
O1563 O 0.91714 0.05232 0.2011 0.0
O1564 O 0.93201 0.04321 0.14962 0.0
O1565 O 0.94486 0.04718 0.19918 0.0
O1566 O 0.91419 0.06508 0.2387 0.0
O1567 O 0.94306 0.0856 0.23841 0.0
C1568 C 0.92655 0.0763 0.12953 0.0
C1569 C 0.84397 0.02938 0.21273 0.0
C1570 C 0.85552 0.01788 0.22132 0.0
C1571 C 0.90003 0.04454 0.09336 0.0
C1572 C 0.88779 0.03638 0.07378 0.0
C1573 C 0.87059 0.03301 0.08522 0.0
C1574 C 0.89342 0.03165 0.04367 0.0
C1575 C 0.88195 0.0234 0.02548 0.0
C1576 C 0.85913 0.02508 0.06713 0.0
C1577 C 0.86474 0.02028 0.03766 0.0
C1578 C 0.89818 0.08293 0.18759 0.0
C1579 C 0.90847 0.05363 0.22695 0.0
C1580 C 0.94843 0.07598 0.26139 0.0
C1581 C 0.96567 0.07846 0.27694 0.0
C1582 C 0.98073 0.08239 0.25795 0.0
C1583 C 0.96732 0.07622 0.31111 0.0
C1584 C 0.98399 0.07765 0.32596 0.0
C1585 C 0.99738 0.08333 0.27265 0.0
C1586 C -0.00095 0.08093 0.30652 0.0
C1587 C 0.94463 0.04103 0.17183 0.0
H1588 H 0.86604 0.03648 0.10818 0.0
H1589 H 0.90676 0.03412 0.03485 0.0
H1590 H 0.84584 0.02258 0.07607 0.0
H1591 H 0.85551 0.01415 0.02421 0.0
H1592 H 0.97967 0.08467 0.23178 0.0
H1593 H 0.95571 0.07348 0.32608 0.0
H1594 H 0.00898 0.08612 0.25779 0.0
H1595 H 0.01199 0.08205 0.31768 0.0
Gd1596 Gd 0.21618 0.67255 0.34406 0.0
Gd1597 Gd 0.17574 0.68637 0.30246 0.0
C1598 C 0.13764 0.71161 0.3621 0.0
C1599 C 0.11184 0.6959 0.36725 0.0
C1600 C 0.13781 0.68928 0.33675 0.0
C1601 C 0.14633 0.7017 0.3437 0.0
C1602 C 0.12029 0.6864 0.34772 0.0
C1603 C 0.12052 0.70848 0.37447 0.0
C1604 C 0.14623 0.72451 0.36685 0.0
C1605 C 0.16285 0.72743 0.3527 0.0
N1606 N 0.16282 0.7044 0.33126 0.0
C1607 C 0.17097 0.71724 0.33484 0.0
H1608 H 0.18401 0.71962 0.32499 0.0
C1609 C 0.13753 0.66906 0.30638 0.0
N1610 N 0.14633 0.68036 0.31778 0.0
C1611 C 0.12016 0.6657 0.31674 0.0
C1612 C 0.11159 0.67429 0.3379 0.0
H1613 H 0.14424 0.66238 0.29015 0.0
H1614 H 0.11372 0.71588 0.38893 0.0
H1615 H 0.1961 0.64147 0.32081 0.0
H1616 H 0.14002 0.73238 0.38088 0.0
H1617 H 0.16955 0.73744 0.35593 0.0
H1618 H 0.09845 0.6938 0.37622 0.0
H1619 H 0.25291 0.69355 0.33651 0.0
H1620 H 0.23668 0.61557 0.28507 0.0
H1621 H 0.20536 0.61922 0.30009 0.0
H1622 H 0.28863 0.64492 0.28324 0.0
H1623 H 0.1134 0.65651 0.30841 0.0
H1624 H 0.09812 0.67171 0.3458 0.0
H1625 H 0.2675 0.62519 0.27889 0.0
H1626 H 0.28392 0.69178 0.31946 0.0
N1627 N 0.22226 0.65068 0.32072 0.0
C1628 C 0.2328 0.62545 0.29489 0.0
C1629 C 0.21515 0.62744 0.30349 0.0
C1630 C 0.24515 0.63636 0.29811 0.0
C1631 C 0.23944 0.6491 0.31085 0.0
C1632 C 0.21004 0.64015 0.31613 0.0
N1633 N 0.24548 0.67279 0.32328 0.0
C1634 C 0.25134 0.66039 0.31241 0.0
C1635 C 0.27491 0.68291 0.31704 0.0
C1636 C 0.28098 0.67043 0.30491 0.0
C1637 C 0.25715 0.68386 0.32645 0.0
C1638 C 0.26924 0.65898 0.30253 0.0
H1639 H 0.2948 0.6697 0.29772 0.0
O1640 O 0.2308 0.68505 0.37704 0.0
O1641 O 0.19409 0.68873 0.34483 0.0
O1642 O 0.19676 0.70314 0.29199 0.0
O1643 O 0.22329 0.69232 0.31027 0.0
O1644 O 0.19948 0.6759 0.38794 0.0
O1645 O 0.23312 0.66159 0.38099 0.0
O1646 O 0.164 0.68437 0.25438 0.0
O1647 O 0.20217 0.67644 0.29721 0.0
O1648 O 0.19456 0.65675 0.36143 0.0
O1649 O 0.16798 0.66751 0.34068 0.0
O1650 O 0.18211 0.66777 0.27223 0.0
O1651 O 0.17266 0.7051 0.26713 0.0
C1652 C 0.18984 0.68627 0.37486 0.0
C1653 C 0.27495 0.64619 0.29078 0.0
C1654 C 0.26293 0.63494 0.28844 0.0
C1655 C 0.23825 0.67362 0.39195 0.0
C1656 C 0.24238 0.67363 0.4267 0.0
C1657 C 0.25595 0.68287 0.43532 0.0
C1658 C 0.2344 0.66402 0.45077 0.0
C1659 C 0.24008 0.66387 0.48332 0.0
C1660 C 0.2616 0.68262 0.46761 0.0
C1661 C 0.25372 0.67318 0.49152 0.0
C1662 C 0.21426 0.70276 0.29364 0.0
C1663 C 0.19918 0.66785 0.27613 0.0
C1664 C 0.16623 0.69788 0.24426 0.0
C1665 C 0.15286 0.70508 0.22184 0.0
C1666 C 0.13503 0.70591 0.23133 0.0
C1667 C 0.15815 0.71152 0.19069 0.0
C1668 C 0.14572 0.71901 0.16949 0.0
C1669 C 0.12265 0.71313 0.21035 0.0
C1670 C 0.12793 0.71971 0.17987 0.0
C1671 C 0.17686 0.65734 0.35928 0.0
H1672 H 0.26244 0.69011 0.41685 0.0
H1673 H 0.22413 0.65665 0.44428 0.0
H1674 H 0.27225 0.68962 0.47406 0.0
H1675 H 0.25847 0.67294 0.51649 0.0
H1676 H 0.13073 0.70104 0.255 0.0
H1677 H 0.17195 0.71096 0.18329 0.0
H1678 H 0.10888 0.71371 0.21782 0.0
H1679 H 0.11803 0.72525 0.16419 0.0
Gd1680 Gd 0.58889 0.03164 0.14477 0.0
Gd1681 Gd 0.56207 0.05837 0.18163 0.0
C1682 C 0.52082 0.08316 0.11791 0.0
C1683 C 0.53356 0.10716 0.11208 0.0
C1684 C 0.54842 0.08794 0.14562 0.0
C1685 C 0.53521 0.07839 0.13818 0.0
C1686 C 0.54755 0.10247 0.13318 0.0
C1687 C 0.52025 0.09751 0.10441 0.0
C1688 C 0.50729 0.07341 0.11219 0.0
C1689 C 0.50805 0.05942 0.12735 0.0
N1690 N 0.53616 0.06457 0.1515 0.0
C1691 C 0.52255 0.0552 0.14736 0.0
H1692 H 0.52303 0.04431 0.15855 0.0
C1693 C 0.57425 0.0923 0.17641 0.0
N1694 N 0.56199 0.08305 0.16558 0.0
C1695 C 0.5739 0.10683 0.16475 0.0
C1696 C 0.56064 0.11191 0.1427 0.0
H1697 H 0.58462 0.08827 0.19312 0.0
H1698 H 0.5094 0.10133 0.0885 0.0
H1699 H 0.62426 0.04651 0.1786 0.0
H1700 H 0.49606 0.07663 0.09661 0.0
H1701 H 0.49754 0.05185 0.12345 0.0
H1702 H 0.53276 0.11826 0.10196 0.0
H1703 H 0.56949 0.00166 0.1248 0.0
H1704 H 0.65781 0.01296 0.22152 0.0
H1705 H 0.65151 0.03881 0.20851 0.0
H1706 H 0.62758 0.97011 0.19713 0.0
H1707 H 0.58389 0.11409 0.17264 0.0
H1708 H 0.56044 0.12316 0.13363 0.0
H1709 H 0.64873 0.98735 0.2173 0.0
H1710 H 0.574 0.97546 0.13328 0.0
N1711 N 0.61474 0.02526 0.17535 0.0
C1712 C 0.6457 0.01628 0.20858 0.0
C1713 C 0.6422 0.03088 0.20126 0.0
C1714 C 0.63369 0.00613 0.19861 0.0
C1715 C 0.61816 0.01103 0.18176 0.0
C1716 C 0.62667 0.0352 0.18427 0.0
N1717 N 0.59194 0.00656 0.15334 0.0
C1718 C 0.60629 0.00136 0.17057 0.0
C1719 C 0.58318 0.98261 0.14398 0.0
C1720 C 0.59765 0.97707 0.16244 0.0
C1721 C 0.58065 -0.00253 0.13927 0.0
C1722 C 0.60957 0.98648 0.17564 0.0
H1723 H 0.59967 0.96557 0.16583 0.0
O1724 O 0.58816 0.02517 0.09548 0.0
O1725 O 0.56712 0.04773 0.13609 0.0
O1726 O 0.54923 0.0364 0.18927 0.0
O1727 O 0.57037 0.01891 0.17965 0.0
O1728 O 0.56317 0.02809 0.11856 0.0
O1729 O 0.61039 0.03764 0.11134 0.0
O1730 O 0.5628 0.06682 0.22884 0.0
O1731 O 0.58173 0.04094 0.19024 0.0
O1732 O 0.60172 0.05401 0.13838 0.0
O1733 O 0.57831 0.0699 0.14042 0.0
O1734 O 0.58665 0.05819 0.2147 0.0
O1735 O 0.53891 0.05611 0.21371 0.0
C1736 C 0.55648 0.04071 0.11956 0.0
C1737 C 0.62483 0.9815 0.19295 0.0
C1738 C 0.63687 0.99132 0.2044 0.0
C1739 C 0.60372 0.03069 0.08815 0.0
C1740 C 0.61604 0.02152 0.07235 0.0
C1741 C 0.62644 0.01125 0.09071 0.0
C1742 C 0.61732 0.02306 0.0383 0.0
C1743 C 0.62913 0.01444 0.02261 0.0
C1744 C 0.63803 0.0025 0.07511 0.0
C1745 C 0.63944 0.0041 0.04117 0.0
C1746 C 0.55499 0.02292 0.19181 0.0
C1747 C 0.5913 0.04498 0.21278 0.0
C1748 C 0.54659 0.06272 0.23658 0.0
C1749 C 0.53577 0.0728 0.25377 0.0
C1750 C 0.53448 0.08725 0.24155 0.0
C1751 C 0.52766 0.06812 0.28393 0.0
C1752 C 0.51841 0.07788 0.30209 0.0
C1753 C 0.5255 0.09697 0.25928 0.0
C1754 C 0.51765 0.09239 0.28928 0.0
C1755 C 0.59412 0.06655 0.12921 0.0
H1756 H 0.62572 0.01003 0.11697 0.0
H1757 H 0.60919 0.03094 0.02406 0.0
H1758 H 0.64589 0.99447 0.08932 0.0
H1759 H 0.64829 -0.00293 0.02935 0.0
H1760 H 0.54069 0.09106 0.2186 0.0
H1761 H 0.52861 0.05691 0.29315 0.0
H1762 H 0.5248 0.10816 0.24994 0.0
H1763 H 0.51122 0.10036 0.30268 0.0
Gd1764 Gd 0.2092 0.32055 0.39032 0.0
Gd1765 Gd 0.16877 0.30755 0.43389 0.0
C1766 C 0.13016 0.28258 0.37494 0.0
C1767 C 0.10595 0.29965 0.36486 0.0
C1768 C 0.13096 0.3052 0.39911 0.0
C1769 C 0.13888 0.29229 0.39386 0.0
C1770 C 0.11422 0.30889 0.38531 0.0
C1771 C 0.1139 0.28651 0.35972 0.0
C1772 C 0.13781 0.2691 0.37257 0.0
C1773 C 0.15346 0.26544 0.38967 0.0
N1774 N 0.15472 0.28894 0.40852 0.0
C1775 C 0.16174 0.27551 0.40771 0.0
H1776 H 0.17401 0.27257 0.41995 0.0
C1777 C 0.13122 0.32597 0.42779 0.0
N1778 N 0.13946 0.31399 0.41853 0.0
C1779 C 0.11457 0.33008 0.41473 0.0
C1780 C 0.10618 0.32164 0.39294 0.0
H1781 H 0.13799 0.33269 0.44388 0.0
H1782 H 0.10717 0.27931 0.34461 0.0
H1783 H 0.19818 0.35272 0.41709 0.0
H1784 H 0.13154 0.26134 0.3583 0.0
H1785 H 0.15933 0.25494 0.38854 0.0
H1786 H 0.09322 0.3024 0.35355 0.0
H1787 H 0.2411 0.29709 0.37994 0.0
H1788 H 0.24571 0.37312 0.44541 0.0
H1789 H 0.21312 0.37333 0.43719 0.0
H1790 H 0.29123 0.33862 0.42955 0.0
H1791 H 0.10831 0.33983 0.42117 0.0
H1792 H 0.09335 0.32489 0.38271 0.0
H1793 H 0.27477 0.3601 0.4425 0.0
H1794 H 0.2737 0.29467 0.38699 0.0
N1795 N 0.22196 0.34045 0.41347 0.0
C1796 C 0.23921 0.36391 0.43652 0.0
C1797 C 0.22083 0.36407 0.43186 0.0
C1798 C 0.24898 0.35185 0.42968 0.0
C1799 C 0.23986 0.34015 0.41813 0.0
C1800 C 0.2124 0.35226 0.42016 0.0
N1801 N 0.23986 0.31722 0.39958 0.0
C1802 C 0.24908 0.32806 0.4113 0.0
C1803 C 0.26695 0.30411 0.39405 0.0
C1804 C 0.27662 0.31509 0.40664 0.0
C1805 C 0.24852 0.30547 0.39023 0.0
C1806 C 0.26773 0.32733 0.41513 0.0
H1807 H 0.29093 0.31411 0.40922 0.0
O1808 O 0.21983 0.31628 0.34316 0.0
O1809 O 0.18392 0.30828 0.387 0.0
O1810 O 0.19095 0.29108 0.44103 0.0
O1811 O 0.21774 0.30308 0.42864 0.0
O1812 O 0.2066 0.29916 0.36987 0.0
O1813 O 0.20753 0.33679 0.34917 0.0
O1814 O 0.15673 0.31032 0.48099 0.0
O1815 O 0.19484 0.31817 0.43709 0.0
O1816 O 0.18674 0.33685 0.38205 0.0
O1817 O 0.16058 0.32396 0.39164 0.0
O1818 O 0.17539 0.32658 0.46312 0.0
O1819 O 0.16715 0.28947 0.47141 0.0
C1820 C 0.18958 0.29779 0.37247 0.0
C1821 C 0.2769 0.33894 0.42655 0.0
C1822 C 0.26754 0.35118 0.43384 0.0
C1823 C 0.21604 0.32904 0.32956 0.0
C1824 C 0.23015 0.33634 0.31003 0.0
C1825 C 0.24591 0.34057 0.32468 0.0
C1826 C 0.22782 0.33912 0.27624 0.0
C1827 C 0.24111 0.34636 0.25731 0.0
C1828 C 0.25925 0.34758 0.30584 0.0
C1829 C 0.25685 0.35054 0.27228 0.0
C1830 C 0.20855 0.29202 0.44251 0.0
C1831 C 0.1924 0.32685 0.45821 0.0
C1832 C 0.15993 0.29711 0.49288 0.0
C1833 C 0.1471 0.29001 0.51647 0.0
C1834 C 0.1288 0.29041 0.50991 0.0
C1835 C 0.15329 0.28303 0.54648 0.0
C1836 C 0.14125 0.27623 0.56942 0.0
C1837 C 0.11683 0.28384 0.53267 0.0
C1838 C 0.12297 0.27673 0.56203 0.0
C1839 C 0.16949 0.33504 0.37721 0.0
H1840 H 0.24792 0.33852 0.35056 0.0
H1841 H 0.21572 0.33573 0.26473 0.0
H1842 H 0.27147 0.3507 0.31724 0.0
H1843 H 0.26745 0.35582 0.25785 0.0
H1844 H 0.12378 0.29584 0.48728 0.0
H1845 H 0.16743 0.28278 0.55182 0.0
H1846 H 0.10269 0.28426 0.52753 0.0
H1847 H 0.11339 0.27176 0.57925 0.0
Gd1848 Gd 0.90718 0.94771 0.57195 0.0
Gd1849 Gd 0.94478 0.93142 0.52854 0.0
C1850 C 0.98371 0.89867 0.57714 0.0
C1851 C 0.01095 0.9126 0.5781 0.0
C1852 C 0.98376 0.92377 0.55556 0.0
C1853 C 0.97467 0.91076 0.56195 0.0
C1854 C 0.00208 0.92465 0.56301 0.0
C1855 C 0.00179 0.89968 0.58523 0.0
C1856 C 0.97433 0.88584 0.58397 0.0
C1857 C 0.95639 0.8852 0.57566 0.0
N1858 N 0.95702 0.91 0.55416 0.0
C1859 C 0.94792 0.89737 0.5606 0.0
H1860 H 0.93409 0.89636 0.55451 0.0
C1861 C 0.98411 0.94764 0.53028 0.0
N1862 N 0.97495 0.93538 0.54095 0.0
C1863 C 0.00217 0.94898 0.53744 0.0
C1864 C 0.01115 0.9375 0.55421 0.0
H1865 H 0.97722 0.95655 0.51708 0.0
H1866 H 0.00888 0.89048 0.59684 0.0
H1867 H 0.91362 0.98183 0.54024 0.0
H1868 H 0.98081 0.87635 0.59564 0.0
H1869 H 0.94905 0.8753 0.58081 0.0
H1870 H 0.02498 0.91312 0.58405 0.0
H1871 H 0.87648 0.9235 0.59966 0.0
H1872 H 0.86621 0.99661 0.49048 0.0
H1873 H 0.89734 0.00071 0.50687 0.0
H1874 H 0.82476 0.95846 0.51795 0.0
H1875 H 0.00918 0.95884 0.52981 0.0
H1876 H 0.0252 0.93855 0.5595 0.0
H1877 H 0.83921 0.98071 0.49455 0.0
H1878 H 0.84452 0.91873 0.59164 0.0
N1879 N 0.89231 0.96672 0.54157 0.0
C1880 C 0.87336 0.98819 0.50496 0.0
C1881 C 0.89091 0.99056 0.51421 0.0
C1882 C 0.86505 0.9752 0.51559 0.0
C1883 C 0.87499 0.96457 0.5343 0.0
C1884 C 0.90014 0.97974 0.53303 0.0
N1885 N 0.87673 0.94245 0.56668 0.0
C1886 C 0.8669 0.95207 0.54741 0.0
C1887 C 0.85068 0.92809 0.57888 0.0
C1888 C 0.84059 0.93753 0.5579 0.0
C1889 C 0.86878 0.93084 0.5834 0.0
C1890 C 0.8486 0.94981 0.54224 0.0
H1891 H 0.82656 0.93541 0.55459 0.0
O1892 O 0.91031 0.94677 0.62513 0.0
O1893 O 0.92988 0.93258 0.57472 0.0
O1894 O 0.9209 0.91677 0.53087 0.0
O1895 O 0.89606 0.93141 0.53937 0.0
O1896 O 0.90914 0.92678 0.60495 0.0
O1897 O 0.90198 0.96631 0.59882 0.0
O1898 O 0.95693 0.94087 0.48358 0.0
O1899 O 0.92505 0.94973 0.52823 0.0
O1900 O 0.93106 0.9614 0.55976 0.0
O1901 O 0.95488 0.94657 0.564 0.0
O1902 O 0.92682 0.93932 0.48667 0.0
O1903 O 0.95163 0.91775 0.49075 0.0
C1904 C 0.92516 0.92324 0.59728 0.0
C1905 C 0.8388 0.96006 0.52243 0.0
C1906 C 0.84702 0.97272 0.50909 0.0
C1907 C 0.90533 0.95986 0.62746 0.0
C1908 C 0.89258 0.96217 0.65385 0.0
C1909 C 0.87458 0.95874 0.65006 0.0
C1910 C 0.89833 0.96753 0.68324 0.0
C1911 C 0.88611 0.96909 0.70885 0.0
C1912 C 0.86247 0.96043 0.67508 0.0
C1913 C 0.86817 0.96546 0.70426 0.0
C1914 C 0.90361 0.91966 0.52966 0.0
C1915 C 0.91909 0.94954 0.4996 0.0
C1916 C 0.95811 0.92846 0.47132 0.0
C1917 C 0.97447 0.92565 0.45311 0.0
C1918 C 0.99087 0.92341 0.46914 0.0
C1919 C 0.97364 0.92503 0.41903 0.0
C1920 C 0.98913 0.9223 0.40145 0.0
C1921 C 0.00626 0.92091 0.45166 0.0
C1922 C 0.00543 0.92036 0.41796 0.0
C1923 C 0.94654 0.9579 0.57282 0.0
H1924 H 0.8699 0.9547 0.62775 0.0
H1925 H 0.91224 0.97016 0.68642 0.0
H1926 H 0.8486 0.95773 0.67194 0.0
H1927 H 0.85848 0.96659 0.72335 0.0
H1928 H 0.99191 0.92347 0.49507 0.0
H1929 H 0.96104 0.92658 0.40628 0.0
H1930 H 0.01884 0.91927 0.46433 0.0
H1931 H 0.01748 0.91829 0.40473 0.0
Gd1932 Gd 0.29771 0.68178 0.9182 0.0
Gd1933 Gd 0.33347 0.70092 0.95734 0.0
C1934 C 0.3663 0.73016 0.88514 0.0
C1935 C 0.39486 0.71794 0.88678 0.0
C1936 C 0.37057 0.70849 0.9215 0.0
C1937 C 0.35973 0.71956 0.90882 0.0
C1938 C 0.38843 0.70779 0.91137 0.0
C1939 C 0.38379 0.72909 0.87361 0.0
C1940 C 0.35519 0.74162 0.87417 0.0
C1941 C 0.33819 0.74251 0.88747 0.0
N1942 N 0.34293 0.72026 0.92052 0.0
C1943 C 0.33227 0.73172 0.91084 0.0
H1944 H 0.31894 0.73241 0.92013 0.0
C1945 C 0.37481 0.68902 0.96181 0.0
N1946 N 0.36388 0.69881 0.94499 0.0
C1947 C 0.39265 0.68789 0.95266 0.0
C1948 C 0.39942 0.69715 0.92693 0.0
H1949 H 0.36948 0.68177 0.98146 0.0
H1950 H 0.389 0.73701 0.85512 0.0
H1951 H 0.30792 0.64733 0.95129 0.0
H1952 H 0.3597 0.74993 0.85587 0.0
H1953 H 0.32953 0.75138 0.87936 0.0
H1954 H 0.40848 0.71747 0.87832 0.0
H1955 H 0.26448 0.70389 0.89028 0.0
H1956 H 0.26115 0.62925 0.99572 0.0
H1957 H 0.29292 0.6275 0.98182 0.0
H1958 H 0.21625 0.66415 0.9675 0.0
H1959 H 0.40115 0.67985 0.96535 0.0
H1960 H 0.41323 0.69625 0.91988 0.0
H1961 H 0.23285 0.64302 0.9907 0.0
H1962 H 0.23189 0.70559 0.89616 0.0
N1963 N 0.28533 0.66147 0.94874 0.0
C1964 C 0.26777 0.63834 0.98262 0.0
C1965 C 0.28568 0.63731 0.9748 0.0
C1966 C 0.2584 0.65085 0.97224 0.0
C1967 C 0.26757 0.66241 0.95501 0.0
C1968 C 0.29424 0.6489 0.95752 0.0
N1969 N 0.26686 0.68512 0.92376 0.0
C1970 C 0.25812 0.67448 0.94213 0.0
C1971 C 0.23909 0.69686 0.90939 0.0
C1972 C 0.23004 0.68655 0.92978 0.0
C1973 C 0.25753 0.69583 0.9061 0.0
C1974 C 0.23944 0.67504 0.94587 0.0
H1975 H 0.21571 0.6873 0.93205 0.0
O1976 O 0.28788 0.68721 0.86898 0.0
O1977 O 0.31606 0.70118 0.91254 0.0
O1978 O 0.30842 0.71386 0.95964 0.0
O1979 O 0.28503 0.69972 0.94312 0.0
O1980 O 0.31647 0.68733 0.87658 0.0
O1981 O 0.29508 0.66502 0.88581 0.0
O1982 O 0.34416 0.70028 1.00662 0.0
O1983 O 0.31018 0.68666 0.96398 0.0
O1984 O 0.32137 0.66805 0.93253 0.0
O1985 O 0.34533 0.68345 0.92862 0.0
O1986 O 0.32981 0.68189 0.99629 0.0
O1987 O 0.33277 0.71997 0.98388 0.0
C1988 C 0.32249 0.69924 0.88469 0.0
C1989 C 0.23055 0.66383 0.96424 0.0
C1990 C 0.24 0.65179 0.97743 0.0
C1991 C 0.28928 0.67395 0.8616 0.0
C1992 C 0.27535 0.66869 0.84094 0.0
C1993 C 0.2576 0.66759 0.85136 0.0
C1994 C 0.28009 0.66448 0.81024 0.0
C1995 C 0.26714 0.65899 0.79035 0.0
C1996 C 0.24463 0.66242 0.83117 0.0
C1997 C 0.24937 0.65807 0.80084 0.0
C1998 C 0.29133 0.71104 0.95645 0.0
C1999 C 0.31362 0.67861 0.98942 0.0
C2000 C 0.34008 0.71358 1.01006 0.0
C2001 C 0.35265 0.72193 0.02819 0.0
C2002 C 0.37051 0.72335 0.01874 0.0
C2003 C 0.34667 0.72827 0.05601 0.0
C2004 C 0.35849 0.73596 0.07466 0.0
C2005 C 0.38231 0.73091 0.037 0.0
C2006 C 0.37643 0.73711 0.06472 0.0
C2007 C 0.3379 0.67098 0.92387 0.0
H2008 H 0.25375 0.6706 0.87502 0.0
H2009 H 0.29383 0.66522 0.80215 0.0
H2010 H 0.23092 0.66164 0.83918 0.0
H2011 H 0.23919 0.65393 0.78555 0.0
H2012 H 0.37531 0.71853 0.99747 0.0
H2013 H 0.33278 0.72724 0.06291 0.0
H2014 H 0.39615 0.73188 0.0298 0.0
H2015 H 0.38607 0.74262 0.07865 0.0
Gd2016 Gd 0.43103 0.05607 0.68075 0.0
Gd2017 Gd 0.40673 0.027 0.64762 0.0
C2018 C 0.35235 0.014 0.69182 0.0
C2019 C 0.35515 0.98805 0.7002 0.0
C2020 C 0.38021 0.00275 0.67974 0.0
C2021 C 0.37003 0.01503 0.68013 0.0
C2022 C 0.37294 0.98914 0.69003 0.0
C2023 C 0.34488 0.00046 0.70117 0.0
C2024 C 0.34281 0.0266 0.69468 0.0
C2025 C 0.35113 0.03981 0.68735 0.0
N2026 N 0.37765 0.02799 0.67079 0.0
C2027 C 0.36866 0.04032 0.67592 0.0
H2028 H 0.3749 0.05069 0.67219 0.0
C2029 C 0.40799 0.99222 0.66987 0.0
N2030 N 0.39742 0.00412 0.67021 0.0
C2031 C 0.40141 0.97856 0.67989 0.0
C2032 C 0.38377 0.97699 0.68993 0.0
H2033 H 0.42145 0.99311 0.66091 0.0
H2034 H 0.33127 -0.00051 0.70979 0.0
H2035 H 0.47037 0.04493 0.65215 0.0
H2036 H 0.32924 0.02626 0.70364 0.0
H2037 H 0.34411 0.04964 0.69084 0.0
H2038 H 0.3493 0.97769 0.70787 0.0
H2039 H 0.40758 0.08473 0.69687 0.0
H2040 H 0.4915 0.07853 0.58584 0.0
H2041 H 0.49372 0.05404 0.61404 0.0
H2042 H 0.45121 0.11754 0.59573 0.0
H2043 H 0.4099 0.96924 0.67937 0.0
H2044 H 0.37865 0.96637 0.69753 0.0
H2045 H 0.4753 0.1021 0.57857 0.0
H2046 H 0.40541 0.11059 0.67723 0.0
N2047 N 0.45474 0.06403 0.64604 0.0
C2048 C 0.4812 0.07462 0.60284 0.0
C2049 C 0.48254 0.06083 0.61881 0.0
C2050 C 0.46685 0.08335 0.60977 0.0
C2051 C 0.45374 0.07771 0.63198 0.0
C2052 C 0.46919 0.0557 0.6406 0.0
N2053 N 0.42821 0.08065 0.66376 0.0
C2054 C 0.4401 0.08633 0.64128 0.0
C2055 C 0.41512 0.10385 0.66671 0.0
C2056 C 0.42637 0.10962 0.64175 0.0
C2057 C 0.41637 0.08927 0.6778 0.0
C2058 C 0.43929 0.10091 0.62911 0.0
H2059 H 0.42535 0.1209 0.63314 0.0
O2060 O 0.43093 0.06329 0.72962 0.0
O2061 O 0.41397 0.03688 0.69225 0.0
O2062 O 0.39272 0.04746 0.62642 0.0
O2063 O 0.41008 0.06631 0.64407 0.0
O2064 O 0.40713 0.05437 0.71507 0.0
O2065 O 0.45557 0.0566 0.70929 0.0
O2066 O 0.42226 0.01318 0.61923 0.0
O2067 O 0.43075 0.04126 0.64103 0.0
O2068 O 0.44741 0.03596 0.68792 0.0
O2069 O 0.42757 0.01722 0.68352 0.0
O2070 O 0.41414 0.03972 0.60071 0.0
O2071 O 0.39359 0.01513 0.61175 0.0
C2072 C 0.40403 0.04081 0.71435 0.0
C2073 C 0.45176 0.10641 0.60572 0.0
C2074 C 0.46549 0.09763 0.59599 0.0
C2075 C 0.44786 0.06117 0.73462 0.0
C2076 C 0.45753 0.07173 0.75265 0.0
C2077 C 0.45808 0.08623 0.74052 0.0
C2078 C 0.46557 0.06737 0.78321 0.0
C2079 C 0.47366 0.07753 0.80194 0.0
C2080 C 0.46624 0.09628 0.75869 0.0
C2081 C 0.47383 0.09203 0.78918 0.0
C2082 C 0.39684 0.06137 0.62631 0.0
C2083 C 0.42872 0.04511 0.61062 0.0
C2084 C 0.40857 0.00999 0.60162 0.0
C2085 C 0.41141 0.01044 0.56607 0.0
C2086 C 0.42765 0.0055 0.55446 0.0
C2087 C 0.39786 0.01491 0.54361 0.0
C2088 C 0.40067 0.01457 0.50994 0.0
C2089 C 0.43048 0.00521 0.52106 0.0
C2090 C 0.41712 0.00972 0.49891 0.0
C2091 C 0.44303 0.02228 0.69309 0.0
H2092 H 0.45204 0.08978 0.7172 0.0
H2093 H 0.46506 0.05618 0.79281 0.0
H2094 H 0.46654 0.10748 0.74923 0.0
H2095 H 0.47997 0.10009 0.80278 0.0
H2096 H 0.4381 0.00168 0.57128 0.0
H2097 H 0.38509 0.01843 0.55215 0.0
H2098 H 0.44294 0.00122 0.51234 0.0
H2099 H 0.41943 0.00891 0.47314 0.0
Gd2100 Gd 0.66607 0.70179 0.45421 0.0
Gd2101 Gd 0.7034 0.68334 0.41949 0.0
C2102 C 0.72381 0.64283 0.47996 0.0
C2103 C 0.75515 0.64839 0.48535 0.0
C2104 C 0.73491 0.66614 0.45849 0.0
C2105 C 0.72088 0.6565 0.46295 0.0
C2106 C 0.75221 0.6621 0.46945 0.0
C2107 C 0.74098 0.6388 0.49073 0.0
C2108 C 0.70936 0.63361 0.48621 0.0
C2109 C 0.69241 0.63822 0.47662 0.0
N2110 N 0.7044 0.66055 0.45158 0.0
C2111 C 0.6901 0.65177 0.45976 0.0
H2112 H 0.67663 0.65508 0.45483 0.0
C2113 C 0.74566 0.6887 0.43628 0.0
N2114 N 0.7318 0.67935 0.44303 0.0
C2115 C 0.76291 0.68521 0.44682 0.0
C2116 C 0.76621 0.67185 0.46359 0.0
H2117 H 0.74364 0.69887 0.42205 0.0
H2118 H 0.74342 0.62831 0.50344 0.0
H2119 H 0.6781 0.73296 0.41165 0.0
H2120 H 0.71108 0.62309 0.49928 0.0
H2121 H 0.68101 0.6314 0.48257 0.0
H2122 H 0.76835 0.6451 0.49369 0.0
H2123 H 0.63205 0.68114 0.48175 0.0
H2124 H 0.63453 0.74808 0.35122 0.0
H2125 H 0.66535 0.75088 0.37084 0.0
H2126 H 0.58812 0.71428 0.38148 0.0
H2127 H 0.77369 0.69274 0.44145 0.0
H2128 H 0.77965 0.6691 0.47144 0.0
H2129 H 0.60586 0.73422 0.35498 0.0
H2130 H 0.60012 0.67776 0.46896 0.0
N2131 N 0.65479 0.71989 0.41579 0.0
C2132 C 0.64002 0.74018 0.36948 0.0
C2133 C 0.65738 0.74182 0.38059 0.0
C2134 C 0.62984 0.72849 0.38253 0.0
C2135 C 0.63769 0.71843 0.40607 0.0
C2136 C 0.66454 0.73161 0.40405 0.0
N2137 N 0.63566 0.69801 0.44397 0.0
C2138 C 0.62779 0.70716 0.42068 0.0
C2139 C 0.60779 0.686 0.45503 0.0
C2140 C 0.59976 0.69477 0.42976 0.0
C2141 C 0.62579 0.68794 0.46226 0.0
C2142 C 0.60968 0.70567 0.41257 0.0
H2143 H 0.5858 0.69328 0.42429 0.0
O2144 O 0.65733 0.70126 0.50475 0.0
O2145 O 0.69074 0.68915 0.46415 0.0
O2146 O 0.67901 0.67074 0.40846 0.0
O2147 O 0.65466 0.68395 0.42609 0.0
O2148 O 0.66975 0.68275 0.4931 0.0
O2149 O 0.66387 0.72156 0.47811 0.0
O2150 O 0.72056 0.69412 0.38266 0.0
O2151 O 0.68428 0.70186 0.41063 0.0
O2152 O 0.6895 0.71657 0.45401 0.0
O2153 O 0.71385 0.70213 0.44493 0.0
O2154 O 0.68728 0.68837 0.37379 0.0
O2155 O 0.71789 0.67079 0.38655 0.0
C2156 C 0.68655 0.68079 0.48862 0.0
C2157 C 0.60197 0.71533 0.38829 0.0
C2158 C 0.61205 0.72669 0.37324 0.0
C2159 C 0.6589 0.71504 0.50599 0.0
C2160 C 0.64556 0.72214 0.52519 0.0
C2161 C 0.62751 0.72211 0.51674 0.0
C2162 C 0.65104 0.72866 0.55315 0.0
C2163 C 0.63855 0.73513 0.57286 0.0
C2164 C 0.61504 0.72845 0.53602 0.0
C2165 C 0.62045 0.73487 0.56382 0.0
C2166 C 0.66171 0.67313 0.41179 0.0
C2167 C 0.67948 0.69979 0.3816 0.0
C2168 C 0.72494 0.68218 0.37066 0.0
C2169 C 0.72649 0.6827 0.33488 0.0
C2170 C 0.73808 0.69295 0.3194 0.0
C2171 C 0.71785 0.67281 0.31627 0.0
C2172 C 0.72072 0.67352 0.28233 0.0
C2173 C 0.74094 0.6936 0.28587 0.0
C2174 C 0.73231 0.68398 0.26742 0.0
C2175 C 0.70675 0.71407 0.45415 0.0
H2176 H 0.62307 0.71711 0.49544 0.0
H2177 H 0.66506 0.72874 0.55935 0.0
H2178 H 0.60107 0.72831 0.52955 0.0
H2179 H 0.61036 0.73941 0.57853 0.0
H2180 H 0.74519 0.70036 0.33345 0.0
H2181 H 0.70919 0.6646 0.32796 0.0
H2182 H 0.75008 0.70143 0.27422 0.0
H2183 H 0.73509 0.68443 0.24147 0.0
Gd2184 Gd 0.05367 0.92766 0.02386 0.0
Gd2185 Gd 0.08898 0.94353 0.07355 0.0
C2186 C 0.12633 0.97811 0.02723 0.0
C2187 C 0.15462 0.96549 0.02821 0.0
C2188 C 0.12801 0.95333 0.0502 0.0
C2189 C 0.11805 0.96555 0.04172 0.0
C2190 C 0.14648 0.95325 0.0442 0.0
C2191 C 0.14456 0.9779 0.01977 0.0
C2192 C 0.11621 0.99066 0.02186 0.0
C2193 C 0.09849 0.9906 0.03197 0.0
N2194 N 0.10053 0.96545 0.04969 0.0
C2195 C 0.09087 0.97787 0.04625 0.0
H2196 H 0.07715 0.97803 0.05385 0.0
C2197 C 0.12947 0.93021 0.07894 0.0
N2198 N 0.11983 0.9418 0.06619 0.0
C2199 C 0.14779 0.92956 0.07324 0.0
C2200 C 0.1563 0.94106 0.05544 0.0
H2201 H 0.12283 0.92132 0.09263 0.0
H2202 H 0.15112 0.9874 1.00836 0.0
H2203 H 0.06202 0.89436 0.05915 0.0
H2204 H 0.12209 0.00054 1.01087 0.0
H2205 H 0.09066 0.00033 0.02868 0.0
H2206 H 0.16877 0.9656 0.02313 0.0
H2207 H 0.02164 0.94935 0.99051 0.0
H2208 H 0.01451 0.87791 0.10604 0.0
H2209 H 0.0464 0.87522 0.09296 0.0
H2210 H 0.97089 0.91384 0.07307 0.0
H2211 H 0.15533 0.92021 0.08263 0.0
H2212 H 0.17051 0.94057 0.05128 0.0
H2213 H 0.98644 0.89255 0.09904 0.0
H2214 H 0.98922 0.95286 0.9959 0.0
N2215 N 0.03934 0.908 0.05324 0.0
C2216 C 0.02128 0.88635 0.09097 0.0
C2217 C 0.03927 0.88479 0.08362 0.0
C2218 C 0.01215 0.89864 0.07818 0.0
C2219 C 0.02163 0.90932 0.05884 0.0
C2220 C 0.04809 0.89571 0.06434 0.0
N2221 N 0.02255 0.93116 0.02574 0.0
C2222 C 0.01296 0.92136 0.04479 0.0
C2223 C 0.99575 0.94401 1.01002 0.0
C2224 C 0.98595 0.93465 0.03162 0.0
C2225 C 0.01412 0.94199 1.00701 0.0
C2226 C 0.99447 0.92298 0.04886 0.0
H2227 H 0.97175 0.93629 0.03406 0.0
O2228 O 0.05078 0.93173 0.97103 0.0
O2229 O 0.07679 0.9427 0.0244 0.0
O2230 O 0.06298 0.95587 0.07401 0.0
O2231 O 0.0399 0.94222 0.05365 0.0
O2232 O 0.05492 0.94967 0.99691 0.0
O2233 O 0.05368 0.91002 0.99299 0.0
O2234 O 0.09831 0.93938 0.12371 0.0
O2235 O 0.06582 0.92907 0.07298 0.0
O2236 O 0.0783 0.914 0.03138 0.0
O2237 O 0.10169 0.92988 0.03736 0.0
O2238 O 0.08583 0.92206 0.10383 0.0
O2239 O 0.08471 0.95931 0.10848 0.0
C2240 C 0.07064 0.95307 1.00599 0.0
C2241 C 0.98506 0.91268 0.06917 0.0
C2242 C 0.9939 0.90054 0.08387 0.0
C2243 C 0.04926 0.91821 0.96676 0.0
C2244 C 0.03279 0.91434 0.9499 0.0
C2245 C 0.01825 0.90868 0.96835 0.0
C2246 C 0.03095 0.91713 0.91576 0.0
C2247 C 0.01462 0.91435 0.9007 0.0
C2248 C 0.00191 0.9065 0.95356 0.0
C2249 C 7e-05 0.90934 0.91989 0.0
C2250 C 0.04599 0.9525 0.07017 0.0
C2251 C 0.06954 0.91957 0.09584 0.0
C2252 C 0.09274 0.95169 0.1324 0.0
C2253 C 0.10483 0.95945 0.15315 0.0
C2254 C 0.12226 0.96272 0.14279 0.0
C2255 C 0.09913 0.96329 0.18401 0.0
C2256 C 0.11098 0.97004 0.2045 0.0
C2257 C 0.13394 0.96948 0.16289 0.0
C2258 C 0.12841 0.97303 0.19356 0.0
C2259 C 0.09523 0.91766 0.02857 0.0
H2260 H 0.01947 0.90592 0.99426 0.0
H2261 H 0.04212 0.92126 0.90107 0.0
H2262 H 0.99073 0.9024 0.96819 0.0
H2263 H 0.9874 0.90725 0.90862 0.0
H2264 H 0.12689 0.95992 0.11929 0.0
H2265 H 0.0857 0.96076 0.19231 0.0
H2266 H 0.1474 0.97189 0.15478 0.0
H2267 H 0.13778 0.97814 0.20884 0.0
Gd2268 Gd 0.81981 0.30691 0.92966 0.0
Gd2269 Gd 0.77979 0.32156 0.88774 0.0
C2270 C 0.75133 0.35842 0.93204 0.0
C2271 C 0.72155 0.34872 0.94053 0.0
C2272 C 0.74507 0.33407 0.92003 0.0
C2273 C 0.757 0.34541 0.92047 0.0
C2274 C 0.72716 0.33573 0.92963 0.0
C2275 C 0.73361 0.36 0.94188 0.0
C2276 C 0.76363 0.3695 0.93369 0.0
C2277 C 0.78122 0.36739 0.92486 0.0
N2278 N 0.77407 0.34373 0.91013 0.0
C2279 C 0.7863 0.35438 0.91358 0.0
H2280 H 0.80024 0.35302 0.90901 0.0
C2281 C 0.73878 0.31072 0.90581 0.0
N2282 N 0.75072 0.32158 0.90938 0.0
C2283 C 0.72105 0.31187 0.91513 0.0
C2284 C 0.71521 0.32441 0.9273 0.0
H2285 H 0.74281 0.30104 0.89548 0.0
H2286 H 0.72908 0.36995 0.95057 0.0
H2287 H 0.81043 0.27456 0.90212 0.0
H2288 H 0.75978 0.3796 0.94253 0.0
H2289 H 0.791 0.37573 0.92722 0.0
H2290 H 0.70787 0.35017 0.94787 0.0
H2291 H 0.85147 0.33039 0.94398 0.0
H2292 H 0.85542 0.26118 0.85003 0.0
H2293 H 0.82485 0.25696 0.87085 0.0
H2294 H 0.89827 0.29834 0.86088 0.0
H2295 H 0.71185 0.30315 0.91246 0.0
H2296 H 0.70137 0.32534 0.93422 0.0
H2297 H 0.8826 0.2768 0.84592 0.0
H2298 H 0.8828 0.33572 0.92806 0.0
N2299 N 0.83262 0.28894 0.90032 0.0
C2300 C 0.84923 0.26896 0.8643 0.0
C2301 C 0.83201 0.26653 0.87609 0.0
C2302 C 0.85829 0.28137 0.87124 0.0
C2303 C 0.84955 0.29125 0.8897 0.0
C2304 C 0.8239 0.2766 0.89426 0.0
N2305 N 0.84956 0.31248 0.91612 0.0
C2306 C 0.85827 0.30342 0.89776 0.0
C2307 C 0.87601 0.32666 0.91918 0.0
C2308 C 0.88483 0.31793 0.89865 0.0
C2309 C 0.85836 0.32362 0.92819 0.0
C2310 C 0.87607 0.306 0.88808 0.0
H2311 H 0.89851 0.32028 0.89173 0.0
O2312 O 0.83032 0.30853 0.97878 0.0
O2313 O 0.79366 0.31733 0.93431 0.0
O2314 O 0.80205 0.3369 0.87084 0.0
O2315 O 0.82834 0.32576 0.89209 0.0
O2316 O 0.81333 0.32545 0.96026 0.0
O2317 O 0.82254 0.2879 0.96443 0.0
O2318 O 0.76512 0.30888 0.85532 0.0
O2319 O 0.80158 0.30518 0.88686 0.0
O2320 O 0.79849 0.29021 0.93683 0.0
O2321 O 0.77218 0.3024 0.92332 0.0
O2322 O 0.79648 0.31811 0.84393 0.0
O2323 O 0.76301 0.33233 0.85013 0.0
C2324 C 0.79633 0.32588 0.9555 0.0
C2325 C 0.88466 0.29645 0.86886 0.0
C2326 C 0.87576 0.28417 0.86041 0.0
C2327 C 0.82837 0.29492 0.98811 0.0
C2328 C 0.84189 0.28785 1.0105 0.0
C2329 C 0.85978 0.28756 1.00106 0.0
C2330 C 0.83683 0.2812 0.04164 0.0
C2331 C 0.84957 0.27408 0.06291 0.0
C2332 C 0.87244 0.28073 0.02205 0.0
C2333 C 0.86742 0.27402 0.05252 0.0
C2334 C 0.81973 0.33607 0.87342 0.0
C2335 C 0.80603 0.30767 0.85692 0.0
C2336 C 0.75794 0.32022 0.83951 0.0
C2337 C 0.75443 0.31978 0.80454 0.0
C2338 C 0.74219 0.3095 0.79568 0.0
C2339 C 0.76166 0.32983 0.7804 0.0
C2340 C 0.75662 0.32931 0.74761 0.0
C2341 C 0.73714 0.3091 0.76321 0.0
C2342 C 0.7443 0.31894 0.73929 0.0
C2343 C 0.78101 0.29111 0.9369 0.0
H2344 H 0.86393 0.2926 0.97745 0.0
H2345 H 0.82299 0.28135 0.04898 0.0
H2346 H 0.88625 0.2806 1.01462 0.0
H2347 H 0.8776 0.26886 0.0682 0.0
H2348 H 0.73625 0.3019 0.81408 0.0
H2349 H 0.77088 0.33799 0.78698 0.0
H2350 H 0.72749 0.30128 0.75661 0.0
H2351 H 0.73998 0.31863 0.71418 0.0
Gd2352 Gd 0.43264 0.9351 0.05154 0.0
Gd2353 Gd 0.40636 0.96222 0.08959 0.0
C2354 C 0.36152 0.98679 0.03349 0.0
C2355 C 0.37027 0.0116 0.0371 0.0
C2356 C 0.38873 0.9921 0.06151 0.0
C2357 C 0.37694 0.98219 0.05106 0.0
C2358 C 0.38541 0.00693 0.05517 0.0
C2359 C 0.35836 0.00154 0.02624 0.0
C2360 C 0.34958 0.97643 0.0243 0.0
C2361 C 0.35301 0.96193 0.03321 0.0
N2362 N 0.38034 0.96804 0.0589 0.0
C2363 C 0.36841 0.95791 0.05091 0.0
H2364 H 0.37079 0.94666 0.05767 0.0
C2365 C 0.41411 0.99655 0.09299 0.0
N2366 N 0.40302 0.9872 0.0793 0.0
C2367 C 0.4115 0.01137 0.08717 0.0
C2368 C 0.39716 0.0166 0.06793 0.0
H2369 H 0.4252 0.99256 0.10797 0.0
H2370 H 0.34659 0.00529 1.01274 0.0
H2371 H 0.47195 0.94912 0.0736 0.0
H2372 H 0.33757 0.97951 1.01078 0.0
H2373 H 0.34374 0.95383 0.02658 0.0
H2374 H 0.36751 0.02295 0.03188 0.0
H2375 H 0.4104 0.90514 0.03955 0.0
H2376 H 0.49934 0.91678 0.13472 0.0
H2377 H 0.4977 0.94156 0.10795 0.0
H2378 H 0.46281 0.87507 0.12941 0.0
H2379 H 0.42052 0.01873 0.09758 0.0
H2380 H 0.39508 0.02808 0.06363 0.0
H2381 H 0.48611 0.89205 0.14289 0.0
H2382 H 0.41153 0.87922 0.0591 0.0
N2383 N 0.45877 0.92889 0.0811 0.0
C2384 C 0.48798 0.92002 0.1195 0.0
C2385 C 0.48713 0.934 0.10436 0.0
C2386 C 0.4744 0.91027 0.11408 0.0
C2387 C 0.45983 0.91505 0.09426 0.0
C2388 C 0.47247 0.93823 0.08478 0.0
N2389 N 0.43297 0.91038 0.06721 0.0
C2390 C 0.44664 0.90549 0.08689 0.0
C2391 C 0.42142 0.88652 0.06722 0.0
C2392 C 0.43478 0.88142 0.08905 0.0
C2393 C 0.42083 0.90111 0.05611 0.0
C2394 C 0.44774 0.8909 0.09884 0.0
H2395 H 0.43516 0.87012 0.0977 0.0
O2396 O 0.43158 0.92685 1.00402 0.0
O2397 O 0.4131 0.95269 0.04401 0.0
O2398 O 0.39358 0.93993 0.09755 0.0
O2399 O 0.41617 0.92341 0.09229 0.0
O2400 O 0.4078 0.93548 0.01934 0.0
O2401 O 0.45555 0.93747 0.01878 0.0
O2402 O 0.40778 0.96949 0.13831 0.0
O2403 O 0.42785 0.94589 0.09698 0.0
O2404 O 0.44563 0.95697 0.04352 0.0
O2405 O 0.42533 0.97478 0.05528 0.0
O2406 O 0.43237 0.96539 0.11498 0.0
O2407 O 0.38538 0.9568 0.1247 0.0
C2408 C 0.40331 0.94869 0.02171 0.0
C2409 C 0.46186 0.88621 0.11962 0.0
C2410 C 0.47513 0.89588 0.1273 0.0
C2411 C 0.44774 0.93095 0.99592 0.0
C2412 C 0.45851 0.92092 0.97828 0.0
C2413 C 0.45972 0.90643 0.99016 0.0
C2414 C 0.46677 0.92569 0.94823 0.0
C2415 C 0.47607 0.91598 0.92991 0.0
C2416 C 0.46872 0.89677 0.97228 0.0
C2417 C 0.47669 0.90143 0.94245 0.0
C2418 C 0.40081 0.92708 0.10495 0.0
C2419 C 0.43877 0.95271 0.11332 0.0
C2420 C 0.39232 0.96414 0.14697 0.0
C2421 C 0.38013 0.97373 0.16235 0.0
C2422 C 0.36954 0.98353 0.14302 0.0
C2423 C 0.37883 0.97299 0.19658 0.0
C2424 C 0.36672 0.98185 0.21125 0.0
C2425 C 0.35782 0.99254 0.15751 0.0
C2426 C 0.35634 0.99169 0.19141 0.0
C2427 C 0.44033 0.97055 0.04207 0.0
H2428 H 0.45345 0.90252 1.013 0.0
H2429 H 0.4659 0.93694 0.93925 0.0
H2430 H 0.46934 0.88554 0.98139 0.0
H2431 H 0.4831 0.89349 0.92896 0.0
H2432 H 0.37018 0.98412 0.11675 0.0
H2433 H 0.38698 0.96542 0.21166 0.0
H2434 H 0.34981 0.00016 0.14241 0.0
H2435 H 0.34723 -0.00114 0.20219 0.0
Gd2436 Gd 0.82178 0.6873 0.80212 0.0
Gd2437 Gd 0.78179 0.67309 0.84631 0.0
C2438 C 0.74113 0.64266 0.8067 0.0
C2439 C 0.71378 0.65645 0.80774 0.0
C2440 C 0.74184 0.6666 0.82423 0.0
C2441 C 0.75067 0.65428 0.81772 0.0
C2442 C 0.72324 0.66776 0.81984 0.0
C2443 C 0.72271 0.64391 0.80121 0.0
C2444 C 0.75023 0.62992 0.80277 0.0
C2445 C 0.76831 0.62891 0.81038 0.0
N2446 N 0.76836 0.65328 0.8243 0.0
C2447 C 0.7772 0.64072 0.82115 0.0
H2448 H 0.79117 0.63961 0.82654 0.0
C2449 C 0.7428 0.6887 0.84745 0.0
N2450 N 0.75124 0.67702 0.83721 0.0
C2451 C 0.72444 0.69047 0.84312 0.0
C2452 C 0.71462 0.68 0.829 0.0
H2453 H 0.7503 0.69666 0.85898 0.0
H2454 H 0.71518 0.63511 0.79273 0.0
H2455 H 0.81489 0.72151 0.81868 0.0
H2456 H 0.74338 0.62073 0.79453 0.0
H2457 H 0.77545 0.61904 0.80777 0.0
H2458 H 0.6995 0.65713 0.80421 0.0
H2459 H 0.8526 0.66279 0.7895 0.0
H2460 H 0.85935 0.73446 0.87393 0.0
H2461 H 0.82987 0.73966 0.84862 0.0
H2462 H 0.90018 0.69525 0.87086 0.0
H2463 H 0.71782 0.6998 0.85103 0.0
H2464 H 0.70035 0.68128 0.8261 0.0
H2465 H 0.88545 0.7177 0.88251 0.0
H2466 H 0.88361 0.6569 0.80691 0.0
N2467 N 0.83552 0.706 0.82722 0.0
C2468 C 0.85287 0.72646 0.8606 0.0
C2469 C 0.83627 0.72945 0.84627 0.0
C2470 C 0.86118 0.71336 0.85663 0.0
C2471 C 0.85212 0.70329 0.83922 0.0
C2472 C 0.82783 0.71912 0.82919 0.0
N2473 N 0.85149 0.68151 0.81481 0.0
C2474 C 0.86041 0.69068 0.83266 0.0
C2475 C 0.8772 0.6664 0.81443 0.0
C2476 C 0.88626 0.67531 0.83435 0.0
C2477 C 0.85976 0.66977 0.80446 0.0
C2478 C 0.87797 0.68774 0.84335 0.0
H2479 H 0.89974 0.67265 0.84208 0.0
O2480 O 0.83255 0.68575 0.7535 0.0
O2481 O 0.79695 0.67506 0.80061 0.0
O2482 O 0.80521 0.65761 0.85233 0.0
O2483 O 0.83101 0.67112 0.84409 0.0
O2484 O 0.81618 0.66805 0.77298 0.0
O2485 O 0.82228 0.7061 0.76633 0.0
O2486 O 0.77225 0.67674 0.89476 0.0
O2487 O 0.80632 0.68638 0.84874 0.0
O2488 O 0.79816 0.70242 0.79575 0.0
O2489 O 0.77239 0.68857 0.80432 0.0
O2490 O 0.78322 0.69467 0.86629 0.0
O2491 O 0.78381 0.65627 0.88618 0.0
C2492 C 0.79937 0.66654 0.77918 0.0
C2493 C 0.88676 0.6974 0.86205 0.0
C2494 C 0.87837 0.71018 0.86871 0.0
C2495 C 0.82944 0.6992 0.74353 0.0
C2496 C 0.84289 0.70685 0.72199 0.0
C2497 C 0.8609 0.70654 0.73097 0.0
C2498 C 0.83782 0.71387 0.69125 0.0
C2499 C 0.85079 0.72011 0.6693 0.0
C2500 C 0.87371 0.71283 0.70956 0.0
C2501 C 0.86875 0.71943 0.67892 0.0
C2502 C 0.82231 0.6598 0.85813 0.0
C2503 C 0.80011 0.6967 0.86309 0.0
C2504 C 0.77597 0.66376 0.90715 0.0
C2505 C 0.76202 0.65631 0.92708 0.0
C2506 C 0.74656 0.65157 0.9123 0.0
C2507 C 0.76426 0.65372 0.96109 0.0
C2508 C 0.75117 0.64613 0.9801 0.0
C2509 C 0.73348 0.64421 0.93113 0.0
C2510 C 0.73577 0.64144 0.96479 0.0
C2511 C 0.78085 0.70028 0.79167 0.0
H2512 H 0.86506 0.70124 0.75435 0.0
H2513 H 0.82393 0.71406 0.68402 0.0
H2514 H 0.88761 0.71244 0.71658 0.0
H2515 H 0.87901 0.72407 0.66267 0.0
H2516 H 0.74464 0.65348 0.88626 0.0
H2517 H 0.77616 0.65745 0.97262 0.0
H2518 H 0.72152 0.64064 0.91961 0.0
H2519 H 0.72531 0.63585 0.979 0.0
Gd2520 Gd 0.05089 0.06403 0.69874 0.0
Gd2521 Gd 0.0889 0.048 0.65564 0.0
C2522 C 0.13033 0.02085 0.71452 0.0
C2523 C 0.15617 0.03651 0.71067 0.0
C2524 C 0.12866 0.04403 0.68283 0.0
C2525 C 0.1206 0.03137 0.69506 0.0
C2526 C 0.1467 0.04657 0.68977 0.0
C2527 C 0.14799 0.02368 0.72307 0.0
C2528 C 0.12225 0.00759 0.72368 0.0
C2529 C 0.10524 0.00486 0.71213 0.0
N2530 N 0.10365 0.0289 0.68592 0.0
C2531 C 0.09616 0.01563 0.69283 0.0
H2532 H 0.08305 0.01332 0.68399 0.0
C2533 C 0.12729 0.06505 0.64606 0.0
N2534 N 0.11916 0.05346 0.66249 0.0
C2535 C 0.14515 0.06807 0.65226 0.0
C2536 C 0.15482 0.05891 0.6746 0.0
H2537 H 0.11982 0.07219 0.62893 0.0
H2538 H 0.1556 0.01581 0.73833 0.0
H2539 H 0.05883 0.09847 0.66628 0.0
H2540 H 0.12925 -0.00076 0.73865 0.0
H2541 H 0.09904 0.99451 0.71821 0.0
H2542 H 0.16999 0.03836 0.7166 0.0
H2543 H 0.02049 0.0381 0.71823 0.0
H2544 H 0.00996 0.11574 0.62764 0.0
H2545 H 0.04205 0.11838 0.63858 0.0
H2546 H 0.96815 0.07766 0.65077 0.0
H2547 H 0.15145 0.07745 0.63983 0.0
H2548 H 0.16867 0.06125 0.67924 0.0
H2549 H 0.98262 0.10051 0.63212 0.0
H2550 H 0.98825 0.0342 0.71035 0.0
N2551 N 0.03665 0.08417 0.67141 0.0
C2552 C 0.01727 0.10682 0.63997 0.0
C2553 C 0.03538 0.10836 0.64612 0.0
C2554 C 0.00878 0.09383 0.64984 0.0
C2555 C 0.0189 0.08251 0.66573 0.0
C2556 C 0.04489 0.09693 0.66207 0.0
N2557 N 0.02066 0.05859 0.69085 0.0
C2558 C 0.01076 0.06938 0.67547 0.0
C2559 C 0.99443 0.04408 0.7002 0.0
C2560 C 0.98426 0.05471 0.68285 0.0
C2561 C 0.01263 0.04632 0.70461 0.0
C2562 C 0.99229 0.06762 0.67069 0.0
H2563 H 0.97012 0.05298 0.67966 0.0
O2564 O 0.04012 0.05683 0.74643 0.0
O2565 O 0.07103 0.04602 0.69913 0.0
O2566 O 0.06507 0.03434 0.66923 0.0
O2567 O 0.04028 0.04815 0.66543 0.0
O2568 O 0.06785 0.05546 0.74153 0.0
O2569 O 0.04637 0.0796 0.7334 0.0
O2570 O 0.08467 0.04841 0.60275 0.0
O2571 O 0.06618 0.06296 0.65293 0.0
O2572 O 0.0741 0.07924 0.69298 0.0
O2573 O 0.09938 0.06483 0.68771 0.0
O2574 O 0.08645 0.06854 0.62133 0.0
O2575 O 0.09549 0.02967 0.62878 0.0
C2576 C 0.07651 0.04589 0.7281 0.0
C2577 C 0.98231 0.07887 0.65476 0.0
C2578 C 0.99054 0.09191 0.64427 0.0
C2579 C 0.03986 0.0699 0.75548 0.0
C2580 C 0.02403 0.07398 0.77336 0.0
C2581 C 0.00909 0.08003 0.75682 0.0
C2582 C 0.02415 0.07228 0.80771 0.0
C2583 C 0.0096 0.07694 0.82528 0.0
C2584 C 0.99438 0.08422 0.77424 0.0
C2585 C 0.99465 0.08278 0.80831 0.0
C2586 C 0.04943 0.0373 0.65608 0.0
C2587 C 0.07045 0.07201 0.62946 0.0
C2588 C 0.09086 0.03568 0.60036 0.0
C2589 C 0.1031 0.03394 0.5729 0.0
C2590 C 0.12077 0.03863 0.57453 0.0
C2591 C 0.0973 0.02731 0.54516 0.0
C2592 C 0.10931 0.0252 0.5196 0.0
C2593 C 0.13259 0.03666 0.5492 0.0
C2594 C 0.12697 0.02993 0.52206 0.0
C2595 C 0.09139 0.07665 0.69618 0.0
H2596 H 0.00886 0.08177 0.73058 0.0
H2597 H 0.03573 0.06777 0.8207 0.0
H2598 H 0.98286 0.08881 0.76131 0.0
H2599 H 0.98321 0.08628 0.82149 0.0
H2600 H 0.12545 0.04372 0.59554 0.0
H2601 H 0.08368 0.02359 0.54377 0.0
H2602 H 0.14623 0.04027 0.5507 0.0
H2603 H 0.13644 0.02842 0.50284 0.0
Gd2604 Gd 0.66235 0.29198 0.27406 0.0
Gd2605 Gd 0.69602 0.31356 0.31229 0.0
C2606 C 0.73564 0.34366 0.25709 0.0
C2607 C 0.76383 0.33209 0.27178 0.0
C2608 C 0.73603 0.32117 0.29187 0.0
C2609 C 0.72649 0.33236 0.27523 0.0
C2610 C 0.75482 0.32115 0.29087 0.0
C2611 C 0.75427 0.3433 0.25495 0.0
C2612 C 0.7259 0.35533 0.24271 0.0
C2613 C 0.70756 0.35578 0.24731 0.0
N2614 N 0.70848 0.33277 0.27868 0.0
C2615 C 0.69904 0.34445 0.26562 0.0
H2616 H 0.68491 0.34529 0.26898 0.0
C2617 C 0.73611 0.30121 0.33197 0.0
N2618 N 0.72709 0.311 0.31122 0.0
C2619 C 0.75468 0.3006 0.33122 0.0
C2620 C 0.76407 0.31051 0.3103 0.0
H2621 H 0.72883 0.29367 0.34851 0.0
H2622 H 0.76147 0.35188 0.2411 0.0
H2623 H 0.67737 0.26014 0.30788 0.0
H2624 H 0.73247 0.36422 0.22876 0.0
H2625 H 0.69995 0.36491 0.23686 0.0
H2626 H 0.77824 0.33222 0.27068 0.0
H2627 H 0.6255 0.31046 0.25066 0.0
H2628 H 0.63766 0.24175 0.37352 0.0
H2629 H 0.66734 0.24056 0.34792 0.0
H2630 H 0.5885 0.27419 0.35551 0.0
H2631 H 0.76173 0.29256 0.34697 0.0
H2632 H 0.77849 0.31015 0.31014 0.0
H2633 H 0.60844 0.25462 0.37692 0.0
H2634 H 0.59406 0.31204 0.2685 0.0
N2635 N 0.65349 0.27224 0.31009 0.0
C2636 C 0.6419 0.2503 0.35558 0.0
C2637 C 0.65863 0.24956 0.34109 0.0
C2638 C 0.63066 0.26187 0.34606 0.0
C2639 C 0.63685 0.27273 0.32263 0.0
C2640 C 0.66425 0.26069 0.31825 0.0
N2641 N 0.63192 0.29357 0.28702 0.0
C2642 C 0.62569 0.28374 0.31072 0.0
C2643 C 0.60287 0.3041 0.28073 0.0
C2644 C 0.59663 0.29477 0.30683 0.0
C2645 C 0.62057 0.30315 0.27058 0.0
C2646 C 0.60797 0.28422 0.32171 0.0
H2647 H 0.58291 0.29552 0.31461 0.0
O2648 O 0.65315 0.29267 0.22399 0.0
O2649 O 0.68439 0.30747 0.26655 0.0
O2650 O 0.67132 0.32574 0.29684 0.0
O2651 O 0.64957 0.30847 0.30386 0.0
O2652 O 0.66436 0.31089 0.23443 0.0
O2653 O 0.66244 0.27256 0.24835 0.0
O2654 O 0.70465 0.31211 0.36276 0.0
O2655 O 0.67986 0.29285 0.31831 0.0
O2656 O 0.68882 0.2806 0.27317 0.0
O2657 O 0.71092 0.29616 0.28948 0.0
O2658 O 0.67966 0.30573 0.35596 0.0
O2659 O 0.69479 0.33249 0.33863 0.0
C2660 C 0.68033 0.31501 0.24061 0.0
C2661 C 0.602 0.27389 0.34637 0.0
C2662 C 0.61334 0.26274 0.35854 0.0
C2663 C 0.65618 0.27913 0.2214 0.0
C2664 C 0.64312 0.27158 0.20244 0.0
C2665 C 0.62488 0.27237 0.20897 0.0
C2666 C 0.64898 0.26456 0.17552 0.0
C2667 C 0.63668 0.25854 0.15458 0.0
C2668 C 0.6126 0.26642 0.1886 0.0
C2669 C 0.61838 0.25968 0.16156 0.0
C2670 C 0.65529 0.32166 0.30639 0.0
C2671 C 0.67398 0.29391 0.34697 0.0
C2672 C 0.70132 0.32567 0.36543 0.0
C2673 C 0.71444 0.33333 0.38362 0.0
C2674 C 0.73047 0.33818 0.36907 0.0
C2675 C 0.71089 0.33569 0.41624 0.0
C2676 C 0.72319 0.34319 0.43389 0.0
C2677 C 0.74287 0.34537 0.38684 0.0
C2678 C 0.73923 0.34794 0.41902 0.0
C2679 C 0.70567 0.28441 0.2765 0.0
H2680 H 0.62014 0.27782 0.22937 0.0
H2681 H 0.66313 0.26393 0.17085 0.0
H2682 H 0.5985 0.26726 0.19344 0.0
H2683 H 0.6084 0.25562 0.14578 0.0
H2684 H 0.7334 0.33648 0.34406 0.0
H2685 H 0.69856 0.33188 0.42769 0.0
H2686 H 0.7553 0.349 0.37561 0.0
H2687 H 0.74903 0.35352 0.4325 0.0
C2688 C 0.14654 0.4819 0.25955 0.0
C2689 C 0.12935 0.48198 0.24598 0.0
C2690 C 0.14897 0.48468 0.292 0.0
C2691 C 0.13602 0.5097 0.33902 0.0
H2692 H 0.13979 0.48736 0.42302 0.0
C2693 C 0.1071 0.52593 0.45497 0.0
C2694 C 0.11231 0.51851 0.48467 0.0
C2695 C 0.1169 0.52449 0.42675 0.0
C2696 C 0.13935 0.49383 0.39974 0.0
H2697 H 0.10116 0.48341 0.25628 0.0
H2698 H 0.10549 0.48842 0.31325 0.0
H2699 H 0.13989 0.47518 0.37304 0.0
H2700 H 0.1334 0.50619 0.50989 0.0
H2701 H 0.15084 0.50388 0.4605 0.0
H2702 H 0.13483 0.52832 0.36527 0.0
C2703 C 0.11699 0.48619 0.29866 0.0
C2704 C 0.13915 0.48679 0.37127 0.0
C2705 C 0.11453 0.48332 0.26623 0.0
C2706 C 0.12904 0.51184 0.48704 0.0
C2707 C 0.1389 0.5104 0.45873 0.0
C2708 C 0.13634 0.51676 0.36737 0.0
C2709 C 0.13425 0.48754 0.3111 0.0
C2710 C 0.13685 0.49468 0.34096 0.0
C2711 C 0.132 0.51557 0.42801 0.0
C2712 C 0.13722 0.50887 0.39817 0.0
H2713 H 0.15812 0.48069 0.24441 0.0
H2714 H 0.16236 0.48569 0.30136 0.0
H2715 H 0.1344 0.51591 0.31557 0.0
H2716 H 0.09431 0.5313 0.45282 0.0
H2717 H 0.11123 0.52879 0.40363 0.0
C2718 C 0.74086 0.85174 0.71639 0.0
C2719 C 0.73328 0.83804 0.72201 0.0
C2720 C 0.74222 0.85827 0.68447 0.0
C2721 C 0.73438 0.85157 0.59706 0.0
H2722 H 0.78556 0.85723 0.59089 0.0
C2723 C 0.77619 0.83313 0.49423 0.0
C2724 C 0.77615 0.84452 0.4694 0.0
C2725 C 0.77319 0.83583 0.52662 0.0
C2726 C 0.77126 0.85581 0.59236 0.0
H2727 H 0.7183 0.8216 0.70057 0.0
H2728 H 0.7206 0.83279 0.64517 0.0
H2729 H 0.77066 0.85832 0.64341 0.0
H2730 H 0.77546 0.86764 0.45906 0.0
H2731 H 0.77028 0.87233 0.5159 0.0
H2732 H 0.73539 0.84811 0.54631 0.0
C2733 C 0.72566 0.83863 0.66473 0.0
C2734 C 0.76262 0.85663 0.62222 0.0
C2735 C 0.72424 0.83218 0.69658 0.0
C2736 C 0.77531 0.8587 0.47785 0.0
C2737 C 0.77243 0.8614 0.51022 0.0
C2738 C 0.74305 0.85065 0.56737 0.0
C2739 C 0.73613 0.85105 0.6581 0.0
C2740 C 0.74415 0.85404 0.62516 0.0
C2741 C 0.77039 0.84994 0.53436 0.0
C2742 C 0.76156 0.85237 0.56515 0.0
H2743 H 0.74783 0.85647 0.73584 0.0
H2744 H 0.74981 0.86811 0.68015 0.0
H2745 H 0.72017 0.84964 0.59836 0.0
H2746 H 0.77682 0.8221 0.48829 0.0
H2747 H 0.77159 0.82687 0.54511 0.0
C2748 C 0.41443 0.52204 0.75396 0.0
C2749 C 0.40809 0.53617 0.75317 0.0
C2750 C 0.41082 0.51212 0.78063 0.0
C2751 C 0.38645 0.50479 0.85887 0.0
H2752 H 0.43168 0.48808 0.88792 0.0
C2753 C 0.42357 0.4722 0.97807 0.0
C2754 C 0.41224 0.46034 0.98409 0.0
C2755 C 0.42007 0.4826 0.95218 0.0
C2756 C 0.41897 0.49275 0.88036 0.0
H2757 H 0.39252 0.55089 0.77897 0.0
H2758 H 0.38631 0.53352 0.82609 0.0
H2759 H 0.42991 0.5026 0.83588 0.0
H2760 H 0.38834 0.45004 0.96853 0.0
H2761 H 0.38203 0.46836 0.9233 0.0
H2762 H 0.37563 0.49481 0.90388 0.0
C2763 C 0.39367 0.53001 0.80564 0.0
C2764 C 0.41788 0.50089 0.85023 0.0
C2765 C 0.39719 0.53994 0.7787 0.0
C2766 C 0.39697 0.45933 0.96474 0.0
C2767 C 0.3934 0.46979 0.93892 0.0
C2768 C 0.38751 0.49645 0.88909 0.0
C2769 C 0.40122 0.51622 0.80755 0.0
C2770 C 0.40164 0.507 0.83905 0.0
C2771 C 0.40533 0.48121 0.93155 0.0
C2772 C 0.40384 0.49045 0.9002 0.0
H2773 H 0.42345 0.51892 0.73544 0.0
H2774 H 0.41664 0.50151 0.78122 0.0
H2775 H 0.37378 0.50941 0.85091 0.0
H2776 H 0.43567 0.47296 0.99219 0.0
H2777 H 0.42942 0.49136 0.94725 0.0
C2778 C 0.77372 0.14357 0.2596 0.0
C2779 C 0.77779 0.15825 0.25681 0.0
C2780 C 0.77306 0.13619 0.23162 0.0
C2781 C 0.77819 0.1399 0.14135 0.0
H2782 H 0.72736 0.13215 0.14138 0.0
C2783 C 0.73164 0.15895 0.04161 0.0
C2784 C 0.73757 0.15128 1.01602 0.0
C2785 C 0.73334 0.15298 0.07388 0.0
C2786 C 0.74163 0.13385 0.14121 0.0
H2787 H 0.78699 0.17627 0.22434 0.0
H2788 H 0.78608 0.16344 0.17557 0.0
H2789 H 0.74304 0.13348 0.1932 0.0
H2790 H 0.74737 0.13088 1.00302 0.0
H2791 H 0.75076 0.12053 0.05969 0.0
H2792 H 0.77644 0.14123 0.08919 0.0
C2793 C 0.7833 0.15754 0.19898 0.0
C2794 C 0.75066 0.13454 0.17075 0.0
C2795 C 0.7838 0.16492 0.22686 0.0
C2796 C 0.7427 0.1369 0.02257 0.0
C2797 C 0.74465 0.131 0.05487 0.0
C2798 C 0.76924 0.13891 0.11192 0.0
C2799 C 0.77652 0.14348 0.20079 0.0
C2800 C 0.76885 0.13824 0.17099 0.0
C2801 C 0.74122 0.13942 0.08058 0.0
C2802 C 0.75079 0.13644 0.11165 0.0
H2803 H 0.76908 0.13827 0.28261 0.0
H2804 H 0.76806 0.12528 0.23361 0.0
H2805 H 0.79213 0.14292 0.14083 0.0
H2806 H 0.72777 0.17011 0.03691 0.0
H2807 H 0.73075 0.15968 0.09346 0.0
C2808 C 0.86108 0.51567 0.98194 0.0
C2809 C 0.87705 0.52347 0.97917 0.0
C2810 C 0.85172 0.51301 0.95374 0.0
C2811 C 0.8559 0.51706 0.86227 0.0
H2812 H 0.85541 0.47537 0.87443 0.0
C2813 C 0.88038 0.48244 0.7658 0.0
C2814 C 0.86547 0.47946 0.74697 0.0
C2815 C 0.87809 0.4859 0.79783 0.0
C2816 C 0.8554 0.48699 0.87087 0.0
H2817 H 0.89362 0.53727 0.94673 0.0
H2818 H 0.87779 0.53249 0.89776 0.0
H2819 H 0.85344 0.48909 0.92191 0.0
H2820 H 0.83699 0.47583 0.74762 0.0
H2821 H 0.83307 0.48177 0.80393 0.0
H2822 H 0.8592 0.51473 0.8113 0.0
C2823 C 0.87233 0.52818 0.92101 0.0
C2824 C 0.85395 0.49491 0.89787 0.0
C2825 C 0.88153 0.53093 0.94914 0.0
C2826 C 0.84861 0.47827 0.76172 0.0
C2827 C 0.84637 0.48158 0.79381 0.0
C2828 C 0.85758 0.50913 0.83543 0.0
C2829 C 0.85847 0.51801 0.92282 0.0
C2830 C 0.85481 0.51005 0.89399 0.0
C2831 C 0.86095 0.48617 0.81127 0.0
C2832 C 0.85784 0.4941 0.83975 0.0
H2833 H 0.85716 0.51005 1.00509 0.0
H2834 H 0.84057 0.50564 0.95594 0.0
H2835 H 0.85638 0.52866 0.85832 0.0
H2836 H 0.89349 0.48339 0.75488 0.0
H2837 H 0.88947 0.48946 0.81116 0.0
C2838 C 0.21797 0.16103 0.73682 0.0
C2839 C 0.21733 0.14942 0.76108 0.0
C2840 C 0.2208 0.15855 0.70424 0.0
C2841 C 0.22168 0.1391 0.63731 0.0
H2842 H 0.273 0.14385 0.63203 0.0
C2843 C 0.25326 0.143 0.51338 0.0
C2844 C 0.26185 0.15632 0.50824 0.0
C2845 C 0.25095 0.13654 0.5452 0.0
C2846 C 0.25872 0.14233 0.63312 0.0
H2847 H 0.21667 0.12626 0.77022 0.0
H2848 H 0.22151 0.12196 0.71303 0.0
H2849 H 0.25782 0.14532 0.68412 0.0
H2850 H 0.2772 0.17224 0.53078 0.0
H2851 H 0.27328 0.16117 0.58599 0.0
H2852 H 0.22225 0.13705 0.58602 0.0
C2853 C 0.22 0.13288 0.71928 0.0
C2854 C 0.25007 0.14321 0.66283 0.0
C2855 C 0.2173 0.13535 0.75185 0.0
C2856 C 0.27056 0.16193 0.53437 0.0
C2857 C 0.26822 0.15554 0.56608 0.0
C2858 C 0.23031 0.13832 0.60742 0.0
C2859 C 0.22275 0.14446 0.69571 0.0
C2860 C 0.23149 0.14202 0.66483 0.0
C2861 C 0.2571 0.14346 0.57199 0.0
C2862 C 0.24888 0.14043 0.60475 0.0
H2863 H 0.21804 0.17197 0.7434 0.0
H2864 H 0.22296 0.1676 0.68621 0.0
H2865 H 0.20732 0.13807 0.6386 0.0
H2866 H 0.24648 0.1385 0.49341 0.0
H2867 H 0.24279 0.12698 0.54898 0.0
C2868 C 0.57224 0.51868 0.24979 0.0
C2869 C 0.58213 0.53127 0.2423 0.0
C2870 C 0.57676 0.50917 0.27681 0.0
C2871 C 0.57791 0.50246 0.3502 0.0
H2872 H 0.6232 0.48653 0.38106 0.0
C2873 C 0.58182 0.47395 0.4776 0.0
C2874 C 0.58804 0.45981 0.47803 0.0
C2875 C 0.58576 0.48402 0.45128 0.0
C2876 C 0.61051 0.49101 0.37277 0.0
H2877 H 0.60471 0.54366 0.25636 0.0
H2878 H 0.61295 0.52678 0.30332 0.0
H2879 H 0.62116 0.49989 0.32657 0.0
H2880 H 0.60395 0.44524 0.45247 0.0
H2881 H 0.61085 0.46281 0.40629 0.0
H2882 H 0.5671 0.49368 0.39573 0.0
C2883 C 0.60191 0.52415 0.28799 0.0
C2884 C 0.60935 0.49862 0.34166 0.0
C2885 C 0.59728 0.53375 0.26104 0.0
C2886 C 0.59935 0.45619 0.45296 0.0
C2887 C 0.60327 0.46625 0.42652 0.0
C2888 C 0.57911 0.4951 0.38122 0.0
C2889 C 0.59112 0.51217 0.29708 0.0
C2890 C 0.59293 0.50418 0.32991 0.0
C2891 C 0.59568 0.48004 0.42456 0.0
C2892 C 0.59535 0.48916 0.39286 0.0
H2893 H 0.56017 0.51681 0.23636 0.0
H2894 H 0.56827 0.49997 0.28317 0.0
H2895 H 0.56515 0.50686 0.34205 0.0
H2896 H 0.57261 0.47691 0.49606 0.0
H2897 H 0.57992 0.49462 0.45067 0.0
C2898 C 0.25381 0.83832 0.19516 0.0
C2899 C 0.24896 0.849 0.21526 0.0
C2900 C 0.25171 0.84077 0.16123 0.0
C2901 C 0.24882 0.85473 0.0867 0.0
H2902 H 0.19755 0.85225 0.07618 0.0
C2903 C 0.22189 0.84309 0.96453 0.0
C2904 C 0.21365 0.82958 0.96908 0.0
C2905 C 0.22315 0.85161 0.99064 0.0
C2906 C 0.21184 0.85329 0.07857 0.0
H2907 H 0.24016 0.87098 0.21601 0.0
H2908 H 0.23631 0.87517 0.15668 0.0
H2909 H 0.21023 0.85482 0.13017 0.0
H2910 H 0.1977 0.81545 1.00199 0.0
H2911 H 0.19972 0.83024 0.04732 0.0
H2912 H 0.25059 0.8525 0.03553 0.0
C2913 C 0.24159 0.86497 0.16711 0.0
C2914 C 0.21908 0.85474 0.10938 0.0
C2915 C 0.24373 0.86256 0.20089 0.0
C2916 C 0.20425 0.82578 0.9981 0.0
C2917 C 0.20541 0.83431 0.02406 0.0
C2918 C 0.24158 0.85352 0.05573 0.0
C2919 C 0.24479 0.8539 0.14727 0.0
C2920 C 0.2376 0.85497 0.11379 0.0
C2921 C 0.21608 0.84671 0.02136 0.0
C2922 C 0.22304 0.85219 0.0516 0.0
H2923 H 0.25783 0.82778 0.20579 0.0
H2924 H 0.2541 0.83205 0.14623 0.0
H2925 H 0.26315 0.85489 0.08972 0.0
H2926 H 0.22912 0.84628 0.94223 0.0
H2927 H 0.2311 0.86131 0.98774 0.0
C2928 C 0.64636 0.01578 0.97096 0.0
C2929 C 0.62983 0.01527 0.98683 0.0
C2930 C 0.64749 0.01267 0.93861 0.0
C2931 C 0.62711 0.98736 0.89272 0.0
H2932 H 0.65195 0.00537 0.81714 0.0
C2933 C 0.61739 0.97382 0.7634 0.0
C2934 C 0.6302 0.97876 0.7402 0.0
C2935 C 0.62091 0.97429 0.79649 0.0
C2936 C 0.64546 -1e-05 0.8384 0.0
H2937 H 0.60133 0.01295 0.98085 0.0
H2938 H 0.60337 0.00723 0.92411 0.0
H2939 H 0.64886 0.01823 0.86559 0.0
H2940 H 0.65765 0.98524 0.73275 0.0
H2941 H 0.66407 0.98565 0.79092 0.0
H2942 H 0.62377 0.96907 0.8659 0.0
C2943 C 0.61538 0.00996 0.9368 0.0
C2944 C 0.64341 0.0075 0.86577 0.0
C2945 C 0.61423 0.01326 0.96904 0.0
C2946 C 0.64747 0.98178 0.75043 0.0
C2947 C 0.65109 0.98204 0.78359 0.0
C2948 C 0.62938 0.97975 0.86556 0.0
C2949 C 0.63212 0.00886 0.92217 0.0
C2950 C 0.63389 0.00134 0.89274 0.0
C2951 C 0.6373 0.97965 0.80652 0.0
C2952 C 0.63824 0.98611 0.83783 0.0
H2953 H 0.6585 0.01756 0.98428 0.0
H2954 H 0.6605 0.01196 0.92752 0.0
H2955 H 0.62013 0.98231 0.91384 0.0
H2956 H 0.604 0.97127 0.75599 0.0
H2957 H 0.61003 0.97219 0.81354 0.0
C2958 C 0.28341 0.33316 0.99018 0.0
C2959 C 0.27796 0.34315 0.96454 0.0
C2960 C 0.28344 0.33697 0.02213 0.0
C2961 C 0.25547 0.36043 0.0651 0.0
H2962 H 0.27843 0.34075 0.14109 0.0
C2963 C 0.24254 0.36237 0.20566 0.0
C2964 C 0.23949 0.34866 0.22163 0.0
C2965 C 0.246 0.36398 0.17223 0.0
C2966 C 0.27197 0.34629 0.11991 0.0
H2967 H 0.27123 0.36536 0.95068 0.0
H2968 H 0.27192 0.37224 1.00653 0.0
H2969 H 0.29286 0.34118 0.08775 0.0
H2970 H 0.23574 0.32613 0.21534 0.0
H2971 H 0.24223 0.32894 0.15667 0.0
H2972 H 0.23458 0.36547 0.09769 0.0
C2973 C 0.27542 0.36135 1.00229 0.0
C2974 C 0.28022 0.34661 0.08955 0.0
C2975 C 0.27509 0.35747 0.97042 0.0
C2976 C 0.23811 0.33679 0.20338 0.0
C2977 C 0.24185 0.33837 0.17005 0.0
C2978 C 0.24736 0.36028 0.0956 0.0
C2979 C 0.27815 0.35085 0.02859 0.0
C2980 C 0.27179 0.35329 0.06163 0.0
C2981 C 0.24667 0.35186 0.15481 0.0
C2982 C 0.25534 0.35283 0.12286 0.0
H2983 H 0.28579 0.32207 0.986 0.0
H2984 H 0.28573 0.32862 0.04178 0.0
H2985 H 0.24841 0.36544 0.04404 0.0
H2986 H 0.24349 0.37164 0.21945 0.0
H2987 H 0.24964 0.37445 0.16064 0.0
C2988 C 0.89104 0.04262 0.27468 0.0
C2989 C 0.90394 0.04125 0.2505 0.0
C2990 C 0.88956 0.03219 0.30143 0.0
C2991 C 0.91844 0.00546 0.34763 0.0
H2992 H 0.87562 0.99476 0.39657 0.0
C2993 C 0.89792 0.96086 0.45844 0.0
C2994 C 0.9129 0.96206 0.47841 0.0
C2995 C 0.8944 0.97134 0.43259 0.0
C2996 C 0.88768 -0.00237 0.38307 0.0
H2997 H 0.92538 0.02789 0.23545 0.0
H2998 H 0.92193 0.00931 0.28016 0.0
H2999 H 0.87343 0.01002 0.34482 0.0
H3000 H 0.93579 0.97508 0.4878 0.0
H3001 H 0.92951 0.99358 0.44321 0.0
H3002 H 0.93268 0.99288 0.38506 0.0
C3003 C 0.91314 0.01851 0.27912 0.0
C3004 C 0.88644 0.00644 0.35353 0.0
C3005 C 0.91485 0.02903 0.25292 0.0
C3006 C 0.92396 0.97411 0.47304 0.0
C3007 C 0.92046 0.98457 0.44727 0.0
C3008 C 0.91965 0.99669 0.37692 0.0
C3009 C 0.90103 0.02023 0.30452 0.0
C3010 C 0.90184 0.01045 0.33539 0.0
C3011 C 0.90603 0.98304 0.42596 0.0
C3012 C 0.90434 0.99272 0.39518 0.0
H3013 H 0.88276 0.05212 0.27375 0.0
H3014 H 0.88018 0.03397 0.3206 0.0
H3015 H 0.93066 0.0085 0.33487 0.0
H3016 H 0.8894 0.95151 0.46194 0.0
H3017 H 0.88325 0.96977 0.4166 0.0
C3018 C 0.24129 0.64015 0.51479 0.0
C3019 C 0.23311 0.65363 0.50945 0.0
C3020 C 0.24287 0.63352 0.54658 0.0
C3021 C 0.23421 0.63855 0.63399 0.0
H3022 H 0.28586 0.6393 0.63966 0.0
C3023 C 0.274 0.66366 0.73111 0.0
C3024 C 0.27177 0.65384 0.75878 0.0
C3025 C 0.27269 0.65895 0.69992 0.0
C3026 C 0.27147 0.63881 0.63838 0.0
H3027 H 0.21741 0.66954 0.53119 0.0
H3028 H 0.21989 0.65802 0.58645 0.0
H3029 H 0.27147 0.63684 0.58703 0.0
H3030 H 0.2686 0.63146 0.77633 0.0
H3031 H 0.26616 0.62325 0.72165 0.0
H3032 H 0.23436 0.64138 0.68507 0.0
C3033 C 0.22526 0.65249 0.56665 0.0
C3034 C 0.26318 0.63724 0.60847 0.0
C3035 C 0.22375 0.65911 0.53495 0.0
C3036 C 0.27028 0.63915 0.75512 0.0
C3037 C 0.26896 0.63446 0.72403 0.0
C3038 C 0.2425 0.63995 0.66387 0.0
C3039 C 0.23625 0.64038 0.573 0.0
C3040 C 0.24447 0.63766 0.60575 0.0
C3041 C 0.26916 0.64444 0.69642 0.0
C3042 C 0.26112 0.64054 0.66596 0.0
H3043 H 0.24856 0.63575 0.49529 0.0
H3044 H 0.25105 0.62399 0.55084 0.0
H3045 H 0.21982 0.639 0.63258 0.0
H3046 H 0.27507 0.67505 0.73357 0.0
H3047 H 0.27269 0.6668 0.67876 0.0
C3048 C 0.38973 0.02546 0.45608 0.0
C3049 C 0.38612 0.01752 0.48601 0.0
C3050 C 0.3792 0.02368 0.42883 0.0
C3051 C 0.35811 0.99235 0.40191 0.0
H3052 H 0.35818 0.01585 0.31901 0.0
C3053 C 0.34814 0.98103 0.26163 0.0
C3054 C 0.3651 0.98152 0.24714 0.0
C3055 C 0.34604 0.98409 0.29397 0.0
C3056 C 0.3579 0.00922 0.34212 0.0
H3057 H 0.36689 0.00371 0.51275 0.0
H3058 H 0.34824 0.00076 0.46511 0.0
H3059 H 0.3586 0.02739 0.36995 0.0
H3060 H 0.39331 0.98429 0.25568 0.0
H3061 H 0.38956 0.98976 0.31252 0.0
H3062 H 0.35815 0.9742 0.37362 0.0
C3063 C 0.35954 0.00797 0.46239 0.0
C3064 C 0.35809 0.01579 0.37119 0.0
C3065 C 0.37014 0.00975 0.48971 0.0
C3066 C 0.38011 0.98384 0.26634 0.0
C3067 C 0.37798 0.98699 0.29867 0.0
C3068 C 0.35784 0.9858 0.37277 0.0
C3069 C 0.36491 0.01391 0.43122 0.0
C3070 C 0.35903 0.00743 0.40142 0.0
C3071 C 0.36087 0.98766 0.31212 0.0
C3072 C 0.35841 0.99423 0.34282 0.0
H3073 H 0.40179 0.0318 0.4529 0.0
H3074 H 0.38366 0.0286 0.40535 0.0
H3075 H 0.35904 0.98555 0.42468 0.0
H3076 H 0.33641 0.97909 0.24733 0.0
H3077 H 0.33277 0.98455 0.30411 0.0
C3078 C 0.75507 0.65524 0.03494 0.0
C3079 C 0.75271 0.64363 1.01608 0.0
C3080 C 0.75171 0.65352 0.06855 0.0
C3081 C 0.74788 0.63714 0.14453 0.0
H3082 H 0.69732 0.64541 0.149 0.0
C3083 C 0.72011 0.64876 0.26536 0.0
C3084 C 0.7134 0.66281 0.2618 0.0
C3085 C 0.72067 0.64073 0.23834 0.0
C3086 C 0.71137 0.64286 0.14827 0.0
H3087 H 0.74722 0.62084 0.0178 0.0
H3088 H 0.74126 0.6179 0.07666 0.0
H3089 H 0.71139 0.64343 0.09599 0.0
H3090 H 0.6991 0.67849 0.22974 0.0
H3091 H 0.70006 0.66468 0.18283 0.0
H3092 H 0.74828 0.63741 0.19641 0.0
C3093 C 0.74552 0.62827 0.06537 0.0
C3094 C 0.71938 0.64176 0.11799 0.0
C3095 C 0.74885 0.62998 0.03183 0.0
C3096 C 0.70449 0.66771 0.23286 0.0
C3097 C 0.70508 0.65973 0.20592 0.0
C3098 C 0.73988 0.63822 0.17489 0.0
C3099 C 0.74614 0.64016 0.08355 0.0
C3100 C 0.73774 0.63934 0.11594 0.0
C3101 C 0.71459 0.64673 0.20764 0.0
C3102 C 0.72165 0.64164 0.17701 0.0
H3103 H 0.75802 0.66586 0.02336 0.0
H3104 H 0.75215 0.66282 0.08234 0.0
H3105 H 0.76207 0.63522 0.14328 0.0
H3106 H 0.7269 0.64471 0.28762 0.0
H3107 H 0.72755 0.63051 0.24065 0.0
C3108 C 0.07342 0.97693 0.97625 0.0
C3109 C 0.08095 0.96339 0.98446 0.0
C3110 C 0.07865 0.9852 0.948 0.0
C3111 C 0.07565 0.98897 0.87543 0.0
H3112 H 0.12001 0.00223 0.83513 0.0
C3113 C 0.07306 0.02066 0.75128 0.0
C3114 C 0.08313 0.03332 0.74848 0.0
C3115 C 0.07685 0.00977 0.77589 0.0
C3116 C 0.10753 -0.00146 0.84608 0.0
H3117 H 0.10051 0.94809 0.97082 0.0
H3118 H 0.10927 0.96245 0.92007 0.0
H3119 H 0.12032 0.98893 0.88979 0.0
H3120 H 0.1048 0.04476 0.76896 0.0
H3121 H 0.11108 0.02595 0.81293 0.0
H3122 H 0.06258 -0.0011 0.83336 0.0
C3123 C 0.09979 0.96685 0.93625 0.0
C3124 C 0.10776 0.99089 0.87721 0.0
C3125 C 0.09484 0.95868 0.96528 0.0
C3126 C 0.09722 0.03486 0.77026 0.0
C3127 C 0.10084 0.02405 0.79529 0.0
C3128 C 0.0754 0.99653 0.84466 0.0
C3129 C 0.09095 0.9798 0.9266 0.0
C3130 C 0.09171 0.98647 0.89248 0.0
C3131 C 0.09026 0.01158 0.79914 0.0
C3132 C 0.09126 0.00172 0.82977 0.0
H3133 H 0.06256 0.98068 0.99053 0.0
H3134 H 0.07188 0.99528 0.94135 0.0
H3135 H 0.0631 0.98542 0.8864 0.0
H3136 H 0.06183 0.01943 0.7352 0.0
H3137 H 0.06864 0.00021 0.77767 0.0
C3138 C 0.72022 0.36002 0.47676 0.0
C3139 C 0.71999 0.34586 0.46815 0.0
C3140 C 0.72259 0.36271 0.50929 0.0
C3141 C 0.75187 0.35344 0.56671 0.0
H3142 H 0.7234 0.35807 0.64345 0.0
C3143 C 0.77221 0.33473 0.69533 0.0
C3144 C 0.76279 0.33985 0.72123 0.0
C3145 C 0.77009 0.34131 0.6637 0.0
C3146 C 0.73161 0.35723 0.62209 0.0
H3147 H 0.72012 0.32341 0.48659 0.0
H3148 H 0.72454 0.32815 0.54382 0.0
H3149 H 0.70875 0.35662 0.59066 0.0
H3150 H 0.74665 0.35721 0.73602 0.0
H3151 H 0.74335 0.36906 0.6807 0.0
H3152 H 0.77469 0.35356 0.59782 0.0
C3153 C 0.72273 0.33711 0.52537 0.0
C3154 C 0.72315 0.3562 0.59207 0.0
C3155 C 0.72022 0.33441 0.4928 0.0
C3156 C 0.75393 0.35306 0.71624 0.0
C3157 C 0.75184 0.3597 0.68452 0.0
C3158 C 0.76033 0.35452 0.59658 0.0
C3159 C 0.7248 0.35126 0.53343 0.0
C3160 C 0.73325 0.35387 0.56453 0.0
C3161 C 0.75853 0.3531 0.65773 0.0
C3162 C 0.75028 0.35592 0.62489 0.0
H3163 H 0.71997 0.36898 0.45801 0.0
H3164 H 0.72421 0.37367 0.51517 0.0
H3165 H 0.75982 0.35175 0.54544 0.0
H3166 H 0.77912 0.32454 0.69878 0.0
H3167 H 0.77561 0.33596 0.64377 0.0
C3168 C 0.16699 0.35919 0.34401 0.0
C3169 C 0.16042 0.34518 0.35191 0.0
C3170 C 0.15973 0.36822 0.31796 0.0
C3171 C 0.13549 0.36722 0.23922 0.0
H3172 H 0.12664 0.40757 0.24656 0.0
C3173 C 0.09904 0.40396 0.13672 0.0
C3174 C 0.10445 0.41838 0.13042 0.0
C3175 C 0.10618 0.39501 0.16304 0.0
C3176 C 0.12925 0.39638 0.24378 0.0
H3177 H 0.14093 0.32979 0.33806 0.0
H3178 H 0.12859 0.34536 0.29223 0.0
H3179 H 0.13791 0.39233 0.2937 0.0
H3180 H 0.122 0.43446 0.14777 0.0
H3181 H 0.1342 0.41904 0.19346 0.0
H3182 H 0.12705 0.37126 0.18924 0.0
C3183 C 0.13926 0.34945 0.30648 0.0
C3184 C 0.13569 0.38759 0.27101 0.0
C3185 C 0.14624 0.34054 0.33305 0.0
C3186 C 0.11742 0.42347 0.15135 0.0
C3187 C 0.12437 0.41459 0.17797 0.0
C3188 C 0.12914 0.37602 0.21193 0.0
C3189 C 0.14595 0.36343 0.29834 0.0
C3190 C 0.13889 0.37284 0.26925 0.0
C3191 C 0.11881 0.4002 0.18449 0.0
C3192 C 0.12586 0.39077 0.21367 0.0
H3193 H 0.17794 0.36315 0.3578 0.0
H3194 H 0.16534 0.37884 0.31251 0.0
H3195 H 0.13805 0.356 0.23659 0.0
H3196 H 0.08897 0.39959 0.12173 0.0
H3197 H 0.10133 0.38409 0.16715 0.0
C3198 C 0.89065 0.89558 0.52427 0.0
C3199 C 0.8929 0.90992 0.51174 0.0
C3200 C 0.8845 0.8854 0.50407 0.0
C3201 C 0.88489 0.8787 0.41741 0.0
H3202 H 0.85106 0.84847 0.44355 0.0
C3203 C 0.8511 0.84248 0.32879 0.0
C3204 C 0.84994 0.82776 0.33877 0.0
C3205 C 0.8581 0.85197 0.34979 0.0
C3206 C 0.86072 0.85674 0.43614 0.0
H3207 H 0.89066 0.92501 0.46873 0.0
H3208 H 0.87992 0.90729 0.43327 0.0
H3209 H 0.85804 0.86657 0.48095 0.0
H3210 H 0.85561 0.81127 0.37797 0.0
H3211 H 0.86712 0.82799 0.41548 0.0
H3212 H 0.88734 0.86901 0.37239 0.0
C3213 C 0.88265 0.90387 0.45871 0.0
C3214 C 0.86467 0.86712 0.45748 0.0
C3215 C 0.88849 0.91407 0.47907 0.0
C3216 C 0.85647 0.82258 0.36969 0.0
C3217 C 0.86293 0.83214 0.39116 0.0
C3218 C 0.88088 0.86838 0.39604 0.0
C3219 C 0.881 0.88935 0.47077 0.0
C3220 C 0.8767 0.87828 0.44826 0.0
C3221 C 0.86352 0.84696 0.38159 0.0
C3222 C 0.86869 0.85734 0.40511 0.0
H3223 H 0.89442 0.89215 0.54925 0.0
H3224 H 0.88347 0.8743 0.51405 0.0
H3225 H 0.89453 0.88696 0.40984 0.0
H3226 H 0.84602 0.8467 0.30513 0.0
H3227 H 0.85838 0.86333 0.34178 0.0
C3228 C 0.33623 0.65014 0.89075 0.0
C3229 C 0.34664 0.66086 0.90325 0.0
C3230 C 0.34308 0.64156 0.86805 0.0
C3231 C 0.38036 0.63886 0.80956 0.0
H3232 H 0.36098 0.60052 0.80706 0.0
C3233 C 0.4108 0.59578 0.73581 0.0
C3234 C 0.39935 0.58764 0.71758 0.0
C3235 C 0.40408 0.60539 0.75642 0.0
C3236 C 0.36631 0.61127 0.80719 0.0
H3237 H 0.37283 0.67059 0.90222 0.0
H3238 H 0.38542 0.65471 0.86405 0.0
H3239 H 0.35158 0.61507 0.84969 0.0
H3240 H 0.37171 0.58308 0.70758 0.0
H3241 H 0.35981 0.6 0.74419 0.0
H3242 H 0.39583 0.63452 0.76782 0.0
C3243 C 0.37158 0.65341 0.87097 0.0
C3244 C 0.36094 0.61968 0.83164 0.0
C3245 C 0.36447 0.6624 0.89321 0.0
C3246 C 0.38088 0.58932 0.72079 0.0
C3247 C 0.3741 0.59895 0.74181 0.0
C3248 C 0.386 0.63029 0.78546 0.0
C3249 C 0.36086 0.64296 0.85782 0.0
C3250 C 0.3677 0.63369 0.83299 0.0
C3251 C 0.38569 0.60702 0.75985 0.0
C3252 C 0.37892 0.61646 0.78394 0.0
H3253 H 0.32242 0.64859 0.89748 0.0
H3254 H 0.33413 0.63407 0.85793 0.0
H3255 H 0.38571 0.64961 0.80938 0.0
H3256 H 0.42509 0.59439 0.73533 0.0
H3257 H 0.41331 0.61115 0.77068 0.0
C3258 C 0.64802 0.15237 0.89558 0.0
C3259 C 0.66251 0.14744 0.8782 0.0
C3260 C 0.64046 0.14381 0.92216 0.0
C3261 C 0.64777 0.10801 0.97557 0.0
H3262 H 0.60459 0.12 1.01591 0.0
C3263 C 0.62052 0.07529 0.09385 0.0
C3264 C 0.60255 0.07656 0.10274 0.0
C3265 C 0.62785 0.0841 0.06739 0.0
C3266 C 0.61648 0.1161 1.00497 0.0
H3267 H 0.67956 0.12911 0.87404 0.0
H3268 H 0.66562 0.11382 0.91726 0.0
H3269 H 0.6155 0.13358 0.96795 0.0
H3270 H 0.57822 0.08818 0.08988 0.0
H3271 H 0.59026 0.10255 0.04331 0.0
H3272 H 0.64789 0.08988 1.01118 0.0
C3273 C 0.66052 0.12459 0.91261 0.0
C3274 C 0.62317 0.1243 0.97709 0.0
C3275 C 0.66847 0.13335 0.8869 0.0
C3276 C 0.59217 0.0869 0.08424 0.0
C3277 C 0.59929 0.09537 0.05724 0.0
C3278 C 0.64076 0.09955 1.0028 0.0
C3279 C 0.64666 0.1297 0.93179 0.0
C3280 C 0.63909 0.12057 0.96161 0.0
C3281 C 0.61735 0.09424 0.04801 0.0
C3282 C 0.62497 0.1034 0.01841 0.0
H3283 H 0.64306 0.16317 0.88978 0.0
H3284 H 0.63008 0.14867 0.93548 0.0
H3285 H 0.66021 0.1045 0.96595 0.0
H3286 H 0.629 0.06748 0.1074 0.0
H3287 H 0.64185 0.08283 0.06245 0.0
C3288 C 0.09847 0.58713 0.59047 0.0
C3289 C 0.10661 0.57394 0.60114 0.0
C3290 C 0.10555 0.59624 0.56433 0.0
C3291 C 0.13711 0.59591 0.4928 0.0
H3292 H 0.13181 0.63723 0.48801 0.0
C3293 C 0.17512 0.63432 0.39664 0.0
C3294 C 0.16682 0.64699 0.38284 0.0
C3295 C 0.16702 0.62543 0.42191 0.0
C3296 C 0.13325 0.6257 0.48864 0.0
H3297 H 0.12919 0.5604 0.5926 0.0
H3298 H 0.14177 0.5763 0.54815 0.0
H3299 H 0.12007 0.62228 0.53505 0.0
H3300 H 0.14312 0.66001 0.38524 0.0
H3301 H 0.12893 0.6445 0.42926 0.0
H3302 H 0.15049 0.59935 0.44662 0.0
C3303 C 0.12957 0.57953 0.55931 0.0
C3304 C 0.12646 0.61704 0.51583 0.0
C3305 C 0.12241 0.5704 0.58529 0.0
C3306 C 0.14988 0.65029 0.39481 0.0
C3307 C 0.14183 0.64145 0.42047 0.0
C3308 C 0.14397 0.60456 0.46577 0.0
C3309 C 0.12113 0.59254 0.54785 0.0
C3310 C 0.12833 0.60195 0.51859 0.0
C3311 C 0.15034 0.62891 0.43472 0.0
C3312 C 0.14226 0.61963 0.46319 0.0
H3313 H 0.08614 0.5902 0.60136 0.0
H3314 H 0.09838 0.60598 0.55637 0.0
H3315 H 0.13853 0.58439 0.49314 0.0
H3316 H 0.18818 0.63137 0.38835 0.0
H3317 H 0.17419 0.61603 0.43218 0.0
C3318 C 0.60554 0.92371 0.66397 0.0
C3319 C 0.60327 0.91931 0.63231 0.0
C3320 C 0.61258 0.91434 0.68965 0.0
C3321 C 0.64337 0.88505 0.70905 0.0
H3322 H 0.61645 0.8749 0.7882 0.0
C3323 C 0.67349 0.8447 0.81081 0.0
C3324 C 0.66756 0.84408 0.84336 0.0
C3325 C 0.66497 0.85334 0.78565 0.0
C3326 C 0.62448 0.87771 0.76675 0.0
H3327 H 0.6069 0.90147 0.60321 0.0
H3328 H 0.62012 0.88533 0.64767 0.0
H3329 H 0.6035 0.89091 0.74414 0.0
H3330 H 0.64764 0.85215 0.87471 0.0
H3331 H 0.63339 0.86803 0.83154 0.0
H3332 H 0.66481 0.87294 0.73156 0.0
C3333 C 0.61605 0.89601 0.65264 0.0
C3334 C 0.61685 0.88688 0.74115 0.0
C3335 C 0.60847 0.90526 0.62712 0.0
C3336 C 0.65261 0.85236 0.84996 0.0
C3337 C 0.64435 0.86145 0.82479 0.0
C3338 C 0.65122 0.87626 0.73491 0.0
C3339 C 0.61806 0.90037 0.68438 0.0
C3340 C 0.62611 0.89056 0.71177 0.0
C3341 C 0.65041 0.86224 0.79191 0.0
C3342 C 0.64192 0.87216 0.76436 0.0
H3343 H 0.60144 0.93434 0.66918 0.0
H3344 H 0.61396 0.9181 0.71365 0.0
H3345 H 0.65103 0.88784 0.68705 0.0
H3346 H 0.68473 0.83827 0.80451 0.0
H3347 H 0.66993 0.8528 0.76115 0.0
C3348 C 0.38024 0.41163 0.98957 0.0
C3349 C 0.3909 0.40668 1.01634 0.0
C3350 C 0.37396 0.402 0.96813 0.0
C3351 C 0.36729 0.36337 0.95793 0.0
H3352 H 0.37601 0.37524 0.86635 0.0
C3353 C 0.35907 0.32415 0.85832 0.0
C3354 C 0.34808 0.32948 0.83228 0.0
C3355 C 0.36577 0.33344 0.88024 0.0
C3356 C 0.37345 0.37179 0.89182 0.0
H3357 H 0.40221 0.38786 0.04335 0.0
H3358 H 0.39097 0.37103 1.00652 0.0
H3359 H 0.38215 0.39186 0.90731 0.0
H3360 H 0.33651 0.34869 0.80736 0.0
H3361 H 0.3486 0.36489 0.84471 0.0
H3362 H 0.35856 0.3433 0.94238 0.0
C3363 C 0.38755 0.38227 1.00173 0.0
C3364 C 0.37682 0.38135 0.91525 0.0
C3365 C 0.394 0.3919 0.02282 0.0
C3366 C 0.34498 0.34431 0.82716 0.0
C3367 C 0.35192 0.35359 0.84859 0.0
C3368 C 0.36393 0.35381 0.93448 0.0
C3369 C 0.37804 0.38727 0.97346 0.0
C3370 C 0.37368 0.37728 0.94856 0.0
C3371 C 0.36187 0.34822 0.87601 0.0
C3372 C 0.36689 0.35793 0.90113 0.0
H3373 H 0.37787 0.42302 0.98391 0.0
H3374 H 0.36646 0.40613 0.94675 0.0
H3375 H 0.36467 0.35995 0.98339 0.0
H3376 H 0.36147 0.31273 0.86301 0.0
H3377 H 0.37354 0.32901 0.90102 0.0
C3378 C 0.8443 0.14553 0.41187 0.0
C3379 C 0.84891 0.16013 0.40921 0.0
C3380 C 0.85107 0.13647 0.38987 0.0
C3381 C 0.883 0.1334 0.322 0.0
H3382 H 0.8446 0.11148 0.28751 0.0
C3383 C 0.89165 0.10725 0.20294 0.0
C3384 C 0.88681 0.09272 0.20413 0.0
C3385 C 0.88608 0.11562 0.22729 0.0
C3386 C 0.85549 0.11742 0.29703 0.0
H3387 H 0.86544 0.17646 0.38345 0.0
H3388 H 0.87721 0.16064 0.34465 0.0
H3389 H 0.83923 0.12489 0.33444 0.0
H3390 H 0.87123 0.07581 0.23001 0.0
H3391 H 0.86119 0.09052 0.27247 0.0
H3392 H 0.89922 0.12599 0.28429 0.0
C3393 C 0.86845 0.15614 0.36388 0.0
C3394 C 0.85248 0.12506 0.32406 0.0
C3395 C 0.8618 0.16521 0.38622 0.0
C3396 C 0.87486 0.08707 0.22821 0.0
C3397 C 0.86931 0.09546 0.25273 0.0
C3398 C 0.88602 0.12576 0.29491 0.0
C3399 C 0.86241 0.14187 0.36447 0.0
C3400 C 0.86617 0.13316 0.33686 0.0
C3401 C 0.87556 0.10962 0.25332 0.0
C3402 C 0.87225 0.11777 0.28199 0.0
H3403 H 0.83448 0.14132 0.4295 0.0
H3404 H 0.84659 0.12542 0.3916 0.0
H3405 H 0.89386 0.13943 0.33141 0.0
H3406 H 0.90085 0.11183 0.18454 0.0
H3407 H 0.89072 0.12661 0.22659 0.0
C3408 C 0.89934 0.58636 0.08604 0.0
C3409 C 0.89138 0.57301 0.09599 0.0
C3410 C 0.89212 0.59565 0.06042 0.0
C3411 C 0.85047 0.60409 1.01247 0.0
H3412 H 0.88228 0.62384 0.949 0.0
C3413 C 0.82272 0.63673 0.89566 0.0
C3414 C 0.83151 0.64934 0.88278 0.0
C3415 C 0.83026 0.62752 0.921 0.0
C3416 C 0.87312 0.61862 0.96664 0.0
H3417 H 0.86924 0.55918 0.08629 0.0
H3418 H 0.85645 0.57546 0.04214 0.0
H3419 H 0.89444 0.608 0.99422 0.0
H3420 H 0.85552 0.66187 0.88691 0.0
H3421 H 0.86866 0.6459 0.93111 0.0
H3422 H 0.82916 0.61484 0.98543 0.0
C3423 C 0.86837 0.57877 0.05424 0.0
C3424 C 0.88015 0.60944 0.99273 0.0
C3425 C 0.87576 0.56936 0.07962 0.0
C3426 C 0.84835 0.65223 0.89579 0.0
C3427 C 0.85592 0.64299 0.92131 0.0
C3428 C 0.84344 0.61336 0.98657 0.0
C3429 C 0.87653 0.59203 0.04394 0.0
C3430 C 0.86896 0.60196 1.01607 0.0
C3431 C 0.84691 0.63052 0.93473 0.0
C3432 C 0.8546 0.62076 0.96295 0.0
H3433 H 0.91149 0.58955 0.0975 0.0
H3434 H 0.89878 0.60576 0.05362 0.0
H3435 H 0.84136 0.59878 0.03007 0.0
H3436 H 0.80978 0.63398 0.88642 0.0
H3437 H 0.82294 0.61795 0.92974 0.0
C3438 C 0.09541 0.10154 0.71133 0.0
C3439 C 0.10162 0.08733 0.71277 0.0
C3440 C 0.102 0.111 0.73261 0.0
C3441 C 0.13806 0.11719 0.79092 0.0
H3442 H 0.10179 0.13924 0.83112 0.0
C3443 C 0.15477 0.14838 0.90018 0.0
C3444 C 0.14869 0.16262 0.89925 0.0
C3445 C 0.14813 0.1391 0.8785 0.0
C3446 C 0.11209 0.13328 0.8199 0.0
H3447 H 0.12046 0.07215 0.73622 0.0
H3448 H 0.13215 0.08879 0.77363 0.0
H3449 H 0.09336 0.12349 0.78963 0.0
H3450 H 0.12998 0.17801 0.87612 0.0
H3451 H 0.11823 0.16169 0.83798 0.0
H3452 H 0.15679 0.12696 0.82118 0.0
C3453 C 0.12213 0.09259 0.75592 0.0
C3454 C 0.10729 0.12426 0.79608 0.0
C3455 C 0.11553 0.08307 0.7344 0.0
C3456 C 0.13489 0.16709 0.87752 0.0
C3457 C 0.12821 0.15775 0.85561 0.0
C3458 C 0.14286 0.12621 0.81473 0.0
C3459 C 0.11496 0.10651 0.756 0.0
C3460 C 0.12022 0.11612 0.78126 0.0
C3461 C 0.13523 0.1438 0.85516 0.0
C3462 C 0.12994 0.13433 0.82962 0.0
H3463 H 0.08487 0.10521 0.69461 0.0
H3464 H 0.09656 0.12176 0.73134 0.0
H3465 H 0.14836 0.11122 0.77974 0.0
H3466 H 0.16523 0.14448 0.91687 0.0
H3467 H 0.15346 0.12832 0.87949 0.0
C3468 C 0.63325 0.32593 0.35008 0.0
C3469 C 0.64537 0.33137 0.32601 0.0
C3470 C 0.62697 0.33472 0.37329 0.0
C3471 C 0.60972 0.35816 0.40981 0.0
H3472 H 0.64435 0.38401 0.44294 0.0
C3473 C 0.58804 0.40498 0.47894 0.0
C3474 C 0.59779 0.4083 0.50636 0.0
C3475 C 0.59443 0.39505 0.45881 0.0
C3476 C 0.63459 0.37673 0.43427 0.0
H3477 H 0.65932 0.35049 0.30577 0.0
H3478 H 0.64805 0.36581 0.34554 0.0
H3479 H 0.65359 0.36744 0.4038 0.0
H3480 H 0.6221 0.40421 0.53393 0.0
H3481 H 0.63339 0.38644 0.49865 0.0
H3482 H 0.59076 0.36733 0.44043 0.0
C3483 C 0.64385 0.35469 0.34726 0.0
C3484 C 0.63981 0.36737 0.41154 0.0
C3485 C 0.65014 0.34594 0.32424 0.0
C3486 C 0.6144 0.40182 0.51285 0.0
C3487 C 0.62079 0.39167 0.49272 0.0
C3488 C 0.60452 0.36748 0.43256 0.0
C3489 C 0.63266 0.34908 0.37265 0.0
C3490 C 0.62734 0.35821 0.39855 0.0
C3491 C 0.61067 0.38804 0.46577 0.0
C3492 C 0.6168 0.3771 0.44449 0.0
H3493 H 0.62943 0.31472 0.35215 0.0
H3494 H 0.6183 0.33011 0.39256 0.0
H3495 H 0.59982 0.35123 0.40029 0.0
H3496 H 0.57538 0.41009 0.47293 0.0
H3497 H 0.58659 0.3929 0.43767 0.0
C3498 C 0.32233 0.84922 0.32279 0.0
C3499 C 0.33216 0.84482 0.35111 0.0
C3500 C 0.32999 0.85764 0.29644 0.0
C3501 C 0.37407 0.87205 0.26215 0.0
H3502 H 0.34255 0.89577 0.20529 0.0
C3503 C 0.40034 0.90384 0.14231 0.0
C3504 C 0.39217 0.91692 0.13088 0.0
C3505 C 0.39317 0.89497 0.1687 0.0
C3506 C 0.35174 0.88943 0.22096 0.0
H3507 H 0.35811 0.84582 0.37351 0.0
H3508 H 0.37139 0.86128 0.32846 0.0
H3509 H 0.33057 0.88164 0.25231 0.0
H3510 H 0.36977 0.93074 0.13898 0.0
H3511 H 0.3577 0.91573 0.18509 0.0
H3512 H 0.39541 0.88062 0.23166 0.0
C3513 C 0.35773 0.85787 0.32599 0.0
C3514 C 0.34472 0.88094 0.24799 0.0
C3515 C 0.3501 0.84905 0.35217 0.0
C3516 C 0.37648 0.92075 0.14666 0.0
C3517 C 0.36943 0.91198 0.17327 0.0
C3518 C 0.38116 0.88076 0.23535 0.0
C3519 C 0.34779 0.8624 0.29751 0.0
C3520 C 0.35566 0.87192 0.26906 0.0
C3521 C 0.37765 0.89891 0.18501 0.0
C3522 C 0.37013 0.88958 0.21403 0.0
H3523 H 0.30867 0.84582 0.32049 0.0
H3524 H 0.32184 0.86018 0.27496 0.0
H3525 H 0.38314 0.86529 0.27713 0.0
H3526 H 0.41252 0.9005 0.13125 0.0
H3527 H 0.39989 0.88497 0.17618 0.0
C3528 C 0.89981 0.40444 0.64218 0.0
C3529 C 0.89141 0.4173 0.62976 0.0
C3530 C 0.89265 0.39574 0.66888 0.0
C3531 C 0.86071 0.39678 0.73931 0.0
H3532 H 0.86543 0.35538 0.7455 0.0
C3533 C 0.82214 0.35918 0.83647 0.0
C3534 C 0.83009 0.34634 0.85015 0.0
C3535 C 0.83046 0.36796 0.81126 0.0
C3536 C 0.86417 0.36694 0.74454 0.0
H3537 H 0.86844 0.43076 0.63619 0.0
H3538 H 0.85593 0.41564 0.68211 0.0
H3539 H 0.87746 0.36994 0.69817 0.0
H3540 H 0.85345 0.33292 0.84776 0.0
H3541 H 0.86802 0.34824 0.80386 0.0
H3542 H 0.84728 0.39376 0.78553 0.0
C3543 C 0.86827 0.41232 0.67154 0.0
C3544 C 0.87111 0.37536 0.71716 0.0
C3545 C 0.87541 0.421 0.64478 0.0
C3546 C 0.84694 0.34277 0.83823 0.0
C3547 C 0.85521 0.35151 0.81264 0.0
C3548 C 0.85374 0.38836 0.76661 0.0
C3549 C 0.87683 0.39957 0.68438 0.0
C3550 C 0.86946 0.39046 0.71389 0.0
C3551 C 0.84701 0.36419 0.79838 0.0
C3552 C 0.85524 0.37326 0.76972 0.0
H3553 H 0.91225 0.40123 0.63186 0.0
H3554 H 0.8999 0.38619 0.67795 0.0
H3555 H 0.85942 0.40833 0.73845 0.0
H3556 H 0.80917 0.36234 0.84475 0.0
H3557 H 0.82352 0.37749 0.80103 0.0
C3558 C 0.33832 0.13356 0.37714 0.0
C3559 C 0.3325 0.14744 0.38231 0.0
C3560 C 0.34565 0.12436 0.40306 0.0
C3561 C 0.3493 0.1204 0.4961 0.0
H3562 H 0.38247 0.09012 0.48085 0.0
C3563 C 0.38755 0.08639 0.60184 0.0
C3564 C 0.38824 0.07145 0.60007 0.0
C3565 C 0.38077 0.09569 0.57564 0.0
C3566 C 0.37315 0.09849 0.4856 0.0
H3567 H 0.32927 0.16219 0.41914 0.0
H3568 H 0.34317 0.14704 0.46301 0.0
H3569 H 0.37145 0.10605 0.43476 0.0
H3570 H 0.38237 0.05476 0.56841 0.0
H3571 H 0.37093 0.07084 0.52305 0.0
H3572 H 0.35149 0.113 0.54711 0.0
C3573 C 0.34186 0.14286 0.43949 0.0
C3574 C 0.36668 0.10766 0.45895 0.0
C3575 C 0.33427 0.15185 0.41387 0.0
C3576 C 0.3819 0.06614 0.57118 0.0
C3577 C 0.37549 0.07542 0.54482 0.0
C3578 C 0.35603 0.11141 0.52272 0.0
C3579 C 0.34744 0.12878 0.43497 0.0
C3580 C 0.35456 0.11884 0.46356 0.0
C3581 C 0.37484 0.09036 0.54649 0.0
C3582 C 0.368 0.10024 0.51797 0.0
H3583 H 0.33669 0.12966 0.35333 0.0
H3584 H 0.34939 0.11361 0.39815 0.0
H3585 H 0.33966 0.12846 0.50129 0.0
H3586 H 0.39225 0.09093 0.62347 0.0
H3587 H 0.38055 0.10712 0.57794 0.0
C3588 C 0.597 0.58098 0.25775 0.0
C3589 C 0.60058 0.58311 0.22423 0.0
C3590 C 0.6033 0.59069 0.27875 0.0
C3591 C 0.6354 0.62023 0.28515 0.0
H3592 H 0.6029 0.63103 0.35199 0.0
C3593 C 0.65123 0.66735 0.35797 0.0
C3594 C 0.65014 0.66476 0.39205 0.0
C3595 C 0.64343 0.65795 0.33792 0.0
C3596 C 0.61214 0.62803 0.33361 0.0
H3597 H 0.61348 0.59669 0.18583 0.0
H3598 H 0.62464 0.61386 0.22254 0.0
H3599 H 0.59381 0.61309 0.31574 0.0
H3600 H 0.63966 0.65069 0.43227 0.0
H3601 H 0.62588 0.63394 0.39689 0.0
H3602 H 0.65364 0.63524 0.30274 0.0
C3603 C 0.61723 0.60458 0.23284 0.0
C3604 C 0.60699 0.61773 0.31291 0.0
C3605 C 0.61095 0.59479 0.21183 0.0
C3606 C 0.64039 0.65295 0.40596 0.0
C3607 C 0.63259 0.64341 0.38575 0.0
C3608 C 0.64049 0.63055 0.30568 0.0
C3609 C 0.61314 0.60279 0.26645 0.0
C3610 C 0.6186 0.6137 0.28848 0.0
C3611 C 0.63459 0.6456 0.35156 0.0
C3612 C 0.62891 0.63459 0.33006 0.0
H3613 H 0.58877 0.57207 0.26753 0.0
H3614 H 0.60019 0.58885 0.30453 0.0
H3615 H 0.64475 0.61722 0.26697 0.0
H3616 H 0.65889 0.67629 0.34675 0.0
H3617 H 0.64492 0.66005 0.31168 0.0
C3618 C 0.15008 0.84573 0.82241 0.0
C3619 C 0.14846 0.83084 0.82959 0.0
C3620 C 0.14252 0.85509 0.84294 0.0
C3621 C 0.13408 0.85604 0.92908 0.0
H3622 H 0.11111 0.89247 0.90319 0.0
C3623 C 0.10444 0.89317 0.01895 0.0
C3624 C 0.10648 0.90801 1.01164 0.0
C3625 C 0.1108 0.8837 0.99755 0.0
C3626 C 0.11777 0.88242 0.91063 0.0
H3627 H 0.13677 0.81399 0.86245 0.0
H3628 H 0.1239 0.83038 0.89914 0.0
H3629 H 0.11657 0.87559 0.86234 0.0
H3630 H 0.11744 0.92473 0.97746 0.0
H3631 H 0.12857 0.90809 0.93955 0.0
H3632 H 0.13541 0.86289 0.97727 0.0
C3633 C 0.13091 0.8348 0.87745 0.0
C3634 C 0.12072 0.87273 0.88737 0.0
C3635 C 0.13813 0.82544 0.8564 0.0
C3636 C 0.11598 0.91328 0.98372 0.0
C3637 C 0.12209 0.9038 0.9619 0.0
C3638 C 0.13116 0.86573 0.9523 0.0
C3639 C 0.13358 0.84969 0.87145 0.0
C3640 C 0.12894 0.85946 0.89638 0.0
C3641 C 0.11904 0.88896 0.9682 0.0
C3642 C 0.12304 0.87903 0.94327 0.0
H3643 H 0.1579 0.85019 0.80186 0.0
H3644 H 0.14478 0.86651 0.83772 0.0
H3645 H 0.1408 0.84602 0.93654 0.0
H3646 H 0.09696 0.88894 0.04027 0.0
H3647 H 0.10821 0.87234 1.00296 0.0
C3648 C 0.95356 0.49845 0.20439 0.0
C3649 C 0.95569 0.51307 0.2082 0.0
C3650 C 0.96721 0.49135 0.18959 0.0
C3651 C 0.99244 0.51009 0.12654 0.0
H3652 H 0.00112 0.47271 0.09709 0.0
C3653 C 0.04128 0.49489 0.03652 0.0
C3654 C 0.03933 0.48058 0.02973 0.0
C3655 C 0.02667 0.50199 0.04818 0.0
C3656 C -0.00173 0.48325 0.10466 0.0
H3657 H 0.97544 0.5293 0.21629 0.0
H3658 H -0.00044 0.51665 0.1926 0.0
H3659 H 0.99151 0.4744 0.15303 0.0
H3660 H 0.02012 0.46479 1.01625 0.0
H3661 H 0.9947 0.47721 0.03634 0.0
H3662 H -0.00054 0.51895 0.07835 0.0
C3663 C 0.98695 0.51116 0.19681 0.0
C3664 C 0.99321 0.48417 0.13696 0.0
C3665 C 0.97309 0.51842 0.21043 0.0
C3666 C 0.02213 0.47543 0.02391 0.0
C3667 C 0.00749 0.4826 0.03519 0.0
C3668 C 0.99756 0.50917 0.09431 0.0
C3669 C 0.98299 0.49886 0.18109 0.0
C3670 C 0.99054 0.49761 0.14839 0.0
C3671 C 0.01036 0.49468 0.05226 0.0
C3672 C 0.00074 0.49576 0.08314 0.0
H3673 H 0.94068 0.49342 0.20709 0.0
H3674 H 0.96414 0.48128 0.17983 0.0
H3675 H 0.98966 0.52064 0.13411 0.0
H3676 H 0.05432 0.49965 0.03823 0.0
H3677 H 0.02908 0.5118 0.05952 0.0
C3678 C 0.78271 0.7577 0.26732 0.0
C3679 C 0.77805 0.77228 0.26264 0.0
C3680 C 0.76955 0.74761 0.27643 0.0
C3681 C 0.74328 0.76158 0.33491 0.0
H3682 H 0.74738 0.72355 0.37956 0.0
C3683 C 0.71277 0.73994 0.44989 0.0
C3684 C 0.71883 0.72598 0.45912 0.0
C3685 C 0.72366 0.74914 0.43024 0.0
C3686 C 0.74675 0.73433 0.36746 0.0
H3687 H 0.75611 0.78698 0.25105 0.0
H3688 H 0.73335 0.76914 0.26628 0.0
H3689 H 0.74999 0.72677 0.32023 0.0
H3690 H 0.74247 0.71313 0.46957 0.0
H3691 H 0.7614 0.72892 0.43409 0.0
H3692 H 0.74058 0.76929 0.3819 0.0
C3693 C 0.74704 0.76558 0.26509 0.0
C3694 C 0.74765 0.73606 0.33342 0.0
C3695 C 0.7601 0.77592 0.257 0.0
C3696 C 0.73722 0.72337 0.45946 0.0
C3697 C 0.74811 0.7325 0.43954 0.0
C3698 C 0.74269 0.75993 0.36878 0.0
C3699 C 0.75231 0.75255 0.28234 0.0
C3700 C 0.74622 0.74978 0.31668 0.0
C3701 C 0.74026 0.74408 0.42055 0.0
C3702 C 0.74452 0.74632 0.38548 0.0
H3703 H 0.79649 0.75435 0.26919 0.0
H3704 H 0.77383 0.73702 0.28624 0.0
H3705 H 0.74229 0.77232 0.32315 0.0
H3706 H 0.69883 0.74268 0.45177 0.0
H3707 H 0.71759 0.75858 0.41752 0.0
C3708 C 0.5543 0.48676 0.58228 0.0
C3709 C 0.54806 0.47257 0.58622 0.0
C3710 C 0.54663 0.49702 0.60023 0.0
C3711 C 0.50481 0.50191 0.64353 0.0
H3712 H 0.48533 0.50378 0.55542 0.0
C3713 C 0.44175 0.50685 0.649 0.0
C3714 C 0.44384 0.52172 0.64245 0.0
C3715 C 0.44918 0.49794 0.62735 0.0
C3716 C 0.49062 0.50311 0.58005 0.0
H3717 H 0.53101 0.45749 0.61471 0.0
H3718 H 0.51872 0.475 0.64727 0.0
H3719 H 0.51732 0.50225 0.56361 0.0
H3720 H 0.4486 0.53887 0.60423 0.0
H3721 H 0.46254 0.52325 0.56788 0.0
H3722 H 0.47821 0.50249 0.66015 0.0
C3723 C 0.52931 0.47841 0.6304 0.0
C3724 C 0.5089 0.50286 0.58482 0.0
C3725 C 0.53606 0.46834 0.61122 0.0
C3726 C 0.44894 0.52747 0.61116 0.0
C3727 C 0.45606 0.51841 0.58976 0.0
C3728 C 0.48656 0.50228 0.63876 0.0
C3729 C 0.53239 0.49301 0.62108 0.0
C3730 C 0.51604 0.5013 0.61671 0.0
C3731 C 0.46009 0.50435 0.6023 0.0
C3732 C 0.47928 0.50219 0.60703 0.0
H3733 H 0.56359 0.49025 0.56312 0.0
H3734 H 0.54939 0.50826 0.59325 0.0
H3735 H 0.51005 0.50059 0.66822 0.0
H3736 H 0.43647 0.50223 0.67217 0.0
H3737 H 0.45061 0.48663 0.63538 0.0
C3738 C 0.74391 0.21284 0.78302 0.0
C3739 C 0.72528 0.2139 0.78272 0.0
C3740 C 0.75391 0.2245 0.79132 0.0
C3741 C 0.74725 0.25637 0.8364 0.0
H3742 H 0.75149 0.2278 0.91129 0.0
C3743 C 0.75222 0.27857 0.94773 0.0
C3744 C 0.77087 0.27814 0.94812 0.0
C3745 C 0.7429 0.26707 0.93685 0.0
C3746 C 0.75006 0.23581 0.89062 0.0
H3747 H 0.70322 0.22893 0.77714 0.0
H3748 H 0.72054 0.24902 0.79217 0.0
H3749 H 0.75046 0.22019 0.85628 0.0
H3750 H 0.79369 0.26382 0.95154 0.0
H3751 H 0.77749 0.24381 0.93308 0.0
H3752 H 0.74682 0.27199 0.87091 0.0
C3753 C 0.72752 0.23924 0.78798 0.0
C3754 C 0.75004 0.23157 0.85911 0.0
C3755 C 0.71747 0.22759 0.77991 0.0
C3756 C 0.77938 0.26476 0.94886 0.0
C3757 C 0.77001 0.25316 0.93866 0.0
C3758 C 0.74726 0.26061 0.86795 0.0
C3759 C 0.74492 0.23678 0.79964 0.0
C3760 C 0.74874 0.24182 0.8317 0.0
C3761 C 0.75252 0.25533 0.92729 0.0
C3762 C 0.74861 0.25034 0.89529 0.0
H3763 H 0.75041 0.2026 0.78193 0.0
H3764 H 0.76773 0.22275 0.79817 0.0
H3765 H 0.74584 0.26439 0.81574 0.0
H3766 H 0.74518 0.28843 0.95062 0.0
H3767 H 0.72905 0.26858 0.92992 0.0
C3768 C 0.95214 0.49518 0.53777 0.0
C3769 C 0.95425 0.48102 0.53 0.0
C3770 C 0.96693 0.50254 0.54797 0.0
C3771 C 0.99525 0.48307 0.60164 0.0
H3772 H 0.00527 0.51965 0.63417 0.0
C3773 C 0.04145 0.49767 0.69763 0.0
C3774 C 0.03889 0.51218 0.7022 0.0
C3775 C 0.02734 0.49001 0.68578 0.0
C3776 C 0.00209 0.50934 0.6257 0.0
H3777 H 0.97339 0.46583 0.5137 0.0
H3778 H -0.00093 0.47866 0.5316 0.0
H3779 H 0.99552 0.51905 0.57793 0.0
H3780 H 0.01894 0.52782 0.71317 0.0
H3781 H 0.99433 0.51424 0.69375 0.0
H3782 H 0.00168 0.47338 0.64952 0.0
C3783 C 0.98614 0.48378 0.53192 0.0
C3784 C 0.99704 0.50903 0.59322 0.0
C3785 C 0.97135 0.47634 0.52205 0.0
C3786 C 0.02146 0.51701 0.70697 0.0
C3787 C 0.00727 0.50915 0.69615 0.0
C3788 C 0.00028 0.48338 0.63416 0.0
C3789 C 0.98349 0.49554 0.5501 0.0
C3790 C 0.99332 0.49593 0.581 0.0
C3791 C 0.01103 0.49707 0.67956 0.0
C3792 C 0.00337 0.49652 0.6467 0.0
H3793 H 0.93906 0.49959 0.54128 0.0
H3794 H 0.96467 0.51214 0.56015 0.0
H3795 H 0.99201 0.47277 0.59319 0.0
H3796 H 0.05462 0.49309 0.69771 0.0
H3797 H 0.03028 0.48005 0.67547 0.0
C3798 C 0.75144 0.7116 0.7783 0.0
C3799 C 0.77008 0.71265 0.77858 0.0
C3800 C 0.74135 0.72346 0.78507 0.0
C3801 C 0.74964 0.75516 0.83176 0.0
H3802 H 0.7381 0.72667 0.90378 0.0
C3803 C 0.74285 0.77623 0.94559 0.0
C3804 C 0.72418 0.77621 0.94627 0.0
C3805 C 0.75162 0.76485 0.9331 0.0
C3806 C 0.74153 0.73467 0.88398 0.0
H3807 H 0.79218 0.72769 0.77326 0.0
H3808 H 0.77482 0.74786 0.78712 0.0
H3809 H 0.73913 0.7198 0.84859 0.0
H3810 H 0.70086 0.76245 0.94871 0.0
H3811 H 0.71599 0.74269 0.92724 0.0
H3812 H 0.75172 0.77015 0.86752 0.0
C3813 C 0.76781 0.73807 0.78299 0.0
C3814 C 0.74166 0.73088 0.85217 0.0
C3815 C 0.7779 0.72635 0.7756 0.0
C3816 C 0.71517 0.7631 0.9458 0.0
C3817 C 0.72394 0.75166 0.93371 0.0
C3818 C 0.74937 0.75901 0.86368 0.0
C3819 C 0.75025 0.73575 0.79385 0.0
C3820 C 0.74584 0.741 0.82565 0.0
C3821 C 0.74145 0.75365 0.92223 0.0
C3822 C 0.74541 0.74876 0.8901 0.0
H3823 H 0.74491 0.70129 0.77813 0.0
H3824 H 0.72739 0.72182 0.79094 0.0
H3825 H 0.75312 0.76315 0.81196 0.0
H3826 H 0.75028 0.78585 0.94921 0.0
H3827 H 0.76549 0.76615 0.92626 0.0
C3828 C 0.44922 0.47135 0.11952 0.0
C3829 C 0.45571 0.45871 0.10814 0.0
C3830 C 0.4598 0.47877 0.13992 0.0
C3831 C 0.4984 0.48252 0.10122 0.0
H3832 H 0.50007 0.51979 0.13405 0.0
C3833 C 0.54735 0.52187 0.10499 0.0
C3834 C 0.54016 0.53429 0.11634 0.0
C3835 C 0.5373 0.51418 0.08429 0.0
C3836 C 0.4993 0.50952 0.12403 0.0
H3837 H 0.47588 0.442 0.11587 0.0
H3838 H 0.49475 0.45576 0.14925 0.0
H3839 H 0.48472 0.50036 0.16553 0.0
H3840 H 0.51925 0.55037 0.10836 0.0
H3841 H 0.50136 0.53609 0.07446 0.0
H3842 H 0.51295 0.4917 0.05968 0.0
C3843 C 0.48158 0.45983 0.14279 0.0
C3844 C 0.49111 0.49833 0.14279 0.0
C3845 C 0.47116 0.45229 0.12234 0.0
C3846 C 0.52456 0.54028 0.1018 0.0
C3847 C 0.51468 0.53244 0.08109 0.0
C3848 C 0.5066 0.49371 0.08246 0.0
C3849 C 0.47745 0.47427 0.14529 0.0
C3850 C 0.49046 0.48476 0.13146 0.0
C3851 C 0.51947 0.5181 0.0789 0.0
C3852 C 0.50705 0.50732 0.0936 0.0
H3853 H 0.43692 0.47623 0.11044 0.0
H3854 H 0.45573 0.48953 0.14427 0.0
H3855 H 0.49759 0.47226 0.09115 0.0
H3856 H 0.55974 0.51729 0.11442 0.0
H3857 H 0.54189 0.50354 0.08 0.0
C3858 C 0.75888 0.21958 0.46194 0.0
C3859 C 0.7771 0.22286 0.4626 0.0
C3860 C 0.74729 0.22948 0.44588 0.0
C3861 C 0.74035 0.25681 0.38399 0.0
H3862 H 0.7646 0.23309 0.3246 0.0
C3863 C 0.73744 0.2783 0.26942 0.0
C3864 C 0.71949 0.27413 0.2692 0.0
C3865 C 0.75018 0.26828 0.28103 0.0
C3866 C 0.75788 0.23974 0.34094 0.0
H3867 H 0.79623 0.24032 0.45991 0.0
H3868 H 0.776 0.25749 0.43191 0.0
H3869 H 0.76804 0.22788 0.38401 0.0
H3870 H 0.70173 0.25582 0.2688 0.0
H3871 H 0.72392 0.23865 0.29024 0.0
H3872 H 0.72992 0.26847 0.3411 0.0
C3873 C 0.77072 0.24722 0.44193 0.0
C3874 C 0.75966 0.23677 0.37463 0.0
C3875 C 0.78242 0.23727 0.45755 0.0
C3876 C 0.71533 0.25945 0.27096 0.0
C3877 C 0.72819 0.24951 0.28254 0.0
C3878 C 0.73849 0.25971 0.35037 0.0
C3879 C 0.75427 0.24239 0.43113 0.0
C3880 C 0.75095 0.24533 0.39617 0.0
C3881 C 0.74441 0.25462 0.29368 0.0
C3882 C 0.74743 0.25132 0.32874 0.0
H3883 H 0.75424 0.20872 0.46833 0.0
H3884 H 0.73424 0.22583 0.43899 0.0
H3885 H 0.73363 0.26346 0.40031 0.0
H3886 H 0.74119 0.28952 0.26578 0.0
H3887 H 0.76317 0.27217 0.28758 0.0
C3888 C 0.25891 0.27458 0.7609 0.0
C3889 C 0.27716 0.27132 0.7617 0.0
C3890 C 0.24715 0.26521 0.77831 0.0
C3891 C 0.25147 0.23596 0.84694 0.0
H3892 H 0.23894 0.26761 0.89707 0.0
C3893 C 0.23674 0.21901 0.96627 0.0
C3894 C 0.2184 0.22189 0.96549 0.0
C3895 C 0.24837 0.22927 0.95149 0.0
C3896 C 0.24263 0.25868 0.88354 0.0
H3897 H 0.29616 0.25385 0.76816 0.0
H3898 H 0.27617 0.23787 0.7991 0.0
H3899 H 0.24087 0.27146 0.83833 0.0
H3900 H 0.19883 0.23904 0.96128 0.0
H3901 H 0.21859 0.25627 0.93347 0.0
H3902 H 0.25293 0.22317 0.89202 0.0
C3903 C 0.2707 0.24777 0.78745 0.0
C3904 C 0.24346 0.26081 0.84959 0.0
C3905 C 0.28236 0.25704 0.76974 0.0
C3906 C 0.21274 0.23619 0.95956 0.0
C3907 C 0.22427 0.24623 0.94389 0.0
C3908 C 0.25061 0.23384 0.8808 0.0
C3909 C 0.254 0.25294 0.79646 0.0
C3910 C 0.24827 0.24956 0.83082 0.0
C3911 C 0.24116 0.24169 0.93443 0.0
C3912 C 0.24614 0.24512 0.89967 0.0
H3913 H 0.25429 0.28524 0.75226 0.0
H3914 H 0.23378 0.26892 0.78269 0.0
H3915 H 0.25503 0.22699 0.83347 0.0
H3916 H 0.24169 0.20827 0.97313 0.0
H3917 H 0.26193 0.22605 0.94699 0.0
C3918 C 0.21551 0.72894 0.27879 0.0
C3919 C 0.22414 0.7156 0.28075 0.0
C3920 C 0.2249 0.74085 0.2873 0.0
C3921 C 0.24869 0.734 0.35763 0.0
H3922 H 0.24234 0.77415 0.36929 0.0
C3923 C 0.2769 0.76677 0.44769 0.0
C3924 C 0.26936 0.78054 0.44445 0.0
C3925 C 0.26688 0.75529 0.43857 0.0
C3926 C 0.24368 0.76282 0.36654 0.0
H3927 H 0.24988 0.70532 0.27878 0.0
H3928 H 0.26608 0.72587 0.29587 0.0
H3929 H 0.24158 0.7665 0.31446 0.0
H3930 H 0.24446 0.79229 0.44247 0.0
H3931 H 0.22708 0.77224 0.42612 0.0
H3932 H 0.2507 0.73031 0.40975 0.0
C3933 C 0.25215 0.72715 0.28938 0.0
C3934 C 0.2438 0.75858 0.33505 0.0
C3935 C 0.24281 0.71527 0.2805 0.0
C3936 C 0.25077 0.78189 0.44251 0.0
C3937 C 0.24075 0.77033 0.43378 0.0
C3938 C 0.24857 0.73825 0.38916 0.0
C3939 C 0.24249 0.73897 0.2984 0.0
C3940 C 0.24636 0.74415 0.33029 0.0
C3941 C 0.2497 0.75795 0.42592 0.0
C3942 C 0.24602 0.7527 0.39394 0.0
H3943 H 0.20117 0.72973 0.27656 0.0
H3944 H 0.21736 0.75029 0.29215 0.0
H3945 H 0.24998 0.72266 0.35476 0.0
H3946 H 0.29106 0.76526 0.45152 0.0
H3947 H 0.27383 0.74544 0.43478 0.0
C3948 C 0.25694 0.21469 0.27973 0.0
C3949 C 0.27552 0.21554 0.28254 0.0
C3950 C 0.24648 0.22548 0.29082 0.0
C3951 C 0.24188 0.23272 0.35923 0.0
H3952 H 0.24835 0.27274 0.37241 0.0
C3953 C 0.23733 0.2794 0.45102 0.0
C3954 C 0.21867 0.27888 0.45258 0.0
C3955 C 0.2464 0.26835 0.43784 0.0
C3956 C 0.24678 0.26147 0.36928 0.0
H3957 H 0.29769 0.23014 0.28645 0.0
H3958 H 0.27962 0.24896 0.30551 0.0
H3959 H 0.25411 0.26479 0.31885 0.0
H3960 H 0.19601 0.26444 0.45555 0.0
H3961 H 0.21151 0.24551 0.43104 0.0
H3962 H 0.2347 0.22941 0.40984 0.0
C3963 C 0.27293 0.23976 0.29697 0.0
C3964 C 0.24965 0.25704 0.33841 0.0
C3965 C 0.28337 0.22887 0.28628 0.0
C3966 C 0.21018 0.26557 0.45153 0.0
C3967 C 0.21915 0.25458 0.43789 0.0
C3968 C 0.23893 0.23718 0.39015 0.0
C3969 C 0.25483 0.23712 0.30371 0.0
C3970 C 0.24748 0.2426 0.3332 0.0
C3971 C 0.23664 0.25696 0.42672 0.0
C3972 C 0.24169 0.25155 0.39557 0.0
H3973 H 0.25059 0.20482 0.27417 0.0
H3974 H 0.23236 0.22358 0.2944 0.0
H3975 H 0.24062 0.22139 0.35615 0.0
H3976 H 0.24444 0.28924 0.45424 0.0
H3977 H 0.26023 0.26999 0.431 0.0
C3978 C 0.28395 0.73657 0.96019 0.0
C3979 C 0.27854 0.72214 0.96366 0.0
C3980 C 0.27217 0.74689 0.94619 0.0
C3981 C 0.23401 0.74738 0.88937 0.0
H3982 H 0.27195 0.74335 0.82647 0.0
C3983 C 0.21164 0.75442 0.77132 0.0
C3984 C 0.21767 0.76864 0.76557 0.0
C3985 C 0.2229 0.74424 0.78736 0.0
C3986 C 0.26127 0.74435 0.84379 0.0
H3987 H 0.25559 0.70808 0.96873 0.0
H3988 H 0.23539 0.72587 0.94278 0.0
H3989 H 0.27891 0.74231 0.88446 0.0
H3990 H 0.24127 0.78177 0.75741 0.0
H3991 H 0.2605 0.76451 0.78797 0.0
H3992 H 0.21636 0.7494 0.8487 0.0
C3993 C 0.24861 0.72931 0.94915 0.0
C3994 C 0.26522 0.74418 0.87688 0.0
C3995 C 0.26029 0.71899 0.9634 0.0
C3996 C 0.23605 0.77123 0.76518 0.0
C3997 C 0.24718 0.76116 0.78197 0.0
C3998 C 0.23006 0.74757 0.85627 0.0
C3999 C 0.25567 0.74231 0.93488 0.0
C4000 C 0.25162 0.74572 0.89999 0.0
C4001 C 0.23952 0.74877 0.79817 0.0
C4002 C 0.24364 0.74592 0.83319 0.0
H4003 H 0.29781 0.73949 0.96247 0.0
H4004 H 0.27744 0.7573 0.93723 0.0
H4005 H 0.22332 0.74827 0.90673 0.0
H4006 H 0.19766 0.75179 0.76938 0.0
H4007 H 0.21716 0.73421 0.79784 0.0
C4008 C 0.45502 -0.00244 0.69919 0.0
C4009 C 0.45728 0.0121 0.70369 0.0
C4010 C 0.46876 0.99043 0.6848 0.0
C4011 C 0.4931 0.00941 0.62154 0.0
H4012 H 0.50131 0.97212 0.59132 0.0
C4013 C 0.5396 0.99418 0.52836 0.0
C4014 C 0.53769 0.9796 0.52369 0.0
C4015 C 0.52508 0.00149 0.5397 0.0
C4016 C 0.49858 0.98264 0.59908 0.0
H4017 H 0.47709 0.02829 0.71201 0.0
H4018 H 0.50116 0.01567 0.68804 0.0
H4019 H 0.49298 0.97371 0.64784 0.0
H4020 H 0.51849 0.96335 0.51282 0.0
H4021 H 0.49316 0.9763 0.53156 0.0
H4022 H 0.4988 0.01835 0.57278 0.0
C4023 C 0.48855 0.01018 0.69226 0.0
C4024 C 0.4943 0.9835 0.63173 0.0
C4025 C 0.47469 0.01744 0.7059 0.0
C4026 C 0.5205 0.97425 0.5189 0.0
C4027 C 0.50591 0.98173 0.52941 0.0
C4028 C 0.49739 0.00856 0.58886 0.0
C4029 C 0.48455 -0.00207 0.67642 0.0
C4030 C 0.49177 -0.00312 0.64343 0.0
C4031 C 0.50893 0.99411 0.54541 0.0
C4032 C 0.50033 0.99517 0.57732 0.0
H4033 H 0.44203 0.99262 0.7011 0.0
H4034 H 0.46568 0.9804 0.67485 0.0
H4035 H 0.49041 0.01992 0.62943 0.0
H4036 H 0.55262 -0.00093 0.52892 0.0
H4037 H 0.52757 0.01157 0.54986 0.0
C4038 C 0.01577 0.95914 0.08374 0.0
C4039 C 0.03342 0.95683 0.09349 0.0
C4040 C 0.003 0.96127 0.10688 0.0
C4041 C 0.01729 0.98607 0.15647 0.0
H4042 H 0.96938 -0.00055 0.13761 0.0
C4043 C 0.97065 0.02677 0.18973 0.0
C4044 C 0.96053 0.03346 0.16412 0.0
C4045 C 0.98693 0.02091 0.18329 0.0
C4046 C 0.98292 0.99573 0.14211 0.0
H4047 H 0.05091 0.9513 0.1349 0.0
H4048 H 0.0287 0.95652 0.17532 0.0
H4049 H 0.97525 0.97385 0.14232 0.0
H4050 H 0.95951 0.0398 0.11202 0.0
H4051 H 0.98647 0.02684 0.1001 0.0
H4052 H 0.0245 0.00812 0.1581 0.0
C4053 C 0.02476 0.95666 0.14991 0.0
C4054 C 0.98608 0.98117 0.14614 0.0
C4055 C 0.03769 0.95462 0.1268 0.0
C4056 C 0.96697 0.03445 0.13201 0.0
C4057 C 0.98277 0.0277 0.12533 0.0
C4058 C 0.01393 0.00065 0.15371 0.0
C4059 C 0.00843 0.96259 0.13922 0.0
C4060 C 0.0035 0.97621 0.15129 0.0
C4061 C 0.99175 0.01979 0.15086 0.0
C4062 C 0.99689 0.00546 0.14554 0.0
H4063 H 0.01201 0.9598 0.05823 0.0
H4064 H 0.98992 0.96464 0.09807 0.0
H4065 H 0.03098 0.98272 0.16028 0.0
H4066 H 0.96594 0.02601 0.21474 0.0
H4067 H 0.99392 0.01485 0.2032 0.0
C4068 C 0.47081 0.97707 0.02335 0.0
C4069 C 0.45361 0.98154 0.03122 0.0
C4070 C 0.48544 0.98443 0.03417 0.0
C4071 C 0.49609 0.00927 0.09642 0.0
H4072 H 0.50291 0.97327 0.15062 0.0
C4073 C 0.52457 0.01588 0.20978 0.0
C4074 C 0.54198 0.0117 0.20258 0.0
C4075 C 0.51031 0.00822 0.19853 0.0
C4076 C 0.50091 0.98336 0.13584 0.0
H4077 H 0.43815 -9e-05 0.04284 0.0
H4078 H 0.46345 0.0123 0.06349 0.0
H4079 H 0.49144 0.97302 0.09527 0.0
H4080 H 0.55815 0.99358 0.19187 0.0
H4081 H 0.5335 0.98074 0.17014 0.0
H4082 H 0.50551 0.01961 0.13703 0.0
C4083 C 0.46591 0.00287 0.05081 0.0
C4084 C 0.49483 0.98327 0.10387 0.0
C4085 C 0.4513 0.99561 0.03955 0.0
C4086 C 0.54483 -0.00235 0.19457 0.0
C4087 C 0.5306 0.99013 0.18272 0.0
C4088 C 0.50216 0.00937 0.12838 0.0
C4089 C 0.48251 0.99595 0.05298 0.0
C4090 C 0.49237 0.99623 0.08386 0.0
C4091 C 0.51384 0.99676 0.17984 0.0
C4092 C 0.50449 0.99641 0.14847 0.0
H4093 H 0.47303 0.96667 1.0145 0.0
H4094 H 0.49842 0.9794 0.03388 0.0
H4095 H 0.49406 0.01937 0.08168 0.0
H4096 H 0.52193 0.02627 0.21837 0.0
H4097 H 0.49718 0.01302 0.19826 0.0
C4098 C 0.94421 0.97687 0.61113 0.0
C4099 C 0.95239 0.96437 0.60194 0.0
C4100 C 0.95278 0.98485 0.63344 0.0
C4101 C 0.00066 0.99076 0.64607 0.0
H4102 H 0.99651 0.00777 0.55621 0.0
C4103 C 0.05311 0.01849 0.61775 0.0
C4104 C 0.04406 0.03062 0.62695 0.0
C4105 C 0.04533 0.01027 0.59503 0.0
C4106 C -0.00208 0.00277 0.58097 0.0
H4107 H 0.97303 0.94856 0.61505 0.0
H4108 H 0.98759 0.96262 0.65313 0.0
H4109 H 0.97097 0.99613 0.58304 0.0
H4110 H 0.02252 0.04558 0.61375 0.0
H4111 H 0.00931 0.03111 0.57493 0.0
H4112 H 0.02759 -0.00257 0.64406 0.0
C4113 C 0.97494 0.96645 0.64299 0.0
C4114 C 0.98317 0.9966 0.59694 0.0
C4115 C 0.96683 0.95848 0.62034 0.0
C4116 C 0.02941 0.03594 0.6084 0.0
C4117 C 0.02207 0.02776 0.58535 0.0
C4118 C 0.01541 -0.00306 0.6301 0.0
C4119 C 0.97019 0.98092 0.64285 0.0
C4120 C 0.98437 0.9906 0.62976 0.0
C4121 C 0.0278 0.01352 0.58519 0.0
C4122 C 0.01414 0.00316 0.59746 0.0
H4123 H 0.93251 0.98132 0.59857 0.0
H4124 H 0.94811 0.99566 0.6358 0.0
H4125 H 0.00203 0.9858 0.67087 0.0
H4126 H 0.06497 0.01448 0.63049 0.0
H4127 H 0.05076 -0.00029 0.59256 0.0
C4128 C 0.99485 0.41314 0.88823 0.0
C4129 C 0.01066 0.41981 0.89755 0.0
C4130 C 0.9874 0.41639 0.85709 0.0
C4131 C 0.98624 0.44374 0.78575 0.0
H4132 H 0.97081 0.41212 0.73805 0.0
C4133 C 0.9635 0.45435 0.65143 0.0
C4134 C 0.94962 0.4461 0.63997 0.0
C4135 C 0.97166 0.45048 0.68165 0.0
C4136 C 0.97478 0.42115 0.75102 0.0
H4137 H 0.03059 0.43562 0.88082 0.0
H4138 H 0.0173 0.44156 0.82691 0.0
H4139 H 0.98277 0.40733 0.7932 0.0
H4140 H 0.93347 0.42714 0.65134 0.0
H4141 H 0.9473 0.42048 0.70456 0.0
H4142 H 0.97781 0.45763 0.74434 0.0
C4143 C 0.01076 0.43368 0.84385 0.0
C4144 C 0.98173 0.41837 0.78278 0.0
C4145 C 0.01836 0.4303 0.87495 0.0
C4146 C 0.9444 0.43356 0.65912 0.0
C4147 C 0.95237 0.42979 0.68981 0.0
C4148 C 0.97908 0.44654 0.75421 0.0
C4149 C 0.99533 0.42659 0.83427 0.0
C4150 C 0.98766 0.42961 0.80055 0.0
C4151 C 0.96585 0.43841 0.702 0.0
C4152 C 0.97335 0.43529 0.73606 0.0
H4153 H 0.98813 0.40531 0.90503 0.0
H4154 H 0.97531 0.41093 0.85093 0.0
H4155 H 0.99038 0.4527 0.79882 0.0
H4156 H 0.96767 0.46414 0.63735 0.0
H4157 H 0.9823 0.45721 0.68929 0.0
C4158 C 0.80205 0.71712 0.89759 0.0
C4159 C 0.80943 0.70433 0.88828 0.0
C4160 C 0.80835 0.72329 0.92513 0.0
C4161 C 0.8294 0.71343 1.00488 0.0
H4162 H 0.83582 0.75445 1.00666 0.0
C4163 C 0.85687 0.7381 0.11938 0.0
C4164 C 0.85063 0.75163 0.12656 0.0
C4165 C 0.85193 0.73234 0.09041 0.0
C4166 C 0.83384 0.74299 1.00684 0.0
H4167 H 0.8293 0.68796 0.90061 0.0
H4168 H 0.8403 0.69867 0.94912 0.0
H4169 H 0.82823 0.74473 0.9554 0.0
H4170 H 0.83392 0.76956 0.10863 0.0
H4171 H 0.82494 0.7594 0.05859 0.0
H4172 H 0.83456 0.71166 0.05639 0.0
C4173 C 0.82971 0.70401 0.93481 0.0
C4174 C 0.82959 0.7374 0.97729 0.0
C4175 C 0.82357 0.69796 0.90681 0.0
C4176 C 0.83894 0.75908 0.10415 0.0
C4177 C 0.83397 0.75331 0.07513 0.0
C4178 C 0.83351 0.71903 0.03452 0.0
C4179 C 0.82197 0.71664 0.94463 0.0
C4180 C 0.82732 0.72254 0.97586 0.0
C4181 C 0.84053 0.73989 0.06761 0.0
C4182 C 0.83582 0.73391 0.03601 0.0
H4183 H 0.79096 0.72215 0.88402 0.0
H4184 H 0.80197 0.73292 0.93202 0.0
H4185 H 0.82742 0.70197 1.00488 0.0
H4186 H 0.86566 0.73189 0.13618 0.0
H4187 H 0.85743 0.72206 0.08562 0.0
C4188 C 0.5079 0.58832 0.37107 0.0
C4189 C 0.50611 0.57507 0.35811 0.0
C4190 C 0.5049 0.58942 0.40439 0.0
C4191 C 0.49581 0.56733 0.48411 0.0
H4192 H 0.46844 0.60072 0.50224 0.0
C4193 C 0.45896 0.56679 0.60583 0.0
C4194 C 0.44236 0.57356 0.60629 0.0
C4195 C 0.47072 0.56962 0.5798 0.0
C4196 C 0.47588 0.59122 0.4977 0.0
H4197 H 0.50053 0.55251 0.36945 0.0
H4198 H 0.49492 0.55431 0.42723 0.0
H4199 H 0.48199 0.59988 0.44902 0.0
H4200 H 0.42481 0.58851 0.57872 0.0
H4201 H 0.44444 0.59256 0.53167 0.0
H4202 H 0.48842 0.55801 0.53129 0.0
C4203 C 0.499 0.5639 0.41229 0.0
C4204 C 0.48404 0.59086 0.46714 0.0
C4205 C 0.50212 0.56281 0.37908 0.0
C4206 C 0.43772 0.58333 0.57959 0.0
C4207 C 0.44915 0.58573 0.5526 0.0
C4208 C 0.48731 0.56753 0.51429 0.0
C4209 C 0.49982 0.5773 0.42532 0.0
C4210 C 0.49367 0.57871 0.45952 0.0
C4211 C 0.46572 0.57861 0.55193 0.0
C4212 C 0.47677 0.57932 0.52136 0.0
H4213 H 0.51089 0.59792 0.35516 0.0
H4214 H 0.50605 0.59987 0.41347 0.0
H4215 H 0.50354 0.55795 0.4797 0.0
H4216 H 0.4626 0.55863 0.62476 0.0
H4217 H 0.48344 0.56418 0.5812 0.0
C4218 C 0.65655 0.21707 0.60813 0.0
C4219 C 0.65133 0.2255 0.633 0.0
C4220 C 0.65969 0.22337 0.57613 0.0
C4221 C 0.66806 0.25894 0.52762 0.0
H4222 H 0.65255 0.23907 0.45393 0.0
C4223 C 0.65538 0.28536 0.39479 0.0
C4224 C 0.66911 0.28245 0.3731 0.0
C4225 C 0.65352 0.27729 0.42518 0.0
C4226 C 0.65709 0.24467 0.47428 0.0
H4227 H 0.64557 0.24715 0.64392 0.0
H4228 H 0.65125 0.2582 0.58862 0.0
H4229 H 0.64911 0.22754 0.50974 0.0
H4230 H 0.69208 0.269 0.36717 0.0
H4231 H 0.68817 0.25426 0.41972 0.0
H4232 H 0.67542 0.27626 0.49193 0.0
C4233 C 0.65303 0.24672 0.59351 0.0
C4234 C 0.65521 0.23806 0.50636 0.0
C4235 C 0.64969 0.24039 0.62531 0.0
C4236 C 0.68083 0.27105 0.38251 0.0
C4237 C 0.67874 0.26276 0.41279 0.0
C4238 C 0.66979 0.26557 0.4956 0.0
C4239 C 0.65787 0.23832 0.56817 0.0
C4240 C 0.66056 0.24512 0.53366 0.0
C4241 C 0.66531 0.26603 0.43478 0.0
C4242 C 0.66427 0.25855 0.46857 0.0
H4243 H 0.65772 0.20554 0.61324 0.0
H4244 H 0.66354 0.21649 0.55762 0.0
H4245 H 0.67267 0.2647 0.54766 0.0
H4246 H 0.64663 0.29444 0.38895 0.0
H4247 H 0.64318 0.28016 0.44171 0.0
C4248 C 0.94449 0.55773 0.07297 0.0
C4249 C 0.94832 0.54424 0.08969 0.0
C4250 C 0.95212 0.56187 0.04207 0.0
C4251 C 0.97334 0.54567 0.9712 0.0
H4252 H 0.98775 0.58467 0.9438 0.0
C4253 C -0.00028 0.56189 0.83897 0.0
C4254 C 0.0126 0.57281 0.83454 0.0
C4255 C 0.99129 0.55873 0.86944 0.0
C4256 C 0.984 0.57366 0.95099 0.0
H4257 H 0.96324 0.52465 0.08683 0.0
H4258 H 0.9767 0.53183 0.03406 0.0
H4259 H 0.97488 0.57896 0.99792 0.0
H4260 H 0.02706 0.58865 0.85918 0.0
H4261 H 0.0131 0.58282 0.91226 0.0
H4262 H 0.9829 0.54021 0.92491 0.0
C4263 C 0.96769 0.53924 0.04425 0.0
C4264 C 0.97632 0.57042 0.98211 0.0
C4265 C 0.96015 0.53518 0.07492 0.0
C4266 C 0.01708 0.58025 0.8616 0.0
C4267 C 0.00889 0.57697 0.89212 0.0
C4268 C 0.98105 0.54889 0.9402 0.0
C4269 C 0.96359 0.55254 0.02687 0.0
C4270 C 0.97105 0.55632 0.99297 0.0
C4271 C 0.99566 0.56626 0.89664 0.0
C4272 C 0.98672 0.56292 0.92954 0.0
H4273 H 0.93519 0.5649 0.08321 0.0
H4274 H 0.94849 0.57217 0.02961 0.0
H4275 H 0.96915 0.53473 0.97807 0.0
H4276 H 0.99576 0.55608 0.81856 0.0
H4277 H 0.98104 0.55057 0.87137 0.0
C4278 C 0.68635 0.72069 0.34065 0.0
C4279 C 0.67393 0.71066 0.35461 0.0
C4280 C 0.68307 0.72841 0.31011 0.0
C4281 C 0.64727 0.73801 0.24744 0.0
H4282 H 0.68732 0.74488 0.18868 0.0
C4283 C 0.6392 0.77222 0.1226 0.0
C4284 C 0.64924 0.76879 0.09549 0.0
C4285 C 0.64245 0.76548 0.15407 0.0
C4286 C 0.67589 0.74298 0.20451 0.0
H4287 H 0.64841 0.70082 0.34709 0.0
H4288 H 0.64252 0.71428 0.29429 0.0
H4289 H 0.69201 0.73288 0.24326 0.0
H4290 H 0.67073 0.75546 0.08074 0.0
H4291 H 0.67623 0.74346 0.13543 0.0
H4292 H 0.63105 0.74766 0.20846 0.0
C4293 C 0.6547 0.71647 0.307 0.0
C4294 C 0.67865 0.73624 0.23626 0.0
C4295 C 0.65805 0.70871 0.33743 0.0
C4296 C 0.66285 0.7585 0.10101 0.0
C4297 C 0.666 0.75162 0.13255 0.0
C4298 C 0.64452 0.74472 0.21571 0.0
C4299 C 0.66734 0.72624 0.29236 0.0
C4300 C 0.6644 0.73367 0.25841 0.0
C4301 C 0.65576 0.75491 0.1597 0.0
C4302 C 0.65877 0.74742 0.19361 0.0
H4303 H 0.69898 0.72209 0.35271 0.0
H4304 H 0.69309 0.73591 0.30014 0.0
H4305 H 0.63591 0.73637 0.26352 0.0
H4306 H 0.62878 0.78023 0.1195 0.0
H4307 H 0.63452 0.76871 0.17407 0.0
C4308 C 0.50237 0.43277 0.34621 0.0
C4309 C 0.50319 0.42111 0.37024 0.0
C4310 C 0.49912 0.43051 0.31349 0.0
C4311 C 0.4779 0.40328 0.2658 0.0
H4312 H 0.4899 0.43095 0.19296 0.0
C4313 C 0.44472 0.40405 0.13661 0.0
C4314 C 0.43695 0.41749 0.12765 0.0
C4315 C 0.45706 0.40238 0.16255 0.0
C4316 C 0.48665 0.42301 0.213 0.0
H4317 H 0.50249 0.39799 0.37908 0.0
H4318 H 0.49761 0.3939 0.3219 0.0
H4319 H 0.50496 0.43202 0.2454 0.0
H4320 H 0.43407 0.43903 0.14176 0.0
H4321 H 0.45558 0.43636 0.18582 0.0
H4322 H 0.4593 0.39453 0.23335 0.0
C4323 C 0.49885 0.40484 0.32813 0.0
C4324 C 0.49513 0.4237 0.24318 0.0
C4325 C 0.50182 0.40714 0.36086 0.0
C4326 C 0.44081 0.42885 0.14643 0.0
C4327 C 0.45308 0.42729 0.17188 0.0
C4328 C 0.46961 0.40248 0.23549 0.0
C4329 C 0.49677 0.4165 0.3041 0.0
C4330 C 0.49035 0.41421 0.27044 0.0
C4331 C 0.46151 0.41411 0.18011 0.0
C4332 C 0.47338 0.41268 0.20917 0.0
H4333 H 0.50327 0.44365 0.353 0.0
H4334 H 0.49745 0.43981 0.296 0.0
H4335 H 0.47362 0.39585 0.28607 0.0
H4336 H 0.44092 0.39483 0.12432 0.0
H4337 H 0.46294 0.39194 0.16914 0.0
C4338 C 0.80228 0.28697 0.8236 0.0
C4339 C 0.81344 0.29737 0.83527 0.0
C4340 C 0.8074 0.27956 0.79696 0.0
C4341 C 0.84164 0.28122 0.72851 0.0
H4342 H 0.81781 0.24628 0.70967 0.0
C4343 C 0.85409 0.25764 0.60531 0.0
C4344 C 0.85202 0.24286 0.60311 0.0
C4345 C 0.84904 0.26386 0.63361 0.0
C4346 C 0.82494 0.2559 0.71453 0.0
H4347 H 0.83857 0.30838 0.82786 0.0
H4348 H 0.84853 0.2945 0.78429 0.0
H4349 H 0.81137 0.25657 0.7599 0.0
H4350 H 0.84307 0.22296 0.62893 0.0
H4351 H 0.83525 0.23348 0.67901 0.0
H4352 H 0.85629 0.27989 0.68457 0.0
C4353 C 0.83542 0.29227 0.7943 0.0
C4354 C 0.8209 0.26209 0.74349 0.0
C4355 C 0.82996 0.30006 0.8201 0.0
C4356 C 0.84472 0.23441 0.62987 0.0
C4357 C 0.8401 0.24055 0.65862 0.0
C4358 C 0.84609 0.27479 0.70015 0.0
C4359 C 0.82402 0.28217 0.78135 0.0
C4360 C 0.829 0.275 0.75101 0.0
C4361 C 0.84224 0.25542 0.66117 0.0
C4362 C 0.83768 0.26209 0.69226 0.0
H4363 H 0.78912 0.28513 0.83393 0.0
H4364 H 0.79781 0.27228 0.78792 0.0
H4365 H 0.84809 0.29126 0.73219 0.0
H4366 H 0.85949 0.26445 0.58489 0.0
H4367 H 0.85043 0.27536 0.63352 0.0
C4368 C 0.05606 0.56319 0.56247 0.0
C4369 C 0.05261 0.55103 0.58424 0.0
C4370 C 0.04615 0.56599 0.53362 0.0
C4371 C 0.01728 0.54745 0.47572 0.0
H4372 H 0.01075 0.5863 0.43586 0.0
C4373 C 0.97643 0.56245 0.3549 0.0
C4374 C 0.98388 0.57307 0.33227 0.0
C4375 C 0.98413 0.55915 0.386 0.0
C4376 C 0.01256 0.57536 0.4465 0.0
H4377 H 0.03637 0.53194 0.59216 0.0
H4378 H 0.01839 0.53708 0.54263 0.0
H4379 H 0.02399 0.58231 0.49 0.0
H4380 H 0.00619 0.58779 0.32466 0.0
H4381 H 0.01913 0.58234 0.37863 0.0
H4382 H 0.00543 0.54062 0.43208 0.0
C4383 C 0.02882 0.54454 0.54766 0.0
C4384 C 0.02025 0.57303 0.47771 0.0
C4385 C 0.03887 0.54171 0.57651 0.0
C4386 C -0.00039 0.57988 0.34148 0.0
C4387 C 0.00714 0.57672 0.37256 0.0
C4388 C 0.00934 0.5498 0.44461 0.0
C4389 C 0.03253 0.55659 0.52529 0.0
C4390 C 0.02303 0.55903 0.49278 0.0
C4391 C -0.0006 0.56647 0.39552 0.0
C4392 C 0.0071 0.56379 0.42934 0.0
H4393 H 0.06705 0.57023 0.56706 0.0
H4394 H 0.04986 0.57519 0.51707 0.0
H4395 H 0.01935 0.53648 0.48592 0.0
H4396 H 0.96429 0.55699 0.34907 0.0
H4397 H 0.97777 0.55119 0.40301 0.0
C4398 C 0.18588 0.27733 0.33836 0.0
C4399 C 0.18009 0.29088 0.3462 0.0
C4400 C 0.18022 0.27174 0.30961 0.0
C4401 C 0.17642 0.27564 0.22946 0.0
H4402 H 0.13255 0.25457 0.22064 0.0
C4403 C 0.15556 0.25428 0.1056 0.0
C4404 C 0.1456 0.24153 0.10675 0.0
C4405 C 0.15941 0.26073 0.13441 0.0
C4406 C 0.14497 0.26029 0.22256 0.0
H4407 H 0.1639 0.30927 0.32951 0.0
H4408 H 0.15394 0.29943 0.27893 0.0
H4409 H 0.13906 0.26501 0.27169 0.0
H4410 H 0.1322 0.22539 0.13892 0.0
H4411 H 0.13953 0.2361 0.18913 0.0
H4412 H 0.18274 0.27071 0.18093 0.0
C4413 C 0.1626 0.29305 0.29566 0.0
C4414 C 0.14855 0.26643 0.25182 0.0
C4415 C 0.16814 0.29861 0.32475 0.0
C4416 C 0.13992 0.23521 0.13733 0.0
C4417 C 0.14396 0.24151 0.16613 0.0
C4418 C 0.17287 0.26951 0.20016 0.0
C4419 C 0.16885 0.27965 0.28757 0.0
C4420 C 0.16435 0.27409 0.25567 0.0
C4421 C 0.15353 0.25453 0.16524 0.0
C4422 C 0.15715 0.26157 0.19624 0.0
H4423 H 0.1953 0.27122 0.35412 0.0
H4424 H 0.18517 0.26137 0.30407 0.0
H4425 H 0.18877 0.28144 0.23184 0.0
H4426 H 0.15989 0.2595 0.08229 0.0
H4427 H 0.16658 0.27081 0.13228 0.0
C4428 C 0.4903 0.40432 0.85459 0.0
C4429 C 0.48667 0.41675 0.87009 0.0
C4430 C 0.49421 0.40525 0.82118 0.0
C4431 C 0.51752 0.42945 0.76352 0.0
H4432 H 0.50351 0.40448 0.69781 0.0
C4433 C 0.55144 0.43504 0.63912 0.0
C4434 C 0.55534 0.42276 0.62362 0.0
C4435 C 0.54007 0.43445 0.66587 0.0
C4436 C 0.50769 0.41142 0.71602 0.0
H4437 H 0.48317 0.43978 0.86258 0.0
H4438 H 0.49049 0.44148 0.80412 0.0
H4439 H 0.48741 0.40345 0.75001 0.0
H4440 H 0.55134 0.39984 0.62517 0.0
H4441 H 0.53155 0.39852 0.67316 0.0
H4442 H 0.53839 0.43684 0.73126 0.0
C4443 C 0.49013 0.431 0.81782 0.0
C4444 C 0.49837 0.41092 0.74574 0.0
C4445 C 0.4859 0.43004 0.85117 0.0
C4446 C 0.54807 0.40956 0.63616 0.0
C4447 C 0.53671 0.40887 0.66353 0.0
C4448 C 0.52698 0.42977 0.7343 0.0
C4449 C 0.49491 0.41866 0.80275 0.0
C4450 C 0.50324 0.41995 0.76979 0.0
C4451 C 0.53277 0.42134 0.67903 0.0
C4452 C 0.52225 0.4208 0.71001 0.0
H4453 H 0.49091 0.39395 0.8687 0.0
H4454 H 0.49793 0.39558 0.81033 0.0
H4455 H 0.5219 0.43626 0.78186 0.0
H4456 H 0.55759 0.44518 0.63083 0.0
H4457 H 0.53725 0.44435 0.67651 0.0
C4458 C 0.35799 0.75521 0.61034 0.0
C4459 C 0.34699 0.76643 0.59661 0.0
C4460 C 0.35493 0.74858 0.64191 0.0
C4461 C 0.32118 0.74253 0.70818 0.0
H4462 H 0.36269 0.73552 0.76355 0.0
C4463 C 0.31463 0.72057 0.8455 0.0
C4464 C 0.32719 0.71027 0.85766 0.0
C4465 C 0.31703 0.72836 0.81477 0.0
C4466 C 0.35091 0.73722 0.74846 0.0
H4467 H 0.32347 0.77888 0.60578 0.0
H4468 H 0.31792 0.76706 0.66051 0.0
H4469 H 0.36624 0.74638 0.70772 0.0
H4470 H 0.35177 0.69977 0.84669 0.0
H4471 H 0.3562 0.71339 0.79371 0.0
H4472 H 0.30587 0.73315 0.74883 0.0
C4473 C 0.32907 0.76351 0.64673 0.0
C4474 C 0.35297 0.74349 0.71625 0.0
C4475 C 0.33225 0.77028 0.61514 0.0
C4476 C 0.34223 0.70804 0.83854 0.0
C4477 C 0.34469 0.71584 0.80799 0.0
C4478 C 0.31912 0.73617 0.74043 0.0
C4479 C 0.34061 0.75276 0.66089 0.0
C4480 C 0.33816 0.74619 0.69549 0.0
C4481 C 0.33196 0.72594 0.79519 0.0
C4482 C 0.33398 0.73334 0.76112 0.0
H4483 H 0.36914 0.75152 0.59676 0.0
H4484 H 0.36386 0.74011 0.65147 0.0
H4485 H 0.30946 0.74429 0.69294 0.0
H4486 H 0.30254 0.72211 0.85908 0.0
H4487 H 0.30696 0.73608 0.8061 0.0
C4488 C 0.05088 0.43429 0.15937 0.0
C4489 C 0.04537 0.4467 0.14005 0.0
C4490 C 0.04304 0.43051 0.19011 0.0
C4491 C 0.01623 0.4471 0.2543 0.0
H4492 H 0.01297 0.40789 0.2935 0.0
C4493 C 0.97732 0.43064 0.37511 0.0
C4494 C 0.9852 0.42026 0.39776 0.0
C4495 C 0.98483 0.43406 0.344 0.0
C4496 C 0.01389 0.41893 0.28301 0.0
H4497 H 0.02695 0.46449 0.13715 0.0
H4498 H 0.01259 0.45754 0.18925 0.0
H4499 H 0.02478 0.41271 0.23831 0.0
H4500 H 0.00799 0.40602 0.40532 0.0
H4501 H 0.02063 0.4117 0.35118 0.0
H4502 H 0.00496 0.45323 0.2989 0.0
C4503 C 0.02334 0.45093 0.18168 0.0
C4504 C 0.02075 0.42172 0.25124 0.0
C4505 C 0.03136 0.45481 0.1514 0.0
C4506 C 0.00112 0.41375 0.38849 0.0
C4507 C 0.00847 0.41703 0.35732 0.0
C4508 C 0.00916 0.44428 0.28586 0.0
C4509 C 0.02941 0.43899 0.20217 0.0
C4510 C 0.02201 0.43587 0.23622 0.0
C4511 C 0.00034 0.42711 0.33446 0.0
C4512 C 0.0079 0.43016 0.30072 0.0
H4513 H 0.0619 0.42798 0.15163 0.0
H4514 H 0.04829 0.4213 0.20498 0.0
H4515 H 0.01737 0.45819 0.24434 0.0
H4516 H 0.96501 0.43583 0.38094 0.0
H4517 H 0.97815 0.44185 0.32701 0.0
C4518 C 0.33057 0.28362 0.88695 0.0
C4519 C 0.31807 0.27688 0.86788 0.0
C4520 C 0.33496 0.27764 0.91884 0.0
C4521 C 0.33503 0.24362 0.97347 0.0
H4522 H 0.33163 0.26745 0.04531 0.0
C4523 C 0.3371 0.21856 0.10903 0.0
C4524 C 0.34639 0.226 0.13192 0.0
C4525 C 0.33378 0.22499 0.07714 0.0
C4526 C 0.3329 0.26062 0.02561 0.0
H4527 H 0.30055 0.25855 0.8675 0.0
H4528 H 0.30894 0.24774 0.92192 0.0
H4529 H 0.32715 0.27808 0.9891 0.0
H4530 H 0.35886 0.2463 0.13929 0.0
H4531 H 0.35292 0.25755 0.08426 0.0
H4532 H 0.34101 0.2262 1.00959 0.0
C4533 C 0.31526 0.25769 0.91253 0.0
C4534 C 0.33032 0.26676 0.99324 0.0
C4535 C 0.31049 0.26387 0.88121 0.0
C4536 C 0.35172 0.24022 0.1223 0.0
C4537 C 0.34821 0.24671 0.09063 0.0
C4538 C 0.33778 0.2375 1.00573 0.0
C4539 C 0.32728 0.2646 0.93218 0.0
C4540 C 0.3312 0.25833 0.96665 0.0
C4541 C 0.33944 0.23915 0.0672 0.0
C4542 C 0.33661 0.24584 0.03251 0.0
H4543 H 0.33629 0.29384 0.87787 0.0
H4544 H 0.34426 0.28329 0.93319 0.0
H4545 H 0.33603 0.2368 0.95369 0.0
H4546 H 0.33291 0.20758 0.11544 0.0
H4547 H 0.32676 0.2188 0.06023 0.0
C4548 C 0.54921 0.58975 0.09489 0.0
C4549 C 0.55746 0.57643 0.10312 0.0
C4550 C 0.53692 0.59143 0.06886 0.0
C4551 C 0.50779 0.57083 0.01833 0.0
H4552 H 0.5206 0.5975 0.94422 0.0
C4553 C 0.49237 0.55989 0.88594 0.0
C4554 C 0.49119 0.57136 0.86152 0.0
C4555 C 0.49554 0.56246 0.91848 0.0
C4556 C 0.51639 0.59022 0.9648 0.0
H4557 H 0.56161 0.55538 0.08697 0.0
H4558 H 0.5402 0.55805 0.04278 0.0
H4559 H 0.53507 0.59922 0.99675 0.0
H4560 H 0.49136 0.59446 0.85172 0.0
H4561 H 0.49623 0.59907 0.90863 0.0
H4562 H 0.48947 0.56152 0.98645 0.0
C4563 C 0.54218 0.56692 0.05756 0.0
C4564 C 0.52474 0.59125 0.99497 0.0
C4565 C 0.55436 0.56534 0.08314 0.0
C4566 C 0.4922 0.58545 0.87029 0.0
C4567 C 0.49518 0.58805 0.90284 0.0
C4568 C 0.49926 0.56991 0.9883 0.0
C4569 C 0.53308 0.57987 0.05041 0.0
C4570 C 0.52103 0.58122 0.02163 0.0
C4571 C 0.49755 0.57659 0.92726 0.0
C4572 C 0.50397 0.57921 0.9607 0.0
H4573 H 0.55261 0.59888 0.1078 0.0
H4574 H 0.53059 0.60175 0.06294 0.0
H4575 H 0.50466 0.56298 0.03863 0.0
H4576 H 0.49182 0.54892 0.87957 0.0
H4577 H 0.49747 0.5533 0.93629 0.0
C4578 C 0.15099 0.73888 0.62616 0.0
C4579 C 0.14413 0.75288 0.62376 0.0
C4580 C 0.15559 0.73235 0.59793 0.0
C4581 C 0.14836 0.73557 0.50695 0.0
H4582 H 0.18757 0.7086 0.50853 0.0
C4583 C 0.19028 0.70903 0.40236 0.0
C4584 C 0.18153 0.69625 0.39635 0.0
C4585 C 0.18503 0.71675 0.42846 0.0
C4586 C 0.1766 0.71613 0.50778 0.0
H4587 H 0.13694 0.77115 0.59021 0.0
H4588 H 0.14555 0.76009 0.54098 0.0
H4589 H 0.18052 0.72035 0.55761 0.0
H4590 H 0.16094 0.68127 0.41373 0.0
H4591 H 0.15149 0.69495 0.4589 0.0
H4592 H 0.14469 0.73127 0.4568 0.0
C4593 C 0.14698 0.75389 0.56444 0.0
C4594 C 0.17242 0.72281 0.53601 0.0
C4595 C 0.14219 0.76033 0.59267 0.0
C4596 C 0.16743 0.69138 0.41698 0.0
C4597 C 0.16212 0.69913 0.44295 0.0
C4598 C 0.15255 0.72886 0.47875 0.0
C4599 C 0.1536 0.73972 0.56651 0.0
C4600 C 0.15821 0.73265 0.53614 0.0
C4601 C 0.17108 0.71176 0.44928 0.0
C4602 C 0.16671 0.71908 0.47891 0.0
H4603 H 0.15241 0.73286 0.64987 0.0
H4604 H 0.16032 0.72138 0.6008 0.0
H4605 H 0.13716 0.74287 0.50595 0.0
H4606 H 0.20165 0.71272 0.38771 0.0
H4607 H 0.19224 0.72639 0.43301 0.0
C4608 C 0.44588 0.93315 0.15833 0.0
C4609 C 0.44977 0.94653 0.14132 0.0
C4610 C 0.45389 0.92907 0.1888 0.0
C4611 C 0.47565 0.94555 0.25815 0.0
H4612 H 0.48891 0.90642 0.28703 0.0
C4613 C 0.50009 0.92908 0.39123 0.0
C4614 C 0.51295 0.91818 0.39581 0.0
C4615 C 0.49204 0.93237 0.3605 0.0
C4616 C 0.48548 0.91746 0.27938 0.0
H4617 H 0.46549 0.96585 0.14234 0.0
H4618 H 0.47978 0.95867 0.19455 0.0
H4619 H 0.47657 0.91202 0.23249 0.0
H4620 H 0.52793 0.90255 0.37161 0.0
H4621 H 0.51463 0.90862 0.31797 0.0
H4622 H 0.48501 0.95111 0.30453 0.0
C4623 C 0.47033 0.95138 0.185 0.0
C4624 C 0.47813 0.92064 0.24808 0.0
C4625 C 0.46234 0.95543 0.15476 0.0
C4626 C 0.51791 0.9109 0.36889 0.0
C4627 C 0.51011 0.91432 0.33814 0.0
C4628 C 0.48306 0.9424 0.28938 0.0
C4629 C 0.46587 0.93833 0.20301 0.0
C4630 C 0.47327 0.93476 0.23681 0.0
C4631 C 0.49686 0.92498 0.33343 0.0
C4632 C 0.48827 0.92831 0.30045 0.0
H4633 H 0.436 0.92617 0.14898 0.0
H4634 H 0.45004 0.91896 0.20187 0.0
H4635 H 0.47174 0.95652 0.25079 0.0
H4636 H 0.49589 0.93478 0.41164 0.0
H4637 H 0.48177 0.9405 0.35823 0.0
C4638 C 0.33266 0.19343 0.41057 0.0
C4639 C 0.31732 0.19674 0.39189 0.0
C4640 C 0.33729 0.20139 0.43653 0.0
C4641 C 0.31686 0.22518 0.49432 0.0
H4642 H 0.36591 0.22975 0.5208 0.0
C4643 C 0.33841 0.25747 0.60321 0.0
C4644 C 0.35196 0.25137 0.62388 0.0
C4645 C 0.33372 0.25139 0.5744 0.0
C4646 C 0.35212 0.22847 0.51391 0.0
H4647 H 0.2948 0.21112 0.38552 0.0
H4648 H 0.30315 0.22547 0.43003 0.0
H4649 H 0.35938 0.21918 0.47023 0.0
H4650 H 0.37045 0.2335 0.63069 0.0
H4651 H 0.36259 0.22323 0.58043 0.0
H4652 H 0.30972 0.23468 0.53805 0.0
C4653 C 0.3116 0.21657 0.425 0.0
C4654 C 0.34834 0.22236 0.48481 0.0
C4655 C 0.30695 0.20853 0.39906 0.0
C4656 C 0.36032 0.23881 0.61515 0.0
C4657 C 0.35577 0.23285 0.58626 0.0
C4658 C 0.32067 0.23143 0.52331 0.0
C4659 C 0.3266 0.21289 0.44475 0.0
C4660 C 0.33064 0.22043 0.47468 0.0
C4661 C 0.34256 0.23913 0.56525 0.0
C4662 C 0.33836 0.233 0.53373 0.0
H4663 H 0.34089 0.18441 0.40564 0.0
H4664 H 0.34885 0.19805 0.45106 0.0
H4665 H 0.30305 0.2237 0.48786 0.0
H4666 H 0.33174 0.2672 0.60872 0.0
H4667 H 0.32353 0.25655 0.55876 0.0
C4668 C 0.94208 0.06405 0.08723 0.0
C4669 C 0.93893 0.07681 0.10152 0.0
C4670 C 0.95377 0.06359 0.06134 0.0
C4671 C 0.98912 0.08354 1.01337 0.0
H4672 H 0.97405 0.05877 0.94794 0.0
C4673 C 0.00777 0.08874 0.87685 0.0
C4674 C 0.00982 0.07614 0.86129 0.0
C4675 C 0.0044 0.08801 0.91033 0.0
C4676 C 0.97869 0.06548 0.9663 0.0
H4677 H 0.94356 0.09966 0.09649 0.0
H4678 H 0.96439 0.0991 0.0503 0.0
H4679 H 0.95624 0.06014 0.99646 0.0
H4680 H 0.01142 0.05297 0.86845 0.0
H4681 H 0.005 0.05162 0.92725 0.0
H4682 H 0.01105 0.08952 0.98134 0.0
C4683 C 0.95854 0.08915 0.06092 0.0
C4684 C 0.96844 0.06632 0.9942 0.0
C4685 C 0.94674 0.08952 0.08741 0.0
C4686 C 0.00983 0.06281 0.88005 0.0
C4687 C 0.00618 0.06206 0.91355 0.0
C4688 C -0.00072 0.08287 0.98495 0.0
C4689 C 0.96213 0.0761 0.04758 0.0
C4690 C 0.97344 0.07539 0.01809 0.0
C4691 C 0.00271 0.07465 0.92866 0.0
C4692 C 0.99404 0.07389 0.96108 0.0
H4693 H 0.93519 0.05433 0.09554 0.0
H4694 H 0.95608 0.05333 0.05192 0.0
H4695 H 0.99347 0.09047 0.03149 0.0
H4696 H 0.00782 0.09912 0.86273 0.0
H4697 H 0.00166 0.09786 0.92128 0.0
C4698 C 0.18686 0.77475 0.89027 0.0
C4699 C 0.17329 0.78324 0.87483 0.0
C4700 C 0.18415 0.76717 0.92116 0.0
C4701 C 0.15198 0.76512 0.99316 0.0
H4702 H 0.18236 0.73346 0.02507 0.0
C4703 C 0.14643 0.74076 0.12821 0.0
C4704 C 0.15094 0.72631 0.13675 0.0
C4705 C 0.14993 0.74745 0.09679 0.0
C4706 C 0.17347 0.74213 0.01671 0.0
H4707 H 0.14624 0.79039 0.88004 0.0
H4708 H 0.14077 0.77626 0.93173 0.0
H4709 H 0.18571 0.7442 0.96955 0.0
H4710 H 0.16281 0.70759 0.11868 0.0
H4711 H 0.16817 0.71887 0.06354 0.0
H4712 H 0.13891 0.76244 0.03939 0.0
C4713 C 0.15389 0.77575 0.92115 0.0
C4714 C 0.17565 0.74859 0.98453 0.0
C4715 C 0.15684 0.7837 0.89081 0.0
C4716 C 0.15931 0.71877 0.11303 0.0
C4717 C 0.16244 0.72536 0.08124 0.0
C4718 C 0.14952 0.75845 0.02497 0.0
C4719 C 0.16765 0.76765 0.93761 0.0
C4720 C 0.16501 0.76031 0.97199 0.0
C4721 C 0.15765 0.73984 0.07227 0.0
C4722 C 0.1603 0.74688 0.03768 0.0
H4723 H 0.19994 0.7746 0.87924 0.0
H4724 H 0.19539 0.76146 0.93255 0.0
H4725 H 0.14363 0.77424 0.98558 0.0
H4726 H 0.14012 0.74694 0.14597 0.0
H4727 H 0.1465 0.75867 0.09198 0.0
C4728 C 0.51756 0.06271 0.35692 0.0
C4729 C 0.50983 0.07326 0.33446 0.0
C4730 C 0.51003 0.05929 0.38805 0.0
C4731 C 0.48172 0.07511 0.44882 0.0
H4732 H 0.47526 0.0361 0.48765 0.0
C4733 C 0.4384 0.06222 0.56423 0.0
C4734 C 0.44225 0.05016 0.58602 0.0
C4735 C 0.44822 0.06518 0.53541 0.0
C4736 C 0.47725 0.04709 0.47759 0.0
H4737 H 0.48731 0.08775 0.32708 0.0
H4738 H 0.47465 0.0821 0.38115 0.0
H4739 H 0.48901 0.04047 0.43378 0.0
H4740 H 0.45896 0.03135 0.59404 0.0
H4741 H 0.47675 0.03677 0.54447 0.0
H4742 H 0.47034 0.08186 0.49248 0.0
C4743 C 0.4867 0.07662 0.37492 0.0
C4744 C 0.48508 0.04958 0.44649 0.0
C4745 C 0.49405 0.0799 0.34381 0.0
C4746 C 0.4562 0.04107 0.57837 0.0
C4747 C 0.46614 0.04405 0.54954 0.0
C4748 C 0.47413 0.07266 0.47999 0.0
C4749 C 0.4947 0.06643 0.39769 0.0
C4750 C 0.48718 0.06363 0.43147 0.0
C4751 C 0.46208 0.05602 0.5272 0.0
C4752 C 0.47149 0.0586 0.4948 0.0
H4753 H 0.52975 0.05739 0.35094 0.0
H4754 H 0.51657 0.05139 0.40497 0.0
H4755 H 0.48343 0.08609 0.43831 0.0
H4756 H 0.42721 0.06905 0.5688 0.0
H4757 H 0.44427 0.0743 0.51879 0.0
C4758 C 0.15633 0.27611 0.6245 0.0
C4759 C 0.14732 0.26869 0.60127 0.0
C4760 C 0.16006 0.26939 0.65588 0.0
C4761 C 0.16259 0.2334 0.70509 0.0
H4762 H 0.15747 0.25614 0.77858 0.0
C4763 C 0.16425 0.20946 0.84295 0.0
C4764 C 0.17735 0.21579 0.86147 0.0
C4765 C 0.1596 0.21571 0.81148 0.0
C4766 C 0.15897 0.24964 0.75831 0.0
H4767 H 0.13578 0.24824 0.59241 0.0
H4768 H 0.14249 0.23644 0.64669 0.0
H4769 H 0.15228 0.26719 0.72309 0.0
H4770 H 0.19566 0.23363 0.8616 0.0
H4771 H 0.18675 0.24498 0.80792 0.0
H4772 H 0.16903 0.21578 0.74076 0.0
C4773 C 0.14665 0.24746 0.64098 0.0
C4774 C 0.15615 0.25601 0.72636 0.0
C4775 C 0.14272 0.25424 0.6098 0.0
C4776 C 0.18525 0.22868 0.84824 0.0
C4777 C 0.18021 0.23514 0.8174 0.0
C4778 C 0.16522 0.22699 0.73716 0.0
C4779 C 0.15506 0.255 0.66485 0.0
C4780 C 0.15806 0.24805 0.6991 0.0
C4781 C 0.16764 0.22859 0.79823 0.0
C4782 C 0.16358 0.23506 0.7642 0.0
H4783 H 0.15993 0.28727 0.61877 0.0
H4784 H 0.16679 0.27555 0.67322 0.0
H4785 H 0.16445 0.22689 0.68494 0.0
H4786 H 0.15829 0.19931 0.85203 0.0
H4787 H 0.14989 0.21038 0.79733 0.0
C4788 C 0.01322 0.90279 0.84915 0.0
C4789 C 0.01253 0.9154 0.86493 0.0
C4790 C 0.0068 0.90261 0.81732 0.0
C4791 C 0.99127 0.92539 0.74391 0.0
H4792 H 0.96035 0.8929 0.73329 0.0
C4793 C 0.95535 0.92136 0.62314 0.0
C4794 C 0.93742 0.91736 0.62378 0.0
C4795 C 0.96622 0.91903 0.6505 0.0
C4796 C 0.96887 0.90206 0.73586 0.0
H4797 H 0.00538 0.93788 0.85985 0.0
H4798 H 0.99422 0.93771 0.8038 0.0
H4799 H 0.97706 0.89387 0.78389 0.0
H4800 H 0.91673 0.90736 0.6548 0.0
H4801 H 0.93543 0.90387 0.70376 0.0
H4802 H 0.98249 0.93395 0.69661 0.0
C4803 C -0.00013 0.92795 0.81583 0.0
C4804 C 0.97866 0.90254 0.7647 0.0
C4805 C 0.0063 0.9281 0.84782 0.0
C4806 C 0.93064 0.91039 0.65301 0.0
C4807 C 0.94139 0.90839 0.68111 0.0
C4808 C 0.98144 0.92494 0.71512 0.0
C4809 C -0.00058 0.91505 0.80072 0.0
C4810 C 0.98991 0.91424 0.76915 0.0
C4811 C 0.9592 0.91318 0.68036 0.0
C4812 C 0.97006 0.91328 0.71073 0.0
H4813 H 0.01779 0.89285 0.86219 0.0
H4814 H 0.00696 0.89258 0.80618 0.0
H4815 H -0.00015 0.93453 0.74646 0.0
H4816 H 0.96085 0.92723 0.60218 0.0
H4817 H 0.97996 0.92254 0.64853 0.0
C4818 C 0.33196 0.79951 0.31897 0.0
C4819 C 0.31726 0.79537 0.33868 0.0
C4820 C 0.33679 0.79175 0.29283 0.0
C4821 C 0.31728 0.76675 0.23643 0.0
H4822 H 0.36599 0.76552 0.20594 0.0
C4823 C 0.33975 0.73575 0.12613 0.0
C4824 C 0.35239 0.7426 0.10461 0.0
C4825 C 0.33495 0.74164 0.1551 0.0
C4826 C 0.35228 0.76586 0.21394 0.0
H4827 H 0.29571 0.78008 0.34582 0.0
H4828 H 0.30459 0.76599 0.30127 0.0
H4829 H 0.35956 0.7756 0.25704 0.0
H4830 H 0.36905 0.76155 0.09632 0.0
H4831 H 0.36096 0.77158 0.14676 0.0
H4832 H 0.31016 0.75675 0.19327 0.0
C4833 C 0.31247 0.77528 0.30584 0.0
C4834 C 0.34855 0.77169 0.24337 0.0
C4835 C 0.30758 0.78314 0.33192 0.0
C4836 C 0.35966 0.75571 0.11255 0.0
C4837 C 0.35498 0.76151 0.14154 0.0
C4838 C 0.32106 0.76075 0.20712 0.0
C4839 C 0.32688 0.77969 0.28527 0.0
C4840 C 0.33096 0.77242 0.25498 0.0
C4841 C 0.34276 0.75448 0.16348 0.0
C4842 C 0.3386 0.76039 0.19525 0.0
H4843 H 0.33912 0.80929 0.32266 0.0
H4844 H 0.3477 0.79579 0.27742 0.0
H4845 H 0.30352 0.76729 0.24398 0.0
H4846 H 0.33394 0.7256 0.12117 0.0
H4847 H 0.32555 0.73589 0.17144 0.0
C4848 C 0.47686 0.08093 0.86177 0.0
C4849 C 0.48155 0.07339 0.83504 0.0
C4850 C 0.48486 0.07778 0.89251 0.0
C4851 C 0.51236 0.04998 0.94199 0.0
H4852 H 0.51833 0.08056 0.99847 0.0
C4853 C 0.53358 0.03735 0.07695 0.0
C4854 C 0.54558 0.04658 0.09088 0.0
C4855 C 0.52566 0.04118 0.04647 0.0
C4856 C 0.51693 0.07187 0.98303 0.0
H4857 H 0.49852 0.0566 0.81984 0.0
H4858 H 0.51292 0.05131 0.87311 0.0
H4859 H 0.50581 0.08587 0.94396 0.0
H4860 H 0.55839 0.06732 0.0835 0.0
H4861 H 0.5445 0.07419 0.03026 0.0
H4862 H 0.52402 0.03608 0.98066 0.0
C4863 C 0.50267 0.05947 0.87071 0.0
C4864 C 0.50946 0.07489 0.95169 0.0
C4865 C 0.49443 0.06249 0.83999 0.0
C4866 C 0.54897 0.06007 0.07386 0.0
C4867 C 0.54102 0.06395 0.04315 0.0
C4868 C 0.51988 0.04699 0.97325 0.0
C4869 C 0.49808 0.06711 0.89757 0.0
C4870 C 0.50683 0.06397 0.93068 0.0
C4871 C 0.52958 0.05439 0.02853 0.0
C4872 C 0.5221 0.05783 0.99455 0.0
H4873 H 0.46687 0.0893 0.85892 0.0
H4874 H 0.48049 0.0837 0.9124 0.0
H4875 H 0.51058 0.04119 0.92701 0.0
H4876 H 0.5308 0.02683 0.08923 0.0
H4877 H 0.51664 0.03362 0.03675 0.0
C4878 C 0.65784 0.73602 0.62346 0.0
C4879 C 0.64418 0.74198 0.6029 0.0
C4880 C 0.66253 0.74217 0.65219 0.0
C4881 C 0.64495 0.76636 0.71183 0.0
H4882 H 0.69426 0.76853 0.73868 0.0
C4883 C 0.66803 0.80083 0.81472 0.0
C4884 C 0.68246 0.79607 0.83462 0.0
C4885 C 0.66259 0.7932 0.78861 0.0
C4886 C 0.68037 0.76782 0.73195 0.0
H4887 H 0.62528 0.75955 0.59638 0.0
H4888 H 0.63333 0.77012 0.64622 0.0
H4889 H 0.68678 0.75766 0.68881 0.0
H4890 H 0.70295 0.77988 0.84207 0.0
H4891 H 0.69328 0.76629 0.79707 0.0
H4892 H 0.63852 0.77656 0.75487 0.0
C4893 C 0.64022 0.76051 0.64052 0.0
C4894 C 0.67607 0.76159 0.70315 0.0
C4895 C 0.63558 0.75441 0.61179 0.0
C4896 C 0.69136 0.78349 0.82787 0.0
C4897 C 0.68598 0.77587 0.80167 0.0
C4898 C 0.64924 0.77256 0.74066 0.0
C4899 C 0.65367 0.75443 0.66136 0.0
C4900 C 0.6583 0.76084 0.6925 0.0
C4901 C 0.67173 0.78077 0.78115 0.0
C4902 C 0.66703 0.77348 0.75114 0.0
H4903 H 0.66465 0.72637 0.61783 0.0
H4904 H 0.67283 0.73706 0.66765 0.0
H4905 H 0.63108 0.76577 0.70489 0.0
H4906 H 0.66138 0.8108 0.81858 0.0
H4907 H 0.65177 0.79752 0.77325 0.0
C4908 C 0.03904 0.92014 0.12111 0.0
C4909 C 0.05662 0.91508 0.1225 0.0
C4910 C 0.02776 0.91834 0.14801 0.0
C4911 C 0.02409 0.90168 0.23432 0.0
H4912 H 0.9943 0.93494 0.24302 0.0
C4913 C 0.98682 0.90767 0.35419 0.0
C4914 C 0.98879 0.92116 0.36596 0.0
C4915 C 0.99083 0.90583 0.32161 0.0
C4916 C 0.00253 0.92557 0.24105 0.0
H4917 H 0.07608 0.90389 0.15438 0.0
H4918 H 0.05686 0.90152 0.20243 0.0
H4919 H 0.01036 0.93299 0.19265 0.0
H4920 H 0.99561 0.94342 0.35321 0.0
H4921 H 0.00267 0.94033 0.29636 0.0
H4922 H 0.01703 0.89475 0.28368 0.0
C4923 C 0.0514 0.90636 0.17962 0.0
C4924 C 0.01165 0.92433 0.21186 0.0
C4925 C 0.06252 0.90778 0.15203 0.0
C4926 C 0.99378 0.93297 0.34438 0.0
C4927 C -0.0022 0.93115 0.31183 0.0
C4928 C 0.01506 0.90298 0.26366 0.0
C4929 C 0.03398 0.91202 0.17816 0.0
C4930 C 0.02289 0.91251 0.20824 0.0
C4931 C 0.99703 0.91745 0.30034 0.0
C4932 C 0.00449 0.91511 0.26767 0.0
H4933 H 0.03399 0.92618 0.09981 0.0
H4934 H 0.01435 0.92252 0.14532 0.0
H4935 H 0.03227 0.89229 0.23237 0.0
H4936 H 0.98316 0.89841 0.37065 0.0
H4937 H 0.98976 0.8952 0.31347 0.0
C4938 C 0.83446 0.27323 0.11854 0.0
C4939 C 0.84469 0.26651 0.09569 0.0
C4940 C 0.83145 0.26645 0.15025 0.0
C4941 C 0.83398 0.23036 0.19981 0.0
H4942 H 0.83332 0.2529 0.27421 0.0
C4943 C 0.83901 0.20429 0.33379 0.0
C4944 C 0.82589 0.20818 0.35569 0.0
C4945 C 0.84122 0.21199 0.30298 0.0
C4946 C 0.83335 0.24646 0.25367 0.0
H4947 H 0.85924 0.24712 0.08832 0.0
H4948 H 0.85408 0.2354 0.14289 0.0
H4949 H 0.83684 0.26489 0.21892 0.0
H4950 H 0.80421 0.22296 0.36138 0.0
H4951 H 0.80873 0.23698 0.30827 0.0
H4952 H 0.83099 0.21192 0.23472 0.0
C4953 C 0.84827 0.24589 0.13667 0.0
C4954 C 0.83528 0.25334 0.2218 0.0
C4955 C 0.85138 0.25269 0.10523 0.0
C4956 C 0.81502 0.22007 0.34585 0.0
C4957 C 0.81748 0.22801 0.31522 0.0
C4958 C 0.83229 0.2235 0.23162 0.0
C4959 C 0.8384 0.25267 0.16 0.0
C4960 C 0.83571 0.24542 0.19422 0.0
C4961 C 0.83039 0.22389 0.29304 0.0
C4962 C 0.83201 0.23141 0.25908 0.0
H4963 H 0.82921 0.28391 0.11222 0.0
H4964 H 0.82361 0.27205 0.1671 0.0
H4965 H 0.83379 0.22379 0.17951 0.0
H4966 H 0.84719 0.1949 0.34008 0.0
H4967 H 0.85127 0.20848 0.28664 0.0
C4968 C 0.53021 0.95522 0.65059 0.0
C4969 C 0.54405 0.94711 0.63865 0.0
C4970 C 0.52273 0.95151 0.68144 0.0
C4971 C 0.52054 0.92235 0.75096 0.0
H4972 H 0.50519 0.95381 0.79918 0.0
C4973 C 0.50044 0.91383 0.88799 0.0
C4974 C 0.4848 0.92065 0.89759 0.0
C4975 C 0.50788 0.91718 0.85691 0.0
C4976 C 0.50925 0.94487 0.786 0.0
H4977 H 0.56091 0.92856 0.65003 0.0
H4978 H 0.54813 0.9221 0.70425 0.0
H4979 H 0.51755 0.95883 0.74456 0.0
H4980 H 0.46523 0.93684 0.88142 0.0
H4981 H 0.4785 0.94293 0.82761 0.0
H4982 H 0.51256 0.90845 0.79298 0.0
C4983 C 0.54265 0.93123 0.68941 0.0
C4984 C 0.51631 0.94773 0.75441 0.0
C4985 C 0.55002 0.9349 0.65819 0.0
C4986 C 0.47731 0.93139 0.87534 0.0
C4987 C 0.48491 0.93486 0.84428 0.0
C4988 C 0.51364 0.91951 0.78272 0.0
C4989 C 0.52911 0.93967 0.70187 0.0
C4990 C 0.52194 0.93652 0.73612 0.0
C4991 C 0.50014 0.92762 0.83439 0.0
C4992 C 0.50778 0.93072 0.80066 0.0
H4993 H 0.52549 0.96477 0.63628 0.0
H4994 H 0.51207 0.95812 0.68939 0.0
H4995 H 0.52445 0.91336 0.73784 0.0
H4996 H 0.50702 0.90581 0.90452 0.0
H4997 H 0.51982 0.91159 0.85057 0.0
C4998 C 0.82693 0.78712 0.39501 0.0
C4999 C 0.8194 0.77824 0.37281 0.0
C5000 C 0.83117 0.78166 0.42723 0.0
C5001 C 0.84754 0.75406 0.48104 0.0
H5002 H 0.81108 0.7569 0.54678 0.0
C5003 C 0.8538 0.72168 0.60811 0.0
C5004 C 0.8461 0.72686 0.63583 0.0
C5005 C 0.85073 0.7285 0.57667 0.0
C5006 C 0.8216 0.75614 0.52909 0.0
H5007 H 0.80947 0.75685 0.36801 0.0
H5008 H 0.81812 0.74704 0.42337 0.0
H5009 H 0.80641 0.76807 0.49114 0.0
H5010 H 0.82923 0.74344 0.65217 0.0
H5011 H 0.82431 0.75574 0.59759 0.0
H5012 H 0.86303 0.74251 0.51851 0.0
C5013 C 0.8208 0.75823 0.41569 0.0
C5014 C 0.81882 0.76251 0.49702 0.0
C5015 C 0.81612 0.76379 0.38381 0.0
C5016 C 0.83514 0.73906 0.63125 0.0
C5017 C 0.83232 0.74609 0.59976 0.0
C5018 C 0.85044 0.74784 0.51314 0.0
C5019 C 0.82809 0.76715 0.43794 0.0
C5020 C 0.83165 0.76137 0.47255 0.0
C5021 C 0.84016 0.74099 0.57178 0.0
C5022 C 0.8374 0.7485 0.53775 0.0
H5023 H 0.82853 0.79849 0.38802 0.0
H5024 H 0.83644 0.78886 0.44401 0.0
H5025 H 0.8577 0.75307 0.46272 0.0
H5026 H 0.86227 0.71227 0.61078 0.0
H5027 H 0.85665 0.72382 0.55619 0.0
C5028 C 0.06397 0.08487 0.57422 0.0
C5029 C 0.05774 0.07757 0.60349 0.0
C5030 C 0.05285 0.08678 0.54664 0.0
C5031 C 0.01342 0.06929 0.51347 0.0
H5032 H 0.01643 0.10058 0.44494 0.0
C5033 C 0.99288 0.06483 0.37951 0.0
C5034 C 0.98579 0.07704 0.36171 0.0
C5035 C -0.00196 0.06539 0.41208 0.0
C5036 C 0.01519 0.09186 0.4641 0.0
H5037 H 0.03487 0.06697 0.62582 0.0
H5038 H 0.01516 0.07146 0.58028 0.0
H5039 H 0.03268 0.10213 0.49586 0.0
H5040 H 0.97765 0.09908 0.36368 0.0
H5041 H 0.98661 0.10012 0.42068 0.0
H5042 H 0.99598 0.05901 0.48163 0.0
C5043 C 0.02873 0.07532 0.57791 0.0
C5044 C 0.02472 0.09267 0.4931 0.0
C5045 C 0.03998 0.07306 0.60474 0.0
C5046 C 0.983 0.08954 0.37722 0.0
C5047 C 0.98827 0.09015 0.40965 0.0
C5048 C 0.00389 0.06849 0.48451 0.0
C5049 C 0.03522 0.08157 0.54799 0.0
C5050 C 0.02415 0.08132 0.51799 0.0
C5051 C 0.99642 0.07825 0.42707 0.0
C5052 C 0.00488 0.07967 0.45929 0.0
H5053 H 0.07774 0.08825 0.572 0.0
H5054 H 0.0584 0.09157 0.52387 0.0
H5055 H 0.01283 0.06021 0.53187 0.0
H5056 H 0.99523 0.05512 0.36775 0.0
H5057 H 0.00432 0.05605 0.4248 0.0
C5058 C 0.66472 0.19323 0.91324 0.0
C5059 C 0.68019 0.19662 0.89505 0.0
C5060 C 0.65988 0.20112 0.93918 0.0
C5061 C 0.67968 0.22347 0.99983 0.0
H5062 H 0.63035 0.23138 0.01905 0.0
C5063 C 0.65779 0.25636 0.10701 0.0
C5064 C 0.64269 0.25145 0.12514 0.0
C5065 C 0.66281 0.2501 0.07866 0.0
C5066 C 0.6442 0.22914 1.01426 0.0
H5067 H 0.70325 0.21052 0.8907 0.0
H5068 H 0.69478 0.2245 0.93583 0.0
H5069 H 0.63781 0.22055 0.96916 0.0
H5070 H 0.6216 0.23549 0.12777 0.0
H5071 H 0.63007 0.22493 0.07828 0.0
H5072 H 0.686 0.23206 0.04509 0.0
C5073 C 0.68615 0.21588 0.92974 0.0
C5074 C 0.64849 0.22292 0.98555 0.0
C5075 C 0.69087 0.20804 0.90352 0.0
C5076 C 0.63301 0.2399 0.11424 0.0
C5077 C 0.63791 0.23377 0.08576 0.0
C5078 C 0.67538 0.22974 0.02855 0.0
C5079 C 0.6707 0.21238 0.9483 0.0
C5080 C 0.66627 0.21987 0.97799 0.0
C5081 C 0.65278 0.23885 0.06736 0.0
C5082 C 0.65755 0.23254 0.03633 0.0
H5083 H 0.65663 0.18416 0.90804 0.0
H5084 H 0.64808 0.1979 0.95309 0.0
H5085 H 0.6935 0.22109 0.99523 0.0
H5086 H 0.66552 0.26532 0.11412 0.0
H5087 H 0.67427 0.25436 0.06505 0.0
C5088 C 0.09867 0.53836 0.77335 0.0
C5089 C 0.09496 0.53239 0.74383 0.0
C5090 C 0.0996 0.52966 0.8033 0.0
C5091 C 0.10712 0.49233 0.83985 0.0
H5092 H 0.07948 0.50332 0.91286 0.0
C5093 C 0.09928 0.45369 0.95983 0.0
C5094 C 0.09557 0.45942 0.98959 0.0
C5095 C 0.10002 0.46255 0.93007 0.0
C5096 C 0.08766 0.5001 0.89319 0.0
H5097 H 0.08906 0.51233 0.72412 0.0
H5098 H 0.09194 0.49723 0.77498 0.0
H5099 H 0.08006 0.51885 0.86191 0.0
H5100 H 0.08987 0.47934 1.01001 0.0
H5101 H 0.09264 0.49469 0.96002 0.0
H5102 H 0.11522 0.47383 0.87099 0.0
C5103 C 0.09409 0.50867 0.77505 0.0
C5104 C 0.08787 0.50908 0.86369 0.0
C5105 C 0.09267 0.5174 0.74543 0.0
C5106 C 0.09314 0.47436 0.9884 0.0
C5107 C 0.09432 0.48326 0.95897 0.0
C5108 C 0.10722 0.48348 0.86956 0.0
C5109 C 0.09727 0.51467 0.8046 0.0
C5110 C 0.09756 0.50532 0.83652 0.0
C5111 C 0.09738 0.47755 0.92895 0.0
C5112 C 0.09745 0.48713 0.89693 0.0
H5113 H 0.10022 0.54985 0.77355 0.0
H5114 H 0.10209 0.53469 0.82553 0.0
H5115 H 0.1148 0.48909 0.81952 0.0
H5116 H 0.10092 0.44222 0.95926 0.0
H5117 H 0.10211 0.45745 0.90786 0.0
C5118 C 0.70749 0.8329 1.01078 0.0
C5119 C 0.71287 0.82596 0.98349 0.0
C5120 C 0.71813 0.83246 0.03922 0.0
C5121 C 0.75708 0.81203 0.07982 0.0
H5122 H 0.75553 0.84189 0.13882 0.0
C5123 C 0.7951 0.80531 0.20303 0.0
C5124 C 0.8023 0.81738 0.21623 0.0
C5125 C 0.78368 0.80672 0.17592 0.0
C5126 C 0.75635 0.8335 0.12251 0.0
H5127 H 0.73383 0.81284 0.96609 0.0
H5128 H 0.75286 0.81323 1.01294 0.0
H5129 H 0.73745 0.84412 0.08934 0.0
H5130 H 0.80438 0.84048 0.20871 0.0
H5131 H 0.78446 0.84312 0.16124 0.0
H5132 H 0.77654 0.80173 0.11193 0.0
C5133 C 0.74018 0.81868 1.01336 0.0
C5134 C 0.74568 0.83467 0.09411 0.0
C5135 C 0.72936 0.81882 0.98552 0.0
C5136 C 0.79838 0.83098 0.20036 0.0
C5137 C 0.78695 0.83246 0.17293 0.0
C5138 C 0.76788 0.81096 0.10786 0.0
C5139 C 0.73465 0.82519 0.0412 0.0
C5140 C 0.74588 0.82398 0.07206 0.0
C5141 C 0.77941 0.82032 0.16011 0.0
C5142 C 0.76774 0.82164 0.12987 0.0
H5143 H 0.69472 0.83827 1.01062 0.0
H5144 H 0.71304 0.83746 0.05997 0.0
H5145 H 0.75752 0.8033 0.06438 0.0
H5146 H 0.79868 0.79462 0.21311 0.0
H5147 H 0.77826 0.79703 0.1674 0.0
C5148 C 0.38143 0.50128 0.48885 0.0
C5149 C 0.38882 0.5143 0.49695 0.0
C5150 C 0.38389 0.49659 0.45787 0.0
C5151 C 0.40985 0.5006 0.38069 0.0
H5152 H 0.36561 0.48777 0.34445 0.0
C5153 C 0.40111 0.48663 0.2444 0.0
C5154 C 0.38878 0.47577 0.23902 0.0
C5155 C 0.40338 0.49119 0.27588 0.0
C5156 C 0.37821 0.49106 0.35418 0.0
H5157 H 0.40571 0.53211 0.47906 0.0
H5158 H 0.4101 0.52382 0.42453 0.0
H5159 H 0.36588 0.49584 0.39869 0.0
H5160 H 0.37005 0.46061 0.26258 0.0
H5161 H 0.37442 0.46803 0.3172 0.0
H5162 H 0.42214 0.49567 0.33578 0.0
C5163 C 0.40229 0.5173 0.44241 0.0
C5164 C 0.37834 0.49577 0.38546 0.0
C5165 C 0.39979 0.52204 0.47369 0.0
C5166 C 0.37953 0.46907 0.26594 0.0
C5167 C 0.38193 0.47347 0.29725 0.0
C5168 C 0.40975 0.49576 0.34918 0.0
C5169 C 0.39385 0.50473 0.43377 0.0
C5170 C 0.39415 0.50041 0.39949 0.0
C5171 C 0.3934 0.48494 0.30266 0.0
C5172 C 0.39393 0.49069 0.33566 0.0
H5173 H 0.37327 0.49484 0.50632 0.0
H5174 H 0.37759 0.48666 0.45252 0.0
H5175 H 0.42228 0.50413 0.39065 0.0
H5176 H 0.40834 0.49204 0.22403 0.0
H5177 H 0.41233 0.50004 0.2789 0.0
C5178 C 0.80644 0.16963 0.54846 0.0
C5179 C 0.79981 0.1756 0.51813 0.0
C5180 C 0.79539 0.16778 0.57614 0.0
C5181 C 0.75215 0.1809 0.60812 0.0
H5182 H 0.75945 0.15019 0.67697 0.0
C5183 C 0.71496 0.18029 0.73157 0.0
C5184 C 0.70952 0.16712 0.7479 0.0
C5185 C 0.72614 0.18085 0.70424 0.0
C5186 C 0.75706 0.15877 0.65789 0.0
H5187 H 0.77601 0.18403 0.49362 0.0
H5188 H 0.75666 0.18018 0.54072 0.0
H5189 H 0.77792 0.15145 0.62802 0.0
H5190 H 0.71054 0.14414 0.74619 0.0
H5191 H 0.73022 0.14496 0.69849 0.0
H5192 H 0.731 0.18802 0.63742 0.0
C5193 C 0.77054 0.17724 0.54363 0.0
C5194 C 0.76787 0.15962 0.62983 0.0
C5195 C 0.78165 0.17923 0.51615 0.0
C5196 C 0.71507 0.15444 0.7352 0.0
C5197 C 0.72635 0.15496 0.70769 0.0
C5198 C 0.74131 0.18002 0.63605 0.0
C5199 C 0.77727 0.17177 0.57436 0.0
C5200 C 0.76561 0.1707 0.60439 0.0
C5201 C 0.73203 0.16821 0.69165 0.0
C5202 C 0.74358 0.16896 0.66152 0.0
H5203 H 0.8204 0.16685 0.55111 0.0
H5204 H 0.80127 0.16369 0.59923 0.0
H5205 H 0.75006 0.18977 0.58961 0.0
H5206 H 0.71015 0.19028 0.7393 0.0
H5207 H 0.73013 0.19129 0.69298 0.0
C5208 C 0.89565 0.45335 0.45902 0.0
C5209 C 0.89942 0.45902 0.48889 0.0
C5210 C 0.89492 0.46225 0.42926 0.0
C5211 C 0.9096 0.49878 0.39173 0.0
H5212 H 0.87908 0.4903 0.31995 0.0
C5213 C 0.91677 0.52937 0.2621 0.0
C5214 C 0.90137 0.5328 0.2434 0.0
C5215 C 0.91601 0.52039 0.2915 0.0
C5216 C 0.88762 0.49294 0.33976 0.0
H5217 H 0.90486 0.47897 0.50958 0.0
H5218 H 0.9029 0.49431 0.4591 0.0
H5219 H 0.87811 0.47501 0.37155 0.0
H5220 H 0.87286 0.52995 0.24242 0.0
H5221 H 0.87143 0.5139 0.29318 0.0
H5222 H 0.91892 0.51681 0.36019 0.0
C5223 C 0.90096 0.48289 0.45824 0.0
C5224 C 0.88722 0.48401 0.36946 0.0
C5225 C 0.90184 0.47399 0.48779 0.0
C5226 C 0.88505 0.52716 0.25543 0.0
C5227 C 0.88427 0.51798 0.28477 0.0
C5228 C 0.91003 0.50766 0.36207 0.0
C5229 C 0.89786 0.4772 0.42819 0.0
C5230 C 0.89818 0.48676 0.39613 0.0
C5231 C 0.89976 0.51446 0.30347 0.0
C5232 C 0.89906 0.50493 0.33545 0.0
H5233 H 0.89391 0.44189 0.45838 0.0
H5234 H 0.89266 0.45726 0.40692 0.0
H5235 H 0.91851 0.50129 0.41111 0.0
H5236 H 0.92954 0.53374 0.25406 0.0
H5237 H 0.92829 0.51797 0.30469 0.0
C5238 C 0.20296 0.18797 0.02922 0.0
C5239 C 0.19507 0.17603 0.01662 0.0
C5240 C 0.2147 0.18633 0.05578 0.0
C5241 C 0.24234 0.15934 0.10691 0.0
H5242 H 0.24149 0.18871 0.16717 0.0
C5243 C 0.29258 0.15964 0.21659 0.0
C5244 C 0.28702 0.16582 0.24483 0.0
C5245 C 0.28171 0.16023 0.18846 0.0
C5246 C 0.24185 0.18023 0.15105 0.0
H5247 H 0.19197 0.15301 0.02467 0.0
H5248 H 0.2127 0.14997 0.07099 0.0
H5249 H 0.22185 0.19067 0.12035 0.0
H5250 H 0.26544 0.17765 0.2642 0.0
H5251 H 0.24612 0.17746 0.21789 0.0
H5252 H 0.26191 0.14861 0.13853 0.0
C5253 C 0.21042 0.16067 0.05926 0.0
C5254 C 0.23069 0.18152 0.12355 0.0
C5255 C 0.19857 0.16237 0.03251 0.0
C5256 C 0.27012 0.17226 0.24407 0.0
C5257 C 0.2591 0.17254 0.21656 0.0
C5258 C 0.25344 0.15797 0.13471 0.0
C5259 C 0.21865 0.17266 0.07142 0.0
C5260 C 0.2307 0.17111 0.10093 0.0
C5261 C 0.2648 0.16687 0.18782 0.0
C5262 C 0.25331 0.16835 0.15746 0.0
H5263 H 0.19967 0.19872 0.01913 0.0
H5264 H 0.22063 0.19589 0.06407 0.0
H5265 H 0.24301 0.15118 0.08996 0.0
H5266 H 0.30566 0.15483 0.21577 0.0
H5267 H 0.28686 0.15587 0.16691 0.0
C5268 C 0.59527 0.48849 0.74116 0.0
C5269 C 0.60518 0.47614 0.73622 0.0
C5270 C 0.59295 0.49276 0.77284 0.0
C5271 C 0.61543 0.48836 0.8539 0.0
H5272 H 0.57384 0.50726 0.88548 0.0
C5273 C 0.61276 0.50148 0.98706 0.0
C5274 C 0.60672 0.51513 0.99359 0.0
C5275 C 0.61004 0.49641 0.95649 0.0
C5276 C 0.58561 0.50209 0.87695 0.0
H5277 H 0.61973 0.45826 0.76044 0.0
H5278 H 0.61528 0.46532 0.81551 0.0
H5279 H 0.57351 0.49876 0.83076 0.0
H5280 H 0.59204 0.53382 0.97335 0.0
H5281 H 0.58737 0.52501 0.9195 0.0
H5282 H 0.62767 0.49174 0.89946 0.0
C5283 C 0.6096 0.47198 0.79513 0.0
C5284 C 0.58542 0.4972 0.84552 0.0
C5285 C 0.612 0.4678 0.76358 0.0
C5286 C 0.59689 0.52326 0.96916 0.0
C5287 C 0.59422 0.51819 0.93827 0.0
C5288 C 0.61561 0.49319 0.88508 0.0
C5289 C 0.60056 0.48478 0.80025 0.0
C5290 C 0.60031 0.49013 0.83364 0.0
C5291 C 0.60127 0.50486 0.93119 0.0
C5292 C 0.60069 0.50001 0.89734 0.0
H5293 H 0.59006 0.4952 0.7204 0.0
H5294 H 0.58597 0.50268 0.77562 0.0
H5295 H 0.62738 0.48342 0.84549 0.0
H5296 H 0.62003 0.49478 1.0055 0.0
H5297 H 0.61518 0.48592 0.95249 0.0
C5298 C 0.19857 0.82948 0.69497 0.0
C5299 C 0.19663 0.81583 0.71203 0.0
C5300 C 0.20975 0.83154 0.66739 0.0
C5301 C 0.23028 0.81141 0.60258 0.0
H5302 H 0.26016 0.84509 0.58653 0.0
C5303 C 0.26935 0.8219 0.48104 0.0
C5304 C 0.28627 0.82838 0.48117 0.0
C5305 C 0.25817 0.82129 0.50847 0.0
C5306 C 0.25203 0.83554 0.59059 0.0
H5307 H 0.20386 0.79347 0.71161 0.0
H5308 H 0.22324 0.79695 0.66432 0.0
H5309 H 0.2418 0.84208 0.63568 0.0
H5310 H 0.30465 0.83909 0.51138 0.0
H5311 H 0.28552 0.83764 0.5596 0.0
H5312 H 0.24077 0.80459 0.55826 0.0
C5313 C 0.21655 0.80622 0.67242 0.0
C5314 C 0.24127 0.83391 0.61875 0.0
C5315 C 0.20564 0.80424 0.70011 0.0
C5316 C 0.29159 0.83428 0.50991 0.0
C5317 C 0.28052 0.83346 0.5377 0.0
C5318 C 0.24102 0.81303 0.57452 0.0
C5319 C 0.21883 0.81989 0.6555 0.0
C5320 C 0.23023 0.82181 0.62524 0.0
C5321 C 0.26366 0.82678 0.53763 0.0
C5322 C 0.2521 0.82514 0.56788 0.0
H5323 H 0.19133 0.83855 0.70264 0.0
H5324 H 0.21088 0.84221 0.65483 0.0
H5325 H 0.22187 0.802 0.60634 0.0
H5326 H 0.26481 0.81688 0.46007 0.0
H5327 H 0.24524 0.8163 0.50676 0.0
C5328 C 0.59823 0.95499 0.45811 0.0
C5329 C 0.59493 0.96052 0.4883 0.0
C5330 C 0.59906 0.96405 0.42864 0.0
C5331 C 0.60563 0.00222 0.39417 0.0
H5332 H 0.58057 0.99041 0.31883 0.0
C5333 C 0.59744 0.04107 0.27397 0.0
C5334 C 0.59504 0.0353 0.24377 0.0
C5335 C 0.59818 0.03215 0.3037 0.0
C5336 C 0.58801 0.9939 0.3392 0.0
H5337 H 0.59013 0.98035 0.50969 0.0
H5338 H 0.59237 0.99605 0.45951 0.0
H5339 H 0.58112 0.97468 0.36942 0.0
H5340 H 0.59176 0.01518 0.22268 0.0
H5341 H 0.59437 -0.00016 0.27275 0.0
H5342 H 0.61289 0.02128 0.36401 0.0
C5343 C 0.59426 0.98462 0.45851 0.0
C5344 C 0.58823 0.98478 0.36855 0.0
C5345 C 0.59307 0.97552 0.48775 0.0
C5346 C 0.59393 0.02025 0.24463 0.0
C5347 C 0.59504 0.01132 0.27408 0.0
C5348 C 0.60566 0.01126 0.36465 0.0
C5349 C 0.59694 0.97905 0.42827 0.0
C5350 C 0.59703 0.98876 0.3966 0.0
C5351 C 0.5968 0.01704 0.30447 0.0
C5352 C 0.59685 0.00732 0.33642 0.0
H5353 H 0.59956 0.94353 0.457 0.0
H5354 H 0.6013 0.95926 0.40603 0.0
H5355 H 0.61267 0.00569 0.41503 0.0
H5356 H 0.59807 0.05259 0.27484 0.0
H5357 H 0.59928 0.03724 0.32616 0.0
C5358 C 0.22293 0.32347 0.48512 0.0
C5359 C 0.20524 0.32835 0.48617 0.0
C5360 C 0.23423 0.32303 0.51241 0.0
C5361 C 0.23936 0.33519 0.59696 0.0
H5362 H 0.27389 0.30433 0.60584 0.0
C5363 C 0.29495 0.33107 0.69854 0.0
C5364 C 0.29968 0.31732 0.71266 0.0
C5365 C 0.28296 0.33284 0.67193 0.0
C5366 C 0.26426 0.31297 0.60415 0.0
H5367 H 0.18579 0.33664 0.51835 0.0
H5368 H 0.20524 0.33555 0.56637 0.0
H5369 H 0.25394 0.30656 0.55924 0.0
H5370 H 0.29686 0.29467 0.70709 0.0
H5371 H 0.27583 0.29757 0.66205 0.0
H5372 H 0.2495 0.34129 0.64263 0.0
C5373 C 0.21062 0.33237 0.54374 0.0
C5374 C 0.25287 0.31441 0.57684 0.0
C5375 C 0.19936 0.333 0.51601 0.0
C5376 C 0.29276 0.30542 0.6983 0.0
C5377 C 0.28093 0.30713 0.67174 0.0
C5378 C 0.25078 0.33373 0.62441 0.0
C5379 C 0.22824 0.32715 0.54259 0.0
C5380 C 0.24023 0.3256 0.5725 0.0
C5381 C 0.27576 0.32087 0.65793 0.0
C5382 C 0.26347 0.32259 0.62853 0.0
H5383 H 0.22819 0.31963 0.46346 0.0
H5384 H 0.24773 0.31929 0.5097 0.0
H5385 H 0.23001 0.34402 0.59476 0.0
H5386 H 0.30074 0.3405 0.70754 0.0
H5387 H 0.27977 0.34362 0.66171 0.0
C5388 C 0.884 0.00328 0.98926 0.0
C5389 C 0.88752 0.01768 0.99415 0.0
C5390 C 0.88685 -0.0019 0.95883 0.0
C5391 C 0.90775 0.00585 0.87619 0.0
H5392 H 0.8705 0.98031 0.85157 0.0
C5393 C 0.89853 0.98783 0.74344 0.0
C5394 C 0.89152 0.97402 0.74099 0.0
C5395 C 0.90043 0.99321 0.77419 0.0
C5396 C 0.88123 0.98723 0.85804 0.0
H5397 H 0.8977 0.03776 0.97094 0.0
H5398 H 0.90249 0.02877 0.91735 0.0
H5399 H 0.86957 0.9895 0.9046 0.0
H5400 H 0.88216 0.95474 0.76892 0.0
H5401 H 0.886 0.96377 0.82212 0.0
H5402 H 0.91924 0.00361 0.82896 0.0
C5403 C 0.89761 0.02142 0.9373 0.0
C5404 C 0.88069 0.99255 0.88871 0.0
C5405 C 0.89487 0.0266 0.96805 0.0
C5406 C 0.88746 0.96545 0.76997 0.0
C5407 C 0.8895 0.97073 0.80052 0.0
C5408 C 0.9083 0.00049 0.84524 0.0
C5409 C 0.89316 0.00717 0.93199 0.0
C5410 C 0.894 0.00183 0.89856 0.0
C5411 C 0.8954 0.98487 0.80317 0.0
C5412 C 0.89511 0.99095 0.83583 0.0
H5413 H 0.87865 0.99602 1.00895 0.0
H5414 H 0.88378 0.98696 0.95624 0.0
H5415 H 0.91829 0.01294 0.88278 0.0
H5416 H 0.90165 0.99473 0.72152 0.0
H5417 H 0.905 0.00414 0.77508 0.0
C5418 C 0.22834 0.67292 0.24658 0.0
C5419 C 0.21151 0.66633 0.24792 0.0
C5420 C 0.23912 0.67313 0.21881 0.0
C5421 C 0.24375 0.65826 0.13695 0.0
H5422 H 0.27536 0.69089 0.12085 0.0
C5423 C 0.2969 0.66259 0.03214 0.0
C5424 C 0.30043 0.67627 1.0164 0.0
C5425 C 0.28532 0.6609 0.05919 0.0
C5426 C 0.26649 0.68176 0.12456 0.0
H5427 H 0.19269 0.65506 0.21969 0.0
H5428 H 0.21098 0.65604 0.17038 0.0
H5429 H 0.25658 0.68897 0.16877 0.0
H5430 H 0.29549 0.69895 0.01816 0.0
H5431 H 0.27517 0.69612 0.06414 0.0
H5432 H 0.25326 0.65147 0.09163 0.0
C5433 C 0.21633 0.66052 0.19166 0.0
C5434 C 0.25584 0.68049 0.15269 0.0
C5435 C 0.20573 0.65998 0.22004 0.0
C5436 C 0.29244 0.68821 0.02871 0.0
C5437 C 0.28103 0.68658 0.0557 0.0
C5438 C 0.25432 0.65962 0.10854 0.0
C5439 C 0.23319 0.66727 0.1904 0.0
C5440 C 0.24435 0.66865 0.15966 0.0
C5441 C 0.27737 0.67291 0.0717 0.0
C5442 C 0.26591 0.67138 0.1019 0.0
H5443 H 0.23312 0.67845 0.26651 0.0
H5444 H 0.25207 0.67815 0.21969 0.0
H5445 H 0.23529 0.64892 0.1412 0.0
H5446 H 0.30334 0.65324 0.02396 0.0
H5447 H 0.28312 0.6502 0.07098 0.0
C5448 C 0.39568 0.95266 0.96127 0.0
C5449 C 0.39937 0.95841 0.99104 0.0
C5450 C 0.39503 0.9615 0.93148 0.0
C5451 C 0.40913 -0.00168 0.89427 0.0
H5452 H 0.37929 0.98914 0.82216 0.0
C5453 C 0.39884 0.03748 0.77562 0.0
C5454 C 0.40058 0.03144 0.74561 0.0
C5455 C 0.39821 0.02875 0.80553 0.0
C5456 C 0.38778 0.99184 0.84201 0.0
H5457 H 0.40474 0.97841 1.01154 0.0
H5458 H 0.40271 0.99366 0.96119 0.0
H5459 H 0.37866 0.97378 0.8736 0.0
H5460 H 0.40352 0.01126 0.72498 0.0
H5461 H 0.40106 0.99611 0.77595 0.0
H5462 H 0.41794 0.01657 0.86262 0.0
C5463 C 0.40087 0.98223 0.96035 0.0
C5464 C 0.3875 0.98295 0.87164 0.0
C5465 C 0.40173 0.97338 0.98986 0.0
C5466 C 0.40137 0.01638 0.74678 0.0
C5467 C 0.40021 0.00764 0.77643 0.0
C5468 C 0.40921 0.00732 0.86479 0.0
C5469 C 0.3979 0.97647 0.93038 0.0
C5470 C 0.39816 0.986 0.89842 0.0
C5471 C 0.39887 0.01366 0.80637 0.0
C5472 C 0.39853 0.00422 0.83817 0.0
H5473 H 0.394 0.94119 0.96074 0.0
H5474 H 0.39288 0.95646 0.90918 0.0
H5475 H 0.41795 0.00097 0.91365 0.0
H5476 H 0.39858 0.04903 0.77616 0.0
H5477 H 0.3972 0.03383 0.82806 0.0
C5478 C 0.77806 0.6546 0.74158 0.0
C5479 C 0.78689 0.66688 0.75058 0.0
C5480 C 0.7666 0.65539 0.71421 0.0
C5481 C 0.75963 0.67613 0.63428 0.0
H5482 H 0.71216 0.65989 0.63622 0.0
C5483 C 0.71288 0.68678 0.52263 0.0
C5484 C 0.69896 0.6773 0.51683 0.0
C5485 C 0.72337 0.6848 0.55087 0.0
C5486 C 0.7255 0.66427 0.63481 0.0
H5487 H 0.79174 0.68936 0.73571 0.0
H5488 H 0.77216 0.69074 0.68819 0.0
H5489 H 0.73043 0.65778 0.68573 0.0
H5490 H 0.68541 0.65803 0.53654 0.0
H5491 H 0.70443 0.65392 0.5851 0.0
H5492 H 0.75537 0.68213 0.58352 0.0
C5493 C 0.77349 0.68056 0.7029 0.0
C5494 C 0.73596 0.66312 0.66348 0.0
C5495 C 0.78459 0.67981 0.7305 0.0
C5496 C 0.69609 0.66551 0.54006 0.0
C5497 C 0.70693 0.66328 0.56822 0.0
C5498 C 0.74939 0.67701 0.60555 0.0
C5499 C 0.76429 0.66838 0.69427 0.0
C5500 C 0.75312 0.66917 0.66371 0.0
C5501 C 0.72069 0.67303 0.5744 0.0
C5502 C 0.73199 0.67128 0.60519 0.0
H5503 H 0.7803 0.64431 0.75509 0.0
H5504 H 0.76005 0.64571 0.70796 0.0
H5505 H 0.77287 0.68074 0.63328 0.0
H5506 H 0.71527 0.69623 0.50619 0.0
H5507 H 0.73322 0.69293 0.55453 0.0
C5508 C 0.11365 0.96614 0.26543 0.0
C5509 C 0.10588 0.97366 0.23782 0.0
C5510 C 0.11132 0.97075 0.29663 0.0
C5511 C 0.08537 0.99562 0.34538 0.0
H5512 H 0.12755 0.99247 0.39995 0.0
C5513 C 0.09366 0.02455 0.46533 0.0
C5514 C 0.10416 0.01771 0.49054 0.0
C5515 C 0.09174 0.01853 0.43537 0.0
C5516 C 0.11549 0.99326 0.38544 0.0
H5517 H 0.08934 0.9918 0.22124 0.0
H5518 H 0.08542 7e-05 0.27573 0.0
H5519 H 0.12803 0.98328 0.34686 0.0
H5520 H 0.12013 -0.00104 0.5048 0.0
H5521 H 0.11628 0.98819 0.45347 0.0
H5522 H 0.07297 0.00585 0.3842 0.0
C5523 C 0.09304 0.9904 0.27349 0.0
C5524 C 0.11577 0.98794 0.35472 0.0
C5525 C 0.09526 0.98568 0.2422 0.0
C5526 C 0.11195 0.00444 0.4858 0.0
C5527 C 0.1099 -0.00162 0.45613 0.0
C5528 C 0.08509 0.00098 0.3763 0.0
C5529 C 0.10139 0.98319 0.30114 0.0
C5530 C 0.10071 0.98893 0.33416 0.0
C5531 C 0.10026 0.00552 0.42998 0.0
C5532 C 0.10014 -0.0002 0.39693 0.0
H5533 H 0.12196 0.95687 0.26274 0.0
H5534 H 0.11762 0.96465 0.3172 0.0
H5535 H 0.07345 0.99655 0.33049 0.0
H5536 H 0.08771 0.03489 0.46819 0.0
H5537 H 0.08428 0.02444 0.41594 0.0
C5538 C 0.6952 0.3308 0.19486 0.0
C5539 C 0.69322 0.31738 0.21298 0.0
C5540 C 0.70667 0.33247 0.16762 0.0
C5541 C 0.72642 0.31165 0.10415 0.0
H5542 H 0.75938 0.34343 0.08886 0.0
C5543 C 0.77901 0.31273 1.00103 0.0
C5544 C 0.78415 0.32588 0.98423 0.0
C5545 C 0.76783 0.31222 0.02837 0.0
C5546 C 0.75007 0.33459 0.09232 0.0
H5547 H 0.70049 0.29496 0.21449 0.0
H5548 H 0.72031 0.29777 0.16761 0.0
H5549 H 0.74032 0.34169 0.13728 0.0
H5550 H 0.78232 0.34889 0.9846 0.0
H5551 H 0.76219 0.34815 0.03163 0.0
H5552 H 0.73576 0.3046 0.0592 0.0
C5553 C 0.71356 0.30717 0.17492 0.0
C5554 C 0.73915 0.33358 0.12029 0.0
C5555 C 0.70242 0.30559 0.20236 0.0
C5556 C 0.7782 0.33858 0.99628 0.0
C5557 C 0.76681 0.33811 0.02363 0.0
C5558 C 0.73717 0.31273 0.07609 0.0
C5559 C 0.71586 0.32062 0.15701 0.0
C5560 C 0.72726 0.32202 0.12678 0.0
C5561 C 0.76137 0.32489 0.04015 0.0
C5562 C 0.74934 0.32415 0.06973 0.0
H5563 H 0.68768 0.33995 0.20143 0.0
H5564 H 0.70785 0.34295 0.15418 0.0
H5565 H 0.71724 0.30272 0.1079 0.0
H5566 H 0.78407 0.30274 0.99363 0.0
H5567 H 0.76461 0.30181 0.04072 0.0
loop_
_geom_bond_atom_site_label_1
_geom_bond_atom_site_label_2
_geom_bond_distance
_geom_bond_site_symmetry_2
_ccdc_geom_bond_type
Gd0 N31 2.661 . S
Gd0 N37 2.601 . S
Gd0 O44 2.545 . S
Gd0 O45 2.606 . S
Gd0 O47 2.429 . S
Gd0 O48 2.545 . S
Gd0 O49 2.412 . S
Gd0 O51 2.362 . S
Gd0 O52 2.324 . S
Gd0 C59 2.828 . S
Gd1 N10 2.661 . S
Gd1 N14 2.601 . S
Gd1 O45 2.362 . S
Gd1 O46 2.324 . S
Gd1 O50 2.545 . S
Gd1 O51 2.606 . S
Gd1 O53 2.429 . S
Gd1 O54 2.545 . S
Gd1 O55 2.412 . S
Gd1 C68 2.828 . S
C2 C5 1.417 . S
C2 C7 1.431 . S
C2 C8 1.412 . S
C3 C6 1.437 . S
C3 C7 1.317 . S
C3 H22 0.929 . S
C4 C5 1.426 . S
C4 C6 1.413 . S
C4 N14 1.359 . S
C5 C2 1.417 . S
C5 C4 1.426 . S
C5 N10 1.350 . S
C6 C3 1.437 . S
C6 C4 1.413 . S
C6 C16 1.391 . S
C7 C2 1.431 . S
C7 C3 1.317 . S
C7 H18 0.930 . S
C8 C2 1.412 . S
C8 C9 1.355 . S
C8 H20 0.930 1_455 S
C9 C8 1.355 . S
C9 C11 1.402 . S
C9 H21 0.912 1_455 S
N10 Gd1 2.661 . S
N10 C5 1.350 . S
N10 C11 1.307 . S
C11 C9 1.402 . S
C11 N10 1.307 . S
C11 H12 0.930 . S
H12 C11 0.930 . S
C13 N14 1.334 . S
C13 C15 1.394 . S
C13 H17 0.930 . S
N14 Gd1 2.601 . S
N14 C4 1.359 . S
N14 C13 1.334 . S
C15 C13 1.394 . S
C15 C16 1.359 . S
C15 H27 0.930 . S
C16 C6 1.391 . S
C16 C15 1.359 . S
C16 H28 0.929 . S
H17 C13 0.930 . S
H18 C7 0.930 . S
H19 C36 0.930 . S
H20 C8 0.930 1_655 S
H21 C9 0.912 1_655 S
H22 C3 0.929 . S
H23 C41 0.930 . S
H24 C32 0.930 . S
H25 C33 0.930 . S
H26 C57 0.929 . S
H27 C15 0.930 . S
H28 C16 0.929 . S
H29 C58 0.930 . S
H30 C39 0.930 . S
N31 Gd0 2.661 . S
N31 C35 1.350 . S
N31 C36 1.307 . S
C32 H24 0.930 . S
C32 C33 1.355 . S
C32 C34 1.412 . S
C33 H25 0.930 . S
C33 C32 1.355 . S
C33 C36 1.402 . S
C34 C32 1.412 . S
C34 C35 1.417 . S
C34 C58 1.431 . S
C35 N31 1.350 . S
C35 C34 1.417 . S
C35 C38 1.426 . S
C36 H19 0.930 . S
C36 N31 1.307 . S
C36 C33 1.402 . S
N37 Gd0 2.601 . S
N37 C38 1.359 . S
N37 C41 1.334 . S
C38 C35 1.426 . S
C38 N37 1.359 . S
C38 C42 1.413 . S
C39 H30 0.930 . S
C39 C40 1.359 . S
C39 C41 1.394 . S
C40 C39 1.359 . S
C40 C42 1.391 . S
C40 H43 0.929 . S
C41 H23 0.930 . S
C41 N37 1.334 . S
C41 C39 1.394 . S
C42 C38 1.413 . S
C42 C40 1.391 . S
C42 C57 1.437 . S
H43 C40 0.929 . S
O44 Gd0 2.545 . S
O44 C59 1.258 . S
O45 Gd0 2.606 . S
O45 Gd1 2.362 . S
O45 C56 1.284 . S
O46 Gd1 2.324 . S
O46 C66 1.254 . S
O47 Gd0 2.429 . S
O47 C66 1.268 . S
O48 Gd0 2.545 . S
O48 C56 1.250 . S
O49 Gd0 2.412 . S
O49 C59 1.252 . S
O50 Gd1 2.545 . S
O50 C68 1.258 . S
O51 Gd0 2.362 . S
O51 Gd1 2.606 . S
O51 C67 1.284 . S
O52 Gd0 2.324 . S
O52 C75 1.254 . S
O53 Gd1 2.429 . S
O53 C75 1.268 . S
O54 Gd1 2.545 . S
O54 C67 1.250 . S
O55 Gd1 2.412 . S
O55 C68 1.252 . S
C56 O45 1.284 . S
C56 O48 1.250 . S
C57 H26 0.929 . S
C57 C42 1.437 . S
C57 C58 1.317 . S
C58 H29 0.930 . S
C58 C34 1.431 . S
C58 C57 1.317 . S
C59 Gd0 2.828 . S
C59 O44 1.258 . S
C59 O49 1.252 . S
C59 C60 1.497 . S
C60 C59 1.497 . S
C60 C61 1.395 . S
C60 C62 1.380 . S
C61 C60 1.395 . S
C61 C64 1.398 . S
C61 H76 0.930 . S
C62 C60 1.380 . S
C62 C63 1.391 . S
C62 H77 0.930 . S
C63 C62 1.391 . S
C63 C65 1.387 . S
C64 C61 1.398 . S
C64 C65 1.380 . S
C64 H78 0.930 . S
C65 C63 1.387 . S
C65 C64 1.380 . S
C65 H79 0.930 . S
C66 O46 1.254 . S
C66 O47 1.268 . S
C67 O51 1.284 . S
C67 O54 1.250 . S
C68 Gd1 2.828 . S
C68 O50 1.258 . S
C68 O55 1.252 . S
C68 C69 1.497 1_554 S
C69 C68 1.497 1_556 S
C69 C70 1.395 . S
C69 C71 1.380 . S
C70 C69 1.395 . S
C70 C73 1.398 . S
C70 H80 0.930 . S
C71 C69 1.380 . S
C71 C72 1.391 . S
C71 H81 0.930 . S
C72 C71 1.391 . S
C72 C74 1.387 . S
C73 C70 1.398 . S
C73 C74 1.380 . S
C73 H82 0.930 . S
C74 C72 1.387 . S
C74 C73 1.380 . S
C74 H83 0.930 . S
C75 O52 1.254 . S
C75 O53 1.268 . S
H76 C61 0.930 . S
H77 C62 0.930 . S
H78 C64 0.930 . S
H79 C65 0.930 . S
H80 C70 0.930 . S
H81 C71 0.930 . S
H82 C73 0.930 . S
H83 C74 0.930 . S
Gd84 N115 2.661 . S
Gd84 N121 2.601 . S
Gd84 O128 2.545 . S
Gd84 O129 2.606 . S
Gd84 O131 2.429 . S
Gd84 O132 2.545 . S
Gd84 O133 2.412 . S
Gd84 O135 2.362 . S
Gd84 O136 2.324 . S
Gd84 C143 2.828 . S
Gd85 N94 2.661 . S
Gd85 N98 2.601 . S
Gd85 O129 2.362 . S
Gd85 O130 2.324 . S
Gd85 O134 2.545 . S
Gd85 O135 2.606 . S
Gd85 O137 2.429 . S
Gd85 O138 2.545 . S
Gd85 O139 2.412 . S
Gd85 C152 2.828 . S
C86 C89 1.417 . S
C86 C91 1.431 . S
C86 C92 1.412 . S
C87 C90 1.437 . S
C87 C91 1.317 . S
C87 H106 0.929 . S
C88 C89 1.426 . S
C88 C90 1.413 . S
C88 N98 1.359 . S
C89 C86 1.417 . S
C89 C88 1.426 . S
C89 N94 1.350 . S
C90 C87 1.437 . S
C90 C88 1.413 . S
C90 C100 1.391 . S
C91 C86 1.431 . S
C91 C87 1.317 . S
C91 H102 0.930 . S
C92 C86 1.412 . S
C92 C93 1.355 . S
C92 H104 0.930 . S
C93 C92 1.355 . S
C93 C95 1.402 . S
C93 H105 0.930 . S
N94 Gd85 2.661 . S
N94 C89 1.350 . S
N94 C95 1.307 . S
C95 C93 1.402 . S
C95 N94 1.307 . S
C95 H96 0.930 . S
H96 C95 0.930 . S
C97 N98 1.334 . S
C97 C99 1.394 . S
C97 H101 0.930 . S
N98 Gd85 2.601 . S
N98 C88 1.359 . S
N98 C97 1.334 . S
C99 C97 1.394 . S
C99 C100 1.359 . S
C99 H111 0.930 . S
C100 C90 1.391 . S
C100 C99 1.359 . S
C100 H112 0.929 . S
H101 C97 0.930 . S
H102 C91 0.930 . S
H103 C120 0.930 . S
H104 C92 0.930 . S
H105 C93 0.930 . S
H106 C87 0.929 . S
H107 C125 0.930 . S
H108 C116 0.930 . S
H109 C117 0.930 . S
H110 C141 0.929 . S
H111 C99 0.930 . S
H112 C100 0.929 . S
H113 C142 0.930 . S
H114 C123 0.930 . S
N115 Gd84 2.661 . S
N115 C119 1.350 . S
N115 C120 1.307 . S
C116 H108 0.930 . S
C116 C117 1.355 . S
C116 C118 1.412 . S
C117 H109 0.930 . S
C117 C116 1.355 . S
C117 C120 1.402 . S
C118 C116 1.412 . S
C118 C119 1.417 . S
C118 C142 1.431 . S
C119 N115 1.350 . S
C119 C118 1.417 . S
C119 C122 1.426 . S
C120 H103 0.930 . S
C120 N115 1.307 . S
C120 C117 1.402 . S
N121 Gd84 2.601 . S
N121 C122 1.359 . S
N121 C125 1.334 . S
C122 C119 1.426 . S
C122 N121 1.359 . S
C122 C126 1.413 . S
C123 H114 0.930 . S
C123 C124 1.359 . S
C123 C125 1.394 . S
C124 C123 1.359 . S
C124 C126 1.391 . S
C124 H127 0.929 . S
C125 H107 0.930 . S
C125 N121 1.334 . S
C125 C123 1.394 . S
C126 C122 1.413 . S
C126 C124 1.391 . S
C126 C141 1.437 . S
H127 C124 0.929 . S
O128 Gd84 2.545 . S
O128 C143 1.258 . S
O129 Gd84 2.606 . S
O129 Gd85 2.362 . S
O129 C140 1.284 . S
O130 Gd85 2.324 . S
O130 C150 1.254 . S
O131 Gd84 2.429 . S
O131 C150 1.268 . S
O132 Gd84 2.545 . S
O132 C140 1.250 . S
O133 Gd84 2.412 . S
O133 C143 1.252 . S
O134 Gd85 2.545 . S
O134 C152 1.258 . S
O135 Gd84 2.362 . S
O135 Gd85 2.606 . S
O135 C151 1.284 . S
O136 Gd84 2.324 . S
O136 C159 1.254 . S
O137 Gd85 2.429 . S
O137 C159 1.268 . S
O138 Gd85 2.545 . S
O138 C151 1.250 . S
O139 Gd85 2.412 . S
O139 C152 1.252 . S
C140 O129 1.284 . S
C140 O132 1.250 . S
C141 H110 0.929 . S
C141 C126 1.437 . S
C141 C142 1.317 . S
C142 H113 0.930 . S
C142 C118 1.431 . S
C142 C141 1.317 . S
C143 Gd84 2.828 . S
C143 O128 1.258 . S
C143 O133 1.252 . S
C143 C144 1.497 . S
C144 C143 1.497 . S
C144 C145 1.395 . S
C144 C146 1.380 . S
C145 C144 1.395 . S
C145 C148 1.398 . S
C145 H160 0.930 . S
C146 C144 1.380 . S
C146 C147 1.391 . S
C146 H161 0.930 . S
C147 C146 1.391 . S
C147 C149 1.387 . S
C148 C145 1.398 . S
C148 C149 1.380 . S
C148 H162 0.930 . S
C149 C147 1.387 . S
C149 C148 1.380 . S
C149 H163 0.930 . S
C150 O130 1.254 . S
C150 O131 1.268 . S
C151 O135 1.284 . S
C151 O138 1.250 . S
C152 Gd85 2.828 . S
C152 O134 1.258 . S
C152 O139 1.252 . S
C152 C153 1.497 . S
C153 C152 1.497 . S
C153 C154 1.395 . S
C153 C155 1.380 . S
C154 C153 1.395 . S
C154 C157 1.398 . S
C154 H164 0.930 . S
C155 C153 1.380 . S
C155 C156 1.391 . S
C155 H165 0.930 . S
C156 C155 1.391 . S
C156 C158 1.387 . S
C157 C154 1.398 . S
C157 C158 1.380 . S
C157 H166 0.930 . S
C158 C156 1.387 . S
C158 C157 1.380 . S
C158 H167 0.930 . S
C159 O136 1.254 . S
C159 O137 1.268 . S
H160 C145 0.930 . S
H161 C146 0.930 . S
H162 C148 0.930 . S
H163 C149 0.930 . S
H164 C154 0.930 . S
H165 C155 0.930 . S
H166 C157 0.930 . S
H167 C158 0.930 . S
Gd168 N199 2.661 . S
Gd168 N205 2.601 . S
Gd168 O212 2.545 . S
Gd168 O213 2.606 . S
Gd168 O215 2.429 . S
Gd168 O216 2.545 . S
Gd168 O217 2.412 . S
Gd168 O219 2.362 . S
Gd168 O220 2.324 . S
Gd168 C227 2.828 . S
Gd169 N178 2.661 . S
Gd169 N182 2.601 . S
Gd169 O213 2.362 . S
Gd169 O214 2.324 . S
Gd169 O218 2.545 . S
Gd169 O219 2.606 . S
Gd169 O221 2.429 . S
Gd169 O222 2.545 . S
Gd169 O223 2.412 . S
Gd169 C236 2.828 . S
C170 C173 1.417 . S
C170 C175 1.431 . S
C170 C176 1.412 . S
C171 C174 1.437 . S
C171 C175 1.317 . S
C171 H190 0.929 . S
C172 C173 1.426 . S
C172 C174 1.413 . S
C172 N182 1.359 . S
C173 C170 1.417 . S
C173 C172 1.426 . S
C173 N178 1.350 . S
C174 C171 1.437 . S
C174 C172 1.413 . S
C174 C184 1.391 . S
C175 C170 1.431 . S
C175 C171 1.317 . S
C175 H186 0.930 . S
C176 C170 1.412 . S
C176 C177 1.355 . S
C176 H188 0.930 . S
C177 C176 1.355 . S
C177 C179 1.402 . S
C177 H189 0.930 . S
N178 Gd169 2.661 . S
N178 C173 1.350 . S
N178 C179 1.307 . S
C179 C177 1.402 . S
C179 N178 1.307 . S
C179 H180 0.930 . S
H180 C179 0.930 . S
C181 N182 1.334 . S
C181 C183 1.394 . S
C181 H185 0.930 . S
N182 Gd169 2.601 . S
N182 C172 1.359 . S
N182 C181 1.334 . S
C183 C181 1.394 . S
C183 C184 1.359 . S
C183 H195 0.930 . S
C184 C174 1.391 . S
C184 C183 1.359 . S
C184 H196 0.929 . S
H185 C181 0.930 . S
H186 C175 0.930 . S
H187 C204 0.930 . S
H188 C176 0.930 . S
H189 C177 0.930 . S
H190 C171 0.929 . S
H191 C209 0.930 . S
H192 C200 0.930 . S
H193 C201 0.930 . S
H194 C225 0.929 . S
H195 C183 0.930 . S
H196 C184 0.929 . S
H197 C226 0.930 . S
H198 C207 0.930 . S
N199 Gd168 2.661 . S
N199 C203 1.350 . S
N199 C204 1.307 . S
C200 H192 0.930 . S
C200 C201 1.355 . S
C200 C202 1.412 . S
C201 H193 0.930 . S
C201 C200 1.355 . S
C201 C204 1.402 . S
C202 C200 1.412 . S
C202 C203 1.417 . S
C202 C226 1.431 . S
C203 N199 1.350 . S
C203 C202 1.417 . S
C203 C206 1.426 . S
C204 H187 0.930 . S
C204 N199 1.307 . S
C204 C201 1.402 . S
N205 Gd168 2.601 . S
N205 C206 1.359 . S
N205 C209 1.334 . S
C206 C203 1.426 . S
C206 N205 1.359 . S
C206 C210 1.413 . S
C207 H198 0.930 . S
C207 C208 1.359 . S
C207 C209 1.394 . S
C208 C207 1.359 . S
C208 C210 1.391 . S
C208 H211 0.929 . S
C209 H191 0.930 . S
C209 N205 1.334 . S
C209 C207 1.394 . S
C210 C206 1.413 . S
C210 C208 1.391 . S
C210 C225 1.437 . S
H211 C208 0.929 . S
O212 Gd168 2.545 . S
O212 C227 1.258 . S
O213 Gd168 2.606 . S
O213 Gd169 2.362 . S
O213 C224 1.284 . S
O214 Gd169 2.324 . S
O214 C234 1.254 . S
O215 Gd168 2.429 . S
O215 C234 1.268 . S
O216 Gd168 2.545 . S
O216 C224 1.250 . S
O217 Gd168 2.412 . S
O217 C227 1.252 . S
O218 Gd169 2.545 . S
O218 C236 1.258 . S
O219 Gd168 2.362 . S
O219 Gd169 2.606 . S
O219 C235 1.284 . S
O220 Gd168 2.324 . S
O220 C243 1.254 . S
O221 Gd169 2.429 . S
O221 C243 1.268 . S
O222 Gd169 2.545 . S
O222 C235 1.250 . S
O223 Gd169 2.412 . S
O223 C236 1.252 . S
C224 O213 1.284 . S
C224 O216 1.250 . S
C225 H194 0.929 . S
C225 C210 1.437 . S
C225 C226 1.317 . S
C226 H197 0.930 . S
C226 C202 1.431 . S
C226 C225 1.317 . S
C227 Gd168 2.828 . S
C227 O212 1.258 . S
C227 O217 1.252 . S
C227 C228 1.497 . S
C228 C227 1.497 . S
C228 C229 1.395 . S
C228 C230 1.380 . S
C229 C228 1.395 . S
C229 C232 1.398 . S
C229 H244 0.930 . S
C230 C228 1.380 . S
C230 C231 1.391 . S
C230 H245 0.930 . S
C231 C230 1.391 . S
C231 C233 1.387 . S
C232 C229 1.398 . S
C232 C233 1.380 . S
C232 H246 0.930 . S
C233 C231 1.387 . S
C233 C232 1.380 . S
C233 H247 0.930 . S
C234 O214 1.254 . S
C234 O215 1.268 . S
C235 O219 1.284 . S
C235 O222 1.250 . S
C236 Gd169 2.828 . S
C236 O218 1.258 . S
C236 O223 1.252 . S
C236 C237 1.497 . S
C237 C236 1.497 . S
C237 C238 1.395 . S
C237 C239 1.380 . S
C238 C237 1.395 . S
C238 C241 1.398 . S
C238 H248 0.930 . S
C239 C237 1.380 . S
C239 C240 1.391 . S
C239 H249 0.930 . S
C240 C239 1.391 . S
C240 C242 1.387 . S
C241 C238 1.398 . S
C241 C242 1.380 . S
C241 H250 0.930 . S
C242 C240 1.387 . S
C242 C241 1.380 . S
C242 H251 0.930 . S
C243 O220 1.254 . S
C243 O221 1.268 . S
H244 C229 0.930 . S
H245 C230 0.930 . S
H246 C232 0.930 . S
H247 C233 0.930 . S
H248 C238 0.930 . S
H249 C239 0.930 . S
H250 C241 0.930 . S
H251 C242 0.930 . S
Gd252 N283 2.661 . S
Gd252 N289 2.601 . S
Gd252 O296 2.545 . S
Gd252 O297 2.606 . S
Gd252 O299 2.429 . S
Gd252 O300 2.545 . S
Gd252 O301 2.412 . S
Gd252 O303 2.362 . S
Gd252 O304 2.324 . S
Gd252 C311 2.828 . S
Gd253 N262 2.661 . S
Gd253 N266 2.601 . S
Gd253 O297 2.362 . S
Gd253 O298 2.324 . S
Gd253 O302 2.545 . S
Gd253 O303 2.606 . S
Gd253 O305 2.429 . S
Gd253 O306 2.545 . S
Gd253 O307 2.412 . S
Gd253 C320 2.828 . S
C254 C257 1.417 . S
C254 C259 1.431 . S
C254 C260 1.412 . S
C255 C258 1.437 . S
C255 C259 1.317 . S
C255 H274 0.929 . S
C256 C257 1.426 . S
C256 C258 1.413 . S
C256 N266 1.359 . S
C257 C254 1.417 . S
C257 C256 1.426 . S
C257 N262 1.350 . S
C258 C255 1.437 . S
C258 C256 1.413 . S
C258 C268 1.391 . S
C259 C254 1.431 . S
C259 C255 1.317 . S
C259 H270 0.930 . S
C260 C254 1.412 . S
C260 C261 1.355 . S
C260 H272 0.930 . S
C261 C260 1.355 . S
C261 C263 1.402 . S
C261 H273 0.930 . S
N262 Gd253 2.661 . S
N262 C257 1.350 . S
N262 C263 1.307 . S
C263 C261 1.402 . S
C263 N262 1.307 . S
C263 H264 0.930 . S
H264 C263 0.930 . S
C265 N266 1.334 . S
C265 C267 1.394 . S
C265 H269 0.930 . S
N266 Gd253 2.601 . S
N266 C256 1.359 . S
N266 C265 1.334 . S
C267 C265 1.394 . S
C267 C268 1.359 . S
C267 H279 0.930 . S
C268 C258 1.391 . S
C268 C267 1.359 . S
C268 H280 0.929 . S
H269 C265 0.930 . S
H270 C259 0.930 . S
H271 C288 0.930 . S
H272 C260 0.930 . S
H273 C261 0.930 . S
H274 C255 0.929 . S
H275 C293 0.930 . S
H276 C284 0.930 . S
H277 C285 0.930 . S
H278 C309 0.929 . S
H279 C267 0.930 . S
H280 C268 0.929 . S
H281 C310 0.930 . S
H282 C291 0.930 . S
N283 Gd252 2.661 . S
N283 C287 1.350 . S
N283 C288 1.307 . S
C284 H276 0.930 . S
C284 C285 1.355 . S
C284 C286 1.412 . S
C285 H277 0.930 . S
C285 C284 1.355 . S
C285 C288 1.402 . S
C286 C284 1.412 . S
C286 C287 1.417 . S
C286 C310 1.431 . S
C287 N283 1.350 . S
C287 C286 1.417 . S
C287 C290 1.426 . S
C288 H271 0.930 . S
C288 N283 1.307 . S
C288 C285 1.402 . S
N289 Gd252 2.601 . S
N289 C290 1.359 . S
N289 C293 1.334 . S
C290 C287 1.426 . S
C290 N289 1.359 . S
C290 C294 1.413 . S
C291 H282 0.930 . S
C291 C292 1.359 . S
C291 C293 1.394 . S
C292 C291 1.359 . S
C292 C294 1.391 . S
C292 H295 0.929 . S
C293 H275 0.930 . S
C293 N289 1.334 . S
C293 C291 1.394 . S
C294 C290 1.413 . S
C294 C292 1.391 . S
C294 C309 1.437 . S
H295 C292 0.929 . S
O296 Gd252 2.545 . S
O296 C311 1.258 . S
O297 Gd252 2.606 . S
O297 Gd253 2.362 . S
O297 C308 1.284 . S
O298 Gd253 2.324 . S
O298 C318 1.254 . S
O299 Gd252 2.429 . S
O299 C318 1.268 . S
O300 Gd252 2.545 . S
O300 C308 1.250 . S
O301 Gd252 2.412 . S
O301 C311 1.252 . S
O302 Gd253 2.545 . S
O302 C320 1.258 . S
O303 Gd252 2.362 . S
O303 Gd253 2.606 . S
O303 C319 1.284 . S
O304 Gd252 2.324 . S
O304 C327 1.254 . S
O305 Gd253 2.429 . S
O305 C327 1.268 . S
O306 Gd253 2.545 . S
O306 C319 1.250 . S
O307 Gd253 2.412 . S
O307 C320 1.252 . S
C308 O297 1.284 . S
C308 O300 1.250 . S
C309 H278 0.929 . S
C309 C294 1.437 . S
C309 C310 1.317 . S
C310 H281 0.930 . S
C310 C286 1.431 . S
C310 C309 1.317 . S
C311 Gd252 2.828 . S
C311 O296 1.258 . S
C311 O301 1.252 . S
C311 C312 1.497 . S
C312 C311 1.497 . S
C312 C313 1.395 . S
C312 C314 1.380 . S
C313 C312 1.395 . S
C313 C316 1.398 . S
C313 H328 0.930 . S
C314 C312 1.380 . S
C314 C315 1.391 1_556 S
C314 H329 0.930 . S
C315 C314 1.391 1_554 S
C315 C317 1.387 . S
C316 C313 1.398 . S
C316 C317 1.380 1_556 S
C316 H330 0.924 1_556 S
C317 C315 1.387 . S
C317 C316 1.380 1_554 S
C317 H331 0.930 . S
C318 O298 1.254 . S
C318 O299 1.268 . S
C319 O303 1.284 . S
C319 O306 1.250 . S
C320 Gd253 2.828 . S
C320 O302 1.258 . S
C320 O307 1.252 . S
C320 C321 1.497 . S
C321 C320 1.497 . S
C321 C322 1.395 . S
C321 C323 1.380 . S
C322 C321 1.395 . S
C322 C325 1.398 . S
C322 H332 0.930 . S
C323 C321 1.380 . S
C323 C324 1.391 . S
C323 H333 0.930 . S
C324 C323 1.391 . S
C324 C326 1.387 . S
C325 C322 1.398 . S
C325 C326 1.380 . S
C325 H334 0.930 . S
C326 C324 1.387 . S
C326 C325 1.380 . S
C326 H335 0.930 . S
C327 O304 1.254 . S
C327 O305 1.268 . S
H328 C313 0.930 . S
H329 C314 0.930 . S
H330 C316 0.924 1_554 S
H331 C317 0.930 . S
H332 C322 0.930 . S
H333 C323 0.930 . S
H334 C325 0.930 . S
H335 C326 0.930 . S
Gd336 N367 2.661 . S
Gd336 N373 2.601 . S
Gd336 O380 2.545 . S
Gd336 O381 2.606 . S
Gd336 O383 2.429 . S
Gd336 O384 2.545 . S
Gd336 O385 2.412 . S
Gd336 O387 2.362 . S
Gd336 O388 2.324 . S
Gd336 C395 2.828 . S
Gd337 N346 2.661 . S
Gd337 N350 2.601 . S
Gd337 O381 2.362 . S
Gd337 O382 2.324 . S
Gd337 O386 2.545 . S
Gd337 O387 2.606 . S
Gd337 O389 2.429 . S
Gd337 O390 2.545 . S
Gd337 O391 2.412 . S
Gd337 C404 2.828 . S
C338 C341 1.417 . S
C338 C343 1.431 . S
C338 C344 1.412 . S
C339 C342 1.437 . S
C339 C343 1.317 . S
C339 H358 0.929 . S
C340 C341 1.426 . S
C340 C342 1.413 . S
C340 N350 1.359 . S
C341 C338 1.417 . S
C341 C340 1.426 . S
C341 N346 1.350 . S
C342 C339 1.437 . S
C342 C340 1.413 . S
C342 C352 1.391 . S
C343 C338 1.431 . S
C343 C339 1.317 . S
C343 H354 0.930 . S
C344 C338 1.412 . S
C344 C345 1.355 . S
C344 H356 0.930 1_455 S
C345 C344 1.355 . S
C345 C347 1.402 . S
C345 H357 0.913 1_455 S
N346 Gd337 2.661 . S
N346 C341 1.350 . S
N346 C347 1.307 . S
C347 C345 1.402 . S
C347 N346 1.307 . S
C347 H348 0.930 . S
H348 C347 0.930 . S
C349 N350 1.334 . S
C349 C351 1.394 . S
C349 H353 0.930 . S
N350 Gd337 2.601 . S
N350 C340 1.359 . S
N350 C349 1.334 . S
C351 C349 1.394 . S
C351 C352 1.359 . S
C351 H363 0.930 . S
C352 C342 1.391 . S
C352 C351 1.359 . S
C352 H364 0.929 . S
H353 C349 0.930 . S
H354 C343 0.930 . S
H355 C372 0.930 . S
H356 C344 0.930 1_655 S
H357 C345 0.913 1_655 S
H358 C339 0.929 . S
H359 C377 0.930 . S
H360 C368 0.930 . S
H361 C369 0.930 . S
H362 C393 0.929 . S
H363 C351 0.930 . S
H364 C352 0.929 . S
H365 C394 0.930 . S
H366 C375 0.930 . S
N367 Gd336 2.661 . S
N367 C371 1.350 . S
N367 C372 1.307 . S
C368 H360 0.930 . S
C368 C369 1.355 . S
C368 C370 1.412 . S
C369 H361 0.930 . S
C369 C368 1.355 . S
C369 C372 1.402 . S
C370 C368 1.412 . S
C370 C371 1.417 . S
C370 C394 1.431 . S
C371 N367 1.350 . S
C371 C370 1.417 . S
C371 C374 1.426 . S
C372 H355 0.930 . S
C372 N367 1.307 . S
C372 C369 1.402 . S
N373 Gd336 2.601 . S
N373 C374 1.359 . S
N373 C377 1.334 . S
C374 C371 1.426 . S
C374 N373 1.359 . S
C374 C378 1.413 . S
C375 H366 0.930 . S
C375 C376 1.359 . S
C375 C377 1.394 . S
C376 C375 1.359 . S
C376 C378 1.391 . S
C376 H379 0.929 . S
C377 H359 0.930 . S
C377 N373 1.334 . S
C377 C375 1.394 . S
C378 C374 1.413 . S
C378 C376 1.391 . S
C378 C393 1.437 . S
H379 C376 0.929 . S
O380 Gd336 2.545 . S
O380 C395 1.258 . S
O381 Gd336 2.606 . S
O381 Gd337 2.362 . S
O381 C392 1.284 . S
O382 Gd337 2.324 . S
O382 C402 1.254 . S
O383 Gd336 2.429 . S
O383 C402 1.268 . S
O384 Gd336 2.545 . S
O384 C392 1.250 . S
O385 Gd336 2.412 . S
O385 C395 1.252 . S
O386 Gd337 2.545 . S
O386 C404 1.258 . S
O387 Gd336 2.362 . S
O387 Gd337 2.606 . S
O387 C403 1.284 . S
O388 Gd336 2.324 . S
O388 C411 1.254 . S
O389 Gd337 2.429 . S
O389 C411 1.268 . S
O390 Gd337 2.545 . S
O390 C403 1.250 . S
O391 Gd337 2.412 . S
O391 C404 1.252 . S
C392 O381 1.284 . S
C392 O384 1.250 . S
C393 H362 0.929 . S
C393 C378 1.437 . S
C393 C394 1.317 . S
C394 H365 0.930 . S
C394 C370 1.431 . S
C394 C393 1.317 . S
C395 Gd336 2.828 . S
C395 O380 1.258 . S
C395 O385 1.252 . S
C395 C396 1.497 . S
C396 C395 1.497 . S
C396 C397 1.395 . S
C396 C398 1.380 . S
C397 C396 1.395 . S
C397 C400 1.398 . S
C397 H412 0.930 . S
C398 C396 1.380 . S
C398 C399 1.391 . S
C398 H413 0.930 . S
C399 C398 1.391 . S
C399 C401 1.387 . S
C400 C397 1.398 . S
C400 C401 1.380 . S
C400 H414 0.930 . S
C401 C399 1.387 . S
C401 C400 1.380 . S
C401 H415 0.930 . S
C402 O382 1.254 . S
C402 O383 1.268 . S
C403 O387 1.284 . S
C403 O390 1.250 . S
C404 Gd337 2.828 . S
C404 O386 1.258 . S
C404 O391 1.252 . S
C404 C405 1.497 . S
C405 C404 1.497 . S
C405 C406 1.395 . S
C405 C407 1.380 . S
C406 C405 1.395 . S
C406 C409 1.398 . S
C406 H416 0.930 . S
C407 C405 1.380 . S
C407 C408 1.391 . S
C407 H417 0.930 . S
C408 C407 1.391 . S
C408 C410 1.387 . S
C409 C406 1.398 . S
C409 C410 1.380 . S
C409 H418 0.930 . S
C410 C408 1.387 . S
C410 C409 1.380 . S
C410 H419 0.930 . S
C411 O388 1.254 . S
C411 O389 1.268 . S
H412 C397 0.930 . S
H413 C398 0.930 . S
H414 C400 0.930 . S
H415 C401 0.930 . S
H416 C406 0.930 . S
H417 C407 0.930 . S
H418 C409 0.930 . S
H419 C410 0.930 . S
Gd420 N451 2.661 . S
Gd420 N457 2.601 . S
Gd420 O464 2.545 . S
Gd420 O465 2.606 . S
Gd420 O467 2.429 . S
Gd420 O468 2.545 . S
Gd420 O469 2.412 . S
Gd420 O471 2.362 . S
Gd420 O472 2.324 . S
Gd420 C479 2.828 . S
Gd421 N430 2.661 . S
Gd421 N434 2.601 . S
Gd421 O465 2.362 . S
Gd421 O466 2.324 . S
Gd421 O470 2.545 . S
Gd421 O471 2.606 . S
Gd421 O473 2.429 . S
Gd421 O474 2.545 . S
Gd421 O475 2.412 . S
Gd421 C488 2.828 . S
C422 C425 1.417 . S
C422 C427 1.431 . S
C422 C428 1.412 . S
C423 C426 1.437 . S
C423 C427 1.317 . S
C423 H442 0.929 . S
C424 C425 1.426 . S
C424 C426 1.413 . S
C424 N434 1.359 . S
C425 C422 1.417 . S
C425 C424 1.426 . S
C425 N430 1.350 . S
C426 C423 1.437 . S
C426 C424 1.413 . S
C426 C436 1.391 . S
C427 C422 1.431 . S
C427 C423 1.317 . S
C427 H438 0.930 . S
C428 C422 1.412 . S
C428 C429 1.355 . S
C428 H440 0.930 . S
C429 C428 1.355 . S
C429 C431 1.402 . S
C429 H441 0.930 . S
N430 Gd421 2.661 . S
N430 C425 1.350 . S
N430 C431 1.307 . S
C431 C429 1.402 . S
C431 N430 1.307 . S
C431 H432 0.930 . S
H432 C431 0.930 . S
C433 N434 1.334 . S
C433 C435 1.394 . S
C433 H437 0.930 . S
N434 Gd421 2.601 . S
N434 C424 1.359 . S
N434 C433 1.334 . S
C435 C433 1.394 . S
C435 C436 1.359 . S
C435 H447 0.930 . S
C436 C426 1.391 . S
C436 C435 1.359 . S
C436 H448 0.929 . S
H437 C433 0.930 . S
H438 C427 0.930 . S
H439 C456 0.930 . S
H440 C428 0.930 . S
H441 C429 0.930 . S
H442 C423 0.929 . S
H443 C461 0.930 . S
H444 C452 0.930 . S
H445 C453 0.930 . S
H446 C477 0.929 . S
H447 C435 0.930 . S
H448 C436 0.929 . S
H449 C478 0.930 . S
H450 C459 0.930 . S
N451 Gd420 2.661 . S
N451 C455 1.350 . S
N451 C456 1.307 . S
C452 H444 0.930 . S
C452 C453 1.355 . S
C452 C454 1.412 . S
C453 H445 0.930 . S
C453 C452 1.355 . S
C453 C456 1.402 . S
C454 C452 1.412 . S
C454 C455 1.417 . S
C454 C478 1.431 . S
C455 N451 1.350 . S
C455 C454 1.417 . S
C455 C458 1.426 . S
C456 H439 0.930 . S
C456 N451 1.307 . S
C456 C453 1.402 . S
N457 Gd420 2.601 . S
N457 C458 1.359 . S
N457 C461 1.334 . S
C458 C455 1.426 . S
C458 N457 1.359 . S
C458 C462 1.413 . S
C459 H450 0.930 . S
C459 C460 1.359 . S
C459 C461 1.394 . S
C460 C459 1.359 . S
C460 C462 1.391 . S
C460 H463 0.929 . S
C461 H443 0.930 . S
C461 N457 1.334 . S
C461 C459 1.394 . S
C462 C458 1.413 . S
C462 C460 1.391 . S
C462 C477 1.437 . S
H463 C460 0.929 . S
O464 Gd420 2.545 . S
O464 C479 1.258 . S
O465 Gd420 2.606 . S
O465 Gd421 2.362 . S
O465 C476 1.284 . S
O466 Gd421 2.324 . S
O466 C486 1.254 . S
O467 Gd420 2.429 . S
O467 C486 1.268 . S
O468 Gd420 2.545 . S
O468 C476 1.250 . S
O469 Gd420 2.412 . S
O469 C479 1.252 . S
O470 Gd421 2.545 . S
O470 C488 1.258 . S
O471 Gd420 2.362 . S
O471 Gd421 2.606 . S
O471 C487 1.284 . S
O472 Gd420 2.324 . S
O472 C495 1.254 . S
O473 Gd421 2.429 . S
O473 C495 1.268 . S
O474 Gd421 2.545 . S
O474 C487 1.250 . S
O475 Gd421 2.412 . S
O475 C488 1.252 . S
C476 O465 1.284 . S
C476 O468 1.250 . S
C477 H446 0.929 . S
C477 C462 1.437 . S
C477 C478 1.317 . S
C478 H449 0.930 . S
C478 C454 1.431 . S
C478 C477 1.317 . S
C479 Gd420 2.828 . S
C479 O464 1.258 . S
C479 O469 1.252 . S
C479 C480 1.497 . S
C480 C479 1.497 . S
C480 C481 1.395 . S
C480 C482 1.380 . S
C481 C480 1.395 . S
C481 C484 1.398 . S
C481 H496 0.930 . S
C482 C480 1.380 . S
C482 C483 1.391 . S
C482 H497 0.930 . S
C483 C482 1.391 . S
C483 C485 1.387 . S
C484 C481 1.398 . S
C484 C485 1.380 . S
C484 H498 0.930 . S
C485 C483 1.387 . S
C485 C484 1.380 . S
C485 H499 0.930 . S
C486 O466 1.254 . S
C486 O467 1.268 . S
C487 O471 1.284 . S
C487 O474 1.250 . S
C488 Gd421 2.828 . S
C488 O470 1.258 . S
C488 O475 1.252 . S
C488 C489 1.497 . S
C489 C488 1.497 . S
C489 C490 1.395 . S
C489 C491 1.380 . S
C490 C489 1.395 . S
C490 C493 1.398 1_556 S
C490 H500 0.930 . S
C491 C489 1.380 . S
C491 C492 1.391 1_556 S
C491 H501 0.930 . S
C492 C491 1.391 1_554 S
C492 C494 1.387 . S
C493 C490 1.398 1_554 S
C493 C494 1.380 . S
C493 H502 0.930 . S
C494 C492 1.387 . S
C494 C493 1.380 . S
C494 H503 0.930 . S
C495 O472 1.254 . S
C495 O473 1.268 . S
H496 C481 0.930 . S
H497 C482 0.930 . S
H498 C484 0.930 . S
H499 C485 0.930 . S
H500 C490 0.930 . S
H501 C491 0.930 . S
H502 C493 0.930 . S
H503 C494 0.930 . S
Gd504 N535 2.661 . S
Gd504 N541 2.601 . S
Gd504 O548 2.545 . S
Gd504 O549 2.606 . S
Gd504 O551 2.429 . S
Gd504 O552 2.545 . S
Gd504 O553 2.412 . S
Gd504 O555 2.362 . S
Gd504 O556 2.324 . S
Gd504 C563 2.828 . S
Gd505 N514 2.661 . S
Gd505 N518 2.601 . S
Gd505 O549 2.362 . S
Gd505 O550 2.324 . S
Gd505 O554 2.545 1_554 S
Gd505 O555 2.606 . S
Gd505 O557 2.429 . S
Gd505 O558 2.545 1_554 S
Gd505 O559 2.412 1_554 S
Gd505 C572 2.828 1_554 S
C506 C509 1.417 . S
C506 C511 1.431 . S
C506 C512 1.412 . S
C507 C510 1.437 . S
C507 C511 1.317 . S
C507 H526 0.929 . S
C508 C509 1.426 . S
C508 C510 1.413 . S
C508 N518 1.359 . S
C509 C506 1.417 . S
C509 C508 1.426 . S
C509 N514 1.350 . S
C510 C507 1.437 . S
C510 C508 1.413 . S
C510 C520 1.391 . S
C511 C506 1.431 . S
C511 C507 1.317 . S
C511 H522 0.930 . S
C512 C506 1.412 . S
C512 C513 1.355 . S
C512 H524 0.930 . S
C513 C512 1.355 . S
C513 C515 1.402 . S
C513 H525 0.930 . S
N514 Gd505 2.661 . S
N514 C509 1.350 . S
N514 C515 1.307 . S
C515 C513 1.402 . S
C515 N514 1.307 . S
C515 H516 0.930 . S
H516 C515 0.930 . S
C517 N518 1.334 . S
C517 C519 1.394 . S
C517 H521 0.930 . S
N518 Gd505 2.601 . S
N518 C508 1.359 . S
N518 C517 1.334 . S
C519 C517 1.394 . S
C519 C520 1.359 . S
C519 H531 0.930 . S
C520 C510 1.391 . S
C520 C519 1.359 . S
C520 H532 0.929 . S
H521 C517 0.930 . S
H522 C511 0.930 . S
H523 C540 0.930 . S
H524 C512 0.930 . S
H525 C513 0.930 . S
H526 C507 0.929 . S
H527 C545 0.930 . S
H528 C536 0.930 . S
H529 C537 0.934 . S
H530 C561 0.929 . S
H531 C519 0.930 . S
H532 C520 0.929 . S
H533 C562 0.930 . S
H534 C543 0.930 . S
N535 Gd504 2.661 . S
N535 C539 1.350 . S
N535 C540 1.307 . S
C536 H528 0.930 . S
C536 C537 1.355 1_556 S
C536 C538 1.409 1_556 S
C537 H529 0.934 . S
C537 C536 1.355 1_554 S
C537 C540 1.402 . S
C538 C536 1.409 1_554 S
C538 C539 1.428 . S
C538 C562 1.425 1_554 S
C539 N535 1.350 . S
C539 C538 1.428 . S
C539 C542 1.426 . S
C540 H523 0.930 . S
C540 N535 1.307 . S
C540 C537 1.402 . S
N541 Gd504 2.601 . S
N541 C542 1.359 . S
N541 C545 1.334 . S
C542 C539 1.426 . S
C542 N541 1.359 . S
C542 C546 1.413 . S
C543 H534 0.930 . S
C543 C544 1.359 . S
C543 C545 1.394 . S
C544 C543 1.359 . S
C544 C546 1.391 . S
C544 H547 0.929 . S
C545 H527 0.930 . S
C545 N541 1.334 . S
C545 C543 1.394 . S
C546 C542 1.413 . S
C546 C544 1.391 . S
C546 C561 1.437 1_554 S
H547 C544 0.929 . S
O548 Gd504 2.545 . S
O548 C563 1.258 . S
O549 Gd504 2.606 . S
O549 Gd505 2.362 . S
O549 C560 1.284 . S
O550 Gd505 2.324 . S
O550 C570 1.254 . S
O551 Gd504 2.429 . S
O551 C570 1.268 . S
O552 Gd504 2.545 . S
O552 C560 1.250 . S
O553 Gd504 2.412 . S
O553 C563 1.252 . S
O554 Gd505 2.545 1_556 S
O554 C572 1.258 . S
O555 Gd504 2.362 . S
O555 Gd505 2.606 . S
O555 C571 1.284 1_554 S
O556 Gd504 2.324 . S
O556 C579 1.254 . S
O557 Gd505 2.429 . S
O557 C579 1.268 . S
O558 Gd505 2.545 1_556 S
O558 C571 1.250 . S
O559 Gd505 2.412 1_556 S
O559 C572 1.252 . S
C560 O549 1.284 . S
C560 O552 1.250 . S
C561 H530 0.929 . S
C561 C546 1.437 1_556 S
C561 C562 1.317 . S
C562 H533 0.930 . S
C562 C538 1.425 1_556 S
C562 C561 1.317 . S
C563 Gd504 2.828 . S
C563 O548 1.258 . S
C563 O553 1.252 . S
C563 C564 1.497 . S
C564 C563 1.497 . S
C564 C565 1.395 . S
C564 C566 1.380 . S
C565 C564 1.395 . S
C565 C568 1.398 . S
C565 H580 0.930 . S
C566 C564 1.380 . S
C566 C567 1.391 . S
C566 H581 0.930 . S
C567 C566 1.391 . S
C567 C569 1.387 . S
C568 C565 1.398 . S
C568 C569 1.380 . S
C568 H582 0.930 . S
C569 C567 1.387 . S
C569 C568 1.380 . S
C569 H583 0.930 . S
C570 O550 1.254 . S
C570 O551 1.268 . S
C571 O555 1.284 1_556 S
C571 O558 1.250 . S
C572 Gd505 2.828 1_556 S
C572 O554 1.258 . S
C572 O559 1.252 . S
C572 C573 1.497 . S
C573 C572 1.497 . S
C573 C574 1.395 . S
C573 C575 1.380 . S
C574 C573 1.395 . S
C574 C577 1.398 . S
C574 H584 0.930 . S
C575 C573 1.380 . S
C575 C576 1.391 . S
C575 H585 0.930 . S
C576 C575 1.391 . S
C576 C578 1.387 . S
C577 C574 1.398 . S
C577 C578 1.380 . S
C577 H586 0.930 . S
C578 C576 1.387 . S
C578 C577 1.380 . S
C578 H587 0.930 . S
C579 O556 1.254 . S
C579 O557 1.268 . S
H580 C565 0.930 . S
H581 C566 0.930 . S
H582 C568 0.930 . S
H583 C569 0.930 . S
H584 C574 0.930 . S
H585 C575 0.930 . S
H586 C577 0.930 . S
H587 C578 0.930 . S
Gd588 N619 2.661 . S
Gd588 N625 2.601 . S
Gd588 O632 2.545 . S
Gd588 O633 2.606 . S
Gd588 O635 2.429 . S
Gd588 O636 2.545 . S
Gd588 O637 2.412 . S
Gd588 O639 2.362 . S
Gd588 O640 2.324 . S
Gd588 C647 2.828 . S
Gd589 N598 2.661 . S
Gd589 N602 2.601 . S
Gd589 O633 2.362 . S
Gd589 O634 2.324 . S
Gd589 O638 2.545 . S
Gd589 O639 2.606 . S
Gd589 O641 2.429 . S
Gd589 O642 2.545 . S
Gd589 O643 2.412 . S
Gd589 C656 2.828 . S
C590 C593 1.417 . S
C590 C595 1.431 . S
C590 C596 1.412 . S
C591 C594 1.437 . S
C591 C595 1.317 . S
C591 H610 0.929 . S
C592 C593 1.426 . S
C592 C594 1.413 . S
C592 N602 1.359 . S
C593 C590 1.417 . S
C593 C592 1.426 . S
C593 N598 1.350 . S
C594 C591 1.437 . S
C594 C592 1.413 . S
C594 C604 1.391 . S
C595 C590 1.431 . S
C595 C591 1.317 . S
C595 H606 0.930 . S
C596 C590 1.412 . S
C596 C597 1.355 . S
C596 H608 0.930 . S
C597 C596 1.355 . S
C597 C599 1.402 . S
C597 H609 0.930 . S
N598 Gd589 2.661 . S
N598 C593 1.350 . S
N598 C599 1.307 . S
C599 C597 1.402 . S
C599 N598 1.307 . S
C599 H600 0.930 . S
H600 C599 0.930 . S
C601 N602 1.334 . S
C601 C603 1.394 . S
C601 H605 0.930 . S
N602 Gd589 2.601 . S
N602 C592 1.359 . S
N602 C601 1.334 . S
C603 C601 1.394 . S
C603 C604 1.359 . S
C603 H615 0.930 . S
C604 C594 1.391 . S
C604 C603 1.359 . S
C604 H616 0.929 . S
H605 C601 0.930 . S
H606 C595 0.930 . S
H607 C624 0.930 . S
H608 C596 0.930 . S
H609 C597 0.930 . S
H610 C591 0.929 . S
H611 C629 0.930 . S
H612 C620 0.930 . S
H613 C621 0.930 . S
H614 C645 0.929 . S
H615 C603 0.930 . S
H616 C604 0.929 . S
H617 C646 0.930 . S
H618 C627 0.930 . S
N619 Gd588 2.661 . S
N619 C623 1.350 . S
N619 C624 1.307 . S
C620 H612 0.930 . S
C620 C621 1.355 . S
C620 C622 1.412 . S
C621 H613 0.930 . S
C621 C620 1.355 . S
C621 C624 1.402 . S
C622 C620 1.412 . S
C622 C623 1.417 . S
C622 C646 1.431 . S
C623 N619 1.350 . S
C623 C622 1.417 . S
C623 C626 1.426 . S
C624 H607 0.930 . S
C624 N619 1.307 . S
C624 C621 1.402 . S
N625 Gd588 2.601 . S
N625 C626 1.359 . S
N625 C629 1.334 . S
C626 C623 1.426 . S
C626 N625 1.359 . S
C626 C630 1.413 . S
C627 H618 0.930 . S
C627 C628 1.359 . S
C627 C629 1.394 . S
C628 C627 1.359 . S
C628 C630 1.391 . S
C628 H631 0.929 . S
C629 H611 0.930 . S
C629 N625 1.334 . S
C629 C627 1.394 . S
C630 C626 1.413 . S
C630 C628 1.391 . S
C630 C645 1.437 . S
H631 C628 0.929 . S
O632 Gd588 2.545 . S
O632 C647 1.258 . S
O633 Gd588 2.606 . S
O633 Gd589 2.362 . S
O633 C644 1.284 . S
O634 Gd589 2.324 . S
O634 C654 1.254 . S
O635 Gd588 2.429 . S
O635 C654 1.268 . S
O636 Gd588 2.545 . S
O636 C644 1.250 . S
O637 Gd588 2.412 . S
O637 C647 1.252 . S
O638 Gd589 2.545 . S
O638 C656 1.258 . S
O639 Gd588 2.362 . S
O639 Gd589 2.606 . S
O639 C655 1.284 . S
O640 Gd588 2.324 . S
O640 C663 1.254 . S
O641 Gd589 2.429 . S
O641 C663 1.268 . S
O642 Gd589 2.545 . S
O642 C655 1.250 . S
O643 Gd589 2.412 . S
O643 C656 1.252 . S
C644 O633 1.284 . S
C644 O636 1.250 . S
C645 H614 0.929 . S
C645 C630 1.437 . S
C645 C646 1.317 . S
C646 H617 0.930 . S
C646 C622 1.431 . S
C646 C645 1.317 . S
C647 Gd588 2.828 . S
C647 O632 1.258 . S
C647 O637 1.252 . S
C647 C648 1.497 . S
C648 C647 1.497 . S
C648 C649 1.395 . S
C648 C650 1.380 . S
C649 C648 1.395 . S
C649 C652 1.398 . S
C649 H664 0.930 . S
C650 C648 1.380 . S
C650 C651 1.391 . S
C650 H665 0.930 . S
C651 C650 1.391 . S
C651 C653 1.387 . S
C652 C649 1.398 . S
C652 C653 1.380 . S
C652 H666 0.930 . S
C653 C651 1.387 . S
C653 C652 1.380 . S
C653 H667 0.930 . S
C654 O634 1.254 . S
C654 O635 1.268 . S
C655 O639 1.284 . S
C655 O642 1.250 . S
C656 Gd589 2.828 . S
C656 O638 1.258 . S
C656 O643 1.252 . S
C656 C657 1.497 . S
C657 C656 1.497 . S
C657 C658 1.395 . S
C657 C659 1.380 . S
C658 C657 1.395 . S
C658 C661 1.398 . S
C658 H668 0.930 . S
C659 C657 1.380 . S
C659 C660 1.391 . S
C659 H669 0.930 . S
C660 C659 1.391 . S
C660 C662 1.387 . S
C661 C658 1.398 . S
C661 C662 1.380 . S
C661 H670 0.930 . S
C662 C660 1.387 . S
C662 C661 1.380 . S
C662 H671 0.930 . S
C663 O640 1.254 . S
C663 O641 1.268 . S
H664 C649 0.930 . S
H665 C650 0.930 . S
H666 C652 0.930 . S
H667 C653 0.930 . S
H668 C658 0.930 . S
H669 C659 0.930 . S
H670 C661 0.930 . S
H671 C662 0.930 . S
Gd672 N703 2.661 . S
Gd672 N709 2.601 . S
Gd672 O716 2.545 . S
Gd672 O717 2.606 . S
Gd672 O719 2.429 . S
Gd672 O720 2.545 . S
Gd672 O721 2.412 . S
Gd672 O723 2.362 . S
Gd672 O724 2.324 . S
Gd672 C731 2.828 . S
Gd673 N682 2.661 . S
Gd673 N686 2.601 . S
Gd673 O717 2.362 . S
Gd673 O718 2.324 . S
Gd673 O722 2.545 . S
Gd673 O723 2.606 . S
Gd673 O725 2.429 . S
Gd673 O726 2.545 . S
Gd673 O727 2.412 . S
Gd673 C740 2.828 . S
C674 C677 1.417 . S
C674 C679 1.431 . S
C674 C680 1.412 . S
C675 C678 1.437 . S
C675 C679 1.317 . S
C675 H694 0.929 . S
C676 C677 1.426 . S
C676 C678 1.413 . S
C676 N686 1.359 . S
C677 C674 1.417 . S
C677 C676 1.426 . S
C677 N682 1.350 . S
C678 C675 1.437 . S
C678 C676 1.413 . S
C678 C688 1.391 . S
C679 C674 1.431 . S
C679 C675 1.317 . S
C679 H690 0.930 . S
C680 C674 1.412 . S
C680 C681 1.355 . S
C680 H692 0.930 . S
C681 C680 1.355 . S
C681 C683 1.402 . S
C681 H693 0.930 . S
N682 Gd673 2.661 . S
N682 C677 1.350 . S
N682 C683 1.307 . S
C683 C681 1.402 . S
C683 N682 1.307 . S
C683 H684 0.930 . S
H684 C683 0.930 . S
C685 N686 1.334 . S
C685 C687 1.394 . S
C685 H689 0.930 . S
N686 Gd673 2.601 . S
N686 C676 1.359 . S
N686 C685 1.334 . S
C687 C685 1.394 . S
C687 C688 1.359 . S
C687 H699 0.930 . S
C688 C678 1.391 . S
C688 C687 1.359 . S
C688 H700 0.929 . S
H689 C685 0.930 . S
H690 C679 0.930 . S
H691 C708 0.930 . S
H692 C680 0.930 . S
H693 C681 0.930 . S
H694 C675 0.929 . S
H695 C713 0.930 . S
H696 C704 0.930 1_455 S
H697 C705 0.912 1_455 S
H698 C729 0.929 . S
H699 C687 0.930 . S
H700 C688 0.929 . S
H701 C730 0.930 . S
H702 C711 0.930 . S
N703 Gd672 2.661 . S
N703 C707 1.350 . S
N703 C708 1.307 . S
C704 H696 0.930 1_655 S
C704 C705 1.355 . S
C704 C706 1.412 . S
C705 H697 0.912 1_655 S
C705 C704 1.355 . S
C705 C708 1.402 . S
C706 C704 1.412 . S
C706 C707 1.417 . S
C706 C730 1.431 . S
C707 N703 1.350 . S
C707 C706 1.417 . S
C707 C710 1.426 . S
C708 H691 0.930 . S
C708 N703 1.307 . S
C708 C705 1.402 . S
N709 Gd672 2.601 . S
N709 C710 1.359 . S
N709 C713 1.334 . S
C710 C707 1.426 . S
C710 N709 1.359 . S
C710 C714 1.413 . S
C711 H702 0.930 . S
C711 C712 1.359 . S
C711 C713 1.394 . S
C712 C711 1.359 . S
C712 C714 1.391 . S
C712 H715 0.929 . S
C713 H695 0.930 . S
C713 N709 1.334 . S
C713 C711 1.394 . S
C714 C710 1.413 . S
C714 C712 1.391 . S
C714 C729 1.437 . S
H715 C712 0.929 . S
O716 Gd672 2.545 . S
O716 C731 1.258 . S
O717 Gd672 2.606 . S
O717 Gd673 2.362 . S
O717 C728 1.284 . S
O718 Gd673 2.324 . S
O718 C738 1.254 . S
O719 Gd672 2.429 . S
O719 C738 1.268 . S
O720 Gd672 2.545 . S
O720 C728 1.250 . S
O721 Gd672 2.412 . S
O721 C731 1.252 . S
O722 Gd673 2.545 . S
O722 C740 1.258 . S
O723 Gd672 2.362 . S
O723 Gd673 2.606 . S
O723 C739 1.284 . S
O724 Gd672 2.324 . S
O724 C747 1.254 . S
O725 Gd673 2.429 . S
O725 C747 1.268 . S
O726 Gd673 2.545 . S
O726 C739 1.250 . S
O727 Gd673 2.412 . S
O727 C740 1.252 . S
C728 O717 1.284 . S
C728 O720 1.250 . S
C729 H698 0.929 . S
C729 C714 1.437 . S
C729 C730 1.317 . S
C730 H701 0.930 . S
C730 C706 1.431 . S
C730 C729 1.317 . S
C731 Gd672 2.828 . S
C731 O716 1.258 . S
C731 O721 1.252 . S
C731 C732 1.497 . S
C732 C731 1.497 . S
C732 C733 1.395 . S
C732 C734 1.380 . S
C733 C732 1.395 . S
C733 C736 1.398 . S
C733 H748 0.930 . S
C734 C732 1.380 . S
C734 C735 1.391 . S
C734 H749 0.930 . S
C735 C734 1.391 . S
C735 C737 1.387 . S
C736 C733 1.398 . S
C736 C737 1.380 . S
C736 H750 0.930 . S
C737 C735 1.387 . S
C737 C736 1.380 . S
C737 H751 0.930 . S
C738 O718 1.254 . S
C738 O719 1.268 . S
C739 O723 1.284 . S
C739 O726 1.250 . S
C740 Gd673 2.828 . S
C740 O722 1.258 . S
C740 O727 1.252 . S
C740 C741 1.497 . S
C741 C740 1.497 . S
C741 C742 1.395 1_554 S
C741 C743 1.380 1_554 S
C742 C741 1.395 1_556 S
C742 C745 1.398 . S
C742 H752 0.930 1_556 S
C743 C741 1.380 1_556 S
C743 C744 1.391 . S
C743 H753 0.930 . S
C744 C743 1.391 . S
C744 C746 1.387 . S
C745 C742 1.398 . S
C745 C746 1.380 . S
C745 H754 0.930 . S
C746 C744 1.387 . S
C746 C745 1.380 . S
C746 H755 0.930 . S
C747 O724 1.254 . S
C747 O725 1.268 . S
H748 C733 0.930 . S
H749 C734 0.930 . S
H750 C736 0.930 . S
H751 C737 0.930 . S
H752 C742 0.930 1_554 S
H753 C743 0.930 . S
H754 C745 0.930 . S
H755 C746 0.930 . S
Gd756 N787 2.661 . S
Gd756 N793 2.601 . S
Gd756 O800 2.545 . S
Gd756 O801 2.606 . S
Gd756 O803 2.429 . S
Gd756 O804 2.545 . S
Gd756 O805 2.412 . S
Gd756 O807 2.362 . S
Gd756 O808 2.324 . S
Gd756 C815 2.828 . S
Gd757 N766 2.661 . S
Gd757 N770 2.601 . S
Gd757 O801 2.362 . S
Gd757 O802 2.324 . S
Gd757 O806 2.545 . S
Gd757 O807 2.606 . S
Gd757 O809 2.429 . S
Gd757 O810 2.545 . S
Gd757 O811 2.412 . S
Gd757 C824 2.828 . S
C758 C761 1.417 . S
C758 C763 1.431 . S
C758 C764 1.412 . S
C759 C762 1.437 . S
C759 C763 1.317 . S
C759 H778 0.929 . S
C760 C761 1.426 . S
C760 C762 1.413 . S
C760 N770 1.359 . S
C761 C758 1.417 . S
C761 C760 1.426 . S
C761 N766 1.350 . S
C762 C759 1.437 . S
C762 C760 1.413 . S
C762 C772 1.391 . S
C763 C758 1.431 . S
C763 C759 1.317 . S
C763 H774 0.930 . S
C764 C758 1.412 . S
C764 C765 1.355 . S
C764 H776 0.930 . S
C765 C764 1.355 . S
C765 C767 1.402 . S
C765 H777 0.930 . S
N766 Gd757 2.661 . S
N766 C761 1.350 . S
N766 C767 1.307 . S
C767 C765 1.402 . S
C767 N766 1.307 . S
C767 H768 0.930 . S
H768 C767 0.930 . S
C769 N770 1.334 . S
C769 C771 1.394 . S
C769 H773 0.930 . S
N770 Gd757 2.601 . S
N770 C760 1.359 . S
N770 C769 1.334 . S
C771 C769 1.394 . S
C771 C772 1.359 . S
C771 H783 0.930 . S
C772 C762 1.391 . S
C772 C771 1.359 . S
C772 H784 0.929 . S
H773 C769 0.930 . S
H774 C763 0.930 . S
H775 C792 0.930 . S
H776 C764 0.930 . S
H777 C765 0.930 . S
H778 C759 0.929 . S
H779 C797 0.930 . S
H780 C788 0.930 . S
H781 C789 0.930 . S
H782 C813 0.929 . S
H783 C771 0.930 . S
H784 C772 0.929 . S
H785 C814 0.930 . S
H786 C795 0.930 . S
N787 Gd756 2.661 . S
N787 C791 1.350 . S
N787 C792 1.307 . S
C788 H780 0.930 . S
C788 C789 1.355 . S
C788 C790 1.412 . S
C789 H781 0.930 . S
C789 C788 1.355 . S
C789 C792 1.402 . S
C790 C788 1.412 . S
C790 C791 1.417 . S
C790 C814 1.431 . S
C791 N787 1.350 . S
C791 C790 1.417 . S
C791 C794 1.426 . S
C792 H775 0.930 . S
C792 N787 1.307 . S
C792 C789 1.402 . S
N793 Gd756 2.601 . S
N793 C794 1.359 . S
N793 C797 1.334 . S
C794 C791 1.426 . S
C794 N793 1.359 . S
C794 C798 1.413 . S
C795 H786 0.930 . S
C795 C796 1.359 . S
C795 C797 1.394 . S
C796 C795 1.359 . S
C796 C798 1.391 . S
C796 H799 0.929 . S
C797 H779 0.930 . S
C797 N793 1.334 . S
C797 C795 1.394 . S
C798 C794 1.413 . S
C798 C796 1.391 . S
C798 C813 1.437 . S
H799 C796 0.929 . S
O800 Gd756 2.545 . S
O800 C815 1.258 . S
O801 Gd756 2.606 . S
O801 Gd757 2.362 . S
O801 C812 1.284 . S
O802 Gd757 2.324 . S
O802 C822 1.254 . S
O803 Gd756 2.429 . S
O803 C822 1.268 . S
O804 Gd756 2.545 . S
O804 C812 1.250 . S
O805 Gd756 2.412 . S
O805 C815 1.252 . S
O806 Gd757 2.545 . S
O806 C824 1.258 . S
O807 Gd756 2.362 . S
O807 Gd757 2.606 . S
O807 C823 1.284 . S
O808 Gd756 2.324 . S
O808 C831 1.254 . S
O809 Gd757 2.429 . S
O809 C831 1.268 . S
O810 Gd757 2.545 . S
O810 C823 1.250 . S
O811 Gd757 2.412 . S
O811 C824 1.252 . S
C812 O801 1.284 . S
C812 O804 1.250 . S
C813 H782 0.929 . S
C813 C798 1.437 . S
C813 C814 1.317 . S
C814 H785 0.930 . S
C814 C790 1.431 . S
C814 C813 1.317 . S
C815 Gd756 2.828 . S
C815 O800 1.258 . S
C815 O805 1.252 . S
C815 C816 1.497 . S
C816 C815 1.497 . S
C816 C817 1.393 1_556 S
C816 C818 1.380 1_556 S
C817 C816 1.393 1_554 S
C817 C820 1.404 . S
C817 H832 0.926 1_554 S
C818 C816 1.380 1_554 S
C818 C819 1.391 . S
C818 H833 0.930 . S
C819 C818 1.391 . S
C819 C821 1.387 . S
C820 C817 1.404 . S
C820 C821 1.380 . S
C820 H834 0.930 . S
C821 C819 1.387 . S
C821 C820 1.380 . S
C821 H835 0.930 . S
C822 O802 1.254 . S
C822 O803 1.268 . S
C823 O807 1.284 . S
C823 O810 1.250 . S
C824 Gd757 2.828 . S
C824 O806 1.258 . S
C824 O811 1.252 . S
C824 C825 1.497 . S
C825 C824 1.497 . S
C825 C826 1.395 . S
C825 C827 1.380 . S
C826 C825 1.395 . S
C826 C829 1.398 . S
C826 H836 0.930 . S
C827 C825 1.380 . S
C827 C828 1.391 . S
C827 H837 0.930 . S
C828 C827 1.391 . S
C828 C830 1.387 . S
C829 C826 1.398 . S
C829 C830 1.380 . S
C829 H838 0.930 . S
C830 C828 1.387 . S
C830 C829 1.380 . S
C830 H839 0.930 . S
C831 O808 1.254 . S
C831 O809 1.268 . S
H832 C817 0.926 1_556 S
H833 C818 0.930 . S
H834 C820 0.930 . S
H835 C821 0.930 . S
H836 C826 0.930 . S
H837 C827 0.930 . S
H838 C829 0.930 . S
H839 C830 0.930 . S
Gd840 N871 2.661 . S
Gd840 N877 2.601 . S
Gd840 O884 2.545 . S
Gd840 O885 2.606 . S
Gd840 O887 2.429 . S
Gd840 O888 2.545 . S
Gd840 O889 2.412 . S
Gd840 O891 2.362 . S
Gd840 O892 2.324 . S
Gd840 C899 2.828 . S
Gd841 N850 2.661 . S
Gd841 N854 2.601 . S
Gd841 O885 2.362 . S
Gd841 O886 2.324 . S
Gd841 O890 2.545 . S
Gd841 O891 2.606 . S
Gd841 O893 2.429 . S
Gd841 O894 2.545 . S
Gd841 O895 2.412 . S
Gd841 C908 2.828 . S
C842 C845 1.417 . S
C842 C847 1.431 . S
C842 C848 1.412 . S
C843 C846 1.437 . S
C843 C847 1.317 . S
C843 H862 0.929 . S
C844 C845 1.426 . S
C844 C846 1.413 . S
C844 N854 1.359 . S
C845 C842 1.417 . S
C845 C844 1.426 . S
C845 N850 1.350 . S
C846 C843 1.437 . S
C846 C844 1.413 . S
C846 C856 1.391 . S
C847 C842 1.431 . S
C847 C843 1.317 . S
C847 H858 0.930 . S
C848 C842 1.412 . S
C848 C849 1.355 . S
C848 H860 0.930 . S
C849 C848 1.355 . S
C849 C851 1.402 . S
C849 H861 0.930 . S
N850 Gd841 2.661 . S
N850 C845 1.350 . S
N850 C851 1.307 . S
C851 C849 1.402 . S
C851 N850 1.307 . S
C851 H852 0.930 . S
H852 C851 0.930 . S
C853 N854 1.334 . S
C853 C855 1.394 . S
C853 H857 0.930 . S
N854 Gd841 2.601 . S
N854 C844 1.359 . S
N854 C853 1.334 . S
C855 C853 1.394 . S
C855 C856 1.359 . S
C855 H867 0.930 . S
C856 C846 1.391 . S
C856 C855 1.359 . S
C856 H868 0.929 . S
H857 C853 0.930 . S
H858 C847 0.930 . S
H859 C876 0.930 . S
H860 C848 0.930 . S
H861 C849 0.930 . S
H862 C843 0.929 . S
H863 C881 0.930 . S
H864 C872 0.930 . S
H865 C873 0.930 . S
H866 C897 0.929 . S
H867 C855 0.930 . S
H868 C856 0.929 . S
H869 C898 0.930 . S
H870 C879 0.930 . S
N871 Gd840 2.661 . S
N871 C875 1.350 . S
N871 C876 1.307 . S
C872 H864 0.930 . S
C872 C873 1.355 . S
C872 C874 1.412 . S
C873 H865 0.930 . S
C873 C872 1.355 . S
C873 C876 1.402 . S
C874 C872 1.412 . S
C874 C875 1.417 . S
C874 C898 1.431 . S
C875 N871 1.350 . S
C875 C874 1.417 . S
C875 C878 1.426 . S
C876 H859 0.930 . S
C876 N871 1.307 . S
C876 C873 1.402 . S
N877 Gd840 2.601 . S
N877 C878 1.359 . S
N877 C881 1.334 . S
C878 C875 1.426 . S
C878 N877 1.359 . S
C878 C882 1.413 . S
C879 H870 0.930 . S
C879 C880 1.359 . S
C879 C881 1.394 . S
C880 C879 1.359 . S
C880 C882 1.391 . S
C880 H883 0.929 . S
C881 H863 0.930 . S
C881 N877 1.334 . S
C881 C879 1.394 . S
C882 C878 1.413 . S
C882 C880 1.391 . S
C882 C897 1.437 . S
H883 C880 0.929 . S
O884 Gd840 2.545 . S
O884 C899 1.258 . S
O885 Gd840 2.606 . S
O885 Gd841 2.362 . S
O885 C896 1.284 . S
O886 Gd841 2.324 . S
O886 C906 1.254 . S
O887 Gd840 2.429 . S
O887 C906 1.268 . S
O888 Gd840 2.545 . S
O888 C896 1.250 . S
O889 Gd840 2.412 . S
O889 C899 1.252 . S
O890 Gd841 2.545 . S
O890 C908 1.258 . S
O891 Gd840 2.362 . S
O891 Gd841 2.606 . S
O891 C907 1.284 . S
O892 Gd840 2.324 . S
O892 C915 1.254 . S
O893 Gd841 2.429 . S
O893 C915 1.268 . S
O894 Gd841 2.545 . S
O894 C907 1.250 . S
O895 Gd841 2.412 . S
O895 C908 1.252 . S
C896 O885 1.284 . S
C896 O888 1.250 . S
C897 H866 0.929 . S
C897 C882 1.437 . S
C897 C898 1.317 . S
C898 H869 0.930 . S
C898 C874 1.431 . S
C898 C897 1.317 . S
C899 Gd840 2.828 . S
C899 O884 1.258 . S
C899 O889 1.252 . S
C899 C900 1.497 . S
C900 C899 1.497 . S
C900 C901 1.395 . S
C900 C902 1.380 . S
C901 C900 1.395 . S
C901 C904 1.398 . S
C901 H916 0.930 . S
C902 C900 1.380 . S
C902 C903 1.391 . S
C902 H917 0.930 . S
C903 C902 1.391 . S
C903 C905 1.387 . S
C904 C901 1.398 . S
C904 C905 1.380 . S
C904 H918 0.930 . S
C905 C903 1.387 . S
C905 C904 1.380 . S
C905 H919 0.930 . S
C906 O886 1.254 . S
C906 O887 1.268 . S
C907 O891 1.284 . S
C907 O894 1.250 . S
C908 Gd841 2.828 . S
C908 O890 1.258 . S
C908 O895 1.252 . S
C908 C909 1.497 . S
C909 C908 1.497 . S
C909 C910 1.395 . S
C909 C911 1.380 . S
C910 C909 1.395 . S
C910 C913 1.398 . S
C910 H920 0.930 . S
C911 C909 1.380 . S
C911 C912 1.391 . S
C911 H921 0.930 . S
C912 C911 1.391 . S
C912 C914 1.387 . S
C913 C910 1.398 . S
C913 C914 1.380 . S
C913 H922 0.930 . S
C914 C912 1.387 . S
C914 C913 1.380 . S
C914 H923 0.930 . S
C915 O892 1.254 . S
C915 O893 1.268 . S
H916 C901 0.930 . S
H917 C902 0.930 . S
H918 C904 0.930 . S
H919 C905 0.930 . S
H920 C910 0.930 . S
H921 C911 0.930 . S
H922 C913 0.930 . S
H923 C914 0.930 . S
Gd924 N955 2.661 . S
Gd924 N961 2.601 . S
Gd924 O968 2.545 . S
Gd924 O969 2.606 . S
Gd924 O971 2.429 . S
Gd924 O972 2.545 . S
Gd924 O973 2.412 . S
Gd924 O975 2.362 . S
Gd924 O976 2.324 . S
Gd924 C983 2.828 . S
Gd925 N934 2.661 . S
Gd925 N938 2.601 . S
Gd925 O969 2.362 . S
Gd925 O970 2.324 . S
Gd925 O974 2.545 . S
Gd925 O975 2.606 . S
Gd925 O977 2.429 . S
Gd925 O978 2.545 . S
Gd925 O979 2.412 . S
Gd925 C992 2.828 . S
C926 C929 1.417 . S
C926 C931 1.431 . S
C926 C932 1.412 . S
C927 C930 1.437 . S
C927 C931 1.317 . S
C927 H946 0.929 . S
C928 C929 1.426 . S
C928 C930 1.413 . S
C928 N938 1.359 . S
C929 C926 1.417 . S
C929 C928 1.426 . S
C929 N934 1.350 . S
C930 C927 1.437 . S
C930 C928 1.413 . S
C930 C940 1.391 . S
C931 C926 1.431 . S
C931 C927 1.317 . S
C931 H942 0.930 . S
C932 C926 1.412 . S
C932 C933 1.355 . S
C932 H944 0.930 . S
C933 C932 1.355 . S
C933 C935 1.402 . S
C933 H945 0.930 . S
N934 Gd925 2.661 . S
N934 C929 1.350 . S
N934 C935 1.307 . S
C935 C933 1.402 . S
C935 N934 1.307 . S
C935 H936 0.930 . S
H936 C935 0.930 . S
C937 N938 1.334 . S
C937 C939 1.394 . S
C937 H941 0.930 . S
N938 Gd925 2.601 . S
N938 C928 1.359 . S
N938 C937 1.334 . S
C939 C937 1.394 . S
C939 C940 1.359 . S
C939 H951 0.930 . S
C940 C930 1.391 . S
C940 C939 1.359 . S
C940 H952 0.929 . S
H941 C937 0.930 . S
H942 C931 0.930 . S
H943 C960 0.930 . S
H944 C932 0.930 . S
H945 C933 0.930 . S
H946 C927 0.929 . S
H947 C965 0.930 . S
H948 C956 0.930 . S
H949 C957 0.930 . S
H950 C981 0.929 . S
H951 C939 0.930 . S
H952 C940 0.929 . S
H953 C982 0.930 . S
H954 C963 0.930 . S
N955 Gd924 2.661 . S
N955 C959 1.350 . S
N955 C960 1.307 . S
C956 H948 0.930 . S
C956 C957 1.355 . S
C956 C958 1.412 . S
C957 H949 0.930 . S
C957 C956 1.355 . S
C957 C960 1.402 . S
C958 C956 1.412 . S
C958 C959 1.417 . S
C958 C982 1.431 . S
C959 N955 1.350 . S
C959 C958 1.417 . S
C959 C962 1.426 . S
C960 H943 0.930 . S
C960 N955 1.307 . S
C960 C957 1.402 . S
N961 Gd924 2.601 . S
N961 C962 1.359 . S
N961 C965 1.334 . S
C962 C959 1.426 . S
C962 N961 1.359 . S
C962 C966 1.413 . S
C963 H954 0.930 . S
C963 C964 1.359 . S
C963 C965 1.394 . S
C964 C963 1.359 . S
C964 C966 1.391 . S
C964 H967 0.929 . S
C965 H947 0.930 . S
C965 N961 1.334 . S
C965 C963 1.394 . S
C966 C962 1.413 . S
C966 C964 1.391 . S
C966 C981 1.437 . S
H967 C964 0.929 . S
O968 Gd924 2.545 . S
O968 C983 1.258 . S
O969 Gd924 2.606 . S
O969 Gd925 2.362 . S
O969 C980 1.284 . S
O970 Gd925 2.324 . S
O970 C990 1.254 . S
O971 Gd924 2.429 . S
O971 C990 1.268 . S
O972 Gd924 2.545 . S
O972 C980 1.250 . S
O973 Gd924 2.412 . S
O973 C983 1.252 . S
O974 Gd925 2.545 . S
O974 C992 1.258 . S
O975 Gd924 2.362 . S
O975 Gd925 2.606 . S
O975 C991 1.284 . S
O976 Gd924 2.324 . S
O976 C999 1.254 . S
O977 Gd925 2.429 . S
O977 C999 1.268 . S
O978 Gd925 2.545 . S
O978 C991 1.250 . S
O979 Gd925 2.412 . S
O979 C992 1.252 . S
C980 O969 1.284 . S
C980 O972 1.250 . S
C981 H950 0.929 . S
C981 C966 1.437 . S
C981 C982 1.317 . S
C982 H953 0.930 . S
C982 C958 1.431 . S
C982 C981 1.317 . S
C983 Gd924 2.828 . S
C983 O968 1.258 . S
C983 O973 1.252 . S
C983 C984 1.497 . S
C984 C983 1.497 . S
C984 C985 1.395 . S
C984 C986 1.380 . S
C985 C984 1.395 . S
C985 C988 1.398 . S
C985 H1000 0.930 . S
C986 C984 1.380 . S
C986 C987 1.391 . S
C986 H1001 0.930 . S
C987 C986 1.391 . S
C987 C989 1.387 . S
C988 C985 1.398 . S
C988 C989 1.380 . S
C988 H1002 0.930 . S
C989 C987 1.387 . S
C989 C988 1.380 . S
C989 H1003 0.930 . S
C990 O970 1.254 . S
C990 O971 1.268 . S
C991 O975 1.284 . S
C991 O978 1.250 . S
C992 Gd925 2.828 . S
C992 O974 1.258 . S
C992 O979 1.252 . S
C992 C993 1.497 . S
C993 C992 1.497 . S
C993 C994 1.395 . S
C993 C995 1.380 . S
C994 C993 1.395 . S
C994 C997 1.398 . S
C994 H1004 0.930 . S
C995 C993 1.380 . S
C995 C996 1.391 . S
C995 H1005 0.930 . S
C996 C995 1.391 . S
C996 C998 1.387 . S
C997 C994 1.398 . S
C997 C998 1.380 . S
C997 H1006 0.930 . S
C998 C996 1.387 . S
C998 C997 1.380 . S
C998 H1007 0.930 . S
C999 O976 1.254 . S
C999 O977 1.268 . S
H1000 C985 0.930 . S
H1001 C986 0.930 . S
H1002 C988 0.930 . S
H1003 C989 0.930 . S
H1004 C994 0.930 . S
H1005 C995 0.930 . S
H1006 C997 0.930 . S
H1007 C998 0.930 . S
Gd1008 N1039 2.661 . S
Gd1008 N1045 2.601 . S
Gd1008 O1052 2.545 . S
Gd1008 O1053 2.606 . S
Gd1008 O1055 2.429 . S
Gd1008 O1056 2.545 . S
Gd1008 O1057 2.412 . S
Gd1008 O1059 2.362 . S
Gd1008 O1060 2.324 . S
Gd1008 C1067 2.828 . S
Gd1009 N1018 2.661 . S
Gd1009 N1022 2.601 . S
Gd1009 O1053 2.362 . S
Gd1009 O1054 2.324 . S
Gd1009 O1058 2.545 . S
Gd1009 O1059 2.606 . S
Gd1009 O1061 2.429 . S
Gd1009 O1062 2.545 . S
Gd1009 O1063 2.412 . S
Gd1009 C1076 2.828 . S
C1010 C1013 1.417 . S
C1010 C1015 1.431 . S
C1010 C1016 1.412 . S
C1011 C1014 1.437 . S
C1011 C1015 1.317 . S
C1011 H1030 0.929 . S
C1012 C1013 1.426 . S
C1012 C1014 1.413 . S
C1012 N1022 1.359 . S
C1013 C1010 1.417 . S
C1013 C1012 1.426 . S
C1013 N1018 1.350 . S
C1014 C1011 1.437 . S
C1014 C1012 1.413 . S
C1014 C1024 1.391 . S
C1015 C1010 1.431 . S
C1015 C1011 1.317 . S
C1015 H1026 0.930 . S
C1016 C1010 1.412 . S
C1016 C1017 1.355 . S
C1016 H1028 0.930 . S
C1017 C1016 1.355 . S
C1017 C1019 1.402 . S
C1017 H1029 0.930 . S
N1018 Gd1009 2.661 . S
N1018 C1013 1.350 . S
N1018 C1019 1.307 . S
C1019 C1017 1.402 . S
C1019 N1018 1.307 . S
C1019 H1020 0.930 . S
H1020 C1019 0.930 . S
C1021 N1022 1.334 . S
C1021 C1023 1.394 . S
C1021 H1025 0.930 . S
N1022 Gd1009 2.601 . S
N1022 C1012 1.359 . S
N1022 C1021 1.334 . S
C1023 C1021 1.394 . S
C1023 C1024 1.359 . S
C1023 H1035 0.930 . S
C1024 C1014 1.391 . S
C1024 C1023 1.359 . S
C1024 H1036 0.929 . S
H1025 C1021 0.930 . S
H1026 C1015 0.930 . S
H1027 C1044 0.930 . S
H1028 C1016 0.930 . S
H1029 C1017 0.930 . S
H1030 C1011 0.929 . S
H1031 C1049 0.930 . S
H1032 C1040 0.930 1_455 S
H1033 C1041 0.913 1_455 S
H1034 C1065 0.929 . S
H1035 C1023 0.930 . S
H1036 C1024 0.929 . S
H1037 C1066 0.930 . S
H1038 C1047 0.930 . S
N1039 Gd1008 2.661 . S
N1039 C1043 1.350 . S
N1039 C1044 1.307 . S
C1040 H1032 0.930 1_655 S
C1040 C1041 1.355 . S
C1040 C1042 1.412 . S
C1041 H1033 0.913 1_655 S
C1041 C1040 1.355 . S
C1041 C1044 1.402 . S
C1042 C1040 1.412 . S
C1042 C1043 1.417 . S
C1042 C1066 1.431 . S
C1043 N1039 1.350 . S
C1043 C1042 1.417 . S
C1043 C1046 1.426 . S
C1044 H1027 0.930 . S
C1044 N1039 1.307 . S
C1044 C1041 1.402 . S
N1045 Gd1008 2.601 . S
N1045 C1046 1.359 . S
N1045 C1049 1.334 . S
C1046 C1043 1.426 . S
C1046 N1045 1.359 . S
C1046 C1050 1.413 . S
C1047 H1038 0.930 . S
C1047 C1048 1.359 . S
C1047 C1049 1.394 . S
C1048 C1047 1.359 . S
C1048 C1050 1.391 . S
C1048 H1051 0.929 . S
C1049 H1031 0.930 . S
C1049 N1045 1.334 . S
C1049 C1047 1.394 . S
C1050 C1046 1.413 . S
C1050 C1048 1.391 . S
C1050 C1065 1.437 . S
H1051 C1048 0.929 . S
O1052 Gd1008 2.545 . S
O1052 C1067 1.258 . S
O1053 Gd1008 2.606 . S
O1053 Gd1009 2.362 . S
O1053 C1064 1.284 . S
O1054 Gd1009 2.324 . S
O1054 C1074 1.254 . S
O1055 Gd1008 2.429 . S
O1055 C1074 1.268 . S
O1056 Gd1008 2.545 . S
O1056 C1064 1.250 . S
O1057 Gd1008 2.412 . S
O1057 C1067 1.252 . S
O1058 Gd1009 2.545 . S
O1058 C1076 1.258 . S
O1059 Gd1008 2.362 . S
O1059 Gd1009 2.606 . S
O1059 C1075 1.284 . S
O1060 Gd1008 2.324 . S
O1060 C1083 1.254 . S
O1061 Gd1009 2.429 . S
O1061 C1083 1.268 . S
O1062 Gd1009 2.545 . S
O1062 C1075 1.250 . S
O1063 Gd1009 2.412 . S
O1063 C1076 1.252 . S
C1064 O1053 1.284 . S
C1064 O1056 1.250 . S
C1065 H1034 0.929 . S
C1065 C1050 1.437 . S
C1065 C1066 1.317 . S
C1066 H1037 0.930 . S
C1066 C1042 1.431 . S
C1066 C1065 1.317 . S
C1067 Gd1008 2.828 . S
C1067 O1052 1.258 . S
C1067 O1057 1.252 . S
C1067 C1068 1.497 . S
C1068 C1067 1.497 . S
C1068 C1069 1.395 . S
C1068 C1070 1.380 . S
C1069 C1068 1.395 . S
C1069 C1072 1.398 . S
C1069 H1084 0.930 . S
C1070 C1068 1.380 . S
C1070 C1071 1.391 . S
C1070 H1085 0.930 . S
C1071 C1070 1.391 . S
C1071 C1073 1.387 . S
C1072 C1069 1.398 . S
C1072 C1073 1.380 . S
C1072 H1086 0.930 . S
C1073 C1071 1.387 . S
C1073 C1072 1.380 . S
C1073 H1087 0.930 . S
C1074 O1054 1.254 . S
C1074 O1055 1.268 . S
C1075 O1059 1.284 . S
C1075 O1062 1.250 . S
C1076 Gd1009 2.828 . S
C1076 O1058 1.258 . S
C1076 O1063 1.252 . S
C1076 C1077 1.497 . S
C1077 C1076 1.497 . S
C1077 C1078 1.395 . S
C1077 C1079 1.380 . S
C1078 C1077 1.395 . S
C1078 C1081 1.398 . S
C1078 H1088 0.930 . S
C1079 C1077 1.380 . S
C1079 C1080 1.391 . S
C1079 H1089 0.930 . S
C1080 C1079 1.391 . S
C1080 C1082 1.387 . S
C1081 C1078 1.398 . S
C1081 C1082 1.380 . S
C1081 H1090 0.930 . S
C1082 C1080 1.387 . S
C1082 C1081 1.380 . S
C1082 H1091 0.930 . S
C1083 O1060 1.254 . S
C1083 O1061 1.268 . S
H1084 C1069 0.930 . S
H1085 C1070 0.930 . S
H1086 C1072 0.930 . S
H1087 C1073 0.930 . S
H1088 C1078 0.930 . S
H1089 C1079 0.930 . S
H1090 C1081 0.930 . S
H1091 C1082 0.930 . S
Gd1092 N1123 2.661 . S
Gd1092 N1129 2.601 . S
Gd1092 O1136 2.545 . S
Gd1092 O1137 2.606 . S
Gd1092 O1139 2.429 . S
Gd1092 O1140 2.545 . S
Gd1092 O1141 2.412 . S
Gd1092 O1143 2.362 . S
Gd1092 O1144 2.324 . S
Gd1092 C1151 2.828 . S
Gd1093 N1102 2.661 . S
Gd1093 N1106 2.601 . S
Gd1093 O1137 2.362 . S
Gd1093 O1138 2.324 . S
Gd1093 O1142 2.545 . S
Gd1093 O1143 2.606 . S
Gd1093 O1145 2.429 . S
Gd1093 O1146 2.545 . S
Gd1093 O1147 2.412 . S
Gd1093 C1160 2.828 . S
C1094 C1097 1.417 . S
C1094 C1099 1.431 . S
C1094 C1100 1.412 . S
C1095 C1098 1.437 . S
C1095 C1099 1.317 . S
C1095 H1114 0.929 . S
C1096 C1097 1.426 . S
C1096 C1098 1.413 . S
C1096 N1106 1.359 . S
C1097 C1094 1.417 . S
C1097 C1096 1.426 . S
C1097 N1102 1.350 . S
C1098 C1095 1.437 . S
C1098 C1096 1.413 . S
C1098 C1108 1.391 . S
C1099 C1094 1.431 . S
C1099 C1095 1.317 . S
C1099 H1110 0.930 . S
C1100 C1094 1.412 . S
C1100 C1101 1.355 . S
C1100 H1112 0.930 . S
C1101 C1100 1.355 . S
C1101 C1103 1.402 . S
C1101 H1113 0.930 . S
N1102 Gd1093 2.661 . S
N1102 C1097 1.350 . S
N1102 C1103 1.307 . S
C1103 C1101 1.402 . S
C1103 N1102 1.307 . S
C1103 H1104 0.930 . S
H1104 C1103 0.930 . S
C1105 N1106 1.334 . S
C1105 C1107 1.394 . S
C1105 H1109 0.930 . S
N1106 Gd1093 2.601 . S
N1106 C1096 1.359 . S
N1106 C1105 1.334 . S
C1107 C1105 1.394 . S
C1107 C1108 1.359 . S
C1107 H1119 0.930 . S
C1108 C1098 1.391 . S
C1108 C1107 1.359 . S
C1108 H1120 0.929 . S
H1109 C1105 0.930 . S
H1110 C1099 0.930 . S
H1111 C1128 0.930 . S
H1112 C1100 0.930 . S
H1113 C1101 0.930 . S
H1114 C1095 0.929 . S
H1115 C1133 0.930 . S
H1116 C1124 0.930 . S
H1117 C1125 0.930 . S
H1118 C1149 0.929 . S
H1119 C1107 0.930 . S
H1120 C1108 0.929 . S
H1121 C1150 0.930 . S
H1122 C1131 0.930 . S
N1123 Gd1092 2.661 . S
N1123 C1127 1.350 . S
N1123 C1128 1.307 . S
C1124 H1116 0.930 . S
C1124 C1125 1.355 . S
C1124 C1126 1.412 . S
C1125 H1117 0.930 . S
C1125 C1124 1.355 . S
C1125 C1128 1.402 . S
C1126 C1124 1.412 . S
C1126 C1127 1.417 . S
C1126 C1150 1.431 . S
C1127 N1123 1.350 . S
C1127 C1126 1.417 . S
C1127 C1130 1.426 . S
C1128 H1111 0.930 . S
C1128 N1123 1.307 . S
C1128 C1125 1.402 . S
N1129 Gd1092 2.601 . S
N1129 C1130 1.359 . S
N1129 C1133 1.334 . S
C1130 C1127 1.426 . S
C1130 N1129 1.359 . S
C1130 C1134 1.413 . S
C1131 H1122 0.930 . S
C1131 C1132 1.359 . S
C1131 C1133 1.394 . S
C1132 C1131 1.359 . S
C1132 C1134 1.391 . S
C1132 H1135 0.929 . S
C1133 H1115 0.930 . S
C1133 N1129 1.334 . S
C1133 C1131 1.394 . S
C1134 C1130 1.413 . S
C1134 C1132 1.391 . S
C1134 C1149 1.437 . S
H1135 C1132 0.929 . S
O1136 Gd1092 2.545 . S
O1136 C1151 1.258 . S
O1137 Gd1092 2.606 . S
O1137 Gd1093 2.362 . S
O1137 C1148 1.284 . S
O1138 Gd1093 2.324 . S
O1138 C1158 1.254 . S
O1139 Gd1092 2.429 . S
O1139 C1158 1.268 . S
O1140 Gd1092 2.545 . S
O1140 C1148 1.250 . S
O1141 Gd1092 2.412 . S
O1141 C1151 1.252 . S
O1142 Gd1093 2.545 . S
O1142 C1160 1.258 . S
O1143 Gd1092 2.362 . S
O1143 Gd1093 2.606 . S
O1143 C1159 1.284 . S
O1144 Gd1092 2.324 . S
O1144 C1167 1.254 . S
O1145 Gd1093 2.429 . S
O1145 C1167 1.268 . S
O1146 Gd1093 2.545 . S
O1146 C1159 1.250 . S
O1147 Gd1093 2.412 . S
O1147 C1160 1.252 . S
C1148 O1137 1.284 . S
C1148 O1140 1.250 . S
C1149 H1118 0.929 . S
C1149 C1134 1.437 . S
C1149 C1150 1.317 . S
C1150 H1121 0.930 . S
C1150 C1126 1.431 . S
C1150 C1149 1.317 . S
C1151 Gd1092 2.828 . S
C1151 O1136 1.258 . S
C1151 O1141 1.252 . S
C1151 C1152 1.497 . S
C1152 C1151 1.497 . S
C1152 C1153 1.395 . S
C1152 C1154 1.380 . S
C1153 C1152 1.395 . S
C1153 C1156 1.398 . S
C1153 H1168 0.930 . S
C1154 C1152 1.380 . S
C1154 C1155 1.391 . S
C1154 H1169 0.930 . S
C1155 C1154 1.391 . S
C1155 C1157 1.387 . S
C1156 C1153 1.398 . S
C1156 C1157 1.380 . S
C1156 H1170 0.930 . S
C1157 C1155 1.387 . S
C1157 C1156 1.380 . S
C1157 H1171 0.930 . S
C1158 O1138 1.254 . S
C1158 O1139 1.268 . S
C1159 O1143 1.284 . S
C1159 O1146 1.250 . S
C1160 Gd1093 2.828 . S
C1160 O1142 1.258 . S
C1160 O1147 1.252 . S
C1160 C1161 1.497 . S
C1161 C1160 1.497 . S
C1161 C1162 1.395 . S
C1161 C1163 1.380 . S
C1162 C1161 1.395 . S
C1162 C1165 1.398 . S
C1162 H1172 0.930 . S
C1163 C1161 1.380 . S
C1163 C1164 1.391 . S
C1163 H1173 0.930 . S
C1164 C1163 1.391 . S
C1164 C1166 1.387 . S
C1165 C1162 1.398 . S
C1165 C1166 1.380 . S
C1165 H1174 0.930 . S
C1166 C1164 1.387 . S
C1166 C1165 1.380 . S
C1166 H1175 0.930 . S
C1167 O1144 1.254 . S
C1167 O1145 1.268 . S
H1168 C1153 0.930 . S
H1169 C1154 0.930 . S
H1170 C1156 0.930 . S
H1171 C1157 0.930 . S
H1172 C1162 0.930 . S
H1173 C1163 0.930 . S
H1174 C1165 0.930 . S
H1175 C1166 0.930 . S
Gd1176 N1207 2.661 . S
Gd1176 N1213 2.601 . S
Gd1176 O1220 2.545 . S
Gd1176 O1221 2.606 . S
Gd1176 O1223 2.429 . S
Gd1176 O1224 2.545 . S
Gd1176 O1225 2.412 . S
Gd1176 O1227 2.362 . S
Gd1176 O1228 2.324 . S
Gd1176 C1235 2.828 . S
Gd1177 N1186 2.661 . S
Gd1177 N1190 2.601 . S
Gd1177 O1221 2.362 . S
Gd1177 O1222 2.324 . S
Gd1177 O1226 2.545 . S
Gd1177 O1227 2.606 . S
Gd1177 O1229 2.429 . S
Gd1177 O1230 2.545 . S
Gd1177 O1231 2.412 . S
Gd1177 C1244 2.828 . S
C1178 C1181 1.417 . S
C1178 C1183 1.431 . S
C1178 C1184 1.412 . S
C1179 C1182 1.437 . S
C1179 C1183 1.317 . S
C1179 H1198 0.929 . S
C1180 C1181 1.426 . S
C1180 C1182 1.413 . S
C1180 N1190 1.359 . S
C1181 C1178 1.417 . S
C1181 C1180 1.426 . S
C1181 N1186 1.350 . S
C1182 C1179 1.437 . S
C1182 C1180 1.413 . S
C1182 C1192 1.391 . S
C1183 C1178 1.431 . S
C1183 C1179 1.317 . S
C1183 H1194 0.930 . S
C1184 C1178 1.412 . S
C1184 C1185 1.355 . S
C1184 H1196 0.930 . S
C1185 C1184 1.355 . S
C1185 C1187 1.402 . S
C1185 H1197 0.930 . S
N1186 Gd1177 2.661 . S
N1186 C1181 1.350 . S
N1186 C1187 1.307 . S
C1187 C1185 1.402 . S
C1187 N1186 1.307 . S
C1187 H1188 0.930 . S
H1188 C1187 0.930 . S
C1189 N1190 1.334 . S
C1189 C1191 1.394 . S
C1189 H1193 0.930 . S
N1190 Gd1177 2.601 . S
N1190 C1180 1.359 . S
N1190 C1189 1.334 . S
C1191 C1189 1.394 . S
C1191 C1192 1.359 . S
C1191 H1203 0.930 . S
C1192 C1182 1.391 . S
C1192 C1191 1.359 . S
C1192 H1204 0.929 . S
H1193 C1189 0.930 . S
H1194 C1183 0.930 . S
H1195 C1212 0.930 . S
H1196 C1184 0.930 . S
H1197 C1185 0.930 . S
H1198 C1179 0.929 . S
H1199 C1217 0.930 . S
H1200 C1208 0.930 . S
H1201 C1209 0.930 . S
H1202 C1233 0.929 . S
H1203 C1191 0.930 . S
H1204 C1192 0.929 . S
H1205 C1234 0.930 . S
H1206 C1215 0.930 . S
N1207 Gd1176 2.661 . S
N1207 C1211 1.350 . S
N1207 C1212 1.307 . S
C1208 H1200 0.930 . S
C1208 C1209 1.355 . S
C1208 C1210 1.412 . S
C1209 H1201 0.930 . S
C1209 C1208 1.355 . S
C1209 C1212 1.402 . S
C1210 C1208 1.412 . S
C1210 C1211 1.417 . S
C1210 C1234 1.431 . S
C1211 N1207 1.350 . S
C1211 C1210 1.417 . S
C1211 C1214 1.426 . S
C1212 H1195 0.930 . S
C1212 N1207 1.307 . S
C1212 C1209 1.402 . S
N1213 Gd1176 2.601 . S
N1213 C1214 1.359 . S
N1213 C1217 1.334 . S
C1214 C1211 1.426 . S
C1214 N1213 1.359 . S
C1214 C1218 1.413 . S
C1215 H1206 0.930 . S
C1215 C1216 1.359 . S
C1215 C1217 1.394 . S
C1216 C1215 1.359 . S
C1216 C1218 1.391 . S
C1216 H1219 0.929 . S
C1217 H1199 0.930 . S
C1217 N1213 1.334 . S
C1217 C1215 1.394 . S
C1218 C1214 1.413 . S
C1218 C1216 1.391 . S
C1218 C1233 1.437 . S
H1219 C1216 0.929 . S
O1220 Gd1176 2.545 . S
O1220 C1235 1.258 . S
O1221 Gd1176 2.606 . S
O1221 Gd1177 2.362 . S
O1221 C1232 1.284 . S
O1222 Gd1177 2.324 . S
O1222 C1242 1.254 . S
O1223 Gd1176 2.429 . S
O1223 C1242 1.268 . S
O1224 Gd1176 2.545 . S
O1224 C1232 1.250 . S
O1225 Gd1176 2.412 . S
O1225 C1235 1.252 . S
O1226 Gd1177 2.545 . S
O1226 C1244 1.258 . S
O1227 Gd1176 2.362 . S
O1227 Gd1177 2.606 . S
O1227 C1243 1.284 . S
O1228 Gd1176 2.324 . S
O1228 C1251 1.254 . S
O1229 Gd1177 2.429 . S
O1229 C1251 1.268 . S
O1230 Gd1177 2.545 . S
O1230 C1243 1.250 . S
O1231 Gd1177 2.412 . S
O1231 C1244 1.252 . S
C1232 O1221 1.284 . S
C1232 O1224 1.250 . S
C1233 H1202 0.929 . S
C1233 C1218 1.437 . S
C1233 C1234 1.317 . S
C1234 H1205 0.930 . S
C1234 C1210 1.431 . S
C1234 C1233 1.317 . S
C1235 Gd1176 2.828 . S
C1235 O1220 1.258 . S
C1235 O1225 1.252 . S
C1235 C1236 1.497 . S
C1236 C1235 1.497 . S
C1236 C1237 1.395 . S
C1236 C1238 1.380 . S
C1237 C1236 1.395 . S
C1237 C1240 1.398 . S
C1237 H1252 0.930 . S
C1238 C1236 1.380 . S
C1238 C1239 1.391 . S
C1238 H1253 0.930 . S
C1239 C1238 1.391 . S
C1239 C1241 1.387 . S
C1240 C1237 1.398 . S
C1240 C1241 1.380 . S
C1240 H1254 0.930 . S
C1241 C1239 1.387 . S
C1241 C1240 1.380 . S
C1241 H1255 0.930 . S
C1242 O1222 1.254 . S
C1242 O1223 1.268 . S
C1243 O1227 1.284 . S
C1243 O1230 1.250 . S
C1244 Gd1177 2.828 . S
C1244 O1226 1.258 . S
C1244 O1231 1.252 . S
C1244 C1245 1.497 . S
C1245 C1244 1.497 . S
C1245 C1246 1.395 . S
C1245 C1247 1.380 . S
C1246 C1245 1.395 . S
C1246 C1249 1.398 . S
C1246 H1256 0.930 . S
C1247 C1245 1.380 . S
C1247 C1248 1.391 . S
C1247 H1257 0.930 . S
C1248 C1247 1.391 . S
C1248 C1250 1.387 1_554 S
C1249 C1246 1.398 . S
C1249 C1250 1.380 1_554 S
C1249 H1258 0.930 . S
C1250 C1248 1.387 1_556 S
C1250 C1249 1.380 1_556 S
C1250 H1259 0.930 . S
C1251 O1228 1.254 . S
C1251 O1229 1.268 . S
H1252 C1237 0.930 . S
H1253 C1238 0.930 . S
H1254 C1240 0.930 . S
H1255 C1241 0.930 . S
H1256 C1246 0.930 . S
H1257 C1247 0.930 . S
H1258 C1249 0.930 . S
H1259 C1250 0.930 . S
Gd1260 N1291 2.661 . S
Gd1260 N1297 2.601 . S
Gd1260 O1304 2.545 . S
Gd1260 O1305 2.606 . S
Gd1260 O1307 2.429 . S
Gd1260 O1308 2.545 . S
Gd1260 O1309 2.412 . S
Gd1260 O1311 2.362 . S
Gd1260 O1312 2.324 . S
Gd1260 C1319 2.828 . S
Gd1261 N1270 2.661 . S
Gd1261 N1274 2.601 . S
Gd1261 O1305 2.362 . S
Gd1261 O1306 2.324 . S
Gd1261 O1310 2.545 . S
Gd1261 O1311 2.606 . S
Gd1261 O1313 2.429 . S
Gd1261 O1314 2.545 . S
Gd1261 O1315 2.412 . S
Gd1261 C1328 2.828 . S
C1262 C1265 1.417 . S
C1262 C1267 1.431 . S
C1262 C1268 1.412 . S
C1263 C1266 1.437 . S
C1263 C1267 1.317 . S
C1263 H1282 0.929 . S
C1264 C1265 1.426 . S
C1264 C1266 1.413 . S
C1264 N1274 1.359 . S
C1265 C1262 1.417 . S
C1265 C1264 1.426 . S
C1265 N1270 1.350 . S
C1266 C1263 1.437 . S
C1266 C1264 1.413 . S
C1266 C1276 1.391 . S
C1267 C1262 1.431 . S
C1267 C1263 1.317 . S
C1267 H1278 0.930 . S
C1268 C1262 1.412 . S
C1268 C1269 1.355 . S
C1268 H1280 0.930 . S
C1269 C1268 1.355 . S
C1269 C1271 1.402 . S
C1269 H1281 0.930 . S
N1270 Gd1261 2.661 . S
N1270 C1265 1.350 . S
N1270 C1271 1.307 . S
C1271 C1269 1.402 . S
C1271 N1270 1.307 . S
C1271 H1272 0.930 . S
H1272 C1271 0.930 . S
C1273 N1274 1.334 . S
C1273 C1275 1.394 . S
C1273 H1277 0.930 . S
N1274 Gd1261 2.601 . S
N1274 C1264 1.359 . S
N1274 C1273 1.334 . S
C1275 C1273 1.394 . S
C1275 C1276 1.359 . S
C1275 H1287 0.930 . S
C1276 C1266 1.391 . S
C1276 C1275 1.359 . S
C1276 H1288 0.929 . S
H1277 C1273 0.930 . S
H1278 C1267 0.930 . S
H1279 C1296 0.930 . S
H1280 C1268 0.930 . S
H1281 C1269 0.930 . S
H1282 C1263 0.929 . S
H1283 C1301 0.930 . S
H1284 C1292 0.930 . S
H1285 C1293 0.930 . S
H1286 C1317 0.929 . S
H1287 C1275 0.930 . S
H1288 C1276 0.929 . S
H1289 C1318 0.930 . S
H1290 C1299 0.930 . S
N1291 Gd1260 2.661 . S
N1291 C1295 1.350 . S
N1291 C1296 1.307 . S
C1292 H1284 0.930 . S
C1292 C1293 1.355 . S
C1292 C1294 1.412 . S
C1293 H1285 0.930 . S
C1293 C1292 1.355 . S
C1293 C1296 1.402 . S
C1294 C1292 1.412 . S
C1294 C1295 1.417 . S
C1294 C1318 1.431 . S
C1295 N1291 1.350 . S
C1295 C1294 1.417 . S
C1295 C1298 1.426 . S
C1296 H1279 0.930 . S
C1296 N1291 1.307 . S
C1296 C1293 1.402 . S
N1297 Gd1260 2.601 . S
N1297 C1298 1.359 . S
N1297 C1301 1.334 . S
C1298 C1295 1.426 . S
C1298 N1297 1.359 . S
C1298 C1302 1.413 . S
C1299 H1290 0.930 . S
C1299 C1300 1.359 . S
C1299 C1301 1.394 . S
C1300 C1299 1.359 . S
C1300 C1302 1.391 . S
C1300 H1303 0.929 . S
C1301 H1283 0.930 . S
C1301 N1297 1.334 . S
C1301 C1299 1.394 . S
C1302 C1298 1.413 . S
C1302 C1300 1.391 . S
C1302 C1317 1.437 . S
H1303 C1300 0.929 . S
O1304 Gd1260 2.545 . S
O1304 C1319 1.258 . S
O1305 Gd1260 2.606 . S
O1305 Gd1261 2.362 . S
O1305 C1316 1.284 . S
O1306 Gd1261 2.324 . S
O1306 C1326 1.254 . S
O1307 Gd1260 2.429 . S
O1307 C1326 1.268 . S
O1308 Gd1260 2.545 . S
O1308 C1316 1.250 . S
O1309 Gd1260 2.412 . S
O1309 C1319 1.252 . S
O1310 Gd1261 2.545 . S
O1310 C1328 1.258 . S
O1311 Gd1260 2.362 . S
O1311 Gd1261 2.606 . S
O1311 C1327 1.284 . S
O1312 Gd1260 2.324 . S
O1312 C1335 1.254 . S
O1313 Gd1261 2.429 . S
O1313 C1335 1.268 . S
O1314 Gd1261 2.545 . S
O1314 C1327 1.250 . S
O1315 Gd1261 2.412 . S
O1315 C1328 1.252 . S
C1316 O1305 1.284 . S
C1316 O1308 1.250 . S
C1317 H1286 0.929 . S
C1317 C1302 1.437 . S
C1317 C1318 1.317 . S
C1318 H1289 0.930 . S
C1318 C1294 1.431 . S
C1318 C1317 1.317 . S
C1319 Gd1260 2.828 . S
C1319 O1304 1.258 . S
C1319 O1309 1.252 . S
C1319 C1320 1.497 . S
C1320 C1319 1.497 . S
C1320 C1321 1.395 . S
C1320 C1322 1.380 . S
C1321 C1320 1.395 . S
C1321 C1324 1.398 . S
C1321 H1336 0.930 . S
C1322 C1320 1.380 . S
C1322 C1323 1.391 . S
C1322 H1337 0.930 . S
C1323 C1322 1.391 . S
C1323 C1325 1.387 . S
C1324 C1321 1.398 . S
C1324 C1325 1.380 . S
C1324 H1338 0.930 . S
C1325 C1323 1.387 . S
C1325 C1324 1.380 . S
C1325 H1339 0.930 . S
C1326 O1306 1.254 . S
C1326 O1307 1.268 . S
C1327 O1311 1.284 . S
C1327 O1314 1.250 . S
C1328 Gd1261 2.828 . S
C1328 O1310 1.258 . S
C1328 O1315 1.252 . S
C1328 C1329 1.497 . S
C1329 C1328 1.497 . S
C1329 C1330 1.395 . S
C1329 C1331 1.380 . S
C1330 C1329 1.395 . S
C1330 C1333 1.398 . S
C1330 H1340 0.930 . S
C1331 C1329 1.380 . S
C1331 C1332 1.391 . S
C1331 H1341 0.930 . S
C1332 C1331 1.391 . S
C1332 C1334 1.387 . S
C1333 C1330 1.398 . S
C1333 C1334 1.380 . S
C1333 H1342 0.930 . S
C1334 C1332 1.387 . S
C1334 C1333 1.380 . S
C1334 H1343 0.931 . S
C1335 O1312 1.254 . S
C1335 O1313 1.268 . S
H1336 C1321 0.930 . S
H1337 C1322 0.930 . S
H1338 C1324 0.930 . S
H1339 C1325 0.930 . S
H1340 C1330 0.930 . S
H1341 C1331 0.930 . S
H1342 C1333 0.930 . S
H1343 C1334 0.931 . S
Gd1344 N1375 2.661 . S
Gd1344 N1381 2.601 . S
Gd1344 O1388 2.545 . S
Gd1344 O1389 2.606 . S
Gd1344 O1391 2.429 . S
Gd1344 O1392 2.545 . S
Gd1344 O1393 2.412 . S
Gd1344 O1395 2.362 . S
Gd1344 O1396 2.324 . S
Gd1344 C1403 2.828 . S
Gd1345 N1354 2.661 . S
Gd1345 N1358 2.601 . S
Gd1345 O1389 2.362 . S
Gd1345 O1390 2.324 . S
Gd1345 O1394 2.545 . S
Gd1345 O1395 2.606 . S
Gd1345 O1397 2.429 . S
Gd1345 O1398 2.545 . S
Gd1345 O1399 2.412 . S
Gd1345 C1412 2.828 . S
C1346 C1349 1.417 . S
C1346 C1351 1.431 . S
C1346 C1352 1.412 . S
C1347 C1350 1.437 . S
C1347 C1351 1.317 . S
C1347 H1366 0.929 . S
C1348 C1349 1.426 . S
C1348 C1350 1.413 . S
C1348 N1358 1.359 . S
C1349 C1346 1.417 . S
C1349 C1348 1.426 . S
C1349 N1354 1.350 . S
C1350 C1347 1.437 . S
C1350 C1348 1.413 . S
C1350 C1360 1.391 . S
C1351 C1346 1.431 . S
C1351 C1347 1.317 . S
C1351 H1362 0.930 . S
C1352 C1346 1.412 . S
C1352 C1353 1.355 . S
C1352 H1364 0.930 . S
C1353 C1352 1.355 . S
C1353 C1355 1.402 . S
C1353 H1365 0.930 . S
N1354 Gd1345 2.661 . S
N1354 C1349 1.350 . S
N1354 C1355 1.307 . S
C1355 C1353 1.402 . S
C1355 N1354 1.307 . S
C1355 H1356 0.930 . S
H1356 C1355 0.930 . S
C1357 N1358 1.334 . S
C1357 C1359 1.394 . S
C1357 H1361 0.930 . S
N1358 Gd1345 2.601 . S
N1358 C1348 1.359 . S
N1358 C1357 1.334 . S
C1359 C1357 1.394 . S
C1359 C1360 1.359 . S
C1359 H1371 0.930 . S
C1360 C1350 1.391 . S
C1360 C1359 1.359 . S
C1360 H1372 0.929 . S
H1361 C1357 0.930 . S
H1362 C1351 0.930 . S
H1363 C1380 0.930 . S
H1364 C1352 0.930 . S
H1365 C1353 0.930 . S
H1366 C1347 0.929 . S
H1367 C1385 0.944 . S
H1368 C1376 0.930 . S
H1369 C1377 0.930 . S
H1370 C1401 0.929 . S
H1371 C1359 0.930 . S
H1372 C1360 0.929 . S
H1373 C1402 0.930 . S
H1374 C1383 0.930 . S
N1375 Gd1344 2.661 . S
N1375 C1379 1.350 . S
N1375 C1380 1.307 . S
C1376 H1368 0.930 . S
C1376 C1377 1.355 . S
C1376 C1378 1.412 . S
C1377 H1369 0.930 . S
C1377 C1376 1.355 . S
C1377 C1380 1.402 . S
C1378 C1376 1.412 . S
C1378 C1379 1.417 . S
C1378 C1402 1.431 1_565 S
C1379 N1375 1.350 . S
C1379 C1378 1.417 . S
C1379 C1382 1.426 . S
C1380 H1363 0.930 . S
C1380 N1375 1.307 . S
C1380 C1377 1.402 . S
N1381 Gd1344 2.601 . S
N1381 C1382 1.359 . S
N1381 C1385 1.334 1_565 S
C1382 C1379 1.426 . S
C1382 N1381 1.359 . S
C1382 C1386 1.413 1_565 S
C1383 H1374 0.930 . S
C1383 C1384 1.359 . S
C1383 C1385 1.394 . S
C1384 C1383 1.359 . S
C1384 C1386 1.391 . S
C1384 H1387 0.929 . S
C1385 H1367 0.944 . S
C1385 N1381 1.334 1_545 S
C1385 C1383 1.394 . S
C1386 C1382 1.413 1_545 S
C1386 C1384 1.391 . S
C1386 C1401 1.437 . S
H1387 C1384 0.929 . S
O1388 Gd1344 2.545 . S
O1388 C1403 1.258 . S
O1389 Gd1344 2.606 . S
O1389 Gd1345 2.362 . S
O1389 C1400 1.284 . S
O1390 Gd1345 2.324 . S
O1390 C1410 1.254 . S
O1391 Gd1344 2.429 . S
O1391 C1410 1.268 . S
O1392 Gd1344 2.545 . S
O1392 C1400 1.250 . S
O1393 Gd1344 2.412 . S
O1393 C1403 1.252 . S
O1394 Gd1345 2.545 . S
O1394 C1412 1.258 . S
O1395 Gd1344 2.362 . S
O1395 Gd1345 2.606 . S
O1395 C1411 1.284 . S
O1396 Gd1344 2.324 . S
O1396 C1419 1.254 . S
O1397 Gd1345 2.429 . S
O1397 C1419 1.268 . S
O1398 Gd1345 2.545 . S
O1398 C1411 1.250 . S
O1399 Gd1345 2.412 . S
O1399 C1412 1.252 . S
C1400 O1389 1.284 . S
C1400 O1392 1.250 . S
C1401 H1370 0.929 . S
C1401 C1386 1.437 . S
C1401 C1402 1.317 . S
C1402 H1373 0.930 . S
C1402 C1378 1.431 1_545 S
C1402 C1401 1.317 . S
C1403 Gd1344 2.828 . S
C1403 O1388 1.258 . S
C1403 O1393 1.252 . S
C1403 C1404 1.497 . S
C1404 C1403 1.497 . S
C1404 C1405 1.395 . S
C1404 C1406 1.380 . S
C1405 C1404 1.395 . S
C1405 C1408 1.398 1_565 S
C1405 H1420 0.930 1_565 S
C1406 C1404 1.380 . S
C1406 C1407 1.391 . S
C1406 H1421 0.930 . S
C1407 C1406 1.391 . S
C1407 C1409 1.387 . S
C1408 C1405 1.398 1_545 S
C1408 C1409 1.380 1_545 S
C1408 H1422 0.930 . S
C1409 C1407 1.387 . S
C1409 C1408 1.380 1_565 S
C1409 H1423 0.930 . S
C1410 O1390 1.254 . S
C1410 O1391 1.268 . S
C1411 O1395 1.284 . S
C1411 O1398 1.250 . S
C1412 Gd1345 2.828 . S
C1412 O1394 1.258 . S
C1412 O1399 1.252 . S
C1412 C1413 1.497 . S
C1413 C1412 1.497 . S
C1413 C1414 1.395 . S
C1413 C1415 1.380 . S
C1414 C1413 1.395 . S
C1414 C1417 1.398 . S
C1414 H1424 0.930 . S
C1415 C1413 1.380 . S
C1415 C1416 1.391 . S
C1415 H1425 0.930 . S
C1416 C1415 1.391 . S
C1416 C1418 1.387 . S
C1417 C1414 1.398 . S
C1417 C1418 1.380 . S
C1417 H1426 0.930 . S
C1418 C1416 1.387 . S
C1418 C1417 1.380 . S
C1418 H1427 0.930 . S
C1419 O1396 1.254 . S
C1419 O1397 1.268 . S
H1420 C1405 0.930 1_545 S
H1421 C1406 0.930 . S
H1422 C1408 0.930 . S
H1423 C1409 0.930 . S
H1424 C1414 0.930 . S
H1425 C1415 0.930 . S
H1426 C1417 0.930 . S
H1427 C1418 0.930 . S
Gd1428 N1459 2.661 . S
Gd1428 N1465 2.601 . S
Gd1428 O1472 2.545 . S
Gd1428 O1473 2.606 . S
Gd1428 O1475 2.429 . S
Gd1428 O1476 2.545 . S
Gd1428 O1477 2.412 . S
Gd1428 O1479 2.362 . S
Gd1428 O1480 2.324 . S
Gd1428 C1487 2.828 . S
Gd1429 N1438 2.661 . S
Gd1429 N1442 2.601 . S
Gd1429 O1473 2.362 . S
Gd1429 O1474 2.324 . S
Gd1429 O1478 2.545 . S
Gd1429 O1479 2.606 . S
Gd1429 O1481 2.429 . S
Gd1429 O1482 2.545 . S
Gd1429 O1483 2.412 . S
Gd1429 C1496 2.828 . S
C1430 C1433 1.417 . S
C1430 C1435 1.431 . S
C1430 C1436 1.412 . S
C1431 C1434 1.437 . S
C1431 C1435 1.317 . S
C1431 H1450 0.929 . S
C1432 C1433 1.426 . S
C1432 C1434 1.413 . S
C1432 N1442 1.359 . S
C1433 C1430 1.417 . S
C1433 C1432 1.426 . S
C1433 N1438 1.350 . S
C1434 C1431 1.437 . S
C1434 C1432 1.413 . S
C1434 C1444 1.391 . S
C1435 C1430 1.431 . S
C1435 C1431 1.317 . S
C1435 H1446 0.930 . S
C1436 C1430 1.412 . S
C1436 C1437 1.355 . S
C1436 H1448 0.930 . S
C1437 C1436 1.355 . S
C1437 C1439 1.402 . S
C1437 H1449 0.930 . S
N1438 Gd1429 2.661 . S
N1438 C1433 1.350 . S
N1438 C1439 1.307 . S
C1439 C1437 1.402 . S
C1439 N1438 1.307 . S
C1439 H1440 0.930 . S
H1440 C1439 0.930 . S
C1441 N1442 1.334 . S
C1441 C1443 1.394 . S
C1441 H1445 0.930 . S
N1442 Gd1429 2.601 . S
N1442 C1432 1.359 . S
N1442 C1441 1.334 . S
C1443 C1441 1.394 . S
C1443 C1444 1.359 . S
C1443 H1455 0.930 . S
C1444 C1434 1.391 . S
C1444 C1443 1.359 . S
C1444 H1456 0.929 . S
H1445 C1441 0.930 . S
H1446 C1435 0.930 . S
H1447 C1464 0.930 . S
H1448 C1436 0.930 . S
H1449 C1437 0.930 . S
H1450 C1431 0.929 . S
H1451 C1469 0.930 . S
H1452 C1460 0.930 . S
H1453 C1461 0.930 . S
H1454 C1485 0.929 . S
H1455 C1443 0.930 . S
H1456 C1444 0.929 . S
H1457 C1486 0.930 . S
H1458 C1467 0.930 . S
N1459 Gd1428 2.661 . S
N1459 C1463 1.350 . S
N1459 C1464 1.307 . S
C1460 H1452 0.930 . S
C1460 C1461 1.355 . S
C1460 C1462 1.412 . S
C1461 H1453 0.930 . S
C1461 C1460 1.355 . S
C1461 C1464 1.402 . S
C1462 C1460 1.412 . S
C1462 C1463 1.417 . S
C1462 C1486 1.431 . S
C1463 N1459 1.350 . S
C1463 C1462 1.417 . S
C1463 C1466 1.426 . S
C1464 H1447 0.930 . S
C1464 N1459 1.307 . S
C1464 C1461 1.402 . S
N1465 Gd1428 2.601 . S
N1465 C1466 1.359 . S
N1465 C1469 1.334 . S
C1466 C1463 1.426 . S
C1466 N1465 1.359 . S
C1466 C1470 1.413 . S
C1467 H1458 0.930 . S
C1467 C1468 1.359 . S
C1467 C1469 1.394 . S
C1468 C1467 1.359 . S
C1468 C1470 1.391 . S
C1468 H1471 0.929 . S
C1469 H1451 0.930 . S
C1469 N1465 1.334 . S
C1469 C1467 1.394 . S
C1470 C1466 1.413 . S
C1470 C1468 1.391 . S
C1470 C1485 1.437 . S
H1471 C1468 0.929 . S
O1472 Gd1428 2.545 . S
O1472 C1487 1.258 . S
O1473 Gd1428 2.606 . S
O1473 Gd1429 2.362 . S
O1473 C1484 1.284 . S
O1474 Gd1429 2.324 . S
O1474 C1494 1.254 . S
O1475 Gd1428 2.429 . S
O1475 C1494 1.268 . S
O1476 Gd1428 2.545 . S
O1476 C1484 1.250 . S
O1477 Gd1428 2.412 . S
O1477 C1487 1.252 . S
O1478 Gd1429 2.545 . S
O1478 C1496 1.258 . S
O1479 Gd1428 2.362 . S
O1479 Gd1429 2.606 . S
O1479 C1495 1.284 . S
O1480 Gd1428 2.324 . S
O1480 C1503 1.254 . S
O1481 Gd1429 2.429 . S
O1481 C1503 1.268 . S
O1482 Gd1429 2.545 . S
O1482 C1495 1.250 . S
O1483 Gd1429 2.412 . S
O1483 C1496 1.252 . S
C1484 O1473 1.284 . S
C1484 O1476 1.250 . S
C1485 H1454 0.929 . S
C1485 C1470 1.437 . S
C1485 C1486 1.317 . S
C1486 H1457 0.930 . S
C1486 C1462 1.431 . S
C1486 C1485 1.317 . S
C1487 Gd1428 2.828 . S
C1487 O1472 1.258 . S
C1487 O1477 1.252 . S
C1487 C1488 1.497 . S
C1488 C1487 1.497 . S
C1488 C1489 1.395 . S
C1488 C1490 1.380 . S
C1489 C1488 1.395 . S
C1489 C1492 1.398 . S
C1489 H1504 0.930 . S
C1490 C1488 1.380 . S
C1490 C1491 1.391 . S
C1490 H1505 0.930 . S
C1491 C1490 1.391 . S
C1491 C1493 1.387 . S
C1492 C1489 1.398 . S
C1492 C1493 1.380 . S
C1492 H1506 0.930 . S
C1493 C1491 1.387 . S
C1493 C1492 1.380 . S
C1493 H1507 0.931 . S
C1494 O1474 1.254 . S
C1494 O1475 1.268 . S
C1495 O1479 1.284 . S
C1495 O1482 1.250 . S
C1496 Gd1429 2.828 . S
C1496 O1478 1.258 . S
C1496 O1483 1.252 . S
C1496 C1497 1.497 . S
C1497 C1496 1.497 . S
C1497 C1498 1.395 . S
C1497 C1499 1.380 . S
C1498 C1497 1.395 . S
C1498 C1501 1.398 . S
C1498 H1508 0.930 . S
C1499 C1497 1.380 . S
C1499 C1500 1.391 . S
C1499 H1509 0.930 . S
C1500 C1499 1.391 . S
C1500 C1502 1.387 . S
C1501 C1498 1.398 . S
C1501 C1502 1.380 . S
C1501 H1510 0.930 . S
C1502 C1500 1.387 . S
C1502 C1501 1.380 . S
C1502 H1511 0.930 . S
C1503 O1480 1.254 . S
C1503 O1481 1.268 . S
H1504 C1489 0.930 . S
H1505 C1490 0.930 . S
H1506 C1492 0.930 . S
H1507 C1493 0.931 . S
H1508 C1498 0.930 . S
H1509 C1499 0.930 . S
H1510 C1501 0.930 . S
H1511 C1502 0.930 . S
Gd1512 N1543 2.661 . S
Gd1512 N1549 2.601 . S
Gd1512 O1556 2.545 . S
Gd1512 O1557 2.606 . S
Gd1512 O1559 2.429 . S
Gd1512 O1560 2.545 . S
Gd1512 O1561 2.412 . S
Gd1512 O1563 2.362 . S
Gd1512 O1564 2.324 . S
Gd1512 C1571 2.828 . S
Gd1513 N1522 2.661 . S
Gd1513 N1526 2.601 . S
Gd1513 O1557 2.362 . S
Gd1513 O1558 2.324 . S
Gd1513 O1562 2.545 . S
Gd1513 O1563 2.606 . S
Gd1513 O1565 2.429 . S
Gd1513 O1566 2.545 . S
Gd1513 O1567 2.412 . S
Gd1513 C1580 2.828 . S
C1514 C1517 1.417 . S
C1514 C1519 1.431 1_655 S
C1514 C1520 1.412 . S
C1515 C1518 1.437 . S
C1515 C1519 1.317 . S
C1515 H1534 0.929 . S
C1516 C1517 1.426 . S
C1516 C1518 1.413 1_655 S
C1516 N1526 1.359 . S
C1517 C1514 1.417 . S
C1517 C1516 1.426 . S
C1517 N1522 1.350 . S
C1518 C1515 1.437 . S
C1518 C1516 1.413 1_455 S
C1518 C1528 1.391 . S
C1519 C1514 1.431 1_455 S
C1519 C1515 1.317 . S
C1519 H1530 0.930 . S
C1520 C1514 1.412 . S
C1520 C1521 1.355 . S
C1520 H1532 0.930 . S
C1521 C1520 1.355 . S
C1521 C1523 1.402 . S
C1521 H1533 0.930 . S
N1522 Gd1513 2.661 . S
N1522 C1517 1.350 . S
N1522 C1523 1.307 . S
C1523 C1521 1.402 . S
C1523 N1522 1.307 . S
C1523 H1524 0.930 . S
H1524 C1523 0.930 . S
C1525 N1526 1.363 . S
C1525 C1527 1.350 1_655 S
C1525 H1529 0.948 . S
N1526 Gd1513 2.601 . S
N1526 C1516 1.359 . S
N1526 C1525 1.363 . S
C1527 C1525 1.350 1_455 S
C1527 C1528 1.359 . S
C1527 H1539 0.930 . S
C1528 C1518 1.391 . S
C1528 C1527 1.359 . S
C1528 H1540 0.929 . S
H1529 C1525 0.948 . S
H1530 C1519 0.930 . S
H1531 C1548 0.930 . S
H1532 C1520 0.930 . S
H1533 C1521 0.930 . S
H1534 C1515 0.929 . S
H1535 C1553 0.930 . S
H1536 C1544 0.930 . S
H1537 C1545 0.930 . S
H1538 C1569 0.929 . S
H1539 C1527 0.930 . S
H1540 C1528 0.929 . S
H1541 C1570 0.930 1_565 S
H1542 C1551 0.930 . S
N1543 Gd1512 2.661 . S
N1543 C1547 1.350 . S
N1543 C1548 1.307 . S
C1544 H1536 0.930 . S
C1544 C1545 1.355 . S
C1544 C1546 1.412 1_565 S
C1545 H1537 0.930 . S
C1545 C1544 1.355 . S
C1545 C1548 1.402 1_565 S
C1546 C1544 1.412 1_545 S
C1546 C1547 1.417 . S
C1546 C1570 1.431 . S
C1547 N1543 1.350 . S
C1547 C1546 1.417 . S
C1547 C1550 1.426 . S
C1548 H1531 0.930 . S
C1548 N1543 1.307 . S
C1548 C1545 1.402 1_545 S
N1549 Gd1512 2.601 . S
N1549 C1550 1.359 . S
N1549 C1553 1.334 . S
C1550 C1547 1.426 . S
C1550 N1549 1.359 . S
C1550 C1554 1.413 . S
C1551 H1542 0.930 . S
C1551 C1552 1.359 . S
C1551 C1553 1.394 . S
C1552 C1551 1.359 . S
C1552 C1554 1.391 . S
C1552 H1555 0.929 . S
C1553 H1535 0.930 . S
C1553 N1549 1.334 . S
C1553 C1551 1.394 . S
C1554 C1550 1.413 . S
C1554 C1552 1.391 . S
C1554 C1569 1.437 . S
H1555 C1552 0.929 . S
O1556 Gd1512 2.545 . S
O1556 C1571 1.258 . S
O1557 Gd1512 2.606 . S
O1557 Gd1513 2.362 . S
O1557 C1568 1.284 . S
O1558 Gd1513 2.324 . S
O1558 C1578 1.254 . S
O1559 Gd1512 2.429 . S
O1559 C1578 1.268 . S
O1560 Gd1512 2.545 . S
O1560 C1568 1.250 . S
O1561 Gd1512 2.412 . S
O1561 C1571 1.252 . S
O1562 Gd1513 2.545 . S
O1562 C1580 1.258 . S
O1563 Gd1512 2.362 . S
O1563 Gd1513 2.606 . S
O1563 C1579 1.284 . S
O1564 Gd1512 2.324 . S
O1564 C1587 1.254 . S
O1565 Gd1513 2.429 . S
O1565 C1587 1.268 . S
O1566 Gd1513 2.545 . S
O1566 C1579 1.250 . S
O1567 Gd1513 2.412 . S
O1567 C1580 1.252 . S
C1568 O1557 1.284 . S
C1568 O1560 1.250 . S
C1569 H1538 0.929 . S
C1569 C1554 1.437 . S
C1569 C1570 1.317 . S
C1570 H1541 0.930 1_545 S
C1570 C1546 1.431 . S
C1570 C1569 1.317 . S
C1571 Gd1512 2.828 . S
C1571 O1556 1.258 . S
C1571 O1561 1.252 . S
C1571 C1572 1.497 . S
C1572 C1571 1.497 . S
C1572 C1573 1.395 . S
C1572 C1574 1.380 . S
C1573 C1572 1.395 . S
C1573 C1576 1.398 . S
C1573 H1588 0.930 . S
C1574 C1572 1.380 . S
C1574 C1575 1.391 . S
C1574 H1589 0.930 . S
C1575 C1574 1.391 . S
C1575 C1577 1.387 1_554 S
C1576 C1573 1.398 . S
C1576 C1577 1.380 1_554 S
C1576 H1590 0.930 . S
C1577 C1575 1.387 1_556 S
C1577 C1576 1.380 1_556 S
C1577 H1591 0.930 . S
C1578 O1558 1.254 . S
C1578 O1559 1.268 . S
C1579 O1563 1.284 . S
C1579 O1566 1.250 . S
C1580 Gd1513 2.828 . S
C1580 O1562 1.258 . S
C1580 O1567 1.252 . S
C1580 C1581 1.497 . S
C1581 C1580 1.497 . S
C1581 C1582 1.395 . S
C1581 C1583 1.380 . S
C1582 C1581 1.395 . S
C1582 C1585 1.398 1_655 S
C1582 H1592 0.930 1_655 S
C1583 C1581 1.380 . S
C1583 C1584 1.391 . S
C1583 H1593 0.930 . S
C1584 C1583 1.391 . S
C1584 C1586 1.387 . S
C1585 C1582 1.398 1_455 S
C1585 C1586 1.380 1_455 S
C1585 H1594 0.930 . S
C1586 C1584 1.387 . S
C1586 C1585 1.380 1_655 S
C1586 H1595 0.933 1_655 S
C1587 O1564 1.254 . S
C1587 O1565 1.268 . S
H1588 C1573 0.930 . S
H1589 C1574 0.930 . S
H1590 C1576 0.930 . S
H1591 C1577 0.930 . S
H1592 C1582 0.930 1_455 S
H1593 C1583 0.930 . S
H1594 C1585 0.930 . S
H1595 C1586 0.933 1_455 S
Gd1596 N1627 2.661 . S
Gd1596 N1633 2.601 . S
Gd1596 O1640 2.545 . S
Gd1596 O1641 2.606 . S
Gd1596 O1643 2.429 . S
Gd1596 O1644 2.545 . S
Gd1596 O1645 2.412 . S
Gd1596 O1647 2.362 . S
Gd1596 O1648 2.324 . S
Gd1596 C1655 2.828 . S
Gd1597 N1606 2.661 . S
Gd1597 N1610 2.601 . S
Gd1597 O1641 2.362 . S
Gd1597 O1642 2.324 . S
Gd1597 O1646 2.545 . S
Gd1597 O1647 2.606 . S
Gd1597 O1649 2.429 . S
Gd1597 O1650 2.545 . S
Gd1597 O1651 2.412 . S
Gd1597 C1664 2.828 . S
C1598 C1601 1.417 . S
C1598 C1603 1.431 . S
C1598 C1604 1.412 . S
C1599 C1602 1.437 . S
C1599 C1603 1.317 . S
C1599 H1618 0.929 . S
C1600 C1601 1.426 . S
C1600 C1602 1.413 . S
C1600 N1610 1.359 . S
C1601 C1598 1.417 . S
C1601 C1600 1.426 . S
C1601 N1606 1.350 . S
C1602 C1599 1.437 . S
C1602 C1600 1.413 . S
C1602 C1612 1.391 . S
C1603 C1598 1.431 . S
C1603 C1599 1.317 . S
C1603 H1614 0.930 . S
C1604 C1598 1.412 . S
C1604 C1605 1.355 . S
C1604 H1616 0.930 . S
C1605 C1604 1.355 . S
C1605 C1607 1.402 . S
C1605 H1617 0.930 . S
N1606 Gd1597 2.661 . S
N1606 C1601 1.350 . S
N1606 C1607 1.307 . S
C1607 C1605 1.402 . S
C1607 N1606 1.307 . S
C1607 H1608 0.930 . S
H1608 C1607 0.930 . S
C1609 N1610 1.334 . S
C1609 C1611 1.394 . S
C1609 H1613 0.930 . S
N1610 Gd1597 2.601 . S
N1610 C1600 1.359 . S
N1610 C1609 1.334 . S
C1611 C1609 1.394 . S
C1611 C1612 1.359 . S
C1611 H1623 0.930 . S
C1612 C1602 1.391 . S
C1612 C1611 1.359 . S
C1612 H1624 0.929 . S
H1613 C1609 0.930 . S
H1614 C1603 0.930 . S
H1615 C1632 0.930 . S
H1616 C1604 0.930 . S
H1617 C1605 0.930 . S
H1618 C1599 0.929 . S
H1619 C1637 0.930 . S
H1620 C1628 0.930 . S
H1621 C1629 0.930 . S
H1622 C1653 0.929 . S
H1623 C1611 0.930 . S
H1624 C1612 0.929 . S
H1625 C1654 0.930 . S
H1626 C1635 0.930 . S
N1627 Gd1596 2.661 . S
N1627 C1631 1.350 . S
N1627 C1632 1.307 . S
C1628 H1620 0.930 . S
C1628 C1629 1.355 . S
C1628 C1630 1.412 . S
C1629 H1621 0.930 . S
C1629 C1628 1.355 . S
C1629 C1632 1.402 . S
C1630 C1628 1.412 . S
C1630 C1631 1.417 . S
C1630 C1654 1.431 . S
C1631 N1627 1.350 . S
C1631 C1630 1.417 . S
C1631 C1634 1.426 . S
C1632 H1615 0.930 . S
C1632 N1627 1.307 . S
C1632 C1629 1.402 . S
N1633 Gd1596 2.601 . S
N1633 C1634 1.359 . S
N1633 C1637 1.334 . S
C1634 C1631 1.426 . S
C1634 N1633 1.359 . S
C1634 C1638 1.413 . S
C1635 H1626 0.930 . S
C1635 C1636 1.359 . S
C1635 C1637 1.394 . S
C1636 C1635 1.359 . S
C1636 C1638 1.391 . S
C1636 H1639 0.929 . S
C1637 H1619 0.930 . S
C1637 N1633 1.334 . S
C1637 C1635 1.394 . S
C1638 C1634 1.413 . S
C1638 C1636 1.391 . S
C1638 C1653 1.437 . S
H1639 C1636 0.929 . S
O1640 Gd1596 2.545 . S
O1640 C1655 1.258 . S
O1641 Gd1596 2.606 . S
O1641 Gd1597 2.362 . S
O1641 C1652 1.284 . S
O1642 Gd1597 2.324 . S
O1642 C1662 1.254 . S
O1643 Gd1596 2.429 . S
O1643 C1662 1.268 . S
O1644 Gd1596 2.545 . S
O1644 C1652 1.250 . S
O1645 Gd1596 2.412 . S
O1645 C1655 1.252 . S
O1646 Gd1597 2.545 . S
O1646 C1664 1.258 . S
O1647 Gd1596 2.362 . S
O1647 Gd1597 2.606 . S
O1647 C1663 1.284 . S
O1648 Gd1596 2.324 . S
O1648 C1671 1.254 . S
O1649 Gd1597 2.429 . S
O1649 C1671 1.268 . S
O1650 Gd1597 2.545 . S
O1650 C1663 1.250 . S
O1651 Gd1597 2.412 . S
O1651 C1664 1.252 . S
C1652 O1641 1.284 . S
C1652 O1644 1.250 . S
C1653 H1622 0.929 . S
C1653 C1638 1.437 . S
C1653 C1654 1.317 . S
C1654 H1625 0.930 . S
C1654 C1630 1.431 . S
C1654 C1653 1.317 . S
C1655 Gd1596 2.828 . S
C1655 O1640 1.258 . S
C1655 O1645 1.252 . S
C1655 C1656 1.497 . S
C1656 C1655 1.497 . S
C1656 C1657 1.395 . S
C1656 C1658 1.380 . S
C1657 C1656 1.395 . S
C1657 C1660 1.398 . S
C1657 H1672 0.930 . S
C1658 C1656 1.380 . S
C1658 C1659 1.391 . S
C1658 H1673 0.930 . S
C1659 C1658 1.391 . S
C1659 C1661 1.387 . S
C1660 C1657 1.398 . S
C1660 C1661 1.380 . S
C1660 H1674 0.930 . S
C1661 C1659 1.387 . S
C1661 C1660 1.380 . S
C1661 H1675 0.930 . S
C1662 O1642 1.254 . S
C1662 O1643 1.268 . S
C1663 O1647 1.284 . S
C1663 O1650 1.250 . S
C1664 Gd1597 2.828 . S
C1664 O1646 1.258 . S
C1664 O1651 1.252 . S
C1664 C1665 1.497 . S
C1665 C1664 1.497 . S
C1665 C1666 1.395 . S
C1665 C1667 1.380 . S
C1666 C1665 1.395 . S
C1666 C1669 1.398 . S
C1666 H1676 0.930 . S
C1667 C1665 1.380 . S
C1667 C1668 1.391 . S
C1667 H1677 0.930 . S
C1668 C1667 1.391 . S
C1668 C1670 1.387 . S
C1669 C1666 1.398 . S
C1669 C1670 1.380 . S
C1669 H1678 0.930 . S
C1670 C1668 1.387 . S
C1670 C1669 1.380 . S
C1670 H1679 0.930 . S
C1671 O1648 1.254 . S
C1671 O1649 1.268 . S
H1672 C1657 0.930 . S
H1673 C1658 0.930 . S
H1674 C1660 0.930 . S
H1675 C1661 0.930 . S
H1676 C1666 0.930 . S
H1677 C1667 0.930 . S
H1678 C1669 0.930 . S
H1679 C1670 0.930 . S
Gd1680 N1711 2.661 . S
Gd1680 N1717 2.601 . S
Gd1680 O1724 2.545 . S
Gd1680 O1725 2.606 . S
Gd1680 O1727 2.429 . S
Gd1680 O1728 2.545 . S
Gd1680 O1729 2.412 . S
Gd1680 O1731 2.362 . S
Gd1680 O1732 2.324 . S
Gd1680 C1739 2.828 . S
Gd1681 N1690 2.661 . S
Gd1681 N1694 2.601 . S
Gd1681 O1725 2.362 . S
Gd1681 O1726 2.324 . S
Gd1681 O1730 2.545 . S
Gd1681 O1731 2.606 . S
Gd1681 O1733 2.429 . S
Gd1681 O1734 2.545 . S
Gd1681 O1735 2.412 . S
Gd1681 C1748 2.828 . S
C1682 C1685 1.417 . S
C1682 C1687 1.431 . S
C1682 C1688 1.412 . S
C1683 C1686 1.437 . S
C1683 C1687 1.317 . S
C1683 H1702 0.929 . S
C1684 C1685 1.426 . S
C1684 C1686 1.413 . S
C1684 N1694 1.359 . S
C1685 C1682 1.417 . S
C1685 C1684 1.426 . S
C1685 N1690 1.350 . S
C1686 C1683 1.437 . S
C1686 C1684 1.413 . S
C1686 C1696 1.391 . S
C1687 C1682 1.431 . S
C1687 C1683 1.317 . S
C1687 H1698 0.930 . S
C1688 C1682 1.412 . S
C1688 C1689 1.355 . S
C1688 H1700 0.930 . S
C1689 C1688 1.355 . S
C1689 C1691 1.402 . S
C1689 H1701 0.930 . S
N1690 Gd1681 2.661 . S
N1690 C1685 1.350 . S
N1690 C1691 1.307 . S
C1691 C1689 1.402 . S
C1691 N1690 1.307 . S
C1691 H1692 0.930 . S
H1692 C1691 0.930 . S
C1693 N1694 1.334 . S
C1693 C1695 1.394 . S
C1693 H1697 0.930 . S
N1694 Gd1681 2.601 . S
N1694 C1684 1.359 . S
N1694 C1693 1.334 . S
C1695 C1693 1.394 . S
C1695 C1696 1.359 . S
C1695 H1707 0.930 . S
C1696 C1686 1.391 . S
C1696 C1695 1.359 . S
C1696 H1708 0.929 . S
H1697 C1693 0.930 . S
H1698 C1687 0.930 . S
H1699 C1716 0.930 . S
H1700 C1688 0.930 . S
H1701 C1689 0.930 . S
H1702 C1683 0.929 . S
H1703 C1721 0.940 . S
H1704 C1712 0.930 . S
H1705 C1713 0.930 . S
H1706 C1737 0.929 . S
H1707 C1695 0.930 . S
H1708 C1696 0.929 . S
H1709 C1738 0.930 . S
H1710 C1719 0.930 . S
N1711 Gd1680 2.661 . S
N1711 C1715 1.350 . S
N1711 C1716 1.307 . S
C1712 H1704 0.930 . S
C1712 C1713 1.355 . S
C1712 C1714 1.412 . S
C1713 H1705 0.930 . S
C1713 C1712 1.355 . S
C1713 C1716 1.402 . S
C1714 C1712 1.412 . S
C1714 C1715 1.417 . S
C1714 C1738 1.431 1_545 S
C1715 N1711 1.350 . S
C1715 C1714 1.417 . S
C1715 C1718 1.426 . S
C1716 H1699 0.930 . S
C1716 N1711 1.307 . S
C1716 C1713 1.402 . S
N1717 Gd1680 2.601 . S
N1717 C1718 1.359 . S
N1717 C1721 1.334 1_545 S
C1718 C1715 1.426 . S
C1718 N1717 1.359 . S
C1718 C1722 1.413 1_545 S
C1719 H1710 0.930 . S
C1719 C1720 1.359 . S
C1719 C1721 1.394 . S
C1720 C1719 1.359 . S
C1720 C1722 1.391 . S
C1720 H1723 0.929 . S
C1721 H1703 0.940 . S
C1721 N1717 1.334 1_565 S
C1721 C1719 1.394 . S
C1722 C1718 1.413 1_565 S
C1722 C1720 1.391 . S
C1722 C1737 1.437 . S
H1723 C1720 0.929 . S
O1724 Gd1680 2.545 . S
O1724 C1739 1.258 . S
O1725 Gd1680 2.606 . S
O1725 Gd1681 2.362 . S
O1725 C1736 1.284 . S
O1726 Gd1681 2.324 . S
O1726 C1746 1.254 . S
O1727 Gd1680 2.429 . S
O1727 C1746 1.268 . S
O1728 Gd1680 2.545 . S
O1728 C1736 1.250 . S
O1729 Gd1680 2.412 . S
O1729 C1739 1.252 . S
O1730 Gd1681 2.545 . S
O1730 C1748 1.258 . S
O1731 Gd1680 2.362 . S
O1731 Gd1681 2.606 . S
O1731 C1747 1.284 . S
O1732 Gd1680 2.324 . S
O1732 C1755 1.254 . S
O1733 Gd1681 2.429 . S
O1733 C1755 1.268 . S
O1734 Gd1681 2.545 . S
O1734 C1747 1.250 . S
O1735 Gd1681 2.412 . S
O1735 C1748 1.252 . S
C1736 O1725 1.284 . S
C1736 O1728 1.250 . S
C1737 H1706 0.929 . S
C1737 C1722 1.437 . S
C1737 C1738 1.317 . S
C1738 H1709 0.930 . S
C1738 C1714 1.431 1_565 S
C1738 C1737 1.317 . S
C1739 Gd1680 2.828 . S
C1739 O1724 1.258 . S
C1739 O1729 1.252 . S
C1739 C1740 1.497 . S
C1740 C1739 1.497 . S
C1740 C1741 1.395 1_554 S
C1740 C1742 1.380 1_554 S
C1741 C1740 1.395 1_556 S
C1741 C1744 1.398 1_545 S
C1741 H1756 0.930 1_546 S
C1742 C1740 1.380 1_556 S
C1742 C1743 1.391 . S
C1742 H1757 0.930 . S
C1743 C1742 1.391 . S
C1743 C1745 1.387 . S
C1744 C1741 1.398 1_565 S
C1744 C1745 1.380 1_565 S
C1744 H1758 0.930 . S
C1745 C1743 1.387 . S
C1745 C1744 1.380 1_545 S
C1745 H1759 0.930 . S
C1746 O1726 1.254 . S
C1746 O1727 1.268 . S
C1747 O1731 1.284 . S
C1747 O1734 1.250 . S
C1748 Gd1681 2.828 . S
C1748 O1730 1.258 . S
C1748 O1735 1.252 . S
C1748 C1749 1.497 . S
C1749 C1748 1.497 . S
C1749 C1750 1.395 . S
C1749 C1751 1.380 . S
C1750 C1749 1.395 . S
C1750 C1753 1.398 . S
C1750 H1760 0.930 . S
C1751 C1749 1.380 . S
C1751 C1752 1.391 . S
C1751 H1761 0.930 . S
C1752 C1751 1.391 . S
C1752 C1754 1.387 . S
C1753 C1750 1.398 . S
C1753 C1754 1.380 . S
C1753 H1762 0.930 . S
C1754 C1752 1.387 . S
C1754 C1753 1.380 . S
C1754 H1763 0.930 . S
C1755 O1732 1.254 . S
C1755 O1733 1.268 . S
H1756 C1741 0.930 1_564 S
H1757 C1742 0.930 . S
H1758 C1744 0.930 . S
H1759 C1745 0.930 . S
H1760 C1750 0.930 . S
H1761 C1751 0.930 . S
H1762 C1753 0.930 . S
H1763 C1754 0.930 . S
Gd1764 N1795 2.661 . S
Gd1764 N1801 2.601 . S
Gd1764 O1808 2.545 . S
Gd1764 O1809 2.606 . S
Gd1764 O1811 2.429 . S
Gd1764 O1812 2.545 . S
Gd1764 O1813 2.412 . S
Gd1764 O1815 2.362 . S
Gd1764 O1816 2.324 . S
Gd1764 C1823 2.828 . S
Gd1765 N1774 2.661 . S
Gd1765 N1778 2.601 . S
Gd1765 O1809 2.362 . S
Gd1765 O1810 2.324 . S
Gd1765 O1814 2.545 . S
Gd1765 O1815 2.606 . S
Gd1765 O1817 2.429 . S
Gd1765 O1818 2.545 . S
Gd1765 O1819 2.412 . S
Gd1765 C1832 2.828 . S
C1766 C1769 1.417 . S
C1766 C1771 1.431 . S
C1766 C1772 1.412 . S
C1767 C1770 1.437 . S
C1767 C1771 1.317 . S
C1767 H1786 0.929 . S
C1768 C1769 1.426 . S
C1768 C1770 1.413 . S
C1768 N1778 1.359 . S
C1769 C1766 1.417 . S
C1769 C1768 1.426 . S
C1769 N1774 1.350 . S
C1770 C1767 1.437 . S
C1770 C1768 1.413 . S
C1770 C1780 1.391 . S
C1771 C1766 1.431 . S
C1771 C1767 1.317 . S
C1771 H1782 0.930 . S
C1772 C1766 1.412 . S
C1772 C1773 1.355 . S
C1772 H1784 0.930 . S
C1773 C1772 1.355 . S
C1773 C1775 1.402 . S
C1773 H1785 0.930 . S
N1774 Gd1765 2.661 . S
N1774 C1769 1.350 . S
N1774 C1775 1.307 . S
C1775 C1773 1.402 . S
C1775 N1774 1.307 . S
C1775 H1776 0.930 . S
H1776 C1775 0.930 . S
C1777 N1778 1.334 . S
C1777 C1779 1.394 . S
C1777 H1781 0.930 . S
N1778 Gd1765 2.601 . S
N1778 C1768 1.359 . S
N1778 C1777 1.334 . S
C1779 C1777 1.394 . S
C1779 C1780 1.359 . S
C1779 H1791 0.930 . S
C1780 C1770 1.391 . S
C1780 C1779 1.359 . S
C1780 H1792 0.929 . S
H1781 C1777 0.930 . S
H1782 C1771 0.930 . S
H1783 C1800 0.930 . S
H1784 C1772 0.930 . S
H1785 C1773 0.930 . S
H1786 C1767 0.929 . S
H1787 C1805 0.930 . S
H1788 C1796 0.930 . S
H1789 C1797 0.930 . S
H1790 C1821 0.929 . S
H1791 C1779 0.930 . S
H1792 C1780 0.929 . S
H1793 C1822 0.930 . S
H1794 C1803 0.930 . S
N1795 Gd1764 2.661 . S
N1795 C1799 1.350 . S
N1795 C1800 1.307 . S
C1796 H1788 0.930 . S
C1796 C1797 1.355 . S
C1796 C1798 1.412 . S
C1797 H1789 0.930 . S
C1797 C1796 1.355 . S
C1797 C1800 1.402 . S
C1798 C1796 1.412 . S
C1798 C1799 1.417 . S
C1798 C1822 1.431 . S
C1799 N1795 1.350 . S
C1799 C1798 1.417 . S
C1799 C1802 1.426 . S
C1800 H1783 0.930 . S
C1800 N1795 1.307 . S
C1800 C1797 1.402 . S
N1801 Gd1764 2.601 . S
N1801 C1802 1.359 . S
N1801 C1805 1.334 . S
C1802 C1799 1.426 . S
C1802 N1801 1.359 . S
C1802 C1806 1.413 . S
C1803 H1794 0.930 . S
C1803 C1804 1.359 . S
C1803 C1805 1.394 . S
C1804 C1803 1.359 . S
C1804 C1806 1.391 . S
C1804 H1807 0.929 . S
C1805 H1787 0.930 . S
C1805 N1801 1.334 . S
C1805 C1803 1.394 . S
C1806 C1802 1.413 . S
C1806 C1804 1.391 . S
C1806 C1821 1.437 . S
H1807 C1804 0.929 . S
O1808 Gd1764 2.545 . S
O1808 C1823 1.258 . S
O1809 Gd1764 2.606 . S
O1809 Gd1765 2.362 . S
O1809 C1820 1.284 . S
O1810 Gd1765 2.324 . S
O1810 C1830 1.254 . S
O1811 Gd1764 2.429 . S
O1811 C1830 1.268 . S
O1812 Gd1764 2.545 . S
O1812 C1820 1.250 . S
O1813 Gd1764 2.412 . S
O1813 C1823 1.252 . S
O1814 Gd1765 2.545 . S
O1814 C1832 1.258 . S
O1815 Gd1764 2.362 . S
O1815 Gd1765 2.606 . S
O1815 C1831 1.284 . S
O1816 Gd1764 2.324 . S
O1816 C1839 1.254 . S
O1817 Gd1765 2.429 . S
O1817 C1839 1.268 . S
O1818 Gd1765 2.545 . S
O1818 C1831 1.250 . S
O1819 Gd1765 2.412 . S
O1819 C1832 1.252 . S
C1820 O1809 1.284 . S
C1820 O1812 1.250 . S
C1821 H1790 0.929 . S
C1821 C1806 1.437 . S
C1821 C1822 1.317 . S
C1822 H1793 0.930 . S
C1822 C1798 1.431 . S
C1822 C1821 1.317 . S
C1823 Gd1764 2.828 . S
C1823 O1808 1.258 . S
C1823 O1813 1.252 . S
C1823 C1824 1.497 . S
C1824 C1823 1.497 . S
C1824 C1825 1.395 . S
C1824 C1826 1.380 . S
C1825 C1824 1.395 . S
C1825 C1828 1.398 . S
C1825 H1840 0.930 . S
C1826 C1824 1.380 . S
C1826 C1827 1.391 . S
C1826 H1841 0.930 . S
C1827 C1826 1.391 . S
C1827 C1829 1.387 . S
C1828 C1825 1.398 . S
C1828 C1829 1.380 . S
C1828 H1842 0.930 . S
C1829 C1827 1.387 . S
C1829 C1828 1.380 . S
C1829 H1843 0.930 . S
C1830 O1810 1.254 . S
C1830 O1811 1.268 . S
C1831 O1815 1.284 . S
C1831 O1818 1.250 . S
C1832 Gd1765 2.828 . S
C1832 O1814 1.258 . S
C1832 O1819 1.252 . S
C1832 C1833 1.497 . S
C1833 C1832 1.497 . S
C1833 C1834 1.395 . S
C1833 C1835 1.380 . S
C1834 C1833 1.395 . S
C1834 C1837 1.398 . S
C1834 H1844 0.930 . S
C1835 C1833 1.380 . S
C1835 C1836 1.391 . S
C1835 H1845 0.930 . S
C1836 C1835 1.391 . S
C1836 C1838 1.387 . S
C1837 C1834 1.398 . S
C1837 C1838 1.380 . S
C1837 H1846 0.930 . S
C1838 C1836 1.387 . S
C1838 C1837 1.380 . S
C1838 H1847 0.930 . S
C1839 O1816 1.254 . S
C1839 O1817 1.268 . S
H1840 C1825 0.930 . S
H1841 C1826 0.930 . S
H1842 C1828 0.930 . S
H1843 C1829 0.930 . S
H1844 C1834 0.930 . S
H1845 C1835 0.930 . S
H1846 C1837 0.930 . S
H1847 C1838 0.930 . S
Gd1848 N1879 2.661 . S
Gd1848 N1885 2.601 . S
Gd1848 O1892 2.545 . S
Gd1848 O1893 2.606 . S
Gd1848 O1895 2.429 . S
Gd1848 O1896 2.545 . S
Gd1848 O1897 2.412 . S
Gd1848 O1899 2.362 . S
Gd1848 O1900 2.324 . S
Gd1848 C1907 2.828 . S
Gd1849 N1858 2.661 . S
Gd1849 N1862 2.601 . S
Gd1849 O1893 2.362 . S
Gd1849 O1894 2.324 . S
Gd1849 O1898 2.545 . S
Gd1849 O1899 2.606 . S
Gd1849 O1901 2.429 . S
Gd1849 O1902 2.545 . S
Gd1849 O1903 2.412 . S
Gd1849 C1916 2.828 . S
C1850 C1853 1.417 . S
C1850 C1855 1.431 1_655 S
C1850 C1856 1.412 . S
C1851 C1854 1.437 . S
C1851 C1855 1.317 . S
C1851 H1870 0.929 . S
C1852 C1853 1.426 . S
C1852 C1854 1.413 1_655 S
C1852 N1862 1.359 . S
C1853 C1850 1.417 . S
C1853 C1852 1.426 . S
C1853 N1858 1.350 . S
C1854 C1851 1.437 . S
C1854 C1852 1.413 1_455 S
C1854 C1864 1.391 . S
C1855 C1850 1.431 1_455 S
C1855 C1851 1.317 . S
C1855 H1866 0.930 . S
C1856 C1850 1.412 . S
C1856 C1857 1.355 . S
C1856 H1868 0.930 . S
C1857 C1856 1.355 . S
C1857 C1859 1.402 . S
C1857 H1869 0.930 . S
N1858 Gd1849 2.661 . S
N1858 C1853 1.350 . S
N1858 C1859 1.307 . S
C1859 C1857 1.402 . S
C1859 N1858 1.307 . S
C1859 H1860 0.930 . S
H1860 C1859 0.930 . S
C1861 N1862 1.360 . S
C1861 C1863 1.354 1_655 S
C1861 H1865 0.946 . S
N1862 Gd1849 2.601 . S
N1862 C1852 1.359 . S
N1862 C1861 1.360 . S
C1863 C1861 1.354 1_455 S
C1863 C1864 1.359 . S
C1863 H1875 0.930 . S
C1864 C1854 1.391 . S
C1864 C1863 1.359 . S
C1864 H1876 0.929 . S
H1865 C1861 0.946 . S
H1866 C1855 0.930 . S
H1867 C1884 0.930 . S
H1868 C1856 0.930 . S
H1869 C1857 0.930 . S
H1870 C1851 0.929 . S
H1871 C1889 0.930 . S
H1872 C1880 0.930 . S
H1873 C1881 0.930 . S
H1874 C1905 0.929 . S
H1875 C1863 0.930 . S
H1876 C1864 0.929 . S
H1877 C1906 0.930 1_545 S
H1878 C1887 0.930 . S
N1879 Gd1848 2.661 . S
N1879 C1883 1.350 . S
N1879 C1884 1.307 . S
C1880 H1872 0.930 . S
C1880 C1881 1.355 . S
C1880 C1882 1.412 1_545 S
C1881 H1873 0.930 . S
C1881 C1880 1.355 . S
C1881 C1884 1.402 1_545 S
C1882 C1880 1.412 1_565 S
C1882 C1883 1.417 . S
C1882 C1906 1.431 . S
C1883 N1879 1.350 . S
C1883 C1882 1.417 . S
C1883 C1886 1.426 . S
C1884 H1867 0.930 . S
C1884 N1879 1.307 . S
C1884 C1881 1.402 1_565 S
N1885 Gd1848 2.601 . S
N1885 C1886 1.359 . S
N1885 C1889 1.334 . S
C1886 C1883 1.426 . S
C1886 N1885 1.359 . S
C1886 C1890 1.413 . S
C1887 H1878 0.930 . S
C1887 C1888 1.359 . S
C1887 C1889 1.394 . S
C1888 C1887 1.359 . S
C1888 C1890 1.391 . S
C1888 H1891 0.929 . S
C1889 H1871 0.930 . S
C1889 N1885 1.334 . S
C1889 C1887 1.394 . S
C1890 C1886 1.413 . S
C1890 C1888 1.391 . S
C1890 C1905 1.437 . S
H1891 C1888 0.929 . S
O1892 Gd1848 2.545 . S
O1892 C1907 1.258 . S
O1893 Gd1848 2.606 . S
O1893 Gd1849 2.362 . S
O1893 C1904 1.284 . S
O1894 Gd1849 2.324 . S
O1894 C1914 1.254 . S
O1895 Gd1848 2.429 . S
O1895 C1914 1.268 . S
O1896 Gd1848 2.545 . S
O1896 C1904 1.250 . S
O1897 Gd1848 2.412 . S
O1897 C1907 1.252 . S
O1898 Gd1849 2.545 . S
O1898 C1916 1.258 . S
O1899 Gd1848 2.362 . S
O1899 Gd1849 2.606 . S
O1899 C1915 1.284 . S
O1900 Gd1848 2.324 . S
O1900 C1923 1.254 . S
O1901 Gd1849 2.429 . S
O1901 C1923 1.268 . S
O1902 Gd1849 2.545 . S
O1902 C1915 1.250 . S
O1903 Gd1849 2.412 . S
O1903 C1916 1.252 . S
C1904 O1893 1.284 . S
C1904 O1896 1.250 . S
C1905 H1874 0.929 . S
C1905 C1890 1.437 . S
C1905 C1906 1.317 . S
C1906 H1877 0.930 1_565 S
C1906 C1882 1.431 . S
C1906 C1905 1.317 . S
C1907 Gd1848 2.828 . S
C1907 O1892 1.258 . S
C1907 O1897 1.252 . S
C1907 C1908 1.497 . S
C1908 C1907 1.497 . S
C1908 C1909 1.395 . S
C1908 C1910 1.380 . S
C1909 C1908 1.395 . S
C1909 C1912 1.398 . S
C1909 H1924 0.930 . S
C1910 C1908 1.380 . S
C1910 C1911 1.391 . S
C1910 H1925 0.930 . S
C1911 C1910 1.391 . S
C1911 C1913 1.387 . S
C1912 C1909 1.398 . S
C1912 C1913 1.380 . S
C1912 H1926 0.930 . S
C1913 C1911 1.387 . S
C1913 C1912 1.380 . S
C1913 H1927 0.930 . S
C1914 O1894 1.254 . S
C1914 O1895 1.268 . S
C1915 O1899 1.284 . S
C1915 O1902 1.250 . S
C1916 Gd1849 2.828 . S
C1916 O1898 1.258 . S
C1916 O1903 1.252 . S
C1916 C1917 1.497 . S
C1917 C1916 1.497 . S
C1917 C1918 1.395 . S
C1917 C1919 1.380 . S
C1918 C1917 1.395 . S
C1918 C1921 1.398 1_655 S
C1918 H1928 0.930 1_655 S
C1919 C1917 1.380 . S
C1919 C1920 1.391 . S
C1919 H1929 0.930 . S
C1920 C1919 1.391 . S
C1920 C1922 1.387 . S
C1921 C1918 1.398 1_455 S
C1921 C1922 1.380 1_455 S
C1921 H1930 0.930 . S
C1922 C1920 1.387 . S
C1922 C1921 1.380 1_655 S
C1922 H1931 0.931 1_655 S
C1923 O1900 1.254 . S
C1923 O1901 1.268 . S
H1924 C1909 0.930 . S
H1925 C1910 0.930 . S
H1926 C1912 0.930 . S
H1927 C1913 0.930 . S
H1928 C1918 0.930 1_455 S
H1929 C1919 0.930 . S
H1930 C1921 0.930 . S
H1931 C1922 0.931 1_455 S
Gd1932 N1963 2.661 . S
Gd1932 N1969 2.601 . S
Gd1932 O1976 2.545 . S
Gd1932 O1977 2.606 . S
Gd1932 O1979 2.429 . S
Gd1932 O1980 2.545 . S
Gd1932 O1981 2.412 . S
Gd1932 O1983 2.362 . S
Gd1932 O1984 2.324 . S
Gd1932 C1991 2.828 . S
Gd1933 N1942 2.661 . S
Gd1933 N1946 2.601 . S
Gd1933 O1977 2.362 . S
Gd1933 O1978 2.324 . S
Gd1933 O1982 2.545 . S
Gd1933 O1983 2.606 . S
Gd1933 O1985 2.429 . S
Gd1933 O1986 2.545 . S
Gd1933 O1987 2.412 . S
Gd1933 C2000 2.828 . S
C1934 C1937 1.417 . S
C1934 C1939 1.431 . S
C1934 C1940 1.412 . S
C1935 C1938 1.437 . S
C1935 C1939 1.317 . S
C1935 H1954 0.929 . S
C1936 C1937 1.426 . S
C1936 C1938 1.413 . S
C1936 N1946 1.359 . S
C1937 C1934 1.417 . S
C1937 C1936 1.426 . S
C1937 N1942 1.350 . S
C1938 C1935 1.437 . S
C1938 C1936 1.413 . S
C1938 C1948 1.391 . S
C1939 C1934 1.431 . S
C1939 C1935 1.317 . S
C1939 H1950 0.930 . S
C1940 C1934 1.412 . S
C1940 C1941 1.355 . S
C1940 H1952 0.930 . S
C1941 C1940 1.355 . S
C1941 C1943 1.402 . S
C1941 H1953 0.930 . S
N1942 Gd1933 2.661 . S
N1942 C1937 1.350 . S
N1942 C1943 1.307 . S
C1943 C1941 1.402 . S
C1943 N1942 1.307 . S
C1943 H1944 0.930 . S
H1944 C1943 0.930 . S
C1945 N1946 1.334 . S
C1945 C1947 1.394 . S
C1945 H1949 0.930 . S
N1946 Gd1933 2.601 . S
N1946 C1936 1.359 . S
N1946 C1945 1.334 . S
C1947 C1945 1.394 . S
C1947 C1948 1.359 . S
C1947 H1959 0.930 . S
C1948 C1938 1.391 . S
C1948 C1947 1.359 . S
C1948 H1960 0.929 . S
H1949 C1945 0.930 . S
H1950 C1939 0.930 . S
H1951 C1968 0.930 . S
H1952 C1940 0.930 . S
H1953 C1941 0.930 . S
H1954 C1935 0.929 . S
H1955 C1973 0.930 . S
H1956 C1964 0.930 . S
H1957 C1965 0.930 . S
H1958 C1989 0.929 . S
H1959 C1947 0.930 . S
H1960 C1948 0.929 . S
H1961 C1990 0.930 . S
H1962 C1971 0.930 . S
N1963 Gd1932 2.661 . S
N1963 C1967 1.350 . S
N1963 C1968 1.307 . S
C1964 H1956 0.930 . S
C1964 C1965 1.355 . S
C1964 C1966 1.412 . S
C1965 H1957 0.930 . S
C1965 C1964 1.355 . S
C1965 C1968 1.402 . S
C1966 C1964 1.412 . S
C1966 C1967 1.417 . S
C1966 C1990 1.431 . S
C1967 N1963 1.350 . S
C1967 C1966 1.417 . S
C1967 C1970 1.426 . S
C1968 H1951 0.930 . S
C1968 N1963 1.307 . S
C1968 C1965 1.402 . S
N1969 Gd1932 2.601 . S
N1969 C1970 1.359 . S
N1969 C1973 1.334 . S
C1970 C1967 1.426 . S
C1970 N1969 1.359 . S
C1970 C1974 1.413 . S
C1971 H1962 0.930 . S
C1971 C1972 1.359 . S
C1971 C1973 1.394 . S
C1972 C1971 1.359 . S
C1972 C1974 1.391 . S
C1972 H1975 0.929 . S
C1973 H1955 0.930 . S
C1973 N1969 1.334 . S
C1973 C1971 1.394 . S
C1974 C1970 1.413 . S
C1974 C1972 1.391 . S
C1974 C1989 1.437 . S
H1975 C1972 0.929 . S
O1976 Gd1932 2.545 . S
O1976 C1991 1.258 . S
O1977 Gd1932 2.606 . S
O1977 Gd1933 2.362 . S
O1977 C1988 1.284 . S
O1978 Gd1933 2.324 . S
O1978 C1998 1.254 . S
O1979 Gd1932 2.429 . S
O1979 C1998 1.268 . S
O1980 Gd1932 2.545 . S
O1980 C1988 1.250 . S
O1981 Gd1932 2.412 . S
O1981 C1991 1.252 . S
O1982 Gd1933 2.545 . S
O1982 C2000 1.258 . S
O1983 Gd1932 2.362 . S
O1983 Gd1933 2.606 . S
O1983 C1999 1.284 . S
O1984 Gd1932 2.324 . S
O1984 C2007 1.254 . S
O1985 Gd1933 2.429 . S
O1985 C2007 1.268 . S
O1986 Gd1933 2.545 . S
O1986 C1999 1.250 . S
O1987 Gd1933 2.412 . S
O1987 C2000 1.252 . S
C1988 O1977 1.284 . S
C1988 O1980 1.250 . S
C1989 H1958 0.929 . S
C1989 C1974 1.437 . S
C1989 C1990 1.317 . S
C1990 H1961 0.930 . S
C1990 C1966 1.431 . S
C1990 C1989 1.317 . S
C1991 Gd1932 2.828 . S
C1991 O1976 1.258 . S
C1991 O1981 1.252 . S
C1991 C1992 1.497 . S
C1992 C1991 1.497 . S
C1992 C1993 1.395 . S
C1992 C1994 1.380 . S
C1993 C1992 1.395 . S
C1993 C1996 1.398 . S
C1993 H2008 0.930 . S
C1994 C1992 1.380 . S
C1994 C1995 1.391 . S
C1994 H2009 0.930 . S
C1995 C1994 1.391 . S
C1995 C1997 1.387 . S
C1996 C1993 1.398 . S
C1996 C1997 1.380 . S
C1996 H2010 0.930 . S
C1997 C1995 1.387 . S
C1997 C1996 1.380 . S
C1997 H2011 0.930 . S
C1998 O1978 1.254 . S
C1998 O1979 1.268 . S
C1999 O1983 1.284 . S
C1999 O1986 1.250 . S
C2000 Gd1933 2.828 . S
C2000 O1982 1.258 . S
C2000 O1987 1.252 . S
C2000 C2001 1.497 . S
C2001 C2000 1.497 . S
C2001 C2002 1.393 1_556 S
C2001 C2003 1.380 1_556 S
C2002 C2001 1.393 1_554 S
C2002 C2005 1.403 . S
C2002 H2012 0.926 1_554 S
C2003 C2001 1.380 1_554 S
C2003 C2004 1.391 . S
C2003 H2013 0.930 . S
C2004 C2003 1.391 . S
C2004 C2006 1.387 . S
C2005 C2002 1.403 . S
C2005 C2006 1.380 . S
C2005 H2014 0.930 . S
C2006 C2004 1.387 . S
C2006 C2005 1.380 . S
C2006 H2015 0.930 . S
C2007 O1984 1.254 . S
C2007 O1985 1.268 . S
H2008 C1993 0.930 . S
H2009 C1994 0.930 . S
H2010 C1996 0.930 . S
H2011 C1997 0.930 . S
H2012 C2002 0.926 1_556 S
H2013 C2003 0.930 . S
H2014 C2005 0.930 . S
H2015 C2006 0.930 . S
Gd2016 N2047 2.661 . S
Gd2016 N2053 2.601 . S
Gd2016 O2060 2.545 . S
Gd2016 O2061 2.606 . S
Gd2016 O2063 2.429 . S
Gd2016 O2064 2.545 . S
Gd2016 O2065 2.412 . S
Gd2016 O2067 2.362 . S
Gd2016 O2068 2.324 . S
Gd2016 C2075 2.828 . S
Gd2017 N2026 2.661 . S
Gd2017 N2030 2.601 . S
Gd2017 O2061 2.362 . S
Gd2017 O2062 2.324 . S
Gd2017 O2066 2.545 . S
Gd2017 O2067 2.606 . S
Gd2017 O2069 2.429 . S
Gd2017 O2070 2.545 . S
Gd2017 O2071 2.412 . S
Gd2017 C2084 2.828 . S
C2018 C2021 1.417 . S
C2018 C2023 1.431 1_545 S
C2018 C2024 1.412 . S
C2019 C2022 1.437 . S
C2019 C2023 1.317 . S
C2019 H2038 0.929 . S
C2020 C2021 1.426 . S
C2020 C2022 1.413 1_545 S
C2020 N2030 1.359 . S
C2021 C2018 1.417 . S
C2021 C2020 1.426 . S
C2021 N2026 1.350 . S
C2022 C2019 1.437 . S
C2022 C2020 1.413 1_565 S
C2022 C2032 1.391 . S
C2023 C2018 1.431 1_565 S
C2023 C2019 1.317 . S
C2023 H2034 0.930 . S
C2024 C2018 1.412 . S
C2024 C2025 1.355 . S
C2024 H2036 0.930 . S
C2025 C2024 1.355 . S
C2025 C2027 1.402 . S
C2025 H2037 0.930 . S
N2026 Gd2017 2.661 . S
N2026 C2021 1.350 . S
N2026 C2027 1.307 . S
C2027 C2025 1.402 . S
C2027 N2026 1.307 . S
C2027 H2028 0.930 . S
H2028 C2027 0.930 . S
C2029 N2030 1.334 1_565 S
C2029 C2031 1.394 . S
C2029 H2033 0.940 . S
N2030 Gd2017 2.601 . S
N2030 C2020 1.359 . S
N2030 C2029 1.334 1_545 S
C2031 C2029 1.394 . S
C2031 C2032 1.359 . S
C2031 H2043 0.930 . S
C2032 C2022 1.391 . S
C2032 C2031 1.359 . S
C2032 H2044 0.929 . S
H2033 C2029 0.940 . S
H2034 C2023 0.930 . S
H2035 C2052 0.930 . S
H2036 C2024 0.930 . S
H2037 C2025 0.930 . S
H2038 C2019 0.929 . S
H2039 C2057 0.930 . S
H2040 C2048 0.930 . S
H2041 C2049 0.930 . S
H2042 C2073 0.929 . S
H2043 C2031 0.930 . S
H2044 C2032 0.929 . S
H2045 C2074 0.930 . S
H2046 C2055 0.930 . S
N2047 Gd2016 2.661 . S
N2047 C2051 1.350 . S
N2047 C2052 1.307 . S
C2048 H2040 0.930 . S
C2048 C2049 1.355 . S
C2048 C2050 1.412 . S
C2049 H2041 0.930 . S
C2049 C2048 1.355 . S
C2049 C2052 1.402 . S
C2050 C2048 1.412 . S
C2050 C2051 1.417 . S
C2050 C2074 1.431 . S
C2051 N2047 1.350 . S
C2051 C2050 1.417 . S
C2051 C2054 1.426 . S
C2052 H2035 0.930 . S
C2052 N2047 1.307 . S
C2052 C2049 1.402 . S
N2053 Gd2016 2.601 . S
N2053 C2054 1.359 . S
N2053 C2057 1.334 . S
C2054 C2051 1.426 . S
C2054 N2053 1.359 . S
C2054 C2058 1.413 . S
C2055 H2046 0.930 . S
C2055 C2056 1.359 . S
C2055 C2057 1.394 . S
C2056 C2055 1.359 . S
C2056 C2058 1.391 . S
C2056 H2059 0.929 . S
C2057 H2039 0.930 . S
C2057 N2053 1.334 . S
C2057 C2055 1.394 . S
C2058 C2054 1.413 . S
C2058 C2056 1.391 . S
C2058 C2073 1.437 . S
H2059 C2056 0.929 . S
O2060 Gd2016 2.545 . S
O2060 C2075 1.258 . S
O2061 Gd2016 2.606 . S
O2061 Gd2017 2.362 . S
O2061 C2072 1.284 . S
O2062 Gd2017 2.324 . S
O2062 C2082 1.254 . S
O2063 Gd2016 2.429 . S
O2063 C2082 1.268 . S
O2064 Gd2016 2.545 . S
O2064 C2072 1.250 . S
O2065 Gd2016 2.412 . S
O2065 C2075 1.252 . S
O2066 Gd2017 2.545 . S
O2066 C2084 1.258 . S
O2067 Gd2016 2.362 . S
O2067 Gd2017 2.606 . S
O2067 C2083 1.284 . S
O2068 Gd2016 2.324 . S
O2068 C2091 1.254 . S
O2069 Gd2017 2.429 . S
O2069 C2091 1.268 . S
O2070 Gd2017 2.545 . S
O2070 C2083 1.250 . S
O2071 Gd2017 2.412 . S
O2071 C2084 1.252 . S
C2072 O2061 1.284 . S
C2072 O2064 1.250 . S
C2073 H2042 0.929 . S
C2073 C2058 1.437 . S
C2073 C2074 1.317 . S
C2074 H2045 0.930 . S
C2074 C2050 1.431 . S
C2074 C2073 1.317 . S
C2075 Gd2016 2.828 . S
C2075 O2060 1.258 . S
C2075 O2065 1.252 . S
C2075 C2076 1.497 . S
C2076 C2075 1.497 . S
C2076 C2077 1.395 . S
C2076 C2078 1.380 . S
C2077 C2076 1.395 . S
C2077 C2080 1.398 . S
C2077 H2092 0.930 . S
C2078 C2076 1.380 . S
C2078 C2079 1.391 . S
C2078 H2093 0.930 . S
C2079 C2078 1.391 . S
C2079 C2081 1.387 . S
C2080 C2077 1.398 . S
C2080 C2081 1.380 . S
C2080 H2094 0.930 . S
C2081 C2079 1.387 . S
C2081 C2080 1.380 . S
C2081 H2095 0.930 . S
C2082 O2062 1.254 . S
C2082 O2063 1.268 . S
C2083 O2067 1.284 . S
C2083 O2070 1.250 . S
C2084 Gd2017 2.828 . S
C2084 O2066 1.258 . S
C2084 O2071 1.252 . S
C2084 C2085 1.497 . S
C2085 C2084 1.497 . S
C2085 C2086 1.395 . S
C2085 C2087 1.380 . S
C2086 C2085 1.395 . S
C2086 C2089 1.398 1_545 S
C2086 H2096 0.930 1_545 S
C2087 C2085 1.380 . S
C2087 C2088 1.391 . S
C2087 H2097 0.930 . S
C2088 C2087 1.391 . S
C2088 C2090 1.387 . S
C2089 C2086 1.398 1_565 S
C2089 C2090 1.380 1_565 S
C2089 H2098 0.930 . S
C2090 C2088 1.387 . S
C2090 C2089 1.380 1_545 S
C2090 H2099 0.930 . S
C2091 O2068 1.254 . S
C2091 O2069 1.268 . S
H2092 C2077 0.930 . S
H2093 C2078 0.930 . S
H2094 C2080 0.930 . S
H2095 C2081 0.930 . S
H2096 C2086 0.930 1_565 S
H2097 C2087 0.930 . S
H2098 C2089 0.930 . S
H2099 C2090 0.930 . S
Gd2100 N2131 2.661 . S
Gd2100 N2137 2.601 . S
Gd2100 O2144 2.545 . S
Gd2100 O2145 2.606 . S
Gd2100 O2147 2.429 . S
Gd2100 O2148 2.545 . S
Gd2100 O2149 2.412 . S
Gd2100 O2151 2.362 . S
Gd2100 O2152 2.324 . S
Gd2100 C2159 2.828 . S
Gd2101 N2110 2.661 . S
Gd2101 N2114 2.601 . S
Gd2101 O2145 2.362 . S
Gd2101 O2146 2.324 . S
Gd2101 O2150 2.545 . S
Gd2101 O2151 2.606 . S
Gd2101 O2153 2.429 . S
Gd2101 O2154 2.545 . S
Gd2101 O2155 2.412 . S
Gd2101 C2168 2.828 . S
C2102 C2105 1.417 . S
C2102 C2107 1.431 . S
C2102 C2108 1.412 . S
C2103 C2106 1.437 . S
C2103 C2107 1.317 . S
C2103 H2122 0.929 . S
C2104 C2105 1.426 . S
C2104 C2106 1.413 . S
C2104 N2114 1.359 . S
C2105 C2102 1.417 . S
C2105 C2104 1.426 . S
C2105 N2110 1.350 . S
C2106 C2103 1.437 . S
C2106 C2104 1.413 . S
C2106 C2116 1.391 . S
C2107 C2102 1.431 . S
C2107 C2103 1.317 . S
C2107 H2118 0.930 . S
C2108 C2102 1.412 . S
C2108 C2109 1.355 . S
C2108 H2120 0.930 . S
C2109 C2108 1.355 . S
C2109 C2111 1.402 . S
C2109 H2121 0.930 . S
N2110 Gd2101 2.661 . S
N2110 C2105 1.350 . S
N2110 C2111 1.307 . S
C2111 C2109 1.402 . S
C2111 N2110 1.307 . S
C2111 H2112 0.930 . S
H2112 C2111 0.930 . S
C2113 N2114 1.334 . S
C2113 C2115 1.394 . S
C2113 H2117 0.930 . S
N2114 Gd2101 2.601 . S
N2114 C2104 1.359 . S
N2114 C2113 1.334 . S
C2115 C2113 1.394 . S
C2115 C2116 1.359 . S
C2115 H2127 0.930 . S
C2116 C2106 1.391 . S
C2116 C2115 1.359 . S
C2116 H2128 0.929 . S
H2117 C2113 0.930 . S
H2118 C2107 0.930 . S
H2119 C2136 0.930 . S
H2120 C2108 0.930 . S
H2121 C2109 0.930 . S
H2122 C2103 0.929 . S
H2123 C2141 0.930 . S
H2124 C2132 0.930 . S
H2125 C2133 0.930 . S
H2126 C2157 0.929 . S
H2127 C2115 0.930 . S
H2128 C2116 0.929 . S
H2129 C2158 0.930 . S
H2130 C2139 0.930 . S
N2131 Gd2100 2.661 . S
N2131 C2135 1.350 . S
N2131 C2136 1.307 . S
C2132 H2124 0.930 . S
C2132 C2133 1.355 . S
C2132 C2134 1.412 . S
C2133 H2125 0.930 . S
C2133 C2132 1.355 . S
C2133 C2136 1.402 . S
C2134 C2132 1.412 . S
C2134 C2135 1.417 . S
C2134 C2158 1.431 . S
C2135 N2131 1.350 . S
C2135 C2134 1.417 . S
C2135 C2138 1.426 . S
C2136 H2119 0.930 . S
C2136 N2131 1.307 . S
C2136 C2133 1.402 . S
N2137 Gd2100 2.601 . S
N2137 C2138 1.359 . S
N2137 C2141 1.334 . S
C2138 C2135 1.426 . S
C2138 N2137 1.359 . S
C2138 C2142 1.413 . S
C2139 H2130 0.930 . S
C2139 C2140 1.359 . S
C2139 C2141 1.394 . S
C2140 C2139 1.359 . S
C2140 C2142 1.391 . S
C2140 H2143 0.929 . S
C2141 H2123 0.930 . S
C2141 N2137 1.334 . S
C2141 C2139 1.394 . S
C2142 C2138 1.413 . S
C2142 C2140 1.391 . S
C2142 C2157 1.437 . S
H2143 C2140 0.929 . S
O2144 Gd2100 2.545 . S
O2144 C2159 1.258 . S
O2145 Gd2100 2.606 . S
O2145 Gd2101 2.362 . S
O2145 C2156 1.284 . S
O2146 Gd2101 2.324 . S
O2146 C2166 1.254 . S
O2147 Gd2100 2.429 . S
O2147 C2166 1.268 . S
O2148 Gd2100 2.545 . S
O2148 C2156 1.250 . S
O2149 Gd2100 2.412 . S
O2149 C2159 1.252 . S
O2150 Gd2101 2.545 . S
O2150 C2168 1.258 . S
O2151 Gd2100 2.362 . S
O2151 Gd2101 2.606 . S
O2151 C2167 1.284 . S
O2152 Gd2100 2.324 . S
O2152 C2175 1.254 . S
O2153 Gd2101 2.429 . S
O2153 C2175 1.268 . S
O2154 Gd2101 2.545 . S
O2154 C2167 1.250 . S
O2155 Gd2101 2.412 . S
O2155 C2168 1.252 . S
C2156 O2145 1.284 . S
C2156 O2148 1.250 . S
C2157 H2126 0.929 . S
C2157 C2142 1.437 . S
C2157 C2158 1.317 . S
C2158 H2129 0.930 . S
C2158 C2134 1.431 . S
C2158 C2157 1.317 . S
C2159 Gd2100 2.828 . S
C2159 O2144 1.258 . S
C2159 O2149 1.252 . S
C2159 C2160 1.497 . S
C2160 C2159 1.497 . S
C2160 C2161 1.395 . S
C2160 C2162 1.380 . S
C2161 C2160 1.395 . S
C2161 C2164 1.398 . S
C2161 H2176 0.930 . S
C2162 C2160 1.380 . S
C2162 C2163 1.391 . S
C2162 H2177 0.930 . S
C2163 C2162 1.391 . S
C2163 C2165 1.387 . S
C2164 C2161 1.398 . S
C2164 C2165 1.380 . S
C2164 H2178 0.930 . S
C2165 C2163 1.387 . S
C2165 C2164 1.380 . S
C2165 H2179 0.930 . S
C2166 O2146 1.254 . S
C2166 O2147 1.268 . S
C2167 O2151 1.284 . S
C2167 O2154 1.250 . S
C2168 Gd2101 2.828 . S
C2168 O2150 1.258 . S
C2168 O2155 1.252 . S
C2168 C2169 1.497 . S
C2169 C2168 1.497 . S
C2169 C2170 1.395 . S
C2169 C2171 1.380 . S
C2170 C2169 1.395 . S
C2170 C2173 1.398 . S
C2170 H2180 0.930 . S
C2171 C2169 1.380 . S
C2171 C2172 1.391 . S
C2171 H2181 0.930 . S
C2172 C2171 1.391 . S
C2172 C2174 1.387 . S
C2173 C2170 1.398 . S
C2173 C2174 1.380 . S
C2173 H2182 0.930 . S
C2174 C2172 1.387 . S
C2174 C2173 1.380 . S
C2174 H2183 0.930 . S
C2175 O2152 1.254 . S
C2175 O2153 1.268 . S
H2176 C2161 0.930 . S
H2177 C2162 0.930 . S
H2178 C2164 0.930 . S
H2179 C2165 0.930 . S
H2180 C2170 0.930 . S
H2181 C2171 0.930 . S
H2182 C2173 0.930 . S
H2183 C2174 0.930 . S
Gd2184 N2215 2.661 . S
Gd2184 N2221 2.601 . S
Gd2184 O2228 2.545 1_554 S
Gd2184 O2229 2.606 . S
Gd2184 O2231 2.429 . S
Gd2184 O2232 2.545 1_554 S
Gd2184 O2233 2.412 1_554 S
Gd2184 O2235 2.362 . S
Gd2184 O2236 2.324 . S
Gd2184 C2243 2.828 1_554 S
Gd2185 N2194 2.661 . S
Gd2185 N2198 2.601 . S
Gd2185 O2229 2.362 . S
Gd2185 O2230 2.324 . S
Gd2185 O2234 2.545 . S
Gd2185 O2235 2.606 . S
Gd2185 O2237 2.429 . S
Gd2185 O2238 2.545 . S
Gd2185 O2239 2.412 . S
Gd2185 C2252 2.828 . S
C2186 C2189 1.428 . S
C2186 C2191 1.424 1_554 S
C2186 C2192 1.409 1_564 S
C2187 C2190 1.437 1_556 S
C2187 C2191 1.317 . S
C2187 H2206 0.929 . S
C2188 C2189 1.426 . S
C2188 C2190 1.413 . S
C2188 N2198 1.359 . S
C2189 C2186 1.428 . S
C2189 C2188 1.426 . S
C2189 N2194 1.350 . S
C2190 C2187 1.437 1_554 S
C2190 C2188 1.413 . S
C2190 C2200 1.391 . S
C2191 C2186 1.424 1_556 S
C2191 C2187 1.317 . S
C2191 H2202 0.930 1_565 S
C2192 C2186 1.409 1_546 S
C2192 C2193 1.355 1_556 S
C2192 H2204 0.930 . S
C2193 C2192 1.355 1_554 S
C2193 C2195 1.402 1_545 S
C2193 H2205 0.930 . S
N2194 Gd2185 2.661 . S
N2194 C2189 1.350 . S
N2194 C2195 1.307 . S
C2195 C2193 1.402 1_565 S
C2195 N2194 1.307 . S
C2195 H2196 0.930 . S
H2196 C2195 0.930 . S
C2197 N2198 1.334 . S
C2197 C2199 1.394 . S
C2197 H2201 0.930 . S
N2198 Gd2185 2.601 . S
N2198 C2188 1.359 . S
N2198 C2197 1.334 . S
C2199 C2197 1.394 . S
C2199 C2200 1.359 . S
C2199 H2211 0.930 . S
C2200 C2190 1.391 . S
C2200 C2199 1.359 . S
C2200 H2212 0.929 . S
H2201 C2197 0.930 . S
H2202 C2191 0.930 1_545 S
H2203 C2220 0.930 . S
H2204 C2192 0.930 . S
H2205 C2193 0.930 . S
H2206 C2187 0.929 . S
H2207 C2225 0.948 . S
H2208 C2216 0.930 . S
H2209 C2217 0.930 . S
H2210 C2241 0.929 . S
H2211 C2199 0.930 . S
H2212 C2200 0.929 . S
H2213 C2242 0.930 . S
H2214 C2223 0.930 . S
N2215 Gd2184 2.661 . S
N2215 C2219 1.350 . S
N2215 C2220 1.307 . S
C2216 H2208 0.930 . S
C2216 C2217 1.355 . S
C2216 C2218 1.412 . S
C2217 H2209 0.930 . S
C2217 C2216 1.355 . S
C2217 C2220 1.402 . S
C2218 C2216 1.412 . S
C2218 C2219 1.417 . S
C2218 C2242 1.431 1_455 S
C2219 N2215 1.350 . S
C2219 C2218 1.417 . S
C2219 C2222 1.426 . S
C2220 H2203 0.930 . S
C2220 N2215 1.307 . S
C2220 C2217 1.402 . S
N2221 Gd2184 2.601 . S
N2221 C2222 1.359 . S
N2221 C2225 1.363 . S
C2222 C2219 1.426 . S
C2222 N2221 1.359 . S
C2222 C2226 1.413 1_455 S
C2223 H2214 0.930 . S
C2223 C2224 1.359 . S
C2223 C2225 1.350 1_655 S
C2224 C2223 1.359 . S
C2224 C2226 1.391 . S
C2224 H2227 0.929 . S
C2225 H2207 0.948 . S
C2225 N2221 1.363 . S
C2225 C2223 1.350 1_455 S
C2226 C2222 1.413 1_655 S
C2226 C2224 1.391 . S
C2226 C2241 1.437 . S
H2227 C2224 0.929 . S
O2228 Gd2184 2.545 1_556 S
O2228 C2243 1.258 . S
O2229 Gd2184 2.606 . S
O2229 Gd2185 2.362 . S
O2229 C2240 1.284 1_554 S
O2230 Gd2185 2.324 . S
O2230 C2250 1.254 . S
O2231 Gd2184 2.429 . S
O2231 C2250 1.268 . S
O2232 Gd2184 2.545 1_556 S
O2232 C2240 1.250 . S
O2233 Gd2184 2.412 1_556 S
O2233 C2243 1.252 . S
O2234 Gd2185 2.545 . S
O2234 C2252 1.258 . S
O2235 Gd2184 2.362 . S
O2235 Gd2185 2.606 . S
O2235 C2251 1.284 . S
O2236 Gd2184 2.324 . S
O2236 C2259 1.254 . S
O2237 Gd2185 2.429 . S
O2237 C2259 1.268 . S
O2238 Gd2185 2.545 . S
O2238 C2251 1.250 . S
O2239 Gd2185 2.412 . S
O2239 C2252 1.252 . S
C2240 O2229 1.284 1_556 S
C2240 O2232 1.250 . S
C2241 H2210 0.929 . S
C2241 C2226 1.437 . S
C2241 C2242 1.317 . S
C2242 H2213 0.930 . S
C2242 C2218 1.431 1_655 S
C2242 C2241 1.317 . S
C2243 Gd2184 2.828 1_556 S
C2243 O2228 1.258 . S
C2243 O2233 1.252 . S
C2243 C2244 1.497 . S
C2244 C2243 1.497 . S
C2244 C2245 1.395 . S
C2244 C2246 1.380 . S
C2245 C2244 1.395 . S
C2245 C2248 1.398 1_455 S
C2245 H2260 0.930 1_455 S
C2246 C2244 1.380 . S
C2246 C2247 1.391 . S
C2246 H2261 0.930 . S
C2247 C2246 1.391 . S
C2247 C2249 1.387 . S
C2248 C2245 1.398 1_655 S
C2248 C2249 1.380 1_655 S
C2248 H2262 0.930 . S
C2249 C2247 1.387 . S
C2249 C2248 1.380 1_455 S
C2249 H2263 0.933 1_455 S
C2250 O2230 1.254 . S
C2250 O2231 1.268 . S
C2251 O2235 1.284 . S
C2251 O2238 1.250 . S
C2252 Gd2185 2.828 . S
C2252 O2234 1.258 . S
C2252 O2239 1.252 . S
C2252 C2253 1.497 . S
C2253 C2252 1.497 . S
C2253 C2254 1.395 . S
C2253 C2255 1.380 . S
C2254 C2253 1.395 . S
C2254 C2257 1.398 . S
C2254 H2264 0.930 . S
C2255 C2253 1.380 . S
C2255 C2256 1.391 . S
C2255 H2265 0.930 . S
C2256 C2255 1.391 . S
C2256 C2258 1.387 . S
C2257 C2254 1.398 . S
C2257 C2258 1.380 . S
C2257 H2266 0.930 . S
C2258 C2256 1.387 . S
C2258 C2257 1.380 . S
C2258 H2267 0.930 . S
C2259 O2236 1.254 . S
C2259 O2237 1.268 . S
H2260 C2245 0.930 1_655 S
H2261 C2246 0.930 . S
H2262 C2248 0.930 . S
H2263 C2249 0.933 1_655 S
H2264 C2254 0.930 . S
H2265 C2255 0.930 . S
H2266 C2257 0.930 . S
H2267 C2258 0.930 . S
Gd2268 N2299 2.661 . S
Gd2268 N2305 2.601 . S
Gd2268 O2312 2.545 . S
Gd2268 O2313 2.606 . S
Gd2268 O2315 2.429 . S
Gd2268 O2316 2.545 . S
Gd2268 O2317 2.412 . S
Gd2268 O2319 2.362 . S
Gd2268 O2320 2.324 . S
Gd2268 C2327 2.828 . S
Gd2269 N2278 2.661 . S
Gd2269 N2282 2.601 . S
Gd2269 O2313 2.362 . S
Gd2269 O2314 2.324 . S
Gd2269 O2318 2.545 . S
Gd2269 O2319 2.606 . S
Gd2269 O2321 2.429 . S
Gd2269 O2322 2.545 . S
Gd2269 O2323 2.412 . S
Gd2269 C2336 2.828 . S
C2270 C2273 1.417 . S
C2270 C2275 1.431 . S
C2270 C2276 1.412 . S
C2271 C2274 1.437 . S
C2271 C2275 1.317 . S
C2271 H2290 0.929 . S
C2272 C2273 1.426 . S
C2272 C2274 1.413 . S
C2272 N2282 1.359 . S
C2273 C2270 1.417 . S
C2273 C2272 1.426 . S
C2273 N2278 1.350 . S
C2274 C2271 1.437 . S
C2274 C2272 1.413 . S
C2274 C2284 1.391 . S
C2275 C2270 1.431 . S
C2275 C2271 1.317 . S
C2275 H2286 0.930 . S
C2276 C2270 1.412 . S
C2276 C2277 1.355 . S
C2276 H2288 0.930 . S
C2277 C2276 1.355 . S
C2277 C2279 1.402 . S
C2277 H2289 0.930 . S
N2278 Gd2269 2.661 . S
N2278 C2273 1.350 . S
N2278 C2279 1.307 . S
C2279 C2277 1.402 . S
C2279 N2278 1.307 . S
C2279 H2280 0.930 . S
H2280 C2279 0.930 . S
C2281 N2282 1.334 . S
C2281 C2283 1.394 . S
C2281 H2285 0.930 . S
N2282 Gd2269 2.601 . S
N2282 C2272 1.359 . S
N2282 C2281 1.334 . S
C2283 C2281 1.394 . S
C2283 C2284 1.359 . S
C2283 H2295 0.930 . S
C2284 C2274 1.391 . S
C2284 C2283 1.359 . S
C2284 H2296 0.929 . S
H2285 C2281 0.930 . S
H2286 C2275 0.930 . S
H2287 C2304 0.930 . S
H2288 C2276 0.930 . S
H2289 C2277 0.930 . S
H2290 C2271 0.929 . S
H2291 C2309 0.930 . S
H2292 C2300 0.930 . S
H2293 C2301 0.930 . S
H2294 C2325 0.929 . S
H2295 C2283 0.930 . S
H2296 C2284 0.929 . S
H2297 C2326 0.930 . S
H2298 C2307 0.930 . S
N2299 Gd2268 2.661 . S
N2299 C2303 1.350 . S
N2299 C2304 1.307 . S
C2300 H2292 0.930 . S
C2300 C2301 1.355 . S
C2300 C2302 1.412 . S
C2301 H2293 0.930 . S
C2301 C2300 1.355 . S
C2301 C2304 1.402 . S
C2302 C2300 1.412 . S
C2302 C2303 1.417 . S
C2302 C2326 1.431 . S
C2303 N2299 1.350 . S
C2303 C2302 1.417 . S
C2303 C2306 1.426 . S
C2304 H2287 0.930 . S
C2304 N2299 1.307 . S
C2304 C2301 1.402 . S
N2305 Gd2268 2.601 . S
N2305 C2306 1.359 . S
N2305 C2309 1.334 . S
C2306 C2303 1.426 . S
C2306 N2305 1.359 . S
C2306 C2310 1.413 . S
C2307 H2298 0.930 . S
C2307 C2308 1.359 . S
C2307 C2309 1.394 . S
C2308 C2307 1.359 . S
C2308 C2310 1.391 . S
C2308 H2311 0.929 . S
C2309 H2291 0.930 . S
C2309 N2305 1.334 . S
C2309 C2307 1.394 . S
C2310 C2306 1.413 . S
C2310 C2308 1.391 . S
C2310 C2325 1.437 . S
H2311 C2308 0.929 . S
O2312 Gd2268 2.545 . S
O2312 C2327 1.258 . S
O2313 Gd2268 2.606 . S
O2313 Gd2269 2.362 . S
O2313 C2324 1.284 . S
O2314 Gd2269 2.324 . S
O2314 C2334 1.254 . S
O2315 Gd2268 2.429 . S
O2315 C2334 1.268 . S
O2316 Gd2268 2.545 . S
O2316 C2324 1.250 . S
O2317 Gd2268 2.412 . S
O2317 C2327 1.252 . S
O2318 Gd2269 2.545 . S
O2318 C2336 1.258 . S
O2319 Gd2268 2.362 . S
O2319 Gd2269 2.606 . S
O2319 C2335 1.284 . S
O2320 Gd2268 2.324 . S
O2320 C2343 1.254 . S
O2321 Gd2269 2.429 . S
O2321 C2343 1.268 . S
O2322 Gd2269 2.545 . S
O2322 C2335 1.250 . S
O2323 Gd2269 2.412 . S
O2323 C2336 1.252 . S
C2324 O2313 1.284 . S
C2324 O2316 1.250 . S
C2325 H2294 0.929 . S
C2325 C2310 1.437 . S
C2325 C2326 1.317 . S
C2326 H2297 0.930 . S
C2326 C2302 1.431 . S
C2326 C2325 1.317 . S
C2327 Gd2268 2.828 . S
C2327 O2312 1.258 . S
C2327 O2317 1.252 . S
C2327 C2328 1.497 . S
C2328 C2327 1.497 . S
C2328 C2329 1.395 . S
C2328 C2330 1.380 . S
C2329 C2328 1.395 . S
C2329 C2332 1.398 1_556 S
C2329 H2344 0.930 . S
C2330 C2328 1.380 . S
C2330 C2331 1.391 1_556 S
C2330 H2345 0.930 . S
C2331 C2330 1.391 1_554 S
C2331 C2333 1.387 . S
C2332 C2329 1.398 1_554 S
C2332 C2333 1.380 . S
C2332 H2346 0.930 . S
C2333 C2331 1.387 . S
C2333 C2332 1.380 . S
C2333 H2347 0.930 . S
C2334 O2314 1.254 . S
C2334 O2315 1.268 . S
C2335 O2319 1.284 . S
C2335 O2322 1.250 . S
C2336 Gd2269 2.828 . S
C2336 O2318 1.258 . S
C2336 O2323 1.252 . S
C2336 C2337 1.497 . S
C2337 C2336 1.497 . S
C2337 C2338 1.395 . S
C2337 C2339 1.380 . S
C2338 C2337 1.395 . S
C2338 C2341 1.398 . S
C2338 H2348 0.930 . S
C2339 C2337 1.380 . S
C2339 C2340 1.391 . S
C2339 H2349 0.930 . S
C2340 C2339 1.391 . S
C2340 C2342 1.387 . S
C2341 C2338 1.398 . S
C2341 C2342 1.380 . S
C2341 H2350 0.930 . S
C2342 C2340 1.387 . S
C2342 C2341 1.380 . S
C2342 H2351 0.930 . S
C2343 O2320 1.254 . S
C2343 O2321 1.268 . S
H2344 C2329 0.930 . S
H2345 C2330 0.930 . S
H2346 C2332 0.930 . S
H2347 C2333 0.930 . S
H2348 C2338 0.930 . S
H2349 C2339 0.930 . S
H2350 C2341 0.930 . S
H2351 C2342 0.930 . S
Gd2352 N2383 2.661 . S
Gd2352 N2389 2.601 . S
Gd2352 O2396 2.545 . S
Gd2352 O2397 2.606 . S
Gd2352 O2399 2.429 . S
Gd2352 O2400 2.545 . S
Gd2352 O2401 2.412 . S
Gd2352 O2403 2.362 . S
Gd2352 O2404 2.324 . S
Gd2352 C2411 2.828 . S
Gd2353 N2362 2.661 . S
Gd2353 N2366 2.601 . S
Gd2353 O2397 2.362 . S
Gd2353 O2398 2.324 . S
Gd2353 O2402 2.545 . S
Gd2353 O2403 2.606 . S
Gd2353 O2405 2.429 . S
Gd2353 O2406 2.545 . S
Gd2353 O2407 2.412 . S
Gd2353 C2420 2.828 . S
C2354 C2357 1.417 . S
C2354 C2359 1.431 1_565 S
C2354 C2360 1.412 . S
C2355 C2358 1.437 . S
C2355 C2359 1.317 . S
C2355 H2374 0.929 . S
C2356 C2357 1.426 . S
C2356 C2358 1.413 1_565 S
C2356 N2366 1.359 . S
C2357 C2354 1.417 . S
C2357 C2356 1.426 . S
C2357 N2362 1.350 . S
C2358 C2355 1.437 . S
C2358 C2356 1.413 1_545 S
C2358 C2368 1.391 . S
C2359 C2354 1.431 1_545 S
C2359 C2355 1.317 . S
C2359 H2370 0.930 . S
C2360 C2354 1.412 . S
C2360 C2361 1.355 . S
C2360 H2372 0.930 . S
C2361 C2360 1.355 . S
C2361 C2363 1.402 . S
C2361 H2373 0.930 . S
N2362 Gd2353 2.661 . S
N2362 C2357 1.350 . S
N2362 C2363 1.307 . S
C2363 C2361 1.402 . S
C2363 N2362 1.307 . S
C2363 H2364 0.930 . S
H2364 C2363 0.930 . S
C2365 N2366 1.334 1_545 S
C2365 C2367 1.394 . S
C2365 H2369 0.943 . S
N2366 Gd2353 2.601 . S
N2366 C2356 1.359 . S
N2366 C2365 1.334 1_565 S
C2367 C2365 1.394 . S
C2367 C2368 1.359 . S
C2367 H2379 0.930 . S
C2368 C2358 1.391 . S
C2368 C2367 1.359 . S
C2368 H2380 0.929 . S
H2369 C2365 0.943 . S
H2370 C2359 0.930 . S
H2371 C2388 0.930 . S
H2372 C2360 0.930 . S
H2373 C2361 0.930 . S
H2374 C2355 0.929 . S
H2375 C2393 0.930 . S
H2376 C2384 0.930 . S
H2377 C2385 0.930 . S
H2378 C2409 0.929 . S
H2379 C2367 0.930 . S
H2380 C2368 0.929 . S
H2381 C2410 0.930 . S
H2382 C2391 0.930 . S
N2383 Gd2352 2.661 . S
N2383 C2387 1.350 . S
N2383 C2388 1.307 . S
C2384 H2376 0.930 . S
C2384 C2385 1.355 . S
C2384 C2386 1.412 . S
C2385 H2377 0.930 . S
C2385 C2384 1.355 . S
C2385 C2388 1.402 . S
C2386 C2384 1.412 . S
C2386 C2387 1.417 . S
C2386 C2410 1.431 . S
C2387 N2383 1.350 . S
C2387 C2386 1.417 . S
C2387 C2390 1.426 . S
C2388 H2371 0.930 . S
C2388 N2383 1.307 . S
C2388 C2385 1.402 . S
N2389 Gd2352 2.601 . S
N2389 C2390 1.359 . S
N2389 C2393 1.334 . S
C2390 C2387 1.426 . S
C2390 N2389 1.359 . S
C2390 C2394 1.413 . S
C2391 H2382 0.930 . S
C2391 C2392 1.359 . S
C2391 C2393 1.394 . S
C2392 C2391 1.359 . S
C2392 C2394 1.391 . S
C2392 H2395 0.929 . S
C2393 H2375 0.930 . S
C2393 N2389 1.334 . S
C2393 C2391 1.394 . S
C2394 C2390 1.413 . S
C2394 C2392 1.391 . S
C2394 C2409 1.437 . S
H2395 C2392 0.929 . S
O2396 Gd2352 2.545 . S
O2396 C2411 1.258 . S
O2397 Gd2352 2.606 . S
O2397 Gd2353 2.362 . S
O2397 C2408 1.284 . S
O2398 Gd2353 2.324 . S
O2398 C2418 1.254 . S
O2399 Gd2352 2.429 . S
O2399 C2418 1.268 . S
O2400 Gd2352 2.545 . S
O2400 C2408 1.250 . S
O2401 Gd2352 2.412 . S
O2401 C2411 1.252 . S
O2402 Gd2353 2.545 . S
O2402 C2420 1.258 . S
O2403 Gd2352 2.362 . S
O2403 Gd2353 2.606 . S
O2403 C2419 1.284 . S
O2404 Gd2352 2.324 . S
O2404 C2427 1.254 . S
O2405 Gd2353 2.429 . S
O2405 C2427 1.268 . S
O2406 Gd2353 2.545 . S
O2406 C2419 1.250 . S
O2407 Gd2353 2.412 . S
O2407 C2420 1.252 . S
C2408 O2397 1.284 . S
C2408 O2400 1.250 . S
C2409 H2378 0.929 . S
C2409 C2394 1.437 . S
C2409 C2410 1.317 . S
C2410 H2381 0.930 . S
C2410 C2386 1.431 . S
C2410 C2409 1.317 . S
C2411 Gd2352 2.828 . S
C2411 O2396 1.258 . S
C2411 O2401 1.252 . S
C2411 C2412 1.497 1_554 S
C2412 C2411 1.497 1_556 S
C2412 C2413 1.395 . S
C2412 C2414 1.380 . S
C2413 C2412 1.395 . S
C2413 C2416 1.398 . S
C2413 H2428 0.930 . S
C2414 C2412 1.380 . S
C2414 C2415 1.391 . S
C2414 H2429 0.930 . S
C2415 C2414 1.391 . S
C2415 C2417 1.387 . S
C2416 C2413 1.398 . S
C2416 C2417 1.380 . S
C2416 H2430 0.930 . S
C2417 C2415 1.387 . S
C2417 C2416 1.380 . S
C2417 H2431 0.930 . S
C2418 O2398 1.254 . S
C2418 O2399 1.268 . S
C2419 O2403 1.284 . S
C2419 O2406 1.250 . S
C2420 Gd2353 2.828 . S
C2420 O2402 1.258 . S
C2420 O2407 1.252 . S
C2420 C2421 1.497 . S
C2421 C2420 1.497 . S
C2421 C2422 1.395 . S
C2421 C2423 1.380 . S
C2422 C2421 1.395 . S
C2422 C2425 1.398 1_565 S
C2422 H2432 0.930 1_565 S
C2423 C2421 1.380 . S
C2423 C2424 1.391 . S
C2423 H2433 0.930 . S
C2424 C2423 1.391 . S
C2424 C2426 1.387 . S
C2425 C2422 1.398 1_545 S
C2425 C2426 1.380 1_545 S
C2425 H2434 0.930 . S
C2426 C2424 1.387 . S
C2426 C2425 1.380 1_565 S
C2426 H2435 0.930 . S
C2427 O2404 1.254 . S
C2427 O2405 1.268 . S
H2428 C2413 0.930 . S
H2429 C2414 0.930 . S
H2430 C2416 0.930 . S
H2431 C2417 0.930 . S
H2432 C2422 0.930 1_545 S
H2433 C2423 0.930 . S
H2434 C2425 0.930 . S
H2435 C2426 0.930 . S
Gd2436 N2467 2.661 . S
Gd2436 N2473 2.601 . S
Gd2436 O2480 2.545 . S
Gd2436 O2481 2.606 . S
Gd2436 O2483 2.429 . S
Gd2436 O2484 2.545 . S
Gd2436 O2485 2.412 . S
Gd2436 O2487 2.362 . S
Gd2436 O2488 2.324 . S
Gd2436 C2495 2.828 . S
Gd2437 N2446 2.661 . S
Gd2437 N2450 2.601 . S
Gd2437 O2481 2.362 . S
Gd2437 O2482 2.324 . S
Gd2437 O2486 2.545 . S
Gd2437 O2487 2.606 . S
Gd2437 O2489 2.429 . S
Gd2437 O2490 2.545 . S
Gd2437 O2491 2.412 . S
Gd2437 C2504 2.828 . S
C2438 C2441 1.417 . S
C2438 C2443 1.431 . S
C2438 C2444 1.412 . S
C2439 C2442 1.437 . S
C2439 C2443 1.317 . S
C2439 H2458 0.929 . S
C2440 C2441 1.426 . S
C2440 C2442 1.413 . S
C2440 N2450 1.359 . S
C2441 C2438 1.417 . S
C2441 C2440 1.426 . S
C2441 N2446 1.350 . S
C2442 C2439 1.437 . S
C2442 C2440 1.413 . S
C2442 C2452 1.391 . S
C2443 C2438 1.431 . S
C2443 C2439 1.317 . S
C2443 H2454 0.930 . S
C2444 C2438 1.412 . S
C2444 C2445 1.355 . S
C2444 H2456 0.930 . S
C2445 C2444 1.355 . S
C2445 C2447 1.402 . S
C2445 H2457 0.930 . S
N2446 Gd2437 2.661 . S
N2446 C2441 1.350 . S
N2446 C2447 1.307 . S
C2447 C2445 1.402 . S
C2447 N2446 1.307 . S
C2447 H2448 0.930 . S
H2448 C2447 0.930 . S
C2449 N2450 1.334 . S
C2449 C2451 1.394 . S
C2449 H2453 0.930 . S
N2450 Gd2437 2.601 . S
N2450 C2440 1.359 . S
N2450 C2449 1.334 . S
C2451 C2449 1.394 . S
C2451 C2452 1.359 . S
C2451 H2463 0.930 . S
C2452 C2442 1.391 . S
C2452 C2451 1.359 . S
C2452 H2464 0.929 . S
H2453 C2449 0.930 . S
H2454 C2443 0.930 . S
H2455 C2472 0.930 . S
H2456 C2444 0.930 . S
H2457 C2445 0.930 . S
H2458 C2439 0.929 . S
H2459 C2477 0.930 . S
H2460 C2468 0.930 . S
H2461 C2469 0.930 . S
H2462 C2493 0.929 . S
H2463 C2451 0.930 . S
H2464 C2452 0.929 . S
H2465 C2494 0.930 . S
H2466 C2475 0.930 . S
N2467 Gd2436 2.661 . S
N2467 C2471 1.350 . S
N2467 C2472 1.307 . S
C2468 H2460 0.930 . S
C2468 C2469 1.355 . S
C2468 C2470 1.412 . S
C2469 H2461 0.930 . S
C2469 C2468 1.355 . S
C2469 C2472 1.402 . S
C2470 C2468 1.412 . S
C2470 C2471 1.417 . S
C2470 C2494 1.431 . S
C2471 N2467 1.350 . S
C2471 C2470 1.417 . S
C2471 C2474 1.426 . S
C2472 H2455 0.930 . S
C2472 N2467 1.307 . S
C2472 C2469 1.402 . S
N2473 Gd2436 2.601 . S
N2473 C2474 1.359 . S
N2473 C2477 1.334 . S
C2474 C2471 1.426 . S
C2474 N2473 1.359 . S
C2474 C2478 1.413 . S
C2475 H2466 0.930 . S
C2475 C2476 1.359 . S
C2475 C2477 1.394 . S
C2476 C2475 1.359 . S
C2476 C2478 1.391 . S
C2476 H2479 0.929 . S
C2477 H2459 0.930 . S
C2477 N2473 1.334 . S
C2477 C2475 1.394 . S
C2478 C2474 1.413 . S
C2478 C2476 1.391 . S
C2478 C2493 1.437 . S
H2479 C2476 0.929 . S
O2480 Gd2436 2.545 . S
O2480 C2495 1.258 . S
O2481 Gd2436 2.606 . S
O2481 Gd2437 2.362 . S
O2481 C2492 1.284 . S
O2482 Gd2437 2.324 . S
O2482 C2502 1.254 . S
O2483 Gd2436 2.429 . S
O2483 C2502 1.268 . S
O2484 Gd2436 2.545 . S
O2484 C2492 1.250 . S
O2485 Gd2436 2.412 . S
O2485 C2495 1.252 . S
O2486 Gd2437 2.545 . S
O2486 C2504 1.258 . S
O2487 Gd2436 2.362 . S
O2487 Gd2437 2.606 . S
O2487 C2503 1.284 . S
O2488 Gd2436 2.324 . S
O2488 C2511 1.254 . S
O2489 Gd2437 2.429 . S
O2489 C2511 1.268 . S
O2490 Gd2437 2.545 . S
O2490 C2503 1.250 . S
O2491 Gd2437 2.412 . S
O2491 C2504 1.252 . S
C2492 O2481 1.284 . S
C2492 O2484 1.250 . S
C2493 H2462 0.929 . S
C2493 C2478 1.437 . S
C2493 C2494 1.317 . S
C2494 H2465 0.930 . S
C2494 C2470 1.431 . S
C2494 C2493 1.317 . S
C2495 Gd2436 2.828 . S
C2495 O2480 1.258 . S
C2495 O2485 1.252 . S
C2495 C2496 1.497 . S
C2496 C2495 1.497 . S
C2496 C2497 1.395 . S
C2496 C2498 1.380 . S
C2497 C2496 1.395 . S
C2497 C2500 1.398 . S
C2497 H2512 0.930 . S
C2498 C2496 1.380 . S
C2498 C2499 1.391 . S
C2498 H2513 0.930 . S
C2499 C2498 1.391 . S
C2499 C2501 1.387 . S
C2500 C2497 1.398 . S
C2500 C2501 1.380 . S
C2500 H2514 0.930 . S
C2501 C2499 1.387 . S
C2501 C2500 1.380 . S
C2501 H2515 0.930 . S
C2502 O2482 1.254 . S
C2502 O2483 1.268 . S
C2503 O2487 1.284 . S
C2503 O2490 1.250 . S
C2504 Gd2437 2.828 . S
C2504 O2486 1.258 . S
C2504 O2491 1.252 . S
C2504 C2505 1.497 . S
C2505 C2504 1.497 . S
C2505 C2506 1.395 . S
C2505 C2507 1.380 . S
C2506 C2505 1.395 . S
C2506 C2509 1.398 . S
C2506 H2516 0.930 . S
C2507 C2505 1.380 . S
C2507 C2508 1.391 1_556 S
C2507 H2517 0.930 . S
C2508 C2507 1.391 1_554 S
C2508 C2510 1.387 . S
C2509 C2506 1.398 . S
C2509 C2510 1.380 1_556 S
C2509 H2518 0.924 1_556 S
C2510 C2508 1.387 . S
C2510 C2509 1.380 1_554 S
C2510 H2519 0.930 . S
C2511 O2488 1.254 . S
C2511 O2489 1.268 . S
H2512 C2497 0.930 . S
H2513 C2498 0.930 . S
H2514 C2500 0.930 . S
H2515 C2501 0.930 . S
H2516 C2506 0.930 . S
H2517 C2507 0.930 . S
H2518 C2509 0.924 1_554 S
H2519 C2510 0.930 . S
Gd2520 N2551 2.661 . S
Gd2520 N2557 2.601 . S
Gd2520 O2564 2.545 . S
Gd2520 O2565 2.606 . S
Gd2520 O2567 2.429 . S
Gd2520 O2568 2.545 . S
Gd2520 O2569 2.412 . S
Gd2520 O2571 2.362 . S
Gd2520 O2572 2.324 . S
Gd2520 C2579 2.828 . S
Gd2521 N2530 2.661 . S
Gd2521 N2534 2.601 . S
Gd2521 O2565 2.362 . S
Gd2521 O2566 2.324 . S
Gd2521 O2570 2.545 . S
Gd2521 O2571 2.606 . S
Gd2521 O2573 2.429 . S
Gd2521 O2574 2.545 . S
Gd2521 O2575 2.412 . S
Gd2521 C2588 2.828 . S
C2522 C2525 1.417 . S
C2522 C2527 1.431 . S
C2522 C2528 1.412 1_545 S
C2523 C2526 1.437 . S
C2523 C2527 1.317 . S
C2523 H2542 0.929 . S
C2524 C2525 1.426 . S
C2524 C2526 1.413 . S
C2524 N2534 1.359 . S
C2525 C2522 1.417 . S
C2525 C2524 1.426 . S
C2525 N2530 1.350 . S
C2526 C2523 1.437 . S
C2526 C2524 1.413 . S
C2526 C2536 1.391 . S
C2527 C2522 1.431 . S
C2527 C2523 1.317 . S
C2527 H2538 0.930 1_545 S
C2528 C2522 1.412 1_565 S
C2528 C2529 1.355 . S
C2528 H2540 0.930 . S
C2529 C2528 1.355 . S
C2529 C2531 1.402 1_565 S
C2529 H2541 0.930 . S
N2530 Gd2521 2.661 . S
N2530 C2525 1.350 . S
N2530 C2531 1.307 . S
C2531 C2529 1.402 1_545 S
C2531 N2530 1.307 . S
C2531 H2532 0.930 . S
H2532 C2531 0.930 . S
C2533 N2534 1.334 . S
C2533 C2535 1.394 . S
C2533 H2537 0.930 . S
N2534 Gd2521 2.601 . S
N2534 C2524 1.359 . S
N2534 C2533 1.334 . S
C2535 C2533 1.394 . S
C2535 C2536 1.359 . S
C2535 H2547 0.930 . S
C2536 C2526 1.391 . S
C2536 C2535 1.359 . S
C2536 H2548 0.929 . S
H2537 C2533 0.930 . S
H2538 C2527 0.930 1_565 S
H2539 C2556 0.930 . S
H2540 C2528 0.930 . S
H2541 C2529 0.930 . S
H2542 C2523 0.929 . S
H2543 C2561 0.946 . S
H2544 C2552 0.930 . S
H2545 C2553 0.930 . S
H2546 C2577 0.929 . S
H2547 C2535 0.930 . S
H2548 C2536 0.929 . S
H2549 C2578 0.930 . S
H2550 C2559 0.930 . S
N2551 Gd2520 2.661 . S
N2551 C2555 1.350 . S
N2551 C2556 1.307 . S
C2552 H2544 0.930 . S
C2552 C2553 1.355 . S
C2552 C2554 1.412 . S
C2553 H2545 0.930 . S
C2553 C2552 1.355 . S
C2553 C2556 1.402 . S
C2554 C2552 1.412 . S
C2554 C2555 1.417 . S
C2554 C2578 1.431 1_455 S
C2555 N2551 1.350 . S
C2555 C2554 1.417 . S
C2555 C2558 1.426 . S
C2556 H2539 0.930 . S
C2556 N2551 1.307 . S
C2556 C2553 1.402 . S
N2557 Gd2520 2.601 . S
N2557 C2558 1.359 . S
N2557 C2561 1.360 . S
C2558 C2555 1.426 . S
C2558 N2557 1.359 . S
C2558 C2562 1.413 1_455 S
C2559 H2550 0.930 . S
C2559 C2560 1.359 . S
C2559 C2561 1.353 1_655 S
C2560 C2559 1.359 . S
C2560 C2562 1.391 . S
C2560 H2563 0.929 . S
C2561 H2543 0.946 . S
C2561 N2557 1.360 . S
C2561 C2559 1.353 1_455 S
C2562 C2558 1.413 1_655 S
C2562 C2560 1.391 . S
C2562 C2577 1.437 . S
H2563 C2560 0.929 . S
O2564 Gd2520 2.545 . S
O2564 C2579 1.258 . S
O2565 Gd2520 2.606 . S
O2565 Gd2521 2.362 . S
O2565 C2576 1.284 . S
O2566 Gd2521 2.324 . S
O2566 C2586 1.254 . S
O2567 Gd2520 2.429 . S
O2567 C2586 1.268 . S
O2568 Gd2520 2.545 . S
O2568 C2576 1.250 . S
O2569 Gd2520 2.412 . S
O2569 C2579 1.252 . S
O2570 Gd2521 2.545 . S
O2570 C2588 1.258 . S
O2571 Gd2520 2.362 . S
O2571 Gd2521 2.606 . S
O2571 C2587 1.284 . S
O2572 Gd2520 2.324 . S
O2572 C2595 1.254 . S
O2573 Gd2521 2.429 . S
O2573 C2595 1.268 . S
O2574 Gd2521 2.545 . S
O2574 C2587 1.250 . S
O2575 Gd2521 2.412 . S
O2575 C2588 1.252 . S
C2576 O2565 1.284 . S
C2576 O2568 1.250 . S
C2577 H2546 0.929 . S
C2577 C2562 1.437 . S
C2577 C2578 1.317 . S
C2578 H2549 0.930 . S
C2578 C2554 1.431 1_655 S
C2578 C2577 1.317 . S
C2579 Gd2520 2.828 . S
C2579 O2564 1.258 . S
C2579 O2569 1.252 . S
C2579 C2580 1.497 . S
C2580 C2579 1.497 . S
C2580 C2581 1.395 . S
C2580 C2582 1.380 . S
C2581 C2580 1.395 . S
C2581 C2584 1.398 1_455 S
C2581 H2596 0.930 1_455 S
C2582 C2580 1.380 . S
C2582 C2583 1.391 . S
C2582 H2597 0.930 . S
C2583 C2582 1.391 . S
C2583 C2585 1.387 . S
C2584 C2581 1.398 1_655 S
C2584 C2585 1.380 1_655 S
C2584 H2598 0.930 . S
C2585 C2583 1.387 . S
C2585 C2584 1.380 1_455 S
C2585 H2599 0.931 1_455 S
C2586 O2566 1.254 . S
C2586 O2567 1.268 . S
C2587 O2571 1.284 . S
C2587 O2574 1.250 . S
C2588 Gd2521 2.828 . S
C2588 O2570 1.258 . S
C2588 O2575 1.252 . S
C2588 C2589 1.497 . S
C2589 C2588 1.497 . S
C2589 C2590 1.395 . S
C2589 C2591 1.380 . S
C2590 C2589 1.395 . S
C2590 C2593 1.398 . S
C2590 H2600 0.930 . S
C2591 C2589 1.380 . S
C2591 C2592 1.391 . S
C2591 H2601 0.930 . S
C2592 C2591 1.391 . S
C2592 C2594 1.387 . S
C2593 C2590 1.398 . S
C2593 C2594 1.380 . S
C2593 H2602 0.930 . S
C2594 C2592 1.387 . S
C2594 C2593 1.380 . S
C2594 H2603 0.930 . S
C2595 O2572 1.254 . S
C2595 O2573 1.268 . S
H2596 C2581 0.930 1_655 S
H2597 C2582 0.930 . S
H2598 C2584 0.930 . S
H2599 C2585 0.931 1_655 S
H2600 C2590 0.930 . S
H2601 C2591 0.930 . S
H2602 C2593 0.930 . S
H2603 C2594 0.930 . S
Gd2604 N2635 2.661 . S
Gd2604 N2641 2.601 . S
Gd2604 O2648 2.545 . S
Gd2604 O2649 2.606 . S
Gd2604 O2651 2.429 . S
Gd2604 O2652 2.545 . S
Gd2604 O2653 2.412 . S
Gd2604 O2655 2.362 . S
Gd2604 O2656 2.324 . S
Gd2604 C2663 2.828 . S
Gd2605 N2614 2.661 . S
Gd2605 N2618 2.601 . S
Gd2605 O2649 2.362 . S
Gd2605 O2650 2.324 . S
Gd2605 O2654 2.545 . S
Gd2605 O2655 2.606 . S
Gd2605 O2657 2.429 . S
Gd2605 O2658 2.545 . S
Gd2605 O2659 2.412 . S
Gd2605 C2672 2.828 . S
C2606 C2609 1.417 . S
C2606 C2611 1.431 . S
C2606 C2612 1.412 . S
C2607 C2610 1.437 . S
C2607 C2611 1.317 . S
C2607 H2626 0.929 . S
C2608 C2609 1.426 . S
C2608 C2610 1.413 . S
C2608 N2618 1.359 . S
C2609 C2606 1.417 . S
C2609 C2608 1.426 . S
C2609 N2614 1.350 . S
C2610 C2607 1.437 . S
C2610 C2608 1.413 . S
C2610 C2620 1.391 . S
C2611 C2606 1.431 . S
C2611 C2607 1.317 . S
C2611 H2622 0.930 . S
C2612 C2606 1.412 . S
C2612 C2613 1.355 . S
C2612 H2624 0.930 . S
C2613 C2612 1.355 . S
C2613 C2615 1.402 . S
C2613 H2625 0.930 . S
N2614 Gd2605 2.661 . S
N2614 C2609 1.350 . S
N2614 C2615 1.307 . S
C2615 C2613 1.402 . S
C2615 N2614 1.307 . S
C2615 H2616 0.930 . S
H2616 C2615 0.930 . S
C2617 N2618 1.334 . S
C2617 C2619 1.394 . S
C2617 H2621 0.930 . S
N2618 Gd2605 2.601 . S
N2618 C2608 1.359 . S
N2618 C2617 1.334 . S
C2619 C2617 1.394 . S
C2619 C2620 1.359 . S
C2619 H2631 0.930 . S
C2620 C2610 1.391 . S
C2620 C2619 1.359 . S
C2620 H2632 0.929 . S
H2621 C2617 0.930 . S
H2622 C2611 0.930 . S
H2623 C2640 0.930 . S
H2624 C2612 0.930 . S
H2625 C2613 0.930 . S
H2626 C2607 0.929 . S
H2627 C2645 0.930 . S
H2628 C2636 0.930 . S
H2629 C2637 0.930 . S
H2630 C2661 0.929 . S
H2631 C2619 0.930 . S
H2632 C2620 0.929 . S
H2633 C2662 0.930 . S
H2634 C2643 0.930 . S
N2635 Gd2604 2.661 . S
N2635 C2639 1.350 . S
N2635 C2640 1.307 . S
C2636 H2628 0.930 . S
C2636 C2637 1.355 . S
C2636 C2638 1.412 . S
C2637 H2629 0.930 . S
C2637 C2636 1.355 . S
C2637 C2640 1.402 . S
C2638 C2636 1.412 . S
C2638 C2639 1.417 . S
C2638 C2662 1.431 . S
C2639 N2635 1.350 . S
C2639 C2638 1.417 . S
C2639 C2642 1.426 . S
C2640 H2623 0.930 . S
C2640 N2635 1.307 . S
C2640 C2637 1.402 . S
N2641 Gd2604 2.601 . S
N2641 C2642 1.359 . S
N2641 C2645 1.334 . S
C2642 C2639 1.426 . S
C2642 N2641 1.359 . S
C2642 C2646 1.413 . S
C2643 H2634 0.930 . S
C2643 C2644 1.359 . S
C2643 C2645 1.394 . S
C2644 C2643 1.359 . S
C2644 C2646 1.391 . S
C2644 H2647 0.929 . S
C2645 H2627 0.930 . S
C2645 N2641 1.334 . S
C2645 C2643 1.394 . S
C2646 C2642 1.413 . S
C2646 C2644 1.391 . S
C2646 C2661 1.437 . S
H2647 C2644 0.929 . S
O2648 Gd2604 2.545 . S
O2648 C2663 1.258 . S
O2649 Gd2604 2.606 . S
O2649 Gd2605 2.362 . S
O2649 C2660 1.284 . S
O2650 Gd2605 2.324 . S
O2650 C2670 1.254 . S
O2651 Gd2604 2.429 . S
O2651 C2670 1.268 . S
O2652 Gd2604 2.545 . S
O2652 C2660 1.250 . S
O2653 Gd2604 2.412 . S
O2653 C2663 1.252 . S
O2654 Gd2605 2.545 . S
O2654 C2672 1.258 . S
O2655 Gd2604 2.362 . S
O2655 Gd2605 2.606 . S
O2655 C2671 1.284 . S
O2656 Gd2604 2.324 . S
O2656 C2679 1.254 . S
O2657 Gd2605 2.429 . S
O2657 C2679 1.268 . S
O2658 Gd2605 2.545 . S
O2658 C2671 1.250 . S
O2659 Gd2605 2.412 . S
O2659 C2672 1.252 . S
C2660 O2649 1.284 . S
C2660 O2652 1.250 . S
C2661 H2630 0.929 . S
C2661 C2646 1.437 . S
C2661 C2662 1.317 . S
C2662 H2633 0.930 . S
C2662 C2638 1.431 . S
C2662 C2661 1.317 . S
C2663 Gd2604 2.828 . S
C2663 O2648 1.258 . S
C2663 O2653 1.252 . S
C2663 C2664 1.497 . S
C2664 C2663 1.497 . S
C2664 C2665 1.395 . S
C2664 C2666 1.380 . S
C2665 C2664 1.395 . S
C2665 C2668 1.398 . S
C2665 H2680 0.930 . S
C2666 C2664 1.380 . S
C2666 C2667 1.391 . S
C2666 H2681 0.930 . S
C2667 C2666 1.391 . S
C2667 C2669 1.387 . S
C2668 C2665 1.398 . S
C2668 C2669 1.380 . S
C2668 H2682 0.930 . S
C2669 C2667 1.387 . S
C2669 C2668 1.380 . S
C2669 H2683 0.930 . S
C2670 O2650 1.254 . S
C2670 O2651 1.268 . S
C2671 O2655 1.284 . S
C2671 O2658 1.250 . S
C2672 Gd2605 2.828 . S
C2672 O2654 1.258 . S
C2672 O2659 1.252 . S
C2672 C2673 1.497 . S
C2673 C2672 1.497 . S
C2673 C2674 1.395 . S
C2673 C2675 1.380 . S
C2674 C2673 1.395 . S
C2674 C2677 1.398 . S
C2674 H2684 0.930 . S
C2675 C2673 1.380 . S
C2675 C2676 1.391 . S
C2675 H2685 0.930 . S
C2676 C2675 1.391 . S
C2676 C2678 1.387 . S
C2677 C2674 1.398 . S
C2677 C2678 1.380 . S
C2677 H2686 0.930 . S
C2678 C2676 1.387 . S
C2678 C2677 1.380 . S
C2678 H2687 0.930 . S
C2679 O2656 1.254 . S
C2679 O2657 1.268 . S
H2680 C2665 0.930 . S
H2681 C2666 0.930 . S
H2682 C2668 0.930 . S
H2683 C2669 0.930 . S
H2684 C2674 0.930 . S
H2685 C2675 0.930 . S
H2686 C2677 0.930 . S
H2687 C2678 0.930 . S
C2688 C2689 1.349 . S
C2688 C2690 1.327 . S
C2688 H2713 0.950 . S
C2689 C2688 1.349 . S
C2689 C2705 1.349 . S
C2690 C2688 1.327 . S
C2690 C2709 1.429 . S
C2690 H2714 0.950 . S
C2691 C2708 1.574 . S
C2691 C2710 1.368 . S
C2691 H2715 0.949 . S
H2692 C2696 0.949 . S
C2693 C2694 1.349 . S
C2693 C2695 1.327 . S
C2693 H2716 0.950 . S
C2694 C2693 1.349 . S
C2694 C2706 1.349 . S
C2695 C2693 1.327 . S
C2695 C2711 1.429 . S
C2695 H2717 0.950 . S
C2696 H2692 0.949 . S
C2696 C2704 1.574 . S
C2696 C2712 1.368 . S
H2697 C2705 0.950 . S
H2698 C2703 0.950 . S
H2699 C2704 0.949 . S
H2700 C2706 0.950 . S
H2701 C2707 0.950 . S
H2702 C2708 0.949 . S
C2703 H2698 0.950 . S
C2703 C2705 1.327 . S
C2703 C2709 1.429 . S
C2704 C2696 1.574 . S
C2704 H2699 0.949 . S
C2704 C2710 1.368 . S
C2705 C2689 1.349 . S
C2705 H2697 0.950 . S
C2705 C2703 1.327 . S
C2706 C2694 1.349 . S
C2706 H2700 0.950 . S
C2706 C2707 1.327 . S
C2707 H2701 0.950 . S
C2707 C2706 1.327 . S
C2707 C2711 1.429 . S
C2708 C2691 1.574 . S
C2708 H2702 0.949 . S
C2708 C2712 1.368 . S
C2709 C2690 1.429 . S
C2709 C2703 1.429 . S
C2709 C2710 1.523 . S
C2710 C2691 1.368 . S
C2710 C2704 1.368 . S
C2710 C2709 1.523 . S
C2711 C2695 1.429 . S
C2711 C2707 1.429 . S
C2711 C2712 1.523 . S
C2712 C2696 1.368 . S
C2712 C2708 1.368 . S
C2712 C2711 1.523 . S
H2713 C2688 0.950 . S
H2714 C2690 0.950 . S
H2715 C2691 0.949 . S
H2716 C2693 0.950 . S
H2717 C2695 0.950 . S
C2718 C2719 1.349 . S
C2718 C2720 1.327 . S
C2718 H2743 0.950 . S
C2719 C2718 1.349 . S
C2719 C2735 1.349 . S
C2720 C2718 1.327 . S
C2720 C2739 1.429 . S
C2720 H2744 0.950 . S
C2721 C2738 1.574 . S
C2721 C2740 1.368 . S
C2721 H2745 0.949 . S
H2722 C2726 0.949 . S
C2723 C2724 1.349 . S
C2723 C2725 1.327 . S
C2723 H2746 0.950 . S
C2724 C2723 1.349 . S
C2724 C2736 1.349 . S
C2725 C2723 1.327 . S
C2725 C2741 1.429 . S
C2725 H2747 0.950 . S
C2726 H2722 0.949 . S
C2726 C2734 1.574 . S
C2726 C2742 1.368 . S
H2727 C2735 0.950 . S
H2728 C2733 0.950 . S
H2729 C2734 0.949 . S
H2730 C2736 0.950 . S
H2731 C2737 0.950 . S
H2732 C2738 0.949 . S
C2733 H2728 0.950 . S
C2733 C2735 1.327 . S
C2733 C2739 1.429 . S
C2734 C2726 1.574 . S
C2734 H2729 0.949 . S
C2734 C2740 1.368 . S
C2735 C2719 1.349 . S
C2735 H2727 0.950 . S
C2735 C2733 1.327 . S
C2736 C2724 1.349 . S
C2736 H2730 0.950 . S
C2736 C2737 1.327 . S
C2737 H2731 0.950 . S
C2737 C2736 1.327 . S
C2737 C2741 1.429 . S
C2738 C2721 1.574 . S
C2738 H2732 0.949 . S
C2738 C2742 1.368 . S
C2739 C2720 1.429 . S
C2739 C2733 1.429 . S
C2739 C2740 1.523 . S
C2740 C2721 1.368 . S
C2740 C2734 1.368 . S
C2740 C2739 1.523 . S
C2741 C2725 1.429 . S
C2741 C2737 1.429 . S
C2741 C2742 1.523 . S
C2742 C2726 1.368 . S
C2742 C2738 1.368 . S
C2742 C2741 1.523 . S
H2743 C2718 0.950 . S
H2744 C2720 0.950 . S
H2745 C2721 0.949 . S
H2746 C2723 0.950 . S
H2747 C2725 0.950 . S
C2748 C2749 1.349 . S
C2748 C2750 1.327 . S
C2748 H2773 0.950 . S
C2749 C2748 1.349 . S
C2749 C2765 1.349 . S
C2750 C2748 1.327 . S
C2750 C2769 1.429 . S
C2750 H2774 0.950 . S
C2751 C2768 1.574 . S
C2751 C2770 1.368 . S
C2751 H2775 0.949 . S
H2752 C2756 0.949 . S
C2753 C2754 1.349 . S
C2753 C2755 1.327 . S
C2753 H2776 0.950 . S
C2754 C2753 1.349 . S
C2754 C2766 1.349 . S
C2755 C2753 1.327 . S
C2755 C2771 1.429 . S
C2755 H2777 0.950 . S
C2756 H2752 0.949 . S
C2756 C2764 1.574 . S
C2756 C2772 1.368 . S
H2757 C2765 0.950 . S
H2758 C2763 0.950 . S
H2759 C2764 0.949 . S
H2760 C2766 0.950 . S
H2761 C2767 0.950 . S
H2762 C2768 0.949 . S
C2763 H2758 0.950 . S
C2763 C2765 1.327 . S
C2763 C2769 1.429 . S
C2764 C2756 1.574 . S
C2764 H2759 0.949 . S
C2764 C2770 1.368 . S
C2765 C2749 1.349 . S
C2765 H2757 0.950 . S
C2765 C2763 1.327 . S
C2766 C2754 1.349 . S
C2766 H2760 0.950 . S
C2766 C2767 1.327 . S
C2767 H2761 0.950 . S
C2767 C2766 1.327 . S
C2767 C2771 1.429 . S
C2768 C2751 1.574 . S
C2768 H2762 0.949 . S
C2768 C2772 1.368 . S
C2769 C2750 1.429 . S
C2769 C2763 1.429 . S
C2769 C2770 1.523 . S
C2770 C2751 1.368 . S
C2770 C2764 1.368 . S
C2770 C2769 1.523 . S
C2771 C2755 1.429 . S
C2771 C2767 1.429 . S
C2771 C2772 1.523 . S
C2772 C2756 1.368 . S
C2772 C2768 1.368 . S
C2772 C2771 1.523 . S
H2773 C2748 0.950 . S
H2774 C2750 0.950 . S
H2775 C2751 0.949 . S
H2776 C2753 0.950 . S
H2777 C2755 0.950 . S
C2778 C2779 1.349 . S
C2778 C2780 1.327 . S
C2778 H2803 0.950 . S
C2779 C2778 1.349 . S
C2779 C2795 1.349 . S
C2780 C2778 1.327 . S
C2780 C2799 1.429 . S
C2780 H2804 0.950 . S
C2781 C2798 1.574 . S
C2781 C2800 1.368 . S
C2781 H2805 0.949 . S
H2782 C2786 0.949 . S
C2783 C2784 1.349 . S
C2783 C2785 1.327 . S
C2783 H2806 0.950 1_554 S
C2784 C2783 1.349 . S
C2784 C2796 1.349 . S
C2785 C2783 1.327 . S
C2785 C2801 1.429 . S
C2785 H2807 0.950 . S
C2786 H2782 0.949 . S
C2786 C2794 1.574 . S
C2786 C2802 1.368 . S
H2787 C2795 0.950 . S
H2788 C2793 0.950 . S
H2789 C2794 0.949 . S
H2790 C2796 0.950 . S
H2791 C2797 0.950 . S
H2792 C2798 0.949 . S
C2793 H2788 0.950 . S
C2793 C2795 1.327 . S
C2793 C2799 1.429 . S
C2794 C2786 1.574 . S
C2794 H2789 0.949 . S
C2794 C2800 1.368 . S
C2795 C2779 1.349 . S
C2795 H2787 0.950 . S
C2795 C2793 1.327 . S
C2796 C2784 1.349 . S
C2796 H2790 0.950 . S
C2796 C2797 1.327 . S
C2797 H2791 0.950 . S
C2797 C2796 1.327 . S
C2797 C2801 1.429 . S
C2798 C2781 1.574 . S
C2798 H2792 0.949 . S
C2798 C2802 1.368 . S
C2799 C2780 1.429 . S
C2799 C2793 1.429 . S
C2799 C2800 1.523 . S
C2800 C2781 1.368 . S
C2800 C2794 1.368 . S
C2800 C2799 1.523 . S
C2801 C2785 1.429 . S
C2801 C2797 1.429 . S
C2801 C2802 1.523 . S
C2802 C2786 1.368 . S
C2802 C2798 1.368 . S
C2802 C2801 1.523 . S
H2803 C2778 0.950 . S
H2804 C2780 0.950 . S
H2805 C2781 0.949 . S
H2806 C2783 0.950 1_556 S
H2807 C2785 0.950 . S
C2808 C2809 1.349 . S
C2808 C2810 1.327 . S
C2808 H2833 0.950 . S
C2809 C2808 1.349 . S
C2809 C2825 1.349 . S
C2810 C2808 1.327 . S
C2810 C2829 1.429 . S
C2810 H2834 0.950 . S
C2811 C2828 1.574 . S
C2811 C2830 1.368 . S
C2811 H2835 0.949 . S
H2812 C2816 0.949 . S
C2813 C2814 1.349 . S
C2813 C2815 1.327 . S
C2813 H2836 0.950 . S
C2814 C2813 1.349 . S
C2814 C2826 1.349 . S
C2815 C2813 1.327 . S
C2815 C2831 1.429 . S
C2815 H2837 0.950 . S
C2816 H2812 0.949 . S
C2816 C2824 1.574 . S
C2816 C2832 1.368 . S
H2817 C2825 0.950 . S
H2818 C2823 0.950 . S
H2819 C2824 0.949 . S
H2820 C2826 0.950 . S
H2821 C2827 0.950 . S
H2822 C2828 0.949 . S
C2823 H2818 0.950 . S
C2823 C2825 1.327 . S
C2823 C2829 1.429 . S
C2824 C2816 1.574 . S
C2824 H2819 0.949 . S
C2824 C2830 1.368 . S
C2825 C2809 1.349 . S
C2825 H2817 0.950 . S
C2825 C2823 1.327 . S
C2826 C2814 1.349 . S
C2826 H2820 0.950 . S
C2826 C2827 1.327 . S
C2827 H2821 0.950 . S
C2827 C2826 1.327 . S
C2827 C2831 1.429 . S
C2828 C2811 1.574 . S
C2828 H2822 0.949 . S
C2828 C2832 1.368 . S
C2829 C2810 1.429 . S
C2829 C2823 1.429 . S
C2829 C2830 1.523 . S
C2830 C2811 1.368 . S
C2830 C2824 1.368 . S
C2830 C2829 1.523 . S
C2831 C2815 1.429 . S
C2831 C2827 1.429 . S
C2831 C2832 1.523 . S
C2832 C2816 1.368 . S
C2832 C2828 1.368 . S
C2832 C2831 1.523 . S
H2833 C2808 0.950 . S
H2834 C2810 0.950 . S
H2835 C2811 0.949 . S
H2836 C2813 0.950 . S
H2837 C2815 0.950 . S
C2838 C2839 1.349 . S
C2838 C2840 1.327 . S
C2838 H2863 0.950 . S
C2839 C2838 1.349 . S
C2839 C2855 1.349 . S
C2840 C2838 1.327 . S
C2840 C2859 1.429 . S
C2840 H2864 0.950 . S
C2841 C2858 1.574 . S
C2841 C2860 1.368 . S
C2841 H2865 0.949 . S
H2842 C2846 0.949 . S
C2843 C2844 1.349 . S
C2843 C2845 1.327 . S
C2843 H2866 0.950 . S
C2844 C2843 1.349 . S
C2844 C2856 1.349 . S
C2845 C2843 1.327 . S
C2845 C2861 1.429 . S
C2845 H2867 0.950 . S
C2846 H2842 0.949 . S
C2846 C2854 1.574 . S
C2846 C2862 1.368 . S
H2847 C2855 0.950 . S
H2848 C2853 0.950 . S
H2849 C2854 0.949 . S
H2850 C2856 0.950 . S
H2851 C2857 0.950 . S
H2852 C2858 0.949 . S
C2853 H2848 0.950 . S
C2853 C2855 1.327 . S
C2853 C2859 1.429 . S
C2854 C2846 1.574 . S
C2854 H2849 0.949 . S
C2854 C2860 1.368 . S
C2855 C2839 1.349 . S
C2855 H2847 0.950 . S
C2855 C2853 1.327 . S
C2856 C2844 1.349 . S
C2856 H2850 0.950 . S
C2856 C2857 1.327 . S
C2857 H2851 0.950 . S
C2857 C2856 1.327 . S
C2857 C2861 1.429 . S
C2858 C2841 1.574 . S
C2858 H2852 0.949 . S
C2858 C2862 1.368 . S
C2859 C2840 1.429 . S
C2859 C2853 1.429 . S
C2859 C2860 1.523 . S
C2860 C2841 1.368 . S
C2860 C2854 1.368 . S
C2860 C2859 1.523 . S
C2861 C2845 1.429 . S
C2861 C2857 1.429 . S
C2861 C2862 1.523 . S
C2862 C2846 1.368 . S
C2862 C2858 1.368 . S
C2862 C2861 1.523 . S
H2863 C2838 0.950 . S
H2864 C2840 0.950 . S
H2865 C2841 0.949 . S
H2866 C2843 0.950 . S
H2867 C2845 0.950 . S
C2868 C2869 1.349 . S
C2868 C2870 1.327 . S
C2868 H2893 0.950 . S
C2869 C2868 1.349 . S
C2869 C2885 1.349 . S
C2870 C2868 1.327 . S
C2870 C2889 1.429 . S
C2870 H2894 0.950 . S
C2871 C2888 1.574 . S
C2871 C2890 1.368 . S
C2871 H2895 0.949 . S
H2872 C2876 0.949 . S
C2873 C2874 1.349 . S
C2873 C2875 1.327 . S
C2873 H2896 0.950 . S
C2874 C2873 1.349 . S
C2874 C2886 1.349 . S
C2875 C2873 1.327 . S
C2875 C2891 1.429 . S
C2875 H2897 0.950 . S
C2876 H2872 0.949 . S
C2876 C2884 1.574 . S
C2876 C2892 1.368 . S
H2877 C2885 0.950 . S
H2878 C2883 0.950 . S
H2879 C2884 0.949 . S
H2880 C2886 0.950 . S
H2881 C2887 0.950 . S
H2882 C2888 0.949 . S
C2883 H2878 0.950 . S
C2883 C2885 1.327 . S
C2883 C2889 1.429 . S
C2884 C2876 1.574 . S
C2884 H2879 0.949 . S
C2884 C2890 1.368 . S
C2885 C2869 1.349 . S
C2885 H2877 0.950 . S
C2885 C2883 1.327 . S
C2886 C2874 1.349 . S
C2886 H2880 0.950 . S
C2886 C2887 1.327 . S
C2887 H2881 0.950 . S
C2887 C2886 1.327 . S
C2887 C2891 1.429 . S
C2888 C2871 1.574 . S
C2888 H2882 0.949 . S
C2888 C2892 1.368 . S
C2889 C2870 1.429 . S
C2889 C2883 1.429 . S
C2889 C2890 1.523 . S
C2890 C2871 1.368 . S
C2890 C2884 1.368 . S
C2890 C2889 1.523 . S
C2891 C2875 1.429 . S
C2891 C2887 1.429 . S
C2891 C2892 1.523 . S
C2892 C2876 1.368 . S
C2892 C2888 1.368 . S
C2892 C2891 1.523 . S
H2893 C2868 0.950 . S
H2894 C2870 0.950 . S
H2895 C2871 0.949 . S
H2896 C2873 0.950 . S
H2897 C2875 0.950 . S
C2898 C2899 1.349 . S
C2898 C2900 1.327 . S
C2898 H2923 0.950 . S
C2899 C2898 1.349 . S
C2899 C2915 1.349 . S
C2900 C2898 1.327 . S
C2900 C2919 1.429 . S
C2900 H2924 0.950 . S
C2901 C2918 1.574 . S
C2901 C2920 1.368 . S
C2901 H2925 0.949 . S
H2902 C2906 0.949 . S
C2903 C2904 1.349 . S
C2903 C2905 1.327 . S
C2903 H2926 0.950 . S
C2904 C2903 1.349 . S
C2904 C2916 1.349 . S
C2905 C2903 1.327 . S
C2905 C2921 1.429 1_556 S
C2905 H2927 0.950 . S
C2906 H2902 0.949 . S
C2906 C2914 1.574 . S
C2906 C2922 1.368 . S
H2907 C2915 0.950 . S
H2908 C2913 0.950 . S
H2909 C2914 0.949 . S
H2910 C2916 0.950 . S
H2911 C2917 0.950 . S
H2912 C2918 0.949 . S
C2913 H2908 0.950 . S
C2913 C2915 1.327 . S
C2913 C2919 1.429 . S
C2914 C2906 1.574 . S
C2914 H2909 0.949 . S
C2914 C2920 1.368 . S
C2915 C2899 1.349 . S
C2915 H2907 0.950 . S
C2915 C2913 1.327 . S
C2916 C2904 1.349 . S
C2916 H2910 0.950 . S
C2916 C2917 1.327 1_556 S
C2917 H2911 0.950 . S
C2917 C2916 1.327 1_554 S
C2917 C2921 1.429 . S
C2918 C2901 1.574 . S
C2918 H2912 0.949 . S
C2918 C2922 1.368 . S
C2919 C2900 1.429 . S
C2919 C2913 1.429 . S
C2919 C2920 1.523 . S
C2920 C2901 1.368 . S
C2920 C2914 1.368 . S
C2920 C2919 1.523 . S
C2921 C2905 1.429 1_554 S
C2921 C2917 1.429 . S
C2921 C2922 1.523 . S
C2922 C2906 1.368 . S
C2922 C2918 1.368 . S
C2922 C2921 1.523 . S
H2923 C2898 0.950 . S
H2924 C2900 0.950 . S
H2925 C2901 0.949 . S
H2926 C2903 0.950 . S
H2927 C2905 0.950 . S
C2928 C2929 1.349 . S
C2928 C2930 1.327 . S
C2928 H2953 0.950 . S
C2929 C2928 1.349 . S
C2929 C2945 1.349 . S
C2930 C2928 1.327 . S
C2930 C2949 1.429 . S
C2930 H2954 0.950 . S
C2931 C2948 1.574 . S
C2931 C2950 1.368 1_565 S
C2931 H2955 0.949 . S
H2932 C2936 0.949 . S
C2933 C2934 1.349 . S
C2933 C2935 1.327 . S
C2933 H2956 0.950 . S
C2934 C2933 1.349 . S
C2934 C2946 1.349 . S
C2935 C2933 1.327 . S
C2935 C2951 1.429 . S
C2935 H2957 0.950 . S
C2936 H2932 0.949 . S
C2936 C2944 1.574 . S
C2936 C2952 1.368 1_545 S
H2937 C2945 0.950 . S
H2938 C2943 0.950 . S
H2939 C2944 0.949 . S
H2940 C2946 0.950 . S
H2941 C2947 0.950 . S
H2942 C2948 0.949 . S
C2943 H2938 0.950 . S
C2943 C2945 1.327 . S
C2943 C2949 1.429 . S
C2944 C2936 1.574 . S
C2944 H2939 0.949 . S
C2944 C2950 1.368 . S
C2945 C2929 1.349 . S
C2945 H2937 0.950 . S
C2945 C2943 1.327 . S
C2946 C2934 1.349 . S
C2946 H2940 0.950 . S
C2946 C2947 1.327 . S
C2947 H2941 0.950 . S
C2947 C2946 1.327 . S
C2947 C2951 1.429 . S
C2948 C2931 1.574 . S
C2948 H2942 0.949 . S
C2948 C2952 1.368 . S
C2949 C2930 1.429 . S
C2949 C2943 1.429 . S
C2949 C2950 1.523 . S
C2950 C2931 1.368 1_545 S
C2950 C2944 1.368 . S
C2950 C2949 1.523 . S
C2951 C2935 1.429 . S
C2951 C2947 1.429 . S
C2951 C2952 1.523 . S
C2952 C2936 1.368 1_565 S
C2952 C2948 1.368 . S
C2952 C2951 1.523 . S
H2953 C2928 0.950 . S
H2954 C2930 0.950 . S
H2955 C2931 0.949 . S
H2956 C2933 0.950 . S
H2957 C2935 0.950 . S
C2958 C2959 1.349 . S
C2958 C2960 1.327 1_556 S
C2958 H2983 0.950 . S
C2959 C2958 1.349 . S
C2959 C2975 1.349 . S
C2960 C2958 1.327 1_554 S
C2960 C2979 1.429 . S
C2960 H2984 0.950 . S
C2961 C2978 1.574 . S
C2961 C2980 1.368 . S
C2961 H2985 0.949 . S
H2962 C2966 0.949 . S
C2963 C2964 1.349 . S
C2963 C2965 1.327 . S
C2963 H2986 0.950 . S
C2964 C2963 1.349 . S
C2964 C2976 1.349 . S
C2965 C2963 1.327 . S
C2965 C2981 1.429 . S
C2965 H2987 0.950 . S
C2966 H2962 0.949 . S
C2966 C2974 1.574 . S
C2966 C2982 1.368 . S
H2967 C2975 0.950 . S
H2968 C2973 0.950 . S
H2969 C2974 0.949 . S
H2970 C2976 0.950 . S
H2971 C2977 0.950 . S
H2972 C2978 0.949 . S
C2973 H2968 0.950 . S
C2973 C2975 1.327 . S
C2973 C2979 1.429 1_556 S
C2974 C2966 1.574 . S
C2974 H2969 0.949 . S
C2974 C2980 1.368 . S
C2975 C2959 1.349 . S
C2975 H2967 0.950 . S
C2975 C2973 1.327 . S
C2976 C2964 1.349 . S
C2976 H2970 0.950 . S
C2976 C2977 1.327 . S
C2977 H2971 0.950 . S
C2977 C2976 1.327 . S
C2977 C2981 1.429 . S
C2978 C2961 1.574 . S
C2978 H2972 0.949 . S
C2978 C2982 1.368 . S
C2979 C2960 1.429 . S
C2979 C2973 1.429 1_554 S
C2979 C2980 1.523 . S
C2980 C2961 1.368 . S
C2980 C2974 1.368 . S
C2980 C2979 1.523 . S
C2981 C2965 1.429 . S
C2981 C2977 1.429 . S
C2981 C2982 1.523 . S
C2982 C2966 1.368 . S
C2982 C2978 1.368 . S
C2982 C2981 1.523 . S
H2983 C2958 0.950 . S
H2984 C2960 0.950 . S
H2985 C2961 0.949 . S
H2986 C2963 0.950 . S
H2987 C2965 0.950 . S
C2988 C2989 1.349 . S
C2988 C2990 1.327 . S
C2988 H3013 0.950 . S
C2989 C2988 1.349 . S
C2989 C3005 1.349 . S
C2990 C2988 1.327 . S
C2990 C3009 1.429 . S
C2990 H3014 0.950 . S
C2991 C3008 1.574 . S
C2991 C3010 1.368 1_565 S
C2991 H3015 0.949 . S
H2992 C2996 0.949 . S
C2993 C2994 1.349 . S
C2993 C2995 1.327 . S
C2993 H3016 0.950 . S
C2994 C2993 1.349 . S
C2994 C3006 1.349 . S
C2995 C2993 1.327 . S
C2995 C3011 1.429 . S
C2995 H3017 0.950 . S
C2996 H2992 0.949 . S
C2996 C3004 1.574 . S
C2996 C3012 1.368 1_545 S
H2997 C3005 0.950 . S
H2998 C3003 0.950 . S
H2999 C3004 0.949 . S
H3000 C3006 0.950 . S
H3001 C3007 0.950 . S
H3002 C3008 0.949 . S
C3003 H2998 0.950 . S
C3003 C3005 1.327 . S
C3003 C3009 1.429 . S
C3004 C2996 1.574 . S
C3004 H2999 0.949 . S
C3004 C3010 1.368 . S
C3005 C2989 1.349 . S
C3005 H2997 0.950 . S
C3005 C3003 1.327 . S
C3006 C2994 1.349 . S
C3006 H3000 0.950 . S
C3006 C3007 1.327 . S
C3007 H3001 0.950 . S
C3007 C3006 1.327 . S
C3007 C3011 1.429 . S
C3008 C2991 1.574 . S
C3008 H3002 0.949 . S
C3008 C3012 1.368 . S
C3009 C2990 1.429 . S
C3009 C3003 1.429 . S
C3009 C3010 1.523 . S
C3010 C2991 1.368 1_545 S
C3010 C3004 1.368 . S
C3010 C3009 1.523 . S
C3011 C2995 1.429 . S
C3011 C3007 1.429 . S
C3011 C3012 1.523 . S
C3012 C2996 1.368 1_565 S
C3012 C3008 1.368 . S
C3012 C3011 1.523 . S
H3013 C2988 0.950 . S
H3014 C2990 0.950 . S
H3015 C2991 0.949 . S
H3016 C2993 0.950 . S
H3017 C2995 0.950 . S
C3018 C3019 1.349 . S
C3018 C3020 1.327 . S
C3018 H3043 0.950 . S
C3019 C3018 1.349 . S
C3019 C3035 1.349 . S
C3020 C3018 1.327 . S
C3020 C3039 1.429 . S
C3020 H3044 0.950 . S
C3021 C3038 1.574 . S
C3021 C3040 1.368 . S
C3021 H3045 0.949 . S
H3022 C3026 0.949 . S
C3023 C3024 1.349 . S
C3023 C3025 1.327 . S
C3023 H3046 0.950 . S
C3024 C3023 1.349 . S
C3024 C3036 1.349 . S
C3025 C3023 1.327 . S
C3025 C3041 1.429 . S
C3025 H3047 0.950 . S
C3026 H3022 0.949 . S
C3026 C3034 1.574 . S
C3026 C3042 1.368 . S
H3027 C3035 0.950 . S
H3028 C3033 0.950 . S
H3029 C3034 0.949 . S
H3030 C3036 0.950 . S
H3031 C3037 0.950 . S
H3032 C3038 0.949 . S
C3033 H3028 0.950 . S
C3033 C3035 1.327 . S
C3033 C3039 1.429 . S
C3034 C3026 1.574 . S
C3034 H3029 0.949 . S
C3034 C3040 1.368 . S
C3035 C3019 1.349 . S
C3035 H3027 0.950 . S
C3035 C3033 1.327 . S
C3036 C3024 1.349 . S
C3036 H3030 0.950 . S
C3036 C3037 1.327 . S
C3037 H3031 0.950 . S
C3037 C3036 1.327 . S
C3037 C3041 1.429 . S
C3038 C3021 1.574 . S
C3038 H3032 0.949 . S
C3038 C3042 1.368 . S
C3039 C3020 1.429 . S
C3039 C3033 1.429 . S
C3039 C3040 1.523 . S
C3040 C3021 1.368 . S
C3040 C3034 1.368 . S
C3040 C3039 1.523 . S
C3041 C3025 1.429 . S
C3041 C3037 1.429 . S
C3041 C3042 1.523 . S
C3042 C3026 1.368 . S
C3042 C3038 1.368 . S
C3042 C3041 1.523 . S
H3043 C3018 0.950 . S
H3044 C3020 0.950 . S
H3045 C3021 0.949 . S
H3046 C3023 0.950 . S
H3047 C3025 0.950 . S
C3048 C3049 1.349 . S
C3048 C3050 1.327 . S
C3048 H3073 0.950 . S
C3049 C3048 1.349 . S
C3049 C3065 1.349 . S
C3050 C3048 1.327 . S
C3050 C3069 1.429 . S
C3050 H3074 0.950 . S
C3051 C3068 1.574 . S
C3051 C3070 1.368 1_565 S
C3051 H3075 0.949 . S
H3052 C3056 0.949 . S
C3053 C3054 1.349 . S
C3053 C3055 1.327 . S
C3053 H3076 0.950 . S
C3054 C3053 1.349 . S
C3054 C3066 1.349 . S
C3055 C3053 1.327 . S
C3055 C3071 1.429 . S
C3055 H3077 0.950 . S
C3056 H3052 0.949 . S
C3056 C3064 1.574 . S
C3056 C3072 1.368 1_545 S
H3057 C3065 0.950 . S
H3058 C3063 0.957 1_565 S
H3059 C3064 0.949 . S
H3060 C3066 0.950 . S
H3061 C3067 0.949 1_545 S
H3062 C3068 0.949 . S
C3063 H3058 0.957 1_545 S
C3063 C3065 1.327 . S
C3063 C3069 1.429 . S
C3064 C3056 1.574 . S
C3064 H3059 0.949 . S
C3064 C3070 1.368 . S
C3065 C3049 1.349 . S
C3065 H3057 0.950 . S
C3065 C3063 1.327 . S
C3066 C3054 1.349 . S
C3066 H3060 0.950 . S
C3066 C3067 1.327 . S
C3067 H3061 0.949 1_565 S
C3067 C3066 1.327 . S
C3067 C3071 1.429 . S
C3068 C3051 1.574 . S
C3068 H3062 0.949 . S
C3068 C3072 1.368 . S
C3069 C3050 1.429 . S
C3069 C3063 1.429 . S
C3069 C3070 1.523 . S
C3070 C3051 1.368 1_545 S
C3070 C3064 1.368 . S
C3070 C3069 1.523 . S
C3071 C3055 1.429 . S
C3071 C3067 1.429 . S
C3071 C3072 1.523 . S
C3072 C3056 1.368 1_565 S
C3072 C3068 1.368 . S
C3072 C3071 1.523 . S
H3073 C3048 0.950 . S
H3074 C3050 0.950 . S
H3075 C3051 0.949 . S
H3076 C3053 0.950 . S
H3077 C3055 0.950 . S
C3078 C3079 1.349 . S
C3078 C3080 1.327 . S
C3078 H3103 0.950 1_554 S
C3079 C3078 1.349 . S
C3079 C3095 1.349 . S
C3080 C3078 1.327 . S
C3080 C3099 1.429 . S
C3080 H3104 0.950 . S
C3081 C3098 1.574 . S
C3081 C3100 1.368 . S
C3081 H3105 0.949 . S
H3082 C3086 0.949 . S
C3083 C3084 1.349 . S
C3083 C3085 1.327 . S
C3083 H3106 0.950 . S
C3084 C3083 1.349 . S
C3084 C3096 1.349 . S
C3085 C3083 1.327 . S
C3085 C3101 1.429 . S
C3085 H3107 0.950 . S
C3086 H3082 0.949 . S
C3086 C3094 1.574 . S
C3086 C3102 1.368 . S
H3087 C3095 0.950 . S
H3088 C3093 0.950 . S
H3089 C3094 0.949 . S
H3090 C3096 0.950 . S
H3091 C3097 0.950 . S
H3092 C3098 0.949 . S
C3093 H3088 0.950 . S
C3093 C3095 1.327 . S
C3093 C3099 1.429 . S
C3094 C3086 1.574 . S
C3094 H3089 0.949 . S
C3094 C3100 1.368 . S
C3095 C3079 1.349 . S
C3095 H3087 0.950 . S
C3095 C3093 1.327 . S
C3096 C3084 1.349 . S
C3096 H3090 0.950 . S
C3096 C3097 1.327 . S
C3097 H3091 0.950 . S
C3097 C3096 1.327 . S
C3097 C3101 1.429 . S
C3098 C3081 1.574 . S
C3098 H3092 0.949 . S
C3098 C3102 1.368 . S
C3099 C3080 1.429 . S
C3099 C3093 1.429 . S
C3099 C3100 1.523 . S
C3100 C3081 1.368 . S
C3100 C3094 1.368 . S
C3100 C3099 1.523 . S
C3101 C3085 1.429 . S
C3101 C3097 1.429 . S
C3101 C3102 1.523 . S
C3102 C3086 1.368 . S
C3102 C3098 1.368 . S
C3102 C3101 1.523 . S
H3103 C3078 0.950 1_556 S
H3104 C3080 0.950 . S
H3105 C3081 0.949 . S
H3106 C3083 0.950 . S
H3107 C3085 0.950 . S
C3108 C3109 1.349 . S
C3108 C3110 1.327 . S
C3108 H3133 0.950 . S
C3109 C3108 1.349 . S
C3109 C3125 1.349 . S
C3110 C3108 1.327 . S
C3110 C3129 1.429 . S
C3110 H3134 0.950 . S
C3111 C3128 1.571 1_565 S
C3111 C3130 1.368 . S
C3111 H3135 0.949 . S
H3112 C3116 0.949 . S
C3113 C3114 1.349 . S
C3113 C3115 1.327 . S
C3113 H3136 0.950 . S
C3114 C3113 1.349 . S
C3114 C3126 1.349 . S
C3115 C3113 1.327 . S
C3115 C3131 1.429 . S
C3115 H3137 0.950 . S
C3116 H3112 0.949 . S
C3116 C3124 1.576 1_545 S
C3116 C3132 1.368 . S
H3117 C3125 0.950 . S
H3118 C3123 0.950 . S
H3119 C3124 0.950 . S
H3120 C3126 0.950 . S
H3121 C3127 0.950 . S
H3122 C3128 0.950 . S
C3123 H3118 0.950 . S
C3123 C3125 1.327 . S
C3123 C3129 1.429 . S
C3124 C3116 1.576 1_565 S
C3124 H3119 0.950 . S
C3124 C3130 1.365 . S
C3125 C3109 1.349 . S
C3125 H3117 0.950 . S
C3125 C3123 1.327 . S
C3126 C3114 1.349 . S
C3126 H3120 0.950 . S
C3126 C3127 1.327 . S
C3127 H3121 0.950 . S
C3127 C3126 1.327 . S
C3127 C3131 1.429 . S
C3128 C3111 1.571 1_545 S
C3128 H3122 0.950 . S
C3128 C3132 1.371 . S
C3129 C3110 1.429 . S
C3129 C3123 1.429 . S
C3129 C3130 1.523 . S
C3130 C3111 1.368 . S
C3130 C3124 1.365 . S
C3130 C3129 1.523 . S
C3131 C3115 1.429 . S
C3131 C3127 1.429 . S
C3131 C3132 1.523 . S
C3132 C3116 1.368 . S
C3132 C3128 1.371 . S
C3132 C3131 1.523 . S
H3133 C3108 0.950 . S
H3134 C3110 0.950 . S
H3135 C3111 0.949 . S
H3136 C3113 0.950 . S
H3137 C3115 0.950 . S
C3138 C3139 1.349 . S
C3138 C3140 1.327 . S
C3138 H3163 0.950 . S
C3139 C3138 1.349 . S
C3139 C3155 1.349 . S
C3140 C3138 1.327 . S
C3140 C3159 1.429 . S
C3140 H3164 0.950 . S
C3141 C3158 1.574 . S
C3141 C3160 1.368 . S
C3141 H3165 0.949 . S
H3142 C3146 0.949 . S
C3143 C3144 1.349 . S
C3143 C3145 1.327 . S
C3143 H3166 0.950 . S
C3144 C3143 1.349 . S
C3144 C3156 1.349 . S
C3145 C3143 1.327 . S
C3145 C3161 1.429 . S
C3145 H3167 0.950 . S
C3146 H3142 0.949 . S
C3146 C3154 1.574 . S
C3146 C3162 1.368 . S
H3147 C3155 0.950 . S
H3148 C3153 0.950 . S
H3149 C3154 0.949 . S
H3150 C3156 0.950 . S
H3151 C3157 0.950 . S
H3152 C3158 0.949 . S
C3153 H3148 0.950 . S
C3153 C3155 1.327 . S
C3153 C3159 1.429 . S
C3154 C3146 1.574 . S
C3154 H3149 0.949 . S
C3154 C3160 1.368 . S
C3155 C3139 1.349 . S
C3155 H3147 0.950 . S
C3155 C3153 1.327 . S
C3156 C3144 1.349 . S
C3156 H3150 0.950 . S
C3156 C3157 1.327 . S
C3157 H3151 0.950 . S
C3157 C3156 1.327 . S
C3157 C3161 1.429 . S
C3158 C3141 1.574 . S
C3158 H3152 0.949 . S
C3158 C3162 1.368 . S
C3159 C3140 1.429 . S
C3159 C3153 1.429 . S
C3159 C3160 1.523 . S
C3160 C3141 1.368 . S
C3160 C3154 1.368 . S
C3160 C3159 1.523 . S
C3161 C3145 1.429 . S
C3161 C3157 1.429 . S
C3161 C3162 1.523 . S
C3162 C3146 1.368 . S
C3162 C3158 1.368 . S
C3162 C3161 1.523 . S
H3163 C3138 0.950 . S
H3164 C3140 0.950 . S
H3165 C3141 0.949 . S
H3166 C3143 0.950 . S
H3167 C3145 0.950 . S
C3168 C3169 1.349 . S
C3168 C3170 1.327 . S
C3168 H3193 0.950 . S
C3169 C3168 1.349 . S
C3169 C3185 1.349 . S
C3170 C3168 1.327 . S
C3170 C3189 1.429 . S
C3170 H3194 0.950 . S
C3171 C3188 1.574 . S
C3171 C3190 1.368 . S
C3171 H3195 0.949 . S
H3172 C3176 0.949 . S
C3173 C3174 1.349 . S
C3173 C3175 1.327 . S
C3173 H3196 0.950 . S
C3174 C3173 1.349 . S
C3174 C3186 1.349 . S
C3175 C3173 1.327 . S
C3175 C3191 1.429 . S
C3175 H3197 0.950 . S
C3176 H3172 0.949 . S
C3176 C3184 1.574 . S
C3176 C3192 1.368 . S
H3177 C3185 0.950 . S
H3178 C3183 0.950 . S
H3179 C3184 0.949 . S
H3180 C3186 0.950 . S
H3181 C3187 0.950 . S
H3182 C3188 0.949 . S
C3183 H3178 0.950 . S
C3183 C3185 1.327 . S
C3183 C3189 1.429 . S
C3184 C3176 1.574 . S
C3184 H3179 0.949 . S
C3184 C3190 1.368 . S
C3185 C3169 1.349 . S
C3185 H3177 0.950 . S
C3185 C3183 1.327 . S
C3186 C3174 1.349 . S
C3186 H3180 0.950 . S
C3186 C3187 1.327 . S
C3187 H3181 0.950 . S
C3187 C3186 1.327 . S
C3187 C3191 1.429 . S
C3188 C3171 1.574 . S
C3188 H3182 0.949 . S
C3188 C3192 1.368 . S
C3189 C3170 1.429 . S
C3189 C3183 1.429 . S
C3189 C3190 1.523 . S
C3190 C3171 1.368 . S
C3190 C3184 1.368 . S
C3190 C3189 1.523 . S
C3191 C3175 1.429 . S
C3191 C3187 1.429 . S
C3191 C3192 1.523 . S
C3192 C3176 1.368 . S
C3192 C3188 1.368 . S
C3192 C3191 1.523 . S
H3193 C3168 0.950 . S
H3194 C3170 0.950 . S
H3195 C3171 0.949 . S
H3196 C3173 0.950 . S
H3197 C3175 0.950 . S
C3198 C3199 1.349 . S
C3198 C3200 1.327 . S
C3198 H3223 0.950 . S
C3199 C3198 1.349 . S
C3199 C3215 1.349 . S
C3200 C3198 1.327 . S
C3200 C3219 1.429 . S
C3200 H3224 0.950 . S
C3201 C3218 1.574 . S
C3201 C3220 1.368 . S
C3201 H3225 0.949 . S
H3202 C3206 0.949 . S
C3203 C3204 1.349 . S
C3203 C3205 1.327 . S
C3203 H3226 0.950 . S
C3204 C3203 1.349 . S
C3204 C3216 1.349 . S
C3205 C3203 1.327 . S
C3205 C3221 1.429 . S
C3205 H3227 0.950 . S
C3206 H3202 0.949 . S
C3206 C3214 1.574 . S
C3206 C3222 1.368 . S
H3207 C3215 0.950 . S
H3208 C3213 0.950 . S
H3209 C3214 0.949 . S
H3210 C3216 0.950 . S
H3211 C3217 0.950 . S
H3212 C3218 0.949 . S
C3213 H3208 0.950 . S
C3213 C3215 1.327 . S
C3213 C3219 1.429 . S
C3214 C3206 1.574 . S
C3214 H3209 0.949 . S
C3214 C3220 1.368 . S
C3215 C3199 1.349 . S
C3215 H3207 0.950 . S
C3215 C3213 1.327 . S
C3216 C3204 1.349 . S
C3216 H3210 0.950 . S
C3216 C3217 1.327 . S
C3217 H3211 0.950 . S
C3217 C3216 1.327 . S
C3217 C3221 1.429 . S
C3218 C3201 1.574 . S
C3218 H3212 0.949 . S
C3218 C3222 1.368 . S
C3219 C3200 1.429 . S
C3219 C3213 1.429 . S
C3219 C3220 1.523 . S
C3220 C3201 1.368 . S
C3220 C3214 1.368 . S
C3220 C3219 1.523 . S
C3221 C3205 1.429 . S
C3221 C3217 1.429 . S
C3221 C3222 1.523 . S
C3222 C3206 1.368 . S
C3222 C3218 1.368 . S
C3222 C3221 1.523 . S
H3223 C3198 0.950 . S
H3224 C3200 0.950 . S
H3225 C3201 0.949 . S
H3226 C3203 0.950 . S
H3227 C3205 0.950 . S
C3228 C3229 1.349 . S
C3228 C3230 1.327 . S
C3228 H3253 0.950 . S
C3229 C3228 1.349 . S
C3229 C3245 1.349 . S
C3230 C3228 1.327 . S
C3230 C3249 1.429 . S
C3230 H3254 0.950 . S
C3231 C3248 1.574 . S
C3231 C3250 1.368 . S
C3231 H3255 0.949 . S
H3232 C3236 0.949 . S
C3233 C3234 1.349 . S
C3233 C3235 1.327 . S
C3233 H3256 0.950 . S
C3234 C3233 1.349 . S
C3234 C3246 1.349 . S
C3235 C3233 1.327 . S
C3235 C3251 1.429 . S
C3235 H3257 0.950 . S
C3236 H3232 0.949 . S
C3236 C3244 1.574 . S
C3236 C3252 1.368 . S
H3237 C3245 0.950 . S
H3238 C3243 0.950 . S
H3239 C3244 0.949 . S
H3240 C3246 0.950 . S
H3241 C3247 0.950 . S
H3242 C3248 0.949 . S
C3243 H3238 0.950 . S
C3243 C3245 1.327 . S
C3243 C3249 1.429 . S
C3244 C3236 1.574 . S
C3244 H3239 0.949 . S
C3244 C3250 1.368 . S
C3245 C3229 1.349 . S
C3245 H3237 0.950 . S
C3245 C3243 1.327 . S
C3246 C3234 1.349 . S
C3246 H3240 0.950 . S
C3246 C3247 1.327 . S
C3247 H3241 0.950 . S
C3247 C3246 1.327 . S
C3247 C3251 1.429 . S
C3248 C3231 1.574 . S
C3248 H3242 0.949 . S
C3248 C3252 1.368 . S
C3249 C3230 1.429 . S
C3249 C3243 1.429 . S
C3249 C3250 1.523 . S
C3250 C3231 1.368 . S
C3250 C3244 1.368 . S
C3250 C3249 1.523 . S
C3251 C3235 1.429 . S
C3251 C3247 1.429 . S
C3251 C3252 1.523 . S
C3252 C3236 1.368 . S
C3252 C3248 1.368 . S
C3252 C3251 1.523 . S
H3253 C3228 0.950 . S
H3254 C3230 0.950 . S
H3255 C3231 0.949 . S
H3256 C3233 0.950 . S
H3257 C3235 0.950 . S
C3258 C3259 1.349 . S
C3258 C3260 1.327 . S
C3258 H3283 0.950 . S
C3259 C3258 1.349 . S
C3259 C3275 1.349 . S
C3260 C3258 1.327 . S
C3260 C3279 1.429 . S
C3260 H3284 0.950 . S
C3261 C3278 1.574 . S
C3261 C3280 1.368 . S
C3261 H3285 0.949 . S
H3262 C3266 0.950 . S
C3263 C3264 1.349 . S
C3263 C3265 1.327 . S
C3263 H3286 0.950 . S
C3264 C3263 1.349 . S
C3264 C3276 1.349 . S
C3265 C3263 1.327 . S
C3265 C3281 1.429 . S
C3265 H3287 0.950 . S
C3266 H3262 0.950 . S
C3266 C3274 1.574 . S
C3266 C3282 1.368 . S
H3267 C3275 0.950 . S
H3268 C3273 0.950 . S
H3269 C3274 0.949 . S
H3270 C3276 0.950 . S
H3271 C3277 0.950 . S
H3272 C3278 0.949 . S
C3273 H3268 0.950 . S
C3273 C3275 1.327 . S
C3273 C3279 1.429 . S
C3274 C3266 1.574 . S
C3274 H3269 0.949 . S
C3274 C3280 1.368 . S
C3275 C3259 1.349 . S
C3275 H3267 0.950 . S
C3275 C3273 1.327 . S
C3276 C3264 1.349 . S
C3276 H3270 0.950 . S
C3276 C3277 1.327 . S
C3277 H3271 0.950 . S
C3277 C3276 1.327 . S
C3277 C3281 1.429 . S
C3278 C3261 1.574 . S
C3278 H3272 0.949 . S
C3278 C3282 1.368 . S
C3279 C3260 1.429 . S
C3279 C3273 1.429 . S
C3279 C3280 1.523 . S
C3280 C3261 1.368 . S
C3280 C3274 1.368 . S
C3280 C3279 1.523 . S
C3281 C3265 1.429 . S
C3281 C3277 1.429 . S
C3281 C3282 1.523 1_554 S
C3282 C3266 1.368 . S
C3282 C3278 1.368 . S
C3282 C3281 1.523 1_556 S
H3283 C3258 0.950 . S
H3284 C3260 0.950 . S
H3285 C3261 0.949 . S
H3286 C3263 0.950 . S
H3287 C3265 0.950 . S
C3288 C3289 1.349 . S
C3288 C3290 1.327 . S
C3288 H3313 0.950 . S
C3289 C3288 1.349 . S
C3289 C3305 1.349 . S
C3290 C3288 1.327 . S
C3290 C3309 1.429 . S
C3290 H3314 0.950 . S
C3291 C3308 1.574 . S
C3291 C3310 1.368 . S
C3291 H3315 0.949 . S
H3292 C3296 0.949 . S
C3293 C3294 1.349 . S
C3293 C3295 1.327 . S
C3293 H3316 0.950 . S
C3294 C3293 1.349 . S
C3294 C3306 1.349 . S
C3295 C3293 1.327 . S
C3295 C3311 1.429 . S
C3295 H3317 0.950 . S
C3296 H3292 0.949 . S
C3296 C3304 1.574 . S
C3296 C3312 1.368 . S
H3297 C3305 0.950 . S
H3298 C3303 0.950 . S
H3299 C3304 0.949 . S
H3300 C3306 0.950 . S
H3301 C3307 0.950 . S
H3302 C3308 0.949 . S
C3303 H3298 0.950 . S
C3303 C3305 1.327 . S
C3303 C3309 1.429 . S
C3304 C3296 1.574 . S
C3304 H3299 0.949 . S
C3304 C3310 1.368 . S
C3305 C3289 1.349 . S
C3305 H3297 0.950 . S
C3305 C3303 1.327 . S
C3306 C3294 1.349 . S
C3306 H3300 0.950 . S
C3306 C3307 1.327 . S
C3307 H3301 0.950 . S
C3307 C3306 1.327 . S
C3307 C3311 1.429 . S
C3308 C3291 1.574 . S
C3308 H3302 0.949 . S
C3308 C3312 1.368 . S
C3309 C3290 1.429 . S
C3309 C3303 1.429 . S
C3309 C3310 1.523 . S
C3310 C3291 1.368 . S
C3310 C3304 1.368 . S
C3310 C3309 1.523 . S
C3311 C3295 1.429 . S
C3311 C3307 1.429 . S
C3311 C3312 1.523 . S
C3312 C3296 1.368 . S
C3312 C3308 1.368 . S
C3312 C3311 1.523 . S
H3313 C3288 0.950 . S
H3314 C3290 0.950 . S
H3315 C3291 0.949 . S
H3316 C3293 0.950 . S
H3317 C3295 0.950 . S
C3318 C3319 1.349 . S
C3318 C3320 1.327 . S
C3318 H3343 0.950 . S
C3319 C3318 1.349 . S
C3319 C3335 1.349 . S
C3320 C3318 1.327 . S
C3320 C3339 1.429 . S
C3320 H3344 0.950 . S
C3321 C3338 1.574 . S
C3321 C3340 1.368 . S
C3321 H3345 0.949 . S
H3322 C3326 0.949 . S
C3323 C3324 1.349 . S
C3323 C3325 1.327 . S
C3323 H3346 0.950 . S
C3324 C3323 1.349 . S
C3324 C3336 1.349 . S
C3325 C3323 1.327 . S
C3325 C3341 1.429 . S
C3325 H3347 0.950 . S
C3326 H3322 0.949 . S
C3326 C3334 1.574 . S
C3326 C3342 1.368 . S
H3327 C3335 0.950 . S
H3328 C3333 0.950 . S
H3329 C3334 0.949 . S
H3330 C3336 0.950 . S
H3331 C3337 0.950 . S
H3332 C3338 0.949 . S
C3333 H3328 0.950 . S
C3333 C3335 1.327 . S
C3333 C3339 1.429 . S
C3334 C3326 1.574 . S
C3334 H3329 0.949 . S
C3334 C3340 1.368 . S
C3335 C3319 1.349 . S
C3335 H3327 0.950 . S
C3335 C3333 1.327 . S
C3336 C3324 1.349 . S
C3336 H3330 0.950 . S
C3336 C3337 1.327 . S
C3337 H3331 0.950 . S
C3337 C3336 1.327 . S
C3337 C3341 1.429 . S
C3338 C3321 1.574 . S
C3338 H3332 0.949 . S
C3338 C3342 1.368 . S
C3339 C3320 1.429 . S
C3339 C3333 1.429 . S
C3339 C3340 1.523 . S
C3340 C3321 1.368 . S
C3340 C3334 1.368 . S
C3340 C3339 1.523 . S
C3341 C3325 1.429 . S
C3341 C3337 1.429 . S
C3341 C3342 1.523 . S
C3342 C3326 1.368 . S
C3342 C3338 1.368 . S
C3342 C3341 1.523 . S
H3343 C3318 0.950 . S
H3344 C3320 0.950 . S
H3345 C3321 0.949 . S
H3346 C3323 0.950 . S
H3347 C3325 0.950 . S
C3348 C3349 1.349 . S
C3348 C3350 1.327 . S
C3348 H3373 0.950 . S
C3349 C3348 1.349 . S
C3349 C3365 1.349 1_556 S
C3350 C3348 1.327 . S
C3350 C3369 1.429 . S
C3350 H3374 0.950 . S
C3351 C3368 1.574 . S
C3351 C3370 1.368 . S
C3351 H3375 0.949 . S
H3352 C3356 0.949 . S
C3353 C3354 1.349 . S
C3353 C3355 1.327 . S
C3353 H3376 0.950 . S
C3354 C3353 1.349 . S
C3354 C3366 1.349 . S
C3355 C3353 1.327 . S
C3355 C3371 1.429 . S
C3355 H3377 0.950 . S
C3356 H3352 0.949 . S
C3356 C3364 1.574 . S
C3356 C3372 1.368 . S
H3357 C3365 0.950 . S
H3358 C3363 0.944 1_554 S
H3359 C3364 0.949 . S
H3360 C3366 0.950 . S
H3361 C3367 0.950 . S
H3362 C3368 0.949 . S
C3363 H3358 0.944 1_556 S
C3363 C3365 1.327 1_556 S
C3363 C3369 1.429 . S
C3364 C3356 1.574 . S
C3364 H3359 0.949 . S
C3364 C3370 1.368 . S
C3365 C3349 1.349 1_554 S
C3365 H3357 0.950 . S
C3365 C3363 1.327 1_554 S
C3366 C3354 1.349 . S
C3366 H3360 0.950 . S
C3366 C3367 1.327 . S
C3367 H3361 0.950 . S
C3367 C3366 1.327 . S
C3367 C3371 1.429 . S
C3368 C3351 1.574 . S
C3368 H3362 0.949 . S
C3368 C3372 1.368 . S
C3369 C3350 1.429 . S
C3369 C3363 1.429 . S
C3369 C3370 1.523 . S
C3370 C3351 1.368 . S
C3370 C3364 1.368 . S
C3370 C3369 1.523 . S
C3371 C3355 1.429 . S
C3371 C3367 1.429 . S
C3371 C3372 1.523 . S
C3372 C3356 1.368 . S
C3372 C3368 1.368 . S
C3372 C3371 1.523 . S
H3373 C3348 0.950 . S
H3374 C3350 0.950 . S
H3375 C3351 0.949 . S
H3376 C3353 0.950 . S
H3377 C3355 0.950 . S
C3378 C3379 1.349 . S
C3378 C3380 1.327 . S
C3378 H3403 0.950 . S
C3379 C3378 1.349 . S
C3379 C3395 1.349 . S
C3380 C3378 1.327 . S
C3380 C3399 1.429 . S
C3380 H3404 0.950 . S
C3381 C3398 1.574 . S
C3381 C3400 1.368 . S
C3381 H3405 0.949 . S
H3382 C3386 0.949 . S
C3383 C3384 1.349 . S
C3383 C3385 1.327 . S
C3383 H3406 0.950 . S
C3384 C3383 1.349 . S
C3384 C3396 1.349 . S
C3385 C3383 1.327 . S
C3385 C3401 1.429 . S
C3385 H3407 0.950 . S
C3386 H3382 0.949 . S
C3386 C3394 1.574 . S
C3386 C3402 1.368 . S
H3387 C3395 0.950 . S
H3388 C3393 0.950 . S
H3389 C3394 0.949 . S
H3390 C3396 0.950 . S
H3391 C3397 0.950 . S
H3392 C3398 0.949 . S
C3393 H3388 0.950 . S
C3393 C3395 1.327 . S
C3393 C3399 1.429 . S
C3394 C3386 1.574 . S
C3394 H3389 0.949 . S
C3394 C3400 1.368 . S
C3395 C3379 1.349 . S
C3395 H3387 0.950 . S
C3395 C3393 1.327 . S
C3396 C3384 1.349 . S
C3396 H3390 0.950 . S
C3396 C3397 1.327 . S
C3397 H3391 0.950 . S
C3397 C3396 1.327 . S
C3397 C3401 1.429 . S
C3398 C3381 1.574 . S
C3398 H3392 0.949 . S
C3398 C3402 1.368 . S
C3399 C3380 1.429 . S
C3399 C3393 1.429 . S
C3399 C3400 1.523 . S
C3400 C3381 1.368 . S
C3400 C3394 1.368 . S
C3400 C3399 1.523 . S
C3401 C3385 1.429 . S
C3401 C3397 1.429 . S
C3401 C3402 1.523 . S
C3402 C3386 1.368 . S
C3402 C3398 1.368 . S
C3402 C3401 1.523 . S
H3403 C3378 0.950 . S
H3404 C3380 0.950 . S
H3405 C3381 0.949 . S
H3406 C3383 0.950 . S
H3407 C3385 0.950 . S
C3408 C3409 1.349 . S
C3408 C3410 1.327 . S
C3408 H3433 0.950 . S
C3409 C3408 1.349 . S
C3409 C3425 1.349 . S
C3410 C3408 1.327 . S
C3410 C3429 1.429 . S
C3410 H3434 0.950 . S
C3411 C3428 1.580 . S
C3411 C3430 1.369 . S
C3411 H3435 0.943 1_556 S
H3412 C3416 0.949 . S
C3413 C3414 1.349 . S
C3413 C3415 1.327 . S
C3413 H3436 0.950 . S
C3414 C3413 1.349 . S
C3414 C3426 1.349 . S
C3415 C3413 1.327 . S
C3415 C3431 1.429 . S
C3415 H3437 0.950 . S
C3416 H3412 0.949 . S
C3416 C3424 1.574 . S
C3416 C3432 1.368 . S
H3417 C3425 0.950 . S
H3418 C3423 0.950 . S
H3419 C3424 0.949 . S
H3420 C3426 0.950 . S
H3421 C3427 0.950 . S
H3422 C3428 0.949 . S
C3423 H3418 0.950 . S
C3423 C3425 1.327 . S
C3423 C3429 1.429 . S
C3424 C3416 1.574 . S
C3424 H3419 0.949 . S
C3424 C3430 1.368 . S
C3425 C3409 1.349 . S
C3425 H3417 0.950 . S
C3425 C3423 1.327 . S
C3426 C3414 1.349 . S
C3426 H3420 0.950 . S
C3426 C3427 1.327 . S
C3427 H3421 0.950 . S
C3427 C3426 1.327 . S
C3427 C3431 1.429 . S
C3428 C3411 1.580 . S
C3428 H3422 0.949 . S
C3428 C3432 1.368 . S
C3429 C3410 1.429 . S
C3429 C3423 1.429 . S
C3429 C3430 1.523 1_554 S
C3430 C3411 1.369 . S
C3430 C3424 1.368 . S
C3430 C3429 1.523 1_556 S
C3431 C3415 1.429 . S
C3431 C3427 1.429 . S
C3431 C3432 1.523 . S
C3432 C3416 1.368 . S
C3432 C3428 1.368 . S
C3432 C3431 1.523 . S
H3433 C3408 0.950 . S
H3434 C3410 0.950 . S
H3435 C3411 0.943 1_554 S
H3436 C3413 0.950 . S
H3437 C3415 0.950 . S
C3438 C3439 1.349 . S
C3438 C3440 1.327 . S
C3438 H3463 0.950 . S
C3439 C3438 1.349 . S
C3439 C3455 1.349 . S
C3440 C3438 1.327 . S
C3440 C3459 1.429 . S
C3440 H3464 0.950 . S
C3441 C3458 1.574 . S
C3441 C3460 1.368 . S
C3441 H3465 0.949 . S
H3442 C3446 0.949 . S
C3443 C3444 1.349 . S
C3443 C3445 1.327 . S
C3443 H3466 0.950 . S
C3444 C3443 1.349 . S
C3444 C3456 1.349 . S
C3445 C3443 1.327 . S
C3445 C3461 1.429 . S
C3445 H3467 0.950 . S
C3446 H3442 0.949 . S
C3446 C3454 1.574 . S
C3446 C3462 1.368 . S
H3447 C3455 0.950 . S
H3448 C3453 0.950 . S
H3449 C3454 0.949 . S
H3450 C3456 0.950 . S
H3451 C3457 0.950 . S
H3452 C3458 0.949 . S
C3453 H3448 0.950 . S
C3453 C3455 1.327 . S
C3453 C3459 1.429 . S
C3454 C3446 1.574 . S
C3454 H3449 0.949 . S
C3454 C3460 1.368 . S
C3455 C3439 1.349 . S
C3455 H3447 0.950 . S
C3455 C3453 1.327 . S
C3456 C3444 1.349 . S
C3456 H3450 0.950 . S
C3456 C3457 1.327 . S
C3457 H3451 0.950 . S
C3457 C3456 1.327 . S
C3457 C3461 1.429 . S
C3458 C3441 1.574 . S
C3458 H3452 0.949 . S
C3458 C3462 1.368 . S
C3459 C3440 1.429 . S
C3459 C3453 1.429 . S
C3459 C3460 1.523 . S
C3460 C3441 1.368 . S
C3460 C3454 1.368 . S
C3460 C3459 1.523 . S
C3461 C3445 1.429 . S
C3461 C3457 1.429 . S
C3461 C3462 1.523 . S
C3462 C3446 1.368 . S
C3462 C3458 1.368 . S
C3462 C3461 1.523 . S
H3463 C3438 0.950 . S
H3464 C3440 0.950 . S
H3465 C3441 0.949 . S
H3466 C3443 0.950 . S
H3467 C3445 0.950 . S
C3468 C3469 1.349 . S
C3468 C3470 1.327 . S
C3468 H3493 0.950 . S
C3469 C3468 1.349 . S
C3469 C3485 1.349 . S
C3470 C3468 1.327 . S
C3470 C3489 1.429 . S
C3470 H3494 0.950 . S
C3471 C3488 1.574 . S
C3471 C3490 1.368 . S
C3471 H3495 0.949 . S
H3472 C3476 0.949 . S
C3473 C3474 1.349 . S
C3473 C3475 1.327 . S
C3473 H3496 0.950 . S
C3474 C3473 1.349 . S
C3474 C3486 1.349 . S
C3475 C3473 1.327 . S
C3475 C3491 1.429 . S
C3475 H3497 0.950 . S
C3476 H3472 0.949 . S
C3476 C3484 1.574 . S
C3476 C3492 1.368 . S
H3477 C3485 0.950 . S
H3478 C3483 0.950 . S
H3479 C3484 0.949 . S
H3480 C3486 0.950 . S
H3481 C3487 0.950 . S
H3482 C3488 0.949 . S
C3483 H3478 0.950 . S
C3483 C3485 1.327 . S
C3483 C3489 1.429 . S
C3484 C3476 1.574 . S
C3484 H3479 0.949 . S
C3484 C3490 1.368 . S
C3485 C3469 1.349 . S
C3485 H3477 0.950 . S
C3485 C3483 1.327 . S
C3486 C3474 1.349 . S
C3486 H3480 0.950 . S
C3486 C3487 1.327 . S
C3487 H3481 0.950 . S
C3487 C3486 1.327 . S
C3487 C3491 1.429 . S
C3488 C3471 1.574 . S
C3488 H3482 0.949 . S
C3488 C3492 1.368 . S
C3489 C3470 1.429 . S
C3489 C3483 1.429 . S
C3489 C3490 1.523 . S
C3490 C3471 1.368 . S
C3490 C3484 1.368 . S
C3490 C3489 1.523 . S
C3491 C3475 1.429 . S
C3491 C3487 1.429 . S
C3491 C3492 1.523 . S
C3492 C3476 1.368 . S
C3492 C3488 1.368 . S
C3492 C3491 1.523 . S
H3493 C3468 0.950 . S
H3494 C3470 0.950 . S
H3495 C3471 0.949 . S
H3496 C3473 0.950 . S
H3497 C3475 0.950 . S
C3498 C3499 1.349 . S
C3498 C3500 1.327 . S
C3498 H3523 0.950 . S
C3499 C3498 1.349 . S
C3499 C3515 1.349 . S
C3500 C3498 1.327 . S
C3500 C3519 1.429 . S
C3500 H3524 0.950 . S
C3501 C3518 1.574 . S
C3501 C3520 1.368 . S
C3501 H3525 0.949 . S
H3502 C3506 0.949 . S
C3503 C3504 1.349 . S
C3503 C3505 1.327 . S
C3503 H3526 0.950 . S
C3504 C3503 1.349 . S
C3504 C3516 1.349 . S
C3505 C3503 1.327 . S
C3505 C3521 1.429 . S
C3505 H3527 0.950 . S
C3506 H3502 0.949 . S
C3506 C3514 1.574 . S
C3506 C3522 1.368 . S
H3507 C3515 0.950 . S
H3508 C3513 0.950 . S
H3509 C3514 0.949 . S
H3510 C3516 0.950 . S
H3511 C3517 0.950 . S
H3512 C3518 0.949 . S
C3513 H3508 0.950 . S
C3513 C3515 1.327 . S
C3513 C3519 1.429 . S
C3514 C3506 1.574 . S
C3514 H3509 0.949 . S
C3514 C3520 1.368 . S
C3515 C3499 1.349 . S
C3515 H3507 0.950 . S
C3515 C3513 1.327 . S
C3516 C3504 1.349 . S
C3516 H3510 0.950 . S
C3516 C3517 1.327 . S
C3517 H3511 0.950 . S
C3517 C3516 1.327 . S
C3517 C3521 1.429 . S
C3518 C3501 1.574 . S
C3518 H3512 0.949 . S
C3518 C3522 1.368 . S
C3519 C3500 1.429 . S
C3519 C3513 1.429 . S
C3519 C3520 1.523 . S
C3520 C3501 1.368 . S
C3520 C3514 1.368 . S
C3520 C3519 1.523 . S
C3521 C3505 1.429 . S
C3521 C3517 1.429 . S
C3521 C3522 1.523 . S
C3522 C3506 1.368 . S
C3522 C3518 1.368 . S
C3522 C3521 1.523 . S
H3523 C3498 0.950 . S
H3524 C3500 0.950 . S
H3525 C3501 0.949 . S
H3526 C3503 0.950 . S
H3527 C3505 0.950 . S
C3528 C3529 1.349 . S
C3528 C3530 1.327 . S
C3528 H3553 0.950 . S
C3529 C3528 1.349 . S
C3529 C3545 1.349 . S
C3530 C3528 1.327 . S
C3530 C3549 1.429 . S
C3530 H3554 0.950 . S
C3531 C3548 1.574 . S
C3531 C3550 1.368 . S
C3531 H3555 0.949 . S
H3532 C3536 0.949 . S
C3533 C3534 1.349 . S
C3533 C3535 1.327 . S
C3533 H3556 0.950 . S
C3534 C3533 1.349 . S
C3534 C3546 1.349 . S
C3535 C3533 1.327 . S
C3535 C3551 1.429 . S
C3535 H3557 0.950 . S
C3536 H3532 0.949 . S
C3536 C3544 1.574 . S
C3536 C3552 1.368 . S
H3537 C3545 0.950 . S
H3538 C3543 0.950 . S
H3539 C3544 0.949 . S
H3540 C3546 0.950 . S
H3541 C3547 0.950 . S
H3542 C3548 0.949 . S
C3543 H3538 0.950 . S
C3543 C3545 1.327 . S
C3543 C3549 1.429 . S
C3544 C3536 1.574 . S
C3544 H3539 0.949 . S
C3544 C3550 1.368 . S
C3545 C3529 1.349 . S
C3545 H3537 0.950 . S
C3545 C3543 1.327 . S
C3546 C3534 1.349 . S
C3546 H3540 0.950 . S
C3546 C3547 1.327 . S
C3547 H3541 0.950 . S
C3547 C3546 1.327 . S
C3547 C3551 1.429 . S
C3548 C3531 1.574 . S
C3548 H3542 0.949 . S
C3548 C3552 1.368 . S
C3549 C3530 1.429 . S
C3549 C3543 1.429 . S
C3549 C3550 1.523 . S
C3550 C3531 1.368 . S
C3550 C3544 1.368 . S
C3550 C3549 1.523 . S
C3551 C3535 1.429 . S
C3551 C3547 1.429 . S
C3551 C3552 1.523 . S
C3552 C3536 1.368 . S
C3552 C3548 1.368 . S
C3552 C3551 1.523 . S
H3553 C3528 0.950 . S
H3554 C3530 0.950 . S
H3555 C3531 0.949 . S
H3556 C3533 0.950 . S
H3557 C3535 0.950 . S
C3558 C3559 1.349 . S
C3558 C3560 1.327 . S
C3558 H3583 0.950 . S
C3559 C3558 1.349 . S
C3559 C3575 1.349 . S
C3560 C3558 1.327 . S
C3560 C3579 1.429 . S
C3560 H3584 0.950 . S
C3561 C3578 1.574 . S
C3561 C3580 1.368 . S
C3561 H3585 0.949 . S
H3562 C3566 0.949 . S
C3563 C3564 1.349 . S
C3563 C3565 1.327 . S
C3563 H3586 0.950 . S
C3564 C3563 1.349 . S
C3564 C3576 1.349 . S
C3565 C3563 1.327 . S
C3565 C3581 1.429 . S
C3565 H3587 0.950 . S
C3566 H3562 0.949 . S
C3566 C3574 1.574 . S
C3566 C3582 1.368 . S
H3567 C3575 0.950 . S
H3568 C3573 0.950 . S
H3569 C3574 0.949 . S
H3570 C3576 0.950 . S
H3571 C3577 0.950 . S
H3572 C3578 0.949 . S
C3573 H3568 0.950 . S
C3573 C3575 1.327 . S
C3573 C3579 1.429 . S
C3574 C3566 1.574 . S
C3574 H3569 0.949 . S
C3574 C3580 1.368 . S
C3575 C3559 1.349 . S
C3575 H3567 0.950 . S
C3575 C3573 1.327 . S
C3576 C3564 1.349 . S
C3576 H3570 0.950 . S
C3576 C3577 1.327 . S
C3577 H3571 0.950 . S
C3577 C3576 1.327 . S
C3577 C3581 1.429 . S
C3578 C3561 1.574 . S
C3578 H3572 0.949 . S
C3578 C3582 1.368 . S
C3579 C3560 1.429 . S
C3579 C3573 1.429 . S
C3579 C3580 1.523 . S
C3580 C3561 1.368 . S
C3580 C3574 1.368 . S
C3580 C3579 1.523 . S
C3581 C3565 1.429 . S
C3581 C3577 1.429 . S
C3581 C3582 1.523 . S
C3582 C3566 1.368 . S
C3582 C3578 1.368 . S
C3582 C3581 1.523 . S
H3583 C3558 0.950 . S
H3584 C3560 0.950 . S
H3585 C3561 0.949 . S
H3586 C3563 0.950 . S
H3587 C3565 0.950 . S
C3588 C3589 1.349 . S
C3588 C3590 1.327 . S
C3588 H3613 0.950 . S
C3589 C3588 1.349 . S
C3589 C3605 1.349 . S
C3590 C3588 1.327 . S
C3590 C3609 1.429 . S
C3590 H3614 0.950 . S
C3591 C3608 1.574 . S
C3591 C3610 1.368 . S
C3591 H3615 0.949 . S
H3592 C3596 0.949 . S
C3593 C3594 1.349 . S
C3593 C3595 1.327 . S
C3593 H3616 0.950 . S
C3594 C3593 1.349 . S
C3594 C3606 1.349 . S
C3595 C3593 1.327 . S
C3595 C3611 1.429 . S
C3595 H3617 0.950 . S
C3596 H3592 0.949 . S
C3596 C3604 1.574 . S
C3596 C3612 1.368 . S
H3597 C3605 0.950 . S
H3598 C3603 0.950 . S
H3599 C3604 0.949 . S
H3600 C3606 0.950 . S
H3601 C3607 0.950 . S
H3602 C3608 0.949 . S
C3603 H3598 0.950 . S
C3603 C3605 1.327 . S
C3603 C3609 1.429 . S
C3604 C3596 1.574 . S
C3604 H3599 0.949 . S
C3604 C3610 1.368 . S
C3605 C3589 1.349 . S
C3605 H3597 0.950 . S
C3605 C3603 1.327 . S
C3606 C3594 1.349 . S
C3606 H3600 0.950 . S
C3606 C3607 1.327 . S
C3607 H3601 0.950 . S
C3607 C3606 1.327 . S
C3607 C3611 1.429 . S
C3608 C3591 1.574 . S
C3608 H3602 0.949 . S
C3608 C3612 1.368 . S
C3609 C3590 1.429 . S
C3609 C3603 1.429 . S
C3609 C3610 1.523 . S
C3610 C3591 1.368 . S
C3610 C3604 1.368 . S
C3610 C3609 1.523 . S
C3611 C3595 1.429 . S
C3611 C3607 1.429 . S
C3611 C3612 1.523 . S
C3612 C3596 1.368 . S
C3612 C3608 1.368 . S
C3612 C3611 1.523 . S
H3613 C3588 0.950 . S
H3614 C3590 0.950 . S
H3615 C3591 0.949 . S
H3616 C3593 0.950 . S
H3617 C3595 0.950 . S
C3618 C3619 1.349 . S
C3618 C3620 1.327 . S
C3618 H3643 0.950 . S
C3619 C3618 1.349 . S
C3619 C3635 1.349 . S
C3620 C3618 1.327 . S
C3620 C3639 1.429 . S
C3620 H3644 0.950 . S
C3621 C3638 1.574 . S
C3621 C3640 1.368 . S
C3621 H3645 0.949 . S
H3622 C3626 0.949 . S
C3623 C3624 1.349 1_554 S
C3623 C3625 1.327 1_554 S
C3623 H3646 0.950 . S
C3624 C3623 1.349 1_556 S
C3624 C3636 1.349 . S
C3625 C3623 1.327 1_556 S
C3625 C3641 1.429 . S
C3625 H3647 0.949 1_556 S
C3626 H3622 0.949 . S
C3626 C3634 1.574 . S
C3626 C3642 1.368 . S
H3627 C3635 0.950 . S
H3628 C3633 0.950 . S
H3629 C3634 0.949 . S
H3630 C3636 0.950 . S
H3631 C3637 0.950 . S
H3632 C3638 0.949 . S
C3633 H3628 0.950 . S
C3633 C3635 1.327 . S
C3633 C3639 1.429 . S
C3634 C3626 1.574 . S
C3634 H3629 0.949 . S
C3634 C3640 1.368 . S
C3635 C3619 1.349 . S
C3635 H3627 0.950 . S
C3635 C3633 1.327 . S
C3636 C3624 1.349 . S
C3636 H3630 0.950 . S
C3636 C3637 1.327 . S
C3637 H3631 0.950 . S
C3637 C3636 1.327 . S
C3637 C3641 1.429 . S
C3638 C3621 1.574 . S
C3638 H3632 0.949 . S
C3638 C3642 1.368 . S
C3639 C3620 1.429 . S
C3639 C3633 1.429 . S
C3639 C3640 1.523 . S
C3640 C3621 1.368 . S
C3640 C3634 1.368 . S
C3640 C3639 1.523 . S
C3641 C3625 1.429 . S
C3641 C3637 1.429 . S
C3641 C3642 1.523 . S
C3642 C3626 1.368 . S
C3642 C3638 1.368 . S
C3642 C3641 1.523 . S
H3643 C3618 0.950 . S
H3644 C3620 0.950 . S
H3645 C3621 0.949 . S
H3646 C3623 0.950 . S
H3647 C3625 0.949 1_554 S
C3648 C3649 1.349 . S
C3648 C3650 1.327 . S
C3648 H3673 0.950 . S
C3649 C3648 1.349 . S
C3649 C3665 1.349 . S
C3650 C3648 1.327 . S
C3650 C3669 1.429 . S
C3650 H3674 0.950 . S
C3651 C3668 1.574 1_655 S
C3651 C3670 1.368 . S
C3651 H3675 0.949 . S
H3652 C3656 0.949 . S
C3653 C3654 1.349 . S
C3653 C3655 1.327 . S
C3653 H3676 0.950 . S
C3654 C3653 1.349 . S
C3654 C3666 1.349 . S
C3655 C3653 1.327 . S
C3655 C3671 1.429 . S
C3655 H3677 0.950 . S
C3656 H3652 0.949 . S
C3656 C3664 1.574 1_455 S
C3656 C3672 1.368 . S
H3657 C3665 0.950 . S
H3658 C3663 0.950 . S
H3659 C3664 0.949 . S
H3660 C3666 0.950 . S
H3661 C3667 0.950 . S
H3662 C3668 0.949 . S
C3663 H3658 0.950 . S
C3663 C3665 1.327 . S
C3663 C3669 1.429 . S
C3664 C3656 1.574 1_655 S
C3664 H3659 0.949 . S
C3664 C3670 1.368 . S
C3665 C3649 1.349 . S
C3665 H3657 0.950 . S
C3665 C3663 1.327 . S
C3666 C3654 1.349 . S
C3666 H3660 0.950 . S
C3666 C3667 1.327 . S
C3667 H3661 0.950 . S
C3667 C3666 1.327 . S
C3667 C3671 1.429 . S
C3668 C3651 1.574 1_455 S
C3668 H3662 0.949 . S
C3668 C3672 1.368 . S
C3669 C3650 1.429 . S
C3669 C3663 1.429 . S
C3669 C3670 1.523 . S
C3670 C3651 1.368 . S
C3670 C3664 1.368 . S
C3670 C3669 1.523 . S
C3671 C3655 1.429 . S
C3671 C3667 1.429 . S
C3671 C3672 1.523 . S
C3672 C3656 1.368 . S
C3672 C3668 1.368 . S
C3672 C3671 1.523 . S
H3673 C3648 0.950 . S
H3674 C3650 0.950 . S
H3675 C3651 0.949 . S
H3676 C3653 0.950 . S
H3677 C3655 0.950 . S
C3678 C3679 1.349 . S
C3678 C3680 1.327 . S
C3678 H3703 0.950 . S
C3679 C3678 1.349 . S
C3679 C3695 1.349 . S
C3680 C3678 1.327 . S
C3680 C3699 1.429 . S
C3680 H3704 0.950 . S
C3681 C3698 1.574 . S
C3681 C3700 1.368 . S
C3681 H3705 0.949 . S
H3682 C3686 0.949 . S
C3683 C3684 1.349 . S
C3683 C3685 1.327 . S
C3683 H3706 0.950 . S
C3684 C3683 1.349 . S
C3684 C3696 1.349 . S
C3685 C3683 1.327 . S
C3685 C3701 1.429 . S
C3685 H3707 0.950 . S
C3686 H3682 0.949 . S
C3686 C3694 1.574 . S
C3686 C3702 1.368 . S
H3687 C3695 0.950 . S
H3688 C3693 0.950 . S
H3689 C3694 0.949 . S
H3690 C3696 0.950 . S
H3691 C3697 0.950 . S
H3692 C3698 0.949 . S
C3693 H3688 0.950 . S
C3693 C3695 1.327 . S
C3693 C3699 1.429 . S
C3694 C3686 1.574 . S
C3694 H3689 0.949 . S
C3694 C3700 1.368 . S
C3695 C3679 1.349 . S
C3695 H3687 0.950 . S
C3695 C3693 1.327 . S
C3696 C3684 1.349 . S
C3696 H3690 0.950 . S
C3696 C3697 1.327 . S
C3697 H3691 0.950 . S
C3697 C3696 1.327 . S
C3697 C3701 1.429 . S
C3698 C3681 1.574 . S
C3698 H3692 0.949 . S
C3698 C3702 1.368 . S
C3699 C3680 1.429 . S
C3699 C3693 1.429 . S
C3699 C3700 1.523 . S
C3700 C3681 1.368 . S
C3700 C3694 1.368 . S
C3700 C3699 1.523 . S
C3701 C3685 1.429 . S
C3701 C3697 1.429 . S
C3701 C3702 1.523 . S
C3702 C3686 1.368 . S
C3702 C3698 1.368 . S
C3702 C3701 1.523 . S
H3703 C3678 0.950 . S
H3704 C3680 0.950 . S
H3705 C3681 0.949 . S
H3706 C3683 0.950 . S
H3707 C3685 0.950 . S
C3708 C3709 1.349 . S
C3708 C3710 1.327 . S
C3708 H3733 0.950 . S
C3709 C3708 1.349 . S
C3709 C3725 1.349 . S
C3710 C3708 1.327 . S
C3710 C3729 1.429 . S
C3710 H3734 0.950 . S
C3711 C3728 1.574 . S
C3711 C3730 1.368 . S
C3711 H3735 0.949 . S
H3712 C3716 0.949 . S
C3713 C3714 1.349 . S
C3713 C3715 1.327 . S
C3713 H3736 0.950 . S
C3714 C3713 1.349 . S
C3714 C3726 1.349 . S
C3715 C3713 1.327 . S
C3715 C3731 1.429 . S
C3715 H3737 0.950 . S
C3716 H3712 0.949 . S
C3716 C3724 1.574 . S
C3716 C3732 1.368 . S
H3717 C3725 0.950 . S
H3718 C3723 0.950 . S
H3719 C3724 0.949 . S
H3720 C3726 0.950 . S
H3721 C3727 0.950 . S
H3722 C3728 0.949 . S
C3723 H3718 0.950 . S
C3723 C3725 1.327 . S
C3723 C3729 1.429 . S
C3724 C3716 1.574 . S
C3724 H3719 0.949 . S
C3724 C3730 1.368 . S
C3725 C3709 1.349 . S
C3725 H3717 0.950 . S
C3725 C3723 1.327 . S
C3726 C3714 1.349 . S
C3726 H3720 0.950 . S
C3726 C3727 1.327 . S
C3727 H3721 0.950 . S
C3727 C3726 1.327 . S
C3727 C3731 1.429 . S
C3728 C3711 1.574 . S
C3728 H3722 0.949 . S
C3728 C3732 1.368 . S
C3729 C3710 1.429 . S
C3729 C3723 1.429 . S
C3729 C3730 1.523 . S
C3730 C3711 1.368 . S
C3730 C3724 1.368 . S
C3730 C3729 1.523 . S
C3731 C3715 1.429 . S
C3731 C3727 1.429 . S
C3731 C3732 1.523 . S
C3732 C3716 1.368 . S
C3732 C3728 1.368 . S
C3732 C3731 1.523 . S
H3733 C3708 0.950 . S
H3734 C3710 0.950 . S
H3735 C3711 0.949 . S
H3736 C3713 0.950 . S
H3737 C3715 0.950 . S
C3738 C3739 1.349 . S
C3738 C3740 1.327 . S
C3738 H3763 0.950 . S
C3739 C3738 1.349 . S
C3739 C3755 1.349 . S
C3740 C3738 1.327 . S
C3740 C3759 1.429 . S
C3740 H3764 0.950 . S
C3741 C3758 1.574 . S
C3741 C3760 1.368 . S
C3741 H3765 0.949 . S
H3742 C3746 0.949 . S
C3743 C3744 1.349 . S
C3743 C3745 1.327 . S
C3743 H3766 0.950 . S
C3744 C3743 1.349 . S
C3744 C3756 1.349 . S
C3745 C3743 1.327 . S
C3745 C3761 1.429 . S
C3745 H3767 0.950 . S
C3746 H3742 0.949 . S
C3746 C3754 1.574 . S
C3746 C3762 1.368 . S
H3747 C3755 0.950 . S
H3748 C3753 0.950 . S
H3749 C3754 0.949 . S
H3750 C3756 0.950 . S
H3751 C3757 0.950 . S
H3752 C3758 0.949 . S
C3753 H3748 0.950 . S
C3753 C3755 1.327 . S
C3753 C3759 1.429 . S
C3754 C3746 1.574 . S
C3754 H3749 0.949 . S
C3754 C3760 1.368 . S
C3755 C3739 1.349 . S
C3755 H3747 0.950 . S
C3755 C3753 1.327 . S
C3756 C3744 1.349 . S
C3756 H3750 0.950 . S
C3756 C3757 1.327 . S
C3757 H3751 0.950 . S
C3757 C3756 1.327 . S
C3757 C3761 1.429 . S
C3758 C3741 1.574 . S
C3758 H3752 0.949 . S
C3758 C3762 1.368 . S
C3759 C3740 1.429 . S
C3759 C3753 1.429 . S
C3759 C3760 1.523 . S
C3760 C3741 1.368 . S
C3760 C3754 1.368 . S
C3760 C3759 1.523 . S
C3761 C3745 1.429 . S
C3761 C3757 1.429 . S
C3761 C3762 1.523 . S
C3762 C3746 1.368 . S
C3762 C3758 1.368 . S
C3762 C3761 1.523 . S
H3763 C3738 0.950 . S
H3764 C3740 0.950 . S
H3765 C3741 0.949 . S
H3766 C3743 0.950 . S
H3767 C3745 0.950 . S
C3768 C3769 1.349 . S
C3768 C3770 1.327 . S
C3768 H3793 0.950 . S
C3769 C3768 1.349 . S
C3769 C3785 1.349 . S
C3770 C3768 1.327 . S
C3770 C3789 1.429 . S
C3770 H3794 0.950 . S
C3771 C3788 1.589 . S
C3771 C3790 1.353 1_455 S
C3771 H3795 0.949 . S
H3772 C3776 0.949 . S
C3773 C3774 1.349 . S
C3773 C3775 1.327 . S
C3773 H3796 0.950 . S
C3774 C3773 1.349 . S
C3774 C3786 1.349 . S
C3775 C3773 1.327 . S
C3775 C3791 1.429 . S
C3775 H3797 0.950 . S
C3776 H3772 0.949 . S
C3776 C3784 1.589 . S
C3776 C3792 1.353 1_655 S
H3777 C3785 0.950 . S
H3778 C3783 0.950 . S
H3779 C3784 0.949 . S
H3780 C3786 0.950 . S
H3781 C3787 0.950 . S
H3782 C3788 0.949 . S
C3783 H3778 0.950 . S
C3783 C3785 1.327 . S
C3783 C3789 1.429 . S
C3784 C3776 1.589 . S
C3784 H3779 0.949 . S
C3784 C3790 1.368 . S
C3785 C3769 1.349 . S
C3785 H3777 0.950 . S
C3785 C3783 1.327 . S
C3786 C3774 1.349 . S
C3786 H3780 0.950 . S
C3786 C3787 1.327 . S
C3787 H3781 0.950 . S
C3787 C3786 1.327 . S
C3787 C3791 1.429 . S
C3788 C3771 1.589 . S
C3788 H3782 0.949 . S
C3788 C3792 1.368 . S
C3789 C3770 1.429 . S
C3789 C3783 1.429 . S
C3789 C3790 1.523 . S
C3790 C3771 1.353 1_655 S
C3790 C3784 1.368 . S
C3790 C3789 1.523 . S
C3791 C3775 1.429 . S
C3791 C3787 1.429 . S
C3791 C3792 1.523 . S
C3792 C3776 1.353 1_455 S
C3792 C3788 1.368 . S
C3792 C3791 1.523 . S
H3793 C3768 0.950 . S
H3794 C3770 0.950 . S
H3795 C3771 0.949 . S
H3796 C3773 0.950 . S
H3797 C3775 0.950 . S
C3798 C3799 1.349 . S
C3798 C3800 1.327 . S
C3798 H3823 0.950 . S
C3799 C3798 1.349 . S
C3799 C3815 1.349 . S
C3800 C3798 1.327 . S
C3800 C3819 1.429 . S
C3800 H3824 0.950 . S
C3801 C3818 1.574 . S
C3801 C3820 1.368 . S
C3801 H3825 0.949 . S
H3802 C3806 0.949 . S
C3803 C3804 1.349 . S
C3803 C3805 1.327 . S
C3803 H3826 0.950 . S
C3804 C3803 1.349 . S
C3804 C3816 1.349 . S
C3805 C3803 1.327 . S
C3805 C3821 1.429 . S
C3805 H3827 0.950 . S
C3806 H3802 0.949 . S
C3806 C3814 1.574 . S
C3806 C3822 1.368 . S
H3807 C3815 0.950 . S
H3808 C3813 0.950 . S
H3809 C3814 0.949 . S
H3810 C3816 0.950 . S
H3811 C3817 0.950 . S
H3812 C3818 0.949 . S
C3813 H3808 0.950 . S
C3813 C3815 1.327 . S
C3813 C3819 1.429 . S
C3814 C3806 1.574 . S
C3814 H3809 0.949 . S
C3814 C3820 1.368 . S
C3815 C3799 1.349 . S
C3815 H3807 0.950 . S
C3815 C3813 1.327 . S
C3816 C3804 1.349 . S
C3816 H3810 0.950 . S
C3816 C3817 1.327 . S
C3817 H3811 0.950 . S
C3817 C3816 1.327 . S
C3817 C3821 1.429 . S
C3818 C3801 1.574 . S
C3818 H3812 0.949 . S
C3818 C3822 1.368 . S
C3819 C3800 1.429 . S
C3819 C3813 1.429 . S
C3819 C3820 1.523 . S
C3820 C3801 1.368 . S
C3820 C3814 1.368 . S
C3820 C3819 1.523 . S
C3821 C3805 1.429 . S
C3821 C3817 1.429 . S
C3821 C3822 1.523 . S
C3822 C3806 1.368 . S
C3822 C3818 1.368 . S
C3822 C3821 1.523 . S
H3823 C3798 0.950 . S
H3824 C3800 0.950 . S
H3825 C3801 0.949 . S
H3826 C3803 0.950 . S
H3827 C3805 0.950 . S
C3828 C3829 1.349 . S
C3828 C3830 1.327 . S
C3828 H3853 0.950 . S
C3829 C3828 1.349 . S
C3829 C3845 1.349 . S
C3830 C3828 1.327 . S
C3830 C3849 1.429 . S
C3830 H3854 0.950 . S
C3831 C3848 1.574 . S
C3831 C3850 1.368 . S
C3831 H3855 0.949 . S
H3832 C3836 0.949 . S
C3833 C3834 1.349 . S
C3833 C3835 1.327 . S
C3833 H3856 0.950 . S
C3834 C3833 1.349 . S
C3834 C3846 1.349 . S
C3835 C3833 1.327 . S
C3835 C3851 1.429 . S
C3835 H3857 0.950 . S
C3836 H3832 0.949 . S
C3836 C3844 1.574 . S
C3836 C3852 1.368 . S
H3837 C3845 0.950 . S
H3838 C3843 0.950 . S
H3839 C3844 0.949 . S
H3840 C3846 0.950 . S
H3841 C3847 0.950 . S
H3842 C3848 0.949 . S
C3843 H3838 0.950 . S
C3843 C3845 1.327 . S
C3843 C3849 1.429 . S
C3844 C3836 1.574 . S
C3844 H3839 0.949 . S
C3844 C3850 1.368 . S
C3845 C3829 1.349 . S
C3845 H3837 0.950 . S
C3845 C3843 1.327 . S
C3846 C3834 1.349 . S
C3846 H3840 0.950 . S
C3846 C3847 1.327 . S
C3847 H3841 0.950 . S
C3847 C3846 1.327 . S
C3847 C3851 1.429 . S
C3848 C3831 1.574 . S
C3848 H3842 0.949 . S
C3848 C3852 1.368 . S
C3849 C3830 1.429 . S
C3849 C3843 1.429 . S
C3849 C3850 1.523 . S
C3850 C3831 1.368 . S
C3850 C3844 1.368 . S
C3850 C3849 1.523 . S
C3851 C3835 1.429 . S
C3851 C3847 1.429 . S
C3851 C3852 1.523 . S
C3852 C3836 1.368 . S
C3852 C3848 1.368 . S
C3852 C3851 1.523 . S
H3853 C3828 0.950 . S
H3854 C3830 0.950 . S
H3855 C3831 0.949 . S
H3856 C3833 0.950 . S
H3857 C3835 0.950 . S
C3858 C3859 1.349 . S
C3858 C3860 1.327 . S
C3858 H3883 0.950 . S
C3859 C3858 1.349 . S
C3859 C3875 1.349 . S
C3860 C3858 1.327 . S
C3860 C3879 1.429 . S
C3860 H3884 0.950 . S
C3861 C3878 1.574 . S
C3861 C3880 1.368 . S
C3861 H3885 0.949 . S
H3862 C3866 0.949 . S
C3863 C3864 1.349 . S
C3863 C3865 1.327 . S
C3863 H3886 0.950 . S
C3864 C3863 1.349 . S
C3864 C3876 1.349 . S
C3865 C3863 1.327 . S
C3865 C3881 1.429 . S
C3865 H3887 0.950 . S
C3866 H3862 0.949 . S
C3866 C3874 1.574 . S
C3866 C3882 1.368 . S
H3867 C3875 0.950 . S
H3868 C3873 0.950 . S
H3869 C3874 0.949 . S
H3870 C3876 0.950 . S
H3871 C3877 0.950 . S
H3872 C3878 0.949 . S
C3873 H3868 0.950 . S
C3873 C3875 1.327 . S
C3873 C3879 1.429 . S
C3874 C3866 1.574 . S
C3874 H3869 0.949 . S
C3874 C3880 1.368 . S
C3875 C3859 1.349 . S
C3875 H3867 0.950 . S
C3875 C3873 1.327 . S
C3876 C3864 1.349 . S
C3876 H3870 0.950 . S
C3876 C3877 1.327 . S
C3877 H3871 0.950 . S
C3877 C3876 1.327 . S
C3877 C3881 1.429 . S
C3878 C3861 1.574 . S
C3878 H3872 0.949 . S
C3878 C3882 1.368 . S
C3879 C3860 1.429 . S
C3879 C3873 1.429 . S
C3879 C3880 1.523 . S
C3880 C3861 1.368 . S
C3880 C3874 1.368 . S
C3880 C3879 1.523 . S
C3881 C3865 1.429 . S
C3881 C3877 1.429 . S
C3881 C3882 1.523 . S
C3882 C3866 1.368 . S
C3882 C3878 1.368 . S
C3882 C3881 1.523 . S
H3883 C3858 0.950 . S
H3884 C3860 0.950 . S
H3885 C3861 0.949 . S
H3886 C3863 0.950 . S
H3887 C3865 0.950 . S
C3888 C3889 1.349 . S
C3888 C3890 1.327 . S
C3888 H3913 0.950 . S
C3889 C3888 1.349 . S
C3889 C3905 1.349 . S
C3890 C3888 1.327 . S
C3890 C3909 1.429 . S
C3890 H3914 0.950 . S
C3891 C3908 1.574 . S
C3891 C3910 1.368 . S
C3891 H3915 0.949 . S
H3892 C3896 0.949 . S
C3893 C3894 1.349 . S
C3893 C3895 1.327 . S
C3893 H3916 0.950 . S
C3894 C3893 1.349 . S
C3894 C3906 1.349 . S
C3895 C3893 1.327 . S
C3895 C3911 1.429 . S
C3895 H3917 0.950 . S
C3896 H3892 0.949 . S
C3896 C3904 1.574 . S
C3896 C3912 1.368 . S
H3897 C3905 0.950 . S
H3898 C3903 0.950 . S
H3899 C3904 0.949 . S
H3900 C3906 0.950 . S
H3901 C3907 0.950 . S
H3902 C3908 0.949 . S
C3903 H3898 0.950 . S
C3903 C3905 1.327 . S
C3903 C3909 1.429 . S
C3904 C3896 1.574 . S
C3904 H3899 0.949 . S
C3904 C3910 1.368 . S
C3905 C3889 1.349 . S
C3905 H3897 0.950 . S
C3905 C3903 1.327 . S
C3906 C3894 1.349 . S
C3906 H3900 0.950 . S
C3906 C3907 1.327 . S
C3907 H3901 0.950 . S
C3907 C3906 1.327 . S
C3907 C3911 1.429 . S
C3908 C3891 1.574 . S
C3908 H3902 0.949 . S
C3908 C3912 1.368 . S
C3909 C3890 1.429 . S
C3909 C3903 1.429 . S
C3909 C3910 1.523 . S
C3910 C3891 1.368 . S
C3910 C3904 1.368 . S
C3910 C3909 1.523 . S
C3911 C3895 1.429 . S
C3911 C3907 1.429 . S
C3911 C3912 1.523 . S
C3912 C3896 1.368 . S
C3912 C3908 1.368 . S
C3912 C3911 1.523 . S
H3913 C3888 0.950 . S
H3914 C3890 0.950 . S
H3915 C3891 0.949 . S
H3916 C3893 0.950 . S
H3917 C3895 0.950 . S
C3918 C3919 1.349 . S
C3918 C3920 1.327 . S
C3918 H3943 0.950 . S
C3919 C3918 1.349 . S
C3919 C3935 1.349 . S
C3920 C3918 1.327 . S
C3920 C3939 1.429 . S
C3920 H3944 0.950 . S
C3921 C3938 1.574 . S
C3921 C3940 1.368 . S
C3921 H3945 0.949 . S
H3922 C3926 0.949 . S
C3923 C3924 1.349 . S
C3923 C3925 1.327 . S
C3923 H3946 0.950 . S
C3924 C3923 1.349 . S
C3924 C3936 1.349 . S
C3925 C3923 1.327 . S
C3925 C3941 1.429 . S
C3925 H3947 0.950 . S
C3926 H3922 0.949 . S
C3926 C3934 1.574 . S
C3926 C3942 1.368 . S
H3927 C3935 0.950 . S
H3928 C3933 0.950 . S
H3929 C3934 0.949 . S
H3930 C3936 0.950 . S
H3931 C3937 0.950 . S
H3932 C3938 0.949 . S
C3933 H3928 0.950 . S
C3933 C3935 1.327 . S
C3933 C3939 1.429 . S
C3934 C3926 1.574 . S
C3934 H3929 0.949 . S
C3934 C3940 1.368 . S
C3935 C3919 1.349 . S
C3935 H3927 0.950 . S
C3935 C3933 1.327 . S
C3936 C3924 1.349 . S
C3936 H3930 0.950 . S
C3936 C3937 1.327 . S
C3937 H3931 0.950 . S
C3937 C3936 1.327 . S
C3937 C3941 1.429 . S
C3938 C3921 1.574 . S
C3938 H3932 0.949 . S
C3938 C3942 1.368 . S
C3939 C3920 1.429 . S
C3939 C3933 1.429 . S
C3939 C3940 1.523 . S
C3940 C3921 1.368 . S
C3940 C3934 1.368 . S
C3940 C3939 1.523 . S
C3941 C3925 1.429 . S
C3941 C3937 1.429 . S
C3941 C3942 1.523 . S
C3942 C3926 1.368 . S
C3942 C3938 1.368 . S
C3942 C3941 1.523 . S
H3943 C3918 0.950 . S
H3944 C3920 0.950 . S
H3945 C3921 0.949 . S
H3946 C3923 0.950 . S
H3947 C3925 0.950 . S
C3948 C3949 1.349 . S
C3948 C3950 1.327 . S
C3948 H3973 0.950 . S
C3949 C3948 1.349 . S
C3949 C3965 1.349 . S
C3950 C3948 1.327 . S
C3950 C3969 1.429 . S
C3950 H3974 0.950 . S
C3951 C3968 1.574 . S
C3951 C3970 1.368 . S
C3951 H3975 0.949 . S
H3952 C3956 0.949 . S
C3953 C3954 1.349 . S
C3953 C3955 1.327 . S
C3953 H3976 0.950 . S
C3954 C3953 1.349 . S
C3954 C3966 1.349 . S
C3955 C3953 1.327 . S
C3955 C3971 1.429 . S
C3955 H3977 0.950 . S
C3956 H3952 0.949 . S
C3956 C3964 1.574 . S
C3956 C3972 1.368 . S
H3957 C3965 0.950 . S
H3958 C3963 0.950 . S
H3959 C3964 0.949 . S
H3960 C3966 0.950 . S
H3961 C3967 0.950 . S
H3962 C3968 0.949 . S
C3963 H3958 0.950 . S
C3963 C3965 1.327 . S
C3963 C3969 1.429 . S
C3964 C3956 1.574 . S
C3964 H3959 0.949 . S
C3964 C3970 1.368 . S
C3965 C3949 1.349 . S
C3965 H3957 0.950 . S
C3965 C3963 1.327 . S
C3966 C3954 1.349 . S
C3966 H3960 0.950 . S
C3966 C3967 1.327 . S
C3967 H3961 0.950 . S
C3967 C3966 1.327 . S
C3967 C3971 1.429 . S
C3968 C3951 1.574 . S
C3968 H3962 0.949 . S
C3968 C3972 1.368 . S
C3969 C3950 1.429 . S
C3969 C3963 1.429 . S
C3969 C3970 1.523 . S
C3970 C3951 1.368 . S
C3970 C3964 1.368 . S
C3970 C3969 1.523 . S
C3971 C3955 1.429 . S
C3971 C3967 1.429 . S
C3971 C3972 1.523 . S
C3972 C3956 1.368 . S
C3972 C3968 1.368 . S
C3972 C3971 1.523 . S
H3973 C3948 0.950 . S
H3974 C3950 0.950 . S
H3975 C3951 0.949 . S
H3976 C3953 0.950 . S
H3977 C3955 0.950 . S
C3978 C3979 1.349 . S
C3978 C3980 1.327 . S
C3978 H4003 0.950 . S
C3979 C3978 1.349 . S
C3979 C3995 1.349 . S
C3980 C3978 1.327 . S
C3980 C3999 1.429 . S
C3980 H4004 0.950 . S
C3981 C3998 1.574 . S
C3981 C4000 1.368 . S
C3981 H4005 0.949 . S
H3982 C3986 0.949 . S
C3983 C3984 1.349 . S
C3983 C3985 1.327 . S
C3983 H4006 0.950 . S
C3984 C3983 1.349 . S
C3984 C3996 1.349 . S
C3985 C3983 1.327 . S
C3985 C4001 1.429 . S
C3985 H4007 0.950 . S
C3986 H3982 0.949 . S
C3986 C3994 1.574 . S
C3986 C4002 1.368 . S
H3987 C3995 0.950 . S
H3988 C3993 0.950 . S
H3989 C3994 0.949 . S
H3990 C3996 0.950 . S
H3991 C3997 0.950 . S
H3992 C3998 0.949 . S
C3993 H3988 0.950 . S
C3993 C3995 1.327 . S
C3993 C3999 1.429 . S
C3994 C3986 1.574 . S
C3994 H3989 0.949 . S
C3994 C4000 1.368 . S
C3995 C3979 1.349 . S
C3995 H3987 0.950 . S
C3995 C3993 1.327 . S
C3996 C3984 1.349 . S
C3996 H3990 0.950 . S
C3996 C3997 1.327 . S
C3997 H3991 0.950 . S
C3997 C3996 1.327 . S
C3997 C4001 1.429 . S
C3998 C3981 1.574 . S
C3998 H3992 0.949 . S
C3998 C4002 1.368 . S
C3999 C3980 1.429 . S
C3999 C3993 1.429 . S
C3999 C4000 1.523 . S
C4000 C3981 1.368 . S
C4000 C3994 1.368 . S
C4000 C3999 1.523 . S
C4001 C3985 1.429 . S
C4001 C3997 1.429 . S
C4001 C4002 1.523 . S
C4002 C3986 1.368 . S
C4002 C3998 1.368 . S
C4002 C4001 1.523 . S
H4003 C3978 0.950 . S
H4004 C3980 0.950 . S
H4005 C3981 0.949 . S
H4006 C3983 0.950 . S
H4007 C3985 0.950 . S
C4008 C4009 1.349 . S
C4008 C4010 1.327 . S
C4008 H4033 0.950 . S
C4009 C4008 1.349 . S
C4009 C4025 1.349 . S
C4010 C4008 1.327 . S
C4010 C4029 1.429 . S
C4010 H4034 0.950 1_545 S
C4011 C4028 1.574 . S
C4011 C4030 1.368 . S
C4011 H4035 0.949 . S
H4012 C4016 0.949 . S
C4013 C4014 1.349 . S
C4013 C4015 1.327 . S
C4013 H4036 0.950 . S
C4014 C4013 1.349 . S
C4014 C4026 1.349 . S
C4015 C4013 1.327 . S
C4015 C4031 1.429 . S
C4015 H4037 0.950 1_565 S
C4016 H4012 0.949 . S
C4016 C4024 1.574 . S
C4016 C4032 1.368 . S
H4017 C4025 0.950 . S
H4018 C4023 0.950 . S
H4019 C4024 0.949 . S
H4020 C4026 0.950 . S
H4021 C4027 0.950 . S
H4022 C4028 0.949 . S
C4023 H4018 0.950 . S
C4023 C4025 1.327 . S
C4023 C4029 1.429 . S
C4024 C4016 1.574 . S
C4024 H4019 0.949 . S
C4024 C4030 1.368 1_565 S
C4025 C4009 1.349 . S
C4025 H4017 0.950 . S
C4025 C4023 1.327 . S
C4026 C4014 1.349 . S
C4026 H4020 0.950 . S
C4026 C4027 1.327 . S
C4027 H4021 0.950 . S
C4027 C4026 1.327 . S
C4027 C4031 1.429 . S
C4028 C4011 1.574 . S
C4028 H4022 0.949 . S
C4028 C4032 1.368 1_545 S
C4029 C4010 1.429 . S
C4029 C4023 1.429 . S
C4029 C4030 1.523 . S
C4030 C4011 1.368 . S
C4030 C4024 1.368 1_545 S
C4030 C4029 1.523 . S
C4031 C4015 1.429 . S
C4031 C4027 1.429 . S
C4031 C4032 1.523 . S
C4032 C4016 1.368 . S
C4032 C4028 1.368 1_565 S
C4032 C4031 1.523 . S
H4033 C4008 0.950 . S
H4034 C4010 0.950 1_565 S
H4035 C4011 0.949 . S
H4036 C4013 0.950 . S
H4037 C4015 0.950 1_545 S
C4038 C4039 1.349 . S
C4038 C4040 1.327 . S
C4038 H4063 0.950 . S
C4039 C4038 1.349 . S
C4039 C4055 1.349 . S
C4040 C4038 1.327 . S
C4040 C4059 1.429 . S
C4040 H4064 0.950 . S
C4041 C4058 1.560 1_465 S
C4041 C4060 1.368 . S
C4041 H4065 0.949 . S
H4042 C4046 0.949 . S
C4043 C4044 1.349 . S
C4043 C4045 1.327 . S
C4043 H4066 0.950 . S
C4044 C4043 1.349 . S
C4044 C4056 1.349 . S
C4045 C4043 1.327 . S
C4045 C4061 1.429 . S
C4045 H4067 0.950 . S
C4046 H4042 0.949 . S
C4046 C4054 1.560 1_645 S
C4046 C4062 1.368 . S
H4047 C4055 0.950 . S
H4048 C4053 0.950 . S
H4049 C4054 0.948 . S
H4050 C4056 0.950 . S
H4051 C4057 0.950 . S
H4052 C4058 0.948 . S
C4053 H4048 0.950 . S
C4053 C4055 1.327 . S
C4053 C4059 1.429 . S
C4054 C4046 1.560 1_465 S
C4054 H4049 0.948 . S
C4054 C4060 1.381 . S
C4055 C4039 1.349 . S
C4055 H4047 0.950 . S
C4055 C4053 1.327 . S
C4056 C4044 1.349 . S
C4056 H4050 0.950 . S
C4056 C4057 1.327 . S
C4057 H4051 0.950 . S
C4057 C4056 1.327 . S
C4057 C4061 1.429 . S
C4058 C4041 1.560 1_645 S
C4058 H4052 0.948 . S
C4058 C4062 1.381 . S
C4059 C4040 1.429 . S
C4059 C4053 1.429 . S
C4059 C4060 1.523 . S
C4060 C4041 1.368 . S
C4060 C4054 1.381 . S
C4060 C4059 1.523 . S
C4061 C4045 1.429 . S
C4061 C4057 1.429 . S
C4061 C4062 1.523 . S
C4062 C4046 1.368 . S
C4062 C4058 1.381 . S
C4062 C4061 1.523 . S
H4063 C4038 0.950 . S
H4064 C4040 0.950 . S
H4065 C4041 0.949 . S
H4066 C4043 0.950 . S
H4067 C4045 0.950 . S
C4068 C4069 1.349 . S
C4068 C4070 1.327 . S
C4068 H4093 0.950 . S
C4069 C4068 1.349 . S
C4069 C4085 1.349 . S
C4070 C4068 1.327 . S
C4070 C4089 1.429 . S
C4070 H4094 0.950 . S
C4071 C4088 1.574 . S
C4071 C4090 1.368 1_545 S
C4071 H4095 0.949 . S
H4072 C4076 0.949 . S
C4073 C4074 1.349 . S
C4073 C4075 1.327 . S
C4073 H4096 0.950 . S
C4074 C4073 1.349 . S
C4074 C4086 1.349 . S
C4075 C4073 1.327 . S
C4075 C4091 1.429 . S
C4075 H4097 0.950 . S
C4076 H4072 0.949 . S
C4076 C4084 1.574 . S
C4076 C4092 1.368 1_565 S
H4077 C4085 0.950 . S
H4078 C4083 0.950 1_545 S
H4079 C4084 0.949 . S
H4080 C4086 0.950 . S
H4081 C4087 0.950 1_565 S
H4082 C4088 0.949 . S
C4083 H4078 0.950 1_565 S
C4083 C4085 1.327 . S
C4083 C4089 1.429 . S
C4084 C4076 1.574 . S
C4084 H4079 0.949 . S
C4084 C4090 1.368 . S
C4085 C4069 1.349 . S
C4085 H4077 0.950 . S
C4085 C4083 1.327 . S
C4086 C4074 1.349 . S
C4086 H4080 0.950 . S
C4086 C4087 1.327 . S
C4087 H4081 0.950 1_545 S
C4087 C4086 1.327 . S
C4087 C4091 1.429 . S
C4088 C4071 1.574 . S
C4088 H4082 0.949 . S
C4088 C4092 1.368 . S
C4089 C4070 1.429 . S
C4089 C4083 1.429 . S
C4089 C4090 1.523 . S
C4090 C4071 1.368 1_565 S
C4090 C4084 1.368 . S
C4090 C4089 1.523 . S
C4091 C4075 1.429 . S
C4091 C4087 1.429 . S
C4091 C4092 1.523 . S
C4092 C4076 1.368 1_545 S
C4092 C4088 1.368 . S
C4092 C4091 1.523 . S
H4093 C4068 0.950 . S
H4094 C4070 0.950 . S
H4095 C4071 0.949 . S
H4096 C4073 0.950 . S
H4097 C4075 0.950 . S
C4098 C4099 1.349 . S
C4098 C4100 1.327 . S
C4098 H4123 0.950 . S
C4099 C4098 1.349 . S
C4099 C4115 1.349 . S
C4100 C4098 1.327 . S
C4100 C4119 1.429 . S
C4100 H4124 0.950 . S
C4101 C4118 1.574 . S
C4101 C4120 1.368 1_455 S
C4101 H4125 0.949 . S
H4102 C4106 0.949 . S
C4103 C4104 1.349 . S
C4103 C4105 1.327 . S
C4103 H4126 0.950 . S
C4104 C4103 1.349 . S
C4104 C4116 1.349 . S
C4105 C4103 1.327 . S
C4105 C4121 1.429 . S
C4105 H4127 0.950 . S
C4106 H4102 0.949 . S
C4106 C4114 1.574 . S
C4106 C4122 1.368 1_655 S
H4107 C4115 0.950 . S
H4108 C4113 0.950 . S
H4109 C4114 0.949 . S
H4110 C4116 0.950 . S
H4111 C4117 0.950 . S
H4112 C4118 0.949 . S
C4113 H4108 0.950 . S
C4113 C4115 1.327 . S
C4113 C4119 1.429 . S
C4114 C4106 1.574 . S
C4114 H4109 0.949 . S
C4114 C4120 1.368 1_545 S
C4115 C4099 1.349 . S
C4115 H4107 0.950 . S
C4115 C4113 1.327 . S
C4116 C4104 1.349 . S
C4116 H4110 0.950 . S
C4116 C4117 1.327 . S
C4117 H4111 0.950 . S
C4117 C4116 1.327 . S
C4117 C4121 1.429 . S
C4118 C4101 1.574 . S
C4118 H4112 0.949 . S
C4118 C4122 1.368 1_565 S
C4119 C4100 1.429 . S
C4119 C4113 1.429 . S
C4119 C4120 1.523 . S
C4120 C4101 1.368 1_655 S
C4120 C4114 1.368 1_565 S
C4120 C4119 1.523 . S
C4121 C4105 1.429 . S
C4121 C4117 1.429 . S
C4121 C4122 1.523 . S
C4122 C4106 1.368 1_455 S
C4122 C4118 1.368 1_545 S
C4122 C4121 1.523 . S
H4123 C4098 0.950 . S
H4124 C4100 0.950 . S
H4125 C4101 0.949 . S
H4126 C4103 0.950 . S
H4127 C4105 0.950 . S
C4128 C4129 1.349 . S
C4128 C4130 1.310 1_455 S
C4128 H4153 0.950 . S
C4129 C4128 1.349 . S
C4129 C4145 1.349 . S
C4130 C4128 1.310 1_655 S
C4130 C4149 1.424 1_655 S
C4130 H4154 0.973 . S
C4131 C4148 1.574 . S
C4131 C4150 1.368 . S
C4131 H4155 0.949 1_655 S
H4132 C4136 0.949 . S
C4133 C4134 1.349 . S
C4133 C4135 1.327 . S
C4133 H4156 0.950 . S
C4134 C4133 1.349 . S
C4134 C4146 1.349 . S
C4135 C4133 1.327 . S
C4135 C4151 1.429 . S
C4135 H4157 0.950 . S
C4136 H4132 0.949 . S
C4136 C4144 1.574 . S
C4136 C4152 1.368 . S
H4137 C4145 0.950 . S
H4138 C4143 0.950 . S
H4139 C4144 0.949 . S
H4140 C4146 0.950 . S
H4141 C4147 0.950 . S
H4142 C4148 0.949 . S
C4143 H4138 0.950 . S
C4143 C4145 1.327 . S
C4143 C4149 1.429 . S
C4144 C4136 1.574 . S
C4144 H4139 0.949 . S
C4144 C4150 1.368 . S
C4145 C4129 1.349 . S
C4145 H4137 0.950 . S
C4145 C4143 1.327 . S
C4146 C4134 1.349 . S
C4146 H4140 0.950 . S
C4146 C4147 1.327 . S
C4147 H4141 0.950 . S
C4147 C4146 1.327 . S
C4147 C4151 1.429 . S
C4148 C4131 1.574 . S
C4148 H4142 0.949 . S
C4148 C4152 1.368 . S
C4149 C4130 1.424 1_455 S
C4149 C4143 1.429 . S
C4149 C4150 1.523 1_455 S
C4150 C4131 1.368 . S
C4150 C4144 1.368 . S
C4150 C4149 1.523 1_655 S
C4151 C4135 1.429 . S
C4151 C4147 1.429 . S
C4151 C4152 1.523 . S
C4152 C4136 1.368 . S
C4152 C4148 1.368 . S
C4152 C4151 1.523 . S
H4153 C4128 0.950 . S
H4154 C4130 0.973 . S
H4155 C4131 0.949 1_455 S
H4156 C4133 0.950 . S
H4157 C4135 0.950 . S
C4158 C4159 1.349 . S
C4158 C4160 1.327 . S
C4158 H4183 0.950 . S
C4159 C4158 1.349 . S
C4159 C4175 1.349 . S
C4160 C4158 1.327 . S
C4160 C4179 1.429 . S
C4160 H4184 0.950 . S
C4161 C4178 1.574 . S
C4161 C4180 1.368 . S
C4161 H4185 0.949 . S
H4162 C4166 0.949 . S
C4163 C4164 1.349 . S
C4163 C4165 1.327 . S
C4163 H4186 0.950 . S
C4164 C4163 1.349 . S
C4164 C4176 1.349 . S
C4165 C4163 1.327 . S
C4165 C4181 1.429 . S
C4165 H4187 0.950 . S
C4166 H4162 0.949 . S
C4166 C4174 1.574 1_554 S
C4166 C4182 1.368 . S
H4167 C4175 0.950 . S
H4168 C4173 0.950 . S
H4169 C4174 0.949 . S
H4170 C4176 0.950 . S
H4171 C4177 0.950 . S
H4172 C4178 0.949 . S
C4173 H4168 0.950 . S
C4173 C4175 1.327 . S
C4173 C4179 1.429 . S
C4174 C4166 1.574 1_556 S
C4174 H4169 0.949 . S
C4174 C4180 1.368 1_556 S
C4175 C4159 1.349 . S
C4175 H4167 0.950 . S
C4175 C4173 1.327 . S
C4176 C4164 1.349 . S
C4176 H4170 0.950 . S
C4176 C4177 1.327 . S
C4177 H4171 0.950 . S
C4177 C4176 1.327 . S
C4177 C4181 1.429 . S
C4178 C4161 1.574 . S
C4178 H4172 0.949 . S
C4178 C4182 1.368 . S
C4179 C4160 1.429 . S
C4179 C4173 1.429 . S
C4179 C4180 1.523 1_556 S
C4180 C4161 1.368 . S
C4180 C4174 1.368 1_554 S
C4180 C4179 1.523 1_554 S
C4181 C4165 1.429 . S
C4181 C4177 1.429 . S
C4181 C4182 1.523 . S
C4182 C4166 1.368 . S
C4182 C4178 1.368 . S
C4182 C4181 1.523 . S
H4183 C4158 0.950 . S
H4184 C4160 0.950 . S
H4185 C4161 0.949 . S
H4186 C4163 0.950 . S
H4187 C4165 0.950 . S
C4188 C4189 1.349 . S
C4188 C4190 1.327 . S
C4188 H4213 0.950 . S
C4189 C4188 1.349 . S
C4189 C4205 1.349 . S
C4190 C4188 1.327 . S
C4190 C4209 1.429 . S
C4190 H4214 0.950 . S
C4191 C4208 1.574 . S
C4191 C4210 1.368 . S
C4191 H4215 0.949 . S
H4192 C4196 0.949 . S
C4193 C4194 1.349 . S
C4193 C4195 1.327 . S
C4193 H4216 0.950 . S
C4194 C4193 1.349 . S
C4194 C4206 1.349 . S
C4195 C4193 1.327 . S
C4195 C4211 1.429 . S
C4195 H4217 0.950 . S
C4196 H4192 0.949 . S
C4196 C4204 1.574 . S
C4196 C4212 1.368 . S
H4197 C4205 0.950 . S
H4198 C4203 0.950 . S
H4199 C4204 0.949 . S
H4200 C4206 0.950 . S
H4201 C4207 0.950 . S
H4202 C4208 0.949 . S
C4203 H4198 0.950 . S
C4203 C4205 1.327 . S
C4203 C4209 1.429 . S
C4204 C4196 1.574 . S
C4204 H4199 0.949 . S
C4204 C4210 1.368 . S
C4205 C4189 1.349 . S
C4205 H4197 0.950 . S
C4205 C4203 1.327 . S
C4206 C4194 1.349 . S
C4206 H4200 0.950 . S
C4206 C4207 1.327 . S
C4207 H4201 0.950 . S
C4207 C4206 1.327 . S
C4207 C4211 1.429 . S
C4208 C4191 1.574 . S
C4208 H4202 0.949 . S
C4208 C4212 1.368 . S
C4209 C4190 1.429 . S
C4209 C4203 1.429 . S
C4209 C4210 1.523 . S
C4210 C4191 1.368 . S
C4210 C4204 1.368 . S
C4210 C4209 1.523 . S
C4211 C4195 1.429 . S
C4211 C4207 1.429 . S
C4211 C4212 1.523 . S
C4212 C4196 1.368 . S
C4212 C4208 1.368 . S
C4212 C4211 1.523 . S
H4213 C4188 0.950 . S
H4214 C4190 0.950 . S
H4215 C4191 0.949 . S
H4216 C4193 0.950 . S
H4217 C4195 0.950 . S
C4218 C4219 1.349 . S
C4218 C4220 1.327 . S
C4218 H4243 0.950 . S
C4219 C4218 1.349 . S
C4219 C4235 1.349 . S
C4220 C4218 1.327 . S
C4220 C4239 1.429 . S
C4220 H4244 0.950 . S
C4221 C4238 1.574 . S
C4221 C4240 1.368 . S
C4221 H4245 0.949 . S
H4222 C4226 0.949 . S
C4223 C4224 1.349 . S
C4223 C4225 1.327 . S
C4223 H4246 0.950 . S
C4224 C4223 1.349 . S
C4224 C4236 1.349 . S
C4225 C4223 1.327 . S
C4225 C4241 1.429 . S
C4225 H4247 0.950 . S
C4226 H4222 0.949 . S
C4226 C4234 1.574 . S
C4226 C4242 1.368 . S
H4227 C4235 0.950 . S
H4228 C4233 0.950 . S
H4229 C4234 0.949 . S
H4230 C4236 0.950 . S
H4231 C4237 0.950 . S
H4232 C4238 0.949 . S
C4233 H4228 0.950 . S
C4233 C4235 1.327 . S
C4233 C4239 1.429 . S
C4234 C4226 1.574 . S
C4234 H4229 0.949 . S
C4234 C4240 1.368 . S
C4235 C4219 1.349 . S
C4235 H4227 0.950 . S
C4235 C4233 1.327 . S
C4236 C4224 1.349 . S
C4236 H4230 0.950 . S
C4236 C4237 1.327 . S
C4237 H4231 0.950 . S
C4237 C4236 1.327 . S
C4237 C4241 1.429 . S
C4238 C4221 1.574 . S
C4238 H4232 0.949 . S
C4238 C4242 1.368 . S
C4239 C4220 1.429 . S
C4239 C4233 1.429 . S
C4239 C4240 1.523 . S
C4240 C4221 1.368 . S
C4240 C4234 1.368 . S
C4240 C4239 1.523 . S
C4241 C4225 1.429 . S
C4241 C4237 1.429 . S
C4241 C4242 1.523 . S
C4242 C4226 1.368 . S
C4242 C4238 1.368 . S
C4242 C4241 1.523 . S
H4243 C4218 0.950 . S
H4244 C4220 0.950 . S
H4245 C4221 0.949 . S
H4246 C4223 0.950 . S
H4247 C4225 0.950 . S
C4248 C4249 1.349 . S
C4248 C4250 1.327 1_554 S
C4248 H4273 0.950 . S
C4249 C4248 1.349 . S
C4249 C4265 1.349 . S
C4250 C4248 1.327 1_556 S
C4250 C4269 1.429 . S
C4250 H4274 0.950 . S
C4251 C4268 1.574 . S
C4251 C4270 1.368 . S
C4251 H4275 0.949 . S
H4252 C4256 0.949 1_455 S
C4253 C4254 1.349 . S
C4253 C4255 1.331 . S
C4253 H4276 0.950 . S
C4254 C4253 1.349 . S
C4254 C4266 1.349 . S
C4255 C4253 1.331 . S
C4255 C4271 1.430 . S
C4255 H4277 0.945 1_455 S
C4256 H4252 0.949 1_655 S
C4256 C4264 1.574 . S
C4256 C4272 1.368 . S
H4257 C4265 0.950 . S
H4258 C4263 0.950 . S
H4259 C4264 0.949 . S
H4260 C4266 0.950 . S
H4261 C4267 0.950 . S
H4262 C4268 0.949 . S
C4263 H4258 0.950 . S
C4263 C4265 1.327 1_556 S
C4263 C4269 1.429 . S
C4264 C4256 1.574 . S
C4264 H4259 0.949 . S
C4264 C4270 1.368 . S
C4265 C4249 1.349 . S
C4265 H4257 0.950 . S
C4265 C4263 1.327 1_554 S
C4266 C4254 1.349 . S
C4266 H4260 0.950 . S
C4266 C4267 1.327 . S
C4267 H4261 0.950 . S
C4267 C4266 1.327 . S
C4267 C4271 1.429 . S
C4268 C4251 1.574 . S
C4268 H4262 0.949 . S
C4268 C4272 1.368 . S
C4269 C4250 1.429 . S
C4269 C4263 1.429 . S
C4269 C4270 1.523 . S
C4270 C4251 1.368 . S
C4270 C4264 1.368 . S
C4270 C4269 1.523 . S
C4271 C4255 1.430 . S
C4271 C4267 1.429 . S
C4271 C4272 1.523 1_455 S
C4272 C4256 1.368 . S
C4272 C4268 1.368 . S
C4272 C4271 1.523 1_655 S
H4273 C4248 0.950 . S
H4274 C4250 0.950 . S
H4275 C4251 0.949 . S
H4276 C4253 0.950 . S
H4277 C4255 0.945 1_655 S
C4278 C4279 1.349 . S
C4278 C4280 1.327 . S
C4278 H4303 0.950 . S
C4279 C4278 1.349 . S
C4279 C4295 1.349 . S
C4280 C4278 1.327 . S
C4280 C4299 1.429 . S
C4280 H4304 0.950 . S
C4281 C4298 1.574 . S
C4281 C4300 1.368 . S
C4281 H4305 0.949 . S
H4282 C4286 0.949 . S
C4283 C4284 1.349 . S
C4283 C4285 1.327 . S
C4283 H4306 0.950 . S
C4284 C4283 1.349 . S
C4284 C4296 1.349 . S
C4285 C4283 1.327 . S
C4285 C4301 1.429 . S
C4285 H4307 0.950 . S
C4286 H4282 0.949 . S
C4286 C4294 1.574 . S
C4286 C4302 1.368 . S
H4287 C4295 0.950 . S
H4288 C4293 0.950 . S
H4289 C4294 0.949 . S
H4290 C4296 0.950 . S
H4291 C4297 0.950 . S
H4292 C4298 0.949 . S
C4293 H4288 0.950 . S
C4293 C4295 1.327 . S
C4293 C4299 1.429 . S
C4294 C4286 1.574 . S
C4294 H4289 0.949 . S
C4294 C4300 1.368 . S
C4295 C4279 1.349 . S
C4295 H4287 0.950 . S
C4295 C4293 1.327 . S
C4296 C4284 1.349 . S
C4296 H4290 0.950 . S
C4296 C4297 1.327 . S
C4297 H4291 0.950 . S
C4297 C4296 1.327 . S
C4297 C4301 1.429 . S
C4298 C4281 1.574 . S
C4298 H4292 0.949 . S
C4298 C4302 1.368 . S
C4299 C4280 1.429 . S
C4299 C4293 1.429 . S
C4299 C4300 1.523 . S
C4300 C4281 1.368 . S
C4300 C4294 1.368 . S
C4300 C4299 1.523 . S
C4301 C4285 1.429 . S
C4301 C4297 1.429 . S
C4301 C4302 1.523 . S
C4302 C4286 1.368 . S
C4302 C4298 1.368 . S
C4302 C4301 1.523 . S
H4303 C4278 0.950 . S
H4304 C4280 0.950 . S
H4305 C4281 0.949 . S
H4306 C4283 0.950 . S
H4307 C4285 0.950 . S
C4308 C4309 1.349 . S
C4308 C4310 1.327 . S
C4308 H4333 0.950 . S
C4309 C4308 1.349 . S
C4309 C4325 1.349 . S
C4310 C4308 1.327 . S
C4310 C4329 1.429 . S
C4310 H4334 0.950 . S
C4311 C4328 1.574 . S
C4311 C4330 1.368 . S
C4311 H4335 0.949 . S
H4312 C4316 0.949 . S
C4313 C4314 1.349 . S
C4313 C4315 1.327 . S
C4313 H4336 0.950 . S
C4314 C4313 1.349 . S
C4314 C4326 1.349 . S
C4315 C4313 1.327 . S
C4315 C4331 1.429 . S
C4315 H4337 0.950 . S
C4316 H4312 0.949 . S
C4316 C4324 1.574 . S
C4316 C4332 1.368 . S
H4317 C4325 0.950 . S
H4318 C4323 0.950 . S
H4319 C4324 0.949 . S
H4320 C4326 0.950 . S
H4321 C4327 0.950 . S
H4322 C4328 0.949 . S
C4323 H4318 0.950 . S
C4323 C4325 1.327 . S
C4323 C4329 1.429 . S
C4324 C4316 1.574 . S
C4324 H4319 0.949 . S
C4324 C4330 1.368 . S
C4325 C4309 1.349 . S
C4325 H4317 0.950 . S
C4325 C4323 1.327 . S
C4326 C4314 1.349 . S
C4326 H4320 0.950 . S
C4326 C4327 1.327 . S
C4327 H4321 0.950 . S
C4327 C4326 1.327 . S
C4327 C4331 1.429 . S
C4328 C4311 1.574 . S
C4328 H4322 0.949 . S
C4328 C4332 1.368 . S
C4329 C4310 1.429 . S
C4329 C4323 1.429 . S
C4329 C4330 1.523 . S
C4330 C4311 1.368 . S
C4330 C4324 1.368 . S
C4330 C4329 1.523 . S
C4331 C4315 1.429 . S
C4331 C4327 1.429 . S
C4331 C4332 1.523 . S
C4332 C4316 1.368 . S
C4332 C4328 1.368 . S
C4332 C4331 1.523 . S
H4333 C4308 0.950 . S
H4334 C4310 0.950 . S
H4335 C4311 0.949 . S
H4336 C4313 0.950 . S
H4337 C4315 0.950 . S
C4338 C4339 1.349 . S
C4338 C4340 1.327 . S
C4338 H4363 0.950 . S
C4339 C4338 1.349 . S
C4339 C4355 1.349 . S
C4340 C4338 1.327 . S
C4340 C4359 1.429 . S
C4340 H4364 0.950 . S
C4341 C4358 1.574 . S
C4341 C4360 1.368 . S
C4341 H4365 0.949 . S
H4342 C4346 0.949 . S
C4343 C4344 1.349 . S
C4343 C4345 1.327 . S
C4343 H4366 0.950 . S
C4344 C4343 1.349 . S
C4344 C4356 1.349 . S
C4345 C4343 1.327 . S
C4345 C4361 1.429 . S
C4345 H4367 0.950 . S
C4346 H4342 0.949 . S
C4346 C4354 1.574 . S
C4346 C4362 1.368 . S
H4347 C4355 0.950 . S
H4348 C4353 0.950 . S
H4349 C4354 0.949 . S
H4350 C4356 0.950 . S
H4351 C4357 0.950 . S
H4352 C4358 0.949 . S
C4353 H4348 0.950 . S
C4353 C4355 1.327 . S
C4353 C4359 1.429 . S
C4354 C4346 1.574 . S
C4354 H4349 0.949 . S
C4354 C4360 1.368 . S
C4355 C4339 1.349 . S
C4355 H4347 0.950 . S
C4355 C4353 1.327 . S
C4356 C4344 1.349 . S
C4356 H4350 0.950 . S
C4356 C4357 1.327 . S
C4357 H4351 0.950 . S
C4357 C4356 1.327 . S
C4357 C4361 1.429 . S
C4358 C4341 1.574 . S
C4358 H4352 0.949 . S
C4358 C4362 1.368 . S
C4359 C4340 1.429 . S
C4359 C4353 1.429 . S
C4359 C4360 1.523 . S
C4360 C4341 1.368 . S
C4360 C4354 1.368 . S
C4360 C4359 1.523 . S
C4361 C4345 1.429 . S
C4361 C4357 1.429 . S
C4361 C4362 1.523 . S
C4362 C4346 1.368 . S
C4362 C4358 1.368 . S
C4362 C4361 1.523 . S
H4363 C4338 0.950 . S
H4364 C4340 0.950 . S
H4365 C4341 0.949 . S
H4366 C4343 0.950 . S
H4367 C4345 0.950 . S
C4368 C4369 1.349 . S
C4368 C4370 1.327 . S
C4368 H4393 0.950 . S
C4369 C4368 1.349 . S
C4369 C4385 1.349 . S
C4370 C4368 1.327 . S
C4370 C4389 1.429 . S
C4370 H4394 0.950 . S
C4371 C4388 1.574 . S
C4371 C4390 1.368 . S
C4371 H4395 0.949 . S
H4372 C4376 0.949 . S
C4373 C4374 1.349 . S
C4373 C4375 1.327 . S
C4373 H4396 0.950 . S
C4374 C4373 1.349 . S
C4374 C4386 1.349 . S
C4375 C4373 1.327 . S
C4375 C4391 1.429 . S
C4375 H4397 0.950 . S
C4376 H4372 0.949 . S
C4376 C4384 1.574 . S
C4376 C4392 1.368 . S
H4377 C4385 0.950 . S
H4378 C4383 0.950 . S
H4379 C4384 0.949 . S
H4380 C4386 0.950 . S
H4381 C4387 0.949 1_455 S
H4382 C4388 0.949 1_655 S
C4383 H4378 0.950 . S
C4383 C4385 1.327 . S
C4383 C4389 1.429 . S
C4384 C4376 1.574 . S
C4384 H4379 0.949 . S
C4384 C4390 1.368 . S
C4385 C4369 1.349 . S
C4385 H4377 0.950 . S
C4385 C4383 1.327 . S
C4386 C4374 1.349 . S
C4386 H4380 0.950 . S
C4386 C4387 1.328 . S
C4387 H4381 0.949 1_655 S
C4387 C4386 1.328 . S
C4387 C4391 1.429 . S
C4388 C4371 1.574 . S
C4388 H4382 0.949 1_455 S
C4388 C4392 1.368 . S
C4389 C4370 1.429 . S
C4389 C4383 1.429 . S
C4389 C4390 1.523 . S
C4390 C4371 1.368 . S
C4390 C4384 1.368 . S
C4390 C4389 1.523 . S
C4391 C4375 1.429 . S
C4391 C4387 1.429 . S
C4391 C4392 1.523 1_655 S
C4392 C4376 1.368 . S
C4392 C4388 1.368 . S
C4392 C4391 1.523 1_455 S
H4393 C4368 0.950 . S
H4394 C4370 0.950 . S
H4395 C4371 0.949 . S
H4396 C4373 0.950 . S
H4397 C4375 0.950 . S
C4398 C4399 1.349 . S
C4398 C4400 1.327 . S
C4398 H4423 0.950 . S
C4399 C4398 1.349 . S
C4399 C4415 1.349 . S
C4400 C4398 1.327 . S
C4400 C4419 1.429 . S
C4400 H4424 0.950 . S
C4401 C4418 1.574 . S
C4401 C4420 1.368 . S
C4401 H4425 0.949 . S
H4402 C4406 0.949 . S
C4403 C4404 1.349 . S
C4403 C4405 1.327 . S
C4403 H4426 0.950 . S
C4404 C4403 1.349 . S
C4404 C4416 1.349 . S
C4405 C4403 1.327 . S
C4405 C4421 1.429 . S
C4405 H4427 0.950 . S
C4406 H4402 0.949 . S
C4406 C4414 1.574 . S
C4406 C4422 1.368 . S
H4407 C4415 0.950 . S
H4408 C4413 0.950 . S
H4409 C4414 0.949 . S
H4410 C4416 0.950 . S
H4411 C4417 0.950 . S
H4412 C4418 0.949 . S
C4413 H4408 0.950 . S
C4413 C4415 1.327 . S
C4413 C4419 1.429 . S
C4414 C4406 1.574 . S
C4414 H4409 0.949 . S
C4414 C4420 1.368 . S
C4415 C4399 1.349 . S
C4415 H4407 0.950 . S
C4415 C4413 1.327 . S
C4416 C4404 1.349 . S
C4416 H4410 0.950 . S
C4416 C4417 1.327 . S
C4417 H4411 0.950 . S
C4417 C4416 1.327 . S
C4417 C4421 1.429 . S
C4418 C4401 1.574 . S
C4418 H4412 0.949 . S
C4418 C4422 1.368 . S
C4419 C4400 1.429 . S
C4419 C4413 1.429 . S
C4419 C4420 1.523 . S
C4420 C4401 1.368 . S
C4420 C4414 1.368 . S
C4420 C4419 1.523 . S
C4421 C4405 1.429 . S
C4421 C4417 1.429 . S
C4421 C4422 1.523 . S
C4422 C4406 1.368 . S
C4422 C4418 1.368 . S
C4422 C4421 1.523 . S
H4423 C4398 0.950 . S
H4424 C4400 0.950 . S
H4425 C4401 0.949 . S
H4426 C4403 0.950 . S
H4427 C4405 0.950 . S
C4428 C4429 1.349 . S
C4428 C4430 1.327 . S
C4428 H4453 0.950 . S
C4429 C4428 1.349 . S
C4429 C4445 1.349 . S
C4430 C4428 1.327 . S
C4430 C4449 1.429 . S
C4430 H4454 0.950 . S
C4431 C4448 1.574 . S
C4431 C4450 1.368 . S
C4431 H4455 0.949 . S
H4432 C4436 0.949 . S
C4433 C4434 1.349 . S
C4433 C4435 1.327 . S
C4433 H4456 0.950 . S
C4434 C4433 1.349 . S
C4434 C4446 1.349 . S
C4435 C4433 1.327 . S
C4435 C4451 1.429 . S
C4435 H4457 0.950 . S
C4436 H4432 0.949 . S
C4436 C4444 1.574 . S
C4436 C4452 1.368 . S
H4437 C4445 0.950 . S
H4438 C4443 0.950 . S
H4439 C4444 0.949 . S
H4440 C4446 0.950 . S
H4441 C4447 0.950 . S
H4442 C4448 0.949 . S
C4443 H4438 0.950 . S
C4443 C4445 1.327 . S
C4443 C4449 1.429 . S
C4444 C4436 1.574 . S
C4444 H4439 0.949 . S
C4444 C4450 1.368 . S
C4445 C4429 1.349 . S
C4445 H4437 0.950 . S
C4445 C4443 1.327 . S
C4446 C4434 1.349 . S
C4446 H4440 0.950 . S
C4446 C4447 1.327 . S
C4447 H4441 0.950 . S
C4447 C4446 1.327 . S
C4447 C4451 1.429 . S
C4448 C4431 1.574 . S
C4448 H4442 0.949 . S
C4448 C4452 1.368 . S
C4449 C4430 1.429 . S
C4449 C4443 1.429 . S
C4449 C4450 1.523 . S
C4450 C4431 1.368 . S
C4450 C4444 1.368 . S
C4450 C4449 1.523 . S
C4451 C4435 1.429 . S
C4451 C4447 1.429 . S
C4451 C4452 1.523 . S
C4452 C4436 1.368 . S
C4452 C4448 1.368 . S
C4452 C4451 1.523 . S
H4453 C4428 0.950 . S
H4454 C4430 0.950 . S
H4455 C4431 0.949 . S
H4456 C4433 0.950 . S
H4457 C4435 0.950 . S
C4458 C4459 1.349 . S
C4458 C4460 1.327 . S
C4458 H4483 0.950 . S
C4459 C4458 1.349 . S
C4459 C4475 1.349 . S
C4460 C4458 1.327 . S
C4460 C4479 1.429 . S
C4460 H4484 0.950 . S
C4461 C4478 1.574 . S
C4461 C4480 1.368 . S
C4461 H4485 0.949 . S
H4462 C4466 0.949 . S
C4463 C4464 1.349 . S
C4463 C4465 1.327 . S
C4463 H4486 0.950 . S
C4464 C4463 1.349 . S
C4464 C4476 1.349 . S
C4465 C4463 1.327 . S
C4465 C4481 1.429 . S
C4465 H4487 0.950 . S
C4466 H4462 0.949 . S
C4466 C4474 1.574 . S
C4466 C4482 1.368 . S
H4467 C4475 0.950 . S
H4468 C4473 0.950 . S
H4469 C4474 0.949 . S
H4470 C4476 0.950 . S
H4471 C4477 0.950 . S
H4472 C4478 0.949 . S
C4473 H4468 0.950 . S
C4473 C4475 1.327 . S
C4473 C4479 1.429 . S
C4474 C4466 1.574 . S
C4474 H4469 0.949 . S
C4474 C4480 1.368 . S
C4475 C4459 1.349 . S
C4475 H4467 0.950 . S
C4475 C4473 1.327 . S
C4476 C4464 1.349 . S
C4476 H4470 0.950 . S
C4476 C4477 1.327 . S
C4477 H4471 0.950 . S
C4477 C4476 1.327 . S
C4477 C4481 1.429 . S
C4478 C4461 1.574 . S
C4478 H4472 0.949 . S
C4478 C4482 1.368 . S
C4479 C4460 1.429 . S
C4479 C4473 1.429 . S
C4479 C4480 1.523 . S
C4480 C4461 1.368 . S
C4480 C4474 1.368 . S
C4480 C4479 1.523 . S
C4481 C4465 1.429 . S
C4481 C4477 1.429 . S
C4481 C4482 1.523 . S
C4482 C4466 1.368 . S
C4482 C4478 1.368 . S
C4482 C4481 1.523 . S
H4483 C4458 0.950 . S
H4484 C4460 0.950 . S
H4485 C4461 0.949 . S
H4486 C4463 0.950 . S
H4487 C4465 0.950 . S
C4488 C4489 1.349 . S
C4488 C4490 1.327 . S
C4488 H4513 0.950 . S
C4489 C4488 1.349 . S
C4489 C4505 1.349 . S
C4490 C4488 1.327 . S
C4490 C4509 1.429 . S
C4490 H4514 0.950 . S
C4491 C4508 1.574 . S
C4491 C4510 1.368 . S
C4491 H4515 0.949 . S
H4492 C4496 0.949 . S
C4493 C4494 1.349 . S
C4493 C4495 1.327 . S
C4493 H4516 0.950 . S
C4494 C4493 1.349 . S
C4494 C4506 1.349 . S
C4495 C4493 1.327 . S
C4495 C4511 1.429 . S
C4495 H4517 0.950 . S
C4496 H4492 0.949 . S
C4496 C4504 1.574 . S
C4496 C4512 1.368 . S
H4497 C4505 0.950 . S
H4498 C4503 0.950 . S
H4499 C4504 0.949 . S
H4500 C4506 0.950 . S
H4501 C4507 0.952 1_455 S
H4502 C4508 0.949 1_655 S
C4503 H4498 0.950 . S
C4503 C4505 1.327 . S
C4503 C4509 1.429 . S
C4504 C4496 1.574 . S
C4504 H4499 0.949 . S
C4504 C4510 1.368 . S
C4505 C4489 1.349 . S
C4505 H4497 0.950 . S
C4505 C4503 1.327 . S
C4506 C4494 1.349 . S
C4506 H4500 0.950 . S
C4506 C4507 1.326 . S
C4507 H4501 0.952 1_655 S
C4507 C4506 1.326 . S
C4507 C4511 1.428 . S
C4508 C4491 1.574 . S
C4508 H4502 0.949 1_455 S
C4508 C4512 1.368 . S
C4509 C4490 1.429 . S
C4509 C4503 1.429 . S
C4509 C4510 1.523 . S
C4510 C4491 1.368 . S
C4510 C4504 1.368 . S
C4510 C4509 1.523 . S
C4511 C4495 1.429 . S
C4511 C4507 1.428 . S
C4511 C4512 1.523 1_655 S
C4512 C4496 1.368 . S
C4512 C4508 1.368 . S
C4512 C4511 1.523 1_455 S
H4513 C4488 0.950 . S
H4514 C4490 0.950 . S
H4515 C4491 0.949 . S
H4516 C4493 0.950 . S
H4517 C4495 0.950 . S
C4518 C4519 1.349 . S
C4518 C4520 1.327 . S
C4518 H4543 0.950 . S
C4519 C4518 1.349 . S
C4519 C4535 1.349 . S
C4520 C4518 1.327 . S
C4520 C4539 1.429 . S
C4520 H4544 0.950 . S
C4521 C4538 1.574 1_556 S
C4521 C4540 1.368 . S
C4521 H4545 0.949 . S
H4522 C4526 0.949 . S
C4523 C4524 1.349 . S
C4523 C4525 1.327 . S
C4523 H4546 0.950 . S
C4524 C4523 1.349 . S
C4524 C4536 1.349 . S
C4525 C4523 1.327 . S
C4525 C4541 1.429 . S
C4525 H4547 0.950 . S
C4526 H4522 0.949 . S
C4526 C4534 1.574 . S
C4526 C4542 1.368 . S
H4527 C4535 0.950 . S
H4528 C4533 0.950 . S
H4529 C4534 0.949 . S
H4530 C4536 0.950 . S
H4531 C4537 0.950 . S
H4532 C4538 0.949 . S
C4533 H4528 0.950 . S
C4533 C4535 1.327 . S
C4533 C4539 1.429 . S
C4534 C4526 1.574 . S
C4534 H4529 0.949 . S
C4534 C4540 1.368 1_554 S
C4535 C4519 1.349 . S
C4535 H4527 0.950 . S
C4535 C4533 1.327 . S
C4536 C4524 1.349 . S
C4536 H4530 0.950 . S
C4536 C4537 1.327 . S
C4537 H4531 0.950 . S
C4537 C4536 1.327 . S
C4537 C4541 1.429 . S
C4538 C4521 1.574 1_554 S
C4538 H4532 0.949 . S
C4538 C4542 1.368 . S
C4539 C4520 1.429 . S
C4539 C4533 1.429 . S
C4539 C4540 1.523 . S
C4540 C4521 1.368 . S
C4540 C4534 1.368 1_556 S
C4540 C4539 1.523 . S
C4541 C4525 1.429 . S
C4541 C4537 1.429 . S
C4541 C4542 1.523 . S
C4542 C4526 1.368 . S
C4542 C4538 1.368 . S
C4542 C4541 1.523 . S
H4543 C4518 0.950 . S
H4544 C4520 0.950 . S
H4545 C4521 0.949 . S
H4546 C4523 0.950 . S
H4547 C4525 0.950 . S
C4548 C4549 1.349 . S
C4548 C4550 1.327 . S
C4548 H4573 0.950 . S
C4549 C4548 1.349 . S
C4549 C4565 1.349 . S
C4550 C4548 1.327 . S
C4550 C4569 1.429 . S
C4550 H4574 0.950 . S
C4551 C4568 1.574 . S
C4551 C4570 1.368 . S
C4551 H4575 0.949 1_556 S
H4552 C4556 0.949 . S
C4553 C4554 1.349 . S
C4553 C4555 1.327 . S
C4553 H4576 0.950 . S
C4554 C4553 1.349 . S
C4554 C4566 1.349 . S
C4555 C4553 1.327 . S
C4555 C4571 1.429 . S
C4555 H4577 0.950 . S
C4556 H4552 0.949 . S
C4556 C4564 1.574 . S
C4556 C4572 1.368 . S
H4557 C4565 0.950 . S
H4558 C4563 0.950 . S
H4559 C4564 0.949 . S
H4560 C4566 0.950 . S
H4561 C4567 0.950 . S
H4562 C4568 0.949 . S
C4563 H4558 0.950 . S
C4563 C4565 1.327 . S
C4563 C4569 1.429 . S
C4564 C4556 1.574 . S
C4564 H4559 0.949 . S
C4564 C4570 1.368 . S
C4565 C4549 1.349 . S
C4565 H4557 0.950 . S
C4565 C4563 1.327 . S
C4566 C4554 1.349 . S
C4566 H4560 0.950 . S
C4566 C4567 1.327 . S
C4567 H4561 0.950 . S
C4567 C4566 1.327 . S
C4567 C4571 1.429 . S
C4568 C4551 1.574 . S
C4568 H4562 0.949 . S
C4568 C4572 1.368 . S
C4569 C4550 1.429 . S
C4569 C4563 1.429 . S
C4569 C4570 1.523 1_554 S
C4570 C4551 1.368 . S
C4570 C4564 1.368 . S
C4570 C4569 1.523 1_556 S
C4571 C4555 1.429 . S
C4571 C4567 1.429 . S
C4571 C4572 1.523 . S
C4572 C4556 1.368 . S
C4572 C4568 1.368 . S
C4572 C4571 1.523 . S
H4573 C4548 0.950 . S
H4574 C4550 0.950 . S
H4575 C4551 0.949 1_554 S
H4576 C4553 0.950 . S
H4577 C4555 0.950 . S
C4578 C4579 1.349 . S
C4578 C4580 1.327 . S
C4578 H4603 0.950 . S
C4579 C4578 1.349 . S
C4579 C4595 1.349 . S
C4580 C4578 1.327 . S
C4580 C4599 1.429 . S
C4580 H4604 0.950 . S
C4581 C4598 1.574 . S
C4581 C4600 1.368 . S
C4581 H4605 0.949 . S
H4582 C4586 0.949 . S
C4583 C4584 1.349 . S
C4583 C4585 1.327 . S
C4583 H4606 0.950 . S
C4584 C4583 1.349 . S
C4584 C4596 1.349 . S
C4585 C4583 1.327 . S
C4585 C4601 1.429 . S
C4585 H4607 0.950 . S
C4586 H4582 0.949 . S
C4586 C4594 1.574 . S
C4586 C4602 1.368 . S
H4587 C4595 0.950 . S
H4588 C4593 0.950 . S
H4589 C4594 0.949 . S
H4590 C4596 0.950 . S
H4591 C4597 0.950 . S
H4592 C4598 0.949 . S
C4593 H4588 0.950 . S
C4593 C4595 1.327 . S
C4593 C4599 1.429 . S
C4594 C4586 1.574 . S
C4594 H4589 0.949 . S
C4594 C4600 1.368 . S
C4595 C4579 1.349 . S
C4595 H4587 0.950 . S
C4595 C4593 1.327 . S
C4596 C4584 1.349 . S
C4596 H4590 0.950 . S
C4596 C4597 1.327 . S
C4597 H4591 0.950 . S
C4597 C4596 1.327 . S
C4597 C4601 1.429 . S
C4598 C4581 1.574 . S
C4598 H4592 0.949 . S
C4598 C4602 1.368 . S
C4599 C4580 1.429 . S
C4599 C4593 1.429 . S
C4599 C4600 1.523 . S
C4600 C4581 1.368 . S
C4600 C4594 1.368 . S
C4600 C4599 1.523 . S
C4601 C4585 1.429 . S
C4601 C4597 1.429 . S
C4601 C4602 1.523 . S
C4602 C4586 1.368 . S
C4602 C4598 1.368 . S
C4602 C4601 1.523 . S
H4603 C4578 0.950 . S
H4604 C4580 0.950 . S
H4605 C4581 0.949 . S
H4606 C4583 0.950 . S
H4607 C4585 0.950 . S
C4608 C4609 1.349 . S
C4608 C4610 1.327 . S
C4608 H4633 0.950 . S
C4609 C4608 1.349 . S
C4609 C4625 1.349 . S
C4610 C4608 1.327 . S
C4610 C4629 1.429 . S
C4610 H4634 0.950 . S
C4611 C4628 1.574 . S
C4611 C4630 1.368 . S
C4611 H4635 0.949 . S
H4612 C4616 0.949 . S
C4613 C4614 1.349 . S
C4613 C4615 1.327 . S
C4613 H4636 0.950 . S
C4614 C4613 1.349 . S
C4614 C4626 1.349 . S
C4615 C4613 1.327 . S
C4615 C4631 1.429 . S
C4615 H4637 0.950 . S
C4616 H4612 0.949 . S
C4616 C4624 1.574 . S
C4616 C4632 1.368 . S
H4617 C4625 0.950 . S
H4618 C4623 0.950 . S
H4619 C4624 0.949 . S
H4620 C4626 0.950 . S
H4621 C4627 0.950 . S
H4622 C4628 0.949 . S
C4623 H4618 0.950 . S
C4623 C4625 1.327 . S
C4623 C4629 1.429 . S
C4624 C4616 1.574 . S
C4624 H4619 0.949 . S
C4624 C4630 1.368 . S
C4625 C4609 1.349 . S
C4625 H4617 0.950 . S
C4625 C4623 1.327 . S
C4626 C4614 1.349 . S
C4626 H4620 0.950 . S
C4626 C4627 1.327 . S
C4627 H4621 0.950 . S
C4627 C4626 1.327 . S
C4627 C4631 1.429 . S
C4628 C4611 1.574 . S
C4628 H4622 0.949 . S
C4628 C4632 1.368 . S
C4629 C4610 1.429 . S
C4629 C4623 1.429 . S
C4629 C4630 1.523 . S
C4630 C4611 1.368 . S
C4630 C4624 1.368 . S
C4630 C4629 1.523 . S
C4631 C4615 1.429 . S
C4631 C4627 1.429 . S
C4631 C4632 1.523 . S
C4632 C4616 1.368 . S
C4632 C4628 1.368 . S
C4632 C4631 1.523 . S
H4633 C4608 0.950 . S
H4634 C4610 0.950 . S
H4635 C4611 0.949 . S
H4636 C4613 0.950 . S
H4637 C4615 0.950 . S
C4638 C4639 1.349 . S
C4638 C4640 1.327 . S
C4638 H4663 0.950 . S
C4639 C4638 1.349 . S
C4639 C4655 1.349 . S
C4640 C4638 1.327 . S
C4640 C4659 1.429 . S
C4640 H4664 0.950 . S
C4641 C4658 1.574 . S
C4641 C4660 1.368 . S
C4641 H4665 0.949 . S
H4642 C4646 0.949 . S
C4643 C4644 1.349 . S
C4643 C4645 1.327 . S
C4643 H4666 0.950 . S
C4644 C4643 1.349 . S
C4644 C4656 1.349 . S
C4645 C4643 1.327 . S
C4645 C4661 1.429 . S
C4645 H4667 0.950 . S
C4646 H4642 0.949 . S
C4646 C4654 1.574 . S
C4646 C4662 1.368 . S
H4647 C4655 0.950 . S
H4648 C4653 0.950 . S
H4649 C4654 0.949 . S
H4650 C4656 0.950 . S
H4651 C4657 0.950 . S
H4652 C4658 0.949 . S
C4653 H4648 0.950 . S
C4653 C4655 1.327 . S
C4653 C4659 1.429 . S
C4654 C4646 1.574 . S
C4654 H4649 0.949 . S
C4654 C4660 1.368 . S
C4655 C4639 1.349 . S
C4655 H4647 0.950 . S
C4655 C4653 1.327 . S
C4656 C4644 1.349 . S
C4656 H4650 0.950 . S
C4656 C4657 1.327 . S
C4657 H4651 0.950 . S
C4657 C4656 1.327 . S
C4657 C4661 1.429 . S
C4658 C4641 1.574 . S
C4658 H4652 0.949 . S
C4658 C4662 1.368 . S
C4659 C4640 1.429 . S
C4659 C4653 1.429 . S
C4659 C4660 1.523 . S
C4660 C4641 1.368 . S
C4660 C4654 1.368 . S
C4660 C4659 1.523 . S
C4661 C4645 1.429 . S
C4661 C4657 1.429 . S
C4661 C4662 1.523 . S
C4662 C4646 1.368 . S
C4662 C4658 1.368 . S
C4662 C4661 1.523 . S
H4663 C4638 0.950 . S
H4664 C4640 0.950 . S
H4665 C4641 0.949 . S
H4666 C4643 0.950 . S
H4667 C4645 0.950 . S
C4668 C4669 1.349 . S
C4668 C4670 1.327 . S
C4668 H4693 0.950 . S
C4669 C4668 1.349 . S
C4669 C4685 1.349 . S
C4670 C4668 1.327 . S
C4670 C4689 1.429 . S
C4670 H4694 0.950 . S
C4671 C4688 1.574 1_655 S
C4671 C4690 1.368 . S
C4671 H4695 0.949 1_556 S
H4672 C4676 0.949 . S
C4673 C4674 1.349 . S
C4673 C4675 1.327 . S
C4673 H4696 0.950 . S
C4674 C4673 1.349 . S
C4674 C4686 1.349 . S
C4675 C4673 1.327 . S
C4675 C4691 1.429 . S
C4675 H4697 0.950 . S
C4676 H4672 0.949 . S
C4676 C4684 1.574 . S
C4676 C4692 1.368 . S
H4677 C4685 0.950 . S
H4678 C4683 0.950 . S
H4679 C4684 0.949 . S
H4680 C4686 0.950 . S
H4681 C4687 0.950 1_655 S
H4682 C4688 0.949 . S
C4683 H4678 0.950 . S
C4683 C4685 1.327 . S
C4683 C4689 1.429 . S
C4684 C4676 1.574 . S
C4684 H4679 0.949 . S
C4684 C4690 1.368 . S
C4685 C4669 1.349 . S
C4685 H4677 0.950 . S
C4685 C4683 1.327 . S
C4686 C4674 1.349 . S
C4686 H4680 0.950 . S
C4686 C4687 1.327 . S
C4687 H4681 0.950 1_455 S
C4687 C4686 1.327 . S
C4687 C4691 1.429 . S
C4688 C4671 1.574 1_455 S
C4688 H4682 0.949 . S
C4688 C4692 1.368 1_455 S
C4689 C4670 1.429 . S
C4689 C4683 1.429 . S
C4689 C4690 1.523 1_554 S
C4690 C4671 1.368 . S
C4690 C4684 1.368 . S
C4690 C4689 1.523 1_556 S
C4691 C4675 1.429 . S
C4691 C4687 1.429 . S
C4691 C4692 1.523 1_455 S
C4692 C4676 1.368 . S
C4692 C4688 1.368 1_655 S
C4692 C4691 1.523 1_655 S
H4693 C4668 0.950 . S
H4694 C4670 0.950 . S
H4695 C4671 0.949 1_554 S
H4696 C4673 0.950 . S
H4697 C4675 0.950 . S
C4698 C4699 1.349 . S
C4698 C4700 1.327 . S
C4698 H4723 0.950 . S
C4699 C4698 1.349 . S
C4699 C4715 1.349 . S
C4700 C4698 1.327 . S
C4700 C4719 1.429 . S
C4700 H4724 0.950 . S
C4701 C4718 1.574 . S
C4701 C4720 1.368 1_554 S
C4701 H4725 0.949 . S
H4702 C4706 0.949 . S
C4703 C4704 1.349 . S
C4703 C4705 1.327 . S
C4703 H4726 0.950 . S
C4704 C4703 1.349 . S
C4704 C4716 1.349 . S
C4705 C4703 1.327 . S
C4705 C4721 1.429 . S
C4705 H4727 0.950 . S
C4706 H4702 0.949 . S
C4706 C4714 1.574 1_554 S
C4706 C4722 1.368 . S
H4707 C4715 0.950 . S
H4708 C4713 0.950 . S
H4709 C4714 0.949 . S
H4710 C4716 0.950 . S
H4711 C4717 0.950 . S
H4712 C4718 0.949 . S
C4713 H4708 0.950 . S
C4713 C4715 1.327 . S
C4713 C4719 1.429 . S
C4714 C4706 1.574 1_556 S
C4714 H4709 0.949 . S
C4714 C4720 1.368 . S
C4715 C4699 1.349 . S
C4715 H4707 0.950 . S
C4715 C4713 1.327 . S
C4716 C4704 1.349 . S
C4716 H4710 0.950 . S
C4716 C4717 1.327 . S
C4717 H4711 0.950 . S
C4717 C4716 1.327 . S
C4717 C4721 1.429 . S
C4718 C4701 1.574 . S
C4718 H4712 0.949 . S
C4718 C4722 1.368 . S
C4719 C4700 1.429 . S
C4719 C4713 1.429 . S
C4719 C4720 1.523 . S
C4720 C4701 1.368 1_556 S
C4720 C4714 1.368 . S
C4720 C4719 1.523 . S
C4721 C4705 1.429 . S
C4721 C4717 1.429 . S
C4721 C4722 1.523 . S
C4722 C4706 1.368 . S
C4722 C4718 1.368 . S
C4722 C4721 1.523 . S
H4723 C4698 0.950 . S
H4724 C4700 0.950 . S
H4725 C4701 0.949 . S
H4726 C4703 0.950 . S
H4727 C4705 0.950 . S
C4728 C4729 1.349 . S
C4728 C4730 1.327 . S
C4728 H4753 0.950 . S
C4729 C4728 1.349 . S
C4729 C4745 1.349 . S
C4730 C4728 1.327 . S
C4730 C4749 1.429 . S
C4730 H4754 0.950 . S
C4731 C4748 1.574 . S
C4731 C4750 1.368 . S
C4731 H4755 0.949 . S
H4732 C4736 0.949 . S
C4733 C4734 1.349 . S
C4733 C4735 1.327 . S
C4733 H4756 0.950 . S
C4734 C4733 1.349 . S
C4734 C4746 1.349 . S
C4735 C4733 1.327 . S
C4735 C4751 1.429 . S
C4735 H4757 0.950 . S
C4736 H4732 0.949 . S
C4736 C4744 1.574 . S
C4736 C4752 1.368 . S
H4737 C4745 0.950 . S
H4738 C4743 0.950 . S
H4739 C4744 0.949 . S
H4740 C4746 0.950 . S
H4741 C4747 0.950 . S
H4742 C4748 0.949 . S
C4743 H4738 0.950 . S
C4743 C4745 1.327 . S
C4743 C4749 1.429 . S
C4744 C4736 1.574 . S
C4744 H4739 0.949 . S
C4744 C4750 1.368 . S
C4745 C4729 1.349 . S
C4745 H4737 0.950 . S
C4745 C4743 1.327 . S
C4746 C4734 1.349 . S
C4746 H4740 0.950 . S
C4746 C4747 1.327 . S
C4747 H4741 0.950 . S
C4747 C4746 1.327 . S
C4747 C4751 1.429 . S
C4748 C4731 1.574 . S
C4748 H4742 0.949 . S
C4748 C4752 1.368 . S
C4749 C4730 1.429 . S
C4749 C4743 1.429 . S
C4749 C4750 1.523 . S
C4750 C4731 1.368 . S
C4750 C4744 1.368 . S
C4750 C4749 1.523 . S
C4751 C4735 1.429 . S
C4751 C4747 1.429 . S
C4751 C4752 1.523 . S
C4752 C4736 1.368 . S
C4752 C4748 1.368 . S
C4752 C4751 1.523 . S
H4753 C4728 0.950 . S
H4754 C4730 0.950 . S
H4755 C4731 0.949 . S
H4756 C4733 0.950 . S
H4757 C4735 0.950 . S
C4758 C4759 1.349 . S
C4758 C4760 1.327 . S
C4758 H4783 0.950 . S
C4759 C4758 1.349 . S
C4759 C4775 1.349 . S
C4760 C4758 1.327 . S
C4760 C4779 1.429 . S
C4760 H4784 0.950 . S
C4761 C4778 1.574 . S
C4761 C4780 1.368 . S
C4761 H4785 0.949 . S
H4762 C4766 0.949 . S
C4763 C4764 1.349 . S
C4763 C4765 1.327 . S
C4763 H4786 0.950 . S
C4764 C4763 1.349 . S
C4764 C4776 1.349 . S
C4765 C4763 1.327 . S
C4765 C4781 1.429 . S
C4765 H4787 0.950 . S
C4766 H4762 0.949 . S
C4766 C4774 1.574 . S
C4766 C4782 1.368 . S
H4767 C4775 0.950 . S
H4768 C4773 0.950 . S
H4769 C4774 0.949 . S
H4770 C4776 0.950 . S
H4771 C4777 0.950 . S
H4772 C4778 0.949 . S
C4773 H4768 0.950 . S
C4773 C4775 1.327 . S
C4773 C4779 1.429 . S
C4774 C4766 1.574 . S
C4774 H4769 0.949 . S
C4774 C4780 1.368 . S
C4775 C4759 1.349 . S
C4775 H4767 0.950 . S
C4775 C4773 1.327 . S
C4776 C4764 1.349 . S
C4776 H4770 0.950 . S
C4776 C4777 1.327 . S
C4777 H4771 0.950 . S
C4777 C4776 1.327 . S
C4777 C4781 1.429 . S
C4778 C4761 1.574 . S
C4778 H4772 0.949 . S
C4778 C4782 1.368 . S
C4779 C4760 1.429 . S
C4779 C4773 1.429 . S
C4779 C4780 1.523 . S
C4780 C4761 1.368 . S
C4780 C4774 1.368 . S
C4780 C4779 1.523 . S
C4781 C4765 1.429 . S
C4781 C4777 1.429 . S
C4781 C4782 1.523 . S
C4782 C4766 1.368 . S
C4782 C4778 1.368 . S
C4782 C4781 1.523 . S
H4783 C4758 0.950 . S
H4784 C4760 0.950 . S
H4785 C4761 0.949 . S
H4786 C4763 0.950 . S
H4787 C4765 0.950 . S
C4788 C4789 1.349 . S
C4788 C4790 1.327 . S
C4788 H4813 0.950 . S
C4789 C4788 1.349 . S
C4789 C4805 1.349 . S
C4790 C4788 1.327 . S
C4790 C4809 1.429 . S
C4790 H4814 0.950 1_455 S
C4791 C4808 1.574 1_455 S
C4791 C4810 1.368 1_455 S
C4791 H4815 0.949 . S
H4792 C4796 0.949 . S
C4793 C4794 1.349 . S
C4793 C4795 1.327 . S
C4793 H4816 0.950 . S
C4794 C4793 1.349 . S
C4794 C4806 1.349 . S
C4795 C4793 1.327 . S
C4795 C4811 1.429 . S
C4795 H4817 0.950 . S
C4796 H4792 0.949 . S
C4796 C4804 1.574 . S
C4796 C4812 1.368 . S
H4797 C4805 0.950 . S
H4798 C4803 0.950 . S
H4799 C4804 0.949 . S
H4800 C4806 0.950 . S
H4801 C4807 0.950 . S
H4802 C4808 0.949 . S
C4803 H4798 0.950 . S
C4803 C4805 1.327 . S
C4803 C4809 1.429 . S
C4804 C4796 1.574 . S
C4804 H4799 0.949 . S
C4804 C4810 1.368 . S
C4805 C4789 1.349 . S
C4805 H4797 0.950 . S
C4805 C4803 1.327 . S
C4806 C4794 1.349 . S
C4806 H4800 0.950 . S
C4806 C4807 1.327 . S
C4807 H4801 0.950 . S
C4807 C4806 1.327 . S
C4807 C4811 1.429 . S
C4808 C4791 1.574 1_655 S
C4808 H4802 0.949 . S
C4808 C4812 1.368 . S
C4809 C4790 1.429 . S
C4809 C4803 1.429 . S
C4809 C4810 1.523 1_455 S
C4810 C4791 1.368 1_655 S
C4810 C4804 1.368 . S
C4810 C4809 1.523 1_655 S
C4811 C4795 1.429 . S
C4811 C4807 1.429 . S
C4811 C4812 1.523 . S
C4812 C4796 1.368 . S
C4812 C4808 1.368 . S
C4812 C4811 1.523 . S
H4813 C4788 0.950 . S
H4814 C4790 0.950 1_655 S
H4815 C4791 0.949 . S
H4816 C4793 0.950 . S
H4817 C4795 0.950 . S
C4818 C4819 1.349 . S
C4818 C4820 1.327 . S
C4818 H4843 0.950 . S
C4819 C4818 1.349 . S
C4819 C4835 1.349 . S
C4820 C4818 1.327 . S
C4820 C4839 1.429 . S
C4820 H4844 0.950 . S
C4821 C4838 1.574 . S
C4821 C4840 1.368 . S
C4821 H4845 0.949 . S
H4822 C4826 0.949 . S
C4823 C4824 1.349 . S
C4823 C4825 1.327 . S
C4823 H4846 0.950 . S
C4824 C4823 1.349 . S
C4824 C4836 1.349 . S
C4825 C4823 1.327 . S
C4825 C4841 1.429 . S
C4825 H4847 0.950 . S
C4826 H4822 0.949 . S
C4826 C4834 1.574 . S
C4826 C4842 1.368 . S
H4827 C4835 0.950 . S
H4828 C4833 0.950 . S
H4829 C4834 0.949 . S
H4830 C4836 0.950 . S
H4831 C4837 0.950 . S
H4832 C4838 0.949 . S
C4833 H4828 0.950 . S
C4833 C4835 1.327 . S
C4833 C4839 1.429 . S
C4834 C4826 1.574 . S
C4834 H4829 0.949 . S
C4834 C4840 1.368 . S
C4835 C4819 1.349 . S
C4835 H4827 0.950 . S
C4835 C4833 1.327 . S
C4836 C4824 1.349 . S
C4836 H4830 0.950 . S
C4836 C4837 1.327 . S
C4837 H4831 0.950 . S
C4837 C4836 1.327 . S
C4837 C4841 1.429 . S
C4838 C4821 1.574 . S
C4838 H4832 0.949 . S
C4838 C4842 1.368 . S
C4839 C4820 1.429 . S
C4839 C4833 1.429 . S
C4839 C4840 1.523 . S
C4840 C4821 1.368 . S
C4840 C4834 1.368 . S
C4840 C4839 1.523 . S
C4841 C4825 1.429 . S
C4841 C4837 1.429 . S
C4841 C4842 1.523 . S
C4842 C4826 1.368 . S
C4842 C4838 1.368 . S
C4842 C4841 1.523 . S
H4843 C4818 0.950 . S
H4844 C4820 0.950 . S
H4845 C4821 0.949 . S
H4846 C4823 0.950 . S
H4847 C4825 0.950 . S
C4848 C4849 1.349 . S
C4848 C4850 1.327 . S
C4848 H4873 0.950 . S
C4849 C4848 1.349 . S
C4849 C4865 1.349 . S
C4850 C4848 1.327 . S
C4850 C4869 1.429 . S
C4850 H4874 0.950 . S
C4851 C4868 1.574 . S
C4851 C4870 1.368 . S
C4851 H4875 0.949 . S
H4852 C4856 0.949 . S
C4853 C4854 1.349 . S
C4853 C4855 1.327 1_554 S
C4853 H4876 0.950 . S
C4854 C4853 1.349 . S
C4854 C4866 1.349 . S
C4855 C4853 1.327 1_556 S
C4855 C4871 1.429 . S
C4855 H4877 0.950 . S
C4856 H4852 0.949 . S
C4856 C4864 1.574 . S
C4856 C4872 1.368 . S
H4857 C4865 0.950 . S
H4858 C4863 0.950 . S
H4859 C4864 0.949 . S
H4860 C4866 0.950 . S
H4861 C4867 0.950 . S
H4862 C4868 0.949 . S
C4863 H4858 0.950 . S
C4863 C4865 1.327 . S
C4863 C4869 1.429 . S
C4864 C4856 1.574 . S
C4864 H4859 0.949 . S
C4864 C4870 1.368 . S
C4865 C4849 1.349 . S
C4865 H4857 0.950 . S
C4865 C4863 1.327 . S
C4866 C4854 1.349 . S
C4866 H4860 0.950 . S
C4866 C4867 1.327 1_554 S
C4867 H4861 0.950 . S
C4867 C4866 1.327 1_556 S
C4867 C4871 1.429 . S
C4868 C4851 1.574 . S
C4868 H4862 0.949 . S
C4868 C4872 1.368 . S
C4869 C4850 1.429 . S
C4869 C4863 1.429 . S
C4869 C4870 1.523 . S
C4870 C4851 1.368 . S
C4870 C4864 1.368 . S
C4870 C4869 1.523 . S
C4871 C4855 1.429 . S
C4871 C4867 1.429 . S
C4871 C4872 1.523 . S
C4872 C4856 1.368 . S
C4872 C4868 1.368 . S
C4872 C4871 1.523 . S
H4873 C4848 0.950 . S
H4874 C4850 0.950 . S
H4875 C4851 0.949 . S
H4876 C4853 0.950 . S
H4877 C4855 0.950 . S
C4878 C4879 1.349 . S
C4878 C4880 1.327 . S
C4878 H4903 0.950 . S
C4879 C4878 1.349 . S
C4879 C4895 1.349 . S
C4880 C4878 1.327 . S
C4880 C4899 1.429 . S
C4880 H4904 0.950 . S
C4881 C4898 1.574 . S
C4881 C4900 1.368 . S
C4881 H4905 0.949 . S
H4882 C4886 0.949 . S
C4883 C4884 1.349 . S
C4883 C4885 1.327 . S
C4883 H4906 0.950 . S
C4884 C4883 1.349 . S
C4884 C4896 1.349 . S
C4885 C4883 1.327 . S
C4885 C4901 1.429 . S
C4885 H4907 0.950 . S
C4886 H4882 0.949 . S
C4886 C4894 1.574 . S
C4886 C4902 1.368 . S
H4887 C4895 0.950 . S
H4888 C4893 0.950 . S
H4889 C4894 0.949 . S
H4890 C4896 0.950 . S
H4891 C4897 0.950 . S
H4892 C4898 0.949 . S
C4893 H4888 0.950 . S
C4893 C4895 1.327 . S
C4893 C4899 1.429 . S
C4894 C4886 1.574 . S
C4894 H4889 0.949 . S
C4894 C4900 1.368 . S
C4895 C4879 1.349 . S
C4895 H4887 0.950 . S
C4895 C4893 1.327 . S
C4896 C4884 1.349 . S
C4896 H4890 0.950 . S
C4896 C4897 1.327 . S
C4897 H4891 0.950 . S
C4897 C4896 1.327 . S
C4897 C4901 1.429 . S
C4898 C4881 1.574 . S
C4898 H4892 0.949 . S
C4898 C4902 1.368 . S
C4899 C4880 1.429 . S
C4899 C4893 1.429 . S
C4899 C4900 1.523 . S
C4900 C4881 1.368 . S
C4900 C4894 1.368 . S
C4900 C4899 1.523 . S
C4901 C4885 1.429 . S
C4901 C4897 1.429 . S
C4901 C4902 1.523 . S
C4902 C4886 1.368 . S
C4902 C4898 1.368 . S
C4902 C4901 1.523 . S
H4903 C4878 0.950 . S
H4904 C4880 0.950 . S
H4905 C4881 0.949 . S
H4906 C4883 0.950 . S
H4907 C4885 0.950 . S
C4908 C4909 1.349 . S
C4908 C4910 1.327 . S
C4908 H4933 0.950 . S
C4909 C4908 1.349 . S
C4909 C4925 1.349 . S
C4910 C4908 1.327 . S
C4910 C4929 1.429 . S
C4910 H4934 0.950 . S
C4911 C4928 1.574 . S
C4911 C4930 1.368 . S
C4911 H4935 0.949 . S
H4912 C4916 0.949 . S
C4913 C4914 1.349 . S
C4913 C4915 1.327 . S
C4913 H4936 0.950 . S
C4914 C4913 1.349 . S
C4914 C4926 1.349 . S
C4915 C4913 1.327 . S
C4915 C4931 1.429 . S
C4915 H4937 0.950 1_655 S
C4916 H4912 0.949 . S
C4916 C4924 1.574 1_655 S
C4916 C4932 1.368 1_655 S
H4917 C4925 0.950 . S
H4918 C4923 0.950 . S
H4919 C4924 0.949 . S
H4920 C4926 0.950 . S
H4921 C4927 0.950 . S
H4922 C4928 0.949 . S
C4923 H4918 0.950 . S
C4923 C4925 1.327 . S
C4923 C4929 1.429 . S
C4924 C4916 1.574 1_455 S
C4924 H4919 0.949 . S
C4924 C4930 1.368 . S
C4925 C4909 1.349 . S
C4925 H4917 0.950 . S
C4925 C4923 1.327 . S
C4926 C4914 1.349 . S
C4926 H4920 0.950 . S
C4926 C4927 1.327 . S
C4927 H4921 0.950 . S
C4927 C4926 1.327 . S
C4927 C4931 1.429 . S
C4928 C4911 1.574 . S
C4928 H4922 0.949 . S
C4928 C4932 1.368 . S
C4929 C4910 1.429 . S
C4929 C4923 1.429 . S
C4929 C4930 1.523 . S
C4930 C4911 1.368 . S
C4930 C4924 1.368 . S
C4930 C4929 1.523 . S
C4931 C4915 1.429 . S
C4931 C4927 1.429 . S
C4931 C4932 1.523 1_655 S
C4932 C4916 1.368 1_455 S
C4932 C4928 1.368 . S
C4932 C4931 1.523 1_455 S
H4933 C4908 0.950 . S
H4934 C4910 0.950 . S
H4935 C4911 0.949 . S
H4936 C4913 0.950 . S
H4937 C4915 0.950 1_455 S
C4938 C4939 1.349 . S
C4938 C4940 1.327 . S
C4938 H4963 0.950 . S
C4939 C4938 1.349 . S
C4939 C4955 1.349 . S
C4940 C4938 1.327 . S
C4940 C4959 1.429 . S
C4940 H4964 0.950 . S
C4941 C4958 1.574 . S
C4941 C4960 1.368 . S
C4941 H4965 0.949 . S
H4942 C4946 0.949 . S
C4943 C4944 1.349 . S
C4943 C4945 1.327 . S
C4943 H4966 0.950 . S
C4944 C4943 1.349 . S
C4944 C4956 1.349 . S
C4945 C4943 1.327 . S
C4945 C4961 1.429 . S
C4945 H4967 0.950 . S
C4946 H4942 0.949 . S
C4946 C4954 1.574 . S
C4946 C4962 1.368 . S
H4947 C4955 0.950 . S
H4948 C4953 0.950 . S
H4949 C4954 0.949 . S
H4950 C4956 0.950 . S
H4951 C4957 0.950 . S
H4952 C4958 0.949 . S
C4953 H4948 0.950 . S
C4953 C4955 1.327 . S
C4953 C4959 1.429 . S
C4954 C4946 1.574 . S
C4954 H4949 0.949 . S
C4954 C4960 1.368 . S
C4955 C4939 1.349 . S
C4955 H4947 0.950 . S
C4955 C4953 1.327 . S
C4956 C4944 1.349 . S
C4956 H4950 0.950 . S
C4956 C4957 1.327 . S
C4957 H4951 0.950 . S
C4957 C4956 1.327 . S
C4957 C4961 1.429 . S
C4958 C4941 1.574 . S
C4958 H4952 0.949 . S
C4958 C4962 1.368 . S
C4959 C4940 1.429 . S
C4959 C4953 1.429 . S
C4959 C4960 1.523 . S
C4960 C4941 1.368 . S
C4960 C4954 1.368 . S
C4960 C4959 1.523 . S
C4961 C4945 1.429 . S
C4961 C4957 1.429 . S
C4961 C4962 1.523 . S
C4962 C4946 1.368 . S
C4962 C4958 1.368 . S
C4962 C4961 1.523 . S
H4963 C4938 0.950 . S
H4964 C4940 0.950 . S
H4965 C4941 0.949 . S
H4966 C4943 0.950 . S
H4967 C4945 0.950 . S
C4968 C4969 1.349 . S
C4968 C4970 1.327 . S
C4968 H4993 0.950 . S
C4969 C4968 1.349 . S
C4969 C4985 1.349 . S
C4970 C4968 1.327 . S
C4970 C4989 1.429 . S
C4970 H4994 0.950 . S
C4971 C4988 1.574 . S
C4971 C4990 1.368 . S
C4971 H4995 0.949 . S
H4972 C4976 0.949 . S
C4973 C4974 1.349 . S
C4973 C4975 1.327 . S
C4973 H4996 0.950 . S
C4974 C4973 1.349 . S
C4974 C4986 1.349 . S
C4975 C4973 1.327 . S
C4975 C4991 1.429 . S
C4975 H4997 0.950 . S
C4976 H4972 0.949 . S
C4976 C4984 1.574 . S
C4976 C4992 1.368 . S
H4977 C4985 0.950 . S
H4978 C4983 0.950 . S
H4979 C4984 0.949 . S
H4980 C4986 0.950 . S
H4981 C4987 0.950 . S
H4982 C4988 0.949 . S
C4983 H4978 0.950 . S
C4983 C4985 1.327 . S
C4983 C4989 1.429 . S
C4984 C4976 1.574 . S
C4984 H4979 0.949 . S
C4984 C4990 1.368 . S
C4985 C4969 1.349 . S
C4985 H4977 0.950 . S
C4985 C4983 1.327 . S
C4986 C4974 1.349 . S
C4986 H4980 0.950 . S
C4986 C4987 1.327 . S
C4987 H4981 0.950 . S
C4987 C4986 1.327 . S
C4987 C4991 1.429 . S
C4988 C4971 1.574 . S
C4988 H4982 0.949 . S
C4988 C4992 1.368 . S
C4989 C4970 1.429 . S
C4989 C4983 1.429 . S
C4989 C4990 1.523 . S
C4990 C4971 1.368 . S
C4990 C4984 1.368 . S
C4990 C4989 1.523 . S
C4991 C4975 1.429 . S
C4991 C4987 1.429 . S
C4991 C4992 1.523 . S
C4992 C4976 1.368 . S
C4992 C4988 1.368 . S
C4992 C4991 1.523 . S
H4993 C4968 0.950 . S
H4994 C4970 0.950 . S
H4995 C4971 0.949 . S
H4996 C4973 0.950 . S
H4997 C4975 0.950 . S
C4998 C4999 1.349 . S
C4998 C5000 1.327 . S
C4998 H5023 0.950 . S
C4999 C4998 1.349 . S
C4999 C5015 1.349 . S
C5000 C4998 1.327 . S
C5000 C5019 1.429 . S
C5000 H5024 0.950 . S
C5001 C5018 1.574 . S
C5001 C5020 1.368 . S
C5001 H5025 0.949 . S
H5002 C5006 0.949 . S
C5003 C5004 1.349 . S
C5003 C5005 1.327 . S
C5003 H5026 0.950 . S
C5004 C5003 1.349 . S
C5004 C5016 1.349 . S
C5005 C5003 1.327 . S
C5005 C5021 1.429 . S
C5005 H5027 0.950 . S
C5006 H5002 0.949 . S
C5006 C5014 1.574 . S
C5006 C5022 1.368 . S
H5007 C5015 0.950 . S
H5008 C5013 0.950 . S
H5009 C5014 0.949 . S
H5010 C5016 0.950 . S
H5011 C5017 0.950 . S
H5012 C5018 0.949 . S
C5013 H5008 0.950 . S
C5013 C5015 1.327 . S
C5013 C5019 1.429 . S
C5014 C5006 1.574 . S
C5014 H5009 0.949 . S
C5014 C5020 1.368 . S
C5015 C4999 1.349 . S
C5015 H5007 0.950 . S
C5015 C5013 1.327 . S
C5016 C5004 1.349 . S
C5016 H5010 0.950 . S
C5016 C5017 1.327 . S
C5017 H5011 0.950 . S
C5017 C5016 1.327 . S
C5017 C5021 1.429 . S
C5018 C5001 1.574 . S
C5018 H5012 0.949 . S
C5018 C5022 1.368 . S
C5019 C5000 1.429 . S
C5019 C5013 1.429 . S
C5019 C5020 1.523 . S
C5020 C5001 1.368 . S
C5020 C5014 1.368 . S
C5020 C5019 1.523 . S
C5021 C5005 1.429 . S
C5021 C5017 1.429 . S
C5021 C5022 1.523 . S
C5022 C5006 1.368 . S
C5022 C5018 1.368 . S
C5022 C5021 1.523 . S
H5023 C4998 0.950 . S
H5024 C5000 0.950 . S
H5025 C5001 0.949 . S
H5026 C5003 0.950 . S
H5027 C5005 0.950 . S
C5028 C5029 1.349 . S
C5028 C5030 1.327 . S
C5028 H5053 0.950 . S
C5029 C5028 1.349 . S
C5029 C5045 1.349 . S
C5030 C5028 1.327 . S
C5030 C5049 1.429 . S
C5030 H5054 0.950 . S
C5031 C5048 1.574 1_455 S
C5031 C5050 1.368 . S
C5031 H5055 0.949 . S
H5032 C5036 0.949 . S
C5033 C5034 1.349 . S
C5033 C5035 1.327 . S
C5033 H5056 0.950 . S
C5034 C5033 1.349 . S
C5034 C5046 1.349 . S
C5035 C5033 1.327 . S
C5035 C5051 1.429 . S
C5035 H5057 0.950 . S
C5036 H5032 0.949 . S
C5036 C5044 1.574 . S
C5036 C5052 1.368 . S
H5037 C5045 0.950 . S
H5038 C5043 0.950 . S
H5039 C5044 0.949 . S
H5040 C5046 0.950 . S
H5041 C5047 0.950 1_455 S
H5042 C5048 0.949 . S
C5043 H5038 0.950 . S
C5043 C5045 1.327 . S
C5043 C5049 1.429 . S
C5044 C5036 1.574 . S
C5044 H5039 0.949 . S
C5044 C5050 1.368 . S
C5045 C5029 1.349 . S
C5045 H5037 0.950 . S
C5045 C5043 1.327 . S
C5046 C5034 1.349 . S
C5046 H5040 0.950 . S
C5046 C5047 1.327 . S
C5047 H5041 0.950 1_655 S
C5047 C5046 1.327 . S
C5047 C5051 1.429 . S
C5048 C5031 1.574 1_655 S
C5048 H5042 0.949 . S
C5048 C5052 1.368 1_655 S
C5049 C5030 1.429 . S
C5049 C5043 1.429 . S
C5049 C5050 1.523 . S
C5050 C5031 1.368 . S
C5050 C5044 1.368 . S
C5050 C5049 1.523 . S
C5051 C5035 1.429 . S
C5051 C5047 1.429 . S
C5051 C5052 1.523 1_655 S
C5052 C5036 1.368 . S
C5052 C5048 1.368 1_455 S
C5052 C5051 1.523 1_455 S
H5053 C5028 0.950 . S
H5054 C5030 0.950 . S
H5055 C5031 0.949 . S
H5056 C5033 0.950 . S
H5057 C5035 0.950 . S
C5058 C5059 1.349 . S
C5058 C5060 1.327 . S
C5058 H5083 0.950 . S
C5059 C5058 1.349 . S
C5059 C5075 1.349 . S
C5060 C5058 1.327 . S
C5060 C5079 1.429 . S
C5060 H5084 0.950 . S
C5061 C5078 1.574 . S
C5061 C5080 1.368 . S
C5061 H5085 0.949 . S
H5062 C5066 0.949 . S
C5063 C5064 1.349 . S
C5063 C5065 1.327 . S
C5063 H5086 0.950 . S
C5064 C5063 1.349 . S
C5064 C5076 1.349 . S
C5065 C5063 1.327 . S
C5065 C5081 1.429 . S
C5065 H5087 0.950 . S
C5066 H5062 0.949 . S
C5066 C5074 1.574 . S
C5066 C5082 1.368 . S
H5067 C5075 0.950 . S
H5068 C5073 0.950 . S
H5069 C5074 0.949 1_556 S
H5070 C5076 0.950 . S
H5071 C5077 0.950 . S
H5072 C5078 0.949 . S
C5073 H5068 0.950 . S
C5073 C5075 1.327 . S
C5073 C5079 1.429 . S
C5074 C5066 1.574 . S
C5074 H5069 0.949 1_554 S
C5074 C5080 1.368 . S
C5075 C5059 1.349 . S
C5075 H5067 0.950 . S
C5075 C5073 1.327 . S
C5076 C5064 1.349 . S
C5076 H5070 0.950 . S
C5076 C5077 1.327 . S
C5077 H5071 0.950 . S
C5077 C5076 1.327 . S
C5077 C5081 1.429 . S
C5078 C5061 1.574 . S
C5078 H5072 0.949 . S
C5078 C5082 1.368 . S
C5079 C5060 1.429 . S
C5079 C5073 1.429 . S
C5079 C5080 1.523 1_556 S
C5080 C5061 1.368 . S
C5080 C5074 1.368 . S
C5080 C5079 1.523 1_554 S
C5081 C5065 1.429 . S
C5081 C5077 1.429 . S
C5081 C5082 1.523 . S
C5082 C5066 1.368 . S
C5082 C5078 1.368 . S
C5082 C5081 1.523 . S
H5083 C5058 0.950 . S
H5084 C5060 0.950 . S
H5085 C5061 0.949 . S
H5086 C5063 0.950 . S
H5087 C5065 0.950 . S
C5088 C5089 1.349 . S
C5088 C5090 1.327 . S
C5088 H5113 0.950 . S
C5089 C5088 1.349 . S
C5089 C5105 1.349 . S
C5090 C5088 1.327 . S
C5090 C5109 1.429 . S
C5090 H5114 0.950 . S
C5091 C5108 1.574 . S
C5091 C5110 1.368 . S
C5091 H5115 0.949 . S
H5092 C5096 0.949 . S
C5093 C5094 1.349 . S
C5093 C5095 1.327 . S
C5093 H5116 0.950 . S
C5094 C5093 1.349 . S
C5094 C5106 1.349 . S
C5095 C5093 1.327 . S
C5095 C5111 1.429 . S
C5095 H5117 0.950 . S
C5096 H5092 0.949 . S
C5096 C5104 1.574 . S
C5096 C5112 1.368 . S
H5097 C5105 0.950 . S
H5098 C5103 0.950 . S
H5099 C5104 0.949 . S
H5100 C5106 0.950 . S
H5101 C5107 0.950 . S
H5102 C5108 0.949 . S
C5103 H5098 0.950 . S
C5103 C5105 1.327 . S
C5103 C5109 1.429 . S
C5104 C5096 1.574 . S
C5104 H5099 0.949 . S
C5104 C5110 1.368 . S
C5105 C5089 1.349 . S
C5105 H5097 0.950 . S
C5105 C5103 1.327 . S
C5106 C5094 1.349 . S
C5106 H5100 0.950 . S
C5106 C5107 1.327 . S
C5107 H5101 0.950 . S
C5107 C5106 1.327 . S
C5107 C5111 1.429 . S
C5108 C5091 1.574 . S
C5108 H5102 0.949 . S
C5108 C5112 1.368 . S
C5109 C5090 1.429 . S
C5109 C5103 1.429 . S
C5109 C5110 1.523 . S
C5110 C5091 1.368 . S
C5110 C5104 1.368 . S
C5110 C5109 1.523 . S
C5111 C5095 1.429 . S
C5111 C5107 1.429 . S
C5111 C5112 1.523 . S
C5112 C5096 1.368 . S
C5112 C5108 1.368 . S
C5112 C5111 1.523 . S
H5113 C5088 0.950 . S
H5114 C5090 0.950 . S
H5115 C5091 0.949 . S
H5116 C5093 0.950 . S
H5117 C5095 0.950 . S
C5118 C5119 1.349 . S
C5118 C5120 1.327 1_556 S
C5118 H5143 0.950 . S
C5119 C5118 1.349 . S
C5119 C5135 1.349 . S
C5120 C5118 1.327 1_554 S
C5120 C5139 1.429 . S
C5120 H5144 0.950 . S
C5121 C5138 1.574 . S
C5121 C5140 1.368 . S
C5121 H5145 0.949 . S
H5122 C5126 0.949 . S
C5123 C5124 1.349 . S
C5123 C5125 1.327 . S
C5123 H5146 0.950 . S
C5124 C5123 1.349 . S
C5124 C5136 1.349 . S
C5125 C5123 1.327 . S
C5125 C5141 1.429 . S
C5125 H5147 0.950 . S
C5126 H5122 0.949 . S
C5126 C5134 1.574 . S
C5126 C5142 1.368 . S
H5127 C5135 0.950 . S
H5128 C5133 0.950 . S
H5129 C5134 0.949 . S
H5130 C5136 0.950 . S
H5131 C5137 0.950 . S
H5132 C5138 0.949 . S
C5133 H5128 0.950 . S
C5133 C5135 1.327 1_554 S
C5133 C5139 1.429 . S
C5134 C5126 1.574 . S
C5134 H5129 0.949 . S
C5134 C5140 1.368 . S
C5135 C5119 1.349 . S
C5135 H5127 0.950 . S
C5135 C5133 1.327 1_556 S
C5136 C5124 1.349 . S
C5136 H5130 0.950 . S
C5136 C5137 1.327 . S
C5137 H5131 0.950 . S
C5137 C5136 1.327 . S
C5137 C5141 1.429 . S
C5138 C5121 1.574 . S
C5138 H5132 0.949 . S
C5138 C5142 1.368 . S
C5139 C5120 1.429 . S
C5139 C5133 1.429 . S
C5139 C5140 1.523 . S
C5140 C5121 1.368 . S
C5140 C5134 1.368 . S
C5140 C5139 1.523 . S
C5141 C5125 1.429 . S
C5141 C5137 1.429 . S
C5141 C5142 1.523 . S
C5142 C5126 1.368 . S
C5142 C5138 1.368 . S
C5142 C5141 1.523 . S
H5143 C5118 0.950 . S
H5144 C5120 0.950 . S
H5145 C5121 0.949 . S
H5146 C5123 0.950 . S
H5147 C5125 0.950 . S
C5148 C5149 1.349 . S
C5148 C5150 1.327 . S
C5148 H5173 0.950 . S
C5149 C5148 1.349 . S
C5149 C5165 1.349 . S
C5150 C5148 1.327 . S
C5150 C5169 1.429 . S
C5150 H5174 0.950 . S
C5151 C5168 1.574 . S
C5151 C5170 1.368 . S
C5151 H5175 0.949 . S
H5152 C5156 0.949 . S
C5153 C5154 1.349 . S
C5153 C5155 1.327 . S
C5153 H5176 0.950 . S
C5154 C5153 1.349 . S
C5154 C5166 1.349 . S
C5155 C5153 1.327 . S
C5155 C5171 1.429 . S
C5155 H5177 0.950 . S
C5156 H5152 0.949 . S
C5156 C5164 1.574 . S
C5156 C5172 1.368 . S
H5157 C5165 0.950 . S
H5158 C5163 0.950 . S
H5159 C5164 0.949 . S
H5160 C5166 0.950 . S
H5161 C5167 0.950 . S
H5162 C5168 0.949 . S
C5163 H5158 0.950 . S
C5163 C5165 1.327 . S
C5163 C5169 1.429 . S
C5164 C5156 1.574 . S
C5164 H5159 0.949 . S
C5164 C5170 1.368 . S
C5165 C5149 1.349 . S
C5165 H5157 0.950 . S
C5165 C5163 1.327 . S
C5166 C5154 1.349 . S
C5166 H5160 0.950 . S
C5166 C5167 1.327 . S
C5167 H5161 0.950 . S
C5167 C5166 1.327 . S
C5167 C5171 1.429 . S
C5168 C5151 1.574 . S
C5168 H5162 0.949 . S
C5168 C5172 1.368 . S
C5169 C5150 1.429 . S
C5169 C5163 1.429 . S
C5169 C5170 1.523 . S
C5170 C5151 1.368 . S
C5170 C5164 1.368 . S
C5170 C5169 1.523 . S
C5171 C5155 1.429 . S
C5171 C5167 1.429 . S
C5171 C5172 1.523 . S
C5172 C5156 1.368 . S
C5172 C5168 1.368 . S
C5172 C5171 1.523 . S
H5173 C5148 0.950 . S
H5174 C5150 0.950 . S
H5175 C5151 0.949 . S
H5176 C5153 0.950 . S
H5177 C5155 0.950 . S
C5178 C5179 1.349 . S
C5178 C5180 1.327 . S
C5178 H5203 0.950 . S
C5179 C5178 1.349 . S
C5179 C5195 1.349 . S
C5180 C5178 1.327 . S
C5180 C5199 1.429 . S
C5180 H5204 0.950 . S
C5181 C5198 1.574 . S
C5181 C5200 1.368 . S
C5181 H5205 0.949 . S
H5182 C5186 0.949 . S
C5183 C5184 1.349 . S
C5183 C5185 1.327 . S
C5183 H5206 0.950 . S
C5184 C5183 1.349 . S
C5184 C5196 1.349 . S
C5185 C5183 1.327 . S
C5185 C5201 1.429 . S
C5185 H5207 0.950 . S
C5186 H5182 0.949 . S
C5186 C5194 1.574 . S
C5186 C5202 1.368 . S
H5187 C5195 0.950 . S
H5188 C5193 0.950 . S
H5189 C5194 0.949 . S
H5190 C5196 0.950 . S
H5191 C5197 0.950 . S
H5192 C5198 0.949 . S
C5193 H5188 0.950 . S
C5193 C5195 1.327 . S
C5193 C5199 1.429 . S
C5194 C5186 1.574 . S
C5194 H5189 0.949 . S
C5194 C5200 1.368 . S
C5195 C5179 1.349 . S
C5195 H5187 0.950 . S
C5195 C5193 1.327 . S
C5196 C5184 1.349 . S
C5196 H5190 0.950 . S
C5196 C5197 1.327 . S
C5197 H5191 0.950 . S
C5197 C5196 1.327 . S
C5197 C5201 1.429 . S
C5198 C5181 1.574 . S
C5198 H5192 0.949 . S
C5198 C5202 1.368 . S
C5199 C5180 1.429 . S
C5199 C5193 1.429 . S
C5199 C5200 1.523 . S
C5200 C5181 1.368 . S
C5200 C5194 1.368 . S
C5200 C5199 1.523 . S
C5201 C5185 1.429 . S
C5201 C5197 1.429 . S
C5201 C5202 1.523 . S
C5202 C5186 1.368 . S
C5202 C5198 1.368 . S
C5202 C5201 1.523 . S
H5203 C5178 0.950 . S
H5204 C5180 0.950 . S
H5205 C5181 0.949 . S
H5206 C5183 0.950 . S
H5207 C5185 0.950 . S
C5208 C5209 1.349 . S
C5208 C5210 1.327 . S
C5208 H5233 0.950 . S
C5209 C5208 1.349 . S
C5209 C5225 1.349 . S
C5210 C5208 1.327 . S
C5210 C5229 1.429 . S
C5210 H5234 0.950 . S
C5211 C5228 1.574 . S
C5211 C5230 1.368 . S
C5211 H5235 0.949 . S
H5212 C5216 0.949 . S
C5213 C5214 1.349 . S
C5213 C5215 1.327 . S
C5213 H5236 0.950 . S
C5214 C5213 1.349 . S
C5214 C5226 1.349 . S
C5215 C5213 1.327 . S
C5215 C5231 1.429 . S
C5215 H5237 0.950 . S
C5216 H5212 0.949 . S
C5216 C5224 1.574 . S
C5216 C5232 1.368 . S
H5217 C5225 0.950 . S
H5218 C5223 0.950 . S
H5219 C5224 0.949 . S
H5220 C5226 0.950 . S
H5221 C5227 0.950 . S
H5222 C5228 0.949 . S
C5223 H5218 0.950 . S
C5223 C5225 1.327 . S
C5223 C5229 1.429 . S
C5224 C5216 1.574 . S
C5224 H5219 0.949 . S
C5224 C5230 1.368 . S
C5225 C5209 1.349 . S
C5225 H5217 0.950 . S
C5225 C5223 1.327 . S
C5226 C5214 1.349 . S
C5226 H5220 0.950 . S
C5226 C5227 1.327 . S
C5227 H5221 0.950 . S
C5227 C5226 1.327 . S
C5227 C5231 1.429 . S
C5228 C5211 1.574 . S
C5228 H5222 0.949 . S
C5228 C5232 1.368 . S
C5229 C5210 1.429 . S
C5229 C5223 1.429 . S
C5229 C5230 1.523 . S
C5230 C5211 1.368 . S
C5230 C5224 1.368 . S
C5230 C5229 1.523 . S
C5231 C5215 1.429 . S
C5231 C5227 1.429 . S
C5231 C5232 1.523 . S
C5232 C5216 1.368 . S
C5232 C5228 1.368 . S
C5232 C5231 1.523 . S
H5233 C5208 0.950 . S
H5234 C5210 0.950 . S
H5235 C5211 0.949 . S
H5236 C5213 0.950 . S
H5237 C5215 0.950 . S
C5238 C5239 1.349 1_554 S
C5238 C5240 1.327 . S
C5238 H5263 0.950 . S
C5239 C5238 1.349 1_556 S
C5239 C5255 1.349 1_556 S
C5240 C5238 1.327 . S
C5240 C5259 1.429 . S
C5240 H5264 0.950 . S
C5241 C5258 1.574 . S
C5241 C5260 1.368 . S
C5241 H5265 0.949 . S
H5242 C5246 0.949 . S
C5243 C5244 1.349 . S
C5243 C5245 1.327 . S
C5243 H5266 0.950 . S
C5244 C5243 1.349 . S
C5244 C5256 1.349 . S
C5245 C5243 1.327 . S
C5245 C5261 1.429 . S
C5245 H5267 0.950 . S
C5246 H5242 0.949 . S
C5246 C5254 1.574 . S
C5246 C5262 1.368 . S
H5247 C5255 0.950 1_556 S
H5248 C5253 0.950 . S
H5249 C5254 0.949 . S
H5250 C5256 0.950 . S
H5251 C5257 0.950 . S
H5252 C5258 0.949 . S
C5253 H5248 0.950 . S
C5253 C5255 1.327 . S
C5253 C5259 1.429 . S
C5254 C5246 1.574 . S
C5254 H5249 0.949 . S
C5254 C5260 1.368 . S
C5255 C5239 1.349 1_554 S
C5255 H5247 0.950 1_554 S
C5255 C5253 1.327 . S
C5256 C5244 1.349 . S
C5256 H5250 0.950 . S
C5256 C5257 1.327 . S
C5257 H5251 0.950 . S
C5257 C5256 1.327 . S
C5257 C5261 1.429 . S
C5258 C5241 1.574 . S
C5258 H5252 0.949 . S
C5258 C5262 1.368 . S
C5259 C5240 1.429 . S
C5259 C5253 1.429 . S
C5259 C5260 1.523 . S
C5260 C5241 1.368 . S
C5260 C5254 1.368 . S
C5260 C5259 1.523 . S
C5261 C5245 1.429 . S
C5261 C5257 1.429 . S
C5261 C5262 1.523 . S
C5262 C5246 1.368 . S
C5262 C5258 1.368 . S
C5262 C5261 1.523 . S
H5263 C5238 0.950 . S
H5264 C5240 0.950 . S
H5265 C5241 0.949 . S
H5266 C5243 0.950 . S
H5267 C5245 0.950 . S
C5268 C5269 1.349 . S
C5268 C5270 1.327 . S
C5268 H5293 0.950 . S
C5269 C5268 1.349 . S
C5269 C5285 1.349 . S
C5270 C5268 1.327 . S
C5270 C5289 1.429 . S
C5270 H5294 0.950 . S
C5271 C5288 1.574 . S
C5271 C5290 1.368 . S
C5271 H5295 0.949 . S
H5272 C5276 0.949 . S
C5273 C5274 1.349 . S
C5273 C5275 1.327 . S
C5273 H5296 0.950 . S
C5274 C5273 1.349 . S
C5274 C5286 1.349 . S
C5275 C5273 1.327 . S
C5275 C5291 1.429 . S
C5275 H5297 0.950 . S
C5276 H5272 0.949 . S
C5276 C5284 1.574 . S
C5276 C5292 1.368 . S
H5277 C5285 0.950 . S
H5278 C5283 0.950 . S
H5279 C5284 0.949 . S
H5280 C5286 0.950 . S
H5281 C5287 0.950 . S
H5282 C5288 0.949 . S
C5283 H5278 0.950 . S
C5283 C5285 1.327 . S
C5283 C5289 1.429 . S
C5284 C5276 1.574 . S
C5284 H5279 0.949 . S
C5284 C5290 1.368 . S
C5285 C5269 1.349 . S
C5285 H5277 0.950 . S
C5285 C5283 1.327 . S
C5286 C5274 1.349 . S
C5286 H5280 0.950 . S
C5286 C5287 1.327 . S
C5287 H5281 0.950 . S
C5287 C5286 1.327 . S
C5287 C5291 1.429 . S
C5288 C5271 1.574 . S
C5288 H5282 0.949 . S
C5288 C5292 1.368 . S
C5289 C5270 1.429 . S
C5289 C5283 1.429 . S
C5289 C5290 1.523 . S
C5290 C5271 1.368 . S
C5290 C5284 1.368 . S
C5290 C5289 1.523 . S
C5291 C5275 1.429 . S
C5291 C5287 1.429 . S
C5291 C5292 1.523 . S
C5292 C5276 1.368 . S
C5292 C5288 1.368 . S
C5292 C5291 1.523 . S
H5293 C5268 0.950 . S
H5294 C5270 0.950 . S
H5295 C5271 0.949 . S
H5296 C5273 0.950 . S
H5297 C5275 0.950 . S
C5298 C5299 1.349 . S
C5298 C5300 1.327 . S
C5298 H5323 0.950 . S
C5299 C5298 1.349 . S
C5299 C5315 1.349 . S
C5300 C5298 1.327 . S
C5300 C5319 1.429 . S
C5300 H5324 0.950 . S
C5301 C5318 1.574 . S
C5301 C5320 1.368 . S
C5301 H5325 0.949 . S
H5302 C5306 0.949 . S
C5303 C5304 1.349 . S
C5303 C5305 1.327 . S
C5303 H5326 0.950 . S
C5304 C5303 1.349 . S
C5304 C5316 1.349 . S
C5305 C5303 1.327 . S
C5305 C5321 1.429 . S
C5305 H5327 0.950 . S
C5306 H5302 0.949 . S
C5306 C5314 1.574 . S
C5306 C5322 1.368 . S
H5307 C5315 0.950 . S
H5308 C5313 0.950 . S
H5309 C5314 0.949 . S
H5310 C5316 0.950 . S
H5311 C5317 0.950 . S
H5312 C5318 0.949 . S
C5313 H5308 0.950 . S
C5313 C5315 1.327 . S
C5313 C5319 1.429 . S
C5314 C5306 1.574 . S
C5314 H5309 0.949 . S
C5314 C5320 1.368 . S
C5315 C5299 1.349 . S
C5315 H5307 0.950 . S
C5315 C5313 1.327 . S
C5316 C5304 1.349 . S
C5316 H5310 0.950 . S
C5316 C5317 1.327 . S
C5317 H5311 0.950 . S
C5317 C5316 1.327 . S
C5317 C5321 1.429 . S
C5318 C5301 1.574 . S
C5318 H5312 0.949 . S
C5318 C5322 1.368 . S
C5319 C5300 1.429 . S
C5319 C5313 1.429 . S
C5319 C5320 1.523 . S
C5320 C5301 1.368 . S
C5320 C5314 1.368 . S
C5320 C5319 1.523 . S
C5321 C5305 1.429 . S
C5321 C5317 1.429 . S
C5321 C5322 1.523 . S
C5322 C5306 1.368 . S
C5322 C5318 1.368 . S
C5322 C5321 1.523 . S
H5323 C5298 0.950 . S
H5324 C5300 0.950 . S
H5325 C5301 0.949 . S
H5326 C5303 0.950 . S
H5327 C5305 0.950 . S
C5328 C5329 1.349 . S
C5328 C5330 1.327 . S
C5328 H5353 0.950 . S
C5329 C5328 1.349 . S
C5329 C5345 1.349 . S
C5330 C5328 1.327 . S
C5330 C5349 1.429 . S
C5330 H5354 0.950 . S
C5331 C5348 1.574 . S
C5331 C5350 1.368 1_545 S
C5331 H5355 0.949 . S
H5332 C5336 0.949 . S
C5333 C5334 1.349 . S
C5333 C5335 1.327 . S
C5333 H5356 0.950 . S
C5334 C5333 1.349 . S
C5334 C5346 1.349 . S
C5335 C5333 1.327 . S
C5335 C5351 1.429 . S
C5335 H5357 0.950 . S
C5336 H5332 0.949 . S
C5336 C5344 1.574 . S
C5336 C5352 1.368 1_565 S
H5337 C5345 0.950 . S
H5338 C5343 0.950 1_545 S
H5339 C5344 0.949 . S
H5340 C5346 0.950 . S
H5341 C5347 0.950 1_565 S
H5342 C5348 0.949 . S
C5343 H5338 0.950 1_565 S
C5343 C5345 1.327 . S
C5343 C5349 1.429 . S
C5344 C5336 1.574 . S
C5344 H5339 0.949 . S
C5344 C5350 1.368 . S
C5345 C5329 1.349 . S
C5345 H5337 0.950 . S
C5345 C5343 1.327 . S
C5346 C5334 1.349 . S
C5346 H5340 0.950 . S
C5346 C5347 1.327 . S
C5347 H5341 0.950 1_545 S
C5347 C5346 1.327 . S
C5347 C5351 1.429 . S
C5348 C5331 1.574 . S
C5348 H5342 0.949 . S
C5348 C5352 1.368 . S
C5349 C5330 1.429 . S
C5349 C5343 1.429 . S
C5349 C5350 1.523 . S
C5350 C5331 1.368 1_565 S
C5350 C5344 1.368 . S
C5350 C5349 1.523 . S
C5351 C5335 1.429 . S
C5351 C5347 1.429 . S
C5351 C5352 1.523 . S
C5352 C5336 1.368 1_545 S
C5352 C5348 1.368 . S
C5352 C5351 1.523 . S
H5353 C5328 0.950 . S
H5354 C5330 0.950 . S
H5355 C5331 0.949 . S
H5356 C5333 0.950 . S
H5357 C5335 0.950 . S
C5358 C5359 1.349 . S
C5358 C5360 1.327 . S
C5358 H5383 0.950 . S
C5359 C5358 1.349 . S
C5359 C5375 1.349 . S
C5360 C5358 1.327 . S
C5360 C5379 1.429 . S
C5360 H5384 0.950 . S
C5361 C5378 1.574 . S
C5361 C5380 1.368 . S
C5361 H5385 0.949 . S
H5362 C5366 0.949 . S
C5363 C5364 1.349 . S
C5363 C5365 1.327 . S
C5363 H5386 0.950 . S
C5364 C5363 1.349 . S
C5364 C5376 1.349 . S
C5365 C5363 1.327 . S
C5365 C5381 1.429 . S
C5365 H5387 0.950 . S
C5366 H5362 0.949 . S
C5366 C5374 1.574 . S
C5366 C5382 1.368 . S
H5367 C5375 0.950 . S
H5368 C5373 0.950 . S
H5369 C5374 0.949 . S
H5370 C5376 0.950 . S
H5371 C5377 0.950 . S
H5372 C5378 0.949 . S
C5373 H5368 0.950 . S
C5373 C5375 1.327 . S
C5373 C5379 1.429 . S
C5374 C5366 1.574 . S
C5374 H5369 0.949 . S
C5374 C5380 1.368 . S
C5375 C5359 1.349 . S
C5375 H5367 0.950 . S
C5375 C5373 1.327 . S
C5376 C5364 1.349 . S
C5376 H5370 0.950 . S
C5376 C5377 1.327 . S
C5377 H5371 0.950 . S
C5377 C5376 1.327 . S
C5377 C5381 1.429 . S
C5378 C5361 1.574 . S
C5378 H5372 0.949 . S
C5378 C5382 1.368 . S
C5379 C5360 1.429 . S
C5379 C5373 1.429 . S
C5379 C5380 1.523 . S
C5380 C5361 1.368 . S
C5380 C5374 1.368 . S
C5380 C5379 1.523 . S
C5381 C5365 1.429 . S
C5381 C5377 1.429 . S
C5381 C5382 1.523 . S
C5382 C5366 1.368 . S
C5382 C5378 1.368 . S
C5382 C5381 1.523 . S
H5383 C5358 0.950 . S
H5384 C5360 0.950 . S
H5385 C5361 0.949 . S
H5386 C5363 0.950 . S
H5387 C5365 0.950 . S
C5388 C5389 1.349 . S
C5388 C5390 1.327 . S
C5388 H5413 0.950 . S
C5389 C5388 1.349 . S
C5389 C5405 1.349 . S
C5390 C5388 1.327 . S
C5390 C5409 1.429 . S
C5390 H5414 0.950 1_545 S
C5391 C5408 1.574 . S
C5391 C5410 1.368 . S
C5391 H5415 0.949 . S
H5392 C5396 0.949 . S
C5393 C5394 1.349 . S
C5393 C5395 1.327 . S
C5393 H5416 0.950 . S
C5394 C5393 1.349 . S
C5394 C5406 1.349 . S
C5395 C5393 1.327 . S
C5395 C5411 1.429 . S
C5395 H5417 0.950 1_565 S
C5396 H5392 0.949 . S
C5396 C5404 1.574 . S
C5396 C5412 1.368 . S
H5397 C5405 0.950 . S
H5398 C5403 0.950 . S
H5399 C5404 0.949 . S
H5400 C5406 0.950 . S
H5401 C5407 0.950 . S
H5402 C5408 0.949 . S
C5403 H5398 0.950 . S
C5403 C5405 1.327 . S
C5403 C5409 1.429 . S
C5404 C5396 1.574 . S
C5404 H5399 0.949 . S
C5404 C5410 1.368 1_565 S
C5405 C5389 1.349 . S
C5405 H5397 0.950 . S
C5405 C5403 1.327 . S
C5406 C5394 1.349 . S
C5406 H5400 0.950 . S
C5406 C5407 1.327 . S
C5407 H5401 0.950 . S
C5407 C5406 1.327 . S
C5407 C5411 1.429 . S
C5408 C5391 1.574 . S
C5408 H5402 0.949 . S
C5408 C5412 1.368 1_545 S
C5409 C5390 1.429 . S
C5409 C5403 1.429 . S
C5409 C5410 1.523 . S
C5410 C5391 1.368 . S
C5410 C5404 1.368 1_545 S
C5410 C5409 1.523 . S
C5411 C5395 1.429 . S
C5411 C5407 1.429 . S
C5411 C5412 1.523 . S
C5412 C5396 1.368 . S
C5412 C5408 1.368 1_565 S
C5412 C5411 1.523 . S
H5413 C5388 0.950 . S
H5414 C5390 0.950 1_565 S
H5415 C5391 0.949 . S
H5416 C5393 0.950 . S
H5417 C5395 0.950 1_545 S
C5418 C5419 1.349 . S
C5418 C5420 1.327 . S
C5418 H5443 0.950 . S
C5419 C5418 1.349 . S
C5419 C5435 1.349 . S
C5420 C5418 1.327 . S
C5420 C5439 1.429 . S
C5420 H5444 0.950 . S
C5421 C5438 1.574 . S
C5421 C5440 1.368 . S
C5421 H5445 0.949 . S
H5422 C5426 0.949 . S
C5423 C5424 1.349 1_554 S
C5423 C5425 1.327 . S
C5423 H5446 0.950 1_554 S
C5424 C5423 1.349 1_556 S
C5424 C5436 1.349 1_556 S
C5425 C5423 1.327 . S
C5425 C5441 1.429 . S
C5425 H5447 0.950 . S
C5426 H5422 0.949 . S
C5426 C5434 1.574 . S
C5426 C5442 1.368 . S
H5427 C5435 0.950 . S
H5428 C5433 0.950 . S
H5429 C5434 0.949 . S
H5430 C5436 0.950 . S
H5431 C5437 0.950 . S
H5432 C5438 0.949 . S
C5433 H5428 0.950 . S
C5433 C5435 1.327 . S
C5433 C5439 1.429 . S
C5434 C5426 1.574 . S
C5434 H5429 0.949 . S
C5434 C5440 1.368 . S
C5435 C5419 1.349 . S
C5435 H5427 0.950 . S
C5435 C5433 1.327 . S
C5436 C5424 1.349 1_554 S
C5436 H5430 0.950 . S
C5436 C5437 1.327 . S
C5437 H5431 0.950 . S
C5437 C5436 1.327 . S
C5437 C5441 1.429 . S
C5438 C5421 1.574 . S
C5438 H5432 0.949 . S
C5438 C5442 1.368 . S
C5439 C5420 1.429 . S
C5439 C5433 1.429 . S
C5439 C5440 1.523 . S
C5440 C5421 1.368 . S
C5440 C5434 1.368 . S
C5440 C5439 1.523 . S
C5441 C5425 1.429 . S
C5441 C5437 1.429 . S
C5441 C5442 1.523 . S
C5442 C5426 1.368 . S
C5442 C5438 1.368 . S
C5442 C5441 1.523 . S
H5443 C5418 0.950 . S
H5444 C5420 0.950 . S
H5445 C5421 0.949 . S
H5446 C5423 0.950 1_556 S
H5447 C5425 0.950 . S
C5448 C5449 1.349 . S
C5448 C5450 1.327 . S
C5448 H5473 0.950 . S
C5449 C5448 1.349 . S
C5449 C5465 1.349 . S
C5450 C5448 1.327 . S
C5450 C5469 1.429 . S
C5450 H5474 0.950 . S
C5451 C5468 1.574 . S
C5451 C5470 1.368 1_545 S
C5451 H5475 0.949 . S
H5452 C5456 0.949 . S
C5453 C5454 1.349 . S
C5453 C5455 1.327 . S
C5453 H5476 0.950 . S
C5454 C5453 1.349 . S
C5454 C5466 1.349 . S
C5455 C5453 1.327 . S
C5455 C5471 1.429 . S
C5455 H5477 0.950 . S
C5456 H5452 0.949 . S
C5456 C5464 1.574 . S
C5456 C5472 1.368 1_565 S
H5457 C5465 0.950 . S
H5458 C5463 0.982 . S
H5459 C5464 0.949 . S
H5460 C5466 0.950 . S
H5461 C5467 0.990 . S
H5462 C5468 0.949 . S
C5463 H5458 0.982 . S
C5463 C5465 1.327 . S
C5463 C5469 1.429 . S
C5464 C5456 1.574 . S
C5464 H5459 0.949 . S
C5464 C5470 1.368 . S
C5465 C5449 1.349 . S
C5465 H5457 0.950 . S
C5465 C5463 1.327 . S
C5466 C5454 1.349 . S
C5466 H5460 0.950 . S
C5466 C5467 1.327 . S
C5467 H5461 0.990 . S
C5467 C5466 1.327 . S
C5467 C5471 1.429 . S
C5468 C5451 1.574 . S
C5468 H5462 0.949 . S
C5468 C5472 1.368 . S
C5469 C5450 1.429 . S
C5469 C5463 1.429 . S
C5469 C5470 1.523 . S
C5470 C5451 1.368 1_565 S
C5470 C5464 1.368 . S
C5470 C5469 1.523 . S
C5471 C5455 1.429 . S
C5471 C5467 1.429 . S
C5471 C5472 1.523 . S
C5472 C5456 1.368 1_545 S
C5472 C5468 1.368 . S
C5472 C5471 1.523 . S
H5473 C5448 0.950 . S
H5474 C5450 0.950 . S
H5475 C5451 0.949 . S
H5476 C5453 0.950 . S
H5477 C5455 0.950 . S
C5478 C5479 1.349 . S
C5478 C5480 1.327 . S
C5478 H5503 0.950 . S
C5479 C5478 1.349 . S
C5479 C5495 1.349 . S
C5480 C5478 1.327 . S
C5480 C5499 1.429 . S
C5480 H5504 0.950 . S
C5481 C5498 1.574 . S
C5481 C5500 1.368 . S
C5481 H5505 0.949 . S
H5482 C5486 0.949 . S
C5483 C5484 1.349 . S
C5483 C5485 1.327 . S
C5483 H5506 0.950 . S
C5484 C5483 1.349 . S
C5484 C5496 1.349 . S
C5485 C5483 1.327 . S
C5485 C5501 1.429 . S
C5485 H5507 0.950 . S
C5486 H5482 0.949 . S
C5486 C5494 1.574 . S
C5486 C5502 1.368 . S
H5487 C5495 0.950 . S
H5488 C5493 0.950 . S
H5489 C5494 0.949 . S
H5490 C5496 0.950 . S
H5491 C5497 0.950 . S
H5492 C5498 0.949 . S
C5493 H5488 0.950 . S
C5493 C5495 1.327 . S
C5493 C5499 1.429 . S
C5494 C5486 1.574 . S
C5494 H5489 0.949 . S
C5494 C5500 1.368 . S
C5495 C5479 1.349 . S
C5495 H5487 0.950 . S
C5495 C5493 1.327 . S
C5496 C5484 1.349 . S
C5496 H5490 0.950 . S
C5496 C5497 1.327 . S
C5497 H5491 0.950 . S
C5497 C5496 1.327 . S
C5497 C5501 1.429 . S
C5498 C5481 1.574 . S
C5498 H5492 0.949 . S
C5498 C5502 1.368 . S
C5499 C5480 1.429 . S
C5499 C5493 1.429 . S
C5499 C5500 1.523 . S
C5500 C5481 1.368 . S
C5500 C5494 1.368 . S
C5500 C5499 1.523 . S
C5501 C5485 1.429 . S
C5501 C5497 1.429 . S
C5501 C5502 1.523 . S
C5502 C5486 1.368 . S
C5502 C5498 1.368 . S
C5502 C5501 1.523 . S
H5503 C5478 0.950 . S
H5504 C5480 0.950 . S
H5505 C5481 0.949 . S
H5506 C5483 0.950 . S
H5507 C5485 0.950 . S
C5508 C5509 1.349 . S
C5508 C5510 1.327 . S
C5508 H5533 0.950 . S
C5509 C5508 1.349 . S
C5509 C5525 1.349 . S
C5510 C5508 1.327 . S
C5510 C5529 1.429 . S
C5510 H5534 0.950 . S
C5511 C5528 1.574 . S
C5511 C5530 1.368 1_545 S
C5511 H5535 0.949 . S
H5512 C5516 0.949 . S
C5513 C5514 1.349 . S
C5513 C5515 1.327 . S
C5513 H5536 0.950 . S
C5514 C5513 1.349 . S
C5514 C5526 1.349 . S
C5515 C5513 1.327 . S
C5515 C5531 1.429 . S
C5515 H5537 0.950 . S
C5516 H5512 0.949 . S
C5516 C5524 1.574 . S
C5516 C5532 1.368 1_565 S
H5517 C5525 0.950 . S
H5518 C5523 0.950 1_545 S
H5519 C5524 0.949 . S
H5520 C5526 0.950 . S
H5521 C5527 0.950 1_565 S
H5522 C5528 0.949 . S
C5523 H5518 0.950 1_565 S
C5523 C5525 1.327 . S
C5523 C5529 1.429 . S
C5524 C5516 1.574 . S
C5524 H5519 0.949 . S
C5524 C5530 1.368 . S
C5525 C5509 1.349 . S
C5525 H5517 0.950 . S
C5525 C5523 1.327 . S
C5526 C5514 1.349 . S
C5526 H5520 0.950 . S
C5526 C5527 1.327 . S
C5527 H5521 0.950 1_545 S
C5527 C5526 1.327 . S
C5527 C5531 1.429 . S
C5528 C5511 1.574 . S
C5528 H5522 0.949 . S
C5528 C5532 1.368 . S
C5529 C5510 1.429 . S
C5529 C5523 1.429 . S
C5529 C5530 1.523 . S
C5530 C5511 1.368 1_565 S
C5530 C5524 1.368 . S
C5530 C5529 1.523 . S
C5531 C5515 1.429 . S
C5531 C5527 1.429 . S
C5531 C5532 1.523 . S
C5532 C5516 1.368 1_545 S
C5532 C5528 1.368 . S
C5532 C5531 1.523 . S
H5533 C5508 0.950 . S
H5534 C5510 0.950 . S
H5535 C5511 0.949 . S
H5536 C5513 0.950 . S
H5537 C5515 0.950 . S
C5538 C5539 1.349 . S
C5538 C5540 1.327 . S
C5538 H5563 0.950 . S
C5539 C5538 1.349 . S
C5539 C5555 1.349 . S
C5540 C5538 1.327 . S
C5540 C5559 1.429 . S
C5540 H5564 0.950 . S
C5541 C5558 1.574 . S
C5541 C5560 1.368 . S
C5541 H5565 0.949 . S
H5542 C5546 0.949 . S
C5543 C5544 1.349 . S
C5543 C5545 1.327 1_556 S
C5543 H5566 0.950 . S
C5544 C5543 1.349 . S
C5544 C5556 1.349 . S
C5545 C5543 1.327 1_554 S
C5545 C5561 1.429 . S
C5545 H5567 0.950 . S
C5546 H5542 0.949 . S
C5546 C5554 1.574 . S
C5546 C5562 1.368 . S
H5547 C5555 0.950 . S
H5548 C5553 0.950 . S
H5549 C5554 0.949 . S
H5550 C5556 0.950 . S
H5551 C5557 0.950 . S
H5552 C5558 0.949 . S
C5553 H5548 0.950 . S
C5553 C5555 1.327 . S
C5553 C5559 1.429 . S
C5554 C5546 1.574 . S
C5554 H5549 0.949 . S
C5554 C5560 1.368 . S
C5555 C5539 1.349 . S
C5555 H5547 0.950 . S
C5555 C5553 1.327 . S
C5556 C5544 1.349 . S
C5556 H5550 0.950 . S
C5556 C5557 1.327 1_556 S
C5557 H5551 0.950 . S
C5557 C5556 1.327 1_554 S
C5557 C5561 1.429 . S
C5558 C5541 1.574 . S
C5558 H5552 0.949 . S
C5558 C5562 1.368 . S
C5559 C5540 1.429 . S
C5559 C5553 1.429 . S
C5559 C5560 1.523 . S
C5560 C5541 1.368 . S
C5560 C5554 1.368 . S
C5560 C5559 1.523 . S
C5561 C5545 1.429 . S
C5561 C5557 1.429 . S
C5561 C5562 1.523 . S
C5562 C5546 1.368 . S
C5562 C5558 1.368 . S
C5562 C5561 1.523 . S
H5563 C5538 0.950 . S
H5564 C5540 0.950 . S
H5565 C5541 0.949 . S
H5566 C5543 0.950 . S
H5567 C5545 0.950 . S
C2689 C63 0.926 . S
C2694 C399 0.926 . S
C2719 C483 0.965 . S
C2724 C147 0.954 . S
C2749 C235 0.920 . S
C2754 C571 0.920 . S
C2779 C651 0.954 . S
C2784 C315 0.965 . S
C2809 C744 0.926 . S
C2814 C1080 0.926 . S
C2839 C828 0.954 . S
C2844 C1164 0.965 . S
C2869 C1232 0.920 . S
C2874 C896 0.920 . S
C2899 C996 0.965 . S
C2904 C1332 0.954 . S
C2929 C1743 0.926 . S
C2934 C1407 0.926 . S
C2959 C1491 0.954 . S
C2964 C1827 0.965 . S
C2989 C1579 0.920 . S
C2994 C1915 0.920 . S
C3019 C1659 0.965 . S
C3024 C1995 0.954 . S
C3049 C2088 0.926 . S
C3054 C2424 0.926 . S
C3079 C2508 0.965 . S
C3084 C2172 0.954 . S
C3109 C2240 0.920 . S
C3114 C2576 0.920 . S
C3139 C2676 0.954 . S
C3144 C2340 0.965 . S
C3169 C1839 1.201 . S
C3174 C75 1.207 . S
C3199 C1914 1.097 . S
C3204 C159 1.097 . S
C3229 C2007 1.097 . S
C3234 C234 1.097 . S
C3259 C327 1.202 . S
C3264 C1755 1.207 . S
C3289 C411 1.207 . S
C3294 C1671 1.202 . S
C3319 C1419 1.207 . S
C3324 C495 1.202 . S
C3349 C570 1.099 1_556 S
C3354 C1503 1.099 . S
C3379 C663 1.099 . S
C3384 C1578 1.099 . S
C3409 C738 1.207 . S
C3414 C2502 1.202 . S
C3439 C2595 1.097 . S
C3444 C822 1.098 . S
C3469 C2670 1.098 . S
C3474 C915 1.097 . S
C3499 C990 1.201 . S
C3504 C2418 1.207 . S
C3529 C1074 1.207 . S
C3534 C2334 1.202 . S
C3559 C1158 1.202 . S
C3564 C2082 1.207 . S
C3589 C1251 1.098 . S
C3594 C2166 1.099 . S
C3619 C1326 1.099 . S
C3624 C2259 1.098 1_556 S
C3649 C747 0.930 . S
C3654 C66 0.930 . S
C3679 C150 0.827 . S
C3684 C2175 0.827 . S
C3709 C906 0.622 . S
C3714 C243 0.622 . S
C3739 C318 0.931 . S
C3744 C2343 0.931 . S
C3769 C1083 0.930 . S
C3774 C402 0.930 . S
C3799 C2511 0.931 . S
C3804 C486 0.931 . S
C3829 C579 0.621 . S
C3834 C1242 0.621 . S
C3859 C654 0.827 . S
C3864 C2679 0.827 . S
C3889 C1494 0.827 . S
C3894 C831 0.827 . S
C3919 C1662 0.931 . S
C3924 C999 0.931 . S
C3949 C1167 0.931 . S
C3954 C1830 0.931 . S
C3979 C1998 0.827 . S
C3984 C1335 0.827 . S
C4009 C2091 0.930 . S
C4014 C1410 0.930 . S
C4039 C2250 0.621 . S
C4044 C1587 0.621 . S
C4069 C2427 0.930 . S
C4074 C1746 0.930 . S
C4099 C1923 0.622 . S
C4104 C2586 0.622 . S
C4129 C72 1.559 . S
C4134 C1075 1.514 . S
C4159 C2503 1.567 . S
C4164 C156 1.641 . S
C4189 C1239 1.119 . S
C4194 C224 1.316 . S
C4219 C324 1.604 . S
C4224 C2671 1.523 . S
C4249 C739 1.514 . S
C4254 C408 1.558 . S
C4279 C2167 1.523 . S
C4284 C492 1.604 . S
C4309 C903 1.119 . S
C4314 C560 1.316 . S
C4339 C2335 1.567 . S
C4344 C660 1.641 . S
C4369 C392 1.514 . S
C4374 C735 1.559 . S
C4399 C1820 1.567 . S
C4404 C819 1.641 . S
C4429 C576 1.120 . S
C4434 C907 1.316 . S
C4459 C987 1.604 . S
C4464 C1988 1.523 . S
C4489 C56 1.514 . S
C4494 C1071 1.558 . S
C4519 C1484 1.523 . S
C4524 C1155 1.604 . S
C4549 C1243 1.316 . S
C4554 C240 1.119 . S
C4579 C1323 1.641 . S
C4584 C1652 1.567 . S
C4609 C2419 1.514 . S
C4614 C1416 1.558 . S
C4639 C1159 1.567 . S
C4644 C1500 1.641 . S
C4669 C1568 1.316 . S
C4674 C2583 1.119 . S
C4699 C1327 1.523 . S
C4704 C1668 1.604 . S
C4729 C1752 1.559 . S
C4734 C2083 1.514 . S
C4759 C1836 1.604 . S
C4764 C823 1.523 . S
C4789 C2247 1.119 . S
C4794 C1904 1.316 . S
C4819 C991 1.567 . S
C4824 C2004 1.641 . S
C4849 C2079 1.558 . S
C4854 C1736 1.514 . S
C4879 C2163 1.641 . S
C4884 C476 1.567 . S
C4909 C2251 1.316 . S
C4914 C1920 1.119 . S
C4939 C2331 1.604 . S
C4944 C644 1.523 . S
C4969 C1400 1.514 . S
C4974 C2415 1.559 . S
C4999 C140 1.523 . S
C5004 C2499 1.604 . S
C5029 C2587 1.316 . S
C5034 C1584 1.119 . S
C5059 C308 1.567 . S
C5064 C2667 1.641 . S
C5089 C403 2.655 . S
C5094 C67 2.655 1_556 S
C5119 C487 2.798 . S
C5124 C151 2.806 . S
C5149 C231 1.810 . S
C5154 C567 1.810 . S
C5179 C655 2.807 . S
C5184 C319 2.798 . S
C5209 C1064 2.655 . S
C5214 C728 2.655 . S
C5239 C812 2.806 . S
C5244 C1148 2.798 . S
C5269 C912 1.810 . S
C5274 C1248 1.810 1_556 S
C5299 C1316 2.807 . S
C5304 C980 2.798 . S
C5329 C1411 2.655 . S
C5334 C1747 2.655 . S
C5359 C1831 2.798 . S
C5364 C1495 2.807 . S
C5389 C1575 1.810 1_556 S
C5394 C1911 1.810 . S
C5419 C1663 2.798 . S
C5424 C1999 2.807 . S
C5449 C2408 2.655 1_556 S
C5454 C2072 2.655 . S
C5479 C2492 2.798 . S
C5484 C2156 2.807 . S
C5509 C2256 1.810 . S
C5514 C2592 1.810 . S
C5539 C2660 2.806 . S
C5544 C2324 2.798 . S
