# Generated by pormake.
# Topology fcu, (12)-cn, num edge types: 1
# Building blocks:
#     Node 0, Type 0, BuildingBlock: BOTCEU_clean_sbu_0, # of connection points: 12
#     Node 1, Type 0, BuildingBlock: BOTCEU_clean_sbu_0, # of connection points: 12
#     Node 2, Type 0, BuildingBlock: BOTCEU_clean_sbu_0, # of connection points: 12
#     Node 3, Type 0, BuildingBlock: BOTCEU_clean_sbu_0, # of connection points: 12
#     Edge 4, Type (0, 0), BuildingBlock: KIFKEQ_clean_linker_1, # of connection points: 2
#     Edge 5, Type (0, 0), BuildingBlock: KIFKEQ_clean_linker_1, # of connection points: 2
#     Edge 6, Type (0, 0), BuildingBlock: KIFKEQ_clean_linker_1, # of connection points: 2
#     Edge 7, Type (0, 0), BuildingBlock: KIFKEQ_clean_linker_1, # of connection points: 2
#     Edge 8, Type (0, 0), BuildingBlock: KIFKEQ_clean_linker_1, # of connection points: 2
#     Edge 9, Type (0, 0), BuildingBlock: KIFKEQ_clean_linker_1, # of connection points: 2
#     Edge 10, Type (0, 0), BuildingBlock: KIFKEQ_clean_linker_1, # of connection points: 2
#     Edge 11, Type (0, 0), BuildingBlock: KIFKEQ_clean_linker_1, # of connection points: 2
#     Edge 12, Type (0, 0), BuildingBlock: KIFKEQ_clean_linker_1, # of connection points: 2
#     Edge 13, Type (0, 0), BuildingBlock: KIFKEQ_clean_linker_1, # of connection points: 2
#     Edge 14, Type (0, 0), BuildingBlock: KIFKEQ_clean_linker_1, # of connection points: 2
#     Edge 15, Type (0, 0), BuildingBlock: KIFKEQ_clean_linker_1, # of connection points: 2
#     Edge 16, Type (0, 0), BuildingBlock: KIFKEQ_clean_linker_1, # of connection points: 2
#     Edge 17, Type (0, 0), BuildingBlock: KIFKEQ_clean_linker_1, # of connection points: 2
#     Edge 18, Type (0, 0), BuildingBlock: KIFKEQ_clean_linker_1, # of connection points: 2
#     Edge 19, Type (0, 0), BuildingBlock: KIFKEQ_clean_linker_1, # of connection points: 2
#     Edge 20, Type (0, 0), BuildingBlock: KIFKEQ_clean_linker_1, # of connection points: 2
#     Edge 21, Type (0, 0), BuildingBlock: KIFKEQ_clean_linker_1, # of connection points: 2
#     Edge 22, Type (0, 0), BuildingBlock: KIFKEQ_clean_linker_1, # of connection points: 2
#     Edge 23, Type (0, 0), BuildingBlock: KIFKEQ_clean_linker_1, # of connection points: 2
#     Edge 24, Type (0, 0), BuildingBlock: KIFKEQ_clean_linker_1, # of connection points: 2
#     Edge 25, Type (0, 0), BuildingBlock: KIFKEQ_clean_linker_1, # of connection points: 2
#     Edge 26, Type (0, 0), BuildingBlock: KIFKEQ_clean_linker_1, # of connection points: 2
#     Edge 27, Type (0, 0), BuildingBlock: KIFKEQ_clean_linker_1, # of connection points: 2
# Relax obj value: 0.051
# Max RMSD: 0.157
# Mean RMSD: 0.157
data_MOF--net-fcu--node1-BOTCEU_clean_sbu_0--edge1-KIFKEQ_clean_linker_1
_symmetry_space_group_name_H-M    P1
_symmetry_Int_Tables_number       1
_symmetry_cell_setting            triclinic
loop_
_symmetry_equiv_pos_as_xyz
'x, y, z'
_cell_length_a     36.307515
_cell_length_b     36.426028
_cell_length_c     36.517158
_cell_angle_alpha  100.55531
_cell_angle_beta   100.80014
_cell_angle_gamma 100.26286
loop_
_atom_site_label
_atom_site_type_symbol
_atom_site_fract_x
_atom_site_fract_y
_atom_site_fract_z
_atom_type_partial_charge
C0 C 0.15331 0.95738 0.11798 0.0
C1 C 0.14872 0.971 0.15459 0.0
C2 C 0.10985 0.95848 0.15296 0.0
N3 N 0.11884 0.93815 0.09645 0.0
N4 N 0.09294 0.93874 0.11715 0.0
C5 C 0.19002 0.95924 0.10477 0.0
H6 H 0.2011 0.93338 0.1086 0.0
H7 H 0.21196 0.98495 0.12175 0.0
H8 H 0.18477 0.95959 0.0739 0.0
C9 C 0.09079 0.95972 0.18593 0.0
H10 H 0.05913 0.95395 0.17568 0.0
H11 H 0.10125 0.98803 0.20621 0.0
H12 H 0.09821 0.93756 0.20143 0.0
C13 C 0.94676 0.13046 0.83636 0.0
C14 C 0.003 0.12208 0.82584 0.0
C15 C 0.97282 0.13905 0.81412 0.0
N16 N 0.96154 0.11009 0.86016 0.0
N17 N -0.00548 0.10422 0.85318 0.0
H18 H 0.91301 0.17212 0.84609 0.0
H19 H 0.89191 0.13414 0.80466 0.0
H20 H 0.89197 0.12501 0.85173 0.0
C21 C 0.90856 0.14086 0.8347 0.0
H22 H 0.05676 0.15165 0.81909 0.0
H23 H 0.03085 0.11359 0.77917 0.0
H24 H 0.05521 0.10263 0.82282 0.0
C25 C 0.0386 0.12221 0.81088 0.0
C26 C 0.05186 0.83266 0.04652 0.0
C27 C 0.08747 0.97602 0.02575 0.0
C28 C 0.92918 0.10924 0.12443 0.0
N29 N 0.9131 0.08363 0.09151 0.0
N30 N 0.90712 0.10126 0.06339 0.0
C31 C 0.93339 0.14552 0.11662 0.0
C32 C 0.91934 0.13924 0.07729 0.0
H33 H 0.94595 0.07079 0.15917 0.0
H34 H 0.91159 0.09656 0.17419 0.0
H35 H 0.96118 0.12126 0.18292 0.0
C36 C 0.93778 0.09898 0.16249 0.0
H37 H 0.90125 0.15544 0.02401 0.0
H38 H 0.94077 0.18913 0.05785 0.0
H39 H 0.89326 0.18544 0.06597 0.0
C40 C 0.91312 0.16883 0.0547 0.0
C41 C 0.16472 0.86984 0.98088 0.0
C42 C 0.15933 0.86048 0.03789 0.0
N43 N 0.14309 0.89252 -0.00479 0.0
N44 N 0.13912 0.88632 0.02879 0.0
C45 C 0.17597 0.84889 0.0076 0.0
H46 H 0.20039 0.86165 0.94066 0.0
H47 H 0.15037 0.83932 0.92242 0.0
H48 H 0.16527 0.89026 0.92929 0.0
C49 C 0.17074 0.86527 0.94103 0.0
C50 C 0.15914 0.84417 0.07257 0.0
H51 H 0.1891 0.84855 0.08915 0.0
H52 H 0.14698 0.81286 0.06372 0.0
H53 H 0.1421 0.85815 0.09088 0.0
C54 C 0.81476 0.01216 0.02774 0.0
C55 C 0.96673 0.02063 0.07407 0.0
C56 C 0.08932 0.13044 0.91973 0.0
N57 N 0.06874 0.09474 0.90393 0.0
C58 C 0.12777 0.12861 0.93079 0.0
N59 N 0.09162 0.07063 0.90418 0.0
C60 C 0.1279 0.08982 0.92038 0.0
H61 H 0.04197 0.1569 0.92664 0.0
H62 H 0.07213 0.1769 0.89822 0.0
H63 H 0.08925 0.18727 0.94948 0.0
C64 C 0.07221 0.16497 0.92409 0.0
H65 H 0.15521 0.04325 0.90423 0.0
C66 C 0.16202 0.0718 0.92374 0.0
H67 H 0.1867 0.09041 0.91748 0.0
H68 H 0.17052 0.06814 0.95343 0.0
C69 C 0.86816 0.98083 0.16047 0.0
C70 C 0.84458 0.0259 0.13736 0.0
N71 N 0.88685 0.9909 0.13419 0.0
N72 N 0.87251 0.01745 0.12016 0.0
C73 C 0.84079 0.0028 0.16336 0.0
H74 H 0.88807 0.9589 0.20902 0.0
C75 C 0.87303 0.94782 0.17851 0.0
H76 H 0.89023 0.93024 0.16383 0.0
H77 H 0.84451 0.92993 0.17741 0.0
H78 H 0.81588 0.07032 0.15554 0.0
H79 H 0.79415 0.04061 0.10879 0.0
C80 C 0.82201 0.05509 0.12888 0.0
H81 H 0.83804 0.07582 0.11555 0.0
C82 C 0.00841 0.01301 0.81167 0.0
C83 C 0.00373 0.07567 0.95566 0.0
C84 C 0.84067 0.02643 0.87603 0.0
N85 N 0.87411 0.04902 0.89686 0.0
C86 C 0.84555 0.01332 0.83939 0.0
C87 C 0.88352 0.02956 0.84039 0.0
N88 N 0.89978 0.0505 0.87588 0.0
C89 C 0.80382 0.02266 0.88912 0.0
H90 H 0.80963 0.02593 0.92062 0.0
H91 H 0.78945 0.04564 0.88169 0.0
H92 H 0.78422 -0.00539 0.87472 0.0
C93 C 0.90235 0.02883 0.8073 0.0
H94 H 0.93397 0.03405 0.81744 0.0
H95 H 0.89134 0.00096 0.78633 0.0
H96 H 0.8956 0.05182 0.79276 0.0
C97 C 0.04139 0.85845 0.153 0.0
C98 C 0.01433 0.84857 0.17384 0.0
C99 C 0.98495 0.86683 0.16281 0.0
N100 N 0.028 0.88079 0.13069 0.0
N101 N -0.00511 0.88667 0.13728 0.0
H102 H 0.07425 0.81527 0.14765 0.0
H103 H 0.09754 0.85784 0.18357 0.0
H104 H 0.09397 0.85875 0.13369 0.0
C105 C 0.07906 0.84697 0.1543 0.0
C106 C 0.94852 0.86566 0.17643 0.0
H107 H 0.93226 0.8356 0.17063 0.0
H108 H 0.95544 0.87715 0.20783 0.0
H109 H 0.93044 0.88259 0.16181 0.0
C110 C 0.93303 0.15879 0.94183 0.0
C111 C 0.91117 0.01979 0.97225 0.0
C112 C 0.04628 0.88065 0.87161 0.0
C113 C 0.04028 0.84557 0.88207 0.0
C114 C 0.05928 0.85328 0.92028 0.0
N115 N 0.06777 0.90701 0.90227 0.0
N116 N 0.07535 0.8908 0.93124 0.0
C117 C 0.03725 0.88783 0.83222 0.0
H118 H 0.03909 0.91881 0.83358 0.0
H119 H 0.05832 0.8782 0.81633 0.0
H120 H 0.00812 0.87137 0.81644 0.0
C121 C 0.06456 0.82514 0.94481 0.0
H122 H 0.07107 0.8398 0.97538 0.0
H123 H 0.03839 0.80182 0.93786 0.0
H124 H 0.08899 0.81221 0.93941 0.0
C125 C 0.81926 0.11684 0.00495 0.0
C126 C 0.80856 0.13686 0.97723 0.0
C127 C 0.82809 0.12645 0.94903 0.0
N128 N 0.84319 0.09556 0.99306 0.0
N129 N 0.84895 0.10174 0.95997 0.0
C130 C 0.81155 0.1224 0.04417 0.0
H131 H 0.78008 0.11482 0.04188 0.0
H132 H 0.82197 0.15295 0.05922 0.0
H133 H 0.82603 0.10444 0.06094 0.0
C134 C 0.8306 0.14346 0.91512 0.0
H135 H 0.80144 0.14476 0.90018 0.0
H136 H 0.84804 0.17321 0.92491 0.0
H137 H 0.84408 0.12634 0.89524 0.0
C138 C 0.1724 0.97757 0.95905 0.0
C139 C 0.02445 0.97926 0.9251 0.0
C140 C 0.90275 0.8614 0.06729 0.0
N141 N 0.92309 0.89718 0.08353 0.0
N142 N 0.89989 0.92098 0.08313 0.0
C143 C 0.86434 0.86311 0.05653 0.0
C144 C 0.86378 0.90154 0.06717 0.0
H145 H 0.9128 0.81348 0.09043 0.0
H146 H 0.90523 0.80487 0.03931 0.0
H147 H 0.95056 0.83382 0.06937 0.0
C148 C 0.91896 0.82638 0.06635 0.0
H149 H 0.83789 0.94917 0.06172 0.0
H150 H 0.80631 0.90265 0.03927 0.0
H151 H 0.81844 0.91911 0.09057 0.0
C152 C 0.8295 0.91915 0.06423 0.0
C153 C 0.1163 0.00283 0.82593 0.0
N154 N 0.09855 -0.00439 0.8538 0.0
N155 N 0.11043 0.96762 0.86729 0.0
C156 C 0.14046 0.97741 0.82138 0.0
C157 C 0.13564 0.95531 0.84817 0.0
C158 C 0.11411 0.03642 0.80808 0.0
H159 H 0.09722 0.02618 0.7781 0.0
H160 H 0.14337 0.05144 0.80756 0.0
H161 H 0.09986 0.0565 0.82397 0.0
C162 C 0.15476 0.9235 0.85585 0.0
H163 H 0.16172 0.9087 0.82947 0.0
H164 H 0.18188 0.9354 0.87792 0.0
H165 H 0.13582 0.90281 0.86685 0.0
C166 C 0.97673 0.97583 0.18059 0.0
C167 C 0.99147 0.92448 0.03838 0.0
Cu168 Cu 0.1019 0.90727 0.04827 0.0
Cu169 Cu 0.04641 0.90468 0.09531 0.0
Cu170 Cu 0.89138 0.03229 0.08035 0.0
Cu171 Cu 0.87664 0.07049 0.01801 0.0
Cu172 Cu 0.01784 0.07343 0.8805 0.0
Cu173 Cu 0.06812 0.0204 0.88054 0.0
Cu174 Cu 0.88879 0.08293 0.94368 0.0
Cu175 Cu 0.94453 0.08743 0.89691 0.0
Cu176 Cu 0.09376 0.95693 0.90975 0.0
Cu177 Cu 0.11095 0.92069 0.97363 0.0
Cu178 Cu 0.97282 0.91884 0.1107 0.0
Cu179 Cu 0.92108 0.97062 0.10953 0.0
H180 H 0.0452 0.82325 0.07217 0.0
H181 H 0.07829 0.82391 0.04085 0.0
H182 H 0.02759 0.81898 0.02159 0.0
H183 H 0.07686 0.98063 0.05243 0.0
H184 H 0.06934 0.98633 0.00362 0.0
H185 H 0.11768 0.99215 0.03156 0.0
H186 H 0.80382 0.98879 0.00166 0.0
H187 H 0.8002 0.03606 0.02463 0.0
H188 H 0.80858 0.00126 0.05281 0.0
H189 H 0.96614 0.04743 0.06387 0.0
H190 H 0.97869 0.00142 0.05459 0.0
H191 H 0.98507 0.0276 0.10344 0.0
H192 H 0.9808 0.99148 0.80316 0.0
H193 H 0.03067 0.0002 0.80045 0.0
H194 H 0.0049 0.03827 0.79958 0.0
H195 H 0.03378 0.07195 0.96009 0.0
H196 H 0.98759 0.05694 0.97069 0.0
H197 H 0.0038 0.10601 0.9674 0.0
H198 H 0.96312 0.174 0.94481 0.0
H199 H 0.91454 0.16365 0.91624 0.0
H200 H 0.9229 0.16999 0.96758 0.0
H201 H 0.92113 0.01548 0.94519 0.0
H202 H 0.93257 0.01391 -0.00495 0.0
H203 H 0.88304 -0.00012 0.96815 0.0
H204 H 0.18288 0.00306 0.98314 0.0
H205 H 0.1883 0.95518 0.96479 0.0
H206 H 0.17732 0.98585 0.93234 0.0
H207 H 0.02224 0.95085 0.93242 0.0
H208 H 0.02005 -9e-05 0.94933 0.0
H209 H 0.00208 0.97698 0.89904 0.0
H210 H 0.0079 0.98815 0.19191 0.0
H211 H 0.96035 -0.00283 0.19047 0.0
H212 H 0.96832 0.94969 0.1912 0.0
H213 H 0.96153 0.92853 0.03355 0.0
H214 H 0.00897 0.94573 0.02683 0.0
H215 H 0.99151 0.8951 0.02345 0.0
O216 O 0.05698 0.87167 0.05233 0.0
O217 O 0.08574 0.93779 0.01312 0.0
O218 O 0.85362 0.02481 0.03267 0.0
O219 O 0.93015 0.00302 0.07436 0.0
O220 O 0.01925 0.02389 0.85079 0.0
O221 O 0.98695 0.06606 0.91731 0.0
O222 O 0.93151 0.12042 0.93831 0.0
O223 O 0.90721 0.05681 0.9822 0.0
O224 O 0.13389 0.96397 0.95539 0.0
O225 O 0.06015 0.9913 0.91858 0.0
O226 O 0.96879 0.96698 0.14141 0.0
O227 O 0.0062 0.92949 0.07683 0.0
C228 C 0.12785 0.38558 0.57691 0.0
C229 C 0.12822 0.39689 0.61562 0.0
C230 C 0.08954 0.39063 0.61724 0.0
N231 N 0.09106 0.37337 0.55761 0.0
N232 N 0.06834 0.37673 0.58142 0.0
C233 C 0.16152 0.38756 0.55854 0.0
H234 H 0.15435 0.36661 0.53084 0.0
H235 H 0.18668 0.38228 0.57766 0.0
H236 H 0.16935 0.41649 0.55285 0.0
C237 C 0.0729 0.40002 0.65137 0.0
H238 H 0.04334 0.40441 0.64245 0.0
H239 H 0.09133 0.42593 0.67202 0.0
H240 H 0.0713 0.37567 0.66579 0.0
C241 C 0.99301 0.67008 0.37986 0.0
C242 C 0.03982 0.64624 0.36063 0.0
C243 C 0.01837 0.67379 0.35585 0.0
N244 N -0.00026 0.64206 0.39769 0.0
N245 N 0.02731 0.6276 0.38594 0.0
H246 H 0.97351 0.71921 0.4032 0.0
H247 H 0.94761 0.69506 0.35545 0.0
H248 H 0.93954 0.67441 0.39578 0.0
C249 C 0.96133 0.69068 0.38368 0.0
H250 H 0.08955 0.66604 0.33965 0.0
H251 H 0.06087 0.61973 0.3141 0.0
H252 H 0.09106 0.62451 0.36063 0.0
C253 C 0.07247 0.63884 0.34293 0.0
C254 C -0.00129 0.2976 0.4937 0.0
C255 C 0.08364 0.43996 0.5133 0.0
C256 C 0.94231 0.58595 0.65327 0.0
N257 N 0.92636 0.57443 0.61579 0.0
N258 N 0.93295 0.60306 0.59898 0.0
C259 C 0.95989 0.62448 0.66057 0.0
C260 C 0.95328 0.6344 0.62519 0.0
H261 H 0.93577 0.53099 0.66774 0.0
H262 H 0.91163 0.56368 0.69175 0.0
H263 H 0.96307 0.571 0.70655 0.0
C264 C 0.93822 0.5614 0.68153 0.0
H265 H 0.95947 0.67217 0.58678 0.0
H266 H 0.98837 0.69113 0.63507 0.0
H267 H 0.93741 0.68806 0.62542 0.0
C268 C 0.96026 0.67372 0.61756 0.0
C269 C 0.12799 0.32718 0.43682 0.0
C270 C 0.1072 0.30148 0.48148 0.0
N271 N 0.10309 0.34629 0.45004 0.0
N272 N 0.09063 0.33081 0.47651 0.0
C273 C 0.13175 0.29831 0.45662 0.0
H274 H 0.17866 0.35644 0.4238 0.0
H275 H 0.1547 0.3124 0.39015 0.0
H276 H 0.13451 0.35476 0.39055 0.0
C277 C 0.15009 0.33831 0.40844 0.0
C278 C 0.10605 0.28281 0.51462 0.0
H279 H 0.13494 0.29058 0.53426 0.0
H280 H 0.09848 0.25124 0.50417 0.0
H281 H 0.08475 0.29199 0.53043 0.0
C282 C 0.82757 0.54629 0.53585 0.0
C283 C 0.96379 0.50916 0.57389 0.0
C284 C 0.11171 0.63804 0.4589 0.0
N285 N 0.09096 0.60428 0.43752 0.0
C286 C 0.14966 0.63467 0.46902 0.0
N287 N 0.11309 0.57965 0.43402 0.0
C288 C 0.14933 0.59689 0.45252 0.0
H289 H 0.06483 0.66706 0.45539 0.0
H290 H 0.10869 0.69288 0.44682 0.0
H291 H 0.1053 0.68943 0.49456 0.0
C292 C 0.09659 0.67385 0.46418 0.0
H293 H 0.1741 0.54754 0.45098 0.0
C294 C 0.18291 0.57849 0.45162 0.0
H295 H 0.19303 0.58109 0.42518 0.0
H296 H 0.20688 0.5927 0.47673 0.0
C297 C 0.84458 0.45313 0.63182 0.0
C298 C 0.8384 0.51238 0.63161 0.0
N299 N 0.86816 0.46863 0.61171 0.0
N300 N 0.86391 0.50364 0.61116 0.0
C301 C 0.82495 0.48049 0.6453 0.0
H302 H 0.85834 0.41135 0.66312 0.0
C303 C 0.83939 0.41257 0.63598 0.0
H304 H 0.84725 0.3947 0.61189 0.0
H305 H 0.8092 0.40106 0.63685 0.0
H306 H 0.82959 0.55944 0.67158 0.0
H307 H 0.80193 0.55168 0.62351 0.0
C308 C 0.83038 0.55153 0.64095 0.0
H309 H 0.85253 0.57302 0.63443 0.0
C310 C 0.03306 0.53746 0.33389 0.0
C311 C 0.01824 0.57461 0.476 0.0
C312 C 0.86697 0.58394 0.4169 0.0
N313 N 0.9036 0.5997 0.43524 0.0
C314 C 0.86617 0.57144 0.37829 0.0
C315 C 0.90442 0.58062 0.37565 0.0
N316 N 0.92583 0.59734 0.41085 0.0
C317 C 0.83355 0.5819 0.4356 0.0
H318 H 0.84101 0.60216 0.46371 0.0
H319 H 0.80853 0.58796 0.41696 0.0
H320 H 0.82521 0.5526 0.44027 0.0
C321 C 0.92054 0.57344 0.34086 0.0
H322 H 0.95023 0.5691 0.34885 0.0
H323 H 0.90216 0.54815 0.3193 0.0
H324 H 0.92185 0.5989 0.32807 0.0
C325 C 0.99123 0.30802 0.6024 0.0
C326 C 0.96324 0.30363 0.62351 0.0
C327 C 0.9438 0.33268 0.61892 0.0
N328 N 0.98789 0.33793 0.5864 0.0
N329 N 0.9599 0.35284 0.59652 0.0
H330 H 0.01066 0.25705 0.58459 0.0
H331 H 0.03724 0.28609 0.63024 0.0
H332 H 0.04427 0.30078 0.58662 0.0
C333 C 0.02293 0.28698 0.60085 0.0
C334 C 0.91056 0.34091 0.63518 0.0
H335 H 0.89179 0.31389 0.63673 0.0
H336 H 0.92141 0.35893 0.66458 0.0
H337 H 0.89394 0.35666 0.61738 0.0
C338 C 0.98777 0.69027 0.48835 0.0
C339 C 0.93008 0.54608 0.49188 0.0
C340 C 0.03863 0.40358 0.34551 0.0
C341 C 0.01876 0.36604 0.33989 0.0
C342 C 0.02958 0.35581 0.37458 0.0
N343 N 0.05953 0.41445 0.38157 0.0
N344 N 0.05418 0.3861 0.39897 0.0
C345 C 0.04242 0.42614 0.31559 0.0
H346 H 0.05085 0.45719 0.32886 0.0
H347 H 0.06507 0.41818 0.30111 0.0
H348 H 0.01499 0.41957 0.29375 0.0
C349 C 0.02242 0.31639 0.38193 0.0
H350 H 0.02251 0.31791 0.41258 0.0
H351 H -0.00538 0.29888 0.36369 0.0
H352 H 0.0458 0.3024 0.37499 0.0
C353 C 0.86162 0.65515 0.54909 0.0
C354 C 0.85608 0.68123 0.5261 0.0
C355 C 0.88126 0.67726 0.50193 0.0
N356 N 0.88815 0.63692 0.53831 0.0
N357 N 0.90017 0.65046 0.51061 0.0
C358 C 0.84101 0.64645 0.57935 0.0
H359 H 0.81376 0.62511 0.56596 0.0
H360 H 0.83397 0.67276 0.59441 0.0
H361 H 0.85887 0.63419 0.60003 0.0
C362 C 0.88189 0.69287 0.46682 0.0
H363 H 0.85214 0.69098 0.45093 0.0
H364 H 0.89693 0.72349 0.47538 0.0
H365 H 0.89718 0.67703 0.4479 0.0
C366 C 0.16749 0.43673 0.45094 0.0
C367 C 0.0408 0.4877 0.43839 0.0
C368 C 0.8871 0.35379 0.51744 0.0
N369 N 0.90671 0.38576 0.54295 0.0
N370 N 0.88459 0.41039 0.54679 0.0
C371 C 0.84984 0.35814 0.50487 0.0
C372 C 0.84948 0.39477 0.5243 0.0
H373 H 0.93319 0.32399 0.52 0.0
H374 H 0.8894 0.29866 0.52892 0.0
H375 H 0.89213 0.30215 0.48097 0.0
C376 C 0.90141 0.31757 0.5114 0.0
H377 H 0.82454 0.44407 0.5296 0.0
H378 H 0.79306 0.40059 0.49834 0.0
H379 H 0.80311 0.40642 0.54959 0.0
C380 C 0.81547 0.41253 0.52522 0.0
C381 C 0.14104 0.52413 0.34803 0.0
N382 N 0.12083 0.51232 0.37259 0.0
N383 N 0.12446 0.47755 0.37517 0.0
C384 C 0.15777 0.49452 0.33383 0.0
C385 C 0.14606 0.4652 0.35163 0.0
C386 C 0.14563 0.56332 0.34004 0.0
H387 H 0.12522 0.56232 0.31298 0.0
H388 H 0.17524 0.57359 0.33673 0.0
H389 H 0.13925 0.58355 0.36343 0.0
C390 C 0.15154 0.42499 0.34341 0.0
H391 H 0.14951 0.4148 0.31238 0.0
H392 H 0.18047 0.42402 0.35913 0.0
H393 H 0.12967 0.40576 0.35283 0.0
C394 C 0.95317 0.44012 0.65569 0.0
C395 C 0.99009 0.42232 0.52317 0.0
Cu396 Cu 0.0661 0.35956 0.50682 0.0
Cu397 Cu 0.01647 0.36389 0.55865 0.0
Cu398 Cu 0.89401 0.53064 0.58536 0.0
Cu399 Cu 0.9053 0.59437 0.54918 0.0
Cu400 Cu 0.0417 0.58905 0.40799 0.0
Cu401 Cu 0.08961 0.53306 0.40153 0.0
Cu402 Cu 0.92897 0.62271 0.48494 0.0
Cu403 Cu 0.97719 0.6188 0.4313 0.0
Cu404 Cu 0.09859 0.45556 0.40732 0.0
Cu405 Cu 0.08909 0.39184 0.4446 0.0
Cu406 Cu 0.95214 0.396 0.57913 0.0
Cu407 Cu 0.90453 0.45268 0.58662 0.0
H408 H 0.97139 0.29328 0.47225 0.0
H409 H 0.99313 0.28437 0.5177 0.0
H410 H 0.01917 0.28389 0.48007 0.0
H411 H 0.07553 0.4394 0.541 0.0
H412 H 0.07353 0.46334 0.50192 0.0
H413 H 0.11538 0.44515 0.51803 0.0
H414 H 0.82019 0.56304 0.51413 0.0
H415 H 0.81886 0.55805 0.56224 0.0
H416 H 0.8122 0.51595 0.52453 0.0
H417 H 0.97066 0.54035 0.57536 0.0
H418 H 0.97424 0.49436 0.55 0.0
H419 H 0.9783 0.50369 0.60125 0.0
H420 H 0.01524 0.50823 0.32112 0.0
H421 H 0.05945 0.54137 0.32267 0.0
H422 H 0.01625 0.55864 0.32622 0.0
H423 H 0.04972 0.57695 0.48238 0.0
H424 H 0.00383 0.54577 0.47771 0.0
H425 H 0.01139 0.59655 0.49742 0.0
H426 H 0.01753 0.69964 0.48508 0.0
H427 H 0.96778 0.70136 0.46857 0.0
H428 H 0.98623 0.7016 0.51823 0.0
H429 H 0.90041 0.53033 0.48969 0.0
H430 H 0.93425 0.54615 0.46262 0.0
H431 H 0.95096 0.53157 0.50603 0.0
H432 H 0.17585 0.42035 0.47277 0.0
H433 H 0.17451 0.42421 0.42385 0.0
H434 H 0.18348 0.46697 0.46128 0.0
H435 H 0.03083 0.45641 0.43488 0.0
H436 H 0.04254 0.50211 0.46829 0.0
H437 H 0.02007 0.49801 0.41855 0.0
H438 H 0.96613 0.47006 0.67158 0.0
H439 H 0.92547 0.4303 0.66317 0.0
H440 H 0.97305 0.42152 0.66355 0.0
H441 H 0.9604 0.42659 0.51546 0.0
H442 H 0.01065 0.45006 0.52794 0.0
H443 H -0.00514 0.40148 0.49932 0.0
O444 O 0.01402 0.33602 0.50715 0.0
O445 O 0.06742 0.40558 0.48791 0.0
O446 O 0.86639 0.54847 0.54377 0.0
O447 O 0.9248 0.49629 0.56786 0.0
O448 O 0.04276 0.54261 0.37287 0.0
O449 O 0.00596 0.58016 0.43997 0.0
O450 O 0.97777 0.6511 0.48015 0.0
O451 O 0.93566 0.58301 0.51226 0.0
O452 O 0.12885 0.43527 0.44514 0.0
O453 O 0.07644 0.49545 0.43047 0.0
O454 O 0.94717 0.4384 0.6172 0.0
O455 O -0.00511 0.40856 0.55588 0.0
C456 C 0.62457 0.88741 0.57622 0.0
C457 C 0.62412 0.89915 0.61456 0.0
C458 C 0.58543 0.89473 0.61534 0.0
N459 N 0.58797 0.8766 0.55609 0.0
N460 N 0.56478 0.88093 0.57932 0.0
C461 C 0.65891 0.89 0.55894 0.0
H462 H 0.65018 0.88505 0.52734 0.0
H463 H 0.67495 0.86823 0.56657 0.0
H464 H 0.6785 0.91857 0.57084 0.0
C465 C 0.56853 0.90414 0.64931 0.0
H466 H 0.53927 0.88611 0.64439 0.0
H467 H 0.56623 0.93453 0.65385 0.0
H468 H 0.5872 0.90018 0.67542 0.0
C469 C 0.49168 0.16668 0.37793 0.0
C470 C 0.53475 0.14033 0.35381 0.0
C471 C 0.5137 0.16847 0.35065 0.0
N472 N 0.50001 0.13929 0.3961 0.0
N473 N 0.52516 0.12321 0.38128 0.0
H474 H 0.47277 0.2162 0.40142 0.0
H475 H 0.44423 0.19006 0.35527 0.0
H476 H 0.44007 0.17135 0.39749 0.0
C477 C 0.46013 0.18707 0.38327 0.0
H478 H 0.57943 0.15627 0.32472 0.0
H479 H 0.54921 0.10923 0.30501 0.0
H480 H 0.58464 0.11749 0.34898 0.0
C481 C 0.56394 0.13043 0.332 0.0
C482 C 0.49376 0.80305 0.491 0.0
C483 C 0.58591 0.94143 0.50635 0.0
C484 C 0.45532 0.10557 0.66207 0.0
N485 N 0.43693 0.09005 0.62569 0.0
N486 N 0.441 0.11568 0.60494 0.0
C487 C 0.47196 0.14355 0.66432 0.0
C488 C 0.46218 0.14897 0.62726 0.0
H489 H 0.45277 0.0542 0.68334 0.0
H490 H 0.42889 0.08834 0.70551 0.0
H491 H 0.48062 0.09764 0.71752 0.0
C492 C 0.45465 0.0852 0.69404 0.0
H493 H 0.46557 0.18055 0.58326 0.0
H494 H 0.49571 0.20494 0.62998 0.0
H495 H 0.44457 0.20074 0.62107 0.0
C496 C 0.46757 0.18595 0.61456 0.0
C497 C 0.62462 0.82429 0.43639 0.0
C498 C 0.60653 0.80365 0.48481 0.0
N499 N 0.59826 0.84267 0.44734 0.0
N500 N 0.5876 0.83047 0.4763 0.0
C501 C 0.63059 0.79874 0.45974 0.0
H502 H 0.67434 0.8578 0.4259 0.0
H503 H 0.65767 0.81093 0.39469 0.0
H504 H 0.63175 0.84865 0.38823 0.0
C505 C 0.64833 0.83593 0.40943 0.0
C506 C 0.60702 0.78844 0.52022 0.0
H507 H 0.63479 0.80146 0.54106 0.0
H508 H 0.60465 0.75703 0.51309 0.0
H509 H 0.58314 0.79508 0.53342 0.0
C510 C 0.33488 0.05287 0.55037 0.0
C511 C 0.47504 0.02179 0.59098 0.0
C512 C 0.61622 0.12501 0.43814 0.0
N513 N 0.59026 0.09243 0.42178 0.0
C514 C 0.65242 0.11709 0.44047 0.0
N515 N 0.60775 0.06436 0.41394 0.0
C516 C 0.64597 0.07814 0.4247 0.0
H517 H 0.57765 0.16106 0.45205 0.0
H518 H 0.60682 0.17579 0.42019 0.0
H519 H 0.62848 0.18327 0.47023 0.0
C520 C 0.60668 0.16357 0.44587 0.0
H521 H 0.66301 0.02473 0.40971 0.0
C522 C 0.67532 0.05596 0.4159 0.0
H523 H 0.68514 0.06331 0.39062 0.0
H524 H 0.70072 0.06397 0.44034 0.0
C525 C 0.36023 0.96941 0.65269 0.0
C526 C 0.35471 0.02889 0.65312 0.0
N527 N 0.38296 0.98446 0.63163 0.0
N528 N 0.37897 0.01959 0.63125 0.0
C529 C 0.34177 -0.00278 0.66721 0.0
H530 H 0.36588 0.92969 0.68867 0.0
C531 C 0.3557 0.92928 0.65796 0.0
H532 H 0.37235 0.91354 0.64072 0.0
H533 H 0.32498 0.91436 0.64909 0.0
H534 H 0.34824 0.07917 0.68994 0.0
H535 H 0.3117 0.06184 0.64663 0.0
C536 C 0.34297 0.06646 0.65891 0.0
H537 H 0.35932 0.08657 0.64517 0.0
C538 C 0.51592 0.03045 0.32479 0.0
C539 C 0.52566 0.0742 0.47449 0.0
C540 C 0.37074 0.07888 0.42056 0.0
N541 N 0.40762 0.09445 0.43825 0.0
C542 C 0.36891 0.06839 0.38162 0.0
C543 C 0.40655 0.07819 0.37789 0.0
N544 N 0.42891 0.09349 0.41293 0.0
C545 C 0.3378 0.077 0.43983 0.0
H546 H 0.31881 0.0953 0.42915 0.0
H547 H 0.32052 0.04722 0.43254 0.0
H548 H 0.34815 0.08648 0.47129 0.0
C549 C 0.42072 0.07473 0.34182 0.0
H550 H 0.45062 0.0707 0.34745 0.0
H551 H 0.40188 0.0505 0.31927 0.0
H552 H 0.42055 0.10154 0.33151 0.0
C553 C 0.48658 0.81114 0.59737 0.0
C554 C 0.45933 0.80697 0.6194 0.0
C555 C 0.44107 0.8372 0.6166 0.0
N556 N 0.48404 0.84209 0.58283 0.0
N557 N 0.45735 0.85792 0.59468 0.0
H558 H 0.50441 0.76001 0.57656 0.0
H559 H 0.53175 0.78669 0.62294 0.0
H560 H 0.53899 0.80359 0.58043 0.0
C561 C 0.51746 0.7893 0.59416 0.0
C562 C 0.40856 0.84589 0.63386 0.0
H563 H 0.39215 0.81978 0.63989 0.0
H564 H 0.42003 0.86768 0.66107 0.0
H565 H 0.38926 0.85762 0.614 0.0
C566 C 0.49351 0.18766 0.49038 0.0
C567 C 0.43862 0.04762 0.50391 0.0
C568 C 0.51731 0.88365 0.33983 0.0
C569 C 0.50128 0.84601 0.33972 0.0
C570 C 0.51765 0.841 0.37559 0.0
N571 N 0.54157 0.89929 0.37389 0.0
N572 N 0.5416 0.87406 0.39535 0.0
C573 C 0.51576 0.90141 0.30592 0.0
H574 H 0.52155 0.93306 0.31524 0.0
H575 H 0.53809 0.8937 0.29083 0.0
H576 H 0.48728 0.89052 0.28571 0.0
C577 C 0.51636 0.80376 0.38756 0.0
H578 H 0.51942 0.80843 0.41892 0.0
H579 H 0.48905 0.78301 0.37254 0.0
H580 H 0.54067 0.79163 0.38018 0.0
C581 C 0.36463 0.15858 0.54735 0.0
C582 C 0.35698 0.17979 0.5199 0.0
C583 C 0.38213 0.17349 0.49626 0.0
N584 N 0.39231 0.14048 0.53943 0.0
N585 N 0.40318 0.14999 0.50941 0.0
C586 C 0.34268 0.15178 0.57713 0.0
H587 H 0.31332 0.13463 0.563 0.0
H588 H 0.33977 0.17952 0.59354 0.0
H589 H 0.35744 0.13636 0.59686 0.0
C590 C 0.38259 0.1853 0.4592 0.0
H591 H 0.36129 0.16384 0.43581 0.0
H592 H 0.37477 0.21352 0.46029 0.0
H593 H 0.41132 0.18647 0.45271 0.0
C594 C 0.65129 0.94803 0.44997 0.0
C595 C 0.53185 0.97929 0.42958 0.0
C596 C 0.38145 0.86991 0.52634 0.0
N597 N 0.40593 0.90035 0.55031 0.0
N598 N 0.38736 0.92703 0.56008 0.0
C599 C 0.3448 0.87725 0.52162 0.0
C600 C 0.34984 0.9141 0.54341 0.0
H601 H 0.42215 0.83539 0.51547 0.0
H602 H 0.38532 0.815 0.53757 0.0
H603 H 0.37329 0.81546 0.48764 0.0
C604 C 0.39125 0.83172 0.51598 0.0
H605 H 0.32957 0.96437 0.56331 0.0
H606 H 0.29365 0.92589 0.52942 0.0
H607 H 0.30925 0.92203 0.57794 0.0
C608 C 0.31879 0.93293 0.55405 0.0
C609 C 0.61722 0.00386 0.3235 0.0
N610 N 0.59753 -0.00668 0.34891 0.0
N611 N 0.60023 0.95845 0.35188 0.0
C612 C 0.63332 0.97359 0.3097 0.0
C613 C 0.62157 0.94512 0.32855 0.0
C614 C 0.62464 0.04356 0.31676 0.0
H615 H 0.60717 0.04357 0.28838 0.0
H616 H 0.65539 0.05337 0.31677 0.0
H617 H 0.61644 0.06364 0.3389 0.0
C618 C 0.63157 0.90678 0.32615 0.0
H619 H 0.63777 0.89625 0.29794 0.0
H620 H 0.65734 0.90922 0.34902 0.0
H621 H 0.60764 0.88599 0.33104 0.0
C622 C 0.46613 0.94469 0.66259 0.0
C623 C 0.48798 0.92922 0.52295 0.0
Cu624 Cu 0.56389 0.86198 0.50495 0.0
Cu625 Cu 0.51323 0.86875 0.55605 0.0
Cu626 Cu 0.40504 0.04402 0.60056 0.0
Cu627 Cu 0.41127 0.10083 0.55573 0.0
Cu628 Cu 0.53865 0.08268 0.40042 0.0
Cu629 Cu 0.57579 0.01929 0.38461 0.0
Cu630 Cu 0.43299 0.12082 0.48709 0.0
Cu631 Cu 0.48002 0.1165 0.43149 0.0
Cu632 Cu 0.582 0.94115 0.39078 0.0
Cu633 Cu 0.58251 0.886 0.4374 0.0
Cu634 Cu 0.45295 0.90402 0.58178 0.0
Cu635 Cu 0.41418 0.96598 0.60127 0.0
H636 H 0.47377 0.79913 0.4629 0.0
H637 H 0.47737 0.79287 0.51129 0.0
H638 H 0.51605 0.78625 0.48774 0.0
H639 H 0.57306 0.94723 0.53144 0.0
H640 H 0.58378 0.96413 0.4902 0.0
H641 H 0.61657 0.94123 0.5166 0.0
H642 H 0.32599 0.06904 0.52856 0.0
H643 H 0.32685 0.06458 0.5772 0.0
H644 H 0.32006 0.02234 0.53959 0.0
H645 H 0.48248 0.05142 0.58693 0.0
H646 H 0.48683 0.00267 0.57125 0.0
H647 H 0.48769 0.0214 0.62098 0.0
H648 H 0.49512 0.00259 0.31306 0.0
H649 H 0.54023 0.03145 0.31038 0.0
H650 H 0.50147 0.05395 0.31959 0.0
H651 H 0.55623 0.07304 0.47634 0.0
H652 H 0.5102 0.04739 0.47984 0.0
H653 H 0.52399 0.09891 0.49641 0.0
H654 H 0.52538 0.19539 0.49735 0.0
H655 H 0.48218 0.20004 0.46626 0.0
H656 H 0.48293 0.1992 0.51575 0.0
H657 H 0.43756 0.04355 0.47287 0.0
H658 H 0.4641 0.03843 0.51785 0.0
H659 H 0.41214 0.02993 0.50792 0.0
H660 H 0.64366 0.97495 0.4626 0.0
H661 H 0.66175 0.9337 0.47292 0.0
H662 H 0.67427 0.95467 0.43447 0.0
H663 H 0.52082 0.94855 0.4282 0.0
H664 H 0.53793 -0.00469 0.45968 0.0
H665 H 0.50986 0.99005 0.41166 0.0
H666 H 0.48606 0.97211 0.67849 0.0
H667 H 0.44017 0.94069 0.67448 0.0
H668 H 0.48077 0.92079 0.66556 0.0
H669 H 0.45873 0.93495 0.51684 0.0
H670 H 0.50939 0.9564 0.52766 0.0
H671 H 0.49124 0.90843 0.49815 0.0
O672 O 0.51091 0.84107 0.50466 0.0
O673 O 0.56704 0.90648 0.48327 0.0
O674 O 0.37384 0.05602 0.55694 0.0
O675 O 0.43588 0.00955 0.58357 0.0
O676 O 0.52937 0.03463 0.36331 0.0
O677 O 0.50936 0.07812 0.43879 0.0
O678 O 0.48135 0.14862 0.48058 0.0
O679 O 0.44113 0.0855 0.51941 0.0
O680 O 0.61962 0.92411 0.4249 0.0
O681 O 0.56503 0.98385 0.41651 0.0
O682 O 0.45594 0.94546 0.62472 0.0
O683 O 0.49332 0.91447 0.55504 0.0
C684 C 0.64475 0.46209 0.12553 0.0
C685 C 0.63601 0.47055 0.16109 0.0
C686 C 0.59778 0.45209 0.15564 0.0
N687 N 0.6132 0.43997 0.10093 0.0
N688 N 0.58497 0.43442 0.11852 0.0
C689 C 0.68334 0.47044 0.11623 0.0
H690 H 0.68007 0.4715 0.08562 0.0
H691 H 0.69822 0.44714 0.12143 0.0
H692 H 0.70121 0.49787 0.13465 0.0
C693 C 0.57549 0.44804 0.18571 0.0
H694 H 0.54418 0.44069 0.17283 0.0
H695 H 0.58311 0.47494 0.20816 0.0
H696 H 0.58302 0.42476 0.19941 0.0
C697 C 0.45194 0.63576 0.83553 0.0
C698 C 0.51093 0.63386 0.82905 0.0
C699 C 0.47888 0.64746 0.81516 0.0
N700 N 0.46788 0.61683 0.86024 0.0
N701 N 0.50263 0.61484 0.85568 0.0
H702 H 0.41302 0.67317 0.83949 0.0
H703 H 0.39586 0.63143 0.80121 0.0
H704 H 0.39667 0.62685 0.84978 0.0
C705 C 0.41195 0.64205 0.83141 0.0
H706 H 0.56204 0.66887 0.82224 0.0
H707 H 0.54263 0.62616 0.78546 0.0
H708 H 0.56786 0.62325 0.83247 0.0
C709 C 0.54816 0.63808 0.8167 0.0
C710 C 0.55575 0.33409 0.03784 0.0
C711 C 0.58836 0.48301 0.03315 0.0
C712 C 0.40356 0.58829 0.11684 0.0
N713 N 0.39155 0.56552 0.08172 0.0
N714 N 0.38991 0.58643 0.05605 0.0
C715 C 0.40994 0.62601 0.11288 0.0
C716 C 0.40113 0.62366 0.07363 0.0
H717 H 0.41397 0.5449 0.14773 0.0
H718 H 0.38128 0.57285 0.16329 0.0
H719 H 0.43197 0.59389 0.17552 0.0
C720 C 0.40827 0.57413 0.15301 0.0
H721 H 0.39512 0.64535 0.02225 0.0
H722 H 0.42722 0.67777 0.06406 0.0
H723 H 0.37636 0.66985 0.06001 0.0
C724 C 0.39992 0.6559 0.05359 0.0
C725 C 0.68139 0.38995 -0.00394 0.0
C726 C 0.66554 0.37101 0.04623 0.0
N727 N 0.656 0.40921 0.008 0.0
N728 N 0.64598 0.39741 0.03741 0.0
C729 C 0.68834 0.36488 0.01989 0.0
H730 H 0.72273 0.38323 0.96128 0.0
H731 H 0.67334 0.37455 0.93532 0.0
H732 H 0.69917 0.42269 0.95678 0.0
C733 C 0.69529 0.39281 0.96041 0.0
C734 C 0.65887 0.34895 0.076 0.0
H735 H 0.68587 0.3543 0.09815 0.0
H736 H 0.65056 0.31781 0.06284 0.0
H737 H 0.63621 0.35788 0.08985 0.0
C738 C 0.30518 0.49502 0.00093 0.0
C739 C 0.45423 0.51128 0.06906 0.0
C740 C 0.59326 0.65002 0.93005 0.0
N741 N 0.57635 0.61332 0.91347 0.0
C742 C 0.63136 0.65143 0.94686 0.0
N743 N 0.60159 0.59197 0.91847 0.0
C744 C 0.63551 0.6138 0.9388 0.0
H745 H 0.57807 0.69417 0.90325 0.0
H746 H 0.58643 0.70608 0.95462 0.0
H747 H 0.54246 0.67294 0.92598 0.0
C748 C 0.57381 0.68276 0.92868 0.0
H749 H 0.66474 0.56818 0.94529 0.0
C750 C 0.67163 0.59939 0.94667 0.0
H751 H 0.68804 0.60465 0.92468 0.0
H752 H 0.68997 0.61465 0.97511 0.0
C753 C 0.34512 0.4523 0.13379 0.0
C754 C 0.32102 0.49778 0.11207 0.0
N755 N 0.36376 0.4634 0.10787 0.0
N756 N 0.34921 0.49032 0.0948 0.0
C757 C 0.31747 0.47385 0.13735 0.0
H758 H 0.37294 0.43557 0.18292 0.0
C759 C 0.35358 0.42193 0.15452 0.0
H760 H 0.36799 0.40243 0.13811 0.0
H761 H 0.32665 0.40551 0.15914 0.0
H762 H 0.30162 0.54713 0.13608 0.0
H763 H 0.27049 0.51755 0.0927 0.0
C764 C 0.30102 0.52972 0.10755 0.0
H765 H 0.31474 0.54807 0.09056 0.0
C766 C 0.53203 0.52871 0.819 0.0
C767 C 0.50889 0.58383 0.95693 0.0
C768 C 0.35024 0.52255 0.8706 0.0
N769 N 0.38192 0.54735 0.89229 0.0
C770 C 0.35682 0.5112 0.83441 0.0
C771 C 0.39401 0.53086 0.83654 0.0
N772 N 0.40834 0.55189 0.87239 0.0
C773 C 0.31283 0.51506 0.88242 0.0
H774 H 0.31804 0.51674 0.91369 0.0
H775 H 0.29689 0.53726 0.87586 0.0
H776 H 0.29497 0.48658 0.86659 0.0
C777 C 0.41314 0.53356 0.804 0.0
H778 H 0.44477 0.54254 0.81468 0.0
H779 H 0.40537 0.50565 0.783 0.0
H780 H 0.40309 0.55524 0.78926 0.0
C781 C 0.53183 0.34728 0.14202 0.0
C782 C 0.50247 0.33387 0.159 0.0
C783 C 0.47219 0.34999 0.14529 0.0
N784 N 0.51893 0.36953 0.11933 0.0
N785 N 0.48375 0.37193 0.122 0.0
H786 H 0.57002 0.30875 0.14323 0.0
H787 H 0.58734 0.35322 0.17795 0.0
H788 H 0.5875 0.35251 0.1285 0.0
C789 C 0.57154 0.34002 0.14801 0.0
C790 C 0.43387 0.34601 0.15541 0.0
H791 H 0.41947 0.31532 0.14928 0.0
H792 H 0.43789 0.35781 0.1865 0.0
H793 H 0.4154 0.36126 0.13879 0.0
C794 C 0.43406 0.65939 0.94222 0.0
C795 C 0.41909 0.5206 0.9699 0.0
C796 C 0.57403 0.40636 0.87737 0.0
C797 C 0.56752 0.36935 0.88319 0.0
C798 C 0.58263 0.37296 0.92182 0.0
N799 N 0.59218 0.42998 0.91106 0.0
N800 N 0.59705 0.41024 0.93752 0.0
C801 C 0.56744 0.41862 0.8402 0.0
H802 H 0.56659 0.44941 0.84516 0.0
H803 H 0.59142 0.41426 0.82618 0.0
H804 H 0.54027 0.40129 0.8207 0.0
C805 C 0.58472 0.34164 0.94289 0.0
H806 H 0.58701 0.35293 0.9737 0.0
H807 H 0.55905 0.31782 0.93103 0.0
H808 H 0.6106 0.33031 0.93962 0.0
C809 C 0.31007 0.60365 0.9887 0.0
C810 C 0.30346 0.627 0.9631 0.0
C811 C 0.32829 0.62107 0.93893 0.0
N812 N 0.33728 0.58535 0.97973 0.0
N813 N 0.34839 0.59599 0.95027 0.0
C814 C 0.29587 0.60396 0.0246 0.0
H815 H 0.26413 0.59397 0.01722 0.0
H816 H 0.3029 0.63363 0.04221 0.0
H817 H 0.30898 0.58511 0.04127 0.0
C818 C 0.33428 0.64053 0.90721 0.0
H819 H 0.30638 0.64416 0.89145 0.0
H820 H 0.35315 0.66938 0.91927 0.0
H821 H 0.34804 0.62366 0.88744 0.0
C822 C 0.68815 0.50013 0.98362 0.0
C823 C 0.5396 0.49394 0.93182 0.0
C824 C 0.39972 0.34479 0.04281 0.0
N825 N 0.41644 0.38113 0.06106 0.0
N826 N 0.39118 0.40264 0.05698 0.0
C827 C 0.36176 0.34367 0.0259 0.0
C828 C 0.35744 0.38108 0.03572 0.0
H829 H 0.44968 0.32055 0.04977 0.0
H830 H 0.41175 0.3001 0.0704 0.0
H831 H 0.4061 0.28829 0.01935 0.0
C832 C 0.41804 0.31147 0.04552 0.0
H833 H 0.32647 0.42543 0.02989 0.0
H834 H 0.30025 0.37769 0.00367 0.0
H835 H 0.30732 0.39094 0.05489 0.0
C836 C 0.32068 0.39463 0.03046 0.0
C837 C 0.63938 0.52891 0.84398 0.0
N838 N 0.62321 0.52312 0.8732 0.0
N839 N 0.63751 0.49741 0.88879 0.0
C840 C 0.66498 0.50488 0.84076 0.0
C841 C 0.66282 0.48517 0.86974 0.0
C842 C 0.6308 0.55694 0.82016 0.0
H843 H 0.61008 0.54154 0.79301 0.0
H844 H 0.65743 0.57095 0.81297 0.0
H845 H 0.61793 0.57878 0.83551 0.0
C846 C 0.681 0.45249 0.87636 0.0
H847 H 0.67947 0.43303 0.84863 0.0
H848 H 0.71178 0.46377 0.89076 0.0
H849 H 0.66663 0.43644 0.89473 0.0
C850 C 0.45337 0.45556 0.16494 0.0
C851 C 0.49143 0.42312 0.03167 0.0
Cu852 Cu 0.60354 0.41288 0.05139 0.0
Cu853 Cu 0.54122 0.39919 0.08996 0.0
Cu854 Cu 0.3744 0.51362 0.06291 0.0
Cu855 Cu 0.36853 0.55956 0.00643 0.0
Cu856 Cu 0.52832 0.58692 0.88502 0.0
Cu857 Cu 0.58533 0.5413 0.89376 0.0
Cu858 Cu 0.39183 0.58082 0.93894 0.0
Cu859 Cu 0.45055 0.59163 0.89537 0.0
Cu860 Cu 0.61498 0.4811 0.92594 0.0
Cu861 Cu 0.62505 0.43757 0.98491 0.0
Cu862 Cu 0.46221 0.4047 0.09574 0.0
Cu863 Cu 0.40478 0.45072 0.08897 0.0
H864 H 0.53109 0.32122 0.01308 0.0
H865 H 0.55111 0.32132 0.06235 0.0
H866 H 0.58241 0.32809 0.02994 0.0
H867 H 0.61758 0.50181 0.04244 0.0
H868 H 0.57507 0.48331 0.05814 0.0
H869 H 0.57044 0.49365 0.01118 0.0
H870 H 0.29901 0.46952 0.97703 0.0
H871 H 0.29052 0.51699 0.99141 0.0
H872 H 0.29439 0.48668 0.02534 0.0
H873 H 0.45348 0.53966 0.06238 0.0
H874 H 0.47145 0.49675 0.0515 0.0
H875 H 0.46755 0.51536 0.09985 0.0
H876 H 0.5011 0.5161 0.80647 0.0
H877 H 0.54879 0.50685 0.81175 0.0
H878 H 0.54137 0.5538 0.80716 0.0
H879 H 0.50735 0.6138 0.96821 0.0
H880 H 0.53929 0.58134 0.96361 0.0
H881 H 0.49191 0.56435 0.9706 0.0
H882 H 0.46418 0.67591 0.95307 0.0
H883 H 0.42154 0.6665 0.91504 0.0
H884 H 0.41717 0.66694 0.96373 0.0
H885 H 0.42703 0.51722 0.9418 0.0
H886 H 0.44436 0.52035 0.99206 0.0
H887 H 0.39508 0.49652 0.96865 0.0
H888 H 0.70253 0.48607 0.00495 0.0
H889 H 0.69921 0.49471 0.9573 0.0
H890 H 0.69424 0.53138 -0.00426 0.0
H891 H 0.51927 0.49233 0.90453 0.0
H892 H 0.53872 0.46463 0.93657 0.0
H893 H 0.53108 0.51113 0.95584 0.0
H894 H 0.43721 0.47762 0.17341 0.0
H895 H 0.44188 0.42899 0.17351 0.0
H896 H 0.48416 0.46634 0.17944 0.0
H897 H 0.4608 0.42443 0.0234 0.0
H898 H 0.5094 0.44837 0.02591 0.0
H899 H 0.49592 0.3965 0.01456 0.0
O900 O 0.55869 0.37285 0.04756 0.0
O901 O 0.5909 0.44641 0.01821 0.0
O902 O 0.34405 0.50959 0.01196 0.0
O903 O 0.41754 0.48955 0.06108 0.0
O904 O 0.53792 0.53973 0.85795 0.0
O905 O 0.49476 0.57419 0.91808 0.0
O906 O 0.43354 0.62105 0.93625 0.0
O907 O 0.40796 0.55465 0.97834 0.0
O908 O 0.64929 0.48566 0.97515 0.0
O909 O 0.57611 0.51045 0.93019 0.0
O910 O 0.44966 0.44834 0.12612 0.0
O911 O 0.50095 0.42318 0.06985 0.0
H912 H 0.98498 0.21068 0.11933 0.0
H913 H 0.90085 0.16242 0.17659 0.0
H914 H 0.00182 0.27006 0.16861 0.0
H915 H 0.91916 0.22028 0.22705 0.0
H916 H 0.94403 0.33503 0.30506 0.0
H917 H 0.9195 0.28639 0.24513 0.0
H918 H 0.03627 0.28766 0.2338 0.0
H919 H 0.06006 0.33724 0.29258 0.0
C920 C 0.96995 0.213 0.14233 0.0
C921 C 0.94216 0.18206 0.14473 0.0
C922 C 0.97977 0.24672 0.17068 0.0
C923 C 0.96206 0.24976 0.20192 0.0
C924 C 0.9331 0.21913 0.20324 0.0
C925 C 0.92309 0.1857 0.17476 0.0
C926 C 0.96407 0.32512 0.28912 0.0
C927 C 0.00364 0.3393 0.30282 0.0
C928 C 0.95024 0.29731 0.25509 0.0
C929 C 0.97597 0.28304 0.2348 0.0
C930 C 0.01564 0.29844 0.24828 0.0
C931 C 0.02933 0.32648 0.282 0.0
H932 H 0.7642 0.98407 0.13348 0.0
H933 H 0.8491 0.00959 0.23969 0.0
H934 H 0.71294 0.97421 0.16764 0.0
H935 H 0.79807 0.0017 0.27457 0.0
H936 H 0.70143 0.95135 0.32327 0.0
H937 H 0.7505 0.95571 0.28637 0.0
H938 H 0.68159 0.00729 0.20909 0.0
H939 H 0.63104 -0.00043 0.24427 0.0
C940 C 0.77167 0.98813 0.16432 0.0
C941 C 0.81021 -0.00215 0.18426 0.0
C942 C 0.74244 0.98261 0.18392 0.0
C943 C 0.75131 0.98728 0.22391 0.0
C944 C 0.79016 -0.00283 0.24373 0.0
C945 C 0.81938 0.00202 0.22396 0.0
C946 C 0.69629 0.96252 0.29774 0.0
C947 C 0.66229 0.97475 0.28633 0.0
C948 C 0.72479 0.96581 0.27702 0.0
C949 C 0.72021 0.98214 0.24489 0.0
C950 C 0.68594 -0.00589 0.23338 0.0
C951 C 0.65716 0.99019 0.25378 0.0
H952 H 0.06673 0.85986 0.24055 0.0
H953 H 0.96585 0.78092 0.16721 0.0
H954 H 0.06978 0.81733 0.28545 0.0
H955 H 0.96873 0.73833 0.21191 0.0
H956 H 0.01559 0.65508 0.27987 0.0
H957 H 0.01614 0.69803 0.23556 0.0
H958 H 0.02597 0.79384 0.32885 0.0
H959 H 0.02553 0.75078 0.37314 0.0
C960 C 0.04534 0.83332 0.23417 0.0
C961 C 0.01601 0.82339 0.20083 0.0
C962 C 0.04694 0.80921 0.25977 0.0
C963 C 0.01952 0.77465 0.25195 0.0
C964 C 0.99034 0.76471 0.21835 0.0
C965 C 0.98848 0.78907 0.19306 0.0
C966 C 0.01831 0.68539 0.29083 0.0
C967 C 0.02051 0.69986 0.32967 0.0
C968 C 0.0183 0.70981 0.26555 0.0
C969 C 0.02099 0.74909 0.27891 0.0
C970 C 0.02406 0.76365 0.31798 0.0
C971 C 0.02354 0.73912 0.34316 0.0
H972 H 0.31453 0.00304 0.36824 0.0
H973 H 0.34616 0.10449 0.32588 0.0
H974 H 0.25833 0.97969 0.31434 0.0
H975 H 0.28999 0.0814 0.27213 0.0
H976 H 0.16288 0.03998 0.20376 0.0
H977 H 0.21479 0.06482 0.26169 0.0
H978 H 0.25396 0.95926 0.24088 0.0
H979 H 0.20242 0.93483 0.18301 0.0
C980 C 0.30905 0.02039 0.34755 0.0
C981 C 0.33429 0.05527 0.35068 0.0
C982 C 0.27722 0.00708 0.31682 0.0
C983 C 0.27009 0.02886 0.28933 0.0
C984 C 0.29485 0.06432 0.2932 0.0
C985 C 0.32695 0.07733 0.32359 0.0
C986 C 0.1827 0.02232 0.21184 0.0
C987 C 0.17931 0.98586 0.18929 0.0
C988 C 0.21221 0.0364 0.24469 0.0
C989 C 0.23806 0.01378 0.25554 0.0
C990 C 0.23409 0.97701 0.23317 0.0
C991 C 0.205 0.96322 0.20009 0.0
H992 H 0.96973 0.81593 0.83547 0.0
H993 H 0.08166 0.79169 0.8693 0.0
H994 H 0.95042 0.75676 0.78569 0.0
H995 H 0.06231 0.73214 0.82016 0.0
H996 H 0.02945 0.6728 0.68928 0.0
H997 H 0.04872 0.72233 0.74859 0.0
H998 H 0.93873 0.68497 0.77478 0.0
H999 H 0.9194 0.63596 0.71509 0.0
C1000 C 0.98981 0.79744 0.83257 0.0
C1001 C 0.02697 0.80792 0.85585 0.0
C1002 C 0.97878 0.76359 0.80446 0.0
C1003 C 0.00498 0.74006 0.7992 0.0
C1004 C 0.04172 0.74996 0.82361 0.0
C1005 C 0.05263 0.7837 0.85182 0.0
C1006 C 0.00975 0.67507 0.70809 0.0
C1007 C 0.97311 0.65102 0.69802 0.0
C1008 C 0.02078 0.70303 0.74203 0.0
C1009 C -0.00489 0.70734 0.76611 0.0
C1010 C 0.95889 0.68225 0.75655 0.0
C1011 C 0.94799 0.65417 0.72271 0.0
H1012 H 0.12972 0.9771 0.7456 0.0
H1013 H 0.21664 0.98088 0.84545 0.0
H1014 H 0.17876 0.9814 0.70779 0.0
H1015 H 0.26549 0.98435 0.80771 0.0
H1016 H 0.34544 0.03808 0.73813 0.0
H1017 H 0.29598 0.03252 0.77534 0.0
H1018 H 0.22291 0.9416 0.68375 0.0
H1019 H 0.27226 0.94783 0.64644 0.0
C1020 C 0.1593 0.97867 0.75929 0.0
C1021 C 0.16953 0.97838 0.79819 0.0
C1022 C 0.18724 0.98084 0.73771 0.0
C1023 C 0.22587 0.98318 0.75488 0.0
C1024 C 0.23597 0.98283 0.79384 0.0
C1025 C 0.20801 0.98038 0.81529 0.0
C1026 C 0.31874 0.01701 0.72614 0.0
C1027 C 0.31247 -0.00683 0.68981 0.0
C1028 C 0.29063 0.01362 0.7474 0.0
C1029 C 0.25571 0.98654 0.73241 0.0
C1030 C 0.24948 0.96283 0.69586 0.0
C1031 C 0.27775 0.96607 0.67475 0.0
H1032 H 0.96549 0.32458 0.69899 0.0
H1033 H 0.95455 0.22639 0.60804 0.0
H1034 H 0.96551 0.28355 0.74497 0.0
H1035 H 0.95498 0.18519 0.65416 0.0
H1036 H 0.91924 0.12334 0.7475 0.0
H1037 H 0.91367 0.16298 0.69998 0.0
H1038 H 0.01451 0.24568 0.76913 0.0
H1039 H 0.01979 0.2061 0.81648 0.0
C1040 C 0.96243 0.29408 0.68885 0.0
C1041 C 0.95988 0.27836 0.65022 0.0
C1042 C 0.96285 0.27077 0.7151 0.0
C1043 C 0.96044 0.23139 0.70297 0.0
C1044 C 0.95668 0.21548 0.66406 0.0
C1045 C 0.95667 0.23894 0.63785 0.0
C1046 C 0.93996 0.15012 0.75238 0.0
C1047 C 0.96977 0.16213 0.78535 0.0
C1048 C 0.93696 0.17254 0.72527 0.0
C1049 C 0.96353 0.20735 0.7312 0.0
C1050 C 0.99344 0.21914 0.76424 0.0
C1051 C -0.00335 0.19652 0.79105 0.0
H1052 H 0.68395 0.86692 0.63687 0.0
H1053 H 0.63873 0.96779 0.66436 0.0
H1054 H 0.73934 0.89397 0.6911 0.0
H1055 H 0.69402 -0.00506 0.7184 0.0
H1056 H 0.82109 0.0455 0.78094 0.0
H1057 H 0.76778 0.0171 0.72516 0.0
H1058 H 0.7478 0.91277 0.76581 0.0
H1059 H 0.80109 0.94153 0.82186 0.0
C1060 C 0.6861 0.89493 0.65449 0.0
C1061 C 0.65739 0.91541 0.64682 0.0
C1062 C 0.71747 0.91023 0.68548 0.0
C1063 C 0.72077 0.94646 0.7087 0.0
C1064 C 0.69214 0.96704 0.70069 0.0
C1065 C 0.66052 0.95148 0.67009 0.0
C1066 C 0.80543 0.01639 0.77759 0.0
C1067 C 0.81488 -0.00459 0.80517 0.0
C1068 C 0.77494 0.00031 0.74599 0.0
C1069 C 0.75386 0.96286 0.74139 0.0
C1070 C 0.7639 0.94161 0.76871 0.0
C1071 C 0.79408 0.95796 0.80064 0.0
H1072 H 0.32226 0.31432 0.9527 0.0
H1073 H 0.33006 0.29855 0.06776 0.0
H1074 H 0.26589 0.26123 0.9298 0.0
H1075 H 0.2726 0.24682 0.04578 0.0
H1076 H 0.18868 0.1338 0.98925 0.0
H1077 H 0.24732 0.18362 0.01097 0.0
H1078 H 0.20043 0.24685 0.93104 0.0
H1079 H 0.14329 0.19533 0.90726 0.0
C1080 C 0.31182 0.29912 0.9729 0.0
C1081 C 0.33025 0.30975 0.01168 0.0
C1082 C 0.27936 0.26914 0.96004 0.0
C1083 C 0.26444 0.24987 0.98598 0.0
C1084 C 0.28355 0.26052 0.02488 0.0
C1085 C 0.31632 0.29011 0.03755 0.0
C1086 C 0.19119 0.15815 0.97606 0.0
C1087 C 0.16159 0.16062 0.94645 0.0
C1088 C 0.22458 0.187 0.98884 0.0
C1089 C 0.22878 0.21927 0.97266 0.0
C1090 C 0.19856 0.2221 0.94367 0.0
C1091 C 0.16544 0.19294 0.93052 0.0
H1092 H 0.22798 0.62295 0.96306 0.0
H1093 H 0.33538 0.70259 0.9763 0.0
H1094 H 0.19615 0.67667 0.97471 0.0
H1095 H 0.30382 0.75619 0.98771 0.0
H1096 H 0.24187 0.83956 0.05035 0.0
H1097 H 0.27239 0.78482 0.03963 0.0
H1098 H 0.18032 0.72936 0.94089 0.0
H1099 H 0.14992 0.78392 0.95187 0.0
C1100 C 0.24455 0.65198 0.96816 0.0
C1101 C 0.28377 0.6589 0.96816 0.0
C1102 C 0.22647 0.68258 0.97474 0.0
C1103 C 0.2476 0.72049 0.98209 0.0
C1104 C 0.28695 0.72725 0.98232 0.0
C1105 C 0.30485 0.69668 0.9753 0.0
C1106 C 0.22831 0.81555 0.02648 0.0
C1107 C 0.19402 0.81589 0.0016 0.0
C1108 C 0.24574 0.78443 0.02022 0.0
C1109 C 0.22873 0.75302 0.98933 0.0
C1110 C 0.19392 0.75315 0.96497 0.0
C1111 C 0.17679 0.78444 0.97098 0.0
H1112 H 0.74069 0.34402 0.07132 0.0
H1113 H 0.67803 0.31227 0.95342 0.0
H1114 H 0.76943 0.28831 0.06089 0.0
H1115 H 0.70815 0.25789 0.94227 0.0
H1116 H 0.73549 0.14069 0.94735 0.0
H1117 H 0.70649 0.19644 0.95782 0.0
H1118 H 0.81518 0.26408 0.02872 0.0
H1119 H 0.84338 0.2079 0.01884 0.0
C1120 C 0.73333 0.32524 0.04314 0.0
C1121 C 0.70747 0.33255 0.01313 0.0
C1122 C 0.75003 0.29358 0.03701 0.0
C1123 C 0.74114 0.26865 0.00069 0.0
C1124 C 0.71533 0.27624 0.97066 0.0
C1125 C 0.69855 0.30776 0.97687 0.0
C1126 C 0.75289 0.16761 0.96511 0.0
C1127 C 0.79133 0.17039 0.98253 0.0
C1128 C 0.73652 0.19953 0.97097 0.0
C1129 C 0.75852 0.23474 -0.0058 0.0
C1130 C 0.79726 0.2373 0.01123 0.0
C1131 C 0.81348 0.20535 0.00546 0.0
H1132 H 0.84687 0.8106 0.98932 0.0
H1133 H 0.80625 0.84505 0.09125 0.0
H1134 H 0.78797 0.76046 0.9632 0.0
H1135 H 0.74743 0.79504 0.06536 0.0
H1136 H 0.67369 0.66946 0.01949 0.0
H1137 H 0.73061 0.72146 0.04728 0.0
H1138 H 0.71574 0.76031 0.94164 0.0
H1139 H 0.65866 0.70825 0.91405 0.0
C1140 C 0.82542 0.80702 0.00616 0.0
C1141 C 0.83071 0.83122 0.04212 0.0
C1142 C 0.79173 0.7788 0.99117 0.0
C1143 C 0.76322 0.77424 0.01225 0.0
C1144 C 0.76906 0.79801 0.04865 0.0
C1145 C 0.8025 0.8265 0.06338 0.0
C1146 C 0.68247 0.68955 0.00258 0.0
C1147 C 0.66225 0.68527 0.96487 0.0
C1148 C 0.71483 0.71916 0.01837 0.0
C1149 C 0.72758 0.74452 -0.00361 0.0
C1150 C 0.70661 0.74078 0.95893 0.0
C1151 C 0.67393 0.71142 0.94333 0.0
H1152 H 0.74149 0.50871 0.85146 0.0
H1153 H 0.63752 0.48675 0.76383 0.0
H1154 H 0.7784 0.49893 0.80254 0.0
H1155 H 0.67381 0.47529 0.71455 0.0
H1156 H 0.75752 0.50401 0.63934 0.0
H1157 H 0.71817 0.50842 0.68628 0.0
H1158 H 0.79133 0.45296 0.75509 0.0
H1159 H 0.83242 0.45161 0.70944 0.0
C1160 C 0.72662 0.5014 0.82159 0.0
C1161 C 0.68698 0.49884 0.81114 0.0
C1162 C 0.74759 0.49547 0.79355 0.0
C1163 C 0.72909 0.48621 0.7545 0.0
C1164 C 0.68912 0.48306 0.74427 0.0
C1165 C 0.6683 0.4896 0.77237 0.0
C1166 C 0.76529 0.49306 0.66467 0.0
C1167 C 0.79827 0.47799 0.67108 0.0
C1168 C 0.7424 0.495 0.69133 0.0
C1169 C 0.7517 0.48131 0.72471 0.0
C1170 C 0.78374 0.46448 0.7301 0.0
C1171 C 0.80694 0.46307 0.70363 0.0
H1172 H 0.14317 0.37922 0.68543 0.0
H1173 H 0.18942 0.45314 0.61749 0.0
H1174 H 0.19973 0.40671 0.73759 0.0
H1175 H 0.24729 0.47825 0.66789 0.0
H1176 H 0.3252 0.54631 0.78169 0.0
H1177 H 0.26955 0.51871 0.72861 0.0
H1178 H 0.26581 0.40782 0.75658 0.0
H1179 H 0.32042 0.43648 0.81095 0.0
C1180 C 0.16554 0.40124 0.68165 0.0
C1181 C 0.16214 0.41382 0.64737 0.0
C1182 C 0.19824 0.41656 0.71123 0.0
C1183 C 0.22833 0.44448 0.70687 0.0
C1184 C 0.22464 0.45707 0.67247 0.0
C1185 C 0.19172 0.4422 0.64324 0.0
C1186 C 0.31263 0.51594 0.7759 0.0
C1187 C 0.32686 0.49321 0.79972 0.0
C1188 C 0.28086 0.50005 0.74555 0.0
C1189 C 0.26308 0.46098 0.73827 0.0
C1190 C 0.27831 0.43811 0.76175 0.0
C1191 C 0.30978 0.45424 0.79248 0.0
H1192 H 0.22339 0.46814 0.33766 0.0
H1193 H 0.14717 0.51891 0.26702 0.0
H1194 H 0.26108 0.46148 0.28949 0.0
H1195 H 0.18682 0.5155 0.22007 0.0
H1196 H 0.24012 0.46493 0.12475 0.0
H1197 H 0.20151 0.47063 0.17275 0.0
H1198 H 0.30509 0.49616 0.26236 0.0
H1199 H 0.34296 0.48858 0.2141 0.0
C1200 C 0.21481 0.47801 0.31182 0.0
C1201 C 0.18219 0.49366 0.30584 0.0
C1202 C 0.23679 0.47482 0.28446 0.0
C1203 C 0.22702 0.48792 0.2508 0.0
C1204 C 0.19482 0.50453 0.24534 0.0
C1205 C 0.17247 0.50714 0.27253 0.0
C1206 C 0.2543 0.47147 0.15479 0.0
C1207 C 0.29415 0.47587 0.16605 0.0
C1208 C 0.23239 0.4751 0.18227 0.0
C1209 C 0.25018 0.48392 0.22148 0.0
C1210 C 0.2903 0.48856 0.23248 0.0
C1211 C 0.31204 0.48428 0.20496 0.0
H1212 H 0.67093 0.54473 0.19114 0.0
H1213 H 0.66532 0.43084 0.21039 0.0
H1214 H 0.72543 0.56968 0.24617 0.0
H1215 H 0.72096 0.45491 0.2642 0.0
H1216 H 0.80547 0.51447 0.37598 0.0
H1217 H 0.74592 0.49205 0.32701 0.0
H1218 H 0.79129 0.56792 0.25993 0.0
H1219 H 0.84942 0.59239 0.31046 0.0
C1220 C 0.68122 0.5253 0.20773 0.0
C1221 C 0.66422 0.4862 0.19731 0.0
C1222 C 0.71263 0.53931 0.23877 0.0
C1223 C 0.7279 0.5142 0.25929 0.0
C1224 C 0.7097 0.47512 0.24939 0.0
C1225 C 0.67794 0.46128 0.21868 0.0
C1226 C 0.80238 0.52666 0.35097 0.0
C1227 C 0.8318 0.5553 0.34702 0.0
C1228 C 0.76849 0.51351 0.3227 0.0
C1229 C 0.76367 0.52838 0.28965 0.0
C1230 C 0.79367 0.55643 0.28539 0.0
C1231 C 0.82731 0.56993 0.31394 0.0
H1232 H 0.31721 0.84797 0.57566 0.0
H1233 H 0.29905 0.83664 0.45366 0.0
H1234 H 0.2724 0.78702 0.56609 0.0
H1235 H 0.25204 0.7765 0.44353 0.0
H1236 H 0.2076 0.65253 0.43383 0.0
H1237 H 0.25402 0.71322 0.44848 0.0
H1238 H 0.20881 0.75246 0.54659 0.0
H1239 H 0.1649 0.69032 0.53362 0.0
C1240 C 0.3022 0.83293 0.54679 0.0
C1241 C 0.31076 0.8467 0.51528 0.0
C1242 C 0.27671 0.79801 0.54124 0.0
C1243 C 0.25904 0.77661 0.50403 0.0
C1244 C 0.26599 0.79182 0.47255 0.0
C1245 C 0.29214 0.82648 0.47817 0.0
C1246 C 0.20876 0.67363 0.45935 0.0
C1247 C 0.18277 0.66713 0.48259 0.0
C1248 C 0.23461 0.70875 0.46722 0.0
C1249 C 0.23432 0.73811 0.49803 0.0
C1250 C 0.20978 0.73056 0.52258 0.0
C1251 C 0.18449 0.69514 0.51509 0.0
H1252 H 0.12913 0.22224 0.44816 0.0
H1253 H 0.20705 0.33296 0.4792 0.0
H1254 H 0.18345 0.19203 0.46432 0.0
H1255 H 0.26127 0.30304 0.49491 0.0
H1256 H 0.33894 0.24013 0.56293 0.0
H1257 H 0.28312 0.2682 0.54628 0.0
H1258 H 0.2431 0.18255 0.4403 0.0
H1259 H 0.29858 0.15458 0.45723 0.0
C1260 C 0.158 0.23986 0.45778 0.0
C1261 C 0.16432 0.27959 0.46173 0.0
C1262 C 0.18892 0.22275 0.46705 0.0
C1263 C 0.2264 0.24533 0.48097 0.0
C1264 C 0.2326 0.28509 0.48453 0.0
C1265 C 0.20177 0.30209 0.47494 0.0
C1266 C 0.31796 0.22739 0.53627 0.0
C1267 C 0.32287 0.19569 0.51108 0.0
C1268 C 0.28632 0.24344 0.52664 0.0
C1269 C 0.25908 0.2276 0.4919 0.0
C1270 C 0.26363 0.19517 0.46727 0.0
C1271 C 0.29539 0.17941 0.47676 0.0
H1272 H 0.78032 0.65024 0.51751 0.0
H1273 H 0.85932 0.75475 0.51987 0.0
H1274 H 0.72632 0.68001 0.50163 0.0
H1275 H 0.80516 0.78416 0.50182 0.0
H1276 H 0.69843 0.8347 0.50746 0.0
H1277 H 0.75392 0.8072 0.52588 0.0
H1278 H 0.69461 0.70013 0.44689 0.0
H1279 H 0.63869 0.72774 0.42972 0.0
C1280 C 0.78611 0.67988 0.51542 0.0
C1281 C 0.82386 0.70055 0.52057 0.0
C1282 C 0.75518 0.69667 0.50548 0.0
C1283 C 0.76148 0.7343 0.50011 0.0
C1284 C 0.7994 0.75522 0.50605 0.0
C1285 C 0.83034 0.73843 0.51621 0.0
C1286 C 0.6977 0.80541 0.49397 0.0
C1287 C 0.66488 0.78308 0.46729 0.0
C1288 C 0.72932 0.78971 0.50433 0.0
C1289 C 0.72853 0.75145 0.48799 0.0
C1290 C 0.69578 0.7295 0.46046 0.0
C1291 C 0.66404 0.74522 0.4503 0.0
H1292 H 0.70553 0.14892 0.50617 0.0
H1293 H 0.67496 0.15182 0.38701 0.0
H1294 H 0.75373 0.20863 0.51841 0.0
H1295 H 0.72217 0.21216 0.39905 0.0
H1296 H 0.83471 0.30735 0.4366 0.0
H1297 H 0.79001 0.24478 0.4185 0.0
H1298 H 0.74664 0.274 0.52003 0.0
H1299 H 0.79248 0.33532 0.53879 0.0
C1300 C 0.71013 0.16194 0.48252 0.0
C1301 C 0.68738 0.14613 0.44573 0.0
C1302 C 0.73705 0.19629 0.48949 0.0
C1303 C 0.74102 0.21539 0.45979 0.0
C1304 C 0.7198 0.19804 0.42242 0.0
C1305 C 0.69305 0.16356 0.41547 0.0
C1306 C 0.81499 0.30043 0.45448 0.0
C1307 C 0.81674 0.32586 0.4889 0.0
C1308 C 0.78956 0.26475 0.44425 0.0
C1309 C 0.76556 0.25425 0.46837 0.0
C1310 C 0.76558 0.28095 0.50145 0.0
C1311 C 0.79112 0.3164 0.51174 0.0
H1312 H 0.49751 0.34562 0.83498 0.0
H1313 H 0.60634 0.31418 0.86596 0.0
H1314 H 0.47498 0.28771 0.78365 0.0
H1315 H 0.58389 0.25602 0.81475 0.0
H1316 H 0.5421 0.19173 0.68488 0.0
H1317 H 0.56609 0.24496 0.74121 0.0
H1318 H 0.46026 0.2152 0.77769 0.0
H1319 H 0.43635 0.16236 0.72128 0.0
C1320 C 0.51638 0.32607 0.83073 0.0
C1321 C 0.55345 0.33388 0.85387 0.0
C1322 C 0.50353 0.293 0.80176 0.0
C1323 C 0.52782 0.26764 0.79551 0.0
C1324 C 0.56483 0.27535 0.81906 0.0
C1325 C 0.57751 0.30827 0.8483 0.0
C1326 C 0.52431 0.19662 0.70524 0.0
C1327 C 0.4876 0.17345 0.69921 0.0
C1328 C 0.538 0.22668 0.73739 0.0
C1329 C 0.51486 0.23397 0.7635 0.0
C1330 C 0.47842 0.21014 0.75774 0.0
C1331 C 0.46492 0.17994 0.72581 0.0
H1332 H 0.46213 0.82865 0.69501 0.0
H1333 H 0.4529 0.72978 0.60541 0.0
H1334 H 0.46455 0.78887 0.74198 0.0
H1335 H 0.4562 0.68986 0.65265 0.0
H1336 H 0.42673 0.62761 0.74716 0.0
H1337 H 0.41861 0.66568 0.69855 0.0
H1338 H 0.51395 0.75479 0.76842 0.0
H1339 H 0.5214 0.71696 0.81709 0.0
C1340 C 0.45997 0.79824 0.68534 0.0
C1341 C 0.45715 0.78207 0.64673 0.0
C1342 C 0.46184 0.77562 0.71223 0.0
C1343 C 0.46085 0.73642 0.70091 0.0
C1344 C 0.45684 0.72 0.66204 0.0
C1345 C 0.4552 0.74276 0.63514 0.0
C1346 C 0.44565 0.65547 0.75202 0.0
C1347 C 0.47452 0.66971 0.78561 0.0
C1348 C 0.44125 0.67703 0.72421 0.0
C1349 C 0.46552 0.71319 0.72991 0.0
C1350 C 0.49456 0.72719 0.76357 0.0
C1351 C 0.49909 0.70552 0.79117 0.0
H1352 H 0.37385 0.6438 0.17012 0.0
H1353 H 0.47078 0.68541 0.12484 0.0
H1354 H 0.39442 0.69956 0.22398 0.0
H1355 H 0.49103 0.74158 0.17814 0.0
H1356 H 0.54114 0.80012 0.30568 0.0
H1357 H 0.51714 0.74857 0.24828 0.0
H1358 H 0.4036 0.77213 0.23885 0.0
H1359 H 0.42803 0.82393 0.29674 0.0
C1360 C 0.39935 0.66516 0.17166 0.0
C1361 C 0.42086 0.66067 0.14366 0.0
C1362 C 0.41088 0.69711 0.20213 0.0
C1363 C 0.44428 0.72474 0.20512 0.0
C1364 C 0.46528 0.72052 0.17654 0.0
C1365 C 0.45358 0.6887 0.14598 0.0
C1366 C 0.51107 0.79409 0.2912 0.0
C1367 C 0.48613 0.8153 0.30529 0.0
C1368 C 0.49744 0.76497 0.25833 0.0
C1369 C 0.45859 0.75658 0.23916 0.0
C1370 C 0.43363 0.77801 0.25332 0.0
C1371 C 0.44745 0.80747 0.28616 0.0
H1372 H 0.50559 0.14637 0.27381 0.0
H1373 H 0.51899 0.24525 0.36474 0.0
H1374 H 0.50333 0.18682 0.2273 0.0
H1375 H 0.51577 0.28573 0.31817 0.0
H1376 H 0.55214 0.34925 0.22807 0.0
H1377 H 0.55551 0.3089 0.27475 0.0
H1378 H 0.45872 0.22479 0.20009 0.0
H1379 H 0.45615 0.26491 0.15311 0.0
C1380 C 0.5083 0.17682 0.28378 0.0
C1381 C 0.51266 0.19289 0.32271 0.0
C1382 C 0.50655 0.19986 0.25719 0.0
C1383 C 0.50932 0.23936 0.26917 0.0
C1384 C 0.51387 0.2554 0.30822 0.0
C1385 C 0.51538 0.23229 0.33476 0.0
C1386 C 0.53189 0.32197 0.22167 0.0
C1387 C 0.504 0.30987 0.18721 0.0
C1388 C 0.53353 0.29912 0.24843 0.0
C1389 C 0.50739 0.26374 0.24098 0.0
C1390 C 0.47943 0.25177 0.20638 0.0
C1391 C 0.47769 0.27476 0.17974 0.0
loop_
_geom_bond_atom_site_label_1
_geom_bond_atom_site_label_2
_geom_bond_distance
_geom_bond_site_symmetry_2
_ccdc_geom_bond_type
C0 C1 1.388 . S
C0 N3 1.338 . S
C0 C5 1.503 . S
C1 C0 1.388 . S
C1 C2 1.396 . S
C2 C1 1.396 . S
C2 N4 1.348 . S
C2 C9 1.504 . S
N3 C0 1.338 . S
N3 N4 1.361 . S
N3 Cu168 1.924 . S
N4 C2 1.348 . S
N4 N3 1.361 . S
N4 Cu169 1.964 . S
C5 C0 1.503 . S
C5 H6 0.979 . S
C5 H7 0.979 . S
C5 H8 0.979 . S
H6 C5 0.979 . S
H7 C5 0.979 . S
H8 C5 0.979 . S
C9 C2 1.504 . S
C9 H10 0.981 . S
C9 H11 0.980 1_565 S
C9 H12 0.979 . S
H10 C9 0.981 . S
H11 C9 0.980 1_545 S
H12 C9 0.979 . S
C13 C15 1.402 . S
C13 N16 1.356 . S
C13 C21 1.481 . S
C14 C15 1.400 1_455 S
C14 N17 1.332 . S
C14 C25 1.503 . S
C15 C13 1.402 . S
C15 C14 1.400 1_655 S
N16 C13 1.356 . S
N16 N17 1.333 1_655 S
N16 Cu175 1.941 . S
N17 C14 1.332 . S
N17 N16 1.333 1_455 S
N17 Cu172 1.943 . S
H18 C21 0.980 . S
H19 C21 0.980 . S
H20 C21 0.980 . S
C21 C13 1.481 . S
C21 H18 0.980 . S
C21 H19 0.980 . S
C21 H20 0.980 . S
H22 C25 0.978 . S
H23 C25 0.978 . S
H24 C25 0.983 . S
C25 C14 1.503 . S
C25 H22 0.978 . S
C25 H23 0.978 . S
C25 H24 0.983 . S
C26 H180 0.979 . S
C26 H181 0.981 . S
C26 H182 0.981 . S
C26 O216 1.438 . S
C27 H183 0.980 . S
C27 H184 0.979 . S
C27 H185 0.980 1_554 S
C27 O217 1.533 . S
C28 N29 1.338 . S
C28 C31 1.388 . S
C28 C36 1.503 . S
N29 C28 1.338 . S
N29 N30 1.361 . S
N29 Cu170 1.924 . S
N30 N29 1.361 . S
N30 C32 1.348 . S
N30 Cu171 1.964 . S
C31 C28 1.388 . S
C31 C32 1.396 . S
C32 N30 1.348 . S
C32 C31 1.396 . S
C32 C40 1.504 . S
H33 C36 0.979 . S
H34 C36 0.979 . S
H35 C36 0.979 . S
C36 C28 1.503 . S
C36 H33 0.979 . S
C36 H34 0.979 . S
C36 H35 0.979 . S
H37 C40 0.981 . S
H38 C40 0.980 1_455 S
H39 C40 0.979 . S
C40 C32 1.504 . S
C40 H37 0.981 . S
C40 H38 0.980 1_655 S
C40 H39 0.979 . S
C41 N43 1.356 . S
C41 C45 1.402 . S
C41 C49 1.481 . S
C42 N44 1.332 . S
C42 C45 1.400 1_554 S
C42 C50 1.503 . S
N43 C41 1.356 . S
N43 N44 1.333 1_556 S
N43 Cu177 1.941 . S
N44 C42 1.332 . S
N44 N43 1.333 1_554 S
N44 Cu168 1.943 . S
C45 C41 1.402 . S
C45 C42 1.400 1_556 S
H46 C49 0.980 . S
H47 C49 0.980 . S
H48 C49 0.980 . S
C49 C41 1.481 . S
C49 H46 0.980 . S
C49 H47 0.980 . S
C49 H48 0.980 . S
C50 C42 1.503 . S
C50 H51 0.978 . S
C50 H52 0.978 . S
C50 H53 0.983 . S
H51 C50 0.978 . S
H52 C50 0.978 . S
H53 C50 0.983 . S
C54 H186 0.979 . S
C54 H187 0.981 . S
C54 H188 0.981 . S
C54 O218 1.438 . S
C55 H189 0.980 . S
C55 H190 0.979 . S
C55 H191 0.980 1_545 S
C55 O219 1.533 . S
C56 N57 1.338 . S
C56 C58 1.388 . S
C56 C64 1.503 . S
N57 C56 1.338 . S
N57 N59 1.361 . S
N57 Cu172 1.924 . S
C58 C56 1.388 . S
C58 C60 1.396 . S
N59 N57 1.361 . S
N59 C60 1.348 . S
N59 Cu173 1.964 . S
C60 C58 1.396 . S
C60 N59 1.348 . S
C60 C66 1.504 . S
H61 C64 0.979 . S
H62 C64 0.979 . S
H63 C64 0.979 . S
C64 C56 1.503 . S
C64 H61 0.979 . S
C64 H62 0.979 . S
C64 H63 0.979 . S
H65 C66 0.981 . S
C66 C60 1.504 . S
C66 H65 0.981 . S
C66 H67 0.979 . S
C66 H68 0.980 1_556 S
H67 C66 0.979 . S
H68 C66 0.980 1_554 S
C69 N71 1.356 . S
C69 C73 1.402 . S
C69 C75 1.481 . S
C70 N72 1.332 . S
C70 C73 1.400 1_545 S
C70 C80 1.503 . S
N71 C69 1.356 . S
N71 N72 1.333 1_565 S
N71 Cu179 1.941 . S
N72 C70 1.332 . S
N72 N71 1.333 1_545 S
N72 Cu170 1.943 . S
C73 C69 1.402 . S
C73 C70 1.400 1_565 S
H74 C75 0.980 . S
C75 C69 1.481 . S
C75 H74 0.980 . S
C75 H76 0.980 . S
C75 H77 0.980 . S
H76 C75 0.980 . S
H77 C75 0.980 . S
H78 C80 0.978 . S
H79 C80 0.978 . S
C80 C70 1.503 . S
C80 H78 0.978 . S
C80 H79 0.978 . S
C80 H81 0.983 . S
H81 C80 0.983 . S
C82 H192 0.979 . S
C82 H193 0.981 . S
C82 H194 0.981 . S
C82 O220 1.438 . S
C83 H195 0.980 . S
C83 H196 0.979 . S
C83 H197 0.980 1_455 S
C83 O221 1.533 . S
C84 N85 1.338 . S
C84 C86 1.388 . S
C84 C89 1.503 . S
N85 C84 1.338 . S
N85 N88 1.361 . S
N85 Cu174 1.924 . S
C86 C84 1.388 . S
C86 C87 1.396 . S
C87 C86 1.396 . S
C87 N88 1.348 . S
C87 C93 1.504 . S
N88 N85 1.361 . S
N88 C87 1.348 . S
N88 Cu175 1.964 . S
C89 C84 1.503 . S
C89 H90 0.979 . S
C89 H91 0.979 . S
C89 H92 0.979 . S
H90 C89 0.979 . S
H91 C89 0.979 . S
H92 C89 0.979 . S
C93 C87 1.504 . S
C93 H94 0.981 . S
C93 H95 0.980 1_545 S
C93 H96 0.979 . S
H94 C93 0.981 . S
H95 C93 0.980 1_565 S
H96 C93 0.979 . S
C97 C98 1.402 . S
C97 N100 1.356 . S
C97 C105 1.481 . S
C98 C97 1.402 . S
C98 C99 1.400 1_455 S
C99 C98 1.400 1_655 S
C99 N101 1.330 . S
C99 C106 1.503 . S
N100 C97 1.356 . S
N100 N101 1.340 1_455 S
N100 Cu169 1.941 . S
N101 C99 1.330 . S
N101 N100 1.340 1_655 S
N101 Cu178 1.939 . S
H102 C105 0.980 . S
H103 C105 0.980 . S
H104 C105 0.980 . S
C105 C97 1.481 . S
C105 H102 0.980 . S
C105 H103 0.980 . S
C105 H104 0.980 . S
C106 C99 1.503 . S
C106 H107 0.978 . S
C106 H108 0.978 . S
C106 H109 0.983 . S
H107 C106 0.978 . S
H108 C106 0.978 . S
H109 C106 0.983 . S
C110 H198 0.979 . S
C110 H199 0.981 . S
C110 H200 0.981 . S
C110 O222 1.438 . S
C111 H201 0.980 . S
C111 H202 0.979 . S
C111 H203 0.980 1_556 S
C111 O223 1.533 . S
C112 C113 1.388 . S
C112 N115 1.338 . S
C112 C117 1.503 . S
C113 C112 1.388 . S
C113 C114 1.396 . S
C114 C113 1.396 . S
C114 N116 1.348 . S
C114 C121 1.504 . S
N115 C112 1.338 . S
N115 N116 1.361 . S
N115 Cu176 1.924 . S
N116 C114 1.348 . S
N116 N115 1.361 . S
N116 Cu177 1.964 . S
C117 C112 1.503 . S
C117 H118 0.979 . S
C117 H119 0.979 . S
C117 H120 0.979 . S
H118 C117 0.979 . S
H119 C117 0.979 . S
H120 C117 0.979 . S
C121 C114 1.504 . S
C121 H122 0.981 . S
C121 H123 0.980 1_455 S
C121 H124 0.979 . S
H122 C121 0.981 . S
H123 C121 0.980 1_655 S
H124 C121 0.979 . S
C125 C126 1.402 . S
C125 N128 1.356 . S
C125 C130 1.481 . S
C126 C125 1.402 . S
C126 C127 1.400 1_554 S
C127 C126 1.400 1_556 S
C127 N129 1.330 . S
C127 C134 1.503 . S
N128 C125 1.356 . S
N128 N129 1.340 1_554 S
N128 Cu171 1.941 . S
N129 C127 1.330 . S
N129 N128 1.340 1_556 S
N129 Cu174 1.939 . S
C130 C125 1.481 . S
C130 H131 0.980 . S
C130 H132 0.980 . S
C130 H133 0.980 . S
H131 C130 0.980 . S
H132 C130 0.980 . S
H133 C130 0.980 . S
C134 C127 1.503 . S
C134 H135 0.978 . S
C134 H136 0.978 . S
C134 H137 0.983 . S
H135 C134 0.978 . S
H136 C134 0.978 . S
H137 C134 0.983 . S
C138 H204 0.979 . S
C138 H205 0.981 . S
C138 H206 0.981 . S
C138 O224 1.438 . S
C139 H207 0.980 . S
C139 H208 0.979 . S
C139 H209 0.980 1_565 S
C139 O225 1.533 . S
C140 N141 1.338 . S
C140 C143 1.388 . S
C140 C148 1.503 . S
N141 C140 1.338 . S
N141 N142 1.361 . S
N141 Cu178 1.924 . S
N142 N141 1.361 . S
N142 C144 1.348 . S
N142 Cu179 1.964 . S
C143 C140 1.388 . S
C143 C144 1.396 . S
C144 N142 1.348 . S
C144 C143 1.396 . S
C144 C152 1.504 . S
H145 C148 0.979 . S
H146 C148 0.979 . S
H147 C148 0.979 . S
C148 C140 1.503 . S
C148 H145 0.979 . S
C148 H146 0.979 . S
C148 H147 0.979 . S
H149 C152 0.981 . S
H150 C152 0.980 1_556 S
H151 C152 0.979 . S
C152 C144 1.504 . S
C152 H149 0.981 . S
C152 H150 0.980 1_554 S
C152 H151 0.979 . S
C153 N154 1.356 . S
C153 C156 1.402 . S
C153 C158 1.481 . S
N154 C153 1.356 . S
N154 N155 1.340 1_545 S
N154 Cu173 1.941 . S
N155 N154 1.340 1_565 S
N155 C157 1.330 . S
N155 Cu176 1.939 . S
C156 C153 1.402 . S
C156 C157 1.400 1_545 S
C157 N155 1.330 . S
C157 C156 1.400 1_565 S
C157 C162 1.503 . S
C158 C153 1.481 . S
C158 H159 0.980 . S
C158 H160 0.980 . S
C158 H161 0.980 . S
H159 C158 0.980 . S
H160 C158 0.980 . S
H161 C158 0.980 . S
C162 C157 1.503 . S
C162 H163 0.978 . S
C162 H164 0.978 . S
C162 H165 0.983 . S
H163 C162 0.978 . S
H164 C162 0.978 . S
H165 C162 0.983 . S
C166 H210 0.979 . S
C166 H211 0.981 . S
C166 H212 0.981 . S
C166 O226 1.438 . S
C167 H213 0.980 . S
C167 H214 0.979 . S
C167 H215 0.980 1_655 S
C167 O227 1.533 . S
Cu168 N3 1.924 . S
Cu168 N44 1.943 . S
Cu168 O216 1.923 . S
Cu168 O217 1.930 . S
Cu169 N4 1.964 . S
Cu169 N100 1.941 . S
Cu169 O216 1.905 . S
Cu169 O227 1.920 1_455 S
Cu170 N29 1.924 . S
Cu170 N72 1.943 . S
Cu170 O218 1.923 . S
Cu170 O219 1.930 . S
Cu171 N30 1.964 . S
Cu171 N128 1.941 . S
Cu171 O218 1.905 . S
Cu171 O223 1.920 1_554 S
Cu172 N17 1.943 . S
Cu172 N57 1.924 . S
Cu172 O220 1.923 . S
Cu172 O221 1.930 . S
Cu173 N59 1.964 . S
Cu173 N154 1.941 . S
Cu173 O220 1.905 . S
Cu173 O225 1.920 1_545 S
Cu174 N85 1.924 . S
Cu174 N129 1.939 . S
Cu174 O222 1.923 . S
Cu174 O223 1.930 . S
Cu175 N16 1.941 . S
Cu175 N88 1.964 . S
Cu175 O221 1.920 1_655 S
Cu175 O222 1.905 . S
Cu176 N115 1.924 . S
Cu176 N155 1.939 . S
Cu176 O224 1.923 . S
Cu176 O225 1.930 . S
Cu177 N43 1.941 . S
Cu177 N116 1.964 . S
Cu177 O217 1.920 1_556 S
Cu177 O224 1.905 . S
Cu178 N101 1.939 . S
Cu178 N141 1.924 . S
Cu178 O226 1.923 . S
Cu178 O227 1.930 . S
Cu179 N71 1.941 . S
Cu179 N142 1.964 . S
Cu179 O219 1.920 1_565 S
Cu179 O226 1.905 . S
H180 C26 0.979 . S
H181 C26 0.981 . S
H182 C26 0.981 . S
H183 C27 0.980 . S
H184 C27 0.979 . S
H185 C27 0.980 1_556 S
H186 C54 0.979 . S
H187 C54 0.981 . S
H188 C54 0.981 . S
H189 C55 0.980 . S
H190 C55 0.979 . S
H191 C55 0.980 1_565 S
H192 C82 0.979 . S
H193 C82 0.981 . S
H194 C82 0.981 . S
H195 C83 0.980 . S
H196 C83 0.979 . S
H197 C83 0.980 1_655 S
H198 C110 0.979 . S
H199 C110 0.981 . S
H200 C110 0.981 . S
H201 C111 0.980 . S
H202 C111 0.979 . S
H203 C111 0.980 1_554 S
H204 C138 0.979 . S
H205 C138 0.981 . S
H206 C138 0.981 . S
H207 C139 0.980 . S
H208 C139 0.979 . S
H209 C139 0.980 1_545 S
H210 C166 0.979 . S
H211 C166 0.981 . S
H212 C166 0.981 . S
H213 C167 0.980 . S
H214 C167 0.979 . S
H215 C167 0.980 1_455 S
O216 C26 1.438 . S
O216 Cu168 1.923 . S
O216 Cu169 1.905 . S
O217 C27 1.533 . S
O217 Cu168 1.930 . S
O217 Cu177 1.920 1_554 S
O218 C54 1.438 . S
O218 Cu170 1.923 . S
O218 Cu171 1.905 . S
O219 C55 1.533 . S
O219 Cu170 1.930 . S
O219 Cu179 1.920 1_545 S
O220 C82 1.438 . S
O220 Cu172 1.923 . S
O220 Cu173 1.905 . S
O221 C83 1.533 . S
O221 Cu172 1.930 . S
O221 Cu175 1.920 1_455 S
O222 C110 1.438 . S
O222 Cu174 1.923 . S
O222 Cu175 1.905 . S
O223 C111 1.533 . S
O223 Cu171 1.920 1_556 S
O223 Cu174 1.930 . S
O224 C138 1.438 . S
O224 Cu176 1.923 . S
O224 Cu177 1.905 . S
O225 C139 1.533 . S
O225 Cu173 1.920 1_565 S
O225 Cu176 1.930 . S
O226 C166 1.438 . S
O226 Cu178 1.923 . S
O226 Cu179 1.905 . S
O227 C167 1.533 . S
O227 Cu169 1.920 1_655 S
O227 Cu178 1.930 . S
C228 C229 1.388 . S
C228 N231 1.338 . S
C228 C233 1.503 . S
C229 C228 1.388 . S
C229 C230 1.396 . S
C230 C229 1.396 . S
C230 N232 1.348 . S
C230 C237 1.504 . S
N231 C228 1.338 . S
N231 N232 1.361 . S
N231 Cu396 1.924 . S
N232 C230 1.348 . S
N232 N231 1.361 . S
N232 Cu397 1.964 . S
C233 C228 1.503 . S
C233 H234 0.979 . S
C233 H235 0.979 . S
C233 H236 0.979 . S
H234 C233 0.979 . S
H235 C233 0.979 . S
H236 C233 0.979 . S
C237 C230 1.504 . S
C237 H238 0.981 . S
C237 H239 0.980 . S
C237 H240 0.979 . S
H238 C237 0.981 . S
H239 C237 0.980 . S
H240 C237 0.979 . S
C241 C243 1.402 . S
C241 N244 1.356 . S
C241 C249 1.481 . S
C242 C243 1.400 1_455 S
C242 N245 1.332 . S
C242 C253 1.503 . S
C243 C241 1.402 . S
C243 C242 1.400 1_655 S
N244 C241 1.356 . S
N244 N245 1.333 1_655 S
N244 Cu403 1.941 . S
N245 C242 1.332 . S
N245 N244 1.333 1_455 S
N245 Cu400 1.943 . S
H246 C249 0.980 . S
H247 C249 0.980 . S
H248 C249 0.980 . S
C249 C241 1.481 . S
C249 H246 0.980 . S
C249 H247 0.980 . S
C249 H248 0.980 . S
H250 C253 0.978 . S
H251 C253 0.978 . S
H252 C253 0.983 . S
C253 C242 1.503 . S
C253 H250 0.978 . S
C253 H251 0.978 . S
C253 H252 0.983 . S
C254 H408 0.979 . S
C254 H409 0.981 . S
C254 H410 0.981 . S
C254 O444 1.438 . S
C255 H411 0.980 . S
C255 H412 0.979 . S
C255 H413 0.980 . S
C255 O445 1.533 . S
C256 N257 1.338 . S
C256 C259 1.388 . S
C256 C264 1.503 . S
N257 C256 1.338 . S
N257 N258 1.361 . S
N257 Cu398 1.924 . S
N258 N257 1.361 . S
N258 C260 1.348 . S
N258 Cu399 1.964 . S
C259 C256 1.388 . S
C259 C260 1.396 . S
C260 N258 1.348 . S
C260 C259 1.396 . S
C260 C268 1.504 . S
H261 C264 0.979 . S
H262 C264 0.979 . S
H263 C264 0.979 . S
C264 C256 1.503 . S
C264 H261 0.979 . S
C264 H262 0.979 . S
C264 H263 0.979 . S
H265 C268 0.981 . S
H266 C268 0.980 1_455 S
H267 C268 0.979 . S
C268 C260 1.504 . S
C268 H265 0.981 . S
C268 H266 0.980 1_655 S
C268 H267 0.979 . S
C269 N271 1.356 . S
C269 C273 1.402 . S
C269 C277 1.481 . S
C270 N272 1.325 . S
C270 C273 1.400 . S
C270 C278 1.503 . S
N271 C269 1.356 . S
N271 N272 1.365 . S
N271 Cu405 1.941 . S
N272 C270 1.325 . S
N272 N271 1.365 . S
N272 Cu396 1.924 . S
C273 C269 1.402 . S
C273 C270 1.400 . S
H274 C277 0.980 . S
H275 C277 0.980 . S
H276 C277 0.980 . S
C277 C269 1.481 . S
C277 H274 0.980 . S
C277 H275 0.980 . S
C277 H276 0.980 . S
C278 C270 1.503 . S
C278 H279 0.978 . S
C278 H280 0.978 . S
C278 H281 0.983 . S
H279 C278 0.978 . S
H280 C278 0.978 . S
H281 C278 0.983 . S
C282 H414 0.979 . S
C282 H415 0.981 . S
C282 H416 0.981 . S
C282 O446 1.438 . S
C283 H417 0.980 . S
C283 H418 0.979 . S
C283 H419 0.980 . S
C283 O447 1.533 . S
C284 N285 1.338 . S
C284 C286 1.388 . S
C284 C292 1.503 . S
N285 C284 1.338 . S
N285 N287 1.361 . S
N285 Cu400 1.924 . S
C286 C284 1.388 . S
C286 C288 1.396 . S
N287 N285 1.361 . S
N287 C288 1.348 . S
N287 Cu401 1.964 . S
C288 C286 1.396 . S
C288 N287 1.348 . S
C288 C294 1.504 . S
H289 C292 0.979 . S
H290 C292 0.979 . S
H291 C292 0.979 . S
C292 C284 1.503 . S
C292 H289 0.979 . S
C292 H290 0.979 . S
C292 H291 0.979 . S
H293 C294 0.981 . S
C294 C288 1.504 . S
C294 H293 0.981 . S
C294 H295 0.979 . S
C294 H296 0.980 . S
H295 C294 0.979 . S
H296 C294 0.980 . S
C297 N299 1.356 . S
C297 C301 1.402 . S
C297 C303 1.481 . S
C298 N300 1.325 . S
C298 C301 1.400 . S
C298 C308 1.503 . S
N299 C297 1.356 . S
N299 N300 1.365 . S
N299 Cu407 1.941 . S
N300 C298 1.325 . S
N300 N299 1.365 . S
N300 Cu398 1.924 . S
C301 C297 1.402 . S
C301 C298 1.400 . S
H302 C303 0.980 . S
C303 C297 1.481 . S
C303 H302 0.980 . S
C303 H304 0.980 . S
C303 H305 0.980 . S
H304 C303 0.980 . S
H305 C303 0.980 . S
H306 C308 0.978 . S
H307 C308 0.978 . S
C308 C298 1.503 . S
C308 H306 0.978 . S
C308 H307 0.978 . S
C308 H309 0.983 . S
H309 C308 0.983 . S
C310 H420 0.979 . S
C310 H421 0.981 . S
C310 H422 0.981 . S
C310 O448 1.438 . S
C311 H423 0.980 . S
C311 H424 0.979 . S
C311 H425 0.980 1_455 S
C311 O449 1.533 . S
C312 N313 1.338 . S
C312 C314 1.388 . S
C312 C317 1.503 . S
N313 C312 1.338 . S
N313 N316 1.361 . S
N313 Cu402 1.924 . S
C314 C312 1.388 . S
C314 C315 1.396 . S
C315 C314 1.396 . S
C315 N316 1.348 . S
C315 C321 1.504 . S
N316 N313 1.361 . S
N316 C315 1.348 . S
N316 Cu403 1.964 . S
C317 C312 1.503 . S
C317 H318 0.979 . S
C317 H319 0.979 . S
C317 H320 0.979 . S
H318 C317 0.979 . S
H319 C317 0.979 . S
H320 C317 0.979 . S
C321 C315 1.504 . S
C321 H322 0.981 . S
C321 H323 0.980 . S
C321 H324 0.979 . S
H322 C321 0.981 . S
H323 C321 0.980 . S
H324 C321 0.979 . S
C325 C326 1.402 . S
C325 N328 1.356 . S
C325 C333 1.481 . S
C326 C325 1.402 . S
C326 C327 1.400 1_455 S
C327 C326 1.400 1_655 S
C327 N329 1.330 . S
C327 C334 1.503 . S
N328 C325 1.356 . S
N328 N329 1.340 1_455 S
N328 Cu397 1.941 . S
N329 C327 1.330 . S
N329 N328 1.340 1_655 S
N329 Cu406 1.939 . S
H330 C333 0.980 . S
H331 C333 0.980 . S
H332 C333 0.980 . S
C333 C325 1.481 . S
C333 H330 0.980 . S
C333 H331 0.980 . S
C333 H332 0.980 . S
C334 C327 1.503 . S
C334 H335 0.978 . S
C334 H336 0.978 . S
C334 H337 0.983 . S
H335 C334 0.978 . S
H336 C334 0.978 . S
H337 C334 0.983 . S
C338 H426 0.979 . S
C338 H427 0.981 . S
C338 H428 0.981 . S
C338 O450 1.438 . S
C339 H429 0.980 . S
C339 H430 0.979 . S
C339 H431 0.980 . S
C339 O451 1.533 . S
C340 C341 1.388 . S
C340 N343 1.338 . S
C340 C345 1.503 . S
C341 C340 1.388 . S
C341 C342 1.396 . S
C342 C341 1.396 . S
C342 N344 1.348 . S
C342 C349 1.504 . S
N343 C340 1.338 . S
N343 N344 1.361 . S
N343 Cu404 1.924 . S
N344 C342 1.348 . S
N344 N343 1.361 . S
N344 Cu405 1.964 . S
C345 C340 1.503 . S
C345 H346 0.979 . S
C345 H347 0.979 . S
C345 H348 0.979 . S
H346 C345 0.979 . S
H347 C345 0.979 . S
H348 C345 0.979 . S
C349 C342 1.504 . S
C349 H350 0.981 . S
C349 H351 0.980 1_455 S
C349 H352 0.979 . S
H350 C349 0.981 . S
H351 C349 0.980 1_655 S
H352 C349 0.979 . S
C353 C354 1.402 . S
C353 N356 1.356 . S
C353 C358 1.481 . S
C354 C353 1.402 . S
C354 C355 1.400 . S
C355 C354 1.400 . S
C355 N357 1.325 . S
C355 C362 1.503 . S
N356 C353 1.356 . S
N356 N357 1.365 . S
N356 Cu399 1.941 . S
N357 C355 1.325 . S
N357 N356 1.365 . S
N357 Cu402 1.924 . S
C358 C353 1.481 . S
C358 H359 0.980 . S
C358 H360 0.980 . S
C358 H361 0.980 . S
H359 C358 0.980 . S
H360 C358 0.980 . S
H361 C358 0.980 . S
C362 C355 1.503 . S
C362 H363 0.978 . S
C362 H364 0.978 . S
C362 H365 0.983 . S
H363 C362 0.978 . S
H364 C362 0.978 . S
H365 C362 0.983 . S
C366 H432 0.979 . S
C366 H433 0.981 . S
C366 H434 0.981 . S
C366 O452 1.438 . S
C367 H435 0.980 . S
C367 H436 0.979 . S
C367 H437 0.980 . S
C367 O453 1.533 . S
C368 N369 1.338 . S
C368 C371 1.388 . S
C368 C376 1.503 . S
N369 C368 1.338 . S
N369 N370 1.361 . S
N369 Cu406 1.924 . S
N370 N369 1.361 . S
N370 C372 1.348 . S
N370 Cu407 1.964 . S
C371 C368 1.388 . S
C371 C372 1.396 . S
C372 N370 1.348 . S
C372 C371 1.396 . S
C372 C380 1.504 . S
H373 C376 0.979 . S
H374 C376 0.979 . S
H375 C376 0.979 . S
C376 C368 1.503 . S
C376 H373 0.979 . S
C376 H374 0.979 . S
C376 H375 0.979 . S
H377 C380 0.981 . S
H378 C380 0.980 . S
H379 C380 0.979 . S
C380 C372 1.504 . S
C380 H377 0.981 . S
C380 H378 0.980 . S
C380 H379 0.979 . S
C381 N382 1.356 . S
C381 C384 1.402 . S
C381 C386 1.481 . S
N382 C381 1.356 . S
N382 N383 1.365 . S
N382 Cu401 1.941 . S
N383 N382 1.365 . S
N383 C385 1.325 . S
N383 Cu404 1.924 . S
C384 C381 1.402 . S
C384 C385 1.400 . S
C385 N383 1.325 . S
C385 C384 1.400 . S
C385 C390 1.503 . S
C386 C381 1.481 . S
C386 H387 0.980 . S
C386 H388 0.980 . S
C386 H389 0.980 . S
H387 C386 0.980 . S
H388 C386 0.980 . S
H389 C386 0.980 . S
C390 C385 1.503 . S
C390 H391 0.978 . S
C390 H392 0.978 . S
C390 H393 0.983 . S
H391 C390 0.978 . S
H392 C390 0.978 . S
H393 C390 0.983 . S
C394 H438 0.979 . S
C394 H439 0.981 . S
C394 H440 0.981 . S
C394 O454 1.438 . S
C395 H441 0.980 . S
C395 H442 0.979 . S
C395 H443 0.980 1_655 S
C395 O455 1.533 . S
Cu396 N231 1.924 . S
Cu396 N272 1.924 . S
Cu396 O444 1.923 . S
Cu396 O445 1.930 . S
Cu397 N232 1.964 . S
Cu397 N328 1.941 . S
Cu397 O444 1.905 . S
Cu397 O455 1.920 1_455 S
Cu398 N257 1.924 . S
Cu398 N300 1.924 . S
Cu398 O446 1.923 . S
Cu398 O447 1.930 . S
Cu399 N258 1.964 . S
Cu399 N356 1.941 . S
Cu399 O446 1.905 . S
Cu399 O451 1.920 . S
Cu400 N245 1.943 . S
Cu400 N285 1.924 . S
Cu400 O448 1.923 . S
Cu400 O449 1.930 . S
Cu401 N287 1.964 . S
Cu401 N382 1.941 . S
Cu401 O448 1.905 . S
Cu401 O453 1.920 . S
Cu402 N313 1.924 . S
Cu402 N357 1.924 . S
Cu402 O450 1.923 . S
Cu402 O451 1.930 . S
Cu403 N244 1.941 . S
Cu403 N316 1.964 . S
Cu403 O449 1.920 1_655 S
Cu403 O450 1.905 . S
Cu404 N343 1.924 . S
Cu404 N383 1.924 . S
Cu404 O452 1.923 . S
Cu404 O453 1.930 . S
Cu405 N271 1.941 . S
Cu405 N344 1.964 . S
Cu405 O445 1.920 . S
Cu405 O452 1.905 . S
Cu406 N329 1.939 . S
Cu406 N369 1.924 . S
Cu406 O454 1.923 . S
Cu406 O455 1.930 . S
Cu407 N299 1.941 . S
Cu407 N370 1.964 . S
Cu407 O447 1.920 . S
Cu407 O454 1.905 . S
H408 C254 0.979 . S
H409 C254 0.981 . S
H410 C254 0.981 . S
H411 C255 0.980 . S
H412 C255 0.979 . S
H413 C255 0.980 . S
H414 C282 0.979 . S
H415 C282 0.981 . S
H416 C282 0.981 . S
H417 C283 0.980 . S
H418 C283 0.979 . S
H419 C283 0.980 . S
H420 C310 0.979 . S
H421 C310 0.981 . S
H422 C310 0.981 . S
H423 C311 0.980 . S
H424 C311 0.979 . S
H425 C311 0.980 1_655 S
H426 C338 0.979 . S
H427 C338 0.981 . S
H428 C338 0.981 . S
H429 C339 0.980 . S
H430 C339 0.979 . S
H431 C339 0.980 . S
H432 C366 0.979 . S
H433 C366 0.981 . S
H434 C366 0.981 . S
H435 C367 0.980 . S
H436 C367 0.979 . S
H437 C367 0.980 . S
H438 C394 0.979 . S
H439 C394 0.981 . S
H440 C394 0.981 . S
H441 C395 0.980 . S
H442 C395 0.979 . S
H443 C395 0.980 1_455 S
O444 C254 1.438 . S
O444 Cu396 1.923 . S
O444 Cu397 1.905 . S
O445 C255 1.533 . S
O445 Cu396 1.930 . S
O445 Cu405 1.920 . S
O446 C282 1.438 . S
O446 Cu398 1.923 . S
O446 Cu399 1.905 . S
O447 C283 1.533 . S
O447 Cu398 1.930 . S
O447 Cu407 1.920 . S
O448 C310 1.438 . S
O448 Cu400 1.923 . S
O448 Cu401 1.905 . S
O449 C311 1.533 . S
O449 Cu400 1.930 . S
O449 Cu403 1.920 1_455 S
O450 C338 1.438 . S
O450 Cu402 1.923 . S
O450 Cu403 1.905 . S
O451 C339 1.533 . S
O451 Cu399 1.920 . S
O451 Cu402 1.930 . S
O452 C366 1.438 . S
O452 Cu404 1.923 . S
O452 Cu405 1.905 . S
O453 C367 1.533 . S
O453 Cu401 1.920 . S
O453 Cu404 1.930 . S
O454 C394 1.438 . S
O454 Cu406 1.923 . S
O454 Cu407 1.905 . S
O455 C395 1.533 . S
O455 Cu397 1.920 1_655 S
O455 Cu406 1.930 . S
C456 C457 1.388 . S
C456 N459 1.338 . S
C456 C461 1.503 . S
C457 C456 1.388 . S
C457 C458 1.396 . S
C458 C457 1.396 . S
C458 N460 1.348 . S
C458 C465 1.504 . S
N459 C456 1.338 . S
N459 N460 1.361 . S
N459 Cu624 1.924 . S
N460 C458 1.348 . S
N460 N459 1.361 . S
N460 Cu625 1.964 . S
C461 C456 1.503 . S
C461 H462 0.979 . S
C461 H463 0.979 . S
C461 H464 0.979 . S
H462 C461 0.979 . S
H463 C461 0.979 . S
H464 C461 0.979 . S
C465 C458 1.504 . S
C465 H466 0.981 . S
C465 H467 0.980 1_565 S
C465 H468 0.979 . S
H466 C465 0.981 . S
H467 C465 0.980 1_545 S
H468 C465 0.979 . S
C469 C471 1.402 . S
C469 N472 1.356 . S
C469 C477 1.481 . S
C470 C471 1.400 . S
C470 N473 1.325 . S
C470 C481 1.503 . S
C471 C469 1.402 . S
C471 C470 1.400 . S
N472 C469 1.356 . S
N472 N473 1.365 . S
N472 Cu631 1.941 . S
N473 C470 1.325 . S
N473 N472 1.365 . S
N473 Cu628 1.924 . S
H474 C477 0.980 . S
H475 C477 0.980 . S
H476 C477 0.980 . S
C477 C469 1.481 . S
C477 H474 0.980 . S
C477 H475 0.980 . S
C477 H476 0.980 . S
H478 C481 0.978 . S
H479 C481 0.978 . S
H480 C481 0.983 . S
C481 C470 1.503 . S
C481 H478 0.978 . S
C481 H479 0.978 . S
C481 H480 0.983 . S
C482 H636 0.979 . S
C482 H637 0.981 . S
C482 H638 0.981 . S
C482 O672 1.438 . S
C483 H639 0.980 . S
C483 H640 0.979 . S
C483 H641 0.980 . S
C483 O673 1.533 . S
C484 N485 1.338 . S
C484 C487 1.388 . S
C484 C492 1.503 . S
N485 C484 1.338 . S
N485 N486 1.361 . S
N485 Cu626 1.924 . S
N486 N485 1.361 . S
N486 C488 1.348 . S
N486 Cu627 1.964 . S
C487 C484 1.388 . S
C487 C488 1.396 . S
C488 N486 1.348 . S
C488 C487 1.396 . S
C488 C496 1.504 . S
H489 C492 0.979 . S
H490 C492 0.979 . S
H491 C492 0.979 . S
C492 C484 1.503 . S
C492 H489 0.979 . S
C492 H490 0.979 . S
C492 H491 0.979 . S
H493 C496 0.981 . S
H494 C496 0.980 . S
H495 C496 0.979 . S
C496 C488 1.504 . S
C496 H493 0.981 . S
C496 H494 0.980 . S
C496 H495 0.979 . S
C497 N499 1.356 . S
C497 C501 1.402 . S
C497 C505 1.481 . S
C498 N500 1.325 . S
C498 C501 1.400 . S
C498 C506 1.503 . S
N499 C497 1.356 . S
N499 N500 1.365 . S
N499 Cu633 1.941 . S
N500 C498 1.325 . S
N500 N499 1.365 . S
N500 Cu624 1.924 . S
C501 C497 1.402 . S
C501 C498 1.400 . S
H502 C505 0.980 . S
H503 C505 0.980 . S
H504 C505 0.980 . S
C505 C497 1.481 . S
C505 H502 0.980 . S
C505 H503 0.980 . S
C505 H504 0.980 . S
C506 C498 1.503 . S
C506 H507 0.978 . S
C506 H508 0.978 . S
C506 H509 0.983 . S
H507 C506 0.978 . S
H508 C506 0.978 . S
H509 C506 0.983 . S
C510 H642 0.979 . S
C510 H643 0.981 . S
C510 H644 0.981 . S
C510 O674 1.438 . S
C511 H645 0.980 . S
C511 H646 0.979 . S
C511 H647 0.980 1_545 S
C511 O675 1.533 . S
C512 N513 1.338 . S
C512 C514 1.388 . S
C512 C520 1.503 . S
N513 C512 1.338 . S
N513 N515 1.361 . S
N513 Cu628 1.924 . S
C514 C512 1.388 . S
C514 C516 1.396 . S
N515 N513 1.361 . S
N515 C516 1.348 . S
N515 Cu629 1.964 . S
C516 C514 1.396 . S
C516 N515 1.348 . S
C516 C522 1.504 . S
H517 C520 0.979 . S
H518 C520 0.979 . S
H519 C520 0.979 . S
C520 C512 1.503 . S
C520 H517 0.979 . S
C520 H518 0.979 . S
C520 H519 0.979 . S
H521 C522 0.981 . S
C522 C516 1.504 . S
C522 H521 0.981 . S
C522 H523 0.979 . S
C522 H524 0.980 . S
H523 C522 0.979 . S
H524 C522 0.980 . S
C525 N527 1.356 . S
C525 C529 1.402 . S
C525 C531 1.481 . S
C526 N528 1.332 . S
C526 C529 1.400 1_545 S
C526 C536 1.503 . S
N527 C525 1.356 . S
N527 N528 1.333 1_565 S
N527 Cu635 1.941 . S
N528 C526 1.332 . S
N528 N527 1.333 1_545 S
N528 Cu626 1.943 . S
C529 C525 1.402 . S
C529 C526 1.400 1_565 S
H530 C531 0.980 . S
C531 C525 1.481 . S
C531 H530 0.980 . S
C531 H532 0.980 . S
C531 H533 0.980 . S
H532 C531 0.980 . S
H533 C531 0.980 . S
H534 C536 0.978 . S
H535 C536 0.978 . S
C536 C526 1.503 . S
C536 H534 0.978 . S
C536 H535 0.978 . S
C536 H537 0.983 . S
H537 C536 0.983 . S
C538 H648 0.979 . S
C538 H649 0.981 . S
C538 H650 0.981 . S
C538 O676 1.438 . S
C539 H651 0.980 . S
C539 H652 0.979 . S
C539 H653 0.980 . S
C539 O677 1.533 . S
C540 N541 1.338 . S
C540 C542 1.388 . S
C540 C545 1.503 . S
N541 C540 1.338 . S
N541 N544 1.361 . S
N541 Cu630 1.924 . S
C542 C540 1.388 . S
C542 C543 1.396 . S
C543 C542 1.396 . S
C543 N544 1.348 . S
C543 C549 1.504 . S
N544 N541 1.361 . S
N544 C543 1.348 . S
N544 Cu631 1.964 . S
C545 C540 1.503 . S
C545 H546 0.979 . S
C545 H547 0.979 . S
C545 H548 0.979 . S
H546 C545 0.979 . S
H547 C545 0.979 . S
H548 C545 0.979 . S
C549 C543 1.504 . S
C549 H550 0.981 . S
C549 H551 0.980 1_545 S
C549 H552 0.979 . S
H550 C549 0.981 . S
H551 C549 0.980 1_565 S
H552 C549 0.979 . S
C553 C554 1.402 . S
C553 N556 1.356 . S
C553 C561 1.481 . S
C554 C553 1.402 . S
C554 C555 1.400 . S
C555 C554 1.400 . S
C555 N557 1.325 . S
C555 C562 1.503 . S
N556 C553 1.356 . S
N556 N557 1.365 . S
N556 Cu625 1.941 . S
N557 C555 1.325 . S
N557 N556 1.365 . S
N557 Cu634 1.924 . S
H558 C561 0.980 . S
H559 C561 0.980 . S
H560 C561 0.980 . S
C561 C553 1.481 . S
C561 H558 0.980 . S
C561 H559 0.980 . S
C561 H560 0.980 . S
C562 C555 1.503 . S
C562 H563 0.978 . S
C562 H564 0.978 . S
C562 H565 0.983 . S
H563 C562 0.978 . S
H564 C562 0.978 . S
H565 C562 0.983 . S
C566 H654 0.979 . S
C566 H655 0.981 . S
C566 H656 0.981 . S
C566 O678 1.438 . S
C567 H657 0.980 . S
C567 H658 0.979 . S
C567 H659 0.980 . S
C567 O679 1.533 . S
C568 C569 1.388 . S
C568 N571 1.338 . S
C568 C573 1.503 . S
C569 C568 1.388 . S
C569 C570 1.396 . S
C570 C569 1.396 . S
C570 N572 1.348 . S
C570 C577 1.504 . S
N571 C568 1.338 . S
N571 N572 1.361 . S
N571 Cu632 1.924 . S
N572 C570 1.348 . S
N572 N571 1.361 . S
N572 Cu633 1.964 . S
C573 C568 1.503 . S
C573 H574 0.979 . S
C573 H575 0.979 . S
C573 H576 0.979 . S
H574 C573 0.979 . S
H575 C573 0.979 . S
H576 C573 0.979 . S
C577 C570 1.504 . S
C577 H578 0.981 . S
C577 H579 0.980 . S
C577 H580 0.979 . S
H578 C577 0.981 . S
H579 C577 0.980 . S
H580 C577 0.979 . S
C581 C582 1.402 . S
C581 N584 1.356 . S
C581 C586 1.481 . S
C582 C581 1.402 . S
C582 C583 1.400 . S
C583 C582 1.400 . S
C583 N585 1.325 . S
C583 C590 1.503 . S
N584 C581 1.356 . S
N584 N585 1.365 . S
N584 Cu627 1.941 . S
N585 C583 1.325 . S
N585 N584 1.365 . S
N585 Cu630 1.924 . S
C586 C581 1.481 . S
C586 H587 0.980 . S
C586 H588 0.980 . S
C586 H589 0.980 . S
H587 C586 0.980 . S
H588 C586 0.980 . S
H589 C586 0.980 . S
C590 C583 1.503 . S
C590 H591 0.978 . S
C590 H592 0.978 . S
C590 H593 0.983 . S
H591 C590 0.978 . S
H592 C590 0.978 . S
H593 C590 0.983 . S
C594 H660 0.979 . S
C594 H661 0.981 . S
C594 H662 0.981 . S
C594 O680 1.438 . S
C595 H663 0.980 . S
C595 H664 0.979 . S
C595 H665 0.980 1_565 S
C595 O681 1.533 . S
C596 N597 1.338 . S
C596 C599 1.388 . S
C596 C604 1.503 . S
N597 C596 1.338 . S
N597 N598 1.361 . S
N597 Cu634 1.924 . S
N598 N597 1.361 . S
N598 C600 1.348 . S
N598 Cu635 1.964 . S
C599 C596 1.388 . S
C599 C600 1.396 . S
C600 N598 1.348 . S
C600 C599 1.396 . S
C600 C608 1.504 . S
H601 C604 0.979 . S
H602 C604 0.979 . S
H603 C604 0.979 . S
C604 C596 1.503 . S
C604 H601 0.979 . S
C604 H602 0.979 . S
C604 H603 0.979 . S
H605 C608 0.981 . S
H606 C608 0.980 . S
H607 C608 0.979 . S
C608 C600 1.504 . S
C608 H605 0.981 . S
C608 H606 0.980 . S
C608 H607 0.979 . S
C609 N610 1.356 . S
C609 C612 1.402 . S
C609 C614 1.481 . S
N610 C609 1.356 . S
N610 N611 1.340 1_545 S
N610 Cu629 1.941 . S
N611 N610 1.340 1_565 S
N611 C613 1.330 . S
N611 Cu632 1.939 . S
C612 C609 1.402 . S
C612 C613 1.400 1_545 S
C613 N611 1.330 . S
C613 C612 1.400 1_565 S
C613 C618 1.503 . S
C614 C609 1.481 . S
C614 H615 0.980 . S
C614 H616 0.980 . S
C614 H617 0.980 . S
H615 C614 0.980 . S
H616 C614 0.980 . S
H617 C614 0.980 . S
C618 C613 1.503 . S
C618 H619 0.978 . S
C618 H620 0.978 . S
C618 H621 0.983 . S
H619 C618 0.978 . S
H620 C618 0.978 . S
H621 C618 0.983 . S
C622 H666 0.979 . S
C622 H667 0.981 . S
C622 H668 0.981 . S
C622 O682 1.438 . S
C623 H669 0.980 . S
C623 H670 0.979 . S
C623 H671 0.980 . S
C623 O683 1.533 . S
Cu624 N459 1.924 . S
Cu624 N500 1.924 . S
Cu624 O672 1.923 . S
Cu624 O673 1.930 . S
Cu625 N460 1.964 . S
Cu625 N556 1.941 . S
Cu625 O672 1.905 . S
Cu625 O683 1.920 . S
Cu626 N485 1.924 . S
Cu626 N528 1.943 . S
Cu626 O674 1.923 . S
Cu626 O675 1.930 . S
Cu627 N486 1.964 . S
Cu627 N584 1.941 . S
Cu627 O674 1.905 . S
Cu627 O679 1.920 . S
Cu628 N473 1.924 . S
Cu628 N513 1.924 . S
Cu628 O676 1.923 . S
Cu628 O677 1.930 . S
Cu629 N515 1.964 . S
Cu629 N610 1.941 . S
Cu629 O676 1.905 . S
Cu629 O681 1.920 1_545 S
Cu630 N541 1.924 . S
Cu630 N585 1.924 . S
Cu630 O678 1.923 . S
Cu630 O679 1.930 . S
Cu631 N472 1.941 . S
Cu631 N544 1.964 . S
Cu631 O677 1.920 . S
Cu631 O678 1.905 . S
Cu632 N571 1.924 . S
Cu632 N611 1.939 . S
Cu632 O680 1.923 . S
Cu632 O681 1.930 . S
Cu633 N499 1.941 . S
Cu633 N572 1.964 . S
Cu633 O673 1.920 . S
Cu633 O680 1.905 . S
Cu634 N557 1.924 . S
Cu634 N597 1.924 . S
Cu634 O682 1.923 . S
Cu634 O683 1.930 . S
Cu635 N527 1.941 . S
Cu635 N598 1.964 . S
Cu635 O675 1.920 1_565 S
Cu635 O682 1.905 . S
H636 C482 0.979 . S
H637 C482 0.981 . S
H638 C482 0.981 . S
H639 C483 0.980 . S
H640 C483 0.979 . S
H641 C483 0.980 . S
H642 C510 0.979 . S
H643 C510 0.981 . S
H644 C510 0.981 . S
H645 C511 0.980 . S
H646 C511 0.979 . S
H647 C511 0.980 1_565 S
H648 C538 0.979 . S
H649 C538 0.981 . S
H650 C538 0.981 . S
H651 C539 0.980 . S
H652 C539 0.979 . S
H653 C539 0.980 . S
H654 C566 0.979 . S
H655 C566 0.981 . S
H656 C566 0.981 . S
H657 C567 0.980 . S
H658 C567 0.979 . S
H659 C567 0.980 . S
H660 C594 0.979 . S
H661 C594 0.981 . S
H662 C594 0.981 . S
H663 C595 0.980 . S
H664 C595 0.979 . S
H665 C595 0.980 1_545 S
H666 C622 0.979 . S
H667 C622 0.981 . S
H668 C622 0.981 . S
H669 C623 0.980 . S
H670 C623 0.979 . S
H671 C623 0.980 . S
O672 C482 1.438 . S
O672 Cu624 1.923 . S
O672 Cu625 1.905 . S
O673 C483 1.533 . S
O673 Cu624 1.930 . S
O673 Cu633 1.920 . S
O674 C510 1.438 . S
O674 Cu626 1.923 . S
O674 Cu627 1.905 . S
O675 C511 1.533 . S
O675 Cu626 1.930 . S
O675 Cu635 1.920 1_545 S
O676 C538 1.438 . S
O676 Cu628 1.923 . S
O676 Cu629 1.905 . S
O677 C539 1.533 . S
O677 Cu628 1.930 . S
O677 Cu631 1.920 . S
O678 C566 1.438 . S
O678 Cu630 1.923 . S
O678 Cu631 1.905 . S
O679 C567 1.533 . S
O679 Cu627 1.920 . S
O679 Cu630 1.930 . S
O680 C594 1.438 . S
O680 Cu632 1.923 . S
O680 Cu633 1.905 . S
O681 C595 1.533 . S
O681 Cu629 1.920 1_565 S
O681 Cu632 1.930 . S
O682 C622 1.438 . S
O682 Cu634 1.923 . S
O682 Cu635 1.905 . S
O683 C623 1.533 . S
O683 Cu625 1.920 . S
O683 Cu634 1.930 . S
C684 C685 1.388 . S
C684 N687 1.338 . S
C684 C689 1.503 . S
C685 C684 1.388 . S
C685 C686 1.396 . S
C686 C685 1.396 . S
C686 N688 1.348 . S
C686 C693 1.504 . S
N687 C684 1.338 . S
N687 N688 1.361 . S
N687 Cu852 1.924 . S
N688 C686 1.348 . S
N688 N687 1.361 . S
N688 Cu853 1.964 . S
C689 C684 1.503 . S
C689 H690 0.979 . S
C689 H691 0.979 . S
C689 H692 0.979 . S
H690 C689 0.979 . S
H691 C689 0.979 . S
H692 C689 0.979 . S
C693 C686 1.504 . S
C693 H694 0.981 . S
C693 H695 0.980 . S
C693 H696 0.979 . S
H694 C693 0.981 . S
H695 C693 0.980 . S
H696 C693 0.979 . S
C697 C699 1.402 . S
C697 N700 1.356 . S
C697 C705 1.481 . S
C698 C699 1.400 . S
C698 N701 1.325 . S
C698 C709 1.503 . S
C699 C697 1.402 . S
C699 C698 1.400 . S
N700 C697 1.356 . S
N700 N701 1.365 . S
N700 Cu859 1.941 . S
N701 C698 1.325 . S
N701 N700 1.365 . S
N701 Cu856 1.924 . S
H702 C705 0.980 . S
H703 C705 0.980 . S
H704 C705 0.980 . S
C705 C697 1.481 . S
C705 H702 0.980 . S
C705 H703 0.980 . S
C705 H704 0.980 . S
H706 C709 0.978 . S
H707 C709 0.978 . S
H708 C709 0.983 . S
C709 C698 1.503 . S
C709 H706 0.978 . S
C709 H707 0.978 . S
C709 H708 0.983 . S
C710 H864 0.979 . S
C710 H865 0.981 . S
C710 H866 0.981 . S
C710 O900 1.438 . S
C711 H867 0.980 . S
C711 H868 0.979 . S
C711 H869 0.980 1_554 S
C711 O901 1.533 . S
C712 N713 1.338 . S
C712 C715 1.388 . S
C712 C720 1.503 . S
N713 C712 1.338 . S
N713 N714 1.361 . S
N713 Cu854 1.924 . S
N714 N713 1.361 . S
N714 C716 1.348 . S
N714 Cu855 1.964 . S
C715 C712 1.388 . S
C715 C716 1.396 . S
C716 N714 1.348 . S
C716 C715 1.396 . S
C716 C724 1.504 . S
H717 C720 0.979 . S
H718 C720 0.979 . S
H719 C720 0.979 . S
C720 C712 1.503 . S
C720 H717 0.979 . S
C720 H718 0.979 . S
C720 H719 0.979 . S
H721 C724 0.981 . S
H722 C724 0.980 . S
H723 C724 0.979 . S
C724 C716 1.504 . S
C724 H721 0.981 . S
C724 H722 0.980 . S
C724 H723 0.979 . S
C725 N727 1.356 . S
C725 C729 1.402 . S
C725 C733 1.481 . S
C726 N728 1.332 . S
C726 C729 1.400 1_554 S
C726 C734 1.503 . S
N727 C725 1.356 . S
N727 N728 1.333 1_556 S
N727 Cu861 1.941 . S
N728 C726 1.332 . S
N728 N727 1.333 1_554 S
N728 Cu852 1.943 . S
C729 C725 1.402 . S
C729 C726 1.400 1_556 S
H730 C733 0.980 . S
H731 C733 0.980 . S
H732 C733 0.980 . S
C733 C725 1.481 . S
C733 H730 0.980 . S
C733 H731 0.980 . S
C733 H732 0.980 . S
C734 C726 1.503 . S
C734 H735 0.978 . S
C734 H736 0.978 . S
C734 H737 0.983 . S
H735 C734 0.978 . S
H736 C734 0.978 . S
H737 C734 0.983 . S
C738 H870 0.979 . S
C738 H871 0.981 . S
C738 H872 0.981 . S
C738 O902 1.438 . S
C739 H873 0.980 . S
C739 H874 0.979 . S
C739 H875 0.980 . S
C739 O903 1.533 . S
C740 N741 1.338 . S
C740 C742 1.388 . S
C740 C748 1.503 . S
N741 C740 1.338 . S
N741 N743 1.361 . S
N741 Cu856 1.924 . S
C742 C740 1.388 . S
C742 C744 1.396 . S
N743 N741 1.361 . S
N743 C744 1.348 . S
N743 Cu857 1.964 . S
C744 C742 1.396 . S
C744 N743 1.348 . S
C744 C750 1.504 . S
H745 C748 0.979 . S
H746 C748 0.979 . S
H747 C748 0.979 . S
C748 C740 1.503 . S
C748 H745 0.979 . S
C748 H746 0.979 . S
C748 H747 0.979 . S
H749 C750 0.981 . S
C750 C744 1.504 . S
C750 H749 0.981 . S
C750 H751 0.979 . S
C750 H752 0.980 1_556 S
H751 C750 0.979 . S
H752 C750 0.980 1_554 S
C753 N755 1.356 . S
C753 C757 1.402 . S
C753 C759 1.481 . S
C754 N756 1.325 . S
C754 C757 1.400 . S
C754 C764 1.503 . S
N755 C753 1.356 . S
N755 N756 1.365 . S
N755 Cu863 1.941 . S
N756 C754 1.325 . S
N756 N755 1.365 . S
N756 Cu854 1.924 . S
C757 C753 1.402 . S
C757 C754 1.400 . S
H758 C759 0.980 . S
C759 C753 1.481 . S
C759 H758 0.980 . S
C759 H760 0.980 . S
C759 H761 0.980 . S
H760 C759 0.980 . S
H761 C759 0.980 . S
H762 C764 0.978 . S
H763 C764 0.978 . S
C764 C754 1.503 . S
C764 H762 0.978 . S
C764 H763 0.978 . S
C764 H765 0.983 . S
H765 C764 0.983 . S
C766 H876 0.979 . S
C766 H877 0.981 . S
C766 H878 0.981 . S
C766 O904 1.438 . S
C767 H879 0.980 . S
C767 H880 0.979 . S
C767 H881 0.980 . S
C767 O905 1.533 . S
C768 N769 1.338 . S
C768 C770 1.388 . S
C768 C773 1.503 . S
N769 C768 1.338 . S
N769 N772 1.361 . S
N769 Cu858 1.924 . S
C770 C768 1.388 . S
C770 C771 1.396 . S
C771 C770 1.396 . S
C771 N772 1.348 . S
C771 C777 1.504 . S
N772 N769 1.361 . S
N772 C771 1.348 . S
N772 Cu859 1.964 . S
C773 C768 1.503 . S
C773 H774 0.979 . S
C773 H775 0.979 . S
C773 H776 0.979 . S
H774 C773 0.979 . S
H775 C773 0.979 . S
H776 C773 0.979 . S
C777 C771 1.504 . S
C777 H778 0.981 . S
C777 H779 0.980 . S
C777 H780 0.979 . S
H778 C777 0.981 . S
H779 C777 0.980 . S
H780 C777 0.979 . S
C781 C782 1.402 . S
C781 N784 1.356 . S
C781 C789 1.481 . S
C782 C781 1.402 . S
C782 C783 1.400 . S
C783 C782 1.400 . S
C783 N785 1.325 . S
C783 C790 1.503 . S
N784 C781 1.356 . S
N784 N785 1.365 . S
N784 Cu853 1.941 . S
N785 C783 1.325 . S
N785 N784 1.365 . S
N785 Cu862 1.924 . S
H786 C789 0.980 . S
H787 C789 0.980 . S
H788 C789 0.980 . S
C789 C781 1.481 . S
C789 H786 0.980 . S
C789 H787 0.980 . S
C789 H788 0.980 . S
C790 C783 1.503 . S
C790 H791 0.978 . S
C790 H792 0.978 . S
C790 H793 0.983 . S
H791 C790 0.978 . S
H792 C790 0.978 . S
H793 C790 0.983 . S
C794 H882 0.979 . S
C794 H883 0.981 . S
C794 H884 0.981 . S
C794 O906 1.438 . S
C795 H885 0.980 . S
C795 H886 0.979 . S
C795 H887 0.980 1_556 S
C795 O907 1.533 . S
C796 C797 1.388 . S
C796 N799 1.338 . S
C796 C801 1.503 . S
C797 C796 1.388 . S
C797 C798 1.396 . S
C798 C797 1.396 . S
C798 N800 1.348 . S
C798 C805 1.504 . S
N799 C796 1.338 . S
N799 N800 1.361 . S
N799 Cu860 1.924 . S
N800 C798 1.348 . S
N800 N799 1.361 . S
N800 Cu861 1.964 . S
C801 C796 1.503 . S
C801 H802 0.979 . S
C801 H803 0.979 . S
C801 H804 0.979 . S
H802 C801 0.979 . S
H803 C801 0.979 . S
H804 C801 0.979 . S
C805 C798 1.504 . S
C805 H806 0.981 . S
C805 H807 0.980 . S
C805 H808 0.979 . S
H806 C805 0.981 . S
H807 C805 0.980 . S
H808 C805 0.979 . S
C809 C810 1.402 . S
C809 N812 1.356 . S
C809 C814 1.481 . S
C810 C809 1.402 . S
C810 C811 1.400 1_554 S
C811 C810 1.400 1_556 S
C811 N813 1.330 . S
C811 C818 1.503 . S
N812 C809 1.356 . S
N812 N813 1.340 1_554 S
N812 Cu855 1.941 . S
N813 C811 1.330 . S
N813 N812 1.340 1_556 S
N813 Cu858 1.939 . S
C814 C809 1.481 . S
C814 H815 0.980 . S
C814 H816 0.980 . S
C814 H817 0.980 . S
H815 C814 0.980 . S
H816 C814 0.980 . S
H817 C814 0.980 . S
C818 C811 1.503 . S
C818 H819 0.978 . S
C818 H820 0.978 . S
C818 H821 0.983 . S
H819 C818 0.978 . S
H820 C818 0.978 . S
H821 C818 0.983 . S
C822 H888 0.979 . S
C822 H889 0.981 . S
C822 H890 0.981 . S
C822 O908 1.438 . S
C823 H891 0.980 . S
C823 H892 0.979 . S
C823 H893 0.980 . S
C823 O909 1.533 . S
C824 N825 1.338 . S
C824 C827 1.388 . S
C824 C832 1.503 . S
N825 C824 1.338 . S
N825 N826 1.361 . S
N825 Cu862 1.924 . S
N826 N825 1.361 . S
N826 C828 1.348 . S
N826 Cu863 1.964 . S
C827 C824 1.388 . S
C827 C828 1.396 . S
C828 N826 1.348 . S
C828 C827 1.396 . S
C828 C836 1.504 . S
H829 C832 0.979 . S
H830 C832 0.979 . S
H831 C832 0.979 . S
C832 C824 1.503 . S
C832 H829 0.979 . S
C832 H830 0.979 . S
C832 H831 0.979 . S
H833 C836 0.981 . S
H834 C836 0.980 1_556 S
H835 C836 0.979 . S
C836 C828 1.504 . S
C836 H833 0.981 . S
C836 H834 0.980 1_554 S
C836 H835 0.979 . S
C837 N838 1.356 . S
C837 C840 1.402 . S
C837 C842 1.481 . S
N838 C837 1.356 . S
N838 N839 1.365 . S
N838 Cu857 1.941 . S
N839 N838 1.365 . S
N839 C841 1.325 . S
N839 Cu860 1.924 . S
C840 C837 1.402 . S
C840 C841 1.400 . S
C841 N839 1.325 . S
C841 C840 1.400 . S
C841 C846 1.503 . S
C842 C837 1.481 . S
C842 H843 0.980 . S
C842 H844 0.980 . S
C842 H845 0.980 . S
H843 C842 0.980 . S
H844 C842 0.980 . S
H845 C842 0.980 . S
C846 C841 1.503 . S
C846 H847 0.978 . S
C846 H848 0.978 . S
C846 H849 0.983 . S
H847 C846 0.978 . S
H848 C846 0.978 . S
H849 C846 0.983 . S
C850 H894 0.979 . S
C850 H895 0.981 . S
C850 H896 0.981 . S
C850 O910 1.438 . S
C851 H897 0.980 . S
C851 H898 0.979 . S
C851 H899 0.980 . S
C851 O911 1.533 . S
Cu852 N687 1.924 . S
Cu852 N728 1.943 . S
Cu852 O900 1.923 . S
Cu852 O901 1.930 . S
Cu853 N688 1.964 . S
Cu853 N784 1.941 . S
Cu853 O900 1.905 . S
Cu853 O911 1.920 . S
Cu854 N713 1.924 . S
Cu854 N756 1.924 . S
Cu854 O902 1.923 . S
Cu854 O903 1.930 . S
Cu855 N714 1.964 . S
Cu855 N812 1.941 . S
Cu855 O902 1.905 . S
Cu855 O907 1.920 1_554 S
Cu856 N701 1.924 . S
Cu856 N741 1.924 . S
Cu856 O904 1.923 . S
Cu856 O905 1.930 . S
Cu857 N743 1.964 . S
Cu857 N838 1.941 . S
Cu857 O904 1.905 . S
Cu857 O909 1.920 . S
Cu858 N769 1.924 . S
Cu858 N813 1.939 . S
Cu858 O906 1.923 . S
Cu858 O907 1.930 . S
Cu859 N700 1.941 . S
Cu859 N772 1.964 . S
Cu859 O905 1.920 . S
Cu859 O906 1.905 . S
Cu860 N799 1.924 . S
Cu860 N839 1.924 . S
Cu860 O908 1.923 . S
Cu860 O909 1.930 . S
Cu861 N727 1.941 . S
Cu861 N800 1.964 . S
Cu861 O901 1.920 1_556 S
Cu861 O908 1.905 . S
Cu862 N785 1.924 . S
Cu862 N825 1.924 . S
Cu862 O910 1.923 . S
Cu862 O911 1.930 . S
Cu863 N755 1.941 . S
Cu863 N826 1.964 . S
Cu863 O903 1.920 . S
Cu863 O910 1.905 . S
H864 C710 0.979 . S
H865 C710 0.981 . S
H866 C710 0.981 . S
H867 C711 0.980 . S
H868 C711 0.979 . S
H869 C711 0.980 1_556 S
H870 C738 0.979 . S
H871 C738 0.981 . S
H872 C738 0.981 . S
H873 C739 0.980 . S
H874 C739 0.979 . S
H875 C739 0.980 . S
H876 C766 0.979 . S
H877 C766 0.981 . S
H878 C766 0.981 . S
H879 C767 0.980 . S
H880 C767 0.979 . S
H881 C767 0.980 . S
H882 C794 0.979 . S
H883 C794 0.981 . S
H884 C794 0.981 . S
H885 C795 0.980 . S
H886 C795 0.979 . S
H887 C795 0.980 1_554 S
H888 C822 0.979 . S
H889 C822 0.981 . S
H890 C822 0.981 . S
H891 C823 0.980 . S
H892 C823 0.979 . S
H893 C823 0.980 . S
H894 C850 0.979 . S
H895 C850 0.981 . S
H896 C850 0.981 . S
H897 C851 0.980 . S
H898 C851 0.979 . S
H899 C851 0.980 . S
O900 C710 1.438 . S
O900 Cu852 1.923 . S
O900 Cu853 1.905 . S
O901 C711 1.533 . S
O901 Cu852 1.930 . S
O901 Cu861 1.920 1_554 S
O902 C738 1.438 . S
O902 Cu854 1.923 . S
O902 Cu855 1.905 . S
O903 C739 1.533 . S
O903 Cu854 1.930 . S
O903 Cu863 1.920 . S
O904 C766 1.438 . S
O904 Cu856 1.923 . S
O904 Cu857 1.905 . S
O905 C767 1.533 . S
O905 Cu856 1.930 . S
O905 Cu859 1.920 . S
O906 C794 1.438 . S
O906 Cu858 1.923 . S
O906 Cu859 1.905 . S
O907 C795 1.533 . S
O907 Cu855 1.920 1_556 S
O907 Cu858 1.930 . S
O908 C822 1.438 . S
O908 Cu860 1.923 . S
O908 Cu861 1.905 . S
O909 C823 1.533 . S
O909 Cu857 1.920 . S
O909 Cu860 1.930 . S
O910 C850 1.438 . S
O910 Cu862 1.923 . S
O910 Cu863 1.905 . S
O911 C851 1.533 . S
O911 Cu853 1.920 . S
O911 Cu862 1.930 . S
H912 C920 0.950 . S
H913 C925 0.950 . S
H914 C922 0.950 . S
H915 C924 0.950 . S
H916 C926 0.950 . S
H917 C928 0.950 . S
H918 C930 0.950 . S
H919 C931 0.950 . S
C920 H912 0.950 . S
C920 C921 1.386 . S
C920 C922 1.391 . S
C921 C920 1.386 . S
C921 C925 1.393 1_455 S
C922 H914 0.950 . S
C922 C920 1.391 . S
C922 C923 1.399 . S
C923 C922 1.399 . S
C923 C924 1.399 1_455 S
C923 C929 1.491 . S
C924 H915 0.950 . S
C924 C923 1.399 1_655 S
C924 C925 1.391 . S
C925 H913 0.950 . S
C925 C921 1.393 1_655 S
C925 C924 1.391 . S
C926 H916 0.950 . S
C926 C927 1.386 . S
C926 C928 1.391 . S
C927 C926 1.386 . S
C927 C931 1.393 1_655 S
C928 H917 0.950 . S
C928 C926 1.391 . S
C928 C929 1.399 1_655 S
C929 C923 1.491 . S
C929 C928 1.399 1_455 S
C929 C930 1.399 . S
C930 H918 0.950 . S
C930 C929 1.399 . S
C930 C931 1.391 . S
C931 H919 0.950 . S
C931 C927 1.393 1_455 S
C931 C930 1.391 . S
H932 C940 0.950 . S
H933 C945 0.950 . S
H934 C942 0.950 . S
H935 C944 0.950 . S
H936 C946 0.950 . S
H937 C948 0.950 . S
H938 C950 0.950 . S
H939 C951 0.950 . S
C940 H932 0.950 . S
C940 C941 1.386 1_545 S
C940 C942 1.391 . S
C941 C940 1.386 1_565 S
C941 C945 1.393 . S
C942 H934 0.950 . S
C942 C940 1.391 . S
C942 C943 1.400 1_545 S
C943 C942 1.400 1_565 S
C943 C944 1.398 . S
C943 C949 1.491 1_565 S
C944 H935 0.950 . S
C944 C943 1.398 . S
C944 C945 1.391 . S
C945 H933 0.950 . S
C945 C941 1.393 . S
C945 C944 1.391 . S
C946 H936 0.950 . S
C946 C947 1.386 1_565 S
C946 C948 1.391 . S
C947 C946 1.386 1_545 S
C947 C951 1.393 . S
C948 H937 0.950 . S
C948 C946 1.391 . S
C948 C949 1.400 1_565 S
C949 C943 1.491 1_545 S
C949 C948 1.400 1_545 S
C949 C950 1.398 . S
C950 H938 0.950 . S
C950 C949 1.398 . S
C950 C951 1.391 . S
C951 H939 0.950 . S
C951 C947 1.393 . S
C951 C950 1.391 . S
H952 C960 0.950 . S
H953 C965 0.950 . S
H954 C962 0.950 . S
H955 C964 0.950 . S
H956 C966 0.950 . S
H957 C968 0.950 . S
H958 C970 0.950 . S
H959 C971 0.950 . S
C960 H952 0.950 . S
C960 C961 1.386 . S
C960 C962 1.391 . S
C961 C960 1.386 . S
C961 C965 1.393 1_455 S
C962 H954 0.950 . S
C962 C960 1.391 . S
C962 C963 1.400 . S
C963 C962 1.400 . S
C963 C964 1.398 1_455 S
C963 C969 1.491 1_455 S
C964 H955 0.950 . S
C964 C963 1.398 1_655 S
C964 C965 1.391 . S
C965 H953 0.950 . S
C965 C961 1.393 1_655 S
C965 C964 1.391 . S
C966 H956 0.950 . S
C966 C967 1.386 . S
C966 C968 1.391 . S
C967 C966 1.386 . S
C967 C971 1.393 1_655 S
C968 H957 0.950 . S
C968 C966 1.391 . S
C968 C969 1.400 . S
C969 C963 1.491 1_655 S
C969 C968 1.400 . S
C969 C970 1.398 1_655 S
C970 H958 0.950 . S
C970 C969 1.398 1_455 S
C970 C971 1.391 . S
C971 H959 0.950 . S
C971 C967 1.393 1_455 S
C971 C970 1.391 . S
H972 C980 0.950 . S
H973 C985 0.950 . S
H974 C982 0.950 . S
H975 C984 0.950 . S
H976 C986 0.950 . S
H977 C988 0.950 . S
H978 C990 0.950 . S
H979 C991 0.950 . S
C980 H972 0.950 . S
C980 C981 1.386 . S
C980 C982 1.391 . S
C981 C980 1.386 . S
C981 C985 1.393 1_565 S
C982 H974 0.950 . S
C982 C980 1.391 . S
C982 C983 1.400 . S
C983 C982 1.400 . S
C983 C984 1.398 1_565 S
C983 C989 1.491 1_565 S
C984 H975 0.950 . S
C984 C983 1.398 1_545 S
C984 C985 1.391 . S
C985 H973 0.950 . S
C985 C981 1.393 1_545 S
C985 C984 1.391 . S
C986 H976 0.950 . S
C986 C987 1.386 . S
C986 C988 1.391 . S
C987 C986 1.386 . S
C987 C991 1.393 1_545 S
C988 H977 0.950 . S
C988 C986 1.391 . S
C988 C989 1.400 . S
C989 C983 1.491 1_545 S
C989 C988 1.400 . S
C989 C990 1.398 1_545 S
C990 H978 0.950 . S
C990 C989 1.398 1_565 S
C990 C991 1.391 . S
C991 H979 0.950 . S
C991 C987 1.393 1_565 S
C991 C990 1.391 . S
H992 C1000 0.950 . S
H993 C1005 0.950 . S
H994 C1002 0.950 . S
H995 C1004 0.950 . S
H996 C1006 0.950 . S
H997 C1008 0.950 . S
H998 C1010 0.950 . S
H999 C1011 0.950 . S
C1000 H992 0.950 . S
C1000 C1001 1.386 . S
C1000 C1002 1.391 . S
C1001 C1000 1.386 . S
C1001 C1005 1.393 1_655 S
C1002 H994 0.950 . S
C1002 C1000 1.391 . S
C1002 C1003 1.399 . S
C1003 C1002 1.399 . S
C1003 C1004 1.399 1_655 S
C1003 C1009 1.489 1_655 S
C1004 H995 0.950 . S
C1004 C1003 1.399 1_455 S
C1004 C1005 1.391 . S
C1005 H993 0.950 . S
C1005 C1001 1.393 1_455 S
C1005 C1004 1.391 . S
C1006 H996 0.950 . S
C1006 C1007 1.386 . S
C1006 C1008 1.391 . S
C1007 C1006 1.386 . S
C1007 C1011 1.393 1_455 S
C1008 H997 0.950 . S
C1008 C1006 1.391 . S
C1008 C1009 1.405 . S
C1009 C1003 1.489 1_455 S
C1009 C1008 1.405 . S
C1009 C1010 1.395 1_455 S
C1010 H998 0.950 . S
C1010 C1009 1.395 1_655 S
C1010 C1011 1.391 . S
C1011 H999 0.950 . S
C1011 C1007 1.393 1_655 S
C1011 C1010 1.391 . S
H1012 C1020 0.950 . S
H1013 C1025 0.950 1_565 S
H1014 C1022 0.950 . S
H1015 C1024 0.950 . S
H1016 C1026 0.950 . S
H1017 C1028 0.950 . S
H1018 C1030 0.950 . S
H1019 C1031 0.950 1_545 S
C1020 H1012 0.950 . S
C1020 C1021 1.386 . S
C1020 C1022 1.391 . S
C1021 C1020 1.386 . S
C1021 C1025 1.393 . S
C1022 H1014 0.950 . S
C1022 C1020 1.391 . S
C1022 C1023 1.400 . S
C1023 C1022 1.400 . S
C1023 C1024 1.398 1_545 S
C1023 C1029 1.491 1_545 S
C1024 H1015 0.950 . S
C1024 C1023 1.398 1_565 S
C1024 C1025 1.391 1_565 S
C1025 H1013 0.950 1_545 S
C1025 C1021 1.393 . S
C1025 C1024 1.391 1_545 S
C1026 H1016 0.950 . S
C1026 C1027 1.386 . S
C1026 C1028 1.391 . S
C1027 C1026 1.386 . S
C1027 C1031 1.393 . S
C1028 H1017 0.950 . S
C1028 C1026 1.391 . S
C1028 C1029 1.400 . S
C1029 C1023 1.491 1_565 S
C1029 C1028 1.400 . S
C1029 C1030 1.398 1_565 S
C1030 H1018 0.950 . S
C1030 C1029 1.398 1_545 S
C1030 C1031 1.391 1_545 S
C1031 H1019 0.950 1_565 S
C1031 C1027 1.393 . S
C1031 C1030 1.391 1_565 S
H1032 C1040 0.950 . S
H1033 C1045 0.950 . S
H1034 C1042 0.950 . S
H1035 C1044 0.950 . S
H1036 C1046 0.950 . S
H1037 C1048 0.950 . S
H1038 C1050 0.950 . S
H1039 C1051 0.950 . S
C1040 H1032 0.950 . S
C1040 C1041 1.386 . S
C1040 C1042 1.391 . S
C1041 C1040 1.386 . S
C1041 C1045 1.393 . S
C1042 H1034 0.950 . S
C1042 C1040 1.391 . S
C1042 C1043 1.400 . S
C1043 C1042 1.400 . S
C1043 C1044 1.398 1_455 S
C1043 C1049 1.491 1_455 S
C1044 H1035 0.950 . S
C1044 C1043 1.398 1_655 S
C1044 C1045 1.391 1_655 S
C1045 H1033 0.950 . S
C1045 C1041 1.393 . S
C1045 C1044 1.391 1_455 S
C1046 H1036 0.950 . S
C1046 C1047 1.386 . S
C1046 C1048 1.391 . S
C1047 C1046 1.386 . S
C1047 C1051 1.393 . S
C1048 H1037 0.950 . S
C1048 C1046 1.391 . S
C1048 C1049 1.400 . S
C1049 C1043 1.491 1_655 S
C1049 C1048 1.400 . S
C1049 C1050 1.398 1_655 S
C1050 H1038 0.950 . S
C1050 C1049 1.398 1_455 S
C1050 C1051 1.391 1_455 S
C1051 H1039 0.950 . S
C1051 C1047 1.393 . S
C1051 C1050 1.391 1_655 S
H1052 C1060 0.950 . S
H1053 C1065 0.950 . S
H1054 C1062 0.950 . S
H1055 C1064 0.950 . S
H1056 C1066 0.950 . S
H1057 C1068 0.950 . S
H1058 C1070 0.950 . S
H1059 C1071 0.950 . S
C1060 H1052 0.950 . S
C1060 C1061 1.386 1_565 S
C1060 C1062 1.391 . S
C1061 C1060 1.386 1_545 S
C1061 C1065 1.393 . S
C1062 H1054 0.950 . S
C1062 C1060 1.391 . S
C1062 C1063 1.400 1_565 S
C1063 C1062 1.400 1_545 S
C1063 C1064 1.398 . S
C1063 C1069 1.491 1_545 S
C1064 H1055 0.950 . S
C1064 C1063 1.398 . S
C1064 C1065 1.391 . S
C1065 H1053 0.950 . S
C1065 C1061 1.393 . S
C1065 C1064 1.391 . S
C1066 H1056 0.950 . S
C1066 C1067 1.386 1_545 S
C1066 C1068 1.391 . S
C1067 C1066 1.386 1_565 S
C1067 C1071 1.393 . S
C1068 H1057 0.950 . S
C1068 C1066 1.391 . S
C1068 C1069 1.400 1_545 S
C1069 C1063 1.491 1_565 S
C1069 C1068 1.400 1_565 S
C1069 C1070 1.398 . S
C1070 H1058 0.950 . S
C1070 C1069 1.398 . S
C1070 C1071 1.391 . S
C1071 H1059 0.950 . S
C1071 C1067 1.393 . S
C1071 C1070 1.391 . S
H1072 C1080 0.950 . S
H1073 C1085 0.950 . S
H1074 C1082 0.950 . S
H1075 C1084 0.950 . S
H1076 C1086 0.950 . S
H1077 C1088 0.950 . S
H1078 C1090 0.950 . S
H1079 C1091 0.950 . S
C1080 H1072 0.950 . S
C1080 C1081 1.386 . S
C1080 C1082 1.391 . S
C1081 C1080 1.386 . S
C1081 C1085 1.393 1_556 S
C1082 H1074 0.950 . S
C1082 C1080 1.391 . S
C1082 C1083 1.400 . S
C1083 C1082 1.400 . S
C1083 C1084 1.398 1_556 S
C1083 C1089 1.491 1_556 S
C1084 H1075 0.950 . S
C1084 C1083 1.398 1_554 S
C1084 C1085 1.391 . S
C1085 H1073 0.950 . S
C1085 C1081 1.393 1_554 S
C1085 C1084 1.391 . S
C1086 H1076 0.950 . S
C1086 C1087 1.386 . S
C1086 C1088 1.391 . S
C1087 C1086 1.386 . S
C1087 C1091 1.393 1_554 S
C1088 H1077 0.950 . S
C1088 C1086 1.391 . S
C1088 C1089 1.400 . S
C1089 C1083 1.491 1_554 S
C1089 C1088 1.400 . S
C1089 C1090 1.398 1_554 S
C1090 H1078 0.950 . S
C1090 C1089 1.398 1_556 S
C1090 C1091 1.391 . S
C1091 H1079 0.950 . S
C1091 C1087 1.393 1_556 S
C1091 C1090 1.391 . S
H1092 C1100 0.950 . S
H1093 C1105 0.950 . S
H1094 C1102 0.950 . S
H1095 C1104 0.949 1_556 S
H1096 C1106 0.950 . S
H1097 C1108 0.950 . S
H1098 C1110 0.949 . S
H1099 C1111 0.950 . S
C1100 H1092 0.950 . S
C1100 C1101 1.386 . S
C1100 C1102 1.391 . S
C1101 C1100 1.386 . S
C1101 C1105 1.393 . S
C1102 H1094 0.950 . S
C1102 C1100 1.391 . S
C1102 C1103 1.400 . S
C1103 C1102 1.400 . S
C1103 C1104 1.399 . S
C1103 C1109 1.491 1_554 S
C1104 H1095 0.949 1_554 S
C1104 C1103 1.399 . S
C1104 C1105 1.391 . S
C1105 H1093 0.950 . S
C1105 C1101 1.393 . S
C1105 C1104 1.391 . S
C1106 H1096 0.950 . S
C1106 C1107 1.386 . S
C1106 C1108 1.391 . S
C1107 C1106 1.386 . S
C1107 C1111 1.393 . S
C1108 H1097 0.950 . S
C1108 C1106 1.391 . S
C1108 C1109 1.400 . S
C1109 C1103 1.491 1_556 S
C1109 C1108 1.400 . S
C1109 C1110 1.399 1_556 S
C1110 H1098 0.949 . S
C1110 C1109 1.399 1_554 S
C1110 C1111 1.391 1_554 S
C1111 H1099 0.950 . S
C1111 C1107 1.393 . S
C1111 C1110 1.391 1_556 S
H1112 C1120 0.950 . S
H1113 C1125 0.950 . S
H1114 C1122 0.950 . S
H1115 C1124 0.950 . S
H1116 C1126 0.950 . S
H1117 C1128 0.950 . S
H1118 C1130 0.950 . S
H1119 C1131 0.950 . S
C1120 H1112 0.950 . S
C1120 C1121 1.386 1_554 S
C1120 C1122 1.391 . S
C1121 C1120 1.386 1_556 S
C1121 C1125 1.393 . S
C1122 H1114 0.950 . S
C1122 C1120 1.391 . S
C1122 C1123 1.400 1_554 S
C1123 C1122 1.400 1_556 S
C1123 C1124 1.398 . S
C1123 C1129 1.491 1_556 S
C1124 H1115 0.950 . S
C1124 C1123 1.398 . S
C1124 C1125 1.391 . S
C1125 H1113 0.950 . S
C1125 C1121 1.393 . S
C1125 C1124 1.391 . S
C1126 H1116 0.950 . S
C1126 C1127 1.386 1_556 S
C1126 C1128 1.391 . S
C1127 C1126 1.386 1_554 S
C1127 C1131 1.393 . S
C1128 H1117 0.950 . S
C1128 C1126 1.391 . S
C1128 C1129 1.400 1_556 S
C1129 C1123 1.491 1_554 S
C1129 C1128 1.400 1_554 S
C1129 C1130 1.398 . S
C1130 H1118 0.950 . S
C1130 C1129 1.398 . S
C1130 C1131 1.391 . S
C1131 H1119 0.950 . S
C1131 C1127 1.393 . S
C1131 C1130 1.391 . S
H1132 C1140 0.950 . S
H1133 C1145 0.950 . S
H1134 C1142 0.950 . S
H1135 C1144 0.950 . S
H1136 C1146 0.950 . S
H1137 C1148 0.950 . S
H1138 C1150 0.950 . S
H1139 C1151 0.950 . S
C1140 H1132 0.950 . S
C1140 C1141 1.386 . S
C1140 C1142 1.391 . S
C1141 C1140 1.386 . S
C1141 C1145 1.393 1_556 S
C1142 H1134 0.950 . S
C1142 C1140 1.391 . S
C1142 C1143 1.400 . S
C1143 C1142 1.400 . S
C1143 C1144 1.398 1_556 S
C1143 C1149 1.491 1_556 S
C1144 H1135 0.950 . S
C1144 C1143 1.398 1_554 S
C1144 C1145 1.391 . S
C1145 H1133 0.950 . S
C1145 C1141 1.393 1_554 S
C1145 C1144 1.391 . S
C1146 H1136 0.950 . S
C1146 C1147 1.386 . S
C1146 C1148 1.391 . S
C1147 C1146 1.386 . S
C1147 C1151 1.393 1_554 S
C1148 H1137 0.950 . S
C1148 C1146 1.391 . S
C1148 C1149 1.400 . S
C1149 C1143 1.491 1_554 S
C1149 C1148 1.400 . S
C1149 C1150 1.398 1_554 S
C1150 H1138 0.950 . S
C1150 C1149 1.398 1_556 S
C1150 C1151 1.391 . S
C1151 H1139 0.950 . S
C1151 C1147 1.393 1_556 S
C1151 C1150 1.391 . S
H1152 C1160 0.950 . S
H1153 C1165 0.950 . S
H1154 C1162 0.950 . S
H1155 C1164 0.950 . S
H1156 C1166 0.950 . S
H1157 C1168 0.950 . S
H1158 C1170 0.950 . S
H1159 C1171 0.950 . S
C1160 H1152 0.950 . S
C1160 C1161 1.386 . S
C1160 C1162 1.391 . S
C1161 C1160 1.386 . S
C1161 C1165 1.393 . S
C1162 H1154 0.950 . S
C1162 C1160 1.391 . S
C1162 C1163 1.400 . S
C1163 C1162 1.400 . S
C1163 C1164 1.398 . S
C1163 C1169 1.491 . S
C1164 H1155 0.950 . S
C1164 C1163 1.398 . S
C1164 C1165 1.391 . S
C1165 H1153 0.950 . S
C1165 C1161 1.393 . S
C1165 C1164 1.391 . S
C1166 H1156 0.950 . S
C1166 C1167 1.386 . S
C1166 C1168 1.391 . S
C1167 C1166 1.386 . S
C1167 C1171 1.393 . S
C1168 H1157 0.950 . S
C1168 C1166 1.391 . S
C1168 C1169 1.400 . S
C1169 C1163 1.491 . S
C1169 C1168 1.400 . S
C1169 C1170 1.398 . S
C1170 H1158 0.950 . S
C1170 C1169 1.398 . S
C1170 C1171 1.391 . S
C1171 H1159 0.950 . S
C1171 C1167 1.393 . S
C1171 C1170 1.391 . S
H1172 C1180 0.950 . S
H1173 C1185 0.950 . S
H1174 C1182 0.950 . S
H1175 C1184 0.950 . S
H1176 C1186 0.950 . S
H1177 C1188 0.950 . S
H1178 C1190 0.950 . S
H1179 C1191 0.950 . S
C1180 H1172 0.950 . S
C1180 C1181 1.386 . S
C1180 C1182 1.391 . S
C1181 C1180 1.386 . S
C1181 C1185 1.393 . S
C1182 H1174 0.950 . S
C1182 C1180 1.391 . S
C1182 C1183 1.400 . S
C1183 C1182 1.400 . S
C1183 C1184 1.398 . S
C1183 C1189 1.491 . S
C1184 H1175 0.950 . S
C1184 C1183 1.398 . S
C1184 C1185 1.391 . S
C1185 H1173 0.950 . S
C1185 C1181 1.393 . S
C1185 C1184 1.391 . S
C1186 H1176 0.950 . S
C1186 C1187 1.386 . S
C1186 C1188 1.391 . S
C1187 C1186 1.386 . S
C1187 C1191 1.393 . S
C1188 H1177 0.950 . S
C1188 C1186 1.391 . S
C1188 C1189 1.400 . S
C1189 C1183 1.491 . S
C1189 C1188 1.400 . S
C1189 C1190 1.398 . S
C1190 H1178 0.950 . S
C1190 C1189 1.398 . S
C1190 C1191 1.391 . S
C1191 H1179 0.950 . S
C1191 C1187 1.393 . S
C1191 C1190 1.391 . S
H1192 C1200 0.950 . S
H1193 C1205 0.950 . S
H1194 C1202 0.950 . S
H1195 C1204 0.950 . S
H1196 C1206 0.950 . S
H1197 C1208 0.950 . S
H1198 C1210 0.950 . S
H1199 C1211 0.950 . S
C1200 H1192 0.950 . S
C1200 C1201 1.386 . S
C1200 C1202 1.391 . S
C1201 C1200 1.386 . S
C1201 C1205 1.393 . S
C1202 H1194 0.950 . S
C1202 C1200 1.391 . S
C1202 C1203 1.400 . S
C1203 C1202 1.400 . S
C1203 C1204 1.398 . S
C1203 C1209 1.491 . S
C1204 H1195 0.950 . S
C1204 C1203 1.398 . S
C1204 C1205 1.391 . S
C1205 H1193 0.950 . S
C1205 C1201 1.393 . S
C1205 C1204 1.391 . S
C1206 H1196 0.950 . S
C1206 C1207 1.386 . S
C1206 C1208 1.391 . S
C1207 C1206 1.386 . S
C1207 C1211 1.393 . S
C1208 H1197 0.950 . S
C1208 C1206 1.391 . S
C1208 C1209 1.400 . S
C1209 C1203 1.491 . S
C1209 C1208 1.400 . S
C1209 C1210 1.398 . S
C1210 H1198 0.950 . S
C1210 C1209 1.398 . S
C1210 C1211 1.391 . S
C1211 H1199 0.950 . S
C1211 C1207 1.393 . S
C1211 C1210 1.391 . S
H1212 C1220 0.950 . S
H1213 C1225 0.950 . S
H1214 C1222 0.950 . S
H1215 C1224 0.950 . S
H1216 C1226 0.950 . S
H1217 C1228 0.950 . S
H1218 C1230 0.950 . S
H1219 C1231 0.950 . S
C1220 H1212 0.950 . S
C1220 C1221 1.386 . S
C1220 C1222 1.391 . S
C1221 C1220 1.386 . S
C1221 C1225 1.393 . S
C1222 H1214 0.950 . S
C1222 C1220 1.391 . S
C1222 C1223 1.400 . S
C1223 C1222 1.400 . S
C1223 C1224 1.398 . S
C1223 C1229 1.491 . S
C1224 H1215 0.950 . S
C1224 C1223 1.398 . S
C1224 C1225 1.391 . S
C1225 H1213 0.950 . S
C1225 C1221 1.393 . S
C1225 C1224 1.391 . S
C1226 H1216 0.950 . S
C1226 C1227 1.386 . S
C1226 C1228 1.391 . S
C1227 C1226 1.386 . S
C1227 C1231 1.393 . S
C1228 H1217 0.950 . S
C1228 C1226 1.391 . S
C1228 C1229 1.400 . S
C1229 C1223 1.491 . S
C1229 C1228 1.400 . S
C1229 C1230 1.398 . S
C1230 H1218 0.950 . S
C1230 C1229 1.398 . S
C1230 C1231 1.391 . S
C1231 H1219 0.950 . S
C1231 C1227 1.393 . S
C1231 C1230 1.391 . S
H1232 C1240 0.950 . S
H1233 C1245 0.950 . S
H1234 C1242 0.950 . S
H1235 C1244 0.950 . S
H1236 C1246 0.950 . S
H1237 C1248 0.950 . S
H1238 C1250 0.950 . S
H1239 C1251 0.950 . S
C1240 H1232 0.950 . S
C1240 C1241 1.386 . S
C1240 C1242 1.391 . S
C1241 C1240 1.386 . S
C1241 C1245 1.393 . S
C1242 H1234 0.950 . S
C1242 C1240 1.391 . S
C1242 C1243 1.400 . S
C1243 C1242 1.400 . S
C1243 C1244 1.398 . S
C1243 C1249 1.491 . S
C1244 H1235 0.950 . S
C1244 C1243 1.398 . S
C1244 C1245 1.391 . S
C1245 H1233 0.950 . S
C1245 C1241 1.393 . S
C1245 C1244 1.391 . S
C1246 H1236 0.950 . S
C1246 C1247 1.386 . S
C1246 C1248 1.391 . S
C1247 C1246 1.386 . S
C1247 C1251 1.393 . S
C1248 H1237 0.950 . S
C1248 C1246 1.391 . S
C1248 C1249 1.400 . S
C1249 C1243 1.491 . S
C1249 C1248 1.400 . S
C1249 C1250 1.398 . S
C1250 H1238 0.950 . S
C1250 C1249 1.398 . S
C1250 C1251 1.391 . S
C1251 H1239 0.950 . S
C1251 C1247 1.393 . S
C1251 C1250 1.391 . S
H1252 C1260 0.950 . S
H1253 C1265 0.950 . S
H1254 C1262 0.950 . S
H1255 C1264 0.950 . S
H1256 C1266 0.950 . S
H1257 C1268 0.950 . S
H1258 C1270 0.950 . S
H1259 C1271 0.950 . S
C1260 H1252 0.950 . S
C1260 C1261 1.386 . S
C1260 C1262 1.391 . S
C1261 C1260 1.386 . S
C1261 C1265 1.393 . S
C1262 H1254 0.950 . S
C1262 C1260 1.391 . S
C1262 C1263 1.400 . S
C1263 C1262 1.400 . S
C1263 C1264 1.398 . S
C1263 C1269 1.491 . S
C1264 H1255 0.950 . S
C1264 C1263 1.398 . S
C1264 C1265 1.391 . S
C1265 H1253 0.950 . S
C1265 C1261 1.393 . S
C1265 C1264 1.391 . S
C1266 H1256 0.950 . S
C1266 C1267 1.386 . S
C1266 C1268 1.391 . S
C1267 C1266 1.386 . S
C1267 C1271 1.393 . S
C1268 H1257 0.950 . S
C1268 C1266 1.391 . S
C1268 C1269 1.400 . S
C1269 C1263 1.491 . S
C1269 C1268 1.400 . S
C1269 C1270 1.398 . S
C1270 H1258 0.950 . S
C1270 C1269 1.398 . S
C1270 C1271 1.391 . S
C1271 H1259 0.950 . S
C1271 C1267 1.393 . S
C1271 C1270 1.391 . S
H1272 C1280 0.950 . S
H1273 C1285 0.950 . S
H1274 C1282 0.950 . S
H1275 C1284 0.950 . S
H1276 C1286 0.950 . S
H1277 C1288 0.950 . S
H1278 C1290 0.950 . S
H1279 C1291 0.950 . S
C1280 H1272 0.950 . S
C1280 C1281 1.386 . S
C1280 C1282 1.391 . S
C1281 C1280 1.386 . S
C1281 C1285 1.393 . S
C1282 H1274 0.950 . S
C1282 C1280 1.391 . S
C1282 C1283 1.400 . S
C1283 C1282 1.400 . S
C1283 C1284 1.398 . S
C1283 C1289 1.491 . S
C1284 H1275 0.950 . S
C1284 C1283 1.398 . S
C1284 C1285 1.391 . S
C1285 H1273 0.950 . S
C1285 C1281 1.393 . S
C1285 C1284 1.391 . S
C1286 H1276 0.950 . S
C1286 C1287 1.386 . S
C1286 C1288 1.391 . S
C1287 C1286 1.386 . S
C1287 C1291 1.393 . S
C1288 H1277 0.950 . S
C1288 C1286 1.391 . S
C1288 C1289 1.400 . S
C1289 C1283 1.491 . S
C1289 C1288 1.400 . S
C1289 C1290 1.398 . S
C1290 H1278 0.950 . S
C1290 C1289 1.398 . S
C1290 C1291 1.391 . S
C1291 H1279 0.950 . S
C1291 C1287 1.393 . S
C1291 C1290 1.391 . S
H1292 C1300 0.950 . S
H1293 C1305 0.950 . S
H1294 C1302 0.950 . S
H1295 C1304 0.950 . S
H1296 C1306 0.950 . S
H1297 C1308 0.950 . S
H1298 C1310 0.950 . S
H1299 C1311 0.950 . S
C1300 H1292 0.950 . S
C1300 C1301 1.386 . S
C1300 C1302 1.391 . S
C1301 C1300 1.386 . S
C1301 C1305 1.393 . S
C1302 H1294 0.950 . S
C1302 C1300 1.391 . S
C1302 C1303 1.400 . S
C1303 C1302 1.400 . S
C1303 C1304 1.398 . S
C1303 C1309 1.491 . S
C1304 H1295 0.950 . S
C1304 C1303 1.398 . S
C1304 C1305 1.391 . S
C1305 H1293 0.950 . S
C1305 C1301 1.393 . S
C1305 C1304 1.391 . S
C1306 H1296 0.950 . S
C1306 C1307 1.386 . S
C1306 C1308 1.391 . S
C1307 C1306 1.386 . S
C1307 C1311 1.393 . S
C1308 H1297 0.950 . S
C1308 C1306 1.391 . S
C1308 C1309 1.400 . S
C1309 C1303 1.491 . S
C1309 C1308 1.400 . S
C1309 C1310 1.398 . S
C1310 H1298 0.950 . S
C1310 C1309 1.398 . S
C1310 C1311 1.391 . S
C1311 H1299 0.950 . S
C1311 C1307 1.393 . S
C1311 C1310 1.391 . S
H1312 C1320 0.950 . S
H1313 C1325 0.950 . S
H1314 C1322 0.950 . S
H1315 C1324 0.950 . S
H1316 C1326 0.950 . S
H1317 C1328 0.950 . S
H1318 C1330 0.950 . S
H1319 C1331 0.950 . S
C1320 H1312 0.950 . S
C1320 C1321 1.386 . S
C1320 C1322 1.391 . S
C1321 C1320 1.386 . S
C1321 C1325 1.393 . S
C1322 H1314 0.950 . S
C1322 C1320 1.391 . S
C1322 C1323 1.400 . S
C1323 C1322 1.400 . S
C1323 C1324 1.398 . S
C1323 C1329 1.491 . S
C1324 H1315 0.950 . S
C1324 C1323 1.398 . S
C1324 C1325 1.391 . S
C1325 H1313 0.950 . S
C1325 C1321 1.393 . S
C1325 C1324 1.391 . S
C1326 H1316 0.950 . S
C1326 C1327 1.386 . S
C1326 C1328 1.391 . S
C1327 C1326 1.386 . S
C1327 C1331 1.393 . S
C1328 H1317 0.950 . S
C1328 C1326 1.391 . S
C1328 C1329 1.400 . S
C1329 C1323 1.491 . S
C1329 C1328 1.400 . S
C1329 C1330 1.398 . S
C1330 H1318 0.950 . S
C1330 C1329 1.398 . S
C1330 C1331 1.391 . S
C1331 H1319 0.950 . S
C1331 C1327 1.393 . S
C1331 C1330 1.391 . S
H1332 C1340 0.950 . S
H1333 C1345 0.950 . S
H1334 C1342 0.950 . S
H1335 C1344 0.950 . S
H1336 C1346 0.950 . S
H1337 C1348 0.950 . S
H1338 C1350 0.950 . S
H1339 C1351 0.950 . S
C1340 H1332 0.950 . S
C1340 C1341 1.386 . S
C1340 C1342 1.391 . S
C1341 C1340 1.386 . S
C1341 C1345 1.393 . S
C1342 H1334 0.950 . S
C1342 C1340 1.391 . S
C1342 C1343 1.400 . S
C1343 C1342 1.400 . S
C1343 C1344 1.398 . S
C1343 C1349 1.491 . S
C1344 H1335 0.950 . S
C1344 C1343 1.398 . S
C1344 C1345 1.391 . S
C1345 H1333 0.950 . S
C1345 C1341 1.393 . S
C1345 C1344 1.391 . S
C1346 H1336 0.950 . S
C1346 C1347 1.386 . S
C1346 C1348 1.391 . S
C1347 C1346 1.386 . S
C1347 C1351 1.393 . S
C1348 H1337 0.950 . S
C1348 C1346 1.391 . S
C1348 C1349 1.400 . S
C1349 C1343 1.491 . S
C1349 C1348 1.400 . S
C1349 C1350 1.398 . S
C1350 H1338 0.950 . S
C1350 C1349 1.398 . S
C1350 C1351 1.391 . S
C1351 H1339 0.950 . S
C1351 C1347 1.393 . S
C1351 C1350 1.391 . S
H1352 C1360 0.950 . S
H1353 C1365 0.950 . S
H1354 C1362 0.950 . S
H1355 C1364 0.950 . S
H1356 C1366 0.950 . S
H1357 C1368 0.950 . S
H1358 C1370 0.950 . S
H1359 C1371 0.950 . S
C1360 H1352 0.950 . S
C1360 C1361 1.386 . S
C1360 C1362 1.391 . S
C1361 C1360 1.386 . S
C1361 C1365 1.393 . S
C1362 H1354 0.950 . S
C1362 C1360 1.391 . S
C1362 C1363 1.400 . S
C1363 C1362 1.400 . S
C1363 C1364 1.398 . S
C1363 C1369 1.491 . S
C1364 H1355 0.950 . S
C1364 C1363 1.398 . S
C1364 C1365 1.391 . S
C1365 H1353 0.950 . S
C1365 C1361 1.393 . S
C1365 C1364 1.391 . S
C1366 H1356 0.950 . S
C1366 C1367 1.386 . S
C1366 C1368 1.391 . S
C1367 C1366 1.386 . S
C1367 C1371 1.393 . S
C1368 H1357 0.950 . S
C1368 C1366 1.391 . S
C1368 C1369 1.400 . S
C1369 C1363 1.491 . S
C1369 C1368 1.400 . S
C1369 C1370 1.398 . S
C1370 H1358 0.950 . S
C1370 C1369 1.398 . S
C1370 C1371 1.391 . S
C1371 H1359 0.950 . S
C1371 C1367 1.393 . S
C1371 C1370 1.391 . S
H1372 C1380 0.950 . S
H1373 C1385 0.950 . S
H1374 C1382 0.950 . S
H1375 C1384 0.950 . S
H1376 C1386 0.950 . S
H1377 C1388 0.950 . S
H1378 C1390 0.950 . S
H1379 C1391 0.950 . S
C1380 H1372 0.950 . S
C1380 C1381 1.386 . S
C1380 C1382 1.391 . S
C1381 C1380 1.386 . S
C1381 C1385 1.393 . S
C1382 H1374 0.950 . S
C1382 C1380 1.391 . S
C1382 C1383 1.400 . S
C1383 C1382 1.400 . S
C1383 C1384 1.398 . S
C1383 C1389 1.491 . S
C1384 H1375 0.950 . S
C1384 C1383 1.398 . S
C1384 C1385 1.391 . S
C1385 H1373 0.950 . S
C1385 C1381 1.393 . S
C1385 C1384 1.391 . S
C1386 H1376 0.950 . S
C1386 C1387 1.386 . S
C1386 C1388 1.391 . S
C1387 C1386 1.386 . S
C1387 C1391 1.393 . S
C1388 H1377 0.950 . S
C1388 C1386 1.391 . S
C1388 C1389 1.400 . S
C1389 C1383 1.491 . S
C1389 C1388 1.400 . S
C1389 C1390 1.398 . S
C1390 H1378 0.950 . S
C1390 C1389 1.398 . S
C1390 C1391 1.391 . S
C1391 H1379 0.950 . S
C1391 C1387 1.393 . S
C1391 C1390 1.391 . S
C921 C31 1.450 1_455 S
C927 C341 1.446 1_655 S
C941 C73 1.661 . S
C947 C612 1.661 . S
C961 C98 1.655 . S
C967 C243 1.655 . S
C981 C542 1.482 1_565 S
C987 C1 1.478 1_545 S
C1001 C113 1.455 1_655 S
C1007 C259 1.460 1_455 S
C1021 C156 1.660 . S
C1027 C529 1.660 . S
C1041 C326 1.636 . S
C1047 C15 1.636 . S
C1061 C457 1.486 1_545 S
C1067 C86 1.490 1_565 S
C1081 C827 1.483 1_556 S
C1087 C58 1.478 1_554 S
C1101 C810 1.658 . S
C1107 C45 1.658 . S
C1121 C729 1.658 . S
C1127 C126 1.658 . S
C1141 C143 1.482 1_556 S
C1147 C742 1.486 1_554 S
C1161 C840 1.622 . S
C1167 C301 1.628 . S
C1181 C229 1.453 . S
C1187 C770 1.454 . S
C1201 C384 1.633 . S
C1207 C757 1.627 . S
C1221 C685 1.486 . S
C1227 C314 1.486 . S
C1241 C599 1.474 . S
C1247 C286 1.473 . S
C1261 C273 1.640 . S
C1267 C582 1.635 . S
C1281 C354 1.651 . S
C1287 C501 1.656 . S
C1301 C514 1.480 . S
C1307 C371 1.480 . S
C1321 C797 1.462 . S
C1327 C487 1.462 . S
C1341 C554 1.654 . S
C1347 C699 1.659 . S
C1361 C715 1.486 . S
C1367 C569 1.486 . S
C1381 C471 1.660 . S
C1387 C782 1.655 . S
