# Generated by pormake.
# Topology uox, (4)-cn, num edge types: 1
# Building blocks:
#     Node 0, Type 0, BuildingBlock: GALJAG_clean_sbu_0, # of connection points: 4
#     Node 1, Type 0, BuildingBlock: GALJAG_clean_sbu_0, # of connection points: 4
#     Node 2, Type 0, BuildingBlock: GALJAG_clean_sbu_0, # of connection points: 4
#     Node 3, Type 0, BuildingBlock: GALJAG_clean_sbu_0, # of connection points: 4
#     Node 4, Type 0, BuildingBlock: GALJAG_clean_sbu_0, # of connection points: 4
#     Node 5, Type 0, BuildingBlock: GALJAG_clean_sbu_0, # of connection points: 4
#     Node 6, Type 0, BuildingBlock: GALJAG_clean_sbu_0, # of connection points: 4
#     Node 7, Type 0, BuildingBlock: GALJAG_clean_sbu_0, # of connection points: 4
#     Node 8, Type 0, BuildingBlock: GALJAG_clean_sbu_0, # of connection points: 4
#     Node 9, Type 0, BuildingBlock: GALJAG_clean_sbu_0, # of connection points: 4
#     Node 10, Type 0, BuildingBlock: GALJAG_clean_sbu_0, # of connection points: 4
#     Node 11, Type 0, BuildingBlock: GALJAG_clean_sbu_0, # of connection points: 4
#     Node 12, Type 0, BuildingBlock: GALJAG_clean_sbu_0, # of connection points: 4
#     Node 13, Type 0, BuildingBlock: GALJAG_clean_sbu_0, # of connection points: 4
#     Node 14, Type 0, BuildingBlock: GALJAG_clean_sbu_0, # of connection points: 4
#     Node 15, Type 0, BuildingBlock: GALJAG_clean_sbu_0, # of connection points: 4
#     Node 16, Type 0, BuildingBlock: GALJAG_clean_sbu_0, # of connection points: 4
#     Node 17, Type 0, BuildingBlock: GALJAG_clean_sbu_0, # of connection points: 4
#     Node 18, Type 0, BuildingBlock: GALJAG_clean_sbu_0, # of connection points: 4
#     Node 19, Type 0, BuildingBlock: GALJAG_clean_sbu_0, # of connection points: 4
#     Node 20, Type 0, BuildingBlock: GALJAG_clean_sbu_0, # of connection points: 4
#     Node 21, Type 0, BuildingBlock: GALJAG_clean_sbu_0, # of connection points: 4
#     Node 22, Type 0, BuildingBlock: GALJAG_clean_sbu_0, # of connection points: 4
#     Node 23, Type 0, BuildingBlock: GALJAG_clean_sbu_0, # of connection points: 4
#     Node 24, Type 0, BuildingBlock: GALJAG_clean_sbu_0, # of connection points: 4
#     Node 25, Type 0, BuildingBlock: GALJAG_clean_sbu_0, # of connection points: 4
#     Node 26, Type 0, BuildingBlock: GALJAG_clean_sbu_0, # of connection points: 4
#     Node 27, Type 0, BuildingBlock: GALJAG_clean_sbu_0, # of connection points: 4
#     Node 28, Type 0, BuildingBlock: GALJAG_clean_sbu_0, # of connection points: 4
#     Node 29, Type 0, BuildingBlock: GALJAG_clean_sbu_0, # of connection points: 4
#     Node 30, Type 0, BuildingBlock: GALJAG_clean_sbu_0, # of connection points: 4
#     Node 31, Type 0, BuildingBlock: GALJAG_clean_sbu_0, # of connection points: 4
#     Edge 32, Type (0, 0), BuildingBlock: EZIPEK_clean_linker_0, # of connection points: 2
#     Edge 33, Type (0, 0), BuildingBlock: EZIPEK_clean_linker_0, # of connection points: 2
#     Edge 34, Type (0, 0), BuildingBlock: EZIPEK_clean_linker_0, # of connection points: 2
#     Edge 35, Type (0, 0), BuildingBlock: EZIPEK_clean_linker_0, # of connection points: 2
#     Edge 36, Type (0, 0), BuildingBlock: EZIPEK_clean_linker_0, # of connection points: 2
#     Edge 37, Type (0, 0), BuildingBlock: EZIPEK_clean_linker_0, # of connection points: 2
#     Edge 38, Type (0, 0), BuildingBlock: EZIPEK_clean_linker_0, # of connection points: 2
#     Edge 39, Type (0, 0), BuildingBlock: EZIPEK_clean_linker_0, # of connection points: 2
#     Edge 40, Type (0, 0), BuildingBlock: EZIPEK_clean_linker_0, # of connection points: 2
#     Edge 41, Type (0, 0), BuildingBlock: EZIPEK_clean_linker_0, # of connection points: 2
#     Edge 42, Type (0, 0), BuildingBlock: EZIPEK_clean_linker_0, # of connection points: 2
#     Edge 43, Type (0, 0), BuildingBlock: EZIPEK_clean_linker_0, # of connection points: 2
#     Edge 44, Type (0, 0), BuildingBlock: EZIPEK_clean_linker_0, # of connection points: 2
#     Edge 45, Type (0, 0), BuildingBlock: EZIPEK_clean_linker_0, # of connection points: 2
#     Edge 46, Type (0, 0), BuildingBlock: EZIPEK_clean_linker_0, # of connection points: 2
#     Edge 47, Type (0, 0), BuildingBlock: EZIPEK_clean_linker_0, # of connection points: 2
#     Edge 48, Type (0, 0), BuildingBlock: EZIPEK_clean_linker_0, # of connection points: 2
#     Edge 49, Type (0, 0), BuildingBlock: EZIPEK_clean_linker_0, # of connection points: 2
#     Edge 50, Type (0, 0), BuildingBlock: EZIPEK_clean_linker_0, # of connection points: 2
#     Edge 51, Type (0, 0), BuildingBlock: EZIPEK_clean_linker_0, # of connection points: 2
#     Edge 52, Type (0, 0), BuildingBlock: EZIPEK_clean_linker_0, # of connection points: 2
#     Edge 53, Type (0, 0), BuildingBlock: EZIPEK_clean_linker_0, # of connection points: 2
#     Edge 54, Type (0, 0), BuildingBlock: EZIPEK_clean_linker_0, # of connection points: 2
#     Edge 55, Type (0, 0), BuildingBlock: EZIPEK_clean_linker_0, # of connection points: 2
#     Edge 56, Type (0, 0), BuildingBlock: EZIPEK_clean_linker_0, # of connection points: 2
#     Edge 57, Type (0, 0), BuildingBlock: EZIPEK_clean_linker_0, # of connection points: 2
#     Edge 58, Type (0, 0), BuildingBlock: EZIPEK_clean_linker_0, # of connection points: 2
#     Edge 59, Type (0, 0), BuildingBlock: EZIPEK_clean_linker_0, # of connection points: 2
#     Edge 60, Type (0, 0), BuildingBlock: EZIPEK_clean_linker_0, # of connection points: 2
#     Edge 61, Type (0, 0), BuildingBlock: EZIPEK_clean_linker_0, # of connection points: 2
#     Edge 62, Type (0, 0), BuildingBlock: EZIPEK_clean_linker_0, # of connection points: 2
#     Edge 63, Type (0, 0), BuildingBlock: EZIPEK_clean_linker_0, # of connection points: 2
#     Edge 64, Type (0, 0), BuildingBlock: EZIPEK_clean_linker_0, # of connection points: 2
#     Edge 65, Type (0, 0), BuildingBlock: EZIPEK_clean_linker_0, # of connection points: 2
#     Edge 66, Type (0, 0), BuildingBlock: EZIPEK_clean_linker_0, # of connection points: 2
#     Edge 67, Type (0, 0), BuildingBlock: EZIPEK_clean_linker_0, # of connection points: 2
#     Edge 68, Type (0, 0), BuildingBlock: EZIPEK_clean_linker_0, # of connection points: 2
#     Edge 69, Type (0, 0), BuildingBlock: EZIPEK_clean_linker_0, # of connection points: 2
#     Edge 70, Type (0, 0), BuildingBlock: EZIPEK_clean_linker_0, # of connection points: 2
#     Edge 71, Type (0, 0), BuildingBlock: EZIPEK_clean_linker_0, # of connection points: 2
#     Edge 72, Type (0, 0), BuildingBlock: EZIPEK_clean_linker_0, # of connection points: 2
#     Edge 73, Type (0, 0), BuildingBlock: EZIPEK_clean_linker_0, # of connection points: 2
#     Edge 74, Type (0, 0), BuildingBlock: EZIPEK_clean_linker_0, # of connection points: 2
#     Edge 75, Type (0, 0), BuildingBlock: EZIPEK_clean_linker_0, # of connection points: 2
#     Edge 76, Type (0, 0), BuildingBlock: EZIPEK_clean_linker_0, # of connection points: 2
#     Edge 77, Type (0, 0), BuildingBlock: EZIPEK_clean_linker_0, # of connection points: 2
#     Edge 78, Type (0, 0), BuildingBlock: EZIPEK_clean_linker_0, # of connection points: 2
#     Edge 79, Type (0, 0), BuildingBlock: EZIPEK_clean_linker_0, # of connection points: 2
#     Edge 80, Type (0, 0), BuildingBlock: EZIPEK_clean_linker_0, # of connection points: 2
#     Edge 81, Type (0, 0), BuildingBlock: EZIPEK_clean_linker_0, # of connection points: 2
#     Edge 82, Type (0, 0), BuildingBlock: EZIPEK_clean_linker_0, # of connection points: 2
#     Edge 83, Type (0, 0), BuildingBlock: EZIPEK_clean_linker_0, # of connection points: 2
#     Edge 84, Type (0, 0), BuildingBlock: EZIPEK_clean_linker_0, # of connection points: 2
#     Edge 85, Type (0, 0), BuildingBlock: EZIPEK_clean_linker_0, # of connection points: 2
#     Edge 86, Type (0, 0), BuildingBlock: EZIPEK_clean_linker_0, # of connection points: 2
#     Edge 87, Type (0, 0), BuildingBlock: EZIPEK_clean_linker_0, # of connection points: 2
#     Edge 88, Type (0, 0), BuildingBlock: EZIPEK_clean_linker_0, # of connection points: 2
#     Edge 89, Type (0, 0), BuildingBlock: EZIPEK_clean_linker_0, # of connection points: 2
#     Edge 90, Type (0, 0), BuildingBlock: EZIPEK_clean_linker_0, # of connection points: 2
#     Edge 91, Type (0, 0), BuildingBlock: EZIPEK_clean_linker_0, # of connection points: 2
#     Edge 92, Type (0, 0), BuildingBlock: EZIPEK_clean_linker_0, # of connection points: 2
#     Edge 93, Type (0, 0), BuildingBlock: EZIPEK_clean_linker_0, # of connection points: 2
#     Edge 94, Type (0, 0), BuildingBlock: EZIPEK_clean_linker_0, # of connection points: 2
#     Edge 95, Type (0, 0), BuildingBlock: EZIPEK_clean_linker_0, # of connection points: 2
# Relax obj value: 0.005
# Max RMSD: 0.035
# Mean RMSD: 0.035
data_MOF--net-uox--node1-GALJAG_clean_sbu_0--edge1-EZIPEK_clean_linker_0
_symmetry_space_group_name_H-M    P1
_symmetry_Int_Tables_number       1
_symmetry_cell_setting            triclinic
loop_
_symmetry_equiv_pos_as_xyz
'x, y, z'
_cell_length_a     35.577679
_cell_length_b     35.604687
_cell_length_c     53.247421
_cell_angle_alpha  90.000715
_cell_angle_beta   89.983501
_cell_angle_gamma 90.000345
loop_
_atom_site_label
_atom_site_type_symbol
_atom_site_fract_x
_atom_site_fract_y
_atom_site_fract_z
_atom_type_partial_charge
In0 In 0.39509 0.06993 0.15667 0.0
O1 O 0.37641 0.0222 0.13095 0.0
O2 O 0.33816 0.04174 0.15905 0.0
C3 C 0.46468 0.07661 0.13716 0.0
C4 C 0.40224 0.04149 0.20322 0.0
C5 C 0.36643 0.13805 0.14434 0.0
O6 O 0.43863 0.0599 0.12557 0.0
O7 O 0.4559 0.08921 0.15846 0.0
O8 O 0.38904 0.13357 0.16233 0.0
O9 O 0.35731 0.10816 0.13331 0.0
C10 C 0.34456 0.01907 0.14134 0.0
O11 O 0.38489 0.07182 0.19901 0.0
O12 O 0.41687 0.02631 0.18419 0.0
In13 In 0.18534 0.13991 0.4075 0.0
O14 O 0.18775 0.1228 0.4489 0.0
O15 O 0.22413 0.16644 0.4365 0.0
C16 C 0.11512 0.11584 0.39844 0.0
C17 C 0.23416 0.08769 0.39022 0.0
C18 C 0.17648 0.20867 0.38728 0.0
O19 O 0.12553 0.12596 0.42011 0.0
O20 O 0.14005 0.11729 0.3816 0.0
O21 O 0.19546 0.18346 0.37643 0.0
O22 O 0.16256 0.19944 0.40812 0.0
C23 C 0.21338 0.14593 0.45438 0.0
O24 O 0.24272 0.12196 0.39223 0.0
O25 O 0.20064 0.08011 0.39588 0.0
In26 In 0.10571 0.9336 0.65456 0.0
O27 O 0.12705 0.98248 0.63087 0.0
O28 O 0.16433 0.95805 0.65771 0.0
C29 C 0.03603 0.92954 0.63486 0.0
C30 C 0.09851 0.9597 0.70174 0.0
C31 C 0.13219 0.86569 0.64014 0.0
O32 O 0.0615 0.94937 0.625 0.0
O33 O 0.04542 0.91266 0.65468 0.0
O34 O 0.11284 0.87014 0.65978 0.0
O35 O 0.13901 0.89552 0.62828 0.0
C36 C 0.15913 0.98284 0.64113 0.0
O37 O 0.11557 0.92945 0.69684 0.0
O38 O 0.08405 0.97598 0.68307 0.0
In39 In 0.31928 0.85598 0.90699 0.0
O40 O 0.32402 0.85068 0.94946 0.0
O41 O 0.26983 0.84438 0.93302 0.0
C42 C 0.38712 0.88693 0.89727 0.0
C43 C 0.26996 0.90793 0.8906 0.0
C44 C 0.32927 0.78503 0.89023 0.0
O45 O 0.37368 0.88525 0.91916 0.0
O46 O 0.3661 0.87402 0.88032 0.0
O47 O 0.31289 0.80972 0.8772 0.0
O48 O 0.33939 0.7958 0.91172 0.0
C49 C 0.28923 0.84562 0.95284 0.0
O50 O 0.27184 0.87542 0.88112 0.0
O51 O 0.29357 0.9144 0.90773 0.0
In52 In 0.39828 0.93037 0.34356 0.0
O53 O 0.38626 0.93369 0.30156 0.0
O54 O 0.42203 0.9753 0.31747 0.0
C55 C 0.37158 0.86131 0.35378 0.0
C56 C 0.34595 0.97794 0.36117 0.0
C57 C 0.46839 0.91915 0.3609 0.0
O58 O 0.38084 0.87122 0.33186 0.0
O59 O 0.37496 0.88636 0.3704 0.0
O60 O 0.44543 0.94053 0.37198 0.0
O61 O 0.45635 0.90406 0.34105 0.0
C62 C 0.40534 0.96315 0.29824 0.0
O63 O 0.37973 0.97937 0.36837 0.0
O64 O 0.33836 0.9521 0.34584 0.0
In65 In 0.32009 0.14426 0.59663 0.0
O66 O 0.2782 0.12315 0.6259 0.0
O67 O 0.29256 0.08685 0.59555 0.0
C68 C 0.32782 0.21589 0.61257 0.0
C69 C 0.2887 0.15006 0.55069 0.0
C70 C 0.38907 0.11736 0.60737 0.0
O71 O 0.30191 0.19481 0.62055 0.0
O72 O 0.349 0.20103 0.59643 0.0
O73 O 0.38038 0.12939 0.58586 0.0
O74 O 0.36295 0.11811 0.62339 0.0
C75 C 0.27292 0.0921 0.61495 0.0
O76 O 0.31969 0.13369 0.55436 0.0
O77 O 0.27423 0.16467 0.56997 0.0
In78 In 0.10689 0.06662 0.84347 0.0
O79 O 0.12571 0.02098 0.87098 0.0
O80 O 0.16522 0.04079 0.84404 0.0
C81 C 0.03612 0.078 0.85948 0.0
C82 C 0.09888 0.03405 0.79818 0.0
C83 C 0.13417 0.13559 0.85387 0.0
O84 O 0.05783 0.05492 0.87015 0.0
O85 O 0.04976 0.0947 0.8407 0.0
O86 O 0.1258 0.12548 0.83185 0.0
O87 O 0.12993 0.11069 0.87048 0.0
C88 C 0.1583 0.01831 0.86173 0.0
O89 O 0.11843 0.06321 0.80146 0.0
O90 O 0.08247 0.02184 0.81751 0.0
In91 In 0.18471 0.8564 0.09519 0.0
O92 O 0.1872 0.86468 0.05266 0.0
O93 O 0.22973 0.8313 0.06983 0.0
C94 C 0.11547 0.88371 0.1041 0.0
C95 C 0.23296 0.90939 0.11184 0.0
C96 C 0.17283 0.78746 0.1142 0.0
O97 O 0.12704 0.87675 0.08213 0.0
O98 O 0.13894 0.87749 0.12139 0.0
O99 O 0.19095 0.81223 0.1261 0.0
O100 O 0.16109 0.7972 0.09284 0.0
C101 C 0.21684 0.84561 0.04999 0.0
O102 O 0.23762 0.87485 0.11621 0.0
O103 O 0.20334 0.91725 0.09999 0.0
In104 In 0.60552 0.93438 0.84607 0.0
O105 O 0.62681 0.98205 0.87071 0.0
O106 O 0.66343 0.96029 0.84241 0.0
C107 C 0.53616 0.92885 0.86616 0.0
C108 C 0.59779 0.9624 0.7994 0.0
C109 C 0.63377 0.86635 0.85871 0.0
O110 O 0.562 0.94724 0.87676 0.0
O111 O 0.54495 0.91438 0.84541 0.0
O112 O 0.6134 0.87126 0.83962 0.0
O113 O 0.64082 0.89583 0.87088 0.0
C114 C 0.65837 0.98389 0.8598 0.0
O115 O 0.61152 0.93025 0.80351 0.0
O116 O 0.58669 0.97968 0.8187 0.0
In117 In 0.81972 0.85906 0.59141 0.0
O118 O 0.77653 0.88251 0.61899 0.0
O119 O 0.79399 0.91731 0.58851 0.0
C120 C 0.82765 0.78841 0.60887 0.0
C121 C 0.79059 0.84662 0.54549 0.0
C122 C 0.88698 0.88992 0.60232 0.0
O123 O 0.80268 0.81029 0.61724 0.0
O124 O 0.84799 0.80188 0.59173 0.0
O125 O 0.87436 0.88836 0.58019 0.0
O126 O 0.86531 0.87699 0.61895 0.0
C127 C 0.7733 0.91345 0.60756 0.0
O128 O 0.82526 0.85202 0.54902 0.0
O129 O 0.77093 0.84612 0.56518 0.0
In130 In 0.89739 0.06856 0.34414 0.0
O131 O 0.88626 0.07003 0.30191 0.0
O132 O 0.9208 0.02612 0.31616 0.0
C133 C 0.86794 0.13583 0.35719 0.0
C134 C 0.84679 0.01793 0.35968 0.0
C135 C 0.96657 0.07767 0.36385 0.0
O136 O 0.88854 0.13158 0.33811 0.0
O137 O 0.86105 0.10598 0.36902 0.0
O138 O 0.94303 0.05515 0.37326 0.0
O139 O 0.95557 0.09475 0.34449 0.0
C140 C 0.90475 0.04052 0.29738 0.0
O141 O 0.87866 0.02101 0.37003 0.0
O142 O 0.84034 0.04065 0.34202 0.0
In143 In 0.68241 0.14318 0.09236 0.0
O144 O 0.72771 0.12429 0.12009 0.0
O145 O 0.71043 0.08582 0.09178 0.0
C146 C 0.67109 0.21416 0.10796 0.0
C147 C 0.71327 0.15173 0.04657 0.0
C148 C 0.61429 0.11455 0.10381 0.0
O149 O 0.69541 0.19312 0.11795 0.0
O150 O 0.65308 0.1998 0.09 0.0
O151 O 0.62431 0.1212 0.08151 0.0
O152 O 0.63897 0.12106 0.12025 0.0
C153 C 0.73202 0.09247 0.11001 0.0
O154 O 0.683 0.13399 0.05002 0.0
O155 O 0.72736 0.16624 0.06601 0.0
In156 In 0.60891 0.06893 0.65743 0.0
O157 O 0.62305 0.06369 0.69921 0.0
O158 O 0.58131 0.02723 0.68424 0.0
C159 C 0.63171 0.13931 0.64729 0.0
C160 C 0.66364 0.02354 0.6395 0.0
C161 C 0.53918 0.07882 0.63925 0.0
O162 O 0.6259 0.12819 0.66953 0.0
O163 O 0.62673 0.11487 0.63043 0.0
O164 O 0.56285 0.05799 0.62826 0.0
O165 O 0.55056 0.09412 0.65921 0.0
C166 C 0.60007 0.0373 0.7031 0.0
O167 O 0.62913 0.0161 0.63694 0.0
O168 O 0.67037 0.05444 0.65006 0.0
In169 In 0.6874 0.85325 0.40285 0.0
O170 O 0.69007 0.86409 0.4451 0.0
O171 O 0.73029 0.82674 0.42916 0.0
C172 C 0.61765 0.87835 0.39315 0.0
C173 C 0.73548 0.90693 0.38725 0.0
C174 C 0.67772 0.78488 0.38258 0.0
O175 O 0.62739 0.86741 0.41478 0.0
O176 O 0.64312 0.87737 0.37665 0.0
O177 O 0.6968 0.80997 0.37167 0.0
O178 O 0.66402 0.79407 0.40352 0.0
C179 C 0.71828 0.8432 0.44848 0.0
O180 O 0.74075 0.87249 0.3828 0.0
O181 O 0.7053 0.91436 0.39862 0.0
In182 In 0.89723 0.93496 0.15504 0.0
O183 O 0.88624 0.93494 0.19729 0.0
O184 O 0.9198 0.97902 0.18211 0.0
C185 C 0.86862 0.86651 0.14362 0.0
C186 C 0.84612 0.98496 0.13909 0.0
C187 C 0.96645 0.92674 0.13524 0.0
O188 O 0.89111 0.87153 0.16162 0.0
O189 O 0.85967 0.89606 0.13212 0.0
O190 O 0.94059 0.94377 0.12363 0.0
O191 O 0.9577 0.91479 0.15672 0.0
C192 C 0.90438 0.96488 0.20121 0.0
O193 O 0.87849 0.98277 0.1293 0.0
O194 O 0.83966 0.96175 0.15648 0.0
In195 In 0.81858 0.14649 0.90403 0.0
O196 O 0.77417 0.12654 0.87606 0.0
O197 O 0.7917 0.08874 0.90476 0.0
C198 C 0.82663 0.21742 0.88711 0.0
C199 C 0.7892 0.15315 0.95052 0.0
C200 C 0.88719 0.11977 0.89221 0.0
O201 O 0.8005 0.19628 0.87952 0.0
O202 O 0.84784 0.20302 0.90343 0.0
O203 O 0.87932 0.13205 0.91381 0.0
O204 O 0.86042 0.1202 0.87668 0.0
C205 C 0.77038 0.09475 0.88629 0.0
O206 O 0.81771 0.1332 0.94597 0.0
O207 O 0.77621 0.1707 0.9319 0.0
In208 In 0.89068 0.56885 0.65142 0.0
O209 O 0.87914 0.56399 0.69336 0.0
O210 O 0.91959 0.52698 0.67744 0.0
C211 C 0.86399 0.63829 0.64176 0.0
C212 C 0.83784 0.52064 0.63495 0.0
C213 C 0.96047 0.57811 0.63305 0.0
O214 O 0.87591 0.62882 0.66316 0.0
O215 O 0.86438 0.61258 0.62547 0.0
O216 O 0.93817 0.55397 0.62407 0.0
O217 O 0.94783 0.59697 0.65122 0.0
C218 C 0.90159 0.53701 0.69671 0.0
O219 O 0.86867 0.52516 0.62354 0.0
O220 O 0.83341 0.54105 0.65405 0.0
In221 In 0.68714 0.6448 0.9052 0.0
O222 O 0.68725 0.63232 0.94726 0.0
O223 O 0.73034 0.66775 0.93283 0.0
C224 C 0.61972 0.6169 0.8918 0.0
C225 C 0.73621 0.59447 0.88657 0.0
C226 C 0.67607 0.71654 0.89081 0.0
O227 O 0.62884 0.62168 0.91448 0.0
O228 O 0.64462 0.62552 0.87594 0.0
O229 O 0.70246 0.69674 0.88205 0.0
O230 O 0.65617 0.70049 0.90724 0.0
C231 C 0.71661 0.65112 0.9516 0.0
O232 O 0.73296 0.62706 0.87748 0.0
O233 O 0.71406 0.58705 0.90434 0.0
In234 In 0.60559 0.43214 0.1531 0.0
O235 O 0.6215 0.43577 0.19455 0.0
O236 O 0.57648 0.46988 0.1816 0.0
C237 C 0.63115 0.36319 0.1414 0.0
C238 C 0.65649 0.48283 0.13731 0.0
C239 C 0.53622 0.42276 0.13436 0.0
O240 O 0.62076 0.37178 0.16334 0.0
O241 O 0.62958 0.38949 0.12554 0.0
O242 O 0.55975 0.44454 0.12414 0.0
O243 O 0.54752 0.40614 0.15387 0.0
C244 C 0.59745 0.46068 0.19963 0.0
O245 O 0.62217 0.48504 0.13144 0.0
O246 O 0.66524 0.4545 0.15023 0.0
In247 In 0.81968 0.3563 0.40767 0.0
O248 O 0.81777 0.3695 0.44966 0.0
O249 O 0.77644 0.33234 0.43497 0.0
C250 C 0.88882 0.38176 0.39576 0.0
C251 C 0.77197 0.4084 0.38972 0.0
C252 C 0.82797 0.28518 0.39113 0.0
O253 O 0.88045 0.37078 0.4176 0.0
O254 O 0.86224 0.38088 0.38009 0.0
O255 O 0.80279 0.30671 0.38261 0.0
O256 O 0.84803 0.29929 0.40821 0.0
C257 C 0.78896 0.34975 0.45379 0.0
O258 O 0.77454 0.37601 0.38017 0.0
O259 O 0.79424 0.41482 0.40762 0.0
In260 In 0.8964 0.43334 0.83953 0.0
O261 O 0.8782 0.47981 0.86648 0.0
O262 O 0.84086 0.46399 0.83692 0.0
C263 C 0.96558 0.42253 0.85858 0.0
C264 C 0.90517 0.4619 0.79309 0.0
C265 C 0.86607 0.36652 0.85259 0.0
O266 O 0.94345 0.44688 0.86753 0.0
O267 O 0.95307 0.40438 0.84005 0.0
O268 O 0.88575 0.37066 0.83307 0.0
O269 O 0.86037 0.39631 0.86476 0.0
C270 C 0.84701 0.48497 0.85557 0.0
O271 O 0.88251 0.43549 0.79773 0.0
O272 O 0.9246 0.47257 0.81156 0.0
In273 In 0.81816 0.64534 0.09527 0.0
O274 O 0.82031 0.6329 0.05323 0.0
O275 O 0.77564 0.6671 0.06677 0.0
C276 C 0.88603 0.6184 0.10864 0.0
C277 C 0.76811 0.59438 0.11166 0.0
C278 C 0.827 0.7166 0.1116 0.0
O279 O 0.87896 0.62978 0.08672 0.0
O280 O 0.85878 0.61969 0.12377 0.0
O281 O 0.80293 0.69472 0.12109 0.0
O282 O 0.84553 0.70283 0.09366 0.0
C283 C 0.7906 0.65077 0.04829 0.0
O284 O 0.77002 0.627 0.12092 0.0
O285 O 0.79202 0.58719 0.09485 0.0
In286 In 0.60953 0.56691 0.34151 0.0
O287 O 0.62172 0.56196 0.2997 0.0
O288 O 0.58154 0.52446 0.31544 0.0
C289 C 0.63698 0.6362 0.35032 0.0
C290 C 0.66131 0.51855 0.3593 0.0
C291 C 0.53957 0.57731 0.35941 0.0
O292 O 0.62521 0.62622 0.329 0.0
O293 O 0.63596 0.61107 0.367 0.0
O294 O 0.56154 0.55314 0.36868 0.0
O295 O 0.5526 0.59568 0.34115 0.0
C296 C 0.59962 0.53473 0.29626 0.0
O297 O 0.62995 0.52332 0.36997 0.0
O298 O 0.66683 0.53878 0.34024 0.0
In299 In 0.6754 0.35821 0.59334 0.0
O300 O 0.67783 0.36772 0.55103 0.0
O301 O 0.72151 0.33542 0.56784 0.0
C302 C 0.60563 0.38498 0.60188 0.0
C303 C 0.72451 0.41058 0.60902 0.0
C304 C 0.66695 0.28912 0.61327 0.0
O305 O 0.61449 0.36899 0.58158 0.0
O306 O 0.63188 0.38814 0.61761 0.0
O307 O 0.68236 0.31558 0.62523 0.0
O308 O 0.65656 0.29717 0.5913 0.0
C309 C 0.70835 0.35011 0.54817 0.0
O310 O 0.72366 0.37791 0.6183 0.0
O311 O 0.69981 0.41713 0.59261 0.0
In312 In 0.10913 0.42648 0.34398 0.0
O313 O 0.11798 0.42795 0.30162 0.0
O314 O 0.08553 0.47174 0.31811 0.0
C315 C 0.13628 0.35738 0.35415 0.0
C316 C 0.16217 0.47463 0.36042 0.0
C317 C 0.03859 0.41764 0.36145 0.0
O318 O 0.1259 0.36699 0.33242 0.0
O319 O 0.134 0.38278 0.37059 0.0
O320 O 0.06131 0.44056 0.37127 0.0
O321 O 0.05116 0.39968 0.34286 0.0
C322 C 0.1 0.45815 0.2985 0.0
O323 O 0.13066 0.47134 0.37116 0.0
O324 O 0.16737 0.45267 0.34219 0.0
In325 In 0.31661 0.35805 0.09341 0.0
O326 O 0.31307 0.37133 0.05161 0.0
O327 O 0.27367 0.33229 0.06656 0.0
C328 C 0.38611 0.38436 0.10308 0.0
C329 C 0.2689 0.41023 0.11146 0.0
C330 C 0.32572 0.28738 0.11066 0.0
O331 O 0.37659 0.37243 0.0817 0.0
O332 O 0.36049 0.38393 0.11945 0.0
O333 O 0.30093 0.30913 0.11946 0.0
O334 O 0.34501 0.30104 0.09302 0.0
C335 C 0.28519 0.35026 0.04768 0.0
O336 O 0.27293 0.37856 0.12184 0.0
O337 O 0.28972 0.41586 0.0927 0.0
In338 In 0.39683 0.56642 0.84673 0.0
O339 O 0.38031 0.5148 0.86978 0.0
O340 O 0.33734 0.54393 0.84978 0.0
C341 C 0.46908 0.57601 0.86113 0.0
C342 C 0.40005 0.53672 0.80051 0.0
C343 C 0.37014 0.63522 0.85823 0.0
O344 O 0.44357 0.56693 0.87645 0.0
O345 O 0.45849 0.57861 0.83864 0.0
O346 O 0.37808 0.62588 0.83597 0.0
O347 O 0.37493 0.60991 0.87446 0.0
C348 C 0.34604 0.51651 0.8636 0.0
O349 O 0.38896 0.57 0.80438 0.0
O350 O 0.41031 0.51892 0.81983 0.0
In351 In 0.17808 0.64525 0.58826 0.0
O352 O 0.22045 0.62459 0.61743 0.0
O353 O 0.20645 0.58821 0.58703 0.0
C354 C 0.16992 0.71637 0.60491 0.0
C355 C 0.20829 0.65191 0.54204 0.0
C356 C 0.10934 0.6181 0.59944 0.0
O357 O 0.19648 0.69552 0.61221 0.0
O358 O 0.14833 0.70163 0.58895 0.0
O359 O 0.11792 0.62944 0.57773 0.0
O360 O 0.13552 0.61958 0.61538 0.0
C361 C 0.2258 0.59357 0.6065 0.0
O362 O 0.17913 0.63274 0.54623 0.0
O363 O 0.22142 0.66887 0.56087 0.0
In364 In 0.10625 0.56952 0.15837 0.0
O365 O 0.11761 0.5669 0.20042 0.0
O366 O 0.08248 0.52471 0.18451 0.0
C367 C 0.13266 0.63864 0.14758 0.0
C368 C 0.15839 0.52145 0.14068 0.0
C369 C 0.03534 0.57965 0.14223 0.0
O370 O 0.12415 0.62881 0.16964 0.0
O371 O 0.12893 0.61342 0.13113 0.0
O372 O 0.05762 0.55722 0.13146 0.0
O373 O 0.04854 0.5964 0.16113 0.0
C374 C 0.09859 0.53741 0.2038 0.0
O375 O 0.12561 0.52312 0.13164 0.0
O376 O 0.16517 0.54483 0.15787 0.0
In377 In 0.18245 0.3551 0.90466 0.0
O378 O 0.23345 0.3723 0.88128 0.0
O379 O 0.20759 0.41384 0.90439 0.0
C380 C 0.17396 0.28505 0.8863 0.0
C381 C 0.21063 0.34902 0.95128 0.0
C382 C 0.11371 0.38236 0.89359 0.0
O383 O 0.18926 0.31089 0.87373 0.0
O384 O 0.1638 0.29414 0.90812 0.0
O385 O 0.12157 0.36867 0.91478 0.0
O386 O 0.14058 0.38324 0.87817 0.0
C387 C 0.23365 0.4057 0.88928 0.0
O388 O 0.17951 0.36475 0.94687 0.0
O389 O 0.22686 0.3352 0.93234 0.0
In390 In 0.3888 0.43657 0.65642 0.0
O391 O 0.37287 0.43908 0.6981 0.0
O392 O 0.41581 0.47578 0.685 0.0
C393 C 0.36322 0.36761 0.64442 0.0
C394 C 0.33617 0.48501 0.63979 0.0
C395 C 0.45716 0.42582 0.63577 0.0
O396 O 0.38048 0.37404 0.66475 0.0
O397 O 0.35774 0.39618 0.63092 0.0
O398 O 0.43275 0.44645 0.62538 0.0
O399 O 0.44729 0.41153 0.65638 0.0
C400 C 0.39609 0.46479 0.70319 0.0
O401 O 0.371 0.4917 0.63785 0.0
O402 O 0.32825 0.45363 0.64938 0.0
In403 In 0.32029 0.6415 0.40211 0.0
O404 O 0.27352 0.62052 0.37625 0.0
O405 O 0.29653 0.58231 0.40292 0.0
C406 C 0.32969 0.71186 0.38482 0.0
C407 C 0.28738 0.64993 0.44719 0.0
C408 C 0.38974 0.61548 0.392 0.0
O409 O 0.3103 0.6879 0.37307 0.0
O410 O 0.34368 0.70065 0.40521 0.0
O411 O 0.38036 0.62674 0.41358 0.0
O412 O 0.36403 0.61638 0.37572 0.0
C413 C 0.27262 0.58807 0.38588 0.0
O414 O 0.31777 0.63208 0.44437 0.0
O415 O 0.27415 0.66445 0.42748 0.0
C416 C 0.3703 0.9978 0.26481 0.0
C417 C 0.40496 0.98411 0.27427 0.0
C418 C 0.43831 0.01364 0.23915 0.0
C419 C 0.40324 0.02336 0.22822 0.0
N420 N 0.33544 0.0184 0.22841 0.0
N421 N 0.47162 0.97464 0.26916 0.0
C422 C 0.36908 0.01388 0.24046 0.0
C423 C 0.43897 0.99094 0.26114 0.0
N424 N 0.33871 0.99683 0.27945 0.0
N425 N 0.47093 0.02713 0.22899 0.0
H426 H 0.47314 0.95775 0.28513 0.0
H427 H 0.49651 0.97523 0.25887 0.0
H428 H 0.47149 0.04436 0.21314 0.0
H429 H 0.49709 0.02421 0.23753 0.0
H430 H 0.31376 0.01029 0.27457 0.0
H431 H 0.33838 0.98588 0.29761 0.0
H432 H 0.31019 0.0078 0.23534 0.0
H433 H 0.333 0.0295 0.21038 0.0
C434 C 0.26329 0.11441 0.51382 0.0
C435 C 0.26914 0.14929 0.52613 0.0
C436 C 0.23358 0.18127 0.49293 0.0
C437 C 0.23175 0.14707 0.47932 0.0
N438 N 0.25296 0.08311 0.47422 0.0
N439 N 0.26533 0.21699 0.52532 0.0
C440 C 0.24881 0.11415 0.48905 0.0
C441 C 0.2557 0.18309 0.51516 0.0
N442 N 0.26994 0.08135 0.5261 0.0
N443 N 0.21327 0.21167 0.48509 0.0
H444 H 0.28219 0.21952 0.54123 0.0
H445 H 0.25963 0.24259 0.51666 0.0
H446 H 0.19633 0.21123 0.4691 0.0
H447 H 0.21043 0.23612 0.49567 0.0
H448 H 0.26243 0.05527 0.51876 0.0
H449 H 0.2791 0.07997 0.54466 0.0
H450 H 0.26866 0.05972 0.47957 0.0
H451 H 0.24435 0.08238 0.45555 0.0
C452 C 0.13246 1.00022 0.76375 0.0
C453 C 0.09821 0.01367 0.77399 0.0
C454 C 0.06359 0.98613 0.73869 0.0
C455 C 0.09826 0.97679 0.72706 0.0
N456 N 0.16606 0.98163 0.72635 0.0
N457 N 0.03144 0.02375 0.77004 0.0
C458 C 0.13284 0.9855 0.73902 0.0
C459 C 0.06374 0.00767 0.76121 0.0
N460 N 0.16446 1.00016 0.77797 0.0
N461 N 0.0306 0.97341 0.72863 0.0
H462 H 0.0305 0.03981 0.78641 0.0
H463 H 0.00624 0.02381 0.7601 0.0
H464 H 0.02948 0.95714 0.71235 0.0
H465 H 0.0047 0.97604 0.73757 0.0
H466 H 0.18921 0.98694 0.77239 0.0
H467 H 0.1653 0.00987 0.79644 0.0
H468 H 0.19158 0.99165 0.73321 0.0
H469 H 0.16785 0.97181 0.70797 0.0
C470 C 0.24444 0.81617 0.98377 0.0
C471 C 0.272 0.84388 0.9782 0.0
C472 C 0.26822 0.86685 0.02146 0.0
C473 C 0.23694 0.84313 0.02578 0.0
N474 N 0.19258 0.79734 0.01059 0.0
N475 N 0.30336 0.90146 0.99042 0.0
C476 C 0.22412 0.81848 0.00675 0.0
C477 C 0.28231 0.87073 0.99671 0.0
N478 N 0.23895 0.78668 0.96775 0.0
N479 N 0.28467 0.88562 0.04095 0.0
H480 H 0.31216 0.90723 0.97216 0.0
H481 H 0.30833 0.92361 0.00278 0.0
H482 H 0.2754 0.88325 0.05945 0.0
H483 H 0.30978 0.90045 0.03912 0.0
H484 H 0.22176 0.76386 0.97197 0.0
H485 H 0.25456 0.78296 0.95136 0.0
H486 H 0.17949 0.78204 0.9964 0.0
H487 H 0.17805 0.79709 0.02762 0.0
C488 C 0.63064 0.98015 0.75937 0.0
C489 C 0.5974 0.97996 0.77415 0.0
C490 C 0.56597 0.01943 0.74269 0.0
C491 C 0.59824 0.01681 0.7272 0.0
N492 N 0.65641 0.98539 0.71754 0.0
N493 N 0.53088 0.99271 0.7774 0.0
C494 C 0.62914 0.99438 0.73457 0.0
C495 C 0.56426 0.99777 0.76514 0.0
N496 N 0.66419 0.96875 0.7693 0.0
N497 N 0.53739 0.04321 0.73627 0.0
H498 H 0.52821 0.97583 0.79331 0.0
H499 H 0.5052 0.00208 0.77042 0.0
H500 H 0.53753 0.059 0.71977 0.0
H501 H 0.515 0.04942 0.74818 0.0
H502 H 0.68969 0.97193 0.7599 0.0
H503 H 0.66739 0.96003 0.78785 0.0
H504 H 0.67785 0.96625 0.72128 0.0
H505 H 0.65485 0.9936 0.69879 0.0
C506 C 0.72576 0.81737 0.49204 0.0
C507 C 0.73839 0.84152 0.47267 0.0
C508 C 0.78385 0.87009 0.50121 0.0
C509 C 0.77366 0.84382 0.52011 0.0
N510 N 0.74088 0.78682 0.53143 0.0
N511 N 0.78604 0.88344 0.45674 0.0
C512 C 0.74621 0.81582 0.51498 0.0
C513 C 0.76966 0.86539 0.47656 0.0
N514 N 0.69423 0.79609 0.48857 0.0
N515 N 0.80488 0.90106 0.50699 0.0
H516 H 0.7767 0.88034 0.43829 0.0
H517 H 0.81113 0.89837 0.45829 0.0
H518 H 0.81379 0.90743 0.52513 0.0
H519 H 0.80974 0.92279 0.49429 0.0
H520 H 0.6813 0.7811 0.50298 0.0
H521 H 0.67952 0.79547 0.47161 0.0
H522 H 0.72374 0.76383 0.52757 0.0
H523 H 0.7566 0.78367 0.54782 0.0
C524 C 0.93941 0.01373 0.26038 0.0
C525 C 0.90482 0.0221 0.27244 0.0
C526 C 0.87025 0.99595 0.23669 0.0
C527 C 0.90469 0.98404 0.22588 0.0
N528 N 0.9719 0.97664 0.22889 0.0
N529 N 0.83733 0.01441 0.27438 0.0
C530 C 0.9393 0.99162 0.2381 0.0
C531 C 0.87021 0.01142 0.26123 0.0
N532 N 0.97223 0.02806 0.26969 0.0
N533 N 0.83766 0.99409 0.22313 0.0
H534 H 0.83572 0.02523 0.29251 0.0
H535 H 0.81207 0.00281 0.26823 0.0
H536 H 0.83635 0.98358 0.20489 0.0
H537 H 0.81259 0.00637 0.22902 0.0
H538 H 0.99785 0.02623 0.26032 0.0
H539 H 0.97333 0.04483 0.28574 0.0
H540 H 0.99744 0.97781 0.23841 0.0
H541 H 0.97286 0.96012 0.21272 0.0
C542 C 0.76474 0.18725 0.98849 0.0
C543 C 0.7702 0.1531 0.97525 0.0
C544 C 0.74185 0.11809 0.00998 0.0
C545 C 0.73269 0.15247 0.02199 0.0
N546 N 0.73013 0.22017 0.02098 0.0
N547 N 0.75653 0.08692 0.9709 0.0
C548 C 0.74273 0.18724 0.01081 0.0
C549 C 0.75672 0.11874 0.98529 0.0
N550 N 0.78169 0.21942 0.98024 0.0
N551 N 0.73803 0.08479 0.02252 0.0
H552 H 0.76628 0.08618 0.95246 0.0
H553 H 0.74318 0.06219 0.97638 0.0
H554 H 0.72837 0.08292 0.04096 0.0
H555 H 0.74814 0.05936 0.01557 0.0
H556 H 0.78198 0.24434 0.99047 0.0
H557 H 0.79847 0.22028 0.96419 0.0
H558 H 0.73324 0.24614 0.01222 0.0
H559 H 0.71354 0.22127 0.03712 0.0
C560 C 0.90886 0.53888 0.74352 0.0
C561 C 0.90507 0.51752 0.72121 0.0
C562 C 0.90836 0.45957 0.74597 0.0
C563 C 0.90652 0.48103 0.76837 0.0
N564 N 0.89587 0.54152 0.78796 0.0
N565 N 0.89282 0.45718 0.70185 0.0
C566 C 0.90441 0.52085 0.76708 0.0
C567 C 0.90268 0.4777 0.72253 0.0
N568 N 0.91773 0.57618 0.74234 0.0
N569 N 0.91652 0.4221 0.74695 0.0
H570 H 0.88627 0.46922 0.68457 0.0
H571 H 0.8871 0.4285 0.7026 0.0
H572 H 0.92208 0.408 0.76371 0.0
H573 H 0.92172 0.40602 0.73096 0.0
H574 H 0.92427 0.59208 0.75818 0.0
H575 H 0.92266 0.59019 0.72545 0.0
H576 H 0.89045 0.57027 0.7873 0.0
H577 H 0.88987 0.52959 0.80536 0.0
C578 C 0.76382 0.61626 0.01123 0.0
C579 C 0.77313 0.65081 0.02304 0.0
C580 C 0.74185 0.68538 0.98916 0.0
C581 C 0.73551 0.65106 0.97634 0.0
N582 N 0.74781 0.58459 0.9725 0.0
N583 N 0.77798 0.71828 0.02079 0.0
C584 C 0.74852 0.61667 0.98661 0.0
C585 C 0.76407 0.68543 0.01132 0.0
N586 N 0.76798 0.58305 0.02383 0.0
N587 N 0.72554 0.71771 0.98066 0.0
H588 H 0.79548 0.71921 0.03647 0.0
H589 H 0.77542 0.74404 0.01168 0.0
H590 H 0.70856 0.71852 0.96473 0.0
H591 H 0.7259 0.74285 0.99066 0.0
H592 H 0.75735 0.55764 0.01722 0.0
H593 H 0.77892 0.58113 0.04192 0.0
H594 H 0.76083 0.55971 0.97802 0.0
H595 H 0.73747 0.58364 0.9542 0.0
C596 C 0.5912 0.53688 0.2496 0.0
C597 C 0.5965 0.51542 0.27173 0.0
C598 C 0.59551 0.45768 0.24671 0.0
C599 C 0.59569 0.47948 0.22442 0.0
N600 N 0.60202 0.54064 0.20492 0.0
N601 N 0.6116 0.45556 0.29076 0.0
C602 C 0.59566 0.51935 0.22587 0.0
C603 C 0.60066 0.47579 0.2702 0.0
N604 N 0.58083 0.57377 0.25116 0.0
N605 N 0.58931 0.41983 0.24558 0.0
H606 H 0.6175 0.46773 0.30811 0.0
H607 H 0.61872 0.4272 0.28989 0.0
H608 H 0.58418 0.40566 0.22878 0.0
H609 H 0.58527 0.40329 0.2615 0.0
H610 H 0.57306 0.58961 0.23554 0.0
H611 H 0.57605 0.58739 0.26821 0.0
H612 H 0.60618 0.5696 0.20563 0.0
H613 H 0.60723 0.52928 0.18724 0.0
C614 C 0.7396 0.31509 0.51288 0.0
C615 C 0.72908 0.34971 0.52406 0.0
C616 C 0.75546 0.38395 0.48827 0.0
C617 C 0.76918 0.34966 0.47826 0.0
N618 N 0.78011 0.28323 0.48307 0.0
N619 N 0.73489 0.41733 0.52531 0.0
C620 C 0.76284 0.31533 0.49112 0.0
C621 C 0.73919 0.38424 0.51258 0.0
N622 N 0.7263 0.28205 0.52249 0.0
N623 N 0.75634 0.41605 0.47417 0.0
H624 H 0.72416 0.4189 0.54349 0.0
H625 H 0.74561 0.4428 0.51886 0.0
H626 H 0.76716 0.41709 0.456 0.0
H627 H 0.74291 0.44078 0.47954 0.0
H628 H 0.72978 0.25621 0.51362 0.0
H629 H 0.70885 0.28077 0.53821 0.0
H630 H 0.77968 0.25813 0.4931 0.0
H631 H 0.79788 0.28259 0.4675 0.0
C632 C 0.13356 0.48839 0.26251 0.0
C633 C 0.09917 0.47813 0.27415 0.0
C634 C 0.06411 0.51005 0.24071 0.0
C635 C 0.09845 0.51702 0.22798 0.0
N636 N 0.16505 0.50521 0.22392 0.0
N637 N 0.03154 0.47391 0.27265 0.0
C638 C 0.13297 0.50407 0.23807 0.0
C639 C 0.06432 0.48755 0.26281 0.0
N640 N 0.16678 0.48487 0.27522 0.0
N641 N 0.03156 0.52595 0.23218 0.0
H642 H 0.03064 0.45705 0.28866 0.0
H643 H 0.0056 0.47653 0.26377 0.0
H644 H 0.03039 0.54269 0.21612 0.0
H645 H 0.00636 0.52522 0.24212 0.0
H646 H 0.19209 0.4958 0.26862 0.0
H647 H 0.1686 0.47454 0.29349 0.0
H648 H 0.19004 0.49232 0.22936 0.0
H649 H 0.16583 0.51561 0.20563 0.0
C650 C 0.24873 0.3829 0.01404 0.0
C651 C 0.26531 0.34946 0.02331 0.0
C652 C 0.24082 0.31465 0.98714 0.0
C653 C 0.22819 0.34895 0.97647 0.0
N654 N 0.2265 0.41689 0.97772 0.0
N655 N 0.28208 0.28449 0.01725 0.0
C656 C 0.23375 0.38343 0.98937 0.0
C657 C 0.26264 0.31551 0.00951 0.0
N658 N 0.24594 0.41386 0.02913 0.0
N659 N 0.23082 0.28121 0.97644 0.0
H660 H 0.29868 0.28428 0.03339 0.0
H661 H 0.28445 0.26011 0.00657 0.0
H662 H 0.2141 0.27941 0.96039 0.0
H663 H 0.236 0.25526 0.98476 0.0
H664 H 0.2304 0.43759 0.02429 0.0
H665 H 0.25592 0.41453 0.04752 0.0
H666 H 0.23434 0.44275 0.98523 0.0
H667 H 0.21603 0.41899 0.95952 0.0
C668 C 0.43209 0.50029 0.76616 0.0
C669 C 0.39958 0.51906 0.77532 0.0
C670 C 0.36726 0.50634 0.7357 0.0
C671 C 0.39766 0.48343 0.72797 0.0
N672 N 0.45751 0.45471 0.73682 0.0
N673 N 0.33333 0.53291 0.7707 0.0
C674 C 0.42972 0.47927 0.74348 0.0
C675 C 0.36631 0.5202 0.76063 0.0
N676 N 0.46563 0.50395 0.77845 0.0
N677 N 0.34014 0.5164 0.71886 0.0
H678 H 0.33079 0.54214 0.7892 0.0
H679 H 0.30761 0.53059 0.76148 0.0
H680 H 0.34144 0.50864 0.70002 0.0
H681 H 0.31914 0.53591 0.72284 0.0
H682 H 0.49098 0.49397 0.77131 0.0
H683 H 0.46889 0.52024 0.79458 0.0
H684 H 0.47962 0.44744 0.74868 0.0
H685 H 0.45683 0.43923 0.72018 0.0
C686 C 0.2402 0.61704 0.50718 0.0
C687 C 0.22777 0.65167 0.51747 0.0
C688 C 0.25767 0.68564 0.48271 0.0
C689 C 0.26692 0.6508 0.47135 0.0
N690 N 0.25925 0.58341 0.46989 0.0
N691 N 0.21895 0.7185 0.5131 0.0
C692 C 0.25604 0.61649 0.48277 0.0
C693 C 0.23495 0.68593 0.50472 0.0
N694 N 0.23851 0.58482 0.52111 0.0
N695 N 0.27166 0.71834 0.47302 0.0
H696 H 0.20168 0.7196 0.5289 0.0
H697 H 0.21994 0.74367 0.50318 0.0
H698 H 0.28864 0.71921 0.45705 0.0
H699 H 0.26919 0.74422 0.48198 0.0
H700 H 0.25121 0.55978 0.51557 0.0
H701 H 0.22776 0.58382 0.53929 0.0
H702 H 0.2479 0.55819 0.47629 0.0
H703 H 0.26977 0.5817 0.45165 0.0
C704 C 0.30033 0.9928 0.10924 0.0
C705 C 0.31647 0.99083 0.13352 0.0
C706 C 0.27401 0.93923 0.14457 0.0
C707 C 0.26074 0.93836 0.11944 0.0
N708 N 0.26542 0.96102 0.07664 0.0
N709 N 0.3235 0.95849 0.17304 0.0
C710 C 0.27491 0.96432 0.10142 0.0
C711 C 0.30465 0.96301 0.15087 0.0
N712 N 0.30811 0.02271 0.09398 0.0
N713 N 0.25619 0.91871 0.16273 0.0
H714 H 0.34647 0.97501 0.17817 0.0
H715 H 0.31868 0.93616 0.18527 0.0
H716 H 0.2327 0.90205 0.15912 0.0
H717 H 0.26219 0.92122 0.1818 0.0
H718 H 0.29377 0.02802 0.0773 0.0
H719 H 0.32661 0.04417 0.09898 0.0
H720 H 0.27865 0.97607 0.06238 0.0
H721 H 0.24662 0.94109 0.06983 0.0
C722 C 0.26593 0.02485 0.39645 0.0
C723 C 0.26168 0.05857 0.38228 0.0
C724 C 0.31517 0.04046 0.3558 0.0
C725 C 0.31755 0.00585 0.36884 0.0
N726 N 0.29165 0.96181 0.39847 0.0
N727 N 0.27637 0.09384 0.3448 0.0
C728 C 0.29176 0.99701 0.38818 0.0
C729 C 0.28479 0.0652 0.36096 0.0
N730 N 0.24687 0.02005 0.41853 0.0
N731 N 0.34203 0.04977 0.3385 0.0
H732 H 0.25316 0.11137 0.34713 0.0
H733 H 0.28987 0.09774 0.32764 0.0
H734 H 0.36402 0.03185 0.33357 0.0
H735 H 0.34417 0.07634 0.33043 0.0
H736 H 0.25254 0.99837 0.43109 0.0
H737 H 0.2275 0.03922 0.42554 0.0
H738 H 0.27056 0.95215 0.41041 0.0
H739 H 0.31116 0.94116 0.39362 0.0
C740 C 0.22532 0.99897 0.62874 0.0
C741 C 0.18834 0.01092 0.6348 0.0
C742 C 0.20631 0.07614 0.62655 0.0
C743 C 0.24417 0.0646 0.6231 0.0
N744 N 0.29112 0.0159 0.62626 0.0
N745 N 0.14623 0.06175 0.64545 0.0
C746 C 0.25412 0.02622 0.62576 0.0
C747 C 0.17952 0.04977 0.63544 0.0
N748 N 0.23267 0.96176 0.62471 0.0
N749 N 0.19528 0.11165 0.62013 0.0
H750 H 0.12627 0.04352 0.65301 0.0
H751 H 0.1402 0.08998 0.64868 0.0
H752 H 0.21347 0.13164 0.6126 0.0
H753 H 0.16722 0.12002 0.61983 0.0
H754 H 0.25824 0.95201 0.61775 0.0
H755 H 0.21212 0.94095 0.62583 0.0
H756 H 0.30002 0.9888 0.63063 0.0
H757 H 0.31308 0.03522 0.62492 0.0
C758 C 0.22356 0.00153 0.87545 0.0
C759 C 0.18621 0.9901 0.87019 0.0
C760 C 0.20275 0.92542 0.88131 0.0
C761 C 0.24117 0.936 0.88312 0.0
N762 N 0.2889 0.98333 0.87664 0.0
N763 N 0.14237 0.93937 0.86276 0.0
C764 C 0.25183 0.97388 0.87875 0.0
C765 C 0.17629 0.95154 0.87164 0.0
N766 N 0.23185 0.03877 0.87824 0.0
N767 N 0.19101 0.8912 0.8899 0.0
H768 H 0.12257 0.95717 0.85461 0.0
H769 H 0.13557 0.91101 0.86108 0.0
H770 H 0.20895 0.87179 0.89831 0.0
H771 H 0.16273 0.88382 0.89122 0.0
H772 H 0.25791 0.04838 0.88445 0.0
H773 H 0.21153 0.05978 0.8771 0.0
H774 H 0.29795 0.00985 0.87098 0.0
H775 H 0.3105 0.9637 0.87784 0.0
C776 C 0.70357 0.0775 0.87618 0.0
C777 C 0.74193 0.06693 0.8782 0.0
C778 C 0.72471 0.00121 0.87096 0.0
C779 C 0.68707 0.0124 0.86627 0.0
N780 N 0.64286 0.06261 0.85842 0.0
N781 N 0.79005 0.02004 0.872 0.0
C782 C 0.67706 0.05097 0.86716 0.0
C783 C 0.75284 0.02913 0.87399 0.0
N784 N 0.69194 0.11217 0.88402 0.0
N785 N 0.73341 0.96403 0.87364 0.0
H786 H 0.81147 0.03996 0.87321 0.0
H787 H 0.79943 0.99357 0.86651 0.0
H788 H 0.71343 0.94267 0.87248 0.0
H789 H 0.75969 0.95465 0.87958 0.0
H790 H 0.66369 0.11963 0.88537 0.0
H791 H 0.71003 0.13216 0.89166 0.0
H792 H 0.63582 0.09085 0.85631 0.0
H793 H 0.62303 0.04436 0.85075 0.0
C794 C 0.72336 0.98673 0.64733 0.0
C795 C 0.69384 0.99776 0.63079 0.0
C796 C 0.71605 0.95251 0.59939 0.0
C797 C 0.74636 0.94278 0.61542 0.0
N798 N 0.78363 0.95566 0.65217 0.0
N799 N 0.66845 0.99843 0.58878 0.0
C800 C 0.75138 0.96133 0.6387 0.0
C801 C 0.69199 0.9827 0.60615 0.0
N802 N 0.72401 0.99915 0.67162 0.0
N803 N 0.70935 0.93203 0.57813 0.0
H804 H 0.65157 0.02167 0.59266 0.0
H805 H 0.66864 0.99115 0.56984 0.0
H806 H 0.72626 0.90965 0.57247 0.0
H807 H 0.68521 0.93508 0.56726 0.0
H808 H 0.74156 0.98786 0.68533 0.0
H809 H 0.70546 0.01897 0.67879 0.0
H810 H 0.79111 0.97169 0.66774 0.0
H811 H 0.80467 0.93708 0.64653 0.0
C812 C 0.77763 0.93717 0.35535 0.0
C813 C 0.76318 0.93627 0.3802 0.0
C814 C 0.80178 0.99112 0.39111 0.0
C815 C 0.81898 0.98924 0.36716 0.0
N816 N 0.82849 0.95653 0.32802 0.0
N817 N 0.7657 0.95907 0.42305 0.0
C818 C 0.80838 0.96114 0.34969 0.0
C819 C 0.77627 0.96241 0.39846 0.0
N820 N 0.76086 0.9165 0.33684 0.0
N821 N 0.80875 0.02105 0.40652 0.0
H822 H 0.74686 0.93892 0.42951 0.0
H823 H 0.77808 0.97431 0.43755 0.0
H824 H 0.82746 0.04252 0.40189 0.0
H825 H 0.79365 0.02631 0.42291 0.0
H826 H 0.7678 0.91903 0.31791 0.0
H827 H 0.73726 0.89976 0.33994 0.0
H828 H 0.82447 0.93408 0.31577 0.0
H829 H 0.85172 0.97307 0.32346 0.0
C830 C 0.75151 0.02722 0.12211 0.0
C831 C 0.76128 0.06537 0.11806 0.0
C832 C 0.82638 0.05143 0.12993 0.0
C833 C 0.81745 0.01262 0.13102 0.0
N834 N 0.77306 0.96283 0.12258 0.0
N835 N 0.81009 0.11195 0.11249 0.0
C836 C 0.78042 1.00026 0.12554 0.0
C837 C 0.7993 0.07706 0.12042 0.0
N838 N 0.7146 0.01686 0.12369 0.0
N839 N 0.85999 0.0642 0.13896 0.0
H840 H 0.79163 0.1312 0.10442 0.0
H841 H 0.83814 0.12026 0.11146 0.0
H842 H 0.88024 0.04663 0.14685 0.0
H843 H 0.86614 0.09266 0.14098 0.0
H844 H 0.70601 0.99007 0.1291 0.0
H845 H 0.69255 0.03601 0.12227 0.0
H846 H 0.74735 0.95266 0.11614 0.0
H847 H 0.79373 0.94217 0.1239 0.0
C848 C 0.79223 0.42871 0.61467 0.0
C849 C 0.7536 0.43863 0.61572 0.0
C850 C 0.77105 0.50373 0.62498 0.0
C851 C 0.80923 0.49266 0.62723 0.0
N852 N 0.85494 0.44247 0.62943 0.0
N853 N 0.70595 0.48417 0.62655 0.0
C854 C 0.81957 0.45456 0.62349 0.0
C855 C 0.74287 0.47579 0.62215 0.0
N856 N 0.80311 0.39538 0.6042 0.0
N857 N 0.76177 0.54098 0.62456 0.0
H858 H 0.68452 0.46424 0.62551 0.0
H859 H 0.69709 0.5099 0.63374 0.0
H860 H 0.78176 0.56235 0.62559 0.0
H861 H 0.73481 0.55064 0.62049 0.0
H862 H 0.83114 0.38867 0.6007 0.0
H863 H 0.78425 0.37617 0.5965 0.0
H864 H 0.86247 0.41418 0.62957 0.0
H865 H 0.8757 0.46003 0.63669 0.0
C866 C 0.78121 0.50206 0.86782 0.0
C867 C 0.81911 0.51315 0.864 0.0
C868 C 0.80324 0.57725 0.87693 0.0
C869 C 0.76465 0.56709 0.87781 0.0
N870 N 0.71611 0.52159 0.86896 0.0
N871 N 0.86469 0.56312 0.85993 0.0
C872 C 0.75338 0.52997 0.87179 0.0
C873 C 0.82978 0.55127 0.86716 0.0
N874 N 0.77196 0.46482 0.86877 0.0
N875 N 0.81494 0.61089 0.88651 0.0
H876 H 0.88484 0.54527 0.85222 0.0
H877 H 0.87234 0.59136 0.85931 0.0
H878 H 0.79674 0.63035 0.89463 0.0
H879 H 0.8432 0.61785 0.88871 0.0
H880 H 0.74542 0.45524 0.87401 0.0
H881 H 0.79172 0.44335 0.86699 0.0
H882 H 0.7066 0.49587 0.86212 0.0
H883 H 0.69482 0.54153 0.87089 0.0
C884 C 0.7355 0.55416 0.1437 0.0
C885 C 0.73845 0.56722 0.11864 0.0
C886 C 0.68927 0.52325 0.10546 0.0
C887 C 0.68421 0.5123 0.13084 0.0
N888 N 0.69657 0.52356 0.17485 0.0
N889 N 0.71209 0.57105 0.07696 0.0
C890 C 0.70565 0.5295 0.15021 0.0
C891 C 0.71359 0.55373 0.09986 0.0
N892 N 0.76196 0.56413 0.16107 0.0
N893 N 0.67214 0.50363 0.08659 0.0
H894 H 0.72831 0.59454 0.07254 0.0
H895 H 0.69201 0.56471 0.06337 0.0
H896 H 0.65471 0.48059 0.08984 0.0
H897 H 0.67807 0.50794 0.06765 0.0
H898 H 0.76356 0.55209 0.17887 0.0
H899 H 0.78437 0.58202 0.15701 0.0
H900 H 0.70866 0.53849 0.1896 0.0
H901 H 0.67433 0.50648 0.18052 0.0
C902 C 0.75501 0.47346 0.37558 0.0
C903 C 0.74364 0.43633 0.38155 0.0
C904 C 0.67853 0.45236 0.37107 0.0
C905 C 0.68927 0.49046 0.36782 0.0
N906 N 0.73653 0.53868 0.3722 0.0
N907 N 0.6932 0.39286 0.3906 0.0
C908 C 0.72722 0.50145 0.37153 0.0
C909 C 0.705 0.42638 0.38085 0.0
N910 N 0.7923 0.48173 0.37281 0.0
N911 N 0.64366 0.44046 0.36379 0.0
H912 H 0.71136 0.37343 0.39879 0.0
H913 H 0.66492 0.38607 0.39291 0.0
H914 H 0.62358 0.4582 0.3559 0.0
H915 H 0.63602 0.41222 0.36325 0.0
H916 H 0.80195 0.50742 0.36601 0.0
H917 H 0.8135 0.46173 0.37483 0.0
H918 H 0.7631 0.54833 0.37731 0.0
H919 H 0.71675 0.56009 0.37025 0.0
C920 C 0.2285 0.49342 0.37075 0.0
C921 C 0.19022 0.50359 0.36752 0.0
C922 C 0.20554 0.56857 0.37871 0.0
C923 C 0.24436 0.55932 0.37883 0.0
N924 N 0.29324 0.51424 0.36982 0.0
N925 N 0.1441 0.55297 0.36249 0.0
C926 C 0.25602 0.52207 0.37341 0.0
C927 C 0.17916 0.54176 0.36985 0.0
N928 N 0.23847 0.45643 0.37228 0.0
N929 N 0.19347 0.6022 0.38811 0.0
H930 H 0.12427 0.53474 0.3548 0.0
H931 H 0.13618 0.58111 0.36147 0.0
H932 H 0.21152 0.62217 0.39581 0.0
H933 H 0.16514 0.60852 0.39075 0.0
H934 H 0.26544 0.44756 0.37707 0.0
H935 H 0.21896 0.43462 0.37143 0.0
H936 H 0.30289 0.48832 0.36342 0.0
H937 H 0.31417 0.5347 0.37066 0.0
C938 C 0.20258 0.42765 0.12307 0.0
C939 C 0.24073 0.4383 0.11977 0.0
C940 C 0.2235 0.50415 0.12659 0.0
C941 C 0.18639 0.49292 0.13283 0.0
N942 N 0.14327 0.44257 0.14282 0.0
N943 N 0.28883 0.48578 0.12377 0.0
C944 C 0.1766 0.45426 0.13271 0.0
C945 C 0.25161 0.47633 0.12305 0.0
N946 N 0.19056 0.39279 0.1159 0.0
N947 N 0.23163 0.54128 0.12302 0.0
H948 H 0.31034 0.46601 0.12228 0.0
H949 H 0.29832 0.51254 0.12852 0.0
H950 H 0.21143 0.56238 0.12442 0.0
H951 H 0.25734 0.55068 0.11606 0.0
H952 H 0.16227 0.38521 0.11556 0.0
H953 H 0.20814 0.37279 0.10777 0.0
H954 H 0.13667 0.41432 0.14547 0.0
H955 H 0.12392 0.46081 0.15102 0.0
C956 C 0.31135 0.47826 0.89581 0.0
C957 C 0.31844 0.48702 0.87028 0.0
C958 C 0.26852 0.44373 0.85717 0.0
C959 C 0.26342 0.43291 0.88254 0.0
N960 N 0.28577 0.43326 0.92533 0.0
N961 N 0.31007 0.47173 0.82642 0.0
C962 C 0.28648 0.44831 0.90171 0.0
C963 C 0.29879 0.46797 0.85085 0.0
N964 N 0.32716 0.49942 0.91445 0.0
N965 N 0.24369 0.432 0.83921 0.0
H966 H 0.33302 0.48807 0.82107 0.0
H967 H 0.2992 0.45565 0.81179 0.0
H968 H 0.22102 0.41436 0.84311 0.0
H969 H 0.24362 0.44239 0.82092 0.0
H970 H 0.31974 0.49687 0.93329 0.0
H971 H 0.34524 0.52186 0.9109 0.0
H972 H 0.30454 0.4409 0.93944 0.0
H973 H 0.26899 0.41033 0.9301 0.0
C974 C 0.31032 0.52865 0.60701 0.0
C975 C 0.30675 0.51168 0.63105 0.0
C976 C 0.24741 0.54577 0.63773 0.0
C977 C 0.25375 0.56587 0.61521 0.0
N978 N 0.29378 0.5809 0.58006 0.0
N979 N 0.27328 0.50703 0.67066 0.0
C980 C 0.28593 0.55857 0.6003 0.0
C981 C 0.27557 0.52086 0.64676 0.0
N982 N 0.33556 0.51479 0.59 0.0
N983 N 0.21383 0.54941 0.65002 0.0
H984 H 0.29187 0.48747 0.67806 0.0
H985 H 0.25422 0.51696 0.68394 0.0
H986 H 0.19266 0.56765 0.6441 0.0
H987 H 0.20561 0.53211 0.6648 0.0
H988 H 0.33672 0.52361 0.57136 0.0
H989 H 0.35253 0.49152 0.59357 0.0
H990 H 0.31896 0.57948 0.57012 0.0
H991 H 0.27665 0.60321 0.57456 0.0
C992 C 0.35253 0.18463 0.10988 0.0
C993 C 0.35323 0.17565 0.13591 0.0
C994 C 0.33622 0.24076 0.14587 0.0
C995 C 0.33199 0.24849 0.11984 0.0
N996 N 0.3252 0.22404 0.07781 0.0
N997 N 0.33565 0.193 0.17819 0.0
C998 C 0.33673 0.21924 0.10207 0.0
C999 C 0.34203 0.20306 0.1538 0.0
N1000 N 0.36887 0.16143 0.09258 0.0
N1001 N 0.33675 0.26935 0.16298 0.0
H1002 H 0.33781 0.16538 0.18455 0.0
H1003 H 0.32409 0.21128 0.19139 0.0
H1004 H 0.33403 0.29754 0.15807 0.0
H1005 H 0.34369 0.26531 0.1818 0.0
H1006 H 0.37221 0.16892 0.07379 0.0
H1007 H 0.38295 0.13678 0.09725 0.0
H1008 H 0.32499 0.2023 0.0647 0.0
H1009 H 0.3117 0.24835 0.07166 0.0
C1010 C 0.06792 0.06719 0.38595 0.0
C1011 C 0.076 0.10492 0.39259 0.0
C1012 C 0.01038 0.12244 0.38496 0.0
C1013 C 0.00346 0.08584 0.37546 0.0
N1014 N 0.02575 0.02394 0.36478 0.0
N1015 N 0.0565 0.16959 0.39628 0.0
C1016 C 0.03214 0.05818 0.37561 0.0
C1017 C 0.04758 0.13283 0.39174 0.0
N1018 N 0.0943 0.03993 0.39002 0.0
N1019 N 0.98114 0.14695 0.38809 0.0
H1020 H 0.08322 0.17831 0.40182 0.0
H1021 H 0.03824 0.19184 0.39282 0.0
H1022 H 0.95349 0.1403 0.38336 0.0
H1023 H 0.98359 0.17255 0.39739 0.0
H1024 H 0.08901 0.01134 0.38798 0.0
H1025 H 0.12076 0.04569 0.39754 0.0
H1026 H 0.0467 0.00408 0.36167 0.0
H1027 H 0.99981 0.01624 0.35724 0.0
C1028 C 0.1405 0.81848 0.60528 0.0
C1029 C 0.14445 0.82813 0.63105 0.0
C1030 C 0.16438 0.76363 0.6402 0.0
C1031 C 0.16407 0.75531 0.6141 0.0
N1032 N 0.16239 0.77875 0.57156 0.0
N1033 N 0.17 0.81222 0.67174 0.0
C1034 C 0.15542 0.78397 0.59656 0.0
C1035 C 0.15937 0.80141 0.64816 0.0
N1036 N 0.12063 0.84096 0.58927 0.0
N1037 N 0.16737 0.73548 0.65754 0.0
H1038 H 0.16849 0.83995 0.67794 0.0
H1039 H 0.18424 0.79448 0.68406 0.0
H1040 H 0.16947 0.70719 0.65276 0.0
H1041 H 0.16383 0.73994 0.67674 0.0
H1042 H 0.11395 0.83297 0.57097 0.0
H1043 H 0.10708 0.86543 0.59491 0.0
H1044 H 0.15973 0.80016 0.55833 0.0
H1045 H 0.17501 0.75451 0.56452 0.0
C1046 C 0.46665 0.93921 0.86485 0.0
C1047 C 0.49833 0.9235 0.87712 0.0
C1048 C 0.45715 0.88492 0.9035 0.0
C1049 C 0.42532 0.90143 0.89177 0.0
N1050 N 0.39936 0.94991 0.86537 0.0
N1051 N 0.5241 0.88801 0.91163 0.0
C1052 C 0.42996 0.93026 0.87361 0.0
C1053 C 0.49365 0.89875 0.89774 0.0
N1054 N 0.47167 0.96229 0.8446 0.0
N1055 N 0.45288 0.85425 0.91872 0.0
H1056 H 0.55137 0.89678 0.90762 0.0
H1057 H 0.52198 0.8732 0.92844 0.0
H1058 H 0.42687 0.84236 0.92293 0.0
H1059 H 0.47532 0.83833 0.92536 0.0
H1060 H 0.44991 0.97075 0.83281 0.0
H1061 H 0.49808 0.97166 0.83882 0.0
H1062 H 0.4011 0.9737 0.85406 0.0
H1063 H 0.37222 0.94445 0.87172 0.0
C1064 C 0.31487 0.78042 0.38109 0.0
C1065 C 0.3381 0.74953 0.37472 0.0
C1066 C 0.38356 0.79183 0.35487 0.0
C1067 C 0.3593 0.82262 0.35992 0.0
N1068 N 0.29888 0.8457 0.37353 0.0
N1069 N 0.39076 0.72424 0.35182 0.0
C1070 C 0.32406 0.81678 0.37184 0.0
C1071 C 0.37122 0.75477 0.36035 0.0
N1072 N 0.28456 0.7751 0.39648 0.0
N1073 N 0.41927 0.79806 0.34628 0.0
H1074 H 0.38285 0.69665 0.35582 0.0
H1075 H 0.41288 0.72607 0.33907 0.0
H1076 H 0.42983 0.82473 0.34238 0.0
H1077 H 0.43966 0.77716 0.34513 0.0
H1078 H 0.26907 0.79703 0.40425 0.0
H1079 H 0.27631 0.74864 0.40287 0.0
H1080 H 0.27135 0.8424 0.37976 0.0
H1081 H 0.30439 0.87253 0.36656 0.0
C1082 C 0.43696 0.06853 0.61881 0.0
C1083 C 0.42799 0.10668 0.61402 0.0
C1084 C 0.49355 0.12469 0.62135 0.0
C1085 C 0.50163 0.08732 0.62879 0.0
N1086 N 0.48094 0.02405 0.63706 0.0
N1087 N 0.44597 0.17205 0.61403 0.0
C1088 C 0.47339 0.05919 0.62801 0.0
C1089 C 0.45584 0.13504 0.61605 0.0
N1090 N 0.41088 0.04123 0.61405 0.0
N1091 N 0.52216 0.15005 0.61865 0.0
H1092 H 0.41868 0.18089 0.61011 0.0
H1093 H 0.46407 0.19413 0.61829 0.0
H1094 H 0.55025 0.14331 0.622 0.0
H1095 H 0.51866 0.17663 0.61086 0.0
H1096 H 0.41679 0.01261 0.61465 0.0
H1097 H 0.38387 0.04722 0.60755 0.0
H1098 H 0.4605 0.0035 0.63967 0.0
H1099 H 0.50739 0.01613 0.64364 0.0
C1100 C 0.12243 0.20523 0.85424 0.0
C1101 C 0.14618 0.17437 0.86013 0.0
C1102 C 0.18872 0.21642 0.88306 0.0
C1103 C 0.16615 0.24741 0.87588 0.0
N1104 N 0.11555 0.27281 0.85099 0.0
N1105 N 0.20568 0.15146 0.8754 0.0
C1106 C 0.1344 0.24228 0.86017 0.0
C1107 C 0.18042 0.1802 0.87324 0.0
N1108 N 0.0874 0.19909 0.84446 0.0
N1109 N 0.21775 0.22153 0.89953 0.0
H1110 H 0.20101 0.12498 0.86766 0.0
H1111 H 0.23267 0.15476 0.88264 0.0
H1112 H 0.2257 0.24792 0.9062 0.0
H1113 H 0.23243 0.19947 0.9078 0.0
H1114 H 0.0672 0.22007 0.84262 0.0
H1115 H 0.07703 0.17247 0.84025 0.0
H1116 H 0.09474 0.27098 0.83729 0.0
H1117 H 0.12275 0.30039 0.85551 0.0
C1118 C 0.07198 0.93044 0.12402 0.0
C1119 C 0.07692 0.89733 0.10953 0.0
C1120 C 0.00851 0.88942 0.10709 0.0
C1121 C 0.00398 0.91943 0.12433 0.0
N1122 N 0.03091 0.96714 0.15089 0.0
N1123 N 0.05025 0.84198 0.09024 0.0
C1124 C 0.0356 0.93963 0.13325 0.0
C1125 C 0.04528 0.87612 0.10154 0.0
N1126 N 0.10186 0.95379 0.1282 0.0
N1127 N 0.97765 0.87331 0.09626 0.0
H1128 H 0.07659 0.83047 0.08648 0.0
H1129 H 0.02834 0.82335 0.08662 0.0
H1130 H 0.95026 0.88151 0.10051 0.0
H1131 H 0.97922 0.8541 0.08154 0.0
H1132 H 0.0994 0.98012 0.13655 0.0
H1133 H 0.1287 0.94847 0.12117 0.0
H1134 H 0.05315 0.97969 0.16045 0.0
H1135 H 0.00452 0.97597 0.15709 0.0
C1136 C 0.65997 0.78353 0.90053 0.0
C1137 C 0.66829 0.75557 0.8824 0.0
C1138 C 0.66103 0.8026 0.84912 0.0
C1139 C 0.64678 0.82862 0.86694 0.0
N1140 N 0.62461 0.8397 0.90936 0.0
N1141 N 0.66884 0.73704 0.83865 0.0
C1142 C 0.64411 0.81806 0.89263 0.0
C1143 C 0.66683 0.76464 0.85643 0.0
N1144 N 0.66823 0.7777 0.92528 0.0
N1145 N 0.67027 0.8142 0.82545 0.0
H1146 H 0.6711 0.7086 0.84299 0.0
H1147 H 0.66413 0.74207 0.81962 0.0
H1148 H 0.66816 0.8421 0.81966 0.0
H1149 H 0.684 0.79696 0.81256 0.0
H1150 H 0.66583 0.79866 0.93885 0.0
H1151 H 0.68161 0.75351 0.93168 0.0
H1152 H 0.61889 0.83103 0.92766 0.0
H1153 H 0.61039 0.86411 0.90433 0.0
C1154 C 0.96636 0.93961 0.63661 0.0
C1155 C 0.99812 0.92491 0.62387 0.0
C1156 C 0.9571 0.88809 0.59635 0.0
C1157 C 0.92516 0.90394 0.60839 0.0
N1158 N 0.89916 0.95117 0.63581 0.0
N1159 N 0.02389 0.89242 0.58804 0.0
C1160 C 0.92972 0.93162 0.62733 0.0
C1161 C 0.99349 0.90177 0.60243 0.0
N1162 N 0.97122 0.96081 0.65777 0.0
N1163 N 0.95307 0.8581 0.58052 0.0
H1164 H 0.05105 0.90143 0.59212 0.0
H1165 H 0.02169 0.87881 0.57079 0.0
H1166 H 0.9272 0.84598 0.57622 0.0
H1167 H 0.97569 0.84275 0.57353 0.0
H1168 H 0.94928 0.96842 0.66968 0.0
H1169 H 0.99763 0.96922 0.66418 0.0
H1170 H 0.90103 0.97407 0.6479 0.0
H1171 H 0.87211 0.94684 0.62884 0.0
C1172 C 0.841 0.21739 0.3999 0.0
C1173 C 0.83404 0.24617 0.3821 0.0
C1174 C 0.84126 0.20003 0.34827 0.0
C1175 C 0.85476 0.17327 0.36587 0.0
N1176 N 0.87546 0.16061 0.40846 0.0
N1177 N 0.83467 0.266 0.33859 0.0
C1178 C 0.85671 0.18293 0.39175 0.0
C1179 C 0.83588 0.23786 0.35602 0.0
N1180 N 0.83171 0.22247 0.42457 0.0
N1181 N 0.83239 0.18926 0.32436 0.0
H1182 H 0.83254 0.29432 0.34326 0.0
H1183 H 0.83977 0.26145 0.31956 0.0
H1184 H 0.83414 0.16149 0.31826 0.0
H1185 H 0.81923 0.20709 0.31157 0.0
H1186 H 0.83325 0.201 0.43784 0.0
H1187 H 0.81825 0.24659 0.43107 0.0
H1188 H 0.88053 0.16869 0.42696 0.0
H1189 H 0.88982 0.13629 0.40336 0.0
C1190 C 0.54442 0.12487 0.1029 0.0
C1191 C 0.57559 0.10263 0.11048 0.0
C1192 C 0.53359 0.06228 0.13519 0.0
C1193 C 0.50236 0.08312 0.12629 0.0
N1194 N 0.47684 0.12975 0.09824 0.0
N1195 N 0.59925 0.046 0.12963 0.0
C1196 C 0.50742 0.11279 0.10888 0.0
C1197 C 0.57002 0.07012 0.12547 0.0
N1198 N 0.55014 0.15888 0.09156 0.0
N1199 N 0.52849 0.0354 0.15321 0.0
H1200 H 0.62603 0.05039 0.12223 0.0
H1201 H 0.59625 0.01999 0.13834 0.0
H1202 H 0.502 0.02762 0.15985 0.0
H1203 H 0.55056 0.02243 0.16268 0.0
H1204 H 0.52872 0.17817 0.08823 0.0
H1205 H 0.57671 0.1697 0.08764 0.0
H1206 H 0.47874 0.14864 0.08336 0.0
H1207 H 0.44928 0.12262 0.10287 0.0
C1208 C 0.63037 0.24612 0.64131 0.0
C1209 C 0.66051 0.25151 0.62424 0.0
C1210 C 0.67582 0.18447 0.62647 0.0
C1211 C 0.64293 0.17832 0.64101 0.0
N1212 N 0.58572 0.20243 0.65939 0.0
N1213 N 0.71034 0.22607 0.59871 0.0
C1214 C 0.61952 0.20895 0.64794 0.0
C1215 C 0.68281 0.22073 0.61628 0.0
N1216 N 0.61192 0.27651 0.65104 0.0
N1217 N 0.70109 0.15593 0.62321 0.0
H1218 H 0.7176 0.25251 0.59179 0.0
H1219 H 0.72445 0.20414 0.58985 0.0
H1220 H 0.69738 0.12927 0.63095 0.0
H1221 H 0.72735 0.15951 0.61492 0.0
H1222 H 0.59248 0.27461 0.6656 0.0
H1223 H 0.61815 0.3041 0.64596 0.0
H1224 H 0.56546 0.22312 0.66215 0.0
H1225 H 0.57627 0.17569 0.66424 0.0
C1226 C 0.51212 0.87414 0.3818 0.0
C1227 C 0.50587 0.91014 0.37121 0.0
C1228 C 0.57159 0.92721 0.37906 0.0
C1229 C 0.57875 0.88986 0.38705 0.0
N1230 N 0.5573 0.82619 0.39325 0.0
N1231 N 0.52952 0.9701 0.35744 0.0
C1232 C 0.54936 0.86292 0.38787 0.0
C1233 C 0.53552 0.9366 0.36934 0.0
N1234 N 0.48225 0.85103 0.38662 0.0
N1235 N 0.599 0.9539 0.38143 0.0
H1236 H 0.50328 0.97815 0.35053 0.0
H1237 H 0.55091 0.98883 0.35286 0.0
H1238 H 0.62565 0.94799 0.38859 0.0
H1239 H 0.59449 0.98242 0.37835 0.0
H1240 H 0.48443 0.82604 0.39667 0.0
H1241 H 0.45455 0.85841 0.38251 0.0
H1242 H 0.538 0.80445 0.39109 0.0
H1243 H 0.5841 0.81677 0.39803 0.0
C1244 C 0.83862 0.76376 0.14635 0.0
C1245 C 0.83346 0.75563 0.12045 0.0
C1246 C 0.85386 0.81924 0.10975 0.0
C1247 C 0.8553 0.82871 0.13569 0.0
N1248 N 0.83873 0.81207 0.1783 0.0
N1249 N 0.82514 0.77955 0.07842 0.0
C1250 C 0.84457 0.80161 0.15392 0.0
C1251 C 0.83762 0.78462 0.10244 0.0
N1252 N 0.83988 0.73546 0.16365 0.0
N1253 N 0.86989 0.84196 0.09204 0.0
H1254 H 0.81118 0.75526 0.07271 0.0
H1255 H 0.82456 0.8011 0.06517 0.0
H1256 H 0.88444 0.86648 0.09632 0.0
H1257 H 0.87257 0.83408 0.07327 0.0
H1258 H 0.84745 0.73987 0.18233 0.0
H1259 H 0.8372 0.70718 0.15899 0.0
H1260 H 0.82757 0.79395 0.19175 0.0
H1261 H 0.84086 0.83981 0.18441 0.0
C1262 C 0.96881 0.06091 0.86796 0.0
C1263 C 0.99849 0.08742 0.86938 0.0
C1264 C 0.95493 0.13535 0.88491 0.0
C1265 C 0.92567 0.10825 0.88503 0.0
N1266 N 0.90559 0.04391 0.88083 0.0
N1267 N 0.02199 0.14712 0.8839 0.0
C1268 C 0.93283 0.07059 0.87772 0.0
C1269 C 0.99218 0.12386 0.87924 0.0
N1270 N 0.97465 0.02709 0.85644 0.0
N1271 N 0.9469 0.17241 0.88903 0.0
H1272 H 0.04978 0.13951 0.8803 0.0
H1273 H 0.01959 0.17249 0.8935 0.0
H1274 H 0.91994 0.18217 0.89303 0.0
H1275 H 0.96626 0.19396 0.8863 0.0
H1276 H 0.95317 0.00825 0.85227 0.0
H1277 H 1.00073 0.01894 0.84933 0.0
H1278 H 0.91021 0.01529 0.87827 0.0
H1279 H 0.87904 0.05003 0.88808 0.0
C1280 C 0.86995 0.7439 0.63144 0.0
C1281 C 0.83495 0.75076 0.61956 0.0
C1282 C 0.81654 0.68519 0.62648 0.0
C1283 C 0.85326 0.67739 0.6355 0.0
N1284 N 0.91692 0.69811 0.64324 0.0
N1285 N 0.77608 0.72774 0.60329 0.0
C1286 C 0.88047 0.70645 0.63728 0.0
C1287 C 0.80837 0.72142 0.61655 0.0
N1288 N 0.89275 0.77336 0.63774 0.0
N1289 N 0.78926 0.65826 0.62806 0.0
H1290 H 0.76901 0.75397 0.59596 0.0
H1291 H 0.75762 0.7065 0.59796 0.0
H1292 H 0.79424 0.63162 0.63551 0.0
H1293 H 0.76104 0.66328 0.62412 0.0
H1294 H 0.91671 0.7705 0.64882 0.0
H1295 H 0.88586 0.80128 0.63399 0.0
H1296 H 0.93884 0.71737 0.64173 0.0
H1297 H 0.9261 0.67112 0.64762 0.0
C1298 C 0.56861 0.56869 0.88765 0.0
C1299 C 0.58123 0.6061 0.8842 0.0
C1300 C 0.5214 0.62306 0.86436 0.0
C1301 C 0.50775 0.58614 0.8691 0.0
N1302 N 0.51667 0.52442 0.88688 0.0
N1303 N 0.56848 0.67051 0.87316 0.0
C1304 C 0.53082 0.55918 0.88138 0.0
C1305 C 0.55738 0.63368 0.87349 0.0
N1306 N 0.59331 0.54198 0.89594 0.0
N1307 N 0.50004 0.64814 0.8511 0.0
H1308 H 0.59472 0.67949 0.87945 0.0
H1309 H 0.55076 0.69274 0.86859 0.0
H1310 H 0.4723 0.64324 0.84583 0.0
H1311 H 0.51042 0.67333 0.84401 0.0
H1312 H 0.58742 0.51337 0.89637 0.0
H1313 H 0.62104 0.54812 0.90083 0.0
H1314 H 0.53018 0.50508 0.89841 0.0
H1315 H 0.49032 0.51531 0.88088 0.0
C1316 C 0.61602 0.29478 0.13649 0.0
C1317 C 0.64237 0.32458 0.1343 0.0
C1318 C 0.68755 0.28203 0.11419 0.0
C1319 C 0.66206 0.2519 0.11778 0.0
N1320 N 0.60516 0.22756 0.13625 0.0
N1321 N 0.70531 0.34573 0.12524 0.0
C1322 C 0.62718 0.25769 0.13008 0.0
C1323 C 0.67877 0.31798 0.1243 0.0
N1324 N 0.57977 0.30213 0.14352 0.0
N1325 N 0.71946 0.27658 0.10034 0.0
H1326 H 0.69997 0.37227 0.13274 0.0
H1327 H 0.73344 0.34157 0.12064 0.0
H1328 H 0.72696 0.25053 0.0929 0.0
H1329 H 0.73705 0.29832 0.09459 0.0
H1330 H 0.5582 0.28244 0.14243 0.0
H1331 H 0.5703 0.32879 0.14853 0.0
H1332 H 0.58147 0.22951 0.14766 0.0
H1333 H 0.61229 0.19993 0.1318 0.0
C1334 C 0.95631 0.36422 0.3891 0.0
C1335 C 0.92766 0.39198 0.38844 0.0
C1336 C 0.97186 0.43707 0.36987 0.0
C1337 C 0.0009 0.40996 0.37197 0.0
N1338 N 0.02306 0.35074 0.38817 0.0
N1339 N 0.90908 0.45641 0.38229 0.0
C1340 C 0.99379 0.3744 0.38296 0.0
C1341 C 0.9357 0.42892 0.37998 0.0
N1342 N 0.94744 0.32768 0.39436 0.0
N1343 N 0.97845 0.46996 0.35737 0.0
H1344 H 0.88242 0.45139 0.38973 0.0
H1345 H 0.91433 0.48471 0.37885 0.0
H1346 H 0.0047 0.47703 0.35001 0.0
H1347 H 0.95742 0.48905 0.3527 0.0
H1348 H 0.96626 0.30551 0.39222 0.0
H1349 H 0.92031 0.31882 0.39875 0.0
H1350 H 0.02016 0.32611 0.39854 0.0
H1351 H 0.05099 0.35741 0.38419 0.0
C1352 C 0.85611 0.31936 0.88729 0.0
C1353 C 0.85287 0.3292 0.86149 0.0
C1354 C 0.83268 0.26491 0.85194 0.0
C1355 C 0.83235 0.25643 0.87802 0.0
N1356 N 0.83265 0.27978 0.92059 0.0
N1357 N 0.82806 0.31377 0.82052 0.0
C1358 C 0.84056 0.28499 0.89572 0.0
C1359 C 0.83809 0.30272 0.84416 0.0
N1360 N 0.87595 0.34138 0.90362 0.0
N1361 N 0.82994 0.2369 0.83449 0.0
H1362 H 0.82986 0.34156 0.81445 0.0
H1363 H 0.81399 0.29621 0.808 0.0
H1364 H 0.82753 0.2086 0.83916 0.0
H1365 H 0.83396 0.24148 0.81535 0.0
H1366 H 0.88199 0.33307 0.92195 0.0
H1367 H 0.89019 0.36565 0.89831 0.0
H1368 H 0.83506 0.30114 0.93388 0.0
H1369 H 0.81944 0.25568 0.92736 0.0
C1370 C 0.99047 0.62475 0.12266 0.0
C1371 C 0.99753 0.58834 0.13235 0.0
C1372 C 0.9322 0.57023 0.12396 0.0
C1373 C 0.92438 0.60773 0.11662 0.0
N1374 N 0.94415 0.67239 0.11302 0.0
N1375 N 0.97495 0.52742 0.14506 0.0
C1376 C 0.95301 0.63547 0.11699 0.0
C1377 C 0.96839 0.56122 0.13368 0.0
N1378 N 0.01978 0.64868 0.11811 0.0
N1379 N 0.90539 0.54309 0.12096 0.0
H1380 H 0.00121 0.51976 0.15211 0.0
H1381 H 0.9539 0.50806 0.14914 0.0
H1382 H 0.87855 0.5488 0.11404 0.0
H1383 H 0.91054 0.51455 0.12343 0.0
H1384 H 0.01684 0.67412 0.10867 0.0
H1385 H 0.04773 0.64157 0.12162 0.0
H1386 H 0.96302 0.69434 0.11589 0.0
H1387 H 0.91697 0.68158 0.10907 0.0
C1388 C 0.68594 0.68173 0.36503 0.0
C1389 C 0.64906 0.67509 0.35589 0.0
C1390 C 0.63481 0.74229 0.35911 0.0
C1391 C 0.66978 0.74796 0.37122 0.0
N1392 N 0.72799 0.72357 0.38754 0.0
N1393 N 0.58651 0.69802 0.34698 0.0
C1394 C 0.69533 0.71785 0.37457 0.0
C1395 C 0.62305 0.70514 0.35339 0.0
N1396 N 0.71224 0.65378 0.36386 0.0
N1397 N 0.61305 0.77254 0.35285 0.0
H1398 H 0.57648 0.67128 0.34272 0.0
H1399 H 0.56527 0.71809 0.34789 0.0
H1400 H 0.62086 0.80015 0.35685 0.0
H1401 H 0.58902 0.77063 0.34176 0.0
H1402 H 0.74056 0.65777 0.36799 0.0
H1403 H 0.70642 0.62724 0.35653 0.0
H1404 H 0.74574 0.70194 0.39322 0.0
H1405 H 0.73629 0.74997 0.39401 0.0
C1406 C 0.53935 0.3677 0.61242 0.0
C1407 C 0.56658 0.396 0.60792 0.0
C1408 C 0.52152 0.44468 0.6206 0.0
C1409 C 0.49386 0.41644 0.62419 0.0
N1410 N 0.47377 0.3522 0.61885 0.0
N1411 N 0.58256 0.46136 0.60339 0.0
C1412 C 0.50201 0.37827 0.61867 0.0
C1413 C 0.55731 0.43453 0.61068 0.0
N1414 N 0.5496 0.33066 0.61197 0.0
N1415 N 0.51425 0.48079 0.62787 0.0
H1416 H 0.60907 0.45479 0.59623 0.0
H1417 H 0.57627 0.48988 0.60248 0.0
H1418 H 0.48835 0.4893 0.63506 0.0
H1419 H 0.53456 0.5018 0.62847 0.0
H1420 H 0.53234 0.30897 0.61823 0.0
H1421 H 0.5765 0.32155 0.60714 0.0
H1422 H 0.47693 0.32487 0.61224 0.0
H1423 H 0.44611 0.35872 0.62359 0.0
C1424 C 0.1229 0.28823 0.35681 0.0
C1425 C 0.14828 0.31861 0.36031 0.0
C1426 C 0.1935 0.2762 0.3805 0.0
C1427 C 0.1688 0.24573 0.37596 0.0
N1428 N 0.11381 0.22072 0.35559 0.0
N1429 N 0.21043 0.34059 0.37073 0.0
C1430 C 0.13472 0.25114 0.3627 0.0
C1431 C 0.18442 0.31233 0.3708 0.0
N1432 N 0.08676 0.29499 0.34928 0.0
N1433 N 0.22508 0.27079 0.39467 0.0
H1434 H 0.2049 0.36713 0.3633 0.0
H1435 H 0.23841 0.33689 0.37587 0.0
H1436 H 0.23324 0.24442 0.40128 0.0
H1437 H 0.24192 0.29262 0.40119 0.0
H1438 H 0.06578 0.27461 0.34932 0.0
H1439 H 0.07664 0.3217 0.345 0.0
H1440 H 0.09067 0.22248 0.34368 0.0
H1441 H 0.12153 0.19316 0.35981 0.0
C1442 C 0.45442 0.3685 0.10741 0.0
C1443 C 0.42515 0.39552 0.10905 0.0
C1444 C 0.46934 0.44165 0.12638 0.0
C1445 C 0.49875 0.4151 0.12363 0.0
N1446 N 0.52153 0.35684 0.10641 0.0
N1447 N 0.40557 0.45962 0.11545 0.0
C1448 C 0.49195 0.37961 0.11253 0.0
C1449 C 0.43285 0.43269 0.11719 0.0
N1450 N 0.44618 0.33177 0.1023 0.0
N1451 N 0.47597 0.47478 0.13857 0.0
H1452 H 0.3787 0.45404 0.10857 0.0
H1453 H 0.41041 0.48803 0.11873 0.0
H1454 H 0.50256 0.48259 0.14498 0.0
H1455 H 0.45483 0.49343 0.14378 0.0
H1456 H 0.46574 0.31012 0.10374 0.0
H1457 H 0.41902 0.32218 0.09876 0.0
H1458 H 0.5187 0.33221 0.09604 0.0
H1459 H 0.54945 0.36441 0.10961 0.0
C1460 C 0.37754 0.73557 0.88184 0.0
C1461 C 0.33949 0.7474 0.88039 0.0
C1462 C 0.32256 0.68726 0.8608 0.0
C1463 C 0.35956 0.674 0.86528 0.0
N1464 N 0.42104 0.68343 0.88343 0.0
N1465 N 0.27456 0.73299 0.87148 0.0
C1466 C 0.38666 0.6975 0.87687 0.0
C1467 C 0.31163 0.72298 0.87045 0.0
N1468 N 0.4053 0.76114 0.88672 0.0
N1469 N 0.29788 0.66568 0.84743 0.0
H1470 H 0.26537 0.75852 0.87883 0.0
H1471 H 0.25264 0.71479 0.86703 0.0
H1472 H 0.30449 0.63881 0.84099 0.0
H1473 H 0.27191 0.67541 0.84119 0.0
H1474 H 0.43384 0.75485 0.8855 0.0
H1475 H 0.40012 0.78972 0.88925 0.0
H1476 H 0.44025 0.6981 0.89447 0.0
H1477 H 0.4293 0.65593 0.87965 0.0
C1478 C 0.00358 0.62104 0.60994 0.0
C1479 C 0.99778 0.58613 0.62209 0.0
C1480 C 0.06405 0.56975 0.61567 0.0
C1481 C 0.07069 0.60647 0.60626 0.0
N1482 N 0.04801 0.66925 0.59798 0.0
N1483 N 0.02237 0.52823 0.63879 0.0
C1484 C 0.04075 0.63267 0.60415 0.0
C1485 C 0.02793 0.56056 0.62544 0.0
N1486 N 0.97339 0.64274 0.60341 0.0
N1487 N 0.09198 0.54341 0.61461 0.0
H1488 H 0.99615 0.52031 0.64578 0.0
H1489 H 0.04408 0.51053 0.64441 0.0
H1490 H 0.11867 0.54914 0.60745 0.0
H1491 H 0.08787 0.51515 0.6188 0.0
H1492 H 0.9755 0.66666 0.59225 0.0
H1493 H 0.94568 0.63487 0.60711 0.0
H1494 H 0.02796 0.6905 0.59902 0.0
H1495 H 0.07486 0.67928 0.59397 0.0
C1496 C 0.12014 0.70809 0.146 0.0
C1497 C 0.14456 0.67734 0.14112 0.0
C1498 C 0.18796 0.71914 0.11872 0.0
C1499 C 0.16452 0.75003 0.12475 0.0
N1500 N 0.11196 0.77572 0.14755 0.0
N1501 N 0.20502 0.65452 0.12754 0.0
C1502 C 0.13182 0.74505 0.13958 0.0
C1503 C 0.17945 0.68312 0.12877 0.0
N1504 N 0.08489 0.70182 0.15539 0.0
N1505 N 0.21791 0.72411 0.10297 0.0
H1506 H 0.2001 0.62814 0.13537 0.0
H1507 H 0.23237 0.65784 0.12094 0.0
H1508 H 0.22582 0.75037 0.09603 0.0
H1509 H 0.23344 0.70202 0.09546 0.0
H1510 H 0.06425 0.72248 0.15649 0.0
H1511 H 0.07491 0.67525 0.16018 0.0
H1512 H 0.09032 0.77427 0.16068 0.0
H1513 H 0.11905 0.80316 0.14257 0.0
C1514 C 0.04642 0.366 0.88535 0.0
C1515 C 0.07512 0.39363 0.88654 0.0
C1516 C 0.0318 0.44094 0.86965 0.0
C1517 C 0.00264 0.41376 0.86974 0.0
N1518 N 0.97977 0.35289 0.88252 0.0
N1519 N 0.09403 0.45851 0.88424 0.0
C1520 C 0.00925 0.377 0.87905 0.0
C1521 C 0.06748 0.43149 0.87999 0.0
N1522 N 0.05498 0.32894 0.88902 0.0
N1523 N 0.02598 0.47514 0.85864 0.0
H1524 H 0.12041 0.45251 0.8918 0.0
H1525 H 0.08888 0.48715 0.88234 0.0
H1526 H 1.00023 0.48313 0.85095 0.0
H1527 H 0.04732 0.49456 0.8554 0.0
H1528 H 0.03626 0.30714 0.88534 0.0
H1529 H 0.0818 0.3195 0.89373 0.0
H1530 H 0.98219 0.32726 0.89181 0.0
H1531 H 0.95207 0.35994 0.87822 0.0
C1532 C 0.34179 0.28317 0.60281 0.0
C1533 C 0.33323 0.25532 0.62095 0.0
C1534 C 0.33686 0.30329 0.65389 0.0
C1535 C 0.35191 0.32925 0.63628 0.0
N1536 N 0.37673 0.33962 0.59433 0.0
N1537 N 0.32984 0.2378 0.66483 0.0
C1538 C 0.35653 0.31813 0.61079 0.0
C1539 C 0.33257 0.26501 0.64683 0.0
N1540 N 0.33486 0.27682 0.57793 0.0
N1541 N 0.32526 0.31522 0.67702 0.0
H1542 H 0.32837 0.20923 0.66074 0.0
H1543 H 0.33306 0.2434 0.68392 0.0
H1544 H 0.32582 0.34333 0.68248 0.0
H1545 H 0.31101 0.29788 0.68959 0.0
H1546 H 0.33747 0.29767 0.56429 0.0
H1547 H 0.32224 0.25229 0.57137 0.0
H1548 H 0.38376 0.33041 0.57635 0.0
H1549 H 0.3903 0.36442 0.59928 0.0
C1550 C 0.49518 0.62108 0.38084 0.0
C1551 C 0.50196 0.58539 0.36992 0.0
C1552 C 0.43639 0.5674 0.37746 0.0
C1553 C 0.42871 0.60455 0.38564 0.0
N1554 N 0.44931 0.66852 0.39185 0.0
N1555 N 0.47889 0.52559 0.35532 0.0
C1556 C 0.45774 0.63186 0.38661 0.0
C1557 C 0.4726 0.55865 0.3677 0.0
N1558 N 0.52472 0.64426 0.38633 0.0
N1559 N 0.40935 0.54031 0.37967 0.0
H1560 H 0.50513 0.51807 0.34816 0.0
H1561 H 0.45764 0.50682 0.35053 0.0
H1562 H 0.38263 0.54577 0.38689 0.0
H1563 H 0.41428 0.5119 0.37643 0.0
H1564 H 0.52198 0.66901 0.39659 0.0
H1565 H 0.55262 0.63703 0.38272 0.0
H1566 H 0.46848 0.69042 0.38982 0.0
H1567 H 0.42228 0.67775 0.3962 0.0
loop_
_geom_bond_atom_site_label_1
_geom_bond_atom_site_label_2
_geom_bond_distance
_geom_bond_site_symmetry_2
_ccdc_geom_bond_type
In0 O1 2.294 . S
In0 O2 2.326 . S
In0 O6 2.266 . S
In0 O7 2.326 . S
In0 O8 2.266 . S
In0 O9 2.326 . S
In0 O11 2.294 . S
In0 O12 2.326 . S
O1 In0 2.294 . S
O1 C10 1.240 . S
O2 In0 2.326 . S
O2 C10 1.252 . S
C3 O6 1.252 . S
C3 O7 1.260 . S
C4 O11 1.240 . S
C4 O12 1.252 . S
C5 O8 1.252 . S
C5 O9 1.260 . S
O6 In0 2.266 . S
O6 C3 1.252 . S
O7 In0 2.326 . S
O7 C3 1.260 . S
O8 In0 2.266 . S
O8 C5 1.252 . S
O9 In0 2.326 . S
O9 C5 1.260 . S
C10 O1 1.240 . S
C10 O2 1.252 . S
O11 In0 2.294 . S
O11 C4 1.240 . S
O12 In0 2.326 . S
O12 C4 1.252 . S
In13 O14 2.294 . S
In13 O15 2.326 . S
In13 O19 2.266 . S
In13 O20 2.326 . S
In13 O21 2.266 . S
In13 O22 2.326 . S
In13 O24 2.294 . S
In13 O25 2.326 . S
O14 In13 2.294 . S
O14 C23 1.240 . S
O15 In13 2.326 . S
O15 C23 1.252 . S
C16 O19 1.252 . S
C16 O20 1.260 . S
C17 O24 1.240 . S
C17 O25 1.252 . S
C18 O21 1.252 . S
C18 O22 1.260 . S
O19 In13 2.266 . S
O19 C16 1.252 . S
O20 In13 2.326 . S
O20 C16 1.260 . S
O21 In13 2.266 . S
O21 C18 1.252 . S
O22 In13 2.326 . S
O22 C18 1.260 . S
C23 O14 1.240 . S
C23 O15 1.252 . S
O24 In13 2.294 . S
O24 C17 1.240 . S
O25 In13 2.326 . S
O25 C17 1.252 . S
In26 O27 2.294 . S
In26 O28 2.326 . S
In26 O32 2.266 . S
In26 O33 2.326 . S
In26 O34 2.266 . S
In26 O35 2.326 . S
In26 O37 2.294 . S
In26 O38 2.326 . S
O27 In26 2.294 . S
O27 C36 1.240 . S
O28 In26 2.326 . S
O28 C36 1.252 . S
C29 O32 1.252 . S
C29 O33 1.260 . S
C30 O37 1.240 . S
C30 O38 1.252 . S
C31 O34 1.252 . S
C31 O35 1.260 . S
O32 In26 2.266 . S
O32 C29 1.252 . S
O33 In26 2.326 . S
O33 C29 1.260 . S
O34 In26 2.266 . S
O34 C31 1.252 . S
O35 In26 2.326 . S
O35 C31 1.260 . S
C36 O27 1.240 . S
C36 O28 1.252 . S
O37 In26 2.294 . S
O37 C30 1.240 . S
O38 In26 2.326 . S
O38 C30 1.252 . S
In39 O40 2.294 . S
In39 O41 2.326 . S
In39 O45 2.266 . S
In39 O46 2.326 . S
In39 O47 2.266 . S
In39 O48 2.326 . S
In39 O50 2.294 . S
In39 O51 2.326 . S
O40 In39 2.294 . S
O40 C49 1.240 . S
O41 In39 2.326 . S
O41 C49 1.252 . S
C42 O45 1.252 . S
C42 O46 1.260 . S
C43 O50 1.240 . S
C43 O51 1.252 . S
C44 O47 1.252 . S
C44 O48 1.260 . S
O45 In39 2.266 . S
O45 C42 1.252 . S
O46 In39 2.326 . S
O46 C42 1.260 . S
O47 In39 2.266 . S
O47 C44 1.252 . S
O48 In39 2.326 . S
O48 C44 1.260 . S
C49 O40 1.240 . S
C49 O41 1.252 . S
O50 In39 2.294 . S
O50 C43 1.240 . S
O51 In39 2.326 . S
O51 C43 1.252 . S
In52 O53 2.294 . S
In52 O54 2.326 . S
In52 O58 2.266 . S
In52 O59 2.326 . S
In52 O60 2.266 . S
In52 O61 2.326 . S
In52 O63 2.294 . S
In52 O64 2.326 . S
O53 In52 2.294 . S
O53 C62 1.240 . S
O54 In52 2.326 . S
O54 C62 1.252 . S
C55 O58 1.252 . S
C55 O59 1.260 . S
C56 O63 1.240 . S
C56 O64 1.252 . S
C57 O60 1.252 . S
C57 O61 1.260 . S
O58 In52 2.266 . S
O58 C55 1.252 . S
O59 In52 2.326 . S
O59 C55 1.260 . S
O60 In52 2.266 . S
O60 C57 1.252 . S
O61 In52 2.326 . S
O61 C57 1.260 . S
C62 O53 1.240 . S
C62 O54 1.252 . S
O63 In52 2.294 . S
O63 C56 1.240 . S
O64 In52 2.326 . S
O64 C56 1.252 . S
In65 O66 2.294 . S
In65 O67 2.326 . S
In65 O71 2.266 . S
In65 O72 2.326 . S
In65 O73 2.266 . S
In65 O74 2.326 . S
In65 O76 2.294 . S
In65 O77 2.326 . S
O66 In65 2.294 . S
O66 C75 1.240 . S
O67 In65 2.326 . S
O67 C75 1.252 . S
C68 O71 1.252 . S
C68 O72 1.260 . S
C69 O76 1.240 . S
C69 O77 1.252 . S
C70 O73 1.252 . S
C70 O74 1.260 . S
O71 In65 2.266 . S
O71 C68 1.252 . S
O72 In65 2.326 . S
O72 C68 1.260 . S
O73 In65 2.266 . S
O73 C70 1.252 . S
O74 In65 2.326 . S
O74 C70 1.260 . S
C75 O66 1.240 . S
C75 O67 1.252 . S
O76 In65 2.294 . S
O76 C69 1.240 . S
O77 In65 2.326 . S
O77 C69 1.252 . S
In78 O79 2.294 . S
In78 O80 2.326 . S
In78 O84 2.266 . S
In78 O85 2.326 . S
In78 O86 2.266 . S
In78 O87 2.326 . S
In78 O89 2.294 . S
In78 O90 2.326 . S
O79 In78 2.294 . S
O79 C88 1.240 . S
O80 In78 2.326 . S
O80 C88 1.252 . S
C81 O84 1.252 . S
C81 O85 1.260 . S
C82 O89 1.240 . S
C82 O90 1.252 . S
C83 O86 1.252 . S
C83 O87 1.260 . S
O84 In78 2.266 . S
O84 C81 1.252 . S
O85 In78 2.326 . S
O85 C81 1.260 . S
O86 In78 2.266 . S
O86 C83 1.252 . S
O87 In78 2.326 . S
O87 C83 1.260 . S
C88 O79 1.240 . S
C88 O80 1.252 . S
O89 In78 2.294 . S
O89 C82 1.240 . S
O90 In78 2.326 . S
O90 C82 1.252 . S
In91 O92 2.294 . S
In91 O93 2.326 . S
In91 O97 2.266 . S
In91 O98 2.326 . S
In91 O99 2.266 . S
In91 O100 2.326 . S
In91 O102 2.294 . S
In91 O103 2.326 . S
O92 In91 2.294 . S
O92 C101 1.240 . S
O93 In91 2.326 . S
O93 C101 1.252 . S
C94 O97 1.252 . S
C94 O98 1.260 . S
C95 O102 1.240 . S
C95 O103 1.252 . S
C96 O99 1.252 . S
C96 O100 1.260 . S
O97 In91 2.266 . S
O97 C94 1.252 . S
O98 In91 2.326 . S
O98 C94 1.260 . S
O99 In91 2.266 . S
O99 C96 1.252 . S
O100 In91 2.326 . S
O100 C96 1.260 . S
C101 O92 1.240 . S
C101 O93 1.252 . S
O102 In91 2.294 . S
O102 C95 1.240 . S
O103 In91 2.326 . S
O103 C95 1.252 . S
In104 O105 2.294 . S
In104 O106 2.326 . S
In104 O110 2.266 . S
In104 O111 2.326 . S
In104 O112 2.266 . S
In104 O113 2.326 . S
In104 O115 2.294 . S
In104 O116 2.326 . S
O105 In104 2.294 . S
O105 C114 1.240 . S
O106 In104 2.326 . S
O106 C114 1.252 . S
C107 O110 1.252 . S
C107 O111 1.260 . S
C108 O115 1.240 . S
C108 O116 1.252 . S
C109 O112 1.252 . S
C109 O113 1.260 . S
O110 In104 2.266 . S
O110 C107 1.252 . S
O111 In104 2.326 . S
O111 C107 1.260 . S
O112 In104 2.266 . S
O112 C109 1.252 . S
O113 In104 2.326 . S
O113 C109 1.260 . S
C114 O105 1.240 . S
C114 O106 1.252 . S
O115 In104 2.294 . S
O115 C108 1.240 . S
O116 In104 2.326 . S
O116 C108 1.252 . S
In117 O118 2.294 . S
In117 O119 2.326 . S
In117 O123 2.266 . S
In117 O124 2.326 . S
In117 O125 2.266 . S
In117 O126 2.326 . S
In117 O128 2.294 . S
In117 O129 2.326 . S
O118 In117 2.294 . S
O118 C127 1.240 . S
O119 In117 2.326 . S
O119 C127 1.252 . S
C120 O123 1.252 . S
C120 O124 1.260 . S
C121 O128 1.240 . S
C121 O129 1.252 . S
C122 O125 1.252 . S
C122 O126 1.260 . S
O123 In117 2.266 . S
O123 C120 1.252 . S
O124 In117 2.326 . S
O124 C120 1.260 . S
O125 In117 2.266 . S
O125 C122 1.252 . S
O126 In117 2.326 . S
O126 C122 1.260 . S
C127 O118 1.240 . S
C127 O119 1.252 . S
O128 In117 2.294 . S
O128 C121 1.240 . S
O129 In117 2.326 . S
O129 C121 1.252 . S
In130 O131 2.294 . S
In130 O132 2.326 . S
In130 O136 2.266 . S
In130 O137 2.326 . S
In130 O138 2.266 . S
In130 O139 2.326 . S
In130 O141 2.294 . S
In130 O142 2.326 . S
O131 In130 2.294 . S
O131 C140 1.240 . S
O132 In130 2.326 . S
O132 C140 1.252 . S
C133 O136 1.252 . S
C133 O137 1.260 . S
C134 O141 1.240 . S
C134 O142 1.252 . S
C135 O138 1.252 . S
C135 O139 1.260 . S
O136 In130 2.266 . S
O136 C133 1.252 . S
O137 In130 2.326 . S
O137 C133 1.260 . S
O138 In130 2.266 . S
O138 C135 1.252 . S
O139 In130 2.326 . S
O139 C135 1.260 . S
C140 O131 1.240 . S
C140 O132 1.252 . S
O141 In130 2.294 . S
O141 C134 1.240 . S
O142 In130 2.326 . S
O142 C134 1.252 . S
In143 O144 2.294 . S
In143 O145 2.326 . S
In143 O149 2.266 . S
In143 O150 2.326 . S
In143 O151 2.266 . S
In143 O152 2.326 . S
In143 O154 2.294 . S
In143 O155 2.326 . S
O144 In143 2.294 . S
O144 C153 1.240 . S
O145 In143 2.326 . S
O145 C153 1.252 . S
C146 O149 1.252 . S
C146 O150 1.260 . S
C147 O154 1.240 . S
C147 O155 1.252 . S
C148 O151 1.252 . S
C148 O152 1.260 . S
O149 In143 2.266 . S
O149 C146 1.252 . S
O150 In143 2.326 . S
O150 C146 1.260 . S
O151 In143 2.266 . S
O151 C148 1.252 . S
O152 In143 2.326 . S
O152 C148 1.260 . S
C153 O144 1.240 . S
C153 O145 1.252 . S
O154 In143 2.294 . S
O154 C147 1.240 . S
O155 In143 2.326 . S
O155 C147 1.252 . S
In156 O157 2.294 . S
In156 O158 2.326 . S
In156 O162 2.266 . S
In156 O163 2.326 . S
In156 O164 2.266 . S
In156 O165 2.326 . S
In156 O167 2.294 . S
In156 O168 2.326 . S
O157 In156 2.294 . S
O157 C166 1.240 . S
O158 In156 2.326 . S
O158 C166 1.252 . S
C159 O162 1.252 . S
C159 O163 1.260 . S
C160 O167 1.240 . S
C160 O168 1.252 . S
C161 O164 1.252 . S
C161 O165 1.260 . S
O162 In156 2.266 . S
O162 C159 1.252 . S
O163 In156 2.326 . S
O163 C159 1.260 . S
O164 In156 2.266 . S
O164 C161 1.252 . S
O165 In156 2.326 . S
O165 C161 1.260 . S
C166 O157 1.240 . S
C166 O158 1.252 . S
O167 In156 2.294 . S
O167 C160 1.240 . S
O168 In156 2.326 . S
O168 C160 1.252 . S
In169 O170 2.294 . S
In169 O171 2.326 . S
In169 O175 2.266 . S
In169 O176 2.326 . S
In169 O177 2.266 . S
In169 O178 2.326 . S
In169 O180 2.294 . S
In169 O181 2.326 . S
O170 In169 2.294 . S
O170 C179 1.240 . S
O171 In169 2.326 . S
O171 C179 1.252 . S
C172 O175 1.252 . S
C172 O176 1.260 . S
C173 O180 1.240 . S
C173 O181 1.252 . S
C174 O177 1.252 . S
C174 O178 1.260 . S
O175 In169 2.266 . S
O175 C172 1.252 . S
O176 In169 2.326 . S
O176 C172 1.260 . S
O177 In169 2.266 . S
O177 C174 1.252 . S
O178 In169 2.326 . S
O178 C174 1.260 . S
C179 O170 1.240 . S
C179 O171 1.252 . S
O180 In169 2.294 . S
O180 C173 1.240 . S
O181 In169 2.326 . S
O181 C173 1.252 . S
In182 O183 2.294 . S
In182 O184 2.326 . S
In182 O188 2.266 . S
In182 O189 2.326 . S
In182 O190 2.266 . S
In182 O191 2.326 . S
In182 O193 2.294 . S
In182 O194 2.326 . S
O183 In182 2.294 . S
O183 C192 1.240 . S
O184 In182 2.326 . S
O184 C192 1.252 . S
C185 O188 1.252 . S
C185 O189 1.260 . S
C186 O193 1.240 . S
C186 O194 1.252 . S
C187 O190 1.252 . S
C187 O191 1.260 . S
O188 In182 2.266 . S
O188 C185 1.252 . S
O189 In182 2.326 . S
O189 C185 1.260 . S
O190 In182 2.266 . S
O190 C187 1.252 . S
O191 In182 2.326 . S
O191 C187 1.260 . S
C192 O183 1.240 . S
C192 O184 1.252 . S
O193 In182 2.294 . S
O193 C186 1.240 . S
O194 In182 2.326 . S
O194 C186 1.252 . S
In195 O196 2.294 . S
In195 O197 2.326 . S
In195 O201 2.266 . S
In195 O202 2.326 . S
In195 O203 2.266 . S
In195 O204 2.326 . S
In195 O206 2.294 . S
In195 O207 2.326 . S
O196 In195 2.294 . S
O196 C205 1.240 . S
O197 In195 2.326 . S
O197 C205 1.252 . S
C198 O201 1.252 . S
C198 O202 1.260 . S
C199 O206 1.240 . S
C199 O207 1.252 . S
C200 O203 1.252 . S
C200 O204 1.260 . S
O201 In195 2.266 . S
O201 C198 1.252 . S
O202 In195 2.326 . S
O202 C198 1.260 . S
O203 In195 2.266 . S
O203 C200 1.252 . S
O204 In195 2.326 . S
O204 C200 1.260 . S
C205 O196 1.240 . S
C205 O197 1.252 . S
O206 In195 2.294 . S
O206 C199 1.240 . S
O207 In195 2.326 . S
O207 C199 1.252 . S
In208 O209 2.294 . S
In208 O210 2.326 . S
In208 O214 2.266 . S
In208 O215 2.326 . S
In208 O216 2.266 . S
In208 O217 2.326 . S
In208 O219 2.294 . S
In208 O220 2.326 . S
O209 In208 2.294 . S
O209 C218 1.240 . S
O210 In208 2.326 . S
O210 C218 1.252 . S
C211 O214 1.252 . S
C211 O215 1.260 . S
C212 O219 1.240 . S
C212 O220 1.252 . S
C213 O216 1.252 . S
C213 O217 1.260 . S
O214 In208 2.266 . S
O214 C211 1.252 . S
O215 In208 2.326 . S
O215 C211 1.260 . S
O216 In208 2.266 . S
O216 C213 1.252 . S
O217 In208 2.326 . S
O217 C213 1.260 . S
C218 O209 1.240 . S
C218 O210 1.252 . S
O219 In208 2.294 . S
O219 C212 1.240 . S
O220 In208 2.326 . S
O220 C212 1.252 . S
In221 O222 2.294 . S
In221 O223 2.326 . S
In221 O227 2.266 . S
In221 O228 2.326 . S
In221 O229 2.266 . S
In221 O230 2.326 . S
In221 O232 2.294 . S
In221 O233 2.326 . S
O222 In221 2.294 . S
O222 C231 1.240 . S
O223 In221 2.326 . S
O223 C231 1.252 . S
C224 O227 1.252 . S
C224 O228 1.260 . S
C225 O232 1.240 . S
C225 O233 1.252 . S
C226 O229 1.252 . S
C226 O230 1.260 . S
O227 In221 2.266 . S
O227 C224 1.252 . S
O228 In221 2.326 . S
O228 C224 1.260 . S
O229 In221 2.266 . S
O229 C226 1.252 . S
O230 In221 2.326 . S
O230 C226 1.260 . S
C231 O222 1.240 . S
C231 O223 1.252 . S
O232 In221 2.294 . S
O232 C225 1.240 . S
O233 In221 2.326 . S
O233 C225 1.252 . S
In234 O235 2.294 . S
In234 O236 2.326 . S
In234 O240 2.266 . S
In234 O241 2.326 . S
In234 O242 2.266 . S
In234 O243 2.326 . S
In234 O245 2.294 . S
In234 O246 2.326 . S
O235 In234 2.294 . S
O235 C244 1.240 . S
O236 In234 2.326 . S
O236 C244 1.252 . S
C237 O240 1.252 . S
C237 O241 1.260 . S
C238 O245 1.240 . S
C238 O246 1.252 . S
C239 O242 1.252 . S
C239 O243 1.260 . S
O240 In234 2.266 . S
O240 C237 1.252 . S
O241 In234 2.326 . S
O241 C237 1.260 . S
O242 In234 2.266 . S
O242 C239 1.252 . S
O243 In234 2.326 . S
O243 C239 1.260 . S
C244 O235 1.240 . S
C244 O236 1.252 . S
O245 In234 2.294 . S
O245 C238 1.240 . S
O246 In234 2.326 . S
O246 C238 1.252 . S
In247 O248 2.294 . S
In247 O249 2.326 . S
In247 O253 2.266 . S
In247 O254 2.326 . S
In247 O255 2.266 . S
In247 O256 2.326 . S
In247 O258 2.294 . S
In247 O259 2.326 . S
O248 In247 2.294 . S
O248 C257 1.240 . S
O249 In247 2.326 . S
O249 C257 1.252 . S
C250 O253 1.252 . S
C250 O254 1.260 . S
C251 O258 1.240 . S
C251 O259 1.252 . S
C252 O255 1.252 . S
C252 O256 1.260 . S
O253 In247 2.266 . S
O253 C250 1.252 . S
O254 In247 2.326 . S
O254 C250 1.260 . S
O255 In247 2.266 . S
O255 C252 1.252 . S
O256 In247 2.326 . S
O256 C252 1.260 . S
C257 O248 1.240 . S
C257 O249 1.252 . S
O258 In247 2.294 . S
O258 C251 1.240 . S
O259 In247 2.326 . S
O259 C251 1.252 . S
In260 O261 2.294 . S
In260 O262 2.326 . S
In260 O266 2.266 . S
In260 O267 2.326 . S
In260 O268 2.266 . S
In260 O269 2.326 . S
In260 O271 2.294 . S
In260 O272 2.326 . S
O261 In260 2.294 . S
O261 C270 1.240 . S
O262 In260 2.326 . S
O262 C270 1.252 . S
C263 O266 1.252 . S
C263 O267 1.260 . S
C264 O271 1.240 . S
C264 O272 1.252 . S
C265 O268 1.252 . S
C265 O269 1.260 . S
O266 In260 2.266 . S
O266 C263 1.252 . S
O267 In260 2.326 . S
O267 C263 1.260 . S
O268 In260 2.266 . S
O268 C265 1.252 . S
O269 In260 2.326 . S
O269 C265 1.260 . S
C270 O261 1.240 . S
C270 O262 1.252 . S
O271 In260 2.294 . S
O271 C264 1.240 . S
O272 In260 2.326 . S
O272 C264 1.252 . S
In273 O274 2.294 . S
In273 O275 2.326 . S
In273 O279 2.266 . S
In273 O280 2.326 . S
In273 O281 2.266 . S
In273 O282 2.326 . S
In273 O284 2.294 . S
In273 O285 2.326 . S
O274 In273 2.294 . S
O274 C283 1.240 . S
O275 In273 2.326 . S
O275 C283 1.252 . S
C276 O279 1.252 . S
C276 O280 1.260 . S
C277 O284 1.240 . S
C277 O285 1.252 . S
C278 O281 1.252 . S
C278 O282 1.260 . S
O279 In273 2.266 . S
O279 C276 1.252 . S
O280 In273 2.326 . S
O280 C276 1.260 . S
O281 In273 2.266 . S
O281 C278 1.252 . S
O282 In273 2.326 . S
O282 C278 1.260 . S
C283 O274 1.240 . S
C283 O275 1.252 . S
O284 In273 2.294 . S
O284 C277 1.240 . S
O285 In273 2.326 . S
O285 C277 1.252 . S
In286 O287 2.294 . S
In286 O288 2.326 . S
In286 O292 2.266 . S
In286 O293 2.326 . S
In286 O294 2.266 . S
In286 O295 2.326 . S
In286 O297 2.294 . S
In286 O298 2.326 . S
O287 In286 2.294 . S
O287 C296 1.240 . S
O288 In286 2.326 . S
O288 C296 1.252 . S
C289 O292 1.252 . S
C289 O293 1.260 . S
C290 O297 1.240 . S
C290 O298 1.252 . S
C291 O294 1.252 . S
C291 O295 1.260 . S
O292 In286 2.266 . S
O292 C289 1.252 . S
O293 In286 2.326 . S
O293 C289 1.260 . S
O294 In286 2.266 . S
O294 C291 1.252 . S
O295 In286 2.326 . S
O295 C291 1.260 . S
C296 O287 1.240 . S
C296 O288 1.252 . S
O297 In286 2.294 . S
O297 C290 1.240 . S
O298 In286 2.326 . S
O298 C290 1.252 . S
In299 O300 2.294 . S
In299 O301 2.326 . S
In299 O305 2.266 . S
In299 O306 2.326 . S
In299 O307 2.266 . S
In299 O308 2.326 . S
In299 O310 2.294 . S
In299 O311 2.326 . S
O300 In299 2.294 . S
O300 C309 1.240 . S
O301 In299 2.326 . S
O301 C309 1.252 . S
C302 O305 1.252 . S
C302 O306 1.260 . S
C303 O310 1.240 . S
C303 O311 1.252 . S
C304 O307 1.252 . S
C304 O308 1.260 . S
O305 In299 2.266 . S
O305 C302 1.252 . S
O306 In299 2.326 . S
O306 C302 1.260 . S
O307 In299 2.266 . S
O307 C304 1.252 . S
O308 In299 2.326 . S
O308 C304 1.260 . S
C309 O300 1.240 . S
C309 O301 1.252 . S
O310 In299 2.294 . S
O310 C303 1.240 . S
O311 In299 2.326 . S
O311 C303 1.252 . S
In312 O313 2.294 . S
In312 O314 2.326 . S
In312 O318 2.266 . S
In312 O319 2.326 . S
In312 O320 2.266 . S
In312 O321 2.326 . S
In312 O323 2.294 . S
In312 O324 2.326 . S
O313 In312 2.294 . S
O313 C322 1.240 . S
O314 In312 2.326 . S
O314 C322 1.252 . S
C315 O318 1.252 . S
C315 O319 1.260 . S
C316 O323 1.240 . S
C316 O324 1.252 . S
C317 O320 1.252 . S
C317 O321 1.260 . S
O318 In312 2.266 . S
O318 C315 1.252 . S
O319 In312 2.326 . S
O319 C315 1.260 . S
O320 In312 2.266 . S
O320 C317 1.252 . S
O321 In312 2.326 . S
O321 C317 1.260 . S
C322 O313 1.240 . S
C322 O314 1.252 . S
O323 In312 2.294 . S
O323 C316 1.240 . S
O324 In312 2.326 . S
O324 C316 1.252 . S
In325 O326 2.294 . S
In325 O327 2.326 . S
In325 O331 2.266 . S
In325 O332 2.326 . S
In325 O333 2.266 . S
In325 O334 2.326 . S
In325 O336 2.294 . S
In325 O337 2.326 . S
O326 In325 2.294 . S
O326 C335 1.240 . S
O327 In325 2.326 . S
O327 C335 1.252 . S
C328 O331 1.252 . S
C328 O332 1.260 . S
C329 O336 1.240 . S
C329 O337 1.252 . S
C330 O333 1.252 . S
C330 O334 1.260 . S
O331 In325 2.266 . S
O331 C328 1.252 . S
O332 In325 2.326 . S
O332 C328 1.260 . S
O333 In325 2.266 . S
O333 C330 1.252 . S
O334 In325 2.326 . S
O334 C330 1.260 . S
C335 O326 1.240 . S
C335 O327 1.252 . S
O336 In325 2.294 . S
O336 C329 1.240 . S
O337 In325 2.326 . S
O337 C329 1.252 . S
In338 O339 2.294 . S
In338 O340 2.326 . S
In338 O344 2.266 . S
In338 O345 2.326 . S
In338 O346 2.266 . S
In338 O347 2.326 . S
In338 O349 2.294 . S
In338 O350 2.326 . S
O339 In338 2.294 . S
O339 C348 1.240 . S
O340 In338 2.326 . S
O340 C348 1.252 . S
C341 O344 1.252 . S
C341 O345 1.260 . S
C342 O349 1.240 . S
C342 O350 1.252 . S
C343 O346 1.252 . S
C343 O347 1.260 . S
O344 In338 2.266 . S
O344 C341 1.252 . S
O345 In338 2.326 . S
O345 C341 1.260 . S
O346 In338 2.266 . S
O346 C343 1.252 . S
O347 In338 2.326 . S
O347 C343 1.260 . S
C348 O339 1.240 . S
C348 O340 1.252 . S
O349 In338 2.294 . S
O349 C342 1.240 . S
O350 In338 2.326 . S
O350 C342 1.252 . S
In351 O352 2.294 . S
In351 O353 2.326 . S
In351 O357 2.266 . S
In351 O358 2.326 . S
In351 O359 2.266 . S
In351 O360 2.326 . S
In351 O362 2.294 . S
In351 O363 2.326 . S
O352 In351 2.294 . S
O352 C361 1.240 . S
O353 In351 2.326 . S
O353 C361 1.252 . S
C354 O357 1.252 . S
C354 O358 1.260 . S
C355 O362 1.240 . S
C355 O363 1.252 . S
C356 O359 1.252 . S
C356 O360 1.260 . S
O357 In351 2.266 . S
O357 C354 1.252 . S
O358 In351 2.326 . S
O358 C354 1.260 . S
O359 In351 2.266 . S
O359 C356 1.252 . S
O360 In351 2.326 . S
O360 C356 1.260 . S
C361 O352 1.240 . S
C361 O353 1.252 . S
O362 In351 2.294 . S
O362 C355 1.240 . S
O363 In351 2.326 . S
O363 C355 1.252 . S
In364 O365 2.294 . S
In364 O366 2.326 . S
In364 O370 2.266 . S
In364 O371 2.326 . S
In364 O372 2.266 . S
In364 O373 2.326 . S
In364 O375 2.294 . S
In364 O376 2.326 . S
O365 In364 2.294 . S
O365 C374 1.240 . S
O366 In364 2.326 . S
O366 C374 1.252 . S
C367 O370 1.252 . S
C367 O371 1.260 . S
C368 O375 1.240 . S
C368 O376 1.252 . S
C369 O372 1.252 . S
C369 O373 1.260 . S
O370 In364 2.266 . S
O370 C367 1.252 . S
O371 In364 2.326 . S
O371 C367 1.260 . S
O372 In364 2.266 . S
O372 C369 1.252 . S
O373 In364 2.326 . S
O373 C369 1.260 . S
C374 O365 1.240 . S
C374 O366 1.252 . S
O375 In364 2.294 . S
O375 C368 1.240 . S
O376 In364 2.326 . S
O376 C368 1.252 . S
In377 O378 2.294 . S
In377 O379 2.326 . S
In377 O383 2.266 . S
In377 O384 2.326 . S
In377 O385 2.266 . S
In377 O386 2.326 . S
In377 O388 2.294 . S
In377 O389 2.326 . S
O378 In377 2.294 . S
O378 C387 1.240 . S
O379 In377 2.326 . S
O379 C387 1.252 . S
C380 O383 1.252 . S
C380 O384 1.260 . S
C381 O388 1.240 . S
C381 O389 1.252 . S
C382 O385 1.252 . S
C382 O386 1.260 . S
O383 In377 2.266 . S
O383 C380 1.252 . S
O384 In377 2.326 . S
O384 C380 1.260 . S
O385 In377 2.266 . S
O385 C382 1.252 . S
O386 In377 2.326 . S
O386 C382 1.260 . S
C387 O378 1.240 . S
C387 O379 1.252 . S
O388 In377 2.294 . S
O388 C381 1.240 . S
O389 In377 2.326 . S
O389 C381 1.252 . S
In390 O391 2.294 . S
In390 O392 2.326 . S
In390 O396 2.266 . S
In390 O397 2.326 . S
In390 O398 2.266 . S
In390 O399 2.326 . S
In390 O401 2.294 . S
In390 O402 2.326 . S
O391 In390 2.294 . S
O391 C400 1.240 . S
O392 In390 2.326 . S
O392 C400 1.252 . S
C393 O396 1.252 . S
C393 O397 1.260 . S
C394 O401 1.240 . S
C394 O402 1.252 . S
C395 O398 1.252 . S
C395 O399 1.260 . S
O396 In390 2.266 . S
O396 C393 1.252 . S
O397 In390 2.326 . S
O397 C393 1.260 . S
O398 In390 2.266 . S
O398 C395 1.252 . S
O399 In390 2.326 . S
O399 C395 1.260 . S
C400 O391 1.240 . S
C400 O392 1.252 . S
O401 In390 2.294 . S
O401 C394 1.240 . S
O402 In390 2.326 . S
O402 C394 1.252 . S
In403 O404 2.294 . S
In403 O405 2.326 . S
In403 O409 2.266 . S
In403 O410 2.326 . S
In403 O411 2.266 . S
In403 O412 2.326 . S
In403 O414 2.294 . S
In403 O415 2.326 . S
O404 In403 2.294 . S
O404 C413 1.240 . S
O405 In403 2.326 . S
O405 C413 1.252 . S
C406 O409 1.252 . S
C406 O410 1.260 . S
C407 O414 1.240 . S
C407 O415 1.252 . S
C408 O411 1.252 . S
C408 O412 1.260 . S
O409 In403 2.266 . S
O409 C406 1.252 . S
O410 In403 2.326 . S
O410 C406 1.260 . S
O411 In403 2.266 . S
O411 C408 1.252 . S
O412 In403 2.326 . S
O412 C408 1.260 . S
C413 O404 1.240 . S
C413 O405 1.252 . S
O414 In403 2.294 . S
O414 C407 1.240 . S
O415 In403 2.326 . S
O415 C407 1.252 . S
C416 C417 1.363 1_545 S
C416 C422 1.379 . S
C416 N424 1.356 . S
C417 C416 1.363 1_565 S
C417 C423 1.363 . S
C418 C419 1.363 1_565 S
C418 C423 1.379 . S
C418 N425 1.356 . S
C419 C418 1.363 1_545 S
C419 C422 1.363 . S
N420 C422 1.356 . S
N420 H432 0.984 . S
N420 H433 0.985 . S
N421 C423 1.356 . S
N421 H426 0.984 . S
N421 H427 0.985 . S
C422 C416 1.379 . S
C422 C419 1.363 . S
C422 N420 1.356 . S
C423 C417 1.363 . S
C423 C418 1.379 . S
C423 N421 1.356 . S
N424 C416 1.356 . S
N424 H430 0.984 . S
N424 H431 0.984 . S
N425 C418 1.356 . S
N425 H428 0.984 . S
N425 H429 0.985 . S
H426 N421 0.984 . S
H427 N421 0.985 . S
H428 N425 0.984 . S
H429 N425 0.985 . S
H430 N424 0.984 . S
H431 N424 0.984 . S
H432 N420 0.984 . S
H433 N420 0.985 . S
C434 C435 1.363 . S
C434 C440 1.379 . S
C434 N442 1.356 . S
C435 C434 1.363 . S
C435 C441 1.363 . S
C436 C437 1.363 . S
C436 C441 1.379 . S
C436 N443 1.356 . S
C437 C436 1.363 . S
C437 C440 1.363 . S
N438 C440 1.356 . S
N438 H450 0.984 . S
N438 H451 0.985 . S
N439 C441 1.356 . S
N439 H444 0.984 . S
N439 H445 0.985 . S
C440 C434 1.379 . S
C440 C437 1.363 . S
C440 N438 1.356 . S
C441 C435 1.363 . S
C441 C436 1.379 . S
C441 N439 1.356 . S
N442 C434 1.356 . S
N442 H448 0.984 . S
N442 H449 0.984 . S
N443 C436 1.356 . S
N443 H446 0.984 . S
N443 H447 0.985 . S
H444 N439 0.984 . S
H445 N439 0.985 . S
H446 N443 0.984 . S
H447 N443 0.985 . S
H448 N442 0.984 . S
H449 N442 0.984 . S
H450 N438 0.984 . S
H451 N438 0.985 . S
C452 C453 1.363 1_565 S
C452 C458 1.379 . S
C452 N460 1.356 . S
C453 C452 1.363 1_545 S
C453 C459 1.363 . S
C454 C455 1.363 1_545 S
C454 C459 1.379 . S
C454 N461 1.356 . S
C455 C454 1.363 1_565 S
C455 C458 1.363 . S
N456 C458 1.356 . S
N456 H468 0.984 . S
N456 H469 0.985 . S
N457 C459 1.356 . S
N457 H462 0.984 . S
N457 H463 0.985 . S
C458 C452 1.379 . S
C458 C455 1.363 . S
C458 N456 1.356 . S
C459 C453 1.363 . S
C459 C454 1.379 . S
C459 N457 1.356 . S
N460 C452 1.356 . S
N460 H466 0.984 . S
N460 H467 0.984 . S
N461 C454 1.356 . S
N461 H464 0.984 . S
N461 H465 0.985 . S
H462 N457 0.984 . S
H463 N457 0.985 . S
H464 N461 0.984 . S
H465 N461 0.985 . S
H466 N460 0.984 . S
H467 N460 0.984 . S
H468 N456 0.984 . S
H469 N456 0.985 . S
C470 C471 1.363 . S
C470 C476 1.379 1_556 S
C470 N478 1.356 . S
C471 C470 1.363 . S
C471 C477 1.363 . S
C472 C473 1.363 . S
C472 C477 1.379 1_554 S
C472 N479 1.356 . S
C473 C472 1.363 . S
C473 C476 1.363 . S
N474 C476 1.356 . S
N474 H486 0.984 . S
N474 H487 0.985 . S
N475 C477 1.356 . S
N475 H480 0.984 . S
N475 H481 0.985 . S
C476 C470 1.379 1_554 S
C476 C473 1.363 . S
C476 N474 1.356 . S
C477 C471 1.363 . S
C477 C472 1.379 1_556 S
C477 N475 1.356 . S
N478 C470 1.356 . S
N478 H484 0.984 . S
N478 H485 0.984 . S
N479 C472 1.356 . S
N479 H482 0.984 . S
N479 H483 0.985 . S
H480 N475 0.984 . S
H481 N475 0.985 . S
H482 N479 0.984 . S
H483 N479 0.985 . S
H484 N478 0.984 . S
H485 N478 0.984 . S
H486 N474 0.984 . S
H487 N474 0.985 . S
C488 C489 1.363 . S
C488 C494 1.379 . S
C488 N496 1.356 . S
C489 C488 1.363 . S
C489 C495 1.363 1_565 S
C490 C491 1.363 . S
C490 C495 1.379 . S
C490 N497 1.356 . S
C491 C490 1.363 . S
C491 C494 1.363 1_545 S
N492 C494 1.356 . S
N492 H504 0.984 . S
N492 H505 0.985 . S
N493 C495 1.356 . S
N493 H498 0.984 . S
N493 H499 0.985 . S
C494 C488 1.379 . S
C494 C491 1.363 1_565 S
C494 N492 1.356 . S
C495 C489 1.363 1_545 S
C495 C490 1.379 . S
C495 N493 1.356 . S
N496 C488 1.356 . S
N496 H502 0.984 . S
N496 H503 0.984 . S
N497 C490 1.356 . S
N497 H500 0.984 . S
N497 H501 0.985 . S
H498 N493 0.984 . S
H499 N493 0.985 . S
H500 N497 0.984 . S
H501 N497 0.985 . S
H502 N496 0.984 . S
H503 N496 0.984 . S
H504 N492 0.984 . S
H505 N492 0.985 . S
C506 C507 1.363 . S
C506 C512 1.379 . S
C506 N514 1.356 . S
C507 C506 1.363 . S
C507 C513 1.363 . S
C508 C509 1.363 . S
C508 C513 1.379 . S
C508 N515 1.356 . S
C509 C508 1.363 . S
C509 C512 1.363 . S
N510 C512 1.356 . S
N510 H522 0.984 . S
N510 H523 0.985 . S
N511 C513 1.356 . S
N511 H516 0.984 . S
N511 H517 0.985 . S
C512 C506 1.379 . S
C512 C509 1.363 . S
C512 N510 1.356 . S
C513 C507 1.363 . S
C513 C508 1.379 . S
C513 N511 1.356 . S
N514 C506 1.356 . S
N514 H520 0.984 . S
N514 H521 0.984 . S
N515 C508 1.356 . S
N515 H518 0.984 . S
N515 H519 0.985 . S
H516 N511 0.984 . S
H517 N511 0.985 . S
H518 N515 0.984 . S
H519 N515 0.985 . S
H520 N514 0.984 . S
H521 N514 0.984 . S
H522 N510 0.984 . S
H523 N510 0.985 . S
C524 C525 1.363 1_565 S
C524 C530 1.379 . S
C524 N532 1.356 . S
C525 C524 1.363 1_545 S
C525 C531 1.363 . S
C526 C527 1.363 1_545 S
C526 C531 1.379 . S
C526 N533 1.356 . S
C527 C526 1.363 1_565 S
C527 C530 1.363 . S
N528 C530 1.356 . S
N528 H540 0.984 . S
N528 H541 0.985 . S
N529 C531 1.356 . S
N529 H534 0.984 . S
N529 H535 0.985 . S
C530 C524 1.379 . S
C530 C527 1.363 . S
C530 N528 1.356 . S
C531 C525 1.363 . S
C531 C526 1.379 . S
C531 N529 1.356 . S
N532 C524 1.356 . S
N532 H538 0.984 . S
N532 H539 0.984 1_565 S
N533 C526 1.356 . S
N533 H536 0.984 1_545 S
N533 H537 0.985 . S
H534 N529 0.984 . S
H535 N529 0.985 . S
H536 N533 0.984 1_565 S
H537 N533 0.985 . S
H538 N532 0.984 . S
H539 N532 0.984 1_545 S
H540 N528 0.984 . S
H541 N528 0.985 . S
C542 C543 1.363 . S
C542 C548 1.379 1_556 S
C542 N550 1.356 . S
C543 C542 1.363 . S
C543 C549 1.363 . S
C544 C545 1.363 . S
C544 C549 1.379 1_554 S
C544 N551 1.356 . S
C545 C544 1.363 . S
C545 C548 1.363 . S
N546 C548 1.356 . S
N546 H558 0.984 . S
N546 H559 0.985 . S
N547 C549 1.356 . S
N547 H552 0.984 . S
N547 H553 0.985 . S
C548 C542 1.379 1_554 S
C548 C545 1.363 . S
C548 N546 1.356 . S
C549 C543 1.363 . S
C549 C544 1.379 1_556 S
C549 N547 1.356 . S
N550 C542 1.356 . S
N550 H556 0.984 . S
N550 H557 0.984 . S
N551 C544 1.356 . S
N551 H554 0.984 . S
N551 H555 0.985 . S
H552 N547 0.984 . S
H553 N547 0.985 . S
H554 N551 0.984 . S
H555 N551 0.985 . S
H556 N550 0.984 . S
H557 N550 0.984 . S
H558 N546 0.984 . S
H559 N546 0.985 . S
C560 C561 1.363 . S
C560 C566 1.379 . S
C560 N568 1.356 . S
C561 C560 1.363 . S
C561 C567 1.363 . S
C562 C563 1.363 . S
C562 C567 1.379 . S
C562 N569 1.356 . S
C563 C562 1.363 . S
C563 C566 1.363 . S
N564 C566 1.356 . S
N564 H576 0.984 . S
N564 H577 0.985 . S
N565 C567 1.356 . S
N565 H570 0.984 . S
N565 H571 0.985 . S
C566 C560 1.379 . S
C566 C563 1.363 . S
C566 N564 1.356 . S
C567 C561 1.363 . S
C567 C562 1.379 . S
C567 N565 1.356 . S
N568 C560 1.356 . S
N568 H574 0.984 . S
N568 H575 0.984 . S
N569 C562 1.356 . S
N569 H572 0.984 . S
N569 H573 0.985 . S
H570 N565 0.984 . S
H571 N565 0.985 . S
H572 N569 0.984 . S
H573 N569 0.985 . S
H574 N568 0.984 . S
H575 N568 0.984 . S
H576 N564 0.984 . S
H577 N564 0.985 . S
C578 C579 1.363 . S
C578 C584 1.379 1_554 S
C578 N586 1.356 . S
C579 C578 1.363 . S
C579 C585 1.363 . S
C580 C581 1.363 . S
C580 C585 1.379 1_556 S
C580 N587 1.356 . S
C581 C580 1.363 . S
C581 C584 1.363 . S
N582 C584 1.356 . S
N582 H594 0.984 . S
N582 H595 0.985 . S
N583 C585 1.356 . S
N583 H588 0.984 . S
N583 H589 0.985 . S
C584 C578 1.379 1_556 S
C584 C581 1.363 . S
C584 N582 1.356 . S
C585 C579 1.363 . S
C585 C580 1.379 1_554 S
C585 N583 1.356 . S
N586 C578 1.356 . S
N586 H592 0.984 . S
N586 H593 0.984 . S
N587 C580 1.356 . S
N587 H590 0.984 . S
N587 H591 0.985 . S
H588 N583 0.984 . S
H589 N583 0.985 . S
H590 N587 0.984 . S
H591 N587 0.985 . S
H592 N586 0.984 . S
H593 N586 0.984 . S
H594 N582 0.984 . S
H595 N582 0.985 . S
C596 C597 1.363 . S
C596 C602 1.379 . S
C596 N604 1.356 . S
C597 C596 1.363 . S
C597 C603 1.363 . S
C598 C599 1.363 . S
C598 C603 1.379 . S
C598 N605 1.356 . S
C599 C598 1.363 . S
C599 C602 1.363 . S
N600 C602 1.356 . S
N600 H612 0.984 . S
N600 H613 0.985 . S
N601 C603 1.356 . S
N601 H606 0.984 . S
N601 H607 0.985 . S
C602 C596 1.379 . S
C602 C599 1.363 . S
C602 N600 1.356 . S
C603 C597 1.363 . S
C603 C598 1.379 . S
C603 N601 1.356 . S
N604 C596 1.356 . S
N604 H610 0.984 . S
N604 H611 0.984 . S
N605 C598 1.356 . S
N605 H608 0.984 . S
N605 H609 0.985 . S
H606 N601 0.984 . S
H607 N601 0.985 . S
H608 N605 0.984 . S
H609 N605 0.985 . S
H610 N604 0.984 . S
H611 N604 0.984 . S
H612 N600 0.984 . S
H613 N600 0.985 . S
C614 C615 1.363 . S
C614 C620 1.379 . S
C614 N622 1.356 . S
C615 C614 1.363 . S
C615 C621 1.363 . S
C616 C617 1.363 . S
C616 C621 1.379 . S
C616 N623 1.356 . S
C617 C616 1.363 . S
C617 C620 1.363 . S
N618 C620 1.356 . S
N618 H630 0.984 . S
N618 H631 0.985 . S
N619 C621 1.356 . S
N619 H624 0.984 . S
N619 H625 0.985 . S
C620 C614 1.379 . S
C620 C617 1.363 . S
C620 N618 1.356 . S
C621 C615 1.363 . S
C621 C616 1.379 . S
C621 N619 1.356 . S
N622 C614 1.356 . S
N622 H628 0.984 . S
N622 H629 0.984 . S
N623 C616 1.356 . S
N623 H626 0.984 . S
N623 H627 0.985 . S
H624 N619 0.984 . S
H625 N619 0.985 . S
H626 N623 0.984 . S
H627 N623 0.985 . S
H628 N622 0.984 . S
H629 N622 0.984 . S
H630 N618 0.984 . S
H631 N618 0.985 . S
C632 C633 1.363 . S
C632 C638 1.379 . S
C632 N640 1.356 . S
C633 C632 1.363 . S
C633 C639 1.363 . S
C634 C635 1.363 . S
C634 C639 1.379 . S
C634 N641 1.356 . S
C635 C634 1.363 . S
C635 C638 1.363 . S
N636 C638 1.356 . S
N636 H648 0.984 . S
N636 H649 0.985 . S
N637 C639 1.356 . S
N637 H642 0.984 . S
N637 H643 0.985 . S
C638 C632 1.379 . S
C638 C635 1.363 . S
C638 N636 1.356 . S
C639 C633 1.363 . S
C639 C634 1.379 . S
C639 N637 1.356 . S
N640 C632 1.356 . S
N640 H646 0.984 . S
N640 H647 0.984 . S
N641 C634 1.356 . S
N641 H644 0.984 . S
N641 H645 0.985 . S
H642 N637 0.984 . S
H643 N637 0.985 . S
H644 N641 0.984 . S
H645 N641 0.985 . S
H646 N640 0.984 . S
H647 N640 0.984 . S
H648 N636 0.984 . S
H649 N636 0.985 . S
C650 C651 1.363 . S
C650 C656 1.379 1_554 S
C650 N658 1.356 . S
C651 C650 1.363 . S
C651 C657 1.363 . S
C652 C653 1.363 . S
C652 C657 1.379 1_556 S
C652 N659 1.356 . S
C653 C652 1.363 . S
C653 C656 1.363 . S
N654 C656 1.356 . S
N654 H666 0.984 . S
N654 H667 0.985 . S
N655 C657 1.356 . S
N655 H660 0.984 . S
N655 H661 0.985 . S
C656 C650 1.379 1_556 S
C656 C653 1.363 . S
C656 N654 1.356 . S
C657 C651 1.363 . S
C657 C652 1.379 1_554 S
C657 N655 1.356 . S
N658 C650 1.356 . S
N658 H664 0.984 . S
N658 H665 0.984 . S
N659 C652 1.356 . S
N659 H662 0.984 . S
N659 H663 0.985 . S
H660 N655 0.984 . S
H661 N655 0.985 . S
H662 N659 0.984 . S
H663 N659 0.985 . S
H664 N658 0.984 . S
H665 N658 0.984 . S
H666 N654 0.984 . S
H667 N654 0.985 . S
C668 C669 1.363 . S
C668 C674 1.379 . S
C668 N676 1.356 . S
C669 C668 1.363 . S
C669 C675 1.363 . S
C670 C671 1.363 . S
C670 C675 1.379 . S
C670 N677 1.356 . S
C671 C670 1.363 . S
C671 C674 1.363 . S
N672 C674 1.356 . S
N672 H684 0.984 . S
N672 H685 0.985 . S
N673 C675 1.356 . S
N673 H678 0.984 . S
N673 H679 0.985 . S
C674 C668 1.379 . S
C674 C671 1.363 . S
C674 N672 1.356 . S
C675 C669 1.363 . S
C675 C670 1.379 . S
C675 N673 1.356 . S
N676 C668 1.356 . S
N676 H682 0.984 . S
N676 H683 0.984 . S
N677 C670 1.356 . S
N677 H680 0.984 . S
N677 H681 0.985 . S
H678 N673 0.984 . S
H679 N673 0.985 . S
H680 N677 0.984 . S
H681 N677 0.985 . S
H682 N676 0.984 . S
H683 N676 0.984 . S
H684 N672 0.984 . S
H685 N672 0.985 . S
C686 C687 1.363 . S
C686 C692 1.379 . S
C686 N694 1.356 . S
C687 C686 1.363 . S
C687 C693 1.363 . S
C688 C689 1.363 . S
C688 C693 1.379 . S
C688 N695 1.356 . S
C689 C688 1.363 . S
C689 C692 1.363 . S
N690 C692 1.356 . S
N690 H702 0.984 . S
N690 H703 0.985 . S
N691 C693 1.356 . S
N691 H696 0.984 . S
N691 H697 0.985 . S
C692 C686 1.379 . S
C692 C689 1.363 . S
C692 N690 1.356 . S
C693 C687 1.363 . S
C693 C688 1.379 . S
C693 N691 1.356 . S
N694 C686 1.356 . S
N694 H700 0.984 . S
N694 H701 0.984 . S
N695 C688 1.356 . S
N695 H698 0.984 . S
N695 H699 0.985 . S
H696 N691 0.984 . S
H697 N691 0.985 . S
H698 N695 0.984 . S
H699 N695 0.985 . S
H700 N694 0.984 . S
H701 N694 0.984 . S
H702 N690 0.984 . S
H703 N690 0.985 . S
C704 C705 1.363 . S
C704 C710 1.379 . S
C704 N712 1.356 1_565 S
C705 C704 1.363 . S
C705 C711 1.363 . S
C706 C707 1.363 . S
C706 C711 1.379 . S
C706 N713 1.356 . S
C707 C706 1.363 . S
C707 C710 1.363 . S
N708 C710 1.356 . S
N708 H720 0.984 . S
N708 H721 0.985 . S
N709 C711 1.356 . S
N709 H714 0.984 . S
N709 H715 0.985 . S
C710 C704 1.379 . S
C710 C707 1.363 . S
C710 N708 1.356 . S
C711 C705 1.363 . S
C711 C706 1.379 . S
C711 N709 1.356 . S
N712 C704 1.356 1_545 S
N712 H718 0.984 . S
N712 H719 0.984 . S
N713 C706 1.356 . S
N713 H716 0.984 . S
N713 H717 0.985 . S
H714 N709 0.984 . S
H715 N709 0.985 . S
H716 N713 0.984 . S
H717 N713 0.985 . S
H718 N712 0.984 . S
H719 N712 0.984 . S
H720 N708 0.984 . S
H721 N708 0.985 . S
C722 C723 1.363 . S
C722 C728 1.379 . S
C722 N730 1.356 . S
C723 C722 1.363 . S
C723 C729 1.363 . S
C724 C725 1.363 . S
C724 C729 1.379 . S
C724 N731 1.356 . S
C725 C724 1.363 . S
C725 C728 1.363 . S
N726 C728 1.356 1_565 S
N726 H738 0.984 . S
N726 H739 0.985 . S
N727 C729 1.356 . S
N727 H732 0.984 . S
N727 H733 0.985 . S
C728 C722 1.379 . S
C728 C725 1.363 . S
C728 N726 1.356 1_545 S
C729 C723 1.363 . S
C729 C724 1.379 . S
C729 N727 1.356 . S
N730 C722 1.356 . S
N730 H736 0.984 . S
N730 H737 0.984 . S
N731 C724 1.356 . S
N731 H734 0.984 . S
N731 H735 0.985 . S
H732 N727 0.984 . S
H733 N727 0.985 . S
H734 N731 0.984 . S
H735 N731 0.985 . S
H736 N730 0.984 . S
H737 N730 0.984 . S
H738 N726 0.984 . S
H739 N726 0.985 . S
C740 C741 1.356 1_565 S
C740 C746 1.359 1_565 S
C740 N748 1.385 . S
C741 C740 1.356 1_545 S
C741 C747 1.363 . S
C742 C743 1.363 . S
C742 C747 1.379 . S
C742 N749 1.356 . S
C743 C742 1.363 . S
C743 C746 1.363 . S
N744 C746 1.356 . S
N744 H756 0.984 . S
N744 H757 0.985 . S
N745 C747 1.356 . S
N745 H750 0.984 . S
N745 H751 0.985 . S
C746 C740 1.359 1_545 S
C746 C743 1.363 . S
C746 N744 1.356 . S
C747 C741 1.363 . S
C747 C742 1.379 . S
C747 N745 1.356 . S
N748 C740 1.385 . S
N748 H754 0.984 . S
N748 H755 0.984 . S
N749 C742 1.356 . S
N749 H752 0.984 . S
N749 H753 0.985 . S
H750 N745 0.984 . S
H751 N745 0.985 . S
H752 N749 0.984 . S
H753 N749 0.985 . S
H754 N748 0.984 . S
H755 N748 0.984 . S
H756 N744 0.984 . S
H757 N744 0.985 . S
C758 C759 1.368 . S
C758 C764 1.393 . S
C758 N766 1.336 1_565 S
C759 C758 1.368 . S
C759 C765 1.363 . S
C760 C761 1.363 . S
C760 C765 1.379 . S
C760 N767 1.356 . S
C761 C760 1.363 . S
C761 C764 1.363 . S
N762 C764 1.356 . S
N762 H774 0.984 . S
N762 H775 0.985 . S
N763 C765 1.356 . S
N763 H768 0.984 . S
N763 H769 0.985 . S
C764 C758 1.393 . S
C764 C761 1.363 . S
C764 N762 1.356 . S
C765 C759 1.363 . S
C765 C760 1.379 . S
C765 N763 1.356 . S
N766 C758 1.336 1_545 S
N766 H772 0.984 . S
N766 H773 0.984 . S
N767 C760 1.356 . S
N767 H770 0.984 . S
N767 H771 0.985 . S
H768 N763 0.984 . S
H769 N763 0.985 . S
H770 N767 0.984 . S
H771 N767 0.985 . S
H772 N766 0.984 . S
H773 N766 0.984 . S
H774 N762 0.984 . S
H775 N762 0.985 . S
C776 C777 1.363 . S
C776 C782 1.379 . S
C776 N784 1.356 . S
C777 C776 1.363 . S
C777 C783 1.363 . S
C778 C779 1.359 1_565 S
C778 C783 1.368 1_565 S
C778 N785 1.373 . S
C779 C778 1.359 1_545 S
C779 C782 1.363 . S
N780 C782 1.356 . S
N780 H792 0.984 . S
N780 H793 0.985 . S
N781 C783 1.356 . S
N781 H786 0.984 . S
N781 H787 0.985 . S
C782 C776 1.379 . S
C782 C779 1.363 . S
C782 N780 1.356 . S
C783 C777 1.363 . S
C783 C778 1.368 1_545 S
C783 N781 1.356 . S
N784 C776 1.356 . S
N784 H790 0.984 . S
N784 H791 0.984 . S
N785 C778 1.373 . S
N785 H788 0.984 . S
N785 H789 0.985 . S
H786 N781 0.984 . S
H787 N781 0.985 . S
H788 N785 0.984 . S
H789 N785 0.985 . S
H790 N784 0.984 . S
H791 N784 0.984 . S
H792 N780 0.984 . S
H793 N780 0.985 . S
C794 C795 1.363 . S
C794 C800 1.379 . S
C794 N802 1.345 1_565 S
C795 C794 1.363 . S
C795 C801 1.363 . S
C796 C797 1.363 . S
C796 C801 1.379 . S
C796 N803 1.356 . S
C797 C796 1.363 . S
C797 C800 1.363 . S
N798 C800 1.356 . S
N798 H810 0.984 . S
N798 H811 0.985 . S
N799 C801 1.356 . S
N799 H804 0.984 1_565 S
N799 H805 0.985 . S
C800 C794 1.379 . S
C800 C797 1.363 . S
C800 N798 1.356 . S
C801 C795 1.363 . S
C801 C796 1.379 . S
C801 N799 1.356 . S
N802 C794 1.345 1_545 S
N802 H808 0.983 1_545 S
N802 H809 0.998 . S
N803 C796 1.356 . S
N803 H806 0.984 . S
N803 H807 0.985 . S
H804 N799 0.984 1_545 S
H805 N799 0.985 . S
H806 N803 0.984 . S
H807 N803 0.985 . S
H808 N802 0.983 1_565 S
H809 N802 0.998 . S
H810 N798 0.984 . S
H811 N798 0.985 . S
C812 C813 1.363 . S
C812 C818 1.379 . S
C812 N820 1.356 . S
C813 C812 1.363 . S
C813 C819 1.363 . S
C814 C815 1.363 . S
C814 C819 1.379 . S
C814 N821 1.356 1_565 S
C815 C814 1.363 . S
C815 C818 1.363 . S
N816 C818 1.356 . S
N816 H828 0.984 . S
N816 H829 0.985 1_565 S
N817 C819 1.356 . S
N817 H822 0.984 . S
N817 H823 0.985 . S
C818 C812 1.379 . S
C818 C815 1.363 . S
C818 N816 1.356 . S
C819 C813 1.363 . S
C819 C814 1.379 . S
C819 N817 1.356 . S
N820 C812 1.356 . S
N820 H826 0.984 . S
N820 H827 0.984 . S
N821 C814 1.356 1_545 S
N821 H824 0.984 . S
N821 H825 0.985 . S
H822 N817 0.984 . S
H823 N817 0.985 . S
H824 N821 0.984 . S
H825 N821 0.985 . S
H826 N820 0.984 . S
H827 N820 0.984 . S
H828 N816 0.984 . S
H829 N816 0.985 1_545 S
C830 C831 1.363 . S
C830 C836 1.379 . S
C830 N838 1.356 . S
C831 C830 1.363 . S
C831 C837 1.363 . S
C832 C833 1.363 . S
C832 C837 1.379 . S
C832 N839 1.356 . S
C833 C832 1.363 . S
C833 C836 1.363 . S
N834 C836 1.356 1_565 S
N834 H846 0.984 . S
N834 H847 0.985 . S
N835 C837 1.356 . S
N835 H840 0.984 . S
N835 H841 0.985 . S
C836 C830 1.379 . S
C836 C833 1.363 . S
C836 N834 1.356 1_545 S
C837 C831 1.363 . S
C837 C832 1.379 . S
C837 N835 1.356 . S
N838 C830 1.356 . S
N838 H844 0.984 . S
N838 H845 0.984 . S
N839 C832 1.356 . S
N839 H842 0.984 . S
N839 H843 0.985 . S
H840 N835 0.984 . S
H841 N835 0.985 . S
H842 N839 0.984 . S
H843 N839 0.985 . S
H844 N838 0.984 . S
H845 N838 0.984 . S
H846 N834 0.984 . S
H847 N834 0.985 . S
C848 C849 1.363 . S
C848 C854 1.379 . S
C848 N856 1.356 . S
C849 C848 1.363 . S
C849 C855 1.363 . S
C850 C851 1.363 . S
C850 C855 1.379 . S
C850 N857 1.356 . S
C851 C850 1.363 . S
C851 C854 1.363 . S
N852 C854 1.356 . S
N852 H864 0.984 . S
N852 H865 0.985 . S
N853 C855 1.356 . S
N853 H858 0.984 . S
N853 H859 0.985 . S
C854 C848 1.379 . S
C854 C851 1.363 . S
C854 N852 1.356 . S
C855 C849 1.363 . S
C855 C850 1.379 . S
C855 N853 1.356 . S
N856 C848 1.356 . S
N856 H862 0.984 . S
N856 H863 0.984 . S
N857 C850 1.356 . S
N857 H860 0.984 . S
N857 H861 0.985 . S
H858 N853 0.984 . S
H859 N853 0.985 . S
H860 N857 0.984 . S
H861 N857 0.985 . S
H862 N856 0.984 . S
H863 N856 0.984 . S
H864 N852 0.984 . S
H865 N852 0.985 . S
C866 C867 1.363 . S
C866 C872 1.379 . S
C866 N874 1.356 . S
C867 C866 1.363 . S
C867 C873 1.363 . S
C868 C869 1.363 . S
C868 C873 1.379 . S
C868 N875 1.356 . S
C869 C868 1.363 . S
C869 C872 1.363 . S
N870 C872 1.356 . S
N870 H882 0.984 . S
N870 H883 0.985 . S
N871 C873 1.356 . S
N871 H876 0.984 . S
N871 H877 0.985 . S
C872 C866 1.379 . S
C872 C869 1.363 . S
C872 N870 1.356 . S
C873 C867 1.363 . S
C873 C868 1.379 . S
C873 N871 1.356 . S
N874 C866 1.356 . S
N874 H880 0.984 . S
N874 H881 0.984 . S
N875 C868 1.356 . S
N875 H878 0.984 . S
N875 H879 0.985 . S
H876 N871 0.984 . S
H877 N871 0.985 . S
H878 N875 0.984 . S
H879 N875 0.985 . S
H880 N874 0.984 . S
H881 N874 0.984 . S
H882 N870 0.984 . S
H883 N870 0.985 . S
C884 C885 1.363 . S
C884 C890 1.379 . S
C884 N892 1.356 . S
C885 C884 1.363 . S
C885 C891 1.363 . S
C886 C887 1.363 . S
C886 C891 1.379 . S
C886 N893 1.356 . S
C887 C886 1.363 . S
C887 C890 1.363 . S
N888 C890 1.356 . S
N888 H900 0.984 . S
N888 H901 0.985 . S
N889 C891 1.356 . S
N889 H894 0.984 . S
N889 H895 0.985 . S
C890 C884 1.379 . S
C890 C887 1.363 . S
C890 N888 1.356 . S
C891 C885 1.363 . S
C891 C886 1.379 . S
C891 N889 1.356 . S
N892 C884 1.356 . S
N892 H898 0.984 . S
N892 H899 0.984 . S
N893 C886 1.356 . S
N893 H896 0.984 . S
N893 H897 0.985 . S
H894 N889 0.984 . S
H895 N889 0.985 . S
H896 N893 0.984 . S
H897 N893 0.985 . S
H898 N892 0.984 . S
H899 N892 0.984 . S
H900 N888 0.984 . S
H901 N888 0.985 . S
C902 C903 1.363 . S
C902 C908 1.379 . S
C902 N910 1.356 . S
C903 C902 1.363 . S
C903 C909 1.363 . S
C904 C905 1.363 . S
C904 C909 1.379 . S
C904 N911 1.356 . S
C905 C904 1.363 . S
C905 C908 1.363 . S
N906 C908 1.356 . S
N906 H918 0.984 . S
N906 H919 0.985 . S
N907 C909 1.356 . S
N907 H912 0.984 . S
N907 H913 0.985 . S
C908 C902 1.379 . S
C908 C905 1.363 . S
C908 N906 1.356 . S
C909 C903 1.363 . S
C909 C904 1.379 . S
C909 N907 1.356 . S
N910 C902 1.356 . S
N910 H916 0.984 . S
N910 H917 0.984 . S
N911 C904 1.356 . S
N911 H914 0.984 . S
N911 H915 0.985 . S
H912 N907 0.984 . S
H913 N907 0.985 . S
H914 N911 0.984 . S
H915 N911 0.985 . S
H916 N910 0.984 . S
H917 N910 0.984 . S
H918 N906 0.984 . S
H919 N906 0.985 . S
C920 C921 1.363 . S
C920 C926 1.379 . S
C920 N928 1.356 . S
C921 C920 1.363 . S
C921 C927 1.363 . S
C922 C923 1.363 . S
C922 C927 1.379 . S
C922 N929 1.356 . S
C923 C922 1.363 . S
C923 C926 1.363 . S
N924 C926 1.356 . S
N924 H936 0.984 . S
N924 H937 0.985 . S
N925 C927 1.356 . S
N925 H930 0.984 . S
N925 H931 0.985 . S
C926 C920 1.379 . S
C926 C923 1.363 . S
C926 N924 1.356 . S
C927 C921 1.363 . S
C927 C922 1.379 . S
C927 N925 1.356 . S
N928 C920 1.356 . S
N928 H934 0.984 . S
N928 H935 0.984 . S
N929 C922 1.356 . S
N929 H932 0.984 . S
N929 H933 0.985 . S
H930 N925 0.984 . S
H931 N925 0.985 . S
H932 N929 0.984 . S
H933 N929 0.985 . S
H934 N928 0.984 . S
H935 N928 0.984 . S
H936 N924 0.984 . S
H937 N924 0.985 . S
C938 C939 1.363 . S
C938 C944 1.379 . S
C938 N946 1.356 . S
C939 C938 1.363 . S
C939 C945 1.363 . S
C940 C941 1.363 . S
C940 C945 1.379 . S
C940 N947 1.356 . S
C941 C940 1.363 . S
C941 C944 1.363 . S
N942 C944 1.356 . S
N942 H954 0.984 . S
N942 H955 0.985 . S
N943 C945 1.356 . S
N943 H948 0.984 . S
N943 H949 0.985 . S
C944 C938 1.379 . S
C944 C941 1.363 . S
C944 N942 1.356 . S
C945 C939 1.363 . S
C945 C940 1.379 . S
C945 N943 1.356 . S
N946 C938 1.356 . S
N946 H952 0.984 . S
N946 H953 0.984 . S
N947 C940 1.356 . S
N947 H950 0.984 . S
N947 H951 0.985 . S
H948 N943 0.984 . S
H949 N943 0.985 . S
H950 N947 0.984 . S
H951 N947 0.985 . S
H952 N946 0.984 . S
H953 N946 0.984 . S
H954 N942 0.984 . S
H955 N942 0.985 . S
C956 C957 1.363 . S
C956 C962 1.379 . S
C956 N964 1.356 . S
C957 C956 1.363 . S
C957 C963 1.363 . S
C958 C959 1.363 . S
C958 C963 1.379 . S
C958 N965 1.356 . S
C959 C958 1.363 . S
C959 C962 1.363 . S
N960 C962 1.356 . S
N960 H972 0.984 . S
N960 H973 0.985 . S
N961 C963 1.356 . S
N961 H966 0.984 . S
N961 H967 0.985 . S
C962 C956 1.379 . S
C962 C959 1.363 . S
C962 N960 1.356 . S
C963 C957 1.363 . S
C963 C958 1.379 . S
C963 N961 1.356 . S
N964 C956 1.356 . S
N964 H970 0.984 . S
N964 H971 0.984 . S
N965 C958 1.356 . S
N965 H968 0.984 . S
N965 H969 0.985 . S
H966 N961 0.984 . S
H967 N961 0.985 . S
H968 N965 0.984 . S
H969 N965 0.985 . S
H970 N964 0.984 . S
H971 N964 0.984 . S
H972 N960 0.984 . S
H973 N960 0.985 . S
C974 C975 1.363 . S
C974 C980 1.379 . S
C974 N982 1.356 . S
C975 C974 1.363 . S
C975 C981 1.363 . S
C976 C977 1.363 . S
C976 C981 1.379 . S
C976 N983 1.356 . S
C977 C976 1.363 . S
C977 C980 1.363 . S
N978 C980 1.356 . S
N978 H990 0.984 . S
N978 H991 0.985 . S
N979 C981 1.356 . S
N979 H984 0.984 . S
N979 H985 0.985 . S
C980 C974 1.379 . S
C980 C977 1.363 . S
C980 N978 1.356 . S
C981 C975 1.363 . S
C981 C976 1.379 . S
C981 N979 1.356 . S
N982 C974 1.356 . S
N982 H988 0.984 . S
N982 H989 0.984 . S
N983 C976 1.356 . S
N983 H986 0.984 . S
N983 H987 0.985 . S
H984 N979 0.984 . S
H985 N979 0.985 . S
H986 N983 0.984 . S
H987 N983 0.985 . S
H988 N982 0.984 . S
H989 N982 0.984 . S
H990 N978 0.984 . S
H991 N978 0.985 . S
C992 C993 1.363 . S
C992 C998 1.379 . S
C992 N1000 1.356 . S
C993 C992 1.363 . S
C993 C999 1.363 . S
C994 C995 1.363 . S
C994 C999 1.379 . S
C994 N1001 1.356 . S
C995 C994 1.363 . S
C995 C998 1.363 . S
N996 C998 1.356 . S
N996 H1008 0.984 . S
N996 H1009 0.985 . S
N997 C999 1.356 . S
N997 H1002 0.984 . S
N997 H1003 0.985 . S
C998 C992 1.379 . S
C998 C995 1.363 . S
C998 N996 1.356 . S
C999 C993 1.363 . S
C999 C994 1.379 . S
C999 N997 1.356 . S
N1000 C992 1.356 . S
N1000 H1006 0.984 . S
N1000 H1007 0.984 . S
N1001 C994 1.356 . S
N1001 H1004 0.984 . S
N1001 H1005 0.985 . S
H1002 N997 0.984 . S
H1003 N997 0.985 . S
H1004 N1001 0.984 . S
H1005 N1001 0.985 . S
H1006 N1000 0.984 . S
H1007 N1000 0.984 . S
H1008 N996 0.984 . S
H1009 N996 0.985 . S
C1010 C1011 1.363 . S
C1010 C1016 1.379 . S
C1010 N1018 1.356 . S
C1011 C1010 1.363 . S
C1011 C1017 1.363 . S
C1012 C1013 1.363 . S
C1012 C1017 1.379 . S
C1012 N1019 1.356 1_455 S
C1013 C1012 1.363 . S
C1013 C1016 1.363 . S
N1014 C1016 1.356 . S
N1014 H1026 0.984 . S
N1014 H1027 0.985 1_455 S
N1015 C1017 1.356 . S
N1015 H1020 0.984 . S
N1015 H1021 0.985 . S
C1016 C1010 1.379 . S
C1016 C1013 1.363 . S
C1016 N1014 1.356 . S
C1017 C1011 1.363 . S
C1017 C1012 1.379 . S
C1017 N1015 1.356 . S
N1018 C1010 1.356 . S
N1018 H1024 0.984 . S
N1018 H1025 0.984 . S
N1019 C1012 1.356 1_655 S
N1019 H1022 0.984 . S
N1019 H1023 0.985 . S
H1020 N1015 0.984 . S
H1021 N1015 0.985 . S
H1022 N1019 0.984 . S
H1023 N1019 0.985 . S
H1024 N1018 0.984 . S
H1025 N1018 0.984 . S
H1026 N1014 0.984 . S
H1027 N1014 0.985 1_655 S
C1028 C1029 1.363 . S
C1028 C1034 1.379 . S
C1028 N1036 1.356 . S
C1029 C1028 1.363 . S
C1029 C1035 1.363 . S
C1030 C1031 1.363 . S
C1030 C1035 1.379 . S
C1030 N1037 1.356 . S
C1031 C1030 1.363 . S
C1031 C1034 1.363 . S
N1032 C1034 1.356 . S
N1032 H1044 0.984 . S
N1032 H1045 0.985 . S
N1033 C1035 1.356 . S
N1033 H1038 0.984 . S
N1033 H1039 0.985 . S
C1034 C1028 1.379 . S
C1034 C1031 1.363 . S
C1034 N1032 1.356 . S
C1035 C1029 1.363 . S
C1035 C1030 1.379 . S
C1035 N1033 1.356 . S
N1036 C1028 1.356 . S
N1036 H1042 0.984 . S
N1036 H1043 0.984 . S
N1037 C1030 1.356 . S
N1037 H1040 0.984 . S
N1037 H1041 0.985 . S
H1038 N1033 0.984 . S
H1039 N1033 0.985 . S
H1040 N1037 0.984 . S
H1041 N1037 0.985 . S
H1042 N1036 0.984 . S
H1043 N1036 0.984 . S
H1044 N1032 0.984 . S
H1045 N1032 0.985 . S
C1046 C1047 1.363 . S
C1046 C1052 1.379 . S
C1046 N1054 1.356 . S
C1047 C1046 1.363 . S
C1047 C1053 1.363 . S
C1048 C1049 1.363 . S
C1048 C1053 1.379 . S
C1048 N1055 1.356 . S
C1049 C1048 1.363 . S
C1049 C1052 1.363 . S
N1050 C1052 1.356 . S
N1050 H1062 0.984 . S
N1050 H1063 0.985 . S
N1051 C1053 1.356 . S
N1051 H1056 0.984 . S
N1051 H1057 0.985 . S
C1052 C1046 1.379 . S
C1052 C1049 1.363 . S
C1052 N1050 1.356 . S
C1053 C1047 1.363 . S
C1053 C1048 1.379 . S
C1053 N1051 1.356 . S
N1054 C1046 1.356 . S
N1054 H1060 0.984 . S
N1054 H1061 0.984 . S
N1055 C1048 1.356 . S
N1055 H1058 0.984 . S
N1055 H1059 0.985 . S
H1056 N1051 0.984 . S
H1057 N1051 0.985 . S
H1058 N1055 0.984 . S
H1059 N1055 0.985 . S
H1060 N1054 0.984 . S
H1061 N1054 0.984 . S
H1062 N1050 0.984 . S
H1063 N1050 0.985 . S
C1064 C1065 1.363 . S
C1064 C1070 1.379 . S
C1064 N1072 1.356 . S
C1065 C1064 1.363 . S
C1065 C1071 1.363 . S
C1066 C1067 1.363 . S
C1066 C1071 1.379 . S
C1066 N1073 1.356 . S
C1067 C1066 1.363 . S
C1067 C1070 1.363 . S
N1068 C1070 1.356 . S
N1068 H1080 0.984 . S
N1068 H1081 0.985 . S
N1069 C1071 1.356 . S
N1069 H1074 0.984 . S
N1069 H1075 0.985 . S
C1070 C1064 1.379 . S
C1070 C1067 1.363 . S
C1070 N1068 1.356 . S
C1071 C1065 1.363 . S
C1071 C1066 1.379 . S
C1071 N1069 1.356 . S
N1072 C1064 1.356 . S
N1072 H1078 0.984 . S
N1072 H1079 0.984 . S
N1073 C1066 1.356 . S
N1073 H1076 0.984 . S
N1073 H1077 0.985 . S
H1074 N1069 0.984 . S
H1075 N1069 0.985 . S
H1076 N1073 0.984 . S
H1077 N1073 0.985 . S
H1078 N1072 0.984 . S
H1079 N1072 0.984 . S
H1080 N1068 0.984 . S
H1081 N1068 0.985 . S
C1082 C1083 1.363 . S
C1082 C1088 1.379 . S
C1082 N1090 1.356 . S
C1083 C1082 1.363 . S
C1083 C1089 1.363 . S
C1084 C1085 1.363 . S
C1084 C1089 1.379 . S
C1084 N1091 1.356 . S
C1085 C1084 1.363 . S
C1085 C1088 1.363 . S
N1086 C1088 1.356 . S
N1086 H1098 0.984 . S
N1086 H1099 0.985 . S
N1087 C1089 1.356 . S
N1087 H1092 0.984 . S
N1087 H1093 0.985 . S
C1088 C1082 1.379 . S
C1088 C1085 1.363 . S
C1088 N1086 1.356 . S
C1089 C1083 1.363 . S
C1089 C1084 1.379 . S
C1089 N1087 1.356 . S
N1090 C1082 1.356 . S
N1090 H1096 0.984 . S
N1090 H1097 0.984 . S
N1091 C1084 1.356 . S
N1091 H1094 0.984 . S
N1091 H1095 0.985 . S
H1092 N1087 0.984 . S
H1093 N1087 0.985 . S
H1094 N1091 0.984 . S
H1095 N1091 0.985 . S
H1096 N1090 0.984 . S
H1097 N1090 0.984 . S
H1098 N1086 0.984 . S
H1099 N1086 0.985 . S
C1100 C1101 1.363 . S
C1100 C1106 1.379 . S
C1100 N1108 1.356 . S
C1101 C1100 1.363 . S
C1101 C1107 1.363 . S
C1102 C1103 1.363 . S
C1102 C1107 1.379 . S
C1102 N1109 1.356 . S
C1103 C1102 1.363 . S
C1103 C1106 1.363 . S
N1104 C1106 1.356 . S
N1104 H1116 0.984 . S
N1104 H1117 0.985 . S
N1105 C1107 1.356 . S
N1105 H1110 0.984 . S
N1105 H1111 0.985 . S
C1106 C1100 1.379 . S
C1106 C1103 1.363 . S
C1106 N1104 1.356 . S
C1107 C1101 1.363 . S
C1107 C1102 1.379 . S
C1107 N1105 1.356 . S
N1108 C1100 1.356 . S
N1108 H1114 0.984 . S
N1108 H1115 0.984 . S
N1109 C1102 1.356 . S
N1109 H1112 0.984 . S
N1109 H1113 0.985 . S
H1110 N1105 0.984 . S
H1111 N1105 0.985 . S
H1112 N1109 0.984 . S
H1113 N1109 0.985 . S
H1114 N1108 0.984 . S
H1115 N1108 0.984 . S
H1116 N1104 0.984 . S
H1117 N1104 0.985 . S
C1118 C1119 1.363 . S
C1118 C1124 1.379 . S
C1118 N1126 1.356 . S
C1119 C1118 1.363 . S
C1119 C1125 1.363 . S
C1120 C1121 1.363 . S
C1120 C1125 1.379 . S
C1120 N1127 1.356 1_455 S
C1121 C1120 1.363 . S
C1121 C1124 1.363 . S
N1122 C1124 1.356 . S
N1122 H1134 0.984 . S
N1122 H1135 0.985 1_455 S
N1123 C1125 1.356 . S
N1123 H1128 0.984 . S
N1123 H1129 0.985 . S
C1124 C1118 1.379 . S
C1124 C1121 1.363 . S
C1124 N1122 1.356 . S
C1125 C1119 1.363 . S
C1125 C1120 1.379 . S
C1125 N1123 1.356 . S
N1126 C1118 1.356 . S
N1126 H1132 0.984 . S
N1126 H1133 0.984 . S
N1127 C1120 1.356 1_655 S
N1127 H1130 0.984 . S
N1127 H1131 0.985 . S
H1128 N1123 0.984 . S
H1129 N1123 0.985 . S
H1130 N1127 0.984 . S
H1131 N1127 0.985 . S
H1132 N1126 0.984 . S
H1133 N1126 0.984 . S
H1134 N1122 0.984 . S
H1135 N1122 0.985 1_655 S
C1136 C1137 1.363 . S
C1136 C1142 1.379 . S
C1136 N1144 1.356 . S
C1137 C1136 1.363 . S
C1137 C1143 1.363 . S
C1138 C1139 1.363 . S
C1138 C1143 1.379 . S
C1138 N1145 1.356 . S
C1139 C1138 1.363 . S
C1139 C1142 1.363 . S
N1140 C1142 1.356 . S
N1140 H1152 0.984 . S
N1140 H1153 0.985 . S
N1141 C1143 1.356 . S
N1141 H1146 0.984 . S
N1141 H1147 0.985 . S
C1142 C1136 1.379 . S
C1142 C1139 1.363 . S
C1142 N1140 1.356 . S
C1143 C1137 1.363 . S
C1143 C1138 1.379 . S
C1143 N1141 1.356 . S
N1144 C1136 1.356 . S
N1144 H1150 0.984 . S
N1144 H1151 0.984 . S
N1145 C1138 1.356 . S
N1145 H1148 0.984 . S
N1145 H1149 0.985 . S
H1146 N1141 0.984 . S
H1147 N1141 0.985 . S
H1148 N1145 0.984 . S
H1149 N1145 0.985 . S
H1150 N1144 0.984 . S
H1151 N1144 0.984 . S
H1152 N1140 0.984 . S
H1153 N1140 0.985 . S
C1154 C1155 1.363 . S
C1154 C1160 1.379 . S
C1154 N1162 1.356 . S
C1155 C1154 1.363 . S
C1155 C1161 1.363 . S
C1156 C1157 1.363 . S
C1156 C1161 1.379 . S
C1156 N1163 1.356 . S
C1157 C1156 1.363 . S
C1157 C1160 1.363 . S
N1158 C1160 1.356 . S
N1158 H1170 0.984 . S
N1158 H1171 0.985 . S
N1159 C1161 1.356 1_455 S
N1159 H1164 0.984 . S
N1159 H1165 0.985 . S
C1160 C1154 1.379 . S
C1160 C1157 1.363 . S
C1160 N1158 1.356 . S
C1161 C1155 1.363 . S
C1161 C1156 1.379 . S
C1161 N1159 1.356 1_655 S
N1162 C1154 1.356 . S
N1162 H1168 0.984 . S
N1162 H1169 0.984 1_655 S
N1163 C1156 1.356 . S
N1163 H1166 0.984 . S
N1163 H1167 0.985 . S
H1164 N1159 0.984 . S
H1165 N1159 0.985 . S
H1166 N1163 0.984 . S
H1167 N1163 0.985 . S
H1168 N1162 0.984 . S
H1169 N1162 0.984 1_455 S
H1170 N1158 0.984 . S
H1171 N1158 0.985 . S
C1172 C1173 1.363 . S
C1172 C1178 1.379 . S
C1172 N1180 1.356 . S
C1173 C1172 1.363 . S
C1173 C1179 1.363 . S
C1174 C1175 1.363 . S
C1174 C1179 1.379 . S
C1174 N1181 1.356 . S
C1175 C1174 1.363 . S
C1175 C1178 1.363 . S
N1176 C1178 1.356 . S
N1176 H1188 0.984 . S
N1176 H1189 0.985 . S
N1177 C1179 1.356 . S
N1177 H1182 0.984 . S
N1177 H1183 0.985 . S
C1178 C1172 1.379 . S
C1178 C1175 1.363 . S
C1178 N1176 1.356 . S
C1179 C1173 1.363 . S
C1179 C1174 1.379 . S
C1179 N1177 1.356 . S
N1180 C1172 1.356 . S
N1180 H1186 0.984 . S
N1180 H1187 0.984 . S
N1181 C1174 1.356 . S
N1181 H1184 0.984 . S
N1181 H1185 0.985 . S
H1182 N1177 0.984 . S
H1183 N1177 0.985 . S
H1184 N1181 0.984 . S
H1185 N1181 0.985 . S
H1186 N1180 0.984 . S
H1187 N1180 0.984 . S
H1188 N1176 0.984 . S
H1189 N1176 0.985 . S
C1190 C1191 1.363 . S
C1190 C1196 1.379 . S
C1190 N1198 1.356 . S
C1191 C1190 1.363 . S
C1191 C1197 1.363 . S
C1192 C1193 1.363 . S
C1192 C1197 1.379 . S
C1192 N1199 1.356 . S
C1193 C1192 1.363 . S
C1193 C1196 1.363 . S
N1194 C1196 1.356 . S
N1194 H1206 0.984 . S
N1194 H1207 0.985 . S
N1195 C1197 1.356 . S
N1195 H1200 0.984 . S
N1195 H1201 0.985 . S
C1196 C1190 1.379 . S
C1196 C1193 1.363 . S
C1196 N1194 1.356 . S
C1197 C1191 1.363 . S
C1197 C1192 1.379 . S
C1197 N1195 1.356 . S
N1198 C1190 1.356 . S
N1198 H1204 0.984 . S
N1198 H1205 0.984 . S
N1199 C1192 1.356 . S
N1199 H1202 0.984 . S
N1199 H1203 0.985 . S
H1200 N1195 0.984 . S
H1201 N1195 0.985 . S
H1202 N1199 0.984 . S
H1203 N1199 0.985 . S
H1204 N1198 0.984 . S
H1205 N1198 0.984 . S
H1206 N1194 0.984 . S
H1207 N1194 0.985 . S
C1208 C1209 1.363 . S
C1208 C1214 1.379 . S
C1208 N1216 1.356 . S
C1209 C1208 1.363 . S
C1209 C1215 1.363 . S
C1210 C1211 1.363 . S
C1210 C1215 1.379 . S
C1210 N1217 1.356 . S
C1211 C1210 1.363 . S
C1211 C1214 1.363 . S
N1212 C1214 1.356 . S
N1212 H1224 0.984 . S
N1212 H1225 0.985 . S
N1213 C1215 1.356 . S
N1213 H1218 0.984 . S
N1213 H1219 0.985 . S
C1214 C1208 1.379 . S
C1214 C1211 1.363 . S
C1214 N1212 1.356 . S
C1215 C1209 1.363 . S
C1215 C1210 1.379 . S
C1215 N1213 1.356 . S
N1216 C1208 1.356 . S
N1216 H1222 0.984 . S
N1216 H1223 0.984 . S
N1217 C1210 1.356 . S
N1217 H1220 0.984 . S
N1217 H1221 0.985 . S
H1218 N1213 0.984 . S
H1219 N1213 0.985 . S
H1220 N1217 0.984 . S
H1221 N1217 0.985 . S
H1222 N1216 0.984 . S
H1223 N1216 0.984 . S
H1224 N1212 0.984 . S
H1225 N1212 0.985 . S
C1226 C1227 1.363 . S
C1226 C1232 1.379 . S
C1226 N1234 1.356 . S
C1227 C1226 1.363 . S
C1227 C1233 1.363 . S
C1228 C1229 1.363 . S
C1228 C1233 1.379 . S
C1228 N1235 1.356 . S
C1229 C1228 1.363 . S
C1229 C1232 1.363 . S
N1230 C1232 1.356 . S
N1230 H1242 0.984 . S
N1230 H1243 0.985 . S
N1231 C1233 1.356 . S
N1231 H1236 0.984 . S
N1231 H1237 0.985 . S
C1232 C1226 1.379 . S
C1232 C1229 1.363 . S
C1232 N1230 1.356 . S
C1233 C1227 1.363 . S
C1233 C1228 1.379 . S
C1233 N1231 1.356 . S
N1234 C1226 1.356 . S
N1234 H1240 0.984 . S
N1234 H1241 0.984 . S
N1235 C1228 1.356 . S
N1235 H1238 0.984 . S
N1235 H1239 0.985 . S
H1236 N1231 0.984 . S
H1237 N1231 0.985 . S
H1238 N1235 0.984 . S
H1239 N1235 0.985 . S
H1240 N1234 0.984 . S
H1241 N1234 0.984 . S
H1242 N1230 0.984 . S
H1243 N1230 0.985 . S
C1244 C1245 1.363 . S
C1244 C1250 1.379 . S
C1244 N1252 1.356 . S
C1245 C1244 1.363 . S
C1245 C1251 1.363 . S
C1246 C1247 1.363 . S
C1246 C1251 1.379 . S
C1246 N1253 1.356 . S
C1247 C1246 1.363 . S
C1247 C1250 1.363 . S
N1248 C1250 1.356 . S
N1248 H1260 0.984 . S
N1248 H1261 0.985 . S
N1249 C1251 1.356 . S
N1249 H1254 0.984 . S
N1249 H1255 0.985 . S
C1250 C1244 1.379 . S
C1250 C1247 1.363 . S
C1250 N1248 1.356 . S
C1251 C1245 1.363 . S
C1251 C1246 1.379 . S
C1251 N1249 1.356 . S
N1252 C1244 1.356 . S
N1252 H1258 0.984 . S
N1252 H1259 0.984 . S
N1253 C1246 1.356 . S
N1253 H1256 0.984 . S
N1253 H1257 0.985 . S
H1254 N1249 0.984 . S
H1255 N1249 0.985 . S
H1256 N1253 0.984 . S
H1257 N1253 0.985 . S
H1258 N1252 0.984 . S
H1259 N1252 0.984 . S
H1260 N1248 0.984 . S
H1261 N1248 0.985 . S
C1262 C1263 1.363 . S
C1262 C1268 1.379 . S
C1262 N1270 1.356 . S
C1263 C1262 1.363 . S
C1263 C1269 1.363 . S
C1264 C1265 1.363 . S
C1264 C1269 1.379 . S
C1264 N1271 1.356 . S
C1265 C1264 1.363 . S
C1265 C1268 1.363 . S
N1266 C1268 1.356 . S
N1266 H1278 0.984 . S
N1266 H1279 0.985 . S
N1267 C1269 1.356 1_455 S
N1267 H1272 0.984 . S
N1267 H1273 0.985 . S
C1268 C1262 1.379 . S
C1268 C1265 1.363 . S
C1268 N1266 1.356 . S
C1269 C1263 1.363 . S
C1269 C1264 1.379 . S
C1269 N1267 1.356 1_655 S
N1270 C1262 1.356 . S
N1270 H1276 0.984 . S
N1270 H1277 0.984 1_655 S
N1271 C1264 1.356 . S
N1271 H1274 0.984 . S
N1271 H1275 0.985 . S
H1272 N1267 0.984 . S
H1273 N1267 0.985 . S
H1274 N1271 0.984 . S
H1275 N1271 0.985 . S
H1276 N1270 0.984 . S
H1277 N1270 0.984 1_455 S
H1278 N1266 0.984 . S
H1279 N1266 0.985 . S
C1280 C1281 1.363 . S
C1280 C1286 1.379 . S
C1280 N1288 1.356 . S
C1281 C1280 1.363 . S
C1281 C1287 1.363 . S
C1282 C1283 1.363 . S
C1282 C1287 1.379 . S
C1282 N1289 1.356 . S
C1283 C1282 1.363 . S
C1283 C1286 1.363 . S
N1284 C1286 1.356 . S
N1284 H1296 0.984 . S
N1284 H1297 0.985 . S
N1285 C1287 1.356 . S
N1285 H1290 0.984 . S
N1285 H1291 0.985 . S
C1286 C1280 1.379 . S
C1286 C1283 1.363 . S
C1286 N1284 1.356 . S
C1287 C1281 1.363 . S
C1287 C1282 1.379 . S
C1287 N1285 1.356 . S
N1288 C1280 1.356 . S
N1288 H1294 0.984 . S
N1288 H1295 0.984 . S
N1289 C1282 1.356 . S
N1289 H1292 0.984 . S
N1289 H1293 0.985 . S
H1290 N1285 0.984 . S
H1291 N1285 0.985 . S
H1292 N1289 0.984 . S
H1293 N1289 0.985 . S
H1294 N1288 0.984 . S
H1295 N1288 0.984 . S
H1296 N1284 0.984 . S
H1297 N1284 0.985 . S
C1298 C1299 1.363 . S
C1298 C1304 1.379 . S
C1298 N1306 1.356 . S
C1299 C1298 1.363 . S
C1299 C1305 1.363 . S
C1300 C1301 1.363 . S
C1300 C1305 1.379 . S
C1300 N1307 1.356 . S
C1301 C1300 1.363 . S
C1301 C1304 1.363 . S
N1302 C1304 1.356 . S
N1302 H1314 0.984 . S
N1302 H1315 0.985 . S
N1303 C1305 1.356 . S
N1303 H1308 0.984 . S
N1303 H1309 0.985 . S
C1304 C1298 1.379 . S
C1304 C1301 1.363 . S
C1304 N1302 1.356 . S
C1305 C1299 1.363 . S
C1305 C1300 1.379 . S
C1305 N1303 1.356 . S
N1306 C1298 1.356 . S
N1306 H1312 0.984 . S
N1306 H1313 0.984 . S
N1307 C1300 1.356 . S
N1307 H1310 0.984 . S
N1307 H1311 0.985 . S
H1308 N1303 0.984 . S
H1309 N1303 0.985 . S
H1310 N1307 0.984 . S
H1311 N1307 0.985 . S
H1312 N1306 0.984 . S
H1313 N1306 0.984 . S
H1314 N1302 0.984 . S
H1315 N1302 0.985 . S
C1316 C1317 1.363 . S
C1316 C1322 1.379 . S
C1316 N1324 1.356 . S
C1317 C1316 1.363 . S
C1317 C1323 1.363 . S
C1318 C1319 1.363 . S
C1318 C1323 1.379 . S
C1318 N1325 1.356 . S
C1319 C1318 1.363 . S
C1319 C1322 1.363 . S
N1320 C1322 1.356 . S
N1320 H1332 0.984 . S
N1320 H1333 0.985 . S
N1321 C1323 1.356 . S
N1321 H1326 0.984 . S
N1321 H1327 0.985 . S
C1322 C1316 1.379 . S
C1322 C1319 1.363 . S
C1322 N1320 1.356 . S
C1323 C1317 1.363 . S
C1323 C1318 1.379 . S
C1323 N1321 1.356 . S
N1324 C1316 1.356 . S
N1324 H1330 0.984 . S
N1324 H1331 0.984 . S
N1325 C1318 1.356 . S
N1325 H1328 0.984 . S
N1325 H1329 0.985 . S
H1326 N1321 0.984 . S
H1327 N1321 0.985 . S
H1328 N1325 0.984 . S
H1329 N1325 0.985 . S
H1330 N1324 0.984 . S
H1331 N1324 0.984 . S
H1332 N1320 0.984 . S
H1333 N1320 0.985 . S
C1334 C1335 1.363 . S
C1334 C1340 1.379 . S
C1334 N1342 1.356 . S
C1335 C1334 1.363 . S
C1335 C1341 1.363 . S
C1336 C1337 1.363 . S
C1336 C1341 1.379 . S
C1336 N1343 1.356 . S
C1337 C1336 1.363 . S
C1337 C1340 1.363 . S
N1338 C1340 1.356 1_455 S
N1338 H1350 0.984 . S
N1338 H1351 0.985 . S
N1339 C1341 1.356 . S
N1339 H1344 0.984 . S
N1339 H1345 0.985 . S
C1340 C1334 1.379 . S
C1340 C1337 1.363 . S
C1340 N1338 1.356 1_655 S
C1341 C1335 1.363 . S
C1341 C1336 1.379 . S
C1341 N1339 1.356 . S
N1342 C1334 1.356 . S
N1342 H1348 0.984 . S
N1342 H1349 0.984 . S
N1343 C1336 1.356 . S
N1343 H1346 0.984 1_655 S
N1343 H1347 0.985 . S
H1344 N1339 0.984 . S
H1345 N1339 0.985 . S
H1346 N1343 0.984 1_455 S
H1347 N1343 0.985 . S
H1348 N1342 0.984 . S
H1349 N1342 0.984 . S
H1350 N1338 0.984 . S
H1351 N1338 0.985 . S
C1352 C1353 1.363 . S
C1352 C1358 1.379 . S
C1352 N1360 1.356 . S
C1353 C1352 1.363 . S
C1353 C1359 1.363 . S
C1354 C1355 1.363 . S
C1354 C1359 1.379 . S
C1354 N1361 1.356 . S
C1355 C1354 1.363 . S
C1355 C1358 1.363 . S
N1356 C1358 1.356 . S
N1356 H1368 0.984 . S
N1356 H1369 0.985 . S
N1357 C1359 1.356 . S
N1357 H1362 0.984 . S
N1357 H1363 0.985 . S
C1358 C1352 1.379 . S
C1358 C1355 1.363 . S
C1358 N1356 1.356 . S
C1359 C1353 1.363 . S
C1359 C1354 1.379 . S
C1359 N1357 1.356 . S
N1360 C1352 1.356 . S
N1360 H1366 0.984 . S
N1360 H1367 0.984 . S
N1361 C1354 1.356 . S
N1361 H1364 0.984 . S
N1361 H1365 0.985 . S
H1362 N1357 0.984 . S
H1363 N1357 0.985 . S
H1364 N1361 0.984 . S
H1365 N1361 0.985 . S
H1366 N1360 0.984 . S
H1367 N1360 0.984 . S
H1368 N1356 0.984 . S
H1369 N1356 0.985 . S
C1370 C1371 1.363 . S
C1370 C1376 1.379 . S
C1370 N1378 1.356 1_655 S
C1371 C1370 1.363 . S
C1371 C1377 1.363 . S
C1372 C1373 1.363 . S
C1372 C1377 1.379 . S
C1372 N1379 1.356 . S
C1373 C1372 1.363 . S
C1373 C1376 1.363 . S
N1374 C1376 1.356 . S
N1374 H1386 0.984 . S
N1374 H1387 0.985 . S
N1375 C1377 1.356 . S
N1375 H1380 0.984 1_655 S
N1375 H1381 0.985 . S
C1376 C1370 1.379 . S
C1376 C1373 1.363 . S
C1376 N1374 1.356 . S
C1377 C1371 1.363 . S
C1377 C1372 1.379 . S
C1377 N1375 1.356 . S
N1378 C1370 1.356 1_455 S
N1378 H1384 0.984 . S
N1378 H1385 0.984 . S
N1379 C1372 1.356 . S
N1379 H1382 0.984 . S
N1379 H1383 0.985 . S
H1380 N1375 0.984 1_455 S
H1381 N1375 0.985 . S
H1382 N1379 0.984 . S
H1383 N1379 0.985 . S
H1384 N1378 0.984 . S
H1385 N1378 0.984 . S
H1386 N1374 0.984 . S
H1387 N1374 0.985 . S
C1388 C1389 1.363 . S
C1388 C1394 1.379 . S
C1388 N1396 1.356 . S
C1389 C1388 1.363 . S
C1389 C1395 1.363 . S
C1390 C1391 1.363 . S
C1390 C1395 1.379 . S
C1390 N1397 1.356 . S
C1391 C1390 1.363 . S
C1391 C1394 1.363 . S
N1392 C1394 1.356 . S
N1392 H1404 0.984 . S
N1392 H1405 0.985 . S
N1393 C1395 1.356 . S
N1393 H1398 0.984 . S
N1393 H1399 0.985 . S
C1394 C1388 1.379 . S
C1394 C1391 1.363 . S
C1394 N1392 1.356 . S
C1395 C1389 1.363 . S
C1395 C1390 1.379 . S
C1395 N1393 1.356 . S
N1396 C1388 1.356 . S
N1396 H1402 0.984 . S
N1396 H1403 0.984 . S
N1397 C1390 1.356 . S
N1397 H1400 0.984 . S
N1397 H1401 0.985 . S
H1398 N1393 0.984 . S
H1399 N1393 0.985 . S
H1400 N1397 0.984 . S
H1401 N1397 0.985 . S
H1402 N1396 0.984 . S
H1403 N1396 0.984 . S
H1404 N1392 0.984 . S
H1405 N1392 0.985 . S
C1406 C1407 1.363 . S
C1406 C1412 1.379 . S
C1406 N1414 1.356 . S
C1407 C1406 1.363 . S
C1407 C1413 1.363 . S
C1408 C1409 1.363 . S
C1408 C1413 1.379 . S
C1408 N1415 1.356 . S
C1409 C1408 1.363 . S
C1409 C1412 1.363 . S
N1410 C1412 1.356 . S
N1410 H1422 0.984 . S
N1410 H1423 0.985 . S
N1411 C1413 1.356 . S
N1411 H1416 0.984 . S
N1411 H1417 0.985 . S
C1412 C1406 1.379 . S
C1412 C1409 1.363 . S
C1412 N1410 1.356 . S
C1413 C1407 1.363 . S
C1413 C1408 1.379 . S
C1413 N1411 1.356 . S
N1414 C1406 1.356 . S
N1414 H1420 0.984 . S
N1414 H1421 0.984 . S
N1415 C1408 1.356 . S
N1415 H1418 0.984 . S
N1415 H1419 0.985 . S
H1416 N1411 0.984 . S
H1417 N1411 0.985 . S
H1418 N1415 0.984 . S
H1419 N1415 0.985 . S
H1420 N1414 0.984 . S
H1421 N1414 0.984 . S
H1422 N1410 0.984 . S
H1423 N1410 0.985 . S
C1424 C1425 1.363 . S
C1424 C1430 1.379 . S
C1424 N1432 1.356 . S
C1425 C1424 1.363 . S
C1425 C1431 1.363 . S
C1426 C1427 1.363 . S
C1426 C1431 1.379 . S
C1426 N1433 1.356 . S
C1427 C1426 1.363 . S
C1427 C1430 1.363 . S
N1428 C1430 1.356 . S
N1428 H1440 0.984 . S
N1428 H1441 0.985 . S
N1429 C1431 1.356 . S
N1429 H1434 0.984 . S
N1429 H1435 0.985 . S
C1430 C1424 1.379 . S
C1430 C1427 1.363 . S
C1430 N1428 1.356 . S
C1431 C1425 1.363 . S
C1431 C1426 1.379 . S
C1431 N1429 1.356 . S
N1432 C1424 1.356 . S
N1432 H1438 0.984 . S
N1432 H1439 0.984 . S
N1433 C1426 1.356 . S
N1433 H1436 0.984 . S
N1433 H1437 0.985 . S
H1434 N1429 0.984 . S
H1435 N1429 0.985 . S
H1436 N1433 0.984 . S
H1437 N1433 0.985 . S
H1438 N1432 0.984 . S
H1439 N1432 0.984 . S
H1440 N1428 0.984 . S
H1441 N1428 0.985 . S
C1442 C1443 1.363 . S
C1442 C1448 1.379 . S
C1442 N1450 1.356 . S
C1443 C1442 1.363 . S
C1443 C1449 1.363 . S
C1444 C1445 1.363 . S
C1444 C1449 1.379 . S
C1444 N1451 1.356 . S
C1445 C1444 1.363 . S
C1445 C1448 1.363 . S
N1446 C1448 1.356 . S
N1446 H1458 0.984 . S
N1446 H1459 0.985 . S
N1447 C1449 1.356 . S
N1447 H1452 0.984 . S
N1447 H1453 0.985 . S
C1448 C1442 1.379 . S
C1448 C1445 1.363 . S
C1448 N1446 1.356 . S
C1449 C1443 1.363 . S
C1449 C1444 1.379 . S
C1449 N1447 1.356 . S
N1450 C1442 1.356 . S
N1450 H1456 0.984 . S
N1450 H1457 0.984 . S
N1451 C1444 1.356 . S
N1451 H1454 0.984 . S
N1451 H1455 0.985 . S
H1452 N1447 0.984 . S
H1453 N1447 0.985 . S
H1454 N1451 0.984 . S
H1455 N1451 0.985 . S
H1456 N1450 0.984 . S
H1457 N1450 0.984 . S
H1458 N1446 0.984 . S
H1459 N1446 0.985 . S
C1460 C1461 1.363 . S
C1460 C1466 1.379 . S
C1460 N1468 1.356 . S
C1461 C1460 1.363 . S
C1461 C1467 1.363 . S
C1462 C1463 1.363 . S
C1462 C1467 1.379 . S
C1462 N1469 1.356 . S
C1463 C1462 1.363 . S
C1463 C1466 1.363 . S
N1464 C1466 1.356 . S
N1464 H1476 0.984 . S
N1464 H1477 0.985 . S
N1465 C1467 1.356 . S
N1465 H1470 0.984 . S
N1465 H1471 0.985 . S
C1466 C1460 1.379 . S
C1466 C1463 1.363 . S
C1466 N1464 1.356 . S
C1467 C1461 1.363 . S
C1467 C1462 1.379 . S
C1467 N1465 1.356 . S
N1468 C1460 1.356 . S
N1468 H1474 0.984 . S
N1468 H1475 0.984 . S
N1469 C1462 1.356 . S
N1469 H1472 0.984 . S
N1469 H1473 0.985 . S
H1470 N1465 0.984 . S
H1471 N1465 0.985 . S
H1472 N1469 0.984 . S
H1473 N1469 0.985 . S
H1474 N1468 0.984 . S
H1475 N1468 0.984 . S
H1476 N1464 0.984 . S
H1477 N1464 0.985 . S
C1478 C1479 1.363 . S
C1478 C1484 1.379 . S
C1478 N1486 1.356 1_455 S
C1479 C1478 1.363 . S
C1479 C1485 1.363 . S
C1480 C1481 1.363 . S
C1480 C1485 1.379 . S
C1480 N1487 1.356 . S
C1481 C1480 1.363 . S
C1481 C1484 1.363 . S
N1482 C1484 1.356 . S
N1482 H1494 0.984 . S
N1482 H1495 0.985 . S
N1483 C1485 1.356 . S
N1483 H1488 0.984 1_455 S
N1483 H1489 0.985 . S
C1484 C1478 1.379 . S
C1484 C1481 1.363 . S
C1484 N1482 1.356 . S
C1485 C1479 1.363 . S
C1485 C1480 1.379 . S
C1485 N1483 1.356 . S
N1486 C1478 1.356 1_655 S
N1486 H1492 0.984 . S
N1486 H1493 0.984 . S
N1487 C1480 1.356 . S
N1487 H1490 0.984 . S
N1487 H1491 0.985 . S
H1488 N1483 0.984 1_655 S
H1489 N1483 0.985 . S
H1490 N1487 0.984 . S
H1491 N1487 0.985 . S
H1492 N1486 0.984 . S
H1493 N1486 0.984 . S
H1494 N1482 0.984 . S
H1495 N1482 0.985 . S
C1496 C1497 1.363 . S
C1496 C1502 1.379 . S
C1496 N1504 1.356 . S
C1497 C1496 1.363 . S
C1497 C1503 1.363 . S
C1498 C1499 1.363 . S
C1498 C1503 1.379 . S
C1498 N1505 1.356 . S
C1499 C1498 1.363 . S
C1499 C1502 1.363 . S
N1500 C1502 1.356 . S
N1500 H1512 0.984 . S
N1500 H1513 0.985 . S
N1501 C1503 1.356 . S
N1501 H1506 0.984 . S
N1501 H1507 0.985 . S
C1502 C1496 1.379 . S
C1502 C1499 1.363 . S
C1502 N1500 1.356 . S
C1503 C1497 1.363 . S
C1503 C1498 1.379 . S
C1503 N1501 1.356 . S
N1504 C1496 1.356 . S
N1504 H1510 0.984 . S
N1504 H1511 0.984 . S
N1505 C1498 1.356 . S
N1505 H1508 0.984 . S
N1505 H1509 0.985 . S
H1506 N1501 0.984 . S
H1507 N1501 0.985 . S
H1508 N1505 0.984 . S
H1509 N1505 0.985 . S
H1510 N1504 0.984 . S
H1511 N1504 0.984 . S
H1512 N1500 0.984 . S
H1513 N1500 0.985 . S
C1514 C1515 1.363 . S
C1514 C1520 1.379 . S
C1514 N1522 1.356 . S
C1515 C1514 1.363 . S
C1515 C1521 1.363 . S
C1516 C1517 1.363 . S
C1516 C1521 1.379 . S
C1516 N1523 1.356 1_455 S
C1517 C1516 1.363 . S
C1517 C1520 1.363 . S
N1518 C1520 1.356 1_655 S
N1518 H1530 0.984 1_655 S
N1518 H1531 0.985 . S
N1519 C1521 1.356 . S
N1519 H1524 0.984 . S
N1519 H1525 0.985 . S
C1520 C1514 1.379 . S
C1520 C1517 1.363 . S
C1520 N1518 1.356 1_455 S
C1521 C1515 1.363 . S
C1521 C1516 1.379 . S
C1521 N1519 1.356 . S
N1522 C1514 1.356 . S
N1522 H1528 0.984 . S
N1522 H1529 0.984 . S
N1523 C1516 1.356 1_655 S
N1523 H1526 0.984 . S
N1523 H1527 0.985 . S
H1524 N1519 0.984 . S
H1525 N1519 0.985 . S
H1526 N1523 0.984 . S
H1527 N1523 0.985 . S
H1528 N1522 0.984 . S
H1529 N1522 0.984 . S
H1530 N1518 0.984 1_455 S
H1531 N1518 0.985 . S
C1532 C1533 1.363 . S
C1532 C1538 1.379 . S
C1532 N1540 1.356 . S
C1533 C1532 1.363 . S
C1533 C1539 1.363 . S
C1534 C1535 1.363 . S
C1534 C1539 1.379 . S
C1534 N1541 1.356 . S
C1535 C1534 1.363 . S
C1535 C1538 1.363 . S
N1536 C1538 1.356 . S
N1536 H1548 0.984 . S
N1536 H1549 0.985 . S
N1537 C1539 1.356 . S
N1537 H1542 0.984 . S
N1537 H1543 0.985 . S
C1538 C1532 1.379 . S
C1538 C1535 1.363 . S
C1538 N1536 1.356 . S
C1539 C1533 1.363 . S
C1539 C1534 1.379 . S
C1539 N1537 1.356 . S
N1540 C1532 1.356 . S
N1540 H1546 0.984 . S
N1540 H1547 0.984 . S
N1541 C1534 1.356 . S
N1541 H1544 0.984 . S
N1541 H1545 0.985 . S
H1542 N1537 0.984 . S
H1543 N1537 0.985 . S
H1544 N1541 0.984 . S
H1545 N1541 0.985 . S
H1546 N1540 0.984 . S
H1547 N1540 0.984 . S
H1548 N1536 0.984 . S
H1549 N1536 0.985 . S
C1550 C1551 1.363 . S
C1550 C1556 1.379 . S
C1550 N1558 1.356 . S
C1551 C1550 1.363 . S
C1551 C1557 1.363 . S
C1552 C1553 1.363 . S
C1552 C1557 1.379 . S
C1552 N1559 1.356 . S
C1553 C1552 1.363 . S
C1553 C1556 1.363 . S
N1554 C1556 1.356 . S
N1554 H1566 0.984 . S
N1554 H1567 0.985 . S
N1555 C1557 1.356 . S
N1555 H1560 0.984 . S
N1555 H1561 0.985 . S
C1556 C1550 1.379 . S
C1556 C1553 1.363 . S
C1556 N1554 1.356 . S
C1557 C1551 1.363 . S
C1557 C1552 1.379 . S
C1557 N1555 1.356 . S
N1558 C1550 1.356 . S
N1558 H1564 0.984 . S
N1558 H1565 0.984 . S
N1559 C1552 1.356 . S
N1559 H1562 0.984 . S
N1559 H1563 0.985 . S
H1560 N1555 0.984 . S
H1561 N1555 0.985 . S
H1562 N1559 0.984 . S
H1563 N1559 0.985 . S
H1564 N1558 0.984 . S
H1565 N1558 0.984 . S
H1566 N1554 0.984 . S
H1567 N1554 0.985 . S
C417 C62 1.505 . S
C419 C4 1.505 . S
C435 C69 1.505 . S
C437 C23 1.505 . S
C453 C82 1.505 . S
C455 C30 1.505 . S
C471 C49 1.505 . S
C473 C101 1.505 . S
C489 C108 1.505 . S
C491 C166 1.505 . S
C507 C179 1.505 . S
C509 C121 1.505 . S
C525 C140 1.505 . S
C527 C192 1.505 . S
C543 C199 1.505 . S
C545 C147 1.505 . S
C561 C218 1.505 . S
C563 C264 1.505 . S
C579 C283 1.505 . S
C581 C231 1.505 . S
C597 C296 1.505 . S
C599 C244 1.505 . S
C615 C309 1.505 . S
C617 C257 1.505 . S
C633 C322 1.505 . S
C635 C374 1.505 . S
C651 C335 1.505 . S
C653 C381 1.505 . S
C669 C342 1.505 . S
C671 C400 1.505 . S
C687 C355 1.505 . S
C689 C407 1.505 . S
C705 C10 1.510 1_565 S
C707 C95 1.510 . S
C723 C17 1.510 . S
C725 C56 1.510 1_545 S
C741 C36 1.510 1_545 S
C743 C75 1.510 . S
C759 C88 1.510 1_565 S
C761 C43 1.510 . S
C777 C205 1.510 . S
C779 C114 1.510 1_545 S
C795 C160 1.510 1_565 S
C797 C127 1.510 . S
C813 C173 1.510 . S
C815 C134 1.510 1_565 S
C831 C153 1.510 . S
C833 C186 1.510 1_545 S
C849 C303 1.510 . S
C851 C212 1.510 . S
C867 C270 1.510 . S
C869 C225 1.510 . S
C885 C277 1.510 . S
C887 C238 1.510 . S
C903 C251 1.510 . S
C905 C290 1.510 . S
C921 C316 1.510 . S
C923 C413 1.510 . S
C939 C329 1.510 . S
C941 C368 1.510 . S
C957 C348 1.510 . S
C959 C387 1.510 . S
C975 C394 1.510 . S
C977 C361 1.510 . S
C993 C5 1.497 . S
C995 C330 1.497 . S
C1011 C16 1.497 . S
C1013 C135 1.497 1_455 S
C1029 C31 1.497 . S
C1031 C354 1.497 . S
C1047 C107 1.497 . S
C1049 C42 1.497 . S
C1065 C406 1.497 . S
C1067 C55 1.497 . S
C1083 C70 1.497 . S
C1085 C161 1.497 . S
C1101 C83 1.497 . S
C1103 C380 1.497 . S
C1119 C94 1.497 . S
C1121 C187 1.497 1_455 S
C1137 C226 1.497 . S
C1139 C109 1.497 . S
C1155 C29 1.497 1_655 S
C1157 C122 1.497 . S
C1173 C252 1.497 . S
C1175 C133 1.497 . S
C1191 C148 1.497 . S
C1193 C3 1.497 . S
C1209 C304 1.497 . S
C1211 C159 1.497 . S
C1227 C57 1.497 . S
C1229 C172 1.497 . S
C1245 C278 1.497 . S
C1247 C185 1.497 . S
C1263 C81 1.497 1_655 S
C1265 C200 1.497 . S
C1281 C120 1.497 . S
C1283 C211 1.497 . S
C1299 C224 1.497 . S
C1301 C341 1.497 . S
C1317 C237 1.497 . S
C1319 C146 1.497 . S
C1335 C250 1.497 . S
C1337 C317 1.497 1_655 S
C1353 C265 1.497 . S
C1355 C198 1.497 . S
C1371 C369 1.497 1_655 S
C1373 C276 1.497 . S
C1389 C289 1.497 . S
C1391 C174 1.497 . S
C1407 C302 1.497 . S
C1409 C395 1.497 . S
C1425 C315 1.497 . S
C1427 C18 1.497 . S
C1443 C328 1.497 . S
C1445 C239 1.497 . S
C1461 C44 1.497 . S
C1463 C343 1.497 . S
C1479 C213 1.497 1_455 S
C1481 C356 1.497 . S
C1497 C367 1.497 . S
C1499 C96 1.497 . S
C1515 C382 1.497 . S
C1517 C263 1.497 1_455 S
C1533 C68 1.497 . S
C1535 C393 1.497 . S
C1551 C291 1.497 . S
C1553 C408 1.497 . S
