# Generated by pormake.
# Topology wkf, (6)-cn, num edge types: 1
# Building blocks:
#     Node 0, Type 0, BuildingBlock: OJICUG_clean_sbu_0, # of connection points: 6
#     Node 1, Type 0, BuildingBlock: OJICUG_clean_sbu_0, # of connection points: 6
#     Node 2, Type 0, BuildingBlock: OJICUG_clean_sbu_0, # of connection points: 6
#     Node 3, Type 0, BuildingBlock: OJICUG_clean_sbu_0, # of connection points: 6
#     Node 4, Type 0, BuildingBlock: OJICUG_clean_sbu_0, # of connection points: 6
#     Node 5, Type 0, BuildingBlock: OJICUG_clean_sbu_0, # of connection points: 6
#     Node 6, Type 0, BuildingBlock: OJICUG_clean_sbu_0, # of connection points: 6
#     Node 7, Type 0, BuildingBlock: OJICUG_clean_sbu_0, # of connection points: 6
#     Node 8, Type 0, BuildingBlock: OJICUG_clean_sbu_0, # of connection points: 6
#     Node 9, Type 0, BuildingBlock: OJICUG_clean_sbu_0, # of connection points: 6
#     Node 10, Type 0, BuildingBlock: OJICUG_clean_sbu_0, # of connection points: 6
#     Node 11, Type 0, BuildingBlock: OJICUG_clean_sbu_0, # of connection points: 6
#     Edge 12, Type (0, 0), BuildingBlock: ZUJKAS_clean_linker_0, # of connection points: 2
#     Edge 13, Type (0, 0), BuildingBlock: ZUJKAS_clean_linker_0, # of connection points: 2
#     Edge 14, Type (0, 0), BuildingBlock: ZUJKAS_clean_linker_0, # of connection points: 2
#     Edge 15, Type (0, 0), BuildingBlock: ZUJKAS_clean_linker_0, # of connection points: 2
#     Edge 16, Type (0, 0), BuildingBlock: ZUJKAS_clean_linker_0, # of connection points: 2
#     Edge 17, Type (0, 0), BuildingBlock: ZUJKAS_clean_linker_0, # of connection points: 2
#     Edge 18, Type (0, 0), BuildingBlock: ZUJKAS_clean_linker_0, # of connection points: 2
#     Edge 19, Type (0, 0), BuildingBlock: ZUJKAS_clean_linker_0, # of connection points: 2
#     Edge 20, Type (0, 0), BuildingBlock: ZUJKAS_clean_linker_0, # of connection points: 2
#     Edge 21, Type (0, 0), BuildingBlock: ZUJKAS_clean_linker_0, # of connection points: 2
#     Edge 22, Type (0, 0), BuildingBlock: ZUJKAS_clean_linker_0, # of connection points: 2
#     Edge 23, Type (0, 0), BuildingBlock: ZUJKAS_clean_linker_0, # of connection points: 2
#     Edge 24, Type (0, 0), BuildingBlock: ZUJKAS_clean_linker_0, # of connection points: 2
#     Edge 25, Type (0, 0), BuildingBlock: ZUJKAS_clean_linker_0, # of connection points: 2
#     Edge 26, Type (0, 0), BuildingBlock: ZUJKAS_clean_linker_0, # of connection points: 2
#     Edge 27, Type (0, 0), BuildingBlock: ZUJKAS_clean_linker_0, # of connection points: 2
#     Edge 28, Type (0, 0), BuildingBlock: ZUJKAS_clean_linker_0, # of connection points: 2
#     Edge 29, Type (0, 0), BuildingBlock: ZUJKAS_clean_linker_0, # of connection points: 2
#     Edge 30, Type (0, 0), BuildingBlock: ZUJKAS_clean_linker_0, # of connection points: 2
#     Edge 31, Type (0, 0), BuildingBlock: ZUJKAS_clean_linker_0, # of connection points: 2
#     Edge 32, Type (0, 0), BuildingBlock: ZUJKAS_clean_linker_0, # of connection points: 2
#     Edge 33, Type (0, 0), BuildingBlock: ZUJKAS_clean_linker_0, # of connection points: 2
#     Edge 34, Type (0, 0), BuildingBlock: ZUJKAS_clean_linker_0, # of connection points: 2
#     Edge 35, Type (0, 0), BuildingBlock: ZUJKAS_clean_linker_0, # of connection points: 2
#     Edge 36, Type (0, 0), BuildingBlock: ZUJKAS_clean_linker_0, # of connection points: 2
#     Edge 37, Type (0, 0), BuildingBlock: ZUJKAS_clean_linker_0, # of connection points: 2
#     Edge 38, Type (0, 0), BuildingBlock: ZUJKAS_clean_linker_0, # of connection points: 2
#     Edge 39, Type (0, 0), BuildingBlock: ZUJKAS_clean_linker_0, # of connection points: 2
#     Edge 40, Type (0, 0), BuildingBlock: ZUJKAS_clean_linker_0, # of connection points: 2
#     Edge 41, Type (0, 0), BuildingBlock: ZUJKAS_clean_linker_0, # of connection points: 2
#     Edge 42, Type (0, 0), BuildingBlock: ZUJKAS_clean_linker_0, # of connection points: 2
#     Edge 43, Type (0, 0), BuildingBlock: ZUJKAS_clean_linker_0, # of connection points: 2
#     Edge 44, Type (0, 0), BuildingBlock: ZUJKAS_clean_linker_0, # of connection points: 2
#     Edge 45, Type (0, 0), BuildingBlock: ZUJKAS_clean_linker_0, # of connection points: 2
#     Edge 46, Type (0, 0), BuildingBlock: ZUJKAS_clean_linker_0, # of connection points: 2
#     Edge 47, Type (0, 0), BuildingBlock: ZUJKAS_clean_linker_0, # of connection points: 2
# Relax obj value: 0.170
# Max RMSD: 0.210
# Mean RMSD: 0.210
data_MOF--net-wkf--node1-OJICUG_clean_sbu_0--edge1-ZUJKAS_clean_linker_0
_symmetry_space_group_name_H-M    P1
_symmetry_Int_Tables_number       1
_symmetry_cell_setting            triclinic
loop_
_symmetry_equiv_pos_as_xyz
'x, y, z'
_cell_length_a     36.022987
_cell_length_b     36.073212
_cell_length_c     92.600563
_cell_angle_alpha  90.184175
_cell_angle_beta   89.91202
_cell_angle_gamma 120.09351
loop_
_atom_site_label
_atom_site_type_symbol
_atom_site_fract_x
_atom_site_fract_y
_atom_site_fract_z
_atom_type_partial_charge
Sc0 Sc 0.42828 0.10821 0.34285 0.0
Sc1 Sc 0.3274 0.06445 0.35899 0.0
Sc2 Sc 0.40823 0.0515 0.37472 0.0
O3 O 0.38725 0.07383 0.35869 0.0
C4 C 0.45428 0.03699 0.34937 0.0
C5 C 0.34378 0.04822 0.32596 0.0
C6 C 0.31096 0.9765 0.37168 0.0
C7 C 0.37424 0.15581 0.3454 0.0
C8 C 0.48353 0.14483 0.37051 0.0
C9 C 0.35953 0.09098 0.39147 0.0
O10 O 0.46139 0.07205 0.34368 0.0
O11 O 0.32055 0.04919 0.33623 0.0
O12 O 0.34819 0.99309 0.37717 0.0
O13 O 0.40206 0.14934 0.33934 0.0
O14 O 0.4714 0.10661 0.37424 0.0
O15 O 0.3314 0.08078 0.3816 0.0
O16 O 0.47028 0.15351 0.35897 0.0
O17 O 0.34779 0.13024 0.35458 0.0
O18 O 0.39083 0.08413 0.39044 0.0
O19 O 0.3844 0.06407 0.3269 0.0
O20 O 0.42792 0.01949 0.3597 0.0
O21 O 0.29926 -0.00267 0.36369 0.0
Sc22 Sc 0.31263 0.38955 0.54889 0.0
Sc23 Sc 0.24056 0.30713 0.52599 0.0
Sc24 Sc 0.29613 0.4137 0.51353 0.0
O25 O 0.28319 0.37011 0.52946 0.0
C26 C 0.28604 0.45943 0.5413 0.0
C27 C 0.21756 0.31952 0.55814 0.0
C28 C 0.19577 0.34947 0.50889 0.0
C29 C 0.31437 0.30327 0.54378 0.0
C30 C 0.38834 0.45189 0.52821 0.0
C31 C 0.29467 0.3367 0.49659 0.0
O32 O 0.29938 0.44089 0.54972 0.0
O33 O 0.20874 0.29885 0.54634 0.0
O34 O 0.23099 0.38322 0.50614 0.0
O35 O 0.32759 0.3392 0.54996 0.0
O36 O 0.3632 0.4508 0.51843 0.0
O37 O 0.26739 0.30895 0.50518 0.0
O38 O 0.37513 0.42929 0.53956 0.0
O39 O 0.28357 0.28762 0.53475 0.0
O40 O 0.31097 0.37694 0.49844 0.0
O41 O 0.25362 0.35276 0.56056 0.0
O42 O 0.28198 0.45309 0.5277 0.0
O43 O 0.19311 0.31984 0.51694 0.0
Sc44 Sc 0.86388 0.3055 0.68217 0.0
Sc45 Sc 0.91128 0.25156 0.69857 0.0
Sc46 Sc 0.9398 0.35629 0.70919 0.0
O47 O 0.90531 0.3043 0.69654 0.0
C48 C 0.94221 0.40191 0.68053 0.0
C49 C 0.91172 0.26631 0.66445 0.0
C50 C 0.00739 0.32516 0.70433 0.0
C51 C 0.81264 0.20696 0.6912 0.0
C52 C 0.84747 0.34623 0.70958 0.0
C53 C 0.90506 0.27797 0.73103 0.0
O54 O 0.90456 0.37249 0.67726 0.0
O55 O 0.91773 0.249 0.67553 0.0
O56 O -0.00292 0.35247 0.70824 0.0
O57 O 0.8163 0.23967 0.68487 0.0
O58 O 0.88744 0.36782 0.71211 0.0
O59 O 0.90393 0.25135 0.7217 0.0
O60 O 0.83181 0.31936 0.69926 0.0
O61 O 0.84376 0.20643 0.69731 0.0
O62 O 0.91715 0.31689 0.72816 0.0
O63 O 0.89452 0.28986 0.66496 0.0
O64 O 0.96312 0.39869 0.69102 0.0
O65 O 0.98004 0.28775 0.70013 0.0
Sc66 Sc 0.58755 0.92443 0.88361 0.0
Sc67 Sc 0.67039 0.94159 0.85971 0.0
Sc68 Sc 0.56451 0.89832 0.84686 0.0
O69 O 0.60753 0.9216 0.86338 0.0
C70 C 0.51538 0.8327 0.87216 0.0
C71 C 0.65487 0.89348 0.88971 0.0
C72 C 0.62628 0.86156 0.83881 0.0
C73 C 0.67594 0.01232 0.88179 0.0
C74 C 0.52825 0.94804 0.86539 0.0
C75 C 0.644 0.97822 0.8326 0.0
O76 O 0.53435 0.86098 0.88186 0.0
O77 O 0.67626 0.90963 0.87826 0.0
O78 O 0.59333 0.8651 0.8369 0.0
O79 O 0.63926 0.98798 0.88724 0.0
O80 O 0.52898 0.92768 0.85432 0.0
O81 O 0.67082 0.97473 0.84054 0.0
O82 O 0.55024 0.95255 0.87663 0.0
O83 O 0.69175 0.00047 0.87169 0.0
O84 O 0.60346 0.95502 0.834 0.0
O85 O 0.62208 0.89617 0.89305 0.0
O86 O 0.52287 0.84012 0.8587 0.0
O87 O 0.656 0.88496 0.84758 0.0
Sc88 Sc 0.70218 0.56993 0.01123 0.0
Sc89 Sc 0.75837 0.67732 0.02328 0.0
Sc90 Sc 0.66012 0.60343 0.03928 0.0
O91 O 0.70679 0.61702 0.0245 0.0
C92 C 0.60411 0.5464 0.01313 0.0
C93 C 0.73381 0.64993 0.99028 0.0
C94 C 0.68245 0.6966 0.02939 0.0
C95 C 0.80309 0.62242 0.01719 0.0
C96 C 0.67381 0.52294 0.04147 0.0
C97 C 0.74627 0.66083 0.05709 0.0
O98 O 0.63435 0.54216 0.00789 0.0
O99 O 0.7526 0.67752 0.00025 0.0
O100 O 0.65735 0.66008 0.03475 0.0
O101 O 0.76892 0.59002 0.01274 0.0
O102 O 0.6581 0.54571 0.04565 0.0
O103 O 0.76878 0.68057 0.04615 0.0
O104 O 0.69213 0.5279 0.02928 0.0
O105 O 0.80429 0.65623 0.02164 0.0
O106 O 0.70646 0.63351 0.0563 0.0
O107 O 0.7126 0.60961 0.99246 0.0
O108 O 0.60911 0.57009 0.02398 0.0
O109 O 0.71993 0.70754 0.02495 0.0
Sc110 Sc 0.03591 0.6484 0.21458 0.0
Sc111 Sc 0.04999 0.72197 0.18733 0.0
Sc112 Sc 0.08897 0.65016 0.18253 0.0
O113 O 0.05833 0.67352 0.19477 0.0
C114 C 0.12879 0.65857 0.2139 0.0
C115 C 0.0734 0.74864 0.22013 0.0
C116 C 0.14205 0.74973 0.17456 0.0
C117 C 0.95997 0.65904 0.20228 0.0
C118 C 0.01848 0.56438 0.19778 0.0
C119 C 0.02888 0.66078 0.15988 0.0
O120 O 0.0957 0.65413 0.22036 0.0
O121 O 0.0725 0.75821 0.207 0.0
O122 O 0.13641 0.71211 0.17494 0.0
O123 O 0.97435 0.64034 0.21012 0.0
O124 O 0.04633 0.58458 0.18813 0.0
O125 O 0.02831 0.69083 0.1669 0.0
O126 O 0.01024 0.58314 0.20781 0.0
O127 O 0.98354 0.69069 0.19419 0.0
O128 O 0.04778 0.64096 0.16419 0.0
O129 O 0.05937 0.7104 0.22432 0.0
O130 O 0.13186 0.65791 0.20018 0.0
O131 O 0.11443 0.75887 0.17922 0.0
Sc132 Sc 0.85624 0.53213 0.48306 0.0
Sc133 Sc 0.8905 0.62854 0.46421 0.0
Sc134 Sc 0.88991 0.54142 0.44689 0.0
O135 O 0.87891 0.56741 0.46472 0.0
C136 C 0.9186 0.4998 0.47108 0.0
C137 C 0.93089 0.62259 0.49422 0.0
C138 C 0.96808 0.63651 0.44503 0.0
C139 C 0.80878 0.58657 0.48465 0.0
C140 C 0.80081 0.46525 0.45891 0.0
C141 C 0.84601 0.59219 0.43383 0.0
O142 O 0.89386 0.50161 0.48046 0.0
O143 O 0.92649 0.64326 0.48388 0.0
O144 O 0.95055 0.59687 0.44214 0.0
O145 O 0.81468 0.55635 0.4886 0.0
O146 O 0.83062 0.4829 0.44961 0.0
O147 O 0.85576 0.61791 0.44443 0.0
O148 O 0.80307 0.48043 0.47153 0.0
O149 O 0.83244 0.61428 0.47541 0.0
O150 O 0.8566 0.56344 0.43312 0.0
O151 O 0.90824 0.58198 0.49554 0.0
O152 O 0.92385 0.51626 0.45862 0.0
O153 O 0.95008 0.65213 0.45276 0.0
Sc154 Sc 0.34247 0.8953 0.61438 0.0
Sc155 Sc 0.2622 0.90991 0.63046 0.0
Sc156 Sc 0.30411 0.85439 0.64913 0.0
O157 O 0.30308 0.88673 0.63134 0.0
C158 C 0.31247 0.79946 0.62404 0.0
C159 C 0.25449 0.87107 0.59885 0.0
C160 C 0.20414 0.82122 0.64609 0.0
C161 C 0.34392 0.98442 0.61476 0.0
C162 C 0.40355 0.90941 0.64076 0.0
C163 C 0.29813 0.93215 0.66277 0.0
O164 O 0.33181 0.83161 0.61578 0.0
O165 O 0.24187 0.88596 0.60898 0.0
O166 O 0.23568 0.81978 0.65154 0.0
O167 O 0.35812 0.9603 0.61059 0.0
O168 O 0.37287 0.885 0.64906 0.0
O169 O 0.27858 0.93587 0.65194 0.0
O170 O 0.39799 0.91885 0.62803 0.0
O171 O 0.31075 0.9712 0.62262 0.0
O172 O 0.31061 0.90483 0.66331 0.0
O173 O 0.28991 0.87129 0.59926 0.0
O174 O 0.29737 0.80114 0.63629 0.0
O175 O 0.20845 0.85091 0.63775 0.0
Sc176 Sc 0.45961 0.3446 0.8163 0.0
Sc177 Sc 0.36338 0.27396 0.79837 0.0
Sc178 Sc 0.44944 0.35515 0.77888 0.0
O179 O 0.42412 0.32462 0.79786 0.0
C180 C 0.48691 0.43356 0.80053 0.0
C181 C 0.3675 0.32572 0.82688 0.0
C182 C 0.35314 0.33463 0.77572 0.0
C183 C 0.4091 0.24335 0.82081 0.0
C184 C 0.52901 0.35362 0.79353 0.0
C185 C 0.40077 0.25669 0.76954 0.0
O186 O 0.48582 0.41105 0.81121 0.0
O187 O 0.34754 0.29835 0.81699 0.0
O188 O 0.39249 0.35488 0.77229 0.0
O189 O 0.43889 0.28098 0.8238 0.0
O190 O 0.50969 0.35966 0.78316 0.0
O191 O 0.37425 0.24482 0.77993 0.0
O192 O 0.51393 0.34454 0.80629 0.0
O193 O 0.3803 0.2357 0.8115 0.0
O194 O 0.43002 0.29548 0.76761 0.0
O195 O 0.4083 0.34637 0.82794 0.0
O196 O 0.47181 0.41771 0.78818 0.0
O197 O 0.33805 0.30522 0.78518 0.0
Sc198 Sc 0.08371 0.43134 0.95113 0.0
Sc199 Sc 0.08696 0.34621 0.96821 0.0
Sc200 Sc 0.14543 0.45083 0.98241 0.0
O201 O 0.10518 0.40929 0.96729 0.0
C202 C 0.18306 0.50186 0.9534 0.0
C203 C 0.10688 0.36745 0.93483 0.0
C204 C 0.18191 0.38673 0.97984 0.0
C205 C 0.00068 0.3413 0.9572 0.0
C206 C 0.08357 0.48883 0.97666 0.0
C207 C 0.07765 0.37113 0.00078 0.0
O208 O 0.14593 0.48563 0.94784 0.0
O209 O 0.10195 0.3444 0.94584 0.0
O210 O 0.18306 0.42041 0.9844 0.0
O211 O 0.01913 0.37922 0.95233 0.0
O212 O 0.11447 0.48845 0.98305 0.0
O213 O 0.07116 0.34423 0.99074 0.0
O214 O 0.06568 0.46634 0.96551 0.0
O215 O 0.02097 0.32525 0.96326 0.0
O216 O 0.10272 0.41145 -0.00059 0.0
O217 O 0.10081 0.39927 0.93511 0.0
O218 O 0.1898 0.49155 0.96588 0.0
O219 O 0.15032 0.35771 0.97293 0.0
Sc220 Sc 0.63449 0.10759 0.1415 0.0
Sc221 Sc 0.70649 0.08038 0.1257 0.0
Sc222 Sc 0.63592 0.09622 0.10378 0.0
O223 O 0.65894 0.09458 0.12367 0.0
C224 C 0.55077 0.05399 0.12192 0.0
C225 C 0.64223 0.02725 0.1513 0.0
C226 C 0.65286 0.01838 0.09975 0.0
C227 C 0.73267 0.15009 0.15049 0.0
C228 C 0.6378 0.17589 0.11979 0.0
C229 C 0.73723 0.14454 0.09894 0.0
O230 O 0.5702 0.07338 0.13338 0.0
O231 O 0.6727 0.03511 0.1426 0.0
O232 O 0.63625 0.04056 0.09596 0.0
O233 O 0.69503 0.14382 0.15207 0.0
O234 O 0.63198 0.15198 0.10894 0.0
O235 O 0.74388 0.12511 0.10916 0.0
O236 O 0.64358 0.16671 0.13252 0.0
O237 O 0.74237 0.13101 0.14098 0.0
O238 O 0.70007 0.13789 0.09558 0.0
O239 O 0.62411 0.04981 0.15203 0.0
O240 O 0.57009 0.05501 0.1103 0.0
O241 O 0.67782 0.02805 0.11053 0.0
Sc242 Sc 0.53203 0.63487 0.27499 0.0
Sc243 Sc 0.62941 0.71318 0.29034 0.0
Sc244 Sc 0.53512 0.6652 0.31139 0.0
O245 O 0.56557 0.67098 0.29226 0.0
C246 C 0.46983 0.665 0.28859 0.0
C247 C 0.59301 0.72627 0.26071 0.0
C248 C 0.60192 0.76556 0.31105 0.0
C249 C 0.61897 0.6343 0.27123 0.0
C250 C 0.48719 0.56826 0.30041 0.0
C251 C 0.62187 0.66887 0.32088 0.0
O252 O 0.48239 0.64969 0.2786 0.0
O253 O 0.62074 0.73998 0.27078 0.0
O254 O 0.56866 0.73254 0.31563 0.0
O255 O 0.57887 0.61741 0.26928 0.0
O256 O 0.49678 0.59693 0.30996 0.0
O257 O 0.64299 0.68986 0.30984 0.0
O258 O 0.4994 0.57676 0.28737 0.0
O259 O 0.64084 0.66852 0.27847 0.0
O260 O 0.58256 0.65733 0.32293 0.0
O261 O 0.56036 0.68883 0.26062 0.0
O262 O 0.48554 0.67296 0.30127 0.0
O263 O 0.62664 0.76395 0.30163 0.0
H264 H 0.092 0.74176 0.24824 0.0
H265 H 0.13758 0.7995 0.26469 0.0
H266 H 0.15246 0.89281 0.23278 0.0
H267 H 0.10742 0.83504 0.21599 0.0
H268 H 0.2293 0.90908 0.24421 0.0
H269 H 0.11315 0.8797 0.28803 0.0
H270 H 0.1156 0.83255 0.28359 0.0
H271 H 0.09663 0.85566 0.27037 0.0
C272 C 0.1042 0.77449 0.24475 0.0
C273 C 0.09588 0.78369 0.23077 0.0
C274 C 0.13023 0.80751 0.25422 0.0
C275 C 0.14798 0.8504 0.25001 0.0
C276 C 0.13892 0.85985 0.23623 0.0
H277 H 0.27591 0.04958 0.31421 0.0
H278 H 0.23172 0.00704 0.29396 0.0
C279 C 0.11302 0.82679 0.22669 0.0
C280 C 0.1779 0.8851 0.25976 0.0
H281 H 0.18749 0.92308 0.29409 0.0
C282 C 0.22011 0.91261 0.25506 0.0
C283 C 0.16566 0.88987 0.27384 0.0
C284 C 0.12016 0.86315 0.27921 0.0
C285 C 0.25083 0.94398 0.26426 0.0
C286 C 0.23913 0.94716 0.27859 0.0
C287 C 0.19658 0.92041 0.28312 0.0
C288 C 0.2701 0.9777 0.28924 0.0
C289 C 0.29529 0.9735 0.25849 0.0
C290 C 0.30717 0.97631 0.29305 0.0
C291 C 0.33301 0.00129 0.30452 0.0
C292 C 0.32141 0.02708 0.3125 0.0
C293 C 0.2853 0.02961 0.3083 0.0
C294 C 0.26006 0.00536 0.29674 0.0
H295 H 0.29521 0.97596 0.24653 0.0
H296 H 0.30911 0.00614 0.26318 0.0
H297 H 0.31649 0.96055 0.26136 0.0
H298 H 0.31504 0.9545 0.28763 0.0
H299 H 0.36051 -0.00143 0.30765 0.0
H300 H 0.25302 0.25643 0.48539 0.0
H301 H 0.27956 0.22532 0.46776 0.0
H302 H 0.39522 0.3474 0.46258 0.0
H303 H 0.36875 0.37937 0.48046 0.0
H304 H 0.35378 0.2983 0.4359 0.0
H305 H 0.38044 0.20309 0.47704 0.0
H306 H 0.32872 0.19877 0.4786 0.0
H307 H 0.3764 0.24976 0.48153 0.0
C308 C 0.28406 0.27693 0.4805 0.0
C309 C 0.30906 0.32029 0.48447 0.0
C310 C 0.29921 0.25899 0.47046 0.0
C311 C 0.33971 0.28385 0.46421 0.0
C312 C 0.36405 0.32769 0.46749 0.0
H313 H 0.42025 0.13113 0.41264 0.0
H314 H 0.42403 0.18365 0.43022 0.0
C315 C 0.34882 0.34588 0.47762 0.0
C316 C 0.35565 0.26293 0.45428 0.0
H317 H 0.36965 0.17628 0.45257 0.0
C318 C 0.35832 0.27228 0.43953 0.0
C319 C 0.36229 0.22955 0.45912 0.0
C320 C 0.36227 0.21994 0.47496 0.0
C321 C 0.36395 0.24667 0.42934 0.0
C322 C 0.36612 0.21056 0.43411 0.0
C323 C 0.36716 0.20351 0.44894 0.0
C324 C 0.36352 0.1778 0.4239 0.0
C325 C 0.36617 0.25769 0.41354 0.0
C326 C 0.32736 0.15583 0.41502 0.0
C327 C 0.325 0.12582 0.40501 0.0
C328 C 0.35869 0.11695 0.40374 0.0
C329 C 0.39383 0.13731 0.41325 0.0
C330 C 0.3962 0.16751 0.42326 0.0
H331 H 0.37809 0.29241 0.41201 0.0
H332 H 0.38741 0.24896 0.40753 0.0
H333 H 0.33352 0.23968 0.4088 0.0
H334 H 0.30114 0.16236 0.41571 0.0
H335 H 0.29728 0.11055 0.39797 0.0
H336 H 0.92299 0.20023 0.65614 0.0
H337 H 0.96662 0.1997 0.63601 0.0
H338 H 0.98653 0.32222 0.62193 0.0
H339 H 0.94197 0.32254 0.64189 0.0
H340 H 0.97907 0.26701 0.59902 0.0
H341 H 0.0961 0.28015 0.64068 0.0
H342 H 0.04365 0.23382 0.6424 0.0
H343 H 0.05066 0.28641 0.6449 0.0
C344 C 0.93588 0.22662 0.64857 0.0
C345 C 0.92973 0.26179 0.6507 0.0
C346 C 0.96086 0.22631 0.63711 0.0
C347 C 0.98065 0.26145 0.62777 0.0
C348 C 0.9717 0.29495 0.62913 0.0
H349 H 0.21853 0.36311 0.58246 0.0
H350 H 0.15918 0.34552 0.59895 0.0
C351 C 0.9462 0.29506 0.64051 0.0
C352 C 0.01406 0.26541 0.6176 0.0
H353 H 0.1136 0.27598 0.61644 0.0
C354 C 0.00842 0.26875 0.60278 0.0
C355 C 0.05254 0.26835 0.62263 0.0
C356 C 0.06144 0.26741 0.63852 0.0
C357 C 0.04047 0.27513 0.5928 0.0
C358 C 0.07865 0.27744 0.59783 0.0
C359 C 0.08407 0.27377 0.61264 0.0
C360 C 0.11469 0.28652 0.58807 0.0
C361 C 0.03382 0.28084 0.57706 0.0
C362 C 0.10961 0.25852 0.57672 0.0
C363 C 0.14349 0.26851 0.56723 0.0
C364 C 0.18316 0.30648 0.56902 0.0
C365 C 0.18852 0.33356 0.58076 0.0
C366 C 0.15459 0.32365 0.59018 0.0
H367 H 0.00747 0.28798 0.57548 0.0
H368 H 0.06362 0.30715 0.57222 0.0
H369 H 0.02529 0.25085 0.57111 0.0
H370 H 0.07934 0.22918 0.57514 0.0
H371 H 0.13834 0.24681 0.55835 0.0
H372 H 0.86297 0.30674 0.74805 0.0
H373 H 0.81534 0.26872 0.76834 0.0
H374 H 0.85218 0.17213 0.76583 0.0
H375 H 0.89913 0.20931 0.74535 0.0
H376 H 0.74666 0.17192 0.76342 0.0
H377 H 0.85446 0.20901 0.81072 0.0
H378 H 0.86694 0.24551 0.79575 0.0
H379 H 0.8738 0.19974 0.79392 0.0
C380 C 0.86196 0.27812 0.75211 0.0
C381 C 0.88477 0.26091 0.74514 0.0
C382 C 0.83454 0.25639 0.76362 0.0
C383 C 0.83049 0.21785 0.76851 0.0
C384 C 0.85527 0.20208 0.7622 0.0
H385 H 0.71309 -0.00141 0.81613 0.0
H386 H 0.75225 0.06146 0.80091 0.0
C387 C 0.88205 0.22331 0.75054 0.0
C388 C 0.79723 0.19112 0.77907 0.0
H389 H 0.78591 0.14523 0.81202 0.0
C390 C 0.75472 0.16667 0.77422 0.0
C391 C 0.80821 0.18481 0.79307 0.0
C392 C 0.85328 0.21134 0.79878 0.0
C393 C 0.72352 0.13317 0.78263 0.0
C394 C 0.73537 0.12474 0.79623 0.0
C395 C 0.77705 0.15168 0.80152 0.0
C396 C 0.70784 0.08462 0.80414 0.0
C397 C 0.67922 0.10504 0.77649 0.0
C398 C 0.66894 0.07601 0.81056 0.0
C399 C 0.64596 0.03942 0.81913 0.0
C400 C 0.6622 0.01174 0.8215 0.0
C401 C 0.70006 0.01961 0.81452 0.0
C402 C 0.72252 0.05556 0.80589 0.0
H403 H 0.67663 0.11333 0.76514 0.0
H404 H 0.67056 0.07086 0.77693 0.0
H405 H 0.65547 0.10864 0.78309 0.0
H406 H 0.65732 0.09832 0.80941 0.0
H407 H 0.61706 0.03414 0.82456 0.0
H408 H 0.6154 0.8501 0.91445 0.0
H409 H 0.63428 0.80591 0.92917 0.0
H410 H 0.74076 0.83525 0.90092 0.0
H411 H 0.72215 0.87931 0.88603 0.0
H412 H 0.68797 0.74599 0.90806 0.0
H413 H 0.74006 0.85295 0.95611 0.0
H414 H 0.68765 0.83855 0.94949 0.0
H415 H 0.73403 0.8705 0.93848 0.0
C416 C 0.64305 0.84749 0.9114 0.0
C417 C 0.66743 0.86854 0.89911 0.0
C418 C 0.65373 0.82221 0.91982 0.0
C419 C 0.68904 0.81771 0.91614 0.0
C420 C 0.7134 0.83846 0.9039 0.0
H421 H 0.79777 0.72165 0.97797 0.0
H422 H 0.7914 0.75949 0.95718 0.0
C423 C 0.70279 0.86378 0.89546 0.0
C424 C 0.70066 0.79148 0.92516 0.0
H425 H 0.73183 0.78401 0.95918 0.0
C426 C 0.69791 0.75433 0.91921 0.0
C427 C 0.71411 0.80295 0.9396 0.0
C428 C 0.71957 0.84361 0.9463 0.0
C429 C 0.70719 0.72753 0.92754 0.0
C430 C 0.71904 0.73819 0.94216 0.0
C431 C 0.72272 0.77591 0.94795 0.0
C432 C 0.72645 0.71041 0.95199 0.0
C433 C 0.70438 0.68826 0.92066 0.0
C434 C 0.69276 0.66933 0.95549 0.0
C435 C 0.69654 0.64736 0.96729 0.0
C436 C 0.73375 0.66671 0.97584 0.0
C437 C 0.76861 0.70625 0.9716 0.0
C438 C 0.76504 0.72785 0.95974 0.0
H439 H 0.70711 0.6912 0.90872 0.0
H440 H 0.72988 0.68241 0.92482 0.0
H441 H 0.67281 0.65994 0.92328 0.0
H442 H 0.66244 0.65564 0.94981 0.0
H443 H 0.66912 0.61704 0.97042 0.0
H444 H 0.03993 0.71149 0.1372 0.0
H445 H 0.98636 0.69849 0.11872 0.0
H446 H 0.90647 0.56996 0.13465 0.0
H447 H 0.96068 0.58284 0.15316 0.0
H448 H 0.93635 0.62823 0.09681 0.0
H449 H 0.843 0.64123 0.14275 0.0
H450 H 0.89954 0.65946 0.14432 0.0
H451 H 0.86136 0.60318 0.14394 0.0
C452 C 0.01177 0.67989 0.13633 0.0
C453 C 0.00425 0.64803 0.14644 0.0
C454 C 0.98119 0.67255 0.12584 0.0
C455 C 0.94243 0.63352 0.12551 0.0
C456 C 0.93628 0.60032 0.13484 0.0
H457 H 0.71742 0.60359 0.0794 0.0
H458 H 0.7623 0.59406 0.097 0.0
C459 C 0.96729 0.60751 0.14527 0.0
C460 C 0.90694 0.6306 0.11675 0.0
H461 H 0.81933 0.64319 0.11934 0.0
C462 C 0.9103 0.63073 0.10169 0.0
C463 C 0.8732 0.63403 0.12325 0.0
C464 C 0.86883 0.63467 0.13945 0.0
C465 C 0.88135 0.63547 0.09289 0.0
C466 C 0.84912 0.64143 0.0994 0.0
C467 C 0.84448 0.63919 0.11445 0.0
C468 C 0.82081 0.65114 0.09068 0.0
C469 C 0.88582 0.63453 0.0767 0.0
C470 C 0.83846 0.68799 0.08206 0.0
C471 C 0.81298 0.69366 0.072 0.0
C472 C 0.76936 0.66263 0.07049 0.0
C473 C 0.75089 0.62812 0.08025 0.0
C474 C 0.77653 0.62237 0.09025 0.0
H475 H 0.90351 0.61787 0.07354 0.0
H476 H 0.85392 0.61829 0.07135 0.0
H477 H 0.9041 0.66786 0.07261 0.0
H478 H 0.87244 0.71119 0.08257 0.0
H479 H 0.82809 0.72081 0.06476 0.0
H480 H 0.26991 0.84039 0.57371 0.0
H481 H 0.21832 0.80025 0.55452 0.0
H482 H 0.12015 0.81104 0.57767 0.0
H483 H 0.17125 0.85186 0.59659 0.0
H484 H 0.1442 0.72396 0.55647 0.0
H485 H 0.1089 0.8486 0.53784 0.0
H486 H 0.1539 0.86068 0.54939 0.0
H487 H 0.10103 0.83998 0.55693 0.0
C488 C 0.23751 0.83478 0.5746 0.0
C489 C 0.22486 0.84969 0.58663 0.0
C490 C 0.20808 0.81174 0.56366 0.0
C491 C 0.16564 0.8033 0.56458 0.0
C492 C 0.15302 0.81818 0.57655 0.0
H493 H 0.9391 0.60124 0.52202 0.0
H494 H -0.00259 0.64423 0.539 0.0
C495 C 0.18236 0.84144 0.5874 0.0
C496 C 0.13375 0.77723 0.55344 0.0
H497 H 0.05831 0.77638 0.53107 0.0
C498 C 0.1257 0.73551 0.55077 0.0
C499 C 0.11006 0.79259 0.54592 0.0
C500 C 0.11922 0.83808 0.54755 0.0
C501 C 0.09375 0.70828 0.54102 0.0
C502 C 0.06849 0.7229 0.5341 0.0
C503 C 0.07728 0.76498 0.53654 0.0
C504 C 0.03361 0.69584 0.52391 0.0
C505 C 0.08785 0.66446 0.53809 0.0
C506 C 0.03408 0.71108 0.50997 0.0
C507 C 0.00052 0.68722 0.50045 0.0
C508 C 0.96584 0.64734 0.5046 0.0
C509 C 0.96551 0.63176 0.51851 0.0
C510 C -0.00104 0.6561 0.52817 0.0
H511 H 0.11721 0.66315 0.54081 0.0
H512 H 0.06128 0.64052 0.54489 0.0
H513 H 0.07967 0.65516 0.52659 0.0
H514 H 0.06047 0.74162 0.50646 0.0
H515 H 0.00203 0.69994 0.48974 0.0
H516 H 0.34324 0.93898 0.68749 0.0
H517 H 0.36314 0.99209 0.70684 0.0
H518 H 0.29805 0.04804 0.68462 0.0
H519 H 0.27743 -0.00492 0.66543 0.0
H520 H 0.41171 0.08186 0.70459 0.0
H521 H 0.24812 0.02831 0.72538 0.0
H522 H 0.25989 -0.00447 0.71362 0.0
H523 H 0.25305 0.03784 0.70628 0.0
C524 C 0.33273 0.96227 0.68679 0.0
C525 C 0.30848 0.96254 0.67493 0.0
C526 C 0.3443 0.99266 0.69782 0.0
C527 C 0.3316 0.02356 0.6972 0.0
C528 C 0.30746 0.02392 0.68542 0.0
H529 H 0.42987 0.2667 0.7416 0.0
H530 H 0.41662 0.20972 0.72432 0.0
C531 C 0.29583 -0.00637 0.67442 0.0
C532 C 0.34432 0.05626 0.70867 0.0
H533 H 0.3034 0.0972 0.73306 0.0
C534 C 0.38814 0.08508 0.71094 0.0
C535 C 0.31343 0.05998 0.71699 0.0
C536 C 0.26601 0.02852 0.71557 0.0
C537 C 0.40189 0.11835 0.72111 0.0
C538 C 0.37088 0.12315 0.72897 0.0
C539 C 0.32712 0.09368 0.72692 0.0
C540 C 0.38268 0.15806 0.73958 0.0
C541 C 0.44936 0.1477 0.72343 0.0
C542 C 0.36778 0.14786 0.75381 0.0
C543 C 0.37464 0.18011 0.76357 0.0
C544 C 0.39671 0.22333 0.75932 0.0
C545 C 0.41294 0.23371 0.74519 0.0
C546 C 0.40562 0.20122 0.73534 0.0
H547 H 0.46819 0.13279 0.71967 0.0
H548 H 0.46011 0.17758 0.71718 0.0
H549 H 0.45668 0.15643 0.735 0.0
H550 H 0.35004 0.11476 0.75729 0.0
H551 H 0.36215 0.17106 0.77443 0.0
H552 H 0.14253 0.42146 0.9119 0.0
H553 H 0.18512 0.41565 0.8925 0.0
H554 H 0.15771 0.2924 0.90861 0.0
H555 H 0.11571 0.29824 0.9283 0.0
H556 H 0.24344 0.34776 0.90493 0.0
H557 H 0.15355 0.3444 0.85586 0.0
H558 H 0.16641 0.38881 0.86767 0.0
H559 H 0.13046 0.33508 0.87371 0.0
C560 C 0.14461 0.39258 0.91114 0.0
C561 C 0.12575 0.36031 0.92168 0.0
C562 C 0.16897 0.38934 0.90001 0.0
C563 C 0.17431 0.3535 0.89909 0.0
C564 C 0.15393 0.32034 0.90918 0.0
H565 H 0.28132 0.27708 0.83099 0.0
H566 H 0.23739 0.28725 0.84868 0.0
C567 C 0.12984 0.32367 0.92038 0.0
C568 C 0.20393 0.35211 0.88834 0.0
H569 H 0.22314 0.35402 0.85222 0.0
C570 C 0.23899 0.34899 0.89339 0.0
C571 C 0.19792 0.35376 0.87333 0.0
C572 C 0.15984 0.3553 0.86729 0.0
C573 C 0.26809 0.34702 0.88381 0.0
C574 C 0.26243 0.34926 0.8688 0.0
C575 C 0.22759 0.35279 0.86376 0.0
C576 C 0.29009 0.34436 0.85809 0.0
C577 C 0.30375 0.34117 0.88982 0.0
C578 C 0.33442 0.37335 0.85747 0.0
C579 C 0.35998 0.36744 0.84739 0.0
C580 C 0.34136 0.33276 0.83767 0.0
C581 C 0.29681 0.30425 0.83826 0.0
C582 C 0.27153 0.30999 0.84836 0.0
H583 H 0.29776 0.33035 0.90124 0.0
H584 H 0.30776 0.31746 0.88334 0.0
H585 H 0.33432 0.3722 0.88941 0.0
H586 H 0.34919 0.40056 0.86474 0.0
H587 H 0.39411 0.39013 0.84713 0.0
H588 H 0.81881 0.19177 0.10891 0.0
H589 H 0.88264 0.24211 0.09549 0.0
H590 H 0.80554 0.21925 0.05728 0.0
H591 H 0.74109 0.17004 0.07087 0.0
H592 H 0.917 0.22445 0.07405 0.0
H593 H 0.87835 0.34658 0.05555 0.0
H594 H 0.8471 0.30759 0.06918 0.0
H595 H 0.83721 0.29397 0.05029 0.0
C596 C 0.81537 0.19785 0.09768 0.0
C597 C 0.77503 0.17682 0.09089 0.0
C598 C 0.85187 0.22675 0.09004 0.0
C599 C 0.84891 0.23493 0.07542 0.0
C600 C 0.80851 0.21443 0.06865 0.0
H601 H 0.02539 0.2875 0.00823 0.0
H602 H 0.97545 0.2596 0.02829 0.0
C603 C 0.77174 0.18602 0.07638 0.0
C604 C 0.88854 0.26155 0.06697 0.0
H605 H 0.9335 0.34183 0.0421 0.0
C606 C 0.92087 0.25061 0.06726 0.0
C607 C 0.8942 0.29631 0.05833 0.0
C608 C 0.86254 0.31209 0.05844 0.0
C609 C 0.95748 0.27186 0.05858 0.0
C610 C 0.96127 0.30403 0.04901 0.0
C611 C 0.93027 0.31674 0.04931 0.0
C612 C -0.00535 0.32171 0.03765 0.0
C613 C -0.00856 0.25916 0.05961 0.0
C614 C 0.02188 0.36608 0.03613 0.0
C615 C 0.05045 0.38238 0.0245 0.0
C616 C 0.05189 0.35448 0.01413 0.0
C617 C 0.02532 0.31002 0.01598 0.0
C618 C -0.00313 0.29389 0.02754 0.0
H619 H -0.00805 0.24681 0.07054 0.0
H620 H 0.98408 0.23309 0.05174 0.0
H621 H 0.02384 0.28654 0.05718 0.0
H622 H 0.02041 0.38809 0.04379 0.0
H623 H 0.07026 0.41678 0.02337 0.0
H624 H 0.64476 0.81334 0.26009 0.0
H625 H 0.64856 0.86246 0.2413 0.0
H626 H 0.5562 0.75547 0.21584 0.0
H627 H 0.55125 0.70613 0.23474 0.0
H628 H 0.67269 0.86948 0.21365 0.0
H629 H 0.50338 0.83122 0.21651 0.0
H630 H 0.52716 0.81352 0.22999 0.0
H631 H 0.50858 0.78502 0.21315 0.0
C632 C 0.62533 0.8002 0.25048 0.0
C633 C 0.59756 0.75582 0.24894 0.0
C634 C 0.62744 0.82834 0.23978 0.0
C635 C 0.60198 0.81265 0.22733 0.0
C636 C 0.57518 0.76832 0.22556 0.0
H637 H 0.65385 0.95854 0.14849 0.0
H638 H 0.64084 0.90448 0.16667 0.0
C639 C 0.57269 0.74016 0.23632 0.0
C640 C 0.6045 0.84272 0.21604 0.0
H641 H 0.54453 0.87414 0.19664 0.0
C642 C 0.64471 0.87062 0.20997 0.0
C643 C 0.568 0.84455 0.21143 0.0
C644 C 0.52442 0.81729 0.21821 0.0
C645 C 0.64941 0.9 0.19926 0.0
C646 C 0.61264 0.90053 0.19419 0.0
C647 C 0.57251 0.87314 0.20042 0.0
C648 C 0.61559 0.93001 0.18262 0.0
C649 C 0.6939 0.93076 0.19372 0.0
C650 C 0.60327 0.96065 0.18528 0.0
C651 C 0.61 0.99122 0.17481 0.0
C652 C 0.62941 0.99167 0.16158 0.0
C653 C 0.63953 0.95946 0.15869 0.0
C654 C 0.63231 0.92868 0.16907 0.0
H655 H 0.71907 0.9344 0.20146 0.0
H656 H 0.69922 0.91828 0.18343 0.0
H657 H 0.69792 0.96288 0.19166 0.0
H658 H 0.58996 0.96191 0.19564 0.0
H659 H 0.6018 0.01559 0.17733 0.0
H660 H 0.80862 0.64183 0.43292 0.0
H661 H 0.76918 0.64982 0.41299 0.0
H662 H 0.78839 0.5606 0.38746 0.0
H663 H 0.82748 0.55171 0.40748 0.0
H664 H 0.80031 0.67952 0.38572 0.0
H665 H 0.65918 0.51474 0.38368 0.0
H666 H 0.69542 0.5344 0.39888 0.0
H667 H 0.71044 0.51774 0.38267 0.0
C668 C 0.80438 0.62368 0.42311 0.0
C669 C 0.8213 0.59615 0.4218 0.0
C670 C 0.78177 0.62829 0.41174 0.0
C671 C 0.77556 0.60548 0.39884 0.0
C672 C 0.7922 0.57786 0.39745 0.0
H673 H 0.70119 0.67655 0.31881 0.0
H674 H 0.7386 0.65907 0.33712 0.0
C675 C 0.81471 0.57303 0.40887 0.0
C676 C 0.75322 0.61235 0.3867 0.0
H677 H 0.66427 0.56266 0.36532 0.0
C678 C 0.7706 0.65399 0.38122 0.0
C679 C 0.71434 0.57895 0.381 0.0
C680 C 0.69343 0.53399 0.38691 0.0
C681 C 0.74995 0.66332 0.37023 0.0
C682 C 0.71139 0.62983 0.36437 0.0
C683 C 0.69405 0.58811 0.36979 0.0
C684 C 0.6878 0.63794 0.35296 0.0
C685 C 0.76895 0.70915 0.36528 0.0
C686 C 0.64632 0.63049 0.35567 0.0
C687 C 0.62465 0.64012 0.3452 0.0
C688 C 0.64419 0.65742 0.33184 0.0
C689 C 0.68542 0.66384 0.32905 0.0
C690 C 0.70691 0.65394 0.3395 0.0
H691 H 0.79232 0.73212 0.37323 0.0
H692 H 0.7861 0.71334 0.35492 0.0
H693 H 0.74347 0.7174 0.36349 0.0
H694 H 0.63104 0.61799 0.36601 0.0
H695 H 0.59288 0.63461 0.34769 0.0
H696 H 0.64586 0.8429 0.29729 0.0
H697 H 0.64468 0.90842 0.30353 0.0
H698 H 0.57254 0.84755 0.34208 0.0
H699 H 0.57391 0.78264 0.33605 0.0
H700 H 0.56726 0.90486 0.30476 0.0
H701 H 0.65165 0.96813 0.35646 0.0
H702 H 0.66103 0.93276 0.34511 0.0
H703 H 0.61651 0.91131 0.35753 0.0
C704 C 0.63107 0.8441 0.30735 0.0
C705 C 0.60953 0.80757 0.31611 0.0
C706 C 0.63043 0.88149 0.31088 0.0
C707 C 0.60891 0.88295 0.32333 0.0
C708 C 0.59016 0.84751 0.33259 0.0
H709 H 0.45144 0.96424 0.35933 0.0
H710 H 0.49648 0.93478 0.35183 0.0
C711 C 0.59051 0.8102 0.32904 0.0
C712 C 0.59873 0.91746 0.32544 0.0
H713 H 0.59055 0.97869 0.35197 0.0
C714 C 0.57346 0.92217 0.31489 0.0
C715 C 0.60685 0.93985 0.33866 0.0
C716 C 0.63591 0.93807 0.35 0.0
C717 C 0.55283 0.94557 0.31775 0.0
C718 C 0.55824 0.96509 0.33142 0.0
C719 C 0.58613 0.96315 0.34155 0.0
C720 C 0.53195 0.98388 0.33592 0.0
C721 C 0.52295 0.94662 0.30655 0.0
C722 C 0.53707 0.02109 0.32938 0.0
C723 C 0.51123 0.03789 0.33356 0.0
C724 C 0.47998 0.01781 0.34441 0.0
C725 C 0.47503 0.98044 0.35091 0.0
C726 C 0.50088 0.9637 0.34671 0.0
H727 H 0.5179 0.92493 0.29729 0.0
H728 H 0.4913 0.93729 0.31145 0.0
H729 H 0.53665 0.97971 0.30236 0.0
H730 H 0.56117 0.03721 0.3211 0.0
H731 H 0.5161 0.06687 0.32837 0.0
H732 H 0.42832 0.51904 0.50958 0.0
H733 H 0.50452 0.55915 0.50353 0.0
H734 H 0.52987 0.48656 0.53493 0.0
H735 H 0.45371 0.44684 0.54133 0.0
H736 H 0.59329 0.57407 0.53403 0.0
H737 H 0.55451 0.49998 0.47927 0.0
H738 H 0.52831 0.52948 0.48407 0.0
H739 H 0.51573 0.48141 0.49371 0.0
C740 C 0.45014 0.51186 0.51531 0.0
C741 C 0.43492 0.47928 0.52578 0.0
C742 C 0.49364 0.5348 0.51182 0.0
C743 C 0.52253 0.52512 0.51856 0.0
C744 C 0.50791 0.49431 0.52957 0.0
H745 H 0.76327 0.54611 0.50876 0.0
H746 H 0.69744 0.54183 0.51747 0.0
C747 C 0.46442 0.47161 0.53319 0.0
C748 C 0.56727 0.54461 0.51343 0.0
H749 H 0.6271 0.54644 0.48457 0.0
C750 C 0.60078 0.56845 0.52318 0.0
C751 C 0.5768 0.53723 0.49924 0.0
C752 C 0.54203 0.51036 0.48848 0.0
C753 C 0.64371 0.58423 0.5192 0.0
C754 C 0.65306 0.5755 0.5052 0.0
C755 C 0.6197 0.5533 0.49527 0.0
C756 C 0.69625 0.58398 0.50113 0.0
C757 C 0.67864 0.60941 0.53007 0.0
C758 C 0.71737 0.60912 0.48903 0.0
C759 C 0.75511 0.61155 0.48396 0.0
C760 C 0.77176 0.58824 0.49079 0.0
C761 C 0.75117 0.56426 0.50319 0.0
C762 C 0.71377 0.56214 0.5083 0.0
H763 H 0.66809 0.6247 0.53829 0.0
H764 H 0.68675 0.58738 0.53577 0.0
H765 H 0.70813 0.63461 0.52472 0.0
H766 H 0.70393 0.62577 0.48327 0.0
H767 H 0.77019 0.63022 0.47436 0.0
H768 H 0.13823 0.78596 0.62679 0.0
H769 H 0.07428 0.71446 0.62834 0.0
H770 H 0.11026 0.70063 0.67153 0.0
H771 H 0.17438 0.77138 0.66997 0.0
H772 H 0.09059 0.64375 0.63369 0.0
H773 H 0.97665 0.6478 0.67305 0.0
H774 H 0.01445 0.6943 0.66285 0.0
H775 H 0.03179 0.67824 0.67863 0.0
C776 C 0.13159 0.76822 0.6368 0.0
C777 C 0.16119 0.78389 0.64826 0.0
C778 C 0.0952 0.72748 0.63764 0.0
C779 C 0.08757 0.70264 0.65008 0.0
C780 C 0.11534 0.7197 0.66193 0.0
H781 H 0.02605 0.46601 0.6799 0.0
H782 H 0.05501 0.53648 0.66871 0.0
C783 C 0.15203 0.75995 0.66101 0.0
C784 C 0.05572 0.65656 0.65001 0.0
H785 H 0.97544 0.58038 0.67059 0.0
C786 C 0.06447 0.62972 0.64142 0.0
C787 C 0.02176 0.63858 0.66007 0.0
C788 C 0.01026 0.66622 0.6691 0.0
C789 C 0.04253 0.58535 0.64361 0.0
C790 C 0.01127 0.56782 0.65459 0.0
C791 C -0.0002 0.59418 0.66225 0.0
C792 C -0.00564 0.52358 0.65963 0.0
C793 C 0.05456 0.55778 0.63476 0.0
C794 C 0.95083 0.4932 0.65806 0.0
C795 C 0.93423 0.45283 0.66434 0.0
C796 C 0.96085 0.44265 0.67252 0.0
C797 C 0.00473 0.47293 0.67372 0.0
C798 C 0.02135 0.51305 0.66728 0.0
H799 H 0.07086 0.57383 0.62455 0.0
H800 H 0.07688 0.55138 0.64109 0.0
H801 H 0.02573 0.52651 0.63215 0.0
H802 H 0.92959 0.50108 0.65227 0.0
H803 H 0.90023 0.43025 0.66326 0.0
H804 H 0.46257 0.24667 0.84233 0.0
H805 H 0.46725 0.18701 0.85264 0.0
H806 H 0.36048 0.09807 0.82642 0.0
H807 H 0.35555 0.15754 0.81588 0.0
H808 H 0.4032 0.10613 0.86684 0.0
H809 H 0.46602 0.08599 0.81412 0.0
H810 H 0.46394 0.13366 0.81854 0.0
H811 H 0.41573 0.08522 0.81375 0.0
C812 C 0.43973 0.21444 0.83883 0.0
C813 C 0.40907 0.20695 0.82811 0.0
C814 C 0.44231 0.18041 0.84482 0.0
C815 C 0.41443 0.13841 0.84018 0.0
C816 C 0.38242 0.13046 0.83003 0.0
H817 H 0.45726 0.92415 0.84901 0.0
H818 H 0.42052 0.9645 0.84489 0.0
C819 C 0.37974 0.16448 0.82403 0.0
C820 C 0.42188 0.10375 0.84491 0.0
H821 H 0.46249 0.04181 0.83311 0.0
C822 C 0.4157 0.09158 0.85948 0.0
C823 C 0.43829 0.08518 0.83523 0.0
C824 C 0.44674 0.09822 0.81955 0.0
C825 C 0.42596 0.06129 0.86468 0.0
C826 C 0.4436 0.04368 0.85507 0.0
C827 C 0.44872 0.0552 0.84044 0.0
C828 C 0.45974 0.01533 0.85991 0.0
C829 C 0.41788 0.04854 0.88037 0.0
C830 C 0.49316 0.02995 0.87005 0.0
C831 C 0.51398 0.00669 0.87253 0.0
C832 C 0.5022 0.96901 0.86468 0.0
C833 C 0.46732 0.95338 0.85509 0.0
C834 C 0.44619 0.97626 0.85277 0.0
H835 H 0.39204 0.05338 0.8849 0.0
H836 H 0.40886 0.0145 0.88185 0.0
H837 H 0.44756 0.06887 0.88664 0.0
H838 H 0.50483 0.06052 0.87541 0.0
H839 H 0.54091 0.01954 0.87993 0.0
H840 H 0.2142 0.34787 0.96252 0.0
H841 H 0.28419 0.35206 0.96517 0.0
H842 H 0.30499 0.42126 0.00521 0.0
H843 H 0.236 0.41754 0.00259 0.0
H844 H 0.36078 0.43343 0.96661 0.0
H845 H 0.34604 0.33628 0.01449 0.0
H846 H 0.30018 0.3276 0.00391 0.0
H847 H 0.32196 0.3687 0.0176 0.0
C848 C 0.23335 0.36292 0.97206 0.0
C849 C 0.22 0.38262 0.98232 0.0
C850 C 0.27316 0.3653 0.97354 0.0
C851 C 0.29933 0.38641 0.98548 0.0
C852 C 0.28485 0.40402 -0.00392 0.0
H853 H 0.53012 0.54316 0.02195 0.0
H854 H 0.45775 0.49657 0.01279 0.0
C855 C 0.24563 0.40225 0.9945 0.0
C856 C 0.34425 0.39622 0.98615 0.0
H857 H 0.41639 0.40014 0.01072 0.0
C858 C 0.37311 0.42499 0.97595 0.0
C859 C 0.36 0.38497 -0.00168 0.0
C860 C 0.33031 0.35231 0.00912 0.0
C861 C 0.41747 0.44643 0.97848 0.0
C862 C 0.43284 0.4384 0.99142 0.0
C863 C 0.40426 0.40653 0.00088 0.0
C864 C 0.47713 0.4669 -0.00362 0.0
C865 C 0.44731 0.48021 0.96798 0.0
C866 C 0.51182 0.4658 0.99 0.0
C867 C 0.55338 0.49252 0.99519 0.0
C868 C 0.56072 0.52062 0.00685 0.0
C869 C 0.52573 0.522 0.01298 0.0
C870 C 0.48433 0.49529 0.00781 0.0
H871 H 0.4299 0.48379 0.95869 0.0
H872 H 0.4655 0.51159 0.97359 0.0
H873 H 0.47092 0.47165 0.96378 0.0
H874 H 0.50667 0.44391 0.98119 0.0
H875 H 0.57958 0.49058 0.99021 0.0
H876 H 0.94994 0.50917 0.21439 0.0
H877 H 0.90584 0.43151 0.21156 0.0
H878 H 0.9868 0.43514 0.17659 0.0
H879 H 0.03131 0.5125 0.17938 0.0
H880 H 0.86326 0.39646 0.18565 0.0
H881 H 0.96805 0.33043 0.19994 0.0
H882 H 0.97915 0.38298 0.20566 0.0
H883 H -0.0076 0.37476 0.18765 0.0
C884 C 0.95886 0.4934 0.20627 0.0
C885 C -0.00605 0.51711 0.19702 0.0
C886 C 0.93373 0.44903 0.20472 0.0
C887 C 0.94353 0.42767 0.19403 0.0
C888 C 0.97935 0.45097 0.18514 0.0
H889 H 0.81778 0.19982 0.14403 0.0
H890 H 0.87041 0.26391 0.15712 0.0
C891 C 0.00443 0.49528 0.18664 0.0
C892 C 0.91312 0.3823 0.19073 0.0
H893 H 0.90541 0.28489 0.18581 0.0
C894 C 0.87211 0.37181 0.18595 0.0
C895 C 0.92518 0.35058 0.19098 0.0
C896 C 0.96849 0.36009 0.19646 0.0
C897 C 0.8433 0.33078 0.18078 0.0
C898 C 0.85556 0.29915 0.18077 0.0
C899 C 0.89619 0.30926 0.18591 0.0
C900 C 0.82719 0.25631 0.1746 0.0
C901 C 0.80082 0.32233 0.1747 0.0
C902 C 0.78637 0.23001 0.1805 0.0
C903 C 0.75619 0.19395 0.17296 0.0
C904 C 0.76671 0.18327 0.15955 0.0
C905 C 0.80885 0.20744 0.15432 0.0
C906 C 0.8389 0.24394 0.16179 0.0
H907 H 0.80056 0.35248 0.17255 0.0
H908 H 0.79322 0.3037 0.16449 0.0
H909 H 0.77498 0.30337 0.18259 0.0
H910 H 0.77714 0.23871 0.19053 0.0
H911 H 0.7241 0.17538 0.17735 0.0
H912 H 0.90134 0.44505 0.49363 0.0
H913 H 0.93699 0.40486 0.49967 0.0
H914 H 0.02161 0.46025 0.46318 0.0
H915 H 0.98534 0.49994 0.45677 0.0
H916 H 0.99002 0.37266 0.46603 0.0
H917 H 0.05474 0.45789 0.51816 0.0
H918 H -0.00247 0.43261 0.51638 0.0
H919 H 0.03166 0.47652 0.50476 0.0
C920 C 0.92767 0.44892 0.48689 0.0
C921 C 0.94084 0.47609 0.47479 0.0
C922 C 0.94799 0.4259 0.49039 0.0
C923 C 0.98229 0.43016 0.48201 0.0
C924 C -0.00482 0.45668 0.4698 0.0
H925 H 0.18751 0.38536 0.48432 0.0
H926 H 0.12655 0.39302 0.47724 0.0
C927 C 0.97457 0.47944 0.46619 0.0
C928 C 0.0054 0.40763 0.48611 0.0
H929 H 0.0688 0.40257 0.51243 0.0
C930 C 0.00701 0.37892 0.47621 0.0
C931 C 0.02727 0.41575 0.49945 0.0
C932 C 0.02813 0.44762 0.51026 0.0
C933 C 0.03095 0.3589 0.47916 0.0
C934 C 0.05381 0.36808 0.49229 0.0
C935 C 0.05074 0.39534 0.50243 0.0
C936 C 0.08603 0.35513 0.49491 0.0
C937 C 0.03238 0.32882 0.46813 0.0
C938 C 0.08301 0.33061 0.50705 0.0
C939 C 0.11786 0.326 0.51111 0.0
C940 C 0.15633 0.34674 0.50322 0.0
C941 C 0.15829 0.36927 0.49063 0.0
C942 C 0.12338 0.37334 0.4865 0.0
H943 H 0.00408 0.3155 0.46084 0.0
H944 H 0.06164 0.34661 0.46141 0.0
H945 H 0.03369 0.30195 0.47344 0.0
H946 H 0.05451 0.31677 0.51375 0.0
H947 H 0.11564 0.30866 0.5209 0.0
H948 H 0.47766 0.93574 0.62562 0.0
H949 H 0.55088 0.97228 0.63517 0.0
H950 H 0.50137 0.96563 0.67816 0.0
H951 H 0.4284 0.92736 0.6688 0.0
H952 H 0.58785 0.04664 0.64645 0.0
H953 H 0.59249 0.93863 0.68743 0.0
H954 H 0.5494 0.92064 0.67448 0.0
H955 H 0.5482 0.94677 0.69098 0.0
C956 C 0.48251 0.94144 0.63714 0.0
C957 C 0.4475 0.92887 0.64647 0.0
C958 C 0.52425 0.96207 0.64259 0.0
C959 C 0.53166 0.97105 0.65743 0.0
C960 C 0.49656 0.95777 0.66677 0.0
H961 H 0.73417 0.19962 0.69205 0.0
H962 H 0.66615 0.13698 0.68512 0.0
C963 C 0.45483 0.93634 0.66137 0.0
C964 C 0.57572 -0.00049 0.66284 0.0
H965 H 0.64356 0.01489 0.69087 0.0
C966 C 0.60028 0.03917 0.65599 0.0
C967 C 0.59236 0.98974 0.67518 0.0
C968 C 0.56933 0.94638 0.68232 0.0
C969 C 0.63986 0.07018 0.66156 0.0
C970 C 0.65458 0.06191 0.67463 0.0
C971 C 0.63149 0.02143 0.68106 0.0
C972 C 0.69321 0.09588 0.68184 0.0
C973 C 0.66525 0.11183 0.65347 0.0
C974 C 0.73001 0.09226 0.68334 0.0
C975 C 0.7688 0.12785 0.6876 0.0
C976 C 0.77098 0.16729 0.69022 0.0
C977 C 0.7333 0.16966 0.68988 0.0
C978 C 0.69457 0.13403 0.68589 0.0
H979 H 0.65643 0.108 0.64184 0.0
H980 H 0.65819 0.13606 0.65809 0.0
H981 H 0.70028 0.12427 0.65436 0.0
H982 H 0.72933 0.06286 0.68036 0.0
H983 H 0.79754 0.12536 0.68779 0.0
H984 H 0.66976 0.82107 0.84706 0.0
H985 H 0.65894 0.75274 0.83773 0.0
H986 H 0.57389 0.75253 0.80497 0.0
H987 H 0.58428 0.82054 0.81421 0.0
H988 H 0.56943 0.68241 0.83778 0.0
H989 H 0.64714 0.70716 0.78399 0.0
H990 H 0.66549 0.749 0.79751 0.0
H991 H 0.61802 0.73489 0.78722 0.0
C992 C 0.64985 0.80716 0.83758 0.0
C993 C 0.62743 0.82581 0.83146 0.0
C994 C 0.64374 0.76819 0.83228 0.0
C995 C 0.61585 0.74792 0.82063 0.0
C996 C 0.59602 0.76807 0.81384 0.0
H997 H 0.47771 0.49228 0.78443 0.0
H998 H 0.51144 0.5696 0.78897 0.0
C999 C 0.60171 0.80672 0.81921 0.0
C1000 C 0.60137 0.70276 0.81725 0.0
H1001 H 0.59684 0.6353 0.79054 0.0
C1002 C 0.57585 0.67203 0.82753 0.0
C1003 C 0.60916 0.68965 0.80376 0.0
C1004 C 0.63669 0.72182 0.79247 0.0
C1005 C 0.55701 0.62822 0.82458 0.0
C1006 C 0.56508 0.6149 0.81113 0.0
C1007 C 0.59086 0.64569 0.80084 0.0
C1008 C 0.54707 0.56903 0.80769 0.0
C1009 C 0.52745 0.59668 0.83572 0.0
C1010 C 0.55679 0.54357 0.81651 0.0
C1011 C 0.53716 0.49962 0.81411 0.0
C1012 C 0.50805 0.48036 0.80265 0.0
C1013 C 0.49978 0.50622 0.7934 0.0
C1014 C 0.5191 0.5503 0.79595 0.0
H1015 H 0.51499 0.61173 0.84334 0.0
H1016 H 0.49976 0.56871 0.83054 0.0
H1017 H 0.54544 0.5849 0.84213 0.0
H1018 H 0.57916 0.55763 0.8254 0.0
H1019 H 0.54494 0.48075 0.82125 0.0
H1020 H 0.88564 0.6878 0.02195 0.0
H1021 H 0.9517 0.68422 0.01977 0.0
H1022 H 0.8766 0.5495 0.0097 0.0
H1023 H 0.81094 0.55244 0.01193 0.0
H1024 H 0.94687 0.57393 0.03 0.0
H1025 H -0.00695 0.66864 0.97896 0.0
H1026 H 0.98233 0.69035 0.99493 0.0
H1027 H 0.93925 0.64495 0.98604 0.0
C1028 C 0.88324 0.65735 0.0194 0.0
C1029 C 0.84306 0.62051 0.01692 0.0
C1030 C 0.92096 0.65544 0.01816 0.0
C1031 C 0.91879 0.61669 0.01448 0.0
C1032 C 0.87877 0.57969 0.01257 0.0
H1033 H 0.01486 0.49503 0.96743 0.0
H1034 H 0.98607 0.53706 0.97826 0.0
C1035 C 0.84128 0.58153 0.01375 0.0
C1036 C 0.95756 0.61407 0.01153 0.0
H1037 H 0.02542 0.62765 0.98377 0.0
C1038 C 0.96518 0.58669 0.02014 0.0
C1039 C 0.98102 0.63085 -0.00137 0.0
C1040 C 0.97369 0.66028 0.98902 0.0
C1041 C -0.00705 0.57243 0.01551 0.0
C1042 C 0.01383 0.58657 0.00204 0.0
C1043 C 0.00914 0.61695 0.99407 0.0
C1044 C 0.03441 0.56485 0.99499 0.0
C1045 C -0.00323 0.53952 0.02442 0.0
C1046 C 0.07146 0.56721 0.00073 0.0
C1047 C 0.08786 0.54294 0.99463 0.0
C1048 C 0.0675 0.51614 0.98266 0.0
C1049 C 0.0312 0.51512 0.97667 0.0
C1050 C 0.01483 0.53927 0.98279 0.0
H1051 H 0.97467 0.52853 0.03383 0.0
H1052 H 0.98976 0.51122 0.01768 0.0
H1053 H 0.03009 0.55356 0.02851 0.0
H1054 H 0.0872 0.5872 0.01004 0.0
H1055 H 0.11615 0.54481 -0.00057 0.0
H1056 H 0.49735 0.97764 0.10846 0.0
H1057 H 0.42147 0.92886 0.11431 0.0
H1058 H 0.42305 0.02394 0.14309 0.0
H1059 H 0.49851 0.07215 0.13753 0.0
H1060 H 0.40294 0.94652 0.1562 0.0
H1061 H 0.30367 0.92088 0.1072 0.0
H1062 H 0.35069 0.9162 0.10467 0.0
H1063 H 0.35657 0.96713 0.10946 0.0
C1064 C 0.48101 0.98847 0.11568 0.0
C1065 C 0.50372 0.02825 0.12272 0.0
C1066 C 0.43773 0.96073 0.11897 0.0
C1067 C 0.41682 0.97295 0.12912 0.0
C1068 C 0.43871 0.014 0.13524 0.0
H1069 H 0.16205 0.83147 0.1674 0.0
H1070 H 0.22784 0.88658 0.15576 0.0
C1071 C 0.48179 0.04138 0.13209 0.0
C1072 C 0.37492 0.94118 0.1352 0.0
H1073 H 0.26913 0.87491 0.12722 0.0
C1074 C 0.37363 0.93108 0.14988 0.0
C1075 C 0.33691 0.92127 0.1269 0.0
C1076 C 0.33669 0.93204 0.1112 0.0
C1077 C 0.33532 0.90114 0.15649 0.0
C1078 C 0.29751 0.88055 0.14815 0.0
C1079 C 0.29845 0.89093 0.13351 0.0
C1080 C 0.25714 0.84702 0.1545 0.0
C1081 C 0.33544 0.89149 0.17234 0.0
C1082 C 0.25231 0.80688 0.15759 0.0
C1083 C 0.21507 0.77549 0.16424 0.0
C1084 C 0.18199 0.78376 0.16794 0.0
C1085 C 0.187 0.82416 0.16478 0.0
C1086 C 0.22432 0.85554 0.15804 0.0
H1087 H 0.36556 0.91537 0.17777 0.0
H1088 H 0.30783 0.89088 0.17792 0.0
H1089 H 0.33214 0.85937 0.17354 0.0
H1090 H 0.27753 0.79998 0.15493 0.0
H1091 H 0.21233 0.74477 0.1665 0.0
H1092 H 0.4364 0.53684 0.32425 0.0
H1093 H 0.39944 0.46305 0.33296 0.0
H1094 H 0.44414 0.42416 0.29581 0.0
H1095 H 0.48026 0.49771 0.28679 0.0
H1096 H 0.35983 0.36526 0.30334 0.0
H1097 H 0.46863 0.4144 0.35103 0.0
H1098 H 0.43803 0.44095 0.34915 0.0
H1099 H 0.47828 0.44966 0.33597 0.0
C1100 C 0.43811 0.51251 0.31788 0.0
C1101 C 0.46179 0.52313 0.30495 0.0
C1102 C 0.41702 0.47044 0.32288 0.0
C1103 C 0.4199 0.4385 0.31518 0.0
C1104 C 0.44174 0.44853 0.30193 0.0
H1105 H 0.40643 0.20328 0.32108 0.0
H1106 H 0.40674 0.26882 0.31462 0.0
C1107 C 0.46242 0.49053 0.29681 0.0
C1108 C 0.40276 0.39524 0.32129 0.0
H1109 H 0.41936 0.34119 0.34834 0.0
C1110 C 0.37237 0.35995 0.31328 0.0
C1111 C 0.41915 0.38857 0.3343 0.0
C1112 C 0.45306 0.42529 0.34309 0.0
C1113 C 0.35924 0.318 0.31764 0.0
C1114 C 0.37718 0.31149 0.33025 0.0
C1115 C 0.4056 0.34659 0.33871 0.0
C1116 C 0.37223 0.26945 0.33367 0.0
C1117 C 0.32742 0.28098 0.3085 0.0
C1118 C 0.35305 0.24851 0.34662 0.0
C1119 C 0.35276 0.21086 0.35037 0.0
C1120 C 0.37248 0.19435 0.34134 0.0
C1121 C 0.39124 0.21535 0.32832 0.0
C1122 C 0.39104 0.25252 0.32452 0.0
H1123 H 0.30774 0.2901 0.30179 0.0
H1124 H 0.34506 0.27086 0.30114 0.0
H1125 H 0.30577 0.25315 0.31534 0.0
H1126 H 0.33894 0.26165 0.35389 0.0
H1127 H 0.33818 0.19538 0.36049 0.0
H1128 H 0.01156 0.72401 0.44586 0.0
H1129 H 0.07573 0.77272 0.43234 0.0
H1130 H 0.08395 0.6655 0.41545 0.0
H1131 H 0.01905 0.61614 0.42874 0.0
H1132 H 0.15823 0.78608 0.43233 0.0
H1133 H 0.07888 0.72668 0.37898 0.0
H1134 H 0.0492 0.71285 0.3957 0.0
H1135 H 0.07913 0.68722 0.39071 0.0
C1136 C 0.0271 0.71065 0.43939 0.0
C1137 C 0.00979 0.6661 0.43824 0.0
C1138 C 0.06381 0.73858 0.43167 0.0
C1139 C 0.08398 0.72258 0.4227 0.0
C1140 C 0.0682 0.67833 0.42208 0.0
H1141 H 0.32602 0.91622 0.38372 0.0
H1142 H 0.27315 0.8483 0.3946 0.0
C1143 C 0.03126 0.65025 0.42974 0.0
C1144 C 0.12057 0.75262 0.41369 0.0
H1145 H 0.14974 0.78444 0.37883 0.0
C1146 C 0.15674 0.7855 0.42062 0.0
C1147 C 0.11808 0.75175 0.39844 0.0
C1148 C 0.07917 0.71799 0.39046 0.0
C1149 C 0.18992 0.81863 0.41273 0.0
C1150 C 0.18719 0.81811 0.39748 0.0
C1151 C 0.15175 0.78439 0.39051 0.0
C1152 C 0.21852 0.85471 0.38875 0.0
C1153 C 0.22631 0.85509 0.42085 0.0
C1154 C 0.20493 0.87927 0.38109 0.0
C1155 C 0.23493 0.91778 0.3747 0.0
C1156 C 0.27902 0.93241 0.37598 0.0
C1157 C 0.29229 0.90614 0.38277 0.0
C1158 C 0.2622 0.86742 0.38902 0.0
H1159 H 0.21893 0.85485 0.43252 0.0
H1160 H 0.2555 0.85226 0.41991 0.0
H1161 H 0.23367 0.88645 0.41626 0.0
H1162 H 0.17125 0.86977 0.3807 0.0
H1163 H 0.22366 0.93716 0.36949 0.0
H1164 H 0.36677 0.3164 0.56679 0.0
H1165 H 0.39086 0.26875 0.57573 0.0
H1166 H 0.33228 0.18498 0.53914 0.0
H1167 H 0.30667 0.232 0.53031 0.0
H1168 H 0.30369 0.14363 0.56341 0.0
H1169 H 0.48027 0.23697 0.56725 0.0
H1170 H 0.45695 0.26512 0.5758 0.0
H1171 H 0.45006 0.25472 0.55665 0.0
C1172 C 0.35973 0.28834 0.56045 0.0
C1173 C 0.33422 0.27763 0.54794 0.0
C1174 C 0.37407 0.26136 0.5655 0.0
C1175 C 0.36392 0.2236 0.55801 0.0
C1176 C 0.34066 0.21413 0.54505 0.0
H1177 H 0.39788 0.01687 0.59154 0.0
H1178 H 0.41188 0.07986 0.5775 0.0
C1179 C 0.32583 0.24087 0.54006 0.0
C1180 C 0.37092 0.19083 0.56502 0.0
H1181 H 0.44434 0.17653 0.58382 0.0
C1182 C 0.33468 0.15062 0.56757 0.0
C1183 C 0.41135 0.19986 0.57045 0.0
C1184 C 0.45189 0.24141 0.56725 0.0
C1185 C 0.33727 0.12002 0.57602 0.0
C1186 C 0.37698 0.13023 0.58233 0.0
C1187 C 0.41382 0.16939 0.57918 0.0
C1188 C 0.37953 0.10028 0.59246 0.0
C1189 C 0.29718 0.07729 0.57847 0.0
C1190 C 0.35884 0.09264 0.60586 0.0
C1191 C 0.35041 0.05658 0.61385 0.0
C1192 C 0.36274 0.02779 0.60854 0.0
C1193 C 0.38766 0.03824 0.59588 0.0
C1194 C 0.39583 0.07425 0.58784 0.0
H1195 H 0.27186 0.07102 0.57041 0.0
H1196 H 0.30439 0.05078 0.57796 0.0
H1197 H 0.28422 0.07706 0.58938 0.0
H1198 H 0.34633 0.11276 0.60958 0.0
H1199 H 0.33174 0.04979 0.62367 0.0
H1200 H 0.37287 0.3929 0.75402 0.0
H1201 H 0.3232 0.40466 0.73952 0.0
H1202 H 0.21691 0.3097 0.76446 0.0
H1203 H 0.26619 0.29779 0.77913 0.0
H1204 H 0.25574 0.34191 0.72278 0.0
H1205 H 0.19707 0.41249 0.76382 0.0
H1206 H 0.24553 0.40998 0.76621 0.0
H1207 H 0.19397 0.36363 0.7697 0.0
C1208 C 0.33898 0.37482 0.75657 0.0
C1209 C 0.32349 0.34429 0.76775 0.0
C1210 C 0.31072 0.38161 0.74825 0.0
C1211 C 0.26661 0.35834 0.75103 0.0
C1212 C 0.25103 0.32848 0.76232 0.0
H1213 H 0.0396 0.27078 0.70385 0.0
H1214 H 0.10991 0.28631 0.71238 0.0
C1215 C 0.27923 0.32159 0.77065 0.0
C1216 C 0.23638 0.36321 0.74163 0.0
H1217 H 0.15372 0.38339 0.74262 0.0
C1218 C 0.23383 0.35166 0.72702 0.0
C1219 C 0.20852 0.37668 0.74716 0.0
C1220 C 0.21162 0.39183 0.76255 0.0
C1221 C 0.20224 0.3508 0.71797 0.0
C1222 C 0.17233 0.3612 0.7238 0.0
C1223 C 0.17657 0.37517 0.73819 0.0
C1224 C 0.13393 0.35403 0.71576 0.0
C1225 C 0.20072 0.33803 0.70236 0.0
C1226 C 0.12442 0.38711 0.71457 0.0
C1227 C 0.08402 0.37824 0.70986 0.0
C1228 C 0.05242 0.33605 0.70633 0.0
C1229 C 0.06318 0.3036 0.70649 0.0
C1230 C 0.10353 0.31249 0.71128 0.0
H1231 H 0.23295 0.34557 0.69847 0.0
H1232 H 0.17899 0.30292 0.70129 0.0
H1233 H 0.18851 0.35444 0.69532 0.0
H1234 H 0.14749 0.41937 0.71799 0.0
H1235 H 0.0769 0.40406 0.70971 0.0
H1236 H 0.64748 0.05571 0.89831 0.0
H1237 H 0.69078 0.12229 0.91162 0.0
H1238 H 0.80587 0.13209 0.89358 0.0
H1239 H 0.76277 0.06596 0.87998 0.0
H1240 H 0.74628 0.13172 0.93224 0.0
H1241 H 0.8315 0.25403 0.89034 0.0
H1242 H 0.78504 0.20265 0.88631 0.0
H1243 H 0.83761 0.20829 0.88727 0.0
C1244 C 0.682 0.07244 0.89696 0.0
C1245 C 0.7018 0.05541 0.88818 0.0
C1246 C 0.70662 0.11053 0.90455 0.0
C1247 C 0.75144 0.13231 0.90349 0.0
C1248 C 0.77123 0.11632 0.89429 0.0
H1249 H 0.95295 0.25437 0.96016 0.0
H1250 H 0.8833 0.20722 0.94938 0.0
C1251 C 0.74659 0.07837 0.88659 0.0
C1252 C 0.7778 0.16869 0.91323 0.0
H1253 H 0.86707 0.26767 0.91366 0.0
C1254 C 0.7721 0.1619 0.92819 0.0
C1255 C 0.81076 0.20838 0.90797 0.0
C1256 C 0.81625 0.21893 0.89208 0.0
C1257 C 0.80077 0.19243 0.93801 0.0
C1258 C 0.83643 0.23014 0.93267 0.0
C1259 C 0.84 0.23846 0.91777 0.0
C1260 C 0.87335 0.25846 0.94193 0.0
C1261 C 0.7933 0.18334 0.95396 0.0
C1262 C 0.89062 0.30298 0.94158 0.0
C1263 C 0.93091 0.33016 0.94757 0.0
C1264 C 0.95462 0.31319 0.95395 0.0
C1265 C 0.93563 0.26854 0.95532 0.0
C1266 C 0.89552 0.24144 0.94925 0.0
H1267 H 0.75846 0.16383 0.95637 0.0
H1268 H 0.80849 0.1646 0.95742 0.0
H1269 H 0.80716 0.21335 0.96041 0.0
H1270 H 0.87401 0.31672 0.93597 0.0
H1271 H 0.94443 0.36444 0.94647 0.0
H1272 H 0.60232 0.98827 0.07563 0.0
H1273 H 0.59189 0.9292 0.05996 0.0
H1274 H 0.67397 0.90538 0.08756 0.0
H1275 H 0.6843 0.96394 0.1034 0.0
H1276 H 0.6551 0.92244 0.04497 0.0
H1277 H 0.56855 0.78651 0.08248 0.0
H1278 H 0.57377 0.83836 0.08565 0.0
H1279 H 0.61673 0.82883 0.09039 0.0
C1280 C 0.6178 0.97019 0.07848 0.0
C1281 C 0.64417 0.98086 0.0908 0.0
C1282 C 0.61179 0.93651 0.06949 0.0
C1283 C 0.63171 0.91272 0.07272 0.0
C1284 C 0.65762 0.92289 0.08506 0.0
H1285 H 0.73356 0.78359 0.02899 0.0
H1286 H 0.71275 0.83583 0.03585 0.0
C1287 C 0.66366 0.95652 0.09406 0.0
C1288 C 0.62765 0.87874 0.06283 0.0
H1289 H 0.60543 0.77532 0.0627 0.0
C1290 C 0.64344 0.88997 0.0487 0.0
C1291 C 0.61146 0.83627 0.06762 0.0
C1292 C 0.59123 0.82163 0.08232 0.0
C1293 C 0.64647 0.86048 0.03958 0.0
C1294 C 0.63409 0.81918 0.0449 0.0
C1295 C 0.61531 0.80713 0.05864 0.0
C1296 C 0.64481 0.78961 0.03732 0.0
C1297 C 0.66382 0.8742 0.02451 0.0
C1298 C 0.61349 0.74636 0.03557 0.0
C1299 C 0.62545 0.71625 0.03194 0.0
C1300 C 0.66894 0.729 0.02994 0.0
C1301 C 0.6998 0.7728 0.03043 0.0
C1302 C 0.68787 0.80282 0.03425 0.0
H1303 H 0.65583 0.89817 0.0203 0.0
H1304 H 0.69931 0.88959 0.02477 0.0
H1305 H 0.65096 0.84653 0.01696 0.0
H1306 H 0.5801 0.73552 0.0379 0.0
H1307 H 0.60088 0.68274 0.03146 0.0
H1308 H 0.58921 0.57535 0.24925 0.0
H1309 H 0.63171 0.55538 0.23385 0.0
H1310 H 0.74342 0.63324 0.26003 0.0
H1311 H 0.70143 0.65296 0.2755 0.0
H1312 H 0.70075 0.61486 0.21807 0.0
H1313 H 0.7514 0.52609 0.25364 0.0
H1314 H 0.70621 0.53297 0.25785 0.0
H1315 H 0.76 0.57421 0.26236 0.0
C1316 C 0.62255 0.58729 0.25196 0.0
C1317 C 0.64208 0.61604 0.26354 0.0
C1318 C 0.64673 0.57589 0.24313 0.0
C1319 C 0.6905 0.59253 0.2459 0.0
C1320 C 0.70944 0.61936 0.25788 0.0
H1321 H 0.91937 0.70566 0.20254 0.0
H1322 H 0.84454 0.67932 0.20921 0.0
C1323 C 0.68545 0.6309 0.26666 0.0
C1324 C 0.71815 0.58679 0.23544 0.0
H1325 H 0.80181 0.56834 0.2346 0.0
C1326 C 0.72213 0.60354 0.22149 0.0
C1327 C 0.74523 0.57111 0.23978 0.0
C1328 C 0.74013 0.54964 0.25418 0.0
C1329 C 0.75541 0.6089 0.21229 0.0
C1330 C 0.78573 0.59807 0.21736 0.0
C1331 C 0.77903 0.57738 0.23075 0.0
C1332 C 0.82728 0.61246 0.21004 0.0
C1333 C 0.75856 0.62751 0.19748 0.0
C1334 C 0.84236 0.58371 0.20811 0.0
C1335 C 0.8853 0.59892 0.20474 0.0
C1336 C 0.91367 0.64305 0.20304 0.0
C1337 C 0.89792 0.6715 0.20374 0.0
C1338 C 0.85506 0.65635 0.20742 0.0
H1339 H 0.72614 0.6176 0.19313 0.0
H1340 H 0.77638 0.663 0.19823 0.0
H1341 H 0.77547 0.61743 0.18976 0.0
H1342 H 0.82155 0.54978 0.21008 0.0
H1343 H 0.89677 0.57635 0.20409 0.0
H1344 H 0.7173 0.43606 0.4672 0.0
H1345 H 0.65263 0.37715 0.45584 0.0
H1346 H 0.73254 0.34989 0.42818 0.0
H1347 H 0.79634 0.40742 0.43945 0.0
H1348 H 0.63269 0.37257 0.42613 0.0
H1349 H 0.64433 0.23185 0.44268 0.0
H1350 H 0.67304 0.28281 0.45188 0.0
H1351 H 0.69442 0.27321 0.4356 0.0
C1352 C 0.7208 0.41662 0.45896 0.0
C1353 C 0.76171 0.42623 0.45417 0.0
C1354 C 0.684 0.38333 0.45244 0.0
C1355 C 0.68795 0.35904 0.44128 0.0
C1356 C 0.72878 0.36773 0.43694 0.0
H1357 H 0.5433 0.22982 0.36543 0.0
H1358 H 0.58848 0.28339 0.38364 0.0
C1359 C 0.76523 0.40081 0.44334 0.0
C1360 C 0.65025 0.32657 0.4332 0.0
H1361 H 0.60704 0.22487 0.42026 0.0
C1362 C 0.62623 0.33991 0.42506 0.0
C1363 C 0.64174 0.28401 0.43194 0.0
C1364 C 0.66449 0.26703 0.44112 0.0
C1365 C 0.5954 0.31226 0.41505 0.0
C1366 C 0.58949 0.27078 0.41294 0.0
C1367 C 0.61202 0.25692 0.42167 0.0
C1368 C 0.56009 0.24064 0.40188 0.0
C1369 C 0.56972 0.32782 0.40684 0.0
C1370 C 0.52983 0.19892 0.40603 0.0
C1371 C 0.50558 0.1683 0.3957 0.0
C1372 C 0.51025 0.17877 0.38095 0.0
C1373 C 0.53927 0.22096 0.37673 0.0
C1374 C 0.5646 0.25161 0.38714 0.0
H1375 H 0.56798 0.35365 0.41283 0.0
H1376 H 0.58557 0.34119 0.39633 0.0
H1377 H 0.53658 0.30132 0.40471 0.0
H1378 H 0.5256 0.18971 0.41731 0.0
H1379 H 0.48296 0.1362 0.39934 0.0
H1380 H 0.36467 0.78753 0.60605 0.0
H1381 H 0.34851 0.72221 0.59309 0.0
H1382 H 0.22776 0.6532 0.61558 0.0
H1383 H 0.24383 0.71907 0.62873 0.0
H1384 H 0.32563 0.63765 0.60479 0.0
H1385 H 0.20035 0.64079 0.57036 0.0
H1386 H 0.24015 0.68773 0.5799 0.0
H1387 H 0.19701 0.64497 0.58966 0.0
C1388 C 0.33493 0.75833 0.60841 0.0
C1389 C 0.3054 0.75829 0.61834 0.0
C1390 C 0.32575 0.72113 0.60098 0.0
C1391 C 0.28674 0.68331 0.60325 0.0
C1392 C 0.25784 0.68242 0.61362 0.0
H1393 H 0.24178 0.44458 0.56606 0.0
H1394 H 0.23376 0.49654 0.58068 0.0
C1395 C 0.26723 0.71978 0.62121 0.0
C1396 C 0.27674 0.64551 0.59435 0.0
H1397 H 0.21967 0.58884 0.56477 0.0
C1398 C 0.30207 0.6265 0.59617 0.0
C1399 C 0.24645 0.63182 0.58299 0.0
C1400 C 0.21942 0.65235 0.58047 0.0
C1401 C 0.29846 0.59447 0.58675 0.0
C1402 C 0.26841 0.58093 0.57532 0.0
C1403 C 0.24256 0.59944 0.57359 0.0
C1404 C 0.26428 0.54768 0.5651 0.0
C1405 C 0.32766 0.57613 0.58883 0.0
C1406 C 0.28203 0.55886 0.55118 0.0
C1407 C 0.28641 0.52902 0.54271 0.0
C1408 C 0.27343 0.48814 0.54823 0.0
C1409 C 0.25258 0.47621 0.56167 0.0
C1410 C 0.24784 0.5057 0.57001 0.0
H1411 H 0.35421 0.59549 0.59649 0.0
H1412 H 0.30879 0.54316 0.5932 0.0
H1413 H 0.34169 0.57422 0.57836 0.0
H1414 H 0.2949 0.5913 0.54728 0.0
H1415 H 0.30258 0.53881 0.53237 0.0
H1416 H 0.56813 0.31354 0.80657 0.0
H1417 H 0.63303 0.31372 0.798 0.0
H1418 H 0.64671 0.40117 0.76397 0.0
H1419 H 0.58349 0.4018 0.77249 0.0
H1420 H 0.641 0.28585 0.77123 0.0
H1421 H 0.76828 0.45384 0.77801 0.0
H1422 H 0.71775 0.43168 0.78749 0.0
H1423 H 0.72296 0.45212 0.7694 0.0
C1424 C 0.5858 0.33359 0.79751 0.0
C1425 C 0.57071 0.35742 0.79013 0.0
C1426 C 0.62264 0.33357 0.79262 0.0
C1427 C 0.64497 0.35798 0.78049 0.0
C1428 C 0.63068 0.38296 0.77355 0.0
H1429 H 0.76061 0.31568 0.70758 0.0
H1430 H 0.71355 0.31606 0.72666 0.0
C1431 C 0.59415 0.38287 0.77835 0.0
C1432 C 0.68016 0.3543 0.77378 0.0
H1433 H 0.77611 0.41635 0.75713 0.0
C1434 C 0.67113 0.31416 0.76846 0.0
C1435 C 0.71972 0.39109 0.77039 0.0
C1436 C 0.73286 0.43448 0.77679 0.0
C1437 C 0.6992 0.31045 0.75883 0.0
C1438 C 0.73635 0.34803 0.75412 0.0
C1439 C 0.747 0.38762 0.7604 0.0
C1440 C 0.7643 0.34747 0.74251 0.0
C1441 C 0.68838 0.26644 0.75366 0.0
C1442 C 0.80853 0.36678 0.74486 0.0
C1443 C 0.83546 0.36789 0.7339 0.0
C1444 C 0.81873 0.34922 0.72033 0.0
C1445 C 0.77443 0.33032 0.71789 0.0
C1446 C 0.74748 0.32993 0.72886 0.0
H1447 H 0.66851 0.24153 0.76172 0.0
H1448 H 0.66951 0.25882 0.74353 0.0
H1449 H 0.7178 0.26469 0.7515 0.0
H1450 H 0.82225 0.38072 0.75527 0.0
H1451 H 0.86936 0.38231 0.73627 0.0
H1452 H 0.44364 0.76988 0.85823 0.0
H1453 H 0.38708 0.70284 0.86902 0.0
H1454 H 0.46068 0.73202 0.90836 0.0
H1455 H 0.51692 0.79783 0.89772 0.0
H1456 H 0.41785 0.64445 0.90112 0.0
H1457 H 0.31159 0.71551 0.90001 0.0
H1458 H 0.3322 0.71013 0.88292 0.0
H1459 H 0.36826 0.7467 0.89624 0.0
C1460 C 0.44795 0.76139 0.86905 0.0
C1461 C 0.48405 0.78944 0.87726 0.0
C1462 C 0.4157 0.72333 0.87521 0.0
C1463 C 0.41954 0.71308 0.88957 0.0
C1464 C 0.45705 0.73949 0.89731 0.0
H1465 H 0.26818 0.55443 0.96084 0.0
H1466 H 0.3268 0.60303 0.94475 0.0
C1467 C 0.48896 0.77729 0.89124 0.0
C1468 C 0.38323 0.67784 0.89731 0.0
H1469 H 0.28617 0.65043 0.91214 0.0
C1470 C 0.38874 0.64531 0.90339 0.0
C1471 C 0.34573 0.67965 0.90042 0.0
C1472 C 0.33896 0.71497 0.89468 0.0
C1473 C 0.35768 0.61454 0.91261 0.0
C1474 C 0.3207 0.61699 0.91594 0.0
C1475 C 0.3148 0.64893 0.9096 0.0
C1476 C 0.28679 0.5862 0.92566 0.0
C1477 C 0.36457 0.57968 0.91866 0.0
C1478 C 0.24515 0.56139 0.92028 0.0
C1479 C 0.21187 0.53444 0.92938 0.0
C1480 C 0.21938 0.53156 0.94416 0.0
C1481 C 0.26136 0.55604 0.94955 0.0
C1482 C 0.29486 0.58345 0.94035 0.0
H1483 H 0.38921 0.57637 0.91247 0.0
H1484 H 0.37568 0.58762 0.93001 0.0
H1485 H 0.33418 0.54839 0.91861 0.0
H1486 H 0.23831 0.56313 0.90898 0.0
H1487 H 0.18015 0.51566 0.92473 0.0
H1488 H 0.6866 0.25368 0.13314 0.0
H1489 H 0.69529 0.32273 0.1252 0.0
H1490 H 0.60027 0.25737 0.09201 0.0
H1491 H 0.59152 0.18915 0.09979 0.0
H1492 H 0.7223 0.35399 0.09672 0.0
H1493 H 0.56601 0.34069 0.10911 0.0
H1494 H 0.58442 0.3083 0.11799 0.0
H1495 H 0.55941 0.29315 0.10049 0.0
C1496 C 0.66685 0.25418 0.12441 0.0
C1497 C 0.63857 0.21633 0.117 0.0
C1498 C 0.67193 0.29346 0.11988 0.0
C1499 C 0.64805 0.29491 0.10814 0.0
C1500 C 0.61838 0.25682 0.10125 0.0
H1501 H 0.68926 0.45653 0.03662 0.0
H1502 H 0.68794 0.40601 0.05457 0.0
C1503 C 0.61367 0.21792 0.10564 0.0
C1504 C 0.65694 0.3359 0.10175 0.0
H1505 H 0.60492 0.38573 0.08876 0.0
C1506 C 0.69707 0.36171 0.09526 0.0
C1507 C 0.62407 0.34597 0.09998 0.0
C1508 C 0.5812 0.32077 0.1074 0.0
C1509 C 0.70418 0.39568 0.08618 0.0
C1510 C 0.66998 0.40323 0.08337 0.0
C1511 C 0.63087 0.37932 0.0907 0.0
C1512 C 0.67335 0.43492 0.07262 0.0
C1513 C 0.7479 0.42257 0.07947 0.0
C1514 C 0.66465 0.46709 0.0768 0.0
C1515 C 0.66453 0.49522 0.0666 0.0
C1516 C 0.6732 0.49187 0.05196 0.0
C1517 C 0.68242 0.45988 0.04779 0.0
C1518 C 0.68213 0.43134 0.05805 0.0
H1519 H 0.77325 0.42163 0.08601 0.0
H1520 H 0.74809 0.40974 0.06859 0.0
H1521 H 0.756 0.45645 0.07831 0.0
H1522 H 0.65769 0.47029 0.08797 0.0
H1523 H 0.65789 0.51986 0.07027 0.0
H1524 H 0.40282 0.65683 0.30513 0.0
H1525 H 0.34233 0.66473 0.29659 0.0
H1526 H 0.40297 0.70479 0.25489 0.0
H1527 H 0.46261 0.69674 0.26321 0.0
H1528 H 0.36024 0.75138 0.267 0.0
H1529 H 0.26215 0.57283 0.26489 0.0
H1530 H 0.28896 0.59846 0.28147 0.0
H1531 H 0.31993 0.60024 0.26604 0.0
C1532 C 0.40341 0.66814 0.29426 0.0
C1533 C 0.43671 0.67546 0.28471 0.0
C1534 C 0.36906 0.67259 0.28942 0.0
C1535 C 0.36839 0.68503 0.27511 0.0
C1536 C 0.4031 0.69517 0.26596 0.0
H1537 H 0.19721 0.64842 0.20679 0.0
H1538 H 0.2554 0.65768 0.22291 0.0
C1539 C 0.43688 0.69023 0.27069 0.0
C1540 C 0.32992 0.6828 0.26882 0.0
H1541 H 0.23497 0.6115 0.25303 0.0
C1542 C 0.33231 0.72093 0.26421 0.0
C1543 C 0.29416 0.64284 0.26503 0.0
C1544 C 0.29085 0.60109 0.26952 0.0
C1545 C 0.30019 0.72001 0.25544 0.0
C1546 C 0.26535 0.68003 0.25122 0.0
C1547 C 0.26215 0.64199 0.25626 0.0
C1548 C 0.23204 0.67689 0.24136 0.0
C1549 C 0.30438 0.76149 0.25021 0.0
C1550 C 0.20024 0.6848 0.24654 0.0
C1551 C 0.16709 0.67931 0.23748 0.0
C1552 C 0.16526 0.66582 0.22307 0.0
C1553 C 0.19782 0.6588 0.21782 0.0
C1554 C 0.23091 0.66402 0.22698 0.0
H1555 H 0.33537 0.78978 0.25345 0.0
H1556 H 0.30161 0.76095 0.23826 0.0
H1557 H 0.27783 0.76515 0.25473 0.0
H1558 H 0.20072 0.69457 0.25765 0.0
H1559 H 0.14277 0.68549 0.24182 0.0
loop_
_geom_bond_atom_site_label_1
_geom_bond_atom_site_label_2
_geom_bond_distance
_geom_bond_site_symmetry_2
_ccdc_geom_bond_type
Sc0 O3 2.025 . S
Sc0 O10 2.105 . S
Sc0 O13 2.105 . S
Sc0 O16 2.105 . S
Sc0 O19 2.105 . S
Sc1 O3 2.025 . S
Sc1 O11 2.105 . S
Sc1 O15 2.105 . S
Sc1 O17 2.105 . S
Sc1 O21 2.105 . S
Sc2 O3 2.025 . S
Sc2 O12 2.105 . S
Sc2 O14 2.105 . S
Sc2 O18 2.105 . S
Sc2 O20 2.105 . S
O3 Sc0 2.025 . S
O3 Sc1 2.025 . S
O3 Sc2 2.025 . S
C4 O10 1.268 . S
C4 O20 1.268 . S
C5 O11 1.268 . S
C5 O19 1.268 . S
C6 O12 1.268 . S
C6 O21 1.268 . S
C7 O13 1.268 . S
C7 O17 1.268 . S
C8 O14 1.268 . S
C8 O16 1.268 . S
C9 O15 1.268 . S
C9 O18 1.268 . S
O10 Sc0 2.105 . S
O10 C4 1.268 . S
O11 Sc1 2.105 . S
O11 C5 1.268 . S
O12 Sc2 2.105 . S
O12 C6 1.268 . S
O13 Sc0 2.105 . S
O13 C7 1.268 . S
O14 Sc2 2.105 . S
O14 C8 1.268 . S
O15 Sc1 2.105 . S
O15 C9 1.268 . S
O16 Sc0 2.105 . S
O16 C8 1.268 . S
O17 Sc1 2.105 . S
O17 C7 1.268 . S
O18 Sc2 2.105 . S
O18 C9 1.268 . S
O19 Sc0 2.105 . S
O19 C5 1.268 . S
O20 Sc2 2.105 . S
O20 C4 1.268 . S
O21 Sc1 2.105 . S
O21 C6 1.268 . S
Sc22 O25 2.025 . S
Sc22 O32 2.105 . S
Sc22 O35 2.105 . S
Sc22 O38 2.105 . S
Sc22 O41 2.105 . S
Sc23 O25 2.025 . S
Sc23 O33 2.105 . S
Sc23 O37 2.105 . S
Sc23 O39 2.105 . S
Sc23 O43 2.105 . S
Sc24 O25 2.025 . S
Sc24 O34 2.105 . S
Sc24 O36 2.105 . S
Sc24 O40 2.105 . S
Sc24 O42 2.105 . S
O25 Sc22 2.025 . S
O25 Sc23 2.025 . S
O25 Sc24 2.025 . S
C26 O32 1.268 . S
C26 O42 1.268 . S
C27 O33 1.268 . S
C27 O41 1.268 . S
C28 O34 1.268 . S
C28 O43 1.268 . S
C29 O35 1.268 . S
C29 O39 1.268 . S
C30 O36 1.268 . S
C30 O38 1.268 . S
C31 O37 1.268 . S
C31 O40 1.268 . S
O32 Sc22 2.105 . S
O32 C26 1.268 . S
O33 Sc23 2.105 . S
O33 C27 1.268 . S
O34 Sc24 2.105 . S
O34 C28 1.268 . S
O35 Sc22 2.105 . S
O35 C29 1.268 . S
O36 Sc24 2.105 . S
O36 C30 1.268 . S
O37 Sc23 2.105 . S
O37 C31 1.268 . S
O38 Sc22 2.105 . S
O38 C30 1.268 . S
O39 Sc23 2.105 . S
O39 C29 1.268 . S
O40 Sc24 2.105 . S
O40 C31 1.268 . S
O41 Sc22 2.105 . S
O41 C27 1.268 . S
O42 Sc24 2.105 . S
O42 C26 1.268 . S
O43 Sc23 2.105 . S
O43 C28 1.268 . S
Sc44 O47 2.025 . S
Sc44 O54 2.105 . S
Sc44 O57 2.105 . S
Sc44 O60 2.105 . S
Sc44 O63 2.105 . S
Sc45 O47 2.025 . S
Sc45 O55 2.105 . S
Sc45 O59 2.105 . S
Sc45 O61 2.105 . S
Sc45 O65 2.105 . S
Sc46 O47 2.025 . S
Sc46 O56 2.105 . S
Sc46 O58 2.105 . S
Sc46 O62 2.105 . S
Sc46 O64 2.105 . S
O47 Sc44 2.025 . S
O47 Sc45 2.025 . S
O47 Sc46 2.025 . S
C48 O54 1.268 . S
C48 O64 1.268 . S
C49 O55 1.268 . S
C49 O63 1.268 . S
C50 O56 1.268 . S
C50 O65 1.268 . S
C51 O57 1.268 . S
C51 O61 1.268 . S
C52 O58 1.268 . S
C52 O60 1.268 . S
C53 O59 1.268 . S
C53 O62 1.268 . S
O54 Sc44 2.105 . S
O54 C48 1.268 . S
O55 Sc45 2.105 . S
O55 C49 1.268 . S
O56 Sc46 2.105 . S
O56 C50 1.268 . S
O57 Sc44 2.105 . S
O57 C51 1.268 . S
O58 Sc46 2.105 . S
O58 C52 1.268 . S
O59 Sc45 2.105 . S
O59 C53 1.268 . S
O60 Sc44 2.105 . S
O60 C52 1.268 . S
O61 Sc45 2.105 . S
O61 C51 1.268 . S
O62 Sc46 2.105 . S
O62 C53 1.268 . S
O63 Sc44 2.105 . S
O63 C49 1.268 . S
O64 Sc46 2.105 . S
O64 C48 1.268 . S
O65 Sc45 2.105 . S
O65 C50 1.268 . S
Sc66 O69 2.025 . S
Sc66 O76 2.105 . S
Sc66 O79 2.105 . S
Sc66 O82 2.105 . S
Sc66 O85 2.105 . S
Sc67 O69 2.025 . S
Sc67 O77 2.105 . S
Sc67 O81 2.105 . S
Sc67 O83 2.105 . S
Sc67 O87 2.105 . S
Sc68 O69 2.025 . S
Sc68 O78 2.105 . S
Sc68 O80 2.105 . S
Sc68 O84 2.105 . S
Sc68 O86 2.105 . S
O69 Sc66 2.025 . S
O69 Sc67 2.025 . S
O69 Sc68 2.025 . S
C70 O76 1.268 . S
C70 O86 1.268 . S
C71 O77 1.268 . S
C71 O85 1.268 . S
C72 O78 1.268 . S
C72 O87 1.268 . S
C73 O79 1.268 . S
C73 O83 1.268 . S
C74 O80 1.268 . S
C74 O82 1.268 . S
C75 O81 1.268 . S
C75 O84 1.268 . S
O76 Sc66 2.105 . S
O76 C70 1.268 . S
O77 Sc67 2.105 . S
O77 C71 1.268 . S
O78 Sc68 2.105 . S
O78 C72 1.268 . S
O79 Sc66 2.105 . S
O79 C73 1.268 . S
O80 Sc68 2.105 . S
O80 C74 1.268 . S
O81 Sc67 2.105 . S
O81 C75 1.268 . S
O82 Sc66 2.105 . S
O82 C74 1.268 . S
O83 Sc67 2.105 . S
O83 C73 1.268 . S
O84 Sc68 2.105 . S
O84 C75 1.268 . S
O85 Sc66 2.105 . S
O85 C71 1.268 . S
O86 Sc68 2.105 . S
O86 C70 1.268 . S
O87 Sc67 2.105 . S
O87 C72 1.268 . S
Sc88 O91 2.025 . S
Sc88 O98 2.105 . S
Sc88 O101 2.105 . S
Sc88 O104 2.105 . S
Sc88 O107 2.105 . S
Sc89 O91 2.025 . S
Sc89 O99 2.105 . S
Sc89 O103 2.105 . S
Sc89 O105 2.105 . S
Sc89 O109 2.105 . S
Sc90 O91 2.025 . S
Sc90 O100 2.105 . S
Sc90 O102 2.105 . S
Sc90 O106 2.105 . S
Sc90 O108 2.105 . S
O91 Sc88 2.025 . S
O91 Sc89 2.025 . S
O91 Sc90 2.025 . S
C92 O98 1.268 . S
C92 O108 1.268 . S
C93 O99 1.268 . S
C93 O107 1.268 . S
C94 O100 1.268 . S
C94 O109 1.268 . S
C95 O101 1.268 . S
C95 O105 1.268 . S
C96 O102 1.268 . S
C96 O104 1.268 . S
C97 O103 1.268 . S
C97 O106 1.268 . S
O98 Sc88 2.105 . S
O98 C92 1.268 . S
O99 Sc89 2.105 . S
O99 C93 1.268 . S
O100 Sc90 2.105 . S
O100 C94 1.268 . S
O101 Sc88 2.105 . S
O101 C95 1.268 . S
O102 Sc90 2.105 . S
O102 C96 1.268 . S
O103 Sc89 2.105 . S
O103 C97 1.268 . S
O104 Sc88 2.105 . S
O104 C96 1.268 . S
O105 Sc89 2.105 . S
O105 C95 1.268 . S
O106 Sc90 2.105 . S
O106 C97 1.268 . S
O107 Sc88 2.105 . S
O107 C93 1.268 . S
O108 Sc90 2.105 . S
O108 C92 1.268 . S
O109 Sc89 2.105 . S
O109 C94 1.268 . S
Sc110 O113 2.025 . S
Sc110 O120 2.105 . S
Sc110 O123 2.105 . S
Sc110 O126 2.105 . S
Sc110 O129 2.105 . S
Sc111 O113 2.025 . S
Sc111 O121 2.105 . S
Sc111 O125 2.105 . S
Sc111 O127 2.105 . S
Sc111 O131 2.105 . S
Sc112 O113 2.025 . S
Sc112 O122 2.105 . S
Sc112 O124 2.105 . S
Sc112 O128 2.105 . S
Sc112 O130 2.105 . S
O113 Sc110 2.025 . S
O113 Sc111 2.025 . S
O113 Sc112 2.025 . S
C114 O120 1.268 . S
C114 O130 1.268 . S
C115 O121 1.268 . S
C115 O129 1.268 . S
C116 O122 1.268 . S
C116 O131 1.268 . S
C117 O123 1.268 . S
C117 O127 1.268 . S
C118 O124 1.268 . S
C118 O126 1.268 . S
C119 O125 1.268 . S
C119 O128 1.268 . S
O120 Sc110 2.105 . S
O120 C114 1.268 . S
O121 Sc111 2.105 . S
O121 C115 1.268 . S
O122 Sc112 2.105 . S
O122 C116 1.268 . S
O123 Sc110 2.105 . S
O123 C117 1.268 . S
O124 Sc112 2.105 . S
O124 C118 1.268 . S
O125 Sc111 2.105 . S
O125 C119 1.268 . S
O126 Sc110 2.105 . S
O126 C118 1.268 . S
O127 Sc111 2.105 . S
O127 C117 1.268 . S
O128 Sc112 2.105 . S
O128 C119 1.268 . S
O129 Sc110 2.105 . S
O129 C115 1.268 . S
O130 Sc112 2.105 . S
O130 C114 1.268 . S
O131 Sc111 2.105 . S
O131 C116 1.268 . S
Sc132 O135 2.025 . S
Sc132 O142 2.105 . S
Sc132 O145 2.105 . S
Sc132 O148 2.105 . S
Sc132 O151 2.105 . S
Sc133 O135 2.025 . S
Sc133 O143 2.105 . S
Sc133 O147 2.105 . S
Sc133 O149 2.105 . S
Sc133 O153 2.105 . S
Sc134 O135 2.025 . S
Sc134 O144 2.105 . S
Sc134 O146 2.105 . S
Sc134 O150 2.105 . S
Sc134 O152 2.105 . S
O135 Sc132 2.025 . S
O135 Sc133 2.025 . S
O135 Sc134 2.025 . S
C136 O142 1.268 . S
C136 O152 1.268 . S
C137 O143 1.268 . S
C137 O151 1.268 . S
C138 O144 1.268 . S
C138 O153 1.268 . S
C139 O145 1.268 . S
C139 O149 1.268 . S
C140 O146 1.268 . S
C140 O148 1.268 . S
C141 O147 1.268 . S
C141 O150 1.268 . S
O142 Sc132 2.105 . S
O142 C136 1.268 . S
O143 Sc133 2.105 . S
O143 C137 1.268 . S
O144 Sc134 2.105 . S
O144 C138 1.268 . S
O145 Sc132 2.105 . S
O145 C139 1.268 . S
O146 Sc134 2.105 . S
O146 C140 1.268 . S
O147 Sc133 2.105 . S
O147 C141 1.268 . S
O148 Sc132 2.105 . S
O148 C140 1.268 . S
O149 Sc133 2.105 . S
O149 C139 1.268 . S
O150 Sc134 2.105 . S
O150 C141 1.268 . S
O151 Sc132 2.105 . S
O151 C137 1.268 . S
O152 Sc134 2.105 . S
O152 C136 1.268 . S
O153 Sc133 2.105 . S
O153 C138 1.268 . S
Sc154 O157 2.025 . S
Sc154 O164 2.105 . S
Sc154 O167 2.105 . S
Sc154 O170 2.105 . S
Sc154 O173 2.105 . S
Sc155 O157 2.025 . S
Sc155 O165 2.105 . S
Sc155 O169 2.105 . S
Sc155 O171 2.105 . S
Sc155 O175 2.105 . S
Sc156 O157 2.025 . S
Sc156 O166 2.105 . S
Sc156 O168 2.105 . S
Sc156 O172 2.105 . S
Sc156 O174 2.105 . S
O157 Sc154 2.025 . S
O157 Sc155 2.025 . S
O157 Sc156 2.025 . S
C158 O164 1.268 . S
C158 O174 1.268 . S
C159 O165 1.268 . S
C159 O173 1.268 . S
C160 O166 1.268 . S
C160 O175 1.268 . S
C161 O167 1.268 . S
C161 O171 1.268 . S
C162 O168 1.268 . S
C162 O170 1.268 . S
C163 O169 1.268 . S
C163 O172 1.268 . S
O164 Sc154 2.105 . S
O164 C158 1.268 . S
O165 Sc155 2.105 . S
O165 C159 1.268 . S
O166 Sc156 2.105 . S
O166 C160 1.268 . S
O167 Sc154 2.105 . S
O167 C161 1.268 . S
O168 Sc156 2.105 . S
O168 C162 1.268 . S
O169 Sc155 2.105 . S
O169 C163 1.268 . S
O170 Sc154 2.105 . S
O170 C162 1.268 . S
O171 Sc155 2.105 . S
O171 C161 1.268 . S
O172 Sc156 2.105 . S
O172 C163 1.268 . S
O173 Sc154 2.105 . S
O173 C159 1.268 . S
O174 Sc156 2.105 . S
O174 C158 1.268 . S
O175 Sc155 2.105 . S
O175 C160 1.268 . S
Sc176 O179 2.025 . S
Sc176 O186 2.105 . S
Sc176 O189 2.105 . S
Sc176 O192 2.105 . S
Sc176 O195 2.105 . S
Sc177 O179 2.025 . S
Sc177 O187 2.105 . S
Sc177 O191 2.105 . S
Sc177 O193 2.105 . S
Sc177 O197 2.105 . S
Sc178 O179 2.025 . S
Sc178 O188 2.105 . S
Sc178 O190 2.105 . S
Sc178 O194 2.105 . S
Sc178 O196 2.105 . S
O179 Sc176 2.025 . S
O179 Sc177 2.025 . S
O179 Sc178 2.025 . S
C180 O186 1.268 . S
C180 O196 1.268 . S
C181 O187 1.268 . S
C181 O195 1.268 . S
C182 O188 1.268 . S
C182 O197 1.268 . S
C183 O189 1.268 . S
C183 O193 1.268 . S
C184 O190 1.268 . S
C184 O192 1.268 . S
C185 O191 1.268 . S
C185 O194 1.268 . S
O186 Sc176 2.105 . S
O186 C180 1.268 . S
O187 Sc177 2.105 . S
O187 C181 1.268 . S
O188 Sc178 2.105 . S
O188 C182 1.268 . S
O189 Sc176 2.105 . S
O189 C183 1.268 . S
O190 Sc178 2.105 . S
O190 C184 1.268 . S
O191 Sc177 2.105 . S
O191 C185 1.268 . S
O192 Sc176 2.105 . S
O192 C184 1.268 . S
O193 Sc177 2.105 . S
O193 C183 1.268 . S
O194 Sc178 2.105 . S
O194 C185 1.268 . S
O195 Sc176 2.105 . S
O195 C181 1.268 . S
O196 Sc178 2.105 . S
O196 C180 1.268 . S
O197 Sc177 2.105 . S
O197 C182 1.268 . S
Sc198 O201 2.025 . S
Sc198 O208 2.105 . S
Sc198 O211 2.105 . S
Sc198 O214 2.105 . S
Sc198 O217 2.105 . S
Sc199 O201 2.025 . S
Sc199 O209 2.105 . S
Sc199 O213 2.105 . S
Sc199 O215 2.105 . S
Sc199 O219 2.105 . S
Sc200 O201 2.025 . S
Sc200 O210 2.105 . S
Sc200 O212 2.105 . S
Sc200 O216 2.105 . S
Sc200 O218 2.105 . S
O201 Sc198 2.025 . S
O201 Sc199 2.025 . S
O201 Sc200 2.025 . S
C202 O208 1.268 . S
C202 O218 1.268 . S
C203 O209 1.268 . S
C203 O217 1.268 . S
C204 O210 1.268 . S
C204 O219 1.268 . S
C205 O211 1.268 . S
C205 O215 1.268 . S
C206 O212 1.268 . S
C206 O214 1.268 . S
C207 O213 1.268 . S
C207 O216 1.268 . S
O208 Sc198 2.105 . S
O208 C202 1.268 . S
O209 Sc199 2.105 . S
O209 C203 1.268 . S
O210 Sc200 2.105 . S
O210 C204 1.268 . S
O211 Sc198 2.105 . S
O211 C205 1.268 . S
O212 Sc200 2.105 . S
O212 C206 1.268 . S
O213 Sc199 2.105 . S
O213 C207 1.268 . S
O214 Sc198 2.105 . S
O214 C206 1.268 . S
O215 Sc199 2.105 . S
O215 C205 1.268 . S
O216 Sc200 2.105 . S
O216 C207 1.268 . S
O217 Sc198 2.105 . S
O217 C203 1.268 . S
O218 Sc200 2.105 . S
O218 C202 1.268 . S
O219 Sc199 2.105 . S
O219 C204 1.268 . S
Sc220 O223 2.025 . S
Sc220 O230 2.105 . S
Sc220 O233 2.105 . S
Sc220 O236 2.105 . S
Sc220 O239 2.105 . S
Sc221 O223 2.025 . S
Sc221 O231 2.105 . S
Sc221 O235 2.105 . S
Sc221 O237 2.105 . S
Sc221 O241 2.105 . S
Sc222 O223 2.025 . S
Sc222 O232 2.105 . S
Sc222 O234 2.105 . S
Sc222 O238 2.105 . S
Sc222 O240 2.105 . S
O223 Sc220 2.025 . S
O223 Sc221 2.025 . S
O223 Sc222 2.025 . S
C224 O230 1.268 . S
C224 O240 1.268 . S
C225 O231 1.268 . S
C225 O239 1.268 . S
C226 O232 1.268 . S
C226 O241 1.268 . S
C227 O233 1.268 . S
C227 O237 1.268 . S
C228 O234 1.268 . S
C228 O236 1.268 . S
C229 O235 1.268 . S
C229 O238 1.268 . S
O230 Sc220 2.105 . S
O230 C224 1.268 . S
O231 Sc221 2.105 . S
O231 C225 1.268 . S
O232 Sc222 2.105 . S
O232 C226 1.268 . S
O233 Sc220 2.105 . S
O233 C227 1.268 . S
O234 Sc222 2.105 . S
O234 C228 1.268 . S
O235 Sc221 2.105 . S
O235 C229 1.268 . S
O236 Sc220 2.105 . S
O236 C228 1.268 . S
O237 Sc221 2.105 . S
O237 C227 1.268 . S
O238 Sc222 2.105 . S
O238 C229 1.268 . S
O239 Sc220 2.105 . S
O239 C225 1.268 . S
O240 Sc222 2.105 . S
O240 C224 1.268 . S
O241 Sc221 2.105 . S
O241 C226 1.268 . S
Sc242 O245 2.025 . S
Sc242 O252 2.105 . S
Sc242 O255 2.105 . S
Sc242 O258 2.105 . S
Sc242 O261 2.105 . S
Sc243 O245 2.025 . S
Sc243 O253 2.105 . S
Sc243 O257 2.105 . S
Sc243 O259 2.105 . S
Sc243 O263 2.105 . S
Sc244 O245 2.025 . S
Sc244 O254 2.105 . S
Sc244 O256 2.105 . S
Sc244 O260 2.105 . S
Sc244 O262 2.105 . S
O245 Sc242 2.025 . S
O245 Sc243 2.025 . S
O245 Sc244 2.025 . S
C246 O252 1.268 . S
C246 O262 1.268 . S
C247 O253 1.268 . S
C247 O261 1.268 . S
C248 O254 1.268 . S
C248 O263 1.268 . S
C249 O255 1.268 . S
C249 O259 1.268 . S
C250 O256 1.268 . S
C250 O258 1.268 . S
C251 O257 1.268 . S
C251 O260 1.268 . S
O252 Sc242 2.105 . S
O252 C246 1.268 . S
O253 Sc243 2.105 . S
O253 C247 1.268 . S
O254 Sc244 2.105 . S
O254 C248 1.268 . S
O255 Sc242 2.105 . S
O255 C249 1.268 . S
O256 Sc244 2.105 . S
O256 C250 1.268 . S
O257 Sc243 2.105 . S
O257 C251 1.268 . S
O258 Sc242 2.105 . S
O258 C250 1.268 . S
O259 Sc243 2.105 . S
O259 C249 1.268 . S
O260 Sc244 2.105 . S
O260 C251 1.268 . S
O261 Sc242 2.105 . S
O261 C247 1.268 . S
O262 Sc244 2.105 . S
O262 C246 1.268 . S
O263 Sc243 2.105 . S
O263 C248 1.268 . S
H264 C272 0.929 . S
H265 C274 0.930 . S
H266 C276 0.930 . S
H267 C279 0.929 . S
H268 C282 0.930 . S
H269 C284 0.960 . S
H270 C284 0.960 . S
H271 C284 0.960 . S
C272 H264 0.929 . S
C272 C273 1.377 . S
C272 C274 1.384 . S
C273 C272 1.377 . S
C273 C279 1.390 . S
C274 H265 0.930 . S
C274 C272 1.384 . S
C274 C275 1.372 . S
C275 C274 1.372 . S
C275 C276 1.400 . S
C275 C280 1.490 . S
C276 H266 0.930 . S
C276 C275 1.400 . S
C276 C279 1.386 . S
H277 C293 0.930 . S
H278 C294 0.931 . S
C279 H267 0.929 . S
C279 C273 1.390 . S
C279 C276 1.386 . S
C280 C275 1.490 . S
C280 C282 1.395 . S
C280 C283 1.403 . S
H281 C287 0.930 . S
C282 H268 0.930 . S
C282 C280 1.395 . S
C282 C285 1.403 . S
C283 C280 1.403 . S
C283 C284 1.524 . S
C283 C287 1.400 . S
C284 H269 0.960 . S
C284 H270 0.960 . S
C284 H271 0.960 . S
C284 C283 1.524 . S
C285 C282 1.403 . S
C285 C286 1.392 . S
C285 C289 1.495 . S
C286 C285 1.392 . S
C286 C287 1.385 . S
C286 C288 1.487 . S
C287 H281 0.930 . S
C287 C283 1.400 . S
C287 C286 1.385 . S
C288 C286 1.487 . S
C288 C290 1.389 . S
C288 C294 1.366 1_565 S
C289 C285 1.495 . S
C289 H295 0.959 . S
C289 H296 0.961 1_565 S
C289 H297 0.960 . S
C290 C288 1.389 . S
C290 C291 1.394 1_565 S
C290 H298 0.930 . S
C291 C290 1.394 1_545 S
C291 C292 1.383 . S
C291 H299 0.929 . S
C292 C291 1.383 . S
C292 C293 1.377 . S
C293 H277 0.930 . S
C293 C292 1.377 . S
C293 C294 1.379 . S
C294 H278 0.931 . S
C294 C288 1.366 1_545 S
C294 C293 1.379 . S
H295 C289 0.959 . S
H296 C289 0.961 1_545 S
H297 C289 0.960 . S
H298 C290 0.930 . S
H299 C291 0.929 . S
H300 C308 0.929 . S
H301 C310 0.930 . S
H302 C312 0.930 . S
H303 C315 0.929 . S
H304 C318 0.930 . S
H305 C320 0.960 . S
H306 C320 0.960 . S
H307 C320 0.960 . S
C308 H300 0.929 . S
C308 C309 1.377 . S
C308 C310 1.384 . S
C309 C308 1.377 . S
C309 C315 1.390 . S
C310 H301 0.930 . S
C310 C308 1.384 . S
C310 C311 1.372 . S
C311 C310 1.372 . S
C311 C312 1.400 . S
C311 C316 1.490 . S
C312 H302 0.930 . S
C312 C311 1.400 . S
C312 C315 1.386 . S
H313 C329 0.930 . S
H314 C330 0.931 . S
C315 H303 0.929 . S
C315 C309 1.390 . S
C315 C312 1.386 . S
C316 C311 1.490 . S
C316 C318 1.395 . S
C316 C319 1.403 . S
H317 C323 0.930 . S
C318 H304 0.930 . S
C318 C316 1.395 . S
C318 C321 1.403 . S
C319 C316 1.403 . S
C319 C320 1.524 . S
C319 C323 1.400 . S
C320 H305 0.960 . S
C320 H306 0.960 . S
C320 H307 0.960 . S
C320 C319 1.524 . S
C321 C318 1.403 . S
C321 C322 1.392 . S
C321 C325 1.495 . S
C322 C321 1.392 . S
C322 C323 1.385 . S
C322 C324 1.478 . S
C323 H317 0.930 . S
C323 C319 1.400 . S
C323 C322 1.385 . S
C324 C322 1.478 . S
C324 C326 1.381 . S
C324 C330 1.383 . S
C325 C321 1.495 . S
C325 H331 0.959 . S
C325 H332 0.961 . S
C325 H333 0.960 . S
C326 C324 1.381 . S
C326 C327 1.394 . S
C326 H334 0.930 . S
C327 C326 1.394 . S
C327 C328 1.383 . S
C327 H335 0.929 . S
C328 C327 1.383 . S
C328 C329 1.377 . S
C329 H313 0.930 . S
C329 C328 1.377 . S
C329 C330 1.379 . S
C330 H314 0.931 . S
C330 C324 1.383 . S
C330 C329 1.379 . S
H331 C325 0.959 . S
H332 C325 0.961 . S
H333 C325 0.960 . S
H334 C326 0.930 . S
H335 C327 0.929 . S
H336 C344 0.929 . S
H337 C346 0.930 1_455 S
H338 C348 0.930 . S
H339 C351 0.929 . S
H340 C354 0.930 1_655 S
H341 C356 0.960 . S
H342 C356 0.960 . S
H343 C356 0.960 . S
C344 H336 0.929 . S
C344 C345 1.377 . S
C344 C346 1.384 . S
C345 C344 1.377 . S
C345 C351 1.390 . S
C346 H337 0.930 1_655 S
C346 C344 1.384 . S
C346 C347 1.372 1_655 S
C347 C346 1.372 1_455 S
C347 C348 1.400 1_455 S
C347 C352 1.490 . S
C348 H338 0.930 . S
C348 C347 1.400 1_655 S
C348 C351 1.386 . S
H349 C365 0.930 . S
H350 C366 0.931 . S
C351 H339 0.929 . S
C351 C345 1.390 . S
C351 C348 1.386 . S
C352 C347 1.490 . S
C352 C354 1.395 . S
C352 C355 1.403 . S
H353 C359 0.930 . S
C354 H340 0.930 1_455 S
C354 C352 1.395 . S
C354 C357 1.403 . S
C355 C352 1.403 . S
C355 C356 1.524 . S
C355 C359 1.400 . S
C356 H341 0.960 . S
C356 H342 0.960 . S
C356 H343 0.960 . S
C356 C355 1.524 . S
C357 C354 1.403 . S
C357 C358 1.392 . S
C357 C361 1.495 . S
C358 C357 1.392 . S
C358 C359 1.385 . S
C358 C360 1.478 . S
C359 H353 0.930 . S
C359 C355 1.400 . S
C359 C358 1.385 . S
C360 C358 1.478 . S
C360 C362 1.381 . S
C360 C366 1.383 . S
C361 C357 1.495 . S
C361 H367 0.959 . S
C361 H368 0.961 . S
C361 H369 0.960 . S
C362 C360 1.381 . S
C362 C363 1.394 . S
C362 H370 0.930 . S
C363 C362 1.394 . S
C363 C364 1.383 . S
C363 H371 0.929 . S
C364 C363 1.383 . S
C364 C365 1.377 . S
C365 H349 0.930 . S
C365 C364 1.377 . S
C365 C366 1.379 . S
C366 H350 0.931 . S
C366 C360 1.383 . S
C366 C365 1.379 . S
H367 C361 0.959 . S
H368 C361 0.961 . S
H369 C361 0.960 . S
H370 C362 0.930 . S
H371 C363 0.929 . S
H372 C380 0.929 . S
H373 C382 0.930 . S
H374 C384 0.930 . S
H375 C387 0.929 . S
H376 C390 0.930 . S
H377 C392 0.960 . S
H378 C392 0.960 . S
H379 C392 0.960 . S
C380 H372 0.929 . S
C380 C381 1.377 . S
C380 C382 1.384 . S
C381 C380 1.377 . S
C381 C387 1.390 . S
C382 H373 0.930 . S
C382 C380 1.384 . S
C382 C383 1.372 . S
C383 C382 1.372 . S
C383 C384 1.400 . S
C383 C388 1.490 . S
C384 H374 0.930 . S
C384 C383 1.400 . S
C384 C387 1.386 . S
H385 C401 0.930 . S
H386 C402 0.931 . S
C387 H375 0.929 . S
C387 C381 1.390 . S
C387 C384 1.386 . S
C388 C383 1.490 . S
C388 C390 1.395 . S
C388 C391 1.403 . S
H389 C395 0.930 . S
C390 H376 0.930 . S
C390 C388 1.395 . S
C390 C393 1.403 . S
C391 C388 1.403 . S
C391 C392 1.524 . S
C391 C395 1.400 . S
C392 H377 0.960 . S
C392 H378 0.960 . S
C392 H379 0.960 . S
C392 C391 1.524 . S
C393 C390 1.403 . S
C393 C394 1.392 . S
C393 C397 1.495 1_545 S
C394 C393 1.392 . S
C394 C395 1.385 . S
C394 C396 1.478 1_545 S
C395 H389 0.930 . S
C395 C391 1.400 . S
C395 C394 1.385 . S
C396 C394 1.478 1_565 S
C396 C398 1.381 . S
C396 C402 1.383 . S
C397 C393 1.495 1_565 S
C397 H403 0.959 . S
C397 H404 0.961 . S
C397 H405 0.960 . S
C398 C396 1.381 . S
C398 C399 1.394 . S
C398 H406 0.930 . S
C399 C398 1.394 . S
C399 C400 1.383 . S
C399 H407 0.929 . S
C400 C399 1.383 . S
C400 C401 1.377 . S
C401 H385 0.930 . S
C401 C400 1.377 . S
C401 C402 1.379 . S
C402 H386 0.931 . S
C402 C396 1.383 . S
C402 C401 1.379 . S
H403 C397 0.959 . S
H404 C397 0.961 . S
H405 C397 0.960 . S
H406 C398 0.930 . S
H407 C399 0.929 . S
H408 C416 0.929 . S
H409 C418 0.930 . S
H410 C420 0.930 . S
H411 C423 0.929 . S
H412 C426 0.930 . S
H413 C428 0.960 . S
H414 C428 0.960 . S
H415 C428 0.960 . S
C416 H408 0.929 . S
C416 C417 1.377 . S
C416 C418 1.384 . S
C417 C416 1.377 . S
C417 C423 1.390 . S
C418 H409 0.930 . S
C418 C416 1.384 . S
C418 C419 1.372 . S
C419 C418 1.372 . S
C419 C420 1.400 . S
C419 C424 1.490 . S
C420 H410 0.930 . S
C420 C419 1.400 . S
C420 C423 1.386 . S
H421 C437 0.930 . S
H422 C438 0.931 . S
C423 H411 0.929 . S
C423 C417 1.390 . S
C423 C420 1.386 . S
C424 C419 1.490 . S
C424 C426 1.395 . S
C424 C427 1.403 . S
H425 C431 0.930 . S
C426 H412 0.930 . S
C426 C424 1.395 . S
C426 C429 1.403 . S
C427 C424 1.403 . S
C427 C428 1.524 . S
C427 C431 1.400 . S
C428 H413 0.960 . S
C428 H414 0.960 . S
C428 H415 0.960 . S
C428 C427 1.524 . S
C429 C426 1.403 . S
C429 C430 1.392 . S
C429 C433 1.495 . S
C430 C429 1.392 . S
C430 C431 1.385 . S
C430 C432 1.478 . S
C431 H425 0.930 . S
C431 C427 1.400 . S
C431 C430 1.385 . S
C432 C430 1.478 . S
C432 C434 1.381 . S
C432 C438 1.383 . S
C433 C429 1.495 . S
C433 H439 0.959 . S
C433 H440 0.961 . S
C433 H441 0.960 . S
C434 C432 1.381 . S
C434 C435 1.394 . S
C434 H442 0.930 . S
C435 C434 1.394 . S
C435 C436 1.383 . S
C435 H443 0.929 1_556 S
C436 C435 1.383 . S
C436 C437 1.377 . S
C437 H421 0.930 . S
C437 C436 1.377 . S
C437 C438 1.379 . S
C438 H422 0.931 . S
C438 C432 1.383 . S
C438 C437 1.379 . S
H439 C433 0.959 . S
H440 C433 0.961 . S
H441 C433 0.960 . S
H442 C434 0.930 . S
H443 C435 0.929 1_554 S
H444 C452 0.929 . S
H445 C454 0.930 . S
H446 C456 0.930 . S
H447 C459 0.929 . S
H448 C462 0.930 1_455 S
H449 C464 0.960 . S
H450 C464 0.960 . S
H451 C464 0.960 . S
C452 H444 0.929 . S
C452 C453 1.377 . S
C452 C454 1.384 . S
C453 C452 1.377 . S
C453 C459 1.390 . S
C454 H445 0.930 . S
C454 C452 1.384 . S
C454 C455 1.372 1_455 S
C455 C454 1.372 1_655 S
C455 C456 1.400 . S
C455 C460 1.490 . S
C456 H446 0.930 . S
C456 C455 1.400 . S
C456 C459 1.386 1_655 S
H457 C473 0.930 . S
H458 C474 0.931 . S
C459 H447 0.929 . S
C459 C453 1.390 . S
C459 C456 1.386 1_455 S
C460 C455 1.490 . S
C460 C462 1.395 . S
C460 C463 1.403 . S
H461 C467 0.930 . S
C462 H448 0.930 1_655 S
C462 C460 1.395 . S
C462 C465 1.403 . S
C463 C460 1.403 . S
C463 C464 1.524 . S
C463 C467 1.400 . S
C464 H449 0.960 . S
C464 H450 0.960 . S
C464 H451 0.960 . S
C464 C463 1.524 . S
C465 C462 1.403 . S
C465 C466 1.392 . S
C465 C469 1.495 . S
C466 C465 1.392 . S
C466 C467 1.385 . S
C466 C468 1.478 . S
C467 H461 0.930 . S
C467 C463 1.400 . S
C467 C466 1.385 . S
C468 C466 1.478 . S
C468 C470 1.381 . S
C468 C474 1.383 . S
C469 C465 1.495 . S
C469 H475 0.932 1_655 S
C469 H476 0.961 . S
C469 H477 0.960 . S
C470 C468 1.381 . S
C470 C471 1.394 . S
C470 H478 0.930 . S
C471 C470 1.394 . S
C471 C472 1.383 . S
C471 H479 0.929 . S
C472 C471 1.383 . S
C472 C473 1.377 . S
C473 H457 0.930 . S
C473 C472 1.377 . S
C473 C474 1.379 . S
C474 H458 0.931 . S
C474 C468 1.383 . S
C474 C473 1.379 . S
H475 C469 0.932 1_455 S
H476 C469 0.961 . S
H477 C469 0.960 . S
H478 C470 0.930 . S
H479 C471 0.929 . S
H480 C488 0.929 . S
H481 C490 0.930 . S
H482 C492 0.930 . S
H483 C495 0.929 . S
H484 C498 0.930 . S
H485 C500 0.960 . S
H486 C500 0.960 . S
H487 C500 0.960 . S
C488 H480 0.929 . S
C488 C489 1.377 . S
C488 C490 1.384 . S
C489 C488 1.377 . S
C489 C495 1.390 . S
C490 H481 0.930 . S
C490 C488 1.384 . S
C490 C491 1.372 . S
C491 C490 1.372 . S
C491 C492 1.400 . S
C491 C496 1.490 . S
C492 H482 0.930 . S
C492 C491 1.400 . S
C492 C495 1.386 . S
H493 C509 0.930 . S
H494 C510 0.931 . S
C495 H483 0.929 . S
C495 C489 1.390 . S
C495 C492 1.386 . S
C496 C491 1.490 . S
C496 C498 1.395 . S
C496 C499 1.403 . S
H497 C503 0.930 . S
C498 H484 0.930 . S
C498 C496 1.395 . S
C498 C501 1.403 . S
C499 C496 1.403 . S
C499 C500 1.524 . S
C499 C503 1.400 . S
C500 H485 0.960 . S
C500 H486 0.960 . S
C500 H487 0.960 . S
C500 C499 1.524 . S
C501 C498 1.403 . S
C501 C502 1.392 . S
C501 C505 1.495 . S
C502 C501 1.392 . S
C502 C503 1.385 . S
C502 C504 1.478 . S
C503 H497 0.930 . S
C503 C499 1.400 . S
C503 C502 1.385 . S
C504 C502 1.478 . S
C504 C506 1.381 . S
C504 C510 1.383 1_455 S
C505 C501 1.495 . S
C505 H511 0.959 . S
C505 H512 0.961 . S
C505 H513 0.960 . S
C506 C504 1.381 . S
C506 C507 1.394 1_455 S
C506 H514 0.930 . S
C507 C506 1.394 1_655 S
C507 C508 1.383 . S
C507 H515 0.929 . S
C508 C507 1.383 . S
C508 C509 1.377 . S
C509 H493 0.930 . S
C509 C508 1.377 . S
C509 C510 1.379 . S
C510 H494 0.931 . S
C510 C504 1.383 1_655 S
C510 C509 1.379 . S
H511 C505 0.959 . S
H512 C505 0.961 . S
H513 C505 0.960 . S
H514 C506 0.930 . S
H515 C507 0.929 . S
H516 C524 0.929 . S
H517 C526 0.930 . S
H518 C528 0.930 . S
H519 C531 0.929 . S
H520 C534 0.930 . S
H521 C536 0.960 . S
H522 C536 0.960 1_565 S
H523 C536 0.960 . S
C524 H516 0.929 . S
C524 C525 1.377 . S
C524 C526 1.384 . S
C525 C524 1.377 . S
C525 C531 1.390 . S
C526 H517 0.930 . S
C526 C524 1.384 . S
C526 C527 1.372 1_565 S
C527 C526 1.372 1_545 S
C527 C528 1.400 . S
C527 C532 1.490 . S
C528 H518 0.930 . S
C528 C527 1.400 . S
C528 C531 1.386 1_545 S
H529 C545 0.930 . S
H530 C546 0.931 . S
C531 H519 0.929 . S
C531 C525 1.390 . S
C531 C528 1.386 1_565 S
C532 C527 1.490 . S
C532 C534 1.395 . S
C532 C535 1.403 . S
H533 C539 0.930 . S
C534 H520 0.930 . S
C534 C532 1.395 . S
C534 C537 1.403 . S
C535 C532 1.403 . S
C535 C536 1.524 . S
C535 C539 1.400 . S
C536 H521 0.960 . S
C536 H522 0.960 1_545 S
C536 H523 0.960 . S
C536 C535 1.524 . S
C537 C534 1.403 . S
C537 C538 1.392 . S
C537 C541 1.495 . S
C538 C537 1.392 . S
C538 C539 1.385 . S
C538 C540 1.478 . S
C539 H533 0.930 . S
C539 C535 1.400 . S
C539 C538 1.385 . S
C540 C538 1.478 . S
C540 C542 1.381 . S
C540 C546 1.383 . S
C541 C537 1.495 . S
C541 H547 0.959 . S
C541 H548 0.961 . S
C541 H549 0.960 . S
C542 C540 1.381 . S
C542 C543 1.394 . S
C542 H550 0.930 . S
C543 C542 1.394 . S
C543 C544 1.383 . S
C543 H551 0.929 . S
C544 C543 1.383 . S
C544 C545 1.377 . S
C545 H529 0.930 . S
C545 C544 1.377 . S
C545 C546 1.379 . S
C546 H530 0.931 . S
C546 C540 1.383 . S
C546 C545 1.379 . S
H547 C541 0.959 . S
H548 C541 0.961 . S
H549 C541 0.960 . S
H550 C542 0.930 . S
H551 C543 0.929 . S
H552 C560 0.929 . S
H553 C562 0.930 . S
H554 C564 0.930 . S
H555 C567 0.929 . S
H556 C570 0.930 . S
H557 C572 0.960 . S
H558 C572 0.960 . S
H559 C572 0.960 . S
C560 H552 0.929 . S
C560 C561 1.377 . S
C560 C562 1.384 . S
C561 C560 1.377 . S
C561 C567 1.390 . S
C562 H553 0.930 . S
C562 C560 1.384 . S
C562 C563 1.372 . S
C563 C562 1.372 . S
C563 C564 1.400 . S
C563 C568 1.490 . S
C564 H554 0.930 . S
C564 C563 1.400 . S
C564 C567 1.386 . S
H565 C581 0.930 . S
H566 C582 0.931 . S
C567 H555 0.929 . S
C567 C561 1.390 . S
C567 C564 1.386 . S
C568 C563 1.490 . S
C568 C570 1.395 . S
C568 C571 1.403 . S
H569 C575 0.930 . S
C570 H556 0.930 . S
C570 C568 1.395 . S
C570 C573 1.403 . S
C571 C568 1.403 . S
C571 C572 1.524 . S
C571 C575 1.400 . S
C572 H557 0.960 . S
C572 H558 0.960 . S
C572 H559 0.960 . S
C572 C571 1.524 . S
C573 C570 1.403 . S
C573 C574 1.392 . S
C573 C577 1.495 . S
C574 C573 1.392 . S
C574 C575 1.385 . S
C574 C576 1.478 . S
C575 H569 0.930 . S
C575 C571 1.400 . S
C575 C574 1.385 . S
C576 C574 1.478 . S
C576 C578 1.381 . S
C576 C582 1.383 . S
C577 C573 1.495 . S
C577 H583 0.959 . S
C577 H584 0.961 . S
C577 H585 0.960 . S
C578 C576 1.381 . S
C578 C579 1.394 . S
C578 H586 0.930 . S
C579 C578 1.394 . S
C579 C580 1.383 . S
C579 H587 0.929 . S
C580 C579 1.383 . S
C580 C581 1.377 . S
C581 H565 0.930 . S
C581 C580 1.377 . S
C581 C582 1.379 . S
C582 H566 0.931 . S
C582 C576 1.383 . S
C582 C581 1.379 . S
H583 C577 0.959 . S
H584 C577 0.961 . S
H585 C577 0.960 . S
H586 C578 0.930 . S
H587 C579 0.929 . S
H588 C596 0.929 . S
H589 C598 0.930 . S
H590 C600 0.930 . S
H591 C603 0.929 . S
H592 C606 0.930 . S
H593 C608 0.960 . S
H594 C608 0.960 . S
H595 C608 0.960 . S
C596 H588 0.929 . S
C596 C597 1.377 . S
C596 C598 1.384 . S
C597 C596 1.377 . S
C597 C603 1.390 . S
C598 H589 0.930 . S
C598 C596 1.384 . S
C598 C599 1.372 . S
C599 C598 1.372 . S
C599 C600 1.400 . S
C599 C604 1.490 . S
C600 H590 0.930 . S
C600 C599 1.400 . S
C600 C603 1.386 . S
H601 C617 0.930 . S
H602 C618 0.931 . S
C603 H591 0.929 . S
C603 C597 1.390 . S
C603 C600 1.386 . S
C604 C599 1.490 . S
C604 C606 1.395 . S
C604 C607 1.403 . S
H605 C611 0.930 . S
C606 H592 0.930 . S
C606 C604 1.395 . S
C606 C609 1.403 . S
C607 C604 1.403 . S
C607 C608 1.524 . S
C607 C611 1.400 . S
C608 H593 0.960 . S
C608 H594 0.960 . S
C608 H595 0.960 . S
C608 C607 1.524 . S
C609 C606 1.403 . S
C609 C610 1.392 . S
C609 C613 1.495 . S
C610 C609 1.392 . S
C610 C611 1.385 . S
C610 C612 1.470 1_655 S
C611 H605 0.930 . S
C611 C607 1.400 . S
C611 C610 1.385 . S
C612 C610 1.470 1_455 S
C612 C614 1.394 . S
C612 C618 1.377 1_455 S
C613 C609 1.495 . S
C613 H619 0.959 . S
C613 H620 0.961 . S
C613 H621 0.960 1_655 S
C614 C612 1.394 . S
C614 C615 1.394 . S
C614 H622 0.930 . S
C615 C614 1.394 . S
C615 C616 1.417 . S
C615 H623 0.929 . S
C616 C615 1.417 . S
C616 C617 1.371 1_554 S
C617 H601 0.930 . S
C617 C616 1.371 1_556 S
C617 C618 1.379 1_456 S
C618 H602 0.931 . S
C618 C612 1.377 1_655 S
C618 C617 1.379 1_654 S
H619 C613 0.959 . S
H620 C613 0.961 . S
H621 C613 0.960 1_455 S
H622 C614 0.930 . S
H623 C615 0.929 . S
H624 C632 0.929 . S
H625 C634 0.930 . S
H626 C636 0.930 . S
H627 C639 0.929 . S
H628 C642 0.930 . S
H629 C644 0.960 . S
H630 C644 0.960 . S
H631 C644 0.960 . S
C632 H624 0.929 . S
C632 C633 1.377 . S
C632 C634 1.384 . S
C633 C632 1.377 . S
C633 C639 1.390 . S
C634 H625 0.930 . S
C634 C632 1.384 . S
C634 C635 1.372 . S
C635 C634 1.372 . S
C635 C636 1.400 . S
C635 C640 1.490 . S
C636 H626 0.930 . S
C636 C635 1.400 . S
C636 C639 1.386 . S
H637 C653 0.930 . S
H638 C654 0.931 . S
C639 H627 0.929 . S
C639 C633 1.390 . S
C639 C636 1.386 . S
C640 C635 1.490 . S
C640 C642 1.395 . S
C640 C643 1.403 . S
H641 C647 0.930 . S
C642 H628 0.930 . S
C642 C640 1.395 . S
C642 C645 1.403 . S
C643 C640 1.403 . S
C643 C644 1.524 . S
C643 C647 1.400 . S
C644 H629 0.960 . S
C644 H630 0.960 . S
C644 H631 0.960 . S
C644 C643 1.524 . S
C645 C642 1.403 . S
C645 C646 1.392 . S
C645 C649 1.495 1_565 S
C646 C645 1.392 . S
C646 C647 1.385 . S
C646 C648 1.478 1_565 S
C647 H641 0.930 . S
C647 C643 1.400 . S
C647 C646 1.385 . S
C648 C646 1.478 1_545 S
C648 C650 1.381 . S
C648 C654 1.383 1_545 S
C649 C645 1.495 1_545 S
C649 H655 0.959 . S
C649 H656 0.961 . S
C649 H657 0.960 . S
C650 C648 1.381 . S
C650 C651 1.394 . S
C650 H658 0.930 . S
C651 C650 1.394 . S
C651 C652 1.383 . S
C651 H659 0.929 . S
C652 C651 1.383 . S
C652 C653 1.377 . S
C653 H637 0.930 . S
C653 C652 1.377 . S
C653 C654 1.379 1_545 S
C654 H638 0.931 . S
C654 C648 1.383 1_565 S
C654 C653 1.379 1_565 S
H655 C649 0.959 . S
H656 C649 0.961 . S
H657 C649 0.960 . S
H658 C650 0.930 . S
H659 C651 0.929 . S
H660 C668 0.929 . S
H661 C670 0.930 . S
H662 C672 0.930 . S
H663 C675 0.929 . S
H664 C678 0.930 . S
H665 C680 0.960 . S
H666 C680 0.960 . S
H667 C680 0.960 . S
C668 H660 0.929 . S
C668 C669 1.377 . S
C668 C670 1.384 . S
C669 C668 1.377 . S
C669 C675 1.390 . S
C670 H661 0.930 . S
C670 C668 1.384 . S
C670 C671 1.372 . S
C671 C670 1.372 . S
C671 C672 1.400 . S
C671 C676 1.490 . S
C672 H662 0.930 . S
C672 C671 1.400 . S
C672 C675 1.386 . S
H673 C689 0.930 . S
H674 C690 0.931 . S
C675 H663 0.929 . S
C675 C669 1.390 . S
C675 C672 1.386 . S
C676 C671 1.490 . S
C676 C678 1.395 . S
C676 C679 1.403 . S
H677 C683 0.930 . S
C678 H664 0.930 . S
C678 C676 1.395 . S
C678 C681 1.403 . S
C679 C676 1.403 . S
C679 C680 1.524 . S
C679 C683 1.400 . S
C680 H665 0.960 . S
C680 H666 0.960 . S
C680 H667 0.960 . S
C680 C679 1.524 . S
C681 C678 1.403 . S
C681 C682 1.392 . S
C681 C685 1.495 . S
C682 C681 1.392 . S
C682 C683 1.385 . S
C682 C684 1.478 . S
C683 H677 0.930 . S
C683 C679 1.400 . S
C683 C682 1.385 . S
C684 C682 1.478 . S
C684 C686 1.381 . S
C684 C690 1.383 . S
C685 C681 1.495 . S
C685 H691 0.959 . S
C685 H692 0.961 . S
C685 H693 0.960 . S
C686 C684 1.381 . S
C686 C687 1.394 . S
C686 H694 0.930 . S
C687 C686 1.394 . S
C687 C688 1.383 . S
C687 H695 0.929 . S
C688 C687 1.383 . S
C688 C689 1.377 . S
C689 H673 0.930 . S
C689 C688 1.377 . S
C689 C690 1.379 . S
C690 H674 0.931 . S
C690 C684 1.383 . S
C690 C689 1.379 . S
H691 C685 0.959 . S
H692 C685 0.961 . S
H693 C685 0.960 . S
H694 C686 0.930 . S
H695 C687 0.929 . S
H696 C704 0.929 . S
H697 C706 0.930 . S
H698 C708 0.930 . S
H699 C711 0.929 . S
H700 C714 0.930 . S
H701 C716 0.960 . S
H702 C716 0.960 . S
H703 C716 0.960 . S
C704 H696 0.929 . S
C704 C705 1.377 . S
C704 C706 1.384 . S
C705 C704 1.377 . S
C705 C711 1.390 . S
C706 H697 0.930 . S
C706 C704 1.384 . S
C706 C707 1.372 . S
C707 C706 1.372 . S
C707 C708 1.400 . S
C707 C712 1.490 . S
C708 H698 0.930 . S
C708 C707 1.400 . S
C708 C711 1.386 . S
H709 C725 0.930 . S
H710 C726 0.931 . S
C711 H699 0.929 . S
C711 C705 1.390 . S
C711 C708 1.386 . S
C712 C707 1.490 . S
C712 C714 1.395 . S
C712 C715 1.403 . S
H713 C719 0.930 . S
C714 H700 0.930 . S
C714 C712 1.395 . S
C714 C717 1.403 . S
C715 C712 1.403 . S
C715 C716 1.524 . S
C715 C719 1.400 . S
C716 H701 0.960 . S
C716 H702 0.960 . S
C716 H703 0.960 . S
C716 C715 1.524 . S
C717 C714 1.403 . S
C717 C718 1.392 . S
C717 C721 1.495 . S
C718 C717 1.392 . S
C718 C719 1.385 . S
C718 C720 1.478 . S
C719 H713 0.930 . S
C719 C715 1.400 . S
C719 C718 1.385 . S
C720 C718 1.478 . S
C720 C722 1.381 . S
C720 C726 1.383 . S
C721 C717 1.495 . S
C721 H727 0.959 . S
C721 H728 0.961 . S
C721 H729 0.960 . S
C722 C720 1.381 . S
C722 C723 1.394 1_565 S
C722 H730 0.930 . S
C723 C722 1.394 1_545 S
C723 C724 1.383 . S
C723 H731 0.929 . S
C724 C723 1.383 . S
C724 C725 1.377 . S
C725 H709 0.930 . S
C725 C724 1.377 . S
C725 C726 1.379 1_545 S
C726 H710 0.931 . S
C726 C720 1.383 . S
C726 C725 1.379 1_565 S
H727 C721 0.959 . S
H728 C721 0.961 . S
H729 C721 0.960 . S
H730 C722 0.930 . S
H731 C723 0.929 . S
H732 C740 0.929 . S
H733 C742 0.930 . S
H734 C744 0.930 . S
H735 C747 0.929 . S
H736 C750 0.930 . S
H737 C752 0.960 . S
H738 C752 0.960 . S
H739 C752 0.960 . S
C740 H732 0.929 . S
C740 C741 1.377 . S
C740 C742 1.384 . S
C741 C740 1.377 . S
C741 C747 1.390 . S
C742 H733 0.930 . S
C742 C740 1.384 . S
C742 C743 1.372 . S
C743 C742 1.372 . S
C743 C744 1.400 . S
C743 C748 1.490 . S
C744 H734 0.930 . S
C744 C743 1.400 . S
C744 C747 1.386 . S
H745 C761 0.930 . S
H746 C762 0.931 . S
C747 H735 0.929 . S
C747 C741 1.390 . S
C747 C744 1.386 . S
C748 C743 1.490 . S
C748 C750 1.395 . S
C748 C751 1.403 . S
H749 C755 0.930 . S
C750 H736 0.930 . S
C750 C748 1.395 . S
C750 C753 1.403 . S
C751 C748 1.403 . S
C751 C752 1.524 . S
C751 C755 1.400 . S
C752 H737 0.960 . S
C752 H738 0.960 . S
C752 H739 0.960 . S
C752 C751 1.524 . S
C753 C750 1.403 . S
C753 C754 1.392 . S
C753 C757 1.495 . S
C754 C753 1.392 . S
C754 C755 1.385 . S
C754 C756 1.478 . S
C755 H749 0.930 . S
C755 C751 1.400 . S
C755 C754 1.385 . S
C756 C754 1.478 . S
C756 C758 1.381 . S
C756 C762 1.383 . S
C757 C753 1.495 . S
C757 H763 0.959 . S
C757 H764 0.961 . S
C757 H765 0.960 . S
C758 C756 1.381 . S
C758 C759 1.394 . S
C758 H766 0.930 . S
C759 C758 1.394 . S
C759 C760 1.383 . S
C759 H767 0.929 . S
C760 C759 1.383 . S
C760 C761 1.377 . S
C761 H745 0.930 . S
C761 C760 1.377 . S
C761 C762 1.379 . S
C762 H746 0.931 . S
C762 C756 1.383 . S
C762 C761 1.379 . S
H763 C757 0.959 . S
H764 C757 0.961 . S
H765 C757 0.960 . S
H766 C758 0.930 . S
H767 C759 0.929 . S
H768 C776 0.929 . S
H769 C778 0.930 . S
H770 C780 0.930 . S
H771 C783 0.929 . S
H772 C786 0.930 . S
H773 C788 0.960 . S
H774 C788 0.960 . S
H775 C788 0.960 . S
C776 H768 0.929 . S
C776 C777 1.377 . S
C776 C778 1.384 . S
C777 C776 1.377 . S
C777 C783 1.390 . S
C778 H769 0.930 . S
C778 C776 1.384 . S
C778 C779 1.372 . S
C779 C778 1.372 . S
C779 C780 1.400 . S
C779 C784 1.490 . S
C780 H770 0.930 . S
C780 C779 1.400 . S
C780 C783 1.386 . S
H781 C797 0.930 . S
H782 C798 0.931 . S
C783 H771 0.929 . S
C783 C777 1.390 . S
C783 C780 1.386 . S
C784 C779 1.490 . S
C784 C786 1.395 . S
C784 C787 1.403 . S
H785 C791 0.930 . S
C786 H772 0.930 . S
C786 C784 1.395 . S
C786 C789 1.403 . S
C787 C784 1.403 . S
C787 C788 1.524 . S
C787 C791 1.400 . S
C788 H773 0.960 . S
C788 H774 0.960 . S
C788 H775 0.960 . S
C788 C787 1.524 . S
C789 C786 1.403 . S
C789 C790 1.392 . S
C789 C793 1.495 . S
C790 C789 1.392 . S
C790 C791 1.385 . S
C790 C792 1.478 . S
C791 H785 0.930 . S
C791 C787 1.400 . S
C791 C790 1.385 . S
C792 C790 1.478 . S
C792 C794 1.381 1_455 S
C792 C798 1.383 . S
C793 C789 1.495 . S
C793 H799 0.959 . S
C793 H800 0.961 . S
C793 H801 0.960 . S
C794 C792 1.381 1_655 S
C794 C795 1.394 . S
C794 H802 0.930 . S
C795 C794 1.394 . S
C795 C796 1.383 . S
C795 H803 0.929 . S
C796 C795 1.383 . S
C796 C797 1.377 1_655 S
C797 H781 0.930 . S
C797 C796 1.377 1_455 S
C797 C798 1.379 . S
C798 H782 0.931 . S
C798 C792 1.383 . S
C798 C797 1.379 . S
H799 C793 0.959 . S
H800 C793 0.961 . S
H801 C793 0.960 . S
H802 C794 0.930 . S
H803 C795 0.929 . S
H804 C812 0.929 . S
H805 C814 0.930 . S
H806 C816 0.930 . S
H807 C819 0.929 . S
H808 C822 0.930 . S
H809 C824 0.960 . S
H810 C824 0.960 . S
H811 C824 0.960 . S
C812 H804 0.929 . S
C812 C813 1.377 . S
C812 C814 1.384 . S
C813 C812 1.377 . S
C813 C819 1.390 . S
C814 H805 0.930 . S
C814 C812 1.384 . S
C814 C815 1.372 . S
C815 C814 1.372 . S
C815 C816 1.400 . S
C815 C820 1.490 . S
C816 H806 0.930 . S
C816 C815 1.400 . S
C816 C819 1.386 . S
H817 C833 0.930 . S
H818 C834 0.931 . S
C819 H807 0.929 . S
C819 C813 1.390 . S
C819 C816 1.386 . S
C820 C815 1.490 . S
C820 C822 1.395 . S
C820 C823 1.403 . S
H821 C827 0.930 . S
C822 H808 0.930 . S
C822 C820 1.395 . S
C822 C825 1.403 . S
C823 C820 1.403 . S
C823 C824 1.524 . S
C823 C827 1.400 . S
C824 H809 0.960 . S
C824 H810 0.960 . S
C824 H811 0.960 . S
C824 C823 1.524 . S
C825 C822 1.403 . S
C825 C826 1.392 . S
C825 C829 1.495 1_545 S
C826 C825 1.392 . S
C826 C827 1.385 . S
C826 C828 1.478 . S
C827 H821 0.930 . S
C827 C823 1.400 . S
C827 C826 1.385 . S
C828 C826 1.478 . S
C828 C830 1.381 . S
C828 C834 1.383 1_545 S
C829 C825 1.495 1_565 S
C829 H835 0.959 . S
C829 H836 0.961 . S
C829 H837 0.960 . S
C830 C828 1.381 . S
C830 C831 1.394 1_545 S
C830 H838 0.930 . S
C831 C830 1.394 1_565 S
C831 C832 1.383 . S
C831 H839 0.929 . S
C832 C831 1.383 . S
C832 C833 1.377 . S
C833 H817 0.930 . S
C833 C832 1.377 . S
C833 C834 1.379 . S
C834 H818 0.931 . S
C834 C828 1.383 1_565 S
C834 C833 1.379 . S
H835 C829 0.959 . S
H836 C829 0.961 . S
H837 C829 0.960 . S
H838 C830 0.930 . S
H839 C831 0.929 . S
H840 C848 0.929 . S
H841 C850 0.930 . S
H842 C852 0.930 . S
H843 C855 0.929 1_554 S
H844 C858 0.930 . S
H845 C860 0.960 . S
H846 C860 0.960 . S
H847 C860 0.960 . S
C848 H840 0.929 . S
C848 C849 1.377 . S
C848 C850 1.384 . S
C849 C848 1.377 . S
C849 C855 1.390 . S
C850 H841 0.930 . S
C850 C848 1.384 . S
C850 C851 1.372 . S
C851 C850 1.372 . S
C851 C852 1.400 1_556 S
C851 C856 1.484 1_556 S
C852 H842 0.930 . S
C852 C851 1.400 1_554 S
C852 C855 1.386 1_554 S
H853 C869 0.930 . S
H854 C870 0.931 . S
C855 H843 0.929 1_556 S
C855 C849 1.390 . S
C855 C852 1.386 1_556 S
C856 C851 1.484 1_554 S
C856 C858 1.392 1_554 S
C856 C859 1.411 . S
H857 C863 0.930 . S
C858 H844 0.930 . S
C858 C856 1.392 1_556 S
C858 C861 1.403 1_556 S
C859 C856 1.411 . S
C859 C860 1.524 . S
C859 C863 1.400 . S
C860 H845 0.960 . S
C860 H846 0.960 . S
C860 H847 0.960 . S
C860 C859 1.524 . S
C861 C858 1.403 1_554 S
C861 C862 1.392 . S
C861 C865 1.495 . S
C862 C861 1.392 . S
C862 C863 1.385 . S
C862 C864 1.478 . S
C863 H857 0.930 . S
C863 C859 1.400 . S
C863 C862 1.385 . S
C864 C862 1.478 . S
C864 C866 1.381 . S
C864 C870 1.383 . S
C865 C861 1.495 . S
C865 H871 0.959 1_554 S
C865 H872 0.961 . S
C865 H873 0.960 1_554 S
C866 C864 1.381 . S
C866 C867 1.394 . S
C866 H874 0.965 . S
C867 C866 1.394 . S
C867 C868 1.383 . S
C867 H875 0.929 . S
C868 C867 1.383 . S
C868 C869 1.377 . S
C869 H853 0.930 . S
C869 C868 1.377 . S
C869 C870 1.379 . S
C870 H854 0.931 . S
C870 C864 1.383 . S
C870 C869 1.379 . S
H871 C865 0.959 1_556 S
H872 C865 0.961 . S
H873 C865 0.960 1_556 S
H874 C866 0.965 . S
H875 C867 0.929 . S
H876 C884 0.924 1_655 S
H877 C886 0.930 . S
H878 C888 0.930 . S
H879 C891 0.929 . S
H880 C894 0.930 . S
H881 C896 0.960 . S
H882 C896 0.960 . S
H883 C896 0.960 . S
C884 H876 0.924 1_455 S
C884 C885 1.387 . S
C884 C886 1.380 1_455 S
C885 C884 1.387 . S
C885 C891 1.390 . S
C886 H877 0.930 . S
C886 C884 1.380 1_655 S
C886 C887 1.372 . S
C887 C886 1.372 . S
C887 C888 1.400 1_655 S
C887 C892 1.490 . S
C888 H878 0.930 . S
C888 C887 1.400 1_455 S
C888 C891 1.386 . S
H889 C905 0.930 . S
H890 C906 0.931 . S
C891 H879 0.929 . S
C891 C885 1.390 . S
C891 C888 1.386 . S
C892 C887 1.490 . S
C892 C894 1.395 . S
C892 C895 1.403 . S
H893 C899 0.930 . S
C894 H880 0.930 . S
C894 C892 1.395 . S
C894 C897 1.403 . S
C895 C892 1.403 . S
C895 C896 1.524 1_655 S
C895 C899 1.400 . S
C896 H881 0.960 . S
C896 H882 0.960 . S
C896 H883 0.960 . S
C896 C895 1.524 1_455 S
C897 C894 1.403 . S
C897 C898 1.392 . S
C897 C901 1.495 . S
C898 C897 1.392 . S
C898 C899 1.385 . S
C898 C900 1.478 . S
C899 H893 0.930 . S
C899 C895 1.400 . S
C899 C898 1.385 . S
C900 C898 1.478 . S
C900 C902 1.381 . S
C900 C906 1.383 . S
C901 C897 1.495 . S
C901 H907 0.959 . S
C901 H908 0.961 . S
C901 H909 0.960 . S
C902 C900 1.381 . S
C902 C903 1.394 . S
C902 H910 0.930 . S
C903 C902 1.394 . S
C903 C904 1.383 . S
C903 H911 0.929 . S
C904 C903 1.383 . S
C904 C905 1.377 . S
C905 H889 0.930 . S
C905 C904 1.377 . S
C905 C906 1.379 . S
C906 H890 0.931 . S
C906 C900 1.383 . S
C906 C905 1.379 . S
H907 C901 0.959 . S
H908 C901 0.961 . S
H909 C901 0.960 . S
H910 C902 0.930 . S
H911 C903 0.929 . S
H912 C920 0.929 . S
H913 C922 0.930 . S
H914 C924 0.930 . S
H915 C927 0.929 . S
H916 C930 0.930 1_655 S
H917 C932 0.960 . S
H918 C932 0.960 . S
H919 C932 0.960 . S
C920 H912 0.929 . S
C920 C921 1.377 . S
C920 C922 1.384 . S
C921 C920 1.377 . S
C921 C927 1.390 1_655 S
C922 H913 0.930 . S
C922 C920 1.384 . S
C922 C923 1.372 1_655 S
C923 C922 1.372 1_455 S
C923 C924 1.400 . S
C923 C928 1.490 . S
C924 H914 0.930 . S
C924 C923 1.400 . S
C924 C927 1.386 . S
H925 C941 0.930 . S
H926 C942 0.931 . S
C927 H915 0.929 . S
C927 C921 1.390 1_455 S
C927 C924 1.386 . S
C928 C923 1.490 . S
C928 C930 1.395 . S
C928 C931 1.403 . S
H929 C935 0.930 . S
C930 H916 0.930 1_455 S
C930 C928 1.395 . S
C930 C933 1.403 . S
C931 C928 1.403 . S
C931 C932 1.524 . S
C931 C935 1.400 . S
C932 H917 0.960 . S
C932 H918 0.960 . S
C932 H919 0.960 . S
C932 C931 1.524 . S
C933 C930 1.403 . S
C933 C934 1.392 . S
C933 C937 1.495 . S
C934 C933 1.392 . S
C934 C935 1.385 . S
C934 C936 1.478 . S
C935 H929 0.930 . S
C935 C931 1.400 . S
C935 C934 1.385 . S
C936 C934 1.478 . S
C936 C938 1.381 . S
C936 C942 1.383 . S
C937 C933 1.495 . S
C937 H943 0.959 1_455 S
C937 H944 0.961 . S
C937 H945 0.960 . S
C938 C936 1.381 . S
C938 C939 1.394 . S
C938 H946 0.930 . S
C939 C938 1.394 . S
C939 C940 1.383 . S
C939 H947 0.929 . S
C940 C939 1.383 . S
C940 C941 1.377 . S
C941 H925 0.930 . S
C941 C940 1.377 . S
C941 C942 1.379 . S
C942 H926 0.931 . S
C942 C936 1.383 . S
C942 C941 1.379 . S
H943 C937 0.959 1_655 S
H944 C937 0.961 . S
H945 C937 0.960 . S
H946 C938 0.930 . S
H947 C939 0.929 . S
H948 C956 0.929 . S
H949 C958 0.930 . S
H950 C960 0.930 . S
H951 C963 0.929 . S
H952 C966 0.930 . S
H953 C968 0.960 . S
H954 C968 0.960 1_565 S
H955 C968 0.960 . S
C956 H948 0.929 . S
C956 C957 1.377 . S
C956 C958 1.384 . S
C957 C956 1.377 . S
C957 C963 1.390 1_565 S
C958 H949 0.930 . S
C958 C956 1.384 . S
C958 C959 1.372 1_565 S
C959 C958 1.372 1_545 S
C959 C960 1.400 . S
C959 C964 1.490 . S
C960 H950 0.930 . S
C960 C959 1.400 . S
C960 C963 1.386 . S
H961 C977 0.930 . S
H962 C978 0.931 . S
C963 H951 0.929 . S
C963 C957 1.390 1_545 S
C963 C960 1.386 . S
C964 C959 1.490 . S
C964 C966 1.395 . S
C964 C967 1.403 . S
H965 C971 0.930 . S
C966 H952 0.930 . S
C966 C964 1.395 . S
C966 C969 1.403 . S
C967 C964 1.403 . S
C967 C968 1.524 . S
C967 C971 1.400 . S
C968 H953 0.960 . S
C968 H954 0.960 1_545 S
C968 H955 0.960 . S
C968 C967 1.524 . S
C969 C966 1.403 . S
C969 C970 1.392 . S
C969 C973 1.495 . S
C970 C969 1.392 . S
C970 C971 1.385 . S
C970 C972 1.478 . S
C971 H965 0.930 . S
C971 C967 1.400 . S
C971 C970 1.385 . S
C972 C970 1.478 . S
C972 C974 1.381 . S
C972 C978 1.383 . S
C973 C969 1.495 . S
C973 H979 0.959 . S
C973 H980 0.961 . S
C973 H981 0.960 . S
C974 C972 1.381 . S
C974 C975 1.394 . S
C974 H982 0.930 . S
C975 C974 1.394 . S
C975 C976 1.383 . S
C975 H983 0.929 . S
C976 C975 1.383 . S
C976 C977 1.377 . S
C977 H961 0.930 . S
C977 C976 1.377 . S
C977 C978 1.379 . S
C978 H962 0.931 . S
C978 C972 1.383 . S
C978 C977 1.379 . S
H979 C973 0.959 . S
H980 C973 0.961 . S
H981 C973 0.960 . S
H982 C974 0.930 . S
H983 C975 0.929 . S
H984 C992 0.929 . S
H985 C994 0.930 . S
H986 C996 0.930 . S
H987 C999 0.929 . S
H988 C1002 0.930 . S
H989 C1004 0.960 . S
H990 C1004 0.960 . S
H991 C1004 0.960 . S
C992 H984 0.929 . S
C992 C993 1.377 . S
C992 C994 1.384 . S
C993 C992 1.377 . S
C993 C999 1.390 . S
C994 H985 0.930 . S
C994 C992 1.384 . S
C994 C995 1.372 . S
C995 C994 1.372 . S
C995 C996 1.400 . S
C995 C1000 1.490 . S
C996 H986 0.930 . S
C996 C995 1.400 . S
C996 C999 1.386 . S
H997 C1013 0.930 . S
H998 C1014 0.931 . S
C999 H987 0.929 . S
C999 C993 1.390 . S
C999 C996 1.386 . S
C1000 C995 1.490 . S
C1000 C1002 1.395 . S
C1000 C1003 1.403 . S
H1001 C1007 0.930 . S
C1002 H988 0.930 . S
C1002 C1000 1.395 . S
C1002 C1005 1.403 . S
C1003 C1000 1.403 . S
C1003 C1004 1.524 . S
C1003 C1007 1.400 . S
C1004 H989 0.960 . S
C1004 H990 0.960 . S
C1004 H991 0.960 . S
C1004 C1003 1.524 . S
C1005 C1002 1.403 . S
C1005 C1006 1.392 . S
C1005 C1009 1.495 . S
C1006 C1005 1.392 . S
C1006 C1007 1.385 . S
C1006 C1008 1.478 . S
C1007 H1001 0.930 . S
C1007 C1003 1.400 . S
C1007 C1006 1.385 . S
C1008 C1006 1.478 . S
C1008 C1010 1.381 . S
C1008 C1014 1.383 . S
C1009 C1005 1.495 . S
C1009 H1015 0.959 . S
C1009 H1016 0.961 . S
C1009 H1017 0.960 . S
C1010 C1008 1.381 . S
C1010 C1011 1.394 . S
C1010 H1018 0.930 . S
C1011 C1010 1.394 . S
C1011 C1012 1.383 . S
C1011 H1019 0.929 . S
C1012 C1011 1.383 . S
C1012 C1013 1.377 . S
C1013 H997 0.930 . S
C1013 C1012 1.377 . S
C1013 C1014 1.379 . S
C1014 H998 0.931 . S
C1014 C1008 1.383 . S
C1014 C1013 1.379 . S
H1015 C1009 0.959 . S
H1016 C1009 0.961 . S
H1017 C1009 0.960 . S
H1018 C1010 0.930 . S
H1019 C1011 0.929 . S
H1020 C1028 0.929 . S
H1021 C1030 0.930 . S
H1022 C1032 0.930 . S
H1023 C1035 0.929 . S
H1024 C1038 0.930 . S
H1025 C1040 0.960 . S
H1026 C1040 0.960 . S
H1027 C1040 0.960 . S
C1028 H1020 0.929 . S
C1028 C1029 1.377 . S
C1028 C1030 1.384 . S
C1029 C1028 1.377 . S
C1029 C1035 1.390 . S
C1030 H1021 0.930 . S
C1030 C1028 1.384 . S
C1030 C1031 1.372 . S
C1031 C1030 1.372 . S
C1031 C1032 1.400 . S
C1031 C1036 1.490 1_554 S
C1032 H1022 0.930 . S
C1032 C1031 1.400 . S
C1032 C1035 1.386 . S
H1033 C1049 0.930 . S
H1034 C1050 0.931 . S
C1035 H1023 0.929 . S
C1035 C1029 1.390 . S
C1035 C1032 1.386 . S
C1036 C1031 1.490 1_556 S
C1036 C1038 1.395 1_556 S
C1036 C1039 1.403 . S
H1037 C1043 0.930 . S
C1038 H1024 0.930 . S
C1038 C1036 1.395 1_554 S
C1038 C1041 1.403 . S
C1039 C1036 1.403 . S
C1039 C1040 1.524 . S
C1039 C1043 1.400 . S
C1040 H1025 0.960 . S
C1040 H1026 0.960 . S
C1040 H1027 0.960 . S
C1040 C1039 1.524 . S
C1041 C1038 1.403 . S
C1041 C1042 1.392 1_554 S
C1041 C1045 1.495 . S
C1042 C1041 1.392 1_556 S
C1042 C1043 1.385 . S
C1042 C1044 1.478 . S
C1043 H1037 0.930 . S
C1043 C1039 1.400 . S
C1043 C1042 1.385 . S
C1044 C1042 1.478 . S
C1044 C1046 1.381 1_655 S
C1044 C1050 1.383 . S
C1045 C1041 1.495 . S
C1045 H1051 0.959 . S
C1045 H1052 0.961 . S
C1045 H1053 0.960 1_655 S
C1046 C1044 1.381 1_455 S
C1046 C1047 1.394 . S
C1046 H1054 0.930 . S
C1047 C1046 1.394 . S
C1047 C1048 1.383 . S
C1047 H1055 0.929 . S
C1048 C1047 1.383 . S
C1048 C1049 1.377 1_455 S
C1049 H1033 0.930 . S
C1049 C1048 1.377 1_655 S
C1049 C1050 1.379 . S
C1050 H1034 0.931 . S
C1050 C1044 1.383 . S
C1050 C1049 1.379 . S
H1051 C1045 0.959 . S
H1052 C1045 0.961 . S
H1053 C1045 0.960 1_455 S
H1054 C1046 0.930 . S
H1055 C1047 0.929 . S
H1056 C1064 0.929 . S
H1057 C1066 0.930 . S
H1058 C1068 0.930 . S
H1059 C1071 0.929 . S
H1060 C1074 0.930 . S
H1061 C1076 0.960 . S
H1062 C1076 0.960 . S
H1063 C1076 0.960 1_545 S
C1064 H1056 0.929 . S
C1064 C1065 1.377 1_565 S
C1064 C1066 1.384 . S
C1065 C1064 1.377 1_545 S
C1065 C1071 1.390 . S
C1066 H1057 0.930 . S
C1066 C1064 1.384 . S
C1066 C1067 1.372 . S
C1067 C1066 1.372 . S
C1067 C1068 1.400 1_565 S
C1067 C1072 1.490 . S
C1068 H1058 0.930 . S
C1068 C1067 1.400 1_545 S
C1068 C1071 1.386 . S
H1069 C1085 0.930 . S
H1070 C1086 0.931 . S
C1071 H1059 0.929 . S
C1071 C1065 1.390 . S
C1071 C1068 1.386 . S
C1072 C1067 1.490 . S
C1072 C1074 1.395 . S
C1072 C1075 1.403 . S
H1073 C1079 0.930 . S
C1074 H1060 0.930 . S
C1074 C1072 1.395 . S
C1074 C1077 1.403 . S
C1075 C1072 1.403 . S
C1075 C1076 1.524 . S
C1075 C1079 1.400 . S
C1076 H1061 0.960 . S
C1076 H1062 0.960 . S
C1076 H1063 0.960 1_565 S
C1076 C1075 1.524 . S
C1077 C1074 1.403 . S
C1077 C1078 1.392 . S
C1077 C1081 1.495 . S
C1078 C1077 1.392 . S
C1078 C1079 1.385 . S
C1078 C1080 1.478 . S
C1079 H1073 0.930 . S
C1079 C1075 1.400 . S
C1079 C1078 1.385 . S
C1080 C1078 1.478 . S
C1080 C1082 1.381 . S
C1080 C1086 1.383 . S
C1081 C1077 1.495 . S
C1081 H1087 0.959 . S
C1081 H1088 0.961 . S
C1081 H1089 0.960 . S
C1082 C1080 1.381 . S
C1082 C1083 1.394 . S
C1082 H1090 0.930 . S
C1083 C1082 1.394 . S
C1083 C1084 1.383 . S
C1083 H1091 0.929 . S
C1084 C1083 1.383 . S
C1084 C1085 1.377 . S
C1085 H1069 0.930 . S
C1085 C1084 1.377 . S
C1085 C1086 1.379 . S
C1086 H1070 0.931 . S
C1086 C1080 1.383 . S
C1086 C1085 1.379 . S
H1087 C1081 0.959 . S
H1088 C1081 0.961 . S
H1089 C1081 0.960 . S
H1090 C1082 0.930 . S
H1091 C1083 0.929 . S
H1092 C1100 0.929 . S
H1093 C1102 0.930 . S
H1094 C1104 0.930 . S
H1095 C1107 0.929 . S
H1096 C1110 0.930 . S
H1097 C1112 0.960 . S
H1098 C1112 0.960 . S
H1099 C1112 0.960 . S
C1100 H1092 0.929 . S
C1100 C1101 1.377 . S
C1100 C1102 1.384 . S
C1101 C1100 1.377 . S
C1101 C1107 1.390 . S
C1102 H1093 0.930 . S
C1102 C1100 1.384 . S
C1102 C1103 1.372 . S
C1103 C1102 1.372 . S
C1103 C1104 1.400 . S
C1103 C1108 1.490 . S
C1104 H1094 0.930 . S
C1104 C1103 1.400 . S
C1104 C1107 1.386 . S
H1105 C1121 0.930 . S
H1106 C1122 0.931 . S
C1107 H1095 0.929 . S
C1107 C1101 1.390 . S
C1107 C1104 1.386 . S
C1108 C1103 1.490 . S
C1108 C1110 1.395 . S
C1108 C1111 1.403 . S
H1109 C1115 0.930 . S
C1110 H1096 0.930 . S
C1110 C1108 1.395 . S
C1110 C1113 1.403 . S
C1111 C1108 1.403 . S
C1111 C1112 1.524 . S
C1111 C1115 1.400 . S
C1112 H1097 0.960 . S
C1112 H1098 0.960 . S
C1112 H1099 0.960 . S
C1112 C1111 1.524 . S
C1113 C1110 1.403 . S
C1113 C1114 1.392 . S
C1113 C1117 1.495 . S
C1114 C1113 1.392 . S
C1114 C1115 1.385 . S
C1114 C1116 1.478 . S
C1115 H1109 0.930 . S
C1115 C1111 1.400 . S
C1115 C1114 1.385 . S
C1116 C1114 1.478 . S
C1116 C1118 1.381 . S
C1116 C1122 1.383 . S
C1117 C1113 1.495 . S
C1117 H1123 0.959 . S
C1117 H1124 0.961 . S
C1117 H1125 0.960 . S
C1118 C1116 1.381 . S
C1118 C1119 1.394 . S
C1118 H1126 0.930 . S
C1119 C1118 1.394 . S
C1119 C1120 1.383 . S
C1119 H1127 0.929 . S
C1120 C1119 1.383 . S
C1120 C1121 1.377 . S
C1121 H1105 0.930 . S
C1121 C1120 1.377 . S
C1121 C1122 1.379 . S
C1122 H1106 0.931 . S
C1122 C1116 1.383 . S
C1122 C1121 1.379 . S
H1123 C1117 0.959 . S
H1124 C1117 0.961 . S
H1125 C1117 0.960 . S
H1126 C1118 0.930 . S
H1127 C1119 0.929 . S
H1128 C1136 0.929 . S
H1129 C1138 0.930 . S
H1130 C1140 0.930 . S
H1131 C1143 0.929 . S
H1132 C1146 0.930 . S
H1133 C1148 0.960 . S
H1134 C1148 0.960 . S
H1135 C1148 0.960 . S
C1136 H1128 0.929 . S
C1136 C1137 1.378 1_655 S
C1136 C1138 1.384 1_655 S
C1137 C1136 1.378 1_455 S
C1137 C1143 1.389 . S
C1138 H1129 0.930 . S
C1138 C1136 1.384 1_455 S
C1138 C1139 1.372 . S
C1139 C1138 1.372 . S
C1139 C1140 1.400 . S
C1139 C1144 1.490 . S
C1140 H1130 0.930 . S
C1140 C1139 1.400 . S
C1140 C1143 1.386 . S
H1141 C1157 0.930 . S
H1142 C1158 0.931 . S
C1143 H1131 0.929 . S
C1143 C1137 1.389 . S
C1143 C1140 1.386 . S
C1144 C1139 1.490 . S
C1144 C1146 1.395 . S
C1144 C1147 1.403 . S
H1145 C1151 0.930 . S
C1146 H1132 0.930 . S
C1146 C1144 1.395 . S
C1146 C1149 1.403 . S
C1147 C1144 1.403 . S
C1147 C1148 1.524 . S
C1147 C1151 1.400 . S
C1148 H1133 0.960 . S
C1148 H1134 0.960 . S
C1148 H1135 0.960 . S
C1148 C1147 1.524 . S
C1149 C1146 1.403 . S
C1149 C1150 1.392 . S
C1149 C1153 1.495 . S
C1150 C1149 1.392 . S
C1150 C1151 1.385 . S
C1150 C1152 1.478 . S
C1151 H1145 0.930 . S
C1151 C1147 1.400 . S
C1151 C1150 1.385 . S
C1152 C1150 1.478 . S
C1152 C1154 1.381 . S
C1152 C1158 1.383 . S
C1153 C1149 1.495 . S
C1153 H1159 0.959 . S
C1153 H1160 0.961 . S
C1153 H1161 0.960 . S
C1154 C1152 1.381 . S
C1154 C1155 1.394 1_565 S
C1154 H1162 0.930 . S
C1155 C1154 1.394 1_545 S
C1155 C1156 1.383 . S
C1155 H1163 0.929 . S
C1156 C1155 1.383 . S
C1156 C1157 1.377 1_545 S
C1157 H1141 0.930 . S
C1157 C1156 1.377 1_565 S
C1157 C1158 1.379 . S
C1158 H1142 0.931 . S
C1158 C1152 1.383 . S
C1158 C1157 1.379 . S
H1159 C1153 0.959 . S
H1160 C1153 0.961 . S
H1161 C1153 0.960 . S
H1162 C1154 0.930 . S
H1163 C1155 0.929 . S
H1164 C1172 0.929 . S
H1165 C1174 0.930 . S
H1166 C1176 0.930 . S
H1167 C1179 0.929 . S
H1168 C1182 0.930 . S
H1169 C1184 0.960 . S
H1170 C1184 0.960 . S
H1171 C1184 0.960 . S
C1172 H1164 0.929 . S
C1172 C1173 1.377 . S
C1172 C1174 1.384 . S
C1173 C1172 1.377 . S
C1173 C1179 1.390 . S
C1174 H1165 0.930 . S
C1174 C1172 1.384 . S
C1174 C1175 1.372 . S
C1175 C1174 1.372 . S
C1175 C1176 1.400 . S
C1175 C1180 1.490 . S
C1176 H1166 0.930 . S
C1176 C1175 1.400 . S
C1176 C1179 1.386 . S
H1177 C1193 0.934 . S
H1178 C1194 0.931 . S
C1179 H1167 0.929 . S
C1179 C1173 1.390 . S
C1179 C1176 1.386 . S
C1180 C1175 1.490 . S
C1180 C1182 1.395 . S
C1180 C1183 1.403 . S
H1181 C1187 0.930 . S
C1182 H1168 0.930 . S
C1182 C1180 1.395 . S
C1182 C1185 1.403 . S
C1183 C1180 1.403 . S
C1183 C1184 1.524 . S
C1183 C1187 1.400 . S
C1184 H1169 0.960 . S
C1184 H1170 0.960 . S
C1184 H1171 0.960 . S
C1184 C1183 1.524 . S
C1185 C1182 1.403 . S
C1185 C1186 1.392 . S
C1185 C1189 1.495 . S
C1186 C1185 1.392 . S
C1186 C1187 1.385 . S
C1186 C1188 1.478 . S
C1187 H1181 0.930 . S
C1187 C1183 1.400 . S
C1187 C1186 1.385 . S
C1188 C1186 1.478 . S
C1188 C1190 1.381 . S
C1188 C1194 1.383 . S
C1189 C1185 1.495 . S
C1189 H1195 0.959 . S
C1189 H1196 0.961 . S
C1189 H1197 0.960 . S
C1190 C1188 1.381 . S
C1190 C1191 1.394 . S
C1190 H1198 0.930 . S
C1191 C1190 1.394 . S
C1191 C1192 1.383 1_545 S
C1191 H1199 0.929 . S
C1192 C1191 1.383 1_565 S
C1192 C1193 1.377 1_565 S
C1193 H1177 0.934 . S
C1193 C1192 1.377 1_545 S
C1193 C1194 1.379 . S
C1194 H1178 0.931 . S
C1194 C1188 1.383 . S
C1194 C1193 1.379 . S
H1195 C1189 0.959 . S
H1196 C1189 0.961 . S
H1197 C1189 0.960 . S
H1198 C1190 0.930 . S
H1199 C1191 0.929 . S
H1200 C1208 0.929 . S
H1201 C1210 0.930 . S
H1202 C1212 0.930 . S
H1203 C1215 0.929 . S
H1204 C1218 0.930 . S
H1205 C1220 0.960 . S
H1206 C1220 0.960 . S
H1207 C1220 0.960 . S
C1208 H1200 0.929 . S
C1208 C1209 1.377 . S
C1208 C1210 1.384 . S
C1209 C1208 1.377 . S
C1209 C1215 1.390 . S
C1210 H1201 0.930 . S
C1210 C1208 1.384 . S
C1210 C1211 1.372 . S
C1211 C1210 1.372 . S
C1211 C1212 1.400 . S
C1211 C1216 1.490 . S
C1212 H1202 0.930 . S
C1212 C1211 1.400 . S
C1212 C1215 1.386 . S
H1213 C1229 0.930 . S
H1214 C1230 0.931 . S
C1215 H1203 0.929 . S
C1215 C1209 1.390 . S
C1215 C1212 1.386 . S
C1216 C1211 1.490 . S
C1216 C1218 1.395 . S
C1216 C1219 1.403 . S
H1217 C1223 0.930 . S
C1218 H1204 0.930 . S
C1218 C1216 1.395 . S
C1218 C1221 1.403 . S
C1219 C1216 1.403 . S
C1219 C1220 1.524 . S
C1219 C1223 1.400 . S
C1220 H1205 0.960 . S
C1220 H1206 0.960 . S
C1220 H1207 0.960 . S
C1220 C1219 1.524 . S
C1221 C1218 1.403 . S
C1221 C1222 1.392 . S
C1221 C1225 1.495 . S
C1222 C1221 1.392 . S
C1222 C1223 1.385 . S
C1222 C1224 1.478 . S
C1223 H1217 0.930 . S
C1223 C1219 1.400 . S
C1223 C1222 1.385 . S
C1224 C1222 1.478 . S
C1224 C1226 1.381 . S
C1224 C1230 1.383 . S
C1225 C1221 1.495 . S
C1225 H1231 0.959 . S
C1225 H1232 0.961 . S
C1225 H1233 0.960 . S
C1226 C1224 1.381 . S
C1226 C1227 1.394 . S
C1226 H1234 0.930 . S
C1227 C1226 1.394 . S
C1227 C1228 1.389 . S
C1227 H1235 0.929 . S
C1228 C1227 1.389 . S
C1228 C1229 1.378 1_455 S
C1229 H1213 0.930 . S
C1229 C1228 1.378 1_655 S
C1229 C1230 1.379 1_655 S
C1230 H1214 0.931 . S
C1230 C1224 1.383 . S
C1230 C1229 1.379 1_455 S
H1231 C1225 0.959 . S
H1232 C1225 0.961 . S
H1233 C1225 0.960 . S
H1234 C1226 0.930 . S
H1235 C1227 0.929 . S
H1236 C1244 0.929 . S
H1237 C1246 0.930 . S
H1238 C1248 0.930 . S
H1239 C1251 0.929 . S
H1240 C1254 0.930 . S
H1241 C1256 0.960 . S
H1242 C1256 0.960 . S
H1243 C1256 0.960 . S
C1244 H1236 0.929 . S
C1244 C1245 1.394 . S
C1244 C1246 1.384 . S
C1245 C1244 1.394 . S
C1245 C1251 1.386 . S
C1246 H1237 0.930 . S
C1246 C1244 1.384 . S
C1246 C1247 1.372 . S
C1247 C1246 1.372 . S
C1247 C1248 1.400 . S
C1247 C1252 1.490 . S
C1248 H1238 0.930 . S
C1248 C1247 1.400 . S
C1248 C1251 1.386 . S
H1249 C1265 0.930 . S
H1250 C1266 0.931 . S
C1251 H1239 0.929 . S
C1251 C1245 1.386 . S
C1251 C1248 1.386 . S
C1252 C1247 1.490 . S
C1252 C1254 1.395 . S
C1252 C1255 1.403 . S
H1253 C1259 0.930 . S
C1254 H1240 0.930 . S
C1254 C1252 1.395 . S
C1254 C1257 1.403 . S
C1255 C1252 1.403 . S
C1255 C1256 1.524 . S
C1255 C1259 1.400 . S
C1256 H1241 0.960 . S
C1256 H1242 0.960 . S
C1256 H1243 0.960 . S
C1256 C1255 1.524 . S
C1257 C1254 1.403 . S
C1257 C1258 1.392 . S
C1257 C1261 1.495 . S
C1258 C1257 1.392 . S
C1258 C1259 1.385 . S
C1258 C1260 1.478 . S
C1259 H1253 0.930 . S
C1259 C1255 1.400 . S
C1259 C1258 1.385 . S
C1260 C1258 1.478 . S
C1260 C1262 1.381 . S
C1260 C1266 1.383 . S
C1261 C1257 1.495 . S
C1261 H1267 0.959 . S
C1261 H1268 0.961 . S
C1261 H1269 0.960 . S
C1262 C1260 1.381 . S
C1262 C1263 1.394 . S
C1262 H1270 0.930 . S
C1263 C1262 1.394 . S
C1263 C1264 1.409 . S
C1263 H1271 0.929 . S
C1264 C1263 1.409 . S
C1264 C1265 1.364 1_655 S
C1265 H1249 0.930 . S
C1265 C1264 1.364 1_455 S
C1265 C1266 1.379 1_455 S
C1266 H1250 0.931 . S
C1266 C1260 1.383 . S
C1266 C1265 1.379 1_655 S
H1267 C1261 0.959 . S
H1268 C1261 0.961 . S
H1269 C1261 0.960 . S
H1270 C1262 0.930 . S
H1271 C1263 0.929 . S
H1272 C1280 0.929 . S
H1273 C1282 0.930 . S
H1274 C1284 0.930 . S
H1275 C1287 0.929 . S
H1276 C1290 0.930 . S
H1277 C1292 0.960 . S
H1278 C1292 0.960 . S
H1279 C1292 0.960 . S
C1280 H1272 0.929 . S
C1280 C1281 1.383 . S
C1280 C1282 1.384 . S
C1281 C1280 1.383 . S
C1281 C1287 1.410 . S
C1282 H1273 0.930 . S
C1282 C1280 1.384 . S
C1282 C1283 1.372 . S
C1283 C1282 1.372 . S
C1283 C1284 1.400 . S
C1283 C1288 1.490 . S
C1284 H1274 0.930 . S
C1284 C1283 1.400 . S
C1284 C1287 1.386 . S
H1285 C1301 0.930 . S
H1286 C1302 0.931 . S
C1287 H1275 0.929 . S
C1287 C1281 1.410 . S
C1287 C1284 1.386 . S
C1288 C1283 1.490 . S
C1288 C1290 1.395 . S
C1288 C1291 1.403 . S
H1289 C1295 0.930 . S
C1290 H1276 0.930 . S
C1290 C1288 1.395 . S
C1290 C1293 1.403 . S
C1291 C1288 1.403 . S
C1291 C1292 1.524 . S
C1291 C1295 1.400 . S
C1292 H1277 0.960 . S
C1292 H1278 0.960 . S
C1292 H1279 0.960 . S
C1292 C1291 1.524 . S
C1293 C1290 1.403 . S
C1293 C1294 1.392 . S
C1293 C1297 1.495 . S
C1294 C1293 1.392 . S
C1294 C1295 1.385 . S
C1294 C1296 1.478 . S
C1295 H1289 0.930 . S
C1295 C1291 1.400 . S
C1295 C1294 1.385 . S
C1296 C1294 1.478 . S
C1296 C1298 1.381 . S
C1296 C1302 1.383 . S
C1297 C1293 1.495 . S
C1297 H1303 0.959 . S
C1297 H1304 0.961 . S
C1297 H1305 0.960 . S
C1298 C1296 1.381 . S
C1298 C1299 1.394 . S
C1298 H1306 0.930 . S
C1299 C1298 1.394 . S
C1299 C1300 1.383 . S
C1299 H1307 0.929 . S
C1300 C1299 1.383 . S
C1300 C1301 1.377 . S
C1301 H1285 0.930 . S
C1301 C1300 1.377 . S
C1301 C1302 1.379 . S
C1302 H1286 0.931 . S
C1302 C1296 1.383 . S
C1302 C1301 1.379 . S
H1303 C1297 0.959 . S
H1304 C1297 0.961 . S
H1305 C1297 0.960 . S
H1306 C1298 0.930 . S
H1307 C1299 0.929 . S
H1308 C1316 0.929 . S
H1309 C1318 0.930 . S
H1310 C1320 0.930 . S
H1311 C1323 0.929 . S
H1312 C1326 0.930 . S
H1313 C1328 0.960 . S
H1314 C1328 0.960 . S
H1315 C1328 0.960 . S
C1316 H1308 0.929 . S
C1316 C1317 1.377 . S
C1316 C1318 1.384 . S
C1317 C1316 1.377 . S
C1317 C1323 1.390 . S
C1318 H1309 0.930 . S
C1318 C1316 1.384 . S
C1318 C1319 1.372 . S
C1319 C1318 1.372 . S
C1319 C1320 1.400 . S
C1319 C1324 1.490 . S
C1320 H1310 0.930 . S
C1320 C1319 1.400 . S
C1320 C1323 1.386 . S
H1321 C1337 0.930 . S
H1322 C1338 0.931 . S
C1323 H1311 0.929 . S
C1323 C1317 1.390 . S
C1323 C1320 1.386 . S
C1324 C1319 1.490 . S
C1324 C1326 1.395 . S
C1324 C1327 1.403 . S
H1325 C1331 0.930 . S
C1326 H1312 0.930 . S
C1326 C1324 1.395 . S
C1326 C1329 1.403 . S
C1327 C1324 1.403 . S
C1327 C1328 1.524 . S
C1327 C1331 1.400 . S
C1328 H1313 0.960 . S
C1328 H1314 0.960 . S
C1328 H1315 0.960 . S
C1328 C1327 1.524 . S
C1329 C1326 1.403 . S
C1329 C1330 1.392 . S
C1329 C1333 1.495 . S
C1330 C1329 1.392 . S
C1330 C1331 1.385 . S
C1330 C1332 1.478 . S
C1331 H1325 0.930 . S
C1331 C1327 1.400 . S
C1331 C1330 1.385 . S
C1332 C1330 1.478 . S
C1332 C1334 1.381 . S
C1332 C1338 1.383 . S
C1333 C1329 1.495 . S
C1333 H1339 0.959 . S
C1333 H1340 0.961 . S
C1333 H1341 0.960 . S
C1334 C1332 1.381 . S
C1334 C1335 1.394 . S
C1334 H1342 0.930 . S
C1335 C1334 1.394 . S
C1335 C1336 1.395 . S
C1335 H1343 0.929 . S
C1336 C1335 1.395 . S
C1336 C1337 1.380 1_655 S
C1337 H1321 0.930 . S
C1337 C1336 1.380 1_455 S
C1337 C1338 1.379 1_455 S
C1338 H1322 0.931 . S
C1338 C1332 1.383 . S
C1338 C1337 1.379 1_655 S
H1339 C1333 0.959 . S
H1340 C1333 0.961 . S
H1341 C1333 0.960 . S
H1342 C1334 0.930 . S
H1343 C1335 0.929 . S
H1344 C1352 0.929 . S
H1345 C1354 0.930 . S
H1346 C1356 0.930 . S
H1347 C1359 0.929 . S
H1348 C1362 0.930 . S
H1349 C1364 0.960 . S
H1350 C1364 0.960 . S
H1351 C1364 0.960 . S
C1352 H1344 0.929 . S
C1352 C1353 1.377 . S
C1352 C1354 1.384 . S
C1353 C1352 1.377 . S
C1353 C1359 1.390 . S
C1354 H1345 0.930 . S
C1354 C1352 1.384 . S
C1354 C1355 1.372 . S
C1355 C1354 1.372 . S
C1355 C1356 1.400 . S
C1355 C1360 1.490 . S
C1356 H1346 0.930 . S
C1356 C1355 1.400 . S
C1356 C1359 1.386 . S
H1357 C1373 0.930 . S
H1358 C1374 0.931 . S
C1359 H1347 0.929 . S
C1359 C1353 1.390 . S
C1359 C1356 1.386 . S
C1360 C1355 1.490 . S
C1360 C1362 1.395 . S
C1360 C1363 1.403 . S
H1361 C1367 0.930 . S
C1362 H1348 0.930 . S
C1362 C1360 1.395 . S
C1362 C1365 1.403 . S
C1363 C1360 1.403 . S
C1363 C1364 1.524 . S
C1363 C1367 1.400 . S
C1364 H1349 0.960 . S
C1364 H1350 0.960 . S
C1364 H1351 0.960 . S
C1364 C1363 1.524 . S
C1365 C1362 1.403 . S
C1365 C1366 1.392 . S
C1365 C1369 1.495 . S
C1366 C1365 1.392 . S
C1366 C1367 1.385 . S
C1366 C1368 1.478 . S
C1367 H1361 0.930 . S
C1367 C1363 1.400 . S
C1367 C1366 1.385 . S
C1368 C1366 1.478 . S
C1368 C1370 1.381 . S
C1368 C1374 1.383 . S
C1369 C1365 1.495 . S
C1369 H1375 0.959 . S
C1369 H1376 0.961 . S
C1369 H1377 0.960 . S
C1370 C1368 1.381 . S
C1370 C1371 1.394 . S
C1370 H1378 0.930 . S
C1371 C1370 1.394 . S
C1371 C1372 1.383 . S
C1371 H1379 0.929 . S
C1372 C1371 1.383 . S
C1372 C1373 1.377 . S
C1373 H1357 0.930 . S
C1373 C1372 1.377 . S
C1373 C1374 1.379 . S
C1374 H1358 0.931 . S
C1374 C1368 1.383 . S
C1374 C1373 1.379 . S
H1375 C1369 0.959 . S
H1376 C1369 0.961 . S
H1377 C1369 0.960 . S
H1378 C1370 0.930 . S
H1379 C1371 0.929 . S
H1380 C1388 0.929 . S
H1381 C1390 0.930 . S
H1382 C1392 0.930 . S
H1383 C1395 0.929 . S
H1384 C1398 0.930 . S
H1385 C1400 0.960 . S
H1386 C1400 0.960 . S
H1387 C1400 0.960 . S
C1388 H1380 0.929 . S
C1388 C1389 1.377 . S
C1388 C1390 1.384 . S
C1389 C1388 1.377 . S
C1389 C1395 1.390 . S
C1390 H1381 0.930 . S
C1390 C1388 1.384 . S
C1390 C1391 1.372 . S
C1391 C1390 1.372 . S
C1391 C1392 1.400 . S
C1391 C1396 1.490 . S
C1392 H1382 0.930 . S
C1392 C1391 1.400 . S
C1392 C1395 1.386 . S
H1393 C1409 0.930 . S
H1394 C1410 0.931 . S
C1395 H1383 0.929 . S
C1395 C1389 1.390 . S
C1395 C1392 1.386 . S
C1396 C1391 1.490 . S
C1396 C1398 1.395 . S
C1396 C1399 1.403 . S
H1397 C1403 0.930 . S
C1398 H1384 0.930 . S
C1398 C1396 1.395 . S
C1398 C1401 1.403 . S
C1399 C1396 1.403 . S
C1399 C1400 1.524 . S
C1399 C1403 1.400 . S
C1400 H1385 0.960 . S
C1400 H1386 0.960 . S
C1400 H1387 0.960 . S
C1400 C1399 1.524 . S
C1401 C1398 1.403 . S
C1401 C1402 1.392 . S
C1401 C1405 1.495 . S
C1402 C1401 1.392 . S
C1402 C1403 1.385 . S
C1402 C1404 1.478 . S
C1403 H1397 0.930 . S
C1403 C1399 1.400 . S
C1403 C1402 1.385 . S
C1404 C1402 1.478 . S
C1404 C1406 1.381 . S
C1404 C1410 1.383 . S
C1405 C1401 1.495 . S
C1405 H1411 0.959 . S
C1405 H1412 0.961 . S
C1405 H1413 0.960 . S
C1406 C1404 1.381 . S
C1406 C1407 1.394 . S
C1406 H1414 0.930 . S
C1407 C1406 1.394 . S
C1407 C1408 1.383 . S
C1407 H1415 0.929 . S
C1408 C1407 1.383 . S
C1408 C1409 1.377 . S
C1409 H1393 0.930 . S
C1409 C1408 1.377 . S
C1409 C1410 1.379 . S
C1410 H1394 0.931 . S
C1410 C1404 1.383 . S
C1410 C1409 1.379 . S
H1411 C1405 0.959 . S
H1412 C1405 0.961 . S
H1413 C1405 0.960 . S
H1414 C1406 0.930 . S
H1415 C1407 0.929 . S
H1416 C1424 0.929 . S
H1417 C1426 0.930 . S
H1418 C1428 0.930 . S
H1419 C1431 0.929 . S
H1420 C1434 0.930 . S
H1421 C1436 0.960 . S
H1422 C1436 0.960 . S
H1423 C1436 0.960 . S
C1424 H1416 0.929 . S
C1424 C1425 1.377 . S
C1424 C1426 1.384 . S
C1425 C1424 1.377 . S
C1425 C1431 1.390 . S
C1426 H1417 0.930 . S
C1426 C1424 1.384 . S
C1426 C1427 1.372 . S
C1427 C1426 1.372 . S
C1427 C1428 1.400 . S
C1427 C1432 1.490 . S
C1428 H1418 0.930 . S
C1428 C1427 1.400 . S
C1428 C1431 1.386 . S
H1429 C1445 0.930 . S
H1430 C1446 0.931 . S
C1431 H1419 0.929 . S
C1431 C1425 1.390 . S
C1431 C1428 1.386 . S
C1432 C1427 1.490 . S
C1432 C1434 1.395 . S
C1432 C1435 1.403 . S
H1433 C1439 0.930 . S
C1434 H1420 0.930 . S
C1434 C1432 1.395 . S
C1434 C1437 1.403 . S
C1435 C1432 1.403 . S
C1435 C1436 1.524 . S
C1435 C1439 1.400 . S
C1436 H1421 0.960 . S
C1436 H1422 0.960 . S
C1436 H1423 0.960 . S
C1436 C1435 1.524 . S
C1437 C1434 1.403 . S
C1437 C1438 1.392 . S
C1437 C1441 1.495 . S
C1438 C1437 1.392 . S
C1438 C1439 1.385 . S
C1438 C1440 1.478 . S
C1439 H1433 0.930 . S
C1439 C1435 1.400 . S
C1439 C1438 1.385 . S
C1440 C1438 1.478 . S
C1440 C1442 1.381 . S
C1440 C1446 1.383 . S
C1441 C1437 1.495 . S
C1441 H1447 0.959 . S
C1441 H1448 0.961 . S
C1441 H1449 0.960 . S
C1442 C1440 1.381 . S
C1442 C1443 1.394 . S
C1442 H1450 0.930 . S
C1443 C1442 1.394 . S
C1443 C1444 1.383 . S
C1443 H1451 0.929 . S
C1444 C1443 1.383 . S
C1444 C1445 1.377 . S
C1445 H1429 0.930 . S
C1445 C1444 1.377 . S
C1445 C1446 1.379 . S
C1446 H1430 0.931 . S
C1446 C1440 1.383 . S
C1446 C1445 1.379 . S
H1447 C1441 0.959 . S
H1448 C1441 0.961 . S
H1449 C1441 0.960 . S
H1450 C1442 0.930 . S
H1451 C1443 0.929 . S
H1452 C1460 0.929 . S
H1453 C1462 0.930 . S
H1454 C1464 0.930 . S
H1455 C1467 0.929 . S
H1456 C1470 0.930 . S
H1457 C1472 0.960 . S
H1458 C1472 0.960 . S
H1459 C1472 0.960 . S
C1460 H1452 0.929 . S
C1460 C1461 1.377 . S
C1460 C1462 1.384 . S
C1461 C1460 1.377 . S
C1461 C1467 1.390 . S
C1462 H1453 0.930 . S
C1462 C1460 1.384 . S
C1462 C1463 1.372 . S
C1463 C1462 1.372 . S
C1463 C1464 1.400 . S
C1463 C1468 1.490 . S
C1464 H1454 0.930 . S
C1464 C1463 1.400 . S
C1464 C1467 1.386 . S
H1465 C1481 0.930 . S
H1466 C1482 0.931 . S
C1467 H1455 0.929 . S
C1467 C1461 1.390 . S
C1467 C1464 1.386 . S
C1468 C1463 1.490 . S
C1468 C1470 1.395 . S
C1468 C1471 1.403 . S
H1469 C1475 0.930 . S
C1470 H1456 0.930 . S
C1470 C1468 1.395 . S
C1470 C1473 1.403 . S
C1471 C1468 1.403 . S
C1471 C1472 1.524 . S
C1471 C1475 1.400 . S
C1472 H1457 0.960 . S
C1472 H1458 0.960 . S
C1472 H1459 0.960 . S
C1472 C1471 1.524 . S
C1473 C1470 1.403 . S
C1473 C1474 1.392 . S
C1473 C1477 1.495 . S
C1474 C1473 1.392 . S
C1474 C1475 1.385 . S
C1474 C1476 1.478 . S
C1475 H1469 0.930 . S
C1475 C1471 1.400 . S
C1475 C1474 1.385 . S
C1476 C1474 1.478 . S
C1476 C1478 1.381 . S
C1476 C1482 1.383 . S
C1477 C1473 1.495 . S
C1477 H1483 0.959 . S
C1477 H1484 0.961 . S
C1477 H1485 0.960 . S
C1478 C1476 1.381 . S
C1478 C1479 1.394 . S
C1478 H1486 0.930 . S
C1479 C1478 1.394 . S
C1479 C1480 1.383 . S
C1479 H1487 0.929 . S
C1480 C1479 1.383 . S
C1480 C1481 1.377 . S
C1481 H1465 0.930 . S
C1481 C1480 1.377 . S
C1481 C1482 1.379 . S
C1482 H1466 0.931 . S
C1482 C1476 1.383 . S
C1482 C1481 1.379 . S
H1483 C1477 0.959 . S
H1484 C1477 0.961 . S
H1485 C1477 0.960 . S
H1486 C1478 0.930 . S
H1487 C1479 0.929 . S
H1488 C1496 0.929 . S
H1489 C1498 0.930 . S
H1490 C1500 0.930 . S
H1491 C1503 0.929 . S
H1492 C1506 0.930 . S
H1493 C1508 0.960 . S
H1494 C1508 0.960 . S
H1495 C1508 0.960 . S
C1496 H1488 0.929 . S
C1496 C1497 1.377 . S
C1496 C1498 1.384 . S
C1497 C1496 1.377 . S
C1497 C1503 1.390 . S
C1498 H1489 0.930 . S
C1498 C1496 1.384 . S
C1498 C1499 1.372 . S
C1499 C1498 1.372 . S
C1499 C1500 1.400 . S
C1499 C1504 1.490 . S
C1500 H1490 0.930 . S
C1500 C1499 1.400 . S
C1500 C1503 1.386 . S
H1501 C1517 0.930 . S
H1502 C1518 0.931 . S
C1503 H1491 0.929 . S
C1503 C1497 1.390 . S
C1503 C1500 1.386 . S
C1504 C1499 1.490 . S
C1504 C1506 1.395 . S
C1504 C1507 1.403 . S
H1505 C1511 0.930 . S
C1506 H1492 0.930 . S
C1506 C1504 1.395 . S
C1506 C1509 1.403 . S
C1507 C1504 1.403 . S
C1507 C1508 1.524 . S
C1507 C1511 1.400 . S
C1508 H1493 0.960 . S
C1508 H1494 0.960 . S
C1508 H1495 0.960 . S
C1508 C1507 1.524 . S
C1509 C1506 1.403 . S
C1509 C1510 1.392 . S
C1509 C1513 1.495 . S
C1510 C1509 1.392 . S
C1510 C1511 1.385 . S
C1510 C1512 1.478 . S
C1511 H1505 0.930 . S
C1511 C1507 1.400 . S
C1511 C1510 1.385 . S
C1512 C1510 1.478 . S
C1512 C1514 1.381 . S
C1512 C1518 1.383 . S
C1513 C1509 1.495 . S
C1513 H1519 0.959 . S
C1513 H1520 0.961 . S
C1513 H1521 0.960 . S
C1514 C1512 1.381 . S
C1514 C1515 1.394 . S
C1514 H1522 0.930 . S
C1515 C1514 1.394 . S
C1515 C1516 1.383 . S
C1515 H1523 0.929 . S
C1516 C1515 1.383 . S
C1516 C1517 1.377 . S
C1517 H1501 0.930 . S
C1517 C1516 1.377 . S
C1517 C1518 1.379 . S
C1518 H1502 0.931 . S
C1518 C1512 1.383 . S
C1518 C1517 1.379 . S
H1519 C1513 0.959 . S
H1520 C1513 0.961 . S
H1521 C1513 0.960 . S
H1522 C1514 0.930 . S
H1523 C1515 0.929 . S
H1524 C1532 0.929 . S
H1525 C1534 0.930 . S
H1526 C1536 0.930 . S
H1527 C1539 0.929 . S
H1528 C1542 0.930 . S
H1529 C1544 0.960 . S
H1530 C1544 0.960 . S
H1531 C1544 0.960 . S
C1532 H1524 0.929 . S
C1532 C1533 1.377 . S
C1532 C1534 1.384 . S
C1533 C1532 1.377 . S
C1533 C1539 1.390 . S
C1534 H1525 0.930 . S
C1534 C1532 1.384 . S
C1534 C1535 1.372 . S
C1535 C1534 1.372 . S
C1535 C1536 1.400 . S
C1535 C1540 1.490 . S
C1536 H1526 0.930 . S
C1536 C1535 1.400 . S
C1536 C1539 1.386 . S
H1537 C1553 0.930 . S
H1538 C1554 0.931 . S
C1539 H1527 0.929 . S
C1539 C1533 1.390 . S
C1539 C1536 1.386 . S
C1540 C1535 1.490 . S
C1540 C1542 1.395 . S
C1540 C1543 1.403 . S
H1541 C1547 0.930 . S
C1542 H1528 0.930 . S
C1542 C1540 1.395 . S
C1542 C1545 1.403 . S
C1543 C1540 1.403 . S
C1543 C1544 1.524 . S
C1543 C1547 1.400 . S
C1544 H1529 0.960 . S
C1544 H1530 0.960 . S
C1544 H1531 0.960 . S
C1544 C1543 1.524 . S
C1545 C1542 1.403 . S
C1545 C1546 1.392 . S
C1545 C1549 1.495 . S
C1546 C1545 1.392 . S
C1546 C1547 1.385 . S
C1546 C1548 1.478 . S
C1547 H1541 0.930 . S
C1547 C1543 1.400 . S
C1547 C1546 1.385 . S
C1548 C1546 1.478 . S
C1548 C1550 1.381 . S
C1548 C1554 1.383 . S
C1549 C1545 1.495 . S
C1549 H1555 0.959 . S
C1549 H1556 0.961 . S
C1549 H1557 0.960 . S
C1550 C1548 1.381 . S
C1550 C1551 1.394 . S
C1550 H1558 0.930 . S
C1551 C1550 1.394 . S
C1551 C1552 1.383 . S
C1551 H1559 0.929 . S
C1552 C1551 1.383 . S
C1552 C1553 1.377 . S
C1553 H1537 0.930 . S
C1553 C1552 1.377 . S
C1553 C1554 1.379 . S
C1554 H1538 0.931 . S
C1554 C1548 1.383 . S
C1554 C1553 1.379 . S
H1555 C1549 0.959 . S
H1556 C1549 0.961 . S
H1557 C1549 0.960 . S
H1558 C1550 0.930 . S
H1559 C1551 0.929 . S
C273 C115 1.014 . S
C292 C5 1.021 . S
C309 C31 1.024 . S
C328 C9 1.006 . S
C345 C49 1.023 . S
C364 C27 1.004 . S
C381 C53 1.018 . S
C400 C75 1.020 . S
C417 C71 1.015 . S
C436 C93 1.021 1_556 S
C453 C119 1.023 . S
C472 C97 1.024 . S
C489 C159 1.011 . S
C508 C137 1.023 . S
C525 C163 1.023 . S
C544 C185 1.033 . S
C561 C203 1.017 . S
C580 C181 1.020 . S
C597 C229 1.019 . S
C616 C207 0.995 1_554 S
C633 C247 1.019 . S
C652 C225 1.020 . S
C669 C141 1.020 . S
C688 C251 1.020 . S
C705 C248 1.294 . S
C724 C4 1.293 . S
C741 C30 1.279 . S
C760 C139 1.274 . S
C777 C160 1.292 . S
C796 C48 1.273 . S
C813 C183 1.288 . S
C832 C74 1.267 . S
C849 C204 1.294 . S
C868 C92 1.293 . S
C885 C118 1.283 . S
C904 C227 1.279 . S
C921 C136 1.283 . S
C940 C28 1.296 . S
C957 C162 1.279 . S
C976 C51 1.273 . S
C993 C72 1.294 . S
C1012 C180 1.299 . S
C1029 C95 1.290 . S
C1048 C206 1.265 . S
C1065 C224 1.286 . S
C1084 C116 1.293 . S
C1101 C250 1.279 . S
C1120 C7 1.274 . S
C1137 C138 1.075 1_455 S
C1156 C6 1.048 . S
C1173 C29 1.077 . S
C1192 C161 1.055 . S
C1209 C182 1.084 . S
C1228 C50 1.078 1_455 S
C1245 C73 1.068 1_545 S
C1264 C205 1.077 1_655 S
C1281 C226 1.059 1_565 S
C1300 C94 1.095 . S
C1317 C249 1.085 . S
C1336 C117 1.073 1_655 S
C1353 C140 0.729 . S
C1372 C8 0.740 . S
C1389 C158 0.722 . S
C1408 C26 0.713 . S
C1425 C184 0.724 . S
C1444 C52 0.716 . S
C1461 C70 0.729 . S
C1480 C202 0.739 . S
C1497 C228 0.725 . S
C1516 C96 0.719 . S
C1533 C246 0.724 . S
C1552 C114 0.715 . S
