# Generated by pormake.
# Topology uoc, (4)-cn, num edge types: 1
# Building blocks:
#     Node 0, Type 0, BuildingBlock: KUFVIS_clean_sbu_0, # of connection points: 4
#     Node 1, Type 0, BuildingBlock: KUFVIS_clean_sbu_0, # of connection points: 4
#     Node 2, Type 0, BuildingBlock: KUFVIS_clean_sbu_0, # of connection points: 4
#     Node 3, Type 0, BuildingBlock: KUFVIS_clean_sbu_0, # of connection points: 4
#     Node 4, Type 0, BuildingBlock: KUFVIS_clean_sbu_0, # of connection points: 4
#     Node 5, Type 0, BuildingBlock: KUFVIS_clean_sbu_0, # of connection points: 4
#     Node 6, Type 0, BuildingBlock: KUFVIS_clean_sbu_0, # of connection points: 4
#     Node 7, Type 0, BuildingBlock: KUFVIS_clean_sbu_0, # of connection points: 4
#     Edge 8, Type (0, 0), BuildingBlock: TEMPAE_clean_linker_10, # of connection points: 2
#     Edge 9, Type (0, 0), BuildingBlock: TEMPAE_clean_linker_10, # of connection points: 2
#     Edge 10, Type (0, 0), BuildingBlock: TEMPAE_clean_linker_10, # of connection points: 2
#     Edge 11, Type (0, 0), BuildingBlock: TEMPAE_clean_linker_10, # of connection points: 2
#     Edge 12, Type (0, 0), BuildingBlock: TEMPAE_clean_linker_10, # of connection points: 2
#     Edge 13, Type (0, 0), BuildingBlock: TEMPAE_clean_linker_10, # of connection points: 2
#     Edge 14, Type (0, 0), BuildingBlock: TEMPAE_clean_linker_10, # of connection points: 2
#     Edge 15, Type (0, 0), BuildingBlock: TEMPAE_clean_linker_10, # of connection points: 2
#     Edge 16, Type (0, 0), BuildingBlock: TEMPAE_clean_linker_10, # of connection points: 2
#     Edge 17, Type (0, 0), BuildingBlock: TEMPAE_clean_linker_10, # of connection points: 2
#     Edge 18, Type (0, 0), BuildingBlock: TEMPAE_clean_linker_10, # of connection points: 2
#     Edge 19, Type (0, 0), BuildingBlock: TEMPAE_clean_linker_10, # of connection points: 2
#     Edge 20, Type (0, 0), BuildingBlock: TEMPAE_clean_linker_10, # of connection points: 2
#     Edge 21, Type (0, 0), BuildingBlock: TEMPAE_clean_linker_10, # of connection points: 2
#     Edge 22, Type (0, 0), BuildingBlock: TEMPAE_clean_linker_10, # of connection points: 2
#     Edge 23, Type (0, 0), BuildingBlock: TEMPAE_clean_linker_10, # of connection points: 2
# Relax obj value: 0.118
# Max RMSD: 0.132
# Mean RMSD: 0.130
data_MOF--net-uoc--node1-KUFVIS_clean_sbu_0--edge1-TEMPAE_clean_linker_10
_symmetry_space_group_name_H-M    P1
_symmetry_Int_Tables_number       1
_symmetry_cell_setting            triclinic
loop_
_symmetry_equiv_pos_as_xyz
'x, y, z'
_cell_length_a     27.711127
_cell_length_b     27.698932
_cell_length_c     54.476259
_cell_angle_alpha  90.575173
_cell_angle_beta   90.494468
_cell_angle_gamma 89.821104
loop_
_atom_site_label
_atom_site_type_symbol
_atom_site_fract_x
_atom_site_fract_y
_atom_site_fract_z
_atom_type_partial_charge
Mn0 Mn 0.09823 0.24643 0.12277 0.0
Mn1 Mn 0.19125 0.17281 0.13781 0.0
C2 C 0.12891 0.24735 0.16227 0.0
C3 C 0.06657 0.3192 0.10907 0.0
C4 C 0.08842 0.13818 0.1305 0.0
O5 O 0.1258 0.22849 0.08965 0.0
O6 O 0.19053 0.18428 0.10171 0.0
C7 C 0.27625 0.23208 0.12527 0.0
N8 N 0.25122 0.20589 0.14185 0.0
C9 C 0.31721 0.20926 0.17085 0.0
C10 C 0.34383 0.23609 0.15401 0.0
C11 C 0.32308 0.24789 0.1312 0.0
C12 C 0.27062 0.19486 0.16397 0.0
H13 H 0.26068 0.24051 0.10763 0.0
C14 C 0.16434 0.2048 0.08529 0.0
O15 O 0.04189 0.27952 0.1078 0.0
O16 O 0.11068 0.31625 0.11717 0.0
N17 N 0.19644 0.15992 0.17213 0.0
C18 C 0.16349 0.14 0.18738 0.0
C19 C 0.17694 0.12918 0.21162 0.0
C20 C 0.22418 0.1387 0.21983 0.0
C21 C 0.25705 0.16034 0.20392 0.0
C22 C 0.2414 0.17077 0.18009 0.0
H23 H 0.12715 0.13299 0.18114 0.0
O24 O 0.08491 0.26102 0.15772 0.0
O25 O 0.15397 0.2325 0.14352 0.0
O26 O 0.06947 0.17893 0.12586 0.0
O27 O 0.13319 0.13233 0.13486 0.0
C28 C 0.30453 0.17248 0.21086 0.0
C29 C 0.33462 0.19708 0.19439 0.0
H30 H 0.37996 0.24828 0.1585 0.0
H31 H 0.3433 0.26876 0.11814 0.0
H32 H 0.15106 0.11334 0.22391 0.0
H33 H 0.23458 0.13002 0.23849 0.0
H34 H 0.31796 0.16332 0.22889 0.0
H35 H 0.3707 0.20724 0.20018 0.0
Mn36 Mn 0.7423 0.60986 0.36919 0.0
Mn37 Mn 0.82552 0.69652 0.37985 0.0
C38 C 0.75687 0.63626 0.40844 0.0
C39 C 0.66358 0.58695 0.35996 0.0
C40 C 0.8514 0.59189 0.37115 0.0
O41 O 0.75246 0.63753 0.33549 0.0
O42 O 0.80842 0.69426 0.34426 0.0
C43 C 0.76373 0.78109 0.3689 0.0
N44 N 0.79296 0.75671 0.38475 0.0
C45 C 0.78449 0.8188 0.41563 0.0
C46 C 0.75454 0.84474 0.39958 0.0
C47 C 0.74403 0.82573 0.37614 0.0
C48 C 0.80317 0.77457 0.40738 0.0
H49 H 0.75549 0.76653 0.35089 0.0
C50 C 0.78097 0.67109 0.32924 0.0
O51 O 0.69974 0.55827 0.35551 0.0
O52 O 0.67343 0.62947 0.36876 0.0
N53 N 0.84561 0.703 0.41341 0.0
C54 C 0.87287 0.67218 0.42713 0.0
C55 C 0.88532 0.68507 0.45136 0.0
C56 C 0.87013 0.72967 0.46111 0.0
C57 C 0.84249 0.76097 0.44655 0.0
C58 C 0.83131 0.74625 0.42251 0.0
H59 H 0.88469 0.63788 0.41971 0.0
O60 O 0.73708 0.59453 0.40437 0.0
O61 O 0.76678 0.66212 0.38929 0.0
O62 O 0.80845 0.57625 0.36815 0.0
O63 O 0.86189 0.63598 0.37556 0.0
C64 C 0.82497 0.80586 0.45506 0.0
C65 C 0.79592 0.83471 0.43964 0.0
H66 H 0.73912 0.87909 0.40513 0.0
H67 H 0.72075 0.84543 0.36369 0.0
H68 H 0.90658 0.66068 0.4625 0.0
H69 H 0.87979 0.73945 0.47981 0.0
H70 H 0.8331 0.81828 0.47355 0.0
H71 H 0.78205 0.8688 0.44652 0.0
Mn72 Mn 0.38543 0.24402 0.61066 0.0
Mn73 Mn 0.29036 0.16945 0.60308 0.0
C74 C 0.35309 0.23253 0.57228 0.0
C75 C 0.41476 0.32052 0.62002 0.0
C76 C 0.39355 0.13432 0.60906 0.0
O77 O 0.36206 0.23403 0.64525 0.0
O78 O 0.29504 0.1899 0.63825 0.0
C79 C 0.21176 0.23917 0.61339 0.0
N80 N 0.233 0.20661 0.59798 0.0
C81 C 0.17094 0.21799 0.56739 0.0
C82 C 0.14817 0.25134 0.58303 0.0
C83 C 0.16876 0.26205 0.6061 0.0
C84 C 0.2136 0.19614 0.57571 0.0
H85 H 0.22761 0.2477 0.63108 0.0
C86 C 0.32427 0.21267 0.65256 0.0
O87 O 0.44154 0.28236 0.62296 0.0
O88 O 0.37073 0.31395 0.61255 0.0
N89 N 0.28115 0.14733 0.56997 0.0
C90 C 0.30932 0.11686 0.55644 0.0
C91 C 0.29491 0.10411 0.53247 0.0
C92 C 0.25151 0.12237 0.52276 0.0
C93 C 0.22287 0.15324 0.53711 0.0
C94 C 0.23901 0.1646 0.5609 0.0
H95 H 0.34275 0.10276 0.56379 0.0
O96 O 0.39634 0.24966 0.57501 0.0
O97 O 0.32916 0.22422 0.59227 0.0
O98 O 0.41361 0.17571 0.60983 0.0
O99 O 0.34794 0.12798 0.60757 0.0
C100 C 0.17941 0.17391 0.52859 0.0
C101 C 0.1535 0.2063 0.54371 0.0
H102 H 0.11515 0.26928 0.57741 0.0
H103 H 0.15157 0.28798 0.6182 0.0
H104 H 0.31725 0.08034 0.52148 0.0
H105 H 0.24066 0.11266 0.50421 0.0
H106 H 0.16589 0.16563 0.51033 0.0
H107 H 0.12056 0.22257 0.53679 0.0
Mn108 Mn 0.75247 0.89794 0.85833 0.0
Mn109 Mn 0.82618 0.80352 0.8468 0.0
C110 C 0.75654 0.86746 0.81897 0.0
C111 C 0.67813 0.92848 0.87034 0.0
C112 C 0.86094 0.90575 0.85637 0.0
O113 O 0.7673 0.8708 0.89197 0.0
O114 O 0.80584 0.80145 0.88165 0.0
C115 C 0.76435 0.7178 0.85353 0.0
N116 N 0.79372 0.74453 0.83913 0.0
C117 C 0.79556 0.68211 0.80809 0.0
C118 C 0.76546 0.65379 0.82264 0.0
C119 C 0.74949 0.67189 0.84537 0.0
C120 C 0.80902 0.7276 0.81715 0.0
H121 H 0.75272 0.73129 0.87118 0.0
C122 C 0.78601 0.83005 0.89724 0.0
O123 O 0.71724 0.95381 0.87285 0.0
O124 O 0.68252 0.88476 0.86187 0.0
N125 N 0.84737 0.80169 0.8135 0.0
C126 C 0.87226 0.83549 0.8008 0.0
C127 C 0.88732 0.82491 0.77679 0.0
C128 C 0.87727 0.77949 0.76626 0.0
C129 C 0.85157 0.74537 0.77973 0.0
C130 C 0.83679 0.75825 0.8034 0.0
H131 H 0.88052 0.87023 0.80891 0.0
O132 O 0.74165 0.91125 0.82318 0.0
O133 O 0.76879 0.8423 0.83817 0.0
O134 O 0.82005 0.92657 0.85642 0.0
O135 O 0.86636 0.8603 0.85431 0.0
C136 C 0.83979 0.69919 0.77055 0.0
C137 C 0.81185 0.6675 0.78472 0.0
H138 H 0.75389 0.61839 0.8164 0.0
H139 H 0.72611 0.65033 0.85666 0.0
H140 H 0.90697 0.85153 0.76649 0.0
H141 H 0.88913 0.77134 0.74778 0.0
H142 H 0.85199 0.68789 0.75259 0.0
H143 H 0.80233 0.63236 0.77727 0.0
Mn144 Mn 0.60095 0.74545 0.6184 0.0
Mn145 Mn 0.69027 0.66703 0.63189 0.0
C146 C 0.62952 0.74161 0.65809 0.0
C147 C 0.57499 0.82112 0.60572 0.0
C148 C 0.58677 0.6377 0.62123 0.0
O149 O 0.62911 0.72763 0.58525 0.0
O150 O 0.69563 0.68564 0.59688 0.0
C151 C 0.78006 0.72313 0.62588 0.0
N152 N 0.75049 0.69648 0.64022 0.0
C153 C 0.80989 0.69409 0.67269 0.0
C154 C 0.84112 0.72128 0.65819 0.0
C155 C 0.82598 0.73616 0.63477 0.0
C156 C 0.76463 0.68214 0.66284 0.0
H157 H 0.76878 0.73401 0.60774 0.0
C158 C 0.66906 0.70641 0.58072 0.0
O159 O 0.54778 0.78332 0.60306 0.0
O160 O 0.61818 0.81447 0.61445 0.0
N161 N 0.6885 0.6476 0.66545 0.0
C162 C 0.65237 0.62549 0.67784 0.0
C163 C 0.65994 0.61208 0.70236 0.0
C164 C 0.70472 0.621 0.71377 0.0
C165 C 0.74129 0.64384 0.70062 0.0
C166 C 0.73142 0.65701 0.67637 0.0
H167 H 0.618 0.61827 0.66911 0.0
O168 O 0.58674 0.75855 0.65334 0.0
O169 O 0.65456 0.72696 0.63927 0.0
O170 O 0.56833 0.6797 0.62062 0.0
O171 O 0.63173 0.62981 0.62387 0.0
C172 C 0.78698 0.65446 0.71071 0.0
C173 C 0.82139 0.6794 0.69675 0.0
H174 H 0.87649 0.73155 0.66502 0.0
H175 H 0.84977 0.75737 0.62353 0.0
H176 H 0.63142 0.59467 0.71241 0.0
H177 H 0.71051 0.61051 0.73267 0.0
H178 H 0.79577 0.64366 0.72923 0.0
H179 H 0.85619 0.68798 0.70484 0.0
Mn180 Mn 0.25353 0.10979 0.87526 0.0
Mn181 Mn 0.322 0.2089 0.88388 0.0
C182 C 0.26266 0.14134 0.91395 0.0
C183 C 0.17894 0.07694 0.8653 0.0
C184 C 0.3634 0.10821 0.87703 0.0
O185 O 0.26265 0.13474 0.84096 0.0
O186 O 0.30276 0.20402 0.84855 0.0
C187 C 0.24736 0.28295 0.87388 0.0
N188 N 0.28093 0.26344 0.88929 0.0
C189 C 0.26405 0.32304 0.92051 0.0
C190 C 0.22958 0.34402 0.9049 0.0
C191 C 0.22112 0.3238 0.8815 0.0
C192 C 0.28918 0.28245 0.91188 0.0
H193 H 0.24058 0.26736 0.85594 0.0
C194 C 0.28212 0.17375 0.83395 0.0
O195 O 0.21839 0.05212 0.86226 0.0
O196 O 0.18316 0.12093 0.8733 0.0
N197 N 0.34278 0.21847 0.91717 0.0
C198 C 0.37524 0.19228 0.9305 0.0
C199 C 0.38664 0.20682 0.95462 0.0
C200 C 0.36497 0.24835 0.96469 0.0
C201 C 0.332 0.27494 0.95055 0.0
C202 C 0.32217 0.25881 0.92659 0.0
H203 H 0.39203 0.16036 0.92285 0.0
O204 O 0.2481 0.09724 0.91078 0.0
O205 O 0.26979 0.16637 0.8942 0.0
O206 O 0.32331 0.08571 0.87596 0.0
O207 O 0.36706 0.1541 0.87907 0.0
C208 C 0.30804 0.31646 0.9594 0.0
C209 C 0.27392 0.34035 0.94443 0.0
H210 H 0.20911 0.37539 0.91076 0.0
H211 H 0.19437 0.33961 0.8694 0.0
H212 H 0.41205 0.18606 0.96544 0.0
H213 H 0.37378 0.25937 0.98333 0.0
H214 H 0.31522 0.33007 0.97776 0.0
H215 H 0.25516 0.37177 0.95159 0.0
Mn216 Mn 0.88469 0.74583 0.10788 0.0
Mn217 Mn 0.78982 0.67239 0.09683 0.0
C218 C 0.85428 0.73743 0.06889 0.0
C219 C 0.9177 0.82016 0.11826 0.0
C220 C 0.89163 0.63569 0.10158 0.0
O221 O 0.85816 0.73669 0.14178 0.0
O222 O 0.79943 0.68299 0.13288 0.0
C223 C 0.71468 0.74041 0.11448 0.0
N224 N 0.73287 0.71159 0.09636 0.0
C225 C 0.6669 0.73148 0.06922 0.0
C226 C 0.64734 0.76113 0.08764 0.0
C227 C 0.67142 0.76572 0.11034 0.0
C228 C 0.71018 0.70724 0.07439 0.0
H229 H 0.73303 0.74413 0.13195 0.0
C230 C 0.82446 0.70846 0.14805 0.0
O231 O 0.94218 0.78049 0.12092 0.0
O232 O 0.87357 0.81662 0.11034 0.0
N233 N 0.77514 0.65874 0.06307 0.0
C234 C 0.79936 0.62968 0.04701 0.0
C235 C 0.78022 0.62151 0.0234 0.0
C236 C 0.73602 0.64268 0.01667 0.0
C237 C 0.71156 0.67221 0.03354 0.0
C238 C 0.73226 0.67877 0.05687 0.0
H239 H 0.83307 0.61298 0.05216 0.0
O240 O 0.89828 0.75178 0.07256 0.0
O241 O 0.82852 0.72898 0.08828 0.0
O242 O 0.91042 0.67618 0.10754 0.0
O243 O 0.84706 0.62995 0.09624 0.0
C244 C 0.66762 0.69561 0.02806 0.0
C245 C 0.6454 0.72538 0.04586 0.0
H246 H 0.614 0.78074 0.08452 0.0
H247 H 0.65666 0.78869 0.12462 0.0
H248 H 0.79934 0.59872 0.01047 0.0
H249 H 0.72113 0.63585 -0.00146 0.0
H250 H 0.65086 0.69137 0.01014 0.0
H251 H 0.61191 0.74365 0.04134 0.0
Mn252 Mn 0.2416 0.39434 0.36463 0.0
Mn253 Mn 0.32654 0.31114 0.35124 0.0
C254 C 0.25099 0.36975 0.32451 0.0
C255 C 0.1635 0.41404 0.37628 0.0
C256 C 0.34839 0.41559 0.36425 0.0
O257 O 0.25832 0.36486 0.39755 0.0
O258 O 0.30563 0.3022 0.3857 0.0
C259 C 0.27474 0.21813 0.35444 0.0
N260 N 0.30124 0.24992 0.34129 0.0
C261 C 0.30957 0.19292 0.30794 0.0
C262 C 0.28244 0.15949 0.32115 0.0
C263 C 0.26469 0.17229 0.34442 0.0
C264 C 0.3183 0.23806 0.31882 0.0
H265 H 0.26174 0.22761 0.37249 0.0
C266 C 0.28175 0.3261 0.40182 0.0
O267 O 0.19912 0.44355 0.38022 0.0
O268 O 0.17367 0.3722 0.36671 0.0
N269 N 0.34872 0.31618 0.31823 0.0
C270 C 0.37017 0.35418 0.30703 0.0
C271 C 0.3866 0.34879 0.28285 0.0
C272 C 0.38137 0.30424 0.27058 0.0
C273 C 0.35915 0.26571 0.28252 0.0
C274 C 0.34286 0.27344 0.30647 0.0
H275 H 0.37467 0.38836 0.31644 0.0
O276 O 0.23061 0.41077 0.32983 0.0
O277 O 0.26533 0.34384 0.34307 0.0
O278 O 0.30527 0.43126 0.36448 0.0
O279 O 0.35935 0.37138 0.36095 0.0
C280 C 0.35224 0.22006 0.27153 0.0
C281 C 0.32753 0.1836 0.28423 0.0
H282 H 0.27457 0.12412 0.31348 0.0
H283 H 0.24361 0.14674 0.35469 0.0
H284 H 0.40353 0.37878 0.27374 0.0
H285 H 0.39424 0.30012 0.25195 0.0
H286 H 0.36569 0.21288 0.25327 0.0
H287 H 0.32172 0.14885 0.27541 0.0
C288 C 0.15619 0.17417 0.04263 0.0
C289 C 0.18095 0.20239 0.05993 0.0
C290 C 0.17319 0.16987 0.01855 0.0
C291 C 0.21538 0.19515 0.01176 0.0
C292 C 0.23955 0.22489 0.02912 0.0
C293 C 0.22207 0.22799 0.05313 0.0
C294 C 0.14683 0.13722 0.00061 0.0
C295 C 0.28385 0.2532 0.02236 0.0
C296 C 0.27962 0.13702 0.9583 0.0
C297 C 0.25988 0.16245 0.93859 0.0
C298 C 0.2679 0.14945 0.98248 0.0
C299 C 0.23533 0.18799 0.98685 0.0
C300 C 0.21763 0.21567 0.96699 0.0
C301 C 0.22946 0.20192 0.94295 0.0
C302 C 0.28753 0.11906 0.00317 0.0
C303 C 0.18379 0.25774 0.971 0.0
H304 H 0.12427 0.15461 0.04813 0.0
H305 H 0.24038 0.25066 0.06654 0.0
H306 H 0.13575 0.15779 0.98412 0.0
H307 H 0.17125 0.10779 -0.00561 0.0
H308 H 0.1142 0.12078 0.00873 0.0
H309 H 0.29944 0.27328 0.03829 0.0
H310 H 0.31188 0.22872 0.01479 0.0
H311 H 0.27432 0.27938 0.00785 0.0
H312 H 0.30246 0.10591 0.95471 0.0
H313 H 0.21292 0.22039 0.92756 0.0
H314 H 0.25773 0.09798 0.01127 0.0
H315 H 0.30286 0.14234 0.01795 0.0
H316 H 0.31592 0.0935 -0.00313 0.0
H317 H 0.14834 0.24432 0.97728 0.0
H318 H 0.178 0.27885 0.95398 0.0
H319 H 0.1982 0.28218 0.98554 0.0
C320 C 0.83035 0.68738 0.29253 0.0
C321 C 0.78479 0.68166 0.30297 0.0
C322 C 0.83524 0.69274 0.26713 0.0
C323 C 0.79338 0.69411 0.25205 0.0
C324 C 0.74713 0.69029 0.2627 0.0
C325 C 0.74343 0.68313 0.28806 0.0
C326 C 0.88521 0.69524 0.25636 0.0
C327 C 0.7017 0.69329 0.24728 0.0
C328 C 0.81186 0.74673 0.18892 0.0
C329 C 0.81384 0.70492 0.17432 0.0
C330 C 0.8032 0.74388 0.21417 0.0
C331 C 0.7983 0.69801 0.22507 0.0
C332 C 0.80016 0.65565 0.2103 0.0
C333 C 0.80706 0.65971 0.18494 0.0
C334 C 0.79977 0.78985 0.22921 0.0
C335 C 0.79654 0.60605 0.22139 0.0
H336 H 0.8623 0.6856 0.30412 0.0
H337 H 0.70822 0.67888 0.29628 0.0
H338 H 0.89039 0.66504 0.24309 0.0
H339 H 0.88958 0.72932 0.24612 0.0
H340 H 0.914 0.69323 0.27064 0.0
H341 H 0.66861 0.69353 0.25865 0.0
H342 H 0.70209 0.72648 0.23604 0.0
H343 H 0.69988 0.66206 0.23442 0.0
H344 H 0.81668 0.7817 0.18051 0.0
H345 H 0.80898 0.62745 0.17354 0.0
H346 H 0.83037 0.79188 0.24243 0.0
H347 H 0.76605 0.79007 0.24005 0.0
H348 H 0.80034 0.82259 0.21759 0.0
H349 H 0.82615 0.60089 0.23497 0.0
H350 H 0.79872 0.57681 0.20733 0.0
H351 H 0.76203 0.60246 0.23135 0.0
C352 C 0.35793 0.2156 0.52793 0.0
C353 C 0.33123 0.23308 0.54777 0.0
C354 C 0.34376 0.22564 0.50381 0.0
C355 C 0.30176 0.2537 0.49963 0.0
C356 C 0.27294 0.26872 0.51963 0.0
C357 C 0.28878 0.25926 0.54361 0.0
C358 C 0.37612 0.20992 0.48302 0.0
C359 C 0.22715 0.29738 0.51578 0.0
C360 C 0.30702 0.33644 0.445 0.0
C361 C 0.28342 0.30886 0.42703 0.0
C362 C 0.31264 0.31899 0.46886 0.0
C363 C 0.29266 0.27362 0.4749 0.0
C364 C 0.26698 0.24655 0.45694 0.0
C365 C 0.26338 0.26422 0.43295 0.0
C366 C 0.34152 0.3483 0.48732 0.0
C367 C 0.24383 0.19897 0.46303 0.0
H368 H 0.39135 0.19621 0.53136 0.0
H369 H 0.26928 0.27433 0.55907 0.0
H370 H 0.35481 0.19248 0.4681 0.0
H371 H 0.39383 0.2421 0.47516 0.0
H372 H 0.40463 0.18435 0.48917 0.0
H373 H 0.20648 0.30199 0.53303 0.0
H374 H 0.23594 0.33366 0.50868 0.0
H375 H 0.20382 0.2792 0.50187 0.0
H376 H 0.32264 0.37085 0.4401 0.0
H377 H 0.24483 0.24334 0.41884 0.0
H378 H 0.37304 0.32697 0.4938 0.0
H379 H 0.31919 0.35692 0.50359 0.0
H380 H 0.35483 0.38266 0.47954 0.0
H381 H 0.27163 0.17282 0.46923 0.0
H382 H 0.22399 0.18306 0.44711 0.0
H383 H 0.21829 0.20417 0.4784 0.0
C384 C 0.74136 0.87554 0.77439 0.0
C385 C 0.74554 0.8456 0.79485 0.0
C386 C 0.72131 0.85842 0.75233 0.0
C387 C 0.7093 0.80883 0.75002 0.0
C388 C 0.7147 0.77811 0.77045 0.0
C389 C 0.73008 0.7977 0.79297 0.0
C390 C 0.71151 0.89473 0.73234 0.0
C391 C 0.70366 0.7248 0.76865 0.0
C392 C 0.62159 0.75867 0.70253 0.0
C393 C 0.65143 0.75306 0.68211 0.0
C394 C 0.63931 0.77867 0.72449 0.0
C395 C 0.6892 0.78937 0.72669 0.0
C396 C 0.71966 0.78303 0.7062 0.0
C397 C 0.69969 0.76743 0.68382 0.0
C398 C 0.60348 0.78955 0.74459 0.0
C399 C 0.77305 0.79367 0.70778 0.0
H400 H 0.7511 0.91335 0.77602 0.0
H401 H 0.7281 0.77601 0.80926 0.0
H402 H 0.7463 0.90883 0.7255 0.0
H403 H 0.69029 0.88008 0.71664 0.0
H404 H 0.69156 0.92611 0.74011 0.0
H405 H 0.70805 0.70641 0.7865 0.0
H406 H 0.66617 0.71863 0.76229 0.0
H407 H 0.72787 0.70761 0.75495 0.0
H408 H 0.58356 0.74985 0.70097 0.0
H409 H 0.72147 0.76818 0.66749 0.0
H410 H 0.61833 0.81238 0.75966 0.0
H411 H 0.59036 0.75516 0.75235 0.0
H412 H 0.57143 0.80824 0.73674 0.0
H413 H 0.77932 0.8319 0.71286 0.0
H414 H 0.79157 0.7869 0.69013 0.0
H415 H 0.78996 0.77121 0.7223 0.0
C416 C 0.23225 0.30096 0.29631 0.0
C417 C 0.2436 0.34973 0.29967 0.0
C418 C 0.21881 0.28279 0.27319 0.0
C419 C 0.21121 0.31526 0.25365 0.0
C420 C 0.22049 0.36516 0.25723 0.0
C421 C 0.2384 0.38136 0.27994 0.0
C422 C 0.21307 0.22892 0.26971 0.0
C423 C 0.21005 0.40257 0.23786 0.0
C424 C 0.19932 0.27602 0.18713 0.0
C425 C 0.15114 0.26108 0.18595 0.0
C426 C 0.22006 0.2918 0.20932 0.0
C427 C 0.19052 0.29716 0.23018 0.0
C428 C 0.14067 0.2863 0.22851 0.0
C429 C 0.12201 0.2666 0.20666 0.0
C430 C 0.27323 0.30345 0.21036 0.0
C431 C 0.10667 0.29699 0.24944 0.0
H432 H 0.23184 0.2773 0.31193 0.0
H433 H 0.2455 0.41955 0.28268 0.0
H434 H 0.17841 0.21962 0.26063 0.0
H435 H 0.24215 0.21564 0.2575 0.0
H436 H 0.21516 0.20926 0.28733 0.0
H437 H 0.1899 0.43334 0.24611 0.0
H438 H 0.24467 0.41727 0.23112 0.0
H439 H 0.18889 0.38855 0.22199 0.0
H440 H 0.22051 0.27654 0.17059 0.0
H441 H 0.08408 0.25728 0.20548 0.0
H442 H 0.29123 0.28093 0.22452 0.0
H443 H 0.27877 0.34169 0.21572 0.0
H444 H 0.29109 0.29744 0.19245 0.0
H445 H 0.11266 0.27093 0.26447 0.0
H446 H 0.06823 0.29464 0.24359 0.0
H447 H 0.11344 0.33372 0.25704 0.0
C448 C 0.7317 0.71911 0.54919 0.0
C449 C 0.68512 0.70425 0.55524 0.0
C450 C 0.74827 0.71479 0.52504 0.0
C451 C 0.718 0.69347 0.50696 0.0
C452 C 0.67065 0.67884 0.51305 0.0
C453 C 0.65446 0.68527 0.53713 0.0
C454 C 0.79817 0.73242 0.51893 0.0
C455 C 0.63781 0.65458 0.49442 0.0
C456 C 0.73438 0.70017 0.43837 0.0
C457 C 0.75642 0.65566 0.4335 0.0
C458 C 0.72536 0.71502 0.46256 0.0
C459 C 0.73642 0.6833 0.48202 0.0
C460 C 0.75986 0.63878 0.47716 0.0
C461 C 0.76973 0.62558 0.45287 0.0
C462 C 0.7017 0.76338 0.46718 0.0
C463 C 0.77109 0.6034 0.49736 0.0
H464 H 0.75503 0.73429 0.56333 0.0
H465 H 0.61854 0.67358 0.54207 0.0
H466 H 0.8209 0.70182 0.51257 0.0
H467 H 0.79591 0.75858 0.50368 0.0
H468 H 0.81632 0.7501 0.53489 0.0
H469 H 0.60211 0.6454 0.50221 0.0
H470 H 0.63198 0.67839 0.47843 0.0
H471 H 0.65498 0.62087 0.48753 0.0
H472 H 0.72232 0.7224 0.42324 0.0
H473 H 0.78582 0.59066 0.44887 0.0
H474 H 0.72232 0.7839 0.48135 0.0
H475 H 0.66473 0.75813 0.4743 0.0
H476 H 0.69924 0.78534 0.45026 0.0
H477 H 0.79139 0.62136 0.51249 0.0
H478 H 0.79249 0.57201 0.49069 0.0
H479 H 0.73686 0.58986 0.50514 0.0
C480 C 0.26766 0.20918 0.68801 0.0
C481 C 0.31486 0.21263 0.67917 0.0
C482 C 0.25885 0.20716 0.71331 0.0
C483 C 0.2983 0.20716 0.73 0.0
C484 C 0.34597 0.21129 0.72116 0.0
C485 C 0.35361 0.21461 0.69586 0.0
C486 C 0.20749 0.20404 0.72216 0.0
C487 C 0.38906 0.21019 0.73833 0.0
C488 C 0.28424 0.23024 0.7984 0.0
C489 C 0.28308 0.183 0.80734 0.0
C490 C 0.28709 0.23881 0.77309 0.0
C491 C 0.29031 0.19917 0.75655 0.0
C492 C 0.2887 0.15144 0.76552 0.0
C493 C 0.28447 0.14397 0.79078 0.0
C494 C 0.28742 0.29016 0.76407 0.0
C495 C 0.29324 0.10822 0.74854 0.0
H496 H 0.23761 0.20811 0.67514 0.0
H497 H 0.39019 0.21694 0.68907 0.0
H498 H 0.20119 0.16813 0.73035 0.0
H499 H 0.20092 0.23155 0.73671 0.0
H500 H 0.18084 0.2094 0.70707 0.0
H501 H 0.42366 0.2152 0.72854 0.0
H502 H 0.38576 0.23887 0.75257 0.0
H503 H 0.39039 0.17507 0.74795 0.0
H504 H 0.28277 0.26046 0.81117 0.0
H505 H 0.284 0.10738 0.79766 0.0
H506 H 0.25981 0.29488 0.7494 0.0
H507 H 0.323 0.29839 0.75596 0.0
H508 H 0.28029 0.3167 0.77904 0.0
H509 H 0.26463 0.10919 0.7342 0.0
H510 H 0.29057 0.07349 0.75846 0.0
H511 H 0.32849 0.10925 0.73905 0.0
C512 C 0.79125 0.76736 0.04021 0.0
C513 C 0.83381 0.74119 0.04414 0.0
C514 C 0.77578 0.77829 0.01634 0.0
C515 C 0.80496 0.76459 -0.00376 0.0
C516 C 0.84743 0.73709 0.00018 0.0
C517 C 0.86128 0.72564 0.02417 0.0
C518 C 0.72957 0.80639 0.01271 0.0
C519 C 0.87998 0.72256 0.97925 0.0
C520 C 0.76668 0.77104 0.92954 0.0
C521 C 0.78632 0.81543 0.92292 0.0
C522 C 0.76985 0.75513 0.95382 0.0
C523 C 0.79471 0.7837 0.97146 0.0
C524 C 0.81373 0.82915 0.96483 0.0
C525 C 0.80853 0.84485 0.94061 0.0
C526 C 0.74732 0.70762 0.96052 0.0
C527 C 0.84171 0.86004 0.98296 0.0
H528 H 0.77108 0.78084 0.05581 0.0
H529 H 0.89469 0.70614 0.02744 0.0
H530 H 0.73776 0.84287 0.00569 0.0
H531 H 0.70635 0.78807 -0.00118 0.0
H532 H 0.70902 0.81046 0.03004 0.0
H533 H 0.91026 0.69906 0.98535 0.0
H534 H 0.85913 0.70312 0.96479 0.0
H535 H 0.89527 0.75537 0.97078 0.0
H536 H 0.74895 0.74881 0.91571 0.0
H537 H 0.82381 0.87911 0.93521 0.0
H538 H 0.72026 0.71373 0.97511 0.0
H539 H 0.77518 0.68278 0.96795 0.0
H540 H 0.72925 0.68976 0.94459 0.0
H541 H 0.81962 0.86771 -0.00057 0.0
H542 H 0.85305 0.89492 0.97497 0.0
H543 H 0.87444 0.84029 0.98918 0.0
C544 C 0.02443 0.08655 0.11149 0.0
C545 C 0.05759 0.09498 0.13057 0.0
C546 C -0.00105 0.04283 0.10996 0.0
C547 C 0.00556 0.00783 0.12851 0.0
C548 C 0.03707 0.01751 0.14851 0.0
C549 C 0.0636 0.06047 0.14897 0.0
C550 C 0.96702 0.03307 0.08789 0.0
C551 C 0.04381 0.98194 0.16911 0.0
C552 C 0.91428 0.90606 0.13223 0.0
C553 C 0.94035 0.86758 0.12199 0.0
C554 C 0.9353 0.95191 0.13492 0.0
C555 C 0.98257 0.95962 0.12612 0.0
C556 C 0.00862 0.92085 0.11537 0.0
C557 C 0.9875 0.875 0.11392 0.0
C558 C 0.90726 0.99185 0.1474 0.0
C559 C 0.05849 0.92794 0.10504 0.0
H560 H 0.02028 0.11309 0.09712 0.0
H561 H 0.08924 0.06688 0.16372 0.0
H562 H 0.98177 0.00211 0.07722 0.0
H563 H 0.93024 0.02293 0.09376 0.0
H564 H 0.96423 0.06476 0.07561 0.0
H565 H 0.06475 0.99756 0.18474 0.0
H566 H 0.00827 0.96983 0.17593 0.0
H567 H 0.06324 0.94951 0.16225 0.0
H568 H 0.87776 0.90006 0.13848 0.0
H569 H 0.00726 0.84524 0.10565 0.0
H570 H 0.90145 0.02217 0.13457 0.0
H571 H 0.92823 0.00619 0.1633 0.0
H572 H 0.87158 0.97944 0.15398 0.0
H573 H 0.05792 0.95763 0.09151 0.0
H574 H 0.07254 0.89478 0.09591 0.0
H575 H 0.08398 0.9385 0.11993 0.0
C576 C 0.10202 0.46862 0.39507 0.0
C577 C 0.11307 0.42998 0.37933 0.0
C578 C 0.05569 0.48919 0.3951 0.0
C579 C 0.02021 0.47156 0.37844 0.0
C580 C 0.03055 0.43099 0.36337 0.0
C581 C 0.07678 0.41025 0.36424 0.0
C582 C 0.04558 0.53152 0.41198 0.0
C583 C 0.99411 0.41177 0.345 0.0
C584 C 0.89125 0.51655 0.38557 0.0
C585 C 0.89173 0.5574 0.37065 0.0
C586 C 0.93265 0.48752 0.38807 0.0
C587 C 0.97469 0.49914 0.37478 0.0
C588 C 0.97423 0.53904 0.35871 0.0
C589 C 0.93297 0.5682 0.35719 0.0
C590 C 0.93219 0.44606 0.40584 0.0
C591 C 0.01783 0.55187 0.34368 0.0
H592 H 0.12999 0.48369 0.40686 0.0
H593 H 0.08536 0.38054 0.3519 0.0
H594 H 0.04298 0.56507 0.40109 0.0
H595 H 0.01055 0.52672 0.42135 0.0
H596 H 0.07436 0.53638 0.42611 0.0
H597 H 0.00569 0.37685 0.3367 0.0
H598 H 0.9585 0.40679 0.35373 0.0
H599 H 0.98916 0.43835 0.33006 0.0
H600 H 0.8594 0.50883 0.39626 0.0
H601 H 0.93307 0.59992 0.34567 0.0
H602 H 0.95717 0.45405 0.42138 0.0
H603 H 0.94523 0.41247 0.39682 0.0
H604 H 0.89564 0.43951 0.4133 0.0
H605 H 0.04761 0.56382 0.35602 0.0
H606 H 0.01001 0.5812 0.33045 0.0
H607 H 0.03081 0.51972 0.33333 0.0
C608 C 0.41393 0.40754 0.60933 0.0
C609 C 0.43451 0.36965 0.62276 0.0
C610 C 0.43505 0.45344 0.60939 0.0
C611 C 0.47697 0.46191 0.62378 0.0
C612 C 0.49645 0.4244 0.63837 0.0
C613 C 0.47539 0.37838 0.63738 0.0
C614 C 0.41399 0.49206 0.59307 0.0
C615 C 0.54038 0.4325 0.65447 0.0
C616 C 0.56711 0.55654 0.60462 0.0
C617 C 0.55513 0.59533 0.62006 0.0
C618 C 0.54076 0.51351 0.60508 0.0
C619 C 0.50267 0.5087 0.62204 0.0
C620 C 0.49011 0.54809 0.63752 0.0
C621 C 0.51617 0.59138 0.63609 0.0
C622 C 0.55433 0.47289 0.58774 0.0
C623 C 0.45058 0.54382 0.65626 0.0
H624 H 0.38249 0.40074 0.59784 0.0
H625 H 0.49112 0.34915 0.64788 0.0
H626 H 0.40712 0.52557 0.6038 0.0
H627 H 0.44027 0.50111 0.57858 0.0
H628 H 0.37972 0.48051 0.5841 0.0
H629 H 0.54774 0.4014 0.66668 0.0
H630 H 0.57247 0.43825 0.64284 0.0
H631 H 0.53559 0.46544 0.66596 0.0
H632 H 0.59741 0.55985 0.59229 0.0
H633 H 0.50764 0.6213 0.6483 0.0
H634 H 0.52205 0.46038 0.57732 0.0
H635 H 0.56822 0.44173 0.59833 0.0
H636 H 0.58239 0.4838 0.57447 0.0
H637 H 0.41636 0.5325 0.64724 0.0
H638 H 0.44424 0.57827 0.66636 0.0
H639 H 0.46035 0.51552 0.66971 0.0
C640 C 0.62437 0.98877 0.89084 0.0
C641 C 0.63023 0.95028 0.87427 0.0
C642 C 0.5798 0.01265 0.89289 0.0
C643 C 0.54094 -0.00127 0.87732 0.0
C644 C 0.54659 0.95937 0.86081 0.0
C645 C 0.591 0.93509 0.85979 0.0
C646 C 0.57462 0.05343 0.91128 0.0
C647 C 0.50652 0.94437 0.84341 0.0
C648 C 0.41246 0.0381 0.89098 0.0
C649 C 0.40826 0.07972 0.87672 0.0
C650 C 0.45587 0.0119 0.89181 0.0
C651 C 0.49521 0.02686 0.87735 0.0
C652 C 0.4907 0.06846 0.86257 0.0
C653 C 0.44749 0.09494 0.8628 0.0
C654 C 0.45988 0.96871 0.9084 0.0
C655 C 0.53132 0.08472 0.84632 0.0
H656 H 0.65473 0.00038 0.90209 0.0
H657 H 0.59572 0.90567 0.84673 0.0
H658 H 0.57 0.0881 0.90151 0.0
H659 H 0.54197 0.04808 0.92258 0.0
H660 H 0.60654 0.05648 0.92368 0.0
H661 H 0.51641 0.91232 0.83208 0.0
H662 H 0.47338 0.93594 0.85376 0.0
H663 H 0.49762 0.97465 0.83095 0.0
H664 H 0.38219 0.02685 0.90201 0.0
H665 H 0.444 0.12713 0.85174 0.0
H666 H 0.49067 0.97353 0.92134 0.0
H667 H 0.46721 0.93566 0.89738 0.0
H668 H 0.42655 0.96295 0.91916 0.0
H669 H 0.56347 0.0939 0.85767 0.0
H670 H 0.52127 0.11672 0.83524 0.0
H671 H 0.5419 0.05494 0.83367 0.0
C672 C 0.92627 0.56539 0.07919 0.0
C673 C 0.92287 0.59283 0.10081 0.0
C674 C 0.9533 0.52253 0.07856 0.0
C675 C 0.97614 0.5062 0.10029 0.0
C676 C 0.97356 0.53449 0.12208 0.0
C677 C 0.94742 0.57799 0.12197 0.0
C678 C 0.95634 0.49412 0.05481 0.0
C679 C 0.99644 0.51772 0.14578 0.0
C680 C 0.99351 0.37123 0.10706 0.0
C681 C 0.04352 0.3663 0.10434 0.0
C682 C 0.9712 0.41659 0.10571 0.0
C683 C -0.00057 0.45782 0.10077 0.0
C684 C 0.04969 0.45277 0.09694 0.0
C685 C 0.07133 0.40706 0.09918 0.0
C686 C 0.91768 0.42058 0.11045 0.0
C687 C 0.08063 0.49571 0.09086 0.0
H688 H 0.90777 0.57747 0.06276 0.0
H689 H 0.94443 0.59938 0.13867 0.0
H690 H 0.99446 0.48485 0.05077 0.0
H691 H 0.93638 0.4597 0.05654 0.0
H692 H 0.94094 0.51429 0.03904 0.0
H693 H 0.99269 0.54481 0.16082 0.0
H694 H 0.97926 0.48358 0.15157 0.0
H695 H 0.03533 0.51004 0.14308 0.0
H696 H 0.97198 0.33985 0.11134 0.0
H697 H 0.11001 0.40324 0.09702 0.0
H698 H 0.89904 0.43673 0.0944 0.0
H699 H 0.9113 0.44486 0.12643 0.0
H700 H 0.901 0.38502 0.11419 0.0
H701 H 0.06505 0.51517 0.07492 0.0
H702 H 0.11832 0.4851 0.08652 0.0
H703 H 0.08134 0.52141 0.1066 0.0
C704 C 0.39 0.48965 0.35017 0.0
C705 C 0.38861 0.4499 0.36582 0.0
C706 C 0.43222 0.51721 0.34812 0.0
C707 C 0.47323 0.50521 0.36254 0.0
C708 C 0.47077 0.4668 0.37944 0.0
C709 C 0.42869 0.43908 0.38057 0.0
C710 C 0.43385 0.55719 0.32953 0.0
C711 C 0.51323 0.4537 0.39565 0.0
C712 C 0.60163 0.53008 0.34309 0.0
C713 C 0.61325 0.57018 0.35779 0.0
C714 C 0.55503 0.51041 0.34329 0.0
C715 C 0.51981 0.53058 0.35911 0.0
C716 C 0.5309 0.57218 0.37331 0.0
C717 C 0.57739 0.59186 0.37224 0.0
C718 C 0.54413 0.46677 0.32738 0.0
C719 C 0.49471 0.59409 0.39077 0.0
H720 H 0.35912 0.49732 0.33846 0.0
H721 H 0.42741 0.40817 0.39261 0.0
H722 H 0.44795 0.59087 0.33806 0.0
H723 H 0.45887 0.54685 0.31455 0.0
H724 H 0.39778 0.56473 0.32135 0.0
H725 H 0.50379 0.42606 0.40944 0.0
H726 H 0.54302 0.43932 0.38421 0.0
H727 H 0.52699 0.48623 0.40545 0.0
H728 H 0.62923 0.5135 0.33178 0.0
H729 H 0.58637 0.62273 0.38377 0.0
H730 H 0.50976 0.47206 0.31714 0.0
H731 H 0.53969 0.43461 0.33912 0.0
H732 H 0.57331 0.45916 0.31402 0.0
H733 H 0.45965 0.60017 0.38132 0.0
H734 H 0.50738 0.62892 0.39876 0.0
H735 H 0.48815 0.56865 0.40599 0.0
C736 C 0.41207 0.05031 0.6219 0.0
C737 C 0.42454 0.0911 0.60844 0.0
C738 C 0.43982 0.00797 0.6205 0.0
C739 C 0.47988 0.00593 0.60452 0.0
C740 C 0.49239 0.04704 0.59073 0.0
C741 C 0.46497 0.08951 0.59318 0.0
C742 C 0.42617 0.96539 0.63606 0.0
C743 C 0.53384 0.04573 0.57294 0.0
C744 C 0.57261 0.90815 0.61718 0.0
C745 C 0.55526 0.87014 0.60243 0.0
C746 C 0.54916 0.95308 0.61758 0.0
C747 C 0.50833 0.96053 0.60228 0.0
C748 C 0.4926 0.9232 0.58617 0.0
C749 C 0.51577 0.87806 0.58676 0.0
C750 C 0.56625 0.99147 0.63549 0.0
C751 C 0.45017 0.93031 0.569 0.0
H752 H 0.38076 0.05172 0.6337 0.0
H753 H 0.47403 0.12094 0.58247 0.0
H754 H 0.41551 0.93452 0.6241 0.0
H755 H 0.45766 0.95359 0.64723 0.0
H756 H 0.39581 0.97388 0.64859 0.0
H757 H 0.53875 0.08076 0.56353 0.0
H758 H 0.56787 0.0364 0.58266 0.0
H759 H 0.52742 0.01721 0.55884 0.0
H760 H 0.60283 0.90191 0.62953 0.0
H761 H 0.50245 0.84869 0.5753 0.0
H762 H 0.53801 0.99808 0.64947 0.0
H763 H 0.57224 0.02604 0.62592 0.0
H764 H 0.6002 0.98101 0.64507 0.0
H765 H 0.41644 0.93301 0.57975 0.0
H766 H 0.44636 0.90006 0.55558 0.0
H767 H 0.45404 0.96453 0.55879 0.0
C768 C 0.94295 0.92014 0.87323 0.0
C769 C 0.90493 0.93502 0.858 0.0
C770 C 0.98671 0.94526 0.87383 0.0
C771 C 0.99299 0.98516 0.85815 0.0
C772 C 0.95461 0.00029 0.84267 0.0
C773 C 0.91057 0.97538 0.84307 0.0
C774 C 0.02623 0.92896 0.89116 0.0
C775 C 0.96052 0.04188 0.82526 0.0
C776 C 0.09195 0.07335 0.87543 0.0
C777 C 0.13087 0.05534 0.86183 0.0
C778 C 0.04661 0.05127 0.87412 0.0
C779 C 0.03974 0.01112 0.85825 0.0
C780 C 0.07844 0.99399 0.84369 0.0
C781 C 0.12393 0.01588 0.84596 0.0
C782 C 0.00669 0.06965 0.89049 0.0
C783 C 0.07202 0.95203 0.82607 0.0
H784 H 0.93831 0.88883 0.88477 0.0
H785 H 0.88122 0.98624 0.83102 0.0
H786 H 0.05818 0.91697 0.88057 0.0
H787 H 0.03785 0.95953 0.90311 0.0
H788 H 0.01459 0.89878 0.90299 0.0
H789 H 0.92731 0.04877 0.81426 0.0
H790 H 0.96991 0.07525 0.83563 0.0
H791 H 0.99072 0.03418 0.81254 0.0
H792 H 0.09741 0.10364 0.8879 0.0
H793 H 0.154 0.00219 0.83533 0.0
H794 H 0.99616 0.04096 0.90346 0.0
H795 H 0.97424 0.07869 0.87939 0.0
H796 H 0.01756 0.10216 0.90127 0.0
H797 H 0.06527 0.91854 0.83648 0.0
H798 H 0.10423 0.9462 0.8144 0.0
H799 H 0.04015 0.95818 0.81402 0.0
loop_
_geom_bond_atom_site_label_1
_geom_bond_atom_site_label_2
_geom_bond_distance
_geom_bond_site_symmetry_2
_ccdc_geom_bond_type
Mn0 O5 2.095 . S
Mn0 O15 2.162 . S
Mn0 O16 2.297 . S
Mn0 O24 2.385 . S
Mn0 O25 2.209 . S
Mn0 O26 2.094 . S
Mn1 O6 2.121 . S
Mn1 N8 2.257 . S
Mn1 N17 2.282 . S
Mn1 O25 2.215 . S
Mn1 O27 2.117 . S
C2 O24 1.234 . S
C2 O25 1.283 . S
C3 O15 1.281 . S
C3 O16 1.236 . S
C4 O26 1.240 . S
C4 O27 1.264 . S
O5 Mn0 2.095 . S
O5 C14 1.250 . S
O6 Mn1 2.121 . S
O6 C14 1.258 . S
C7 N8 1.326 . S
C7 C11 1.460 . S
C7 H13 0.929 . S
N8 Mn1 2.257 . S
N8 C7 1.326 . S
N8 C12 1.362 . S
C9 C10 1.258 . S
C9 C12 1.431 . S
C9 C29 1.449 . S
C10 C9 1.258 . S
C10 C11 1.477 . S
C10 H30 0.931 . S
C11 C7 1.460 . S
C11 C10 1.477 . S
C11 H31 0.930 . S
C12 N8 1.362 . S
C12 C9 1.431 . S
C12 C22 1.476 . S
H13 C7 0.929 . S
C14 O5 1.250 . S
C14 O6 1.258 . S
O15 Mn0 2.162 . S
O15 C3 1.281 . S
O16 Mn0 2.297 . S
O16 C3 1.236 . S
N17 Mn1 2.282 . S
N17 C18 1.328 . S
N17 C22 1.318 . S
C18 N17 1.328 . S
C18 C19 1.457 . S
C18 H23 0.929 . S
C19 C18 1.457 . S
C19 C20 1.291 . S
C19 H32 0.931 . S
C20 C19 1.291 . S
C20 C21 1.373 . S
C20 H33 0.929 . S
C21 C20 1.373 . S
C21 C22 1.396 . S
C21 C28 1.403 . S
C22 C12 1.476 . S
C22 N17 1.318 . S
C22 C21 1.396 . S
H23 C18 0.929 . S
O24 Mn0 2.385 . S
O24 C2 1.234 . S
O25 Mn0 2.209 . S
O25 Mn1 2.215 . S
O25 C2 1.283 . S
O26 Mn0 2.094 . S
O26 C4 1.240 . S
O27 Mn1 2.117 . S
O27 C4 1.264 . S
C28 C21 1.403 . S
C28 C29 1.399 . S
C28 H34 0.929 . S
C29 C9 1.449 . S
C29 C28 1.399 . S
C29 H35 0.930 . S
H30 C10 0.931 . S
H31 C11 0.930 . S
H32 C19 0.931 . S
H33 C20 0.929 . S
H34 C28 0.929 . S
H35 C29 0.930 . S
Mn36 O41 2.095 . S
Mn36 O51 2.162 . S
Mn36 O52 2.297 . S
Mn36 O60 2.385 . S
Mn36 O61 2.209 . S
Mn36 O62 2.094 . S
Mn37 O42 2.121 . S
Mn37 N44 2.257 . S
Mn37 N53 2.282 . S
Mn37 O61 2.215 . S
Mn37 O63 2.117 . S
C38 O60 1.234 . S
C38 O61 1.283 . S
C39 O51 1.281 . S
C39 O52 1.236 . S
C40 O62 1.240 . S
C40 O63 1.264 . S
O41 Mn36 2.095 . S
O41 C50 1.250 . S
O42 Mn37 2.121 . S
O42 C50 1.258 . S
C43 N44 1.326 . S
C43 C47 1.460 . S
C43 H49 0.929 . S
N44 Mn37 2.257 . S
N44 C43 1.326 . S
N44 C48 1.362 . S
C45 C46 1.258 . S
C45 C48 1.431 . S
C45 C65 1.449 . S
C46 C45 1.258 . S
C46 C47 1.477 . S
C46 H66 0.931 . S
C47 C43 1.460 . S
C47 C46 1.477 . S
C47 H67 0.930 . S
C48 N44 1.362 . S
C48 C45 1.431 . S
C48 C58 1.476 . S
H49 C43 0.929 . S
C50 O41 1.250 . S
C50 O42 1.258 . S
O51 Mn36 2.162 . S
O51 C39 1.281 . S
O52 Mn36 2.297 . S
O52 C39 1.236 . S
N53 Mn37 2.282 . S
N53 C54 1.328 . S
N53 C58 1.318 . S
C54 N53 1.328 . S
C54 C55 1.457 . S
C54 H59 0.929 . S
C55 C54 1.457 . S
C55 C56 1.291 . S
C55 H68 0.931 . S
C56 C55 1.291 . S
C56 C57 1.373 . S
C56 H69 0.929 . S
C57 C56 1.373 . S
C57 C58 1.396 . S
C57 C64 1.403 . S
C58 C48 1.476 . S
C58 N53 1.318 . S
C58 C57 1.396 . S
H59 C54 0.929 . S
O60 Mn36 2.385 . S
O60 C38 1.234 . S
O61 Mn36 2.209 . S
O61 Mn37 2.215 . S
O61 C38 1.283 . S
O62 Mn36 2.094 . S
O62 C40 1.240 . S
O63 Mn37 2.117 . S
O63 C40 1.264 . S
C64 C57 1.403 . S
C64 C65 1.399 . S
C64 H70 0.929 . S
C65 C45 1.449 . S
C65 C64 1.399 . S
C65 H71 0.930 . S
H66 C46 0.931 . S
H67 C47 0.930 . S
H68 C55 0.931 . S
H69 C56 0.929 . S
H70 C64 0.929 . S
H71 C65 0.930 . S
Mn72 O77 2.095 . S
Mn72 O87 2.162 . S
Mn72 O88 2.297 . S
Mn72 O96 2.385 . S
Mn72 O97 2.209 . S
Mn72 O98 2.094 . S
Mn73 O78 2.121 . S
Mn73 N80 2.257 . S
Mn73 N89 2.282 . S
Mn73 O97 2.215 . S
Mn73 O99 2.117 . S
C74 O96 1.234 . S
C74 O97 1.283 . S
C75 O87 1.281 . S
C75 O88 1.236 . S
C76 O98 1.240 . S
C76 O99 1.264 . S
O77 Mn72 2.095 . S
O77 C86 1.250 . S
O78 Mn73 2.121 . S
O78 C86 1.258 . S
C79 N80 1.326 . S
C79 C83 1.460 . S
C79 H85 0.929 . S
N80 Mn73 2.257 . S
N80 C79 1.326 . S
N80 C84 1.362 . S
C81 C82 1.258 . S
C81 C84 1.431 . S
C81 C101 1.449 . S
C82 C81 1.258 . S
C82 C83 1.477 . S
C82 H102 0.931 . S
C83 C79 1.460 . S
C83 C82 1.477 . S
C83 H103 0.930 . S
C84 N80 1.362 . S
C84 C81 1.431 . S
C84 C94 1.476 . S
H85 C79 0.929 . S
C86 O77 1.250 . S
C86 O78 1.258 . S
O87 Mn72 2.162 . S
O87 C75 1.281 . S
O88 Mn72 2.297 . S
O88 C75 1.236 . S
N89 Mn73 2.282 . S
N89 C90 1.328 . S
N89 C94 1.318 . S
C90 N89 1.328 . S
C90 C91 1.457 . S
C90 H95 0.929 . S
C91 C90 1.457 . S
C91 C92 1.291 . S
C91 H104 0.931 . S
C92 C91 1.291 . S
C92 C93 1.373 . S
C92 H105 0.929 . S
C93 C92 1.373 . S
C93 C94 1.396 . S
C93 C100 1.403 . S
C94 C84 1.476 . S
C94 N89 1.318 . S
C94 C93 1.396 . S
H95 C90 0.929 . S
O96 Mn72 2.385 . S
O96 C74 1.234 . S
O97 Mn72 2.209 . S
O97 Mn73 2.215 . S
O97 C74 1.283 . S
O98 Mn72 2.094 . S
O98 C76 1.240 . S
O99 Mn73 2.117 . S
O99 C76 1.264 . S
C100 C93 1.403 . S
C100 C101 1.399 . S
C100 H106 0.929 . S
C101 C81 1.449 . S
C101 C100 1.399 . S
C101 H107 0.930 . S
H102 C82 0.931 . S
H103 C83 0.930 . S
H104 C91 0.931 . S
H105 C92 0.929 . S
H106 C100 0.929 . S
H107 C101 0.930 . S
Mn108 O113 2.095 . S
Mn108 O123 2.162 . S
Mn108 O124 2.297 . S
Mn108 O132 2.385 . S
Mn108 O133 2.209 . S
Mn108 O134 2.094 . S
Mn109 O114 2.121 . S
Mn109 N116 2.257 . S
Mn109 N125 2.282 . S
Mn109 O133 2.215 . S
Mn109 O135 2.117 . S
C110 O132 1.234 . S
C110 O133 1.283 . S
C111 O123 1.281 . S
C111 O124 1.236 . S
C112 O134 1.240 . S
C112 O135 1.264 . S
O113 Mn108 2.095 . S
O113 C122 1.250 . S
O114 Mn109 2.121 . S
O114 C122 1.258 . S
C115 N116 1.326 . S
C115 C119 1.460 . S
C115 H121 0.929 . S
N116 Mn109 2.257 . S
N116 C115 1.326 . S
N116 C120 1.362 . S
C117 C118 1.258 . S
C117 C120 1.431 . S
C117 C137 1.449 . S
C118 C117 1.258 . S
C118 C119 1.477 . S
C118 H138 0.931 . S
C119 C115 1.460 . S
C119 C118 1.477 . S
C119 H139 0.930 . S
C120 N116 1.362 . S
C120 C117 1.431 . S
C120 C130 1.476 . S
H121 C115 0.929 . S
C122 O113 1.250 . S
C122 O114 1.258 . S
O123 Mn108 2.162 . S
O123 C111 1.281 . S
O124 Mn108 2.297 . S
O124 C111 1.236 . S
N125 Mn109 2.282 . S
N125 C126 1.328 . S
N125 C130 1.318 . S
C126 N125 1.328 . S
C126 C127 1.457 . S
C126 H131 0.929 . S
C127 C126 1.457 . S
C127 C128 1.291 . S
C127 H140 0.931 . S
C128 C127 1.291 . S
C128 C129 1.373 . S
C128 H141 0.929 . S
C129 C128 1.373 . S
C129 C130 1.396 . S
C129 C136 1.403 . S
C130 C120 1.476 . S
C130 N125 1.318 . S
C130 C129 1.396 . S
H131 C126 0.929 . S
O132 Mn108 2.385 . S
O132 C110 1.234 . S
O133 Mn108 2.209 . S
O133 Mn109 2.215 . S
O133 C110 1.283 . S
O134 Mn108 2.094 . S
O134 C112 1.240 . S
O135 Mn109 2.117 . S
O135 C112 1.264 . S
C136 C129 1.403 . S
C136 C137 1.399 . S
C136 H142 0.929 . S
C137 C117 1.449 . S
C137 C136 1.399 . S
C137 H143 0.930 . S
H138 C118 0.931 . S
H139 C119 0.930 . S
H140 C127 0.931 . S
H141 C128 0.929 . S
H142 C136 0.929 . S
H143 C137 0.930 . S
Mn144 O149 2.095 . S
Mn144 O159 2.162 . S
Mn144 O160 2.297 . S
Mn144 O168 2.385 . S
Mn144 O169 2.209 . S
Mn144 O170 2.094 . S
Mn145 O150 2.121 . S
Mn145 N152 2.257 . S
Mn145 N161 2.282 . S
Mn145 O169 2.215 . S
Mn145 O171 2.117 . S
C146 O168 1.234 . S
C146 O169 1.283 . S
C147 O159 1.281 . S
C147 O160 1.236 . S
C148 O170 1.240 . S
C148 O171 1.264 . S
O149 Mn144 2.095 . S
O149 C158 1.250 . S
O150 Mn145 2.121 . S
O150 C158 1.258 . S
C151 N152 1.326 . S
C151 C155 1.460 . S
C151 H157 0.929 . S
N152 Mn145 2.257 . S
N152 C151 1.326 . S
N152 C156 1.362 . S
C153 C154 1.258 . S
C153 C156 1.431 . S
C153 C173 1.449 . S
C154 C153 1.258 . S
C154 C155 1.477 . S
C154 H174 0.931 . S
C155 C151 1.460 . S
C155 C154 1.477 . S
C155 H175 0.930 . S
C156 N152 1.362 . S
C156 C153 1.431 . S
C156 C166 1.476 . S
H157 C151 0.929 . S
C158 O149 1.250 . S
C158 O150 1.258 . S
O159 Mn144 2.162 . S
O159 C147 1.281 . S
O160 Mn144 2.297 . S
O160 C147 1.236 . S
N161 Mn145 2.282 . S
N161 C162 1.328 . S
N161 C166 1.318 . S
C162 N161 1.328 . S
C162 C163 1.457 . S
C162 H167 0.929 . S
C163 C162 1.457 . S
C163 C164 1.291 . S
C163 H176 0.931 . S
C164 C163 1.291 . S
C164 C165 1.373 . S
C164 H177 0.929 . S
C165 C164 1.373 . S
C165 C166 1.396 . S
C165 C172 1.403 . S
C166 C156 1.476 . S
C166 N161 1.318 . S
C166 C165 1.396 . S
H167 C162 0.929 . S
O168 Mn144 2.385 . S
O168 C146 1.234 . S
O169 Mn144 2.209 . S
O169 Mn145 2.215 . S
O169 C146 1.283 . S
O170 Mn144 2.094 . S
O170 C148 1.240 . S
O171 Mn145 2.117 . S
O171 C148 1.264 . S
C172 C165 1.403 . S
C172 C173 1.399 . S
C172 H178 0.929 . S
C173 C153 1.449 . S
C173 C172 1.399 . S
C173 H179 0.930 . S
H174 C154 0.931 . S
H175 C155 0.930 . S
H176 C163 0.931 . S
H177 C164 0.929 . S
H178 C172 0.929 . S
H179 C173 0.930 . S
Mn180 O185 2.095 . S
Mn180 O195 2.162 . S
Mn180 O196 2.297 . S
Mn180 O204 2.385 . S
Mn180 O205 2.209 . S
Mn180 O206 2.094 . S
Mn181 O186 2.121 . S
Mn181 N188 2.257 . S
Mn181 N197 2.282 . S
Mn181 O205 2.215 . S
Mn181 O207 2.117 . S
C182 O204 1.234 . S
C182 O205 1.283 . S
C183 O195 1.281 . S
C183 O196 1.236 . S
C184 O206 1.240 . S
C184 O207 1.264 . S
O185 Mn180 2.095 . S
O185 C194 1.250 . S
O186 Mn181 2.121 . S
O186 C194 1.258 . S
C187 N188 1.326 . S
C187 C191 1.460 . S
C187 H193 0.929 . S
N188 Mn181 2.257 . S
N188 C187 1.326 . S
N188 C192 1.362 . S
C189 C190 1.258 . S
C189 C192 1.431 . S
C189 C209 1.449 . S
C190 C189 1.258 . S
C190 C191 1.477 . S
C190 H210 0.931 . S
C191 C187 1.460 . S
C191 C190 1.477 . S
C191 H211 0.930 . S
C192 N188 1.362 . S
C192 C189 1.431 . S
C192 C202 1.476 . S
H193 C187 0.929 . S
C194 O185 1.250 . S
C194 O186 1.258 . S
O195 Mn180 2.162 . S
O195 C183 1.281 . S
O196 Mn180 2.297 . S
O196 C183 1.236 . S
N197 Mn181 2.282 . S
N197 C198 1.328 . S
N197 C202 1.318 . S
C198 N197 1.328 . S
C198 C199 1.457 . S
C198 H203 0.929 . S
C199 C198 1.457 . S
C199 C200 1.291 . S
C199 H212 0.931 . S
C200 C199 1.291 . S
C200 C201 1.373 . S
C200 H213 0.929 . S
C201 C200 1.373 . S
C201 C202 1.396 . S
C201 C208 1.403 . S
C202 C192 1.476 . S
C202 N197 1.318 . S
C202 C201 1.396 . S
H203 C198 0.929 . S
O204 Mn180 2.385 . S
O204 C182 1.234 . S
O205 Mn180 2.209 . S
O205 Mn181 2.215 . S
O205 C182 1.283 . S
O206 Mn180 2.094 . S
O206 C184 1.240 . S
O207 Mn181 2.117 . S
O207 C184 1.264 . S
C208 C201 1.403 . S
C208 C209 1.399 . S
C208 H214 0.929 . S
C209 C189 1.449 . S
C209 C208 1.399 . S
C209 H215 0.930 . S
H210 C190 0.931 . S
H211 C191 0.930 . S
H212 C199 0.931 . S
H213 C200 0.929 . S
H214 C208 0.929 . S
H215 C209 0.930 . S
Mn216 O221 2.095 . S
Mn216 O231 2.162 . S
Mn216 O232 2.297 . S
Mn216 O240 2.385 . S
Mn216 O241 2.209 . S
Mn216 O242 2.094 . S
Mn217 O222 2.121 . S
Mn217 N224 2.257 . S
Mn217 N233 2.282 . S
Mn217 O241 2.215 . S
Mn217 O243 2.117 . S
C218 O240 1.234 . S
C218 O241 1.283 . S
C219 O231 1.281 . S
C219 O232 1.236 . S
C220 O242 1.240 . S
C220 O243 1.264 . S
O221 Mn216 2.095 . S
O221 C230 1.250 . S
O222 Mn217 2.121 . S
O222 C230 1.258 . S
C223 N224 1.326 . S
C223 C227 1.460 . S
C223 H229 0.929 . S
N224 Mn217 2.257 . S
N224 C223 1.326 . S
N224 C228 1.362 . S
C225 C226 1.258 . S
C225 C228 1.431 . S
C225 C245 1.449 . S
C226 C225 1.258 . S
C226 C227 1.477 . S
C226 H246 0.931 . S
C227 C223 1.460 . S
C227 C226 1.477 . S
C227 H247 0.930 . S
C228 N224 1.362 . S
C228 C225 1.431 . S
C228 C238 1.476 . S
H229 C223 0.929 . S
C230 O221 1.250 . S
C230 O222 1.258 . S
O231 Mn216 2.162 . S
O231 C219 1.281 . S
O232 Mn216 2.297 . S
O232 C219 1.236 . S
N233 Mn217 2.282 . S
N233 C234 1.328 . S
N233 C238 1.318 . S
C234 N233 1.328 . S
C234 C235 1.457 . S
C234 H239 0.929 . S
C235 C234 1.457 . S
C235 C236 1.291 . S
C235 H248 0.931 . S
C236 C235 1.291 . S
C236 C237 1.373 . S
C236 H249 0.929 . S
C237 C236 1.373 . S
C237 C238 1.396 . S
C237 C244 1.403 . S
C238 C228 1.476 . S
C238 N233 1.318 . S
C238 C237 1.396 . S
H239 C234 0.929 . S
O240 Mn216 2.385 . S
O240 C218 1.234 . S
O241 Mn216 2.209 . S
O241 Mn217 2.215 . S
O241 C218 1.283 . S
O242 Mn216 2.094 . S
O242 C220 1.240 . S
O243 Mn217 2.117 . S
O243 C220 1.264 . S
C244 C237 1.403 . S
C244 C245 1.399 . S
C244 H250 0.929 . S
C245 C225 1.449 . S
C245 C244 1.399 . S
C245 H251 0.930 . S
H246 C226 0.931 . S
H247 C227 0.930 . S
H248 C235 0.931 . S
H249 C236 0.929 . S
H250 C244 0.929 . S
H251 C245 0.930 . S
Mn252 O257 2.095 . S
Mn252 O267 2.162 . S
Mn252 O268 2.297 . S
Mn252 O276 2.385 . S
Mn252 O277 2.209 . S
Mn252 O278 2.094 . S
Mn253 O258 2.121 . S
Mn253 N260 2.257 . S
Mn253 N269 2.282 . S
Mn253 O277 2.215 . S
Mn253 O279 2.117 . S
C254 O276 1.234 . S
C254 O277 1.283 . S
C255 O267 1.281 . S
C255 O268 1.236 . S
C256 O278 1.240 . S
C256 O279 1.264 . S
O257 Mn252 2.095 . S
O257 C266 1.250 . S
O258 Mn253 2.121 . S
O258 C266 1.258 . S
C259 N260 1.326 . S
C259 C263 1.460 . S
C259 H265 0.929 . S
N260 Mn253 2.257 . S
N260 C259 1.326 . S
N260 C264 1.362 . S
C261 C262 1.258 . S
C261 C264 1.431 . S
C261 C281 1.449 . S
C262 C261 1.258 . S
C262 C263 1.477 . S
C262 H282 0.931 . S
C263 C259 1.460 . S
C263 C262 1.477 . S
C263 H283 0.930 . S
C264 N260 1.362 . S
C264 C261 1.431 . S
C264 C274 1.476 . S
H265 C259 0.929 . S
C266 O257 1.250 . S
C266 O258 1.258 . S
O267 Mn252 2.162 . S
O267 C255 1.281 . S
O268 Mn252 2.297 . S
O268 C255 1.236 . S
N269 Mn253 2.282 . S
N269 C270 1.328 . S
N269 C274 1.318 . S
C270 N269 1.328 . S
C270 C271 1.457 . S
C270 H275 0.929 . S
C271 C270 1.457 . S
C271 C272 1.291 . S
C271 H284 0.931 . S
C272 C271 1.291 . S
C272 C273 1.373 . S
C272 H285 0.929 . S
C273 C272 1.373 . S
C273 C274 1.396 . S
C273 C280 1.403 . S
C274 C264 1.476 . S
C274 N269 1.318 . S
C274 C273 1.396 . S
H275 C270 0.929 . S
O276 Mn252 2.385 . S
O276 C254 1.234 . S
O277 Mn252 2.209 . S
O277 Mn253 2.215 . S
O277 C254 1.283 . S
O278 Mn252 2.094 . S
O278 C256 1.240 . S
O279 Mn253 2.117 . S
O279 C256 1.264 . S
C280 C273 1.403 . S
C280 C281 1.399 . S
C280 H286 0.929 . S
C281 C261 1.449 . S
C281 C280 1.399 . S
C281 H287 0.930 . S
H282 C262 0.931 . S
H283 C263 0.930 . S
H284 C271 0.931 . S
H285 C272 0.929 . S
H286 C280 0.929 . S
H287 C281 0.930 . S
C288 C289 1.391 . S
C288 C290 1.394 . S
C288 H304 0.931 . S
C289 C288 1.391 . S
C289 C293 1.376 . S
C290 C288 1.394 . S
C290 C291 1.369 . S
C290 C294 1.531 . S
C291 C290 1.369 . S
C291 C292 1.410 . S
C291 C299 1.503 1_554 S
C292 C291 1.410 . S
C292 C293 1.392 . S
C292 C295 1.511 . S
C293 C289 1.376 . S
C293 C292 1.392 . S
C293 H305 0.929 . S
C294 C290 1.531 . S
C294 H306 0.960 . S
C294 H307 0.962 . S
C294 H308 0.960 . S
C295 C292 1.511 . S
C295 H309 0.961 . S
C295 H310 0.961 1_554 S
C295 H311 0.961 1_554 S
C296 C297 1.370 . S
C296 C298 1.363 . S
C296 H312 0.931 . S
C297 C296 1.370 . S
C297 C301 1.408 . S
C298 C296 1.363 . S
C298 C299 1.370 . S
C298 C302 1.524 . S
C299 C291 1.503 1_556 S
C299 C298 1.370 . S
C299 C300 1.403 . S
C300 C299 1.403 . S
C300 C301 1.404 . S
C300 C303 1.539 . S
C301 C297 1.408 . S
C301 C300 1.404 . S
C301 H313 0.930 . S
C302 C298 1.524 . S
C302 H314 0.956 1_556 S
C302 H315 0.943 1_556 S
C302 H316 0.961 . S
C303 C300 1.539 . S
C303 H317 0.958 . S
C303 H318 0.961 . S
C303 H319 0.960 . S
H304 C288 0.931 . S
H305 C293 0.929 . S
H306 C294 0.960 . S
H307 C294 0.962 . S
H308 C294 0.960 . S
H309 C295 0.961 . S
H310 C295 0.961 1_556 S
H311 C295 0.961 1_556 S
H312 C296 0.931 . S
H313 C301 0.930 . S
H314 C302 0.956 1_554 S
H315 C302 0.943 1_554 S
H316 C302 0.961 . S
H317 C303 0.958 . S
H318 C303 0.961 . S
H319 C303 0.960 . S
C320 C321 1.391 . S
C320 C322 1.394 . S
C320 H336 0.931 . S
C321 C320 1.391 . S
C321 C325 1.376 . S
C322 C320 1.394 . S
C322 C323 1.369 . S
C322 C326 1.531 . S
C323 C322 1.369 . S
C323 C324 1.410 . S
C323 C331 1.503 . S
C324 C323 1.410 . S
C324 C325 1.392 . S
C324 C327 1.511 . S
C325 C321 1.376 . S
C325 C324 1.392 . S
C325 H337 0.929 . S
C326 C322 1.531 . S
C326 H338 0.960 . S
C326 H339 0.962 . S
C326 H340 0.960 . S
C327 C324 1.511 . S
C327 H341 0.961 . S
C327 H342 0.961 . S
C327 H343 0.961 . S
C328 C329 1.370 . S
C328 C330 1.363 . S
C328 H344 0.931 . S
C329 C328 1.370 . S
C329 C333 1.408 . S
C330 C328 1.363 . S
C330 C331 1.370 . S
C330 C334 1.524 . S
C331 C323 1.503 . S
C331 C330 1.370 . S
C331 C332 1.403 . S
C332 C331 1.403 . S
C332 C333 1.404 . S
C332 C335 1.539 . S
C333 C329 1.408 . S
C333 C332 1.404 . S
C333 H345 0.930 . S
C334 C330 1.524 . S
C334 H346 0.956 . S
C334 H347 0.961 . S
C334 H348 0.961 . S
C335 C332 1.539 . S
C335 H349 0.958 . S
C335 H350 0.961 . S
C335 H351 0.960 . S
H336 C320 0.931 . S
H337 C325 0.929 . S
H338 C326 0.960 . S
H339 C326 0.962 . S
H340 C326 0.960 . S
H341 C327 0.961 . S
H342 C327 0.961 . S
H343 C327 0.961 . S
H344 C328 0.931 . S
H345 C333 0.930 . S
H346 C334 0.956 . S
H347 C334 0.961 . S
H348 C334 0.961 . S
H349 C335 0.958 . S
H350 C335 0.961 . S
H351 C335 0.960 . S
C352 C353 1.391 . S
C352 C354 1.394 . S
C352 H368 0.931 . S
C353 C352 1.391 . S
C353 C357 1.376 . S
C354 C352 1.394 . S
C354 C355 1.369 . S
C354 C358 1.531 . S
C355 C354 1.369 . S
C355 C356 1.410 . S
C355 C363 1.503 . S
C356 C355 1.410 . S
C356 C357 1.392 . S
C356 C359 1.511 . S
C357 C353 1.376 . S
C357 C356 1.392 . S
C357 H369 0.929 . S
C358 C354 1.531 . S
C358 H370 0.960 . S
C358 H371 0.962 . S
C358 H372 0.960 . S
C359 C356 1.511 . S
C359 H373 0.961 . S
C359 H374 0.961 . S
C359 H375 0.961 . S
C360 C361 1.370 . S
C360 C362 1.363 . S
C360 H376 0.931 . S
C361 C360 1.370 . S
C361 C365 1.408 . S
C362 C360 1.363 . S
C362 C363 1.370 . S
C362 C366 1.524 . S
C363 C355 1.503 . S
C363 C362 1.370 . S
C363 C364 1.403 . S
C364 C363 1.403 . S
C364 C365 1.404 . S
C364 C367 1.539 . S
C365 C361 1.408 . S
C365 C364 1.404 . S
C365 H377 0.930 . S
C366 C362 1.524 . S
C366 H378 0.956 . S
C366 H379 0.961 . S
C366 H380 0.961 . S
C367 C364 1.539 . S
C367 H381 0.958 . S
C367 H382 0.961 . S
C367 H383 0.960 . S
H368 C352 0.931 . S
H369 C357 0.929 . S
H370 C358 0.960 . S
H371 C358 0.962 . S
H372 C358 0.960 . S
H373 C359 0.961 . S
H374 C359 0.961 . S
H375 C359 0.961 . S
H376 C360 0.931 . S
H377 C365 0.930 . S
H378 C366 0.956 . S
H379 C366 0.961 . S
H380 C366 0.961 . S
H381 C367 0.958 . S
H382 C367 0.961 . S
H383 C367 0.960 . S
C384 C385 1.391 . S
C384 C386 1.394 . S
C384 H400 0.931 . S
C385 C384 1.391 . S
C385 C389 1.376 . S
C386 C384 1.394 . S
C386 C387 1.369 . S
C386 C390 1.531 . S
C387 C386 1.369 . S
C387 C388 1.410 . S
C387 C395 1.503 . S
C388 C387 1.410 . S
C388 C389 1.392 . S
C388 C391 1.511 . S
C389 C385 1.376 . S
C389 C388 1.392 . S
C389 H401 0.929 . S
C390 C386 1.531 . S
C390 H402 0.960 . S
C390 H403 0.962 . S
C390 H404 0.960 . S
C391 C388 1.511 . S
C391 H405 0.961 . S
C391 H406 0.961 . S
C391 H407 0.961 . S
C392 C393 1.370 . S
C392 C394 1.363 . S
C392 H408 0.931 . S
C393 C392 1.370 . S
C393 C397 1.408 . S
C394 C392 1.363 . S
C394 C395 1.370 . S
C394 C398 1.524 . S
C395 C387 1.503 . S
C395 C394 1.370 . S
C395 C396 1.403 . S
C396 C395 1.403 . S
C396 C397 1.404 . S
C396 C399 1.539 . S
C397 C393 1.408 . S
C397 C396 1.404 . S
C397 H409 0.930 . S
C398 C394 1.524 . S
C398 H410 0.956 . S
C398 H411 0.961 . S
C398 H412 0.961 . S
C399 C396 1.539 . S
C399 H413 0.958 . S
C399 H414 0.961 . S
C399 H415 0.960 . S
H400 C384 0.931 . S
H401 C389 0.929 . S
H402 C390 0.960 . S
H403 C390 0.962 . S
H404 C390 0.960 . S
H405 C391 0.961 . S
H406 C391 0.961 . S
H407 C391 0.961 . S
H408 C392 0.931 . S
H409 C397 0.930 . S
H410 C398 0.956 . S
H411 C398 0.961 . S
H412 C398 0.961 . S
H413 C399 0.958 . S
H414 C399 0.961 . S
H415 C399 0.960 . S
C416 C417 1.391 . S
C416 C418 1.394 . S
C416 H432 0.931 . S
C417 C416 1.391 . S
C417 C421 1.376 . S
C418 C416 1.394 . S
C418 C419 1.369 . S
C418 C422 1.531 . S
C419 C418 1.369 . S
C419 C420 1.410 . S
C419 C427 1.503 . S
C420 C419 1.410 . S
C420 C421 1.392 . S
C420 C423 1.511 . S
C421 C417 1.376 . S
C421 C420 1.392 . S
C421 H433 0.929 . S
C422 C418 1.531 . S
C422 H434 0.960 . S
C422 H435 0.962 . S
C422 H436 0.960 . S
C423 C420 1.511 . S
C423 H437 0.961 . S
C423 H438 0.961 . S
C423 H439 0.961 . S
C424 C425 1.370 . S
C424 C426 1.363 . S
C424 H440 0.931 . S
C425 C424 1.370 . S
C425 C429 1.408 . S
C426 C424 1.363 . S
C426 C427 1.370 . S
C426 C430 1.524 . S
C427 C419 1.503 . S
C427 C426 1.370 . S
C427 C428 1.403 . S
C428 C427 1.403 . S
C428 C429 1.404 . S
C428 C431 1.539 . S
C429 C425 1.408 . S
C429 C428 1.404 . S
C429 H441 0.930 . S
C430 C426 1.524 . S
C430 H442 0.956 . S
C430 H443 0.961 . S
C430 H444 0.961 . S
C431 C428 1.539 . S
C431 H445 0.958 . S
C431 H446 0.961 . S
C431 H447 0.960 . S
H432 C416 0.931 . S
H433 C421 0.929 . S
H434 C422 0.960 . S
H435 C422 0.962 . S
H436 C422 0.960 . S
H437 C423 0.961 . S
H438 C423 0.961 . S
H439 C423 0.961 . S
H440 C424 0.931 . S
H441 C429 0.930 . S
H442 C430 0.956 . S
H443 C430 0.961 . S
H444 C430 0.961 . S
H445 C431 0.958 . S
H446 C431 0.961 . S
H447 C431 0.960 . S
C448 C449 1.391 . S
C448 C450 1.394 . S
C448 H464 0.931 . S
C449 C448 1.391 . S
C449 C453 1.376 . S
C450 C448 1.394 . S
C450 C451 1.369 . S
C450 C454 1.531 . S
C451 C450 1.369 . S
C451 C452 1.410 . S
C451 C459 1.503 . S
C452 C451 1.410 . S
C452 C453 1.392 . S
C452 C455 1.511 . S
C453 C449 1.376 . S
C453 C452 1.392 . S
C453 H465 0.929 . S
C454 C450 1.531 . S
C454 H466 0.960 . S
C454 H467 0.962 . S
C454 H468 0.960 . S
C455 C452 1.511 . S
C455 H469 0.961 . S
C455 H470 0.961 . S
C455 H471 0.961 . S
C456 C457 1.370 . S
C456 C458 1.363 . S
C456 H472 0.931 . S
C457 C456 1.370 . S
C457 C461 1.408 . S
C458 C456 1.363 . S
C458 C459 1.370 . S
C458 C462 1.524 . S
C459 C451 1.503 . S
C459 C458 1.370 . S
C459 C460 1.403 . S
C460 C459 1.403 . S
C460 C461 1.404 . S
C460 C463 1.539 . S
C461 C457 1.408 . S
C461 C460 1.404 . S
C461 H473 0.930 . S
C462 C458 1.524 . S
C462 H474 0.956 . S
C462 H475 0.961 . S
C462 H476 0.961 . S
C463 C460 1.539 . S
C463 H477 0.958 . S
C463 H478 0.961 . S
C463 H479 0.960 . S
H464 C448 0.931 . S
H465 C453 0.929 . S
H466 C454 0.960 . S
H467 C454 0.962 . S
H468 C454 0.960 . S
H469 C455 0.961 . S
H470 C455 0.961 . S
H471 C455 0.961 . S
H472 C456 0.931 . S
H473 C461 0.930 . S
H474 C462 0.956 . S
H475 C462 0.961 . S
H476 C462 0.961 . S
H477 C463 0.958 . S
H478 C463 0.961 . S
H479 C463 0.960 . S
C480 C481 1.391 . S
C480 C482 1.394 . S
C480 H496 0.931 . S
C481 C480 1.391 . S
C481 C485 1.376 . S
C482 C480 1.394 . S
C482 C483 1.369 . S
C482 C486 1.531 . S
C483 C482 1.369 . S
C483 C484 1.410 . S
C483 C491 1.503 . S
C484 C483 1.410 . S
C484 C485 1.392 . S
C484 C487 1.511 . S
C485 C481 1.376 . S
C485 C484 1.392 . S
C485 H497 0.929 . S
C486 C482 1.531 . S
C486 H498 0.960 . S
C486 H499 0.962 . S
C486 H500 0.960 . S
C487 C484 1.511 . S
C487 H501 0.961 . S
C487 H502 0.961 . S
C487 H503 0.961 . S
C488 C489 1.370 . S
C488 C490 1.363 . S
C488 H504 0.931 . S
C489 C488 1.370 . S
C489 C493 1.408 . S
C490 C488 1.363 . S
C490 C491 1.370 . S
C490 C494 1.524 . S
C491 C483 1.503 . S
C491 C490 1.370 . S
C491 C492 1.403 . S
C492 C491 1.403 . S
C492 C493 1.404 . S
C492 C495 1.539 . S
C493 C489 1.408 . S
C493 C492 1.404 . S
C493 H505 0.930 . S
C494 C490 1.524 . S
C494 H506 0.956 . S
C494 H507 0.961 . S
C494 H508 0.961 . S
C495 C492 1.539 . S
C495 H509 0.958 . S
C495 H510 0.961 . S
C495 H511 0.960 . S
H496 C480 0.931 . S
H497 C485 0.929 . S
H498 C486 0.960 . S
H499 C486 0.962 . S
H500 C486 0.960 . S
H501 C487 0.961 . S
H502 C487 0.961 . S
H503 C487 0.961 . S
H504 C488 0.931 . S
H505 C493 0.930 . S
H506 C494 0.956 . S
H507 C494 0.961 . S
H508 C494 0.961 . S
H509 C495 0.958 . S
H510 C495 0.961 . S
H511 C495 0.960 . S
C512 C513 1.391 . S
C512 C514 1.394 . S
C512 H528 0.931 . S
C513 C512 1.391 . S
C513 C517 1.376 . S
C514 C512 1.394 . S
C514 C515 1.369 . S
C514 C518 1.531 . S
C515 C514 1.369 . S
C515 C516 1.410 . S
C515 C523 1.503 1_554 S
C516 C515 1.410 . S
C516 C517 1.392 . S
C516 C519 1.511 . S
C517 C513 1.376 . S
C517 C516 1.392 . S
C517 H529 0.929 . S
C518 C514 1.531 . S
C518 H530 0.960 . S
C518 H531 0.962 . S
C518 H532 0.960 . S
C519 C516 1.511 . S
C519 H533 0.961 . S
C519 H534 0.961 1_554 S
C519 H535 0.961 . S
C520 C521 1.370 . S
C520 C522 1.363 . S
C520 H536 0.931 . S
C521 C520 1.370 . S
C521 C525 1.408 . S
C522 C520 1.363 . S
C522 C523 1.370 . S
C522 C526 1.524 . S
C523 C515 1.503 1_556 S
C523 C522 1.370 . S
C523 C524 1.403 . S
C524 C523 1.403 . S
C524 C525 1.404 . S
C524 C527 1.539 . S
C525 C521 1.408 . S
C525 C524 1.404 . S
C525 H537 0.930 . S
C526 C522 1.524 . S
C526 H538 0.956 1_556 S
C526 H539 0.959 . S
C526 H540 0.961 . S
C527 C524 1.539 . S
C527 H541 0.958 . S
C527 H542 0.961 . S
C527 H543 0.985 . S
H528 C512 0.931 . S
H529 C517 0.929 . S
H530 C518 0.960 . S
H531 C518 0.962 . S
H532 C518 0.960 . S
H533 C519 0.961 . S
H534 C519 0.961 1_556 S
H535 C519 0.961 . S
H536 C520 0.931 . S
H537 C525 0.930 . S
H538 C526 0.956 1_554 S
H539 C526 0.959 . S
H540 C526 0.961 . S
H541 C527 0.958 . S
H542 C527 0.961 . S
H543 C527 0.985 . S
C544 C545 1.391 . S
C544 C546 1.387 1_455 S
C544 H560 0.931 . S
C545 C544 1.391 . S
C545 C549 1.376 . S
C546 C544 1.387 1_655 S
C546 C547 1.363 1_655 S
C546 C550 1.543 . S
C547 C546 1.363 1_455 S
C547 C548 1.410 . S
C547 C555 1.503 1_445 S
C548 C547 1.410 . S
C548 C549 1.392 . S
C548 C551 1.511 1_545 S
C549 C545 1.376 . S
C549 C548 1.392 . S
C549 H561 0.929 . S
C550 C546 1.543 . S
C550 H562 0.960 . S
C550 H563 0.962 . S
C550 H564 0.960 . S
C551 C548 1.511 1_565 S
C551 H565 0.961 . S
C551 H566 0.961 . S
C551 H567 0.961 . S
C552 C553 1.370 . S
C552 C554 1.363 . S
C552 H568 0.931 . S
C553 C552 1.370 . S
C553 C557 1.408 . S
C554 C552 1.363 . S
C554 C555 1.370 . S
C554 C558 1.524 1_565 S
C555 C547 1.503 1_665 S
C555 C554 1.370 . S
C555 C556 1.403 . S
C556 C555 1.403 . S
C556 C557 1.404 . S
C556 C559 1.539 1_655 S
C557 C553 1.408 . S
C557 C556 1.404 . S
C557 H569 0.930 . S
C558 C554 1.524 1_545 S
C558 H570 0.956 . S
C558 H571 0.961 . S
C558 H572 0.961 1_545 S
C559 C556 1.539 1_455 S
C559 H573 0.958 1_455 S
C559 H574 0.961 . S
C559 H575 0.960 . S
H560 C544 0.931 . S
H561 C549 0.929 . S
H562 C550 0.960 . S
H563 C550 0.962 . S
H564 C550 0.960 . S
H565 C551 0.961 . S
H566 C551 0.961 . S
H567 C551 0.961 . S
H568 C552 0.931 . S
H569 C557 0.930 . S
H570 C558 0.956 . S
H571 C558 0.961 . S
H572 C558 0.961 1_565 S
H573 C559 0.958 1_655 S
H574 C559 0.961 . S
H575 C559 0.960 . S
C576 C577 1.391 . S
C576 C578 1.394 . S
C576 H592 0.931 . S
C577 C576 1.391 . S
C577 C581 1.376 . S
C578 C576 1.394 . S
C578 C579 1.369 . S
C578 C582 1.531 . S
C579 C578 1.369 . S
C579 C580 1.410 . S
C579 C587 1.503 1_455 S
C580 C579 1.410 . S
C580 C581 1.392 . S
C580 C583 1.511 1_455 S
C581 C577 1.376 . S
C581 C580 1.392 . S
C581 H593 0.929 . S
C582 C578 1.531 . S
C582 H594 0.960 . S
C582 H595 0.962 . S
C582 H596 0.960 . S
C583 C580 1.511 1_655 S
C583 H597 0.961 . S
C583 H598 0.961 . S
C583 H599 0.961 . S
C584 C585 1.370 . S
C584 C586 1.363 . S
C584 H600 0.931 . S
C585 C584 1.370 . S
C585 C589 1.408 . S
C586 C584 1.363 . S
C586 C587 1.370 . S
C586 C590 1.524 . S
C587 C579 1.503 1_655 S
C587 C586 1.370 . S
C587 C588 1.403 . S
C588 C587 1.403 . S
C588 C589 1.404 . S
C588 C591 1.539 . S
C589 C585 1.408 . S
C589 C588 1.404 . S
C589 H601 0.930 . S
C590 C586 1.524 . S
C590 H602 0.956 1_655 S
C590 H603 0.961 . S
C590 H604 0.961 . S
C591 C588 1.539 . S
C591 H605 0.958 1_655 S
C591 H606 0.961 . S
C591 H607 0.960 . S
H592 C576 0.931 . S
H593 C581 0.929 . S
H594 C582 0.960 . S
H595 C582 0.962 . S
H596 C582 0.960 . S
H597 C583 0.961 . S
H598 C583 0.961 . S
H599 C583 0.961 . S
H600 C584 0.931 . S
H601 C589 0.930 . S
H602 C590 0.956 1_455 S
H603 C590 0.961 . S
H604 C590 0.961 . S
H605 C591 0.958 1_455 S
H606 C591 0.961 . S
H607 C591 0.960 . S
C608 C609 1.391 . S
C608 C610 1.394 . S
C608 H624 0.931 . S
C609 C608 1.391 . S
C609 C613 1.376 . S
C610 C608 1.394 . S
C610 C611 1.369 . S
C610 C614 1.531 . S
C611 C610 1.369 . S
C611 C612 1.410 . S
C611 C619 1.503 . S
C612 C611 1.410 . S
C612 C613 1.392 . S
C612 C615 1.511 . S
C613 C609 1.376 . S
C613 C612 1.392 . S
C613 H625 0.929 . S
C614 C610 1.531 . S
C614 H626 0.960 . S
C614 H627 0.962 . S
C614 H628 0.960 . S
C615 C612 1.511 . S
C615 H629 0.961 . S
C615 H630 0.961 . S
C615 H631 0.961 . S
C616 C617 1.370 . S
C616 C618 1.363 . S
C616 H632 0.931 . S
C617 C616 1.370 . S
C617 C621 1.408 . S
C618 C616 1.363 . S
C618 C619 1.370 . S
C618 C622 1.524 . S
C619 C611 1.503 . S
C619 C618 1.370 . S
C619 C620 1.403 . S
C620 C619 1.403 . S
C620 C621 1.404 . S
C620 C623 1.539 . S
C621 C617 1.408 . S
C621 C620 1.404 . S
C621 H633 0.930 . S
C622 C618 1.524 . S
C622 H634 0.956 . S
C622 H635 0.961 . S
C622 H636 0.961 . S
C623 C620 1.539 . S
C623 H637 0.958 . S
C623 H638 0.961 . S
C623 H639 0.960 . S
H624 C608 0.931 . S
H625 C613 0.929 . S
H626 C614 0.960 . S
H627 C614 0.962 . S
H628 C614 0.960 . S
H629 C615 0.961 . S
H630 C615 0.961 . S
H631 C615 0.961 . S
H632 C616 0.931 . S
H633 C621 0.930 . S
H634 C622 0.956 . S
H635 C622 0.961 . S
H636 C622 0.961 . S
H637 C623 0.958 . S
H638 C623 0.961 . S
H639 C623 0.960 . S
C640 C641 1.391 . S
C640 C642 1.394 1_565 S
C640 H656 0.931 . S
C641 C640 1.391 . S
C641 C645 1.376 . S
C642 C640 1.394 1_545 S
C642 C643 1.369 1_545 S
C642 C646 1.531 . S
C643 C642 1.369 1_565 S
C643 C644 1.410 . S
C643 C651 1.503 1_565 S
C644 C643 1.410 . S
C644 C645 1.392 . S
C644 C647 1.511 . S
C645 C641 1.376 . S
C645 C644 1.392 . S
C645 H657 0.929 . S
C646 C642 1.531 . S
C646 H658 0.960 . S
C646 H659 0.962 . S
C646 H660 0.960 . S
C647 C644 1.511 . S
C647 H661 0.961 . S
C647 H662 0.961 . S
C647 H663 0.961 . S
C648 C649 1.370 . S
C648 C650 1.363 . S
C648 H664 0.931 . S
C649 C648 1.370 . S
C649 C653 1.408 . S
C650 C648 1.363 . S
C650 C651 1.370 . S
C650 C654 1.524 . S
C651 C643 1.503 1_545 S
C651 C650 1.370 . S
C651 C652 1.403 . S
C652 C651 1.403 . S
C652 C653 1.404 . S
C652 C655 1.539 . S
C653 C649 1.408 . S
C653 C652 1.404 . S
C653 H665 0.930 . S
C654 C650 1.524 . S
C654 H666 0.956 . S
C654 H667 0.961 1_545 S
C654 H668 0.961 . S
C655 C652 1.539 . S
C655 H669 0.958 . S
C655 H670 0.961 . S
C655 H671 0.960 1_545 S
H656 C640 0.931 . S
H657 C645 0.929 . S
H658 C646 0.960 . S
H659 C646 0.962 . S
H660 C646 0.960 . S
H661 C647 0.961 . S
H662 C647 0.961 . S
H663 C647 0.961 . S
H664 C648 0.931 . S
H665 C653 0.930 . S
H666 C654 0.956 . S
H667 C654 0.961 1_565 S
H668 C654 0.961 . S
H669 C655 0.958 . S
H670 C655 0.961 . S
H671 C655 0.960 1_565 S
C672 C673 1.391 . S
C672 C674 1.394 . S
C672 H688 0.931 . S
C673 C672 1.391 . S
C673 C677 1.376 . S
C674 C672 1.394 . S
C674 C675 1.369 . S
C674 C678 1.531 . S
C675 C674 1.369 . S
C675 C676 1.410 1_655 S
C675 C683 1.503 1_655 S
C676 C675 1.410 1_455 S
C676 C677 1.392 1_455 S
C676 C679 1.511 . S
C677 C673 1.376 . S
C677 C676 1.392 1_655 S
C677 H689 0.929 . S
C678 C674 1.531 . S
C678 H690 0.960 . S
C678 H691 0.962 . S
C678 H692 0.960 . S
C679 C676 1.511 . S
C679 H693 0.961 . S
C679 H694 0.961 . S
C679 H695 0.961 . S
C680 C681 1.370 . S
C680 C682 1.363 . S
C680 H696 0.931 . S
C681 C680 1.370 . S
C681 C685 1.408 . S
C682 C680 1.363 . S
C682 C683 1.370 . S
C682 C686 1.524 1_455 S
C683 C675 1.503 1_455 S
C683 C682 1.370 . S
C683 C684 1.403 . S
C684 C683 1.403 . S
C684 C685 1.404 . S
C684 C687 1.539 . S
C685 C681 1.408 . S
C685 C684 1.404 . S
C685 H697 0.930 . S
C686 C682 1.524 1_655 S
C686 H698 0.956 . S
C686 H699 0.961 . S
C686 H700 0.961 . S
C687 C684 1.539 . S
C687 H701 0.958 . S
C687 H702 0.961 . S
C687 H703 0.960 . S
H688 C672 0.931 . S
H689 C677 0.929 . S
H690 C678 0.960 . S
H691 C678 0.962 . S
H692 C678 0.960 . S
H693 C679 0.961 . S
H694 C679 0.961 . S
H695 C679 0.961 . S
H696 C680 0.931 . S
H697 C685 0.930 . S
H698 C686 0.956 . S
H699 C686 0.961 . S
H700 C686 0.961 . S
H701 C687 0.958 . S
H702 C687 0.961 . S
H703 C687 0.960 . S
C704 C705 1.391 . S
C704 C706 1.394 . S
C704 H720 0.931 . S
C705 C704 1.391 . S
C705 C709 1.376 . S
C706 C704 1.394 . S
C706 C707 1.369 . S
C706 C710 1.531 . S
C707 C706 1.369 . S
C707 C708 1.410 . S
C707 C715 1.503 . S
C708 C707 1.410 . S
C708 C709 1.392 . S
C708 C711 1.511 . S
C709 C705 1.376 . S
C709 C708 1.392 . S
C709 H721 0.929 . S
C710 C706 1.531 . S
C710 H722 0.960 . S
C710 H723 0.962 . S
C710 H724 0.960 . S
C711 C708 1.511 . S
C711 H725 0.961 . S
C711 H726 0.961 . S
C711 H727 0.961 . S
C712 C713 1.370 . S
C712 C714 1.363 . S
C712 H728 0.931 . S
C713 C712 1.370 . S
C713 C717 1.408 . S
C714 C712 1.363 . S
C714 C715 1.370 . S
C714 C718 1.524 . S
C715 C707 1.503 . S
C715 C714 1.370 . S
C715 C716 1.403 . S
C716 C715 1.403 . S
C716 C717 1.404 . S
C716 C719 1.539 . S
C717 C713 1.408 . S
C717 C716 1.404 . S
C717 H729 0.930 . S
C718 C714 1.524 . S
C718 H730 0.956 . S
C718 H731 0.961 . S
C718 H732 0.961 . S
C719 C716 1.539 . S
C719 H733 0.958 . S
C719 H734 0.961 . S
C719 H735 0.960 . S
H720 C704 0.931 . S
H721 C709 0.929 . S
H722 C710 0.960 . S
H723 C710 0.962 . S
H724 C710 0.960 . S
H725 C711 0.961 . S
H726 C711 0.961 . S
H727 C711 0.961 . S
H728 C712 0.931 . S
H729 C717 0.930 . S
H730 C718 0.956 . S
H731 C718 0.961 . S
H732 C718 0.961 . S
H733 C719 0.958 . S
H734 C719 0.961 . S
H735 C719 0.960 . S
C736 C737 1.391 . S
C736 C738 1.394 . S
C736 H752 0.931 . S
C737 C736 1.391 . S
C737 C741 1.376 . S
C738 C736 1.394 . S
C738 C739 1.369 . S
C738 C742 1.531 1_545 S
C739 C738 1.369 . S
C739 C740 1.410 . S
C739 C747 1.503 1_545 S
C740 C739 1.410 . S
C740 C741 1.392 . S
C740 C743 1.511 . S
C741 C737 1.376 . S
C741 C740 1.392 . S
C741 H753 0.929 . S
C742 C738 1.531 1_565 S
C742 H754 0.960 . S
C742 H755 0.962 . S
C742 H756 0.960 . S
C743 C740 1.511 . S
C743 H757 0.961 . S
C743 H758 0.961 . S
C743 H759 0.961 . S
C744 C745 1.370 . S
C744 C746 1.363 . S
C744 H760 0.931 . S
C745 C744 1.370 . S
C745 C749 1.408 . S
C746 C744 1.363 . S
C746 C747 1.370 . S
C746 C750 1.524 1_565 S
C747 C739 1.503 1_565 S
C747 C746 1.370 . S
C747 C748 1.403 . S
C748 C747 1.403 . S
C748 C749 1.404 . S
C748 C751 1.539 . S
C749 C745 1.408 . S
C749 C748 1.404 . S
C749 H761 0.930 . S
C750 C746 1.524 1_545 S
C750 H762 0.956 . S
C750 H763 0.961 . S
C750 H764 0.961 . S
C751 C748 1.539 . S
C751 H765 0.958 . S
C751 H766 0.961 . S
C751 H767 0.960 . S
H752 C736 0.931 . S
H753 C741 0.929 . S
H754 C742 0.960 . S
H755 C742 0.962 . S
H756 C742 0.960 . S
H757 C743 0.961 . S
H758 C743 0.961 . S
H759 C743 0.961 . S
H760 C744 0.931 . S
H761 C749 0.930 . S
H762 C750 0.956 . S
H763 C750 0.961 . S
H764 C750 0.961 . S
H765 C751 0.958 . S
H766 C751 0.961 . S
H767 C751 0.960 . S
C768 C769 1.391 . S
C768 C770 1.394 . S
C768 H784 0.931 . S
C769 C768 1.391 . S
C769 C773 1.376 . S
C770 C768 1.394 . S
C770 C771 1.369 . S
C770 C774 1.531 1_655 S
C771 C770 1.369 . S
C771 C772 1.410 . S
C771 C779 1.503 1_665 S
C772 C771 1.410 . S
C772 C773 1.392 . S
C772 C775 1.511 1_565 S
C773 C769 1.376 . S
C773 C772 1.392 . S
C773 H785 0.929 . S
C774 C770 1.531 1_455 S
C774 H786 0.960 . S
C774 H787 0.962 . S
C774 H788 0.960 . S
C775 C772 1.511 1_545 S
C775 H789 0.961 . S
C775 H790 0.961 . S
C775 H791 0.961 . S
C776 C777 1.370 . S
C776 C778 1.363 . S
C776 H792 0.931 . S
C777 C776 1.370 . S
C777 C781 1.408 . S
C778 C776 1.363 . S
C778 C779 1.370 . S
C778 C782 1.524 1_455 S
C779 C771 1.503 1_445 S
C779 C778 1.370 . S
C779 C780 1.403 1_545 S
C780 C779 1.403 1_565 S
C780 C781 1.404 1_565 S
C780 C783 1.539 . S
C781 C777 1.408 . S
C781 C780 1.404 1_545 S
C781 H793 0.930 . S
C782 C778 1.524 1_655 S
C782 H794 0.956 . S
C782 H795 0.961 . S
C782 H796 0.961 . S
C783 C780 1.539 . S
C783 H797 0.958 . S
C783 H798 0.961 . S
C783 H799 0.960 . S
H784 C768 0.931 . S
H785 C773 0.929 . S
H786 C774 0.960 . S
H787 C774 0.962 . S
H788 C774 0.960 . S
H789 C775 0.961 . S
H790 C775 0.961 . S
H791 C775 0.961 . S
H792 C776 0.931 . S
H793 C781 0.930 . S
H794 C782 0.956 . S
H795 C782 0.961 . S
H796 C782 0.961 . S
H797 C783 0.958 . S
H798 C783 0.961 . S
H799 C783 0.960 . S
C289 C14 1.125 . S
C297 C182 1.134 . S
C321 C50 1.110 . S
C329 C230 1.090 . S
C353 C74 1.161 . S
C361 C266 1.162 . S
C385 C110 1.157 . S
C393 C146 1.198 . S
C417 C254 1.212 . S
C425 C2 1.169 . S
C449 C158 1.113 . S
C457 C38 1.126 . S
C481 C86 1.062 . S
C489 C194 1.087 . S
C513 C218 1.105 . S
C521 C122 1.134 . S
C545 C4 1.567 . S
C553 C219 1.564 . S
C577 C255 1.561 . S
C585 C40 1.573 . S
C609 C75 1.574 . S
C617 C148 1.575 . S
C641 C111 1.563 . S
C649 C184 1.573 . S
C673 C220 1.573 . S
C681 C3 1.571 . S
C705 C256 1.569 . S
C713 C39 1.566 . S
C737 C76 1.569 . S
C745 C147 1.564 . S
C769 C112 1.568 . S
C777 C183 1.564 . S
