# Generated by pormake.
# Topology sxa, (6)-cn, num edge types: 1
# Building blocks:
#     Node 0, Type 0, BuildingBlock: BETDEL_clean_sbu_0, # of connection points: 6
#     Node 1, Type 0, BuildingBlock: BETDEL_clean_sbu_0, # of connection points: 6
#     Node 2, Type 0, BuildingBlock: BETDEL_clean_sbu_0, # of connection points: 6
#     Node 3, Type 0, BuildingBlock: BETDEL_clean_sbu_0, # of connection points: 6
#     Edge 4, Type (0, 0), BuildingBlock: XUDNAN_clean_linker_2, # of connection points: 2
#     Edge 5, Type (0, 0), BuildingBlock: XUDNAN_clean_linker_2, # of connection points: 2
#     Edge 6, Type (0, 0), BuildingBlock: XUDNAN_clean_linker_2, # of connection points: 2
#     Edge 7, Type (0, 0), BuildingBlock: XUDNAN_clean_linker_2, # of connection points: 2
#     Edge 8, Type (0, 0), BuildingBlock: XUDNAN_clean_linker_2, # of connection points: 2
#     Edge 9, Type (0, 0), BuildingBlock: XUDNAN_clean_linker_2, # of connection points: 2
#     Edge 10, Type (0, 0), BuildingBlock: XUDNAN_clean_linker_2, # of connection points: 2
#     Edge 11, Type (0, 0), BuildingBlock: XUDNAN_clean_linker_2, # of connection points: 2
#     Edge 12, Type (0, 0), BuildingBlock: XUDNAN_clean_linker_2, # of connection points: 2
#     Edge 13, Type (0, 0), BuildingBlock: XUDNAN_clean_linker_2, # of connection points: 2
#     Edge 14, Type (0, 0), BuildingBlock: XUDNAN_clean_linker_2, # of connection points: 2
#     Edge 15, Type (0, 0), BuildingBlock: XUDNAN_clean_linker_2, # of connection points: 2
# Relax obj value: 0.078
# Max RMSD: 0.219
# Mean RMSD: 0.219
data_MOF--net-sxa--node1-BETDEL_clean_sbu_0--edge1-XUDNAN_clean_linker_2
_symmetry_space_group_name_H-M    P1
_symmetry_Int_Tables_number       1
_symmetry_cell_setting            triclinic
loop_
_symmetry_equiv_pos_as_xyz
'x, y, z'
_cell_length_a     28.728131
_cell_length_b     27.77945
_cell_length_c     12.75
_cell_angle_alpha  91.476332
_cell_angle_beta   90.166133
_cell_angle_gamma 90.192628
loop_
_atom_site_label
_atom_site_type_symbol
_atom_site_fract_x
_atom_site_fract_y
_atom_site_fract_z
_atom_type_partial_charge
Dy0 Dy 0.04533 0.77551 0.06303 0.0
C1 C 0.90237 0.76308 0.38355 0.0
C2 C 0.11202 0.78358 0.91494 0.0
Dy3 Dy 0.97973 0.7757 0.26082 0.0
O4 O 0.08185 0.7486 0.91892 0.0
O5 O 0.10009 0.81731 0.98215 0.0
O6 O 0.06918 0.70386 0.11491 0.0
O7 O 0.99994 0.72151 0.13741 0.0
C8 C 0.02908 0.68772 0.14415 0.0
C9 C 1.00037 0.8665 0.19931 0.0
O10 O 0.05083 0.76824 0.3388 0.0
O11 O 0.09176 0.79724 0.19584 0.0
O12 O 0.90719 0.79487 0.31185 0.0
O13 O 0.94088 0.73823 0.39106 0.0
O14 O 0.97697 0.85785 0.28362 0.0
O15 O 1.01193 0.82662 0.1613 0.0
O16 O 0.97802 0.79229 0.98578 0.0
O17 O 0.93668 0.75655 0.11963 0.0
C18 C 0.08978 0.78505 0.29546 0.0
C19 C 0.93884 0.776 0.02598 0.0
Dy20 Dy 0.56314 0.28611 0.07636 0.0
C21 C 0.41521 0.26585 0.38791 0.0
C22 C 0.63609 0.32874 0.98191 0.0
Dy23 Dy 0.48895 0.27602 0.25261 0.0
O24 O 0.61353 0.29156 0.94337 0.0
O25 O 0.61646 0.34377 0.06771 0.0
O26 O 0.57558 0.21021 0.0289 0.0
O27 O 0.52667 0.22526 0.14832 0.0
C28 C 0.54529 0.19192 0.09206 0.0
C29 C 0.50103 0.36531 0.17206 0.0
O30 O 0.55453 0.26043 0.34665 0.0
O31 O 0.60864 0.27702 0.21594 0.0
O32 O 0.45032 0.29511 0.40164 0.0
O33 O 0.4224 0.23931 0.30403 0.0
O34 O 0.46165 0.34985 0.2065 0.0
O35 O 0.531 0.33372 0.18928 0.0
O36 O 0.4965 0.29909 0.99073 0.0
O37 O 0.45491 0.25171 0.10399 0.0
C38 C 0.59827 0.26621 0.31344 0.0
C39 C 0.45846 0.27512 0.0155 0.0
Dy40 Dy 0.06178 0.26911 0.93139 0.0
C41 C 0.90964 0.2486 0.64398 0.0
C42 C 0.13332 0.24897 0.06119 0.0
Dy43 Dy 0.99327 0.25743 0.75094 0.0
O44 O 0.10232 0.28223 0.0787 0.0
O45 O 0.12084 0.22298 0.97951 0.0
O46 O 0.07608 0.34592 0.94307 0.0
O47 O 0.02651 0.32156 0.82904 0.0
C48 C 0.04569 0.35841 0.87404 0.0
C49 C 0.0226 0.17605 0.84439 0.0
O50 O 0.0576 0.27008 0.6541 0.0
O51 O 0.10783 0.25577 0.79229 0.0
O52 O 0.92373 0.22287 0.72081 0.0
O53 O 0.94219 0.27966 0.62218 0.0
O54 O 1.01668 0.17843 0.74361 0.0
O55 O 1.01205 0.21566 0.8855 0.0
O56 O 0.99728 0.27007 0.02602 0.0
O57 O 0.95359 0.29276 0.88191 0.0
C58 C 0.10018 0.2637 0.6921 0.0
C59 C 0.95892 0.28716 0.9841 0.0
Dy60 Dy 0.54558 0.76966 0.93652 0.0
C61 C 0.40298 0.77557 0.61404 0.0
C62 C 0.61212 0.76485 0.08657 0.0
Dy63 Dy 0.47993 0.76445 0.73913 0.0
O64 O 0.58233 0.79976 0.07823 0.0
O65 O 0.59988 0.72972 0.02282 0.0
O66 O 0.56894 0.84085 0.87886 0.0
O67 O 0.49993 0.82145 0.85703 0.0
C68 C 0.5287 0.85558 0.84734 0.0
C69 C 0.4993 0.6751 0.81079 0.0
O70 O 0.55081 0.77088 0.66031 0.0
O71 O 0.59235 0.74601 0.80635 0.0
O72 O 0.40745 0.74456 0.68745 0.0
O73 O 0.44167 0.80023 0.60583 0.0
O74 O 0.47586 0.68193 0.72546 0.0
O75 O 0.51198 0.71564 0.84424 0.0
O76 O 0.47825 0.75463 0.01557 0.0
O77 O 0.4367 0.78655 0.87731 0.0
C78 C 0.59005 0.75588 0.70542 0.0
C79 C 0.43901 0.76971 0.97338 0.0
H80 H 0.1008 0.4332 0.91463 0.0
H81 H 0.95629 0.39715 0.85472 0.0
H82 H 0.9334 0.47913 0.92022 0.0
H83 H 0.07965 0.48817 0.15904 0.0
H84 H 0.12614 0.53138 0.14736 0.0
H85 H 0.12999 0.47375 0.08034 0.0
H86 H 0.14156 0.51614 0.90304 0.0
H87 H 0.1382 0.57394 0.96963 0.0
H88 H 0.0995 0.55979 0.86153 0.0
H89 H 0.9287 0.56731 0.0073 0.0
H90 H 0.94279 0.64731 0.0942 0.0
H91 H 0.08998 0.61492 0.11349 0.0
C92 C 0.06434 0.44302 0.91116 0.0
C93 C 0.0305 0.40933 0.87626 0.0
C94 C 0.98302 0.42303 0.87704 0.0
C95 C 0.96977 0.46924 0.91615 0.0
C96 C 1.00438 0.50058 0.95578 0.0
C97 C 0.05072 0.48747 0.95311 0.0
C98 C 0.08165 0.52424 0.00785 0.0
C99 C 0.10576 0.50308 0.10429 0.0
C100 C 0.11731 0.54477 0.93094 0.0
C101 C 0.04601 0.56119 0.04072 0.0
C102 C 1.00148 0.54761 0.01039 0.0
C103 C 0.9635 0.57771 0.0317 0.0
C104 C 0.97172 0.62289 0.08233 0.0
C105 C 1.01749 0.6372 0.11219 0.0
C106 C 0.05452 0.60504 0.09304 0.0
H107 H 0.46898 0.45742 0.20855 0.0
H108 H 0.54551 0.37029 0.98193 0.0
H109 H 0.55663 0.44046 0.87224 0.0
H110 H 0.4101 0.53092 0.021 0.0
H111 H 0.41412 0.58545 0.10033 0.0
H112 H 0.41252 0.52783 0.16194 0.0
H113 H 0.48971 0.54825 0.25886 0.0
H114 H 0.49164 0.60592 0.19735 0.0
H115 H 0.54012 0.56517 0.18426 0.0
H116 H 0.55539 0.51869 0.7802 0.0
H117 H 0.54463 0.60123 0.71595 0.0
H118 H 0.47433 0.64177 0.00489 0.0
C119 C 0.48822 0.4533 0.13598 0.0
C120 C 0.50733 0.40819 0.10552 0.0
C121 C 0.53194 0.4043 0.00962 0.0
C122 C 0.53803 0.44414 0.9457 0.0
C123 C 0.51952 0.48818 0.97865 0.0
C124 C 0.49528 0.49321 0.07171 0.0
C125 C 0.47926 0.54494 0.0886 0.0
C126 C 0.42583 0.54743 0.09322 0.0
C127 C 0.50152 0.56741 0.18818 0.0
C128 C 0.49796 0.56798 0.99 0.0
C129 C 0.52068 0.53424 0.92737 0.0
C130 C 0.53834 0.54563 0.82922 0.0
C131 C 0.5322 0.59252 0.79336 0.0
C132 C 0.5096 0.62784 0.85615 0.0
C133 C 0.49274 0.61561 0.95642 0.0
H134 H 0.58621 0.93278 0.84219 0.0
H135 H 0.44515 0.89245 0.92205 0.0
H136 H 0.43264 0.97377 1.00236 0.0
H137 H 0.61144 0.99831 0.07494 0.0
H138 H 0.64593 0.04317 0.011 0.0
H139 H 0.64159 0.98323 0.95475 0.0
H140 H 0.61194 1.0179 0.77962 0.0
H141 H 0.61663 0.07798 0.83509 0.0
H142 H 0.56201 0.05702 0.78063 0.0
H143 H 0.4389 0.06204 0.08444 0.0
H144 H 0.46133 0.14581 0.14037 0.0
H145 H 0.59843 0.12235 0.00829 0.0
C146 C 0.55224 0.94137 0.87412 0.0
C147 C 0.51655 0.90643 0.87426 0.0
C148 C 0.47284 0.91891 0.91892 0.0
C149 C 0.46561 0.96491 0.96594 0.0
C150 C 0.50238 0.99805 0.96758 0.0
C151 C 0.54462 0.98662 0.92142 0.0
C152 C 0.5792 0.02734 0.93379 0.0
C153 C 0.62205 1.01206 0.99739 0.0
C154 C 0.59325 0.0462 0.82591 0.0
C155 C 0.5503 0.06363 0.99478 0.0
C156 C 0.506 0.04669 0.01435 0.0
C157 C 0.47363 0.07534 0.06937 0.0
C158 C 0.48673 0.12265 0.10214 0.0
C159 C 0.53181 0.14042 0.07988 0.0
C160 C 0.56379 0.10984 0.0274 0.0
H161 H 1.00808 0.8954 0.99304 0.0
H162 H 1.01524 0.94657 0.31699 0.0
H163 H 0.0274 0.02944 0.25821 0.0
H164 H 0.0929 0.98113 0.88345 0.0
H165 H 0.05973 0.99053 0.76559 0.0
H166 H 0.05617 0.93367 0.83027 0.0
H167 H 0.96658 0.94225 0.84192 0.0
H168 H 0.96991 0.99911 0.77749 0.0
H169 H 0.94207 0.9955 0.90353 0.0
H170 H 0.03576 0.10593 0.16917 0.0
H171 H 0.03579 0.17498 0.05333 0.0
H172 H 0.01921 0.07874 0.78185 0.0
C173 C 1.01329 0.92409 0.05105 0.0
C174 C 1.01164 0.91471 0.15989 0.0
C175 C 1.01692 0.95309 0.23366 0.0
C176 C 0.02389 1.00022 0.20094 0.0
C177 C 0.02481 1.00866 0.09377 0.0
C178 C 0.01936 0.97199 0.01939 0.0
C179 C 0.01831 0.99238 0.90937 0.0
C180 C 0.05922 0.97326 0.84327 0.0
C181 C 0.97143 0.98166 0.85489 0.0
C182 C 0.02397 0.04598 0.93422 0.0
C183 C 0.02808 0.05406 0.04128 0.0
C184 C 0.03282 0.1001 0.08516 0.0
C185 C 0.03285 0.13916 0.01831 0.0
C186 C 0.02781 0.1324 0.9082 0.0
C187 C 0.02376 0.085 0.86541 0.0
H188 H 0.32176 0.72289 0.62303 0.0
H189 H 0.38294 0.84852 0.48152 0.0
H190 H 0.30716 0.86664 0.39913 0.0
H191 H 0.24949 0.68823 0.39971 0.0
H192 H 0.2017 0.66773 0.4785 0.0
H193 H 0.26033 0.6653 0.52849 0.0
H194 H 0.23546 0.71537 0.69192 0.0
H195 H 0.17673 0.71878 0.64256 0.0
H196 H 0.20839 0.77319 0.67625 0.0
H197 H 0.226 0.87258 0.33616 0.0
H198 H 0.14585 0.86132 0.274 0.0
H199 H 0.1346 0.72934 0.44751 0.0
C200 C 0.3192 0.75412 0.57424 0.0
C201 C 0.35837 0.78445 0.55856 0.0
C202 C 0.3536 0.82483 0.49432 0.0
C203 C 0.31058 0.83552 0.44786 0.0
C204 C 0.27259 0.80539 0.46603 0.0
C205 C 0.27647 0.76508 0.52625 0.0
C206 C 0.23036 0.73773 0.52906 0.0
C207 C 0.2358 0.68672 0.48105 0.0
C208 C 0.2116 0.73619 0.64164 0.0
C209 C 0.19989 0.76899 0.46056 0.0
C210 C 0.22524 0.8081 0.42674 0.0
C211 C 0.20587 0.84212 0.36196 0.0
C212 C 0.16006 0.83538 0.32738 0.0
C213 C 0.1335 0.79464 0.35609 0.0
C214 C 0.15346 0.76137 0.42583 0.0
H215 H 0.14863 0.20681 0.54521 0.0
H216 H 0.14972 0.34467 0.71212 0.0
H217 H 0.22993 0.35947 0.65263 0.0
H218 H 0.26425 0.17518 0.5997 0.0
H219 H 0.27746 0.14821 0.47322 0.0
H220 H 0.21831 0.14915 0.51975 0.0
H221 H 0.19187 0.19271 0.35214 0.0
H222 H 0.25086 0.19122 0.30434 0.0
H223 H 0.22055 0.24774 0.31666 0.0
H224 H 0.31228 0.35566 0.59527 0.0
H225 H 0.38954 0.33931 0.51932 0.0
H226 H 0.33694 0.20649 0.37602 0.0
C227 C 0.16519 0.24091 0.56513 0.0
C228 C 0.14242 0.27537 0.63089 0.0
C229 C 0.16601 0.31855 0.65947 0.0
C230 C 0.21178 0.32705 0.62689 0.0
C231 C 0.23379 0.29216 0.56456 0.0
C232 C 0.21114 0.25043 0.53146 0.0
C233 C 0.24393 0.21871 0.46618 0.0
C234 C 0.25141 0.16991 0.51781 0.0
C235 C 0.22571 0.2122 0.35313 0.0
C236 C 0.28841 0.24878 0.46974 0.0
C237 C 0.28165 0.29072 0.52813 0.0
C238 C 0.31782 0.32327 0.54804 0.0
C239 C 0.36181 0.31341 0.50526 0.0
C240 C 0.36957 0.27156 0.44204 0.0
C241 C 0.3322 0.23874 0.42429 0.0
H242 H 0.8637 0.30733 0.50105 0.0
H243 H 0.84711 0.1789 0.68401 0.0
H244 H 0.76491 0.17313 0.63114 0.0
H245 H 0.74839 0.35702 0.54481 0.0
H246 H 0.74121 0.37686 0.41222 0.0
H247 H 0.79863 0.37307 0.46866 0.0
H248 H 0.82356 0.31929 0.31308 0.0
H249 H 0.76606 0.31905 0.25626 0.0
H250 H 0.79407 0.26306 0.28685 0.0
H251 H 0.68228 0.18371 0.56826 0.0
H252 H 0.6095 0.20098 0.47094 0.0
H253 H 0.68025 0.31668 0.31335 0.0
C254 C 0.84277 0.27792 0.52933 0.0
C255 C 0.86181 0.24414 0.59879 0.0
C256 C 0.83331 0.20576 0.63241 0.0
C257 C 0.78635 0.20217 0.60303 0.0
C258 C 0.76808 0.23663 0.53749 0.0
C259 C 0.79558 0.27314 0.49879 0.0
C260 C 0.76761 0.30339 0.42359 0.0
C261 C 0.76374 0.35569 0.46483 0.0
C262 C 0.78906 0.30107 0.31331 0.0
C263 C 0.72052 0.278 0.42625 0.0
C264 C 0.72123 0.24036 0.49461 0.0
C265 C 0.68138 0.21282 0.51352 0.0
C266 C 0.64002 0.22311 0.45877 0.0
C267 C 0.63903 0.25999 0.38449 0.0
C268 C 0.67987 0.28803 0.3694 0.0
H269 H 0.82128 0.81558 0.37395 0.0
H270 H 0.88226 0.69065 0.51771 0.0
H271 H 0.80682 0.67321 0.60206 0.0
H272 H 0.75029 0.85163 0.59745 0.0
H273 H 0.70225 0.87166 0.51861 0.0
H274 H 0.76066 0.8738 0.46789 0.0
H275 H 0.7348 0.82272 0.30616 0.0
H276 H 0.67625 0.81981 0.35618 0.0
H277 H 0.70726 0.76512 0.32373 0.0
H278 H 0.72595 0.66826 0.66814 0.0
H279 H 0.64611 0.68018 0.73102 0.0
H280 H 0.63479 0.81019 0.55112 0.0
C281 C 0.81875 0.78462 0.42356 0.0
C282 C 0.8578 0.75429 0.43929 0.0
C283 C 0.85303 0.7143 0.50469 0.0
C284 C 0.8102 0.70403 0.5524 0.0
C285 C 0.77234 0.73416 0.53425 0.0
C286 C 0.7762 0.77404 0.47267 0.0
C287 C 0.73024 0.80139 0.46965 0.0
C288 C 0.73623 0.85266 0.5162 0.0
C289 C 0.71096 0.80229 0.35724 0.0
C290 C 0.69986 0.7706 0.53941 0.0
C291 C 0.72513 0.73179 0.57446 0.0
C292 C 0.70585 0.69843 0.64114 0.0
C293 C 0.66023 0.7055 0.67611 0.0
C294 C 0.63369 0.7458 0.64548 0.0
C295 C 0.65358 0.77842 0.57413 0.0
H296 H 0.37675 0.83756 0.02627 0.0
H297 H 0.39987 0.68382 0.00921 0.0
H298 H 0.31565 0.67001 0.98435 0.0
H299 H 0.25704 0.83136 0.15442 0.0
H300 H 0.23748 0.88187 0.08027 0.0
H301 H 0.29751 0.87813 0.1207 0.0
H302 H 0.32276 0.88653 0.92671 0.0
H303 H 0.26307 0.88817 0.88414 0.0
H304 H 0.30186 0.84337 0.82928 0.0
H305 H 0.23278 0.67467 0.92245 0.0
H306 H 0.15192 0.69563 0.87737 0.0
H307 H 0.18388 0.84697 0.93322 0.0
C308 C 0.36346 0.80098 0.02541 0.0
C309 C 0.39416 0.76164 0.02201 0.0
C310 C 0.37642 0.71418 0.01566 0.0
C311 C 0.32878 0.70613 0.99896 0.0
C312 C 0.29984 0.74607 0.99161 0.0
C313 C 0.31617 0.79249 0.00884 0.0
C314 C 0.27876 0.82933 0.98961 0.0
C315 C 0.26696 0.85681 0.09232 0.0
C316 C 0.2925 0.86386 0.90228 0.0
C317 C 0.23943 0.79657 0.95436 0.0
C318 C 0.25225 0.74871 0.95566 0.0
C319 C 0.22204 0.71198 0.92311 0.0
C320 C 0.17646 0.72436 0.89546 0.0
C321 C 0.16174 0.77303 0.90123 0.0
C322 C 0.19431 0.80957 0.92668 0.0
H323 H 0.20558 0.18877 0.02044 0.0
H324 H 0.1722 0.3337 0.13033 0.0
H325 H 0.25219 0.35989 0.09096 0.0
H326 H 0.32312 0.18964 0.12868 0.0
H327 H 0.34522 0.15303 0.02122 0.0
H328 H 0.28544 0.14724 0.06046 0.0
H329 H 0.26017 0.16411 0.86833 0.0
H330 H 0.31998 0.17224 0.83023 0.0
H331 H 0.27829 0.21937 0.80921 0.0
H332 H 0.33365 0.37164 0.02543 0.0
H333 H 0.41819 0.36194 0.99911 0.0
H334 H 0.39835 0.20933 0.9378 0.0
C335 C 0.2156 0.2256 0.03961 0.0
C336 C 0.18285 0.25915 0.07821 0.0
C337 C 0.19697 0.30719 0.10164 0.0
C338 C 0.24198 0.32271 0.07725 0.0
C339 C 0.27229 0.28954 0.03103 0.0
C340 C 0.26033 0.2416 0.01653 0.0
C341 C 0.30037 0.21243 0.97307 0.0
C342 C 0.31441 0.1733 0.05043 0.0
C343 C 0.28896 0.19076 0.86376 0.0
C344 C 0.3369 0.25137 0.96599 0.0
C345 C 0.31961 0.29593 0.99651 0.0
C346 C 0.34761 0.33699 1.00117 0.0
C347 C 0.39541 0.33139 0.98363 0.0
C348 C 0.41417 0.28495 0.96548 0.0
C349 C 0.38433 0.24529 0.94852 0.0
H350 H 0.69771 0.2596 0.92793 0.0
H351 H 0.68569 0.40949 0.02706 0.0
H352 H 0.7694 0.41119 0.07329 0.0
H353 H 0.76904 0.22489 0.13247 0.0
H354 H 0.80572 0.18444 0.05739 0.0
H355 H 0.7463 0.19408 0.01769 0.0
H356 H 0.76952 0.22157 0.83462 0.0
H357 H 0.82881 0.20757 0.86703 0.0
H358 H 0.8143 0.26666 0.82151 0.0
H359 H 0.8541 0.39664 0.10229 0.0
H360 H 0.93576 0.36943 0.08883 0.0
H361 H 0.88861 0.22652 0.99719 0.0
C362 C 0.71315 0.29335 0.95502 0.0
C363 C 0.68605 0.33492 0.97115 0.0
C364 C 0.70673 0.37785 0.01119 0.0
C365 C 0.75378 0.37879 0.03973 0.0
C366 C 0.77891 0.33623 0.02923 0.0
C367 C 0.75946 0.29452 0.98676 0.0
C368 C 0.79372 0.25364 0.98384 0.0
C369 C 0.77776 0.21184 0.05198 0.0
C370 C 0.80212 0.23639 0.86997 0.0
C371 C 0.83584 0.27899 0.03019 0.0
C372 C 0.82661 0.32666 0.05618 0.0
C373 C 0.86172 0.35912 0.08532 0.0
C374 C 0.90787 0.34328 0.07959 0.0
C375 C 0.91764 0.2956 0.04619 0.0
C376 C 0.88136 0.26238 0.02842 0.0
H377 H 0.87515 0.70964 0.97146 0.0
H378 H 0.90132 0.86296 0.99393 0.0
H379 H 0.81725 0.87769 0.01922 0.0
H380 H 0.75517 0.71727 0.8463 0.0
H381 H 0.73539 0.66667 0.92008 0.0
H382 H 0.79522 0.67013 0.87874 0.0
H383 H 0.82149 0.66106 0.07224 0.0
H384 H 0.76204 0.65969 0.11576 0.0
H385 H 0.80169 0.70411 0.17051 0.0
H386 H 0.73383 0.8736 0.0788 0.0
H387 H 0.65276 0.8529 0.12352 0.0
H388 H 0.68336 0.70145 0.06874 0.0
C389 C 0.86254 0.74639 0.9737 0.0
C390 C 0.89396 0.78529 0.97839 0.0
C391 C 0.87718 0.83297 0.98651 0.0
C392 C 0.82969 0.84151 0.00344 0.0
C393 C 0.80005 0.80186 0.0097 0.0
C394 C 0.81556 0.75534 0.99133 0.0
C395 C 0.77783 0.71872 0.01074 0.0
C396 C 0.76511 0.69158 0.9079 0.0
C397 C 0.79165 0.68387 0.09743 0.0
C398 C 0.73918 0.75167 0.04703 0.0
C399 C 0.75254 0.79947 0.04595 0.0
C400 C 0.72273 0.83633 0.0783 0.0
C401 C 0.67705 0.82411 0.10571 0.0
C402 C 0.6619 0.77547 0.10027 0.0
C403 C 0.6941 0.73884 0.07511 0.0
loop_
_geom_bond_atom_site_label_1
_geom_bond_atom_site_label_2
_geom_bond_distance
_geom_bond_site_symmetry_2
_ccdc_geom_bond_type
Dy0 O4 2.398 1_554 S
Dy0 O5 2.491 . S
Dy0 O6 2.403 . S
Dy0 O7 2.664 1_455 S
Dy0 O11 2.326 . S
Dy0 O15 2.310 . S
Dy0 O16 2.351 1_455 S
C1 O12 1.185 . S
C1 O13 1.355 . S
C2 O4 1.185 . S
C2 O5 1.355 1_556 S
Dy3 O7 2.310 . S
Dy3 O10 2.351 1_655 S
Dy3 O12 2.398 . S
Dy3 O13 2.491 . S
Dy3 O14 2.403 . S
Dy3 O15 2.664 1_655 S
Dy3 O17 2.326 . S
O4 Dy0 2.398 1_556 S
O4 C2 1.185 . S
O5 Dy0 2.491 . S
O5 C2 1.355 1_554 S
O6 Dy0 2.403 . S
O6 C8 1.254 . S
O7 Dy0 2.664 1_655 S
O7 Dy3 2.310 . S
O7 C8 1.268 1_655 S
C8 O6 1.254 . S
C8 O7 1.268 1_455 S
C9 O14 1.254 1_455 S
C9 O15 1.268 . S
O10 Dy3 2.351 1_455 S
O10 C18 1.249 . S
O11 Dy0 2.326 . S
O11 C18 1.267 . S
O12 C1 1.185 . S
O12 Dy3 2.398 . S
O13 C1 1.355 . S
O13 Dy3 2.491 . S
O14 Dy3 2.403 . S
O14 C9 1.254 1_655 S
O15 Dy0 2.310 . S
O15 Dy3 2.664 1_455 S
O15 C9 1.268 . S
O16 Dy0 2.351 1_655 S
O16 C19 1.249 . S
O17 Dy3 2.326 . S
O17 C19 1.267 . S
C18 O10 1.249 . S
C18 O11 1.267 . S
C19 O16 1.249 . S
C19 O17 1.267 . S
Dy20 O24 2.398 1_554 S
Dy20 O25 2.491 . S
Dy20 O26 2.403 . S
Dy20 O27 2.664 . S
Dy20 O31 2.326 . S
Dy20 O35 2.310 . S
Dy20 O36 2.351 . S
C21 O32 1.185 . S
C21 O33 1.355 . S
C22 O24 1.185 . S
C22 O25 1.355 1_556 S
Dy23 O27 2.310 . S
Dy23 O30 2.351 . S
Dy23 O32 2.398 . S
Dy23 O33 2.491 . S
Dy23 O34 2.403 . S
Dy23 O35 2.664 . S
Dy23 O37 2.326 . S
O24 Dy20 2.398 1_556 S
O24 C22 1.185 . S
O25 Dy20 2.491 . S
O25 C22 1.355 1_554 S
O26 Dy20 2.403 . S
O26 C28 1.254 . S
O27 Dy20 2.664 . S
O27 Dy23 2.310 . S
O27 C28 1.268 . S
C28 O26 1.254 . S
C28 O27 1.268 . S
C29 O34 1.254 . S
C29 O35 1.268 . S
O30 Dy23 2.351 . S
O30 C38 1.249 . S
O31 Dy20 2.326 . S
O31 C38 1.267 . S
O32 C21 1.185 . S
O32 Dy23 2.398 . S
O33 C21 1.355 . S
O33 Dy23 2.491 . S
O34 Dy23 2.403 . S
O34 C29 1.254 . S
O35 Dy20 2.310 . S
O35 Dy23 2.664 . S
O35 C29 1.268 . S
O36 Dy20 2.351 . S
O36 C39 1.249 . S
O37 Dy23 2.326 . S
O37 C39 1.267 . S
C38 O30 1.249 . S
C38 O31 1.267 . S
C39 O36 1.249 . S
C39 O37 1.267 . S
Dy40 O44 2.398 1_556 S
Dy40 O45 2.491 . S
Dy40 O46 2.403 . S
Dy40 O47 2.664 1_455 S
Dy40 O51 2.326 . S
Dy40 O55 2.310 . S
Dy40 O56 2.351 1_455 S
C41 O52 1.185 . S
C41 O53 1.355 . S
C42 O44 1.185 . S
C42 O45 1.355 1_554 S
Dy43 O47 2.310 . S
Dy43 O50 2.351 1_655 S
Dy43 O52 2.398 . S
Dy43 O53 2.491 . S
Dy43 O54 2.403 . S
Dy43 O55 2.664 1_655 S
Dy43 O57 2.326 . S
O44 Dy40 2.398 1_554 S
O44 C42 1.185 . S
O45 Dy40 2.491 . S
O45 C42 1.355 1_556 S
O46 Dy40 2.403 . S
O46 C48 1.254 . S
O47 Dy40 2.664 1_655 S
O47 Dy43 2.310 . S
O47 C48 1.268 1_655 S
C48 O46 1.254 . S
C48 O47 1.268 1_455 S
C49 O54 1.254 1_455 S
C49 O55 1.268 . S
O50 Dy43 2.351 1_455 S
O50 C58 1.249 . S
O51 Dy40 2.326 . S
O51 C58 1.267 . S
O52 C41 1.185 . S
O52 Dy43 2.398 . S
O53 C41 1.355 . S
O53 Dy43 2.491 . S
O54 Dy43 2.403 . S
O54 C49 1.254 1_655 S
O55 Dy40 2.310 . S
O55 Dy43 2.664 1_455 S
O55 C49 1.268 . S
O56 Dy40 2.351 1_655 S
O56 C59 1.249 . S
O57 Dy43 2.326 . S
O57 C59 1.267 . S
C58 O50 1.249 . S
C58 O51 1.267 . S
C59 O56 1.249 . S
C59 O57 1.267 . S
Dy60 O64 2.398 1_556 S
Dy60 O65 2.491 . S
Dy60 O66 2.403 . S
Dy60 O67 2.664 . S
Dy60 O71 2.326 . S
Dy60 O75 2.310 . S
Dy60 O76 2.351 . S
C61 O72 1.185 . S
C61 O73 1.355 . S
C62 O64 1.185 . S
C62 O65 1.355 1_554 S
Dy63 O67 2.310 . S
Dy63 O70 2.351 . S
Dy63 O72 2.398 . S
Dy63 O73 2.491 . S
Dy63 O74 2.403 . S
Dy63 O75 2.664 . S
Dy63 O77 2.326 . S
O64 Dy60 2.398 1_554 S
O64 C62 1.185 . S
O65 Dy60 2.491 . S
O65 C62 1.355 1_556 S
O66 Dy60 2.403 . S
O66 C68 1.254 . S
O67 Dy60 2.664 . S
O67 Dy63 2.310 . S
O67 C68 1.268 . S
C68 O66 1.254 . S
C68 O67 1.268 . S
C69 O74 1.254 . S
C69 O75 1.268 . S
O70 Dy63 2.351 . S
O70 C78 1.249 . S
O71 Dy60 2.326 . S
O71 C78 1.267 . S
O72 C61 1.185 . S
O72 Dy63 2.398 . S
O73 C61 1.355 . S
O73 Dy63 2.491 . S
O74 Dy63 2.403 . S
O74 C69 1.254 . S
O75 Dy60 2.310 . S
O75 Dy63 2.664 . S
O75 C69 1.268 . S
O76 Dy60 2.351 . S
O76 C79 1.249 . S
O77 Dy63 2.326 . S
O77 C79 1.267 . S
C78 O70 1.249 . S
C78 O71 1.267 . S
C79 O76 1.249 . S
C79 O77 1.267 . S
H80 C92 0.930 1_554 S
H81 C94 0.930 . S
H82 C95 0.930 . S
H83 C99 0.959 . S
H84 C99 0.959 . S
H85 C99 0.961 . S
H86 C100 0.960 . S
H87 C100 0.961 . S
H88 C100 0.959 . S
H89 C103 0.929 . S
H90 C104 0.931 1_556 S
H91 C106 0.930 . S
C92 H80 0.930 1_556 S
C92 C93 1.399 1_655 S
C92 C97 1.399 . S
C93 C92 1.399 1_455 S
C93 C94 1.377 . S
C94 H81 0.930 . S
C94 C93 1.377 . S
C94 C95 1.388 . S
C95 H82 0.930 . S
C95 C94 1.388 . S
C95 C96 1.390 . S
C96 C95 1.390 . S
C96 C97 1.393 1_455 S
C96 C102 1.465 . S
C97 C92 1.399 . S
C97 C96 1.393 1_655 S
C97 C98 1.517 1_556 S
C98 C97 1.517 1_554 S
C98 C99 1.502 . S
C98 C100 1.561 1_655 S
C98 C101 1.526 . S
C99 H83 0.959 . S
C99 H84 0.959 . S
C99 H85 0.961 . S
C99 C98 1.502 . S
C100 H86 0.960 . S
C100 H87 0.961 . S
C100 H88 0.959 . S
C100 C98 1.561 1_455 S
C101 C98 1.526 . S
C101 C102 1.396 1_654 S
C101 C106 1.390 . S
C102 C96 1.465 . S
C102 C101 1.396 1_456 S
C102 C103 1.399 . S
C103 H89 0.929 . S
C103 C102 1.399 . S
C103 C104 1.385 1_556 S
C104 H90 0.931 1_554 S
C104 C103 1.385 1_554 S
C104 C105 1.389 1_455 S
C105 C104 1.389 1_655 S
C105 C106 1.387 . S
C106 H91 0.930 . S
C106 C101 1.390 . S
C106 C105 1.387 . S
H107 C119 0.930 . S
H108 C121 0.930 . S
H109 C122 0.930 . S
H110 C126 0.959 . S
H111 C126 0.959 . S
H112 C126 0.961 . S
H113 C127 0.960 . S
H114 C127 0.961 . S
H115 C127 0.959 . S
H116 C130 0.929 . S
H117 C131 0.931 . S
H118 C133 0.930 1_554 S
C119 H107 0.930 . S
C119 C120 1.399 . S
C119 C124 1.399 . S
C120 C119 1.399 . S
C120 C121 1.376 . S
C121 H108 0.930 . S
C121 C120 1.376 . S
C121 C122 1.388 1_554 S
C122 H109 0.930 . S
C122 C121 1.388 1_556 S
C122 C123 1.390 . S
C123 C122 1.390 . S
C123 C124 1.394 1_556 S
C123 C129 1.465 . S
C124 C119 1.399 . S
C124 C123 1.394 1_554 S
C124 C125 1.516 . S
C125 C124 1.516 . S
C125 C126 1.502 . S
C125 C127 1.561 . S
C125 C128 1.526 1_554 S
C126 H110 0.959 . S
C126 H111 0.959 . S
C126 H112 0.961 . S
C126 C125 1.502 . S
C127 H113 0.960 . S
C127 H114 0.961 . S
C127 H115 0.959 . S
C127 C125 1.561 . S
C128 C125 1.526 1_556 S
C128 C129 1.396 . S
C128 C133 1.390 . S
C129 C123 1.465 . S
C129 C128 1.396 . S
C129 C130 1.399 . S
C130 H116 0.929 . S
C130 C129 1.399 . S
C130 C131 1.385 . S
C131 H117 0.931 . S
C131 C130 1.385 . S
C131 C132 1.389 . S
C132 C131 1.389 . S
C132 C133 1.387 . S
C133 H118 0.930 1_556 S
C133 C128 1.390 . S
C133 C132 1.387 . S
H134 C146 0.930 . S
H135 C148 0.930 1_554 S
H136 C149 0.930 . S
H137 C153 0.959 . S
H138 C153 0.959 . S
H139 C153 0.961 . S
H140 C154 0.960 . S
H141 C154 0.961 . S
H142 C154 0.959 . S
H143 C157 0.916 1_565 S
H144 C158 0.931 . S
H145 C160 0.930 1_556 S
C146 H134 0.930 . S
C146 C147 1.399 . S
C146 C151 1.399 . S
C147 C146 1.399 . S
C147 C148 1.376 . S
C148 H135 0.930 1_556 S
C148 C147 1.376 . S
C148 C149 1.388 1_556 S
C149 H136 0.930 . S
C149 C148 1.388 1_554 S
C149 C150 1.390 . S
C150 C149 1.390 . S
C150 C151 1.394 1_554 S
C150 C156 1.465 1_565 S
C151 C146 1.399 . S
C151 C150 1.394 1_556 S
C151 C152 1.516 1_565 S
C152 C151 1.516 1_545 S
C152 C153 1.502 . S
C152 C154 1.561 . S
C152 C155 1.526 1_556 S
C153 H137 0.959 . S
C153 H138 0.959 . S
C153 H139 0.961 . S
C153 C152 1.502 . S
C154 H140 0.960 . S
C154 H141 0.961 . S
C154 H142 0.959 . S
C154 C152 1.561 . S
C155 C152 1.526 1_554 S
C155 C156 1.396 . S
C155 C160 1.390 . S
C156 C150 1.465 1_545 S
C156 C155 1.396 . S
C156 C157 1.399 . S
C157 H143 0.916 1_545 S
C157 C156 1.399 . S
C157 C158 1.385 . S
C158 H144 0.931 . S
C158 C157 1.385 . S
C158 C159 1.389 . S
C159 C158 1.389 . S
C159 C160 1.387 . S
C160 H145 0.930 1_554 S
C160 C155 1.390 . S
C160 C159 1.387 . S
H161 C173 0.930 . S
H162 C175 0.930 . S
H163 C176 0.930 . S
H164 C180 0.959 . S
H165 C180 0.959 . S
H166 C180 0.961 . S
H167 C181 0.960 . S
H168 C181 0.961 . S
H169 C181 0.959 1_655 S
H170 C184 0.929 . S
H171 C185 0.931 . S
H172 C187 0.930 . S
C173 H161 0.930 . S
C173 C174 1.399 . S
C173 C178 1.399 . S
C174 C173 1.399 . S
C174 C175 1.376 1_455 S
C175 H162 0.930 . S
C175 C174 1.376 1_655 S
C175 C176 1.388 . S
C176 H163 0.930 . S
C176 C175 1.388 . S
C176 C177 1.390 . S
C177 C176 1.390 . S
C177 C178 1.394 1_655 S
C177 C183 1.465 1_565 S
C178 C173 1.399 . S
C178 C177 1.394 1_455 S
C178 C179 1.516 1_554 S
C179 C178 1.516 1_556 S
C179 C180 1.502 . S
C179 C181 1.561 . S
C179 C182 1.526 1_565 S
C180 H164 0.959 . S
C180 H165 0.959 . S
C180 H166 0.961 . S
C180 C179 1.502 . S
C181 H167 0.960 . S
C181 H168 0.961 . S
C181 H169 0.959 1_455 S
C181 C179 1.561 . S
C182 C179 1.526 1_545 S
C182 C183 1.396 1_456 S
C182 C187 1.390 . S
C183 C177 1.465 1_545 S
C183 C182 1.396 1_654 S
C183 C184 1.399 . S
C184 H170 0.929 . S
C184 C183 1.399 . S
C184 C185 1.385 1_554 S
C185 H171 0.931 . S
C185 C184 1.385 1_556 S
C185 C186 1.389 1_655 S
C186 C185 1.389 1_455 S
C186 C187 1.387 . S
C187 H172 0.930 . S
C187 C182 1.390 . S
C187 C186 1.387 . S
H188 C200 0.930 . S
H189 C202 0.930 . S
H190 C203 0.930 . S
H191 C207 0.959 . S
H192 C207 0.959 . S
H193 C207 0.961 . S
H194 C208 0.960 . S
H195 C208 0.961 . S
H196 C208 0.959 . S
H197 C211 0.929 . S
H198 C212 0.931 . S
H199 C214 0.930 . S
C200 H188 0.930 . S
C200 C201 1.399 . S
C200 C205 1.399 . S
C201 C200 1.399 . S
C201 C202 1.376 . S
C202 H189 0.930 . S
C202 C201 1.376 . S
C202 C203 1.388 . S
C203 H190 0.930 . S
C203 C202 1.388 . S
C203 C204 1.390 . S
C204 C203 1.390 . S
C204 C205 1.394 . S
C204 C210 1.465 . S
C205 C200 1.399 . S
C205 C204 1.394 . S
C205 C206 1.516 . S
C206 C205 1.516 . S
C206 C207 1.502 . S
C206 C208 1.561 . S
C206 C209 1.526 . S
C207 H191 0.959 . S
C207 H192 0.959 . S
C207 H193 0.961 . S
C207 C206 1.502 . S
C208 H194 0.960 . S
C208 H195 0.961 . S
C208 H196 0.959 . S
C208 C206 1.561 . S
C209 C206 1.526 . S
C209 C210 1.396 . S
C209 C214 1.390 . S
C210 C204 1.465 . S
C210 C209 1.396 . S
C210 C211 1.399 . S
C211 H197 0.929 . S
C211 C210 1.399 . S
C211 C212 1.385 . S
C212 H198 0.931 . S
C212 C211 1.385 . S
C212 C213 1.389 . S
C213 C212 1.389 . S
C213 C214 1.387 . S
C214 H199 0.930 . S
C214 C209 1.390 . S
C214 C213 1.387 . S
H215 C227 0.930 . S
H216 C229 0.930 . S
H217 C230 0.930 . S
H218 C234 0.959 . S
H219 C234 0.959 . S
H220 C234 0.961 . S
H221 C235 0.960 . S
H222 C235 0.961 . S
H223 C235 0.959 . S
H224 C238 0.929 . S
H225 C239 0.931 . S
H226 C241 0.930 . S
C227 H215 0.930 . S
C227 C228 1.399 . S
C227 C232 1.399 . S
C228 C227 1.399 . S
C228 C229 1.376 . S
C229 H216 0.930 . S
C229 C228 1.376 . S
C229 C230 1.388 . S
C230 H217 0.930 . S
C230 C229 1.388 . S
C230 C231 1.390 . S
C231 C230 1.390 . S
C231 C232 1.394 . S
C231 C237 1.465 . S
C232 C227 1.399 . S
C232 C231 1.394 . S
C232 C233 1.516 . S
C233 C232 1.516 . S
C233 C234 1.502 . S
C233 C235 1.561 . S
C233 C236 1.526 . S
C234 H218 0.959 . S
C234 H219 0.959 . S
C234 H220 0.961 . S
C234 C233 1.502 . S
C235 H221 0.960 . S
C235 H222 0.961 . S
C235 H223 0.959 . S
C235 C233 1.561 . S
C236 C233 1.526 . S
C236 C237 1.396 . S
C236 C241 1.390 . S
C237 C231 1.465 . S
C237 C236 1.396 . S
C237 C238 1.399 . S
C238 H224 0.929 . S
C238 C237 1.399 . S
C238 C239 1.385 . S
C239 H225 0.931 . S
C239 C238 1.385 . S
C239 C240 1.389 . S
C240 C239 1.389 . S
C240 C241 1.387 . S
C241 H226 0.930 . S
C241 C236 1.390 . S
C241 C240 1.387 . S
H242 C254 0.930 . S
H243 C256 0.930 . S
H244 C257 0.930 . S
H245 C261 0.959 . S
H246 C261 0.959 . S
H247 C261 0.961 . S
H248 C262 0.960 . S
H249 C262 0.961 . S
H250 C262 0.959 . S
H251 C265 0.929 . S
H252 C266 0.931 . S
H253 C268 0.930 . S
C254 H242 0.930 . S
C254 C255 1.399 . S
C254 C259 1.399 . S
C255 C254 1.399 . S
C255 C256 1.376 . S
C256 H243 0.930 . S
C256 C255 1.376 . S
C256 C257 1.388 . S
C257 H244 0.930 . S
C257 C256 1.388 . S
C257 C258 1.390 . S
C258 C257 1.390 . S
C258 C259 1.394 . S
C258 C264 1.465 . S
C259 C254 1.399 . S
C259 C258 1.394 . S
C259 C260 1.516 . S
C260 C259 1.516 . S
C260 C261 1.502 . S
C260 C262 1.561 . S
C260 C263 1.526 . S
C261 H245 0.959 . S
C261 H246 0.959 . S
C261 H247 0.961 . S
C261 C260 1.502 . S
C262 H248 0.960 . S
C262 H249 0.961 . S
C262 H250 0.959 . S
C262 C260 1.561 . S
C263 C260 1.526 . S
C263 C264 1.396 . S
C263 C268 1.390 . S
C264 C258 1.465 . S
C264 C263 1.396 . S
C264 C265 1.399 . S
C265 H251 0.929 . S
C265 C264 1.399 . S
C265 C266 1.385 . S
C266 H252 0.931 . S
C266 C265 1.385 . S
C266 C267 1.389 . S
C267 C266 1.389 . S
C267 C268 1.387 . S
C268 H253 0.930 . S
C268 C263 1.390 . S
C268 C267 1.387 . S
H269 C281 0.930 . S
H270 C283 0.930 . S
H271 C284 0.930 . S
H272 C288 0.959 . S
H273 C288 0.959 . S
H274 C288 0.961 . S
H275 C289 0.960 . S
H276 C289 0.961 . S
H277 C289 0.959 . S
H278 C292 0.929 . S
H279 C293 0.931 . S
H280 C295 0.930 . S
C281 H269 0.930 . S
C281 C282 1.399 . S
C281 C286 1.399 . S
C282 C281 1.399 . S
C282 C283 1.376 . S
C283 H270 0.930 . S
C283 C282 1.376 . S
C283 C284 1.388 . S
C284 H271 0.930 . S
C284 C283 1.388 . S
C284 C285 1.390 . S
C285 C284 1.390 . S
C285 C286 1.394 . S
C285 C291 1.465 . S
C286 C281 1.399 . S
C286 C285 1.394 . S
C286 C287 1.516 . S
C287 C286 1.516 . S
C287 C288 1.502 . S
C287 C289 1.561 . S
C287 C290 1.526 . S
C288 H272 0.959 . S
C288 H273 0.959 . S
C288 H274 0.961 . S
C288 C287 1.502 . S
C289 H275 0.960 . S
C289 H276 0.961 . S
C289 H277 0.959 . S
C289 C287 1.561 . S
C290 C287 1.526 . S
C290 C291 1.396 . S
C290 C295 1.390 . S
C291 C285 1.465 . S
C291 C290 1.396 . S
C291 C292 1.399 . S
C292 H278 0.929 . S
C292 C291 1.399 . S
C292 C293 1.385 . S
C293 H279 0.931 . S
C293 C292 1.385 . S
C293 C294 1.389 . S
C294 C293 1.389 . S
C294 C295 1.387 . S
C295 H280 0.930 . S
C295 C290 1.390 . S
C295 C294 1.387 . S
H296 C308 0.930 . S
H297 C310 0.930 . S
H298 C311 0.930 . S
H299 C315 0.959 . S
H300 C315 0.959 1_556 S
H301 C315 0.962 . S
H302 C316 0.960 . S
H303 C316 0.961 . S
H304 C316 0.959 . S
H305 C319 0.929 . S
H306 C320 0.931 . S
H307 C322 0.930 . S
C308 H296 0.930 . S
C308 C309 1.399 . S
C308 C313 1.399 . S
C309 C308 1.399 . S
C309 C310 1.376 . S
C310 H297 0.930 . S
C310 C309 1.376 . S
C310 C311 1.388 . S
C311 H298 0.930 . S
C311 C310 1.388 . S
C311 C312 1.390 . S
C312 C311 1.390 . S
C312 C313 1.394 . S
C312 C318 1.465 . S
C313 C308 1.399 . S
C313 C312 1.394 . S
C313 C314 1.516 . S
C314 C313 1.516 . S
C314 C315 1.502 1_556 S
C314 C316 1.561 . S
C314 C317 1.526 . S
C315 H299 0.959 . S
C315 H300 0.959 1_554 S
C315 H301 0.962 . S
C315 C314 1.502 1_554 S
C316 H302 0.960 . S
C316 H303 0.961 . S
C316 H304 0.959 . S
C316 C314 1.561 . S
C317 C314 1.526 . S
C317 C318 1.396 . S
C317 C322 1.390 . S
C318 C312 1.465 . S
C318 C317 1.396 . S
C318 C319 1.399 . S
C319 H305 0.929 . S
C319 C318 1.399 . S
C319 C320 1.385 . S
C320 H306 0.931 . S
C320 C319 1.385 . S
C320 C321 1.389 . S
C321 C320 1.389 . S
C321 C322 1.387 . S
C322 H307 0.930 . S
C322 C317 1.390 . S
C322 C321 1.387 . S
H323 C335 0.930 . S
H324 C337 0.930 . S
H325 C338 0.930 . S
H326 C342 0.959 . S
H327 C342 0.959 . S
H328 C342 0.961 . S
H329 C343 0.960 . S
H330 C343 0.961 . S
H331 C343 0.959 . S
H332 C346 0.929 . S
H333 C347 0.931 . S
H334 C349 0.930 . S
C335 H323 0.930 . S
C335 C336 1.399 . S
C335 C340 1.399 . S
C336 C335 1.399 . S
C336 C337 1.376 1_554 S
C337 H324 0.930 . S
C337 C336 1.376 1_556 S
C337 C338 1.388 . S
C338 H325 0.930 . S
C338 C337 1.388 . S
C338 C339 1.390 . S
C339 C338 1.390 . S
C339 C340 1.394 1_556 S
C339 C345 1.465 . S
C340 C335 1.399 . S
C340 C339 1.394 1_554 S
C340 C341 1.516 . S
C341 C340 1.516 . S
C341 C342 1.502 . S
C341 C343 1.561 . S
C341 C344 1.526 . S
C342 H326 0.959 . S
C342 H327 0.959 . S
C342 H328 0.961 . S
C342 C341 1.502 . S
C343 H329 0.960 . S
C343 H330 0.961 . S
C343 H331 0.959 . S
C343 C341 1.561 . S
C344 C341 1.526 . S
C344 C345 1.396 1_554 S
C344 C349 1.390 . S
C345 C339 1.465 . S
C345 C344 1.396 1_556 S
C345 C346 1.399 . S
C346 H332 0.929 . S
C346 C345 1.399 . S
C346 C347 1.385 . S
C347 H333 0.931 . S
C347 C346 1.385 . S
C347 C348 1.389 1_556 S
C348 C347 1.389 1_554 S
C348 C349 1.387 . S
C349 H334 0.930 . S
C349 C344 1.390 . S
C349 C348 1.387 . S
H350 C362 0.930 . S
H351 C364 0.930 . S
H352 C365 0.930 . S
H353 C369 0.959 . S
H354 C369 0.959 1_556 S
H355 C369 0.961 . S
H356 C370 0.960 . S
H357 C370 0.961 . S
H358 C370 0.959 . S
H359 C373 0.929 . S
H360 C374 0.931 . S
H361 C376 0.930 . S
C362 H350 0.930 . S
C362 C363 1.399 . S
C362 C367 1.399 . S
C363 C362 1.399 . S
C363 C364 1.376 . S
C364 H351 0.930 . S
C364 C363 1.376 . S
C364 C365 1.388 . S
C365 H352 0.930 . S
C365 C364 1.388 . S
C365 C366 1.390 . S
C366 C365 1.390 . S
C366 C367 1.394 . S
C366 C372 1.465 . S
C367 C362 1.399 . S
C367 C366 1.394 . S
C367 C368 1.516 . S
C368 C367 1.516 . S
C368 C369 1.502 1_556 S
C368 C370 1.561 . S
C368 C371 1.526 . S
C369 H353 0.959 . S
C369 H354 0.959 1_554 S
C369 H355 0.961 . S
C369 C368 1.502 1_554 S
C370 H356 0.960 . S
C370 H357 0.961 . S
C370 H358 0.959 . S
C370 C368 1.561 . S
C371 C368 1.526 . S
C371 C372 1.396 . S
C371 C376 1.390 . S
C372 C366 1.465 . S
C372 C371 1.396 . S
C372 C373 1.399 . S
C373 H359 0.929 . S
C373 C372 1.399 . S
C373 C374 1.385 . S
C374 H360 0.931 . S
C374 C373 1.385 . S
C374 C375 1.389 . S
C375 C374 1.389 . S
C375 C376 1.387 . S
C376 H361 0.930 . S
C376 C371 1.390 . S
C376 C375 1.387 . S
H377 C389 0.930 1_556 S
H378 C391 0.930 . S
H379 C392 0.930 . S
H380 C396 0.959 . S
H381 C396 0.959 . S
H382 C396 0.961 . S
H383 C397 0.960 . S
H384 C397 0.961 . S
H385 C397 0.959 . S
H386 C400 0.929 . S
H387 C401 0.931 . S
H388 C403 0.930 . S
C389 H377 0.930 1_554 S
C389 C390 1.399 . S
C389 C394 1.399 . S
C390 C389 1.399 . S
C390 C391 1.376 . S
C391 H378 0.930 . S
C391 C390 1.376 . S
C391 C392 1.388 . S
C392 H379 0.930 . S
C392 C391 1.388 . S
C392 C393 1.390 . S
C393 C392 1.390 . S
C393 C394 1.394 . S
C393 C399 1.465 . S
C394 C389 1.399 . S
C394 C393 1.394 . S
C394 C395 1.516 1_554 S
C395 C394 1.516 1_556 S
C395 C396 1.502 . S
C395 C397 1.561 1_556 S
C395 C398 1.526 1_556 S
C396 H380 0.959 . S
C396 H381 0.959 . S
C396 H382 0.961 . S
C396 C395 1.502 . S
C397 H383 0.960 . S
C397 H384 0.961 . S
C397 H385 0.959 . S
C397 C395 1.561 1_554 S
C398 C395 1.526 1_554 S
C398 C399 1.396 . S
C398 C403 1.390 1_554 S
C399 C393 1.465 . S
C399 C398 1.396 . S
C399 C400 1.399 . S
C400 H386 0.929 . S
C400 C399 1.399 . S
C400 C401 1.385 . S
C401 H387 0.931 . S
C401 C400 1.385 . S
C401 C402 1.389 . S
C402 C401 1.389 . S
C402 C403 1.387 1_554 S
C403 H388 0.930 . S
C403 C398 1.390 1_556 S
C403 C402 1.387 1_556 S
C93 C48 1.758 . S
C105 C8 1.674 1_655 S
C120 C29 1.985 . S
C132 C69 1.987 . S
C147 C68 1.678 . S
C159 C28 1.772 . S
C174 C9 1.967 . S
C186 C49 1.966 . S
C201 C61 1.529 . S
C213 C18 1.536 . S
C228 C58 1.504 . S
C240 C21 1.506 . S
C255 C41 1.505 . S
C267 C38 1.505 . S
C282 C1 1.527 . S
C294 C78 1.537 . S
C309 C79 0.976 . S
C321 C2 1.014 . S
C336 C42 1.003 . S
C348 C39 1.030 . S
C363 C22 1.045 . S
C375 C59 1.032 . S
C390 C19 0.961 . S
C402 C62 1.030 . S
