# Generated by pormake.
# Topology wkq, (6)-cn, num edge types: 1
# Building blocks:
#     Node 0, Type 0, BuildingBlock: OJICUG_clean_sbu_0, # of connection points: 6
#     Node 1, Type 0, BuildingBlock: OJICUG_clean_sbu_0, # of connection points: 6
#     Node 2, Type 0, BuildingBlock: OJICUG_clean_sbu_0, # of connection points: 6
#     Node 3, Type 0, BuildingBlock: OJICUG_clean_sbu_0, # of connection points: 6
#     Node 4, Type 0, BuildingBlock: OJICUG_clean_sbu_0, # of connection points: 6
#     Node 5, Type 0, BuildingBlock: OJICUG_clean_sbu_0, # of connection points: 6
#     Node 6, Type 0, BuildingBlock: OJICUG_clean_sbu_0, # of connection points: 6
#     Node 7, Type 0, BuildingBlock: OJICUG_clean_sbu_0, # of connection points: 6
#     Node 8, Type 0, BuildingBlock: OJICUG_clean_sbu_0, # of connection points: 6
#     Node 9, Type 0, BuildingBlock: OJICUG_clean_sbu_0, # of connection points: 6
#     Node 10, Type 0, BuildingBlock: OJICUG_clean_sbu_0, # of connection points: 6
#     Node 11, Type 0, BuildingBlock: OJICUG_clean_sbu_0, # of connection points: 6
#     Edge 12, Type (0, 0), BuildingBlock: AJUNOK_clean_linker_0, # of connection points: 2
#     Edge 13, Type (0, 0), BuildingBlock: AJUNOK_clean_linker_0, # of connection points: 2
#     Edge 14, Type (0, 0), BuildingBlock: AJUNOK_clean_linker_0, # of connection points: 2
#     Edge 15, Type (0, 0), BuildingBlock: AJUNOK_clean_linker_0, # of connection points: 2
#     Edge 16, Type (0, 0), BuildingBlock: AJUNOK_clean_linker_0, # of connection points: 2
#     Edge 17, Type (0, 0), BuildingBlock: AJUNOK_clean_linker_0, # of connection points: 2
#     Edge 18, Type (0, 0), BuildingBlock: AJUNOK_clean_linker_0, # of connection points: 2
#     Edge 19, Type (0, 0), BuildingBlock: AJUNOK_clean_linker_0, # of connection points: 2
#     Edge 20, Type (0, 0), BuildingBlock: AJUNOK_clean_linker_0, # of connection points: 2
#     Edge 21, Type (0, 0), BuildingBlock: AJUNOK_clean_linker_0, # of connection points: 2
#     Edge 22, Type (0, 0), BuildingBlock: AJUNOK_clean_linker_0, # of connection points: 2
#     Edge 23, Type (0, 0), BuildingBlock: AJUNOK_clean_linker_0, # of connection points: 2
#     Edge 24, Type (0, 0), BuildingBlock: AJUNOK_clean_linker_0, # of connection points: 2
#     Edge 25, Type (0, 0), BuildingBlock: AJUNOK_clean_linker_0, # of connection points: 2
#     Edge 26, Type (0, 0), BuildingBlock: AJUNOK_clean_linker_0, # of connection points: 2
#     Edge 27, Type (0, 0), BuildingBlock: AJUNOK_clean_linker_0, # of connection points: 2
#     Edge 28, Type (0, 0), BuildingBlock: AJUNOK_clean_linker_0, # of connection points: 2
#     Edge 29, Type (0, 0), BuildingBlock: AJUNOK_clean_linker_0, # of connection points: 2
#     Edge 30, Type (0, 0), BuildingBlock: AJUNOK_clean_linker_0, # of connection points: 2
#     Edge 31, Type (0, 0), BuildingBlock: AJUNOK_clean_linker_0, # of connection points: 2
#     Edge 32, Type (0, 0), BuildingBlock: AJUNOK_clean_linker_0, # of connection points: 2
#     Edge 33, Type (0, 0), BuildingBlock: AJUNOK_clean_linker_0, # of connection points: 2
#     Edge 34, Type (0, 0), BuildingBlock: AJUNOK_clean_linker_0, # of connection points: 2
#     Edge 35, Type (0, 0), BuildingBlock: AJUNOK_clean_linker_0, # of connection points: 2
#     Edge 36, Type (0, 0), BuildingBlock: AJUNOK_clean_linker_0, # of connection points: 2
#     Edge 37, Type (0, 0), BuildingBlock: AJUNOK_clean_linker_0, # of connection points: 2
#     Edge 38, Type (0, 0), BuildingBlock: AJUNOK_clean_linker_0, # of connection points: 2
#     Edge 39, Type (0, 0), BuildingBlock: AJUNOK_clean_linker_0, # of connection points: 2
#     Edge 40, Type (0, 0), BuildingBlock: AJUNOK_clean_linker_0, # of connection points: 2
#     Edge 41, Type (0, 0), BuildingBlock: AJUNOK_clean_linker_0, # of connection points: 2
#     Edge 42, Type (0, 0), BuildingBlock: AJUNOK_clean_linker_0, # of connection points: 2
#     Edge 43, Type (0, 0), BuildingBlock: AJUNOK_clean_linker_0, # of connection points: 2
#     Edge 44, Type (0, 0), BuildingBlock: AJUNOK_clean_linker_0, # of connection points: 2
#     Edge 45, Type (0, 0), BuildingBlock: AJUNOK_clean_linker_0, # of connection points: 2
#     Edge 46, Type (0, 0), BuildingBlock: AJUNOK_clean_linker_0, # of connection points: 2
#     Edge 47, Type (0, 0), BuildingBlock: AJUNOK_clean_linker_0, # of connection points: 2
# Relax obj value: 0.340
# Max RMSD: 0.275
# Mean RMSD: 0.275
data_MOF--net-wkq--node1-OJICUG_clean_sbu_0--edge1-AJUNOK_clean_linker_0
_symmetry_space_group_name_H-M    P1
_symmetry_Int_Tables_number       1
_symmetry_cell_setting            triclinic
loop_
_symmetry_equiv_pos_as_xyz
'x, y, z'
_cell_length_a     28.981672
_cell_length_b     29.009138
_cell_length_c     27.134467
_cell_angle_alpha  89.997881
_cell_angle_beta   90.115977
_cell_angle_gamma 120.09882
loop_
_atom_site_label
_atom_site_type_symbol
_atom_site_fract_x
_atom_site_fract_y
_atom_site_fract_z
_atom_type_partial_charge
Sc0 Sc 0.21535 0.44415 0.94772 0.0
Sc1 Sc 0.28805 0.48961 0.05549 0.0
Sc2 Sc 0.22445 0.35513 0.03033 0.0
O3 O 0.24284 0.42926 0.01022 0.0
C4 C 0.11372 0.33735 -0.0104 0.0
C5 C 0.21226 0.52944 0.01662 0.0
C6 C 0.21572 0.4087 0.13009 0.0
C7 C 0.34032 0.53626 0.9551 0.0
C8 C 0.24318 0.35525 0.91431 0.0
C9 C 0.33436 0.41255 0.07789 0.0
O10 O 0.13429 0.37663 0.95952 0.0
O11 O 0.25554 0.53843 0.03608 0.0
O12 O 0.21592 0.37044 0.10717 0.0
O13 O 0.29465 0.51371 0.93343 0.0
O14 O 0.23381 0.33369 0.95666 0.0
O15 O 0.32847 0.45198 0.08741 0.0
O16 O 0.24107 0.39727 0.90501 0.0
O17 O 0.34661 0.52602 -0.00056 0.0
O18 O 0.3065 0.37844 0.04521 0.0
O19 O 0.18756 0.49249 0.98518 0.0
O20 O 0.1415 0.32642 0.01848 0.0
O21 O 0.22745 0.45245 0.10944 0.0
Sc22 Sc 0.89257 0.20542 0.19692 0.0
Sc23 Sc 0.83006 0.27775 0.23019 0.0
Sc24 Sc 0.79446 0.20547 0.11923 0.0
O25 O 0.83928 0.22987 0.18195 0.0
C26 C 0.91259 0.23475 0.08358 0.0
C27 C 0.95228 0.32207 0.24569 0.0
C28 C 0.82289 0.32715 0.1271 0.0
C29 C 0.83939 0.19382 0.29978 0.0
C30 C 0.79525 0.09961 0.15031 0.0
C31 C 0.70965 0.19952 0.19887 0.0
O32 O 0.92908 0.23234 0.1264 0.0
O33 O 0.91344 0.33028 0.24174 0.0
O34 O 0.81077 0.28528 0.1022 0.0
O35 O 0.86097 0.17748 0.26906 0.0
O36 O 0.77163 0.12252 0.13168 0.0
O37 O 0.74552 0.23086 0.2284 0.0
O38 O 0.84115 0.12565 0.16999 0.0
O39 O 0.82824 0.2301 0.2908 0.0
O40 O 0.72031 0.18732 0.15686 0.0
O41 O 0.9507 0.27989 0.2304 0.0
O42 O 0.86464 0.22321 0.07441 0.0
O43 O 0.83078 0.32996 0.17339 0.0
Sc44 Sc 0.61001 0.7846 0.28903 0.0
Sc45 Sc 0.5843 0.8387 0.39393 0.0
Sc46 Sc 0.71555 0.88627 0.35647 0.0
O47 O 0.63628 0.83626 0.34626 0.0
C48 C 0.71701 0.78441 0.31585 0.0
C49 C 0.53608 0.7137 0.37934 0.0
C50 C 0.67946 0.84864 0.46262 0.0
C51 C 0.51964 0.8172 0.29309 0.0
C52 C 0.69889 0.89894 0.24386 0.0
C53 C 0.66781 0.95603 0.40171 0.0
O54 O 0.66816 0.75963 0.30325 0.0
O55 O 0.54431 0.75441 0.40386 0.0
O56 O 0.7131 0.85614 0.4291 0.0
O57 O 0.54714 0.80109 0.26999 0.0
O58 O 0.72046 0.91892 0.28518 0.0
O59 O 0.61981 0.92355 0.39029 0.0
O60 O 0.66189 0.85015 0.23821 0.0
O61 O 0.52831 0.83151 0.33797 0.0
O62 O 0.70507 0.94696 0.39079 0.0
O63 O 0.55528 0.71721 0.33607 0.0
O64 O 0.7405 0.83307 0.32827 0.0
O65 O 0.63481 0.84587 0.45483 0.0
Sc66 Sc 0.83579 0.68527 0.52547 0.0
Sc67 Sc 0.75888 0.54939 0.54853 0.0
Sc68 Sc 0.84376 0.59348 0.44711 0.0
O69 O 0.81331 0.60984 0.50711 0.0
C70 C 0.81916 0.68275 0.40871 0.0
C71 C 0.72119 0.63406 0.56658 0.0
C72 C 0.71901 0.5038 0.44437 0.0
C73 C 0.83221 0.62886 0.62845 0.0
C74 C 0.94601 0.69961 0.48887 0.0
C75 C 0.84028 0.5107 0.52248 0.0
O76 O 0.82915 0.70585 0.4505 0.0
O77 O 0.7171 0.58902 0.57367 0.0
O78 O 0.76692 0.52311 0.42907 0.0
O79 O 0.84277 0.66949 0.60237 0.0
O80 O 0.92493 0.66032 0.459 0.0
O81 O 0.7944 0.50077 0.53633 0.0
O82 O 0.91848 0.71143 0.51685 0.0
O83 O 0.80789 0.58131 0.61222 0.0
O84 O 0.86777 0.54658 0.49102 0.0
O85 O 0.75495 0.66746 0.5366 0.0
O86 O 0.82011 0.63979 0.401 0.0
O87 O 0.7076 0.51615 0.48574 0.0
Sc88 Sc 0.26344 0.83202 0.62063 0.0
Sc89 Sc 0.21232 0.75468 0.72752 0.0
Sc90 Sc 0.16694 0.84039 0.69172 0.0
O91 O 0.21458 0.80896 0.67979 0.0
C92 C 0.26873 0.94148 0.64777 0.0
C93 C 0.337 0.82576 0.70661 0.0
C94 C 0.2098 0.84374 0.79631 0.0
C95 C 0.22609 0.70802 0.62567 0.0
C96 C 0.14839 0.80885 0.57984 0.0
C97 C 0.09554 0.72382 0.73846 0.0
O98 O 0.29239 0.91632 0.63526 0.0
O99 O 0.29722 0.79597 0.73346 0.0
O100 O 0.20151 0.86949 0.76289 0.0
O101 O 0.24225 0.7512 0.6017 0.0
O102 O 0.1303 0.81109 0.6219 0.0
O103 O 0.12695 0.70707 0.72734 0.0
O104 O 0.19679 0.82041 0.57245 0.0
O105 O 0.21439 0.70386 0.67113 0.0
O106 O 0.10622 0.77085 0.72844 0.0
O107 O 0.33193 0.84147 0.66387 0.0
O108 O 0.22021 0.91725 0.6607 0.0
O109 O 0.21047 0.80072 0.78886 0.0
Sc110 Sc 0.34923 0.14986 0.85817 0.0
Sc111 Sc 0.4821 0.19834 0.89199 0.0
Sc112 Sc 0.45128 0.25438 0.79076 0.0
O113 O 0.42778 0.20112 0.84686 0.0
C114 C 0.36354 0.1416 0.74338 0.0
C115 C 0.40008 0.07918 0.89446 0.0
C116 C 0.5438 0.22473 0.78992 0.0
C117 C 0.3877 0.17882 0.96589 0.0
C118 C 0.34365 0.25162 0.82235 0.0
C119 C 0.52541 0.32325 0.88178 0.0
O120 O 0.34137 0.12141 0.78433 0.0
O121 O 0.44848 0.11357 0.88633 0.0
O122 O 0.5154 0.24121 0.7692 0.0
O123 O 0.35339 0.17396 0.93388 0.0
O124 O 0.39106 0.27655 0.80584 0.0
O125 O 0.51993 0.28236 0.90426 0.0
O126 O 0.32299 0.20442 0.83835 0.0
O127 O 0.43336 0.18581 0.95502 0.0
O128 O 0.50441 0.32044 0.83947 0.0
O129 O 0.36252 0.08799 0.88395 0.0
O130 O 0.4013 0.19 0.73857 0.0
O131 O 0.537 0.209 0.83428 0.0
Sc132 Sc 0.70949 0.83584 0.77558 0.0
Sc133 Sc 0.57517 0.75028 0.74553 0.0
Sc134 Sc 0.60968 0.82986 0.85295 0.0
O135 O 0.63122 0.80525 0.79141 0.0
C136 C 0.70423 0.81025 0.88986 0.0
C137 C 0.66046 0.7162 0.73396 0.0
C138 C 0.51987 0.70673 0.84981 0.0
C139 C 0.66542 0.8291 0.67007 0.0
C140 C 0.71234 0.93913 0.81987 0.0
C141 C 0.52736 0.8255 0.77078 0.0
O142 O 0.72377 0.81474 0.84709 0.0
O143 O 0.61134 0.70076 0.74057 0.0
O144 O 0.5494 0.75001 0.87278 0.0
O145 O 0.7015 0.85704 0.70135 0.0
O146 O 0.66637 0.91416 0.83963 0.0
O147 O 0.53404 0.79469 0.74208 0.0
O148 O 0.73327 0.91511 0.79885 0.0
O149 O 0.61988 0.79094 0.68206 0.0
O150 O 0.55058 0.84069 0.81261 0.0
O151 O 0.69693 0.76231 0.7466 0.0
O152 O 0.66485 0.81721 0.89893 0.0
O153 O 0.52398 0.70142 0.80387 0.0
Sc154 Sc 0.89379 0.68393 0.94192 0.0
Sc155 Sc 0.82312 0.54884 0.91644 0.0
Sc156 Sc 0.79505 0.59716 0.0239 0.0
O157 O 0.83662 0.61005 0.96093 0.0
C158 C 0.91141 0.68711 0.05787 0.0
C159 C 0.94764 0.62638 0.90003 0.0
C160 C 0.82393 0.50272 0.02057 0.0
C161 C 0.83672 0.6321 0.83931 0.0
C162 C 0.80157 0.70367 0.97876 0.0
C163 C 0.70562 0.51066 0.95524 0.0
O164 O 0.92294 0.708 0.01542 0.0
O165 O 0.9038 0.58532 0.88875 0.0
O166 O 0.80347 0.52811 0.04106 0.0
O167 O 0.87374 0.66952 0.86436 0.0
O168 O 0.78261 0.66497 0.00957 0.0
O169 O 0.7396 0.50409 0.93179 0.0
O170 O 0.84001 0.71364 0.94985 0.0
O171 O 0.80609 0.58584 0.85664 0.0
O172 O 0.71844 0.54653 -0.01202 0.0
O173 O 0.95015 0.65732 0.93422 0.0
O174 O 0.86782 0.64445 0.0671 0.0
O175 O 0.83925 0.50987 0.97575 0.0
Sc176 Sc 0.2298 0.89249 0.11094 0.0
Sc177 Sc 0.30763 0.83493 0.08082 0.0
Sc178 Sc 0.22141 0.78788 0.1838 0.0
O179 O 0.25303 0.83846 0.12527 0.0
C180 C 0.24438 0.9006 0.22769 0.0
C181 C 0.34866 0.95514 0.07329 0.0
C182 C 0.34287 0.81371 0.18578 0.0
C183 C 0.23963 0.85828 0.00285 0.0
C184 C 0.11896 0.79248 0.14445 0.0
C185 C 0.22075 0.71241 0.09669 0.0
O186 O 0.24127 0.91843 0.18589 0.0
O187 O 0.36097 0.91938 0.08023 0.0
O188 O 0.2981 0.79858 0.20641 0.0
O189 O 0.21688 0.8734 0.03353 0.0
O190 O 0.13988 0.76959 0.16816 0.0
O191 O 0.25837 0.75072 0.07346 0.0
O192 O 0.14687 0.8367 0.1227 0.0
O193 O 0.27221 0.84328 0.0152 0.0
O194 O 0.20374 0.71831 0.13835 0.0
O195 O 0.31005 0.95477 0.09588 0.0
O196 O 0.23818 0.85413 0.23392 0.0
O197 O 0.35155 0.82751 0.14088 0.0
Sc198 Sc 0.3486 0.20771 0.27701 0.0
Sc199 Sc 0.4818 0.28137 0.23993 0.0
Sc200 Sc 0.44933 0.20776 0.34989 0.0
O201 O 0.42679 0.23251 0.28916 0.0
C202 C 0.36182 0.2373 0.38978 0.0
C203 C 0.40546 0.32553 0.23015 0.0
C204 C 0.54332 0.32818 0.34183 0.0
C205 C 0.38381 0.19953 0.1719 0.0
C206 C 0.34126 0.10211 0.3215 0.0
C207 C 0.52346 0.20165 0.26433 0.0
O208 O 0.34286 0.23666 0.34739 0.0
O209 O 0.45283 0.33582 0.23741 0.0
O210 O 0.5129 0.28735 0.36745 0.0
O211 O 0.3491 0.17791 0.20543 0.0
O212 O 0.38932 0.12496 0.33664 0.0
O213 O 0.51617 0.23171 0.23544 0.0
O214 O 0.32012 0.12839 0.3054 0.0
O215 O 0.43104 0.23773 0.17908 0.0
O216 O 0.5048 0.1915 0.30822 0.0
O217 O 0.3649 0.28143 0.24207 0.0
O218 O 0.39722 0.22395 0.39762 0.0
O219 O 0.53833 0.33091 0.29557 0.0
Sc220 Sc 0.16848 0.3555 0.44135 0.0
Sc221 Sc 0.23743 0.49121 0.41867 0.0
Sc222 Sc 0.26486 0.44369 0.5259 0.0
O223 O 0.22328 0.42989 0.46264 0.0
C224 C 0.1479 0.35237 0.55729 0.0
C225 C 0.11377 0.41223 0.39595 0.0
C226 C 0.23197 0.53542 0.52137 0.0
C227 C 0.23011 0.41099 0.34171 0.0
C228 C 0.26225 0.33897 0.48219 0.0
C229 C 0.35425 0.53116 0.45806 0.0
O230 O 0.13667 0.33218 0.51434 0.0
O231 O 0.15836 0.45361 0.38785 0.0
O232 O 0.25404 0.51168 0.54228 0.0
O233 O 0.193 0.37172 0.36493 0.0
O234 O 0.27996 0.37759 0.51297 0.0
O235 O 0.32006 0.53883 0.4364 0.0
O236 O 0.22359 0.32785 0.45308 0.0
O237 O 0.25921 0.45607 0.3617 0.0
O238 O 0.34159 0.49461 0.48999 0.0
O239 O 0.10866 0.37709 0.42682 0.0
O240 O 0.19167 0.39459 0.56767 0.0
O241 O 0.21696 0.5277 0.47646 0.0
Sc242 Sc 0.82998 0.1489 0.61474 0.0
Sc243 Sc 0.76211 0.21456 0.58034 0.0
Sc244 Sc 0.84158 0.25519 0.68698 0.0
O245 O 0.81161 0.20651 0.6274 0.0
C246 C 0.81515 0.14253 0.73132 0.0
C247 C 0.71502 0.08944 0.57417 0.0
C248 C 0.7188 0.2272 0.68238 0.0
C249 C 0.82905 0.19117 0.50651 0.0
C250 C 0.94209 0.24661 0.64694 0.0
C251 C 0.84472 0.33582 0.6067 0.0
O252 O 0.82362 0.12656 0.69067 0.0
O253 O 0.71426 0.13151 0.56345 0.0
O254 O 0.76455 0.24822 0.70326 0.0
O255 O 0.8363 0.16168 0.53631 0.0
O256 O 0.92215 0.268 0.67448 0.0
O257 O 0.80464 0.29913 0.5846 0.0
O258 O 0.91347 0.20462 0.62192 0.0
O259 O 0.81046 0.22083 0.519 0.0
O260 O 0.86619 0.32736 0.644 0.0
O261 O 0.74744 0.08921 0.6057 0.0
O262 O 0.8175 0.18734 0.73628 0.0
O263 O 0.71033 0.2082 0.63898 0.0
C264 C 0.18684 0.56927 0.08418 0.0
C265 C 0.19245 0.56481 0.03304 0.0
C266 C 0.19013 0.61526 0.10472 0.0
C267 C 0.19999 0.65867 0.07474 0.0
H268 H 0.18487 0.539 0.10894 0.0
H269 H 0.19019 0.61876 0.14448 0.0
S270 S 0.20742 0.66267 0.93794 0.0
N271 N 0.20044 0.6042 0.95254 0.0
N272 N 0.20641 0.69073 -0.00939 0.0
C273 C 0.19974 0.65219 0.0231 0.0
C274 C 0.19601 0.60518 0.00231 0.0
C275 C 0.59535 0.17931 0.28042 0.0
C276 C 0.56119 0.18438 0.24687 0.0
C277 C 0.64105 0.17882 0.26398 0.0
C278 C 0.65402 0.18276 0.21341 0.0
H279 H 0.58943 0.18033 0.31972 0.0
H280 H 0.66846 0.17914 0.29138 0.0
S281 S 0.57237 0.1867 0.11021 0.0
N282 N 0.53938 0.18547 0.16021 0.0
N283 N 0.62511 0.18444 0.12985 0.0
C284 C 0.61719 0.1819 0.17935 0.0
C285 C 0.57087 0.18283 0.19598 0.0
C286 C 0.44071 0.61368 0.47275 0.0
C287 C 0.41028 0.56796 0.44422 0.0
C288 C 0.48431 0.65906 0.45232 0.0
C289 C 0.49882 0.66086 0.40222 0.0
H290 H 0.42807 0.61606 0.50976 0.0
H291 H 0.50453 0.69423 0.47534 0.0
S292 S 0.43732 0.54695 0.3151 0.0
N293 N 0.40161 0.52391 0.3659 0.0
N294 N 0.48361 0.60906 0.3273 0.0
C295 C 0.47185 0.61331 0.37491 0.0
C296 C 0.42742 0.56703 0.39591 0.0
C297 C 0.86592 0.44096 0.51465 0.0
C298 C 0.8602 0.47742 0.54414 0.0
C299 C 0.86741 0.39773 0.53614 0.0
C300 C 0.86381 0.39006 0.58768 0.0
H301 H 0.86415 0.44295 0.47486 0.0
H302 H 0.86683 0.36761 0.51207 0.0
S303 S 0.85811 0.48028 0.68076 0.0
N304 N 0.85826 0.50758 0.62727 0.0
N305 N 0.86167 0.42653 0.66755 0.0
C306 C 0.86409 0.42955 0.61757 0.0
C307 C 0.86194 0.47318 0.59572 0.0
C308 C 0.47791 0.84722 0.70736 0.0
C309 C 0.48507 0.83773 0.75697 0.0
C310 C 0.43177 0.8477 0.69176 0.0
C311 C 0.39039 0.83725 0.725 0.0
H312 H 0.50721 0.85212 0.68 0.0
H313 H 0.42708 0.8528 0.65288 0.0
S314 S 0.39091 0.8117 0.85945 0.0
N315 N 0.44846 0.82036 0.83954 0.0
N316 N 0.36151 0.81982 0.81075 0.0
C317 C 0.39852 0.83026 0.77525 0.0
C318 C 0.44586 0.83084 0.79109 0.0
C319 C 0.62571 0.42371 0.97214 0.0
C320 C 0.6494 0.47118 0.94505 0.0
C321 C 0.58261 0.37711 0.95287 0.0
C322 C 0.56188 0.37591 0.90532 0.0
H323 H 0.64349 0.42137 0.00655 0.0
H324 H 0.56794 0.34095 0.97431 0.0
S325 S 0.60317 0.49341 0.82476 0.0
N326 N 0.64453 0.51691 0.87216 0.0
N327 N 0.56295 0.42942 0.83583 0.0
C328 C 0.58175 0.42471 0.8803 0.0
C329 C 0.62582 0.47224 0.90008 0.0
C330 C 0.34889 0.40115 0.16601 0.0
C331 C 0.36077 0.39788 0.11615 0.0
C332 C 0.36582 0.38021 0.20375 0.0
C333 C 0.39714 0.35736 0.19299 0.0
H334 H 0.32367 0.41723 0.17575 0.0
H335 H 0.35292 0.38031 0.2412 0.0
S336 S 0.44345 0.34339 0.06926 0.0
N337 N 0.40739 0.37193 0.0584 0.0
N338 N 0.44241 0.33537 0.12963 0.0
C339 C 0.4121 0.35669 0.14368 0.0
C340 C 0.3931 0.37625 0.10508 0.0
C341 C 0.0476 0.3793 0.27082 0.0
C342 C 0.99329 0.35391 0.28258 0.0
C343 C 0.08639 0.40163 0.30801 0.0
C344 C 0.072 0.39738 0.35821 0.0
H345 H 0.06006 0.38048 0.233 0.0
H346 H 0.12794 0.41949 0.29756 0.0
S347 S 0.93488 0.33463 0.40781 0.0
N348 N 0.92681 0.32717 0.34747 0.0
N349 N 0.99997 0.36671 0.41738 0.0
C350 C 1.01788 0.37284 0.37025 0.0
C351 C 0.97845 0.3517 0.33236 0.0
C352 C 0.73599 0.04007 0.51341 0.0
C353 C 0.6976 0.05026 0.53385 0.0
C354 C 0.72736 1.01366 0.46859 0.0
C355 C 0.679 0.99437 0.44254 0.0
H356 H 0.77439 0.05476 0.53108 0.0
H357 H 0.75879 1.0071 0.45523 0.0
S358 S 0.56679 1.01447 0.47857 0.0
N359 N 0.61115 0.04334 0.52315 0.0
N360 N 0.59288 0.98999 0.43968 0.0
C361 C 0.64028 1.00502 0.46214 0.0
C362 C 0.64997 0.03362 0.50755 0.0
C363 C 0.63763 0.6444 0.66983 0.0
C364 C 0.67628 0.68832 0.69723 0.0
C365 C 0.65151 0.62707 0.62664 0.0
C366 C 0.70375 0.65502 0.60784 0.0
H367 H 0.5962 0.62414 0.68101 0.0
H368 H 0.62111 0.59237 0.60733 0.0
S369 S 0.82112 0.76832 0.66773 0.0
N370 N 0.77114 0.75363 0.7054 0.0
N371 N 0.79455 0.72671 0.62116 0.0
C372 C 0.74262 0.69819 0.63519 0.0
C373 C 0.72965 0.71314 0.6807 0.0
C374 C 0.04878 0.72692 0.81325 0.0
C375 C 0.05561 0.69575 0.77748 0.0
C376 C 1.01716 0.70406 0.85463 0.0
C377 C 0.98931 0.64859 0.86159 0.0
H378 H 0.06882 0.76986 0.80988 0.0
H379 H 1.01285 0.73031 0.88023 0.0
S380 S 0.99274 0.54867 0.77855 0.0
N381 N 0.03286 0.6065 0.75201 0.0
N382 N 0.9702 0.56259 0.82901 0.0
C383 C 0.99538 0.61657 0.82609 0.0
C384 C 0.0292 0.6403 0.78428 0.0
C385 C 0.33617 1.01516 0.95472 0.0
C386 C 0.38723 0.03828 0.93325 0.0
C387 C 0.32573 0.99075 0.00052 0.0
C388 C 0.36443 0.98457 0.02611 0.0
H389 H 0.30422 1.01869 0.93777 0.0
H390 H 0.28628 0.97617 0.01566 0.0
S391 S 0.50195 0.02955 0.98343 0.0
N392 N 0.47626 0.04974 0.93979 0.0
N393 N 0.45425 0.99819 0.02461 0.0
C394 C 0.41432 1.00299 0.00358 0.0
C395 C 0.42615 0.03081 0.95745 0.0
C396 C 0.42973 0.62454 0.85195 0.0
C397 C 0.47643 0.66153 0.87699 0.0
C398 C 0.38623 0.58386 0.87729 0.0
C399 C 0.38788 0.57807 0.92864 0.0
H400 H 0.42605 0.62788 0.81255 0.0
H401 H 0.3509 0.55704 0.8564 0.0
S402 S 0.50268 0.66279 0.01097 0.0
N403 N 0.52284 0.68841 0.95557 0.0
N404 N 0.44163 0.61214 0.0034 0.0
C405 C 0.43515 0.614 0.95392 0.0
C406 C 0.4792 0.65566 0.92809 0.0
C407 C 0.82924 0.41914 0.02392 0.0
C408 C 0.82711 0.46055 0.04903 0.0
C409 C 0.82856 0.37676 0.04942 0.0
C410 C 0.8263 0.37411 0.10123 0.0
H411 H 0.83008 0.41859 0.98402 0.0
H412 H 0.82943 0.34562 0.02813 0.0
S413 S 0.82346 0.47436 0.18477 0.0
N414 N 0.82501 0.49749 0.12887 0.0
N415 N 0.82394 0.41819 0.17691 0.0
C416 C 0.82567 0.41612 0.12694 0.0
C417 C 0.82595 0.45911 0.10086 0.0
C418 C 0.42676 0.80922 0.18985 0.0
C419 C 0.38717 0.81492 0.21447 0.0
C420 C 0.46934 0.81036 0.21547 0.0
C421 C 0.47467 0.81784 0.26688 0.0
H422 H 0.42459 0.80316 0.15032 0.0
H423 H 0.49834 0.80534 0.19458 0.0
S424 S 0.38288 0.83745 0.34853 0.0
N425 N 0.35672 0.82996 0.29298 0.0
N426 N 0.43678 0.83248 0.34139 0.0
C427 C 0.43567 0.82444 0.29195 0.0
C428 C 0.39194 0.82276 0.26576 0.0
C429 C 0.68037 0.41986 0.39496 0.0
C430 C 0.67497 0.46157 0.4152 0.0
C431 C 0.63732 0.37658 0.37128 0.0
C432 C 0.58786 0.3741 0.36654 0.0
H433 H 0.71758 0.41984 0.3988 0.0
H434 H 0.64259 0.34468 0.3569 0.0
S435 S 0.55503 0.4759 0.40787 0.0
N436 N 0.61732 0.49924 0.42602 0.0
N437 N 0.53688 0.41846 0.38029 0.0
C438 C 0.58246 0.41633 0.38487 0.0
C439 C 0.62595 0.45997 0.40959 0.0
C440 C 0.22317 0.65927 0.54841 0.0
C441 C 0.22345 0.66135 0.60021 0.0
C442 C 0.2244 0.61762 0.52345 0.0
C443 C 0.22662 0.57657 0.54917 0.0
H444 H 0.22252 0.69035 0.52682 0.0
H445 H 0.22511 0.61856 0.48354 0.0
S446 S 0.22502 0.56135 0.68501 0.0
N447 N 0.22363 0.61698 0.6765 0.0
N448 N 0.22623 0.53906 0.62936 0.0
C449 C 0.22557 0.57732 0.60093 0.0
C450 C 0.22381 0.6195 0.62646 0.0
C451 C 0.63224 0.22916 0.78654 0.0
C452 C 0.58742 0.22459 0.76167 0.0
C453 C 0.67459 0.23014 0.76073 0.0
C454 C 0.67341 0.22576 0.70907 0.0
H455 H 0.63508 0.23279 0.82632 0.0
H456 H 0.7083 0.234 0.78153 0.0
S457 S 0.56406 0.2111 0.62663 0.0
N458 N 0.54384 0.21456 0.68259 0.0
N459 N 0.62288 0.21594 0.63394 0.0
C460 C 0.62837 0.22045 0.68378 0.0
C461 C 0.58559 0.22006 0.71008 0.0
C462 C 0.31599 0.36161 0.86045 0.0
C463 C 0.26281 0.33236 0.87668 0.0
C464 C 0.34102 0.33597 0.83816 0.0
C465 C 0.31357 0.28022 0.83136 0.0
H466 H 0.33976 0.40371 0.8689 0.0
H467 H 0.38321 0.35941 0.83005 0.0
S468 S 0.17022 0.18801 0.85858 0.0
N469 N 0.18152 0.2466 0.87839 0.0
N470 N 0.22729 0.19847 0.83531 0.0
C471 C 0.25866 0.25179 0.84276 0.0
C472 C 0.23364 0.2778 0.86587 0.0
C473 C 0.97488 0.30599 0.02575 0.0
C474 C 0.95305 0.25373 0.044 0.0
C475 C 1.0251 0.33165 0.00236 0.0
C476 C 0.05499 0.30579 -0.00313 0.0
H477 H 0.95546 0.32881 0.0336 0.0
H478 H 0.0427 0.37341 -0.00704 0.0
S479 S 1.01051 0.16564 0.03043 0.0
N480 N 0.96156 0.17492 0.04909 0.0
N481 N 0.05508 0.22239 0.00494 0.0
C482 C 0.03077 0.25177 0.01046 0.0
C483 C 0.98006 0.22596 0.03421 0.0
C484 C 0.77157 0.96476 0.19091 0.0
C485 C 0.71696 0.93715 0.20237 0.0
C486 C 0.79559 1.01513 0.16853 0.0
C487 C 0.76614 0.04048 0.15735 0.0
H488 H 0.79688 0.94947 0.2034 0.0
H489 H 0.83849 0.03622 0.16383 0.0
S490 S 0.61998 0.9812 0.17396 0.0
N491 N 0.63276 0.93559 0.1958 0.0
N492 N 0.67755 0.03043 0.15398 0.0
C493 C 0.71035 1.01076 0.164 0.0
C494 C 0.68588 0.95911 0.18661 0.0
C495 C 0.80064 0.78409 0.33878 0.0
C496 C 0.74636 0.75496 0.32484 0.0
C497 C 0.82597 0.75936 0.36166 0.0
C498 C 0.79872 0.70427 0.37036 0.0
H499 H 0.82286 0.8271 0.3356 0.0
H500 H 0.86611 0.78411 0.37569 0.0
S501 S 0.6595 0.60799 0.33393 0.0
N502 N 0.66839 0.66638 0.3162 0.0
N503 N 0.71681 0.62008 0.35826 0.0
C504 C 0.74648 0.6737 0.35201 0.0
C505 C 0.72015 0.69897 0.32932 0.0
C506 C 0.07847 0.81304 0.53106 0.0
C507 C 0.10856 0.78806 0.53959 0.0
C508 C 1.02779 0.78542 0.5093 0.0
C509 C 1.00487 0.73148 0.49557 0.0
H510 H 0.09219 0.85277 0.54527 0.0
H511 H 1.00461 0.80526 0.50689 0.0
S512 S 0.07025 0.64986 0.50479 0.0
N513 N 0.11449 0.70823 0.52813 0.0
N514 N 1.0189 0.65594 0.48725 0.0
C515 C 0.0367 0.70759 0.49946 0.0
C516 C 0.08865 0.73599 0.52159 0.0
C517 C 0.2936 0.07738 0.68673 0.0
C518 C 0.34716 0.10352 0.7018 0.0
C519 C 0.27019 0.02733 0.66364 0.0
C520 C 0.29901 1.00057 0.65576 0.0
H521 H 0.26836 0.09359 0.69666 0.0
H522 H 0.22783 1.00755 0.65581 0.0
S523 S 0.44307 0.0561 0.68256 0.0
N524 N 0.43031 0.10252 0.70205 0.0
N525 N 0.38647 1.00804 0.65941 0.0
C526 C 0.35413 0.02886 0.66624 0.0
C527 C 0.37809 0.08033 0.68928 0.0
C528 C 0.71987 0.71258 0.9695 0.0
C529 C 0.77584 0.73657 0.9719 0.0
C530 C 0.69562 0.73953 0.94807 0.0
C531 C 0.72665 0.79124 0.92864 0.0
H532 H 0.69489 0.67122 0.97995 0.0
H533 H 0.65282 0.71794 0.94243 0.0
S534 S 0.87372 0.87511 0.93507 0.0
N535 N 0.86076 0.81805 0.96031 0.0
N536 N 0.81528 0.86785 0.91967 0.0
C537 C 0.78206 0.81733 0.9356 0.0
C538 C 0.80663 0.79023 0.95738 0.0
C539 C 0.02977 0.7085 0.1338 0.0
C540 C 0.06003 0.76461 0.13631 0.0
C541 C 0.97793 0.68233 0.11344 0.0
C542 C 0.95469 0.71142 0.09505 0.0
H543 H 0.04773 0.68484 0.1438 0.0
H544 H 0.95803 0.63959 0.10799 0.0
S545 S 1.0122 0.85765 0.10231 0.0
N546 N 0.05875 0.84734 0.12609 0.0
N547 N 0.96242 0.79822 0.08715 0.0
C548 C 0.98233 0.76683 0.10188 0.0
C549 C 0.03467 0.7934 0.12272 0.0
C550 C 0.33918 1.01511 0.30734 0.0
C551 C 0.31129 0.04302 0.31361 0.0
C552 C 0.31474 0.9643 0.28511 0.0
C553 C 0.26154 0.93954 0.26862 0.0
H554 H 0.38145 0.03445 0.31542 0.0
H555 H 0.33915 0.94683 0.27636 0.0
S556 S 0.16773 0.98978 0.28573 0.0
N557 N 0.22453 0.03712 0.30913 0.0
N558 N 0.17966 0.94275 0.26652 0.0
C559 C 0.23178 0.96428 0.2795 0.0
C560 C 0.25632 1.01565 0.3023 0.0
C561 C 0.28448 0.22941 0.43528 0.0
C562 C 0.34019 0.25503 0.43031 0.0
C563 C 0.25976 0.25504 0.45741 0.0
C564 C 0.2897 0.30761 0.47526 0.0
H565 H 0.25952 0.19103 0.41794 0.0
H566 H 0.21658 0.23502 0.45688 0.0
S567 S 0.4373 0.38877 0.47853 0.0
N568 N 0.42504 0.33304 0.45071 0.0
N569 N 0.37858 0.38152 0.49261 0.0
C570 C 0.34567 0.3315 0.4754 0.0
C571 C 0.37094 0.30515 0.45272 0.0
C572 C 0.0827 0.35638 0.61528 0.0
C573 C 0.10463 0.32723 0.59427 0.0
C574 C 0.03156 0.33022 0.63692 0.0
C575 C 1.00081 0.2741 0.63819 0.0
H576 H 0.10302 0.39929 0.61111 0.0
H577 H 1.01438 0.35398 0.64889 0.0
S578 S 0.0455 0.18062 0.59718 0.0
N579 N 0.09532 0.24014 0.5825 0.0
N580 N 1.00034 0.19106 0.62375 0.0
C581 C 1.025 0.24512 0.62186 0.0
C582 C 0.07657 0.27165 0.59969 0.0
C583 C 0.82222 0.0758 0.78275 0.0
C584 C 0.7944 0.10247 0.77128 0.0
C585 C 0.79628 0.02503 0.8042 0.0
C586 C 0.74109 0.99828 0.8142 0.0
H587 H 0.86329 0.09231 0.77114 0.0
H588 H 0.81882 1.00476 0.80904 0.0
S589 S 0.65199 0.05464 0.79754 0.0
N590 N 0.7105 0.10177 0.7771 0.0
N591 N 0.66118 1.00577 0.81679 0.0
C592 C 0.71407 0.02691 0.80769 0.0
C593 C 0.74087 0.07913 0.78622 0.0
C594 C 0.1936 0.36222 0.26234 0.0
C595 C 0.23185 0.4082 0.28753 0.0
C596 C 0.18764 0.36247 0.21115 0.0
C597 C 0.21881 0.40901 0.1839 0.0
H598 H 0.16698 0.32623 0.28232 0.0
H599 H 0.15796 0.32643 0.19291 0.0
S600 S 0.32953 0.53759 0.23061 0.0
N601 N 0.30556 0.49964 0.27984 0.0
N602 N 0.29271 0.50048 0.1844 0.0
C603 C 0.25838 0.45459 0.20823 0.0
C604 C 0.26555 0.45396 0.25981 0.0
C605 C 0.87661 0.19044 0.43039 0.0
C606 C 0.82981 0.18135 0.45401 0.0
C607 C 0.8781 0.18801 0.37888 0.0
C608 C 0.83263 0.17582 0.35061 0.0
H609 H 0.91284 0.20301 0.45139 0.0
H610 H 0.91597 0.20037 0.36106 0.0
S611 S 0.69801 0.13735 0.39656 0.0
N612 N 0.73522 0.15133 0.4466 0.0
N613 N 0.73819 0.14663 0.34984 0.0
C614 C 0.78449 0.16123 0.37437 0.0
C615 C 0.78304 0.1641 0.42631 0.0
C616 C 0.6474 0.78985 0.58665 0.0
C617 C 0.67772 0.83455 0.61708 0.0
C618 C 0.65324 0.79324 0.53581 0.0
C619 C 0.68995 0.84117 0.5135 0.0
H620 H 0.61729 0.75212 0.6019 0.0
H621 H 0.62612 0.75922 0.51355 0.0
S622 S 0.78629 0.96648 0.57618 0.0
N623 N 0.75136 0.92592 0.62148 0.0
N624 N 0.76217 0.93219 0.52462 0.0
C625 C 0.72419 0.88472 0.54317 0.0
C626 C 0.71817 0.8814 0.59544 0.0
C627 C 0.88295 0.66575 0.75902 0.0
C628 C 0.835 0.6393 0.786 0.0
C629 C 0.88251 0.66379 0.70736 0.0
C630 C 0.83416 0.63498 0.68187 0.0
H631 H 0.92106 0.68561 0.77792 0.0
H632 H 0.91995 0.68292 0.6875 0.0
S633 S 0.69819 0.56759 0.73464 0.0
N634 N 0.73821 0.58974 0.78302 0.0
N635 N 0.7375 0.58568 0.68605 0.0
C636 C 0.78614 0.6115 0.70821 0.0
C637 C 0.7865 0.61371 0.76039 0.0
C638 C 0.17637 0.84878 0.87855 0.0
C639 C 0.2197 0.86329 0.84673 0.0
C640 C 0.18317 0.84964 0.92978 0.0
C641 C 0.23321 0.8637 0.94991 0.0
H642 H 0.13658 0.83336 0.86381 0.0
H643 H 0.14868 0.83607 0.95343 0.0
S644 S 0.36034 0.91403 0.88145 0.0
N645 N 0.31484 0.8994 0.83829 0.0
N646 N 0.3279 0.89918 0.93428 0.0
C647 C 0.27737 0.88193 0.91822 0.0
C648 C 0.27052 0.88225 0.86655 0.0
C649 C 0.34904 0.1988 0.0394 0.0
C650 C 0.37451 0.17323 0.01842 0.0
C651 C 0.34714 0.20285 0.09075 0.0
C652 C 0.36983 0.18062 0.12166 0.0
H653 H 0.33444 0.21922 0.01627 0.0
H654 H 0.33167 0.22685 0.10618 0.0
S655 S 0.43265 0.10249 0.08512 0.0
N656 N 0.41668 0.1198 0.03263 0.0
N657 N 0.41236 0.12748 0.12898 0.0
C658 C 0.39077 0.15102 0.1013 0.0
C659 C 0.39322 0.1472 0.0495 0.0
loop_
_geom_bond_atom_site_label_1
_geom_bond_atom_site_label_2
_geom_bond_distance
_geom_bond_site_symmetry_2
_ccdc_geom_bond_type
Sc0 O3 2.025 1_556 S
Sc0 O10 2.105 . S
Sc0 O13 2.105 . S
Sc0 O16 2.105 . S
Sc0 O19 2.105 1_556 S
Sc1 O3 2.025 . S
Sc1 O11 2.105 . S
Sc1 O15 2.105 . S
Sc1 O17 2.105 . S
Sc1 O21 2.105 . S
Sc2 O3 2.025 . S
Sc2 O12 2.105 . S
Sc2 O14 2.105 . S
Sc2 O18 2.105 . S
Sc2 O20 2.105 . S
O3 Sc0 2.025 1_554 S
O3 Sc1 2.025 . S
O3 Sc2 2.025 . S
C4 O10 1.268 1_554 S
C4 O20 1.268 . S
C5 O11 1.268 . S
C5 O19 1.268 . S
C6 O12 1.268 . S
C6 O21 1.268 . S
C7 O13 1.268 . S
C7 O17 1.268 1_556 S
C8 O14 1.268 1_556 S
C8 O16 1.268 . S
C9 O15 1.268 . S
C9 O18 1.268 . S
O10 Sc0 2.105 . S
O10 C4 1.268 1_556 S
O11 Sc1 2.105 . S
O11 C5 1.268 . S
O12 Sc2 2.105 . S
O12 C6 1.268 . S
O13 Sc0 2.105 . S
O13 C7 1.268 . S
O14 Sc2 2.105 . S
O14 C8 1.268 1_554 S
O15 Sc1 2.105 . S
O15 C9 1.268 . S
O16 Sc0 2.105 . S
O16 C8 1.268 . S
O17 Sc1 2.105 . S
O17 C7 1.268 1_554 S
O18 Sc2 2.105 . S
O18 C9 1.268 . S
O19 Sc0 2.105 1_554 S
O19 C5 1.268 . S
O20 Sc2 2.105 . S
O20 C4 1.268 . S
O21 Sc1 2.105 . S
O21 C6 1.268 . S
Sc22 O25 2.025 . S
Sc22 O32 2.105 . S
Sc22 O35 2.105 . S
Sc22 O38 2.105 . S
Sc22 O41 2.105 . S
Sc23 O25 2.025 . S
Sc23 O33 2.105 . S
Sc23 O37 2.105 . S
Sc23 O39 2.105 . S
Sc23 O43 2.105 . S
Sc24 O25 2.025 . S
Sc24 O34 2.105 . S
Sc24 O36 2.105 . S
Sc24 O40 2.105 . S
Sc24 O42 2.105 . S
O25 Sc22 2.025 . S
O25 Sc23 2.025 . S
O25 Sc24 2.025 . S
C26 O32 1.268 . S
C26 O42 1.268 . S
C27 O33 1.268 . S
C27 O41 1.268 . S
C28 O34 1.268 . S
C28 O43 1.268 . S
C29 O35 1.268 . S
C29 O39 1.268 . S
C30 O36 1.268 . S
C30 O38 1.268 . S
C31 O37 1.268 . S
C31 O40 1.268 . S
O32 Sc22 2.105 . S
O32 C26 1.268 . S
O33 Sc23 2.105 . S
O33 C27 1.268 . S
O34 Sc24 2.105 . S
O34 C28 1.268 . S
O35 Sc22 2.105 . S
O35 C29 1.268 . S
O36 Sc24 2.105 . S
O36 C30 1.268 . S
O37 Sc23 2.105 . S
O37 C31 1.268 . S
O38 Sc22 2.105 . S
O38 C30 1.268 . S
O39 Sc23 2.105 . S
O39 C29 1.268 . S
O40 Sc24 2.105 . S
O40 C31 1.268 . S
O41 Sc22 2.105 . S
O41 C27 1.268 . S
O42 Sc24 2.105 . S
O42 C26 1.268 . S
O43 Sc23 2.105 . S
O43 C28 1.268 . S
Sc44 O47 2.025 . S
Sc44 O54 2.105 . S
Sc44 O57 2.105 . S
Sc44 O60 2.105 . S
Sc44 O63 2.105 . S
Sc45 O47 2.025 . S
Sc45 O55 2.105 . S
Sc45 O59 2.105 . S
Sc45 O61 2.105 . S
Sc45 O65 2.105 . S
Sc46 O47 2.025 . S
Sc46 O56 2.105 . S
Sc46 O58 2.105 . S
Sc46 O62 2.105 . S
Sc46 O64 2.105 . S
O47 Sc44 2.025 . S
O47 Sc45 2.025 . S
O47 Sc46 2.025 . S
C48 O54 1.268 . S
C48 O64 1.268 . S
C49 O55 1.268 . S
C49 O63 1.268 . S
C50 O56 1.268 . S
C50 O65 1.268 . S
C51 O57 1.268 . S
C51 O61 1.268 . S
C52 O58 1.268 . S
C52 O60 1.268 . S
C53 O59 1.268 . S
C53 O62 1.268 . S
O54 Sc44 2.105 . S
O54 C48 1.268 . S
O55 Sc45 2.105 . S
O55 C49 1.268 . S
O56 Sc46 2.105 . S
O56 C50 1.268 . S
O57 Sc44 2.105 . S
O57 C51 1.268 . S
O58 Sc46 2.105 . S
O58 C52 1.268 . S
O59 Sc45 2.105 . S
O59 C53 1.268 . S
O60 Sc44 2.105 . S
O60 C52 1.268 . S
O61 Sc45 2.105 . S
O61 C51 1.268 . S
O62 Sc46 2.105 . S
O62 C53 1.268 . S
O63 Sc44 2.105 . S
O63 C49 1.268 . S
O64 Sc46 2.105 . S
O64 C48 1.268 . S
O65 Sc45 2.105 . S
O65 C50 1.268 . S
Sc66 O69 2.025 . S
Sc66 O76 2.105 . S
Sc66 O79 2.105 . S
Sc66 O82 2.105 . S
Sc66 O85 2.105 . S
Sc67 O69 2.025 . S
Sc67 O77 2.105 . S
Sc67 O81 2.105 . S
Sc67 O83 2.105 . S
Sc67 O87 2.105 . S
Sc68 O69 2.025 . S
Sc68 O78 2.105 . S
Sc68 O80 2.105 . S
Sc68 O84 2.105 . S
Sc68 O86 2.105 . S
O69 Sc66 2.025 . S
O69 Sc67 2.025 . S
O69 Sc68 2.025 . S
C70 O76 1.268 . S
C70 O86 1.268 . S
C71 O77 1.268 . S
C71 O85 1.268 . S
C72 O78 1.268 . S
C72 O87 1.268 . S
C73 O79 1.268 . S
C73 O83 1.268 . S
C74 O80 1.268 . S
C74 O82 1.268 . S
C75 O81 1.268 . S
C75 O84 1.268 . S
O76 Sc66 2.105 . S
O76 C70 1.268 . S
O77 Sc67 2.105 . S
O77 C71 1.268 . S
O78 Sc68 2.105 . S
O78 C72 1.268 . S
O79 Sc66 2.105 . S
O79 C73 1.268 . S
O80 Sc68 2.105 . S
O80 C74 1.268 . S
O81 Sc67 2.105 . S
O81 C75 1.268 . S
O82 Sc66 2.105 . S
O82 C74 1.268 . S
O83 Sc67 2.105 . S
O83 C73 1.268 . S
O84 Sc68 2.105 . S
O84 C75 1.268 . S
O85 Sc66 2.105 . S
O85 C71 1.268 . S
O86 Sc68 2.105 . S
O86 C70 1.268 . S
O87 Sc67 2.105 . S
O87 C72 1.268 . S
Sc88 O91 2.025 . S
Sc88 O98 2.105 . S
Sc88 O101 2.105 . S
Sc88 O104 2.105 . S
Sc88 O107 2.105 . S
Sc89 O91 2.025 . S
Sc89 O99 2.105 . S
Sc89 O103 2.105 . S
Sc89 O105 2.105 . S
Sc89 O109 2.105 . S
Sc90 O91 2.025 . S
Sc90 O100 2.105 . S
Sc90 O102 2.105 . S
Sc90 O106 2.105 . S
Sc90 O108 2.105 . S
O91 Sc88 2.025 . S
O91 Sc89 2.025 . S
O91 Sc90 2.025 . S
C92 O98 1.268 . S
C92 O108 1.268 . S
C93 O99 1.268 . S
C93 O107 1.268 . S
C94 O100 1.268 . S
C94 O109 1.268 . S
C95 O101 1.268 . S
C95 O105 1.268 . S
C96 O102 1.268 . S
C96 O104 1.268 . S
C97 O103 1.268 . S
C97 O106 1.268 . S
O98 Sc88 2.105 . S
O98 C92 1.268 . S
O99 Sc89 2.105 . S
O99 C93 1.268 . S
O100 Sc90 2.105 . S
O100 C94 1.268 . S
O101 Sc88 2.105 . S
O101 C95 1.268 . S
O102 Sc90 2.105 . S
O102 C96 1.268 . S
O103 Sc89 2.105 . S
O103 C97 1.268 . S
O104 Sc88 2.105 . S
O104 C96 1.268 . S
O105 Sc89 2.105 . S
O105 C95 1.268 . S
O106 Sc90 2.105 . S
O106 C97 1.268 . S
O107 Sc88 2.105 . S
O107 C93 1.268 . S
O108 Sc90 2.105 . S
O108 C92 1.268 . S
O109 Sc89 2.105 . S
O109 C94 1.268 . S
Sc110 O113 2.025 . S
Sc110 O120 2.105 . S
Sc110 O123 2.105 . S
Sc110 O126 2.105 . S
Sc110 O129 2.105 . S
Sc111 O113 2.025 . S
Sc111 O121 2.105 . S
Sc111 O125 2.105 . S
Sc111 O127 2.105 . S
Sc111 O131 2.105 . S
Sc112 O113 2.025 . S
Sc112 O122 2.105 . S
Sc112 O124 2.105 . S
Sc112 O128 2.105 . S
Sc112 O130 2.105 . S
O113 Sc110 2.025 . S
O113 Sc111 2.025 . S
O113 Sc112 2.025 . S
C114 O120 1.268 . S
C114 O130 1.268 . S
C115 O121 1.268 . S
C115 O129 1.268 . S
C116 O122 1.268 . S
C116 O131 1.268 . S
C117 O123 1.268 1_554 S
C117 O127 1.268 1_554 S
C118 O124 1.268 . S
C118 O126 1.268 . S
C119 O125 1.268 . S
C119 O128 1.268 . S
O120 Sc110 2.105 . S
O120 C114 1.268 . S
O121 Sc111 2.105 . S
O121 C115 1.268 . S
O122 Sc112 2.105 . S
O122 C116 1.268 . S
O123 Sc110 2.105 . S
O123 C117 1.268 1_556 S
O124 Sc112 2.105 . S
O124 C118 1.268 . S
O125 Sc111 2.105 . S
O125 C119 1.268 . S
O126 Sc110 2.105 . S
O126 C118 1.268 . S
O127 Sc111 2.105 . S
O127 C117 1.268 1_556 S
O128 Sc112 2.105 . S
O128 C119 1.268 . S
O129 Sc110 2.105 . S
O129 C115 1.268 . S
O130 Sc112 2.105 . S
O130 C114 1.268 . S
O131 Sc111 2.105 . S
O131 C116 1.268 . S
Sc132 O135 2.025 . S
Sc132 O142 2.105 . S
Sc132 O145 2.105 . S
Sc132 O148 2.105 . S
Sc132 O151 2.105 . S
Sc133 O135 2.025 . S
Sc133 O143 2.105 . S
Sc133 O147 2.105 . S
Sc133 O149 2.105 . S
Sc133 O153 2.105 . S
Sc134 O135 2.025 . S
Sc134 O144 2.105 . S
Sc134 O146 2.105 . S
Sc134 O150 2.105 . S
Sc134 O152 2.105 . S
O135 Sc132 2.025 . S
O135 Sc133 2.025 . S
O135 Sc134 2.025 . S
C136 O142 1.268 . S
C136 O152 1.268 . S
C137 O143 1.268 . S
C137 O151 1.268 . S
C138 O144 1.268 . S
C138 O153 1.268 . S
C139 O145 1.268 . S
C139 O149 1.268 . S
C140 O146 1.268 . S
C140 O148 1.268 . S
C141 O147 1.268 . S
C141 O150 1.268 . S
O142 Sc132 2.105 . S
O142 C136 1.268 . S
O143 Sc133 2.105 . S
O143 C137 1.268 . S
O144 Sc134 2.105 . S
O144 C138 1.268 . S
O145 Sc132 2.105 . S
O145 C139 1.268 . S
O146 Sc134 2.105 . S
O146 C140 1.268 . S
O147 Sc133 2.105 . S
O147 C141 1.268 . S
O148 Sc132 2.105 . S
O148 C140 1.268 . S
O149 Sc133 2.105 . S
O149 C139 1.268 . S
O150 Sc134 2.105 . S
O150 C141 1.268 . S
O151 Sc132 2.105 . S
O151 C137 1.268 . S
O152 Sc134 2.105 . S
O152 C136 1.268 . S
O153 Sc133 2.105 . S
O153 C138 1.268 . S
Sc154 O157 2.025 . S
Sc154 O164 2.105 . S
Sc154 O167 2.105 . S
Sc154 O170 2.105 . S
Sc154 O173 2.105 . S
Sc155 O157 2.025 . S
Sc155 O165 2.105 . S
Sc155 O169 2.105 . S
Sc155 O171 2.105 . S
Sc155 O175 2.105 . S
Sc156 O157 2.025 1_554 S
Sc156 O166 2.105 . S
Sc156 O168 2.105 . S
Sc156 O172 2.105 1_554 S
Sc156 O174 2.105 . S
O157 Sc154 2.025 . S
O157 Sc155 2.025 . S
O157 Sc156 2.025 1_556 S
C158 O164 1.268 1_554 S
C158 O174 1.268 . S
C159 O165 1.268 . S
C159 O173 1.268 . S
C160 O166 1.268 . S
C160 O175 1.268 1_554 S
C161 O167 1.268 . S
C161 O171 1.268 . S
C162 O168 1.268 1_556 S
C162 O170 1.268 . S
C163 O169 1.268 . S
C163 O172 1.268 . S
O164 Sc154 2.105 . S
O164 C158 1.268 1_556 S
O165 Sc155 2.105 . S
O165 C159 1.268 . S
O166 Sc156 2.105 . S
O166 C160 1.268 . S
O167 Sc154 2.105 . S
O167 C161 1.268 . S
O168 Sc156 2.105 . S
O168 C162 1.268 1_554 S
O169 Sc155 2.105 . S
O169 C163 1.268 . S
O170 Sc154 2.105 . S
O170 C162 1.268 . S
O171 Sc155 2.105 . S
O171 C161 1.268 . S
O172 Sc156 2.105 1_556 S
O172 C163 1.268 . S
O173 Sc154 2.105 . S
O173 C159 1.268 . S
O174 Sc156 2.105 . S
O174 C158 1.268 . S
O175 Sc155 2.105 . S
O175 C160 1.268 1_556 S
Sc176 O179 2.025 . S
Sc176 O186 2.105 . S
Sc176 O189 2.105 . S
Sc176 O192 2.105 . S
Sc176 O195 2.105 . S
Sc177 O179 2.025 . S
Sc177 O187 2.105 . S
Sc177 O191 2.105 . S
Sc177 O193 2.105 . S
Sc177 O197 2.105 . S
Sc178 O179 2.025 . S
Sc178 O188 2.105 . S
Sc178 O190 2.105 . S
Sc178 O194 2.105 . S
Sc178 O196 2.105 . S
O179 Sc176 2.025 . S
O179 Sc177 2.025 . S
O179 Sc178 2.025 . S
C180 O186 1.268 . S
C180 O196 1.268 . S
C181 O187 1.268 . S
C181 O195 1.268 . S
C182 O188 1.268 . S
C182 O197 1.268 . S
C183 O189 1.268 1_556 S
C183 O193 1.268 1_556 S
C184 O190 1.268 . S
C184 O192 1.268 . S
C185 O191 1.268 . S
C185 O194 1.268 . S
O186 Sc176 2.105 . S
O186 C180 1.268 . S
O187 Sc177 2.105 . S
O187 C181 1.268 . S
O188 Sc178 2.105 . S
O188 C182 1.268 . S
O189 Sc176 2.105 . S
O189 C183 1.268 1_554 S
O190 Sc178 2.105 . S
O190 C184 1.268 . S
O191 Sc177 2.105 . S
O191 C185 1.268 . S
O192 Sc176 2.105 . S
O192 C184 1.268 . S
O193 Sc177 2.105 . S
O193 C183 1.268 1_554 S
O194 Sc178 2.105 . S
O194 C185 1.268 . S
O195 Sc176 2.105 . S
O195 C181 1.268 . S
O196 Sc178 2.105 . S
O196 C180 1.268 . S
O197 Sc177 2.105 . S
O197 C182 1.268 . S
Sc198 O201 2.025 . S
Sc198 O208 2.105 . S
Sc198 O211 2.105 . S
Sc198 O214 2.105 . S
Sc198 O217 2.105 . S
Sc199 O201 2.025 . S
Sc199 O209 2.105 . S
Sc199 O213 2.105 . S
Sc199 O215 2.105 . S
Sc199 O219 2.105 . S
Sc200 O201 2.025 . S
Sc200 O210 2.105 . S
Sc200 O212 2.105 . S
Sc200 O216 2.105 . S
Sc200 O218 2.105 . S
O201 Sc198 2.025 . S
O201 Sc199 2.025 . S
O201 Sc200 2.025 . S
C202 O208 1.268 . S
C202 O218 1.268 . S
C203 O209 1.268 . S
C203 O217 1.268 . S
C204 O210 1.268 . S
C204 O219 1.268 . S
C205 O211 1.268 . S
C205 O215 1.268 . S
C206 O212 1.268 . S
C206 O214 1.268 . S
C207 O213 1.268 . S
C207 O216 1.268 . S
O208 Sc198 2.105 . S
O208 C202 1.268 . S
O209 Sc199 2.105 . S
O209 C203 1.268 . S
O210 Sc200 2.105 . S
O210 C204 1.268 . S
O211 Sc198 2.105 . S
O211 C205 1.268 . S
O212 Sc200 2.105 . S
O212 C206 1.268 . S
O213 Sc199 2.105 . S
O213 C207 1.268 . S
O214 Sc198 2.105 . S
O214 C206 1.268 . S
O215 Sc199 2.105 . S
O215 C205 1.268 . S
O216 Sc200 2.105 . S
O216 C207 1.268 . S
O217 Sc198 2.105 . S
O217 C203 1.268 . S
O218 Sc200 2.105 . S
O218 C202 1.268 . S
O219 Sc199 2.105 . S
O219 C204 1.268 . S
Sc220 O223 2.025 . S
Sc220 O230 2.105 . S
Sc220 O233 2.105 . S
Sc220 O236 2.105 . S
Sc220 O239 2.105 . S
Sc221 O223 2.025 . S
Sc221 O231 2.105 . S
Sc221 O235 2.105 . S
Sc221 O237 2.105 . S
Sc221 O241 2.105 . S
Sc222 O223 2.025 . S
Sc222 O232 2.105 . S
Sc222 O234 2.105 . S
Sc222 O238 2.105 . S
Sc222 O240 2.105 . S
O223 Sc220 2.025 . S
O223 Sc221 2.025 . S
O223 Sc222 2.025 . S
C224 O230 1.268 . S
C224 O240 1.268 . S
C225 O231 1.268 . S
C225 O239 1.268 . S
C226 O232 1.268 . S
C226 O241 1.268 . S
C227 O233 1.268 . S
C227 O237 1.268 . S
C228 O234 1.268 . S
C228 O236 1.268 . S
C229 O235 1.268 . S
C229 O238 1.268 . S
O230 Sc220 2.105 . S
O230 C224 1.268 . S
O231 Sc221 2.105 . S
O231 C225 1.268 . S
O232 Sc222 2.105 . S
O232 C226 1.268 . S
O233 Sc220 2.105 . S
O233 C227 1.268 . S
O234 Sc222 2.105 . S
O234 C228 1.268 . S
O235 Sc221 2.105 . S
O235 C229 1.268 . S
O236 Sc220 2.105 . S
O236 C228 1.268 . S
O237 Sc221 2.105 . S
O237 C227 1.268 . S
O238 Sc222 2.105 . S
O238 C229 1.268 . S
O239 Sc220 2.105 . S
O239 C225 1.268 . S
O240 Sc222 2.105 . S
O240 C224 1.268 . S
O241 Sc221 2.105 . S
O241 C226 1.268 . S
Sc242 O245 2.025 . S
Sc242 O252 2.105 . S
Sc242 O255 2.105 . S
Sc242 O258 2.105 . S
Sc242 O261 2.105 . S
Sc243 O245 2.025 . S
Sc243 O253 2.105 . S
Sc243 O257 2.105 . S
Sc243 O259 2.105 . S
Sc243 O263 2.105 . S
Sc244 O245 2.025 . S
Sc244 O254 2.105 . S
Sc244 O256 2.105 . S
Sc244 O260 2.105 . S
Sc244 O262 2.105 . S
O245 Sc242 2.025 . S
O245 Sc243 2.025 . S
O245 Sc244 2.025 . S
C246 O252 1.268 . S
C246 O262 1.268 . S
C247 O253 1.268 . S
C247 O261 1.268 . S
C248 O254 1.268 . S
C248 O263 1.268 . S
C249 O255 1.268 . S
C249 O259 1.268 . S
C250 O256 1.268 . S
C250 O258 1.268 . S
C251 O257 1.268 . S
C251 O260 1.268 . S
O252 Sc242 2.105 . S
O252 C246 1.268 . S
O253 Sc243 2.105 . S
O253 C247 1.268 . S
O254 Sc244 2.105 . S
O254 C248 1.268 . S
O255 Sc242 2.105 . S
O255 C249 1.268 . S
O256 Sc244 2.105 . S
O256 C250 1.268 . S
O257 Sc243 2.105 . S
O257 C251 1.268 . S
O258 Sc242 2.105 . S
O258 C250 1.268 . S
O259 Sc243 2.105 . S
O259 C249 1.268 . S
O260 Sc244 2.105 . S
O260 C251 1.268 . S
O261 Sc242 2.105 . S
O261 C247 1.268 . S
O262 Sc244 2.105 . S
O262 C246 1.268 . S
O263 Sc243 2.105 . S
O263 C248 1.268 . S
C264 C265 1.369 . S
C264 C266 1.419 . S
C264 H268 0.930 . S
C265 C264 1.369 . S
C265 C274 1.429 . S
C266 C264 1.419 . S
C266 C267 1.363 . S
C266 H269 0.929 . S
C267 C266 1.363 . S
C267 C273 1.428 . S
H268 C264 0.930 . S
H269 C266 0.929 . S
S270 N271 1.613 . S
S270 N272 1.610 1_556 S
N271 S270 1.613 . S
N271 C274 1.350 1_556 S
N272 S270 1.610 1_554 S
N272 C273 1.351 . S
C273 C267 1.428 . S
C273 N272 1.351 . S
C273 C274 1.434 . S
C274 C265 1.429 . S
C274 N271 1.350 1_554 S
C274 C273 1.434 . S
C275 C276 1.369 . S
C275 C277 1.419 . S
C275 H279 0.930 . S
C276 C275 1.369 . S
C276 C285 1.429 . S
C277 C275 1.419 . S
C277 C278 1.363 . S
C277 H280 0.929 . S
C278 C277 1.363 . S
C278 C284 1.428 . S
H279 C275 0.930 . S
H280 C277 0.929 . S
S281 N282 1.613 . S
S281 N283 1.610 . S
N282 S281 1.613 . S
N282 C285 1.350 . S
N283 S281 1.610 . S
N283 C284 1.351 . S
C284 C278 1.428 . S
C284 N283 1.351 . S
C284 C285 1.434 . S
C285 C276 1.429 . S
C285 N282 1.350 . S
C285 C284 1.434 . S
C286 C287 1.369 . S
C286 C288 1.419 . S
C286 H290 0.930 . S
C287 C286 1.369 . S
C287 C296 1.429 . S
C288 C286 1.419 . S
C288 C289 1.363 . S
C288 H291 0.929 . S
C289 C288 1.363 . S
C289 C295 1.428 . S
H290 C286 0.930 . S
H291 C288 0.929 . S
S292 N293 1.613 . S
S292 N294 1.610 . S
N293 S292 1.613 . S
N293 C296 1.350 . S
N294 S292 1.610 . S
N294 C295 1.351 . S
C295 C289 1.428 . S
C295 N294 1.351 . S
C295 C296 1.434 . S
C296 C287 1.429 . S
C296 N293 1.350 . S
C296 C295 1.434 . S
C297 C298 1.369 . S
C297 C299 1.419 . S
C297 H301 0.930 . S
C298 C297 1.369 . S
C298 C307 1.429 . S
C299 C297 1.419 . S
C299 C300 1.363 . S
C299 H302 0.929 . S
C300 C299 1.363 . S
C300 C306 1.428 . S
H301 C297 0.930 . S
H302 C299 0.929 . S
S303 N304 1.613 . S
S303 N305 1.610 . S
N304 S303 1.613 . S
N304 C307 1.350 . S
N305 S303 1.610 . S
N305 C306 1.351 . S
C306 C300 1.428 . S
C306 N305 1.351 . S
C306 C307 1.434 . S
C307 C298 1.429 . S
C307 N304 1.350 . S
C307 C306 1.434 . S
C308 C309 1.369 . S
C308 C310 1.419 . S
C308 H312 0.930 . S
C309 C308 1.369 . S
C309 C318 1.429 . S
C310 C308 1.419 . S
C310 C311 1.363 . S
C310 H313 0.929 . S
C311 C310 1.363 . S
C311 C317 1.428 . S
H312 C308 0.930 . S
H313 C310 0.929 . S
S314 N315 1.613 . S
S314 N316 1.610 . S
N315 S314 1.613 . S
N315 C318 1.350 . S
N316 S314 1.610 . S
N316 C317 1.351 . S
C317 C311 1.428 . S
C317 N316 1.351 . S
C317 C318 1.434 . S
C318 C309 1.429 . S
C318 N315 1.350 . S
C318 C317 1.434 . S
C319 C320 1.369 . S
C319 C321 1.419 . S
C319 H323 0.930 . S
C320 C319 1.369 . S
C320 C329 1.429 . S
C321 C319 1.419 . S
C321 C322 1.363 . S
C321 H324 0.929 . S
C322 C321 1.363 . S
C322 C328 1.428 . S
H323 C319 0.930 . S
H324 C321 0.929 . S
S325 N326 1.613 . S
S325 N327 1.610 . S
N326 S325 1.613 . S
N326 C329 1.350 . S
N327 S325 1.610 . S
N327 C328 1.351 . S
C328 C322 1.428 . S
C328 N327 1.351 . S
C328 C329 1.434 . S
C329 C320 1.429 . S
C329 N326 1.350 . S
C329 C328 1.434 . S
C330 C331 1.369 . S
C330 C332 1.419 . S
C330 H334 0.930 . S
C331 C330 1.369 . S
C331 C340 1.429 . S
C332 C330 1.419 . S
C332 C333 1.363 . S
C332 H335 0.929 . S
C333 C332 1.363 . S
C333 C339 1.428 . S
H334 C330 0.930 . S
H335 C332 0.929 . S
S336 N337 1.613 . S
S336 N338 1.610 . S
N337 S336 1.613 . S
N337 C340 1.350 . S
N338 S336 1.610 . S
N338 C339 1.351 . S
C339 C333 1.428 . S
C339 N338 1.351 . S
C339 C340 1.434 . S
C340 C331 1.429 . S
C340 N337 1.350 . S
C340 C339 1.434 . S
C341 C342 1.369 1_455 S
C341 C343 1.419 . S
C341 H345 0.930 . S
C342 C341 1.369 1_655 S
C342 C351 1.429 . S
C343 C341 1.419 . S
C343 C344 1.363 . S
C343 H346 0.929 . S
C344 C343 1.363 . S
C344 C350 1.428 1_455 S
H345 C341 0.930 . S
H346 C343 0.929 . S
S347 N348 1.613 . S
S347 N349 1.610 . S
N348 S347 1.613 . S
N348 C351 1.350 . S
N349 S347 1.610 . S
N349 C350 1.351 . S
C350 C344 1.428 1_655 S
C350 N349 1.351 . S
C350 C351 1.434 . S
C351 C342 1.429 . S
C351 N348 1.350 . S
C351 C350 1.434 . S
C352 C353 1.369 . S
C352 C354 1.419 . S
C352 H356 0.930 . S
C353 C352 1.369 . S
C353 C362 1.429 1_545 S
C354 C352 1.419 . S
C354 C355 1.363 1_545 S
C354 H357 0.929 . S
C355 C354 1.363 1_565 S
C355 C361 1.428 . S
H356 C352 0.930 . S
H357 C354 0.929 . S
S358 N359 1.613 . S
S358 N360 1.610 . S
N359 S358 1.613 . S
N359 C362 1.350 . S
N360 S358 1.610 . S
N360 C361 1.351 . S
C361 C355 1.428 . S
C361 N360 1.351 . S
C361 C362 1.434 . S
C362 C353 1.429 1_565 S
C362 N359 1.350 . S
C362 C361 1.434 . S
C363 C364 1.369 . S
C363 C365 1.419 . S
C363 H367 0.930 . S
C364 C363 1.369 . S
C364 C373 1.429 . S
C365 C363 1.419 . S
C365 C366 1.363 . S
C365 H368 0.929 . S
C366 C365 1.363 . S
C366 C372 1.428 . S
H367 C363 0.930 . S
H368 C365 0.929 . S
S369 N370 1.613 . S
S369 N371 1.610 . S
N370 S369 1.613 . S
N370 C373 1.350 . S
N371 S369 1.610 . S
N371 C372 1.351 . S
C372 C366 1.428 . S
C372 N371 1.351 . S
C372 C373 1.434 . S
C373 C364 1.429 . S
C373 N370 1.350 . S
C373 C372 1.434 . S
C374 C375 1.369 . S
C374 C376 1.419 1_455 S
C374 H378 0.930 . S
C375 C374 1.369 . S
C375 C384 1.429 . S
C376 C374 1.419 1_655 S
C376 C377 1.363 . S
C376 H379 0.929 . S
C377 C376 1.363 . S
C377 C383 1.428 . S
H378 C374 0.930 . S
H379 C376 0.929 . S
S380 N381 1.613 . S
S380 N382 1.610 1_455 S
N381 S380 1.613 . S
N381 C384 1.350 . S
N382 S380 1.610 1_655 S
N382 C383 1.351 . S
C383 C377 1.428 . S
C383 N382 1.351 . S
C383 C384 1.434 1_655 S
C384 C375 1.429 . S
C384 N381 1.350 . S
C384 C383 1.434 1_455 S
C385 C386 1.369 . S
C385 C387 1.419 1_556 S
C385 H389 0.930 . S
C386 C385 1.369 . S
C386 C395 1.429 1_545 S
C387 C385 1.419 1_554 S
C387 C388 1.363 1_545 S
C387 H390 0.929 . S
C388 C387 1.363 1_565 S
C388 C394 1.424 1_554 S
H389 C385 0.930 . S
H390 C387 0.929 . S
S391 N392 1.613 . S
S391 N393 1.610 . S
N392 S391 1.613 . S
N392 C395 1.350 . S
N393 S391 1.610 . S
N393 C394 1.352 . S
C394 C388 1.424 1_556 S
C394 N393 1.352 . S
C394 C395 1.438 . S
C395 C386 1.429 1_565 S
C395 N392 1.350 . S
C395 C394 1.438 . S
C396 C397 1.369 . S
C396 C398 1.419 . S
C396 H400 0.930 . S
C397 C396 1.369 . S
C397 C406 1.429 . S
C398 C396 1.419 . S
C398 C399 1.363 . S
C398 H401 0.929 . S
C399 C398 1.363 . S
C399 C405 1.428 . S
H400 C396 0.930 . S
H401 C398 0.929 . S
S402 N403 1.613 . S
S402 N404 1.610 . S
N403 S402 1.613 . S
N403 C406 1.350 . S
N404 S402 1.610 . S
N404 C405 1.351 . S
C405 C399 1.428 . S
C405 N404 1.351 . S
C405 C406 1.434 . S
C406 C397 1.429 . S
C406 N403 1.350 . S
C406 C405 1.434 . S
C407 C408 1.369 . S
C407 C409 1.419 . S
C407 H411 0.930 . S
C408 C407 1.369 . S
C408 C417 1.429 . S
C409 C407 1.419 . S
C409 C410 1.363 . S
C409 H412 0.929 . S
C410 C409 1.363 . S
C410 C416 1.428 . S
H411 C407 0.930 . S
H412 C409 0.929 . S
S413 N414 1.613 . S
S413 N415 1.610 . S
N414 S413 1.613 . S
N414 C417 1.350 . S
N415 S413 1.610 . S
N415 C416 1.351 . S
C416 C410 1.428 . S
C416 N415 1.351 . S
C416 C417 1.434 . S
C417 C408 1.429 . S
C417 N414 1.350 . S
C417 C416 1.434 . S
C418 C419 1.369 . S
C418 C420 1.419 . S
C418 H422 0.930 . S
C419 C418 1.369 . S
C419 C428 1.429 . S
C420 C418 1.419 . S
C420 C421 1.363 . S
C420 H423 0.929 . S
C421 C420 1.363 . S
C421 C427 1.428 . S
H422 C418 0.930 . S
H423 C420 0.929 . S
S424 N425 1.613 . S
S424 N426 1.610 . S
N425 S424 1.613 . S
N425 C428 1.350 . S
N426 S424 1.610 . S
N426 C427 1.351 . S
C427 C421 1.428 . S
C427 N426 1.351 . S
C427 C428 1.434 . S
C428 C419 1.429 . S
C428 N425 1.350 . S
C428 C427 1.434 . S
C429 C430 1.369 . S
C429 C431 1.419 . S
C429 H433 0.930 . S
C430 C429 1.369 . S
C430 C439 1.429 . S
C431 C429 1.419 . S
C431 C432 1.363 . S
C431 H434 0.929 . S
C432 C431 1.363 . S
C432 C438 1.428 . S
H433 C429 0.930 . S
H434 C431 0.929 . S
S435 N436 1.613 . S
S435 N437 1.610 . S
N436 S435 1.613 . S
N436 C439 1.350 . S
N437 S435 1.610 . S
N437 C438 1.351 . S
C438 C432 1.428 . S
C438 N437 1.351 . S
C438 C439 1.434 . S
C439 C430 1.429 . S
C439 N436 1.350 . S
C439 C438 1.434 . S
C440 C441 1.369 . S
C440 C442 1.419 . S
C440 H444 0.930 . S
C441 C440 1.369 . S
C441 C450 1.429 . S
C442 C440 1.419 . S
C442 C443 1.363 . S
C442 H445 0.929 . S
C443 C442 1.363 . S
C443 C449 1.428 . S
H444 C440 0.930 . S
H445 C442 0.929 . S
S446 N447 1.613 . S
S446 N448 1.610 . S
N447 S446 1.613 . S
N447 C450 1.350 . S
N448 S446 1.610 . S
N448 C449 1.351 . S
C449 C443 1.428 . S
C449 N448 1.351 . S
C449 C450 1.434 . S
C450 C441 1.429 . S
C450 N447 1.350 . S
C450 C449 1.434 . S
C451 C452 1.369 . S
C451 C453 1.419 . S
C451 H455 0.930 . S
C452 C451 1.369 . S
C452 C461 1.429 . S
C453 C451 1.419 . S
C453 C454 1.363 . S
C453 H456 0.929 . S
C454 C453 1.363 . S
C454 C460 1.428 . S
H455 C451 0.930 . S
H456 C453 0.929 . S
S457 N458 1.613 . S
S457 N459 1.610 . S
N458 S457 1.613 . S
N458 C461 1.350 . S
N459 S457 1.610 . S
N459 C460 1.351 . S
C460 C454 1.428 . S
C460 N459 1.351 . S
C460 C461 1.434 . S
C461 C452 1.429 . S
C461 N458 1.350 . S
C461 C460 1.434 . S
C462 C463 1.369 . S
C462 C464 1.419 . S
C462 H466 0.930 . S
C463 C462 1.369 . S
C463 C472 1.429 . S
C464 C462 1.419 . S
C464 C465 1.363 . S
C464 H467 0.929 . S
C465 C464 1.363 . S
C465 C471 1.428 . S
H466 C462 0.930 . S
H467 C464 0.929 . S
S468 N469 1.613 . S
S468 N470 1.610 1_554 S
N469 S468 1.613 . S
N469 C472 1.350 1_554 S
N470 S468 1.610 1_556 S
N470 C471 1.351 . S
C471 C465 1.428 . S
C471 N470 1.351 . S
C471 C472 1.434 . S
C472 C463 1.429 . S
C472 N469 1.350 1_556 S
C472 C471 1.434 . S
C473 C474 1.369 . S
C473 C475 1.419 1_655 S
C473 H477 0.930 . S
C474 C473 1.369 . S
C474 C483 1.429 . S
C475 C473 1.419 1_455 S
C475 C476 1.363 . S
C475 H478 0.929 . S
C476 C475 1.363 . S
C476 C482 1.428 . S
H477 C473 0.930 . S
H478 C475 0.929 . S
S479 N480 1.613 1_556 S
S479 N481 1.610 1_655 S
N480 S479 1.613 1_554 S
N480 C483 1.350 . S
N481 S479 1.610 1_455 S
N481 C482 1.351 1_556 S
C482 C476 1.428 . S
C482 N481 1.351 1_554 S
C482 C483 1.434 1_455 S
C483 C474 1.429 . S
C483 N480 1.350 . S
C483 C482 1.434 1_655 S
C484 C485 1.369 . S
C484 C486 1.419 1_565 S
C484 H488 0.930 . S
C485 C484 1.369 . S
C485 C494 1.429 . S
C486 C484 1.419 1_545 S
C486 C487 1.363 . S
C486 H489 0.929 . S
C487 C486 1.363 . S
C487 C493 1.428 . S
H488 C484 0.930 . S
H489 C486 0.929 . S
S490 N491 1.613 . S
S490 N492 1.610 1_565 S
N491 S490 1.613 . S
N491 C494 1.350 . S
N492 S490 1.610 1_545 S
N492 C493 1.351 . S
C493 C487 1.428 . S
C493 N492 1.351 . S
C493 C494 1.434 1_545 S
C494 C485 1.429 . S
C494 N491 1.350 . S
C494 C493 1.434 1_565 S
C495 C496 1.369 . S
C495 C497 1.419 . S
C495 H499 0.930 . S
C496 C495 1.369 . S
C496 C505 1.429 . S
C497 C495 1.419 . S
C497 C498 1.363 . S
C497 H500 0.929 . S
C498 C497 1.363 . S
C498 C504 1.428 . S
H499 C495 0.930 . S
H500 C497 0.929 . S
S501 N502 1.613 . S
S501 N503 1.610 . S
N502 S501 1.613 . S
N502 C505 1.350 . S
N503 S501 1.610 . S
N503 C504 1.351 . S
C504 C498 1.428 . S
C504 N503 1.351 . S
C504 C505 1.434 . S
C505 C496 1.429 . S
C505 N502 1.350 . S
C505 C504 1.434 . S
C506 C507 1.369 . S
C506 C508 1.419 1_455 S
C506 H510 0.930 . S
C507 C506 1.369 . S
C507 C516 1.429 . S
C508 C506 1.419 1_655 S
C508 C509 1.363 . S
C508 H511 0.929 . S
C509 C508 1.363 . S
C509 C515 1.428 . S
H510 C506 0.930 . S
H511 C508 0.929 . S
S512 N513 1.613 . S
S512 N514 1.610 1_455 S
N513 S512 1.613 . S
N513 C516 1.350 . S
N514 S512 1.610 1_655 S
N514 C515 1.351 . S
C515 C509 1.428 . S
C515 N514 1.351 . S
C515 C516 1.434 1_655 S
C516 C507 1.429 . S
C516 N513 1.350 . S
C516 C515 1.434 1_455 S
C517 C518 1.369 . S
C517 C519 1.419 1_545 S
C517 H521 0.930 . S
C518 C517 1.369 . S
C518 C527 1.429 . S
C519 C517 1.419 1_565 S
C519 C520 1.363 . S
C519 H522 0.929 . S
C520 C519 1.363 . S
C520 C526 1.428 . S
H521 C517 0.930 . S
H522 C519 0.929 . S
S523 N524 1.613 . S
S523 N525 1.610 1_545 S
N524 S523 1.613 . S
N524 C527 1.350 . S
N525 S523 1.610 1_565 S
N525 C526 1.351 . S
C526 C520 1.428 . S
C526 N525 1.351 . S
C526 C527 1.434 1_565 S
C527 C518 1.429 . S
C527 N524 1.350 . S
C527 C526 1.434 1_545 S
C528 C529 1.369 . S
C528 C530 1.419 . S
C528 H532 0.930 . S
C529 C528 1.369 . S
C529 C538 1.429 . S
C530 C528 1.419 . S
C530 C531 1.363 . S
C530 H533 0.929 . S
C531 C530 1.363 . S
C531 C537 1.428 . S
H532 C528 0.930 . S
H533 C530 0.929 . S
S534 N535 1.613 . S
S534 N536 1.610 . S
N535 S534 1.613 . S
N535 C538 1.350 . S
N536 S534 1.610 . S
N536 C537 1.351 . S
C537 C531 1.428 . S
C537 N536 1.351 . S
C537 C538 1.434 . S
C538 C529 1.429 . S
C538 N535 1.350 . S
C538 C537 1.434 . S
C539 C540 1.369 . S
C539 C541 1.419 1_455 S
C539 H543 0.930 . S
C540 C539 1.369 . S
C540 C549 1.429 . S
C541 C539 1.419 1_655 S
C541 C542 1.363 . S
C541 H544 0.929 . S
C542 C541 1.363 . S
C542 C548 1.428 . S
H543 C539 0.930 . S
H544 C541 0.929 . S
S545 N546 1.613 . S
S545 N547 1.610 1_455 S
N546 S545 1.613 . S
N546 C549 1.350 . S
N547 S545 1.610 1_655 S
N547 C548 1.351 . S
C548 C542 1.428 . S
C548 N547 1.351 . S
C548 C549 1.434 1_655 S
C549 C540 1.429 . S
C549 N546 1.350 . S
C549 C548 1.434 1_455 S
C550 C551 1.369 . S
C550 C552 1.419 1_545 S
C550 H554 0.930 . S
C551 C550 1.369 . S
C551 C560 1.429 . S
C552 C550 1.419 1_565 S
C552 C553 1.363 . S
C552 H555 0.929 . S
C553 C552 1.363 . S
C553 C559 1.428 . S
H554 C550 0.930 . S
H555 C552 0.929 . S
S556 N557 1.613 . S
S556 N558 1.610 1_545 S
N557 S556 1.613 . S
N557 C560 1.350 . S
N558 S556 1.610 1_565 S
N558 C559 1.351 . S
C559 C553 1.428 . S
C559 N558 1.351 . S
C559 C560 1.434 1_565 S
C560 C551 1.429 . S
C560 N557 1.350 . S
C560 C559 1.434 1_545 S
C561 C562 1.369 . S
C561 C563 1.419 . S
C561 H565 0.930 . S
C562 C561 1.369 . S
C562 C571 1.429 . S
C563 C561 1.419 . S
C563 C564 1.363 . S
C563 H566 0.929 . S
C564 C563 1.363 . S
C564 C570 1.428 . S
H565 C561 0.930 . S
H566 C563 0.929 . S
S567 N568 1.613 . S
S567 N569 1.610 . S
N568 S567 1.613 . S
N568 C571 1.350 . S
N569 S567 1.610 . S
N569 C570 1.351 . S
C570 C564 1.428 . S
C570 N569 1.351 . S
C570 C571 1.434 . S
C571 C562 1.429 . S
C571 N568 1.350 . S
C571 C570 1.434 . S
C572 C573 1.369 . S
C572 C574 1.419 1_455 S
C572 H576 0.930 . S
C573 C572 1.369 . S
C573 C582 1.429 . S
C574 C572 1.419 1_655 S
C574 C575 1.363 . S
C574 H577 0.929 . S
C575 C574 1.363 . S
C575 C581 1.428 . S
H576 C572 0.930 . S
H577 C574 0.929 . S
S578 N579 1.613 . S
S578 N580 1.610 1_455 S
N579 S578 1.613 . S
N579 C582 1.350 . S
N580 S578 1.610 1_655 S
N580 C581 1.351 . S
C581 C575 1.428 . S
C581 N580 1.351 . S
C581 C582 1.434 1_655 S
C582 C573 1.429 . S
C582 N579 1.350 . S
C582 C581 1.434 1_455 S
C583 C584 1.369 . S
C583 C585 1.419 1_545 S
C583 H587 0.930 . S
C584 C583 1.369 . S
C584 C593 1.429 . S
C585 C583 1.419 1_565 S
C585 C586 1.363 . S
C585 H588 0.929 . S
C586 C585 1.363 . S
C586 C592 1.428 . S
H587 C583 0.930 . S
H588 C585 0.929 . S
S589 N590 1.613 . S
S589 N591 1.610 1_545 S
N590 S589 1.613 . S
N590 C593 1.350 . S
N591 S589 1.610 1_565 S
N591 C592 1.351 . S
C592 C586 1.428 . S
C592 N591 1.351 . S
C592 C593 1.434 1_565 S
C593 C584 1.429 . S
C593 N590 1.350 . S
C593 C592 1.434 1_545 S
C594 C595 1.369 . S
C594 C596 1.419 . S
C594 H598 0.930 . S
C595 C594 1.369 . S
C595 C604 1.429 . S
C596 C594 1.419 . S
C596 C597 1.363 . S
C596 H599 0.929 . S
C597 C596 1.363 . S
C597 C603 1.428 . S
H598 C594 0.930 . S
H599 C596 0.929 . S
S600 N601 1.613 . S
S600 N602 1.610 . S
N601 S600 1.613 . S
N601 C604 1.350 . S
N602 S600 1.610 . S
N602 C603 1.351 . S
C603 C597 1.428 . S
C603 N602 1.351 . S
C603 C604 1.434 . S
C604 C595 1.429 . S
C604 N601 1.350 . S
C604 C603 1.434 . S
C605 C606 1.369 . S
C605 C607 1.419 . S
C605 H609 0.930 . S
C606 C605 1.369 . S
C606 C615 1.429 . S
C607 C605 1.419 . S
C607 C608 1.363 . S
C607 H610 0.929 . S
C608 C607 1.363 . S
C608 C614 1.428 . S
H609 C605 0.930 . S
H610 C607 0.929 . S
S611 N612 1.613 . S
S611 N613 1.610 . S
N612 S611 1.613 . S
N612 C615 1.350 . S
N613 S611 1.610 . S
N613 C614 1.351 . S
C614 C608 1.428 . S
C614 N613 1.351 . S
C614 C615 1.434 . S
C615 C606 1.429 . S
C615 N612 1.350 . S
C615 C614 1.434 . S
C616 C617 1.369 . S
C616 C618 1.419 . S
C616 H620 0.930 . S
C617 C616 1.369 . S
C617 C626 1.429 . S
C618 C616 1.419 . S
C618 C619 1.363 . S
C618 H621 0.929 . S
C619 C618 1.363 . S
C619 C625 1.428 . S
H620 C616 0.930 . S
H621 C618 0.929 . S
S622 N623 1.613 . S
S622 N624 1.610 . S
N623 S622 1.613 . S
N623 C626 1.350 . S
N624 S622 1.610 . S
N624 C625 1.351 . S
C625 C619 1.428 . S
C625 N624 1.351 . S
C625 C626 1.434 . S
C626 C617 1.429 . S
C626 N623 1.350 . S
C626 C625 1.434 . S
C627 C628 1.369 . S
C627 C629 1.419 . S
C627 H631 0.930 . S
C628 C627 1.369 . S
C628 C637 1.429 . S
C629 C627 1.419 . S
C629 C630 1.363 . S
C629 H632 0.929 . S
C630 C629 1.363 . S
C630 C636 1.428 . S
H631 C627 0.930 . S
H632 C629 0.929 . S
S633 N634 1.613 . S
S633 N635 1.610 . S
N634 S633 1.613 . S
N634 C637 1.350 . S
N635 S633 1.610 . S
N635 C636 1.351 . S
C636 C630 1.428 . S
C636 N635 1.351 . S
C636 C637 1.434 . S
C637 C628 1.429 . S
C637 N634 1.350 . S
C637 C636 1.434 . S
C638 C639 1.369 . S
C638 C640 1.419 . S
C638 H642 0.930 . S
C639 C638 1.369 . S
C639 C648 1.429 . S
C640 C638 1.419 . S
C640 C641 1.363 . S
C640 H643 0.929 . S
C641 C640 1.363 . S
C641 C647 1.428 . S
H642 C638 0.930 . S
H643 C640 0.929 . S
S644 N645 1.613 . S
S644 N646 1.610 . S
N645 S644 1.613 . S
N645 C648 1.350 . S
N646 S644 1.610 . S
N646 C647 1.351 . S
C647 C641 1.428 . S
C647 N646 1.351 . S
C647 C648 1.434 . S
C648 C639 1.429 . S
C648 N645 1.350 . S
C648 C647 1.434 . S
C649 C650 1.369 . S
C649 C651 1.419 . S
C649 H653 0.930 . S
C650 C649 1.369 . S
C650 C659 1.429 . S
C651 C649 1.419 . S
C651 C652 1.363 . S
C651 H654 0.929 . S
C652 C651 1.363 . S
C652 C658 1.428 . S
H653 C649 0.930 . S
H654 C651 0.929 . S
S655 N656 1.613 . S
S655 N657 1.610 . S
N656 S655 1.613 . S
N656 C659 1.350 . S
N657 S655 1.610 . S
N657 C658 1.351 . S
C658 C652 1.428 . S
C658 N657 1.351 . S
C658 C659 1.434 . S
C659 C650 1.429 . S
C659 N656 1.350 . S
C659 C658 1.434 . S
C265 C5 1.516 . S
C267 C185 1.515 . S
C276 C207 1.520 . S
C278 C31 1.521 . S
C287 C229 1.521 . S
C289 C49 1.521 . S
C298 C75 1.514 . S
C300 C251 1.517 . S
C309 C141 1.516 . S
C311 C93 1.515 . S
C320 C163 1.521 . S
C322 C119 1.521 . S
C331 C9 1.124 . S
C333 C203 1.108 . S
C342 C27 1.110 . S
C344 C225 1.121 . S
C353 C247 1.122 . S
C355 C53 1.107 . S
C364 C137 1.109 . S
C366 C71 1.111 . S
C375 C97 1.120 . S
C377 C159 1.116 . S
C386 C115 1.123 . S
C388 C181 1.108 . S
C397 C138 1.363 . S
C399 C7 1.361 . S
C408 C160 1.369 . S
C410 C28 1.367 . S
C419 C182 1.364 . S
C421 C51 1.367 . S
C430 C72 1.367 . S
C432 C204 1.368 . S
C441 C95 1.365 . S
C443 C226 1.368 . S
C452 C116 1.365 . S
C454 C248 1.362 . S
C463 C8 1.796 . S
C465 C118 1.781 . S
C474 C26 1.801 . S
C476 C4 1.783 . S
C485 C52 1.799 . S
C487 C30 1.784 . S
C496 C48 1.784 . S
C498 C70 1.800 . S
C507 C96 1.801 . S
C509 C74 1.783 . S
C518 C114 1.799 . S
C520 C92 1.784 . S
C529 C162 1.778 . S
C531 C136 1.799 . S
C540 C184 1.779 . S
C542 C158 1.800 . S
C551 C206 1.779 . S
C553 C180 1.797 . S
C562 C202 1.799 . S
C564 C228 1.784 . S
C573 C224 1.801 . S
C575 C250 1.781 . S
C584 C246 1.800 . S
C586 C140 1.784 . S
C595 C227 0.784 . S
C597 C6 0.776 . S
C606 C249 0.770 . S
C608 C29 0.786 . S
C617 C139 0.784 . S
C619 C50 0.775 . S
C628 C161 0.782 . S
C630 C73 0.778 . S
C639 C94 0.788 . S
C641 C183 0.773 . S
C650 C117 0.770 . S
C652 C205 0.786 . S
