# Generated by pormake.
# Topology sxb, (6)-cn, num edge types: 1
# Building blocks:
#     Node 0, Type 0, BuildingBlock: MIFKUJ_clean_sbu_0, # of connection points: 6
#     Node 1, Type 0, BuildingBlock: MIFKUJ_clean_sbu_0, # of connection points: 6
#     Node 2, Type 0, BuildingBlock: MIFKUJ_clean_sbu_0, # of connection points: 6
#     Node 3, Type 0, BuildingBlock: MIFKUJ_clean_sbu_0, # of connection points: 6
#     Edge 4, Type (0, 0), BuildingBlock: FUNLAD_clean_linker_0, # of connection points: 2
#     Edge 5, Type (0, 0), BuildingBlock: FUNLAD_clean_linker_0, # of connection points: 2
#     Edge 6, Type (0, 0), BuildingBlock: FUNLAD_clean_linker_0, # of connection points: 2
#     Edge 7, Type (0, 0), BuildingBlock: FUNLAD_clean_linker_0, # of connection points: 2
#     Edge 8, Type (0, 0), BuildingBlock: FUNLAD_clean_linker_0, # of connection points: 2
#     Edge 9, Type (0, 0), BuildingBlock: FUNLAD_clean_linker_0, # of connection points: 2
#     Edge 10, Type (0, 0), BuildingBlock: FUNLAD_clean_linker_0, # of connection points: 2
#     Edge 11, Type (0, 0), BuildingBlock: FUNLAD_clean_linker_0, # of connection points: 2
#     Edge 12, Type (0, 0), BuildingBlock: FUNLAD_clean_linker_0, # of connection points: 2
#     Edge 13, Type (0, 0), BuildingBlock: FUNLAD_clean_linker_0, # of connection points: 2
#     Edge 14, Type (0, 0), BuildingBlock: FUNLAD_clean_linker_0, # of connection points: 2
#     Edge 15, Type (0, 0), BuildingBlock: FUNLAD_clean_linker_0, # of connection points: 2
# Relax obj value: 0.018
# Max RMSD: 0.063
# Mean RMSD: 0.050
data_MOF--net-sxb--node1-MIFKUJ_clean_sbu_0--edge1-FUNLAD_clean_linker_0
_symmetry_space_group_name_H-M    P1
_symmetry_Int_Tables_number       1
_symmetry_cell_setting            triclinic
loop_
_symmetry_equiv_pos_as_xyz
'x, y, z'
_cell_length_a     20.247797
_cell_length_b     35.762497
_cell_length_c     33.096838
_cell_angle_alpha  95.742044
_cell_angle_beta   97.454759
_cell_angle_gamma 85.742891
loop_
_atom_site_label
_atom_site_type_symbol
_atom_site_fract_x
_atom_site_fract_y
_atom_site_fract_z
_atom_type_partial_charge
Zn0 Zn 0.04073 0.00614 -0.00185 0.0
Zn1 Zn 0.90011 0.98852 0.98562 0.0
C2 C 0.1026 0.9366 0.02094 0.0
O3 O 0.12508 0.95988 0.0521 0.0
C4 C 0.84569 0.05963 0.96279 0.0
O5 O 0.81983 0.03705 0.93196 0.0
O6 O 0.13108 0.02616 0.00445 0.0
O7 O 0.99423 0.02352 0.9454 0.0
O8 O 0.93741 0.97304 0.93253 0.0
C9 C 0.16388 0.01654 0.97449 0.0
O10 O 0.13468 0.99745 0.94187 0.0
O11 O 0.06105 0.94949 0.99266 0.0
C12 C 0.77458 0.98406 0.00874 0.0
O13 O 0.80494 0.00341 0.04076 0.0
O14 O 0.80752 0.97168 0.97954 0.0
O15 O 0.94493 0.97058 0.03866 0.0
O16 O 0.00127 0.02127 0.05047 0.0
O17 O 0.88534 0.04553 0.99117 0.0
C18 C 0.96409 0.99987 0.91968 0.0
C19 C 0.9723 0.99564 0.06388 0.0
Zn20 Zn 0.10622 0.04445 0.51182 0.0
Zn21 Zn 0.97968 0.95914 0.51167 0.0
C22 C 0.24432 0.03651 0.53995 0.0
O23 O 0.2283 0.06714 0.5629 0.0
C24 C 0.84243 0.96279 0.51063 0.0
O25 O 0.85287 0.93593 0.48161 0.0
O26 O 0.1129 0.09784 0.49968 0.0
O27 O 0.04823 0.01543 0.46545 0.0
O28 O 0.9779 0.9697 0.45303 0.0
C29 C 0.14993 0.10439 0.4733 0.0
O30 O 0.17861 0.07586 0.45251 0.0
O31 O 0.19888 0.02047 0.51573 0.0
C32 C 0.95978 0.89042 0.54418 0.0
O33 O 0.9347 0.91449 0.57162 0.0
O34 O 0.9871 0.9029 0.51614 0.0
O35 O 0.05473 0.9876 0.53993 0.0
O36 O 0.0727 0.04423 0.56643 0.0
O37 O 0.89202 0.97959 0.52959 0.0
C38 C 0.00972 0.99487 0.44043 0.0
C39 C 0.04876 0.01301 0.56893 0.0
Zn40 Zn 0.56926 0.46237 0.99046 0.0
Zn41 Zn 0.42254 0.54345 0.9903 0.0
C42 C 0.63181 0.39308 0.0144 0.0
O43 O 0.64806 0.41554 0.04756 0.0
C44 C 0.35363 0.61075 0.96479 0.0
O45 O 0.32816 0.58588 0.93617 0.0
O46 O 0.65693 0.48721 0.00414 0.0
O47 O 0.52359 0.47798 0.93585 0.0
O48 O 0.44355 0.52447 0.93379 0.0
C49 C 0.70073 0.47612 0.98055 0.0
O50 O 0.68438 0.45216 0.94868 0.0
O51 O 0.59523 0.40654 0.98438 0.0
C52 C 0.30032 0.53622 0.02405 0.0
O53 O 0.3179 0.56765 0.04544 0.0
O54 O 0.33909 0.51962 -0.00033 0.0
O55 O 0.49804 0.53162 0.03301 0.0
O56 O 0.51529 0.471 0.03764 0.0
O57 O 0.3989 0.5996 0.99211 0.0
C58 C 0.4809 0.49953 0.91599 0.0
C59 C 0.49184 0.5029 0.05143 0.0
Zn60 Zn 0.56693 0.55387 0.49086 0.0
Zn61 Zn 0.43004 0.48221 0.4816 0.0
C62 C 0.69475 0.52657 0.52333 0.0
O63 O 0.68114 0.55331 0.55182 0.0
C64 C 0.29061 0.49078 0.47438 0.0
O65 O 0.30159 0.47177 0.43956 0.0
O66 O 0.60591 0.60425 0.49404 0.0
O67 O 0.5131 0.54617 0.43548 0.0
O68 O 0.43694 0.50337 0.42816 0.0
C69 C 0.6441 0.6086 0.46748 0.0
O70 O 0.65098 0.58173 0.43793 0.0
O71 O 0.64923 0.51824 0.49421 0.0
C72 C 0.39931 0.41062 0.49858 0.0
O73 O 0.38627 0.43127 0.53206 0.0
O74 O 0.42351 0.42603 0.47127 0.0
O75 O 0.50499 0.493 0.52637 0.0
O76 O 0.5174 0.55337 0.53943 0.0
O77 O 0.3405 0.50123 0.49936 0.0
C78 C 0.46781 0.52773 0.41368 0.0
C79 C 0.49878 0.52302 0.54979 0.0
C80 C 0.34338 0.6758 0.00098 0.0
C81 C 0.32596 0.65037 0.96669 0.0
C82 C 0.31368 0.71247 0.00362 0.0
C83 C 0.2658 0.72449 0.97196 0.0
C84 C 0.25017 0.6994 0.9372 0.0
C85 C 0.27947 0.66273 0.93468 0.0
C86 C 0.23204 0.763 0.97354 0.0
C87 C 0.2229 0.78408 0.00875 0.0
C88 C 0.18935 0.82266 0.01083 0.0
C89 C 0.20216 0.84641 0.04699 0.0
C90 C 0.17303 0.88305 0.0504 0.0
C91 C 0.12964 0.89686 0.0178 0.0
H92 H 0.13141 0.81845 0.95052 0.0
C93 C 0.11507 0.87284 0.98194 0.0
C94 C 0.14452 0.83611 0.97845 0.0
H95 H 0.08155 0.88254 0.95634 0.0
H96 H 0.37932 0.66725 0.02606 0.0
H97 H 0.32895 0.73129 0.03031 0.0
H98 H 0.21415 0.70796 0.91214 0.0
H99 H 0.26518 0.64398 0.9077 0.0
H100 H 0.21298 0.77371 0.94447 0.0
H101 H 0.24176 0.77306 0.03771 0.0
H102 H 0.2358 0.83678 0.0726 0.0
H103 H 0.18516 0.90068 0.07857 0.0
C104 C 0.64601 0.32959 0.97539 0.0
C105 C 0.65839 0.35327 0.01171 0.0
C106 C 0.67292 0.29235 0.97278 0.0
C107 C 0.71314 0.278 0.00648 0.0
C108 C 0.72436 0.30154 0.04293 0.0
C109 C 0.69766 0.33875 0.0455 0.0
C110 C 0.74235 0.23848 0.00547 0.0
C111 C 0.75368 0.21724 0.97075 0.0
C112 C 0.78041 0.17728 0.96962 0.0
C113 C 0.7658 0.15375 0.9335 0.0
C114 C 0.78787 0.11576 0.93122 0.0
C115 C 0.82595 0.10042 0.96491 0.0
H116 H 0.83448 0.17965 0.03101 0.0
C117 C 0.84268 0.12416 0.00069 0.0
C118 C 0.82015 0.16222 0.00307 0.0
H119 H 0.87238 0.11324 0.02707 0.0
H120 H 0.6156 0.33982 0.94888 0.0
H121 H 0.661 0.2749 0.94452 0.0
H122 H 0.75448 0.29121 0.06951 0.0
H123 H 0.70803 0.35614 0.07403 0.0
H124 H 0.75514 0.22677 0.03469 0.0
H125 H 0.74099 0.22894 0.94152 0.0
H126 H 0.736 0.16462 0.90711 0.0
H127 H 0.77454 0.09835 0.90305 0.0
C128 C 0.21495 0.15018 0.44459 0.0
C129 C 0.16793 0.14325 0.47024 0.0
C130 C 0.23796 0.18618 0.44529 0.0
C131 C 0.21448 0.21602 0.47187 0.0
C132 C 0.16492 0.20939 0.49585 0.0
C133 C 0.142 0.17344 0.49517 0.0
C134 C 0.24114 0.25409 0.47679 0.0
C135 C 0.29897 0.26209 0.46439 0.0
C136 C 0.3265 0.29972 0.47404 0.0
C137 C 0.36396 0.31349 0.44654 0.0
C138 C 0.3891 0.34926 0.45473 0.0
C139 C 0.37808 0.37159 0.49097 0.0
H140 H 0.2912 0.31123 0.53357 0.0
C141 C 0.34295 0.35707 0.51921 0.0
C142 C 0.3175 0.32156 0.51089 0.0
H143 H 0.33406 0.37336 0.5476 0.0
H144 H 0.23538 0.12759 0.42466 0.0
H145 H 0.27443 0.19012 0.42523 0.0
H146 H 0.14528 0.23186 0.51627 0.0
H147 H 0.10538 0.16915 0.51511 0.0
H148 H 0.21292 0.27632 0.49323 0.0
H149 H 0.32751 0.24098 0.44688 0.0
H150 H 0.37251 0.29691 0.41825 0.0
H151 H 0.41625 0.35959 0.43244 0.0
C152 C 0.94635 0.82735 0.50465 0.0
C153 C 0.9433 0.85061 0.54127 0.0
C154 C 0.91834 0.79232 0.49939 0.0
C155 C 0.88688 0.77998 0.53076 0.0
C156 C 0.88879 0.80194 0.5684 0.0
C157 C 0.91629 0.83699 0.57356 0.0
C158 C 0.84873 0.74555 0.52502 0.0
C159 C 0.81892 0.73165 0.48839 0.0
C160 C 0.77343 0.7004 0.48366 0.0
C161 C 0.76746 0.67688 0.447 0.0
C162 C 0.72462 0.6474 0.44145 0.0
C163 C 0.68596 0.64128 0.47224 0.0
H164 H 0.73501 0.71324 0.54219 0.0
C165 C 0.69039 0.66555 0.50845 0.0
C166 C 0.73366 0.6948 0.51414 0.0
H167 H 0.66109 0.66168 0.53271 0.0
H168 H 0.96736 0.83693 0.47931 0.0
H169 H 0.92026 0.7755 0.47048 0.0
H170 H 0.8659 0.79285 0.5933 0.0
H171 H 0.91385 0.85409 0.60232 0.0
H172 H 0.84083 0.733 0.55244 0.0
H173 H 0.82677 0.74374 0.46072 0.0
H174 H 0.79675 0.68097 0.4228 0.0
H175 H 0.72215 0.62927 0.41311 0.0
C176 C 0.27342 0.00668 0.94704 0.0
C177 C 0.23615 0.02142 0.97858 0.0
C178 C 0.34285 0.00652 0.95282 0.0
C179 C 0.37631 0.02103 0.99035 0.0
C180 C 0.33895 0.03798 0.02085 0.0
C181 C 0.26941 0.038 0.01516 0.0
C182 C 0.44993 0.01831 -0.00116 0.0
C183 C 0.48756 0.98939 0.98271 0.0
C184 C 0.56117 0.98598 0.99145 0.0
C185 C 0.59806 0.96668 0.96192 0.0
C186 C 0.66768 0.96477 0.96809 0.0
C187 C 0.70158 0.98183 0.00417 0.0
H188 H 0.56829 0.01504 0.05267 0.0
C189 C 0.66463 0.99936 0.03469 0.0
C190 C 0.59508 0.00136 0.02846 0.0
H191 H 0.68932 0.01235 0.06307 0.0
H192 H 0.24919 0.99422 0.91825 0.0
H193 H 0.37007 0.9947 0.92798 0.0
H194 H 0.36369 0.04989 0.04977 0.0
H195 H 0.24198 0.04987 0.03991 0.0
H196 H 0.47308 0.04001 0.02016 0.0
H197 H 0.46408 0.9677 0.9615 0.0
H198 H 0.57298 0.95406 0.93345 0.0
H199 H 0.69481 0.95084 0.9441 0.0
C200 C 0.36609 0.04291 0.56276 0.0
C201 C 0.31492 0.02302 0.53925 0.0
C202 C 0.43302 0.03196 0.55942 0.0
C203 C 0.45003 1.00066 0.5326 0.0
C204 C 0.39874 0.98039 0.50985 0.0
C205 C 0.33197 0.99133 0.51319 0.0
C206 C 0.51986 0.98943 0.52529 0.0
C207 C 0.5743 0.9997 0.55075 0.0
C208 C 0.64332 0.98902 0.54125 0.0
C209 C 0.69532 0.01163 0.5588 0.0
C210 C 0.76037 0.00315 0.54919 0.0
C211 C 0.77447 0.97181 0.52184 0.0
H212 H 0.62056 0.93761 0.5024 0.0
C213 C 0.72291 0.94857 0.50529 0.0
C214 C 0.65825 0.95684 0.51512 0.0
H215 H 0.73244 0.92372 0.48483 0.0
H216 H 0.35453 0.06761 0.58296 0.0
H217 H 0.47067 0.04896 0.57684 0.0
H218 H 0.41032 0.95624 0.48888 0.0
H219 H 0.29377 0.97537 0.49463 0.0
H220 H 0.526 0.9722 0.49697 0.0
H221 H 0.56887 0.01743 0.57883 0.0
H222 H 0.68541 0.03629 0.57946 0.0
H223 H 0.79931 0.02136 0.56278 0.0
C224 C 0.81909 0.47184 0.96559 0.0
C225 C 0.77043 0.48737 0.99016 0.0
C226 C 0.88563 0.48069 0.97529 0.0
C227 C 0.90532 0.50526 0.00996 0.0
C228 C 0.85644 0.52159 0.03392 0.0
C229 C 0.78972 0.51255 0.02433 0.0
C230 C 0.97574 0.51557 0.02072 0.0
C231 C 0.02825 0.49232 0.01123 0.0
C232 C 0.09899 0.5028 0.01804 0.0
C233 C 0.14557 0.48118 -0.00396 0.0
C234 C 0.21154 0.49122 -0.00097 0.0
C235 C 0.2327 0.52308 0.02436 0.0
H236 H 0.08769 0.55047 0.06353 0.0
C237 C 0.18707 0.54374 0.04791 0.0
C238 C 0.12098 0.53372 0.04488 0.0
H239 H 0.20194 0.56822 0.06809 0.0
H240 H 0.80597 0.45258 0.93884 0.0
H241 H 0.92114 0.46866 0.95508 0.0
H242 H 0.87005 0.54103 0.06045 0.0
H243 H 0.75343 0.52512 0.0438 0.0
H244 H 0.98363 0.54317 0.03663 0.0
H245 H 0.01909 0.46449 -0.00391 0.0
H246 H 0.13044 0.45696 0.97548 0.0
H247 H 0.24545 0.47452 0.98064 0.0
C248 C 0.16804 0.48327 0.45761 0.0
C249 C 0.22158 0.49685 0.4852 0.0
C250 C 0.10301 0.48717 0.46795 0.0
C251 C 0.08982 0.50461 0.50634 0.0
C252 C 0.14313 0.51892 0.53359 0.0
C253 C 0.20841 0.51491 0.52327 0.0
C254 C 0.02089 0.50997 0.51803 0.0
C255 C 0.97118 0.4877 0.50196 0.0
C256 C 0.90068 0.4949 0.51054 0.0
C257 C 0.84963 0.48031 0.48172 0.0
C258 C 0.78248 0.48899 0.48673 0.0
C259 C 0.7649 0.51226 0.52096 0.0
H260 H 0.92061 0.52691 0.56979 0.0
C261 C 0.81594 0.52498 0.55104 0.0
C262 C 0.88304 0.51636 0.54599 0.0
H263 H 0.80419 0.54262 0.57805 0.0
H264 H 0.17622 0.46946 0.42787 0.0
H265 H 0.06329 0.47704 0.44537 0.0
H266 H 0.13434 0.53295 0.56315 0.0
H267 H 0.2485 0.52573 0.54521 0.0
H268 H 0.01127 0.53346 0.54031 0.0
H269 H 0.98138 0.46407 0.47993 0.0
H270 H 0.86166 0.46325 0.45439 0.0
H271 H 0.74449 0.47859 0.46303 0.0
C272 C 0.96875 0.97396 0.36755 0.0
C273 C 0.00488 0.99895 0.39608 0.0
C274 C 0.96693 0.97665 0.32561 0.0
C275 C 0.00078 0.00471 0.31126 0.0
C276 C 0.03638 0.02982 0.33983 0.0
C277 C 0.03825 0.0271 0.38175 0.0
C278 C 0.00314 0.00763 0.267 0.0
C279 C 0.9582 0.99307 0.23704 0.0
C280 C 0.96275 0.99465 0.19282 0.0
C281 C 0.93145 0.96754 0.16463 0.0
C282 C 0.93489 0.9677 0.12279 0.0
C283 C 0.96932 0.99525 0.1082 0.0
H284 H 0.01921 0.04482 0.19863 0.0
C285 C -0.0002 0.02278 0.1363 0.0
C286 C -0.00361 0.02261 0.17816 0.0
H287 H 0.02603 0.04466 0.12598 0.0
H288 H 0.94288 0.95176 0.37755 0.0
H289 H 0.94056 0.95594 0.30482 0.0
H290 H 0.06319 0.05157 0.32969 0.0
H291 H 0.06644 0.04688 0.40287 0.0
H292 H 0.04417 0.02222 0.25916 0.0
H293 H 0.9172 0.97838 0.24473 0.0
H294 H 0.90472 0.94589 0.17503 0.0
H295 H 0.9104 0.94624 0.10192 0.0
C296 C 0.92348 0.97975 0.84633 0.0
C297 C 0.95702 0.00523 0.87561 0.0
C298 C 0.91809 0.98499 0.80466 0.0
C299 C 0.94643 0.0158 0.7916 0.0
C300 C 0.97796 0.04178 0.82105 0.0
C301 C 0.98351 0.03651 0.86252 0.0
C302 C 0.94666 0.02148 0.74782 0.0
C303 C 0.94348 0.99324 0.71764 0.0
C304 C 0.96064 0.99799 0.67628 0.0
C305 C 0.99183 0.96729 0.65478 0.0
C306 C 0.01808 0.97199 0.61879 0.0
C307 C 0.01255 0.00728 0.60329 0.0
H308 H 0.92588 0.05691 0.67438 0.0
C309 C 0.97813 0.03759 0.6234 0.0
C310 C 0.95171 0.03292 0.65941 0.0
H311 H 0.97295 0.06506 0.61179 0.0
H312 H 0.90169 0.95567 0.85554 0.0
H313 H 0.89165 0.96494 0.78299 0.0
H314 H -0.00012 0.06588 0.81192 0.0
H315 H 0.00911 0.05691 0.88427 0.0
H316 H 0.95838 0.0492 0.74117 0.0
H317 H 0.93776 0.96475 0.7247 0.0
H318 H -0.00085 0.94007 0.66698 0.0
H319 H 0.04561 0.94842 0.60416 0.0
C320 C 0.40353 0.51388 0.34427 0.0
C321 C 0.45256 0.53391 0.36976 0.0
C322 C 0.39279 0.51781 0.30227 0.0
C323 C 0.43133 0.54168 0.28488 0.0
C324 C 0.47776 0.56309 0.3107 0.0
C325 C 0.48848 0.5592 0.35261 0.0
C326 C 0.42751 0.54372 0.24001 0.0
C327 C 0.40802 0.51523 0.21226 0.0
C328 C 0.42035 0.51329 0.16883 0.0
C329 C 0.43128 0.47772 0.14794 0.0
C330 C 0.45222 0.47438 0.10915 0.0
C331 C 0.46202 0.50664 0.09021 0.0
H332 H 0.41525 0.57356 0.16326 0.0
C333 C 0.4466 0.54231 0.10985 0.0
C334 C 0.42576 0.54565 0.14877 0.0
H335 H 0.45259 0.56771 0.09574 0.0
H336 H 0.37412 0.49465 0.35658 0.0
H337 H 0.35475 0.50185 0.28367 0.0
H338 H 0.50768 0.58198 0.29823 0.0
H339 H 0.52613 0.57543 0.37134 0.0
H340 H 0.44981 0.56738 0.23007 0.0
H341 H 0.39117 0.49005 0.22248 0.0
H342 H 0.42663 0.45234 0.16243 0.0
H343 H 0.46269 0.44646 0.09458 0.0
C344 C 0.47563 0.48698 0.60704 0.0
C345 C 0.48061 0.52167 0.59145 0.0
C346 C 0.46333 0.4857 0.64744 0.0
C347 C 0.45626 0.51915 0.67321 0.0
C348 C 0.45837 0.5538 0.65705 0.0
C349 C 0.47072 0.55509 0.61669 0.0
C350 C 0.44788 0.51917 0.71713 0.0
C351 C 0.47107 0.49051 0.73965 0.0
C352 C 0.47008 0.49225 0.78463 0.0
C353 C 0.51683 0.46924 0.80752 0.0
C354 C 0.51988 0.47123 0.85008 0.0
C355 C 0.47582 0.49618 0.87072 0.0
H356 H 0.38604 0.5335 0.78854 0.0
C357 C 0.42753 0.51834 0.84769 0.0
C358 C 0.42444 0.5163 0.80511 0.0
H359 H 0.39215 0.53748 0.86251 0.0
H360 H 0.4828 0.46072 0.58836 0.0
H361 H 0.45971 0.45846 0.65828 0.0
H362 H 0.45229 0.58001 0.67605 0.0
H363 H 0.4736 0.5823 0.6055 0.0
H364 H 0.42749 0.54511 0.73201 0.0
H365 H 0.49708 0.46602 0.72547 0.0
H366 H 0.55216 0.45018 0.79253 0.0
H367 H 0.55747 0.45355 0.86677 0.0
loop_
_geom_bond_atom_site_label_1
_geom_bond_atom_site_label_2
_geom_bond_distance
_geom_bond_site_symmetry_2
_ccdc_geom_bond_type
Zn0 O6 1.969 1_565 S
Zn0 O7 1.965 1_564 S
Zn0 O11 2.024 1_554 S
Zn0 O16 1.969 . S
Zn1 O8 1.969 . S
Zn1 O14 1.969 1_545 S
Zn1 O15 1.965 1_546 S
Zn1 O17 2.024 1_556 S
C2 O3 1.229 . S
C2 O11 1.058 1_554 S
O3 C2 1.229 . S
C4 O5 1.229 . S
C4 O17 1.058 1_556 S
O5 C4 1.229 . S
O6 Zn0 1.969 1_545 S
O6 C9 1.267 1_544 S
O7 Zn0 1.965 1_546 S
O7 C18 1.260 1_455 S
O8 Zn1 1.969 . S
O8 C18 1.258 . S
C9 O6 1.267 1_566 S
C9 O10 1.228 . S
O10 C9 1.228 . S
O11 Zn0 2.024 1_556 S
O11 C2 1.058 1_556 S
C12 O13 1.228 . S
C12 O14 1.267 1_544 S
O13 C12 1.228 . S
O14 Zn1 1.969 1_565 S
O14 C12 1.267 1_566 S
O15 Zn1 1.965 1_564 S
O15 C19 1.260 1_655 S
O16 Zn0 1.969 . S
O16 C19 1.258 . S
O17 Zn1 2.024 1_554 S
O17 C4 1.058 1_554 S
C18 O7 1.260 1_655 S
C18 O8 1.258 . S
C19 O15 1.260 1_455 S
C19 O16 1.258 . S
Zn20 O26 1.969 . S
Zn20 O27 1.965 . S
Zn20 O31 2.024 1_545 S
Zn20 O36 1.969 . S
Zn21 O28 1.969 . S
Zn21 O34 1.969 . S
Zn21 O35 1.965 . S
Zn21 O37 2.024 1_565 S
C22 O23 1.229 . S
C22 O31 1.058 1_545 S
O23 C22 1.229 . S
C24 O25 1.229 . S
C24 O37 1.058 1_565 S
O25 C24 1.229 . S
O26 Zn20 1.969 . S
O26 C29 1.267 . S
O27 Zn20 1.965 . S
O27 C38 1.260 1_455 S
O28 Zn21 1.969 . S
O28 C38 1.258 1_565 S
C29 O26 1.267 . S
C29 O30 1.228 . S
O30 C29 1.228 . S
O31 Zn20 2.024 1_565 S
O31 C22 1.058 1_565 S
C32 O33 1.228 . S
C32 O34 1.267 . S
O33 C32 1.228 . S
O34 Zn21 1.969 . S
O34 C32 1.267 . S
O35 Zn21 1.965 . S
O35 C39 1.260 1_655 S
O36 Zn20 1.969 . S
O36 C39 1.258 1_545 S
O37 Zn21 2.024 1_545 S
O37 C24 1.058 1_545 S
C38 O27 1.260 1_655 S
C38 O28 1.258 1_545 S
C39 O35 1.260 1_455 S
C39 O36 1.258 1_565 S
Zn40 O46 1.969 . S
Zn40 O47 1.965 1_554 S
Zn40 O51 2.024 1_554 S
Zn40 O56 1.969 . S
Zn41 O48 1.969 . S
Zn41 O54 1.969 . S
Zn41 O55 1.965 1_556 S
Zn41 O57 2.024 1_556 S
C42 O43 1.229 . S
C42 O51 1.058 1_554 S
O43 C42 1.229 . S
C44 O45 1.229 . S
C44 O57 1.058 1_556 S
O45 C44 1.229 . S
O46 Zn40 1.969 . S
O46 C49 1.267 1_554 S
O47 Zn40 1.965 1_556 S
O47 C58 1.260 . S
O48 Zn41 1.969 . S
O48 C58 1.258 . S
C49 O46 1.267 1_556 S
C49 O50 1.228 . S
O50 C49 1.228 . S
O51 Zn40 2.024 1_556 S
O51 C42 1.058 1_556 S
C52 O53 1.228 . S
C52 O54 1.267 1_554 S
O53 C52 1.228 . S
O54 Zn41 1.969 . S
O54 C52 1.267 1_556 S
O55 Zn41 1.965 1_554 S
O55 C59 1.260 . S
O56 Zn40 1.969 . S
O56 C59 1.258 . S
O57 Zn41 2.024 1_554 S
O57 C44 1.058 1_554 S
C58 O47 1.260 . S
C58 O48 1.258 . S
C59 O55 1.260 . S
C59 O56 1.258 . S
Zn60 O66 1.969 . S
Zn60 O67 1.965 . S
Zn60 O71 2.024 . S
Zn60 O76 1.969 . S
Zn61 O68 1.969 . S
Zn61 O74 1.969 . S
Zn61 O75 1.965 . S
Zn61 O77 2.024 . S
C62 O63 1.229 . S
C62 O71 1.058 . S
O63 C62 1.229 . S
C64 O65 1.229 . S
C64 O77 1.058 . S
O65 C64 1.229 . S
O66 Zn60 1.969 . S
O66 C69 1.267 . S
O67 Zn60 1.965 . S
O67 C78 1.260 . S
O68 Zn61 1.969 . S
O68 C78 1.258 . S
C69 O66 1.267 . S
C69 O70 1.228 . S
O70 C69 1.228 . S
O71 Zn60 2.024 . S
O71 C62 1.058 . S
C72 O73 1.228 . S
C72 O74 1.267 . S
O73 C72 1.228 . S
O74 Zn61 1.969 . S
O74 C72 1.267 . S
O75 Zn61 1.965 . S
O75 C79 1.260 . S
O76 Zn60 1.969 . S
O76 C79 1.258 . S
O77 Zn61 2.024 . S
O77 C64 1.058 . S
C78 O67 1.260 . S
C78 O68 1.258 . S
C79 O75 1.260 . S
C79 O76 1.258 . S
C80 C81 1.369 1_554 S
C80 C82 1.383 . S
C80 H96 0.951 . S
C81 C80 1.369 1_556 S
C81 C85 1.403 . S
C82 C80 1.383 . S
C82 C83 1.402 1_554 S
C82 H97 0.951 . S
C83 C82 1.402 1_556 S
C83 C84 1.375 . S
C83 C86 1.481 . S
C84 C83 1.375 . S
C84 C85 1.367 . S
C84 H98 0.951 . S
C85 C81 1.403 . S
C85 C84 1.367 . S
C85 H99 0.950 . S
C86 C83 1.481 . S
C86 C87 1.297 1_556 S
C86 H100 0.950 . S
C87 C86 1.297 1_554 S
C87 C88 1.479 . S
C87 H101 0.950 . S
C88 C87 1.479 . S
C88 C89 1.375 . S
C88 C94 1.404 1_554 S
C89 C88 1.375 . S
C89 C90 1.369 . S
C89 H102 0.950 . S
C90 C89 1.369 . S
C90 C91 1.381 1_554 S
C90 H103 0.951 . S
C91 C90 1.381 1_556 S
C91 C93 1.394 . S
H92 C94 0.949 . S
C93 C91 1.394 . S
C93 C94 1.385 . S
C93 H95 0.950 . S
C94 C88 1.404 1_556 S
C94 H92 0.949 . S
C94 C93 1.385 . S
H95 C93 0.950 . S
H96 C80 0.951 . S
H97 C82 0.951 . S
H98 C84 0.951 . S
H99 C85 0.950 . S
H100 C86 0.950 . S
H101 C87 0.950 . S
H102 C89 0.950 . S
H103 C90 0.951 . S
C104 C105 1.386 1_556 S
C104 C106 1.383 . S
C104 H120 0.951 . S
C105 C104 1.386 1_554 S
C105 C109 1.383 . S
C106 C104 1.383 . S
C106 C107 1.402 1_556 S
C106 H121 0.951 . S
C107 C106 1.402 1_554 S
C107 C108 1.375 . S
C107 C110 1.481 . S
C108 C107 1.375 . S
C108 C109 1.367 . S
C108 H122 0.951 . S
C109 C105 1.383 . S
C109 C108 1.367 . S
C109 H123 0.950 . S
C110 C107 1.481 . S
C110 C111 1.297 1_554 S
C110 H124 0.950 . S
C111 C110 1.297 1_556 S
C111 C112 1.479 . S
C111 H125 0.950 . S
C112 C111 1.479 . S
C112 C113 1.375 . S
C112 C118 1.404 1_556 S
C113 C112 1.375 . S
C113 C114 1.369 . S
C113 H126 0.950 . S
C114 C113 1.369 . S
C114 C115 1.392 1_556 S
C114 H127 0.951 . S
C115 C114 1.392 1_554 S
C115 C117 1.384 . S
H116 C118 0.949 . S
C117 C115 1.384 . S
C117 C118 1.385 . S
C117 H119 0.950 . S
C118 C112 1.404 1_554 S
C118 H116 0.949 . S
C118 C117 1.385 . S
H119 C117 0.950 . S
H120 C104 0.951 . S
H121 C106 0.951 . S
H122 C108 0.951 . S
H123 C109 0.950 . S
H124 C110 0.950 . S
H125 C111 0.950 . S
H126 C113 0.950 . S
H127 C114 0.951 . S
C128 C129 1.386 . S
C128 C130 1.383 . S
C128 H144 0.951 . S
C129 C128 1.386 . S
C129 C133 1.383 . S
C130 C128 1.383 . S
C130 C131 1.402 . S
C130 H145 0.951 . S
C131 C130 1.402 . S
C131 C132 1.375 . S
C131 C134 1.481 . S
C132 C131 1.375 . S
C132 C133 1.367 . S
C132 H146 0.951 . S
C133 C129 1.383 . S
C133 C132 1.367 . S
C133 H147 0.950 . S
C134 C131 1.481 . S
C134 C135 1.297 . S
C134 H148 0.950 . S
C135 C134 1.297 . S
C135 C136 1.479 . S
C135 H149 0.950 . S
C136 C135 1.479 . S
C136 C137 1.375 . S
C136 C142 1.404 . S
C137 C136 1.375 . S
C137 C138 1.369 . S
C137 H150 0.950 . S
C138 C137 1.369 . S
C138 C139 1.392 . S
C138 H151 0.951 . S
C139 C138 1.392 . S
C139 C141 1.384 . S
H140 C142 0.949 . S
C141 C139 1.384 . S
C141 C142 1.385 . S
C141 H143 0.950 . S
C142 C136 1.404 . S
C142 H140 0.949 . S
C142 C141 1.385 . S
H143 C141 0.950 . S
H144 C128 0.951 . S
H145 C130 0.951 . S
H146 C132 0.951 . S
H147 C133 0.950 . S
H148 C134 0.950 . S
H149 C135 0.950 . S
H150 C137 0.950 . S
H151 C138 0.951 . S
C152 C153 1.386 . S
C152 C154 1.383 . S
C152 H168 0.951 . S
C153 C152 1.386 . S
C153 C157 1.383 . S
C154 C152 1.383 . S
C154 C155 1.402 . S
C154 H169 0.951 . S
C155 C154 1.402 . S
C155 C156 1.375 . S
C155 C158 1.481 . S
C156 C155 1.375 . S
C156 C157 1.367 . S
C156 H170 0.951 . S
C157 C153 1.383 . S
C157 C156 1.367 . S
C157 H171 0.950 . S
C158 C155 1.481 . S
C158 C159 1.297 . S
C158 H172 0.950 . S
C159 C158 1.297 . S
C159 C160 1.479 . S
C159 H173 0.950 . S
C160 C159 1.479 . S
C160 C161 1.375 . S
C160 C166 1.404 . S
C161 C160 1.375 . S
C161 C162 1.369 . S
C161 H174 0.950 . S
C162 C161 1.369 . S
C162 C163 1.392 . S
C162 H175 0.951 . S
C163 C162 1.392 . S
C163 C165 1.384 . S
H164 C166 0.949 . S
C165 C163 1.384 . S
C165 C166 1.385 . S
C165 H167 0.950 . S
C166 C160 1.404 . S
C166 H164 0.949 . S
C166 C165 1.385 . S
H167 C165 0.950 . S
H168 C152 0.951 . S
H169 C154 0.951 . S
H170 C156 0.951 . S
H171 C157 0.950 . S
H172 C158 0.950 . S
H173 C159 0.950 . S
H174 C161 0.950 . S
H175 C162 0.951 . S
C176 C177 1.401 . S
C176 C178 1.383 . S
C176 H192 0.951 . S
C177 C176 1.401 . S
C177 C181 1.366 1_546 S
C178 C176 1.383 . S
C178 C179 1.396 1_546 S
C178 H193 0.951 . S
C179 C178 1.396 1_564 S
C179 C180 1.380 . S
C179 C182 1.481 . S
C180 C179 1.380 . S
C180 C181 1.367 . S
C180 H194 0.951 . S
C181 C177 1.366 1_564 S
C181 C180 1.367 . S
C181 H195 0.950 . S
C182 C179 1.481 . S
C182 C183 1.297 1_565 S
C182 H196 0.950 . S
C183 C182 1.297 1_545 S
C183 C184 1.479 . S
C183 H197 0.950 1_554 S
C184 C183 1.479 . S
C184 C185 1.375 1_554 S
C184 C190 1.404 1_545 S
C185 C184 1.375 1_556 S
C185 C186 1.369 . S
C185 H198 0.950 . S
C186 C185 1.369 . S
C186 C187 1.398 1_556 S
C186 H199 0.951 . S
C187 C186 1.398 1_554 S
C187 C189 1.380 1_545 S
H188 C190 0.949 . S
C189 C187 1.380 1_565 S
C189 C190 1.385 . S
C189 H191 0.950 . S
C190 C184 1.404 1_565 S
C190 H188 0.949 . S
C190 C189 1.385 . S
H191 C189 0.950 . S
H192 C176 0.951 . S
H193 C178 0.951 . S
H194 C180 0.951 . S
H195 C181 0.950 . S
H196 C182 0.950 . S
H197 C183 0.950 1_556 S
H198 C185 0.950 . S
H199 C186 0.951 . S
C200 C201 1.386 1_545 S
C200 C202 1.383 . S
C200 H216 0.951 . S
C201 C200 1.386 1_565 S
C201 C205 1.383 . S
C202 C200 1.383 . S
C202 C203 1.402 1_545 S
C202 H217 0.951 . S
C203 C202 1.402 1_565 S
C203 C204 1.375 . S
C203 C206 1.481 . S
C204 C203 1.375 . S
C204 C205 1.367 . S
C204 H218 0.951 . S
C205 C201 1.383 . S
C205 C204 1.367 . S
C205 H219 0.950 . S
C206 C203 1.481 . S
C206 C207 1.297 1_565 S
C206 H220 0.950 . S
C207 C206 1.297 1_545 S
C207 C208 1.479 . S
C207 H221 0.950 . S
C208 C207 1.479 . S
C208 C209 1.375 . S
C208 C214 1.404 1_545 S
C209 C208 1.375 . S
C209 C210 1.369 . S
C209 H222 0.950 . S
C210 C209 1.369 . S
C210 C211 1.392 . S
C210 H223 0.951 . S
C211 C210 1.392 . S
C211 C213 1.384 1_545 S
H212 C214 0.949 . S
C213 C211 1.384 1_565 S
C213 C214 1.385 . S
C213 H215 0.950 . S
C214 C208 1.404 1_565 S
C214 H212 0.949 . S
C214 C213 1.385 . S
H215 C213 0.950 . S
H216 C200 0.951 . S
H217 C202 0.951 . S
H218 C204 0.951 . S
H219 C205 0.950 . S
H220 C206 0.950 . S
H221 C207 0.950 . S
H222 C209 0.950 . S
H223 C210 0.951 . S
C224 C225 1.386 . S
C224 C226 1.383 . S
C224 H240 0.951 . S
C225 C224 1.386 . S
C225 C229 1.383 1_556 S
C226 C224 1.383 . S
C226 C227 1.402 1_556 S
C226 H241 0.951 . S
C227 C226 1.402 1_554 S
C227 C228 1.375 . S
C227 C230 1.481 . S
C228 C227 1.375 . S
C228 C229 1.367 . S
C228 H242 0.951 . S
C229 C225 1.383 1_554 S
C229 C228 1.367 . S
C229 H243 0.950 . S
C230 C227 1.481 . S
C230 C231 1.297 1_655 S
C230 H244 0.950 . S
C231 C230 1.297 1_455 S
C231 C232 1.479 . S
C231 H245 0.962 . S
C232 C231 1.479 . S
C232 C233 1.375 1_554 S
C232 C238 1.404 . S
C233 C232 1.375 1_556 S
C233 C234 1.369 . S
C233 H246 0.950 . S
C234 C233 1.369 . S
C234 C235 1.392 1_556 S
C234 H247 0.951 . S
C235 C234 1.392 1_554 S
C235 C237 1.384 . S
H236 C238 0.949 . S
C237 C235 1.384 . S
C237 C238 1.385 . S
C237 H239 0.950 . S
C238 C232 1.404 . S
C238 H236 0.949 . S
C238 C237 1.385 . S
H239 C237 0.950 . S
H240 C224 0.951 . S
H241 C226 0.951 . S
H242 C228 0.951 . S
H243 C229 0.950 . S
H244 C230 0.950 . S
H245 C231 0.962 . S
H246 C233 0.950 . S
H247 C234 0.951 . S
C248 C249 1.386 . S
C248 C250 1.383 . S
C248 H264 0.951 . S
C249 C248 1.386 . S
C249 C253 1.383 . S
C250 C248 1.383 . S
C250 C251 1.402 . S
C250 H265 0.951 . S
C251 C250 1.402 . S
C251 C252 1.375 . S
C251 C254 1.481 . S
C252 C251 1.375 . S
C252 C253 1.367 . S
C252 H266 0.951 . S
C253 C249 1.383 . S
C253 C252 1.367 . S
C253 H267 0.950 . S
C254 C251 1.481 . S
C254 C255 1.297 1_455 S
C254 H268 0.950 . S
C255 C254 1.297 1_655 S
C255 C256 1.479 . S
C255 H269 0.950 . S
C256 C255 1.479 . S
C256 C257 1.375 . S
C256 C262 1.404 . S
C257 C256 1.375 . S
C257 C258 1.369 . S
C257 H270 0.950 . S
C258 C257 1.369 . S
C258 C259 1.392 . S
C258 H271 0.951 . S
C259 C258 1.392 . S
C259 C261 1.384 . S
H260 C262 0.949 . S
C261 C259 1.384 . S
C261 C262 1.385 . S
C261 H263 0.950 . S
C262 C256 1.404 . S
C262 H260 0.949 . S
C262 C261 1.385 . S
H263 C261 0.950 . S
H264 C248 0.951 . S
H265 C250 0.951 . S
H266 C252 0.951 . S
H267 C253 0.950 . S
H268 C254 0.950 . S
H269 C255 0.950 . S
H270 C257 0.950 . S
H271 C258 0.951 . S
C272 C273 1.386 1_565 S
C272 C274 1.383 . S
C272 H288 0.951 . S
C273 C272 1.386 1_545 S
C273 C277 1.383 1_655 S
C274 C272 1.383 . S
C274 C275 1.402 1_565 S
C274 H289 0.951 . S
C275 C274 1.402 1_545 S
C275 C276 1.375 1_655 S
C275 C278 1.481 . S
C276 C275 1.375 1_455 S
C276 C277 1.367 . S
C276 H290 0.951 . S
C277 C273 1.383 1_455 S
C277 C276 1.367 . S
C277 H291 0.950 . S
C278 C275 1.481 . S
C278 C279 1.297 . S
C278 H292 0.950 1_655 S
C279 C278 1.297 . S
C279 C280 1.479 . S
C279 H293 0.950 1_545 S
C280 C279 1.479 . S
C280 C281 1.375 1_545 S
C280 C286 1.404 . S
C281 C280 1.375 1_565 S
C281 C282 1.369 . S
C281 H294 0.950 . S
C282 C281 1.369 . S
C282 C283 1.392 1_565 S
C282 H295 0.951 . S
C283 C282 1.392 1_545 S
C283 C285 1.384 1_655 S
H284 C286 0.949 1_455 S
C285 C283 1.384 1_455 S
C285 C286 1.385 1_455 S
C285 H287 0.950 . S
C286 C280 1.404 . S
C286 H284 0.949 1_655 S
C286 C285 1.385 1_655 S
H287 C285 0.950 . S
H288 C272 0.951 . S
H289 C274 0.951 . S
H290 C276 0.951 . S
H291 C277 0.950 . S
H292 C278 0.950 1_455 S
H293 C279 0.950 1_565 S
H294 C281 0.950 . S
H295 C282 0.951 . S
C296 C297 1.386 1_665 S
C296 C298 1.383 . S
C296 H312 0.951 . S
C297 C296 1.386 1_445 S
C297 C301 1.383 . S
C298 C296 1.383 . S
C298 C299 1.402 1_665 S
C298 H313 0.951 . S
C299 C298 1.402 1_445 S
C299 C300 1.375 . S
C299 C302 1.481 . S
C300 C299 1.375 . S
C300 C301 1.367 . S
C300 H314 0.951 . S
C301 C297 1.383 . S
C301 C300 1.367 . S
C301 H315 0.950 . S
C302 C299 1.481 . S
C302 C303 1.297 1_455 S
C302 H316 0.950 . S
C303 C302 1.297 1_655 S
C303 C304 1.479 . S
C303 H317 0.950 1_545 S
C304 C303 1.479 . S
C304 C305 1.375 1_545 S
C304 C310 1.404 1_655 S
C305 C304 1.375 1_565 S
C305 C306 1.369 . S
C305 H318 0.950 . S
C306 C305 1.369 . S
C306 C307 1.392 1_565 S
C306 H319 0.951 . S
C307 C306 1.392 1_545 S
C307 C309 1.384 1_655 S
H308 C310 0.949 . S
C309 C307 1.384 1_455 S
C309 C310 1.385 . S
C309 H311 0.950 . S
C310 C304 1.404 1_455 S
C310 H308 0.949 . S
C310 C309 1.385 . S
H311 C309 0.950 . S
H312 C296 0.951 . S
H313 C298 0.951 . S
H314 C300 0.951 . S
H315 C301 0.950 . S
H316 C302 0.950 . S
H317 C303 0.950 1_565 S
H318 C305 0.950 . S
H319 C306 0.951 . S
C320 C321 1.386 . S
C320 C322 1.383 . S
C320 H336 0.951 . S
C321 C320 1.386 . S
C321 C325 1.383 . S
C322 C320 1.383 . S
C322 C323 1.402 . S
C322 H337 0.951 . S
C323 C322 1.402 . S
C323 C324 1.375 . S
C323 C326 1.481 . S
C324 C323 1.375 . S
C324 C325 1.367 . S
C324 H338 0.951 . S
C325 C321 1.383 . S
C325 C324 1.367 . S
C325 H339 0.950 . S
C326 C323 1.481 . S
C326 C327 1.297 . S
C326 H340 0.950 . S
C327 C326 1.297 . S
C327 C328 1.479 . S
C327 H341 0.950 . S
C328 C327 1.479 . S
C328 C329 1.375 . S
C328 C334 1.404 . S
C329 C328 1.375 . S
C329 C330 1.369 . S
C329 H342 0.950 . S
C330 C329 1.369 . S
C330 C331 1.392 . S
C330 H343 0.951 . S
C331 C330 1.392 . S
C331 C333 1.384 . S
H332 C334 0.949 . S
C333 C331 1.384 . S
C333 C334 1.385 . S
C333 H335 0.950 . S
C334 C328 1.404 . S
C334 H332 0.949 . S
C334 C333 1.385 . S
H335 C333 0.950 . S
H336 C320 0.951 . S
H337 C322 0.951 . S
H338 C324 0.951 . S
H339 C325 0.950 . S
H340 C326 0.950 . S
H341 C327 0.950 . S
H342 C329 0.950 . S
H343 C330 0.951 . S
C344 C345 1.386 . S
C344 C346 1.383 . S
C344 H360 0.951 . S
C345 C344 1.386 . S
C345 C349 1.383 . S
C346 C344 1.383 . S
C346 C347 1.402 . S
C346 H361 0.951 . S
C347 C346 1.402 . S
C347 C348 1.375 . S
C347 C350 1.481 . S
C348 C347 1.375 . S
C348 C349 1.367 . S
C348 H362 0.951 . S
C349 C345 1.383 . S
C349 C348 1.367 . S
C349 H363 0.950 . S
C350 C347 1.481 . S
C350 C351 1.297 . S
C350 H364 0.950 . S
C351 C350 1.297 . S
C351 C352 1.479 . S
C351 H365 0.950 . S
C352 C351 1.479 . S
C352 C353 1.375 . S
C352 C358 1.404 . S
C353 C352 1.375 . S
C353 C354 1.369 . S
C353 H366 0.950 . S
C354 C353 1.369 . S
C354 C355 1.392 . S
C354 H367 0.951 . S
C355 C354 1.392 . S
C355 C357 1.384 . S
H356 C358 0.949 . S
C357 C355 1.384 . S
C357 C358 1.385 . S
C357 H359 0.950 . S
C358 C352 1.404 . S
C358 H356 0.949 . S
C358 C357 1.385 . S
H359 C357 0.950 . S
H360 C344 0.951 . S
H361 C346 0.951 . S
H362 C348 0.951 . S
H363 C349 0.950 . S
H364 C350 0.950 . S
H365 C351 0.950 . S
H366 C353 0.950 . S
H367 C354 0.951 . S
C81 C44 1.562 . S
C91 C2 1.478 1_556 S
C105 C42 1.517 . S
C115 C4 1.594 1_554 S
C129 C29 1.335 . S
C139 C72 1.251 . S
C153 C32 1.336 . S
C163 C69 1.254 . S
C177 C9 1.020 1_545 S
C187 C12 0.954 . S
C201 C22 1.506 1_565 S
C211 C24 1.484 1_545 S
C225 C49 1.013 . S
C235 C52 0.956 . S
C249 C64 1.441 . S
C259 C62 1.519 . S
C273 C38 1.482 . S
C283 C19 1.492 1_645 S
C297 C18 1.459 1_455 S
C307 C39 1.500 1_645 S
C321 C78 1.488 . S
C331 C59 1.497 . S
C345 C79 1.493 . S
C355 C58 1.450 . S
