# Generated by pormake.
# Topology sml, (6)-cn, num edge types: 1
# Building blocks:
#     Node 0, Type 0, BuildingBlock: BETFEN_clean_sbu_0, # of connection points: 6
#     Node 1, Type 0, BuildingBlock: BETFEN_clean_sbu_0, # of connection points: 6
#     Node 2, Type 0, BuildingBlock: BETFEN_clean_sbu_0, # of connection points: 6
#     Node 3, Type 0, BuildingBlock: BETFEN_clean_sbu_0, # of connection points: 6
#     Node 4, Type 0, BuildingBlock: BETFEN_clean_sbu_0, # of connection points: 6
#     Node 5, Type 0, BuildingBlock: BETFEN_clean_sbu_0, # of connection points: 6
#     Edge 6, Type (0, 0), BuildingBlock: EYOCIG_clean_linker_4, # of connection points: 2
#     Edge 7, Type (0, 0), BuildingBlock: EYOCIG_clean_linker_4, # of connection points: 2
#     Edge 8, Type (0, 0), BuildingBlock: EYOCIG_clean_linker_4, # of connection points: 2
#     Edge 9, Type (0, 0), BuildingBlock: EYOCIG_clean_linker_4, # of connection points: 2
#     Edge 10, Type (0, 0), BuildingBlock: EYOCIG_clean_linker_4, # of connection points: 2
#     Edge 11, Type (0, 0), BuildingBlock: EYOCIG_clean_linker_4, # of connection points: 2
#     Edge 12, Type (0, 0), BuildingBlock: EYOCIG_clean_linker_4, # of connection points: 2
#     Edge 13, Type (0, 0), BuildingBlock: EYOCIG_clean_linker_4, # of connection points: 2
#     Edge 14, Type (0, 0), BuildingBlock: EYOCIG_clean_linker_4, # of connection points: 2
#     Edge 15, Type (0, 0), BuildingBlock: EYOCIG_clean_linker_4, # of connection points: 2
#     Edge 16, Type (0, 0), BuildingBlock: EYOCIG_clean_linker_4, # of connection points: 2
#     Edge 17, Type (0, 0), BuildingBlock: EYOCIG_clean_linker_4, # of connection points: 2
#     Edge 18, Type (0, 0), BuildingBlock: EYOCIG_clean_linker_4, # of connection points: 2
#     Edge 19, Type (0, 0), BuildingBlock: EYOCIG_clean_linker_4, # of connection points: 2
#     Edge 20, Type (0, 0), BuildingBlock: EYOCIG_clean_linker_4, # of connection points: 2
#     Edge 21, Type (0, 0), BuildingBlock: EYOCIG_clean_linker_4, # of connection points: 2
#     Edge 22, Type (0, 0), BuildingBlock: EYOCIG_clean_linker_4, # of connection points: 2
#     Edge 23, Type (0, 0), BuildingBlock: EYOCIG_clean_linker_4, # of connection points: 2
# Relax obj value: 0.243
# Max RMSD: 0.256
# Mean RMSD: 0.256
data_MOF--net-sml--node1-BETFEN_clean_sbu_0--edge1-EYOCIG_clean_linker_4
_symmetry_space_group_name_H-M    P1
_symmetry_Int_Tables_number       1
_symmetry_cell_setting            triclinic
loop_
_symmetry_equiv_pos_as_xyz
'x, y, z'
_cell_length_a     23.719455
_cell_length_b     23.708594
_cell_length_c     21.407095
_cell_angle_alpha  89.97957
_cell_angle_beta   90.00999
_cell_angle_gamma 119.96322
loop_
_atom_site_label
_atom_site_type_symbol
_atom_site_fract_x
_atom_site_fract_y
_atom_site_fract_z
_atom_type_partial_charge
Pr0 Pr 0.2276 0.42519 0.2023 0.0
Pr1 Pr 0.12417 0.39792 0.09992 0.0
C2 C 0.28628 0.45089 0.31413 0.0
C3 C 0.25925 0.44024 0.37795 0.0
C4 C 0.28113 0.41347 0.42391 0.0
C5 C 0.25417 0.40109 0.48397 0.0
C6 C 0.20503 0.41535 0.49863 0.0
C7 C 0.18193 0.44064 0.45255 0.0
C8 C 0.20871 0.4529 0.39253 0.0
C9 C 0.20379 0.32247 0.12447 0.0
C10 C 0.0695 0.33999 0.23662 0.0
C11 C 0.0592 0.3767 0.9913 0.0
C12 C 0.07547 0.38104 0.92391 0.0
C13 C 0.0792 0.43209 0.88715 0.0
C14 C 0.09506 0.43667 0.82361 0.0
C15 C 0.10752 0.39038 0.79609 0.0
C16 C 0.10394 0.33958 0.83234 0.0
C17 C 0.08794 0.3348 0.89567 0.0
C18 C 0.1486 0.49849 0.18082 0.0
C19 C 0.28461 0.48703 0.06857 0.0
O20 O 0.28271 0.49525 0.28058 0.0
O21 O 0.27195 0.39819 0.28255 0.0
O22 O 0.15962 0.33281 0.1447 0.0
O23 O 0.26094 0.36296 0.14678 0.0
O24 O 0.05213 0.33071 0.17724 0.0
O25 O 0.1294 0.37885 0.25501 0.0
O26 O 0.05963 0.33005 1.02384 0.0
O27 O 0.08373 0.43177 1.02174 0.0
O28 O 0.19121 0.48808 0.1574 0.0
O29 O 0.09064 0.45852 0.16009 0.0
O30 O 0.29927 0.49486 0.12837 0.0
O31 O 0.22532 0.44696 0.04758 0.0
H32 H 0.31908 0.40217 0.41332 0.0
H33 H 0.27225 0.38116 0.5191 0.0
H34 H 0.14372 0.45157 0.46315 0.0
H35 H 0.18987 0.47227 0.35763 0.0
H36 H 0.06943 0.4682 0.90744 0.0
H37 H 0.09747 0.47617 0.79606 0.0
H38 H 0.11364 0.30356 0.81169 0.0
H39 H 0.08562 0.29494 0.92243 0.0
Pr40 Pr 0.7761 0.19854 0.54254 0.0
Pr41 Pr 0.87925 0.27509 0.64482 0.0
C42 C 0.71733 0.16493 0.43077 0.0
C43 C 0.74417 0.1818 0.36692 0.0
C44 C 0.72187 0.13364 0.32048 0.0
C45 C 0.74864 0.14875 0.26035 0.0
C46 C 0.79801 0.21217 0.24612 0.0
C47 C 0.8215 0.26003 0.29267 0.0
C48 C 0.79489 0.24499 0.35275 0.0
C49 C 0.80045 0.12009 0.62058 0.0
C50 C 0.9342 0.27226 0.50823 0.0
C51 C 0.94406 0.31924 0.75345 0.0
C52 C 0.92765 0.30756 0.82083 0.0
C53 C 0.9239 0.35504 0.85728 0.0
C54 C 0.90796 0.34403 0.92082 0.0
C55 C 0.89542 0.28538 0.94865 0.0
C56 C 0.89901 0.23799 0.91271 0.0
C57 C 0.91509 0.24895 0.84938 0.0
C58 C 0.85425 0.35083 0.56382 0.0
C59 C 0.71878 0.20311 0.67615 0.0
O60 O 0.72005 0.21239 0.46441 0.0
O61 O 0.73272 0.12723 0.4622 0.0
O62 O 0.84443 0.17462 0.60025 0.0
O63 O 0.7432 0.10322 0.59838 0.0
O64 O 0.95152 0.28024 0.56762 0.0
O65 O 0.87428 0.25113 0.48983 0.0
O66 O 0.9437 0.27204 0.72121 0.0
O67 O 0.91958 0.34967 0.72269 0.0
O68 O 0.81183 0.29775 0.58726 0.0
O69 O 0.91229 0.36906 0.58451 0.0
O70 O 0.70414 0.19617 0.61635 0.0
O71 O 0.77813 0.22261 0.69717 0.0
H72 H 0.68376 0.08441 0.33074 0.0
H73 H 0.73027 0.11115 0.22486 0.0
H74 H 0.85989 0.30917 0.28242 0.0
H75 H 0.81401 0.2828 0.38802 0.0
H76 H 0.93373 0.40085 0.83674 0.0
H77 H 0.90554 0.38124 0.94813 0.0
H78 H 0.88925 0.19234 0.9336 0.0
H79 H 0.91742 0.21129 0.82286 0.0
Pr80 Pr 0.57824 0.80361 0.8691 0.0
Pr81 Pr 0.60503 0.72695 0.76658 0.0
C82 C 0.55243 0.83631 0.98098 0.0
C83 C 0.5631 0.81958 0.04467 0.0
C84 C 0.59083 0.86818 0.09058 0.0
C85 C 0.60334 0.85324 0.15044 0.0
C86 C 0.58823 0.78952 0.16496 0.0
C87 C 0.56199 0.74119 0.11894 0.0
C88 C 0.54962 0.75607 0.05911 0.0
C89 C 0.68136 0.88197 0.79153 0.0
C90 C 0.66288 0.72993 0.90324 0.0
C91 C 0.62603 0.68298 0.65797 0.0
C92 C 0.62166 0.69481 0.59056 0.0
C93 C 0.57083 0.64731 0.55381 0.0
C94 C 0.56637 0.65838 0.49018 0.0
C95 C 0.61254 0.71709 0.46257 0.0
C96 C 0.66306 0.76452 0.49883 0.0
C97 C 0.66772 0.75352 0.56224 0.0
C98 C 0.50426 0.65137 0.84747 0.0
C99 C 0.5167 0.7992 0.73522 0.0
O100 O 0.5081 0.78859 0.94732 0.0
O101 O 0.6051 0.87479 0.94944 0.0
O102 O 0.67044 0.8272 0.8116 0.0
O103 O 0.64134 0.89924 0.81397 0.0
O104 O 0.67204 0.72174 0.84387 0.0
O105 O 0.62423 0.75127 0.92171 0.0
O106 O 0.67272 0.73005 0.6904 0.0
O107 O 0.57102 0.65258 0.6885 0.0
O108 O 0.51508 0.70455 0.82406 0.0
O109 O 0.54388 0.6329 0.82671 0.0
O110 O 0.50906 0.80633 0.795 0.0
O111 O 0.55643 0.77952 0.71424 0.0
H112 H 0.60279 0.91765 0.08008 0.0
H113 H 0.624 0.89119 0.18554 0.0
H114 H 0.55039 0.6918 0.12943 0.0
H115 H 0.52952 0.71787 1.02424 0.0
H116 H 0.53485 0.60144 0.57416 0.0
H117 H 0.52708 0.62113 0.46261 0.0
H118 H 0.69897 0.81023 0.47811 0.0
H119 H 0.70739 0.7912 0.589 0.0
Pr120 Pr 0.80464 0.57765 0.20865 0.0
Pr121 Pr 0.7278 0.60434 0.31131 0.0
C122 C 0.83735 0.5516 0.09687 0.0
C123 C 0.82084 0.5623 0.03312 0.0
C124 C 0.86936 0.58909 0.98707 0.0
C125 C 0.85462 0.60157 0.92711 0.0
C126 C 0.7912 0.58737 0.91264 0.0
C127 C 0.74298 0.56208 0.95881 0.0
C128 C 0.75765 0.54973 1.01873 0.0
C129 C 0.88276 0.6808 0.28628 0.0
C130 C 0.73096 0.66234 0.17459 0.0
C131 C 0.68384 0.62528 0.41993 0.0
C132 C 0.69576 0.6209 0.48732 0.0
C133 C 0.64852 0.56983 0.52407 0.0
C134 C 0.65974 0.56533 0.58765 0.0
C135 C 0.71837 0.61169 0.61519 0.0
C136 C 0.76553 0.66247 0.57895 0.0
C137 C 0.75435 0.66718 0.5156 0.0
C138 C 0.65242 0.50372 0.23028 0.0
C139 C 0.80009 0.51598 0.34259 0.0
O140 O 0.78947 0.50739 0.13049 0.0
O141 O 0.87587 0.60428 0.12839 0.0
O142 O 0.82797 0.66973 0.26623 0.0
O143 O 0.90024 0.64099 0.26368 0.0
O144 O 0.72257 0.67133 0.23397 0.0
O145 O 0.7525 0.62386 0.15609 0.0
O146 O 0.73084 0.67203 0.38747 0.0
O147 O 0.65345 0.57025 0.38941 0.0
O148 O 0.70558 0.51453 0.25368 0.0
O149 O 0.63384 0.5432 0.25121 0.0
O150 O 0.80742 0.50851 0.28282 0.0
O151 O 0.78024 0.55558 0.36361 0.0
H152 H 0.91859 0.60032 0.99752 0.0
H153 H 0.89249 0.6215 0.89189 0.0
H154 H 0.69383 0.5512 0.94836 0.0
H155 H 0.71956 0.53035 0.05371 0.0
H156 H 0.60272 0.53369 0.50375 0.0
H157 H 0.6227 0.52584 0.61521 0.0
H158 H 0.81116 0.69854 0.59963 0.0
H159 H 0.79183 0.70705 0.48885 0.0
Pr160 Pr 0.19945 0.77542 0.53547 0.0
Pr161 Pr 0.27552 0.87831 0.4334 0.0
C162 C 0.16538 0.71711 0.64742 0.0
C163 C 0.18198 0.74434 0.71116 0.0
C164 C 0.13333 0.72332 0.75701 0.0
C165 C 0.14819 0.75037 0.81702 0.0
C166 C 0.21186 0.79877 0.83174 0.0
C167 C 0.26024 0.82108 0.78574 0.0
C168 C 0.24545 0.7942 0.72576 0.0
C169 C 0.1207 0.7993 0.45741 0.0
C170 C 0.27325 0.93348 0.5699 0.0
C171 C 0.31919 0.94308 0.32467 0.0
C172 C 0.3071 0.92679 0.25732 0.0
C173 C 0.35432 0.92302 0.2205 0.0
C174 C 0.34307 0.90742 0.15693 0.0
C175 C 0.28443 0.89523 0.12943 0.0
C176 C 0.23725 0.89875 0.16576 0.0
C177 C 0.24845 0.91449 0.22914 0.0
C178 C 0.35168 0.85354 0.51404 0.0
C179 C 0.20394 0.71787 0.40218 0.0
O180 O 0.2129 0.71957 0.6141 0.0
O181 O 0.12779 0.73228 0.61555 0.0
O182 O 0.17504 0.8435 0.47786 0.0
O183 O 0.10431 0.74201 0.47926 0.0
O184 O 0.2809 0.95076 0.51052 0.0
O185 O 0.25235 0.87356 0.58824 0.0
O186 O 0.27234 0.94297 0.35727 0.0
O187 O 0.34956 0.91832 0.35508 0.0
O188 O 0.29861 0.811 0.49073 0.0
O189 O 0.36962 0.91158 0.49347 0.0
O190 O 0.19755 0.7034 0.46202 0.0
O191 O 0.22285 0.77712 0.38113 0.0
H192 H 0.0839 0.68594 0.74639 0.0
H193 H 0.11019 0.73292 0.85208 0.0
H194 H 0.30959 0.85872 0.79637 0.0
H195 H 0.28368 0.8124 0.69093 0.0
H196 H 0.40015 0.93265 0.24077 0.0
H197 H 0.38012 0.90504 0.12932 0.0
H198 H 0.1916 0.88922 0.14512 0.0
H199 H 0.21098 0.91682 0.25597 0.0
Pr200 Pr 0.42574 0.22706 0.87561 0.0
Pr201 Pr 0.39871 0.12369 0.97818 0.0
C202 C 0.45141 0.28546 0.76365 0.0
C203 C 0.4405 0.25803 0.69999 0.0
C204 C 0.41259 0.2789 0.65423 0.0
C205 C 0.39985 0.25145 0.59438 0.0
C206 C 0.41491 0.20285 0.57972 0.0
C207 C 0.44132 0.18073 0.6256 0.0
C208 C 0.45393 0.20798 0.68542 0.0
C209 C 0.32296 0.20302 0.95339 0.0
C210 C 0.34081 0.06882 0.84151 0.0
C211 C 0.37754 0.0587 0.08683 0.0
C212 C 0.38167 0.0748 0.15424 0.0
C213 C 0.43255 0.07835 0.19111 0.0
C214 C 0.43681 0.09382 0.25472 0.0
C215 C 0.39039 0.10609 0.28219 0.0
C216 C 0.33979 0.10274 0.24583 0.0
C217 C 0.33532 0.08712 0.18242 0.0
C218 C 0.49924 0.14824 0.8972 0.0
C219 C 0.48766 0.28426 1.00927 0.0
O220 O 0.49575 0.28194 0.79722 0.0
O221 O 0.39885 0.27146 0.79531 0.0
O222 O 0.3335 0.15892 0.9333 0.0
O223 O 0.3632 0.26018 0.93088 0.0
O224 O 0.33165 0.05149 0.90091 0.0
O225 O 0.37947 0.12877 0.82303 0.0
O226 O 0.33089 0.05903 0.05424 0.0
O227 O 0.43265 0.08342 0.05646 0.0
O228 O 0.48872 0.19082 0.92056 0.0
O229 O 0.45944 0.09026 0.91808 0.0
O230 O 0.49529 0.2989 0.94946 0.0
O231 O 0.44776 0.22494 0.03037 0.0
H232 H 0.40067 0.31642 0.66482 0.0
H233 H 0.37905 0.26876 0.5594 0.0
H234 H 0.45289 0.14294 0.615 0.0
H235 H 0.47415 0.18987 0.72018 0.0
H236 H 0.46872 0.06866 0.17086 0.0
H237 H 0.47616 0.09606 0.28238 0.0
H238 H 0.30368 0.11231 0.26645 0.0
H239 H 0.2956 0.08493 0.15558 0.0
C240 C 0.23043 0.20063 1.02143 0.0
C241 C 0.2685 0.19228 0.99117 0.0
C242 C 0.20147 0.22971 0.05677 0.0
C243 C 0.19314 0.26788 0.08692 0.0
C244 C 0.00699 0.29714 0.33989 0.0
C245 C 0.02439 0.30948 0.28639 0.0
C246 C 0.99678 0.29206 0.40498 0.0
C247 C 0.97935 0.28695 0.45847 0.0
C248 C 0.8032 0.02982 0.68821 0.0
C249 C 0.81139 0.07629 0.65809 0.0
C250 C 0.77419 0.97179 0.72355 0.0
C251 C 0.73597 0.92545 0.75379 0.0
C252 C 0.70588 0.71027 1.00639 0.0
C253 C 0.69343 0.71529 0.95293 0.0
C254 C 0.71107 0.70519 0.07146 0.0
C255 C 0.71617 0.6928 0.12492 0.0
C256 C 0.03 0.8019 0.39038 0.0
C257 C 0.07654 0.81004 0.4203 0.0
C258 C 0.97206 0.77315 0.35498 0.0
C259 C 0.92589 0.73515 0.32445 0.0
C260 C 0.29818 0.00621 0.73829 0.0
C261 C 0.31043 0.02363 0.79179 0.0
C262 C 0.29313 0.99602 0.67319 0.0
C263 C 0.28796 0.97861 0.61969 0.0
C264 C 0.13929 0.397 0.67669 0.0
C265 C 0.12473 0.39499 0.73096 0.0
C266 C 0.15986 0.40083 0.61412 0.0
C267 C 0.18062 0.40734 0.56158 0.0
C268 C 0.84298 0.24357 0.13062 0.0
C269 C 0.82237 0.22908 0.18319 0.0
C270 C 0.86349 0.26044 0.06805 0.0
C271 C 0.87813 0.273 1.01378 0.0
C272 C 0.60641 0.74191 0.34297 0.0
C273 C 0.60816 0.72947 0.39733 0.0
C274 C 0.60275 0.75855 0.28033 0.0
C275 C 0.59619 0.77282 0.22781 0.0
C276 C 0.76034 0.6018 0.79723 0.0
C277 C 0.77462 0.59531 0.84975 0.0
C278 C 0.74356 0.60544 0.73464 0.0
C279 C 0.73095 0.60724 0.68035 0.0
C280 C 0.24277 0.84379 0.94725 0.0
C281 C 0.22846 0.82314 0.89469 0.0
C282 C 0.25944 0.86409 1.00989 0.0
C283 C 0.2719 0.87836 0.06423 0.0
C284 C 0.40008 0.15733 0.46438 0.0
C285 C 0.40676 0.17821 0.51687 0.0
C286 C 0.39636 0.137 0.40176 0.0
C287 C 0.39462 0.12283 0.34741 0.0
C288 C 0.17081 0.58288 0.2706 0.0
C289 C 0.16144 0.54456 0.22957 0.0
C290 C 0.18118 0.62794 0.31822 0.0
C291 C 0.19122 0.66799 0.35765 0.0
C292 C 0.62886 0.18064 0.76005 0.0
C293 C 0.66894 0.19054 0.72069 0.0
C294 C 0.58375 0.17042 0.80756 0.0
C295 C 0.54539 0.16111 0.84853 0.0
C296 C 0.37445 0.55459 0.98463 0.0
C297 C 0.33439 0.52437 1.02399 0.0
C298 C 0.41959 0.58942 0.93712 0.0
C299 C 0.45802 0.61833 0.89615 0.0
C300 C 0.8319 0.41306 0.47414 0.0
C301 C 0.84119 0.38399 0.51513 0.0
C302 C 0.82194 0.4481 0.42656 0.0
C303 C 0.81234 0.47846 0.38714 0.0
C304 C 0.41415 0.83125 0.60351 0.0
C305 C 0.38501 0.84057 0.56262 0.0
C306 C 0.44908 0.82121 0.65112 0.0
C307 C 0.4793 0.81154 0.69062 0.0
C308 C 0.59049 0.41925 0.14052 0.0
C309 C 0.61943 0.45757 0.18154 0.0
C310 C 0.55552 0.37415 0.09304 0.0
C311 C 0.52516 0.33409 0.05374 0.0
loop_
_geom_bond_atom_site_label_1
_geom_bond_atom_site_label_2
_geom_bond_distance
_geom_bond_site_symmetry_2
_ccdc_geom_bond_type
Pr0 C2 2.880 . S
Pr0 O20 2.562 . S
Pr0 O21 2.490 . S
Pr0 O22 2.695 . S
Pr0 O23 2.512 . S
Pr0 O25 2.437 . S
Pr0 O28 2.436 . S
Pr0 O30 2.438 . S
Pr1 C11 2.880 1_554 S
Pr1 O22 2.436 . S
Pr1 O24 2.438 . S
Pr1 O26 2.562 1_554 S
Pr1 O27 2.490 1_554 S
Pr1 O28 2.695 . S
Pr1 O29 2.512 . S
Pr1 O31 2.437 . S
C2 Pr0 2.880 . S
C2 C3 1.491 . S
C2 O20 1.254 . S
C2 O21 1.225 . S
C3 C2 1.491 . S
C3 C4 1.392 . S
C3 C8 1.356 . S
C4 C3 1.392 . S
C4 C5 1.368 . S
C4 H32 0.929 . S
C5 C4 1.368 . S
C5 C6 1.386 . S
C5 H33 0.929 . S
C6 C5 1.386 . S
C6 C7 1.373 . S
C7 C6 1.373 . S
C7 C8 1.409 . S
C7 H34 0.931 . S
C8 C3 1.356 . S
C8 C7 1.409 . S
C8 H35 0.930 . S
C9 O22 1.270 . S
C9 O23 1.248 . S
C10 O24 1.267 . S
C10 O25 1.278 . S
C11 Pr1 2.880 1_556 S
C11 C12 1.491 . S
C11 O26 1.254 . S
C11 O27 1.225 . S
C12 C11 1.491 . S
C12 C13 1.392 . S
C12 C17 1.356 . S
C13 C12 1.392 . S
C13 C14 1.368 . S
C13 H36 0.929 . S
C14 C13 1.368 . S
C14 C15 1.386 . S
C14 H37 0.929 . S
C15 C14 1.386 . S
C15 C16 1.373 . S
C16 C15 1.373 . S
C16 C17 1.409 . S
C16 H38 0.931 . S
C17 C12 1.356 . S
C17 C16 1.409 . S
C17 H39 0.930 . S
C18 O28 1.270 . S
C18 O29 1.248 . S
C19 O30 1.267 . S
C19 O31 1.278 . S
O20 Pr0 2.562 . S
O20 C2 1.254 . S
O21 Pr0 2.490 . S
O21 C2 1.225 . S
O22 Pr0 2.695 . S
O22 Pr1 2.436 . S
O22 C9 1.270 . S
O23 Pr0 2.512 . S
O23 C9 1.248 . S
O24 Pr1 2.438 . S
O24 C10 1.267 . S
O25 Pr0 2.437 . S
O25 C10 1.278 . S
O26 Pr1 2.562 1_556 S
O26 C11 1.254 . S
O27 Pr1 2.490 1_556 S
O27 C11 1.225 . S
O28 Pr0 2.436 . S
O28 Pr1 2.695 . S
O28 C18 1.270 . S
O29 Pr1 2.512 . S
O29 C18 1.248 . S
O30 Pr0 2.438 . S
O30 C19 1.267 . S
O31 Pr1 2.437 . S
O31 C19 1.278 . S
H32 C4 0.929 . S
H33 C5 0.929 . S
H34 C7 0.931 . S
H35 C8 0.930 . S
H36 C13 0.929 . S
H37 C14 0.929 . S
H38 C16 0.931 . S
H39 C17 0.930 . S
Pr40 C42 2.880 . S
Pr40 O60 2.562 . S
Pr40 O61 2.490 . S
Pr40 O62 2.695 . S
Pr40 O63 2.512 . S
Pr40 O65 2.437 . S
Pr40 O68 2.436 . S
Pr40 O70 2.438 . S
Pr41 C51 2.880 . S
Pr41 O62 2.436 . S
Pr41 O64 2.438 . S
Pr41 O66 2.562 . S
Pr41 O67 2.490 . S
Pr41 O68 2.695 . S
Pr41 O69 2.512 . S
Pr41 O71 2.437 . S
C42 Pr40 2.880 . S
C42 C43 1.491 . S
C42 O60 1.254 . S
C42 O61 1.225 . S
C43 C42 1.491 . S
C43 C44 1.392 . S
C43 C48 1.356 . S
C44 C43 1.392 . S
C44 C45 1.368 . S
C44 H72 0.929 . S
C45 C44 1.368 . S
C45 C46 1.386 . S
C45 H73 0.929 . S
C46 C45 1.386 . S
C46 C47 1.373 . S
C47 C46 1.373 . S
C47 C48 1.409 . S
C47 H74 0.931 . S
C48 C43 1.356 . S
C48 C47 1.409 . S
C48 H75 0.930 . S
C49 O62 1.270 . S
C49 O63 1.248 . S
C50 O64 1.267 . S
C50 O65 1.278 . S
C51 Pr41 2.880 . S
C51 C52 1.491 . S
C51 O66 1.254 . S
C51 O67 1.225 . S
C52 C51 1.491 . S
C52 C53 1.392 . S
C52 C57 1.356 . S
C53 C52 1.392 . S
C53 C54 1.368 . S
C53 H76 0.929 . S
C54 C53 1.368 . S
C54 C55 1.386 . S
C54 H77 0.929 . S
C55 C54 1.386 . S
C55 C56 1.373 . S
C56 C55 1.373 . S
C56 C57 1.409 . S
C56 H78 0.931 . S
C57 C52 1.356 . S
C57 C56 1.409 . S
C57 H79 0.930 . S
C58 O68 1.270 . S
C58 O69 1.248 . S
C59 O70 1.267 . S
C59 O71 1.278 . S
O60 Pr40 2.562 . S
O60 C42 1.254 . S
O61 Pr40 2.490 . S
O61 C42 1.225 . S
O62 Pr40 2.695 . S
O62 Pr41 2.436 . S
O62 C49 1.270 . S
O63 Pr40 2.512 . S
O63 C49 1.248 . S
O64 Pr41 2.438 . S
O64 C50 1.267 . S
O65 Pr40 2.437 . S
O65 C50 1.278 . S
O66 Pr41 2.562 . S
O66 C51 1.254 . S
O67 Pr41 2.490 . S
O67 C51 1.225 . S
O68 Pr40 2.436 . S
O68 Pr41 2.695 . S
O68 C58 1.270 . S
O69 Pr41 2.512 . S
O69 C58 1.248 . S
O70 Pr40 2.438 . S
O70 C59 1.267 . S
O71 Pr41 2.437 . S
O71 C59 1.278 . S
H72 C44 0.929 . S
H73 C45 0.929 . S
H74 C47 0.931 . S
H75 C48 0.930 . S
H76 C53 0.929 . S
H77 C54 0.929 . S
H78 C56 0.931 . S
H79 C57 0.930 . S
Pr80 C82 2.880 . S
Pr80 O100 2.562 . S
Pr80 O101 2.490 . S
Pr80 O102 2.695 . S
Pr80 O103 2.512 . S
Pr80 O105 2.437 . S
Pr80 O108 2.436 . S
Pr80 O110 2.438 . S
Pr81 C91 2.880 . S
Pr81 O102 2.436 . S
Pr81 O104 2.438 . S
Pr81 O106 2.562 . S
Pr81 O107 2.490 . S
Pr81 O108 2.695 . S
Pr81 O109 2.512 . S
Pr81 O111 2.437 . S
C82 Pr80 2.880 . S
C82 C83 1.491 1_556 S
C82 O100 1.254 . S
C82 O101 1.225 . S
C83 C82 1.491 1_554 S
C83 C84 1.392 . S
C83 C88 1.356 . S
C84 C83 1.392 . S
C84 C85 1.368 . S
C84 H112 0.929 . S
C85 C84 1.368 . S
C85 C86 1.386 . S
C85 H113 0.929 . S
C86 C85 1.386 . S
C86 C87 1.373 . S
C87 C86 1.373 . S
C87 C88 1.409 . S
C87 H114 0.931 . S
C88 C83 1.356 . S
C88 C87 1.409 . S
C88 H115 0.930 . S
C89 O102 1.270 . S
C89 O103 1.248 . S
C90 O104 1.267 . S
C90 O105 1.278 . S
C91 Pr81 2.880 . S
C91 C92 1.491 . S
C91 O106 1.254 . S
C91 O107 1.225 . S
C92 C91 1.491 . S
C92 C93 1.392 . S
C92 C97 1.356 . S
C93 C92 1.392 . S
C93 C94 1.368 . S
C93 H116 0.929 . S
C94 C93 1.368 . S
C94 C95 1.386 . S
C94 H117 0.929 . S
C95 C94 1.386 . S
C95 C96 1.373 . S
C96 C95 1.373 . S
C96 C97 1.409 . S
C96 H118 0.931 . S
C97 C92 1.356 . S
C97 C96 1.409 . S
C97 H119 0.930 . S
C98 O108 1.270 . S
C98 O109 1.248 . S
C99 O110 1.267 . S
C99 O111 1.278 . S
O100 Pr80 2.562 . S
O100 C82 1.254 . S
O101 Pr80 2.490 . S
O101 C82 1.225 . S
O102 Pr80 2.695 . S
O102 Pr81 2.436 . S
O102 C89 1.270 . S
O103 Pr80 2.512 . S
O103 C89 1.248 . S
O104 Pr81 2.438 . S
O104 C90 1.267 . S
O105 Pr80 2.437 . S
O105 C90 1.278 . S
O106 Pr81 2.562 . S
O106 C91 1.254 . S
O107 Pr81 2.490 . S
O107 C91 1.225 . S
O108 Pr80 2.436 . S
O108 Pr81 2.695 . S
O108 C98 1.270 . S
O109 Pr81 2.512 . S
O109 C98 1.248 . S
O110 Pr80 2.438 . S
O110 C99 1.267 . S
O111 Pr81 2.437 . S
O111 C99 1.278 . S
H112 C84 0.929 . S
H113 C85 0.929 . S
H114 C87 0.931 . S
H115 C88 0.930 . S
H116 C93 0.929 . S
H117 C94 0.929 . S
H118 C96 0.931 . S
H119 C97 0.930 . S
Pr120 C122 2.880 . S
Pr120 O140 2.562 . S
Pr120 O141 2.490 . S
Pr120 O142 2.695 . S
Pr120 O143 2.512 . S
Pr120 O145 2.437 . S
Pr120 O148 2.436 . S
Pr120 O150 2.438 . S
Pr121 C131 2.880 . S
Pr121 O142 2.436 . S
Pr121 O144 2.438 . S
Pr121 O146 2.562 . S
Pr121 O147 2.490 . S
Pr121 O148 2.695 . S
Pr121 O149 2.512 . S
Pr121 O151 2.437 . S
C122 Pr120 2.880 . S
C122 C123 1.491 1_554 S
C122 O140 1.254 . S
C122 O141 1.225 . S
C123 C122 1.491 1_556 S
C123 C124 1.392 . S
C123 C128 1.356 . S
C124 C123 1.392 . S
C124 C125 1.368 . S
C124 H152 0.929 . S
C125 C124 1.368 . S
C125 C126 1.386 . S
C125 H153 0.929 . S
C126 C125 1.386 . S
C126 C127 1.373 . S
C127 C126 1.373 . S
C127 C128 1.409 . S
C127 H154 0.931 . S
C128 C123 1.356 . S
C128 C127 1.409 . S
C128 H155 0.930 . S
C129 O142 1.270 . S
C129 O143 1.248 . S
C130 O144 1.267 . S
C130 O145 1.278 . S
C131 Pr121 2.880 . S
C131 C132 1.491 . S
C131 O146 1.254 . S
C131 O147 1.225 . S
C132 C131 1.491 . S
C132 C133 1.392 . S
C132 C137 1.356 . S
C133 C132 1.392 . S
C133 C134 1.368 . S
C133 H156 0.929 . S
C134 C133 1.368 . S
C134 C135 1.386 . S
C134 H157 0.929 . S
C135 C134 1.386 . S
C135 C136 1.373 . S
C136 C135 1.373 . S
C136 C137 1.409 . S
C136 H158 0.931 . S
C137 C132 1.356 . S
C137 C136 1.409 . S
C137 H159 0.930 . S
C138 O148 1.270 . S
C138 O149 1.248 . S
C139 O150 1.267 . S
C139 O151 1.278 . S
O140 Pr120 2.562 . S
O140 C122 1.254 . S
O141 Pr120 2.490 . S
O141 C122 1.225 . S
O142 Pr120 2.695 . S
O142 Pr121 2.436 . S
O142 C129 1.270 . S
O143 Pr120 2.512 . S
O143 C129 1.248 . S
O144 Pr121 2.438 . S
O144 C130 1.267 . S
O145 Pr120 2.437 . S
O145 C130 1.278 . S
O146 Pr121 2.562 . S
O146 C131 1.254 . S
O147 Pr121 2.490 . S
O147 C131 1.225 . S
O148 Pr120 2.436 . S
O148 Pr121 2.695 . S
O148 C138 1.270 . S
O149 Pr121 2.512 . S
O149 C138 1.248 . S
O150 Pr120 2.438 . S
O150 C139 1.267 . S
O151 Pr121 2.437 . S
O151 C139 1.278 . S
H152 C124 0.929 . S
H153 C125 0.929 . S
H154 C127 0.931 . S
H155 C128 0.930 . S
H156 C133 0.929 . S
H157 C134 0.929 . S
H158 C136 0.931 . S
H159 C137 0.930 . S
Pr160 C162 2.880 . S
Pr160 O180 2.562 . S
Pr160 O181 2.490 . S
Pr160 O182 2.695 . S
Pr160 O183 2.512 . S
Pr160 O185 2.437 . S
Pr160 O188 2.436 . S
Pr160 O190 2.438 . S
Pr161 C171 2.880 . S
Pr161 O182 2.436 . S
Pr161 O184 2.438 . S
Pr161 O186 2.562 . S
Pr161 O187 2.490 . S
Pr161 O188 2.695 . S
Pr161 O189 2.512 . S
Pr161 O191 2.437 . S
C162 Pr160 2.880 . S
C162 C163 1.491 . S
C162 O180 1.254 . S
C162 O181 1.225 . S
C163 C162 1.491 . S
C163 C164 1.392 . S
C163 C168 1.356 . S
C164 C163 1.392 . S
C164 C165 1.368 . S
C164 H192 0.929 . S
C165 C164 1.368 . S
C165 C166 1.386 . S
C165 H193 0.929 . S
C166 C165 1.386 . S
C166 C167 1.373 . S
C167 C166 1.373 . S
C167 C168 1.409 . S
C167 H194 0.931 . S
C168 C163 1.356 . S
C168 C167 1.409 . S
C168 H195 0.930 . S
C169 O182 1.270 . S
C169 O183 1.248 . S
C170 O184 1.267 . S
C170 O185 1.278 . S
C171 Pr161 2.880 . S
C171 C172 1.491 . S
C171 O186 1.254 . S
C171 O187 1.225 . S
C172 C171 1.491 . S
C172 C173 1.392 . S
C172 C177 1.356 . S
C173 C172 1.392 . S
C173 C174 1.368 . S
C173 H196 0.929 . S
C174 C173 1.368 . S
C174 C175 1.386 . S
C174 H197 0.929 . S
C175 C174 1.386 . S
C175 C176 1.373 . S
C176 C175 1.373 . S
C176 C177 1.409 . S
C176 H198 0.931 . S
C177 C172 1.356 . S
C177 C176 1.409 . S
C177 H199 0.930 . S
C178 O188 1.270 . S
C178 O189 1.248 . S
C179 O190 1.267 . S
C179 O191 1.278 . S
O180 Pr160 2.562 . S
O180 C162 1.254 . S
O181 Pr160 2.490 . S
O181 C162 1.225 . S
O182 Pr160 2.695 . S
O182 Pr161 2.436 . S
O182 C169 1.270 . S
O183 Pr160 2.512 . S
O183 C169 1.248 . S
O184 Pr161 2.438 . S
O184 C170 1.267 . S
O185 Pr160 2.437 . S
O185 C170 1.278 . S
O186 Pr161 2.562 . S
O186 C171 1.254 . S
O187 Pr161 2.490 . S
O187 C171 1.225 . S
O188 Pr160 2.436 . S
O188 Pr161 2.695 . S
O188 C178 1.270 . S
O189 Pr161 2.512 . S
O189 C178 1.248 . S
O190 Pr160 2.438 . S
O190 C179 1.267 . S
O191 Pr161 2.437 . S
O191 C179 1.278 . S
H192 C164 0.929 . S
H193 C165 0.929 . S
H194 C167 0.931 . S
H195 C168 0.930 . S
H196 C173 0.929 . S
H197 C174 0.929 . S
H198 C176 0.931 . S
H199 C177 0.930 . S
Pr200 C202 2.880 . S
Pr200 O220 2.562 . S
Pr200 O221 2.490 . S
Pr200 O222 2.695 . S
Pr200 O223 2.512 . S
Pr200 O225 2.437 . S
Pr200 O228 2.436 . S
Pr200 O230 2.438 . S
Pr201 C211 2.880 1_556 S
Pr201 O222 2.436 . S
Pr201 O224 2.438 . S
Pr201 O226 2.562 1_556 S
Pr201 O227 2.490 1_556 S
Pr201 O228 2.695 . S
Pr201 O229 2.512 . S
Pr201 O231 2.437 1_556 S
C202 Pr200 2.880 . S
C202 C203 1.491 . S
C202 O220 1.254 . S
C202 O221 1.225 . S
C203 C202 1.491 . S
C203 C204 1.392 . S
C203 C208 1.356 . S
C204 C203 1.392 . S
C204 C205 1.368 . S
C204 H232 0.929 . S
C205 C204 1.368 . S
C205 C206 1.386 . S
C205 H233 0.929 . S
C206 C205 1.386 . S
C206 C207 1.373 . S
C207 C206 1.373 . S
C207 C208 1.409 . S
C207 H234 0.931 . S
C208 C203 1.356 . S
C208 C207 1.409 . S
C208 H235 0.930 . S
C209 O222 1.270 . S
C209 O223 1.248 . S
C210 O224 1.267 . S
C210 O225 1.278 . S
C211 Pr201 2.880 1_554 S
C211 C212 1.491 . S
C211 O226 1.254 . S
C211 O227 1.225 . S
C212 C211 1.491 . S
C212 C213 1.392 . S
C212 C217 1.356 . S
C213 C212 1.392 . S
C213 C214 1.368 . S
C213 H236 0.929 . S
C214 C213 1.368 . S
C214 C215 1.386 . S
C214 H237 0.929 . S
C215 C214 1.386 . S
C215 C216 1.373 . S
C216 C215 1.373 . S
C216 C217 1.409 . S
C216 H238 0.931 . S
C217 C212 1.356 . S
C217 C216 1.409 . S
C217 H239 0.930 . S
C218 O228 1.270 . S
C218 O229 1.248 . S
C219 O230 1.267 . S
C219 O231 1.278 1_556 S
O220 Pr200 2.562 . S
O220 C202 1.254 . S
O221 Pr200 2.490 . S
O221 C202 1.225 . S
O222 Pr200 2.695 . S
O222 Pr201 2.436 . S
O222 C209 1.270 . S
O223 Pr200 2.512 . S
O223 C209 1.248 . S
O224 Pr201 2.438 . S
O224 C210 1.267 . S
O225 Pr200 2.437 . S
O225 C210 1.278 . S
O226 Pr201 2.562 1_554 S
O226 C211 1.254 . S
O227 Pr201 2.490 1_554 S
O227 C211 1.225 . S
O228 Pr200 2.436 . S
O228 Pr201 2.695 . S
O228 C218 1.270 . S
O229 Pr201 2.512 . S
O229 C218 1.248 . S
O230 Pr200 2.438 . S
O230 C219 1.267 . S
O231 Pr201 2.437 1_554 S
O231 C219 1.278 1_554 S
H232 C204 0.929 . S
H233 C205 0.929 . S
H234 C207 0.931 . S
H235 C208 0.930 . S
H236 C213 0.929 . S
H237 C214 0.929 . S
H238 C216 0.931 . S
H239 C217 0.930 . S
C240 C241 1.170 . S
C240 C242 1.380 1_556 S
C241 C240 1.170 . S
C242 C240 1.380 1_554 S
C242 C243 1.170 . S
C243 C242 1.170 . S
C244 C245 1.170 . S
C244 C246 1.382 . S
C245 C244 1.170 . S
C246 C244 1.382 . S
C246 C247 1.168 1_455 S
C247 C246 1.168 1_655 S
C248 C249 1.170 . S
C248 C250 1.380 1_545 S
C249 C248 1.170 . S
C250 C248 1.380 1_565 S
C250 C251 1.170 . S
C251 C250 1.170 . S
C252 C253 1.170 . S
C252 C254 1.380 1_556 S
C253 C252 1.170 . S
C254 C252 1.380 1_554 S
C254 C255 1.170 . S
C255 C254 1.170 . S
C256 C257 1.170 . S
C256 C258 1.380 1_455 S
C257 C256 1.170 . S
C258 C256 1.380 1_655 S
C258 C259 1.170 . S
C259 C258 1.170 . S
C260 C261 1.170 . S
C260 C262 1.380 1_545 S
C261 C260 1.170 . S
C262 C260 1.380 1_565 S
C262 C263 1.170 . S
C263 C262 1.170 . S
C264 C265 1.170 . S
C264 C266 1.380 . S
C265 C264 1.170 . S
C266 C264 1.380 . S
C266 C267 1.170 . S
C267 C266 1.170 . S
C268 C269 1.170 . S
C268 C270 1.380 . S
C269 C268 1.170 . S
C270 C268 1.380 . S
C270 C271 1.170 . S
C271 C270 1.170 . S
C272 C273 1.170 . S
C272 C274 1.380 . S
C273 C272 1.170 . S
C274 C272 1.380 . S
C274 C275 1.170 . S
C275 C274 1.170 . S
C276 C277 1.170 . S
C276 C278 1.380 . S
C277 C276 1.170 . S
C278 C276 1.380 . S
C278 C279 1.170 . S
C279 C278 1.170 . S
C280 C281 1.170 . S
C280 C282 1.380 . S
C281 C280 1.170 . S
C282 C280 1.380 . S
C282 C283 1.170 . S
C283 C282 1.170 . S
C284 C285 1.170 . S
C284 C286 1.380 . S
C285 C284 1.170 . S
C286 C284 1.380 . S
C286 C287 1.170 . S
C287 C286 1.170 . S
C288 C289 1.170 . S
C288 C290 1.380 . S
C289 C288 1.170 . S
C290 C288 1.380 . S
C290 C291 1.170 . S
C291 C290 1.170 . S
C292 C293 1.170 . S
C292 C294 1.380 . S
C293 C292 1.170 . S
C294 C292 1.380 . S
C294 C295 1.170 . S
C295 C294 1.170 . S
C296 C297 1.170 . S
C296 C298 1.380 . S
C297 C296 1.170 . S
C298 C296 1.380 . S
C298 C299 1.170 . S
C299 C298 1.170 . S
C300 C301 1.170 . S
C300 C302 1.380 . S
C301 C300 1.170 . S
C302 C300 1.380 . S
C302 C303 1.170 . S
C303 C302 1.170 . S
C304 C305 1.170 . S
C304 C306 1.380 . S
C305 C304 1.170 . S
C306 C304 1.380 . S
C306 C307 1.170 . S
C307 C306 1.170 . S
C308 C309 1.170 . S
C308 C310 1.380 . S
C309 C308 1.170 . S
C310 C308 1.380 . S
C310 C311 1.170 . S
C311 C310 1.170 . S
C241 C209 1.399 . S
C243 C9 1.402 . S
C245 C10 1.916 . S
C247 C50 1.946 . S
C249 C49 1.450 . S
C251 C89 1.447 . S
C253 C90 1.932 . S
C255 C130 1.923 . S
C257 C169 1.450 . S
C259 C129 1.447 . S
C261 C210 1.942 . S
C263 C170 1.928 . S
C265 C15 1.680 . S
C267 C6 1.729 . S
C269 C46 1.699 . S
C271 C55 1.699 1_554 S
C273 C95 1.727 . S
C275 C86 1.702 . S
C277 C126 1.731 . S
C279 C135 1.680 . S
C281 C166 1.732 . S
C283 C175 1.695 1_556 S
C285 C206 1.707 . S
C287 C215 1.723 . S
C289 C18 1.918 . S
C291 C179 1.924 . S
C293 C59 1.925 . S
C295 C218 1.920 . S
C297 C19 1.926 1_556 S
C299 C98 1.924 . S
C301 C58 1.917 . S
C303 C139 1.923 . S
C305 C178 1.922 . S
C307 C99 1.926 . S
C309 C138 1.921 . S
C311 C219 1.924 1_554 S
