# Generated by pormake.
# Topology tzs, (4)-cn, num edge types: 1
# Building blocks:
#     Node 0, Type 0, BuildingBlock: ICAMEG_clean_sbu_1, # of connection points: 4
#     Node 1, Type 0, BuildingBlock: ICAMEG_clean_sbu_1, # of connection points: 4
#     Node 2, Type 0, BuildingBlock: ICAMEG_clean_sbu_1, # of connection points: 4
#     Node 3, Type 0, BuildingBlock: ICAMEG_clean_sbu_1, # of connection points: 4
#     Node 4, Type 0, BuildingBlock: ICAMEG_clean_sbu_1, # of connection points: 4
#     Node 5, Type 0, BuildingBlock: ICAMEG_clean_sbu_1, # of connection points: 4
#     Node 6, Type 0, BuildingBlock: ICAMEG_clean_sbu_1, # of connection points: 4
#     Node 7, Type 0, BuildingBlock: ICAMEG_clean_sbu_1, # of connection points: 4
#     Node 8, Type 0, BuildingBlock: ICAMEG_clean_sbu_1, # of connection points: 4
#     Node 9, Type 0, BuildingBlock: ICAMEG_clean_sbu_1, # of connection points: 4
#     Node 10, Type 0, BuildingBlock: ICAMEG_clean_sbu_1, # of connection points: 4
#     Node 11, Type 0, BuildingBlock: ICAMEG_clean_sbu_1, # of connection points: 4
#     Node 12, Type 0, BuildingBlock: ICAMEG_clean_sbu_1, # of connection points: 4
#     Node 13, Type 0, BuildingBlock: ICAMEG_clean_sbu_1, # of connection points: 4
#     Node 14, Type 0, BuildingBlock: ICAMEG_clean_sbu_1, # of connection points: 4
#     Node 15, Type 0, BuildingBlock: ICAMEG_clean_sbu_1, # of connection points: 4
#     Edge 16, Type (0, 0), None
#     Edge 17, Type (0, 0), None
#     Edge 18, Type (0, 0), None
#     Edge 19, Type (0, 0), None
#     Edge 20, Type (0, 0), None
#     Edge 21, Type (0, 0), None
#     Edge 22, Type (0, 0), None
#     Edge 23, Type (0, 0), None
#     Edge 24, Type (0, 0), None
#     Edge 25, Type (0, 0), None
#     Edge 26, Type (0, 0), None
#     Edge 27, Type (0, 0), None
#     Edge 28, Type (0, 0), None
#     Edge 29, Type (0, 0), None
#     Edge 30, Type (0, 0), None
#     Edge 31, Type (0, 0), None
#     Edge 32, Type (0, 0), None
#     Edge 33, Type (0, 0), None
#     Edge 34, Type (0, 0), None
#     Edge 35, Type (0, 0), None
#     Edge 36, Type (0, 0), None
#     Edge 37, Type (0, 0), None
#     Edge 38, Type (0, 0), None
#     Edge 39, Type (0, 0), None
#     Edge 40, Type (0, 0), None
#     Edge 41, Type (0, 0), None
#     Edge 42, Type (0, 0), None
#     Edge 43, Type (0, 0), None
#     Edge 44, Type (0, 0), None
#     Edge 45, Type (0, 0), None
#     Edge 46, Type (0, 0), None
#     Edge 47, Type (0, 0), None
# Relax obj value: 0.134
# Max RMSD: 0.166
# Mean RMSD: 0.166
data_MOF--net-tzs--node1-ICAMEG_clean_sbu_1--edge1-none
_symmetry_space_group_name_H-M    P1
_symmetry_Int_Tables_number       1
_symmetry_cell_setting            triclinic
loop_
_symmetry_equiv_pos_as_xyz
'x, y, z'
_cell_length_a     23.231937
_cell_length_b     23.231974
_cell_length_c     23.688546
_cell_angle_alpha  89.999994
_cell_angle_beta   89.999994
_cell_angle_gamma 90.001639
loop_
_atom_site_label
_atom_site_type_symbol
_atom_site_fract_x
_atom_site_fract_y
_atom_site_fract_z
_atom_type_partial_charge
Co0 Co 0.13525 0.44604 0.10686 0.0
Co1 Co 0.16023 0.35205 0.21626 0.0
O2 O 0.15714 0.37326 0.13729 0.0
C3 C 0.08429 0.40524 -0.01079 0.0
O4 O 0.04891 0.36621 -0.02863 0.0
C5 C 0.2916 0.33693 0.21793 0.0
O6 O 0.30232 0.39095 0.23035 0.0
O7 O 0.18804 0.43316 0.23995 0.0
O8 O 0.17708 0.4868 0.16232 0.0
H9 H 0.09778 0.22318 0.37402 0.0
H10 H 0.18084 0.35892 0.02663 0.0
O11 O 0.09019 0.40747 0.04356 0.0
H12 H 0.3456 0.48746 0.05753 0.0
H13 H 0.17578 0.63178 0.0017 0.0
H14 H 0.0496 0.53602 0.1337 0.0
H15 H 0.25477 0.50639 0.10476 0.0
H16 H 0.19536 0.53758 0.02983 0.0
O17 O 0.24085 0.32052 0.20472 0.0
H18 H 0.08314 0.28148 0.28827 0.0
H19 H 0.24346 0.36428 0.31383 0.0
H20 H 0.02298 0.63248 0.09854 0.0
H21 H 0.26998 0.34254 -0.02543 0.0
H22 H 0.08326 0.67914 0.02815 0.0
H23 H 0.35376 0.40653 -0.01033 0.0
O24 O 0.06034 0.44372 0.16228 0.0
H25 H 0.16786 0.13767 0.18232 0.0
H26 H 0.06431 0.31748 0.14119 0.0
H27 H 0.03406 0.22788 0.09471 0.0
H28 H 0.08622 0.13686 0.11515 0.0
H29 H 0.19596 0.22921 0.22849 0.0
H30 H 0.26153 0.30479 0.39802 0.0
H31 H 0.18909 0.23258 0.42802 0.0
O32 O 0.07917 0.37944 0.23123 0.0
C33 C 0.19268 0.48122 0.21205 0.0
C34 C 0.13054 0.25332 0.36054 0.0
C35 C 0.2227 0.29877 0.37364 0.0
N36 N 0.16394 0.32385 0.29372 0.0
C37 C 0.12224 0.28676 0.31217 0.0
C38 C 0.21241 0.33208 0.32545 0.0
C39 C 0.1818 0.25848 0.39072 0.0
C40 C 0.21483 0.39021 0.03064 0.0
N41 N 0.20807 0.43823 0.06376 0.0
C42 C 0.26634 0.37921 0.00227 0.0
C43 C 0.31344 0.41488 0.01107 0.0
C44 C 0.30882 0.46021 0.04902 0.0
C45 C 0.2564 0.47026 0.0762 0.0
C46 C 0.1438 0.60937 0.02628 0.0
C47 C 0.07177 0.55279 0.0985 0.0
C48 C 0.15526 0.55388 0.044 0.0
N49 N 0.11734 0.52338 0.07678 0.0
C50 C 0.05803 0.60853 0.08047 0.0
C51 C 0.09309 0.63588 0.04203 0.0
C52 C 0.04492 0.416 0.20898 0.0
C53 C 0.14421 0.17682 0.1741 0.0
C54 C 0.08622 0.27799 0.15175 0.0
C55 C 0.06933 0.22738 0.12458 0.0
C56 C 0.09857 0.17641 0.13602 0.0
N57 N 0.13094 0.27819 0.18939 0.0
C58 C 0.1599 0.22842 0.20032 0.0
Co59 Co 0.57734 0.13525 0.10686 0.0
Co60 Co 0.67132 0.16023 0.21626 0.0
O61 O 0.65011 0.15714 0.13729 0.0
C62 C 0.61814 0.08429 -0.01079 0.0
O63 O 0.65717 0.04891 -0.02863 0.0
C64 C 0.68644 0.2916 0.21793 0.0
O65 O 0.63243 0.30232 0.23035 0.0
O66 O 0.59021 0.18804 0.23995 0.0
O67 O 0.53657 0.17708 0.16232 0.0
H68 H 0.80019 0.09778 0.37402 0.0
H69 H 0.66446 0.18085 0.02663 0.0
O70 O 0.61591 0.09019 0.04356 0.0
H71 H 0.53591 0.34559 0.05753 0.0
H72 H 0.3916 0.17577 0.0017 0.0
H73 H 0.48735 0.0496 0.1337 0.0
H74 H 0.51699 0.25476 0.10476 0.0
H75 H 0.4858 0.19535 0.02983 0.0
O76 O 0.70286 0.24085 0.20472 0.0
H77 H 0.74189 0.08314 0.28827 0.0
H78 H 0.6591 0.24346 0.31383 0.0
H79 H 0.39089 0.02298 0.09854 0.0
H80 H 0.68084 0.26998 -0.02543 0.0
H81 H 0.34423 0.08326 0.02815 0.0
H82 H 0.61684 0.35376 -0.01034 0.0
O83 O 0.57965 0.06034 0.16228 0.0
H84 H 0.8857 0.16787 0.18232 0.0
H85 H 0.70589 0.06431 0.14119 0.0
H86 H 0.79549 0.03406 0.09472 0.0
H87 H 0.88652 0.08622 0.11515 0.0
H88 H 0.79417 0.19597 0.22848 0.0
H89 H 0.71859 0.26153 0.39802 0.0
H90 H 0.7908 0.18909 0.42802 0.0
O91 O 0.64393 0.07917 0.23122 0.0
C92 C 0.54215 0.19268 0.21204 0.0
C93 C 0.77006 0.13054 0.36054 0.0
C94 C 0.72461 0.2227 0.37365 0.0
N95 N 0.69953 0.16394 0.29372 0.0
C96 C 0.73661 0.12225 0.31217 0.0
C97 C 0.69129 0.21242 0.32545 0.0
C98 C 0.76489 0.1818 0.39072 0.0
C99 C 0.63317 0.21483 0.03064 0.0
N100 N 0.58515 0.20807 0.06376 0.0
C101 C 0.64416 0.26635 0.00227 0.0
C102 C 0.6085 0.31344 0.01107 0.0
C103 C 0.56317 0.30881 0.04902 0.0
C104 C 0.55312 0.2564 0.0762 0.0
C105 C 0.41401 0.1438 0.02628 0.0
C106 C 0.47058 0.07176 0.0985 0.0
C107 C 0.46949 0.15525 0.044 0.0
N108 N 0.5 0.11733 0.07677 0.0
C109 C 0.41485 0.05802 0.08047 0.0
C110 C 0.3875 0.09308 0.04203 0.0
C111 C 0.60737 0.04492 0.20898 0.0
C112 C 0.84656 0.14422 0.1741 0.0
C113 C 0.74538 0.08622 0.15175 0.0
C114 C 0.796 0.06933 0.12458 0.0
C115 C 0.84696 0.09858 0.13602 0.0
N116 N 0.74518 0.13095 0.18939 0.0
C117 C 0.79496 0.15991 0.20032 0.0
Co118 Co 0.88813 0.57734 0.10686 0.0
Co119 Co 0.86315 0.67132 0.21626 0.0
O120 O 0.86624 0.65011 0.13729 0.0
C121 C 0.93909 0.61814 -0.01079 0.0
O122 O 0.97447 0.65717 -0.02863 0.0
C123 C 0.73178 0.68645 0.21793 0.0
O124 O 0.72106 0.63243 0.23035 0.0
O125 O 0.83533 0.59021 0.23995 0.0
O126 O 0.84629 0.53657 0.16232 0.0
H127 H 0.9256 0.80019 0.37402 0.0
H128 H 0.84253 0.66446 0.02663 0.0
O129 O 0.93319 0.61591 0.04356 0.0
H130 H 0.67778 0.53591 0.05753 0.0
H131 H 0.8476 0.3916 0.0017 0.0
H132 H 0.97378 0.48736 0.1337 0.0
H133 H 0.76861 0.51699 0.10476 0.0
H134 H 0.82802 0.48579 0.02983 0.0
O135 O 0.78253 0.70285 0.20472 0.0
H136 H 0.94024 0.74189 0.28827 0.0
H137 H 0.77992 0.65909 0.31383 0.0
H138 H 1.00039 0.39089 0.09854 0.0
H139 H 0.7534 0.68084 -0.02543 0.0
H140 H 0.94011 0.34423 0.02815 0.0
H141 H 0.66962 0.61684 -0.01034 0.0
O142 O 0.96304 0.57965 0.16228 0.0
H143 H 0.85552 0.8857 0.18232 0.0
H144 H 0.95907 0.70589 0.14119 0.0
H145 H 0.98932 0.79549 0.09471 0.0
H146 H 0.93716 0.88652 0.11515 0.0
H147 H 0.82741 0.79417 0.22849 0.0
H148 H 0.76185 0.71859 0.39802 0.0
H149 H 0.83429 0.7908 0.42802 0.0
O150 O 0.9442 0.64393 0.23123 0.0
C151 C 0.83069 0.54215 0.21205 0.0
C152 C 0.89284 0.77006 0.36054 0.0
C153 C 0.80068 0.7246 0.37365 0.0
N154 N 0.85944 0.69953 0.29372 0.0
C155 C 0.90113 0.73661 0.31217 0.0
C156 C 0.81096 0.69129 0.32545 0.0
C157 C 0.84158 0.76489 0.39072 0.0
C158 C 0.80855 0.63317 0.03064 0.0
N159 N 0.8153 0.58515 0.06376 0.0
C160 C 0.75703 0.64416 0.00227 0.0
C161 C 0.70993 0.60849 0.01106 0.0
C162 C 0.71456 0.56317 0.04902 0.0
C163 C 0.76697 0.55311 0.0762 0.0
C164 C 0.87957 0.41401 0.02628 0.0
C165 C 0.95161 0.47058 0.0985 0.0
C166 C 0.86812 0.46949 0.044 0.0
N167 N 0.90604 0.5 0.07678 0.0
C168 C 0.96535 0.41485 0.08047 0.0
C169 C 0.93029 0.3875 0.04203 0.0
C170 C 0.97846 0.60737 0.20898 0.0
C171 C 0.87916 0.84656 0.1741 0.0
C172 C 0.93715 0.74538 0.15175 0.0
C173 C 0.95405 0.796 0.12458 0.0
C174 C 0.92481 0.84696 0.13602 0.0
N175 N 0.89243 0.74518 0.18939 0.0
C176 C 0.86347 0.79496 0.20032 0.0
Co177 Co 0.44604 0.88813 0.10686 0.0
Co178 Co 0.35205 0.86314 0.21626 0.0
O179 O 0.37326 0.86623 0.13729 0.0
C180 C 0.40524 0.93909 -0.01079 0.0
O181 O 0.36621 0.97447 -0.02863 0.0
C182 C 0.33693 0.73178 0.21793 0.0
O183 O 0.39095 0.72106 0.23035 0.0
O184 O 0.43317 0.83533 0.23995 0.0
O185 O 0.4868 0.84629 0.16232 0.0
H186 H 0.22318 0.92559 0.37402 0.0
H187 H 0.35892 0.84253 0.02663 0.0
O188 O 0.40747 0.93318 0.04356 0.0
H189 H 0.48746 0.67778 0.05753 0.0
H190 H 0.63178 0.8476 0.0017 0.0
H191 H 0.53602 0.97378 0.13369 0.0
H192 H 0.50638 0.76861 0.10476 0.0
H193 H 0.53758 0.82802 0.02983 0.0
O194 O 0.32052 0.78253 0.20472 0.0
H195 H 0.28149 0.94023 0.28827 0.0
H196 H 0.36428 0.77992 0.31383 0.0
H197 H 0.63248 1.0004 0.09854 0.0
H198 H 0.34254 0.75339 -0.02544 0.0
H199 H 0.67915 0.94012 0.02815 0.0
H200 H 0.40653 0.66962 -0.01034 0.0
O201 O 0.44372 0.96304 0.16228 0.0
H202 H 0.13767 0.85551 0.18232 0.0
H203 H 0.31748 0.95907 0.14119 0.0
H204 H 0.22788 0.98931 0.09471 0.0
H205 H 0.13686 0.93715 0.11515 0.0
H206 H 0.22921 0.8274 0.22848 0.0
H207 H 0.30479 0.76185 0.39802 0.0
H208 H 0.23258 0.83428 0.42802 0.0
O209 O 0.37944 0.9442 0.23122 0.0
C210 C 0.48122 0.83069 0.21204 0.0
C211 C 0.25332 0.89283 0.36054 0.0
C212 C 0.29877 0.80067 0.37364 0.0
N213 N 0.32385 0.85943 0.29372 0.0
C214 C 0.28676 0.90113 0.31217 0.0
C215 C 0.33208 0.81096 0.32545 0.0
C216 C 0.25849 0.84157 0.39072 0.0
C217 C 0.39021 0.80854 0.03064 0.0
N218 N 0.43823 0.8153 0.06376 0.0
C219 C 0.37921 0.75703 0.00226 0.0
C220 C 0.41488 0.70993 0.01106 0.0
C221 C 0.4602 0.71456 0.04902 0.0
C222 C 0.47026 0.76697 0.0762 0.0
C223 C 0.60937 0.87957 0.02628 0.0
C224 C 0.5528 0.95161 0.0985 0.0
C225 C 0.55388 0.86812 0.044 0.0
N226 N 0.52338 0.90604 0.07677 0.0
C227 C 0.60853 0.96535 0.08047 0.0
C228 C 0.63588 0.93029 0.04203 0.0
C229 C 0.416 0.97846 0.20898 0.0
C230 C 0.17682 0.87915 0.1741 0.0
C231 C 0.278 0.93715 0.15175 0.0
C232 C 0.22738 0.95404 0.12458 0.0
C233 C 0.17642 0.9248 0.13602 0.0
N234 N 0.27819 0.89243 0.18939 0.0
C235 C 0.22842 0.86346 0.20032 0.0
Co236 Co 0.12799 0.587 0.33712 0.0
Co237 Co 0.16168 0.66478 0.22134 0.0
O238 O 0.15458 0.65401 0.30082 0.0
C239 C 0.13119 0.66044 0.44301 0.0
O240 O 0.14256 0.7151 0.43438 0.0
C241 C 0.29201 0.68705 0.22577 0.0
O242 O 0.30537 0.63223 0.22324 0.0
O243 O 0.1986 0.58477 0.21199 0.0
O244 O 0.15226 0.53631 0.27816 0.0
H245 H 0.15138 0.79427 0.05118 0.0
H246 H 0.22108 0.67017 0.3769 0.0
O247 O 0.10091 0.63413 0.4053 0.0
H248 H 0.31447 0.48049 0.37939 0.0
H249 H 0.18442 0.43726 0.45624 0.0
H250 H 0.05467 0.49013 0.30491 0.0
H251 H 0.21516 0.48998 0.34761 0.0
H252 H 0.15298 0.53489 0.44739 0.0
O253 O 0.23967 0.70333 0.23209 0.0
H254 H 0.10785 0.74645 0.13083 0.0
H255 H 0.24447 0.62434 0.13417 0.0
H256 H 0.06017 0.38689 0.33347 0.0
H257 H 0.32076 0.66202 0.40858 0.0
H258 H 0.13323 0.36135 0.40342 0.0
H259 H 0.36828 0.56677 0.4114 0.0
O260 O 0.04999 0.59663 0.29059 0.0
H261 H 0.14315 0.84681 0.33388 0.0
H262 H 0.04466 0.72193 0.19733 0.0
H263 H 0.99571 0.80801 0.23405 0.0
H264 H 0.04489 0.87146 0.30176 0.0
H265 H 0.19108 0.76133 0.29717 0.0
H266 H 0.28892 0.67172 0.05385 0.0
H267 H 0.24434 0.75948 0.01378 0.0
O268 O 0.08229 0.6273 0.20548 0.0
C269 C 0.18828 0.53767 0.23939 0.0
C270 C 0.1721 0.75702 0.06967 0.0
C271 C 0.24908 0.68832 0.07104 0.0
N272 N 0.17391 0.6831 0.14126 0.0
C273 C 0.14762 0.72938 0.11615 0.0
C274 C 0.22275 0.6611 0.11679 0.0
C275 C 0.22396 0.73723 0.04817 0.0
C276 C 0.23928 0.62771 0.38048 0.0
N277 N 0.20756 0.57951 0.36786 0.0
C278 C 0.29686 0.62378 0.3973 0.0
C279 C 0.32371 0.57039 0.39859 0.0
C280 C 0.29347 0.52205 0.38107 0.0
C281 C 0.23618 0.52777 0.3642 0.0
C282 C 0.14881 0.44739 0.42874 0.0
C283 C 0.0744 0.47828 0.34417 0.0
C284 C 0.13075 0.50358 0.42288 0.0
N285 N 0.10215 0.51895 0.37518 0.0
C286 C 0.08144 0.42026 0.35702 0.0
C287 C 0.1226 0.40537 0.39648 0.0
C288 C 0.04115 0.60637 0.23611 0.0
C289 C 0.12218 0.82079 0.30216 0.0
C290 C 0.06792 0.74995 0.22531 0.0
C291 C 0.0394 0.79856 0.24625 0.0
C292 C 0.06689 0.83429 0.28463 0.0
N293 N 0.12419 0.7389 0.23905 0.0
C294 C 0.14974 0.77255 0.27964 0.0
Co295 Co 0.43638 0.12798 0.33712 0.0
Co296 Co 0.35859 0.16167 0.22134 0.0
O297 O 0.36936 0.15458 0.30082 0.0
C298 C 0.36293 0.13119 0.44301 0.0
O299 O 0.30827 0.14255 0.43438 0.0
C300 C 0.33632 0.29201 0.22577 0.0
O301 O 0.39114 0.30537 0.22324 0.0
O302 O 0.43861 0.1986 0.21199 0.0
O303 O 0.48706 0.15226 0.27816 0.0
H304 H 0.22911 0.15137 0.05118 0.0
H305 H 0.35321 0.22107 0.3769 0.0
O306 O 0.38924 0.10091 0.4053 0.0
H307 H 0.54289 0.31448 0.37939 0.0
H308 H 0.58611 0.18442 0.45624 0.0
H309 H 0.53324 0.05467 0.30491 0.0
H310 H 0.53339 0.21517 0.34761 0.0
H311 H 0.48849 0.15298 0.44739 0.0
O312 O 0.32004 0.23967 0.23208 0.0
H313 H 0.27692 0.10784 0.13083 0.0
H314 H 0.39904 0.24447 0.13417 0.0
H315 H 0.63648 0.06017 0.33347 0.0
H316 H 0.36136 0.32075 0.40858 0.0
H317 H 0.66203 0.13323 0.40342 0.0
H318 H 0.4566 0.36828 0.4114 0.0
O319 O 0.42675 0.04999 0.29059 0.0
H320 H 0.17656 0.14314 0.33388 0.0
H321 H 0.30144 0.04466 0.19733 0.0
H322 H 0.21536 0.9957 0.23405 0.0
H323 H 0.15191 0.04488 0.30175 0.0
H324 H 0.26204 0.19107 0.29717 0.0
H325 H 0.35166 0.28892 0.05385 0.0
H326 H 0.26389 0.24433 0.01378 0.0
O327 O 0.39608 0.08229 0.20548 0.0
C328 C 0.48571 0.18828 0.23938 0.0
C329 C 0.26635 0.17209 0.06966 0.0
C330 C 0.33505 0.24908 0.07104 0.0
N331 N 0.34028 0.17391 0.14126 0.0
C332 C 0.29399 0.14761 0.11615 0.0
C333 C 0.36227 0.22275 0.11679 0.0
C334 C 0.28615 0.22396 0.04817 0.0
C335 C 0.39566 0.23928 0.38048 0.0
N336 N 0.44386 0.20756 0.36786 0.0
C337 C 0.3996 0.29686 0.3973 0.0
C338 C 0.45299 0.32371 0.39859 0.0
C339 C 0.50133 0.29347 0.38107 0.0
C340 C 0.49561 0.23618 0.3642 0.0
C341 C 0.57599 0.14881 0.42874 0.0
C342 C 0.54509 0.0744 0.34417 0.0
C343 C 0.5198 0.13075 0.42288 0.0
N344 N 0.50443 0.10215 0.37518 0.0
C345 C 0.60311 0.08144 0.35702 0.0
C346 C 0.618 0.12259 0.39648 0.0
C347 C 0.417 0.04115 0.23611 0.0
C348 C 0.20258 0.12218 0.30216 0.0
C349 C 0.27342 0.06792 0.22531 0.0
C350 C 0.22481 0.03939 0.24625 0.0
C351 C 0.18908 0.06689 0.28462 0.0
N352 N 0.28448 0.12419 0.23905 0.0
C353 C 0.25082 0.14974 0.27963 0.0
Co354 Co 0.89539 0.43638 0.33712 0.0
Co355 Co 0.8617 0.35859 0.22134 0.0
O356 O 0.8688 0.36936 0.30082 0.0
C357 C 0.89219 0.36293 0.44301 0.0
O358 O 0.88082 0.30827 0.43438 0.0
C359 C 0.73136 0.33632 0.22577 0.0
O360 O 0.718 0.39114 0.22324 0.0
O361 O 0.82477 0.43861 0.21199 0.0
O362 O 0.87112 0.48706 0.27816 0.0
H363 H 0.872 0.22911 0.05118 0.0
H364 H 0.8023 0.35321 0.3769 0.0
O365 O 0.92246 0.38924 0.4053 0.0
H366 H 0.7089 0.54289 0.37939 0.0
H367 H 0.83895 0.58611 0.45624 0.0
H368 H 0.9687 0.53324 0.30491 0.0
H369 H 0.80821 0.53339 0.34761 0.0
H370 H 0.8704 0.48848 0.44739 0.0
O371 O 0.7837 0.32004 0.23209 0.0
H372 H 0.91553 0.27692 0.13083 0.0
H373 H 0.77891 0.39903 0.13417 0.0
H374 H 0.96321 0.63648 0.33347 0.0
H375 H 0.70262 0.36136 0.40858 0.0
H376 H 0.89015 0.66202 0.40342 0.0
H377 H 0.65509 0.4566 0.4114 0.0
O378 O 0.97338 0.42675 0.29059 0.0
H379 H 0.88023 0.17656 0.33388 0.0
H380 H 0.97871 0.30144 0.19733 0.0
H381 H 0.02766 0.21536 0.23405 0.0
H382 H 0.97848 0.15191 0.30176 0.0
H383 H 0.8323 0.26204 0.29717 0.0
H384 H 0.73445 0.35165 0.05385 0.0
H385 H 0.77904 0.26389 0.01378 0.0
O386 O 0.94109 0.39608 0.20548 0.0
C387 C 0.8351 0.4857 0.23939 0.0
C388 C 0.85128 0.26635 0.06967 0.0
C389 C 0.77429 0.33505 0.07104 0.0
N390 N 0.84946 0.34028 0.14126 0.0
C391 C 0.87576 0.29399 0.11615 0.0
C392 C 0.80063 0.36227 0.11679 0.0
C393 C 0.79941 0.28614 0.04817 0.0
C394 C 0.78409 0.39566 0.38048 0.0
N395 N 0.81581 0.44386 0.36786 0.0
C396 C 0.72651 0.39959 0.39731 0.0
C397 C 0.69967 0.45299 0.39859 0.0
C398 C 0.72991 0.50133 0.38107 0.0
C399 C 0.78719 0.49561 0.3642 0.0
C400 C 0.87456 0.57598 0.42874 0.0
C401 C 0.94897 0.5451 0.34417 0.0
C402 C 0.89262 0.51979 0.42288 0.0
N403 N 0.92123 0.50443 0.37518 0.0
C404 C 0.94194 0.60312 0.35702 0.0
C405 C 0.90078 0.618 0.39648 0.0
C406 C 0.98222 0.417 0.23611 0.0
C407 C 0.90119 0.20259 0.30216 0.0
C408 C 0.95545 0.27342 0.22531 0.0
C409 C 0.98398 0.22482 0.24625 0.0
C410 C 0.95648 0.18908 0.28463 0.0
N411 N 0.89918 0.28448 0.23905 0.0
C412 C 0.87363 0.25082 0.27964 0.0
Co413 Co 0.587 0.89539 0.33712 0.0
Co414 Co 0.66478 0.8617 0.22134 0.0
O415 O 0.65402 0.8688 0.30082 0.0
C416 C 0.66044 0.89219 0.44301 0.0
O417 O 0.7151 0.88083 0.43438 0.0
C418 C 0.68705 0.73136 0.22577 0.0
O419 O 0.63223 0.718 0.22324 0.0
O420 O 0.58477 0.82477 0.21199 0.0
O421 O 0.53632 0.87111 0.27816 0.0
H422 H 0.79427 0.87201 0.05118 0.0
H423 H 0.67017 0.8023 0.3769 0.0
O424 O 0.63413 0.92246 0.4053 0.0
H425 H 0.48049 0.7089 0.37939 0.0
H426 H 0.43726 0.83895 0.45624 0.0
H427 H 0.49013 0.9687 0.30491 0.0
H428 H 0.48998 0.80821 0.34761 0.0
H429 H 0.53489 0.87039 0.44739 0.0
O430 O 0.70334 0.7837 0.23208 0.0
H431 H 0.74645 0.91553 0.13083 0.0
H432 H 0.62434 0.77891 0.13417 0.0
H433 H 0.38689 0.9632 0.33347 0.0
H434 H 0.66201 0.70262 0.40858 0.0
H435 H 0.36135 0.89015 0.40342 0.0
H436 H 0.56677 0.65509 0.41139 0.0
O437 O 0.59663 0.97338 0.29059 0.0
H438 H 0.84682 0.88023 0.33388 0.0
H439 H 0.72193 0.97872 0.19733 0.0
H440 H 0.80801 0.02767 0.23405 0.0
H441 H 0.87147 0.97849 0.30175 0.0
H442 H 0.76134 0.8323 0.29717 0.0
H443 H 0.67172 0.73446 0.05385 0.0
H444 H 0.75949 0.77904 0.01378 0.0
O445 O 0.6273 0.94109 0.20548 0.0
C446 C 0.53767 0.83509 0.23938 0.0
C447 C 0.75703 0.85128 0.06966 0.0
C448 C 0.68832 0.7743 0.07104 0.0
N449 N 0.6831 0.84947 0.14126 0.0
C450 C 0.72938 0.87576 0.11615 0.0
C451 C 0.6611 0.80063 0.11679 0.0
C452 C 0.73723 0.79942 0.04817 0.0
C453 C 0.62771 0.78409 0.38048 0.0
N454 N 0.57951 0.81581 0.36785 0.0
C455 C 0.62378 0.72651 0.3973 0.0
C456 C 0.57039 0.69967 0.39859 0.0
C457 C 0.52205 0.72991 0.38107 0.0
C458 C 0.52777 0.78719 0.3642 0.0
C459 C 0.44739 0.87456 0.42874 0.0
C460 C 0.47828 0.94897 0.34417 0.0
C461 C 0.50358 0.89262 0.42287 0.0
N462 N 0.51895 0.92122 0.37518 0.0
C463 C 0.42026 0.94193 0.35702 0.0
C464 C 0.40537 0.90078 0.39648 0.0
C465 C 0.60637 0.98222 0.23611 0.0
C466 C 0.82079 0.9012 0.30216 0.0
C467 C 0.74996 0.95546 0.22531 0.0
C468 C 0.79856 0.98399 0.24625 0.0
C469 C 0.8343 0.95649 0.28462 0.0
N470 N 0.7389 0.89919 0.23905 0.0
C471 C 0.77256 0.87364 0.27963 0.0
Co472 Co 0.94603 0.63524 0.82841 0.0
Co473 Co 0.85205 0.66022 0.71901 0.0
O474 O 0.87326 0.65714 0.79798 0.0
C475 C 0.90523 0.5843 0.94606 0.0
O476 O 0.86623 0.54888 0.96391 0.0
C477 C 0.83693 0.79159 0.71735 0.0
O478 O 0.89095 0.80231 0.70493 0.0
O479 O 0.93316 0.68804 0.69532 0.0
O480 O 0.9868 0.67707 0.77295 0.0
H481 H 0.72319 0.59775 0.56125 0.0
H482 H 0.85891 0.68085 0.90863 0.0
O483 O 0.90746 0.59019 0.89171 0.0
H484 H 0.98747 0.8456 0.87772 0.0
H485 H 0.13177 0.67577 0.93358 0.0
H486 H 0.03602 0.5496 0.80157 0.0
H487 H 1.0064 0.75476 0.83051 0.0
H488 H 0.03757 0.69535 0.90545 0.0
O489 O 0.82052 0.74084 0.73055 0.0
H490 H 0.7815 0.58312 0.647 0.0
H491 H 0.86426 0.74346 0.62143 0.0
H492 H 0.13248 0.52298 0.83673 0.0
H493 H 0.84253 0.77 0.96068 0.0
H494 H 0.17914 0.58326 0.90713 0.0
H495 H 0.90653 0.85377 0.94558 0.0
O496 O 0.94372 0.56033 0.77299 0.0
H497 H 0.63767 0.66785 0.75294 0.0
H498 H 0.81748 0.5643 0.79408 0.0
H499 H 0.72788 0.53405 0.84056 0.0
H500 H 0.63686 0.58621 0.82011 0.0
H501 H 0.7292 0.69595 0.70678 0.0
H502 H 0.80476 0.76152 0.53725 0.0
H503 H 0.73257 0.68906 0.50724 0.0
O504 O 0.87945 0.57917 0.70404 0.0
C505 C 0.98122 0.69268 0.72322 0.0
C506 C 0.75332 0.63052 0.57472 0.0
C507 C 0.79876 0.72269 0.56162 0.0
N508 N 0.82385 0.66393 0.64154 0.0
C509 C 0.78677 0.62223 0.6231 0.0
C510 C 0.83207 0.71241 0.60981 0.0
C511 C 0.75848 0.68178 0.54454 0.0
C512 C 0.89021 0.71484 0.90462 0.0
N513 N 0.93823 0.70807 0.8715 0.0
C514 C 0.87921 0.76636 0.93298 0.0
C515 C 0.91488 0.81345 0.92418 0.0
C516 C 0.96021 0.80882 0.88623 0.0
C517 C 0.97027 0.7564 0.85906 0.0
C518 C 0.10936 0.6438 0.909 0.0
C519 C 0.05279 0.57177 0.83677 0.0
C520 C 0.05387 0.65525 0.89128 0.0
N521 N 0.02337 0.61733 0.8585 0.0
C522 C 0.10852 0.55802 0.8548 0.0
C523 C 0.13587 0.59308 0.89324 0.0
C524 C 0.916 0.54491 0.72629 0.0
C525 C 0.67682 0.6442 0.76116 0.0
C526 C 0.778 0.58622 0.78351 0.0
C527 C 0.72738 0.56932 0.81069 0.0
C528 C 0.67642 0.59856 0.79924 0.0
N529 N 0.77819 0.63094 0.74588 0.0
C530 C 0.72842 0.65989 0.73494 0.0
Co531 Co 0.38813 0.94603 0.82841 0.0
Co532 Co 0.36315 0.85205 0.71901 0.0
O533 O 0.36624 0.87326 0.79798 0.0
C534 C 0.43908 0.90523 0.94606 0.0
O535 O 0.47449 0.86623 0.9639 0.0
C536 C 0.23178 0.83693 0.71735 0.0
O537 O 0.22106 0.89095 0.70493 0.0
O538 O 0.33533 0.93316 0.69532 0.0
O539 O 0.3463 0.9868 0.77295 0.0
H540 H 0.42562 0.72319 0.56125 0.0
H541 H 0.34252 0.85891 0.90863 0.0
O542 O 0.43318 0.90746 0.89171 0.0
H543 H 0.17778 0.98746 0.87772 0.0
H544 H 0.3476 0.13176 0.93358 0.0
H545 H 0.47378 0.03602 0.80158 0.0
H546 H 0.26862 1.00639 0.8305 0.0
H547 H 0.32802 0.03757 0.90545 0.0
O548 O 0.28253 0.82052 0.73055 0.0
H549 H 0.44025 0.7815 0.647 0.0
H550 H 0.27991 0.86426 0.62143 0.0
H551 H 0.5004 0.13248 0.83673 0.0
H552 H 0.25338 0.84253 0.96068 0.0
H553 H 0.44012 0.17914 0.90713 0.0
H554 H 0.16961 0.90653 0.94558 0.0
O555 O 0.46304 0.94372 0.77299 0.0
H556 H 0.35552 0.63767 0.75295 0.0
H557 H 0.45907 0.81748 0.79408 0.0
H558 H 0.48932 0.72789 0.84055 0.0
H559 H 0.43716 0.63686 0.82011 0.0
H560 H 0.32741 0.7292 0.70678 0.0
H561 H 0.26186 0.80476 0.53725 0.0
H562 H 0.33431 0.73257 0.50724 0.0
O563 O 0.4442 0.87944 0.70404 0.0
C564 C 0.3307 0.98122 0.72322 0.0
C565 C 0.39285 0.75332 0.57472 0.0
C566 C 0.30068 0.79875 0.56162 0.0
N567 N 0.35944 0.82385 0.64154 0.0
C568 C 0.40114 0.78677 0.6231 0.0
C569 C 0.31096 0.83207 0.60981 0.0
C570 C 0.34159 0.75848 0.54454 0.0
C571 C 0.30854 0.8902 0.90462 0.0
N572 N 0.3153 0.93823 0.8715 0.0
C573 C 0.25702 0.87921 0.93298 0.0
C574 C 0.20992 0.91488 0.92418 0.0
C575 C 0.21456 0.96021 0.88623 0.0
C576 C 0.26697 0.97026 0.85906 0.0
C577 C 0.37958 0.10936 0.90899 0.0
C578 C 0.45161 0.05279 0.83677 0.0
C579 C 0.36813 0.05387 0.89128 0.0
N580 N 0.40604 0.02337 0.8585 0.0
C581 C 0.46535 0.10853 0.8548 0.0
C582 C 0.4303 0.13587 0.89324 0.0
C583 C 0.47846 0.916 0.72629 0.0
C584 C 0.37916 0.67682 0.76117 0.0
C585 C 0.43715 0.778 0.78351 0.0
C586 C 0.45405 0.72738 0.81069 0.0
C587 C 0.4248 0.67642 0.79924 0.0
N588 N 0.39243 0.77819 0.74588 0.0
C589 C 0.36347 0.72842 0.73495 0.0
Co590 Co 0.07734 0.38813 0.82841 0.0
Co591 Co 0.17132 0.36315 0.71901 0.0
O592 O 0.15012 0.36624 0.79798 0.0
C593 C 0.11815 0.43908 0.94606 0.0
O594 O 0.15715 0.47449 0.96391 0.0
C595 C 0.18645 0.23178 0.71735 0.0
O596 O 0.13243 0.22106 0.70493 0.0
O597 O 0.09021 0.33533 0.69532 0.0
O598 O 0.03657 0.3463 0.77295 0.0
H599 H 0.30019 0.42562 0.56124 0.0
H600 H 0.16446 0.34252 0.90863 0.0
O601 O 0.11592 0.43318 0.89171 0.0
H602 H 0.0359 0.17778 0.87772 0.0
H603 H 0.89161 0.3476 0.93358 0.0
H604 H 0.98736 0.47377 0.80157 0.0
H605 H 0.01698 0.26862 0.83051 0.0
H606 H 0.9858 0.32802 0.90545 0.0
O607 O 0.20286 0.28253 0.73055 0.0
H608 H 0.24188 0.44025 0.647 0.0
H609 H 0.15911 0.27991 0.62143 0.0
H610 H 0.8909 0.50039 0.83673 0.0
H611 H 0.18084 0.25338 0.96068 0.0
H612 H 0.84424 0.44011 0.90713 0.0
H613 H 0.11684 0.16961 0.94558 0.0
O614 O 0.07966 0.46304 0.77299 0.0
H615 H 0.3857 0.35553 0.75294 0.0
H616 H 0.20589 0.45907 0.79408 0.0
H617 H 0.29549 0.48932 0.84056 0.0
H618 H 0.38652 0.43717 0.82011 0.0
H619 H 0.29417 0.32742 0.70678 0.0
H620 H 0.21861 0.26186 0.53725 0.0
H621 H 0.2908 0.33431 0.50724 0.0
O622 O 0.14393 0.4442 0.70404 0.0
C623 C 0.04216 0.33069 0.72322 0.0
C624 C 0.27005 0.39285 0.57472 0.0
C625 C 0.22462 0.30068 0.56162 0.0
N626 N 0.19953 0.35944 0.64154 0.0
C627 C 0.23661 0.40114 0.6231 0.0
C628 C 0.1913 0.31096 0.60981 0.0
C629 C 0.2649 0.3416 0.54454 0.0
C630 C 0.13317 0.30854 0.90462 0.0
N631 N 0.08515 0.3153 0.8715 0.0
C632 C 0.14416 0.25702 0.93298 0.0
C633 C 0.10849 0.20992 0.92418 0.0
C634 C 0.06317 0.21456 0.88623 0.0
C635 C 0.05311 0.26697 0.85906 0.0
C636 C 0.91402 0.37957 0.909 0.0
C637 C 0.97058 0.45161 0.83677 0.0
C638 C 0.9695 0.36812 0.89128 0.0
N639 N 1.0 0.40604 0.8585 0.0
C640 C 0.91485 0.46535 0.8548 0.0
C641 C 0.8875 0.43029 0.89324 0.0
C642 C 0.10737 0.47846 0.72629 0.0
C643 C 0.34656 0.37917 0.76116 0.0
C644 C 0.24538 0.43716 0.78351 0.0
C645 C 0.296 0.45405 0.81069 0.0
C646 C 0.34696 0.42481 0.79924 0.0
N647 N 0.24518 0.39244 0.74588 0.0
C648 C 0.29496 0.36348 0.73494 0.0
Co649 Co 0.63525 0.07734 0.82841 0.0
Co650 Co 0.66023 0.17132 0.71901 0.0
O651 O 0.65714 0.15011 0.79798 0.0
C652 C 0.5843 0.11815 0.94606 0.0
O653 O 0.54889 0.15715 0.9639 0.0
C654 C 0.7916 0.18644 0.71735 0.0
O655 O 0.80231 0.13243 0.70493 0.0
O656 O 0.68804 0.09021 0.69532 0.0
O657 O 0.67707 0.03657 0.77295 0.0
H658 H 0.59776 0.30018 0.56125 0.0
H659 H 0.68086 0.16446 0.90863 0.0
O660 O 0.5902 0.11591 0.89171 0.0
H661 H 0.8456 0.03591 0.87772 0.0
H662 H 0.67577 0.89161 0.93358 0.0
H663 H 0.5496 0.98735 0.80157 0.0
H664 H 0.75476 0.01698 0.8305 0.0
H665 H 0.69535 0.9858 0.90545 0.0
O666 O 0.74085 0.20286 0.73055 0.0
H667 H 0.58313 0.24188 0.647 0.0
H668 H 0.74346 0.15911 0.62143 0.0
H669 H 0.52298 0.89089 0.83673 0.0
H670 H 0.77 0.18084 0.96068 0.0
H671 H 0.58326 0.84424 0.90713 0.0
H672 H 0.85377 0.11684 0.94558 0.0
O673 O 0.56033 0.07966 0.77299 0.0
H674 H 0.66786 0.3857 0.75295 0.0
H675 H 0.56431 0.20589 0.79408 0.0
H676 H 0.53406 0.29549 0.84055 0.0
H677 H 0.58622 0.38651 0.82011 0.0
H678 H 0.69596 0.29417 0.70678 0.0
H679 H 0.76152 0.21861 0.53725 0.0
H680 H 0.68907 0.2908 0.50724 0.0
O681 O 0.57917 0.14393 0.70404 0.0
C682 C 0.69268 0.04215 0.72322 0.0
C683 C 0.63053 0.27005 0.57472 0.0
C684 C 0.72269 0.22462 0.56162 0.0
N685 N 0.66394 0.19953 0.64154 0.0
C686 C 0.62224 0.23661 0.6231 0.0
C687 C 0.71241 0.1913 0.60981 0.0
C688 C 0.68178 0.2649 0.54454 0.0
C689 C 0.71484 0.13317 0.90462 0.0
N690 N 0.70808 0.08515 0.8715 0.0
C691 C 0.76636 0.14416 0.93298 0.0
C692 C 0.81346 0.10849 0.92418 0.0
C693 C 0.80882 0.06317 0.88623 0.0
C694 C 0.7564 0.05311 0.85905 0.0
C695 C 0.6438 0.91402 0.909 0.0
C696 C 0.57177 0.97058 0.83677 0.0
C697 C 0.65525 0.9695 0.89128 0.0
N698 N 0.61733 1.0 0.8585 0.0
C699 C 0.55802 0.91485 0.8548 0.0
C700 C 0.59308 0.8875 0.89324 0.0
C701 C 0.54491 0.10737 0.72629 0.0
C702 C 0.64421 0.34655 0.76116 0.0
C703 C 0.58622 0.24538 0.78351 0.0
C704 C 0.56933 0.29599 0.81069 0.0
C705 C 0.59857 0.34696 0.79924 0.0
N706 N 0.63094 0.24518 0.74588 0.0
C707 C 0.6599 0.29496 0.73495 0.0
Co708 Co 0.93637 0.39539 0.59814 0.0
Co709 Co 0.85859 0.3617 0.71393 0.0
O710 O 0.86936 0.36879 0.63445 0.0
C711 C 0.86292 0.39219 0.49227 0.0
O712 O 0.80823 0.38092 0.50082 0.0
C713 C 0.83632 0.23136 0.70951 0.0
O714 O 0.89114 0.218 0.71203 0.0
O715 O 0.93861 0.32478 0.72328 0.0
O716 O 0.98706 0.3711 0.65709 0.0
H717 H 0.72912 0.37201 0.88411 0.0
H718 H 0.85319 0.30232 0.55833 0.0
O719 O 0.88922 0.42247 0.52998 0.0
H720 H 0.04285 0.20889 0.55584 0.0
H721 H 0.0861 0.33894 0.47903 0.0
H722 H 0.03323 0.4687 0.63035 0.0
H723 H 0.03337 0.30819 0.58765 0.0
H724 H 0.98848 0.37039 0.48787 0.0
O725 O 0.82004 0.2837 0.70319 0.0
H726 H 0.77693 0.41553 0.80444 0.0
H727 H 0.89904 0.27891 0.8011 0.0
H728 H 0.13647 0.4632 0.6018 0.0
H729 H 0.86133 0.20265 0.52662 0.0
H730 H 0.16201 0.39014 0.53186 0.0
H731 H 0.95656 0.15511 0.52381 0.0
O732 O 0.92675 0.47338 0.64468 0.0
H733 H 0.67657 0.38022 0.60139 0.0
H734 H 0.80144 0.47871 0.73794 0.0
H735 H 0.71536 0.52766 0.70122 0.0
H736 H 0.65192 0.47848 0.63351 0.0
H737 H 0.76204 0.33229 0.6381 0.0
H738 H 0.85167 0.23447 0.88144 0.0
H739 H 0.76391 0.27906 0.92151 0.0
O740 O 0.89608 0.44109 0.72979 0.0
C741 C 0.98571 0.33509 0.69588 0.0
C742 C 0.76636 0.35129 0.86562 0.0
C743 C 0.83506 0.2743 0.86424 0.0
N744 N 0.84028 0.34947 0.79402 0.0
C745 C 0.794 0.37576 0.81912 0.0
C746 C 0.86228 0.30063 0.81848 0.0
C747 C 0.78616 0.29943 0.88711 0.0
C748 C 0.89564 0.28411 0.55476 0.0
N749 N 0.94384 0.31582 0.5674 0.0
C750 C 0.89956 0.22653 0.53791 0.0
C751 C 0.95295 0.19968 0.53663 0.0
C752 C 1.00129 0.22991 0.55416 0.0
C753 C 0.99558 0.28718 0.57105 0.0
C754 C 0.07598 0.37455 0.50653 0.0
C755 C 0.04509 0.44897 0.59109 0.0
C756 C 0.01979 0.39262 0.51239 0.0
N757 N 1.00442 0.42123 0.56008 0.0
C758 C 0.10311 0.44193 0.57825 0.0
C759 C 0.11799 0.40077 0.53879 0.0
C760 C 0.917 0.48222 0.69916 0.0
C761 C 0.70259 0.40119 0.63311 0.0
C762 C 0.77342 0.45545 0.70996 0.0
C763 C 0.72482 0.48398 0.68902 0.0
C764 C 0.68908 0.45648 0.65064 0.0
N765 N 0.78448 0.39918 0.69622 0.0
C766 C 0.75082 0.37363 0.65563 0.0
Co767 Co 0.62799 0.93637 0.59814 0.0
Co768 Co 0.66167 0.85859 0.71393 0.0
O769 O 0.65458 0.86936 0.63445 0.0
C770 C 0.63118 0.86292 0.49227 0.0
O771 O 0.64245 0.80823 0.50082 0.0
C772 C 0.79201 0.83632 0.70951 0.0
O773 O 0.80538 0.89114 0.71204 0.0
O774 O 0.6986 0.93861 0.72328 0.0
O775 O 0.65228 0.98706 0.65709 0.0
H776 H 0.65135 0.72912 0.88411 0.0
H777 H 0.72105 0.85319 0.55833 0.0
O778 O 0.6009 0.88921 0.52999 0.0
H779 H 0.81449 0.04285 0.55584 0.0
H780 H 0.68444 0.08611 0.47903 0.0
H781 H 0.55467 0.03323 0.63035 0.0
H782 H 0.71519 0.03337 0.58765 0.0
H783 H 0.65299 0.98848 0.48787 0.0
O784 O 0.73967 0.82004 0.70319 0.0
H785 H 0.60784 0.77692 0.80444 0.0
H786 H 0.74447 0.89904 0.80111 0.0
H787 H 0.56017 0.13647 0.6018 0.0
H788 H 0.82072 0.86132 0.52662 0.0
H789 H 0.63324 0.16201 0.53185 0.0
H790 H 0.86827 0.95656 0.52381 0.0
O791 O 0.55 0.92675 0.64468 0.0
H792 H 0.64315 0.67656 0.60139 0.0
H793 H 0.54466 0.80144 0.73793 0.0
H794 H 0.49571 0.71536 0.70121 0.0
H795 H 0.54489 0.65191 0.63351 0.0
H796 H 0.69108 0.76204 0.6381 0.0
H797 H 0.7889 0.85167 0.88144 0.0
H798 H 0.74431 0.76391 0.92152 0.0
O799 O 0.58229 0.89608 0.72979 0.0
C800 C 0.68828 0.98571 0.69588 0.0
C801 C 0.67208 0.76636 0.86562 0.0
C802 C 0.74907 0.83506 0.86424 0.0
N803 N 0.67391 0.84028 0.79402 0.0
C804 C 0.64761 0.794 0.81912 0.0
C805 C 0.72274 0.86228 0.81849 0.0
C806 C 0.72394 0.78616 0.88711 0.0
C807 C 0.73926 0.89564 0.55476 0.0
N808 N 0.70756 0.94384 0.5674 0.0
C809 C 0.79684 0.89956 0.53791 0.0
C810 C 0.8237 0.95295 0.53663 0.0
C811 C 0.79347 1.00129 0.55416 0.0
C812 C 0.73619 0.99558 0.57105 0.0
C813 C 0.64883 0.07598 0.50653 0.0
C814 C 0.5744 0.04508 0.59109 0.0
C815 C 0.63076 0.01979 0.51239 0.0
N816 N 0.60215 1.00442 0.56008 0.0
C817 C 0.58144 0.1031 0.57825 0.0
C818 C 0.6226 0.11799 0.53879 0.0
C819 C 0.54116 0.917 0.69916 0.0
C820 C 0.62218 0.70258 0.63311 0.0
C821 C 0.56792 0.77342 0.70996 0.0
C822 C 0.53939 0.72481 0.68902 0.0
C823 C 0.56689 0.68908 0.65065 0.0
N824 N 0.62419 0.78448 0.69622 0.0
C825 C 0.64974 0.75082 0.65564 0.0
Co826 Co 0.087 0.62799 0.59814 0.0
Co827 Co 0.16478 0.66167 0.71393 0.0
O828 O 0.15402 0.65458 0.63445 0.0
C829 C 0.16046 0.63118 0.49227 0.0
O830 O 0.21515 0.64245 0.50082 0.0
C831 C 0.18705 0.79201 0.70951 0.0
O832 O 0.13223 0.80537 0.71203 0.0
O833 O 0.08477 0.6986 0.72328 0.0
O834 O 0.03631 0.65227 0.65709 0.0
H835 H 0.29425 0.65136 0.88411 0.0
H836 H 0.17019 0.72105 0.55833 0.0
O837 O 0.13416 0.6009 0.52998 0.0
H838 H 0.98053 0.81449 0.55584 0.0
H839 H 0.93727 0.68443 0.47903 0.0
H840 H 0.99014 0.55467 0.63035 0.0
H841 H 0.99001 0.71518 0.58765 0.0
H842 H 0.0349 0.65298 0.48787 0.0
O843 O 0.20333 0.73967 0.70319 0.0
H844 H 0.24645 0.60785 0.80444 0.0
H845 H 0.12434 0.74446 0.8011 0.0
H846 H 0.8869 0.56017 0.6018 0.0
H847 H 0.16205 0.82072 0.52662 0.0
H848 H 0.86136 0.63323 0.53186 0.0
H849 H 0.06682 0.86827 0.52381 0.0
O850 O 0.09663 0.55 0.64468 0.0
H851 H 0.34681 0.64315 0.60139 0.0
H852 H 0.22193 0.54466 0.73794 0.0
H853 H 0.30801 0.49571 0.70122 0.0
H854 H 0.37146 0.5449 0.63351 0.0
H855 H 0.26133 0.69108 0.6381 0.0
H856 H 0.17171 0.78891 0.88144 0.0
H857 H 0.25946 0.74432 0.92151 0.0
O858 O 0.1273 0.58229 0.72979 0.0
C859 C 0.03767 0.68828 0.69588 0.0
C860 C 0.25701 0.67209 0.86562 0.0
C861 C 0.18831 0.74907 0.86424 0.0
N862 N 0.1831 0.67391 0.79402 0.0
C863 C 0.22938 0.64762 0.81912 0.0
C864 C 0.1611 0.72274 0.81848 0.0
C865 C 0.23722 0.72395 0.88711 0.0
C866 C 0.12774 0.73927 0.55476 0.0
N867 N 0.07953 0.70756 0.5674 0.0
C868 C 0.12381 0.79684 0.53791 0.0
C869 C 0.07043 0.82369 0.53663 0.0
C870 C 0.02208 0.79347 0.55416 0.0
C871 C 0.02779 0.73619 0.57105 0.0
C872 C 0.9474 0.64882 0.50653 0.0
C873 C 0.97829 0.5744 0.59109 0.0
C874 C 1.00359 0.63076 0.51239 0.0
N875 N 0.01896 0.60215 0.56008 0.0
C876 C 0.92027 0.58144 0.57825 0.0
C877 C 0.90538 0.6226 0.53879 0.0
C878 C 0.10637 0.54115 0.69916 0.0
C879 C 0.32079 0.62219 0.63311 0.0
C880 C 0.24996 0.56792 0.70996 0.0
C881 C 0.29856 0.5394 0.68902 0.0
C882 C 0.33429 0.5669 0.65064 0.0
N883 N 0.2389 0.6242 0.69622 0.0
C884 C 0.27255 0.64975 0.65563 0.0
Co885 Co 0.39539 0.087 0.59814 0.0
Co886 Co 0.3617 0.16478 0.71393 0.0
O887 O 0.36879 0.15402 0.63445 0.0
C888 C 0.3922 0.16046 0.49227 0.0
O889 O 0.38093 0.21515 0.50082 0.0
C890 C 0.23136 0.18705 0.70951 0.0
O891 O 0.218 0.13223 0.71204 0.0
O892 O 0.32478 0.08476 0.72328 0.0
O893 O 0.3711 0.03631 0.65709 0.0
H894 H 0.37202 0.29425 0.8841 0.0
H895 H 0.30233 0.17019 0.55833 0.0
O896 O 0.42247 0.13416 0.52999 0.0
H897 H 0.20888 0.98052 0.55585 0.0
H898 H 0.33894 0.93727 0.47903 0.0
H899 H 0.4687 0.99014 0.63035 0.0
H900 H 0.30819 0.99 0.58765 0.0
H901 H 0.37039 0.03489 0.48788 0.0
O902 O 0.2837 0.20333 0.70319 0.0
H903 H 0.41554 0.24645 0.80444 0.0
H904 H 0.27891 0.12434 0.8011 0.0
H905 H 0.4632 0.8869 0.6018 0.0
H906 H 0.20266 0.16205 0.52662 0.0
H907 H 0.39014 0.86136 0.53185 0.0
H908 H 0.15511 0.06682 0.52381 0.0
O909 O 0.47338 0.09663 0.64468 0.0
H910 H 0.38023 0.34681 0.60139 0.0
H911 H 0.47872 0.22193 0.73793 0.0
H912 H 0.52767 0.30801 0.70121 0.0
H913 H 0.47849 0.37146 0.63351 0.0
H914 H 0.3323 0.26134 0.6381 0.0
H915 H 0.23447 0.17171 0.88144 0.0
H916 H 0.27907 0.25946 0.92151 0.0
O917 O 0.44109 0.1273 0.72979 0.0
C918 C 0.33509 0.03767 0.69588 0.0
C919 C 0.3513 0.25701 0.86562 0.0
C920 C 0.27431 0.18831 0.86424 0.0
N921 N 0.34947 0.18309 0.79402 0.0
C922 C 0.37577 0.22938 0.81912 0.0
C923 C 0.30063 0.1611 0.81849 0.0
C924 C 0.29943 0.23722 0.88711 0.0
C925 C 0.28411 0.12774 0.55476 0.0
N926 N 0.31582 0.07953 0.5674 0.0
C927 C 0.22654 0.12381 0.53791 0.0
C928 C 0.19968 0.07042 0.53663 0.0
C929 C 0.2299 0.02208 0.55416 0.0
C930 C 0.28718 0.02779 0.57105 0.0
C931 C 0.37455 0.9474 0.50653 0.0
C932 C 0.44897 0.97829 0.59109 0.0
C933 C 0.39262 1.00359 0.51239 0.0
N934 N 0.42123 0.01896 0.56008 0.0
C935 C 0.44193 0.92027 0.57825 0.0
C936 C 0.40077 0.90538 0.53879 0.0
C937 C 0.48222 0.10637 0.69916 0.0
C938 C 0.40119 0.32079 0.63311 0.0
C939 C 0.45546 0.24996 0.70996 0.0
C940 C 0.48398 0.29856 0.68902 0.0
C941 C 0.45648 0.3343 0.65064 0.0
N942 N 0.39918 0.2389 0.69622 0.0
C943 C 0.37363 0.27255 0.65564 0.0
loop_
_geom_bond_atom_site_label_1
_geom_bond_atom_site_label_2
_geom_bond_distance
_geom_bond_site_symmetry_2
_ccdc_geom_bond_type
Co0 O2 2.143 . S
Co0 O8 2.074 . S
Co0 O11 2.093 . S
Co0 O24 2.097 . S
Co0 N41 2.151 . S
Co0 N49 2.214 . S
Co1 O2 2.160 . S
Co1 O7 2.058 . S
Co1 O17 2.057 . S
Co1 O32 2.037 . S
Co1 N36 2.145 . S
Co1 N57 2.257 . S
O2 Co0 2.143 . S
O2 Co1 2.160 . S
C3 O4 1.278 . S
C3 O11 1.224 . S
O4 C3 1.278 . S
C5 O6 1.245 . S
C5 O17 1.232 . S
O6 C5 1.245 . S
O7 Co1 2.058 . S
O7 C33 1.269 . S
O8 Co0 2.074 . S
O8 C33 1.257 . S
H9 C34 0.930 . S
H10 C40 0.930 . S
O11 Co0 2.093 . S
O11 C3 1.224 . S
H12 C44 0.929 . S
H13 C46 0.930 1_556 S
H14 C47 0.930 . S
H15 C45 0.929 . S
H16 C48 0.928 . S
O17 Co1 2.057 . S
O17 C5 1.232 . S
H18 C37 0.929 . S
H19 C38 0.929 . S
H20 C50 0.931 1_655 S
H21 C42 0.929 . S
H22 C51 0.930 . S
H23 C43 0.931 . S
O24 Co0 2.097 . S
O24 C52 1.214 . S
H25 C53 0.929 . S
H26 C54 0.929 . S
H27 C55 0.930 . S
H28 C56 0.929 . S
H29 C58 0.930 . S
H30 C35 0.930 . S
H31 C39 0.930 . S
O32 Co1 2.037 . S
O32 C52 1.234 . S
C33 O7 1.269 . S
C33 O8 1.257 . S
C34 H9 0.930 . S
C34 C37 1.388 . S
C34 C39 1.418 . S
C35 H30 0.930 . S
C35 C38 1.404 . S
C35 C39 1.353 . S
N36 Co1 2.145 . S
N36 C37 1.397 . S
N36 C38 1.334 . S
C37 H18 0.929 . S
C37 C34 1.388 . S
C37 N36 1.397 . S
C38 H19 0.929 . S
C38 C35 1.404 . S
C38 N36 1.334 . S
C39 H31 0.930 . S
C39 C34 1.418 . S
C39 C35 1.353 . S
C40 H10 0.930 . S
C40 N41 1.330 . S
C40 C42 1.446 . S
N41 Co0 2.151 . S
N41 C40 1.330 . S
N41 C45 1.418 . S
C42 H21 0.929 . S
C42 C40 1.446 . S
C42 C43 1.332 . S
C43 H23 0.931 . S
C43 C42 1.332 . S
C43 C44 1.267 . S
C44 H12 0.929 . S
C44 C43 1.267 . S
C44 C45 1.251 . S
C45 H15 0.929 . S
C45 N41 1.418 . S
C45 C44 1.251 . S
C46 H13 0.930 1_554 S
C46 C48 1.406 . S
C46 C51 1.261 . S
C47 H14 0.930 . S
C47 N49 1.325 . S
C47 C50 1.357 . S
C48 H16 0.928 . S
C48 C46 1.406 . S
C48 N49 1.261 . S
N49 Co0 2.214 . S
N49 C47 1.325 . S
N49 C48 1.261 . S
C50 H20 0.931 1_455 S
C50 C47 1.357 . S
C50 C51 1.312 . S
C51 H22 0.930 . S
C51 C46 1.261 . S
C51 C50 1.312 . S
C52 O24 1.214 . S
C52 O32 1.234 . S
C53 H25 0.929 . S
C53 C56 1.391 . S
C53 C58 1.391 . S
C54 H26 0.929 . S
C54 C55 1.390 . S
C54 N57 1.391 . S
C55 H27 0.930 . S
C55 C54 1.390 . S
C55 C56 1.392 . S
C56 H28 0.929 . S
C56 C53 1.391 . S
C56 C55 1.392 . S
N57 Co1 2.257 . S
N57 C54 1.391 . S
N57 C58 1.388 . S
C58 H29 0.930 . S
C58 C53 1.391 . S
C58 N57 1.388 . S
Co59 O61 2.143 . S
Co59 O67 2.074 . S
Co59 O70 2.093 . S
Co59 O83 2.097 . S
Co59 N100 2.151 . S
Co59 N108 2.214 . S
Co60 O61 2.160 . S
Co60 O66 2.058 . S
Co60 O76 2.057 . S
Co60 O91 2.037 . S
Co60 N95 2.145 . S
Co60 N116 2.257 . S
O61 Co59 2.143 . S
O61 Co60 2.160 . S
C62 O63 1.278 . S
C62 O70 1.224 . S
O63 C62 1.278 . S
C64 O65 1.245 . S
C64 O76 1.232 . S
O65 C64 1.245 . S
O66 Co60 2.058 . S
O66 C92 1.269 . S
O67 Co59 2.074 . S
O67 C92 1.257 . S
H68 C93 0.930 . S
H69 C99 0.930 . S
O70 Co59 2.093 . S
O70 C62 1.224 . S
H71 C103 0.929 . S
H72 C105 0.930 1_556 S
H73 C106 0.930 . S
H74 C104 0.929 . S
H75 C107 0.928 . S
O76 Co60 2.057 . S
O76 C64 1.232 . S
H77 C96 0.929 . S
H78 C97 0.929 . S
H79 C109 0.931 1_565 S
H80 C101 0.929 . S
H81 C110 0.930 . S
H82 C102 0.931 . S
O83 Co59 2.097 . S
O83 C111 1.214 . S
H84 C112 0.929 . S
H85 C113 0.929 . S
H86 C114 0.930 . S
H87 C115 0.929 . S
H88 C117 0.930 . S
H89 C94 0.930 . S
H90 C98 0.930 . S
O91 Co60 2.037 . S
O91 C111 1.234 . S
C92 O66 1.269 . S
C92 O67 1.257 . S
C93 H68 0.930 . S
C93 C96 1.388 . S
C93 C98 1.418 . S
C94 H89 0.930 . S
C94 C97 1.404 . S
C94 C98 1.353 . S
N95 Co60 2.145 . S
N95 C96 1.397 . S
N95 C97 1.334 . S
C96 H77 0.929 . S
C96 C93 1.388 . S
C96 N95 1.397 . S
C97 H78 0.929 . S
C97 C94 1.404 . S
C97 N95 1.334 . S
C98 H90 0.930 . S
C98 C93 1.418 . S
C98 C94 1.353 . S
C99 H69 0.930 . S
C99 N100 1.330 . S
C99 C101 1.446 . S
N100 Co59 2.151 . S
N100 C99 1.330 . S
N100 C104 1.418 . S
C101 H80 0.929 . S
C101 C99 1.446 . S
C101 C102 1.332 . S
C102 H82 0.931 . S
C102 C101 1.332 . S
C102 C103 1.267 . S
C103 H71 0.929 . S
C103 C102 1.267 . S
C103 C104 1.251 . S
C104 H74 0.929 . S
C104 N100 1.418 . S
C104 C103 1.251 . S
C105 H72 0.930 1_554 S
C105 C107 1.406 . S
C105 C110 1.261 . S
C106 H73 0.930 . S
C106 N108 1.325 . S
C106 C109 1.357 . S
C107 H75 0.928 . S
C107 C105 1.406 . S
C107 N108 1.261 . S
N108 Co59 2.214 . S
N108 C106 1.325 . S
N108 C107 1.261 . S
C109 H79 0.931 1_545 S
C109 C106 1.357 . S
C109 C110 1.312 . S
C110 H81 0.930 . S
C110 C105 1.261 . S
C110 C109 1.312 . S
C111 O83 1.214 . S
C111 O91 1.234 . S
C112 H84 0.929 . S
C112 C115 1.391 . S
C112 C117 1.391 . S
C113 H85 0.929 . S
C113 C114 1.390 . S
C113 N116 1.391 . S
C114 H86 0.930 . S
C114 C113 1.390 . S
C114 C115 1.392 . S
C115 H87 0.929 . S
C115 C112 1.391 . S
C115 C114 1.392 . S
N116 Co60 2.257 . S
N116 C113 1.391 . S
N116 C117 1.388 . S
C117 H88 0.930 . S
C117 C112 1.391 . S
C117 N116 1.388 . S
Co118 O120 2.143 . S
Co118 O126 2.074 . S
Co118 O129 2.093 . S
Co118 O142 2.097 . S
Co118 N159 2.151 . S
Co118 N167 2.214 . S
Co119 O120 2.160 . S
Co119 O125 2.058 . S
Co119 O135 2.057 . S
Co119 O150 2.037 . S
Co119 N154 2.145 . S
Co119 N175 2.257 . S
O120 Co118 2.143 . S
O120 Co119 2.160 . S
C121 O122 1.278 . S
C121 O129 1.224 . S
O122 C121 1.278 . S
C123 O124 1.245 . S
C123 O135 1.232 . S
O124 C123 1.245 . S
O125 Co119 2.058 . S
O125 C151 1.269 . S
O126 Co118 2.074 . S
O126 C151 1.257 . S
H127 C152 0.930 . S
H128 C158 0.930 . S
O129 Co118 2.093 . S
O129 C121 1.224 . S
H130 C162 0.929 . S
H131 C164 0.930 1_556 S
H132 C165 0.930 . S
H133 C163 0.929 . S
H134 C166 0.928 . S
O135 Co119 2.057 . S
O135 C123 1.232 . S
H136 C155 0.929 . S
H137 C156 0.929 . S
H138 C168 0.931 1_455 S
H139 C160 0.929 . S
H140 C169 0.930 . S
H141 C161 0.931 . S
O142 Co118 2.097 . S
O142 C170 1.214 . S
H143 C171 0.929 . S
H144 C172 0.929 . S
H145 C173 0.930 . S
H146 C174 0.929 . S
H147 C176 0.930 . S
H148 C153 0.930 . S
H149 C157 0.930 . S
O150 Co119 2.037 . S
O150 C170 1.234 . S
C151 O125 1.269 . S
C151 O126 1.257 . S
C152 H127 0.930 . S
C152 C155 1.388 . S
C152 C157 1.418 . S
C153 H148 0.930 . S
C153 C156 1.404 . S
C153 C157 1.353 . S
N154 Co119 2.145 . S
N154 C155 1.397 . S
N154 C156 1.334 . S
C155 H136 0.929 . S
C155 C152 1.388 . S
C155 N154 1.397 . S
C156 H137 0.929 . S
C156 C153 1.404 . S
C156 N154 1.334 . S
C157 H149 0.930 . S
C157 C152 1.418 . S
C157 C153 1.353 . S
C158 H128 0.930 . S
C158 N159 1.330 . S
C158 C160 1.446 . S
N159 Co118 2.151 . S
N159 C158 1.330 . S
N159 C163 1.418 . S
C160 H139 0.929 . S
C160 C158 1.446 . S
C160 C161 1.332 . S
C161 H141 0.931 . S
C161 C160 1.332 . S
C161 C162 1.267 . S
C162 H130 0.929 . S
C162 C161 1.267 . S
C162 C163 1.251 . S
C163 H133 0.929 . S
C163 N159 1.418 . S
C163 C162 1.251 . S
C164 H131 0.930 1_554 S
C164 C166 1.406 . S
C164 C169 1.261 . S
C165 H132 0.930 . S
C165 N167 1.325 . S
C165 C168 1.357 . S
C166 H134 0.928 . S
C166 C164 1.406 . S
C166 N167 1.261 . S
N167 Co118 2.214 . S
N167 C165 1.325 . S
N167 C166 1.261 . S
C168 H138 0.931 1_655 S
C168 C165 1.357 . S
C168 C169 1.312 . S
C169 H140 0.930 . S
C169 C164 1.261 . S
C169 C168 1.312 . S
C170 O142 1.214 . S
C170 O150 1.234 . S
C171 H143 0.929 . S
C171 C174 1.391 . S
C171 C176 1.391 . S
C172 H144 0.929 . S
C172 C173 1.390 . S
C172 N175 1.391 . S
C173 H145 0.930 . S
C173 C172 1.390 . S
C173 C174 1.392 . S
C174 H146 0.929 . S
C174 C171 1.391 . S
C174 C173 1.392 . S
N175 Co119 2.257 . S
N175 C172 1.391 . S
N175 C176 1.388 . S
C176 H147 0.930 . S
C176 C171 1.391 . S
C176 N175 1.388 . S
Co177 O179 2.143 . S
Co177 O185 2.074 . S
Co177 O188 2.093 . S
Co177 O201 2.097 . S
Co177 N218 2.151 . S
Co177 N226 2.214 . S
Co178 O179 2.160 . S
Co178 O184 2.058 . S
Co178 O194 2.057 . S
Co178 O209 2.037 . S
Co178 N213 2.145 . S
Co178 N234 2.257 . S
O179 Co177 2.143 . S
O179 Co178 2.160 . S
C180 O181 1.278 . S
C180 O188 1.224 . S
O181 C180 1.278 . S
C182 O183 1.245 . S
C182 O194 1.232 . S
O183 C182 1.245 . S
O184 Co178 2.058 . S
O184 C210 1.269 . S
O185 Co177 2.074 . S
O185 C210 1.257 . S
H186 C211 0.930 . S
H187 C217 0.930 . S
O188 Co177 2.093 . S
O188 C180 1.224 . S
H189 C221 0.929 . S
H190 C223 0.930 1_556 S
H191 C224 0.930 . S
H192 C222 0.929 . S
H193 C225 0.928 . S
O194 Co178 2.057 . S
O194 C182 1.232 . S
H195 C214 0.929 . S
H196 C215 0.929 . S
H197 C227 0.931 1_545 S
H198 C219 0.929 . S
H199 C228 0.930 . S
H200 C220 0.931 . S
O201 Co177 2.097 . S
O201 C229 1.214 . S
H202 C230 0.929 . S
H203 C231 0.929 . S
H204 C232 0.930 . S
H205 C233 0.929 . S
H206 C235 0.930 . S
H207 C212 0.930 . S
H208 C216 0.930 . S
O209 Co178 2.037 . S
O209 C229 1.234 . S
C210 O184 1.269 . S
C210 O185 1.257 . S
C211 H186 0.930 . S
C211 C214 1.388 . S
C211 C216 1.418 . S
C212 H207 0.930 . S
C212 C215 1.404 . S
C212 C216 1.353 . S
N213 Co178 2.145 . S
N213 C214 1.397 . S
N213 C215 1.334 . S
C214 H195 0.929 . S
C214 C211 1.388 . S
C214 N213 1.397 . S
C215 H196 0.929 . S
C215 C212 1.404 . S
C215 N213 1.334 . S
C216 H208 0.930 . S
C216 C211 1.418 . S
C216 C212 1.353 . S
C217 H187 0.930 . S
C217 N218 1.330 . S
C217 C219 1.446 . S
N218 Co177 2.151 . S
N218 C217 1.330 . S
N218 C222 1.418 . S
C219 H198 0.929 . S
C219 C217 1.446 . S
C219 C220 1.332 . S
C220 H200 0.931 . S
C220 C219 1.332 . S
C220 C221 1.267 . S
C221 H189 0.929 . S
C221 C220 1.267 . S
C221 C222 1.251 . S
C222 H192 0.929 . S
C222 N218 1.418 . S
C222 C221 1.251 . S
C223 H190 0.930 1_554 S
C223 C225 1.406 . S
C223 C228 1.261 . S
C224 H191 0.930 . S
C224 N226 1.325 . S
C224 C227 1.357 . S
C225 H193 0.928 . S
C225 C223 1.406 . S
C225 N226 1.261 . S
N226 Co177 2.214 . S
N226 C224 1.325 . S
N226 C225 1.261 . S
C227 H197 0.931 1_565 S
C227 C224 1.357 . S
C227 C228 1.312 . S
C228 H199 0.930 . S
C228 C223 1.261 . S
C228 C227 1.312 . S
C229 O201 1.214 . S
C229 O209 1.234 . S
C230 H202 0.929 . S
C230 C233 1.391 . S
C230 C235 1.391 . S
C231 H203 0.929 . S
C231 C232 1.390 . S
C231 N234 1.391 . S
C232 H204 0.930 . S
C232 C231 1.390 . S
C232 C233 1.392 . S
C233 H205 0.929 . S
C233 C230 1.391 . S
C233 C232 1.392 . S
N234 Co178 2.257 . S
N234 C231 1.391 . S
N234 C235 1.388 . S
C235 H206 0.930 . S
C235 C230 1.391 . S
C235 N234 1.388 . S
Co236 O238 2.143 . S
Co236 O244 2.074 . S
Co236 O247 2.093 . S
Co236 O260 2.097 . S
Co236 N277 2.151 . S
Co236 N285 2.214 . S
Co237 O238 2.160 . S
Co237 O243 2.058 . S
Co237 O253 2.057 . S
Co237 O268 2.037 . S
Co237 N272 2.145 . S
Co237 N293 2.257 . S
O238 Co236 2.143 . S
O238 Co237 2.160 . S
C239 O240 1.278 . S
C239 O247 1.224 . S
O240 C239 1.278 . S
C241 O242 1.245 . S
C241 O253 1.232 . S
O242 C241 1.245 . S
O243 Co237 2.058 . S
O243 C269 1.269 . S
O244 Co236 2.074 . S
O244 C269 1.257 . S
H245 C270 0.930 . S
H246 C276 0.930 . S
O247 Co236 2.093 . S
O247 C239 1.224 . S
H248 C280 0.929 . S
H249 C282 0.930 . S
H250 C283 0.930 . S
H251 C281 0.929 . S
H252 C284 0.928 . S
O253 Co237 2.057 . S
O253 C241 1.232 . S
H254 C273 0.929 . S
H255 C274 0.929 . S
H256 C286 0.931 1_655 S
H257 C278 0.929 . S
H258 C287 0.930 . S
H259 C279 0.931 . S
O260 Co236 2.097 . S
O260 C288 1.214 . S
H261 C289 0.929 . S
H262 C290 0.929 . S
H263 C291 0.930 . S
H264 C292 0.929 . S
H265 C294 0.930 . S
H266 C271 0.930 . S
H267 C275 0.930 1_556 S
O268 Co237 2.037 . S
O268 C288 1.234 . S
C269 O243 1.269 . S
C269 O244 1.257 . S
C270 H245 0.930 . S
C270 C273 1.388 . S
C270 C275 1.418 . S
C271 H266 0.930 . S
C271 C274 1.404 . S
C271 C275 1.353 . S
N272 Co237 2.145 . S
N272 C273 1.397 . S
N272 C274 1.334 . S
C273 H254 0.929 . S
C273 C270 1.388 . S
C273 N272 1.397 . S
C274 H255 0.929 . S
C274 C271 1.404 . S
C274 N272 1.334 . S
C275 H267 0.930 1_554 S
C275 C270 1.418 . S
C275 C271 1.353 . S
C276 H246 0.930 . S
C276 N277 1.330 . S
C276 C278 1.446 . S
N277 Co236 2.151 . S
N277 C276 1.330 . S
N277 C281 1.418 . S
C278 H257 0.929 . S
C278 C276 1.446 . S
C278 C279 1.332 . S
C279 H259 0.931 . S
C279 C278 1.332 . S
C279 C280 1.267 . S
C280 H248 0.929 . S
C280 C279 1.267 . S
C280 C281 1.251 . S
C281 H251 0.929 . S
C281 N277 1.418 . S
C281 C280 1.251 . S
C282 H249 0.930 . S
C282 C284 1.406 . S
C282 C287 1.261 . S
C283 H250 0.930 . S
C283 N285 1.325 . S
C283 C286 1.357 . S
C284 H252 0.928 . S
C284 C282 1.406 . S
C284 N285 1.261 . S
N285 Co236 2.214 . S
N285 C283 1.325 . S
N285 C284 1.261 . S
C286 H256 0.931 1_455 S
C286 C283 1.357 . S
C286 C287 1.312 . S
C287 H258 0.930 . S
C287 C282 1.261 . S
C287 C286 1.312 . S
C288 O260 1.214 . S
C288 O268 1.234 . S
C289 H261 0.929 . S
C289 C292 1.391 . S
C289 C294 1.391 . S
C290 H262 0.929 . S
C290 C291 1.390 . S
C290 N293 1.391 . S
C291 H263 0.930 . S
C291 C290 1.390 . S
C291 C292 1.392 . S
C292 H264 0.929 . S
C292 C289 1.391 . S
C292 C291 1.392 . S
N293 Co237 2.257 . S
N293 C290 1.391 . S
N293 C294 1.388 . S
C294 H265 0.930 . S
C294 C289 1.391 . S
C294 N293 1.388 . S
Co295 O297 2.143 . S
Co295 O303 2.074 . S
Co295 O306 2.093 . S
Co295 O319 2.097 . S
Co295 N336 2.151 . S
Co295 N344 2.214 . S
Co296 O297 2.160 . S
Co296 O302 2.058 . S
Co296 O312 2.057 . S
Co296 O327 2.037 . S
Co296 N331 2.145 . S
Co296 N352 2.257 . S
O297 Co295 2.143 . S
O297 Co296 2.160 . S
C298 O299 1.278 . S
C298 O306 1.224 . S
O299 C298 1.278 . S
C300 O301 1.245 . S
C300 O312 1.232 . S
O301 C300 1.245 . S
O302 Co296 2.058 . S
O302 C328 1.269 . S
O303 Co295 2.074 . S
O303 C328 1.257 . S
H304 C329 0.930 . S
H305 C335 0.930 . S
O306 Co295 2.093 . S
O306 C298 1.224 . S
H307 C339 0.929 . S
H308 C341 0.930 . S
H309 C342 0.930 . S
H310 C340 0.929 . S
H311 C343 0.928 . S
O312 Co296 2.057 . S
O312 C300 1.232 . S
H313 C332 0.929 . S
H314 C333 0.929 . S
H315 C345 0.931 1_565 S
H316 C337 0.929 . S
H317 C346 0.930 . S
H318 C338 0.931 . S
O319 Co295 2.097 . S
O319 C347 1.214 . S
H320 C348 0.929 . S
H321 C349 0.929 . S
H322 C350 0.930 . S
H323 C351 0.929 . S
H324 C353 0.930 . S
H325 C330 0.930 . S
H326 C334 0.930 1_556 S
O327 Co296 2.037 . S
O327 C347 1.234 . S
C328 O302 1.269 . S
C328 O303 1.257 . S
C329 H304 0.930 . S
C329 C332 1.388 . S
C329 C334 1.418 . S
C330 H325 0.930 . S
C330 C333 1.404 . S
C330 C334 1.353 . S
N331 Co296 2.145 . S
N331 C332 1.397 . S
N331 C333 1.334 . S
C332 H313 0.929 . S
C332 C329 1.388 . S
C332 N331 1.397 . S
C333 H314 0.929 . S
C333 C330 1.404 . S
C333 N331 1.334 . S
C334 H326 0.930 1_554 S
C334 C329 1.418 . S
C334 C330 1.353 . S
C335 H305 0.930 . S
C335 N336 1.330 . S
C335 C337 1.446 . S
N336 Co295 2.151 . S
N336 C335 1.330 . S
N336 C340 1.418 . S
C337 H316 0.929 . S
C337 C335 1.446 . S
C337 C338 1.332 . S
C338 H318 0.931 . S
C338 C337 1.332 . S
C338 C339 1.267 . S
C339 H307 0.929 . S
C339 C338 1.267 . S
C339 C340 1.251 . S
C340 H310 0.929 . S
C340 N336 1.418 . S
C340 C339 1.251 . S
C341 H308 0.930 . S
C341 C343 1.406 . S
C341 C346 1.261 . S
C342 H309 0.930 . S
C342 N344 1.325 . S
C342 C345 1.357 . S
C343 H311 0.928 . S
C343 C341 1.406 . S
C343 N344 1.261 . S
N344 Co295 2.214 . S
N344 C342 1.325 . S
N344 C343 1.261 . S
C345 H315 0.931 1_545 S
C345 C342 1.357 . S
C345 C346 1.312 . S
C346 H317 0.930 . S
C346 C341 1.261 . S
C346 C345 1.312 . S
C347 O319 1.214 . S
C347 O327 1.234 . S
C348 H320 0.929 . S
C348 C351 1.391 . S
C348 C353 1.391 . S
C349 H321 0.929 . S
C349 C350 1.390 . S
C349 N352 1.391 . S
C350 H322 0.930 . S
C350 C349 1.390 . S
C350 C351 1.392 . S
C351 H323 0.929 . S
C351 C348 1.391 . S
C351 C350 1.392 . S
N352 Co296 2.257 . S
N352 C349 1.391 . S
N352 C353 1.388 . S
C353 H324 0.930 . S
C353 C348 1.391 . S
C353 N352 1.388 . S
Co354 O356 2.143 . S
Co354 O362 2.074 . S
Co354 O365 2.093 . S
Co354 O378 2.097 . S
Co354 N395 2.151 . S
Co354 N403 2.214 . S
Co355 O356 2.160 . S
Co355 O361 2.058 . S
Co355 O371 2.057 . S
Co355 O386 2.037 . S
Co355 N390 2.145 . S
Co355 N411 2.257 . S
O356 Co354 2.143 . S
O356 Co355 2.160 . S
C357 O358 1.278 . S
C357 O365 1.224 . S
O358 C357 1.278 . S
C359 O360 1.245 . S
C359 O371 1.232 . S
O360 C359 1.245 . S
O361 Co355 2.058 . S
O361 C387 1.269 . S
O362 Co354 2.074 . S
O362 C387 1.257 . S
H363 C388 0.930 . S
H364 C394 0.930 . S
O365 Co354 2.093 . S
O365 C357 1.224 . S
H366 C398 0.929 . S
H367 C400 0.930 . S
H368 C401 0.930 . S
H369 C399 0.929 . S
H370 C402 0.928 . S
O371 Co355 2.057 . S
O371 C359 1.232 . S
H372 C391 0.929 . S
H373 C392 0.929 . S
H374 C404 0.931 1_455 S
H375 C396 0.929 . S
H376 C405 0.930 . S
H377 C397 0.931 . S
O378 Co354 2.097 . S
O378 C406 1.214 . S
H379 C407 0.929 . S
H380 C408 0.929 . S
H381 C409 0.930 . S
H382 C410 0.929 . S
H383 C412 0.930 . S
H384 C389 0.930 . S
H385 C393 0.930 1_556 S
O386 Co355 2.037 . S
O386 C406 1.234 . S
C387 O361 1.269 . S
C387 O362 1.257 . S
C388 H363 0.930 . S
C388 C391 1.388 . S
C388 C393 1.418 . S
C389 H384 0.930 . S
C389 C392 1.404 . S
C389 C393 1.353 . S
N390 Co355 2.145 . S
N390 C391 1.397 . S
N390 C392 1.334 . S
C391 H372 0.929 . S
C391 C388 1.388 . S
C391 N390 1.397 . S
C392 H373 0.929 . S
C392 C389 1.404 . S
C392 N390 1.334 . S
C393 H385 0.930 1_554 S
C393 C388 1.418 . S
C393 C389 1.353 . S
C394 H364 0.930 . S
C394 N395 1.330 . S
C394 C396 1.446 . S
N395 Co354 2.151 . S
N395 C394 1.330 . S
N395 C399 1.418 . S
C396 H375 0.929 . S
C396 C394 1.446 . S
C396 C397 1.332 . S
C397 H377 0.931 . S
C397 C396 1.332 . S
C397 C398 1.267 . S
C398 H366 0.929 . S
C398 C397 1.267 . S
C398 C399 1.251 . S
C399 H369 0.929 . S
C399 N395 1.418 . S
C399 C398 1.251 . S
C400 H367 0.930 . S
C400 C402 1.406 . S
C400 C405 1.261 . S
C401 H368 0.930 . S
C401 N403 1.325 . S
C401 C404 1.357 . S
C402 H370 0.928 . S
C402 C400 1.406 . S
C402 N403 1.261 . S
N403 Co354 2.214 . S
N403 C401 1.325 . S
N403 C402 1.261 . S
C404 H374 0.931 1_655 S
C404 C401 1.357 . S
C404 C405 1.312 . S
C405 H376 0.930 . S
C405 C400 1.261 . S
C405 C404 1.312 . S
C406 O378 1.214 . S
C406 O386 1.234 . S
C407 H379 0.929 . S
C407 C410 1.391 . S
C407 C412 1.391 . S
C408 H380 0.929 . S
C408 C409 1.390 . S
C408 N411 1.391 . S
C409 H381 0.930 . S
C409 C408 1.390 . S
C409 C410 1.392 . S
C410 H382 0.929 . S
C410 C407 1.391 . S
C410 C409 1.392 . S
N411 Co355 2.257 . S
N411 C408 1.391 . S
N411 C412 1.388 . S
C412 H383 0.930 . S
C412 C407 1.391 . S
C412 N411 1.388 . S
Co413 O415 2.143 . S
Co413 O421 2.074 . S
Co413 O424 2.093 . S
Co413 O437 2.097 . S
Co413 N454 2.151 . S
Co413 N462 2.214 . S
Co414 O415 2.160 . S
Co414 O420 2.058 . S
Co414 O430 2.057 . S
Co414 O445 2.037 . S
Co414 N449 2.145 . S
Co414 N470 2.257 . S
O415 Co413 2.143 . S
O415 Co414 2.160 . S
C416 O417 1.278 . S
C416 O424 1.224 . S
O417 C416 1.278 . S
C418 O419 1.245 . S
C418 O430 1.232 . S
O419 C418 1.245 . S
O420 Co414 2.058 . S
O420 C446 1.269 . S
O421 Co413 2.074 . S
O421 C446 1.257 . S
H422 C447 0.930 . S
H423 C453 0.930 . S
O424 Co413 2.093 . S
O424 C416 1.224 . S
H425 C457 0.929 . S
H426 C459 0.930 . S
H427 C460 0.930 . S
H428 C458 0.929 . S
H429 C461 0.928 . S
O430 Co414 2.057 . S
O430 C418 1.232 . S
H431 C450 0.929 . S
H432 C451 0.929 . S
H433 C463 0.931 1_545 S
H434 C455 0.929 . S
H435 C464 0.930 . S
H436 C456 0.931 . S
O437 Co413 2.097 . S
O437 C465 1.214 . S
H438 C466 0.929 . S
H439 C467 0.929 . S
H440 C468 0.930 . S
H441 C469 0.929 . S
H442 C471 0.930 . S
H443 C448 0.930 . S
H444 C452 0.930 1_556 S
O445 Co414 2.037 . S
O445 C465 1.234 . S
C446 O420 1.269 . S
C446 O421 1.257 . S
C447 H422 0.930 . S
C447 C450 1.388 . S
C447 C452 1.418 . S
C448 H443 0.930 . S
C448 C451 1.404 . S
C448 C452 1.353 . S
N449 Co414 2.145 . S
N449 C450 1.397 . S
N449 C451 1.334 . S
C450 H431 0.929 . S
C450 C447 1.388 . S
C450 N449 1.397 . S
C451 H432 0.929 . S
C451 C448 1.404 . S
C451 N449 1.334 . S
C452 H444 0.930 1_554 S
C452 C447 1.418 . S
C452 C448 1.353 . S
C453 H423 0.930 . S
C453 N454 1.330 . S
C453 C455 1.446 . S
N454 Co413 2.151 . S
N454 C453 1.330 . S
N454 C458 1.418 . S
C455 H434 0.929 . S
C455 C453 1.446 . S
C455 C456 1.332 . S
C456 H436 0.931 . S
C456 C455 1.332 . S
C456 C457 1.267 . S
C457 H425 0.929 . S
C457 C456 1.267 . S
C457 C458 1.251 . S
C458 H428 0.929 . S
C458 N454 1.418 . S
C458 C457 1.251 . S
C459 H426 0.930 . S
C459 C461 1.406 . S
C459 C464 1.261 . S
C460 H427 0.930 . S
C460 N462 1.325 . S
C460 C463 1.357 . S
C461 H429 0.928 . S
C461 C459 1.406 . S
C461 N462 1.261 . S
N462 Co413 2.214 . S
N462 C460 1.325 . S
N462 C461 1.261 . S
C463 H433 0.931 1_565 S
C463 C460 1.357 . S
C463 C464 1.312 . S
C464 H435 0.930 . S
C464 C459 1.261 . S
C464 C463 1.312 . S
C465 O437 1.214 . S
C465 O445 1.234 . S
C466 H438 0.929 . S
C466 C469 1.391 . S
C466 C471 1.391 . S
C467 H439 0.929 . S
C467 C468 1.390 . S
C467 N470 1.391 . S
C468 H440 0.930 . S
C468 C467 1.390 . S
C468 C469 1.392 . S
C469 H441 0.929 . S
C469 C466 1.391 . S
C469 C468 1.392 . S
N470 Co414 2.257 . S
N470 C467 1.391 . S
N470 C471 1.388 . S
C471 H442 0.930 . S
C471 C466 1.391 . S
C471 N470 1.388 . S
Co472 O474 2.143 . S
Co472 O480 2.074 . S
Co472 O483 2.093 . S
Co472 O496 2.097 . S
Co472 N513 2.151 . S
Co472 N521 2.214 1_655 S
Co473 O474 2.160 . S
Co473 O479 2.058 . S
Co473 O489 2.057 . S
Co473 O504 2.037 . S
Co473 N508 2.145 . S
Co473 N529 2.257 . S
O474 Co472 2.143 . S
O474 Co473 2.160 . S
C475 O476 1.278 . S
C475 O483 1.224 . S
O476 C475 1.278 . S
C477 O478 1.245 . S
C477 O489 1.232 . S
O478 C477 1.245 . S
O479 Co473 2.058 . S
O479 C505 1.269 . S
O480 Co472 2.074 . S
O480 C505 1.257 . S
H481 C506 0.930 . S
H482 C512 0.930 . S
O483 Co472 2.093 . S
O483 C475 1.224 . S
H484 C516 0.929 . S
H485 C518 0.930 1_554 S
H486 C519 0.930 . S
H487 C517 0.929 . S
H488 C520 0.928 . S
O489 Co473 2.057 . S
O489 C477 1.232 . S
H490 C509 0.929 . S
H491 C510 0.929 . S
H492 C522 0.931 . S
H493 C514 0.929 . S
H494 C523 0.930 . S
H495 C515 0.931 . S
O496 Co472 2.097 . S
O496 C524 1.214 . S
H497 C525 0.929 . S
H498 C526 0.929 . S
H499 C527 0.930 . S
H500 C528 0.929 . S
H501 C530 0.930 . S
H502 C507 0.930 . S
H503 C511 0.930 . S
O504 Co473 2.037 . S
O504 C524 1.234 . S
C505 O479 1.269 . S
C505 O480 1.257 . S
C506 H481 0.930 . S
C506 C509 1.388 . S
C506 C511 1.418 . S
C507 H502 0.930 . S
C507 C510 1.404 . S
C507 C511 1.353 . S
N508 Co473 2.145 . S
N508 C509 1.397 . S
N508 C510 1.334 . S
C509 H490 0.929 . S
C509 C506 1.388 . S
C509 N508 1.397 . S
C510 H491 0.929 . S
C510 C507 1.404 . S
C510 N508 1.334 . S
C511 H503 0.930 . S
C511 C506 1.418 . S
C511 C507 1.353 . S
C512 H482 0.930 . S
C512 N513 1.330 . S
C512 C514 1.446 . S
N513 Co472 2.151 . S
N513 C512 1.330 . S
N513 C517 1.418 1_655 S
C514 H493 0.929 . S
C514 C512 1.446 . S
C514 C515 1.332 1_655 S
C515 H495 0.931 . S
C515 C514 1.332 1_455 S
C515 C516 1.267 . S
C516 H484 0.929 . S
C516 C515 1.267 . S
C516 C517 1.251 . S
C517 H487 0.929 . S
C517 N513 1.418 1_455 S
C517 C516 1.251 . S
C518 H485 0.930 1_556 S
C518 C520 1.406 . S
C518 C523 1.261 . S
C519 H486 0.930 . S
C519 N521 1.325 . S
C519 C522 1.357 . S
C520 H488 0.928 . S
C520 C518 1.406 . S
C520 N521 1.261 . S
N521 Co472 2.214 1_455 S
N521 C519 1.325 . S
N521 C520 1.261 . S
C522 H492 0.931 . S
C522 C519 1.357 . S
C522 C523 1.312 . S
C523 H494 0.930 . S
C523 C518 1.261 . S
C523 C522 1.312 . S
C524 O496 1.214 . S
C524 O504 1.234 . S
C525 H497 0.929 . S
C525 C528 1.391 . S
C525 C530 1.391 . S
C526 H498 0.929 . S
C526 C527 1.390 . S
C526 N529 1.391 . S
C527 H499 0.930 . S
C527 C526 1.390 . S
C527 C528 1.392 . S
C528 H500 0.929 . S
C528 C525 1.391 . S
C528 C527 1.392 . S
N529 Co473 2.257 . S
N529 C526 1.391 . S
N529 C530 1.388 . S
C530 H501 0.930 . S
C530 C525 1.391 . S
C530 N529 1.388 . S
Co531 O533 2.143 . S
Co531 O539 2.074 . S
Co531 O542 2.093 . S
Co531 O555 2.097 . S
Co531 N572 2.151 . S
Co531 N580 2.214 1_565 S
Co532 O533 2.160 . S
Co532 O538 2.058 . S
Co532 O548 2.057 . S
Co532 O563 2.037 . S
Co532 N567 2.145 . S
Co532 N588 2.257 . S
O533 Co531 2.143 . S
O533 Co532 2.160 . S
C534 O535 1.278 . S
C534 O542 1.224 . S
O535 C534 1.278 . S
C536 O537 1.245 . S
C536 O548 1.232 . S
O537 C536 1.245 . S
O538 Co532 2.058 . S
O538 C564 1.269 . S
O539 Co531 2.074 . S
O539 C564 1.257 . S
H540 C565 0.930 . S
H541 C571 0.930 . S
O542 Co531 2.093 . S
O542 C534 1.224 . S
H543 C575 0.929 . S
H544 C577 0.930 1_554 S
H545 C578 0.930 . S
H546 C576 0.929 . S
H547 C579 0.928 . S
O548 Co532 2.057 . S
O548 C536 1.232 . S
H549 C568 0.929 . S
H550 C569 0.929 . S
H551 C581 0.931 . S
H552 C573 0.929 . S
H553 C582 0.930 . S
H554 C574 0.931 . S
O555 Co531 2.097 . S
O555 C583 1.214 . S
H556 C584 0.929 . S
H557 C585 0.929 . S
H558 C586 0.930 . S
H559 C587 0.929 . S
H560 C589 0.930 . S
H561 C566 0.930 . S
H562 C570 0.930 . S
O563 Co532 2.037 . S
O563 C583 1.234 . S
C564 O538 1.269 . S
C564 O539 1.257 . S
C565 H540 0.930 . S
C565 C568 1.388 . S
C565 C570 1.418 . S
C566 H561 0.930 . S
C566 C569 1.404 . S
C566 C570 1.353 . S
N567 Co532 2.145 . S
N567 C568 1.397 . S
N567 C569 1.334 . S
C568 H549 0.929 . S
C568 C565 1.388 . S
C568 N567 1.397 . S
C569 H550 0.929 . S
C569 C566 1.404 . S
C569 N567 1.334 . S
C570 H562 0.930 . S
C570 C565 1.418 . S
C570 C566 1.353 . S
C571 H541 0.930 . S
C571 N572 1.330 . S
C571 C573 1.446 . S
N572 Co531 2.151 . S
N572 C571 1.330 . S
N572 C576 1.418 1_565 S
C573 H552 0.929 . S
C573 C571 1.446 . S
C573 C574 1.332 1_565 S
C574 H554 0.931 . S
C574 C573 1.332 1_545 S
C574 C575 1.267 . S
C575 H543 0.929 . S
C575 C574 1.267 . S
C575 C576 1.251 . S
C576 H546 0.929 . S
C576 N572 1.418 1_545 S
C576 C575 1.251 . S
C577 H544 0.930 1_556 S
C577 C579 1.406 . S
C577 C582 1.261 . S
C578 H545 0.930 . S
C578 N580 1.325 . S
C578 C581 1.357 . S
C579 H547 0.928 . S
C579 C577 1.406 . S
C579 N580 1.261 . S
N580 Co531 2.214 1_545 S
N580 C578 1.325 . S
N580 C579 1.261 . S
C581 H551 0.931 . S
C581 C578 1.357 . S
C581 C582 1.312 . S
C582 H553 0.930 . S
C582 C577 1.261 . S
C582 C581 1.312 . S
C583 O555 1.214 . S
C583 O563 1.234 . S
C584 H556 0.929 . S
C584 C587 1.391 . S
C584 C589 1.391 . S
C585 H557 0.929 . S
C585 C586 1.390 . S
C585 N588 1.391 . S
C586 H558 0.930 . S
C586 C585 1.390 . S
C586 C587 1.392 . S
C587 H559 0.929 . S
C587 C584 1.391 . S
C587 C586 1.392 . S
N588 Co532 2.257 . S
N588 C585 1.391 . S
N588 C589 1.388 . S
C589 H560 0.930 . S
C589 C584 1.391 . S
C589 N588 1.388 . S
Co590 O592 2.143 . S
Co590 O598 2.074 . S
Co590 O601 2.093 . S
Co590 O614 2.097 . S
Co590 N631 2.151 . S
Co590 N639 2.214 1_455 S
Co591 O592 2.160 . S
Co591 O597 2.058 . S
Co591 O607 2.057 . S
Co591 O622 2.037 . S
Co591 N626 2.145 . S
Co591 N647 2.257 . S
O592 Co590 2.143 . S
O592 Co591 2.160 . S
C593 O594 1.278 . S
C593 O601 1.224 . S
O594 C593 1.278 . S
C595 O596 1.245 . S
C595 O607 1.232 . S
O596 C595 1.245 . S
O597 Co591 2.058 . S
O597 C623 1.269 . S
O598 Co590 2.074 . S
O598 C623 1.257 . S
H599 C624 0.930 . S
H600 C630 0.930 . S
O601 Co590 2.093 . S
O601 C593 1.224 . S
H602 C634 0.929 . S
H603 C636 0.930 1_554 S
H604 C637 0.930 . S
H605 C635 0.929 . S
H606 C638 0.928 . S
O607 Co591 2.057 . S
O607 C595 1.232 . S
H608 C627 0.929 . S
H609 C628 0.929 . S
H610 C640 0.931 . S
H611 C632 0.929 . S
H612 C641 0.930 . S
H613 C633 0.931 . S
O614 Co590 2.097 . S
O614 C642 1.214 . S
H615 C643 0.929 . S
H616 C644 0.929 . S
H617 C645 0.930 . S
H618 C646 0.929 . S
H619 C648 0.930 . S
H620 C625 0.930 . S
H621 C629 0.930 . S
O622 Co591 2.037 . S
O622 C642 1.234 . S
C623 O597 1.269 . S
C623 O598 1.257 . S
C624 H599 0.930 . S
C624 C627 1.388 . S
C624 C629 1.418 . S
C625 H620 0.930 . S
C625 C628 1.404 . S
C625 C629 1.353 . S
N626 Co591 2.145 . S
N626 C627 1.397 . S
N626 C628 1.334 . S
C627 H608 0.929 . S
C627 C624 1.388 . S
C627 N626 1.397 . S
C628 H609 0.929 . S
C628 C625 1.404 . S
C628 N626 1.334 . S
C629 H621 0.930 . S
C629 C624 1.418 . S
C629 C625 1.353 . S
C630 H600 0.930 . S
C630 N631 1.330 . S
C630 C632 1.446 . S
N631 Co590 2.151 . S
N631 C630 1.330 . S
N631 C635 1.418 1_455 S
C632 H611 0.929 . S
C632 C630 1.446 . S
C632 C633 1.332 1_455 S
C633 H613 0.931 . S
C633 C632 1.332 1_655 S
C633 C634 1.267 . S
C634 H602 0.929 . S
C634 C633 1.267 . S
C634 C635 1.251 . S
C635 H605 0.929 . S
C635 N631 1.418 1_655 S
C635 C634 1.251 . S
C636 H603 0.930 1_556 S
C636 C638 1.406 . S
C636 C641 1.261 . S
C637 H604 0.930 . S
C637 N639 1.325 . S
C637 C640 1.357 . S
C638 H606 0.928 . S
C638 C636 1.406 . S
C638 N639 1.261 . S
N639 Co590 2.214 1_655 S
N639 C637 1.325 . S
N639 C638 1.261 . S
C640 H610 0.931 . S
C640 C637 1.357 . S
C640 C641 1.312 . S
C641 H612 0.930 . S
C641 C636 1.261 . S
C641 C640 1.312 . S
C642 O614 1.214 . S
C642 O622 1.234 . S
C643 H615 0.929 . S
C643 C646 1.391 . S
C643 C648 1.391 . S
C644 H616 0.929 . S
C644 C645 1.390 . S
C644 N647 1.391 . S
C645 H617 0.930 . S
C645 C644 1.390 . S
C645 C646 1.392 . S
C646 H618 0.929 . S
C646 C643 1.391 . S
C646 C645 1.392 . S
N647 Co591 2.257 . S
N647 C644 1.391 . S
N647 C648 1.388 . S
C648 H619 0.930 . S
C648 C643 1.391 . S
C648 N647 1.388 . S
Co649 O651 2.143 . S
Co649 O657 2.074 . S
Co649 O660 2.093 . S
Co649 O673 2.097 . S
Co649 N690 2.151 . S
Co649 N698 2.214 1_545 S
Co650 O651 2.160 . S
Co650 O656 2.058 . S
Co650 O666 2.057 . S
Co650 O681 2.037 . S
Co650 N685 2.145 . S
Co650 N706 2.257 . S
O651 Co649 2.143 . S
O651 Co650 2.160 . S
C652 O653 1.278 . S
C652 O660 1.224 . S
O653 C652 1.278 . S
C654 O655 1.245 . S
C654 O666 1.232 . S
O655 C654 1.245 . S
O656 Co650 2.058 . S
O656 C682 1.269 . S
O657 Co649 2.074 . S
O657 C682 1.257 . S
H658 C683 0.930 . S
H659 C689 0.930 . S
O660 Co649 2.093 . S
O660 C652 1.224 . S
H661 C693 0.929 . S
H662 C695 0.930 1_554 S
H663 C696 0.930 . S
H664 C694 0.929 . S
H665 C697 0.928 . S
O666 Co650 2.057 . S
O666 C654 1.232 . S
H667 C686 0.929 . S
H668 C687 0.929 . S
H669 C699 0.931 . S
H670 C691 0.929 . S
H671 C700 0.930 . S
H672 C692 0.931 . S
O673 Co649 2.097 . S
O673 C701 1.214 . S
H674 C702 0.929 . S
H675 C703 0.929 . S
H676 C704 0.930 . S
H677 C705 0.929 . S
H678 C707 0.930 . S
H679 C684 0.930 . S
H680 C688 0.930 . S
O681 Co650 2.037 . S
O681 C701 1.234 . S
C682 O656 1.269 . S
C682 O657 1.257 . S
C683 H658 0.930 . S
C683 C686 1.388 . S
C683 C688 1.418 . S
C684 H679 0.930 . S
C684 C687 1.404 . S
C684 C688 1.353 . S
N685 Co650 2.145 . S
N685 C686 1.397 . S
N685 C687 1.334 . S
C686 H667 0.929 . S
C686 C683 1.388 . S
C686 N685 1.397 . S
C687 H668 0.929 . S
C687 C684 1.404 . S
C687 N685 1.334 . S
C688 H680 0.930 . S
C688 C683 1.418 . S
C688 C684 1.353 . S
C689 H659 0.930 . S
C689 N690 1.330 . S
C689 C691 1.446 . S
N690 Co649 2.151 . S
N690 C689 1.330 . S
N690 C694 1.418 1_545 S
C691 H670 0.929 . S
C691 C689 1.446 . S
C691 C692 1.332 1_545 S
C692 H672 0.931 . S
C692 C691 1.332 1_565 S
C692 C693 1.267 . S
C693 H661 0.929 . S
C693 C692 1.267 . S
C693 C694 1.251 . S
C694 H664 0.929 . S
C694 N690 1.418 1_565 S
C694 C693 1.251 . S
C695 H662 0.930 1_556 S
C695 C697 1.406 . S
C695 C700 1.261 . S
C696 H663 0.930 . S
C696 N698 1.325 . S
C696 C699 1.357 . S
C697 H665 0.928 . S
C697 C695 1.406 . S
C697 N698 1.261 . S
N698 Co649 2.214 1_565 S
N698 C696 1.325 . S
N698 C697 1.261 . S
C699 H669 0.931 . S
C699 C696 1.357 . S
C699 C700 1.312 . S
C700 H671 0.930 . S
C700 C695 1.261 . S
C700 C699 1.312 . S
C701 O673 1.214 . S
C701 O681 1.234 . S
C702 H674 0.929 . S
C702 C705 1.391 . S
C702 C707 1.391 . S
C703 H675 0.929 . S
C703 C704 1.390 . S
C703 N706 1.391 . S
C704 H676 0.930 . S
C704 C703 1.390 . S
C704 C705 1.392 . S
C705 H677 0.929 . S
C705 C702 1.391 . S
C705 C704 1.392 . S
N706 Co650 2.257 . S
N706 C703 1.391 . S
N706 C707 1.388 . S
C707 H678 0.930 . S
C707 C702 1.391 . S
C707 N706 1.388 . S
Co708 O710 2.143 . S
Co708 O716 2.074 . S
Co708 O719 2.093 . S
Co708 O732 2.097 . S
Co708 N749 2.151 . S
Co708 N757 2.214 1_655 S
Co709 O710 2.160 . S
Co709 O715 2.058 . S
Co709 O725 2.057 . S
Co709 O740 2.037 . S
Co709 N744 2.145 . S
Co709 N765 2.257 . S
O710 Co708 2.143 . S
O710 Co709 2.160 . S
C711 O712 1.278 . S
C711 O719 1.224 . S
O712 C711 1.278 . S
C713 O714 1.245 . S
C713 O725 1.232 . S
O714 C713 1.245 . S
O715 Co709 2.058 . S
O715 C741 1.269 . S
O716 Co708 2.074 . S
O716 C741 1.257 . S
H717 C742 0.930 . S
H718 C748 0.930 . S
O719 Co708 2.093 . S
O719 C711 1.224 . S
H720 C752 0.929 . S
H721 C754 0.930 . S
H722 C755 0.930 . S
H723 C753 0.929 . S
H724 C756 0.928 . S
O725 Co709 2.057 . S
O725 C713 1.232 . S
H726 C745 0.929 . S
H727 C746 0.929 . S
H728 C758 0.931 . S
H729 C750 0.929 . S
H730 C759 0.930 . S
H731 C751 0.931 . S
O732 Co708 2.097 . S
O732 C760 1.214 . S
H733 C761 0.929 . S
H734 C762 0.929 . S
H735 C763 0.930 . S
H736 C764 0.929 . S
H737 C766 0.930 . S
H738 C743 0.930 . S
H739 C747 0.930 1_554 S
O740 Co709 2.037 . S
O740 C760 1.234 . S
C741 O715 1.269 . S
C741 O716 1.257 . S
C742 H717 0.930 . S
C742 C745 1.388 . S
C742 C747 1.418 . S
C743 H738 0.930 . S
C743 C746 1.404 . S
C743 C747 1.353 . S
N744 Co709 2.145 . S
N744 C745 1.397 . S
N744 C746 1.334 . S
C745 H726 0.929 . S
C745 C742 1.388 . S
C745 N744 1.397 . S
C746 H727 0.929 . S
C746 C743 1.404 . S
C746 N744 1.334 . S
C747 H739 0.930 1_556 S
C747 C742 1.418 . S
C747 C743 1.353 . S
C748 H718 0.930 . S
C748 N749 1.330 . S
C748 C750 1.446 . S
N749 Co708 2.151 . S
N749 C748 1.330 . S
N749 C753 1.418 1_655 S
C750 H729 0.929 . S
C750 C748 1.446 . S
C750 C751 1.332 1_655 S
C751 H731 0.931 . S
C751 C750 1.332 1_455 S
C751 C752 1.267 . S
C752 H720 0.929 . S
C752 C751 1.267 . S
C752 C753 1.251 . S
C753 H723 0.929 . S
C753 N749 1.418 1_455 S
C753 C752 1.251 . S
C754 H721 0.930 . S
C754 C756 1.406 . S
C754 C759 1.261 . S
C755 H722 0.930 . S
C755 N757 1.325 . S
C755 C758 1.357 . S
C756 H724 0.928 . S
C756 C754 1.406 . S
C756 N757 1.261 . S
N757 Co708 2.214 1_455 S
N757 C755 1.325 . S
N757 C756 1.261 . S
C758 H728 0.931 . S
C758 C755 1.357 . S
C758 C759 1.312 . S
C759 H730 0.930 . S
C759 C754 1.261 . S
C759 C758 1.312 . S
C760 O732 1.214 . S
C760 O740 1.234 . S
C761 H733 0.929 . S
C761 C764 1.391 . S
C761 C766 1.391 . S
C762 H734 0.929 . S
C762 C763 1.390 . S
C762 N765 1.391 . S
C763 H735 0.930 . S
C763 C762 1.390 . S
C763 C764 1.392 . S
C764 H736 0.929 . S
C764 C761 1.391 . S
C764 C763 1.392 . S
N765 Co709 2.257 . S
N765 C762 1.391 . S
N765 C766 1.388 . S
C766 H737 0.930 . S
C766 C761 1.391 . S
C766 N765 1.388 . S
Co767 O769 2.143 . S
Co767 O775 2.074 . S
Co767 O778 2.093 . S
Co767 O791 2.097 . S
Co767 N808 2.151 . S
Co767 N816 2.214 1_565 S
Co768 O769 2.160 . S
Co768 O774 2.058 . S
Co768 O784 2.057 . S
Co768 O799 2.037 . S
Co768 N803 2.145 . S
Co768 N824 2.257 . S
O769 Co767 2.143 . S
O769 Co768 2.160 . S
C770 O771 1.278 . S
C770 O778 1.224 . S
O771 C770 1.278 . S
C772 O773 1.245 . S
C772 O784 1.232 . S
O773 C772 1.245 . S
O774 Co768 2.058 . S
O774 C800 1.269 . S
O775 Co767 2.074 . S
O775 C800 1.257 . S
H776 C801 0.930 . S
H777 C807 0.930 . S
O778 Co767 2.093 . S
O778 C770 1.224 . S
H779 C811 0.929 . S
H780 C813 0.930 . S
H781 C814 0.930 . S
H782 C812 0.929 . S
H783 C815 0.928 . S
O784 Co768 2.057 . S
O784 C772 1.232 . S
H785 C804 0.929 . S
H786 C805 0.929 . S
H787 C817 0.931 . S
H788 C809 0.929 . S
H789 C818 0.930 . S
H790 C810 0.931 . S
O791 Co767 2.097 . S
O791 C819 1.214 . S
H792 C820 0.929 . S
H793 C821 0.929 . S
H794 C822 0.930 . S
H795 C823 0.929 . S
H796 C825 0.930 . S
H797 C802 0.930 . S
H798 C806 0.930 1_554 S
O799 Co768 2.037 . S
O799 C819 1.234 . S
C800 O774 1.269 . S
C800 O775 1.257 . S
C801 H776 0.930 . S
C801 C804 1.388 . S
C801 C806 1.418 . S
C802 H797 0.930 . S
C802 C805 1.404 . S
C802 C806 1.353 . S
N803 Co768 2.145 . S
N803 C804 1.397 . S
N803 C805 1.334 . S
C804 H785 0.929 . S
C804 C801 1.388 . S
C804 N803 1.397 . S
C805 H786 0.929 . S
C805 C802 1.404 . S
C805 N803 1.334 . S
C806 H798 0.930 1_556 S
C806 C801 1.418 . S
C806 C802 1.353 . S
C807 H777 0.930 . S
C807 N808 1.330 . S
C807 C809 1.446 . S
N808 Co767 2.151 . S
N808 C807 1.330 . S
N808 C812 1.418 1_565 S
C809 H788 0.929 . S
C809 C807 1.446 . S
C809 C810 1.332 1_565 S
C810 H790 0.931 . S
C810 C809 1.332 1_545 S
C810 C811 1.267 . S
C811 H779 0.929 . S
C811 C810 1.267 . S
C811 C812 1.251 . S
C812 H782 0.929 . S
C812 N808 1.418 1_545 S
C812 C811 1.251 . S
C813 H780 0.930 . S
C813 C815 1.406 . S
C813 C818 1.261 . S
C814 H781 0.930 . S
C814 N816 1.325 . S
C814 C817 1.357 . S
C815 H783 0.928 . S
C815 C813 1.406 . S
C815 N816 1.261 . S
N816 Co767 2.214 1_545 S
N816 C814 1.325 . S
N816 C815 1.261 . S
C817 H787 0.931 . S
C817 C814 1.357 . S
C817 C818 1.312 . S
C818 H789 0.930 . S
C818 C813 1.261 . S
C818 C817 1.312 . S
C819 O791 1.214 . S
C819 O799 1.234 . S
C820 H792 0.929 . S
C820 C823 1.391 . S
C820 C825 1.391 . S
C821 H793 0.929 . S
C821 C822 1.390 . S
C821 N824 1.391 . S
C822 H794 0.930 . S
C822 C821 1.390 . S
C822 C823 1.392 . S
C823 H795 0.929 . S
C823 C820 1.391 . S
C823 C822 1.392 . S
N824 Co768 2.257 . S
N824 C821 1.391 . S
N824 C825 1.388 . S
C825 H796 0.930 . S
C825 C820 1.391 . S
C825 N824 1.388 . S
Co826 O828 2.143 . S
Co826 O834 2.074 . S
Co826 O837 2.093 . S
Co826 O850 2.097 . S
Co826 N867 2.151 . S
Co826 N875 2.214 1_455 S
Co827 O828 2.160 . S
Co827 O833 2.058 . S
Co827 O843 2.057 . S
Co827 O858 2.037 . S
Co827 N862 2.145 . S
Co827 N883 2.257 . S
O828 Co826 2.143 . S
O828 Co827 2.160 . S
C829 O830 1.278 . S
C829 O837 1.224 . S
O830 C829 1.278 . S
C831 O832 1.245 . S
C831 O843 1.232 . S
O832 C831 1.245 . S
O833 Co827 2.058 . S
O833 C859 1.269 . S
O834 Co826 2.074 . S
O834 C859 1.257 . S
H835 C860 0.930 . S
H836 C866 0.930 . S
O837 Co826 2.093 . S
O837 C829 1.224 . S
H838 C870 0.929 . S
H839 C872 0.930 . S
H840 C873 0.930 . S
H841 C871 0.929 . S
H842 C874 0.928 . S
O843 Co827 2.057 . S
O843 C831 1.232 . S
H844 C863 0.929 . S
H845 C864 0.929 . S
H846 C876 0.931 . S
H847 C868 0.929 . S
H848 C877 0.930 . S
H849 C869 0.931 . S
O850 Co826 2.097 . S
O850 C878 1.214 . S
H851 C879 0.929 . S
H852 C880 0.929 . S
H853 C881 0.930 . S
H854 C882 0.929 . S
H855 C884 0.930 . S
H856 C861 0.930 . S
H857 C865 0.930 1_554 S
O858 Co827 2.037 . S
O858 C878 1.234 . S
C859 O833 1.269 . S
C859 O834 1.257 . S
C860 H835 0.930 . S
C860 C863 1.388 . S
C860 C865 1.418 . S
C861 H856 0.930 . S
C861 C864 1.404 . S
C861 C865 1.353 . S
N862 Co827 2.145 . S
N862 C863 1.397 . S
N862 C864 1.334 . S
C863 H844 0.929 . S
C863 C860 1.388 . S
C863 N862 1.397 . S
C864 H845 0.929 . S
C864 C861 1.404 . S
C864 N862 1.334 . S
C865 H857 0.930 1_556 S
C865 C860 1.418 . S
C865 C861 1.353 . S
C866 H836 0.930 . S
C866 N867 1.330 . S
C866 C868 1.446 . S
N867 Co826 2.151 . S
N867 C866 1.330 . S
N867 C871 1.418 1_455 S
C868 H847 0.929 . S
C868 C866 1.446 . S
C868 C869 1.332 1_455 S
C869 H849 0.931 . S
C869 C868 1.332 1_655 S
C869 C870 1.267 . S
C870 H838 0.929 . S
C870 C869 1.267 . S
C870 C871 1.251 . S
C871 H841 0.929 . S
C871 N867 1.418 1_655 S
C871 C870 1.251 . S
C872 H839 0.930 . S
C872 C874 1.406 . S
C872 C877 1.261 . S
C873 H840 0.930 . S
C873 N875 1.325 . S
C873 C876 1.357 . S
C874 H842 0.928 . S
C874 C872 1.406 . S
C874 N875 1.261 . S
N875 Co826 2.214 1_655 S
N875 C873 1.325 . S
N875 C874 1.261 . S
C876 H846 0.931 . S
C876 C873 1.357 . S
C876 C877 1.312 . S
C877 H848 0.930 . S
C877 C872 1.261 . S
C877 C876 1.312 . S
C878 O850 1.214 . S
C878 O858 1.234 . S
C879 H851 0.929 . S
C879 C882 1.391 . S
C879 C884 1.391 . S
C880 H852 0.929 . S
C880 C881 1.390 . S
C880 N883 1.391 . S
C881 H853 0.930 . S
C881 C880 1.390 . S
C881 C882 1.392 . S
C882 H854 0.929 . S
C882 C879 1.391 . S
C882 C881 1.392 . S
N883 Co827 2.257 . S
N883 C880 1.391 . S
N883 C884 1.388 . S
C884 H855 0.930 . S
C884 C879 1.391 . S
C884 N883 1.388 . S
Co885 O887 2.143 . S
Co885 O893 2.074 . S
Co885 O896 2.093 . S
Co885 O909 2.097 . S
Co885 N926 2.151 . S
Co885 N934 2.214 1_545 S
Co886 O887 2.160 . S
Co886 O892 2.058 . S
Co886 O902 2.057 . S
Co886 O917 2.037 . S
Co886 N921 2.145 . S
Co886 N942 2.257 . S
O887 Co885 2.143 . S
O887 Co886 2.160 . S
C888 O889 1.278 . S
C888 O896 1.224 . S
O889 C888 1.278 . S
C890 O891 1.245 . S
C890 O902 1.232 . S
O891 C890 1.245 . S
O892 Co886 2.058 . S
O892 C918 1.269 . S
O893 Co885 2.074 . S
O893 C918 1.257 . S
H894 C919 0.930 . S
H895 C925 0.930 . S
O896 Co885 2.093 . S
O896 C888 1.224 . S
H897 C929 0.929 . S
H898 C931 0.930 . S
H899 C932 0.930 . S
H900 C930 0.929 . S
H901 C933 0.928 . S
O902 Co886 2.057 . S
O902 C890 1.232 . S
H903 C922 0.929 . S
H904 C923 0.929 . S
H905 C935 0.931 . S
H906 C927 0.929 . S
H907 C936 0.930 . S
H908 C928 0.931 . S
O909 Co885 2.097 . S
O909 C937 1.214 . S
H910 C938 0.929 . S
H911 C939 0.929 . S
H912 C940 0.930 . S
H913 C941 0.929 . S
H914 C943 0.930 . S
H915 C920 0.930 . S
H916 C924 0.930 1_554 S
O917 Co886 2.037 . S
O917 C937 1.234 . S
C918 O892 1.269 . S
C918 O893 1.257 . S
C919 H894 0.930 . S
C919 C922 1.388 . S
C919 C924 1.418 . S
C920 H915 0.930 . S
C920 C923 1.404 . S
C920 C924 1.353 . S
N921 Co886 2.145 . S
N921 C922 1.397 . S
N921 C923 1.334 . S
C922 H903 0.929 . S
C922 C919 1.388 . S
C922 N921 1.397 . S
C923 H904 0.929 . S
C923 C920 1.404 . S
C923 N921 1.334 . S
C924 H916 0.930 1_556 S
C924 C919 1.418 . S
C924 C920 1.353 . S
C925 H895 0.930 . S
C925 N926 1.330 . S
C925 C927 1.446 . S
N926 Co885 2.151 . S
N926 C925 1.330 . S
N926 C930 1.418 1_545 S
C927 H906 0.929 . S
C927 C925 1.446 . S
C927 C928 1.332 1_545 S
C928 H908 0.931 . S
C928 C927 1.332 1_565 S
C928 C929 1.267 . S
C929 H897 0.929 . S
C929 C928 1.267 . S
C929 C930 1.251 . S
C930 H900 0.929 . S
C930 N926 1.418 1_565 S
C930 C929 1.251 . S
C931 H898 0.930 . S
C931 C933 1.406 . S
C931 C936 1.261 . S
C932 H899 0.930 . S
C932 N934 1.325 . S
C932 C935 1.357 . S
C933 H901 0.928 . S
C933 C931 1.406 . S
C933 N934 1.261 . S
N934 Co885 2.214 1_565 S
N934 C932 1.325 . S
N934 C933 1.261 . S
C935 H905 0.931 . S
C935 C932 1.357 . S
C935 C936 1.312 . S
C936 H907 0.930 . S
C936 C931 1.261 . S
C936 C935 1.312 . S
C937 O909 1.214 . S
C937 O917 1.234 . S
C938 H910 0.929 . S
C938 C941 1.391 . S
C938 C943 1.391 . S
C939 H911 0.929 . S
C939 C940 1.390 . S
C939 N942 1.391 . S
C940 H912 0.930 . S
C940 C939 1.390 . S
C940 C941 1.392 . S
C941 H913 0.929 . S
C941 C938 1.391 . S
C941 C940 1.392 . S
N942 Co886 2.257 . S
N942 C939 1.391 . S
N942 C943 1.388 . S
C943 H914 0.930 . S
C943 C938 1.391 . S
C943 N942 1.388 . S
C300 C5 1.747 . S
C359 C64 1.747 . S
C123 C418 1.747 . S
C182 C241 1.747 . S
C772 C477 1.747 . S
C831 C536 1.747 . S
C595 C890 1.747 . S
C654 C713 1.747 . S
C593 C3 1.710 1_556 S
C652 C62 1.710 1_556 S
C475 C121 1.710 1_556 S
C180 C534 1.710 1_554 S
C829 C239 1.710 . S
C888 C298 1.710 . S
C357 C711 1.710 . S
C770 C416 1.710 . S
C269 C33 1.120 . S
C92 C328 1.120 . S
C151 C387 1.120 . S
C446 C210 1.120 . S
C524 C760 2.433 . S
C819 C583 2.433 . S
C642 C878 2.433 . S
C937 C701 2.433 . S
C682 C800 1.120 1_545 S
C505 C859 1.120 1_655 S
C918 C564 1.120 1_545 S
C623 C741 1.120 1_455 S
C347 C229 2.433 1_545 S
C406 C52 2.433 1_655 S
C465 C111 2.433 1_565 S
C288 C170 2.433 1_455 S
