# Generated by pormake.
# Topology smm, (6)-cn, num edge types: 1
# Building blocks:
#     Node 0, Type 0, BuildingBlock: KUMBUR_clean_sbu_0, # of connection points: 6
#     Node 1, Type 0, BuildingBlock: KUMBUR_clean_sbu_0, # of connection points: 6
#     Node 2, Type 0, BuildingBlock: KUMBUR_clean_sbu_0, # of connection points: 6
#     Node 3, Type 0, BuildingBlock: KUMBUR_clean_sbu_0, # of connection points: 6
#     Node 4, Type 0, BuildingBlock: KUMBUR_clean_sbu_0, # of connection points: 6
#     Node 5, Type 0, BuildingBlock: KUMBUR_clean_sbu_0, # of connection points: 6
#     Node 6, Type 0, BuildingBlock: KUMBUR_clean_sbu_0, # of connection points: 6
#     Node 7, Type 0, BuildingBlock: KUMBUR_clean_sbu_0, # of connection points: 6
#     Node 8, Type 0, BuildingBlock: KUMBUR_clean_sbu_0, # of connection points: 6
#     Edge 9, Type (0, 0), BuildingBlock: AJUNOK_clean_linker_0, # of connection points: 2
#     Edge 10, Type (0, 0), BuildingBlock: AJUNOK_clean_linker_0, # of connection points: 2
#     Edge 11, Type (0, 0), BuildingBlock: AJUNOK_clean_linker_0, # of connection points: 2
#     Edge 12, Type (0, 0), BuildingBlock: AJUNOK_clean_linker_0, # of connection points: 2
#     Edge 13, Type (0, 0), BuildingBlock: AJUNOK_clean_linker_0, # of connection points: 2
#     Edge 14, Type (0, 0), BuildingBlock: AJUNOK_clean_linker_0, # of connection points: 2
#     Edge 15, Type (0, 0), BuildingBlock: AJUNOK_clean_linker_0, # of connection points: 2
#     Edge 16, Type (0, 0), BuildingBlock: AJUNOK_clean_linker_0, # of connection points: 2
#     Edge 17, Type (0, 0), BuildingBlock: AJUNOK_clean_linker_0, # of connection points: 2
#     Edge 18, Type (0, 0), BuildingBlock: AJUNOK_clean_linker_0, # of connection points: 2
#     Edge 19, Type (0, 0), BuildingBlock: AJUNOK_clean_linker_0, # of connection points: 2
#     Edge 20, Type (0, 0), BuildingBlock: AJUNOK_clean_linker_0, # of connection points: 2
#     Edge 21, Type (0, 0), BuildingBlock: AJUNOK_clean_linker_0, # of connection points: 2
#     Edge 22, Type (0, 0), BuildingBlock: AJUNOK_clean_linker_0, # of connection points: 2
#     Edge 23, Type (0, 0), BuildingBlock: AJUNOK_clean_linker_0, # of connection points: 2
#     Edge 24, Type (0, 0), BuildingBlock: AJUNOK_clean_linker_0, # of connection points: 2
#     Edge 25, Type (0, 0), BuildingBlock: AJUNOK_clean_linker_0, # of connection points: 2
#     Edge 26, Type (0, 0), BuildingBlock: AJUNOK_clean_linker_0, # of connection points: 2
#     Edge 27, Type (0, 0), BuildingBlock: AJUNOK_clean_linker_0, # of connection points: 2
#     Edge 28, Type (0, 0), BuildingBlock: AJUNOK_clean_linker_0, # of connection points: 2
#     Edge 29, Type (0, 0), BuildingBlock: AJUNOK_clean_linker_0, # of connection points: 2
#     Edge 30, Type (0, 0), BuildingBlock: AJUNOK_clean_linker_0, # of connection points: 2
#     Edge 31, Type (0, 0), BuildingBlock: AJUNOK_clean_linker_0, # of connection points: 2
#     Edge 32, Type (0, 0), BuildingBlock: AJUNOK_clean_linker_0, # of connection points: 2
#     Edge 33, Type (0, 0), BuildingBlock: AJUNOK_clean_linker_0, # of connection points: 2
#     Edge 34, Type (0, 0), BuildingBlock: AJUNOK_clean_linker_0, # of connection points: 2
#     Edge 35, Type (0, 0), BuildingBlock: AJUNOK_clean_linker_0, # of connection points: 2
# Relax obj value: 0.136
# Max RMSD: 0.270
# Mean RMSD: 0.209
data_MOF--net-smm--node1-KUMBUR_clean_sbu_0--edge1-AJUNOK_clean_linker_0
_symmetry_space_group_name_H-M    P1
_symmetry_Int_Tables_number       1
_symmetry_cell_setting            triclinic
loop_
_symmetry_equiv_pos_as_xyz
'x, y, z'
_cell_length_a     44.266289
_cell_length_b     58.862117
_cell_length_c     11.121512
_cell_angle_alpha  98.40498
_cell_angle_beta   98.950928
_cell_angle_gamma 123.04474
loop_
_atom_site_label
_atom_site_type_symbol
_atom_site_fract_x
_atom_site_fract_y
_atom_site_fract_z
_atom_type_partial_charge
Tb0 Tb 0.12859 0.27088 0.23209 0.0
C1 C 0.98483 0.17446 0.85792 0.0
C2 C 0.93398 0.17865 0.87145 0.0
C3 C 0.93172 0.15337 0.67242 0.0
C4 C 0.96903 0.18444 0.92728 0.0
C5 C 0.96671 0.1591 0.72947 0.0
C6 C 0.91533 0.16307 0.74344 0.0
C7 C 1.01969 0.15704 0.72433 0.0
N8 N 1.01923 0.18135 0.91588 0.0
C9 C 1.03649 0.17228 0.85267 0.0
C10 C 0.9847 0.15048 0.66235 0.0
Tb11 Tb 1.04275 0.20569 0.12534 0.0
N12 N 0.98818 0.19991 0.04992 0.0
C13 C 0.97339 0.20915 0.1245 0.0
C14 C 0.91874 0.18852 0.94675 0.0
C15 C 0.93851 0.20357 0.07419 0.0
H16 H 1.06349 0.17738 0.90098 0.0
H17 H 0.92709 0.21056 0.13555 0.0
H18 H 0.88832 0.15847 0.69852 0.0
H19 H 1.03369 0.15036 0.67326 0.0
H20 H 0.9881 0.22016 0.22364 0.0
H21 H 0.23456 0.25326 0.19338 0.0
H22 H 0.89156 0.18414 0.90767 0.0
H23 H 0.1222 0.30672 0.47502 0.0
H24 H 0.18099 0.2554 0.11538 0.0
H25 H 0.15441 0.33016 0.70262 0.0
H26 H 0.91723 0.14162 0.57354 0.0
H27 H 0.26665 0.27036 0.42347 0.0
H28 H 0.2732 0.29409 0.64391 0.0
H29 H 0.97186 0.13881 0.56293 0.0
H30 H 0.25203 0.31591 0.7825 0.0
N31 N 0.18005 0.27044 0.29884 0.0
C32 C 0.19373 0.26164 0.21593 0.0
C33 C 0.24256 0.27062 0.38959 0.0
C34 C 0.2302 0.28164 0.47341 0.0
C35 C 0.22452 0.26094 0.25982 0.0
C36 C 0.19859 0.28126 0.42405 0.0
H37 H 0.20796 0.32986 0.80488 0.0
N38 N 0.15657 0.29265 0.44699 0.0
C39 C 0.16373 0.31976 0.64713 0.0
C40 C 0.1868 0.29329 0.50128 0.0
C41 C 0.14555 0.30645 0.51754 0.0
C42 C 0.19393 0.31952 0.70457 0.0
C43 C 0.20604 0.30637 0.63122 0.0
O44 O 0.14481 0.31144 0.22882 0.0
O45 O 0.06838 0.24996 0.18957 0.0
O46 O 1.05077 0.22428 0.9656 0.0
O47 O 0.11517 0.25249 0.02713 0.0
O48 O 0.09972 0.29198 0.24537 0.0
O49 O 0.16866 0.29275 0.13722 0.0
O50 O 1.03548 0.16773 0.11899 0.0
O51 O 0.10312 0.2264 0.13792 0.0
O52 O 0.11447 0.25148 0.38814 0.0
O53 O 1.05006 0.22623 0.31925 0.0
O54 O 0.07936 0.19609 0.22429 0.0
O55 O 0.99847 0.17624 0.19102 0.0
C56 C 0.06533 0.27062 0.2081 0.0
C57 C 0.2073 0.34112 0.23156 0.0
C58 C 0.26158 0.38269 0.21103 0.0
C59 C 0.22627 0.35747 0.15549 0.0
C60 C 0.27871 0.3911 0.34189 0.0
C61 C 0.22388 0.34986 0.36291 0.0
C62 C 0.25978 0.37458 0.41767 0.0
C63 C 0.08283 0.24048 0.94014 0.0
C64 C 0.17007 0.31539 0.17204 0.0
C65 C 0.23694 0.30616 0.68263 0.0
C66 C 0.24895 0.29371 0.60378 0.0
C67 C 0.10932 0.21109 0.19285 0.0
C68 C 0.97822 0.12831 0.11094 0.0
C69 C 0.98914 0.11043 0.12692 0.0
C70 C 0.96417 0.08143 0.07149 0.0
C71 C 0.92752 0.07009 0.00028 0.0
C72 C 0.94196 0.11718 0.03776 0.0
C73 C 0.91658 0.08799 0.9831 0.0
C74 C 0.08147 0.2385 0.4116 0.0
C75 C 1.00718 0.15836 0.16662 0.0
H76 H 0.21317 0.35112 0.05434 0.0
H77 H 0.30636 0.41069 0.3853 0.0
H78 H 0.20909 0.33815 0.42373 0.0
H79 H 0.27254 0.38119 0.51887 0.0
H80 H 1.01746 0.11921 0.18273 0.0
H81 H 0.90766 0.04757 0.95708 0.0
H82 H 0.93346 0.13088 0.02237 0.0
H83 H 0.88847 0.07922 0.92676 0.0
Tb84 Tb 0.96003 0.82925 0.04424 0.0
C85 C 0.88591 0.87968 0.11431 0.0
C86 C 0.84994 0.87169 0.90458 0.0
C87 C 0.82489 0.87152 0.08235 0.0
C88 C 0.88251 0.877 0.98569 0.0
C89 C 0.85745 0.87785 0.16392 0.0
C90 C 0.82097 0.86845 0.95332 0.0
C91 C 0.89667 0.89135 0.37338 0.0
N92 N 0.91737 0.88501 0.1915 0.0
C93 C 0.92415 0.89315 0.32034 0.0
C94 C 0.86272 0.88295 0.29463 0.0
Tb95 Tb 0.96265 0.89132 0.09665 0.0
N96 N 0.91147 0.88079 0.94117 0.0
C97 C 0.91073 0.88331 0.81957 0.0
C98 C 0.84742 0.87006 0.77683 0.0
C99 C 0.8783 0.87643 0.73476 0.0
H100 H 0.95113 0.90219 0.38514 0.0
H101 H 0.87775 0.87728 0.63806 0.0
H102 H 0.79555 0.8638 0.89224 0.0
H103 H 0.90222 0.89726 0.47521 0.0
H104 H 0.93531 0.89222 0.78634 0.0
H105 H 0.09889 0.88272 0.35743 0.0
H106 H 0.82261 0.86545 0.71162 0.0
H107 H 0.91881 0.78143 0.76093 0.0
H108 H 1.03331 0.86712 0.29718 0.0
H109 H 0.93913 0.76733 0.58724 0.0
H110 H 0.80255 0.86891 0.11837 0.0
H111 H 0.12481 0.87139 0.19681 0.0
H112 H 0.11582 0.85028 0.96765 0.0
H113 H 0.84157 0.88178 0.33607 0.0
H114 H 0.07301 0.82121 0.75442 0.0
N115 N 1.02234 0.84806 0.10429 0.0
C116 C 1.0444 0.86259 0.22602 0.0
C117 C 0.09636 0.86539 0.1687 0.0
C118 C 0.0738 0.85081 0.04328 0.0
C119 C 0.08166 0.87146 0.26024 0.0
C120 C 1.03617 0.84184 0.01437 0.0
H121 H 1.00682 0.78984 0.61143 0.0
N122 N 0.9747 0.81306 0.87827 0.0
C123 C 0.95983 0.78345 0.67341 0.0
C124 C 1.01164 0.82417 0.89639 0.0
C125 C 0.94845 0.79136 0.77209 0.0
C126 C 0.99806 0.7963 0.6872 0.0
C127 C 1.02438 0.81613 0.80151 0.0
O128 O 0.91936 0.78413 -0.00212 0.0
O129 O 0.92742 0.84638 0.08261 0.0
O130 O 0.98127 0.88757 0.28331 0.0
O131 O 0.96306 0.84131 0.24348 0.0
O132 O 0.90044 0.81007 0.9413 0.0
O133 O 0.96576 0.80435 0.15707 0.0
O134 O 0.99117 0.92904 0.24303 0.0
O135 O 1.00099 0.87835 0.08203 0.0
O136 O 0.95671 0.83781 0.86138 0.0
O137 O 0.9698 0.88276 0.9075 0.0
O138 O 1.02037 0.92016 0.10565 0.0
O139 O 0.96262 0.92483 0.05513 0.0
C140 C 0.8953 0.82751 0.00202 0.0
C141 C 0.93669 0.75344 0.06603 0.0
C142 C 0.91645 0.70296 0.06583 0.0
C143 C 0.91162 0.72596 0.09125 0.0
C144 C 0.94726 0.70937 0.01971 0.0
C145 C 0.96556 0.75657 0.01705 0.0
C146 C 0.97076 0.73517 -0.00487 0.0
C147 C 0.97517 0.86557 0.32136 0.0
C148 C 0.93531 0.77973 0.09107 0.0
C149 C 1.06255 0.82692 0.82636 0.0
C150 C 0.08702 0.84368 0.94782 0.0
C151 C 1.03185 0.90443 0.09398 0.0
C152 C 1.01039 0.9709 0.1806 0.0
C153 C 0.99685 0.98662 0.1517 0.0
C154 C 1.02151 1.01575 0.17013 0.0
C155 C 1.06045 1.02873 0.21068 0.0
C156 C 1.04922 0.98401 0.22219 0.0
C157 C 0.07412 1.01281 0.23482 0.0
C158 C 0.96428 0.86066 0.83043 0.0
C159 C 0.98243 0.94122 0.16971 0.0
H160 H 0.8887 0.72251 0.12837 0.0
H161 H 0.95358 0.69402 0.00205 0.0
H162 H 0.98495 0.77613 -0.00317 0.0
H163 H 0.9938 0.73871 0.95852 0.0
H164 H 0.96678 0.97599 0.11529 0.0
H165 H 0.08031 0.05119 0.22518 0.0
H166 H 1.06031 0.97222 0.24518 0.0
H167 H 0.10408 1.02294 0.26478 0.0
Tb168 Tb 0.26708 1.02978 0.08767 0.0
C169 C 0.29155 0.12605 0.07038 0.0
C170 C 0.33038 0.15481 0.28543 0.0
C171 C 0.34788 0.17328 0.10802 0.0
C172 C 0.29843 0.12928 0.20054 0.0
C173 C 0.31573 0.1485 0.02375 0.0
C174 C 0.35544 0.17645 0.23824 0.0
C175 C 0.27386 0.12098 0.81364 0.0
N176 N 0.26123 0.10121 -0.01036 0.0
C177 C 0.25068 0.09944 0.86417 0.0
C178 C 0.30705 0.14543 0.89345 0.0
Tb179 Tb 0.22649 0.06709 0.08419 0.0
N180 N 0.27404 0.10763 0.24383 0.0
C181 C 0.27738 0.11255 0.37166 0.0
C182 C 0.33611 0.15809 0.41555 0.0
C183 C 0.30897 0.13715 0.45874 0.0
H184 H 0.22404 0.08178 0.80149 0.0
H185 H 0.31186 0.14022 0.55936 0.0
H186 H 0.3804 0.19596 0.3018 0.0
H187 H 0.26575 0.11884 0.71341 0.0
H188 H 0.25558 0.09842 0.40978 0.0
H189 H 0.14895 0.93909 0.7202 0.0
H190 H 0.36047 0.17723 0.48333 0.0
H191 H 0.31555 1.03399 0.36356 0.0
H192 H 0.20243 0.98854 0.80995 0.0
H193 H 0.30518 1.00383 0.50743 0.0
H194 H 0.36682 0.19015 0.07282 0.0
H195 H 0.13281 0.9061 0.85346 0.0
H196 H 0.14802 0.89809 0.05917 0.0
H197 H 0.32513 0.16215 0.85424 0.0
H198 H 0.18844 0.91569 0.27789 0.0
N199 N 0.21525 0.9848 -0.00421 0.0
C200 C 0.19513 0.97498 0.87101 0.0
C201 C 0.15582 0.92816 0.89398 0.0
C202 C 0.17739 0.93812 0.01999 0.0
C203 C 0.1649 0.94666 0.81876 0.0
C204 C 0.20745 0.96682 0.06875 0.0
H205 H 0.24702 0.95528 0.44628 0.0
N206 N 0.26209 1.00378 0.2278 0.0
C207 C 0.28403 0.99596 0.41865 0.0
C208 C 0.23129 0.97674 0.1894 0.0
C209 C 0.28971 1.01297 0.33703 0.0
C210 C 0.25116 0.96865 0.384 0.0
C211 C 0.22499 0.9584 0.26622 0.0
O212 O 0.31514 1.02906 0.12465 0.0
O213 O 0.28014 0.07107 0.07157 0.0
O214 O 0.2142 1.0454 0.88638 0.0
O215 O 0.26155 1.03886 0.9053 0.0
O216 O 0.31932 0.0707 0.19554 0.0
O217 O 0.27993 1.01393 0.93652 0.0
O218 O 0.18072 0.06494 0.97907 0.0
O219 O 0.2129 1.02427 0.07227 0.0
O220 O 0.26786 1.04405 0.2827 0.0
O221 O 0.2257 0.05617 0.26283 0.0
O222 O 0.1708 1.02789 0.07753 0.0
O223 O 0.21163 0.09416 0.16198 0.0
C224 C 0.31497 0.08734 0.14372 0.0
C225 C 0.31029 0.99187 0.98192 0.0
C226 C 0.3446 0.97087 0.94549 0.0
C227 C 0.34446 0.995 0.98142 0.0
C228 C 0.31063 0.94408 0.91447 0.0
C229 C 0.277 0.96455 0.94919 0.0
C230 C 0.27726 0.94094 0.91695 0.0
C231 C 0.2362 1.04065 0.83683 0.0
C232 C 0.3086 1.01669 0.00767 0.0
C233 C 0.19381 0.93013 0.22049 0.0
C234 C 0.17053 0.92005 0.09691 0.0
C235 C 0.17729 1.00884 0.07105 0.0
C236 C 0.17983 0.10618 0.00874 0.0
C237 C 0.17326 0.12524 0.07757 0.0
C238 C 0.16276 0.14098 0.01489 0.0
C239 C 0.15879 0.13618 0.88337 0.0
C240 C 0.17661 0.10402 0.87939 0.0
C241 C 0.16649 0.11878 0.81852 0.0
C242 C 0.2457 0.04932 0.32749 0.0
C243 C 0.1847 0.08535 0.06095 0.0
H244 H 0.37037 1.01592 0.00662 0.0
H245 H 0.30991 0.92541 0.88997 0.0
H246 H 0.25046 0.96127 0.9455 0.0
H247 H 0.25132 0.92002 0.89259 0.0
H248 H 0.17599 0.12734 0.17748 0.0
H249 H 0.14844 0.14516 0.82626 0.0
H250 H 0.17992 0.08959 0.82143 0.0
H251 H 0.16317 0.11588 0.71773 0.0
Tb252 Tb 0.75903 0.53251 0.0854 0.0
C253 C 0.90422 0.58921 0.23508 0.0
C254 C 0.9284 0.6065 0.06355 0.0
C255 C 0.95464 0.63878 0.27439 0.0
C256 C 0.90272 0.58454 0.109 0.0
C257 C 0.93133 0.61613 0.32071 0.0
C258 C 0.95321 0.63395 0.14568 0.0
C259 C 0.91524 0.59505 0.49154 0.0
N260 N 0.88156 0.56662 0.27521 0.0
C261 C 0.88929 0.56877 0.4023 0.0
C262 C 0.93553 0.61906 0.45043 0.0
Tb263 Tb 0.83387 0.52614 0.1176 0.0
N264 N 0.87838 0.55777 0.03364 0.0
C265 C 0.88244 0.55084 0.9173 0.0
C266 C 0.92925 0.59995 0.93861 0.0
C267 C 0.90685 0.5718 0.86623 0.0
H268 H 0.87589 0.55044 0.43696 0.0
H269 H 0.90864 0.56615 0.77183 0.0
H270 H 0.97244 0.65131 0.11186 0.0
H271 H 0.91997 0.59666 0.59186 0.0
H272 H 0.86703 0.52914 0.86351 0.0
H273 H 0.67966 0.48694 0.41029 0.0
H274 H 0.94834 0.6162 0.89946 0.0
H275 H 0.72334 0.51345 0.75833 0.0
H276 H 0.73068 0.52361 0.34668 0.0
H277 H 0.67781 0.46994 0.5921 0.0
H278 H 0.97506 0.65978 0.33814 0.0
H279 H 0.6305 0.44087 0.25537 0.0
H280 H 0.60272 0.4106 0.03089 0.0
H281 H 0.95595 0.63936 0.51955 0.0
H282 H 0.60437 0.4052 0.81007 0.0
N283 N 0.71414 0.49837 0.15784 0.0
C284 C 0.71121 0.50335 0.27829 0.0
C285 C 0.65361 0.45684 0.22666 0.0
C286 C 0.65502 0.45247 0.10135 0.0
C287 C 0.68141 0.48268 0.31467 0.0
C288 C 0.68545 0.47424 0.06846 0.0
H289 H 0.6328 0.42683 0.64565 0.0
N290 N 0.7128 0.49442 0.91215 0.0
C291 C 0.68023 0.46987 0.69024 0.0
C292 C 0.68545 0.4718 0.94256 0.0
C293 C 0.70768 0.49446 0.78683 0.0
C294 C 0.65476 0.44566 0.72086 0.0
C295 C 0.65585 0.44687 0.84777 0.0
O296 O 0.71755 0.53645 -0.00653 0.0
O297 O 0.82011 0.55785 0.1128 0.0
O298 O 0.8162 0.52273 0.28945 0.0
O299 O 0.78684 0.54519 0.28995 0.0
O300 O 0.79328 0.57719 0.09653 0.0
O301 O 0.7449 0.55511 0.19863 0.0
O302 O 0.84966 0.50672 0.2332 0.0
O303 O 0.77463 0.50399 0.11669 0.0
O304 O 0.77822 0.53745 0.91456 0.0
O305 O 0.80942 0.51615 0.91605 0.0
O306 O 0.78759 0.48232 0.00353 0.0
O307 O 0.86073 0.50761 0.05434 0.0
C308 C 0.82615 0.5826 0.11442 0.0
C309 C 0.69593 0.56022 0.11012 0.0
C310 C 0.6781 0.58292 0.25503 0.0
C311 C 0.70538 0.58006 0.22122 0.0
C312 C 0.6425 0.56828 0.16593 0.0
C313 C 0.66071 0.54617 0.0217 0.0
C314 C 0.63439 0.55072 0.04869 0.0
C315 C 0.80358 0.53535 0.34936 0.0
C316 C 0.71929 0.54999 0.10108 0.0
C317 C 0.62712 0.42446 0.88161 0.0
C318 C 0.62631 0.42747 0.00767 0.0
C319 C 0.7606 0.47928 0.04683 0.0
C320 C 0.89421 0.49704 0.20188 0.0
C321 C 0.89122 0.47122 0.17594 0.0
C322 C 0.92117 0.47009 0.23496 0.0
C323 C 0.95355 0.49504 0.31864 0.0
C324 C 0.92752 0.52145 0.28383 0.0
C325 C 0.95689 0.5204 0.34149 0.0
C326 C 0.79337 0.52647 0.85823 0.0
C327 C 0.86174 0.49801 0.15166 0.0
H328 H 0.7337 0.59222 0.28349 0.0
H329 H 0.62045 0.56966 0.1873 0.0
H330 H 0.65281 0.53063 0.93521 0.0
H331 H 0.60691 0.53945 0.9814 0.0
H332 H 0.86558 0.45214 0.11284 0.0
H333 H 0.97658 0.49499 0.36677 0.0
H334 H 0.93052 0.54126 0.3052 0.0
H335 H 0.98236 0.53935 0.40581 0.0
Tb336 Tb 0.52902 0.17668 0.09291 0.0
C337 C 0.5119 0.26898 0.31128 0.0
C338 C 0.45095 0.25303 0.1835 0.0
C339 C 0.47685 0.28465 0.39588 0.0
C340 C 0.48303 0.25286 0.20037 0.0
C341 C 0.50947 0.2854 0.40984 0.0
C342 C 0.44767 0.26855 0.28264 0.0
C343 C 0.57239 0.3031 0.52578 0.0
N344 N 0.54289 0.26915 0.32109 0.0
C345 C 0.57359 0.28666 0.42491 0.0
C346 C 0.54008 0.30233 0.51866 0.0
Tb347 Tb 0.54241 0.24202 0.14987 0.0
N348 N 0.48699 0.23785 0.10734 0.0
C349 C 0.45949 0.22246 -0.00587 0.0
C350 C 0.42344 0.23802 0.06672 0.0
C351 C 0.4275 0.22236 0.9722 0.0
H352 H 0.59884 0.28759 0.43161 0.0
H353 H 0.4059 0.21011 0.88239 0.0
H354 H 0.42291 0.26854 0.27202 0.0
H355 H 0.59643 0.31642 0.60876 0.0
H356 H 0.46145 0.20993 0.91933 0.0
H357 H 0.66022 0.20084 0.3687 0.0
H358 H 0.39864 0.23798 0.04926 0.0
H359 H 0.47734 0.13785 0.79475 0.0
H360 H 0.60241 0.1987 0.33636 0.0
H361 H 0.48639 0.11841 0.60281 0.0
H362 H 0.4742 0.29683 0.47107 0.0
H363 H 0.67497 0.18357 0.1864 0.0
H364 H 0.65604 0.16103 0.9525 0.0
H365 H 0.53924 0.31514 0.59677 0.0
H366 H 0.60904 0.13901 0.74407 0.0
N367 N 0.58439 0.18074 0.13608 0.0
C368 C 0.60818 0.1909 0.25547 0.0
C369 C 0.64941 0.1825 0.17122 0.0
C370 C 0.6242 0.17097 0.0502 0.0
C371 C 0.64112 0.19218 0.27447 0.0
C372 C 0.59117 0.16987 0.03601 0.0
H373 H 0.54671 0.12444 0.61231 0.0
N374 N 0.53229 0.15523 0.91086 0.0
C375 C 0.50844 0.129 0.6915 0.0
C376 C 0.56437 0.15682 0.91953 0.0
C377 C 0.50342 0.14004 0.80051 0.0
C378 C 0.54239 0.13228 0.69724 0.0
C379 C 0.57034 0.14545 0.81291 0.0
O380 O 0.48764 0.13326 0.04224 0.0
O381 O 0.49918 0.19549 0.13496 0.0
O382 O 0.53257 0.2298 0.32143 0.0
O383 O 0.54407 0.19546 0.29988 0.0
O384 O 0.47141 0.16002 -0.00935 0.0
O385 O 0.53111 0.15457 0.22493 0.0
O386 O 0.59414 0.28168 0.17665 0.0
O387 O 0.56919 0.22078 0.11609 0.0
O388 O 0.54354 0.19377 0.93303 0.0
O389 O 0.52133 0.22099 0.94645 0.0
O390 O 0.59872 0.25627 0.26129 0.0
O391 O 0.54673 0.2677 0.02721 0.0
C392 C 0.46553 0.17585 0.06 0.0
C393 C 0.48684 0.10315 0.16922 0.0
C394 C 0.48729 0.07457 0.30563 0.0
C395 C 0.4992 0.10108 0.28886 0.0
C396 C 0.46354 0.05038 0.20324 0.0
C397 C 0.46264 0.07858 0.06752 0.0
C398 C 0.45133 0.05237 0.0845 0.0
C399 C 0.53919 0.21312 0.3683 0.0
C400 C 0.50295 0.13075 0.14475 0.0
C401 C 0.60387 0.14752 0.82518 0.0
C402 C 0.63064 0.16009 0.9438 0.0
C403 C 0.60106 0.23756 0.19767 0.0
C404 C 0.59427 0.31841 0.10754 0.0
C405 C 0.62769 0.34086 0.0836 0.0
C406 C 0.63845 0.36944 0.11371 0.0
C407 C 0.6148 0.37428 0.16598 0.0
C408 C 0.57231 0.32513 0.1592 0.0
C409 C 0.58244 0.35262 0.18775 0.0
C410 C 0.53125 0.20696 0.8807 0.0
C411 C 0.58207 0.28817 0.08321 0.0
H412 H 0.51849 0.11991 0.36766 0.0
H413 H 0.45523 1.03016 0.21605 0.0
H414 H 0.45363 0.0797 0.97359 0.0
H415 H 0.43382 1.03371 0.00467 0.0
H416 H 0.64535 0.33626 0.04489 0.0
H417 H 0.62156 0.39528 0.19188 0.0
H418 H 0.54708 0.30898 0.17809 0.0
H419 H 0.56508 0.35729 0.22829 0.0
Tb420 Tb 1.01468 0.38411 0.29851 0.0
C421 C 0.90114 0.26584 0.14031 0.0
C422 C 0.86415 0.24255 0.92018 0.0
C423 C 0.87267 0.21603 0.05209 0.0
C424 C 0.8856 0.26678 0.02506 0.0
C425 C 0.8944 0.2403 0.15582 0.0
C426 C 0.85876 0.21738 0.93345 0.0
C427 C 0.92678 0.26366 0.37851 0.0
N428 N 0.91906 0.28903 0.24062 0.0
C429 C 0.93146 0.28815 0.35911 0.0
C430 C 0.90782 0.23953 0.27671 0.0
Tb431 Tb 0.91933 0.32624 0.20423 0.0
N432 N 0.88738 0.29031 0.0206 0.0
C433 C 0.86558 0.29007 0.91767 0.0
C434 C 0.84585 0.24359 0.80883 0.0
C435 C 0.84607 0.26736 0.8083 0.0
H436 H 0.94454 0.30603 0.43982 0.0
H437 H 0.83027 0.26785 0.72526 0.0
H438 H 0.84188 0.19839 0.85472 0.0
H439 H 0.93695 0.26324 0.47261 0.0
H440 H 0.86379 0.30766 0.91973 0.0
H441 H 0.99894 0.45177 0.62474 0.0
H442 H 0.82951 0.22553 0.72573 0.0
H443 H 1.06452 0.40168 0.08841 0.0
H444 H 0.9997 0.41095 0.54721 0.0
H445 H 0.08232 0.43479 0.95634 0.0
H446 H 0.86561 0.19588 0.06331 0.0
H447 H 1.01124 0.48549 0.49859 0.0
H448 H 1.02659 0.50018 0.30145 0.0
H449 H 0.90293 0.22026 0.29327 0.0
H450 H 1.04573 0.49375 0.1113 0.0
N451 N 1.00952 0.41989 0.37285 0.0
C452 C 1.00351 0.42465 0.48793 0.0
C453 C 1.0103 0.46702 0.4612 0.0
C454 C 1.01721 0.46244 0.34455 0.0
C455 C 1.0036 0.44811 0.53334 0.0
C456 C 1.017 0.43852 0.30301 0.0
H457 H 0.06692 0.46946 0.98142 0.0
N458 N 1.03552 0.41534 0.17717 0.0
C459 C 0.06728 0.43517 0.02368 0.0
C460 C 1.02954 0.43566 0.1992 0.0
C461 C 1.05726 0.41655 0.0989 0.0
C462 C 1.05828 0.45454 0.03746 0.0
C463 C 1.04095 0.45591 0.13056 0.0
O464 O 0.07103 0.39759 0.32091 0.0
O465 O 0.97749 0.33801 0.27002 0.0
O466 O 0.93713 0.34599 0.40736 0.0
O467 O 1.00121 0.36818 0.46283 0.0
O468 O 1.02314 0.35394 0.19966 0.0
O469 O 1.0555 0.40934 0.47649 0.0
O470 O 0.87939 0.30527 0.30338 0.0
O471 O 0.95705 0.37234 0.26934 0.0
O472 O 0.99374 0.37356 0.09292 0.0
O473 O 0.9377 0.32841 0.03092 0.0
O474 O 0.9124 0.3533 0.10777 0.0
O475 O 0.8682 0.32274 0.16396 0.0
C476 C 0.99517 0.33074 0.2102 0.0
C477 C 0.11601 0.44373 0.45937 0.0
C478 C 0.1833 0.48207 0.51209 0.0
C479 C 0.15417 0.45378 0.50455 0.0
C480 C 0.17377 0.49905 0.46761 0.0
C481 C 0.10854 0.46302 0.43377 0.0
C482 C 0.13668 0.48988 0.43218 0.0
C483 C 0.96933 0.35753 0.49283 0.0
C484 C 0.08362 0.41362 0.43567 0.0
C485 C 1.03748 0.47815 0.16371 0.0
C486 C 1.02635 0.48172 0.27194 0.0
C487 C 0.93962 0.37726 0.18475 0.0
C488 C 0.81472 0.2829 0.19566 0.0
C489 C 0.78395 0.28401 0.21012 0.0
C490 C 0.74619 0.25931 0.16152 0.0
C491 C 0.74036 0.23398 0.10067 0.0
C492 C 0.80707 0.25697 0.13521 0.0
C493 C 0.77035 0.23286 0.08787 0.0
C494 C 0.96585 0.35029 0.00593 0.0
C495 C 0.85475 0.30829 0.24291 0.0
H496 H 0.16109 0.44003 0.53403 0.0
H497 H 0.19527 0.52014 0.46719 0.0
H498 H 0.08096 0.45761 0.41725 0.0
H499 H 0.12976 0.50389 0.40648 0.0
H500 H 0.78929 0.30386 0.25679 0.0
H501 H 0.71225 0.21473 0.06263 0.0
H502 H 0.82957 0.25519 0.12545 0.0
H503 H 0.76507 0.21306 0.04104 0.0
Tb504 Tb 0.53661 0.9691 0.97196 0.0
C505 C 0.38209 0.8758 0.61815 0.0
C506 C 0.33668 0.88157 0.68454 0.0
C507 C 0.32395 0.85924 0.46379 0.0
C508 C 0.37204 0.88609 0.71166 0.0
C509 C 0.35798 0.86197 0.49321 0.0
C510 C 0.31315 0.86881 0.55962 0.0
C511 C 0.40078 0.85178 0.43865 0.0
N512 N 0.4147 0.87812 0.65128 0.0
C513 C 0.42334 0.8651 0.56426 0.0
C514 C 0.36817 0.85047 0.40252 0.0
Tb515 Tb 0.45018 0.9015 0.86037 0.0
N516 N 0.39555 0.8985 0.83125 0.0
C517 C 0.38395 0.90499 0.92974 0.0
C518 C 0.32524 0.88882 0.78452 0.0
C519 C 0.34882 0.90028 0.90798 0.0
H520 H 0.44819 0.86556 0.58888 0.0
H521 H 0.33998 0.90542 0.98677 0.0
H522 H 0.28616 0.86562 0.53679 0.0
H523 H 0.4085 0.84237 0.3699 0.0
H524 H 0.40162 0.91353 0.02609 0.0
H525 H 0.64283 0.96688 0.79749 0.0
H526 H 0.29776 0.88479 0.76745 0.0
H527 H 0.54972 1.00854 0.2527 0.0
H528 H 0.58664 0.96639 0.77826 0.0
H529 H 0.59094 1.02675 0.46947 0.0
H530 H 0.3052 0.84889 0.36824 0.0
H531 H 0.68044 0.97439 0.00767 0.0
H532 H 0.6937 0.98832 0.24469 0.0
H533 H 0.35052 0.83985 0.30544 0.0
H534 H 0.6801 1.00563 0.42937 0.0
N535 N 0.5898 0.97112 0.97514 0.0
C536 C 0.6018 0.96896 0.87072 0.0
C537 C 0.65534 0.97385 -0.00011 0.0
C538 C 0.64542 0.97951 0.10795 0.0
C539 C 0.63426 0.96969 0.8812 0.0
C540 C 0.61256 0.97864 0.09224 0.0
H541 H 0.64246 1.02089 0.51387 0.0
N542 N 0.57609 0.99088 0.17448 0.0
C543 C 0.59524 1.01604 0.39355 0.0
C544 C 0.6055 0.98898 0.1958 0.0
C545 C 0.57187 1.00563 0.27008 0.0
C546 C 0.62415 1.01255 0.41828 0.0
C547 C 0.63021 0.99957 0.31828 0.0
O548 O 0.57472 1.0133 0.01526 0.0
O549 O 0.47628 0.9464 0.90626 0.0
O550 O 0.4597 0.91968 0.70122 0.0
O551 O 0.52495 0.94883 0.76958 0.0
O552 O 0.5043 0.98268 0.04882 0.0
O553 O 0.53669 0.98904 0.82946 0.0
O554 O 0.4451 0.86436 0.86685 0.0
O555 O 0.5111 0.92428 0.94066 0.0
O556 O 0.52594 0.95165 0.13474 0.0
O557 O 0.46133 0.91811 0.06553 0.0
O558 O 0.48436 0.88827 0.79913 0.0
O559 O 0.41119 0.87436 0.94755 0.0
C560 C 0.47158 0.96263 0.97619 0.0
C561 C 0.5496 1.03366 0.90473 0.0
C562 C 0.53031 0.05747 0.78508 0.0
C563 C 0.54185 1.03954 0.79062 0.0
C564 C 0.52664 0.06956 0.89562 0.0
C565 C 0.54559 1.04583 0.01414 0.0
C566 C 0.53433 0.06378 0.00934 0.0
C567 C 0.49264 0.93385 0.6782 0.0
C568 C 0.56067 1.01416 0.90587 0.0
C569 C 0.66104 0.99798 0.33577 0.0
C570 C 0.6687 0.98802 0.23062 0.0
C571 C 0.51689 0.90813 0.87413 0.0
C572 C 0.38372 0.82712 0.83787 0.0
C573 C 0.38981 0.80641 0.81635 0.0
C574 C 0.36169 0.77963 0.73717 0.0
C575 C 0.32638 0.77297 0.67914 0.0
C576 C 0.34861 0.82101 0.77922 0.0
C577 C 0.32 0.79389 0.69972 0.0
C578 C 0.4935 0.93435 0.15638 0.0
C579 C 0.41637 0.85511 0.91171 0.0
H580 H 0.54409 1.02965 0.70555 0.0
H581 H 0.51799 0.08358 0.89408 0.0
H582 H 0.55106 1.04149 0.10324 0.0
H583 H 0.53157 0.07323 0.09413 0.0
H584 H 0.41693 0.81115 0.86268 0.0
H585 H 0.30402 0.75183 0.62039 0.0
H586 H 0.34332 0.83694 0.79404 0.0
H587 H 0.29289 0.78906 0.65486 0.0
Tb588 Tb 0.41629 0.57028 0.83211 0.0
C589 C 0.30687 0.591 0.85816 0.0
C590 C 0.26594 0.57569 0.64753 0.0
C591 C 0.24005 0.56897 0.82695 0.0
C592 C 0.30194 0.58773 0.72906 0.0
C593 C 0.27626 0.58302 0.90886 0.0
C594 C 0.23493 0.56547 0.69665 0.0
C595 C 0.32039 0.60964 0.11658 0.0
N596 N 0.3423 0.60527 0.9352 0.0
C597 C 0.34967 0.61749 0.06132 0.0
C598 C 0.28335 0.59144 0.04034 0.0
Tb599 Tb 0.38793 0.61494 0.83414 0.0
N600 N 0.33283 0.59882 0.68553 0.0
C601 C 0.32969 0.60145 0.56425 0.0
C602 C 0.26242 0.57559 0.52035 0.0
C603 C 0.29451 0.58893 0.47914 0.0
H604 H 0.37834 0.63204 0.12101 0.0
H605 H 0.2923 0.59028 0.3825 0.0
H606 H 0.20713 0.55623 0.63578 0.0
H607 H 0.32645 0.6179 0.21745 0.0
H608 H 0.35396 0.61362 0.53115 0.0
H609 H 0.55664 0.62005 0.10978 0.0
H610 H 0.23539 0.56674 0.45482 0.0
H611 H 0.36351 0.52047 0.5633 0.0
H612 H 0.49909 0.61721 0.04151 0.0
H613 H 0.37032 0.48984 0.40721 0.0
H614 H 0.21614 0.56227 0.86406 0.0
H615 H 0.56457 0.58665 0.98163 0.0
H616 H 0.54643 0.55368 0.76884 0.0
H617 H 0.26062 0.5857 0.08284 0.0
H618 H 0.49715 0.52038 0.56935 0.0
N619 N 0.47707 0.58528 0.86866 0.0
C620 C 0.50396 0.60461 0.97854 0.0
C621 C 0.5416 0.5878 0.94468 0.0
C622 C 0.516 0.57028 0.82606 0.0
C623 C 0.53652 0.60601 0.01881 0.0
C624 C 0.48313 0.56906 0.79174 0.0
H625 H 0.4311 0.49657 0.43228 0.0
N626 N 0.42127 0.54575 0.66763 0.0
C627 C 0.39425 0.50681 0.48354 0.0
C628 C 0.45457 0.54913 0.68501 0.0
C629 C 0.39063 0.52417 0.57135 0.0
C630 C 0.42874 0.5106 0.4984 0.0
C631 C 0.45915 0.5314 0.60251 0.0
O632 O 0.37953 0.5297 0.846 0.0
O633 O 0.37022 0.57341 0.76377 0.0
O634 O 0.38161 0.59519 -0.0078 0.0
O635 O 0.43471 0.59773 0.02274 0.0
O636 O 0.35638 0.53842 0.81272 0.0
O637 O 0.43382 0.55877 0.98543 0.0
O638 O 0.42482 0.65301 0.98069 0.0
O639 O 0.43691 0.61434 0.88706 0.0
O640 O 0.41871 0.57916 0.64531 0.0
O641 O 0.39212 0.60461 0.63985 0.0
O642 O 0.43939 0.64107 0.78128 0.0
O643 O 0.38151 0.6469 0.82769 0.0
C644 C 0.34262 0.55118 0.77554 0.0
C645 C 0.40112 0.50931 0.96051 0.0
C646 C 0.3654 0.46356 -0.00077 0.0
C647 C 0.36807 0.4871 0.97619 0.0
C648 C 0.39556 0.46151 -0.00357 0.0
C649 C 0.43102 0.5073 0.95666 0.0
C650 C 0.42792 0.48311 0.97322 0.0
C651 C 0.4093 0.59756 0.06961 0.0
C652 C 0.402 0.53382 0.94951 0.0
C653 C 0.49305 0.53388 0.63115 0.0
C654 C 0.52109 0.55282 0.74456 0.0
C655 C 0.4584 0.63303 0.83658 0.0
C656 C 0.43553 0.69247 0.9106 0.0
C657 C 0.41803 0.70413 0.86308 0.0
C658 C 0.43871 0.73144 0.85315 0.0
C659 C 0.478 0.74693 0.88188 0.0
C660 C 0.47483 0.70779 0.94236 0.0
C661 C 0.496 0.73491 0.92583 0.0
C662 C 0.4057 0.59159 0.58626 0.0
C663 C 0.41052 0.66458 0.92636 0.0
H664 H 0.34448 0.48849 0.97173 0.0
H665 H 0.39454 0.44358 0.01483 0.0
H666 H 0.45643 0.52423 0.94154 0.0
H667 H 0.45093 0.48136 0.97096 0.0
H668 H 0.38753 0.692 0.83687 0.0
H669 H 0.49452 0.76826 0.87354 0.0
H670 H 0.48894 0.69904 0.97971 0.0
H671 H 0.52631 0.74677 0.94953 0.0
Tb672 Tb 0.68075 0.73522 0.95474 0.0
C673 C 0.72896 0.85362 0.04093 0.0
C674 C 0.76352 0.87249 0.26339 0.0
C675 C 0.77469 0.90433 0.1325 0.0
C676 C 0.73587 0.84925 0.1578 0.0
C677 C 0.7485 0.8812 0.02676 0.0
C678 C 0.78201 0.90001 0.25079 0.0
C679 C 0.71342 0.86131 0.80584 0.0
N680 N 0.70324 0.83087 0.94078 0.0
C681 C 0.69417 0.83459 0.82558 0.0
C682 C 0.74092 0.88477 0.90685 0.0
Tb683 Tb 0.66738 0.78882 0.98522 0.0
N684 N 0.71819 0.82223 0.165 0.0
C685 C 0.73318 0.81764 0.26939 0.0
C686 C 0.77417 0.86736 0.37533 0.0
C687 C 0.76007 0.8398 0.37636 0.0
H688 H 0.67067 0.81717 0.7499 0.0
H689 H 0.77036 0.83555 0.45882 0.0
H690 H 0.80328 0.91799 0.33064 0.0
H691 H 0.70612 0.86386 0.71371 0.0
H692 H 0.72532 0.79707 0.27338 0.0
H693 H 0.57146 0.63586 0.61702 0.0
H694 H 0.79549 0.88456 0.45781 0.0
H695 H 0.72697 0.75179 0.26467 0.0
H696 H 0.60799 0.68693 0.70523 0.0
H697 H 0.73491 0.72622 0.40579 0.0
H698 H 0.78987 0.92563 0.12338 0.0
H699 H 0.58207 0.60766 0.73792 0.0
H700 H 0.61882 0.60682 0.93162 0.0
H701 H 0.75548 0.90557 0.89199 0.0
H702 H 0.6592 0.6304 0.15027 0.0
N703 N 0.63454 0.68785 0.88428 0.0
C704 C 0.61053 0.6749 0.7643 0.0
C705 C 0.59617 0.62995 0.78104 0.0
C706 C 0.62084 0.64319 0.90349 0.0
C707 C 0.59023 0.64579 0.71238 0.0
C708 C 0.63877 0.67232 0.95474 0.0
H709 H 0.69997 0.67437 0.33263 0.0
N710 N 0.68401 0.71466 0.1136 0.0
C711 C 0.71494 0.71466 0.31259 0.0
C712 C 0.66373 0.6861 0.07463 0.0
C713 C 0.7102 0.72909 0.23099 0.0
C714 C 0.69499 0.68541 0.27139 0.0
C715 C 0.6698 0.67087 0.14997 0.0
O716 O 0.73236 0.7405 0.97057 0.0
O717 O 0.70939 0.78005 0.95543 0.0
O718 O 0.67446 0.7802 0.79617 0.0
O719 O 0.65808 0.73476 0.76311 0.0
O720 O 0.73142 0.77068 0.09355 0.0
O721 O 0.68789 0.71541 0.79859 0.0
O722 O 0.62054 0.78258 0.86543 0.0
O723 O 0.63942 0.74363 0.91594 0.0
O724 O 0.65798 0.73398 0.11784 0.0
O725 O 0.66307 0.77644 0.16137 0.0
O726 O 0.61208 0.75613 0.00597 0.0
O727 O 0.65051 0.81628 0.03634 0.0
C728 C 0.74042 0.79016 0.03872 0.0
C729 C 0.72385 0.69908 0.86427 0.0
C730 C 0.71238 0.65548 0.7476 0.0
C731 C 0.71534 0.68058 0.7496 0.0
C732 C 0.71752 0.64907 0.8629 0.0
C733 C 0.73242 0.69355 0.97874 0.0
C734 C 0.72863 0.66844 0.97769 0.0
C735 C 0.66413 0.75618 0.71969 0.0
C736 C 0.72031 0.72246 0.86235 0.0
C737 C 0.65289 0.64207 0.09789 0.0
C738 C 0.62966 0.62858 0.97337 0.0
C739 C 0.60865 0.73416 0.94476 0.0
C740 C 0.61057 0.81886 0.86437 0.0
C741 C 0.60259 0.83793 0.92202 0.0
C742 C 0.58667 0.84865 0.84521 0.0
C743 C 0.57792 0.83887 0.71265 0.0
C744 C 0.60188 0.81097 0.73126 0.0
C745 C 0.58586 0.82079 0.65727 0.0
C746 C 0.65849 0.754 0.19308 0.0
C747 C 0.62212 0.80328 0.93469 0.0
H748 H 0.71061 0.68573 0.66206 0.0
H749 H 0.71289 0.62911 0.86512 0.0
H750 H 0.74054 0.70802 0.06917 0.0
H751 H 0.73345 0.66367 0.0661 0.0
H752 H 0.60845 0.84412 0.02404 0.0
H753 H 0.56442 0.84517 0.64957 0.0
H754 H 0.60613 0.79613 0.68189 0.0
H755 H 0.57885 0.81386 0.55503 0.0
C756 C 0.2922 0.39323 0.03914 0.0
C757 C 0.28006 0.40134 0.13472 0.0
C758 C 0.31792 0.41338 -0.01162 0.0
C759 C 0.33231 0.44203 0.03342 0.0
H760 H 0.28371 0.37171 0.00971 0.0
H761 H 0.32808 0.40674 0.91836 0.0
S762 S 0.29939 0.47081 0.25967 0.0
N763 N 0.27618 0.43709 0.25203 0.0
N764 N 0.32644 0.47602 0.16455 0.0
C765 C 0.31657 0.44945 0.11927 0.0
C766 C 0.28986 0.42871 0.16805 0.0
C767 C 0.82615 0.81039 0.90017 0.0
C768 C 0.85558 0.81865 0.00879 0.0
C769 C 0.78967 0.80295 0.90727 0.0
C770 C 0.7804 0.8033 0.02389 0.0
H771 H 0.83154 0.81008 0.80848 0.0
H772 H 0.7685 0.79636 0.82055 0.0
S773 S 0.84201 0.81459 0.32804 0.0
N774 N 0.86792 0.81964 0.22915 0.0
N775 N 0.8028 0.80849 0.24606 0.0
C776 C 0.80895 0.80994 0.13051 0.0
C777 C 0.84517 0.81661 0.12222 0.0
C778 C 0.40332 0.97803 0.06423 0.0
C779 C 0.37957 0.97239 0.94784 0.0
C780 C 0.43323 0.97543 0.07035 0.0
C781 C 0.4395 0.96532 0.96088 0.0
H782 H 0.3983 0.98404 0.15173 0.0
H783 H 0.45113 0.9809 0.16251 0.0
S784 S 0.38687 0.94957 0.63081 0.0
N785 N 0.36564 0.95798 0.7187 0.0
N786 N 0.42133 0.95237 0.73073 0.0
C787 C 0.4167 0.96047 0.84305 0.0
C788 C 0.3866 0.96377 0.83662 0.0
C789 C 0.39238 0.13969 -0.01061 0.0
C790 C 0.42651 0.15831 0.09072 0.0
C791 C 0.35669 0.11815 0.005 0.0
C792 C 0.35169 0.1133 0.12432 0.0
H793 H 0.39355 0.14097 0.8939 0.0
H794 H 0.33299 0.10453 0.9212 0.0
S795 S 0.43091 0.15369 0.42278 0.0
N796 N 0.45131 0.16818 0.31638 0.0
N797 N 0.38619 0.12921 0.34609 0.0
C798 C 0.38552 0.13167 0.22637 0.0
C799 C 0.42184 0.15356 0.21023 0.0
C800 C 1.00089 0.29289 0.09448 0.0
C801 C 0.99963 0.30648 0.2084 0.0
C802 C 1.01742 0.27765 0.09201 0.0
C803 C 1.03376 0.27473 0.2035 0.0
H804 H 0.99153 0.29591 0.00614 0.0
H805 H 1.0202 0.27011 0.00241 0.0
S806 S 1.03971 0.30667 0.52851 0.0
N807 N 1.01787 0.31612 0.43689 0.0
N808 N 1.04716 0.28723 0.43216 0.0
C809 C 1.03135 0.28727 0.31738 0.0
C810 C 1.01492 0.30304 0.32006 0.0
C811 C 0.88538 0.66523 0.19545 0.0
C812 C 0.89204 0.67188 0.08004 0.0
C813 C 0.86834 0.637 0.20978 0.0
C814 C 0.85768 0.61302 0.1123 0.0
H815 H 0.89346 0.68203 0.27651 0.0
H816 H 0.8622 0.63371 0.29876 0.0
S817 S 0.86564 0.6173 0.78692 0.0
N818 N 0.88364 0.65017 0.86292 0.0
N819 N 0.85319 0.59905 0.89136 0.0
C820 C 0.86376 0.61947 -0.00338 0.0
C821 C 0.88053 0.64794 0.98092 0.0
C822 C 0.28938 0.52887 0.57774 0.0
C823 C 0.30206 0.53514 0.70979 0.0
C824 C 0.2509 0.50987 0.51234 0.0
C825 C 0.2237 0.49613 0.57668 0.0
H826 H 0.30934 0.53868 0.52502 0.0
H827 H 0.24219 0.50647 0.411 0.0
S828 S 0.24254 0.50606 0.92349 0.0
N829 N 0.28453 0.52623 0.90255 0.0
N830 N 0.21233 0.491 0.7808 0.0
C831 C 0.23616 0.50207 0.70868 0.0
C832 C 0.27527 0.52138 0.7748 0.0
C833 C 0.67781 0.63207 0.51713 0.0
C834 C 0.70338 0.63607 0.6249 0.0
C835 C 0.66988 0.61491 0.39928 0.0
C836 C 0.68641 0.60035 0.38368 0.0
H837 H 0.66358 0.64225 0.52322 0.0
H838 H 0.65059 0.61326 0.32017 0.0
S839 S 0.75281 0.60148 0.64036 0.0
N840 N 0.74531 0.62399 0.70949 0.0
N841 N 0.7266 0.58872 0.49215 0.0
C842 C 0.71072 0.60305 0.49268 0.0
C843 C 0.72005 0.62156 0.61193 0.0
C844 C 0.47598 0.06369 0.50811 0.0
C845 C 0.49972 0.07163 0.42914 0.0
C846 C 0.48636 0.05948 0.62377 0.0
C847 C 0.52059 0.06267 0.66319 0.0
H848 H 0.44925 0.06076 0.48015 0.0
H849 H 0.46719 0.05328 0.68192 0.0
S850 S 0.59202 0.0827 0.48672 0.0
N851 N 0.55834 0.08217 0.3951 0.0
N852 N 0.57814 0.07422 0.61279 0.0
C853 C 0.54439 0.07037 0.58368 0.0
C854 C 0.53386 0.07483 0.46636 0.0
C855 C 0.15604 0.18215 0.01599 0.0
C856 C 0.15398 0.16153 0.07543 0.0
C857 C 0.14198 0.19798 0.05193 0.0
C858 C 0.1284 0.19675 0.15862 0.0
H859 H 0.16795 0.18602 0.9373 0.0
H860 H 0.14111 0.21084 -0.00683 0.0
S861 S 0.11912 0.14904 0.35951 0.0
N862 N 0.13635 0.14174 0.25066 0.0
N863 N 0.11536 0.17411 0.32845 0.0
C864 C 0.12833 0.17778 0.22484 0.0
C865 C 0.14025 0.16009 0.18279 0.0
C866 C 1.02295 0.05294 0.08134 0.0
C867 C 1.00635 1.0323 0.14602 0.0
C868 C 1.00871 0.06844 0.05546 0.0
C869 C 0.977 0.06348 0.09141 0.0
H870 H 1.04691 0.057 0.04946 0.0
H871 H 1.02258 0.08442 0.00695 0.0
S872 S 0.92523 1.01399 0.2727 0.0
N873 N 0.95801 1.00941 0.25385 0.0
N874 N 0.93083 1.03811 0.20086 0.0
C875 C 0.96036 1.04327 0.157 0.0
C876 C 0.9751 1.02775 0.18525 0.0
C877 C 0.07744 0.93362 0.96847 0.0
C878 C 0.07268 0.92151 0.07325 0.0
C879 C 0.11141 0.95956 0.96592 0.0
C880 C 0.14523 0.97698 0.06832 0.0
H881 H 1.0528 0.92443 0.88976 0.0
H882 H 0.11021 0.96699 0.88301 0.0
S883 S 0.14963 0.96008 0.3788 0.0
N884 N 0.10688 0.93343 0.29159 0.0
N885 N 0.16912 0.98015 0.28594 0.0
C886 C 0.14123 0.96577 0.17539 0.0
C887 C 0.10625 0.93921 0.17794 0.0
C888 C 0.91858 0.43044 0.31044 0.0
C889 C 0.92044 0.44377 0.21303 0.0
C890 C 0.92496 0.40917 0.30218 0.0
C891 C 0.93493 0.40099 0.19825 0.0
H892 H 0.91297 0.43699 0.39532 0.0
H893 H 0.92258 0.39934 0.37859 0.0
S894 S 0.94211 0.42818 0.91556 0.0
N895 N 0.93141 0.446 0.00675 0.0
N896 N 0.94391 0.40677 -0.00758 0.0
C897 C 0.93552 0.4134 0.09855 0.0
C898 C 0.92855 0.43472 0.10611 0.0
C899 C 0.70935 0.42537 0.96605 0.0
C900 C 0.73142 0.45064 0.06752 0.0
C901 C 0.68113 0.39868 0.98096 0.0
C902 C 0.674 0.39551 0.09939 0.0
H903 H 0.71286 0.42642 0.87236 0.0
H904 H 0.66366 0.38071 0.89779 0.0
S905 S 0.72659 0.45323 0.39996 0.0
N906 N 0.74537 0.46905 0.29391 0.0
N907 N 0.69442 0.41983 0.32199 0.0
C908 C 0.6976 0.42014 0.20258 0.0
C909 C 0.72564 0.44722 0.18708 0.0
C910 C 0.67034 0.2591 0.29289 0.0
C911 C 0.63888 0.24498 0.18433 0.0
C912 C 0.70582 0.26545 0.2857 0.0
C913 C 0.71172 0.25843 0.16902 0.0
H914 H 0.6671 0.26433 0.38529 0.0
H915 H 0.72823 0.27476 0.37263 0.0
S916 S 0.64187 0.22682 0.85401 0.0
N917 N 0.61875 0.22826 0.9545 0.0
N918 N 0.68443 0.23994 0.94135 0.0
C919 C 0.6814 0.24623 0.05943 0.0
C920 C 0.64541 0.23965 0.06674 0.0
C921 C 0.58578 0.8906 0.82686 0.0
C922 C 0.57825 0.86988 0.89169 0.0
C923 C 0.56779 0.9043 0.82912 0.0
C924 C 0.54484 0.90126 0.90865 0.0
H925 H 0.60279 0.89413 0.76196 0.0
H926 H 0.56948 0.91552 0.75887 0.0
S927 S 0.51671 0.85105 0.10574 0.0
N928 N 0.54499 0.84699 0.03915 0.0
N929 N 0.51557 0.87582 0.05655 0.0
C930 C 0.53921 0.88231 0.98253 0.0
C931 C 0.55541 0.86648 0.97316 0.0
C932 C 0.41932 0.75287 0.71079 0.0
C933 C 0.41752 0.74291 0.81819 0.0
C934 C 0.39609 0.76109 0.67035 0.0
C935 C 0.37021 0.75904 0.73531 0.0
H936 H 0.43899 0.75462 0.65915 0.0
H937 H 0.40032 0.77109 0.59417 0.0
S938 S 0.35496 0.73429 0.02162 0.0
N939 N 0.38823 0.7316 -0.01063 0.0
N940 N 0.3437 0.74608 0.90946 0.0
C941 C 0.36701 0.74783 0.83885 0.0
C942 C 0.39122 0.74031 0.88226 0.0
C943 C 0.55374 0.68629 0.80256 0.0
C944 C 0.57488 0.7045 0.92549 0.0
C945 C 0.51821 0.66059 0.77881 0.0
C946 C 0.50046 0.65262 0.87486 0.0
H947 H 0.56337 0.69284 0.72219 0.0
H948 H 0.5032 0.64789 0.68207 0.0
S949 S 0.54012 0.69504 0.21078 0.0
N950 N 0.57314 0.71365 0.14365 0.0
N951 N 0.50605 0.66624 0.09788 0.0
C952 C 0.52096 0.67063 -0.00143 0.0
C953 C 0.5577 0.69653 0.02345 0.0
C954 C 0.1134 0.24688 0.76363 0.0
C955 C 0.08207 0.24071 0.80578 0.0
C956 C 0.11261 0.24572 0.63613 0.0
C957 C 0.08068 0.23877 0.54521 0.0
H958 H 0.13858 0.2521 0.82896 0.0
H959 H 0.13723 0.25003 0.60865 0.0
S960 S 0.99199 0.22252 0.60759 0.0
N961 N 1.01859 0.22849 0.74668 0.0
N962 N 1.01727 0.2264 0.50765 0.0
C963 C 1.0493 0.23286 0.58617 0.0
C964 C 1.05001 0.23391 0.71612 0.0
C965 C 0.9381 0.85551 0.60685 0.0
C966 C 0.96828 0.86201 0.70266 0.0
C967 C 0.9418 0.85795 0.48631 0.0
C968 C 0.97505 0.86612 0.45475 0.0
H969 H 0.91135 0.84837 0.62457 0.0
H970 H 0.91838 0.85349 0.4172 0.0
S971 S 1.06151 0.88305 0.67104 0.0
N972 N 1.03206 0.87517 0.75848 0.0
N973 N 1.03887 0.87998 0.53002 0.0
C974 C 1.00535 0.87205 0.54929 0.0
C975 C 1.00179 0.86971 0.67341 0.0
C976 C 0.26932 0.04827 0.66849 0.0
C977 C 0.23661 1.04104 0.70398 0.0
C978 C 0.27216 0.05114 0.54723 0.0
C979 C 0.24246 0.04694 0.45637 0.0
H980 H 0.29347 0.05246 0.73578 0.0
H981 H 0.29817 0.05726 0.52563 0.0
S982 S 0.14992 1.02615 0.49884 0.0
N983 N 0.17319 1.02829 0.63613 0.0
N984 N 0.17879 1.03453 0.40912 0.0
C985 C 0.20948 1.03957 0.49018 0.0
C986 C 0.20641 1.03624 0.61332 0.0
C987 C 0.79248 0.5487 0.5544 0.0
C988 C 0.80309 0.53406 0.48165 0.0
C989 C 0.7883 0.54547 0.67436 0.0
C990 C 0.79456 0.52748 0.72651 0.0
H991 H 0.78722 0.56273 0.51848 0.0
H992 H 0.78058 0.55755 0.72719 0.0
S993 S 0.82117 0.48315 0.5729 0.0
N994 N 0.82082 0.50123 0.47339 0.0
N995 N 0.80852 0.49282 0.6908 0.0
C996 C 0.80423 0.51215 0.65352 0.0
C997 C 0.8101 0.51632 0.53405 0.0
C998 C 0.5523 0.2002 0.5643 0.0
C999 C 0.53718 0.21207 0.49908 0.0
C1000 C 0.54963 0.19825 0.68652 0.0
C1001 C 0.53191 0.20812 0.74887 0.0
H1002 H 0.56646 0.19244 0.52113 0.0
H1003 H 0.56195 0.18911 0.73253 0.0
S1004 S 0.48361 0.23788 0.61313 0.0
N1005 N 0.50086 0.23166 0.50177 0.0
N1006 N 0.49652 0.22834 0.73181 0.0
C1007 C 0.5159 0.21945 0.68353 0.0
C1008 C 0.51849 0.22142 0.55888 0.0
C1009 C 0.99754 0.35801 0.70818 0.0
C1010 C 0.9686 0.35642 0.6248 0.0
C1011 C 0.99591 0.35517 0.83067 0.0
C1012 C 0.96519 0.35037 0.8733 0.0
H1013 H 1.02136 0.3611 0.67828 0.0
H1014 H 1.01882 0.35671 0.89251 0.0
S1015 S 0.88466 0.34803 0.69895 0.0
N1016 N 0.90984 0.35207 0.59851 0.0
N1017 N 0.90716 0.3468 0.82802 0.0
C1018 C 0.93667 0.34945 0.79253 0.0
C1019 C 0.93829 0.35247 0.6684 0.0
C1020 C 0.49869 0.91615 0.47024 0.0
C1021 C 0.49339 0.93428 0.5463 0.0
C1022 C 0.49835 0.91601 0.34313 0.0
C1023 C 0.49319 0.93427 0.28924 0.0
H1024 H 0.50282 0.90186 0.50888 0.0
H1025 H 0.50224 0.90165 0.28689 0.0
S1026 S 0.48011 0.98663 0.45145 0.0
N1027 N 0.48324 0.97096 0.55955 0.0
N1028 N 0.48454 0.97171 0.32403 0.0
C1029 C 0.48865 0.95277 0.36559 0.0
C1030 C 0.48824 0.95252 0.49346 0.0
C1031 C 0.43872 0.61714 0.30522 0.0
C1032 C 0.40878 0.59561 0.20058 0.0
C1033 C 0.43757 0.61568 0.42996 0.0
C1034 C 0.40735 0.59213 0.45422 0.0
H1035 H 0.46256 0.6356 0.29072 0.0
H1036 H 0.46006 0.6334 0.5074 0.0
S1037 S 0.32105 0.53168 0.21226 0.0
N1038 N 0.34722 0.55125 0.12904 0.0
N1039 N 0.34596 0.54775 0.36233 0.0
C1040 C 0.37735 0.57065 0.35001 0.0
C1041 C 0.37795 0.57256 0.22356 0.0
C1042 C 0.67238 0.77809 0.5419 0.0
C1043 C 0.66005 0.75376 0.58264 0.0
C1044 C 0.66918 0.77727 0.41491 0.0
C1045 C 0.6556 0.75239 0.32258 0.0
H1046 H 0.68577 0.79838 0.60834 0.0
H1047 H 0.67892 0.79684 0.39072 0.0
S1048 S 0.61734 0.68193 0.37535 0.0
N1049 N 0.63121 0.7032 0.51751 0.0
N1050 N 0.62718 0.70204 0.27802 0.0
C1051 C 0.64259 0.72758 0.36031 0.0
C1052 C 0.64465 0.72821 0.49041 0.0
loop_
_geom_bond_atom_site_label_1
_geom_bond_atom_site_label_2
_geom_bond_distance
_geom_bond_site_symmetry_2
_ccdc_geom_bond_type
Tb0 N31 2.660 . S
Tb0 N38 2.600 . S
Tb0 O44 2.546 . S
Tb0 O45 2.610 . S
Tb0 O47 2.320 . S
Tb0 O48 2.552 . S
Tb0 O49 2.413 . S
Tb0 O51 2.362 . S
Tb0 O52 2.421 . S
Tb0 C64 2.833 . S
C1 C4 1.432 . S
C1 C5 1.414 1_554 S
C1 N8 1.359 1_554 S
C2 C4 1.417 . S
C2 C6 1.432 . S
C2 C14 1.410 . S
C3 C5 1.444 . S
C3 C6 1.317 1_556 S
C3 H26 0.929 . S
C4 C1 1.432 . S
C4 C2 1.417 . S
C4 N12 1.360 . S
C5 C1 1.414 1_556 S
C5 C3 1.444 . S
C5 C10 1.385 . S
C6 C2 1.432 . S
C6 C3 1.317 1_554 S
C6 H18 0.930 . S
C7 C9 1.392 . S
C7 C10 1.370 . S
C7 H19 0.931 . S
N8 C1 1.359 1_556 S
N8 C9 1.327 . S
N8 Tb11 2.600 1_556 S
C9 C7 1.392 . S
C9 N8 1.327 . S
C9 H16 0.930 . S
C10 C5 1.385 . S
C10 C7 1.370 . S
C10 H29 0.930 . S
Tb11 N8 2.600 1_554 S
Tb11 N12 2.660 . S
Tb11 O45 2.362 1_655 S
Tb11 O46 2.421 1_654 S
Tb11 O50 2.546 . S
Tb11 O51 2.610 1_655 S
Tb11 O53 2.320 1_655 S
Tb11 O54 2.552 1_655 S
Tb11 O55 2.413 . S
Tb11 C75 2.833 . S
N12 C4 1.360 . S
N12 Tb11 2.660 . S
N12 C13 1.305 . S
C13 N12 1.305 . S
C13 C15 1.407 . S
C13 H20 0.930 . S
C14 C2 1.410 . S
C14 C15 1.345 . S
C14 H22 0.930 . S
C15 C13 1.407 . S
C15 C14 1.345 . S
C15 H17 0.930 . S
H16 C9 0.930 . S
H17 C15 0.930 . S
H18 C6 0.930 . S
H19 C7 0.931 . S
H20 C13 0.930 . S
H21 C35 0.930 1_556 S
H22 C14 0.930 . S
H23 C41 0.930 . S
H24 C32 0.930 . S
H25 C39 0.931 . S
H26 C3 0.929 . S
H27 C33 0.930 . S
H28 C66 0.930 . S
H29 C10 0.930 . S
H30 C65 0.929 . S
N31 Tb0 2.660 . S
N31 C32 1.305 . S
N31 C36 1.360 . S
C32 H24 0.930 . S
C32 N31 1.305 . S
C32 C35 1.407 . S
C33 H27 0.930 . S
C33 C34 1.410 . S
C33 C35 1.345 . S
C34 C33 1.410 . S
C34 C36 1.417 . S
C34 C66 1.432 . S
C35 H21 0.930 1_554 S
C35 C32 1.407 . S
C35 C33 1.345 . S
C36 N31 1.360 . S
C36 C34 1.417 . S
C36 C40 1.432 . S
H37 C42 0.930 . S
N38 Tb0 2.600 . S
N38 C40 1.359 . S
N38 C41 1.327 . S
C39 H25 0.931 . S
C39 C41 1.392 . S
C39 C42 1.370 . S
C40 C36 1.432 . S
C40 N38 1.359 . S
C40 C43 1.414 . S
C41 H23 0.930 . S
C41 N38 1.327 . S
C41 C39 1.392 . S
C42 H37 0.930 . S
C42 C39 1.370 . S
C42 C43 1.385 . S
C43 C40 1.414 . S
C43 C42 1.385 . S
C43 C65 1.444 . S
O44 Tb0 2.546 . S
O44 C64 1.251 . S
O45 Tb0 2.610 . S
O45 Tb11 2.362 1_455 S
O45 C56 1.283 . S
O46 Tb11 2.421 1_456 S
O46 C63 1.262 . S
O47 Tb0 2.320 . S
O47 C63 1.260 1_554 S
O48 Tb0 2.552 . S
O48 C56 1.243 . S
O49 Tb0 2.413 . S
O49 C64 1.256 . S
O50 Tb11 2.546 . S
O50 C75 1.251 . S
O51 Tb0 2.362 . S
O51 Tb11 2.610 1_455 S
O51 C67 1.283 . S
O52 Tb0 2.421 . S
O52 C74 1.262 . S
O53 Tb11 2.320 1_455 S
O53 C74 1.260 . S
O54 Tb11 2.552 1_455 S
O54 C67 1.243 . S
O55 Tb11 2.413 . S
O55 C75 1.256 . S
C56 O45 1.283 . S
C56 O48 1.243 . S
C57 C59 1.382 . S
C57 C61 1.393 . S
C57 C64 1.500 . S
C58 C59 1.400 . S
C58 C60 1.384 . S
C59 C57 1.382 . S
C59 C58 1.400 . S
C59 H76 0.930 . S
C60 C58 1.384 . S
C60 C62 1.392 . S
C60 H77 0.931 . S
C61 C57 1.393 . S
C61 C62 1.401 . S
C61 H78 0.930 . S
C62 C60 1.392 . S
C62 C61 1.401 . S
C62 H79 0.930 . S
C63 O46 1.262 . S
C63 O47 1.260 1_556 S
C64 Tb0 2.833 . S
C64 O44 1.251 . S
C64 O49 1.256 . S
C64 C57 1.500 . S
C65 H30 0.929 . S
C65 C43 1.444 . S
C65 C66 1.317 . S
C66 H28 0.930 . S
C66 C34 1.432 . S
C66 C65 1.317 . S
C67 O51 1.283 . S
C67 O54 1.243 . S
C68 C69 1.382 . S
C68 C72 1.393 1_554 S
C68 C75 1.500 . S
C69 C68 1.382 . S
C69 C70 1.400 . S
C69 H80 0.930 . S
C70 C69 1.400 . S
C70 C71 1.384 . S
C71 C70 1.384 . S
C71 C73 1.392 1_554 S
C71 H81 0.931 1_545 S
C72 C68 1.393 1_556 S
C72 C73 1.401 . S
C72 H82 0.930 . S
C73 C71 1.392 1_556 S
C73 C72 1.401 . S
C73 H83 0.930 . S
C74 O52 1.262 . S
C74 O53 1.260 . S
C75 Tb11 2.833 . S
C75 O50 1.251 . S
C75 O55 1.256 . S
C75 C68 1.500 . S
H76 C59 0.930 . S
H77 C60 0.931 . S
H78 C61 0.930 . S
H79 C62 0.930 . S
H80 C69 0.930 . S
H81 C71 0.931 1_565 S
H82 C72 0.930 . S
H83 C73 0.930 . S
Tb84 N115 2.660 . S
Tb84 N122 2.600 . S
Tb84 O128 2.546 . S
Tb84 O129 2.610 . S
Tb84 O131 2.320 . S
Tb84 O132 2.552 . S
Tb84 O133 2.413 . S
Tb84 O135 2.362 . S
Tb84 O136 2.421 1_554 S
Tb84 C148 2.833 . S
C85 C88 1.432 . S
C85 C89 1.414 . S
C85 N92 1.359 . S
C86 C88 1.417 . S
C86 C90 1.432 . S
C86 C98 1.410 1_554 S
C87 C89 1.444 . S
C87 C90 1.317 . S
C87 H110 0.929 . S
C88 C85 1.432 . S
C88 C86 1.417 . S
C88 N96 1.360 . S
C89 C85 1.414 . S
C89 C87 1.444 . S
C89 C94 1.385 . S
C90 C86 1.432 . S
C90 C87 1.317 . S
C90 H102 0.930 . S
C91 C93 1.392 . S
C91 C94 1.370 . S
C91 H103 0.931 . S
N92 C85 1.359 . S
N92 C93 1.327 . S
N92 Tb95 2.600 . S
C93 C91 1.392 . S
C93 N92 1.327 . S
C93 H100 0.930 . S
C94 C89 1.385 . S
C94 C91 1.370 . S
C94 H113 0.930 . S
Tb95 N92 2.600 . S
Tb95 N96 2.660 . S
Tb95 O129 2.362 . S
Tb95 O130 2.421 . S
Tb95 O134 2.546 . S
Tb95 O135 2.610 . S
Tb95 O137 2.320 . S
Tb95 O138 2.552 . S
Tb95 O139 2.413 . S
Tb95 C159 2.833 . S
N96 C88 1.360 . S
N96 Tb95 2.660 . S
N96 C97 1.305 1_554 S
C97 N96 1.305 1_556 S
C97 C99 1.407 . S
C97 H104 0.930 . S
C98 C86 1.410 1_556 S
C98 C99 1.345 . S
C98 H106 0.930 . S
C99 C97 1.407 . S
C99 C98 1.345 . S
C99 H101 0.930 . S
H100 C93 0.930 . S
H101 C99 0.930 . S
H102 C90 0.930 . S
H103 C91 0.931 . S
H104 C97 0.930 . S
H105 C119 0.930 . S
H106 C98 0.930 . S
H107 C125 0.930 . S
H108 C116 0.930 . S
H109 C123 0.931 . S
H110 C87 0.929 . S
H111 C117 0.930 . S
H112 C150 0.930 . S
H113 C94 0.930 . S
H114 C149 0.929 . S
N115 Tb84 2.660 . S
N115 C116 1.305 . S
N115 C120 1.360 . S
C116 H108 0.930 . S
C116 N115 1.305 . S
C116 C119 1.407 1_655 S
C117 H111 0.930 . S
C117 C118 1.410 . S
C117 C119 1.345 . S
C118 C117 1.410 . S
C118 C120 1.417 1_455 S
C118 C150 1.432 . S
C119 H105 0.930 . S
C119 C116 1.407 1_455 S
C119 C117 1.345 . S
C120 N115 1.360 . S
C120 C118 1.417 1_655 S
C120 C124 1.432 . S
H121 C126 0.930 . S
N122 Tb84 2.600 . S
N122 C124 1.359 . S
N122 C125 1.327 1_554 S
C123 H109 0.931 . S
C123 C125 1.392 . S
C123 C126 1.370 . S
C124 C120 1.432 . S
C124 N122 1.359 . S
C124 C127 1.414 1_554 S
C125 H107 0.930 . S
C125 N122 1.327 1_556 S
C125 C123 1.392 . S
C126 H121 0.930 . S
C126 C123 1.370 . S
C126 C127 1.385 . S
C127 C124 1.414 1_556 S
C127 C126 1.385 . S
C127 C149 1.444 1_656 S
O128 Tb84 2.546 . S
O128 C148 1.251 . S
O129 Tb84 2.610 . S
O129 Tb95 2.362 . S
O129 C140 1.283 . S
O130 Tb95 2.421 . S
O130 C147 1.262 . S
O131 Tb84 2.320 . S
O131 C147 1.260 . S
O132 Tb84 2.552 . S
O132 C140 1.243 . S
O133 Tb84 2.413 . S
O133 C148 1.256 . S
O134 Tb95 2.546 . S
O134 C159 1.251 . S
O135 Tb84 2.362 . S
O135 Tb95 2.610 . S
O135 C151 1.283 . S
O136 Tb84 2.421 1_556 S
O136 C158 1.262 . S
O137 Tb95 2.320 . S
O137 C158 1.260 1_554 S
O138 Tb95 2.552 . S
O138 C151 1.243 . S
O139 Tb95 2.413 . S
O139 C159 1.256 . S
C140 O129 1.283 . S
C140 O132 1.243 . S
C141 C143 1.382 . S
C141 C145 1.393 . S
C141 C148 1.500 . S
C142 C143 1.400 . S
C142 C144 1.384 . S
C143 C141 1.382 . S
C143 C142 1.400 . S
C143 H160 0.930 . S
C144 C142 1.384 . S
C144 C146 1.392 . S
C144 H161 0.931 . S
C145 C141 1.393 . S
C145 C146 1.401 . S
C145 H162 0.930 1_554 S
C146 C144 1.392 . S
C146 C145 1.401 . S
C146 H163 0.930 1_554 S
C147 O130 1.262 . S
C147 O131 1.260 . S
C148 Tb84 2.833 . S
C148 O128 1.251 . S
C148 O133 1.256 . S
C148 C141 1.500 . S
C149 H114 0.929 . S
C149 C127 1.444 1_454 S
C149 C150 1.317 . S
C150 H112 0.930 . S
C150 C118 1.432 . S
C150 C149 1.317 . S
C151 O135 1.283 . S
C151 O138 1.243 . S
C152 C153 1.382 . S
C152 C156 1.393 . S
C152 C159 1.500 . S
C153 C152 1.382 . S
C153 C154 1.400 . S
C153 H164 0.930 . S
C154 C153 1.400 . S
C154 C155 1.384 . S
C155 C154 1.384 . S
C155 C157 1.392 . S
C155 H165 0.931 . S
C156 C152 1.393 . S
C156 C157 1.401 . S
C156 H166 0.930 . S
C157 C155 1.392 . S
C157 C156 1.401 . S
C157 H167 0.930 . S
C158 O136 1.262 . S
C158 O137 1.260 1_556 S
C159 Tb95 2.833 . S
C159 O134 1.251 . S
C159 O139 1.256 . S
C159 C152 1.500 . S
H160 C143 0.930 . S
H161 C144 0.931 . S
H162 C145 0.930 1_556 S
H163 C146 0.930 1_556 S
H164 C153 0.930 . S
H165 C155 0.931 . S
H166 C156 0.930 . S
H167 C157 0.930 . S
Tb168 N199 2.660 1_554 S
Tb168 N206 2.600 . S
Tb168 O212 2.546 . S
Tb168 O213 2.610 1_565 S
Tb168 O215 2.320 1_554 S
Tb168 O216 2.552 1_565 S
Tb168 O217 2.413 1_554 S
Tb168 O219 2.362 . S
Tb168 O220 2.421 1_565 S
Tb168 C232 2.833 . S
C169 C172 1.432 1_556 S
C169 C173 1.414 . S
C169 N176 1.359 . S
C170 C172 1.417 . S
C170 C174 1.432 . S
C170 C182 1.410 . S
C171 C173 1.444 . S
C171 C174 1.317 1_556 S
C171 H194 0.929 . S
C172 C169 1.432 1_554 S
C172 C170 1.417 . S
C172 N180 1.360 . S
C173 C169 1.414 . S
C173 C171 1.444 . S
C173 C178 1.385 . S
C174 C170 1.432 . S
C174 C171 1.317 1_554 S
C174 H186 0.930 . S
C175 C177 1.392 . S
C175 C178 1.370 . S
C175 H187 0.931 . S
N176 C169 1.359 . S
N176 C177 1.327 . S
N176 Tb179 2.600 1_556 S
C177 C175 1.392 . S
C177 N176 1.327 . S
C177 H184 0.930 . S
C178 C173 1.385 . S
C178 C175 1.370 . S
C178 H197 0.930 . S
Tb179 N176 2.600 1_554 S
Tb179 N180 2.660 . S
Tb179 O213 2.362 . S
Tb179 O214 2.421 1_554 S
Tb179 O218 2.546 1_554 S
Tb179 O219 2.610 1_545 S
Tb179 O221 2.320 . S
Tb179 O222 2.552 1_545 S
Tb179 O223 2.413 . S
Tb179 C243 2.833 . S
N180 C172 1.360 . S
N180 Tb179 2.660 . S
N180 C181 1.305 . S
C181 N180 1.305 . S
C181 C183 1.407 . S
C181 H188 0.930 . S
C182 C170 1.410 . S
C182 C183 1.345 . S
C182 H190 0.930 . S
C183 C181 1.407 . S
C183 C182 1.345 . S
C183 H185 0.930 . S
H184 C177 0.930 . S
H185 C183 0.930 . S
H186 C174 0.930 . S
H187 C175 0.931 . S
H188 C181 0.930 . S
H189 C203 0.930 . S
H190 C182 0.930 . S
H191 C209 0.930 . S
H192 C200 0.930 . S
H193 C207 0.931 . S
H194 C171 0.929 . S
H195 C201 0.930 . S
H196 C234 0.930 . S
H197 C178 0.930 . S
H198 C233 0.929 . S
N199 Tb168 2.660 1_556 S
N199 C200 1.305 . S
N199 C204 1.360 . S
C200 H192 0.930 . S
C200 N199 1.305 . S
C200 C203 1.407 . S
C201 H195 0.930 . S
C201 C202 1.410 . S
C201 C203 1.345 . S
C202 C201 1.410 . S
C202 C204 1.417 . S
C202 C234 1.432 . S
C203 H189 0.930 . S
C203 C200 1.407 . S
C203 C201 1.345 . S
C204 N199 1.360 . S
C204 C202 1.417 . S
C204 C208 1.432 1_556 S
H205 C210 0.930 . S
N206 Tb168 2.600 . S
N206 C208 1.359 . S
N206 C209 1.327 . S
C207 H193 0.931 . S
C207 C209 1.392 . S
C207 C210 1.370 . S
C208 C204 1.432 1_554 S
C208 N206 1.359 . S
C208 C211 1.414 . S
C209 H191 0.930 . S
C209 N206 1.327 . S
C209 C207 1.392 . S
C210 H205 0.930 . S
C210 C207 1.370 . S
C210 C211 1.385 . S
C211 C208 1.414 . S
C211 C210 1.385 . S
C211 C233 1.444 . S
O212 Tb168 2.546 . S
O212 C232 1.251 . S
O213 Tb168 2.610 1_545 S
O213 Tb179 2.362 . S
O213 C224 1.283 . S
O214 Tb179 2.421 1_556 S
O214 C231 1.262 1_545 S
O215 Tb168 2.320 1_556 S
O215 C231 1.260 . S
O216 Tb168 2.552 1_545 S
O216 C224 1.243 . S
O217 Tb168 2.413 1_556 S
O217 C232 1.256 1_556 S
O218 Tb179 2.546 1_556 S
O218 C243 1.251 1_556 S
O219 Tb168 2.362 . S
O219 Tb179 2.610 1_565 S
O219 C235 1.283 . S
O220 Tb168 2.421 1_545 S
O220 C242 1.262 . S
O221 Tb179 2.320 . S
O221 C242 1.260 . S
O222 Tb179 2.552 1_565 S
O222 C235 1.243 . S
O223 Tb179 2.413 . S
O223 C243 1.256 . S
C224 O213 1.283 . S
C224 O216 1.243 . S
C225 C227 1.382 1_554 S
C225 C229 1.393 . S
C225 C232 1.500 . S
C226 C227 1.400 . S
C226 C228 1.384 . S
C227 C225 1.382 1_556 S
C227 C226 1.400 . S
C227 H244 0.930 . S
C228 C226 1.384 . S
C228 C230 1.392 1_556 S
C228 H245 0.931 . S
C229 C225 1.393 . S
C229 C230 1.401 . S
C229 H246 0.930 . S
C230 C228 1.392 1_554 S
C230 C229 1.401 . S
C230 H247 0.930 . S
C231 O214 1.262 1_565 S
C231 O215 1.260 . S
C232 Tb168 2.833 . S
C232 O212 1.251 . S
C232 O217 1.256 1_554 S
C232 C225 1.500 . S
C233 H198 0.929 . S
C233 C211 1.444 . S
C233 C234 1.317 1_554 S
C234 H196 0.930 . S
C234 C202 1.432 . S
C234 C233 1.317 1_556 S
C235 O219 1.283 . S
C235 O222 1.243 . S
C236 C237 1.382 . S
C236 C240 1.393 1_554 S
C236 C243 1.500 . S
C237 C236 1.382 . S
C237 C238 1.400 . S
C237 H248 0.930 . S
C238 C237 1.400 . S
C238 C239 1.384 . S
C239 C238 1.384 . S
C239 C241 1.392 . S
C239 H249 0.931 . S
C240 C236 1.393 1_556 S
C240 C241 1.401 1_556 S
C240 H250 0.930 . S
C241 C239 1.392 . S
C241 C240 1.401 1_554 S
C241 H251 0.930 1_554 S
C242 O220 1.262 . S
C242 O221 1.260 . S
C243 Tb179 2.833 . S
C243 O218 1.251 1_554 S
C243 O223 1.256 . S
C243 C236 1.500 . S
H244 C227 0.930 . S
H245 C228 0.931 . S
H246 C229 0.930 . S
H247 C230 0.930 . S
H248 C237 0.930 . S
H249 C239 0.931 . S
H250 C240 0.930 . S
H251 C241 0.930 1_556 S
Tb252 N283 2.660 . S
Tb252 N290 2.600 1_554 S
Tb252 O296 2.546 1_554 S
Tb252 O297 2.610 . S
Tb252 O299 2.320 . S
Tb252 O300 2.552 . S
Tb252 O301 2.413 . S
Tb252 O303 2.362 . S
Tb252 O304 2.421 1_554 S
Tb252 C316 2.833 . S
C253 C256 1.432 . S
C253 C257 1.414 . S
C253 N260 1.359 . S
C254 C256 1.417 . S
C254 C258 1.432 . S
C254 C266 1.410 . S
C255 C257 1.444 . S
C255 C258 1.317 . S
C255 H278 0.929 . S
C256 C253 1.432 . S
C256 C254 1.417 . S
C256 N264 1.360 . S
C257 C253 1.414 . S
C257 C255 1.444 . S
C257 C262 1.385 . S
C258 C254 1.432 . S
C258 C255 1.317 . S
C258 H270 0.930 . S
C259 C261 1.392 . S
C259 C262 1.370 . S
C259 H271 0.931 . S
N260 C253 1.359 . S
N260 C261 1.327 . S
N260 Tb263 2.600 . S
C261 C259 1.392 . S
C261 N260 1.327 . S
C261 H268 0.930 . S
C262 C257 1.385 . S
C262 C259 1.370 . S
C262 H281 0.930 . S
Tb263 N260 2.600 . S
Tb263 N264 2.660 . S
Tb263 O297 2.362 . S
Tb263 O298 2.421 . S
Tb263 O302 2.546 . S
Tb263 O303 2.610 . S
Tb263 O305 2.320 1_554 S
Tb263 O306 2.552 . S
Tb263 O307 2.413 . S
Tb263 C327 2.833 . S
N264 C256 1.360 . S
N264 Tb263 2.660 . S
N264 C265 1.305 1_554 S
C265 N264 1.305 1_556 S
C265 C267 1.407 . S
C265 H272 0.930 . S
C266 C254 1.410 . S
C266 C267 1.345 1_554 S
C266 H274 0.930 . S
C267 C265 1.407 . S
C267 C266 1.345 1_556 S
C267 H269 0.930 . S
H268 C261 0.930 . S
H269 C267 0.930 . S
H270 C258 0.930 . S
H271 C259 0.931 . S
H272 C265 0.930 . S
H273 C287 0.930 . S
H274 C266 0.930 . S
H275 C293 0.930 . S
H276 C284 0.930 . S
H277 C291 0.931 . S
H278 C255 0.929 . S
H279 C285 0.930 . S
H280 C318 0.930 . S
H281 C262 0.930 . S
H282 C317 0.929 . S
N283 Tb252 2.660 . S
N283 C284 1.305 . S
N283 C288 1.360 1_554 S
C284 H276 0.930 . S
C284 N283 1.305 . S
C284 C287 1.407 . S
C285 H279 0.930 . S
C285 C286 1.410 . S
C285 C287 1.345 . S
C286 C285 1.410 . S
C286 C288 1.417 1_554 S
C286 C318 1.432 1_554 S
C287 H273 0.930 . S
C287 C284 1.407 . S
C287 C285 1.345 . S
C288 N283 1.360 1_556 S
C288 C286 1.417 1_556 S
C288 C292 1.432 . S
H289 C294 0.930 . S
N290 Tb252 2.600 1_556 S
N290 C292 1.359 . S
N290 C293 1.327 . S
C291 H277 0.931 . S
C291 C293 1.392 . S
C291 C294 1.370 . S
C292 C288 1.432 . S
C292 N290 1.359 . S
C292 C295 1.414 . S
C293 H275 0.930 . S
C293 N290 1.327 . S
C293 C291 1.392 . S
C294 H289 0.930 . S
C294 C291 1.370 . S
C294 C295 1.385 . S
C295 C292 1.414 . S
C295 C294 1.385 . S
C295 C317 1.444 . S
O296 Tb252 2.546 1_556 S
O296 C316 1.251 1_556 S
O297 Tb252 2.610 . S
O297 Tb263 2.362 . S
O297 C308 1.283 . S
O298 Tb263 2.421 . S
O298 C315 1.262 . S
O299 Tb252 2.320 . S
O299 C315 1.260 . S
O300 Tb252 2.552 . S
O300 C308 1.243 . S
O301 Tb252 2.413 . S
O301 C316 1.256 . S
O302 Tb263 2.546 . S
O302 C327 1.251 . S
O303 Tb252 2.362 . S
O303 Tb263 2.610 . S
O303 C319 1.283 . S
O304 Tb252 2.421 1_556 S
O304 C326 1.262 . S
O305 Tb263 2.320 1_556 S
O305 C326 1.260 . S
O306 Tb263 2.552 . S
O306 C319 1.243 . S
O307 Tb263 2.413 . S
O307 C327 1.256 . S
C308 O297 1.283 . S
C308 O300 1.243 . S
C309 C311 1.382 . S
C309 C313 1.393 1_554 S
C309 C316 1.500 . S
C310 C311 1.400 . S
C310 C312 1.384 . S
C311 C309 1.382 . S
C311 C310 1.400 . S
C311 H328 0.930 . S
C312 C310 1.384 . S
C312 C314 1.392 . S
C312 H329 0.931 . S
C313 C309 1.393 1_556 S
C313 C314 1.401 1_556 S
C313 H330 0.930 . S
C314 C312 1.392 . S
C314 C313 1.401 1_554 S
C314 H331 0.930 1_554 S
C315 O298 1.262 . S
C315 O299 1.260 . S
C316 Tb252 2.833 . S
C316 O296 1.251 1_554 S
C316 O301 1.256 . S
C316 C309 1.500 . S
C317 H282 0.929 . S
C317 C295 1.444 . S
C317 C318 1.317 . S
C318 H280 0.930 . S
C318 C286 1.432 1_556 S
C318 C317 1.317 . S
C319 O303 1.283 . S
C319 O306 1.243 . S
C320 C321 1.382 1_554 S
C320 C324 1.393 . S
C320 C327 1.500 . S
C321 C320 1.382 1_556 S
C321 C322 1.400 . S
C321 H332 0.930 . S
C322 C321 1.400 . S
C322 C323 1.384 1_556 S
C323 C322 1.384 1_554 S
C323 C325 1.392 . S
C323 H333 0.931 . S
C324 C320 1.393 . S
C324 C325 1.401 . S
C324 H334 0.930 . S
C325 C323 1.392 . S
C325 C324 1.401 . S
C325 H335 0.930 . S
C326 O304 1.262 . S
C326 O305 1.260 . S
C327 Tb263 2.833 . S
C327 O302 1.251 . S
C327 O307 1.256 . S
C327 C320 1.500 . S
H328 C311 0.930 . S
H329 C312 0.931 . S
H330 C313 0.930 . S
H331 C314 0.930 1_556 S
H332 C321 0.930 . S
H333 C323 0.931 . S
H334 C324 0.930 . S
H335 C325 0.930 . S
Tb336 N367 2.660 1_556 S
Tb336 N374 2.600 . S
Tb336 O380 2.546 . S
Tb336 O381 2.610 . S
Tb336 O383 2.320 1_556 S
Tb336 O384 2.552 . S
Tb336 O385 2.413 1_556 S
Tb336 O387 2.362 1_556 S
Tb336 O388 2.421 . S
Tb336 C400 2.833 . S
C337 C340 1.432 1_554 S
C337 C341 1.414 . S
C337 N344 1.359 . S
C338 C340 1.417 . S
C338 C342 1.432 . S
C338 C350 1.410 . S
C339 C341 1.444 . S
C339 C342 1.317 1_554 S
C339 H362 0.929 . S
C340 C337 1.432 1_556 S
C340 C338 1.417 . S
C340 N348 1.360 . S
C341 C337 1.414 . S
C341 C339 1.444 . S
C341 C346 1.385 . S
C342 C338 1.432 . S
C342 C339 1.317 1_556 S
C342 H354 0.930 . S
C343 C345 1.392 . S
C343 C346 1.370 . S
C343 H355 0.931 . S
N344 C337 1.359 . S
N344 C345 1.327 . S
N344 Tb347 2.600 . S
C345 C343 1.392 . S
C345 N344 1.327 . S
C345 H352 0.930 . S
C346 C341 1.385 . S
C346 C343 1.370 . S
C346 H365 0.930 . S
Tb347 N344 2.600 . S
Tb347 N348 2.660 1_554 S
Tb347 O381 2.362 1_554 S
Tb347 O382 2.421 . S
Tb347 O386 2.546 . S
Tb347 O387 2.610 . S
Tb347 O389 2.320 1_554 S
Tb347 O390 2.552 . S
Tb347 O391 2.413 1_554 S
Tb347 C411 2.833 . S
N348 C340 1.360 . S
N348 Tb347 2.660 1_556 S
N348 C349 1.305 . S
C349 N348 1.305 . S
C349 C351 1.407 . S
C349 H356 0.930 . S
C350 C338 1.410 . S
C350 C351 1.345 . S
C350 H358 0.930 . S
C351 C349 1.407 . S
C351 C350 1.345 . S
C351 H353 0.930 . S
H352 C345 0.930 . S
H353 C351 0.930 . S
H354 C342 0.930 . S
H355 C343 0.931 . S
H356 C349 0.930 . S
H357 C371 0.930 . S
H358 C350 0.930 . S
H359 C377 0.930 . S
H360 C368 0.930 . S
H361 C375 0.931 . S
H362 C339 0.929 . S
H363 C369 0.930 . S
H364 C402 0.930 . S
H365 C346 0.930 . S
H366 C401 0.929 . S
N367 Tb336 2.660 1_554 S
N367 C368 1.305 . S
N367 C372 1.360 . S
C368 H360 0.930 . S
C368 N367 1.305 . S
C368 C371 1.407 . S
C369 H363 0.930 . S
C369 C370 1.410 . S
C369 C371 1.345 . S
C370 C369 1.410 . S
C370 C372 1.417 . S
C370 C402 1.432 . S
C371 H357 0.930 . S
C371 C368 1.407 . S
C371 C369 1.345 . S
C372 N367 1.360 . S
C372 C370 1.417 . S
C372 C376 1.432 1_554 S
H373 C378 0.930 . S
N374 Tb336 2.600 . S
N374 C376 1.359 . S
N374 C377 1.327 . S
C375 H361 0.931 . S
C375 C377 1.392 . S
C375 C378 1.370 . S
C376 C372 1.432 1_556 S
C376 N374 1.359 . S
C376 C379 1.414 . S
C377 H359 0.930 . S
C377 N374 1.327 . S
C377 C375 1.392 . S
C378 H373 0.930 . S
C378 C375 1.370 . S
C378 C379 1.385 . S
C379 C376 1.414 . S
C379 C378 1.385 . S
C379 C401 1.444 . S
O380 Tb336 2.546 . S
O380 C400 1.251 . S
O381 Tb336 2.610 . S
O381 Tb347 2.362 1_556 S
O381 C392 1.283 . S
O382 Tb347 2.421 . S
O382 C399 1.262 . S
O383 Tb336 2.320 1_554 S
O383 C399 1.260 . S
O384 Tb336 2.552 . S
O384 C392 1.243 . S
O385 Tb336 2.413 1_554 S
O385 C400 1.256 1_554 S
O386 Tb347 2.546 . S
O386 C411 1.251 . S
O387 Tb336 2.362 1_554 S
O387 Tb347 2.610 . S
O387 C403 1.283 . S
O388 Tb336 2.421 . S
O388 C410 1.262 . S
O389 Tb347 2.320 1_556 S
O389 C410 1.260 . S
O390 Tb347 2.552 . S
O390 C403 1.243 . S
O391 Tb347 2.413 1_556 S
O391 C411 1.256 1_556 S
C392 O381 1.283 . S
C392 O384 1.243 . S
C393 C395 1.382 1_556 S
C393 C397 1.393 . S
C393 C400 1.500 . S
C394 C395 1.400 . S
C394 C396 1.384 . S
C395 C393 1.382 1_554 S
C395 C394 1.400 . S
C395 H412 0.930 . S
C396 C394 1.384 . S
C396 C398 1.392 1_554 S
C396 H413 0.931 1_545 S
C397 C393 1.393 . S
C397 C398 1.401 . S
C397 H414 0.930 . S
C398 C396 1.392 1_556 S
C398 C397 1.401 . S
C398 H415 0.965 . S
C399 O382 1.262 . S
C399 O383 1.260 . S
C400 Tb336 2.833 . S
C400 O380 1.251 . S
C400 O385 1.256 1_556 S
C400 C393 1.500 . S
C401 H366 0.929 . S
C401 C379 1.444 . S
C401 C402 1.317 1_556 S
C402 H364 0.930 . S
C402 C370 1.432 . S
C402 C401 1.317 1_554 S
C403 O387 1.283 . S
C403 O390 1.243 . S
C404 C405 1.382 1_554 S
C404 C408 1.393 . S
C404 C411 1.500 . S
C405 C404 1.382 1_556 S
C405 C406 1.400 . S
C405 H416 0.930 . S
C406 C405 1.400 . S
C406 C407 1.384 . S
C407 C406 1.384 . S
C407 C409 1.392 1_556 S
C407 H417 0.931 . S
C408 C404 1.393 . S
C408 C409 1.401 . S
C408 H418 0.930 . S
C409 C407 1.392 1_554 S
C409 C408 1.401 . S
C409 H419 0.930 . S
C410 O388 1.262 . S
C410 O389 1.260 . S
C411 Tb347 2.833 . S
C411 O386 1.251 . S
C411 O391 1.256 1_554 S
C411 C404 1.500 . S
H412 C395 0.930 . S
H413 C396 0.931 1_565 S
H414 C397 0.930 . S
H415 C398 0.965 . S
H416 C405 0.930 . S
H417 C407 0.931 . S
H418 C408 0.930 . S
H419 C409 0.930 . S
Tb420 N451 2.660 . S
Tb420 N458 2.600 . S
Tb420 O464 2.546 1_655 S
Tb420 O465 2.610 . S
Tb420 O467 2.320 . S
Tb420 O468 2.552 . S
Tb420 O469 2.413 1_655 S
Tb420 O471 2.362 . S
Tb420 O472 2.421 1_554 S
Tb420 C484 2.833 1_655 S
C421 C424 1.432 . S
C421 C425 1.414 . S
C421 N428 1.359 . S
C422 C424 1.417 . S
C422 C426 1.432 . S
C422 C434 1.410 1_554 S
C423 C425 1.444 . S
C423 C426 1.317 . S
C423 H446 0.929 . S
C424 C421 1.432 . S
C424 C422 1.417 . S
C424 N432 1.360 . S
C425 C421 1.414 . S
C425 C423 1.444 . S
C425 C430 1.385 . S
C426 C422 1.432 . S
C426 C423 1.317 . S
C426 H438 0.930 . S
C427 C429 1.392 . S
C427 C430 1.370 . S
C427 H439 0.931 . S
N428 C421 1.359 . S
N428 C429 1.327 . S
N428 Tb431 2.600 . S
C429 C427 1.392 . S
C429 N428 1.327 . S
C429 H436 0.930 . S
C430 C425 1.385 . S
C430 C427 1.370 . S
C430 H449 0.930 . S
Tb431 N428 2.600 . S
Tb431 N432 2.660 . S
Tb431 O465 2.362 . S
Tb431 O466 2.421 . S
Tb431 O470 2.546 . S
Tb431 O471 2.610 . S
Tb431 O473 2.320 1_554 S
Tb431 O474 2.552 . S
Tb431 O475 2.413 1_554 S
Tb431 C495 2.833 . S
N432 C424 1.360 . S
N432 Tb431 2.660 . S
N432 C433 1.305 1_554 S
C433 N432 1.305 1_556 S
C433 C435 1.407 . S
C433 H440 0.930 . S
C434 C422 1.410 1_556 S
C434 C435 1.345 . S
C434 H442 0.930 . S
C435 C433 1.407 . S
C435 C434 1.345 . S
C435 H437 0.930 . S
H436 C429 0.930 . S
H437 C435 0.930 . S
H438 C426 0.930 . S
H439 C427 0.931 . S
H440 C433 0.930 . S
H441 C455 0.930 . S
H442 C434 0.930 . S
H443 C461 0.930 . S
H444 C452 0.930 . S
H445 C459 0.931 1_455 S
H446 C423 0.929 . S
H447 C453 0.930 . S
H448 C486 0.930 . S
H449 C430 0.930 . S
H450 C485 0.929 . S
N451 Tb420 2.660 . S
N451 C452 1.305 . S
N451 C456 1.360 . S
C452 H444 0.930 . S
C452 N451 1.305 . S
C452 C455 1.407 . S
C453 H447 0.930 . S
C453 C454 1.410 . S
C453 C455 1.345 . S
C454 C453 1.410 . S
C454 C456 1.417 . S
C454 C486 1.432 . S
C455 H441 0.930 . S
C455 C452 1.407 . S
C455 C453 1.345 . S
C456 N451 1.360 . S
C456 C454 1.417 . S
C456 C460 1.432 . S
H457 C462 0.930 1_455 S
N458 Tb420 2.600 . S
N458 C460 1.359 . S
N458 C461 1.327 1_554 S
C459 H445 0.931 1_655 S
C459 C461 1.392 . S
C459 C462 1.370 . S
C460 C456 1.432 . S
C460 N458 1.359 . S
C460 C463 1.414 . S
C461 H443 0.930 . S
C461 N458 1.327 1_556 S
C461 C459 1.392 . S
C462 H457 0.930 1_655 S
C462 C459 1.370 . S
C462 C463 1.385 1_556 S
C463 C460 1.414 . S
C463 C462 1.385 1_554 S
C463 C485 1.444 . S
O464 Tb420 2.546 1_455 S
O464 C484 1.251 . S
O465 Tb420 2.610 . S
O465 Tb431 2.362 . S
O465 C476 1.283 . S
O466 Tb431 2.421 . S
O466 C483 1.262 . S
O467 Tb420 2.320 . S
O467 C483 1.260 . S
O468 Tb420 2.552 . S
O468 C476 1.243 . S
O469 Tb420 2.413 1_455 S
O469 C484 1.256 . S
O470 Tb431 2.546 . S
O470 C495 1.251 . S
O471 Tb420 2.362 . S
O471 Tb431 2.610 . S
O471 C487 1.283 . S
O472 Tb420 2.421 1_556 S
O472 C494 1.262 . S
O473 Tb431 2.320 1_556 S
O473 C494 1.260 . S
O474 Tb431 2.552 . S
O474 C487 1.243 . S
O475 Tb431 2.413 1_556 S
O475 C495 1.256 1_556 S
C476 O465 1.283 . S
C476 O468 1.243 . S
C477 C479 1.382 . S
C477 C481 1.393 . S
C477 C484 1.500 . S
C478 C479 1.400 . S
C478 C480 1.384 . S
C479 C477 1.382 . S
C479 C478 1.400 . S
C479 H496 0.930 . S
C480 C478 1.384 . S
C480 C482 1.392 . S
C480 H497 0.931 . S
C481 C477 1.393 . S
C481 C482 1.401 . S
C481 H498 0.930 . S
C482 C480 1.392 . S
C482 C481 1.401 . S
C482 H499 0.930 . S
C483 O466 1.262 . S
C483 O467 1.260 . S
C484 Tb420 2.833 1_455 S
C484 O464 1.251 . S
C484 O469 1.256 . S
C484 C477 1.500 . S
C485 H450 0.929 . S
C485 C463 1.444 . S
C485 C486 1.317 . S
C486 H448 0.930 . S
C486 C454 1.432 . S
C486 C485 1.317 . S
C487 O471 1.283 . S
C487 O474 1.243 . S
C488 C489 1.382 . S
C488 C492 1.393 1_556 S
C488 C495 1.500 1_556 S
C489 C488 1.382 . S
C489 C490 1.400 . S
C489 H500 0.930 . S
C490 C489 1.400 . S
C490 C491 1.384 . S
C491 C490 1.384 . S
C491 C493 1.392 . S
C491 H501 0.931 . S
C492 C488 1.393 1_554 S
C492 C493 1.401 1_554 S
C492 H502 0.930 . S
C493 C491 1.392 . S
C493 C492 1.401 1_556 S
C493 H503 0.930 1_556 S
C494 O472 1.262 . S
C494 O473 1.260 . S
C495 Tb431 2.833 . S
C495 O470 1.251 . S
C495 O475 1.256 1_554 S
C495 C488 1.500 1_554 S
H496 C479 0.930 . S
H497 C480 0.931 . S
H498 C481 0.930 . S
H499 C482 0.930 . S
H500 C489 0.930 . S
H501 C491 0.931 . S
H502 C492 0.930 . S
H503 C493 0.930 1_554 S
Tb504 N535 2.660 . S
Tb504 N542 2.600 1_556 S
Tb504 O548 2.546 1_556 S
Tb504 O549 2.610 . S
Tb504 O551 2.320 . S
Tb504 O552 2.552 . S
Tb504 O553 2.413 . S
Tb504 O555 2.362 . S
Tb504 O556 2.421 1_556 S
Tb504 C568 2.833 . S
C505 C508 1.432 . S
C505 C509 1.414 . S
C505 N512 1.359 . S
C506 C508 1.417 . S
C506 C510 1.432 . S
C506 C518 1.410 . S
C507 C509 1.444 . S
C507 C510 1.317 . S
C507 H530 0.929 . S
C508 C505 1.432 . S
C508 C506 1.417 . S
C508 N516 1.360 . S
C509 C505 1.414 . S
C509 C507 1.444 . S
C509 C514 1.385 . S
C510 C506 1.432 . S
C510 C507 1.317 . S
C510 H522 0.930 . S
C511 C513 1.392 . S
C511 C514 1.370 . S
C511 H523 0.931 . S
N512 C505 1.359 . S
N512 C513 1.327 . S
N512 Tb515 2.600 . S
C513 C511 1.392 . S
C513 N512 1.327 . S
C513 H520 0.930 . S
C514 C509 1.385 . S
C514 C511 1.370 . S
C514 H533 0.930 . S
Tb515 N512 2.600 . S
Tb515 N516 2.660 . S
Tb515 O549 2.362 . S
Tb515 O550 2.421 . S
Tb515 O554 2.546 . S
Tb515 O555 2.610 . S
Tb515 O557 2.320 1_556 S
Tb515 O558 2.552 . S
Tb515 O559 2.413 . S
Tb515 C579 2.833 . S
N516 C508 1.360 . S
N516 Tb515 2.660 . S
N516 C517 1.305 1_556 S
C517 N516 1.305 1_554 S
C517 C519 1.407 . S
C517 H524 0.930 . S
C518 C506 1.410 . S
C518 C519 1.345 1_556 S
C518 H526 0.930 . S
C519 C517 1.407 . S
C519 C518 1.345 1_554 S
C519 H521 0.930 . S
H520 C513 0.930 . S
H521 C519 0.930 . S
H522 C510 0.930 . S
H523 C511 0.931 . S
H524 C517 0.930 . S
H525 C539 0.930 . S
H526 C518 0.930 . S
H527 C545 0.930 . S
H528 C536 0.930 . S
H529 C543 0.931 . S
H530 C507 0.929 . S
H531 C537 0.930 . S
H532 C570 0.930 . S
H533 C514 0.930 . S
H534 C569 0.929 . S
N535 Tb504 2.660 . S
N535 C536 1.305 . S
N535 C540 1.360 . S
C536 H528 0.930 . S
C536 N535 1.305 . S
C536 C539 1.407 . S
C537 H531 0.930 . S
C537 C538 1.410 . S
C537 C539 1.345 . S
C538 C537 1.410 . S
C538 C540 1.417 . S
C538 C570 1.432 1_556 S
C539 H525 0.930 . S
C539 C536 1.407 . S
C539 C537 1.345 . S
C540 N535 1.360 . S
C540 C538 1.417 . S
C540 C544 1.432 1_556 S
H541 C546 0.930 . S
N542 Tb504 2.600 1_554 S
N542 C544 1.359 . S
N542 C545 1.327 . S
C543 H529 0.931 . S
C543 C545 1.392 . S
C543 C546 1.370 . S
C544 C540 1.432 1_554 S
C544 N542 1.359 . S
C544 C547 1.414 . S
C545 H527 0.930 . S
C545 N542 1.327 . S
C545 C543 1.392 . S
C546 H541 0.930 . S
C546 C543 1.370 . S
C546 C547 1.385 . S
C547 C544 1.414 . S
C547 C546 1.385 . S
C547 C569 1.444 . S
O548 Tb504 2.546 1_554 S
O548 C568 1.251 1_554 S
O549 Tb504 2.610 . S
O549 Tb515 2.362 . S
O549 C560 1.283 . S
O550 Tb515 2.421 . S
O550 C567 1.262 . S
O551 Tb504 2.320 . S
O551 C567 1.260 . S
O552 Tb504 2.552 . S
O552 C560 1.243 . S
O553 Tb504 2.413 . S
O553 C568 1.256 . S
O554 Tb515 2.546 . S
O554 C579 1.251 . S
O555 Tb504 2.362 . S
O555 Tb515 2.610 . S
O555 C571 1.283 . S
O556 Tb504 2.421 1_554 S
O556 C578 1.262 . S
O557 Tb515 2.320 1_554 S
O557 C578 1.260 . S
O558 Tb515 2.552 . S
O558 C571 1.243 . S
O559 Tb515 2.413 . S
O559 C579 1.256 . S
C560 O549 1.283 . S
C560 O552 1.243 . S
C561 C563 1.382 . S
C561 C565 1.393 1_556 S
C561 C568 1.500 1_545 S
C562 C563 1.400 . S
C562 C564 1.384 . S
C563 C561 1.382 . S
C563 C562 1.400 . S
C563 H580 0.930 1_545 S
C564 C562 1.384 . S
C564 C566 1.392 1_556 S
C564 H581 0.931 . S
C565 C561 1.393 1_554 S
C565 C566 1.401 . S
C565 H582 0.930 . S
C566 C564 1.392 1_554 S
C566 C565 1.401 . S
C566 H583 0.930 . S
C567 O550 1.262 . S
C567 O551 1.260 . S
C568 Tb504 2.833 . S
C568 O548 1.251 1_556 S
C568 O553 1.256 . S
C568 C561 1.500 1_565 S
C569 H534 0.929 . S
C569 C547 1.444 . S
C569 C570 1.317 . S
C570 H532 0.930 . S
C570 C538 1.432 1_554 S
C570 C569 1.317 . S
C571 O555 1.283 . S
C571 O558 1.243 . S
C572 C573 1.382 . S
C572 C576 1.393 . S
C572 C579 1.500 . S
C573 C572 1.382 . S
C573 C574 1.400 . S
C573 H584 0.930 1_556 S
C574 C573 1.400 . S
C574 C575 1.384 . S
C575 C574 1.384 . S
C575 C577 1.392 . S
C575 H585 0.931 . S
C576 C572 1.393 . S
C576 C577 1.401 . S
C576 H586 0.930 . S
C577 C575 1.392 . S
C577 C576 1.401 . S
C577 H587 0.930 . S
C578 O556 1.262 . S
C578 O557 1.260 . S
C579 Tb515 2.833 . S
C579 O554 1.251 . S
C579 O559 1.256 . S
C579 C572 1.500 . S
H580 C563 0.930 1_565 S
H581 C564 0.931 . S
H582 C565 0.930 . S
H583 C566 0.930 . S
H584 C573 0.930 1_554 S
H585 C575 0.931 . S
H586 C576 0.930 . S
H587 C577 0.930 . S
Tb588 N619 2.660 1_556 S
Tb588 N626 2.600 . S
Tb588 O632 2.546 . S
Tb588 O633 2.610 . S
Tb588 O635 2.320 1_556 S
Tb588 O636 2.552 . S
Tb588 O637 2.413 1_556 S
Tb588 O639 2.362 1_556 S
Tb588 O640 2.421 . S
Tb588 C652 2.833 . S
C589 C592 1.432 1_554 S
C589 C593 1.414 . S
C589 N596 1.359 . S
C590 C592 1.417 . S
C590 C594 1.432 . S
C590 C602 1.410 . S
C591 C593 1.444 . S
C591 C594 1.317 1_554 S
C591 H614 0.929 . S
C592 C589 1.432 1_556 S
C592 C590 1.417 . S
C592 N600 1.360 . S
C593 C589 1.414 . S
C593 C591 1.444 . S
C593 C598 1.385 . S
C594 C590 1.432 . S
C594 C591 1.317 1_556 S
C594 H606 0.930 . S
C595 C597 1.392 . S
C595 C598 1.370 . S
C595 H607 0.931 . S
N596 C589 1.359 . S
N596 C597 1.327 . S
N596 Tb599 2.600 . S
C597 C595 1.392 . S
C597 N596 1.327 . S
C597 H604 0.930 . S
C598 C593 1.385 . S
C598 C595 1.370 . S
C598 H617 0.930 . S
Tb599 N596 2.600 . S
Tb599 N600 2.660 1_554 S
Tb599 O633 2.362 1_554 S
Tb599 O634 2.421 . S
Tb599 O638 2.546 . S
Tb599 O639 2.610 . S
Tb599 O641 2.320 1_554 S
Tb599 O642 2.552 . S
Tb599 O643 2.413 1_554 S
Tb599 C663 2.833 . S
N600 C592 1.360 . S
N600 Tb599 2.660 1_556 S
N600 C601 1.305 . S
C601 N600 1.305 . S
C601 C603 1.407 . S
C601 H608 0.930 . S
C602 C590 1.410 . S
C602 C603 1.345 . S
C602 H610 0.930 . S
C603 C601 1.407 . S
C603 C602 1.345 . S
C603 H605 0.930 . S
H604 C597 0.930 . S
H605 C603 0.930 . S
H606 C594 0.930 . S
H607 C595 0.931 . S
H608 C601 0.930 . S
H609 C623 0.930 . S
H610 C602 0.930 . S
H611 C629 0.930 . S
H612 C620 0.930 . S
H613 C627 0.931 . S
H614 C591 0.929 . S
H615 C621 0.930 . S
H616 C654 0.930 . S
H617 C598 0.930 . S
H618 C653 0.929 . S
N619 Tb588 2.660 1_554 S
N619 C620 1.305 . S
N619 C624 1.360 . S
C620 H612 0.930 . S
C620 N619 1.305 . S
C620 C623 1.407 . S
C621 H615 0.930 . S
C621 C622 1.410 . S
C621 C623 1.345 . S
C622 C621 1.410 . S
C622 C624 1.417 . S
C622 C654 1.432 . S
C623 H609 0.930 . S
C623 C620 1.407 . S
C623 C621 1.345 . S
C624 N619 1.360 . S
C624 C622 1.417 . S
C624 C628 1.432 1_554 S
H625 C630 0.930 . S
N626 Tb588 2.600 . S
N626 C628 1.359 . S
N626 C629 1.327 . S
C627 H613 0.931 . S
C627 C629 1.392 . S
C627 C630 1.370 . S
C628 C624 1.432 1_556 S
C628 N626 1.359 . S
C628 C631 1.414 . S
C629 H611 0.930 . S
C629 N626 1.327 . S
C629 C627 1.392 . S
C630 H625 0.930 . S
C630 C627 1.370 . S
C630 C631 1.385 . S
C631 C628 1.414 . S
C631 C630 1.385 . S
C631 C653 1.444 . S
O632 Tb588 2.546 . S
O632 C652 1.251 . S
O633 Tb588 2.610 . S
O633 Tb599 2.362 1_556 S
O633 C644 1.283 . S
O634 Tb599 2.421 . S
O634 C651 1.262 . S
O635 Tb588 2.320 1_554 S
O635 C651 1.260 . S
O636 Tb588 2.552 . S
O636 C644 1.243 . S
O637 Tb588 2.413 1_554 S
O637 C652 1.256 1_554 S
O638 Tb599 2.546 . S
O638 C663 1.251 . S
O639 Tb588 2.362 1_554 S
O639 Tb599 2.610 . S
O639 C655 1.283 . S
O640 Tb588 2.421 . S
O640 C662 1.262 . S
O641 Tb599 2.320 1_556 S
O641 C662 1.260 . S
O642 Tb599 2.552 . S
O642 C655 1.243 . S
O643 Tb599 2.413 1_556 S
O643 C663 1.256 1_556 S
C644 O633 1.283 . S
C644 O636 1.243 . S
C645 C647 1.382 1_556 S
C645 C649 1.393 . S
C645 C652 1.500 . S
C646 C647 1.400 . S
C646 C648 1.384 1_554 S
C647 C645 1.382 1_554 S
C647 C646 1.400 . S
C647 H664 0.930 . S
C648 C646 1.384 1_556 S
C648 C650 1.392 . S
C648 H665 0.931 . S
C649 C645 1.393 . S
C649 C650 1.401 . S
C649 H666 0.930 . S
C650 C648 1.392 . S
C650 C649 1.401 . S
C650 H667 0.930 . S
C651 O634 1.262 . S
C651 O635 1.260 . S
C652 Tb588 2.833 . S
C652 O632 1.251 . S
C652 O637 1.256 1_556 S
C652 C645 1.500 . S
C653 H618 0.929 . S
C653 C631 1.444 . S
C653 C654 1.317 1_556 S
C654 H616 0.930 . S
C654 C622 1.432 . S
C654 C653 1.317 1_554 S
C655 O639 1.283 . S
C655 O642 1.243 . S
C656 C657 1.382 1_554 S
C656 C660 1.393 . S
C656 C663 1.500 . S
C657 C656 1.382 1_556 S
C657 C658 1.400 . S
C657 H668 0.930 . S
C658 C657 1.400 . S
C658 C659 1.384 1_556 S
C659 C658 1.384 1_554 S
C659 C661 1.392 . S
C659 H669 0.931 . S
C660 C656 1.393 . S
C660 C661 1.401 . S
C660 H670 0.930 . S
C661 C659 1.392 . S
C661 C660 1.401 . S
C661 H671 0.930 . S
C662 O640 1.262 . S
C662 O641 1.260 . S
C663 Tb599 2.833 . S
C663 O638 1.251 . S
C663 O643 1.256 1_554 S
C663 C656 1.500 . S
H664 C647 0.930 . S
H665 C648 0.931 . S
H666 C649 0.930 . S
H667 C650 0.930 . S
H668 C657 0.930 . S
H669 C659 0.931 . S
H670 C660 0.930 . S
H671 C661 0.930 . S
Tb672 N703 2.660 . S
Tb672 N710 2.600 1_556 S
Tb672 O716 2.546 1_556 S
Tb672 O717 2.610 . S
Tb672 O719 2.320 . S
Tb672 O720 2.552 1_556 S
Tb672 O721 2.413 . S
Tb672 O723 2.362 . S
Tb672 O724 2.421 1_556 S
Tb672 C736 2.833 . S
C673 C676 1.432 1_556 S
C673 C677 1.414 . S
C673 N680 1.359 . S
C674 C676 1.417 . S
C674 C678 1.432 . S
C674 C686 1.410 . S
C675 C677 1.444 1_554 S
C675 C678 1.317 . S
C675 H698 0.929 1_554 S
C676 C673 1.432 1_554 S
C676 C674 1.417 . S
C676 N684 1.360 . S
C677 C673 1.414 . S
C677 C675 1.444 1_556 S
C677 C682 1.385 . S
C678 C674 1.432 . S
C678 C675 1.317 . S
C678 H690 0.930 . S
C679 C681 1.392 . S
C679 C682 1.370 . S
C679 H691 0.931 . S
N680 C673 1.359 . S
N680 C681 1.327 . S
N680 Tb683 2.600 . S
C681 C679 1.392 . S
C681 N680 1.327 . S
C681 H688 0.930 . S
C682 C677 1.385 . S
C682 C679 1.370 . S
C682 H701 0.930 . S
Tb683 N680 2.600 . S
Tb683 N684 2.660 1_556 S
Tb683 O717 2.362 . S
Tb683 O718 2.421 . S
Tb683 O722 2.546 . S
Tb683 O723 2.610 . S
Tb683 O725 2.320 1_556 S
Tb683 O726 2.552 . S
Tb683 O727 2.413 1_556 S
Tb683 C747 2.833 1_556 S
N684 C676 1.360 . S
N684 Tb683 2.660 1_554 S
N684 C685 1.305 . S
C685 N684 1.305 . S
C685 C687 1.407 . S
C685 H692 0.930 . S
C686 C674 1.410 . S
C686 C687 1.345 . S
C686 H694 0.930 . S
C687 C685 1.407 . S
C687 C686 1.345 . S
C687 H689 0.930 . S
H688 C681 0.930 . S
H689 C687 0.930 . S
H690 C678 0.930 . S
H691 C679 0.931 . S
H692 C685 0.930 . S
H693 C707 0.930 . S
H694 C686 0.930 . S
H695 C713 0.930 . S
H696 C704 0.930 . S
H697 C711 0.931 . S
H698 C675 0.929 1_556 S
H699 C705 0.930 . S
H700 C738 0.930 . S
H701 C682 0.930 . S
H702 C737 0.929 . S
N703 Tb672 2.660 . S
N703 C704 1.305 . S
N703 C708 1.360 . S
C704 H696 0.930 . S
C704 N703 1.305 . S
C704 C707 1.407 . S
C705 H699 0.930 . S
C705 C706 1.410 . S
C705 C707 1.345 . S
C706 C705 1.410 . S
C706 C708 1.417 . S
C706 C738 1.432 . S
C707 H693 0.930 . S
C707 C704 1.407 . S
C707 C705 1.345 . S
C708 N703 1.360 . S
C708 C706 1.417 . S
C708 C712 1.432 . S
H709 C714 0.930 . S
N710 Tb672 2.600 1_554 S
N710 C712 1.359 1_554 S
N710 C713 1.327 . S
C711 H697 0.931 . S
C711 C713 1.392 . S
C711 C714 1.370 . S
C712 C708 1.432 . S
C712 N710 1.359 1_556 S
C712 C715 1.414 1_556 S
C713 H695 0.930 . S
C713 N710 1.327 . S
C713 C711 1.392 . S
C714 H709 0.930 . S
C714 C711 1.370 . S
C714 C715 1.385 . S
C715 C712 1.414 1_554 S
C715 C714 1.385 . S
C715 C737 1.444 1_554 S
O716 Tb672 2.546 1_554 S
O716 C736 1.251 1_554 S
O717 Tb672 2.610 . S
O717 Tb683 2.362 . S
O717 C728 1.283 1_556 S
O718 Tb683 2.421 . S
O718 C735 1.262 . S
O719 Tb672 2.320 . S
O719 C735 1.260 . S
O720 Tb672 2.552 1_554 S
O720 C728 1.243 . S
O721 Tb672 2.413 . S
O721 C736 1.256 . S
O722 Tb683 2.546 . S
O722 C747 1.251 1_556 S
O723 Tb672 2.362 . S
O723 Tb683 2.610 . S
O723 C739 1.283 . S
O724 Tb672 2.421 1_554 S
O724 C746 1.262 . S
O725 Tb683 2.320 1_554 S
O725 C746 1.260 . S
O726 Tb683 2.552 . S
O726 C739 1.243 . S
O727 Tb683 2.413 1_554 S
O727 C747 1.256 . S
C728 O717 1.283 1_554 S
C728 O720 1.243 . S
C729 C731 1.382 . S
C729 C733 1.393 . S
C729 C736 1.500 . S
C730 C731 1.400 . S
C730 C732 1.384 . S
C731 C729 1.382 . S
C731 C730 1.400 . S
C731 H748 0.930 . S
C732 C730 1.384 . S
C732 C734 1.392 . S
C732 H749 0.931 . S
C733 C729 1.393 . S
C733 C734 1.401 . S
C733 H750 0.930 1_556 S
C734 C732 1.392 . S
C734 C733 1.401 . S
C734 H751 0.924 1_556 S
C735 O718 1.262 . S
C735 O719 1.260 . S
C736 Tb672 2.833 . S
C736 O716 1.251 1_556 S
C736 O721 1.256 . S
C736 C729 1.500 . S
C737 H702 0.929 . S
C737 C715 1.444 1_556 S
C737 C738 1.317 . S
C738 H700 0.930 . S
C738 C706 1.432 . S
C738 C737 1.317 . S
C739 O723 1.283 . S
C739 O726 1.243 . S
C740 C741 1.382 . S
C740 C744 1.393 1_554 S
C740 C747 1.500 . S
C741 C740 1.382 . S
C741 C742 1.400 . S
C741 H752 0.930 . S
C742 C741 1.400 . S
C742 C743 1.384 . S
C743 C742 1.384 . S
C743 C745 1.392 . S
C743 H753 0.931 . S
C744 C740 1.393 1_556 S
C744 C745 1.401 1_556 S
C744 H754 0.930 . S
C745 C743 1.392 . S
C745 C744 1.401 1_554 S
C745 H755 0.930 1_554 S
C746 O724 1.262 . S
C746 O725 1.260 . S
C747 Tb683 2.833 1_554 S
C747 O722 1.251 1_554 S
C747 O727 1.256 . S
C747 C740 1.500 . S
H748 C731 0.930 . S
H749 C732 0.931 . S
H750 C733 0.930 1_554 S
H751 C734 0.924 1_554 S
H752 C741 0.930 . S
H753 C743 0.931 . S
H754 C744 0.930 . S
H755 C745 0.930 1_556 S
C756 C757 1.369 . S
C756 C758 1.419 . S
C756 H760 0.930 . S
C757 C756 1.369 . S
C757 C766 1.429 . S
C758 C756 1.419 . S
C758 C759 1.363 . S
C758 H761 0.929 1_554 S
C759 C758 1.363 . S
C759 C765 1.428 . S
H760 C756 0.930 . S
H761 C758 0.929 1_556 S
S762 N763 1.613 . S
S762 N764 1.610 . S
N763 S762 1.613 . S
N763 C766 1.350 . S
N764 S762 1.610 . S
N764 C765 1.351 . S
C765 C759 1.428 . S
C765 N764 1.351 . S
C765 C766 1.434 . S
C766 C757 1.429 . S
C766 N763 1.350 . S
C766 C765 1.434 . S
C767 C768 1.369 . S
C767 C769 1.419 1_554 S
C767 H771 0.930 1_554 S
C768 C767 1.369 . S
C768 C777 1.429 . S
C769 C767 1.419 1_556 S
C769 C770 1.363 1_556 S
C769 H772 0.929 . S
C770 C769 1.363 1_554 S
C770 C776 1.428 . S
H771 C767 0.930 1_556 S
H772 C769 0.929 . S
S773 N774 1.613 . S
S773 N775 1.610 . S
N774 S773 1.613 . S
N774 C777 1.350 . S
N775 S773 1.610 . S
N775 C776 1.351 . S
C776 C770 1.428 . S
C776 N775 1.351 . S
C776 C777 1.434 . S
C777 C768 1.429 . S
C777 N774 1.350 . S
C777 C776 1.434 . S
C778 C779 1.369 . S
C778 C780 1.419 . S
C778 H782 0.930 . S
C779 C778 1.369 . S
C779 C788 1.429 . S
C780 C778 1.419 . S
C780 C781 1.363 . S
C780 H783 0.929 . S
C781 C780 1.363 . S
C781 C787 1.428 . S
H782 C778 0.930 . S
H783 C780 0.929 . S
S784 N785 1.613 . S
S784 N786 1.610 . S
N785 S784 1.613 . S
N785 C788 1.350 . S
N786 S784 1.610 . S
N786 C787 1.351 . S
C787 C781 1.428 . S
C787 N786 1.351 . S
C787 C788 1.434 . S
C788 C779 1.429 . S
C788 N785 1.350 . S
C788 C787 1.434 . S
C789 C790 1.369 1_556 S
C789 C791 1.419 . S
C789 H793 0.930 . S
C790 C789 1.369 1_554 S
C790 C799 1.429 . S
C791 C789 1.419 . S
C791 C792 1.363 1_556 S
C791 H794 0.929 . S
C792 C791 1.363 1_554 S
C792 C798 1.428 . S
H793 C789 0.930 . S
H794 C791 0.929 . S
S795 N796 1.613 . S
S795 N797 1.610 . S
N796 S795 1.613 . S
N796 C799 1.350 . S
N797 S795 1.610 . S
N797 C798 1.351 . S
C798 C792 1.428 . S
C798 N797 1.351 . S
C798 C799 1.434 . S
C799 C790 1.429 . S
C799 N796 1.350 . S
C799 C798 1.434 . S
C800 C801 1.369 . S
C800 C802 1.419 . S
C800 H804 0.930 . S
C801 C800 1.369 . S
C801 C810 1.429 . S
C802 C800 1.419 . S
C802 C803 1.363 . S
C802 H805 0.929 1_655 S
C803 C802 1.363 . S
C803 C809 1.428 . S
H804 C800 0.930 . S
H805 C802 0.929 1_455 S
S806 N807 1.613 . S
S806 N808 1.610 . S
N807 S806 1.613 . S
N807 C810 1.350 . S
N808 S806 1.610 . S
N808 C809 1.351 . S
C809 C803 1.428 . S
C809 N808 1.351 . S
C809 C810 1.434 . S
C810 C801 1.429 . S
C810 N807 1.350 . S
C810 C809 1.434 . S
C811 C812 1.369 . S
C811 C813 1.419 . S
C811 H815 0.930 . S
C812 C811 1.369 . S
C812 C821 1.429 . S
C813 C811 1.419 . S
C813 C814 1.363 . S
C813 H816 0.929 . S
C814 C813 1.363 . S
C814 C820 1.428 . S
H815 C811 0.930 . S
H816 C813 0.929 . S
S817 N818 1.613 1_556 S
S817 N819 1.610 . S
N818 S817 1.613 1_554 S
N818 C821 1.350 . S
N819 S817 1.610 . S
N819 C820 1.351 1_556 S
C820 C814 1.428 . S
C820 N819 1.351 1_554 S
C820 C821 1.434 . S
C821 C812 1.429 . S
C821 N818 1.350 . S
C821 C820 1.434 . S
C822 C823 1.369 . S
C822 C824 1.419 . S
C822 H826 0.930 . S
C823 C822 1.369 . S
C823 C832 1.429 . S
C824 C822 1.419 . S
C824 C825 1.363 . S
C824 H827 0.929 . S
C825 C824 1.363 . S
C825 C831 1.428 . S
H826 C822 0.930 . S
H827 C824 0.929 . S
S828 N829 1.613 . S
S828 N830 1.610 . S
N829 S828 1.613 . S
N829 C832 1.350 . S
N830 S828 1.610 . S
N830 C831 1.351 . S
C831 C825 1.428 . S
C831 N830 1.351 . S
C831 C832 1.434 . S
C832 C823 1.429 . S
C832 N829 1.350 . S
C832 C831 1.434 . S
C833 C834 1.369 . S
C833 C835 1.419 . S
C833 H837 0.930 . S
C834 C833 1.369 . S
C834 C843 1.429 . S
C835 C833 1.419 . S
C835 C836 1.363 . S
C835 H838 0.929 . S
C836 C835 1.363 . S
C836 C842 1.428 . S
H837 C833 0.930 . S
H838 C835 0.929 . S
S839 N840 1.613 . S
S839 N841 1.610 . S
N840 S839 1.613 . S
N840 C843 1.350 . S
N841 S839 1.610 . S
N841 C842 1.351 . S
C842 C836 1.428 . S
C842 N841 1.351 . S
C842 C843 1.434 . S
C843 C834 1.429 . S
C843 N840 1.350 . S
C843 C842 1.434 . S
C844 C845 1.369 . S
C844 C846 1.419 . S
C844 H848 0.930 . S
C845 C844 1.369 . S
C845 C854 1.429 . S
C846 C844 1.419 . S
C846 C847 1.363 . S
C846 H849 0.929 . S
C847 C846 1.363 . S
C847 C853 1.428 . S
H848 C844 0.930 . S
H849 C846 0.929 . S
S850 N851 1.613 . S
S850 N852 1.610 . S
N851 S850 1.613 . S
N851 C854 1.350 1_565 S
N852 S850 1.610 . S
N852 C853 1.351 1_565 S
C853 C847 1.428 . S
C853 N852 1.351 1_545 S
C853 C854 1.434 . S
C854 C845 1.429 . S
C854 N851 1.350 1_545 S
C854 C853 1.434 . S
C855 C856 1.369 . S
C855 C857 1.419 . S
C855 H859 0.930 . S
C856 C855 1.369 . S
C856 C865 1.429 . S
C857 C855 1.419 . S
C857 C858 1.363 . S
C857 H860 0.929 . S
C858 C857 1.363 . S
C858 C864 1.428 . S
H859 C855 0.930 . S
H860 C857 0.929 . S
S861 N862 1.613 . S
S861 N863 1.610 . S
N862 S861 1.613 . S
N862 C865 1.350 . S
N863 S861 1.610 . S
N863 C864 1.351 . S
C864 C858 1.428 . S
C864 N863 1.351 . S
C864 C865 1.434 . S
C865 C856 1.429 . S
C865 N862 1.350 . S
C865 C864 1.434 . S
C866 C867 1.412 . S
C866 C868 1.373 1_565 S
C866 H870 0.934 1_565 S
C867 C866 1.412 . S
C867 C876 1.429 . S
C868 C866 1.373 1_545 S
C868 C869 1.363 . S
C868 H871 0.929 . S
C869 C868 1.363 . S
C869 C875 1.428 1_545 S
H870 C866 0.934 1_545 S
H871 C868 0.929 . S
S872 N873 1.613 . S
S872 N874 1.610 . S
N873 S872 1.613 . S
N873 C876 1.350 . S
N874 S872 1.610 . S
N874 C875 1.351 . S
C875 C869 1.428 1_565 S
C875 N874 1.351 . S
C875 C876 1.434 . S
C876 C867 1.429 . S
C876 N873 1.350 . S
C876 C875 1.434 . S
C877 C878 1.369 . S
C877 C879 1.419 . S
C877 H881 0.930 1_455 S
C878 C877 1.369 . S
C878 C887 1.429 . S
C879 C877 1.419 . S
C879 C880 1.363 . S
C879 H882 0.929 . S
C880 C879 1.363 . S
C880 C886 1.428 . S
H881 C877 0.930 1_655 S
H882 C879 0.929 . S
S883 N884 1.613 . S
S883 N885 1.610 . S
N884 S883 1.613 . S
N884 C887 1.350 . S
N885 S883 1.610 . S
N885 C886 1.351 . S
C886 C880 1.428 . S
C886 N885 1.351 . S
C886 C887 1.434 . S
C887 C878 1.429 . S
C887 N884 1.350 . S
C887 C886 1.434 . S
C888 C889 1.369 1_554 S
C888 C890 1.419 . S
C888 H892 0.930 . S
C889 C888 1.369 1_556 S
C889 C898 1.429 . S
C890 C888 1.419 . S
C890 C891 1.363 . S
C890 H893 0.929 . S
C891 C890 1.363 . S
C891 C897 1.428 1_554 S
H892 C888 0.930 . S
H893 C890 0.929 . S
S894 N895 1.613 . S
S894 N896 1.610 . S
N895 S894 1.613 . S
N895 C898 1.350 . S
N896 S894 1.610 . S
N896 C897 1.351 . S
C897 C891 1.428 1_556 S
C897 N896 1.351 . S
C897 C898 1.434 . S
C898 C889 1.429 . S
C898 N895 1.350 . S
C898 C897 1.434 . S
C899 C900 1.369 . S
C899 C901 1.419 . S
C899 H903 0.930 . S
C900 C899 1.369 . S
C900 C909 1.429 1_556 S
C901 C899 1.419 . S
C901 C902 1.363 . S
C901 H904 0.929 . S
C902 C901 1.363 . S
C902 C908 1.428 . S
H903 C899 0.930 . S
H904 C901 0.929 . S
S905 N906 1.613 . S
S905 N907 1.610 . S
N906 S905 1.613 . S
N906 C909 1.350 . S
N907 S905 1.610 . S
N907 C908 1.351 1_554 S
C908 C902 1.428 . S
C908 N907 1.351 1_556 S
C908 C909 1.434 1_556 S
C909 C900 1.429 1_554 S
C909 N906 1.350 . S
C909 C908 1.434 1_554 S
C910 C911 1.369 . S
C910 C912 1.419 . S
C910 H914 0.930 . S
C911 C910 1.369 . S
C911 C920 1.429 . S
C912 C910 1.419 . S
C912 C913 1.363 . S
C912 H915 0.929 . S
C913 C912 1.363 . S
C913 C919 1.428 . S
H914 C910 0.930 . S
H915 C912 0.929 . S
S916 N917 1.613 . S
S916 N918 1.610 . S
N917 S916 1.613 . S
N917 C920 1.350 . S
N918 S916 1.610 . S
N918 C919 1.351 . S
C919 C913 1.428 . S
C919 N918 1.351 . S
C919 C920 1.434 . S
C920 C911 1.429 . S
C920 N917 1.350 . S
C920 C919 1.434 . S
C921 C922 1.369 . S
C921 C923 1.419 . S
C921 H925 0.930 . S
C922 C921 1.369 . S
C922 C931 1.429 . S
C923 C921 1.419 . S
C923 C924 1.363 . S
C923 H926 0.929 . S
C924 C923 1.363 . S
C924 C930 1.428 . S
H925 C921 0.930 . S
H926 C923 0.929 . S
S927 N928 1.613 1_556 S
S927 N929 1.610 . S
N928 S927 1.613 1_554 S
N928 C931 1.350 . S
N929 S927 1.610 . S
N929 C930 1.351 1_556 S
C930 C924 1.428 . S
C930 N929 1.351 1_554 S
C930 C931 1.434 . S
C931 C922 1.429 . S
C931 N928 1.350 . S
C931 C930 1.434 . S
C932 C933 1.369 . S
C932 C934 1.419 . S
C932 H936 0.930 . S
C933 C932 1.369 . S
C933 C942 1.429 . S
C934 C932 1.419 . S
C934 C935 1.363 . S
C934 H937 0.929 . S
C935 C934 1.363 . S
C935 C941 1.428 . S
H936 C932 0.930 . S
H937 C934 0.929 . S
S938 N939 1.613 . S
S938 N940 1.610 . S
N939 S938 1.613 . S
N939 C942 1.350 . S
N940 S938 1.610 . S
N940 C941 1.351 . S
C941 C935 1.428 . S
C941 N940 1.351 . S
C941 C942 1.434 . S
C942 C933 1.429 . S
C942 N939 1.350 . S
C942 C941 1.434 . S
C943 C944 1.369 . S
C943 C945 1.419 . S
C943 H947 0.930 . S
C944 C943 1.369 . S
C944 C953 1.429 1_556 S
C945 C943 1.419 . S
C945 C946 1.363 1_556 S
C945 H948 0.929 . S
C946 C945 1.363 1_554 S
C946 C952 1.428 . S
H947 C943 0.930 . S
H948 C945 0.929 . S
S949 N950 1.613 . S
S949 N951 1.610 . S
N950 S949 1.613 . S
N950 C953 1.350 . S
N951 S949 1.610 . S
N951 C952 1.351 . S
C952 C946 1.428 . S
C952 N951 1.351 . S
C952 C953 1.434 . S
C953 C944 1.429 1_554 S
C953 N950 1.350 . S
C953 C952 1.434 . S
C954 C955 1.369 . S
C954 C956 1.419 . S
C954 H958 0.930 . S
C955 C954 1.369 . S
C955 C964 1.429 . S
C956 C954 1.419 . S
C956 C957 1.363 . S
C956 H959 0.929 . S
C957 C956 1.363 . S
C957 C963 1.428 . S
H958 C954 0.930 . S
H959 C956 0.929 . S
S960 N961 1.613 . S
S960 N962 1.610 . S
N961 S960 1.613 . S
N961 C964 1.350 1_655 S
N962 S960 1.610 . S
N962 C963 1.351 1_655 S
C963 C957 1.428 . S
C963 N962 1.351 1_455 S
C963 C964 1.434 . S
C964 C955 1.429 . S
C964 N961 1.350 1_455 S
C964 C963 1.434 . S
C965 C966 1.369 . S
C965 C967 1.419 . S
C965 H969 0.930 . S
C966 C965 1.369 . S
C966 C975 1.429 . S
C967 C965 1.419 . S
C967 C968 1.363 . S
C967 H970 0.929 . S
C968 C967 1.363 . S
C968 C974 1.428 . S
H969 C965 0.930 . S
H970 C967 0.929 . S
S971 N972 1.613 . S
S971 N973 1.610 . S
N972 S971 1.613 . S
N972 C975 1.350 . S
N973 S971 1.610 . S
N973 C974 1.351 . S
C974 C968 1.428 . S
C974 N973 1.351 . S
C974 C975 1.434 . S
C975 C966 1.429 . S
C975 N972 1.350 . S
C975 C974 1.434 . S
C976 C977 1.365 1_545 S
C976 C978 1.419 . S
C976 H980 0.930 . S
C977 C976 1.365 1_565 S
C977 C986 1.422 . S
C978 C976 1.419 . S
C978 C979 1.363 . S
C978 H981 0.929 . S
C979 C978 1.363 . S
C979 C985 1.428 1_545 S
H980 C976 0.930 . S
H981 C978 0.929 . S
S982 N983 1.613 . S
S982 N984 1.610 . S
N983 S982 1.613 . S
N983 C986 1.350 . S
N984 S982 1.610 . S
N984 C985 1.351 . S
C985 C979 1.428 1_565 S
C985 N984 1.351 . S
C985 C986 1.434 . S
C986 C977 1.422 . S
C986 N983 1.350 . S
C986 C985 1.434 . S
C987 C988 1.369 . S
C987 C989 1.419 . S
C987 H991 0.930 . S
C988 C987 1.369 . S
C988 C997 1.429 . S
C989 C987 1.419 . S
C989 C990 1.363 . S
C989 H992 0.929 . S
C990 C989 1.363 . S
C990 C996 1.428 . S
H991 C987 0.930 . S
H992 C989 0.929 . S
S993 N994 1.613 . S
S993 N995 1.610 . S
N994 S993 1.613 . S
N994 C997 1.350 . S
N995 S993 1.610 . S
N995 C996 1.351 . S
C996 C990 1.428 . S
C996 N995 1.351 . S
C996 C997 1.434 . S
C997 C988 1.429 . S
C997 N994 1.350 . S
C997 C996 1.434 . S
C998 C999 1.369 . S
C998 C1000 1.419 . S
C998 H1002 0.930 . S
C999 C998 1.369 . S
C999 C1008 1.429 . S
C1000 C998 1.419 . S
C1000 C1001 1.363 . S
C1000 H1003 0.929 . S
C1001 C1000 1.363 . S
C1001 C1007 1.428 . S
H1002 C998 0.930 . S
H1003 C1000 0.929 . S
S1004 N1005 1.613 . S
S1004 N1006 1.610 . S
N1005 S1004 1.613 . S
N1005 C1008 1.350 . S
N1006 S1004 1.610 . S
N1006 C1007 1.351 . S
C1007 C1001 1.428 . S
C1007 N1006 1.351 . S
C1007 C1008 1.434 . S
C1008 C999 1.429 . S
C1008 N1005 1.350 . S
C1008 C1007 1.434 . S
C1009 C1010 1.369 . S
C1009 C1011 1.419 . S
C1009 H1013 0.930 . S
C1010 C1009 1.369 . S
C1010 C1019 1.429 . S
C1011 C1009 1.419 . S
C1011 C1012 1.363 . S
C1011 H1014 0.929 . S
C1012 C1011 1.363 . S
C1012 C1018 1.428 . S
H1013 C1009 0.930 . S
H1014 C1011 0.929 . S
S1015 N1016 1.613 . S
S1015 N1017 1.610 . S
N1016 S1015 1.613 . S
N1016 C1019 1.350 . S
N1017 S1015 1.610 . S
N1017 C1018 1.351 . S
C1018 C1012 1.428 . S
C1018 N1017 1.351 . S
C1018 C1019 1.434 . S
C1019 C1010 1.429 . S
C1019 N1016 1.350 . S
C1019 C1018 1.434 . S
C1020 C1021 1.369 . S
C1020 C1022 1.419 . S
C1020 H1024 0.930 . S
C1021 C1020 1.369 . S
C1021 C1030 1.429 . S
C1022 C1020 1.419 . S
C1022 C1023 1.363 . S
C1022 H1025 0.929 . S
C1023 C1022 1.363 . S
C1023 C1029 1.428 . S
H1024 C1020 0.930 . S
H1025 C1022 0.929 . S
S1026 N1027 1.613 . S
S1026 N1028 1.610 . S
N1027 S1026 1.613 . S
N1027 C1030 1.350 . S
N1028 S1026 1.610 . S
N1028 C1029 1.351 . S
C1029 C1023 1.428 . S
C1029 N1028 1.351 . S
C1029 C1030 1.434 . S
C1030 C1021 1.429 . S
C1030 N1027 1.350 . S
C1030 C1029 1.434 . S
C1031 C1032 1.369 . S
C1031 C1033 1.419 . S
C1031 H1035 0.930 . S
C1032 C1031 1.369 . S
C1032 C1041 1.429 . S
C1033 C1031 1.419 . S
C1033 C1034 1.363 . S
C1033 H1036 0.929 . S
C1034 C1033 1.363 . S
C1034 C1040 1.428 . S
H1035 C1031 0.930 . S
H1036 C1033 0.929 . S
S1037 N1038 1.613 . S
S1037 N1039 1.610 . S
N1038 S1037 1.613 . S
N1038 C1041 1.350 . S
N1039 S1037 1.610 . S
N1039 C1040 1.351 . S
C1040 C1034 1.428 . S
C1040 N1039 1.351 . S
C1040 C1041 1.434 . S
C1041 C1032 1.429 . S
C1041 N1038 1.350 . S
C1041 C1040 1.434 . S
C1042 C1043 1.369 . S
C1042 C1044 1.419 . S
C1042 H1046 0.930 . S
C1043 C1042 1.369 . S
C1043 C1052 1.429 . S
C1044 C1042 1.419 . S
C1044 C1045 1.363 . S
C1044 H1047 0.929 . S
C1045 C1044 1.363 . S
C1045 C1051 1.428 . S
H1046 C1042 0.930 . S
H1047 C1044 0.929 . S
S1048 N1049 1.613 . S
S1048 N1050 1.610 . S
N1049 S1048 1.613 . S
N1049 C1052 1.350 . S
N1050 S1048 1.610 . S
N1050 C1051 1.351 . S
C1051 C1045 1.428 . S
C1051 N1050 1.351 . S
C1051 C1052 1.434 . S
C1052 C1043 1.429 . S
C1052 N1049 1.350 . S
C1052 C1051 1.434 . S
C757 C58 1.311 . S
C759 C646 1.515 . S
C768 C140 2.325 . S
C770 C728 2.148 . S
C779 C226 1.254 . S
C781 C560 1.488 . S
C790 C392 2.442 1_554 S
C792 C224 2.562 . S
C801 C476 2.407 . S
C803 C56 2.292 1_655 S
C812 C142 1.980 . S
C814 C308 2.159 . S
C823 C644 1.652 . S
C825 C478 1.687 . S
C834 C730 1.621 . S
C836 C310 1.779 . S
C845 C394 2.497 . S
C847 C562 2.699 . S
C856 C238 1.494 . S
C858 C67 1.814 . S
C867 C154 1.216 . S
C869 C70 1.517 . S
C878 C151 3.023 1_455 S
C880 C235 3.241 . S
C889 C322 1.749 . S
C891 C487 2.302 . S
C900 C319 2.112 1_556 S
C902 C406 1.796 . S
C911 C403 2.312 1_556 S
C913 C490 1.637 . S
C922 C742 1.813 . S
C924 C571 2.419 1_554 S
C933 C658 0.772 . S
C935 C574 0.983 . S
C944 C739 2.143 . S
C946 C655 1.963 . S
C955 C63 1.407 . S
C957 C74 1.408 . S
C966 C158 1.398 . S
C968 C147 1.396 . S
C977 C231 1.469 . S
C979 C242 1.466 . S
C988 C315 1.493 . S
C990 C326 1.506 . S
C999 C399 1.382 . S
C1001 C410 1.381 . S
C1010 C483 1.465 . S
C1012 C494 1.475 . S
C1021 C567 1.428 . S
C1023 C578 1.418 . S
C1032 C651 1.392 . S
C1034 C662 1.387 . S
C1043 C735 1.397 . S
C1045 C746 1.393 . S
