# Generated by pormake.
# Topology fne, (5)-cn, num edge types: 1
# Building blocks:
#     Node 0, Type 0, BuildingBlock: BEQFEK_clean_sbu_0, # of connection points: 5
#     Node 1, Type 0, BuildingBlock: BEQFEK_clean_sbu_0, # of connection points: 5
#     Node 2, Type 0, BuildingBlock: BEQFEK_clean_sbu_0, # of connection points: 5
#     Node 3, Type 0, BuildingBlock: BEQFEK_clean_sbu_0, # of connection points: 5
#     Node 4, Type 0, BuildingBlock: BEQFEK_clean_sbu_0, # of connection points: 5
#     Node 5, Type 0, BuildingBlock: BEQFEK_clean_sbu_0, # of connection points: 5
#     Edge 6, Type (0, 0), BuildingBlock: CIFDUS_clean_linker_0, # of connection points: 2
#     Edge 7, Type (0, 0), BuildingBlock: CIFDUS_clean_linker_0, # of connection points: 2
#     Edge 8, Type (0, 0), BuildingBlock: CIFDUS_clean_linker_0, # of connection points: 2
#     Edge 9, Type (0, 0), BuildingBlock: CIFDUS_clean_linker_0, # of connection points: 2
#     Edge 10, Type (0, 0), BuildingBlock: CIFDUS_clean_linker_0, # of connection points: 2
#     Edge 11, Type (0, 0), BuildingBlock: CIFDUS_clean_linker_0, # of connection points: 2
#     Edge 12, Type (0, 0), BuildingBlock: CIFDUS_clean_linker_0, # of connection points: 2
#     Edge 13, Type (0, 0), BuildingBlock: CIFDUS_clean_linker_0, # of connection points: 2
#     Edge 14, Type (0, 0), BuildingBlock: CIFDUS_clean_linker_0, # of connection points: 2
#     Edge 15, Type (0, 0), BuildingBlock: CIFDUS_clean_linker_0, # of connection points: 2
#     Edge 16, Type (0, 0), BuildingBlock: CIFDUS_clean_linker_0, # of connection points: 2
#     Edge 17, Type (0, 0), BuildingBlock: CIFDUS_clean_linker_0, # of connection points: 2
#     Edge 18, Type (0, 0), BuildingBlock: CIFDUS_clean_linker_0, # of connection points: 2
#     Edge 19, Type (0, 0), BuildingBlock: CIFDUS_clean_linker_0, # of connection points: 2
#     Edge 20, Type (0, 0), BuildingBlock: CIFDUS_clean_linker_0, # of connection points: 2
# Relax obj value: 0.230
# Max RMSD: 0.184
# Mean RMSD: 0.184
data_MOF--net-fne--node1-BEQFEK_clean_sbu_0--edge1-CIFDUS_clean_linker_0
_symmetry_space_group_name_H-M    P1
_symmetry_Int_Tables_number       1
_symmetry_cell_setting            triclinic
loop_
_symmetry_equiv_pos_as_xyz
'x, y, z'
_cell_length_a     38.903504
_cell_length_b     38.880254
_cell_length_c     16.786871
_cell_angle_alpha  90.247288
_cell_angle_beta   89.874149
_cell_angle_gamma 120.1316
loop_
_atom_site_label
_atom_site_type_symbol
_atom_site_fract_x
_atom_site_fract_y
_atom_site_fract_z
_atom_type_partial_charge
Co0 Co 0.52529 0.24469 0.94005 0.0
Co1 Co 0.49814 0.20039 0.10247 0.0
C2 C 0.57222 0.21375 0.0133 0.0
O3 O 0.56878 0.23414 0.95833 0.0
O4 O 0.54686 0.19903 0.06937 0.0
C5 C 0.55847 0.27378 0.78936 0.0
O6 O 0.58999 0.27427 0.81836 0.0
C7 C 0.51827 0.20927 0.26848 0.0
C8 C 0.4618 0.1677 0.32787 0.0
C9 C 0.50027 0.19831 0.34255 0.0
N10 N 0.49129 0.18748 0.21261 0.0
N11 N 0.45782 0.16195 0.24837 0.0
C12 C 0.56001 0.24117 0.25016 0.0
H13 H 0.57172 0.23251 0.1986 0.0
H14 H 0.56041 0.26904 0.23444 0.0
H15 H 0.57989 0.24685 0.30191 0.0
C16 C 0.52491 0.30926 0.03684 0.0
N17 N 0.5191 0.27227 0.02668 0.0
N18 N 0.50429 0.25193 0.09258 0.0
C19 C 0.49822 0.2746 0.14516 0.0
C20 C 0.5123 0.31201 0.11296 0.0
C21 C 0.54293 0.34131 0.97554 0.0
H22 H 0.51887 0.34008 0.9381 0.0
H23 H 0.56333 0.33668 0.93649 0.0
H24 H 0.55917 0.37106 0.00424 0.0
O25 O 0.47622 0.19278 0.92206 0.0
O26 O 0.45251 0.16192 0.03751 0.0
H27 H 0.45282 0.22731 0.21527 0.0
H28 H 0.45769 0.27536 0.23189 0.0
C29 C 0.47433 0.25957 0.22011 0.0
H30 H 0.4944 0.26536 0.27132 0.0
H31 H 0.43163 0.14242 0.21847 0.0
O32 O 0.53202 0.2713 0.83715 0.0
C33 C 0.45008 0.16364 0.96212 0.0
Co34 Co 0.48492 0.56345 0.28402 0.0
Co35 Co 0.496 0.53258 0.45006 0.0
C36 C 0.55907 0.60966 0.37731 0.0
O37 O 0.53832 0.60581 0.31589 0.0
O38 O 0.54605 0.58388 0.43265 0.0
C39 C 0.49743 0.60034 0.13182 0.0
O40 O 0.53086 0.62752 0.16432 0.0
C41 C 0.50032 0.54274 0.62223 0.0
C42 C 0.48417 0.48304 0.66606 0.0
C43 C 0.49211 0.52038 0.69144 0.0
N44 N 0.4966 0.51944 0.55951 0.0
N45 N 0.48776 0.48402 0.58616 0.0
C46 C 0.50664 0.58387 0.61398 0.0
H47 H 0.50058 0.58922 0.55211 0.0
H48 H 0.48723 0.58854 0.65588 0.0
H49 H 0.53806 0.60581 0.62813 0.0
C50 C 0.41536 0.55893 0.3703 0.0
N51 N 0.44714 0.55381 0.36496 0.0
N52 N 0.45028 0.5377 0.43145 0.0
C53 C 0.41962 0.53049 0.47949 0.0
C54 C 0.39724 0.54473 0.44372 0.0
C55 C 0.40362 0.57822 0.30756 0.0
H56 H 0.42987 0.59886 0.27152 0.0
H57 H 0.38982 0.59445 0.33483 0.0
H58 H 0.38147 0.55485 0.26752 0.0
O59 O 0.48732 0.51479 0.26447 0.0
O60 O 0.4956 0.49131 0.37857 0.0
H61 H 0.37627 0.49015 0.56353 0.0
H62 H 0.4226 0.52647 0.60633 0.0
C63 C 0.40896 0.50649 0.55444 0.0
H64 H 0.41927 0.48466 0.55153 0.0
H65 H 0.48218 0.45998 0.54961 0.0
O66 O 0.47093 0.57362 0.17601 0.0
C67 C 0.49161 0.48915 0.30302 0.0
Co68 Co 0.11261 0.51028 0.59445 0.0
Co69 Co 0.15318 0.51965 0.7607 0.0
C70 C 0.13918 0.5832 0.68954 0.0
O71 O 0.12237 0.56309 0.62711 0.0
O72 O 0.15193 0.56966 0.7438 0.0
C73 C 0.06381 0.48884 0.43307 0.0
O74 O 0.02836 0.48185 0.45421 0.0
C75 C 0.14583 0.52132 0.93354 0.0
C76 C 0.19316 0.51043 0.97625 0.0
C77 C 0.16194 0.51526 0.0022 0.0
N78 N 0.16591 0.51907 0.87026 0.0
N79 N 0.19443 0.51296 0.8962 0.0
C80 C 0.11223 0.5296 0.9275 0.0
H81 H 0.08357 0.50114 0.92625 0.0
H82 H 0.11218 0.54734 0.97944 0.0
H83 H 0.11434 0.54567 0.87185 0.0
C84 C 0.04711 0.43874 0.67671 0.0
N85 N 0.08378 0.47115 0.67305 0.0
N86 N 0.10304 0.47361 0.73916 0.0
C87 C 0.08019 0.44175 0.78479 0.0
C88 C 0.04356 0.4192 0.74825 0.0
C89 C 0.01572 0.42854 0.61518 0.0
H90 H 0.02341 0.41756 0.56073 0.0
H91 H 0.01494 0.45579 0.59936 0.0
H92 H 0.98595 0.40565 0.63665 0.0
O93 O 0.16465 0.5141 0.57604 0.0
O94 O 0.19501 0.52078 0.69145 0.0
H95 H 0.12711 0.44164 0.85235 0.0
H96 H 0.07934 0.39714 0.86205 0.0
C97 C 0.0947 0.43001 0.85664 0.0
H98 H 0.08825 0.44183 0.91126 0.0
H99 H 0.21413 0.50957 0.8592 0.0
O100 O 0.09079 0.49827 0.48505 0.0
C101 C 0.19429 0.51823 0.61572 0.0
Co102 Co 0.81043 0.16106 0.98667 0.0
Co103 Co 0.83354 0.20003 0.15585 0.0
C104 C 0.7565 0.18061 0.07339 0.0
O105 O 0.7637 0.16601 0.01189 0.0
O106 O 0.78079 0.19442 0.13154 0.0
C107 C 0.77613 0.12562 0.83437 0.0
O108 O 0.7419 0.11874 0.86338 0.0
C109 C 0.82266 0.19651 0.32923 0.0
C110 C 0.88261 0.24172 0.37001 0.0
C111 C 0.84561 0.21276 0.39746 0.0
N112 N 0.84554 0.21431 0.26518 0.0
N113 N 0.88114 0.24169 0.29001 0.0
C114 C 0.77973 0.16499 0.32394 0.0
H115 H 0.76657 0.16728 0.26741 0.0
H116 H 0.77699 0.1352 0.32537 0.0
H117 H 0.7627 0.16757 0.37446 0.0
C118 C 0.81829 0.09793 0.06936 0.0
N119 N 0.82049 0.13362 0.06739 0.0
N120 N 0.83291 0.15132 0.13693 0.0
C121 C 0.84045 0.12801 0.18445 0.0
C122 C 0.83067 0.09309 0.14397 0.0
C123 C 0.80272 0.06854 0.00231 0.0
H124 H 0.82761 0.07454 0.96156 0.0
H125 H 0.78011 0.07171 0.96811 0.0
H126 H 0.78952 0.03765 0.02478 0.0
O127 O 0.85642 0.21487 0.97166 0.0
O128 O 0.87457 0.24362 0.09009 0.0
H129 H 0.87662 0.12436 0.27774 0.0
H130 H 0.83775 0.13303 0.3111 0.0
C131 C 0.86038 0.14031 0.26409 0.0
H132 H 0.8818 0.17267 0.26501 0.0
H133 H 0.90483 0.25938 0.25226 0.0
O134 O 0.80603 0.13817 0.88004 0.0
C135 C 0.87913 0.24458 0.01487 0.0
Co136 Co 0.85854 0.83465 0.23042 0.0
Co137 Co 0.8467 0.85619 0.40374 0.0
C138 C 0.78276 0.78506 0.32238 0.0
O139 O 0.80426 0.79262 0.26049 0.0
O140 O 0.79552 0.80699 0.38406 0.0
C141 C 0.84501 0.7931 0.08247 0.0
O142 O 0.81389 0.76448 0.11869 0.0
C143 C 0.83813 0.84735 0.57642 0.0
C144 C 0.86963 0.91016 0.6157 0.0
C145 C 0.85219 0.87147 0.64375 0.0
N146 N 0.84816 0.87093 0.51209 0.0
N147 N 0.8659 0.90835 0.53601 0.0
C148 C 0.82034 0.8031 0.57145 0.0
H149 H 0.82401 0.79402 0.5108 0.0
H150 H 0.83442 0.79266 0.61514 0.0
H151 H 0.78811 0.78854 0.58494 0.0
C152 C 0.93161 0.84188 0.30216 0.0
N153 N 0.89692 0.84164 0.3072 0.0
N154 N 0.89153 0.8496 0.38093 0.0
C155 C 0.92236 0.85422 0.42574 0.0
C156 C 0.94907 0.84997 0.37724 0.0
C157 C 0.94868 0.83722 0.22564 0.0
H158 H 0.94252 0.85257 0.17696 0.0
H159 H 0.93415 0.80515 0.21022 0.0
H160 H 0.98123 0.84952 0.23033 0.0
O161 O 0.85866 0.88472 0.21664 0.0
O162 O 0.8487 0.89999 0.33861 0.0
H163 H 0.92624 0.88817 0.52976 0.0
H164 H 0.95018 0.85889 0.54135 0.0
C165 C 0.9247 0.85969 0.51436 0.0
H166 H 0.89789 0.83496 0.54135 0.0
H167 H 0.87764 0.93269 0.49765 0.0
O168 O 0.87025 0.82287 0.12273 0.0
C169 C 0.85399 0.90748 0.26433 0.0
Co170 Co 0.22207 0.8857 0.56015 0.0
Co171 Co 0.187 0.87331 0.73262 0.0
C172 C 0.19408 0.80935 0.64919 0.0
O173 O 0.2101 0.8317 0.58929 0.0
O174 O 0.18347 0.82146 0.70988 0.0
C175 C 0.24977 0.87263 0.41171 0.0
O176 O 0.24738 0.84159 0.44771 0.0
C177 C 0.18579 0.86318 0.90564 0.0
C178 C 0.1552 0.89529 0.9446 0.0
C179 C 0.17584 0.87734 0.97302 0.0
N180 N 0.17297 0.87383 0.84107 0.0
N181 N 0.15363 0.89186 0.86484 0.0
C182 C 0.21151 0.84465 0.90096 0.0
H183 H 0.22378 0.84752 0.84011 0.0
H184 H 0.23642 0.85883 0.9441 0.0
H185 H 0.19337 0.81258 0.91554 0.0
C186 C 0.28687 0.9595 0.63576 0.0
N187 N 0.25275 0.92417 0.63879 0.0
N188 N 0.23897 0.91775 0.71221 0.0
C189 C 0.26454 0.94835 0.75865 0.0
C190 C 0.29541 0.97624 0.71173 0.0
C191 C 0.30911 0.97779 0.56045 0.0
H192 H 0.28796 0.97051 0.51041 0.0
H193 H 0.32846 0.96517 0.54643 0.0
H194 H 0.32784 0.01056 0.56632 0.0
O195 O 0.1712 0.88377 0.54489 0.0
O196 O 0.14693 0.8782 0.66708 0.0
H197 H 0.23454 0.9516 0.86324 0.0
H198 H 0.28768 0.97406 0.87599 0.0
C199 C 0.26106 0.94942 0.84742 0.0
H200 H 0.25804 0.92191 0.87235 0.0
H201 H 0.14163 0.90412 0.8264 0.0
O202 O 0.2458 0.89807 0.45249 0.0
C203 C 0.14456 0.88134 0.59209 0.0
H204 H 0.60641 0.19826 0.13851 0.0
H205 H 0.61399 0.21356 0.88336 0.0
H206 H 0.67015 0.20202 0.87908 0.0
H207 H 0.71808 0.18924 0.94805 0.0
H208 H 0.71422 0.17947 0.20417 0.0
H209 H 0.65548 0.18703 0.20799 0.0
C210 C 0.62031 0.19895 0.08201 0.0
C211 C 0.6061 0.2067 0.01138 0.0
C212 C 0.65319 0.19326 0.0802 0.0
C213 C 0.62458 0.20787 0.93861 0.0
C214 C 0.65659 0.20116 0.93606 0.0
C215 C 0.70413 0.18842 0.0046 0.0
C216 C 0.72017 0.18352 0.07566 0.0
C217 C 0.67124 0.19401 0.0065 0.0
C218 C 0.70232 0.18321 0.1487 0.0
C219 C 0.66879 0.18753 0.1509 0.0
H220 H 0.73398 0.74772 0.44843 0.0
H221 H 0.73853 0.74748 0.19134 0.0
H222 H 0.66929 0.69457 0.18614 0.0
H223 H 0.60745 0.64853 0.25389 0.0
H224 H 0.60305 0.64533 0.51067 0.0
H225 H 0.67219 0.69968 0.51676 0.0
C226 C 0.7198 0.73601 0.39134 0.0
C227 C 0.74139 0.75157 0.32043 0.0
C228 C 0.67998 0.7052 0.38867 0.0
C229 C 0.72271 0.73589 0.24687 0.0
C230 C 0.68303 0.70576 0.24374 0.0
C231 C 0.62152 0.65997 0.3112 0.0
C232 C 0.60018 0.64333 0.3817 0.0
C233 C 0.66138 0.69033 0.31417 0.0
C234 C 0.61897 0.65783 0.45558 0.0
C235 C 0.65844 0.68882 0.45906 0.0
H236 H 0.15147 0.6339 0.56938 0.0
H237 H 0.14547 0.62482 0.82553 0.0
H238 H 0.16169 0.69425 0.8363 0.0
H239 H 0.17856 0.75787 0.7722 0.0
H240 H 0.18856 0.767 0.51591 0.0
H241 H 0.17022 0.69738 0.50603 0.0
C242 C 0.15332 0.64702 0.62752 0.0
C243 C 0.14688 0.62429 0.69648 0.0
C244 C 0.16381 0.68709 0.63326 0.0
C245 C 0.1502 0.64182 0.77157 0.0
C246 C 0.15953 0.68147 0.77773 0.0
C247 C 0.17678 0.74458 0.71429 0.0
C248 C 0.18495 0.76763 0.64498 0.0
C249 C 0.16663 0.70448 0.70892 0.0
C250 C 0.18278 0.75008 0.57032 0.0
C251 C 0.17205 0.71017 0.56447 0.0
H252 H 0.48498 0.1648 0.48825 0.0
H253 H 0.54681 0.27858 0.37085 0.0
H254 H 0.57165 0.31195 0.49789 0.0
H255 H 0.57559 0.30917 0.64431 0.0
H256 H 0.51002 0.1961 0.76232 0.0
H257 H 0.48646 0.1622 0.63415 0.0
C258 C 0.50403 0.19687 0.49062 0.0
C259 C 0.5154 0.21882 0.4198 0.0
C260 C 0.5173 0.21612 0.56438 0.0
C261 C 0.5393 0.26051 0.42379 0.0
C262 C 0.55308 0.27985 0.49679 0.0
C263 C 0.55612 0.27718 0.64133 0.0
C264 C 0.54437 0.25496 0.71153 0.0
C265 C 0.54243 0.25797 0.56751 0.0
C266 C 0.51913 0.21356 0.70817 0.0
C267 C 0.50577 0.19422 0.63516 0.0
H268 H 0.53296 0.5923 0.76879 0.0
H269 H 0.43866 0.47104 0.80048 0.0
H270 H 0.42862 0.48618 0.93677 0.0
H271 H 0.44873 0.53281 0.04896 0.0
H272 H 0.54383 0.65383 0.0185 0.0
H273 H 0.55012 0.64026 0.87855 0.0
C274 C 0.50955 0.56941 0.80461 0.0
C275 C 0.4863 0.53068 0.7738 0.0
C276 C 0.5038 0.57836 0.8831 0.0
C277 C 0.45713 0.50107 0.82264 0.0
C278 C 0.45116 0.50975 0.90051 0.0
C279 C 0.47025 0.55651 0.01138 0.0
C280 C 0.49574 0.59432 0.04431 0.0
C281 C 0.47452 0.5482 0.9316 0.0
C282 C 0.5238 0.62447 0.99474 0.0
C283 C 0.52762 0.61666 0.9148 0.0
H284 H 0.08599 0.48406 0.06066 0.0
H285 H 0.20878 0.53861 0.13323 0.0
H286 H 0.18896 0.53388 0.27256 0.0
H287 H 0.13749 0.51581 0.37279 0.0
H288 H 0.01463 0.46393 0.30203 0.0
H289 H 0.03399 0.467 0.162 0.0
C290 C 0.10857 0.49602 0.10651 0.0
C291 C 0.14901 0.5128 0.08616 0.0
C292 C 0.09697 0.49363 0.18663 0.0
C293 C 0.17753 0.52595 0.14717 0.0
C294 C 0.16623 0.52331 0.22683 0.0
C295 C 0.11475 0.50504 0.32701 0.0
C296 C 0.07458 0.48962 0.34804 0.0
C297 C 0.12611 0.50737 0.24711 0.0
C298 C 0.04574 0.476 0.28756 0.0
C299 C 0.05681 0.47776 0.20753 0.0
H300 H 0.83174 0.19366 0.77056 0.0
H301 H 0.73717 0.07635 0.70822 0.0
H302 H 0.75094 0.09246 0.56589 0.0
H303 H 0.79107 0.13985 0.4614 0.0
H304 H 0.88026 0.25972 0.52616 0.0
H305 H 0.86818 0.24219 0.66652 0.0
C306 C 0.81436 0.17153 0.72562 0.0
C307 C 0.78404 0.13368 0.74895 0.0
C308 C 0.8215 0.18151 0.645 0.0
C309 C 0.76092 0.10551 0.69093 0.0
C310 C 0.76878 0.11479 0.60996 0.0
C311 C 0.80685 0.16276 0.50547 0.0
C312 C 0.83579 0.20153 0.48241 0.0
C313 C 0.79892 0.15283 0.58639 0.0
C314 C 0.8576 0.22976 0.5418 0.0
C315 C 0.85072 0.21981 0.62219 0.0
H316 H 0.80159 0.80459 0.72823 0.0
H317 H 0.91409 0.91416 0.74337 0.0
H318 H 0.92432 0.89705 0.87709 0.0
H319 H 0.90023 0.8527 0.9914 0.0
H320 H 0.78804 0.74274 0.97722 0.0
H321 H 0.7801 0.75717 0.83924 0.0
C322 C 0.82878 0.82427 0.75986 0.0
C323 C 0.85717 0.8604 0.72534 0.0
C324 C 0.83487 0.81395 0.83642 0.0
C325 C 0.89155 0.88626 0.76869 0.0
C326 C 0.89766 0.87637 0.84492 0.0
C327 C 0.87433 0.83148 0.95786 0.0
C328 C 0.84458 0.79693 0.99497 0.0
C329 C 0.86941 0.84044 0.87951 0.0
C330 C 0.81138 0.76966 0.95026 0.0
C331 C 0.8066 0.77807 0.87156 0.0
H332 H 0.24343 0.92675 0.32098 0.0
H333 H 0.24298 0.81562 0.3063 0.0
H334 H 0.21965 0.80681 0.16877 0.0
H335 H 0.19279 0.82733 0.05797 0.0
H336 H 0.19446 0.93907 0.07321 0.0
H337 H 0.22211 0.94988 0.20684 0.0
C338 C 0.23893 0.9009 0.28741 0.0
C339 C 0.24458 0.87173 0.3243 0.0
C340 C 0.22461 0.89551 0.20919 0.0
C341 C 0.23878 0.83855 0.27955 0.0
C342 C 0.22505 0.83326 0.20108 0.0
C343 C 0.20011 0.85451 0.08951 0.0
C344 C 0.19192 0.88249 0.0549 0.0
C345 C 0.2168 0.86102 0.16607 0.0
C346 C 0.20015 0.9168 0.09842 0.0
C347 C 0.21635 0.92327 0.17467 0.0
H348 H 0.4872 0.36195 0.06095 0.0
H349 H 0.54254 0.33892 0.25976 0.0
H350 H 0.54001 0.39074 0.33785 0.0
H351 H 0.52036 0.44147 0.35103 0.0
H352 H 0.46626 0.4656 0.15089 0.0
H353 H 0.46999 0.41476 0.07231 0.0
C354 C 0.49923 0.36884 0.12086 0.0
C355 C 0.51477 0.34667 0.1549 0.0
C356 C 0.49753 0.39861 0.16559 0.0
C357 C 0.52998 0.35544 0.23284 0.0
C358 C 0.52854 0.38501 0.27751 0.0
C359 C 0.50921 0.43544 0.29042 0.0
C360 C 0.49285 0.45715 0.25729 0.0
C361 C 0.51187 0.40643 0.24493 0.0
C362 C 0.47898 0.4493 0.17812 0.0
C363 C 0.48114 0.42025 0.13288 0.0
H364 H 0.32332 0.51964 0.38348 0.0
H365 H 0.39728 0.57458 0.58915 0.0
H366 H 0.34094 0.57047 0.66175 0.0
H367 H 0.27003 0.54873 0.66897 0.0
H368 H 0.19586 0.49546 0.46236 0.0
H369 H 0.25262 0.50142 0.38815 0.0
C370 C 0.32705 0.53126 0.44365 0.0
C371 C 0.36407 0.54697 0.48141 0.0
C372 C 0.29439 0.52866 0.48526 0.0
C373 C 0.36874 0.56181 0.5595 0.0
C374 C 0.33659 0.55946 0.60104 0.0
C375 C 0.26625 0.53826 0.60786 0.0
C376 C 0.22871 0.52129 0.57172 0.0
C377 C 0.29911 0.54228 0.56507 0.0
C378 C 0.22445 0.50848 0.49189 0.0
C379 C 0.25691 0.51194 0.44922 0.0
H380 H 0.90139 0.25375 0.85895 0.0
H381 H 0.92737 0.31743 0.08266 0.0
H382 H 0.97832 0.37765 0.01753 0.0
H383 H 0.01587 0.41191 0.898 0.0
H384 H 0.99354 0.34768 0.67644 0.0
H385 H 0.93954 0.28809 0.73923 0.0
C386 C 0.91816 0.28077 0.89364 0.0
C387 C 0.91058 0.28097 0.97582 0.0
C388 C 0.94762 0.31522 0.85597 0.0
C389 C 0.93267 0.31631 0.01958 0.0
C390 C 0.96171 0.35081 0.98232 0.0
C391 C -0.00067 0.38475 0.86361 0.0
C392 C 0.00867 0.38401 0.7829 0.0
C393 C 0.96949 0.35051 0.90075 0.0
C394 C 0.98651 0.34902 0.73843 0.0
C395 C 0.95598 0.31492 0.77454 0.0
H396 H 0.86058 0.0505 0.07396 0.0
H397 H 0.80195 0.05743 0.28651 0.0
H398 H 0.80562 0.00187 0.34451 0.0
H399 H 0.82525 0.95111 0.33462 0.0
H400 H 0.88136 0.94218 0.11953 0.0
H401 H 0.8787 -0.00158 0.06263 0.0
C402 C 0.84826 0.03947 0.13255 0.0
C403 C 0.8313 0.05808 0.1762 0.0
C404 C 0.85013 0.00725 0.1652 0.0
C405 C 0.81573 0.04388 0.25238 0.0
C406 C 0.81768 0.01206 0.28545 0.0
C407 C 0.83711 0.96162 0.27552 0.0
C408 C 0.85359 0.94255 0.23163 0.0
C409 C 0.83498 0.99362 0.24256 0.0
C410 C 0.86845 0.95629 0.15467 0.0
C411 C 0.86694 0.98845 0.12196 0.0
H412 H 0.09588 0.83259 0.47794 0.0
H413 H 0.11675 0.9309 0.62962 0.0
H414 H 0.06108 0.93342 0.56722 0.0
H415 H 0.00612 0.90679 0.47106 0.0
H416 H 0.9779 0.80097 0.33706 0.0
H417 H 0.03802 0.80326 0.38746 0.0
C418 C 0.08799 0.85442 0.4972 0.0
C419 C 0.11 0.88155 0.5579 0.0
C420 C 0.05519 0.85464 0.46322 0.0
C421 C 0.09977 0.90963 0.58327 0.0
C422 C 0.06823 0.91118 0.54732 0.0
C423 C 0.01284 0.88388 0.45381 0.0
C424 C 0.98733 0.85342 0.4014 0.0
C425 C 0.04564 0.88368 0.48759 0.0
C426 C -0.00283 0.82484 0.37706 0.0
C427 C 0.03125 0.82586 0.40662 0.0
H428 H 0.29142 0.02987 0.80871 0.0
H429 H 0.37449 0.0099 0.67467 0.0
H430 H 0.43006 0.06919 0.73528 0.0
H431 H 0.45486 0.12234 0.83753 0.0
H432 H 0.37132 0.13313 0.98953 0.0
H433 H 0.31579 0.08048 0.91399 0.0
C434 C 0.32174 0.03827 0.79334 0.0
C435 C 0.32889 0.0151 0.73859 0.0
C436 C 0.3533 0.07009 0.83338 0.0
C437 C 0.3682 0.02724 0.71668 0.0
C438 C 0.39994 0.06078 0.75216 0.0
C439 C 0.42441 0.11297 0.85386 0.0
C440 C 0.41681 0.13116 0.91877 0.0
C441 C 0.39283 0.08165 0.81239 0.0
C442 C 0.37753 0.11904 0.94015 0.0
C443 C 0.34595 0.08924 0.89671 0.0
loop_
_geom_bond_atom_site_label_1
_geom_bond_atom_site_label_2
_geom_bond_distance
_geom_bond_site_symmetry_2
_ccdc_geom_bond_type
Co0 O3 1.970 . S
Co0 N17 1.989 . S
Co0 O25 1.967 . S
Co0 O32 1.920 . S
Co1 O4 1.966 . S
Co1 N10 2.022 . S
Co1 N18 1.993 . S
Co1 O26 1.941 . S
C2 O3 1.258 1_554 S
C2 O4 1.263 . S
O3 Co0 1.970 . S
O3 C2 1.258 1_556 S
O4 Co1 1.966 . S
O4 C2 1.263 . S
C5 O6 1.235 . S
C5 O32 1.289 . S
O6 C5 1.235 . S
C7 C9 1.400 . S
C7 N10 1.351 . S
C7 C12 1.501 . S
C8 C9 1.387 . S
C8 N11 1.341 . S
C9 C7 1.400 . S
C9 C8 1.387 . S
N10 Co1 2.022 . S
N10 C7 1.351 . S
N10 N11 1.365 . S
N11 C8 1.341 . S
N11 N10 1.365 . S
N11 H31 0.862 . S
C12 C7 1.501 . S
C12 H13 0.961 . S
C12 H14 0.961 . S
C12 H15 0.960 . S
H13 C12 0.961 . S
H14 C12 0.961 . S
H15 C12 0.960 . S
C16 N17 1.342 . S
C16 C20 1.401 1_556 S
C16 C21 1.499 . S
N17 Co0 1.989 . S
N17 C16 1.342 . S
N17 N18 1.388 1_556 S
N18 Co1 1.993 . S
N18 N17 1.388 1_554 S
N18 C19 1.346 . S
C19 N18 1.346 . S
C19 C20 1.396 . S
C19 C29 1.510 . S
C20 C16 1.401 1_554 S
C20 C19 1.396 . S
C21 C16 1.499 . S
C21 H22 0.959 . S
C21 H23 0.960 . S
C21 H24 0.961 . S
H22 C21 0.959 . S
H23 C21 0.960 . S
H24 C21 0.961 . S
O25 Co0 1.967 . S
O25 C33 1.258 . S
O26 Co1 1.941 . S
O26 C33 1.266 1_554 S
H27 C29 0.959 . S
H28 C29 0.961 . S
C29 C19 1.510 . S
C29 H27 0.959 . S
C29 H28 0.961 . S
C29 H30 0.960 . S
H30 C29 0.960 . S
H31 N11 0.862 . S
O32 Co0 1.920 . S
O32 C5 1.289 . S
C33 O25 1.258 . S
C33 O26 1.266 1_556 S
Co34 O37 1.970 . S
Co34 N51 1.989 . S
Co34 O59 1.967 . S
Co34 O66 1.920 . S
Co35 O38 1.966 . S
Co35 N44 2.022 . S
Co35 N52 1.993 . S
Co35 O60 1.941 . S
C36 O37 1.258 . S
C36 O38 1.263 . S
O37 Co34 1.970 . S
O37 C36 1.258 . S
O38 Co35 1.966 . S
O38 C36 1.263 . S
C39 O40 1.235 . S
C39 O66 1.289 . S
O40 C39 1.235 . S
C41 C43 1.400 . S
C41 N44 1.351 . S
C41 C46 1.501 . S
C42 C43 1.387 . S
C42 N45 1.341 . S
C43 C41 1.400 . S
C43 C42 1.387 . S
N44 Co35 2.022 . S
N44 C41 1.351 . S
N44 N45 1.365 . S
N45 C42 1.341 . S
N45 N44 1.365 . S
N45 H65 0.862 . S
C46 C41 1.501 . S
C46 H47 0.961 . S
C46 H48 0.961 . S
C46 H49 0.960 . S
H47 C46 0.961 . S
H48 C46 0.961 . S
H49 C46 0.960 . S
C50 N51 1.342 . S
C50 C54 1.401 . S
C50 C55 1.499 . S
N51 Co34 1.989 . S
N51 C50 1.342 . S
N51 N52 1.388 . S
N52 Co35 1.993 . S
N52 N51 1.388 . S
N52 C53 1.346 . S
C53 N52 1.346 . S
C53 C54 1.396 . S
C53 C63 1.510 . S
C54 C50 1.401 . S
C54 C53 1.396 . S
C55 C50 1.499 . S
C55 H56 0.959 . S
C55 H57 0.960 . S
C55 H58 0.961 . S
H56 C55 0.959 . S
H57 C55 0.960 . S
H58 C55 0.961 . S
O59 Co34 1.967 . S
O59 C67 1.258 . S
O60 Co35 1.941 . S
O60 C67 1.266 . S
H61 C63 0.959 . S
H62 C63 0.961 . S
C63 C53 1.510 . S
C63 H61 0.959 . S
C63 H62 0.961 . S
C63 H64 0.960 . S
H64 C63 0.960 . S
H65 N45 0.862 . S
O66 Co34 1.920 . S
O66 C39 1.289 . S
C67 O59 1.258 . S
C67 O60 1.266 . S
Co68 O71 1.970 . S
Co68 N85 1.989 . S
Co68 O93 1.967 . S
Co68 O100 1.920 . S
Co69 O72 1.966 . S
Co69 N78 2.022 . S
Co69 N86 1.993 . S
Co69 O94 1.941 . S
C70 O71 1.258 . S
C70 O72 1.263 . S
O71 Co68 1.970 . S
O71 C70 1.258 . S
O72 Co69 1.966 . S
O72 C70 1.263 . S
C73 O74 1.235 . S
C73 O100 1.289 . S
O74 C73 1.235 . S
C75 C77 1.400 1_556 S
C75 N78 1.351 . S
C75 C80 1.501 . S
C76 C77 1.387 . S
C76 N79 1.341 1_554 S
C77 C75 1.400 1_554 S
C77 C76 1.387 . S
N78 Co69 2.022 . S
N78 C75 1.351 . S
N78 N79 1.365 . S
N79 C76 1.341 1_556 S
N79 N78 1.365 . S
N79 H99 0.862 . S
C80 C75 1.501 . S
C80 H81 0.961 . S
C80 H82 0.961 . S
C80 H83 0.960 . S
H81 C80 0.961 . S
H82 C80 0.961 . S
H83 C80 0.960 . S
C84 N85 1.342 . S
C84 C88 1.401 . S
C84 C89 1.499 . S
N85 Co68 1.989 . S
N85 C84 1.342 . S
N85 N86 1.388 . S
N86 Co69 1.993 . S
N86 N85 1.388 . S
N86 C87 1.346 . S
C87 N86 1.346 . S
C87 C88 1.396 . S
C87 C97 1.510 . S
C88 C84 1.401 . S
C88 C87 1.396 . S
C89 C84 1.499 . S
C89 H90 0.959 . S
C89 H91 0.960 1_455 S
C89 H92 0.961 . S
H90 C89 0.959 . S
H91 C89 0.960 1_655 S
H92 C89 0.961 . S
O93 Co68 1.967 . S
O93 C101 1.258 . S
O94 Co69 1.941 . S
O94 C101 1.266 . S
H95 C97 0.959 . S
H96 C97 0.961 . S
C97 C87 1.510 . S
C97 H95 0.959 . S
C97 H96 0.961 . S
C97 H98 0.960 . S
H98 C97 0.960 . S
H99 N79 0.862 . S
O100 Co68 1.920 . S
O100 C73 1.289 . S
C101 O93 1.258 . S
C101 O94 1.266 . S
Co102 O105 1.970 . S
Co102 N119 1.989 . S
Co102 O127 1.967 . S
Co102 O134 1.920 . S
Co103 O106 1.966 . S
Co103 N112 2.022 . S
Co103 N120 1.993 . S
Co103 O128 1.941 . S
C104 O105 1.258 1_554 S
C104 O106 1.263 . S
O105 Co102 1.970 . S
O105 C104 1.258 1_556 S
O106 Co103 1.966 . S
O106 C104 1.263 . S
C107 O108 1.235 . S
C107 O134 1.289 . S
O108 C107 1.235 . S
C109 C111 1.400 . S
C109 N112 1.351 . S
C109 C114 1.501 . S
C110 C111 1.387 . S
C110 N113 1.341 . S
C111 C109 1.400 . S
C111 C110 1.387 . S
N112 Co103 2.022 . S
N112 C109 1.351 . S
N112 N113 1.365 . S
N113 C110 1.341 . S
N113 N112 1.365 . S
N113 H133 0.862 . S
C114 C109 1.501 . S
C114 H115 0.961 . S
C114 H116 0.961 . S
C114 H117 0.960 . S
H115 C114 0.961 . S
H116 C114 0.961 . S
H117 C114 0.960 . S
C118 N119 1.342 . S
C118 C122 1.401 1_556 S
C118 C123 1.499 . S
N119 Co102 1.989 . S
N119 C118 1.342 . S
N119 N120 1.388 1_556 S
N120 Co103 1.993 . S
N120 N119 1.388 1_554 S
N120 C121 1.346 . S
C121 N120 1.346 . S
C121 C122 1.396 . S
C121 C131 1.510 . S
C122 C118 1.401 1_554 S
C122 C121 1.396 . S
C123 C118 1.499 . S
C123 H124 0.959 . S
C123 H125 0.960 . S
C123 H126 0.961 . S
H124 C123 0.959 . S
H125 C123 0.960 . S
H126 C123 0.961 . S
O127 Co102 1.967 . S
O127 C135 1.258 . S
O128 Co103 1.941 . S
O128 C135 1.266 1_554 S
H129 C131 0.959 . S
H130 C131 0.961 . S
C131 C121 1.510 . S
C131 H129 0.959 . S
C131 H130 0.961 . S
C131 H132 0.960 . S
H132 C131 0.960 . S
H133 N113 0.862 . S
O134 Co102 1.920 . S
O134 C107 1.289 . S
C135 O127 1.258 . S
C135 O128 1.266 1_556 S
Co136 O139 1.970 . S
Co136 N153 1.989 . S
Co136 O161 1.967 . S
Co136 O168 1.920 . S
Co137 O140 1.966 . S
Co137 N146 2.022 . S
Co137 N154 1.993 . S
Co137 O162 1.941 . S
C138 O139 1.258 . S
C138 O140 1.263 . S
O139 Co136 1.970 . S
O139 C138 1.258 . S
O140 Co137 1.966 . S
O140 C138 1.263 . S
C141 O142 1.235 . S
C141 O168 1.289 . S
O142 C141 1.235 . S
C143 C145 1.400 . S
C143 N146 1.351 . S
C143 C148 1.501 . S
C144 C145 1.387 . S
C144 N147 1.341 . S
C145 C143 1.400 . S
C145 C144 1.387 . S
N146 Co137 2.022 . S
N146 C143 1.351 . S
N146 N147 1.365 . S
N147 C144 1.341 . S
N147 N146 1.365 . S
N147 H167 0.862 . S
C148 C143 1.501 . S
C148 H149 0.961 . S
C148 H150 0.961 . S
C148 H151 0.960 . S
H149 C148 0.961 . S
H150 C148 0.961 . S
H151 C148 0.960 . S
C152 N153 1.342 . S
C152 C156 1.401 . S
C152 C157 1.499 . S
N153 Co136 1.989 . S
N153 C152 1.342 . S
N153 N154 1.388 . S
N154 Co137 1.993 . S
N154 N153 1.388 . S
N154 C155 1.346 . S
C155 N154 1.346 . S
C155 C156 1.396 . S
C155 C165 1.510 . S
C156 C152 1.401 . S
C156 C155 1.396 . S
C157 C152 1.499 . S
C157 H158 0.959 . S
C157 H159 0.960 . S
C157 H160 0.961 . S
H158 C157 0.959 . S
H159 C157 0.960 . S
H160 C157 0.961 . S
O161 Co136 1.967 . S
O161 C169 1.258 . S
O162 Co137 1.941 . S
O162 C169 1.266 . S
H163 C165 0.959 . S
H164 C165 0.961 . S
C165 C155 1.510 . S
C165 H163 0.959 . S
C165 H164 0.961 . S
C165 H166 0.960 . S
H166 C165 0.960 . S
H167 N147 0.862 . S
O168 Co136 1.920 . S
O168 C141 1.289 . S
C169 O161 1.258 . S
C169 O162 1.266 . S
Co170 O173 1.970 . S
Co170 N187 1.989 . S
Co170 O195 1.967 . S
Co170 O202 1.920 . S
Co171 O174 1.966 . S
Co171 N180 2.022 . S
Co171 N188 1.993 . S
Co171 O196 1.941 . S
C172 O173 1.258 . S
C172 O174 1.263 . S
O173 Co170 1.970 . S
O173 C172 1.258 . S
O174 Co171 1.966 . S
O174 C172 1.263 . S
C175 O176 1.235 . S
C175 O202 1.289 . S
O176 C175 1.235 . S
C177 C179 1.400 1_556 S
C177 N180 1.351 . S
C177 C182 1.501 . S
C178 C179 1.387 . S
C178 N181 1.341 1_554 S
C179 C177 1.400 1_554 S
C179 C178 1.387 . S
N180 Co171 2.022 . S
N180 C177 1.351 . S
N180 N181 1.365 . S
N181 C178 1.341 1_556 S
N181 N180 1.365 . S
N181 H201 0.862 . S
C182 C177 1.501 . S
C182 H183 0.961 . S
C182 H184 0.961 . S
C182 H185 0.960 . S
H183 C182 0.961 . S
H184 C182 0.961 . S
H185 C182 0.960 . S
C186 N187 1.342 . S
C186 C190 1.401 . S
C186 C191 1.499 . S
N187 Co170 1.989 . S
N187 C186 1.342 . S
N187 N188 1.388 . S
N188 Co171 1.993 . S
N188 N187 1.388 . S
N188 C189 1.346 . S
C189 N188 1.346 . S
C189 C190 1.396 . S
C189 C199 1.510 . S
C190 C186 1.401 . S
C190 C189 1.396 . S
C191 C186 1.499 . S
C191 H192 0.959 . S
C191 H193 0.960 . S
C191 H194 0.961 1_565 S
H192 C191 0.959 . S
H193 C191 0.960 . S
H194 C191 0.961 1_545 S
O195 Co170 1.967 . S
O195 C203 1.258 . S
O196 Co171 1.941 . S
O196 C203 1.266 . S
H197 C199 0.959 . S
H198 C199 0.961 . S
C199 C189 1.510 . S
C199 H197 0.959 . S
C199 H198 0.961 . S
C199 H200 0.960 . S
H200 C199 0.960 . S
H201 N181 0.862 . S
O202 Co170 1.920 . S
O202 C175 1.289 . S
C203 O195 1.258 . S
C203 O196 1.266 . S
H204 C210 0.930 . S
H205 C213 0.930 1_556 S
H206 C214 0.930 1_556 S
H207 C215 0.930 . S
H208 C218 0.930 . S
H209 C219 0.930 . S
C210 H204 0.930 . S
C210 C211 1.355 . S
C210 C212 1.415 . S
C211 C210 1.355 . S
C211 C213 1.419 . S
C212 C210 1.415 . S
C212 C217 1.425 . S
C212 C219 1.409 . S
C213 H205 0.930 1_554 S
C213 C211 1.419 . S
C213 C214 1.362 . S
C214 H206 0.930 1_554 S
C214 C213 1.362 . S
C214 C217 1.409 . S
C215 H207 0.930 . S
C215 C216 1.355 . S
C215 C217 1.415 . S
C216 C215 1.355 . S
C216 C218 1.419 . S
C217 C212 1.425 . S
C217 C214 1.409 . S
C217 C215 1.415 . S
C218 H208 0.930 . S
C218 C216 1.419 . S
C218 C219 1.362 . S
C219 H209 0.930 . S
C219 C212 1.409 . S
C219 C218 1.362 . S
H220 C226 0.930 . S
H221 C229 0.930 . S
H222 C230 0.930 . S
H223 C231 0.930 . S
H224 C234 0.930 . S
H225 C235 0.930 . S
C226 H220 0.930 . S
C226 C227 1.355 . S
C226 C228 1.415 . S
C227 C226 1.355 . S
C227 C229 1.419 . S
C228 C226 1.415 . S
C228 C233 1.425 . S
C228 C235 1.409 . S
C229 H221 0.930 . S
C229 C227 1.419 . S
C229 C230 1.362 . S
C230 H222 0.930 . S
C230 C229 1.362 . S
C230 C233 1.409 . S
C231 H223 0.930 . S
C231 C232 1.355 . S
C231 C233 1.415 . S
C232 C231 1.355 . S
C232 C234 1.419 . S
C233 C228 1.425 . S
C233 C230 1.409 . S
C233 C231 1.415 . S
C234 H224 0.930 . S
C234 C232 1.419 . S
C234 C235 1.362 . S
C235 H225 0.930 . S
C235 C228 1.409 . S
C235 C234 1.362 . S
H236 C242 0.930 . S
H237 C245 0.930 . S
H238 C246 0.930 . S
H239 C247 0.930 . S
H240 C250 0.930 . S
H241 C251 0.930 . S
C242 H236 0.930 . S
C242 C243 1.355 . S
C242 C244 1.415 . S
C243 C242 1.355 . S
C243 C245 1.419 . S
C244 C242 1.415 . S
C244 C249 1.425 . S
C244 C251 1.409 . S
C245 H237 0.930 . S
C245 C243 1.419 . S
C245 C246 1.362 . S
C246 H238 0.930 . S
C246 C245 1.362 . S
C246 C249 1.409 . S
C247 H239 0.930 . S
C247 C248 1.355 . S
C247 C249 1.415 . S
C248 C247 1.355 . S
C248 C250 1.419 . S
C249 C244 1.425 . S
C249 C246 1.409 . S
C249 C247 1.415 . S
C250 H240 0.930 . S
C250 C248 1.419 . S
C250 C251 1.362 . S
C251 H241 0.930 . S
C251 C244 1.409 . S
C251 C250 1.362 . S
H252 C258 0.930 . S
H253 C261 0.930 . S
H254 C262 0.930 . S
H255 C263 0.930 . S
H256 C266 0.930 . S
H257 C267 0.930 . S
C258 H252 0.930 . S
C258 C259 1.355 . S
C258 C260 1.415 . S
C259 C258 1.355 . S
C259 C261 1.419 . S
C260 C258 1.415 . S
C260 C265 1.425 . S
C260 C267 1.409 . S
C261 H253 0.930 . S
C261 C259 1.419 . S
C261 C262 1.362 . S
C262 H254 0.930 . S
C262 C261 1.362 . S
C262 C265 1.409 . S
C263 H255 0.930 . S
C263 C264 1.355 . S
C263 C265 1.415 . S
C264 C263 1.355 . S
C264 C266 1.419 . S
C265 C260 1.425 . S
C265 C262 1.409 . S
C265 C263 1.415 . S
C266 H256 0.930 . S
C266 C264 1.419 . S
C266 C267 1.362 . S
C267 H257 0.930 . S
C267 C260 1.409 . S
C267 C266 1.362 . S
H268 C274 0.930 . S
H269 C277 0.930 . S
H270 C278 0.930 . S
H271 C279 0.930 1_554 S
H272 C282 0.930 . S
H273 C283 0.930 . S
C274 H268 0.930 . S
C274 C275 1.355 . S
C274 C276 1.415 . S
C275 C274 1.355 . S
C275 C277 1.419 . S
C276 C274 1.415 . S
C276 C281 1.425 . S
C276 C283 1.409 . S
C277 H269 0.930 . S
C277 C275 1.419 . S
C277 C278 1.362 . S
C278 H270 0.930 . S
C278 C277 1.362 . S
C278 C281 1.409 . S
C279 H271 0.930 1_556 S
C279 C280 1.355 1_556 S
C279 C281 1.415 . S
C280 C279 1.355 1_554 S
C280 C282 1.419 . S
C281 C276 1.425 . S
C281 C278 1.409 . S
C281 C279 1.415 . S
C282 H272 0.930 . S
C282 C280 1.419 . S
C282 C283 1.362 1_554 S
C283 H273 0.930 . S
C283 C276 1.409 . S
C283 C282 1.362 1_556 S
H284 C290 0.930 . S
H285 C293 0.930 . S
H286 C294 0.930 . S
H287 C295 0.930 . S
H288 C298 0.930 . S
H289 C299 0.930 . S
C290 H284 0.930 . S
C290 C291 1.355 . S
C290 C292 1.415 . S
C291 C290 1.355 . S
C291 C293 1.419 . S
C292 C290 1.415 . S
C292 C297 1.425 . S
C292 C299 1.409 . S
C293 H285 0.930 . S
C293 C291 1.419 . S
C293 C294 1.362 . S
C294 H286 0.930 . S
C294 C293 1.362 . S
C294 C297 1.409 . S
C295 H287 0.930 . S
C295 C296 1.355 . S
C295 C297 1.415 . S
C296 C295 1.355 . S
C296 C298 1.419 . S
C297 C292 1.425 . S
C297 C294 1.409 . S
C297 C295 1.415 . S
C298 H288 0.930 . S
C298 C296 1.419 . S
C298 C299 1.362 . S
C299 H289 0.930 . S
C299 C292 1.409 . S
C299 C298 1.362 . S
H300 C306 0.930 . S
H301 C309 0.930 . S
H302 C310 0.930 . S
H303 C311 0.930 . S
H304 C314 0.930 . S
H305 C315 0.930 . S
C306 H300 0.930 . S
C306 C307 1.355 . S
C306 C308 1.415 . S
C307 C306 1.355 . S
C307 C309 1.419 . S
C308 C306 1.415 . S
C308 C313 1.425 . S
C308 C315 1.409 . S
C309 H301 0.930 . S
C309 C307 1.419 . S
C309 C310 1.362 . S
C310 H302 0.930 . S
C310 C309 1.362 . S
C310 C313 1.409 . S
C311 H303 0.930 . S
C311 C312 1.355 . S
C311 C313 1.415 . S
C312 C311 1.355 . S
C312 C314 1.419 . S
C313 C308 1.425 . S
C313 C310 1.409 . S
C313 C311 1.415 . S
C314 H304 0.930 . S
C314 C312 1.419 . S
C314 C315 1.362 . S
C315 H305 0.930 . S
C315 C308 1.409 . S
C315 C314 1.362 . S
H316 C322 0.930 . S
H317 C325 0.930 . S
H318 C326 0.930 . S
H319 C327 0.930 . S
H320 C330 0.930 . S
H321 C331 0.930 . S
C322 H316 0.930 . S
C322 C323 1.355 . S
C322 C324 1.415 . S
C323 C322 1.355 . S
C323 C325 1.419 . S
C324 C322 1.415 . S
C324 C329 1.425 . S
C324 C331 1.409 . S
C325 H317 0.930 . S
C325 C323 1.419 . S
C325 C326 1.362 . S
C326 H318 0.930 . S
C326 C325 1.362 . S
C326 C329 1.409 . S
C327 H319 0.930 . S
C327 C328 1.355 1_556 S
C327 C329 1.415 . S
C328 C327 1.355 1_554 S
C328 C330 1.419 . S
C329 C324 1.425 . S
C329 C326 1.409 . S
C329 C327 1.415 . S
C330 H320 0.930 . S
C330 C328 1.419 . S
C330 C331 1.362 1_554 S
C331 H321 0.930 . S
C331 C324 1.409 . S
C331 C330 1.362 1_556 S
H332 C338 0.930 . S
H333 C341 0.930 . S
H334 C342 0.930 . S
H335 C343 0.930 . S
H336 C346 0.930 . S
H337 C347 0.930 . S
C338 H332 0.930 . S
C338 C339 1.355 . S
C338 C340 1.415 . S
C339 C338 1.355 . S
C339 C341 1.419 . S
C340 C338 1.415 . S
C340 C345 1.425 . S
C340 C347 1.409 . S
C341 H333 0.930 . S
C341 C339 1.419 . S
C341 C342 1.362 . S
C342 H334 0.930 . S
C342 C341 1.362 . S
C342 C345 1.409 . S
C343 H335 0.930 . S
C343 C344 1.355 . S
C343 C345 1.415 . S
C344 C343 1.355 . S
C344 C346 1.419 . S
C345 C340 1.425 . S
C345 C342 1.409 . S
C345 C343 1.415 . S
C346 H336 0.930 . S
C346 C344 1.419 . S
C346 C347 1.362 . S
C347 H337 0.930 . S
C347 C340 1.409 . S
C347 C346 1.362 . S
H348 C354 0.930 . S
H349 C357 0.930 . S
H350 C358 0.930 . S
H351 C359 0.930 . S
H352 C362 0.930 . S
H353 C363 0.930 . S
C354 H348 0.930 . S
C354 C355 1.355 . S
C354 C356 1.415 . S
C355 C354 1.355 . S
C355 C357 1.419 . S
C356 C354 1.415 . S
C356 C361 1.425 . S
C356 C363 1.409 . S
C357 H349 0.930 . S
C357 C355 1.419 . S
C357 C358 1.362 . S
C358 H350 0.930 . S
C358 C357 1.362 . S
C358 C361 1.409 . S
C359 H351 0.930 . S
C359 C360 1.355 . S
C359 C361 1.415 . S
C360 C359 1.355 . S
C360 C362 1.419 . S
C361 C356 1.425 . S
C361 C358 1.409 . S
C361 C359 1.415 . S
C362 H352 0.930 . S
C362 C360 1.419 . S
C362 C363 1.362 . S
C363 H353 0.930 . S
C363 C356 1.409 . S
C363 C362 1.362 . S
H364 C370 0.930 . S
H365 C373 0.930 . S
H366 C374 0.930 . S
H367 C375 0.930 . S
H368 C378 0.930 . S
H369 C379 0.930 . S
C370 H364 0.930 . S
C370 C371 1.355 . S
C370 C372 1.415 . S
C371 C370 1.355 . S
C371 C373 1.419 . S
C372 C370 1.415 . S
C372 C377 1.425 . S
C372 C379 1.409 . S
C373 H365 0.930 . S
C373 C371 1.419 . S
C373 C374 1.362 . S
C374 H366 0.930 . S
C374 C373 1.362 . S
C374 C377 1.409 . S
C375 H367 0.930 . S
C375 C376 1.355 . S
C375 C377 1.415 . S
C376 C375 1.355 . S
C376 C378 1.419 . S
C377 C372 1.425 . S
C377 C374 1.409 . S
C377 C375 1.415 . S
C378 H368 0.930 . S
C378 C376 1.419 . S
C378 C379 1.362 . S
C379 H369 0.930 . S
C379 C372 1.409 . S
C379 C378 1.362 . S
H380 C386 0.930 . S
H381 C389 0.930 . S
H382 C390 0.930 . S
H383 C391 0.930 . S
H384 C394 0.930 . S
H385 C395 0.930 1_455 S
C386 H380 0.930 . S
C386 C387 1.355 . S
C386 C388 1.415 . S
C387 C386 1.355 . S
C387 C389 1.419 . S
C388 C386 1.415 . S
C388 C393 1.425 . S
C388 C395 1.409 . S
C389 H381 0.930 . S
C389 C387 1.419 . S
C389 C390 1.362 . S
C390 H382 0.930 . S
C390 C389 1.362 . S
C390 C393 1.409 . S
C391 H383 0.930 . S
C391 C392 1.355 . S
C391 C393 1.415 . S
C392 C391 1.355 . S
C392 C394 1.419 1_655 S
C393 C388 1.425 . S
C393 C390 1.409 . S
C393 C391 1.415 . S
C394 H384 0.930 . S
C394 C392 1.419 1_455 S
C394 C395 1.362 1_455 S
C395 H385 0.930 1_655 S
C395 C388 1.409 . S
C395 C394 1.362 1_655 S
H396 C402 0.930 . S
H397 C405 0.930 . S
H398 C406 0.930 . S
H399 C407 0.930 . S
H400 C410 0.930 . S
H401 C411 0.930 . S
C402 H396 0.930 . S
C402 C403 1.355 . S
C402 C404 1.415 1_545 S
C403 C402 1.355 . S
C403 C405 1.419 . S
C404 C402 1.415 1_565 S
C404 C409 1.425 . S
C404 C411 1.409 . S
C405 H397 0.930 . S
C405 C403 1.419 . S
C405 C406 1.362 1_545 S
C406 H398 0.930 . S
C406 C405 1.362 1_565 S
C406 C409 1.409 . S
C407 H399 0.930 . S
C407 C408 1.355 . S
C407 C409 1.415 . S
C408 C407 1.355 . S
C408 C410 1.419 . S
C409 C404 1.425 . S
C409 C406 1.409 . S
C409 C407 1.415 . S
C410 H400 0.930 . S
C410 C408 1.419 . S
C410 C411 1.362 . S
C411 H401 0.930 . S
C411 C404 1.409 . S
C411 C410 1.362 . S
H412 C418 0.930 . S
H413 C421 0.930 . S
H414 C422 0.930 . S
H415 C423 0.930 . S
H416 C426 0.930 . S
H417 C427 0.930 . S
C418 H412 0.930 . S
C418 C419 1.355 . S
C418 C420 1.415 . S
C419 C418 1.355 . S
C419 C421 1.419 . S
C420 C418 1.415 . S
C420 C425 1.425 . S
C420 C427 1.409 . S
C421 H413 0.930 . S
C421 C419 1.419 . S
C421 C422 1.362 . S
C422 H414 0.930 . S
C422 C421 1.362 . S
C422 C425 1.409 . S
C423 H415 0.930 . S
C423 C424 1.355 . S
C423 C425 1.415 . S
C424 C423 1.355 . S
C424 C426 1.419 . S
C425 C420 1.425 . S
C425 C422 1.409 . S
C425 C423 1.415 . S
C426 H416 0.930 . S
C426 C424 1.419 . S
C426 C427 1.362 . S
C427 H417 0.930 . S
C427 C420 1.409 . S
C427 C426 1.362 . S
H428 C434 0.930 . S
H429 C437 0.930 . S
H430 C438 0.930 . S
H431 C439 0.930 . S
H432 C442 0.928 1_554 S
H433 C443 0.930 . S
C434 H428 0.930 . S
C434 C435 1.355 . S
C434 C436 1.415 . S
C435 C434 1.355 . S
C435 C437 1.419 . S
C436 C434 1.415 . S
C436 C441 1.425 . S
C436 C443 1.409 . S
C437 H429 0.930 . S
C437 C435 1.419 . S
C437 C438 1.362 . S
C438 H430 0.930 . S
C438 C437 1.362 . S
C438 C441 1.409 . S
C439 H431 0.930 . S
C439 C440 1.355 . S
C439 C441 1.415 . S
C440 C439 1.355 . S
C440 C442 1.420 . S
C441 C436 1.425 . S
C441 C438 1.409 . S
C441 C439 1.415 . S
C442 H432 0.928 1_556 S
C442 C440 1.420 . S
C442 C443 1.363 . S
C443 H433 0.930 . S
C443 C436 1.409 . S
C443 C442 1.363 . S
C211 C2 1.585 . S
C216 C104 1.586 . S
C227 C138 1.598 . S
C232 C36 1.598 . S
C243 C70 1.587 . S
C248 C172 1.586 . S
C259 C9 1.138 . S
C264 C5 1.122 . S
C275 C43 1.096 . S
C280 C39 1.153 . S
C291 C77 1.139 . S
C296 C73 1.186 . S
C307 C107 1.183 . S
C312 C111 1.130 . S
C323 C145 1.124 . S
C328 C141 1.121 . S
C339 C175 1.135 . S
C344 C179 1.098 . S
C355 C20 1.592 . S
C360 C67 1.622 . S
C371 C54 1.586 . S
C376 C101 1.617 . S
C387 C135 1.621 . S
C392 C88 1.614 1_655 S
C403 C122 1.585 . S
C408 C169 1.616 . S
C419 C203 1.641 . S
C424 C156 1.620 1_455 S
C435 C190 1.633 1_545 S
C440 C33 1.642 . S
