# Generated by pormake.
# Topology wjd, (6)-cn, num edge types: 1
# Building blocks:
#     Node 0, Type 0, BuildingBlock: NUHQIS_clean_sbu_0, # of connection points: 6
#     Node 1, Type 0, BuildingBlock: NUHQIS_clean_sbu_0, # of connection points: 6
#     Node 2, Type 0, BuildingBlock: NUHQIS_clean_sbu_0, # of connection points: 6
#     Node 3, Type 0, BuildingBlock: NUHQIS_clean_sbu_0, # of connection points: 6
#     Node 4, Type 0, BuildingBlock: NUHQIS_clean_sbu_0, # of connection points: 6
#     Node 5, Type 0, BuildingBlock: NUHQIS_clean_sbu_0, # of connection points: 6
#     Node 6, Type 0, BuildingBlock: NUHQIS_clean_sbu_0, # of connection points: 6
#     Node 7, Type 0, BuildingBlock: NUHQIS_clean_sbu_0, # of connection points: 6
#     Node 8, Type 0, BuildingBlock: NUHQIS_clean_sbu_0, # of connection points: 6
#     Node 9, Type 0, BuildingBlock: NUHQIS_clean_sbu_0, # of connection points: 6
#     Node 10, Type 0, BuildingBlock: NUHQIS_clean_sbu_0, # of connection points: 6
#     Node 11, Type 0, BuildingBlock: NUHQIS_clean_sbu_0, # of connection points: 6
#     Edge 12, Type (0, 0), BuildingBlock: XUDNAN_clean_linker_2, # of connection points: 2
#     Edge 13, Type (0, 0), BuildingBlock: XUDNAN_clean_linker_2, # of connection points: 2
#     Edge 14, Type (0, 0), BuildingBlock: XUDNAN_clean_linker_2, # of connection points: 2
#     Edge 15, Type (0, 0), BuildingBlock: XUDNAN_clean_linker_2, # of connection points: 2
#     Edge 16, Type (0, 0), BuildingBlock: XUDNAN_clean_linker_2, # of connection points: 2
#     Edge 17, Type (0, 0), BuildingBlock: XUDNAN_clean_linker_2, # of connection points: 2
#     Edge 18, Type (0, 0), BuildingBlock: XUDNAN_clean_linker_2, # of connection points: 2
#     Edge 19, Type (0, 0), BuildingBlock: XUDNAN_clean_linker_2, # of connection points: 2
#     Edge 20, Type (0, 0), BuildingBlock: XUDNAN_clean_linker_2, # of connection points: 2
#     Edge 21, Type (0, 0), BuildingBlock: XUDNAN_clean_linker_2, # of connection points: 2
#     Edge 22, Type (0, 0), BuildingBlock: XUDNAN_clean_linker_2, # of connection points: 2
#     Edge 23, Type (0, 0), BuildingBlock: XUDNAN_clean_linker_2, # of connection points: 2
#     Edge 24, Type (0, 0), BuildingBlock: XUDNAN_clean_linker_2, # of connection points: 2
#     Edge 25, Type (0, 0), BuildingBlock: XUDNAN_clean_linker_2, # of connection points: 2
#     Edge 26, Type (0, 0), BuildingBlock: XUDNAN_clean_linker_2, # of connection points: 2
#     Edge 27, Type (0, 0), BuildingBlock: XUDNAN_clean_linker_2, # of connection points: 2
#     Edge 28, Type (0, 0), BuildingBlock: XUDNAN_clean_linker_2, # of connection points: 2
#     Edge 29, Type (0, 0), BuildingBlock: XUDNAN_clean_linker_2, # of connection points: 2
#     Edge 30, Type (0, 0), BuildingBlock: XUDNAN_clean_linker_2, # of connection points: 2
#     Edge 31, Type (0, 0), BuildingBlock: XUDNAN_clean_linker_2, # of connection points: 2
#     Edge 32, Type (0, 0), BuildingBlock: XUDNAN_clean_linker_2, # of connection points: 2
#     Edge 33, Type (0, 0), BuildingBlock: XUDNAN_clean_linker_2, # of connection points: 2
#     Edge 34, Type (0, 0), BuildingBlock: XUDNAN_clean_linker_2, # of connection points: 2
#     Edge 35, Type (0, 0), BuildingBlock: XUDNAN_clean_linker_2, # of connection points: 2
#     Edge 36, Type (0, 0), BuildingBlock: XUDNAN_clean_linker_2, # of connection points: 2
#     Edge 37, Type (0, 0), BuildingBlock: XUDNAN_clean_linker_2, # of connection points: 2
#     Edge 38, Type (0, 0), BuildingBlock: XUDNAN_clean_linker_2, # of connection points: 2
#     Edge 39, Type (0, 0), BuildingBlock: XUDNAN_clean_linker_2, # of connection points: 2
#     Edge 40, Type (0, 0), BuildingBlock: XUDNAN_clean_linker_2, # of connection points: 2
#     Edge 41, Type (0, 0), BuildingBlock: XUDNAN_clean_linker_2, # of connection points: 2
#     Edge 42, Type (0, 0), BuildingBlock: XUDNAN_clean_linker_2, # of connection points: 2
#     Edge 43, Type (0, 0), BuildingBlock: XUDNAN_clean_linker_2, # of connection points: 2
#     Edge 44, Type (0, 0), BuildingBlock: XUDNAN_clean_linker_2, # of connection points: 2
#     Edge 45, Type (0, 0), BuildingBlock: XUDNAN_clean_linker_2, # of connection points: 2
#     Edge 46, Type (0, 0), BuildingBlock: XUDNAN_clean_linker_2, # of connection points: 2
#     Edge 47, Type (0, 0), BuildingBlock: XUDNAN_clean_linker_2, # of connection points: 2
# Relax obj value: 0.093
# Max RMSD: 0.206
# Mean RMSD: 0.206
data_MOF--net-wjd--node1-NUHQIS_clean_sbu_0--edge1-XUDNAN_clean_linker_2
_symmetry_space_group_name_H-M    P1
_symmetry_Int_Tables_number       1
_symmetry_cell_setting            triclinic
loop_
_symmetry_equiv_pos_as_xyz
'x, y, z'
_cell_length_a     40.146712
_cell_length_b     40.125426
_cell_length_c     53.627371
_cell_angle_alpha  89.964247
_cell_angle_beta   90.112604
_cell_angle_gamma 120.10937
loop_
_atom_site_label
_atom_site_type_symbol
_atom_site_fract_x
_atom_site_fract_y
_atom_site_fract_z
_atom_type_partial_charge
Tb0 Tb 0.39514 0.19225 0.11534 0.0
Eu1 Eu 0.34545 0.10167 0.13355 0.0
C2 C 0.35224 0.12308 0.07849 0.0
C3 C 0.30682 0.15475 0.12802 0.0
C4 C 0.4683 0.2981 0.10662 0.0
C5 C 0.53204 0.35231 0.09727 0.0
C6 C 0.5019 0.31504 0.09205 0.0
C7 C 0.46593 0.31887 0.12699 0.0
C8 C 0.49596 0.35621 0.13212 0.0
C9 C 0.52911 0.37367 0.11706 0.0
C10 C 0.43511 0.26042 0.09901 0.0
O11 O 0.39282 0.19679 0.1561 0.0
O12 O 0.37402 0.13438 0.16829 0.0
O13 O 0.40667 0.11538 0.12492 0.0
O14 O 0.43618 0.18012 0.13321 0.0
C15 C 0.38636 0.1708 0.17347 0.0
O16 O 0.31221 0.05559 0.16006 0.0
O17 O 0.32062 0.04127 0.12257 0.0
O18 O 0.32619 0.10809 0.09576 0.0
O19 O 0.38607 0.15252 0.08428 0.0
O20 O 0.33486 0.17745 0.11281 0.0
O21 O 0.30792 0.12738 0.14082 0.0
C22 C 0.43766 0.14842 0.13048 0.0
O23 O 0.44206 0.23274 0.0939 0.0
O24 O 0.40299 0.24778 0.11129 0.0
C25 C 0.2594 1.00067 0.14148 0.0
C26 C 0.17858 0.95182 0.13759 0.0
C27 C 0.19554 0.97078 0.16009 0.0
C28 C 0.23539 0.9947 0.16205 0.0
C29 C 0.2426 0.98069 0.11916 0.0
C30 C 0.20258 0.95641 0.11726 0.0
C31 C 0.30146 0.02838 0.14338 0.0
H32 H 0.55697 0.36498 0.08517 0.0
H33 H 0.5044 0.29983 0.07613 0.0
H34 H 0.44052 0.30672 0.13866 0.0
H35 H 0.493 0.37165 0.14772 0.0
H36 H 0.17788 0.96728 0.17623 0.0
H37 H 0.2473 1.00908 0.17964 0.0
H38 H 0.26025 0.98432 0.10299 0.0
H39 H 0.19034 0.94223 0.09967 0.0
Tb40 Tb 0.80926 0.71806 0.39131 0.0
Eu41 Eu 0.83892 0.6613 0.41441 0.0
C42 C 0.8327 0.67214 0.35557 0.0
C43 C 0.75257 0.62781 0.39699 0.0
C44 C 0.80309 0.80605 0.37869 0.0
C45 C 0.83636 0.87111 0.362 0.0
C46 C 0.82148 0.83161 0.35887 0.0
C47 C 0.79875 0.82071 0.40156 0.0
C48 C 0.81337 0.86031 0.40461 0.0
C49 C 0.83283 0.88592 0.38495 0.0
C50 C 0.78929 0.76456 0.37516 0.0
O51 O 0.81954 0.7316 0.43054 0.0
O52 O 0.80499 0.67193 0.44406 0.0
O53 O 0.88212 0.72195 0.42479 0.0
O54 O 0.87238 0.7505 0.39096 0.0
C55 C 0.80613 0.70493 0.44774 0.0
O56 O 0.82888 0.60976 0.43461 0.0
O57 O 0.88667 0.65163 0.42269 0.0
O58 O 0.85404 0.66926 0.37318 0.0
O59 O 0.80687 0.68197 0.36074 0.0
O60 O 0.75718 0.66266 0.39911 0.0
O61 O 0.78204 0.62217 0.39665 0.0
C62 C 0.89449 0.75081 0.40919 0.0
O63 O 0.81253 0.7562 0.36332 0.0
O64 O 0.77334 0.74193 0.39427 0.0
C65 C 0.87287 0.58732 0.42735 0.0
C66 C 0.8913 0.52945 0.41675 0.0
C67 C 0.86114 0.53045 0.40393 0.0
C68 C 0.85208 0.55929 0.40912 0.0
C69 C 0.90255 0.58607 0.4403 0.0
C70 C 0.91167 0.5575 0.4351 0.0
C71 C 0.86481 0.61841 0.43334 0.0
H72 H 0.85069 0.89014 0.34641 0.0
H73 H 0.82481 0.82108 0.34099 0.0
H74 H 0.78456 0.80176 0.4172 0.0
H75 H 0.81036 0.871 0.42252 0.0
H76 H 0.84504 0.50939 0.3896 0.0
H77 H 0.82908 0.55983 0.39885 0.0
H78 H 0.9188 0.60734 0.4545 0.0
H79 H 0.93456 0.55722 0.44565 0.0
Tb80 Tb 0.87241 0.2169 0.11307 0.0
Eu81 Eu 0.96389 0.25698 0.13026 0.0
C82 C 0.94048 0.25519 0.07614 0.0
C83 C 0.91185 0.16668 0.1192 0.0
C84 C 0.76754 0.1859 0.10486 0.0
C85 C 0.70581 0.17864 0.09253 0.0
C86 C 0.74104 0.18154 0.08625 0.0
C87 C 0.75842 0.18766 0.12991 0.0
C88 C 0.72314 0.1845 0.13623 0.0
C89 C 0.69626 0.17988 0.11764 0.0
C90 C 0.80337 0.18635 0.09793 0.0
O91 O 0.87171 0.22546 0.15319 0.0
O92 O 0.92816 0.227 0.1639 0.0
O93 O 0.94802 0.30158 0.14044 0.0
O94 O 0.89153 0.27809 0.11766 0.0
C95 C 0.89492 0.22378 0.16993 0.0
O96 O 1.01194 0.2749 0.15636 0.0
O97 O 1.02289 0.28364 0.11672 0.0
O98 O 0.95683 0.28006 0.09402 0.0
O99 O 0.90937 0.22238 0.08139 0.0
O100 O 0.88108 0.16937 0.12332 0.0
O101 O 0.94576 0.19743 0.11586 0.0
C102 C 0.91967 0.30529 0.13107 0.0
O103 O 0.83145 0.21843 0.08902 0.0
O104 O 0.81587 0.17039 0.11369 0.0
C105 C 0.06341 0.26776 0.13972 0.0
C106 C 0.11164 0.23489 0.14029 0.0
C107 C 0.08761 0.23023 0.16069 0.0
C108 C 0.06378 0.24642 0.16041 0.0
C109 C 0.0881 0.27326 0.11961 0.0
C110 C 0.11179 0.25693 0.11984 0.0
C111 C 0.0373 0.28396 0.13859 0.0
H112 H 0.68624 0.17577 0.07768 0.0
H113 H 0.74748 0.18007 0.06681 0.0
H114 H 0.77832 0.19088 0.14466 0.0
H115 H 0.71672 0.18504 0.15577 0.0
H116 H 0.08725 0.21411 0.17699 0.0
H117 H 0.04546 0.24192 0.17635 0.0
H118 H 0.08869 0.28978 0.10345 0.0
H119 H 0.12956 0.26088 0.1037 0.0
Tb120 Tb 0.33045 0.1055 0.38979 0.0
Eu121 Eu 0.39683 0.18735 0.41543 0.0
C122 C 0.38238 0.1765 0.35608 0.0
C123 C 0.41485 0.12383 0.39971 0.0
C124 C 0.23988 1.01295 0.37788 0.0
C125 C 0.19684 0.95414 0.40043 0.0
C126 C 0.23403 0.98218 0.39336 0.0
C127 C 0.20762 1.01462 0.36932 0.0
C128 C 0.17044 0.98666 0.37646 0.0
C129 C 0.16457 0.95612 0.39217 0.0
C130 C 0.27926 0.04313 0.37057 0.0
O131 O 0.32795 0.09031 0.42868 0.0
O132 O 0.36537 0.14895 0.44839 0.0
O133 O 0.34659 0.1946 0.40567 0.0
O134 O 0.29896 0.13098 0.40694 0.0
C135 C 0.34153 0.11138 0.4489 0.0
O136 O 0.45787 0.22756 0.42165 0.0
O137 O 0.41512 0.23903 0.43793 0.0
O138 O 0.40849 0.19317 0.37368 0.0
O139 O 0.34753 0.14856 0.36104 0.0
O140 O 0.38786 0.11285 0.38252 0.0
O141 O 0.4135 0.14236 0.41929 0.0
C142 C 0.31022 0.16797 0.40769 0.0
O143 O 0.28382 0.07684 0.36517 0.0
O144 O 0.30789 0.04616 0.3839 0.0
C145 C 0.47654 0.29268 0.42828 0.0
C146 C 0.52683 0.37088 0.41667 0.0
C147 C 0.53857 0.35097 0.43273 0.0
C148 C 0.51367 0.3123 0.43845 0.0
C149 C 0.4644 0.3123 0.41232 0.0
C150 C 0.48934 0.35123 0.40665 0.0
C151 C 0.45173 0.25167 0.43434 0.0
H152 H 0.19339 0.93066 0.41218 0.0
H153 H 0.25817 0.97971 0.40006 0.0
H154 H 0.21107 0.03777 0.35722 0.0
H155 H 0.14635 0.98934 0.36995 0.0
H156 H 0.56699 0.36539 0.44108 0.0
H157 H 0.52351 0.29761 0.45081 0.0
H158 H 0.43586 0.2975 0.40414 0.0
H159 H 0.47958 0.36573 0.39408 0.0
Tb160 Tb 0.84852 0.66992 0.11602 0.0
Eu161 Eu 0.81329 0.72391 0.13586 0.0
C162 C 0.82166 0.71296 0.07967 0.0
C163 C 0.9029 0.75796 0.12702 0.0
C164 C 0.88204 0.59759 0.10862 0.0
C165 C 0.92574 0.57354 0.11721 0.0
C166 C 0.91952 0.60356 0.11035 0.0
C167 C 0.85069 0.5608 0.11389 0.0
C168 C 0.85692 0.53059 0.12064 0.0
C169 C 0.89456 0.53665 0.12238 0.0
C170 C 0.87683 0.62988 0.10033 0.0
O171 O 0.85606 0.67296 0.15661 0.0
O172 O 0.80959 0.68741 0.16843 0.0
O173 O 0.76258 0.66574 0.12592 0.0
O174 O 0.79136 0.62873 0.12987 0.0
C175 C 0.83403 0.67571 0.17375 0.0
O176 O 0.80797 0.76103 0.16328 0.0
O177 O 0.77902 0.75114 0.1276 0.0
O178 O 0.83372 0.73986 0.09659 0.0
O179 O 0.81868 0.67966 0.08505 0.0
O180 O 0.89421 0.72994 0.11098 0.0
O181 O 0.87697 0.75692 0.1423 0.0
C182 C 0.76037 0.63196 0.12804 0.0
O183 O 0.8421 0.62263 0.09515 0.0
O184 O 0.8963 0.66215 0.11246 0.0
C185 C 0.80673 0.81394 0.14441 0.0
C186 C 0.8393 0.89381 0.13529 0.0
C187 C 0.86156 0.87922 0.1458 0.0
C188 C 0.84552 0.83979 0.15023 0.0
C189 C 0.7843 0.82835 0.13415 0.0
C190 C 0.80038 0.86787 0.12963 0.0
C191 C 0.79003 0.77195 0.14788 0.0
H192 H 0.95505 0.57907 0.11794 0.0
H193 H 0.94414 0.63152 0.10613 0.0
H194 H 0.82141 0.55527 0.11268 0.0
H195 H 0.83231 0.50257 0.12466 0.0
H196 H 0.89141 0.89832 0.15078 0.0
H197 H 0.8636 0.82956 0.1581 0.0
H198 H 0.75442 0.80894 0.12932 0.0
H199 H 0.7825 0.87797 0.12125 0.0
Tb200 Tb 0.95153 0.24446 0.39341 0.0
Eu201 Eu 0.86002 0.20751 0.41054 0.0
C202 C 0.88798 0.22485 0.35275 0.0
C203 C 0.91297 0.29697 0.39867 0.0
C204 C 0.04972 0.25598 0.3911 0.0
C205 C 0.09306 0.23326 0.37798 0.0
C206 C 0.06531 0.24353 0.37229 0.0
C207 C 0.06194 0.25721 0.41587 0.0
C208 C 0.08989 0.24725 0.42152 0.0
C209 C 0.10615 0.23564 0.40261 0.0
C210 C 1.02175 0.26851 0.38446 0.0
O211 O 0.94476 0.22358 0.43131 0.0
O212 O 0.89974 0.23844 0.44321 0.0
O213 O 0.87587 0.16128 0.41599 0.0
O214 O 0.92305 0.18314 0.38627 0.0
C215 C 0.93043 0.236 0.44831 0.0
O216 O 0.81513 0.21073 0.43183 0.0
O217 O 0.80118 0.15903 0.4111 0.0
O218 O 0.86028 0.20294 0.36845 0.0
O219 O 0.92352 0.24862 0.36003 0.0
O220 O 0.94372 0.29349 0.40186 0.0
O221 O 0.87823 0.26687 0.39639 0.0
C222 C 0.89818 0.15561 0.40078 0.0
O223 O 0.99381 0.24606 0.36947 0.0
O224 O 1.00965 0.28169 0.40243 0.0
C225 C 0.75031 0.1719 0.41797 0.0
C226 C 0.6756 0.15767 0.40561 0.0
C227 C 0.68497 0.15329 0.43026 0.0
C228 C 0.72185 0.16037 0.43633 0.0
C229 C 0.74149 0.17674 0.39335 0.0
C230 C 0.70446 0.16968 0.38722 0.0
C231 C 0.78804 0.17659 0.42492 0.0
H232 H 0.10527 0.22481 0.36296 0.0
H233 H 0.05649 0.24235 0.35305 0.0
H234 H 0.05035 0.26635 0.4309 0.0
H235 H 0.09907 0.24897 0.44072 0.0
H236 H 0.66351 0.14348 0.44487 0.0
H237 H 0.72797 0.15616 0.45539 0.0
H238 H 0.76308 0.18561 0.37887 0.0
H239 H 0.69851 0.17382 0.36812 0.0
Tb240 Tb 0.11744 0.32441 0.63543 0.0
Eu241 Eu 0.20241 0.38689 0.61288 0.0
C242 C 0.18655 0.37129 0.67163 0.0
C243 C 0.14616 0.4144 0.63329 0.0
C244 C 1.02628 0.23216 0.64317 0.0
C245 C 0.96903 0.17026 0.65093 0.0
C246 C 0.99384 0.20868 0.65768 0.0
C247 C 1.03388 0.21671 0.6219 0.0
C248 C 1.00905 0.17832 0.61508 0.0
C249 C 0.97622 0.15461 0.62948 0.0
C250 C 0.0519 0.27268 0.65023 0.0
O251 O 0.11511 0.31475 0.59557 0.0
O252 O 0.157 0.37659 0.58377 0.0
O253 O 0.18859 0.32822 0.60017 0.0
O254 O 0.15175 0.29591 0.63373 0.0
C255 C 0.12677 0.34261 0.57926 0.0
O256 O 0.24255 0.44158 0.59487 0.0
O257 O 0.26073 0.40047 0.60398 0.0
O258 O 0.21083 0.37677 0.65349 0.0
O259 O 0.14992 0.35851 0.6672 0.0
O260 O 0.11703 0.37879 0.63091 0.0
O261 O 0.182 0.4222 0.63268 0.0
C262 C 0.1737 0.2982 0.61491 0.0
O263 O 0.08413 0.2804 0.661 0.0
O264 O 0.05727 0.29811 0.6332 0.0
C265 C 0.30811 0.46645 0.60572 0.0
C266 C 0.38079 0.52506 0.62268 0.0
C267 C 0.36841 0.52564 0.59819 0.0
C268 C 0.33246 0.49658 0.58981 0.0
C269 C 0.31995 0.46604 0.63034 0.0
C270 C 0.35606 0.49502 0.63871 0.0
C271 C 0.27127 0.43509 0.59601 0.0
H272 H 0.94378 0.15304 0.66225 0.0
H273 H 0.98753 0.22015 0.67414 0.0
H274 H 0.05897 0.23439 0.61053 0.0
H275 H 1.01572 0.16714 0.59864 0.0
H276 H 0.38691 0.54808 0.58526 0.0
H277 H 0.32388 0.49734 0.57074 0.0
H278 H 0.30147 0.44313 0.64301 0.0
H279 H 0.36455 0.494 0.65775 0.0
Tb280 Tb 0.22426 0.85424 0.91237 0.0
Eu281 Eu 0.26152 0.94368 0.8916 0.0
C282 C 0.25109 0.92571 0.94808 0.0
C283 C 0.17179 0.88949 0.90018 0.0
C284 C 0.18878 0.74731 0.92095 0.0
C285 C 0.15172 0.68628 0.89883 0.0
C286 C 0.16032 0.72414 0.90346 0.0
C287 C 0.20902 0.73191 0.93324 0.0
C288 C 0.20051 0.69406 0.92854 0.0
C289 C 0.17125 0.67049 0.9116 0.0
C290 C 0.19471 0.78564 0.92841 0.0
O291 O 0.21735 0.84954 0.87162 0.0
O292 O 0.26577 0.90982 0.86008 0.0
O293 O 0.31084 0.93522 0.90294 0.0
O294 O 0.28136 0.86931 0.89907 0.0
C295 C 0.24047 0.87396 0.8546 0.0
O296 O 0.26551 0.98523 0.86384 0.0
O297 O 0.30006 1.00531 0.89754 0.0
O298 O 0.24069 0.94116 0.93054 0.0
O299 O 0.25339 0.89473 0.94336 0.0
O300 O 0.17944 0.86977 0.91654 0.0
O301 O 0.19812 0.91354 0.88473 0.0
C302 C 0.31257 0.90345 0.90087 0.0
O303 O 0.22964 0.81284 0.93361 0.0
O304 O 0.17592 0.79899 0.91607 0.0
C305 C 0.27662 0.04439 0.88132 0.0
C306 C 0.25575 0.10067 0.891 0.0
C307 C 0.29393 0.10904 0.89443 0.0
C308 C 0.30424 0.08121 0.88958 0.0
C309 C 0.2385 0.03604 0.8775 0.0
C310 C 0.22822 0.06404 0.88217 0.0
C311 C 0.28796 1.01495 0.87769 0.0
H312 H 0.12942 0.66921 0.88539 0.0
H313 H 0.14394 0.73486 0.89371 0.0
H314 H 0.23073 0.74879 0.94706 0.0
H315 H 0.21589 0.6828 0.93891 0.0
H316 H 0.31587 0.13716 0.90095 0.0
H317 H 0.33378 0.0883 0.89261 0.0
H318 H 0.21652 1.00777 0.87127 0.0
H319 H 0.19854 0.0567 0.87955 0.0
Tb320 Tb 0.72741 0.80206 0.63614 0.0
Eu321 Eu 0.67689 0.83971 0.61329 0.0
C322 C 0.69737 0.84324 0.67132 0.0
C323 C 0.6362 0.75427 0.63883 0.0
C324 C 0.81372 0.79289 0.64906 0.0
C325 C 0.87735 0.83706 0.6659 0.0
C326 C 0.83729 0.82097 0.66658 0.0
C327 C 0.831 0.78079 0.63121 0.0
C328 C 0.87097 0.79707 0.63039 0.0
C329 C 0.89478 0.8256 0.64763 0.0
C330 C 0.77143 0.77668 0.64836 0.0
O331 O 0.69558 0.7714 0.60339 0.0
O332 O 0.70266 0.82257 0.58142 0.0
O333 O 0.73674 0.88891 0.61866 0.0
O334 O 0.76867 0.8549 0.61685 0.0
C335 C 0.70016 0.7887 0.58204 0.0
O336 O 0.63043 0.8344 0.58903 0.0
O337 O 0.66628 0.88753 0.60914 0.0
O338 O 0.67042 0.83812 0.65523 0.0
O339 O 0.7273 0.84038 0.66459 0.0
O340 O 0.66909 0.76037 0.64856 0.0
O341 O 0.63413 0.77853 0.62326 0.0
C342 C 0.76835 0.88746 0.61608 0.0
O343 O 0.75603 0.78945 0.66442 0.0
O344 O 0.75681 0.77329 0.62618 0.0
C345 C 0.60116 0.87016 0.60238 0.0
C346 C 0.53827 0.88032 0.61429 0.0
C347 C 0.54302 0.87052 0.5899 0.0
C348 C 0.57428 0.86564 0.58401 0.0
C349 C 0.59563 0.87842 0.62698 0.0
C350 C 0.56459 0.88361 0.63284 0.0
C351 C 0.63565 0.8681 0.59534 0.0
H352 H 0.89464 0.85843 0.67977 0.0
H353 H 0.82491 0.83081 0.68067 0.0
H354 H 0.81357 0.75913 0.6175 0.0
H355 H 0.88318 0.78784 0.61582 0.0
H356 H 0.5234 0.86802 0.57517 0.0
H357 H 0.57798 0.85923 0.56493 0.0
H358 H 0.61569 0.88163 0.6416 0.0
H359 H 0.56137 0.89057 0.65187 0.0
Tb360 Tb 0.20447 0.38427 0.91114 0.0
Eu361 Eu 0.11968 0.32486 0.88625 0.0
C362 C 0.13194 0.33003 0.94418 0.0
C363 C 0.17959 0.29817 0.90227 0.0
C364 C 0.30742 0.46209 0.92064 0.0
C365 C 0.36947 0.51794 0.93088 0.0
C366 C 0.33356 0.48754 0.93832 0.0
C367 C 0.31751 0.46765 0.89531 0.0
C368 C 0.35346 0.4979 0.88785 0.0
C369 C 0.38003 0.52343 0.90554 0.0
C370 C 0.27079 0.42885 0.92903 0.0
O371 O 0.21377 0.38055 0.87089 0.0
O372 O 0.15418 0.36575 0.85625 0.0
O373 O 0.12 0.37967 0.89795 0.0
O374 O 0.18503 0.42148 0.89592 0.0
C375 C 0.19083 0.37852 0.85253 0.0
O376 O 0.08335 0.28195 0.85852 0.0
O377 O 0.0573 0.29955 0.8872 0.0
O378 O 0.11837 0.30634 0.92533 0.0
O379 O 0.16126 0.36543 0.94146 0.0
O380 O 0.1936 0.32666 0.91829 0.0
O381 O 0.15578 0.29578 0.88454 0.0
C382 C 0.14969 0.41506 0.8971 0.0
O383 O 0.26074 0.39614 0.91811 0.0
O384 O 0.24155 0.43423 0.93175 0.0
C385 C 1.02196 0.23448 0.87438 0.0
C386 C 0.96557 0.15816 0.88697 0.0
C387 C 1.00202 0.16642 0.87841 0.0
C388 C 1.03008 0.20429 0.87231 0.0
C389 C 0.9852 0.22596 0.88226 0.0
C390 C 0.9574 0.18831 0.88857 0.0
C391 C 0.05136 0.27511 0.86931 0.0
H392 H 0.38878 0.53732 0.94499 0.0
H393 H 0.32632 0.48372 0.95797 0.0
H394 H 0.29782 0.44825 0.88132 0.0
H395 H 0.36065 0.50084 0.86822 0.0
H396 H 1.0092 0.14381 0.87713 0.0
H397 H 0.05821 0.20995 0.86637 0.0
H398 H 0.97814 0.24862 0.88389 0.0
H399 H 0.92941 0.18278 0.89477 0.0
Tb400 Tb 0.2586 0.9483 0.63667 0.0
Eu401 Eu 0.21317 0.85016 0.6125 0.0
C402 C 0.23487 0.87864 0.67334 0.0
C403 C 0.30721 0.90601 0.62773 0.0
C404 C 0.27472 0.04818 0.63344 0.0
C405 C 0.2878 0.10966 0.6165 0.0
C406 C 0.29983 0.0833 0.62192 0.0
C407 C 0.23735 0.03982 0.63973 0.0
C408 C 0.22528 0.06631 0.63438 0.0
C409 C 0.2503 0.10137 0.62247 0.0
C410 C 0.28777 1.02031 0.63769 0.0
O411 O 0.24075 0.9159 0.60434 0.0
O412 O 0.22573 0.87961 0.57382 0.0
O413 O 0.16829 0.86871 0.61704 0.0
O414 O 0.19724 0.92759 0.63866 0.0
C415 C 0.24264 0.91519 0.58046 0.0
O416 O 0.21309 0.80124 0.59462 0.0
O417 O 0.16201 0.7927 0.61398 0.0
O418 O 0.21969 0.85228 0.65526 0.0
O419 O 0.25145 0.91634 0.67015 0.0
O420 O 0.30572 0.93656 0.63555 0.0
O421 O 0.27744 0.87388 0.6189 0.0
C422 C 0.16703 0.89708 0.6289 0.0
O423 O 0.2746 0.99838 0.65751 0.0
O424 O 0.2877 1.00113 0.618 0.0
C425 C 0.17004 0.73814 0.60997 0.0
C426 C 0.15369 0.66295 0.6227 0.0
C427 C 0.1273 0.66875 0.60875 0.0
C428 C 0.1354 0.70587 0.60251 0.0
C429 C 0.19644 0.73282 0.62416 0.0
C430 C 0.18833 0.69551 0.63046 0.0
C431 C 0.1781 0.77652 0.60163 0.0
H432 H 0.30795 0.13663 0.60765 0.0
H433 H 0.32874 0.09022 0.6169 0.0
H434 H 0.21741 1.01271 0.64849 0.0
H435 H 0.19615 0.059 0.63903 0.0
H436 H 0.10071 0.64452 0.60202 0.0
H437 H 0.11476 0.70936 0.59141 0.0
H438 H 0.22337 0.75738 0.63015 0.0
H439 H 0.20915 0.69219 0.64144 0.0
Tb440 Tb 0.67535 0.82968 0.91136 0.0
Eu441 Eu 0.73169 0.79881 0.89018 0.0
C442 C 0.71704 0.79975 0.94645 0.0
C443 C 0.76397 0.88655 0.90599 0.0
C444 C 0.6021 0.86121 0.92341 0.0
C445 C 0.5754 0.90346 0.92747 0.0
C446 C 0.60418 0.89474 0.93286 0.0
C447 C 0.57056 0.83626 0.90843 0.0
C448 C 0.54149 0.84491 0.90309 0.0
C449 C 0.54375 0.87876 0.91248 0.0
C450 C 0.63305 0.85323 0.93005 0.0
O451 O 0.68393 0.847 0.87187 0.0
O452 O 0.70291 0.80533 0.85652 0.0
O453 O 0.67141 0.74709 0.89565 0.0
O454 O 0.63805 0.77901 0.88974 0.0
C455 C 0.69178 0.83067 0.85312 0.0
O456 O 0.7704 0.79651 0.8627 0.0
O457 O 0.75655 0.76189 0.89622 0.0
O458 O 0.74504 0.81362 0.93036 0.0
O459 O 0.68327 0.79498 0.94008 0.0
O460 O 0.73389 0.87369 0.92069 0.0
O461 O 0.76671 0.86395 0.8894 0.0
C462 C 0.63927 0.74703 0.89047 0.0
O463 O 0.62487 0.81741 0.93061 0.0
O464 O 0.66662 0.87573 0.92011 0.0
C465 C 0.82016 0.78826 0.8799 0.0
C466 C 0.90015 0.81805 0.88582 0.0
C467 C 0.88488 0.82031 0.8627 0.0
C468 C 0.84537 0.8054 0.85974 0.0
C469 C 0.83525 0.78494 0.90292 0.0
C470 C 0.87491 0.79959 0.9058 0.0
C471 C 0.77867 0.7749 0.87659 0.0
H472 H 0.57772 0.92938 0.93536 0.0
H473 H 0.62812 0.91422 0.94459 0.0
H474 H 0.56838 0.8102 0.90089 0.0
H475 H 0.51756 0.82545 0.89138 0.0
H476 H 0.90361 0.83385 0.84686 0.0
H477 H 0.83457 0.80789 0.84171 0.0
H478 H 0.8166 0.77166 0.91881 0.0
H479 H 0.88596 0.79755 0.92384 0.0
H480 H 0.18549 0.26365 0.12197 0.0
H481 H 0.0922 0.1632 0.15796 0.0
H482 H 0.13161 0.13193 0.15812 0.0
H483 H 0.21537 0.21064 0.08176 0.0
H484 H 0.26587 0.24582 0.08425 0.0
H485 H 0.23044 0.26063 0.08702 0.0
H486 H 0.25876 0.2914 0.12999 0.0
H487 H 0.29424 0.27669 0.12735 0.0
H488 H 0.26299 0.26244 0.15413 0.0
H489 H 0.1812 0.11179 0.15514 0.0
H490 H 0.2376 0.10383 0.14896 0.0
H491 H 0.2984 0.21619 0.11348 0.0
C492 C 0.17314 0.23493 0.12968 0.0
C493 C 0.13567 0.21609 0.14013 0.0
C494 C 0.12099 0.17866 0.15029 0.0
C495 C 0.14306 0.16046 0.15028 0.0
C496 C 0.17978 0.17988 0.13991 0.0
C497 C 0.19473 0.21621 0.12972 0.0
C498 C 0.23514 0.23073 0.11987 0.0
C499 C 0.23679 0.23734 0.09154 0.0
C500 C 0.26451 0.26749 0.13366 0.0
C501 C 0.24061 0.19693 0.12625 0.0
C502 C 0.20828 0.16795 0.13781 0.0
C503 C 0.20662 0.13422 0.146 0.0
C504 C 0.23891 0.13002 0.14243 0.0
C505 C 0.2725 0.15932 0.13065 0.0
C506 C 0.2731 0.1931 0.12232 0.0
H507 H 0.0981 0.92295 0.36394 0.0
H508 H 0.14135 0.92221 0.43813 0.0
H509 H 0.07634 0.87177 0.45084 0.0
H510 H 1.00483 0.90878 0.38423 0.0
H511 H 0.97936 0.87849 0.35802 0.0
H512 H 1.02914 0.91542 0.35485 0.0
H513 H 0.04605 0.86429 0.33991 0.0
H514 H 0.99639 0.82723 0.34304 0.0
H515 H 1.03341 0.82273 0.35913 0.0
H516 H 1.00781 0.81961 0.45502 0.0
H517 H 0.93979 0.7691 0.45057 0.0
H518 H 0.93977 0.80504 0.37418 0.0
C519 C 0.09384 0.91265 0.38298 0.0
C520 C 0.12502 0.92652 0.39999 0.0
C521 C 0.11818 0.91167 0.42461 0.0
C522 C 0.08126 0.88323 0.43209 0.0
C523 C 0.05133 0.87011 0.41482 0.0
C524 C 0.0571 0.8844 0.39081 0.0
C525 C 1.02009 0.86463 0.37576 0.0
C526 C 1.00762 0.89356 0.36775 0.0
C527 C 1.02425 0.84346 0.35313 0.0
C528 C 0.99275 0.83653 0.39496 0.0
C529 C 1.01142 0.84033 0.41737 0.0
C530 C 0.99279 0.81658 0.43764 0.0
C531 C 0.95414 0.78791 0.43489 0.0
C532 C 0.93439 0.78321 0.41206 0.0
C533 C 0.95393 0.80825 0.39196 0.0
H534 H 0.84855 0.09755 0.13169 0.0
H535 H 0.96681 0.14813 0.10632 0.0
H536 H 0.96061 0.08365 0.10666 0.0
H537 H 0.85098 0.02967 0.17356 0.0
H538 H 0.80227 0.99236 0.16703 0.0
H539 H 0.81562 0.04221 0.1639 0.0
H540 H 0.79125 0.02986 0.1182 0.0
H541 H 0.77785 0.97995 0.12117 0.0
H542 H 0.80995 1.0089 0.09661 0.0
H543 H 0.94153 1.01351 0.11015 0.0
H544 H 0.9117 0.94356 0.1173 0.0
H545 H 0.8066 0.93943 0.14167 0.0
C546 C 0.87311 0.09514 0.12603 0.0
C547 C 0.90814 0.12798 0.11889 0.0
C548 C 0.93964 0.12344 0.11186 0.0
C549 C 0.9364 0.08693 0.11195 0.0
C550 C 0.9015 0.05522 0.11918 0.0
C551 C 0.87045 0.05901 0.12614 0.0
C552 C 0.83646 1.02057 0.13375 0.0
C553 C 0.82572 1.02126 0.16119 0.0
C554 C 0.80184 1.00915 0.11639 0.0
C555 C 0.85325 0.99453 0.13005 0.0
C556 C 0.89074 1.01503 0.12154 0.0
C557 C 0.91225 0.99722 0.1169 0.0
C558 C 0.89509 0.95746 0.12119 0.0
C559 C 0.8568 0.93584 0.1302 0.0
C560 C 0.83571 0.95487 0.13452 0.0
H561 H 0.23559 0.13528 0.3901 0.0
H562 H 0.32168 0.23036 0.43411 0.0
H563 H 0.27708 0.25517 0.43972 0.0
H564 H 0.20353 0.19125 0.35741 0.0
H565 H 0.15356 0.1541 0.35637 0.0
H566 H 0.19051 0.14122 0.3578 0.0
H567 H 0.15898 0.10034 0.39731 0.0
H568 H 0.12184 0.11302 0.39598 0.0
H569 H 0.15022 0.12231 0.42391 0.0
H570 H 0.22474 0.27111 0.43963 0.0
H571 H 0.16897 0.27965 0.43169 0.0
H572 H 0.11694 0.17646 0.38594 0.0
C573 C 0.24465 0.16091 0.40126 0.0
C574 C 0.28193 0.18075 0.4119 0.0
C575 C 0.29323 0.21473 0.42586 0.0
C576 C 0.26805 0.22896 0.42922 0.0
C577 C 0.23173 0.20917 0.41826 0.0
C578 C 0.22003 0.17605 0.4044 0.0
C579 C 0.18044 0.16214 0.39314 0.0
C580 C 0.18213 0.1622 0.36448 0.0
C581 C 0.15114 0.12207 0.40319 0.0
C582 C 0.17201 0.19279 0.40269 0.0
C583 C 0.20182 0.21927 0.41743 0.0
C584 C 0.20109 0.25046 0.42823 0.0
C585 C 0.16918 0.25496 0.42371 0.0
C586 C 0.13848 0.22867 0.4083 0.0
C587 C 0.13999 0.19709 0.39774 0.0
H588 H 0.13368 0.87907 0.11732 0.0
H589 H 0.12707 0.97271 0.1529 0.0
H590 H 0.05622 0.93437 0.15166 0.0
H591 H 0.04912 0.84741 0.07641 0.0
H592 H 1.03365 0.79702 0.07986 0.0
H593 H 0.08408 0.83258 0.08198 0.0
H594 H 0.08752 0.80625 0.12544 0.0
H595 H 0.03713 0.7707 0.12347 0.0
H596 H 0.05501 0.80326 0.14964 0.0
H597 H 0.98708 0.88559 0.14909 0.0
H598 H 0.92255 0.82866 0.14521 0.0
H599 H 0.97177 0.76529 0.1107 0.0
C600 C 0.11723 0.89163 0.12448 0.0
C601 C 0.13591 0.92885 0.13533 0.0
C602 C 0.11341 0.94412 0.14481 0.0
C603 C 0.07315 0.92266 0.14404 0.0
C604 C 0.05563 0.88592 0.13365 0.0
C605 C 0.07677 0.87043 0.12396 0.0
C606 C 0.05037 0.82948 0.11486 0.0
C607 C 0.05456 0.82646 0.0866 0.0
C608 C 0.05797 0.80073 0.12921 0.0
C609 C 1.01122 0.82433 0.12132 0.0
C610 C 1.01514 0.85744 0.13203 0.0
C611 C 0.98358 0.85959 0.14056 0.0
C612 C 0.94699 0.82695 0.13835 0.0
C613 C 0.94199 0.79246 0.12761 0.0
C614 C 0.9746 0.79136 0.1187 0.0
H615 H 0.80041 0.92586 0.40567 0.0
H616 H 0.90515 0.94111 0.37163 0.0
H617 H 0.93421 1.0116 0.37471 0.0
H618 H 0.79978 1.00331 0.3748 0.0
H619 H 0.78206 1.01802 0.40097 0.0
H620 H 0.77026 0.96859 0.39808 0.0
H621 H 0.79863 0.9716 0.44201 0.0
H622 H 0.81043 1.02108 0.44506 0.0
H623 H 0.8474 1.00851 0.44883 0.0
H624 H 0.95047 0.07936 0.37871 0.0
H625 H 0.95355 0.14176 0.3834 0.0
H626 H 0.83866 0.08425 0.4153 0.0
C627 C 0.82969 0.94412 0.39929 0.0
C628 C 0.85057 0.92812 0.38835 0.0
C629 C 0.88856 0.95284 0.37982 0.0
C630 C 0.90539 0.99286 0.38164 0.0
C631 C 0.88389 1.00776 0.39211 0.0
C632 C 0.84693 0.98431 0.40087 0.0
C633 C 0.82959 1.00806 0.41009 0.0
C634 C 0.79328 0.99895 0.39508 0.0
C635 C 0.82101 1.00194 0.43817 0.0
C636 C 0.86237 0.04845 0.40471 0.0
C637 C 0.89343 0.04741 0.39449 0.0
C638 C 0.9265 0.08064 0.38688 0.0
C639 C 0.92786 0.11594 0.38953 0.0
C640 C 0.89633 0.1179 0.39972 0.0
C641 C 0.86334 0.08368 0.40771 0.0
H642 H 0.20908 0.12501 0.65121 0.0
H643 H 0.26286 0.14068 0.5787 0.0
H644 H 0.24546 0.18984 0.56818 0.0
H645 H 0.129 0.13835 0.63004 0.0
H646 H 0.12989 0.16388 0.6579 0.0
H647 H 0.14419 0.12791 0.65923 0.0
H648 H 0.20978 0.1781 0.67837 0.0
H649 H 0.19574 0.2142 0.67703 0.0
H650 H 0.23956 0.22277 0.66215 0.0
H651 H 0.22632 0.2398 0.56638 0.0
H652 H 0.20619 0.28777 0.57324 0.0
H653 H 0.16345 0.23968 0.64667 0.0
C654 C 0.21655 0.13831 0.63296 0.0
C655 C 0.23748 0.12912 0.6158 0.0
C656 C 0.24729 0.14762 0.59226 0.0
C657 C 0.23729 0.17537 0.58603 0.0
C658 C 0.21725 0.1842 0.60348 0.0
C659 C 0.20678 0.16617 0.62642 0.0
C660 C 0.18681 0.18238 0.64214 0.0
C661 C 0.14498 0.15127 0.64764 0.0
C662 C 0.20933 0.20043 0.66635 0.0
C663 C 0.18842 0.21283 0.62461 0.0
C664 C 0.20589 0.21312 0.60237 0.0
C665 C 0.21227 0.23965 0.58361 0.0
C666 C 0.20081 0.26688 0.58774 0.0
C667 C 0.18315 0.26747 0.61047 0.0
C668 C 0.17649 0.23971 0.629 0.0
H669 H 0.10148 0.82951 0.91604 0.0
H670 H 0.15583 0.94315 0.88224 0.0
H671 H 0.09273 0.93848 0.87787 0.0
H672 H 1.02004 0.78783 0.8764 0.0
H673 H 0.98603 0.75849 0.90004 0.0
H674 H 0.03585 0.77173 0.90292 0.0
H675 H 0.03908 0.80131 0.94639 0.0
H676 H 0.98917 0.7881 0.94366 0.0
H677 H 1.02529 0.83749 0.94964 0.0
H678 H 1.02467 0.92073 0.87424 0.0
H679 H 0.95406 0.89026 0.87152 0.0
H680 H 0.94166 0.78753 0.9072 0.0
C681 C 0.10005 0.8536 0.90814 0.0
C682 C 0.13362 0.88671 0.8995 0.0
C683 C 0.13056 0.91742 0.88888 0.0
C684 C 0.09482 0.91516 0.88642 0.0
C685 C 0.06224 0.88197 0.89464 0.0
C686 C 0.06431 0.8517 0.90533 0.0
C687 C 1.0243 0.81849 0.91118 0.0
C688 C 1.01608 0.78198 0.89677 0.0
C689 C 1.01916 0.81091 0.9394 0.0
C690 C 0.99963 0.83469 0.90166 0.0
C691 C 1.0223 0.87149 0.89239 0.0
C692 C 1.00653 0.89203 0.88159 0.0
C693 C 0.96644 0.87441 0.87999 0.0
C694 C 0.94246 0.83656 0.88907 0.0
C695 C 0.95934 0.81666 0.90036 0.0
H696 H 0.81875 0.93343 0.65152 0.0
H697 H 0.79635 0.92448 0.57212 0.0
H698 H 0.85108 0.99091 0.56625 0.0
H699 H 0.83846 0.02762 0.65809 0.0
H700 H 0.87609 0.04192 0.68103 0.0
H701 H 0.83896 0.99219 0.67855 0.0
H702 H 0.89048 0.97214 0.67222 0.0
H703 H 0.92789 1.02184 0.67497 0.0
H704 H 0.92568 0.99437 0.6478 0.0
H705 H 0.90394 0.06023 0.56983 0.0
H706 H 0.95116 0.12684 0.58225 0.0
H707 H 0.93918 0.09059 0.65959 0.0
C708 C 0.82633 0.9452 0.63285 0.0
C709 C 0.8043 0.92395 0.61212 0.0
C710 C 0.81372 0.94034 0.58804 0.0
C711 C 0.84459 0.97796 0.58461 0.0
C712 C 0.86552 0.99864 0.6055 0.0
C713 C 0.85697 0.98273 0.62915 0.0
C714 C 0.882 1.01192 0.64869 0.0
C715 C 0.8574 1.01881 0.6677 0.0
C716 C 0.90807 0.99931 0.66168 0.0
C717 C 0.90521 0.04703 0.63247 0.0
C718 C 0.8956 0.03868 0.60759 0.0
C719 C 0.9121 0.06694 0.58922 0.0
C720 C 0.93903 0.10471 0.59646 0.0
C721 C 0.94909 0.11404 0.6219 0.0
C722 C 0.93202 0.08454 0.64002 0.0
H723 H 0.1663 0.2383 0.87024 0.0
H724 H 0.21796 0.29018 0.94153 0.0
H725 H 0.23983 0.24354 0.94683 0.0
H726 H 0.13495 0.13837 0.88865 0.0
H727 H 0.14606 0.12592 0.85875 0.0
H728 H 0.13205 0.16204 0.86083 0.0
H729 H 0.19477 0.21086 0.8382 0.0
H730 H 0.209 0.17494 0.83609 0.0
H731 H 0.24059 0.2207 0.85063 0.0
H732 H 0.2595 0.19455 0.94401 0.0
H733 H 0.27519 0.14434 0.93311 0.0
H734 H 0.21143 0.12266 0.86384 0.0
C735 C 0.18179 0.23949 0.88707 0.0
C736 C 0.19037 0.26805 0.90542 0.0
C737 C 0.21105 0.2688 0.9271 0.0
C738 C 0.22359 0.2423 0.93039 0.0
C739 C 0.2152 0.21496 0.9119 0.0
C740 C 0.19469 0.2131 0.8907 0.0
C741 C 0.19091 0.18139 0.87342 0.0
C742 C 0.14847 0.15007 0.87023 0.0
C743 C 0.20996 0.19798 0.84809 0.0
C744 C 0.2131 0.1664 0.8881 0.0
C745 C 0.22664 0.18617 0.91028 0.0
C746 C 0.24895 0.17868 0.92674 0.0
C747 C 0.25792 0.15031 0.92032 0.0
C748 C 0.24469 0.12974 0.89761 0.0
C749 C 0.22162 0.13768 0.88143 0.0
H750 H 0.09512 0.83326 0.6225 0.0
H751 H 0.15252 0.95459 0.64218 0.0
H752 H 0.08945 0.94967 0.6487 0.0
H753 H 1.01438 0.83005 0.58977 0.0
H754 H 0.9802 0.78278 0.60123 0.0
H755 H 1.02992 0.79614 0.59723 0.0
H756 H 1.03329 0.77924 0.64346 0.0
H757 H 0.98363 0.7659 0.64763 0.0
H758 H 1.02018 0.80171 0.66763 0.0
H759 H 1.02 0.9315 0.65344 0.0
H760 H 0.94941 0.90134 0.65625 0.0
H761 H 0.93736 0.79121 0.63533 0.0
C762 C 0.0945 0.85892 0.62794 0.0
C763 C 0.12895 0.89436 0.63175 0.0
C764 C 0.12667 0.92708 0.63918 0.0
C765 C 0.09092 0.92461 0.6429 0.0
C766 C 0.05761 0.88919 0.63922 0.0
C767 C 0.05906 0.85692 0.63192 0.0
C768 C 1.01898 0.82209 0.62985 0.0
C769 C 1.01038 0.80688 0.60292 0.0
C770 C 1.01372 0.79037 0.64824 0.0
C771 C 0.99482 0.8398 0.63724 0.0
C772 C 1.01763 0.87856 0.64244 0.0
C773 C 1.00184 0.9011 0.64953 0.0
C774 C 0.96164 0.88357 0.65129 0.0
C775 C 0.93754 0.84376 0.64616 0.0
C776 C 0.95468 0.82176 0.63911 0.0
H777 H 0.94248 0.08911 0.86284 0.0
H778 H 0.92251 0.13806 0.92938 0.0
H779 H 0.87172 0.07335 0.94243 0.0
H780 H 0.8444 1.02088 0.8509 0.0
H781 H 0.85304 0.98331 0.84022 0.0
H782 H 0.88983 0.03304 0.83678 0.0
H783 H 0.93794 1.01984 0.861 0.0
H784 H 0.90126 0.97 0.86448 0.0
H785 H 0.92536 0.99853 0.89161 0.0
H786 H 0.82128 1.0047 0.94739 0.0
H787 H 0.77314 0.93585 0.94382 0.0
H788 H 0.82477 0.92984 0.87408 0.0
C789 C 0.92778 0.08603 0.88034 0.0
C790 C 0.93639 0.11865 0.89509 0.0
C791 C 0.91612 0.11356 0.91767 0.0
C792 C 0.8874 0.07689 0.92532 0.0
C793 C 0.87922 0.04545 0.91023 0.0
C794 C 0.89875 0.0495 0.88822 0.0
C795 C 0.88286 1.01101 0.87497 0.0
C796 C 0.86656 1.01214 0.84919 0.0
C797 C 0.9137 0.99915 0.8729 0.0
C798 C 0.85105 0.9849 0.89281 0.0
C799 C 0.84976 1.00545 0.91309 0.0
C800 C 0.82216 0.98822 0.9317 0.0
C801 C 0.79485 0.94902 0.92944 0.0
C802 C 0.79514 0.92726 0.90871 0.0
C803 C 0.824 0.9455 0.8903 0.0
H804 H 0.35018 0.12756 0.31762 0.0
H805 H 0.43584 0.24599 0.33418 0.0
H806 H 0.44691 0.25923 0.28858 0.0
H807 H 0.39996 0.11539 0.26638 0.0
H808 H 0.35608 0.08463 0.24961 0.0
H809 H 0.35584 0.08589 0.28316 0.0
H810 H 0.30168 0.10321 0.2819 0.0
H811 H 0.30187 0.10219 0.24836 0.0
H812 H 0.30893 0.14471 0.26441 0.0
H813 H 0.44483 0.25845 0.23961 0.0
H814 H 0.43434 0.2426 0.19437 0.0
H815 H 0.35188 0.12398 0.2129 0.0
C816 C 0.37124 0.15646 0.31179 0.0
C817 C 0.39178 0.18595 0.32939 0.0
C818 C 0.4197 0.22304 0.32093 0.0
C819 C 0.426 0.23075 0.29512 0.0
C820 C 0.40456 0.20086 0.27823 0.0
C821 C 0.37812 0.16435 0.28647 0.0
C822 C 0.35905 0.13654 0.2652 0.0
C823 C 0.36831 0.10369 0.26615 0.0
C824 C 0.3153 0.12076 0.26496 0.0
C825 C 0.37846 0.16296 0.24342 0.0
C826 C 0.40446 0.20008 0.25101 0.0
C827 C 0.42477 0.22936 0.23361 0.0
C828 C 0.41854 0.22018 0.20798 0.0
C829 C 0.3926 0.18198 0.20013 0.0
C830 C 0.37237 0.15335 0.21823 0.0
H831 H 0.78609 0.66648 0.31708 0.0
H832 H 0.88964 0.66209 0.33382 0.0
H833 H 0.89877 0.65636 0.28854 0.0
H834 H 0.75315 0.60023 0.26408 0.0
H835 H 0.73609 0.62802 0.24766 0.0
H836 H 0.73601 0.62727 0.28126 0.0
H837 H 0.77668 0.70189 0.28198 0.0
H838 H 0.77699 0.70288 0.24847 0.0
H839 H 0.82182 0.72582 0.26546 0.0
H840 H 0.89874 0.65689 0.24041 0.0
H841 H 0.89006 0.66428 0.19533 0.0
H842 H 0.78677 0.66893 0.21219 0.0
C843 C 0.81049 0.66376 0.31143 0.0
C844 C 0.83717 0.66474 0.32905 0.0
C845 C 0.86868 0.66119 0.32066 0.0
C846 C 0.87409 0.65794 0.295 0.0
C847 C 0.84753 0.65799 0.27811 0.0
C848 C 0.81625 0.6606 0.28616 0.0
C849 C 0.79305 0.66266 0.26463 0.0
C850 C 0.75216 0.62744 0.2644 0.0
C851 C 0.79211 0.70056 0.26517 0.0
C852 C 0.81653 0.66166 0.24302 0.0
C853 C 0.84765 0.65857 0.25097 0.0
C854 C 0.87421 0.65892 0.23404 0.0
C855 C 0.86901 0.66309 0.20849 0.0
C856 C 0.83773 0.66723 0.20019 0.0
C857 C 0.81097 0.66581 0.2178 0.0
H858 H 0.94357 0.24241 0.20955 0.0
H859 H 0.82337 0.19794 0.19075 0.0
H860 H 0.80754 0.19309 0.23577 0.0
H861 H 0.92913 0.18452 0.2636 0.0
H862 H 0.96883 0.2227 0.28044 0.0
H863 H 0.96985 0.22157 0.2469 0.0
H864 H 0.98011 0.2907 0.24521 0.0
H865 H 0.97901 0.292 0.27875 0.0
H866 H 0.94633 0.30084 0.26066 0.0
H867 H 0.80541 0.19164 0.28367 0.0
H868 H 0.81775 0.19698 0.32926 0.0
H869 H 0.93983 0.24551 0.31505 0.0
C870 C 0.91381 0.23133 0.21482 0.0
C871 C 0.88462 0.22017 0.19666 0.0
C872 C 0.84618 0.20654 0.20439 0.0
C873 C 0.83694 0.20366 0.22989 0.0
C874 C 0.86656 0.21498 0.24732 0.0
C875 C 0.90425 0.22882 0.24001 0.0
C876 C 0.93113 0.24016 0.26213 0.0
C877 C 0.95088 0.21577 0.26333 0.0
C878 C 0.96089 0.2835 0.26165 0.0
C879 C 0.90274 0.23033 0.28315 0.0
C880 C 0.86556 0.21558 0.2744 0.0
C881 C 0.83448 0.20344 0.29067 0.0
C882 C 0.84172 0.20651 0.31651 0.0
C883 C 0.87977 0.22203 0.32569 0.0
C884 C 0.91047 0.2341 0.30867 0.0
H885 H 0.15074 0.3849 0.70976 0.0
H886 H 0.25224 0.37724 0.69277 0.0
H887 H 0.26982 0.38596 0.73772 0.0
H888 H 0.19353 0.45663 0.75997 0.0
H889 H 0.14934 0.43422 0.77754 0.0
H890 H 0.14789 0.43166 0.74398 0.0
H891 H 0.10733 0.35709 0.74627 0.0
H892 H 0.10862 0.35943 0.77974 0.0
H893 H 0.12543 0.33113 0.76379 0.0
H894 H 0.27128 0.38823 0.78611 0.0
H895 H 0.25635 0.38385 0.83138 0.0
H896 H 0.15508 0.39213 0.81436 0.0
C897 C 0.17699 0.38554 0.71534 0.0
C898 C 0.20003 0.3802 0.6978 0.0
C899 C 0.23423 0.38143 0.70593 0.0
C900 C 0.24441 0.38638 0.7314 0.0
C901 C 0.22041 0.39071 0.74833 0.0
C902 C 0.18761 0.39075 0.74041 0.0
C903 C 0.16512 0.3936 0.76199 0.0
C904 C 0.16392 0.43128 0.76079 0.0
C905 C 0.12424 0.35821 0.763 0.0
C906 C 0.18957 0.39394 0.78349 0.0
C907 C 0.22159 0.39262 0.77549 0.0
C908 C 0.24659 0.38989 0.79249 0.0
C909 C 0.23801 0.38754 0.81817 0.0
C910 C 0.20455 0.38761 0.82643 0.0
C911 C 0.18093 0.39202 0.80876 0.0
H912 H 0.28584 0.91693 0.81618 0.0
H913 H 0.18656 0.80523 0.8327 0.0
H914 H 0.17776 0.79045 0.78741 0.0
H915 H 0.24619 0.93722 0.76552 0.0
H916 H 0.29049 0.96199 0.74817 0.0
H917 H 0.29178 0.96093 0.78164 0.0
H918 H 0.33635 0.9315 0.77976 0.0
H919 H 0.33533 0.93259 0.74618 0.0
H920 H 0.32146 0.88798 0.76216 0.0
H921 H 0.17697 0.79133 0.73926 0.0
H922 H 0.18322 0.80845 0.69433 0.0
H923 H 0.28228 0.91997 0.71144 0.0
C924 C 0.26261 0.88899 0.81049 0.0
C925 C 0.23695 0.86223 0.82806 0.0
C926 C 0.20679 0.82617 0.81958 0.0
C927 C 0.20158 0.81751 0.79391 0.0
C928 C 0.22694 0.84516 0.77706 0.0
C929 C 0.25695 0.88008 0.78517 0.0
C930 C 0.27849 0.90644 0.76369 0.0
C931 C 0.27659 0.94382 0.76483 0.0
C932 C 0.32039 0.91512 0.7629 0.0
C933 C 0.25544 0.88139 0.74207 0.0
C934 C 0.2261 0.8459 0.74992 0.0
C935 C 0.20011 0.81888 0.73297 0.0
C936 C 0.20391 0.82881 0.70749 0.0
C937 C 0.23311 0.86561 0.6994 0.0
C938 C 0.2595 0.89166 0.71698 0.0
H939 H 0.73995 0.84033 0.70988 0.0
H940 H 0.64437 0.8586 0.69361 0.0
H941 H 0.63516 0.86318 0.73898 0.0
H942 H 0.69665 0.77875 0.76016 0.0
H943 H 0.74068 0.79591 0.77761 0.0
H944 H 0.74213 0.7988 0.74414 0.0
H945 H 0.79003 0.87231 0.74664 0.0
H946 H 0.78882 0.86965 0.78019 0.0
H947 H 0.77746 0.90246 0.76449 0.0
H948 H 0.63512 0.86225 0.78737 0.0
H949 H 0.64195 0.85204 0.83246 0.0
H950 H 0.73566 0.83182 0.81476 0.0
C951 C 0.71752 0.84611 0.71568 0.0
C952 C 0.69316 0.84954 0.69812 0.0
C953 C 0.66362 0.85617 0.70672 0.0
C954 C 0.65822 0.85887 0.73245 0.0
C955 C 0.68251 0.85472 0.74927 0.0
C956 C 0.71151 0.84839 0.74106 0.0
C957 C 0.73195 0.84177 0.76248 0.0
C958 C 0.72756 0.80142 0.761 0.0
C959 C 0.77459 0.87344 0.76351 0.0
C960 C 0.70974 0.84487 0.78415 0.0
C961 C 0.68164 0.85288 0.77642 0.0
C962 C 0.65717 0.85614 0.79355 0.0
C963 C 0.66128 0.85044 0.81909 0.0
C964 C 0.68914 0.84093 0.827 0.0
C965 C 0.71387 0.83877 0.80925 0.0
H966 H 0.22567 0.96479 0.97665 0.0
H967 H 0.32036 0.94299 0.96807 0.0
H968 H 0.3586 0.99444 0.99876 0.0
H969 H 0.27896 0.06496 0.98275 0.0
H970 H 0.24944 0.06857 1.00667 0.0
H971 H 0.22868 0.02898 0.98497 0.0
H972 H 0.20543 0.97984 0.0214 0.0
H973 H 0.22505 1.01931 0.04321 0.0
H974 H 0.23952 0.9835 0.04472 0.0
H975 H 0.38881 0.0534 0.02717 0.0
H976 H 0.40352 0.10515 0.05791 0.0
H977 H 0.28714 0.08444 0.05046 0.0
C978 C 0.25409 0.97023 0.98177 0.0
C979 C 0.27003 0.94977 0.97023 0.0
C980 C 0.30742 0.95787 0.97709 0.0
C981 C 0.32949 0.98737 0.99425 0.0
C982 C 0.31341 1.00791 1.00472 0.0
C983 C 0.27606 0.99881 0.99935 0.0
C984 C 0.26506 0.02436 1.01373 0.0
C985 C 0.25494 0.04812 0.99596 0.0
C986 C 0.23181 1.00032 0.03184 0.0
C987 C 0.30226 0.04982 0.02762 0.0
C988 C 0.33006 0.04038 0.02188 0.0
C989 C 0.36711 0.06074 0.03197 0.0
C990 C 0.3754 0.09044 0.04914 0.0
C991 C 0.34658 0.09897 0.0563 0.0
C992 C 0.3098 0.07871 0.04509 0.0
H993 H 0.81326 0.77277 0.46473 0.0
H994 H 0.75581 0.64999 0.48004 0.0
H995 H 0.71817 0.6583 0.51331 0.0
H996 H 0.82046 0.80276 0.52918 0.0
H997 H 0.81268 0.84222 0.52195 0.0
H998 H 0.83474 0.82631 0.49928 0.0
H999 H 0.78241 0.81681 0.46721 0.0
H1000 H 0.75956 0.83177 0.48995 0.0
H1001 H 0.73233 0.78567 0.47476 0.0
H1002 H 0.68578 0.67908 0.54374 0.0
H1003 H 0.66718 0.71222 0.57446 0.0
H1004 H 0.74639 0.82238 0.54074 0.0
C1005 C 0.79299 0.74765 0.47523 0.0
C1006 C 0.78743 0.71064 0.46977 0.0
C1007 C 0.76076 0.67859 0.48399 0.0
C1008 C 0.73897 0.68299 0.50274 0.0
C1009 C 0.74441 0.71964 0.50715 0.0
C1010 C 0.77126 0.75157 0.49418 0.0
C1011 C 0.77251 0.78797 0.5034 0.0
C1012 C 0.81246 0.81649 0.51409 0.0
C1013 C 0.76101 0.80664 0.48258 0.0
C1014 C 0.74219 0.77149 0.52373 0.0
C1015 C 0.72605 0.73191 0.5252 0.0
C1016 C 0.6982 0.71001 0.5428 0.0
C1017 C 0.68774 0.72914 0.5601 0.0
C1018 C 0.70522 0.76983 0.55989 0.0
C1019 C 0.732 0.79122 0.54099 0.0
H1020 H 0.11175 0.36833 0.97854 0.0
H1021 H 0.10144 0.25779 0.96177 0.0
H1022 H 0.05026 0.22658 0.99312 0.0
H1023 H 0.09146 0.34897 0.04746 0.0
H1024 H 0.06521 0.37453 0.04835 0.0
H1025 H 0.10431 0.38893 0.02666 0.0
H1026 H 0.05817 0.38156 0.99051 0.0
H1027 H 1.01866 0.36592 1.01198 0.0
H1028 H 1.01473 0.33593 0.98583 0.0
H1029 H 0.99398 0.20548 0.02114 0.0
H1030 H 0.94455 0.19774 0.05167 0.0
H1031 H 0.99245 0.32164 0.05267 0.0
C1032 C 0.09985 0.33793 0.98231 0.0
C1033 C 0.11063 0.31548 0.96782 0.0
C1034 C 0.09362 0.2755 0.97274 0.0
C1035 C 0.06434 0.25743 0.99039 0.0
C1036 C 0.05262 0.27977 1.0033 0.0
C1037 C 0.07054 0.3193 1.00017 0.0
C1038 C 0.05144 0.33608 0.01623 0.0
C1039 C 0.07979 0.36376 0.03584 0.0
C1040 C 0.03477 0.35605 1.00017 0.0
C1041 C 1.01963 0.29973 0.02825 0.0
C1042 C 1.02062 0.26756 0.02029 0.0
C1043 C 0.99321 0.2305 0.02786 0.0
C1044 C 0.9649 0.22631 0.04491 0.0
C1045 C 0.96461 0.25904 0.05438 0.0
C1046 C 0.992 0.29613 0.04562 0.0
H1047 H 0.27579 0.04419 0.45967 0.0
H1048 H 0.38449 0.13021 0.49193 0.0
H1049 H 0.37101 0.08915 0.52939 0.0
H1050 H 0.22138 1.01608 0.51844 0.0
H1051 H 0.19343 0.96624 0.50922 0.0
H1052 H 0.21101 1.0036 0.48593 0.0
H1053 H 0.24407 0.97117 0.46309 0.0
H1054 H 0.22724 0.93407 0.48649 0.0
H1055 H 0.27797 0.96238 0.47976 0.0
H1056 H 0.3489 0.03462 0.5608 0.0
H1057 H 0.31537 0.97575 0.58674 0.0
H1058 H 0.21899 0.92802 0.5355 0.0
C1059 C 0.2965 0.05472 0.4748 0.0
C1060 C 0.33123 0.0904 0.47293 0.0
C1061 C 0.35756 0.10317 0.4931 0.0
C1062 C 0.35026 0.07989 0.51433 0.0
C1063 C 0.31623 0.04429 0.51521 0.0
C1064 C 0.2894 0.03218 0.49619 0.0
C1065 C 0.25512 0.99272 0.50156 0.0
C1066 C 0.21804 0.99481 0.50394 0.0
C1067 C 0.25088 0.96337 0.48153 0.0
C1068 C 0.26709 0.98407 0.52642 0.0
C1069 C 0.30258 1.01404 0.53389 0.0
C1070 C 0.32055 1.01165 0.55554 0.0
C1071 C 0.30117 0.9784 0.57031 0.0
C1072 C 0.26385 0.94861 0.5638 0.0
C1073 C 0.24711 0.95099 0.54121 0.0
H1074 H 0.84363 0.77785 0.05213 0.0
H1075 H 0.75434 0.65808 0.05869 0.0
H1076 H 0.71509 0.66847 0.02731 0.0
H1077 H 0.78405 0.81821 0.04491 0.0
H1078 H 0.81357 0.85324 0.0218 0.0
H1079 H 0.83522 0.83637 0.04421 0.0
H1080 H 0.86416 0.81502 1.00865 0.0
H1081 H 0.8436 0.83293 0.98616 0.0
H1082 H 0.83297 0.7837 0.98443 0.0
H1083 H 0.68334 0.694 0.99773 0.0
H1084 H 0.66754 0.7288 0.96585 0.0
H1085 H 0.77971 0.83016 0.97668 0.0
C1086 C 0.81614 0.75367 0.04655 0.0
C1087 C 0.80201 0.71714 0.05764 0.0
C1088 C 0.76588 0.68615 0.05006 0.0
C1089 C 0.74321 0.69192 0.03251 0.0
C1090 C 0.75747 0.72867 0.02246 0.0
C1091 C 0.79362 0.7587 0.02866 0.0
C1092 C 0.80296 0.79501 0.01451 0.0
C1093 C 0.80932 0.82762 0.03243 0.0
C1094 C 0.83798 0.80738 0.99742 0.0
C1095 C 0.76627 0.78089 0.99959 0.0
C1096 C 0.74003 0.74277 1.00474 0.0
C1097 C 0.70379 0.72377 0.99343 0.0
C1098 C 0.69484 0.74384 0.97561 0.0
C1099 C 0.72232 0.78213 0.96908 0.0
C1100 C 0.75811 0.80097 0.98156 0.0
H1101 H 0.09281 0.27896 0.54956 0.0
H1102 H 0.10298 0.3906 0.56094 0.0
H1103 H 0.05092 0.37404 0.53003 0.0
H1104 H 0.07509 0.27583 0.48162 0.0
H1105 H 0.04278 0.22448 0.48183 0.0
H1106 H 0.08155 0.24614 0.50413 0.0
H1107 H 1.03224 0.2147 0.54005 0.0
H1108 H 0.9932 0.19366 0.51793 0.0
H1109 H 0.99288 0.22402 0.54258 0.0
H1110 H 0.99279 0.34192 0.50119 0.0
H1111 H 0.94261 0.30269 0.47004 0.0
H1112 H 0.97459 0.21451 0.47493 0.0
C1113 C 0.08462 0.30021 0.54506 0.0
C1114 C 0.10189 0.33612 0.55741 0.0
C1115 C 0.09042 0.36319 0.55131 0.0
C1116 C 0.06062 0.35383 0.53402 0.0
C1117 C 0.04329 0.31763 0.5227 0.0
C1118 C 0.05574 0.29174 0.52738 0.0
C1119 C 1.0332 0.25524 0.51221 0.0
C1120 C 0.05973 0.25014 0.49386 0.0
C1121 C 1.01161 0.21983 0.52921 0.0
C1122 C 1.00552 0.26423 0.49863 0.0
C1123 C 1.01134 0.30007 0.50523 0.0
C1124 C 0.9883 0.31401 0.49569 0.0
C1125 C 0.95955 0.29135 0.47827 0.0
C1126 C 0.95464 0.25554 0.47028 0.0
C1127 C 0.97765 0.24172 0.48086 0.0
H1128 H 0.62438 0.1348 0.0959 0.0
H1129 H 0.68312 0.21905 0.1546 0.0
H1130 H 0.62188 0.21467 0.16635 0.0
H1131 H 0.56314 0.17131 0.07718 0.0
H1132 H 0.52214 0.12464 0.07055 0.0
H1133 H 0.57011 0.13213 0.06772 0.0
H1134 H 0.55244 0.07564 0.09826 0.0
H1135 H 0.50447 0.0682 0.10133 0.0
H1136 H 0.53377 0.07636 0.12868 0.0
H1137 H 0.55609 0.20463 0.17049 0.0
H1138 H 0.48943 0.19119 0.16581 0.0
H1139 H 0.47152 0.11359 0.10438 0.0
C1140 C 0.62445 0.15239 0.11121 0.0
C1141 C 0.65881 0.17698 0.12449 0.0
C1142 C 0.65729 0.19931 0.14447 0.0
C1143 C 0.62258 0.19717 0.15125 0.0
C1144 C 0.58941 0.17262 0.13788 0.0
C1145 C 0.58993 0.15072 0.11821 0.0
C1146 C 0.55031 0.12806 0.10626 0.0
C1147 C 0.55151 0.13974 0.0788 0.0
C1148 C 0.53431 0.08448 0.10879 0.0
C1149 C 0.52762 0.14111 0.12211 0.0
C1150 C 0.55089 0.16666 0.14032 0.0
C1151 C 0.53749 0.1844 0.15649 0.0
C1152 C 0.49959 0.17658 0.15367 0.0
C1153 C 0.47528 0.15108 0.13492 0.0
C1154 C 0.48924 0.1325 0.11923 0.0
H1155 H 0.73375 0.55245 0.39371 0.0
H1156 H 0.68269 0.62525 0.39984 0.0
H1157 H 0.61802 0.56699 0.40246 0.0
H1158 H 0.65696 0.47536 0.35706 0.0
H1159 H 0.66157 0.43845 0.3732 0.0
H1160 H 0.70297 0.48583 0.3695 0.0
H1161 H 0.71364 0.4908 0.41735 0.0
H1162 H 0.67224 0.4436 0.42124 0.0
H1163 H 0.675 0.48412 0.43763 0.0
H1164 H 0.55909 0.49985 0.40728 0.0
H1165 H 0.51211 0.43082 0.41452 0.0
H1166 H 0.60319 0.40368 0.40517 0.0
C1167 C 0.70905 0.55637 0.39521 0.0
C1168 C 0.71336 0.59352 0.39647 0.0
C1169 C 0.68013 0.5971 0.3987 0.0
C1170 C 0.64328 0.56417 0.40019 0.0
C1171 C 0.64022 0.52797 0.39932 0.0
C1172 C 0.67231 0.52403 0.39679 0.0
C1173 C 0.66191 0.48224 0.39772 0.0
C1174 C 0.67141 0.46974 0.37289 0.0
C1175 C 0.68188 0.47478 0.4198 0.0
C1176 C 0.61895 0.46314 0.40165 0.0
C1177 C 0.60677 0.48982 0.40229 0.0
C1178 C 0.56831 0.47874 0.40657 0.0
C1179 C 0.54181 0.43948 0.41057 0.0
C1180 C 0.55401 0.4119 0.41047 0.0
C1181 C 0.59302 0.42407 0.40558 0.0
H1182 H 0.8708 0.32731 0.11057 0.0
H1183 H 0.96975 0.36715 0.15972 0.0
H1184 H 0.9718 0.42932 0.16458 0.0
H1185 H 0.90314 0.41579 0.07891 0.0
H1186 H 0.85602 0.41065 0.07626 0.0
H1187 H 0.86091 0.3685 0.07783 0.0
H1188 H 0.81495 0.34385 0.11581 0.0
H1189 H 0.80994 0.386 0.11439 0.0
H1190 H 0.82571 0.37426 0.14286 0.0
H1191 H 0.96475 0.48812 0.16276 0.0
H1192 H 0.94968 0.53954 0.15397 0.0
H1193 H 0.8559 0.46168 0.10559 0.0
C1194 C 0.89272 0.34889 0.12257 0.0
C1195 C 0.92009 0.34217 0.13481 0.0
C1196 C 0.94844 0.37148 0.15014 0.0
C1197 C 0.9498 0.4069 0.15307 0.0
C1198 C 0.92259 0.41262 0.14059 0.0
C1199 C 0.89457 0.38443 0.12565 0.0
C1200 C 0.86961 0.39837 0.11354 0.0
C1201 C 0.87262 0.39833 0.08495 0.0
C1202 C 0.82756 0.37418 0.12218 0.0
C1203 C 0.88825 0.43902 0.12377 0.0
C1204 C 0.91863 0.44657 0.13945 0.0
C1205 C 0.94096 0.48249 0.15058 0.0
C1206 C 0.9323 0.51157 0.14536 0.0
C1207 C 0.90164 0.50471 0.12906 0.0
C1208 C 0.87914 0.46771 0.1184 0.0
H1209 H 0.47627 0.14974 0.43124 0.0
H1210 H 0.43453 0.09359 0.35961 0.0
H1211 H 0.49675 0.09564 0.35292 0.0
H1212 H 0.5715 0.21463 0.41179 0.0
H1213 H 0.593 0.21284 0.44093 0.0
H1214 H 0.54463 0.20466 0.44039 0.0
H1215 H 0.51992 0.13873 0.46221 0.0
H1216 H 0.56826 0.1468 0.46298 0.0
H1217 H 0.53026 0.10379 0.44868 0.0
H1218 H 0.56574 0.10617 0.35418 0.0
H1219 H 0.63255 0.12214 0.3635 0.0
H1220 H 0.62798 0.1738 0.43354 0.0
C1221 C 0.47976 0.13737 0.41419 0.0
C1222 C 0.45023 0.12125 0.39598 0.0
C1223 C 0.45653 0.10582 0.37391 0.0
C1224 C 0.49186 0.10701 0.36995 0.0
C1225 C 0.52058 0.12384 0.38818 0.0
C1226 C 0.51467 0.13862 0.40989 0.0
C1227 C 0.55008 0.15627 0.42639 0.0
C1228 C 0.56571 0.19966 0.43008 0.0
C1229 C 0.54161 0.13512 0.45155 0.0
C1230 C 0.57708 0.14905 0.41071 0.0
C1231 C 0.55973 0.13034 0.38872 0.0
C1232 C 0.57946 0.12084 0.37135 0.0
C1233 C 0.61759 0.13032 0.37673 0.0
C1234 C 0.63576 0.1492 0.39932 0.0
C1235 C 0.61499 0.15885 0.4163 0.0
H1236 H 0.60826 0.40615 0.11551 0.0
H1237 H 0.51824 0.43435 0.12711 0.0
H1238 H 0.56747 0.50284 0.1322 0.0
H1239 H 0.67635 0.47506 0.16008 0.0
H1240 H 0.71784 0.48677 0.14113 0.0
H1241 H 0.67558 0.43966 0.13903 0.0
H1242 H 0.67242 0.44858 0.0914 0.0
H1243 H 0.71464 0.4957 0.09339 0.0
H1244 H 0.67094 0.49005 0.07988 0.0
H1245 H 0.62612 0.56869 0.13411 0.0
H1246 H 0.69039 0.62713 0.13433 0.0
H1247 H 0.74291 0.55662 0.12224 0.0
C1248 C 0.59893 0.42674 0.11915 0.0
C1249 C 0.55929 0.41474 0.12105 0.0
C1250 C 0.54836 0.44264 0.12598 0.0
C1251 C 0.57612 0.4817 0.12875 0.0
C1252 C 0.61485 0.49255 0.12668 0.0
C1253 C 0.62634 0.46591 0.12214 0.0
C1254 C 0.66989 0.48535 0.12066 0.0
C1255 C 0.68585 0.47084 0.14147 0.0
C1256 C 0.68271 0.47958 0.09479 0.0
C1257 C 0.68101 0.52707 0.12483 0.0
C1258 C 0.64879 0.53056 0.1282 0.0
C1259 C 0.65159 0.56629 0.13167 0.0
C1260 C 0.68827 0.59937 0.13171 0.0
C1261 C 0.72182 0.59658 0.12844 0.0
C1262 C 0.71794 0.55979 0.12506 0.0
H1263 H 0.84313 0.45154 0.40884 0.0
H1264 H 0.96381 0.53992 0.41228 0.0
H1265 H 0.98231 0.49046 0.4062 0.0
H1266 H 0.8516 0.38019 0.44207 0.0
H1267 H 0.8172 0.34031 0.42341 0.0
H1268 H 0.81317 0.38282 0.42646 0.0
H1269 H 0.81492 0.39 0.37838 0.0
H1270 H 0.8188 0.34736 0.3752 0.0
H1271 H 0.85434 0.39195 0.36111 0.0
H1272 H 0.98795 0.43132 0.4022 0.0
H1273 H 0.98027 0.36645 0.39988 0.0
H1274 H 0.85597 0.31615 0.39826 0.0
C1275 C 0.87343 0.46056 0.40785 0.0
C1276 C 0.90201 0.49966 0.41116 0.0
C1277 C 0.94137 0.51013 0.41014 0.0
C1278 C 0.9522 0.48227 0.40654 0.0
C1279 C 0.92337 0.44396 0.4038 0.0
C1280 C 0.88479 0.43305 0.40425 0.0
C1281 C 0.85961 0.3897 0.40171 0.0
C1282 C 0.83389 0.37224 0.42479 0.0
C1283 C 0.8355 0.37914 0.37767 0.0
C1284 C 0.89008 0.37798 0.4002 0.0
C1285 C 0.92666 0.40977 0.4013 0.0
C1286 C 0.95945 0.40621 0.40109 0.0
C1287 C 0.95476 0.36917 0.39981 0.0
C1288 C 0.91753 0.33606 0.39877 0.0
C1289 C 0.88485 0.34078 0.3988 0.0
H1290 H 0.20404 0.63512 0.62228 0.0
H1291 H 0.08418 0.59993 0.63546 0.0
H1292 H 0.06916 0.53274 0.64108 0.0
H1293 H 0.1877 0.55373 0.5878 0.0
H1294 H 0.22774 0.55115 0.60088 0.0
H1295 H 0.22942 0.59676 0.59913 0.0
H1296 H 0.24202 0.6063 0.64672 0.0
H1297 H 0.24058 0.56076 0.64858 0.0
H1298 H 0.20917 0.56964 0.66791 0.0
H1299 H 0.06648 0.46809 0.64253 0.0
H1300 H 0.07735 0.41252 0.64132 0.0
H1301 H 0.19922 0.49106 0.62895 0.0
C1302 C 0.17477 0.61352 0.62687 0.0
C1303 C 0.14531 0.623 0.6283 0.0
C1304 C 0.10722 0.59345 0.63387 0.0
C1305 C 0.0984 0.55516 0.63726 0.0
C1306 C 0.12801 0.54675 0.63528 0.0
C1307 C 0.16549 0.57519 0.63044 0.0
C1308 C 0.19187 0.55849 0.62859 0.0
C1309 C 0.21025 0.56544 0.60255 0.0
C1310 C 0.22273 0.57476 0.64918 0.0
C1311 C 0.16331 0.5162 0.63282 0.0
C1312 C 0.12659 0.50988 0.63664 0.0
C1313 C 0.09524 0.47277 0.63985 0.0
C1314 C 0.10164 0.44136 0.6391 0.0
C1315 C 0.13914 0.4473 0.63528 0.0
C1316 C 0.17023 0.48537 0.63227 0.0
H1317 H 0.32984 0.84549 0.90643 0.0
H1318 H 0.38217 0.96855 0.89353 0.0
H1319 H 0.44628 0.97449 0.89262 0.0
H1320 H 0.40254 0.85188 0.94762 0.0
H1321 H 0.40071 0.80865 0.9364 0.0
H1322 H 0.35855 0.81349 0.93455 0.0
H1323 H 0.35427 0.80048 0.88702 0.0
H1324 H 0.39654 0.79573 0.88869 0.0
H1325 H 0.39526 0.83002 0.86756 0.0
H1326 H 0.50466 0.96778 0.89409 0.0
H1327 H 0.55422 0.94933 0.89977 0.0
H1328 H 0.46487 0.8309 0.91289 0.0
C1329 C 0.35475 0.87362 0.90316 0.0
C1330 C 0.3509 0.90654 0.89994 0.0
C1331 C 0.38431 0.94291 0.89608 0.0
C1332 C 0.42088 0.94658 0.89542 0.0
C1333 C 0.42368 0.91365 0.89874 0.0
C1334 C 0.3916 0.87788 0.90265 0.0
C1335 C 0.4029 0.84746 0.90686 0.0
C1336 C 0.39044 0.82932 0.93291 0.0
C1337 C 0.38625 0.8166 0.8863 0.0
C1338 C 0.44637 0.87183 0.90491 0.0
C1339 C 0.45762 0.90986 0.90001 0.0
C1340 C 0.49623 0.9381 0.89793 0.0
C1341 C 0.52417 0.92736 0.90132 0.0
C1342 C 0.51348 0.88873 0.90691 0.0
C1343 C 0.47395 0.86055 0.90835 0.0
H1344 H 0.5637 0.7354 0.62423 0.0
H1345 H 0.62661 0.68931 0.66331 0.0
H1346 H 0.56652 0.62606 0.66637 0.0
H1347 H 0.4725 0.68111 0.65773 0.0
H1348 H 0.44454 0.6749 0.62999 0.0
H1349 H 0.49146 0.71705 0.63349 0.0
H1350 H 0.51261 0.70152 0.59151 0.0
H1351 H 0.46596 0.65922 0.58794 0.0
H1352 H 0.50862 0.65509 0.58719 0.0
H1353 H 0.49975 0.56618 0.66183 0.0
H1354 H 0.43357 0.516 0.65022 0.0
H1355 H 0.41618 0.60272 0.61389 0.0
C1356 C 0.56499 0.71232 0.63383 0.0
C1357 C 0.60002 0.71746 0.64359 0.0
C1358 C 0.60013 0.68622 0.65585 0.0
C1359 C 0.56613 0.65017 0.65763 0.0
C1360 C 0.53232 0.64598 0.64719 0.0
C1361 C 0.5316 0.67641 0.63567 0.0
C1362 C 0.49249 0.66431 0.62456 0.0
C1363 C 0.47417 0.68561 0.63721 0.0
C1364 C 0.4951 0.67039 0.59612 0.0
C1365 C 0.47128 0.622 0.63114 0.0
C1366 C 0.49448 0.61191 0.6444 0.0
C1367 C 0.48128 0.57394 0.6517 0.0
C1368 C 0.4436 0.54565 0.6451 0.0
C1369 C 0.41966 0.55541 0.63115 0.0
C1370 C 0.43379 0.59424 0.6244 0.0
H1371 H 0.21861 0.63918 0.90816 0.0
H1372 H 0.0983 0.60801 0.90739 0.0
H1373 H 0.0793 0.53952 0.90257 0.0
H1374 H 0.21044 0.56893 0.86272 0.0
H1375 H 0.24449 0.55936 0.87845 0.0
H1376 H 0.24854 0.60599 0.88124 0.0
H1377 H 0.24605 0.59962 0.92939 0.0
H1378 H 0.24202 0.553 0.92672 0.0
H1379 H 0.20624 0.5582 0.94378 0.0
H1380 H 0.07333 0.47337 0.89921 0.0
H1381 H 0.08143 0.41616 0.89678 0.0
H1382 H 0.20552 0.49123 0.89964 0.0
C1383 C 0.18825 0.61799 0.90704 0.0
C1384 C 0.16001 0.62919 0.90805 0.0
C1385 C 0.12058 0.60038 0.90627 0.0
C1386 C 0.10945 0.56129 0.90368 0.0
C1387 C 0.13802 0.55127 0.90281 0.0
C1388 C 0.17663 0.57886 0.90436 0.0
C1389 C 0.20169 0.56057 0.90312 0.0
C1390 C 0.22783 0.57454 0.88 0.0
C1391 C 0.22539 0.56831 0.92719 0.0
C1392 C 0.17118 0.51842 0.90082 0.0
C1393 C 0.1346 0.51352 0.90068 0.0
C1394 C 0.10189 0.47693 0.89917 0.0
C1395 C 0.10676 0.44457 0.8978 0.0
C1396 C 0.14406 0.449 0.89788 0.0
C1397 C 0.17653 0.4866 0.89934 0.0
H1398 H 0.3276 0.85546 0.60758 0.0
H1399 H 0.37311 0.96111 0.65074 0.0
H1400 H 0.43618 0.96482 0.65278 0.0
H1401 H 0.37979 0.81642 0.63978 0.0
H1402 H 0.38806 0.79655 0.6119 0.0
H1403 H 0.34598 0.8015 0.61427 0.0
H1404 H 0.3653 0.84161 0.57354 0.0
H1405 H 0.4074 0.83677 0.57103 0.0
H1406 H 0.41233 0.88397 0.57119 0.0
H1407 H 0.49447 0.95747 0.65013 0.0
H1408 H 0.54472 0.94077 0.64157 0.0
H1409 H 0.46204 0.84042 0.59974 0.0
C1410 C 0.3507 0.87931 0.61757 0.0
C1411 C 0.34514 0.90794 0.62903 0.0
C1412 C 0.37644 0.93879 0.64174 0.0
C1413 C 0.41244 0.94114 0.64308 0.0
C1414 C 0.41689 0.91251 0.63157 0.0
C1415 C 0.38696 0.88225 0.61899 0.0
C1416 C 0.39969 0.85574 0.60777 0.0
C1417 C 0.37703 0.81515 0.61912 0.0
C1418 C 0.39596 0.85447 0.57919 0.0
C1419 C 0.44154 0.87603 0.61587 0.0
C1420 C 0.45073 0.90854 0.62976 0.0
C1421 C 0.48759 0.93202 0.63935 0.0
C1422 C 0.51588 0.92216 0.6345 0.0
C1423 C 0.50732 0.88922 0.62007 0.0
C1424 C 0.46954 0.86589 0.6107 0.0
H1425 H 0.60432 0.6815 0.91918 0.0
H1426 H 0.59139 0.73315 0.85157 0.0
H1427 H 0.52518 0.67856 0.84634 0.0
H1428 H 0.5429 0.57824 0.90001 0.0
H1429 H 0.52252 0.56377 0.93074 0.0
H1430 H 0.57088 0.60359 0.92707 0.0
H1431 H 0.55258 0.64714 0.9522 0.0
H1432 H 0.50409 0.6077 0.95564 0.0
H1433 H 0.51263 0.65235 0.94197 0.0
H1434 H 0.45875 0.62293 0.85072 0.0
H1435 H 0.39619 0.56877 0.86392 0.0
H1436 H 0.45063 0.55242 0.92921 0.0
C1437 C 0.58793 0.68037 0.90281 0.0
C1438 C 0.60307 0.7109 0.8854 0.0
C1439 C 0.58036 0.70958 0.86481 0.0
C1440 C 0.54276 0.67877 0.86173 0.0
C1441 C 0.52808 0.64961 0.87957 0.0
C1442 C 0.54992 0.64995 0.89967 0.0
C1443 C 0.52582 0.61688 0.91733 0.0
C1444 C 0.54147 0.58896 0.91887 0.0
C1445 C 0.52366 0.63194 0.94332 0.0
C1446 C 0.48703 0.59845 0.90422 0.0
C1447 C 0.48916 0.61765 0.88237 0.0
C1448 C 0.45683 0.60721 0.86757 0.0
C1449 C 0.42137 0.57623 0.8752 0.0
C1450 C 0.41826 0.55588 0.89752 0.0
C1451 C 0.45179 0.56731 0.91211 0.0
loop_
_geom_bond_atom_site_label_1
_geom_bond_atom_site_label_2
_geom_bond_distance
_geom_bond_site_symmetry_2
_ccdc_geom_bond_type
Tb0 C10 2.825 . S
Tb0 O11 2.347 . S
Tb0 O14 2.366 . S
Tb0 O19 2.418 . S
Tb0 O20 2.384 . S
Tb0 O23 2.479 . S
Tb0 O24 2.471 . S
Eu1 O12 2.418 . S
Eu1 O13 2.384 . S
Eu1 O16 2.479 . S
Eu1 O17 2.471 . S
Eu1 O18 2.347 . S
Eu1 O21 2.366 . S
Eu1 C31 2.825 . S
C2 O18 1.259 . S
C2 O19 1.265 . S
C3 O20 1.255 . S
C3 O21 1.265 . S
C4 C6 1.380 . S
C4 C7 1.374 . S
C4 C10 1.507 . S
C5 C6 1.384 . S
C5 C9 1.387 . S
C5 H32 0.930 . S
C6 C4 1.380 . S
C6 C5 1.384 . S
C6 H33 0.931 . S
C7 C4 1.374 . S
C7 C8 1.390 . S
C7 H34 0.930 . S
C8 C7 1.390 . S
C8 C9 1.391 . S
C8 H35 0.930 . S
C9 C5 1.387 . S
C9 C8 1.391 . S
C10 Tb0 2.825 . S
C10 C4 1.507 . S
C10 O23 1.238 . S
C10 O24 1.247 . S
O11 Tb0 2.347 . S
O11 C15 1.259 . S
O12 Eu1 2.418 . S
O12 C15 1.265 . S
O13 Eu1 2.384 . S
O13 C22 1.255 . S
O14 Tb0 2.366 . S
O14 C22 1.265 . S
C15 O11 1.259 . S
C15 O12 1.265 . S
O16 Eu1 2.479 . S
O16 C31 1.238 . S
O17 Eu1 2.471 . S
O17 C31 1.247 . S
O18 Eu1 2.347 . S
O18 C2 1.259 . S
O19 Tb0 2.418 . S
O19 C2 1.265 . S
O20 Tb0 2.384 . S
O20 C3 1.255 . S
O21 Eu1 2.366 . S
O21 C3 1.265 . S
C22 O13 1.255 . S
C22 O14 1.265 . S
O23 Tb0 2.479 . S
O23 C10 1.238 . S
O24 Tb0 2.471 . S
O24 C10 1.247 . S
C25 C28 1.380 . S
C25 C29 1.374 . S
C25 C31 1.507 1_565 S
C26 C27 1.387 . S
C26 C30 1.391 . S
C27 C26 1.387 . S
C27 C28 1.384 . S
C27 H36 0.930 . S
C28 C25 1.380 . S
C28 C27 1.384 . S
C28 H37 0.931 . S
C29 C25 1.374 . S
C29 C30 1.390 . S
C29 H38 0.927 1_565 S
C30 C26 1.391 . S
C30 C29 1.390 . S
C30 H39 0.930 . S
C31 Eu1 2.825 . S
C31 O16 1.238 . S
C31 O17 1.247 . S
C31 C25 1.507 1_545 S
H32 C5 0.930 . S
H33 C6 0.931 . S
H34 C7 0.930 . S
H35 C8 0.930 . S
H36 C27 0.930 . S
H37 C28 0.931 . S
H38 C29 0.927 1_545 S
H39 C30 0.930 . S
Tb40 C50 2.825 . S
Tb40 O51 2.347 . S
Tb40 O54 2.366 . S
Tb40 O59 2.418 . S
Tb40 O60 2.384 . S
Tb40 O63 2.479 . S
Tb40 O64 2.471 . S
Eu41 O52 2.418 . S
Eu41 O53 2.384 . S
Eu41 O56 2.479 . S
Eu41 O57 2.471 . S
Eu41 O58 2.347 . S
Eu41 O61 2.366 . S
Eu41 C71 2.825 . S
C42 O58 1.259 . S
C42 O59 1.265 . S
C43 O60 1.255 . S
C43 O61 1.265 . S
C44 C46 1.380 . S
C44 C47 1.374 . S
C44 C50 1.507 . S
C45 C46 1.384 . S
C45 C49 1.387 . S
C45 H72 0.930 . S
C46 C44 1.380 . S
C46 C45 1.384 . S
C46 H73 0.931 . S
C47 C44 1.374 . S
C47 C48 1.390 . S
C47 H74 0.930 . S
C48 C47 1.390 . S
C48 C49 1.391 . S
C48 H75 0.930 . S
C49 C45 1.387 . S
C49 C48 1.391 . S
C50 Tb40 2.825 . S
C50 C44 1.507 . S
C50 O63 1.238 . S
C50 O64 1.247 . S
O51 Tb40 2.347 . S
O51 C55 1.259 . S
O52 Eu41 2.418 . S
O52 C55 1.265 . S
O53 Eu41 2.384 . S
O53 C62 1.255 . S
O54 Tb40 2.366 . S
O54 C62 1.265 . S
C55 O51 1.259 . S
C55 O52 1.265 . S
O56 Eu41 2.479 . S
O56 C71 1.238 . S
O57 Eu41 2.471 . S
O57 C71 1.247 . S
O58 Eu41 2.347 . S
O58 C42 1.259 . S
O59 Tb40 2.418 . S
O59 C42 1.265 . S
O60 Tb40 2.384 . S
O60 C43 1.255 . S
O61 Eu41 2.366 . S
O61 C43 1.265 . S
C62 O53 1.255 . S
C62 O54 1.265 . S
O63 Tb40 2.479 . S
O63 C50 1.238 . S
O64 Tb40 2.471 . S
O64 C50 1.247 . S
C65 C68 1.380 . S
C65 C69 1.374 . S
C65 C71 1.507 . S
C66 C67 1.387 . S
C66 C70 1.391 . S
C67 C66 1.387 . S
C67 C68 1.384 . S
C67 H76 0.930 . S
C68 C65 1.380 . S
C68 C67 1.384 . S
C68 H77 0.931 . S
C69 C65 1.374 . S
C69 C70 1.390 . S
C69 H78 0.930 . S
C70 C66 1.391 . S
C70 C69 1.390 . S
C70 H79 0.930 . S
C71 Eu41 2.825 . S
C71 O56 1.238 . S
C71 O57 1.247 . S
C71 C65 1.507 . S
H72 C45 0.930 . S
H73 C46 0.931 . S
H74 C47 0.930 . S
H75 C48 0.930 . S
H76 C67 0.930 . S
H77 C68 0.931 . S
H78 C69 0.930 . S
H79 C70 0.930 . S
Tb80 C90 2.825 . S
Tb80 O91 2.347 . S
Tb80 O94 2.366 . S
Tb80 O99 2.418 . S
Tb80 O100 2.384 . S
Tb80 O103 2.479 . S
Tb80 O104 2.471 . S
Eu81 O92 2.418 . S
Eu81 O93 2.384 . S
Eu81 O96 2.479 . S
Eu81 O97 2.471 . S
Eu81 O98 2.347 . S
Eu81 O101 2.366 . S
Eu81 C111 2.825 . S
C82 O98 1.259 . S
C82 O99 1.265 . S
C83 O100 1.255 . S
C83 O101 1.265 . S
C84 C86 1.380 . S
C84 C87 1.374 . S
C84 C90 1.507 . S
C85 C86 1.384 . S
C85 C89 1.387 . S
C85 H112 0.930 . S
C86 C84 1.380 . S
C86 C85 1.384 . S
C86 H113 0.931 . S
C87 C84 1.374 . S
C87 C88 1.390 . S
C87 H114 0.930 . S
C88 C87 1.390 . S
C88 C89 1.391 . S
C88 H115 0.930 . S
C89 C85 1.387 . S
C89 C88 1.391 . S
C90 Tb80 2.825 . S
C90 C84 1.507 . S
C90 O103 1.238 . S
C90 O104 1.247 . S
O91 Tb80 2.347 . S
O91 C95 1.259 . S
O92 Eu81 2.418 . S
O92 C95 1.265 . S
O93 Eu81 2.384 . S
O93 C102 1.255 . S
O94 Tb80 2.366 . S
O94 C102 1.265 . S
C95 O91 1.259 . S
C95 O92 1.265 . S
O96 Eu81 2.479 . S
O96 C111 1.238 . S
O97 Eu81 2.471 . S
O97 C111 1.247 . S
O98 Eu81 2.347 . S
O98 C82 1.259 . S
O99 Tb80 2.418 . S
O99 C82 1.265 . S
O100 Tb80 2.384 . S
O100 C83 1.255 . S
O101 Eu81 2.366 . S
O101 C83 1.265 . S
C102 O93 1.255 . S
C102 O94 1.265 . S
O103 Tb80 2.479 . S
O103 C90 1.238 . S
O104 Tb80 2.471 . S
O104 C90 1.247 . S
C105 C108 1.380 . S
C105 C109 1.374 . S
C105 C111 1.507 1_455 S
C106 C107 1.387 . S
C106 C110 1.391 . S
C107 C106 1.387 . S
C107 C108 1.384 . S
C107 H116 0.930 . S
C108 C105 1.380 . S
C108 C107 1.384 . S
C108 H117 0.931 . S
C109 C105 1.374 . S
C109 C110 1.390 . S
C109 H118 0.926 1_455 S
C110 C106 1.391 . S
C110 C109 1.390 . S
C110 H119 0.930 . S
C111 Eu81 2.825 . S
C111 O96 1.238 . S
C111 O97 1.247 . S
C111 C105 1.507 1_655 S
H112 C85 0.930 . S
H113 C86 0.931 . S
H114 C87 0.930 . S
H115 C88 0.930 . S
H116 C107 0.930 . S
H117 C108 0.931 . S
H118 C109 0.926 1_655 S
H119 C110 0.930 . S
Tb120 C130 2.825 . S
Tb120 O131 2.347 . S
Tb120 O134 2.366 . S
Tb120 O139 2.418 . S
Tb120 O140 2.384 . S
Tb120 O143 2.479 . S
Tb120 O144 2.471 . S
Eu121 O132 2.418 . S
Eu121 O133 2.384 . S
Eu121 O136 2.479 . S
Eu121 O137 2.471 . S
Eu121 O138 2.347 . S
Eu121 O141 2.366 . S
Eu121 C151 2.825 . S
C122 O138 1.259 . S
C122 O139 1.265 . S
C123 O140 1.255 . S
C123 O141 1.265 . S
C124 C126 1.380 . S
C124 C127 1.374 . S
C124 C130 1.507 1_565 S
C125 C126 1.384 . S
C125 C129 1.387 . S
C125 H152 0.930 . S
C126 C124 1.380 . S
C126 C125 1.384 . S
C126 H153 0.931 . S
C127 C124 1.374 . S
C127 C128 1.390 . S
C127 H154 0.927 1_565 S
C128 C127 1.390 . S
C128 C129 1.391 . S
C128 H155 0.930 . S
C129 C125 1.387 . S
C129 C128 1.391 . S
C130 Tb120 2.825 . S
C130 C124 1.507 1_545 S
C130 O143 1.238 . S
C130 O144 1.247 . S
O131 Tb120 2.347 . S
O131 C135 1.259 . S
O132 Eu121 2.418 . S
O132 C135 1.265 . S
O133 Eu121 2.384 . S
O133 C142 1.255 . S
O134 Tb120 2.366 . S
O134 C142 1.265 . S
C135 O131 1.259 . S
C135 O132 1.265 . S
O136 Eu121 2.479 . S
O136 C151 1.238 . S
O137 Eu121 2.471 . S
O137 C151 1.247 . S
O138 Eu121 2.347 . S
O138 C122 1.259 . S
O139 Tb120 2.418 . S
O139 C122 1.265 . S
O140 Tb120 2.384 . S
O140 C123 1.255 . S
O141 Eu121 2.366 . S
O141 C123 1.265 . S
C142 O133 1.255 . S
C142 O134 1.265 . S
O143 Tb120 2.479 . S
O143 C130 1.238 . S
O144 Tb120 2.471 . S
O144 C130 1.247 . S
C145 C148 1.380 . S
C145 C149 1.374 . S
C145 C151 1.507 . S
C146 C147 1.387 . S
C146 C150 1.391 . S
C147 C146 1.387 . S
C147 C148 1.384 . S
C147 H156 0.930 . S
C148 C145 1.380 . S
C148 C147 1.384 . S
C148 H157 0.931 . S
C149 C145 1.374 . S
C149 C150 1.390 . S
C149 H158 0.930 . S
C150 C146 1.391 . S
C150 C149 1.390 . S
C150 H159 0.930 . S
C151 Eu121 2.825 . S
C151 O136 1.238 . S
C151 O137 1.247 . S
C151 C145 1.507 . S
H152 C125 0.930 . S
H153 C126 0.931 . S
H154 C127 0.927 1_545 S
H155 C128 0.930 . S
H156 C147 0.930 . S
H157 C148 0.931 . S
H158 C149 0.930 . S
H159 C150 0.930 . S
Tb160 C170 2.825 . S
Tb160 O171 2.347 . S
Tb160 O174 2.366 . S
Tb160 O179 2.418 . S
Tb160 O180 2.384 . S
Tb160 O183 2.479 . S
Tb160 O184 2.471 . S
Eu161 O172 2.418 . S
Eu161 O173 2.384 . S
Eu161 O176 2.479 . S
Eu161 O177 2.471 . S
Eu161 O178 2.347 . S
Eu161 O181 2.366 . S
Eu161 C191 2.825 . S
C162 O178 1.259 . S
C162 O179 1.265 . S
C163 O180 1.255 . S
C163 O181 1.265 . S
C164 C166 1.380 . S
C164 C167 1.374 . S
C164 C170 1.507 . S
C165 C166 1.384 . S
C165 C169 1.387 . S
C165 H192 0.930 . S
C166 C164 1.380 . S
C166 C165 1.384 . S
C166 H193 0.931 . S
C167 C164 1.374 . S
C167 C168 1.390 . S
C167 H194 0.930 . S
C168 C167 1.390 . S
C168 C169 1.391 . S
C168 H195 0.930 . S
C169 C165 1.387 . S
C169 C168 1.391 . S
C170 Tb160 2.825 . S
C170 C164 1.507 . S
C170 O183 1.238 . S
C170 O184 1.247 . S
O171 Tb160 2.347 . S
O171 C175 1.259 . S
O172 Eu161 2.418 . S
O172 C175 1.265 . S
O173 Eu161 2.384 . S
O173 C182 1.255 . S
O174 Tb160 2.366 . S
O174 C182 1.265 . S
C175 O171 1.259 . S
C175 O172 1.265 . S
O176 Eu161 2.479 . S
O176 C191 1.238 . S
O177 Eu161 2.471 . S
O177 C191 1.247 . S
O178 Eu161 2.347 . S
O178 C162 1.259 . S
O179 Tb160 2.418 . S
O179 C162 1.265 . S
O180 Tb160 2.384 . S
O180 C163 1.255 . S
O181 Eu161 2.366 . S
O181 C163 1.265 . S
C182 O173 1.255 . S
C182 O174 1.265 . S
O183 Tb160 2.479 . S
O183 C170 1.238 . S
O184 Tb160 2.471 . S
O184 C170 1.247 . S
C185 C188 1.380 . S
C185 C189 1.374 . S
C185 C191 1.507 . S
C186 C187 1.387 . S
C186 C190 1.391 . S
C187 C186 1.387 . S
C187 C188 1.384 . S
C187 H196 0.930 . S
C188 C185 1.380 . S
C188 C187 1.384 . S
C188 H197 0.931 . S
C189 C185 1.374 . S
C189 C190 1.390 . S
C189 H198 0.930 . S
C190 C186 1.391 . S
C190 C189 1.390 . S
C190 H199 0.930 . S
C191 Eu161 2.825 . S
C191 O176 1.238 . S
C191 O177 1.247 . S
C191 C185 1.507 . S
H192 C165 0.930 . S
H193 C166 0.931 . S
H194 C167 0.930 . S
H195 C168 0.930 . S
H196 C187 0.930 . S
H197 C188 0.931 . S
H198 C189 0.930 . S
H199 C190 0.930 . S
Tb200 C210 2.825 . S
Tb200 O211 2.347 . S
Tb200 O214 2.366 . S
Tb200 O219 2.418 . S
Tb200 O220 2.384 . S
Tb200 O223 2.479 . S
Tb200 O224 2.471 . S
Eu201 O212 2.418 . S
Eu201 O213 2.384 . S
Eu201 O216 2.479 . S
Eu201 O217 2.471 . S
Eu201 O218 2.347 . S
Eu201 O221 2.366 . S
Eu201 C231 2.825 . S
C202 O218 1.259 . S
C202 O219 1.265 . S
C203 O220 1.255 . S
C203 O221 1.265 . S
C204 C206 1.380 . S
C204 C207 1.374 . S
C204 C210 1.507 1_455 S
C205 C206 1.384 . S
C205 C209 1.387 . S
C205 H232 0.930 . S
C206 C204 1.380 . S
C206 C205 1.384 . S
C206 H233 0.931 . S
C207 C204 1.374 . S
C207 C208 1.390 . S
C207 H234 0.926 1_455 S
C208 C207 1.390 . S
C208 C209 1.391 . S
C208 H235 0.930 . S
C209 C205 1.387 . S
C209 C208 1.391 . S
C210 Tb200 2.825 . S
C210 C204 1.507 1_655 S
C210 O223 1.238 . S
C210 O224 1.247 . S
O211 Tb200 2.347 . S
O211 C215 1.259 . S
O212 Eu201 2.418 . S
O212 C215 1.265 . S
O213 Eu201 2.384 . S
O213 C222 1.255 . S
O214 Tb200 2.366 . S
O214 C222 1.265 . S
C215 O211 1.259 . S
C215 O212 1.265 . S
O216 Eu201 2.479 . S
O216 C231 1.238 . S
O217 Eu201 2.471 . S
O217 C231 1.247 . S
O218 Eu201 2.347 . S
O218 C202 1.259 . S
O219 Tb200 2.418 . S
O219 C202 1.265 . S
O220 Tb200 2.384 . S
O220 C203 1.255 . S
O221 Eu201 2.366 . S
O221 C203 1.265 . S
C222 O213 1.255 . S
C222 O214 1.265 . S
O223 Tb200 2.479 . S
O223 C210 1.238 . S
O224 Tb200 2.471 . S
O224 C210 1.247 . S
C225 C228 1.380 . S
C225 C229 1.374 . S
C225 C231 1.507 . S
C226 C227 1.387 . S
C226 C230 1.391 . S
C227 C226 1.387 . S
C227 C228 1.384 . S
C227 H236 0.930 . S
C228 C225 1.380 . S
C228 C227 1.384 . S
C228 H237 0.931 . S
C229 C225 1.374 . S
C229 C230 1.390 . S
C229 H238 0.930 . S
C230 C226 1.391 . S
C230 C229 1.390 . S
C230 H239 0.930 . S
C231 Eu201 2.825 . S
C231 O216 1.238 . S
C231 O217 1.247 . S
C231 C225 1.507 . S
H232 C205 0.930 . S
H233 C206 0.931 . S
H234 C207 0.926 1_655 S
H235 C208 0.930 . S
H236 C227 0.930 . S
H237 C228 0.931 . S
H238 C229 0.930 . S
H239 C230 0.930 . S
Tb240 C250 2.825 . S
Tb240 O251 2.347 . S
Tb240 O254 2.366 . S
Tb240 O259 2.418 . S
Tb240 O260 2.384 . S
Tb240 O263 2.479 . S
Tb240 O264 2.471 . S
Eu241 O252 2.418 . S
Eu241 O253 2.384 . S
Eu241 O256 2.479 . S
Eu241 O257 2.471 . S
Eu241 O258 2.347 . S
Eu241 O261 2.366 . S
Eu241 C271 2.825 . S
C242 O258 1.259 . S
C242 O259 1.265 . S
C243 O260 1.255 . S
C243 O261 1.265 . S
C244 C246 1.380 . S
C244 C247 1.374 . S
C244 C250 1.507 1_655 S
C245 C246 1.384 . S
C245 C249 1.387 . S
C245 H272 0.930 . S
C246 C244 1.380 . S
C246 C245 1.384 . S
C246 H273 0.931 . S
C247 C244 1.374 . S
C247 C248 1.390 . S
C247 H274 0.927 1_655 S
C248 C247 1.390 . S
C248 C249 1.391 . S
C248 H275 0.930 . S
C249 C245 1.387 . S
C249 C248 1.391 . S
C250 Tb240 2.825 . S
C250 C244 1.507 1_455 S
C250 O263 1.238 . S
C250 O264 1.247 . S
O251 Tb240 2.347 . S
O251 C255 1.259 . S
O252 Eu241 2.418 . S
O252 C255 1.265 . S
O253 Eu241 2.384 . S
O253 C262 1.255 . S
O254 Tb240 2.366 . S
O254 C262 1.265 . S
C255 O251 1.259 . S
C255 O252 1.265 . S
O256 Eu241 2.479 . S
O256 C271 1.238 . S
O257 Eu241 2.471 . S
O257 C271 1.247 . S
O258 Eu241 2.347 . S
O258 C242 1.259 . S
O259 Tb240 2.418 . S
O259 C242 1.265 . S
O260 Tb240 2.384 . S
O260 C243 1.255 . S
O261 Eu241 2.366 . S
O261 C243 1.265 . S
C262 O253 1.255 . S
C262 O254 1.265 . S
O263 Tb240 2.479 . S
O263 C250 1.238 . S
O264 Tb240 2.471 . S
O264 C250 1.247 . S
C265 C268 1.380 . S
C265 C269 1.374 . S
C265 C271 1.507 . S
C266 C267 1.387 . S
C266 C270 1.391 . S
C267 C266 1.387 . S
C267 C268 1.384 . S
C267 H276 0.930 . S
C268 C265 1.380 . S
C268 C267 1.384 . S
C268 H277 0.931 . S
C269 C265 1.374 . S
C269 C270 1.390 . S
C269 H278 0.930 . S
C270 C266 1.391 . S
C270 C269 1.390 . S
C270 H279 0.930 . S
C271 Eu241 2.825 . S
C271 O256 1.238 . S
C271 O257 1.247 . S
C271 C265 1.507 . S
H272 C245 0.930 . S
H273 C246 0.931 . S
H274 C247 0.927 1_455 S
H275 C248 0.930 . S
H276 C267 0.930 . S
H277 C268 0.931 . S
H278 C269 0.930 . S
H279 C270 0.930 . S
Tb280 C290 2.825 . S
Tb280 O291 2.347 . S
Tb280 O294 2.366 . S
Tb280 O299 2.418 . S
Tb280 O300 2.384 . S
Tb280 O303 2.479 . S
Tb280 O304 2.471 . S
Eu281 O292 2.418 . S
Eu281 O293 2.384 . S
Eu281 O296 2.479 . S
Eu281 O297 2.471 . S
Eu281 O298 2.347 . S
Eu281 O301 2.366 . S
Eu281 C311 2.825 . S
C282 O298 1.259 . S
C282 O299 1.265 . S
C283 O300 1.255 . S
C283 O301 1.265 . S
C284 C286 1.380 . S
C284 C287 1.374 . S
C284 C290 1.507 . S
C285 C286 1.384 . S
C285 C289 1.387 . S
C285 H312 0.930 . S
C286 C284 1.380 . S
C286 C285 1.384 . S
C286 H313 0.931 . S
C287 C284 1.374 . S
C287 C288 1.390 . S
C287 H314 0.930 . S
C288 C287 1.390 . S
C288 C289 1.391 . S
C288 H315 0.930 . S
C289 C285 1.387 . S
C289 C288 1.391 . S
C290 Tb280 2.825 . S
C290 C284 1.507 . S
C290 O303 1.238 . S
C290 O304 1.247 . S
O291 Tb280 2.347 . S
O291 C295 1.259 . S
O292 Eu281 2.418 . S
O292 C295 1.265 . S
O293 Eu281 2.384 . S
O293 C302 1.255 . S
O294 Tb280 2.366 . S
O294 C302 1.265 . S
C295 O291 1.259 . S
C295 O292 1.265 . S
O296 Eu281 2.479 . S
O296 C311 1.238 . S
O297 Eu281 2.471 . S
O297 C311 1.247 . S
O298 Eu281 2.347 . S
O298 C282 1.259 . S
O299 Tb280 2.418 . S
O299 C282 1.265 . S
O300 Tb280 2.384 . S
O300 C283 1.255 . S
O301 Eu281 2.366 . S
O301 C283 1.265 . S
C302 O293 1.255 . S
C302 O294 1.265 . S
O303 Tb280 2.479 . S
O303 C290 1.238 . S
O304 Tb280 2.471 . S
O304 C290 1.247 . S
C305 C308 1.380 . S
C305 C309 1.374 . S
C305 C311 1.507 1_545 S
C306 C307 1.387 . S
C306 C310 1.391 . S
C307 C306 1.387 . S
C307 C308 1.384 . S
C307 H316 0.930 . S
C308 C305 1.380 . S
C308 C307 1.384 . S
C308 H317 0.931 . S
C309 C305 1.374 . S
C309 C310 1.390 . S
C309 H318 0.926 1_545 S
C310 C306 1.391 . S
C310 C309 1.390 . S
C310 H319 0.930 . S
C311 Eu281 2.825 . S
C311 O296 1.238 . S
C311 O297 1.247 . S
C311 C305 1.507 1_565 S
H312 C285 0.930 . S
H313 C286 0.931 . S
H314 C287 0.930 . S
H315 C288 0.930 . S
H316 C307 0.930 . S
H317 C308 0.931 . S
H318 C309 0.926 1_565 S
H319 C310 0.930 . S
Tb320 C330 2.825 . S
Tb320 O331 2.347 . S
Tb320 O334 2.366 . S
Tb320 O339 2.418 . S
Tb320 O340 2.384 . S
Tb320 O343 2.479 . S
Tb320 O344 2.471 . S
Eu321 O332 2.418 . S
Eu321 O333 2.384 . S
Eu321 O336 2.479 . S
Eu321 O337 2.471 . S
Eu321 O338 2.347 . S
Eu321 O341 2.366 . S
Eu321 C351 2.825 . S
C322 O338 1.259 . S
C322 O339 1.265 . S
C323 O340 1.255 . S
C323 O341 1.265 . S
C324 C326 1.380 . S
C324 C327 1.374 . S
C324 C330 1.507 . S
C325 C326 1.384 . S
C325 C329 1.387 . S
C325 H352 0.930 . S
C326 C324 1.380 . S
C326 C325 1.384 . S
C326 H353 0.931 . S
C327 C324 1.374 . S
C327 C328 1.390 . S
C327 H354 0.930 . S
C328 C327 1.390 . S
C328 C329 1.391 . S
C328 H355 0.930 . S
C329 C325 1.387 . S
C329 C328 1.391 . S
C330 Tb320 2.825 . S
C330 C324 1.507 . S
C330 O343 1.238 . S
C330 O344 1.247 . S
O331 Tb320 2.347 . S
O331 C335 1.259 . S
O332 Eu321 2.418 . S
O332 C335 1.265 . S
O333 Eu321 2.384 . S
O333 C342 1.255 . S
O334 Tb320 2.366 . S
O334 C342 1.265 . S
C335 O331 1.259 . S
C335 O332 1.265 . S
O336 Eu321 2.479 . S
O336 C351 1.238 . S
O337 Eu321 2.471 . S
O337 C351 1.247 . S
O338 Eu321 2.347 . S
O338 C322 1.259 . S
O339 Tb320 2.418 . S
O339 C322 1.265 . S
O340 Tb320 2.384 . S
O340 C323 1.255 . S
O341 Eu321 2.366 . S
O341 C323 1.265 . S
C342 O333 1.255 . S
C342 O334 1.265 . S
O343 Tb320 2.479 . S
O343 C330 1.238 . S
O344 Tb320 2.471 . S
O344 C330 1.247 . S
C345 C348 1.380 . S
C345 C349 1.374 . S
C345 C351 1.507 . S
C346 C347 1.387 . S
C346 C350 1.391 . S
C347 C346 1.387 . S
C347 C348 1.384 . S
C347 H356 0.930 . S
C348 C345 1.380 . S
C348 C347 1.384 . S
C348 H357 0.931 . S
C349 C345 1.374 . S
C349 C350 1.390 . S
C349 H358 0.930 . S
C350 C346 1.391 . S
C350 C349 1.390 . S
C350 H359 0.930 . S
C351 Eu321 2.825 . S
C351 O336 1.238 . S
C351 O337 1.247 . S
C351 C345 1.507 . S
H352 C325 0.930 . S
H353 C326 0.931 . S
H354 C327 0.930 . S
H355 C328 0.930 . S
H356 C347 0.930 . S
H357 C348 0.931 . S
H358 C349 0.930 . S
H359 C350 0.930 . S
Tb360 C370 2.825 . S
Tb360 O371 2.347 . S
Tb360 O374 2.366 . S
Tb360 O379 2.418 . S
Tb360 O380 2.384 . S
Tb360 O383 2.479 . S
Tb360 O384 2.471 . S
Eu361 O372 2.418 . S
Eu361 O373 2.384 . S
Eu361 O376 2.479 . S
Eu361 O377 2.471 . S
Eu361 O378 2.347 . S
Eu361 O381 2.366 . S
Eu361 C391 2.825 . S
C362 O378 1.259 . S
C362 O379 1.265 . S
C363 O380 1.255 . S
C363 O381 1.265 . S
C364 C366 1.380 . S
C364 C367 1.374 . S
C364 C370 1.507 . S
C365 C366 1.384 . S
C365 C369 1.387 . S
C365 H392 0.930 . S
C366 C364 1.380 . S
C366 C365 1.384 . S
C366 H393 0.931 . S
C367 C364 1.374 . S
C367 C368 1.390 . S
C367 H394 0.930 . S
C368 C367 1.390 . S
C368 C369 1.391 . S
C368 H395 0.930 . S
C369 C365 1.387 . S
C369 C368 1.391 . S
C370 Tb360 2.825 . S
C370 C364 1.507 . S
C370 O383 1.238 . S
C370 O384 1.247 . S
O371 Tb360 2.347 . S
O371 C375 1.259 . S
O372 Eu361 2.418 . S
O372 C375 1.265 . S
O373 Eu361 2.384 . S
O373 C382 1.255 . S
O374 Tb360 2.366 . S
O374 C382 1.265 . S
C375 O371 1.259 . S
C375 O372 1.265 . S
O376 Eu361 2.479 . S
O376 C391 1.238 . S
O377 Eu361 2.471 . S
O377 C391 1.247 . S
O378 Eu361 2.347 . S
O378 C362 1.259 . S
O379 Tb360 2.418 . S
O379 C362 1.265 . S
O380 Tb360 2.384 . S
O380 C363 1.255 . S
O381 Eu361 2.366 . S
O381 C363 1.265 . S
C382 O373 1.255 . S
C382 O374 1.265 . S
O383 Tb360 2.479 . S
O383 C370 1.238 . S
O384 Tb360 2.471 . S
O384 C370 1.247 . S
C385 C388 1.380 . S
C385 C389 1.374 . S
C385 C391 1.507 1_655 S
C386 C387 1.387 . S
C386 C390 1.391 . S
C387 C386 1.387 . S
C387 C388 1.384 . S
C387 H396 0.930 . S
C388 C385 1.380 . S
C388 C387 1.384 . S
C388 H397 0.931 . S
C389 C385 1.374 . S
C389 C390 1.390 . S
C389 H398 0.927 1_655 S
C390 C386 1.391 . S
C390 C389 1.390 . S
C390 H399 0.930 . S
C391 Eu361 2.825 . S
C391 O376 1.238 . S
C391 O377 1.247 . S
C391 C385 1.507 1_455 S
H392 C365 0.930 . S
H393 C366 0.931 . S
H394 C367 0.930 . S
H395 C368 0.930 . S
H396 C387 0.930 . S
H397 C388 0.931 . S
H398 C389 0.927 1_455 S
H399 C390 0.930 . S
Tb400 C410 2.825 . S
Tb400 O411 2.347 . S
Tb400 O414 2.366 . S
Tb400 O419 2.418 . S
Tb400 O420 2.384 . S
Tb400 O423 2.479 . S
Tb400 O424 2.471 . S
Eu401 O412 2.418 . S
Eu401 O413 2.384 . S
Eu401 O416 2.479 . S
Eu401 O417 2.471 . S
Eu401 O418 2.347 . S
Eu401 O421 2.366 . S
Eu401 C431 2.825 . S
C402 O418 1.259 . S
C402 O419 1.265 . S
C403 O420 1.255 . S
C403 O421 1.265 . S
C404 C406 1.380 . S
C404 C407 1.374 . S
C404 C410 1.507 1_545 S
C405 C406 1.384 . S
C405 C409 1.387 . S
C405 H432 0.930 . S
C406 C404 1.380 . S
C406 C405 1.384 . S
C406 H433 0.931 . S
C407 C404 1.374 . S
C407 C408 1.390 . S
C407 H434 0.926 1_545 S
C408 C407 1.390 . S
C408 C409 1.391 . S
C408 H435 0.930 . S
C409 C405 1.387 . S
C409 C408 1.391 . S
C410 Tb400 2.825 . S
C410 C404 1.507 1_565 S
C410 O423 1.238 . S
C410 O424 1.247 . S
O411 Tb400 2.347 . S
O411 C415 1.259 . S
O412 Eu401 2.418 . S
O412 C415 1.265 . S
O413 Eu401 2.384 . S
O413 C422 1.255 . S
O414 Tb400 2.366 . S
O414 C422 1.265 . S
C415 O411 1.259 . S
C415 O412 1.265 . S
O416 Eu401 2.479 . S
O416 C431 1.238 . S
O417 Eu401 2.471 . S
O417 C431 1.247 . S
O418 Eu401 2.347 . S
O418 C402 1.259 . S
O419 Tb400 2.418 . S
O419 C402 1.265 . S
O420 Tb400 2.384 . S
O420 C403 1.255 . S
O421 Eu401 2.366 . S
O421 C403 1.265 . S
C422 O413 1.255 . S
C422 O414 1.265 . S
O423 Tb400 2.479 . S
O423 C410 1.238 . S
O424 Tb400 2.471 . S
O424 C410 1.247 . S
C425 C428 1.380 . S
C425 C429 1.374 . S
C425 C431 1.507 . S
C426 C427 1.387 . S
C426 C430 1.391 . S
C427 C426 1.387 . S
C427 C428 1.384 . S
C427 H436 0.930 . S
C428 C425 1.380 . S
C428 C427 1.384 . S
C428 H437 0.931 . S
C429 C425 1.374 . S
C429 C430 1.390 . S
C429 H438 0.930 . S
C430 C426 1.391 . S
C430 C429 1.390 . S
C430 H439 0.930 . S
C431 Eu401 2.825 . S
C431 O416 1.238 . S
C431 O417 1.247 . S
C431 C425 1.507 . S
H432 C405 0.930 . S
H433 C406 0.931 . S
H434 C407 0.926 1_565 S
H435 C408 0.930 . S
H436 C427 0.930 . S
H437 C428 0.931 . S
H438 C429 0.930 . S
H439 C430 0.930 . S
Tb440 C450 2.825 . S
Tb440 O451 2.347 . S
Tb440 O454 2.366 . S
Tb440 O459 2.418 . S
Tb440 O460 2.384 . S
Tb440 O463 2.479 . S
Tb440 O464 2.471 . S
Eu441 O452 2.418 . S
Eu441 O453 2.384 . S
Eu441 O456 2.479 . S
Eu441 O457 2.471 . S
Eu441 O458 2.347 . S
Eu441 O461 2.366 . S
Eu441 C471 2.825 . S
C442 O458 1.259 . S
C442 O459 1.265 . S
C443 O460 1.255 . S
C443 O461 1.265 . S
C444 C446 1.380 . S
C444 C447 1.374 . S
C444 C450 1.507 . S
C445 C446 1.384 . S
C445 C449 1.387 . S
C445 H472 0.930 . S
C446 C444 1.380 . S
C446 C445 1.384 . S
C446 H473 0.931 . S
C447 C444 1.374 . S
C447 C448 1.390 . S
C447 H474 0.930 . S
C448 C447 1.390 . S
C448 C449 1.391 . S
C448 H475 0.930 . S
C449 C445 1.387 . S
C449 C448 1.391 . S
C450 Tb440 2.825 . S
C450 C444 1.507 . S
C450 O463 1.238 . S
C450 O464 1.247 . S
O451 Tb440 2.347 . S
O451 C455 1.259 . S
O452 Eu441 2.418 . S
O452 C455 1.265 . S
O453 Eu441 2.384 . S
O453 C462 1.255 . S
O454 Tb440 2.366 . S
O454 C462 1.265 . S
C455 O451 1.259 . S
C455 O452 1.265 . S
O456 Eu441 2.479 . S
O456 C471 1.238 . S
O457 Eu441 2.471 . S
O457 C471 1.247 . S
O458 Eu441 2.347 . S
O458 C442 1.259 . S
O459 Tb440 2.418 . S
O459 C442 1.265 . S
O460 Tb440 2.384 . S
O460 C443 1.255 . S
O461 Eu441 2.366 . S
O461 C443 1.265 . S
C462 O453 1.255 . S
C462 O454 1.265 . S
O463 Tb440 2.479 . S
O463 C450 1.238 . S
O464 Tb440 2.471 . S
O464 C450 1.247 . S
C465 C468 1.380 . S
C465 C469 1.374 . S
C465 C471 1.507 . S
C466 C467 1.387 . S
C466 C470 1.391 . S
C467 C466 1.387 . S
C467 C468 1.384 . S
C467 H476 0.930 . S
C468 C465 1.380 . S
C468 C467 1.384 . S
C468 H477 0.931 . S
C469 C465 1.374 . S
C469 C470 1.390 . S
C469 H478 0.930 . S
C470 C466 1.391 . S
C470 C469 1.390 . S
C470 H479 0.930 . S
C471 Eu441 2.825 . S
C471 O456 1.238 . S
C471 O457 1.247 . S
C471 C465 1.507 . S
H472 C445 0.930 . S
H473 C446 0.931 . S
H474 C447 0.930 . S
H475 C448 0.930 . S
H476 C467 0.930 . S
H477 C468 0.931 . S
H478 C469 0.930 . S
H479 C470 0.930 . S
H480 C492 0.930 . S
H481 C494 0.930 . S
H482 C495 0.930 . S
H483 C499 0.959 . S
H484 C499 0.959 . S
H485 C499 0.961 . S
H486 C500 0.960 . S
H487 C500 0.961 . S
H488 C500 0.959 . S
H489 C503 0.929 . S
H490 C504 0.931 . S
H491 C506 0.930 . S
C492 H480 0.930 . S
C492 C493 1.399 . S
C492 C497 1.399 . S
C493 C492 1.399 . S
C493 C494 1.376 . S
C494 H481 0.930 . S
C494 C493 1.376 . S
C494 C495 1.388 . S
C495 H482 0.930 . S
C495 C494 1.388 . S
C495 C496 1.390 . S
C496 C495 1.390 . S
C496 C497 1.394 . S
C496 C502 1.465 . S
C497 C492 1.399 . S
C497 C496 1.394 . S
C497 C498 1.516 . S
C498 C497 1.516 . S
C498 C499 1.502 . S
C498 C500 1.561 . S
C498 C501 1.526 . S
C499 H483 0.959 . S
C499 H484 0.959 . S
C499 H485 0.961 . S
C499 C498 1.502 . S
C500 H486 0.960 . S
C500 H487 0.961 . S
C500 H488 0.959 . S
C500 C498 1.561 . S
C501 C498 1.526 . S
C501 C502 1.396 . S
C501 C506 1.390 . S
C502 C496 1.465 . S
C502 C501 1.396 . S
C502 C503 1.399 . S
C503 H489 0.929 . S
C503 C502 1.399 . S
C503 C504 1.385 . S
C504 H490 0.931 . S
C504 C503 1.385 . S
C504 C505 1.389 . S
C505 C504 1.389 . S
C505 C506 1.387 . S
C506 H491 0.930 . S
C506 C501 1.390 . S
C506 C505 1.387 . S
H507 C519 0.930 . S
H508 C521 0.930 . S
H509 C522 0.930 . S
H510 C526 0.959 . S
H511 C526 0.959 . S
H512 C526 0.961 . S
H513 C527 0.960 . S
H514 C527 0.961 . S
H515 C527 0.959 . S
H516 C530 0.929 . S
H517 C531 0.931 . S
H518 C533 0.930 . S
C519 H507 0.930 . S
C519 C520 1.399 . S
C519 C524 1.399 . S
C520 C519 1.399 . S
C520 C521 1.376 . S
C521 H508 0.930 . S
C521 C520 1.376 . S
C521 C522 1.388 . S
C522 H509 0.930 . S
C522 C521 1.388 . S
C522 C523 1.390 . S
C523 C522 1.390 . S
C523 C524 1.394 . S
C523 C529 1.465 1_455 S
C524 C519 1.399 . S
C524 C523 1.394 . S
C524 C525 1.516 1_455 S
C525 C524 1.516 1_655 S
C525 C526 1.502 . S
C525 C527 1.561 . S
C525 C528 1.526 . S
C526 H510 0.959 . S
C526 H511 0.959 . S
C526 H512 0.961 . S
C526 C525 1.502 . S
C527 H513 0.960 . S
C527 H514 0.961 . S
C527 H515 0.959 . S
C527 C525 1.561 . S
C528 C525 1.526 . S
C528 C529 1.396 . S
C528 C533 1.390 . S
C529 C523 1.465 1_655 S
C529 C528 1.396 . S
C529 C530 1.399 . S
C530 H516 0.929 . S
C530 C529 1.399 . S
C530 C531 1.385 . S
C531 H517 0.931 . S
C531 C530 1.385 . S
C531 C532 1.389 . S
C532 C531 1.389 . S
C532 C533 1.387 . S
C533 H518 0.930 . S
C533 C528 1.390 . S
C533 C532 1.387 . S
H534 C546 0.930 . S
H535 C548 0.930 . S
H536 C549 0.930 . S
H537 C553 0.959 . S
H538 C553 0.959 . S
H539 C553 0.961 . S
H540 C554 0.960 1_545 S
H541 C554 0.961 . S
H542 C554 0.959 1_545 S
H543 C557 0.929 . S
H544 C558 0.931 . S
H545 C560 0.930 . S
C546 H534 0.930 . S
C546 C547 1.399 . S
C546 C551 1.399 . S
C547 C546 1.399 . S
C547 C548 1.376 . S
C548 H535 0.930 . S
C548 C547 1.376 . S
C548 C549 1.388 . S
C549 H536 0.930 . S
C549 C548 1.388 . S
C549 C550 1.390 . S
C550 C549 1.390 . S
C550 C551 1.394 . S
C550 C556 1.465 1_545 S
C551 C546 1.399 . S
C551 C550 1.394 . S
C551 C552 1.516 1_545 S
C552 C551 1.516 1_565 S
C552 C553 1.502 . S
C552 C554 1.561 . S
C552 C555 1.526 . S
C553 H537 0.959 . S
C553 H538 0.959 . S
C553 H539 0.961 . S
C553 C552 1.502 . S
C554 H540 0.960 1_565 S
C554 H541 0.961 . S
C554 H542 0.959 1_565 S
C554 C552 1.561 . S
C555 C552 1.526 . S
C555 C556 1.396 . S
C555 C560 1.390 . S
C556 C550 1.465 1_565 S
C556 C555 1.396 . S
C556 C557 1.399 . S
C557 H543 0.929 . S
C557 C556 1.399 . S
C557 C558 1.385 . S
C558 H544 0.931 . S
C558 C557 1.385 . S
C558 C559 1.389 . S
C559 C558 1.389 . S
C559 C560 1.387 . S
C560 H545 0.930 . S
C560 C555 1.390 . S
C560 C559 1.387 . S
H561 C573 0.930 . S
H562 C575 0.930 . S
H563 C576 0.930 . S
H564 C580 0.959 . S
H565 C580 0.959 . S
H566 C580 0.961 . S
H567 C581 0.960 . S
H568 C581 0.961 . S
H569 C581 0.959 . S
H570 C584 0.929 . S
H571 C585 0.931 . S
H572 C587 0.930 . S
C573 H561 0.930 . S
C573 C574 1.399 . S
C573 C578 1.399 . S
C574 C573 1.399 . S
C574 C575 1.376 . S
C575 H562 0.930 . S
C575 C574 1.376 . S
C575 C576 1.388 . S
C576 H563 0.930 . S
C576 C575 1.388 . S
C576 C577 1.390 . S
C577 C576 1.390 . S
C577 C578 1.394 . S
C577 C583 1.465 . S
C578 C573 1.399 . S
C578 C577 1.394 . S
C578 C579 1.516 . S
C579 C578 1.516 . S
C579 C580 1.502 . S
C579 C581 1.561 . S
C579 C582 1.526 . S
C580 H564 0.959 . S
C580 H565 0.959 . S
C580 H566 0.961 . S
C580 C579 1.502 . S
C581 H567 0.960 . S
C581 H568 0.961 . S
C581 H569 0.959 . S
C581 C579 1.561 . S
C582 C579 1.526 . S
C582 C583 1.396 . S
C582 C587 1.390 . S
C583 C577 1.465 . S
C583 C582 1.396 . S
C583 C584 1.399 . S
C584 H570 0.929 . S
C584 C583 1.399 . S
C584 C585 1.385 . S
C585 H571 0.931 . S
C585 C584 1.385 . S
C585 C586 1.389 . S
C586 C585 1.389 . S
C586 C587 1.387 . S
C587 H572 0.930 . S
C587 C582 1.390 . S
C587 C586 1.387 . S
H588 C600 0.930 . S
H589 C602 0.930 . S
H590 C603 0.930 . S
H591 C607 0.959 . S
H592 C607 0.959 . S
H593 C607 0.961 . S
H594 C608 0.960 . S
H595 C608 0.961 . S
H596 C608 0.959 . S
H597 C611 0.929 . S
H598 C612 0.931 . S
H599 C614 0.930 . S
C600 H588 0.930 . S
C600 C601 1.399 . S
C600 C605 1.399 . S
C601 C600 1.399 . S
C601 C602 1.376 . S
C602 H589 0.930 . S
C602 C601 1.376 . S
C602 C603 1.388 . S
C603 H590 0.930 . S
C603 C602 1.388 . S
C603 C604 1.390 . S
C604 C603 1.390 . S
C604 C605 1.394 . S
C604 C610 1.465 1_455 S
C605 C600 1.399 . S
C605 C604 1.394 . S
C605 C606 1.516 . S
C606 C605 1.516 . S
C606 C607 1.502 . S
C606 C608 1.561 . S
C606 C609 1.526 1_455 S
C607 H591 0.959 . S
C607 H592 0.959 . S
C607 H593 0.961 . S
C607 C606 1.502 . S
C608 H594 0.960 . S
C608 H595 0.961 . S
C608 H596 0.959 . S
C608 C606 1.561 . S
C609 C606 1.526 1_655 S
C609 C610 1.396 . S
C609 C614 1.390 . S
C610 C604 1.465 1_655 S
C610 C609 1.396 . S
C610 C611 1.399 . S
C611 H597 0.929 . S
C611 C610 1.399 . S
C611 C612 1.385 . S
C612 H598 0.931 . S
C612 C611 1.385 . S
C612 C613 1.389 . S
C613 C612 1.389 . S
C613 C614 1.387 . S
C614 H599 0.930 . S
C614 C609 1.390 . S
C614 C613 1.387 . S
H615 C627 0.930 . S
H616 C629 0.930 . S
H617 C630 0.930 . S
H618 C634 0.959 . S
H619 C634 0.959 1_545 S
H620 C634 0.961 . S
H621 C635 0.960 1_565 S
H622 C635 0.961 . S
H623 C635 0.959 . S
H624 C638 0.929 . S
H625 C639 0.931 . S
H626 C641 0.930 . S
C627 H615 0.930 . S
C627 C628 1.399 . S
C627 C632 1.399 . S
C628 C627 1.399 . S
C628 C629 1.376 . S
C629 H616 0.930 . S
C629 C628 1.376 . S
C629 C630 1.388 . S
C630 H617 0.930 . S
C630 C629 1.388 . S
C630 C631 1.390 . S
C631 C630 1.390 . S
C631 C632 1.394 . S
C631 C637 1.465 1_565 S
C632 C627 1.399 . S
C632 C631 1.394 . S
C632 C633 1.516 . S
C633 C632 1.516 . S
C633 C634 1.502 . S
C633 C635 1.561 1_565 S
C633 C636 1.526 1_565 S
C634 H618 0.959 . S
C634 H619 0.959 1_565 S
C634 H620 0.961 . S
C634 C633 1.502 . S
C635 H621 0.960 1_545 S
C635 H622 0.961 . S
C635 H623 0.959 . S
C635 C633 1.561 1_545 S
C636 C633 1.526 1_545 S
C636 C637 1.396 . S
C636 C641 1.390 . S
C637 C631 1.465 1_545 S
C637 C636 1.396 . S
C637 C638 1.399 . S
C638 H624 0.929 . S
C638 C637 1.399 . S
C638 C639 1.385 . S
C639 H625 0.931 . S
C639 C638 1.385 . S
C639 C640 1.389 . S
C640 C639 1.389 . S
C640 C641 1.387 . S
C641 H626 0.930 . S
C641 C636 1.390 . S
C641 C640 1.387 . S
H642 C654 0.930 . S
H643 C656 0.930 . S
H644 C657 0.930 . S
H645 C661 0.959 . S
H646 C661 0.959 . S
H647 C661 0.961 . S
H648 C662 0.960 . S
H649 C662 0.961 . S
H650 C662 0.959 . S
H651 C665 0.929 . S
H652 C666 0.931 . S
H653 C668 0.930 . S
C654 H642 0.930 . S
C654 C655 1.399 . S
C654 C659 1.399 . S
C655 C654 1.399 . S
C655 C656 1.376 . S
C656 H643 0.930 . S
C656 C655 1.376 . S
C656 C657 1.388 . S
C657 H644 0.930 . S
C657 C656 1.388 . S
C657 C658 1.390 . S
C658 C657 1.390 . S
C658 C659 1.394 . S
C658 C664 1.465 . S
C659 C654 1.399 . S
C659 C658 1.394 . S
C659 C660 1.516 . S
C660 C659 1.516 . S
C660 C661 1.502 . S
C660 C662 1.561 . S
C660 C663 1.526 . S
C661 H645 0.959 . S
C661 H646 0.959 . S
C661 H647 0.961 . S
C661 C660 1.502 . S
C662 H648 0.960 . S
C662 H649 0.961 . S
C662 H650 0.959 . S
C662 C660 1.561 . S
C663 C660 1.526 . S
C663 C664 1.396 . S
C663 C668 1.390 . S
C664 C658 1.465 . S
C664 C663 1.396 . S
C664 C665 1.399 . S
C665 H651 0.929 . S
C665 C664 1.399 . S
C665 C666 1.385 . S
C666 H652 0.931 . S
C666 C665 1.385 . S
C666 C667 1.389 . S
C667 C666 1.389 . S
C667 C668 1.387 . S
C668 H653 0.930 . S
C668 C663 1.390 . S
C668 C667 1.387 . S
H669 C681 0.930 . S
H670 C683 0.930 . S
H671 C684 0.930 . S
H672 C688 0.959 . S
H673 C688 0.959 . S
H674 C688 0.961 1_455 S
H675 C689 0.960 . S
H676 C689 0.961 1_655 S
H677 C689 0.959 . S
H678 C692 0.929 . S
H679 C693 0.931 . S
H680 C695 0.930 . S
C681 H669 0.930 . S
C681 C682 1.399 . S
C681 C686 1.399 . S
C682 C681 1.399 . S
C682 C683 1.376 . S
C683 H670 0.930 . S
C683 C682 1.376 . S
C683 C684 1.388 . S
C684 H671 0.930 . S
C684 C683 1.388 . S
C684 C685 1.390 . S
C685 C684 1.390 . S
C685 C686 1.394 . S
C685 C691 1.465 1_455 S
C686 C681 1.399 . S
C686 C685 1.394 . S
C686 C687 1.516 1_455 S
C687 C686 1.516 1_655 S
C687 C688 1.502 . S
C687 C689 1.561 1_655 S
C687 C690 1.526 . S
C688 H672 0.959 . S
C688 H673 0.959 . S
C688 H674 0.961 1_655 S
C688 C687 1.502 . S
C689 H675 0.960 . S
C689 H676 0.961 1_455 S
C689 H677 0.959 . S
C689 C687 1.561 1_455 S
C690 C687 1.526 . S
C690 C691 1.396 . S
C690 C695 1.390 . S
C691 C685 1.465 1_655 S
C691 C690 1.396 . S
C691 C692 1.399 . S
C692 H678 0.929 . S
C692 C691 1.399 . S
C692 C693 1.385 . S
C693 H679 0.931 . S
C693 C692 1.385 . S
C693 C694 1.389 . S
C694 C693 1.389 . S
C694 C695 1.387 . S
C695 H680 0.930 . S
C695 C690 1.390 . S
C695 C694 1.387 . S
H696 C708 0.930 . S
H697 C710 0.930 . S
H698 C711 0.930 . S
H699 C715 0.983 . S
H700 C715 0.975 . S
H701 C715 0.943 1_565 S
H702 C716 0.960 . S
H703 C716 0.961 . S
H704 C716 0.959 . S
H705 C719 0.929 . S
H706 C720 0.931 . S
H707 C722 0.930 . S
C708 H696 0.930 . S
C708 C709 1.399 . S
C708 C713 1.399 . S
C709 C708 1.399 . S
C709 C710 1.376 . S
C710 H697 0.930 . S
C710 C709 1.376 . S
C710 C711 1.388 . S
C711 H698 0.930 . S
C711 C710 1.388 . S
C711 C712 1.390 . S
C712 C711 1.390 . S
C712 C713 1.394 . S
C712 C718 1.465 1_565 S
C713 C708 1.399 . S
C713 C712 1.394 . S
C713 C714 1.516 . S
C714 C713 1.516 . S
C714 C715 1.482 1_565 S
C714 C716 1.561 . S
C714 C717 1.526 1_565 S
C715 H699 0.983 . S
C715 H700 0.975 . S
C715 H701 0.943 1_545 S
C715 C714 1.482 1_545 S
C716 H702 0.960 . S
C716 H703 0.961 . S
C716 H704 0.959 . S
C716 C714 1.561 . S
C717 C714 1.526 1_545 S
C717 C718 1.396 . S
C717 C722 1.390 . S
C718 C712 1.465 1_545 S
C718 C717 1.396 . S
C718 C719 1.399 . S
C719 H705 0.929 . S
C719 C718 1.399 . S
C719 C720 1.385 . S
C720 H706 0.931 . S
C720 C719 1.385 . S
C720 C721 1.389 . S
C721 C720 1.389 . S
C721 C722 1.387 . S
C722 H707 0.930 . S
C722 C717 1.390 . S
C722 C721 1.387 . S
H723 C735 0.930 . S
H724 C737 0.930 . S
H725 C738 0.930 . S
H726 C742 0.959 . S
H727 C742 0.959 . S
H728 C742 0.961 . S
H729 C743 0.960 . S
H730 C743 0.961 . S
H731 C743 0.959 . S
H732 C746 0.929 . S
H733 C747 0.931 . S
H734 C749 0.930 . S
C735 H723 0.930 . S
C735 C736 1.399 . S
C735 C740 1.399 . S
C736 C735 1.399 . S
C736 C737 1.376 . S
C737 H724 0.930 . S
C737 C736 1.376 . S
C737 C738 1.388 . S
C738 H725 0.930 . S
C738 C737 1.388 . S
C738 C739 1.390 . S
C739 C738 1.390 . S
C739 C740 1.394 . S
C739 C745 1.465 . S
C740 C735 1.399 . S
C740 C739 1.394 . S
C740 C741 1.516 . S
C741 C740 1.516 . S
C741 C742 1.502 . S
C741 C743 1.561 . S
C741 C744 1.526 . S
C742 H726 0.959 . S
C742 H727 0.959 . S
C742 H728 0.961 . S
C742 C741 1.502 . S
C743 H729 0.960 . S
C743 H730 0.961 . S
C743 H731 0.959 . S
C743 C741 1.561 . S
C744 C741 1.526 . S
C744 C745 1.396 . S
C744 C749 1.390 . S
C745 C739 1.465 . S
C745 C744 1.396 . S
C745 C746 1.399 . S
C746 H732 0.929 . S
C746 C745 1.399 . S
C746 C747 1.385 . S
C747 H733 0.931 . S
C747 C746 1.385 . S
C747 C748 1.389 . S
C748 C747 1.389 . S
C748 C749 1.387 . S
C749 H734 0.930 . S
C749 C744 1.390 . S
C749 C748 1.387 . S
H750 C762 0.930 . S
H751 C764 0.930 . S
H752 C765 0.930 . S
H753 C769 0.959 . S
H754 C769 0.959 1_655 S
H755 C769 0.961 . S
H756 C770 0.960 1_455 S
H757 C770 0.961 . S
H758 C770 0.959 . S
H759 C773 0.929 . S
H760 C774 0.931 . S
H761 C776 0.930 . S
C762 H750 0.930 . S
C762 C763 1.399 . S
C762 C767 1.399 . S
C763 C762 1.399 . S
C763 C764 1.376 . S
C764 H751 0.930 . S
C764 C763 1.376 . S
C764 C765 1.388 . S
C765 H752 0.930 . S
C765 C764 1.388 . S
C765 C766 1.390 . S
C766 C765 1.390 . S
C766 C767 1.394 . S
C766 C772 1.465 1_455 S
C767 C762 1.399 . S
C767 C766 1.394 . S
C767 C768 1.542 . S
C768 C767 1.542 . S
C768 C769 1.495 . S
C768 C770 1.565 1_455 S
C768 C771 1.503 1_455 S
C769 H753 0.959 . S
C769 H754 0.959 1_455 S
C769 H755 0.961 . S
C769 C768 1.495 . S
C770 H756 0.960 1_655 S
C770 H757 0.961 . S
C770 H758 0.959 . S
C770 C768 1.565 1_655 S
C771 C768 1.503 1_655 S
C771 C772 1.396 . S
C771 C776 1.390 . S
C772 C766 1.465 1_655 S
C772 C771 1.396 . S
C772 C773 1.399 . S
C773 H759 0.929 . S
C773 C772 1.399 . S
C773 C774 1.385 . S
C774 H760 0.931 . S
C774 C773 1.385 . S
C774 C775 1.389 . S
C775 C774 1.389 . S
C775 C776 1.387 . S
C776 H761 0.930 . S
C776 C771 1.390 . S
C776 C775 1.387 . S
H777 C789 0.930 . S
H778 C791 0.930 . S
H779 C792 0.930 . S
H780 C796 0.959 . S
H781 C796 0.959 1_565 S
H782 C796 0.961 . S
H783 C797 0.960 1_545 S
H784 C797 0.961 . S
H785 C797 0.959 . S
H786 C800 0.929 . S
H787 C801 0.931 . S
H788 C803 0.930 . S
C789 H777 0.930 . S
C789 C790 1.399 . S
C789 C794 1.399 . S
C790 C789 1.399 . S
C790 C791 1.376 . S
C791 H778 0.930 . S
C791 C790 1.376 . S
C791 C792 1.388 . S
C792 H779 0.930 . S
C792 C791 1.388 . S
C792 C793 1.390 . S
C793 C792 1.390 . S
C793 C794 1.394 . S
C793 C799 1.465 1_545 S
C794 C789 1.399 . S
C794 C793 1.394 . S
C794 C795 1.516 1_545 S
C795 C794 1.516 1_565 S
C795 C796 1.502 1_565 S
C795 C797 1.561 . S
C795 C798 1.526 . S
C796 H780 0.959 . S
C796 H781 0.959 1_545 S
C796 H782 0.961 . S
C796 C795 1.502 1_545 S
C797 H783 0.960 1_565 S
C797 H784 0.961 . S
C797 H785 0.959 . S
C797 C795 1.561 . S
C798 C795 1.526 . S
C798 C799 1.396 . S
C798 C803 1.390 . S
C799 C793 1.465 1_565 S
C799 C798 1.396 . S
C799 C800 1.399 . S
C800 H786 0.929 . S
C800 C799 1.399 . S
C800 C801 1.385 . S
C801 H787 0.931 . S
C801 C800 1.385 . S
C801 C802 1.389 . S
C802 C801 1.389 . S
C802 C803 1.387 . S
C803 H788 0.930 . S
C803 C798 1.390 . S
C803 C802 1.387 . S
H804 C816 0.930 . S
H805 C818 0.930 . S
H806 C819 0.930 . S
H807 C823 0.959 . S
H808 C823 0.959 . S
H809 C823 0.961 . S
H810 C824 0.960 . S
H811 C824 0.961 . S
H812 C824 0.959 . S
H813 C827 0.929 . S
H814 C828 0.931 . S
H815 C830 0.930 . S
C816 H804 0.930 . S
C816 C817 1.399 . S
C816 C821 1.399 . S
C817 C816 1.399 . S
C817 C818 1.376 . S
C818 H805 0.930 . S
C818 C817 1.376 . S
C818 C819 1.388 . S
C819 H806 0.930 . S
C819 C818 1.388 . S
C819 C820 1.390 . S
C820 C819 1.390 . S
C820 C821 1.394 . S
C820 C826 1.465 . S
C821 C816 1.399 . S
C821 C820 1.394 . S
C821 C822 1.516 . S
C822 C821 1.516 . S
C822 C823 1.502 . S
C822 C824 1.561 . S
C822 C825 1.526 . S
C823 H807 0.959 . S
C823 H808 0.959 . S
C823 H809 0.961 . S
C823 C822 1.502 . S
C824 H810 0.960 . S
C824 H811 0.961 . S
C824 H812 0.959 . S
C824 C822 1.561 . S
C825 C822 1.526 . S
C825 C826 1.396 . S
C825 C830 1.390 . S
C826 C820 1.465 . S
C826 C825 1.396 . S
C826 C827 1.399 . S
C827 H813 0.929 . S
C827 C826 1.399 . S
C827 C828 1.385 . S
C828 H814 0.931 . S
C828 C827 1.385 . S
C828 C829 1.389 . S
C829 C828 1.389 . S
C829 C830 1.387 . S
C830 H815 0.930 . S
C830 C825 1.390 . S
C830 C829 1.387 . S
H831 C843 0.930 . S
H832 C845 0.930 . S
H833 C846 0.930 . S
H834 C850 0.959 . S
H835 C850 0.959 . S
H836 C850 0.961 . S
H837 C851 0.960 . S
H838 C851 0.961 . S
H839 C851 0.959 . S
H840 C854 0.929 . S
H841 C855 0.931 . S
H842 C857 0.930 . S
C843 H831 0.930 . S
C843 C844 1.399 . S
C843 C848 1.399 . S
C844 C843 1.399 . S
C844 C845 1.376 . S
C845 H832 0.930 . S
C845 C844 1.376 . S
C845 C846 1.388 . S
C846 H833 0.930 . S
C846 C845 1.388 . S
C846 C847 1.390 . S
C847 C846 1.390 . S
C847 C848 1.394 . S
C847 C853 1.465 . S
C848 C843 1.399 . S
C848 C847 1.394 . S
C848 C849 1.516 . S
C849 C848 1.516 . S
C849 C850 1.502 . S
C849 C851 1.561 . S
C849 C852 1.526 . S
C850 H834 0.959 . S
C850 H835 0.959 . S
C850 H836 0.961 . S
C850 C849 1.502 . S
C851 H837 0.960 . S
C851 H838 0.961 . S
C851 H839 0.959 . S
C851 C849 1.561 . S
C852 C849 1.526 . S
C852 C853 1.396 . S
C852 C857 1.390 . S
C853 C847 1.465 . S
C853 C852 1.396 . S
C853 C854 1.399 . S
C854 H840 0.929 . S
C854 C853 1.399 . S
C854 C855 1.385 . S
C855 H841 0.931 . S
C855 C854 1.385 . S
C855 C856 1.389 . S
C856 C855 1.389 . S
C856 C857 1.387 . S
C857 H842 0.930 . S
C857 C852 1.390 . S
C857 C856 1.387 . S
H858 C870 0.930 . S
H859 C872 0.930 . S
H860 C873 0.930 . S
H861 C877 0.959 . S
H862 C877 0.959 . S
H863 C877 0.961 . S
H864 C878 0.960 . S
H865 C878 0.961 . S
H866 C878 0.959 . S
H867 C881 0.929 . S
H868 C882 0.931 . S
H869 C884 0.930 . S
C870 H858 0.930 . S
C870 C871 1.399 . S
C870 C875 1.399 . S
C871 C870 1.399 . S
C871 C872 1.376 . S
C872 H859 0.930 . S
C872 C871 1.376 . S
C872 C873 1.388 . S
C873 H860 0.930 . S
C873 C872 1.388 . S
C873 C874 1.390 . S
C874 C873 1.390 . S
C874 C875 1.394 . S
C874 C880 1.465 . S
C875 C870 1.399 . S
C875 C874 1.394 . S
C875 C876 1.516 . S
C876 C875 1.516 . S
C876 C877 1.502 . S
C876 C878 1.561 . S
C876 C879 1.526 . S
C877 H861 0.959 . S
C877 H862 0.959 . S
C877 H863 0.961 . S
C877 C876 1.502 . S
C878 H864 0.960 . S
C878 H865 0.961 . S
C878 H866 0.959 . S
C878 C876 1.561 . S
C879 C876 1.526 . S
C879 C880 1.396 . S
C879 C884 1.390 . S
C880 C874 1.465 . S
C880 C879 1.396 . S
C880 C881 1.399 . S
C881 H867 0.929 . S
C881 C880 1.399 . S
C881 C882 1.385 . S
C882 H868 0.931 . S
C882 C881 1.385 . S
C882 C883 1.389 . S
C883 C882 1.389 . S
C883 C884 1.387 . S
C884 H869 0.930 . S
C884 C879 1.390 . S
C884 C883 1.387 . S
H885 C897 0.930 . S
H886 C899 0.930 . S
H887 C900 0.930 . S
H888 C904 0.959 . S
H889 C904 0.959 . S
H890 C904 0.961 . S
H891 C905 0.960 . S
H892 C905 0.961 . S
H893 C905 0.959 . S
H894 C908 0.929 . S
H895 C909 0.931 . S
H896 C911 0.930 . S
C897 H885 0.930 . S
C897 C898 1.399 . S
C897 C902 1.399 . S
C898 C897 1.399 . S
C898 C899 1.376 . S
C899 H886 0.930 . S
C899 C898 1.376 . S
C899 C900 1.388 . S
C900 H887 0.930 . S
C900 C899 1.388 . S
C900 C901 1.390 . S
C901 C900 1.390 . S
C901 C902 1.394 . S
C901 C907 1.465 . S
C902 C897 1.399 . S
C902 C901 1.394 . S
C902 C903 1.516 . S
C903 C902 1.516 . S
C903 C904 1.502 . S
C903 C905 1.561 . S
C903 C906 1.526 . S
C904 H888 0.959 . S
C904 H889 0.959 . S
C904 H890 0.961 . S
C904 C903 1.502 . S
C905 H891 0.960 . S
C905 H892 0.961 . S
C905 H893 0.959 . S
C905 C903 1.561 . S
C906 C903 1.526 . S
C906 C907 1.396 . S
C906 C911 1.390 . S
C907 C901 1.465 . S
C907 C906 1.396 . S
C907 C908 1.399 . S
C908 H894 0.929 . S
C908 C907 1.399 . S
C908 C909 1.385 . S
C909 H895 0.931 . S
C909 C908 1.385 . S
C909 C910 1.389 . S
C910 C909 1.389 . S
C910 C911 1.387 . S
C911 H896 0.930 . S
C911 C906 1.390 . S
C911 C910 1.387 . S
H912 C924 0.930 . S
H913 C926 0.930 . S
H914 C927 0.930 . S
H915 C931 0.959 . S
H916 C931 0.959 . S
H917 C931 0.961 . S
H918 C932 0.960 . S
H919 C932 0.961 . S
H920 C932 0.959 . S
H921 C935 0.929 . S
H922 C936 0.931 . S
H923 C938 0.930 . S
C924 H912 0.930 . S
C924 C925 1.399 . S
C924 C929 1.399 . S
C925 C924 1.399 . S
C925 C926 1.376 . S
C926 H913 0.930 . S
C926 C925 1.376 . S
C926 C927 1.388 . S
C927 H914 0.930 . S
C927 C926 1.388 . S
C927 C928 1.390 . S
C928 C927 1.390 . S
C928 C929 1.394 . S
C928 C934 1.465 . S
C929 C924 1.399 . S
C929 C928 1.394 . S
C929 C930 1.516 . S
C930 C929 1.516 . S
C930 C931 1.502 . S
C930 C932 1.561 . S
C930 C933 1.526 . S
C931 H915 0.959 . S
C931 H916 0.959 . S
C931 H917 0.961 . S
C931 C930 1.502 . S
C932 H918 0.960 . S
C932 H919 0.961 . S
C932 H920 0.959 . S
C932 C930 1.561 . S
C933 C930 1.526 . S
C933 C934 1.396 . S
C933 C938 1.390 . S
C934 C928 1.465 . S
C934 C933 1.396 . S
C934 C935 1.399 . S
C935 H921 0.929 . S
C935 C934 1.399 . S
C935 C936 1.385 . S
C936 H922 0.931 . S
C936 C935 1.385 . S
C936 C937 1.389 . S
C937 C936 1.389 . S
C937 C938 1.387 . S
C938 H923 0.930 . S
C938 C933 1.390 . S
C938 C937 1.387 . S
H939 C951 0.930 . S
H940 C953 0.930 . S
H941 C954 0.930 . S
H942 C958 0.959 . S
H943 C958 0.959 . S
H944 C958 0.961 . S
H945 C959 0.960 . S
H946 C959 0.961 . S
H947 C959 0.959 . S
H948 C962 0.929 . S
H949 C963 0.931 . S
H950 C965 0.930 . S
C951 H939 0.930 . S
C951 C952 1.399 . S
C951 C956 1.399 . S
C952 C951 1.399 . S
C952 C953 1.376 . S
C953 H940 0.930 . S
C953 C952 1.376 . S
C953 C954 1.388 . S
C954 H941 0.930 . S
C954 C953 1.388 . S
C954 C955 1.390 . S
C955 C954 1.390 . S
C955 C956 1.394 . S
C955 C961 1.465 . S
C956 C951 1.399 . S
C956 C955 1.394 . S
C956 C957 1.516 . S
C957 C956 1.516 . S
C957 C958 1.502 . S
C957 C959 1.561 . S
C957 C960 1.526 . S
C958 H942 0.959 . S
C958 H943 0.959 . S
C958 H944 0.961 . S
C958 C957 1.502 . S
C959 H945 0.960 . S
C959 H946 0.961 . S
C959 H947 0.959 . S
C959 C957 1.561 . S
C960 C957 1.526 . S
C960 C961 1.396 . S
C960 C965 1.390 . S
C961 C955 1.465 . S
C961 C960 1.396 . S
C961 C962 1.399 . S
C962 H948 0.929 . S
C962 C961 1.399 . S
C962 C963 1.385 . S
C963 H949 0.931 . S
C963 C962 1.385 . S
C963 C964 1.389 . S
C964 C963 1.389 . S
C964 C965 1.387 . S
C965 H950 0.930 . S
C965 C960 1.390 . S
C965 C964 1.387 . S
H966 C978 0.930 . S
H967 C980 0.930 . S
H968 C981 0.930 . S
H969 C985 0.959 . S
H970 C985 0.959 . S
H971 C985 0.961 . S
H972 C986 0.960 . S
H973 C986 0.961 . S
H974 C986 0.959 . S
H975 C989 0.931 . S
H976 C990 0.931 . S
H977 C992 0.930 . S
C978 H966 0.930 . S
C978 C979 1.399 . S
C978 C983 1.399 . S
C979 C978 1.399 . S
C979 C980 1.376 . S
C980 H967 0.930 . S
C980 C979 1.376 . S
C980 C981 1.388 . S
C981 H968 0.930 . S
C981 C980 1.388 . S
C981 C982 1.390 . S
C982 C981 1.390 . S
C982 C983 1.394 . S
C982 C988 1.465 1_566 S
C983 C978 1.399 . S
C983 C982 1.394 . S
C983 C984 1.516 1_556 S
C984 C983 1.516 1_554 S
C984 C985 1.502 . S
C984 C986 1.561 . S
C984 C987 1.526 1_565 S
C985 H969 0.959 . S
C985 H970 0.959 . S
C985 H971 0.961 . S
C985 C984 1.502 . S
C986 H972 0.960 . S
C986 H973 0.961 . S
C986 H974 0.959 . S
C986 C984 1.561 . S
C987 C984 1.526 1_545 S
C987 C988 1.396 . S
C987 C992 1.390 . S
C988 C982 1.465 1_544 S
C988 C987 1.396 . S
C988 C989 1.399 1_554 S
C989 H975 0.931 . S
C989 C988 1.399 1_556 S
C989 C990 1.383 1_556 S
C990 H976 0.931 . S
C990 C989 1.383 1_554 S
C990 C991 1.389 . S
C991 C990 1.389 . S
C991 C992 1.387 . S
C992 H977 0.930 . S
C992 C987 1.390 . S
C992 C991 1.387 . S
H993 C1005 0.930 . S
H994 C1007 0.930 . S
H995 C1008 0.930 . S
H996 C1012 0.959 . S
H997 C1012 0.959 . S
H998 C1012 0.961 . S
H999 C1013 0.960 . S
H1000 C1013 0.961 . S
H1001 C1013 0.959 . S
H1002 C1016 0.929 . S
H1003 C1017 0.931 . S
H1004 C1019 0.930 . S
C1005 H993 0.930 . S
C1005 C1006 1.399 . S
C1005 C1010 1.399 . S
C1006 C1005 1.399 . S
C1006 C1007 1.376 . S
C1007 H994 0.930 . S
C1007 C1006 1.376 . S
C1007 C1008 1.388 . S
C1008 H995 0.930 . S
C1008 C1007 1.388 . S
C1008 C1009 1.390 . S
C1009 C1008 1.390 . S
C1009 C1010 1.394 . S
C1009 C1015 1.465 . S
C1010 C1005 1.399 . S
C1010 C1009 1.394 . S
C1010 C1011 1.516 . S
C1011 C1010 1.516 . S
C1011 C1012 1.502 . S
C1011 C1013 1.561 . S
C1011 C1014 1.526 . S
C1012 H996 0.959 . S
C1012 H997 0.959 . S
C1012 H998 0.961 . S
C1012 C1011 1.502 . S
C1013 H999 0.960 . S
C1013 H1000 0.961 . S
C1013 H1001 0.959 . S
C1013 C1011 1.561 . S
C1014 C1011 1.526 . S
C1014 C1015 1.396 . S
C1014 C1019 1.390 . S
C1015 C1009 1.465 . S
C1015 C1014 1.396 . S
C1015 C1016 1.399 . S
C1016 H1002 0.929 . S
C1016 C1015 1.399 . S
C1016 C1017 1.385 . S
C1017 H1003 0.931 . S
C1017 C1016 1.385 . S
C1017 C1018 1.389 . S
C1018 C1017 1.389 . S
C1018 C1019 1.387 . S
C1019 H1004 0.930 . S
C1019 C1014 1.390 . S
C1019 C1018 1.387 . S
H1020 C1032 0.930 . S
H1021 C1034 0.930 . S
H1022 C1035 0.930 1_655 S
H1023 C1039 0.959 . S
H1024 C1039 0.959 . S
H1025 C1039 0.961 . S
H1026 C1040 0.960 . S
H1027 C1040 0.961 . S
H1028 C1040 0.939 1_656 S
H1029 C1043 0.929 . S
H1030 C1044 0.931 . S
H1031 C1046 0.930 . S
C1032 H1020 0.930 . S
C1032 C1033 1.399 . S
C1032 C1037 1.399 . S
C1033 C1032 1.399 . S
C1033 C1034 1.376 . S
C1034 H1021 0.930 . S
C1034 C1033 1.376 . S
C1034 C1035 1.388 . S
C1035 H1022 0.930 1_455 S
C1035 C1034 1.388 . S
C1035 C1036 1.390 . S
C1036 C1035 1.390 . S
C1036 C1037 1.394 . S
C1036 C1042 1.465 1_455 S
C1037 C1032 1.399 . S
C1037 C1036 1.394 . S
C1037 C1038 1.516 1_556 S
C1038 C1037 1.516 1_554 S
C1038 C1039 1.502 . S
C1038 C1040 1.561 . S
C1038 C1041 1.526 1_455 S
C1039 H1023 0.959 . S
C1039 H1024 0.959 . S
C1039 H1025 0.961 . S
C1039 C1038 1.502 . S
C1040 H1026 0.960 . S
C1040 H1027 0.961 . S
C1040 H1028 0.939 1_454 S
C1040 C1038 1.561 . S
C1041 C1038 1.526 1_655 S
C1041 C1042 1.396 1_554 S
C1041 C1046 1.390 . S
C1042 C1036 1.465 1_655 S
C1042 C1041 1.396 1_556 S
C1042 C1043 1.399 . S
C1043 H1029 0.929 . S
C1043 C1042 1.399 . S
C1043 C1044 1.385 1_556 S
C1044 H1030 0.931 . S
C1044 C1043 1.385 1_554 S
C1044 C1045 1.389 . S
C1045 C1044 1.389 . S
C1045 C1046 1.387 . S
C1046 H1031 0.930 . S
C1046 C1041 1.390 . S
C1046 C1045 1.387 . S
H1047 C1059 0.930 . S
H1048 C1061 0.930 . S
H1049 C1062 0.930 . S
H1050 C1066 0.959 . S
H1051 C1066 0.959 . S
H1052 C1066 0.961 . S
H1053 C1067 0.960 . S
H1054 C1067 0.961 . S
H1055 C1067 0.959 . S
H1056 C1070 0.929 1_545 S
H1057 C1071 0.931 . S
H1058 C1073 0.930 . S
C1059 H1047 0.930 . S
C1059 C1060 1.399 . S
C1059 C1064 1.399 . S
C1060 C1059 1.399 . S
C1060 C1061 1.376 . S
C1061 H1048 0.930 . S
C1061 C1060 1.376 . S
C1061 C1062 1.388 . S
C1062 H1049 0.930 . S
C1062 C1061 1.388 . S
C1062 C1063 1.390 . S
C1063 C1062 1.390 . S
C1063 C1064 1.394 . S
C1063 C1069 1.465 1_545 S
C1064 C1059 1.399 . S
C1064 C1063 1.394 . S
C1064 C1065 1.516 1_545 S
C1065 C1064 1.516 1_565 S
C1065 C1066 1.502 . S
C1065 C1067 1.561 . S
C1065 C1068 1.526 . S
C1066 H1050 0.959 . S
C1066 H1051 0.959 . S
C1066 H1052 0.961 . S
C1066 C1065 1.502 . S
C1067 H1053 0.960 . S
C1067 H1054 0.961 . S
C1067 H1055 0.959 . S
C1067 C1065 1.561 . S
C1068 C1065 1.526 . S
C1068 C1069 1.396 . S
C1068 C1073 1.390 . S
C1069 C1063 1.465 1_565 S
C1069 C1068 1.396 . S
C1069 C1070 1.399 . S
C1070 H1056 0.929 1_565 S
C1070 C1069 1.399 . S
C1070 C1071 1.385 . S
C1071 H1057 0.931 . S
C1071 C1070 1.385 . S
C1071 C1072 1.389 . S
C1072 C1071 1.389 . S
C1072 C1073 1.387 . S
C1073 H1058 0.930 . S
C1073 C1068 1.390 . S
C1073 C1072 1.387 . S
H1074 C1086 0.930 . S
H1075 C1088 0.930 . S
H1076 C1089 0.930 1_556 S
H1077 C1093 0.959 . S
H1078 C1093 0.959 . S
H1079 C1093 0.961 . S
H1080 C1094 0.960 1_554 S
H1081 C1094 0.961 . S
H1082 C1094 0.959 . S
H1083 C1097 0.929 . S
H1084 C1098 0.931 . S
H1085 C1100 0.930 . S
C1086 H1074 0.930 . S
C1086 C1087 1.399 . S
C1086 C1091 1.399 . S
C1087 C1086 1.399 . S
C1087 C1088 1.376 . S
C1088 H1075 0.930 . S
C1088 C1087 1.376 . S
C1088 C1089 1.388 . S
C1089 H1076 0.930 1_554 S
C1089 C1088 1.388 . S
C1089 C1090 1.394 . S
C1090 C1089 1.394 . S
C1090 C1091 1.418 . S
C1090 C1096 1.442 1_554 S
C1091 C1086 1.399 . S
C1091 C1090 1.418 . S
C1091 C1092 1.516 . S
C1092 C1091 1.516 . S
C1092 C1093 1.502 . S
C1092 C1094 1.561 1_554 S
C1092 C1095 1.526 1_554 S
C1093 H1077 0.959 . S
C1093 H1078 0.959 . S
C1093 H1079 0.961 . S
C1093 C1092 1.502 . S
C1094 H1080 0.960 1_556 S
C1094 H1081 0.961 . S
C1094 H1082 0.959 . S
C1094 C1092 1.561 1_556 S
C1095 C1092 1.526 1_556 S
C1095 C1096 1.396 . S
C1095 C1100 1.390 . S
C1096 C1090 1.442 1_556 S
C1096 C1095 1.396 . S
C1096 C1097 1.399 . S
C1097 H1083 0.929 . S
C1097 C1096 1.399 . S
C1097 C1098 1.385 . S
C1098 H1084 0.931 . S
C1098 C1097 1.385 . S
C1098 C1099 1.389 . S
C1099 C1098 1.389 . S
C1099 C1100 1.387 . S
C1100 H1085 0.930 . S
C1100 C1095 1.390 . S
C1100 C1099 1.387 . S
H1101 C1113 0.930 . S
H1102 C1115 0.930 . S
H1103 C1116 0.930 . S
H1104 C1120 0.959 . S
H1105 C1120 0.957 1_655 S
H1106 C1120 0.961 . S
H1107 C1121 0.960 . S
H1108 C1121 0.961 . S
H1109 C1121 0.959 . S
H1110 C1124 0.929 . S
H1111 C1125 0.931 . S
H1112 C1127 0.930 . S
C1113 H1101 0.930 . S
C1113 C1114 1.399 . S
C1113 C1118 1.399 . S
C1114 C1113 1.399 . S
C1114 C1115 1.376 . S
C1115 H1102 0.930 . S
C1115 C1114 1.376 . S
C1115 C1116 1.388 . S
C1116 H1103 0.930 . S
C1116 C1115 1.388 . S
C1116 C1117 1.390 . S
C1117 C1116 1.390 . S
C1117 C1118 1.394 . S
C1117 C1123 1.465 1_455 S
C1118 C1113 1.399 . S
C1118 C1117 1.394 . S
C1118 C1119 1.512 1_455 S
C1119 C1118 1.512 1_655 S
C1119 C1120 1.488 1_655 S
C1119 C1121 1.564 . S
C1119 C1122 1.543 . S
C1120 H1104 0.959 . S
C1120 H1105 0.957 1_455 S
C1120 H1106 0.961 . S
C1120 C1119 1.488 1_455 S
C1121 H1107 0.960 . S
C1121 H1108 0.961 . S
C1121 H1109 0.959 . S
C1121 C1119 1.564 . S
C1122 C1119 1.543 . S
C1122 C1123 1.396 . S
C1122 C1127 1.390 . S
C1123 C1117 1.465 1_655 S
C1123 C1122 1.396 . S
C1123 C1124 1.399 . S
C1124 H1110 0.929 . S
C1124 C1123 1.399 . S
C1124 C1125 1.385 . S
C1125 H1111 0.931 . S
C1125 C1124 1.385 . S
C1125 C1126 1.389 . S
C1126 C1125 1.389 . S
C1126 C1127 1.387 . S
C1127 H1112 0.930 . S
C1127 C1122 1.390 . S
C1127 C1126 1.387 . S
H1128 C1140 0.930 . S
H1129 C1142 0.930 . S
H1130 C1143 0.930 . S
H1131 C1147 0.959 . S
H1132 C1147 0.959 . S
H1133 C1147 0.961 . S
H1134 C1148 0.960 . S
H1135 C1148 0.961 . S
H1136 C1148 0.959 . S
H1137 C1151 0.929 . S
H1138 C1152 0.931 . S
H1139 C1154 0.930 . S
C1140 H1128 0.930 . S
C1140 C1141 1.399 . S
C1140 C1145 1.399 . S
C1141 C1140 1.399 . S
C1141 C1142 1.376 . S
C1142 H1129 0.930 . S
C1142 C1141 1.376 . S
C1142 C1143 1.388 . S
C1143 H1130 0.930 . S
C1143 C1142 1.388 . S
C1143 C1144 1.390 . S
C1144 C1143 1.390 . S
C1144 C1145 1.394 . S
C1144 C1150 1.465 . S
C1145 C1140 1.399 . S
C1145 C1144 1.394 . S
C1145 C1146 1.516 . S
C1146 C1145 1.516 . S
C1146 C1147 1.502 . S
C1146 C1148 1.561 . S
C1146 C1149 1.526 . S
C1147 H1131 0.959 . S
C1147 H1132 0.959 . S
C1147 H1133 0.961 . S
C1147 C1146 1.502 . S
C1148 H1134 0.960 . S
C1148 H1135 0.961 . S
C1148 H1136 0.959 . S
C1148 C1146 1.561 . S
C1149 C1146 1.526 . S
C1149 C1150 1.396 . S
C1149 C1154 1.390 . S
C1150 C1144 1.465 . S
C1150 C1149 1.396 . S
C1150 C1151 1.399 . S
C1151 H1137 0.929 . S
C1151 C1150 1.399 . S
C1151 C1152 1.385 . S
C1152 H1138 0.931 . S
C1152 C1151 1.385 . S
C1152 C1153 1.389 . S
C1153 C1152 1.389 . S
C1153 C1154 1.387 . S
C1154 H1139 0.930 . S
C1154 C1149 1.390 . S
C1154 C1153 1.387 . S
H1155 C1167 0.930 . S
H1156 C1169 0.930 . S
H1157 C1170 0.930 . S
H1158 C1174 0.959 . S
H1159 C1174 0.959 . S
H1160 C1174 0.961 . S
H1161 C1175 0.960 . S
H1162 C1175 0.961 . S
H1163 C1175 0.959 . S
H1164 C1178 0.929 . S
H1165 C1179 0.931 . S
H1166 C1181 0.930 . S
C1167 H1155 0.930 . S
C1167 C1168 1.399 . S
C1167 C1172 1.399 . S
C1168 C1167 1.399 . S
C1168 C1169 1.376 . S
C1169 H1156 0.930 . S
C1169 C1168 1.376 . S
C1169 C1170 1.388 . S
C1170 H1157 0.930 . S
C1170 C1169 1.388 . S
C1170 C1171 1.390 . S
C1171 C1170 1.390 . S
C1171 C1172 1.394 . S
C1171 C1177 1.465 . S
C1172 C1167 1.399 . S
C1172 C1171 1.394 . S
C1172 C1173 1.516 . S
C1173 C1172 1.516 . S
C1173 C1174 1.502 . S
C1173 C1175 1.561 . S
C1173 C1176 1.526 . S
C1174 H1158 0.959 . S
C1174 H1159 0.959 . S
C1174 H1160 0.961 . S
C1174 C1173 1.502 . S
C1175 H1161 0.960 . S
C1175 H1162 0.961 . S
C1175 H1163 0.959 . S
C1175 C1173 1.561 . S
C1176 C1173 1.526 . S
C1176 C1177 1.396 . S
C1176 C1181 1.390 . S
C1177 C1171 1.465 . S
C1177 C1176 1.396 . S
C1177 C1178 1.399 . S
C1178 H1164 0.929 . S
C1178 C1177 1.399 . S
C1178 C1179 1.385 . S
C1179 H1165 0.931 . S
C1179 C1178 1.385 . S
C1179 C1180 1.389 . S
C1180 C1179 1.389 . S
C1180 C1181 1.387 . S
C1181 H1166 0.930 . S
C1181 C1176 1.390 . S
C1181 C1180 1.387 . S
H1182 C1194 0.930 . S
H1183 C1196 0.930 . S
H1184 C1197 0.930 . S
H1185 C1201 0.959 . S
H1186 C1201 0.959 . S
H1187 C1201 0.961 . S
H1188 C1202 0.960 . S
H1189 C1202 0.961 . S
H1190 C1202 0.959 . S
H1191 C1205 0.929 . S
H1192 C1206 0.931 . S
H1193 C1208 0.930 . S
C1194 H1182 0.930 . S
C1194 C1195 1.399 . S
C1194 C1199 1.399 . S
C1195 C1194 1.399 . S
C1195 C1196 1.376 . S
C1196 H1183 0.930 . S
C1196 C1195 1.376 . S
C1196 C1197 1.388 . S
C1197 H1184 0.930 . S
C1197 C1196 1.388 . S
C1197 C1198 1.390 . S
C1198 C1197 1.390 . S
C1198 C1199 1.394 . S
C1198 C1204 1.465 . S
C1199 C1194 1.399 . S
C1199 C1198 1.394 . S
C1199 C1200 1.516 . S
C1200 C1199 1.516 . S
C1200 C1201 1.502 . S
C1200 C1202 1.561 . S
C1200 C1203 1.526 . S
C1201 H1185 0.959 . S
C1201 H1186 0.959 . S
C1201 H1187 0.961 . S
C1201 C1200 1.502 . S
C1202 H1188 0.960 . S
C1202 H1189 0.961 . S
C1202 H1190 0.959 . S
C1202 C1200 1.561 . S
C1203 C1200 1.526 . S
C1203 C1204 1.396 . S
C1203 C1208 1.390 . S
C1204 C1198 1.465 . S
C1204 C1203 1.396 . S
C1204 C1205 1.399 . S
C1205 H1191 0.929 . S
C1205 C1204 1.399 . S
C1205 C1206 1.385 . S
C1206 H1192 0.931 . S
C1206 C1205 1.385 . S
C1206 C1207 1.389 . S
C1207 C1206 1.389 . S
C1207 C1208 1.387 . S
C1208 H1193 0.930 . S
C1208 C1203 1.390 . S
C1208 C1207 1.387 . S
H1209 C1221 0.930 . S
H1210 C1223 0.930 . S
H1211 C1224 0.930 . S
H1212 C1228 0.959 . S
H1213 C1228 0.959 . S
H1214 C1228 0.961 . S
H1215 C1229 0.960 . S
H1216 C1229 0.961 . S
H1217 C1229 0.959 . S
H1218 C1232 0.929 . S
H1219 C1233 0.931 . S
H1220 C1235 0.930 . S
C1221 H1209 0.930 . S
C1221 C1222 1.399 . S
C1221 C1226 1.399 . S
C1222 C1221 1.399 . S
C1222 C1223 1.376 . S
C1223 H1210 0.930 . S
C1223 C1222 1.376 . S
C1223 C1224 1.388 . S
C1224 H1211 0.930 . S
C1224 C1223 1.388 . S
C1224 C1225 1.390 . S
C1225 C1224 1.390 . S
C1225 C1226 1.394 . S
C1225 C1231 1.465 . S
C1226 C1221 1.399 . S
C1226 C1225 1.394 . S
C1226 C1227 1.516 . S
C1227 C1226 1.516 . S
C1227 C1228 1.502 . S
C1227 C1229 1.561 . S
C1227 C1230 1.526 . S
C1228 H1212 0.959 . S
C1228 H1213 0.959 . S
C1228 H1214 0.961 . S
C1228 C1227 1.502 . S
C1229 H1215 0.960 . S
C1229 H1216 0.961 . S
C1229 H1217 0.959 . S
C1229 C1227 1.561 . S
C1230 C1227 1.526 . S
C1230 C1231 1.396 . S
C1230 C1235 1.390 . S
C1231 C1225 1.465 . S
C1231 C1230 1.396 . S
C1231 C1232 1.399 . S
C1232 H1218 0.929 . S
C1232 C1231 1.399 . S
C1232 C1233 1.385 . S
C1233 H1219 0.931 . S
C1233 C1232 1.385 . S
C1233 C1234 1.389 . S
C1234 C1233 1.389 . S
C1234 C1235 1.387 . S
C1235 H1220 0.930 . S
C1235 C1230 1.390 . S
C1235 C1234 1.387 . S
H1236 C1248 0.930 . S
H1237 C1250 0.930 . S
H1238 C1251 0.930 . S
H1239 C1255 0.959 . S
H1240 C1255 0.959 . S
H1241 C1255 0.961 . S
H1242 C1256 0.960 . S
H1243 C1256 0.961 . S
H1244 C1256 0.959 . S
H1245 C1259 0.929 . S
H1246 C1260 0.931 . S
H1247 C1262 0.930 . S
C1248 H1236 0.930 . S
C1248 C1249 1.399 . S
C1248 C1253 1.399 . S
C1249 C1248 1.399 . S
C1249 C1250 1.376 . S
C1250 H1237 0.930 . S
C1250 C1249 1.376 . S
C1250 C1251 1.388 . S
C1251 H1238 0.930 . S
C1251 C1250 1.388 . S
C1251 C1252 1.390 . S
C1252 C1251 1.390 . S
C1252 C1253 1.394 . S
C1252 C1258 1.465 . S
C1253 C1248 1.399 . S
C1253 C1252 1.394 . S
C1253 C1254 1.516 . S
C1254 C1253 1.516 . S
C1254 C1255 1.502 . S
C1254 C1256 1.561 . S
C1254 C1257 1.526 . S
C1255 H1239 0.959 . S
C1255 H1240 0.959 . S
C1255 H1241 0.961 . S
C1255 C1254 1.502 . S
C1256 H1242 0.960 . S
C1256 H1243 0.961 . S
C1256 H1244 0.959 . S
C1256 C1254 1.561 . S
C1257 C1254 1.526 . S
C1257 C1258 1.396 . S
C1257 C1262 1.390 . S
C1258 C1252 1.465 . S
C1258 C1257 1.396 . S
C1258 C1259 1.399 . S
C1259 H1245 0.929 . S
C1259 C1258 1.399 . S
C1259 C1260 1.385 . S
C1260 H1246 0.931 . S
C1260 C1259 1.385 . S
C1260 C1261 1.389 . S
C1261 C1260 1.389 . S
C1261 C1262 1.387 . S
C1262 H1247 0.930 . S
C1262 C1257 1.390 . S
C1262 C1261 1.387 . S
H1263 C1275 0.930 . S
H1264 C1277 0.930 . S
H1265 C1278 0.930 . S
H1266 C1282 0.959 . S
H1267 C1282 0.959 . S
H1268 C1282 0.961 . S
H1269 C1283 0.960 . S
H1270 C1283 0.961 . S
H1271 C1283 0.959 . S
H1272 C1286 0.929 . S
H1273 C1287 0.931 . S
H1274 C1289 0.930 . S
C1275 H1263 0.930 . S
C1275 C1276 1.399 . S
C1275 C1280 1.399 . S
C1276 C1275 1.399 . S
C1276 C1277 1.376 . S
C1277 H1264 0.930 . S
C1277 C1276 1.376 . S
C1277 C1278 1.388 . S
C1278 H1265 0.930 . S
C1278 C1277 1.388 . S
C1278 C1279 1.390 . S
C1279 C1278 1.390 . S
C1279 C1280 1.394 . S
C1279 C1285 1.465 . S
C1280 C1275 1.399 . S
C1280 C1279 1.394 . S
C1280 C1281 1.516 . S
C1281 C1280 1.516 . S
C1281 C1282 1.502 . S
C1281 C1283 1.561 . S
C1281 C1284 1.526 . S
C1282 H1266 0.959 . S
C1282 H1267 0.959 . S
C1282 H1268 0.961 . S
C1282 C1281 1.502 . S
C1283 H1269 0.960 . S
C1283 H1270 0.961 . S
C1283 H1271 0.959 . S
C1283 C1281 1.561 . S
C1284 C1281 1.526 . S
C1284 C1285 1.396 . S
C1284 C1289 1.390 . S
C1285 C1279 1.465 . S
C1285 C1284 1.396 . S
C1285 C1286 1.399 . S
C1286 H1272 0.929 . S
C1286 C1285 1.399 . S
C1286 C1287 1.385 . S
C1287 H1273 0.931 . S
C1287 C1286 1.385 . S
C1287 C1288 1.389 . S
C1288 C1287 1.389 . S
C1288 C1289 1.387 . S
C1289 H1274 0.930 . S
C1289 C1284 1.390 . S
C1289 C1288 1.387 . S
H1290 C1302 0.930 . S
H1291 C1304 0.930 . S
H1292 C1305 0.930 . S
H1293 C1309 0.959 . S
H1294 C1309 0.959 . S
H1295 C1309 0.961 . S
H1296 C1310 0.960 . S
H1297 C1310 0.961 . S
H1298 C1310 0.959 . S
H1299 C1313 0.929 . S
H1300 C1314 0.931 . S
H1301 C1316 0.930 . S
C1302 H1290 0.930 . S
C1302 C1303 1.399 . S
C1302 C1307 1.399 . S
C1303 C1302 1.399 . S
C1303 C1304 1.376 . S
C1304 H1291 0.930 . S
C1304 C1303 1.376 . S
C1304 C1305 1.388 . S
C1305 H1292 0.930 . S
C1305 C1304 1.388 . S
C1305 C1306 1.390 . S
C1306 C1305 1.390 . S
C1306 C1307 1.394 . S
C1306 C1312 1.465 . S
C1307 C1302 1.399 . S
C1307 C1306 1.394 . S
C1307 C1308 1.516 . S
C1308 C1307 1.516 . S
C1308 C1309 1.502 . S
C1308 C1310 1.561 . S
C1308 C1311 1.526 . S
C1309 H1293 0.959 . S
C1309 H1294 0.959 . S
C1309 H1295 0.961 . S
C1309 C1308 1.502 . S
C1310 H1296 0.960 . S
C1310 H1297 0.961 . S
C1310 H1298 0.959 . S
C1310 C1308 1.561 . S
C1311 C1308 1.526 . S
C1311 C1312 1.396 . S
C1311 C1316 1.390 . S
C1312 C1306 1.465 . S
C1312 C1311 1.396 . S
C1312 C1313 1.399 . S
C1313 H1299 0.929 . S
C1313 C1312 1.399 . S
C1313 C1314 1.385 . S
C1314 H1300 0.931 . S
C1314 C1313 1.385 . S
C1314 C1315 1.389 . S
C1315 C1314 1.389 . S
C1315 C1316 1.387 . S
C1316 H1301 0.930 . S
C1316 C1311 1.390 . S
C1316 C1315 1.387 . S
H1317 C1329 0.930 . S
H1318 C1331 0.930 . S
H1319 C1332 0.930 . S
H1320 C1336 0.959 . S
H1321 C1336 0.959 . S
H1322 C1336 0.961 . S
H1323 C1337 0.960 . S
H1324 C1337 0.961 . S
H1325 C1337 0.959 . S
H1326 C1340 0.929 . S
H1327 C1341 0.931 . S
H1328 C1343 0.930 . S
C1329 H1317 0.930 . S
C1329 C1330 1.399 . S
C1329 C1334 1.399 . S
C1330 C1329 1.399 . S
C1330 C1331 1.376 . S
C1331 H1318 0.930 . S
C1331 C1330 1.376 . S
C1331 C1332 1.388 . S
C1332 H1319 0.930 . S
C1332 C1331 1.388 . S
C1332 C1333 1.390 . S
C1333 C1332 1.390 . S
C1333 C1334 1.394 . S
C1333 C1339 1.465 . S
C1334 C1329 1.399 . S
C1334 C1333 1.394 . S
C1334 C1335 1.516 . S
C1335 C1334 1.516 . S
C1335 C1336 1.502 . S
C1335 C1337 1.561 . S
C1335 C1338 1.526 . S
C1336 H1320 0.959 . S
C1336 H1321 0.959 . S
C1336 H1322 0.961 . S
C1336 C1335 1.502 . S
C1337 H1323 0.960 . S
C1337 H1324 0.961 . S
C1337 H1325 0.959 . S
C1337 C1335 1.561 . S
C1338 C1335 1.526 . S
C1338 C1339 1.396 . S
C1338 C1343 1.390 . S
C1339 C1333 1.465 . S
C1339 C1338 1.396 . S
C1339 C1340 1.399 . S
C1340 H1326 0.929 . S
C1340 C1339 1.399 . S
C1340 C1341 1.385 . S
C1341 H1327 0.931 . S
C1341 C1340 1.385 . S
C1341 C1342 1.389 . S
C1342 C1341 1.389 . S
C1342 C1343 1.387 . S
C1343 H1328 0.930 . S
C1343 C1338 1.390 . S
C1343 C1342 1.387 . S
H1344 C1356 0.930 . S
H1345 C1358 0.930 . S
H1346 C1359 0.930 . S
H1347 C1363 0.959 . S
H1348 C1363 0.959 . S
H1349 C1363 0.961 . S
H1350 C1364 0.960 . S
H1351 C1364 0.961 . S
H1352 C1364 0.959 . S
H1353 C1367 0.929 . S
H1354 C1368 0.931 . S
H1355 C1370 0.930 . S
C1356 H1344 0.930 . S
C1356 C1357 1.399 . S
C1356 C1361 1.399 . S
C1357 C1356 1.399 . S
C1357 C1358 1.376 . S
C1358 H1345 0.930 . S
C1358 C1357 1.376 . S
C1358 C1359 1.388 . S
C1359 H1346 0.930 . S
C1359 C1358 1.388 . S
C1359 C1360 1.390 . S
C1360 C1359 1.390 . S
C1360 C1361 1.394 . S
C1360 C1366 1.465 . S
C1361 C1356 1.399 . S
C1361 C1360 1.394 . S
C1361 C1362 1.516 . S
C1362 C1361 1.516 . S
C1362 C1363 1.502 . S
C1362 C1364 1.561 . S
C1362 C1365 1.526 . S
C1363 H1347 0.959 . S
C1363 H1348 0.959 . S
C1363 H1349 0.961 . S
C1363 C1362 1.502 . S
C1364 H1350 0.960 . S
C1364 H1351 0.961 . S
C1364 H1352 0.959 . S
C1364 C1362 1.561 . S
C1365 C1362 1.526 . S
C1365 C1366 1.396 . S
C1365 C1370 1.390 . S
C1366 C1360 1.465 . S
C1366 C1365 1.396 . S
C1366 C1367 1.399 . S
C1367 H1353 0.929 . S
C1367 C1366 1.399 . S
C1367 C1368 1.385 . S
C1368 H1354 0.931 . S
C1368 C1367 1.385 . S
C1368 C1369 1.389 . S
C1369 C1368 1.389 . S
C1369 C1370 1.387 . S
C1370 H1355 0.930 . S
C1370 C1365 1.390 . S
C1370 C1369 1.387 . S
H1371 C1383 0.930 . S
H1372 C1385 0.930 . S
H1373 C1386 0.930 . S
H1374 C1390 0.959 . S
H1375 C1390 0.959 . S
H1376 C1390 0.961 . S
H1377 C1391 0.960 . S
H1378 C1391 0.961 . S
H1379 C1391 0.959 . S
H1380 C1394 0.929 . S
H1381 C1395 0.931 . S
H1382 C1397 0.930 . S
C1383 H1371 0.930 . S
C1383 C1384 1.399 . S
C1383 C1388 1.399 . S
C1384 C1383 1.399 . S
C1384 C1385 1.376 . S
C1385 H1372 0.930 . S
C1385 C1384 1.376 . S
C1385 C1386 1.388 . S
C1386 H1373 0.930 . S
C1386 C1385 1.388 . S
C1386 C1387 1.390 . S
C1387 C1386 1.390 . S
C1387 C1388 1.394 . S
C1387 C1393 1.465 . S
C1388 C1383 1.399 . S
C1388 C1387 1.394 . S
C1388 C1389 1.516 . S
C1389 C1388 1.516 . S
C1389 C1390 1.502 . S
C1389 C1391 1.561 . S
C1389 C1392 1.526 . S
C1390 H1374 0.959 . S
C1390 H1375 0.959 . S
C1390 H1376 0.961 . S
C1390 C1389 1.502 . S
C1391 H1377 0.960 . S
C1391 H1378 0.961 . S
C1391 H1379 0.959 . S
C1391 C1389 1.561 . S
C1392 C1389 1.526 . S
C1392 C1393 1.396 . S
C1392 C1397 1.390 . S
C1393 C1387 1.465 . S
C1393 C1392 1.396 . S
C1393 C1394 1.399 . S
C1394 H1380 0.929 . S
C1394 C1393 1.399 . S
C1394 C1395 1.385 . S
C1395 H1381 0.931 . S
C1395 C1394 1.385 . S
C1395 C1396 1.389 . S
C1396 C1395 1.389 . S
C1396 C1397 1.387 . S
C1397 H1382 0.930 . S
C1397 C1392 1.390 . S
C1397 C1396 1.387 . S
H1398 C1410 0.930 . S
H1399 C1412 0.930 . S
H1400 C1413 0.930 . S
H1401 C1417 0.959 . S
H1402 C1417 0.959 . S
H1403 C1417 0.961 . S
H1404 C1418 0.960 . S
H1405 C1418 0.961 . S
H1406 C1418 0.959 . S
H1407 C1421 0.929 . S
H1408 C1422 0.931 . S
H1409 C1424 0.930 . S
C1410 H1398 0.930 . S
C1410 C1411 1.399 . S
C1410 C1415 1.399 . S
C1411 C1410 1.399 . S
C1411 C1412 1.376 . S
C1412 H1399 0.930 . S
C1412 C1411 1.376 . S
C1412 C1413 1.388 . S
C1413 H1400 0.930 . S
C1413 C1412 1.388 . S
C1413 C1414 1.390 . S
C1414 C1413 1.390 . S
C1414 C1415 1.394 . S
C1414 C1420 1.465 . S
C1415 C1410 1.399 . S
C1415 C1414 1.394 . S
C1415 C1416 1.516 . S
C1416 C1415 1.516 . S
C1416 C1417 1.502 . S
C1416 C1418 1.561 . S
C1416 C1419 1.526 . S
C1417 H1401 0.959 . S
C1417 H1402 0.959 . S
C1417 H1403 0.961 . S
C1417 C1416 1.502 . S
C1418 H1404 0.960 . S
C1418 H1405 0.961 . S
C1418 H1406 0.959 . S
C1418 C1416 1.561 . S
C1419 C1416 1.526 . S
C1419 C1420 1.396 . S
C1419 C1424 1.390 . S
C1420 C1414 1.465 . S
C1420 C1419 1.396 . S
C1420 C1421 1.399 . S
C1421 H1407 0.929 . S
C1421 C1420 1.399 . S
C1421 C1422 1.385 . S
C1422 H1408 0.931 . S
C1422 C1421 1.385 . S
C1422 C1423 1.389 . S
C1423 C1422 1.389 . S
C1423 C1424 1.387 . S
C1424 H1409 0.930 . S
C1424 C1419 1.390 . S
C1424 C1423 1.387 . S
H1425 C1437 0.930 . S
H1426 C1439 0.930 . S
H1427 C1440 0.930 . S
H1428 C1444 0.959 . S
H1429 C1444 0.959 . S
H1430 C1444 0.961 . S
H1431 C1445 0.960 . S
H1432 C1445 0.961 . S
H1433 C1445 0.959 . S
H1434 C1448 0.929 . S
H1435 C1449 0.931 . S
H1436 C1451 0.930 . S
C1437 H1425 0.930 . S
C1437 C1438 1.399 . S
C1437 C1442 1.399 . S
C1438 C1437 1.399 . S
C1438 C1439 1.376 . S
C1439 H1426 0.930 . S
C1439 C1438 1.376 . S
C1439 C1440 1.388 . S
C1440 H1427 0.930 . S
C1440 C1439 1.388 . S
C1440 C1441 1.390 . S
C1441 C1440 1.390 . S
C1441 C1442 1.394 . S
C1441 C1447 1.465 . S
C1442 C1437 1.399 . S
C1442 C1441 1.394 . S
C1442 C1443 1.516 . S
C1443 C1442 1.516 . S
C1443 C1444 1.502 . S
C1443 C1445 1.561 . S
C1443 C1446 1.526 . S
C1444 H1428 0.959 . S
C1444 H1429 0.959 . S
C1444 H1430 0.961 . S
C1444 C1443 1.502 . S
C1445 H1431 0.960 . S
C1445 H1432 0.961 . S
C1445 H1433 0.959 . S
C1445 C1443 1.561 . S
C1446 C1443 1.526 . S
C1446 C1447 1.396 . S
C1446 C1451 1.390 . S
C1447 C1441 1.465 . S
C1447 C1446 1.396 . S
C1447 C1448 1.399 . S
C1448 H1434 0.929 . S
C1448 C1447 1.399 . S
C1448 C1449 1.385 . S
C1449 H1435 0.931 . S
C1449 C1448 1.385 . S
C1449 C1450 1.389 . S
C1450 C1449 1.389 . S
C1450 C1451 1.387 . S
C1451 H1436 0.930 . S
C1451 C1446 1.390 . S
C1451 C1450 1.387 . S
C493 C106 1.277 . S
C505 C3 1.252 . S
C520 C129 1.276 . S
C532 C62 1.238 . S
C547 C83 1.278 . S
C559 C186 1.279 . S
C574 C142 1.280 . S
C586 C209 1.268 . S
C601 C26 1.279 . S
C613 C163 1.279 . S
C628 C49 1.278 . S
C640 C222 1.267 . S
C655 C409 1.276 . S
C667 C262 1.239 . S
C682 C283 1.272 . S
C694 C466 1.279 . S
C709 C342 1.280 . S
C721 C249 1.268 . S
C736 C363 1.239 . S
C748 C306 1.273 . S
C763 C422 1.244 . S
C775 C329 1.278 . S
C790 C386 1.271 . S
C802 C443 1.279 . S
C817 C122 1.727 . S
C829 C15 1.720 . S
C844 C42 1.712 . S
C856 C175 1.717 . S
C871 C95 1.712 . S
C883 C202 1.717 . S
C898 C242 1.716 . S
C910 C375 1.724 . S
C925 C295 1.781 . S
C937 C402 1.772 . S
C952 C322 1.761 . S
C964 C455 1.749 . S
C979 C282 2.304 . S
C991 C2 2.317 . S
C1006 C55 2.318 . S
C1018 C335 2.297 . S
C1033 C362 2.296 . S
C1045 C82 2.320 . S
C1060 C135 2.321 . S
C1072 C415 2.296 . S
C1087 C162 2.319 . S
C1099 C442 2.302 . S
C1114 C255 2.302 . S
C1126 C215 2.312 . S
C1141 C89 1.698 . S
C1153 C22 1.712 . S
C1168 C43 1.731 . S
C1180 C146 1.664 . S
C1195 C102 1.723 . S
C1207 C169 1.671 . S
C1222 C123 1.732 . S
C1234 C226 1.661 . S
C1249 C9 1.655 . S
C1261 C182 1.730 . S
C1276 C66 1.703 . S
C1288 C203 1.707 . S
C1303 C426 1.660 . S
C1315 C243 1.721 . S
C1330 C302 1.726 . S
C1342 C449 1.666 . S
C1357 C323 1.730 . S
C1369 C266 1.671 . S
C1384 C289 1.703 . S
C1396 C382 1.710 . S
C1411 C403 1.731 . S
C1423 C346 1.666 . S
C1438 C462 1.708 . S
C1450 C369 1.707 . S
