# Generated by pormake.
# Topology umw, (4)-cn, num edge types: 1
# Building blocks:
#     Node 0, Type 0, BuildingBlock: UXUYUI_clean_sbu_0, # of connection points: 4
#     Node 1, Type 0, BuildingBlock: UXUYUI_clean_sbu_0, # of connection points: 4
#     Node 2, Type 0, BuildingBlock: UXUYUI_clean_sbu_0, # of connection points: 4
#     Node 3, Type 0, BuildingBlock: UXUYUI_clean_sbu_0, # of connection points: 4
#     Node 4, Type 0, BuildingBlock: UXUYUI_clean_sbu_0, # of connection points: 4
#     Node 5, Type 0, BuildingBlock: UXUYUI_clean_sbu_0, # of connection points: 4
#     Node 6, Type 0, BuildingBlock: UXUYUI_clean_sbu_0, # of connection points: 4
#     Node 7, Type 0, BuildingBlock: UXUYUI_clean_sbu_0, # of connection points: 4
#     Edge 8, Type (0, 0), BuildingBlock: AJUNOK_clean_linker_0, # of connection points: 2
#     Edge 9, Type (0, 0), BuildingBlock: AJUNOK_clean_linker_0, # of connection points: 2
#     Edge 10, Type (0, 0), BuildingBlock: AJUNOK_clean_linker_0, # of connection points: 2
#     Edge 11, Type (0, 0), BuildingBlock: AJUNOK_clean_linker_0, # of connection points: 2
#     Edge 12, Type (0, 0), BuildingBlock: AJUNOK_clean_linker_0, # of connection points: 2
#     Edge 13, Type (0, 0), BuildingBlock: AJUNOK_clean_linker_0, # of connection points: 2
#     Edge 14, Type (0, 0), BuildingBlock: AJUNOK_clean_linker_0, # of connection points: 2
#     Edge 15, Type (0, 0), BuildingBlock: AJUNOK_clean_linker_0, # of connection points: 2
#     Edge 16, Type (0, 0), BuildingBlock: AJUNOK_clean_linker_0, # of connection points: 2
#     Edge 17, Type (0, 0), BuildingBlock: AJUNOK_clean_linker_0, # of connection points: 2
#     Edge 18, Type (0, 0), BuildingBlock: AJUNOK_clean_linker_0, # of connection points: 2
#     Edge 19, Type (0, 0), BuildingBlock: AJUNOK_clean_linker_0, # of connection points: 2
#     Edge 20, Type (0, 0), BuildingBlock: AJUNOK_clean_linker_0, # of connection points: 2
#     Edge 21, Type (0, 0), BuildingBlock: AJUNOK_clean_linker_0, # of connection points: 2
#     Edge 22, Type (0, 0), BuildingBlock: AJUNOK_clean_linker_0, # of connection points: 2
#     Edge 23, Type (0, 0), BuildingBlock: AJUNOK_clean_linker_0, # of connection points: 2
# Relax obj value: 0.239
# Max RMSD: 0.148
# Mean RMSD: 0.148
data_MOF--net-umw--node1-UXUYUI_clean_sbu_0--edge1-AJUNOK_clean_linker_0
_symmetry_space_group_name_H-M    P1
_symmetry_Int_Tables_number       1
_symmetry_cell_setting            triclinic
loop_
_symmetry_equiv_pos_as_xyz
'x, y, z'
_cell_length_a     51.917059
_cell_length_b     51.927807
_cell_length_c     28.737828
_cell_angle_alpha  89.97864
_cell_angle_beta   90.005574
_cell_angle_gamma 90.021321
loop_
_atom_site_label
_atom_site_type_symbol
_atom_site_fract_x
_atom_site_fract_y
_atom_site_fract_z
_atom_type_partial_charge
Li0 Li 0.38407 0.14666 0.26884 0.0
Li1 Li 0.41505 0.17635 0.3139 0.0
Li2 Li 0.37456 0.19183 0.28345 0.0
Li3 Li 0.40824 0.1819 0.23063 0.0
C4 C 0.36214 0.16879 0.36367 0.0
N5 N 0.32538 0.18036 0.42998 0.0
C6 C 0.36848 0.18428 0.40176 0.0
C7 C 0.33724 0.15881 0.35976 0.0
C8 C 0.34959 0.19 0.43481 0.0
C9 C 0.31889 0.16498 0.39352 0.0
C10 C 0.44335 0.14472 0.23871 0.0
C11 C 0.48819 0.15076 0.21977 0.0
N12 N 0.4858 0.13345 0.18451 0.0
C13 C 0.44137 0.12685 0.20255 0.0
C14 C 0.46696 0.15669 0.24763 0.0
C15 C 0.46305 0.12146 0.17544 0.0
C16 C 0.37064 0.09941 0.22464 0.0
N17 N 0.37372 0.11164 0.26608 0.0
C18 C 0.3675 0.07224 0.30757 0.0
C19 C 0.37195 0.09875 0.30712 0.0
C20 C 0.36488 0.0589 0.26534 0.0
C21 C 0.36618 0.07286 0.22347 0.0
H22 H 0.37243 0.11016 0.19255 0.0
H23 H 0.37492 0.10894 0.33949 0.0
C24 C 0.44143 0.19951 0.38782 0.0
N25 N 0.43864 0.17737 0.36319 0.0
C26 C 0.45788 0.20025 0.42616 0.0
C27 C 0.46865 0.15558 0.41206 0.0
C28 C 0.45182 0.15565 0.37426 0.0
C29 C 0.47174 0.17807 0.43865 0.0
H30 H 0.43043 0.21639 0.37823 0.0
H31 H 0.44905 0.13834 0.35392 0.0
C32 C 0.34687 0.17255 0.2058 0.0
N33 N 0.29744 0.17248 0.17002 0.0
C34 C 0.34021 0.18947 0.16991 0.0
C35 C 0.3285 0.15526 0.22285 0.0
C36 C 0.31508 0.18925 0.1525 0.0
C37 C 0.3036 0.1556 0.20446 0.0
C38 C 0.40853 0.23262 0.26072 0.0
C39 C 0.39031 0.23868 0.2267 0.0
C40 C 0.42621 0.25129 0.27509 0.0
C41 C 0.39011 0.26337 0.2074 0.0
C42 C 0.42541 0.27577 0.25494 0.0
N43 N 0.40752 0.28125 0.22179 0.0
C44 C 0.35713 0.23321 0.33525 0.0
C45 C 0.32266 0.21357 0.29453 0.0
C46 C 0.34005 0.24896 0.35954 0.0
N47 N 0.34827 0.2156 0.30406 0.0
C48 C 0.30484 0.2292 0.31783 0.0
C49 C 0.31351 0.24668 0.35166 0.0
H50 H 0.37747 0.23415 0.34307 0.0
H51 H 0.31583 0.19923 0.27044 0.0
C52 C 0.4218 0.17603 0.13583 0.0
N53 N 0.42745 0.1893 0.17529 0.0
C54 C 0.43855 0.17688 0.09776 0.0
C55 C 0.4659 0.20609 0.14075 0.0
C56 C 0.44874 0.20451 0.17813 0.0
C57 C 0.46116 0.19171 0.10029 0.0
H58 H 0.40503 0.16367 0.13489 0.0
H59 H 0.45323 0.21422 0.21039 0.0
O60 O 0.38017 0.16366 0.33018 0.0
O61 O 0.42214 0.15097 0.26452 0.0
O62 O 0.37151 0.17226 0.22272 0.0
O63 O 0.40917 0.20856 0.28009 0.0
H64 H 0.38765 0.19214 0.4054 0.0
H65 H 0.33207 0.14654 0.33087 0.0
H66 H 0.35415 0.20221 0.46417 0.0
H67 H 0.29948 0.15756 0.3907 0.0
H68 H 0.50653 0.16003 0.226 0.0
H69 H 0.42319 0.11752 0.19509 0.0
H70 H 0.46874 0.17072 0.27529 0.0
H71 H 0.46176 0.10784 0.14707 0.0
H72 H 0.36727 0.06214 0.34055 0.0
H73 H 0.3643 0.06325 0.1902 0.0
H74 H 0.45926 0.21777 0.44643 0.0
H75 H 0.47908 0.13813 0.42052 0.0
H76 H 0.35432 0.20253 0.15538 0.0
H77 H 0.33333 0.14179 0.25007 0.0
H78 H 0.30964 0.20233 0.12489 0.0
H79 H 0.28917 0.14243 0.21757 0.0
H80 H 0.37642 0.22452 0.21556 0.0
H81 H 0.44044 0.24686 0.30144 0.0
H82 H 0.37608 0.26832 0.18104 0.0
H83 H 0.439 0.2904 0.26565 0.0
H84 H 0.34749 0.26247 0.38493 0.0
H85 H 0.28446 0.22695 0.31086 0.0
H86 H 0.43428 0.16549 0.06715 0.0
H87 H 0.48336 0.21732 0.1444 0.0
Li88 Li 0.82976 0.41643 0.55915 0.0
Li89 Li 0.855 0.3865 0.51818 0.0
Li90 Li 0.82052 0.40938 0.4771 0.0
Li91 Li 0.8111 0.37424 0.54034 0.0
C92 C 0.86147 0.44761 0.51145 0.0
N93 N 0.88109 0.49654 0.52481 0.0
C94 C 0.8819 0.45158 0.54233 0.0
C95 C 0.85119 0.46851 0.48701 0.0
C96 C 0.89148 0.47647 0.54874 0.0
C97 C 0.86135 0.4931 0.49431 0.0
C98 C 0.85837 0.36983 0.6065 0.0
C99 C 0.87499 0.331 0.64144 0.0
N100 N 0.89557 0.34446 0.65776 0.0
C101 C 0.87954 0.38333 0.62405 0.0
C102 C 0.85595 0.34348 0.6155 0.0
C103 C 0.89821 0.37014 0.64968 0.0
C104 C 0.83114 0.43019 0.65255 0.0
N105 N 0.82952 0.44069 0.6093 0.0
C106 C 0.82723 0.48303 0.64168 0.0
C107 C 0.82723 0.46659 0.60327 0.0
C108 C 0.8297 0.47264 0.68649 0.0
C109 C 0.83141 0.44588 0.6918 0.0
H110 H 0.83203 0.40955 0.65671 0.0
H111 H 0.82515 0.47455 0.56884 0.0
C112 C 0.90659 0.39289 0.49285 0.0
N113 N 0.89012 0.37503 0.51051 0.0
C114 C 0.93306 0.38841 0.49264 0.0
C115 C 0.92526 0.34638 0.52573 0.0
C116 C 0.89883 0.35166 0.52513 0.0
C117 C 0.94275 0.36524 0.51057 0.0
H118 H 0.89929 0.41104 0.48021 0.0
H119 H 0.88544 0.33738 0.53771 0.0
C120 C 0.78055 0.42706 0.55293 0.0
N121 N 0.75179 0.46304 0.60107 0.0
C122 C 0.76809 0.4202 0.59422 0.0
C123 C 0.77831 0.45221 0.53604 0.0
C124 C 0.75368 0.43867 0.6181 0.0
C125 C 0.76367 0.47011 0.56087 0.0
C126 C 0.84166 0.35076 0.45944 0.0
C127 C 0.85773 0.35473 0.4211 0.0
C128 C 0.84057 0.32648 0.48036 0.0
C129 C 0.87263 0.33432 0.40447 0.0
C130 C 0.85573 0.30655 0.46263 0.0
N131 N 0.87134 0.31085 0.42541 0.0
C132 C 0.83171 0.42817 0.389 0.0
C133 C 0.78869 0.4371 0.41141 0.0
C134 C 0.82905 0.44339 0.34925 0.0
N135 N 0.81182 0.4256 0.41942 0.0
C136 C 0.78531 0.45287 0.37227 0.0
C137 C 0.80578 0.45634 0.34093 0.0
H138 H 0.85009 0.41941 0.39687 0.0
H139 H 0.7732 0.43488 0.43624 0.0
C140 C 0.78737 0.34957 0.61354 0.0
N141 N 0.78831 0.34906 0.56627 0.0
C142 C 0.77097 0.3331 0.63779 0.0
C143 C 0.75678 0.31539 0.5644 0.0
C144 C 0.77357 0.33234 0.54137 0.0
C145 C 0.7551 0.31596 0.61327 0.0
H146 H 0.7993 0.36304 0.6325 0.0
H147 H 0.77465 0.33232 0.50378 0.0
O148 O 0.85197 0.42332 0.5045 0.0
O149 O 0.83998 0.3824 0.58106 0.0
O150 O 0.79516 0.40937 0.52954 0.0
O151 O 0.82732 0.37059 0.4769 0.0
H152 H 0.89028 0.43562 0.56112 0.0
H153 H 0.83534 0.4659 0.4631 0.0
H154 H 0.9072 0.47983 0.57268 0.0
H155 H 0.85348 0.50945 0.47584 0.0
H156 H 0.87346 0.31058 0.64838 0.0
H157 H 0.88155 0.40376 0.61786 0.0
H158 H 0.83977 0.33268 0.60201 0.0
H159 H 0.91479 0.38031 0.66318 0.0
H160 H 0.82557 0.50362 0.63646 0.0
H161 H 0.83266 0.43719 0.72601 0.0
H162 H 0.94588 0.4034 0.48032 0.0
H163 H 0.93195 0.32797 0.53866 0.0
H164 H 0.76964 0.40087 0.60786 0.0
H165 H 0.78824 0.45803 0.50469 0.0
H166 H 0.74403 0.43364 0.6502 0.0
H167 H 0.76194 0.48969 0.54837 0.0
H168 H 0.85886 0.37343 0.40464 0.0
H169 H 0.82836 0.32315 0.51028 0.0
H170 H 0.88527 0.33714 0.37498 0.0
H171 H 0.85518 0.28769 0.4786 0.0
H172 H 0.84543 0.44596 0.32637 0.0
H173 H 0.76709 0.4626 0.36696 0.0
H174 H 0.77071 0.33377 0.67546 0.0
H175 H 0.74487 0.30238 0.54427 0.0
Li176 Li 0.58543 0.82629 0.81348 0.0
Li177 Li 0.61581 0.85501 0.76752 0.0
Li178 Li 0.59022 0.81977 0.72919 0.0
Li179 Li 0.62491 0.80985 0.78181 0.0
C180 C 0.55202 0.85473 0.75384 0.0
N181 N 0.50055 0.86187 0.73339 0.0
C182 C 0.54346 0.87842 0.73682 0.0
C183 C 0.53446 0.83465 0.76046 0.0
C184 C 0.51733 0.88166 0.72671 0.0
C185 C 0.50851 0.83865 0.7499 0.0
C186 C 0.63937 0.83369 0.8605 0.0
C187 C 0.68352 0.83727 0.88579 0.0
N188 N 0.67777 0.8232 0.92434 0.0
C189 C 0.63381 0.81957 0.90068 0.0
C190 C 0.66434 0.84289 0.85323 0.0
C191 C 0.65352 0.81436 0.93243 0.0
C192 C 0.56138 0.80338 0.88976 0.0
N193 N 0.56307 0.82554 0.86482 0.0
C194 C 0.53487 0.84709 0.91742 0.0
C195 C 0.55015 0.84716 0.87751 0.0
C196 C 0.53338 0.82471 0.94481 0.0
C197 C 0.54658 0.80255 0.93022 0.0
H198 H 0.57208 0.78658 0.87879 0.0
H199 H 0.55196 0.86449 0.85689 0.0
C200 C 0.62972 0.90153 0.72134 0.0
N201 N 0.62649 0.88988 0.7633 0.0
C202 C 0.63446 0.92802 0.71899 0.0
C203 C 0.63298 0.92978 0.80302 0.0
C204 C 0.62839 0.90329 0.80375 0.0
C205 C 0.6355 0.94258 0.76021 0.0
H206 H 0.62792 0.89036 0.68972 0.0
H207 H 0.62542 0.89353 0.83657 0.0
C208 C 0.58967 0.76909 0.76347 0.0
N209 N 0.58885 0.71921 0.73016 0.0
C210 C 0.60767 0.76119 0.73033 0.0
C211 C 0.57134 0.75161 0.77994 0.0
C212 C 0.60694 0.7359 0.71386 0.0
C213 C 0.5712 0.72649 0.76258 0.0
C214 C 0.65135 0.82724 0.70198 0.0
C215 C 0.65644 0.80904 0.66734 0.0
C216 C 0.6708 0.84414 0.71603 0.0
C217 C 0.68116 0.80758 0.6483 0.0
C218 C 0.69525 0.84211 0.69607 0.0
N219 N 0.6999 0.82399 0.66297 0.0
C220 C 0.56699 0.83491 0.64622 0.0
C221 C 0.55617 0.79198 0.6662 0.0
C222 C 0.54935 0.83461 0.60949 0.0
N223 N 0.56982 0.81395 0.67416 0.0
C224 C 0.53864 0.79069 0.62925 0.0
C225 C 0.53477 0.81237 0.60093 0.0
H226 H 0.57771 0.85229 0.65376 0.0
H227 H 0.55803 0.77574 0.68933 0.0
C228 C 0.64204 0.76951 0.83569 0.0
N229 N 0.65091 0.7857 0.80207 0.0
C230 C 0.65891 0.75359 0.86005 0.0
C231 C 0.6939 0.7701 0.81339 0.0
C232 C 0.6763 0.78604 0.79015 0.0
C233 C 0.68525 0.75413 0.84962 0.0
H234 H 0.6219 0.7699 0.84525 0.0
H235 H 0.68317 0.79927 0.76404 0.0
O236 O 0.57762 0.85103 0.76278 0.0
O237 O 0.62049 0.83834 0.82832 0.0
O238 O 0.59009 0.79369 0.78034 0.0
O239 O 0.62717 0.82915 0.7206 0.0
H240 H 0.55689 0.89408 0.73126 0.0
H241 H 0.54084 0.8161 0.77321 0.0
H242 H 0.51041 0.89989 0.71345 0.0
H243 H 0.49471 0.82327 0.75472 0.0
H244 H 0.70299 0.84408 0.88038 0.0
H245 H 0.61459 0.81237 0.90697 0.0
H246 H 0.66891 0.85414 0.8227 0.0
H247 H 0.64955 0.8032 0.96341 0.0
H248 H 0.52441 0.86437 0.92678 0.0
H249 H 0.54593 0.78495 0.95042 0.0
H250 H 0.63677 0.93708 0.68531 0.0
H251 H 0.63347 0.9403 0.83554 0.0
H252 H 0.62212 0.7744 0.71774 0.0
H253 H 0.55731 0.75746 0.80573 0.0
H254 H 0.62076 0.72952 0.68817 0.0
H255 H 0.55708 0.71277 0.77488 0.0
H256 H 0.64144 0.79628 0.65501 0.0
H257 H 0.66711 0.85869 0.74201 0.0
H258 H 0.6854 0.79349 0.62167 0.0
H259 H 0.71052 0.85497 0.70686 0.0
H260 H 0.54685 0.85172 0.58838 0.0
H261 H 0.52746 0.77331 0.62402 0.0
H262 H 0.6515 0.74131 0.88746 0.0
H263 H 0.71415 0.77096 0.80445 0.0
Li264 Li 0.14293 0.61445 0.02321 0.0
Li265 Li 0.17462 0.58426 0.06525 0.0
Li266 Li 0.18805 0.6266 0.03623 0.0
Li267 Li 0.17816 0.59285 0.98156 0.0
C268 C 0.16191 0.64013 0.11132 0.0
N269 N 0.16575 0.68416 0.16481 0.0
C270 C 0.17672 0.64006 0.15194 0.0
C271 C 0.14893 0.66253 0.09804 0.0
C272 C 0.17848 0.66254 0.17844 0.0
C273 C 0.15111 0.68459 0.12557 0.0
C274 C 0.14069 0.55626 0.99087 0.0
C275 C 0.14769 0.51363 0.9601 0.0
N276 N 0.12497 0.51524 0.93668 0.0
C277 C 0.11733 0.55742 0.9668 0.0
C278 C 0.15591 0.53412 0.98787 0.0
C279 C 0.10974 0.53649 0.93951 0.0
C280 C 0.0964 0.63262 0.98234 0.0
N281 N 0.10775 0.62412 0.0221 0.0
C282 C 0.0675 0.62499 0.06235 0.0
C283 C 0.09401 0.62053 0.06181 0.0
C284 C 0.05503 0.63299 0.02148 0.0
C285 C 0.06987 0.63727 0.98128 0.0
H286 H 0.10786 0.63518 0.95123 0.0
H287 H 0.10359 0.61356 0.09278 0.0
C288 C 0.19596 0.56561 0.14763 0.0
N289 N 0.17802 0.56066 0.1144 0.0
C290 C 0.19782 0.54975 0.18667 0.0
C291 C 0.16345 0.52345 0.15533 0.0
C292 C 0.16198 0.54004 0.11725 0.0
C293 C 0.18133 0.52849 0.19075 0.0
H294 H 0.2085 0.58213 0.14409 0.0
H295 H 0.14773 0.5368 0.09046 0.0
C296 C 0.18076 0.64455 0.9465 0.0
N297 N 0.20849 0.67467 0.88511 0.0
C298 C 0.20512 0.63667 0.93157 0.0
C299 C 0.17049 0.66774 0.93027 0.0
C300 C 0.21884 0.65216 0.90049 0.0
C301 C 0.18481 0.68271 0.89924 0.0
C302 C 0.22801 0.58035 0.02443 0.0
C303 C 0.24989 0.59336 0.00854 0.0
C304 C 0.22955 0.55413 0.03508 0.0
C305 C 0.2729 0.57979 0.00291 0.0
C306 C 0.25293 0.54125 0.029 0.0
N307 N 0.27393 0.55423 0.01313 0.0
C308 C 0.23004 0.64594 0.08433 0.0
C309 C 0.20603 0.67906 0.04776 0.0
C310 C 0.24569 0.66401 0.10642 0.0
N311 N 0.2106 0.65366 0.05589 0.0
C312 C 0.22123 0.69789 0.06941 0.0
C313 C 0.24126 0.6904 0.09952 0.0
H314 H 0.2328 0.62566 0.09121 0.0
H315 H 0.18998 0.68473 0.02607 0.0
C316 C 0.16437 0.57489 0.89267 0.0
N317 N 0.18452 0.5754 0.92298 0.0
C318 C 0.16474 0.55839 0.85423 0.0
C319 C 0.20768 0.54518 0.87591 0.0
C320 C 0.20626 0.56149 0.91455 0.0
C321 C 0.18643 0.54297 0.84611 0.0
H322 H 0.14738 0.58625 0.89984 0.0
H323 H 0.22218 0.56215 0.93847 0.0
O324 O 0.16075 0.61866 0.08388 0.0
O325 O 0.14874 0.57684 0.01677 0.0
O326 O 0.16717 0.63003 0.97766 0.0
O327 O 0.20536 0.59337 0.03034 0.0
H328 H 0.18698 0.62293 0.1626 0.0
H329 H 0.13761 0.66299 0.06642 0.0
H330 H 0.19004 0.66283 0.20976 0.0
H331 H 0.14129 0.70212 0.11557 0.0
H332 H 0.1594 0.49649 0.95706 0.0
H333 H 0.10531 0.57442 0.96882 0.0
H334 H 0.17404 0.53294 0.00626 0.0
H335 H 0.09179 0.53717 0.92044 0.0
H336 H 0.05672 0.62132 0.09393 0.0
H337 H 0.061 0.64378 0.94926 0.0
H338 H 0.21182 0.5541 0.2135 0.0
H339 H 0.15025 0.50734 0.15784 0.0
H340 H 0.21338 0.61884 0.9439 0.0
H341 H 0.15169 0.67415 0.94177 0.0
H342 H 0.23773 0.6463 0.88865 0.0
H343 H 0.17713 0.70073 0.88645 0.0
H344 H 0.24911 0.61373 1.00061 0.0
H345 H 0.2129 0.5438 0.04779 0.0
H346 H 0.28996 0.58958 0.99046 0.0
H347 H 0.25438 0.52094 0.03692 0.0
H348 H 0.26094 0.65739 0.12918 0.0
H349 H 0.2168 0.71803 0.0639 0.0
H350 H 0.14804 0.55722 0.83172 0.0
H351 H 0.22473 0.53354 0.87054 0.0
Li352 Li 0.40713 0.82698 0.31947 0.0
Li353 Li 0.37313 0.81355 0.26352 0.0
Li354 Li 0.41356 0.82924 0.23677 0.0
Li355 Li 0.38451 0.8587 0.27194 0.0
C356 C 0.42801 0.78303 0.26245 0.0
N357 N 0.47001 0.75399 0.23541 0.0
C358 C 0.42501 0.76313 0.23017 0.0
C359 C 0.45235 0.78808 0.28114 0.0
C360 C 0.44649 0.7487 0.21688 0.0
C361 C 0.47334 0.77319 0.26701 0.0
C362 C 0.35752 0.82253 0.35596 0.0
C363 C 0.32867 0.82103 0.42167 0.0
N364 N 0.33387 0.79552 0.42697 0.0
C365 C 0.36257 0.79629 0.36202 0.0
C366 C 0.34044 0.83501 0.38598 0.0
C367 C 0.35043 0.78299 0.39815 0.0
C368 C 0.4352 0.84322 0.39686 0.0
N369 N 0.42459 0.82186 0.37741 0.0
C370 C 0.44503 0.79504 0.43425 0.0
C371 C 0.42881 0.79806 0.39566 0.0
C372 C 0.45734 0.81668 0.45367 0.0
C373 C 0.45174 0.84107 0.43498 0.0
H374 H 0.4315 0.8619 0.38165 0.0
H375 H 0.42029 0.78133 0.37935 0.0
C376 C 0.35259 0.77925 0.20224 0.0
N377 N 0.34679 0.79017 0.2439 0.0
C378 C 0.3347 0.76383 0.17927 0.0
C379 C 0.30485 0.77096 0.24246 0.0
C380 C 0.32344 0.78639 0.26436 0.0
C381 C 0.3103 0.75982 0.19892 0.0
H382 H 0.37099 0.78324 0.18614 0.0
H383 H 0.31893 0.79589 0.29681 0.0
C384 C 0.43466 0.87617 0.2635 0.0
N385 N 0.45997 0.91756 0.22379 0.0
C386 C 0.42911 0.88361 0.21781 0.0
C387 C 0.45321 0.88972 0.28886 0.0
C388 C 0.44207 0.9046 0.1984 0.0
C389 C 0.46576 0.91061 0.26821 0.0
C390 C 0.35612 0.84539 0.19423 0.0
C391 C 0.35363 0.84667 0.14586 0.0
C392 C 0.33469 0.85027 0.22239 0.0
C393 C 0.32975 0.85281 0.12643 0.0
C394 C 0.31114 0.85634 0.20161 0.0
N395 N 0.30917 0.85747 0.15447 0.0
C396 C 0.42801 0.81866 0.14566 0.0
C397 C 0.46317 0.82969 0.19447 0.0
C398 C 0.44418 0.81747 0.10705 0.0
N399 N 0.43765 0.82513 0.18798 0.0
C400 C 0.48012 0.82843 0.15686 0.0
C401 C 0.47052 0.82285 0.11226 0.0
H402 H 0.40763 0.81496 0.14179 0.0
H403 H 0.47027 0.8347 0.22867 0.0
C404 C 0.372 0.90704 0.31156 0.0
N405 N 0.37349 0.89389 0.27074 0.0
C406 C 0.3677 0.93364 0.31148 0.0
C407 C 0.36588 0.93249 0.22749 0.0
C408 C 0.37023 0.90602 0.22917 0.0
C409 C 0.36498 0.94673 0.26894 0.0
H410 H 0.37519 0.89701 0.34406 0.0
H411 H 0.37211 0.89541 0.19706 0.0
O412 O 0.40733 0.79774 0.27523 0.0
O413 O 0.36914 0.83613 0.321 0.0
O414 O 0.42225 0.85565 0.28341 0.0
O415 O 0.37935 0.83888 0.21353 0.0
H416 H 0.40632 0.75884 0.21552 0.0
H417 H 0.45513 0.80365 0.30562 0.0
H418 H 0.44445 0.73328 0.19183 0.0
H419 H 0.49232 0.777 0.28097 0.0
H420 H 0.3154 0.83045 0.44517 0.0
H421 H 0.37556 0.7862 0.33905 0.0
H422 H 0.33633 0.85532 0.38171 0.0
H423 H 0.35414 0.76269 0.40322 0.0
H424 H 0.44818 0.77594 0.44823 0.0
H425 H 0.46078 0.85829 0.44861 0.0
H426 H 0.33989 0.75523 0.14624 0.0
H427 H 0.2862 0.76834 0.25867 0.0
H428 H 0.41499 0.87331 0.1974 0.0
H429 H 0.45793 0.88415 0.32411 0.0
H430 H 0.43791 0.91056 0.16311 0.0
H431 H 0.48013 0.92128 0.28748 0.0
H432 H 0.36999 0.84294 0.12354 0.0
H433 H 0.33611 0.84933 0.25985 0.0
H434 H 0.32756 0.85385 0.08904 0.0
H435 H 0.29442 0.86013 0.22298 0.0
H436 H 0.43604 0.8131 0.07326 0.0
H437 H 0.50042 0.83202 0.16254 0.0
H438 H 0.36768 0.944 0.34418 0.0
H439 H 0.36392 0.94187 0.194 0.0
Li440 Li 0.1764 0.40856 0.57232 0.0
Li441 Li 0.18731 0.37353 0.52033 0.0
Li442 Li 0.1718 0.41312 0.48705 0.0
Li443 Li 0.14198 0.38302 0.53086 0.0
C444 C 0.22791 0.41005 0.53983 0.0
N445 N 0.27778 0.4138 0.57262 0.0
C446 C 0.23784 0.39103 0.56919 0.0
C447 C 0.24335 0.43091 0.52694 0.0
C448 C 0.26311 0.39328 0.58542 0.0
C449 C 0.2685 0.4325 0.54399 0.0
C450 C 0.1692 0.34777 0.59909 0.0
C451 C 0.15515 0.30372 0.60708 0.0
N452 N 0.17405 0.29961 0.639 0.0
C453 C 0.18825 0.34323 0.63247 0.0
C454 C 0.15231 0.32797 0.58664 0.0
C455 C 0.19049 0.3187 0.65203 0.0
C456 C 0.15946 0.43725 0.64882 0.0
N457 N 0.18147 0.42893 0.628 0.0
C458 C 0.2068 0.45444 0.68034 0.0
C459 C 0.20494 0.43684 0.6436 0.0
C460 C 0.18431 0.46453 0.70064 0.0
C461 C 0.16041 0.45525 0.68492 0.0
H462 H 0.141 0.43062 0.63612 0.0
H463 H 0.22229 0.43005 0.6272 0.0
C464 C 0.22833 0.35609 0.46861 0.0
N465 N 0.212 0.34747 0.50221 0.0
C466 C 0.24491 0.33916 0.44586 0.0
C467 C 0.22854 0.30465 0.4938 0.0
C468 C 0.21202 0.32229 0.5155 0.0
C469 C 0.24494 0.31303 0.45796 0.0
H470 H 0.22765 0.37605 0.45796 0.0
H471 H 0.19857 0.31555 0.54133 0.0
C472 C 0.14281 0.4474 0.54047 0.0
N473 N 0.13634 0.49988 0.55064 0.0
C474 C 0.11821 0.45763 0.5472 0.0
C475 C 0.16414 0.46384 0.53884 0.0
C476 C 0.11534 0.48423 0.55227 0.0
C477 C 0.16045 0.49032 0.54409 0.0
C478 C 0.16628 0.35937 0.4396 0.0
C479 C 0.17883 0.36599 0.39826 0.0
C480 C 0.1606 0.33354 0.44873 0.0
C481 C 0.18588 0.3466 0.36709 0.0
C482 C 0.16798 0.31471 0.41669 0.0
N483 N 0.1804 0.32157 0.37691 0.0
C484 C 0.1973 0.43697 0.41331 0.0
C485 C 0.15351 0.44932 0.42165 0.0
C486 C 0.19976 0.45218 0.37355 0.0
N487 N 0.17438 0.43569 0.43604 0.0
C488 C 0.15525 0.46513 0.38253 0.0
C489 C 0.17849 0.46634 0.35781 0.0
H490 H 0.21347 0.42572 0.42556 0.0
H491 H 0.13547 0.44765 0.44019 0.0
C492 C 0.0917 0.38158 0.56771 0.0
N493 N 0.10695 0.37241 0.53304 0.0
C494 C 0.06514 0.37715 0.56679 0.0
C495 C 0.07066 0.3533 0.49527 0.0
C496 C 0.09706 0.35831 0.49743 0.0
C497 C 0.05426 0.36311 0.52986 0.0
H498 H 0.10006 0.39324 0.59503 0.0
H499 H 0.10949 0.35175 0.46975 0.0
O500 O 0.20338 0.40812 0.52289 0.0
O501 O 0.16652 0.37171 0.57996 0.0
O502 O 0.14596 0.42138 0.53592 0.0
O503 O 0.15995 0.37804 0.47124 0.0
H504 H 0.22619 0.37475 0.57934 0.0
H505 H 0.23593 0.44574 0.50408 0.0
H506 H 0.27104 0.37872 0.6082 0.0
H507 H 0.28065 0.44857 0.53442 0.0
H508 H 0.14232 0.28817 0.59757 0.0
H509 H 0.20109 0.35851 0.6433 0.0
H510 H 0.13718 0.33126 0.56149 0.0
H511 H 0.20524 0.31486 0.67771 0.0
H512 H 0.22569 0.46021 0.69236 0.0
H513 H 0.14253 0.46239 0.69938 0.0
H514 H 0.25733 0.34638 0.41851 0.0
H515 H 0.22778 0.28453 0.50367 0.0
H516 H 0.10154 0.44512 0.54861 0.0
H517 H 0.18333 0.45624 0.53375 0.0
H518 H 0.09641 0.49244 0.55755 0.0
H519 H 0.17677 0.50327 0.543 0.0
H520 H 0.18329 0.38586 0.39049 0.0
H521 H 0.15101 0.32802 0.4806 0.0
H522 H 0.19579 0.35144 0.33515 0.0
H523 H 0.16395 0.29462 0.42358 0.0
H524 H 0.21798 0.45285 0.35522 0.0
H525 H 0.13848 0.47579 0.371 0.0
H526 H 0.05315 0.38569 0.59347 0.0
H527 H 0.06303 0.34247 0.46615 0.0
Li528 Li 0.62542 0.18811 0.77175 0.0
Li529 Li 0.59051 0.17396 0.81956 0.0
Li530 Li 0.61833 0.14146 0.77638 0.0
Li531 Li 0.58696 0.17116 0.73666 0.0
C532 C 0.65133 0.17237 0.84592 0.0
N533 N 0.69869 0.18672 0.88115 0.0
C534 C 0.65417 0.19601 0.86853 0.0
C535 C 0.67247 0.15589 0.84159 0.0
C536 C 0.67831 0.20297 0.88595 0.0
C537 C 0.69628 0.16352 0.8596 0.0
C538 C 0.57766 0.22057 0.8 0.0
C539 C 0.53815 0.23807 0.83081 0.0
N540 N 0.55198 0.25564 0.85547 0.0
C541 C 0.59148 0.23884 0.82557 0.0
C542 C 0.55077 0.22024 0.80245 0.0
C543 C 0.57814 0.25642 0.85338 0.0
C544 C 0.6424 0.23588 0.73856 0.0
N545 N 0.65146 0.21348 0.75688 0.0
C546 C 0.69456 0.22495 0.73536 0.0
C547 C 0.67707 0.20785 0.75589 0.0
C548 C 0.68561 0.24802 0.71561 0.0
C549 C 0.65917 0.2535 0.71788 0.0
H550 H 0.62191 0.23945 0.73759 0.0
H551 H 0.68381 0.18947 0.76847 0.0
C552 C 0.54813 0.16372 0.87723 0.0
N553 N 0.57002 0.17804 0.87519 0.0
C554 C 0.5311 0.16629 0.91443 0.0
C555 C 0.55967 0.19787 0.94816 0.0
C556 C 0.57625 0.19467 0.91005 0.0
C557 C 0.5366 0.1837 0.9504 0.0
H558 H 0.5437 0.15032 0.84979 0.0
H559 H 0.59391 0.20564 0.9081 0.0
C560 C 0.63919 0.17066 0.68703 0.0
N561 N 0.67338 0.18916 0.62141 0.0
C562 C 0.63166 0.19018 0.65643 0.0
C563 C 0.664 0.16038 0.68404 0.0
C564 C 0.64926 0.19933 0.62358 0.0
C565 C 0.68102 0.17002 0.65063 0.0
C566 C 0.56019 0.13027 0.76111 0.0
C567 C 0.5642 0.10543 0.74381 0.0
C568 C 0.53604 0.14186 0.75579 0.0
C569 C 0.54412 0.09276 0.7209 0.0
C570 C 0.51648 0.12858 0.7326 0.0
N571 N 0.52089 0.10451 0.71575 0.0
C572 C 0.63078 0.09263 0.81386 0.0
C573 C 0.6366 0.0969 0.73235 0.0
C574 C 0.63494 0.06607 0.81107 0.0
N575 N 0.63113 0.10727 0.77464 0.0
C576 C 0.64078 0.07045 0.72797 0.0
C577 C 0.63914 0.05462 0.76746 0.0
H578 H 0.6259 0.10138 0.84686 0.0
H579 H 0.63618 0.10892 0.70163 0.0
C580 C 0.55144 0.19471 0.67543 0.0
N581 N 0.5658 0.1733 0.68343 0.0
C582 C 0.53622 0.19638 0.63554 0.0
C583 C 0.55105 0.154 0.61301 0.0
C584 C 0.56617 0.15327 0.65303 0.0
C585 C 0.53596 0.17581 0.60391 0.0
H586 H 0.55193 0.21053 0.69983 0.0
H587 H 0.57822 0.13673 0.66002 0.0
O588 O 0.62789 0.16518 0.82865 0.0
O589 O 0.5904 0.20286 0.77329 0.0
O590 O 0.62252 0.16203 0.72039 0.0
O591 O 0.57976 0.14318 0.78307 0.0
H592 H 0.63795 0.2089 0.87235 0.0
H593 H 0.67055 0.13749 0.82426 0.0
H594 H 0.68085 0.22128 0.90329 0.0
H595 H 0.71285 0.15103 0.85635 0.0
H596 H 0.51736 0.2379 0.83331 0.0
H597 H 0.61229 0.23931 0.82436 0.0
H598 H 0.53976 0.20618 0.78313 0.0
H599 H 0.5886 0.27058 0.8735 0.0
H600 H 0.71478 0.2199 0.7339 0.0
H601 H 0.65135 0.27069 0.70188 0.0
H602 H 0.51356 0.15498 0.91469 0.0
H603 H 0.56495 0.2111 0.97566 0.0
H604 H 0.61257 0.19847 0.65853 0.0
H605 H 0.67018 0.14541 0.70776 0.0
H606 H 0.64379 0.21459 0.59994 0.0
H607 H 0.70036 0.1624 0.64813 0.0
H608 H 0.58256 0.09597 0.74795 0.0
H609 H 0.53255 0.16107 0.76881 0.0
H610 H 0.54703 0.07357 0.70721 0.0
H611 H 0.4978 0.13743 0.72788 0.0
H612 H 0.63339 0.05443 0.84223 0.0
H613 H 0.64421 0.06232 0.69382 0.0
H614 H 0.52464 0.21342 0.62962 0.0
H615 H 0.55139 0.13788 0.58909 0.0
Li616 Li 0.80928 0.626 0.01911 0.0
Li617 Li 0.82138 0.58997 0.06708 0.0
Li618 Li 0.85555 0.61861 0.02861 0.0
Li619 Li 0.82721 0.5882 0.98371 0.0
C620 C 0.82126 0.64884 0.10006 0.0
N621 N 0.80354 0.69268 0.14391 0.0
C622 C 0.79683 0.64906 0.12044 0.0
C623 C 0.83682 0.67077 0.10234 0.0
C624 C 0.78817 0.67147 0.14229 0.0
C625 C 0.82748 0.69278 0.12464 0.0
C626 C 0.77425 0.57889 0.03832 0.0
C627 C 0.75269 0.53996 0.06246 0.0
N628 N 0.73336 0.55433 0.08102 0.0
C629 C 0.75415 0.59328 0.05758 0.0
C630 C 0.7735 0.55201 0.04062 0.0
C631 C 0.73364 0.5805 0.07899 0.0
C632 C 0.76554 0.64328 0.97366 0.0
N633 N 0.78436 0.6521 0.00252 0.0
C634 C 0.77107 0.69564 0.98885 0.0
C635 C 0.78727 0.67777 0.01068 0.0
C636 C 0.75207 0.68697 0.95779 0.0
C637 C 0.74918 0.66043 0.95081 0.0
H638 H 0.76413 0.62292 0.96633 0.0
H639 H 0.80305 0.68458 0.03173 0.0
C640 C 0.83457 0.55051 0.12894 0.0
N641 N 0.81584 0.56825 0.1208 0.0
C642 C 0.83176 0.53227 0.1642 0.0
C643 C 0.7908 0.55132 0.18395 0.0
C644 C 0.79452 0.56943 0.14834 0.0
C645 C 0.80935 0.53205 0.19153 0.0
H646 H 0.85174 0.55035 0.1078 0.0
H647 H 0.78014 0.58407 0.14221 0.0
C648 C 0.83028 0.6426 0.93934 0.0
N649 N 0.8152 0.68064 0.87795 0.0
C650 C 0.81452 0.63652 0.90147 0.0
C651 C 0.83859 0.66795 0.94578 0.0
C652 C 0.80704 0.65606 0.87089 0.0
C653 C 0.83072 0.68692 0.91437 0.0
C654 C 0.86585 0.55992 0.01257 0.0
C655 C 0.89033 0.56351 0.99335 0.0
C656 C 0.85418 0.53569 0.01023 0.0
C657 C 0.9026 0.54283 0.97158 0.0
C658 C 0.86706 0.51551 0.98808 0.0
N659 N 0.89079 0.51947 0.96934 0.0
C660 C 0.90426 0.6265 0.0702 0.0
C661 C 0.90097 0.63921 0.99115 0.0
C662 C 0.93096 0.63003 0.0692 0.0
N663 N 0.89002 0.63061 0.03121 0.0
C664 C 0.92755 0.64303 0.98865 0.0
C665 C 0.94298 0.63758 0.02756 0.0
H666 H 0.89507 0.61911 0.10123 0.0
H667 H 0.88928 0.64173 0.96037 0.0
C668 C 0.80659 0.55233 0.91965 0.0
N669 N 0.82713 0.56754 0.9298 0.0
C670 C 0.8068 0.53709 0.87968 0.0
C671 C 0.8491 0.55385 0.86126 0.0
C672 C 0.84796 0.56893 0.90129 0.0
C673 C 0.82839 0.53759 0.85036 0.0
H674 H 0.79008 0.55206 0.94249 0.0
H675 H 0.86371 0.58171 0.90984 0.0
O676 O 0.83015 0.62711 0.07874 0.0
O677 O 0.7945 0.59103 0.01716 0.0
O678 O 0.83713 0.6239 0.97047 0.0
O679 O 0.85321 0.5801 0.033 0.0
H680 H 0.78468 0.63214 0.1192 0.0
H681 H 0.85583 0.67079 0.08686 0.0
H682 H 0.76925 0.67199 0.158 0.0
H683 H 0.83924 0.70994 0.12654 0.0
H684 H 0.75194 0.51918 0.06473 0.0
H685 H 0.75445 0.6141 0.05639 0.0
H686 H 0.78893 0.54057 0.02609 0.0
H687 H 0.718 0.59139 0.09417 0.0
H688 H 0.77417 0.71603 0.99441 0.0
H689 H 0.73478 0.65303 0.92701 0.0
H690 H 0.84706 0.51847 0.17002 0.0
H691 H 0.7734 0.55208 0.20468 0.0
H692 H 0.80784 0.61699 0.89616 0.0
H693 H 0.85064 0.67297 0.97516 0.0
H694 H 0.79464 0.6517 0.84168 0.0
H695 H 0.83681 0.70667 0.91912 0.0
H696 H 0.89968 0.58209 0.99481 0.0
H697 H 0.83525 0.53259 0.02493 0.0
H698 H 0.92148 0.54537 0.95632 0.0
H699 H 0.85816 0.49672 0.9857 0.0
H700 H 0.94224 0.6255 0.09985 0.0
H701 H 0.93607 0.64921 0.9561 0.0
H702 H 0.79046 0.52482 0.87204 0.0
H703 H 0.86584 0.55502 0.83886 0.0
C704 C 0.48681 0.15758 0.51246 0.0
C705 C 0.48855 0.17795 0.4803 0.0
C706 C 0.50226 0.15702 0.55234 0.0
C707 C 0.51987 0.17691 0.56162 0.0
H708 H 0.47316 0.14208 0.50707 0.0
H709 H 0.50021 0.14108 0.5764 0.0
S710 S 0.5332 0.23364 0.48713 0.0
N711 N 0.51031 0.21781 0.45929 0.0
N712 N 0.53908 0.21692 0.53486 0.0
C713 C 0.52199 0.19729 0.52973 0.0
C714 C 0.50639 0.19778 0.48892 0.0
C715 C 0.80992 0.50707 0.73538 0.0
C716 C 0.8301 0.48954 0.72776 0.0
C717 C 0.80942 0.52252 0.77533 0.0
C718 C 0.82929 0.52118 0.80848 0.0
H719 H 0.7942 0.50851 0.7107 0.0
H720 H 0.79349 0.53572 0.78021 0.0
S721 S 0.88663 0.47875 0.80415 0.0
N722 N 0.87055 0.47195 0.7561 0.0
N723 N 0.86963 0.50107 0.83121 0.0
C724 C 0.8497 0.50394 0.80099 0.0
C725 C 0.85008 0.48807 0.76062 0.0
C726 C 0.48616 0.80331 0.03791 0.0
C727 C 0.48758 0.82327 0.0709 0.0
C728 C 0.50117 0.80384 0.99745 0.0
C729 C 0.51812 0.82438 0.98841 0.0
H730 H 0.47331 0.78715 0.04336 0.0
H731 H 0.49917 0.78824 0.97269 0.0
S732 S 0.52943 0.88111 0.06424 0.0
N733 N 0.50726 0.86418 0.09183 0.0
N734 N 0.53619 0.86469 0.0166 0.0
C735 C 0.52002 0.84427 0.02145 0.0
C736 C 0.50463 0.8438 0.06253 0.0
C737 C 0.17589 0.5086 0.317 0.0
C738 C 0.18029 0.48194 0.31509 0.0
C739 C 0.1769 0.52366 0.2766 0.0
C740 C 0.18182 0.5124 0.23302 0.0
H741 H 0.17168 0.51783 0.34994 0.0
H742 H 0.17324 0.54415 0.27927 0.0
S743 S 0.19457 0.44342 0.2097 0.0
N744 N 0.18999 0.4449 0.26653 0.0
N745 N 0.19138 0.47321 0.19029 0.0
C746 C 0.18628 0.48579 0.2307 0.0
C747 C 0.18567 0.47053 0.27189 0.0
C748 C 0.27707 0.27818 0.3571 0.0
C749 C 0.29508 0.2622 0.37944 0.0
C750 C 0.2607 0.2943 0.38285 0.0
C751 C 0.26149 0.29471 0.43185 0.0
H752 H 0.2761 0.27873 0.31946 0.0
H753 H 0.24738 0.30664 0.36426 0.0
S754 S 0.30418 0.25532 0.50687 0.0
N755 N 0.31201 0.2469 0.45329 0.0
N756 N 0.2812 0.27712 0.50164 0.0
C757 C 0.27888 0.27825 0.45458 0.0
C758 C 0.29571 0.26204 0.42838 0.0
C759 C 0.73642 0.2723 0.63053 0.0
C760 C 0.73685 0.299 0.63893 0.0
C761 C 0.72011 0.2559 0.65597 0.0
C762 C 0.70343 0.26562 0.6904 0.0
H763 H 0.74906 0.26399 0.60458 0.0
H764 H 0.72031 0.23549 0.64819 0.0
S765 S 0.69675 0.33412 0.72496 0.0
N766 N 0.71871 0.33445 0.68341 0.0
N767 N 0.68839 0.30365 0.73146 0.0
C768 C 0.70355 0.29229 0.69885 0.0
C769 C 0.72019 0.30894 0.67312 0.0
C770 C 0.73498 0.70353 0.88193 0.0
C771 C 0.73605 0.70536 0.93081 0.0
C772 C 0.71913 0.71992 0.85565 0.0
C773 C 0.70349 0.73842 0.87742 0.0
H774 H 0.74643 0.68922 0.86391 0.0
H775 H 0.71857 0.71765 0.81819 0.0
S776 S 0.69991 0.75165 0.00408 0.0
N777 N 0.72073 0.72771 0.99968 0.0
N778 N 0.69075 0.75834 0.95038 0.0
C779 C 0.70474 0.74076 0.92613 0.0
C780 C 0.72109 0.72431 0.95281 0.0
C781 C 0.26211 0.70658 0.17272 0.0
C782 C 0.25725 0.70969 0.12478 0.0
C783 C 0.27855 0.7234 0.19685 0.0
C784 C 0.29091 0.74387 0.17391 0.0
H785 H 0.25333 0.69083 0.1917 0.0
H786 H 0.28224 0.71984 0.2334 0.0
S787 S 0.28344 0.76147 0.04943 0.0
N788 N 0.26543 0.73549 0.05576 0.0
N789 N 0.29587 0.76736 0.10124 0.0
C790 C 0.28555 0.74773 0.12638 0.0
C791 C 0.2688 0.73063 0.10182 0.0
C792 C 0.37988 0.98907 0.23737 0.0
C793 C 0.36341 0.97529 0.26728 0.0
C794 C 0.37973 0.01603 0.23621 0.0
C795 C 0.3631 0.03033 0.26494 0.0
H796 H 0.39351 0.97894 0.21548 0.0
H797 H 0.39329 0.02576 0.21359 0.0
S798 S 0.31452 0.0035 0.34632 0.0
N799 N 0.32889 0.9779 0.32418 0.0
N800 N 0.32857 0.02868 0.32201 0.0
C801 C 0.34607 0.01681 0.2942 0.0
C802 C 0.34625 0.98929 0.29539 0.0
C803 C 0.98727 0.36755 0.47741 0.0
C804 C 0.97102 0.36164 0.51509 0.0
C805 C 0.01412 0.36709 0.48218 0.0
C806 C 0.02582 0.36085 0.52493 0.0
H807 H 0.97913 0.37307 0.44415 0.0
H808 H 0.02578 0.37258 0.45254 0.0
S809 S 0.99191 0.34266 0.63372 0.0
N810 N 0.96854 0.34862 0.59625 0.0
N811 N 0.01907 0.34728 0.60499 0.0
C812 C 0.00981 0.35412 0.56252 0.0
C813 C 0.98242 0.35455 0.55762 0.0
C814 C 0.6547 0.98404 0.78913 0.0
C815 C 0.63763 0.97115 0.75894 0.0
C816 C 0.65552 0.01105 0.79109 0.0
C817 C 0.63941 0.02615 0.76276 0.0
H818 H 0.66736 0.97315 0.81173 0.0
H819 H 0.66873 0.02019 0.81516 0.0
S820 S 0.59018 0.00199 0.68 0.0
N821 N 0.60351 0.9757 0.70152 0.0
N822 N 0.60526 0.02633 0.70493 0.0
C823 C 0.62238 0.01354 0.73228 0.0
C824 C 0.62146 0.9861 0.7304 0.0
C825 C 0.98663 0.65017 0.05759 0.0
C826 C 0.97152 0.63769 0.02378 0.0
C827 C 0.01364 0.64911 0.05601 0.0
C828 C 0.02652 0.63551 0.02058 0.0
H829 H 0.97749 0.66071 0.08562 0.0
H830 H 0.02454 0.65887 0.08289 0.0
S831 S 0.99579 0.59806 0.92569 0.0
N832 N 0.97141 0.61043 0.95501 0.0
N833 N 0.02207 0.60846 0.95205 0.0
C834 C 0.01162 0.623 0.98655 0.0
C835 C 0.98417 0.62407 0.98816 0.0
C836 C 0.50767 0.16444 0.01099 0.0
C837 C 0.51823 0.18654 0.9899 0.0
C838 C 0.48924 0.16636 0.04646 0.0
C839 C 0.48064 0.19047 0.06244 0.0
H840 H 0.51374 0.14543 1.00003 0.0
H841 H 0.48181 0.1488 0.06181 0.0
S842 S 0.50136 0.25422 0.0179 0.0
N843 N 0.51813 0.23334 0.98691 0.0
N844 N 0.48369 0.23692 0.05408 0.0
C845 C 0.49111 0.21274 0.04201 0.0
C846 C 0.50985 0.21079 0.00567 0.0
C847 C 0.79823 0.51893 0.27348 0.0
C848 C 0.80584 0.51199 0.22814 0.0
C849 C 0.79719 0.50059 0.30944 0.0
C850 C 0.80379 0.47468 0.30139 0.0
H851 H 0.794 0.53884 0.28167 0.0
H852 H 0.7922 0.50694 0.3442 0.0
S853 S 0.82132 0.44585 0.18777 0.0
N854 N 0.81727 0.47675 0.17631 0.0
N855 N 0.81579 0.44255 0.24404 0.0
C856 C 0.81025 0.46728 0.25588 0.0
C857 C 0.81114 0.48584 0.21925 0.0
C858 C 0.49526 0.8311 0.56429 0.0
C859 C 0.51476 0.81233 0.56398 0.0
C860 C 0.47644 0.8319 0.52926 0.0
C861 C 0.47651 0.81413 0.49219 0.0
H862 H 0.4945 0.84524 0.59197 0.0
H863 H 0.46174 0.84666 0.53121 0.0
S864 S 0.52445 0.76194 0.47445 0.0
N865 N 0.53339 0.7758 0.52358 0.0
N866 N 0.49858 0.77767 0.45686 0.0
C867 C 0.496 0.79522 0.49161 0.0
C868 C 0.51498 0.79425 0.52766 0.0
C869 C 0.16899 0.50265 0.81075 0.0
C870 C 0.18624 0.52346 0.80854 0.0
C871 C 0.16874 0.48359 0.77613 0.0
C872 C 0.18554 0.48476 0.73761 0.0
H873 H 0.15581 0.50094 0.83983 0.0
H874 H 0.1554 0.46769 0.77985 0.0
S875 S 0.23314 0.53672 0.71451 0.0
N876 N 0.22001 0.54474 0.7648 0.0
N877 N 0.21897 0.50965 0.69854 0.0
C878 C 0.20265 0.50584 0.73485 0.0
C879 C 0.20312 0.525 0.77056 0.0
loop_
_geom_bond_atom_site_label_1
_geom_bond_atom_site_label_2
_geom_bond_distance
_geom_bond_site_symmetry_2
_ccdc_geom_bond_type
Li0 N17 1.990 . S
Li0 O60 1.956 . S
Li0 O61 1.970 . S
Li0 O62 1.961 . S
Li1 N25 1.990 . S
Li1 O60 1.970 . S
Li1 O61 1.956 . S
Li1 O63 1.961 . S
Li2 N47 1.990 . S
Li2 O60 1.961 . S
Li2 O62 1.956 . S
Li2 O63 1.970 . S
Li3 N53 1.990 . S
Li3 O61 1.961 . S
Li3 O62 1.970 . S
Li3 O63 1.956 . S
C4 C6 1.348 . S
C4 C7 1.356 . S
C4 O60 1.325 . S
N5 C8 1.314 . S
N5 C9 1.279 . S
C6 C4 1.348 . S
C6 C8 1.353 . S
C6 H64 0.929 . S
C7 C4 1.356 . S
C7 C9 1.358 . S
C7 H65 0.930 . S
C8 N5 1.314 . S
C8 C6 1.353 . S
C8 H66 0.930 . S
C9 N5 1.279 . S
C9 C7 1.358 . S
C9 H67 0.930 . S
C10 C13 1.348 . S
C10 C14 1.356 . S
C10 O61 1.325 . S
C11 N12 1.279 . S
C11 C14 1.358 . S
C11 H68 0.930 . S
N12 C11 1.279 . S
N12 C15 1.314 . S
C13 C10 1.348 . S
C13 C15 1.353 . S
C13 H69 0.929 . S
C14 C10 1.356 . S
C14 C11 1.358 . S
C14 H70 0.930 . S
C15 N12 1.314 . S
C15 C13 1.353 . S
C15 H71 0.930 . S
C16 N17 1.314 . S
C16 C21 1.353 . S
C16 H22 0.930 . S
N17 Li0 1.990 . S
N17 C16 1.314 . S
N17 C19 1.279 . S
C18 C19 1.358 . S
C18 C20 1.356 . S
C18 H72 0.930 . S
C19 N17 1.279 . S
C19 C18 1.358 . S
C19 H23 0.930 . S
C20 C18 1.356 . S
C20 C21 1.348 . S
C21 C16 1.353 . S
C21 C20 1.348 . S
C21 H73 0.929 . S
H22 C16 0.930 . S
H23 C19 0.930 . S
C24 N25 1.314 . S
C24 C26 1.353 . S
C24 H30 0.930 . S
N25 Li1 1.990 . S
N25 C24 1.314 . S
N25 C28 1.279 . S
C26 C24 1.353 . S
C26 C29 1.348 . S
C26 H74 0.929 . S
C27 C28 1.358 . S
C27 C29 1.356 . S
C27 H75 0.930 . S
C28 N25 1.279 . S
C28 C27 1.358 . S
C28 H31 0.930 . S
C29 C26 1.348 . S
C29 C27 1.356 . S
H30 C24 0.930 . S
H31 C28 0.930 . S
C32 C34 1.348 . S
C32 C35 1.356 . S
C32 O62 1.325 . S
N33 C36 1.314 . S
N33 C37 1.279 . S
C34 C32 1.348 . S
C34 C36 1.353 . S
C34 H76 0.929 . S
C35 C32 1.356 . S
C35 C37 1.358 . S
C35 H77 0.930 . S
C36 N33 1.314 . S
C36 C34 1.353 . S
C36 H78 0.930 . S
C37 N33 1.279 . S
C37 C35 1.358 . S
C37 H79 0.930 . S
C38 C39 1.348 . S
C38 C40 1.356 . S
C38 O63 1.325 . S
C39 C38 1.348 . S
C39 C41 1.353 . S
C39 H80 0.929 . S
C40 C38 1.356 . S
C40 C42 1.358 . S
C40 H81 0.930 . S
C41 C39 1.353 . S
C41 N43 1.314 . S
C41 H82 0.930 . S
C42 C40 1.358 . S
C42 N43 1.279 . S
C42 H83 0.930 . S
N43 C41 1.314 . S
N43 C42 1.279 . S
C44 C46 1.353 . S
C44 N47 1.314 . S
C44 H50 0.930 . S
C45 N47 1.279 . S
C45 C48 1.358 . S
C45 H51 0.930 . S
C46 C44 1.353 . S
C46 C49 1.348 . S
C46 H84 0.929 . S
N47 Li2 1.990 . S
N47 C44 1.314 . S
N47 C45 1.279 . S
C48 C45 1.358 . S
C48 C49 1.356 . S
C48 H85 0.930 . S
C49 C46 1.348 . S
C49 C48 1.356 . S
H50 C44 0.930 . S
H51 C45 0.930 . S
C52 N53 1.314 . S
C52 C54 1.353 . S
C52 H58 0.930 . S
N53 Li3 1.990 . S
N53 C52 1.314 . S
N53 C56 1.279 . S
C54 C52 1.353 . S
C54 C57 1.348 . S
C54 H86 0.929 . S
C55 C56 1.358 . S
C55 C57 1.356 . S
C55 H87 0.930 . S
C56 N53 1.279 . S
C56 C55 1.358 . S
C56 H59 0.930 . S
C57 C54 1.348 . S
C57 C55 1.356 . S
H58 C52 0.930 . S
H59 C56 0.930 . S
O60 Li0 1.956 . S
O60 Li1 1.970 . S
O60 Li2 1.961 . S
O60 C4 1.325 . S
O61 Li0 1.970 . S
O61 Li1 1.956 . S
O61 Li3 1.961 . S
O61 C10 1.325 . S
O62 Li0 1.961 . S
O62 Li2 1.956 . S
O62 Li3 1.970 . S
O62 C32 1.325 . S
O63 Li1 1.961 . S
O63 Li2 1.970 . S
O63 Li3 1.956 . S
O63 C38 1.325 . S
H64 C6 0.929 . S
H65 C7 0.930 . S
H66 C8 0.930 . S
H67 C9 0.930 . S
H68 C11 0.930 . S
H69 C13 0.929 . S
H70 C14 0.930 . S
H71 C15 0.930 . S
H72 C18 0.930 . S
H73 C21 0.929 . S
H74 C26 0.929 . S
H75 C27 0.930 . S
H76 C34 0.929 . S
H77 C35 0.930 . S
H78 C36 0.930 . S
H79 C37 0.930 . S
H80 C39 0.929 . S
H81 C40 0.930 . S
H82 C41 0.930 . S
H83 C42 0.930 . S
H84 C46 0.929 . S
H85 C48 0.930 . S
H86 C54 0.929 . S
H87 C55 0.930 . S
Li88 N105 1.990 . S
Li88 O148 1.956 . S
Li88 O149 1.970 . S
Li88 O150 1.961 . S
Li89 N113 1.990 . S
Li89 O148 1.970 . S
Li89 O149 1.956 . S
Li89 O151 1.961 . S
Li90 N135 1.990 . S
Li90 O148 1.961 . S
Li90 O150 1.956 . S
Li90 O151 1.970 . S
Li91 N141 1.990 . S
Li91 O149 1.961 . S
Li91 O150 1.970 . S
Li91 O151 1.956 . S
C92 C94 1.348 . S
C92 C95 1.356 . S
C92 O148 1.325 . S
N93 C96 1.314 . S
N93 C97 1.279 . S
C94 C92 1.348 . S
C94 C96 1.353 . S
C94 H152 0.929 . S
C95 C92 1.356 . S
C95 C97 1.358 . S
C95 H153 0.930 . S
C96 N93 1.314 . S
C96 C94 1.353 . S
C96 H154 0.930 . S
C97 N93 1.279 . S
C97 C95 1.358 . S
C97 H155 0.930 . S
C98 C101 1.348 . S
C98 C102 1.356 . S
C98 O149 1.325 . S
C99 N100 1.279 . S
C99 C102 1.358 . S
C99 H156 0.930 . S
N100 C99 1.279 . S
N100 C103 1.314 . S
C101 C98 1.348 . S
C101 C103 1.353 . S
C101 H157 0.929 . S
C102 C98 1.356 . S
C102 C99 1.358 . S
C102 H158 0.930 . S
C103 N100 1.314 . S
C103 C101 1.353 . S
C103 H159 0.930 . S
C104 N105 1.314 . S
C104 C109 1.353 . S
C104 H110 0.930 . S
N105 Li88 1.990 . S
N105 C104 1.314 . S
N105 C107 1.279 . S
C106 C107 1.358 . S
C106 C108 1.356 . S
C106 H160 0.930 . S
C107 N105 1.279 . S
C107 C106 1.358 . S
C107 H111 0.930 . S
C108 C106 1.356 . S
C108 C109 1.348 . S
C109 C104 1.353 . S
C109 C108 1.348 . S
C109 H161 0.929 . S
H110 C104 0.930 . S
H111 C107 0.930 . S
C112 N113 1.314 . S
C112 C114 1.353 . S
C112 H118 0.930 . S
N113 Li89 1.990 . S
N113 C112 1.314 . S
N113 C116 1.279 . S
C114 C112 1.353 . S
C114 C117 1.348 . S
C114 H162 0.929 . S
C115 C116 1.358 . S
C115 C117 1.356 . S
C115 H163 0.930 . S
C116 N113 1.279 . S
C116 C115 1.358 . S
C116 H119 0.930 . S
C117 C114 1.348 . S
C117 C115 1.356 . S
H118 C112 0.930 . S
H119 C116 0.930 . S
C120 C122 1.348 . S
C120 C123 1.356 . S
C120 O150 1.325 . S
N121 C124 1.314 . S
N121 C125 1.279 . S
C122 C120 1.348 . S
C122 C124 1.353 . S
C122 H164 0.929 . S
C123 C120 1.356 . S
C123 C125 1.358 . S
C123 H165 0.930 . S
C124 N121 1.314 . S
C124 C122 1.353 . S
C124 H166 0.930 . S
C125 N121 1.279 . S
C125 C123 1.358 . S
C125 H167 0.930 . S
C126 C127 1.348 . S
C126 C128 1.356 . S
C126 O151 1.325 . S
C127 C126 1.348 . S
C127 C129 1.353 . S
C127 H168 0.929 . S
C128 C126 1.356 . S
C128 C130 1.358 . S
C128 H169 0.930 . S
C129 C127 1.353 . S
C129 N131 1.314 . S
C129 H170 0.930 . S
C130 C128 1.358 . S
C130 N131 1.279 . S
C130 H171 0.930 . S
N131 C129 1.314 . S
N131 C130 1.279 . S
C132 C134 1.353 . S
C132 N135 1.314 . S
C132 H138 0.930 . S
C133 N135 1.279 . S
C133 C136 1.358 . S
C133 H139 0.930 . S
C134 C132 1.353 . S
C134 C137 1.348 . S
C134 H172 0.929 . S
N135 Li90 1.990 . S
N135 C132 1.314 . S
N135 C133 1.279 . S
C136 C133 1.358 . S
C136 C137 1.356 . S
C136 H173 0.930 . S
C137 C134 1.348 . S
C137 C136 1.356 . S
H138 C132 0.930 . S
H139 C133 0.930 . S
C140 N141 1.314 . S
C140 C142 1.353 . S
C140 H146 0.930 . S
N141 Li91 1.990 . S
N141 C140 1.314 . S
N141 C144 1.279 . S
C142 C140 1.353 . S
C142 C145 1.348 . S
C142 H174 0.929 . S
C143 C144 1.358 . S
C143 C145 1.356 . S
C143 H175 0.930 . S
C144 N141 1.279 . S
C144 C143 1.358 . S
C144 H147 0.930 . S
C145 C142 1.348 . S
C145 C143 1.356 . S
H146 C140 0.930 . S
H147 C144 0.930 . S
O148 Li88 1.956 . S
O148 Li89 1.970 . S
O148 Li90 1.961 . S
O148 C92 1.325 . S
O149 Li88 1.970 . S
O149 Li89 1.956 . S
O149 Li91 1.961 . S
O149 C98 1.325 . S
O150 Li88 1.961 . S
O150 Li90 1.956 . S
O150 Li91 1.970 . S
O150 C120 1.325 . S
O151 Li89 1.961 . S
O151 Li90 1.970 . S
O151 Li91 1.956 . S
O151 C126 1.325 . S
H152 C94 0.929 . S
H153 C95 0.930 . S
H154 C96 0.930 . S
H155 C97 0.930 . S
H156 C99 0.930 . S
H157 C101 0.929 . S
H158 C102 0.930 . S
H159 C103 0.930 . S
H160 C106 0.930 . S
H161 C109 0.929 . S
H162 C114 0.929 . S
H163 C115 0.930 . S
H164 C122 0.929 . S
H165 C123 0.930 . S
H166 C124 0.930 . S
H167 C125 0.930 . S
H168 C127 0.929 . S
H169 C128 0.930 . S
H170 C129 0.930 . S
H171 C130 0.930 . S
H172 C134 0.929 . S
H173 C136 0.930 . S
H174 C142 0.929 . S
H175 C143 0.930 . S
Li176 N193 1.990 . S
Li176 O236 1.956 . S
Li176 O237 1.970 . S
Li176 O238 1.961 . S
Li177 N201 1.990 . S
Li177 O236 1.970 . S
Li177 O237 1.956 . S
Li177 O239 1.961 . S
Li178 N223 1.990 . S
Li178 O236 1.961 . S
Li178 O238 1.956 . S
Li178 O239 1.970 . S
Li179 N229 1.990 . S
Li179 O237 1.961 . S
Li179 O238 1.970 . S
Li179 O239 1.956 . S
C180 C182 1.348 . S
C180 C183 1.356 . S
C180 O236 1.325 . S
N181 C184 1.314 . S
N181 C185 1.279 . S
C182 C180 1.348 . S
C182 C184 1.353 . S
C182 H240 0.929 . S
C183 C180 1.356 . S
C183 C185 1.358 . S
C183 H241 0.930 . S
C184 N181 1.314 . S
C184 C182 1.353 . S
C184 H242 0.930 . S
C185 N181 1.279 . S
C185 C183 1.358 . S
C185 H243 0.930 . S
C186 C189 1.348 . S
C186 C190 1.356 . S
C186 O237 1.325 . S
C187 N188 1.279 . S
C187 C190 1.358 . S
C187 H244 0.930 . S
N188 C187 1.279 . S
N188 C191 1.314 . S
C189 C186 1.348 . S
C189 C191 1.353 . S
C189 H245 0.929 . S
C190 C186 1.356 . S
C190 C187 1.358 . S
C190 H246 0.930 . S
C191 N188 1.314 . S
C191 C189 1.353 . S
C191 H247 0.930 . S
C192 N193 1.314 . S
C192 C197 1.353 . S
C192 H198 0.930 . S
N193 Li176 1.990 . S
N193 C192 1.314 . S
N193 C195 1.279 . S
C194 C195 1.358 . S
C194 C196 1.356 . S
C194 H248 0.930 . S
C195 N193 1.279 . S
C195 C194 1.358 . S
C195 H199 0.930 . S
C196 C194 1.356 . S
C196 C197 1.348 . S
C197 C192 1.353 . S
C197 C196 1.348 . S
C197 H249 0.929 . S
H198 C192 0.930 . S
H199 C195 0.930 . S
C200 N201 1.314 . S
C200 C202 1.353 . S
C200 H206 0.930 . S
N201 Li177 1.990 . S
N201 C200 1.314 . S
N201 C204 1.279 . S
C202 C200 1.353 . S
C202 C205 1.348 . S
C202 H250 0.929 . S
C203 C204 1.358 . S
C203 C205 1.356 . S
C203 H251 0.930 . S
C204 N201 1.279 . S
C204 C203 1.358 . S
C204 H207 0.930 . S
C205 C202 1.348 . S
C205 C203 1.356 . S
H206 C200 0.930 . S
H207 C204 0.930 . S
C208 C210 1.348 . S
C208 C211 1.356 . S
C208 O238 1.325 . S
N209 C212 1.314 . S
N209 C213 1.279 . S
C210 C208 1.348 . S
C210 C212 1.353 . S
C210 H252 0.929 . S
C211 C208 1.356 . S
C211 C213 1.358 . S
C211 H253 0.930 . S
C212 N209 1.314 . S
C212 C210 1.353 . S
C212 H254 0.930 . S
C213 N209 1.279 . S
C213 C211 1.358 . S
C213 H255 0.930 . S
C214 C215 1.348 . S
C214 C216 1.356 . S
C214 O239 1.325 . S
C215 C214 1.348 . S
C215 C217 1.353 . S
C215 H256 0.929 . S
C216 C214 1.356 . S
C216 C218 1.358 . S
C216 H257 0.930 . S
C217 C215 1.353 . S
C217 N219 1.314 . S
C217 H258 0.930 . S
C218 C216 1.358 . S
C218 N219 1.279 . S
C218 H259 0.930 . S
N219 C217 1.314 . S
N219 C218 1.279 . S
C220 C222 1.353 . S
C220 N223 1.314 . S
C220 H226 0.930 . S
C221 N223 1.279 . S
C221 C224 1.358 . S
C221 H227 0.930 . S
C222 C220 1.353 . S
C222 C225 1.348 . S
C222 H260 0.929 . S
N223 Li178 1.990 . S
N223 C220 1.314 . S
N223 C221 1.279 . S
C224 C221 1.358 . S
C224 C225 1.356 . S
C224 H261 0.930 . S
C225 C222 1.348 . S
C225 C224 1.356 . S
H226 C220 0.930 . S
H227 C221 0.930 . S
C228 N229 1.314 . S
C228 C230 1.353 . S
C228 H234 0.930 . S
N229 Li179 1.990 . S
N229 C228 1.314 . S
N229 C232 1.279 . S
C230 C228 1.353 . S
C230 C233 1.348 . S
C230 H262 0.929 . S
C231 C232 1.358 . S
C231 C233 1.356 . S
C231 H263 0.930 . S
C232 N229 1.279 . S
C232 C231 1.358 . S
C232 H235 0.930 . S
C233 C230 1.348 . S
C233 C231 1.356 . S
H234 C228 0.930 . S
H235 C232 0.930 . S
O236 Li176 1.956 . S
O236 Li177 1.970 . S
O236 Li178 1.961 . S
O236 C180 1.325 . S
O237 Li176 1.970 . S
O237 Li177 1.956 . S
O237 Li179 1.961 . S
O237 C186 1.325 . S
O238 Li176 1.961 . S
O238 Li178 1.956 . S
O238 Li179 1.970 . S
O238 C208 1.325 . S
O239 Li177 1.961 . S
O239 Li178 1.970 . S
O239 Li179 1.956 . S
O239 C214 1.325 . S
H240 C182 0.929 . S
H241 C183 0.930 . S
H242 C184 0.930 . S
H243 C185 0.930 . S
H244 C187 0.930 . S
H245 C189 0.929 . S
H246 C190 0.930 . S
H247 C191 0.930 . S
H248 C194 0.930 . S
H249 C197 0.929 . S
H250 C202 0.929 . S
H251 C203 0.930 . S
H252 C210 0.929 . S
H253 C211 0.930 . S
H254 C212 0.930 . S
H255 C213 0.930 . S
H256 C215 0.929 . S
H257 C216 0.930 . S
H258 C217 0.930 . S
H259 C218 0.930 . S
H260 C222 0.929 . S
H261 C224 0.930 . S
H262 C230 0.929 . S
H263 C231 0.930 . S
Li264 N281 1.990 . S
Li264 O324 1.956 . S
Li264 O325 1.970 . S
Li264 O326 1.961 1_554 S
Li265 N289 1.990 . S
Li265 O324 1.970 . S
Li265 O325 1.956 . S
Li265 O327 1.961 . S
Li266 N311 1.990 . S
Li266 O324 1.961 . S
Li266 O326 1.956 1_554 S
Li266 O327 1.970 . S
Li267 N317 1.990 . S
Li267 O325 1.961 1_556 S
Li267 O326 1.970 . S
Li267 O327 1.956 1_556 S
C268 C270 1.348 . S
C268 C271 1.356 . S
C268 O324 1.325 . S
N269 C272 1.314 . S
N269 C273 1.279 . S
C270 C268 1.348 . S
C270 C272 1.353 . S
C270 H328 0.929 . S
C271 C268 1.356 . S
C271 C273 1.358 . S
C271 H329 0.930 . S
C272 N269 1.314 . S
C272 C270 1.353 . S
C272 H330 0.930 . S
C273 N269 1.279 . S
C273 C271 1.358 . S
C273 H331 0.930 . S
C274 C277 1.348 . S
C274 C278 1.356 . S
C274 O325 1.325 . S
C275 N276 1.279 . S
C275 C278 1.358 . S
C275 H332 0.930 1_554 S
N276 C275 1.279 . S
N276 C279 1.314 . S
C277 C274 1.348 . S
C277 C279 1.353 . S
C277 H333 0.929 . S
C278 C274 1.356 . S
C278 C275 1.358 . S
C278 H334 0.930 . S
C279 N276 1.314 . S
C279 C277 1.353 . S
C279 H335 0.930 . S
C280 N281 1.314 1_556 S
C280 C285 1.353 . S
C280 H286 0.930 . S
N281 Li264 1.990 . S
N281 C280 1.314 1_554 S
N281 C283 1.279 . S
C282 C283 1.358 . S
C282 C284 1.356 . S
C282 H336 0.930 . S
C283 N281 1.279 . S
C283 C282 1.358 . S
C283 H287 0.930 . S
C284 C282 1.356 . S
C284 C285 1.348 1_554 S
C285 C280 1.353 . S
C285 C284 1.348 1_556 S
C285 H337 0.929 . S
H286 C280 0.930 . S
H287 C283 0.930 . S
C288 N289 1.314 . S
C288 C290 1.353 . S
C288 H294 0.930 . S
N289 Li265 1.990 . S
N289 C288 1.314 . S
N289 C292 1.279 . S
C290 C288 1.353 . S
C290 C293 1.348 . S
C290 H338 0.929 . S
C291 C292 1.358 . S
C291 C293 1.356 . S
C291 H339 0.930 . S
C292 N289 1.279 . S
C292 C291 1.358 . S
C292 H295 0.930 . S
C293 C290 1.348 . S
C293 C291 1.356 . S
H294 C288 0.930 . S
H295 C292 0.930 . S
C296 C298 1.348 . S
C296 C299 1.356 . S
C296 O326 1.325 . S
N297 C300 1.314 . S
N297 C301 1.279 . S
C298 C296 1.348 . S
C298 C300 1.353 . S
C298 H340 0.929 . S
C299 C296 1.356 . S
C299 C301 1.358 . S
C299 H341 0.930 . S
C300 N297 1.314 . S
C300 C298 1.353 . S
C300 H342 0.930 . S
C301 N297 1.279 . S
C301 C299 1.358 . S
C301 H343 0.930 . S
C302 C303 1.348 . S
C302 C304 1.356 . S
C302 O327 1.325 . S
C303 C302 1.348 . S
C303 C305 1.353 . S
C303 H344 0.929 . S
C304 C302 1.356 . S
C304 C306 1.358 . S
C304 H345 0.930 . S
C305 C303 1.353 . S
C305 N307 1.314 . S
C305 H346 0.930 . S
C306 C304 1.358 . S
C306 N307 1.279 . S
C306 H347 0.930 . S
N307 C305 1.314 . S
N307 C306 1.279 . S
C308 C310 1.353 . S
C308 N311 1.314 . S
C308 H314 0.930 . S
C309 N311 1.279 . S
C309 C312 1.358 . S
C309 H315 0.930 1_554 S
C310 C308 1.353 . S
C310 C313 1.348 . S
C310 H348 0.929 . S
N311 Li266 1.990 . S
N311 C308 1.314 . S
N311 C309 1.279 . S
C312 C309 1.358 . S
C312 C313 1.356 . S
C312 H349 0.930 1_554 S
C313 C310 1.348 . S
C313 C312 1.356 . S
H314 C308 0.930 . S
H315 C309 0.930 1_556 S
C316 N317 1.314 . S
C316 C318 1.353 . S
C316 H322 0.930 . S
N317 Li267 1.990 . S
N317 C316 1.314 . S
N317 C320 1.279 . S
C318 C316 1.353 . S
C318 C321 1.348 . S
C318 H350 0.929 . S
C319 C320 1.358 . S
C319 C321 1.356 . S
C319 H351 0.930 . S
C320 N317 1.279 . S
C320 C319 1.358 . S
C320 H323 0.930 . S
C321 C318 1.348 . S
C321 C319 1.356 . S
H322 C316 0.930 . S
H323 C320 0.930 . S
O324 Li264 1.956 . S
O324 Li265 1.970 . S
O324 Li266 1.961 . S
O324 C268 1.325 . S
O325 Li264 1.970 . S
O325 Li265 1.956 . S
O325 Li267 1.961 1_554 S
O325 C274 1.325 . S
O326 Li264 1.961 1_556 S
O326 Li266 1.956 1_556 S
O326 Li267 1.970 . S
O326 C296 1.325 . S
O327 Li265 1.961 . S
O327 Li266 1.970 . S
O327 Li267 1.956 1_554 S
O327 C302 1.325 . S
H328 C270 0.929 . S
H329 C271 0.930 . S
H330 C272 0.930 . S
H331 C273 0.930 . S
H332 C275 0.930 1_556 S
H333 C277 0.929 . S
H334 C278 0.930 . S
H335 C279 0.930 . S
H336 C282 0.930 . S
H337 C285 0.929 . S
H338 C290 0.929 . S
H339 C291 0.930 . S
H340 C298 0.929 . S
H341 C299 0.930 . S
H342 C300 0.930 . S
H343 C301 0.930 . S
H344 C303 0.929 . S
H345 C304 0.930 . S
H346 C305 0.930 . S
H347 C306 0.930 . S
H348 C310 0.929 . S
H349 C312 0.930 1_556 S
H350 C318 0.929 . S
H351 C319 0.930 . S
Li352 N369 1.990 . S
Li352 O412 1.956 . S
Li352 O413 1.970 . S
Li352 O414 1.961 . S
Li353 N377 1.990 . S
Li353 O412 1.970 . S
Li353 O413 1.956 . S
Li353 O415 1.961 . S
Li354 N399 1.990 . S
Li354 O412 1.961 . S
Li354 O414 1.956 . S
Li354 O415 1.970 . S
Li355 N405 1.990 . S
Li355 O413 1.961 . S
Li355 O414 1.970 . S
Li355 O415 1.956 . S
C356 C358 1.348 . S
C356 C359 1.356 . S
C356 O412 1.325 . S
N357 C360 1.314 . S
N357 C361 1.279 . S
C358 C356 1.348 . S
C358 C360 1.353 . S
C358 H416 0.929 . S
C359 C356 1.356 . S
C359 C361 1.358 . S
C359 H417 0.930 . S
C360 N357 1.314 . S
C360 C358 1.353 . S
C360 H418 0.930 . S
C361 N357 1.279 . S
C361 C359 1.358 . S
C361 H419 0.930 . S
C362 C365 1.348 . S
C362 C366 1.356 . S
C362 O413 1.325 . S
C363 N364 1.279 . S
C363 C366 1.358 . S
C363 H420 0.930 . S
N364 C363 1.279 . S
N364 C367 1.314 . S
C365 C362 1.348 . S
C365 C367 1.353 . S
C365 H421 0.929 . S
C366 C362 1.356 . S
C366 C363 1.358 . S
C366 H422 0.930 . S
C367 N364 1.314 . S
C367 C365 1.353 . S
C367 H423 0.930 . S
C368 N369 1.314 . S
C368 C373 1.353 . S
C368 H374 0.930 . S
N369 Li352 1.990 . S
N369 C368 1.314 . S
N369 C371 1.279 . S
C370 C371 1.358 . S
C370 C372 1.356 . S
C370 H424 0.930 . S
C371 N369 1.279 . S
C371 C370 1.358 . S
C371 H375 0.930 . S
C372 C370 1.356 . S
C372 C373 1.348 . S
C373 C368 1.353 . S
C373 C372 1.348 . S
C373 H425 0.929 . S
H374 C368 0.930 . S
H375 C371 0.930 . S
C376 N377 1.314 . S
C376 C378 1.353 . S
C376 H382 0.930 . S
N377 Li353 1.990 . S
N377 C376 1.314 . S
N377 C380 1.279 . S
C378 C376 1.353 . S
C378 C381 1.348 . S
C378 H426 0.929 . S
C379 C380 1.358 . S
C379 C381 1.356 . S
C379 H427 0.930 . S
C380 N377 1.279 . S
C380 C379 1.358 . S
C380 H383 0.930 . S
C381 C378 1.348 . S
C381 C379 1.356 . S
H382 C376 0.930 . S
H383 C380 0.930 . S
C384 C386 1.348 . S
C384 C387 1.356 . S
C384 O414 1.325 . S
N385 C388 1.314 . S
N385 C389 1.279 . S
C386 C384 1.348 . S
C386 C388 1.353 . S
C386 H428 0.929 . S
C387 C384 1.356 . S
C387 C389 1.358 . S
C387 H429 0.930 . S
C388 N385 1.314 . S
C388 C386 1.353 . S
C388 H430 0.930 . S
C389 N385 1.279 . S
C389 C387 1.358 . S
C389 H431 0.930 . S
C390 C391 1.348 . S
C390 C392 1.356 . S
C390 O415 1.325 . S
C391 C390 1.348 . S
C391 C393 1.353 . S
C391 H432 0.929 . S
C392 C390 1.356 . S
C392 C394 1.358 . S
C392 H433 0.930 . S
C393 C391 1.353 . S
C393 N395 1.314 . S
C393 H434 0.930 . S
C394 C392 1.358 . S
C394 N395 1.279 . S
C394 H435 0.930 . S
N395 C393 1.314 . S
N395 C394 1.279 . S
C396 C398 1.353 . S
C396 N399 1.314 . S
C396 H402 0.930 . S
C397 N399 1.279 . S
C397 C400 1.358 . S
C397 H403 0.930 . S
C398 C396 1.353 . S
C398 C401 1.348 . S
C398 H436 0.929 . S
N399 Li354 1.990 . S
N399 C396 1.314 . S
N399 C397 1.279 . S
C400 C397 1.358 . S
C400 C401 1.356 . S
C400 H437 0.930 . S
C401 C398 1.348 . S
C401 C400 1.356 . S
H402 C396 0.930 . S
H403 C397 0.930 . S
C404 N405 1.314 . S
C404 C406 1.353 . S
C404 H410 0.930 . S
N405 Li355 1.990 . S
N405 C404 1.314 . S
N405 C408 1.279 . S
C406 C404 1.353 . S
C406 C409 1.348 . S
C406 H438 0.929 . S
C407 C408 1.358 . S
C407 C409 1.356 . S
C407 H439 0.930 . S
C408 N405 1.279 . S
C408 C407 1.358 . S
C408 H411 0.930 . S
C409 C406 1.348 . S
C409 C407 1.356 . S
H410 C404 0.930 . S
H411 C408 0.930 . S
O412 Li352 1.956 . S
O412 Li353 1.970 . S
O412 Li354 1.961 . S
O412 C356 1.325 . S
O413 Li352 1.970 . S
O413 Li353 1.956 . S
O413 Li355 1.961 . S
O413 C362 1.325 . S
O414 Li352 1.961 . S
O414 Li354 1.956 . S
O414 Li355 1.970 . S
O414 C384 1.325 . S
O415 Li353 1.961 . S
O415 Li354 1.970 . S
O415 Li355 1.956 . S
O415 C390 1.325 . S
H416 C358 0.929 . S
H417 C359 0.930 . S
H418 C360 0.930 . S
H419 C361 0.930 . S
H420 C363 0.930 . S
H421 C365 0.929 . S
H422 C366 0.930 . S
H423 C367 0.930 . S
H424 C370 0.930 . S
H425 C373 0.929 . S
H426 C378 0.929 . S
H427 C379 0.930 . S
H428 C386 0.929 . S
H429 C387 0.930 . S
H430 C388 0.930 . S
H431 C389 0.930 . S
H432 C391 0.929 . S
H433 C392 0.930 . S
H434 C393 0.930 . S
H435 C394 0.930 . S
H436 C398 0.929 . S
H437 C400 0.930 . S
H438 C406 0.929 . S
H439 C407 0.930 . S
Li440 N457 1.990 . S
Li440 O500 1.956 . S
Li440 O501 1.970 . S
Li440 O502 1.961 . S
Li441 N465 1.990 . S
Li441 O500 1.970 . S
Li441 O501 1.956 . S
Li441 O503 1.961 . S
Li442 N487 1.990 . S
Li442 O500 1.961 . S
Li442 O502 1.956 . S
Li442 O503 1.970 . S
Li443 N493 1.990 . S
Li443 O501 1.961 . S
Li443 O502 1.970 . S
Li443 O503 1.956 . S
C444 C446 1.348 . S
C444 C447 1.356 . S
C444 O500 1.325 . S
N445 C448 1.314 . S
N445 C449 1.279 . S
C446 C444 1.348 . S
C446 C448 1.353 . S
C446 H504 0.929 . S
C447 C444 1.356 . S
C447 C449 1.358 . S
C447 H505 0.930 . S
C448 N445 1.314 . S
C448 C446 1.353 . S
C448 H506 0.930 . S
C449 N445 1.279 . S
C449 C447 1.358 . S
C449 H507 0.930 . S
C450 C453 1.348 . S
C450 C454 1.356 . S
C450 O501 1.325 . S
C451 N452 1.279 . S
C451 C454 1.358 . S
C451 H508 0.930 . S
N452 C451 1.279 . S
N452 C455 1.314 . S
C453 C450 1.348 . S
C453 C455 1.353 . S
C453 H509 0.929 . S
C454 C450 1.356 . S
C454 C451 1.358 . S
C454 H510 0.930 . S
C455 N452 1.314 . S
C455 C453 1.353 . S
C455 H511 0.930 . S
C456 N457 1.314 . S
C456 C461 1.353 . S
C456 H462 0.930 . S
N457 Li440 1.990 . S
N457 C456 1.314 . S
N457 C459 1.279 . S
C458 C459 1.358 . S
C458 C460 1.356 . S
C458 H512 0.930 . S
C459 N457 1.279 . S
C459 C458 1.358 . S
C459 H463 0.930 . S
C460 C458 1.356 . S
C460 C461 1.348 . S
C461 C456 1.353 . S
C461 C460 1.348 . S
C461 H513 0.929 . S
H462 C456 0.930 . S
H463 C459 0.930 . S
C464 N465 1.314 . S
C464 C466 1.353 . S
C464 H470 0.930 . S
N465 Li441 1.990 . S
N465 C464 1.314 . S
N465 C468 1.279 . S
C466 C464 1.353 . S
C466 C469 1.348 . S
C466 H514 0.929 . S
C467 C468 1.358 . S
C467 C469 1.356 . S
C467 H515 0.930 . S
C468 N465 1.279 . S
C468 C467 1.358 . S
C468 H471 0.930 . S
C469 C466 1.348 . S
C469 C467 1.356 . S
H470 C464 0.930 . S
H471 C468 0.930 . S
C472 C474 1.348 . S
C472 C475 1.356 . S
C472 O502 1.325 . S
N473 C476 1.314 . S
N473 C477 1.279 . S
C474 C472 1.348 . S
C474 C476 1.353 . S
C474 H516 0.929 . S
C475 C472 1.356 . S
C475 C477 1.358 . S
C475 H517 0.930 . S
C476 N473 1.314 . S
C476 C474 1.353 . S
C476 H518 0.930 . S
C477 N473 1.279 . S
C477 C475 1.358 . S
C477 H519 0.930 . S
C478 C479 1.348 . S
C478 C480 1.356 . S
C478 O503 1.325 . S
C479 C478 1.348 . S
C479 C481 1.353 . S
C479 H520 0.929 . S
C480 C478 1.356 . S
C480 C482 1.358 . S
C480 H521 0.930 . S
C481 C479 1.353 . S
C481 N483 1.314 . S
C481 H522 0.930 . S
C482 C480 1.358 . S
C482 N483 1.279 . S
C482 H523 0.930 . S
N483 C481 1.314 . S
N483 C482 1.279 . S
C484 C486 1.353 . S
C484 N487 1.314 . S
C484 H490 0.930 . S
C485 N487 1.279 . S
C485 C488 1.358 . S
C485 H491 0.930 . S
C486 C484 1.353 . S
C486 C489 1.348 . S
C486 H524 0.929 . S
N487 Li442 1.990 . S
N487 C484 1.314 . S
N487 C485 1.279 . S
C488 C485 1.358 . S
C488 C489 1.356 . S
C488 H525 0.930 . S
C489 C486 1.348 . S
C489 C488 1.356 . S
H490 C484 0.930 . S
H491 C485 0.930 . S
C492 N493 1.314 . S
C492 C494 1.353 . S
C492 H498 0.930 . S
N493 Li443 1.990 . S
N493 C492 1.314 . S
N493 C496 1.279 . S
C494 C492 1.353 . S
C494 C497 1.348 . S
C494 H526 0.929 . S
C495 C496 1.358 . S
C495 C497 1.356 . S
C495 H527 0.930 . S
C496 N493 1.279 . S
C496 C495 1.358 . S
C496 H499 0.930 . S
C497 C494 1.348 . S
C497 C495 1.356 . S
H498 C492 0.930 . S
H499 C496 0.930 . S
O500 Li440 1.956 . S
O500 Li441 1.970 . S
O500 Li442 1.961 . S
O500 C444 1.325 . S
O501 Li440 1.970 . S
O501 Li441 1.956 . S
O501 Li443 1.961 . S
O501 C450 1.325 . S
O502 Li440 1.961 . S
O502 Li442 1.956 . S
O502 Li443 1.970 . S
O502 C472 1.325 . S
O503 Li441 1.961 . S
O503 Li442 1.970 . S
O503 Li443 1.956 . S
O503 C478 1.325 . S
H504 C446 0.929 . S
H505 C447 0.930 . S
H506 C448 0.930 . S
H507 C449 0.930 . S
H508 C451 0.930 . S
H509 C453 0.929 . S
H510 C454 0.930 . S
H511 C455 0.930 . S
H512 C458 0.930 . S
H513 C461 0.929 . S
H514 C466 0.929 . S
H515 C467 0.930 . S
H516 C474 0.929 . S
H517 C475 0.930 . S
H518 C476 0.930 . S
H519 C477 0.930 . S
H520 C479 0.929 . S
H521 C480 0.930 . S
H522 C481 0.930 . S
H523 C482 0.930 . S
H524 C486 0.929 . S
H525 C488 0.930 . S
H526 C494 0.929 . S
H527 C495 0.930 . S
Li528 N545 1.990 . S
Li528 O588 1.956 . S
Li528 O589 1.970 . S
Li528 O590 1.961 . S
Li529 N553 1.990 . S
Li529 O588 1.970 . S
Li529 O589 1.956 . S
Li529 O591 1.961 . S
Li530 N575 1.990 . S
Li530 O588 1.961 . S
Li530 O590 1.956 . S
Li530 O591 1.970 . S
Li531 N581 1.990 . S
Li531 O589 1.961 . S
Li531 O590 1.970 . S
Li531 O591 1.956 . S
C532 C534 1.348 . S
C532 C535 1.356 . S
C532 O588 1.325 . S
N533 C536 1.314 . S
N533 C537 1.279 . S
C534 C532 1.348 . S
C534 C536 1.353 . S
C534 H592 0.929 . S
C535 C532 1.356 . S
C535 C537 1.358 . S
C535 H593 0.930 . S
C536 N533 1.314 . S
C536 C534 1.353 . S
C536 H594 0.930 . S
C537 N533 1.279 . S
C537 C535 1.358 . S
C537 H595 0.930 . S
C538 C541 1.348 . S
C538 C542 1.356 . S
C538 O589 1.325 . S
C539 N540 1.279 . S
C539 C542 1.358 . S
C539 H596 0.930 . S
N540 C539 1.279 . S
N540 C543 1.314 . S
C541 C538 1.348 . S
C541 C543 1.353 . S
C541 H597 0.929 . S
C542 C538 1.356 . S
C542 C539 1.358 . S
C542 H598 0.930 . S
C543 N540 1.314 . S
C543 C541 1.353 . S
C543 H599 0.930 . S
C544 N545 1.314 . S
C544 C549 1.353 . S
C544 H550 0.930 . S
N545 Li528 1.990 . S
N545 C544 1.314 . S
N545 C547 1.279 . S
C546 C547 1.358 . S
C546 C548 1.356 . S
C546 H600 0.930 . S
C547 N545 1.279 . S
C547 C546 1.358 . S
C547 H551 0.930 . S
C548 C546 1.356 . S
C548 C549 1.348 . S
C549 C544 1.353 . S
C549 C548 1.348 . S
C549 H601 0.929 . S
H550 C544 0.930 . S
H551 C547 0.930 . S
C552 N553 1.314 . S
C552 C554 1.353 . S
C552 H558 0.930 . S
N553 Li529 1.990 . S
N553 C552 1.314 . S
N553 C556 1.279 . S
C554 C552 1.353 . S
C554 C557 1.348 . S
C554 H602 0.929 . S
C555 C556 1.358 . S
C555 C557 1.356 . S
C555 H603 0.930 . S
C556 N553 1.279 . S
C556 C555 1.358 . S
C556 H559 0.930 . S
C557 C554 1.348 . S
C557 C555 1.356 . S
H558 C552 0.930 . S
H559 C556 0.930 . S
C560 C562 1.348 . S
C560 C563 1.356 . S
C560 O590 1.325 . S
N561 C564 1.314 . S
N561 C565 1.279 . S
C562 C560 1.348 . S
C562 C564 1.353 . S
C562 H604 0.929 . S
C563 C560 1.356 . S
C563 C565 1.358 . S
C563 H605 0.930 . S
C564 N561 1.314 . S
C564 C562 1.353 . S
C564 H606 0.930 . S
C565 N561 1.279 . S
C565 C563 1.358 . S
C565 H607 0.930 . S
C566 C567 1.348 . S
C566 C568 1.356 . S
C566 O591 1.325 . S
C567 C566 1.348 . S
C567 C569 1.353 . S
C567 H608 0.929 . S
C568 C566 1.356 . S
C568 C570 1.358 . S
C568 H609 0.930 . S
C569 C567 1.353 . S
C569 N571 1.314 . S
C569 H610 0.930 . S
C570 C568 1.358 . S
C570 N571 1.279 . S
C570 H611 0.930 . S
N571 C569 1.314 . S
N571 C570 1.279 . S
C572 C574 1.353 . S
C572 N575 1.314 . S
C572 H578 0.930 . S
C573 N575 1.279 . S
C573 C576 1.358 . S
C573 H579 0.930 . S
C574 C572 1.353 . S
C574 C577 1.348 . S
C574 H612 0.929 . S
N575 Li530 1.990 . S
N575 C572 1.314 . S
N575 C573 1.279 . S
C576 C573 1.358 . S
C576 C577 1.356 . S
C576 H613 0.930 . S
C577 C574 1.348 . S
C577 C576 1.356 . S
H578 C572 0.930 . S
H579 C573 0.930 . S
C580 N581 1.314 . S
C580 C582 1.353 . S
C580 H586 0.930 . S
N581 Li531 1.990 . S
N581 C580 1.314 . S
N581 C584 1.279 . S
C582 C580 1.353 . S
C582 C585 1.348 . S
C582 H614 0.929 . S
C583 C584 1.358 . S
C583 C585 1.356 . S
C583 H615 0.930 . S
C584 N581 1.279 . S
C584 C583 1.358 . S
C584 H587 0.930 . S
C585 C582 1.348 . S
C585 C583 1.356 . S
H586 C580 0.930 . S
H587 C584 0.930 . S
O588 Li528 1.956 . S
O588 Li529 1.970 . S
O588 Li530 1.961 . S
O588 C532 1.325 . S
O589 Li528 1.970 . S
O589 Li529 1.956 . S
O589 Li531 1.961 . S
O589 C538 1.325 . S
O590 Li528 1.961 . S
O590 Li530 1.956 . S
O590 Li531 1.970 . S
O590 C560 1.325 . S
O591 Li529 1.961 . S
O591 Li530 1.970 . S
O591 Li531 1.956 . S
O591 C566 1.325 . S
H592 C534 0.929 . S
H593 C535 0.930 . S
H594 C536 0.930 . S
H595 C537 0.930 . S
H596 C539 0.930 . S
H597 C541 0.929 . S
H598 C542 0.930 . S
H599 C543 0.930 . S
H600 C546 0.930 . S
H601 C549 0.929 . S
H602 C554 0.929 . S
H603 C555 0.930 . S
H604 C562 0.929 . S
H605 C563 0.930 . S
H606 C564 0.930 . S
H607 C565 0.930 . S
H608 C567 0.929 . S
H609 C568 0.930 . S
H610 C569 0.930 . S
H611 C570 0.930 . S
H612 C574 0.929 . S
H613 C576 0.930 . S
H614 C582 0.929 . S
H615 C583 0.930 . S
Li616 N633 1.990 1_554 S
Li616 O676 1.956 . S
Li616 O677 1.970 . S
Li616 O678 1.961 1_554 S
Li617 N641 1.990 . S
Li617 O676 1.970 . S
Li617 O677 1.956 . S
Li617 O679 1.961 . S
Li618 N663 1.990 . S
Li618 O676 1.961 . S
Li618 O678 1.956 1_554 S
Li618 O679 1.970 . S
Li619 N669 1.990 . S
Li619 O677 1.961 1_556 S
Li619 O678 1.970 . S
Li619 O679 1.956 1_556 S
C620 C622 1.348 . S
C620 C623 1.356 . S
C620 O676 1.325 . S
N621 C624 1.314 . S
N621 C625 1.279 . S
C622 C620 1.348 . S
C622 C624 1.353 . S
C622 H680 0.929 . S
C623 C620 1.356 . S
C623 C625 1.358 . S
C623 H681 0.930 . S
C624 N621 1.314 . S
C624 C622 1.353 . S
C624 H682 0.930 . S
C625 N621 1.279 . S
C625 C623 1.358 . S
C625 H683 0.930 . S
C626 C629 1.348 . S
C626 C630 1.356 . S
C626 O677 1.325 . S
C627 N628 1.279 . S
C627 C630 1.358 . S
C627 H684 0.930 1_554 S
N628 C627 1.279 . S
N628 C631 1.314 . S
C629 C626 1.348 . S
C629 C631 1.353 . S
C629 H685 0.929 . S
C630 C626 1.356 . S
C630 C627 1.358 . S
C630 H686 0.931 . S
C631 N628 1.314 . S
C631 C629 1.353 . S
C631 H687 0.930 . S
C632 N633 1.314 . S
C632 C637 1.353 . S
C632 H638 0.930 . S
N633 Li616 1.990 1_556 S
N633 C632 1.314 . S
N633 C635 1.279 1_556 S
C634 C635 1.358 . S
C634 C636 1.356 1_554 S
C634 H688 0.930 . S
C635 N633 1.279 1_554 S
C635 C634 1.358 . S
C635 H639 0.930 . S
C636 C634 1.356 1_556 S
C636 C637 1.348 . S
C637 C632 1.353 . S
C637 C636 1.348 . S
C637 H689 0.929 . S
H638 C632 0.930 . S
H639 C635 0.930 . S
C640 N641 1.314 . S
C640 C642 1.353 . S
C640 H646 0.930 . S
N641 Li617 1.990 . S
N641 C640 1.314 . S
N641 C644 1.279 . S
C642 C640 1.353 . S
C642 C645 1.348 . S
C642 H690 0.929 . S
C643 C644 1.358 . S
C643 C645 1.356 . S
C643 H691 0.930 . S
C644 N641 1.279 . S
C644 C643 1.358 . S
C644 H647 0.930 . S
C645 C642 1.348 . S
C645 C643 1.356 . S
H646 C640 0.930 . S
H647 C644 0.930 . S
C648 C650 1.348 . S
C648 C651 1.356 . S
C648 O678 1.325 . S
N649 C652 1.314 . S
N649 C653 1.279 . S
C650 C648 1.348 . S
C650 C652 1.353 . S
C650 H692 0.929 . S
C651 C648 1.356 . S
C651 C653 1.358 . S
C651 H693 0.930 . S
C652 N649 1.314 . S
C652 C650 1.353 . S
C652 H694 0.930 . S
C653 N649 1.279 . S
C653 C651 1.358 . S
C653 H695 0.930 . S
C654 C655 1.348 . S
C654 C656 1.356 . S
C654 O679 1.325 . S
C655 C654 1.348 . S
C655 C657 1.353 . S
C655 H696 0.929 . S
C656 C654 1.356 . S
C656 C658 1.358 . S
C656 H697 0.930 . S
C657 C655 1.353 . S
C657 N659 1.314 . S
C657 H698 0.930 . S
C658 C656 1.358 . S
C658 N659 1.279 . S
C658 H699 0.930 . S
N659 C657 1.314 . S
N659 C658 1.279 . S
C660 C662 1.353 . S
C660 N663 1.314 . S
C660 H666 0.930 . S
C661 N663 1.279 1_556 S
C661 C664 1.358 . S
C661 H667 0.930 . S
C662 C660 1.353 . S
C662 C665 1.348 . S
C662 H700 0.929 . S
N663 Li618 1.990 . S
N663 C660 1.314 . S
N663 C661 1.279 1_554 S
C664 C661 1.358 . S
C664 C665 1.356 1_556 S
C664 H701 0.930 . S
C665 C662 1.348 . S
C665 C664 1.356 1_554 S
H666 C660 0.930 . S
H667 C661 0.930 . S
C668 N669 1.314 . S
C668 C670 1.353 . S
C668 H674 0.930 . S
N669 Li619 1.990 . S
N669 C668 1.314 . S
N669 C672 1.279 . S
C670 C668 1.353 . S
C670 C673 1.348 . S
C670 H702 0.929 . S
C671 C672 1.358 . S
C671 C673 1.356 . S
C671 H703 0.930 . S
C672 N669 1.279 . S
C672 C671 1.358 . S
C672 H675 0.930 . S
C673 C670 1.348 . S
C673 C671 1.356 . S
H674 C668 0.930 . S
H675 C672 0.930 . S
O676 Li616 1.956 . S
O676 Li617 1.970 . S
O676 Li618 1.961 . S
O676 C620 1.325 . S
O677 Li616 1.970 . S
O677 Li617 1.956 . S
O677 Li619 1.961 1_554 S
O677 C626 1.325 . S
O678 Li616 1.961 1_556 S
O678 Li618 1.956 1_556 S
O678 Li619 1.970 . S
O678 C648 1.325 . S
O679 Li617 1.961 . S
O679 Li618 1.970 . S
O679 Li619 1.956 1_554 S
O679 C654 1.325 . S
H680 C622 0.929 . S
H681 C623 0.930 . S
H682 C624 0.930 . S
H683 C625 0.930 . S
H684 C627 0.930 1_556 S
H685 C629 0.929 . S
H686 C630 0.931 . S
H687 C631 0.930 . S
H688 C634 0.930 . S
H689 C637 0.929 . S
H690 C642 0.929 . S
H691 C643 0.930 . S
H692 C650 0.929 . S
H693 C651 0.930 . S
H694 C652 0.930 . S
H695 C653 0.930 . S
H696 C655 0.929 . S
H697 C656 0.930 . S
H698 C657 0.930 . S
H699 C658 0.930 . S
H700 C662 0.929 . S
H701 C664 0.930 . S
H702 C670 0.929 . S
H703 C671 0.930 . S
C704 C705 1.369 . S
C704 C706 1.419 . S
C704 H708 0.930 . S
C705 C704 1.369 . S
C705 C714 1.429 . S
C706 C704 1.419 . S
C706 C707 1.363 . S
C706 H709 0.929 . S
C707 C706 1.363 . S
C707 C713 1.428 . S
H708 C704 0.930 . S
H709 C706 0.929 . S
S710 N711 1.613 . S
S710 N712 1.610 . S
N711 S710 1.613 . S
N711 C714 1.350 . S
N712 S710 1.610 . S
N712 C713 1.351 . S
C713 C707 1.428 . S
C713 N712 1.351 . S
C713 C714 1.434 . S
C714 C705 1.429 . S
C714 N711 1.350 . S
C714 C713 1.434 . S
C715 C716 1.369 . S
C715 C717 1.419 . S
C715 H719 0.930 . S
C716 C715 1.369 . S
C716 C725 1.429 . S
C717 C715 1.419 . S
C717 C718 1.363 . S
C717 H720 0.929 . S
C718 C717 1.363 . S
C718 C724 1.428 . S
H719 C715 0.930 . S
H720 C717 0.929 . S
S721 N722 1.613 . S
S721 N723 1.610 . S
N722 S721 1.613 . S
N722 C725 1.350 . S
N723 S721 1.610 . S
N723 C724 1.351 . S
C724 C718 1.428 . S
C724 N723 1.351 . S
C724 C725 1.434 . S
C725 C716 1.429 . S
C725 N722 1.350 . S
C725 C724 1.434 . S
C726 C727 1.369 . S
C726 C728 1.419 1_554 S
C726 H730 0.930 . S
C727 C726 1.369 . S
C727 C736 1.429 . S
C728 C726 1.419 1_556 S
C728 C729 1.363 . S
C728 H731 0.929 . S
C729 C728 1.363 . S
C729 C735 1.428 1_556 S
H730 C726 0.930 . S
H731 C728 0.929 . S
S732 N733 1.613 . S
S732 N734 1.610 . S
N733 S732 1.613 . S
N733 C736 1.350 . S
N734 S732 1.610 . S
N734 C735 1.351 . S
C735 C729 1.428 1_554 S
C735 N734 1.351 . S
C735 C736 1.434 . S
C736 C727 1.429 . S
C736 N733 1.350 . S
C736 C735 1.434 . S
C737 C738 1.369 . S
C737 C739 1.419 . S
C737 H741 0.930 . S
C738 C737 1.369 . S
C738 C747 1.429 . S
C739 C737 1.419 . S
C739 C740 1.363 . S
C739 H742 0.929 . S
C740 C739 1.363 . S
C740 C746 1.428 . S
H741 C737 0.930 . S
H742 C739 0.929 . S
S743 N744 1.613 . S
S743 N745 1.610 . S
N744 S743 1.613 . S
N744 C747 1.350 . S
N745 S743 1.610 . S
N745 C746 1.351 . S
C746 C740 1.428 . S
C746 N745 1.351 . S
C746 C747 1.434 . S
C747 C738 1.429 . S
C747 N744 1.350 . S
C747 C746 1.434 . S
C748 C749 1.369 . S
C748 C750 1.419 . S
C748 H752 0.930 . S
C749 C748 1.369 . S
C749 C758 1.429 . S
C750 C748 1.419 . S
C750 C751 1.363 . S
C750 H753 0.929 . S
C751 C750 1.363 . S
C751 C757 1.428 . S
H752 C748 0.930 . S
H753 C750 0.929 . S
S754 N755 1.613 . S
S754 N756 1.610 . S
N755 S754 1.613 . S
N755 C758 1.350 . S
N756 S754 1.610 . S
N756 C757 1.351 . S
C757 C751 1.428 . S
C757 N756 1.351 . S
C757 C758 1.434 . S
C758 C749 1.429 . S
C758 N755 1.350 . S
C758 C757 1.434 . S
C759 C760 1.369 . S
C759 C761 1.419 . S
C759 H763 0.930 . S
C760 C759 1.369 . S
C760 C769 1.429 . S
C761 C759 1.419 . S
C761 C762 1.363 . S
C761 H764 0.929 . S
C762 C761 1.363 . S
C762 C768 1.428 . S
H763 C759 0.930 . S
H764 C761 0.929 . S
S765 N766 1.613 . S
S765 N767 1.610 . S
N766 S765 1.613 . S
N766 C769 1.350 . S
N767 S765 1.610 . S
N767 C768 1.351 . S
C768 C762 1.428 . S
C768 N767 1.351 . S
C768 C769 1.434 . S
C769 C760 1.429 . S
C769 N766 1.350 . S
C769 C768 1.434 . S
C770 C771 1.369 . S
C770 C772 1.419 . S
C770 H774 0.930 . S
C771 C770 1.369 . S
C771 C780 1.429 . S
C772 C770 1.419 . S
C772 C773 1.363 . S
C772 H775 0.929 . S
C773 C772 1.363 . S
C773 C779 1.428 . S
H774 C770 0.930 . S
H775 C772 0.929 . S
S776 N777 1.613 . S
S776 N778 1.610 . S
N777 S776 1.613 . S
N777 C780 1.350 . S
N778 S776 1.610 . S
N778 C779 1.351 . S
C779 C773 1.428 . S
C779 N778 1.351 . S
C779 C780 1.434 . S
C780 C771 1.429 . S
C780 N777 1.350 . S
C780 C779 1.434 . S
C781 C782 1.369 . S
C781 C783 1.419 . S
C781 H785 0.930 . S
C782 C781 1.369 . S
C782 C791 1.429 . S
C783 C781 1.419 . S
C783 C784 1.363 . S
C783 H786 0.929 . S
C784 C783 1.363 . S
C784 C790 1.428 . S
H785 C781 0.930 . S
H786 C783 0.929 . S
S787 N788 1.613 . S
S787 N789 1.610 . S
N788 S787 1.613 . S
N788 C791 1.350 . S
N789 S787 1.610 . S
N789 C790 1.351 . S
C790 C784 1.428 . S
C790 N789 1.351 . S
C790 C791 1.434 . S
C791 C782 1.429 . S
C791 N788 1.350 . S
C791 C790 1.434 . S
C792 C793 1.369 . S
C792 C794 1.419 1_565 S
C792 H796 0.930 . S
C793 C792 1.369 . S
C793 C802 1.429 . S
C794 C792 1.419 1_545 S
C794 C795 1.363 . S
C794 H797 0.929 . S
C795 C794 1.363 . S
C795 C801 1.428 . S
H796 C792 0.930 . S
H797 C794 0.929 . S
S798 N799 1.616 1_545 S
S798 N800 1.608 . S
N799 S798 1.616 1_565 S
N799 C802 1.350 . S
N800 S798 1.608 . S
N800 C801 1.351 . S
C801 C795 1.428 . S
C801 N800 1.351 . S
C801 C802 1.434 1_545 S
C802 C793 1.429 . S
C802 N799 1.350 . S
C802 C801 1.434 1_565 S
C803 C804 1.369 . S
C803 C805 1.419 1_655 S
C803 H807 0.930 . S
C804 C803 1.369 . S
C804 C813 1.429 . S
C805 C803 1.419 1_455 S
C805 C806 1.363 . S
C805 H808 0.929 . S
C806 C805 1.363 . S
C806 C812 1.428 . S
H807 C803 0.930 . S
H808 C805 0.929 . S
S809 N810 1.613 . S
S809 N811 1.610 1_655 S
N810 S809 1.613 . S
N810 C813 1.350 . S
N811 S809 1.610 1_455 S
N811 C812 1.351 . S
C812 C806 1.428 . S
C812 N811 1.351 . S
C812 C813 1.434 1_455 S
C813 C804 1.429 . S
C813 N810 1.350 . S
C813 C812 1.434 1_655 S
C814 C815 1.369 . S
C814 C816 1.419 1_565 S
C814 H818 0.930 . S
C815 C814 1.369 . S
C815 C824 1.429 . S
C816 C814 1.419 1_545 S
C816 C817 1.363 . S
C816 H819 0.929 . S
C817 C816 1.363 . S
C817 C823 1.428 . S
H818 C814 0.930 . S
H819 C816 0.929 . S
S820 N821 1.613 1_545 S
S820 N822 1.610 . S
N821 S820 1.613 1_565 S
N821 C824 1.350 . S
N822 S820 1.610 . S
N822 C823 1.351 . S
C823 C817 1.428 . S
C823 N822 1.351 . S
C823 C824 1.434 1_545 S
C824 C815 1.429 . S
C824 N821 1.350 . S
C824 C823 1.434 1_565 S
C825 C826 1.369 . S
C825 C827 1.419 1_655 S
C825 H829 0.930 . S
C826 C825 1.369 . S
C826 C835 1.429 1_554 S
C827 C825 1.419 1_455 S
C827 C828 1.363 . S
C827 H830 0.929 . S
C828 C827 1.363 . S
C828 C834 1.428 1_554 S
H829 C825 0.930 . S
H830 C827 0.929 . S
S831 N832 1.613 . S
S831 N833 1.610 1_655 S
N832 S831 1.613 . S
N832 C835 1.350 . S
N833 S831 1.610 1_455 S
N833 C834 1.351 . S
C834 C828 1.428 1_556 S
C834 N833 1.351 . S
C834 C835 1.434 1_455 S
C835 C826 1.429 1_556 S
C835 N832 1.350 . S
C835 C834 1.434 1_655 S
C836 C837 1.369 1_554 S
C836 C838 1.419 . S
C836 H840 0.930 . S
C837 C836 1.369 1_556 S
C837 C846 1.429 . S
C838 C836 1.419 . S
C838 C839 1.363 . S
C838 H841 0.929 . S
C839 C838 1.363 . S
C839 C845 1.428 . S
H840 C836 0.930 . S
H841 C838 0.929 . S
S842 N843 1.613 . S
S842 N844 1.610 . S
N843 S842 1.613 . S
N843 C846 1.350 . S
N844 S842 1.610 . S
N844 C845 1.351 1_556 S
C845 C839 1.428 . S
C845 N844 1.351 1_554 S
C845 C846 1.434 1_554 S
C846 C837 1.429 . S
C846 N843 1.350 . S
C846 C845 1.434 1_556 S
C847 C848 1.369 . S
C847 C849 1.419 . S
C847 H851 0.930 . S
C848 C847 1.369 . S
C848 C857 1.429 . S
C849 C847 1.419 . S
C849 C850 1.363 . S
C849 H852 0.929 . S
C850 C849 1.363 . S
C850 C856 1.428 . S
H851 C847 0.930 . S
H852 C849 0.929 . S
S853 N854 1.613 . S
S853 N855 1.610 . S
N854 S853 1.613 . S
N854 C857 1.350 . S
N855 S853 1.610 . S
N855 C856 1.351 . S
C856 C850 1.428 . S
C856 N855 1.351 . S
C856 C857 1.434 . S
C857 C848 1.429 . S
C857 N854 1.350 . S
C857 C856 1.434 . S
C858 C859 1.369 . S
C858 C860 1.419 . S
C858 H862 0.930 . S
C859 C858 1.369 . S
C859 C868 1.429 . S
C860 C858 1.419 . S
C860 C861 1.363 . S
C860 H863 0.929 . S
C861 C860 1.363 . S
C861 C867 1.428 . S
H862 C858 0.930 . S
H863 C860 0.929 . S
S864 N865 1.613 . S
S864 N866 1.610 . S
N865 S864 1.613 . S
N865 C868 1.350 . S
N866 S864 1.610 . S
N866 C867 1.351 . S
C867 C861 1.428 . S
C867 N866 1.351 . S
C867 C868 1.434 . S
C868 C859 1.429 . S
C868 N865 1.350 . S
C868 C867 1.434 . S
C869 C870 1.369 . S
C869 C871 1.419 . S
C869 H873 0.930 . S
C870 C869 1.369 . S
C870 C879 1.429 . S
C871 C869 1.419 . S
C871 C872 1.363 . S
C871 H874 0.929 . S
C872 C871 1.363 . S
C872 C878 1.428 . S
H873 C869 0.930 . S
H874 C871 0.929 . S
S875 N876 1.613 . S
S875 N877 1.610 . S
N876 S875 1.613 . S
N876 C879 1.350 . S
N877 S875 1.610 . S
N877 C878 1.351 . S
C878 C872 1.428 . S
C878 N877 1.351 . S
C878 C879 1.434 . S
C879 C870 1.429 . S
C879 N876 1.350 . S
C879 C878 1.434 . S
C705 C29 0.973 . S
C707 C585 0.972 . S
C716 C108 0.970 . S
C718 C673 0.972 . S
C727 C401 0.970 . S
C729 C196 0.970 . S
C738 C489 0.971 . S
C740 C293 0.972 . S
C749 C49 1.651 . S
C751 C469 1.661 . S
C760 C145 1.650 . S
C762 C548 1.661 . S
C771 C636 1.662 . S
C773 C233 1.651 . S
C782 C313 1.663 . S
C784 C381 1.651 . S
C793 C409 1.435 . S
C795 C20 1.435 . S
C804 C117 1.431 . S
C806 C497 1.433 . S
C815 C205 1.433 . S
C817 C577 1.432 . S
C826 C665 1.430 . S
C828 C284 1.432 . S
C837 C557 1.792 . S
C839 C57 1.795 . S
C848 C645 1.789 . S
C850 C137 1.795 . S
C859 C225 1.796 . S
C861 C372 1.792 . S
C870 C321 1.796 . S
C872 C460 1.789 . S
