# Generated by pormake.
# Topology wnr, (7)-cn, num edge types: 1
# Building blocks:
#     Node 0, Type 0, BuildingBlock: NUHQUE_clean_sbu_2, # of connection points: 7
#     Node 1, Type 0, BuildingBlock: NUHQUE_clean_sbu_2, # of connection points: 7
#     Node 2, Type 0, BuildingBlock: NUHQUE_clean_sbu_2, # of connection points: 7
#     Node 3, Type 0, BuildingBlock: NUHQUE_clean_sbu_2, # of connection points: 7
#     Node 4, Type 0, BuildingBlock: NUHQUE_clean_sbu_2, # of connection points: 7
#     Node 5, Type 0, BuildingBlock: NUHQUE_clean_sbu_2, # of connection points: 7
#     Edge 6, Type (0, 0), BuildingBlock: XUDNAN_clean_linker_2, # of connection points: 2
#     Edge 7, Type (0, 0), BuildingBlock: XUDNAN_clean_linker_2, # of connection points: 2
#     Edge 8, Type (0, 0), BuildingBlock: XUDNAN_clean_linker_2, # of connection points: 2
#     Edge 9, Type (0, 0), BuildingBlock: XUDNAN_clean_linker_2, # of connection points: 2
#     Edge 10, Type (0, 0), BuildingBlock: XUDNAN_clean_linker_2, # of connection points: 2
#     Edge 11, Type (0, 0), BuildingBlock: XUDNAN_clean_linker_2, # of connection points: 2
#     Edge 12, Type (0, 0), BuildingBlock: XUDNAN_clean_linker_2, # of connection points: 2
#     Edge 13, Type (0, 0), BuildingBlock: XUDNAN_clean_linker_2, # of connection points: 2
#     Edge 14, Type (0, 0), BuildingBlock: XUDNAN_clean_linker_2, # of connection points: 2
#     Edge 15, Type (0, 0), BuildingBlock: XUDNAN_clean_linker_2, # of connection points: 2
#     Edge 16, Type (0, 0), BuildingBlock: XUDNAN_clean_linker_2, # of connection points: 2
#     Edge 17, Type (0, 0), BuildingBlock: XUDNAN_clean_linker_2, # of connection points: 2
#     Edge 18, Type (0, 0), BuildingBlock: XUDNAN_clean_linker_2, # of connection points: 2
#     Edge 19, Type (0, 0), BuildingBlock: XUDNAN_clean_linker_2, # of connection points: 2
#     Edge 20, Type (0, 0), BuildingBlock: XUDNAN_clean_linker_2, # of connection points: 2
#     Edge 21, Type (0, 0), BuildingBlock: XUDNAN_clean_linker_2, # of connection points: 2
#     Edge 22, Type (0, 0), BuildingBlock: XUDNAN_clean_linker_2, # of connection points: 2
#     Edge 23, Type (0, 0), BuildingBlock: XUDNAN_clean_linker_2, # of connection points: 2
#     Edge 24, Type (0, 0), BuildingBlock: XUDNAN_clean_linker_2, # of connection points: 2
#     Edge 25, Type (0, 0), BuildingBlock: XUDNAN_clean_linker_2, # of connection points: 2
#     Edge 26, Type (0, 0), BuildingBlock: XUDNAN_clean_linker_2, # of connection points: 2
# Relax obj value: 0.187
# Max RMSD: 0.215
# Mean RMSD: 0.215
data_MOF--net-wnr--node1-NUHQUE_clean_sbu_2--edge1-XUDNAN_clean_linker_2
_symmetry_space_group_name_H-M    P1
_symmetry_Int_Tables_number       1
_symmetry_cell_setting            triclinic
loop_
_symmetry_equiv_pos_as_xyz
'x, y, z'
_cell_length_a     46.159707
_cell_length_b     46.139306
_cell_length_c     18.036225
_cell_angle_alpha  89.954849
_cell_angle_beta   90.33485
_cell_angle_gamma 120.18084
loop_
_atom_site_label
_atom_site_type_symbol
_atom_site_fract_x
_atom_site_fract_y
_atom_site_fract_z
_atom_type_partial_charge
O0 O 0.27506 0.45269 0.87946 0.0
Tb1 Tb 0.29934 0.48532 0.97538 0.0
Eu2 Eu 0.25543 0.42457 0.12641 0.0
C3 C 0.293 0.44422 0.83755 0.0
O4 O 0.32314 0.45206 0.86047 0.0
C5 C 0.3175 0.4312 0.03221 0.0
O6 O 0.26071 0.41377 0.24729 0.0
C7 C 0.19289 0.39344 0.08524 0.0
C8 C 0.24765 0.42296 0.30099 0.0
O9 O 0.23024 0.43741 0.28335 0.0
C10 C 0.26827 0.49846 0.11452 0.0
C11 C 0.16001 0.39072 0.09921 0.0
C12 C 0.14023 0.38918 0.03772 0.0
C13 C 0.10841 0.38544 0.04822 0.0
C14 C 0.09628 0.38265 0.12002 0.0
C15 C 0.11505 0.38341 0.18156 0.0
C16 C 0.14714 0.38762 0.17168 0.0
O17 O 0.328 0.46332 0.02145 0.0
O18 O 0.28757 0.41031 0.05894 0.0
O19 O 0.31623 0.52084 0.88323 0.0
O20 O 0.34547 0.53479 0.98134 0.0
C21 C 0.34309 0.54441 0.91487 0.0
O22 O 0.27451 0.47857 0.1551 0.0
O23 O 0.26573 0.49522 0.04183 0.0
O24 O 0.20496 0.38205 0.13655 0.0
O25 O 0.21601 0.42088 0.05265 0.0
H26 H 0.14948 0.39069 0.9819 0.0
H27 H 0.07126 0.37871 0.1283 0.0
H28 H 0.16164 0.38811 0.2196 0.0
O29 O 0.57947 0.82915 0.54939 0.0
Tb30 Tb 0.54818 0.82621 0.64256 0.0
Eu31 Eu 0.59862 0.81823 0.79467 0.0
C32 C 0.59063 0.85466 0.50319 0.0
O33 O 0.58705 0.88031 0.52088 0.0
C34 C 0.6087 0.8882 0.72199 0.0
O35 O 0.60514 0.82083 0.91933 0.0
C36 C 0.62852 0.78737 0.74406 0.0
C37 C 0.60243 0.84263 0.96143 0.0
O38 O 0.59605 0.86461 0.93042 0.0
C39 C 0.52392 0.76587 0.75054 0.0
C40 C 0.6298 0.75601 0.75034 0.0
C41 C 0.63027 0.73974 0.68463 0.0
C42 C 0.63362 0.71118 0.68772 0.0
C43 C 0.63644 0.69897 0.75655 0.0
C44 C 0.63708 0.71513 0.82242 0.0
C45 C 0.63383 0.74386 0.81959 0.0
O46 O 0.57705 0.87416 0.70084 0.0
O47 O 0.62203 0.87079 0.74843 0.0
O48 O 0.51995 0.82915 0.54809 0.0
O49 O 0.49692 0.81796 0.65333 0.0
C50 C 0.49291 0.82236 0.58347 0.0
O51 O 0.54292 0.7835 0.80653 0.0
O52 O 0.533 0.7759 0.68197 0.0
O53 O 0.63952 0.80797 0.80098 0.0
O54 O 0.60228 0.78589 0.71098 0.0
H55 H 0.62891 0.74978 0.63117 0.0
H56 H 0.64059 0.67781 0.75877 0.0
H57 H 0.63492 0.75678 0.87058 0.0
O58 O 0.21204 0.74607 0.18477 0.0
Tb59 Tb 0.21474 0.72819 0.2953 0.0
Eu60 Eu 0.20328 0.7687 0.46318 0.0
C61 C 0.18838 0.75271 0.1661 0.0
O62 O 0.16762 0.75143 0.21721 0.0
C63 C 0.14177 0.70657 0.36844 0.0
O64 O 0.19911 0.7652 0.58839 0.0
C65 C 0.22084 0.82947 0.42296 0.0
C66 C 0.17359 0.76473 0.62174 0.0
O67 O 0.15023 0.76533 0.58089 0.0
C68 C 0.26866 0.77029 0.41126 0.0
C69 C 0.24819 0.86464 0.4331 0.0
C70 C 0.26071 0.88553 0.37042 0.0
C71 C 0.28403 0.91978 0.37897 0.0
C72 C 0.29577 0.9329 0.44957 0.0
C73 C 0.28243 0.91315 0.51269 0.0
C74 C 0.25874 0.87887 0.50459 0.0
O75 O 0.1615 0.70209 0.32282 0.0
O76 O 0.15208 0.73003 0.42011 0.0
O77 O 0.22822 0.69794 0.2259 0.0
O78 O 0.22395 0.68963 0.34207 0.0
C79 C 0.23036 0.68016 0.27925 0.0
O80 O 0.24775 0.76104 0.46702 0.0
O81 O 0.2582 0.7716 0.34399 0.0
O82 O 0.20206 0.81454 0.48083 0.0
O83 O 0.22705 0.8095 0.38252 0.0
H84 H 0.25078 0.87564 0.31574 0.0
H85 H 0.31259 0.95973 0.45576 0.0
H86 H 0.2476 0.86387 0.55369 0.0
O87 O 0.46767 0.27668 0.13279 0.0
Tb88 Tb 0.49475 0.29412 0.02874 0.0
Eu89 Eu 0.43473 0.24182 0.88553 0.0
C90 C 0.46864 0.29819 0.18215 0.0
O91 O 0.48386 0.33021 0.16531 0.0
C92 C 0.44058 0.3096 0.95681 0.0
O93 O 0.42665 0.24096 0.76187 0.0
C94 C 0.39589 0.18207 0.93788 0.0
C95 C 0.44227 0.26826 0.72143 0.0
O96 O 0.4622 0.29703 0.75427 0.0
C97 C 0.5031 0.24662 0.9241 0.0
C98 C 0.38927 0.14711 0.9373 0.0
C99 C 0.3869 0.13135 1.00567 0.0
C100 C 0.37668 0.09709 1.00867 0.0
C101 C 0.37009 0.07894 0.94261 0.0
C102 C 0.37079 0.09363 0.87446 0.0
C103 C 0.38051 0.1278 0.87151 0.0
O104 O 0.47187 0.32075 0.97768 0.0
O105 O 0.42087 0.27902 0.9311 0.0
O106 O 0.53724 0.32562 0.10208 0.0
O107 O 0.54457 0.32943 0.98575 0.0
C108 C 0.55898 0.34075 0.04979 0.0
O109 O 0.48717 0.25098 0.86869 0.0
O110 O 0.49506 0.2494 0.99231 0.0
O111 O 0.38926 0.19339 0.877 0.0
O112 O 0.42276 0.20486 0.97338 0.0
H113 H 0.39114 0.14527 0.05688 0.0
H114 H 0.36049 0.05211 0.94471 0.0
H115 H 0.37972 0.13871 0.81885 0.0
O116 O 0.7638 0.20023 0.80048 0.0
Tb117 Tb 0.7319 0.19702 0.70723 0.0
Eu118 Eu 0.78788 0.20226 0.55231 0.0
C119 C 0.75236 0.17785 0.85424 0.0
O120 O 0.72297 0.15059 0.84599 0.0
C121 C 0.72964 0.13339 0.63342 0.0
O122 O 0.78584 0.19489 0.42772 0.0
C123 C 0.8496 0.23162 0.59916 0.0
C124 C 0.80604 0.22027 0.38527 0.0
O125 O 0.82681 0.2491 0.41691 0.0
C126 C 0.76683 0.25587 0.59373 0.0
C127 C 0.88379 0.26133 0.59932 0.0
C128 C 0.89974 0.27368 0.66841 0.0
C129 C 0.93339 0.29911 0.67161 0.0
C130 C 0.9509 0.31287 0.60639 0.0
C131 C 0.93576 0.30126 0.53724 0.0
C132 C 0.90215 0.27509 0.53324 0.0
O133 O 0.71244 0.14736 0.6568 0.0
O134 O 0.7594 0.15045 0.60234 0.0
O135 O 0.70015 0.19388 0.79976 0.0
O136 O 0.68899 0.20528 0.6935 0.0
C137 C 0.68011 0.20071 0.7629 0.0
O138 O 0.76817 0.23787 0.53898 0.0
O139 O 0.76619 0.24673 0.66306 0.0
O140 O 0.83908 0.21304 0.53894 0.0
O141 O 0.8257 0.23325 0.63515 0.0
H142 H 0.88643 0.26267 0.71948 0.0
H143 H 0.97707 0.33247 0.60959 0.0
H144 H 0.89067 0.26542 0.47958 0.0
O145 O 0.83556 0.56861 0.45042 0.0
Tb146 Tb 0.8243 0.53497 0.35561 0.0
Eu147 Eu 0.84003 0.59741 0.2109 0.0
C148 C 0.85608 0.56854 0.50166 0.0
O149 O 0.87181 0.55206 0.48748 0.0
C150 C 0.89657 0.58778 0.29535 0.0
O151 O 0.84828 0.61007 0.08828 0.0
C152 C 0.81097 0.62769 0.26873 0.0
C153 C 0.85885 0.59474 0.04364 0.0
O154 O 0.8671 0.57366 0.07227 0.0
C155 C 0.77933 0.52285 0.21729 0.0
C156 C 0.78299 0.6344 0.26029 0.0
C157 C 0.76838 0.63837 0.32496 0.0
C158 C 0.74412 0.64805 0.31991 0.0
C159 C 0.73421 0.65342 0.25066 0.0
C160 C 0.74748 0.64856 0.18574 0.0
C161 C 0.77203 0.63901 0.19007 0.0
O162 O 0.87447 0.55591 0.30796 0.0
O163 O 0.88801 0.60931 0.27022 0.0
O164 O 0.80287 0.49869 0.44595 0.0
O165 O 0.82187 0.48597 0.35289 0.0
C166 C 0.80767 0.4757 0.41716 0.0
O167 O 0.80486 0.54402 0.17711 0.0
O168 O 0.78037 0.52534 0.29003 0.0
O169 O 0.83544 0.64175 0.22041 0.0
O170 O 0.80387 0.59737 0.28887 0.0
H171 H 0.77627 0.63455 0.37907 0.0
H172 H 0.71494 0.66032 0.24716 0.0
H173 H 0.78251 0.63538 0.1397 0.0
H174 H 0.08794 0.34046 0.93351 0.0
H175 H 0.07604 0.42034 0.02714 0.0
H176 H 0.02699 0.40423 0.94588 0.0
H177 H 0.06188 0.34776 0.74152 0.0
H178 H 0.04121 0.30308 0.72701 0.0
H179 H 0.07712 0.32332 0.78776 0.0
H180 H 0.04183 0.28251 0.8926 0.0
H181 H 1.00547 0.263 0.83304 0.0
H182 H 1.00345 0.28048 0.92088 0.0
H183 H 0.97628 0.37624 0.86349 0.0
H184 H 0.93315 0.34443 0.76727 0.0
H185 H 0.97824 0.28329 0.72677 0.0
C186 C 0.07574 0.35529 0.93472 0.0
C187 C 0.08572 0.38168 0.98615 0.0
C188 C 0.06872 0.4001 0.98768 0.0
C189 C 0.04072 0.39097 0.9423 0.0
C190 C 0.03028 0.36358 0.89523 0.0
C191 C 0.04775 0.34657 0.88951 0.0
C192 C 0.03097 0.31784 0.8348 0.0
C193 C 0.05417 0.32334 0.76886 0.0
C194 C 1.01977 0.28396 0.87264 0.0
C195 C 1.00113 0.32107 0.81175 0.0
C196 C 1.00102 0.34745 0.84768 0.0
C197 C 0.97607 0.35553 0.83488 0.0
C198 C 0.95145 0.33712 0.7812 0.0
C199 C 0.95215 0.3111 0.74161 0.0
C200 C 0.97681 0.30254 0.75818 0.0
H201 H 0.75143 0.70559 0.37813 0.0
H202 H 0.69657 0.59759 0.40229 0.0
H203 H 0.65766 0.60199 0.4896 0.0
H204 H 0.74366 0.72478 0.57207 0.0
H205 H 0.74001 0.76064 0.54698 0.0
H206 H 0.76362 0.74819 0.48942 0.0
H207 H 0.72692 0.74508 0.37688 0.0
H208 H 0.70236 0.75625 0.43485 0.0
H209 H 0.68208 0.7181 0.38111 0.0
H210 H 0.62284 0.61802 0.5663 0.0
H211 H 0.60141 0.64502 0.65052 0.0
H212 H 0.68016 0.74292 0.57951 0.0
C213 C 0.7318 0.68305 0.40382 0.0
C214 C 0.72708 0.65128 0.38517 0.0
C215 C 0.7008 0.62211 0.41776 0.0
C216 C 0.67838 0.62439 0.46623 0.0
C217 C 0.68287 0.65604 0.48129 0.0
C218 C 0.70946 0.68493 0.45276 0.0
C219 C 0.70915 0.7159 0.47935 0.0
C220 C 0.74099 0.73871 0.52468 0.0
C221 C 0.70487 0.73494 0.41414 0.0
C222 C 0.67827 0.69993 0.52762 0.0
C223 C 0.66312 0.66535 0.52664 0.0
C224 C 0.63455 0.64506 0.56782 0.0
C225 C 0.62238 0.66057 0.61484 0.0
C226 C 0.6391 0.69597 0.62109 0.0
C227 C 0.66652 0.71585 0.57459 0.0
H228 H 0.33061 0.93958 0.26733 0.0
H229 H 0.25417 0.95633 0.36199 0.0
H230 H 0.27342 1.00691 0.28486 0.0
H231 H 0.3947 0.02425 0.25621 0.0
H232 H 0.41074 0.02094 0.16766 0.0
H233 H 0.39027 0.98483 0.22714 0.0
H234 H 0.3479 0.95069 0.12267 0.0
H235 H 0.36893 0.98636 0.06219 0.0
H236 H 0.32455 0.96757 0.07796 0.0
H237 H 0.30339 0.05759 0.20644 0.0
H238 H 0.33465 0.09952 0.10984 0.0
H239 H 0.39088 0.04967 0.06138 0.0
C240 C 0.31739 0.9534 0.26967 0.0
C241 C 0.29068 0.94408 0.31936 0.0
C242 C 0.27432 0.96301 0.32295 0.0
C243 C 0.28533 0.99192 0.28021 0.0
C244 C 0.31257 1.00133 0.23377 0.0
C245 C 0.32782 0.98223 0.22642 0.0
C246 C 0.35614 0.99784 0.17089 0.0
C247 C 0.38996 1.00753 0.20771 0.0
C248 C 0.34894 0.97421 0.10448 0.0
C249 C 0.35446 0.02869 0.14883 0.0
C250 C 0.32951 0.03045 0.18685 0.0
C251 C 0.32294 0.05649 0.17598 0.0
C252 C 0.34117 0.08048 0.1218 0.0
C253 C 0.36535 0.07798 0.07873 0.0
C254 C 0.37275 0.05231 0.09414 0.0
H255 H 0.25846 0.54756 0.05159 0.0
H256 H 0.26686 0.50776 0.26391 0.0
H257 H 0.25869 0.55003 0.32842 0.0
H258 H 0.3027 0.63465 0.1069 0.0
H259 H 0.27617 0.64528 0.05372 0.0
H260 H 0.28246 0.61164 0.02352 0.0
H261 H 0.21825 0.57097 0.02271 0.0
H262 H 0.21176 0.60449 0.05279 0.0
H263 H 0.19457 0.56622 0.10551 0.0
H264 H 0.24898 0.59619 0.37082 0.0
H265 H 0.23867 0.64349 0.38732 0.0
H266 H 0.23759 0.6543 0.14855 0.0
C267 C 0.25853 0.54769 0.11162 0.0
C268 C 0.26319 0.52413 0.15246 0.0
C269 C 0.26326 0.52536 0.23107 0.0
C270 C 0.25866 0.54936 0.26844 0.0
C271 C 0.25418 0.57218 0.22664 0.0
C272 C 0.25413 0.57165 0.15 0.0
C273 C 0.24887 0.59918 0.11852 0.0
C274 C 0.27937 0.62417 0.07298 0.0
C275 C 0.21643 0.58432 0.07216 0.0
C276 C 0.24586 0.61511 0.18943 0.0
C277 C 0.24897 0.59912 0.25117 0.0
C278 C 0.2466 0.60899 0.3229 0.0
C279 C 0.24075 0.63584 0.33178 0.0
C280 C 0.23745 0.65254 0.26932 0.0
C281 C 0.24019 0.64207 0.19732 0.0
H282 H 0.39975 0.59832 0.97534 0.0
H283 H 0.34021 0.56306 0.77366 0.0
H284 H 0.37942 0.61598 0.71123 0.0
H285 H 0.4211 0.68532 0.95772 0.0
H286 H 0.4631 0.70203 0.99339 0.0
H287 H 0.4303 0.66139 0.02303 0.0
H288 H 0.46555 0.63501 0.98101 0.0
H289 H 0.49844 0.67556 0.95129 0.0
H290 H 0.48047 0.64092 0.88694 0.0
H291 H 0.4252 0.67178 0.66942 0.0
H292 H 0.47468 0.72769 0.65084 0.0
H293 H 0.505 0.72832 0.87956 0.0
C294 C 0.39502 0.60186 0.91811 0.0
C295 C 0.36694 0.57659 0.87924 0.0
C296 C 0.36153 0.58208 0.80447 0.0
C297 C 0.38367 0.61206 0.76851 0.0
C298 C 0.41111 0.63647 0.80809 0.0
C299 C 0.41691 0.63185 0.88126 0.0
C300 C 0.44846 0.66228 0.91062 0.0
C301 C 0.44024 0.67873 0.975 0.0
C302 C 0.47479 0.65287 0.93382 0.0
C303 C 0.4595 0.68455 0.84239 0.0
C304 C 0.43754 0.66906 0.78398 0.0
C305 C 0.44256 0.68421 0.71478 0.0
C306 C 0.47083 0.71599 0.70475 0.0
C307 C 0.49383 0.7325 0.76361 0.0
C308 C 0.48785 0.71651 0.83351 0.0
H309 H 0.43061 0.8011 0.64511 0.0
H310 H 0.48614 0.83463 0.4395 0.0
H311 H 0.43537 0.82622 0.37453 0.0
H312 H 0.35424 0.73645 0.56464 0.0
H313 H 0.32712 0.74327 0.62464 0.0
H314 H 0.36817 0.75326 0.65655 0.0
H315 H 0.38251 0.81408 0.68536 0.0
H316 H 0.34144 0.80421 0.65369 0.0
H317 H 0.37823 0.83879 0.61328 0.0
H318 H 0.37862 0.81244 0.33021 0.0
H319 H 0.3192 0.79487 0.30957 0.0
H320 H 0.29937 0.77014 0.54312 0.0
C321 C 0.43205 0.80696 0.58663 0.0
C322 C 0.46234 0.81863 0.54734 0.0
C323 C 0.46324 0.82574 0.47071 0.0
C324 C 0.43452 0.82104 0.43325 0.0
C325 C 0.40497 0.80923 0.47312 0.0
C326 C 0.40344 0.80235 0.54811 0.0
C327 C 0.36816 0.7892 0.57702 0.0
C328 C 0.35357 0.75342 0.6075 0.0
C329 C 0.36756 0.81299 0.63582 0.0
C330 C 0.3502 0.78953 0.50646 0.0
C331 C 0.37199 0.80126 0.44733 0.0
C332 C 0.36131 0.80338 0.37616 0.0
C333 C 0.32744 0.79329 0.36499 0.0
C334 C 0.30451 0.78121 0.42463 0.0
C335 C 0.31622 0.77941 0.49635 0.0
H336 H 0.53331 0.24596 0.79201 0.0
H337 H 0.53093 0.22466 0.02727 0.0
H338 H 0.57411 0.20909 1.00934 0.0
H339 H 0.54674 0.17868 0.72731 0.0
H340 H 0.57503 0.20343 0.65455 0.0
H341 H 0.54276 0.21183 0.68441 0.0
H342 H 0.58762 0.27367 0.71075 0.0
H343 H 0.62002 0.26548 0.68104 0.0
H344 H 0.62228 0.28284 0.77181 0.0
H345 H 0.618 0.19695 0.96847 0.0
H346 H 0.66145 0.18986 0.90669 0.0
H347 H 0.63743 0.21936 0.69703 0.0
C348 C 0.54169 0.23774 0.83956 0.0
C349 C 0.52852 0.23643 0.9111 0.0
C350 C 0.54049 0.2259 0.97196 0.0
C351 C 0.56503 0.21691 0.96237 0.0
C352 C 0.5776 0.21864 0.89155 0.0
C353 C 0.5665 0.22882 0.83106 0.0
C354 C 0.58519 0.22932 0.76143 0.0
C355 C 0.56098 0.20432 0.7035 0.0
C356 C 0.60495 0.26495 0.72939 0.0
C357 C 0.60858 0.218 0.79255 0.0
C358 C 0.60351 0.21185 0.86774 0.0
C359 C 0.62215 0.20158 0.90959 0.0
C360 C 0.6468 0.19763 0.87392 0.0
C361 C 0.65278 0.20397 0.7971 0.0
C362 C 0.63327 0.21416 0.75577 0.0
H363 H 0.78747 0.2932 0.46453 0.0
H364 H 0.75341 0.2936 0.6883 0.0
H365 H 0.75938 0.34902 0.66587 0.0
H366 H 0.84974 0.38072 0.45977 0.0
H367 H 0.84249 0.38628 0.36385 0.0
H368 H 0.8345 0.34595 0.39599 0.0
H369 H 0.77355 0.31857 0.3466 0.0
H370 H 0.78134 0.35881 0.3142 0.0
H371 H 0.74708 0.33463 0.37642 0.0
H372 H 0.76917 0.40423 0.62072 0.0
H373 H 0.78335 0.45679 0.55606 0.0
H374 H 0.81245 0.42236 0.36165 0.0
C375 C 0.78106 0.30486 0.50862 0.0
C376 C 0.76995 0.28896 0.5783 0.0
C377 C 0.76212 0.30526 0.63466 0.0
C378 C 0.76534 0.33675 0.6224 0.0
C379 C 0.77657 0.35182 0.55352 0.0
C380 C 0.78441 0.33656 0.49752 0.0
C381 C 0.79672 0.35879 0.42926 0.0
C382 C 0.83302 0.36851 0.41118 0.0
C383 C 0.77327 0.34167 0.36269 0.0
C384 C 0.7946 0.3889 0.45583 0.0
C385 C 0.78273 0.38416 0.5276 0.0
C386 C 0.77847 0.40824 0.56452 0.0
C387 C 0.78658 0.43802 0.52728 0.0
C388 C 0.79899 0.44365 0.45393 0.0
C389 C 0.80303 0.41871 0.41776 0.0
H390 H 0.59117 0.36838 0.18147 0.0
H391 H 0.60566 0.37425 0.94332 0.0
H392 H 0.66373 0.42095 0.96072 0.0
H393 H 0.63776 0.45659 0.21698 0.0
H394 H 0.65561 0.45295 0.30319 0.0
H395 H 0.61552 0.41929 0.27247 0.0
H396 H 0.63769 0.37776 0.28118 0.0
H397 H 0.67784 0.41129 0.31216 0.0
H398 H 0.67519 0.38675 0.23198 0.0
H399 H 0.71939 0.46775 1.00337 0.0
H400 H 0.76969 0.51111 0.06812 0.0
H401 H 0.71962 0.4751 0.2796 0.0
C402 C 0.60669 0.37939 0.13311 0.0
C403 C 0.59404 0.36775 0.06099 0.0
C404 C 0.61494 0.3828 0.999 0.0
C405 C 0.64792 0.40933 1.00835 0.0
C406 C 0.6596 0.42043 0.0801 0.0
C407 C 0.63972 0.40591 0.1415 0.0
C408 C 0.65837 0.42293 0.21243 0.0
C409 C 0.64076 0.43889 0.25367 0.0
C410 C 0.66252 0.3982 0.26237 0.0
C411 C 0.69174 0.44944 0.18123 0.0
C412 C 0.69186 0.44748 0.10479 0.0
C413 C 0.71964 0.46946 0.06323 0.0
C414 C 0.74812 0.49407 0.10068 0.0
C415 C 0.74873 0.49662 0.17912 0.0
C416 C 0.72004 0.47387 0.21969 0.0
H417 H 0.96173 0.27343 0.44368 0.0
H418 H 0.9611 0.36511 0.49134 0.0
H419 H 1.0121 0.39721 0.41625 0.0
H420 H 0.04796 0.30631 0.45397 0.0
H421 H 0.05131 0.28315 0.37732 0.0
H422 H 1.0128 0.26611 0.42856 0.0
H423 H 0.97929 0.26074 0.30849 0.0
H424 H 1.01743 0.27621 0.25653 0.0
H425 H 0.99306 0.29672 0.24913 0.0
H426 H 0.06619 0.42013 0.34853 0.0
H427 H 0.11207 0.4309 0.26271 0.0
H428 H 0.07743 0.32462 0.25474 0.0
C429 C 0.97149 0.29998 0.43518 0.0
C430 C 0.95725 0.31682 0.47196 0.0
C431 C 0.97133 0.35179 0.46206 0.0
C432 C 1.00059 0.37026 0.42068 0.0
C433 C 1.01529 0.35331 0.38898 0.0
C434 C 1.00064 0.31883 0.39327 0.0
C435 C 1.02157 0.30694 0.35301 0.0
C436 C 0.03414 0.2896 0.40644 0.0
C437 C 1.00166 0.2838 0.28791 0.0
C438 C 0.05032 0.34013 0.32611 0.0
C439 C 0.04647 0.36658 0.34887 0.0
C440 C 0.06948 0.39964 0.33022 0.0
C441 C 0.09585 0.40564 0.28274 0.0
C442 C 0.09878 0.37871 0.25411 0.0
C443 C 0.07646 0.3457 0.27825 0.0
H444 H 0.76386 0.70552 0.10802 0.0
H445 H 0.69452 0.59853 0.11453 0.0
H446 H 0.65582 0.60551 0.03096 0.0
H447 H 0.70554 0.73157 0.11182 0.0
H448 H 0.72592 0.76566 0.04698 0.0
H449 H 0.75038 0.75261 0.10067 0.0
H450 H 0.7751 0.74259 0.98129 0.0
H451 H 0.75194 0.75712 0.92739 0.0
H452 H 0.74716 0.71657 0.90857 0.0
H453 H 0.62169 0.62489 0.96193 0.0
H454 H 0.60023 0.65307 0.88075 0.0
H455 H 0.69256 0.74751 0.91234 0.0
C456 C 0.74132 0.68347 0.08851 0.0
C457 C 0.73244 0.65133 0.11574 0.0
C458 C 0.70212 0.62311 0.09208 0.0
C459 C 0.67976 0.62697 0.04589 0.0
C460 C 0.68834 0.65921 0.02337 0.0
C461 C 0.71892 0.68685 0.04139 0.0
C462 C 0.72187 0.71866 1.0093 0.0
C463 C 0.72618 0.74359 0.07089 0.0
C464 C 0.75072 0.73467 0.95329 0.0
C465 C 0.688 0.70461 0.97128 0.0
C466 C 0.66887 0.67034 0.9816 0.0
C467 C 0.63657 0.65164 0.95271 0.0
C468 C 0.62437 0.66793 0.90772 0.0
C469 C 0.64459 0.70246 0.89104 0.0
C470 C 0.6763 0.72129 0.92562 0.0
H471 H 0.39598 0.06355 0.78536 0.0
H472 H 0.30698 0.06946 0.82951 0.0
H473 H 0.27324 0.01893 0.75242 0.0
H474 H 0.37362 0.0357 0.59003 0.0
H475 H 0.39199 1.00931 0.59512 0.0
H476 H 0.40861 0.04657 0.65138 0.0
H477 H 0.40004 1.01025 0.76797 0.0
H478 H 0.38212 0.97271 0.71227 0.0
H479 H 0.35881 0.97585 0.78862 0.0
H480 H 0.24849 0.96501 0.68069 0.0
H481 H 0.23639 0.91953 0.59163 0.0
H482 H 0.34184 0.95039 0.58695 0.0
C483 C 0.36964 0.05482 0.77629 0.0
C484 C 0.35403 0.07061 0.81172 0.0
C485 C 0.31936 0.05808 0.80093 0.0
C486 C 0.29998 0.02913 0.75841 0.0
C487 C 0.31579 1.01327 0.72654 0.0
C488 C 0.35001 0.02628 0.73271 0.0
C489 C 0.36089 1.00497 0.69056 0.0
C490 C 0.3852 0.02535 0.62804 0.0
C491 C 0.37638 0.99008 0.74301 0.0
C492 C 0.32743 0.97791 0.66007 0.0
C493 C 0.30165 0.98273 0.68306 0.0
C494 C 0.26847 0.96104 0.66204 0.0
C495 C 0.26172 0.93493 0.61251 0.0
C496 C 0.28809 0.93117 0.58375 0.0
C497 C 0.32118 0.95228 0.6097 0.0
H498 H 0.30342 0.36557 0.01992 0.0
H499 H 0.38533 0.46863 0.01144 0.0
H500 H 0.42497 0.44867 0.98818 0.0
H501 H 0.34846 0.33089 0.11121 0.0
H502 H 0.32887 0.29244 0.05849 0.0
H503 H 0.30673 0.31472 0.07436 0.0
H504 H 0.29832 0.31691 0.93279 0.0
H505 H 0.32054 0.29472 0.91644 0.0
H506 H 0.33429 0.33469 0.87282 0.0
H507 H 0.4563 0.41777 0.97119 0.0
H508 H 0.47689 0.37807 0.95667 0.0
H509 H 0.37482 0.29468 0.96985 0.0
C510 C 0.32971 0.38396 0.01337 0.0
C511 C 0.34119 0.41877 0.01809 0.0
C512 C 0.37579 0.4419 1.00824 0.0
C513 C 0.39858 0.43079 0.99499 0.0
C514 C 0.38646 0.39642 0.99079 0.0
C515 C 0.35283 0.3733 0.99915 0.0
C516 C 0.34644 0.33775 0.99133 0.0
C517 C 0.33176 0.31778 0.06313 0.0
C518 C 0.32354 0.31998 0.92435 0.0
C519 C 0.38179 0.34451 0.97821 0.0
C520 C 0.40446 0.37856 0.9784 0.0
C521 C 0.43873 0.39107 0.97029 0.0
C522 C 0.4502 0.36826 0.96219 0.0
C523 C 0.42751 0.3332 0.96146 0.0
C524 C 0.39278 0.3213 0.96897 0.0
H525 H 0.59229 0.93832 0.70256 0.0
H526 H 0.67681 0.9217 0.71804 0.0
H527 H 0.71549 0.98155 0.69594 0.0
H528 H 0.62566 1.00098 0.55909 0.0
H529 H 0.61028 0.02662 0.59806 0.0
H530 H 0.58836 0.98211 0.61497 0.0
H531 H 0.59342 0.99299 0.75652 0.0
H532 H 0.61522 0.03753 0.74005 0.0
H533 H 0.63417 0.01949 0.79745 0.0
H534 H 0.74529 0.04196 0.66648 0.0
H535 H 0.76545 0.10147 0.64235 0.0
H536 H 0.66329 0.08233 0.65259 0.0
C537 C 0.61894 0.94734 0.70159 0.0
C538 C 0.63136 0.92503 0.71221 0.0
C539 C 0.66648 0.93803 0.71071 0.0
C540 C 0.68878 0.9721 0.69779 0.0
C541 C 0.67583 0.99328 0.68722 0.0
C542 C 0.64184 0.98169 0.68991 0.0
C543 C 0.63503 1.01047 0.67837 0.0
C544 C 0.61356 1.00469 0.60846 0.0
C545 C 0.61848 1.01541 0.74721 0.0
C546 C 0.67049 0.03981 0.6682 0.0
C547 C 0.69345 0.02901 0.67284 0.0
C548 C 0.7276 0.0508 0.66322 0.0
C549 C 0.73879 0.08464 0.64909 0.0
C550 C 0.71607 0.09681 0.64545 0.0
C551 C 0.68135 0.07394 0.65538 0.0
H552 H 0.94772 0.65169 0.32679 0.0
H553 H 0.92726 0.55022 0.28894 0.0
H554 H 0.98745 0.56947 0.30555 0.0
H555 H 0.02726 0.69498 0.23535 0.0
H556 H 0.046 0.72855 0.30228 0.0
H557 H 1.0014 0.70694 0.28636 0.0
H558 H 0.99128 0.69306 0.42633 0.0
H559 H 0.03586 0.71458 0.44266 0.0
H560 H 1.01012 0.67154 0.471 0.0
H561 H 0.0503 0.60035 0.31906 0.0
H562 H 0.11081 0.63977 0.33821 0.0
H563 H 0.09039 0.72048 0.37763 0.0
C564 C 0.95594 0.63356 0.3217 0.0
C565 C 0.93277 0.59946 0.30584 0.0
C566 C 0.94448 0.57643 0.30093 0.0
C567 C 0.97866 0.58716 0.31017 0.0
C568 C 1.00082 0.62091 0.32564 0.0
C569 C 0.98991 0.64372 0.33231 0.0
C570 C 1.01885 0.6784 0.35122 0.0
C571 C 1.02365 0.7037 0.29016 0.0
C572 C 1.01371 0.69008 0.42733 0.0
C573 C 0.04781 0.67163 0.35321 0.0
C574 C 0.03684 0.63834 0.33757 0.0
C575 C 0.0591 0.62636 0.33229 0.0
C576 C 0.09342 0.64894 0.34309 0.0
C577 C 0.10523 0.68304 0.36031 0.0
C578 C 0.08199 0.6944 0.366 0.0
H579 H 0.22911 0.44479 0.42472 0.0
H580 H 0.28031 0.39185 0.35796 0.0
H581 H 0.29251 0.38689 0.48943 0.0
H582 H 0.28582 0.49264 0.56774 0.0
H583 H 0.25429 0.49079 0.62921 0.0
H584 H 0.24731 0.48785 0.53054 0.0
H585 H 0.19201 0.43149 0.54781 0.0
H586 H 0.19892 0.43419 0.64666 0.0
H587 H 0.19268 0.39769 0.59649 0.0
H588 H 0.30283 0.39129 0.6272 0.0
H589 H 0.31157 0.40569 0.76035 0.0
H590 H 0.25295 0.45497 0.7398 0.0
C591 C 0.24251 0.43173 0.43768 0.0
C592 C 0.25361 0.41855 0.38056 0.0
C593 C 0.27143 0.40207 0.40032 0.0
C594 C 0.27841 0.39905 0.47503 0.0
C595 C 0.26733 0.41251 0.52976 0.0
C596 C 0.24971 0.42851 0.51208 0.0
C597 C 0.24217 0.4423 0.58129 0.0
C598 C 0.25837 0.48067 0.57691 0.0
C599 C 0.20418 0.42541 0.59378 0.0
C600 C 0.25881 0.4321 0.64061 0.0
C601 C 0.27297 0.41474 0.60956 0.0
C602 C 0.29146 0.40446 0.65215 0.0
C603 C 0.29625 0.41273 0.72787 0.0
C604 C 0.28253 0.431 0.76089 0.0
C605 C 0.26298 0.4402 0.71671 0.0
H606 H 0.59388 0.89201 0.38206 0.0
H607 H 0.60648 0.80868 0.44934 0.0
H608 H 0.61457 0.79882 0.31816 0.0
H609 H 0.54533 0.85298 0.22455 0.0
H610 H 0.56269 0.89035 0.16866 0.0
H611 H 0.56206 0.8935 0.26801 0.0
H612 H 0.62627 0.93409 0.26994 0.0
H613 H 0.62709 0.93132 0.1704 0.0
H614 H 0.65344 0.92158 0.22679 0.0
H615 H 0.61709 0.79557 0.17843 0.0
H616 H 0.61386 0.79899 0.04234 0.0
H617 H 0.59788 0.88354 0.06648 0.0
C618 C 0.5992 0.8722 0.36959 0.0
C619 C 0.59993 0.85133 0.42626 0.0
C620 C 0.60608 0.82515 0.40705 0.0
C621 C 0.61068 0.81937 0.33264 0.0
C622 C 0.60894 0.8399 0.27801 0.0
C623 C 0.60344 0.86586 0.29567 0.0
C624 C 0.60027 0.88277 0.22641 0.0
C625 C 0.56553 0.8797 0.22166 0.0
C626 C 0.62846 0.91963 0.22321 0.0
C627 C 0.60444 0.86203 0.16685 0.0
C628 C 0.60969 0.8376 0.19774 0.0
C629 C 0.61325 0.81478 0.15375 0.0
C630 C 0.61132 0.81691 0.07635 0.0
C631 C 0.60565 0.84156 0.04338 0.0
C632 C 0.60238 0.86449 0.08966 0.0
H633 H 0.21461 0.75851 0.72535 0.0
H634 H 0.12768 0.77094 0.7047 0.0
H635 H 0.12375 0.77157 0.84077 0.0
H636 H 0.1847 0.703 0.882 0.0
H637 H 0.22529 0.72033 0.92568 0.0
H638 H 0.22208 0.72189 0.82637 0.0
H639 H 0.26139 0.78631 0.82981 0.0
H640 H 0.26462 0.78498 0.92922 0.0
H641 H 0.25083 0.81152 0.88748 0.0
H642 H 0.1286 0.77042 0.9788 0.0
H643 H 0.14049 0.76508 0.10993 0.0
H644 H 0.22383 0.75261 0.04314 0.0
C645 C 0.19481 0.76146 0.74945 0.0
C646 C 0.17148 0.76474 0.70401 0.0
C647 C 0.14585 0.76835 0.73799 0.0
C648 C 0.14344 0.76884 0.81541 0.0
C649 C 0.16679 0.76561 0.85852 0.0
C650 C 0.1919 0.76183 0.82695 0.0
C651 C 0.21318 0.75796 0.88633 0.0
C652 C 0.21118 0.72376 0.87969 0.0
C653 C 0.24967 0.78692 0.88299 0.0
C654 C 0.19596 0.75997 0.95604 0.0
C655 C 0.1694 0.76461 0.93856 0.0
C656 C 0.14938 0.76684 0.9932 0.0
C657 C 0.15639 0.76382 0.06768 0.0
C658 C 0.18314 0.75848 0.08722 0.0
C659 C 0.20332 0.75685 0.03031 0.0
H660 H 0.46988 0.31998 0.62085 0.0
H661 H 0.40736 0.21178 0.6361 0.0
H662 H 0.40427 0.20784 0.4995 0.0
H663 H 0.428 0.33041 0.45843 0.0
H664 H 0.46657 0.36321 0.4198 0.0
H665 H 0.46225 0.35765 0.51882 0.0
H666 H 0.51544 0.35221 0.52401 0.0
H667 H 0.51991 0.35774 0.42514 0.0
H668 H 0.51749 0.32115 0.46723 0.0
H669 H 0.41152 0.21535 0.36081 0.0
H670 H 0.4275 0.234 0.2313 0.0
H671 H 0.48377 0.3373 0.3067 0.0
C672 C 0.45522 0.29547 0.59557 0.0
C673 C 0.43884 0.26618 0.63941 0.0
C674 C 0.42007 0.2346 0.60389 0.0
C675 C 0.41814 0.23209 0.52623 0.0
C676 C 0.43489 0.26141 0.48469 0.0
C677 C 0.45289 0.29252 0.51813 0.0
C678 C 0.46947 0.32007 0.46086 0.0
C679 C 0.45574 0.34426 0.46472 0.0
C680 C 0.50784 0.33889 0.46986 0.0
C681 C 0.45846 0.29955 0.39004 0.0
C682 C 0.43848 0.26577 0.4049 0.0
C683 C 0.4268 0.24179 0.34848 0.0
C684 C 0.43603 0.2526 0.27509 0.0
C685 C 0.45661 0.28711 0.2587 0.0
C686 C 0.46754 0.31079 0.31713 0.0
H687 H 0.75843 0.16964 0.29657 0.0
H688 H 0.85247 0.26407 0.28786 0.0
H689 H 0.85139 0.26083 0.15139 0.0
H690 H 0.77393 0.12976 0.13713 0.0
H691 H 0.73112 0.10993 0.10495 0.0
H692 H 0.74045 0.11813 0.20244 0.0
H693 H 0.70898 0.15141 0.20551 0.0
H694 H 0.69947 0.1432 0.10824 0.0
H695 H 0.72092 0.18576 0.14207 0.0
H696 H 0.8387 0.24927 0.01545 0.0
H697 H 0.81407 0.23117 0.89033 0.0
H698 H 0.72815 0.14437 0.98605 0.0
C699 C 0.77902 0.18938 0.26597 0.0
C700 C 0.80562 0.21705 0.30318 0.0
C701 C 0.83181 0.24261 0.26086 0.0
C702 C 0.83151 0.24095 0.18317 0.0
C703 C 0.80483 0.21356 0.14815 0.0
C704 C 0.77901 0.18823 0.18807 0.0
C705 C 0.75233 0.1626 0.1365 0.0
C706 C 0.74929 0.12806 0.14582 0.0
C707 C 0.71843 0.16065 0.14882 0.0
C708 C 0.76696 0.17774 0.06156 0.0
C709 C 0.79741 0.20698 0.06955 0.0
C710 C 0.815 0.22625 1.00848 0.0
C711 C 0.80081 0.21574 0.93751 0.0
C712 C 0.76926 0.18624 0.92799 0.0
C713 C 0.75252 0.16678 0.99106 0.0
H714 H 0.88419 0.55761 0.62447 0.0
H715 H 0.8292 0.60633 0.55381 0.0
H716 H 0.82708 0.62198 0.68448 0.0
H717 H 0.83746 0.52142 0.78542 0.0
H718 H 0.87256 0.52627 0.83964 0.0
H719 H 0.87262 0.5222 0.74045 0.0
H720 H 0.92915 0.57811 0.7333 0.0
H721 H 0.92934 0.58231 0.83264 0.0
H722 H 0.93275 0.61549 0.77386 0.0
H723 H 0.8289 0.62969 0.8262 0.0
H724 H 0.83259 0.62697 0.96283 0.0
H725 H 0.88456 0.57112 0.9382 0.0
C726 C 0.87222 0.57215 0.6359 0.0
C727 C 0.85716 0.58106 0.5784 0.0
C728 C 0.84116 0.59946 0.59662 0.0
C729 C 0.83985 0.60844 0.67077 0.0
C730 C 0.85451 0.5987 0.7262 0.0
C731 C 0.87035 0.58091 0.70933 0.0
C732 C 0.88226 0.5714 0.77879 0.0
C733 C 0.8652 0.53306 0.7865 0.0
C734 C 0.92066 0.58782 0.77968 0.0
C735 C 0.87043 0.58632 0.83786 0.0
C736 C 0.85477 0.60229 0.80668 0.0
C737 C 0.84127 0.61736 0.8509 0.0
C738 C 0.84354 0.61574 0.9286 0.0
C739 C 0.85891 0.59888 0.96161 0.0
C740 C 0.87272 0.58429 0.91508 0.0
loop_
_geom_bond_atom_site_label_1
_geom_bond_atom_site_label_2
_geom_bond_distance
_geom_bond_site_symmetry_2
_ccdc_geom_bond_type
O0 Tb1 2.292 . S
O0 C3 1.255 . S
Tb1 O0 2.292 . S
Tb1 O17 2.326 1_556 S
Tb1 O19 2.500 . S
Tb1 O20 2.473 1_556 S
Tb1 O23 2.324 1_556 S
Eu2 O6 2.292 . S
Eu2 C7 2.852 . S
Eu2 O18 2.324 . S
Eu2 O22 2.326 . S
Eu2 O24 2.500 . S
Eu2 O25 2.473 . S
C3 O0 1.255 . S
C3 O4 1.247 . S
O4 C3 1.247 . S
C5 O17 1.242 . S
C5 O18 1.258 . S
O6 Eu2 2.292 . S
O6 C8 1.255 . S
C7 Eu2 2.852 . S
C7 C11 1.503 . S
C7 O24 1.273 . S
C7 O25 1.257 . S
C8 O6 1.255 . S
C8 O9 1.247 . S
O9 C8 1.247 . S
C10 O22 1.242 . S
C10 O23 1.258 . S
C11 C7 1.503 . S
C11 C12 1.379 . S
C11 C16 1.392 . S
C12 C11 1.379 . S
C12 C13 1.404 . S
C12 H26 0.929 . S
C13 C12 1.404 . S
C13 C14 1.389 . S
C14 C13 1.389 . S
C14 C15 1.399 . S
C14 H27 0.931 . S
C15 C14 1.399 . S
C15 C16 1.390 . S
C16 C11 1.392 . S
C16 C15 1.390 . S
C16 H28 0.929 . S
O17 Tb1 2.326 1_554 S
O17 C5 1.242 . S
O18 Eu2 2.324 . S
O18 C5 1.258 . S
O19 Tb1 2.500 . S
O19 C21 1.273 1_556 S
O20 Tb1 2.473 1_554 S
O20 C21 1.257 . S
C21 O19 1.273 1_554 S
C21 O20 1.257 . S
O22 Eu2 2.326 . S
O22 C10 1.242 . S
O23 Tb1 2.324 1_554 S
O23 C10 1.258 . S
O24 Eu2 2.500 . S
O24 C7 1.273 . S
O25 Eu2 2.473 . S
O25 C7 1.257 . S
H26 C12 0.929 . S
H27 C14 0.931 . S
H28 C16 0.929 . S
O29 Tb30 2.292 . S
O29 C32 1.255 . S
Tb30 O29 2.292 . S
Tb30 O46 2.326 . S
Tb30 O48 2.500 . S
Tb30 O49 2.473 . S
Tb30 O52 2.324 . S
Eu31 O35 2.292 . S
Eu31 C36 2.852 . S
Eu31 O47 2.324 . S
Eu31 O51 2.326 . S
Eu31 O53 2.500 . S
Eu31 O54 2.473 . S
C32 O29 1.255 . S
C32 O33 1.247 . S
O33 C32 1.247 . S
C34 O46 1.242 . S
C34 O47 1.258 . S
O35 Eu31 2.292 . S
O35 C37 1.255 1_556 S
C36 Eu31 2.852 . S
C36 C40 1.503 . S
C36 O53 1.273 . S
C36 O54 1.257 . S
C37 O35 1.255 1_554 S
C37 O38 1.247 1_554 S
O38 C37 1.247 1_556 S
C39 O51 1.242 . S
C39 O52 1.258 . S
C40 C36 1.503 . S
C40 C41 1.379 . S
C40 C45 1.392 . S
C41 C40 1.379 . S
C41 C42 1.404 . S
C41 H55 0.929 . S
C42 C41 1.404 . S
C42 C43 1.389 . S
C43 C42 1.389 . S
C43 C44 1.399 . S
C43 H56 0.931 . S
C44 C43 1.399 . S
C44 C45 1.390 . S
C45 C40 1.392 . S
C45 C44 1.390 . S
C45 H57 0.929 . S
O46 Tb30 2.326 . S
O46 C34 1.242 . S
O47 Eu31 2.324 . S
O47 C34 1.258 . S
O48 Tb30 2.500 . S
O48 C50 1.273 . S
O49 Tb30 2.473 . S
O49 C50 1.257 . S
C50 O48 1.273 . S
C50 O49 1.257 . S
O51 Eu31 2.326 . S
O51 C39 1.242 . S
O52 Tb30 2.324 . S
O52 C39 1.258 . S
O53 Eu31 2.500 . S
O53 C36 1.273 . S
O54 Eu31 2.473 . S
O54 C36 1.257 . S
H55 C41 0.929 . S
H56 C43 0.931 . S
H57 C45 0.929 . S
O58 Tb59 2.292 . S
O58 C61 1.255 . S
Tb59 O58 2.292 . S
Tb59 O75 2.326 . S
Tb59 O77 2.500 . S
Tb59 O78 2.473 . S
Tb59 O81 2.324 . S
Eu60 O64 2.292 . S
Eu60 C65 2.852 . S
Eu60 O76 2.324 . S
Eu60 O80 2.326 . S
Eu60 O82 2.500 . S
Eu60 O83 2.473 . S
C61 O58 1.255 . S
C61 O62 1.247 . S
O62 C61 1.247 . S
C63 O75 1.242 . S
C63 O76 1.258 . S
O64 Eu60 2.292 . S
O64 C66 1.255 . S
C65 Eu60 2.852 . S
C65 C69 1.503 . S
C65 O82 1.273 . S
C65 O83 1.257 . S
C66 O64 1.255 . S
C66 O67 1.247 . S
O67 C66 1.247 . S
C68 O80 1.242 . S
C68 O81 1.258 . S
C69 C65 1.503 . S
C69 C70 1.379 . S
C69 C74 1.392 . S
C70 C69 1.379 . S
C70 C71 1.404 . S
C70 H84 0.929 . S
C71 C70 1.404 . S
C71 C72 1.389 . S
C72 C71 1.389 . S
C72 C73 1.399 . S
C72 H85 0.931 . S
C73 C72 1.399 . S
C73 C74 1.390 . S
C74 C69 1.392 . S
C74 C73 1.390 . S
C74 H86 0.929 . S
O75 Tb59 2.326 . S
O75 C63 1.242 . S
O76 Eu60 2.324 . S
O76 C63 1.258 . S
O77 Tb59 2.500 . S
O77 C79 1.273 . S
O78 Tb59 2.473 . S
O78 C79 1.257 . S
C79 O77 1.273 . S
C79 O78 1.257 . S
O80 Eu60 2.326 . S
O80 C68 1.242 . S
O81 Tb59 2.324 . S
O81 C68 1.258 . S
O82 Eu60 2.500 . S
O82 C65 1.273 . S
O83 Eu60 2.473 . S
O83 C65 1.257 . S
H84 C70 0.929 . S
H85 C72 0.931 . S
H86 C74 0.929 . S
O87 Tb88 2.292 . S
O87 C90 1.255 . S
Tb88 O87 2.292 . S
Tb88 O104 2.326 1_554 S
Tb88 O106 2.500 . S
Tb88 O107 2.473 1_554 S
Tb88 O110 2.324 1_554 S
Eu89 O93 2.292 . S
Eu89 C94 2.852 . S
Eu89 O105 2.324 . S
Eu89 O109 2.326 . S
Eu89 O111 2.500 . S
Eu89 O112 2.473 . S
C90 O87 1.255 . S
C90 O91 1.247 . S
O91 C90 1.247 . S
C92 O104 1.242 . S
C92 O105 1.258 . S
O93 Eu89 2.292 . S
O93 C95 1.255 . S
C94 Eu89 2.852 . S
C94 C98 1.503 . S
C94 O111 1.273 . S
C94 O112 1.257 . S
C95 O93 1.255 . S
C95 O96 1.247 . S
O96 C95 1.247 . S
C97 O109 1.242 . S
C97 O110 1.258 . S
C98 C94 1.503 . S
C98 C99 1.379 . S
C98 C103 1.392 . S
C99 C98 1.379 . S
C99 C100 1.404 . S
C99 H113 0.929 . S
C100 C99 1.404 . S
C100 C101 1.389 . S
C101 C100 1.389 . S
C101 C102 1.399 . S
C101 H114 0.931 . S
C102 C101 1.399 . S
C102 C103 1.390 . S
C103 C98 1.392 . S
C103 C102 1.390 . S
C103 H115 0.929 . S
O104 Tb88 2.326 1_556 S
O104 C92 1.242 . S
O105 Eu89 2.324 . S
O105 C92 1.258 . S
O106 Tb88 2.500 . S
O106 C108 1.273 1_554 S
O107 Tb88 2.473 1_556 S
O107 C108 1.257 . S
C108 O106 1.273 1_556 S
C108 O107 1.257 . S
O109 Eu89 2.326 . S
O109 C97 1.242 . S
O110 Tb88 2.324 1_556 S
O110 C97 1.258 . S
O111 Eu89 2.500 . S
O111 C94 1.273 . S
O112 Eu89 2.473 . S
O112 C94 1.257 . S
H113 C99 0.929 . S
H114 C101 0.931 . S
H115 C103 0.929 . S
O116 Tb117 2.292 . S
O116 C119 1.255 . S
Tb117 O116 2.292 . S
Tb117 O133 2.326 . S
Tb117 O135 2.500 . S
Tb117 O136 2.473 . S
Tb117 O139 2.324 . S
Eu118 O122 2.292 . S
Eu118 C123 2.852 . S
Eu118 O134 2.324 . S
Eu118 O138 2.326 . S
Eu118 O140 2.500 . S
Eu118 O141 2.473 . S
C119 O116 1.255 . S
C119 O120 1.247 . S
O120 C119 1.247 . S
C121 O133 1.242 . S
C121 O134 1.258 . S
O122 Eu118 2.292 . S
O122 C124 1.255 . S
C123 Eu118 2.852 . S
C123 C127 1.503 . S
C123 O140 1.273 . S
C123 O141 1.257 . S
C124 O122 1.255 . S
C124 O125 1.247 . S
O125 C124 1.247 . S
C126 O138 1.242 . S
C126 O139 1.258 . S
C127 C123 1.503 . S
C127 C128 1.379 . S
C127 C132 1.392 . S
C128 C127 1.379 . S
C128 C129 1.404 . S
C128 H142 0.929 . S
C129 C128 1.404 . S
C129 C130 1.389 . S
C130 C129 1.389 . S
C130 C131 1.399 . S
C130 H143 0.931 . S
C131 C130 1.399 . S
C131 C132 1.390 . S
C132 C127 1.392 . S
C132 C131 1.390 . S
C132 H144 0.929 . S
O133 Tb117 2.326 . S
O133 C121 1.242 . S
O134 Eu118 2.324 . S
O134 C121 1.258 . S
O135 Tb117 2.500 . S
O135 C137 1.273 . S
O136 Tb117 2.473 . S
O136 C137 1.257 . S
C137 O135 1.273 . S
C137 O136 1.257 . S
O138 Eu118 2.326 . S
O138 C126 1.242 . S
O139 Tb117 2.324 . S
O139 C126 1.258 . S
O140 Eu118 2.500 . S
O140 C123 1.273 . S
O141 Eu118 2.473 . S
O141 C123 1.257 . S
H142 C128 0.929 . S
H143 C130 0.931 . S
H144 C132 0.929 . S
O145 Tb146 2.292 . S
O145 C148 1.255 . S
Tb146 O145 2.292 . S
Tb146 O162 2.326 . S
Tb146 O164 2.500 . S
Tb146 O165 2.473 . S
Tb146 O168 2.324 . S
Eu147 O151 2.292 . S
Eu147 C152 2.852 . S
Eu147 O163 2.324 . S
Eu147 O167 2.326 . S
Eu147 O169 2.500 . S
Eu147 O170 2.473 . S
C148 O145 1.255 . S
C148 O149 1.247 . S
O149 C148 1.247 . S
C150 O162 1.242 . S
C150 O163 1.258 . S
O151 Eu147 2.292 . S
O151 C153 1.255 1_554 S
C152 Eu147 2.852 . S
C152 C156 1.503 . S
C152 O169 1.273 . S
C152 O170 1.257 . S
C153 O151 1.255 1_556 S
C153 O154 1.247 1_556 S
O154 C153 1.247 1_554 S
C155 O167 1.242 . S
C155 O168 1.258 . S
C156 C152 1.503 . S
C156 C157 1.379 . S
C156 C161 1.392 . S
C157 C156 1.379 . S
C157 C158 1.404 . S
C157 H171 0.929 . S
C158 C157 1.404 . S
C158 C159 1.389 . S
C159 C158 1.389 . S
C159 C160 1.399 . S
C159 H172 0.931 . S
C160 C159 1.399 . S
C160 C161 1.390 . S
C161 C156 1.392 . S
C161 C160 1.390 . S
C161 H173 0.929 . S
O162 Tb146 2.326 . S
O162 C150 1.242 . S
O163 Eu147 2.324 . S
O163 C150 1.258 . S
O164 Tb146 2.500 . S
O164 C166 1.273 . S
O165 Tb146 2.473 . S
O165 C166 1.257 . S
C166 O164 1.273 . S
C166 O165 1.257 . S
O167 Eu147 2.326 . S
O167 C155 1.242 . S
O168 Tb146 2.324 . S
O168 C155 1.258 . S
O169 Eu147 2.500 . S
O169 C152 1.273 . S
O170 Eu147 2.473 . S
O170 C152 1.257 . S
H171 C157 0.929 . S
H172 C159 0.931 . S
H173 C161 0.929 . S
H174 C186 0.930 . S
H175 C188 0.930 . S
H176 C189 0.930 . S
H177 C193 0.959 . S
H178 C193 0.959 1_655 S
H179 C193 0.961 . S
H180 C194 0.960 . S
H181 C194 0.961 . S
H182 C194 0.959 . S
H183 C197 0.929 . S
H184 C198 0.931 . S
H185 C200 0.930 . S
C186 H174 0.930 . S
C186 C187 1.399 . S
C186 C191 1.399 . S
C187 C186 1.399 . S
C187 C188 1.376 . S
C188 H175 0.930 . S
C188 C187 1.376 . S
C188 C189 1.388 . S
C189 H176 0.930 . S
C189 C188 1.388 . S
C189 C190 1.390 . S
C190 C189 1.390 . S
C190 C191 1.394 . S
C190 C196 1.465 1_455 S
C191 C186 1.399 . S
C191 C190 1.394 . S
C191 C192 1.516 1_455 S
C192 C191 1.516 1_655 S
C192 C193 1.502 1_655 S
C192 C194 1.561 . S
C192 C195 1.526 . S
C193 H177 0.959 . S
C193 H178 0.959 1_455 S
C193 H179 0.961 . S
C193 C192 1.502 1_455 S
C194 H180 0.960 . S
C194 H181 0.961 . S
C194 H182 0.959 . S
C194 C192 1.561 . S
C195 C192 1.526 . S
C195 C196 1.396 . S
C195 C200 1.390 . S
C196 C190 1.465 1_655 S
C196 C195 1.396 . S
C196 C197 1.399 . S
C197 H183 0.929 . S
C197 C196 1.399 . S
C197 C198 1.385 . S
C198 H184 0.931 . S
C198 C197 1.385 . S
C198 C199 1.389 . S
C199 C198 1.389 . S
C199 C200 1.387 . S
C200 H185 0.930 . S
C200 C195 1.390 . S
C200 C199 1.387 . S
H201 C213 0.930 . S
H202 C215 0.930 . S
H203 C216 0.930 . S
H204 C220 0.959 . S
H205 C220 0.959 . S
H206 C220 0.961 . S
H207 C221 0.960 . S
H208 C221 0.961 . S
H209 C221 0.959 . S
H210 C224 0.929 . S
H211 C225 0.931 . S
H212 C227 0.930 . S
C213 H201 0.930 . S
C213 C214 1.399 . S
C213 C218 1.399 . S
C214 C213 1.399 . S
C214 C215 1.376 . S
C215 H202 0.930 . S
C215 C214 1.376 . S
C215 C216 1.388 . S
C216 H203 0.930 . S
C216 C215 1.388 . S
C216 C217 1.390 . S
C217 C216 1.390 . S
C217 C218 1.394 . S
C217 C223 1.465 . S
C218 C213 1.399 . S
C218 C217 1.394 . S
C218 C219 1.516 . S
C219 C218 1.516 . S
C219 C220 1.502 . S
C219 C221 1.561 . S
C219 C222 1.526 . S
C220 H204 0.959 . S
C220 H205 0.959 . S
C220 H206 0.961 . S
C220 C219 1.502 . S
C221 H207 0.960 . S
C221 H208 0.961 . S
C221 H209 0.959 . S
C221 C219 1.561 . S
C222 C219 1.526 . S
C222 C223 1.396 . S
C222 C227 1.390 . S
C223 C217 1.465 . S
C223 C222 1.396 . S
C223 C224 1.399 . S
C224 H210 0.929 . S
C224 C223 1.399 . S
C224 C225 1.385 . S
C225 H211 0.931 . S
C225 C224 1.385 . S
C225 C226 1.389 . S
C226 C225 1.389 . S
C226 C227 1.387 . S
C227 H212 0.930 . S
C227 C222 1.390 . S
C227 C226 1.387 . S
H228 C240 0.930 . S
H229 C242 0.930 . S
H230 C243 0.927 1_545 S
H231 C247 0.959 . S
H232 C247 0.959 . S
H233 C247 0.961 . S
H234 C248 0.960 . S
H235 C248 0.961 1_556 S
H236 C248 0.959 . S
H237 C251 0.929 . S
H238 C252 0.931 . S
H239 C254 0.930 . S
C240 H228 0.930 . S
C240 C241 1.399 . S
C240 C245 1.399 . S
C241 C240 1.399 . S
C241 C242 1.376 . S
C242 H229 0.930 . S
C242 C241 1.376 . S
C242 C243 1.388 . S
C243 H230 0.927 1_565 S
C243 C242 1.388 . S
C243 C244 1.390 . S
C244 C243 1.390 . S
C244 C245 1.394 . S
C244 C250 1.465 1_565 S
C245 C240 1.399 . S
C245 C244 1.394 . S
C245 C246 1.516 . S
C246 C245 1.516 . S
C246 C247 1.502 . S
C246 C248 1.561 . S
C246 C249 1.526 1_565 S
C247 H231 0.959 . S
C247 H232 0.959 . S
C247 H233 0.961 . S
C247 C246 1.502 . S
C248 H234 0.960 . S
C248 H235 0.961 1_554 S
C248 H236 0.959 . S
C248 C246 1.561 . S
C249 C246 1.526 1_545 S
C249 C250 1.396 . S
C249 C254 1.390 . S
C250 C244 1.465 1_545 S
C250 C249 1.396 . S
C250 C251 1.399 . S
C251 H237 0.929 . S
C251 C250 1.399 . S
C251 C252 1.385 . S
C252 H238 0.931 . S
C252 C251 1.385 . S
C252 C253 1.389 . S
C253 C252 1.389 . S
C253 C254 1.387 . S
C254 H239 0.930 . S
C254 C249 1.390 . S
C254 C253 1.387 . S
H255 C267 0.930 . S
H256 C269 0.930 . S
H257 C270 0.930 . S
H258 C274 0.959 . S
H259 C274 0.959 . S
H260 C274 0.961 . S
H261 C275 0.960 . S
H262 C275 0.961 . S
H263 C275 0.959 . S
H264 C278 0.929 . S
H265 C279 0.931 . S
H266 C281 0.930 . S
C267 H255 0.930 . S
C267 C268 1.399 . S
C267 C272 1.399 . S
C268 C267 1.399 . S
C268 C269 1.376 . S
C269 H256 0.930 . S
C269 C268 1.376 . S
C269 C270 1.388 . S
C270 H257 0.930 . S
C270 C269 1.388 . S
C270 C271 1.390 . S
C271 C270 1.390 . S
C271 C272 1.394 . S
C271 C277 1.465 . S
C272 C267 1.399 . S
C272 C271 1.394 . S
C272 C273 1.516 . S
C273 C272 1.516 . S
C273 C274 1.502 . S
C273 C275 1.561 . S
C273 C276 1.526 . S
C274 H258 0.959 . S
C274 H259 0.959 . S
C274 H260 0.961 . S
C274 C273 1.502 . S
C275 H261 0.960 . S
C275 H262 0.961 . S
C275 H263 0.959 . S
C275 C273 1.561 . S
C276 C273 1.526 . S
C276 C277 1.396 . S
C276 C281 1.390 . S
C277 C271 1.465 . S
C277 C276 1.396 . S
C277 C278 1.399 . S
C278 H264 0.929 . S
C278 C277 1.399 . S
C278 C279 1.385 . S
C279 H265 0.931 . S
C279 C278 1.385 . S
C279 C280 1.389 . S
C280 C279 1.389 . S
C280 C281 1.387 . S
C281 H266 0.930 . S
C281 C276 1.390 . S
C281 C280 1.387 . S
H282 C294 0.930 . S
H283 C296 0.930 . S
H284 C297 0.930 . S
H285 C301 0.959 1_556 S
H286 C301 0.959 . S
H287 C301 0.961 . S
H288 C302 0.960 . S
H289 C302 0.961 . S
H290 C302 0.959 . S
H291 C305 0.929 . S
H292 C306 0.931 . S
H293 C308 0.930 . S
C294 H282 0.930 . S
C294 C295 1.399 1_554 S
C294 C299 1.399 1_554 S
C295 C294 1.399 1_556 S
C295 C296 1.376 . S
C296 H283 0.930 . S
C296 C295 1.376 . S
C296 C297 1.388 . S
C297 H284 0.930 . S
C297 C296 1.388 . S
C297 C298 1.390 . S
C298 C297 1.390 . S
C298 C299 1.394 . S
C298 C304 1.465 . S
C299 C294 1.399 1_556 S
C299 C298 1.394 . S
C299 C300 1.519 . S
C300 C299 1.519 . S
C300 C301 1.498 1_556 S
C300 C302 1.555 1_556 S
C300 C303 1.534 . S
C301 H285 0.959 1_554 S
C301 H286 0.959 . S
C301 H287 0.961 . S
C301 C300 1.498 1_554 S
C302 H288 0.960 . S
C302 H289 0.961 . S
C302 H290 0.959 . S
C302 C300 1.555 1_554 S
C303 C300 1.534 . S
C303 C304 1.396 . S
C303 C308 1.390 . S
C304 C298 1.465 . S
C304 C303 1.396 . S
C304 C305 1.399 . S
C305 H291 0.929 . S
C305 C304 1.399 . S
C305 C306 1.385 . S
C306 H292 0.931 . S
C306 C305 1.385 . S
C306 C307 1.389 . S
C307 C306 1.389 . S
C307 C308 1.387 . S
C308 H293 0.930 . S
C308 C303 1.390 . S
C308 C307 1.387 . S
H309 C321 0.930 . S
H310 C323 0.930 . S
H311 C324 0.930 . S
H312 C328 0.959 . S
H313 C328 0.959 . S
H314 C328 0.961 . S
H315 C329 0.960 . S
H316 C329 0.961 . S
H317 C329 0.959 . S
H318 C332 0.929 . S
H319 C333 0.931 . S
H320 C335 0.930 . S
C321 H309 0.930 . S
C321 C322 1.399 . S
C321 C326 1.399 . S
C322 C321 1.399 . S
C322 C323 1.376 . S
C323 H310 0.930 . S
C323 C322 1.376 . S
C323 C324 1.388 . S
C324 H311 0.930 . S
C324 C323 1.388 . S
C324 C325 1.390 . S
C325 C324 1.390 . S
C325 C326 1.394 . S
C325 C331 1.465 . S
C326 C321 1.399 . S
C326 C325 1.394 . S
C326 C327 1.516 . S
C327 C326 1.516 . S
C327 C328 1.502 . S
C327 C329 1.561 . S
C327 C330 1.526 . S
C328 H312 0.959 . S
C328 H313 0.959 . S
C328 H314 0.961 . S
C328 C327 1.502 . S
C329 H315 0.960 . S
C329 H316 0.961 . S
C329 H317 0.959 . S
C329 C327 1.561 . S
C330 C327 1.526 . S
C330 C331 1.396 . S
C330 C335 1.390 . S
C331 C325 1.465 . S
C331 C330 1.396 . S
C331 C332 1.399 . S
C332 H318 0.929 . S
C332 C331 1.399 . S
C332 C333 1.385 . S
C333 H319 0.931 . S
C333 C332 1.385 . S
C333 C334 1.389 . S
C334 C333 1.389 . S
C334 C335 1.387 . S
C335 H320 0.930 . S
C335 C330 1.390 . S
C335 C334 1.387 . S
H336 C348 0.930 . S
H337 C350 0.930 . S
H338 C351 0.930 . S
H339 C355 0.959 . S
H340 C355 0.959 . S
H341 C355 0.961 . S
H342 C356 0.960 . S
H343 C356 0.961 . S
H344 C356 0.959 . S
H345 C359 0.929 . S
H346 C360 0.931 . S
H347 C362 0.930 . S
C348 H336 0.930 . S
C348 C349 1.399 . S
C348 C353 1.399 . S
C349 C348 1.399 . S
C349 C350 1.376 . S
C350 H337 0.930 . S
C350 C349 1.376 . S
C350 C351 1.388 . S
C351 H338 0.930 . S
C351 C350 1.388 . S
C351 C352 1.390 . S
C352 C351 1.390 . S
C352 C353 1.394 . S
C352 C358 1.465 . S
C353 C348 1.399 . S
C353 C352 1.394 . S
C353 C354 1.516 . S
C354 C353 1.516 . S
C354 C355 1.502 . S
C354 C356 1.561 . S
C354 C357 1.526 . S
C355 H339 0.959 . S
C355 H340 0.959 . S
C355 H341 0.961 . S
C355 C354 1.502 . S
C356 H342 0.960 . S
C356 H343 0.961 . S
C356 H344 0.959 . S
C356 C354 1.561 . S
C357 C354 1.526 . S
C357 C358 1.396 . S
C357 C362 1.390 . S
C358 C352 1.465 . S
C358 C357 1.396 . S
C358 C359 1.399 . S
C359 H345 0.929 . S
C359 C358 1.399 . S
C359 C360 1.385 . S
C360 H346 0.931 . S
C360 C359 1.385 . S
C360 C361 1.389 . S
C361 C360 1.389 . S
C361 C362 1.387 . S
C362 H347 0.930 . S
C362 C357 1.390 . S
C362 C361 1.387 . S
H363 C375 0.930 . S
H364 C377 0.930 . S
H365 C378 0.930 . S
H366 C382 0.959 . S
H367 C382 0.959 . S
H368 C382 0.961 . S
H369 C383 0.960 . S
H370 C383 0.961 . S
H371 C383 0.959 . S
H372 C386 0.929 . S
H373 C387 0.931 . S
H374 C389 0.930 . S
C375 H363 0.930 . S
C375 C376 1.399 . S
C375 C380 1.399 . S
C376 C375 1.399 . S
C376 C377 1.376 . S
C377 H364 0.930 . S
C377 C376 1.376 . S
C377 C378 1.388 . S
C378 H365 0.930 . S
C378 C377 1.388 . S
C378 C379 1.390 . S
C379 C378 1.390 . S
C379 C380 1.394 . S
C379 C385 1.465 . S
C380 C375 1.399 . S
C380 C379 1.394 . S
C380 C381 1.516 . S
C381 C380 1.516 . S
C381 C382 1.502 . S
C381 C383 1.561 . S
C381 C384 1.526 . S
C382 H366 0.959 . S
C382 H367 0.959 . S
C382 H368 0.961 . S
C382 C381 1.502 . S
C383 H369 0.960 . S
C383 H370 0.961 . S
C383 H371 0.959 . S
C383 C381 1.561 . S
C384 C381 1.526 . S
C384 C385 1.396 . S
C384 C389 1.390 . S
C385 C379 1.465 . S
C385 C384 1.396 . S
C385 C386 1.399 . S
C386 H372 0.929 . S
C386 C385 1.399 . S
C386 C387 1.385 . S
C387 H373 0.931 . S
C387 C386 1.385 . S
C387 C388 1.389 . S
C388 C387 1.389 . S
C388 C389 1.387 . S
C389 H374 0.930 . S
C389 C384 1.390 . S
C389 C388 1.387 . S
H390 C402 0.930 . S
H391 C404 0.930 . S
H392 C405 0.930 1_556 S
H393 C409 0.959 . S
H394 C409 0.959 . S
H395 C409 0.961 . S
H396 C410 0.960 . S
H397 C410 0.961 . S
H398 C410 0.959 . S
H399 C413 0.929 . S
H400 C414 0.931 . S
H401 C416 0.930 . S
C402 H390 0.930 . S
C402 C403 1.400 . S
C402 C407 1.399 . S
C403 C402 1.400 . S
C403 C404 1.376 1_554 S
C404 H391 0.930 . S
C404 C403 1.376 1_556 S
C404 C405 1.388 1_556 S
C405 H392 0.930 1_554 S
C405 C404 1.388 1_554 S
C405 C406 1.390 . S
C406 C405 1.390 . S
C406 C407 1.394 . S
C406 C412 1.465 . S
C407 C402 1.399 . S
C407 C406 1.394 . S
C407 C408 1.516 . S
C408 C407 1.516 . S
C408 C409 1.502 . S
C408 C410 1.561 . S
C408 C411 1.526 . S
C409 H393 0.959 . S
C409 H394 0.959 . S
C409 H395 0.961 . S
C409 C408 1.502 . S
C410 H396 0.960 . S
C410 H397 0.961 . S
C410 H398 0.959 . S
C410 C408 1.561 . S
C411 C408 1.526 . S
C411 C412 1.396 . S
C411 C416 1.390 . S
C412 C406 1.465 . S
C412 C411 1.396 . S
C412 C413 1.399 . S
C413 H399 0.929 . S
C413 C412 1.399 . S
C413 C414 1.385 . S
C414 H400 0.931 . S
C414 C413 1.385 . S
C414 C415 1.389 . S
C415 C414 1.389 . S
C415 C416 1.387 . S
C416 H401 0.930 . S
C416 C411 1.390 . S
C416 C415 1.387 . S
H417 C429 0.930 . S
H418 C431 0.930 . S
H419 C432 0.930 1_455 S
H420 C436 0.959 . S
H421 C436 0.959 . S
H422 C436 0.961 . S
H423 C437 0.960 . S
H424 C437 0.961 . S
H425 C437 0.959 . S
H426 C440 0.929 . S
H427 C441 0.931 . S
H428 C443 0.930 . S
C429 H417 0.930 . S
C429 C430 1.399 . S
C429 C434 1.399 . S
C430 C429 1.399 . S
C430 C431 1.376 . S
C431 H418 0.930 . S
C431 C430 1.376 . S
C431 C432 1.388 . S
C432 H419 0.930 1_655 S
C432 C431 1.388 . S
C432 C433 1.390 . S
C433 C432 1.390 . S
C433 C434 1.394 . S
C433 C439 1.465 1_655 S
C434 C429 1.399 . S
C434 C433 1.394 . S
C434 C435 1.516 . S
C435 C434 1.516 . S
C435 C436 1.502 . S
C435 C437 1.561 . S
C435 C438 1.526 1_655 S
C436 H420 0.959 . S
C436 H421 0.959 . S
C436 H422 0.961 . S
C436 C435 1.502 . S
C437 H423 0.960 . S
C437 H424 0.961 . S
C437 H425 0.959 . S
C437 C435 1.561 . S
C438 C435 1.526 1_455 S
C438 C439 1.396 . S
C438 C443 1.390 . S
C439 C433 1.465 1_455 S
C439 C438 1.396 . S
C439 C440 1.399 . S
C440 H426 0.929 . S
C440 C439 1.399 . S
C440 C441 1.385 . S
C441 H427 0.931 . S
C441 C440 1.385 . S
C441 C442 1.389 . S
C442 C441 1.389 . S
C442 C443 1.387 . S
C443 H428 0.930 . S
C443 C438 1.390 . S
C443 C442 1.387 . S
H444 C456 0.930 . S
H445 C458 0.930 . S
H446 C459 0.930 . S
H447 C463 0.959 . S
H448 C463 0.959 . S
H449 C463 0.961 . S
H450 C464 0.960 . S
H451 C464 0.961 . S
H452 C464 0.959 . S
H453 C467 0.929 . S
H454 C468 0.931 . S
H455 C470 0.930 . S
C456 H444 0.930 . S
C456 C457 1.399 . S
C456 C461 1.399 . S
C457 C456 1.399 . S
C457 C458 1.376 . S
C458 H445 0.930 . S
C458 C457 1.376 . S
C458 C459 1.388 . S
C459 H446 0.930 . S
C459 C458 1.388 . S
C459 C460 1.390 . S
C460 C459 1.390 . S
C460 C461 1.394 . S
C460 C466 1.465 1_554 S
C461 C456 1.399 . S
C461 C460 1.394 . S
C461 C462 1.516 1_554 S
C462 C461 1.516 1_556 S
C462 C463 1.502 . S
C462 C464 1.561 . S
C462 C465 1.526 . S
C463 H447 0.959 . S
C463 H448 0.959 . S
C463 H449 0.961 . S
C463 C462 1.502 . S
C464 H450 0.960 . S
C464 H451 0.961 . S
C464 H452 0.959 . S
C464 C462 1.561 . S
C465 C462 1.526 . S
C465 C466 1.396 . S
C465 C470 1.390 . S
C466 C460 1.465 1_556 S
C466 C465 1.396 . S
C466 C467 1.399 1_556 S
C467 H453 0.929 . S
C467 C466 1.399 1_554 S
C467 C468 1.385 1_554 S
C468 H454 0.931 . S
C468 C467 1.385 1_556 S
C468 C469 1.389 . S
C469 C468 1.389 . S
C469 C470 1.387 . S
C470 H455 0.930 . S
C470 C465 1.390 . S
C470 C469 1.387 . S
H471 C483 0.930 . S
H472 C485 0.930 . S
H473 C486 0.930 . S
H474 C490 0.959 . S
H475 C490 0.959 . S
H476 C490 0.961 . S
H477 C491 0.960 . S
H478 C491 0.961 . S
H479 C491 0.959 . S
H480 C494 0.929 . S
H481 C495 0.931 . S
H482 C497 0.930 . S
C483 H471 0.930 . S
C483 C484 1.399 . S
C483 C488 1.399 . S
C484 C483 1.399 . S
C484 C485 1.376 . S
C485 H472 0.930 . S
C485 C484 1.376 . S
C485 C486 1.388 . S
C486 H473 0.930 . S
C486 C485 1.388 . S
C486 C487 1.390 . S
C487 C486 1.390 . S
C487 C488 1.394 . S
C487 C493 1.465 1_545 S
C488 C483 1.399 . S
C488 C487 1.394 . S
C488 C489 1.516 1_545 S
C489 C488 1.516 1_565 S
C489 C490 1.502 . S
C489 C491 1.561 . S
C489 C492 1.526 . S
C490 H474 0.959 . S
C490 H475 0.959 . S
C490 H476 0.961 . S
C490 C489 1.502 . S
C491 H477 0.960 . S
C491 H478 0.961 . S
C491 H479 0.959 . S
C491 C489 1.561 . S
C492 C489 1.526 . S
C492 C493 1.396 . S
C492 C497 1.390 . S
C493 C487 1.465 1_565 S
C493 C492 1.396 . S
C493 C494 1.399 . S
C494 H480 0.929 . S
C494 C493 1.399 . S
C494 C495 1.385 . S
C495 H481 0.931 . S
C495 C494 1.385 . S
C495 C496 1.389 . S
C496 C495 1.389 . S
C496 C497 1.387 . S
C497 H482 0.930 . S
C497 C492 1.390 . S
C497 C496 1.387 . S
H498 C510 0.930 . S
H499 C512 0.930 . S
H500 C513 0.930 . S
H501 C517 0.959 . S
H502 C517 0.959 . S
H503 C517 0.961 . S
H504 C518 0.960 . S
H505 C518 0.961 . S
H506 C518 0.959 . S
H507 C521 0.929 . S
H508 C522 0.931 . S
H509 C524 0.930 . S
C510 H498 0.930 . S
C510 C511 1.399 1_556 S
C510 C515 1.399 . S
C511 C510 1.399 1_554 S
C511 C512 1.376 . S
C512 H499 0.930 . S
C512 C511 1.376 . S
C512 C513 1.388 . S
C513 H500 0.930 . S
C513 C512 1.388 . S
C513 C514 1.390 . S
C514 C513 1.390 . S
C514 C515 1.394 1_554 S
C514 C520 1.465 . S
C515 C510 1.399 . S
C515 C514 1.394 1_556 S
C515 C516 1.516 . S
C516 C515 1.516 . S
C516 C517 1.502 . S
C516 C518 1.561 . S
C516 C519 1.526 . S
C517 H501 0.959 . S
C517 H502 0.959 . S
C517 H503 0.961 . S
C517 C516 1.502 . S
C518 H504 0.960 . S
C518 H505 0.961 . S
C518 H506 0.959 . S
C518 C516 1.561 . S
C519 C516 1.526 . S
C519 C520 1.396 1_556 S
C519 C524 1.390 . S
C520 C514 1.465 . S
C520 C519 1.396 1_554 S
C520 C521 1.399 . S
C521 H507 0.929 . S
C521 C520 1.399 . S
C521 C522 1.385 . S
C522 H508 0.931 . S
C522 C521 1.385 . S
C522 C523 1.389 . S
C523 C522 1.389 . S
C523 C524 1.387 1_554 S
C524 H509 0.930 . S
C524 C519 1.390 . S
C524 C523 1.387 1_556 S
H525 C537 0.930 . S
H526 C539 0.930 . S
H527 C540 0.930 . S
H528 C544 0.959 . S
H529 C544 0.959 1_545 S
H530 C544 0.961 . S
H531 C545 0.960 . S
H532 C545 0.961 1_545 S
H533 C545 0.959 . S
H534 C548 0.929 . S
H535 C549 0.931 . S
H536 C551 0.930 . S
C537 H525 0.930 . S
C537 C538 1.399 . S
C537 C542 1.399 . S
C538 C537 1.399 . S
C538 C539 1.376 . S
C539 H526 0.930 . S
C539 C538 1.376 . S
C539 C540 1.388 . S
C540 H527 0.930 . S
C540 C539 1.388 . S
C540 C541 1.390 . S
C541 C540 1.390 . S
C541 C542 1.394 . S
C541 C547 1.465 1_565 S
C542 C537 1.399 . S
C542 C541 1.394 . S
C542 C543 1.516 . S
C543 C542 1.516 . S
C543 C544 1.502 . S
C543 C545 1.561 . S
C543 C546 1.526 1_565 S
C544 H528 0.959 . S
C544 H529 0.959 1_565 S
C544 H530 0.961 . S
C544 C543 1.502 . S
C545 H531 0.960 . S
C545 H532 0.961 1_565 S
C545 H533 0.959 . S
C545 C543 1.561 . S
C546 C543 1.526 1_545 S
C546 C547 1.396 . S
C546 C551 1.390 . S
C547 C541 1.465 1_545 S
C547 C546 1.396 . S
C547 C548 1.399 . S
C548 H534 0.929 . S
C548 C547 1.399 . S
C548 C549 1.385 . S
C549 H535 0.931 . S
C549 C548 1.385 . S
C549 C550 1.389 . S
C550 C549 1.389 . S
C550 C551 1.387 . S
C551 H536 0.930 . S
C551 C546 1.390 . S
C551 C550 1.387 . S
H552 C564 0.930 . S
H553 C566 0.930 . S
H554 C567 0.930 . S
H555 C571 0.959 . S
H556 C571 0.959 1_455 S
H557 C571 0.961 . S
H558 C572 0.960 . S
H559 C572 0.961 1_455 S
H560 C572 0.959 . S
H561 C575 0.929 . S
H562 C576 0.931 . S
H563 C578 0.930 . S
C564 H552 0.930 . S
C564 C565 1.399 . S
C564 C569 1.399 . S
C565 C564 1.399 . S
C565 C566 1.376 . S
C566 H553 0.930 . S
C566 C565 1.376 . S
C566 C567 1.388 . S
C567 H554 0.930 . S
C567 C566 1.388 . S
C567 C568 1.390 . S
C568 C567 1.390 . S
C568 C569 1.394 . S
C568 C574 1.465 1_655 S
C569 C564 1.399 . S
C569 C568 1.394 . S
C569 C570 1.516 . S
C570 C569 1.516 . S
C570 C571 1.502 . S
C570 C572 1.561 . S
C570 C573 1.526 1_655 S
C571 H555 0.959 . S
C571 H556 0.959 1_655 S
C571 H557 0.961 . S
C571 C570 1.502 . S
C572 H558 0.960 . S
C572 H559 0.961 1_655 S
C572 H560 0.959 . S
C572 C570 1.561 . S
C573 C570 1.526 1_455 S
C573 C574 1.396 . S
C573 C578 1.390 . S
C574 C568 1.465 1_455 S
C574 C573 1.396 . S
C574 C575 1.399 . S
C575 H561 0.929 . S
C575 C574 1.399 . S
C575 C576 1.385 . S
C576 H562 0.931 . S
C576 C575 1.385 . S
C576 C577 1.389 . S
C577 C576 1.389 . S
C577 C578 1.387 . S
C578 H563 0.930 . S
C578 C573 1.390 . S
C578 C577 1.387 . S
H579 C591 0.930 . S
H580 C593 0.930 . S
H581 C594 0.930 . S
H582 C598 0.959 . S
H583 C598 0.959 . S
H584 C598 0.961 . S
H585 C599 0.960 . S
H586 C599 0.961 . S
H587 C599 0.959 . S
H588 C602 0.929 . S
H589 C603 0.931 . S
H590 C605 0.930 . S
C591 H579 0.930 . S
C591 C592 1.399 . S
C591 C596 1.399 . S
C592 C591 1.399 . S
C592 C593 1.376 . S
C593 H580 0.930 . S
C593 C592 1.376 . S
C593 C594 1.388 . S
C594 H581 0.930 . S
C594 C593 1.388 . S
C594 C595 1.390 . S
C595 C594 1.390 . S
C595 C596 1.394 . S
C595 C601 1.465 . S
C596 C591 1.399 . S
C596 C595 1.394 . S
C596 C597 1.516 . S
C597 C596 1.516 . S
C597 C598 1.502 . S
C597 C599 1.561 . S
C597 C600 1.526 . S
C598 H582 0.959 . S
C598 H583 0.959 . S
C598 H584 0.961 . S
C598 C597 1.502 . S
C599 H585 0.960 . S
C599 H586 0.961 . S
C599 H587 0.959 . S
C599 C597 1.561 . S
C600 C597 1.526 . S
C600 C601 1.396 . S
C600 C605 1.390 . S
C601 C595 1.465 . S
C601 C600 1.396 . S
C601 C602 1.399 . S
C602 H588 0.929 . S
C602 C601 1.399 . S
C602 C603 1.385 . S
C603 H589 0.931 . S
C603 C602 1.385 . S
C603 C604 1.389 . S
C604 C603 1.389 . S
C604 C605 1.387 . S
C605 H590 0.930 . S
C605 C600 1.390 . S
C605 C604 1.387 . S
H606 C618 0.930 . S
H607 C620 0.930 . S
H608 C621 0.930 . S
H609 C625 0.959 . S
H610 C625 0.959 . S
H611 C625 0.961 . S
H612 C626 0.960 . S
H613 C626 0.961 . S
H614 C626 0.959 . S
H615 C629 0.929 . S
H616 C630 0.931 . S
H617 C632 0.930 . S
C618 H606 0.930 . S
C618 C619 1.399 . S
C618 C623 1.399 . S
C619 C618 1.399 . S
C619 C620 1.376 . S
C620 H607 0.930 . S
C620 C619 1.376 . S
C620 C621 1.388 . S
C621 H608 0.930 . S
C621 C620 1.388 . S
C621 C622 1.390 . S
C622 C621 1.390 . S
C622 C623 1.394 . S
C622 C628 1.465 . S
C623 C618 1.399 . S
C623 C622 1.394 . S
C623 C624 1.516 . S
C624 C623 1.516 . S
C624 C625 1.502 . S
C624 C626 1.561 . S
C624 C627 1.526 . S
C625 H609 0.959 . S
C625 H610 0.959 . S
C625 H611 0.961 . S
C625 C624 1.502 . S
C626 H612 0.960 . S
C626 H613 0.961 . S
C626 H614 0.959 . S
C626 C624 1.561 . S
C627 C624 1.526 . S
C627 C628 1.396 . S
C627 C632 1.390 . S
C628 C622 1.465 . S
C628 C627 1.396 . S
C628 C629 1.399 . S
C629 H615 0.929 . S
C629 C628 1.399 . S
C629 C630 1.385 . S
C630 H616 0.931 . S
C630 C629 1.385 . S
C630 C631 1.389 . S
C631 C630 1.389 . S
C631 C632 1.387 . S
C632 H617 0.930 . S
C632 C627 1.390 . S
C632 C631 1.387 . S
H633 C645 0.930 . S
H634 C647 0.930 . S
H635 C648 0.930 . S
H636 C652 0.959 . S
H637 C652 0.959 . S
H638 C652 0.961 . S
H639 C653 0.960 . S
H640 C653 0.961 . S
H641 C653 0.959 . S
H642 C656 0.929 . S
H643 C657 0.931 . S
H644 C659 0.930 . S
C645 H633 0.930 . S
C645 C646 1.399 . S
C645 C650 1.399 . S
C646 C645 1.399 . S
C646 C647 1.376 . S
C647 H634 0.930 . S
C647 C646 1.376 . S
C647 C648 1.388 . S
C648 H635 0.930 . S
C648 C647 1.388 . S
C648 C649 1.390 . S
C649 C648 1.390 . S
C649 C650 1.394 . S
C649 C655 1.465 . S
C650 C645 1.399 . S
C650 C649 1.394 . S
C650 C651 1.516 . S
C651 C650 1.516 . S
C651 C652 1.502 . S
C651 C653 1.561 . S
C651 C654 1.526 . S
C652 H636 0.959 . S
C652 H637 0.959 . S
C652 H638 0.961 . S
C652 C651 1.502 . S
C653 H639 0.960 . S
C653 H640 0.961 . S
C653 H641 0.959 . S
C653 C651 1.561 . S
C654 C651 1.526 . S
C654 C655 1.396 . S
C654 C659 1.390 1_556 S
C655 C649 1.465 . S
C655 C654 1.396 . S
C655 C656 1.399 . S
C656 H642 0.929 . S
C656 C655 1.399 . S
C656 C657 1.385 1_556 S
C657 H643 0.931 . S
C657 C656 1.385 1_554 S
C657 C658 1.389 . S
C658 C657 1.389 . S
C658 C659 1.387 . S
C659 H644 0.930 . S
C659 C654 1.390 1_554 S
C659 C658 1.387 . S
H660 C672 0.930 . S
H661 C674 0.930 . S
H662 C675 0.930 . S
H663 C679 0.959 . S
H664 C679 0.959 . S
H665 C679 0.961 . S
H666 C680 0.960 . S
H667 C680 0.961 . S
H668 C680 0.959 . S
H669 C683 0.929 . S
H670 C684 0.931 . S
H671 C686 0.930 . S
C672 H660 0.930 . S
C672 C673 1.399 . S
C672 C677 1.399 . S
C673 C672 1.399 . S
C673 C674 1.376 . S
C674 H661 0.930 . S
C674 C673 1.376 . S
C674 C675 1.388 . S
C675 H662 0.930 . S
C675 C674 1.388 . S
C675 C676 1.390 . S
C676 C675 1.390 . S
C676 C677 1.394 . S
C676 C682 1.465 . S
C677 C672 1.399 . S
C677 C676 1.394 . S
C677 C678 1.516 . S
C678 C677 1.516 . S
C678 C679 1.502 . S
C678 C680 1.561 . S
C678 C681 1.526 . S
C679 H663 0.959 . S
C679 H664 0.959 . S
C679 H665 0.961 . S
C679 C678 1.502 . S
C680 H666 0.960 . S
C680 H667 0.961 . S
C680 H668 0.959 . S
C680 C678 1.561 . S
C681 C678 1.526 . S
C681 C682 1.396 . S
C681 C686 1.390 . S
C682 C676 1.465 . S
C682 C681 1.396 . S
C682 C683 1.399 . S
C683 H669 0.929 . S
C683 C682 1.399 . S
C683 C684 1.385 . S
C684 H670 0.931 . S
C684 C683 1.385 . S
C684 C685 1.389 . S
C685 C684 1.389 . S
C685 C686 1.387 . S
C686 H671 0.930 . S
C686 C681 1.390 . S
C686 C685 1.387 . S
H687 C699 0.930 . S
H688 C701 0.930 . S
H689 C702 0.930 . S
H690 C706 0.959 . S
H691 C706 0.959 . S
H692 C706 0.961 . S
H693 C707 0.960 . S
H694 C707 0.961 . S
H695 C707 0.959 . S
H696 C710 0.929 . S
H697 C711 0.931 . S
H698 C713 0.930 . S
C699 H687 0.930 . S
C699 C700 1.399 . S
C699 C704 1.399 . S
C700 C699 1.399 . S
C700 C701 1.376 . S
C701 H688 0.930 . S
C701 C700 1.376 . S
C701 C702 1.388 . S
C702 H689 0.930 . S
C702 C701 1.388 . S
C702 C703 1.390 . S
C703 C702 1.390 . S
C703 C704 1.394 . S
C703 C709 1.465 . S
C704 C699 1.399 . S
C704 C703 1.394 . S
C704 C705 1.516 . S
C705 C704 1.516 . S
C705 C706 1.502 . S
C705 C707 1.561 . S
C705 C708 1.526 . S
C706 H690 0.959 . S
C706 H691 0.959 . S
C706 H692 0.961 . S
C706 C705 1.502 . S
C707 H693 0.960 . S
C707 H694 0.961 . S
C707 H695 0.959 . S
C707 C705 1.561 . S
C708 C705 1.526 . S
C708 C709 1.396 . S
C708 C713 1.390 1_554 S
C709 C703 1.465 . S
C709 C708 1.396 . S
C709 C710 1.399 1_554 S
C710 H696 0.929 . S
C710 C709 1.399 1_556 S
C710 C711 1.385 . S
C711 H697 0.931 . S
C711 C710 1.385 . S
C711 C712 1.389 . S
C712 C711 1.389 . S
C712 C713 1.387 . S
C713 H698 0.930 . S
C713 C708 1.390 1_556 S
C713 C712 1.387 . S
H714 C726 0.930 . S
H715 C728 0.930 . S
H716 C729 0.930 . S
H717 C733 0.959 . S
H718 C733 0.959 . S
H719 C733 0.961 . S
H720 C734 0.960 . S
H721 C734 0.961 . S
H722 C734 0.959 . S
H723 C737 0.929 . S
H724 C738 0.931 . S
H725 C740 0.930 . S
C726 H714 0.930 . S
C726 C727 1.399 . S
C726 C731 1.399 . S
C727 C726 1.399 . S
C727 C728 1.376 . S
C728 H715 0.930 . S
C728 C727 1.376 . S
C728 C729 1.388 . S
C729 H716 0.930 . S
C729 C728 1.388 . S
C729 C730 1.390 . S
C730 C729 1.390 . S
C730 C731 1.394 . S
C730 C736 1.465 . S
C731 C726 1.399 . S
C731 C730 1.394 . S
C731 C732 1.516 . S
C732 C731 1.516 . S
C732 C733 1.502 . S
C732 C734 1.561 . S
C732 C735 1.526 . S
C733 H717 0.959 . S
C733 H718 0.959 . S
C733 H719 0.961 . S
C733 C732 1.502 . S
C734 H720 0.960 . S
C734 H721 0.961 . S
C734 H722 0.959 . S
C734 C732 1.561 . S
C735 C732 1.526 . S
C735 C736 1.396 . S
C735 C740 1.390 . S
C736 C730 1.465 . S
C736 C735 1.396 . S
C736 C737 1.399 . S
C737 H723 0.929 . S
C737 C736 1.399 . S
C737 C738 1.385 . S
C738 H724 0.931 . S
C738 C737 1.385 . S
C738 C739 1.389 . S
C739 C738 1.389 . S
C739 C740 1.387 . S
C740 H725 0.930 . S
C740 C735 1.390 . S
C740 C739 1.387 . S
C187 C13 2.368 1_556 S
C199 C129 2.391 . S
C214 C158 2.383 . S
C226 C42 2.375 . S
C241 C71 2.363 . S
C253 C100 2.404 1_554 S
C268 C10 1.933 . S
C280 C79 1.687 . S
C295 C21 1.651 1_556 S
C307 C39 1.906 . S
C322 C50 1.590 . S
C334 C68 1.899 . S
C349 C97 1.899 . S
C361 C137 1.585 . S
C376 C126 1.900 . S
C388 C166 1.577 . S
C403 C108 1.690 1_554 S
C415 C155 1.932 . S
C430 C131 1.381 . S
C442 C15 1.397 . S
C457 C160 1.392 . S
C469 C44 1.403 . S
C484 C102 1.361 . S
C496 C73 1.353 . S
C511 C5 2.670 . S
C523 C92 2.713 1_554 S
C538 C34 2.707 . S
C550 C121 2.671 . S
C565 C150 2.674 . S
C577 C63 2.710 . S
C592 C8 1.109 . S
C604 C3 1.104 . S
C619 C32 1.058 . S
C631 C37 1.144 . S
C646 C66 1.050 . S
C658 C61 1.144 . S
C673 C95 1.146 . S
C685 C90 1.055 . S
C700 C124 1.121 . S
C712 C119 1.066 . S
C727 C148 1.054 . S
C739 C153 1.135 . S
