# Generated by pormake.
# Topology ung, (4)-cn, num edge types: 1
# Building blocks:
#     Node 0, Type 0, BuildingBlock: QUQFOY_clean_sbu_1, # of connection points: 4
#     Node 1, Type 0, BuildingBlock: QUQFOY_clean_sbu_1, # of connection points: 4
#     Node 2, Type 0, BuildingBlock: QUQFOY_clean_sbu_1, # of connection points: 4
#     Node 3, Type 0, BuildingBlock: QUQFOY_clean_sbu_1, # of connection points: 4
#     Node 4, Type 0, BuildingBlock: QUQFOY_clean_sbu_1, # of connection points: 4
#     Node 5, Type 0, BuildingBlock: QUQFOY_clean_sbu_1, # of connection points: 4
#     Node 6, Type 0, BuildingBlock: QUQFOY_clean_sbu_1, # of connection points: 4
#     Node 7, Type 0, BuildingBlock: QUQFOY_clean_sbu_1, # of connection points: 4
#     Node 8, Type 0, BuildingBlock: QUQFOY_clean_sbu_1, # of connection points: 4
#     Node 9, Type 0, BuildingBlock: QUQFOY_clean_sbu_1, # of connection points: 4
#     Node 10, Type 0, BuildingBlock: QUQFOY_clean_sbu_1, # of connection points: 4
#     Node 11, Type 0, BuildingBlock: QUQFOY_clean_sbu_1, # of connection points: 4
#     Node 12, Type 0, BuildingBlock: QUQFOY_clean_sbu_1, # of connection points: 4
#     Node 13, Type 0, BuildingBlock: QUQFOY_clean_sbu_1, # of connection points: 4
#     Node 14, Type 0, BuildingBlock: QUQFOY_clean_sbu_1, # of connection points: 4
#     Node 15, Type 0, BuildingBlock: QUQFOY_clean_sbu_1, # of connection points: 4
#     Node 16, Type 0, BuildingBlock: QUQFOY_clean_sbu_1, # of connection points: 4
#     Node 17, Type 0, BuildingBlock: QUQFOY_clean_sbu_1, # of connection points: 4
#     Edge 18, Type (0, 0), BuildingBlock: XUDNAN_clean_linker_2, # of connection points: 2
#     Edge 19, Type (0, 0), BuildingBlock: XUDNAN_clean_linker_2, # of connection points: 2
#     Edge 20, Type (0, 0), BuildingBlock: XUDNAN_clean_linker_2, # of connection points: 2
#     Edge 21, Type (0, 0), BuildingBlock: XUDNAN_clean_linker_2, # of connection points: 2
#     Edge 22, Type (0, 0), BuildingBlock: XUDNAN_clean_linker_2, # of connection points: 2
#     Edge 23, Type (0, 0), BuildingBlock: XUDNAN_clean_linker_2, # of connection points: 2
#     Edge 24, Type (0, 0), BuildingBlock: XUDNAN_clean_linker_2, # of connection points: 2
#     Edge 25, Type (0, 0), BuildingBlock: XUDNAN_clean_linker_2, # of connection points: 2
#     Edge 26, Type (0, 0), BuildingBlock: XUDNAN_clean_linker_2, # of connection points: 2
#     Edge 27, Type (0, 0), BuildingBlock: XUDNAN_clean_linker_2, # of connection points: 2
#     Edge 28, Type (0, 0), BuildingBlock: XUDNAN_clean_linker_2, # of connection points: 2
#     Edge 29, Type (0, 0), BuildingBlock: XUDNAN_clean_linker_2, # of connection points: 2
#     Edge 30, Type (0, 0), BuildingBlock: XUDNAN_clean_linker_2, # of connection points: 2
#     Edge 31, Type (0, 0), BuildingBlock: XUDNAN_clean_linker_2, # of connection points: 2
#     Edge 32, Type (0, 0), BuildingBlock: XUDNAN_clean_linker_2, # of connection points: 2
#     Edge 33, Type (0, 0), BuildingBlock: XUDNAN_clean_linker_2, # of connection points: 2
#     Edge 34, Type (0, 0), BuildingBlock: XUDNAN_clean_linker_2, # of connection points: 2
#     Edge 35, Type (0, 0), BuildingBlock: XUDNAN_clean_linker_2, # of connection points: 2
#     Edge 36, Type (0, 0), BuildingBlock: XUDNAN_clean_linker_2, # of connection points: 2
#     Edge 37, Type (0, 0), BuildingBlock: XUDNAN_clean_linker_2, # of connection points: 2
#     Edge 38, Type (0, 0), BuildingBlock: XUDNAN_clean_linker_2, # of connection points: 2
#     Edge 39, Type (0, 0), BuildingBlock: XUDNAN_clean_linker_2, # of connection points: 2
#     Edge 40, Type (0, 0), BuildingBlock: XUDNAN_clean_linker_2, # of connection points: 2
#     Edge 41, Type (0, 0), BuildingBlock: XUDNAN_clean_linker_2, # of connection points: 2
#     Edge 42, Type (0, 0), BuildingBlock: XUDNAN_clean_linker_2, # of connection points: 2
#     Edge 43, Type (0, 0), BuildingBlock: XUDNAN_clean_linker_2, # of connection points: 2
#     Edge 44, Type (0, 0), BuildingBlock: XUDNAN_clean_linker_2, # of connection points: 2
#     Edge 45, Type (0, 0), BuildingBlock: XUDNAN_clean_linker_2, # of connection points: 2
#     Edge 46, Type (0, 0), BuildingBlock: XUDNAN_clean_linker_2, # of connection points: 2
#     Edge 47, Type (0, 0), BuildingBlock: XUDNAN_clean_linker_2, # of connection points: 2
#     Edge 48, Type (0, 0), BuildingBlock: XUDNAN_clean_linker_2, # of connection points: 2
#     Edge 49, Type (0, 0), BuildingBlock: XUDNAN_clean_linker_2, # of connection points: 2
#     Edge 50, Type (0, 0), BuildingBlock: XUDNAN_clean_linker_2, # of connection points: 2
#     Edge 51, Type (0, 0), BuildingBlock: XUDNAN_clean_linker_2, # of connection points: 2
#     Edge 52, Type (0, 0), BuildingBlock: XUDNAN_clean_linker_2, # of connection points: 2
#     Edge 53, Type (0, 0), BuildingBlock: XUDNAN_clean_linker_2, # of connection points: 2
# Relax obj value: 0.071
# Max RMSD: 0.175
# Mean RMSD: 0.149
data_MOF--net-ung--node1-QUQFOY_clean_sbu_1--edge1-XUDNAN_clean_linker_2
_symmetry_space_group_name_H-M    P1
_symmetry_Int_Tables_number       1
_symmetry_cell_setting            triclinic
loop_
_symmetry_equiv_pos_as_xyz
'x, y, z'
_cell_length_a     70.221272
_cell_length_b     83.167365
_cell_length_c     22.504467
_cell_angle_alpha  90.693106
_cell_angle_beta   94.442274
_cell_angle_gamma 124.98837
loop_
_atom_site_label
_atom_site_type_symbol
_atom_site_fract_x
_atom_site_fract_y
_atom_site_fract_z
_atom_type_partial_charge
O0 O 0.05285 0.5739 0.29155 0.0
Cd1 Cd 0.05203 0.59094 0.22729 0.0
Cd2 Cd 0.01724 0.58402 0.29103 0.0
O3 O 0.01884 0.56163 0.32639 0.0
O4 O 0.07113 0.59122 0.16443 0.0
O5 O 0.03284 0.57554 0.15002 0.0
C6 C 0.05186 0.57971 0.13067 0.0
C7 C 0.98907 0.58119 0.22034 0.0
C8 C 0.03719 0.562 0.32408 0.0
C9 C 0.06068 0.62497 0.30162 0.0
O10 O 0.04282 0.61209 0.32653 0.0
O11 O 0.06596 0.62013 0.25485 0.0
O12 O 0.98628 0.58075 0.27659 0.0
O13 O 1.00698 0.58216 0.20496 0.0
O14 O 0.47027 0.48094 0.26522 0.0
Cd15 Cd 0.44969 0.45994 0.19801 0.0
Cd16 Cd 0.46414 0.44105 0.26172 0.0
O17 O 0.49029 0.46939 0.29902 0.0
O18 O 0.45141 0.47458 0.12541 0.0
O19 O 0.46748 0.45828 0.13683 0.0
C20 C 0.46474 0.46997 0.10651 0.0
C21 C 0.46572 0.41747 0.20872 0.0
C22 C 0.48696 0.48296 0.29891 0.0
C23 C 0.41522 0.42877 0.26943 0.0
O24 O 0.43285 0.42987 0.29447 0.0
O25 O 0.41686 0.4375 0.22175 0.0
O26 O 0.47225 0.42122 0.26544 0.0
O27 O 0.45999 0.42796 0.18223 0.0
O28 O 0.56672 0.01117 0.19199 0.0
Cd29 Cd 0.58517 0.01714 0.27316 0.0
Cd30 Cd 0.58912 0.98963 0.23219 0.0
O31 O 0.56317 0.98387 0.16591 0.0
O32 O 0.57234 0.02693 0.32783 0.0
O33 O 0.56839 0.99864 0.33586 0.0
C34 C 0.56325 0.01049 0.35296 0.0
C35 C 0.58972 0.96582 0.2858 0.0
C36 C 0.55872 0.99647 0.15525 0.0
C37 C 0.63118 0.03208 0.23678 0.0
O38 O 0.62133 0.01427 0.21787 0.0
O39 O 0.62064 0.03676 0.26869 0.0
O40 O 0.59246 0.96726 0.22963 0.0
O41 O 0.58545 0.9773 0.31109 0.0
O42 O 0.05132 0.49182 0.78587 0.0
Cd43 Cd 0.05123 0.47386 0.72221 0.0
Cd44 Cd 0.01607 0.44749 0.78211 0.0
O45 O 0.01668 0.4712 0.81724 0.0
O46 O 0.07075 0.49213 0.66101 0.0
O47 O 0.03258 0.47021 0.64397 0.0
C48 C 0.05172 0.48474 0.62618 0.0
C49 C 0.98808 0.42152 0.71374 0.0
C50 C 0.03517 0.48861 0.81672 0.0
C51 C 0.06014 0.44957 0.79869 0.0
O52 O 0.04168 0.44497 0.82105 0.0
O53 O 0.06587 0.4591 0.75174 0.0
O54 O 0.98559 0.42042 0.77023 0.0
O55 O 1.00554 0.43773 0.69638 0.0
O56 O 0.56932 0.57024 0.68351 0.0
Cd57 Cd 0.59094 0.5832 0.76055 0.0
Cd58 Cd 0.58365 0.61053 0.73592 0.0
O59 O 0.55766 0.58973 0.6712 0.0
O60 O 0.58739 0.5608 0.80236 0.0
O61 O 0.57536 0.57836 0.83582 0.0
C62 C 0.57622 0.56331 0.84012 0.0
C63 C 0.58122 0.62955 0.80826 0.0
C64 C 0.5567 0.57453 0.65474 0.0
C65 C 0.63115 0.61914 0.72014 0.0
O66 O 0.61676 0.62371 0.71162 0.0
O67 O 0.6254 0.6036 0.74562 0.0
O68 O 0.58171 0.63327 0.75264 0.0
O69 O 0.5801 0.614 0.82202 0.0
O70 O 0.47215 1.00497 0.77865 0.0
Cd71 Cd 0.44786 1.00309 0.71827 0.0
Cd72 Cd 0.4704 0.04107 0.7588 0.0
O73 O 0.49579 0.0373 0.79519 0.0
O74 O 0.44023 0.98164 0.65842 0.0
O75 O 0.45963 0.0131 0.64005 0.0
C76 C 0.45265 0.99546 0.62366 0.0
C77 C 0.47259 0.06266 0.68996 0.0
C78 C 0.49119 0.02025 0.80201 0.0
C79 C 0.42221 0.01214 0.79432 0.0
O80 O 0.44155 0.02894 0.80453 0.0
O81 O 0.41965 0.99957 0.75549 0.0
O82 O 0.48214 0.06909 0.7442 0.0
O83 O 0.46372 0.04455 0.67415 0.0
O84 O 0.71209 0.90308 0.67529 0.0
Cd85 Cd 0.7182 0.91994 0.60308 0.0
Cd86 Cd 0.68061 0.91804 0.64033 0.0
O87 O 0.67623 0.89433 0.68449 0.0
O88 O 0.73178 0.91247 0.54089 0.0
O89 O 0.69588 0.90473 0.53117 0.0
C90 C 0.71148 0.90331 0.5105 0.0
C91 C 0.65323 0.91637 0.56859 0.0
C92 C 0.69284 0.89247 0.69814 0.0
C93 C 0.72796 0.95695 0.65811 0.0
O94 O 0.70767 0.94585 0.67533 0.0
O95 O 0.73506 0.95019 0.62122 0.0
O96 O 0.65141 0.91765 0.62488 0.0
O97 O 0.66987 0.91537 0.55375 0.0
O98 O 0.15013 0.81408 0.65162 0.0
Cd99 Cd 0.12928 0.80146 0.57349 0.0
Cd100 Cd 0.13102 0.77118 0.60698 0.0
O101 O 0.1574 0.79199 0.6712 0.0
O102 O 0.1395 0.82291 0.51739 0.0
O103 O 0.14462 0.79912 0.50703 0.0
C104 C 0.14862 0.81548 0.4901 0.0
C105 C 0.13146 0.74853 0.54472 0.0
C106 C 0.16058 0.80843 0.68399 0.0
C107 C 0.086 0.76843 0.61386 0.0
O108 O 0.09824 0.7619 0.62637 0.0
O109 O 0.09413 0.78387 0.58538 0.0
O110 O 0.12916 0.7461 0.60091 0.0
O111 O 0.13518 0.76447 0.52489 0.0
O112 O 0.22499 0.32801 0.68127 0.0
Cd113 Cd 0.22489 0.31515 0.60386 0.0
Cd114 Cd 0.27178 0.34535 0.62278 0.0
O115 O 0.25963 0.35632 0.6823 0.0
O116 O 0.19481 0.30639 0.55473 0.0
O117 O 0.23008 0.33011 0.53218 0.0
C118 C 0.20777 0.32061 0.52162 0.0
C119 C 0.2956 0.3643 0.54881 0.0
C120 C 0.23998 0.34544 0.7033 0.0
C121 C 0.25531 0.30255 0.63846 0.0
O122 O 0.27133 0.32096 0.64602 0.0
O123 O 0.23481 0.29627 0.61565 0.0
O124 O 0.30445 0.3666 0.60334 0.0
O125 O 0.27347 0.35163 0.53695 0.0
O126 O 0.71457 0.82066 0.16819 0.0
Cd127 Cd 0.71783 0.80767 0.09453 0.0
Cd128 Cd 0.68382 0.77543 0.13755 0.0
O129 O 0.67895 0.79507 0.1797 0.0
O130 O 0.72945 0.82699 0.03094 0.0
O131 O 0.69361 0.79967 0.02548 0.0
C132 C 0.70865 0.81605 1.00324 0.0
C133 C 0.65372 0.74598 0.08347 0.0
C134 C 0.69569 0.81307 0.19244 0.0
C135 C 0.73163 0.78366 0.15032 0.0
O136 O 0.71214 0.77556 0.17199 0.0
O137 O 0.73668 0.79562 0.10961 0.0
O138 O 0.65565 0.74768 0.14109 0.0
O139 O 0.6682 0.76136 0.05631 0.0
O140 O 0.24874 0.90342 0.06966 0.0
Cd141 Cd 0.27086 0.92356 0.13748 0.0
Cd142 Cd 0.25374 0.94248 0.08562 0.0
O143 O 0.22964 0.9158 0.03601 0.0
O144 O 0.27458 0.90713 0.19456 0.0
O145 O 0.25653 0.9211 0.21333 0.0
C146 C 0.26179 0.90904 0.22809 0.0
C147 C 0.24762 0.96062 0.15111 0.0
C148 C 0.23265 0.90206 0.03519 0.0
C149 C 0.30429 0.95839 0.07555 0.0
O150 O 0.28664 0.9584 0.0583 0.0
O151 O 0.30277 0.94633 0.11251 0.0
O152 O 0.24528 0.96169 0.09403 0.0
O153 O 0.25136 0.948 0.17025 0.0
O154 O 0.16251 0.36604 0.17365 0.0
Cd155 Cd 0.14041 0.35684 0.09696 0.0
Cd156 Cd 0.13525 0.38418 0.13708 0.0
O157 O 0.1604 0.3901 0.20624 0.0
O158 O 0.14993 0.34352 0.04472 0.0
O159 O 0.15359 0.37099 0.02337 0.0
C160 C 0.15723 0.35788 0.01047 0.0
C161 C 0.13485 0.40525 0.07008 0.0
C162 C 0.16815 0.37955 0.2129 0.0
C163 C 0.09433 0.34192 0.13894 0.0
O164 O 0.10303 0.35995 0.1512 0.0
O165 O 0.10573 0.33694 0.11227 0.0
O166 O 0.13082 0.40576 0.12489 0.0
O167 O 0.14088 0.39388 0.05486 0.0
O168 O 0.38615 0.23808 0.99704 0.0
Cd169 Cd 0.39302 0.25563 0.9278 0.0
Cd170 Cd 0.3549 0.25356 0.95628 0.0
O171 O 0.35005 0.22938 0.99995 0.0
O172 O 0.40544 0.248 0.86344 0.0
O173 O 0.37 0.24145 0.85649 0.0
C174 C 0.38494 0.23939 0.83436 0.0
C175 C 0.32647 0.25231 0.88983 0.0
C176 C 0.36627 0.22727 0.01644 0.0
C177 C 0.40231 0.29229 0.98379 0.0
O178 O 0.3809 0.28157 0.99359 0.0
O179 O 0.41079 0.2854 0.95251 0.0
O180 O 0.32441 0.25106 0.94638 0.0
O181 O 0.34395 0.25336 0.87081 0.0
O182 O 0.81777 0.1473 0.9988 0.0
Cd183 Cd 0.79525 0.13468 0.92299 0.0
Cd184 Cd 0.79753 0.10499 0.95293 0.0
O185 O 0.82484 0.12504 0.01597 0.0
O186 O 0.80064 0.15795 0.88304 0.0
O187 O 0.80965 0.13864 0.84583 0.0
C188 C 0.81043 0.15453 0.8434 0.0
C189 C 0.79707 0.08253 0.8879 0.0
C190 C 0.8285 0.14159 0.02948 0.0
C191 C 0.75313 0.102 0.96949 0.0
O192 O 0.76539 0.09535 0.97894 0.0
O193 O 0.76072 0.11728 0.94058 0.0
O194 O 0.79582 0.08023 0.94438 0.0
O195 O 0.80024 0.0984 0.86861 0.0
O196 O 0.89976 0.67479 0.84663 0.0
Cd197 Cd 0.92002 0.68319 0.92607 0.0
Cd198 Cd 0.9237 0.65493 0.88704 0.0
O199 O 0.89654 0.64754 0.82258 0.0
O200 O 0.91115 0.69924 0.96494 0.0
O201 O 0.90361 0.67167 0.99999 0.0
C202 C 0.90112 0.68589 1.0024 0.0
C203 C 0.92545 0.63193 0.9424 0.0
C204 C 0.89137 0.65967 0.8116 0.0
C205 C 0.96502 0.69737 0.88283 0.0
O206 O 0.95522 0.67933 0.86686 0.0
O207 O 0.955 0.70242 0.91536 0.0
O208 O 0.92749 0.63289 0.88587 0.0
O209 O 0.9214 0.64358 0.9676 0.0
O210 O 0.38308 0.15517 0.49051 0.0
Cd211 Cd 0.387 0.14257 0.41807 0.0
Cd212 Cd 0.35198 0.10899 0.45684 0.0
O213 O 0.34873 0.12864 0.50668 0.0
O214 O 0.39866 0.16185 0.35501 0.0
O215 O 0.36319 0.13396 0.34755 0.0
C216 C 0.37817 0.1505 0.32593 0.0
C217 C 0.31971 0.07974 0.40683 0.0
C218 C 0.36487 0.1469 0.51788 0.0
C219 C 0.40054 0.11749 0.46685 0.0
O220 O 0.37984 0.10727 0.48206 0.0
O221 O 0.40722 0.13213 0.43553 0.0
O222 O 0.3237 0.08167 0.46428 0.0
O223 O 0.3333 0.09489 0.37766 0.0
O224 O 0.91421 0.23393 0.41966 0.0
Cd225 Cd 0.9376 0.25446 0.48487 0.0
Cd226 Cd 0.928 0.27661 0.42236 0.0
O227 O 0.90082 0.2499 0.37745 0.0
O228 O 0.93425 0.23877 0.55493 0.0
O229 O 0.92404 0.25952 0.55085 0.0
C230 C 0.92403 0.2459 0.57785 0.0
C231 C 0.92601 0.30132 0.46676 0.0
C232 C 0.90024 0.23433 0.38157 0.0
C233 C 0.97517 0.28336 0.41623 0.0
O234 O 0.96014 0.28637 0.39582 0.0
O235 O 0.97099 0.27221 0.45897 0.0
O236 O 0.92407 0.29852 0.40938 0.0
O237 O 0.92746 0.28922 0.49871 0.0
O238 O 0.80291 0.6658 0.4301 0.0
Cd239 Cd 0.77754 0.662 0.36887 0.0
Cd240 Cd 0.79851 0.70117 0.4119 0.0
O241 O 0.82291 0.69765 0.45735 0.0
O242 O 0.77644 0.64701 0.29631 0.0
O243 O 0.78937 0.67841 0.30079 0.0
C244 C 0.78682 0.6637 0.27202 0.0
C245 C 0.80522 0.728 0.35947 0.0
C246 C 0.82007 0.68106 0.45989 0.0
C247 C 0.74817 0.66815 0.43678 0.0
O248 O 0.76638 0.68571 0.44397 0.0
O249 O 0.74751 0.65527 0.40369 0.0
O250 O 0.80707 0.72894 0.41712 0.0
O251 O 0.80178 0.71275 0.33208 0.0
H252 H 0.0076 0.48859 0.89931 0.0
H253 H 0.07214 0.52696 0.81821 0.0
H254 H 0.08159 0.55483 0.88398 0.0
H255 H 0.99537 0.52616 0.92136 0.0
H256 H 0.98407 0.51752 0.9921 0.0
H257 H 0.98107 0.50056 0.93518 0.0
H258 H 1.00172 0.49033 0.00969 0.0
H259 H 1.0048 0.50725 0.0667 0.0
H260 H 0.03022 0.50895 0.04661 0.0
H261 H 0.08684 0.57773 0.96558 0.0
H262 H 0.08592 0.59474 0.05505 0.0
H263 H 0.01727 0.54295 0.08079 0.0
C264 C 0.02349 0.50292 0.89469 0.0
C265 C 0.0391 0.50544 0.85345 0.0
C266 C 0.05984 0.52449 0.84935 0.0
C267 C 0.06541 0.54052 0.88651 0.0
C268 C 0.04999 0.5375 0.92736 0.0
C269 C 0.02931 0.51928 0.93137 0.0
C270 C 0.01637 0.52006 0.98112 0.0
C271 C 0.99282 0.51582 0.95592 0.0
C272 C 0.0131 0.5058 0.02884 0.0
C273 C 0.03335 0.54136 1.00519 0.0
C274 C 0.05263 0.55113 0.9734 0.0
C275 C 0.07162 0.57041 0.99009 0.0
C276 C 0.07099 0.57994 0.04096 0.0
C277 C 0.05138 0.5703 0.07397 0.0
C278 C 0.0322 0.55086 0.05527 0.0
H279 H 0.54486 0.56084 0.91238 0.0
H280 H 0.57565 0.53071 0.86024 0.0
H281 H 0.54865 0.50273 0.91774 0.0
H282 H 0.5354 0.54425 0.06352 0.0
H283 H 0.50814 0.54177 0.06253 0.0
H284 H 0.53056 0.5597 0.019 0.0
H285 H 0.50092 0.54437 0.92416 0.0
H286 H 0.47855 0.52613 0.96718 0.0
H287 H 0.48607 0.51859 0.90277 0.0
H288 H 0.51763 0.47759 0.97765 0.0
H289 H 0.48734 0.45831 0.04551 0.0
H290 H 0.47614 0.50437 0.05855 0.0
C291 C 0.54621 0.54851 0.91389 0.0
C292 C 0.56245 0.54801 0.88187 0.0
C293 C 0.56344 0.53149 0.88452 0.0
C294 C 0.54807 0.51545 0.91678 0.0
C295 C 0.53179 0.51614 0.9462 0.0
C296 C 0.53094 0.53232 0.94583 0.0
C297 C 0.51177 0.52928 0.98148 0.0
C298 C 0.52209 0.54466 0.0348 0.0
C299 C 0.49323 0.52961 0.94149 0.0
C300 C 0.50199 0.50885 1.00191 0.0
C301 C 0.51373 0.50152 0.98068 0.0
C302 C 0.5083 0.48316 0.99454 0.0
C303 C 0.49097 0.47227 0.03288 0.0
C304 C 0.47924 0.47975 0.05696 0.0
C305 C 0.48448 0.49809 0.04 0.0
H306 H 0.54713 0.02148 0.12151 0.0
H307 H 0.54482 0.97096 0.05614 0.0
H308 H 0.5307 0.9737 0.95506 0.0
H309 H 0.49565 0.01035 0.03282 0.0
H310 H 0.50791 0.03584 0.02171 0.0
H311 H 0.51719 0.02928 0.08822 0.0
H312 H 0.56017 0.05259 0.06431 0.0
H313 H 0.55094 0.05882 0.99684 0.0
H314 H 0.56817 0.04913 0.9935 0.0
H315 H 0.5169 0.98209 0.86165 0.0
H316 H 0.50056 0.99324 0.7851 0.0
H317 H 0.51369 0.03915 0.91127 0.0
C318 C 0.54346 0.01081 0.08623 0.0
C319 C 0.54707 0.99595 0.09684 0.0
C320 C 0.54205 0.98237 0.04923 0.0
C321 C 0.53425 0.98394 0.9916 0.0
C322 C 0.53169 0.9992 0.98249 0.0
C323 C 0.53589 0.01225 0.02869 0.0
C324 C 0.5315 0.02718 1.00762 0.0
C325 C 0.51189 0.02555 0.03946 0.0
C326 C 0.55404 0.04817 0.01608 0.0
C327 C 0.52391 0.02042 0.94216 0.0
C328 C 0.52429 1.00433 0.92851 0.0
C329 C 0.51674 0.99477 0.87169 0.0
C330 C 0.50764 1.00128 0.82847 0.0
C331 C 0.5063 0.01726 0.84219 0.0
C332 C 0.51522 0.02732 0.89917 0.0
H333 H 0.5494 0.03245 0.39958 0.0
H334 H 0.5364 0.97474 0.40053 0.0
H335 H 0.50363 0.96347 0.46147 0.0
H336 H 0.53755 0.03434 0.55118 0.0
H337 H 0.52422 0.04713 0.53437 0.0
H338 H 0.54629 0.05025 0.49026 0.0
H339 H 0.51753 0.03959 0.39459 0.0
H340 H 0.4952 0.03601 0.43871 0.0
H341 H 0.48948 0.01614 0.3894 0.0
H342 H 0.47203 0.95845 0.52196 0.0
H343 H 0.44768 0.96144 0.58852 0.0
H344 H 0.48146 0.02241 0.54754 0.0
C345 C 0.53979 0.01748 0.41293 0.0
C346 C 0.54548 1.00448 0.39524 0.0
C347 C 0.53244 0.985 0.41373 0.0
C348 C 0.51366 0.97841 0.44791 0.0
C349 C 0.50815 0.99146 0.4633 0.0
C350 C 0.52106 0.01067 0.44715 0.0
C351 C 0.51215 0.02199 0.47142 0.0
C352 C 0.53118 0.03945 0.51437 0.0
C353 C 0.50305 0.02883 0.42048 0.0
C354 C 0.49234 1.0062 0.50424 0.0
C355 C 0.4901 0.98862 0.49839 0.0
C356 C 0.47356 0.97213 0.52669 0.0
C357 C 0.45967 0.97392 0.56406 0.0
C358 C 0.46256 0.99212 0.57312 0.0
C359 C 0.47859 1.00822 0.5411 0.0
H360 H 0.009 0.53441 0.40283 0.0
H361 H 0.07519 0.56079 0.32766 0.0
H362 H 0.0843 0.54168 0.39035 0.0
H363 H 0.02981 0.53437 0.55068 0.0
H364 H 1.00417 0.51092 0.56596 0.0
H365 H 1.00173 0.52557 0.51186 0.0
H366 H 0.98251 0.49638 0.43193 0.0
H367 H 0.98494 0.48164 0.48587 0.0
H368 H 0.99742 0.48522 0.41607 0.0
H369 H 0.08859 0.52274 0.46786 0.0
H370 H 0.08669 0.50375 0.55364 0.0
H371 H 0.01713 0.48767 0.57605 0.0
C372 C 0.02525 0.53595 0.399 0.0
C373 C 0.04134 0.5492 0.36011 0.0
C374 C 0.0625 0.55082 0.35688 0.0
C375 C 0.06787 0.53996 0.39232 0.0
C376 C 0.05186 0.52727 0.43058 0.0
C377 C 0.03088 0.52502 0.43394 0.0
C378 C 0.01726 0.51085 0.48074 0.0
C379 C 0.013 0.52104 0.53024 0.0
C380 C 0.99416 0.49243 0.45192 0.0
C381 C 0.03417 0.50597 0.50395 0.0
C382 C 0.054 0.51561 0.47422 0.0
C383 C 0.07296 0.51477 0.49073 0.0
C384 C 0.07175 0.50398 0.53945 0.0
C385 C 0.05163 0.49396 0.57056 0.0
C386 C 0.03246 0.49472 0.55186 0.0
H387 H 0.54545 0.53829 0.62013 0.0
H388 H 0.53835 0.58428 0.56103 0.0
H389 H 0.52182 0.56656 0.46102 0.0
H390 H 0.56349 0.53056 0.48707 0.0
H391 H 0.54754 0.50427 0.49058 0.0
H392 H 0.55754 0.51987 0.55836 0.0
H393 H 0.51531 0.5005 0.58871 0.0
H394 H 0.50527 0.48454 0.52178 0.0
H395 H 0.49223 0.49734 0.53724 0.0
H396 H 0.50805 0.54465 0.36659 0.0
H397 H 0.49315 0.51813 0.28784 0.0
H398 H 0.50971 0.4866 0.40895 0.0
C399 C 0.54014 0.54456 0.58648 0.0
C400 C 0.54319 0.5627 0.59837 0.0
C401 C 0.53598 0.57034 0.5531 0.0
C402 C 0.52681 0.56047 0.49606 0.0
C403 C 0.52491 0.543 0.48537 0.0
C404 C 0.531 0.53495 0.52963 0.0
C405 C 0.52719 0.51598 0.50693 0.0
C406 C 0.55032 0.51779 0.51099 0.0
C407 C 0.50891 0.49856 0.54065 0.0
C408 C 0.51801 0.51457 0.44263 0.0
C409 C 0.51699 0.53039 0.43108 0.0
C410 C 0.50871 0.5322 0.37521 0.0
C411 C 0.50039 0.51708 0.33071 0.0
C412 C 0.50035 0.50033 0.34221 0.0
C413 C 0.50988 0.49935 0.3985 0.0
H414 H 0.73081 0.84544 0.2627 0.0
H415 H 0.65549 0.8081 0.22084 0.0
H416 H 0.65184 0.8287 0.2928 0.0
H417 H 0.72973 0.85165 0.41951 0.0
H418 H 0.75524 0.87673 0.42715 0.0
H419 H 0.75202 0.85992 0.36941 0.0
H420 H 0.75684 0.88389 0.28969 0.0
H421 H 0.75996 0.90074 0.3472 0.0
H422 H 0.73778 0.89191 0.28501 0.0
H423 H 0.65642 0.85336 0.36869 0.0
H424 H 0.66817 0.87804 0.45106 0.0
H425 H 0.74048 0.89828 0.44876 0.0
C426 C 0.71356 0.84171 0.26829 0.0
C427 C 0.69341 0.82528 0.23577 0.0
C428 C 0.67113 0.82063 0.24522 0.0
C429 C 0.66891 0.8323 0.28574 0.0
C430 C 0.68912 0.84841 0.31701 0.0
C431 C 0.711 0.85298 0.30938 0.0
C432 C 0.72978 0.87031 0.35137 0.0
C433 C 0.74243 0.86428 0.39441 0.0
C434 C 0.74711 0.88774 0.3162 0.0
C435 C 0.71504 0.87475 0.38402 0.0
C436 C 0.69168 0.86212 0.36277 0.0
C437 C 0.67464 0.86329 0.38576 0.0
C438 C 0.68155 0.87744 0.43252 0.0
C439 C 0.70527 0.89012 0.45658 0.0
C440 C 0.72224 0.88885 0.43135 0.0
H441 H 0.16154 0.8506 0.44429 0.0
H442 H 0.17495 0.80572 0.43862 0.0
H443 H 0.20752 0.82623 0.378 0.0
H444 H 0.17393 0.86417 0.29167 0.0
H445 H 0.18713 0.88986 0.31038 0.0
H446 H 0.16473 0.87145 0.35291 0.0
H447 H 0.19284 0.88853 0.44989 0.0
H448 H 0.2155 0.90673 0.40741 0.0
H449 H 0.22092 0.89234 0.45567 0.0
H450 H 0.23968 0.85206 0.32193 0.0
H451 H 0.26541 0.87923 0.26027 0.0
H452 H 0.23072 0.90711 0.29992 0.0
C453 C 0.17112 0.84497 0.42963 0.0
C454 C 0.16567 0.82654 0.44634 0.0
C455 C 0.17869 0.81974 0.42629 0.0
C456 C 0.19738 0.83136 0.39222 0.0
C457 C 0.20276 0.84969 0.37815 0.0
C458 C 0.18975 0.85631 0.39513 0.0
C459 C 0.19881 0.87635 0.3724 0.0
C460 C 0.18004 0.87539 0.32927 0.0
C461 C 0.20754 0.8919 0.42446 0.0
C462 C 0.21892 0.87991 0.34002 0.0
C463 C 0.22107 0.86446 0.34463 0.0
C464 C 0.23815 0.86424 0.31782 0.0
C465 C 0.25281 0.87983 0.28322 0.0
C466 C 0.25014 0.89534 0.27527 0.0
C467 C 0.23337 0.89558 0.30551 0.0
H468 H 0.22242 0.33545 0.41379 0.0
H469 H 0.17234 0.32415 0.53747 0.0
H470 H 0.16172 0.34339 0.47877 0.0
H471 H 0.24154 0.38424 0.38105 0.0
H472 H 0.24276 0.3809 0.30249 0.0
H473 H 0.24729 0.36696 0.35516 0.0
H474 H 0.21376 0.33423 0.29759 0.0
H475 H 0.20978 0.34811 0.24365 0.0
H476 H 0.18543 0.32964 0.28141 0.0
H477 H 0.15822 0.3654 0.40956 0.0
H478 H 0.15345 0.38018 0.32017 0.0
H479 H 0.20303 0.37447 0.23658 0.0
C480 C 0.20895 0.33678 0.42782 0.0
C481 C 0.19808 0.32829 0.47986 0.0
C482 C 0.18057 0.33032 0.49714 0.0
C483 C 0.17475 0.3415 0.4647 0.0
C484 C 0.18634 0.35025 0.4146 0.0
C485 C 0.20245 0.34742 0.39502 0.0
C486 C 0.21079 0.35687 0.33678 0.0
C487 C 0.23716 0.37321 0.34436 0.0
C488 C 0.20455 0.34128 0.28691 0.0
C489 C 0.19669 0.36534 0.32637 0.0
C490 C 0.18331 0.36194 0.37284 0.0
C491 C 0.16858 0.36812 0.37286 0.0
C492 C 0.16626 0.37681 0.32228 0.0
C493 C 0.17809 0.37868 0.27189 0.0
C494 C 0.19417 0.37357 0.27505 0.0
H495 H 0.16117 0.33001 0.96005 0.0
H496 H 0.18492 0.39083 0.95021 0.0
H497 H 0.2111 0.3953 0.87463 0.0
H498 H 0.21569 0.33724 0.94487 0.0
H499 H 0.20296 0.31479 0.89896 0.0
H500 H 0.18624 0.31648 0.95231 0.0
H501 H 0.15329 0.30685 0.86831 0.0
H502 H 0.16973 0.30479 0.81496 0.0
H503 H 0.16036 0.32074 0.80282 0.0
H504 H 0.23588 0.39311 0.80164 0.0
H505 H 0.2528 0.38312 0.72895 0.0
H506 H 0.21147 0.32373 0.78657 0.0
C507 C 0.17177 0.34425 0.9418 0.0
C508 C 0.17106 0.36008 0.96104 0.0
C509 C 0.18511 0.37845 0.93582 0.0
C510 C 0.20017 0.38118 0.89325 0.0
C511 C 0.20079 0.36534 0.87611 0.0
C512 C 0.18665 0.34715 0.89899 0.0
C513 C 0.18986 0.33226 0.87194 0.0
C514 C 0.19925 0.32476 0.91989 0.0
C515 C 0.16695 0.31516 0.83745 0.0
C516 C 0.20802 0.34486 0.83024 0.0
C517 C 0.21441 0.36397 0.83358 0.0
C518 C 0.23095 0.37816 0.79859 0.0
C519 C 0.24061 0.37244 0.75786 0.0
C520 C 0.23338 0.35269 0.75225 0.0
C521 C 0.21727 0.33894 0.78984 0.0
H522 H 0.737 0.84788 0.93891 0.0
H523 H 0.66437 0.8003 0.95076 0.0
H524 H 0.65221 0.81419 0.87261 0.0
H525 H 0.72898 0.88557 0.91978 0.0
H526 H 0.75025 0.89804 0.86694 0.0
H527 H 0.75337 0.88374 0.92108 0.0
H528 H 0.75454 0.86306 0.83624 0.0
H529 H 0.75167 0.87745 0.78182 0.0
H530 H 0.73117 0.85105 0.77639 0.0
H531 H 0.64787 0.8352 0.79946 0.0
H532 H 0.65204 0.85969 0.73006 0.0
H533 H 0.72748 0.89251 0.76305 0.0
C534 C 0.71855 0.84019 0.9244 0.0
C535 C 0.70165 0.82297 0.95101 0.0
C536 C 0.67768 0.81343 0.93085 0.0
C537 C 0.67058 0.82126 0.88662 0.0
C538 C 0.68766 0.83852 0.86234 0.0
C539 C 0.71118 0.84767 0.87983 0.0
C540 C 0.72605 0.86616 0.84727 0.0
C541 C 0.74051 0.88445 0.89141 0.0
C542 C 0.74178 0.86431 0.8081 0.0
C543 C 0.70723 0.86618 0.80952 0.0
C544 C 0.68518 0.85018 0.81901 0.0
C545 C 0.66507 0.84763 0.7911 0.0
C546 C 0.66759 0.86166 0.752 0.0
C547 C 0.69006 0.87793 0.74071 0.0
C548 C 0.71005 0.88011 0.77006 0.0
H549 H 0.21242 0.89935 0.92207 0.0
H550 H 0.22315 0.86593 0.04994 0.0
H551 H 0.20712 0.83867 0.97323 0.0
H552 H 0.15772 0.85694 0.84299 0.0
H553 H 0.16525 0.86705 0.77124 0.0
H554 H 0.17587 0.88323 0.8379 0.0
H555 H 0.21824 0.90021 0.81032 0.0
H556 H 0.20779 0.88377 0.74437 0.0
H557 H 0.22932 0.88563 0.79873 0.0
H558 H 0.19249 0.81587 0.88093 0.0
H559 H 0.17577 0.79759 0.78181 0.0
H560 H 0.17518 0.84601 0.71415 0.0
C561 C 0.21076 0.88607 0.93424 0.0
C562 C 0.21893 0.88471 0.99195 0.0
C563 C 0.21697 0.86726 1.0059 0.0
C564 C 0.20799 0.85171 0.96262 0.0
C565 C 0.201 0.8538 0.90545 0.0
C566 C 0.20193 0.87038 0.89132 0.0
C567 C 0.1938 0.86903 0.82602 0.0
C568 C 0.17185 0.86905 0.81915 0.0
C569 C 0.21347 0.88565 0.79294 0.0
C570 C 0.18828 0.8492 0.80591 0.0
C571 C 0.19265 0.84068 0.85224 0.0
C572 C 0.18888 0.82235 0.84424 0.0
C573 C 0.17959 0.81214 0.78771 0.0
C574 C 0.17415 0.82032 0.74023 0.0
C575 C 0.17911 0.8393 0.74948 0.0
H576 H 0.41268 0.23427 0.76779 0.0
H577 H 0.34062 0.21318 0.78125 0.0
H578 H 0.32752 0.18741 0.70115 0.0
H579 H 0.40615 0.22564 0.60421 0.0
H580 H 0.42592 0.21837 0.60688 0.0
H581 H 0.42964 0.23573 0.66349 0.0
H582 H 0.42782 0.21337 0.74539 0.0
H583 H 0.42382 0.19585 0.68906 0.0
H584 H 0.40285 0.1881 0.74273 0.0
H585 H 0.32192 0.16176 0.6264 0.0
H586 H 0.32482 0.14084 0.55357 0.0
H587 H 0.40044 0.17986 0.58429 0.0
C588 C 0.39419 0.22444 0.75321 0.0
C589 C 0.37771 0.22577 0.7809 0.0
C590 C 0.35363 0.21256 0.76059 0.0
C591 C 0.34597 0.19778 0.71524 0.0
C592 C 0.3626 0.19655 0.68987 0.0
C593 C 0.38624 0.20977 0.70728 0.0
C594 C 0.40048 0.2052 0.67277 0.0
C595 C 0.41649 0.22225 0.63456 0.0
C596 C 0.41457 0.20034 0.71502 0.0
C597 C 0.38115 0.18718 0.63414 0.0
C598 C 0.3594 0.18231 0.64499 0.0
C599 C 0.33888 0.16561 0.61684 0.0
C600 C 0.34067 0.15375 0.57586 0.0
C601 C 0.36282 0.15883 0.56289 0.0
C602 C 0.38325 0.17576 0.59262 0.0
H603 H 0.84063 0.15569 0.76967 0.0
H604 H 0.81304 0.18811 0.82502 0.0
H605 H 0.84091 0.21586 0.76809 0.0
H606 H 0.90021 0.19643 0.77971 0.0
H607 H 0.90693 0.18849 0.71456 0.0
H608 H 0.8841 0.17059 0.75723 0.0
H609 H 0.85438 0.15648 0.66252 0.0
H610 H 0.87724 0.17404 0.61932 0.0
H611 H 0.85076 0.1728 0.61913 0.0
H612 H 0.87262 0.24058 0.70832 0.0
H613 H 0.90316 0.25916 0.64037 0.0
H614 H 0.91061 0.21098 0.62477 0.0
C615 C 0.84015 0.16847 0.76891 0.0
C616 C 0.82457 0.16968 0.80169 0.0
C617 C 0.82473 0.18679 0.80012 0.0
C618 C 0.84061 0.2027 0.7682 0.0
C619 C 0.85623 0.2013 0.73805 0.0
C620 C 0.85594 0.18454 0.73737 0.0
C621 C 0.87463 0.18687 0.70127 0.0
C622 C 0.89252 0.18551 0.74056 0.0
C623 C 0.86359 0.17165 0.64735 0.0
C624 C 0.88545 0.20754 0.6818 0.0
C625 C 0.87466 0.21564 0.70382 0.0
C626 C 0.88122 0.2344 0.6908 0.0
C627 C 0.8987 0.2449 0.65245 0.0
C628 C 0.90942 0.23661 0.62755 0.0
C629 C 0.90304 0.21787 0.64378 0.0
H630 H 0.87513 0.68172 0.78154 0.0
H631 H 0.87943 0.63515 0.71124 0.0
H632 H 0.86414 0.63736 0.61105 0.0
H633 H 0.82198 0.66749 0.69138 0.0
H634 H 0.83194 0.69263 0.68305 0.0
H635 H 0.84195 0.68635 0.7489 0.0
H636 H 0.88477 0.71241 0.72831 0.0
H637 H 0.87488 0.7184 0.66148 0.0
H638 H 0.89431 0.71091 0.65765 0.0
H639 H 0.84969 0.64556 0.51838 0.0
H640 H 0.83278 0.6563 0.44211 0.0
H641 H 0.83936 0.69835 0.57297 0.0
C642 C 0.87256 0.67174 0.74538 0.0
C643 C 0.87846 0.65821 0.75428 0.0
C644 C 0.87484 0.64549 0.70563 0.0
C645 C 0.8664 0.64679 0.6485 0.0
C646 C 0.8617 0.66088 0.64101 0.0
C647 C 0.86433 0.67292 0.68834 0.0
C648 C 0.85807 0.68684 0.66872 0.0
C649 C 0.83724 0.68309 0.69984 0.0
C650 C 0.87928 0.70842 0.6797 0.0
C651 C 0.85144 0.68078 0.60266 0.0
C652 C 0.85378 0.66584 0.58759 0.0
C653 C 0.84787 0.65727 0.52965 0.0
C654 C 0.83842 0.66355 0.48662 0.0
C655 C 0.83507 0.67831 0.50162 0.0
C656 C 0.8423 0.68742 0.55997 0.0
H657 H 0.80211 0.64261 0.22724 0.0
H658 H 0.80102 0.69361 0.19896 0.0
H659 H 0.82988 0.70445 0.126 0.0
H660 H 0.86177 0.66668 0.22643 0.0
H661 H 0.86081 0.64713 0.18742 0.0
H662 H 0.83748 0.64145 0.23097 0.0
H663 H 0.80708 0.62277 0.13875 0.0
H664 H 0.83025 0.62793 0.0952 0.0
H665 H 0.81111 0.63494 0.07034 0.0
H666 H 0.86208 0.712 0.06655 0.0
H667 H 0.89234 0.71369 0.01287 0.0
H668 H 0.87308 0.65784 0.07881 0.0
C669 C 0.80725 0.65562 0.20388 0.0
C670 C 0.79913 0.66717 0.21824 0.0
C671 C 0.80684 0.68446 0.1882 0.0
C672 C 0.82334 0.6908 0.14694 0.0
C673 C 0.8319 0.67965 0.13607 0.0
C674 C 0.82386 0.66224 0.16268 0.0
C675 C 0.83699 0.65369 0.14556 0.0
C676 C 0.85003 0.65215 0.2009 0.0
C677 C 0.82037 0.63364 0.11035 0.0
C678 C 0.85393 0.66922 0.10613 0.0
C679 C 0.85067 0.68405 0.10145 0.0
C680 C 0.86461 0.70034 0.06915 0.0
C681 C 0.88189 0.70122 0.03918 0.0
C682 C 0.88511 0.68589 0.04151 0.0
C683 C 0.87111 0.66982 0.07625 0.0
H684 H 0.40705 0.18187 0.26159 0.0
H685 H 0.33411 0.13464 0.27102 0.0
H686 H 0.32269 0.14851 0.19078 0.0
H687 H 0.39962 0.21964 0.24011 0.0
H688 H 0.42143 0.23202 0.18854 0.0
H689 H 0.42389 0.2176 0.2435 0.0
H690 H 0.42553 0.19679 0.16002 0.0
H691 H 0.42335 0.21131 0.10478 0.0
H692 H 0.40264 0.18493 0.09899 0.0
H693 H 0.31927 0.16974 0.11553 0.0
H694 H 0.32456 0.19452 0.04552 0.0
H695 H 0.39975 0.22668 0.08407 0.0
C696 C 0.38869 0.17423 0.24614 0.0
C697 C 0.37148 0.15716 0.27256 0.0
C698 C 0.34763 0.14767 0.25116 0.0
C699 C 0.34096 0.15549 0.20577 0.0
C700 C 0.35836 0.17266 0.18174 0.0
C701 C 0.38177 0.18171 0.20059 0.0
C702 C 0.3971 0.20016 0.1685 0.0
C703 C 0.41134 0.21843 0.21282 0.0
C704 C 0.41309 0.19817 0.13083 0.0
C705 C 0.3787 0.20031 0.12939 0.0
C706 C 0.35643 0.18442 0.13766 0.0
C707 C 0.33666 0.18209 0.10814 0.0
C708 C 0.3398 0.19627 0.06872 0.0
C709 C 0.36254 0.21244 0.05889 0.0
C710 C 0.38212 0.21436 0.08986 0.0
H711 H 0.88358 0.23328 0.26556 0.0
H712 H 0.88526 0.19671 0.39887 0.0
H713 H 0.869 0.16945 0.32204 0.0
H714 H 0.82889 0.19326 0.17848 0.0
H715 H 0.83936 0.20347 0.10836 0.0
H716 H 0.84938 0.21947 0.17522 0.0
H717 H 0.89216 0.23385 0.15648 0.0
H718 H 0.88224 0.21748 0.09056 0.0
H719 H 0.90117 0.21757 0.14962 0.0
H720 H 0.85572 0.14703 0.22944 0.0
H721 H 0.8401 0.12916 0.1296 0.0
H722 H 0.84711 0.18023 0.05696 0.0
C723 C 0.87983 0.21934 0.27885 0.0
C724 C 0.88563 0.21711 0.33819 0.0
C725 C 0.88093 0.19875 0.3536 0.0
C726 C 0.87184 0.1832 0.31025 0.0
C727 C 0.86741 0.18617 0.2516 0.0
C728 C 0.87076 0.20361 0.23597 0.0
C729 C 0.86487 0.203 0.16948 0.0
C730 C 0.8444 0.2049 0.15717 0.0
C731 C 0.8864 0.21892 0.13982 0.0
C732 C 0.85782 0.18259 0.15042 0.0
C733 C 0.85961 0.17318 0.19831 0.0
C734 C 0.85409 0.15419 0.19154 0.0
C735 C 0.84551 0.14424 0.1346 0.0
C736 C 0.84241 0.15329 0.08557 0.0
C737 C 0.8493 0.17291 0.09358 0.0
H738 H 0.06226 0.63746 0.41593 0.0
H739 H 0.09287 0.65879 0.24952 0.0
H740 H 0.11677 0.69289 0.29578 0.0
H741 H 0.05806 0.67642 0.45571 0.0
H742 H 0.06549 0.67689 0.5345 0.0
H743 H 0.05166 0.65436 0.48851 0.0
H744 H 0.08567 0.65159 0.52346 0.0
H745 H 0.09969 0.67422 0.56936 0.0
H746 H 0.11529 0.67169 0.51426 0.0
H747 H 0.13483 0.72501 0.35884 0.0
H748 H 0.14637 0.75199 0.43359 0.0
H749 H 0.10573 0.7091 0.56005 0.0
C750 C 0.07403 0.64927 0.3891 0.0
C751 C 0.07558 0.64546 0.32888 0.0
C752 C 0.09138 0.66135 0.29568 0.0
C753 C 0.10503 0.68076 0.32164 0.0
C754 C 0.10296 0.68398 0.38112 0.0
C755 C 0.08799 0.66861 0.41452 0.0
C756 C 0.08871 0.67589 0.47724 0.0
C757 C 0.06455 0.67058 0.48969 0.0
C758 C 0.09789 0.66787 0.52382 0.0
C759 C 0.10605 0.69784 0.47374 0.0
C760 C 0.11409 0.70226 0.41795 0.0
C761 C 0.12895 0.72168 0.40294 0.0
C762 C 0.13544 0.73691 0.44567 0.0
C763 C 0.12729 0.73265 0.50296 0.0
C764 C 0.11275 0.71284 0.51725 0.0
H765 H 0.41092 0.41769 0.38349 0.0
H766 H 0.37097 0.41751 0.22595 0.0
H767 H 0.33585 0.40173 0.28139 0.0
H768 H 0.36616 0.37147 0.43349 0.0
H769 H 0.37477 0.37985 0.51141 0.0
H770 H 0.39619 0.39072 0.45854 0.0
H771 H 0.40736 0.42525 0.49255 0.0
H772 H 0.38583 0.41448 0.54522 0.0
H773 H 0.38502 0.42968 0.49012 0.0
H774 H 0.30496 0.38504 0.35473 0.0
H775 H 0.28122 0.3695 0.43888 0.0
H776 H 0.34272 0.38258 0.54857 0.0
C777 C 0.39479 0.41423 0.36014 0.0
C778 C 0.39364 0.41867 0.30006 0.0
C779 C 0.37222 0.41415 0.27183 0.0
C780 C 0.35224 0.40523 0.30301 0.0
C781 C 0.35414 0.4012 0.36243 0.0
C782 C 0.37495 0.40565 0.39062 0.0
C783 C 0.37273 0.40018 0.45482 0.0
C784 C 0.37775 0.38463 0.46514 0.0
C785 C 0.38868 0.41849 0.49822 0.0
C786 C 0.34727 0.39171 0.45856 0.0
C787 C 0.33678 0.39235 0.40484 0.0
C788 C 0.31307 0.38463 0.39703 0.0
C789 C 0.29975 0.37584 0.44508 0.0
C790 C 0.31021 0.375 0.50037 0.0
C791 C 0.33434 0.38328 0.50719 0.0
H792 H 0.63223 0.9358 0.57539 0.0
H793 H 0.64115 0.90004 0.45486 0.0
H794 H 0.62085 0.9054 0.37149 0.0
H795 H 0.57452 0.92235 0.50151 0.0
H796 H 0.58268 0.94711 0.5134 0.0
H797 H 0.59414 0.93768 0.56583 0.0
H798 H 0.63628 0.96712 0.55165 0.0
H799 H 0.62499 0.97656 0.49909 0.0
H800 H 0.64559 0.97177 0.47756 0.0
H801 H 0.60429 0.9178 0.29921 0.0
H802 H 0.59318 0.93688 0.24236 0.0
H803 H 0.59546 0.96543 0.40815 0.0
C804 C 0.62913 0.92855 0.53186 0.0
C805 C 0.63791 0.91724 0.52169 0.0
C806 C 0.63435 0.9086 0.46368 0.0
C807 C 0.62279 0.91152 0.41608 0.0
C808 C 0.61493 0.92322 0.42702 0.0
C809 C 0.61787 0.93158 0.48347 0.0
C810 C 0.6101 0.94528 0.48163 0.0
C811 C 0.58911 0.93764 0.51774 0.0
C812 C 0.63045 0.96643 0.50377 0.0
C813 C 0.60307 0.94377 0.41519 0.0
C814 C 0.60566 0.93071 0.38473 0.0
C815 C 0.60182 0.92782 0.32264 0.0
C816 C 0.59556 0.93877 0.29069 0.0
C817 C 0.59326 0.95255 0.32071 0.0
C818 C 0.59665 0.95475 0.38392 0.0
H819 H 0.66166 0.02756 0.18408 0.0
H820 H 0.64764 0.07072 0.22513 0.0
H821 H 0.67633 0.09311 0.15705 0.0
H822 H 0.72466 0.06306 0.16998 0.0
H823 H 0.72376 0.04797 0.11012 0.0
H824 H 0.70403 0.03669 0.16687 0.0
H825 H 0.66919 0.01929 0.08405 0.0
H826 H 0.68873 0.03105 0.02721 0.0
H827 H 0.6653 0.03387 0.03257 0.0
H828 H 0.70353 0.10915 0.07515 0.0
H829 H 0.73228 0.12003 1.00113 0.0
H830 H 0.7278 0.06598 0.0149 0.0
C831 C 0.6651 0.04195 0.18018 0.0
C832 C 0.65245 0.04741 0.2101 0.0
C833 C 0.65734 0.06632 0.20333 0.0
C834 C 0.6734 0.07903 0.16415 0.0
C835 C 0.68456 0.07268 0.1327 0.0
C836 C 0.68104 0.05478 0.14157 0.0
C837 C 0.69479 0.05115 0.10182 0.0
C838 C 0.71289 0.04964 0.13944 0.0
C839 C 0.67852 0.03275 0.05889 0.0
C840 C 0.7064 0.06968 0.06852 0.0
C841 C 0.70019 0.08189 0.08644 0.0
C842 C 0.70866 0.09977 0.06119 0.0
C843 C 0.72474 0.10571 0.01858 0.0
C844 C 0.73225 0.09384 1.00214 0.0
C845 C 0.72238 0.07537 0.0264 0.0
H846 H 0.93202 0.63162 0.06507 0.0
H847 H 0.92846 0.60288 0.89812 0.0
H848 H 0.93954 0.5836 0.95351 0.0
H849 H 0.98193 0.6373 0.13229 0.0
H850 H 0.97299 0.63261 0.20672 0.0
H851 H 0.9616 0.64223 0.15523 0.0
H852 H 0.91937 0.61306 0.16983 0.0
H853 H 0.93066 0.60334 0.22156 0.0
H854 H 0.91082 0.5882 0.15731 0.0
H855 H 0.95625 0.57096 0.02409 0.0
H856 H 0.97657 0.56514 0.10628 0.0
H857 H 0.96827 0.60068 0.22948 0.0
C858 C 0.93295 0.62088 0.04035 0.0
C859 C 0.92922 0.61871 0.97714 0.0
C860 C 0.93114 0.6048 0.94644 0.0
C861 C 0.93738 0.5937 0.97757 0.0
C862 C 0.9415 0.59652 0.03961 0.0
C863 C 0.9392 0.60963 0.07088 0.0
C864 C 0.94644 0.6109 0.13714 0.0
C865 C 0.96696 0.63201 0.1591 0.0
C866 C 0.92558 0.60343 0.17361 0.0
C867 C 0.95392 0.59699 0.13781 0.0
C868 C 0.95072 0.58875 0.08101 0.0
C869 C 0.95832 0.57693 0.06899 0.0
C870 C 0.96985 0.57371 0.11592 0.0
C871 C 0.9735 0.58209 0.17436 0.0
C872 C 0.96499 0.59355 0.18562 0.0
H873 H 0.39155 0.31875 0.9984 0.0
H874 H 0.44714 0.31097 0.03604 0.0
H875 H 0.47064 0.34293 0.09612 0.0
H876 H 0.43063 0.37225 0.98358 0.0
H877 H 0.41128 0.37669 0.0163 0.0
H878 H 0.39955 0.35364 0.97496 0.0
H879 H 0.37892 0.33491 0.06645 0.0
H880 H 0.39073 0.35787 0.10821 0.0
H881 H 0.39598 0.34051 0.13746 0.0
H882 H 0.48558 0.37394 0.16329 0.0
H883 H 0.49306 0.40345 0.21843 0.0
H884 H 0.42962 0.39233 0.1267 0.0
C885 C 0.40883 0.32395 0.01856 0.0
C886 C 0.41758 0.31245 0.01278 0.0
C887 C 0.44025 0.31968 0.0396 0.0
C888 C 0.45364 0.33775 0.07404 0.0
C889 C 0.44431 0.3486 0.07986 0.0
C890 C 0.42265 0.34216 0.05151 0.0
C891 C 0.41662 0.35658 0.06408 0.0
C892 C 0.4144 0.36531 1.00629 0.0
C893 C 0.39424 0.34688 0.09595 0.0
C894 C 0.43795 0.3719 0.10518 0.0
C895 C 0.45365 0.36699 0.11453 0.0
C896 C 0.47367 0.37816 0.15509 0.0
C897 C 0.47776 0.39482 0.18636 0.0
C898 C 0.46219 0.40033 0.17573 0.0
C899 C 0.44216 0.38874 0.13439 0.0
H900 H 0.93246 0.31216 0.58672 0.0
H901 H 0.92738 0.33098 0.41074 0.0
H902 H 0.93822 0.36263 0.45661 0.0
H903 H 0.91071 0.3375 0.66668 0.0
H904 H 0.93078 0.34375 0.7322 0.0
H905 H 0.91959 0.32159 0.68622 0.0
H906 H 0.96189 0.33294 0.67413 0.0
H907 H 0.9732 0.35511 0.71973 0.0
H908 H 0.98192 0.35656 0.64562 0.0
H909 H 0.95549 0.39395 0.51977 0.0
H910 H 0.97573 0.42189 0.59619 0.0
H911 H 0.96782 0.3826 0.73222 0.0
C912 C 0.93299 0.32271 0.5579 0.0
C913 C 0.92893 0.31898 0.49499 0.0
C914 C 0.93022 0.33337 0.45896 0.0
C915 C 0.93638 0.35143 0.48466 0.0
C916 C 0.94092 0.35486 0.54663 0.0
C917 C 0.93898 0.34079 0.5829 0.0
C918 C 0.94634 0.34868 0.64788 0.0
C919 C 0.92562 0.3372 0.68546 0.0
C920 C 0.96707 0.3483 0.6733 0.0
C921 C 0.95354 0.3696 0.64224 0.0
C922 C 0.95017 0.37282 0.58342 0.0
C923 C 0.95765 0.39147 0.56614 0.0
C924 C 0.96916 0.40727 0.60981 0.0
C925 C 0.97285 0.40432 0.67025 0.0
C926 C 0.96451 0.38515 0.6867 0.0
H927 H 0.65324 0.60549 0.66472 0.0
H928 H 0.65662 0.65824 0.70565 0.0
H929 H 0.68618 0.67595 0.63494 0.0
H930 H 0.71643 0.63111 0.64197 0.0
H931 H 0.70987 0.61371 0.58148 0.0
H932 H 0.69124 0.60598 0.64102 0.0
H933 H 0.65572 0.59341 0.56267 0.0
H934 H 0.67431 0.60166 0.50304 0.0
H935 H 0.65613 0.6102 0.51193 0.0
H936 H 0.71158 0.68686 0.55337 0.0
H937 H 0.73691 0.69238 0.47503 0.0
H938 H 0.71748 0.63268 0.4843 0.0
C939 C 0.66095 0.62098 0.66053 0.0
C940 C 0.65291 0.63062 0.6911 0.0
C941 C 0.66276 0.6507 0.68301 0.0
C942 C 0.6794 0.66082 0.64266 0.0
C943 C 0.68601 0.65064 0.61073 0.0
C944 C 0.67755 0.63132 0.61991 0.0
C945 C 0.68698 0.62372 0.57759 0.0
C946 C 0.70203 0.61832 0.6126 0.0
C947 C 0.66709 0.60621 0.53638 0.0
C948 C 0.70174 0.64172 0.54276 0.0
C949 C 0.70078 0.65699 0.5627 0.0
C950 C 0.7127 0.6751 0.53772 0.0
C951 C 0.7269 0.67803 0.49294 0.0
C952 C 0.72909 0.66295 0.47347 0.0
C953 C 0.71584 0.64436 0.49763 0.0
H954 H 0.39117 0.08138 0.48599 0.0
H955 H 0.44723 0.1436 0.50191 0.0
H956 H 0.47364 0.13641 0.55443 0.0
H957 H 0.40269 0.06957 0.62459 0.0
H958 H 0.39609 0.04603 0.5999 0.0
H959 H 0.38247 0.056 0.55923 0.0
H960 H 0.39817 0.05309 0.4621 0.0
H961 H 0.41177 0.04298 0.50249 0.0
H962 H 0.42903 0.06443 0.4612 0.0
H963 H 0.4916 0.12252 0.61985 0.0
H964 H 0.50094 0.10273 0.68077 0.0
H965 H 0.43453 0.04957 0.6118 0.0
C966 C 0.40916 0.09344 0.49944 0.0
C967 C 0.41721 0.11303 0.49 0.0
C968 C 0.44082 0.12846 0.50827 0.0
C969 C 0.45589 0.12451 0.53831 0.0
C970 C 0.44724 0.10502 0.5482 0.0
C971 C 0.42456 0.0897 0.52793 0.0
C972 C 0.41928 0.0701 0.54517 0.0
C973 C 0.39894 0.05984 0.58457 0.0
C974 C 0.41427 0.05687 0.48941 0.0
C975 C 0.44222 0.0768 0.58022 0.0
C976 C 0.45814 0.097 0.58194 0.0
C977 C 0.47955 0.10665 0.61732 0.0
C978 C 0.48471 0.09535 0.65182 0.0
C979 C 0.46873 0.07464 0.64964 0.0
C980 C 0.44743 0.06533 0.61265 0.0
H981 H 0.32832 0.94709 0.02032 0.0
H982 H 0.3261 0.99714 0.05851 0.0
H983 H 0.35625 0.01646 0.98981 0.0
H984 H 0.39128 0.97468 0.99937 0.0
H985 H 0.38596 0.95791 0.93833 0.0
H986 H 0.36684 0.9492 0.99687 0.0
H987 H 0.33148 0.93598 0.91728 0.0
H988 H 0.35054 0.9451 0.85864 0.0
H989 H 0.33132 0.95261 0.86693 0.0
H990 H 0.38485 0.02961 0.9137 0.0
H991 H 0.4114 0.03634 0.83687 0.0
H992 H 0.39257 0.97678 0.84126 0.0
C993 C 0.33492 0.96236 0.01583 0.0
C994 C 0.32553 0.97093 0.04569 0.0
C995 C 0.33359 0.99059 0.03682 0.0
C996 C 0.35055 1.00158 0.9977 0.0
C997 C 0.35887 0.9925 0.9671 0.0
C998 C 0.35144 0.97338 0.9758 0.0
C999 C 0.36184 0.96665 0.93388 0.0
C1000 C 0.37741 0.96183 0.96923 0.0
C1001 C 0.34265 0.94904 0.8917 0.0
C1002 C 0.37617 0.98495 0.90015 0.0
C1003 C 0.37432 0.99971 0.9204 0.0
C1004 C 0.3864 0.01816 0.89734 0.0
C1005 C 0.4013 0.02181 0.85356 0.0
C1006 C 0.40367 1.00698 0.83267 0.0
C1007 C 0.39061 0.98821 0.85549 0.0
H1008 H 0.06011 0.43999 0.91425 0.0
H1009 H 0.09485 0.44826 0.7546 0.0
H1010 H 0.1199 0.43987 0.80856 0.0
H1011 H 0.1117 0.46102 0.01977 0.0
H1012 H 0.09603 0.44384 0.07501 0.0
H1013 H 0.08124 0.45073 0.02384 0.0
H1014 H 0.04998 0.41403 0.98979 0.0
H1015 H 0.06456 0.40703 0.04113 0.0
H1016 H 0.05913 0.39919 0.96295 0.0
H1017 H 0.13921 0.42818 0.87936 0.0
H1018 H 0.15165 0.41527 0.96062 0.0
H1019 H 0.10581 0.41703 0.07481 0.0
C1020 C 0.07296 0.44003 0.89042 0.0
C1021 C 0.07539 0.44464 0.82995 0.0
C1022 C 0.09264 0.44475 0.80084 0.0
C1023 C 0.10695 0.44003 0.83119 0.0
C1024 C 0.10404 0.43556 0.89087 0.0
C1025 C 0.08756 0.43569 0.92018 0.0
C1026 C 0.08771 0.4303 0.98416 0.0
C1027 C 0.09459 0.4475 0.02829 0.0
C1028 C 0.06394 0.41152 0.99511 0.0
C1029 C 0.10659 0.42673 0.98623 0.0
C1030 C 0.1158 0.42978 0.93201 0.0
C1031 C 0.13236 0.42607 0.92223 0.0
C1032 C 0.13936 0.41877 0.96864 0.0
C1033 C 0.13002 0.41549 0.02437 0.0
C1034 C 0.11374 0.41988 0.03331 0.0
H1035 H 0.60218 0.66899 0.80054 0.0
H1036 H 0.56984 0.62278 0.92345 0.0
H1037 H 0.58098 0.64763 1.00552 0.0
H1038 H 0.65118 0.7018 0.89753 0.0
H1039 H 0.65429 0.72372 0.87353 0.0
H1040 H 0.64035 0.70223 0.82268 0.0
H1041 H 0.60352 0.70236 0.80624 0.0
H1042 H 0.61742 0.72397 0.8569 0.0
H1043 H 0.58933 0.70228 0.86977 0.0
H1044 H 0.59895 0.67778 0.07593 0.0
H1045 H 0.62362 0.71058 0.1298 0.0
H1046 H 0.64594 0.73734 0.96173 0.0
C1047 C 0.59675 0.66403 0.8443 0.0
C1048 C 0.58473 0.64389 0.85541 0.0
C1049 C 0.57876 0.63808 0.91379 0.0
C1050 C 0.585 0.6521 0.96064 0.0
C1051 C 0.59738 0.67191 0.94852 0.0
C1052 C 0.60321 0.67787 0.89172 0.0
C1053 C 0.61875 0.70014 0.89172 0.0
C1054 C 0.64255 0.70739 0.8701 0.0
C1055 C 0.60652 0.70763 0.85391 0.0
C1056 C 0.62122 0.7058 0.95758 0.0
C1057 C 0.60843 0.68931 0.98941 0.0
C1058 C 0.60882 0.69078 0.05133 0.0
C1059 C 0.62292 0.70952 0.08157 0.0
C1060 C 0.63671 0.7266 0.0501 0.0
C1061 C 0.63547 0.72463 0.98712 0.0
H1062 H 0.72929 0.97065 0.7696 0.0
H1063 H 0.7611 0.98984 0.60393 0.0
H1064 H 0.78426 0.02455 0.64579 0.0
H1065 H 0.72393 0.00926 0.80056 0.0
H1066 H 0.73108 0.01092 0.88008 0.0
H1067 H 0.71795 0.9879 0.8373 0.0
H1068 H 0.75242 0.98627 0.87708 0.0
H1069 H 0.76567 0.00931 0.9201 0.0
H1070 H 0.78194 1.00653 0.8678 0.0
H1071 H 0.80068 0.05762 0.70409 0.0
H1072 H 0.81143 0.08522 0.77565 0.0
H1073 H 0.77121 0.04343 0.90496 0.0
C1074 C 0.74126 0.98215 0.7422 0.0
C1075 C 0.7433 0.97762 0.68336 0.0
C1076 C 0.75933 0.99303 0.64917 0.0
C1077 C 0.77248 0.01275 0.67257 0.0
C1078 C 0.76978 0.01672 0.73068 0.0
C1079 C 0.75483 1.00174 0.76528 0.0
C1080 C 0.75499 0.00965 0.82634 0.0
C1081 C 0.73054 1.00411 0.83663 0.0
C1082 C 0.76431 1.00252 0.87574 0.0
C1083 C 0.77193 0.03151 0.82051 0.0
C1084 C 0.78021 0.03541 0.76496 0.0
C1085 C 0.79467 0.05468 0.74809 0.0
C1086 C 0.80067 0.07026 0.78892 0.0
C1087 C 0.79255 0.06648 0.84624 0.0
C1088 C 0.77823 0.04683 0.86211 0.0
H1089 H 0.05872 0.73139 0.65087 0.0
H1090 H 0.06561 0.78663 0.64746 0.0
H1091 H 0.03634 0.77504 0.72038 0.0
H1092 H 0.99554 0.69984 0.66798 0.0
H1093 H 0.99889 0.68424 0.71593 0.0
H1094 H 0.01831 0.69641 0.65903 0.0
H1095 H 0.05359 0.71166 0.74016 0.0
H1096 H 0.03429 0.70013 0.79761 0.0
H1097 H 0.05558 0.72642 0.80291 0.0
H1098 H 0.0095 0.75852 0.80269 0.0
H1099 H 0.98188 0.73618 0.87279 0.0
H1100 H 0.99332 0.69211 0.82126 0.0
C1101 C 0.05357 0.74085 0.66407 0.0
C1102 C 0.06435 0.75988 0.64332 0.0
C1103 C 0.05731 0.77188 0.66206 0.0
C1104 C 0.04093 0.76551 0.70408 0.0
C1105 C 0.03167 0.74707 0.72622 0.0
C1106 C 0.03731 0.73473 0.7056 0.0
C1107 C 0.02536 0.71578 0.73698 0.0
C1108 C 0.00852 0.69802 0.69233 0.0
C1109 C 0.04328 0.71337 0.77145 0.0
C1110 C 0.0123 0.71944 0.77917 0.0
C1111 C 0.01626 0.73761 0.77278 0.0
C1112 C 1.00612 0.7442 0.80763 0.0
C1113 C 0.99069 0.73149 0.84793 0.0
C1114 C 0.98543 0.71238 0.85265 0.0
C1115 C 0.99699 0.70663 0.81893 0.0
H1116 H 0.2971 0.30685 0.653 0.0
H1117 H 0.22445 0.26779 0.68645 0.0
H1118 H 0.23401 0.24861 0.74908 0.0
H1119 H 0.30832 0.2678 0.64864 0.0
H1120 H 0.3377 0.28456 0.68386 0.0
H1121 H 0.32446 0.29364 0.63632 0.0
H1122 H 0.33284 0.3185 0.72249 0.0
H1123 H 0.34579 0.30936 0.7705 0.0
H1124 H 0.32191 0.30959 0.7934 0.0
H1125 H 0.25307 0.23776 0.82297 0.0
H1126 H 0.27907 0.23292 0.88936 0.0
H1127 H 0.33833 0.2768 0.79976 0.0
C1128 C 0.28309 0.2939 0.67203 0.0
C1129 C 0.26002 0.28875 0.6647 0.0
C1130 C 0.24218 0.27183 0.69079 0.0
C1131 C 0.24748 0.26092 0.72676 0.0
C1132 C 0.27059 0.26682 0.73489 0.0
C1133 C 0.28799 0.28258 0.70684 0.0
C1134 C 0.31156 0.28634 0.72439 0.0
C1135 C 0.32106 0.28287 0.67006 0.0
C1136 C 0.32904 0.30718 0.75449 0.0
C1137 C 0.3049 0.27075 0.76851 0.0
C1138 C 0.28122 0.2597 0.77436 0.0
C1139 C 0.2715 0.24591 0.81741 0.0
C1140 C 0.28635 0.24331 0.85509 0.0
C1141 C 0.31051 0.25416 0.84859 0.0
C1142 C 0.31977 0.26787 0.80432 0.0
H1143 H 0.99527 0.31438 0.34591 0.0
H1144 H 1.00028 0.26764 0.40807 0.0
H1145 H 0.0287 0.27537 0.3353 0.0
H1146 H 0.99779 0.30721 0.19242 0.0
H1147 H 0.01541 0.33303 0.17951 0.0
H1148 H 0.99614 0.32433 0.23772 0.0
H1149 H 0.03076 0.34846 0.31645 0.0
H1150 H 0.04994 0.35767 0.25813 0.0
H1151 H 0.05652 0.34847 0.32286 0.0
H1152 H 0.05495 0.28724 0.25062 0.0
H1153 H 0.08258 0.30635 0.17625 0.0
H1154 H 0.06019 0.34532 0.17171 0.0
C1155 C 1.00264 0.30597 0.34499 0.0
C1156 C 0.99561 0.29043 0.38271 0.0
C1157 C 1.00564 0.27977 0.3801 0.0
C1158 C 0.02154 0.28388 0.33834 0.0
C1159 C 0.0273 0.29878 0.30001 0.0
C1160 C 0.01856 0.30996 0.30409 0.0
C1161 C 0.02794 0.32552 0.25921 0.0
C1162 C 0.00813 0.32232 0.21459 0.0
C1163 C 0.04214 0.34626 0.29106 0.0
C1164 C 0.04341 0.32144 0.22915 0.0
C1165 C 0.04255 0.30576 0.25247 0.0
C1166 C 0.05577 0.29955 0.23214 0.0
C1167 C 0.07119 0.31033 0.18927 0.0
C1168 C 0.07344 0.32725 0.16799 0.0
C1169 C 0.05871 0.33235 0.18675 0.0
H1170 H 0.78237 0.744 0.38859 0.0
H1171 H 0.82045 0.74143 0.2507 0.0
H1172 H 0.80932 0.75911 0.18508 0.0
H1173 H 0.73464 0.73142 0.29274 0.0
H1174 H 0.72795 0.74649 0.3311 0.0
H1175 H 0.74298 0.73773 0.37184 0.0
H1176 H 0.77684 0.77347 0.40893 0.0
H1177 H 0.76175 0.78236 0.3689 0.0
H1178 H 0.79127 0.79172 0.35541 0.0
H1179 H 0.79089 0.77453 0.13125 0.0
H1180 H 0.76498 0.78413 0.09223 0.0
H1181 H 0.73595 0.77322 0.26232 0.0
C1182 C 0.78921 0.74796 0.34561 0.0
C1183 C 0.8029 0.74196 0.32531 0.0
C1184 C 0.81044 0.74637 0.2675 0.0
C1185 C 0.80416 0.75636 0.22996 0.0
C1186 C 0.78995 0.7615 0.25053 0.0
C1187 C 0.78251 0.75737 0.30704 0.0
C1188 C 0.7648 0.76189 0.31561 0.0
C1189 C 0.74121 0.74327 0.32856 0.0
C1190 C 0.77424 0.77834 0.36515 0.0
C1191 C 0.76306 0.76883 0.25484 0.0
C1192 C 0.77808 0.76897 0.21828 0.0
C1193 C 0.77917 0.77456 0.15967 0.0
C1194 C 0.7644 0.77998 0.13784 0.0
C1195 C 0.74837 0.77928 0.17408 0.0
C1196 C 0.74792 0.77377 0.2334 0.0
H1197 H 0.26591 0.99915 0.13462 0.0
H1198 H 0.23548 0.95538 0.26526 0.0
H1199 H 0.24553 0.98126 0.34235 0.0
H1200 H 0.31437 0.03341 0.22709 0.0
H1201 H 0.31715 0.05485 0.19952 0.0
H1202 H 0.30302 0.03269 0.15169 0.0
H1203 H 0.26597 0.03244 0.13389 0.0
H1204 H 0.28007 0.05476 0.18145 0.0
H1205 H 0.25219 0.03334 0.19697 0.0
H1206 H 0.26342 0.01212 0.40774 0.0
H1207 H 0.28916 0.04546 0.45756 0.0
H1208 H 0.31006 0.06966 0.28574 0.0
C1209 C 0.26046 0.99493 0.17883 0.0
C1210 C 0.24937 0.97521 0.19374 0.0
C1211 C 0.24357 0.97035 0.25276 0.0
C1212 C 0.2492 0.98496 0.29677 0.0
C1213 C 0.26086 1.0044 0.28119 0.0
C1214 C 0.26644 0.00942 0.22359 0.0
C1215 C 0.28184 0.03161 0.2204 0.0
C1216 C 0.30549 0.03853 0.1984 0.0
C1217 C 0.26926 0.03844 0.18083 0.0
C1218 C 0.2847 0.03828 0.28548 0.0
C1219 C 0.27204 0.02235 0.31953 0.0
C1220 C 0.27311 0.0247 0.38139 0.0
C1221 C 0.28784 0.04374 0.40932 0.0
C1222 C 0.30159 0.06025 0.37564 0.0
C1223 C 0.29954 0.05742 0.31271 0.0
loop_
_geom_bond_atom_site_label_1
_geom_bond_atom_site_label_2
_geom_bond_distance
_geom_bond_site_symmetry_2
_ccdc_geom_bond_type
O0 Cd1 2.223 . S
O0 C8 1.315 . S
Cd1 O0 2.223 . S
Cd1 O4 2.297 . S
Cd1 O5 2.439 . S
Cd1 O11 2.240 . S
Cd2 O3 2.241 . S
Cd2 O10 2.224 . S
Cd2 O12 2.296 1_455 S
Cd2 O13 2.439 . S
O3 Cd2 2.241 . S
O3 C8 1.279 . S
O4 Cd1 2.297 . S
O4 C6 1.247 . S
O5 Cd1 2.439 . S
O5 C6 1.208 . S
C6 O4 1.247 . S
C6 O5 1.208 . S
C7 O12 1.247 . S
C7 O13 1.208 1_655 S
C8 O0 1.315 . S
C8 O3 1.279 . S
C9 O10 1.315 . S
C9 O11 1.279 . S
O10 Cd2 2.224 . S
O10 C9 1.315 . S
O11 Cd1 2.240 . S
O11 C9 1.279 . S
O12 Cd2 2.296 1_655 S
O12 C7 1.247 . S
O13 Cd2 2.439 . S
O13 C7 1.208 1_455 S
O14 Cd15 2.223 . S
O14 C22 1.315 . S
Cd15 O14 2.223 . S
Cd15 O18 2.297 . S
Cd15 O19 2.439 . S
Cd15 O25 2.240 . S
Cd16 O17 2.240 . S
Cd16 O24 2.223 . S
Cd16 O26 2.297 . S
Cd16 O27 2.439 . S
O17 Cd16 2.240 . S
O17 C22 1.279 . S
O18 Cd15 2.297 . S
O18 C20 1.247 . S
O19 Cd15 2.439 . S
O19 C20 1.208 . S
C20 O18 1.247 . S
C20 O19 1.208 . S
C21 O26 1.247 . S
C21 O27 1.208 . S
C22 O14 1.315 . S
C22 O17 1.279 . S
C23 O24 1.315 . S
C23 O25 1.279 . S
O24 Cd16 2.223 . S
O24 C23 1.315 . S
O25 Cd15 2.240 . S
O25 C23 1.279 . S
O26 Cd16 2.297 . S
O26 C21 1.247 . S
O27 Cd16 2.439 . S
O27 C21 1.208 . S
O28 Cd29 2.223 . S
O28 C36 1.315 . S
Cd29 O28 2.223 . S
Cd29 O32 2.297 . S
Cd29 O33 2.439 . S
Cd29 O39 2.240 . S
Cd30 O31 2.240 . S
Cd30 O38 2.223 1_565 S
Cd30 O40 2.297 . S
Cd30 O41 2.439 . S
O31 Cd30 2.240 . S
O31 C36 1.279 1_565 S
O32 Cd29 2.297 . S
O32 C34 1.247 . S
O33 Cd29 2.439 . S
O33 C34 1.208 . S
C34 O32 1.247 . S
C34 O33 1.208 . S
C35 O40 1.247 . S
C35 O41 1.208 . S
C36 O28 1.315 . S
C36 O31 1.279 1_545 S
C37 O38 1.315 . S
C37 O39 1.279 . S
O38 Cd30 2.223 1_545 S
O38 C37 1.315 . S
O39 Cd29 2.240 . S
O39 C37 1.279 . S
O40 Cd30 2.297 . S
O40 C35 1.247 . S
O41 Cd30 2.439 . S
O41 C35 1.208 . S
O42 Cd43 2.223 . S
O42 C50 1.315 . S
Cd43 O42 2.223 . S
Cd43 O46 2.297 . S
Cd43 O47 2.439 . S
Cd43 O53 2.240 . S
Cd44 O45 2.240 . S
Cd44 O52 2.223 1_655 S
Cd44 O54 2.297 . S
Cd44 O55 2.439 . S
O45 Cd44 2.240 . S
O45 C50 1.279 1_655 S
O46 Cd43 2.297 . S
O46 C48 1.247 . S
O47 Cd43 2.439 . S
O47 C48 1.208 . S
C48 O46 1.247 . S
C48 O47 1.208 . S
C49 O54 1.247 . S
C49 O55 1.208 . S
C50 O42 1.315 . S
C50 O45 1.279 1_455 S
C51 O52 1.315 . S
C51 O53 1.279 . S
O52 Cd44 2.223 1_455 S
O52 C51 1.315 . S
O53 Cd43 2.240 . S
O53 C51 1.279 . S
O54 Cd44 2.297 . S
O54 C49 1.247 . S
O55 Cd44 2.439 . S
O55 C49 1.208 . S
O56 Cd57 2.223 . S
O56 C64 1.315 . S
Cd57 O56 2.223 . S
Cd57 O60 2.297 . S
Cd57 O61 2.439 . S
Cd57 O67 2.240 . S
Cd58 O59 2.240 . S
Cd58 O66 2.223 . S
Cd58 O68 2.297 . S
Cd58 O69 2.439 . S
O59 Cd58 2.240 . S
O59 C64 1.279 . S
O60 Cd57 2.297 . S
O60 C62 1.247 . S
O61 Cd57 2.439 . S
O61 C62 1.208 . S
C62 O60 1.247 . S
C62 O61 1.208 . S
C63 O68 1.247 . S
C63 O69 1.208 . S
C64 O56 1.315 . S
C64 O59 1.279 . S
C65 O66 1.315 . S
C65 O67 1.279 . S
O66 Cd58 2.223 . S
O66 C65 1.315 . S
O67 Cd57 2.240 . S
O67 C65 1.279 . S
O68 Cd58 2.297 . S
O68 C63 1.247 . S
O69 Cd58 2.439 . S
O69 C63 1.208 . S
O70 Cd71 2.223 . S
O70 C78 1.315 . S
Cd71 O70 2.223 . S
Cd71 O74 2.297 . S
Cd71 O75 2.439 . S
Cd71 O81 2.240 . S
Cd72 O73 2.240 . S
Cd72 O80 2.223 . S
Cd72 O82 2.297 . S
Cd72 O83 2.439 . S
O73 Cd72 2.240 . S
O73 C78 1.279 . S
O74 Cd71 2.297 . S
O74 C76 1.247 . S
O75 Cd71 2.439 . S
O75 C76 1.208 . S
C76 O74 1.247 . S
C76 O75 1.208 . S
C77 O82 1.247 . S
C77 O83 1.208 . S
C78 O70 1.315 . S
C78 O73 1.279 . S
C79 O80 1.315 . S
C79 O81 1.279 . S
O80 Cd72 2.223 . S
O80 C79 1.315 . S
O81 Cd71 2.240 . S
O81 C79 1.279 . S
O82 Cd72 2.297 . S
O82 C77 1.247 . S
O83 Cd72 2.439 . S
O83 C77 1.208 . S
O84 Cd85 2.223 . S
O84 C92 1.315 . S
Cd85 O84 2.223 . S
Cd85 O88 2.297 . S
Cd85 O89 2.439 . S
Cd85 O95 2.240 . S
Cd86 O87 2.240 . S
Cd86 O94 2.223 . S
Cd86 O96 2.297 . S
Cd86 O97 2.439 . S
O87 Cd86 2.240 . S
O87 C92 1.279 . S
O88 Cd85 2.297 . S
O88 C90 1.247 . S
O89 Cd85 2.439 . S
O89 C90 1.208 . S
C90 O88 1.247 . S
C90 O89 1.208 . S
C91 O96 1.247 . S
C91 O97 1.208 . S
C92 O84 1.315 . S
C92 O87 1.279 . S
C93 O94 1.315 . S
C93 O95 1.279 . S
O94 Cd86 2.223 . S
O94 C93 1.315 . S
O95 Cd85 2.240 . S
O95 C93 1.279 . S
O96 Cd86 2.297 . S
O96 C91 1.247 . S
O97 Cd86 2.439 . S
O97 C91 1.208 . S
O98 Cd99 2.223 . S
O98 C106 1.315 . S
Cd99 O98 2.223 . S
Cd99 O102 2.297 . S
Cd99 O103 2.439 . S
Cd99 O109 2.240 . S
Cd100 O101 2.240 . S
Cd100 O108 2.223 . S
Cd100 O110 2.297 . S
Cd100 O111 2.439 . S
O101 Cd100 2.240 . S
O101 C106 1.279 . S
O102 Cd99 2.297 . S
O102 C104 1.247 . S
O103 Cd99 2.439 . S
O103 C104 1.208 . S
C104 O102 1.247 . S
C104 O103 1.208 . S
C105 O110 1.247 . S
C105 O111 1.208 . S
C106 O98 1.315 . S
C106 O101 1.279 . S
C107 O108 1.315 . S
C107 O109 1.279 . S
O108 Cd100 2.223 . S
O108 C107 1.315 . S
O109 Cd99 2.240 . S
O109 C107 1.279 . S
O110 Cd100 2.297 . S
O110 C105 1.247 . S
O111 Cd100 2.439 . S
O111 C105 1.208 . S
O112 Cd113 2.223 . S
O112 C120 1.315 . S
Cd113 O112 2.223 . S
Cd113 O116 2.297 . S
Cd113 O117 2.439 . S
Cd113 O123 2.240 . S
Cd114 O115 2.240 . S
Cd114 O122 2.223 . S
Cd114 O124 2.297 . S
Cd114 O125 2.439 . S
O115 Cd114 2.240 . S
O115 C120 1.279 . S
O116 Cd113 2.297 . S
O116 C118 1.247 . S
O117 Cd113 2.439 . S
O117 C118 1.208 . S
C118 O116 1.247 . S
C118 O117 1.208 . S
C119 O124 1.247 . S
C119 O125 1.208 . S
C120 O112 1.315 . S
C120 O115 1.279 . S
C121 O122 1.315 . S
C121 O123 1.279 . S
O122 Cd114 2.223 . S
O122 C121 1.315 . S
O123 Cd113 2.240 . S
O123 C121 1.279 . S
O124 Cd114 2.297 . S
O124 C119 1.247 . S
O125 Cd114 2.439 . S
O125 C119 1.208 . S
O126 Cd127 2.223 . S
O126 C134 1.315 . S
Cd127 O126 2.223 . S
Cd127 O130 2.297 . S
Cd127 O131 2.439 1_554 S
Cd127 O137 2.240 . S
Cd128 O129 2.240 . S
Cd128 O136 2.223 . S
Cd128 O138 2.297 . S
Cd128 O139 2.439 . S
O129 Cd128 2.240 . S
O129 C134 1.279 . S
O130 Cd127 2.297 . S
O130 C132 1.247 1_554 S
O131 Cd127 2.439 1_556 S
O131 C132 1.208 . S
C132 O130 1.247 1_556 S
C132 O131 1.208 . S
C133 O138 1.247 . S
C133 O139 1.208 . S
C134 O126 1.315 . S
C134 O129 1.279 . S
C135 O136 1.315 . S
C135 O137 1.279 . S
O136 Cd128 2.223 . S
O136 C135 1.315 . S
O137 Cd127 2.240 . S
O137 C135 1.279 . S
O138 Cd128 2.297 . S
O138 C133 1.247 . S
O139 Cd128 2.439 . S
O139 C133 1.208 . S
O140 Cd141 2.223 . S
O140 C148 1.315 1_554 S
Cd141 O140 2.223 . S
Cd141 O144 2.297 . S
Cd141 O145 2.439 . S
Cd141 O151 2.240 . S
Cd142 O143 2.240 . S
Cd142 O150 2.223 1_554 S
Cd142 O152 2.297 . S
Cd142 O153 2.439 . S
O143 Cd142 2.240 . S
O143 C148 1.279 1_554 S
O144 Cd141 2.297 . S
O144 C146 1.247 . S
O145 Cd141 2.439 . S
O145 C146 1.208 . S
C146 O144 1.247 . S
C146 O145 1.208 . S
C147 O152 1.247 . S
C147 O153 1.208 . S
C148 O140 1.315 1_556 S
C148 O143 1.279 1_556 S
C149 O150 1.315 1_554 S
C149 O151 1.279 . S
O150 Cd142 2.223 1_556 S
O150 C149 1.315 1_556 S
O151 Cd141 2.240 . S
O151 C149 1.279 . S
O152 Cd142 2.297 . S
O152 C147 1.247 . S
O153 Cd142 2.439 . S
O153 C147 1.208 . S
O154 Cd155 2.223 . S
O154 C162 1.315 . S
Cd155 O154 2.223 . S
Cd155 O158 2.297 . S
Cd155 O159 2.439 1_554 S
Cd155 O165 2.240 . S
Cd156 O157 2.240 . S
Cd156 O164 2.223 . S
Cd156 O166 2.297 . S
Cd156 O167 2.439 . S
O157 Cd156 2.240 . S
O157 C162 1.279 . S
O158 Cd155 2.297 . S
O158 C160 1.247 1_554 S
O159 Cd155 2.439 1_556 S
O159 C160 1.208 . S
C160 O158 1.247 1_556 S
C160 O159 1.208 . S
C161 O166 1.247 . S
C161 O167 1.208 . S
C162 O154 1.315 . S
C162 O157 1.279 . S
C163 O164 1.315 . S
C163 O165 1.279 . S
O164 Cd156 2.223 . S
O164 C163 1.315 . S
O165 Cd155 2.240 . S
O165 C163 1.279 . S
O166 Cd156 2.297 . S
O166 C161 1.247 . S
O167 Cd156 2.439 . S
O167 C161 1.208 . S
O168 Cd169 2.223 1_554 S
O168 C176 1.315 . S
Cd169 O168 2.223 1_556 S
Cd169 O172 2.297 . S
Cd169 O173 2.439 . S
Cd169 O179 2.240 . S
Cd170 O171 2.240 . S
Cd170 O178 2.223 1_556 S
Cd170 O180 2.297 . S
Cd170 O181 2.439 . S
O171 Cd170 2.240 . S
O171 C176 1.279 1_556 S
O172 Cd169 2.297 . S
O172 C174 1.247 . S
O173 Cd169 2.439 . S
O173 C174 1.208 . S
C174 O172 1.247 . S
C174 O173 1.208 . S
C175 O180 1.247 . S
C175 O181 1.208 . S
C176 O168 1.315 . S
C176 O171 1.279 1_554 S
C177 O178 1.325 . S
C177 O179 1.261 1_554 S
O178 Cd170 2.223 1_554 S
O178 C177 1.325 . S
O179 Cd169 2.240 . S
O179 C177 1.261 1_556 S
O180 Cd170 2.297 . S
O180 C175 1.247 . S
O181 Cd170 2.439 . S
O181 C175 1.208 . S
O182 Cd183 2.223 . S
O182 C190 1.315 1_556 S
Cd183 O182 2.223 . S
Cd183 O186 2.297 . S
Cd183 O187 2.439 . S
Cd183 O193 2.240 . S
Cd184 O185 2.240 . S
Cd184 O192 2.223 1_556 S
Cd184 O194 2.297 . S
Cd184 O195 2.439 . S
O185 Cd184 2.240 . S
O185 C190 1.279 1_556 S
O186 Cd183 2.297 . S
O186 C188 1.247 . S
O187 Cd183 2.439 . S
O187 C188 1.208 . S
C188 O186 1.247 . S
C188 O187 1.208 . S
C189 O194 1.247 . S
C189 O195 1.208 . S
C190 O182 1.315 1_554 S
C190 O185 1.279 1_554 S
C191 O192 1.315 1_556 S
C191 O193 1.279 . S
O192 Cd184 2.223 1_554 S
O192 C191 1.315 1_554 S
O193 Cd183 2.240 . S
O193 C191 1.279 . S
O194 Cd184 2.297 . S
O194 C189 1.247 . S
O195 Cd184 2.439 . S
O195 C189 1.208 . S
O196 Cd197 2.223 . S
O196 C204 1.315 . S
Cd197 O196 2.223 . S
Cd197 O200 2.297 . S
Cd197 O201 2.439 1_556 S
Cd197 O207 2.240 . S
Cd198 O199 2.240 . S
Cd198 O206 2.223 . S
Cd198 O208 2.297 . S
Cd198 O209 2.439 . S
O199 Cd198 2.240 . S
O199 C204 1.279 . S
O200 Cd197 2.297 . S
O200 C202 1.247 1_556 S
O201 Cd197 2.439 1_554 S
O201 C202 1.208 . S
C202 O200 1.247 1_554 S
C202 O201 1.208 . S
C203 O208 1.247 . S
C203 O209 1.208 . S
C204 O196 1.315 . S
C204 O199 1.279 . S
C205 O206 1.315 . S
C205 O207 1.279 . S
O206 Cd198 2.223 . S
O206 C205 1.315 . S
O207 Cd197 2.240 . S
O207 C205 1.279 . S
O208 Cd198 2.297 . S
O208 C203 1.247 . S
O209 Cd198 2.439 . S
O209 C203 1.208 . S
O210 Cd211 2.223 . S
O210 C218 1.315 . S
Cd211 O210 2.223 . S
Cd211 O214 2.297 . S
Cd211 O215 2.439 . S
Cd211 O221 2.240 . S
Cd212 O213 2.240 . S
Cd212 O220 2.223 . S
Cd212 O222 2.297 . S
Cd212 O223 2.439 . S
O213 Cd212 2.240 . S
O213 C218 1.279 . S
O214 Cd211 2.297 . S
O214 C216 1.247 . S
O215 Cd211 2.439 . S
O215 C216 1.208 . S
C216 O214 1.247 . S
C216 O215 1.208 . S
C217 O222 1.247 . S
C217 O223 1.208 . S
C218 O210 1.315 . S
C218 O213 1.279 . S
C219 O220 1.315 . S
C219 O221 1.279 . S
O220 Cd212 2.223 . S
O220 C219 1.315 . S
O221 Cd211 2.240 . S
O221 C219 1.279 . S
O222 Cd212 2.297 . S
O222 C217 1.247 . S
O223 Cd212 2.439 . S
O223 C217 1.208 . S
O224 Cd225 2.223 . S
O224 C232 1.315 . S
Cd225 O224 2.223 . S
Cd225 O228 2.297 . S
Cd225 O229 2.439 . S
Cd225 O235 2.240 . S
Cd226 O227 2.240 . S
Cd226 O234 2.223 . S
Cd226 O236 2.297 . S
Cd226 O237 2.439 . S
O227 Cd226 2.240 . S
O227 C232 1.279 . S
O228 Cd225 2.297 . S
O228 C230 1.247 . S
O229 Cd225 2.439 . S
O229 C230 1.208 . S
C230 O228 1.247 . S
C230 O229 1.208 . S
C231 O236 1.247 . S
C231 O237 1.208 . S
C232 O224 1.315 . S
C232 O227 1.279 . S
C233 O234 1.315 . S
C233 O235 1.279 . S
O234 Cd226 2.223 . S
O234 C233 1.315 . S
O235 Cd225 2.240 . S
O235 C233 1.279 . S
O236 Cd226 2.297 . S
O236 C231 1.247 . S
O237 Cd226 2.439 . S
O237 C231 1.208 . S
O238 Cd239 2.223 . S
O238 C246 1.315 . S
Cd239 O238 2.223 . S
Cd239 O242 2.297 . S
Cd239 O243 2.439 . S
Cd239 O249 2.240 . S
Cd240 O241 2.240 . S
Cd240 O248 2.223 . S
Cd240 O250 2.297 . S
Cd240 O251 2.439 . S
O241 Cd240 2.240 . S
O241 C246 1.279 . S
O242 Cd239 2.297 . S
O242 C244 1.247 . S
O243 Cd239 2.439 . S
O243 C244 1.208 . S
C244 O242 1.247 . S
C244 O243 1.208 . S
C245 O250 1.247 . S
C245 O251 1.208 . S
C246 O238 1.315 . S
C246 O241 1.279 . S
C247 O248 1.315 . S
C247 O249 1.279 . S
O248 Cd240 2.223 . S
O248 C247 1.315 . S
O249 Cd239 2.240 . S
O249 C247 1.279 . S
O250 Cd240 2.297 . S
O250 C245 1.247 . S
O251 Cd240 2.439 . S
O251 C245 1.208 . S
H252 C264 0.930 . S
H253 C266 0.930 . S
H254 C267 0.930 . S
H255 C271 0.959 . S
H256 C271 0.959 . S
H257 C271 0.961 . S
H258 C272 0.960 1_556 S
H259 C272 0.961 . S
H260 C272 0.959 . S
H261 C275 0.929 . S
H262 C276 0.931 . S
H263 C278 0.930 1_655 S
C264 H252 0.930 . S
C264 C265 1.399 1_655 S
C264 C269 1.399 1_655 S
C265 C264 1.399 1_455 S
C265 C266 1.376 . S
C266 H253 0.930 . S
C266 C265 1.376 . S
C266 C267 1.388 . S
C267 H254 0.930 . S
C267 C266 1.388 . S
C267 C268 1.390 . S
C268 C267 1.390 . S
C268 C269 1.394 . S
C268 C274 1.465 . S
C269 C264 1.399 1_455 S
C269 C268 1.394 . S
C269 C270 1.516 1_455 S
C270 C269 1.516 1_655 S
C270 C271 1.502 . S
C270 C272 1.561 1_556 S
C270 C273 1.526 1_656 S
C271 H255 0.959 . S
C271 H256 0.959 . S
C271 H257 0.961 . S
C271 C270 1.502 . S
C272 H258 0.960 1_554 S
C272 H259 0.961 . S
C272 H260 0.959 . S
C272 C270 1.561 1_554 S
C273 C270 1.526 1_454 S
C273 C274 1.396 1_554 S
C273 C278 1.390 . S
C274 C268 1.465 . S
C274 C273 1.396 1_556 S
C274 C275 1.399 1_556 S
C275 H261 0.929 . S
C275 C274 1.399 1_554 S
C275 C276 1.385 . S
C276 H262 0.931 . S
C276 C275 1.385 . S
C276 C277 1.389 . S
C277 C276 1.389 . S
C277 C278 1.387 . S
C278 H263 0.930 1_455 S
C278 C273 1.390 . S
C278 C277 1.387 . S
H279 C291 0.930 . S
H280 C293 0.930 . S
H281 C294 0.930 . S
H282 C298 0.959 1_554 S
H283 C298 0.959 . S
H284 C298 0.961 . S
H285 C299 0.960 . S
H286 C299 0.961 . S
H287 C299 0.959 . S
H288 C302 0.929 . S
H289 C303 0.931 . S
H290 C305 0.930 . S
C291 H279 0.930 . S
C291 C292 1.399 . S
C291 C296 1.399 . S
C292 C291 1.399 . S
C292 C293 1.376 . S
C293 H280 0.930 . S
C293 C292 1.376 . S
C293 C294 1.388 1_556 S
C294 H281 0.930 . S
C294 C293 1.388 1_554 S
C294 C295 1.390 . S
C295 C294 1.390 . S
C295 C296 1.394 1_554 S
C295 C301 1.465 . S
C296 C291 1.399 . S
C296 C295 1.394 1_556 S
C296 C297 1.516 . S
C297 C296 1.516 . S
C297 C298 1.502 . S
C297 C299 1.561 . S
C297 C300 1.526 1_556 S
C298 H282 0.959 1_556 S
C298 H283 0.959 . S
C298 H284 0.961 . S
C298 C297 1.502 . S
C299 H285 0.960 . S
C299 H286 0.961 . S
C299 H287 0.959 . S
C299 C297 1.561 . S
C300 C297 1.526 1_554 S
C300 C301 1.396 . S
C300 C305 1.390 . S
C301 C295 1.465 . S
C301 C300 1.396 . S
C301 C302 1.399 . S
C302 H288 0.929 . S
C302 C301 1.399 . S
C302 C303 1.385 . S
C303 H289 0.931 . S
C303 C302 1.385 . S
C303 C304 1.389 . S
C304 C303 1.389 . S
C304 C305 1.387 . S
C305 H290 0.930 . S
C305 C300 1.390 . S
C305 C304 1.387 . S
H306 C318 0.930 . S
H307 C320 0.930 1_565 S
H308 C321 0.930 . S
H309 C325 0.959 . S
H310 C325 0.959 . S
H311 C325 0.961 . S
H312 C326 0.960 . S
H313 C326 0.961 . S
H314 C326 0.959 . S
H315 C329 0.929 . S
H316 C330 0.931 . S
H317 C332 0.930 . S
C318 H306 0.930 . S
C318 C319 1.399 . S
C318 C323 1.399 . S
C319 C318 1.399 . S
C319 C320 1.376 . S
C320 H307 0.930 1_545 S
C320 C319 1.376 . S
C320 C321 1.388 1_554 S
C321 H308 0.930 . S
C321 C320 1.388 1_556 S
C321 C322 1.390 1_556 S
C322 C321 1.390 1_554 S
C322 C323 1.394 . S
C322 C328 1.465 1_554 S
C323 C318 1.399 . S
C323 C322 1.394 . S
C323 C324 1.516 . S
C324 C323 1.516 . S
C324 C325 1.502 . S
C324 C326 1.561 . S
C324 C327 1.526 1_554 S
C325 H309 0.959 . S
C325 H310 0.959 . S
C325 H311 0.961 . S
C325 C324 1.502 . S
C326 H312 0.960 . S
C326 H313 0.961 . S
C326 H314 0.959 . S
C326 C324 1.561 . S
C327 C324 1.526 1_556 S
C327 C328 1.396 . S
C327 C332 1.390 . S
C328 C322 1.465 1_556 S
C328 C327 1.396 . S
C328 C329 1.399 . S
C329 H315 0.929 . S
C329 C328 1.399 . S
C329 C330 1.385 . S
C330 H316 0.931 . S
C330 C329 1.385 . S
C330 C331 1.389 . S
C331 C330 1.389 . S
C331 C332 1.387 . S
C332 H317 0.930 . S
C332 C327 1.390 . S
C332 C331 1.387 . S
H333 C345 0.930 . S
H334 C347 0.930 1_565 S
H335 C348 0.930 1_565 S
H336 C352 0.959 . S
H337 C352 0.959 . S
H338 C352 0.961 . S
H339 C353 0.960 . S
H340 C353 0.961 . S
H341 C353 0.959 . S
H342 C356 0.929 1_565 S
H343 C357 0.931 . S
H344 C359 0.930 . S
C345 H333 0.930 . S
C345 C346 1.399 . S
C345 C350 1.399 . S
C346 C345 1.399 . S
C346 C347 1.376 . S
C347 H334 0.930 1_545 S
C347 C346 1.376 . S
C347 C348 1.388 . S
C348 H335 0.930 1_545 S
C348 C347 1.388 . S
C348 C349 1.390 . S
C349 C348 1.390 . S
C349 C350 1.394 . S
C349 C355 1.465 . S
C350 C345 1.399 . S
C350 C349 1.394 . S
C350 C351 1.516 . S
C351 C350 1.516 . S
C351 C352 1.502 . S
C351 C353 1.561 . S
C351 C354 1.526 . S
C352 H336 0.959 . S
C352 H337 0.959 . S
C352 H338 0.961 . S
C352 C351 1.502 . S
C353 H339 0.960 . S
C353 H340 0.961 . S
C353 H341 0.959 . S
C353 C351 1.561 . S
C354 C351 1.526 . S
C354 C355 1.396 . S
C354 C359 1.390 . S
C355 C349 1.465 . S
C355 C354 1.396 . S
C355 C356 1.399 . S
C356 H342 0.929 1_545 S
C356 C355 1.399 . S
C356 C357 1.385 . S
C357 H343 0.931 . S
C357 C356 1.385 . S
C357 C358 1.389 . S
C358 C357 1.389 . S
C358 C359 1.387 . S
C359 H344 0.930 . S
C359 C354 1.390 . S
C359 C358 1.387 . S
H360 C372 0.930 1_655 S
H361 C374 0.930 . S
H362 C375 0.930 . S
H363 C379 0.959 . S
H364 C379 0.959 . S
H365 C379 0.961 . S
H366 C380 0.960 1_655 S
H367 C380 0.961 1_655 S
H368 C380 0.959 . S
H369 C383 0.929 . S
H370 C384 0.931 . S
H371 C386 0.930 1_655 S
C372 H360 0.930 1_455 S
C372 C373 1.399 . S
C372 C377 1.399 . S
C373 C372 1.399 . S
C373 C374 1.376 . S
C374 H361 0.930 . S
C374 C373 1.376 . S
C374 C375 1.388 . S
C375 H362 0.930 . S
C375 C374 1.388 . S
C375 C376 1.390 . S
C376 C375 1.390 . S
C376 C377 1.394 . S
C376 C382 1.465 . S
C377 C372 1.399 . S
C377 C376 1.394 . S
C377 C378 1.516 1_455 S
C378 C377 1.516 1_655 S
C378 C379 1.502 . S
C378 C380 1.561 1_655 S
C378 C381 1.526 1_655 S
C379 H363 0.959 . S
C379 H364 0.959 . S
C379 H365 0.961 . S
C379 C378 1.502 . S
C380 H366 0.960 1_455 S
C380 H367 0.961 1_455 S
C380 H368 0.959 . S
C380 C378 1.561 1_455 S
C381 C378 1.526 1_455 S
C381 C382 1.396 . S
C381 C386 1.390 . S
C382 C376 1.465 . S
C382 C381 1.396 . S
C382 C383 1.399 . S
C383 H369 0.929 . S
C383 C382 1.399 . S
C383 C384 1.385 . S
C384 H370 0.931 . S
C384 C383 1.385 . S
C384 C385 1.389 . S
C385 C384 1.389 . S
C385 C386 1.387 . S
C386 H371 0.930 1_455 S
C386 C381 1.390 . S
C386 C385 1.387 . S
H387 C399 0.930 . S
H388 C401 0.930 . S
H389 C402 0.930 . S
H390 C406 0.959 . S
H391 C406 0.959 . S
H392 C406 0.961 . S
H393 C407 0.960 . S
H394 C407 0.961 . S
H395 C407 0.959 . S
H396 C410 0.929 . S
H397 C411 0.931 . S
H398 C413 0.930 . S
C399 H387 0.930 . S
C399 C400 1.399 . S
C399 C404 1.399 . S
C400 C399 1.399 . S
C400 C401 1.376 . S
C401 H388 0.930 . S
C401 C400 1.376 . S
C401 C402 1.388 . S
C402 H389 0.930 . S
C402 C401 1.388 . S
C402 C403 1.390 . S
C403 C402 1.390 . S
C403 C404 1.394 . S
C403 C409 1.465 . S
C404 C399 1.399 . S
C404 C403 1.394 . S
C404 C405 1.516 . S
C405 C404 1.516 . S
C405 C406 1.502 . S
C405 C407 1.561 . S
C405 C408 1.526 . S
C406 H390 0.959 . S
C406 H391 0.959 . S
C406 H392 0.961 . S
C406 C405 1.502 . S
C407 H393 0.960 . S
C407 H394 0.961 . S
C407 H395 0.959 . S
C407 C405 1.561 . S
C408 C405 1.526 . S
C408 C409 1.396 . S
C408 C413 1.390 . S
C409 C403 1.465 . S
C409 C408 1.396 . S
C409 C410 1.399 . S
C410 H396 0.929 . S
C410 C409 1.399 . S
C410 C411 1.385 . S
C411 H397 0.931 . S
C411 C410 1.385 . S
C411 C412 1.389 . S
C412 C411 1.389 . S
C412 C413 1.387 . S
C413 H398 0.930 . S
C413 C408 1.390 . S
C413 C412 1.387 . S
H414 C426 0.930 . S
H415 C428 0.930 . S
H416 C429 0.930 . S
H417 C433 0.959 . S
H418 C433 0.959 . S
H419 C433 0.961 . S
H420 C434 0.960 . S
H421 C434 0.961 . S
H422 C434 0.959 . S
H423 C437 0.929 . S
H424 C438 0.931 . S
H425 C440 0.930 . S
C426 H414 0.930 . S
C426 C427 1.399 . S
C426 C431 1.399 . S
C427 C426 1.399 . S
C427 C428 1.376 . S
C428 H415 0.930 . S
C428 C427 1.376 . S
C428 C429 1.388 . S
C429 H416 0.930 . S
C429 C428 1.388 . S
C429 C430 1.390 . S
C430 C429 1.390 . S
C430 C431 1.394 . S
C430 C436 1.465 . S
C431 C426 1.399 . S
C431 C430 1.394 . S
C431 C432 1.516 . S
C432 C431 1.516 . S
C432 C433 1.502 . S
C432 C434 1.561 . S
C432 C435 1.526 . S
C433 H417 0.959 . S
C433 H418 0.959 . S
C433 H419 0.961 . S
C433 C432 1.502 . S
C434 H420 0.960 . S
C434 H421 0.961 . S
C434 H422 0.959 . S
C434 C432 1.561 . S
C435 C432 1.526 . S
C435 C436 1.396 . S
C435 C440 1.390 . S
C436 C430 1.465 . S
C436 C435 1.396 . S
C436 C437 1.399 . S
C437 H423 0.929 . S
C437 C436 1.399 . S
C437 C438 1.385 . S
C438 H424 0.931 . S
C438 C437 1.385 . S
C438 C439 1.389 . S
C439 C438 1.389 . S
C439 C440 1.387 . S
C440 H425 0.930 . S
C440 C435 1.390 . S
C440 C439 1.387 . S
H441 C453 0.930 . S
H442 C455 0.930 . S
H443 C456 0.930 . S
H444 C460 0.959 . S
H445 C460 0.959 . S
H446 C460 0.961 . S
H447 C461 0.960 . S
H448 C461 0.961 . S
H449 C461 0.959 . S
H450 C464 0.929 . S
H451 C465 0.931 . S
H452 C467 0.930 . S
C453 H441 0.930 . S
C453 C454 1.399 . S
C453 C458 1.399 . S
C454 C453 1.399 . S
C454 C455 1.376 . S
C455 H442 0.930 . S
C455 C454 1.376 . S
C455 C456 1.388 . S
C456 H443 0.930 . S
C456 C455 1.388 . S
C456 C457 1.390 . S
C457 C456 1.390 . S
C457 C458 1.394 . S
C457 C463 1.465 . S
C458 C453 1.399 . S
C458 C457 1.394 . S
C458 C459 1.516 . S
C459 C458 1.516 . S
C459 C460 1.502 . S
C459 C461 1.561 . S
C459 C462 1.526 . S
C460 H444 0.959 . S
C460 H445 0.959 . S
C460 H446 0.961 . S
C460 C459 1.502 . S
C461 H447 0.960 . S
C461 H448 0.961 . S
C461 H449 0.959 . S
C461 C459 1.561 . S
C462 C459 1.526 . S
C462 C463 1.396 . S
C462 C467 1.390 . S
C463 C457 1.465 . S
C463 C462 1.396 . S
C463 C464 1.399 . S
C464 H450 0.929 . S
C464 C463 1.399 . S
C464 C465 1.385 . S
C465 H451 0.931 . S
C465 C464 1.385 . S
C465 C466 1.389 . S
C466 C465 1.389 . S
C466 C467 1.387 . S
C467 H452 0.930 . S
C467 C462 1.390 . S
C467 C466 1.387 . S
H468 C480 0.930 . S
H469 C482 0.930 . S
H470 C483 0.930 . S
H471 C487 0.959 . S
H472 C487 0.959 . S
H473 C487 0.961 . S
H474 C488 0.960 . S
H475 C488 0.961 . S
H476 C488 0.959 . S
H477 C491 0.929 . S
H478 C492 0.931 . S
H479 C494 0.930 . S
C480 H468 0.930 . S
C480 C481 1.399 . S
C480 C485 1.399 . S
C481 C480 1.399 . S
C481 C482 1.376 . S
C482 H469 0.930 . S
C482 C481 1.376 . S
C482 C483 1.388 . S
C483 H470 0.930 . S
C483 C482 1.388 . S
C483 C484 1.390 . S
C484 C483 1.390 . S
C484 C485 1.394 . S
C484 C490 1.465 . S
C485 C480 1.399 . S
C485 C484 1.394 . S
C485 C486 1.516 . S
C486 C485 1.516 . S
C486 C487 1.502 . S
C486 C488 1.561 . S
C486 C489 1.526 . S
C487 H471 0.959 . S
C487 H472 0.959 . S
C487 H473 0.961 . S
C487 C486 1.502 . S
C488 H474 0.960 . S
C488 H475 0.961 . S
C488 H476 0.959 . S
C488 C486 1.561 . S
C489 C486 1.526 . S
C489 C490 1.396 . S
C489 C494 1.390 . S
C490 C484 1.465 . S
C490 C489 1.396 . S
C490 C491 1.399 . S
C491 H477 0.929 . S
C491 C490 1.399 . S
C491 C492 1.385 . S
C492 H478 0.931 . S
C492 C491 1.385 . S
C492 C493 1.389 . S
C493 C492 1.389 . S
C493 C494 1.387 . S
C494 H479 0.930 . S
C494 C489 1.390 . S
C494 C493 1.387 . S
H495 C507 0.930 . S
H496 C509 0.930 . S
H497 C510 0.930 . S
H498 C514 0.959 . S
H499 C514 0.959 . S
H500 C514 0.961 . S
H501 C515 0.960 . S
H502 C515 0.961 . S
H503 C515 0.959 . S
H504 C518 0.929 . S
H505 C519 0.931 . S
H506 C521 0.930 . S
C507 H495 0.930 . S
C507 C508 1.399 . S
C507 C512 1.399 . S
C508 C507 1.399 . S
C508 C509 1.376 . S
C509 H496 0.930 . S
C509 C508 1.376 . S
C509 C510 1.388 . S
C510 H497 0.930 . S
C510 C509 1.388 . S
C510 C511 1.390 . S
C511 C510 1.390 . S
C511 C512 1.394 . S
C511 C517 1.465 . S
C512 C507 1.399 . S
C512 C511 1.394 . S
C512 C513 1.516 . S
C513 C512 1.516 . S
C513 C514 1.502 . S
C513 C515 1.561 . S
C513 C516 1.526 . S
C514 H498 0.959 . S
C514 H499 0.959 . S
C514 H500 0.961 . S
C514 C513 1.502 . S
C515 H501 0.960 . S
C515 H502 0.961 . S
C515 H503 0.959 . S
C515 C513 1.561 . S
C516 C513 1.526 . S
C516 C517 1.396 . S
C516 C521 1.390 . S
C517 C511 1.465 . S
C517 C516 1.396 . S
C517 C518 1.399 . S
C518 H504 0.929 . S
C518 C517 1.399 . S
C518 C519 1.385 . S
C519 H505 0.931 . S
C519 C518 1.385 . S
C519 C520 1.389 . S
C520 C519 1.389 . S
C520 C521 1.387 . S
C521 H506 0.930 . S
C521 C516 1.390 . S
C521 C520 1.387 . S
H522 C534 0.930 . S
H523 C536 0.930 . S
H524 C537 0.930 . S
H525 C541 0.959 . S
H526 C541 0.959 . S
H527 C541 0.961 . S
H528 C542 0.960 . S
H529 C542 0.961 . S
H530 C542 0.959 . S
H531 C545 0.929 . S
H532 C546 0.931 . S
H533 C548 0.930 . S
C534 H522 0.930 . S
C534 C535 1.399 . S
C534 C539 1.399 . S
C535 C534 1.399 . S
C535 C536 1.376 . S
C536 H523 0.930 . S
C536 C535 1.376 . S
C536 C537 1.388 . S
C537 H524 0.930 . S
C537 C536 1.388 . S
C537 C538 1.390 . S
C538 C537 1.390 . S
C538 C539 1.394 . S
C538 C544 1.465 . S
C539 C534 1.399 . S
C539 C538 1.394 . S
C539 C540 1.516 . S
C540 C539 1.516 . S
C540 C541 1.502 . S
C540 C542 1.561 . S
C540 C543 1.526 . S
C541 H525 0.959 . S
C541 H526 0.959 . S
C541 H527 0.961 . S
C541 C540 1.502 . S
C542 H528 0.960 . S
C542 H529 0.961 . S
C542 H530 0.959 . S
C542 C540 1.561 . S
C543 C540 1.526 . S
C543 C544 1.396 . S
C543 C548 1.390 . S
C544 C538 1.465 . S
C544 C543 1.396 . S
C544 C545 1.399 . S
C545 H531 0.929 . S
C545 C544 1.399 . S
C545 C546 1.385 . S
C546 H532 0.931 . S
C546 C545 1.385 . S
C546 C547 1.389 . S
C547 C546 1.389 . S
C547 C548 1.387 . S
C548 H533 0.930 . S
C548 C543 1.390 . S
C548 C547 1.387 . S
H549 C561 0.930 . S
H550 C563 0.930 1_554 S
H551 C564 0.930 . S
H552 C568 0.959 . S
H553 C568 0.959 . S
H554 C568 0.961 . S
H555 C569 0.960 . S
H556 C569 0.961 . S
H557 C569 0.959 . S
H558 C572 0.929 . S
H559 C573 0.931 . S
H560 C575 0.930 . S
C561 H549 0.930 . S
C561 C562 1.399 . S
C561 C566 1.399 . S
C562 C561 1.399 . S
C562 C563 1.376 . S
C563 H550 0.930 1_556 S
C563 C562 1.376 . S
C563 C564 1.388 . S
C564 H551 0.930 . S
C564 C563 1.388 . S
C564 C565 1.390 . S
C565 C564 1.390 . S
C565 C566 1.394 . S
C565 C571 1.465 . S
C566 C561 1.399 . S
C566 C565 1.394 . S
C566 C567 1.516 . S
C567 C566 1.516 . S
C567 C568 1.502 . S
C567 C569 1.561 . S
C567 C570 1.526 . S
C568 H552 0.959 . S
C568 H553 0.959 . S
C568 H554 0.961 . S
C568 C567 1.502 . S
C569 H555 0.960 . S
C569 H556 0.961 . S
C569 H557 0.959 . S
C569 C567 1.561 . S
C570 C567 1.526 . S
C570 C571 1.396 . S
C570 C575 1.390 . S
C571 C565 1.465 . S
C571 C570 1.396 . S
C571 C572 1.399 . S
C572 H558 0.929 . S
C572 C571 1.399 . S
C572 C573 1.385 . S
C573 H559 0.931 . S
C573 C572 1.385 . S
C573 C574 1.389 . S
C574 C573 1.389 . S
C574 C575 1.387 . S
C575 H560 0.930 . S
C575 C570 1.390 . S
C575 C574 1.387 . S
H576 C588 0.930 . S
H577 C590 0.930 . S
H578 C591 0.930 . S
H579 C595 0.959 . S
H580 C595 0.959 . S
H581 C595 0.961 . S
H582 C596 0.960 . S
H583 C596 0.961 . S
H584 C596 0.959 . S
H585 C599 0.929 . S
H586 C600 0.931 . S
H587 C602 0.930 . S
C588 H576 0.930 . S
C588 C589 1.399 . S
C588 C593 1.399 . S
C589 C588 1.399 . S
C589 C590 1.376 . S
C590 H577 0.930 . S
C590 C589 1.376 . S
C590 C591 1.388 . S
C591 H578 0.930 . S
C591 C590 1.388 . S
C591 C592 1.390 . S
C592 C591 1.390 . S
C592 C593 1.394 . S
C592 C598 1.465 . S
C593 C588 1.399 . S
C593 C592 1.394 . S
C593 C594 1.516 . S
C594 C593 1.516 . S
C594 C595 1.502 . S
C594 C596 1.561 . S
C594 C597 1.526 . S
C595 H579 0.959 . S
C595 H580 0.959 . S
C595 H581 0.961 . S
C595 C594 1.502 . S
C596 H582 0.960 . S
C596 H583 0.961 . S
C596 H584 0.959 . S
C596 C594 1.561 . S
C597 C594 1.526 . S
C597 C598 1.396 . S
C597 C602 1.390 . S
C598 C592 1.465 . S
C598 C597 1.396 . S
C598 C599 1.399 . S
C599 H585 0.929 . S
C599 C598 1.399 . S
C599 C600 1.385 . S
C600 H586 0.931 . S
C600 C599 1.385 . S
C600 C601 1.389 . S
C601 C600 1.389 . S
C601 C602 1.387 . S
C602 H587 0.930 . S
C602 C597 1.390 . S
C602 C601 1.387 . S
H603 C615 0.930 . S
H604 C617 0.930 . S
H605 C618 0.930 . S
H606 C622 0.959 . S
H607 C622 0.959 . S
H608 C622 0.961 . S
H609 C623 0.960 . S
H610 C623 0.961 . S
H611 C623 0.959 . S
H612 C626 0.929 . S
H613 C627 0.931 . S
H614 C629 0.930 . S
C615 H603 0.930 . S
C615 C616 1.399 . S
C615 C620 1.399 . S
C616 C615 1.399 . S
C616 C617 1.376 . S
C617 H604 0.930 . S
C617 C616 1.376 . S
C617 C618 1.388 . S
C618 H605 0.930 . S
C618 C617 1.388 . S
C618 C619 1.390 . S
C619 C618 1.390 . S
C619 C620 1.394 . S
C619 C625 1.465 . S
C620 C615 1.399 . S
C620 C619 1.394 . S
C620 C621 1.516 . S
C621 C620 1.516 . S
C621 C622 1.502 . S
C621 C623 1.561 . S
C621 C624 1.526 . S
C622 H606 0.959 . S
C622 H607 0.959 . S
C622 H608 0.961 . S
C622 C621 1.502 . S
C623 H609 0.960 . S
C623 H610 0.961 . S
C623 H611 0.959 . S
C623 C621 1.561 . S
C624 C621 1.526 . S
C624 C625 1.396 . S
C624 C629 1.390 . S
C625 C619 1.465 . S
C625 C624 1.396 . S
C625 C626 1.399 . S
C626 H612 0.929 . S
C626 C625 1.399 . S
C626 C627 1.385 . S
C627 H613 0.931 . S
C627 C626 1.385 . S
C627 C628 1.389 . S
C628 C627 1.389 . S
C628 C629 1.387 . S
C629 H614 0.930 . S
C629 C624 1.390 . S
C629 C628 1.387 . S
H630 C642 0.930 . S
H631 C644 0.930 . S
H632 C645 0.930 . S
H633 C649 0.959 . S
H634 C649 0.959 . S
H635 C649 0.961 . S
H636 C650 0.960 . S
H637 C650 0.961 . S
H638 C650 0.959 . S
H639 C653 0.929 . S
H640 C654 0.931 . S
H641 C656 0.930 . S
C642 H630 0.930 . S
C642 C643 1.399 . S
C642 C647 1.399 . S
C643 C642 1.399 . S
C643 C644 1.376 . S
C644 H631 0.930 . S
C644 C643 1.376 . S
C644 C645 1.388 . S
C645 H632 0.930 . S
C645 C644 1.388 . S
C645 C646 1.390 . S
C646 C645 1.390 . S
C646 C647 1.394 . S
C646 C652 1.465 . S
C647 C642 1.399 . S
C647 C646 1.394 . S
C647 C648 1.516 . S
C648 C647 1.516 . S
C648 C649 1.502 . S
C648 C650 1.561 . S
C648 C651 1.526 . S
C649 H633 0.959 . S
C649 H634 0.959 . S
C649 H635 0.961 . S
C649 C648 1.502 . S
C650 H636 0.960 . S
C650 H637 0.961 . S
C650 H638 0.959 . S
C650 C648 1.561 . S
C651 C648 1.526 . S
C651 C652 1.396 . S
C651 C656 1.390 . S
C652 C646 1.465 . S
C652 C651 1.396 . S
C652 C653 1.399 . S
C653 H639 0.929 . S
C653 C652 1.399 . S
C653 C654 1.385 . S
C654 H640 0.931 . S
C654 C653 1.385 . S
C654 C655 1.389 . S
C655 C654 1.389 . S
C655 C656 1.387 . S
C656 H641 0.930 . S
C656 C651 1.390 . S
C656 C655 1.387 . S
H657 C669 0.930 . S
H658 C671 0.930 . S
H659 C672 0.930 . S
H660 C676 0.959 . S
H661 C676 0.959 . S
H662 C676 0.961 . S
H663 C677 0.960 . S
H664 C677 0.961 . S
H665 C677 0.959 . S
H666 C680 0.929 . S
H667 C681 0.931 . S
H668 C683 0.930 . S
C669 H657 0.930 . S
C669 C670 1.399 . S
C669 C674 1.399 . S
C670 C669 1.399 . S
C670 C671 1.376 . S
C671 H658 0.930 . S
C671 C670 1.376 . S
C671 C672 1.388 . S
C672 H659 0.930 . S
C672 C671 1.388 . S
C672 C673 1.390 . S
C673 C672 1.390 . S
C673 C674 1.394 . S
C673 C679 1.465 . S
C674 C669 1.399 . S
C674 C673 1.394 . S
C674 C675 1.516 . S
C675 C674 1.516 . S
C675 C676 1.502 . S
C675 C677 1.561 . S
C675 C678 1.526 . S
C676 H660 0.959 . S
C676 H661 0.959 . S
C676 H662 0.961 . S
C676 C675 1.502 . S
C677 H663 0.960 . S
C677 H664 0.961 . S
C677 H665 0.959 . S
C677 C675 1.561 . S
C678 C675 1.526 . S
C678 C679 1.396 . S
C678 C683 1.390 . S
C679 C673 1.465 . S
C679 C678 1.396 . S
C679 C680 1.399 . S
C680 H666 0.929 . S
C680 C679 1.399 . S
C680 C681 1.385 . S
C681 H667 0.931 . S
C681 C680 1.385 . S
C681 C682 1.389 . S
C682 C681 1.389 . S
C682 C683 1.387 . S
C683 H668 0.930 . S
C683 C678 1.390 . S
C683 C682 1.387 . S
H684 C696 0.930 . S
H685 C698 0.930 . S
H686 C699 0.930 . S
H687 C703 0.959 . S
H688 C703 0.959 . S
H689 C703 0.961 . S
H690 C704 0.960 . S
H691 C704 0.961 . S
H692 C704 0.959 . S
H693 C707 0.929 . S
H694 C708 0.931 . S
H695 C710 0.930 . S
C696 H684 0.930 . S
C696 C697 1.399 . S
C696 C701 1.399 . S
C697 C696 1.399 . S
C697 C698 1.376 . S
C698 H685 0.930 . S
C698 C697 1.376 . S
C698 C699 1.388 . S
C699 H686 0.930 . S
C699 C698 1.388 . S
C699 C700 1.390 . S
C700 C699 1.390 . S
C700 C701 1.394 . S
C700 C706 1.465 . S
C701 C696 1.399 . S
C701 C700 1.394 . S
C701 C702 1.516 . S
C702 C701 1.516 . S
C702 C703 1.502 . S
C702 C704 1.561 . S
C702 C705 1.526 . S
C703 H687 0.959 . S
C703 H688 0.959 . S
C703 H689 0.961 . S
C703 C702 1.502 . S
C704 H690 0.960 . S
C704 H691 0.961 . S
C704 H692 0.959 . S
C704 C702 1.561 . S
C705 C702 1.526 . S
C705 C706 1.396 . S
C705 C710 1.390 . S
C706 C700 1.465 . S
C706 C705 1.396 . S
C706 C707 1.399 . S
C707 H693 0.929 . S
C707 C706 1.399 . S
C707 C708 1.385 . S
C708 H694 0.931 . S
C708 C707 1.385 . S
C708 C709 1.389 . S
C709 C708 1.389 . S
C709 C710 1.387 . S
C710 H695 0.930 . S
C710 C705 1.390 . S
C710 C709 1.387 . S
H711 C723 0.930 . S
H712 C725 0.930 . S
H713 C726 0.930 . S
H714 C730 0.959 . S
H715 C730 0.959 . S
H716 C730 0.961 . S
H717 C731 0.960 . S
H718 C731 0.961 . S
H719 C731 0.959 . S
H720 C734 0.929 . S
H721 C735 0.931 . S
H722 C737 0.930 . S
C723 H711 0.930 . S
C723 C724 1.399 . S
C723 C728 1.399 . S
C724 C723 1.399 . S
C724 C725 1.376 . S
C725 H712 0.930 . S
C725 C724 1.376 . S
C725 C726 1.388 . S
C726 H713 0.930 . S
C726 C725 1.388 . S
C726 C727 1.390 . S
C727 C726 1.390 . S
C727 C728 1.394 . S
C727 C733 1.465 . S
C728 C723 1.399 . S
C728 C727 1.394 . S
C728 C729 1.516 . S
C729 C728 1.516 . S
C729 C730 1.502 . S
C729 C731 1.561 . S
C729 C732 1.526 . S
C730 H714 0.959 . S
C730 H715 0.959 . S
C730 H716 0.961 . S
C730 C729 1.502 . S
C731 H717 0.960 . S
C731 H718 0.961 . S
C731 H719 0.959 . S
C731 C729 1.561 . S
C732 C729 1.526 . S
C732 C733 1.396 . S
C732 C737 1.390 . S
C733 C727 1.465 . S
C733 C732 1.396 . S
C733 C734 1.399 . S
C734 H720 0.929 . S
C734 C733 1.399 . S
C734 C735 1.385 . S
C735 H721 0.931 . S
C735 C734 1.385 . S
C735 C736 1.389 . S
C736 C735 1.389 . S
C736 C737 1.387 . S
C737 H722 0.930 . S
C737 C732 1.390 . S
C737 C736 1.387 . S
H738 C750 0.930 . S
H739 C752 0.930 . S
H740 C753 0.930 . S
H741 C757 0.959 . S
H742 C757 0.959 . S
H743 C757 0.961 . S
H744 C758 0.960 . S
H745 C758 0.961 . S
H746 C758 0.959 . S
H747 C761 0.929 . S
H748 C762 0.931 . S
H749 C764 0.930 . S
C750 H738 0.930 . S
C750 C751 1.399 . S
C750 C755 1.399 . S
C751 C750 1.399 . S
C751 C752 1.376 . S
C752 H739 0.930 . S
C752 C751 1.376 . S
C752 C753 1.388 . S
C753 H740 0.930 . S
C753 C752 1.388 . S
C753 C754 1.390 . S
C754 C753 1.390 . S
C754 C755 1.394 . S
C754 C760 1.465 . S
C755 C750 1.399 . S
C755 C754 1.394 . S
C755 C756 1.516 . S
C756 C755 1.516 . S
C756 C757 1.502 . S
C756 C758 1.561 . S
C756 C759 1.526 . S
C757 H741 0.959 . S
C757 H742 0.959 . S
C757 H743 0.961 . S
C757 C756 1.502 . S
C758 H744 0.960 . S
C758 H745 0.961 . S
C758 H746 0.959 . S
C758 C756 1.561 . S
C759 C756 1.526 . S
C759 C760 1.396 . S
C759 C764 1.390 . S
C760 C754 1.465 . S
C760 C759 1.396 . S
C760 C761 1.399 . S
C761 H747 0.929 . S
C761 C760 1.399 . S
C761 C762 1.385 . S
C762 H748 0.931 . S
C762 C761 1.385 . S
C762 C763 1.389 . S
C763 C762 1.389 . S
C763 C764 1.387 . S
C764 H749 0.930 . S
C764 C759 1.390 . S
C764 C763 1.387 . S
H765 C777 0.930 . S
H766 C779 0.930 . S
H767 C780 0.930 . S
H768 C784 0.959 . S
H769 C784 0.959 . S
H770 C784 0.961 . S
H771 C785 0.960 . S
H772 C785 0.961 . S
H773 C785 0.959 . S
H774 C788 0.929 . S
H775 C789 0.931 . S
H776 C791 0.930 . S
C777 H765 0.930 . S
C777 C778 1.399 . S
C777 C782 1.399 . S
C778 C777 1.399 . S
C778 C779 1.376 . S
C779 H766 0.930 . S
C779 C778 1.376 . S
C779 C780 1.388 . S
C780 H767 0.930 . S
C780 C779 1.388 . S
C780 C781 1.390 . S
C781 C780 1.390 . S
C781 C782 1.394 . S
C781 C787 1.465 . S
C782 C777 1.399 . S
C782 C781 1.394 . S
C782 C783 1.516 . S
C783 C782 1.516 . S
C783 C784 1.502 . S
C783 C785 1.561 . S
C783 C786 1.526 . S
C784 H768 0.959 . S
C784 H769 0.959 . S
C784 H770 0.961 . S
C784 C783 1.502 . S
C785 H771 0.960 . S
C785 H772 0.961 . S
C785 H773 0.959 . S
C785 C783 1.561 . S
C786 C783 1.526 . S
C786 C787 1.396 . S
C786 C791 1.390 . S
C787 C781 1.465 . S
C787 C786 1.396 . S
C787 C788 1.399 . S
C788 H774 0.929 . S
C788 C787 1.399 . S
C788 C789 1.385 . S
C789 H775 0.931 . S
C789 C788 1.385 . S
C789 C790 1.389 . S
C790 C789 1.389 . S
C790 C791 1.387 . S
C791 H776 0.930 . S
C791 C786 1.390 . S
C791 C790 1.387 . S
H792 C804 0.930 . S
H793 C806 0.930 . S
H794 C807 0.930 . S
H795 C811 0.959 . S
H796 C811 0.959 . S
H797 C811 0.961 . S
H798 C812 0.960 . S
H799 C812 0.961 . S
H800 C812 0.959 . S
H801 C815 0.929 . S
H802 C816 0.931 . S
H803 C818 0.930 . S
C804 H792 0.930 . S
C804 C805 1.399 . S
C804 C809 1.399 . S
C805 C804 1.399 . S
C805 C806 1.376 . S
C806 H793 0.930 . S
C806 C805 1.376 . S
C806 C807 1.388 . S
C807 H794 0.930 . S
C807 C806 1.388 . S
C807 C808 1.390 . S
C808 C807 1.390 . S
C808 C809 1.394 . S
C808 C814 1.465 . S
C809 C804 1.399 . S
C809 C808 1.394 . S
C809 C810 1.516 . S
C810 C809 1.516 . S
C810 C811 1.502 . S
C810 C812 1.561 . S
C810 C813 1.526 . S
C811 H795 0.959 . S
C811 H796 0.959 . S
C811 H797 0.961 . S
C811 C810 1.502 . S
C812 H798 0.960 . S
C812 H799 0.961 . S
C812 H800 0.959 . S
C812 C810 1.561 . S
C813 C810 1.526 . S
C813 C814 1.396 . S
C813 C818 1.390 . S
C814 C808 1.465 . S
C814 C813 1.396 . S
C814 C815 1.399 . S
C815 H801 0.929 . S
C815 C814 1.399 . S
C815 C816 1.385 . S
C816 H802 0.931 . S
C816 C815 1.385 . S
C816 C817 1.389 . S
C817 C816 1.389 . S
C817 C818 1.387 . S
C818 H803 0.930 . S
C818 C813 1.390 . S
C818 C817 1.387 . S
H819 C831 0.930 . S
H820 C833 0.930 . S
H821 C834 0.930 . S
H822 C838 0.959 . S
H823 C838 0.959 . S
H824 C838 0.941 1_565 S
H825 C839 0.960 . S
H826 C839 0.961 . S
H827 C839 0.959 . S
H828 C842 0.929 . S
H829 C843 0.931 . S
H830 C845 0.930 1_556 S
C831 H819 0.930 . S
C831 C832 1.399 . S
C831 C836 1.399 . S
C832 C831 1.399 . S
C832 C833 1.376 . S
C833 H820 0.930 . S
C833 C832 1.376 . S
C833 C834 1.388 . S
C834 H821 0.930 . S
C834 C833 1.388 . S
C834 C835 1.390 . S
C835 C834 1.390 . S
C835 C836 1.394 . S
C835 C841 1.465 . S
C836 C831 1.399 . S
C836 C835 1.394 . S
C836 C837 1.516 . S
C837 C836 1.516 . S
C837 C838 1.502 . S
C837 C839 1.561 1_554 S
C837 C840 1.526 . S
C838 H822 0.959 . S
C838 H823 0.959 . S
C838 H824 0.941 1_545 S
C838 C837 1.502 . S
C839 H825 0.960 . S
C839 H826 0.961 . S
C839 H827 0.959 . S
C839 C837 1.561 1_556 S
C840 C837 1.526 . S
C840 C841 1.396 . S
C840 C845 1.390 . S
C841 C835 1.465 . S
C841 C840 1.396 . S
C841 C842 1.399 . S
C842 H828 0.929 . S
C842 C841 1.399 . S
C842 C843 1.385 . S
C843 H829 0.931 . S
C843 C842 1.385 . S
C843 C844 1.389 . S
C844 C843 1.389 . S
C844 C845 1.387 . S
C845 H830 0.930 1_554 S
C845 C840 1.390 . S
C845 C844 1.387 . S
H846 C858 0.930 . S
H847 C860 0.930 . S
H848 C861 0.930 . S
H849 C865 0.946 1_455 S
H850 C865 0.950 1_455 S
H851 C865 0.974 . S
H852 C866 0.960 . S
H853 C866 0.961 . S
H854 C866 0.959 . S
H855 C869 0.929 . S
H856 C870 0.931 . S
H857 C872 0.930 . S
C858 H846 0.930 . S
C858 C859 1.399 1_554 S
C858 C863 1.399 . S
C859 C858 1.399 1_556 S
C859 C860 1.376 . S
C860 H847 0.930 . S
C860 C859 1.376 . S
C860 C861 1.388 . S
C861 H848 0.930 . S
C861 C860 1.388 . S
C861 C862 1.390 1_556 S
C862 C861 1.390 1_554 S
C862 C863 1.394 . S
C862 C868 1.465 . S
C863 C858 1.399 . S
C863 C862 1.394 . S
C863 C864 1.516 . S
C864 C863 1.516 . S
C864 C865 1.511 . S
C864 C866 1.561 . S
C864 C867 1.526 . S
C865 H849 0.946 1_655 S
C865 H850 0.950 1_655 S
C865 H851 0.974 . S
C865 C864 1.511 . S
C866 H852 0.960 . S
C866 H853 0.961 . S
C866 H854 0.959 . S
C866 C864 1.561 . S
C867 C864 1.526 . S
C867 C868 1.396 . S
C867 C872 1.390 . S
C868 C862 1.465 . S
C868 C867 1.396 . S
C868 C869 1.399 . S
C869 H855 0.929 . S
C869 C868 1.399 . S
C869 C870 1.385 . S
C870 H856 0.931 . S
C870 C869 1.385 . S
C870 C871 1.389 . S
C871 C870 1.389 . S
C871 C872 1.387 . S
C872 H857 0.930 . S
C872 C867 1.390 . S
C872 C871 1.387 . S
H873 C885 0.930 1_556 S
H874 C887 0.930 . S
H875 C888 0.930 . S
H876 C892 0.959 . S
H877 C892 0.959 . S
H878 C892 0.961 1_556 S
H879 C893 0.960 1_556 S
H880 C893 0.961 . S
H881 C893 0.959 . S
H882 C896 0.929 . S
H883 C897 0.931 . S
H884 C899 0.930 . S
C885 H873 0.930 1_554 S
C885 C886 1.399 . S
C885 C890 1.399 . S
C886 C885 1.399 . S
C886 C887 1.376 . S
C887 H874 0.930 . S
C887 C886 1.376 . S
C887 C888 1.388 . S
C888 H875 0.930 . S
C888 C887 1.388 . S
C888 C889 1.390 . S
C889 C888 1.390 . S
C889 C890 1.394 . S
C889 C895 1.465 . S
C890 C885 1.399 . S
C890 C889 1.394 . S
C890 C891 1.516 . S
C891 C890 1.516 . S
C891 C892 1.502 . S
C891 C893 1.561 . S
C891 C894 1.526 . S
C892 H876 0.959 . S
C892 H877 0.959 . S
C892 H878 0.961 1_554 S
C892 C891 1.502 . S
C893 H879 0.960 1_554 S
C893 H880 0.961 . S
C893 H881 0.959 . S
C893 C891 1.561 . S
C894 C891 1.526 . S
C894 C895 1.396 . S
C894 C899 1.390 . S
C895 C889 1.465 . S
C895 C894 1.396 . S
C895 C896 1.399 . S
C896 H882 0.929 . S
C896 C895 1.399 . S
C896 C897 1.385 . S
C897 H883 0.931 . S
C897 C896 1.385 . S
C897 C898 1.389 . S
C898 C897 1.389 . S
C898 C899 1.387 . S
C899 H884 0.930 . S
C899 C894 1.390 . S
C899 C898 1.387 . S
H900 C912 0.930 . S
H901 C914 0.930 . S
H902 C915 0.930 . S
H903 C919 0.959 . S
H904 C919 0.959 . S
H905 C919 0.961 . S
H906 C920 0.960 . S
H907 C920 0.961 . S
H908 C920 0.959 . S
H909 C923 0.929 . S
H910 C924 0.931 . S
H911 C926 0.930 . S
C912 H900 0.930 . S
C912 C913 1.399 . S
C912 C917 1.399 . S
C913 C912 1.399 . S
C913 C914 1.376 . S
C914 H901 0.930 . S
C914 C913 1.376 . S
C914 C915 1.388 . S
C915 H902 0.930 . S
C915 C914 1.388 . S
C915 C916 1.390 . S
C916 C915 1.390 . S
C916 C917 1.394 . S
C916 C922 1.465 . S
C917 C912 1.399 . S
C917 C916 1.394 . S
C917 C918 1.516 . S
C918 C917 1.516 . S
C918 C919 1.502 . S
C918 C920 1.561 . S
C918 C921 1.526 . S
C919 H903 0.959 . S
C919 H904 0.959 . S
C919 H905 0.961 . S
C919 C918 1.502 . S
C920 H906 0.960 . S
C920 H907 0.961 . S
C920 H908 0.959 . S
C920 C918 1.561 . S
C921 C918 1.526 . S
C921 C922 1.396 . S
C921 C926 1.390 . S
C922 C916 1.465 . S
C922 C921 1.396 . S
C922 C923 1.399 . S
C923 H909 0.929 . S
C923 C922 1.399 . S
C923 C924 1.385 . S
C924 H910 0.931 . S
C924 C923 1.385 . S
C924 C925 1.389 . S
C925 C924 1.389 . S
C925 C926 1.387 . S
C926 H911 0.930 . S
C926 C921 1.390 . S
C926 C925 1.387 . S
H927 C939 0.930 . S
H928 C941 0.930 . S
H929 C942 0.930 . S
H930 C946 0.959 . S
H931 C946 0.959 . S
H932 C946 0.961 . S
H933 C947 0.960 . S
H934 C947 0.961 . S
H935 C947 0.959 . S
H936 C950 0.929 . S
H937 C951 0.931 . S
H938 C953 0.930 . S
C939 H927 0.930 . S
C939 C940 1.399 . S
C939 C944 1.399 . S
C940 C939 1.399 . S
C940 C941 1.376 . S
C941 H928 0.930 . S
C941 C940 1.376 . S
C941 C942 1.388 . S
C942 H929 0.930 . S
C942 C941 1.388 . S
C942 C943 1.390 . S
C943 C942 1.390 . S
C943 C944 1.394 . S
C943 C949 1.465 . S
C944 C939 1.399 . S
C944 C943 1.394 . S
C944 C945 1.516 . S
C945 C944 1.516 . S
C945 C946 1.502 . S
C945 C947 1.561 . S
C945 C948 1.526 . S
C946 H930 0.959 . S
C946 H931 0.959 . S
C946 H932 0.961 . S
C946 C945 1.502 . S
C947 H933 0.960 . S
C947 H934 0.961 . S
C947 H935 0.959 . S
C947 C945 1.561 . S
C948 C945 1.526 . S
C948 C949 1.396 . S
C948 C953 1.390 . S
C949 C943 1.465 . S
C949 C948 1.396 . S
C949 C950 1.399 . S
C950 H936 0.929 . S
C950 C949 1.399 . S
C950 C951 1.385 . S
C951 H937 0.931 . S
C951 C950 1.385 . S
C951 C952 1.389 . S
C952 C951 1.389 . S
C952 C953 1.387 . S
C953 H938 0.930 . S
C953 C948 1.390 . S
C953 C952 1.387 . S
H954 C966 0.930 . S
H955 C968 0.930 . S
H956 C969 0.930 . S
H957 C973 0.959 . S
H958 C973 0.959 . S
H959 C973 0.961 . S
H960 C974 0.960 . S
H961 C974 0.961 . S
H962 C974 0.959 . S
H963 C977 0.929 . S
H964 C978 0.931 . S
H965 C980 0.930 . S
C966 H954 0.930 . S
C966 C967 1.399 . S
C966 C971 1.399 . S
C967 C966 1.399 . S
C967 C968 1.376 . S
C968 H955 0.930 . S
C968 C967 1.376 . S
C968 C969 1.388 . S
C969 H956 0.930 . S
C969 C968 1.388 . S
C969 C970 1.390 . S
C970 C969 1.390 . S
C970 C971 1.394 . S
C970 C976 1.465 . S
C971 C966 1.399 . S
C971 C970 1.394 . S
C971 C972 1.516 . S
C972 C971 1.516 . S
C972 C973 1.502 . S
C972 C974 1.561 . S
C972 C975 1.526 . S
C973 H957 0.959 . S
C973 H958 0.959 . S
C973 H959 0.961 . S
C973 C972 1.502 . S
C974 H960 0.960 . S
C974 H961 0.961 . S
C974 H962 0.959 . S
C974 C972 1.561 . S
C975 C972 1.526 . S
C975 C976 1.396 . S
C975 C980 1.390 . S
C976 C970 1.465 . S
C976 C975 1.396 . S
C976 C977 1.399 . S
C977 H963 0.929 . S
C977 C976 1.399 . S
C977 C978 1.385 . S
C978 H964 0.931 . S
C978 C977 1.385 . S
C978 C979 1.389 . S
C979 C978 1.389 . S
C979 C980 1.387 . S
C980 H965 0.930 . S
C980 C975 1.390 . S
C980 C979 1.387 . S
H981 C993 0.930 . S
H982 C995 0.930 . S
H983 C996 0.930 . S
H984 C1000 0.959 . S
H985 C1000 0.959 . S
H986 C1000 0.961 . S
H987 C1001 0.960 . S
H988 C1001 0.961 . S
H989 C1001 0.959 . S
H990 C1004 0.929 . S
H991 C1005 0.931 . S
H992 C1007 0.930 . S
C993 H981 0.930 . S
C993 C994 1.399 . S
C993 C998 1.399 . S
C994 C993 1.399 . S
C994 C995 1.376 1_556 S
C995 H982 0.930 . S
C995 C994 1.376 1_554 S
C995 C996 1.388 1_554 S
C996 H983 0.930 . S
C996 C995 1.388 1_556 S
C996 C997 1.390 . S
C997 C996 1.390 . S
C997 C998 1.394 . S
C997 C1003 1.465 . S
C998 C993 1.399 . S
C998 C997 1.394 . S
C998 C999 1.516 . S
C999 C998 1.516 . S
C999 C1000 1.502 . S
C999 C1001 1.561 . S
C999 C1002 1.526 . S
C1000 H984 0.959 . S
C1000 H985 0.959 . S
C1000 H986 0.961 . S
C1000 C999 1.502 . S
C1001 H987 0.960 . S
C1001 H988 0.961 . S
C1001 H989 0.959 . S
C1001 C999 1.561 . S
C1002 C999 1.526 . S
C1002 C1003 1.396 . S
C1002 C1007 1.390 . S
C1003 C997 1.465 . S
C1003 C1002 1.396 . S
C1003 C1004 1.399 1_565 S
C1004 H990 0.929 . S
C1004 C1003 1.399 1_545 S
C1004 C1005 1.385 . S
C1005 H991 0.931 . S
C1005 C1004 1.385 . S
C1005 C1006 1.389 . S
C1006 C1005 1.389 . S
C1006 C1007 1.387 1_545 S
C1007 H992 0.930 . S
C1007 C1002 1.390 . S
C1007 C1006 1.387 1_565 S
H1008 C1020 0.930 . S
H1009 C1022 0.930 . S
H1010 C1023 0.930 . S
H1011 C1027 0.959 . S
H1012 C1027 0.959 . S
H1013 C1027 0.961 . S
H1014 C1028 0.960 . S
H1015 C1028 0.961 . S
H1016 C1028 0.959 . S
H1017 C1031 0.929 . S
H1018 C1032 0.931 . S
H1019 C1034 0.930 . S
C1020 H1008 0.930 . S
C1020 C1021 1.399 . S
C1020 C1025 1.399 . S
C1021 C1020 1.399 . S
C1021 C1022 1.376 . S
C1022 H1009 0.930 . S
C1022 C1021 1.376 . S
C1022 C1023 1.388 . S
C1023 H1010 0.930 . S
C1023 C1022 1.388 . S
C1023 C1024 1.390 . S
C1024 C1023 1.390 . S
C1024 C1025 1.394 . S
C1024 C1030 1.465 . S
C1025 C1020 1.399 . S
C1025 C1024 1.394 . S
C1025 C1026 1.516 . S
C1026 C1025 1.516 . S
C1026 C1027 1.502 . S
C1026 C1028 1.561 . S
C1026 C1029 1.526 . S
C1027 H1011 0.959 . S
C1027 H1012 0.959 . S
C1027 H1013 0.961 . S
C1027 C1026 1.502 . S
C1028 H1014 0.960 . S
C1028 H1015 0.961 . S
C1028 H1016 0.959 . S
C1028 C1026 1.561 . S
C1029 C1026 1.526 . S
C1029 C1030 1.396 . S
C1029 C1034 1.390 . S
C1030 C1024 1.465 . S
C1030 C1029 1.396 . S
C1030 C1031 1.399 1_556 S
C1031 H1017 0.929 . S
C1031 C1030 1.399 1_554 S
C1031 C1032 1.385 . S
C1032 H1018 0.931 . S
C1032 C1031 1.385 . S
C1032 C1033 1.389 1_554 S
C1033 C1032 1.389 1_556 S
C1033 C1034 1.387 . S
C1034 H1019 0.930 . S
C1034 C1029 1.390 . S
C1034 C1033 1.387 . S
H1035 C1047 0.930 . S
H1036 C1049 0.930 . S
H1037 C1050 0.930 . S
H1038 C1054 0.959 . S
H1039 C1054 0.959 . S
H1040 C1054 0.961 . S
H1041 C1055 0.960 . S
H1042 C1055 0.961 . S
H1043 C1055 0.959 . S
H1044 C1058 0.929 . S
H1045 C1059 0.931 . S
H1046 C1061 0.930 . S
C1047 H1035 0.930 . S
C1047 C1048 1.399 . S
C1047 C1052 1.399 . S
C1048 C1047 1.399 . S
C1048 C1049 1.376 . S
C1049 H1036 0.930 . S
C1049 C1048 1.376 . S
C1049 C1050 1.388 . S
C1050 H1037 0.930 . S
C1050 C1049 1.388 . S
C1050 C1051 1.390 . S
C1051 C1050 1.390 . S
C1051 C1052 1.394 . S
C1051 C1057 1.465 . S
C1052 C1047 1.399 . S
C1052 C1051 1.394 . S
C1052 C1053 1.516 . S
C1053 C1052 1.516 . S
C1053 C1054 1.502 . S
C1053 C1055 1.561 . S
C1053 C1056 1.526 . S
C1054 H1038 0.959 . S
C1054 H1039 0.959 . S
C1054 H1040 0.961 . S
C1054 C1053 1.502 . S
C1055 H1041 0.960 . S
C1055 H1042 0.961 . S
C1055 H1043 0.959 . S
C1055 C1053 1.561 . S
C1056 C1053 1.526 . S
C1056 C1057 1.396 . S
C1056 C1061 1.390 . S
C1057 C1051 1.465 . S
C1057 C1056 1.396 . S
C1057 C1058 1.399 1_556 S
C1058 H1044 0.929 . S
C1058 C1057 1.399 1_554 S
C1058 C1059 1.385 . S
C1059 H1045 0.931 . S
C1059 C1058 1.385 . S
C1059 C1060 1.389 1_554 S
C1060 C1059 1.389 1_556 S
C1060 C1061 1.387 . S
C1061 H1046 0.930 . S
C1061 C1056 1.390 . S
C1061 C1060 1.387 . S
H1062 C1074 0.930 . S
H1063 C1076 0.930 . S
H1064 C1077 0.930 . S
H1065 C1081 0.959 . S
H1066 C1081 0.959 . S
H1067 C1081 0.961 . S
H1068 C1082 0.960 . S
H1069 C1082 0.961 . S
H1070 C1082 0.959 . S
H1071 C1085 0.929 . S
H1072 C1086 0.931 . S
H1073 C1088 0.930 . S
C1074 H1062 0.930 . S
C1074 C1075 1.399 . S
C1074 C1079 1.399 . S
C1075 C1074 1.399 . S
C1075 C1076 1.376 . S
C1076 H1063 0.930 . S
C1076 C1075 1.376 . S
C1076 C1077 1.388 . S
C1077 H1064 0.930 . S
C1077 C1076 1.388 . S
C1077 C1078 1.390 . S
C1078 C1077 1.390 . S
C1078 C1079 1.394 . S
C1078 C1084 1.465 . S
C1079 C1074 1.399 . S
C1079 C1078 1.394 . S
C1079 C1080 1.516 . S
C1080 C1079 1.516 . S
C1080 C1081 1.502 . S
C1080 C1082 1.561 . S
C1080 C1083 1.526 . S
C1081 H1065 0.959 . S
C1081 H1066 0.959 . S
C1081 H1067 0.961 . S
C1081 C1080 1.502 . S
C1082 H1068 0.960 . S
C1082 H1069 0.961 . S
C1082 H1070 0.959 . S
C1082 C1080 1.561 . S
C1083 C1080 1.526 . S
C1083 C1084 1.396 . S
C1083 C1088 1.390 1_565 S
C1084 C1078 1.465 . S
C1084 C1083 1.396 . S
C1084 C1085 1.399 1_565 S
C1085 H1071 0.929 . S
C1085 C1084 1.399 1_545 S
C1085 C1086 1.385 . S
C1086 H1072 0.931 . S
C1086 C1085 1.385 . S
C1086 C1087 1.389 . S
C1087 C1086 1.389 . S
C1087 C1088 1.387 . S
C1088 H1073 0.930 . S
C1088 C1083 1.390 1_545 S
C1088 C1087 1.387 . S
H1089 C1101 0.930 . S
H1090 C1103 0.930 . S
H1091 C1104 0.930 . S
H1092 C1108 0.959 . S
H1093 C1108 0.959 1_655 S
H1094 C1108 0.961 . S
H1095 C1109 0.960 . S
H1096 C1109 0.961 . S
H1097 C1109 0.959 . S
H1098 C1112 0.929 . S
H1099 C1113 0.931 1_655 S
H1100 C1115 0.930 . S
C1101 H1089 0.930 . S
C1101 C1102 1.399 . S
C1101 C1106 1.399 . S
C1102 C1101 1.399 . S
C1102 C1103 1.376 . S
C1103 H1090 0.930 . S
C1103 C1102 1.376 . S
C1103 C1104 1.388 . S
C1104 H1091 0.930 . S
C1104 C1103 1.388 . S
C1104 C1105 1.390 . S
C1105 C1104 1.390 . S
C1105 C1106 1.394 . S
C1105 C1111 1.465 . S
C1106 C1101 1.399 . S
C1106 C1105 1.394 . S
C1106 C1107 1.516 . S
C1107 C1106 1.516 . S
C1107 C1108 1.502 . S
C1107 C1109 1.561 . S
C1107 C1110 1.526 . S
C1108 H1092 0.959 . S
C1108 H1093 0.959 1_455 S
C1108 H1094 0.961 . S
C1108 C1107 1.502 . S
C1109 H1095 0.960 . S
C1109 H1096 0.961 . S
C1109 H1097 0.959 . S
C1109 C1107 1.561 . S
C1110 C1107 1.526 . S
C1110 C1111 1.396 . S
C1110 C1115 1.390 1_455 S
C1111 C1105 1.465 . S
C1111 C1110 1.396 . S
C1111 C1112 1.399 . S
C1112 H1098 0.929 . S
C1112 C1111 1.399 . S
C1112 C1113 1.385 . S
C1113 H1099 0.931 1_455 S
C1113 C1112 1.385 . S
C1113 C1114 1.389 1_455 S
C1114 C1113 1.389 1_655 S
C1114 C1115 1.387 . S
C1115 H1100 0.930 . S
C1115 C1110 1.390 1_655 S
C1115 C1114 1.387 . S
H1116 C1128 0.930 . S
H1117 C1130 0.930 . S
H1118 C1131 0.930 . S
H1119 C1135 0.959 . S
H1120 C1135 0.959 . S
H1121 C1135 0.961 . S
H1122 C1136 0.960 . S
H1123 C1136 0.961 . S
H1124 C1136 0.959 . S
H1125 C1139 0.929 . S
H1126 C1140 0.931 . S
H1127 C1142 0.930 . S
C1128 H1116 0.930 . S
C1128 C1129 1.399 . S
C1128 C1133 1.399 . S
C1129 C1128 1.399 . S
C1129 C1130 1.376 . S
C1130 H1117 0.930 . S
C1130 C1129 1.376 . S
C1130 C1131 1.388 . S
C1131 H1118 0.930 . S
C1131 C1130 1.388 . S
C1131 C1132 1.390 . S
C1132 C1131 1.390 . S
C1132 C1133 1.394 . S
C1132 C1138 1.465 . S
C1133 C1128 1.399 . S
C1133 C1132 1.394 . S
C1133 C1134 1.516 . S
C1134 C1133 1.516 . S
C1134 C1135 1.502 . S
C1134 C1136 1.561 . S
C1134 C1137 1.526 . S
C1135 H1119 0.959 . S
C1135 H1120 0.959 . S
C1135 H1121 0.961 . S
C1135 C1134 1.502 . S
C1136 H1122 0.960 . S
C1136 H1123 0.961 . S
C1136 H1124 0.959 . S
C1136 C1134 1.561 . S
C1137 C1134 1.526 . S
C1137 C1138 1.396 . S
C1137 C1142 1.390 . S
C1138 C1132 1.465 . S
C1138 C1137 1.396 . S
C1138 C1139 1.399 . S
C1139 H1125 0.929 . S
C1139 C1138 1.399 . S
C1139 C1140 1.385 . S
C1140 H1126 0.931 . S
C1140 C1139 1.385 . S
C1140 C1141 1.389 . S
C1141 C1140 1.389 . S
C1141 C1142 1.387 . S
C1142 H1127 0.930 . S
C1142 C1137 1.390 . S
C1142 C1141 1.387 . S
H1143 C1155 0.930 . S
H1144 C1157 0.930 . S
H1145 C1158 0.930 1_455 S
H1146 C1162 0.959 . S
H1147 C1162 0.959 1_455 S
H1148 C1162 0.961 . S
H1149 C1163 0.960 . S
H1150 C1163 0.961 . S
H1151 C1163 0.959 . S
H1152 C1166 0.929 . S
H1153 C1167 0.931 . S
H1154 C1169 0.930 . S
C1155 H1143 0.930 . S
C1155 C1156 1.399 . S
C1155 C1160 1.399 . S
C1156 C1155 1.399 . S
C1156 C1157 1.376 . S
C1157 H1144 0.930 . S
C1157 C1156 1.376 . S
C1157 C1158 1.388 . S
C1158 H1145 0.930 1_655 S
C1158 C1157 1.388 . S
C1158 C1159 1.390 1_655 S
C1159 C1158 1.390 1_455 S
C1159 C1160 1.394 1_455 S
C1159 C1165 1.465 . S
C1160 C1155 1.399 . S
C1160 C1159 1.394 1_655 S
C1160 C1161 1.516 1_655 S
C1161 C1160 1.516 1_455 S
C1161 C1162 1.502 1_455 S
C1161 C1163 1.561 . S
C1161 C1164 1.526 . S
C1162 H1146 0.959 . S
C1162 H1147 0.959 1_655 S
C1162 H1148 0.961 . S
C1162 C1161 1.502 1_655 S
C1163 H1149 0.960 . S
C1163 H1150 0.961 . S
C1163 H1151 0.959 . S
C1163 C1161 1.561 . S
C1164 C1161 1.526 . S
C1164 C1165 1.396 . S
C1164 C1169 1.390 . S
C1165 C1159 1.465 . S
C1165 C1164 1.396 . S
C1165 C1166 1.399 . S
C1166 H1152 0.929 . S
C1166 C1165 1.399 . S
C1166 C1167 1.385 . S
C1167 H1153 0.931 . S
C1167 C1166 1.385 . S
C1167 C1168 1.389 . S
C1168 C1167 1.389 . S
C1168 C1169 1.387 . S
C1169 H1154 0.930 . S
C1169 C1164 1.390 . S
C1169 C1168 1.387 . S
H1170 C1182 0.930 . S
H1171 C1184 0.930 . S
H1172 C1185 0.930 . S
H1173 C1189 0.959 . S
H1174 C1189 0.959 . S
H1175 C1189 0.961 . S
H1176 C1190 0.960 . S
H1177 C1190 0.961 . S
H1178 C1190 0.959 . S
H1179 C1193 0.929 . S
H1180 C1194 0.931 . S
H1181 C1196 0.930 . S
C1182 H1170 0.930 . S
C1182 C1183 1.399 . S
C1182 C1187 1.399 . S
C1183 C1182 1.399 . S
C1183 C1184 1.376 . S
C1184 H1171 0.930 . S
C1184 C1183 1.376 . S
C1184 C1185 1.388 . S
C1185 H1172 0.930 . S
C1185 C1184 1.388 . S
C1185 C1186 1.390 . S
C1186 C1185 1.390 . S
C1186 C1187 1.394 . S
C1186 C1192 1.465 . S
C1187 C1182 1.399 . S
C1187 C1186 1.394 . S
C1187 C1188 1.516 . S
C1188 C1187 1.516 . S
C1188 C1189 1.502 . S
C1188 C1190 1.561 . S
C1188 C1191 1.526 . S
C1189 H1173 0.959 . S
C1189 H1174 0.959 . S
C1189 H1175 0.961 . S
C1189 C1188 1.502 . S
C1190 H1176 0.960 . S
C1190 H1177 0.961 . S
C1190 H1178 0.959 . S
C1190 C1188 1.561 . S
C1191 C1188 1.526 . S
C1191 C1192 1.396 . S
C1191 C1196 1.390 . S
C1192 C1186 1.465 . S
C1192 C1191 1.396 . S
C1192 C1193 1.399 . S
C1193 H1179 0.929 . S
C1193 C1192 1.399 . S
C1193 C1194 1.385 . S
C1194 H1180 0.931 . S
C1194 C1193 1.385 . S
C1194 C1195 1.389 . S
C1195 C1194 1.389 . S
C1195 C1196 1.387 . S
C1196 H1181 0.930 . S
C1196 C1191 1.390 . S
C1196 C1195 1.387 . S
H1197 C1209 0.930 . S
H1198 C1211 0.930 . S
H1199 C1212 0.930 . S
H1200 C1216 0.959 . S
H1201 C1216 0.959 . S
H1202 C1216 0.961 . S
H1203 C1217 0.960 . S
H1204 C1217 0.961 . S
H1205 C1217 0.959 . S
H1206 C1220 0.929 . S
H1207 C1221 0.931 . S
H1208 C1223 0.930 . S
C1209 H1197 0.930 . S
C1209 C1210 1.399 . S
C1209 C1214 1.399 1_565 S
C1210 C1209 1.399 . S
C1210 C1211 1.376 . S
C1211 H1198 0.930 . S
C1211 C1210 1.376 . S
C1211 C1212 1.388 . S
C1212 H1199 0.930 . S
C1212 C1211 1.388 . S
C1212 C1213 1.390 . S
C1213 C1212 1.390 . S
C1213 C1214 1.394 1_565 S
C1213 C1219 1.465 1_565 S
C1214 C1209 1.399 1_545 S
C1214 C1213 1.394 1_545 S
C1214 C1215 1.516 . S
C1215 C1214 1.516 . S
C1215 C1216 1.502 . S
C1215 C1217 1.561 . S
C1215 C1218 1.526 . S
C1216 H1200 0.959 . S
C1216 H1201 0.959 . S
C1216 H1202 0.961 . S
C1216 C1215 1.502 . S
C1217 H1203 0.960 . S
C1217 H1204 0.961 . S
C1217 H1205 0.959 . S
C1217 C1215 1.561 . S
C1218 C1215 1.526 . S
C1218 C1219 1.396 . S
C1218 C1223 1.390 . S
C1219 C1213 1.465 1_545 S
C1219 C1218 1.396 . S
C1219 C1220 1.399 . S
C1220 H1206 0.929 . S
C1220 C1219 1.399 . S
C1220 C1221 1.385 . S
C1221 H1207 0.931 . S
C1221 C1220 1.385 . S
C1221 C1222 1.389 . S
C1222 C1221 1.389 . S
C1222 C1223 1.387 . S
C1223 H1208 0.930 . S
C1223 C1218 1.390 . S
C1223 C1222 1.387 . S
C265 C50 1.291 . S
C277 C6 1.374 . S
C292 C62 1.481 . S
C304 C20 1.498 . S
C319 C36 1.614 . S
C331 C78 1.518 . S
C346 C34 1.432 . S
C358 C76 1.375 . S
C373 C8 1.327 . S
C385 C48 1.361 . S
C400 C64 1.584 . S
C412 C22 1.430 . S
C427 C134 1.302 . S
C439 C90 1.315 . S
C454 C104 1.413 . S
C466 C146 1.374 . S
C481 C118 1.363 . S
C493 C162 1.288 . S
C508 C160 1.533 . S
C520 C120 1.505 . S
C535 C132 1.423 . S
C547 C92 1.351 . S
C562 C148 1.583 . S
C574 C106 1.605 . S
C589 C174 1.499 . S
C601 C218 1.479 . S
C616 C188 1.408 . S
C628 C230 1.460 . S
C643 C204 1.548 . S
C655 C246 1.504 . S
C670 C244 1.400 . S
C682 C202 1.376 . S
C697 C216 1.371 . S
C709 C176 1.346 . S
C724 C232 1.450 . S
C736 C190 1.527 . S
C751 C9 1.404 . S
C763 C105 1.443 . S
C778 C23 1.413 . S
C790 C119 1.405 . S
C805 C91 1.145 . S
C817 C35 1.119 . S
C832 C37 1.610 . S
C844 C191 1.629 1_554 S
C859 C203 1.047 . S
C871 C7 1.056 . S
C886 C177 1.483 . S
C898 C21 1.463 . S
C913 C231 1.087 . S
C925 C49 1.117 . S
C940 C65 1.482 . S
C952 C247 1.548 . S
C967 C219 1.407 . S
C979 C77 1.410 . S
C994 C149 1.525 1_556 S
C1006 C79 1.575 . S
C1021 C51 1.247 . S
C1033 C161 1.277 1_556 S
C1048 C63 1.052 . S
C1060 C133 1.010 1_556 S
C1075 C93 1.322 . S
C1087 C189 1.330 . S
C1102 C107 1.551 . S
C1114 C205 1.530 . S
C1129 C121 1.240 . S
C1141 C175 1.245 . S
C1156 C233 1.533 . S
C1168 C163 1.544 . S
C1183 C245 1.408 . S
C1195 C135 1.329 . S
C1210 C147 1.132 . S
C1222 C217 1.123 . S
