# Generated by pormake.
# Topology uov, (4)-cn, num edge types: 1
# Building blocks:
#     Node 0, Type 0, BuildingBlock: CEKHIL_clean_sbu_0, # of connection points: 4
#     Node 1, Type 0, BuildingBlock: CEKHIL_clean_sbu_0, # of connection points: 4
#     Node 2, Type 0, BuildingBlock: CEKHIL_clean_sbu_0, # of connection points: 4
#     Node 3, Type 0, BuildingBlock: CEKHIL_clean_sbu_0, # of connection points: 4
#     Node 4, Type 0, BuildingBlock: CEKHIL_clean_sbu_0, # of connection points: 4
#     Node 5, Type 0, BuildingBlock: CEKHIL_clean_sbu_0, # of connection points: 4
#     Node 6, Type 0, BuildingBlock: CEKHIL_clean_sbu_0, # of connection points: 4
#     Node 7, Type 0, BuildingBlock: CEKHIL_clean_sbu_0, # of connection points: 4
#     Edge 8, Type (0, 0), BuildingBlock: CIFDUS_clean_linker_0, # of connection points: 2
#     Edge 9, Type (0, 0), BuildingBlock: CIFDUS_clean_linker_0, # of connection points: 2
#     Edge 10, Type (0, 0), BuildingBlock: CIFDUS_clean_linker_0, # of connection points: 2
#     Edge 11, Type (0, 0), BuildingBlock: CIFDUS_clean_linker_0, # of connection points: 2
#     Edge 12, Type (0, 0), BuildingBlock: CIFDUS_clean_linker_0, # of connection points: 2
#     Edge 13, Type (0, 0), BuildingBlock: CIFDUS_clean_linker_0, # of connection points: 2
#     Edge 14, Type (0, 0), BuildingBlock: CIFDUS_clean_linker_0, # of connection points: 2
#     Edge 15, Type (0, 0), BuildingBlock: CIFDUS_clean_linker_0, # of connection points: 2
#     Edge 16, Type (0, 0), BuildingBlock: CIFDUS_clean_linker_0, # of connection points: 2
#     Edge 17, Type (0, 0), BuildingBlock: CIFDUS_clean_linker_0, # of connection points: 2
#     Edge 18, Type (0, 0), BuildingBlock: CIFDUS_clean_linker_0, # of connection points: 2
#     Edge 19, Type (0, 0), BuildingBlock: CIFDUS_clean_linker_0, # of connection points: 2
#     Edge 20, Type (0, 0), BuildingBlock: CIFDUS_clean_linker_0, # of connection points: 2
#     Edge 21, Type (0, 0), BuildingBlock: CIFDUS_clean_linker_0, # of connection points: 2
#     Edge 22, Type (0, 0), BuildingBlock: CIFDUS_clean_linker_0, # of connection points: 2
#     Edge 23, Type (0, 0), BuildingBlock: CIFDUS_clean_linker_0, # of connection points: 2
# Relax obj value: 0.153
# Max RMSD: 0.151
# Mean RMSD: 0.151
data_MOF--net-uov--node1-CEKHIL_clean_sbu_0--edge1-CIFDUS_clean_linker_0
_symmetry_space_group_name_H-M    P1
_symmetry_Int_Tables_number       1
_symmetry_cell_setting            triclinic
loop_
_symmetry_equiv_pos_as_xyz
'x, y, z'
_cell_length_a     26.058176
_cell_length_b     26.134379
_cell_length_c     36.650585
_cell_angle_alpha  89.975595
_cell_angle_beta   90.006551
_cell_angle_gamma 89.996528
loop_
_atom_site_label
_atom_site_type_symbol
_atom_site_fract_x
_atom_site_fract_y
_atom_site_fract_z
_atom_type_partial_charge
Co0 Co 0.04226 0.27643 0.60506 0.0
O1 O 0.0078 0.32829 0.63316 0.0
O2 O 0.08207 0.33901 0.60483 0.0
C3 C 0.9719 0.25105 0.57361 0.0
O4 O 0.08782 0.23271 0.57219 0.0
Co5 Co 0.01052 0.16159 0.61147 0.0
O6 O 0.04969 0.15594 0.56525 0.0
C7 C 0.07844 0.20807 0.66714 0.0
C8 C 0.04496 0.3587 0.62399 0.0
C9 C 0.08367 0.18879 0.55655 0.0
O10 O 0.08053 0.25058 0.64944 0.0
O11 O 0.05023 0.17012 0.65792 0.0
O12 O 0.9974 0.29132 0.56352 0.0
O13 O 0.98679 0.23064 0.60389 0.0
Co14 Co 0.27656 0.96626 0.38154 0.0
O15 O 0.32826 0.00221 0.35366 0.0
O16 O 0.34199 0.93227 0.3864 0.0
C17 C 0.24166 0.03676 0.40764 0.0
O18 O 0.23495 0.92022 0.41543 0.0
Co19 Co 0.15916 0.98496 0.37108 0.0
O20 O 0.1543 0.95062 0.4192 0.0
C21 C 0.21569 0.91776 0.31983 0.0
C22 C 0.36052 0.96846 0.36594 0.0
C23 C 0.19017 0.92138 0.4302 0.0
O24 O 0.25757 0.9215 0.33837 0.0
O25 O 0.17456 0.94247 0.3271 0.0
O26 O 0.28343 0.01685 0.42086 0.0
O27 O 0.22542 0.01639 0.37778 0.0
Co28 Co 0.97902 0.73679 0.61048 0.0
O29 O 0.00915 0.68598 0.64222 0.0
O30 O 0.94366 0.67246 0.60484 0.0
C31 C 0.05378 0.76798 0.58808 0.0
O32 O 0.93965 0.77739 0.57204 0.0
Co33 Co 0.99971 0.85368 0.61865 0.0
O34 O 0.97537 0.8555 0.56747 0.0
C35 C 0.91848 0.80386 0.66298 0.0
C36 C 0.97645 0.6541 0.62813 0.0
C37 C 0.94623 0.82028 0.55546 0.0
O38 O 0.92836 0.75948 0.64932 0.0
O39 O 0.94337 0.84458 0.65506 0.0
O40 O 0.03444 0.72583 0.5753 0.0
O41 O 0.03044 0.78659 0.61616 0.0
Co42 Co 0.73771 0.02926 0.3915 0.0
O43 O 0.68741 0.00103 0.35866 0.0
O44 O 0.67635 0.07117 0.39154 0.0
C45 C 0.75707 0.95433 0.4193 0.0
O46 O 0.77945 0.06803 0.42996 0.0
Co47 Co 0.852 0.99382 0.39058 0.0
O48 O 0.85183 0.02327 0.44032 0.0
C49 C 0.81673 0.0752 0.33983 0.0
C50 C 0.65702 0.03734 0.36942 0.0
C51 C 0.81991 0.05808 0.44892 0.0
O52 O 0.77009 0.07212 0.35144 0.0
O53 O 0.85335 0.04672 0.3512 0.0
O54 O 0.71655 0.97998 0.42873 0.0
O55 O 0.78136 0.97205 0.39131 0.0
Co56 Co 0.96959 0.27445 0.10735 0.0
O57 O 0.00492 0.32459 0.13676 0.0
O58 O 0.93105 0.3376 0.10835 0.0
C59 C 0.03955 0.24858 0.07564 0.0
O60 O 0.92298 0.23385 0.07323 0.0
Co61 Co 0.99723 0.15841 0.1096 0.0
O62 O 0.9596 0.15733 0.06259 0.0
C63 C 0.92724 0.20241 0.16521 0.0
C64 C 0.96821 0.35591 0.1281 0.0
C65 C 0.92623 0.1915 0.05549 0.0
O66 O 0.93018 0.24733 0.15087 0.0
O67 O 0.95227 0.16345 0.15378 0.0
O68 O 0.01529 0.29002 0.06641 0.0
O69 O 0.02372 0.22707 0.10529 0.0
Co70 Co 0.26571 0.02578 0.8898 0.0
O71 O 0.31623 0.99919 0.85644 0.0
O72 O 0.32624 0.06886 0.88999 0.0
C73 C 0.24835 0.94958 0.91665 0.0
O74 O 0.22378 0.06304 0.92884 0.0
Co75 Co 0.15226 0.98712 0.89027 0.0
O76 O 0.15255 0.01685 0.93998 0.0
C77 C 0.18441 0.0704 0.83958 0.0
C78 C 0.34607 0.03572 0.86758 0.0
C79 C 0.18385 0.05243 0.94816 0.0
O80 O 0.23153 0.06879 0.85047 0.0
O81 O 0.14932 0.04014 0.8511 0.0
O82 O 0.28824 0.97595 0.92644 0.0
O83 O 0.22341 0.96771 0.88915 0.0
Co84 Co 0.02434 0.73067 0.10434 0.0
O85 O 0.99645 0.68242 0.13892 0.0
O86 O 0.06572 0.66935 0.10519 0.0
C87 C 0.94865 0.75005 0.077 0.0
O88 O 0.06287 0.76905 0.06436 0.0
Co89 Co 0.99081 0.8452 0.10179 0.0
O90 O 0.01988 0.84165 0.05192 0.0
C91 C 0.07445 0.81188 0.15185 0.0
C92 C 0.03246 0.65145 0.12835 0.0
C93 C 0.05383 0.80836 0.04423 0.0
O94 O 0.06947 0.76449 0.14257 0.0
O95 O 0.04593 0.84793 0.13963 0.0
O96 O 0.9733 0.7086 0.06842 0.0
O97 O 0.96769 0.77531 0.10406 0.0
Co98 Co 0.72726 0.9728 0.8868 0.0
O99 O 0.67572 0.00369 0.85584 0.0
O100 O 0.6621 0.93888 0.89359 0.0
C101 C 0.76085 0.04707 0.90791 0.0
O102 O 0.76876 0.93286 0.92463 0.0
Co103 Co 0.84464 0.99134 0.87629 0.0
O104 O 0.84833 0.96621 0.92721 0.0
C105 C 0.79093 0.91337 0.83157 0.0
C106 C 0.64359 0.97161 0.87033 0.0
C107 C 0.81285 0.938 0.94005 0.0
O108 O 0.74764 0.92199 0.84749 0.0
O109 O 0.83219 0.93821 0.83816 0.0
O110 O 0.71892 0.02873 0.92198 0.0
O111 O 0.77787 0.02283 0.87977 0.0
H112 H 0.06328 0.59877 0.63645 0.0
H113 H 0.89855 0.58511 0.63215 0.0
H114 H 0.90561 0.49174 0.63504 0.0
H115 H 0.95875 0.41431 0.63323 0.0
H116 H 0.12359 0.42762 0.62954 0.0
H117 H 0.11668 0.52082 0.63551 0.0
C118 C 0.02898 0.57524 0.63688 0.0
C119 C 0.98042 0.59852 0.63453 0.0
C120 C 0.03352 0.52162 0.63675 0.0
C121 C 0.93625 0.56784 0.63415 0.0
C122 C 0.94032 0.51456 0.63568 0.0
C123 C 0.9932 0.43757 0.63435 0.0
C124 C 0.04165 0.41423 0.63123 0.0
C125 C 0.98877 0.49105 0.63619 0.0
C126 C 0.08591 0.44482 0.63197 0.0
C127 C 0.08193 0.49803 0.63532 0.0
H128 H 0.60113 0.95249 0.35651 0.0
H129 H 0.58775 0.11616 0.36757 0.0
H130 H 0.49405 0.10953 0.36299 0.0
H131 H 0.41578 0.05611 0.36128 0.0
H132 H 0.43018 0.89184 0.35827 0.0
H133 H 0.52361 0.89953 0.35403 0.0
C134 C 0.57776 0.98683 0.35719 0.0
C135 C 0.60127 0.03485 0.36195 0.0
C136 C 0.52405 0.98239 0.35631 0.0
C137 C 0.57047 0.07886 0.3637 0.0
C138 C 0.51695 0.075 0.36122 0.0
C139 C 0.43946 0.02211 0.35907 0.0
C140 C 0.41631 0.97345 0.35976 0.0
C141 C 0.49327 0.02685 0.35829 0.0
C142 C 0.44727 0.92962 0.35771 0.0
C143 C 0.50062 0.93404 0.35533 0.0
H144 H 0.05464 0.4121 0.13628 0.0
H145 H 0.88959 0.42357 0.13703 0.0
H146 H 0.89562 0.5167 0.14304 0.0
H147 H 0.94766 0.59505 0.14137 0.0
H148 H 0.11225 0.58399 0.13252 0.0
H149 H 0.10689 0.49057 0.13688 0.0
C150 C 0.02004 0.43498 0.13849 0.0
C151 C 0.9717 0.41113 0.13643 0.0
C152 C 0.02387 0.48858 0.14026 0.0
C153 C 0.92716 0.44117 0.13859 0.0
C154 C 0.93064 0.49436 0.14195 0.0
C155 C 0.98242 0.5722 0.14127 0.0
C156 C 0.03036 0.59626 0.13699 0.0
C157 C 0.97876 0.51856 0.1419 0.0
C158 C 0.075 0.56623 0.13599 0.0
C159 C 0.07188 0.51288 0.1383 0.0
H160 H 0.40346 0.95099 0.85887 0.0
H161 H 0.41407 0.11545 0.86317 0.0
H162 H 0.508 0.10996 0.85983 0.0
H163 H 0.58714 0.05772 0.86117 0.0
H164 H 0.5753 0.89334 0.86554 0.0
H165 H 0.48185 0.89914 0.85982 0.0
C166 C 0.42632 0.98568 0.85831 0.0
C167 C 0.40197 0.03363 0.86073 0.0
C168 C 0.4801 0.98202 0.8583 0.0
C169 C 0.43203 0.07819 0.86103 0.0
C170 C 0.48566 0.07499 0.85927 0.0
C171 C 0.56401 0.02324 0.86025 0.0
C172 C 0.58787 0.97511 0.86339 0.0
C173 C 0.51015 0.02705 0.85868 0.0
C174 C 0.55763 0.9307 0.86304 0.0
C175 C 0.50429 0.93406 0.85982 0.0
H176 H 0.26585 0.0896 0.46979 0.0
H177 H 0.14344 0.06449 0.39242 0.0
H178 H 0.08445 0.11235 0.43067 0.0
H179 H 0.06517 0.15446 0.48883 0.0
H180 H 0.18734 0.18618 0.5646 0.0
H181 H 0.24908 0.1436 0.52412 0.0
C182 C 0.22644 0.09517 0.46116 0.0
C183 C 0.20882 0.07217 0.4288 0.0
C184 C 0.19265 0.12399 0.48299 0.0
C185 C 0.1579 0.08065 0.41758 0.0
C186 C 0.12398 0.10821 0.43939 0.0
C187 C 0.10556 0.15291 0.49597 0.0
C188 C 0.12199 0.17302 0.52941 0.0
C189 C 0.1406 0.12895 0.47253 0.0
C190 C 0.17421 0.17115 0.53867 0.0
C191 C 0.20932 0.14647 0.51573 0.0
H192 H 0.16269 0.94222 0.49936 0.0
H193 H 0.18793 0.81816 0.42423 0.0
H194 H 0.15145 0.75738 0.46819 0.0
H195 H 0.10367 0.7419 0.52532 0.0
H196 H 0.08423 0.86582 0.60193 0.0
H197 H 0.12784 0.92411 0.56045 0.0
C198 C 0.16111 0.90166 0.49312 0.0
C199 C 0.17753 0.88432 0.45888 0.0
C200 C 0.14076 0.86711 0.51861 0.0
C201 C 0.17563 0.83193 0.4507 0.0
C202 C 0.15453 0.79737 0.47569 0.0
C203 C 0.10981 0.78143 0.5332 0.0
C204 C 0.08935 0.79976 0.56621 0.0
C205 C 0.13569 0.81478 0.50936 0.0
C206 C 0.09851 0.85086 0.57634 0.0
C207 C 0.12347 0.88436 0.55261 0.0
H208 H 0.85165 0.91201 0.41343 0.0
H209 H 0.71654 0.91303 0.48147 0.0
H210 H 0.76191 0.86328 0.52791 0.0
H211 H 0.84356 0.83008 0.55255 0.0
H212 H 0.98082 0.83994 0.48748 0.0
H213 H 0.93136 0.87487 0.43636 0.0
C214 C 0.83188 0.90096 0.43823 0.0
C215 C 0.78108 0.91693 0.44427 0.0
C216 C 0.8589 0.8746 0.46543 0.0
C217 C 0.75583 0.9016 0.47634 0.0
C218 C 0.78181 0.87334 0.50295 0.0
C219 C 0.86208 0.83874 0.52676 0.0
C220 C 0.91527 0.83213 0.52323 0.0
C221 C 0.83384 0.86114 0.4983 0.0
C222 C 0.93966 0.84447 0.49031 0.0
C223 C 0.91149 0.86461 0.46129 0.0
H224 H 0.83655 0.15993 0.44665 0.0
H225 H 0.83965 0.02923 0.51824 0.0
H226 H 0.88229 0.08 0.56547 0.0
H227 H 0.92751 0.15816 0.58324 0.0
H228 H 0.93249 0.28658 0.50932 0.0
H229 H 0.87768 0.24053 0.46622 0.0
C230 C 0.84526 0.14328 0.47307 0.0
C231 C 0.83446 0.09142 0.47945 0.0
C232 C 0.87205 0.17204 0.49931 0.0
C233 C 0.84715 0.0694 0.51317 0.0
C234 C 0.87186 0.09827 0.53996 0.0
C235 C 0.91621 0.17633 0.55788 0.0
C236 C 0.93448 0.22551 0.54933 0.0
C237 C 0.88597 0.1491 0.53286 0.0
C238 C 0.91926 0.24857 0.51642 0.0
C239 C 0.88792 0.22226 0.49176 0.0
H240 H 0.73917 0.09984 0.9705 0.0
H241 H 0.85739 0.07697 0.88958 0.0
H242 H 0.91849 0.12347 0.92712 0.0
H243 H 0.94123 0.16175 0.98611 0.0
H244 H 0.82311 0.19042 0.06565 0.0
H245 H 0.75889 0.15134 0.02539 0.0
C246 C 0.77804 0.10582 0.96084 0.0
C247 C 0.79402 0.0836 0.92779 0.0
C248 C 0.81309 0.13348 0.98239 0.0
C249 C 0.84427 0.09255 0.91531 0.0
C250 C 0.87939 0.11924 0.93674 0.0
C251 C 0.90116 0.16042 0.99411 0.0
C252 C 0.88661 0.17849 0.02857 0.0
C253 C 0.86466 0.13843 0.97079 0.0
C254 C 0.83479 0.17693 0.03895 0.0
C255 C 0.79827 0.15425 0.01611 0.0
H256 H 0.16823 0.15458 0.94613 0.0
H257 H 0.16386 0.02363 0.01749 0.0
H258 H 0.12384 0.07526 0.06539 0.0
H259 H 0.08182 0.15461 0.08418 0.0
H260 H 0.07777 0.28356 0.01071 0.0
H261 H 0.12963 0.23615 0.96648 0.0
C262 C 0.15969 0.13798 0.97258 0.0
C263 C 0.16944 0.08581 0.97873 0.0
C264 C 0.13446 0.16732 -0.00072 0.0
C265 C 0.15705 0.06395 0.01255 0.0
C266 C 0.13391 0.09334 0.03975 0.0
C267 C 0.09265 0.1726 0.05865 0.0
C268 C 0.07554 0.22238 0.0506 0.0
C269 C 0.12107 0.14461 0.03301 0.0
C270 C 0.09019 0.24516 0.01747 0.0
C271 C 0.1198 0.21805 0.99216 0.0
H272 H 0.15595 0.82343 0.04685 0.0
H273 H 0.02636 0.82198 0.97387 0.0
H274 H 0.07932 0.85805 0.92504 0.0
H275 H 0.15842 0.90025 0.90624 0.0
H276 H 0.28503 0.91257 0.98161 0.0
H277 H 0.238 0.86095 0.02621 0.0
C278 C 0.14 0.82975 0.01986 0.0
C279 C 0.08784 0.81973 0.01347 0.0
C280 C 0.16999 0.85297 0.99266 0.0
C281 C 0.0667 0.82913 0.97895 0.0
C282 C 0.09684 0.84997 0.95124 0.0
C283 C 0.17607 0.89121 0.93225 0.0
C284 C 0.22478 0.91093 0.94086 0.0
C285 C 0.14796 0.86368 0.95822 0.0
C286 C 0.24738 0.89818 0.97445 0.0
C287 C 0.22041 0.86887 1e-05 0.0
H288 H 0.82391 0.83552 0.94312 0.0
H289 H 0.83296 0.97267 0.00789 0.0
H290 H 0.86888 0.92387 0.05894 0.0
H291 H 0.90656 0.84466 0.08211 0.0
H292 H 0.90751 0.70934 0.01472 0.0
H293 H 0.85776 0.7543 0.96803 0.0
C294 C 0.83261 0.85416 0.96883 0.0
C295 C 0.82537 0.90717 0.97228 0.0
C296 C 0.85544 0.82624 -0.00266 0.0
C297 C 0.83785 0.93167 0.0051 0.0
C298 C 0.85859 0.90386 0.0341 0.0
C299 C 0.89552 0.82475 0.0574 0.0
C300 C 0.91141 0.77394 0.05168 0.0
C301 C 0.86895 0.85146 0.0301 0.0
C302 C 0.8961 0.74858 0.01968 0.0
C303 C 0.86783 0.77434 0.9929 0.0
H304 H 0.05117 0.20698 0.73756 0.0
H305 H 0.18014 0.18668 0.66581 0.0
H306 H 0.22971 0.14741 0.71544 0.0
H307 H 0.22996 0.10581 0.77661 0.0
H308 H 0.0984 0.12557 0.84663 0.0
H309 H 0.05683 0.17888 0.80101 0.0
C310 C 0.0908 0.19565 0.73334 0.0
C311 C 0.11236 0.19987 0.69854 0.0
C312 C 0.11834 0.17223 0.76165 0.0
C313 C 0.16331 0.18435 0.6928 0.0
C314 C 0.19136 0.1614 0.72102 0.0
C315 C 0.19289 0.12301 0.78208 0.0
C316 C 0.16678 0.11099 0.81452 0.0
C317 C 0.16846 0.15315 0.75522 0.0
C318 C 0.11874 0.13352 0.82146 0.0
C319 C 0.09487 0.16403 0.79542 0.0
H320 H 0.11029 0.76649 0.21471 0.0
H321 H 0.1341 0.89437 0.14221 0.0
H322 H 0.19213 0.93385 0.18585 0.0
H323 H 0.22173 0.94045 0.24887 0.0
H324 H 0.19513 0.8164 0.32359 0.0
H325 H 0.15404 0.76645 0.27507 0.0
C326 C 0.12934 0.80226 0.20825 0.0
C327 C 0.11705 0.82813 0.17577 0.0
C328 C 0.16206 0.82561 0.23404 0.0
C329 C 0.14209 0.87438 0.1675 0.0
C330 C 0.17539 0.89699 0.19238 0.0
C331 C 0.20911 0.9015 0.25391 0.0
C332 C 0.21185 0.88168 0.28932 0.0
C333 C 0.18372 0.8742 0.22637 0.0
C334 C 0.19423 0.8318 0.29614 0.0
C335 C 0.16998 0.80365 0.26856 0.0
H336 H 0.90525 0.76438 0.73101 0.0
H337 H 0.83555 0.86193 0.65031 0.0
H338 H 0.7775 0.89722 0.69611 0.0
H339 H 0.76177 0.91459 0.76103 0.0
H340 H 0.83628 0.82219 0.84249 0.0
H341 H 0.87601 0.76974 0.79502 0.0
C342 C 0.87583 0.79173 0.72337 0.0
C343 C 0.87453 0.81083 0.68762 0.0
C344 C 0.84387 0.81333 0.75025 0.0
C345 C 0.83698 0.84687 0.67785 0.0
C346 C 0.80406 0.8673 0.70406 0.0
C347 C 0.78463 0.88136 0.76819 0.0
C348 C 0.79596 0.87179 0.80492 0.0
C349 C 0.80917 0.85295 0.7407 0.0
C350 C 0.82668 0.8296 0.8142 0.0
C351 C 0.84993 0.80007 0.78707 0.0
H352 H 0.7772 0.0932 0.27207 0.0
H353 H 0.89088 0.14518 0.34894 0.0
H354 H 0.93067 0.1985 0.30216 0.0
H355 H 0.94218 0.21809 0.23712 0.0
H356 H 0.83288 0.16141 0.15898 0.0
H357 H 0.78193 0.12297 0.20803 0.0
C358 C 0.80965 0.11751 0.27864 0.0
C359 C 0.83137 0.11531 0.31363 0.0
C360 C 0.83351 0.14678 0.25116 0.0
C361 C 0.87384 0.1463 0.32197 0.0
C362 C 0.89671 0.17661 0.29524 0.0
C363 C 0.90619 0.19892 0.23119 0.0
C364 C 0.89071 0.19286 0.19489 0.0
C365 C 0.87825 0.17545 0.25939 0.0
C366 C 0.84485 0.16694 0.18703 0.0
C367 C 0.81604 0.1446 0.215 0.0
loop_
_geom_bond_atom_site_label_1
_geom_bond_atom_site_label_2
_geom_bond_distance
_geom_bond_site_symmetry_2
_ccdc_geom_bond_type
Co0 O1 2.216 . S
Co0 O2 2.091 . S
Co0 O4 2.004 . S
Co0 O10 2.021 . S
Co0 O12 2.137 . S
Co0 O13 2.244 . S
O1 Co0 2.216 . S
O1 C8 1.247 . S
O2 Co0 2.091 . S
O2 C8 1.261 . S
C3 O12 1.247 . S
C3 O13 1.272 . S
O4 Co0 2.004 . S
O4 C9 1.259 . S
Co5 O6 2.061 . S
Co5 O11 2.052 . S
Co5 O13 2.135 . S
O6 Co5 2.061 . S
O6 C9 1.235 . S
C7 O10 1.238 . S
C7 O11 1.241 . S
C8 O1 1.247 . S
C8 O2 1.261 . S
C9 O4 1.259 . S
C9 O6 1.235 . S
O10 Co0 2.021 . S
O10 C7 1.238 . S
O11 Co5 2.052 . S
O11 C7 1.241 . S
O12 Co0 2.137 . S
O12 C3 1.247 . S
O13 Co0 2.244 . S
O13 C3 1.272 . S
O13 Co5 2.135 . S
Co14 O15 2.216 . S
Co14 O16 2.091 . S
Co14 O18 2.004 . S
Co14 O24 2.021 . S
Co14 O26 2.137 . S
Co14 O27 2.244 . S
O15 Co14 2.216 . S
O15 C22 1.247 . S
O16 Co14 2.091 . S
O16 C22 1.261 . S
C17 O26 1.247 . S
C17 O27 1.272 . S
O18 Co14 2.004 . S
O18 C23 1.259 . S
Co19 O20 2.061 . S
Co19 O25 2.052 . S
Co19 O27 2.135 . S
O20 Co19 2.061 . S
O20 C23 1.235 . S
C21 O24 1.238 . S
C21 O25 1.241 . S
C22 O15 1.247 . S
C22 O16 1.261 . S
C23 O18 1.259 . S
C23 O20 1.235 . S
O24 Co14 2.021 . S
O24 C21 1.238 . S
O25 Co19 2.052 . S
O25 C21 1.241 . S
O26 Co14 2.137 . S
O26 C17 1.247 . S
O27 Co14 2.244 . S
O27 C17 1.272 . S
O27 Co19 2.135 . S
Co28 O29 2.216 . S
Co28 O30 2.091 . S
Co28 O32 2.004 . S
Co28 O38 2.021 . S
Co28 O40 2.137 . S
Co28 O41 2.244 . S
O29 Co28 2.216 . S
O29 C36 1.247 . S
O30 Co28 2.091 . S
O30 C36 1.261 . S
C31 O40 1.247 . S
C31 O41 1.272 . S
O32 Co28 2.004 . S
O32 C37 1.259 . S
Co33 O34 2.061 . S
Co33 O39 2.052 . S
Co33 O41 2.135 . S
O34 Co33 2.061 . S
O34 C37 1.235 . S
C35 O38 1.238 . S
C35 O39 1.241 . S
C36 O29 1.247 . S
C36 O30 1.261 . S
C37 O32 1.259 . S
C37 O34 1.235 . S
O38 Co28 2.021 . S
O38 C35 1.238 . S
O39 Co33 2.052 . S
O39 C35 1.241 . S
O40 Co28 2.137 . S
O40 C31 1.247 . S
O41 Co28 2.244 . S
O41 C31 1.272 . S
O41 Co33 2.135 . S
Co42 O43 2.216 . S
Co42 O44 2.091 . S
Co42 O46 2.004 . S
Co42 O52 2.021 . S
Co42 O54 2.137 . S
Co42 O55 2.244 . S
O43 Co42 2.216 . S
O43 C50 1.247 . S
O44 Co42 2.091 . S
O44 C50 1.261 . S
C45 O54 1.247 . S
C45 O55 1.272 . S
O46 Co42 2.004 . S
O46 C51 1.259 . S
Co47 O48 2.061 . S
Co47 O53 2.052 . S
Co47 O55 2.135 . S
O48 Co47 2.061 . S
O48 C51 1.235 . S
C49 O52 1.238 . S
C49 O53 1.241 . S
C50 O43 1.247 . S
C50 O44 1.261 . S
C51 O46 1.259 . S
C51 O48 1.235 . S
O52 Co42 2.021 . S
O52 C49 1.238 . S
O53 Co47 2.052 . S
O53 C49 1.241 . S
O54 Co42 2.137 . S
O54 C45 1.247 . S
O55 Co42 2.244 . S
O55 C45 1.272 . S
O55 Co47 2.135 . S
Co56 O57 2.216 . S
Co56 O58 2.091 . S
Co56 O60 2.004 . S
Co56 O66 2.021 . S
Co56 O68 2.137 . S
Co56 O69 2.244 . S
O57 Co56 2.216 . S
O57 C64 1.247 . S
O58 Co56 2.091 . S
O58 C64 1.261 . S
C59 O68 1.247 . S
C59 O69 1.272 . S
O60 Co56 2.004 . S
O60 C65 1.259 . S
Co61 O62 2.061 . S
Co61 O67 2.052 . S
Co61 O69 2.135 . S
O62 Co61 2.061 . S
O62 C65 1.235 . S
C63 O66 1.238 . S
C63 O67 1.241 . S
C64 O57 1.247 . S
C64 O58 1.261 . S
C65 O60 1.259 . S
C65 O62 1.235 . S
O66 Co56 2.021 . S
O66 C63 1.238 . S
O67 Co61 2.052 . S
O67 C63 1.241 . S
O68 Co56 2.137 . S
O68 C59 1.247 . S
O69 Co56 2.244 . S
O69 C59 1.272 . S
O69 Co61 2.135 . S
Co70 O71 2.216 . S
Co70 O72 2.091 . S
Co70 O74 2.004 . S
Co70 O80 2.021 . S
Co70 O82 2.137 . S
Co70 O83 2.244 . S
O71 Co70 2.216 . S
O71 C78 1.247 . S
O72 Co70 2.091 . S
O72 C78 1.261 . S
C73 O82 1.247 . S
C73 O83 1.272 . S
O74 Co70 2.004 . S
O74 C79 1.259 . S
Co75 O76 2.061 . S
Co75 O81 2.052 . S
Co75 O83 2.135 . S
O76 Co75 2.061 . S
O76 C79 1.235 . S
C77 O80 1.238 . S
C77 O81 1.241 . S
C78 O71 1.247 . S
C78 O72 1.261 . S
C79 O74 1.259 . S
C79 O76 1.235 . S
O80 Co70 2.021 . S
O80 C77 1.238 . S
O81 Co75 2.052 . S
O81 C77 1.241 . S
O82 Co70 2.137 . S
O82 C73 1.247 . S
O83 Co70 2.244 . S
O83 C73 1.272 . S
O83 Co75 2.135 . S
Co84 O85 2.216 . S
Co84 O86 2.091 . S
Co84 O88 2.004 . S
Co84 O94 2.021 . S
Co84 O96 2.137 . S
Co84 O97 2.244 . S
O85 Co84 2.216 . S
O85 C92 1.247 . S
O86 Co84 2.091 . S
O86 C92 1.261 . S
C87 O96 1.247 . S
C87 O97 1.272 . S
O88 Co84 2.004 . S
O88 C93 1.259 . S
Co89 O90 2.061 . S
Co89 O95 2.052 . S
Co89 O97 2.135 . S
O90 Co89 2.061 . S
O90 C93 1.235 . S
C91 O94 1.238 . S
C91 O95 1.241 . S
C92 O85 1.247 . S
C92 O86 1.261 . S
C93 O88 1.259 . S
C93 O90 1.235 . S
O94 Co84 2.021 . S
O94 C91 1.238 . S
O95 Co89 2.052 . S
O95 C91 1.241 . S
O96 Co84 2.137 . S
O96 C87 1.247 . S
O97 Co84 2.244 . S
O97 C87 1.272 . S
O97 Co89 2.135 . S
Co98 O99 2.216 . S
Co98 O100 2.091 . S
Co98 O102 2.004 . S
Co98 O108 2.021 . S
Co98 O110 2.137 . S
Co98 O111 2.244 . S
O99 Co98 2.216 . S
O99 C106 1.247 . S
O100 Co98 2.091 . S
O100 C106 1.261 . S
C101 O110 1.247 . S
C101 O111 1.272 . S
O102 Co98 2.004 . S
O102 C107 1.259 . S
Co103 O104 2.061 . S
Co103 O109 2.052 . S
Co103 O111 2.135 . S
O104 Co103 2.061 . S
O104 C107 1.235 . S
C105 O108 1.238 . S
C105 O109 1.241 . S
C106 O99 1.247 . S
C106 O100 1.261 . S
C107 O102 1.259 . S
C107 O104 1.235 . S
O108 Co98 2.021 . S
O108 C105 1.238 . S
O109 Co103 2.052 . S
O109 C105 1.241 . S
O110 Co98 2.137 . S
O110 C101 1.247 . S
O111 Co98 2.244 . S
O111 C101 1.272 . S
O111 Co103 2.135 . S
H112 C118 0.930 . S
H113 C121 0.930 . S
H114 C122 0.930 . S
H115 C123 0.930 . S
H116 C126 0.930 . S
H117 C127 0.930 . S
C118 H112 0.930 . S
C118 C119 1.355 . S
C118 C120 1.415 . S
C119 C118 1.355 . S
C119 C121 1.419 . S
C120 C118 1.415 . S
C120 C125 1.425 1_655 S
C120 C127 1.409 1_655 S
C121 H113 0.930 . S
C121 C119 1.419 . S
C121 C122 1.362 . S
C122 H114 0.930 . S
C122 C121 1.362 . S
C122 C125 1.409 1_655 S
C123 H115 0.930 . S
C123 C124 1.355 . S
C123 C125 1.415 . S
C124 C123 1.355 . S
C124 C126 1.419 . S
C125 C120 1.425 1_455 S
C125 C122 1.409 1_455 S
C125 C123 1.415 . S
C126 H116 0.930 . S
C126 C124 1.419 . S
C126 C127 1.362 . S
C127 H117 0.930 . S
C127 C120 1.409 1_455 S
C127 C126 1.362 . S
H128 C134 0.930 . S
H129 C137 0.930 . S
H130 C138 0.930 . S
H131 C139 0.930 . S
H132 C142 0.930 . S
H133 C143 0.930 . S
C134 H128 0.930 . S
C134 C135 1.355 . S
C134 C136 1.415 1_545 S
C135 C134 1.355 . S
C135 C137 1.419 . S
C136 C134 1.415 1_565 S
C136 C141 1.425 1_565 S
C136 C143 1.409 . S
C137 H129 0.930 . S
C137 C135 1.419 . S
C137 C138 1.362 . S
C138 H130 0.930 . S
C138 C137 1.362 . S
C138 C141 1.409 . S
C139 H131 0.930 . S
C139 C140 1.355 . S
C139 C141 1.415 1_565 S
C140 C139 1.355 . S
C140 C142 1.419 . S
C141 C136 1.425 1_545 S
C141 C138 1.409 . S
C141 C139 1.415 1_545 S
C142 H132 0.930 . S
C142 C140 1.419 . S
C142 C143 1.362 . S
C143 H133 0.930 . S
C143 C136 1.409 . S
C143 C142 1.362 . S
H144 C150 0.930 . S
H145 C153 0.930 . S
H146 C154 0.930 . S
H147 C155 0.930 . S
H148 C158 0.930 . S
H149 C159 0.930 . S
C150 H144 0.930 . S
C150 C151 1.355 . S
C150 C152 1.415 . S
C151 C150 1.355 . S
C151 C153 1.419 . S
C152 C150 1.415 . S
C152 C157 1.425 1_655 S
C152 C159 1.409 1_655 S
C153 H145 0.930 . S
C153 C151 1.419 . S
C153 C154 1.362 . S
C154 H146 0.930 . S
C154 C153 1.362 . S
C154 C157 1.409 1_655 S
C155 H147 0.930 . S
C155 C156 1.355 . S
C155 C157 1.415 . S
C156 C155 1.355 . S
C156 C158 1.419 . S
C157 C152 1.425 1_455 S
C157 C154 1.409 1_455 S
C157 C155 1.415 . S
C158 H148 0.930 . S
C158 C156 1.419 . S
C158 C159 1.362 . S
C159 H149 0.930 . S
C159 C152 1.409 1_455 S
C159 C158 1.362 . S
H160 C166 0.930 . S
H161 C169 0.930 . S
H162 C170 0.930 . S
H163 C171 0.930 . S
H164 C174 0.930 . S
H165 C175 0.930 . S
C166 H160 0.930 . S
C166 C167 1.355 . S
C166 C168 1.415 . S
C167 C166 1.355 . S
C167 C169 1.419 . S
C168 C166 1.415 . S
C168 C173 1.425 1_545 S
C168 C175 1.409 1_545 S
C169 H161 0.930 . S
C169 C167 1.419 . S
C169 C170 1.362 . S
C170 H162 0.930 . S
C170 C169 1.362 . S
C170 C173 1.409 1_545 S
C171 H163 0.930 . S
C171 C172 1.355 . S
C171 C173 1.415 . S
C172 C171 1.355 . S
C172 C174 1.419 . S
C173 C168 1.425 1_565 S
C173 C170 1.409 1_565 S
C173 C171 1.415 . S
C174 H164 0.930 . S
C174 C172 1.419 . S
C174 C175 1.362 . S
C175 H165 0.930 . S
C175 C168 1.409 1_565 S
C175 C174 1.362 . S
H176 C182 0.930 . S
H177 C185 0.930 . S
H178 C186 0.930 . S
H179 C187 0.930 . S
H180 C190 0.930 . S
H181 C191 0.930 . S
C182 H176 0.930 . S
C182 C183 1.355 . S
C182 C184 1.415 . S
C183 C182 1.355 . S
C183 C185 1.419 . S
C184 C182 1.415 . S
C184 C189 1.425 . S
C184 C191 1.409 . S
C185 H177 0.930 . S
C185 C183 1.419 . S
C185 C186 1.362 . S
C186 H178 0.930 . S
C186 C185 1.362 . S
C186 C189 1.409 . S
C187 H179 0.930 . S
C187 C188 1.355 . S
C187 C189 1.415 . S
C188 C187 1.355 . S
C188 C190 1.419 . S
C189 C184 1.425 . S
C189 C186 1.409 . S
C189 C187 1.415 . S
C190 H180 0.930 . S
C190 C188 1.419 . S
C190 C191 1.362 . S
C191 H181 0.930 . S
C191 C184 1.409 . S
C191 C190 1.362 . S
H192 C198 0.930 . S
H193 C201 0.930 . S
H194 C202 0.930 . S
H195 C203 0.930 1_655 S
H196 C206 0.930 . S
H197 C207 0.930 . S
C198 H192 0.930 . S
C198 C199 1.355 . S
C198 C200 1.415 . S
C199 C198 1.355 . S
C199 C201 1.419 . S
C200 C198 1.415 . S
C200 C205 1.425 . S
C200 C207 1.409 . S
C201 H193 0.930 . S
C201 C199 1.419 . S
C201 C202 1.362 . S
C202 H194 0.930 . S
C202 C201 1.362 . S
C202 C205 1.409 . S
C203 H195 0.930 1_455 S
C203 C204 1.355 . S
C203 C205 1.415 . S
C204 C203 1.355 . S
C204 C206 1.419 . S
C205 C200 1.425 . S
C205 C202 1.409 . S
C205 C203 1.415 . S
C206 H196 0.930 . S
C206 C204 1.419 . S
C206 C207 1.362 . S
C207 H197 0.930 . S
C207 C200 1.409 . S
C207 C206 1.362 . S
H208 C214 0.930 . S
H209 C217 0.930 1_545 S
H210 C218 0.930 . S
H211 C219 0.930 . S
H212 C222 0.930 . S
H213 C223 0.930 . S
C214 H208 0.930 . S
C214 C215 1.355 . S
C214 C216 1.415 . S
C215 C214 1.355 . S
C215 C217 1.419 . S
C216 C214 1.415 . S
C216 C221 1.425 . S
C216 C223 1.409 . S
C217 H209 0.930 1_565 S
C217 C215 1.419 . S
C217 C218 1.362 . S
C218 H210 0.930 . S
C218 C217 1.362 . S
C218 C221 1.409 . S
C219 H211 0.930 . S
C219 C220 1.355 . S
C219 C221 1.415 . S
C220 C219 1.355 . S
C220 C222 1.419 . S
C221 C216 1.425 . S
C221 C218 1.409 . S
C221 C219 1.415 . S
C222 H212 0.930 . S
C222 C220 1.419 . S
C222 C223 1.362 . S
C223 H213 0.930 . S
C223 C216 1.409 . S
C223 C222 1.362 . S
H224 C230 0.930 . S
H225 C233 0.930 . S
H226 C234 0.930 . S
H227 C235 0.930 . S
H228 C238 0.930 . S
H229 C239 0.930 . S
C230 H224 0.930 . S
C230 C231 1.355 . S
C230 C232 1.415 . S
C231 C230 1.355 . S
C231 C233 1.419 . S
C232 C230 1.415 . S
C232 C237 1.425 . S
C232 C239 1.409 . S
C233 H225 0.930 . S
C233 C231 1.419 . S
C233 C234 1.362 . S
C234 H226 0.930 . S
C234 C233 1.362 . S
C234 C237 1.409 . S
C235 H227 0.930 . S
C235 C236 1.355 . S
C235 C237 1.415 . S
C236 C235 1.355 . S
C236 C238 1.419 . S
C237 C232 1.425 . S
C237 C234 1.409 . S
C237 C235 1.415 . S
C238 H228 0.930 . S
C238 C236 1.419 . S
C238 C239 1.362 . S
C239 H229 0.930 . S
C239 C232 1.409 . S
C239 C238 1.362 . S
H240 C246 0.930 . S
H241 C249 0.930 . S
H242 C250 0.930 . S
H243 C251 0.930 1_556 S
H244 C254 0.930 . S
H245 C255 0.930 . S
C246 H240 0.930 . S
C246 C247 1.355 . S
C246 C248 1.415 1_556 S
C247 C246 1.355 . S
C247 C249 1.419 . S
C248 C246 1.415 1_554 S
C248 C253 1.425 1_554 S
C248 C255 1.409 . S
C249 H241 0.930 . S
C249 C247 1.419 . S
C249 C250 1.362 . S
C250 H242 0.930 . S
C250 C249 1.362 . S
C250 C253 1.409 . S
C251 H243 0.930 1_554 S
C251 C252 1.355 . S
C251 C253 1.415 1_554 S
C252 C251 1.355 . S
C252 C254 1.419 . S
C253 C248 1.425 1_556 S
C253 C250 1.409 . S
C253 C251 1.415 1_556 S
C254 H244 0.930 . S
C254 C252 1.419 . S
C254 C255 1.362 . S
C255 H245 0.930 . S
C255 C248 1.409 . S
C255 C254 1.362 . S
H256 C262 0.930 . S
H257 C265 0.930 . S
H258 C266 0.930 . S
H259 C267 0.930 . S
H260 C270 0.930 1_655 S
H261 C271 0.930 . S
C262 H256 0.930 . S
C262 C263 1.355 . S
C262 C264 1.415 . S
C263 C262 1.355 . S
C263 C265 1.419 1_556 S
C264 C262 1.415 . S
C264 C269 1.425 1_556 S
C264 C271 1.409 . S
C265 H257 0.930 . S
C265 C263 1.419 1_554 S
C265 C266 1.362 . S
C266 H258 0.930 . S
C266 C265 1.362 . S
C266 C269 1.409 . S
C267 H259 0.930 . S
C267 C268 1.355 . S
C267 C269 1.415 . S
C268 C267 1.355 . S
C268 C270 1.419 . S
C269 C264 1.425 1_554 S
C269 C266 1.409 . S
C269 C267 1.415 . S
C270 H260 0.930 1_455 S
C270 C268 1.419 . S
C270 C271 1.362 1_554 S
C271 H261 0.930 . S
C271 C264 1.409 . S
C271 C270 1.362 1_556 S
H272 C278 0.930 . S
H273 C281 0.930 . S
H274 C282 0.930 . S
H275 C283 0.930 . S
H276 C286 0.930 1_545 S
H277 C287 0.930 . S
C278 H272 0.930 . S
C278 C279 1.355 . S
C278 C280 1.415 . S
C279 C278 1.355 . S
C279 C281 1.419 1_554 S
C280 C278 1.415 . S
C280 C285 1.425 1_554 S
C280 C287 1.409 . S
C281 H273 0.930 . S
C281 C279 1.419 1_556 S
C281 C282 1.362 . S
C282 H274 0.930 . S
C282 C281 1.362 . S
C282 C285 1.409 . S
C283 H275 0.930 . S
C283 C284 1.355 . S
C283 C285 1.415 . S
C284 C283 1.355 . S
C284 C286 1.419 . S
C285 C280 1.425 1_556 S
C285 C282 1.409 . S
C285 C283 1.415 . S
C286 H276 0.930 1_565 S
C286 C284 1.419 . S
C286 C287 1.362 1_556 S
C287 H277 0.930 . S
C287 C280 1.409 . S
C287 C286 1.362 1_554 S
H288 C294 0.930 . S
H289 C297 0.930 . S
H290 C298 0.930 . S
H291 C299 0.930 . S
H292 C302 0.930 . S
H293 C303 0.930 1_556 S
C294 H288 0.930 . S
C294 C295 1.355 . S
C294 C296 1.415 . S
C295 C294 1.355 . S
C295 C297 1.419 . S
C296 C294 1.415 . S
C296 C301 1.425 1_556 S
C296 C303 1.409 1_556 S
C297 H289 0.930 . S
C297 C295 1.419 . S
C297 C298 1.362 1_556 S
C298 H290 0.930 . S
C298 C297 1.362 1_554 S
C298 C301 1.409 . S
C299 H291 0.930 . S
C299 C300 1.355 . S
C299 C301 1.415 . S
C300 C299 1.355 . S
C300 C302 1.419 . S
C301 C296 1.425 1_554 S
C301 C298 1.409 . S
C301 C299 1.415 . S
C302 H292 0.930 . S
C302 C300 1.419 . S
C302 C303 1.362 . S
C303 H293 0.930 1_554 S
C303 C296 1.409 1_554 S
C303 C302 1.362 . S
H304 C310 0.930 . S
H305 C313 0.930 . S
H306 C314 0.930 . S
H307 C315 0.930 . S
H308 C318 0.930 . S
H309 C319 0.930 . S
C310 H304 0.930 . S
C310 C311 1.355 . S
C310 C312 1.415 . S
C311 C310 1.355 . S
C311 C313 1.419 . S
C312 C310 1.415 . S
C312 C317 1.425 . S
C312 C319 1.409 . S
C313 H305 0.930 . S
C313 C311 1.419 . S
C313 C314 1.362 . S
C314 H306 0.930 . S
C314 C313 1.362 . S
C314 C317 1.409 . S
C315 H307 0.930 . S
C315 C316 1.355 . S
C315 C317 1.415 . S
C316 C315 1.355 . S
C316 C318 1.419 . S
C317 C312 1.425 . S
C317 C314 1.409 . S
C317 C315 1.415 . S
C318 H308 0.930 . S
C318 C316 1.419 . S
C318 C319 1.362 . S
C319 H309 0.930 . S
C319 C312 1.409 . S
C319 C318 1.362 . S
H320 C326 0.930 . S
H321 C329 0.930 . S
H322 C330 0.930 . S
H323 C331 0.930 . S
H324 C334 0.930 . S
H325 C335 0.930 . S
C326 H320 0.930 . S
C326 C327 1.355 . S
C326 C328 1.415 . S
C327 C326 1.355 . S
C327 C329 1.419 . S
C328 C326 1.415 . S
C328 C333 1.425 . S
C328 C335 1.409 . S
C329 H321 0.930 . S
C329 C327 1.419 . S
C329 C330 1.362 . S
C330 H322 0.930 . S
C330 C329 1.362 . S
C330 C333 1.409 . S
C331 H323 0.930 . S
C331 C332 1.355 . S
C331 C333 1.415 . S
C332 C331 1.355 . S
C332 C334 1.419 . S
C333 C328 1.425 . S
C333 C330 1.409 . S
C333 C331 1.415 . S
C334 H324 0.930 . S
C334 C332 1.419 . S
C334 C335 1.362 . S
C335 H325 0.930 . S
C335 C328 1.409 . S
C335 C334 1.362 . S
H336 C342 0.930 . S
H337 C345 0.930 . S
H338 C346 0.930 . S
H339 C347 0.930 . S
H340 C350 0.930 . S
H341 C351 0.930 . S
C342 H336 0.930 . S
C342 C343 1.355 . S
C342 C344 1.415 . S
C343 C342 1.355 . S
C343 C345 1.419 . S
C344 C342 1.415 . S
C344 C349 1.425 . S
C344 C351 1.409 . S
C345 H337 0.930 . S
C345 C343 1.419 . S
C345 C346 1.362 . S
C346 H338 0.930 . S
C346 C345 1.362 . S
C346 C349 1.409 . S
C347 H339 0.930 . S
C347 C348 1.355 . S
C347 C349 1.415 . S
C348 C347 1.355 . S
C348 C350 1.419 . S
C349 C344 1.425 . S
C349 C346 1.409 . S
C349 C347 1.415 . S
C350 H340 0.930 . S
C350 C348 1.419 . S
C350 C351 1.362 . S
C351 H341 0.930 . S
C351 C344 1.409 . S
C351 C350 1.362 . S
H352 C358 0.930 . S
H353 C361 0.930 . S
H354 C362 0.930 . S
H355 C363 0.930 . S
H356 C366 0.930 . S
H357 C367 0.930 . S
C358 H352 0.930 . S
C358 C359 1.355 . S
C358 C360 1.415 . S
C359 C358 1.355 . S
C359 C361 1.419 . S
C360 C358 1.415 . S
C360 C365 1.425 . S
C360 C367 1.409 . S
C361 H353 0.930 . S
C361 C359 1.419 . S
C361 C362 1.362 . S
C362 H354 0.930 . S
C362 C361 1.362 . S
C362 C365 1.409 . S
C363 H355 0.930 . S
C363 C364 1.355 . S
C363 C365 1.415 . S
C364 C363 1.355 . S
C364 C366 1.419 . S
C365 C360 1.425 . S
C365 C362 1.409 . S
C365 C363 1.415 . S
C366 H356 0.930 . S
C366 C364 1.419 . S
C366 C367 1.362 . S
C367 H357 0.930 . S
C367 C360 1.409 . S
C367 C366 1.362 . S
C119 C36 1.554 . S
C124 C8 1.538 . S
C135 C50 1.552 . S
C140 C22 1.562 . S
C151 C64 1.536 . S
C156 C92 1.553 . S
C167 C78 1.549 . S
C172 C106 1.530 . S
C183 C17 1.195 1_545 S
C188 C9 1.175 . S
C199 C23 1.110 . S
C204 C31 1.203 1_455 S
C215 C45 1.160 1_565 S
C220 C37 1.085 . S
C231 C51 1.067 . S
C236 C3 1.189 1_655 S
C247 C101 1.204 1_545 S
C252 C65 1.119 . S
C263 C79 1.173 . S
C268 C59 1.177 1_455 S
C279 C93 1.083 . S
C284 C73 1.160 1_565 S
C295 C107 1.078 . S
C300 C87 1.161 1_655 S
C311 C7 1.622 . S
C316 C77 1.573 . S
C327 C91 1.567 . S
C332 C21 1.599 . S
C343 C35 1.609 . S
C348 C105 1.568 . S
C359 C49 1.569 . S
C364 C63 1.592 . S
