# Generated by pormake.
# Topology wgr, (5)-cn, num edge types: 1
# Building blocks:
#     Node 0, Type 0, BuildingBlock: BEQFEK_clean_sbu_0, # of connection points: 5
#     Node 1, Type 0, BuildingBlock: BEQFEK_clean_sbu_0, # of connection points: 5
#     Node 2, Type 0, BuildingBlock: BEQFEK_clean_sbu_0, # of connection points: 5
#     Node 3, Type 0, BuildingBlock: BEQFEK_clean_sbu_0, # of connection points: 5
#     Node 4, Type 0, BuildingBlock: BEQFEK_clean_sbu_0, # of connection points: 5
#     Node 5, Type 0, BuildingBlock: BEQFEK_clean_sbu_0, # of connection points: 5
#     Node 6, Type 0, BuildingBlock: BEQFEK_clean_sbu_0, # of connection points: 5
#     Node 7, Type 0, BuildingBlock: BEQFEK_clean_sbu_0, # of connection points: 5
#     Node 8, Type 0, BuildingBlock: BEQFEK_clean_sbu_0, # of connection points: 5
#     Node 9, Type 0, BuildingBlock: BEQFEK_clean_sbu_0, # of connection points: 5
#     Node 10, Type 0, BuildingBlock: BEQFEK_clean_sbu_0, # of connection points: 5
#     Node 11, Type 0, BuildingBlock: BEQFEK_clean_sbu_0, # of connection points: 5
#     Node 12, Type 0, BuildingBlock: BEQFEK_clean_sbu_0, # of connection points: 5
#     Node 13, Type 0, BuildingBlock: BEQFEK_clean_sbu_0, # of connection points: 5
#     Node 14, Type 0, BuildingBlock: BEQFEK_clean_sbu_0, # of connection points: 5
#     Node 15, Type 0, BuildingBlock: BEQFEK_clean_sbu_0, # of connection points: 5
#     Node 16, Type 0, BuildingBlock: BEQFEK_clean_sbu_0, # of connection points: 5
#     Node 17, Type 0, BuildingBlock: BEQFEK_clean_sbu_0, # of connection points: 5
#     Node 18, Type 0, BuildingBlock: BEQFEK_clean_sbu_0, # of connection points: 5
#     Node 19, Type 0, BuildingBlock: BEQFEK_clean_sbu_0, # of connection points: 5
#     Node 20, Type 0, BuildingBlock: BEQFEK_clean_sbu_0, # of connection points: 5
#     Node 21, Type 0, BuildingBlock: BEQFEK_clean_sbu_0, # of connection points: 5
#     Node 22, Type 0, BuildingBlock: BEQFEK_clean_sbu_0, # of connection points: 5
#     Node 23, Type 0, BuildingBlock: BEQFEK_clean_sbu_0, # of connection points: 5
#     Node 24, Type 0, BuildingBlock: BEQFEK_clean_sbu_0, # of connection points: 5
#     Node 25, Type 0, BuildingBlock: BEQFEK_clean_sbu_0, # of connection points: 5
#     Node 26, Type 0, BuildingBlock: BEQFEK_clean_sbu_0, # of connection points: 5
#     Node 27, Type 0, BuildingBlock: BEQFEK_clean_sbu_0, # of connection points: 5
#     Node 28, Type 0, BuildingBlock: BEQFEK_clean_sbu_0, # of connection points: 5
#     Node 29, Type 0, BuildingBlock: BEQFEK_clean_sbu_0, # of connection points: 5
#     Node 30, Type 0, BuildingBlock: BEQFEK_clean_sbu_0, # of connection points: 5
#     Node 31, Type 0, BuildingBlock: BEQFEK_clean_sbu_0, # of connection points: 5
#     Edge 32, Type (0, 0), BuildingBlock: UVAHIK_clean_linker_0, # of connection points: 2
#     Edge 33, Type (0, 0), BuildingBlock: UVAHIK_clean_linker_0, # of connection points: 2
#     Edge 34, Type (0, 0), BuildingBlock: UVAHIK_clean_linker_0, # of connection points: 2
#     Edge 35, Type (0, 0), BuildingBlock: UVAHIK_clean_linker_0, # of connection points: 2
#     Edge 36, Type (0, 0), BuildingBlock: UVAHIK_clean_linker_0, # of connection points: 2
#     Edge 37, Type (0, 0), BuildingBlock: UVAHIK_clean_linker_0, # of connection points: 2
#     Edge 38, Type (0, 0), BuildingBlock: UVAHIK_clean_linker_0, # of connection points: 2
#     Edge 39, Type (0, 0), BuildingBlock: UVAHIK_clean_linker_0, # of connection points: 2
#     Edge 40, Type (0, 0), BuildingBlock: UVAHIK_clean_linker_0, # of connection points: 2
#     Edge 41, Type (0, 0), BuildingBlock: UVAHIK_clean_linker_0, # of connection points: 2
#     Edge 42, Type (0, 0), BuildingBlock: UVAHIK_clean_linker_0, # of connection points: 2
#     Edge 43, Type (0, 0), BuildingBlock: UVAHIK_clean_linker_0, # of connection points: 2
#     Edge 44, Type (0, 0), BuildingBlock: UVAHIK_clean_linker_0, # of connection points: 2
#     Edge 45, Type (0, 0), BuildingBlock: UVAHIK_clean_linker_0, # of connection points: 2
#     Edge 46, Type (0, 0), BuildingBlock: UVAHIK_clean_linker_0, # of connection points: 2
#     Edge 47, Type (0, 0), BuildingBlock: UVAHIK_clean_linker_0, # of connection points: 2
#     Edge 48, Type (0, 0), BuildingBlock: UVAHIK_clean_linker_0, # of connection points: 2
#     Edge 49, Type (0, 0), BuildingBlock: UVAHIK_clean_linker_0, # of connection points: 2
#     Edge 50, Type (0, 0), BuildingBlock: UVAHIK_clean_linker_0, # of connection points: 2
#     Edge 51, Type (0, 0), BuildingBlock: UVAHIK_clean_linker_0, # of connection points: 2
#     Edge 52, Type (0, 0), BuildingBlock: UVAHIK_clean_linker_0, # of connection points: 2
#     Edge 53, Type (0, 0), BuildingBlock: UVAHIK_clean_linker_0, # of connection points: 2
#     Edge 54, Type (0, 0), BuildingBlock: UVAHIK_clean_linker_0, # of connection points: 2
#     Edge 55, Type (0, 0), BuildingBlock: UVAHIK_clean_linker_0, # of connection points: 2
#     Edge 56, Type (0, 0), BuildingBlock: UVAHIK_clean_linker_0, # of connection points: 2
#     Edge 57, Type (0, 0), BuildingBlock: UVAHIK_clean_linker_0, # of connection points: 2
#     Edge 58, Type (0, 0), BuildingBlock: UVAHIK_clean_linker_0, # of connection points: 2
#     Edge 59, Type (0, 0), BuildingBlock: UVAHIK_clean_linker_0, # of connection points: 2
#     Edge 60, Type (0, 0), BuildingBlock: UVAHIK_clean_linker_0, # of connection points: 2
#     Edge 61, Type (0, 0), BuildingBlock: UVAHIK_clean_linker_0, # of connection points: 2
#     Edge 62, Type (0, 0), BuildingBlock: UVAHIK_clean_linker_0, # of connection points: 2
#     Edge 63, Type (0, 0), BuildingBlock: UVAHIK_clean_linker_0, # of connection points: 2
#     Edge 64, Type (0, 0), BuildingBlock: UVAHIK_clean_linker_0, # of connection points: 2
#     Edge 65, Type (0, 0), BuildingBlock: UVAHIK_clean_linker_0, # of connection points: 2
#     Edge 66, Type (0, 0), BuildingBlock: UVAHIK_clean_linker_0, # of connection points: 2
#     Edge 67, Type (0, 0), BuildingBlock: UVAHIK_clean_linker_0, # of connection points: 2
#     Edge 68, Type (0, 0), BuildingBlock: UVAHIK_clean_linker_0, # of connection points: 2
#     Edge 69, Type (0, 0), BuildingBlock: UVAHIK_clean_linker_0, # of connection points: 2
#     Edge 70, Type (0, 0), BuildingBlock: UVAHIK_clean_linker_0, # of connection points: 2
#     Edge 71, Type (0, 0), BuildingBlock: UVAHIK_clean_linker_0, # of connection points: 2
#     Edge 72, Type (0, 0), BuildingBlock: UVAHIK_clean_linker_0, # of connection points: 2
#     Edge 73, Type (0, 0), BuildingBlock: UVAHIK_clean_linker_0, # of connection points: 2
#     Edge 74, Type (0, 0), BuildingBlock: UVAHIK_clean_linker_0, # of connection points: 2
#     Edge 75, Type (0, 0), BuildingBlock: UVAHIK_clean_linker_0, # of connection points: 2
#     Edge 76, Type (0, 0), BuildingBlock: UVAHIK_clean_linker_0, # of connection points: 2
#     Edge 77, Type (0, 0), BuildingBlock: UVAHIK_clean_linker_0, # of connection points: 2
#     Edge 78, Type (0, 0), BuildingBlock: UVAHIK_clean_linker_0, # of connection points: 2
#     Edge 79, Type (0, 0), BuildingBlock: UVAHIK_clean_linker_0, # of connection points: 2
#     Edge 80, Type (0, 0), BuildingBlock: UVAHIK_clean_linker_0, # of connection points: 2
#     Edge 81, Type (0, 0), BuildingBlock: UVAHIK_clean_linker_0, # of connection points: 2
#     Edge 82, Type (0, 0), BuildingBlock: UVAHIK_clean_linker_0, # of connection points: 2
#     Edge 83, Type (0, 0), BuildingBlock: UVAHIK_clean_linker_0, # of connection points: 2
#     Edge 84, Type (0, 0), BuildingBlock: UVAHIK_clean_linker_0, # of connection points: 2
#     Edge 85, Type (0, 0), BuildingBlock: UVAHIK_clean_linker_0, # of connection points: 2
#     Edge 86, Type (0, 0), BuildingBlock: UVAHIK_clean_linker_0, # of connection points: 2
#     Edge 87, Type (0, 0), BuildingBlock: UVAHIK_clean_linker_0, # of connection points: 2
#     Edge 88, Type (0, 0), BuildingBlock: UVAHIK_clean_linker_0, # of connection points: 2
#     Edge 89, Type (0, 0), BuildingBlock: UVAHIK_clean_linker_0, # of connection points: 2
#     Edge 90, Type (0, 0), BuildingBlock: UVAHIK_clean_linker_0, # of connection points: 2
#     Edge 91, Type (0, 0), BuildingBlock: UVAHIK_clean_linker_0, # of connection points: 2
#     Edge 92, Type (0, 0), BuildingBlock: UVAHIK_clean_linker_0, # of connection points: 2
#     Edge 93, Type (0, 0), BuildingBlock: UVAHIK_clean_linker_0, # of connection points: 2
#     Edge 94, Type (0, 0), BuildingBlock: UVAHIK_clean_linker_0, # of connection points: 2
#     Edge 95, Type (0, 0), BuildingBlock: UVAHIK_clean_linker_0, # of connection points: 2
#     Edge 96, Type (0, 0), BuildingBlock: UVAHIK_clean_linker_0, # of connection points: 2
#     Edge 97, Type (0, 0), BuildingBlock: UVAHIK_clean_linker_0, # of connection points: 2
#     Edge 98, Type (0, 0), BuildingBlock: UVAHIK_clean_linker_0, # of connection points: 2
#     Edge 99, Type (0, 0), BuildingBlock: UVAHIK_clean_linker_0, # of connection points: 2
#     Edge 100, Type (0, 0), BuildingBlock: UVAHIK_clean_linker_0, # of connection points: 2
#     Edge 101, Type (0, 0), BuildingBlock: UVAHIK_clean_linker_0, # of connection points: 2
#     Edge 102, Type (0, 0), BuildingBlock: UVAHIK_clean_linker_0, # of connection points: 2
#     Edge 103, Type (0, 0), BuildingBlock: UVAHIK_clean_linker_0, # of connection points: 2
#     Edge 104, Type (0, 0), BuildingBlock: UVAHIK_clean_linker_0, # of connection points: 2
#     Edge 105, Type (0, 0), BuildingBlock: UVAHIK_clean_linker_0, # of connection points: 2
#     Edge 106, Type (0, 0), BuildingBlock: UVAHIK_clean_linker_0, # of connection points: 2
#     Edge 107, Type (0, 0), BuildingBlock: UVAHIK_clean_linker_0, # of connection points: 2
#     Edge 108, Type (0, 0), BuildingBlock: UVAHIK_clean_linker_0, # of connection points: 2
#     Edge 109, Type (0, 0), BuildingBlock: UVAHIK_clean_linker_0, # of connection points: 2
#     Edge 110, Type (0, 0), BuildingBlock: UVAHIK_clean_linker_0, # of connection points: 2
#     Edge 111, Type (0, 0), BuildingBlock: UVAHIK_clean_linker_0, # of connection points: 2
# Relax obj value: 0.189
# Max RMSD: 0.227
# Mean RMSD: 0.227
data_MOF--net-wgr--node1-BEQFEK_clean_sbu_0--edge1-UVAHIK_clean_linker_0
_symmetry_space_group_name_H-M    P1
_symmetry_Int_Tables_number       1
_symmetry_cell_setting            triclinic
loop_
_symmetry_equiv_pos_as_xyz
'x, y, z'
_cell_length_a     35.094697
_cell_length_b     35.078154
_cell_length_c     189.3701
_cell_angle_alpha  90.003603
_cell_angle_beta   89.998565
_cell_angle_gamma 89.998526
loop_
_atom_site_label
_atom_site_type_symbol
_atom_site_fract_x
_atom_site_fract_y
_atom_site_fract_z
_atom_type_partial_charge
Co0 Co 0.33589 0.02883 0.19784 0.0
Co1 Co 0.34573 0.03313 0.18136 0.0
C2 C 0.27583 0.06336 0.18885 0.0
O3 O 0.28745 0.05289 0.19491 0.0
O4 O 0.29567 0.05736 0.18332 0.0
C5 C 0.30327 0.01228 0.21148 0.0
O6 O 0.27105 0.01014 0.20796 0.0
C7 C 0.32672 0.01529 0.16657 0.0
C8 C 0.37814 0.03589 0.16102 0.0
C9 C 0.34285 0.01921 0.1599 0.0
N10 N 0.35153 0.0288 0.17138 0.0
N11 N 0.38219 0.04101 0.16802 0.0
C12 C 0.28761 0.00118 0.16835 0.0
H13 H 0.27892 0.01073 0.17368 0.0
H14 H 0.28751 0.96958 0.16833 0.0
H15 H 0.26669 0.01124 0.16437 0.0
C16 C 0.34839 0.9465 0.1948 0.0
N17 N 0.34526 0.98312 0.19272 0.0
N18 N 0.35107 0.98517 0.18587 0.0
C19 C 0.35945 0.95014 0.1834 0.0
C20 C 0.35768 0.92429 0.18895 0.0
C21 C 0.33944 0.93312 0.20212 0.0
H22 H 0.3119 0.94552 0.20381 0.0
H23 H 0.33722 0.90168 0.20246 0.0
H24 H 0.36184 0.94335 0.20579 0.0
O25 O 0.37759 0.06667 0.19637 0.0
O26 O 0.3851 0.06833 0.18474 0.0
H27 H 0.38943 0.96556 0.17394 0.0
H28 H 0.38797 0.91499 0.17565 0.0
C29 C 0.37153 0.94196 0.17597 0.0
H30 H 0.34594 0.93936 0.17258 0.0
H31 H 0.40577 0.0532 0.1705 0.0
O32 O 0.33401 0.01905 0.20815 0.0
C33 C 0.39423 0.07965 0.19089 0.0
Co34 Co 0.2264 0.08988 0.44829 0.0
Co35 Co 0.22787 0.09468 0.43171 0.0
C36 C 0.19689 0.02634 0.43899 0.0
O37 O 0.20442 0.04065 0.44502 0.0
O38 O 0.20475 0.04404 0.4333 0.0
C39 C 0.2417 0.05631 0.46185 0.0
O40 O 0.24685 0.02505 0.45815 0.0
C41 C 0.24003 0.07818 0.41656 0.0
C42 C 0.2434 0.13651 0.4122 0.0
C43 C 0.24493 0.09837 0.4103 0.0
N44 N 0.23568 0.10336 0.42186 0.0
N45 N 0.23757 0.13812 0.41921 0.0
C46 C 0.24254 0.036 0.41765 0.0
H47 H 0.25297 0.02956 0.42305 0.0
H48 H 0.26192 0.02279 0.41372 0.0
H49 H 0.21373 0.02336 0.41705 0.0
C50 C 0.30839 0.10686 0.44625 0.0
N51 N 0.27311 0.10063 0.44371 0.0
N52 N 0.27425 0.10052 0.43677 0.0
C53 C 0.31059 0.10546 0.43466 0.0
C54 C 0.33355 0.10996 0.4406 0.0
C55 C 0.31731 0.1111 0.45394 0.0
H56 H 0.29407 0.12692 0.45661 0.0
H57 H 0.31941 0.08241 0.45637 0.0
H58 H 0.34455 0.12654 0.45476 0.0
O59 O 0.18845 0.13007 0.4464 0.0
O60 O 0.18964 0.13303 0.4347 0.0
H61 H 0.31703 0.12923 0.42433 0.0
H62 H 0.35412 0.09584 0.42671 0.0
C63 C 0.32326 0.10215 0.42713 0.0
H64 H 0.30738 0.07892 0.42449 0.0
H65 H 0.23515 0.16298 0.4222 0.0
O66 O 0.2333 0.0871 0.45867 0.0
C67 C 0.17632 0.144 0.44062 0.0
Co68 Co 0.15858 0.97947 0.69749 0.0
Co69 Co 0.14888 0.97464 0.68102 0.0
C70 C 0.21888 0.94494 0.68856 0.0
O71 O 0.20711 0.95569 0.6946 0.0
O72 O 0.19912 0.95061 0.68301 0.0
C73 C 0.16436 0.96343 0.71209 0.0
O74 O 0.16594 0.92828 0.70971 0.0
C75 C 0.1669 0.99183 0.66613 0.0
C76 C 0.11358 0.97431 0.66084 0.0
C77 C 0.14936 0.98952 0.65954 0.0
N78 N 0.14237 0.97896 0.67104 0.0
N79 N 0.11061 0.96849 0.66784 0.0
C80 C 0.20678 0.00427 0.66774 0.0
H81 H 0.21625 0.99306 0.67291 0.0
H82 H 0.20783 0.03583 0.66802 0.0
H83 H 0.2266 0.99457 0.66354 0.0
C84 C 0.14652 0.06145 0.69439 0.0
N85 N 0.14927 0.02482 0.69233 0.0
N86 N 0.14345 0.02271 0.68548 0.0
C87 C 0.13536 0.0578 0.683 0.0
C88 C 0.13737 0.08369 0.68855 0.0
C89 C 0.15554 0.07486 0.70171 0.0
H90 H 0.17973 0.05824 0.70388 0.0
H91 H 0.16311 0.10555 0.7018 0.0
H92 H 0.13039 0.07009 0.70515 0.0
O93 O 0.11718 0.94118 0.6961 0.0
O94 O 0.10988 0.93918 0.68447 0.0
H95 H 0.10496 0.04271 0.67357 0.0
H96 H 0.10754 0.09326 0.6752 0.0
C97 C 0.12341 0.06597 0.67556 0.0
H98 H 0.14904 0.0678 0.67216 0.0
H99 H 0.08687 0.95733 0.67043 0.0
O100 O 0.16122 0.99067 0.70771 0.0
C101 C 0.10082 0.92785 0.69062 0.0
Co102 Co 0.27589 0.90869 0.94856 0.0
Co103 Co 0.27733 0.90819 0.93198 0.0
C104 C 0.30677 0.9746 0.93994 0.0
O105 O 0.29932 0.95795 0.94576 0.0
O106 O 0.29874 0.95915 0.93404 0.0
C107 C 0.26047 0.94124 0.96215 0.0
O108 O 0.25878 0.97325 0.95856 0.0
C109 C 0.2644 0.92799 0.91702 0.0
C110 C 0.27755 0.87322 0.91178 0.0
C111 C 0.26735 0.91063 0.91048 0.0
N112 N 0.27244 0.90191 0.92201 0.0
N113 N 0.28012 0.86922 0.91884 0.0
C114 C 0.25714 0.96927 0.91848 0.0
H115 H 0.28381 0.98553 0.91756 0.0
H116 H 0.24808 0.97348 0.92404 0.0
H117 H 0.23506 0.98063 0.91486 0.0
C118 C 0.19448 0.89244 0.94593 0.0
N119 N 0.23008 0.89915 0.94361 0.0
N120 N 0.23003 0.90035 0.93667 0.0
C121 C 0.19406 0.89538 0.93434 0.0
C122 C 0.17019 0.89009 0.94014 0.0
C123 C 0.18443 0.88711 0.95355 0.0
H124 H 0.20694 0.87027 0.95622 0.0
H125 H 0.18276 0.91541 0.95615 0.0
H126 H 0.15675 0.8722 0.95416 0.0
O127 O 0.31366 0.86854 0.94672 0.0
O128 O 0.31586 0.8699 0.93502 0.0
H129 H 0.19371 0.87427 0.92375 0.0
H130 H 0.15144 0.90112 0.92606 0.0
C131 C 0.18271 0.89911 0.92674 0.0
H132 H 0.1957 0.92517 0.9245 0.0
H133 H 0.28785 0.84432 0.92149 0.0
O134 O 0.26688 0.91021 0.95889 0.0
C135 C 0.32756 0.85683 0.94091 0.0
Co136 Co 0.33475 0.97113 0.30119 0.0
Co137 Co 0.33421 0.97199 0.31783 0.0
C138 C 0.26804 0.94195 0.30992 0.0
O139 O 0.28507 0.94883 0.30412 0.0
O140 O 0.28321 0.95041 0.31583 0.0
C141 C 0.31278 0.95848 0.28687 0.0
O142 O 0.29257 0.93105 0.28974 0.0
C143 C 0.31585 0.98249 0.33299 0.0
C144 C 0.3736 0.98888 0.3375 0.0
C145 C 0.33533 0.98861 0.33928 0.0
N146 N 0.34153 0.97978 0.32773 0.0
N147 N 0.37595 0.98345 0.33048 0.0
C148 C 0.27396 0.97667 0.33198 0.0
H149 H 0.26923 0.94915 0.32924 0.0
H150 H 0.2625 -0.00037 0.32855 0.0
H151 H 0.2583 0.97605 0.33706 0.0
C152 C 0.35233 0.05262 0.30352 0.0
N153 N 0.34451 0.01743 0.30595 0.0
N154 N 0.34205 0.01843 0.31287 0.0
C155 C 0.34692 0.05465 0.31507 0.0
C156 C 0.35399 0.07762 0.30922 0.0
C157 C 0.35962 0.0614 0.2959 0.0
H158 H 0.3761 0.03788 0.29345 0.0
H159 H 0.33198 0.06376 0.29309 0.0
H160 H 0.37571 0.08842 0.29527 0.0
O161 O 0.37452 0.93335 0.3033 0.0
O162 O 0.37268 0.93311 0.31502 0.0
H163 H 0.36773 0.06202 0.32559 0.0
H164 H 0.33404 0.09806 0.32286 0.0
C165 C 0.34123 0.06732 0.32255 0.0
H166 H 0.3178 0.05082 0.325 0.0
H167 H 0.40109 0.9824 0.32754 0.0
O168 O 0.3334 0.97939 0.2908 0.0
C169 C 0.386 0.92047 0.30921 0.0
Co170 Co 0.27319 0.0882 0.55158 0.0
Co171 Co 0.27663 0.10073 0.56805 0.0
C172 C 0.30745 0.02977 0.56104 0.0
O173 O 0.29728 0.04051 0.5549 0.0
O174 O 0.30119 0.05038 0.56645 0.0
C175 C 0.26512 0.05329 0.53784 0.0
O176 O 0.27232 0.02154 0.54127 0.0
C177 C 0.25937 0.08517 0.58305 0.0
C178 C 0.27566 0.13988 0.58798 0.0
C179 C 0.26138 0.10397 0.58952 0.0
N180 N 0.27158 0.10909 0.57797 0.0
N181 N 0.28126 0.1417 0.58097 0.0
C182 C 0.24791 0.04469 0.5817 0.0
H183 H 0.25881 0.03464 0.57655 0.0
H184 H 0.21638 0.04273 0.58155 0.0
H185 H 0.25857 0.02586 0.58598 0.0
C186 C 0.1907 0.09956 0.55447 0.0
N187 N 0.22731 0.09792 0.55659 0.0
N188 N 0.22896 0.10479 0.56341 0.0
C189 C 0.19363 0.11245 0.5658 0.0
C190 C 0.16803 0.10899 0.56024 0.0
C191 C 0.17781 0.08905 0.54719 0.0
H192 H 0.1941 0.06397 0.5453 0.0
H193 H 0.14699 0.08215 0.54704 0.0
H194 H 0.18363 0.11317 0.54355 0.0
O195 O 0.31098 0.13024 0.55287 0.0
O196 O 0.31188 0.13945 0.56447 0.0
H197 H 0.20741 0.14469 0.57508 0.0
H198 H 0.15706 0.14012 0.57345 0.0
C199 C 0.18486 0.12514 0.57318 0.0
H200 H 0.18388 0.09994 0.5767 0.0
H201 H 0.29187 0.16519 0.57822 0.0
O202 O 0.26341 0.08452 0.54125 0.0
C203 C 0.32362 0.14766 0.5583 0.0
Co204 Co 0.16245 0.02101 0.80158 0.0
Co205 Co 0.16384 0.02303 0.81815 0.0
C206 C 0.22935 0.0521 0.80984 0.0
O207 O 0.21218 0.04424 0.8041 0.0
O208 O 0.21447 0.04442 0.81581 0.0
C209 C 0.16583 0.03795 0.78694 0.0
O210 O 0.16764 0.07307 0.78932 0.0
C211 C 0.18501 0.01001 0.83305 0.0
C212 C 0.13118 0.02481 0.83846 0.0
C213 C 0.1684 0.01358 0.83966 0.0
N214 N 0.15869 0.01868 0.82815 0.0
N215 N 0.12657 0.02737 0.83143 0.0
C216 C 0.22587 0.00143 0.83146 0.0
H217 H 0.24332 0.02705 0.83264 0.0
H218 H 0.22954 0.99376 0.82582 0.0
H219 H 0.23629 0.97786 0.83486 0.0
C220 C 0.1456 0.93998 0.80438 0.0
N221 N 0.15319 0.97551 0.80664 0.0
N222 N 0.15523 0.97558 0.81357 0.0
C223 C 0.14992 0.93973 0.81595 0.0
C224 C 0.14354 0.91584 0.81019 0.0
C225 C 0.13892 0.92999 0.79679 0.0
H226 H 0.12138 0.95242 0.79425 0.0
H227 H 0.16671 0.92871 0.794 0.0
H228 H 0.12414 0.90219 0.79624 0.0
O229 O 0.12265 0.05912 0.8035 0.0
O230 O 0.12517 0.06131 0.81521 0.0
H231 H 0.12993 0.94031 0.82662 0.0
H232 H 0.1553 0.89718 0.82425 0.0
C233 C 0.15411 0.92849 0.82354 0.0
H234 H 0.18075 0.94081 0.82567 0.0
H235 H 0.10163 0.03571 0.82885 0.0
O236 O 0.16339 0.01062 0.79131 0.0
C237 C 0.11153 0.07301 0.80936 0.0
Co238 Co 0.22587 0.90568 0.05164 0.0
Co239 Co 0.22513 0.90722 0.06823 0.0
C240 C 0.19433 0.9722 0.06016 0.0
O241 O 0.20161 0.9547 0.05442 0.0
O242 O 0.2031 0.95789 0.06613 0.0
C243 C 0.24178 0.93803 0.03811 0.0
O244 O 0.2449 0.96967 0.04178 0.0
C245 C 0.23171 0.92484 0.08351 0.0
C246 C 0.24371 0.86745 0.08779 0.0
C247 C 0.23925 0.90524 0.08973 0.0
N248 N 0.23228 0.89972 0.07814 0.0
N249 N 0.23924 0.86549 0.08075 0.0
C250 C 0.22163 0.96603 0.08266 0.0
H251 H 0.19527 0.96845 0.07947 0.0
H252 H 0.24482 0.98079 0.07976 0.0
H253 H 0.21673 0.98023 0.08781 0.0
C254 C 0.30787 0.89152 0.05424 0.0
N255 N 0.27207 0.89756 0.05653 0.0
N256 N 0.27222 0.90045 0.06345 0.0
C257 C 0.30841 0.8978 0.06578 0.0
C258 C 0.33234 0.89162 0.06003 0.0
C259 C 0.31795 0.88469 0.04667 0.0
H260 H 0.29521 0.86781 0.04407 0.0
H261 H 0.32025 0.91249 0.0439 0.0
H262 H 0.34541 0.86923 0.04618 0.0
O263 O 0.18896 0.86505 0.05365 0.0
O264 O 0.18691 0.86827 0.06534 0.0
H265 H 0.31708 0.87877 0.07638 0.0
H266 H 0.34996 0.91536 0.07359 0.0
C267 C 0.32003 0.90537 0.07326 0.0
H268 H 0.30134 0.92745 0.07561 0.0
H269 H 0.24117 0.84078 0.0777 0.0
O270 O 0.23437 0.90703 0.0413 0.0
C271 C 0.17526 0.85413 0.05953 0.0
Co272 Co 0.65494 0.97089 0.80213 0.0
Co273 Co 0.65805 0.97127 0.81871 0.0
C274 C 0.72207 0.93963 0.81044 0.0
O275 O 0.7041 0.94674 0.80475 0.0
O276 O 0.7083 0.94864 0.81644 0.0
C277 C 0.6863 0.98798 0.78864 0.0
O278 O 0.71757 0.99267 0.79235 0.0
C279 C 0.67924 0.98104 0.83372 0.0
C280 C 0.62245 0.98753 0.83863 0.0
C281 C 0.66104 0.98682 0.84015 0.0
N282 N 0.65253 0.97887 0.82864 0.0
N283 N 0.61869 0.98266 0.83162 0.0
C284 C 0.72085 0.97491 0.83242 0.0
H285 H 0.72489 0.94667 0.8299 0.0
H286 H 0.73145 0.99687 0.82868 0.0
H287 H 0.73777 0.97563 0.83735 0.0
C288 C 0.64097 0.05298 0.80456 0.0
N289 N 0.64742 0.01741 0.80694 0.0
N290 N 0.65083 0.01814 0.81385 0.0
C291 C 0.648 0.05452 0.81609 0.0
C292 C 0.64135 0.07793 0.81027 0.0
C293 C 0.63318 0.06238 0.79699 0.0
H294 H 0.61616 0.03932 0.79452 0.0
H295 H 0.66062 0.0647 0.79411 0.0
H296 H 0.61746 0.0897 0.79649 0.0
O297 O 0.61437 0.93436 0.80438 0.0
O298 O 0.61832 0.9332 0.81607 0.0
H299 H 0.62933 0.06206 0.82674 0.0
H300 H 0.66358 0.09723 0.82385 0.0
C301 C 0.65541 0.06675 0.82354 0.0
H302 H 0.67875 0.04943 0.82582 0.0
H303 H 0.59299 0.98194 0.82885 0.0
O304 O 0.65561 0.97897 0.79178 0.0
C305 C 0.60368 0.92127 0.81032 0.0
Co306 Co 0.77262 0.91319 0.55281 0.0
Co307 Co 0.7767 0.90308 0.56934 0.0
C308 C 0.80568 0.97371 0.56199 0.0
O309 O 0.79572 0.96172 0.55592 0.0
O310 O 0.79985 0.95391 0.56752 0.0
C311 C 0.76334 0.94642 0.53897 0.0
O312 O 0.76969 0.97866 0.54229 0.0
C313 C 0.75921 0.91964 0.58431 0.0
C314 C 0.7789 0.86661 0.58944 0.0
C315 C 0.76285 0.9019 0.59085 0.0
N316 N 0.77228 0.89571 0.5793 0.0
N317 N 0.78395 0.86409 0.58242 0.0
C318 C 0.74567 0.95933 0.58284 0.0
H319 H 0.7554 0.96914 0.57759 0.0
H320 H 0.71408 0.95986 0.58286 0.0
H321 H 0.75598 0.97916 0.58699 0.0
C322 C 0.69063 0.90013 0.55579 0.0
N323 N 0.72717 0.90297 0.5579 0.0
N324 N 0.72903 0.89706 0.56475 0.0
C325 C 0.69389 0.88882 0.56718 0.0
C326 C 0.66822 0.89086 0.5616 0.0
C327 C 0.67747 0.90959 0.54847 0.0
H328 H 0.69314 0.93486 0.5465 0.0
H329 H 0.64651 0.91577 0.5483 0.0
H330 H 0.68387 0.88525 0.54492 0.0
O331 O 0.81142 0.87234 0.55424 0.0
O332 O 0.81313 0.86501 0.56587 0.0
H333 H 0.70861 0.85867 0.57665 0.0
H334 H 0.65813 0.86115 0.57494 0.0
C335 C 0.68541 0.87704 0.57461 0.0
H336 H 0.68338 0.90275 0.57799 0.0
H337 H 0.79567 0.84086 0.57975 0.0
O338 O 0.76257 0.91547 0.54246 0.0
C339 C 0.82484 0.85619 0.55973 0.0
Co340 Co 0.84197 0.02673 0.30218 0.0
Co341 Co 0.84079 0.02498 0.31879 0.0
C342 C 0.77558 0.05678 0.31084 0.0
O343 O 0.79278 0.05007 0.30504 0.0
O344 O 0.79029 0.04759 0.31675 0.0
C345 C 0.81175 0.00489 0.28881 0.0
O346 O 0.78341 0.99243 0.29271 0.0
C347 C 0.82141 0.01461 0.33391 0.0
C348 C 0.87873 0.00664 0.33852 0.0
C349 C 0.84041 0.00805 0.34024 0.0
N350 N 0.84741 0.01654 0.3287 0.0
N351 N 0.88157 0.01187 0.3315 0.0
C352 C 0.77978 0.02177 0.33283 0.0
H353 H 0.77606 0.04989 0.33025 0.0
H354 H 0.76796 -0.00022 0.32923 0.0
H355 H 0.76372 0.02195 0.33787 0.0
C356 C 0.85778 0.94452 0.30438 0.0
N357 N 0.8506 0.97981 0.30684 0.0
N358 N 0.84774 0.97857 0.31376 0.0
C359 C 0.85145 0.94213 0.31591 0.0
C360 C 0.85828 0.91924 0.31004 0.0
C361 C 0.86599 0.93567 0.2968 0.0
H362 H 0.88099 0.95994 0.29428 0.0
H363 H 0.83874 0.93087 0.29396 0.0
H364 H 0.8838 0.90966 0.29631 0.0
O365 O 0.88249 0.0633 0.30441 0.0
O366 O 0.88023 0.06332 0.31612 0.0
H367 H 0.87133 0.93359 0.32646 0.0
H368 H 0.8367 0.89878 0.32359 0.0
C369 C 0.84487 0.92929 0.32335 0.0
H370 H 0.82181 0.94642 0.32578 0.0
H371 H 0.90688 0.01223 0.32861 0.0
O372 O 0.84036 0.02015 0.2918 0.0
C373 C 0.89404 0.0758 0.31034 0.0
Co374 Co 0.72489 0.09487 0.05193 0.0
Co375 Co 0.72635 0.09683 0.06852 0.0
C376 C 0.69411 0.03039 0.06104 0.0
O377 O 0.70108 0.04649 0.05514 0.0
O378 O 0.70334 0.04605 0.06686 0.0
C379 C 0.73803 0.0602 0.03845 0.0
O380 O 0.73996 0.02872 0.04219 0.0
C381 C 0.73801 0.08095 0.08373 0.0
C382 C 0.74609 0.13942 0.08782 0.0
C383 C 0.74523 0.10151 0.08986 0.0
N384 N 0.73471 0.10572 0.07834 0.0
N385 N 0.73932 0.14058 0.08084 0.0
C386 C 0.73762 0.03856 0.08285 0.0
H387 H 0.70792 0.02812 0.0834 0.0
H388 H 0.74806 0.03067 0.07752 0.0
H389 H 0.7556 0.02452 0.08691 0.0
C390 C 0.80713 0.10942 0.05402 0.0
N391 N 0.77171 0.10386 0.05654 0.0
N392 N 0.77288 0.10255 0.06347 0.0
C393 C 0.80939 0.10597 0.06559 0.0
C394 C 0.83243 0.11077 0.05967 0.0
C395 C 0.81606 0.11453 0.04635 0.0
H396 H 0.79319 0.1313 0.04376 0.0
H397 H 0.81738 0.08615 0.04377 0.0
H398 H 0.84368 0.12937 0.04559 0.0
O399 O 0.68829 0.13594 0.05384 0.0
O400 O 0.6879 0.13547 0.06555 0.0
H401 H 0.81766 0.1277 0.07602 0.0
H402 H 0.85259 0.09259 0.0734 0.0
C403 C 0.82212 0.10072 0.07308 0.0
H404 H 0.80499 0.07806 0.07562 0.0
H405 H 0.73842 0.16517 0.07774 0.0
O406 O 0.73219 0.09174 0.04157 0.0
C407 C 0.67546 0.14827 0.05969 0.0
Co408 Co 0.6546 0.0268 0.69914 0.0
Co409 Co 0.65055 0.02534 0.68253 0.0
C410 C 0.71779 0.05798 0.68996 0.0
O411 O 0.70247 0.05103 0.69592 0.0
O412 O 0.7014 0.0487 0.6842 0.0
C413 C 0.68889 0.01649 0.71278 0.0
O414 O 0.72096 0.01729 0.7092 0.0
C415 C 0.66753 0.01381 0.66737 0.0
C416 C 0.60963 0.00538 0.66305 0.0
C417 C 0.64774 0.00627 0.66116 0.0
N418 N 0.64221 0.01662 0.67268 0.0
N419 N 0.60767 0.01179 0.67004 0.0
C420 C 0.70928 0.02113 0.66823 0.0
H421 H 0.71327 0.04912 0.67083 0.0
H422 H 0.72179 0.99897 0.67171 0.0
H423 H 0.72453 0.02177 0.66311 0.0
C424 C 0.64348 0.94412 0.69708 0.0
N425 N 0.64647 0.9798 0.69454 0.0
N426 N 0.64545 0.97877 0.6876 0.0
C427 C 0.6422 0.94217 0.6855 0.0
C428 C 0.6407 0.91902 0.69144 0.0
C429 C 0.64356 0.93438 0.70478 0.0
H430 H 0.67285 0.9378 0.70689 0.0
H431 H 0.63389 0.90468 0.7057 0.0
H432 H 0.62456 0.95423 0.70767 0.0
O433 O 0.61275 0.06268 0.69724 0.0
O434 O 0.61142 0.06308 0.68553 0.0
H435 H 0.61759 0.93723 0.67523 0.0
H436 H 0.64881 0.89825 0.67752 0.0
C437 C 0.64442 0.92947 0.67796 0.0
H438 H 0.66829 0.94429 0.67529 0.0
H439 H 0.58274 0.01259 0.67304 0.0
O440 O 0.65745 0.01967 0.7095 0.0
C441 C 0.59923 0.07519 0.69146 0.0
Co442 Co 0.72395 0.9092 0.44933 0.0
Co443 Co 0.72539 0.90811 0.43269 0.0
C444 C 0.69409 0.97462 0.44048 0.0
O445 O 0.70073 0.95807 0.44634 0.0
O446 O 0.70316 0.95916 0.43462 0.0
C447 C 0.73795 0.94156 0.46299 0.0
O448 O 0.7418 0.97327 0.45936 0.0
C449 C 0.73716 0.92665 0.4176 0.0
C450 C 0.73845 0.86889 0.41292 0.0
C451 C 0.74073 0.90721 0.41123 0.0
N452 N 0.73324 0.90083 0.4228 0.0
N453 N 0.73406 0.86641 0.41996 0.0
C454 C 0.73407 0.96875 0.41873 0.0
H455 H 0.70536 0.97529 0.42085 0.0
H456 H 0.75524 0.97786 0.42274 0.0
H457 H 0.73811 0.98514 0.41379 0.0
C458 C 0.80646 0.8962 0.44714 0.0
N459 N 0.77082 0.9007 0.44466 0.0
N460 N 0.77171 0.90088 0.43771 0.0
C461 C 0.8081 0.89681 0.43555 0.0
C462 C 0.83133 0.89361 0.44147 0.0
C463 C 0.81642 0.89464 0.45482 0.0
H464 H 0.81502 0.92383 0.45706 0.0
H465 H 0.84549 0.88301 0.45565 0.0
H466 H 0.79553 0.87656 0.45767 0.0
O467 O 0.68695 0.86853 0.44719 0.0
O468 O 0.68687 0.86952 0.43548 0.0
H469 H 0.81085 0.87394 0.42511 0.0
H470 H 0.85192 0.90217 0.42752 0.0
C471 C 0.82054 0.89965 0.42801 0.0
H472 H 0.80709 0.92491 0.42553 0.0
H473 H 0.73129 0.8412 0.42284 0.0
O474 O 0.73084 0.91068 0.45973 0.0
C475 C 0.67427 0.85649 0.44131 0.0
Co476 Co 0.82783 0.97645 0.19883 0.0
Co477 Co 0.83684 0.97279 0.1823 0.0
C478 C 0.76655 0.94403 0.1897 0.0
O479 O 0.77935 0.95326 0.19575 0.0
O480 O 0.7857 0.95032 0.1841 0.0
C481 C 0.80659 0.9637 0.21311 0.0
O482 O 0.78917 0.9343 0.21027 0.0
C483 C 0.81993 0.99085 0.16738 0.0
C484 C 0.87242 0.97062 0.16214 0.0
C485 C 0.83727 0.98713 0.1608 0.0
N486 N 0.84394 0.97738 0.17233 0.0
N487 N 0.87524 0.96539 0.16916 0.0
C488 C 0.78055 0.00494 0.16894 0.0
H489 H 0.78055 0.03655 0.16899 0.0
H490 H 0.76031 0.9951 0.16483 0.0
H491 H 0.77087 0.99516 0.1742 0.0
C492 C 0.84157 0.05841 0.19595 0.0
N493 N 0.83781 0.02205 0.19378 0.0
N494 N 0.84341 0.02038 0.18692 0.0
C495 C 0.85242 0.05544 0.18454 0.0
C496 C 0.85122 0.0809 0.19017 0.0
C497 C 0.83312 0.07137 0.20332 0.0
H498 H 0.80901 0.05474 0.20552 0.0
H499 H 0.82572 0.10209 0.20349 0.0
H500 H 0.85851 0.06629 0.20668 0.0
O501 O 0.86901 0.93827 0.1974 0.0
O502 O 0.87492 0.93599 0.18574 0.0
H503 H 0.88145 0.09055 0.17684 0.0
H504 H 0.83908 0.06677 0.17373 0.0
C505 C 0.86464 0.06381 0.17712 0.0
H506 H 0.88228 0.04009 0.17507 0.0
H507 H 0.89844 0.95332 0.17178 0.0
O508 O 0.82512 0.98632 0.20915 0.0
C509 C 0.88458 0.92468 0.19187 0.0
Co510 Co 0.77591 0.0871 0.94891 0.0
Co511 Co 0.77624 0.08692 0.93232 0.0
C512 C 0.80721 0.02125 0.94023 0.0
O513 O 0.80001 0.03816 0.94604 0.0
O514 O 0.79841 0.0362 0.93432 0.0
C515 C 0.76047 0.05471 0.96251 0.0
O516 O 0.75782 0.02277 0.95892 0.0
C517 C 0.7676 0.06878 0.91715 0.0
C518 C 0.76264 0.12665 0.91261 0.0
C519 C 0.7631 0.08838 0.91083 0.0
N520 N 0.76938 0.09441 0.92242 0.0
N521 N 0.76644 0.1289 0.91966 0.0
C522 C 0.77312 0.02685 0.91819 0.0
H523 H 0.80137 0.02194 0.92064 0.0
H524 H 0.75116 0.01592 0.92189 0.0
H525 H 0.77195 0.01082 0.91315 0.0
C526 C 0.69408 0.10249 0.94642 0.0
N527 N 0.72965 0.09578 0.94407 0.0
N528 N 0.72927 0.09369 0.93714 0.0
C529 C 0.69313 0.09766 0.93485 0.0
C530 C 0.6695 0.10373 0.94065 0.0
C531 C 0.68442 0.10915 0.95402 0.0
H532 H 0.70748 0.12565 0.9566 0.0
H533 H 0.68193 0.08127 0.95675 0.0
H534 H 0.6572 0.12494 0.95458 0.0
O535 O 0.81272 0.12791 0.94696 0.0
O536 O 0.81433 0.12588 0.93526 0.0
H537 H 0.68644 0.11873 0.92434 0.0
H538 H 0.65075 0.08427 0.9269 0.0
C539 C 0.68129 0.09202 0.92733 0.0
H540 H 0.69847 0.06898 0.9249 0.0
H541 H 0.76718 0.15403 0.92261 0.0
O542 O 0.76753 0.08559 0.95925 0.0
C543 C 0.82608 0.13952 0.9411 0.0
Co544 Co 0.84316 0.52312 0.6979 0.0
Co545 Co 0.84681 0.52415 0.68129 0.0
C546 C 0.77916 0.55431 0.68893 0.0
O547 O 0.79389 0.54603 0.69489 0.0
O548 O 0.79638 0.54695 0.68317 0.0
C549 C 0.80998 0.50823 0.71148 0.0
O550 O 0.77804 0.50645 0.70787 0.0
C551 C 0.82797 0.51383 0.6662 0.0
C552 C 0.88541 0.50988 0.66146 0.0
C553 C 0.84696 0.50873 0.65983 0.0
N554 N 0.8541 0.5173 0.67136 0.0
N555 N 0.88833 0.51509 0.66848 0.0
C556 C 0.78597 0.51779 0.66738 0.0
H557 H 0.78017 0.54588 0.66984 0.0
H558 H 0.77622 0.49548 0.67112 0.0
H559 H 0.76951 0.51599 0.6624 0.0
C560 C 0.85881 0.44138 0.69541 0.0
N561 N 0.85321 0.47712 0.69305 0.0
N562 N 0.85268 0.47696 0.68611 0.0
C563 C 0.85662 0.44079 0.68381 0.0
C564 C 0.86093 0.41691 0.68964 0.0
C565 C 0.86316 0.43134 0.70305 0.0
H566 H 0.87997 0.45367 0.70578 0.0
H567 H 0.83457 0.43003 0.70554 0.0
H568 H 0.87765 0.40347 0.70372 0.0
O569 O 0.88339 0.56102 0.6961 0.0
O570 O 0.88543 0.5621 0.68439 0.0
H571 H 0.87891 0.43554 0.67336 0.0
H572 H 0.84546 0.39845 0.67571 0.0
C573 C 0.85216 0.42918 0.67625 0.0
H574 H 0.82877 0.44569 0.6738 0.0
H575 H 0.91373 0.51696 0.67133 0.0
O576 O 0.84105 0.51455 0.70823 0.0
C577 C 0.89685 0.57427 0.69037 0.0
Co578 Co 0.72654 0.5856 0.94761 0.0
Co579 Co 0.72124 0.59072 0.93104 0.0
C580 C 0.69165 0.52301 0.939 0.0
O581 O 0.70136 0.53758 0.94489 0.0
O582 O 0.69826 0.5401 0.93319 0.0
C583 C 0.73794 0.55305 0.96138 0.0
O584 O 0.73297 0.52068 0.95802 0.0
C585 C 0.73667 0.572 0.91608 0.0
C586 C 0.71583 0.62419 0.9108 0.0
C587 C 0.73169 0.58873 0.90948 0.0
N588 N 0.72444 0.59664 0.92104 0.0
N589 N 0.71213 0.62776 0.91784 0.0
C590 C 0.75052 0.53254 0.91765 0.0
H591 H 0.74213 0.52362 0.92303 0.0
H592 H 0.78207 0.53192 0.91735 0.0
H593 H 0.73915 0.51208 0.9137 0.0
C594 C 0.80837 0.59713 0.94433 0.0
N595 N 0.77176 0.59353 0.94232 0.0
N596 N 0.76949 0.59744 0.93542 0.0
C597 C 0.80448 0.6051 0.93285 0.0
C598 C 0.83045 0.60487 0.9384 0.0
C599 C 0.8219 0.59009 0.95172 0.0
H600 H 0.80691 0.56501 0.95394 0.0
H601 H 0.85298 0.58464 0.95193 0.0
H602 H 0.81494 0.6152 0.95504 0.0
O603 O 0.68918 0.62736 0.94607 0.0
O604 O 0.68528 0.62983 0.93439 0.0
H605 H 0.78905 0.63273 0.92315 0.0
H606 H 0.83963 0.63088 0.92477 0.0
C607 C 0.81245 0.61499 0.9253 0.0
H608 H 0.81434 0.58843 0.92215 0.0
H609 H 0.70078 0.65134 0.92046 0.0
O610 O 0.73726 0.58412 0.95792 0.0
C611 C 0.67498 0.64145 0.94046 0.0
Co612 Co 0.6663 0.47711 0.19784 0.0
Co613 Co 0.66186 0.47391 0.18126 0.0
C614 C 0.73031 0.44564 0.18894 0.0
O615 O 0.71579 0.45445 0.1949 0.0
O616 O 0.71271 0.45223 0.18319 0.0
C617 C 0.67029 0.46138 0.21253 0.0
O618 O 0.66935 0.42594 0.21029 0.0
C619 C 0.67856 0.4827 0.166 0.0
C620 C 0.62028 0.48532 0.1616 0.0
C621 C 0.65839 0.48704 0.15973 0.0
N622 N 0.6534 0.4792 0.17132 0.0
N623 N 0.61866 0.48054 0.16864 0.0
C624 C 0.72083 0.47989 0.16693 0.0
H625 H 0.73119 0.50513 0.16989 0.0
H626 H 0.73597 0.47773 0.16181 0.0
H627 H 0.72764 0.4542 0.17008 0.0
C628 C 0.64774 0.55783 0.19502 0.0
N629 N 0.65502 0.52215 0.19279 0.0
N630 N 0.65527 0.52154 0.18585 0.0
C631 C 0.64951 0.55721 0.18342 0.0
C632 C 0.64422 0.58149 0.18916 0.0
C633 C 0.64251 0.56831 0.20262 0.0
H634 H 0.62618 0.54566 0.20537 0.0
H635 H 0.67085 0.57063 0.20518 0.0
H636 H 0.62708 0.59574 0.2032 0.0
O637 O 0.62634 0.43849 0.19636 0.0
O638 O 0.62396 0.43603 0.18466 0.0
H639 H 0.62569 0.56077 0.17306 0.0
H640 H 0.65839 0.59897 0.17514 0.0
C641 C 0.65265 0.56811 0.1758 0.0
H642 H 0.67615 0.55199 0.17329 0.0
H643 H 0.5938 0.47854 0.17164 0.0
O644 O 0.6695 0.48829 0.20804 0.0
C645 C 0.61282 0.42447 0.19069 0.0
Co646 Co 0.77517 0.40661 0.44837 0.0
Co647 Co 0.77518 0.40601 0.4318 0.0
C648 C 0.80656 0.47191 0.43957 0.0
O649 O 0.79922 0.45534 0.4454 0.0
O650 O 0.79781 0.45666 0.43369 0.0
C651 C 0.7603 0.44007 0.46187 0.0
O652 O 0.75746 0.47162 0.45817 0.0
C653 C 0.76421 0.42384 0.41668 0.0
C654 C 0.76123 0.36581 0.41217 0.0
C655 C 0.75969 0.40407 0.41037 0.0
N656 N 0.76831 0.3983 0.42193 0.0
N657 N 0.76669 0.36372 0.41918 0.0
C658 C 0.76151 0.46595 0.41786 0.0
H659 H 0.75122 0.47203 0.42328 0.0
H660 H 0.74196 0.47927 0.41397 0.0
H661 H 0.79023 0.47877 0.41725 0.0
C662 C 0.69317 0.39155 0.44598 0.0
N663 N 0.72873 0.39785 0.44359 0.0
N664 N 0.72822 0.39951 0.43666 0.0
C665 C 0.69201 0.39549 0.4344 0.0
C666 C 0.66846 0.39001 0.44024 0.0
C667 C 0.68357 0.38575 0.45361 0.0
H668 H 0.70647 0.36919 0.45623 0.0
H669 H 0.68153 0.41392 0.45624 0.0
H670 H 0.65614 0.3704 0.45423 0.0
O671 O 0.81196 0.36566 0.44646 0.0
O672 O 0.81325 0.3671 0.43476 0.0
H673 H 0.68622 0.37395 0.4239 0.0
H674 H 0.64929 0.40725 0.42641 0.0
C675 C 0.68004 0.4005 0.42687 0.0
H676 H 0.69641 0.42407 0.42445 0.0
H677 H 0.76896 0.33865 0.42212 0.0
O678 O 0.76715 0.40885 0.45871 0.0
C679 C 0.82517 0.35376 0.44061 0.0
Co680 Co 0.84424 0.47039 0.801 0.0
Co681 Co 0.84335 0.4716 0.8176 0.0
C682 C 0.77816 0.43972 0.80967 0.0
O683 O 0.79529 0.44641 0.80387 0.0
O684 O 0.79285 0.44906 0.81558 0.0
C685 C 0.81181 0.48505 0.78742 0.0
O686 O 0.78017 0.48823 0.79108 0.0
C687 C 0.82481 0.47945 0.83279 0.0
C688 C 0.88152 0.49314 0.83719 0.0
C689 C 0.84368 0.48814 0.83904 0.0
N690 N 0.85034 0.47992 0.82749 0.0
N691 N 0.88418 0.48787 0.83017 0.0
C692 C 0.78399 0.46818 0.83187 0.0
H693 H 0.78263 0.44096 0.82891 0.0
H694 H 0.76905 0.49024 0.82871 0.0
H695 H 0.76927 0.46418 0.83699 0.0
C696 C 0.85854 0.55268 0.80326 0.0
N697 N 0.85239 0.51717 0.8057 0.0
N698 N 0.84985 0.51816 0.81262 0.0
C699 C 0.85286 0.55462 0.8148 0.0
C700 C 0.85891 0.5778 0.80894 0.0
C701 C 0.86521 0.56184 0.79564 0.0
H702 H 0.88209 0.53881 0.79312 0.0
H703 H 0.83737 0.56375 0.79288 0.0
H704 H 0.88061 0.58927 0.79502 0.0
O705 O 0.88506 0.43389 0.80315 0.0
O706 O 0.88269 0.43347 0.81486 0.0
H707 H 0.87271 0.56445 0.82531 0.0
H708 H 0.83622 0.59728 0.82247 0.0
C709 C 0.84592 0.56722 0.82225 0.0
H710 H 0.82387 0.54901 0.82473 0.0
H711 H 0.9091 0.48997 0.82719 0.0
O712 O 0.84282 0.47791 0.79063 0.0
C713 C 0.89655 0.42118 0.80907 0.0
Co714 Co 0.77316 0.59434 0.0509 0.0
Co715 Co 0.77084 0.59724 0.06749 0.0
C716 C 0.8034 0.53028 0.06002 0.0
O717 O 0.79665 0.54602 0.05409 0.0
O718 O 0.79407 0.54636 0.06581 0.0
C719 C 0.7609 0.56051 0.03732 0.0
O720 O 0.75779 0.52898 0.04102 0.0
C721 C 0.75631 0.57949 0.08251 0.0
C722 C 0.75439 0.63743 0.08708 0.0
C723 C 0.75117 0.59918 0.08882 0.0
N724 N 0.76233 0.60505 0.07733 0.0
N725 N 0.76135 0.63957 0.08011 0.0
C726 C 0.7527 0.53752 0.08127 0.0
H727 H 0.74332 0.5319 0.07577 0.0
H728 H 0.73208 0.52463 0.08501 0.0
H729 H 0.78092 0.52391 0.08205 0.0
C730 C 0.69034 0.60623 0.05285 0.0
N731 N 0.72591 0.60274 0.05543 0.0
N732 N 0.72461 0.6034 0.06237 0.0
C733 C 0.68802 0.60714 0.06444 0.0
C734 C 0.66508 0.6091 0.05847 0.0
C735 C 0.68079 0.60636 0.04515 0.0
H736 H 0.68323 0.57691 0.04306 0.0
H737 H 0.65143 0.61696 0.04421 0.0
H738 H 0.70129 0.62465 0.04226 0.0
O739 O 0.80969 0.63554 0.05296 0.0
O740 O 0.8091 0.63603 0.06468 0.0
H741 H 0.64368 0.60384 0.07243 0.0
H742 H 0.68741 0.57939 0.07449 0.0
C743 C 0.67514 0.6051 0.07197 0.0
H744 H 0.68576 0.63047 0.07485 0.0
H745 H 0.76506 0.66465 0.07723 0.0
O746 O 0.76692 0.59183 0.04051 0.0
C747 C 0.82194 0.64843 0.05882 0.0
Co748 Co 0.65965 0.52545 0.30171 0.0
Co749 Co 0.6618 0.52716 0.31828 0.0
C750 C 0.72673 0.55686 0.30995 0.0
O751 O 0.70924 0.54916 0.30422 0.0
O752 O 0.71227 0.5489 0.31594 0.0
C753 C 0.66529 0.54218 0.28709 0.0
O754 O 0.66908 0.57715 0.28948 0.0
C755 C 0.68233 0.51983 0.33337 0.0
C756 C 0.62546 0.5121 0.33818 0.0
C757 C 0.66392 0.51392 0.33978 0.0
N758 N 0.65588 0.52092 0.32823 0.0
N759 N 0.62198 0.5165 0.33116 0.0
C760 C 0.72385 0.52689 0.33214 0.0
H761 H 0.72727 0.55419 0.32926 0.0
H762 H 0.73563 0.50386 0.32876 0.0
H763 H 0.74016 0.52875 0.33713 0.0
C764 C 0.64438 0.44401 0.30449 0.0
N765 N 0.65125 0.47974 0.30673 0.0
N766 N 0.6543 0.47978 0.31365 0.0
C767 C 0.65086 0.44372 0.31602 0.0
C768 C 0.64413 0.41973 0.31029 0.0
C769 C 0.63681 0.43395 0.29693 0.0
H770 H 0.61918 0.45646 0.29443 0.0
H771 H 0.66428 0.43234 0.29404 0.0
H772 H 0.62177 0.40624 0.29647 0.0
O773 O 0.6194 0.56288 0.3037 0.0
O774 O 0.62248 0.56505 0.3154 0.0
H775 H 0.63145 0.43711 0.32665 0.0
H776 H 0.66601 0.40183 0.32395 0.0
C777 C 0.65778 0.43226 0.32353 0.0
H778 H 0.6809 0.44987 0.32582 0.0
H779 H 0.59644 0.51624 0.32833 0.0
O780 O 0.66066 0.51512 0.29146 0.0
C781 C 0.60836 0.57657 0.30958 0.0
Co782 Co 0.72613 0.4081 0.55128 0.0
Co783 Co 0.7244 0.40743 0.56787 0.0
C784 C 0.69454 0.47367 0.56 0.0
O785 O 0.70208 0.45692 0.55419 0.0
O786 O 0.70283 0.45849 0.56591 0.0
C787 C 0.7419 0.44164 0.53781 0.0
O788 O 0.74358 0.47337 0.54148 0.0
C789 C 0.73323 0.42479 0.58309 0.0
C790 C 0.73806 0.3667 0.58753 0.0
C791 C 0.73822 0.4049 0.58937 0.0
N792 N 0.73073 0.39939 0.57778 0.0
N793 N 0.73349 0.36477 0.58049 0.0
C794 C 0.72836 0.46685 0.58212 0.0
H795 H 0.70081 0.47229 0.57945 0.0
H796 H 0.75133 0.47787 0.57865 0.0
H797 H 0.72845 0.48241 0.58722 0.0
C798 C 0.80766 0.39276 0.55394 0.0
N799 N 0.77188 0.39891 0.55622 0.0
N800 N 0.77176 0.40065 0.56315 0.0
C801 C 0.80782 0.397 0.56551 0.0
C802 C 0.8319 0.39157 0.55975 0.0
C803 C 0.8179 0.38691 0.54634 0.0
H804 H 0.79529 0.3702 0.54367 0.0
H805 H 0.82003 0.41505 0.54369 0.0
H806 H 0.84544 0.37165 0.5458 0.0
O807 O 0.68892 0.3675 0.55303 0.0
O808 O 0.68587 0.36915 0.56473 0.0
H809 H 0.81371 0.37603 0.57605 0.0
H810 H 0.84967 0.41039 0.57357 0.0
C811 C 0.81916 0.40268 0.57306 0.0
H812 H 0.80187 0.42579 0.57543 0.0
H813 H 0.73239 0.33977 0.5775 0.0
O814 O 0.73532 0.41038 0.54097 0.0
C815 C 0.67463 0.35591 0.55881 0.0
Co816 Co 0.16616 0.47072 0.30113 0.0
Co817 Co 0.16788 0.47177 0.31776 0.0
C818 C 0.2337 0.44212 0.30973 0.0
O819 O 0.2162 0.44876 0.30396 0.0
O820 O 0.2189 0.45061 0.31567 0.0
C821 C 0.18711 0.45767 0.2868 0.0
O822 O 0.20705 0.43 0.28965 0.0
C823 C 0.18693 0.48128 0.3329 0.0
C824 C 0.12949 0.48899 0.33748 0.0
C825 C 0.16779 0.48759 0.33921 0.0
N826 N 0.16103 0.47951 0.32767 0.0
N827 N 0.1268 0.48397 0.33045 0.0
C828 C 0.22859 0.47423 0.33184 0.0
H829 H 0.2324 0.44662 0.32908 0.0
H830 H 0.24061 0.4969 0.32841 0.0
H831 H 0.2444 0.47306 0.3369 0.0
C832 C 0.14837 0.55222 0.30349 0.0
N833 N 0.15644 0.51704 0.3059 0.0
N834 N 0.15943 0.51809 0.31282 0.0
C835 C 0.15468 0.5543 0.31502 0.0
C836 C 0.14709 0.57724 0.30919 0.0
C837 C 0.14061 0.561 0.29589 0.0
H838 H 0.12415 0.53739 0.29346 0.0
H839 H 0.16808 0.56353 0.29303 0.0
H840 H 0.12434 0.58793 0.2953 0.0
O841 O 0.12678 0.43263 0.30334 0.0
O842 O 0.12959 0.43261 0.31505 0.0
H843 H 0.1347 0.56223 0.32558 0.0
H844 H 0.16875 0.59766 0.32275 0.0
C845 C 0.16108 0.56703 0.32248 0.0
H846 H 0.18443 0.55022 0.32489 0.0
H847 H 0.10155 0.48371 0.32754 0.0
O848 O 0.16694 0.47891 0.29075 0.0
C849 C 0.1159 0.41976 0.30929 0.0
Co850 Co 0.27028 0.40485 0.05165 0.0
Co851 Co 0.26902 0.40051 0.06825 0.0
C852 C 0.30068 0.46828 0.06093 0.0
O853 O 0.29295 0.45378 0.05492 0.0
O854 O 0.29265 0.45092 0.06665 0.0
C855 C 0.2561 0.43925 0.03813 0.0
O856 O 0.25264 0.47058 0.04188 0.0
C857 C 0.25733 0.41664 0.08343 0.0
C858 C 0.24967 0.35831 0.08761 0.0
C859 C 0.25024 0.39633 0.08959 0.0
N860 N 0.26082 0.39165 0.07807 0.0
N861 N 0.25648 0.35687 0.08063 0.0
C862 C 0.25732 0.45899 0.08247 0.0
H863 H 0.2468 0.46651 0.07713 0.0
H864 H 0.23921 0.47308 0.08651 0.0
H865 H 0.28692 0.46974 0.083 0.0
C866 C 0.188 0.38941 0.05376 0.0
N867 N 0.22351 0.39484 0.05626 0.0
N868 N 0.22252 0.3953 0.0632 0.0
C869 C 0.18611 0.39144 0.06534 0.0
C870 C 0.1629 0.3872 0.05943 0.0
C871 C 0.17877 0.38539 0.04608 0.0
H872 H 0.20155 0.36902 0.04338 0.0
H873 H 0.1773 0.41412 0.04364 0.0
H874 H 0.15113 0.37062 0.04529 0.0
O875 O 0.30789 0.36425 0.05353 0.0
O876 O 0.30691 0.36184 0.06523 0.0
H877 H 0.17857 0.3688 0.07573 0.0
H878 H 0.14306 0.40364 0.07326 0.0
C879 C 0.17361 0.39592 0.07286 0.0
H880 H 0.19049 0.41865 0.07544 0.0
H881 H 0.25757 0.33214 0.07757 0.0
O882 O 0.26311 0.40796 0.04126 0.0
C883 C 0.32006 0.35052 0.05933 0.0
Co884 Co 0.33692 0.52403 0.80133 0.0
Co885 Co 0.3344 0.52184 0.81793 0.0
C886 C 0.26931 0.55272 0.80985 0.0
O887 O 0.28706 0.54654 0.80408 0.0
O888 O 0.28369 0.54351 0.81578 0.0
C889 C 0.30824 0.50221 0.78781 0.0
O890 O 0.27956 0.48948 0.7916 0.0
C891 C 0.31462 0.51146 0.83304 0.0
C892 C 0.37187 0.50316 0.83766 0.0
C893 C 0.33354 0.50471 0.83937 0.0
N894 N 0.34068 0.51334 0.82784 0.0
N895 N 0.3748 0.5085 0.83065 0.0
C896 C 0.27303 0.51881 0.83195 0.0
H897 H 0.26945 0.54651 0.82922 0.0
H898 H 0.26095 0.4963 0.8285 0.0
H899 H 0.25713 0.51994 0.837 0.0
C900 C 0.35397 0.44193 0.80353 0.0
N901 N 0.34599 0.47709 0.80598 0.0
N902 N 0.34258 0.47573 0.81289 0.0
C903 C 0.34674 0.43935 0.81504 0.0
C904 C 0.35451 0.41663 0.80919 0.0
C905 C 0.36276 0.43323 0.79597 0.0
H906 H 0.37754 0.45775 0.79349 0.0
H907 H 0.33575 0.42806 0.79308 0.0
H908 H 0.38098 0.40749 0.79551 0.0
O909 O 0.37657 0.56143 0.8037 0.0
O910 O 0.37321 0.56096 0.8154 0.0
H911 H 0.36579 0.43066 0.82564 0.0
H912 H 0.33158 0.39577 0.82265 0.0
C913 C 0.33961 0.42633 0.82246 0.0
H914 H 0.31626 0.44327 0.82483 0.0
H915 H 0.40013 0.50878 0.82777 0.0
O916 O 0.33639 0.51763 0.79093 0.0
C917 C 0.38729 0.57396 0.80969 0.0
Co918 Co 0.22504 0.59234 0.55116 0.0
Co919 Co 0.22493 0.59396 0.56776 0.0
C920 C 0.19366 0.52757 0.56012 0.0
O921 O 0.2008 0.54391 0.55426 0.0
O922 O 0.20259 0.54305 0.56598 0.0
C923 C 0.23964 0.55789 0.53771 0.0
O924 O 0.24139 0.52635 0.54144 0.0
C925 C 0.23217 0.57858 0.5831 0.0
C926 C 0.24457 0.63647 0.5871 0.0
C927 C 0.24012 0.59896 0.58923 0.0
N928 N 0.23252 0.60296 0.57762 0.0
N929 N 0.23972 0.6375 0.58006 0.0
C930 C 0.22185 0.53733 0.58246 0.0
H931 H 0.19513 0.53468 0.57938 0.0
H932 H 0.24465 0.52213 0.57954 0.0
H933 H 0.21741 0.52377 0.58768 0.0
C934 C 0.30705 0.60695 0.55355 0.0
N935 N 0.27139 0.60123 0.55594 0.0
N936 N 0.27188 0.59967 0.56287 0.0
C937 C 0.30818 0.60288 0.56512 0.0
C938 C 0.33179 0.60801 0.55929 0.0
C939 C 0.31668 0.6126 0.54592 0.0
H940 H 0.29387 0.62922 0.54329 0.0
H941 H 0.31864 0.58438 0.54329 0.0
H942 H 0.34417 0.62784 0.54529 0.0
O943 O 0.18849 0.63356 0.55295 0.0
O944 O 0.18686 0.63268 0.56466 0.0
H945 H 0.31722 0.62424 0.57556 0.0
H946 H 0.35022 0.5873 0.57298 0.0
C947 C 0.32021 0.597 0.57263 0.0
H948 H 0.30177 0.57533 0.57517 0.0
H949 H 0.24158 0.66179 0.5769 0.0
O950 O 0.23338 0.58935 0.54083 0.0
C951 C 0.17514 0.64577 0.55877 0.0
Co952 Co 0.16359 0.52949 0.19782 0.0
Co953 Co 0.1528 0.53396 0.18135 0.0
C954 C 0.2238 0.56269 0.18869 0.0
O955 O 0.21236 0.55242 0.19478 0.0
O956 O 0.2035 0.55712 0.18321 0.0
C957 C 0.19647 0.51263 0.21143 0.0
O958 O 0.2286 0.51018 0.2079 0.0
C959 C 0.17049 0.51577 0.16648 0.0
C960 C 0.11811 0.5353 0.16112 0.0
C961 C 0.15339 0.51885 0.15987 0.0
N962 N 0.1462 0.52945 0.17136 0.0
N963 N 0.11499 0.54109 0.16811 0.0
C964 C 0.20989 0.502 0.16813 0.0
H965 H 0.20998 0.47042 0.16835 0.0
H966 H 0.23017 0.51126 0.16397 0.0
H967 H 0.21947 0.51262 0.17334 0.0
C968 C 0.14969 0.44743 0.19481 0.0
N969 N 0.15295 0.48402 0.19273 0.0
N970 N 0.14672 0.48613 0.18589 0.0
C971 C 0.13796 0.45114 0.18344 0.0
C972 C 0.1399 0.42528 0.18899 0.0
C973 C 0.15931 0.43397 0.2021 0.0
H974 H 0.18712 0.44615 0.20369 0.0
H975 H 0.1613 0.40252 0.20244 0.0
H976 H 0.13739 0.44441 0.20585 0.0
O977 O 0.12281 0.56833 0.19642 0.0
O978 O 0.1146 0.57037 0.1848 0.0
H979 H 0.1094 0.41592 0.17571 0.0
H980 H 0.15124 0.44053 0.1726 0.0
C981 C 0.12573 0.44296 0.17602 0.0
H982 H 0.10766 0.4665 0.17402 0.0
H983 H 0.09158 0.55315 0.17067 0.0
O984 O 0.16573 0.51971 0.20813 0.0
C985 C 0.10624 0.5819 0.19098 0.0
Co986 Co 0.22305 0.41122 0.94845 0.0
Co987 Co 0.22431 0.40453 0.93188 0.0
C988 C 0.1931 0.47358 0.93895 0.0
O989 O 0.2006 0.4601 0.94505 0.0
O990 O 0.2012 0.45517 0.93335 0.0
C991 C 0.23479 0.44578 0.96212 0.0
O992 O 0.23492 0.47792 0.95856 0.0
C993 C 0.2362 0.42003 0.9167 0.0
C994 C 0.23878 0.36146 0.91243 0.0
C995 C 0.24065 0.39948 0.91046 0.0
N996 N 0.2318 0.39517 0.92205 0.0
N997 N 0.23321 0.36025 0.91945 0.0
C998 C 0.23919 0.46224 0.91771 0.0
H999 H 0.24969 0.46884 0.9231 0.0
H1000 H 0.25873 0.47501 0.91375 0.0
H1001 H 0.21054 0.47517 0.91708 0.0
C1002 C 0.30509 0.39416 0.94639 0.0
N1003 N 0.26974 0.40018 0.94386 0.0
N1004 N 0.2707 0.39931 0.93692 0.0
C1005 C 0.30692 0.39386 0.93479 0.0
C1006 C 0.33003 0.39005 0.94073 0.0
C1007 C 0.31422 0.39103 0.95409 0.0
H1008 H 0.29145 0.37483 0.95682 0.0
H1009 H 0.31541 0.42003 0.95642 0.0
H1010 H 0.34187 0.37646 0.95496 0.0
O1011 O 0.18525 0.37058 0.94671 0.0
O1012 O 0.18645 0.3663 0.93503 0.0
H1013 H 0.3126 0.36864 0.92457 0.0
H1014 H 0.35029 0.40177 0.92674 0.0
C1015 C 0.31936 0.39597 0.92724 0.0
H1016 H 0.30374 0.4191 0.92452 0.0
H1017 H 0.23062 0.33557 0.92249 0.0
O1018 O 0.2305 0.41449 0.95883 0.0
C1019 C 0.17324 0.35589 0.94098 0.0
Co1020 Co 0.32999 0.47699 0.69778 0.0
Co1021 Co 0.3413 0.47399 0.6813 0.0
C1022 C 0.26962 0.44568 0.68844 0.0
O1023 O 0.28096 0.45542 0.69456 0.0
O1024 O 0.29024 0.45124 0.683 0.0
C1025 C 0.30712 0.46464 0.71201 0.0
O1026 O 0.28807 0.43654 0.70908 0.0
C1027 C 0.32444 0.49324 0.66645 0.0
C1028 C 0.37618 0.47203 0.66109 0.0
C1029 C 0.3413 0.48931 0.65984 0.0
N1030 N 0.34844 0.47912 0.67134 0.0
N1031 N 0.37932 0.4666 0.66809 0.0
C1032 C 0.28535 0.50789 0.66809 0.0
H1033 H 0.27605 0.49875 0.67341 0.0
H1034 H 0.28561 0.53949 0.668 0.0
H1035 H 0.26469 0.49785 0.66405 0.0
C1036 C 0.34388 0.55918 0.69503 0.0
N1037 N 0.34114 0.52274 0.69284 0.0
N1038 N 0.34765 0.52126 0.686 0.0
C1039 C 0.35631 0.55648 0.68367 0.0
C1040 C 0.35377 0.5819 0.68929 0.0
C1041 C 0.33379 0.57201 0.70233 0.0
H1042 H 0.30996 0.55457 0.70442 0.0
H1043 H 0.3253 0.60246 0.70243 0.0
H1044 H 0.3588 0.56796 0.70584 0.0
O1045 O 0.37019 0.43748 0.69629 0.0
O1046 O 0.37885 0.43689 0.68469 0.0
H1047 H 0.3869 0.5417 0.67425 0.0
H1048 H 0.38563 0.59212 0.67611 0.0
C1049 C 0.36899 0.56524 0.6763 0.0
H1050 H 0.34368 0.56828 0.67285 0.0
H1051 H 0.40237 0.45389 0.67065 0.0
O1052 O 0.32721 0.4863 0.70812 0.0
C1053 C 0.38677 0.42439 0.69082 0.0
Co1054 Co 0.27524 0.59008 0.44826 0.0
Co1055 Co 0.27514 0.59121 0.43169 0.0
C1056 C 0.30654 0.52504 0.43939 0.0
O1057 O 0.29918 0.54141 0.44524 0.0
O1058 O 0.29783 0.5405 0.43352 0.0
C1059 C 0.26065 0.55649 0.46179 0.0
O1060 O 0.2581 0.52483 0.45811 0.0
C1061 C 0.26404 0.57401 0.41653 0.0
C1062 C 0.26084 0.63226 0.41212 0.0
C1063 C 0.25939 0.59409 0.41025 0.0
N1064 N 0.26812 0.5993 0.42182 0.0
N1065 N 0.26636 0.63401 0.41914 0.0
C1066 C 0.26151 0.53184 0.41763 0.0
H1067 H 0.25133 0.52544 0.42305 0.0
H1068 H 0.24194 0.51865 0.41373 0.0
H1069 H 0.29026 0.51915 0.41699 0.0
C1070 C 0.19327 0.60523 0.44591 0.0
N1071 N 0.2288 0.59902 0.4435 0.0
N1072 N 0.22821 0.59755 0.43657 0.0
C1073 C 0.19196 0.60159 0.43433 0.0
C1074 C 0.16849 0.6069 0.44019 0.0
C1075 C 0.18378 0.61084 0.45355 0.0
H1076 H 0.20667 0.62743 0.45617 0.0
H1077 H 0.18186 0.58261 0.45617 0.0
H1078 H 0.15632 0.62611 0.4542 0.0
O1079 O 0.31205 0.63101 0.44638 0.0
O1080 O 0.31322 0.63007 0.43467 0.0
H1081 H 0.18595 0.62345 0.42386 0.0
H1082 H 0.14915 0.58996 0.42635 0.0
C1083 C 0.17989 0.59678 0.4268 0.0
H1084 H 0.19631 0.57334 0.42434 0.0
H1085 H 0.26858 0.65893 0.42212 0.0
O1086 O 0.26727 0.58769 0.4586 0.0
C1087 C 0.3252 0.64317 0.44054 0.0
C1088 C 0.30446 0.9764 0.15197 0.0
C1089 C 0.32686 0.00918 0.15291 0.0
C1090 C 0.291 0.9665 0.14527 0.0
C1091 C 0.27483 0.00485 0.12727 0.0
H1092 H 0.28112 0.89854 0.12178 0.0
C1093 C 0.26396 0.95383 0.0983 0.0
C1094 C 0.24372 0.92003 0.09699 0.0
C1095 C 0.27056 0.96593 0.10522 0.0
C1096 C 0.27864 0.92827 0.12326 0.0
H1097 H 0.3531 0.05706 0.14756 0.0
H1098 H 0.33018 0.0395 0.13585 0.0
H1099 H 0.29902 0.91731 0.1337 0.0
H1100 H 0.21473 0.87227 0.10185 0.0
H1101 H 0.22603 0.89347 0.11396 0.0
H1102 H 0.25506 0.01579 0.11676 0.0
C1103 C 0.32224 0.02187 0.14031 0.0
C1104 C 0.28888 0.93903 0.1301 0.0
C1105 C 0.33566 0.03175 0.147 0.0
C1106 C 0.23023 0.89857 0.10272 0.0
C1107 C 0.23685 0.91061 0.10964 0.0
C1108 C 0.26465 0.99408 0.12041 0.0
C1109 C 0.29992 0.989 0.13935 0.0
C1110 C 0.28734 0.97748 0.13217 0.0
C1111 C 0.25742 0.94424 0.11097 0.0
C1112 C 0.26666 0.95568 0.11833 0.0
H1113 H 0.29822 0.95763 0.15635 0.0
H1114 H 0.27376 0.94106 0.14473 0.0
H1115 H 0.2728 0.03464 0.12873 0.0
H1116 H 0.27593 0.97019 0.09399 0.0
H1117 H 0.28715 0.99156 0.10608 0.0
C1118 C 0.23416 0.05063 0.40057 0.0
C1119 C 0.25168 0.08407 0.40305 0.0
C1120 C 0.24001 0.03839 0.39362 0.0
C1121 C 0.26922 0.07384 0.37607 0.0
H1122 H 0.28991 0.96748 0.37202 0.0
C1123 C 0.28923 0.02001 0.34755 0.0
C1124 C 0.32017 0.99535 0.34645 0.0
C1125 C 0.2771 0.0286 0.3544 0.0
C1126 C 0.28421 0.99729 0.37307 0.0
H1127 H 0.28861 0.13112 0.40019 0.0
H1128 H 0.29897 0.10974 0.38811 0.0
H1129 H 0.27679 0.98727 0.38414 0.0
H1130 H 0.36294 0.96063 0.3516 0.0
H1131 H 0.34207 0.97585 0.36357 0.0
H1132 H 0.27773 0.08414 0.36505 0.0
C1133 C 0.28054 0.09305 0.3915 0.0
C1134 C 0.27635 0.00856 0.38 0.0
C1135 C 0.27475 0.1052 0.39843 0.0
C1136 C 0.33871 0.97939 0.35231 0.0
C1137 C 0.32658 0.9879 0.35916 0.0
C1138 C 0.27698 0.06258 0.36915 0.0
C1139 C 0.26317 0.05957 0.389 0.0
C1140 C 0.26929 0.04706 0.38159 0.0
C1141 C 0.29589 0.01293 0.36029 0.0
C1142 C 0.28501 0.02425 0.36757 0.0
H1143 H 0.21512 0.03442 0.40391 0.0
H1144 H 0.22575 0.0128 0.39181 0.0
H1145 H 0.26338 0.10364 0.37711 0.0
H1146 H 0.27518 0.03368 0.34313 0.0
H1147 H 0.2533 0.0479 0.35509 0.0
C1148 C 0.18976 0.03034 0.65154 0.0
C1149 C 0.16412 -1e-05 0.65246 0.0
C1150 C 0.20238 0.04039 0.64479 0.0
C1151 C 0.20729 0.00491 0.62627 0.0
H1152 H 0.22077 0.11211 0.62193 0.0
C1153 C 0.22239 0.06365 0.59785 0.0
C1154 C 0.25185 0.09009 0.5967 0.0
C1155 C 0.21342 0.05162 0.60469 0.0
C1156 C 0.21745 0.08205 0.62309 0.0
H1157 H 0.13081 0.95712 0.64699 0.0
H1158 H 0.1517 0.97543 0.63523 0.0
H1159 H 0.20172 0.09314 0.63379 0.0
H1160 H 0.29428 0.12536 0.60187 0.0
H1161 H 0.27807 0.10483 0.61381 0.0
H1162 H 0.22198 0.99414 0.61546 0.0
C1163 C 0.16318 0.99069 0.63972 0.0
C1164 C 0.20669 0.07111 0.62989 0.0
C1165 C 0.15089 0.98041 0.64647 0.0
C1166 C 0.27154 0.10481 0.60257 0.0
C1167 C 0.26227 0.09313 0.6094 0.0
C1168 C 0.21762 0.01591 0.61944 0.0
C1169 C 0.18911 0.02083 0.63879 0.0
C1170 C 0.20142 0.03239 0.63157 0.0
C1171 C 0.23317 0.06637 0.61053 0.0
C1172 C 0.22277 0.05458 0.61779 0.0
H1173 H 0.19942 0.04715 0.65596 0.0
H1174 H 0.22252 0.06362 0.64429 0.0
H1175 H 0.20418 0.9748 0.62739 0.0
H1176 H 0.20537 0.05299 0.59353 0.0
H1177 H 0.1903 0.03154 0.60542 0.0
C1178 C 0.18604 0.03638 0.85165 0.0
C1179 C 0.1856 0.00706 0.84663 0.0
C1180 C 0.19951 0.02952 0.85848 0.0
C1181 C 0.25074 0.95685 0.86948 0.0
H1182 H 0.19975 0.00969 0.88476 0.0
C1183 C 0.29087 0.92694 0.89846 0.0
C1184 C 0.26142 0.92747 0.90345 0.0
C1185 C 0.28462 0.94051 0.89162 0.0
C1186 C 0.21405 0.99428 0.88058 0.0
H1187 H 0.19807 0.94762 0.84471 0.0
H1188 H 0.21995 0.93483 0.85669 0.0
H1189 H 0.18309 0.02448 0.87267 0.0
H1190 H 0.20233 0.94166 0.9053 0.0
H1191 H 0.19055 0.96372 0.89329 0.0
H1192 H 0.2796 0.92462 0.87739 0.0
C1193 C 0.21159 0.96364 0.85536 0.0
C1194 C 0.20499 0.00334 0.87359 0.0
C1195 C 0.19893 0.97081 0.84849 0.0
C1196 C 0.22562 0.94173 0.90154 0.0
C1197 C 0.21904 0.95452 0.89466 0.0
C1198 C 0.25921 0.94722 0.87646 0.0
C1199 C 0.21177 0.99282 0.86048 0.0
C1200 C 0.223 0.98457 0.86793 0.0
C1201 C 0.24839 0.95387 0.88957 0.0
C1202 C 0.24079 0.96559 0.88212 0.0
H1203 H 0.17583 0.06459 0.85029 0.0
H1204 H 0.19997 0.05299 0.86219 0.0
H1205 H 0.26584 0.94222 0.8653 0.0
H1206 H 0.31874 0.91599 0.89986 0.0
H1207 H 0.30821 0.94028 0.88794 0.0
C1208 C 0.7331 0.04357 0.90217 0.0
C1209 C 0.75871 0.0733 0.9036 0.0
C1210 C 0.72688 0.03157 0.89523 0.0
C1211 C 0.73433 0.06635 0.87689 0.0
H1212 H 0.71681 0.96027 0.87213 0.0
C1213 C 0.7083 0.01787 0.84821 0.0
C1214 C 0.6777 0.99267 0.84722 0.0
C1215 C 0.72194 0.02551 0.855 0.0
C1216 C 0.72149 0.99002 0.87339 0.0
H1217 H 0.79792 0.11383 0.89897 0.0
H1218 H 0.78772 0.09249 0.88684 0.0
H1219 H 0.73416 0.9775 0.88421 0.0
H1220 H 0.63709 0.95597 0.85249 0.0
H1221 H 0.66079 0.96933 0.86437 0.0
H1222 H 0.72134 0.07893 0.86611 0.0
C1223 C 0.77211 0.07861 0.89105 0.0
C1224 C 0.73136 -9e-05 0.88031 0.0
C1225 C 0.77814 0.09071 0.89799 0.0
C1226 C 0.66102 0.97518 0.85312 0.0
C1227 C 0.67475 0.98265 0.85991 0.0
C1228 C 0.72462 0.05646 0.86998 0.0
C1229 C 0.74606 0.04921 0.88957 0.0
C1230 C 0.73755 0.03825 0.88215 0.0
C1231 C 0.70511 0.00821 0.86092 0.0
C1232 C 0.71774 0.01824 0.86817 0.0
H1233 H 0.71684 0.03054 0.90639 0.0
H1234 H 0.70606 0.00938 0.89427 0.0
H1235 H 0.73821 0.09622 0.87815 0.0
H1236 H 0.72092 0.03262 0.84376 0.0
H1237 H 0.74542 0.04527 0.85561 0.0
C1238 C 0.64306 0.01297 0.64807 0.0
C1239 C 0.66263 0.99887 0.65399 0.0
C1240 C 0.65566 0.0045 0.64125 0.0
C1241 C 0.71302 0.934 0.63142 0.0
H1242 H 0.70929 0.00957 0.61648 0.0
C1243 C 0.7754 0.9051 0.6038 0.0
C1244 C 0.75322 0.91632 0.59798 0.0
C1245 C 0.76584 0.91681 0.61062 0.0
C1246 C 0.71022 0.9881 0.62059 0.0
H1247 H 0.70961 0.96329 0.65741 0.0
H1248 H 0.73252 0.94959 0.64552 0.0
H1249 H 0.69029 0.02717 0.62845 0.0
H1250 H 0.70258 0.94746 0.59484 0.0
H1251 H 0.68629 0.96846 0.60672 0.0
H1252 H 0.73289 0.89494 0.62356 0.0
C1253 C 0.70747 0.96731 0.64613 0.0
C1254 C 0.69931 0.99815 0.62744 0.0
C1255 C 0.69478 0.97572 0.65295 0.0
C1256 C 0.72116 0.93949 0.59914 0.0
C1257 C 0.71164 0.95131 0.60597 0.0
C1258 C 0.72404 0.92401 0.62458 0.0
C1259 C 0.68795 0.98143 0.64019 0.0
C1260 C 0.70046 0.97117 0.63294 0.0
C1261 C 0.73372 0.93987 0.61179 0.0
C1262 C 0.72267 0.9509 0.61908 0.0
H1263 H 0.61786 0.03046 0.64872 0.0
H1264 H 0.63954 0.01529 0.6368 0.0
H1265 H 0.71358 0.9123 0.63548 0.0
H1266 H 0.80027 0.88721 0.60308 0.0
H1267 H 0.78367 0.90784 0.61498 0.0
C1268 C 0.72504 0.90657 0.39841 0.0
C1269 C 0.7458 0.9224 0.40402 0.0
C1270 C 0.73148 0.91861 0.39148 0.0
C1271 C 0.77608 0.99532 0.38079 0.0
H1272 H 0.77982 0.91682 0.36638 0.0
C1273 C 0.84307 0.01868 0.35324 0.0
C1274 C 0.82472 0.0023 0.3474 0.0
C1275 C 0.83021 0.0113 0.36009 0.0
C1276 C 0.77832 0.93919 0.37031 0.0
H1277 H 0.79048 0.96224 0.4068 0.0
H1278 H 0.8019 0.98337 0.39469 0.0
H1279 H 0.76346 0.89973 0.37846 0.0
H1280 H 0.77938 0.96431 0.34412 0.0
H1281 H 0.75634 0.95192 0.35608 0.0
H1282 H 0.79174 0.03464 0.37263 0.0
C1283 C 0.77979 0.96247 0.39565 0.0
C1284 C 0.76892 0.9294 0.37725 0.0
C1285 C 0.7732 0.9505 0.40259 0.0
C1286 C 0.79332 0.97825 0.34852 0.0
C1287 C 0.78052 0.97073 0.35537 0.0
C1288 C 0.78561 0.0051 0.37385 0.0
C1289 C 0.75925 0.94639 0.39 0.0
C1290 C 0.76787 0.95729 0.38258 0.0
C1291 C 0.79901 0.98694 0.36124 0.0
C1292 C 0.78705 0.97709 0.36854 0.0
H1293 H 0.70387 0.88471 0.39938 0.0
H1294 H 0.71478 0.90599 0.38728 0.0
H1295 H 0.775 0.0176 0.38474 0.0
H1296 H 0.86763 0.03698 0.35252 0.0
H1297 H 0.84544 0.02377 0.3645 0.0
C1298 C 0.7989 0.02879 0.15261 0.0
C1299 C 0.82267 0.99709 0.15369 0.0
C1300 C 0.78692 0.03864 0.14581 0.0
C1301 C 0.78 0.00183 0.12741 0.0
H1302 H 0.77861 0.10929 0.12265 0.0
C1303 C 0.73166 0.05704 0.09996 0.0
C1304 C 0.75252 0.08751 0.0971 0.0
C1305 C 0.73797 0.04527 0.10693 0.0
C1306 C 0.77911 0.07913 0.12387 0.0
H1307 H 0.85288 0.95119 0.14845 0.0
H1308 H 0.83292 0.96894 0.13659 0.0
H1309 H 0.79378 0.08983 0.13463 0.0
H1310 H 0.79621 0.12956 0.09925 0.0
H1311 H 0.80787 0.10863 0.11131 0.0
H1312 H 0.76688 0.99115 0.11655 0.0
C1313 C 0.82256 0.9856 0.14101 0.0
C1314 C 0.78726 0.06797 0.13078 0.0
C1315 C 0.83434 0.97564 0.14781 0.0
C1316 C 0.77967 0.10602 0.10133 0.0
C1317 C 0.78616 0.09415 0.10825 0.0
C1318 C 0.77205 0.013 0.12047 0.0
C1319 C 0.79886 0.01736 0.13991 0.0
C1320 C 0.78814 0.02917 0.13263 0.0
C1321 C 0.76523 0.0638 0.11117 0.0
C1322 C 0.77191 0.05179 0.1186 0.0
H1323 H 0.79043 0.04684 0.15695 0.0
H1324 H 0.7685 0.06317 0.14518 0.0
H1325 H 0.77992 0.97171 0.12866 0.0
H1326 H 0.70978 0.04294 0.0969 0.0
H1327 H 0.7209 0.02221 0.10904 0.0
C1328 C 0.80178 0.47487 0.65175 0.0
C1329 C 0.83109 0.50156 0.65274 0.0
C1330 C 0.78852 0.4665 0.64497 0.0
C1331 C 0.78671 0.50247 0.62661 0.0
H1332 H 0.77153 0.39605 0.62184 0.0
C1333 C 0.77004 0.44951 0.59785 0.0
C1334 C 0.74431 0.41965 0.59658 0.0
C1335 C 0.77785 0.46126 0.60476 0.0
C1336 C 0.77502 0.42596 0.62311 0.0
H1337 H 0.8701 0.53989 0.64744 0.0
H1338 H 0.8471 0.52522 0.63556 0.0
H1339 H 0.78991 0.41342 0.63381 0.0
H1340 H 0.7067 0.37852 0.60148 0.0
H1341 H 0.71975 0.39937 0.61355 0.0
H1342 H 0.77205 0.51496 0.61588 0.0
C1343 C 0.83378 0.51132 0.64003 0.0
C1344 C 0.78561 0.43591 0.62997 0.0
C1345 C 0.84711 0.51956 0.64682 0.0
C1346 C 0.7265 0.40177 0.60233 0.0
C1347 C 0.73417 0.41358 0.60923 0.0
C1348 C 0.77601 0.49253 0.61974 0.0
C1349 C 0.80451 0.4845 0.63903 0.0
C1350 C 0.79179 0.47424 0.63179 0.0
C1351 C 0.76025 0.4432 0.61053 0.0
C1352 C 0.77024 0.45411 0.61789 0.0
H1353 H 0.78977 0.45968 0.65621 0.0
H1354 H 0.76588 0.44578 0.64437 0.0
H1355 H 0.79081 0.5323 0.62787 0.0
H1356 H 0.78517 0.46288 0.59352 0.0
H1357 H 0.79866 0.48363 0.60557 0.0
C1358 C 0.84897 0.48093 0.8521 0.0
C1359 C 0.82804 0.49334 0.84622 0.0
C1360 C 0.83581 0.48801 0.85894 0.0
C1361 C 0.7741 0.554 0.86881 0.0
H1362 H 0.78468 0.47979 0.88386 0.0
C1363 C 0.71602 0.58276 0.8967 0.0
C1364 C 0.73991 0.57321 0.90238 0.0
C1365 C 0.72443 0.57039 0.88987 0.0
C1366 C 0.78179 0.50088 0.87972 0.0
H1367 H 0.77769 0.52419 0.84287 0.0
H1368 H 0.75403 0.53558 0.85479 0.0
H1369 H 0.80324 0.4627 0.87184 0.0
H1370 H 0.79209 0.54409 0.90529 0.0
H1371 H 0.80663 0.52215 0.89339 0.0
H1372 H 0.75307 0.59231 0.87667 0.0
C1373 C 0.78057 0.52022 0.85413 0.0
C1374 C 0.79241 0.49111 0.87283 0.0
C1375 C 0.79377 0.51314 0.8473 0.0
C1376 C 0.77236 0.55084 0.90109 0.0
C1377 C 0.78083 0.53844 0.89425 0.0
C1378 C 0.76346 0.56374 0.87567 0.0
C1379 C 0.8016 0.50803 0.86004 0.0
C1380 C 0.78887 0.51764 0.86731 0.0
C1381 C 0.75715 0.54841 0.88855 0.0
C1382 C 0.76735 0.53737 0.88122 0.0
H1383 H 0.87574 0.466 0.85142 0.0
H1384 H 0.85302 0.47877 0.86337 0.0
H1385 H 0.77166 0.57536 0.8647 0.0
H1386 H 0.69076 0.59996 0.89753 0.0
H1387 H 0.70535 0.57816 0.88561 0.0
C1388 C 0.7594 0.55048 0.09846 0.0
C1389 C 0.74283 0.58437 0.09597 0.0
C1390 C 0.75246 0.53801 0.10536 0.0
C1391 C 0.72171 0.57371 0.12282 0.0
H1392 H 0.70213 0.46718 0.1269 0.0
C1393 C 0.7027 0.52019 0.15136 0.0
C1394 C 0.67277 0.4944 0.15252 0.0
C1395 C 0.71425 0.52904 0.14449 0.0
C1396 C 0.70743 0.49705 0.12584 0.0
H1397 H 0.70615 0.63178 0.09873 0.0
H1398 H 0.69372 0.60991 0.11072 0.0
H1399 H 0.71538 0.48697 0.11478 0.0
H1400 H 0.63101 0.45813 0.14745 0.0
H1401 H 0.65074 0.47395 0.13544 0.0
H1402 H 0.71266 0.58409 0.13381 0.0
C1403 C 0.71238 0.59311 0.10739 0.0
C1404 C 0.7154 0.50832 0.11891 0.0
C1405 C 0.71934 0.60555 0.10051 0.0
C1406 C 0.6545 0.47775 0.14669 0.0
C1407 C 0.666 0.48661 0.13982 0.0
C1408 C 0.71377 0.56247 0.12974 0.0
C1409 C 0.72905 0.55934 0.10992 0.0
C1410 C 0.72223 0.54686 0.11731 0.0
C1411 C 0.6958 0.51264 0.13863 0.0
C1412 C 0.70622 0.52406 0.13132 0.0
H1413 H 0.77863 0.53417 0.09518 0.0
H1414 H 0.76621 0.51218 0.10719 0.0
H1415 H 0.7274 0.60355 0.12179 0.0
H1416 H 0.71644 0.53448 0.15574 0.0
H1417 H 0.7374 0.54908 0.14376 0.0
C1418 C 0.73003 0.39784 0.39848 0.0
C1419 C 0.75294 0.41882 0.40315 0.0
C1420 C 0.72419 0.4104 0.39158 0.0
C1421 C 0.72737 0.49549 0.38028 0.0
H1422 H 0.72687 0.42063 0.36521 0.0
C1423 C 0.6621 0.52375 0.3528 0.0
C1424 C 0.68033 0.50813 0.34687 0.0
C1425 C 0.67531 0.51574 0.3596 0.0
C1426 C 0.7274 0.44201 0.36933 0.0
H1427 H 0.78909 0.46869 0.40414 0.0
H1428 H 0.77834 0.49106 0.39209 0.0
H1429 H 0.74203 0.40082 0.3772 0.0
H1430 H 0.72598 0.47102 0.34339 0.0
H1431 H 0.74975 0.45776 0.35525 0.0
H1432 H 0.71267 0.53669 0.37239 0.0
C1433 C 0.76429 0.46523 0.39383 0.0
C1434 C 0.73562 0.43056 0.37622 0.0
C1435 C 0.77022 0.45256 0.40075 0.0
C1436 C 0.71213 0.48445 0.34786 0.0
C1437 C 0.72535 0.47639 0.35465 0.0
C1438 C 0.71904 0.50696 0.37338 0.0
C1439 C 0.74134 0.44416 0.38916 0.0
C1440 C 0.73515 0.45704 0.38179 0.0
C1441 C 0.70679 0.49156 0.36061 0.0
C1442 C 0.71851 0.48024 0.36784 0.0
H1443 H 0.71633 0.37171 0.40018 0.0
H1444 H 0.70589 0.39381 0.38815 0.0
H1445 H 0.72663 0.51653 0.38447 0.0
H1446 H 0.63723 0.54175 0.35218 0.0
H1447 H 0.65998 0.52738 0.36407 0.0
C1448 C 0.21495 0.51729 0.34748 0.0
C1449 C 0.18335 0.4935 0.34638 0.0
C1450 C 0.22749 0.52523 0.35433 0.0
C1451 C 0.21991 0.4936 0.37297 0.0
H1452 H 0.2425 0.59951 0.37709 0.0
C1453 C 0.27004 0.54615 0.40054 0.0
C1454 C 0.2527 0.57973 0.40301 0.0
C1455 C 0.26428 0.53394 0.39359 0.0
C1456 C 0.23619 0.56982 0.37603 0.0
H1457 H 0.13988 0.45959 0.35151 0.0
H1458 H 0.16147 0.4737 0.36349 0.0
H1459 H 0.22802 0.58048 0.36502 0.0
H1460 H 0.21613 0.627 0.40011 0.0
H1461 H 0.20599 0.60571 0.38802 0.0
H1462 H 0.22697 0.48328 0.38405 0.0
C1463 C 0.17714 0.48555 0.35908 0.0
C1464 C 0.22835 0.55883 0.36909 0.0
C1465 C 0.1646 0.47769 0.35223 0.0
C1466 C 0.22987 0.60099 0.39836 0.0
C1467 C 0.2242 0.58889 0.39143 0.0
C1468 C 0.22787 0.50461 0.37992 0.0
C1469 C 0.20846 0.50978 0.36021 0.0
C1470 C 0.21964 0.52069 0.3675 0.0
C1471 C 0.24145 0.55532 0.38895 0.0
C1472 C 0.23551 0.54296 0.38153 0.0
H1473 H 0.2292 0.53084 0.34308 0.0
H1474 H 0.25177 0.54391 0.35503 0.0
H1475 H 0.21367 0.46392 0.3719 0.0
H1476 H 0.28886 0.52981 0.4039 0.0
H1477 H 0.2784 0.50824 0.39179 0.0
C1478 C 0.1919 0.47603 0.15192 0.0
C1479 C 0.16819 0.50794 0.15282 0.0
C1480 C 0.20415 0.46527 0.14518 0.0
C1481 C 0.21218 0.49976 0.12665 0.0
H1482 H 0.21426 0.39172 0.12237 0.0
C1483 C 0.2631 0.44155 0.0996 0.0
C1484 C 0.24259 0.41072 0.09679 0.0
C1485 C 0.25621 0.45398 0.10651 0.0
C1486 C 0.21356 0.42203 0.12345 0.0
H1487 H 0.13826 0.55317 0.14733 0.0
H1488 H 0.1587 0.53382 0.13559 0.0
H1489 H 0.19798 0.41267 0.13422 0.0
H1490 H 0.19901 0.3686 0.09897 0.0
H1491 H 0.18632 0.39069 0.11092 0.0
H1492 H 0.22623 0.50908 0.11579 0.0
C1493 C 0.16882 0.51773 0.14009 0.0
C1494 C 0.20478 0.43405 0.13029 0.0
C1495 C 0.15678 0.52861 0.14683 0.0
C1496 C 0.21528 0.39243 0.10101 0.0
C1497 C 0.2082 0.40497 0.10788 0.0
C1498 C 0.22076 0.48773 0.11979 0.0
C1499 C 0.19252 0.48579 0.13918 0.0
C1500 C 0.20369 0.47307 0.13197 0.0
C1501 C 0.22868 0.43579 0.11074 0.0
C1502 C 0.2212 0.44871 0.11809 0.0
H1503 H 0.20014 0.45853 0.15635 0.0
H1504 H 0.22256 0.44063 0.14469 0.0
H1505 H 0.21211 0.53003 0.12777 0.0
H1506 H 0.2851 0.45549 0.09654 0.0
H1507 H 0.27297 0.47737 0.10858 0.0
C1508 C 0.33661 0.5143 0.85239 0.0
C1509 C 0.3178 0.49876 0.84652 0.0
C1510 C 0.32397 0.50639 0.85923 0.0
C1511 C 0.27213 0.43341 0.86922 0.0
H1512 H 0.27379 0.509 0.88417 0.0
C1513 C 0.26979 0.39164 0.89855 0.0
C1514 C 0.24728 0.41335 0.90318 0.0
C1515 C 0.27553 0.40343 0.8916 0.0
C1516 C 0.27282 0.48766 0.88004 0.0
H1517 H 0.27172 0.46182 0.84318 0.0
H1518 H 0.249 0.44859 0.85513 0.0
H1519 H 0.28739 0.52822 0.87203 0.0
H1520 H 0.21158 0.46363 0.90401 0.0
H1521 H 0.22218 0.48466 0.89188 0.0
H1522 H 0.25762 0.39284 0.87722 0.0
C1523 C 0.27341 0.46713 0.85445 0.0
C1524 C 0.28094 0.49859 0.8731 0.0
C1525 C 0.28603 0.47515 0.8476 0.0
C1526 C 0.23022 0.44698 0.90067 0.0
C1527 C 0.23605 0.45887 0.8937 0.0
C1528 C 0.26414 0.42248 0.87616 0.0
C1529 C 0.29248 0.48235 0.86034 0.0
C1530 C 0.28111 0.47149 0.86763 0.0
C1531 C 0.25868 0.43714 0.88908 0.0
C1532 C 0.26488 0.44936 0.88166 0.0
H1533 H 0.36145 0.53225 0.8517 0.0
H1534 H 0.33967 0.51807 0.86365 0.0
H1535 H 0.27237 0.41175 0.86515 0.0
H1536 H 0.28328 0.36556 0.90032 0.0
H1537 H 0.29355 0.38631 0.8882 0.0
C1538 C 0.33513 0.47654 0.64694 0.0
C1539 C 0.3261 0.4994 0.65279 0.0
C1540 C 0.32226 0.48626 0.64019 0.0
C1541 C 0.28984 0.5687 0.62975 0.0
H1542 H 0.25589 0.49121 0.61657 0.0
C1543 C 0.23175 0.60728 0.60221 0.0
C1544 C 0.24493 0.58509 0.59654 0.0
C1545 C 0.23846 0.59593 0.60917 0.0
C1546 C 0.26554 0.51313 0.62018 0.0
H1547 H 0.29773 0.55136 0.65609 0.0
H1548 H 0.27425 0.5677 0.64438 0.0
H1549 H 0.27319 0.47312 0.62859 0.0
H1550 H 0.27685 0.53448 0.5937 0.0
H1551 H 0.28821 0.51432 0.60585 0.0
H1552 H 0.28254 0.60865 0.62133 0.0
C1553 C 0.29122 0.54214 0.64501 0.0
C1554 C 0.27547 0.50278 0.62706 0.0
C1555 C 0.30412 0.53239 0.65175 0.0
C1556 C 0.26508 0.55138 0.59796 0.0
C1557 C 0.27176 0.53997 0.60492 0.0
C1558 C 0.27986 0.57905 0.62288 0.0
C1559 C 0.30027 0.51927 0.63914 0.0
C1560 C 0.28801 0.53041 0.63192 0.0
C1561 C 0.25881 0.56229 0.61061 0.0
C1562 C 0.26785 0.55136 0.61799 0.0
H1563 H 0.35226 0.45107 0.64756 0.0
H1564 H 0.3303 0.46835 0.63578 0.0
H1565 H 0.29998 0.59061 0.63332 0.0
H1566 H 0.21635 0.63355 0.60125 0.0
H1567 H 0.2278 0.61357 0.61342 0.0
C1568 C 0.2649 0.60798 0.18194 0.0
C1569 C 0.25827 0.58685 0.18812 0.0
C1570 C 0.29141 0.63762 0.18191 0.0
C1571 C 0.33169 0.70521 0.19472 0.0
H1572 H 0.37314 0.75008 0.17766 0.0
C1573 C 0.38195 0.86177 0.19359 0.0
C1574 C 0.36102 0.88228 0.18854 0.0
C1575 C 0.38215 0.82188 0.19349 0.0
C1576 C 0.36214 0.73766 0.18249 0.0
H1577 H 0.27767 0.57712 0.19885 0.0
H1578 H 0.32501 0.62794 0.19871 0.0
H1579 H 0.35323 0.68337 0.17762 0.0
H1580 H 0.32514 0.87736 0.17927 0.0
H1581 H 0.32649 0.80791 0.17895 0.0
H1582 H 0.33993 0.75984 0.19952 0.0
C1583 C 0.30858 0.62269 0.19397 0.0
C1584 C 0.3505 0.69955 0.18247 0.0
C1585 C 0.28161 0.59334 0.19404 0.0
C1586 C 0.3419 0.86231 0.18318 0.0
C1587 C 0.3427 0.82258 0.183 0.0
C1588 C 0.34393 0.74307 0.19477 0.0
C1589 C 0.31239 0.6465 0.18803 0.0
C1590 C 0.3334 0.68336 0.18849 0.0
C1591 C 0.36214 0.80197 0.18823 0.0
C1592 C 0.3577 0.76007 0.18857 0.0
H1593 H 0.24762 0.60362 0.17727 0.0
H1594 H 0.29317 0.65528 0.17723 0.0
H1595 H 0.31833 0.69414 0.19945 0.0
H1596 H 0.39753 0.87657 0.1977 0.0
H1597 H 0.39739 0.80657 0.19758 0.0
C1598 C 0.39663 0.09097 0.44563 0.0
C1599 C 0.37564 0.11322 0.44085 0.0
C1600 C 0.43637 0.09172 0.44555 0.0
C1601 C 0.51266 0.09334 0.43375 0.0
H1602 H 0.57701 0.11007 0.4501 0.0
C1603 C 0.66171 0.02881 0.43419 0.0
C1604 C 0.67006 0.00935 0.44049 0.0
C1605 C 0.63257 0.05604 0.434 0.0
C1606 C 0.55953 0.10514 0.44548 0.0
H1607 H 0.37973 0.15486 0.43242 0.0
H1608 H 0.44968 0.15423 0.43199 0.0
H1609 H 0.51025 0.12968 0.45042 0.0
H1610 H 0.65676 0.00595 0.45167 0.0
H1611 H 0.60549 0.05154 0.45129 0.0
H1612 H 0.56007 0.06533 0.42902 0.0
C1613 C 0.43509 0.13692 0.43588 0.0
C1614 C 0.52145 0.11675 0.44566 0.0
C1615 C 0.39524 0.13695 0.43609 0.0
C1616 C 0.65097 0.02011 0.44671 0.0
C1617 C 0.62152 0.04675 0.44649 0.0
C1618 C 0.55044 0.08087 0.43363 0.0
C1619 C 0.45587 0.11406 0.44058 0.0
C1620 C 0.4975 0.1098 0.43988 0.0
C1621 C 0.61077 0.06392 0.44007 0.0
C1622 C 0.574 0.08518 0.4396 0.0
H1623 H 0.38242 0.07184 0.44926 0.0
H1624 H 0.45191 0.07337 0.44914 0.0
H1625 H 0.49449 0.08746 0.42926 0.0
H1626 H 0.67636 0.02172 0.42934 0.0
H1627 H 0.62597 0.06951 0.429 0.0
C1628 C 0.21148 0.4153 0.69369 0.0
C1629 C 0.23499 0.42182 0.6878 0.0
C1630 C 0.18461 0.38587 0.6936 0.0
C1631 C 0.14346 0.30857 0.68211 0.0
H1632 H 0.15505 0.24843 0.69916 0.0
C1633 C 0.15244 0.14579 0.68274 0.0
C1634 C 0.13406 0.12572 0.68817 0.0
C1635 C 0.15156 0.18553 0.68258 0.0
C1636 C 0.15076 0.26514 0.69441 0.0
H1637 H 0.24594 0.40514 0.67695 0.0
H1638 H 0.2005 0.35335 0.67687 0.0
H1639 H 0.17593 0.31434 0.69907 0.0
H1640 H 0.09906 0.13129 0.69754 0.0
H1641 H 0.0989 0.20123 0.69743 0.0
H1642 H 0.12115 0.25783 0.67733 0.0
C1643 C 0.2021 0.37103 0.68155 0.0
C1644 C 0.16258 0.30313 0.69436 0.0
C1645 C 0.22853 0.40075 0.6816 0.0
C1646 C 0.11396 0.14614 0.69335 0.0
C1647 C 0.11361 0.18602 0.69326 0.0
C1648 C 0.13218 0.27035 0.68215 0.0
C1649 C 0.18108 0.36202 0.68766 0.0
C1650 C 0.16048 0.32495 0.68812 0.0
C1651 C 0.13277 0.20604 0.68791 0.0
C1652 C 0.137 0.24798 0.68823 0.0
H1653 H 0.21528 0.43147 0.69851 0.0
H1654 H 0.16812 0.38052 0.69833 0.0
H1655 H 0.1405 0.32472 0.67727 0.0
H1656 H 0.16871 0.13084 0.67874 0.0
H1657 H 0.16717 0.20026 0.67846 0.0
C1658 C 0.10698 0.90981 0.94496 0.0
C1659 C 0.12806 0.88732 0.94023 0.0
C1660 C 0.06727 0.90885 0.94489 0.0
C1661 C 0.98987 0.90496 0.93331 0.0
H1662 H 0.92779 0.88912 0.94999 0.0
C1663 C 0.83959 0.96657 0.93412 0.0
C1664 C 0.83174 0.98688 0.94035 0.0
C1665 C 0.86924 0.93991 0.93392 0.0
C1666 C 0.94461 0.89377 0.94527 0.0
H1667 H 0.12418 0.8453 0.93187 0.0
H1668 H 0.05413 0.84554 0.93146 0.0
H1669 H 0.99485 0.87056 0.9501 0.0
H1670 H 0.84651 0.9924 0.95143 0.0
H1671 H 0.89861 0.94764 0.95104 0.0
H1672 H 0.94139 0.93163 0.92867 0.0
C1673 C 0.06868 0.86321 0.9353 0.0
C1674 C 0.98288 0.88276 0.94533 0.0
C1675 C 0.10857 0.86339 0.93549 0.0
C1676 C 0.85187 0.9775 0.94652 0.0
C1677 C 0.88181 0.95138 0.9463 0.0
C1678 C 0.95186 0.91679 0.93329 0.0
C1679 C 0.04782 0.88605 0.93999 0.0
C1680 C 0.00604 0.88945 0.93943 0.0
C1681 C 0.89202 0.93342 0.93993 0.0
C1682 C 0.92911 0.91279 0.93938 0.0
H1683 H 0.12114 0.92905 0.94858 0.0
H1684 H 0.05168 0.92721 0.94848 0.0
H1685 H 0.00739 0.91065 0.92871 0.0
H1686 H 0.82412 0.97259 0.9293 0.0
H1687 H 0.87544 0.92579 0.92897 0.0
C1688 C 0.33963 0.14157 0.30401 0.0
C1689 C 0.35898 0.11958 0.30906 0.0
C1690 C 0.34221 0.18126 0.30411 0.0
C1691 C 0.34589 0.25781 0.31617 0.0
H1692 H 0.36501 0.32092 0.29974 0.0
C1693 C 0.28839 0.40938 0.31578 0.0
C1694 C 0.26843 0.41808 0.30955 0.0
C1695 C 0.31472 0.37942 0.3159 0.0
C1696 C 0.35946 0.3038 0.30438 0.0
H1697 H 0.39734 0.12178 0.31802 0.0
H1698 H 0.39998 0.19166 0.31845 0.0
H1699 H 0.38122 0.25323 0.29944 0.0
H1700 H 0.26374 0.40485 0.29839 0.0
H1701 H 0.3078 0.35226 0.29865 0.0
H1702 H 0.32071 0.30674 0.32091 0.0
C1703 C 0.38347 0.1779 0.31435 0.0
C1704 C 0.36908 0.26514 0.30421 0.0
C1705 C 0.38164 0.13808 0.31413 0.0
C1706 C 0.2782 0.39876 0.30331 0.0
C1707 C 0.30396 0.36851 0.30345 0.0
C1708 C 0.33545 0.29621 0.31629 0.0
C1709 C 0.36352 0.19976 0.30936 0.0
C1710 C 0.36117 0.24164 0.31002 0.0
C1711 C 0.3212 0.35718 0.30983 0.0
C1712 C 0.34065 0.31942 0.31029 0.0
H1713 H 0.32134 0.12822 0.30012 0.0
H1714 H 0.32602 0.19759 0.30029 0.0
H1715 H 0.3393 0.24009 0.32069 0.0
H1716 H 0.28216 0.42424 0.32065 0.0
H1717 H 0.32839 0.37242 0.32086 0.0
C1718 C 0.85205 0.01471 0.56851 0.0
C1719 C 0.82993 0.00816 0.56245 0.0
C1720 C 0.8819 0.04098 0.56836 0.0
C1721 C 0.94791 0.07978 0.55515 0.0
H1722 H 0.99532 0.12276 0.57184 0.0
C1723 C 0.10478 0.13001 0.5554 0.0
C1724 C 0.12594 0.11086 0.5606 0.0
C1725 C 0.06491 0.12958 0.55559 0.0
C1726 C 0.9822 0.11128 0.56712 0.0
H1727 H 0.81867 0.0275 0.55177 0.0
H1728 H 0.86991 0.07434 0.55159 0.0
H1729 H 0.92861 0.10307 0.57228 0.0
H1730 H 0.12214 0.07677 0.57012 0.0
H1731 H 0.0528 0.07698 0.57058 0.0
H1732 H 0.00187 0.08717 0.55007 0.0
C1733 C 0.86523 0.05806 0.55637 0.0
C1734 C 0.94408 0.09982 0.56737 0.0
C1735 C 0.83566 0.03138 0.55649 0.0
C1736 C 0.10661 0.09237 0.56612 0.0
C1737 C 0.06691 0.0925 0.56638 0.0
C1738 C 0.98582 0.09175 0.55488 0.0
C1739 C 0.89 0.06173 0.56218 0.0
C1740 C 0.92696 0.08229 0.56148 0.0
C1741 C 0.04566 0.1106 0.56107 0.0
C1742 C 0.00374 0.10609 0.56094 0.0
H1743 H 0.84831 0.99747 0.57321 0.0
H1744 H 0.90033 0.04271 0.57293 0.0
H1745 H 0.93607 0.06604 0.55053 0.0
H1746 H 0.11906 0.14491 0.55115 0.0
H1747 H 0.04912 0.14372 0.55143 0.0
C1748 C 0.11596 0.8548 0.81494 0.0
C1749 C 0.13989 0.87376 0.81013 0.0
C1750 C 0.11476 0.8149 0.81511 0.0
C1751 C 0.13189 0.72886 0.80489 0.0
H1752 H 0.17952 0.68561 0.82152 0.0
C1753 C 0.22558 0.59736 0.80355 0.0
C1754 C 0.23464 0.57682 0.80969 0.0
C1755 C 0.19941 0.62725 0.80379 0.0
C1756 C 0.165 0.69659 0.81691 0.0
H1757 H 0.18063 0.86595 0.80165 0.0
H1758 H 0.17707 0.79654 0.80171 0.0
H1759 H 0.15981 0.75202 0.82158 0.0
H1760 H 0.21958 0.5683 0.82068 0.0
H1761 H 0.17278 0.6196 0.82105 0.0
H1762 H 0.13746 0.67389 0.80014 0.0
C1763 C 0.15945 0.8125 0.80537 0.0
C1764 C 0.15389 0.73483 0.81695 0.0
C1765 C 0.16141 0.85219 0.80532 0.0
C1766 C 0.21384 0.5841 0.81589 0.0
C1767 C 0.18716 0.61374 0.81611 0.0
C1768 C 0.1422 0.69039 0.80489 0.0
C1769 C 0.13659 0.79353 0.81032 0.0
C1770 C 0.13892 0.75163 0.81084 0.0
C1771 C 0.18111 0.63701 0.81015 0.0
C1772 C 0.16082 0.67426 0.81077 0.0
H1773 H 0.09859 0.8708 0.81862 0.0
H1774 H 0.09707 0.80073 0.81899 0.0
H1775 H 0.12008 0.7413 0.80013 0.0
H1776 H 0.24082 0.59242 0.79866 0.0
H1777 H 0.19596 0.64443 0.79908 0.0
C1778 C 0.39572 0.90982 0.05499 0.0
C1779 C 0.37454 0.88952 0.06003 0.0
C1780 C 0.43546 0.91014 0.05527 0.0
C1781 C 0.51051 0.91403 0.06757 0.0
H1782 H 0.57707 0.8945 0.05164 0.0
C1783 C 0.66011 0.97774 0.06746 0.0
C1784 C 0.6696 0.996 0.0611 0.0
C1785 C 0.63059 0.95092 0.06767 0.0
C1786 C 0.55896 0.90026 0.05614 0.0
H1787 H 0.37836 0.85251 0.06917 0.0
H1788 H 0.44813 0.85503 0.06991 0.0
H1789 H 0.51051 0.87436 0.05116 0.0
H1790 H 0.65788 0.99773 0.04984 0.0
H1791 H 0.60597 0.95281 0.05024 0.0
H1792 H 0.55721 0.94314 0.07232 0.0
C1793 C 0.43376 0.87 0.06567 0.0
C1794 C 0.52097 0.88838 0.05587 0.0
C1795 C 0.39397 0.86888 0.06528 0.0
C1796 C 0.6512 0.98448 0.05486 0.0
C1797 C 0.62139 0.95824 0.05509 0.0
C1798 C 0.54822 0.92672 0.06778 0.0
C1799 C 0.45474 0.89088 0.06069 0.0
C1800 C 0.49622 0.89624 0.0615 0.0
C1801 C 0.60956 0.94226 0.06154 0.0
C1802 C 0.5726 0.92131 0.06195 0.0
H1803 H 0.38164 0.92668 0.05098 0.0
H1804 H 0.45108 0.92699 0.05145 0.0
H1805 H 0.49178 0.92063 0.07195 0.0
H1806 H 0.67414 0.98552 0.07235 0.0
H1807 H 0.62312 0.93838 0.07271 0.0
C1808 C 0.73428 0.39496 0.80344 0.0
C1809 C 0.74369 0.41536 0.80958 0.0
C1810 C 0.70786 0.36529 0.80369 0.0
C1811 C 0.67252 0.29617 0.81677 0.0
H1812 H 0.62481 0.25351 0.80007 0.0
C1813 C 0.61829 0.14024 0.81523 0.0
C1814 C 0.63917 0.12011 0.8101 0.0
C1815 C 0.61885 0.18013 0.81535 0.0
C1816 C 0.63751 0.26535 0.8048 0.0
H1817 H 0.72921 0.42372 0.82061 0.0
H1818 H 0.682 0.37279 0.82099 0.0
H1819 H 0.64467 0.32022 0.80008 0.0
H1820 H 0.67637 0.12596 0.80103 0.0
H1821 H 0.67586 0.19542 0.80105 0.0
H1822 H 0.66569 0.24091 0.82141 0.0
C1823 C 0.69626 0.37862 0.81604 0.0
C1824 C 0.64919 0.30344 0.80481 0.0
C1825 C 0.72318 0.40803 0.81581 0.0
C1826 C 0.65933 0.1406 0.80495 0.0
C1827 C 0.65914 0.18035 0.80497 0.0
C1828 C 0.66011 0.25834 0.81681 0.0
C1829 C 0.68967 0.35562 0.81007 0.0
C1830 C 0.66862 0.31881 0.81066 0.0
C1831 C 0.63947 0.20044 0.81024 0.0
C1832 C 0.64406 0.24221 0.81072 0.0
H1833 H 0.74932 0.39994 0.79853 0.0
H1834 H 0.70401 0.34827 0.79898 0.0
H1835 H 0.68766 0.30658 0.82136 0.0
H1836 H 0.60205 0.12514 0.8192 0.0
H1837 H 0.60357 0.19512 0.81947 0.0
C1838 C 0.60636 0.90733 0.56734 0.0
C1839 C 0.62617 0.88826 0.56196 0.0
C1840 C 0.56664 0.90735 0.56747 0.0
C1841 C 0.48752 0.9078 0.55551 0.0
H1842 H 0.4272 0.90076 0.57262 0.0
C1843 C 0.33832 0.97149 0.55593 0.0
C1844 C 0.3319 0.99558 0.56174 0.0
C1845 C 0.36755 0.94443 0.55611 0.0
C1846 C 0.44356 0.90283 0.56779 0.0
H1847 H 0.62013 0.85288 0.55265 0.0
H1848 H 0.55021 0.85425 0.55269 0.0
H1849 H 0.49347 0.87948 0.57269 0.0
H1850 H 0.34877 0.00765 0.57253 0.0
H1851 H 0.40024 0.9618 0.57277 0.0
H1852 H 0.43917 0.93391 0.55073 0.0
C1853 C 0.56562 0.86883 0.55685 0.0
C1854 C 0.48142 0.89044 0.56783 0.0
C1855 C 0.60548 0.86828 0.5568 0.0
C1856 C 0.35308 0.98975 0.56794 0.0
C1857 C 0.38258 0.96309 0.56809 0.0
C1858 C 0.4499 0.92069 0.55549 0.0
C1859 C 0.54587 0.88877 0.56214 0.0
C1860 C 0.50409 0.89408 0.56176 0.0
C1861 C 0.39128 0.94123 0.56207 0.0
C1862 C 0.42786 0.91975 0.56171 0.0
H1863 H 0.62153 0.92351 0.57132 0.0
H1864 H 0.55216 0.92355 0.57153 0.0
H1865 H 0.50447 0.91121 0.55077 0.0
H1866 H 0.32207 0.97481 0.5511 0.0
H1867 H 0.37272 0.92734 0.55144 0.0
C1868 C 0.76955 0.60152 0.30345 0.0
C1869 C 0.76125 0.58108 0.30964 0.0
C1870 C 0.79588 0.6313 0.30356 0.0
C1871 C 0.8326 0.70055 0.31646 0.0
H1872 H 0.87713 0.74403 0.29954 0.0
C1873 C 0.88319 0.85734 0.31486 0.0
C1874 C 0.86168 0.87715 0.30978 0.0
C1875 C 0.88358 0.81745 0.31493 0.0
C1876 C 0.86533 0.73197 0.30433 0.0
H1877 H 0.77763 0.57268 0.32057 0.0
H1878 H 0.8247 0.62379 0.3207 0.0
H1879 H 0.85809 0.67707 0.29962 0.0
H1880 H 0.82452 0.87073 0.30071 0.0
H1881 H 0.82661 0.80133 0.30065 0.0
H1882 H 0.83941 0.75582 0.3211 0.0
C1883 C 0.80963 0.61792 0.31583 0.0
C1884 C 0.85412 0.69374 0.30438 0.0
C1885 C 0.7828 0.58843 0.31575 0.0
C1886 C 0.84199 0.85638 0.3046 0.0
C1887 C 0.8431 0.81664 0.30457 0.0
C1888 C 0.84452 0.73853 0.31646 0.0
C1889 C 0.81506 0.64103 0.30983 0.0
C1890 C 0.83582 0.67805 0.31033 0.0
C1891 C 0.86328 0.79682 0.30981 0.0
C1892 C 0.85938 0.75496 0.3103 0.0
H1893 H 0.75363 0.59657 0.29864 0.0
H1894 H 0.79883 0.64839 0.29883 0.0
H1895 H 0.81832 0.6899 0.32113 0.0
H1896 H 0.89913 0.87267 0.31884 0.0
H1897 H 0.89929 0.8027 0.31903 0.0
C1898 C 0.15015 0.01549 0.05366 0.0
C1899 C 0.16984 0.00657 0.0599 0.0
C1900 C 0.12035 0.04178 0.05373 0.0
C1901 C 0.04982 0.07851 0.06646 0.0
H1902 H 0.00864 0.12416 0.04944 0.0
C1903 C 0.89496 0.13507 0.06429 0.0
C1904 C 0.87461 0.11277 0.05941 0.0
C1905 C 0.93481 0.13406 0.06444 0.0
C1906 C 0.02008 0.11204 0.05426 0.0
H1907 H 0.17676 0.02175 0.07093 0.0
H1908 H 0.12573 0.0689 0.07099 0.0
H1909 H 0.07525 0.10407 0.04972 0.0
H1910 H 0.88006 0.07274 0.05074 0.0
H1911 H 0.94954 0.0725 0.05078 0.0
H1912 H 0.9943 0.08638 0.07094 0.0
C1913 C 0.13215 0.05429 0.0661 0.0
C1914 C 0.0581 0.10019 0.05442 0.0
C1915 C 0.16165 0.02744 0.06606 0.0
C1916 C 0.89487 0.09084 0.05447 0.0
C1917 C 0.93463 0.09058 0.0545 0.0
C1918 C 0.01209 0.09117 0.06635 0.0
C1919 C 0.10984 0.0604 0.06002 0.0
C1920 C 0.07296 0.08151 0.0604 0.0
C1921 C 0.95488 0.11158 0.05957 0.0
C1922 C 0.99653 0.10651 0.06015 0.0
H1923 H 0.15578 0.00016 0.04881 0.0
H1924 H 0.1039 0.04522 0.04894 0.0
H1925 H 0.05978 0.06394 0.07115 0.0
H1926 H 0.88004 0.15269 0.06809 0.0
H1927 H 0.94994 0.1504 0.0684 0.0
C1928 C 0.67139 0.85881 0.6954 0.0
C1929 C 0.64195 0.877 0.69171 0.0
C1930 C 0.67382 0.81916 0.69549 0.0
C1931 C 0.66565 0.73491 0.69758 0.0
H1932 H 0.65103 0.68137 0.67989 0.0
C1933 C 0.72289 0.58422 0.69489 0.0
C1934 C 0.74483 0.57878 0.68877 0.0
C1935 C 0.69666 0.61415 0.69528 0.0
C1936 C 0.65521 0.69582 0.68488 0.0
H1937 H 0.59155 0.86856 0.68533 0.0
H1938 H 0.5953 0.79874 0.68555 0.0
H1939 H 0.63353 0.74833 0.68078 0.0
H1940 H 0.7538 0.59818 0.67802 0.0
H1941 H 0.70957 0.65084 0.67876 0.0
H1942 H 0.69032 0.68376 0.70154 0.0
C1943 C 0.61684 0.8151 0.6883 0.0
C1944 C 0.64469 0.73418 0.68542 0.0
C1945 C 0.61459 0.85494 0.68818 0.0
C1946 C 0.73744 0.60159 0.68283 0.0
C1947 C 0.71175 0.63187 0.68325 0.0
C1948 C 0.67664 0.69682 0.69702 0.0
C1949 C 0.64666 0.79673 0.69193 0.0
C1950 C 0.65121 0.75457 0.6917 0.0
C1951 C 0.69237 0.63969 0.6896 0.0
C1952 C 0.67293 0.67712 0.69058 0.0
H1953 H 0.69313 0.87533 0.69807 0.0
H1954 H 0.69775 0.80617 0.69818 0.0
H1955 H 0.67009 0.74943 0.70256 0.0
H1956 H 0.72749 0.5667 0.69953 0.0
H1957 H 0.68134 0.6185 0.70018 0.0
C1958 C 0.89459 0.86639 0.43798 0.0
C1959 C 0.87336 0.89368 0.4417 0.0
C1960 C 0.93446 0.86772 0.43803 0.0
C1961 C 0.01572 0.89443 0.43511 0.0
H1962 H 0.06802 0.93654 0.45134 0.0
C1963 C 0.14961 0.98546 0.4327 0.0
C1964 C 0.17253 0.99197 0.43866 0.0
C1965 C 0.11913 0.95996 0.43304 0.0
C1966 C 0.05444 0.92382 0.44679 0.0
H1967 H 0.87655 0.9437 0.44835 0.0
H1968 H 0.94575 0.94674 0.44835 0.0
H1969 H 0.00216 0.91725 0.45242 0.0
H1970 H 0.18481 0.97309 0.44932 0.0
H1971 H 0.13281 0.92714 0.44981 0.0
H1972 H 0.06821 0.90075 0.42948 0.0
C1973 C 0.93209 0.92355 0.44555 0.0
C1974 C 0.01624 0.91338 0.44738 0.0
C1975 C 0.89241 0.92203 0.44553 0.0
C1976 C 0.16715 0.9692 0.44469 0.0
C1977 C 0.13709 0.9431 0.44498 0.0
C1978 C 0.05421 0.90437 0.43453 0.0
C1979 C 0.9537 0.89653 0.44178 0.0
C1980 C 0.99591 0.90028 0.44147 0.0
C1981 C 0.11129 0.93985 0.43931 0.0
C1982 C 0.07362 0.92084 0.44028 0.0
H1983 H 0.8803 0.84416 0.43502 0.0
H1984 H 0.95017 0.84631 0.43511 0.0
H1985 H 0.00105 0.88429 0.43044 0.0
H1986 H 0.15308 0.00243 0.42797 0.0
H1987 H 0.10002 0.95855 0.42856 0.0
C1988 C 0.87631 0.14216 0.19523 0.0
C1989 C 0.85598 0.12285 0.18993 0.0
C1990 C 0.87807 0.18201 0.19525 0.0
C1991 C 0.86558 0.26759 0.18432 0.0
H1992 H 0.81705 0.31216 0.20074 0.0
C1993 C 0.7737 0.4005 0.18267 0.0
C1994 C 0.76483 0.42136 0.18879 0.0
C1995 C 0.79946 0.37027 0.18296 0.0
C1996 C 0.8318 0.30077 0.19618 0.0
H1997 H 0.82234 0.13001 0.18042 0.0
H1998 H 0.82666 0.19933 0.18031 0.0
H1999 H 0.83572 0.24556 0.20095 0.0
H2000 H 0.77973 0.42993 0.19979 0.0
H2001 H 0.82587 0.37805 0.20022 0.0
H2002 H 0.8611 0.32246 0.17947 0.0
C2003 C 0.84124 0.1837 0.18444 0.0
C2004 C 0.84233 0.26239 0.19631 0.0
C2005 C 0.83881 0.14401 0.1845 0.0
C2006 C 0.78545 0.41399 0.19501 0.0
C2007 C 0.8117 0.38401 0.19527 0.0
C2008 C 0.85573 0.30619 0.18423 0.0
C2009 C 0.86028 0.20309 0.18988 0.0
C2010 C 0.8577 0.2451 0.19027 0.0
C2011 C 0.81746 0.36044 0.18935 0.0
C2012 C 0.83692 0.32282 0.19003 0.0
H2013 H 0.89033 0.12648 0.19942 0.0
H2014 H 0.89287 0.1964 0.19951 0.0
H2015 H 0.87787 0.25489 0.17963 0.0
H2016 H 0.75849 0.40538 0.17778 0.0
H2017 H 0.80274 0.35284 0.17828 0.0
C2018 C 0.34984 0.01966 0.94629 0.0
C2019 C 0.33085 0.00927 0.94005 0.0
C2020 C 0.37975 0.0458 0.94612 0.0
C2021 C 0.45192 0.0781 0.93331 0.0
H2022 H 0.49296 0.12621 0.9501 0.0
C2023 C 0.60848 0.12957 0.93564 0.0
C2024 C 0.62742 0.10729 0.94072 0.0
C2025 C 0.56864 0.13015 0.93536 0.0
C2026 C 0.48156 0.11342 0.94534 0.0
H2027 H 0.32512 0.02184 0.92889 0.0
H2028 H 0.37625 0.06885 0.92863 0.0
H2029 H 0.42579 0.10812 0.94975 0.0
H2030 H 0.6195 0.06896 0.94958 0.0
H2031 H 0.55008 0.07153 0.9493 0.0
H2032 H 0.50806 0.08324 0.92896 0.0
C2033 C 0.36924 0.05546 0.93362 0.0
C2034 C 0.44322 0.10272 0.94515 0.0
C2035 C 0.33966 0.02873 0.93377 0.0
C2036 C 0.6058 0.08701 0.9457 0.0
C2037 C 0.56609 0.08836 0.94553 0.0
C2038 C 0.48999 0.08963 0.93345 0.0
C2039 C 0.39105 0.0628 0.93971 0.0
C2040 C 0.42836 0.08309 0.93927 0.0
C2041 C 0.5472 0.10934 0.94028 0.0
C2042 C 0.50547 0.1058 0.93958 0.0
H2043 H 0.34367 0.00545 0.95124 0.0
H2044 H 0.39574 0.05024 0.95093 0.0
H2045 H 0.44199 0.06276 0.9287 0.0
H2046 H 0.62446 0.14597 0.93181 0.0
H2047 H 0.55456 0.1464 0.93125 0.0
C2048 C 0.83996 0.354 0.69446 0.0
C2049 C 0.86266 0.37469 0.68971 0.0
C2050 C 0.83958 0.31427 0.69429 0.0
C2051 C 0.83824 0.23822 0.68252 0.0
H2052 H 0.85609 0.17338 0.69876 0.0
C2053 C 0.77104 0.09011 0.68336 0.0
C2054 C 0.75238 0.08218 0.68976 0.0
C2055 C 0.79854 0.11895 0.683 0.0
C2056 C 0.85086 0.19099 0.69417 0.0
H2057 H 0.90366 0.37003 0.68119 0.0
H2058 H 0.90103 0.30007 0.6806 0.0
H2059 H 0.87736 0.23966 0.69897 0.0
H2060 H 0.75051 0.09603 0.70093 0.0
H2061 H 0.79668 0.14675 0.70027 0.0
H2062 H 0.80835 0.19145 0.67795 0.0
C2063 C 0.88431 0.31491 0.68455 0.0
C2064 C 0.86342 0.22879 0.69428 0.0
C2065 C 0.88549 0.35476 0.68485 0.0
C2066 C 0.76406 0.10149 0.69589 0.0
C2067 C 0.79103 0.13059 0.69551 0.0
C2068 C 0.82486 0.20072 0.68246 0.0
C2069 C 0.86119 0.29447 0.68926 0.0
C2070 C 0.85606 0.25294 0.68855 0.0
C2071 C 0.80757 0.1408 0.68901 0.0
C2072 C 0.82958 0.17705 0.68841 0.0
H2073 H 0.82143 0.36849 0.69816 0.0
H2074 H 0.82103 0.299 0.69789 0.0
H2075 H 0.83202 0.25657 0.67806 0.0
H2076 H 0.76324 0.07526 0.67856 0.0
H2077 H 0.81144 0.1252 0.67794 0.0
C2078 C 0.14899 0.51548 0.93211 0.0
C2079 C 0.16891 0.50803 0.9384 0.0
C2080 C 0.11904 0.54162 0.93203 0.0
C2081 C 0.04882 0.57968 0.94466 0.0
H2082 H 0.00562 0.62165 0.92749 0.0
C2083 C 0.89257 0.63023 0.94299 0.0
C2084 C 0.87244 0.60859 0.93799 0.0
C2085 C 0.93243 0.63055 0.94298 0.0
C2086 C 0.01759 0.61051 0.93234 0.0
H2087 H 0.17626 0.52571 0.94929 0.0
H2088 H 0.12511 0.57268 0.94905 0.0
H2089 H 0.07254 0.60255 0.9277 0.0
H2090 H 0.87809 0.57153 0.92889 0.0
H2091 H 0.94755 0.57326 0.9287 0.0
H2092 H 0.99357 0.58728 0.94924 0.0
C2093 C 0.13139 0.55702 0.94427 0.0
C2094 C 0.05581 0.59928 0.93246 0.0
C2095 C 0.16098 0.53031 0.94439 0.0
C2096 C 0.8928 0.58891 0.93275 0.0
C2097 C 0.93254 0.58987 0.93264 0.0
C2098 C 0.01088 0.59163 0.94457 0.0
C2099 C 0.10867 0.56151 0.93819 0.0
C2100 C 0.07145 0.58201 0.93852 0.0
C2101 C 0.95272 0.60998 0.93785 0.0
C2102 C 0.99454 0.60562 0.93833 0.0
H2103 H 0.15445 0.49899 0.92738 0.0
H2104 H 0.1023 0.54387 0.92724 0.0
H2105 H 0.05937 0.56614 0.9494 0.0
H2106 H 0.87751 0.64622 0.94701 0.0
H2107 H 0.94743 0.64627 0.94705 0.0
C2108 C 0.61533 0.64125 0.18416 0.0
C2109 C 0.63959 0.62347 0.18908 0.0
C2110 C 0.61353 0.68105 0.18375 0.0
C2111 C 0.62651 0.76927 0.19314 0.0
H2112 H 0.68384 0.80867 0.17725 0.0
C2113 C 0.71846 0.90148 0.19535 0.0
C2114 C 0.73194 0.92003 0.18927 0.0
C2115 C 0.69238 0.87164 0.19479 0.0
C2116 C 0.66659 0.7988 0.18162 0.0
H2117 H 0.68029 0.63339 0.19749 0.0
H2118 H 0.67553 0.70272 0.19702 0.0
H2119 H 0.66443 0.74223 0.17736 0.0
H2120 H 0.72489 0.92521 0.17793 0.0
H2121 H 0.67792 0.87427 0.17699 0.0
H2122 H 0.62887 0.82541 0.19749 0.0
C2123 C 0.65815 0.6858 0.19348 0.0
C2124 C 0.65568 0.76053 0.18167 0.0
C2125 C 0.66074 0.64617 0.19376 0.0
C2126 C 0.71559 0.91095 0.18271 0.0
C2127 C 0.68886 0.88149 0.18217 0.0
C2128 C 0.63657 0.80781 0.19301 0.0
C2129 C 0.63506 0.7035 0.1884 0.0
C2130 C 0.63716 0.74518 0.18757 0.0
C2131 C 0.67853 0.86003 0.18815 0.0
C2132 C 0.65865 0.82261 0.18743 0.0
H2133 H 0.5983 0.62439 0.18056 0.0
H2134 H 0.59575 0.69429 0.17977 0.0
H2135 H 0.61203 0.75785 0.19773 0.0
H2136 H 0.73025 0.90785 0.2005 0.0
H2137 H 0.6856 0.85592 0.19955 0.0
C2138 C 0.60512 0.40844 0.44523 0.0
C2139 C 0.62633 0.38709 0.44035 0.0
C2140 C 0.56538 0.40799 0.44504 0.0
C2141 C 0.48973 0.40821 0.43297 0.0
H2142 H 0.4243 0.39046 0.44914 0.0
C2143 C 0.34009 0.47156 0.43312 0.0
C2144 C 0.33097 0.4906 0.43943 0.0
C2145 C 0.36957 0.44469 0.43297 0.0
C2146 C 0.44209 0.3957 0.44457 0.0
H2147 H 0.62261 0.34733 0.43161 0.0
H2148 H 0.55271 0.34849 0.43101 0.0
H2149 H 0.49106 0.37095 0.44958 0.0
H2150 H 0.34328 0.49367 0.45065 0.0
H2151 H 0.39515 0.44868 0.45034 0.0
H2152 H 0.44256 0.43633 0.42818 0.0
C2153 C 0.56711 0.36489 0.43506 0.0
C2154 C 0.48018 0.38415 0.44482 0.0
C2155 C 0.60694 0.36455 0.43536 0.0
C2156 C 0.34967 0.4798 0.44568 0.0
C2157 C 0.37946 0.45352 0.4455 0.0
C2158 C 0.45193 0.4206 0.43278 0.0
C2159 C 0.5461 0.38686 0.43987 0.0
C2160 C 0.50452 0.39142 0.4391 0.0
C2161 C 0.39095 0.43677 0.43909 0.0
C2162 C 0.42795 0.41587 0.43869 0.0
H2163 H 0.61918 0.42666 0.44904 0.0
H2164 H 0.5497 0.42566 0.44873 0.0
H2165 H 0.50817 0.41435 0.42853 0.0
H2166 H 0.3258 0.47878 0.42823 0.0
H2167 H 0.37675 0.43154 0.42797 0.0
C2168 C 0.88293 0.63971 0.81387 0.0
C2169 C 0.86152 0.61996 0.80877 0.0
C2170 C 0.88234 0.67956 0.81411 0.0
C2171 C 0.86188 0.76597 0.80401 0.0
H2172 H 0.81385 0.80442 0.821 0.0
C2173 C 0.76523 0.89591 0.8038 0.0
C2174 C 0.75645 0.91519 0.8101 0.0
C2175 C 0.7916 0.86619 0.80377 0.0
C2176 C 0.8284 0.7948 0.81629 0.0
H2177 H 0.82361 0.62646 0.79981 0.0
H2178 H 0.82402 0.69596 0.80003 0.0
H2179 H 0.83598 0.73887 0.82061 0.0
H2180 H 0.77201 0.92149 0.82112 0.0
H2181 H 0.81924 0.87052 0.82102 0.0
H2182 H 0.85407 0.82156 0.79963 0.0
C2183 C 0.84114 0.68059 0.80385 0.0
C2184 C 0.84089 0.75703 0.81607 0.0
C2185 C 0.841 0.64082 0.80372 0.0
C2186 C 0.77756 0.90669 0.81621 0.0
C2187 C 0.80447 0.87725 0.81615 0.0
C2188 C 0.85015 0.80402 0.80428 0.0
C2189 C 0.86115 0.70026 0.80913 0.0
C2190 C 0.8562 0.7419 0.80983 0.0
C2191 C 0.81043 0.85534 0.81002 0.0
C2192 C 0.8315 0.81843 0.8103 0.0
H2193 H 0.89948 0.62432 0.81777 0.0
H2194 H 0.89793 0.6942 0.81824 0.0
H2195 H 0.87402 0.75491 0.79916 0.0
H2196 H 0.74974 0.90182 0.79897 0.0
H2197 H 0.79494 0.85005 0.79894 0.0
C2198 C 0.34811 0.50939 0.06714 0.0
C2199 C 0.32521 0.50254 0.06119 0.0
C2200 C 0.3785 0.53501 0.06676 0.0
C2201 C 0.44318 0.57104 0.05302 0.0
H2202 H 0.49493 0.61389 0.06926 0.0
C2203 C 0.60078 0.6349 0.06167 0.0
C2204 C 0.62308 0.60767 0.05815 0.0
C2205 C 0.56098 0.63213 0.0616 0.0
C2206 C 0.48069 0.60279 0.06463 0.0
H2207 H 0.313 0.5208 0.05049 0.0
H2208 H 0.36488 0.56683 0.04993 0.0
H2209 H 0.4282 0.59561 0.07022 0.0
H2210 H 0.62186 0.55641 0.05181 0.0
H2211 H 0.55278 0.55101 0.05175 0.0
H2212 H 0.49549 0.57833 0.04742 0.0
C2213 C 0.36059 0.55113 0.05479 0.0
C2214 C 0.44247 0.59183 0.0652 0.0
C2215 C 0.33061 0.52496 0.05512 0.0
C2216 C 0.60516 0.57802 0.05448 0.0
C2217 C 0.56555 0.57512 0.05442 0.0
C2218 C 0.48112 0.58241 0.05243 0.0
C2219 C 0.38627 0.55485 0.06046 0.0
C2220 C 0.42368 0.57432 0.05949 0.0
C2221 C 0.5429 0.602 0.05801 0.0
C2222 C 0.50085 0.59684 0.0583 0.0
H2223 H 0.34464 0.49268 0.07191 0.0
H2224 H 0.39755 0.53682 0.07124 0.0
H2225 H 0.43005 0.55749 0.0485 0.0
H2226 H 0.61417 0.65813 0.06451 0.0
H2227 H 0.54441 0.65347 0.06436 0.0
C2228 C 0.61987 0.35845 0.31548 0.0
C2229 C 0.64126 0.37758 0.3103 0.0
C2230 C 0.61972 0.31858 0.31577 0.0
C2231 C 0.63655 0.23184 0.3056 0.0
H2232 H 0.68689 0.19162 0.32221 0.0
C2233 C 0.73143 0.10093 0.30453 0.0
C2234 C 0.74112 0.08117 0.31073 0.0
C2235 C 0.70526 0.13082 0.30472 0.0
C2236 C 0.67166 0.20176 0.31761 0.0
H2237 H 0.67868 0.36998 0.3013 0.0
H2238 H 0.67688 0.30054 0.3016 0.0
H2239 H 0.66606 0.25766 0.32206 0.0
H2240 H 0.72726 0.07415 0.32181 0.0
H2241 H 0.68046 0.12547 0.3221 0.0
H2242 H 0.64246 0.17634 0.30108 0.0
C2243 C 0.66033 0.31639 0.30544 0.0
C2244 C 0.65991 0.2398 0.31753 0.0
C2245 C 0.66125 0.35612 0.30526 0.0
C2246 C 0.72103 0.08932 0.31697 0.0
C2247 C 0.69435 0.11896 0.31714 0.0
C2248 C 0.64754 0.19356 0.30573 0.0
C2249 C 0.6401 0.2973 0.31076 0.0
C2250 C 0.64385 0.25552 0.31141 0.0
C2251 C 0.68759 0.14138 0.3111 0.0
C2252 C 0.66705 0.17852 0.3116 0.0
H2253 H 0.60378 0.37431 0.31938 0.0
H2254 H 0.60405 0.30436 0.31994 0.0
H2255 H 0.62383 0.2434 0.30084 0.0
H2256 H 0.74612 0.0953 0.2996 0.0
H2257 H 0.70126 0.14734 0.29995 0.0
C2258 C 0.89351 0.36723 0.56479 0.0
C2259 C 0.87408 0.38929 0.55974 0.0
C2260 C 0.93336 0.36772 0.5651 0.0
C2261 C 0.01987 0.38641 0.55514 0.0
H2262 H 0.05882 0.43857 0.57168 0.0
C2263 C 0.1498 0.48262 0.55393 0.0
C2264 C 0.16925 0.49311 0.56012 0.0
C2265 C 0.12009 0.45626 0.55418 0.0
C2266 C 0.04906 0.42285 0.5671 0.0
H2267 H 0.88116 0.42852 0.55099 0.0
H2268 H 0.95059 0.42774 0.55131 0.0
H2269 H 0.99314 0.41665 0.57151 0.0
H2270 H 0.17585 0.48059 0.57127 0.0
H2271 H 0.1249 0.4334 0.57166 0.0
H2272 H 0.07539 0.3928 0.55067 0.0
C2273 C 0.93497 0.41025 0.55503 0.0
C2274 C 0.01123 0.41048 0.56701 0.0
C2275 C 0.89525 0.41056 0.55484 0.0
C2276 C 0.16092 0.47371 0.56643 0.0
C2277 C 0.13149 0.44681 0.56666 0.0
C2278 C 0.05797 0.39798 0.55529 0.0
C2279 C 0.95431 0.38938 0.56023 0.0
C2280 C 0.99596 0.39373 0.56092 0.0
C2281 C 0.10942 0.43916 0.56061 0.0
C2282 C 0.07254 0.41816 0.56113 0.0
H2283 H 0.87789 0.35015 0.56857 0.0
H2284 H 0.94781 0.35156 0.56918 0.0
H2285 H 0.00863 0.37322 0.55041 0.0
H2286 H 0.15555 0.49678 0.54896 0.0
H2287 H 0.10383 0.45162 0.54941 0.0
C2288 C 0.21406 0.90856 0.31608 0.0
C2289 C 0.23343 0.91772 0.3098 0.0
C2290 C 0.18779 0.87853 0.31621 0.0
C2291 C 0.14204 0.80368 0.30465 0.0
H2292 H 0.16324 0.739 0.32078 0.0
C2293 C 0.16098 0.64126 0.30396 0.0
C2294 C 0.14206 0.61919 0.30905 0.0
C2295 C 0.15856 0.68097 0.30412 0.0
C2296 C 0.15637 0.75698 0.31631 0.0
H2297 H 0.23713 0.90522 0.2986 0.0
H2298 H 0.19323 0.85251 0.29888 0.0
H2299 H 0.18209 0.80555 0.32108 0.0
H2300 H 0.10452 0.62127 0.31814 0.0
H2301 H 0.10217 0.69112 0.31865 0.0
H2302 H 0.11971 0.75347 0.29967 0.0
C2303 C 0.19747 0.86845 0.30371 0.0
C2304 C 0.16696 0.79534 0.31648 0.0
C2305 C 0.22315 0.89876 0.30355 0.0
C2306 C 0.11991 0.63762 0.31421 0.0
C2307 C 0.11825 0.67744 0.31448 0.0
C2308 C 0.13228 0.76506 0.30443 0.0
C2309 C 0.18079 0.85669 0.31011 0.0
C2310 C 0.16135 0.81891 0.31054 0.0
C2311 C 0.13785 0.69938 0.30946 0.0
C2312 C 0.14054 0.74121 0.31017 0.0
H2313 H 0.22069 0.92311 0.32096 0.0
H2314 H 0.17457 0.8712 0.3212 0.0
H2315 H 0.13617 0.82108 0.30006 0.0
H2316 H 0.17888 0.62798 0.30001 0.0
H2317 H 0.17447 0.69736 0.30027 0.0
C2318 C 0.8457 0.48349 0.05393 0.0
C2319 C 0.8276 0.49568 0.06015 0.0
C2320 C 0.87507 0.45679 0.05419 0.0
C2321 C 0.94787 0.42436 0.06689 0.0
H2322 H 0.98448 0.37115 0.05027 0.0
C2323 C 0.10074 0.36231 0.0641 0.0
C2324 C 0.12072 0.38511 0.05924 0.0
C2325 C 0.06094 0.36376 0.06444 0.0
C2326 C 0.97428 0.38534 0.05499 0.0
H2327 H 0.82316 0.486 0.07144 0.0
H2328 H 0.8734 0.43801 0.07185 0.0
H2329 H 0.91822 0.39231 0.05078 0.0
H2330 H 0.11462 0.42618 0.05076 0.0
H2331 H 0.04511 0.42704 0.0511 0.0
H2332 H 0.00429 0.41732 0.07103 0.0
C2333 C 0.86604 0.45038 0.0668 0.0
C2334 C 0.93649 0.39785 0.05527 0.0
C2335 C 0.83697 0.47769 0.06656 0.0
C2336 C 0.10009 0.40774 0.05447 0.0
C2337 C 0.06035 0.40839 0.05468 0.0
C2338 C 0.98534 0.41099 0.06667 0.0
C2339 C 0.88676 0.44095 0.06067 0.0
C2340 C 0.92331 0.41928 0.06108 0.0
C2341 C 0.04055 0.38708 0.05976 0.0
C2342 C -0.0008 0.39286 0.0606 0.0
H2343 H 0.8391 0.4965 0.04889 0.0
H2344 H 0.89027 0.45083 0.04934 0.0
H2345 H 0.93926 0.44103 0.07143 0.0
H2346 H 0.11594 0.34415 0.06777 0.0
H2347 H 0.04611 0.34722 0.06841 0.0
C2348 C 0.28398 0.08539 0.81578 0.0
C2349 C 0.26376 0.07651 0.80958 0.0
C2350 C 0.31028 0.11537 0.81583 0.0
C2351 C 0.355 0.19038 0.80419 0.0
H2352 H 0.33682 0.25439 0.82054 0.0
C2353 C 0.34021 0.35317 0.80377 0.0
C2354 C 0.35895 0.37461 0.80897 0.0
C2355 C 0.34193 0.31343 0.80385 0.0
C2356 C 0.34286 0.2366 0.816 0.0
H2357 H 0.25808 0.08973 0.79844 0.0
H2358 H 0.30222 0.14242 0.79859 0.0
H2359 H 0.31695 0.18815 0.82078 0.0
H2360 H 0.39562 0.37136 0.81817 0.0
H2361 H 0.39683 0.30146 0.81853 0.0
H2362 H 0.37769 0.24047 0.79923 0.0
C2363 C 0.29869 0.12617 0.8034 0.0
C2364 C 0.33167 0.19841 0.81614 0.0
C2365 C 0.27296 0.09588 0.80332 0.0
C2366 C 0.38034 0.3555 0.81416 0.0
C2367 C 0.38135 0.31565 0.81434 0.0
C2368 C 0.36543 0.22883 0.80402 0.0
C2369 C 0.31642 0.1375 0.80973 0.0
C2370 C 0.33622 0.1751 0.81013 0.0
C2371 C 0.36182 0.29432 0.80921 0.0
C2372 C 0.3583 0.25248 0.80984 0.0
H2373 H 0.27799 0.07059 0.82067 0.0
H2374 H 0.32427 0.12241 0.82076 0.0
H2375 H 0.36002 0.17315 0.79954 0.0
H2376 H 0.3229 0.36698 0.79979 0.0
H2377 H 0.32608 0.29757 0.79991 0.0
C2378 C 0.65086 0.51794 0.5536 0.0
C2379 C 0.67015 0.50813 0.55985 0.0
C2380 C 0.62092 0.54405 0.55374 0.0
C2381 C 0.54924 0.57788 0.56651 0.0
H2382 H 0.5084 0.62546 0.54965 0.0
C2383 C 0.39359 0.63231 0.56423 0.0
C2384 C 0.37396 0.6104 0.55919 0.0
C2385 C 0.43343 0.63186 0.56449 0.0
C2386 C 0.51974 0.6128 0.55443 0.0
H2387 H 0.67629 0.52172 0.57096 0.0
H2388 H 0.62501 0.56857 0.57115 0.0
H2389 H 0.57532 0.60643 0.54997 0.0
H2390 H 0.38072 0.5715 0.55038 0.0
H2391 H 0.45018 0.57228 0.5506 0.0
H2392 H 0.4933 0.58413 0.5709 0.0
C2393 C 0.63185 0.55475 0.5662 0.0
C2394 C 0.55793 0.60157 0.55461 0.0
C2395 C 0.66149 0.52807 0.56608 0.0
C2396 C 0.39495 0.58934 0.55422 0.0
C2397 C 0.43469 0.58966 0.55436 0.0
C2398 C 0.51131 0.58993 0.56638 0.0
C2399 C 0.60986 0.5616 0.5601 0.0
C2400 C 0.57271 0.58219 0.56052 0.0
C2401 C 0.45422 0.61034 0.55957 0.0
C2402 C 0.4959 0.60595 0.56023 0.0
H2403 H 0.65688 0.50335 0.54869 0.0
H2404 H 0.60476 0.54809 0.54893 0.0
H2405 H 0.55912 0.56275 0.57114 0.0
H2406 H 0.37813 0.64925 0.56806 0.0
H2407 H 0.44801 0.64791 0.56856 0.0
C2408 C 0.1162 0.36264 0.19368 0.0
C2409 C 0.13675 0.38325 0.18858 0.0
C2410 C 0.11644 0.32275 0.19361 0.0
C2411 C 0.13705 0.23842 0.18267 0.0
H2412 H 0.182 0.19599 0.19962 0.0
C2413 C 0.23488 0.10904 0.18215 0.0
C2414 C 0.24167 0.088 0.18834 0.0
C2415 C 0.20847 0.13877 0.18213 0.0
C2416 C 0.16834 0.20675 0.1949 0.0
H2417 H 0.17231 0.37849 0.17927 0.0
H2418 H 0.17167 0.30903 0.17901 0.0
H2419 H 0.15972 0.26148 0.19964 0.0
H2420 H 0.22279 0.07871 0.19911 0.0
H2421 H 0.17563 0.12971 0.199 0.0
H2422 H 0.1463 0.18404 0.17787 0.0
C2423 C 0.15546 0.32362 0.18306 0.0
C2424 C 0.15571 0.24449 0.19492 0.0
C2425 C 0.15583 0.36337 0.18321 0.0
C2426 C 0.2187 0.09482 0.19429 0.0
C2427 C 0.19184 0.12428 0.19424 0.0
C2428 C 0.14908 0.20044 0.18268 0.0
C2429 C 0.13648 0.30293 0.18834 0.0
C2430 C 0.14148 0.2611 0.18872 0.0
C2431 C 0.18775 0.14786 0.18827 0.0
C2432 C 0.16657 0.18464 0.1887 0.0
H2433 H 0.10067 0.37738 0.1978 0.0
H2434 H 0.10155 0.30739 0.19773 0.0
H2435 H 0.12571 0.25055 0.17785 0.0
H2436 H 0.25189 0.10445 0.17745 0.0
H2437 H 0.20652 0.15628 0.17744 0.0
C2438 C 0.65676 0.47051 0.93271 0.0
C2439 C 0.66707 0.4887 0.93904 0.0
C2440 C 0.62735 0.44357 0.93263 0.0
C2441 C 0.55684 0.39335 0.94451 0.0
H2442 H 0.48831 0.41317 0.92887 0.0
C2443 C 0.39364 0.40928 0.94549 0.0
C2444 C 0.37207 0.38632 0.94092 0.0
C2445 C 0.43337 0.40841 0.94525 0.0
C2446 C 0.50744 0.40673 0.9332 0.0
H2447 H 0.65688 0.49034 0.95034 0.0
H2448 H 0.60502 0.44538 0.95017 0.0
H2449 H 0.55382 0.43515 0.92822 0.0
H2450 H 0.37508 0.34313 0.93275 0.0
H2451 H 0.44496 0.3435 0.93203 0.0
H2452 H 0.50855 0.36845 0.94973 0.0
C2453 C 0.61979 0.45081 0.94525 0.0
C2454 C 0.5452 0.41909 0.93283 0.0
C2455 C 0.64957 0.47708 0.94535 0.0
C2456 C 0.39105 0.36159 0.93625 0.0
C2457 C 0.43086 0.36148 0.93588 0.0
C2458 C 0.51876 0.38189 0.94493 0.0
C2459 C 0.60714 0.43483 0.93885 0.0
C2460 C 0.57009 0.41393 0.9386 0.0
C2461 C 0.4522 0.3852 0.94033 0.0
C2462 C 0.49362 0.38955 0.93937 0.0
H2463 H 0.67015 0.47839 0.92776 0.0
H2464 H 0.61931 0.43101 0.92762 0.0
H2465 H 0.57531 0.38775 0.94896 0.0
H2466 H 0.37988 0.42911 0.94905 0.0
H2467 H 0.4494 0.42738 0.94866 0.0
C2468 C 0.37521 0.64461 0.69432 0.0
C2469 C 0.35636 0.62402 0.689 0.0
C2470 C 0.37486 0.6845 0.69428 0.0
C2471 C 0.35696 0.7687 0.68308 0.0
H2472 H 0.31011 0.81225 0.69976 0.0
C2473 C 0.26003 0.89877 0.68201 0.0
C2474 C 0.25303 0.92023 0.68814 0.0
C2475 C 0.2862 0.86882 0.68212 0.0
C2476 C 0.32428 0.80114 0.69512 0.0
H2477 H 0.323 0.62896 0.67941 0.0
H2478 H 0.32346 0.69833 0.67921 0.0
H2479 H 0.33171 0.74653 0.69997 0.0
H2480 H 0.27136 0.93006 0.69893 0.0
H2481 H 0.31803 0.87863 0.69903 0.0
H2482 H 0.34875 0.82294 0.67815 0.0
C2483 C 0.33867 0.68373 0.68339 0.0
C2484 C 0.33654 0.76328 0.69525 0.0
C2485 C 0.33844 0.64399 0.6835 0.0
C2486 C 0.27561 0.91363 0.69415 0.0
C2487 C 0.30219 0.88394 0.69422 0.0
C2488 C 0.34522 0.80677 0.68298 0.0
C2489 C 0.35628 0.70439 0.68884 0.0
C2490 C 0.35148 0.74628 0.68914 0.0
C2491 C 0.30641 0.85994 0.68832 0.0
C2492 C 0.32712 0.82297 0.6889 0.0
H2493 H 0.38968 0.62986 0.69857 0.0
H2494 H 0.38864 0.69983 0.69854 0.0
H2495 H 0.3689 0.75631 0.67833 0.0
H2496 H 0.24331 0.90318 0.67727 0.0
H2497 H 0.28833 0.85098 0.67747 0.0
C2498 C 0.83979 0.52575 0.43336 0.0
C2499 C 0.83098 0.50635 0.43964 0.0
C2500 C 0.86925 0.55263 0.43321 0.0
C2501 C 0.94231 0.60099 0.44478 0.0
H2502 H 0.00764 0.58315 0.4286 0.0
C2503 C 0.10528 0.58823 0.44521 0.0
C2504 C 0.12635 0.60972 0.44032 0.0
C2505 C 0.06555 0.5887 0.44506 0.0
C2506 C 0.98941 0.58907 0.43309 0.0
H2507 H 0.84384 0.50262 0.45083 0.0
H2508 H 0.89569 0.54765 0.45053 0.0
H2509 H 0.94201 0.56121 0.42832 0.0
H2510 H 0.12237 0.64971 0.43162 0.0
H2511 H 0.05245 0.64859 0.4311 0.0
H2512 H 0.99152 0.62548 0.44975 0.0
C2513 C 0.87975 0.54309 0.44571 0.0
C2514 C 0.95159 0.5767 0.43293 0.0
C2515 C 0.84998 0.51679 0.44588 0.0
C2516 C 0.10682 0.63238 0.43538 0.0
C2517 C 0.06697 0.63207 0.43511 0.0
C2518 C 0.98041 0.61252 0.44498 0.0
C2519 C 0.89092 0.5602 0.43931 0.0
C2520 C 0.9279 0.58113 0.43889 0.0
C2521 C 0.04611 0.61 0.43993 0.0
C2522 C 0.00449 0.60553 0.43922 0.0
H2523 H 0.82526 0.51881 0.42848 0.0
H2524 H 0.87618 0.56607 0.42822 0.0
H2525 H 0.92474 0.60599 0.44938 0.0
H2526 H 0.11945 0.56991 0.44898 0.0
H2527 H 0.04998 0.57095 0.44875 0.0
C2528 C 0.28305 0.94729 0.27505 0.0
C2529 C 0.31145 0.96479 0.27915 0.0
C2530 C 0.28172 0.95295 0.26776 0.0
C2531 C 0.31807 0.01643 0.25352 0.0
H2532 H 0.2873 0.93254 0.24145 0.0
C2533 C 0.33609 0.01744 0.22317 0.0
C2534 C 0.30397 0.00661 0.21921 0.0
C2535 C 0.33662 0.01271 0.23049 0.0
C2536 C 0.29567 0.95627 0.24476 0.0
H2537 H 0.36087 0.00183 0.27882 0.0
H2538 H 0.35942 0.01068 0.26606 0.0
H2539 H 0.28969 0.92345 0.2542 0.0
H2540 H 0.24742 0.98188 0.21982 0.0
H2541 H 0.24869 0.97298 0.23262 0.0
H2542 H 0.32503 0.04879 0.244 0.0
C2543 C 0.3375 0.99335 0.26849 0.0
C2544 C 0.29691 0.95118 0.25208 0.0
C2545 C 0.33852 0.98809 0.27581 0.0
C2546 C 0.27254 0.99058 0.22272 0.0
C2547 C 0.27331 0.98532 0.23004 0.0
C2548 C 0.31732 0.02132 0.24619 0.0
C2549 C 0.30908 0.97584 0.26436 0.0
C2550 C 0.30801 0.98123 0.25656 0.0
C2551 C 0.30528 0.99653 0.23399 0.0
C2552 C 0.30602 0.99133 0.24175 0.0
H2553 H 0.26155 0.92944 0.27749 0.0
H2554 H 0.25894 0.93962 0.2648 0.0
H2555 H 0.32607 0.04045 0.25679 0.0
H2556 H 0.36073 0.02994 0.22062 0.0
H2557 H 0.36174 0.02129 0.23341 0.0
C2558 C 0.2529 0.0869 0.52638 0.0
C2559 C 0.2605 0.05297 0.53007 0.0
C2560 C 0.25025 0.08687 0.51902 0.0
C2561 C 0.23514 0.02372 0.50362 0.0
H2562 H 0.28352 0.10605 0.4933 0.0
C2563 C 0.25222 0.0214 0.47325 0.0
C2564 C 0.24488 0.05567 0.46965 0.0
C2565 C 0.2543 0.02075 0.48062 0.0
C2566 C 0.26952 0.08306 0.4961 0.0
H2567 H 0.27066 0.99227 0.52892 0.0
H2568 H 0.26632 0.99231 0.51607 0.0
H2569 H 0.28584 0.10552 0.50616 0.0
H2570 H 0.23424 0.11619 0.47098 0.0
H2571 H 0.23759 0.11497 0.48382 0.0
H2572 H 0.21887 0.00125 0.49355 0.0
C2573 C 0.26205 0.01888 0.51887 0.0
C2574 C 0.27081 0.08278 0.50348 0.0
C2575 C 0.26472 0.01891 0.52624 0.0
C2576 C 0.23999 0.08931 0.47358 0.0
C2577 C 0.24212 0.08866 0.48094 0.0
C2578 C 0.23386 0.02399 0.49624 0.0
C2579 C 0.2551 0.05292 0.51517 0.0
C2580 C 0.25357 0.05316 0.50733 0.0
C2581 C 0.24918 0.05436 0.48455 0.0
C2582 C 0.25098 0.05372 0.4924 0.0
H2583 H 0.24928 0.11361 0.52917 0.0
H2584 H 0.24425 0.11347 0.51634 0.0
H2585 H 0.22116 0.00074 0.50642 0.0
H2586 H 0.25621 0.995 0.47037 0.0
H2587 H 0.26026 0.99395 0.48324 0.0
C2588 C 0.16529 0.00876 0.72233 0.0
C2589 C 0.16573 0.97113 0.71977 0.0
C2590 C 0.16614 0.01596 0.72959 0.0
C2591 C 0.14497 0.97135 0.74675 0.0
H2592 H 0.20855 0.0521 0.75428 0.0
C2593 C 0.16616 0.99262 0.77671 0.0
C2594 C 0.16652 0.03027 0.77925 0.0
C2595 C 0.16669 0.98537 0.76945 0.0
C2596 C 0.19031 0.02973 0.75226 0.0
H2597 H 0.1677 0.91156 0.72284 0.0
H2598 H 0.16933 0.92417 0.7355 0.0
H2599 H 0.20834 0.03961 0.74161 0.0
H2600 H 0.16767 0.08982 0.77617 0.0
H2601 H 0.16803 0.07717 0.76351 0.0
H2602 H 0.12668 0.96161 0.75737 0.0
C2603 C 0.16794 0.94808 0.73189 0.0
C2604 C 0.19022 0.02256 0.745 0.0
C2605 C 0.16722 0.94088 0.72463 0.0
C2606 C 0.16749 0.06048 0.77438 0.0
C2607 C 0.16793 0.05323 0.76713 0.0
C2608 C 0.14496 0.97858 0.75401 0.0
C2609 C 0.16732 0.98569 0.73445 0.0
C2610 C 0.16756 0.99328 0.74216 0.0
C2611 C 0.1675 0.01558 0.76457 0.0
C2612 C 0.16764 0.00785 0.75685 0.0
H2613 H 0.16411 0.03272 0.71873 0.0
H2614 H 0.16523 0.04523 0.7314 0.0
H2615 H 0.12675 0.94897 0.74472 0.0
H2616 H 0.16558 0.96867 0.78032 0.0
H2617 H 0.16689 0.95604 0.76767 0.0
C2618 C 0.24831 0.97344 0.02669 0.0
C2619 C 0.24523 0.93867 0.03033 0.0
C2620 C 0.24987 0.97412 0.01931 0.0
C2621 C 0.22601 0.91576 0.00366 0.0
H2622 H 0.29261 0.98649 0.99389 0.0
C2623 C 0.25546 0.90695 0.97371 0.0
C2624 C 0.25646 0.9414 0.96992 0.0
C2625 C 0.25311 0.90708 0.98107 0.0
C2626 C 0.27355 0.96687 0.99654 0.0
H2627 H 0.24235 0.87725 0.02909 0.0
H2628 H 0.24575 0.87838 0.01624 0.0
H2629 H 0.29156 0.98558 0.00677 0.0
H2630 H 0.25527 0.00302 0.9709 0.0
H2631 H 0.25111 0.00319 0.98376 0.0
H2632 H 0.20832 0.89683 0.99342 0.0
C2633 C 0.24614 0.90521 0.01907 0.0
C2634 C 0.27294 0.96634 0.00392 0.0
C2635 C 0.24444 0.90455 0.02644 0.0
C2636 C 0.25461 0.97598 0.97366 0.0
C2637 C 0.25247 0.9761 0.98103 0.0
C2638 C 0.22675 0.91619 0.99628 0.0
C2639 C 0.24855 0.94001 0.01542 0.0
C2640 C 0.24921 0.94072 0.00757 0.0
C2641 C 0.25189 0.94165 0.98481 0.0
C2642 C 0.25057 0.9417 0.99265 0.0
H2643 H 0.24887 0.00025 0.02952 0.0
H2644 H 0.25129 0.00144 0.01667 0.0
H2645 H 0.20687 0.89616 0.00629 0.0
H2646 H 0.25679 0.87981 0.97099 0.0
H2647 H 0.25306 0.88007 0.98384 0.0
C2648 C 0.72381 0.01348 0.72431 0.0
C2649 C 0.68927 0.01272 0.72056 0.0
C2650 C 0.72399 0.01106 0.73168 0.0
C2651 C 0.66183 0.02531 0.74722 0.0
H2652 H 0.73855 0.96529 0.7569 0.0
C2653 C 0.65304 0.99008 0.77694 0.0
C2654 C 0.68693 0.99243 0.78087 0.0
C2655 C 0.65375 0.9934 0.76959 0.0
C2656 C 0.71719 0.98251 0.75427 0.0
H2657 H 0.62787 0.00802 0.72159 0.0
H2658 H 0.62824 0.00322 0.73441 0.0
H2659 H 0.73897 0.96871 0.74403 0.0
H2660 H 0.74813 0.00045 0.78017 0.0
H2661 H 0.74929 0.00633 0.76733 0.0
H2662 H 0.63987 0.03881 0.75747 0.0
C2663 C 0.65516 0.00645 0.73168 0.0
C2664 C 0.71744 0.98448 0.7469 0.0
C2665 C 0.65496 0.00898 0.72432 0.0
C2666 C 0.72151 0.99845 0.7773 0.0
C2667 C 0.72223 0.00158 0.76994 0.0
C2668 C 0.66151 0.02322 0.75459 0.0
C2669 C 0.68965 0.00772 0.73545 0.0
C2670 C 0.68969 0.00583 0.74329 0.0
C2671 C 0.68837 0.99899 0.76601 0.0
C2672 C 0.68913 0.00173 0.75819 0.0
H2673 H 0.75073 0.01645 0.72157 0.0
H2674 H 0.75103 0.01255 0.73442 0.0
H2675 H 0.64047 0.04258 0.74462 0.0
H2676 H 0.62592 0.98548 0.77954 0.0
H2677 H 0.62723 0.99089 0.7667 0.0
C2678 C 0.7373 0.90793 0.47467 0.0
C2679 C 0.74113 0.94187 0.47079 0.0
C2680 C 0.73938 0.90836 0.48204 0.0
C2681 C 0.72901 0.97244 0.49739 0.0
H2682 H 0.78381 0.89273 0.5073 0.0
C2683 C 0.76137 0.97991 0.52728 0.0
C2684 C 0.75843 0.94599 0.5312 0.0
C2685 C 0.75829 0.97936 0.51993 0.0
C2686 C 0.76798 0.91494 0.50462 0.0
H2687 H 0.75058 0.00283 0.47161 0.0
H2688 H 0.75454 0.00349 0.48446 0.0
H2689 H 0.78106 0.8919 0.49444 0.0
H2690 H 0.74916 0.88497 0.53046 0.0
H2691 H 0.7434 0.88409 0.51763 0.0
H2692 H 0.71597 0.9955 0.50757 0.0
C2693 C 0.74942 0.97662 0.48181 0.0
C2694 C 0.76644 0.91448 0.49724 0.0
C2695 C 0.74739 0.97619 0.47443 0.0
C2696 C 0.75176 0.91159 0.5276 0.0
C2697 C 0.74869 0.91104 0.52024 0.0
C2698 C 0.73054 0.97289 0.50477 0.0
C2699 C 0.7453 0.94273 0.4857 0.0
C2700 C 0.74697 0.94324 0.49354 0.0
C2701 C 0.75218 0.94488 0.51631 0.0
C2702 C 0.75007 0.94416 0.50847 0.0
H2703 H 0.7324 0.88099 0.47202 0.0
H2704 H 0.73567 0.88181 0.48488 0.0
H2705 H 0.71326 0.99468 0.49471 0.0
H2706 H 0.76658 0.0069 0.52989 0.0
H2707 H 0.76153 0.00587 0.51706 0.0
C2708 C 0.78239 0.9786 0.27777 0.0
C2709 C 0.81058 0.00097 0.28103 0.0
C2710 C 0.7813 0.97497 0.27042 0.0
C2711 C 0.81072 0.02246 0.25404 0.0
H2712 H 0.79898 0.92237 0.24564 0.0
C2713 C 0.82911 0.99681 0.22408 0.0
C2714 C 0.80547 0.96961 0.22085 0.0
C2715 C 0.82897 0.00126 0.23142 0.0
C2716 C 0.80168 0.95062 0.24788 0.0
H2717 H 0.85961 0.03724 0.27913 0.0
H2718 H 0.85744 0.03112 0.2663 0.0
H2719 H 0.79978 0.92887 0.25845 0.0
H2720 H 0.76238 0.92649 0.22275 0.0
H2721 H 0.76136 0.93494 0.2355 0.0
H2722 H 0.81207 0.0444 0.24351 0.0
C2723 C 0.83619 0.01646 0.26944 0.0
C2724 C 0.80226 0.95428 0.25523 0.0
C2725 C 0.83754 0.01976 0.27679 0.0
C2726 C 0.78118 0.94749 0.22509 0.0
C2727 C 0.78079 0.95216 0.23241 0.0
C2728 C 0.80979 0.01887 0.24669 0.0
C2729 C 0.80811 0.99397 0.26618 0.0
C2730 C 0.80693 0.99021 0.25838 0.0
C2731 C 0.80493 0.97885 0.23569 0.0
C2732 C 0.80538 0.98287 0.24351 0.0
H2733 H 0.76124 0.96373 0.2809 0.0
H2734 H 0.75916 0.95767 0.26805 0.0
H2735 H 0.81389 0.05058 0.25633 0.0
H2736 H 0.84824 0.01423 0.22096 0.0
H2737 H 0.84831 0.02174 0.23376 0.0
C2738 C 0.74276 0.09287 0.02672 0.0
C2739 C 0.74171 0.05894 0.03067 0.0
C2740 C 0.7453 0.09173 0.01936 0.0
C2741 C 0.72608 0.02983 0.0041 0.0
H2742 H 0.79334 0.09955 0.99425 0.0
C2743 C 0.75359 0.02021 0.97403 0.0
C2744 C 0.75664 0.05468 0.97029 0.0
C2745 C 0.75154 0.0202 0.9814 0.0
C2746 C 0.77405 0.08021 0.99691 0.0
H2747 H 0.74284 0.99721 0.02998 0.0
H2748 H 0.74736 0.99528 0.01712 0.0
H2749 H 0.79089 0.10043 0.00711 0.0
H2750 H 0.75898 0.11623 0.97135 0.0
H2751 H 0.75478 0.11623 0.98418 0.0
H2752 H 0.70897 0.00983 0.99391 0.0
C2753 C 0.74589 0.02273 0.01973 0.0
C2754 C 0.77273 0.08067 0.00428 0.0
C2755 C 0.74354 0.02386 0.0271 0.0
C2756 C 0.75694 0.08915 0.97407 0.0
C2757 C 0.75477 0.08915 0.98143 0.0
C2758 C 0.7273 0.02946 0.99673 0.0
C2759 C 0.7467 0.05666 0.01579 0.0
C2760 C 0.74865 0.05558 0.00796 0.0
C2761 C 0.75238 0.05467 0.98519 0.0
C2762 C 0.75122 0.05474 0.99304 0.0
H2763 H 0.74142 0.12037 0.02931 0.0
H2764 H 0.74548 0.11836 0.01647 0.0
H2765 H 0.70687 0.01049 0.00679 0.0
H2766 H 0.75339 0.99315 0.97128 0.0
H2767 H 0.75012 0.99312 0.98414 0.0
C2768 C 0.77653 0.49203 0.77599 0.0
C2769 C 0.81126 0.48875 0.77964 0.0
C2770 C 0.77597 0.49434 0.76862 0.0
C2771 C 0.83576 0.51861 0.75328 0.0
H2772 H 0.76281 0.4578 0.74281 0.0
C2773 C 0.84416 0.50326 0.72304 0.0
C2774 C 0.80975 0.50426 0.71925 0.0
C2775 C 0.844 0.50091 0.73041 0.0
C2776 C 0.78306 0.47531 0.74565 0.0
H2777 H 0.87267 0.48587 0.77842 0.0
H2778 H 0.87164 0.4899 0.76557 0.0
H2779 H 0.76293 0.45559 0.75568 0.0
H2780 H 0.74817 0.50318 0.72022 0.0
H2781 H 0.74789 0.49965 0.73307 0.0
H2782 H 0.85577 0.53857 0.74328 0.0
C2783 C 0.84487 0.49086 0.76841 0.0
C2784 C 0.78313 0.47403 0.75303 0.0
C2785 C 0.84543 0.48834 0.77577 0.0
C2786 C 0.77518 0.50235 0.72298 0.0
C2787 C 0.77502 0.50015 0.73035 0.0
C2788 C 0.8356 0.52002 0.74591 0.0
C2789 C 0.81013 0.49368 0.76475 0.0
C2790 C 0.80957 0.49556 0.75692 0.0
C2791 C 0.80944 0.49965 0.73416 0.0
C2792 C 0.80935 0.49828 0.742 0.0
H2793 H 0.7497 0.49248 0.77882 0.0
H2794 H 0.74878 0.49694 0.76596 0.0
H2795 H 0.85612 0.53597 0.75614 0.0
H2796 H 0.87131 0.50439 0.72033 0.0
H2797 H 0.87103 0.49989 0.73316 0.0
C2798 C 0.76077 0.59335 0.02558 0.0
C2799 C 0.75816 0.55953 0.02953 0.0
C2800 C 0.75913 0.59236 0.01821 0.0
C2801 C 0.7277 0.53248 0.00326 0.0
H2802 H 0.79642 0.59638 0.99243 0.0
C2803 C 0.74156 0.51922 0.97301 0.0
C2804 C 0.74293 0.55339 0.96914 0.0
C2805 C 0.74452 0.51962 0.98036 0.0
C2806 C 0.7768 0.57864 0.99538 0.0
H2807 H 0.75154 0.49815 0.02883 0.0
H2808 H 0.74901 0.49641 0.01598 0.0
H2809 H 0.79882 0.59781 0.0053 0.0
H2810 H 0.74916 0.61478 0.96997 0.0
H2811 H 0.75408 0.61548 0.98281 0.0
H2812 H 0.70565 0.51335 0.99334 0.0
C2813 C 0.75191 0.52375 0.01858 0.0
C2814 C 0.77814 0.57948 0.00275 0.0
C2815 C 0.75354 0.52474 0.02595 0.0
C2816 C 0.748 0.58793 0.97279 0.0
C2817 C 0.75103 0.58833 0.98015 0.0
C2818 C 0.72638 0.53162 0.99588 0.0
C2819 C 0.75484 0.55753 0.01462 0.0
C2820 C 0.75355 0.55647 0.00678 0.0
C2821 C 0.749 0.5542 0.98402 0.0
C2822 C 0.75087 0.55474 0.99186 0.0
H2823 H 0.76416 0.62067 0.02817 0.0
H2824 H 0.76089 0.61895 0.01532 0.0
H2825 H 0.70798 0.51482 0.0062 0.0
H2826 H 0.73781 0.49209 0.97036 0.0
H2827 H 0.74342 0.4928 0.98319 0.0
C2828 C 0.67025 0.44034 0.22517 0.0
C2829 C 0.6715 0.46994 0.22017 0.0
C2830 C 0.67064 0.44849 0.23239 0.0
C2831 C 0.6508 0.52593 0.2451 0.0
H2832 H 0.70864 0.46249 0.25799 0.0
C2833 C 0.67056 0.56419 0.27454 0.0
C2834 C 0.66666 0.53427 0.27942 0.0
C2835 C 0.67186 0.55666 0.2673 0.0
C2836 C 0.69207 0.48025 0.25446 0.0
H2837 H 0.67462 0.53132 0.21885 0.0
H2838 H 0.67585 0.54545 0.23144 0.0
H2839 H 0.71002 0.44882 0.24537 0.0
H2840 H 0.66112 0.47292 0.28052 0.0
H2841 H 0.66324 0.45986 0.26789 0.0
H2842 H 0.63293 0.55738 0.2542 0.0
C2843 C 0.67394 0.51597 0.22978 0.0
C2844 C 0.69283 0.47241 0.24723 0.0
C2845 C 0.67347 0.50784 0.22256 0.0
C2846 C 0.6642 0.49664 0.27691 0.0
C2847 C 0.66564 0.48911 0.26967 0.0
C2848 C 0.65014 0.53382 0.25233 0.0
C2849 C 0.67237 0.4864 0.23478 0.0
C2850 C 0.6721 0.49508 0.24246 0.0
C2851 C 0.66945 0.51903 0.26478 0.0
C2852 C 0.67066 0.511 0.25709 0.0
H2853 H 0.6686 0.41084 0.22351 0.0
H2854 H 0.66889 0.42506 0.2361 0.0
H2855 H 0.63402 0.54359 0.24158 0.0
H2856 H 0.67262 0.59349 0.27631 0.0
H2857 H 0.67523 0.58028 0.26367 0.0
C2858 C 0.75458 0.47586 0.47327 0.0
C2859 C 0.75716 0.44097 0.46966 0.0
C2860 C 0.75331 0.4767 0.48065 0.0
C2861 C 0.77728 0.41839 0.4963 0.0
H2862 H 0.71097 0.48913 0.50613 0.0
C2863 C 0.7472 0.40816 0.52618 0.0
C2864 C 0.74617 0.44235 0.53004 0.0
C2865 C 0.74979 0.40877 0.51882 0.0
C2866 C 0.72996 0.46952 0.50346 0.0
H2867 H 0.75944 0.37954 0.47094 0.0
H2868 H 0.75658 0.38099 0.48378 0.0
H2869 H 0.71199 0.48853 0.49325 0.0
H2870 H 0.74757 0.50403 0.52921 0.0
H2871 H 0.75217 0.50505 0.51635 0.0
H2872 H 0.79492 0.39912 0.50651 0.0
C2873 C 0.75636 0.40776 0.48093 0.0
C2874 C 0.73056 0.46917 0.49608 0.0
C2875 C 0.75775 0.40692 0.47356 0.0
C2876 C 0.74825 0.47718 0.52639 0.0
C2877 C 0.75064 0.47779 0.51902 0.0
C2878 C 0.77657 0.41865 0.50367 0.0
C2879 C 0.75447 0.44266 0.48457 0.0
C2880 C 0.7541 0.44347 0.49241 0.0
C2881 C 0.75126 0.44359 0.51516 0.0
C2882 C 0.7528 0.44411 0.50733 0.0
H2883 H 0.75418 0.50261 0.47042 0.0
H2884 H 0.75225 0.50408 0.48328 0.0
H2885 H 0.7963 0.39874 0.49364 0.0
H2886 H 0.74569 0.38084 0.52883 0.0
H2887 H 0.74983 0.38195 0.51598 0.0
C2888 C 0.22713 0.49046 0.22265 0.0
C2889 C 0.19584 0.5069 0.21916 0.0
C2890 C 0.22638 0.48509 0.22997 0.0
C2891 C 0.18295 0.52126 0.24616 0.0
H2892 H 0.20937 0.42285 0.25408 0.0
C2893 C 0.16153 0.48768 0.27575 0.0
C2894 C 0.18835 0.46399 0.27908 0.0
C2895 C 0.16253 0.49305 0.26844 0.0
C2896 C 0.20249 0.45072 0.25199 0.0
H2897 H 0.13937 0.53087 0.22061 0.0
H2898 H 0.13842 0.52202 0.2334 0.0
H2899 H 0.21182 0.43221 0.24134 0.0
H2900 H 0.23776 0.42802 0.27737 0.0
H2901 H 0.24036 0.43836 0.26469 0.0
H2902 H 0.1745 0.54024 0.25677 0.0
C2903 C 0.1634 0.5132 0.23046 0.0
C2904 C 0.20376 0.45597 0.24468 0.0
C2905 C 0.1639 0.51805 0.22314 0.0
C2906 C 0.21645 0.44617 0.27496 0.0
C2907 C 0.21778 0.45193 0.26766 0.0
C2908 C 0.18217 0.5162 0.25348 0.0
C2909 C 0.19459 0.49659 0.23394 0.0
C2910 C 0.19385 0.49123 0.2417 0.0
C2911 C 0.19069 0.47524 0.26429 0.0
C2912 C 0.19179 0.4808 0.25649 0.0
H2913 H 0.25211 0.48152 0.21973 0.0
H2914 H 0.25088 0.47241 0.23253 0.0
H2915 H 0.17558 0.54888 0.244 0.0
H2916 H 0.13941 0.50167 0.27879 0.0
H2917 H 0.14082 0.51071 0.26603 0.0
C2918 C 0.23911 0.48044 0.97368 0.0
C2919 C 0.23861 0.44593 0.96991 0.0
C2920 C 0.24156 0.48043 0.98105 0.0
C2921 C 0.27054 0.42077 0.99618 0.0
H2922 H 0.20476 0.48794 0.00695 0.0
C2923 C 0.25451 0.40669 0.02636 0.0
C2924 C 0.25295 0.44047 0.03034 0.0
C2925 C 0.2527 0.40788 0.01899 0.0
C2926 C 0.22366 0.46933 0.00403 0.0
H2927 H 0.24081 0.38434 0.97092 0.0
H2928 H 0.24499 0.38438 0.98376 0.0
H2929 H 0.20268 0.4894 0.99408 0.0
H2930 H 0.24794 0.50201 0.0297 0.0
H2931 H 0.24525 0.50413 0.01684 0.0
H2932 H 0.29165 0.40076 0.00611 0.0
C2933 C 0.24373 0.41145 0.98102 0.0
C2934 C 0.22246 0.47018 0.99665 0.0
C2935 C 0.2411 0.41145 0.97366 0.0
C2936 C 0.24911 0.47544 0.02679 0.0
C2937 C 0.24739 0.47665 0.01942 0.0
C2938 C 0.27183 0.42 0.00356 0.0
C2939 C 0.24379 0.44593 0.9848 0.0
C2940 C 0.24576 0.44577 0.99264 0.0
C2941 C 0.24937 0.44289 0.01542 0.0
C2942 C 0.24827 0.44413 0.00757 0.0
H2943 H 0.23729 0.50751 0.97095 0.0
H2944 H 0.24199 0.50748 0.98381 0.0
H2945 H 0.28928 0.40203 0.99325 0.0
H2946 H 0.25721 0.37923 0.02893 0.0
H2947 H 0.25363 0.38129 0.01609 0.0
C2948 C 0.27969 0.47677 0.77664 0.0
C2949 C 0.3079 0.49852 0.78003 0.0
C2950 C 0.27929 0.47344 0.76928 0.0
C2951 C 0.31156 0.52102 0.75306 0.0
H2952 H 0.29705 0.4218 0.74446 0.0
C2953 C 0.33061 0.49618 0.72308 0.0
C2954 C 0.30601 0.47015 0.71976 0.0
C2955 C 0.33038 0.50023 0.73043 0.0
C2956 C 0.30057 0.44983 0.74676 0.0
H2957 H 0.35779 0.53393 0.77835 0.0
H2958 H 0.3569 0.52828 0.76551 0.0
H2959 H 0.29724 0.42763 0.75728 0.0
H2960 H 0.26116 0.42869 0.72153 0.0
H2961 H 0.26007 0.43642 0.7343 0.0
H2962 H 0.31438 0.5434 0.74257 0.0
C2963 C 0.33504 0.51391 0.76854 0.0
C2964 C 0.30079 0.45311 0.75411 0.0
C2965 C 0.33566 0.51695 0.7759 0.0
C2966 C 0.28071 0.44878 0.72393 0.0
C2967 C 0.28027 0.45303 0.73126 0.0
C2968 C 0.31104 0.51781 0.74571 0.0
C2969 C 0.30689 0.49209 0.76516 0.0
C2970 C 0.30637 0.48871 0.75734 0.0
C2971 C 0.30533 0.47856 0.73462 0.0
C2972 C 0.3056 0.48215 0.74246 0.0
H2973 H 0.25791 0.4622 0.77966 0.0
H2974 H 0.25706 0.45669 0.76681 0.0
H2975 H 0.31545 0.54892 0.75541 0.0
H2976 H 0.35053 0.51301 0.72001 0.0
H2977 H 0.35042 0.51981 0.73282 0.0
C2978 C 0.2459 0.52177 0.52635 0.0
C2979 C 0.24379 0.55678 0.52994 0.0
C2980 C 0.24846 0.52081 0.51899 0.0
C2981 C 0.27507 0.5793 0.50359 0.0
H2982 H 0.21124 0.50881 0.49315 0.0
C2983 C 0.25758 0.58994 0.47345 0.0
C2984 C 0.25728 0.55578 0.46957 0.0
C2985 C 0.25588 0.58931 0.48081 0.0
C2986 C 0.2296 0.52833 0.49599 0.0
H2987 H 0.2433 0.61824 0.52863 0.0
H2988 H 0.24772 0.6165 0.51579 0.0
H2989 H 0.20953 0.50876 0.50603 0.0
H2990 H 0.25452 0.49415 0.47039 0.0
H2991 H 0.25206 0.49305 0.48325 0.0
H2992 H 0.29527 0.59884 0.49357 0.0
C2993 C 0.2476 0.58982 0.51867 0.0
C2994 C 0.22861 0.5283 0.50336 0.0
C2995 C 0.24485 0.59079 0.52602 0.0
C2996 C 0.25471 0.52099 0.47322 0.0
C2997 C 0.25313 0.52035 0.48059 0.0
C2998 C 0.27616 0.57925 0.49622 0.0
C2999 C 0.24922 0.55483 0.51507 0.0
C3000 C 0.25116 0.55395 0.50724 0.0
C3001 C 0.25397 0.55451 0.48448 0.0
C3002 C 0.25325 0.55396 0.49232 0.0
H3003 H 0.2452 0.49506 0.52922 0.0
H3004 H 0.25009 0.49343 0.51636 0.0
H3005 H 0.29323 0.59899 0.50643 0.0
H3006 H 0.25925 0.61725 0.4708 0.0
H3007 H 0.25587 0.61617 0.48363 0.0
C3008 C 0.575 0.37701 0.1977 0.0
C3009 C 0.58675 0.39137 0.19111 0.0
C3010 C 0.5545 0.34292 0.19812 0.0
C3011 C 0.54028 0.25416 0.18831 0.0
H3012 H 0.4517 0.24046 0.20028 0.0
C3013 C 0.43963 0.1262 0.18551 0.0
C3014 C 0.42219 0.11103 0.19157 0.0
C3015 C 0.46233 0.15872 0.18595 0.0
C3016 C 0.47682 0.24361 0.19701 0.0
H3017 H 0.58457 0.382 0.17978 0.0
H3018 H 0.54876 0.32271 0.18054 0.0
H3019 H 0.4841 0.30207 0.20002 0.0
H3020 H 0.41644 0.11722 0.20292 0.0
H3021 H 0.45673 0.17381 0.20371 0.0
H3022 H 0.53322 0.19588 0.1853 0.0
C3023 C 0.5559 0.33758 0.18538 0.0
C3024 C 0.49521 0.27895 0.19684 0.0
C3025 C 0.57616 0.37172 0.18495 0.0
C3026 C 0.42935 0.12823 0.19814 0.0
C3027 C 0.45217 0.16084 0.19859 0.0
C3028 C 0.52208 0.21883 0.18852 0.0
C3029 C 0.54556 0.32244 0.19197 0.0
C3030 C 0.52675 0.28471 0.1924 0.0
C3031 C 0.46833 0.17683 0.19248 0.0
C3032 C 0.48977 0.21329 0.19278 0.0
H3033 H 0.58265 0.39144 0.20256 0.0
H3034 H 0.54693 0.33186 0.20328 0.0
H3035 H 0.56505 0.25757 0.18496 0.0
H3036 H 0.43478 0.11373 0.18035 0.0
H3037 H 0.47394 0.17049 0.18112 0.0
C3038 C 0.12729 0.18339 0.43436 0.0
C3039 C 0.14331 0.1703 0.44072 0.0
C3040 C 0.09317 0.20386 0.43438 0.0
C3041 C 0.02763 0.25877 0.44577 0.0
H3042 H 0.95181 0.22807 0.43198 0.0
C3043 C 0.8736 0.31434 0.44704 0.0
C3044 C 0.85782 0.32701 0.44063 0.0
C3045 C 0.90745 0.29341 0.44709 0.0
C3046 C 0.97278 0.23719 0.43583 0.0
H3047 H 0.13687 0.17009 0.45212 0.0
H3048 H 0.07733 0.20574 0.45215 0.0
H3049 H 0.01439 0.19788 0.43194 0.0
H3050 H 0.86439 0.32601 0.42923 0.0
H3051 H 0.92347 0.28972 0.42934 0.0
H3052 H 0.98607 0.29817 0.44964 0.0
C3053 C 0.09124 0.20024 0.44715 0.0
C3054 C 0.00866 0.21999 0.43579 0.0
C3055 C 0.12535 0.17971 0.44712 0.0
C3056 C 0.87572 0.31674 0.43426 0.0
C3057 C 0.90958 0.29581 0.43432 0.0
C3058 C 0.99175 0.276 0.4458 0.0
C3059 C 0.07435 0.21179 0.44077 0.0
C3060 C 0.03651 0.23064 0.44075 0.0
C3061 C 0.92625 0.28464 0.44074 0.0
C3062 C 0.96393 0.26542 0.44083 0.0
H3063 H 0.14044 0.17685 0.42933 0.0
H3064 H 0.08122 0.21302 0.42939 0.0
H3065 H 0.04862 0.26788 0.44961 0.0
H3066 H 0.86048 0.32155 0.45204 0.0
H3067 H 0.91921 0.28457 0.45212 0.0
C3068 C 0.93524 0.62205 0.69719 0.0
C3069 C 0.92271 0.6076 0.69065 0.0
C3070 C 0.95477 0.65672 0.69753 0.0
C3071 C 0.9635 0.74639 0.68781 0.0
H3072 H 0.0523 0.764 0.69955 0.0
C3073 C 0.05641 0.88039 0.68523 0.0
C3074 C 0.07384 0.89561 0.69129 0.0
C3075 C 0.03543 0.84671 0.68561 0.0
C3076 C 0.0271 0.75973 0.69634 0.0
H3077 H 0.92275 0.61735 0.67933 0.0
H3078 H 0.95691 0.6777 0.67995 0.0
H3079 H 0.02341 0.70069 0.69919 0.0
H3080 H 0.08114 0.88832 0.70259 0.0
H3081 H 0.04378 0.82971 0.70327 0.0
H3082 H 0.96691 0.80527 0.68498 0.0
C3083 C 0.9511 0.66242 0.68481 0.0
C3084 C 0.01073 0.72342 0.69611 0.0
C3085 C 0.93181 0.62767 0.68445 0.0
C3086 C 0.06818 0.87733 0.69782 0.0
C3087 C 0.04708 0.84355 0.6982 0.0
C3088 C 0.97968 0.78269 0.68808 0.0
C3089 C 0.96196 0.67773 0.69136 0.0
C3090 C 0.97908 0.71629 0.69176 0.0
C3091 C 0.03117 0.82744 0.69207 0.0
C3092 C 0.01198 0.7897 0.69228 0.0
H3093 H 0.9288 0.60729 0.70207 0.0
H3094 H 0.96277 0.66786 0.70266 0.0
H3095 H 0.93859 0.74192 0.68454 0.0
H3096 H 0.06011 0.89369 0.68011 0.0
H3097 H 0.02393 0.83495 0.68077 0.0
C3098 C 0.37937 0.82082 0.93472 0.0
C3099 C 0.36064 0.83065 0.94103 0.0
C3100 C 0.41351 0.8004 0.93489 0.0
C3101 C 0.47413 0.7393 0.94608 0.0
H3102 H 0.55517 0.7767 0.934 0.0
C3103 C 0.62635 0.67775 0.94748 0.0
C3104 C 0.64319 0.66909 0.94094 0.0
C3105 C 0.59321 0.69982 0.9478 0.0
C3106 C 0.53277 0.76574 0.93737 0.0
H3107 H 0.36227 0.82506 0.95245 0.0
H3108 H 0.42182 0.78941 0.95272 0.0
H3109 H 0.49312 0.80786 0.93381 0.0
H3110 H 0.63936 0.67839 0.92962 0.0
H3111 H 0.5817 0.71649 0.93018 0.0
H3112 H 0.51368 0.69691 0.94959 0.0
C3113 C 0.41004 0.7975 0.94765 0.0
C3114 C 0.49719 0.78351 0.93724 0.0
C3115 C 0.37593 0.81803 0.94749 0.0
C3116 C 0.62716 0.68442 0.93476 0.0
C3117 C 0.59413 0.70647 0.93507 0.0
C3118 C 0.50972 0.72144 0.9462 0.0
C3119 C 0.42961 0.78922 0.94136 0.0
C3120 C 0.4674 0.77031 0.94156 0.0
C3121 C 0.57634 0.71379 0.94158 0.0
C3122 C 0.53935 0.7343 0.9418 0.0
H3123 H 0.36834 0.8299 0.92965 0.0
H3124 H 0.42759 0.79378 0.92995 0.0
H3125 H 0.45163 0.72831 0.94943 0.0
H3126 H 0.638 0.66647 0.95235 0.0
H3127 H 0.58049 0.70549 0.9529 0.0
C3128 C 0.42446 0.87177 0.31577 0.0
C3129 C 0.41282 0.88789 0.30933 0.0
C3130 C 0.44638 0.83853 0.31588 0.0
C3131 C 0.50767 0.77694 0.30481 0.0
H3132 H 0.47834 0.69842 0.31817 0.0
C3133 C 0.56873 0.62506 0.30322 0.0
C3134 C 0.58132 0.60897 0.30961 0.0
C3135 C 0.54693 0.65837 0.30323 0.0
C3136 C 0.48707 0.72019 0.31445 0.0
H3137 H 0.41628 0.88235 0.29792 0.0
H3138 H 0.45422 0.82432 0.29812 0.0
H3139 H 0.44495 0.7594 0.31818 0.0
H3140 H 0.57948 0.61447 0.32103 0.0
H3141 H 0.54152 0.6726 0.32101 0.0
H3142 H 0.54969 0.73767 0.30106 0.0
C3143 C 0.44665 0.83753 0.30309 0.0
C3144 C 0.46805 0.75517 0.31447 0.0
C3145 C 0.42477 0.87077 0.30299 0.0
C3146 C 0.57029 0.62609 0.31601 0.0
C3147 C 0.54842 0.65936 0.31601 0.0
C3148 C 0.52665 0.74195 0.30478 0.0
C3149 C 0.45715 0.82068 0.30954 0.0
C3150 C 0.47811 0.78392 0.30964 0.0
C3151 C 0.53715 0.67626 0.30961 0.0
C3152 C 0.51651 0.71317 0.30959 0.0
H3153 H 0.41594 0.8843 0.32076 0.0
H3154 H 0.4546 0.82661 0.32093 0.0
H3155 H 0.51645 0.79868 0.30109 0.0
H3156 H 0.57656 0.61258 0.2982 0.0
H3157 H 0.53809 0.67036 0.29822 0.0
C3158 C 0.62825 0.31529 0.55212 0.0
C3159 C 0.64135 0.32998 0.5586 0.0
C3160 C 0.59378 0.29545 0.55176 0.0
C3161 C 0.50237 0.28855 0.56098 0.0
H3162 H 0.48807 0.1964 0.54999 0.0
C3163 C 0.36937 0.19419 0.56358 0.0
C3164 C 0.3555 0.17503 0.55758 0.0
C3165 C 0.40274 0.21566 0.56322 0.0
C3166 C 0.49142 0.22251 0.55298 0.0
H3167 H 0.62935 0.33363 0.56983 0.0
H3168 H 0.56935 0.29885 0.56918 0.0
H3169 H 0.55089 0.22618 0.5505 0.0
H3170 H 0.36484 0.16515 0.5464 0.0
H3171 H 0.42295 0.2033 0.54575 0.0
H3172 H 0.44304 0.28507 0.56347 0.0
C3173 C 0.58553 0.30321 0.56437 0.0
C3174 C 0.52745 0.23941 0.5533 0.0
C3175 C 0.62008 0.32284 0.56475 0.0
C3176 C 0.37478 0.17945 0.55113 0.0
C3177 C 0.40827 0.20101 0.55076 0.0
C3178 C 0.46635 0.2718 0.56064 0.0
C3179 C 0.57162 0.29007 0.55785 0.0
C3180 C 0.53338 0.27232 0.55738 0.0
C3181 C 0.42305 0.21866 0.55685 0.0
C3182 C 0.46054 0.23831 0.5567 0.0
H3183 H 0.64394 0.32019 0.54728 0.0
H3184 H 0.58373 0.28572 0.54666 0.0
H3185 H 0.50589 0.3144 0.56405 0.0
H3186 H 0.35525 0.19151 0.56864 0.0
H3187 H 0.41347 0.22854 0.56802 0.0
C3188 C 0.93616 0.37209 0.80287 0.0
C3189 C 0.92361 0.38881 0.8092 0.0
C3190 C 0.95763 0.33859 0.80297 0.0
C3191 C 0.97555 0.25489 0.81418 0.0
H3192 H 0.05813 0.23608 0.80103 0.0
C3193 C 0.07376 0.12285 0.81575 0.0
C3194 C 0.08515 0.10594 0.80935 0.0
C3195 C 0.05279 0.15668 0.81575 0.0
C3196 C 0.03481 0.24075 0.80468 0.0
H3197 H 0.92549 0.38436 0.82064 0.0
H3198 H 0.96343 0.3262 0.8208 0.0
H3199 H 0.02675 0.29809 0.80112 0.0
H3200 H 0.08193 0.11052 0.79793 0.0
H3201 H 0.04498 0.16931 0.79795 0.0
H3202 H 0.98366 0.19753 0.81773 0.0
C3203 C 0.95597 0.33864 0.81575 0.0
C3204 C 0.01691 0.2763 0.80474 0.0
C3205 C 0.93448 0.37216 0.81565 0.0
C3206 C 0.07376 0.12281 0.80296 0.0
C3207 C 0.05286 0.15669 0.80296 0.0
C3208 C 0.99348 0.21935 0.81412 0.0
C3209 C 0.9671 0.32106 0.80941 0.0
C3210 C 0.98705 0.28376 0.80949 0.0
C3211 C 0.04279 0.17437 0.80935 0.0
C3212 C 0.02324 0.21186 0.80935 0.0
H3213 H 0.92831 0.38411 0.7978 0.0
H3214 H 0.96552 0.32563 0.79799 0.0
H3215 H 0.95216 0.25949 0.81781 0.0
H3216 H 0.08202 0.11063 0.82077 0.0
H3217 H 0.04564 0.16973 0.82076 0.0
C3218 C 0.12616 0.81521 0.05319 0.0
C3219 C 0.14227 0.82781 0.05957 0.0
C3220 C 0.09194 0.79491 0.05317 0.0
C3221 C 0.00591 0.78128 0.06396 0.0
H3222 H 0.98606 0.69801 0.05101 0.0
C3223 C 0.87083 0.68717 0.06527 0.0
C3224 C 0.85474 0.67499 0.05885 0.0
C3225 C 0.90499 0.70759 0.06533 0.0
C3226 C 0.99101 0.72157 0.0546 0.0
H3227 H 0.13599 0.82712 0.07098 0.0
H3228 H 0.07657 0.7912 0.07094 0.0
H3229 H 0.04911 0.72713 0.05132 0.0
H3230 H 0.86096 0.67661 0.04744 0.0
H3231 H 0.92029 0.71265 0.04757 0.0
H3232 H 0.9478 0.77566 0.06724 0.0
C3233 C 0.09005 0.79775 0.06594 0.0
C3234 C 0.02717 0.73816 0.05479 0.0
C3235 C 0.12429 0.81805 0.06596 0.0
C3236 C 0.87263 0.68534 0.05249 0.0
C3237 C 0.90682 0.70572 0.05256 0.0
C3238 C 0.96975 0.76467 0.06378 0.0
C3239 C 0.07307 0.7867 0.05953 0.0
C3240 C 0.03502 0.76821 0.05947 0.0
C3241 C 0.92382 0.71628 0.05898 0.0
C3242 C 0.96189 0.73467 0.05908 0.0
H3243 H 0.1392 0.82222 0.04817 0.0
H3244 H 0.07949 0.78702 0.04814 0.0
H3245 H 0.01084 0.80487 0.06754 0.0
H3246 H 0.85782 0.67973 0.07027 0.0
H3247 H 0.91745 0.71516 0.07037 0.0
C3248 C 0.56364 0.87242 0.80417 0.0
C3249 C 0.57677 0.88876 0.8105 0.0
C3250 C 0.54258 0.83868 0.80426 0.0
C3251 C 0.48547 0.77517 0.81559 0.0
H3252 H 0.51688 0.69767 0.80219 0.0
C3253 C 0.4247 0.62253 0.8165 0.0
C3254 C 0.41392 0.60666 0.80998 0.0
C3255 C 0.44625 0.656 0.81675 0.0
C3256 C 0.50753 0.7191 0.80592 0.0
H3257 H 0.57634 0.88338 0.82192 0.0
H3258 H 0.53948 0.82445 0.82207 0.0
H3259 H 0.54854 0.75948 0.8022 0.0
H3260 H 0.41855 0.6129 0.79861 0.0
H3261 H 0.45573 0.67129 0.79905 0.0
H3262 H 0.44419 0.73491 0.81927 0.0
C3263 C 0.54554 0.83782 0.81704 0.0
C3264 C 0.52561 0.75454 0.80592 0.0
C3265 C 0.56674 0.87155 0.81694 0.0
C3266 C 0.42638 0.62425 0.80372 0.0
C3267 C 0.44786 0.65772 0.80398 0.0
C3268 C 0.46726 0.73974 0.81558 0.0
C3269 C 0.53404 0.82058 0.81069 0.0
C3270 C 0.51464 0.78302 0.81073 0.0
C3271 C 0.4575 0.67433 0.81049 0.0
C3272 C 0.47797 0.71136 0.81072 0.0
H3273 H 0.57064 0.88498 0.79911 0.0
H3274 H 0.53346 0.82642 0.79929 0.0
H3275 H 0.47621 0.79668 0.81932 0.0
H3276 H 0.41573 0.60964 0.82143 0.0
H3277 H 0.4538 0.66772 0.82186 0.0
C3278 C 0.12827 0.68651 0.55221 0.0
C3279 C 0.14269 0.67275 0.55866 0.0
C3280 C 0.09477 0.70801 0.55204 0.0
C3281 C 0.02829 0.76321 0.56331 0.0
H3282 H 0.95429 0.73729 0.54886 0.0
C3283 C 0.87341 0.81321 0.56519 0.0
C3284 C 0.8577 0.82992 0.5591 0.0
C3285 C 0.9077 0.79322 0.56484 0.0
C3286 C 0.97481 0.74505 0.55289 0.0
H3287 H 0.13392 0.67213 0.57001 0.0
H3288 H 0.07543 0.70919 0.56969 0.0
H3289 H 0.01674 0.70657 0.54883 0.0
H3290 H 0.86473 0.83682 0.54778 0.0
H3291 H 0.92471 0.80161 0.54718 0.0
H3292 H 0.98619 0.80124 0.56743 0.0
C3293 C 0.09017 0.70371 0.56477 0.0
C3294 C 0.01063 0.72761 0.55286 0.0
C3295 C 0.1237 0.68231 0.56495 0.0
C3296 C 0.87604 0.82434 0.55257 0.0
C3297 C 0.91039 0.80416 0.55222 0.0
C3298 C 0.99248 0.78047 0.56336 0.0
C3299 C 0.07493 0.71621 0.55831 0.0
C3300 C 0.03768 0.73628 0.5581 0.0
C3301 C 0.92704 0.78932 0.55839 0.0
C3302 C 0.96524 0.77132 0.55819 0.0
H3303 H 0.14228 0.67986 0.54727 0.0
H3304 H 0.08416 0.71781 0.54699 0.0
H3305 H 0.04868 0.77105 0.56735 0.0
H3306 H 0.85994 0.81662 0.5703 0.0
H3307 H 0.91946 0.78137 0.56965 0.0
C3308 C 0.07816 0.37119 0.31603 0.0
C3309 C 0.08947 0.38688 0.30952 0.0
C3310 C 0.05679 0.33762 0.31625 0.0
C3311 C 0.03712 0.25202 0.30569 0.0
H3312 H 0.95359 0.23729 0.31881 0.0
C3313 C 0.9349 0.12376 0.30414 0.0
C3314 C 0.92148 0.10785 0.31048 0.0
C3315 C 0.95723 0.15667 0.30421 0.0
C3316 C 0.97723 0.24076 0.31519 0.0
H3317 H 0.08579 0.38035 0.29814 0.0
H3318 H 0.0482 0.32202 0.29854 0.0
H3319 H 0.9868 0.29837 0.31849 0.0
H3320 H 0.92247 0.11323 0.3219 0.0
H3321 H 0.96195 0.17043 0.32201 0.0
H3322 H 0.02763 0.19448 0.30239 0.0
C3323 C 0.05643 0.33539 0.30347 0.0
C3324 C 0.99614 0.27579 0.31499 0.0
C3325 C 0.07771 0.369 0.30324 0.0
C3326 C 0.93217 0.12481 0.31692 0.0
C3327 C 0.95455 0.15776 0.31698 0.0
C3328 C 0.01829 0.21699 0.3059 0.0
C3329 C 0.04634 0.31897 0.30997 0.0
C3330 C 0.02613 0.28186 0.31021 0.0
C3331 C 0.96675 0.17443 0.31062 0.0
C3332 C 0.988 0.21102 0.31063 0.0
H3333 H 0.0867 0.38421 0.32097 0.0
H3334 H 0.0496 0.32555 0.32134 0.0
H3335 H 0.06063 0.25559 0.30205 0.0
H3336 H 0.92721 0.11151 0.29909 0.0
H3337 H 0.96586 0.16896 0.29921 0.0
C3338 C 0.62647 0.18689 0.05325 0.0
C3339 C 0.64243 0.17455 0.05967 0.0
C3340 C 0.5921 0.20697 0.05318 0.0
C3341 C 0.52484 0.2612 0.06439 0.0
H3342 H 0.45042 0.2286 0.0505 0.0
C3343 C 0.36912 0.31142 0.06564 0.0
C3344 C 0.35318 0.32433 0.05926 0.0
C3345 C 0.40358 0.29152 0.06566 0.0
C3346 C 0.47099 0.23823 0.05437 0.0
H3347 H 0.63563 0.17536 0.07106 0.0
H3348 H 0.57565 0.21017 0.07092 0.0
H3349 H 0.51378 0.20004 0.05054 0.0
H3350 H 0.36007 0.32465 0.04787 0.0
H3351 H 0.42018 0.28996 0.04792 0.0
H3352 H 0.48201 0.29931 0.06824 0.0
C3353 C 0.58979 0.20448 0.06594 0.0
C3354 C 0.50734 0.22199 0.05438 0.0
C3355 C 0.62418 0.18441 0.06602 0.0
C3356 C 0.37151 0.31515 0.05288 0.0
C3357 C 0.40597 0.29519 0.0529 0.0
C3358 C 0.48849 0.2774 0.06439 0.0
C3359 C 0.57293 0.21519 0.05951 0.0
C3360 C 0.53468 0.2333 0.05939 0.0
C3361 C 0.42283 0.28397 0.05931 0.0
C3362 C 0.46114 0.26606 0.05938 0.0
H3363 H 0.63984 0.18001 0.04826 0.0
H3364 H 0.58023 0.21552 0.04814 0.0
H3365 H 0.5454 0.27086 0.06827 0.0
H3366 H 0.35569 0.31777 0.07066 0.0
H3367 H 0.41548 0.28257 0.07067 0.0
C3368 C 0.5613 0.12594 0.68536 0.0
C3369 C 0.57171 0.10718 0.69163 0.0
C3370 C 0.5394 0.15915 0.68559 0.0
C3371 C 0.51532 0.23843 0.69758 0.0
H3372 H 0.44087 0.26226 0.68312 0.0
C3373 C 0.41801 0.37269 0.69795 0.0
C3374 C 0.41261 0.39117 0.69143 0.0
C3375 C 0.43804 0.33824 0.69829 0.0
C3376 C 0.46183 0.25612 0.68716 0.0
H3377 H 0.56555 0.10759 0.70304 0.0
H3378 H 0.52668 0.16509 0.70341 0.0
H3379 H 0.47157 0.19998 0.68315 0.0
H3380 H 0.42591 0.38893 0.68023 0.0
H3381 H 0.46083 0.32921 0.68087 0.0
H3382 H 0.50531 0.2947 0.70159 0.0
C3383 C 0.53623 0.1546 0.69833 0.0
C3384 C 0.47941 0.22043 0.68718 0.0
C3385 C 0.55826 0.12145 0.69811 0.0
C3386 C 0.42921 0.37539 0.68534 0.0
C3387 C 0.44901 0.34098 0.68568 0.0
C3388 C 0.49755 0.27409 0.69758 0.0
C3389 C 0.52721 0.17428 0.69209 0.0
C3390 C 0.50668 0.2113 0.69234 0.0
C3391 C 0.45286 0.3216 0.69213 0.0
C3392 C 0.47099 0.28345 0.69232 0.0
H3393 H 0.57123 0.11584 0.68028 0.0
H3394 H 0.53331 0.17377 0.68068 0.0
H3395 H 0.53661 0.23254 0.70158 0.0
H3396 H 0.4056 0.38405 0.70275 0.0
H3397 H 0.44057 0.32388 0.70334 0.0
C3398 C 0.37538 0.68094 0.43423 0.0
C3399 C 0.35781 0.66996 0.44059 0.0
C3400 C 0.40915 0.70201 0.43431 0.0
C3401 C 0.4918 0.72089 0.44571 0.0
H3402 H 0.51285 0.80169 0.4323 0.0
C3403 C 0.62399 0.8186 0.44756 0.0
C3404 C 0.64157 0.82981 0.44122 0.0
C3405 C 0.5902 0.79756 0.44746 0.0
C3406 C 0.50759 0.77883 0.43602 0.0
H3407 H 0.36101 0.67424 0.45201 0.0
H3408 H 0.41961 0.7114 0.45213 0.0
H3409 H 0.45069 0.77064 0.43224 0.0
H3410 H 0.63836 0.82598 0.42979 0.0
H3411 H 0.57973 0.78884 0.42962 0.0
H3412 H 0.54869 0.72905 0.44949 0.0
C3413 C 0.40764 0.70304 0.44709 0.0
C3414 C 0.47193 0.76114 0.436 0.0
C3415 C 0.37386 0.68201 0.44702 0.0
C3416 C 0.62548 0.81805 0.43478 0.0
C3417 C 0.5917 0.79702 0.43467 0.0
C3418 C 0.52745 0.73856 0.44573 0.0
C3419 C 0.42608 0.71257 0.44075 0.0
C3420 C 0.46363 0.73201 0.44085 0.0
C3421 C 0.57327 0.78723 0.44101 0.0
C3422 C 0.53575 0.76772 0.44089 0.0
H3423 H 0.36382 0.67216 0.42918 0.0
H3424 H 0.42278 0.70873 0.42933 0.0
H3425 H 0.48652 0.69803 0.44943 0.0
H3426 H 0.63555 0.82719 0.45262 0.0
H3427 H 0.57659 0.79068 0.45243 0.0
C3428 C 0.92778 0.87639 0.18638 0.0
C3429 C 0.9122 0.89294 0.19249 0.0
C3430 C 0.95069 0.84403 0.18684 0.0
C3431 C 0.97031 0.76194 0.19841 0.0
H3432 H 0.05433 0.74676 0.18541 0.0
C3433 C 0.07148 0.62991 0.19845 0.0
C3434 C 0.07981 0.61455 0.19175 0.0
C3435 C 0.05065 0.66378 0.19905 0.0
C3436 C 0.03079 0.75054 0.18904 0.0
H3437 H 0.90971 0.88915 0.20392 0.0
H3438 H 0.95041 0.83285 0.20473 0.0
H3439 H 0.02167 0.80797 0.1857 0.0
H3440 H 0.07104 0.62181 0.18048 0.0
H3441 H 0.03492 0.68065 0.18156 0.0
H3442 H 0.97981 0.70426 0.20175 0.0
C3443 C 0.94425 0.84464 0.19957 0.0
C3444 C 0.01207 0.78558 0.18921 0.0
C3445 C 0.92118 0.87707 0.19911 0.0
C3446 C 0.06541 0.63288 0.18571 0.0
C3447 C 0.04492 0.66677 0.18632 0.0
C3448 C 0.98932 0.72689 0.19828 0.0
C3449 C 0.95882 0.82745 0.19343 0.0
C3450 C 0.9811 0.79148 0.19379 0.0
C3451 C 0.03808 0.683 0.19297 0.0
C3452 C 0.01923 0.72066 0.19349 0.0
H3453 H 0.92144 0.88775 0.18119 0.0
H3454 H 0.96094 0.83126 0.18199 0.0
H3455 H 0.94632 0.76539 0.20195 0.0
H3456 H 0.08207 0.61649 0.20321 0.0
H3457 H 0.04571 0.67571 0.20424 0.0
C3458 C 0.87358 0.18012 0.94751 0.0
C3459 C 0.85849 0.16654 0.9411 0.0
C3460 C 0.90704 0.20167 0.94757 0.0
C3461 C 0.97185 0.25812 0.93626 0.0
H3462 H 0.04735 0.23101 0.95036 0.0
C3463 C 0.12524 0.31474 0.93485 0.0
C3464 C 0.14062 0.32915 0.94117 0.0
C3465 C 0.09152 0.29364 0.93492 0.0
C3466 C 0.02643 0.23912 0.94643 0.0
H3467 H 0.86593 0.16639 0.92972 0.0
H3468 H 0.92435 0.20373 0.92985 0.0
H3469 H 0.98554 0.19921 0.95036 0.0
H3470 H 0.13345 0.33114 0.95255 0.0
H3471 H 0.07457 0.29435 0.95266 0.0
H3472 H 0.01281 0.29791 0.9323 0.0
C3473 C 0.9102 0.19792 0.93482 0.0
C3474 C 0.99099 0.22102 0.94644 0.0
C3475 C 0.87673 0.17639 0.93475 0.0
C3476 C 0.12242 0.32048 0.94759 0.0
C3477 C 0.0887 0.29931 0.94766 0.0
C3478 C 0.0073 0.27617 0.93624 0.0
C3479 C 0.92613 0.21014 0.94124 0.0
C3480 C 0.96332 0.23028 0.94135 0.0
C3481 C 0.07246 0.2864 0.94131 0.0
C3482 C 0.03502 0.26679 0.94131 0.0
H3483 H 0.86017 0.17325 0.9525 0.0
H3484 H 0.91822 0.21129 0.9526 0.0
H3485 H 0.95097 0.26626 0.93232 0.0
H3486 H 0.1386 0.32065 0.92982 0.0
H3487 H 0.08008 0.28342 0.92996 0.0
loop_
_geom_bond_atom_site_label_1
_geom_bond_atom_site_label_2
_geom_bond_distance
_geom_bond_site_symmetry_2
_ccdc_geom_bond_type
Co0 O3 1.970 . S
Co0 N17 1.989 . S
Co0 O25 1.967 . S
Co0 O32 1.920 . S
Co1 O4 1.966 . S
Co1 N10 2.022 . S
Co1 N18 1.993 . S
Co1 O26 1.941 . S
C2 O3 1.258 . S
C2 O4 1.263 . S
O3 Co0 1.970 . S
O3 C2 1.258 . S
O4 Co1 1.966 . S
O4 C2 1.263 . S
C5 O6 1.235 . S
C5 O32 1.289 . S
O6 C5 1.235 . S
C7 C9 1.400 . S
C7 N10 1.351 . S
C7 C12 1.501 . S
C8 C9 1.387 . S
C8 N11 1.341 . S
C9 C7 1.400 . S
C9 C8 1.387 . S
N10 Co1 2.022 . S
N10 C7 1.351 . S
N10 N11 1.365 . S
N11 C8 1.341 . S
N11 N10 1.365 . S
N11 H31 0.862 . S
C12 C7 1.501 . S
C12 H13 0.961 . S
C12 H14 0.961 . S
C12 H15 0.960 . S
H13 C12 0.961 . S
H14 C12 0.961 . S
H15 C12 0.960 . S
C16 N17 1.342 1_565 S
C16 C20 1.401 . S
C16 C21 1.499 . S
N17 Co0 1.989 . S
N17 C16 1.342 1_545 S
N17 N18 1.388 . S
N18 Co1 1.993 . S
N18 N17 1.388 . S
N18 C19 1.346 1_545 S
C19 N18 1.346 1_565 S
C19 C20 1.396 . S
C19 C29 1.510 . S
C20 C16 1.401 . S
C20 C19 1.396 . S
C21 C16 1.499 . S
C21 H22 0.959 . S
C21 H23 0.960 . S
C21 H24 0.961 . S
H22 C21 0.959 . S
H23 C21 0.960 . S
H24 C21 0.961 . S
O25 Co0 1.967 . S
O25 C33 1.258 . S
O26 Co1 1.941 . S
O26 C33 1.266 . S
H27 C29 0.959 . S
H28 C29 0.961 . S
C29 C19 1.510 . S
C29 H27 0.959 . S
C29 H28 0.961 . S
C29 H30 0.960 . S
H30 C29 0.960 . S
H31 N11 0.862 . S
O32 Co0 1.920 . S
O32 C5 1.289 . S
C33 O25 1.258 . S
C33 O26 1.266 . S
Co34 O37 1.970 . S
Co34 N51 1.989 . S
Co34 O59 1.967 . S
Co34 O66 1.920 . S
Co35 O38 1.966 . S
Co35 N44 2.022 . S
Co35 N52 1.993 . S
Co35 O60 1.941 . S
C36 O37 1.258 . S
C36 O38 1.263 . S
O37 Co34 1.970 . S
O37 C36 1.258 . S
O38 Co35 1.966 . S
O38 C36 1.263 . S
C39 O40 1.235 . S
C39 O66 1.289 . S
O40 C39 1.235 . S
C41 C43 1.400 . S
C41 N44 1.351 . S
C41 C46 1.501 . S
C42 C43 1.387 . S
C42 N45 1.341 . S
C43 C41 1.400 . S
C43 C42 1.387 . S
N44 Co35 2.022 . S
N44 C41 1.351 . S
N44 N45 1.365 . S
N45 C42 1.341 . S
N45 N44 1.365 . S
N45 H65 0.862 . S
C46 C41 1.501 . S
C46 H47 0.961 . S
C46 H48 0.961 1_545 S
C46 H49 0.960 . S
H47 C46 0.961 . S
H48 C46 0.961 1_565 S
H49 C46 0.960 . S
C50 N51 1.342 . S
C50 C54 1.401 . S
C50 C55 1.499 . S
N51 Co34 1.989 . S
N51 C50 1.342 . S
N51 N52 1.388 . S
N52 Co35 1.993 . S
N52 N51 1.388 . S
N52 C53 1.346 . S
C53 N52 1.346 . S
C53 C54 1.396 . S
C53 C63 1.510 . S
C54 C50 1.401 . S
C54 C53 1.396 . S
C55 C50 1.499 . S
C55 H56 0.959 . S
C55 H57 0.960 . S
C55 H58 0.961 . S
H56 C55 0.959 . S
H57 C55 0.960 . S
H58 C55 0.961 . S
O59 Co34 1.967 . S
O59 C67 1.258 . S
O60 Co35 1.941 . S
O60 C67 1.266 . S
H61 C63 0.959 . S
H62 C63 0.961 . S
C63 C53 1.510 . S
C63 H61 0.959 . S
C63 H62 0.961 . S
C63 H64 0.960 . S
H64 C63 0.960 . S
H65 N45 0.862 . S
O66 Co34 1.920 . S
O66 C39 1.289 . S
C67 O59 1.258 . S
C67 O60 1.266 . S
Co68 O71 1.970 . S
Co68 N85 1.989 . S
Co68 O93 1.967 . S
Co68 O100 1.920 . S
Co69 O72 1.966 . S
Co69 N78 2.022 . S
Co69 N86 1.993 . S
Co69 O94 1.941 . S
C70 O71 1.258 . S
C70 O72 1.263 . S
O71 Co68 1.970 . S
O71 C70 1.258 . S
O72 Co69 1.966 . S
O72 C70 1.263 . S
C73 O74 1.235 . S
C73 O100 1.289 . S
O74 C73 1.235 . S
C75 C77 1.400 . S
C75 N78 1.351 . S
C75 C80 1.501 . S
C76 C77 1.387 . S
C76 N79 1.341 . S
C77 C75 1.400 . S
C77 C76 1.387 . S
N78 Co69 2.022 . S
N78 C75 1.351 . S
N78 N79 1.365 . S
N79 C76 1.341 . S
N79 N78 1.365 . S
N79 H99 0.862 . S
C80 C75 1.501 . S
C80 H81 0.961 . S
C80 H82 0.961 . S
C80 H83 0.960 . S
H81 C80 0.961 . S
H82 C80 0.961 . S
H83 C80 0.960 . S
C84 N85 1.342 1_545 S
C84 C88 1.401 . S
C84 C89 1.499 . S
N85 Co68 1.989 . S
N85 C84 1.342 1_565 S
N85 N86 1.388 . S
N86 Co69 1.993 . S
N86 N85 1.388 . S
N86 C87 1.346 1_565 S
C87 N86 1.346 1_545 S
C87 C88 1.396 . S
C87 C97 1.510 . S
C88 C84 1.401 . S
C88 C87 1.396 . S
C89 C84 1.499 . S
C89 H90 0.959 . S
C89 H91 0.960 . S
C89 H92 0.961 . S
H90 C89 0.959 . S
H91 C89 0.960 . S
H92 C89 0.961 . S
O93 Co68 1.967 . S
O93 C101 1.258 . S
O94 Co69 1.941 . S
O94 C101 1.266 . S
H95 C97 0.959 . S
H96 C97 0.961 . S
C97 C87 1.510 . S
C97 H95 0.959 . S
C97 H96 0.961 . S
C97 H98 0.960 . S
H98 C97 0.960 . S
H99 N79 0.862 . S
O100 Co68 1.920 . S
O100 C73 1.289 . S
C101 O93 1.258 . S
C101 O94 1.266 . S
Co102 O105 1.970 . S
Co102 N119 1.989 . S
Co102 O127 1.967 . S
Co102 O134 1.920 . S
Co103 O106 1.966 . S
Co103 N112 2.022 . S
Co103 N120 1.993 . S
Co103 O128 1.941 . S
C104 O105 1.258 . S
C104 O106 1.263 . S
O105 Co102 1.970 . S
O105 C104 1.258 . S
O106 Co103 1.966 . S
O106 C104 1.263 . S
C107 O108 1.235 . S
C107 O134 1.289 . S
O108 C107 1.235 . S
C109 C111 1.400 . S
C109 N112 1.351 . S
C109 C114 1.501 . S
C110 C111 1.387 . S
C110 N113 1.341 . S
C111 C109 1.400 . S
C111 C110 1.387 . S
N112 Co103 2.022 . S
N112 C109 1.351 . S
N112 N113 1.365 . S
N113 C110 1.341 . S
N113 N112 1.365 . S
N113 H133 0.862 . S
C114 C109 1.501 . S
C114 H115 0.961 . S
C114 H116 0.961 1_565 S
C114 H117 0.960 . S
H115 C114 0.961 . S
H116 C114 0.961 1_545 S
H117 C114 0.960 . S
C118 N119 1.342 . S
C118 C122 1.401 . S
C118 C123 1.499 . S
N119 Co102 1.989 . S
N119 C118 1.342 . S
N119 N120 1.388 . S
N120 Co103 1.993 . S
N120 N119 1.388 . S
N120 C121 1.346 . S
C121 N120 1.346 . S
C121 C122 1.396 . S
C121 C131 1.510 . S
C122 C118 1.401 . S
C122 C121 1.396 . S
C123 C118 1.499 . S
C123 H124 0.959 . S
C123 H125 0.960 . S
C123 H126 0.961 . S
H124 C123 0.959 . S
H125 C123 0.960 . S
H126 C123 0.961 . S
O127 Co102 1.967 . S
O127 C135 1.258 . S
O128 Co103 1.941 . S
O128 C135 1.266 . S
H129 C131 0.959 . S
H130 C131 0.961 . S
C131 C121 1.510 . S
C131 H129 0.959 . S
C131 H130 0.961 . S
C131 H132 0.960 . S
H132 C131 0.960 . S
H133 N113 0.862 . S
O134 Co102 1.920 . S
O134 C107 1.289 . S
C135 O127 1.258 . S
C135 O128 1.266 . S
Co136 O139 1.970 . S
Co136 N153 1.989 . S
Co136 O161 1.967 . S
Co136 O168 1.920 . S
Co137 O140 1.966 . S
Co137 N146 2.022 . S
Co137 N154 1.993 . S
Co137 O162 1.941 . S
C138 O139 1.258 . S
C138 O140 1.263 . S
O139 Co136 1.970 . S
O139 C138 1.258 . S
O140 Co137 1.966 . S
O140 C138 1.263 . S
C141 O142 1.235 . S
C141 O168 1.289 . S
O142 C141 1.235 . S
C143 C145 1.400 . S
C143 N146 1.351 . S
C143 C148 1.501 . S
C144 C145 1.387 . S
C144 N147 1.341 . S
C145 C143 1.400 . S
C145 C144 1.387 . S
N146 Co137 2.022 . S
N146 C143 1.351 . S
N146 N147 1.365 . S
N147 C144 1.341 . S
N147 N146 1.365 . S
N147 H167 0.862 . S
C148 C143 1.501 . S
C148 H149 0.961 . S
C148 H150 0.961 . S
C148 H151 0.960 . S
H149 C148 0.961 . S
H150 C148 0.961 . S
H151 C148 0.960 . S
C152 N153 1.342 1_545 S
C152 C156 1.401 . S
C152 C157 1.499 . S
N153 Co136 1.989 . S
N153 C152 1.342 1_565 S
N153 N154 1.388 . S
N154 Co137 1.993 . S
N154 N153 1.388 . S
N154 C155 1.346 1_565 S
C155 N154 1.346 1_545 S
C155 C156 1.396 . S
C155 C165 1.510 . S
C156 C152 1.401 . S
C156 C155 1.396 . S
C157 C152 1.499 . S
C157 H158 0.959 . S
C157 H159 0.960 . S
C157 H160 0.961 . S
H158 C157 0.959 . S
H159 C157 0.960 . S
H160 C157 0.961 . S
O161 Co136 1.967 . S
O161 C169 1.258 . S
O162 Co137 1.941 . S
O162 C169 1.266 . S
H163 C165 0.959 . S
H164 C165 0.961 . S
C165 C155 1.510 . S
C165 H163 0.959 . S
C165 H164 0.961 . S
C165 H166 0.960 . S
H166 C165 0.960 . S
H167 N147 0.862 . S
O168 Co136 1.920 . S
O168 C141 1.289 . S
C169 O161 1.258 . S
C169 O162 1.266 . S
Co170 O173 1.970 . S
Co170 N187 1.989 . S
Co170 O195 1.967 . S
Co170 O202 1.920 . S
Co171 O174 1.966 . S
Co171 N180 2.022 . S
Co171 N188 1.993 . S
Co171 O196 1.941 . S
C172 O173 1.258 . S
C172 O174 1.263 . S
O173 Co170 1.970 . S
O173 C172 1.258 . S
O174 Co171 1.966 . S
O174 C172 1.263 . S
C175 O176 1.235 . S
C175 O202 1.289 . S
O176 C175 1.235 . S
C177 C179 1.400 . S
C177 N180 1.351 . S
C177 C182 1.501 . S
C178 C179 1.387 . S
C178 N181 1.341 . S
C179 C177 1.400 . S
C179 C178 1.387 . S
N180 Co171 2.022 . S
N180 C177 1.351 . S
N180 N181 1.365 . S
N181 C178 1.341 . S
N181 N180 1.365 . S
N181 H201 0.862 . S
C182 C177 1.501 . S
C182 H183 0.961 . S
C182 H184 0.961 1_545 S
C182 H185 0.960 . S
H183 C182 0.961 . S
H184 C182 0.961 1_565 S
H185 C182 0.960 . S
C186 N187 1.342 . S
C186 C190 1.401 . S
C186 C191 1.499 . S
N187 Co170 1.989 . S
N187 C186 1.342 . S
N187 N188 1.388 . S
N188 Co171 1.993 . S
N188 N187 1.388 . S
N188 C189 1.346 . S
C189 N188 1.346 . S
C189 C190 1.396 . S
C189 C199 1.510 . S
C190 C186 1.401 . S
C190 C189 1.396 . S
C191 C186 1.499 . S
C191 H192 0.959 . S
C191 H193 0.960 . S
C191 H194 0.961 . S
H192 C191 0.959 . S
H193 C191 0.960 . S
H194 C191 0.961 . S
O195 Co170 1.967 . S
O195 C203 1.258 . S
O196 Co171 1.941 . S
O196 C203 1.266 . S
H197 C199 0.959 . S
H198 C199 0.961 . S
C199 C189 1.510 . S
C199 H197 0.959 . S
C199 H198 0.961 . S
C199 H200 0.960 . S
H200 C199 0.960 . S
H201 N181 0.862 . S
O202 Co170 1.920 . S
O202 C175 1.289 . S
C203 O195 1.258 . S
C203 O196 1.266 . S
Co204 O207 1.970 . S
Co204 N221 1.989 . S
Co204 O229 1.967 . S
Co204 O236 1.920 . S
Co205 O208 1.966 . S
Co205 N214 2.022 . S
Co205 N222 1.993 . S
Co205 O230 1.941 . S
C206 O207 1.258 . S
C206 O208 1.263 . S
O207 Co204 1.970 . S
O207 C206 1.258 . S
O208 Co205 1.966 . S
O208 C206 1.263 . S
C209 O210 1.235 . S
C209 O236 1.289 . S
O210 C209 1.235 . S
C211 C213 1.400 . S
C211 N214 1.351 . S
C211 C216 1.501 . S
C212 C213 1.387 . S
C212 N215 1.341 . S
C213 C211 1.400 . S
C213 C212 1.387 . S
N214 Co205 2.022 . S
N214 C211 1.351 . S
N214 N215 1.365 . S
N215 C212 1.341 . S
N215 N214 1.365 . S
N215 H235 0.862 . S
C216 C211 1.501 . S
C216 H217 0.961 . S
C216 H218 0.961 . S
C216 H219 0.960 . S
H217 C216 0.961 . S
H218 C216 0.961 . S
H219 C216 0.960 . S
C220 N221 1.342 1_565 S
C220 C224 1.401 . S
C220 C225 1.499 . S
N221 Co204 1.989 . S
N221 C220 1.342 1_545 S
N221 N222 1.388 . S
N222 Co205 1.993 . S
N222 N221 1.388 . S
N222 C223 1.346 1_545 S
C223 N222 1.346 1_565 S
C223 C224 1.396 . S
C223 C233 1.510 . S
C224 C220 1.401 . S
C224 C223 1.396 . S
C225 C220 1.499 . S
C225 H226 0.959 . S
C225 H227 0.960 . S
C225 H228 0.961 . S
H226 C225 0.959 . S
H227 C225 0.960 . S
H228 C225 0.961 . S
O229 Co204 1.967 . S
O229 C237 1.258 . S
O230 Co205 1.941 . S
O230 C237 1.266 . S
H231 C233 0.959 . S
H232 C233 0.961 . S
C233 C223 1.510 . S
C233 H231 0.959 . S
C233 H232 0.961 . S
C233 H234 0.960 . S
H234 C233 0.960 . S
H235 N215 0.862 . S
O236 Co204 1.920 . S
O236 C209 1.289 . S
C237 O229 1.258 . S
C237 O230 1.266 . S
Co238 O241 1.970 . S
Co238 N255 1.989 . S
Co238 O263 1.967 . S
Co238 O270 1.920 . S
Co239 O242 1.966 . S
Co239 N248 2.022 . S
Co239 N256 1.993 . S
Co239 O264 1.941 . S
C240 O241 1.258 . S
C240 O242 1.263 . S
O241 Co238 1.970 . S
O241 C240 1.258 . S
O242 Co239 1.966 . S
O242 C240 1.263 . S
C243 O244 1.235 . S
C243 O270 1.289 . S
O244 C243 1.235 . S
C245 C247 1.400 . S
C245 N248 1.351 . S
C245 C250 1.501 . S
C246 C247 1.387 . S
C246 N249 1.341 . S
C247 C245 1.400 . S
C247 C246 1.387 . S
N248 Co239 2.022 . S
N248 C245 1.351 . S
N248 N249 1.365 . S
N249 C246 1.341 . S
N249 N248 1.365 . S
N249 H269 0.862 . S
C250 C245 1.501 . S
C250 H251 0.961 . S
C250 H252 0.961 1_565 S
C250 H253 0.960 . S
H251 C250 0.961 . S
H252 C250 0.961 1_545 S
H253 C250 0.960 . S
C254 N255 1.342 . S
C254 C258 1.401 . S
C254 C259 1.499 . S
N255 Co238 1.989 . S
N255 C254 1.342 . S
N255 N256 1.388 . S
N256 Co239 1.993 . S
N256 N255 1.388 . S
N256 C257 1.346 . S
C257 N256 1.346 . S
C257 C258 1.396 . S
C257 C267 1.510 . S
C258 C254 1.401 . S
C258 C257 1.396 . S
C259 C254 1.499 . S
C259 H260 0.959 . S
C259 H261 0.960 . S
C259 H262 0.961 . S
H260 C259 0.959 . S
H261 C259 0.960 . S
H262 C259 0.961 . S
O263 Co238 1.967 . S
O263 C271 1.258 . S
O264 Co239 1.941 . S
O264 C271 1.266 . S
H265 C267 0.959 . S
H266 C267 0.961 . S
C267 C257 1.510 . S
C267 H265 0.959 . S
C267 H266 0.961 . S
C267 H268 0.960 . S
H268 C267 0.960 . S
H269 N249 0.862 . S
O270 Co238 1.920 . S
O270 C243 1.289 . S
C271 O263 1.258 . S
C271 O264 1.266 . S
Co272 O275 1.970 . S
Co272 N289 1.989 . S
Co272 O297 1.967 . S
Co272 O304 1.920 . S
Co273 O276 1.966 . S
Co273 N282 2.022 . S
Co273 N290 1.993 . S
Co273 O298 1.941 . S
C274 O275 1.258 . S
C274 O276 1.263 . S
O275 Co272 1.970 . S
O275 C274 1.258 . S
O276 Co273 1.966 . S
O276 C274 1.263 . S
C277 O278 1.235 . S
C277 O304 1.289 . S
O278 C277 1.235 . S
C279 C281 1.400 . S
C279 N282 1.351 . S
C279 C284 1.501 . S
C280 C281 1.387 . S
C280 N283 1.341 . S
C281 C279 1.400 . S
C281 C280 1.387 . S
N282 Co273 2.022 . S
N282 C279 1.351 . S
N282 N283 1.365 . S
N283 C280 1.341 . S
N283 N282 1.365 . S
N283 H303 0.862 . S
C284 C279 1.501 . S
C284 H285 0.961 . S
C284 H286 0.961 . S
C284 H287 0.960 . S
H285 C284 0.961 . S
H286 C284 0.961 . S
H287 C284 0.960 . S
C288 N289 1.342 1_545 S
C288 C292 1.401 . S
C288 C293 1.499 . S
N289 Co272 1.989 . S
N289 C288 1.342 1_565 S
N289 N290 1.388 . S
N290 Co273 1.993 . S
N290 N289 1.388 . S
N290 C291 1.346 1_565 S
C291 N290 1.346 1_545 S
C291 C292 1.396 . S
C291 C301 1.510 . S
C292 C288 1.401 . S
C292 C291 1.396 . S
C293 C288 1.499 . S
C293 H294 0.959 . S
C293 H295 0.960 . S
C293 H296 0.961 . S
H294 C293 0.959 . S
H295 C293 0.960 . S
H296 C293 0.961 . S
O297 Co272 1.967 . S
O297 C305 1.258 . S
O298 Co273 1.941 . S
O298 C305 1.266 . S
H299 C301 0.959 . S
H300 C301 0.961 . S
C301 C291 1.510 . S
C301 H299 0.959 . S
C301 H300 0.961 . S
C301 H302 0.960 . S
H302 C301 0.960 . S
H303 N283 0.862 . S
O304 Co272 1.920 . S
O304 C277 1.289 . S
C305 O297 1.258 . S
C305 O298 1.266 . S
Co306 O309 1.970 . S
Co306 N323 1.989 . S
Co306 O331 1.967 . S
Co306 O338 1.920 . S
Co307 O310 1.966 . S
Co307 N316 2.022 . S
Co307 N324 1.993 . S
Co307 O332 1.941 . S
C308 O309 1.258 . S
C308 O310 1.263 . S
O309 Co306 1.970 . S
O309 C308 1.258 . S
O310 Co307 1.966 . S
O310 C308 1.263 . S
C311 O312 1.235 . S
C311 O338 1.289 . S
O312 C311 1.235 . S
C313 C315 1.400 . S
C313 N316 1.351 . S
C313 C318 1.501 . S
C314 C315 1.387 . S
C314 N317 1.341 . S
C315 C313 1.400 . S
C315 C314 1.387 . S
N316 Co307 2.022 . S
N316 C313 1.351 . S
N316 N317 1.365 . S
N317 C314 1.341 . S
N317 N316 1.365 . S
N317 H337 0.862 . S
C318 C313 1.501 . S
C318 H319 0.961 . S
C318 H320 0.961 1_565 S
C318 H321 0.960 . S
H319 C318 0.961 . S
H320 C318 0.961 1_545 S
H321 C318 0.960 . S
C322 N323 1.342 . S
C322 C326 1.401 . S
C322 C327 1.499 . S
N323 Co306 1.989 . S
N323 C322 1.342 . S
N323 N324 1.388 . S
N324 Co307 1.993 . S
N324 N323 1.388 . S
N324 C325 1.346 . S
C325 N324 1.346 . S
C325 C326 1.396 . S
C325 C335 1.510 . S
C326 C322 1.401 . S
C326 C325 1.396 . S
C327 C322 1.499 . S
C327 H328 0.959 . S
C327 H329 0.960 . S
C327 H330 0.961 . S
H328 C327 0.959 . S
H329 C327 0.960 . S
H330 C327 0.961 . S
O331 Co306 1.967 . S
O331 C339 1.258 . S
O332 Co307 1.941 . S
O332 C339 1.266 . S
H333 C335 0.959 . S
H334 C335 0.961 . S
C335 C325 1.510 . S
C335 H333 0.959 . S
C335 H334 0.961 . S
C335 H336 0.960 . S
H336 C335 0.960 . S
H337 N317 0.862 . S
O338 Co306 1.920 . S
O338 C311 1.289 . S
C339 O331 1.258 . S
C339 O332 1.266 . S
Co340 O343 1.970 . S
Co340 N357 1.989 . S
Co340 O365 1.967 . S
Co340 O372 1.920 . S
Co341 O344 1.966 . S
Co341 N350 2.022 . S
Co341 N358 1.993 . S
Co341 O366 1.941 . S
C342 O343 1.258 . S
C342 O344 1.263 . S
O343 Co340 1.970 . S
O343 C342 1.258 . S
O344 Co341 1.966 . S
O344 C342 1.263 . S
C345 O346 1.235 . S
C345 O372 1.289 . S
O346 C345 1.235 . S
C347 C349 1.400 . S
C347 N350 1.351 . S
C347 C352 1.501 . S
C348 C349 1.387 . S
C348 N351 1.341 . S
C349 C347 1.400 . S
C349 C348 1.387 . S
N350 Co341 2.022 . S
N350 C347 1.351 . S
N350 N351 1.365 . S
N351 C348 1.341 . S
N351 N350 1.365 . S
N351 H371 0.862 . S
C352 C347 1.501 . S
C352 H353 0.961 . S
C352 H354 0.961 . S
C352 H355 0.960 . S
H353 C352 0.961 . S
H354 C352 0.961 . S
H355 C352 0.960 . S
C356 N357 1.342 1_565 S
C356 C360 1.401 . S
C356 C361 1.499 . S
N357 Co340 1.989 . S
N357 C356 1.342 1_545 S
N357 N358 1.388 . S
N358 Co341 1.993 . S
N358 N357 1.388 . S
N358 C359 1.346 1_545 S
C359 N358 1.346 1_565 S
C359 C360 1.396 . S
C359 C369 1.510 . S
C360 C356 1.401 . S
C360 C359 1.396 . S
C361 C356 1.499 . S
C361 H362 0.959 . S
C361 H363 0.960 . S
C361 H364 0.961 . S
H362 C361 0.959 . S
H363 C361 0.960 . S
H364 C361 0.961 . S
O365 Co340 1.967 . S
O365 C373 1.258 . S
O366 Co341 1.941 . S
O366 C373 1.266 . S
H367 C369 0.959 . S
H368 C369 0.961 . S
C369 C359 1.510 . S
C369 H367 0.959 . S
C369 H368 0.961 . S
C369 H370 0.960 . S
H370 C369 0.960 . S
H371 N351 0.862 . S
O372 Co340 1.920 . S
O372 C345 1.289 . S
C373 O365 1.258 . S
C373 O366 1.266 . S
Co374 O377 1.970 . S
Co374 N391 1.989 . S
Co374 O399 1.967 . S
Co374 O406 1.920 . S
Co375 O378 1.966 . S
Co375 N384 2.022 . S
Co375 N392 1.993 . S
Co375 O400 1.941 . S
C376 O377 1.258 . S
C376 O378 1.263 . S
O377 Co374 1.970 . S
O377 C376 1.258 . S
O378 Co375 1.966 . S
O378 C376 1.263 . S
C379 O380 1.235 . S
C379 O406 1.289 . S
O380 C379 1.235 . S
C381 C383 1.400 . S
C381 N384 1.351 . S
C381 C386 1.501 . S
C382 C383 1.387 . S
C382 N385 1.341 . S
C383 C381 1.400 . S
C383 C382 1.387 . S
N384 Co375 2.022 . S
N384 C381 1.351 . S
N384 N385 1.365 . S
N385 C382 1.341 . S
N385 N384 1.365 . S
N385 H405 0.862 . S
C386 C381 1.501 . S
C386 H387 0.961 . S
C386 H388 0.961 1_545 S
C386 H389 0.960 . S
H387 C386 0.961 . S
H388 C386 0.961 1_565 S
H389 C386 0.960 . S
C390 N391 1.342 . S
C390 C394 1.401 . S
C390 C395 1.499 . S
N391 Co374 1.989 . S
N391 C390 1.342 . S
N391 N392 1.388 . S
N392 Co375 1.993 . S
N392 N391 1.388 . S
N392 C393 1.346 . S
C393 N392 1.346 . S
C393 C394 1.396 . S
C393 C403 1.510 . S
C394 C390 1.401 . S
C394 C393 1.396 . S
C395 C390 1.499 . S
C395 H396 0.959 . S
C395 H397 0.960 . S
C395 H398 0.961 . S
H396 C395 0.959 . S
H397 C395 0.960 . S
H398 C395 0.961 . S
O399 Co374 1.967 . S
O399 C407 1.258 . S
O400 Co375 1.941 . S
O400 C407 1.266 . S
H401 C403 0.959 . S
H402 C403 0.961 . S
C403 C393 1.510 . S
C403 H401 0.959 . S
C403 H402 0.961 . S
C403 H404 0.960 . S
H404 C403 0.960 . S
H405 N385 0.862 . S
O406 Co374 1.920 . S
O406 C379 1.289 . S
C407 O399 1.258 . S
C407 O400 1.266 . S
Co408 O411 1.970 . S
Co408 N425 1.989 . S
Co408 O433 1.967 . S
Co408 O440 1.920 . S
Co409 O412 1.966 . S
Co409 N418 2.022 . S
Co409 N426 1.993 . S
Co409 O434 1.941 . S
C410 O411 1.258 . S
C410 O412 1.263 . S
O411 Co408 1.970 . S
O411 C410 1.258 . S
O412 Co409 1.966 . S
O412 C410 1.263 . S
C413 O414 1.235 . S
C413 O440 1.289 . S
O414 C413 1.235 . S
C415 C417 1.400 . S
C415 N418 1.351 . S
C415 C420 1.501 . S
C416 C417 1.387 . S
C416 N419 1.341 . S
C417 C415 1.400 . S
C417 C416 1.387 . S
N418 Co409 2.022 . S
N418 C415 1.351 . S
N418 N419 1.365 . S
N419 C416 1.341 . S
N419 N418 1.365 . S
N419 H439 0.862 . S
C420 C415 1.501 . S
C420 H421 0.961 . S
C420 H422 0.961 . S
C420 H423 0.960 . S
H421 C420 0.961 . S
H422 C420 0.961 . S
H423 C420 0.960 . S
C424 N425 1.342 1_565 S
C424 C428 1.401 . S
C424 C429 1.499 . S
N425 Co408 1.989 . S
N425 C424 1.342 1_545 S
N425 N426 1.388 . S
N426 Co409 1.993 . S
N426 N425 1.388 . S
N426 C427 1.346 1_545 S
C427 N426 1.346 1_565 S
C427 C428 1.396 . S
C427 C437 1.510 . S
C428 C424 1.401 . S
C428 C427 1.396 . S
C429 C424 1.499 . S
C429 H430 0.959 . S
C429 H431 0.960 . S
C429 H432 0.961 . S
H430 C429 0.959 . S
H431 C429 0.960 . S
H432 C429 0.961 . S
O433 Co408 1.967 . S
O433 C441 1.258 . S
O434 Co409 1.941 . S
O434 C441 1.266 . S
H435 C437 0.959 . S
H436 C437 0.961 . S
C437 C427 1.510 . S
C437 H435 0.959 . S
C437 H436 0.961 . S
C437 H438 0.960 . S
H438 C437 0.960 . S
H439 N419 0.862 . S
O440 Co408 1.920 . S
O440 C413 1.289 . S
C441 O433 1.258 . S
C441 O434 1.266 . S
Co442 O445 1.970 . S
Co442 N459 1.989 . S
Co442 O467 1.967 . S
Co442 O474 1.920 . S
Co443 O446 1.966 . S
Co443 N452 2.022 . S
Co443 N460 1.993 . S
Co443 O468 1.941 . S
C444 O445 1.258 . S
C444 O446 1.263 . S
O445 Co442 1.970 . S
O445 C444 1.258 . S
O446 Co443 1.966 . S
O446 C444 1.263 . S
C447 O448 1.235 . S
C447 O474 1.289 . S
O448 C447 1.235 . S
C449 C451 1.400 . S
C449 N452 1.351 . S
C449 C454 1.501 . S
C450 C451 1.387 . S
C450 N453 1.341 . S
C451 C449 1.400 . S
C451 C450 1.387 . S
N452 Co443 2.022 . S
N452 C449 1.351 . S
N452 N453 1.365 . S
N453 C450 1.341 . S
N453 N452 1.365 . S
N453 H473 0.862 . S
C454 C449 1.501 . S
C454 H455 0.961 . S
C454 H456 0.961 1_565 S
C454 H457 0.960 . S
H455 C454 0.961 . S
H456 C454 0.961 1_545 S
H457 C454 0.960 . S
C458 N459 1.342 . S
C458 C462 1.401 . S
C458 C463 1.499 . S
N459 Co442 1.989 . S
N459 C458 1.342 . S
N459 N460 1.388 . S
N460 Co443 1.993 . S
N460 N459 1.388 . S
N460 C461 1.346 . S
C461 N460 1.346 . S
C461 C462 1.396 . S
C461 C471 1.510 . S
C462 C458 1.401 . S
C462 C461 1.396 . S
C463 C458 1.499 . S
C463 H464 0.959 . S
C463 H465 0.960 . S
C463 H466 0.961 . S
H464 C463 0.959 . S
H465 C463 0.960 . S
H466 C463 0.961 . S
O467 Co442 1.967 . S
O467 C475 1.258 . S
O468 Co443 1.941 . S
O468 C475 1.266 . S
H469 C471 0.959 . S
H470 C471 0.961 . S
C471 C461 1.510 . S
C471 H469 0.959 . S
C471 H470 0.961 . S
C471 H472 0.960 . S
H472 C471 0.960 . S
H473 N453 0.862 . S
O474 Co442 1.920 . S
O474 C447 1.289 . S
C475 O467 1.258 . S
C475 O468 1.266 . S
Co476 O479 1.970 . S
Co476 N493 1.989 . S
Co476 O501 1.967 . S
Co476 O508 1.920 . S
Co477 O480 1.966 . S
Co477 N486 2.022 . S
Co477 N494 1.993 . S
Co477 O502 1.941 . S
C478 O479 1.258 . S
C478 O480 1.263 . S
O479 Co476 1.970 . S
O479 C478 1.258 . S
O480 Co477 1.966 . S
O480 C478 1.263 . S
C481 O482 1.235 . S
C481 O508 1.289 . S
O482 C481 1.235 . S
C483 C485 1.400 . S
C483 N486 1.351 . S
C483 C488 1.501 . S
C484 C485 1.387 . S
C484 N487 1.341 . S
C485 C483 1.400 . S
C485 C484 1.387 . S
N486 Co477 2.022 . S
N486 C483 1.351 . S
N486 N487 1.365 . S
N487 C484 1.341 . S
N487 N486 1.365 . S
N487 H507 0.862 . S
C488 C483 1.501 . S
C488 H489 0.961 . S
C488 H490 0.961 . S
C488 H491 0.960 . S
H489 C488 0.961 . S
H490 C488 0.961 . S
H491 C488 0.960 . S
C492 N493 1.342 1_545 S
C492 C496 1.401 . S
C492 C497 1.499 . S
N493 Co476 1.989 . S
N493 C492 1.342 1_565 S
N493 N494 1.388 . S
N494 Co477 1.993 . S
N494 N493 1.388 . S
N494 C495 1.346 1_565 S
C495 N494 1.346 1_545 S
C495 C496 1.396 . S
C495 C505 1.510 . S
C496 C492 1.401 . S
C496 C495 1.396 . S
C497 C492 1.499 . S
C497 H498 0.959 . S
C497 H499 0.960 . S
C497 H500 0.961 . S
H498 C497 0.959 . S
H499 C497 0.960 . S
H500 C497 0.961 . S
O501 Co476 1.967 . S
O501 C509 1.258 . S
O502 Co477 1.941 . S
O502 C509 1.266 . S
H503 C505 0.959 . S
H504 C505 0.961 . S
C505 C495 1.510 . S
C505 H503 0.959 . S
C505 H504 0.961 . S
C505 H506 0.960 . S
H506 C505 0.960 . S
H507 N487 0.862 . S
O508 Co476 1.920 . S
O508 C481 1.289 . S
C509 O501 1.258 . S
C509 O502 1.266 . S
Co510 O513 1.970 . S
Co510 N527 1.989 . S
Co510 O535 1.967 . S
Co510 O542 1.920 . S
Co511 O514 1.966 . S
Co511 N520 2.022 . S
Co511 N528 1.993 . S
Co511 O536 1.941 . S
C512 O513 1.258 . S
C512 O514 1.263 . S
O513 Co510 1.970 . S
O513 C512 1.258 . S
O514 Co511 1.966 . S
O514 C512 1.263 . S
C515 O516 1.235 . S
C515 O542 1.289 . S
O516 C515 1.235 . S
C517 C519 1.400 . S
C517 N520 1.351 . S
C517 C522 1.501 . S
C518 C519 1.387 . S
C518 N521 1.341 . S
C519 C517 1.400 . S
C519 C518 1.387 . S
N520 Co511 2.022 . S
N520 C517 1.351 . S
N520 N521 1.365 . S
N521 C518 1.341 . S
N521 N520 1.365 . S
N521 H541 0.862 . S
C522 C517 1.501 . S
C522 H523 0.961 . S
C522 H524 0.961 1_545 S
C522 H525 0.960 . S
H523 C522 0.961 . S
H524 C522 0.961 1_565 S
H525 C522 0.960 . S
C526 N527 1.342 . S
C526 C530 1.401 . S
C526 C531 1.499 . S
N527 Co510 1.989 . S
N527 C526 1.342 . S
N527 N528 1.388 . S
N528 Co511 1.993 . S
N528 N527 1.388 . S
N528 C529 1.346 . S
C529 N528 1.346 . S
C529 C530 1.396 . S
C529 C539 1.510 . S
C530 C526 1.401 . S
C530 C529 1.396 . S
C531 C526 1.499 . S
C531 H532 0.959 . S
C531 H533 0.960 . S
C531 H534 0.961 . S
H532 C531 0.959 . S
H533 C531 0.960 . S
H534 C531 0.961 . S
O535 Co510 1.967 . S
O535 C543 1.258 . S
O536 Co511 1.941 . S
O536 C543 1.266 . S
H537 C539 0.959 . S
H538 C539 0.961 . S
C539 C529 1.510 . S
C539 H537 0.959 . S
C539 H538 0.961 . S
C539 H540 0.960 . S
H540 C539 0.960 . S
H541 N521 0.862 . S
O542 Co510 1.920 . S
O542 C515 1.289 . S
C543 O535 1.258 . S
C543 O536 1.266 . S
Co544 O547 1.970 . S
Co544 N561 1.989 . S
Co544 O569 1.967 . S
Co544 O576 1.920 . S
Co545 O548 1.966 . S
Co545 N554 2.022 . S
Co545 N562 1.993 . S
Co545 O570 1.941 . S
C546 O547 1.258 . S
C546 O548 1.263 . S
O547 Co544 1.970 . S
O547 C546 1.258 . S
O548 Co545 1.966 . S
O548 C546 1.263 . S
C549 O550 1.235 . S
C549 O576 1.289 . S
O550 C549 1.235 . S
C551 C553 1.400 . S
C551 N554 1.351 . S
C551 C556 1.501 . S
C552 C553 1.387 . S
C552 N555 1.341 . S
C553 C551 1.400 . S
C553 C552 1.387 . S
N554 Co545 2.022 . S
N554 C551 1.351 . S
N554 N555 1.365 . S
N555 C552 1.341 . S
N555 N554 1.365 . S
N555 H575 0.862 . S
C556 C551 1.501 . S
C556 H557 0.961 . S
C556 H558 0.961 . S
C556 H559 0.960 . S
H557 C556 0.961 . S
H558 C556 0.961 . S
H559 C556 0.960 . S
C560 N561 1.342 . S
C560 C564 1.401 . S
C560 C565 1.499 . S
N561 Co544 1.989 . S
N561 C560 1.342 . S
N561 N562 1.388 . S
N562 Co545 1.993 . S
N562 N561 1.388 . S
N562 C563 1.346 . S
C563 N562 1.346 . S
C563 C564 1.396 . S
C563 C573 1.510 . S
C564 C560 1.401 . S
C564 C563 1.396 . S
C565 C560 1.499 . S
C565 H566 0.959 . S
C565 H567 0.960 . S
C565 H568 0.961 . S
H566 C565 0.959 . S
H567 C565 0.960 . S
H568 C565 0.961 . S
O569 Co544 1.967 . S
O569 C577 1.258 . S
O570 Co545 1.941 . S
O570 C577 1.266 . S
H571 C573 0.959 . S
H572 C573 0.961 . S
C573 C563 1.510 . S
C573 H571 0.959 . S
C573 H572 0.961 . S
C573 H574 0.960 . S
H574 C573 0.960 . S
H575 N555 0.862 . S
O576 Co544 1.920 . S
O576 C549 1.289 . S
C577 O569 1.258 . S
C577 O570 1.266 . S
Co578 O581 1.970 . S
Co578 N595 1.989 . S
Co578 O603 1.967 . S
Co578 O610 1.920 . S
Co579 O582 1.966 . S
Co579 N588 2.022 . S
Co579 N596 1.993 . S
Co579 O604 1.941 . S
C580 O581 1.258 . S
C580 O582 1.263 . S
O581 Co578 1.970 . S
O581 C580 1.258 . S
O582 Co579 1.966 . S
O582 C580 1.263 . S
C583 O584 1.235 . S
C583 O610 1.289 . S
O584 C583 1.235 . S
C585 C587 1.400 . S
C585 N588 1.351 . S
C585 C590 1.501 . S
C586 C587 1.387 . S
C586 N589 1.341 . S
C587 C585 1.400 . S
C587 C586 1.387 . S
N588 Co579 2.022 . S
N588 C585 1.351 . S
N588 N589 1.365 . S
N589 C586 1.341 . S
N589 N588 1.365 . S
N589 H609 0.862 . S
C590 C585 1.501 . S
C590 H591 0.961 . S
C590 H592 0.961 . S
C590 H593 0.960 . S
H591 C590 0.961 . S
H592 C590 0.961 . S
H593 C590 0.960 . S
C594 N595 1.342 . S
C594 C598 1.401 . S
C594 C599 1.499 . S
N595 Co578 1.989 . S
N595 C594 1.342 . S
N595 N596 1.388 . S
N596 Co579 1.993 . S
N596 N595 1.388 . S
N596 C597 1.346 . S
C597 N596 1.346 . S
C597 C598 1.396 . S
C597 C607 1.510 . S
C598 C594 1.401 . S
C598 C597 1.396 . S
C599 C594 1.499 . S
C599 H600 0.959 . S
C599 H601 0.960 . S
C599 H602 0.961 . S
H600 C599 0.959 . S
H601 C599 0.960 . S
H602 C599 0.961 . S
O603 Co578 1.967 . S
O603 C611 1.258 . S
O604 Co579 1.941 . S
O604 C611 1.266 . S
H605 C607 0.959 . S
H606 C607 0.961 . S
C607 C597 1.510 . S
C607 H605 0.959 . S
C607 H606 0.961 . S
C607 H608 0.960 . S
H608 C607 0.960 . S
H609 N589 0.862 . S
O610 Co578 1.920 . S
O610 C583 1.289 . S
C611 O603 1.258 . S
C611 O604 1.266 . S
Co612 O615 1.970 . S
Co612 N629 1.989 . S
Co612 O637 1.967 . S
Co612 O644 1.920 . S
Co613 O616 1.966 . S
Co613 N622 2.022 . S
Co613 N630 1.993 . S
Co613 O638 1.941 . S
C614 O615 1.258 . S
C614 O616 1.263 . S
O615 Co612 1.970 . S
O615 C614 1.258 . S
O616 Co613 1.966 . S
O616 C614 1.263 . S
C617 O618 1.235 . S
C617 O644 1.289 . S
O618 C617 1.235 . S
C619 C621 1.400 . S
C619 N622 1.351 . S
C619 C624 1.501 . S
C620 C621 1.387 . S
C620 N623 1.341 . S
C621 C619 1.400 . S
C621 C620 1.387 . S
N622 Co613 2.022 . S
N622 C619 1.351 . S
N622 N623 1.365 . S
N623 C620 1.341 . S
N623 N622 1.365 . S
N623 H643 0.862 . S
C624 C619 1.501 . S
C624 H625 0.961 . S
C624 H626 0.961 . S
C624 H627 0.960 . S
H625 C624 0.961 . S
H626 C624 0.961 . S
H627 C624 0.960 . S
C628 N629 1.342 . S
C628 C632 1.401 . S
C628 C633 1.499 . S
N629 Co612 1.989 . S
N629 C628 1.342 . S
N629 N630 1.388 . S
N630 Co613 1.993 . S
N630 N629 1.388 . S
N630 C631 1.346 . S
C631 N630 1.346 . S
C631 C632 1.396 . S
C631 C641 1.510 . S
C632 C628 1.401 . S
C632 C631 1.396 . S
C633 C628 1.499 . S
C633 H634 0.959 . S
C633 H635 0.960 . S
C633 H636 0.961 . S
H634 C633 0.959 . S
H635 C633 0.960 . S
H636 C633 0.961 . S
O637 Co612 1.967 . S
O637 C645 1.258 . S
O638 Co613 1.941 . S
O638 C645 1.266 . S
H639 C641 0.959 . S
H640 C641 0.961 . S
C641 C631 1.510 . S
C641 H639 0.959 . S
C641 H640 0.961 . S
C641 H642 0.960 . S
H642 C641 0.960 . S
H643 N623 0.862 . S
O644 Co612 1.920 . S
O644 C617 1.289 . S
C645 O637 1.258 . S
C645 O638 1.266 . S
Co646 O649 1.970 . S
Co646 N663 1.989 . S
Co646 O671 1.967 . S
Co646 O678 1.920 . S
Co647 O650 1.966 . S
Co647 N656 2.022 . S
Co647 N664 1.993 . S
Co647 O672 1.941 . S
C648 O649 1.258 . S
C648 O650 1.263 . S
O649 Co646 1.970 . S
O649 C648 1.258 . S
O650 Co647 1.966 . S
O650 C648 1.263 . S
C651 O652 1.235 . S
C651 O678 1.289 . S
O652 C651 1.235 . S
C653 C655 1.400 . S
C653 N656 1.351 . S
C653 C658 1.501 . S
C654 C655 1.387 . S
C654 N657 1.341 . S
C655 C653 1.400 . S
C655 C654 1.387 . S
N656 Co647 2.022 . S
N656 C653 1.351 . S
N656 N657 1.365 . S
N657 C654 1.341 . S
N657 N656 1.365 . S
N657 H677 0.862 . S
C658 C653 1.501 . S
C658 H659 0.961 . S
C658 H660 0.961 . S
C658 H661 0.960 . S
H659 C658 0.961 . S
H660 C658 0.961 . S
H661 C658 0.960 . S
C662 N663 1.342 . S
C662 C666 1.401 . S
C662 C667 1.499 . S
N663 Co646 1.989 . S
N663 C662 1.342 . S
N663 N664 1.388 . S
N664 Co647 1.993 . S
N664 N663 1.388 . S
N664 C665 1.346 . S
C665 N664 1.346 . S
C665 C666 1.396 . S
C665 C675 1.510 . S
C666 C662 1.401 . S
C666 C665 1.396 . S
C667 C662 1.499 . S
C667 H668 0.959 . S
C667 H669 0.960 . S
C667 H670 0.961 . S
H668 C667 0.959 . S
H669 C667 0.960 . S
H670 C667 0.961 . S
O671 Co646 1.967 . S
O671 C679 1.258 . S
O672 Co647 1.941 . S
O672 C679 1.266 . S
H673 C675 0.959 . S
H674 C675 0.961 . S
C675 C665 1.510 . S
C675 H673 0.959 . S
C675 H674 0.961 . S
C675 H676 0.960 . S
H676 C675 0.960 . S
H677 N657 0.862 . S
O678 Co646 1.920 . S
O678 C651 1.289 . S
C679 O671 1.258 . S
C679 O672 1.266 . S
Co680 O683 1.970 . S
Co680 N697 1.989 . S
Co680 O705 1.967 . S
Co680 O712 1.920 . S
Co681 O684 1.966 . S
Co681 N690 2.022 . S
Co681 N698 1.993 . S
Co681 O706 1.941 . S
C682 O683 1.258 . S
C682 O684 1.263 . S
O683 Co680 1.970 . S
O683 C682 1.258 . S
O684 Co681 1.966 . S
O684 C682 1.263 . S
C685 O686 1.235 . S
C685 O712 1.289 . S
O686 C685 1.235 . S
C687 C689 1.400 . S
C687 N690 1.351 . S
C687 C692 1.501 . S
C688 C689 1.387 . S
C688 N691 1.341 . S
C689 C687 1.400 . S
C689 C688 1.387 . S
N690 Co681 2.022 . S
N690 C687 1.351 . S
N690 N691 1.365 . S
N691 C688 1.341 . S
N691 N690 1.365 . S
N691 H711 0.862 . S
C692 C687 1.501 . S
C692 H693 0.961 . S
C692 H694 0.961 . S
C692 H695 0.960 . S
H693 C692 0.961 . S
H694 C692 0.961 . S
H695 C692 0.960 . S
C696 N697 1.342 . S
C696 C700 1.401 . S
C696 C701 1.499 . S
N697 Co680 1.989 . S
N697 C696 1.342 . S
N697 N698 1.388 . S
N698 Co681 1.993 . S
N698 N697 1.388 . S
N698 C699 1.346 . S
C699 N698 1.346 . S
C699 C700 1.396 . S
C699 C709 1.510 . S
C700 C696 1.401 . S
C700 C699 1.396 . S
C701 C696 1.499 . S
C701 H702 0.959 . S
C701 H703 0.960 . S
C701 H704 0.961 . S
H702 C701 0.959 . S
H703 C701 0.960 . S
H704 C701 0.961 . S
O705 Co680 1.967 . S
O705 C713 1.258 . S
O706 Co681 1.941 . S
O706 C713 1.266 . S
H707 C709 0.959 . S
H708 C709 0.961 . S
C709 C699 1.510 . S
C709 H707 0.959 . S
C709 H708 0.961 . S
C709 H710 0.960 . S
H710 C709 0.960 . S
H711 N691 0.862 . S
O712 Co680 1.920 . S
O712 C685 1.289 . S
C713 O705 1.258 . S
C713 O706 1.266 . S
Co714 O717 1.970 . S
Co714 N731 1.989 . S
Co714 O739 1.967 . S
Co714 O746 1.920 . S
Co715 O718 1.966 . S
Co715 N724 2.022 . S
Co715 N732 1.993 . S
Co715 O740 1.941 . S
C716 O717 1.258 . S
C716 O718 1.263 . S
O717 Co714 1.970 . S
O717 C716 1.258 . S
O718 Co715 1.966 . S
O718 C716 1.263 . S
C719 O720 1.235 . S
C719 O746 1.289 . S
O720 C719 1.235 . S
C721 C723 1.400 . S
C721 N724 1.351 . S
C721 C726 1.501 . S
C722 C723 1.387 . S
C722 N725 1.341 . S
C723 C721 1.400 . S
C723 C722 1.387 . S
N724 Co715 2.022 . S
N724 C721 1.351 . S
N724 N725 1.365 . S
N725 C722 1.341 . S
N725 N724 1.365 . S
N725 H745 0.862 . S
C726 C721 1.501 . S
C726 H727 0.961 . S
C726 H728 0.961 . S
C726 H729 0.960 . S
H727 C726 0.961 . S
H728 C726 0.961 . S
H729 C726 0.960 . S
C730 N731 1.342 . S
C730 C734 1.401 . S
C730 C735 1.499 . S
N731 Co714 1.989 . S
N731 C730 1.342 . S
N731 N732 1.388 . S
N732 Co715 1.993 . S
N732 N731 1.388 . S
N732 C733 1.346 . S
C733 N732 1.346 . S
C733 C734 1.396 . S
C733 C743 1.510 . S
C734 C730 1.401 . S
C734 C733 1.396 . S
C735 C730 1.499 . S
C735 H736 0.959 . S
C735 H737 0.960 . S
C735 H738 0.961 . S
H736 C735 0.959 . S
H737 C735 0.960 . S
H738 C735 0.961 . S
O739 Co714 1.967 . S
O739 C747 1.258 . S
O740 Co715 1.941 . S
O740 C747 1.266 . S
H741 C743 0.959 . S
H742 C743 0.961 . S
C743 C733 1.510 . S
C743 H741 0.959 . S
C743 H742 0.961 . S
C743 H744 0.960 . S
H744 C743 0.960 . S
H745 N725 0.862 . S
O746 Co714 1.920 . S
O746 C719 1.289 . S
C747 O739 1.258 . S
C747 O740 1.266 . S
Co748 O751 1.970 . S
Co748 N765 1.989 . S
Co748 O773 1.967 . S
Co748 O780 1.920 . S
Co749 O752 1.966 . S
Co749 N758 2.022 . S
Co749 N766 1.993 . S
Co749 O774 1.941 . S
C750 O751 1.258 . S
C750 O752 1.263 . S
O751 Co748 1.970 . S
O751 C750 1.258 . S
O752 Co749 1.966 . S
O752 C750 1.263 . S
C753 O754 1.235 . S
C753 O780 1.289 . S
O754 C753 1.235 . S
C755 C757 1.400 . S
C755 N758 1.351 . S
C755 C760 1.501 . S
C756 C757 1.387 . S
C756 N759 1.341 . S
C757 C755 1.400 . S
C757 C756 1.387 . S
N758 Co749 2.022 . S
N758 C755 1.351 . S
N758 N759 1.365 . S
N759 C756 1.341 . S
N759 N758 1.365 . S
N759 H779 0.862 . S
C760 C755 1.501 . S
C760 H761 0.961 . S
C760 H762 0.961 . S
C760 H763 0.960 . S
H761 C760 0.961 . S
H762 C760 0.961 . S
H763 C760 0.960 . S
C764 N765 1.342 . S
C764 C768 1.401 . S
C764 C769 1.499 . S
N765 Co748 1.989 . S
N765 C764 1.342 . S
N765 N766 1.388 . S
N766 Co749 1.993 . S
N766 N765 1.388 . S
N766 C767 1.346 . S
C767 N766 1.346 . S
C767 C768 1.396 . S
C767 C777 1.510 . S
C768 C764 1.401 . S
C768 C767 1.396 . S
C769 C764 1.499 . S
C769 H770 0.959 . S
C769 H771 0.960 . S
C769 H772 0.961 . S
H770 C769 0.959 . S
H771 C769 0.960 . S
H772 C769 0.961 . S
O773 Co748 1.967 . S
O773 C781 1.258 . S
O774 Co749 1.941 . S
O774 C781 1.266 . S
H775 C777 0.959 . S
H776 C777 0.961 . S
C777 C767 1.510 . S
C777 H775 0.959 . S
C777 H776 0.961 . S
C777 H778 0.960 . S
H778 C777 0.960 . S
H779 N759 0.862 . S
O780 Co748 1.920 . S
O780 C753 1.289 . S
C781 O773 1.258 . S
C781 O774 1.266 . S
Co782 O785 1.970 . S
Co782 N799 1.989 . S
Co782 O807 1.967 . S
Co782 O814 1.920 . S
Co783 O786 1.966 . S
Co783 N792 2.022 . S
Co783 N800 1.993 . S
Co783 O808 1.941 . S
C784 O785 1.258 . S
C784 O786 1.263 . S
O785 Co782 1.970 . S
O785 C784 1.258 . S
O786 Co783 1.966 . S
O786 C784 1.263 . S
C787 O788 1.235 . S
C787 O814 1.289 . S
O788 C787 1.235 . S
C789 C791 1.400 . S
C789 N792 1.351 . S
C789 C794 1.501 . S
C790 C791 1.387 . S
C790 N793 1.341 . S
C791 C789 1.400 . S
C791 C790 1.387 . S
N792 Co783 2.022 . S
N792 C789 1.351 . S
N792 N793 1.365 . S
N793 C790 1.341 . S
N793 N792 1.365 . S
N793 H813 0.862 . S
C794 C789 1.501 . S
C794 H795 0.961 . S
C794 H796 0.961 . S
C794 H797 0.960 . S
H795 C794 0.961 . S
H796 C794 0.961 . S
H797 C794 0.960 . S
C798 N799 1.342 . S
C798 C802 1.401 . S
C798 C803 1.499 . S
N799 Co782 1.989 . S
N799 C798 1.342 . S
N799 N800 1.388 . S
N800 Co783 1.993 . S
N800 N799 1.388 . S
N800 C801 1.346 . S
C801 N800 1.346 . S
C801 C802 1.396 . S
C801 C811 1.510 . S
C802 C798 1.401 . S
C802 C801 1.396 . S
C803 C798 1.499 . S
C803 H804 0.959 . S
C803 H805 0.960 . S
C803 H806 0.961 . S
H804 C803 0.959 . S
H805 C803 0.960 . S
H806 C803 0.961 . S
O807 Co782 1.967 . S
O807 C815 1.258 . S
O808 Co783 1.941 . S
O808 C815 1.266 . S
H809 C811 0.959 . S
H810 C811 0.961 . S
C811 C801 1.510 . S
C811 H809 0.959 . S
C811 H810 0.961 . S
C811 H812 0.960 . S
H812 C811 0.960 . S
H813 N793 0.862 . S
O814 Co782 1.920 . S
O814 C787 1.289 . S
C815 O807 1.258 . S
C815 O808 1.266 . S
Co816 O819 1.970 . S
Co816 N833 1.989 . S
Co816 O841 1.967 . S
Co816 O848 1.920 . S
Co817 O820 1.966 . S
Co817 N826 2.022 . S
Co817 N834 1.993 . S
Co817 O842 1.941 . S
C818 O819 1.258 . S
C818 O820 1.263 . S
O819 Co816 1.970 . S
O819 C818 1.258 . S
O820 Co817 1.966 . S
O820 C818 1.263 . S
C821 O822 1.235 . S
C821 O848 1.289 . S
O822 C821 1.235 . S
C823 C825 1.400 . S
C823 N826 1.351 . S
C823 C828 1.501 . S
C824 C825 1.387 . S
C824 N827 1.341 . S
C825 C823 1.400 . S
C825 C824 1.387 . S
N826 Co817 2.022 . S
N826 C823 1.351 . S
N826 N827 1.365 . S
N827 C824 1.341 . S
N827 N826 1.365 . S
N827 H847 0.862 . S
C828 C823 1.501 . S
C828 H829 0.961 . S
C828 H830 0.961 . S
C828 H831 0.960 . S
H829 C828 0.961 . S
H830 C828 0.961 . S
H831 C828 0.960 . S
C832 N833 1.342 . S
C832 C836 1.401 . S
C832 C837 1.499 . S
N833 Co816 1.989 . S
N833 C832 1.342 . S
N833 N834 1.388 . S
N834 Co817 1.993 . S
N834 N833 1.388 . S
N834 C835 1.346 . S
C835 N834 1.346 . S
C835 C836 1.396 . S
C835 C845 1.510 . S
C836 C832 1.401 . S
C836 C835 1.396 . S
C837 C832 1.499 . S
C837 H838 0.959 . S
C837 H839 0.960 . S
C837 H840 0.961 . S
H838 C837 0.959 . S
H839 C837 0.960 . S
H840 C837 0.961 . S
O841 Co816 1.967 . S
O841 C849 1.258 . S
O842 Co817 1.941 . S
O842 C849 1.266 . S
H843 C845 0.959 . S
H844 C845 0.961 . S
C845 C835 1.510 . S
C845 H843 0.959 . S
C845 H844 0.961 . S
C845 H846 0.960 . S
H846 C845 0.960 . S
H847 N827 0.862 . S
O848 Co816 1.920 . S
O848 C821 1.289 . S
C849 O841 1.258 . S
C849 O842 1.266 . S
Co850 O853 1.970 . S
Co850 N867 1.989 . S
Co850 O875 1.967 . S
Co850 O882 1.920 . S
Co851 O854 1.966 . S
Co851 N860 2.022 . S
Co851 N868 1.993 . S
Co851 O876 1.941 . S
C852 O853 1.258 . S
C852 O854 1.263 . S
O853 Co850 1.970 . S
O853 C852 1.258 . S
O854 Co851 1.966 . S
O854 C852 1.263 . S
C855 O856 1.235 . S
C855 O882 1.289 . S
O856 C855 1.235 . S
C857 C859 1.400 . S
C857 N860 1.351 . S
C857 C862 1.501 . S
C858 C859 1.387 . S
C858 N861 1.341 . S
C859 C857 1.400 . S
C859 C858 1.387 . S
N860 Co851 2.022 . S
N860 C857 1.351 . S
N860 N861 1.365 . S
N861 C858 1.341 . S
N861 N860 1.365 . S
N861 H881 0.862 . S
C862 C857 1.501 . S
C862 H863 0.961 . S
C862 H864 0.961 . S
C862 H865 0.960 . S
H863 C862 0.961 . S
H864 C862 0.961 . S
H865 C862 0.960 . S
C866 N867 1.342 . S
C866 C870 1.401 . S
C866 C871 1.499 . S
N867 Co850 1.989 . S
N867 C866 1.342 . S
N867 N868 1.388 . S
N868 Co851 1.993 . S
N868 N867 1.388 . S
N868 C869 1.346 . S
C869 N868 1.346 . S
C869 C870 1.396 . S
C869 C879 1.510 . S
C870 C866 1.401 . S
C870 C869 1.396 . S
C871 C866 1.499 . S
C871 H872 0.959 . S
C871 H873 0.960 . S
C871 H874 0.961 . S
H872 C871 0.959 . S
H873 C871 0.960 . S
H874 C871 0.961 . S
O875 Co850 1.967 . S
O875 C883 1.258 . S
O876 Co851 1.941 . S
O876 C883 1.266 . S
H877 C879 0.959 . S
H878 C879 0.961 . S
C879 C869 1.510 . S
C879 H877 0.959 . S
C879 H878 0.961 . S
C879 H880 0.960 . S
H880 C879 0.960 . S
H881 N861 0.862 . S
O882 Co850 1.920 . S
O882 C855 1.289 . S
C883 O875 1.258 . S
C883 O876 1.266 . S
Co884 O887 1.970 . S
Co884 N901 1.989 . S
Co884 O909 1.967 . S
Co884 O916 1.920 . S
Co885 O888 1.966 . S
Co885 N894 2.022 . S
Co885 N902 1.993 . S
Co885 O910 1.941 . S
C886 O887 1.258 . S
C886 O888 1.263 . S
O887 Co884 1.970 . S
O887 C886 1.258 . S
O888 Co885 1.966 . S
O888 C886 1.263 . S
C889 O890 1.235 . S
C889 O916 1.289 . S
O890 C889 1.235 . S
C891 C893 1.400 . S
C891 N894 1.351 . S
C891 C896 1.501 . S
C892 C893 1.387 . S
C892 N895 1.341 . S
C893 C891 1.400 . S
C893 C892 1.387 . S
N894 Co885 2.022 . S
N894 C891 1.351 . S
N894 N895 1.365 . S
N895 C892 1.341 . S
N895 N894 1.365 . S
N895 H915 0.862 . S
C896 C891 1.501 . S
C896 H897 0.961 . S
C896 H898 0.961 . S
C896 H899 0.960 . S
H897 C896 0.961 . S
H898 C896 0.961 . S
H899 C896 0.960 . S
C900 N901 1.342 . S
C900 C904 1.401 . S
C900 C905 1.499 . S
N901 Co884 1.989 . S
N901 C900 1.342 . S
N901 N902 1.388 . S
N902 Co885 1.993 . S
N902 N901 1.388 . S
N902 C903 1.346 . S
C903 N902 1.346 . S
C903 C904 1.396 . S
C903 C913 1.510 . S
C904 C900 1.401 . S
C904 C903 1.396 . S
C905 C900 1.499 . S
C905 H906 0.959 . S
C905 H907 0.960 . S
C905 H908 0.961 . S
H906 C905 0.959 . S
H907 C905 0.960 . S
H908 C905 0.961 . S
O909 Co884 1.967 . S
O909 C917 1.258 . S
O910 Co885 1.941 . S
O910 C917 1.266 . S
H911 C913 0.959 . S
H912 C913 0.961 . S
C913 C903 1.510 . S
C913 H911 0.959 . S
C913 H912 0.961 . S
C913 H914 0.960 . S
H914 C913 0.960 . S
H915 N895 0.862 . S
O916 Co884 1.920 . S
O916 C889 1.289 . S
C917 O909 1.258 . S
C917 O910 1.266 . S
Co918 O921 1.970 . S
Co918 N935 1.989 . S
Co918 O943 1.967 . S
Co918 O950 1.920 . S
Co919 O922 1.966 . S
Co919 N928 2.022 . S
Co919 N936 1.993 . S
Co919 O944 1.941 . S
C920 O921 1.258 . S
C920 O922 1.263 . S
O921 Co918 1.970 . S
O921 C920 1.258 . S
O922 Co919 1.966 . S
O922 C920 1.263 . S
C923 O924 1.235 . S
C923 O950 1.289 . S
O924 C923 1.235 . S
C925 C927 1.400 . S
C925 N928 1.351 . S
C925 C930 1.501 . S
C926 C927 1.387 . S
C926 N929 1.341 . S
C927 C925 1.400 . S
C927 C926 1.387 . S
N928 Co919 2.022 . S
N928 C925 1.351 . S
N928 N929 1.365 . S
N929 C926 1.341 . S
N929 N928 1.365 . S
N929 H949 0.862 . S
C930 C925 1.501 . S
C930 H931 0.961 . S
C930 H932 0.961 . S
C930 H933 0.960 . S
H931 C930 0.961 . S
H932 C930 0.961 . S
H933 C930 0.960 . S
C934 N935 1.342 . S
C934 C938 1.401 . S
C934 C939 1.499 . S
N935 Co918 1.989 . S
N935 C934 1.342 . S
N935 N936 1.388 . S
N936 Co919 1.993 . S
N936 N935 1.388 . S
N936 C937 1.346 . S
C937 N936 1.346 . S
C937 C938 1.396 . S
C937 C947 1.510 . S
C938 C934 1.401 . S
C938 C937 1.396 . S
C939 C934 1.499 . S
C939 H940 0.959 . S
C939 H941 0.960 . S
C939 H942 0.961 . S
H940 C939 0.959 . S
H941 C939 0.960 . S
H942 C939 0.961 . S
O943 Co918 1.967 . S
O943 C951 1.258 . S
O944 Co919 1.941 . S
O944 C951 1.266 . S
H945 C947 0.959 . S
H946 C947 0.961 . S
C947 C937 1.510 . S
C947 H945 0.959 . S
C947 H946 0.961 . S
C947 H948 0.960 . S
H948 C947 0.960 . S
H949 N929 0.862 . S
O950 Co918 1.920 . S
O950 C923 1.289 . S
C951 O943 1.258 . S
C951 O944 1.266 . S
Co952 O955 1.970 . S
Co952 N969 1.989 . S
Co952 O977 1.967 . S
Co952 O984 1.920 . S
Co953 O956 1.966 . S
Co953 N962 2.022 . S
Co953 N970 1.993 . S
Co953 O978 1.941 . S
C954 O955 1.258 . S
C954 O956 1.263 . S
O955 Co952 1.970 . S
O955 C954 1.258 . S
O956 Co953 1.966 . S
O956 C954 1.263 . S
C957 O958 1.235 . S
C957 O984 1.289 . S
O958 C957 1.235 . S
C959 C961 1.400 . S
C959 N962 1.351 . S
C959 C964 1.501 . S
C960 C961 1.387 . S
C960 N963 1.341 . S
C961 C959 1.400 . S
C961 C960 1.387 . S
N962 Co953 2.022 . S
N962 C959 1.351 . S
N962 N963 1.365 . S
N963 C960 1.341 . S
N963 N962 1.365 . S
N963 H983 0.862 . S
C964 C959 1.501 . S
C964 H965 0.961 . S
C964 H966 0.961 . S
C964 H967 0.960 . S
H965 C964 0.961 . S
H966 C964 0.961 . S
H967 C964 0.960 . S
C968 N969 1.342 . S
C968 C972 1.401 . S
C968 C973 1.499 . S
N969 Co952 1.989 . S
N969 C968 1.342 . S
N969 N970 1.388 . S
N970 Co953 1.993 . S
N970 N969 1.388 . S
N970 C971 1.346 . S
C971 N970 1.346 . S
C971 C972 1.396 . S
C971 C981 1.510 . S
C972 C968 1.401 . S
C972 C971 1.396 . S
C973 C968 1.499 . S
C973 H974 0.959 . S
C973 H975 0.960 . S
C973 H976 0.961 . S
H974 C973 0.959 . S
H975 C973 0.960 . S
H976 C973 0.961 . S
O977 Co952 1.967 . S
O977 C985 1.258 . S
O978 Co953 1.941 . S
O978 C985 1.266 . S
H979 C981 0.959 . S
H980 C981 0.961 . S
C981 C971 1.510 . S
C981 H979 0.959 . S
C981 H980 0.961 . S
C981 H982 0.960 . S
H982 C981 0.960 . S
H983 N963 0.862 . S
O984 Co952 1.920 . S
O984 C957 1.289 . S
C985 O977 1.258 . S
C985 O978 1.266 . S
Co986 O989 1.970 . S
Co986 N1003 1.989 . S
Co986 O1011 1.967 . S
Co986 O1018 1.920 . S
Co987 O990 1.966 . S
Co987 N996 2.022 . S
Co987 N1004 1.993 . S
Co987 O1012 1.941 . S
C988 O989 1.258 . S
C988 O990 1.263 . S
O989 Co986 1.970 . S
O989 C988 1.258 . S
O990 Co987 1.966 . S
O990 C988 1.263 . S
C991 O992 1.235 . S
C991 O1018 1.289 . S
O992 C991 1.235 . S
C993 C995 1.400 . S
C993 N996 1.351 . S
C993 C998 1.501 . S
C994 C995 1.387 . S
C994 N997 1.341 . S
C995 C993 1.400 . S
C995 C994 1.387 . S
N996 Co987 2.022 . S
N996 C993 1.351 . S
N996 N997 1.365 . S
N997 C994 1.341 . S
N997 N996 1.365 . S
N997 H1017 0.862 . S
C998 C993 1.501 . S
C998 H999 0.961 . S
C998 H1000 0.961 . S
C998 H1001 0.960 . S
H999 C998 0.961 . S
H1000 C998 0.961 . S
H1001 C998 0.960 . S
C1002 N1003 1.342 . S
C1002 C1006 1.401 . S
C1002 C1007 1.499 . S
N1003 Co986 1.989 . S
N1003 C1002 1.342 . S
N1003 N1004 1.388 . S
N1004 Co987 1.993 . S
N1004 N1003 1.388 . S
N1004 C1005 1.346 . S
C1005 N1004 1.346 . S
C1005 C1006 1.396 . S
C1005 C1015 1.510 . S
C1006 C1002 1.401 . S
C1006 C1005 1.396 . S
C1007 C1002 1.499 . S
C1007 H1008 0.959 . S
C1007 H1009 0.960 . S
C1007 H1010 0.961 . S
H1008 C1007 0.959 . S
H1009 C1007 0.960 . S
H1010 C1007 0.961 . S
O1011 Co986 1.967 . S
O1011 C1019 1.258 . S
O1012 Co987 1.941 . S
O1012 C1019 1.266 . S
H1013 C1015 0.959 . S
H1014 C1015 0.961 . S
C1015 C1005 1.510 . S
C1015 H1013 0.959 . S
C1015 H1014 0.961 . S
C1015 H1016 0.960 . S
H1016 C1015 0.960 . S
H1017 N997 0.862 . S
O1018 Co986 1.920 . S
O1018 C991 1.289 . S
C1019 O1011 1.258 . S
C1019 O1012 1.266 . S
Co1020 O1023 1.970 . S
Co1020 N1037 1.989 . S
Co1020 O1045 1.967 . S
Co1020 O1052 1.920 . S
Co1021 O1024 1.966 . S
Co1021 N1030 2.022 . S
Co1021 N1038 1.993 . S
Co1021 O1046 1.941 . S
C1022 O1023 1.258 . S
C1022 O1024 1.263 . S
O1023 Co1020 1.970 . S
O1023 C1022 1.258 . S
O1024 Co1021 1.966 . S
O1024 C1022 1.263 . S
C1025 O1026 1.235 . S
C1025 O1052 1.289 . S
O1026 C1025 1.235 . S
C1027 C1029 1.400 . S
C1027 N1030 1.351 . S
C1027 C1032 1.501 . S
C1028 C1029 1.387 . S
C1028 N1031 1.341 . S
C1029 C1027 1.400 . S
C1029 C1028 1.387 . S
N1030 Co1021 2.022 . S
N1030 C1027 1.351 . S
N1030 N1031 1.365 . S
N1031 C1028 1.341 . S
N1031 N1030 1.365 . S
N1031 H1051 0.862 . S
C1032 C1027 1.501 . S
C1032 H1033 0.961 . S
C1032 H1034 0.961 . S
C1032 H1035 0.960 . S
H1033 C1032 0.961 . S
H1034 C1032 0.961 . S
H1035 C1032 0.960 . S
C1036 N1037 1.342 . S
C1036 C1040 1.401 . S
C1036 C1041 1.499 . S
N1037 Co1020 1.989 . S
N1037 C1036 1.342 . S
N1037 N1038 1.388 . S
N1038 Co1021 1.993 . S
N1038 N1037 1.388 . S
N1038 C1039 1.346 . S
C1039 N1038 1.346 . S
C1039 C1040 1.396 . S
C1039 C1049 1.510 . S
C1040 C1036 1.401 . S
C1040 C1039 1.396 . S
C1041 C1036 1.499 . S
C1041 H1042 0.959 . S
C1041 H1043 0.960 . S
C1041 H1044 0.961 . S
H1042 C1041 0.959 . S
H1043 C1041 0.960 . S
H1044 C1041 0.961 . S
O1045 Co1020 1.967 . S
O1045 C1053 1.258 . S
O1046 Co1021 1.941 . S
O1046 C1053 1.266 . S
H1047 C1049 0.959 . S
H1048 C1049 0.961 . S
C1049 C1039 1.510 . S
C1049 H1047 0.959 . S
C1049 H1048 0.961 . S
C1049 H1050 0.960 . S
H1050 C1049 0.960 . S
H1051 N1031 0.862 . S
O1052 Co1020 1.920 . S
O1052 C1025 1.289 . S
C1053 O1045 1.258 . S
C1053 O1046 1.266 . S
Co1054 O1057 1.970 . S
Co1054 N1071 1.989 . S
Co1054 O1079 1.967 . S
Co1054 O1086 1.920 . S
Co1055 O1058 1.966 . S
Co1055 N1064 2.022 . S
Co1055 N1072 1.993 . S
Co1055 O1080 1.941 . S
C1056 O1057 1.258 . S
C1056 O1058 1.263 . S
O1057 Co1054 1.970 . S
O1057 C1056 1.258 . S
O1058 Co1055 1.966 . S
O1058 C1056 1.263 . S
C1059 O1060 1.235 . S
C1059 O1086 1.289 . S
O1060 C1059 1.235 . S
C1061 C1063 1.400 . S
C1061 N1064 1.351 . S
C1061 C1066 1.501 . S
C1062 C1063 1.387 . S
C1062 N1065 1.341 . S
C1063 C1061 1.400 . S
C1063 C1062 1.387 . S
N1064 Co1055 2.022 . S
N1064 C1061 1.351 . S
N1064 N1065 1.365 . S
N1065 C1062 1.341 . S
N1065 N1064 1.365 . S
N1065 H1085 0.862 . S
C1066 C1061 1.501 . S
C1066 H1067 0.961 . S
C1066 H1068 0.961 . S
C1066 H1069 0.960 . S
H1067 C1066 0.961 . S
H1068 C1066 0.961 . S
H1069 C1066 0.960 . S
C1070 N1071 1.342 . S
C1070 C1074 1.401 . S
C1070 C1075 1.499 . S
N1071 Co1054 1.989 . S
N1071 C1070 1.342 . S
N1071 N1072 1.388 . S
N1072 Co1055 1.993 . S
N1072 N1071 1.388 . S
N1072 C1073 1.346 . S
C1073 N1072 1.346 . S
C1073 C1074 1.396 . S
C1073 C1083 1.510 . S
C1074 C1070 1.401 . S
C1074 C1073 1.396 . S
C1075 C1070 1.499 . S
C1075 H1076 0.959 . S
C1075 H1077 0.960 . S
C1075 H1078 0.961 . S
H1076 C1075 0.959 . S
H1077 C1075 0.960 . S
H1078 C1075 0.961 . S
O1079 Co1054 1.967 . S
O1079 C1087 1.258 . S
O1080 Co1055 1.941 . S
O1080 C1087 1.266 . S
H1081 C1083 0.959 . S
H1082 C1083 0.961 . S
C1083 C1073 1.510 . S
C1083 H1081 0.959 . S
C1083 H1082 0.961 . S
C1083 H1084 0.960 . S
H1084 C1083 0.960 . S
H1085 N1065 0.862 . S
O1086 Co1054 1.920 . S
O1086 C1059 1.289 . S
C1087 O1079 1.258 . S
C1087 O1080 1.266 . S
C1088 C1089 1.349 . S
C1088 C1090 1.327 . S
C1088 H1113 0.950 1_545 S
C1089 C1088 1.349 . S
C1089 C1105 1.349 . S
C1090 C1088 1.327 . S
C1090 C1109 1.429 . S
C1090 H1114 0.950 1_545 S
C1091 C1108 1.574 . S
C1091 C1110 1.368 . S
C1091 H1115 0.949 . S
H1092 C1096 0.949 . S
C1093 C1094 1.349 1_545 S
C1093 C1095 1.327 . S
C1093 H1116 0.950 . S
C1094 C1093 1.349 1_565 S
C1094 C1106 1.349 . S
C1095 C1093 1.327 . S
C1095 C1111 1.429 1_545 S
C1095 H1117 0.950 . S
C1096 H1092 0.949 . S
C1096 C1104 1.574 . S
C1096 C1112 1.368 1_565 S
H1097 C1105 0.950 . S
H1098 C1103 0.950 . S
H1099 C1104 0.949 . S
H1100 C1106 0.950 . S
H1101 C1107 0.950 . S
H1102 C1108 0.949 . S
C1103 H1098 0.950 . S
C1103 C1105 1.327 . S
C1103 C1109 1.429 . S
C1104 C1096 1.574 . S
C1104 H1099 0.949 . S
C1104 C1110 1.368 1_565 S
C1105 C1089 1.349 . S
C1105 H1097 0.950 . S
C1105 C1103 1.327 . S
C1106 C1094 1.349 . S
C1106 H1100 0.950 . S
C1106 C1107 1.327 . S
C1107 H1101 0.950 . S
C1107 C1106 1.327 . S
C1107 C1111 1.429 . S
C1108 C1091 1.574 . S
C1108 H1102 0.949 . S
C1108 C1112 1.368 . S
C1109 C1090 1.429 . S
C1109 C1103 1.429 . S
C1109 C1110 1.523 . S
C1110 C1091 1.368 . S
C1110 C1104 1.368 1_545 S
C1110 C1109 1.523 . S
C1111 C1095 1.429 1_565 S
C1111 C1107 1.429 . S
C1111 C1112 1.523 1_565 S
C1112 C1096 1.368 1_545 S
C1112 C1108 1.368 . S
C1112 C1111 1.523 1_545 S
H1113 C1088 0.950 1_565 S
H1114 C1090 0.950 1_565 S
H1115 C1091 0.949 . S
H1116 C1093 0.950 . S
H1117 C1095 0.950 . S
C1118 C1119 1.349 1_565 S
C1118 C1120 1.327 . S
C1118 H1143 0.950 . S
C1119 C1118 1.349 1_545 S
C1119 C1135 1.349 . S
C1120 C1118 1.327 . S
C1120 C1139 1.429 1_565 S
C1120 H1144 0.950 . S
C1121 C1138 1.574 . S
C1121 C1140 1.368 1_545 S
C1121 H1145 0.949 . S
H1122 C1126 0.949 . S
C1123 C1124 1.349 . S
C1123 C1125 1.330 . S
C1123 H1146 0.950 1_565 S
C1124 C1123 1.349 . S
C1124 C1136 1.349 . S
C1125 C1123 1.330 . S
C1125 C1141 1.437 . S
C1125 H1147 0.938 1_565 S
C1126 H1122 0.949 . S
C1126 C1134 1.574 . S
C1126 C1142 1.368 . S
H1127 C1135 0.950 . S
H1128 C1133 0.950 . S
H1129 C1134 0.949 . S
H1130 C1136 0.950 . S
H1131 C1137 0.950 . S
H1132 C1138 0.949 . S
C1133 H1128 0.950 . S
C1133 C1135 1.327 . S
C1133 C1139 1.429 . S
C1134 C1126 1.574 . S
C1134 H1129 0.949 . S
C1134 C1140 1.368 . S
C1135 C1119 1.349 . S
C1135 H1127 0.950 . S
C1135 C1133 1.327 . S
C1136 C1124 1.349 . S
C1136 H1130 0.950 . S
C1136 C1137 1.327 . S
C1137 H1131 0.950 . S
C1137 C1136 1.327 . S
C1137 C1141 1.429 . S
C1138 C1121 1.574 . S
C1138 H1132 0.949 . S
C1138 C1142 1.368 1_545 S
C1139 C1120 1.429 1_545 S
C1139 C1133 1.429 . S
C1139 C1140 1.523 1_545 S
C1140 C1121 1.368 1_565 S
C1140 C1134 1.368 . S
C1140 C1139 1.523 1_565 S
C1141 C1125 1.437 . S
C1141 C1137 1.429 . S
C1141 C1142 1.523 . S
C1142 C1126 1.368 . S
C1142 C1138 1.368 1_565 S
C1142 C1141 1.523 . S
H1143 C1118 0.950 . S
H1144 C1120 0.950 . S
H1145 C1121 0.949 . S
H1146 C1123 0.950 1_545 S
H1147 C1125 0.938 1_545 S
C1148 C1149 1.349 . S
C1148 C1150 1.327 . S
C1148 H1173 0.950 1_565 S
C1149 C1148 1.349 . S
C1149 C1165 1.349 . S
C1150 C1148 1.327 . S
C1150 C1169 1.429 . S
C1150 H1174 0.950 1_565 S
C1151 C1168 1.574 . S
C1151 C1170 1.368 . S
C1151 H1175 0.949 . S
H1152 C1156 0.949 . S
C1153 C1154 1.349 1_565 S
C1153 C1155 1.327 . S
C1153 H1176 0.950 . S
C1154 C1153 1.349 1_545 S
C1154 C1166 1.349 . S
C1155 C1153 1.327 . S
C1155 C1171 1.429 1_565 S
C1155 H1177 0.950 . S
C1156 H1152 0.949 . S
C1156 C1164 1.574 . S
C1156 C1172 1.368 1_545 S
H1157 C1165 0.950 . S
H1158 C1163 0.950 . S
H1159 C1164 0.949 . S
H1160 C1166 0.950 . S
H1161 C1167 0.950 . S
H1162 C1168 0.949 . S
C1163 H1158 0.950 . S
C1163 C1165 1.327 . S
C1163 C1169 1.429 . S
C1164 C1156 1.574 . S
C1164 H1159 0.949 . S
C1164 C1170 1.368 1_545 S
C1165 C1149 1.349 . S
C1165 H1157 0.950 . S
C1165 C1163 1.327 . S
C1166 C1154 1.349 . S
C1166 H1160 0.950 . S
C1166 C1167 1.327 . S
C1167 H1161 0.950 . S
C1167 C1166 1.327 . S
C1167 C1171 1.429 . S
C1168 C1151 1.574 . S
C1168 H1162 0.949 . S
C1168 C1172 1.368 . S
C1169 C1150 1.429 . S
C1169 C1163 1.429 . S
C1169 C1170 1.523 . S
C1170 C1151 1.368 . S
C1170 C1164 1.368 1_565 S
C1170 C1169 1.523 . S
C1171 C1155 1.429 1_545 S
C1171 C1167 1.429 . S
C1171 C1172 1.523 1_545 S
C1172 C1156 1.368 1_565 S
C1172 C1168 1.368 . S
C1172 C1171 1.523 1_565 S
H1173 C1148 0.950 1_545 S
H1174 C1150 0.950 1_545 S
H1175 C1151 0.949 . S
H1176 C1153 0.950 . S
H1177 C1155 0.950 . S
C1178 C1179 1.349 . S
C1178 C1180 1.327 . S
C1178 H1203 0.950 . S
C1179 C1178 1.349 . S
C1179 C1195 1.349 . S
C1180 C1178 1.327 . S
C1180 C1199 1.429 . S
C1180 H1204 0.950 . S
C1181 C1198 1.574 . S
C1181 C1200 1.368 1_565 S
C1181 H1205 0.949 . S
H1182 C1186 0.949 . S
C1183 C1184 1.349 . S
C1183 C1185 1.327 . S
C1183 H1206 0.950 . S
C1184 C1183 1.349 . S
C1184 C1196 1.349 1_565 S
C1185 C1183 1.327 . S
C1185 C1201 1.429 . S
C1185 H1207 0.950 . S
C1186 H1182 0.949 . S
C1186 C1194 1.574 . S
C1186 C1202 1.368 . S
H1187 C1195 0.950 1_565 S
H1188 C1193 0.950 1_565 S
H1189 C1194 0.949 . S
H1190 C1196 0.950 . S
H1191 C1197 0.950 . S
H1192 C1198 0.949 . S
C1193 H1188 0.950 1_545 S
C1193 C1195 1.327 . S
C1193 C1199 1.429 . S
C1194 C1186 1.574 . S
C1194 H1189 0.949 . S
C1194 C1200 1.368 . S
C1195 C1179 1.349 . S
C1195 H1187 0.950 1_545 S
C1195 C1193 1.327 . S
C1196 C1184 1.349 1_545 S
C1196 H1190 0.950 . S
C1196 C1197 1.327 . S
C1197 H1191 0.950 . S
C1197 C1196 1.327 . S
C1197 C1201 1.429 1_545 S
C1198 C1181 1.574 . S
C1198 H1192 0.949 . S
C1198 C1202 1.368 1_565 S
C1199 C1180 1.429 . S
C1199 C1193 1.429 . S
C1199 C1200 1.523 . S
C1200 C1181 1.368 1_545 S
C1200 C1194 1.368 . S
C1200 C1199 1.523 . S
C1201 C1185 1.429 . S
C1201 C1197 1.429 1_565 S
C1201 C1202 1.523 1_565 S
C1202 C1186 1.368 . S
C1202 C1198 1.368 1_545 S
C1202 C1201 1.523 1_545 S
H1203 C1178 0.950 . S
H1204 C1180 0.950 . S
H1205 C1181 0.949 . S
H1206 C1183 0.950 . S
H1207 C1185 0.950 . S
C1208 C1209 1.349 1_565 S
C1208 C1210 1.327 . S
C1208 H1233 0.950 . S
C1209 C1208 1.349 1_545 S
C1209 C1225 1.349 . S
C1210 C1208 1.327 . S
C1210 C1229 1.429 1_565 S
C1210 H1234 0.950 . S
C1211 C1228 1.574 . S
C1211 C1230 1.368 1_545 S
C1211 H1235 0.949 . S
H1212 C1216 0.949 . S
C1213 C1214 1.349 . S
C1213 C1215 1.327 . S
C1213 H1236 0.950 1_565 S
C1214 C1213 1.349 . S
C1214 C1226 1.349 . S
C1215 C1213 1.327 . S
C1215 C1231 1.429 . S
C1215 H1237 0.950 1_565 S
C1216 H1212 0.949 . S
C1216 C1224 1.574 . S
C1216 C1232 1.368 . S
H1217 C1225 0.950 . S
H1218 C1223 0.950 . S
H1219 C1224 0.949 . S
H1220 C1226 0.950 . S
H1221 C1227 0.950 . S
H1222 C1228 0.949 . S
C1223 H1218 0.950 . S
C1223 C1225 1.327 . S
C1223 C1229 1.429 . S
C1224 C1216 1.574 . S
C1224 H1219 0.949 . S
C1224 C1230 1.368 . S
C1225 C1209 1.349 . S
C1225 H1217 0.950 . S
C1225 C1223 1.327 . S
C1226 C1214 1.349 . S
C1226 H1220 0.950 . S
C1226 C1227 1.327 . S
C1227 H1221 0.950 . S
C1227 C1226 1.327 . S
C1227 C1231 1.429 . S
C1228 C1211 1.574 . S
C1228 H1222 0.949 . S
C1228 C1232 1.368 1_545 S
C1229 C1210 1.429 1_545 S
C1229 C1223 1.429 . S
C1229 C1230 1.523 1_545 S
C1230 C1211 1.368 1_565 S
C1230 C1224 1.368 . S
C1230 C1229 1.523 1_565 S
C1231 C1215 1.429 . S
C1231 C1227 1.429 . S
C1231 C1232 1.523 . S
C1232 C1216 1.368 . S
C1232 C1228 1.368 1_565 S
C1232 C1231 1.523 . S
H1233 C1208 0.950 . S
H1234 C1210 0.950 . S
H1235 C1211 0.949 . S
H1236 C1213 0.950 1_545 S
H1237 C1215 0.950 1_545 S
C1238 C1239 1.349 . S
C1238 C1240 1.327 . S
C1238 H1263 0.950 . S
C1239 C1238 1.349 . S
C1239 C1255 1.349 . S
C1240 C1238 1.327 . S
C1240 C1259 1.429 . S
C1240 H1264 0.950 . S
C1241 C1258 1.574 . S
C1241 C1260 1.368 1_565 S
C1241 H1265 0.949 . S
H1242 C1246 0.949 . S
C1243 C1244 1.349 . S
C1243 C1245 1.327 . S
C1243 H1266 0.950 . S
C1244 C1243 1.349 . S
C1244 C1256 1.349 1_565 S
C1245 C1243 1.327 . S
C1245 C1261 1.429 . S
C1245 H1267 0.950 . S
C1246 H1242 0.949 . S
C1246 C1254 1.574 . S
C1246 C1262 1.368 . S
H1247 C1255 0.950 1_565 S
H1248 C1253 0.950 1_565 S
H1249 C1254 0.949 . S
H1250 C1256 0.950 . S
H1251 C1257 0.950 . S
H1252 C1258 0.949 . S
C1253 H1248 0.950 1_545 S
C1253 C1255 1.327 . S
C1253 C1259 1.429 . S
C1254 C1246 1.574 . S
C1254 H1249 0.949 . S
C1254 C1260 1.368 . S
C1255 C1239 1.349 . S
C1255 H1247 0.950 1_545 S
C1255 C1253 1.327 . S
C1256 C1244 1.349 1_545 S
C1256 H1250 0.950 . S
C1256 C1257 1.327 . S
C1257 H1251 0.950 . S
C1257 C1256 1.327 . S
C1257 C1261 1.429 1_545 S
C1258 C1241 1.574 . S
C1258 H1252 0.949 . S
C1258 C1262 1.368 1_565 S
C1259 C1240 1.429 . S
C1259 C1253 1.429 . S
C1259 C1260 1.523 . S
C1260 C1241 1.368 1_545 S
C1260 C1254 1.368 . S
C1260 C1259 1.523 . S
C1261 C1245 1.429 . S
C1261 C1257 1.429 1_565 S
C1261 C1262 1.523 1_565 S
C1262 C1246 1.368 . S
C1262 C1258 1.368 1_545 S
C1262 C1261 1.523 1_545 S
H1263 C1238 0.950 . S
H1264 C1240 0.950 . S
H1265 C1241 0.949 . S
H1266 C1243 0.950 . S
H1267 C1245 0.950 . S
C1268 C1269 1.349 . S
C1268 C1270 1.327 . S
C1268 H1293 0.950 . S
C1269 C1268 1.349 . S
C1269 C1285 1.349 1_565 S
C1270 C1268 1.327 . S
C1270 C1289 1.429 . S
C1270 H1294 0.950 . S
C1271 C1288 1.574 . S
C1271 C1290 1.368 . S
C1271 H1295 0.949 . S
H1272 C1276 0.949 . S
C1273 C1274 1.349 . S
C1273 C1275 1.327 . S
C1273 H1296 0.950 . S
C1274 C1273 1.349 . S
C1274 C1286 1.349 . S
C1275 C1273 1.327 . S
C1275 C1291 1.429 . S
C1275 H1297 0.950 . S
C1276 H1272 0.949 . S
C1276 C1284 1.574 . S
C1276 C1292 1.368 1_565 S
H1277 C1285 0.950 . S
H1278 C1283 0.950 . S
H1279 C1284 0.949 . S
H1280 C1286 0.950 1_565 S
H1281 C1287 0.950 . S
H1282 C1288 0.949 . S
C1283 H1278 0.950 . S
C1283 C1285 1.327 . S
C1283 C1289 1.429 1_545 S
C1284 C1276 1.574 . S
C1284 H1279 0.949 . S
C1284 C1290 1.368 1_565 S
C1285 C1269 1.349 1_545 S
C1285 H1277 0.950 . S
C1285 C1283 1.327 . S
C1286 C1274 1.349 . S
C1286 H1280 0.950 1_545 S
C1286 C1287 1.327 1_545 S
C1287 H1281 0.950 . S
C1287 C1286 1.327 1_565 S
C1287 C1291 1.429 1_565 S
C1288 C1271 1.574 . S
C1288 H1282 0.949 . S
C1288 C1292 1.368 . S
C1289 C1270 1.429 . S
C1289 C1283 1.429 1_565 S
C1289 C1290 1.523 1_565 S
C1290 C1271 1.368 . S
C1290 C1284 1.368 1_545 S
C1290 C1289 1.523 1_545 S
C1291 C1275 1.429 . S
C1291 C1287 1.429 1_545 S
C1291 C1292 1.523 . S
C1292 C1276 1.368 1_545 S
C1292 C1288 1.368 . S
C1292 C1291 1.523 . S
H1293 C1268 0.950 . S
H1294 C1270 0.950 . S
H1295 C1271 0.949 . S
H1296 C1273 0.950 . S
H1297 C1275 0.950 . S
C1298 C1299 1.349 . S
C1298 C1300 1.327 . S
C1298 H1323 0.939 1_565 S
C1299 C1298 1.349 . S
C1299 C1315 1.349 . S
C1300 C1298 1.327 . S
C1300 C1319 1.429 . S
C1300 H1324 0.950 1_565 S
C1301 C1318 1.574 . S
C1301 C1320 1.368 . S
C1301 H1325 0.949 . S
H1302 C1306 0.949 . S
C1303 C1304 1.349 1_565 S
C1303 C1305 1.327 . S
C1303 H1326 0.950 . S
C1304 C1303 1.349 1_545 S
C1304 C1316 1.349 . S
C1305 C1303 1.327 . S
C1305 C1321 1.429 1_565 S
C1305 H1327 0.950 . S
C1306 H1302 0.949 . S
C1306 C1314 1.574 . S
C1306 C1322 1.368 1_545 S
H1307 C1315 0.950 . S
H1308 C1313 0.950 . S
H1309 C1314 0.949 . S
H1310 C1316 0.950 . S
H1311 C1317 0.950 . S
H1312 C1318 0.949 . S
C1313 H1308 0.950 . S
C1313 C1315 1.327 . S
C1313 C1319 1.429 . S
C1314 C1306 1.574 . S
C1314 H1309 0.949 . S
C1314 C1320 1.368 1_545 S
C1315 C1299 1.349 . S
C1315 H1307 0.950 . S
C1315 C1313 1.327 . S
C1316 C1304 1.349 . S
C1316 H1310 0.950 . S
C1316 C1317 1.327 . S
C1317 H1311 0.950 . S
C1317 C1316 1.327 . S
C1317 C1321 1.429 . S
C1318 C1301 1.574 . S
C1318 H1312 0.949 . S
C1318 C1322 1.368 . S
C1319 C1300 1.429 . S
C1319 C1313 1.429 . S
C1319 C1320 1.523 . S
C1320 C1301 1.368 . S
C1320 C1314 1.368 1_565 S
C1320 C1319 1.523 . S
C1321 C1305 1.429 1_545 S
C1321 C1317 1.429 . S
C1321 C1322 1.523 1_545 S
C1322 C1306 1.368 1_565 S
C1322 C1318 1.368 . S
C1322 C1321 1.523 1_565 S
H1323 C1298 0.939 1_545 S
H1324 C1300 0.950 1_545 S
H1325 C1301 0.949 . S
H1326 C1303 0.950 . S
H1327 C1305 0.950 . S
C1328 C1329 1.349 . S
C1328 C1330 1.327 . S
C1328 H1353 0.950 . S
C1329 C1328 1.349 . S
C1329 C1345 1.349 . S
C1330 C1328 1.327 . S
C1330 C1349 1.429 . S
C1330 H1354 0.950 . S
C1331 C1348 1.574 . S
C1331 C1350 1.368 . S
C1331 H1355 0.949 . S
H1332 C1336 0.949 . S
C1333 C1334 1.349 . S
C1333 C1335 1.327 . S
C1333 H1356 0.950 . S
C1334 C1333 1.349 . S
C1334 C1346 1.349 . S
C1335 C1333 1.327 . S
C1335 C1351 1.429 . S
C1335 H1357 0.950 . S
C1336 H1332 0.949 . S
C1336 C1344 1.574 . S
C1336 C1352 1.368 . S
H1337 C1345 0.950 . S
H1338 C1343 0.950 . S
H1339 C1344 0.949 . S
H1340 C1346 0.950 . S
H1341 C1347 0.950 . S
H1342 C1348 0.949 . S
C1343 H1338 0.950 . S
C1343 C1345 1.327 . S
C1343 C1349 1.429 . S
C1344 C1336 1.574 . S
C1344 H1339 0.949 . S
C1344 C1350 1.368 . S
C1345 C1329 1.349 . S
C1345 H1337 0.950 . S
C1345 C1343 1.327 . S
C1346 C1334 1.349 . S
C1346 H1340 0.950 . S
C1346 C1347 1.327 . S
C1347 H1341 0.950 . S
C1347 C1346 1.327 . S
C1347 C1351 1.429 . S
C1348 C1331 1.574 . S
C1348 H1342 0.949 . S
C1348 C1352 1.368 . S
C1349 C1330 1.429 . S
C1349 C1343 1.429 . S
C1349 C1350 1.523 . S
C1350 C1331 1.368 . S
C1350 C1344 1.368 . S
C1350 C1349 1.523 . S
C1351 C1335 1.429 . S
C1351 C1347 1.429 . S
C1351 C1352 1.523 . S
C1352 C1336 1.368 . S
C1352 C1348 1.368 . S
C1352 C1351 1.523 . S
H1353 C1328 0.950 . S
H1354 C1330 0.950 . S
H1355 C1331 0.949 . S
H1356 C1333 0.950 . S
H1357 C1335 0.950 . S
C1358 C1359 1.349 . S
C1358 C1360 1.327 . S
C1358 H1383 0.950 . S
C1359 C1358 1.349 . S
C1359 C1375 1.349 . S
C1360 C1358 1.327 . S
C1360 C1379 1.429 . S
C1360 H1384 0.950 . S
C1361 C1378 1.574 . S
C1361 C1380 1.368 . S
C1361 H1385 0.949 . S
H1362 C1366 0.949 . S
C1363 C1364 1.349 . S
C1363 C1365 1.327 . S
C1363 H1386 0.950 . S
C1364 C1363 1.349 . S
C1364 C1376 1.349 . S
C1365 C1363 1.327 . S
C1365 C1381 1.429 . S
C1365 H1387 0.950 . S
C1366 H1362 0.949 . S
C1366 C1374 1.574 . S
C1366 C1382 1.368 . S
H1367 C1375 0.950 . S
H1368 C1373 0.950 . S
H1369 C1374 0.949 . S
H1370 C1376 0.950 . S
H1371 C1377 0.950 . S
H1372 C1378 0.949 . S
C1373 H1368 0.950 . S
C1373 C1375 1.327 . S
C1373 C1379 1.429 . S
C1374 C1366 1.574 . S
C1374 H1369 0.949 . S
C1374 C1380 1.368 . S
C1375 C1359 1.349 . S
C1375 H1367 0.950 . S
C1375 C1373 1.327 . S
C1376 C1364 1.349 . S
C1376 H1370 0.950 . S
C1376 C1377 1.327 . S
C1377 H1371 0.950 . S
C1377 C1376 1.327 . S
C1377 C1381 1.429 . S
C1378 C1361 1.574 . S
C1378 H1372 0.949 . S
C1378 C1382 1.368 . S
C1379 C1360 1.429 . S
C1379 C1373 1.429 . S
C1379 C1380 1.523 . S
C1380 C1361 1.368 . S
C1380 C1374 1.368 . S
C1380 C1379 1.523 . S
C1381 C1365 1.429 . S
C1381 C1377 1.429 . S
C1381 C1382 1.523 . S
C1382 C1366 1.368 . S
C1382 C1378 1.368 . S
C1382 C1381 1.523 . S
H1383 C1358 0.950 . S
H1384 C1360 0.950 . S
H1385 C1361 0.949 . S
H1386 C1363 0.950 . S
H1387 C1365 0.950 . S
C1388 C1389 1.349 . S
C1388 C1390 1.327 . S
C1388 H1413 0.950 . S
C1389 C1388 1.349 . S
C1389 C1405 1.349 . S
C1390 C1388 1.327 . S
C1390 C1409 1.429 . S
C1390 H1414 0.950 . S
C1391 C1408 1.574 . S
C1391 C1410 1.368 . S
C1391 H1415 0.949 . S
H1392 C1396 0.949 . S
C1393 C1394 1.349 . S
C1393 C1395 1.327 . S
C1393 H1416 0.950 . S
C1394 C1393 1.349 . S
C1394 C1406 1.349 . S
C1395 C1393 1.327 . S
C1395 C1411 1.429 . S
C1395 H1417 0.950 . S
C1396 H1392 0.949 . S
C1396 C1404 1.574 . S
C1396 C1412 1.368 . S
H1397 C1405 0.950 . S
H1398 C1403 0.950 . S
H1399 C1404 0.949 . S
H1400 C1406 0.950 . S
H1401 C1407 0.950 . S
H1402 C1408 0.949 . S
C1403 H1398 0.950 . S
C1403 C1405 1.327 . S
C1403 C1409 1.429 . S
C1404 C1396 1.574 . S
C1404 H1399 0.949 . S
C1404 C1410 1.368 . S
C1405 C1389 1.349 . S
C1405 H1397 0.950 . S
C1405 C1403 1.327 . S
C1406 C1394 1.349 . S
C1406 H1400 0.950 . S
C1406 C1407 1.327 . S
C1407 H1401 0.950 . S
C1407 C1406 1.327 . S
C1407 C1411 1.429 . S
C1408 C1391 1.574 . S
C1408 H1402 0.949 . S
C1408 C1412 1.368 . S
C1409 C1390 1.429 . S
C1409 C1403 1.429 . S
C1409 C1410 1.523 . S
C1410 C1391 1.368 . S
C1410 C1404 1.368 . S
C1410 C1409 1.523 . S
C1411 C1395 1.429 . S
C1411 C1407 1.429 . S
C1411 C1412 1.523 . S
C1412 C1396 1.368 . S
C1412 C1408 1.368 . S
C1412 C1411 1.523 . S
H1413 C1388 0.950 . S
H1414 C1390 0.950 . S
H1415 C1391 0.949 . S
H1416 C1393 0.950 . S
H1417 C1395 0.950 . S
C1418 C1419 1.349 . S
C1418 C1420 1.327 . S
C1418 H1443 0.950 . S
C1419 C1418 1.349 . S
C1419 C1435 1.349 . S
C1420 C1418 1.327 . S
C1420 C1439 1.429 . S
C1420 H1444 0.950 . S
C1421 C1438 1.574 . S
C1421 C1440 1.368 . S
C1421 H1445 0.949 . S
H1422 C1426 0.949 . S
C1423 C1424 1.349 . S
C1423 C1425 1.327 . S
C1423 H1446 0.950 . S
C1424 C1423 1.349 . S
C1424 C1436 1.349 . S
C1425 C1423 1.327 . S
C1425 C1441 1.429 . S
C1425 H1447 0.950 . S
C1426 H1422 0.949 . S
C1426 C1434 1.574 . S
C1426 C1442 1.368 . S
H1427 C1435 0.950 . S
H1428 C1433 0.950 . S
H1429 C1434 0.949 . S
H1430 C1436 0.950 . S
H1431 C1437 0.950 . S
H1432 C1438 0.949 . S
C1433 H1428 0.950 . S
C1433 C1435 1.327 . S
C1433 C1439 1.429 . S
C1434 C1426 1.574 . S
C1434 H1429 0.949 . S
C1434 C1440 1.368 . S
C1435 C1419 1.349 . S
C1435 H1427 0.950 . S
C1435 C1433 1.327 . S
C1436 C1424 1.349 . S
C1436 H1430 0.950 . S
C1436 C1437 1.327 . S
C1437 H1431 0.950 . S
C1437 C1436 1.327 . S
C1437 C1441 1.429 . S
C1438 C1421 1.574 . S
C1438 H1432 0.949 . S
C1438 C1442 1.368 . S
C1439 C1420 1.429 . S
C1439 C1433 1.429 . S
C1439 C1440 1.523 . S
C1440 C1421 1.368 . S
C1440 C1434 1.368 . S
C1440 C1439 1.523 . S
C1441 C1425 1.429 . S
C1441 C1437 1.429 . S
C1441 C1442 1.523 . S
C1442 C1426 1.368 . S
C1442 C1438 1.368 . S
C1442 C1441 1.523 . S
H1443 C1418 0.950 . S
H1444 C1420 0.950 . S
H1445 C1421 0.949 . S
H1446 C1423 0.950 . S
H1447 C1425 0.950 . S
C1448 C1449 1.349 . S
C1448 C1450 1.327 . S
C1448 H1473 0.950 . S
C1449 C1448 1.349 . S
C1449 C1465 1.349 . S
C1450 C1448 1.327 . S
C1450 C1469 1.429 . S
C1450 H1474 0.950 . S
C1451 C1468 1.574 . S
C1451 C1470 1.368 . S
C1451 H1475 0.949 . S
H1452 C1456 0.949 . S
C1453 C1454 1.349 . S
C1453 C1455 1.327 . S
C1453 H1476 0.950 . S
C1454 C1453 1.349 . S
C1454 C1466 1.349 . S
C1455 C1453 1.327 . S
C1455 C1471 1.429 . S
C1455 H1477 0.950 . S
C1456 H1452 0.949 . S
C1456 C1464 1.574 . S
C1456 C1472 1.368 . S
H1457 C1465 0.950 . S
H1458 C1463 0.950 . S
H1459 C1464 0.949 . S
H1460 C1466 0.950 . S
H1461 C1467 0.950 . S
H1462 C1468 0.949 . S
C1463 H1458 0.950 . S
C1463 C1465 1.327 . S
C1463 C1469 1.429 . S
C1464 C1456 1.574 . S
C1464 H1459 0.949 . S
C1464 C1470 1.368 . S
C1465 C1449 1.349 . S
C1465 H1457 0.950 . S
C1465 C1463 1.327 . S
C1466 C1454 1.349 . S
C1466 H1460 0.950 . S
C1466 C1467 1.327 . S
C1467 H1461 0.950 . S
C1467 C1466 1.327 . S
C1467 C1471 1.429 . S
C1468 C1451 1.574 . S
C1468 H1462 0.949 . S
C1468 C1472 1.368 . S
C1469 C1450 1.429 . S
C1469 C1463 1.429 . S
C1469 C1470 1.523 . S
C1470 C1451 1.368 . S
C1470 C1464 1.368 . S
C1470 C1469 1.523 . S
C1471 C1455 1.429 . S
C1471 C1467 1.429 . S
C1471 C1472 1.523 . S
C1472 C1456 1.368 . S
C1472 C1468 1.368 . S
C1472 C1471 1.523 . S
H1473 C1448 0.950 . S
H1474 C1450 0.950 . S
H1475 C1451 0.949 . S
H1476 C1453 0.950 . S
H1477 C1455 0.950 . S
C1478 C1479 1.349 . S
C1478 C1480 1.327 . S
C1478 H1503 0.950 . S
C1479 C1478 1.349 . S
C1479 C1495 1.349 . S
C1480 C1478 1.327 . S
C1480 C1499 1.429 . S
C1480 H1504 0.950 . S
C1481 C1498 1.574 . S
C1481 C1500 1.368 . S
C1481 H1505 0.949 . S
H1482 C1486 0.949 . S
C1483 C1484 1.349 . S
C1483 C1485 1.327 . S
C1483 H1506 0.950 . S
C1484 C1483 1.349 . S
C1484 C1496 1.349 . S
C1485 C1483 1.327 . S
C1485 C1501 1.429 . S
C1485 H1507 0.950 . S
C1486 H1482 0.949 . S
C1486 C1494 1.574 . S
C1486 C1502 1.368 . S
H1487 C1495 0.950 . S
H1488 C1493 0.950 . S
H1489 C1494 0.949 . S
H1490 C1496 0.950 . S
H1491 C1497 0.950 . S
H1492 C1498 0.949 . S
C1493 H1488 0.950 . S
C1493 C1495 1.327 . S
C1493 C1499 1.429 . S
C1494 C1486 1.574 . S
C1494 H1489 0.949 . S
C1494 C1500 1.368 . S
C1495 C1479 1.349 . S
C1495 H1487 0.950 . S
C1495 C1493 1.327 . S
C1496 C1484 1.349 . S
C1496 H1490 0.950 . S
C1496 C1497 1.327 . S
C1497 H1491 0.950 . S
C1497 C1496 1.327 . S
C1497 C1501 1.429 . S
C1498 C1481 1.574 . S
C1498 H1492 0.949 . S
C1498 C1502 1.368 . S
C1499 C1480 1.429 . S
C1499 C1493 1.429 . S
C1499 C1500 1.523 . S
C1500 C1481 1.368 . S
C1500 C1494 1.368 . S
C1500 C1499 1.523 . S
C1501 C1485 1.429 . S
C1501 C1497 1.429 . S
C1501 C1502 1.523 . S
C1502 C1486 1.368 . S
C1502 C1498 1.368 . S
C1502 C1501 1.523 . S
H1503 C1478 0.950 . S
H1504 C1480 0.950 . S
H1505 C1481 0.949 . S
H1506 C1483 0.950 . S
H1507 C1485 0.950 . S
C1508 C1509 1.349 . S
C1508 C1510 1.327 . S
C1508 H1533 0.950 . S
C1509 C1508 1.349 . S
C1509 C1525 1.349 . S
C1510 C1508 1.327 . S
C1510 C1529 1.429 . S
C1510 H1534 0.950 . S
C1511 C1528 1.574 . S
C1511 C1530 1.368 . S
C1511 H1535 0.949 . S
H1512 C1516 0.949 . S
C1513 C1514 1.349 . S
C1513 C1515 1.327 . S
C1513 H1536 0.950 . S
C1514 C1513 1.349 . S
C1514 C1526 1.349 . S
C1515 C1513 1.327 . S
C1515 C1531 1.429 . S
C1515 H1537 0.950 . S
C1516 H1512 0.949 . S
C1516 C1524 1.574 . S
C1516 C1532 1.368 . S
H1517 C1525 0.950 . S
H1518 C1523 0.950 . S
H1519 C1524 0.949 . S
H1520 C1526 0.950 . S
H1521 C1527 0.950 . S
H1522 C1528 0.949 . S
C1523 H1518 0.950 . S
C1523 C1525 1.327 . S
C1523 C1529 1.429 . S
C1524 C1516 1.574 . S
C1524 H1519 0.949 . S
C1524 C1530 1.368 . S
C1525 C1509 1.349 . S
C1525 H1517 0.950 . S
C1525 C1523 1.327 . S
C1526 C1514 1.349 . S
C1526 H1520 0.950 . S
C1526 C1527 1.327 . S
C1527 H1521 0.950 . S
C1527 C1526 1.327 . S
C1527 C1531 1.429 . S
C1528 C1511 1.574 . S
C1528 H1522 0.949 . S
C1528 C1532 1.368 . S
C1529 C1510 1.429 . S
C1529 C1523 1.429 . S
C1529 C1530 1.523 . S
C1530 C1511 1.368 . S
C1530 C1524 1.368 . S
C1530 C1529 1.523 . S
C1531 C1515 1.429 . S
C1531 C1527 1.429 . S
C1531 C1532 1.523 . S
C1532 C1516 1.368 . S
C1532 C1528 1.368 . S
C1532 C1531 1.523 . S
H1533 C1508 0.950 . S
H1534 C1510 0.950 . S
H1535 C1511 0.949 . S
H1536 C1513 0.950 . S
H1537 C1515 0.950 . S
C1538 C1539 1.349 . S
C1538 C1540 1.327 . S
C1538 H1563 0.950 . S
C1539 C1538 1.349 . S
C1539 C1555 1.349 . S
C1540 C1538 1.327 . S
C1540 C1559 1.429 . S
C1540 H1564 0.950 . S
C1541 C1558 1.574 . S
C1541 C1560 1.368 . S
C1541 H1565 0.949 . S
H1542 C1546 0.949 . S
C1543 C1544 1.349 . S
C1543 C1545 1.327 . S
C1543 H1566 0.950 . S
C1544 C1543 1.349 . S
C1544 C1556 1.349 . S
C1545 C1543 1.327 . S
C1545 C1561 1.429 . S
C1545 H1567 0.950 . S
C1546 H1542 0.949 . S
C1546 C1554 1.574 . S
C1546 C1562 1.368 . S
H1547 C1555 0.950 . S
H1548 C1553 0.950 . S
H1549 C1554 0.949 . S
H1550 C1556 0.950 . S
H1551 C1557 0.950 . S
H1552 C1558 0.949 . S
C1553 H1548 0.950 . S
C1553 C1555 1.327 . S
C1553 C1559 1.429 . S
C1554 C1546 1.574 . S
C1554 H1549 0.949 . S
C1554 C1560 1.368 . S
C1555 C1539 1.349 . S
C1555 H1547 0.950 . S
C1555 C1553 1.327 . S
C1556 C1544 1.349 . S
C1556 H1550 0.950 . S
C1556 C1557 1.327 . S
C1557 H1551 0.950 . S
C1557 C1556 1.327 . S
C1557 C1561 1.429 . S
C1558 C1541 1.574 . S
C1558 H1552 0.949 . S
C1558 C1562 1.368 . S
C1559 C1540 1.429 . S
C1559 C1553 1.429 . S
C1559 C1560 1.523 . S
C1560 C1541 1.368 . S
C1560 C1554 1.368 . S
C1560 C1559 1.523 . S
C1561 C1545 1.429 . S
C1561 C1557 1.429 . S
C1561 C1562 1.523 . S
C1562 C1546 1.368 . S
C1562 C1558 1.368 . S
C1562 C1561 1.523 . S
H1563 C1538 0.950 . S
H1564 C1540 0.950 . S
H1565 C1541 0.949 . S
H1566 C1543 0.950 . S
H1567 C1545 0.950 . S
C1568 C1569 1.349 . S
C1568 C1570 1.327 . S
C1568 H1593 0.950 . S
C1569 C1568 1.349 . S
C1569 C1585 1.349 . S
C1570 C1568 1.327 . S
C1570 C1589 1.429 . S
C1570 H1594 0.950 . S
C1571 C1588 1.574 . S
C1571 C1590 1.368 . S
C1571 H1595 0.949 . S
H1572 C1576 0.949 . S
C1573 C1574 1.349 . S
C1573 C1575 1.327 . S
C1573 H1596 0.950 . S
C1574 C1573 1.349 . S
C1574 C1586 1.349 . S
C1575 C1573 1.327 . S
C1575 C1591 1.429 . S
C1575 H1597 0.950 . S
C1576 H1572 0.949 . S
C1576 C1584 1.574 . S
C1576 C1592 1.368 . S
H1577 C1585 0.950 . S
H1578 C1583 0.950 . S
H1579 C1584 0.949 . S
H1580 C1586 0.950 . S
H1581 C1587 0.950 . S
H1582 C1588 0.949 . S
C1583 H1578 0.950 . S
C1583 C1585 1.327 . S
C1583 C1589 1.429 . S
C1584 C1576 1.574 . S
C1584 H1579 0.949 . S
C1584 C1590 1.368 . S
C1585 C1569 1.349 . S
C1585 H1577 0.950 . S
C1585 C1583 1.327 . S
C1586 C1574 1.349 . S
C1586 H1580 0.950 . S
C1586 C1587 1.327 . S
C1587 H1581 0.950 . S
C1587 C1586 1.327 . S
C1587 C1591 1.429 . S
C1588 C1571 1.574 . S
C1588 H1582 0.949 . S
C1588 C1592 1.368 . S
C1589 C1570 1.429 . S
C1589 C1583 1.429 . S
C1589 C1590 1.523 . S
C1590 C1571 1.368 . S
C1590 C1584 1.368 . S
C1590 C1589 1.523 . S
C1591 C1575 1.429 . S
C1591 C1587 1.429 . S
C1591 C1592 1.523 . S
C1592 C1576 1.368 . S
C1592 C1588 1.368 . S
C1592 C1591 1.523 . S
H1593 C1568 0.950 . S
H1594 C1570 0.950 . S
H1595 C1571 0.949 . S
H1596 C1573 0.950 . S
H1597 C1575 0.950 . S
C1598 C1599 1.349 . S
C1598 C1600 1.327 . S
C1598 H1623 0.950 . S
C1599 C1598 1.349 . S
C1599 C1615 1.349 . S
C1600 C1598 1.327 . S
C1600 C1619 1.429 . S
C1600 H1624 0.950 . S
C1601 C1618 1.574 . S
C1601 C1620 1.368 . S
C1601 H1625 0.949 . S
H1602 C1606 0.949 . S
C1603 C1604 1.349 1_545 S
C1603 C1605 1.327 . S
C1603 H1626 0.950 . S
C1604 C1603 1.349 1_565 S
C1604 C1616 1.349 . S
C1605 C1603 1.327 . S
C1605 C1621 1.429 1_545 S
C1605 H1627 0.950 . S
C1606 H1602 0.949 . S
C1606 C1614 1.574 1_565 S
C1606 C1622 1.368 1_565 S
H1607 C1615 0.950 . S
H1608 C1613 0.950 . S
H1609 C1614 0.949 1_565 S
H1610 C1616 0.950 . S
H1611 C1617 0.950 . S
H1612 C1618 0.949 . S
C1613 H1608 0.950 . S
C1613 C1615 1.327 . S
C1613 C1619 1.429 . S
C1614 C1606 1.574 1_545 S
C1614 H1609 0.949 1_545 S
C1614 C1620 1.368 . S
C1615 C1599 1.349 . S
C1615 H1607 0.950 . S
C1615 C1613 1.327 . S
C1616 C1604 1.349 . S
C1616 H1610 0.950 . S
C1616 C1617 1.327 . S
C1617 H1611 0.950 . S
C1617 C1616 1.327 . S
C1617 C1621 1.428 . S
C1618 C1601 1.574 . S
C1618 H1612 0.949 . S
C1618 C1622 1.368 . S
C1619 C1600 1.429 . S
C1619 C1613 1.429 . S
C1619 C1620 1.523 . S
C1620 C1601 1.368 . S
C1620 C1614 1.368 . S
C1620 C1619 1.523 . S
C1621 C1605 1.429 1_565 S
C1621 C1617 1.428 . S
C1621 C1622 1.523 1_565 S
C1622 C1606 1.368 1_545 S
C1622 C1618 1.368 . S
C1622 C1621 1.523 1_545 S
H1623 C1598 0.950 . S
H1624 C1600 0.950 . S
H1625 C1601 0.949 . S
H1626 C1603 0.950 . S
H1627 C1605 0.950 . S
C1628 C1629 1.349 . S
C1628 C1630 1.327 . S
C1628 H1653 0.950 . S
C1629 C1628 1.349 . S
C1629 C1645 1.349 . S
C1630 C1628 1.327 . S
C1630 C1649 1.429 . S
C1630 H1654 0.950 . S
C1631 C1648 1.574 . S
C1631 C1650 1.368 . S
C1631 H1655 0.949 . S
H1632 C1636 0.949 . S
C1633 C1634 1.349 . S
C1633 C1635 1.327 . S
C1633 H1656 0.950 . S
C1634 C1633 1.349 . S
C1634 C1646 1.349 . S
C1635 C1633 1.327 . S
C1635 C1651 1.429 . S
C1635 H1657 0.950 . S
C1636 H1632 0.949 . S
C1636 C1644 1.574 . S
C1636 C1652 1.368 . S
H1637 C1645 0.950 . S
H1638 C1643 0.950 . S
H1639 C1644 0.949 . S
H1640 C1646 0.950 . S
H1641 C1647 0.950 . S
H1642 C1648 0.949 . S
C1643 H1638 0.950 . S
C1643 C1645 1.327 . S
C1643 C1649 1.429 . S
C1644 C1636 1.574 . S
C1644 H1639 0.949 . S
C1644 C1650 1.368 . S
C1645 C1629 1.349 . S
C1645 H1637 0.950 . S
C1645 C1643 1.327 . S
C1646 C1634 1.349 . S
C1646 H1640 0.950 . S
C1646 C1647 1.327 . S
C1647 H1641 0.950 . S
C1647 C1646 1.327 . S
C1647 C1651 1.429 . S
C1648 C1631 1.574 . S
C1648 H1642 0.949 . S
C1648 C1652 1.368 . S
C1649 C1630 1.429 . S
C1649 C1643 1.429 . S
C1649 C1650 1.523 . S
C1650 C1631 1.368 . S
C1650 C1644 1.368 . S
C1650 C1649 1.523 . S
C1651 C1635 1.429 . S
C1651 C1647 1.429 . S
C1651 C1652 1.523 . S
C1652 C1636 1.368 . S
C1652 C1648 1.368 . S
C1652 C1651 1.523 . S
H1653 C1628 0.950 . S
H1654 C1630 0.950 . S
H1655 C1631 0.949 . S
H1656 C1633 0.950 . S
H1657 C1635 0.950 . S
C1658 C1659 1.349 . S
C1658 C1660 1.327 . S
C1658 H1683 0.950 . S
C1659 C1658 1.349 . S
C1659 C1675 1.349 . S
C1660 C1658 1.327 . S
C1660 C1679 1.429 . S
C1660 H1684 0.950 . S
C1661 C1678 1.574 . S
C1661 C1680 1.368 . S
C1661 H1685 0.949 . S
H1662 C1666 0.949 . S
C1663 C1664 1.349 1_565 S
C1663 C1665 1.327 . S
C1663 H1686 0.950 . S
C1664 C1663 1.349 1_545 S
C1664 C1676 1.349 . S
C1665 C1663 1.327 . S
C1665 C1681 1.429 1_565 S
C1665 H1687 0.950 . S
C1666 H1662 0.949 . S
C1666 C1674 1.574 1_545 S
C1666 C1682 1.368 1_445 S
H1667 C1675 0.950 . S
H1668 C1673 0.950 . S
H1669 C1674 0.949 1_545 S
H1670 C1676 0.950 . S
H1671 C1677 0.950 . S
H1672 C1678 0.949 1_655 S
C1673 H1668 0.950 . S
C1673 C1675 1.327 . S
C1673 C1679 1.429 . S
C1674 C1666 1.574 1_565 S
C1674 H1669 0.949 1_565 S
C1674 C1680 1.368 . S
C1675 C1659 1.349 . S
C1675 H1667 0.950 . S
C1675 C1673 1.327 . S
C1676 C1664 1.349 . S
C1676 H1670 0.950 . S
C1676 C1677 1.327 . S
C1677 H1671 0.950 . S
C1677 C1676 1.327 . S
C1677 C1681 1.427 . S
C1678 C1661 1.574 . S
C1678 H1672 0.949 1_455 S
C1678 C1682 1.368 1_455 S
C1679 C1660 1.429 . S
C1679 C1673 1.429 . S
C1679 C1680 1.523 . S
C1680 C1661 1.368 . S
C1680 C1674 1.368 . S
C1680 C1679 1.523 . S
C1681 C1665 1.429 1_545 S
C1681 C1677 1.427 . S
C1681 C1682 1.523 1_545 S
C1682 C1666 1.368 1_665 S
C1682 C1678 1.368 1_655 S
C1682 C1681 1.523 1_565 S
H1683 C1658 0.950 . S
H1684 C1660 0.950 . S
H1685 C1661 0.949 . S
H1686 C1663 0.950 . S
H1687 C1665 0.950 . S
C1688 C1689 1.349 . S
C1688 C1690 1.327 . S
C1688 H1713 0.950 . S
C1689 C1688 1.349 . S
C1689 C1705 1.349 . S
C1690 C1688 1.327 . S
C1690 C1709 1.429 . S
C1690 H1714 0.950 . S
C1691 C1708 1.574 . S
C1691 C1710 1.368 . S
C1691 H1715 0.949 . S
H1692 C1696 0.949 . S
C1693 C1694 1.349 . S
C1693 C1695 1.327 . S
C1693 H1716 0.950 . S
C1694 C1693 1.349 . S
C1694 C1706 1.349 . S
C1695 C1693 1.327 . S
C1695 C1711 1.429 . S
C1695 H1717 0.950 . S
C1696 H1692 0.949 . S
C1696 C1704 1.574 . S
C1696 C1712 1.368 . S
H1697 C1705 0.950 . S
H1698 C1703 0.950 . S
H1699 C1704 0.949 . S
H1700 C1706 0.950 . S
H1701 C1707 0.950 . S
H1702 C1708 0.949 . S
C1703 H1698 0.950 . S
C1703 C1705 1.327 . S
C1703 C1709 1.429 . S
C1704 C1696 1.574 . S
C1704 H1699 0.949 . S
C1704 C1710 1.368 . S
C1705 C1689 1.349 . S
C1705 H1697 0.950 . S
C1705 C1703 1.327 . S
C1706 C1694 1.349 . S
C1706 H1700 0.950 . S
C1706 C1707 1.327 . S
C1707 H1701 0.950 . S
C1707 C1706 1.327 . S
C1707 C1711 1.429 . S
C1708 C1691 1.574 . S
C1708 H1702 0.949 . S
C1708 C1712 1.368 . S
C1709 C1690 1.429 . S
C1709 C1703 1.429 . S
C1709 C1710 1.523 . S
C1710 C1691 1.368 . S
C1710 C1704 1.368 . S
C1710 C1709 1.523 . S
C1711 C1695 1.429 . S
C1711 C1707 1.429 . S
C1711 C1712 1.523 . S
C1712 C1696 1.368 . S
C1712 C1708 1.368 . S
C1712 C1711 1.523 . S
H1713 C1688 0.950 . S
H1714 C1690 0.950 . S
H1715 C1691 0.949 . S
H1716 C1693 0.950 . S
H1717 C1695 0.950 . S
C1718 C1719 1.349 . S
C1718 C1720 1.327 . S
C1718 H1743 0.950 . S
C1719 C1718 1.349 . S
C1719 C1735 1.349 1_565 S
C1720 C1718 1.327 . S
C1720 C1739 1.427 . S
C1720 H1744 0.950 . S
C1721 C1738 1.574 . S
C1721 C1740 1.368 1_455 S
C1721 H1745 0.949 1_455 S
H1722 C1726 0.949 1_565 S
C1723 C1724 1.349 . S
C1723 C1725 1.327 . S
C1723 H1746 0.950 . S
C1724 C1723 1.349 . S
C1724 C1736 1.349 . S
C1725 C1723 1.327 . S
C1725 C1741 1.429 . S
C1725 H1747 0.950 . S
C1726 H1722 0.949 1_545 S
C1726 C1734 1.574 1_545 S
C1726 C1742 1.368 . S
H1727 C1735 0.950 . S
H1728 C1733 0.950 . S
H1729 C1734 0.949 . S
H1730 C1736 0.950 . S
H1731 C1737 0.950 . S
H1732 C1738 0.949 . S
C1733 H1728 0.950 . S
C1733 C1735 1.327 . S
C1733 C1739 1.429 1_545 S
C1734 C1726 1.574 1_565 S
C1734 H1729 0.949 . S
C1734 C1740 1.368 1_465 S
C1735 C1719 1.349 1_545 S
C1735 H1727 0.950 . S
C1735 C1733 1.327 . S
C1736 C1724 1.349 . S
C1736 H1730 0.950 . S
C1736 C1737 1.327 . S
C1737 H1731 0.950 . S
C1737 C1736 1.327 . S
C1737 C1741 1.429 . S
C1738 C1721 1.574 . S
C1738 H1732 0.949 . S
C1738 C1742 1.368 . S
C1739 C1720 1.427 . S
C1739 C1733 1.429 1_565 S
C1739 C1740 1.523 1_565 S
C1740 C1721 1.368 1_655 S
C1740 C1734 1.368 1_645 S
C1740 C1739 1.523 1_545 S
C1741 C1725 1.429 . S
C1741 C1737 1.429 . S
C1741 C1742 1.523 . S
C1742 C1726 1.368 . S
C1742 C1738 1.368 . S
C1742 C1741 1.523 . S
H1743 C1718 0.950 . S
H1744 C1720 0.950 . S
H1745 C1721 0.949 1_655 S
H1746 C1723 0.950 . S
H1747 C1725 0.950 . S
C1748 C1749 1.349 . S
C1748 C1750 1.327 . S
C1748 H1773 0.950 . S
C1749 C1748 1.349 . S
C1749 C1765 1.349 . S
C1750 C1748 1.327 . S
C1750 C1769 1.429 . S
C1750 H1774 0.950 . S
C1751 C1768 1.574 . S
C1751 C1770 1.368 . S
C1751 H1775 0.949 . S
H1752 C1756 0.949 . S
C1753 C1754 1.349 . S
C1753 C1755 1.327 . S
C1753 H1776 0.950 . S
C1754 C1753 1.349 . S
C1754 C1766 1.349 . S
C1755 C1753 1.327 . S
C1755 C1771 1.429 . S
C1755 H1777 0.950 . S
C1756 H1752 0.949 . S
C1756 C1764 1.574 . S
C1756 C1772 1.368 . S
H1757 C1765 0.950 . S
H1758 C1763 0.950 . S
H1759 C1764 0.949 . S
H1760 C1766 0.950 . S
H1761 C1767 0.950 . S
H1762 C1768 0.949 . S
C1763 H1758 0.950 . S
C1763 C1765 1.327 . S
C1763 C1769 1.429 . S
C1764 C1756 1.574 . S
C1764 H1759 0.949 . S
C1764 C1770 1.368 . S
C1765 C1749 1.349 . S
C1765 H1757 0.950 . S
C1765 C1763 1.327 . S
C1766 C1754 1.349 . S
C1766 H1760 0.950 . S
C1766 C1767 1.327 . S
C1767 H1761 0.950 . S
C1767 C1766 1.327 . S
C1767 C1771 1.429 . S
C1768 C1751 1.574 . S
C1768 H1762 0.949 . S
C1768 C1772 1.368 . S
C1769 C1750 1.429 . S
C1769 C1763 1.429 . S
C1769 C1770 1.523 . S
C1770 C1751 1.368 . S
C1770 C1764 1.368 . S
C1770 C1769 1.523 . S
C1771 C1755 1.429 . S
C1771 C1767 1.429 . S
C1771 C1772 1.523 . S
C1772 C1756 1.368 . S
C1772 C1768 1.368 . S
C1772 C1771 1.523 . S
H1773 C1748 0.950 . S
H1774 C1750 0.950 . S
H1775 C1751 0.949 . S
H1776 C1753 0.950 . S
H1777 C1755 0.950 . S
C1778 C1779 1.349 . S
C1778 C1780 1.327 . S
C1778 H1803 0.950 . S
C1779 C1778 1.349 . S
C1779 C1795 1.349 . S
C1780 C1778 1.327 . S
C1780 C1799 1.429 . S
C1780 H1804 0.950 . S
C1781 C1798 1.574 . S
C1781 C1800 1.368 . S
C1781 H1805 0.949 . S
H1782 C1786 0.949 . S
C1783 C1784 1.349 1_565 S
C1783 C1785 1.327 . S
C1783 H1806 0.950 . S
C1784 C1783 1.349 1_545 S
C1784 C1796 1.349 . S
C1785 C1783 1.327 . S
C1785 C1801 1.429 1_565 S
C1785 H1807 0.950 . S
C1786 H1782 0.949 . S
C1786 C1794 1.574 1_545 S
C1786 C1802 1.368 1_545 S
H1787 C1795 0.950 . S
H1788 C1793 0.950 . S
H1789 C1794 0.949 1_545 S
H1790 C1796 0.950 . S
H1791 C1797 0.950 . S
H1792 C1798 0.949 . S
C1793 H1788 0.950 . S
C1793 C1795 1.327 . S
C1793 C1799 1.429 . S
C1794 C1786 1.574 1_565 S
C1794 H1789 0.949 1_565 S
C1794 C1800 1.368 . S
C1795 C1779 1.349 . S
C1795 H1787 0.950 . S
C1795 C1793 1.327 . S
C1796 C1784 1.349 . S
C1796 H1790 0.950 . S
C1796 C1797 1.327 . S
C1797 H1791 0.950 . S
C1797 C1796 1.327 . S
C1797 C1801 1.428 . S
C1798 C1781 1.574 . S
C1798 H1792 0.949 . S
C1798 C1802 1.368 . S
C1799 C1780 1.429 . S
C1799 C1793 1.429 . S
C1799 C1800 1.523 . S
C1800 C1781 1.368 . S
C1800 C1794 1.368 . S
C1800 C1799 1.523 . S
C1801 C1785 1.429 1_545 S
C1801 C1797 1.428 . S
C1801 C1802 1.523 1_545 S
C1802 C1786 1.368 1_565 S
C1802 C1798 1.368 . S
C1802 C1801 1.523 1_565 S
H1803 C1778 0.950 . S
H1804 C1780 0.950 . S
H1805 C1781 0.949 . S
H1806 C1783 0.950 . S
H1807 C1785 0.950 . S
C1808 C1809 1.349 . S
C1808 C1810 1.327 . S
C1808 H1833 0.950 . S
C1809 C1808 1.349 . S
C1809 C1825 1.349 . S
C1810 C1808 1.327 . S
C1810 C1829 1.429 . S
C1810 H1834 0.950 . S
C1811 C1828 1.574 . S
C1811 C1830 1.368 . S
C1811 H1835 0.949 . S
H1812 C1816 0.949 . S
C1813 C1814 1.349 . S
C1813 C1815 1.327 . S
C1813 H1836 0.950 . S
C1814 C1813 1.349 . S
C1814 C1826 1.349 . S
C1815 C1813 1.327 . S
C1815 C1831 1.429 . S
C1815 H1837 0.950 . S
C1816 H1812 0.949 . S
C1816 C1824 1.574 . S
C1816 C1832 1.368 . S
H1817 C1825 0.950 . S
H1818 C1823 0.950 . S
H1819 C1824 0.949 . S
H1820 C1826 0.950 . S
H1821 C1827 0.950 . S
H1822 C1828 0.949 . S
C1823 H1818 0.950 . S
C1823 C1825 1.327 . S
C1823 C1829 1.429 . S
C1824 C1816 1.574 . S
C1824 H1819 0.949 . S
C1824 C1830 1.368 . S
C1825 C1809 1.349 . S
C1825 H1817 0.950 . S
C1825 C1823 1.327 . S
C1826 C1814 1.349 . S
C1826 H1820 0.950 . S
C1826 C1827 1.327 . S
C1827 H1821 0.950 . S
C1827 C1826 1.327 . S
C1827 C1831 1.429 . S
C1828 C1811 1.574 . S
C1828 H1822 0.949 . S
C1828 C1832 1.368 . S
C1829 C1810 1.429 . S
C1829 C1823 1.429 . S
C1829 C1830 1.523 . S
C1830 C1811 1.368 . S
C1830 C1824 1.368 . S
C1830 C1829 1.523 . S
C1831 C1815 1.429 . S
C1831 C1827 1.429 . S
C1831 C1832 1.523 . S
C1832 C1816 1.368 . S
C1832 C1828 1.368 . S
C1832 C1831 1.523 . S
H1833 C1808 0.950 . S
H1834 C1810 0.950 . S
H1835 C1811 0.949 . S
H1836 C1813 0.950 . S
H1837 C1815 0.950 . S
C1838 C1839 1.349 . S
C1838 C1840 1.327 . S
C1838 H1863 0.950 . S
C1839 C1838 1.349 . S
C1839 C1855 1.349 . S
C1840 C1838 1.327 . S
C1840 C1859 1.429 . S
C1840 H1864 0.950 . S
C1841 C1858 1.574 . S
C1841 C1860 1.368 . S
C1841 H1865 0.949 . S
H1842 C1846 0.949 . S
C1843 C1844 1.349 1_565 S
C1843 C1845 1.327 . S
C1843 H1866 0.950 . S
C1844 C1843 1.349 1_545 S
C1844 C1856 1.349 . S
C1845 C1843 1.327 . S
C1845 C1861 1.429 1_565 S
C1845 H1867 0.950 . S
C1846 H1842 0.949 . S
C1846 C1854 1.574 1_545 S
C1846 C1862 1.368 1_545 S
H1847 C1855 0.950 . S
H1848 C1853 0.950 . S
H1849 C1854 0.949 1_545 S
H1850 C1856 0.950 . S
H1851 C1857 0.950 . S
H1852 C1858 0.949 . S
C1853 H1848 0.950 . S
C1853 C1855 1.327 . S
C1853 C1859 1.429 . S
C1854 C1846 1.574 1_565 S
C1854 H1849 0.949 1_565 S
C1854 C1860 1.368 . S
C1855 C1839 1.349 . S
C1855 H1847 0.950 . S
C1855 C1853 1.327 . S
C1856 C1844 1.349 . S
C1856 H1850 0.950 . S
C1856 C1857 1.327 . S
C1857 H1851 0.950 . S
C1857 C1856 1.327 . S
C1857 C1861 1.428 . S
C1858 C1841 1.574 . S
C1858 H1852 0.949 . S
C1858 C1862 1.368 . S
C1859 C1840 1.429 . S
C1859 C1853 1.429 . S
C1859 C1860 1.523 . S
C1860 C1841 1.368 . S
C1860 C1854 1.368 . S
C1860 C1859 1.523 . S
C1861 C1845 1.429 1_545 S
C1861 C1857 1.428 . S
C1861 C1862 1.523 1_545 S
C1862 C1846 1.368 1_565 S
C1862 C1858 1.368 . S
C1862 C1861 1.523 1_565 S
H1863 C1838 0.950 . S
H1864 C1840 0.950 . S
H1865 C1841 0.949 . S
H1866 C1843 0.950 . S
H1867 C1845 0.950 . S
C1868 C1869 1.349 . S
C1868 C1870 1.327 . S
C1868 H1893 0.950 . S
C1869 C1868 1.349 . S
C1869 C1885 1.349 . S
C1870 C1868 1.327 . S
C1870 C1889 1.429 . S
C1870 H1894 0.950 . S
C1871 C1888 1.574 . S
C1871 C1890 1.368 . S
C1871 H1895 0.949 . S
H1872 C1876 0.949 . S
C1873 C1874 1.349 . S
C1873 C1875 1.327 . S
C1873 H1896 0.950 . S
C1874 C1873 1.349 . S
C1874 C1886 1.349 . S
C1875 C1873 1.327 . S
C1875 C1891 1.429 . S
C1875 H1897 0.950 . S
C1876 H1872 0.949 . S
C1876 C1884 1.574 . S
C1876 C1892 1.368 . S
H1877 C1885 0.950 . S
H1878 C1883 0.950 . S
H1879 C1884 0.949 . S
H1880 C1886 0.950 . S
H1881 C1887 0.950 . S
H1882 C1888 0.949 . S
C1883 H1878 0.950 . S
C1883 C1885 1.327 . S
C1883 C1889 1.429 . S
C1884 C1876 1.574 . S
C1884 H1879 0.949 . S
C1884 C1890 1.368 . S
C1885 C1869 1.349 . S
C1885 H1877 0.950 . S
C1885 C1883 1.327 . S
C1886 C1874 1.349 . S
C1886 H1880 0.950 . S
C1886 C1887 1.327 . S
C1887 H1881 0.950 . S
C1887 C1886 1.327 . S
C1887 C1891 1.429 . S
C1888 C1871 1.574 . S
C1888 H1882 0.949 . S
C1888 C1892 1.368 . S
C1889 C1870 1.429 . S
C1889 C1883 1.429 . S
C1889 C1890 1.523 . S
C1890 C1871 1.368 . S
C1890 C1884 1.368 . S
C1890 C1889 1.523 . S
C1891 C1875 1.429 . S
C1891 C1887 1.429 . S
C1891 C1892 1.523 . S
C1892 C1876 1.368 . S
C1892 C1888 1.368 . S
C1892 C1891 1.523 . S
H1893 C1868 0.950 . S
H1894 C1870 0.950 . S
H1895 C1871 0.949 . S
H1896 C1873 0.950 . S
H1897 C1875 0.950 . S
C1898 C1899 1.349 . S
C1898 C1900 1.327 . S
C1898 H1923 0.950 . S
C1899 C1898 1.349 . S
C1899 C1915 1.349 1_565 S
C1900 C1898 1.327 . S
C1900 C1919 1.427 . S
C1900 H1924 0.950 . S
C1901 C1918 1.574 . S
C1901 C1920 1.368 1_655 S
C1901 H1925 0.949 1_655 S
H1902 C1906 0.949 1_565 S
C1903 C1904 1.349 . S
C1903 C1905 1.327 . S
C1903 H1926 0.950 . S
C1904 C1903 1.349 . S
C1904 C1916 1.349 . S
C1905 C1903 1.327 . S
C1905 C1921 1.429 . S
C1905 H1927 0.950 . S
C1906 H1902 0.949 1_545 S
C1906 C1914 1.574 1_545 S
C1906 C1922 1.368 . S
H1907 C1915 0.950 . S
H1908 C1913 0.950 . S
H1909 C1914 0.949 . S
H1910 C1916 0.950 . S
H1911 C1917 0.950 . S
H1912 C1918 0.949 . S
C1913 H1908 0.950 . S
C1913 C1915 1.327 . S
C1913 C1919 1.429 1_545 S
C1914 C1906 1.574 1_565 S
C1914 H1909 0.949 . S
C1914 C1920 1.368 1_665 S
C1915 C1899 1.349 1_545 S
C1915 H1907 0.950 . S
C1915 C1913 1.327 . S
C1916 C1904 1.349 . S
C1916 H1910 0.950 . S
C1916 C1917 1.327 . S
C1917 H1911 0.950 . S
C1917 C1916 1.327 . S
C1917 C1921 1.429 . S
C1918 C1901 1.574 . S
C1918 H1912 0.949 . S
C1918 C1922 1.368 . S
C1919 C1900 1.427 . S
C1919 C1913 1.429 1_565 S
C1919 C1920 1.523 1_565 S
C1920 C1901 1.368 1_455 S
C1920 C1914 1.368 1_445 S
C1920 C1919 1.523 1_545 S
C1921 C1905 1.429 . S
C1921 C1917 1.429 . S
C1921 C1922 1.523 . S
C1922 C1906 1.368 . S
C1922 C1918 1.368 . S
C1922 C1921 1.523 . S
H1923 C1898 0.950 . S
H1924 C1900 0.950 . S
H1925 C1901 0.949 1_455 S
H1926 C1903 0.950 . S
H1927 C1905 0.950 . S
C1928 C1929 1.349 . S
C1928 C1930 1.327 . S
C1928 H1953 0.950 . S
C1929 C1928 1.349 . S
C1929 C1945 1.349 . S
C1930 C1928 1.327 . S
C1930 C1949 1.429 . S
C1930 H1954 0.950 . S
C1931 C1948 1.574 . S
C1931 C1950 1.368 . S
C1931 H1955 0.949 . S
H1932 C1936 0.949 . S
C1933 C1934 1.349 . S
C1933 C1935 1.327 . S
C1933 H1956 0.950 . S
C1934 C1933 1.349 . S
C1934 C1946 1.349 . S
C1935 C1933 1.327 . S
C1935 C1951 1.429 . S
C1935 H1957 0.950 . S
C1936 H1932 0.949 . S
C1936 C1944 1.574 . S
C1936 C1952 1.368 . S
H1937 C1945 0.950 . S
H1938 C1943 0.950 . S
H1939 C1944 0.949 . S
H1940 C1946 0.950 . S
H1941 C1947 0.950 . S
H1942 C1948 0.949 . S
C1943 H1938 0.950 . S
C1943 C1945 1.327 . S
C1943 C1949 1.429 . S
C1944 C1936 1.574 . S
C1944 H1939 0.949 . S
C1944 C1950 1.368 . S
C1945 C1929 1.349 . S
C1945 H1937 0.950 . S
C1945 C1943 1.327 . S
C1946 C1934 1.349 . S
C1946 H1940 0.950 . S
C1946 C1947 1.327 . S
C1947 H1941 0.950 . S
C1947 C1946 1.327 . S
C1947 C1951 1.429 . S
C1948 C1931 1.574 . S
C1948 H1942 0.949 . S
C1948 C1952 1.368 . S
C1949 C1930 1.429 . S
C1949 C1943 1.429 . S
C1949 C1950 1.523 . S
C1950 C1931 1.368 . S
C1950 C1944 1.368 . S
C1950 C1949 1.523 . S
C1951 C1935 1.429 . S
C1951 C1947 1.429 . S
C1951 C1952 1.523 . S
C1952 C1936 1.368 . S
C1952 C1948 1.368 . S
C1952 C1951 1.523 . S
H1953 C1928 0.950 . S
H1954 C1930 0.950 . S
H1955 C1931 0.949 . S
H1956 C1933 0.950 . S
H1957 C1935 0.950 . S
C1958 C1959 1.349 . S
C1958 C1960 1.327 . S
C1958 H1983 0.950 . S
C1959 C1958 1.349 . S
C1959 C1975 1.349 . S
C1960 C1958 1.327 . S
C1960 C1979 1.429 . S
C1960 H1984 0.950 . S
C1961 C1978 1.573 1_565 S
C1961 C1980 1.372 . S
C1961 H1985 0.947 1_565 S
H1962 C1966 0.949 1_455 S
C1963 C1964 1.349 . S
C1963 C1965 1.327 . S
C1963 H1986 0.950 . S
C1964 C1963 1.349 . S
C1964 C1976 1.349 1_545 S
C1965 C1963 1.327 . S
C1965 C1981 1.427 . S
C1965 H1987 0.950 . S
C1966 H1962 0.949 1_655 S
C1966 C1974 1.574 . S
C1966 C1982 1.368 1_655 S
H1967 C1975 0.950 . S
H1968 C1973 0.950 . S
H1969 C1974 0.949 . S
H1970 C1976 0.950 . S
H1971 C1977 0.950 . S
H1972 C1978 0.949 . S
C1973 H1968 0.950 . S
C1973 C1975 1.327 . S
C1973 C1979 1.429 . S
C1974 C1966 1.574 . S
C1974 H1969 0.949 . S
C1974 C1980 1.368 . S
C1975 C1959 1.349 . S
C1975 H1967 0.950 . S
C1975 C1973 1.327 . S
C1976 C1964 1.349 1_565 S
C1976 H1970 0.950 . S
C1976 C1977 1.327 . S
C1977 H1971 0.950 . S
C1977 C1976 1.327 . S
C1977 C1981 1.429 1_565 S
C1978 C1961 1.573 1_545 S
C1978 H1972 0.949 . S
C1978 C1982 1.368 1_645 S
C1979 C1960 1.429 . S
C1979 C1973 1.429 . S
C1979 C1980 1.523 . S
C1980 C1961 1.372 . S
C1980 C1974 1.368 . S
C1980 C1979 1.523 . S
C1981 C1965 1.427 . S
C1981 C1977 1.429 1_545 S
C1981 C1982 1.523 1_545 S
C1982 C1966 1.368 1_455 S
C1982 C1978 1.368 1_465 S
C1982 C1981 1.523 1_565 S
H1983 C1958 0.950 . S
H1984 C1960 0.950 . S
H1985 C1961 0.947 1_545 S
H1986 C1963 0.950 . S
H1987 C1965 0.950 . S
C1988 C1989 1.349 . S
C1988 C1990 1.327 . S
C1988 H2013 0.950 . S
C1989 C1988 1.349 . S
C1989 C2005 1.349 . S
C1990 C1988 1.327 . S
C1990 C2009 1.429 . S
C1990 H2014 0.950 . S
C1991 C2008 1.574 . S
C1991 C2010 1.368 . S
C1991 H2015 0.949 . S
H1992 C1996 0.949 . S
C1993 C1994 1.349 . S
C1993 C1995 1.327 . S
C1993 H2016 0.950 . S
C1994 C1993 1.349 . S
C1994 C2006 1.349 . S
C1995 C1993 1.327 . S
C1995 C2011 1.429 . S
C1995 H2017 0.950 . S
C1996 H1992 0.949 . S
C1996 C2004 1.574 . S
C1996 C2012 1.368 . S
H1997 C2005 0.950 . S
H1998 C2003 0.950 . S
H1999 C2004 0.949 . S
H2000 C2006 0.950 . S
H2001 C2007 0.950 . S
H2002 C2008 0.949 . S
C2003 H1998 0.950 . S
C2003 C2005 1.327 . S
C2003 C2009 1.429 . S
C2004 C1996 1.574 . S
C2004 H1999 0.949 . S
C2004 C2010 1.368 . S
C2005 C1989 1.349 . S
C2005 H1997 0.950 . S
C2005 C2003 1.327 . S
C2006 C1994 1.349 . S
C2006 H2000 0.950 . S
C2006 C2007 1.327 . S
C2007 H2001 0.950 . S
C2007 C2006 1.327 . S
C2007 C2011 1.429 . S
C2008 C1991 1.574 . S
C2008 H2002 0.949 . S
C2008 C2012 1.368 . S
C2009 C1990 1.429 . S
C2009 C2003 1.429 . S
C2009 C2010 1.523 . S
C2010 C1991 1.368 . S
C2010 C2004 1.368 . S
C2010 C2009 1.523 . S
C2011 C1995 1.429 . S
C2011 C2007 1.429 . S
C2011 C2012 1.523 . S
C2012 C1996 1.368 . S
C2012 C2008 1.368 . S
C2012 C2011 1.523 . S
H2013 C1988 0.950 . S
H2014 C1990 0.950 . S
H2015 C1991 0.949 . S
H2016 C1993 0.950 . S
H2017 C1995 0.950 . S
C2018 C2019 1.349 . S
C2018 C2020 1.327 . S
C2018 H2043 0.950 . S
C2019 C2018 1.349 . S
C2019 C2035 1.349 1_565 S
C2020 C2018 1.327 . S
C2020 C2039 1.428 . S
C2020 H2044 0.950 . S
C2021 C2038 1.574 . S
C2021 C2040 1.368 . S
C2021 H2045 0.949 . S
H2022 C2026 0.949 1_565 S
C2023 C2024 1.349 . S
C2023 C2025 1.327 . S
C2023 H2046 0.950 . S
C2024 C2023 1.349 . S
C2024 C2036 1.349 . S
C2025 C2023 1.327 . S
C2025 C2041 1.429 . S
C2025 H2047 0.950 . S
C2026 H2022 0.949 1_545 S
C2026 C2034 1.574 1_545 S
C2026 C2042 1.368 . S
H2027 C2035 0.950 . S
H2028 C2033 0.950 . S
H2029 C2034 0.949 . S
H2030 C2036 0.950 . S
H2031 C2037 0.950 . S
H2032 C2038 0.949 . S
C2033 H2028 0.950 . S
C2033 C2035 1.327 . S
C2033 C2039 1.429 1_545 S
C2034 C2026 1.574 1_565 S
C2034 H2029 0.949 . S
C2034 C2040 1.368 1_565 S
C2035 C2019 1.349 1_545 S
C2035 H2027 0.950 . S
C2035 C2033 1.327 . S
C2036 C2024 1.349 . S
C2036 H2030 0.950 . S
C2036 C2037 1.327 . S
C2037 H2031 0.950 . S
C2037 C2036 1.327 . S
C2037 C2041 1.429 . S
C2038 C2021 1.574 . S
C2038 H2032 0.949 . S
C2038 C2042 1.368 . S
C2039 C2020 1.428 . S
C2039 C2033 1.429 1_565 S
C2039 C2040 1.523 1_565 S
C2040 C2021 1.368 . S
C2040 C2034 1.368 1_545 S
C2040 C2039 1.523 1_545 S
C2041 C2025 1.429 . S
C2041 C2037 1.429 . S
C2041 C2042 1.523 . S
C2042 C2026 1.368 . S
C2042 C2038 1.368 . S
C2042 C2041 1.523 . S
H2043 C2018 0.950 . S
H2044 C2020 0.950 . S
H2045 C2021 0.949 . S
H2046 C2023 0.950 . S
H2047 C2025 0.950 . S
C2048 C2049 1.349 . S
C2048 C2050 1.327 . S
C2048 H2073 0.950 . S
C2049 C2048 1.349 . S
C2049 C2065 1.349 . S
C2050 C2048 1.327 . S
C2050 C2069 1.429 . S
C2050 H2074 0.950 . S
C2051 C2068 1.574 . S
C2051 C2070 1.368 . S
C2051 H2075 0.949 . S
H2052 C2056 0.949 . S
C2053 C2054 1.349 . S
C2053 C2055 1.327 . S
C2053 H2076 0.950 . S
C2054 C2053 1.349 . S
C2054 C2066 1.349 . S
C2055 C2053 1.327 . S
C2055 C2071 1.429 . S
C2055 H2077 0.950 . S
C2056 H2052 0.949 . S
C2056 C2064 1.574 . S
C2056 C2072 1.368 . S
H2057 C2065 0.950 . S
H2058 C2063 0.950 . S
H2059 C2064 0.949 . S
H2060 C2066 0.950 . S
H2061 C2067 0.950 . S
H2062 C2068 0.949 . S
C2063 H2058 0.950 . S
C2063 C2065 1.327 . S
C2063 C2069 1.429 . S
C2064 C2056 1.574 . S
C2064 H2059 0.949 . S
C2064 C2070 1.368 . S
C2065 C2049 1.349 . S
C2065 H2057 0.950 . S
C2065 C2063 1.327 . S
C2066 C2054 1.349 . S
C2066 H2060 0.950 . S
C2066 C2067 1.327 . S
C2067 H2061 0.950 . S
C2067 C2066 1.327 . S
C2067 C2071 1.429 . S
C2068 C2051 1.574 . S
C2068 H2062 0.949 . S
C2068 C2072 1.368 . S
C2069 C2050 1.429 . S
C2069 C2063 1.429 . S
C2069 C2070 1.523 . S
C2070 C2051 1.368 . S
C2070 C2064 1.368 . S
C2070 C2069 1.523 . S
C2071 C2055 1.429 . S
C2071 C2067 1.429 . S
C2071 C2072 1.523 . S
C2072 C2056 1.368 . S
C2072 C2068 1.368 . S
C2072 C2071 1.523 . S
H2073 C2048 0.950 . S
H2074 C2050 0.950 . S
H2075 C2051 0.949 . S
H2076 C2053 0.950 . S
H2077 C2055 0.950 . S
C2078 C2079 1.349 . S
C2078 C2080 1.327 . S
C2078 H2103 0.950 . S
C2079 C2078 1.349 . S
C2079 C2095 1.349 . S
C2080 C2078 1.327 . S
C2080 C2099 1.429 . S
C2080 H2104 0.950 . S
C2081 C2098 1.574 . S
C2081 C2100 1.368 1_655 S
C2081 H2105 0.949 1_655 S
H2082 C2086 0.949 . S
C2083 C2084 1.349 . S
C2083 C2085 1.327 . S
C2083 H2106 0.950 . S
C2084 C2083 1.349 . S
C2084 C2096 1.349 . S
C2085 C2083 1.327 . S
C2085 C2101 1.429 . S
C2085 H2107 0.950 . S
C2086 H2082 0.949 . S
C2086 C2094 1.574 . S
C2086 C2102 1.368 . S
H2087 C2095 0.950 . S
H2088 C2093 0.950 . S
H2089 C2094 0.949 . S
H2090 C2096 0.950 . S
H2091 C2097 0.950 . S
H2092 C2098 0.949 . S
C2093 H2088 0.950 . S
C2093 C2095 1.327 . S
C2093 C2099 1.429 . S
C2094 C2086 1.574 . S
C2094 H2089 0.949 . S
C2094 C2100 1.368 1_655 S
C2095 C2079 1.349 . S
C2095 H2087 0.950 . S
C2095 C2093 1.327 . S
C2096 C2084 1.349 . S
C2096 H2090 0.950 . S
C2096 C2097 1.327 . S
C2097 H2091 0.950 . S
C2097 C2096 1.327 . S
C2097 C2101 1.429 . S
C2098 C2081 1.574 . S
C2098 H2092 0.949 . S
C2098 C2102 1.368 . S
C2099 C2080 1.429 . S
C2099 C2093 1.429 . S
C2099 C2100 1.523 . S
C2100 C2081 1.368 1_455 S
C2100 C2094 1.368 1_455 S
C2100 C2099 1.523 . S
C2101 C2085 1.429 . S
C2101 C2097 1.429 . S
C2101 C2102 1.523 . S
C2102 C2086 1.368 . S
C2102 C2098 1.368 . S
C2102 C2101 1.523 . S
H2103 C2078 0.950 . S
H2104 C2080 0.950 . S
H2105 C2081 0.949 1_455 S
H2106 C2083 0.950 . S
H2107 C2085 0.950 . S
C2108 C2109 1.349 . S
C2108 C2110 1.327 . S
C2108 H2133 0.950 . S
C2109 C2108 1.349 . S
C2109 C2125 1.349 . S
C2110 C2108 1.327 . S
C2110 C2129 1.429 . S
C2110 H2134 0.950 . S
C2111 C2128 1.574 . S
C2111 C2130 1.368 . S
C2111 H2135 0.949 . S
H2112 C2116 0.949 . S
C2113 C2114 1.349 . S
C2113 C2115 1.327 . S
C2113 H2136 0.950 . S
C2114 C2113 1.349 . S
C2114 C2126 1.349 . S
C2115 C2113 1.327 . S
C2115 C2131 1.429 . S
C2115 H2137 0.950 . S
C2116 H2112 0.949 . S
C2116 C2124 1.574 . S
C2116 C2132 1.368 . S
H2117 C2125 0.950 . S
H2118 C2123 0.950 . S
H2119 C2124 0.949 . S
H2120 C2126 0.950 . S
H2121 C2127 0.950 . S
H2122 C2128 0.949 . S
C2123 H2118 0.950 . S
C2123 C2125 1.327 . S
C2123 C2129 1.429 . S
C2124 C2116 1.574 . S
C2124 H2119 0.949 . S
C2124 C2130 1.368 . S
C2125 C2109 1.349 . S
C2125 H2117 0.950 . S
C2125 C2123 1.327 . S
C2126 C2114 1.349 . S
C2126 H2120 0.950 . S
C2126 C2127 1.327 . S
C2127 H2121 0.950 . S
C2127 C2126 1.327 . S
C2127 C2131 1.429 . S
C2128 C2111 1.574 . S
C2128 H2122 0.949 . S
C2128 C2132 1.368 . S
C2129 C2110 1.429 . S
C2129 C2123 1.429 . S
C2129 C2130 1.523 . S
C2130 C2111 1.368 . S
C2130 C2124 1.368 . S
C2130 C2129 1.523 . S
C2131 C2115 1.429 . S
C2131 C2127 1.429 . S
C2131 C2132 1.523 . S
C2132 C2116 1.368 . S
C2132 C2128 1.368 . S
C2132 C2131 1.523 . S
H2133 C2108 0.950 . S
H2134 C2110 0.950 . S
H2135 C2111 0.949 . S
H2136 C2113 0.950 . S
H2137 C2115 0.950 . S
C2138 C2139 1.349 . S
C2138 C2140 1.327 . S
C2138 H2163 0.950 . S
C2139 C2138 1.349 . S
C2139 C2155 1.349 . S
C2140 C2138 1.327 . S
C2140 C2159 1.429 . S
C2140 H2164 0.950 . S
C2141 C2158 1.574 . S
C2141 C2160 1.368 . S
C2141 H2165 0.949 . S
H2142 C2146 0.949 . S
C2143 C2144 1.349 . S
C2143 C2145 1.327 . S
C2143 H2166 0.950 . S
C2144 C2143 1.349 . S
C2144 C2156 1.349 . S
C2145 C2143 1.327 . S
C2145 C2161 1.429 . S
C2145 H2167 0.950 . S
C2146 H2142 0.949 . S
C2146 C2154 1.574 . S
C2146 C2162 1.368 . S
H2147 C2155 0.950 . S
H2148 C2153 0.950 . S
H2149 C2154 0.949 . S
H2150 C2156 0.950 . S
H2151 C2157 0.950 . S
H2152 C2158 0.949 . S
C2153 H2148 0.950 . S
C2153 C2155 1.327 . S
C2153 C2159 1.429 . S
C2154 C2146 1.574 . S
C2154 H2149 0.949 . S
C2154 C2160 1.368 . S
C2155 C2139 1.349 . S
C2155 H2147 0.950 . S
C2155 C2153 1.327 . S
C2156 C2144 1.349 . S
C2156 H2150 0.950 . S
C2156 C2157 1.327 . S
C2157 H2151 0.950 . S
C2157 C2156 1.327 . S
C2157 C2161 1.429 . S
C2158 C2141 1.574 . S
C2158 H2152 0.949 . S
C2158 C2162 1.368 . S
C2159 C2140 1.429 . S
C2159 C2153 1.429 . S
C2159 C2160 1.523 . S
C2160 C2141 1.368 . S
C2160 C2154 1.368 . S
C2160 C2159 1.523 . S
C2161 C2145 1.429 . S
C2161 C2157 1.429 . S
C2161 C2162 1.523 . S
C2162 C2146 1.368 . S
C2162 C2158 1.368 . S
C2162 C2161 1.523 . S
H2163 C2138 0.950 . S
H2164 C2140 0.950 . S
H2165 C2141 0.949 . S
H2166 C2143 0.950 . S
H2167 C2145 0.950 . S
C2168 C2169 1.349 . S
C2168 C2170 1.327 . S
C2168 H2193 0.950 . S
C2169 C2168 1.349 . S
C2169 C2185 1.349 . S
C2170 C2168 1.327 . S
C2170 C2189 1.429 . S
C2170 H2194 0.950 . S
C2171 C2188 1.574 . S
C2171 C2190 1.368 . S
C2171 H2195 0.949 . S
H2172 C2176 0.949 . S
C2173 C2174 1.349 . S
C2173 C2175 1.327 . S
C2173 H2196 0.950 . S
C2174 C2173 1.349 . S
C2174 C2186 1.349 . S
C2175 C2173 1.327 . S
C2175 C2191 1.429 . S
C2175 H2197 0.950 . S
C2176 H2172 0.949 . S
C2176 C2184 1.574 . S
C2176 C2192 1.368 . S
H2177 C2185 0.950 . S
H2178 C2183 0.950 . S
H2179 C2184 0.949 . S
H2180 C2186 0.950 . S
H2181 C2187 0.950 . S
H2182 C2188 0.949 . S
C2183 H2178 0.950 . S
C2183 C2185 1.327 . S
C2183 C2189 1.429 . S
C2184 C2176 1.574 . S
C2184 H2179 0.949 . S
C2184 C2190 1.368 . S
C2185 C2169 1.349 . S
C2185 H2177 0.950 . S
C2185 C2183 1.327 . S
C2186 C2174 1.349 . S
C2186 H2180 0.950 . S
C2186 C2187 1.327 . S
C2187 H2181 0.950 . S
C2187 C2186 1.327 . S
C2187 C2191 1.429 . S
C2188 C2171 1.574 . S
C2188 H2182 0.949 . S
C2188 C2192 1.368 . S
C2189 C2170 1.429 . S
C2189 C2183 1.429 . S
C2189 C2190 1.523 . S
C2190 C2171 1.368 . S
C2190 C2184 1.368 . S
C2190 C2189 1.523 . S
C2191 C2175 1.429 . S
C2191 C2187 1.429 . S
C2191 C2192 1.523 . S
C2192 C2176 1.368 . S
C2192 C2188 1.368 . S
C2192 C2191 1.523 . S
H2193 C2168 0.950 . S
H2194 C2170 0.950 . S
H2195 C2171 0.949 . S
H2196 C2173 0.950 . S
H2197 C2175 0.950 . S
C2198 C2199 1.349 . S
C2198 C2200 1.327 . S
C2198 H2223 0.950 . S
C2199 C2198 1.349 . S
C2199 C2215 1.349 . S
C2200 C2198 1.327 . S
C2200 C2219 1.429 . S
C2200 H2224 0.950 . S
C2201 C2218 1.574 . S
C2201 C2220 1.368 . S
C2201 H2225 0.949 . S
H2202 C2206 0.949 . S
C2203 C2204 1.349 . S
C2203 C2205 1.327 . S
C2203 H2226 0.950 . S
C2204 C2203 1.349 . S
C2204 C2216 1.349 . S
C2205 C2203 1.327 . S
C2205 C2221 1.429 . S
C2205 H2227 0.950 . S
C2206 H2202 0.949 . S
C2206 C2214 1.574 . S
C2206 C2222 1.368 . S
H2207 C2215 0.950 . S
H2208 C2213 0.950 . S
H2209 C2214 0.949 . S
H2210 C2216 0.950 . S
H2211 C2217 0.950 . S
H2212 C2218 0.949 . S
C2213 H2208 0.950 . S
C2213 C2215 1.327 . S
C2213 C2219 1.429 . S
C2214 C2206 1.574 . S
C2214 H2209 0.949 . S
C2214 C2220 1.368 . S
C2215 C2199 1.349 . S
C2215 H2207 0.950 . S
C2215 C2213 1.327 . S
C2216 C2204 1.349 . S
C2216 H2210 0.950 . S
C2216 C2217 1.327 . S
C2217 H2211 0.950 . S
C2217 C2216 1.327 . S
C2217 C2221 1.429 . S
C2218 C2201 1.574 . S
C2218 H2212 0.949 . S
C2218 C2222 1.368 . S
C2219 C2200 1.429 . S
C2219 C2213 1.429 . S
C2219 C2220 1.523 . S
C2220 C2201 1.368 . S
C2220 C2214 1.368 . S
C2220 C2219 1.523 . S
C2221 C2205 1.429 . S
C2221 C2217 1.429 . S
C2221 C2222 1.523 . S
C2222 C2206 1.368 . S
C2222 C2218 1.368 . S
C2222 C2221 1.523 . S
H2223 C2198 0.950 . S
H2224 C2200 0.950 . S
H2225 C2201 0.949 . S
H2226 C2203 0.950 . S
H2227 C2205 0.950 . S
C2228 C2229 1.349 . S
C2228 C2230 1.327 . S
C2228 H2253 0.950 . S
C2229 C2228 1.349 . S
C2229 C2245 1.349 . S
C2230 C2228 1.327 . S
C2230 C2249 1.429 . S
C2230 H2254 0.950 . S
C2231 C2248 1.574 . S
C2231 C2250 1.368 . S
C2231 H2255 0.949 . S
H2232 C2236 0.949 . S
C2233 C2234 1.349 . S
C2233 C2235 1.327 . S
C2233 H2256 0.950 . S
C2234 C2233 1.349 . S
C2234 C2246 1.349 . S
C2235 C2233 1.327 . S
C2235 C2251 1.429 . S
C2235 H2257 0.950 . S
C2236 H2232 0.949 . S
C2236 C2244 1.574 . S
C2236 C2252 1.368 . S
H2237 C2245 0.950 . S
H2238 C2243 0.950 . S
H2239 C2244 0.949 . S
H2240 C2246 0.950 . S
H2241 C2247 0.950 . S
H2242 C2248 0.949 . S
C2243 H2238 0.950 . S
C2243 C2245 1.327 . S
C2243 C2249 1.429 . S
C2244 C2236 1.574 . S
C2244 H2239 0.949 . S
C2244 C2250 1.368 . S
C2245 C2229 1.349 . S
C2245 H2237 0.950 . S
C2245 C2243 1.327 . S
C2246 C2234 1.349 . S
C2246 H2240 0.950 . S
C2246 C2247 1.327 . S
C2247 H2241 0.950 . S
C2247 C2246 1.327 . S
C2247 C2251 1.429 . S
C2248 C2231 1.574 . S
C2248 H2242 0.949 . S
C2248 C2252 1.368 . S
C2249 C2230 1.429 . S
C2249 C2243 1.429 . S
C2249 C2250 1.523 . S
C2250 C2231 1.368 . S
C2250 C2244 1.368 . S
C2250 C2249 1.523 . S
C2251 C2235 1.429 . S
C2251 C2247 1.429 . S
C2251 C2252 1.523 . S
C2252 C2236 1.368 . S
C2252 C2248 1.368 . S
C2252 C2251 1.523 . S
H2253 C2228 0.950 . S
H2254 C2230 0.950 . S
H2255 C2231 0.949 . S
H2256 C2233 0.950 . S
H2257 C2235 0.950 . S
C2258 C2259 1.349 . S
C2258 C2260 1.327 . S
C2258 H2283 0.950 . S
C2259 C2258 1.349 . S
C2259 C2275 1.349 . S
C2260 C2258 1.327 . S
C2260 C2279 1.429 . S
C2260 H2284 0.950 . S
C2261 C2278 1.574 . S
C2261 C2280 1.368 . S
C2261 H2285 0.949 . S
H2262 C2266 0.949 1_455 S
C2263 C2264 1.349 . S
C2263 C2265 1.327 . S
C2263 H2286 0.950 . S
C2264 C2263 1.349 . S
C2264 C2276 1.349 . S
C2265 C2263 1.327 . S
C2265 C2281 1.429 . S
C2265 H2287 0.950 . S
C2266 H2262 0.949 1_655 S
C2266 C2274 1.574 . S
C2266 C2282 1.368 1_655 S
H2267 C2275 0.950 . S
H2268 C2273 0.950 . S
H2269 C2274 0.949 . S
H2270 C2276 0.950 . S
H2271 C2277 0.950 . S
H2272 C2278 0.949 . S
C2273 H2268 0.950 . S
C2273 C2275 1.327 . S
C2273 C2279 1.429 . S
C2274 C2266 1.574 . S
C2274 H2269 0.949 . S
C2274 C2280 1.368 . S
C2275 C2259 1.349 . S
C2275 H2267 0.950 . S
C2275 C2273 1.327 . S
C2276 C2264 1.349 . S
C2276 H2270 0.950 . S
C2276 C2277 1.327 . S
C2277 H2271 0.950 . S
C2277 C2276 1.327 . S
C2277 C2281 1.429 . S
C2278 C2261 1.574 . S
C2278 H2272 0.949 . S
C2278 C2282 1.368 1_655 S
C2279 C2260 1.429 . S
C2279 C2273 1.429 . S
C2279 C2280 1.523 . S
C2280 C2261 1.368 . S
C2280 C2274 1.368 . S
C2280 C2279 1.523 . S
C2281 C2265 1.429 . S
C2281 C2277 1.429 . S
C2281 C2282 1.523 . S
C2282 C2266 1.368 1_455 S
C2282 C2278 1.368 1_455 S
C2282 C2281 1.523 . S
H2283 C2258 0.950 . S
H2284 C2260 0.950 . S
H2285 C2261 0.949 . S
H2286 C2263 0.950 . S
H2287 C2265 0.950 . S
C2288 C2289 1.349 . S
C2288 C2290 1.327 . S
C2288 H2313 0.950 . S
C2289 C2288 1.349 . S
C2289 C2305 1.349 . S
C2290 C2288 1.327 . S
C2290 C2309 1.429 . S
C2290 H2314 0.950 . S
C2291 C2308 1.574 . S
C2291 C2310 1.368 . S
C2291 H2315 0.949 . S
H2292 C2296 0.949 . S
C2293 C2294 1.349 . S
C2293 C2295 1.327 . S
C2293 H2316 0.950 . S
C2294 C2293 1.349 . S
C2294 C2306 1.349 . S
C2295 C2293 1.327 . S
C2295 C2311 1.429 . S
C2295 H2317 0.950 . S
C2296 H2292 0.949 . S
C2296 C2304 1.574 . S
C2296 C2312 1.368 . S
H2297 C2305 0.950 . S
H2298 C2303 0.950 . S
H2299 C2304 0.949 . S
H2300 C2306 0.950 . S
H2301 C2307 0.950 . S
H2302 C2308 0.949 . S
C2303 H2298 0.950 . S
C2303 C2305 1.327 . S
C2303 C2309 1.429 . S
C2304 C2296 1.574 . S
C2304 H2299 0.949 . S
C2304 C2310 1.368 . S
C2305 C2289 1.349 . S
C2305 H2297 0.950 . S
C2305 C2303 1.327 . S
C2306 C2294 1.349 . S
C2306 H2300 0.950 . S
C2306 C2307 1.327 . S
C2307 H2301 0.950 . S
C2307 C2306 1.327 . S
C2307 C2311 1.429 . S
C2308 C2291 1.574 . S
C2308 H2302 0.949 . S
C2308 C2312 1.368 . S
C2309 C2290 1.429 . S
C2309 C2303 1.429 . S
C2309 C2310 1.523 . S
C2310 C2291 1.368 . S
C2310 C2304 1.368 . S
C2310 C2309 1.523 . S
C2311 C2295 1.429 . S
C2311 C2307 1.429 . S
C2311 C2312 1.523 . S
C2312 C2296 1.368 . S
C2312 C2308 1.368 . S
C2312 C2311 1.523 . S
H2313 C2288 0.950 . S
H2314 C2290 0.950 . S
H2315 C2291 0.949 . S
H2316 C2293 0.950 . S
H2317 C2295 0.950 . S
C2318 C2319 1.349 . S
C2318 C2320 1.327 . S
C2318 H2343 0.950 . S
C2319 C2318 1.349 . S
C2319 C2335 1.349 . S
C2320 C2318 1.327 . S
C2320 C2339 1.429 . S
C2320 H2344 0.950 . S
C2321 C2338 1.574 . S
C2321 C2340 1.368 1_455 S
C2321 H2345 0.949 1_455 S
H2322 C2326 0.949 . S
C2323 C2324 1.349 . S
C2323 C2325 1.327 . S
C2323 H2346 0.950 . S
C2324 C2323 1.349 . S
C2324 C2336 1.349 . S
C2325 C2323 1.327 . S
C2325 C2341 1.429 . S
C2325 H2347 0.950 . S
C2326 H2322 0.949 . S
C2326 C2334 1.574 . S
C2326 C2342 1.368 . S
H2327 C2335 0.950 . S
H2328 C2333 0.950 . S
H2329 C2334 0.949 . S
H2330 C2336 0.950 . S
H2331 C2337 0.950 . S
H2332 C2338 0.949 . S
C2333 H2328 0.950 . S
C2333 C2335 1.327 . S
C2333 C2339 1.429 . S
C2334 C2326 1.574 . S
C2334 H2329 0.949 . S
C2334 C2340 1.368 1_455 S
C2335 C2319 1.349 . S
C2335 H2327 0.950 . S
C2335 C2333 1.327 . S
C2336 C2324 1.349 . S
C2336 H2330 0.950 . S
C2336 C2337 1.327 . S
C2337 H2331 0.950 . S
C2337 C2336 1.327 . S
C2337 C2341 1.429 . S
C2338 C2321 1.574 . S
C2338 H2332 0.949 . S
C2338 C2342 1.368 . S
C2339 C2320 1.429 . S
C2339 C2333 1.429 . S
C2339 C2340 1.523 . S
C2340 C2321 1.368 1_655 S
C2340 C2334 1.368 1_655 S
C2340 C2339 1.523 . S
C2341 C2325 1.429 . S
C2341 C2337 1.429 . S
C2341 C2342 1.523 . S
C2342 C2326 1.368 . S
C2342 C2338 1.368 . S
C2342 C2341 1.523 . S
H2343 C2318 0.950 . S
H2344 C2320 0.950 . S
H2345 C2321 0.949 1_655 S
H2346 C2323 0.950 . S
H2347 C2325 0.950 . S
C2348 C2349 1.349 . S
C2348 C2350 1.327 . S
C2348 H2373 0.950 . S
C2349 C2348 1.349 . S
C2349 C2365 1.349 . S
C2350 C2348 1.327 . S
C2350 C2369 1.429 . S
C2350 H2374 0.950 . S
C2351 C2368 1.574 . S
C2351 C2370 1.368 . S
C2351 H2375 0.949 . S
H2352 C2356 0.949 . S
C2353 C2354 1.349 . S
C2353 C2355 1.327 . S
C2353 H2376 0.950 . S
C2354 C2353 1.349 . S
C2354 C2366 1.349 . S
C2355 C2353 1.327 . S
C2355 C2371 1.429 . S
C2355 H2377 0.950 . S
C2356 H2352 0.949 . S
C2356 C2364 1.574 . S
C2356 C2372 1.368 . S
H2357 C2365 0.950 . S
H2358 C2363 0.950 . S
H2359 C2364 0.949 . S
H2360 C2366 0.950 . S
H2361 C2367 0.950 . S
H2362 C2368 0.949 . S
C2363 H2358 0.950 . S
C2363 C2365 1.327 . S
C2363 C2369 1.429 . S
C2364 C2356 1.574 . S
C2364 H2359 0.949 . S
C2364 C2370 1.368 . S
C2365 C2349 1.349 . S
C2365 H2357 0.950 . S
C2365 C2363 1.327 . S
C2366 C2354 1.349 . S
C2366 H2360 0.950 . S
C2366 C2367 1.327 . S
C2367 H2361 0.950 . S
C2367 C2366 1.327 . S
C2367 C2371 1.429 . S
C2368 C2351 1.574 . S
C2368 H2362 0.949 . S
C2368 C2372 1.368 . S
C2369 C2350 1.429 . S
C2369 C2363 1.429 . S
C2369 C2370 1.523 . S
C2370 C2351 1.368 . S
C2370 C2364 1.368 . S
C2370 C2369 1.523 . S
C2371 C2355 1.429 . S
C2371 C2367 1.429 . S
C2371 C2372 1.523 . S
C2372 C2356 1.368 . S
C2372 C2368 1.368 . S
C2372 C2371 1.523 . S
H2373 C2348 0.950 . S
H2374 C2350 0.950 . S
H2375 C2351 0.949 . S
H2376 C2353 0.950 . S
H2377 C2355 0.950 . S
C2378 C2379 1.349 . S
C2378 C2380 1.327 . S
C2378 H2403 0.950 . S
C2379 C2378 1.349 . S
C2379 C2395 1.349 . S
C2380 C2378 1.327 . S
C2380 C2399 1.429 . S
C2380 H2404 0.950 . S
C2381 C2398 1.574 . S
C2381 C2400 1.368 . S
C2381 H2405 0.949 . S
H2382 C2386 0.949 . S
C2383 C2384 1.349 . S
C2383 C2385 1.327 . S
C2383 H2406 0.950 . S
C2384 C2383 1.349 . S
C2384 C2396 1.349 . S
C2385 C2383 1.327 . S
C2385 C2401 1.429 . S
C2385 H2407 0.950 . S
C2386 H2382 0.949 . S
C2386 C2394 1.574 . S
C2386 C2402 1.368 . S
H2387 C2395 0.950 . S
H2388 C2393 0.950 . S
H2389 C2394 0.949 . S
H2390 C2396 0.950 . S
H2391 C2397 0.950 . S
H2392 C2398 0.949 . S
C2393 H2388 0.950 . S
C2393 C2395 1.327 . S
C2393 C2399 1.429 . S
C2394 C2386 1.574 . S
C2394 H2389 0.949 . S
C2394 C2400 1.368 . S
C2395 C2379 1.349 . S
C2395 H2387 0.950 . S
C2395 C2393 1.327 . S
C2396 C2384 1.349 . S
C2396 H2390 0.950 . S
C2396 C2397 1.327 . S
C2397 H2391 0.950 . S
C2397 C2396 1.327 . S
C2397 C2401 1.429 . S
C2398 C2381 1.574 . S
C2398 H2392 0.949 . S
C2398 C2402 1.368 . S
C2399 C2380 1.429 . S
C2399 C2393 1.429 . S
C2399 C2400 1.523 . S
C2400 C2381 1.368 . S
C2400 C2394 1.368 . S
C2400 C2399 1.523 . S
C2401 C2385 1.429 . S
C2401 C2397 1.429 . S
C2401 C2402 1.523 . S
C2402 C2386 1.368 . S
C2402 C2398 1.368 . S
C2402 C2401 1.523 . S
H2403 C2378 0.950 . S
H2404 C2380 0.950 . S
H2405 C2381 0.949 . S
H2406 C2383 0.950 . S
H2407 C2385 0.950 . S
C2408 C2409 1.349 . S
C2408 C2410 1.327 . S
C2408 H2433 0.950 . S
C2409 C2408 1.349 . S
C2409 C2425 1.349 . S
C2410 C2408 1.327 . S
C2410 C2429 1.429 . S
C2410 H2434 0.950 . S
C2411 C2428 1.574 . S
C2411 C2430 1.368 . S
C2411 H2435 0.949 . S
H2412 C2416 0.949 . S
C2413 C2414 1.349 . S
C2413 C2415 1.327 . S
C2413 H2436 0.950 . S
C2414 C2413 1.349 . S
C2414 C2426 1.349 . S
C2415 C2413 1.327 . S
C2415 C2431 1.429 . S
C2415 H2437 0.950 . S
C2416 H2412 0.949 . S
C2416 C2424 1.574 . S
C2416 C2432 1.368 . S
H2417 C2425 0.950 . S
H2418 C2423 0.950 . S
H2419 C2424 0.949 . S
H2420 C2426 0.950 . S
H2421 C2427 0.950 . S
H2422 C2428 0.949 . S
C2423 H2418 0.950 . S
C2423 C2425 1.327 . S
C2423 C2429 1.429 . S
C2424 C2416 1.574 . S
C2424 H2419 0.949 . S
C2424 C2430 1.368 . S
C2425 C2409 1.349 . S
C2425 H2417 0.950 . S
C2425 C2423 1.327 . S
C2426 C2414 1.349 . S
C2426 H2420 0.950 . S
C2426 C2427 1.327 . S
C2427 H2421 0.950 . S
C2427 C2426 1.327 . S
C2427 C2431 1.429 . S
C2428 C2411 1.574 . S
C2428 H2422 0.949 . S
C2428 C2432 1.368 . S
C2429 C2410 1.429 . S
C2429 C2423 1.429 . S
C2429 C2430 1.523 . S
C2430 C2411 1.368 . S
C2430 C2424 1.368 . S
C2430 C2429 1.523 . S
C2431 C2415 1.429 . S
C2431 C2427 1.429 . S
C2431 C2432 1.523 . S
C2432 C2416 1.368 . S
C2432 C2428 1.368 . S
C2432 C2431 1.523 . S
H2433 C2408 0.950 . S
H2434 C2410 0.950 . S
H2435 C2411 0.949 . S
H2436 C2413 0.950 . S
H2437 C2415 0.950 . S
C2438 C2439 1.349 . S
C2438 C2440 1.327 . S
C2438 H2463 0.950 . S
C2439 C2438 1.349 . S
C2439 C2455 1.349 . S
C2440 C2438 1.327 . S
C2440 C2459 1.429 . S
C2440 H2464 0.950 . S
C2441 C2458 1.574 . S
C2441 C2460 1.368 . S
C2441 H2465 0.949 . S
H2442 C2446 0.949 . S
C2443 C2444 1.349 . S
C2443 C2445 1.327 . S
C2443 H2466 0.950 . S
C2444 C2443 1.349 . S
C2444 C2456 1.349 . S
C2445 C2443 1.327 . S
C2445 C2461 1.429 . S
C2445 H2467 0.950 . S
C2446 H2442 0.949 . S
C2446 C2454 1.574 . S
C2446 C2462 1.368 . S
H2447 C2455 0.950 . S
H2448 C2453 0.950 . S
H2449 C2454 0.949 . S
H2450 C2456 0.950 . S
H2451 C2457 0.950 . S
H2452 C2458 0.949 . S
C2453 H2448 0.950 . S
C2453 C2455 1.327 . S
C2453 C2459 1.429 . S
C2454 C2446 1.574 . S
C2454 H2449 0.949 . S
C2454 C2460 1.368 . S
C2455 C2439 1.349 . S
C2455 H2447 0.950 . S
C2455 C2453 1.327 . S
C2456 C2444 1.349 . S
C2456 H2450 0.950 . S
C2456 C2457 1.327 . S
C2457 H2451 0.950 . S
C2457 C2456 1.327 . S
C2457 C2461 1.429 . S
C2458 C2441 1.574 . S
C2458 H2452 0.949 . S
C2458 C2462 1.368 . S
C2459 C2440 1.429 . S
C2459 C2453 1.429 . S
C2459 C2460 1.523 . S
C2460 C2441 1.368 . S
C2460 C2454 1.368 . S
C2460 C2459 1.523 . S
C2461 C2445 1.429 . S
C2461 C2457 1.429 . S
C2461 C2462 1.523 . S
C2462 C2446 1.368 . S
C2462 C2458 1.368 . S
C2462 C2461 1.523 . S
H2463 C2438 0.950 . S
H2464 C2440 0.950 . S
H2465 C2441 0.949 . S
H2466 C2443 0.950 . S
H2467 C2445 0.950 . S
C2468 C2469 1.349 . S
C2468 C2470 1.327 . S
C2468 H2493 0.950 . S
C2469 C2468 1.349 . S
C2469 C2485 1.349 . S
C2470 C2468 1.327 . S
C2470 C2489 1.429 . S
C2470 H2494 0.950 . S
C2471 C2488 1.574 . S
C2471 C2490 1.368 . S
C2471 H2495 0.949 . S
H2472 C2476 0.949 . S
C2473 C2474 1.349 . S
C2473 C2475 1.327 . S
C2473 H2496 0.950 . S
C2474 C2473 1.349 . S
C2474 C2486 1.349 . S
C2475 C2473 1.327 . S
C2475 C2491 1.429 . S
C2475 H2497 0.950 . S
C2476 H2472 0.949 . S
C2476 C2484 1.574 . S
C2476 C2492 1.368 . S
H2477 C2485 0.950 . S
H2478 C2483 0.950 . S
H2479 C2484 0.949 . S
H2480 C2486 0.950 . S
H2481 C2487 0.950 . S
H2482 C2488 0.949 . S
C2483 H2478 0.950 . S
C2483 C2485 1.327 . S
C2483 C2489 1.429 . S
C2484 C2476 1.574 . S
C2484 H2479 0.949 . S
C2484 C2490 1.368 . S
C2485 C2469 1.349 . S
C2485 H2477 0.950 . S
C2485 C2483 1.327 . S
C2486 C2474 1.349 . S
C2486 H2480 0.950 . S
C2486 C2487 1.327 . S
C2487 H2481 0.950 . S
C2487 C2486 1.327 . S
C2487 C2491 1.429 . S
C2488 C2471 1.574 . S
C2488 H2482 0.949 . S
C2488 C2492 1.368 . S
C2489 C2470 1.429 . S
C2489 C2483 1.429 . S
C2489 C2490 1.523 . S
C2490 C2471 1.368 . S
C2490 C2484 1.368 . S
C2490 C2489 1.523 . S
C2491 C2475 1.429 . S
C2491 C2487 1.429 . S
C2491 C2492 1.523 . S
C2492 C2476 1.368 . S
C2492 C2488 1.368 . S
C2492 C2491 1.523 . S
H2493 C2468 0.950 . S
H2494 C2470 0.950 . S
H2495 C2471 0.949 . S
H2496 C2473 0.950 . S
H2497 C2475 0.950 . S
C2498 C2499 1.349 . S
C2498 C2500 1.327 . S
C2498 H2523 0.950 . S
C2499 C2498 1.349 . S
C2499 C2515 1.349 . S
C2500 C2498 1.327 . S
C2500 C2519 1.429 . S
C2500 H2524 0.950 . S
C2501 C2518 1.574 . S
C2501 C2520 1.368 1_455 S
C2501 H2525 0.949 . S
H2502 C2506 0.949 . S
C2503 C2504 1.349 . S
C2503 C2505 1.327 . S
C2503 H2526 0.950 . S
C2504 C2503 1.349 . S
C2504 C2516 1.349 . S
C2505 C2503 1.327 . S
C2505 C2521 1.429 . S
C2505 H2527 0.950 . S
C2506 H2502 0.949 . S
C2506 C2514 1.574 . S
C2506 C2522 1.368 . S
H2507 C2515 0.950 . S
H2508 C2513 0.950 . S
H2509 C2514 0.949 1_655 S
H2510 C2516 0.950 . S
H2511 C2517 0.950 . S
H2512 C2518 0.949 . S
C2513 H2508 0.950 . S
C2513 C2515 1.327 . S
C2513 C2519 1.429 . S
C2514 C2506 1.574 . S
C2514 H2509 0.949 1_455 S
C2514 C2520 1.368 1_455 S
C2515 C2499 1.349 . S
C2515 H2507 0.950 . S
C2515 C2513 1.327 . S
C2516 C2504 1.349 . S
C2516 H2510 0.950 . S
C2516 C2517 1.327 . S
C2517 H2511 0.950 . S
C2517 C2516 1.327 . S
C2517 C2521 1.429 . S
C2518 C2501 1.574 . S
C2518 H2512 0.949 . S
C2518 C2522 1.368 . S
C2519 C2500 1.429 . S
C2519 C2513 1.429 . S
C2519 C2520 1.523 . S
C2520 C2501 1.368 1_655 S
C2520 C2514 1.368 1_655 S
C2520 C2519 1.523 . S
C2521 C2505 1.429 . S
C2521 C2517 1.429 . S
C2521 C2522 1.523 . S
C2522 C2506 1.368 . S
C2522 C2518 1.368 . S
C2522 C2521 1.523 . S
H2523 C2498 0.950 . S
H2524 C2500 0.950 . S
H2525 C2501 0.949 . S
H2526 C2503 0.950 . S
H2527 C2505 0.950 . S
C2528 C2529 1.349 . S
C2528 C2530 1.327 . S
C2528 H2553 0.950 . S
C2529 C2528 1.349 . S
C2529 C2545 1.349 . S
C2530 C2528 1.327 . S
C2530 C2549 1.429 . S
C2530 H2554 0.950 . S
C2531 C2548 1.574 . S
C2531 C2550 1.368 1_545 S
C2531 H2555 0.949 . S
H2532 C2536 0.949 . S
C2533 C2534 1.349 . S
C2533 C2535 1.327 . S
C2533 H2556 0.950 . S
C2534 C2533 1.349 . S
C2534 C2546 1.349 . S
C2535 C2533 1.327 . S
C2535 C2551 1.429 . S
C2535 H2557 0.950 . S
C2536 H2532 0.949 . S
C2536 C2544 1.574 . S
C2536 C2552 1.368 1_565 S
H2537 C2545 0.950 1_545 S
H2538 C2543 0.950 1_545 S
H2539 C2544 0.949 . S
H2540 C2546 0.950 1_565 S
H2541 C2547 0.950 1_565 S
H2542 C2548 0.949 . S
C2543 H2538 0.950 1_565 S
C2543 C2545 1.327 . S
C2543 C2549 1.429 . S
C2544 C2536 1.574 . S
C2544 H2539 0.949 . S
C2544 C2550 1.368 . S
C2545 C2529 1.349 . S
C2545 H2537 0.950 1_565 S
C2545 C2543 1.327 . S
C2546 C2534 1.349 . S
C2546 H2540 0.950 1_545 S
C2546 C2547 1.327 . S
C2547 H2541 0.950 1_545 S
C2547 C2546 1.327 . S
C2547 C2551 1.429 . S
C2548 C2531 1.574 . S
C2548 H2542 0.949 . S
C2548 C2552 1.368 . S
C2549 C2530 1.429 . S
C2549 C2543 1.429 . S
C2549 C2550 1.523 . S
C2550 C2531 1.368 1_565 S
C2550 C2544 1.368 . S
C2550 C2549 1.523 . S
C2551 C2535 1.429 . S
C2551 C2547 1.429 . S
C2551 C2552 1.523 . S
C2552 C2536 1.368 1_545 S
C2552 C2548 1.368 . S
C2552 C2551 1.523 . S
H2553 C2528 0.950 . S
H2554 C2530 0.950 . S
H2555 C2531 0.949 . S
H2556 C2533 0.950 . S
H2557 C2535 0.950 . S
C2558 C2559 1.349 . S
C2558 C2560 1.327 . S
C2558 H2583 0.950 . S
C2559 C2558 1.349 . S
C2559 C2575 1.349 . S
C2560 C2558 1.327 . S
C2560 C2579 1.429 . S
C2560 H2584 0.950 . S
C2561 C2578 1.574 . S
C2561 C2580 1.368 . S
C2561 H2585 0.949 . S
H2562 C2566 0.949 . S
C2563 C2564 1.349 . S
C2563 C2565 1.327 . S
C2563 H2586 0.950 . S
C2564 C2563 1.349 . S
C2564 C2576 1.349 . S
C2565 C2563 1.327 . S
C2565 C2581 1.429 . S
C2565 H2587 0.950 . S
C2566 H2562 0.949 . S
C2566 C2574 1.574 . S
C2566 C2582 1.368 . S
H2567 C2575 0.950 . S
H2568 C2573 0.950 . S
H2569 C2574 0.949 . S
H2570 C2576 0.950 . S
H2571 C2577 0.950 . S
H2572 C2578 0.949 . S
C2573 H2568 0.950 . S
C2573 C2575 1.327 . S
C2573 C2579 1.429 . S
C2574 C2566 1.574 . S
C2574 H2569 0.949 . S
C2574 C2580 1.368 . S
C2575 C2559 1.349 . S
C2575 H2567 0.950 . S
C2575 C2573 1.327 . S
C2576 C2564 1.349 . S
C2576 H2570 0.950 . S
C2576 C2577 1.327 . S
C2577 H2571 0.950 . S
C2577 C2576 1.327 . S
C2577 C2581 1.429 . S
C2578 C2561 1.574 . S
C2578 H2572 0.949 . S
C2578 C2582 1.368 . S
C2579 C2560 1.429 . S
C2579 C2573 1.429 . S
C2579 C2580 1.523 . S
C2580 C2561 1.368 . S
C2580 C2574 1.368 . S
C2580 C2579 1.523 . S
C2581 C2565 1.429 . S
C2581 C2577 1.429 . S
C2581 C2582 1.523 . S
C2582 C2566 1.368 . S
C2582 C2578 1.368 . S
C2582 C2581 1.523 . S
H2583 C2558 0.950 . S
H2584 C2560 0.950 . S
H2585 C2561 0.949 . S
H2586 C2563 0.950 . S
H2587 C2565 0.950 . S
C2588 C2589 1.349 . S
C2588 C2590 1.327 1_565 S
C2588 H2613 0.950 1_565 S
C2589 C2588 1.349 . S
C2589 C2605 1.349 . S
C2590 C2588 1.327 1_545 S
C2590 C2609 1.429 1_545 S
C2590 H2614 0.950 . S
C2591 C2608 1.574 . S
C2591 C2610 1.368 . S
C2591 H2615 0.949 . S
H2592 C2596 0.949 . S
C2593 C2594 1.349 . S
C2593 C2595 1.327 1_545 S
C2593 H2616 0.950 1_545 S
C2594 C2593 1.349 . S
C2594 C2606 1.349 . S
C2595 C2593 1.327 1_565 S
C2595 C2611 1.429 1_565 S
C2595 H2617 0.950 . S
C2596 H2592 0.949 . S
C2596 C2604 1.574 . S
C2596 C2612 1.368 . S
H2597 C2605 0.950 . S
H2598 C2603 0.950 . S
H2599 C2604 0.949 . S
H2600 C2606 0.950 . S
H2601 C2607 0.950 . S
H2602 C2608 0.949 . S
C2603 H2598 0.950 . S
C2603 C2605 1.327 . S
C2603 C2609 1.429 . S
C2604 C2596 1.574 . S
C2604 H2599 0.949 . S
C2604 C2610 1.368 1_545 S
C2605 C2589 1.349 . S
C2605 H2597 0.950 . S
C2605 C2603 1.327 . S
C2606 C2594 1.349 . S
C2606 H2600 0.950 . S
C2606 C2607 1.327 . S
C2607 H2601 0.950 . S
C2607 C2606 1.327 . S
C2607 C2611 1.429 . S
C2608 C2591 1.574 . S
C2608 H2602 0.949 . S
C2608 C2612 1.368 1_565 S
C2609 C2590 1.429 1_565 S
C2609 C2603 1.429 . S
C2609 C2610 1.523 . S
C2610 C2591 1.368 . S
C2610 C2604 1.368 1_565 S
C2610 C2609 1.523 . S
C2611 C2595 1.429 1_545 S
C2611 C2607 1.429 . S
C2611 C2612 1.523 . S
C2612 C2596 1.368 . S
C2612 C2608 1.368 1_545 S
C2612 C2611 1.523 . S
H2613 C2588 0.950 1_545 S
H2614 C2590 0.950 . S
H2615 C2591 0.949 . S
H2616 C2593 0.950 1_565 S
H2617 C2595 0.950 . S
C2618 C2619 1.349 . S
C2618 C2620 1.327 . S
C2618 H2643 0.950 . S
C2619 C2618 1.349 . S
C2619 C2635 1.349 . S
C2620 C2618 1.327 . S
C2620 C2639 1.429 . S
C2620 H2644 0.950 . S
C2621 C2638 1.574 1_554 S
C2621 C2640 1.368 . S
C2621 H2645 0.949 . S
H2622 C2626 0.949 . S
C2623 C2624 1.349 . S
C2623 C2625 1.327 . S
C2623 H2646 0.950 . S
C2624 C2623 1.349 . S
C2624 C2636 1.349 . S
C2625 C2623 1.327 . S
C2625 C2641 1.429 . S
C2625 H2647 0.950 . S
C2626 H2622 0.949 . S
C2626 C2634 1.574 1_556 S
C2626 C2642 1.368 . S
H2627 C2635 0.950 . S
H2628 C2633 0.950 . S
H2629 C2634 0.949 . S
H2630 C2636 0.950 . S
H2631 C2637 0.950 . S
H2632 C2638 0.949 . S
C2633 H2628 0.950 . S
C2633 C2635 1.327 . S
C2633 C2639 1.429 . S
C2634 C2626 1.574 1_554 S
C2634 H2629 0.949 . S
C2634 C2640 1.368 . S
C2635 C2619 1.349 . S
C2635 H2627 0.950 . S
C2635 C2633 1.327 . S
C2636 C2624 1.349 . S
C2636 H2630 0.950 . S
C2636 C2637 1.327 . S
C2637 H2631 0.950 . S
C2637 C2636 1.327 . S
C2637 C2641 1.429 . S
C2638 C2621 1.574 1_556 S
C2638 H2632 0.949 . S
C2638 C2642 1.368 . S
C2639 C2620 1.429 . S
C2639 C2633 1.429 . S
C2639 C2640 1.523 . S
C2640 C2621 1.368 . S
C2640 C2634 1.368 . S
C2640 C2639 1.523 . S
C2641 C2625 1.429 . S
C2641 C2637 1.429 . S
C2641 C2642 1.523 . S
C2642 C2626 1.368 . S
C2642 C2638 1.368 . S
C2642 C2641 1.523 . S
H2643 C2618 0.950 . S
H2644 C2620 0.950 . S
H2645 C2621 0.949 . S
H2646 C2623 0.950 . S
H2647 C2625 0.950 . S
C2648 C2649 1.349 . S
C2648 C2650 1.327 . S
C2648 H2673 0.950 . S
C2649 C2648 1.349 . S
C2649 C2665 1.349 . S
C2650 C2648 1.327 . S
C2650 C2669 1.429 . S
C2650 H2674 0.950 1_545 S
C2651 C2668 1.574 . S
C2651 C2670 1.368 . S
C2651 H2675 0.949 . S
H2652 C2656 0.949 . S
C2653 C2654 1.349 . S
C2653 C2655 1.327 . S
C2653 H2676 0.950 . S
C2654 C2653 1.349 . S
C2654 C2666 1.349 . S
C2655 C2653 1.327 . S
C2655 C2671 1.429 . S
C2655 H2677 0.950 1_565 S
C2656 H2652 0.949 . S
C2656 C2664 1.574 . S
C2656 C2672 1.368 . S
H2657 C2665 0.950 . S
H2658 C2663 0.950 . S
H2659 C2664 0.949 . S
H2660 C2666 0.950 . S
H2661 C2667 0.950 . S
H2662 C2668 0.949 . S
C2663 H2658 0.950 . S
C2663 C2665 1.327 . S
C2663 C2669 1.429 . S
C2664 C2656 1.574 . S
C2664 H2659 0.949 . S
C2664 C2670 1.368 1_565 S
C2665 C2649 1.349 . S
C2665 H2657 0.950 . S
C2665 C2663 1.327 . S
C2666 C2654 1.349 . S
C2666 H2660 0.950 . S
C2666 C2667 1.327 . S
C2667 H2661 0.950 . S
C2667 C2666 1.327 . S
C2667 C2671 1.429 . S
C2668 C2651 1.574 . S
C2668 H2662 0.949 . S
C2668 C2672 1.368 1_545 S
C2669 C2650 1.429 . S
C2669 C2663 1.429 . S
C2669 C2670 1.523 . S
C2670 C2651 1.368 . S
C2670 C2664 1.368 1_545 S
C2670 C2669 1.523 . S
C2671 C2655 1.429 . S
C2671 C2667 1.429 . S
C2671 C2672 1.523 . S
C2672 C2656 1.368 . S
C2672 C2668 1.368 1_565 S
C2672 C2671 1.523 . S
H2673 C2648 0.950 . S
H2674 C2650 0.950 1_565 S
H2675 C2651 0.949 . S
H2676 C2653 0.950 . S
H2677 C2655 0.950 1_545 S
C2678 C2679 1.349 . S
C2678 C2680 1.327 . S
C2678 H2703 0.950 . S
C2679 C2678 1.349 . S
C2679 C2695 1.349 . S
C2680 C2678 1.327 . S
C2680 C2699 1.429 . S
C2680 H2704 0.950 . S
C2681 C2698 1.574 . S
C2681 C2700 1.368 . S
C2681 H2705 0.949 . S
H2682 C2686 0.949 . S
C2683 C2684 1.349 . S
C2683 C2685 1.327 . S
C2683 H2706 0.950 . S
C2684 C2683 1.349 . S
C2684 C2696 1.349 . S
C2685 C2683 1.327 . S
C2685 C2701 1.429 . S
C2685 H2707 0.950 . S
C2686 H2682 0.949 . S
C2686 C2694 1.574 . S
C2686 C2702 1.368 . S
H2687 C2695 0.950 . S
H2688 C2693 0.950 . S
H2689 C2694 0.949 . S
H2690 C2696 0.950 . S
H2691 C2697 0.950 . S
H2692 C2698 0.949 . S
C2693 H2688 0.950 . S
C2693 C2695 1.327 . S
C2693 C2699 1.429 . S
C2694 C2686 1.574 . S
C2694 H2689 0.949 . S
C2694 C2700 1.368 . S
C2695 C2679 1.349 . S
C2695 H2687 0.950 . S
C2695 C2693 1.327 . S
C2696 C2684 1.349 . S
C2696 H2690 0.950 . S
C2696 C2697 1.327 . S
C2697 H2691 0.950 . S
C2697 C2696 1.327 . S
C2697 C2701 1.429 . S
C2698 C2681 1.574 . S
C2698 H2692 0.949 . S
C2698 C2702 1.368 . S
C2699 C2680 1.429 . S
C2699 C2693 1.429 . S
C2699 C2700 1.523 . S
C2700 C2681 1.368 . S
C2700 C2694 1.368 . S
C2700 C2699 1.523 . S
C2701 C2685 1.429 . S
C2701 C2697 1.429 . S
C2701 C2702 1.523 . S
C2702 C2686 1.368 . S
C2702 C2698 1.368 . S
C2702 C2701 1.523 . S
H2703 C2678 0.950 . S
H2704 C2680 0.950 . S
H2705 C2681 0.949 . S
H2706 C2683 0.950 . S
H2707 C2685 0.950 . S
C2708 C2709 1.349 . S
C2708 C2710 1.327 . S
C2708 H2733 0.950 . S
C2709 C2708 1.349 . S
C2709 C2725 1.349 . S
C2710 C2708 1.327 . S
C2710 C2729 1.429 . S
C2710 H2734 0.950 1_545 S
C2711 C2728 1.574 . S
C2711 C2730 1.368 . S
C2711 H2735 0.949 . S
H2712 C2716 0.949 . S
C2713 C2714 1.349 . S
C2713 C2715 1.327 . S
C2713 H2736 0.950 . S
C2714 C2713 1.349 . S
C2714 C2726 1.349 . S
C2715 C2713 1.327 . S
C2715 C2731 1.429 . S
C2715 H2737 0.950 1_565 S
C2716 H2712 0.949 . S
C2716 C2724 1.574 . S
C2716 C2732 1.368 . S
H2717 C2725 0.950 . S
H2718 C2723 0.950 . S
H2719 C2724 0.949 . S
H2720 C2726 0.950 . S
H2721 C2727 0.950 . S
H2722 C2728 0.949 . S
C2723 H2718 0.950 . S
C2723 C2725 1.327 . S
C2723 C2729 1.429 . S
C2724 C2716 1.574 . S
C2724 H2719 0.949 . S
C2724 C2730 1.368 1_565 S
C2725 C2709 1.349 . S
C2725 H2717 0.950 . S
C2725 C2723 1.327 . S
C2726 C2714 1.349 . S
C2726 H2720 0.950 . S
C2726 C2727 1.327 . S
C2727 H2721 0.950 . S
C2727 C2726 1.327 . S
C2727 C2731 1.429 . S
C2728 C2711 1.574 . S
C2728 H2722 0.949 . S
C2728 C2732 1.368 1_545 S
C2729 C2710 1.429 . S
C2729 C2723 1.429 . S
C2729 C2730 1.523 . S
C2730 C2711 1.368 . S
C2730 C2724 1.368 1_545 S
C2730 C2729 1.523 . S
C2731 C2715 1.429 . S
C2731 C2727 1.429 . S
C2731 C2732 1.523 . S
C2732 C2716 1.368 . S
C2732 C2728 1.368 1_565 S
C2732 C2731 1.523 . S
H2733 C2708 0.950 . S
H2734 C2710 0.950 1_565 S
H2735 C2711 0.949 . S
H2736 C2713 0.950 . S
H2737 C2715 0.950 1_545 S
C2738 C2739 1.349 . S
C2738 C2740 1.327 . S
C2738 H2763 0.950 . S
C2739 C2738 1.349 . S
C2739 C2755 1.349 . S
C2740 C2738 1.327 . S
C2740 C2759 1.429 . S
C2740 H2764 0.950 . S
C2741 C2758 1.574 1_554 S
C2741 C2760 1.368 . S
C2741 H2765 0.949 . S
H2742 C2746 0.949 . S
C2743 C2744 1.349 . S
C2743 C2745 1.327 . S
C2743 H2766 0.950 . S
C2744 C2743 1.349 . S
C2744 C2756 1.349 . S
C2745 C2743 1.327 . S
C2745 C2761 1.429 . S
C2745 H2767 0.950 . S
C2746 H2742 0.949 . S
C2746 C2754 1.574 1_556 S
C2746 C2762 1.368 . S
H2747 C2755 0.950 . S
H2748 C2753 0.950 . S
H2749 C2754 0.949 . S
H2750 C2756 0.950 . S
H2751 C2757 0.950 . S
H2752 C2758 0.949 . S
C2753 H2748 0.950 . S
C2753 C2755 1.327 . S
C2753 C2759 1.429 . S
C2754 C2746 1.574 1_554 S
C2754 H2749 0.949 . S
C2754 C2760 1.368 . S
C2755 C2739 1.349 . S
C2755 H2747 0.950 . S
C2755 C2753 1.327 . S
C2756 C2744 1.349 . S
C2756 H2750 0.950 . S
C2756 C2757 1.327 . S
C2757 H2751 0.950 . S
C2757 C2756 1.327 . S
C2757 C2761 1.429 . S
C2758 C2741 1.574 1_556 S
C2758 H2752 0.949 . S
C2758 C2762 1.368 . S
C2759 C2740 1.429 . S
C2759 C2753 1.429 . S
C2759 C2760 1.523 . S
C2760 C2741 1.368 . S
C2760 C2754 1.368 . S
C2760 C2759 1.523 . S
C2761 C2745 1.429 . S
C2761 C2757 1.429 . S
C2761 C2762 1.523 . S
C2762 C2746 1.368 . S
C2762 C2758 1.368 . S
C2762 C2761 1.523 . S
H2763 C2738 0.950 . S
H2764 C2740 0.950 . S
H2765 C2741 0.949 . S
H2766 C2743 0.950 . S
H2767 C2745 0.950 . S
C2768 C2769 1.349 . S
C2768 C2770 1.327 . S
C2768 H2793 0.950 . S
C2769 C2768 1.349 . S
C2769 C2785 1.349 . S
C2770 C2768 1.327 . S
C2770 C2789 1.429 . S
C2770 H2794 0.950 . S
C2771 C2788 1.574 . S
C2771 C2790 1.368 . S
C2771 H2795 0.949 . S
H2772 C2776 0.949 . S
C2773 C2774 1.349 . S
C2773 C2775 1.327 . S
C2773 H2796 0.950 . S
C2774 C2773 1.349 . S
C2774 C2786 1.349 . S
C2775 C2773 1.327 . S
C2775 C2791 1.429 . S
C2775 H2797 0.950 . S
C2776 H2772 0.949 . S
C2776 C2784 1.574 . S
C2776 C2792 1.368 . S
H2777 C2785 0.950 . S
H2778 C2783 0.950 . S
H2779 C2784 0.949 . S
H2780 C2786 0.950 . S
H2781 C2787 0.950 . S
H2782 C2788 0.949 . S
C2783 H2778 0.950 . S
C2783 C2785 1.327 . S
C2783 C2789 1.429 . S
C2784 C2776 1.574 . S
C2784 H2779 0.949 . S
C2784 C2790 1.368 . S
C2785 C2769 1.349 . S
C2785 H2777 0.950 . S
C2785 C2783 1.327 . S
C2786 C2774 1.349 . S
C2786 H2780 0.950 . S
C2786 C2787 1.327 . S
C2787 H2781 0.950 . S
C2787 C2786 1.327 . S
C2787 C2791 1.429 . S
C2788 C2771 1.574 . S
C2788 H2782 0.949 . S
C2788 C2792 1.368 . S
C2789 C2770 1.429 . S
C2789 C2783 1.429 . S
C2789 C2790 1.523 . S
C2790 C2771 1.368 . S
C2790 C2784 1.368 . S
C2790 C2789 1.523 . S
C2791 C2775 1.429 . S
C2791 C2787 1.429 . S
C2791 C2792 1.523 . S
C2792 C2776 1.368 . S
C2792 C2788 1.368 . S
C2792 C2791 1.523 . S
H2793 C2768 0.950 . S
H2794 C2770 0.950 . S
H2795 C2771 0.949 . S
H2796 C2773 0.950 . S
H2797 C2775 0.950 . S
C2798 C2799 1.349 . S
C2798 C2800 1.327 . S
C2798 H2823 0.950 . S
C2799 C2798 1.349 . S
C2799 C2815 1.349 . S
C2800 C2798 1.327 . S
C2800 C2819 1.429 . S
C2800 H2824 0.950 . S
C2801 C2818 1.574 1_554 S
C2801 C2820 1.368 . S
C2801 H2825 0.949 . S
H2802 C2806 0.949 . S
C2803 C2804 1.349 . S
C2803 C2805 1.327 . S
C2803 H2826 0.950 . S
C2804 C2803 1.349 . S
C2804 C2816 1.349 . S
C2805 C2803 1.327 . S
C2805 C2821 1.429 . S
C2805 H2827 0.950 . S
C2806 H2802 0.949 . S
C2806 C2814 1.574 1_556 S
C2806 C2822 1.368 . S
H2807 C2815 0.950 . S
H2808 C2813 0.950 . S
H2809 C2814 0.949 . S
H2810 C2816 0.950 . S
H2811 C2817 0.950 . S
H2812 C2818 0.949 . S
C2813 H2808 0.950 . S
C2813 C2815 1.327 . S
C2813 C2819 1.429 . S
C2814 C2806 1.574 1_554 S
C2814 H2809 0.949 . S
C2814 C2820 1.368 . S
C2815 C2799 1.349 . S
C2815 H2807 0.950 . S
C2815 C2813 1.327 . S
C2816 C2804 1.349 . S
C2816 H2810 0.950 . S
C2816 C2817 1.327 . S
C2817 H2811 0.950 . S
C2817 C2816 1.327 . S
C2817 C2821 1.429 . S
C2818 C2801 1.574 1_556 S
C2818 H2812 0.949 . S
C2818 C2822 1.368 . S
C2819 C2800 1.429 . S
C2819 C2813 1.429 . S
C2819 C2820 1.523 . S
C2820 C2801 1.368 . S
C2820 C2814 1.368 . S
C2820 C2819 1.523 . S
C2821 C2805 1.429 . S
C2821 C2817 1.429 . S
C2821 C2822 1.523 . S
C2822 C2806 1.368 . S
C2822 C2818 1.368 . S
C2822 C2821 1.523 . S
H2823 C2798 0.950 . S
H2824 C2800 0.950 . S
H2825 C2801 0.949 . S
H2826 C2803 0.950 . S
H2827 C2805 0.950 . S
C2828 C2829 1.349 . S
C2828 C2830 1.327 . S
C2828 H2853 0.950 . S
C2829 C2828 1.349 . S
C2829 C2845 1.349 . S
C2830 C2828 1.327 . S
C2830 C2849 1.429 . S
C2830 H2854 0.950 . S
C2831 C2848 1.574 . S
C2831 C2850 1.368 . S
C2831 H2855 0.949 . S
H2832 C2836 0.949 . S
C2833 C2834 1.349 . S
C2833 C2835 1.327 . S
C2833 H2856 0.950 . S
C2834 C2833 1.349 . S
C2834 C2846 1.349 . S
C2835 C2833 1.327 . S
C2835 C2851 1.429 . S
C2835 H2857 0.950 . S
C2836 H2832 0.949 . S
C2836 C2844 1.574 . S
C2836 C2852 1.368 . S
H2837 C2845 0.950 . S
H2838 C2843 0.950 . S
H2839 C2844 0.949 . S
H2840 C2846 0.950 . S
H2841 C2847 0.950 . S
H2842 C2848 0.949 . S
C2843 H2838 0.950 . S
C2843 C2845 1.327 . S
C2843 C2849 1.429 . S
C2844 C2836 1.574 . S
C2844 H2839 0.949 . S
C2844 C2850 1.368 . S
C2845 C2829 1.349 . S
C2845 H2837 0.950 . S
C2845 C2843 1.327 . S
C2846 C2834 1.349 . S
C2846 H2840 0.950 . S
C2846 C2847 1.327 . S
C2847 H2841 0.950 . S
C2847 C2846 1.327 . S
C2847 C2851 1.429 . S
C2848 C2831 1.574 . S
C2848 H2842 0.949 . S
C2848 C2852 1.368 . S
C2849 C2830 1.429 . S
C2849 C2843 1.429 . S
C2849 C2850 1.523 . S
C2850 C2831 1.368 . S
C2850 C2844 1.368 . S
C2850 C2849 1.523 . S
C2851 C2835 1.429 . S
C2851 C2847 1.429 . S
C2851 C2852 1.523 . S
C2852 C2836 1.368 . S
C2852 C2848 1.368 . S
C2852 C2851 1.523 . S
H2853 C2828 0.950 . S
H2854 C2830 0.950 . S
H2855 C2831 0.949 . S
H2856 C2833 0.950 . S
H2857 C2835 0.950 . S
C2858 C2859 1.349 . S
C2858 C2860 1.327 . S
C2858 H2883 0.950 . S
C2859 C2858 1.349 . S
C2859 C2875 1.349 . S
C2860 C2858 1.327 . S
C2860 C2879 1.429 . S
C2860 H2884 0.950 . S
C2861 C2878 1.574 . S
C2861 C2880 1.368 . S
C2861 H2885 0.949 . S
H2862 C2866 0.949 . S
C2863 C2864 1.349 . S
C2863 C2865 1.327 . S
C2863 H2886 0.950 . S
C2864 C2863 1.349 . S
C2864 C2876 1.349 . S
C2865 C2863 1.327 . S
C2865 C2881 1.429 . S
C2865 H2887 0.950 . S
C2866 H2862 0.949 . S
C2866 C2874 1.574 . S
C2866 C2882 1.368 . S
H2867 C2875 0.950 . S
H2868 C2873 0.950 . S
H2869 C2874 0.949 . S
H2870 C2876 0.950 . S
H2871 C2877 0.950 . S
H2872 C2878 0.949 . S
C2873 H2868 0.950 . S
C2873 C2875 1.327 . S
C2873 C2879 1.429 . S
C2874 C2866 1.574 . S
C2874 H2869 0.949 . S
C2874 C2880 1.368 . S
C2875 C2859 1.349 . S
C2875 H2867 0.950 . S
C2875 C2873 1.327 . S
C2876 C2864 1.349 . S
C2876 H2870 0.950 . S
C2876 C2877 1.327 . S
C2877 H2871 0.950 . S
C2877 C2876 1.327 . S
C2877 C2881 1.429 . S
C2878 C2861 1.574 . S
C2878 H2872 0.949 . S
C2878 C2882 1.368 . S
C2879 C2860 1.429 . S
C2879 C2873 1.429 . S
C2879 C2880 1.523 . S
C2880 C2861 1.368 . S
C2880 C2874 1.368 . S
C2880 C2879 1.523 . S
C2881 C2865 1.429 . S
C2881 C2877 1.429 . S
C2881 C2882 1.523 . S
C2882 C2866 1.368 . S
C2882 C2878 1.368 . S
C2882 C2881 1.523 . S
H2883 C2858 0.950 . S
H2884 C2860 0.950 . S
H2885 C2861 0.949 . S
H2886 C2863 0.950 . S
H2887 C2865 0.950 . S
C2888 C2889 1.349 . S
C2888 C2890 1.327 . S
C2888 H2913 0.950 . S
C2889 C2888 1.349 . S
C2889 C2905 1.349 . S
C2890 C2888 1.327 . S
C2890 C2909 1.429 . S
C2890 H2914 0.950 . S
C2891 C2908 1.574 . S
C2891 C2910 1.368 . S
C2891 H2915 0.949 . S
H2892 C2896 0.949 . S
C2893 C2894 1.349 . S
C2893 C2895 1.327 . S
C2893 H2916 0.950 . S
C2894 C2893 1.349 . S
C2894 C2906 1.349 . S
C2895 C2893 1.327 . S
C2895 C2911 1.429 . S
C2895 H2917 0.950 . S
C2896 H2892 0.949 . S
C2896 C2904 1.574 . S
C2896 C2912 1.368 . S
H2897 C2905 0.950 . S
H2898 C2903 0.950 . S
H2899 C2904 0.949 . S
H2900 C2906 0.950 . S
H2901 C2907 0.950 . S
H2902 C2908 0.949 . S
C2903 H2898 0.950 . S
C2903 C2905 1.327 . S
C2903 C2909 1.429 . S
C2904 C2896 1.574 . S
C2904 H2899 0.949 . S
C2904 C2910 1.368 . S
C2905 C2889 1.349 . S
C2905 H2897 0.950 . S
C2905 C2903 1.327 . S
C2906 C2894 1.349 . S
C2906 H2900 0.950 . S
C2906 C2907 1.327 . S
C2907 H2901 0.950 . S
C2907 C2906 1.327 . S
C2907 C2911 1.429 . S
C2908 C2891 1.574 . S
C2908 H2902 0.949 . S
C2908 C2912 1.368 . S
C2909 C2890 1.429 . S
C2909 C2903 1.429 . S
C2909 C2910 1.523 . S
C2910 C2891 1.368 . S
C2910 C2904 1.368 . S
C2910 C2909 1.523 . S
C2911 C2895 1.429 . S
C2911 C2907 1.429 . S
C2911 C2912 1.523 . S
C2912 C2896 1.368 . S
C2912 C2908 1.368 . S
C2912 C2911 1.523 . S
H2913 C2888 0.950 . S
H2914 C2890 0.950 . S
H2915 C2891 0.949 . S
H2916 C2893 0.950 . S
H2917 C2895 0.950 . S
C2918 C2919 1.349 . S
C2918 C2920 1.327 . S
C2918 H2943 0.950 . S
C2919 C2918 1.349 . S
C2919 C2935 1.349 . S
C2920 C2918 1.327 . S
C2920 C2939 1.429 . S
C2920 H2944 0.950 . S
C2921 C2938 1.574 1_556 S
C2921 C2940 1.368 . S
C2921 H2945 0.949 . S
H2922 C2926 0.949 . S
C2923 C2924 1.349 . S
C2923 C2925 1.327 . S
C2923 H2946 0.950 . S
C2924 C2923 1.349 . S
C2924 C2936 1.349 . S
C2925 C2923 1.327 . S
C2925 C2941 1.429 . S
C2925 H2947 0.950 . S
C2926 H2922 0.949 . S
C2926 C2934 1.574 1_554 S
C2926 C2942 1.368 . S
H2927 C2935 0.950 . S
H2928 C2933 0.950 . S
H2929 C2934 0.949 . S
H2930 C2936 0.950 . S
H2931 C2937 0.950 . S
H2932 C2938 0.949 . S
C2933 H2928 0.950 . S
C2933 C2935 1.327 . S
C2933 C2939 1.429 . S
C2934 C2926 1.574 1_556 S
C2934 H2929 0.949 . S
C2934 C2940 1.368 . S
C2935 C2919 1.349 . S
C2935 H2927 0.950 . S
C2935 C2933 1.327 . S
C2936 C2924 1.349 . S
C2936 H2930 0.950 . S
C2936 C2937 1.327 . S
C2937 H2931 0.950 . S
C2937 C2936 1.327 . S
C2937 C2941 1.429 . S
C2938 C2921 1.574 1_554 S
C2938 H2932 0.949 . S
C2938 C2942 1.368 . S
C2939 C2920 1.429 . S
C2939 C2933 1.429 . S
C2939 C2940 1.523 . S
C2940 C2921 1.368 . S
C2940 C2934 1.368 . S
C2940 C2939 1.523 . S
C2941 C2925 1.429 . S
C2941 C2937 1.429 . S
C2941 C2942 1.523 . S
C2942 C2926 1.368 . S
C2942 C2938 1.368 . S
C2942 C2941 1.523 . S
H2943 C2918 0.950 . S
H2944 C2920 0.950 . S
H2945 C2921 0.949 . S
H2946 C2923 0.950 . S
H2947 C2925 0.950 . S
C2948 C2949 1.349 . S
C2948 C2950 1.327 . S
C2948 H2973 0.950 . S
C2949 C2948 1.349 . S
C2949 C2965 1.349 . S
C2950 C2948 1.327 . S
C2950 C2969 1.429 . S
C2950 H2974 0.950 . S
C2951 C2968 1.574 . S
C2951 C2970 1.368 . S
C2951 H2975 0.949 . S
H2952 C2956 0.949 . S
C2953 C2954 1.349 . S
C2953 C2955 1.327 . S
C2953 H2976 0.950 . S
C2954 C2953 1.349 . S
C2954 C2966 1.349 . S
C2955 C2953 1.327 . S
C2955 C2971 1.429 . S
C2955 H2977 0.950 . S
C2956 H2952 0.949 . S
C2956 C2964 1.574 . S
C2956 C2972 1.368 . S
H2957 C2965 0.950 . S
H2958 C2963 0.950 . S
H2959 C2964 0.949 . S
H2960 C2966 0.950 . S
H2961 C2967 0.950 . S
H2962 C2968 0.949 . S
C2963 H2958 0.950 . S
C2963 C2965 1.327 . S
C2963 C2969 1.429 . S
C2964 C2956 1.574 . S
C2964 H2959 0.949 . S
C2964 C2970 1.368 . S
C2965 C2949 1.349 . S
C2965 H2957 0.950 . S
C2965 C2963 1.327 . S
C2966 C2954 1.349 . S
C2966 H2960 0.950 . S
C2966 C2967 1.327 . S
C2967 H2961 0.950 . S
C2967 C2966 1.327 . S
C2967 C2971 1.429 . S
C2968 C2951 1.574 . S
C2968 H2962 0.949 . S
C2968 C2972 1.368 . S
C2969 C2950 1.429 . S
C2969 C2963 1.429 . S
C2969 C2970 1.523 . S
C2970 C2951 1.368 . S
C2970 C2964 1.368 . S
C2970 C2969 1.523 . S
C2971 C2955 1.429 . S
C2971 C2967 1.429 . S
C2971 C2972 1.523 . S
C2972 C2956 1.368 . S
C2972 C2968 1.368 . S
C2972 C2971 1.523 . S
H2973 C2948 0.950 . S
H2974 C2950 0.950 . S
H2975 C2951 0.949 . S
H2976 C2953 0.950 . S
H2977 C2955 0.950 . S
C2978 C2979 1.349 . S
C2978 C2980 1.327 . S
C2978 H3003 0.950 . S
C2979 C2978 1.349 . S
C2979 C2995 1.349 . S
C2980 C2978 1.327 . S
C2980 C2999 1.429 . S
C2980 H3004 0.950 . S
C2981 C2998 1.574 . S
C2981 C3000 1.368 . S
C2981 H3005 0.949 . S
H2982 C2986 0.949 . S
C2983 C2984 1.349 . S
C2983 C2985 1.327 . S
C2983 H3006 0.950 . S
C2984 C2983 1.349 . S
C2984 C2996 1.349 . S
C2985 C2983 1.327 . S
C2985 C3001 1.429 . S
C2985 H3007 0.950 . S
C2986 H2982 0.949 . S
C2986 C2994 1.574 . S
C2986 C3002 1.368 . S
H2987 C2995 0.950 . S
H2988 C2993 0.950 . S
H2989 C2994 0.949 . S
H2990 C2996 0.950 . S
H2991 C2997 0.950 . S
H2992 C2998 0.949 . S
C2993 H2988 0.950 . S
C2993 C2995 1.327 . S
C2993 C2999 1.429 . S
C2994 C2986 1.574 . S
C2994 H2989 0.949 . S
C2994 C3000 1.368 . S
C2995 C2979 1.349 . S
C2995 H2987 0.950 . S
C2995 C2993 1.327 . S
C2996 C2984 1.349 . S
C2996 H2990 0.950 . S
C2996 C2997 1.327 . S
C2997 H2991 0.950 . S
C2997 C2996 1.327 . S
C2997 C3001 1.429 . S
C2998 C2981 1.574 . S
C2998 H2992 0.949 . S
C2998 C3002 1.368 . S
C2999 C2980 1.429 . S
C2999 C2993 1.429 . S
C2999 C3000 1.523 . S
C3000 C2981 1.368 . S
C3000 C2994 1.368 . S
C3000 C2999 1.523 . S
C3001 C2985 1.429 . S
C3001 C2997 1.429 . S
C3001 C3002 1.523 . S
C3002 C2986 1.368 . S
C3002 C2998 1.368 . S
C3002 C3001 1.523 . S
H3003 C2978 0.950 . S
H3004 C2980 0.950 . S
H3005 C2981 0.949 . S
H3006 C2983 0.950 . S
H3007 C2985 0.950 . S
C3008 C3009 1.349 . S
C3008 C3010 1.327 . S
C3008 H3033 0.950 . S
C3009 C3008 1.349 . S
C3009 C3025 1.349 . S
C3010 C3008 1.327 . S
C3010 C3029 1.429 . S
C3010 H3034 0.950 . S
C3011 C3028 1.574 . S
C3011 C3030 1.368 . S
C3011 H3035 0.949 . S
H3012 C3016 0.949 . S
C3013 C3014 1.349 . S
C3013 C3015 1.327 . S
C3013 H3036 0.950 . S
C3014 C3013 1.349 . S
C3014 C3026 1.349 . S
C3015 C3013 1.327 . S
C3015 C3031 1.429 . S
C3015 H3037 0.950 . S
C3016 H3012 0.949 . S
C3016 C3024 1.574 . S
C3016 C3032 1.368 . S
H3017 C3025 0.950 . S
H3018 C3023 0.950 . S
H3019 C3024 0.949 . S
H3020 C3026 0.950 . S
H3021 C3027 0.950 . S
H3022 C3028 0.949 . S
C3023 H3018 0.950 . S
C3023 C3025 1.327 . S
C3023 C3029 1.429 . S
C3024 C3016 1.574 . S
C3024 H3019 0.949 . S
C3024 C3030 1.368 . S
C3025 C3009 1.349 . S
C3025 H3017 0.950 . S
C3025 C3023 1.327 . S
C3026 C3014 1.349 . S
C3026 H3020 0.950 . S
C3026 C3027 1.327 . S
C3027 H3021 0.950 . S
C3027 C3026 1.327 . S
C3027 C3031 1.429 . S
C3028 C3011 1.574 . S
C3028 H3022 0.949 . S
C3028 C3032 1.368 . S
C3029 C3010 1.429 . S
C3029 C3023 1.429 . S
C3029 C3030 1.523 . S
C3030 C3011 1.368 . S
C3030 C3024 1.368 . S
C3030 C3029 1.523 . S
C3031 C3015 1.429 . S
C3031 C3027 1.429 . S
C3031 C3032 1.523 . S
C3032 C3016 1.368 . S
C3032 C3028 1.368 . S
C3032 C3031 1.523 . S
H3033 C3008 0.950 . S
H3034 C3010 0.950 . S
H3035 C3011 0.949 . S
H3036 C3013 0.950 . S
H3037 C3015 0.950 . S
C3038 C3039 1.349 . S
C3038 C3040 1.327 . S
C3038 H3063 0.950 . S
C3039 C3038 1.349 . S
C3039 C3055 1.349 . S
C3040 C3038 1.327 . S
C3040 C3059 1.429 . S
C3040 H3064 0.950 . S
C3041 C3058 1.574 1_455 S
C3041 C3060 1.368 . S
C3041 H3065 0.949 . S
H3042 C3046 0.949 . S
C3043 C3044 1.349 . S
C3043 C3045 1.327 . S
C3043 H3066 0.950 . S
C3044 C3043 1.349 . S
C3044 C3056 1.349 . S
C3045 C3043 1.327 . S
C3045 C3061 1.429 . S
C3045 H3067 0.950 . S
C3046 H3042 0.949 . S
C3046 C3054 1.574 1_655 S
C3046 C3062 1.368 . S
H3047 C3055 0.950 . S
H3048 C3053 0.950 . S
H3049 C3054 0.949 . S
H3050 C3056 0.950 . S
H3051 C3057 0.950 . S
H3052 C3058 0.949 . S
C3053 H3048 0.950 . S
C3053 C3055 1.327 . S
C3053 C3059 1.429 . S
C3054 C3046 1.574 1_455 S
C3054 H3049 0.949 . S
C3054 C3060 1.368 . S
C3055 C3039 1.349 . S
C3055 H3047 0.950 . S
C3055 C3053 1.327 . S
C3056 C3044 1.349 . S
C3056 H3050 0.950 . S
C3056 C3057 1.327 . S
C3057 H3051 0.950 . S
C3057 C3056 1.327 . S
C3057 C3061 1.429 . S
C3058 C3041 1.574 1_655 S
C3058 H3052 0.949 . S
C3058 C3062 1.368 . S
C3059 C3040 1.429 . S
C3059 C3053 1.429 . S
C3059 C3060 1.523 . S
C3060 C3041 1.368 . S
C3060 C3054 1.368 . S
C3060 C3059 1.523 . S
C3061 C3045 1.429 . S
C3061 C3057 1.429 . S
C3061 C3062 1.523 . S
C3062 C3046 1.368 . S
C3062 C3058 1.368 . S
C3062 C3061 1.523 . S
H3063 C3038 0.950 . S
H3064 C3040 0.950 . S
H3065 C3041 0.949 . S
H3066 C3043 0.950 . S
H3067 C3045 0.950 . S
C3068 C3069 1.349 . S
C3068 C3070 1.327 . S
C3068 H3093 0.950 . S
C3069 C3068 1.349 . S
C3069 C3085 1.349 . S
C3070 C3068 1.327 . S
C3070 C3089 1.429 . S
C3070 H3094 0.950 . S
C3071 C3088 1.574 . S
C3071 C3090 1.368 . S
C3071 H3095 0.949 . S
H3072 C3076 0.949 . S
C3073 C3074 1.349 . S
C3073 C3075 1.327 . S
C3073 H3096 0.950 . S
C3074 C3073 1.349 . S
C3074 C3086 1.349 . S
C3075 C3073 1.327 . S
C3075 C3091 1.429 . S
C3075 H3097 0.950 . S
C3076 H3072 0.949 . S
C3076 C3084 1.574 . S
C3076 C3092 1.368 . S
H3077 C3085 0.950 . S
H3078 C3083 0.950 . S
H3079 C3084 0.949 . S
H3080 C3086 0.950 . S
H3081 C3087 0.950 . S
H3082 C3088 0.949 . S
C3083 H3078 0.950 . S
C3083 C3085 1.327 . S
C3083 C3089 1.429 . S
C3084 C3076 1.574 . S
C3084 H3079 0.949 . S
C3084 C3090 1.368 1_455 S
C3085 C3069 1.349 . S
C3085 H3077 0.950 . S
C3085 C3083 1.327 . S
C3086 C3074 1.349 . S
C3086 H3080 0.950 . S
C3086 C3087 1.327 . S
C3087 H3081 0.950 . S
C3087 C3086 1.327 . S
C3087 C3091 1.429 . S
C3088 C3071 1.574 . S
C3088 H3082 0.949 . S
C3088 C3092 1.368 1_655 S
C3089 C3070 1.429 . S
C3089 C3083 1.429 . S
C3089 C3090 1.523 . S
C3090 C3071 1.368 . S
C3090 C3084 1.368 1_655 S
C3090 C3089 1.523 . S
C3091 C3075 1.429 . S
C3091 C3087 1.429 . S
C3091 C3092 1.523 . S
C3092 C3076 1.368 . S
C3092 C3088 1.368 1_455 S
C3092 C3091 1.523 . S
H3093 C3068 0.950 . S
H3094 C3070 0.950 . S
H3095 C3071 0.949 . S
H3096 C3073 0.950 . S
H3097 C3075 0.950 . S
C3098 C3099 1.349 . S
C3098 C3100 1.327 . S
C3098 H3123 0.950 . S
C3099 C3098 1.349 . S
C3099 C3115 1.349 . S
C3100 C3098 1.327 . S
C3100 C3119 1.429 . S
C3100 H3124 0.950 . S
C3101 C3118 1.574 . S
C3101 C3120 1.368 . S
C3101 H3125 0.949 . S
H3102 C3106 0.949 . S
C3103 C3104 1.349 . S
C3103 C3105 1.327 . S
C3103 H3126 0.950 . S
C3104 C3103 1.349 . S
C3104 C3116 1.349 . S
C3105 C3103 1.327 . S
C3105 C3121 1.429 . S
C3105 H3127 0.950 . S
C3106 H3102 0.949 . S
C3106 C3114 1.574 . S
C3106 C3122 1.368 . S
H3107 C3115 0.950 . S
H3108 C3113 0.950 . S
H3109 C3114 0.949 . S
H3110 C3116 0.950 . S
H3111 C3117 0.950 . S
H3112 C3118 0.949 . S
C3113 H3108 0.950 . S
C3113 C3115 1.327 . S
C3113 C3119 1.429 . S
C3114 C3106 1.574 . S
C3114 H3109 0.949 . S
C3114 C3120 1.368 . S
C3115 C3099 1.349 . S
C3115 H3107 0.950 . S
C3115 C3113 1.327 . S
C3116 C3104 1.349 . S
C3116 H3110 0.950 . S
C3116 C3117 1.327 . S
C3117 H3111 0.950 . S
C3117 C3116 1.327 . S
C3117 C3121 1.429 . S
C3118 C3101 1.574 . S
C3118 H3112 0.949 . S
C3118 C3122 1.368 . S
C3119 C3100 1.429 . S
C3119 C3113 1.429 . S
C3119 C3120 1.523 . S
C3120 C3101 1.368 . S
C3120 C3114 1.368 . S
C3120 C3119 1.523 . S
C3121 C3105 1.429 . S
C3121 C3117 1.429 . S
C3121 C3122 1.523 . S
C3122 C3106 1.368 . S
C3122 C3118 1.368 . S
C3122 C3121 1.523 . S
H3123 C3098 0.950 . S
H3124 C3100 0.950 . S
H3125 C3101 0.949 . S
H3126 C3103 0.950 . S
H3127 C3105 0.950 . S
C3128 C3129 1.349 . S
C3128 C3130 1.327 . S
C3128 H3153 0.950 . S
C3129 C3128 1.349 . S
C3129 C3145 1.349 . S
C3130 C3128 1.327 . S
C3130 C3149 1.429 . S
C3130 H3154 0.950 . S
C3131 C3148 1.574 . S
C3131 C3150 1.368 . S
C3131 H3155 0.949 . S
H3132 C3136 0.949 . S
C3133 C3134 1.349 . S
C3133 C3135 1.327 . S
C3133 H3156 0.950 . S
C3134 C3133 1.349 . S
C3134 C3146 1.349 . S
C3135 C3133 1.327 . S
C3135 C3151 1.429 . S
C3135 H3157 0.950 . S
C3136 H3132 0.949 . S
C3136 C3144 1.574 . S
C3136 C3152 1.368 . S
H3137 C3145 0.950 . S
H3138 C3143 0.950 . S
H3139 C3144 0.949 . S
H3140 C3146 0.950 . S
H3141 C3147 0.950 . S
H3142 C3148 0.949 . S
C3143 H3138 0.950 . S
C3143 C3145 1.327 . S
C3143 C3149 1.429 . S
C3144 C3136 1.574 . S
C3144 H3139 0.949 . S
C3144 C3150 1.368 . S
C3145 C3129 1.349 . S
C3145 H3137 0.950 . S
C3145 C3143 1.327 . S
C3146 C3134 1.349 . S
C3146 H3140 0.950 . S
C3146 C3147 1.327 . S
C3147 H3141 0.950 . S
C3147 C3146 1.327 . S
C3147 C3151 1.429 . S
C3148 C3131 1.574 . S
C3148 H3142 0.949 . S
C3148 C3152 1.368 . S
C3149 C3130 1.429 . S
C3149 C3143 1.429 . S
C3149 C3150 1.523 . S
C3150 C3131 1.368 . S
C3150 C3144 1.368 . S
C3150 C3149 1.523 . S
C3151 C3135 1.429 . S
C3151 C3147 1.429 . S
C3151 C3152 1.523 . S
C3152 C3136 1.368 . S
C3152 C3148 1.368 . S
C3152 C3151 1.523 . S
H3153 C3128 0.950 . S
H3154 C3130 0.950 . S
H3155 C3131 0.949 . S
H3156 C3133 0.950 . S
H3157 C3135 0.950 . S
C3158 C3159 1.349 . S
C3158 C3160 1.327 . S
C3158 H3183 0.950 . S
C3159 C3158 1.349 . S
C3159 C3175 1.349 . S
C3160 C3158 1.327 . S
C3160 C3179 1.429 . S
C3160 H3184 0.950 . S
C3161 C3178 1.574 . S
C3161 C3180 1.368 . S
C3161 H3185 0.949 . S
H3162 C3166 0.949 . S
C3163 C3164 1.349 . S
C3163 C3165 1.327 . S
C3163 H3186 0.950 . S
C3164 C3163 1.349 . S
C3164 C3176 1.349 . S
C3165 C3163 1.327 . S
C3165 C3181 1.429 . S
C3165 H3187 0.950 . S
C3166 H3162 0.949 . S
C3166 C3174 1.574 . S
C3166 C3182 1.368 . S
H3167 C3175 0.950 . S
H3168 C3173 0.950 . S
H3169 C3174 0.949 . S
H3170 C3176 0.950 . S
H3171 C3177 0.950 . S
H3172 C3178 0.949 . S
C3173 H3168 0.950 . S
C3173 C3175 1.327 . S
C3173 C3179 1.429 . S
C3174 C3166 1.574 . S
C3174 H3169 0.949 . S
C3174 C3180 1.368 . S
C3175 C3159 1.349 . S
C3175 H3167 0.950 . S
C3175 C3173 1.327 . S
C3176 C3164 1.349 . S
C3176 H3170 0.950 . S
C3176 C3177 1.327 . S
C3177 H3171 0.950 . S
C3177 C3176 1.327 . S
C3177 C3181 1.429 . S
C3178 C3161 1.574 . S
C3178 H3172 0.949 . S
C3178 C3182 1.368 . S
C3179 C3160 1.429 . S
C3179 C3173 1.429 . S
C3179 C3180 1.523 . S
C3180 C3161 1.368 . S
C3180 C3174 1.368 . S
C3180 C3179 1.523 . S
C3181 C3165 1.429 . S
C3181 C3177 1.429 . S
C3181 C3182 1.523 . S
C3182 C3166 1.368 . S
C3182 C3178 1.368 . S
C3182 C3181 1.523 . S
H3183 C3158 0.950 . S
H3184 C3160 0.950 . S
H3185 C3161 0.949 . S
H3186 C3163 0.950 . S
H3187 C3165 0.950 . S
C3188 C3189 1.349 . S
C3188 C3190 1.327 . S
C3188 H3213 0.950 . S
C3189 C3188 1.349 . S
C3189 C3205 1.349 . S
C3190 C3188 1.327 . S
C3190 C3209 1.429 . S
C3190 H3214 0.950 . S
C3191 C3208 1.574 . S
C3191 C3210 1.368 . S
C3191 H3215 0.949 . S
H3192 C3196 0.949 . S
C3193 C3194 1.349 . S
C3193 C3195 1.327 . S
C3193 H3216 0.950 . S
C3194 C3193 1.349 . S
C3194 C3206 1.349 . S
C3195 C3193 1.327 . S
C3195 C3211 1.429 . S
C3195 H3217 0.950 . S
C3196 H3192 0.949 . S
C3196 C3204 1.574 . S
C3196 C3212 1.368 . S
H3197 C3205 0.950 . S
H3198 C3203 0.950 . S
H3199 C3204 0.949 . S
H3200 C3206 0.950 . S
H3201 C3207 0.950 . S
H3202 C3208 0.949 . S
C3203 H3198 0.950 . S
C3203 C3205 1.327 . S
C3203 C3209 1.429 . S
C3204 C3196 1.574 . S
C3204 H3199 0.949 . S
C3204 C3210 1.368 1_455 S
C3205 C3189 1.349 . S
C3205 H3197 0.950 . S
C3205 C3203 1.327 . S
C3206 C3194 1.349 . S
C3206 H3200 0.950 . S
C3206 C3207 1.327 . S
C3207 H3201 0.950 . S
C3207 C3206 1.327 . S
C3207 C3211 1.429 . S
C3208 C3191 1.574 . S
C3208 H3202 0.949 . S
C3208 C3212 1.368 1_655 S
C3209 C3190 1.429 . S
C3209 C3203 1.429 . S
C3209 C3210 1.523 . S
C3210 C3191 1.368 . S
C3210 C3204 1.368 1_655 S
C3210 C3209 1.523 . S
C3211 C3195 1.429 . S
C3211 C3207 1.429 . S
C3211 C3212 1.523 . S
C3212 C3196 1.368 . S
C3212 C3208 1.368 1_455 S
C3212 C3211 1.523 . S
H3213 C3188 0.950 . S
H3214 C3190 0.950 . S
H3215 C3191 0.949 . S
H3216 C3193 0.950 . S
H3217 C3195 0.950 . S
C3218 C3219 1.349 . S
C3218 C3220 1.327 . S
C3218 H3243 0.950 . S
C3219 C3218 1.349 . S
C3219 C3235 1.349 . S
C3220 C3218 1.327 . S
C3220 C3239 1.429 . S
C3220 H3244 0.950 . S
C3221 C3238 1.574 1_455 S
C3221 C3240 1.368 . S
C3221 H3245 0.949 . S
H3222 C3226 0.949 . S
C3223 C3224 1.349 . S
C3223 C3225 1.327 . S
C3223 H3246 0.950 . S
C3224 C3223 1.349 . S
C3224 C3236 1.349 . S
C3225 C3223 1.327 . S
C3225 C3241 1.429 . S
C3225 H3247 0.950 . S
C3226 H3222 0.949 . S
C3226 C3234 1.574 1_655 S
C3226 C3242 1.368 . S
H3227 C3235 0.950 . S
H3228 C3233 0.950 . S
H3229 C3234 0.949 . S
H3230 C3236 0.950 . S
H3231 C3237 0.950 . S
H3232 C3238 0.949 . S
C3233 H3228 0.950 . S
C3233 C3235 1.327 . S
C3233 C3239 1.429 . S
C3234 C3226 1.574 1_455 S
C3234 H3229 0.949 . S
C3234 C3240 1.368 . S
C3235 C3219 1.349 . S
C3235 H3227 0.950 . S
C3235 C3233 1.327 . S
C3236 C3224 1.349 . S
C3236 H3230 0.950 . S
C3236 C3237 1.327 . S
C3237 H3231 0.950 . S
C3237 C3236 1.327 . S
C3237 C3241 1.429 . S
C3238 C3221 1.574 1_655 S
C3238 H3232 0.949 . S
C3238 C3242 1.368 . S
C3239 C3220 1.429 . S
C3239 C3233 1.429 . S
C3239 C3240 1.523 . S
C3240 C3221 1.368 . S
C3240 C3234 1.368 . S
C3240 C3239 1.523 . S
C3241 C3225 1.429 . S
C3241 C3237 1.429 . S
C3241 C3242 1.523 . S
C3242 C3226 1.368 . S
C3242 C3238 1.368 . S
C3242 C3241 1.523 . S
H3243 C3218 0.950 . S
H3244 C3220 0.950 . S
H3245 C3221 0.949 . S
H3246 C3223 0.950 . S
H3247 C3225 0.950 . S
C3248 C3249 1.349 . S
C3248 C3250 1.327 . S
C3248 H3273 0.950 . S
C3249 C3248 1.349 . S
C3249 C3265 1.349 . S
C3250 C3248 1.327 . S
C3250 C3269 1.429 . S
C3250 H3274 0.950 . S
C3251 C3268 1.574 . S
C3251 C3270 1.368 . S
C3251 H3275 0.949 . S
H3252 C3256 0.949 . S
C3253 C3254 1.349 . S
C3253 C3255 1.327 . S
C3253 H3276 0.950 . S
C3254 C3253 1.349 . S
C3254 C3266 1.349 . S
C3255 C3253 1.327 . S
C3255 C3271 1.429 . S
C3255 H3277 0.950 . S
C3256 H3252 0.949 . S
C3256 C3264 1.574 . S
C3256 C3272 1.368 . S
H3257 C3265 0.950 . S
H3258 C3263 0.950 . S
H3259 C3264 0.949 . S
H3260 C3266 0.950 . S
H3261 C3267 0.950 . S
H3262 C3268 0.949 . S
C3263 H3258 0.950 . S
C3263 C3265 1.327 . S
C3263 C3269 1.429 . S
C3264 C3256 1.574 . S
C3264 H3259 0.949 . S
C3264 C3270 1.368 . S
C3265 C3249 1.349 . S
C3265 H3257 0.950 . S
C3265 C3263 1.327 . S
C3266 C3254 1.349 . S
C3266 H3260 0.950 . S
C3266 C3267 1.327 . S
C3267 H3261 0.950 . S
C3267 C3266 1.327 . S
C3267 C3271 1.429 . S
C3268 C3251 1.574 . S
C3268 H3262 0.949 . S
C3268 C3272 1.368 . S
C3269 C3250 1.429 . S
C3269 C3263 1.429 . S
C3269 C3270 1.523 . S
C3270 C3251 1.368 . S
C3270 C3264 1.368 . S
C3270 C3269 1.523 . S
C3271 C3255 1.429 . S
C3271 C3267 1.429 . S
C3271 C3272 1.523 . S
C3272 C3256 1.368 . S
C3272 C3268 1.368 . S
C3272 C3271 1.523 . S
H3273 C3248 0.950 . S
H3274 C3250 0.950 . S
H3275 C3251 0.949 . S
H3276 C3253 0.950 . S
H3277 C3255 0.950 . S
C3278 C3279 1.349 . S
C3278 C3280 1.327 . S
C3278 H3303 0.950 . S
C3279 C3278 1.349 . S
C3279 C3295 1.349 . S
C3280 C3278 1.327 . S
C3280 C3299 1.429 . S
C3280 H3304 0.950 . S
C3281 C3298 1.574 1_455 S
C3281 C3300 1.368 . S
C3281 H3305 0.949 . S
H3282 C3286 0.949 . S
C3283 C3284 1.349 . S
C3283 C3285 1.327 . S
C3283 H3306 0.950 . S
C3284 C3283 1.349 . S
C3284 C3296 1.349 . S
C3285 C3283 1.327 . S
C3285 C3301 1.429 . S
C3285 H3307 0.950 . S
C3286 H3282 0.949 . S
C3286 C3294 1.574 1_655 S
C3286 C3302 1.368 . S
H3287 C3295 0.950 . S
H3288 C3293 0.950 . S
H3289 C3294 0.949 . S
H3290 C3296 0.950 . S
H3291 C3297 0.950 . S
H3292 C3298 0.949 . S
C3293 H3288 0.950 . S
C3293 C3295 1.327 . S
C3293 C3299 1.429 . S
C3294 C3286 1.574 1_455 S
C3294 H3289 0.949 . S
C3294 C3300 1.368 . S
C3295 C3279 1.349 . S
C3295 H3287 0.950 . S
C3295 C3293 1.327 . S
C3296 C3284 1.349 . S
C3296 H3290 0.950 . S
C3296 C3297 1.327 . S
C3297 H3291 0.950 . S
C3297 C3296 1.327 . S
C3297 C3301 1.429 . S
C3298 C3281 1.574 1_655 S
C3298 H3292 0.949 . S
C3298 C3302 1.368 . S
C3299 C3280 1.429 . S
C3299 C3293 1.429 . S
C3299 C3300 1.523 . S
C3300 C3281 1.368 . S
C3300 C3294 1.368 . S
C3300 C3299 1.523 . S
C3301 C3285 1.429 . S
C3301 C3297 1.429 . S
C3301 C3302 1.523 . S
C3302 C3286 1.368 . S
C3302 C3298 1.368 . S
C3302 C3301 1.523 . S
H3303 C3278 0.950 . S
H3304 C3280 0.950 . S
H3305 C3281 0.949 . S
H3306 C3283 0.950 . S
H3307 C3285 0.950 . S
C3308 C3309 1.349 . S
C3308 C3310 1.327 . S
C3308 H3333 0.950 . S
C3309 C3308 1.349 . S
C3309 C3325 1.349 . S
C3310 C3308 1.327 . S
C3310 C3329 1.429 . S
C3310 H3334 0.950 . S
C3311 C3328 1.574 . S
C3311 C3330 1.368 . S
C3311 H3335 0.949 . S
H3312 C3316 0.949 . S
C3313 C3314 1.349 . S
C3313 C3315 1.327 . S
C3313 H3336 0.950 . S
C3314 C3313 1.349 . S
C3314 C3326 1.349 . S
C3315 C3313 1.327 . S
C3315 C3331 1.429 . S
C3315 H3337 0.950 . S
C3316 H3312 0.949 . S
C3316 C3324 1.574 . S
C3316 C3332 1.368 . S
H3317 C3325 0.950 . S
H3318 C3323 0.950 . S
H3319 C3324 0.949 . S
H3320 C3326 0.950 . S
H3321 C3327 0.950 . S
H3322 C3328 0.949 . S
C3323 H3318 0.950 . S
C3323 C3325 1.327 . S
C3323 C3329 1.429 . S
C3324 C3316 1.574 . S
C3324 H3319 0.949 . S
C3324 C3330 1.368 1_655 S
C3325 C3309 1.349 . S
C3325 H3317 0.950 . S
C3325 C3323 1.327 . S
C3326 C3314 1.349 . S
C3326 H3320 0.950 . S
C3326 C3327 1.327 . S
C3327 H3321 0.950 . S
C3327 C3326 1.327 . S
C3327 C3331 1.429 . S
C3328 C3311 1.574 . S
C3328 H3322 0.949 . S
C3328 C3332 1.368 1_455 S
C3329 C3310 1.429 . S
C3329 C3323 1.429 . S
C3329 C3330 1.523 . S
C3330 C3311 1.368 . S
C3330 C3324 1.368 1_455 S
C3330 C3329 1.523 . S
C3331 C3315 1.429 . S
C3331 C3327 1.429 . S
C3331 C3332 1.523 . S
C3332 C3316 1.368 . S
C3332 C3328 1.368 1_655 S
C3332 C3331 1.523 . S
H3333 C3308 0.950 . S
H3334 C3310 0.950 . S
H3335 C3311 0.949 . S
H3336 C3313 0.950 . S
H3337 C3315 0.950 . S
C3338 C3339 1.349 . S
C3338 C3340 1.327 . S
C3338 H3363 0.950 . S
C3339 C3338 1.349 . S
C3339 C3355 1.349 . S
C3340 C3338 1.327 . S
C3340 C3359 1.429 . S
C3340 H3364 0.950 . S
C3341 C3358 1.574 . S
C3341 C3360 1.368 . S
C3341 H3365 0.949 . S
H3342 C3346 0.949 . S
C3343 C3344 1.349 . S
C3343 C3345 1.327 . S
C3343 H3366 0.950 . S
C3344 C3343 1.349 . S
C3344 C3356 1.349 . S
C3345 C3343 1.327 . S
C3345 C3361 1.429 . S
C3345 H3367 0.950 . S
C3346 H3342 0.949 . S
C3346 C3354 1.574 . S
C3346 C3362 1.368 . S
H3347 C3355 0.950 . S
H3348 C3353 0.950 . S
H3349 C3354 0.949 . S
H3350 C3356 0.950 . S
H3351 C3357 0.950 . S
H3352 C3358 0.949 . S
C3353 H3348 0.950 . S
C3353 C3355 1.327 . S
C3353 C3359 1.429 . S
C3354 C3346 1.574 . S
C3354 H3349 0.949 . S
C3354 C3360 1.368 . S
C3355 C3339 1.349 . S
C3355 H3347 0.950 . S
C3355 C3353 1.327 . S
C3356 C3344 1.349 . S
C3356 H3350 0.950 . S
C3356 C3357 1.327 . S
C3357 H3351 0.950 . S
C3357 C3356 1.327 . S
C3357 C3361 1.429 . S
C3358 C3341 1.574 . S
C3358 H3352 0.949 . S
C3358 C3362 1.368 . S
C3359 C3340 1.429 . S
C3359 C3353 1.429 . S
C3359 C3360 1.523 . S
C3360 C3341 1.368 . S
C3360 C3354 1.368 . S
C3360 C3359 1.523 . S
C3361 C3345 1.429 . S
C3361 C3357 1.429 . S
C3361 C3362 1.523 . S
C3362 C3346 1.368 . S
C3362 C3358 1.368 . S
C3362 C3361 1.523 . S
H3363 C3338 0.950 . S
H3364 C3340 0.950 . S
H3365 C3341 0.949 . S
H3366 C3343 0.950 . S
H3367 C3345 0.950 . S
C3368 C3369 1.349 . S
C3368 C3370 1.327 . S
C3368 H3393 0.950 . S
C3369 C3368 1.349 . S
C3369 C3385 1.349 . S
C3370 C3368 1.327 . S
C3370 C3389 1.429 . S
C3370 H3394 0.950 . S
C3371 C3388 1.574 . S
C3371 C3390 1.368 . S
C3371 H3395 0.949 . S
H3372 C3376 0.949 . S
C3373 C3374 1.349 . S
C3373 C3375 1.327 . S
C3373 H3396 0.950 . S
C3374 C3373 1.349 . S
C3374 C3386 1.349 . S
C3375 C3373 1.327 . S
C3375 C3391 1.429 . S
C3375 H3397 0.950 . S
C3376 H3372 0.949 . S
C3376 C3384 1.574 . S
C3376 C3392 1.368 . S
H3377 C3385 0.950 . S
H3378 C3383 0.950 . S
H3379 C3384 0.949 . S
H3380 C3386 0.950 . S
H3381 C3387 0.950 . S
H3382 C3388 0.949 . S
C3383 H3378 0.950 . S
C3383 C3385 1.327 . S
C3383 C3389 1.429 . S
C3384 C3376 1.574 . S
C3384 H3379 0.949 . S
C3384 C3390 1.368 . S
C3385 C3369 1.349 . S
C3385 H3377 0.950 . S
C3385 C3383 1.327 . S
C3386 C3374 1.349 . S
C3386 H3380 0.950 . S
C3386 C3387 1.327 . S
C3387 H3381 0.950 . S
C3387 C3386 1.327 . S
C3387 C3391 1.429 . S
C3388 C3371 1.574 . S
C3388 H3382 0.949 . S
C3388 C3392 1.368 . S
C3389 C3370 1.429 . S
C3389 C3383 1.429 . S
C3389 C3390 1.523 . S
C3390 C3371 1.368 . S
C3390 C3384 1.368 . S
C3390 C3389 1.523 . S
C3391 C3375 1.429 . S
C3391 C3387 1.429 . S
C3391 C3392 1.523 . S
C3392 C3376 1.368 . S
C3392 C3388 1.368 . S
C3392 C3391 1.523 . S
H3393 C3368 0.950 . S
H3394 C3370 0.950 . S
H3395 C3371 0.949 . S
H3396 C3373 0.950 . S
H3397 C3375 0.950 . S
C3398 C3399 1.349 . S
C3398 C3400 1.327 . S
C3398 H3423 0.950 . S
C3399 C3398 1.349 . S
C3399 C3415 1.349 . S
C3400 C3398 1.327 . S
C3400 C3419 1.429 . S
C3400 H3424 0.950 . S
C3401 C3418 1.574 . S
C3401 C3420 1.368 . S
C3401 H3425 0.949 . S
H3402 C3406 0.949 . S
C3403 C3404 1.349 . S
C3403 C3405 1.327 . S
C3403 H3426 0.950 . S
C3404 C3403 1.349 . S
C3404 C3416 1.349 . S
C3405 C3403 1.327 . S
C3405 C3421 1.429 . S
C3405 H3427 0.950 . S
C3406 H3402 0.949 . S
C3406 C3414 1.574 . S
C3406 C3422 1.368 . S
H3407 C3415 0.950 . S
H3408 C3413 0.950 . S
H3409 C3414 0.949 . S
H3410 C3416 0.950 . S
H3411 C3417 0.950 . S
H3412 C3418 0.949 . S
C3413 H3408 0.950 . S
C3413 C3415 1.327 . S
C3413 C3419 1.429 . S
C3414 C3406 1.574 . S
C3414 H3409 0.949 . S
C3414 C3420 1.368 . S
C3415 C3399 1.349 . S
C3415 H3407 0.950 . S
C3415 C3413 1.327 . S
C3416 C3404 1.349 . S
C3416 H3410 0.950 . S
C3416 C3417 1.327 . S
C3417 H3411 0.950 . S
C3417 C3416 1.327 . S
C3417 C3421 1.429 . S
C3418 C3401 1.574 . S
C3418 H3412 0.949 . S
C3418 C3422 1.368 . S
C3419 C3400 1.429 . S
C3419 C3413 1.429 . S
C3419 C3420 1.523 . S
C3420 C3401 1.368 . S
C3420 C3414 1.368 . S
C3420 C3419 1.523 . S
C3421 C3405 1.429 . S
C3421 C3417 1.429 . S
C3421 C3422 1.523 . S
C3422 C3406 1.368 . S
C3422 C3418 1.368 . S
C3422 C3421 1.523 . S
H3423 C3398 0.950 . S
H3424 C3400 0.950 . S
H3425 C3401 0.949 . S
H3426 C3403 0.950 . S
H3427 C3405 0.950 . S
C3428 C3429 1.349 . S
C3428 C3430 1.327 . S
C3428 H3453 0.950 . S
C3429 C3428 1.349 . S
C3429 C3445 1.349 . S
C3430 C3428 1.327 . S
C3430 C3449 1.429 . S
C3430 H3454 0.950 . S
C3431 C3448 1.574 . S
C3431 C3450 1.368 . S
C3431 H3455 0.949 . S
H3432 C3436 0.949 . S
C3433 C3434 1.349 . S
C3433 C3435 1.327 . S
C3433 H3456 0.950 . S
C3434 C3433 1.349 . S
C3434 C3446 1.349 . S
C3435 C3433 1.327 . S
C3435 C3451 1.429 . S
C3435 H3457 0.950 . S
C3436 H3432 0.949 . S
C3436 C3444 1.574 . S
C3436 C3452 1.368 . S
H3437 C3445 0.950 . S
H3438 C3443 0.950 . S
H3439 C3444 0.949 . S
H3440 C3446 0.950 . S
H3441 C3447 0.950 . S
H3442 C3448 0.949 . S
C3443 H3438 0.950 . S
C3443 C3445 1.327 . S
C3443 C3449 1.429 . S
C3444 C3436 1.574 . S
C3444 H3439 0.949 . S
C3444 C3450 1.368 1_455 S
C3445 C3429 1.349 . S
C3445 H3437 0.950 . S
C3445 C3443 1.327 . S
C3446 C3434 1.349 . S
C3446 H3440 0.950 . S
C3446 C3447 1.327 . S
C3447 H3441 0.950 . S
C3447 C3446 1.327 . S
C3447 C3451 1.429 . S
C3448 C3431 1.574 . S
C3448 H3442 0.949 . S
C3448 C3452 1.368 1_655 S
C3449 C3430 1.429 . S
C3449 C3443 1.429 . S
C3449 C3450 1.523 . S
C3450 C3431 1.368 . S
C3450 C3444 1.368 1_655 S
C3450 C3449 1.523 . S
C3451 C3435 1.429 . S
C3451 C3447 1.429 . S
C3451 C3452 1.523 . S
C3452 C3436 1.368 . S
C3452 C3448 1.368 1_455 S
C3452 C3451 1.523 . S
H3453 C3428 0.950 . S
H3454 C3430 0.950 . S
H3455 C3431 0.949 . S
H3456 C3433 0.950 . S
H3457 C3435 0.950 . S
C3458 C3459 1.349 . S
C3458 C3460 1.327 . S
C3458 H3483 0.950 . S
C3459 C3458 1.349 . S
C3459 C3475 1.349 . S
C3460 C3458 1.327 . S
C3460 C3479 1.429 . S
C3460 H3484 0.950 . S
C3461 C3478 1.574 1_655 S
C3461 C3480 1.368 . S
C3461 H3485 0.949 . S
H3462 C3466 0.949 . S
C3463 C3464 1.349 . S
C3463 C3465 1.327 . S
C3463 H3486 0.950 . S
C3464 C3463 1.349 . S
C3464 C3476 1.349 . S
C3465 C3463 1.327 . S
C3465 C3481 1.429 . S
C3465 H3487 0.950 . S
C3466 H3462 0.949 . S
C3466 C3474 1.574 1_455 S
C3466 C3482 1.368 . S
H3467 C3475 0.950 . S
H3468 C3473 0.950 . S
H3469 C3474 0.949 . S
H3470 C3476 0.950 . S
H3471 C3477 0.950 . S
H3472 C3478 0.949 . S
C3473 H3468 0.950 . S
C3473 C3475 1.327 . S
C3473 C3479 1.429 . S
C3474 C3466 1.574 1_655 S
C3474 H3469 0.949 . S
C3474 C3480 1.368 . S
C3475 C3459 1.349 . S
C3475 H3467 0.950 . S
C3475 C3473 1.327 . S
C3476 C3464 1.349 . S
C3476 H3470 0.950 . S
C3476 C3477 1.327 . S
C3477 H3471 0.950 . S
C3477 C3476 1.327 . S
C3477 C3481 1.429 . S
C3478 C3461 1.574 1_455 S
C3478 H3472 0.949 . S
C3478 C3482 1.368 . S
C3479 C3460 1.429 . S
C3479 C3473 1.429 . S
C3479 C3480 1.523 . S
C3480 C3461 1.368 . S
C3480 C3474 1.368 . S
C3480 C3479 1.523 . S
C3481 C3465 1.429 . S
C3481 C3477 1.429 . S
C3481 C3482 1.523 . S
C3482 C3466 1.368 . S
C3482 C3478 1.368 . S
C3482 C3481 1.523 . S
H3483 C3458 0.950 . S
H3484 C3460 0.950 . S
H3485 C3461 0.949 . S
H3486 C3463 0.950 . S
H3487 C3465 0.950 . S
C1089 C9 1.532 . S
C1094 C247 1.532 . S
C1119 C43 1.531 . S
C1124 C145 1.531 . S
C1149 C77 1.531 . S
C1154 C179 1.531 . S
C1179 C213 1.532 . S
C1184 C111 1.532 . S
C1209 C519 1.531 . S
C1214 C281 1.531 . S
C1239 C417 1.532 . S
C1244 C315 1.532 . S
C1269 C451 1.532 . S
C1274 C349 1.532 . S
C1299 C485 1.531 . S
C1304 C383 1.531 . S
C1329 C553 1.531 . S
C1334 C791 1.531 . S
C1359 C689 1.531 . S
C1364 C587 1.531 . S
C1389 C723 1.532 . S
C1394 C621 1.532 . S
C1419 C655 1.531 . S
C1424 C757 1.531 . S
C1449 C825 1.531 . S
C1454 C1063 1.531 . S
C1479 C961 1.531 . S
C1484 C859 1.531 . S
C1509 C893 1.532 . S
C1514 C995 1.532 . S
C1539 C1029 1.532 . S
C1544 C927 1.532 . S
C1569 C954 0.459 . S
C1574 C20 0.441 . S
C1599 C54 0.441 . S
C1604 C444 0.459 . S
C1629 C1022 0.459 . S
C1634 C88 0.441 . S
C1659 C122 0.441 . S
C1664 C512 0.459 . S
C1689 C156 0.441 . S
C1694 C818 0.459 . S
C1719 C308 0.459 . S
C1724 C190 0.441 . S
C1749 C224 0.441 . S
C1754 C886 0.459 . S
C1779 C258 0.441 . S
C1784 C376 0.459 . S
C1809 C682 0.459 . S
C1814 C292 0.441 . S
C1839 C326 0.441 . S
C1844 C172 0.459 . S
C1869 C750 0.459 . S
C1874 C360 0.441 . S
C1899 C240 0.459 . S
C1904 C394 0.441 . S
C1929 C428 0.441 . S
C1934 C546 0.459 . S
C1959 C462 0.441 . S
C1964 C36 0.459 . S
C1989 C496 0.441 . S
C1994 C614 0.459 . S
C2019 C104 0.459 . S
C2024 C530 0.441 . S
C2049 C564 0.441 . S
C2054 C410 0.459 . S
C2079 C988 0.459 . S
C2084 C598 0.441 . S
C2109 C632 0.441 . S
C2114 C478 0.459 . S
C2139 C666 0.441 . S
C2144 C1056 0.459 . S
C2169 C700 0.441 . S
C2174 C274 0.459 . S
C2199 C852 0.459 . S
C2204 C734 0.441 . S
C2229 C768 0.441 . S
C2234 C342 0.459 . S
C2259 C802 0.441 . S
C2264 C920 0.459 . S
C2289 C138 0.459 . S
C2294 C836 0.441 . S
C2319 C716 0.459 . S
C2324 C870 0.441 . S
C2349 C206 0.459 . S
C2354 C904 0.441 . S
C2379 C784 0.459 . S
C2384 C938 0.441 . S
C2409 C972 0.441 . S
C2414 C2 0.459 . S
C2439 C580 0.459 . S
C2444 C1006 0.441 . S
C2469 C1040 0.441 . S
C2474 C70 0.459 . S
C2499 C648 0.459 . S
C2504 C1074 0.441 . S
C2529 C141 1.671 . S
C2534 C5 1.671 . S
C2559 C175 1.671 . S
C2564 C39 1.671 . S
C2589 C73 1.671 . S
C2594 C209 1.671 . S
C2619 C243 1.671 . S
C2624 C107 1.671 . S
C2649 C413 1.671 . S
C2654 C277 1.671 . S
C2679 C447 1.671 . S
C2684 C311 1.671 . S
C2709 C345 1.671 . S
C2714 C481 1.671 . S
C2739 C379 1.671 . S
C2744 C515 1.671 . S
C2769 C685 1.671 . S
C2774 C549 1.671 . S
C2799 C719 1.671 . S
C2804 C583 1.671 . S
C2829 C617 1.671 . S
C2834 C753 1.671 . S
C2859 C651 1.671 . S
C2864 C787 1.671 . S
C2889 C957 1.671 . S
C2894 C821 1.671 . S
C2919 C991 1.671 . S
C2924 C855 1.671 . S
C2949 C889 1.671 . S
C2954 C1025 1.671 . S
C2979 C923 1.671 . S
C2984 C1059 1.671 . S
C3009 C645 1.373 . S
C3014 C33 1.373 . S
C3039 C67 1.373 . S
C3044 C679 1.373 . S
C3069 C577 1.373 . S
C3074 C101 1.373 . S
C3099 C135 1.373 . S
C3104 C611 1.373 . S
C3129 C169 1.373 . S
C3134 C781 1.373 . S
C3159 C815 1.373 . S
C3164 C203 1.373 . S
C3189 C713 1.373 . S
C3194 C237 1.373 . S
C3219 C271 1.373 . S
C3224 C747 1.373 . S
C3249 C305 1.373 . S
C3254 C917 1.373 . S
C3279 C951 1.373 . S
C3284 C339 1.373 . S
C3309 C849 1.373 . S
C3314 C373 1.373 . S
C3339 C407 1.373 . S
C3344 C883 1.373 . S
C3369 C441 1.373 . S
C3374 C1053 1.373 . S
C3399 C1087 1.373 . S
C3404 C475 1.373 . S
C3429 C509 1.373 . S
C3434 C985 1.373 . S
C3459 C543 1.373 . S
C3464 C1019 1.373 . S
